# Generated by pormake.
# Topology ocu, (6,8)-cn, num edge types: 1
# Building blocks:
#     Node 0, Type 0, BuildingBlock: KUMBUR_clean_sbu_0, # of connection points: 6
#     Node 1, Type 0, BuildingBlock: KUMBUR_clean_sbu_0, # of connection points: 6
#     Node 2, Type 0, BuildingBlock: KUMBUR_clean_sbu_0, # of connection points: 6
#     Node 3, Type 0, BuildingBlock: KUMBUR_clean_sbu_0, # of connection points: 6
#     Node 4, Type 0, BuildingBlock: KUMBUR_clean_sbu_0, # of connection points: 6
#     Node 5, Type 0, BuildingBlock: KUMBUR_clean_sbu_0, # of connection points: 6
#     Node 6, Type 0, BuildingBlock: KUMBUR_clean_sbu_0, # of connection points: 6
#     Node 7, Type 0, BuildingBlock: KUMBUR_clean_sbu_0, # of connection points: 6
#     Node 8, Type 1, BuildingBlock: TAGTUT_clean_sbu_1, # of connection points: 8
#     Node 9, Type 1, BuildingBlock: TAGTUT_clean_sbu_1, # of connection points: 8
#     Node 10, Type 1, BuildingBlock: TAGTUT_clean_sbu_1, # of connection points: 8
#     Node 11, Type 1, BuildingBlock: TAGTUT_clean_sbu_1, # of connection points: 8
#     Node 12, Type 1, BuildingBlock: TAGTUT_clean_sbu_1, # of connection points: 8
#     Node 13, Type 1, BuildingBlock: TAGTUT_clean_sbu_1, # of connection points: 8
#     Edge 14, Type (0, 1), BuildingBlock: TEMPAE_clean_linker_10, # of connection points: 2
#     Edge 15, Type (0, 1), BuildingBlock: TEMPAE_clean_linker_10, # of connection points: 2
#     Edge 16, Type (0, 1), BuildingBlock: TEMPAE_clean_linker_10, # of connection points: 2
#     Edge 17, Type (0, 1), BuildingBlock: TEMPAE_clean_linker_10, # of connection points: 2
#     Edge 18, Type (0, 1), BuildingBlock: TEMPAE_clean_linker_10, # of connection points: 2
#     Edge 19, Type (0, 1), BuildingBlock: TEMPAE_clean_linker_10, # of connection points: 2
#     Edge 20, Type (0, 1), BuildingBlock: TEMPAE_clean_linker_10, # of connection points: 2
#     Edge 21, Type (0, 1), BuildingBlock: TEMPAE_clean_linker_10, # of connection points: 2
#     Edge 22, Type (0, 1), BuildingBlock: TEMPAE_clean_linker_10, # of connection points: 2
#     Edge 23, Type (0, 1), BuildingBlock: TEMPAE_clean_linker_10, # of connection points: 2
#     Edge 24, Type (0, 1), BuildingBlock: TEMPAE_clean_linker_10, # of connection points: 2
#     Edge 25, Type (0, 1), BuildingBlock: TEMPAE_clean_linker_10, # of connection points: 2
#     Edge 26, Type (0, 1), BuildingBlock: TEMPAE_clean_linker_10, # of connection points: 2
#     Edge 27, Type (0, 1), BuildingBlock: TEMPAE_clean_linker_10, # of connection points: 2
#     Edge 28, Type (0, 1), BuildingBlock: TEMPAE_clean_linker_10, # of connection points: 2
#     Edge 29, Type (0, 1), BuildingBlock: TEMPAE_clean_linker_10, # of connection points: 2
#     Edge 30, Type (0, 1), BuildingBlock: TEMPAE_clean_linker_10, # of connection points: 2
#     Edge 31, Type (0, 1), BuildingBlock: TEMPAE_clean_linker_10, # of connection points: 2
#     Edge 32, Type (0, 1), BuildingBlock: TEMPAE_clean_linker_10, # of connection points: 2
#     Edge 33, Type (0, 1), BuildingBlock: TEMPAE_clean_linker_10, # of connection points: 2
#     Edge 34, Type (0, 1), BuildingBlock: TEMPAE_clean_linker_10, # of connection points: 2
#     Edge 35, Type (0, 1), BuildingBlock: TEMPAE_clean_linker_10, # of connection points: 2
#     Edge 36, Type (0, 1), BuildingBlock: TEMPAE_clean_linker_10, # of connection points: 2
#     Edge 37, Type (0, 1), BuildingBlock: TEMPAE_clean_linker_10, # of connection points: 2
#     Edge 38, Type (0, 1), BuildingBlock: TEMPAE_clean_linker_10, # of connection points: 2
#     Edge 39, Type (0, 1), BuildingBlock: TEMPAE_clean_linker_10, # of connection points: 2
#     Edge 40, Type (0, 1), BuildingBlock: TEMPAE_clean_linker_10, # of connection points: 2
#     Edge 41, Type (0, 1), BuildingBlock: TEMPAE_clean_linker_10, # of connection points: 2
#     Edge 42, Type (0, 1), BuildingBlock: TEMPAE_clean_linker_10, # of connection points: 2
#     Edge 43, Type (0, 1), BuildingBlock: TEMPAE_clean_linker_10, # of connection points: 2
#     Edge 44, Type (0, 1), BuildingBlock: TEMPAE_clean_linker_10, # of connection points: 2
#     Edge 45, Type (0, 1), BuildingBlock: TEMPAE_clean_linker_10, # of connection points: 2
#     Edge 46, Type (0, 1), BuildingBlock: TEMPAE_clean_linker_10, # of connection points: 2
#     Edge 47, Type (0, 1), BuildingBlock: TEMPAE_clean_linker_10, # of connection points: 2
#     Edge 48, Type (0, 1), BuildingBlock: TEMPAE_clean_linker_10, # of connection points: 2
#     Edge 49, Type (0, 1), BuildingBlock: TEMPAE_clean_linker_10, # of connection points: 2
#     Edge 50, Type (0, 1), BuildingBlock: TEMPAE_clean_linker_10, # of connection points: 2
#     Edge 51, Type (0, 1), BuildingBlock: TEMPAE_clean_linker_10, # of connection points: 2
#     Edge 52, Type (0, 1), BuildingBlock: TEMPAE_clean_linker_10, # of connection points: 2
#     Edge 53, Type (0, 1), BuildingBlock: TEMPAE_clean_linker_10, # of connection points: 2
#     Edge 54, Type (0, 1), BuildingBlock: TEMPAE_clean_linker_10, # of connection points: 2
#     Edge 55, Type (0, 1), BuildingBlock: TEMPAE_clean_linker_10, # of connection points: 2
#     Edge 56, Type (0, 1), BuildingBlock: TEMPAE_clean_linker_10, # of connection points: 2
#     Edge 57, Type (0, 1), BuildingBlock: TEMPAE_clean_linker_10, # of connection points: 2
#     Edge 58, Type (0, 1), BuildingBlock: TEMPAE_clean_linker_10, # of connection points: 2
#     Edge 59, Type (0, 1), BuildingBlock: TEMPAE_clean_linker_10, # of connection points: 2
#     Edge 60, Type (0, 1), BuildingBlock: TEMPAE_clean_linker_10, # of connection points: 2
#     Edge 61, Type (0, 1), BuildingBlock: TEMPAE_clean_linker_10, # of connection points: 2
# Relax obj value: 0.099
# Max RMSD: 0.265
# Mean RMSD: 0.150
data_MOF--net-ocu--node1-KUMBUR_clean_sbu_0--node2-TAGTUT_clean_sbu_1--edge1-TEMPAE_clean_linker_10
_symmetry_space_group_name_H-M    P1
_symmetry_Int_Tables_number       1
_symmetry_cell_setting            triclinic
loop_
_symmetry_equiv_pos_as_xyz
'x, y, z'
_cell_length_a     40.01802
_cell_length_b     38.012971
_cell_length_c     43.478445
_cell_angle_alpha  78.783051
_cell_angle_beta   102.06334
_cell_angle_gamma 114.52573
loop_
_atom_site_label
_atom_site_type_symbol
_atom_site_fract_x
_atom_site_fract_y
_atom_site_fract_z
_atom_type_partial_charge
Tb0 Tb 0.25387 0.21554 0.23068 0.0
C1 C 0.39308 0.34144 0.2929 0.0
C2 C 0.41158 0.30956 0.34324 0.0
C3 C 0.45807 0.36415 0.31622 0.0
C4 C 0.38399 0.31262 0.31798 0.0
C5 C 0.43016 0.36792 0.2918 0.0
C6 C 0.44878 0.33503 0.34195 0.0
C7 C 0.40896 0.40085 0.24342 0.0
N8 N 0.36526 0.34395 0.26981 0.0
C9 C 0.37261 0.37388 0.24556 0.0
C10 C 0.43793 0.39765 0.26646 0.0
Tb11 Tb 0.30678 0.29728 0.27489 0.0
N12 N 0.34778 0.2887 0.31829 0.0
C13 C 0.33696 0.26287 0.34454 0.0
C14 C 0.40081 0.28177 0.36938 0.0
C15 C 0.36326 0.25863 0.37019 0.0
H16 H 0.35082 0.37675 0.22727 0.0
H17 H 0.35452 0.23747 0.39055 0.0
H18 H 0.47043 0.33291 0.36097 0.0
H19 H 0.41462 0.42402 0.22389 0.0
H20 H 0.30808 0.24471 0.34569 0.0
H21 H 0.21078 0.27773 0.11442 0.0
H22 H 0.42111 0.27864 0.38936 0.0
H23 H 0.20864 0.13309 0.27386 0.0
H24 H 0.25552 0.26907 0.16035 0.0
H25 H 0.14436 0.0855 0.27514 0.0
H26 H 0.48677 0.38401 0.31572 0.0
H27 H 0.14365 0.2382 0.11416 0.0
H28 H 0.09262 0.18497 0.14148 0.0
H29 H 0.46607 0.41853 0.26467 0.0
H30 H 0.07443 0.13227 0.18539 0.0
N31 N 0.21428 0.22628 0.18696 0.0
C32 C 0.22637 0.25178 0.16089 0.0
C33 C 0.16317 0.23476 0.13471 0.0
C34 C 0.15109 0.20717 0.16066 0.0
C35 C 0.20104 0.25684 0.13467 0.0
C36 C 0.17776 0.2033 0.1865 0.0
H37 H 0.09371 0.09432 0.23502 0.0
N38 N 0.19489 0.16935 0.23364 0.0
C39 C 0.15049 0.11024 0.25693 0.0
C40 C 0.16764 0.17365 0.2108 0.0
C41 C 0.18703 0.13738 0.25606 0.0
C42 C 0.12195 0.11541 0.23435 0.0
C43 C 0.13043 0.14706 0.21054 0.0
O44 O 0.25925 0.1631 0.22876 0.0
O45 O 0.29979 0.23975 0.26726 0.0
O46 O 0.34395 0.29251 0.24746 0.0
O47 O 0.29889 0.26226 0.2072 0.0
O48 O 0.27106 0.18151 0.27333 0.0
O49 O 0.27427 0.21066 0.19155 0.0
O50 O 0.2973 0.34789 0.27449 0.0
O51 O 0.25969 0.27243 0.23886 0.0
O52 O 0.21762 0.21708 0.26152 0.0
O53 O 0.26379 0.25086 0.29979 0.0
O54 O 0.28979 0.33032 0.23144 0.0
O55 O 0.29106 0.30502 0.31557 0.0
C56 C 0.29882 0.20925 0.28591 0.0
C57 C 0.25512 0.1478 0.17731 0.0
C58 C 0.2643 0.11501 0.13839 0.0
C59 C 0.27884 0.13966 0.16252 0.0
C60 C 0.22558 0.0984 0.12959 0.0
C61 C 0.21666 0.13089 0.16812 0.0
C62 C 0.20203 0.10625 0.14442 0.0
C63 C 0.33393 0.28217 0.21859 0.0
C64 C 0.27119 0.17506 0.20139 0.0
C65 C 0.10326 0.15214 0.1859 0.0
C66 C 0.1136 0.18215 0.16093 0.0
C67 C 0.26113 0.3027 0.21967 0.0
C68 C 0.30408 0.36931 0.32401 0.0
C69 C 0.28004 0.37328 0.34134 0.0
C70 C 0.29252 0.40444 0.35948 0.0
C71 C 0.32959 0.43121 0.36049 0.0
C72 C 0.34111 0.39597 0.32567 0.0
C73 C 0.35375 0.42673 0.34392 0.0
C74 C 0.22882 0.2294 0.28989 0.0
C75 C 0.28921 0.33827 0.30327 0.0
H76 H 0.30863 0.15319 0.16934 0.0
H77 H 0.21345 0.07903 0.11139 0.0
H78 H 0.198 0.13682 0.17913 0.0
H79 H 0.1723 0.09324 0.13744 0.0
H80 H 0.25133 0.35278 0.33997 0.0
H81 H 0.33992 0.45541 0.3743 0.0
H82 H 0.36003 0.39331 0.3126 0.0
H83 H 0.3823 0.44739 0.345 0.0
Tb84 Tb 0.80492 0.22292 0.26023 0.0
C85 C 0.67064 0.26192 0.24496 0.0
C86 C 0.6507 0.27884 0.18984 0.0
C87 C 0.60495 0.24494 0.22576 0.0
C88 C 0.67897 0.27831 0.21519 0.0
C89 C 0.63366 0.24651 0.25106 0.0
C90 C 0.61347 0.26075 0.19507 0.0
C91 C 0.65694 0.24019 0.30674 0.0
N92 N 0.69927 0.26408 0.26845 0.0
C93 C 0.69305 0.25549 0.29928 0.0
C94 C 0.62695 0.23471 0.28247 0.0
Tb95 Tb 0.75788 0.28822 0.25462 0.0
N96 N 0.7153 0.29516 0.21146 0.0
C97 C 0.72539 0.3159 0.183 0.0
C98 C 0.66082 0.29817 0.16032 0.0
C99 C 0.69838 0.31728 0.15703 0.0
H100 H 0.71579 0.25985 0.31845 0.0
H101 H 0.70656 0.33288 0.13443 0.0
H102 H 0.59116 0.25966 0.17578 0.0
H103 H 0.65238 0.23281 0.33124 0.0
H104 H 0.75421 0.33017 0.17978 0.0
H105 H 0.94957 0.3181 0.25932 0.0
H106 H 0.63998 0.29923 0.14017 0.0
H107 H 0.75247 0.14528 0.2229 0.0
H108 H 0.88966 0.28932 0.27942 0.0
H109 H 0.75571 0.11457 0.17933 0.0
H110 H 0.57625 0.23253 0.2298 0.0
H111 H 0.95669 0.29594 0.21212 0.0
H112 H 0.92851 0.25041 0.17013 0.0
H113 H 0.59899 0.22291 0.28827 0.0
H114 H 0.87554 0.19496 0.14818 0.0
N115 N 0.86243 0.25074 0.24407 0.0
C116 C 0.89218 0.27881 0.25907 0.0
C117 C 0.93026 0.28293 0.22097 0.0
C118 C 0.90022 0.25314 0.2065 0.0
C119 C 0.92638 0.29538 0.24769 0.0
C120 C 0.86649 0.23719 0.21906 0.0
H121 H 0.81108 0.14357 0.15182 0.0
N122 N 0.80568 0.19148 0.22045 0.0
C123 C 0.77864 0.14064 0.18659 0.0
C124 C 0.83701 0.20629 0.20682 0.0
C125 C 0.77703 0.15808 0.21148 0.0
C126 C 0.80998 0.15704 0.17117 0.0
C127 C 0.83992 0.19003 0.1815 0.0
O128 O 0.79134 0.16686 0.28566 0.0
O129 O 0.75958 0.2322 0.27259 0.0
O130 O 0.77642 0.26768 0.30299 0.0
O131 O 0.82982 0.2634 0.29632 0.0
O132 O 0.74797 0.17824 0.26349 0.0
O133 O 0.84463 0.21247 0.29664 0.0
O134 O 0.77424 0.3492 0.25 0.0
O135 O 0.80672 0.28103 0.24853 0.0
O136 O 0.78135 0.23224 0.21132 0.0
O137 O 0.73374 0.25097 0.21586 0.0
O138 O 0.80008 0.32971 0.2253 0.0
O139 O 0.76658 0.31501 0.29512 0.0
C140 C 0.73357 0.19899 0.27165 0.0
C141 C 0.81554 0.17243 0.33987 0.0
C142 C 0.84157 0.18638 0.39437 0.0
C143 C 0.84606 0.18858 0.36269 0.0
C144 C 0.80564 0.16821 0.40276 0.0
C145 C 0.78015 0.15249 0.3492 0.0
C146 C 0.77536 0.15073 0.38043 0.0
C147 C 0.81051 0.27002 0.31403 0.0
C148 C 0.82102 0.17834 0.30639 0.0
C149 C 0.87285 0.20672 0.16789 0.0
C150 C 0.90299 0.23827 0.18039 0.0
C151 C 0.82121 0.31104 0.22954 0.0
C152 C 0.74847 0.36693 0.28589 0.0
C153 C 0.71759 0.36709 0.264 0.0
C154 C 0.69387 0.38276 0.2701 0.0
C155 C 0.70016 0.39655 0.29934 0.0
C156 C 0.75484 0.381 0.31499 0.0
C157 C 0.73058 0.39554 0.32173 0.0
C158 C 0.75017 0.23746 0.20006 0.0
C159 C 0.77201 0.34897 0.27951 0.0
H160 H 0.87353 0.20179 0.35571 0.0
H161 H 0.80104 0.16625 0.42682 0.0
H162 H 0.75611 0.13872 0.33238 0.0
H163 H 0.74814 0.1354 0.38752 0.0
H164 H 0.71205 0.3552 0.24188 0.0
H165 H 0.68225 0.40893 0.30448 0.0
H166 H 0.7782 0.38025 0.33258 0.0
H167 H 0.73556 0.40635 0.34422 0.0
Tb168 Tb 0.75327 0.73739 0.28135 0.0
C169 C 0.85284 0.87724 0.20027 0.0
C170 C 0.81513 0.88614 0.15056 0.0
C171 C 0.868 0.94163 0.17035 0.0
C172 C 0.82249 0.86212 0.17789 0.0
C173 C 0.87618 0.91711 0.19675 0.0
C174 C 0.83761 0.92612 0.14719 0.0
C175 C 0.91524 0.90491 0.24446 0.0
N176 N 0.86018 0.85241 0.22501 0.0
C177 C 0.89157 0.86548 0.24662 0.0
C178 C 0.90741 0.93091 0.21952 0.0
Tb179 Tb 0.8191 0.78854 0.22695 0.0
N180 N 0.80153 0.82338 0.18201 0.0
C181 C 0.77404 0.80639 0.15845 0.0
C182 C 0.78627 0.86903 0.12694 0.0
C183 C 0.76571 0.82895 0.13086 0.0
H184 H 0.8979 0.84581 0.26613 0.0
H185 H 0.74357 0.81533 0.11255 0.0
H186 H 0.83216 0.94511 0.1265 0.0
H187 H 0.93955 0.9152 0.26201 0.0
H188 H 0.75797 0.77543 0.16077 0.0
H189 H 0.83517 0.71991 0.39506 0.0
H190 H 0.78031 0.88633 0.10526 0.0
H191 H 0.6698 0.67741 0.25317 0.0
H192 H 0.81506 0.75637 0.3475 0.0
H193 H 0.63094 0.60704 0.26001 0.0
H194 H 0.88548 0.97239 0.16726 0.0
H195 H 0.80577 0.64806 0.40293 0.0
H196 H 0.75618 0.58631 0.38394 0.0
H197 H 0.92596 0.96139 0.21776 0.0
H198 H 0.70037 0.55516 0.34659 0.0
N199 N 0.77494 0.70589 0.32681 0.0
C200 C 0.80178 0.72508 0.3499 0.0
C201 C 0.79691 0.66391 0.38157 0.0
C202 C 0.76797 0.64446 0.35893 0.0
C203 C 0.8134 0.70445 0.37729 0.0
C204 C 0.75726 0.66663 0.33176 0.0
H205 H 0.65285 0.56279 0.30053 0.0
N206 N 0.71443 0.67278 0.28788 0.0
C207 C 0.65772 0.61846 0.27448 0.0
C208 C 0.72582 0.64931 0.3113 0.0
C209 C 0.67987 0.65832 0.27063 0.0
C210 C 0.67025 0.59357 0.29726 0.0
C211 C 0.70423 0.60908 0.31667 0.0
O212 O 0.70286 0.73724 0.28885 0.0
O213 O 0.76739 0.78101 0.24054 0.0
O214 O 0.81807 0.83134 0.25348 0.0
O215 O 0.80038 0.78896 0.29866 0.0
O216 O 0.71288 0.74761 0.24115 0.0
O217 O 0.75434 0.76809 0.31703 0.0
O218 O 0.86941 0.78856 0.21928 0.0
O219 O 0.80405 0.74352 0.26685 0.0
O220 O 0.74744 0.69499 0.25074 0.0
O221 O 0.7737 0.73771 0.20776 0.0
O222 O 0.85862 0.77687 0.26731 0.0
O223 O 0.81785 0.76036 0.1896 0.0
C224 C 0.73558 0.77587 0.2248 0.0
C225 C 0.70118 0.74294 0.34167 0.0
C226 C 0.68098 0.75745 0.38515 0.0
C227 C 0.69649 0.76955 0.35683 0.0
C228 C 0.67061 0.71817 0.3983 0.0
C229 C 0.69068 0.7039 0.35503 0.0
C230 C 0.6755 0.69165 0.38328 0.0
C231 C 0.81576 0.82456 0.28405 0.0
C232 C 0.71857 0.75726 0.31275 0.0
C233 C 0.7163 0.5862 0.34222 0.0
C234 C 0.74809 0.60393 0.36345 0.0
C235 C 0.83557 0.74791 0.28278 0.0
C236 C 0.87195 0.78252 0.16648 0.0
C237 C 0.87433 0.75445 0.15128 0.0
C238 C 0.89116 0.7653 0.12367 0.0
C239 C 0.90513 0.80494 0.11127 0.0
C240 C 0.88596 0.82181 0.15381 0.0
C241 C 0.90243 0.83288 0.12625 0.0
C242 C 0.75408 0.70259 0.22105 0.0
C243 C 0.85345 0.76937 0.1948 0.0
H244 H 0.70534 0.79985 0.34665 0.0
H245 H 0.65812 0.70778 0.41987 0.0
H246 H 0.69425 0.68301 0.34374 0.0
H247 H 0.66734 0.66147 0.3935 0.0
H248 H 0.8627 0.72401 0.1609 0.0
H249 H 0.91878 0.81449 0.09034 0.0
H250 H 0.88415 0.84378 0.16513 0.0
H251 H 0.91335 0.86327 0.11655 0.0
Tb252 Tb 0.30368 0.71599 0.26737 0.0
C253 C 0.25242 0.83491 0.17391 0.0
C254 C 0.30712 0.89463 0.17153 0.0
C255 C 0.25779 0.88203 0.12664 0.0
C256 C 0.28691 0.85819 0.18757 0.0
C257 C 0.23704 0.84672 0.14349 0.0
C258 C 0.29275 0.90605 0.14071 0.0
C259 C 0.18052 0.79 0.15017 0.0
N260 N 0.23303 0.80162 0.1913 0.0
C261 C 0.19684 0.77995 0.18044 0.0
C262 C 0.20085 0.82333 0.13144 0.0
Tb263 Tb 0.26196 0.78686 0.2404 0.0
N264 N 0.29972 0.84606 0.21734 0.0
C265 C 0.33211 0.87022 0.23305 0.0
C266 C 0.3405 0.919 0.18734 0.0
C267 C 0.35307 0.9067 0.21822 0.0
H268 H 0.18078 0.7543 0.19481 0.0
H269 H 0.37878 0.92546 0.23075 0.0
H270 H 0.3081 0.93371 0.12786 0.0
H271 H 0.1522 0.77216 0.14139 0.0
H272 H 0.34239 0.86162 0.25699 0.0
H273 H 0.18654 0.578 0.27907 0.0
H274 H 0.35631 0.94768 0.17623 0.0
H275 H 0.38559 0.74846 0.31212 0.0
H276 H 0.22356 0.64072 0.25156 0.0
H277 H 0.41434 0.73161 0.36575 0.0
H278 H 0.24663 0.89153 0.10313 0.0
H279 H 0.20851 0.55757 0.33432 0.0
H280 H 0.25664 0.57316 0.38278 0.0
H281 H 0.18803 0.8313 0.10813 0.0
H282 H 0.31884 0.61495 0.40649 0.0
N283 N 0.26613 0.65721 0.29112 0.0
C284 C 0.23368 0.63277 0.27574 0.0
C285 C 0.22466 0.58568 0.32258 0.0
C286 C 0.25828 0.61022 0.33796 0.0
C287 C 0.21237 0.59696 0.29129 0.0
C288 C 0.27889 0.64581 0.32113 0.0
H289 H 0.37822 0.6739 0.4001 0.0
N290 N 0.33323 0.70151 0.31626 0.0
C291 C 0.38592 0.71378 0.35725 0.0
C292 C 0.31368 0.66898 0.33429 0.0
C293 C 0.36952 0.72319 0.32681 0.0
C294 C 0.36542 0.68126 0.3766 0.0
C295 C 0.329 0.65798 0.36499 0.0
O296 O 0.35068 0.71116 0.25695 0.0
O297 O 0.30626 0.76964 0.23826 0.0
O298 O 0.25594 0.75874 0.19929 0.0
O299 O 0.26123 0.70103 0.22547 0.0
O300 O 0.35527 0.76689 0.25951 0.0
O301 O 0.29532 0.67529 0.2373 0.0
O302 O 0.21413 0.78849 0.25181 0.0
O303 O 0.2596 0.73341 0.27001 0.0
O304 O 0.3102 0.74466 0.3085 0.0
O305 O 0.30377 0.80193 0.28255 0.0
O306 O 0.21058 0.73556 0.24784 0.0
O307 O 0.26872 0.82958 0.26803 0.0
C308 C 0.34086 0.78872 0.24024 0.0
C309 C 0.34126 0.65078 0.24147 0.0
C310 C 0.35758 0.61049 0.21468 0.0
C311 C 0.34878 0.64283 0.21407 0.0
C312 C 0.35887 0.58623 0.24347 0.0
C313 C 0.34248 0.6263 0.2699 0.0
C314 C 0.35135 0.59417 0.27083 0.0
C315 C 0.25282 0.72264 0.19975 0.0
C316 C 0.33059 0.68385 0.23893 0.0
C317 C 0.30781 0.62372 0.38268 0.0
C318 C 0.27247 0.59984 0.36915 0.0
C319 C 0.22497 0.71411 0.26771 0.0
C320 C 0.21893 0.84903 0.26257 0.0
C321 C 0.21092 0.85843 0.28901 0.0
C322 C 0.19515 0.88608 0.28564 0.0
C323 C 0.18863 0.90511 0.25516 0.0
C324 C 0.21245 0.86829 0.23245 0.0
C325 C 0.19751 0.89641 0.22886 0.0
C326 C 0.31273 0.78058 0.30816 0.0
C327 C 0.23317 0.81831 0.26746 0.0
H328 H 0.348 0.66216 0.19224 0.0
H329 H 0.3652 0.56088 0.24476 0.0
H330 H 0.33638 0.63188 0.29116 0.0
H331 H 0.35219 0.57519 0.29279 0.0
H332 H 0.21689 0.84385 0.31225 0.0
H333 H 0.17593 0.92608 0.25146 0.0
H334 H 0.2186 0.86141 0.21183 0.0
H335 H 0.19225 0.91109 0.20554 0.0
Tb336 Tb 0.30136 0.7237 0.751 0.0
C337 C 0.22394 0.80884 0.79704 0.0
C338 C 0.16131 0.76155 0.80076 0.0
C339 C 0.19035 0.81101 0.83676 0.0
C340 C 0.19413 0.77659 0.78688 0.0
C341 C 0.22227 0.82686 0.8218 0.0
C342 C 0.15987 0.77843 0.82621 0.0
C343 C 0.28284 0.87603 0.81387 0.0
N344 N 0.25441 0.82295 0.78216 0.0
C345 C 0.2832 0.85711 0.78944 0.0
C346 C 0.25249 0.86057 0.83042 0.0
Tb347 Tb 0.25287 0.78776 0.74399 0.0
N348 N 0.19684 0.76079 0.76258 0.0
C349 C 0.1665 0.73155 0.74938 0.0
C350 C 0.13074 0.7306 0.78819 0.0
C351 C 0.13317 0.71596 0.76206 0.0
H352 H 0.30706 0.86957 0.77718 0.0
H353 H 0.10951 0.69239 0.75185 0.0
H354 H 0.1351 0.76697 0.83748 0.0
H355 H 0.30606 0.90252 0.81995 0.0
H356 H 0.16793 0.71959 0.72938 0.0
H357 H 0.35695 0.68396 0.87115 0.0
H358 H 0.10495 0.71838 0.79803 0.0
H359 H 0.34137 0.75141 0.68608 0.0
H360 H 0.30787 0.6841 0.82652 0.0
H361 H 0.40413 0.77878 0.67186 0.0
H362 H 0.18867 0.82419 0.85605 0.0
H363 H 0.42299 0.71865 0.86383 0.0
H364 H 0.47027 0.75738 0.82674 0.0
H365 H 0.25237 0.87526 0.84938 0.0
H366 H 0.48328 0.78306 0.77205 0.0
N367 N 0.34537 0.71879 0.7936 0.0
C368 C 0.33641 0.69882 0.82257 0.0
C369 C 0.4015 0.71859 0.84397 0.0
C370 C 0.4105 0.737 0.81395 0.0
C371 C 0.36426 0.6989 0.84816 0.0
C372 C 0.38142 0.73617 0.78903 0.0
H373 H 0.4587 0.79053 0.71381 0.0
N374 N 0.35936 0.74839 0.73588 0.0
C375 C 0.40037 0.77198 0.69654 0.0
C376 C 0.38868 0.75171 0.75888 0.0
C377 C 0.36462 0.75641 0.70481 0.0
C378 C 0.43102 0.7785 0.72025 0.0
C379 C 0.42535 0.76755 0.75194 0.0
O380 O 0.28563 0.66269 0.7566 0.0
O381 O 0.25186 0.72996 0.75682 0.0
O382 O 0.2781 0.78183 0.7928 0.0
O383 O 0.32537 0.76202 0.78908 0.0
O384 O 0.26086 0.6832 0.78211 0.0
O385 O 0.29221 0.69585 0.71106 0.0
O386 O 0.26567 0.83681 0.70907 0.0
O387 O 0.29861 0.77899 0.73206 0.0
O388 O 0.28124 0.74283 0.70273 0.0
O389 O 0.22709 0.74341 0.711 0.0
O390 O 0.30922 0.83324 0.74003 0.0
O391 O 0.20938 0.79951 0.71387 0.0
C392 C 0.23899 0.70108 0.77728 0.0
C393 C 0.30993 0.64382 0.72023 0.0
C394 C 0.3643 0.62762 0.73494 0.0
C395 C 0.34109 0.64354 0.74162 0.0
C396 C 0.3573 0.61377 0.70564 0.0
C397 C 0.30278 0.62964 0.69103 0.0
C398 C 0.32658 0.6149 0.68373 0.0
C399 C 0.30919 0.77648 0.80431 0.0
C400 C 0.28696 0.66216 0.72703 0.0
C401 C 0.45482 0.77036 0.77675 0.0
C402 C 0.4474 0.75544 0.80783 0.0
C403 C 0.32427 0.81253 0.73263 0.0
C404 C 0.22397 0.81856 0.66205 0.0
C405 C 0.18752 0.79727 0.64893 0.0
C406 C 0.17953 0.78514 0.61875 0.0
C407 C 0.20895 0.79482 0.6016 0.0
C408 C 0.25279 0.82921 0.64404 0.0
C409 C 0.2453 0.8169 0.61418 0.0
C410 C 0.24624 0.73752 0.6927 0.0
C411 C 0.23149 0.826 0.69544 0.0
H412 H 0.34725 0.65552 0.76381 0.0
H413 H 0.37489 0.60126 0.70011 0.0
H414 H 0.27919 0.63052 0.6738 0.0
H415 H 0.32102 0.60405 0.66117 0.0
H416 H 0.16517 0.7909 0.66223 0.0
H417 H 0.2038 0.78641 0.57816 0.0
H418 H 0.28108 0.84664 0.65314 0.0
H419 H 0.2677 0.8248 0.6006 0.0
Tb420 Tb 0.24114 0.22293 0.78039 0.0
C421 C 0.33566 0.36003 0.69294 0.0
C422 C 0.2951 0.36421 0.64406 0.0
C423 C 0.34825 0.42202 0.65946 0.0
C424 C 0.30424 0.34271 0.6724 0.0
C425 C 0.35864 0.39968 0.68644 0.0
C426 C 0.31662 0.40421 0.63813 0.0
C427 C 0.40319 0.39046 0.73066 0.0
N428 N 0.34556 0.33694 0.71773 0.0
C429 C 0.37984 0.35108 0.7355 0.0
C430 C 0.39228 0.41507 0.70629 0.0
Tb431 Tb 0.30559 0.27282 0.72472 0.0
N432 N 0.28445 0.30397 0.67891 0.0
C433 C 0.256 0.28459 0.65692 0.0
C434 C 0.26579 0.34451 0.62185 0.0
C435 C 0.24612 0.30453 0.62832 0.0
H436 H 0.38892 0.33214 0.75394 0.0
H437 H 0.22362 0.2889 0.6111 0.0
H438 H 0.30969 0.42132 0.6167 0.0
H439 H 0.42975 0.40167 0.74548 0.0
H440 H 0.24051 0.25366 0.66099 0.0
H441 H 0.31904 0.20196 0.89499 0.0
H442 H 0.25904 0.35962 0.59921 0.0
H443 H 0.16253 0.16302 0.74296 0.0
H444 H 0.30371 0.23949 0.84564 0.0
H445 H 0.12204 0.0933 0.74902 0.0
H446 H 0.36532 0.45262 0.65417 0.0
H447 H 0.28294 0.13103 0.9046 0.0
H448 H 0.23185 0.07069 0.88506 0.0
H449 H 0.41068 0.4454 0.70219 0.0
H450 H 0.17842 0.04096 0.84515 0.0
N451 N 0.26012 0.19023 0.82606 0.0
C452 C 0.2879 0.20851 0.84893 0.0
C453 C 0.27661 0.14724 0.88239 0.0
C454 C 0.24773 0.12875 0.85932 0.0
C455 C 0.29679 0.1873 0.87717 0.0
C456 C 0.2397 0.15146 0.83132 0.0
H457 H 0.13706 0.04923 0.79444 0.0
N458 N 0.20111 0.15865 0.78408 0.0
C459 C 0.14649 0.10465 0.76621 0.0
C460 C 0.20924 0.135 0.80944 0.0
C461 C 0.16951 0.14427 0.76295 0.0
C462 C 0.15513 0.07984 0.79181 0.0
C463 C 0.18652 0.09502 0.8141 0.0
O464 O 0.19075 0.22235 0.78845 0.0
O465 O 0.25485 0.26696 0.73946 0.0
O466 O 0.31119 0.31654 0.75389 0.0
O467 O 0.28665 0.27484 0.79794 0.0
O468 O 0.20054 0.23245 0.74036 0.0
O469 O 0.24266 0.25265 0.81683 0.0
O470 O 0.35523 0.2708 0.71769 0.0
O471 O 0.29232 0.23035 0.76621 0.0
O472 O 0.2423 0.17942 0.75464 0.0
O473 O 0.25847 0.22054 0.70859 0.0
O474 O 0.34663 0.26318 0.76462 0.0
O475 O 0.30368 0.24271 0.68828 0.0
C476 C 0.22273 0.2615 0.72422 0.0
C477 C 0.18928 0.23014 0.84105 0.0
C478 C 0.17077 0.24812 0.88388 0.0
C479 C 0.18684 0.25848 0.85588 0.0
C480 C 0.15763 0.20873 0.89701 0.0
C481 C 0.17608 0.1911 0.85446 0.0
C482 C 0.16039 0.18053 0.8824 0.0
C483 C 0.30537 0.30978 0.78378 0.0
C484 C 0.20692 0.24269 0.81225 0.0
C485 C 0.19541 0.07178 0.84117 0.0
C486 C 0.22586 0.08868 0.86385 0.0
C487 C 0.32425 0.23547 0.78157 0.0
C488 C 0.3576 0.26658 0.66466 0.0
C489 C 0.36079 0.23984 0.64858 0.0
C490 C 0.3775 0.25241 0.62085 0.0
C491 C 0.39041 0.29225 0.60913 0.0
C492 C 0.37088 0.30622 0.65283 0.0
C493 C 0.38704 0.31891 0.62507 0.0
C494 C 0.244 0.18524 0.72397 0.0
C495 C 0.33929 0.25197 0.69312 0.0
H496 H 0.19781 0.28874 0.84567 0.0
H497 H 0.14457 0.19953 0.91825 0.0
H498 H 0.17788 0.16891 0.84342 0.0
H499 H 0.1501 0.15034 0.89267 0.0
H500 H 0.35006 0.20915 0.65763 0.0
H501 H 0.40386 0.30292 0.58807 0.0
H502 H 0.36889 0.32732 0.66496 0.0
H503 H 0.39729 0.34955 0.61604 0.0
Tb504 Tb 0.79741 0.22238 0.76753 0.0
C505 C 0.74597 0.34235 0.67382 0.0
C506 C 0.80139 0.40094 0.66904 0.0
C507 C 0.74981 0.3885 0.62602 0.0
C508 C 0.78139 0.36518 0.68606 0.0
C509 C 0.72944 0.35386 0.64383 0.0
C510 C 0.78573 0.41209 0.63867 0.0
C511 C 0.67301 0.29785 0.65253 0.0
N512 N 0.72712 0.30957 0.69203 0.0
C513 C 0.69054 0.28799 0.6823 0.0
C514 C 0.69265 0.33075 0.63306 0.0
Tb515 Tb 0.7581 0.2952 0.74025 0.0
N516 N 0.79545 0.35327 0.71541 0.0
C517 C 0.82896 0.37714 0.72984 0.0
C518 C 0.83597 0.42492 0.68346 0.0
C519 C 0.84981 0.41296 0.714 0.0
H520 H 0.67495 0.26253 0.69708 0.0
H521 H 0.87644 0.43145 0.72549 0.0
H522 H 0.80086 0.43918 0.62505 0.0
H523 H 0.64433 0.28012 0.64469 0.0
H524 H 0.84019 0.36876 0.75351 0.0
H525 H 0.67836 0.08535 0.77363 0.0
H526 H 0.85177 0.45308 0.67155 0.0
H527 H 0.87692 0.25307 0.81539 0.0
H528 H 0.71645 0.14916 0.74867 0.0
H529 H 0.90299 0.23406 0.86963 0.0
H530 H 0.73773 0.39775 0.60282 0.0
H531 H 0.69832 0.06192 0.82854 0.0
H532 H 0.74452 0.07458 0.87824 0.0
H533 H 0.67893 0.33851 0.61012 0.0
H534 H 0.80537 0.11557 0.90481 0.0
N535 N 0.75769 0.16361 0.78943 0.0
C536 C 0.72568 0.14011 0.77281 0.0
C537 C 0.71488 0.09064 0.818 0.0
C538 C 0.7478 0.11438 0.83481 0.0
C539 C 0.70373 0.10361 0.7869 0.0
C540 C 0.76908 0.15084 0.81949 0.0
H541 H 0.86493 0.17504 0.90166 0.0
N542 N 0.82399 0.20654 0.81737 0.0
C543 C 0.87484 0.21679 0.86 0.0
C544 C 0.80334 0.17339 0.83414 0.0
C545 C 0.85999 0.22748 0.8293 0.0
C546 C 0.85323 0.18353 0.87804 0.0
C547 C 0.81726 0.16088 0.86492 0.0
O548 O 0.84436 0.21408 0.76113 0.0
O549 O 0.80133 0.27615 0.73799 0.0
O550 O 0.75026 0.26647 0.69895 0.0
O551 O 0.75612 0.20873 0.72471 0.0
O552 O 0.84981 0.27211 0.75942 0.0
O553 O 0.78988 0.18312 0.73657 0.0
O554 O 0.71256 0.29859 0.75448 0.0
O555 O 0.75437 0.24126 0.76965 0.0
O556 O 0.80364 0.25164 0.8082 0.0
O557 O 0.80161 0.31022 0.78128 0.0
O558 O 0.70588 0.24519 0.7484 0.0
O559 O 0.7684 0.3395 0.76764 0.0
C560 C 0.83606 0.29425 0.73974 0.0
C561 C 0.83165 0.15259 0.74586 0.0
C562 C 0.84424 0.10769 0.72132 0.0
C563 C 0.84046 0.14315 0.71989 0.0
C564 C 0.83945 0.08191 0.7496 0.0
C565 C 0.82705 0.12673 0.77388 0.0
C566 C 0.83104 0.09153 0.7757 0.0
C567 C 0.74713 0.23036 0.69923 0.0
C568 C 0.82468 0.18821 0.74175 0.0
C569 C 0.79534 0.12561 0.88106 0.0
C570 C 0.76072 0.10227 0.86594 0.0
C571 C 0.71968 0.22283 0.76769 0.0
C572 C 0.71965 0.35925 0.76729 0.0
C573 C 0.71955 0.37176 0.79552 0.0
C574 C 0.70218 0.39724 0.79564 0.0
C575 C 0.68668 0.41159 0.76624 0.0
C576 C 0.70452 0.37412 0.73836 0.0
C577 C 0.68842 0.40055 0.7379 0.0
C578 C 0.80833 0.28832 0.80741 0.0
C579 C 0.73343 0.32856 0.76954 0.0
H580 H 0.84441 0.1637 0.6985 0.0
H581 H 0.8418 0.05418 0.75146 0.0
H582 H 0.82006 0.13349 0.79409 0.0
H583 H 0.82727 0.07147 0.79731 0.0
H584 H 0.73247 0.3607 0.81747 0.0
H585 H 0.67218 0.43045 0.76495 0.0
H586 H 0.70456 0.3648 0.71635 0.0
H587 H 0.67627 0.41169 0.71558 0.0
Tb588 Tb 0.75669 0.71945 0.7299 0.0
C589 C 0.893 0.84139 0.79784 0.0
C590 C 0.90875 0.80657 0.84756 0.0
C591 C 0.95699 0.86268 0.82373 0.0
C592 C 0.88251 0.81097 0.82152 0.0
C593 C 0.93019 0.86825 0.79892 0.0
C594 C 0.94626 0.83188 0.84808 0.0
C595 C 0.91074 0.90616 0.753 0.0
N596 N 0.86608 0.84612 0.77482 0.0
C597 C 0.87421 0.87875 0.75306 0.0
C598 C 0.93898 0.9006 0.77576 0.0
Tb599 Tb 0.80711 0.79941 0.77641 0.0
N600 N 0.84597 0.78773 0.82033 0.0
C601 C 0.83341 0.76139 0.84587 0.0
C602 C 0.89623 0.77813 0.87292 0.0
C603 C 0.85832 0.75577 0.87224 0.0
H604 H 0.85281 0.88332 0.73514 0.0
H605 H 0.84822 0.73423 0.89205 0.0
H606 H 0.96693 0.82867 0.86768 0.0
H607 H 0.91712 0.93141 0.73528 0.0
H608 H 0.80421 0.74386 0.84584 0.0
H609 H 0.71089 0.78139 0.61443 0.0
H610 H 0.91541 0.77423 0.89359 0.0
H611 H 0.71204 0.63842 0.77591 0.0
H612 H 0.7565 0.774 0.65998 0.0
H613 H 0.64832 0.59037 0.77781 0.0
H614 H 0.98579 0.88275 0.82487 0.0
H615 H 0.64437 0.73889 0.61392 0.0
H616 H 0.59463 0.68333 0.64086 0.0
H617 H 0.96722 0.92191 0.77572 0.0
H618 H 0.57761 0.63109 0.68525 0.0
N619 N 0.71639 0.72855 0.6861 0.0
C620 C 0.72765 0.75525 0.6604 0.0
C621 C 0.66429 0.73573 0.63422 0.0
C622 C 0.65309 0.70721 0.65985 0.0
C623 C 0.70181 0.75959 0.63436 0.0
C624 C 0.68023 0.70406 0.68553 0.0
H625 H 0.59753 0.59592 0.73625 0.0
N626 N 0.69822 0.67195 0.73357 0.0
C627 C 0.65425 0.61394 0.75861 0.0
C628 C 0.67079 0.67457 0.7101 0.0
C629 C 0.69057 0.64141 0.75732 0.0
C630 C 0.62564 0.6172 0.73516 0.0
C631 C 0.63377 0.64754 0.71029 0.0
O632 O 0.76724 0.66971 0.72968 0.0
O633 O 0.8028 0.74353 0.76701 0.0
O634 O 0.84459 0.80016 0.7459 0.0
O635 O 0.79997 0.76741 0.70628 0.0
O636 O 0.77289 0.68541 0.77296 0.0
O637 O 0.7741 0.71358 0.68927 0.0
O638 O 0.8009 0.85115 0.77907 0.0
O639 O 0.76238 0.77599 0.73877 0.0
O640 O 0.71807 0.72215 0.75706 0.0
O641 O 0.76172 0.75142 0.79847 0.0
O642 O 0.79004 0.83441 0.73433 0.0
O643 O 0.7858 0.80273 0.8156 0.0
C644 C 0.80101 0.71274 0.78563 0.0
C645 C 0.76087 0.64949 0.67985 0.0
C646 C 0.77224 0.6139 0.64466 0.0
C647 C 0.78499 0.64498 0.66293 0.0
C648 C 0.73494 0.58777 0.64309 0.0
C649 C 0.72357 0.62344 0.67759 0.0
C650 C 0.71073 0.5928 0.65921 0.0
C651 C 0.83437 0.78991 0.71687 0.0
C652 C 0.77578 0.6801 0.70106 0.0
C653 C 0.60627 0.65138 0.68546 0.0
C654 C 0.61594 0.68115 0.66022 0.0
C655 C 0.76307 0.80686 0.7208 0.0
C656 C 0.80459 0.86506 0.83083 0.0
C657 C 0.78074 0.87313 0.84547 0.0
C658 C 0.79508 0.89736 0.86988 0.0
C659 C 0.83374 0.91358 0.87916 0.0
C660 C 0.843 0.88161 0.84046 0.0
C661 C 0.85743 0.9058 0.86447 0.0
C662 C 0.72705 0.73146 0.78626 0.0
C663 C 0.78875 0.83839 0.80631 0.0
H664 H 0.81389 0.66495 0.6647 0.0
H665 H 0.7245 0.56363 0.62919 0.0
H666 H 0.70458 0.62643 0.69038 0.0
H667 H 0.68198 0.57261 0.65772 0.0
H668 H 0.751 0.85992 0.83829 0.0
H669 H 0.8457 0.93262 0.8976 0.0
H670 H 0.86178 0.87579 0.82954 0.0
H671 H 0.88713 0.91852 0.87178 0.0
C672 C 0.96062 0.07928 0.55186 0.0
C673 C 0.04239 0.12222 0.50176 0.0
C674 C 0.96319 0.97711 0.44621 0.0
Mg675 Mg 0.04056 0.07947 0.55428 0.0
O676 O 1.01558 0.04939 0.51835 0.0
Mg677 Mg 0.9646 0.04076 0.48904 0.0
Mg678 Mg 0.03252 0.01358 0.50299 0.0
O679 O 0.04908 0.98026 0.48542 0.0
Mg680 Mg 1.0161 0.93134 0.4746 0.0
Mg681 Mg 0.09591 0.98475 0.51456 0.0
C682 C 0.08854 0.0287 0.57321 0.0
C683 C 0.1055 0.06777 0.47099 0.0
O684 O 0.94846 0.06897 0.52378 0.0
O685 O 0.9923 0.08138 0.56737 0.0
O686 O 1.02595 0.08488 0.50133 0.0
O687 O 0.06722 0.13335 0.52546 0.0
O688 O 0.07458 0.04984 0.58113 0.0
O689 O 0.07988 0.01772 0.54539 0.0
C690 C 0.9651 0.96308 0.5402 0.0
O691 O 0.9941 0.96377 0.53204 0.0
O692 O 0.95189 0.98881 0.52797 0.0
O693 O 0.10717 0.9534 0.47861 0.0
O694 O 0.05215 0.92202 0.45007 0.0
O695 O 0.06588 0.92465 0.54276 0.0
C696 C 0.08749 0.93295 0.45595 0.0
O697 O 1.00936 0.89266 0.51744 0.0
O698 O 0.97111 0.9472 0.44839 0.0
C699 C 0.03473 0.89514 0.54116 0.0
O700 O 0.98351 0.00621 0.46182 0.0
O701 O 0.07302 0.06288 0.47492 0.0
O702 O 0.12028 0.04336 0.48421 0.0
C703 C 0.43125 0.05899 0.02476 0.0
C704 C 0.45435 0.07302 0.93191 0.0
C705 C 0.47107 0.92624 0.97648 0.0
Mg706 Mg 0.50514 0.08446 0.99731 0.0
O707 O 0.4949 0.03137 0.0067 0.0
Mg708 Mg 0.44475 0.99409 0.98987 0.0
Mg709 Mg 0.52937 0.00593 1.00368 0.0
O710 O 0.56373 0.98039 1.00068 0.0
Mg711 Mg 0.55329 0.92719 0.00998 0.0
Mg712 Mg 0.61391 0.0176 0.01748 0.0
C713 C 0.5876 0.08571 0.03027 0.0
C714 C 0.58492 0.06137 0.95127 0.0
O715 O 0.41911 0.02673 0.01272 0.0
O716 O 0.46438 0.0846 0.02324 0.0
O717 O 0.4394 0.03667 0.94254 0.0
O718 O 0.483 0.09648 0.94769 0.0
O719 O 0.56436 0.10201 0.01811 0.0
O720 O 0.57897 0.04873 0.03207 0.0
C721 C 0.4739 0.95064 0.05612 0.0
O722 O 0.50744 0.96513 0.04991 0.0
O723 O 0.44781 0.95719 0.03681 0.0
O724 O 0.63936 0.985 0.99459 0.0
O725 O 0.59406 0.92717 0.98401 0.0
O726 O 0.61935 0.97473 0.06471 0.0
C727 C 0.62719 0.95279 0.9825 0.0
O728 O 0.57563 0.91495 0.05962 0.0
O729 O 0.4941 0.90967 0.98867 0.0
C730 C 0.60447 0.93834 0.0753 0.0
O731 O 0.47985 0.96315 0.97529 0.0
O732 O 0.55134 0.04681 0.95743 0.0
O733 O 0.61096 0.05473 0.97058 0.0
C734 C 0.96526 0.59638 0.02288 0.0
C735 C 0.9737 0.59315 0.93062 0.0
C736 C 0.95628 0.43452 0.97868 0.0
Mg737 Mg 0.02983 0.59689 0.99377 0.0
O738 O 1.00745 0.54372 0.00658 0.0
Mg739 Mg 0.95359 0.51671 0.9905 0.0
Mg740 Mg 0.02976 0.50627 1.00312 0.0
O741 O 0.05203 0.46877 0.99966 0.0
Mg742 Mg 0.02965 0.41553 0.01241 0.0
Mg743 Mg 0.10585 0.49582 0.01582 0.0
C744 C 0.10316 0.57802 0.02746 0.0
C745 C 0.08804 0.54885 0.94988 0.0
O746 O 0.94383 0.56363 0.01228 0.0
O747 O 0.99994 0.61252 0.02039 0.0
O748 O 0.95417 0.55814 0.94161 0.0
O749 O 1.00557 0.61248 0.9455 0.0
O750 O 0.08715 0.60161 0.01387 0.0
O751 O 0.08578 0.54066 0.03055 0.0
C752 C 0.97159 0.46371 0.0565 0.0
O753 O 1.00335 0.46914 0.04959 0.0
O754 O 0.95057 0.47888 0.03787 0.0
O755 O 0.11575 0.44901 0.9941 0.0
O756 O 0.05974 0.4 0.98584 0.0
O757 O 0.10525 0.45456 0.06466 0.0
C758 C 0.09446 0.41625 0.98346 0.0
O759 O 0.05405 0.40004 0.06076 0.0
O760 O 0.97224 0.41085 0.99221 0.0
C761 C 0.08585 0.41952 0.07566 0.0
O762 O 0.97374 0.47187 0.97574 0.0
O763 O 0.05622 0.54342 0.95666 0.0
O764 O 0.10897 0.53363 0.96857 0.0
C765 C 0.44764 0.57656 0.02798 0.0
C766 C 0.49253 0.58836 0.9378 0.0
C767 C 0.46178 0.43945 0.96251 0.0
Mg768 Mg 0.52297 0.59193 0.00802 0.0
O769 O 0.50262 0.53713 0.01297 0.0
Mg770 Mg 0.45258 0.50988 0.98891 0.0
Mg771 Mg 0.52861 0.50765 1.00183 0.0
O772 O 0.55441 0.47793 0.99095 0.0
Mg773 Mg 0.5333 0.42323 0.99706 0.0
Mg774 Mg 0.60461 0.50486 0.01496 0.0
C775 C 0.595 0.57555 0.04176 0.0
C776 C 0.58773 0.56256 0.95441 0.0
O777 O 0.43272 0.54606 0.01338 0.0
O778 O 0.48215 0.59874 0.02893 0.0
O779 O 0.46716 0.55546 0.94561 0.0
O780 O 0.51774 0.60834 0.95803 0.0
O781 O 0.57781 0.59875 0.03394 0.0
O782 O 0.58028 0.54065 0.0342 0.0
C783 C 0.46943 0.45188 0.04893 0.0
O784 O 0.50206 0.46208 0.042 0.0
O785 O 0.44602 0.4656 0.03246 0.0
O786 O 0.62397 0.46731 0.99095 0.0
O787 O 0.57304 0.41555 0.97601 0.0
O788 O 0.5905 0.46008 0.05877 0.0
C789 C 0.60772 0.43666 0.97648 0.0
O790 O 0.53953 0.40735 0.04705 0.0
O791 O 0.47844 0.41582 0.97117 0.0
C792 C 0.56513 0.4274 0.06698 0.0
O793 O 0.477 0.47465 0.96937 0.0
O794 O 0.55528 0.55306 0.96151 0.0
O795 O 0.6109 0.54853 0.97097 0.0
C796 C 0.93515 0.56298 0.52356 0.0
C797 C 0.95713 0.57546 0.43015 0.0
C798 C 0.96715 0.42465 0.47665 0.0
Mg799 Mg 1.00784 0.58479 0.49601 0.0
O800 O 0.99555 0.53143 0.50447 0.0
Mg801 Mg 0.94441 0.49613 0.4878 0.0
Mg802 Mg 1.02818 0.50348 0.50221 0.0
O803 O 0.0609 0.47574 0.49995 0.0
Mg804 Mg 0.04935 0.42268 0.50539 0.0
Mg805 Mg 0.11181 0.51065 0.51726 0.0
C806 C 0.0892 0.58205 0.5276 0.0
C807 C 0.08603 0.55591 0.45038 0.0
O808 O 0.92103 0.53163 0.50999 0.0
O809 O 0.96922 0.58649 0.52338 0.0
O810 O 0.94121 0.53899 0.44014 0.0
O811 O 0.98583 0.59803 0.44656 0.0
O812 O 0.06684 0.59942 0.51557 0.0
O813 O 0.07895 0.54475 0.5306 0.0
C814 C 0.97099 0.45131 0.55461 0.0
O815 O 1.00448 0.46387 0.54853 0.0
O816 O 0.94578 0.45929 0.53509 0.0
O817 O 0.13632 0.47627 0.49494 0.0
O818 O 0.08834 0.42383 0.47705 0.0
O819 O 0.11382 0.46696 0.56482 0.0
C820 C 0.12276 0.44675 0.47917 0.0
O821 O 0.07246 0.40783 0.55378 0.0
O822 O 0.98998 0.40756 0.48733 0.0
C823 C 0.09892 0.42975 0.57238 0.0
O824 O 0.97715 0.46191 0.47405 0.0
O825 O 0.0523 0.54319 0.45595 0.0
O826 O 0.11103 0.54796 0.47025 0.0
C827 C 0.46207 0.09475 0.51863 0.0
C828 C 0.47249 0.09028 0.42795 0.0
C829 C 0.45727 0.93253 0.47904 0.0
Mg830 Mg 0.52816 0.09648 0.49123 0.0
O831 O 0.50656 0.04346 0.50445 0.0
Mg832 Mg 0.45295 0.01493 0.48871 0.0
Mg833 Mg 0.52977 0.0065 0.50239 0.0
O834 O 0.55297 0.96953 0.50029 0.0
Mg835 Mg 0.53156 0.91651 0.51366 0.0
Mg836 Mg 0.60673 0.99819 0.51536 0.0
C837 C 0.60238 0.08053 0.52605 0.0
C838 C 0.58554 0.04626 0.4476 0.0
O839 O 0.44167 0.06157 0.5085 0.0
O840 O 0.49685 0.11177 0.51661 0.0
O841 O 0.45324 0.05519 0.43913 0.0
O842 O 0.5042 0.11015 0.4427 0.0
O843 O 0.58573 0.10335 0.51201 0.0
O844 O 0.5858 0.04307 0.52903 0.0
C845 C 0.47316 0.96659 0.55658 0.0
O846 O 0.50482 0.97194 0.5496 0.0
O847 O 0.451 0.9797 0.53729 0.0
O848 O 0.61762 0.95132 0.49527 0.0
O849 O 0.56235 0.90106 0.48786 0.0
O850 O 0.60726 0.9583 0.56505 0.0
C851 C 0.59702 0.918 0.48541 0.0
O852 O 0.55643 0.90316 0.56204 0.0
O853 O 0.47382 0.90964 0.49321 0.0
C854 C 0.58826 0.92326 0.5765 0.0
O855 O 0.47405 0.96996 0.47572 0.0
O856 O 0.55418 0.04095 0.4551 0.0
O857 O 0.60798 0.03323 0.46656 0.0
C858 C 0.21528 0.22974 0.343 0.0
C859 C 0.20324 0.21483 0.31371 0.0
C860 C 0.19584 0.21124 0.36861 0.0
C861 C 0.16387 0.1767 0.3649 0.0
C862 C 0.14915 0.164 0.33456 0.0
C863 C 0.16881 0.18383 0.30903 0.0
C864 C 0.21179 0.22651 0.40035 0.0
C865 C 0.11475 0.12744 0.32964 0.0
C866 C 0.15309 0.09838 0.43468 0.0
C867 C 0.12373 0.09921 0.44688 0.0
C868 C 0.16635 0.12363 0.40797 0.0
C869 C 0.15012 0.15066 0.39344 0.0
C870 C 0.12172 0.153 0.40648 0.0
C871 C 0.10874 0.1271 0.43309 0.0
C872 C 0.19703 0.1206 0.39477 0.0
C873 C 0.10436 0.182 0.39186 0.0
H874 H 0.24112 0.25468 0.34671 0.0
H875 H 0.15828 0.1736 0.28605 0.0
H876 H 0.18954 0.22427 0.41305 0.0
H877 H 0.22665 0.20874 0.41526 0.0
H878 H 0.23178 0.25736 0.39784 0.0
H879 H 0.10328 0.1256 0.30415 0.0
H880 H 0.12177 0.10167 0.33915 0.0
H881 H 0.09297 0.1259 0.34259 0.0
H882 H 0.1647 0.07685 0.44512 0.0
H883 H 0.08609 0.12798 0.44251 0.0
H884 H 0.22128 0.14888 0.39446 0.0
H885 H 0.18737 0.1138 0.36995 0.0
H886 H 0.20635 0.09773 0.40878 0.0
H887 H 0.12614 0.21182 0.38892 0.0
H888 H 0.08453 0.182 0.40634 0.0
H889 H 0.08931 0.17497 0.36792 0.0
C890 C 0.87516 0.17219 0.44723 0.0
C891 C 0.87486 0.19718 0.4189 0.0
C892 C 0.90868 0.17231 0.46485 0.0
C893 C 0.94228 0.19734 0.4533 0.0
C894 C 0.9424 0.22714 0.42815 0.0
C895 C 0.90844 0.22703 0.41137 0.0
C896 C 0.90767 0.14164 0.49296 0.0
C897 C 0.97788 0.25564 0.41618 0.0
C898 C 1.02535 0.17872 0.49995 0.0
C899 C 1.02299 0.14757 0.48555 0.0
C900 C 1.00093 0.19764 0.48841 0.0
C901 C 0.97406 0.18528 0.46172 0.0
C902 C 0.97407 0.15637 0.44539 0.0
C903 C 0.99839 0.1376 0.45774 0.0
C904 C 1.00203 0.22823 0.50656 0.0
C905 C 0.94641 0.143 0.41626 0.0
H906 H 0.84952 0.14947 0.45387 0.0
H907 H 0.90838 0.24778 0.39041 0.0
H908 H 0.91053 0.11686 0.48546 0.0
H909 H 0.93096 0.15342 0.512 0.0
H910 H 0.88114 0.13035 0.50281 0.0
H911 H 0.97462 0.28235 0.40282 0.0
H912 H 1.0011 0.26399 0.43595 0.0
H913 H 0.98544 0.24177 0.39997 0.0
H914 H 0.04447 0.18662 0.52154 0.0
H915 H 0.99697 0.11384 0.44647 0.0
H916 H 0.98431 0.21377 0.52556 0.0
H917 H 0.99157 0.24952 0.4912 0.0
H918 H 0.03069 0.24421 0.51805 0.0
H919 H 0.91819 0.12682 0.42302 0.0
H920 H 0.9529 0.12359 0.4045 0.0
H921 H 0.94584 0.1684 0.39889 0.0
C922 C 0.86153 0.85375 0.32915 0.0
C923 C 0.83479 0.85674 0.30358 0.0
C924 C 0.87884 0.88264 0.34951 0.0
C925 C 0.86811 0.91473 0.34487 0.0
C926 C 0.84112 0.91798 0.3188 0.0
C927 C 0.8251 0.88908 0.2981 0.0
C928 C 0.90833 0.8784 0.3763 0.0
C929 C 0.82788 0.95078 0.31355 0.0
C930 C 0.89704 0.95172 0.42409 0.0
C931 C 0.93314 0.9787 0.42075 0.0
C932 C 0.87259 0.9346 0.39785 0.0
C933 C 0.88525 0.94386 0.36806 0.0
C934 C 0.91953 0.97537 0.3638 0.0
C935 C 0.9429 0.99289 0.39027 0.0
C936 C 0.83539 0.90266 0.40307 0.0
C937 C 0.93422 0.98645 0.33253 0.0
H938 H 0.869 0.82869 0.33313 0.0
H939 H 0.80399 0.89094 0.2784 0.0
H940 H 0.93401 0.90534 0.37588 0.0
H941 H 0.89854 0.87396 0.39936 0.0
H942 H 0.9154 0.85342 0.37504 0.0
H943 H 0.81278 0.95357 0.28926 0.0
H944 H 0.80873 0.94495 0.33078 0.0
H945 H 0.85134 0.97897 0.31761 0.0
H946 H 0.88951 0.94051 0.44768 0.0
H947 H 0.97101 0.01347 0.38772 0.0
H948 H 0.83753 0.87395 0.40612 0.0
H949 H 0.81404 0.90335 0.38233 0.0
H950 H 0.82612 0.90515 0.42463 0.0
H951 H 0.94541 0.96512 0.32982 0.0
H952 H 0.9569 0.01592 0.33118 0.0
H953 H 0.91188 0.98576 0.31238 0.0
C954 C 0.16951 0.86309 0.3373 0.0
C955 C 0.18418 0.89369 0.31365 0.0
C956 C 0.15745 0.86925 0.36308 0.0
C957 C 0.15919 0.90671 0.36494 0.0
C958 C 0.17476 0.93797 0.34167 0.0
C959 C 0.18736 0.93116 0.31647 0.0
C960 C 0.14138 0.83522 0.38759 0.0
C961 C 0.1767 0.97828 0.34265 0.0
C962 C 0.08585 0.91118 0.40493 0.0
C963 C 0.10601 0.92418 0.43395 0.0
C964 C 0.10291 0.90541 0.38244 0.0
C965 C 0.14107 0.9122 0.38919 0.0
C966 C 0.16151 0.92435 0.4187 0.0
C967 C 0.14379 0.93053 0.44069 0.0
C968 C 0.08016 0.89277 0.35113 0.0
C969 C 0.20208 0.93108 0.4269 0.0
H970 H 0.16625 0.83385 0.33525 0.0
H971 H 0.19933 0.95519 0.29875 0.0
H972 H 0.1535 0.84339 0.41184 0.0
H973 H 0.11099 0.82692 0.38524 0.0
H974 H 0.14638 0.80936 0.38501 0.0
H975 H 0.19182 0.99997 0.32401 0.0
H976 H 0.14817 0.97759 0.3393 0.0
H977 H 0.19061 0.98817 0.36611 0.0
H978 H 0.0567 0.90638 0.3993 0.0
H979 H 0.15954 0.94045 0.46305 0.0
H980 H 0.08056 0.86482 0.34764 0.0
H981 H 0.0924 0.91472 0.33138 0.0
H982 H 0.05081 0.88897 0.34954 0.0
H983 H 0.20603 0.90453 0.4246 0.0
H984 H 0.21363 0.93883 0.45135 0.0
H985 H 0.21824 0.95493 0.41004 0.0
C986 C 0.13007 0.78465 0.5735 0.0
C987 C 0.14018 0.76857 0.60395 0.0
C988 C 0.09499 0.78625 0.565 0.0
C989 C 0.07023 0.77177 0.58782 0.0
C990 C 0.07688 0.74689 0.61483 0.0
C991 C 0.11221 0.74564 0.62279 0.0
C992 C 0.08756 0.80986 0.53413 0.0
C993 C 0.04924 0.72658 0.63778 0.0
C994 C 0.05882 0.86221 0.59014 0.0
C995 C 0.03154 0.85981 0.56372 0.0
C996 C 0.06751 0.82987 0.60315 0.0
C997 C 0.04839 0.79478 0.58901 0.0
C998 C 1.01538 0.78998 0.56767 0.0
C999 C 1.00728 0.82291 0.55496 0.0
C1000 C 0.10115 0.8356 0.62821 0.0
C1001 C 0.99142 0.75175 0.55494 0.0
H1002 H 0.15091 0.80099 0.55805 0.0
H1003 H 0.1192 0.73092 0.64564 0.0
H1004 H 0.05879 0.7952 0.52244 0.0
H1005 H 0.09093 0.83893 0.53878 0.0
H1006 H 0.10695 0.81425 0.51747 0.0
H1007 H 0.04838 0.69676 0.64635 0.0
H1008 H 0.05809 0.74261 0.65877 0.0
H1009 H 1.02093 0.72464 0.62693 0.0
H1010 H 0.0763 0.89032 0.59819 0.0
H1011 H 0.98468 0.82031 0.53561 0.0
H1012 H 0.12487 0.8379 0.61738 0.0
H1013 H 0.09554 0.81051 0.64706 0.0
H1014 H 0.10958 0.86252 0.63937 0.0
H1015 H 0.99593 0.75352 0.53026 0.0
H1016 H 0.96166 0.74583 0.55418 0.0
H1017 H 0.99744 0.72705 0.56946 0.0
C1018 C 0.19917 0.15429 0.67904 0.0
C1019 C 0.22541 0.15214 0.70531 0.0
C1020 C 0.18155 0.12397 0.66003 0.0
C1021 C 0.19149 0.09118 0.66676 0.0
C1022 C 0.21839 0.08907 0.69329 0.0
C1023 C 0.23467 0.11945 0.71261 0.0
C1024 C 0.1521 0.12713 0.63277 0.0
C1025 C 0.23117 0.0558 0.70062 0.0
C1026 C 0.11177 0.01131 0.62796 0.0
C1027 C 0.11892 0.02321 0.59654 0.0
C1028 C 0.13786 0.02969 0.65289 0.0
C1029 C 0.17226 0.05927 0.6461 0.0
C1030 C 0.18243 0.06454 0.61567 0.0
C1031 C 0.15533 0.04656 0.59093 0.0
C1032 C 0.12589 0.02232 0.68505 0.0
C1033 C 0.21992 0.09366 0.60809 0.0
H1034 H 0.19202 0.17963 0.67362 0.0
H1035 H 0.25548 0.11825 0.73279 0.0
H1036 H 0.16122 0.12863 0.60998 0.0
H1037 H 0.12592 0.10098 0.6346 0.0
H1038 H 0.14611 0.15334 0.63208 0.0
H1039 H 0.24447 0.05324 0.72562 0.0
H1040 H 0.20796 0.02764 0.69598 0.0
H1041 H 0.25193 0.06119 0.68502 0.0
H1042 H 0.08366 0.99279 0.63234 0.0
H1043 H 0.16117 0.0555 0.56672 0.0
H1044 H 0.11717 0.04572 0.68745 0.0
H1045 H 0.14908 0.02279 0.70429 0.0
H1046 H 0.10213 0.9939 0.68825 0.0
H1047 H 0.21966 0.12332 0.60314 0.0
H1048 H 0.22697 0.08746 0.58688 0.0
H1049 H 0.24186 0.09355 0.62846 0.0
C1050 C 0.83948 0.10936 0.66255 0.0
C1051 C 0.85406 0.09853 0.69349 0.0
C1052 C 0.85186 0.10525 0.63608 0.0
C1053 C 0.87904 0.08934 0.64063 0.0
C1054 C 0.89217 0.0761 0.67164 0.0
C1055 C 0.87974 0.08112 0.69771 0.0
C1056 C 0.83726 0.11979 0.60341 0.0
C1057 C 0.92067 0.05823 0.6774 0.0
C1058 C 0.90165 0.05547 0.57392 0.0
C1059 C 0.93592 0.08544 0.56891 0.0
C1060 C 0.88174 0.05694 0.59635 0.0
C1061 C 0.89631 0.08956 0.61345 0.0
C1062 C 0.92957 0.12121 0.60652 0.0
C1063 C 0.9493 0.11848 0.58463 0.0
C1064 C 0.84667 0.02241 0.60336 0.0
C1065 C 0.94554 0.15694 0.62363 0.0
H1066 H 0.81889 0.12188 0.65902 0.0
H1067 H 0.89135 0.07285 0.72144 0.0
H1068 H 0.85916 0.14716 0.59441 0.0
H1069 H 0.8301 0.09837 0.58659 0.0
H1070 H 0.81236 0.12575 0.60345 0.0
H1071 H 0.92518 0.04588 0.70252 0.0
H1072 H 0.9119 0.03478 0.66215 0.0
H1073 H 0.94753 0.08073 0.67108 0.0
H1074 H 0.89176 0.02966 0.56202 0.0
H1075 H 0.97591 0.14155 0.5806 0.0
H1076 H 0.8244 0.03208 0.60454 0.0
H1077 H 0.85214 0.00648 0.62683 0.0
H1078 H 0.83652 1.00186 0.58529 0.0
H1079 H 0.9239 0.16818 0.62325 0.0
H1080 H 0.96922 0.1806 0.61299 0.0
H1081 H 0.95538 0.14918 0.64881 0.0
C1082 C 0.89586 0.83673 0.70121 0.0
C1083 C 0.86034 0.8085 0.69338 0.0
C1084 C 0.91715 0.86003 0.67742 0.0
C1085 C 0.90283 0.85385 0.64542 0.0
C1086 C 0.86911 0.82232 0.63786 0.0
C1087 C 0.84814 0.80013 0.66192 0.0
C1088 C 0.9538 0.89263 0.68628 0.0
C1089 C 0.85393 0.81366 0.60409 0.0
C1090 C 0.92244 0.93877 0.58081 0.0
C1091 C 0.94862 0.93436 0.5666 0.0
C1092 C 0.90836 0.91342 0.60723 0.0
C1093 C 0.9205 0.8827 0.61951 0.0
C1094 C 0.94717 0.87824 0.60553 0.0
C1095 C 0.96084 0.90415 0.57916 0.0
C1096 C 0.88017 0.9193 0.62178 0.0
C1097 C 0.96073 0.84573 0.61748 0.0
H1098 H 0.90639 0.84176 0.72566 0.0
H1099 H 0.82135 0.77734 0.65564 0.0
H1100 H 0.97552 0.89232 0.67421 0.0
H1101 H 0.9511 0.92101 0.67826 0.0
H1102 H 0.96307 0.89063 0.71227 0.0
H1103 H 0.82935 0.78567 0.60265 0.0
H1104 H 0.84571 0.8374 0.59044 0.0
H1105 H 0.87561 0.81241 0.59256 0.0
H1106 H 0.91322 0.96238 0.57157 0.0
H1107 H 0.98116 0.90067 0.56846 0.0
H1108 H 0.8895 0.92131 0.64751 0.0
H1109 H 0.85329 0.89389 0.6192 0.0
H1110 H 0.87544 0.94605 0.61059 0.0
H1111 H 0.95794 0.8347 0.64277 0.0
H1112 H 0.99029 0.85553 0.61458 0.0
H1113 H 0.94434 0.82119 0.60323 0.0
C1114 C 0.31873 0.09735 0.13948 0.0
C1115 C 0.28922 0.10682 0.12209 0.0
C1116 C 0.34175 0.08865 0.1243 0.0
C1117 C 0.33545 0.08989 0.09085 0.0
C1118 C 0.30585 0.0997 0.07318 0.0
C1119 C 0.28307 0.10786 0.08898 0.0
C1120 C 0.37271 0.07791 0.14408 0.0
C1121 C 0.29835 0.10181 0.0375 0.0
C1122 C 0.41539 0.10449 0.04836 0.0
C1123 C 0.40648 0.06672 0.0415 0.0
C1124 C 0.3926 0.11235 0.06439 0.0
C1125 C 0.36018 0.08169 0.07421 0.0
C1126 C 0.35115 0.04343 0.06763 0.0
C1127 C 0.37422 0.03646 0.05121 0.0
C1128 C 0.40315 0.15361 0.07065 0.0
C1129 C 0.3171 0.0098 0.07799 0.0
H1130 H 0.32343 0.09605 0.16507 0.0
H1131 H 0.26061 0.11558 0.07532 0.0
H1132 H 0.36907 0.04855 0.13995 0.0
H1133 H 0.39979 0.09874 0.13693 0.0
H1134 H 0.37378 0.0779 0.16982 0.0
H1135 H 0.27419 0.10975 0.02721 0.0
H1136 H 0.32312 0.12371 0.0272 0.0
H1137 H 0.29297 0.07332 0.03023 0.0
H1138 H 0.44013 0.12815 0.04094 0.0
H1139 H 0.36718 0.00712 0.04631 0.0
H1140 H 0.40669 0.15477 0.09648 0.0
H1141 H 0.3806 0.16367 0.0593 0.0
H1142 H 0.42927 0.17418 0.06155 0.0
H1143 H 0.31801 0.0074 0.10397 0.0
H1144 H 0.31452 0.98161 0.07195 0.0
H1145 H 0.29183 0.01508 0.06652 0.0
C1146 C 0.84458 0.30994 0.18064 0.0
C1147 C 0.85173 0.32285 0.21032 0.0
C1148 C 0.86942 0.32863 0.15823 0.0
C1149 C 0.90172 0.3624 0.16497 0.0
C1150 C 0.90995 0.3745 0.19552 0.0
C1151 C 0.88464 0.35505 0.2175 0.0
C1152 C 0.85913 0.31419 0.12625 0.0
C1153 C 0.94396 0.41 0.20417 0.0
C1154 C 0.97029 0.41135 0.10383 0.0
C1155 C 0.95696 0.43919 0.08609 0.0
C1156 C 0.95311 0.38632 0.12983 0.0
C1157 C 0.92201 0.38923 0.13841 0.0
C1158 C 0.90927 0.41796 0.12101 0.0
C1159 C 0.92678 0.44234 0.09544 0.0
C1160 C 0.96782 0.35638 0.14786 0.0
C1161 C 0.87641 0.42261 0.12897 0.0
H1162 H 0.81841 0.28687 0.17394 0.0
H1163 H 0.88978 0.36621 0.23992 0.0
H1164 H 0.84765 0.33329 0.10878 0.0
H1165 H 0.88389 0.31524 0.11784 0.0
H1166 H 0.83793 0.28386 0.12683 0.0
H1167 H 0.95025 0.41121 0.23017 0.0
H1168 H 0.96847 0.41044 0.19576 0.0
H1169 H 0.93933 0.4366 0.19248 0.0
H1170 H 0.99344 0.40844 0.09694 0.0
H1171 H 0.91624 0.46385 0.08238 0.0
H1172 H 0.9456 0.32677 0.14702 0.0
H1173 H 0.97652 0.3613 0.17314 0.0
H1174 H 0.99185 0.35735 0.13822 0.0
H1175 H 0.85141 0.39517 0.12663 0.0
H1176 H 0.87013 0.44661 0.11337 0.0
H1177 H 0.88179 0.42862 0.15389 0.0
C1178 C 0.73513 0.84353 0.20578 0.0
C1179 C 0.72273 0.80416 0.20144 0.0
C1180 C 0.71764 0.86799 0.18702 0.0
C1181 C 0.68771 0.85339 0.16238 0.0
C1182 C 0.67641 0.81404 0.15717 0.0
C1183 C 0.69314 0.7899 0.17719 0.0
C1184 C 0.73038 0.90912 0.19441 0.0
C1185 C 0.64629 0.79713 0.13046 0.0
C1186 C 0.61329 0.8965 0.1276 0.0
C1187 C 0.62721 0.92082 0.10052 0.0
C1188 C 0.63364 0.87642 0.14885 0.0
C1189 C 0.66791 0.87865 0.14214 0.0
C1190 C 0.68178 0.90316 0.11467 0.0
C1191 C 0.66184 0.92434 0.09481 0.0
C1192 C 0.61806 0.85222 0.17829 0.0
C1193 C 0.71668 0.90527 0.10505 0.0
H1194 H 0.7573 0.85473 0.22489 0.0
H1195 H 0.68302 0.75946 0.17381 0.0
H1196 H 0.74293 0.93004 0.17433 0.0
H1197 H 0.7063 0.91473 0.19762 0.0
H1198 H 0.75122 0.91497 0.21612 0.0
H1199 H 0.64345 0.76764 0.12732 0.0
H1200 H 0.61931 0.795 0.13521 0.0
H1201 H 0.65226 0.81648 0.10789 0.0
H1202 H 0.58641 0.89304 0.13215 0.0
H1203 H 0.67245 0.94212 0.07352 0.0
H1204 H 0.63995 0.85853 0.19927 0.0
H1205 H 0.60838 0.82085 0.17597 0.0
H1206 H 0.59435 0.85772 0.18262 0.0
H1207 H 0.74015 0.9142 0.1245 0.0
H1208 H 0.72434 0.92605 0.0834 0.0
H1209 H 0.71263 0.87595 0.10044 0.0
C1210 C 0.26192 0.69273 0.15818 0.0
C1211 C 0.23921 0.70482 0.17035 0.0
C1212 C 0.2483 0.67243 0.13157 0.0
C1213 C 0.21087 0.6632 0.11769 0.0
C1214 C 0.18815 0.67618 0.12972 0.0
C1215 C 0.20279 0.69713 0.15588 0.0
C1216 C 0.27353 0.65992 0.119 0.0
C1217 C 0.14794 0.66676 0.11572 0.0
C1218 C 0.16283 0.63439 0.03746 0.0
C1219 C 0.14021 0.59536 0.04581 0.0
C1220 C 0.19018 0.65617 0.06003 0.0
C1221 C 0.19421 0.63846 0.09158 0.0
C1222 C 0.17522 0.59775 0.09884 0.0
C1223 C 0.14859 0.57646 0.07559 0.0
C1224 C 0.21122 0.69914 0.05104 0.0
C1225 C 0.179 0.5776 0.13214 0.0
H1226 H 0.29024 0.69892 0.16966 0.0
H1227 H 0.18524 0.7059 0.16589 0.0
H1228 H 0.26505 0.62797 0.12479 0.0
H1229 H 0.27116 0.66653 0.09282 0.0
H1230 H 0.30304 0.67433 0.12936 0.0
H1231 H 0.13428 0.67923 0.12785 0.0
H1232 H 0.14584 0.67829 0.09023 0.0
H1233 H 0.13241 0.6347 0.11751 0.0
H1234 H 0.15691 0.64884 0.01414 0.0
H1235 H 0.13142 0.54615 0.08205 0.0
H1236 H 0.24017 0.70896 0.06345 0.0
H1237 H 0.19752 0.71579 0.05815 0.0
H1238 H 0.21172 0.70629 0.02507 0.0
H1239 H 0.20833 0.58815 0.14353 0.0
H1240 H 0.1682 0.54547 0.13261 0.0
H1241 H 0.16295 0.58425 0.14654 0.0
C1242 C 0.30768 0.79649 0.855 0.0
C1243 C 0.32796 0.79083 0.83501 0.0
C1244 C 0.32546 0.81542 0.88195 0.0
C1245 C 0.3645 0.8294 0.88884 0.0
C1246 C 0.38502 0.82196 0.86974 0.0
C1247 C 0.36639 0.8025 0.84306 0.0
C1248 C 0.30254 0.82202 0.90208 0.0
C1249 C 0.42682 0.83639 0.87647 0.0
C1250 C 0.42157 0.91887 0.93017 0.0
C1251 C 0.43591 0.90236 0.95868 0.0
C1252 C 0.39613 0.89514 0.90778 0.0
C1253 C 0.38441 0.85416 0.91459 0.0
C1254 C 0.39543 0.8374 0.94485 0.0
C1255 C 0.42136 0.86179 0.96655 0.0
C1256 C 0.38456 0.914 0.8758 0.0
C1257 C 0.3824 0.7938 0.95334 0.0
H1258 H 0.27788 0.78728 0.8491 0.0
H1259 H 0.38217 0.79829 0.82765 0.0
H1260 H 0.30649 0.85314 0.89798 0.0
H1261 H 0.27244 0.80413 0.8964 0.0
H1262 H 0.3116 0.81515 0.92762 0.0
H1263 H 0.43833 0.82636 0.86033 0.0
H1264 H 0.43903 0.86872 0.87373 0.0
H1265 H 0.4357 0.82619 0.90126 0.0
H1266 H 0.43277 0.95024 0.92407 0.0
H1267 H 0.4321 0.84903 0.98885 0.0
H1268 H 0.35401 0.90087 0.86926 0.0
H1269 H 0.39704 0.90881 0.85748 0.0
H1270 H 0.39345 0.94593 0.87528 0.0
H1271 H 0.35217 0.77929 0.94546 0.0
H1272 H 0.38825 0.78556 0.97924 0.0
H1273 H 0.39685 0.7825 0.94101 0.0
C1274 C 0.15577 0.307 0.87976 0.0
C1275 C 0.16656 0.27801 0.89871 0.0
C1276 C 0.14871 0.3334 0.89335 0.0
C1277 C 0.1522 0.33064 0.92672 0.0
C1278 C 0.16473 0.30266 0.94602 0.0
C1279 C 0.17181 0.27675 0.93179 0.0
C1280 C 0.1355 0.36283 0.8719 0.0
C1281 C 0.16887 0.29878 0.9817 0.0
C1282 C 0.14749 0.41107 0.96425 0.0
C1283 C 0.11 0.39537 0.96854 0.0
C1284 C 0.16182 0.39049 0.9506 0.0
C1285 C 0.13813 0.35337 0.94119 0.0
C1286 C 0.10035 0.3375 0.94544 0.0
C1287 C 0.08681 0.35862 0.95893 0.0
C1288 C 0.20222 0.40838 0.94628 0.0
C1289 C 0.07409 0.29798 0.93582 0.0
H1290 H 0.1513 0.30809 0.85419 0.0
H1291 H 0.1809 0.25503 0.94664 0.0
H1292 H 0.10572 0.35462 0.87311 0.0
H1293 H 0.151 0.39216 0.87977 0.0
H1294 H 0.13875 0.36458 0.84682 0.0
H1295 H 0.18266 0.27858 0.99334 0.0
H1296 H 0.18516 0.32762 0.99028 0.0
H1297 H 0.14106 0.28759 0.98922 0.0
H1298 H 0.16566 0.43937 0.97156 0.0
H1299 H 0.05782 0.34597 0.96211 0.0
H1300 H 0.20476 0.41115 0.9209 0.0
H1301 H 0.21634 0.38912 0.95954 0.0
H1302 H 0.21692 0.4376 0.95455 0.0
H1303 H 0.07282 0.29782 0.91011 0.0
H1304 H 0.04551 0.28972 0.94084 0.0
H1305 H 0.0844 0.27537 0.94863 0.0
C1306 C 0.71508 0.19343 0.82486 0.0
C1307 C 0.69863 0.19543 0.7931 0.0
C1308 C 0.69395 0.17049 0.84911 0.0
C1309 C 0.65505 0.14992 0.8417 0.0
C1310 C 0.63836 0.15184 0.80962 0.0
C1311 C 0.66028 0.1745 0.78583 0.0
C1312 C 0.7133 0.16852 0.88275 0.0
C1313 C 0.59723 0.13004 0.80044 0.0
C1314 C 0.60868 0.06498 0.90227 0.0
C1315 C 0.59464 0.0818 0.91971 0.0
C1316 C 0.62696 0.08623 0.87621 0.0
C1317 C 0.63205 0.12581 0.86738 0.0
C1318 C 0.61641 0.14254 0.88409 0.0
C1319 C 0.59793 0.12034 0.91016 0.0
C1320 C 0.64313 0.06677 0.85982 0.0
C1321 C 0.6208 0.18447 0.8754 0.0
H1322 H 0.74437 0.21028 0.83096 0.0
H1323 H 0.64725 0.17631 0.76138 0.0
H1324 H 0.70162 0.17958 0.89793 0.0
H1325 H 0.70847 0.1378 0.89229 0.0
H1326 H 0.74372 0.18573 0.88457 0.0
H1327 H 0.58832 0.13488 0.77455 0.0
H1328 H 0.58975 0.09835 0.80763 0.0
H1329 H 0.58147 0.13929 0.81313 0.0
H1330 H 0.60691 0.03542 0.91006 0.0
H1331 H 0.58794 0.13374 0.92407 0.0
H1332 H 0.67299 0.07536 0.86943 0.0
H1333 H 0.64065 0.07588 0.8339 0.0
H1334 H 0.6295 0.0345 0.86406 0.0
H1335 H 0.65056 0.20384 0.88018 0.0
H1336 H 0.60481 0.19235 0.88898 0.0
H1337 H 0.6115 0.19009 0.84971 0.0
C1338 C 0.82242 0.67561 0.83434 0.0
C1339 C 0.8315 0.7031 0.80746 0.0
C1340 C 0.84817 0.66089 0.8534 0.0
C1341 C 0.88367 0.67164 0.84456 0.0
C1342 C 0.89302 0.69938 0.81723 0.0
C1343 C 0.8672 0.7152 0.7994 0.0
C1344 C 0.83703 0.63338 0.883 0.0
C1345 C 0.9297 0.711 0.80589 0.0
C1346 C 0.95995 0.65304 0.90813 0.0
C1347 C 0.95492 0.61489 0.90499 0.0
C1348 C 0.93775 0.67196 0.88848 0.0
C1349 C 0.91031 0.6533 0.86379 0.0
C1350 C 0.90651 0.61557 0.85935 0.0
C1351 C 0.92798 0.59655 0.88035 0.0
C1352 C 0.94193 0.71088 0.89581 0.0
C1353 C 0.87899 0.59471 0.8328 0.0
H1354 H 0.7948 0.66558 0.84058 0.0
H1355 H 0.87425 0.73548 0.7782 0.0
H1356 H 0.8338 0.6038 0.87996 0.0
H1357 H 0.85897 0.64302 0.90349 0.0
H1358 H 0.81048 0.63149 0.88867 0.0
H1359 H 0.9332 0.73305 0.7846 0.0
H1360 H 0.95294 0.72297 0.8249 0.0
H1361 H 0.93175 0.68486 0.80007 0.0
H1362 H 0.97979 0.66736 0.92749 0.0
H1363 H 0.92334 0.56705 0.87766 0.0
H1364 H 0.91688 0.70717 0.90537 0.0
H1365 H 0.94405 0.73196 0.87402 0.0
H1366 H 0.96668 0.72346 0.91352 0.0
H1367 H 0.88337 0.56888 0.82918 0.0
H1368 H 0.88106 0.61474 0.81034 0.0
H1369 H 0.85038 0.58479 0.83827 0.0
C1370 C 0.19487 0.30008 0.20699 0.0
C1371 C 0.23021 0.31196 0.19824 0.0
C1372 C 0.16864 0.31544 0.18934 0.0
C1373 C 0.17719 0.34248 0.16151 0.0
C1374 C 0.21232 0.353 0.152 0.0
C1375 C 0.23849 0.33873 0.17085 0.0
C1376 C 0.13241 0.30413 0.20136 0.0
C1377 C 0.2226 0.37977 0.1219 0.0
C1378 C 0.09962 0.35973 0.09874 0.0
C1379 C 0.10481 0.39808 0.10141 0.0
C1380 C 0.12216 0.34115 0.11834 0.0
C1381 C 0.15015 0.36041 0.14247 0.0
C1382 C 0.1541 0.39833 0.14649 0.0
C1383 C 0.13224 0.41695 0.12557 0.0
C1384 C 0.11769 0.30191 0.11152 0.0
C1385 C 0.18224 0.41986 0.17244 0.0
H1386 H 0.18843 0.28035 0.22855 0.0
H1387 H 0.26582 0.34855 0.16405 0.0
H1388 H 0.1306 0.33047 0.20702 0.0
H1389 H 0.10872 0.29176 0.1828 0.0
H1390 H 0.12946 0.28248 0.22291 0.0
H1391 H 0.24895 0.38159 0.11584 0.0
H1392 H 0.20021 0.36952 0.10183 0.0
H1393 H 0.22581 0.40949 0.12451 0.0
H1394 H 0.07938 0.34497 0.07976 0.0
H1395 H 0.13701 0.44661 0.12788 0.0
H1396 H 0.11602 0.28133 0.13358 0.0
H1397 H 0.14243 0.30529 0.10163 0.0
H1398 H 0.0926 0.28894 0.09424 0.0
H1399 H 0.18067 0.40034 0.19517 0.0
H1400 H 0.17805 0.4459 0.17583 0.0
H1401 H 0.2106 0.42954 0.1665 0.0
C1402 C 0.21481 0.70299 0.82541 0.0
C1403 C 0.2083 0.68904 0.79627 0.0
C1404 C 0.1899 0.68446 0.84777 0.0
C1405 C 0.15818 0.64999 0.8415 0.0
C1406 C 0.15055 0.63692 0.81139 0.0
C1407 C 0.17595 0.65613 0.78948 0.0
C1408 C 0.19953 0.69993 0.87927 0.0
C1409 C 0.11715 0.60068 0.80322 0.0
C1410 C 0.13386 0.57113 0.91175 0.0
C1411 C 0.10294 0.57351 0.92043 0.0
C1412 C 0.1515 0.59556 0.88628 0.0
C1413 C 0.13809 0.62349 0.86824 0.0
C1414 C 0.10631 0.62567 0.87617 0.0
C1415 C 0.08907 0.60067 0.90215 0.0
C1416 C 0.18513 0.59175 0.87904 0.0
C1417 C 0.0909 0.65476 0.85746 0.0
H1418 H 0.24054 0.72692 0.83167 0.0
H1419 H 0.17132 0.64433 0.76746 0.0
H1420 H 0.17438 0.69852 0.88725 0.0
H1421 H 0.21148 0.68171 0.89733 0.0
H1422 H 0.22017 0.73054 0.87816 0.0
H1423 H 0.11117 0.5986 0.77736 0.0
H1424 H 0.12232 0.57463 0.81568 0.0
H1425 H 0.09225 0.6 0.81114 0.0
H1426 H 0.14487 0.55017 0.92523 0.0
H1427 H 0.06536 0.603 0.90853 0.0
H1428 H 0.20955 0.61973 0.881 0.0
H1429 H 0.18021 0.585 0.85439 0.0
H1430 H 0.19209 0.56854 0.8953 0.0
H1431 H 0.11235 0.68474 0.85872 0.0
H1432 H 0.06594 0.65276 0.86624 0.0
H1433 H 0.08344 0.64994 0.83213 0.0
C1434 C 0.3686 0.2225 0.82786 0.0
C1435 C 0.33722 0.20755 0.80526 0.0
C1436 C 0.38528 0.19841 0.84798 0.0
C1437 C 0.37168 0.15815 0.84472 0.0
C1438 C 0.33978 0.14279 0.82189 0.0
C1439 C 0.32272 0.16744 0.80284 0.0
C1440 C 0.41783 0.21632 0.87269 0.0
C1441 C 0.32418 0.10045 0.81686 0.0
C1442 C 0.44359 0.1115 0.87825 0.0
C1443 C 0.43151 0.09052 0.90696 0.0
C1444 C 0.42327 0.1316 0.85701 0.0
C1445 C 0.39106 0.1327 0.86521 0.0
C1446 C 0.37907 0.11151 0.89431 0.0
C1447 C 0.39884 0.09029 0.91429 0.0
C1448 C 0.43667 0.15225 0.82591 0.0
C1449 C 0.34631 0.11274 0.90525 0.0
H1450 H 0.38026 0.25347 0.82977 0.0
H1451 H 0.29903 0.1556 0.78506 0.0
H1452 H 0.41274 0.19944 0.89632 0.0
H1453 H 0.4432 0.2153 0.86714 0.0
H1454 H 0.42317 0.24712 0.87407 0.0
H1455 H 0.30285 0.09414 0.7955 0.0
H1456 H 0.34672 0.09181 0.81443 0.0
H1457 H 0.31121 0.08209 0.83772 0.0
H1458 H 0.46898 0.11235 0.87245 0.0
H1459 H 0.38971 0.07498 0.93674 0.0
H1460 H 0.44748 0.18421 0.82612 0.0
H1461 H 0.41327 0.14453 0.80618 0.0
H1462 H 0.45903 0.14482 0.82112 0.0
H1463 H 0.35103 0.14342 0.90627 0.0
H1464 H 0.34125 0.0961 0.929 0.0
H1465 H 0.321 0.10049 0.8881 0.0
C1466 C 0.85725 0.3135 0.85212 0.0
C1467 C 0.82121 0.30622 0.83679 0.0
C1468 C 0.87138 0.33491 0.87802 0.0
C1469 C 0.84852 0.34871 0.88899 0.0
C1470 C 0.81137 0.33981 0.87428 0.0
C1471 C 0.79833 0.31908 0.84792 0.0
C1472 C 0.91131 0.344 0.89283 0.0
C1473 C 0.78563 0.35308 0.88534 0.0
C1474 C 0.89617 0.37852 0.96896 0.0
C1475 C 0.91921 0.4173 0.9603 0.0
C1476 C 0.86858 0.35668 0.94654 0.0
C1477 C 0.86492 0.37395 0.91482 0.0
C1478 C 0.88424 0.41452 0.90724 0.0
C1479 C 0.91106 0.43596 0.93032 0.0
C1480 C 0.84653 0.31407 0.9559 0.0
C1481 C 0.88022 0.43424 0.87383 0.0
H1482 H 0.87492 0.30407 0.84294 0.0
H1483 H 0.7703 0.3132 0.83582 0.0
H1484 H 0.92707 0.37602 0.89112 0.0
H1485 H 0.91267 0.33246 0.91833 0.0
H1486 H 0.92526 0.33129 0.88125 0.0
H1487 H 0.75628 0.33252 0.88035 0.0
H1488 H 0.79251 0.35592 0.91105 0.0
H1489 H 0.78786 0.3819 0.87222 0.0
H1490 H 0.90183 0.3643 0.99245 0.0
H1491 H 0.92849 0.46613 0.92367 0.0
H1492 H 0.85891 0.29635 0.94848 0.0
H1493 H 0.81741 0.30529 0.94388 0.0
H1494 H 0.84653 0.30726 0.98194 0.0
H1495 H 0.89398 0.42529 0.85887 0.0
H1496 H 0.89301 0.4665 0.87276 0.0
H1497 H 0.85053 0.42524 0.86353 0.0
C1498 C 0.77553 0.90377 0.9191 0.0
C1499 C 0.77001 0.9055 0.88597 0.0
C1500 C 0.75255 0.91185 0.93471 0.0
C1501 C 0.7234 0.92225 0.9168 0.0
C1502 C 0.71775 0.92421 0.88332 0.0
C1503 C 0.74096 0.9156 0.86833 0.0
C1504 C 0.75935 0.909 0.97044 0.0
C1505 C 0.68731 0.93564 0.86332 0.0
C1506 C 0.64283 0.90754 0.95841 0.0
C1507 C 0.65197 0.94514 0.96574 0.0
C1508 C 0.66572 0.89977 0.94246 0.0
C1509 C 0.69849 0.93038 0.93322 0.0
C1510 C 0.70773 0.9685 0.94023 0.0
C1511 C 0.68453 0.97537 0.95656 0.0
C1512 C 0.65493 0.85867 0.93566 0.0
C1513 C 0.7422 1.00205 0.93054 0.0
H1514 H 0.79765 0.89557 0.93292 0.0
H1515 H 0.73679 0.91743 0.84272 0.0
H1516 H 0.7648 0.93735 0.97802 0.0
H1517 H 0.73424 0.8871 0.98025 0.0
H1518 H 0.78322 0.90065 0.9809 0.0
H1519 H 0.68668 0.93607 0.83758 0.0
H1520 H 0.65996 0.91496 0.87001 0.0
H1521 H 0.69117 0.96498 0.86772 0.0
H1522 H 0.61784 0.88392 0.96542 0.0
H1523 H 0.69176 1.00459 0.96183 0.0
H1524 H 0.67713 0.84814 0.94717 0.0
H1525 H 0.65192 0.85805 0.9098 0.0
H1526 H 0.62848 0.83815 0.94424 0.0
H1527 H 0.76719 0.99665 0.94274 0.0
H1528 H 0.74453 0.03027 0.93632 0.0
H1529 H 0.74219 1.00448 0.90469 0.0
C1530 C 0.90493 0.70578 0.12717 0.0
C1531 C 0.89518 0.73558 0.10848 0.0
C1532 C 0.91159 0.67931 0.11333 0.0
C1533 C 0.90876 0.68282 0.07996 0.0
C1534 C 0.89732 0.7117 0.06089 0.0
C1535 C 0.89062 0.73767 0.07536 0.0
C1536 C 0.92367 0.64893 0.13454 0.0
C1537 C 0.89394 0.71642 0.02522 0.0
C1538 C 0.97363 0.6537 0.04819 0.0
C1539 C 0.94999 0.61742 0.03791 0.0
C1540 C 0.9604 0.67504 0.06175 0.0
C1541 C 0.92247 0.65989 0.06537 0.0
C1542 C 0.89832 0.62324 0.05528 0.0
C1543 C 0.91235 0.60242 0.0416 0.0
C1544 C 0.98717 0.71401 0.07213 0.0
C1545 C 0.85773 0.60614 0.05891 0.0
H1546 H 0.90887 0.70404 0.15277 0.0
H1547 H 0.88234 0.76005 0.0607 0.0
H1548 H 0.90774 0.61994 0.12615 0.0
H1549 H 0.95342 0.65647 0.13373 0.0
H1550 H 0.92 0.64678 0.15957 0.0
H1551 H 0.88092 0.73734 0.01369 0.0
H1552 H 0.92193 0.72714 0.01814 0.0
H1553 H 0.87727 0.68796 0.01609 0.0
H1554 H 1.00275 0.6658 0.04551 0.0
H1555 H 0.89383 0.5745 0.03375 0.0
H1556 H 0.98798 0.71365 0.09785 0.0
H1557 H 0.97766 0.73726 0.05948 0.0
H1558 H 1.01582 0.72173 0.06752 0.0
H1559 H 0.85468 0.60291 0.08421 0.0
H1560 H 0.84264 0.57724 0.05011 0.0
H1561 H 0.84439 0.62614 0.04573 0.0
C1562 C 0.34488 0.81802 0.18306 0.0
C1563 C 0.36152 0.81637 0.21477 0.0
C1564 C 0.36577 0.84105 0.1587 0.0
C1565 C 0.40457 0.86224 0.16601 0.0
C1566 C 0.42141 0.86085 0.19807 0.0
C1567 C 0.39975 0.83796 0.22195 0.0
C1568 C 0.34629 0.84242 0.12507 0.0
C1569 C 0.4624 0.88351 0.20713 0.0
C1570 C 0.46191 0.89223 0.09772 0.0
C1571 C 0.46427 0.93041 0.08773 0.0
C1572 C 0.44361 0.87003 0.12387 0.0
C1573 C 0.42732 0.88643 0.14023 0.0
C1574 C 0.43152 0.9257 0.13099 0.0
C1575 C 0.44958 0.94694 0.10483 0.0
C1576 C 0.44008 0.82841 0.13298 0.0
C1577 C 0.41465 0.9448 0.14704 0.0
H1578 H 0.31566 0.80076 0.17708 0.0
H1579 H 0.41289 0.83648 0.24638 0.0
H1580 H 0.35021 0.87292 0.11546 0.0
H1581 H 0.3586 0.83203 0.10992 0.0
H1582 H 0.31603 0.82436 0.12329 0.0
H1583 H 0.47141 0.87915 0.23304 0.0
H1584 H 0.47857 0.87458 0.19462 0.0
H1585 H 0.46924 0.91506 0.19963 0.0
H1586 H 0.47244 0.87907 0.08408 0.0
H1587 H 0.4507 0.97622 0.09672 0.0
H1588 H 0.41048 0.80849 0.12841 0.0
H1589 H 0.4496 0.8233 0.15869 0.0
H1590 H 0.45637 0.82077 0.11952 0.0
H1591 H 0.38486 0.93595 0.1371 0.0
H1592 H 0.42803 0.97709 0.14281 0.0
H1593 H 0.41679 0.93572 0.17297 0.0
C1594 C 0.75183 0.21864 0.14889 0.0
C1595 C 0.73153 0.2239 0.16909 0.0
C1596 C 0.73403 0.19977 0.12191 0.0
C1597 C 0.69496 0.18551 0.11521 0.0
C1598 C 0.67446 0.19292 0.13434 0.0
C1599 C 0.69309 0.21228 0.16106 0.0
C1600 C 0.75692 0.19328 0.10169 0.0
C1601 C 0.63264 0.17829 0.12776 0.0
C1602 C 0.63726 0.15064 0.03851 0.0
C1603 C 0.62305 0.11021 0.04723 0.0
C1604 C 0.66342 0.17582 0.05955 0.0
C1605 C 0.67501 0.15998 0.08999 0.0
C1606 C 0.66368 0.11911 0.0976 0.0
C1607 C 0.638 0.09457 0.07586 0.0
C1608 C 0.67596 0.21926 0.05023 0.0
C1609 C 0.67596 0.10123 0.12976 0.0
H1610 H 0.78163 0.22783 0.15475 0.0
H1611 H 0.67731 0.21625 0.17659 0.0
H1612 H 0.75347 0.16231 0.10611 0.0
H1613 H 0.74744 0.19961 0.07615 0.0
H1614 H 0.78695 0.21165 0.10702 0.0
H1615 H 0.62119 0.18876 0.14362 0.0
H1616 H 0.62355 0.18785 0.10284 0.0
H1617 H 0.62057 0.14595 0.13108 0.0
H1618 H 0.62605 0.1627 0.01608 0.0
H1619 H 0.62709 0.06331 0.08258 0.0
H1620 H 0.70613 0.2343 0.05805 0.0
H1621 H 0.66116 0.23071 0.06202 0.0
H1622 H 0.67007 0.22671 0.02421 0.0
H1623 H 0.70659 0.11428 0.13545 0.0
H1624 H 0.66678 0.06916 0.13109 0.0
H1625 H 0.66441 0.10753 0.14816 0.0
C1626 C 0.70877 0.71851 0.8398 0.0
C1627 C 0.69843 0.71478 0.8074 0.0
C1628 C 0.68378 0.69719 0.86122 0.0
C1629 C 0.64768 0.67154 0.84988 0.0
C1630 C 0.63577 0.67092 0.81693 0.0
C1631 C 0.6614 0.69279 0.79595 0.0
C1632 C 0.69728 0.69932 0.89625 0.0
C1633 C 0.59717 0.64471 0.80392 0.0
C1634 C 0.61948 0.58066 0.90744 0.0
C1635 C 0.59845 0.58833 0.92523 0.0
C1636 C 0.63324 0.60628 0.88113 0.0
C1637 C 0.62599 0.64059 0.87268 0.0
C1638 C 0.60288 0.64737 0.88939 0.0
C1639 C 0.5893 0.62095 0.91566 0.0
C1640 C 0.65754 0.59782 0.86369 0.0
C1641 C 0.59382 0.68316 0.88032 0.0
H1642 H 0.73703 0.73631 0.84883 0.0
H1643 H 0.6528 0.69104 0.77076 0.0
H1644 H 0.67663 0.7022 0.90801 0.0
H1645 H 0.70087 0.672 0.90736 0.0
H1646 H 0.72425 0.72419 0.90085 0.0
H1647 H 0.58891 0.65572 0.77915 0.0
H1648 H 0.59649 0.61523 0.80389 0.0
H1649 H 0.57649 0.64181 0.81871 0.0
H1650 H 0.62593 0.55493 0.91458 0.0
H1651 H 0.5733 0.62692 0.92962 0.0
H1652 H 0.68649 0.61954 0.86776 0.0
H1653 H 0.64794 0.60029 0.83782 0.0
H1654 H 0.6577 0.56826 0.87156 0.0
H1655 H 0.5785 0.68603 0.89761 0.0
H1656 H 0.57655 0.68161 0.85666 0.0
H1657 H 0.61953 0.70986 0.87853 0.0
C1658 C 0.38458 0.60802 0.79058 0.0
C1659 C 0.39373 0.62325 0.76012 0.0
C1660 C 0.41175 0.60737 0.8162 0.0
C1661 C 0.4492 0.62127 0.81112 0.0
C1662 C 0.45863 0.6353 0.78016 0.0
C1663 C 0.43058 0.63638 0.75482 0.0
C1664 C 0.40014 0.59265 0.84883 0.0
C1665 C 0.49818 0.65043 0.77387 0.0
C1666 C 0.49796 0.63981 0.89189 0.0
C1667 C 0.49376 0.60165 0.90404 0.0
C1668 C 0.48991 0.64949 0.8592 0.0
C1669 C 0.47727 0.62009 0.83898 0.0
C1670 C 0.47992 0.58384 0.85078 0.0
C1671 C 0.48757 0.57473 0.88349 0.0
C1672 C 0.48899 0.689 0.84713 0.0
C1673 C 0.46885 0.55263 0.82954 0.0
H1674 H 0.35591 0.59732 0.79448 0.0
H1675 H 0.43757 0.64844 0.73118 0.0
H1676 H 0.40903 0.5686 0.86013 0.0
H1677 H 0.41358 0.61645 0.86413 0.0
H1678 H 0.36963 0.58184 0.84821 0.0
H1679 H 0.49955 0.65083 0.74854 0.0
H1680 H 0.51309 0.68067 0.77995 0.0
H1681 H 0.51302 0.63263 0.78866 0.0
H1682 H 0.50409 0.66093 0.90796 0.0
H1683 H 0.48616 0.54568 0.89313 0.0
H1684 H 0.50693 0.71079 0.86357 0.0
H1685 H 0.46006 0.68667 0.84491 0.0
H1686 H 0.49794 0.69942 0.82337 0.0
H1687 H 0.43829 0.54079 0.82257 0.0
H1688 H 0.4771 0.52822 0.84148 0.0
H1689 H 0.48166 0.56506 0.80752 0.0
C1690 C 0.30119 0.34749 0.8224 0.0
C1691 C 0.32275 0.34135 0.80403 0.0
C1692 C 0.31792 0.37022 0.84755 0.0
C1693 C 0.35709 0.38628 0.8548 0.0
C1694 C 0.37887 0.38255 0.8347 0.0
C1695 C 0.36134 0.36 0.80959 0.0
C1696 C 0.29354 0.37408 0.8678 0.0
C1697 C 0.42075 0.39891 0.84159 0.0
C1698 C 0.41801 0.45336 0.91625 0.0
C1699 C 0.42698 0.42662 0.94001 0.0
C1700 C 0.39226 0.4405 0.88922 0.0
C1701 C 0.37544 0.40019 0.88612 0.0
C1702 C 0.38135 0.37305 0.91171 0.0
C1703 C 0.40689 0.38664 0.93841 0.0
C1704 C 0.38536 0.47007 0.86293 0.0
C1705 C 0.36373 0.32971 0.90963 0.0
H1706 H 0.27121 0.3329 0.81811 0.0
H1707 H 0.37803 0.35418 0.79628 0.0
H1708 H 0.28943 0.35089 0.88825 0.0
H1709 H 0.30642 0.40263 0.8772 0.0
H1710 H 0.26577 0.37068 0.85428 0.0
H1711 H 0.43351 0.39737 0.82177 0.0
H1712 H 0.43173 0.42971 0.84614 0.0
H1713 H 0.42961 0.38213 0.86323 0.0
H1714 H 0.43324 0.48432 0.91746 0.0
H1715 H 0.41323 0.36584 0.95702 0.0
H1716 H 0.35511 0.46166 0.85515 0.0
H1717 H 0.39783 0.47088 0.84216 0.0
H1718 H 0.39742 0.49973 0.87031 0.0
H1719 H 0.33341 0.32017 0.90194 0.0
H1720 H 0.36852 0.31247 0.93262 0.0
H1721 H 0.37553 0.32288 0.8917 0.0
C1722 C 0.69461 0.4414 0.82796 0.0
C1723 C 0.6979 0.40642 0.82628 0.0
C1724 C 0.68535 0.44779 0.85526 0.0
C1725 C 0.68072 0.41924 0.88211 0.0
C1726 C 0.68736 0.38561 0.88169 0.0
C1727 C 0.69492 0.37915 0.85368 0.0
C1728 C 0.67796 0.48385 0.8545 0.0
C1729 C 0.68409 0.35508 0.91018 0.0
C1730 C 0.66652 0.44607 0.95721 0.0
C1731 C 0.6277 0.42873 0.95519 0.0
C1732 C 0.68455 0.44206 0.9343 0.0
C1733 C 0.66313 0.42142 0.9083 0.0
C1734 C 0.62407 0.4033 0.90656 0.0
C1735 C 0.60699 0.40666 0.9302 0.0
C1736 C 0.72636 0.46052 0.93757 0.0
C1737 C 0.60001 0.38155 0.87902 0.0
H1738 H 0.69809 0.46346 0.80761 0.0
H1739 H 0.69673 0.35166 0.85313 0.0
H1740 H 0.64796 0.47537 0.85497 0.0
H1741 H 0.69337 0.49879 0.87571 0.0
H1742 H 0.68586 0.5048 0.83298 0.0
H1743 H 0.69774 0.33545 0.90856 0.0
H1744 H 0.69667 0.36885 0.93235 0.0
H1745 H 0.65435 0.33708 0.91187 0.0
H1746 H 0.68274 0.46313 0.97643 0.0
H1747 H 0.57697 0.39339 0.92812 0.0
H1748 H 0.73509 0.48599 0.91925 0.0
H1749 H 0.73746 0.43961 0.93376 0.0
H1750 H 0.73907 0.47052 0.96123 0.0
H1751 H 0.60484 0.40122 0.85646 0.0
H1752 H 0.56995 0.36984 0.88092 0.0
H1753 H 0.60743 0.35691 0.87766 0.0
C1754 C 0.62789 0.37521 0.24965 0.0
C1755 C 0.66464 0.38693 0.24449 0.0
C1756 C 0.60014 0.37688 0.22419 0.0
C1757 C 0.60985 0.3908 0.19331 0.0
C1758 C 0.64711 0.40299 0.18829 0.0
C1759 C 0.67394 0.40132 0.21397 0.0
C1760 C 0.56081 0.36398 0.23042 0.0
C1761 C 0.65893 0.4177 0.15573 0.0
C1762 C 0.55903 0.37532 0.11246 0.0
C1763 C 0.56482 0.41401 0.10084 0.0
C1764 C 0.56764 0.36491 0.14493 0.0
C1765 C 0.58233 0.39408 0.16556 0.0
C1766 C 0.58163 0.43129 0.15445 0.0
C1767 C 0.57343 0.4411 0.12191 0.0
C1768 C 0.56683 0.32456 0.15607 0.0
C1769 C 0.59486 0.46236 0.1762 0.0
H1770 H 0.62077 0.36401 0.27335 0.0
H1771 H 0.70251 0.41111 0.21011 0.0
H1772 H 0.55528 0.39 0.23136 0.0
H1773 H 0.54046 0.34804 0.2112 0.0
H1774 H 0.55607 0.34509 0.25336 0.0
H1775 H 0.68903 0.42554 0.15619 0.0
H1776 H 0.64327 0.39507 0.13957 0.0
H1777 H 0.65284 0.44386 0.14558 0.0
H1778 H 0.55118 0.35414 0.09604 0.0
H1779 H 0.5761 0.47066 0.11276 0.0
H1780 H 0.56151 0.31513 0.181 0.0
H1781 H 0.59428 0.32481 0.15465 0.0
H1782 H 0.54539 0.30306 0.14082 0.0
H1783 H 0.5883 0.48799 0.16475 0.0
H1784 H 0.62537 0.4723 0.18311 0.0
H1785 H 0.58196 0.45036 0.19818 0.0
C1786 C 0.75773 0.66668 0.1807 0.0
C1787 C 0.73652 0.67178 0.20006 0.0
C1788 C 0.74062 0.64429 0.15537 0.0
C1789 C 0.7014 0.6275 0.14898 0.0
C1790 C 0.68006 0.63011 0.17006 0.0
C1791 C 0.69797 0.65235 0.19532 0.0
C1792 C 0.76454 0.64157 0.13405 0.0
C1793 C 0.63814 0.61287 0.16414 0.0
C1794 C 0.64955 0.62835 0.06619 0.0
C1795 C 0.63003 0.58843 0.06397 0.0
C1796 C 0.67548 0.6416 0.09276 0.0
C1797 C 0.68239 0.61419 0.1176 0.0
C1798 C 0.66606 0.57406 0.1138 0.0
C1799 C 0.6399 0.56154 0.0869 0.0
C1800 C 0.69248 0.68476 0.0956 0.0
C1801 C 0.674 0.54424 0.13924 0.0
H1802 H 0.78769 0.68171 0.18444 0.0
H1803 H 0.68152 0.65727 0.20948 0.0
H1804 H 0.75197 0.61305 0.12462 0.0
H1805 H 0.76734 0.66471 0.11363 0.0
H1806 H 0.79285 0.64581 0.14673 0.0
H1807 H 0.62589 0.61347 0.18464 0.0
H1808 H 0.62834 0.62972 0.14308 0.0
H1809 H 0.62753 0.58231 0.15908 0.0
H1810 H 0.6425 0.64928 0.0482 0.0
H1811 H 0.62514 0.53065 0.08518 0.0
H1812 H 0.72294 0.69483 0.10265 0.0
H1813 H 0.68097 0.69055 0.1143 0.0
H1814 H 0.68685 0.70235 0.07309 0.0
H1815 H 0.7044 0.55276 0.14591 0.0
H1816 H 0.66158 0.51469 0.13155 0.0
H1817 H 0.66268 0.54302 0.16081 0.0
C1818 C 0.34496 0.60772 0.15585 0.0
C1819 C 0.36582 0.60263 0.1854 0.0
C1820 C 0.35381 0.60275 0.12779 0.0
C1821 C 0.38435 0.59249 0.12926 0.0
C1822 C 0.40478 0.58608 0.15909 0.0
C1823 C 0.39534 0.59131 0.18674 0.0
C1824 C 0.33119 0.60991 0.09661 0.0
C1825 C 0.43724 0.57458 0.16173 0.0
C1826 C 0.39711 0.55076 0.06189 0.0
C1827 C 0.42625 0.58262 0.04909 0.0
C1828 C 0.38207 0.55391 0.0872 0.0
C1829 C 0.39612 0.58989 0.0997 0.0
C1830 C 0.42357 0.62282 0.08533 0.0
C1831 C 0.43852 0.61873 0.06038 0.0
C1832 C 0.3526 0.5182 0.1017 0.0
C1833 C 0.43853 0.66196 0.09738 0.0
H1834 H 0.32169 0.61574 0.15463 0.0
H1835 H 0.41181 0.58761 0.20937 0.0
H1836 H 0.34573 0.64007 0.0856 0.0
H1837 H 0.32774 0.5897 0.07983 0.0
H1838 H 0.30325 0.60671 0.09988 0.0
H1839 H 0.44907 0.56877 0.18675 0.0
H1840 H 0.42853 0.54809 0.14998 0.0
H1841 H 0.45942 0.59821 0.1494 0.0
H1842 H 0.38759 0.52265 0.05351 0.0
H1843 H 0.46086 0.64352 0.05051 0.0
H1844 H 0.32868 0.52483 0.10369 0.0
H1845 H 0.36405 0.50921 0.12603 0.0
H1846 H 0.34247 0.4933 0.08768 0.0
H1847 H 0.41533 0.67013 0.09875 0.0
H1848 H 0.45757 0.68534 0.08205 0.0
H1849 H 0.45383 0.66028 0.12168 0.0
C1850 C 0.39911 0.3198 0.20752 0.0
C1851 C 0.36174 0.29813 0.19677 0.0
C1852 C 0.424 0.34162 0.18596 0.0
C1853 C 0.41096 0.34125 0.15316 0.0
C1854 C 0.37452 0.31577 0.14242 0.0
C1855 C 0.3503 0.29445 0.16443 0.0
C1856 C 0.46302 0.36767 0.19824 0.0
C1857 C 0.35985 0.31396 0.10754 0.0
C1858 C 0.43819 0.43284 0.09625 0.0
C1859 C 0.45877 0.42549 0.07781 0.0
C1860 C 0.42476 0.40675 0.12245 0.0
C1861 C 0.43192 0.37235 0.13011 0.0
C1862 C 0.45435 0.36574 0.11256 0.0
C1863 C 0.46755 0.39258 0.08641 0.0
C1864 C 0.40097 0.41489 0.14069 0.0
C1865 C 0.463 0.32966 0.12058 0.0
H1866 H 0.4085 0.32147 0.23264 0.0
H1867 H 0.32176 0.27685 0.15595 0.0
H1868 H 0.48318 0.3691 0.1835 0.0
H1869 H 0.46447 0.39765 0.19724 0.0
H1870 H 0.4715 0.35758 0.22323 0.0
H1871 H 0.33285 0.289 0.10334 0.0
H1872 H 0.35586 0.34124 0.09704 0.0
H1873 H 0.37997 0.31146 0.09487 0.0
H1874 H 0.43191 0.45871 0.08973 0.0
H1875 H 0.48289 0.38669 0.07179 0.0
H1876 H 0.41102 0.41199 0.16645 0.0
H1877 H 0.37196 0.39326 0.13681 0.0
H1878 H 0.40083 0.44452 0.13335 0.0
H1879 H 0.43712 0.3031 0.12203 0.0
H1880 H 0.48032 0.33032 0.14417 0.0
H1881 H 0.47809 0.32724 0.10287 0.0
C1882 C 0.81446 0.63602 0.60337 0.0
C1883 C 0.79776 0.60803 0.62767 0.0
C1884 C 0.83698 0.62969 0.58591 0.0
C1885 C 0.84378 0.595 0.59355 0.0
C1886 C 0.82766 0.56712 0.61869 0.0
C1887 C 0.80444 0.57374 0.63513 0.0
C1888 C 0.85282 0.65973 0.55883 0.0
C1889 C 0.83504 0.53033 0.62831 0.0
C1890 C 0.87305 0.55765 0.53249 0.0
C1891 C 0.91173 0.57177 0.54092 0.0
C1892 C 0.85074 0.56576 0.54893 0.0
C1893 C 0.86734 0.58757 0.57505 0.0
C1894 C 0.90637 0.60168 0.58377 0.0
C1895 C 0.92808 0.59405 0.56638 0.0
C1896 C 0.80938 0.55103 0.53829 0.0
C1897 C 0.9252 0.62425 0.61185 0.0
H1898 H 0.80905 0.66241 0.59749 0.0
H1899 H 0.79165 0.5522 0.65406 0.0
H1900 H 0.88356 0.67076 0.56296 0.0
H1901 H 0.84328 0.64616 0.53649 0.0
H1902 H 0.84451 0.68485 0.55563 0.0
H1903 H 0.82066 0.51171 0.64851 0.0
H1904 H 0.82579 0.51314 0.60802 0.0
H1905 H 0.8653 0.53785 0.6351 0.0
H1906 H 0.86023 0.54069 0.51272 0.0
H1907 H 0.95792 0.60481 0.57323 0.0
H1908 H 0.80012 0.57559 0.53361 0.0
H1909 H 0.79456 0.53004 0.55734 0.0
H1910 H 0.80102 0.53642 0.51652 0.0
H1911 H 0.91935 0.65093 0.60842 0.0
H1912 H 0.95578 0.63291 0.61572 0.0
H1913 H 0.91398 0.60635 0.63359 0.0
C1914 C 0.38836 0.85682 0.72022 0.0
C1915 C 0.35247 0.83035 0.7105 0.0
C1916 C 0.41355 0.8778 0.69825 0.0
C1917 C 0.40254 0.87244 0.66567 0.0
C1918 C 0.3667 0.84467 0.6561 0.0
C1919 C 0.34202 0.82481 0.67837 0.0
C1920 C 0.45132 0.90704 0.70964 0.0
C1921 C 0.35363 0.83698 0.62197 0.0
C1922 C 0.43619 0.9552 0.59984 0.0
C1923 C 0.46053 0.94536 0.58749 0.0
C1924 C 0.419 0.93296 0.62623 0.0
C1925 C 0.42575 0.89939 0.64088 0.0
C1926 C 0.45188 0.89037 0.62962 0.0
C1927 C 0.46905 0.91353 0.60312 0.0
C1928 C 0.39216 0.94455 0.6375 0.0
C1929 C 0.46018 0.85502 0.64412 0.0
H1930 H 0.39641 0.86185 0.7449 0.0
H1931 H 0.3142 0.80518 0.67037 0.0
H1932 H 0.45298 0.93691 0.70009 0.0
H1933 H 0.45723 0.90497 0.73591 0.0
H1934 H 0.4732 0.90269 0.70073 0.0
H1935 H 0.32796 0.81015 0.61935 0.0
H1936 H 0.3478 0.86197 0.60782 0.0
H1937 H 0.37547 0.83397 0.61191 0.0
H1938 H 0.42974 0.98006 0.58827 0.0
H1939 H 0.48765 0.90553 0.59374 0.0
H1940 H 0.39876 0.94557 0.66348 0.0
H1941 H 0.36353 0.92249 0.63258 0.0
H1942 H 0.39268 0.9734 0.62566 0.0
H1943 H 0.45961 0.84941 0.67004 0.0
H1944 H 0.48768 0.8582 0.63962 0.0
H1945 H 0.43875 0.82928 0.63324 0.0
C1946 C 0.17302 0.27461 0.68401 0.0
C1947 C 0.20883 0.28946 0.70128 0.0
C1948 C 0.15652 0.29914 0.66442 0.0
C1949 C 0.17609 0.34019 0.66134 0.0
C1950 C 0.2126 0.35548 0.67835 0.0
C1951 C 0.22813 0.33015 0.69859 0.0
C1952 C 0.11798 0.28091 0.64667 0.0
C1953 C 0.23544 0.39867 0.67492 0.0
C1954 C 0.14271 0.39609 0.58595 0.0
C1955 C 0.12044 0.41021 0.59668 0.0
C1956 C 0.16141 0.37436 0.60657 0.0
C1957 C 0.15851 0.3664 0.63942 0.0
C1958 C 0.13644 0.38128 0.65059 0.0
C1959 C 0.11768 0.40292 0.62917 0.0
C1960 C 0.18472 0.36071 0.59266 0.0
C1961 C 0.13176 0.37332 0.6851 0.0
H1962 H 0.15753 0.24333 0.68609 0.0
H1963 H 0.25528 0.34222 0.71243 0.0
H1964 H 0.09949 0.29329 0.65215 0.0
H1965 H 0.11896 0.28776 0.62078 0.0
H1966 H 0.10561 0.24875 0.6526 0.0
H1967 H 0.26338 0.40617 0.6893 0.0
H1968 H 0.23888 0.40935 0.64967 0.0
H1969 H 0.22083 0.41424 0.68221 0.0
H1970 H 0.14512 0.40167 0.5609 0.0
H1971 H 0.1003 0.41336 0.63772 0.0
H1972 H 0.18502 0.33245 0.60505 0.0
H1973 H 0.21347 0.38301 0.59487 0.0
H1974 H 0.17486 0.3577 0.56708 0.0
H1975 H 0.1153 0.38818 0.69051 0.0
H1976 H 0.15933 0.38308 0.70004 0.0
H1977 H 0.11761 0.34149 0.69176 0.0
C1978 C 0.69801 0.20617 0.65413 0.0
C1979 C 0.73389 0.21268 0.66967 0.0
C1980 C 0.68347 0.18455 0.62831 0.0
C1981 C 0.70577 0.16981 0.6176 0.0
C1982 C 0.74279 0.17812 0.63237 0.0
C1983 C 0.75625 0.19903 0.65863 0.0
C1984 C 0.6437 0.17609 0.61336 0.0
C1985 C 0.76775 0.16395 0.62118 0.0
C1986 C 0.64488 0.08117 0.57654 0.0
C1987 C 0.63832 0.09884 0.54574 0.0
C1988 C 0.66982 0.10351 0.60003 0.0
C1989 C 0.68912 0.14405 0.59209 0.0
C1990 C 0.6867 0.16061 0.56005 0.0
C1991 C 0.66094 0.13783 0.53721 0.0
C1992 C 0.67181 0.0846 0.63391 0.0
C1993 C 0.70819 0.20332 0.55041 0.0
H1994 H 0.68071 0.21626 0.66316 0.0
H1995 H 0.78417 0.20437 0.6708 0.0
H1996 H 0.64244 0.18661 0.58767 0.0
H1997 H 0.62734 0.14416 0.61585 0.0
H1998 H 0.63035 0.19007 0.62431 0.0
H1999 H 0.7973 0.17867 0.63135 0.0
H2000 H 0.75915 0.13216 0.62843 0.0
H2001 H 0.76543 0.16884 0.59495 0.0
H2002 H 0.62753 0.05099 0.58323 0.0
H2003 H 0.65627 0.15139 0.51323 0.0
H2004 H 0.65601 0.09334 0.647 0.0
H2005 H 0.70088 0.0944 0.64596 0.0
H2006 H 0.65986 0.0523 0.63547 0.0
H2007 H 0.69442 0.22062 0.5564 0.0
H2008 H 0.70949 0.20966 0.52454 0.0
H2009 H 0.73688 0.21315 0.5634 0.0
C2010 C 0.80393 0.28392 0.36532 0.0
C2011 C 0.82684 0.28274 0.34543 0.0
C2012 C 0.81914 0.30275 0.39254 0.0
C2013 C 0.85807 0.32079 0.39976 0.0
C2014 C 0.88128 0.31667 0.3813 0.0
C2015 C 0.86527 0.29745 0.35428 0.0
C2016 C 0.79342 0.3055 0.41206 0.0
C2017 C 0.92309 0.33464 0.38892 0.0
C2018 C 0.9117 0.41374 0.43573 0.0
C2019 C 0.92957 0.39983 0.4635 0.0
C2020 C 0.88441 0.38758 0.41594 0.0
C2021 C 0.87515 0.34707 0.42459 0.0
C2022 C 0.88883 0.33307 0.45493 0.0
C2023 C 0.916 0.35981 0.4742 0.0
C2024 C 0.86923 0.40339 0.38406 0.0
C2025 C 0.87848 0.29003 0.46538 0.0
H2026 H 0.77403 0.27165 0.35895 0.0
H2027 H 0.88292 0.29593 0.33918 0.0
H2028 H 0.80496 0.30513 0.43759 0.0
H2029 H 0.7896 0.3333 0.40403 0.0
H2030 H 0.76567 0.28127 0.40918 0.0
H2031 H 0.93696 0.32752 0.37278 0.0
H2032 H 0.93278 0.3668 0.38698 0.0
H2033 H 0.93208 0.32425 0.41362 0.0
H2034 H 0.92184 0.44473 0.4277 0.0
H2035 H 0.9292 0.34914 0.49624 0.0
H2036 H 0.8389 0.3868 0.37862 0.0
H2037 H 0.88252 0.40012 0.36538 0.0
H2038 H 0.87467 0.43471 0.38296 0.0
H2039 H 0.84873 0.27311 0.45733 0.0
H2040 H 0.88418 0.28386 0.49156 0.0
H2041 H 0.89508 0.2796 0.45472 0.0
C2042 C 0.66063 0.81231 0.38177 0.0
C2043 C 0.67468 0.78555 0.40036 0.0
C2044 C 0.6523 0.83739 0.39574 0.0
C2045 C 0.65787 0.83551 0.42915 0.0
C2046 C 0.67342 0.80969 0.44804 0.0
C2047 C 0.68165 0.785 0.43341 0.0
C2048 C 0.63571 0.86449 0.37478 0.0
C2049 C 0.67981 0.8069 0.48375 0.0
C2050 C 0.65041 0.91502 0.46542 0.0
C2051 C 0.61342 0.89748 0.47122 0.0
C2052 C 0.66557 0.89517 0.45195 0.0
C2053 C 0.64321 0.85696 0.44426 0.0
C2054 C 0.60603 0.83908 0.45031 0.0
C2055 C 0.59164 0.85951 0.46362 0.0
C2056 C 0.70532 0.9151 0.4457 0.0
C2057 C 0.58126 0.79832 0.44253 0.0
H2058 H 0.65482 0.81268 0.35624 0.0
H2059 H 0.69315 0.76491 0.44788 0.0
H2060 H 0.60621 0.85455 0.37788 0.0
H2061 H 0.65036 0.89442 0.38159 0.0
H2062 H 0.63701 0.86558 0.34932 0.0
H2063 H 0.69561 0.78843 0.49483 0.0
H2064 H 0.69514 0.8363 0.49152 0.0
H2065 H 0.6527 0.79423 0.49272 0.0
H2066 H 0.66748 0.94429 0.47122 0.0
H2067 H 0.5631 0.84547 0.46813 0.0
H2068 H 0.70629 0.91804 0.41998 0.0
H2069 H 0.72121 0.89718 0.45799 0.0
H2070 H 0.71928 0.94451 0.4537 0.0
H2071 H 0.57824 0.79717 0.41675 0.0
H2072 H 0.55315 0.78837 0.44924 0.0
H2073 H 0.59397 0.77753 0.45506 0.0
C2074 C 0.16572 0.66547 0.28583 0.0
C2075 C 0.20394 0.68699 0.29324 0.0
C2076 C 0.14359 0.64327 0.30959 0.0
C2077 C 0.15989 0.64253 0.34183 0.0
C2078 C 0.1987 0.6636 0.34941 0.0
C2079 C 0.22011 0.68587 0.32513 0.0
C2080 C 0.10266 0.62067 0.30019 0.0
C2081 C 0.21761 0.66299 0.38326 0.0
C2082 C 0.1001 0.61415 0.40836 0.0
C2083 C 0.09719 0.5759 0.41903 0.0
C2084 C 0.11958 0.63592 0.3827 0.0
C2085 C 0.13652 0.61902 0.36746 0.0
C2086 C 0.13192 0.57973 0.37741 0.0
C2087 C 0.11268 0.55894 0.40306 0.0
C2088 C 0.12355 0.6776 0.37285 0.0
C2089 C 0.14936 0.56008 0.36254 0.0
H2090 H 0.15293 0.66648 0.26127 0.0
H2091 H 0.24935 0.70303 0.33127 0.0
H2092 H 0.09556 0.5892 0.30833 0.0
H2093 H 0.08629 0.63025 0.31191 0.0
H2094 H 0.0941 0.62438 0.27416 0.0
H2095 H 0.2479 0.68098 0.38529 0.0
H2096 H 0.20498 0.67392 0.39771 0.0
H2097 H 0.21354 0.63263 0.39349 0.0
H2098 H 0.08899 0.62771 0.42112 0.0
H2099 H 0.11114 0.5296 0.41167 0.0
H2100 H 0.11456 0.68232 0.347 0.0
H2101 H 0.15317 0.69736 0.37768 0.0
H2102 H 0.10704 0.68581 0.38563 0.0
H2103 H 0.1473 0.56816 0.33649 0.0
H2104 H 0.13636 0.52784 0.36759 0.0
H2105 H 0.17916 0.56961 0.37258 0.0
C2106 C 0.32175 0.17461 0.33527 0.0
C2107 C 0.3298 0.20059 0.30748 0.0
C2108 C 0.34764 0.15979 0.3538 0.0
C2109 C 0.38205 0.16893 0.34351 0.0
C2110 C 0.39042 0.19532 0.31536 0.0
C2111 C 0.36454 0.21123 0.29801 0.0
C2112 C 0.33772 0.13374 0.38429 0.0
C2113 C 0.42591 0.20518 0.30259 0.0
C2114 C 0.45971 0.15054 0.40494 0.0
C2115 C 0.45343 0.11178 0.40245 0.0
C2116 C 0.43744 0.16958 0.38571 0.0
C2117 C 0.4086 0.15033 0.36213 0.0
C2118 C 0.40345 0.11195 0.35825 0.0
C2119 C 0.42513 0.09291 0.37883 0.0
C2120 C 0.44321 0.20942 0.39224 0.0
C2121 C 0.37423 0.09046 0.33284 0.0
H2122 H 0.29477 0.16566 0.34252 0.0
H2123 H 0.37063 0.23019 0.27604 0.0
H2124 H 0.33355 0.10363 0.38188 0.0
H2125 H 0.36073 0.1439 0.40395 0.0
H2126 H 0.312 0.13294 0.39082 0.0
H2127 H 0.42917 0.22716 0.28125 0.0
H2128 H 0.45024 0.21648 0.32091 0.0
H2129 H 0.42613 0.17834 0.29629 0.0
H2130 H 0.48069 0.16536 0.42351 0.0
H2131 H 0.41955 0.06298 0.37668 0.0
H2132 H 0.41877 0.20728 0.40191 0.0
H2133 H 0.44549 0.22987 0.37006 0.0
H2134 H 0.46844 0.2219 0.40953 0.0
H2135 H 0.34627 0.08197 0.33924 0.0
H2136 H 0.37724 0.06369 0.3296 0.0
H2137 H 0.37577 0.1096 0.30992 0.0
C2138 C 0.69688 0.8035 0.7071 0.0
C2139 C 0.73232 0.81534 0.69863 0.0
C2140 C 0.67091 0.81907 0.68935 0.0
C2141 C 0.67991 0.84636 0.66174 0.0
C2142 C 0.71512 0.85678 0.65244 0.0
C2143 C 0.74103 0.84226 0.67141 0.0
C2144 C 0.63456 0.80787 0.70114 0.0
C2145 C 0.72584 0.88386 0.62256 0.0
C2146 C 0.60271 0.86391 0.59902 0.0
C2147 C 0.60772 0.90213 0.60196 0.0
C2148 C 0.62533 0.84536 0.61843 0.0
C2149 C 0.65315 0.8645 0.64267 0.0
C2150 C 0.65703 0.90232 0.64691 0.0
C2151 C 0.63511 0.92096 0.62613 0.0
C2152 C 0.62103 0.80624 0.61142 0.0
C2153 C 0.68507 0.92364 0.67301 0.0
H2154 H 0.69023 0.7838 0.72865 0.0
H2155 H 0.76854 0.85217 0.66494 0.0
H2156 H 0.63316 0.83413 0.70741 0.0
H2157 H 0.61097 0.7964 0.68226 0.0
H2158 H 0.63105 0.78558 0.72228 0.0
H2159 H 0.75216 0.88546 0.6166 0.0
H2160 H 0.70356 0.87406 0.60232 0.0
H2161 H 0.72936 0.9136 0.62543 0.0
H2162 H 0.5825 0.84921 0.58 0.0
H2163 H 0.63973 0.95052 0.62862 0.0
H2164 H 0.61827 0.78523 0.63328 0.0
H2165 H 0.64631 0.8095 0.60246 0.0
H2166 H 0.59659 0.79379 0.59341 0.0
H2167 H 0.68335 0.90399 0.69567 0.0
H2168 H 0.6809 0.94966 0.67648 0.0
H2169 H 0.71347 0.93332 0.66717 0.0
C2170 C 0.71451 0.18679 0.32552 0.0
C2171 C 0.70487 0.18112 0.29338 0.0
C2172 C 0.68907 0.16741 0.34724 0.0
C2173 C 0.65355 0.13941 0.3373 0.0
C2174 C 0.64331 0.13389 0.30474 0.0
C2175 C 0.66909 0.15472 0.28321 0.0
C2176 C 0.7005 0.17655 0.38109 0.0
C2177 C 0.60553 0.10508 0.29284 0.0
C2178 C 0.62059 0.05671 0.40318 0.0
C2179 C 0.59724 0.06711 0.41633 0.0
C2180 C 0.63684 0.0785 0.37626 0.0
C2181 C 0.63018 0.11224 0.36191 0.0
C2182 C 0.60474 0.1216 0.37383 0.0
C2183 C 0.5885 0.09888 0.40087 0.0
C2184 C 0.66258 0.06625 0.36404 0.0
C2185 C 0.59592 0.15664 0.35927 0.0
H2186 H 0.7423 0.20602 0.33402 0.0
H2187 H 0.66157 0.14966 0.25855 0.0
H2188 H 0.68167 0.18828 0.38685 0.0
H2189 H 0.69786 0.14965 0.39765 0.0
H2190 H 0.72945 0.1983 0.38533 0.0
H2191 H 0.59993 0.10778 0.26654 0.0
H2192 H 0.60358 0.07503 0.30191 0.0
H2193 H 0.58361 0.10932 0.30181 0.0
H2194 H 0.62699 0.03175 0.41454 0.0
H2195 H 0.57044 0.10715 0.41073 0.0
H2196 H 0.6909 0.08943 0.36582 0.0
H2197 H 0.65311 0.06216 0.33864 0.0
H2198 H 0.66415 0.03877 0.37733 0.0
H2199 H 0.61647 0.18241 0.37064 0.0
H2200 H 0.56793 0.15256 0.36325 0.0
H2201 H 0.59718 0.16282 0.33344 0.0
C2202 C 0.87535 0.72955 0.33056 0.0
C2203 C 0.84772 0.71801 0.30445 0.0
C2204 C 0.89024 0.70357 0.35008 0.0
C2205 C 0.88033 0.66572 0.34177 0.0
C2206 C 0.85317 0.65437 0.31455 0.0
C2207 C 0.83646 0.68006 0.29696 0.0
C2208 C 0.91664 0.71733 0.37964 0.0
C2209 C 0.8419 0.61528 0.30347 0.0
C2210 C 0.95562 0.62592 0.38233 0.0
C2211 C 0.93677 0.59405 0.40339 0.0
C2212 C 0.93705 0.64739 0.36067 0.0
C2213 C 0.89889 0.63887 0.36122 0.0
C2214 C 0.87969 0.60603 0.38217 0.0
C2215 C 0.89855 0.58387 0.40223 0.0
C2216 C 0.95915 0.67966 0.3377 0.0
C2217 C 0.8396 0.59446 0.38543 0.0
H2218 H 0.88475 0.75899 0.33633 0.0
H2219 H 0.81593 0.67109 0.27631 0.0
H2220 H 0.91607 0.69286 0.39849 0.0
H2221 H 0.94526 0.73288 0.37374 0.0
H2222 H 0.90984 0.73823 0.38924 0.0
H2223 H 0.83036 0.6156 0.27789 0.0
H2224 H 0.86571 0.60631 0.30748 0.0
H2225 H 0.82001 0.59299 0.31688 0.0
H2226 H 0.98515 0.63438 0.38289 0.0
H2227 H 0.88358 0.55986 0.41872 0.0
H2228 H 0.97604 0.70584 0.34998 0.0
H2229 H 0.94129 0.6875 0.31671 0.0
H2230 H 0.97881 0.67106 0.32939 0.0
H2231 H 0.82646 0.61296 0.36946 0.0
H2232 H 0.83751 0.59575 0.41023 0.0
H2233 H 0.82351 0.56378 0.38064 0.0
C2234 C 0.36104 0.80469 0.35372 0.0
C2235 C 0.32542 0.79837 0.33764 0.0
C2236 C 0.37525 0.82666 0.37932 0.0
C2237 C 0.35286 0.84196 0.38923 0.0
C2238 C 0.31603 0.83377 0.37397 0.0
C2239 C 0.30294 0.81251 0.34793 0.0
C2240 C 0.41485 0.83502 0.39477 0.0
C2241 C 0.29089 0.84853 0.38422 0.0
C2242 C 0.39809 0.8756 0.46891 0.0
C2243 C 0.42105 0.91425 0.45977 0.0
C2244 C 0.37184 0.85252 0.44648 0.0
C2245 C 0.36941 0.86838 0.41425 0.0
C2246 C 0.38905 0.90872 0.40571 0.0
C2247 C 0.41439 0.93142 0.4288 0.0
C2248 C 0.34984 0.81013 0.45673 0.0
C2249 C 0.38704 0.92688 0.37161 0.0
H2250 H 0.37847 0.7943 0.34523 0.0
H2251 H 0.27523 0.80735 0.33531 0.0
H2252 H 0.43139 0.8669 0.39203 0.0
H2253 H 0.41572 0.82488 0.42051 0.0
H2254 H 0.42828 0.82061 0.38438 0.0
H2255 H 0.26124 0.83216 0.37526 0.0
H2256 H 0.2943 0.84638 0.41043 0.0
H2257 H 0.29815 0.87965 0.3747 0.0
H2258 H 0.40283 0.86247 0.49303 0.0
H2259 H 0.43199 0.96136 0.42168 0.0
H2260 H 0.36314 0.79212 0.45117 0.0
H2261 H 0.32113 0.80052 0.44379 0.0
H2262 H 0.34864 0.80453 0.4826 0.0
H2263 H 0.40234 0.91725 0.35873 0.0
H2264 H 0.39948 0.95922 0.36953 0.0
H2265 H 0.3579 0.91734 0.35974 0.0
C2266 C 0.26213 0.445 0.37167 0.0
C2267 C 0.26683 0.40966 0.37681 0.0
C2268 C 0.23818 0.45063 0.38797 0.0
C2269 C 0.21919 0.42056 0.41064 0.0
C2270 C 0.22402 0.38483 0.41602 0.0
C2271 C 0.2474 0.37964 0.39873 0.0
C2272 C 0.23307 0.4887 0.38079 0.0
C2273 C 0.2049 0.35228 0.44035 0.0
C2274 C 0.18552 0.45107 0.47312 0.0
C2275 C 0.14743 0.43954 0.46206 0.0
C2276 C 0.20901 0.44432 0.45703 0.0
C2277 C 0.19431 0.42658 0.42867 0.0
C2278 C 0.15591 0.41524 0.41726 0.0
C2279 C 0.1329 0.42137 0.43429 0.0
C2280 C 0.24959 0.45612 0.47041 0.0
C2281 C 0.1392 0.3972 0.38675 0.0
H2282 H 0.27687 0.46812 0.3545 0.0
H2283 H 0.25118 0.35237 0.40285 0.0
H2284 H 0.20333 0.48324 0.37272 0.0
H2285 H 0.24152 0.50314 0.40261 0.0
H2286 H 0.24948 0.50896 0.36224 0.0
H2287 H 0.21192 0.32653 0.44201 0.0
H2288 H 0.21296 0.36275 0.46397 0.0
H2289 H 0.17437 0.343 0.43434 0.0
H2290 H 0.19689 0.46488 0.49467 0.0
H2291 H 0.10356 0.41271 0.42541 0.0
H2292 H 0.26685 0.47867 0.45346 0.0
H2293 H 0.25745 0.4307 0.47385 0.0
H2294 H 0.25636 0.46786 0.49343 0.0
H2295 H 0.15308 0.41743 0.36691 0.0
H2296 H 0.10892 0.39025 0.38096 0.0
H2297 H 0.1438 0.37003 0.38838 0.0
C2298 C 0.39527 0.19605 0.6232 0.0
C2299 C 0.38289 0.22427 0.60504 0.0
C2300 C 0.40353 0.17133 0.60873 0.0
C2301 C 0.39952 0.17508 0.57528 0.0
C2302 C 0.38538 0.20223 0.55677 0.0
C2303 C 0.37725 0.22655 0.57189 0.0
C2304 C 0.4186 0.14278 0.62929 0.0
C2305 C 0.38061 0.20694 0.52102 0.0
C2306 C 0.46713 0.1521 0.54188 0.0
C2307 C 0.44526 0.11483 0.53282 0.0
C2308 C 0.45232 0.17201 0.55533 0.0
C2309 C 0.41464 0.1543 0.55996 0.0
C2310 C 0.39219 0.11684 0.55073 0.0
C2311 C 0.40778 0.09749 0.53722 0.0
C2312 C 0.47721 0.21197 0.56483 0.0
C2313 C 0.35189 0.09716 0.55539 0.0
H2314 H 0.40003 0.19434 0.64882 0.0
H2315 H 0.36704 0.24783 0.55775 0.0
H2316 H 0.40392 0.11351 0.62119 0.0
H2317 H 0.4484 0.15245 0.62731 0.0
H2318 H 0.41593 0.14024 0.65463 0.0
H2319 H 0.36534 0.22598 0.51013 0.0
H2320 H 0.40828 0.21996 0.51302 0.0
H2321 H 0.36548 0.17817 0.51209 0.0
H2322 H 0.49606 0.16596 0.53851 0.0
H2323 H 0.39065 0.06876 0.53026 0.0
H2324 H 0.47897 0.21172 0.59068 0.0
H2325 H 0.46537 0.23357 0.55256 0.0
H2326 H 0.50577 0.22188 0.55912 0.0
H2327 H 0.3496 0.09283 0.58097 0.0
H2328 H 0.33794 0.06843 0.54621 0.0
H2329 H 0.33683 0.11596 0.54323 0.0
C2330 C 0.89545 0.34149 0.72079 0.0
C2331 C 0.85696 0.32098 0.71398 0.0
C2332 C 0.91709 0.3636 0.69668 0.0
C2333 C 0.90001 0.36521 0.6647 0.0
C2334 C 0.86098 0.34508 0.65773 0.0
C2335 C 0.84006 0.32294 0.68234 0.0
C2336 C 0.95831 0.38529 0.70543 0.0
C2337 C 0.84125 0.34667 0.62421 0.0
C2338 C 0.94643 0.44871 0.60304 0.0
C2339 C 0.96051 0.43131 0.58614 0.0
C2340 C 0.92806 0.42813 0.62921 0.0
C2341 C 0.92279 0.38857 0.63866 0.0
C2342 C 0.93827 0.37119 0.62239 0.0
C2343 C 0.95699 0.39279 0.59629 0.0
C2344 C 0.91215 0.44833 0.64514 0.0
C2345 C 0.93347 0.3292 0.6316 0.0
H2346 H 0.90879 0.33986 0.74515 0.0
H2347 H 0.8106 0.30661 0.67662 0.0
H2348 H 0.97373 0.37548 0.69285 0.0
H2349 H 0.9659 0.41693 0.69779 0.0
H2350 H 0.9675 0.38097 0.73132 0.0
H2351 H 0.81093 0.32902 0.62263 0.0
H2352 H 0.84555 0.37727 0.61468 0.0
H2353 H 0.85307 0.33594 0.60888 0.0
H2354 H 0.94841 0.47827 0.59484 0.0
H2355 H 0.96699 0.37891 0.58281 0.0
H2356 H 0.91375 0.4391 0.67104 0.0
H2357 H 0.88255 0.44066 0.63492 0.0
H2358 H 0.92661 0.48053 0.64106 0.0
H2359 H 0.9432 0.32407 0.65726 0.0
H2360 H 0.94888 0.32058 0.61799 0.0
H2361 H 0.90358 0.31006 0.62735 0.0
C2362 C 0.19036 0.70283 0.6559 0.0
C2363 C 0.22889 0.72114 0.66271 0.0
C2364 C 0.17415 0.68257 0.62942 0.0
C2365 C 0.19722 0.68075 0.60955 0.0
C2366 C 0.23605 0.70093 0.61545 0.0
C2367 C 0.25144 0.72101 0.642 0.0
C2368 C 0.1324 0.66212 0.62326 0.0
C2369 C 0.26154 0.69979 0.59483 0.0
C2370 C 0.14432 0.59103 0.56895 0.0
C2371 C 0.12632 0.60643 0.54209 0.0
C2372 C 0.17144 0.6158 0.58985 0.0
C2373 C 0.18016 0.65638 0.58341 0.0
C2374 C 0.16619 0.67217 0.55397 0.0
C2375 C 0.13953 0.64685 0.53342 0.0
C2376 C 0.18712 0.5982 0.62059 0.0
C2377 C 0.17558 0.71533 0.54586 0.0
H2378 H 0.17296 0.70322 0.67178 0.0
H2379 H 0.28134 0.73572 0.64698 0.0
H2380 H 0.12167 0.67403 0.59975 0.0
H2381 H 0.12441 0.63056 0.62276 0.0
H2382 H 0.11861 0.66545 0.64155 0.0
H2383 H 0.28951 0.72356 0.59833 0.0
H2384 H 0.26483 0.67156 0.60101 0.0
H2385 H 0.24987 0.70207 0.56938 0.0
H2386 H 0.13464 0.55975 0.5754 0.0
H2387 H 0.1264 0.6588 0.51202 0.0
H2388 H 0.17311 0.59839 0.64003 0.0
H2389 H 0.21722 0.61556 0.6266 0.0
H2390 H 0.1829 0.56764 0.61954 0.0
H2391 H 0.15868 0.72363 0.55807 0.0
H2392 H 0.1694 0.72343 0.51997 0.0
H2393 H 0.20527 0.73238 0.55392 0.0
loop_
_geom_bond_atom_site_label_1
_geom_bond_atom_site_label_2
_geom_bond_distance
_geom_bond_site_symmetry_2
_ccdc_geom_bond_type
Tb0 N31 2.660 . S
Tb0 N38 2.600 . S
Tb0 O44 2.546 . S
Tb0 O45 2.610 . S
Tb0 O47 2.320 . S
Tb0 O48 2.552 . S
Tb0 O49 2.413 . S
Tb0 O51 2.362 . S
Tb0 O52 2.421 . S
Tb0 C64 2.833 . S
C1 C4 1.432 . S
C1 C5 1.414 . S
C1 N8 1.359 . S
C2 C4 1.417 . S
C2 C6 1.432 . S
C2 C14 1.410 . S
C3 C5 1.444 . S
C3 C6 1.317 . S
C3 H26 0.929 . S
C4 C1 1.432 . S
C4 C2 1.417 . S
C4 N12 1.360 . S
C5 C1 1.414 . S
C5 C3 1.444 . S
C5 C10 1.385 . S
C6 C2 1.432 . S
C6 C3 1.317 . S
C6 H18 0.930 . S
C7 C9 1.392 . S
C7 C10 1.370 . S
C7 H19 0.931 . S
N8 C1 1.359 . S
N8 C9 1.327 . S
N8 Tb11 2.600 . S
C9 C7 1.392 . S
C9 N8 1.327 . S
C9 H16 0.930 . S
C10 C5 1.385 . S
C10 C7 1.370 . S
C10 H29 0.930 . S
Tb11 N8 2.600 . S
Tb11 N12 2.660 . S
Tb11 O45 2.362 . S
Tb11 O46 2.421 . S
Tb11 O50 2.546 . S
Tb11 O51 2.610 . S
Tb11 O53 2.320 . S
Tb11 O54 2.552 . S
Tb11 O55 2.413 . S
Tb11 C75 2.833 . S
N12 C4 1.360 . S
N12 Tb11 2.660 . S
N12 C13 1.305 . S
C13 N12 1.305 . S
C13 C15 1.407 . S
C13 H20 0.930 . S
C14 C2 1.410 . S
C14 C15 1.345 . S
C14 H22 0.930 . S
C15 C13 1.407 . S
C15 C14 1.345 . S
C15 H17 0.930 . S
H16 C9 0.930 . S
H17 C15 0.930 . S
H18 C6 0.930 . S
H19 C7 0.931 . S
H20 C13 0.930 . S
H21 C35 0.930 . S
H22 C14 0.930 . S
H23 C41 0.930 . S
H24 C32 0.930 . S
H25 C39 0.931 . S
H26 C3 0.929 . S
H27 C33 0.930 . S
H28 C66 0.930 . S
H29 C10 0.930 . S
H30 C65 0.929 . S
N31 Tb0 2.660 . S
N31 C32 1.305 . S
N31 C36 1.360 . S
C32 H24 0.930 . S
C32 N31 1.305 . S
C32 C35 1.407 . S
C33 H27 0.930 . S
C33 C34 1.410 . S
C33 C35 1.345 . S
C34 C33 1.410 . S
C34 C36 1.417 . S
C34 C66 1.432 . S
C35 H21 0.930 . S
C35 C32 1.407 . S
C35 C33 1.345 . S
C36 N31 1.360 . S
C36 C34 1.417 . S
C36 C40 1.432 . S
H37 C42 0.930 . S
N38 Tb0 2.600 . S
N38 C40 1.359 . S
N38 C41 1.327 . S
C39 H25 0.931 . S
C39 C41 1.392 . S
C39 C42 1.370 . S
C40 C36 1.432 . S
C40 N38 1.359 . S
C40 C43 1.414 . S
C41 H23 0.930 . S
C41 N38 1.327 . S
C41 C39 1.392 . S
C42 H37 0.930 . S
C42 C39 1.370 . S
C42 C43 1.385 . S
C43 C40 1.414 . S
C43 C42 1.385 . S
C43 C65 1.444 . S
O44 Tb0 2.546 . S
O44 C64 1.251 . S
O45 Tb0 2.610 . S
O45 Tb11 2.362 . S
O45 C56 1.283 . S
O46 Tb11 2.421 . S
O46 C63 1.262 . S
O47 Tb0 2.320 . S
O47 C63 1.260 . S
O48 Tb0 2.552 . S
O48 C56 1.243 . S
O49 Tb0 2.413 . S
O49 C64 1.256 . S
O50 Tb11 2.546 . S
O50 C75 1.251 . S
O51 Tb0 2.362 . S
O51 Tb11 2.610 . S
O51 C67 1.283 . S
O52 Tb0 2.421 . S
O52 C74 1.262 . S
O53 Tb11 2.320 . S
O53 C74 1.260 . S
O54 Tb11 2.552 . S
O54 C67 1.243 . S
O55 Tb11 2.413 . S
O55 C75 1.256 . S
C56 O45 1.283 . S
C56 O48 1.243 . S
C57 C59 1.382 . S
C57 C61 1.393 . S
C57 C64 1.500 . S
C58 C59 1.400 . S
C58 C60 1.384 . S
C59 C57 1.382 . S
C59 C58 1.400 . S
C59 H76 0.930 . S
C60 C58 1.384 . S
C60 C62 1.392 . S
C60 H77 0.931 . S
C61 C57 1.393 . S
C61 C62 1.401 . S
C61 H78 0.930 . S
C62 C60 1.392 . S
C62 C61 1.401 . S
C62 H79 0.930 . S
C63 O46 1.262 . S
C63 O47 1.260 . S
C64 Tb0 2.833 . S
C64 O44 1.251 . S
C64 O49 1.256 . S
C64 C57 1.500 . S
C65 H30 0.929 . S
C65 C43 1.444 . S
C65 C66 1.317 . S
C66 H28 0.930 . S
C66 C34 1.432 . S
C66 C65 1.317 . S
C67 O51 1.283 . S
C67 O54 1.243 . S
C68 C69 1.382 . S
C68 C72 1.393 . S
C68 C75 1.500 . S
C69 C68 1.382 . S
C69 C70 1.400 . S
C69 H80 0.930 . S
C70 C69 1.400 . S
C70 C71 1.384 . S
C71 C70 1.384 . S
C71 C73 1.392 . S
C71 H81 0.931 . S
C72 C68 1.393 . S
C72 C73 1.401 . S
C72 H82 0.930 . S
C73 C71 1.392 . S
C73 C72 1.401 . S
C73 H83 0.930 . S
C74 O52 1.262 . S
C74 O53 1.260 . S
C75 Tb11 2.833 . S
C75 O50 1.251 . S
C75 O55 1.256 . S
C75 C68 1.500 . S
H76 C59 0.930 . S
H77 C60 0.931 . S
H78 C61 0.930 . S
H79 C62 0.930 . S
H80 C69 0.930 . S
H81 C71 0.931 . S
H82 C72 0.930 . S
H83 C73 0.930 . S
Tb84 N115 2.660 . S
Tb84 N122 2.600 . S
Tb84 O128 2.546 . S
Tb84 O129 2.610 . S
Tb84 O131 2.320 . S
Tb84 O132 2.552 . S
Tb84 O133 2.413 . S
Tb84 O135 2.362 . S
Tb84 O136 2.421 . S
Tb84 C148 2.833 . S
C85 C88 1.432 . S
C85 C89 1.414 . S
C85 N92 1.359 . S
C86 C88 1.417 . S
C86 C90 1.432 . S
C86 C98 1.410 . S
C87 C89 1.444 . S
C87 C90 1.317 . S
C87 H110 0.929 . S
C88 C85 1.432 . S
C88 C86 1.417 . S
C88 N96 1.360 . S
C89 C85 1.414 . S
C89 C87 1.444 . S
C89 C94 1.385 . S
C90 C86 1.432 . S
C90 C87 1.317 . S
C90 H102 0.930 . S
C91 C93 1.392 . S
C91 C94 1.370 . S
C91 H103 0.931 . S
N92 C85 1.359 . S
N92 C93 1.327 . S
N92 Tb95 2.600 . S
C93 C91 1.392 . S
C93 N92 1.327 . S
C93 H100 0.930 . S
C94 C89 1.385 . S
C94 C91 1.370 . S
C94 H113 0.930 . S
Tb95 N92 2.600 . S
Tb95 N96 2.660 . S
Tb95 O129 2.362 . S
Tb95 O130 2.421 . S
Tb95 O134 2.546 . S
Tb95 O135 2.610 . S
Tb95 O137 2.320 . S
Tb95 O138 2.552 . S
Tb95 O139 2.413 . S
Tb95 C159 2.833 . S
N96 C88 1.360 . S
N96 Tb95 2.660 . S
N96 C97 1.305 . S
C97 N96 1.305 . S
C97 C99 1.407 . S
C97 H104 0.930 . S
C98 C86 1.410 . S
C98 C99 1.345 . S
C98 H106 0.930 . S
C99 C97 1.407 . S
C99 C98 1.345 . S
C99 H101 0.930 . S
H100 C93 0.930 . S
H101 C99 0.930 . S
H102 C90 0.930 . S
H103 C91 0.931 . S
H104 C97 0.930 . S
H105 C119 0.930 . S
H106 C98 0.930 . S
H107 C125 0.930 . S
H108 C116 0.930 . S
H109 C123 0.931 . S
H110 C87 0.929 . S
H111 C117 0.930 . S
H112 C150 0.930 . S
H113 C94 0.930 . S
H114 C149 0.929 . S
N115 Tb84 2.660 . S
N115 C116 1.305 . S
N115 C120 1.360 . S
C116 H108 0.930 . S
C116 N115 1.305 . S
C116 C119 1.407 . S
C117 H111 0.930 . S
C117 C118 1.410 . S
C117 C119 1.345 . S
C118 C117 1.410 . S
C118 C120 1.417 . S
C118 C150 1.432 . S
C119 H105 0.930 . S
C119 C116 1.407 . S
C119 C117 1.345 . S
C120 N115 1.360 . S
C120 C118 1.417 . S
C120 C124 1.432 . S
H121 C126 0.930 . S
N122 Tb84 2.600 . S
N122 C124 1.359 . S
N122 C125 1.327 . S
C123 H109 0.931 . S
C123 C125 1.392 . S
C123 C126 1.370 . S
C124 C120 1.432 . S
C124 N122 1.359 . S
C124 C127 1.414 . S
C125 H107 0.930 . S
C125 N122 1.327 . S
C125 C123 1.392 . S
C126 H121 0.930 . S
C126 C123 1.370 . S
C126 C127 1.385 . S
C127 C124 1.414 . S
C127 C126 1.385 . S
C127 C149 1.444 . S
O128 Tb84 2.546 . S
O128 C148 1.251 . S
O129 Tb84 2.610 . S
O129 Tb95 2.362 . S
O129 C140 1.283 . S
O130 Tb95 2.421 . S
O130 C147 1.262 . S
O131 Tb84 2.320 . S
O131 C147 1.260 . S
O132 Tb84 2.552 . S
O132 C140 1.243 . S
O133 Tb84 2.413 . S
O133 C148 1.256 . S
O134 Tb95 2.546 . S
O134 C159 1.251 . S
O135 Tb84 2.362 . S
O135 Tb95 2.610 . S
O135 C151 1.283 . S
O136 Tb84 2.421 . S
O136 C158 1.262 . S
O137 Tb95 2.320 . S
O137 C158 1.260 . S
O138 Tb95 2.552 . S
O138 C151 1.243 . S
O139 Tb95 2.413 . S
O139 C159 1.256 . S
C140 O129 1.283 . S
C140 O132 1.243 . S
C141 C143 1.382 . S
C141 C145 1.393 . S
C141 C148 1.500 . S
C142 C143 1.400 . S
C142 C144 1.384 . S
C143 C141 1.382 . S
C143 C142 1.400 . S
C143 H160 0.930 . S
C144 C142 1.384 . S
C144 C146 1.392 . S
C144 H161 0.931 . S
C145 C141 1.393 . S
C145 C146 1.401 . S
C145 H162 0.930 . S
C146 C144 1.392 . S
C146 C145 1.401 . S
C146 H163 0.930 . S
C147 O130 1.262 . S
C147 O131 1.260 . S
C148 Tb84 2.833 . S
C148 O128 1.251 . S
C148 O133 1.256 . S
C148 C141 1.500 . S
C149 H114 0.929 . S
C149 C127 1.444 . S
C149 C150 1.317 . S
C150 H112 0.930 . S
C150 C118 1.432 . S
C150 C149 1.317 . S
C151 O135 1.283 . S
C151 O138 1.243 . S
C152 C153 1.382 . S
C152 C156 1.393 . S
C152 C159 1.500 . S
C153 C152 1.382 . S
C153 C154 1.400 . S
C153 H164 0.930 . S
C154 C153 1.400 . S
C154 C155 1.384 . S
C155 C154 1.384 . S
C155 C157 1.392 . S
C155 H165 0.931 . S
C156 C152 1.393 . S
C156 C157 1.401 . S
C156 H166 0.930 . S
C157 C155 1.392 . S
C157 C156 1.401 . S
C157 H167 0.930 . S
C158 O136 1.262 . S
C158 O137 1.260 . S
C159 Tb95 2.833 . S
C159 O134 1.251 . S
C159 O139 1.256 . S
C159 C152 1.500 . S
H160 C143 0.930 . S
H161 C144 0.931 . S
H162 C145 0.930 . S
H163 C146 0.930 . S
H164 C153 0.930 . S
H165 C155 0.931 . S
H166 C156 0.930 . S
H167 C157 0.930 . S
Tb168 N199 2.660 . S
Tb168 N206 2.600 . S
Tb168 O212 2.546 . S
Tb168 O213 2.610 . S
Tb168 O215 2.320 . S
Tb168 O216 2.552 . S
Tb168 O217 2.413 . S
Tb168 O219 2.362 . S
Tb168 O220 2.421 . S
Tb168 C232 2.833 . S
C169 C172 1.432 . S
C169 C173 1.414 . S
C169 N176 1.359 . S
C170 C172 1.417 . S
C170 C174 1.432 . S
C170 C182 1.410 . S
C171 C173 1.444 . S
C171 C174 1.317 . S
C171 H194 0.929 . S
C172 C169 1.432 . S
C172 C170 1.417 . S
C172 N180 1.360 . S
C173 C169 1.414 . S
C173 C171 1.444 . S
C173 C178 1.385 . S
C174 C170 1.432 . S
C174 C171 1.317 . S
C174 H186 0.930 . S
C175 C177 1.392 . S
C175 C178 1.370 . S
C175 H187 0.931 . S
N176 C169 1.359 . S
N176 C177 1.327 . S
N176 Tb179 2.600 . S
C177 C175 1.392 . S
C177 N176 1.327 . S
C177 H184 0.930 . S
C178 C173 1.385 . S
C178 C175 1.370 . S
C178 H197 0.930 . S
Tb179 N176 2.600 . S
Tb179 N180 2.660 . S
Tb179 O213 2.362 . S
Tb179 O214 2.421 . S
Tb179 O218 2.546 . S
Tb179 O219 2.610 . S
Tb179 O221 2.320 . S
Tb179 O222 2.552 . S
Tb179 O223 2.413 . S
Tb179 C243 2.833 . S
N180 C172 1.360 . S
N180 Tb179 2.660 . S
N180 C181 1.305 . S
C181 N180 1.305 . S
C181 C183 1.407 . S
C181 H188 0.930 . S
C182 C170 1.410 . S
C182 C183 1.345 . S
C182 H190 0.930 . S
C183 C181 1.407 . S
C183 C182 1.345 . S
C183 H185 0.930 . S
H184 C177 0.930 . S
H185 C183 0.930 . S
H186 C174 0.930 . S
H187 C175 0.931 . S
H188 C181 0.930 . S
H189 C203 0.930 . S
H190 C182 0.930 . S
H191 C209 0.930 . S
H192 C200 0.930 . S
H193 C207 0.931 . S
H194 C171 0.929 . S
H195 C201 0.930 . S
H196 C234 0.930 . S
H197 C178 0.930 . S
H198 C233 0.929 . S
N199 Tb168 2.660 . S
N199 C200 1.305 . S
N199 C204 1.360 . S
C200 H192 0.930 . S
C200 N199 1.305 . S
C200 C203 1.407 . S
C201 H195 0.930 . S
C201 C202 1.410 . S
C201 C203 1.345 . S
C202 C201 1.410 . S
C202 C204 1.417 . S
C202 C234 1.432 . S
C203 H189 0.930 . S
C203 C200 1.407 . S
C203 C201 1.345 . S
C204 N199 1.360 . S
C204 C202 1.417 . S
C204 C208 1.432 . S
H205 C210 0.930 . S
N206 Tb168 2.600 . S
N206 C208 1.359 . S
N206 C209 1.327 . S
C207 H193 0.931 . S
C207 C209 1.392 . S
C207 C210 1.370 . S
C208 C204 1.432 . S
C208 N206 1.359 . S
C208 C211 1.414 . S
C209 H191 0.930 . S
C209 N206 1.327 . S
C209 C207 1.392 . S
C210 H205 0.930 . S
C210 C207 1.370 . S
C210 C211 1.385 . S
C211 C208 1.414 . S
C211 C210 1.385 . S
C211 C233 1.444 . S
O212 Tb168 2.546 . S
O212 C232 1.251 . S
O213 Tb168 2.610 . S
O213 Tb179 2.362 . S
O213 C224 1.283 . S
O214 Tb179 2.421 . S
O214 C231 1.262 . S
O215 Tb168 2.320 . S
O215 C231 1.260 . S
O216 Tb168 2.552 . S
O216 C224 1.243 . S
O217 Tb168 2.413 . S
O217 C232 1.256 . S
O218 Tb179 2.546 . S
O218 C243 1.251 . S
O219 Tb168 2.362 . S
O219 Tb179 2.610 . S
O219 C235 1.283 . S
O220 Tb168 2.421 . S
O220 C242 1.262 . S
O221 Tb179 2.320 . S
O221 C242 1.260 . S
O222 Tb179 2.552 . S
O222 C235 1.243 . S
O223 Tb179 2.413 . S
O223 C243 1.256 . S
C224 O213 1.283 . S
C224 O216 1.243 . S
C225 C227 1.382 . S
C225 C229 1.393 . S
C225 C232 1.500 . S
C226 C227 1.400 . S
C226 C228 1.384 . S
C227 C225 1.382 . S
C227 C226 1.400 . S
C227 H244 0.930 . S
C228 C226 1.384 . S
C228 C230 1.392 . S
C228 H245 0.931 . S
C229 C225 1.393 . S
C229 C230 1.401 . S
C229 H246 0.930 . S
C230 C228 1.392 . S
C230 C229 1.401 . S
C230 H247 0.930 . S
C231 O214 1.262 . S
C231 O215 1.260 . S
C232 Tb168 2.833 . S
C232 O212 1.251 . S
C232 O217 1.256 . S
C232 C225 1.500 . S
C233 H198 0.929 . S
C233 C211 1.444 . S
C233 C234 1.317 . S
C234 H196 0.930 . S
C234 C202 1.432 . S
C234 C233 1.317 . S
C235 O219 1.283 . S
C235 O222 1.243 . S
C236 C237 1.382 . S
C236 C240 1.393 . S
C236 C243 1.500 . S
C237 C236 1.382 . S
C237 C238 1.400 . S
C237 H248 0.930 . S
C238 C237 1.400 . S
C238 C239 1.384 . S
C239 C238 1.384 . S
C239 C241 1.392 . S
C239 H249 0.931 . S
C240 C236 1.393 . S
C240 C241 1.401 . S
C240 H250 0.930 . S
C241 C239 1.392 . S
C241 C240 1.401 . S
C241 H251 0.930 . S
C242 O220 1.262 . S
C242 O221 1.260 . S
C243 Tb179 2.833 . S
C243 O218 1.251 . S
C243 O223 1.256 . S
C243 C236 1.500 . S
H244 C227 0.930 . S
H245 C228 0.931 . S
H246 C229 0.930 . S
H247 C230 0.930 . S
H248 C237 0.930 . S
H249 C239 0.931 . S
H250 C240 0.930 . S
H251 C241 0.930 . S
Tb252 N283 2.660 . S
Tb252 N290 2.600 . S
Tb252 O296 2.546 . S
Tb252 O297 2.610 . S
Tb252 O299 2.320 . S
Tb252 O300 2.552 . S
Tb252 O301 2.413 . S
Tb252 O303 2.362 . S
Tb252 O304 2.421 . S
Tb252 C316 2.833 . S
C253 C256 1.432 . S
C253 C257 1.414 . S
C253 N260 1.359 . S
C254 C256 1.417 . S
C254 C258 1.432 . S
C254 C266 1.410 . S
C255 C257 1.444 . S
C255 C258 1.317 . S
C255 H278 0.929 . S
C256 C253 1.432 . S
C256 C254 1.417 . S
C256 N264 1.360 . S
C257 C253 1.414 . S
C257 C255 1.444 . S
C257 C262 1.385 . S
C258 C254 1.432 . S
C258 C255 1.317 . S
C258 H270 0.930 . S
C259 C261 1.392 . S
C259 C262 1.370 . S
C259 H271 0.931 . S
N260 C253 1.359 . S
N260 C261 1.327 . S
N260 Tb263 2.600 . S
C261 C259 1.392 . S
C261 N260 1.327 . S
C261 H268 0.930 . S
C262 C257 1.385 . S
C262 C259 1.370 . S
C262 H281 0.930 . S
Tb263 N260 2.600 . S
Tb263 N264 2.660 . S
Tb263 O297 2.362 . S
Tb263 O298 2.421 . S
Tb263 O302 2.546 . S
Tb263 O303 2.610 . S
Tb263 O305 2.320 . S
Tb263 O306 2.552 . S
Tb263 O307 2.413 . S
Tb263 C327 2.833 . S
N264 C256 1.360 . S
N264 Tb263 2.660 . S
N264 C265 1.305 . S
C265 N264 1.305 . S
C265 C267 1.407 . S
C265 H272 0.930 . S
C266 C254 1.410 . S
C266 C267 1.345 . S
C266 H274 0.930 . S
C267 C265 1.407 . S
C267 C266 1.345 . S
C267 H269 0.930 . S
H268 C261 0.930 . S
H269 C267 0.930 . S
H270 C258 0.930 . S
H271 C259 0.931 . S
H272 C265 0.930 . S
H273 C287 0.930 . S
H274 C266 0.930 . S
H275 C293 0.930 . S
H276 C284 0.930 . S
H277 C291 0.931 . S
H278 C255 0.929 . S
H279 C285 0.930 . S
H280 C318 0.930 . S
H281 C262 0.930 . S
H282 C317 0.929 . S
N283 Tb252 2.660 . S
N283 C284 1.305 . S
N283 C288 1.360 . S
C284 H276 0.930 . S
C284 N283 1.305 . S
C284 C287 1.407 . S
C285 H279 0.930 . S
C285 C286 1.410 . S
C285 C287 1.345 . S
C286 C285 1.410 . S
C286 C288 1.417 . S
C286 C318 1.432 . S
C287 H273 0.930 . S
C287 C284 1.407 . S
C287 C285 1.345 . S
C288 N283 1.360 . S
C288 C286 1.417 . S
C288 C292 1.432 . S
H289 C294 0.930 . S
N290 Tb252 2.600 . S
N290 C292 1.359 . S
N290 C293 1.327 . S
C291 H277 0.931 . S
C291 C293 1.392 . S
C291 C294 1.370 . S
C292 C288 1.432 . S
C292 N290 1.359 . S
C292 C295 1.414 . S
C293 H275 0.930 . S
C293 N290 1.327 . S
C293 C291 1.392 . S
C294 H289 0.930 . S
C294 C291 1.370 . S
C294 C295 1.385 . S
C295 C292 1.414 . S
C295 C294 1.385 . S
C295 C317 1.444 . S
O296 Tb252 2.546 . S
O296 C316 1.251 . S
O297 Tb252 2.610 . S
O297 Tb263 2.362 . S
O297 C308 1.283 . S
O298 Tb263 2.421 . S
O298 C315 1.262 . S
O299 Tb252 2.320 . S
O299 C315 1.260 . S
O300 Tb252 2.552 . S
O300 C308 1.243 . S
O301 Tb252 2.413 . S
O301 C316 1.256 . S
O302 Tb263 2.546 . S
O302 C327 1.251 . S
O303 Tb252 2.362 . S
O303 Tb263 2.610 . S
O303 C319 1.283 . S
O304 Tb252 2.421 . S
O304 C326 1.262 . S
O305 Tb263 2.320 . S
O305 C326 1.260 . S
O306 Tb263 2.552 . S
O306 C319 1.243 . S
O307 Tb263 2.413 . S
O307 C327 1.256 . S
C308 O297 1.283 . S
C308 O300 1.243 . S
C309 C311 1.382 . S
C309 C313 1.393 . S
C309 C316 1.500 . S
C310 C311 1.400 . S
C310 C312 1.384 . S
C311 C309 1.382 . S
C311 C310 1.400 . S
C311 H328 0.930 . S
C312 C310 1.384 . S
C312 C314 1.392 . S
C312 H329 0.931 . S
C313 C309 1.393 . S
C313 C314 1.401 . S
C313 H330 0.930 . S
C314 C312 1.392 . S
C314 C313 1.401 . S
C314 H331 0.930 . S
C315 O298 1.262 . S
C315 O299 1.260 . S
C316 Tb252 2.833 . S
C316 O296 1.251 . S
C316 O301 1.256 . S
C316 C309 1.500 . S
C317 H282 0.929 . S
C317 C295 1.444 . S
C317 C318 1.317 . S
C318 H280 0.930 . S
C318 C286 1.432 . S
C318 C317 1.317 . S
C319 O303 1.283 . S
C319 O306 1.243 . S
C320 C321 1.382 . S
C320 C324 1.393 . S
C320 C327 1.500 . S
C321 C320 1.382 . S
C321 C322 1.400 . S
C321 H332 0.930 . S
C322 C321 1.400 . S
C322 C323 1.384 . S
C323 C322 1.384 . S
C323 C325 1.392 . S
C323 H333 0.931 . S
C324 C320 1.393 . S
C324 C325 1.401 . S
C324 H334 0.930 . S
C325 C323 1.392 . S
C325 C324 1.401 . S
C325 H335 0.930 . S
C326 O304 1.262 . S
C326 O305 1.260 . S
C327 Tb263 2.833 . S
C327 O302 1.251 . S
C327 O307 1.256 . S
C327 C320 1.500 . S
H328 C311 0.930 . S
H329 C312 0.931 . S
H330 C313 0.930 . S
H331 C314 0.930 . S
H332 C321 0.930 . S
H333 C323 0.931 . S
H334 C324 0.930 . S
H335 C325 0.930 . S
Tb336 N367 2.660 . S
Tb336 N374 2.600 . S
Tb336 O380 2.546 . S
Tb336 O381 2.610 . S
Tb336 O383 2.320 . S
Tb336 O384 2.552 . S
Tb336 O385 2.413 . S
Tb336 O387 2.362 . S
Tb336 O388 2.421 . S
Tb336 C400 2.833 . S
C337 C340 1.432 . S
C337 C341 1.414 . S
C337 N344 1.359 . S
C338 C340 1.417 . S
C338 C342 1.432 . S
C338 C350 1.410 . S
C339 C341 1.444 . S
C339 C342 1.317 . S
C339 H362 0.929 . S
C340 C337 1.432 . S
C340 C338 1.417 . S
C340 N348 1.360 . S
C341 C337 1.414 . S
C341 C339 1.444 . S
C341 C346 1.385 . S
C342 C338 1.432 . S
C342 C339 1.317 . S
C342 H354 0.930 . S
C343 C345 1.392 . S
C343 C346 1.370 . S
C343 H355 0.931 . S
N344 C337 1.359 . S
N344 C345 1.327 . S
N344 Tb347 2.600 . S
C345 C343 1.392 . S
C345 N344 1.327 . S
C345 H352 0.930 . S
C346 C341 1.385 . S
C346 C343 1.370 . S
C346 H365 0.930 . S
Tb347 N344 2.600 . S
Tb347 N348 2.660 . S
Tb347 O381 2.362 . S
Tb347 O382 2.421 . S
Tb347 O386 2.546 . S
Tb347 O387 2.610 . S
Tb347 O389 2.320 . S
Tb347 O390 2.552 . S
Tb347 O391 2.413 . S
Tb347 C411 2.833 . S
N348 C340 1.360 . S
N348 Tb347 2.660 . S
N348 C349 1.305 . S
C349 N348 1.305 . S
C349 C351 1.407 . S
C349 H356 0.930 . S
C350 C338 1.410 . S
C350 C351 1.345 . S
C350 H358 0.930 . S
C351 C349 1.407 . S
C351 C350 1.345 . S
C351 H353 0.930 . S
H352 C345 0.930 . S
H353 C351 0.930 . S
H354 C342 0.930 . S
H355 C343 0.931 . S
H356 C349 0.930 . S
H357 C371 0.930 . S
H358 C350 0.930 . S
H359 C377 0.930 . S
H360 C368 0.930 . S
H361 C375 0.931 . S
H362 C339 0.929 . S
H363 C369 0.930 . S
H364 C402 0.930 . S
H365 C346 0.930 . S
H366 C401 0.929 . S
N367 Tb336 2.660 . S
N367 C368 1.305 . S
N367 C372 1.360 . S
C368 H360 0.930 . S
C368 N367 1.305 . S
C368 C371 1.407 . S
C369 H363 0.930 . S
C369 C370 1.410 . S
C369 C371 1.345 . S
C370 C369 1.410 . S
C370 C372 1.417 . S
C370 C402 1.432 . S
C371 H357 0.930 . S
C371 C368 1.407 . S
C371 C369 1.345 . S
C372 N367 1.360 . S
C372 C370 1.417 . S
C372 C376 1.432 . S
H373 C378 0.930 . S
N374 Tb336 2.600 . S
N374 C376 1.359 . S
N374 C377 1.327 . S
C375 H361 0.931 . S
C375 C377 1.392 . S
C375 C378 1.370 . S
C376 C372 1.432 . S
C376 N374 1.359 . S
C376 C379 1.414 . S
C377 H359 0.930 . S
C377 N374 1.327 . S
C377 C375 1.392 . S
C378 H373 0.930 . S
C378 C375 1.370 . S
C378 C379 1.385 . S
C379 C376 1.414 . S
C379 C378 1.385 . S
C379 C401 1.444 . S
O380 Tb336 2.546 . S
O380 C400 1.251 . S
O381 Tb336 2.610 . S
O381 Tb347 2.362 . S
O381 C392 1.283 . S
O382 Tb347 2.421 . S
O382 C399 1.262 . S
O383 Tb336 2.320 . S
O383 C399 1.260 . S
O384 Tb336 2.552 . S
O384 C392 1.243 . S
O385 Tb336 2.413 . S
O385 C400 1.256 . S
O386 Tb347 2.546 . S
O386 C411 1.251 . S
O387 Tb336 2.362 . S
O387 Tb347 2.610 . S
O387 C403 1.283 . S
O388 Tb336 2.421 . S
O388 C410 1.262 . S
O389 Tb347 2.320 . S
O389 C410 1.260 . S
O390 Tb347 2.552 . S
O390 C403 1.243 . S
O391 Tb347 2.413 . S
O391 C411 1.256 . S
C392 O381 1.283 . S
C392 O384 1.243 . S
C393 C395 1.382 . S
C393 C397 1.393 . S
C393 C400 1.500 . S
C394 C395 1.400 . S
C394 C396 1.384 . S
C395 C393 1.382 . S
C395 C394 1.400 . S
C395 H412 0.930 . S
C396 C394 1.384 . S
C396 C398 1.392 . S
C396 H413 0.931 . S
C397 C393 1.393 . S
C397 C398 1.401 . S
C397 H414 0.930 . S
C398 C396 1.392 . S
C398 C397 1.401 . S
C398 H415 0.930 . S
C399 O382 1.262 . S
C399 O383 1.260 . S
C400 Tb336 2.833 . S
C400 O380 1.251 . S
C400 O385 1.256 . S
C400 C393 1.500 . S
C401 H366 0.929 . S
C401 C379 1.444 . S
C401 C402 1.317 . S
C402 H364 0.930 . S
C402 C370 1.432 . S
C402 C401 1.317 . S
C403 O387 1.283 . S
C403 O390 1.243 . S
C404 C405 1.382 . S
C404 C408 1.393 . S
C404 C411 1.500 . S
C405 C404 1.382 . S
C405 C406 1.400 . S
C405 H416 0.930 . S
C406 C405 1.400 . S
C406 C407 1.384 . S
C407 C406 1.384 . S
C407 C409 1.392 . S
C407 H417 0.931 . S
C408 C404 1.393 . S
C408 C409 1.401 . S
C408 H418 0.930 . S
C409 C407 1.392 . S
C409 C408 1.401 . S
C409 H419 0.930 . S
C410 O388 1.262 . S
C410 O389 1.260 . S
C411 Tb347 2.833 . S
C411 O386 1.251 . S
C411 O391 1.256 . S
C411 C404 1.500 . S
H412 C395 0.930 . S
H413 C396 0.931 . S
H414 C397 0.930 . S
H415 C398 0.930 . S
H416 C405 0.930 . S
H417 C407 0.931 . S
H418 C408 0.930 . S
H419 C409 0.930 . S
Tb420 N451 2.660 . S
Tb420 N458 2.600 . S
Tb420 O464 2.546 . S
Tb420 O465 2.610 . S
Tb420 O467 2.320 . S
Tb420 O468 2.552 . S
Tb420 O469 2.413 . S
Tb420 O471 2.362 . S
Tb420 O472 2.421 . S
Tb420 C484 2.833 . S
C421 C424 1.432 . S
C421 C425 1.414 . S
C421 N428 1.359 . S
C422 C424 1.417 . S
C422 C426 1.432 . S
C422 C434 1.410 . S
C423 C425 1.444 . S
C423 C426 1.317 . S
C423 H446 0.929 . S
C424 C421 1.432 . S
C424 C422 1.417 . S
C424 N432 1.360 . S
C425 C421 1.414 . S
C425 C423 1.444 . S
C425 C430 1.385 . S
C426 C422 1.432 . S
C426 C423 1.317 . S
C426 H438 0.930 . S
C427 C429 1.392 . S
C427 C430 1.370 . S
C427 H439 0.931 . S
N428 C421 1.359 . S
N428 C429 1.327 . S
N428 Tb431 2.600 . S
C429 C427 1.392 . S
C429 N428 1.327 . S
C429 H436 0.930 . S
C430 C425 1.385 . S
C430 C427 1.370 . S
C430 H449 0.930 . S
Tb431 N428 2.600 . S
Tb431 N432 2.660 . S
Tb431 O465 2.362 . S
Tb431 O466 2.421 . S
Tb431 O470 2.546 . S
Tb431 O471 2.610 . S
Tb431 O473 2.320 . S
Tb431 O474 2.552 . S
Tb431 O475 2.413 . S
Tb431 C495 2.833 . S
N432 C424 1.360 . S
N432 Tb431 2.660 . S
N432 C433 1.305 . S
C433 N432 1.305 . S
C433 C435 1.407 . S
C433 H440 0.930 . S
C434 C422 1.410 . S
C434 C435 1.345 . S
C434 H442 0.930 . S
C435 C433 1.407 . S
C435 C434 1.345 . S
C435 H437 0.930 . S
H436 C429 0.930 . S
H437 C435 0.930 . S
H438 C426 0.930 . S
H439 C427 0.931 . S
H440 C433 0.930 . S
H441 C455 0.930 . S
H442 C434 0.930 . S
H443 C461 0.930 . S
H444 C452 0.930 . S
H445 C459 0.931 . S
H446 C423 0.929 . S
H447 C453 0.930 . S
H448 C486 0.930 . S
H449 C430 0.930 . S
H450 C485 0.929 . S
N451 Tb420 2.660 . S
N451 C452 1.305 . S
N451 C456 1.360 . S
C452 H444 0.930 . S
C452 N451 1.305 . S
C452 C455 1.407 . S
C453 H447 0.930 . S
C453 C454 1.410 . S
C453 C455 1.345 . S
C454 C453 1.410 . S
C454 C456 1.417 . S
C454 C486 1.432 . S
C455 H441 0.930 . S
C455 C452 1.407 . S
C455 C453 1.345 . S
C456 N451 1.360 . S
C456 C454 1.417 . S
C456 C460 1.432 . S
H457 C462 0.930 . S
N458 Tb420 2.600 . S
N458 C460 1.359 . S
N458 C461 1.327 . S
C459 H445 0.931 . S
C459 C461 1.392 . S
C459 C462 1.370 . S
C460 C456 1.432 . S
C460 N458 1.359 . S
C460 C463 1.414 . S
C461 H443 0.930 . S
C461 N458 1.327 . S
C461 C459 1.392 . S
C462 H457 0.930 . S
C462 C459 1.370 . S
C462 C463 1.385 . S
C463 C460 1.414 . S
C463 C462 1.385 . S
C463 C485 1.444 . S
O464 Tb420 2.546 . S
O464 C484 1.251 . S
O465 Tb420 2.610 . S
O465 Tb431 2.362 . S
O465 C476 1.283 . S
O466 Tb431 2.421 . S
O466 C483 1.262 . S
O467 Tb420 2.320 . S
O467 C483 1.260 . S
O468 Tb420 2.552 . S
O468 C476 1.243 . S
O469 Tb420 2.413 . S
O469 C484 1.256 . S
O470 Tb431 2.546 . S
O470 C495 1.251 . S
O471 Tb420 2.362 . S
O471 Tb431 2.610 . S
O471 C487 1.283 . S
O472 Tb420 2.421 . S
O472 C494 1.262 . S
O473 Tb431 2.320 . S
O473 C494 1.260 . S
O474 Tb431 2.552 . S
O474 C487 1.243 . S
O475 Tb431 2.413 . S
O475 C495 1.256 . S
C476 O465 1.283 . S
C476 O468 1.243 . S
C477 C479 1.382 . S
C477 C481 1.393 . S
C477 C484 1.500 . S
C478 C479 1.400 . S
C478 C480 1.384 . S
C479 C477 1.382 . S
C479 C478 1.400 . S
C479 H496 0.930 . S
C480 C478 1.384 . S
C480 C482 1.392 . S
C480 H497 0.931 . S
C481 C477 1.393 . S
C481 C482 1.401 . S
C481 H498 0.930 . S
C482 C480 1.392 . S
C482 C481 1.401 . S
C482 H499 0.930 . S
C483 O466 1.262 . S
C483 O467 1.260 . S
C484 Tb420 2.833 . S
C484 O464 1.251 . S
C484 O469 1.256 . S
C484 C477 1.500 . S
C485 H450 0.929 . S
C485 C463 1.444 . S
C485 C486 1.317 . S
C486 H448 0.930 . S
C486 C454 1.432 . S
C486 C485 1.317 . S
C487 O471 1.283 . S
C487 O474 1.243 . S
C488 C489 1.382 . S
C488 C492 1.393 . S
C488 C495 1.500 . S
C489 C488 1.382 . S
C489 C490 1.400 . S
C489 H500 0.930 . S
C490 C489 1.400 . S
C490 C491 1.384 . S
C491 C490 1.384 . S
C491 C493 1.392 . S
C491 H501 0.931 . S
C492 C488 1.393 . S
C492 C493 1.401 . S
C492 H502 0.930 . S
C493 C491 1.392 . S
C493 C492 1.401 . S
C493 H503 0.930 . S
C494 O472 1.262 . S
C494 O473 1.260 . S
C495 Tb431 2.833 . S
C495 O470 1.251 . S
C495 O475 1.256 . S
C495 C488 1.500 . S
H496 C479 0.930 . S
H497 C480 0.931 . S
H498 C481 0.930 . S
H499 C482 0.930 . S
H500 C489 0.930 . S
H501 C491 0.931 . S
H502 C492 0.930 . S
H503 C493 0.930 . S
Tb504 N535 2.660 . S
Tb504 N542 2.600 . S
Tb504 O548 2.546 . S
Tb504 O549 2.610 . S
Tb504 O551 2.320 . S
Tb504 O552 2.552 . S
Tb504 O553 2.413 . S
Tb504 O555 2.362 . S
Tb504 O556 2.421 . S
Tb504 C568 2.833 . S
C505 C508 1.432 . S
C505 C509 1.414 . S
C505 N512 1.359 . S
C506 C508 1.417 . S
C506 C510 1.432 . S
C506 C518 1.410 . S
C507 C509 1.444 . S
C507 C510 1.317 . S
C507 H530 0.929 . S
C508 C505 1.432 . S
C508 C506 1.417 . S
C508 N516 1.360 . S
C509 C505 1.414 . S
C509 C507 1.444 . S
C509 C514 1.385 . S
C510 C506 1.432 . S
C510 C507 1.317 . S
C510 H522 0.930 . S
C511 C513 1.392 . S
C511 C514 1.370 . S
C511 H523 0.931 . S
N512 C505 1.359 . S
N512 C513 1.327 . S
N512 Tb515 2.600 . S
C513 C511 1.392 . S
C513 N512 1.327 . S
C513 H520 0.930 . S
C514 C509 1.385 . S
C514 C511 1.370 . S
C514 H533 0.930 . S
Tb515 N512 2.600 . S
Tb515 N516 2.660 . S
Tb515 O549 2.362 . S
Tb515 O550 2.421 . S
Tb515 O554 2.546 . S
Tb515 O555 2.610 . S
Tb515 O557 2.320 . S
Tb515 O558 2.552 . S
Tb515 O559 2.413 . S
Tb515 C579 2.833 . S
N516 C508 1.360 . S
N516 Tb515 2.660 . S
N516 C517 1.305 . S
C517 N516 1.305 . S
C517 C519 1.407 . S
C517 H524 0.930 . S
C518 C506 1.410 . S
C518 C519 1.345 . S
C518 H526 0.930 . S
C519 C517 1.407 . S
C519 C518 1.345 . S
C519 H521 0.930 . S
H520 C513 0.930 . S
H521 C519 0.930 . S
H522 C510 0.930 . S
H523 C511 0.931 . S
H524 C517 0.930 . S
H525 C539 0.930 . S
H526 C518 0.930 . S
H527 C545 0.930 . S
H528 C536 0.930 . S
H529 C543 0.931 . S
H530 C507 0.929 . S
H531 C537 0.930 . S
H532 C570 0.930 . S
H533 C514 0.930 . S
H534 C569 0.929 . S
N535 Tb504 2.660 . S
N535 C536 1.305 . S
N535 C540 1.360 . S
C536 H528 0.930 . S
C536 N535 1.305 . S
C536 C539 1.407 . S
C537 H531 0.930 . S
C537 C538 1.410 . S
C537 C539 1.345 . S
C538 C537 1.410 . S
C538 C540 1.417 . S
C538 C570 1.432 . S
C539 H525 0.930 . S
C539 C536 1.407 . S
C539 C537 1.345 . S
C540 N535 1.360 . S
C540 C538 1.417 . S
C540 C544 1.432 . S
H541 C546 0.930 . S
N542 Tb504 2.600 . S
N542 C544 1.359 . S
N542 C545 1.327 . S
C543 H529 0.931 . S
C543 C545 1.392 . S
C543 C546 1.370 . S
C544 C540 1.432 . S
C544 N542 1.359 . S
C544 C547 1.414 . S
C545 H527 0.930 . S
C545 N542 1.327 . S
C545 C543 1.392 . S
C546 H541 0.930 . S
C546 C543 1.370 . S
C546 C547 1.385 . S
C547 C544 1.414 . S
C547 C546 1.385 . S
C547 C569 1.444 . S
O548 Tb504 2.546 . S
O548 C568 1.251 . S
O549 Tb504 2.610 . S
O549 Tb515 2.362 . S
O549 C560 1.283 . S
O550 Tb515 2.421 . S
O550 C567 1.262 . S
O551 Tb504 2.320 . S
O551 C567 1.260 . S
O552 Tb504 2.552 . S
O552 C560 1.243 . S
O553 Tb504 2.413 . S
O553 C568 1.256 . S
O554 Tb515 2.546 . S
O554 C579 1.251 . S
O555 Tb504 2.362 . S
O555 Tb515 2.610 . S
O555 C571 1.283 . S
O556 Tb504 2.421 . S
O556 C578 1.262 . S
O557 Tb515 2.320 . S
O557 C578 1.260 . S
O558 Tb515 2.552 . S
O558 C571 1.243 . S
O559 Tb515 2.413 . S
O559 C579 1.256 . S
C560 O549 1.283 . S
C560 O552 1.243 . S
C561 C563 1.382 . S
C561 C565 1.393 . S
C561 C568 1.500 . S
C562 C563 1.400 . S
C562 C564 1.384 . S
C563 C561 1.382 . S
C563 C562 1.400 . S
C563 H580 0.930 . S
C564 C562 1.384 . S
C564 C566 1.392 . S
C564 H581 0.931 . S
C565 C561 1.393 . S
C565 C566 1.401 . S
C565 H582 0.930 . S
C566 C564 1.392 . S
C566 C565 1.401 . S
C566 H583 0.930 . S
C567 O550 1.262 . S
C567 O551 1.260 . S
C568 Tb504 2.833 . S
C568 O548 1.251 . S
C568 O553 1.256 . S
C568 C561 1.500 . S
C569 H534 0.929 . S
C569 C547 1.444 . S
C569 C570 1.317 . S
C570 H532 0.930 . S
C570 C538 1.432 . S
C570 C569 1.317 . S
C571 O555 1.283 . S
C571 O558 1.243 . S
C572 C573 1.382 . S
C572 C576 1.393 . S
C572 C579 1.500 . S
C573 C572 1.382 . S
C573 C574 1.400 . S
C573 H584 0.930 . S
C574 C573 1.400 . S
C574 C575 1.384 . S
C575 C574 1.384 . S
C575 C577 1.392 . S
C575 H585 0.931 . S
C576 C572 1.393 . S
C576 C577 1.401 . S
C576 H586 0.930 . S
C577 C575 1.392 . S
C577 C576 1.401 . S
C577 H587 0.930 . S
C578 O556 1.262 . S
C578 O557 1.260 . S
C579 Tb515 2.833 . S
C579 O554 1.251 . S
C579 O559 1.256 . S
C579 C572 1.500 . S
H580 C563 0.930 . S
H581 C564 0.931 . S
H582 C565 0.930 . S
H583 C566 0.930 . S
H584 C573 0.930 . S
H585 C575 0.931 . S
H586 C576 0.930 . S
H587 C577 0.930 . S
Tb588 N619 2.660 . S
Tb588 N626 2.600 . S
Tb588 O632 2.546 . S
Tb588 O633 2.610 . S
Tb588 O635 2.320 . S
Tb588 O636 2.552 . S
Tb588 O637 2.413 . S
Tb588 O639 2.362 . S
Tb588 O640 2.421 . S
Tb588 C652 2.833 . S
C589 C592 1.432 . S
C589 C593 1.414 . S
C589 N596 1.359 . S
C590 C592 1.417 . S
C590 C594 1.432 . S
C590 C602 1.410 . S
C591 C593 1.444 . S
C591 C594 1.317 . S
C591 H614 0.929 . S
C592 C589 1.432 . S
C592 C590 1.417 . S
C592 N600 1.360 . S
C593 C589 1.414 . S
C593 C591 1.444 . S
C593 C598 1.385 . S
C594 C590 1.432 . S
C594 C591 1.317 . S
C594 H606 0.930 . S
C595 C597 1.392 . S
C595 C598 1.370 . S
C595 H607 0.931 . S
N596 C589 1.359 . S
N596 C597 1.327 . S
N596 Tb599 2.600 . S
C597 C595 1.392 . S
C597 N596 1.327 . S
C597 H604 0.930 . S
C598 C593 1.385 . S
C598 C595 1.370 . S
C598 H617 0.930 . S
Tb599 N596 2.600 . S
Tb599 N600 2.660 . S
Tb599 O633 2.362 . S
Tb599 O634 2.421 . S
Tb599 O638 2.546 . S
Tb599 O639 2.610 . S
Tb599 O641 2.320 . S
Tb599 O642 2.552 . S
Tb599 O643 2.413 . S
Tb599 C663 2.833 . S
N600 C592 1.360 . S
N600 Tb599 2.660 . S
N600 C601 1.305 . S
C601 N600 1.305 . S
C601 C603 1.407 . S
C601 H608 0.930 . S
C602 C590 1.410 . S
C602 C603 1.345 . S
C602 H610 0.930 . S
C603 C601 1.407 . S
C603 C602 1.345 . S
C603 H605 0.930 . S
H604 C597 0.930 . S
H605 C603 0.930 . S
H606 C594 0.930 . S
H607 C595 0.931 . S
H608 C601 0.930 . S
H609 C623 0.930 . S
H610 C602 0.930 . S
H611 C629 0.930 . S
H612 C620 0.930 . S
H613 C627 0.931 . S
H614 C591 0.929 . S
H615 C621 0.930 . S
H616 C654 0.930 . S
H617 C598 0.930 . S
H618 C653 0.929 . S
N619 Tb588 2.660 . S
N619 C620 1.305 . S
N619 C624 1.360 . S
C620 H612 0.930 . S
C620 N619 1.305 . S
C620 C623 1.407 . S
C621 H615 0.930 . S
C621 C622 1.410 . S
C621 C623 1.345 . S
C622 C621 1.410 . S
C622 C624 1.417 . S
C622 C654 1.432 . S
C623 H609 0.930 . S
C623 C620 1.407 . S
C623 C621 1.345 . S
C624 N619 1.360 . S
C624 C622 1.417 . S
C624 C628 1.432 . S
H625 C630 0.930 . S
N626 Tb588 2.600 . S
N626 C628 1.359 . S
N626 C629 1.327 . S
C627 H613 0.931 . S
C627 C629 1.392 . S
C627 C630 1.370 . S
C628 C624 1.432 . S
C628 N626 1.359 . S
C628 C631 1.414 . S
C629 H611 0.930 . S
C629 N626 1.327 . S
C629 C627 1.392 . S
C630 H625 0.930 . S
C630 C627 1.370 . S
C630 C631 1.385 . S
C631 C628 1.414 . S
C631 C630 1.385 . S
C631 C653 1.444 . S
O632 Tb588 2.546 . S
O632 C652 1.251 . S
O633 Tb588 2.610 . S
O633 Tb599 2.362 . S
O633 C644 1.283 . S
O634 Tb599 2.421 . S
O634 C651 1.262 . S
O635 Tb588 2.320 . S
O635 C651 1.260 . S
O636 Tb588 2.552 . S
O636 C644 1.243 . S
O637 Tb588 2.413 . S
O637 C652 1.256 . S
O638 Tb599 2.546 . S
O638 C663 1.251 . S
O639 Tb588 2.362 . S
O639 Tb599 2.610 . S
O639 C655 1.283 . S
O640 Tb588 2.421 . S
O640 C662 1.262 . S
O641 Tb599 2.320 . S
O641 C662 1.260 . S
O642 Tb599 2.552 . S
O642 C655 1.243 . S
O643 Tb599 2.413 . S
O643 C663 1.256 . S
C644 O633 1.283 . S
C644 O636 1.243 . S
C645 C647 1.382 . S
C645 C649 1.393 . S
C645 C652 1.500 . S
C646 C647 1.400 . S
C646 C648 1.384 . S
C647 C645 1.382 . S
C647 C646 1.400 . S
C647 H664 0.930 . S
C648 C646 1.384 . S
C648 C650 1.392 . S
C648 H665 0.931 . S
C649 C645 1.393 . S
C649 C650 1.401 . S
C649 H666 0.930 . S
C650 C648 1.392 . S
C650 C649 1.401 . S
C650 H667 0.930 . S
C651 O634 1.262 . S
C651 O635 1.260 . S
C652 Tb588 2.833 . S
C652 O632 1.251 . S
C652 O637 1.256 . S
C652 C645 1.500 . S
C653 H618 0.929 . S
C653 C631 1.444 . S
C653 C654 1.317 . S
C654 H616 0.930 . S
C654 C622 1.432 . S
C654 C653 1.317 . S
C655 O639 1.283 . S
C655 O642 1.243 . S
C656 C657 1.382 . S
C656 C660 1.393 . S
C656 C663 1.500 . S
C657 C656 1.382 . S
C657 C658 1.400 . S
C657 H668 0.930 . S
C658 C657 1.400 . S
C658 C659 1.384 . S
C659 C658 1.384 . S
C659 C661 1.392 . S
C659 H669 0.931 . S
C660 C656 1.393 . S
C660 C661 1.401 . S
C660 H670 0.930 . S
C661 C659 1.392 . S
C661 C660 1.401 . S
C661 H671 0.930 . S
C662 O640 1.262 . S
C662 O641 1.260 . S
C663 Tb599 2.833 . S
C663 O638 1.251 . S
C663 O643 1.256 . S
C663 C656 1.500 . S
H664 C647 0.930 . S
H665 C648 0.931 . S
H666 C649 0.930 . S
H667 C650 0.930 . S
H668 C657 0.930 . S
H669 C659 0.931 . S
H670 C660 0.930 . S
H671 C661 0.930 . S
C672 O684 1.241 . S
C672 O685 1.280 . S
C673 O686 1.277 . S
C673 O687 1.245 . S
C674 O698 1.247 . S
C674 O700 1.289 . S
Mg675 O676 1.926 . S
Mg675 O685 1.984 . S
Mg675 O687 1.988 . S
Mg675 O688 2.061 1_655 S
O676 Mg675 1.926 . S
O676 Mg677 1.986 1_545 S
O676 Mg678 1.919 1_655 S
Mg677 O676 1.986 1_565 S
Mg677 O684 2.042 1_565 S
Mg677 O686 2.041 1_565 S
Mg677 O692 2.038 . S
Mg677 O700 2.238 . S
Mg678 O676 1.919 1_455 S
Mg678 O679 1.915 1_545 S
Mg678 O689 2.108 . S
Mg678 O691 2.077 1_445 S
Mg678 O700 2.105 1_445 S
Mg678 O701 2.080 . S
O679 Mg678 1.915 1_565 S
O679 Mg680 1.926 . S
O679 Mg681 1.986 1_565 S
Mg680 O679 1.926 . S
Mg680 O694 1.984 . S
Mg680 O697 1.988 . S
Mg680 O698 2.061 1_455 S
Mg681 O679 1.986 1_545 S
Mg681 O689 2.238 . S
Mg681 O693 2.042 1_545 S
Mg681 O695 2.041 1_545 S
Mg681 O702 2.038 . S
C682 O688 1.247 . S
C682 O689 1.289 . S
C683 O701 1.245 . S
C683 O702 1.274 . S
O684 C672 1.241 . S
O684 Mg677 2.042 1_545 S
O685 C672 1.280 . S
O685 Mg675 1.984 . S
O686 C673 1.277 . S
O686 Mg677 2.041 1_545 S
O687 C673 1.245 . S
O687 Mg675 1.988 . S
O688 Mg675 2.061 1_455 S
O688 C682 1.247 . S
O689 Mg678 2.108 . S
O689 Mg681 2.238 . S
O689 C682 1.289 . S
C690 O691 1.245 . S
C690 O692 1.274 . S
O691 Mg678 2.077 1_665 S
O691 C690 1.245 . S
O692 Mg677 2.038 . S
O692 C690 1.274 . S
O693 Mg681 2.042 1_565 S
O693 C696 1.241 . S
O694 Mg680 1.984 . S
O694 C696 1.280 . S
O695 Mg681 2.041 1_565 S
O695 C699 1.277 . S
C696 O693 1.241 . S
C696 O694 1.280 . S
O697 Mg680 1.988 . S
O697 C699 1.245 . S
O698 C674 1.247 . S
O698 Mg680 2.061 1_655 S
C699 O695 1.277 . S
C699 O697 1.245 . S
O700 C674 1.289 . S
O700 Mg677 2.238 . S
O700 Mg678 2.105 1_665 S
O701 Mg678 2.080 . S
O701 C683 1.245 . S
O702 Mg681 2.038 . S
O702 C683 1.274 . S
C703 O715 1.241 . S
C703 O716 1.280 . S
C704 O717 1.277 . S
C704 O718 1.245 . S
C705 O729 1.247 . S
C705 O731 1.289 . S
Mg706 O707 1.926 . S
Mg706 O716 1.984 . S
Mg706 O718 1.988 1_554 S
Mg706 O719 2.061 . S
O707 Mg706 1.926 . S
O707 Mg708 1.986 1_544 S
O707 Mg709 1.922 . S
Mg708 O707 1.986 1_566 S
Mg708 O715 2.042 1_566 S
Mg708 O717 2.041 1_565 S
Mg708 O723 2.038 1_556 S
Mg708 O731 2.238 . S
Mg709 O707 1.922 . S
Mg709 O710 1.912 1_544 S
Mg709 O720 2.110 . S
Mg709 O722 2.082 1_545 S
Mg709 O731 2.103 1_544 S
Mg709 O732 2.075 1_554 S
O710 Mg709 1.912 1_566 S
O710 Mg711 1.926 . S
O710 Mg712 1.986 1_566 S
Mg711 O710 1.926 . S
Mg711 O725 1.984 . S
Mg711 O728 1.988 1_556 S
Mg711 O729 2.061 . S
Mg712 O710 1.986 1_544 S
Mg712 O720 2.238 . S
Mg712 O724 2.042 1_544 S
Mg712 O726 2.041 1_545 S
Mg712 O733 2.038 1_554 S
C713 O719 1.247 . S
C713 O720 1.289 . S
C714 O732 1.245 . S
C714 O733 1.274 . S
O715 C703 1.241 . S
O715 Mg708 2.042 1_544 S
O716 C703 1.280 . S
O716 Mg706 1.984 . S
O717 C704 1.277 . S
O717 Mg708 2.041 1_545 S
O718 C704 1.245 . S
O718 Mg706 1.988 1_556 S
O719 Mg706 2.061 . S
O719 C713 1.247 . S
O720 Mg709 2.110 . S
O720 Mg712 2.238 . S
O720 C713 1.289 . S
C721 O722 1.245 . S
C721 O723 1.274 . S
O722 Mg709 2.082 1_565 S
O722 C721 1.245 . S
O723 Mg708 2.038 1_554 S
O723 C721 1.274 . S
O724 Mg712 2.042 1_566 S
O724 C727 1.241 . S
O725 Mg711 1.984 . S
O725 C727 1.280 . S
O726 Mg712 2.041 1_565 S
O726 C730 1.277 . S
C727 O724 1.241 . S
C727 O725 1.280 . S
O728 Mg711 1.988 1_554 S
O728 C730 1.245 . S
O729 C705 1.247 . S
O729 Mg711 2.061 . S
C730 O726 1.277 . S
C730 O728 1.245 . S
O731 C705 1.289 . S
O731 Mg708 2.238 . S
O731 Mg709 2.103 1_566 S
O732 Mg709 2.075 1_556 S
O732 C714 1.245 . S
O733 Mg712 2.038 1_556 S
O733 C714 1.274 . S
C734 O746 1.241 . S
C734 O747 1.280 . S
C735 O748 1.277 . S
C735 O749 1.245 . S
C736 O760 1.247 . S
C736 O762 1.289 . S
Mg737 O738 1.926 . S
Mg737 O747 1.984 . S
Mg737 O749 1.988 1_554 S
Mg737 O750 2.061 1_655 S
O738 Mg737 1.926 . S
O738 Mg739 1.986 1_554 S
O738 Mg740 1.918 1_655 S
Mg739 O738 1.986 1_556 S
Mg739 O746 2.042 1_556 S
Mg739 O748 2.041 . S
Mg739 O754 2.038 1_556 S
Mg739 O762 2.238 . S
Mg740 O738 1.918 1_455 S
Mg740 O741 1.916 1_554 S
Mg740 O751 2.111 . S
Mg740 O753 2.083 1_455 S
Mg740 O762 2.102 1_454 S
Mg740 O763 2.074 1_554 S
O741 Mg740 1.916 1_556 S
O741 Mg742 1.926 . S
O741 Mg743 1.986 1_556 S
Mg742 O741 1.926 . S
Mg742 O756 1.984 . S
Mg742 O759 1.988 1_556 S
Mg742 O760 2.061 1_455 S
Mg743 O741 1.986 1_554 S
Mg743 O751 2.238 . S
Mg743 O755 2.042 1_554 S
Mg743 O757 2.041 . S
Mg743 O764 2.038 1_554 S
C744 O750 1.247 . S
C744 O751 1.289 . S
C745 O763 1.245 . S
C745 O764 1.274 . S
O746 C734 1.241 . S
O746 Mg739 2.042 1_554 S
O747 C734 1.280 . S
O747 Mg737 1.984 . S
O748 C735 1.277 . S
O748 Mg739 2.041 . S
O749 C735 1.245 . S
O749 Mg737 1.988 1_556 S
O750 Mg737 2.061 1_455 S
O750 C744 1.247 . S
O751 Mg740 2.111 . S
O751 Mg743 2.238 . S
O751 C744 1.289 . S
C752 O753 1.245 . S
C752 O754 1.274 . S
O753 Mg740 2.083 1_655 S
O753 C752 1.245 . S
O754 Mg739 2.038 1_554 S
O754 C752 1.274 . S
O755 Mg743 2.042 1_556 S
O755 C758 1.241 . S
O756 Mg742 1.984 . S
O756 C758 1.280 . S
O757 Mg743 2.041 . S
O757 C761 1.277 . S
C758 O755 1.241 . S
C758 O756 1.280 . S
O759 Mg742 1.988 1_554 S
O759 C761 1.245 . S
O760 C736 1.247 . S
O760 Mg742 2.061 1_655 S
C761 O757 1.277 . S
C761 O759 1.245 . S
O762 C736 1.289 . S
O762 Mg739 2.238 . S
O762 Mg740 2.102 1_656 S
O763 Mg740 2.074 1_556 S
O763 C745 1.245 . S
O764 Mg743 2.038 1_556 S
O764 C745 1.274 . S
C765 O777 1.241 . S
C765 O778 1.280 . S
C766 O779 1.277 . S
C766 O780 1.245 . S
C767 O791 1.247 . S
C767 O793 1.289 . S
Mg768 O769 1.926 . S
Mg768 O778 1.984 . S
Mg768 O780 1.988 1_554 S
Mg768 O781 2.061 . S
O769 Mg768 1.926 . S
O769 Mg770 1.986 1_554 S
O769 Mg771 1.919 . S
Mg770 O769 1.986 1_556 S
Mg770 O777 2.042 1_556 S
Mg770 O779 2.041 . S
Mg770 O785 2.038 1_556 S
Mg770 O793 2.238 . S
Mg771 O769 1.919 . S
Mg771 O772 1.915 1_554 S
Mg771 O782 2.110 . S
Mg771 O784 2.084 . S
Mg771 O793 2.103 1_554 S
Mg771 O794 2.074 1_554 S
O772 Mg771 1.915 1_556 S
O772 Mg773 1.926 . S
O772 Mg774 1.986 1_556 S
Mg773 O772 1.926 . S
Mg773 O787 1.984 . S
Mg773 O790 1.988 1_556 S
Mg773 O791 2.061 . S
Mg774 O772 1.986 1_554 S
Mg774 O782 2.238 . S
Mg774 O786 2.042 1_554 S
Mg774 O788 2.041 . S
Mg774 O795 2.038 1_554 S
C775 O781 1.247 . S
C775 O782 1.289 . S
C776 O794 1.245 . S
C776 O795 1.274 . S
O777 C765 1.241 . S
O777 Mg770 2.042 1_554 S
O778 C765 1.280 . S
O778 Mg768 1.984 . S
O779 C766 1.277 . S
O779 Mg770 2.041 . S
O780 C766 1.245 . S
O780 Mg768 1.988 1_556 S
O781 Mg768 2.061 . S
O781 C775 1.247 . S
O782 Mg771 2.110 . S
O782 Mg774 2.238 . S
O782 C775 1.289 . S
C783 O784 1.245 . S
C783 O785 1.274 . S
O784 Mg771 2.084 . S
O784 C783 1.245 . S
O785 Mg770 2.038 1_554 S
O785 C783 1.274 . S
O786 Mg774 2.042 1_556 S
O786 C789 1.241 . S
O787 Mg773 1.984 . S
O787 C789 1.280 . S
O788 Mg774 2.041 . S
O788 C792 1.277 . S
C789 O786 1.241 . S
C789 O787 1.280 . S
O790 Mg773 1.988 1_554 S
O790 C792 1.245 . S
O791 C767 1.247 . S
O791 Mg773 2.061 . S
C792 O788 1.277 . S
C792 O790 1.245 . S
O793 C767 1.289 . S
O793 Mg770 2.238 . S
O793 Mg771 2.103 1_556 S
O794 Mg771 2.074 1_556 S
O794 C776 1.245 . S
O795 Mg774 2.038 1_556 S
O795 C776 1.274 . S
C796 O808 1.241 . S
C796 O809 1.280 . S
C797 O810 1.277 . S
C797 O811 1.245 . S
C798 O822 1.247 . S
C798 O824 1.289 . S
Mg799 O800 1.926 . S
Mg799 O809 1.984 . S
Mg799 O811 1.988 . S
Mg799 O812 2.061 1_655 S
O800 Mg799 1.926 . S
O800 Mg801 1.986 . S
O800 Mg802 1.916 1_655 S
Mg801 O800 1.986 . S
Mg801 O808 2.042 . S
Mg801 O810 2.041 . S
Mg801 O816 2.038 . S
Mg801 O824 2.238 . S
Mg802 O800 1.916 1_455 S
Mg802 O803 1.918 . S
Mg802 O813 2.107 . S
Mg802 O815 2.078 1_455 S
Mg802 O824 2.106 1_455 S
Mg802 O825 2.079 . S
O803 Mg802 1.918 . S
O803 Mg804 1.926 . S
O803 Mg805 1.986 . S
Mg804 O803 1.926 . S
Mg804 O818 1.984 . S
Mg804 O821 1.988 . S
Mg804 O822 2.061 1_455 S
Mg805 O803 1.986 . S
Mg805 O813 2.238 . S
Mg805 O817 2.042 . S
Mg805 O819 2.041 . S
Mg805 O826 2.038 . S
C806 O812 1.247 . S
C806 O813 1.289 . S
C807 O825 1.245 . S
C807 O826 1.274 . S
O808 C796 1.241 . S
O808 Mg801 2.042 . S
O809 C796 1.280 . S
O809 Mg799 1.984 . S
O810 C797 1.277 . S
O810 Mg801 2.041 . S
O811 C797 1.245 . S
O811 Mg799 1.988 . S
O812 Mg799 2.061 1_455 S
O812 C806 1.247 . S
O813 Mg802 2.107 . S
O813 Mg805 2.238 . S
O813 C806 1.289 . S
C814 O815 1.245 . S
C814 O816 1.274 . S
O815 Mg802 2.078 1_655 S
O815 C814 1.245 . S
O816 Mg801 2.038 . S
O816 C814 1.274 . S
O817 Mg805 2.042 . S
O817 C820 1.241 . S
O818 Mg804 1.984 . S
O818 C820 1.280 . S
O819 Mg805 2.041 . S
O819 C823 1.277 . S
C820 O817 1.241 . S
C820 O818 1.280 . S
O821 Mg804 1.988 . S
O821 C823 1.245 . S
O822 C798 1.247 . S
O822 Mg804 2.061 1_655 S
C823 O819 1.277 . S
C823 O821 1.245 . S
O824 C798 1.289 . S
O824 Mg801 2.238 . S
O824 Mg802 2.106 1_655 S
O825 Mg802 2.079 . S
O825 C807 1.245 . S
O826 Mg805 2.038 . S
O826 C807 1.274 . S
C827 O839 1.241 . S
C827 O840 1.280 . S
C828 O841 1.277 . S
C828 O842 1.245 . S
C829 O853 1.247 . S
C829 O855 1.289 . S
Mg830 O831 1.926 . S
Mg830 O840 1.984 . S
Mg830 O842 1.988 . S
Mg830 O843 2.061 . S
O831 Mg830 1.926 . S
O831 Mg832 1.986 1_545 S
O831 Mg833 1.920 . S
Mg832 O831 1.986 1_565 S
Mg832 O839 2.042 1_565 S
Mg832 O841 2.041 1_565 S
Mg832 O847 2.038 . S
Mg832 O855 2.238 . S
Mg833 O831 1.920 . S
Mg833 O834 1.914 1_545 S
Mg833 O844 2.107 . S
Mg833 O846 2.077 1_545 S
Mg833 O855 2.106 1_545 S
Mg833 O856 2.080 . S
O834 Mg833 1.914 1_565 S
O834 Mg835 1.926 . S
O834 Mg836 1.986 1_565 S
Mg835 O834 1.926 . S
Mg835 O849 1.984 . S
Mg835 O852 1.988 . S
Mg835 O853 2.061 . S
Mg836 O834 1.986 1_545 S
Mg836 O844 2.238 . S
Mg836 O848 2.042 1_545 S
Mg836 O850 2.041 1_545 S
Mg836 O857 2.038 . S
C837 O843 1.247 . S
C837 O844 1.289 . S
C838 O856 1.245 . S
C838 O857 1.274 . S
O839 C827 1.241 . S
O839 Mg832 2.042 1_545 S
O840 C827 1.280 . S
O840 Mg830 1.984 . S
O841 C828 1.277 . S
O841 Mg832 2.041 1_545 S
O842 C828 1.245 . S
O842 Mg830 1.988 . S
O843 Mg830 2.061 . S
O843 C837 1.247 . S
O844 Mg833 2.107 . S
O844 Mg836 2.238 . S
O844 C837 1.289 . S
C845 O846 1.245 . S
C845 O847 1.274 . S
O846 Mg833 2.077 1_565 S
O846 C845 1.245 . S
O847 Mg832 2.038 . S
O847 C845 1.274 . S
O848 Mg836 2.042 1_565 S
O848 C851 1.241 . S
O849 Mg835 1.984 . S
O849 C851 1.280 . S
O850 Mg836 2.041 1_565 S
O850 C854 1.277 . S
C851 O848 1.241 . S
C851 O849 1.280 . S
O852 Mg835 1.988 . S
O852 C854 1.245 . S
O853 C829 1.247 . S
O853 Mg835 2.061 . S
C854 O850 1.277 . S
C854 O852 1.245 . S
O855 C829 1.289 . S
O855 Mg832 2.238 . S
O855 Mg833 2.106 1_565 S
O856 Mg833 2.080 . S
O856 C838 1.245 . S
O857 Mg836 2.038 . S
O857 C838 1.274 . S
C858 C859 1.391 . S
C858 C860 1.394 . S
C858 H874 0.931 . S
C859 C858 1.391 . S
C859 C863 1.376 . S
C860 C858 1.394 . S
C860 C861 1.369 . S
C860 C864 1.531 . S
C861 C860 1.369 . S
C861 C862 1.410 . S
C861 C869 1.503 . S
C862 C861 1.410 . S
C862 C863 1.392 . S
C862 C865 1.511 . S
C863 C859 1.376 . S
C863 C862 1.392 . S
C863 H875 0.929 . S
C864 C860 1.531 . S
C864 H876 0.960 . S
C864 H877 0.962 . S
C864 H878 0.960 . S
C865 C862 1.511 . S
C865 H879 0.961 . S
C865 H880 0.961 . S
C865 H881 0.961 . S
C866 C867 1.370 . S
C866 C868 1.363 . S
C866 H882 0.931 . S
C867 C866 1.370 . S
C867 C871 1.408 . S
C868 C866 1.363 . S
C868 C869 1.370 . S
C868 C872 1.524 . S
C869 C861 1.503 . S
C869 C868 1.370 . S
C869 C870 1.403 . S
C870 C869 1.403 . S
C870 C871 1.404 . S
C870 C873 1.539 . S
C871 C867 1.408 . S
C871 C870 1.404 . S
C871 H883 0.930 . S
C872 C868 1.524 . S
C872 H884 0.956 . S
C872 H885 0.961 . S
C872 H886 0.961 . S
C873 C870 1.539 . S
C873 H887 0.958 . S
C873 H888 0.961 . S
C873 H889 0.960 . S
H874 C858 0.931 . S
H875 C863 0.929 . S
H876 C864 0.960 . S
H877 C864 0.962 . S
H878 C864 0.960 . S
H879 C865 0.961 . S
H880 C865 0.961 . S
H881 C865 0.961 . S
H882 C866 0.931 . S
H883 C871 0.930 . S
H884 C872 0.956 . S
H885 C872 0.961 . S
H886 C872 0.961 . S
H887 C873 0.958 . S
H888 C873 0.961 . S
H889 C873 0.960 . S
C890 C891 1.391 . S
C890 C892 1.394 . S
C890 H906 0.931 . S
C891 C890 1.391 . S
C891 C895 1.376 . S
C892 C890 1.394 . S
C892 C893 1.369 . S
C892 C896 1.531 . S
C893 C892 1.369 . S
C893 C894 1.410 . S
C893 C901 1.503 . S
C894 C893 1.410 . S
C894 C895 1.392 . S
C894 C897 1.511 . S
C895 C891 1.376 . S
C895 C894 1.392 . S
C895 H907 0.929 . S
C896 C892 1.531 . S
C896 H908 0.960 . S
C896 H909 0.962 . S
C896 H910 0.960 . S
C897 C894 1.511 . S
C897 H911 0.961 . S
C897 H912 0.961 . S
C897 H913 0.961 . S
C898 C899 1.370 . S
C898 C900 1.363 . S
C898 H914 0.931 . S
C899 C898 1.370 . S
C899 C903 1.408 . S
C900 C898 1.363 . S
C900 C901 1.370 . S
C900 C904 1.524 . S
C901 C893 1.503 . S
C901 C900 1.370 . S
C901 C902 1.403 . S
C902 C901 1.403 . S
C902 C903 1.404 . S
C902 C905 1.539 . S
C903 C899 1.408 . S
C903 C902 1.404 . S
C903 H915 0.930 . S
C904 C900 1.524 . S
C904 H916 0.956 . S
C904 H917 0.961 . S
C904 H918 0.961 . S
C905 C902 1.539 . S
C905 H919 0.958 . S
C905 H920 0.937 1_545 S
C905 H921 0.960 . S
H906 C890 0.931 . S
H907 C895 0.929 . S
H908 C896 0.960 . S
H909 C896 0.962 . S
H910 C896 0.960 . S
H911 C897 0.961 . S
H912 C897 0.961 . S
H913 C897 0.961 . S
H914 C898 0.931 . S
H915 C903 0.930 . S
H916 C904 0.956 . S
H917 C904 0.961 . S
H918 C904 0.961 . S
H919 C905 0.958 . S
H920 C905 0.937 1_565 S
H921 C905 0.960 . S
C922 C923 1.391 . S
C922 C924 1.394 . S
C922 H938 0.931 . S
C923 C922 1.391 . S
C923 C927 1.376 . S
C924 C922 1.394 . S
C924 C925 1.369 . S
C924 C928 1.531 . S
C925 C924 1.369 . S
C925 C926 1.410 . S
C925 C933 1.503 . S
C926 C925 1.410 . S
C926 C927 1.392 . S
C926 C929 1.511 . S
C927 C923 1.376 . S
C927 C926 1.392 . S
C927 H939 0.929 . S
C928 C924 1.531 . S
C928 H940 0.960 . S
C928 H941 0.962 . S
C928 H942 0.960 . S
C929 C926 1.511 . S
C929 H943 0.961 . S
C929 H944 0.961 . S
C929 H945 0.961 . S
C930 C931 1.370 . S
C930 C932 1.363 . S
C930 H946 0.931 . S
C931 C930 1.370 . S
C931 C935 1.408 . S
C932 C930 1.363 . S
C932 C933 1.370 . S
C932 C936 1.524 . S
C933 C925 1.503 . S
C933 C932 1.370 . S
C933 C934 1.403 . S
C934 C933 1.403 . S
C934 C935 1.404 . S
C934 C937 1.539 . S
C935 C931 1.408 . S
C935 C934 1.404 . S
C935 H947 0.930 . S
C936 C932 1.524 . S
C936 H948 0.956 . S
C936 H949 0.961 . S
C936 H950 0.961 . S
C937 C934 1.539 . S
C937 H951 0.958 . S
C937 H952 0.961 . S
C937 H953 0.960 . S
H938 C922 0.931 . S
H939 C927 0.929 . S
H940 C928 0.960 . S
H941 C928 0.962 . S
H942 C928 0.960 . S
H943 C929 0.961 . S
H944 C929 0.961 . S
H945 C929 0.961 . S
H946 C930 0.931 . S
H947 C935 0.930 . S
H948 C936 0.956 . S
H949 C936 0.961 . S
H950 C936 0.961 . S
H951 C937 0.958 . S
H952 C937 0.961 . S
H953 C937 0.960 . S
C954 C955 1.391 . S
C954 C956 1.394 . S
C954 H970 0.931 . S
C955 C954 1.391 . S
C955 C959 1.376 . S
C956 C954 1.394 . S
C956 C957 1.369 . S
C956 C960 1.531 . S
C957 C956 1.369 . S
C957 C958 1.410 . S
C957 C965 1.503 . S
C958 C957 1.410 . S
C958 C959 1.392 . S
C958 C961 1.511 . S
C959 C955 1.376 . S
C959 C958 1.392 . S
C959 H971 0.929 . S
C960 C956 1.531 . S
C960 H972 0.960 . S
C960 H973 0.962 . S
C960 H974 0.960 . S
C961 C958 1.511 . S
C961 H975 0.961 . S
C961 H976 0.961 . S
C961 H977 0.961 . S
C962 C963 1.370 . S
C962 C964 1.363 . S
C962 H978 0.931 . S
C963 C962 1.370 . S
C963 C967 1.408 . S
C964 C962 1.363 . S
C964 C965 1.370 . S
C964 C968 1.524 . S
C965 C957 1.503 . S
C965 C964 1.370 . S
C965 C966 1.403 . S
C966 C965 1.403 . S
C966 C967 1.404 . S
C966 C969 1.539 . S
C967 C963 1.408 . S
C967 C966 1.404 . S
C967 H979 0.930 . S
C968 C964 1.524 . S
C968 H980 0.956 . S
C968 H981 0.961 . S
C968 H982 0.961 . S
C969 C966 1.539 . S
C969 H983 0.958 . S
C969 H984 0.961 . S
C969 H985 0.960 . S
H970 C954 0.931 . S
H971 C959 0.929 . S
H972 C960 0.960 . S
H973 C960 0.962 . S
H974 C960 0.960 . S
H975 C961 0.961 . S
H976 C961 0.961 . S
H977 C961 0.961 . S
H978 C962 0.931 . S
H979 C967 0.930 . S
H980 C968 0.956 . S
H981 C968 0.961 . S
H982 C968 0.961 . S
H983 C969 0.958 . S
H984 C969 0.961 . S
H985 C969 0.960 . S
C986 C987 1.391 . S
C986 C988 1.394 . S
C986 H1002 0.931 . S
C987 C986 1.391 . S
C987 C991 1.376 . S
C988 C986 1.394 . S
C988 C989 1.369 . S
C988 C992 1.531 . S
C989 C988 1.369 . S
C989 C990 1.410 . S
C989 C997 1.503 . S
C990 C989 1.410 . S
C990 C991 1.392 . S
C990 C993 1.511 . S
C991 C987 1.376 . S
C991 C990 1.392 . S
C991 H1003 0.929 . S
C992 C988 1.531 . S
C992 H1004 0.960 . S
C992 H1005 0.962 . S
C992 H1006 0.960 . S
C993 C990 1.511 . S
C993 H1007 0.961 . S
C993 H1008 0.961 . S
C993 H1009 0.961 . S
C994 C995 1.370 . S
C994 C996 1.363 . S
C994 H1010 0.931 . S
C995 C994 1.370 . S
C995 C999 1.408 . S
C996 C994 1.363 . S
C996 C997 1.370 . S
C996 C1000 1.524 . S
C997 C989 1.503 . S
C997 C996 1.370 . S
C997 C998 1.403 . S
C998 C997 1.403 . S
C998 C999 1.404 . S
C998 C1001 1.539 . S
C999 C995 1.408 . S
C999 C998 1.404 . S
C999 H1011 0.930 . S
C1000 C996 1.524 . S
C1000 H1012 0.956 . S
C1000 H1013 0.961 . S
C1000 H1014 0.961 . S
C1001 C998 1.539 . S
C1001 H1015 0.958 . S
C1001 H1016 0.961 . S
C1001 H1017 0.960 . S
H1002 C986 0.931 . S
H1003 C991 0.929 . S
H1004 C992 0.960 . S
H1005 C992 0.962 . S
H1006 C992 0.960 . S
H1007 C993 0.961 . S
H1008 C993 0.961 . S
H1009 C993 0.961 . S
H1010 C994 0.931 . S
H1011 C999 0.930 . S
H1012 C1000 0.956 . S
H1013 C1000 0.961 . S
H1014 C1000 0.961 . S
H1015 C1001 0.958 . S
H1016 C1001 0.961 . S
H1017 C1001 0.960 . S
C1018 C1019 1.391 . S
C1018 C1020 1.394 . S
C1018 H1034 0.931 . S
C1019 C1018 1.391 . S
C1019 C1023 1.376 . S
C1020 C1018 1.394 . S
C1020 C1021 1.369 . S
C1020 C1024 1.531 . S
C1021 C1020 1.369 . S
C1021 C1022 1.410 . S
C1021 C1029 1.503 . S
C1022 C1021 1.410 . S
C1022 C1023 1.392 . S
C1022 C1025 1.511 . S
C1023 C1019 1.376 . S
C1023 C1022 1.392 . S
C1023 H1035 0.929 . S
C1024 C1020 1.531 . S
C1024 H1036 0.960 . S
C1024 H1037 0.962 . S
C1024 H1038 0.960 . S
C1025 C1022 1.511 . S
C1025 H1039 0.961 . S
C1025 H1040 0.961 . S
C1025 H1041 0.961 . S
C1026 C1027 1.370 . S
C1026 C1028 1.363 . S
C1026 H1042 0.931 . S
C1027 C1026 1.370 . S
C1027 C1031 1.408 . S
C1028 C1026 1.363 . S
C1028 C1029 1.370 . S
C1028 C1032 1.524 . S
C1029 C1021 1.503 . S
C1029 C1028 1.370 . S
C1029 C1030 1.403 . S
C1030 C1029 1.403 . S
C1030 C1031 1.404 . S
C1030 C1033 1.539 . S
C1031 C1027 1.408 . S
C1031 C1030 1.404 . S
C1031 H1043 0.930 . S
C1032 C1028 1.524 . S
C1032 H1044 0.956 . S
C1032 H1045 0.961 . S
C1032 H1046 0.961 . S
C1033 C1030 1.539 . S
C1033 H1047 0.958 . S
C1033 H1048 0.961 . S
C1033 H1049 0.960 . S
H1034 C1018 0.931 . S
H1035 C1023 0.929 . S
H1036 C1024 0.960 . S
H1037 C1024 0.962 . S
H1038 C1024 0.960 . S
H1039 C1025 0.961 . S
H1040 C1025 0.961 . S
H1041 C1025 0.961 . S
H1042 C1026 0.931 . S
H1043 C1031 0.930 . S
H1044 C1032 0.956 . S
H1045 C1032 0.961 . S
H1046 C1032 0.961 . S
H1047 C1033 0.958 . S
H1048 C1033 0.961 . S
H1049 C1033 0.960 . S
C1050 C1051 1.391 . S
C1050 C1052 1.394 . S
C1050 H1066 0.931 . S
C1051 C1050 1.391 . S
C1051 C1055 1.376 . S
C1052 C1050 1.394 . S
C1052 C1053 1.369 . S
C1052 C1056 1.531 . S
C1053 C1052 1.369 . S
C1053 C1054 1.410 . S
C1053 C1061 1.503 . S
C1054 C1053 1.410 . S
C1054 C1055 1.392 . S
C1054 C1057 1.511 . S
C1055 C1051 1.376 . S
C1055 C1054 1.392 . S
C1055 H1067 0.929 . S
C1056 C1052 1.531 . S
C1056 H1068 0.960 . S
C1056 H1069 0.962 . S
C1056 H1070 0.960 . S
C1057 C1054 1.511 . S
C1057 H1071 0.961 . S
C1057 H1072 0.961 . S
C1057 H1073 0.961 . S
C1058 C1059 1.370 . S
C1058 C1060 1.363 . S
C1058 H1074 0.931 . S
C1059 C1058 1.370 . S
C1059 C1063 1.408 . S
C1060 C1058 1.363 . S
C1060 C1061 1.370 . S
C1060 C1064 1.524 . S
C1061 C1053 1.503 . S
C1061 C1060 1.370 . S
C1061 C1062 1.403 . S
C1062 C1061 1.403 . S
C1062 C1063 1.404 . S
C1062 C1065 1.539 . S
C1063 C1059 1.408 . S
C1063 C1062 1.404 . S
C1063 H1075 0.930 . S
C1064 C1060 1.524 . S
C1064 H1076 0.956 . S
C1064 H1077 0.961 . S
C1064 H1078 0.961 . S
C1065 C1062 1.539 . S
C1065 H1079 0.958 . S
C1065 H1080 0.961 . S
C1065 H1081 0.960 . S
H1066 C1050 0.931 . S
H1067 C1055 0.929 . S
H1068 C1056 0.960 . S
H1069 C1056 0.962 . S
H1070 C1056 0.960 . S
H1071 C1057 0.961 . S
H1072 C1057 0.961 . S
H1073 C1057 0.961 . S
H1074 C1058 0.931 . S
H1075 C1063 0.930 . S
H1076 C1064 0.956 . S
H1077 C1064 0.961 . S
H1078 C1064 0.961 . S
H1079 C1065 0.958 . S
H1080 C1065 0.961 . S
H1081 C1065 0.960 . S
C1082 C1083 1.391 . S
C1082 C1084 1.394 . S
C1082 H1098 0.931 . S
C1083 C1082 1.391 . S
C1083 C1087 1.376 . S
C1084 C1082 1.394 . S
C1084 C1085 1.369 . S
C1084 C1088 1.531 . S
C1085 C1084 1.369 . S
C1085 C1086 1.410 . S
C1085 C1093 1.503 . S
C1086 C1085 1.410 . S
C1086 C1087 1.392 . S
C1086 C1089 1.511 . S
C1087 C1083 1.376 . S
C1087 C1086 1.392 . S
C1087 H1099 0.929 . S
C1088 C1084 1.531 . S
C1088 H1100 0.960 . S
C1088 H1101 0.962 . S
C1088 H1102 0.960 . S
C1089 C1086 1.511 . S
C1089 H1103 0.961 . S
C1089 H1104 0.961 . S
C1089 H1105 0.961 . S
C1090 C1091 1.370 . S
C1090 C1092 1.363 . S
C1090 H1106 0.931 . S
C1091 C1090 1.370 . S
C1091 C1095 1.408 . S
C1092 C1090 1.363 . S
C1092 C1093 1.370 . S
C1092 C1096 1.524 . S
C1093 C1085 1.503 . S
C1093 C1092 1.370 . S
C1093 C1094 1.403 . S
C1094 C1093 1.403 . S
C1094 C1095 1.404 . S
C1094 C1097 1.539 . S
C1095 C1091 1.408 . S
C1095 C1094 1.404 . S
C1095 H1107 0.930 . S
C1096 C1092 1.524 . S
C1096 H1108 0.956 . S
C1096 H1109 0.961 . S
C1096 H1110 0.961 . S
C1097 C1094 1.539 . S
C1097 H1111 0.958 . S
C1097 H1112 0.961 . S
C1097 H1113 0.960 . S
H1098 C1082 0.931 . S
H1099 C1087 0.929 . S
H1100 C1088 0.960 . S
H1101 C1088 0.962 . S
H1102 C1088 0.960 . S
H1103 C1089 0.961 . S
H1104 C1089 0.961 . S
H1105 C1089 0.961 . S
H1106 C1090 0.931 . S
H1107 C1095 0.930 . S
H1108 C1096 0.956 . S
H1109 C1096 0.961 . S
H1110 C1096 0.961 . S
H1111 C1097 0.958 . S
H1112 C1097 0.961 . S
H1113 C1097 0.960 . S
C1114 C1115 1.391 . S
C1114 C1116 1.394 . S
C1114 H1130 0.931 . S
C1115 C1114 1.391 . S
C1115 C1119 1.376 . S
C1116 C1114 1.394 . S
C1116 C1117 1.369 . S
C1116 C1120 1.531 . S
C1117 C1116 1.369 . S
C1117 C1118 1.410 . S
C1117 C1125 1.503 . S
C1118 C1117 1.410 . S
C1118 C1119 1.392 . S
C1118 C1121 1.511 . S
C1119 C1115 1.376 . S
C1119 C1118 1.392 . S
C1119 H1131 0.929 . S
C1120 C1116 1.531 . S
C1120 H1132 0.960 . S
C1120 H1133 0.962 . S
C1120 H1134 0.960 . S
C1121 C1118 1.511 . S
C1121 H1135 0.961 . S
C1121 H1136 0.961 . S
C1121 H1137 0.961 . S
C1122 C1123 1.370 . S
C1122 C1124 1.363 . S
C1122 H1138 0.931 . S
C1123 C1122 1.370 . S
C1123 C1127 1.408 . S
C1124 C1122 1.363 . S
C1124 C1125 1.370 . S
C1124 C1128 1.524 . S
C1125 C1117 1.503 . S
C1125 C1124 1.370 . S
C1125 C1126 1.403 . S
C1126 C1125 1.403 . S
C1126 C1127 1.404 . S
C1126 C1129 1.539 . S
C1127 C1123 1.408 . S
C1127 C1126 1.404 . S
C1127 H1139 0.930 . S
C1128 C1124 1.524 . S
C1128 H1140 0.956 . S
C1128 H1141 0.961 . S
C1128 H1142 0.961 . S
C1129 C1126 1.539 . S
C1129 H1143 0.958 1_545 S
C1129 H1144 0.961 1_545 S
C1129 H1145 0.960 . S
H1130 C1114 0.931 . S
H1131 C1119 0.929 . S
H1132 C1120 0.960 . S
H1133 C1120 0.962 . S
H1134 C1120 0.960 . S
H1135 C1121 0.961 . S
H1136 C1121 0.961 . S
H1137 C1121 0.961 . S
H1138 C1122 0.931 . S
H1139 C1127 0.930 . S
H1140 C1128 0.956 . S
H1141 C1128 0.961 . S
H1142 C1128 0.961 . S
H1143 C1129 0.958 1_565 S
H1144 C1129 0.961 1_565 S
H1145 C1129 0.960 . S
C1146 C1147 1.391 . S
C1146 C1148 1.394 . S
C1146 H1162 0.931 . S
C1147 C1146 1.391 . S
C1147 C1151 1.376 . S
C1148 C1146 1.394 . S
C1148 C1149 1.369 . S
C1148 C1152 1.531 . S
C1149 C1148 1.369 . S
C1149 C1150 1.410 . S
C1149 C1157 1.503 . S
C1150 C1149 1.410 . S
C1150 C1151 1.392 . S
C1150 C1153 1.511 . S
C1151 C1147 1.376 . S
C1151 C1150 1.392 . S
C1151 H1163 0.929 . S
C1152 C1148 1.531 . S
C1152 H1164 0.960 . S
C1152 H1165 0.962 . S
C1152 H1166 0.960 . S
C1153 C1150 1.511 . S
C1153 H1167 0.961 . S
C1153 H1168 0.961 . S
C1153 H1169 0.961 . S
C1154 C1155 1.370 . S
C1154 C1156 1.363 . S
C1154 H1170 0.931 . S
C1155 C1154 1.370 . S
C1155 C1159 1.408 . S
C1156 C1154 1.363 . S
C1156 C1157 1.370 . S
C1156 C1160 1.524 . S
C1157 C1149 1.503 . S
C1157 C1156 1.370 . S
C1157 C1158 1.403 . S
C1158 C1157 1.403 . S
C1158 C1159 1.404 . S
C1158 C1161 1.539 . S
C1159 C1155 1.408 . S
C1159 C1158 1.404 . S
C1159 H1171 0.930 . S
C1160 C1156 1.524 . S
C1160 H1172 0.956 . S
C1160 H1173 0.961 . S
C1160 H1174 0.961 . S
C1161 C1158 1.539 . S
C1161 H1175 0.958 . S
C1161 H1176 0.961 . S
C1161 H1177 0.960 . S
H1162 C1146 0.931 . S
H1163 C1151 0.929 . S
H1164 C1152 0.960 . S
H1165 C1152 0.962 . S
H1166 C1152 0.960 . S
H1167 C1153 0.961 . S
H1168 C1153 0.961 . S
H1169 C1153 0.961 . S
H1170 C1154 0.931 . S
H1171 C1159 0.930 . S
H1172 C1160 0.956 . S
H1173 C1160 0.961 . S
H1174 C1160 0.961 . S
H1175 C1161 0.958 . S
H1176 C1161 0.961 . S
H1177 C1161 0.960 . S
C1178 C1179 1.391 . S
C1178 C1180 1.394 . S
C1178 H1194 0.931 . S
C1179 C1178 1.391 . S
C1179 C1183 1.376 . S
C1180 C1178 1.394 . S
C1180 C1181 1.369 . S
C1180 C1184 1.531 . S
C1181 C1180 1.369 . S
C1181 C1182 1.410 . S
C1181 C1189 1.503 . S
C1182 C1181 1.410 . S
C1182 C1183 1.392 . S
C1182 C1185 1.511 . S
C1183 C1179 1.376 . S
C1183 C1182 1.392 . S
C1183 H1195 0.929 . S
C1184 C1180 1.531 . S
C1184 H1196 0.960 . S
C1184 H1197 0.962 . S
C1184 H1198 0.960 . S
C1185 C1182 1.511 . S
C1185 H1199 0.961 . S
C1185 H1200 0.961 . S
C1185 H1201 0.961 . S
C1186 C1187 1.370 . S
C1186 C1188 1.363 . S
C1186 H1202 0.931 . S
C1187 C1186 1.370 . S
C1187 C1191 1.408 . S
C1188 C1186 1.363 . S
C1188 C1189 1.370 . S
C1188 C1192 1.524 . S
C1189 C1181 1.503 . S
C1189 C1188 1.370 . S
C1189 C1190 1.403 . S
C1190 C1189 1.403 . S
C1190 C1191 1.404 . S
C1190 C1193 1.539 . S
C1191 C1187 1.408 . S
C1191 C1190 1.404 . S
C1191 H1203 0.930 . S
C1192 C1188 1.524 . S
C1192 H1204 0.956 . S
C1192 H1205 0.961 . S
C1192 H1206 0.961 . S
C1193 C1190 1.539 . S
C1193 H1207 0.958 . S
C1193 H1208 0.961 . S
C1193 H1209 0.960 . S
H1194 C1178 0.931 . S
H1195 C1183 0.929 . S
H1196 C1184 0.960 . S
H1197 C1184 0.962 . S
H1198 C1184 0.960 . S
H1199 C1185 0.961 . S
H1200 C1185 0.961 . S
H1201 C1185 0.961 . S
H1202 C1186 0.931 . S
H1203 C1191 0.930 . S
H1204 C1192 0.956 . S
H1205 C1192 0.961 . S
H1206 C1192 0.961 . S
H1207 C1193 0.958 . S
H1208 C1193 0.961 . S
H1209 C1193 0.960 . S
C1210 C1211 1.391 . S
C1210 C1212 1.394 . S
C1210 H1226 0.931 . S
C1211 C1210 1.391 . S
C1211 C1215 1.376 . S
C1212 C1210 1.394 . S
C1212 C1213 1.369 . S
C1212 C1216 1.531 . S
C1213 C1212 1.369 . S
C1213 C1214 1.410 . S
C1213 C1221 1.503 . S
C1214 C1213 1.410 . S
C1214 C1215 1.392 . S
C1214 C1217 1.511 . S
C1215 C1211 1.376 . S
C1215 C1214 1.392 . S
C1215 H1227 0.929 . S
C1216 C1212 1.531 . S
C1216 H1228 0.960 . S
C1216 H1229 0.962 . S
C1216 H1230 0.960 . S
C1217 C1214 1.511 . S
C1217 H1231 0.961 . S
C1217 H1232 0.961 . S
C1217 H1233 0.961 . S
C1218 C1219 1.370 . S
C1218 C1220 1.363 . S
C1218 H1234 0.931 . S
C1219 C1218 1.370 . S
C1219 C1223 1.408 . S
C1220 C1218 1.363 . S
C1220 C1221 1.370 . S
C1220 C1224 1.524 . S
C1221 C1213 1.503 . S
C1221 C1220 1.370 . S
C1221 C1222 1.403 . S
C1222 C1221 1.403 . S
C1222 C1223 1.404 . S
C1222 C1225 1.539 . S
C1223 C1219 1.408 . S
C1223 C1222 1.404 . S
C1223 H1235 0.930 . S
C1224 C1220 1.524 . S
C1224 H1236 0.956 . S
C1224 H1237 0.961 . S
C1224 H1238 0.961 . S
C1225 C1222 1.539 . S
C1225 H1239 0.958 . S
C1225 H1240 0.961 . S
C1225 H1241 0.960 . S
H1226 C1210 0.931 . S
H1227 C1215 0.929 . S
H1228 C1216 0.960 . S
H1229 C1216 0.962 . S
H1230 C1216 0.960 . S
H1231 C1217 0.961 . S
H1232 C1217 0.961 . S
H1233 C1217 0.961 . S
H1234 C1218 0.931 . S
H1235 C1223 0.930 . S
H1236 C1224 0.956 . S
H1237 C1224 0.961 . S
H1238 C1224 0.961 . S
H1239 C1225 0.958 . S
H1240 C1225 0.961 . S
H1241 C1225 0.960 . S
C1242 C1243 1.391 . S
C1242 C1244 1.394 . S
C1242 H1258 0.931 . S
C1243 C1242 1.391 . S
C1243 C1247 1.376 . S
C1244 C1242 1.394 . S
C1244 C1245 1.369 . S
C1244 C1248 1.531 . S
C1245 C1244 1.369 . S
C1245 C1246 1.410 . S
C1245 C1253 1.503 . S
C1246 C1245 1.410 . S
C1246 C1247 1.392 . S
C1246 C1249 1.511 . S
C1247 C1243 1.376 . S
C1247 C1246 1.392 . S
C1247 H1259 0.929 . S
C1248 C1244 1.531 . S
C1248 H1260 0.960 . S
C1248 H1261 0.962 . S
C1248 H1262 0.960 . S
C1249 C1246 1.511 . S
C1249 H1263 0.961 . S
C1249 H1264 0.961 . S
C1249 H1265 0.961 . S
C1250 C1251 1.370 . S
C1250 C1252 1.363 . S
C1250 H1266 0.931 . S
C1251 C1250 1.370 . S
C1251 C1255 1.408 . S
C1252 C1250 1.363 . S
C1252 C1253 1.370 . S
C1252 C1256 1.524 . S
C1253 C1245 1.503 . S
C1253 C1252 1.370 . S
C1253 C1254 1.403 . S
C1254 C1253 1.403 . S
C1254 C1255 1.404 . S
C1254 C1257 1.539 . S
C1255 C1251 1.408 . S
C1255 C1254 1.404 . S
C1255 H1267 0.930 . S
C1256 C1252 1.524 . S
C1256 H1268 0.956 . S
C1256 H1269 0.961 . S
C1256 H1270 0.961 . S
C1257 C1254 1.539 . S
C1257 H1271 0.958 . S
C1257 H1272 0.961 . S
C1257 H1273 0.960 . S
H1258 C1242 0.931 . S
H1259 C1247 0.929 . S
H1260 C1248 0.960 . S
H1261 C1248 0.962 . S
H1262 C1248 0.960 . S
H1263 C1249 0.961 . S
H1264 C1249 0.961 . S
H1265 C1249 0.961 . S
H1266 C1250 0.931 . S
H1267 C1255 0.930 . S
H1268 C1256 0.956 . S
H1269 C1256 0.961 . S
H1270 C1256 0.961 . S
H1271 C1257 0.958 . S
H1272 C1257 0.961 . S
H1273 C1257 0.960 . S
C1274 C1275 1.391 . S
C1274 C1276 1.394 . S
C1274 H1290 0.931 . S
C1275 C1274 1.391 . S
C1275 C1279 1.376 . S
C1276 C1274 1.394 . S
C1276 C1277 1.369 . S
C1276 C1280 1.531 . S
C1277 C1276 1.369 . S
C1277 C1278 1.410 . S
C1277 C1285 1.503 . S
C1278 C1277 1.410 . S
C1278 C1279 1.392 . S
C1278 C1281 1.511 . S
C1279 C1275 1.376 . S
C1279 C1278 1.392 . S
C1279 H1291 0.929 . S
C1280 C1276 1.531 . S
C1280 H1292 0.960 . S
C1280 H1293 0.962 . S
C1280 H1294 0.960 . S
C1281 C1278 1.511 . S
C1281 H1295 0.961 . S
C1281 H1296 0.961 . S
C1281 H1297 0.961 . S
C1282 C1283 1.370 . S
C1282 C1284 1.363 . S
C1282 H1298 0.931 . S
C1283 C1282 1.370 . S
C1283 C1287 1.408 . S
C1284 C1282 1.363 . S
C1284 C1285 1.370 . S
C1284 C1288 1.524 . S
C1285 C1277 1.503 . S
C1285 C1284 1.370 . S
C1285 C1286 1.403 . S
C1286 C1285 1.403 . S
C1286 C1287 1.404 . S
C1286 C1289 1.539 . S
C1287 C1283 1.408 . S
C1287 C1286 1.404 . S
C1287 H1299 0.930 . S
C1288 C1284 1.524 . S
C1288 H1300 0.956 . S
C1288 H1301 0.961 . S
C1288 H1302 0.961 . S
C1289 C1286 1.539 . S
C1289 H1303 0.958 . S
C1289 H1304 0.961 . S
C1289 H1305 0.960 . S
H1290 C1274 0.931 . S
H1291 C1279 0.929 . S
H1292 C1280 0.960 . S
H1293 C1280 0.962 . S
H1294 C1280 0.960 . S
H1295 C1281 0.961 . S
H1296 C1281 0.961 . S
H1297 C1281 0.961 . S
H1298 C1282 0.931 . S
H1299 C1287 0.930 . S
H1300 C1288 0.956 . S
H1301 C1288 0.961 . S
H1302 C1288 0.961 . S
H1303 C1289 0.958 . S
H1304 C1289 0.961 . S
H1305 C1289 0.960 . S
C1306 C1307 1.391 . S
C1306 C1308 1.394 . S
C1306 H1322 0.931 . S
C1307 C1306 1.391 . S
C1307 C1311 1.376 . S
C1308 C1306 1.394 . S
C1308 C1309 1.369 . S
C1308 C1312 1.531 . S
C1309 C1308 1.369 . S
C1309 C1310 1.410 . S
C1309 C1317 1.503 . S
C1310 C1309 1.410 . S
C1310 C1311 1.392 . S
C1310 C1313 1.511 . S
C1311 C1307 1.376 . S
C1311 C1310 1.392 . S
C1311 H1323 0.929 . S
C1312 C1308 1.531 . S
C1312 H1324 0.960 . S
C1312 H1325 0.962 . S
C1312 H1326 0.960 . S
C1313 C1310 1.511 . S
C1313 H1327 0.961 . S
C1313 H1328 0.961 . S
C1313 H1329 0.961 . S
C1314 C1315 1.370 . S
C1314 C1316 1.363 . S
C1314 H1330 0.931 . S
C1315 C1314 1.370 . S
C1315 C1319 1.408 . S
C1316 C1314 1.363 . S
C1316 C1317 1.370 . S
C1316 C1320 1.524 . S
C1317 C1309 1.503 . S
C1317 C1316 1.370 . S
C1317 C1318 1.403 . S
C1318 C1317 1.403 . S
C1318 C1319 1.404 . S
C1318 C1321 1.539 . S
C1319 C1315 1.408 . S
C1319 C1318 1.404 . S
C1319 H1331 0.930 . S
C1320 C1316 1.524 . S
C1320 H1332 0.956 . S
C1320 H1333 0.961 . S
C1320 H1334 0.961 . S
C1321 C1318 1.539 . S
C1321 H1335 0.958 . S
C1321 H1336 0.961 . S
C1321 H1337 0.960 . S
H1322 C1306 0.931 . S
H1323 C1311 0.929 . S
H1324 C1312 0.960 . S
H1325 C1312 0.962 . S
H1326 C1312 0.960 . S
H1327 C1313 0.961 . S
H1328 C1313 0.961 . S
H1329 C1313 0.961 . S
H1330 C1314 0.931 . S
H1331 C1319 0.930 . S
H1332 C1320 0.956 . S
H1333 C1320 0.961 . S
H1334 C1320 0.961 . S
H1335 C1321 0.958 . S
H1336 C1321 0.961 . S
H1337 C1321 0.960 . S
C1338 C1339 1.391 . S
C1338 C1340 1.394 . S
C1338 H1354 0.931 . S
C1339 C1338 1.391 . S
C1339 C1343 1.376 . S
C1340 C1338 1.394 . S
C1340 C1341 1.369 . S
C1340 C1344 1.531 . S
C1341 C1340 1.369 . S
C1341 C1342 1.410 . S
C1341 C1349 1.503 . S
C1342 C1341 1.410 . S
C1342 C1343 1.392 . S
C1342 C1345 1.511 . S
C1343 C1339 1.376 . S
C1343 C1342 1.392 . S
C1343 H1355 0.929 . S
C1344 C1340 1.531 . S
C1344 H1356 0.960 . S
C1344 H1357 0.962 . S
C1344 H1358 0.960 . S
C1345 C1342 1.511 . S
C1345 H1359 0.961 . S
C1345 H1360 0.961 . S
C1345 H1361 0.961 . S
C1346 C1347 1.370 . S
C1346 C1348 1.363 . S
C1346 H1362 0.931 . S
C1347 C1346 1.370 . S
C1347 C1351 1.408 . S
C1348 C1346 1.363 . S
C1348 C1349 1.370 . S
C1348 C1352 1.524 . S
C1349 C1341 1.503 . S
C1349 C1348 1.370 . S
C1349 C1350 1.403 . S
C1350 C1349 1.403 . S
C1350 C1351 1.404 . S
C1350 C1353 1.539 . S
C1351 C1347 1.408 . S
C1351 C1350 1.404 . S
C1351 H1363 0.930 . S
C1352 C1348 1.524 . S
C1352 H1364 0.956 . S
C1352 H1365 0.961 . S
C1352 H1366 0.961 . S
C1353 C1350 1.539 . S
C1353 H1367 0.958 . S
C1353 H1368 0.961 . S
C1353 H1369 0.960 . S
H1354 C1338 0.931 . S
H1355 C1343 0.929 . S
H1356 C1344 0.960 . S
H1357 C1344 0.962 . S
H1358 C1344 0.960 . S
H1359 C1345 0.961 . S
H1360 C1345 0.961 . S
H1361 C1345 0.961 . S
H1362 C1346 0.931 . S
H1363 C1351 0.930 . S
H1364 C1352 0.956 . S
H1365 C1352 0.961 . S
H1366 C1352 0.961 . S
H1367 C1353 0.958 . S
H1368 C1353 0.961 . S
H1369 C1353 0.960 . S
C1370 C1371 1.391 . S
C1370 C1372 1.394 . S
C1370 H1386 0.931 . S
C1371 C1370 1.391 . S
C1371 C1375 1.376 . S
C1372 C1370 1.394 . S
C1372 C1373 1.369 . S
C1372 C1376 1.531 . S
C1373 C1372 1.369 . S
C1373 C1374 1.410 . S
C1373 C1381 1.503 . S
C1374 C1373 1.410 . S
C1374 C1375 1.392 . S
C1374 C1377 1.511 . S
C1375 C1371 1.376 . S
C1375 C1374 1.392 . S
C1375 H1387 0.929 . S
C1376 C1372 1.531 . S
C1376 H1388 0.960 . S
C1376 H1389 0.962 . S
C1376 H1390 0.960 . S
C1377 C1374 1.511 . S
C1377 H1391 0.961 . S
C1377 H1392 0.961 . S
C1377 H1393 0.961 . S
C1378 C1379 1.370 . S
C1378 C1380 1.363 . S
C1378 H1394 0.931 . S
C1379 C1378 1.370 . S
C1379 C1383 1.408 . S
C1380 C1378 1.363 . S
C1380 C1381 1.370 . S
C1380 C1384 1.524 . S
C1381 C1373 1.503 . S
C1381 C1380 1.370 . S
C1381 C1382 1.403 . S
C1382 C1381 1.403 . S
C1382 C1383 1.404 . S
C1382 C1385 1.539 . S
C1383 C1379 1.408 . S
C1383 C1382 1.404 . S
C1383 H1395 0.930 . S
C1384 C1380 1.524 . S
C1384 H1396 0.956 . S
C1384 H1397 0.961 . S
C1384 H1398 0.961 . S
C1385 C1382 1.539 . S
C1385 H1399 0.958 . S
C1385 H1400 0.961 . S
C1385 H1401 0.960 . S
H1386 C1370 0.931 . S
H1387 C1375 0.929 . S
H1388 C1376 0.960 . S
H1389 C1376 0.962 . S
H1390 C1376 0.960 . S
H1391 C1377 0.961 . S
H1392 C1377 0.961 . S
H1393 C1377 0.961 . S
H1394 C1378 0.931 . S
H1395 C1383 0.930 . S
H1396 C1384 0.956 . S
H1397 C1384 0.961 . S
H1398 C1384 0.961 . S
H1399 C1385 0.958 . S
H1400 C1385 0.961 . S
H1401 C1385 0.960 . S
C1402 C1403 1.391 . S
C1402 C1404 1.394 . S
C1402 H1418 0.931 . S
C1403 C1402 1.391 . S
C1403 C1407 1.376 . S
C1404 C1402 1.394 . S
C1404 C1405 1.369 . S
C1404 C1408 1.531 . S
C1405 C1404 1.369 . S
C1405 C1406 1.410 . S
C1405 C1413 1.503 . S
C1406 C1405 1.410 . S
C1406 C1407 1.392 . S
C1406 C1409 1.511 . S
C1407 C1403 1.376 . S
C1407 C1406 1.392 . S
C1407 H1419 0.929 . S
C1408 C1404 1.531 . S
C1408 H1420 0.960 . S
C1408 H1421 0.962 . S
C1408 H1422 0.960 . S
C1409 C1406 1.511 . S
C1409 H1423 0.961 . S
C1409 H1424 0.961 . S
C1409 H1425 0.961 . S
C1410 C1411 1.370 . S
C1410 C1412 1.363 . S
C1410 H1426 0.931 . S
C1411 C1410 1.370 . S
C1411 C1415 1.408 . S
C1412 C1410 1.363 . S
C1412 C1413 1.370 . S
C1412 C1416 1.524 . S
C1413 C1405 1.503 . S
C1413 C1412 1.370 . S
C1413 C1414 1.403 . S
C1414 C1413 1.403 . S
C1414 C1415 1.404 . S
C1414 C1417 1.539 . S
C1415 C1411 1.408 . S
C1415 C1414 1.404 . S
C1415 H1427 0.930 . S
C1416 C1412 1.524 . S
C1416 H1428 0.956 . S
C1416 H1429 0.961 . S
C1416 H1430 0.961 . S
C1417 C1414 1.539 . S
C1417 H1431 0.958 . S
C1417 H1432 0.961 . S
C1417 H1433 0.960 . S
H1418 C1402 0.931 . S
H1419 C1407 0.929 . S
H1420 C1408 0.960 . S
H1421 C1408 0.962 . S
H1422 C1408 0.960 . S
H1423 C1409 0.961 . S
H1424 C1409 0.961 . S
H1425 C1409 0.961 . S
H1426 C1410 0.931 . S
H1427 C1415 0.930 . S
H1428 C1416 0.956 . S
H1429 C1416 0.961 . S
H1430 C1416 0.961 . S
H1431 C1417 0.958 . S
H1432 C1417 0.961 . S
H1433 C1417 0.960 . S
C1434 C1435 1.391 . S
C1434 C1436 1.394 . S
C1434 H1450 0.931 . S
C1435 C1434 1.391 . S
C1435 C1439 1.376 . S
C1436 C1434 1.394 . S
C1436 C1437 1.369 . S
C1436 C1440 1.531 . S
C1437 C1436 1.369 . S
C1437 C1438 1.410 . S
C1437 C1445 1.503 . S
C1438 C1437 1.410 . S
C1438 C1439 1.392 . S
C1438 C1441 1.511 . S
C1439 C1435 1.376 . S
C1439 C1438 1.392 . S
C1439 H1451 0.929 . S
C1440 C1436 1.531 . S
C1440 H1452 0.960 . S
C1440 H1453 0.962 . S
C1440 H1454 0.960 . S
C1441 C1438 1.511 . S
C1441 H1455 0.961 . S
C1441 H1456 0.961 . S
C1441 H1457 0.961 . S
C1442 C1443 1.370 . S
C1442 C1444 1.363 . S
C1442 H1458 0.931 . S
C1443 C1442 1.370 . S
C1443 C1447 1.408 . S
C1444 C1442 1.363 . S
C1444 C1445 1.370 . S
C1444 C1448 1.524 . S
C1445 C1437 1.503 . S
C1445 C1444 1.370 . S
C1445 C1446 1.403 . S
C1446 C1445 1.403 . S
C1446 C1447 1.404 . S
C1446 C1449 1.539 . S
C1447 C1443 1.408 . S
C1447 C1446 1.404 . S
C1447 H1459 0.930 . S
C1448 C1444 1.524 . S
C1448 H1460 0.956 . S
C1448 H1461 0.961 . S
C1448 H1462 0.961 . S
C1449 C1446 1.539 . S
C1449 H1463 0.958 . S
C1449 H1464 0.961 . S
C1449 H1465 0.960 . S
H1450 C1434 0.931 . S
H1451 C1439 0.929 . S
H1452 C1440 0.960 . S
H1453 C1440 0.962 . S
H1454 C1440 0.960 . S
H1455 C1441 0.961 . S
H1456 C1441 0.961 . S
H1457 C1441 0.961 . S
H1458 C1442 0.931 . S
H1459 C1447 0.930 . S
H1460 C1448 0.956 . S
H1461 C1448 0.961 . S
H1462 C1448 0.961 . S
H1463 C1449 0.958 . S
H1464 C1449 0.961 . S
H1465 C1449 0.960 . S
C1466 C1467 1.391 . S
C1466 C1468 1.394 . S
C1466 H1482 0.931 . S
C1467 C1466 1.391 . S
C1467 C1471 1.376 . S
C1468 C1466 1.394 . S
C1468 C1469 1.369 . S
C1468 C1472 1.531 . S
C1469 C1468 1.369 . S
C1469 C1470 1.410 . S
C1469 C1477 1.503 . S
C1470 C1469 1.410 . S
C1470 C1471 1.392 . S
C1470 C1473 1.511 . S
C1471 C1467 1.376 . S
C1471 C1470 1.392 . S
C1471 H1483 0.929 . S
C1472 C1468 1.531 . S
C1472 H1484 0.960 . S
C1472 H1485 0.962 . S
C1472 H1486 0.960 . S
C1473 C1470 1.511 . S
C1473 H1487 0.961 . S
C1473 H1488 0.961 . S
C1473 H1489 0.961 . S
C1474 C1475 1.370 . S
C1474 C1476 1.363 . S
C1474 H1490 0.931 . S
C1475 C1474 1.370 . S
C1475 C1479 1.408 . S
C1476 C1474 1.363 . S
C1476 C1477 1.370 . S
C1476 C1480 1.524 . S
C1477 C1469 1.503 . S
C1477 C1476 1.370 . S
C1477 C1478 1.403 . S
C1478 C1477 1.403 . S
C1478 C1479 1.404 . S
C1478 C1481 1.539 . S
C1479 C1475 1.408 . S
C1479 C1478 1.404 . S
C1479 H1491 0.930 . S
C1480 C1476 1.524 . S
C1480 H1492 0.956 . S
C1480 H1493 0.961 . S
C1480 H1494 0.961 . S
C1481 C1478 1.539 . S
C1481 H1495 0.958 . S
C1481 H1496 0.961 . S
C1481 H1497 0.960 . S
H1482 C1466 0.931 . S
H1483 C1471 0.929 . S
H1484 C1472 0.960 . S
H1485 C1472 0.962 . S
H1486 C1472 0.960 . S
H1487 C1473 0.961 . S
H1488 C1473 0.961 . S
H1489 C1473 0.961 . S
H1490 C1474 0.931 . S
H1491 C1479 0.930 . S
H1492 C1480 0.956 . S
H1493 C1480 0.961 . S
H1494 C1480 0.961 . S
H1495 C1481 0.958 . S
H1496 C1481 0.961 . S
H1497 C1481 0.960 . S
C1498 C1499 1.391 . S
C1498 C1500 1.394 . S
C1498 H1514 0.931 . S
C1499 C1498 1.391 . S
C1499 C1503 1.376 . S
C1500 C1498 1.394 . S
C1500 C1501 1.369 . S
C1500 C1504 1.531 . S
C1501 C1500 1.369 . S
C1501 C1502 1.410 . S
C1501 C1509 1.503 . S
C1502 C1501 1.410 . S
C1502 C1503 1.392 . S
C1502 C1505 1.511 . S
C1503 C1499 1.376 . S
C1503 C1502 1.392 . S
C1503 H1515 0.929 . S
C1504 C1500 1.531 . S
C1504 H1516 0.960 . S
C1504 H1517 0.962 . S
C1504 H1518 0.960 . S
C1505 C1502 1.511 . S
C1505 H1519 0.961 . S
C1505 H1520 0.961 . S
C1505 H1521 0.961 . S
C1506 C1507 1.370 . S
C1506 C1508 1.363 . S
C1506 H1522 0.931 . S
C1507 C1506 1.370 . S
C1507 C1511 1.408 . S
C1508 C1506 1.363 . S
C1508 C1509 1.370 . S
C1508 C1512 1.524 . S
C1509 C1501 1.503 . S
C1509 C1508 1.370 . S
C1509 C1510 1.403 . S
C1510 C1509 1.403 . S
C1510 C1511 1.404 . S
C1510 C1513 1.539 . S
C1511 C1507 1.408 . S
C1511 C1510 1.404 . S
C1511 H1523 0.930 . S
C1512 C1508 1.524 . S
C1512 H1524 0.956 . S
C1512 H1525 0.961 . S
C1512 H1526 0.961 . S
C1513 C1510 1.539 . S
C1513 H1527 0.958 1_565 S
C1513 H1528 0.961 1_565 S
C1513 H1529 0.960 . S
H1514 C1498 0.931 . S
H1515 C1503 0.929 . S
H1516 C1504 0.960 . S
H1517 C1504 0.962 . S
H1518 C1504 0.960 . S
H1519 C1505 0.961 . S
H1520 C1505 0.961 . S
H1521 C1505 0.961 . S
H1522 C1506 0.931 . S
H1523 C1511 0.930 . S
H1524 C1512 0.956 . S
H1525 C1512 0.961 . S
H1526 C1512 0.961 . S
H1527 C1513 0.958 1_545 S
H1528 C1513 0.961 1_545 S
H1529 C1513 0.960 . S
C1530 C1531 1.391 . S
C1530 C1532 1.394 . S
C1530 H1546 0.931 . S
C1531 C1530 1.391 . S
C1531 C1535 1.376 . S
C1532 C1530 1.394 . S
C1532 C1533 1.369 . S
C1532 C1536 1.531 . S
C1533 C1532 1.369 . S
C1533 C1534 1.410 . S
C1533 C1541 1.503 . S
C1534 C1533 1.410 . S
C1534 C1535 1.392 . S
C1534 C1537 1.511 . S
C1535 C1531 1.376 . S
C1535 C1534 1.392 . S
C1535 H1547 0.929 . S
C1536 C1532 1.531 . S
C1536 H1548 0.960 . S
C1536 H1549 0.962 . S
C1536 H1550 0.960 . S
C1537 C1534 1.511 . S
C1537 H1551 0.961 . S
C1537 H1552 0.961 . S
C1537 H1553 0.961 . S
C1538 C1539 1.370 . S
C1538 C1540 1.363 . S
C1538 H1554 0.931 . S
C1539 C1538 1.370 . S
C1539 C1543 1.408 . S
C1540 C1538 1.363 . S
C1540 C1541 1.370 . S
C1540 C1544 1.524 . S
C1541 C1533 1.503 . S
C1541 C1540 1.370 . S
C1541 C1542 1.403 . S
C1542 C1541 1.403 . S
C1542 C1543 1.404 . S
C1542 C1545 1.539 . S
C1543 C1539 1.408 . S
C1543 C1542 1.404 . S
C1543 H1555 0.930 . S
C1544 C1540 1.524 . S
C1544 H1556 0.956 . S
C1544 H1557 0.961 . S
C1544 H1558 0.961 . S
C1545 C1542 1.539 . S
C1545 H1559 0.958 . S
C1545 H1560 0.961 . S
C1545 H1561 0.960 . S
H1546 C1530 0.931 . S
H1547 C1535 0.929 . S
H1548 C1536 0.960 . S
H1549 C1536 0.962 . S
H1550 C1536 0.960 . S
H1551 C1537 0.961 . S
H1552 C1537 0.961 . S
H1553 C1537 0.961 . S
H1554 C1538 0.931 . S
H1555 C1543 0.930 . S
H1556 C1544 0.956 . S
H1557 C1544 0.961 . S
H1558 C1544 0.961 . S
H1559 C1545 0.958 . S
H1560 C1545 0.961 . S
H1561 C1545 0.960 . S
C1562 C1563 1.391 . S
C1562 C1564 1.394 . S
C1562 H1578 0.931 . S
C1563 C1562 1.391 . S
C1563 C1567 1.376 . S
C1564 C1562 1.394 . S
C1564 C1565 1.369 . S
C1564 C1568 1.531 . S
C1565 C1564 1.369 . S
C1565 C1566 1.410 . S
C1565 C1573 1.503 . S
C1566 C1565 1.410 . S
C1566 C1567 1.392 . S
C1566 C1569 1.511 . S
C1567 C1563 1.376 . S
C1567 C1566 1.392 . S
C1567 H1579 0.929 . S
C1568 C1564 1.531 . S
C1568 H1580 0.960 . S
C1568 H1581 0.962 . S
C1568 H1582 0.960 . S
C1569 C1566 1.511 . S
C1569 H1583 0.961 . S
C1569 H1584 0.961 . S
C1569 H1585 0.961 . S
C1570 C1571 1.370 . S
C1570 C1572 1.363 . S
C1570 H1586 0.931 . S
C1571 C1570 1.370 . S
C1571 C1575 1.408 . S
C1572 C1570 1.363 . S
C1572 C1573 1.370 . S
C1572 C1576 1.524 . S
C1573 C1565 1.503 . S
C1573 C1572 1.370 . S
C1573 C1574 1.403 . S
C1574 C1573 1.403 . S
C1574 C1575 1.404 . S
C1574 C1577 1.539 . S
C1575 C1571 1.408 . S
C1575 C1574 1.404 . S
C1575 H1587 0.930 . S
C1576 C1572 1.524 . S
C1576 H1588 0.956 . S
C1576 H1589 0.961 . S
C1576 H1590 0.961 . S
C1577 C1574 1.539 . S
C1577 H1591 0.958 . S
C1577 H1592 0.961 . S
C1577 H1593 0.960 . S
H1578 C1562 0.931 . S
H1579 C1567 0.929 . S
H1580 C1568 0.960 . S
H1581 C1568 0.962 . S
H1582 C1568 0.960 . S
H1583 C1569 0.961 . S
H1584 C1569 0.961 . S
H1585 C1569 0.961 . S
H1586 C1570 0.931 . S
H1587 C1575 0.930 . S
H1588 C1576 0.956 . S
H1589 C1576 0.961 . S
H1590 C1576 0.961 . S
H1591 C1577 0.958 . S
H1592 C1577 0.961 . S
H1593 C1577 0.960 . S
C1594 C1595 1.391 . S
C1594 C1596 1.394 . S
C1594 H1610 0.931 . S
C1595 C1594 1.391 . S
C1595 C1599 1.376 . S
C1596 C1594 1.394 . S
C1596 C1597 1.369 . S
C1596 C1600 1.531 . S
C1597 C1596 1.369 . S
C1597 C1598 1.410 . S
C1597 C1605 1.503 . S
C1598 C1597 1.410 . S
C1598 C1599 1.392 . S
C1598 C1601 1.511 . S
C1599 C1595 1.376 . S
C1599 C1598 1.392 . S
C1599 H1611 0.929 . S
C1600 C1596 1.531 . S
C1600 H1612 0.960 . S
C1600 H1613 0.962 . S
C1600 H1614 0.960 . S
C1601 C1598 1.511 . S
C1601 H1615 0.961 . S
C1601 H1616 0.961 . S
C1601 H1617 0.961 . S
C1602 C1603 1.370 . S
C1602 C1604 1.363 . S
C1602 H1618 0.931 . S
C1603 C1602 1.370 . S
C1603 C1607 1.408 . S
C1604 C1602 1.363 . S
C1604 C1605 1.370 . S
C1604 C1608 1.524 . S
C1605 C1597 1.503 . S
C1605 C1604 1.370 . S
C1605 C1606 1.403 . S
C1606 C1605 1.403 . S
C1606 C1607 1.404 . S
C1606 C1609 1.539 . S
C1607 C1603 1.408 . S
C1607 C1606 1.404 . S
C1607 H1619 0.930 . S
C1608 C1604 1.524 . S
C1608 H1620 0.956 . S
C1608 H1621 0.961 . S
C1608 H1622 0.961 . S
C1609 C1606 1.539 . S
C1609 H1623 0.958 . S
C1609 H1624 0.961 . S
C1609 H1625 0.960 . S
H1610 C1594 0.931 . S
H1611 C1599 0.929 . S
H1612 C1600 0.960 . S
H1613 C1600 0.962 . S
H1614 C1600 0.960 . S
H1615 C1601 0.961 . S
H1616 C1601 0.961 . S
H1617 C1601 0.961 . S
H1618 C1602 0.931 . S
H1619 C1607 0.930 . S
H1620 C1608 0.956 . S
H1621 C1608 0.961 . S
H1622 C1608 0.961 . S
H1623 C1609 0.958 . S
H1624 C1609 0.961 . S
H1625 C1609 0.960 . S
C1626 C1627 1.391 . S
C1626 C1628 1.394 . S
C1626 H1642 0.931 . S
C1627 C1626 1.391 . S
C1627 C1631 1.376 . S
C1628 C1626 1.394 . S
C1628 C1629 1.369 . S
C1628 C1632 1.531 . S
C1629 C1628 1.369 . S
C1629 C1630 1.410 . S
C1629 C1637 1.503 . S
C1630 C1629 1.410 . S
C1630 C1631 1.392 . S
C1630 C1633 1.511 . S
C1631 C1627 1.376 . S
C1631 C1630 1.392 . S
C1631 H1643 0.929 . S
C1632 C1628 1.531 . S
C1632 H1644 0.960 . S
C1632 H1645 0.962 . S
C1632 H1646 0.960 . S
C1633 C1630 1.511 . S
C1633 H1647 0.961 . S
C1633 H1648 0.961 . S
C1633 H1649 0.961 . S
C1634 C1635 1.370 . S
C1634 C1636 1.363 . S
C1634 H1650 0.931 . S
C1635 C1634 1.370 . S
C1635 C1639 1.408 . S
C1636 C1634 1.363 . S
C1636 C1637 1.370 . S
C1636 C1640 1.524 . S
C1637 C1629 1.503 . S
C1637 C1636 1.370 . S
C1637 C1638 1.403 . S
C1638 C1637 1.403 . S
C1638 C1639 1.404 . S
C1638 C1641 1.539 . S
C1639 C1635 1.408 . S
C1639 C1638 1.404 . S
C1639 H1651 0.930 . S
C1640 C1636 1.524 . S
C1640 H1652 0.956 . S
C1640 H1653 0.961 . S
C1640 H1654 0.961 . S
C1641 C1638 1.539 . S
C1641 H1655 0.958 . S
C1641 H1656 0.961 . S
C1641 H1657 0.960 . S
H1642 C1626 0.931 . S
H1643 C1631 0.929 . S
H1644 C1632 0.960 . S
H1645 C1632 0.962 . S
H1646 C1632 0.960 . S
H1647 C1633 0.961 . S
H1648 C1633 0.961 . S
H1649 C1633 0.961 . S
H1650 C1634 0.931 . S
H1651 C1639 0.930 . S
H1652 C1640 0.956 . S
H1653 C1640 0.961 . S
H1654 C1640 0.961 . S
H1655 C1641 0.958 . S
H1656 C1641 0.961 . S
H1657 C1641 0.960 . S
C1658 C1659 1.391 . S
C1658 C1660 1.394 . S
C1658 H1674 0.931 . S
C1659 C1658 1.391 . S
C1659 C1663 1.376 . S
C1660 C1658 1.394 . S
C1660 C1661 1.369 . S
C1660 C1664 1.531 . S
C1661 C1660 1.369 . S
C1661 C1662 1.410 . S
C1661 C1669 1.503 . S
C1662 C1661 1.410 . S
C1662 C1663 1.392 . S
C1662 C1665 1.511 . S
C1663 C1659 1.376 . S
C1663 C1662 1.392 . S
C1663 H1675 0.929 . S
C1664 C1660 1.531 . S
C1664 H1676 0.960 . S
C1664 H1677 0.962 . S
C1664 H1678 0.960 . S
C1665 C1662 1.511 . S
C1665 H1679 0.961 . S
C1665 H1680 0.961 . S
C1665 H1681 0.961 . S
C1666 C1667 1.370 . S
C1666 C1668 1.363 . S
C1666 H1682 0.931 . S
C1667 C1666 1.370 . S
C1667 C1671 1.408 . S
C1668 C1666 1.363 . S
C1668 C1669 1.370 . S
C1668 C1672 1.524 . S
C1669 C1661 1.503 . S
C1669 C1668 1.370 . S
C1669 C1670 1.403 . S
C1670 C1669 1.403 . S
C1670 C1671 1.404 . S
C1670 C1673 1.539 . S
C1671 C1667 1.408 . S
C1671 C1670 1.404 . S
C1671 H1683 0.930 . S
C1672 C1668 1.524 . S
C1672 H1684 0.956 . S
C1672 H1685 0.961 . S
C1672 H1686 0.961 . S
C1673 C1670 1.539 . S
C1673 H1687 0.958 . S
C1673 H1688 0.961 . S
C1673 H1689 0.960 . S
H1674 C1658 0.931 . S
H1675 C1663 0.929 . S
H1676 C1664 0.960 . S
H1677 C1664 0.962 . S
H1678 C1664 0.960 . S
H1679 C1665 0.961 . S
H1680 C1665 0.961 . S
H1681 C1665 0.961 . S
H1682 C1666 0.931 . S
H1683 C1671 0.930 . S
H1684 C1672 0.956 . S
H1685 C1672 0.961 . S
H1686 C1672 0.961 . S
H1687 C1673 0.958 . S
H1688 C1673 0.961 . S
H1689 C1673 0.960 . S
C1690 C1691 1.391 . S
C1690 C1692 1.394 . S
C1690 H1706 0.931 . S
C1691 C1690 1.391 . S
C1691 C1695 1.376 . S
C1692 C1690 1.394 . S
C1692 C1693 1.369 . S
C1692 C1696 1.531 . S
C1693 C1692 1.369 . S
C1693 C1694 1.410 . S
C1693 C1701 1.503 . S
C1694 C1693 1.410 . S
C1694 C1695 1.392 . S
C1694 C1697 1.511 . S
C1695 C1691 1.376 . S
C1695 C1694 1.392 . S
C1695 H1707 0.929 . S
C1696 C1692 1.531 . S
C1696 H1708 0.960 . S
C1696 H1709 0.962 . S
C1696 H1710 0.960 . S
C1697 C1694 1.511 . S
C1697 H1711 0.961 . S
C1697 H1712 0.961 . S
C1697 H1713 0.961 . S
C1698 C1699 1.370 . S
C1698 C1700 1.363 . S
C1698 H1714 0.931 . S
C1699 C1698 1.370 . S
C1699 C1703 1.408 . S
C1700 C1698 1.363 . S
C1700 C1701 1.370 . S
C1700 C1704 1.524 . S
C1701 C1693 1.503 . S
C1701 C1700 1.370 . S
C1701 C1702 1.403 . S
C1702 C1701 1.403 . S
C1702 C1703 1.404 . S
C1702 C1705 1.539 . S
C1703 C1699 1.408 . S
C1703 C1702 1.404 . S
C1703 H1715 0.930 . S
C1704 C1700 1.524 . S
C1704 H1716 0.956 . S
C1704 H1717 0.961 . S
C1704 H1718 0.961 . S
C1705 C1702 1.539 . S
C1705 H1719 0.958 . S
C1705 H1720 0.961 . S
C1705 H1721 0.960 . S
H1706 C1690 0.931 . S
H1707 C1695 0.929 . S
H1708 C1696 0.960 . S
H1709 C1696 0.962 . S
H1710 C1696 0.960 . S
H1711 C1697 0.961 . S
H1712 C1697 0.961 . S
H1713 C1697 0.961 . S
H1714 C1698 0.931 . S
H1715 C1703 0.930 . S
H1716 C1704 0.956 . S
H1717 C1704 0.961 . S
H1718 C1704 0.961 . S
H1719 C1705 0.958 . S
H1720 C1705 0.961 . S
H1721 C1705 0.960 . S
C1722 C1723 1.391 . S
C1722 C1724 1.394 . S
C1722 H1738 0.931 . S
C1723 C1722 1.391 . S
C1723 C1727 1.376 . S
C1724 C1722 1.394 . S
C1724 C1725 1.369 . S
C1724 C1728 1.531 . S
C1725 C1724 1.369 . S
C1725 C1726 1.410 . S
C1725 C1733 1.503 . S
C1726 C1725 1.410 . S
C1726 C1727 1.392 . S
C1726 C1729 1.511 . S
C1727 C1723 1.376 . S
C1727 C1726 1.392 . S
C1727 H1739 0.929 . S
C1728 C1724 1.531 . S
C1728 H1740 0.960 . S
C1728 H1741 0.962 . S
C1728 H1742 0.960 . S
C1729 C1726 1.511 . S
C1729 H1743 0.961 . S
C1729 H1744 0.961 . S
C1729 H1745 0.961 . S
C1730 C1731 1.370 . S
C1730 C1732 1.363 . S
C1730 H1746 0.931 . S
C1731 C1730 1.370 . S
C1731 C1735 1.408 . S
C1732 C1730 1.363 . S
C1732 C1733 1.370 . S
C1732 C1736 1.524 . S
C1733 C1725 1.503 . S
C1733 C1732 1.370 . S
C1733 C1734 1.403 . S
C1734 C1733 1.403 . S
C1734 C1735 1.404 . S
C1734 C1737 1.539 . S
C1735 C1731 1.408 . S
C1735 C1734 1.404 . S
C1735 H1747 0.930 . S
C1736 C1732 1.524 . S
C1736 H1748 0.956 . S
C1736 H1749 0.961 . S
C1736 H1750 0.961 . S
C1737 C1734 1.539 . S
C1737 H1751 0.958 . S
C1737 H1752 0.961 . S
C1737 H1753 0.960 . S
H1738 C1722 0.931 . S
H1739 C1727 0.929 . S
H1740 C1728 0.960 . S
H1741 C1728 0.962 . S
H1742 C1728 0.960 . S
H1743 C1729 0.961 . S
H1744 C1729 0.961 . S
H1745 C1729 0.961 . S
H1746 C1730 0.931 . S
H1747 C1735 0.930 . S
H1748 C1736 0.956 . S
H1749 C1736 0.961 . S
H1750 C1736 0.961 . S
H1751 C1737 0.958 . S
H1752 C1737 0.961 . S
H1753 C1737 0.960 . S
C1754 C1755 1.391 . S
C1754 C1756 1.394 . S
C1754 H1770 0.931 . S
C1755 C1754 1.391 . S
C1755 C1759 1.376 . S
C1756 C1754 1.394 . S
C1756 C1757 1.369 . S
C1756 C1760 1.531 . S
C1757 C1756 1.369 . S
C1757 C1758 1.410 . S
C1757 C1765 1.503 . S
C1758 C1757 1.410 . S
C1758 C1759 1.392 . S
C1758 C1761 1.511 . S
C1759 C1755 1.376 . S
C1759 C1758 1.392 . S
C1759 H1771 0.929 . S
C1760 C1756 1.531 . S
C1760 H1772 0.960 . S
C1760 H1773 0.962 . S
C1760 H1774 0.960 . S
C1761 C1758 1.511 . S
C1761 H1775 0.961 . S
C1761 H1776 0.961 . S
C1761 H1777 0.961 . S
C1762 C1763 1.370 . S
C1762 C1764 1.363 . S
C1762 H1778 0.931 . S
C1763 C1762 1.370 . S
C1763 C1767 1.408 . S
C1764 C1762 1.363 . S
C1764 C1765 1.370 . S
C1764 C1768 1.524 . S
C1765 C1757 1.503 . S
C1765 C1764 1.370 . S
C1765 C1766 1.403 . S
C1766 C1765 1.403 . S
C1766 C1767 1.404 . S
C1766 C1769 1.539 . S
C1767 C1763 1.408 . S
C1767 C1766 1.404 . S
C1767 H1779 0.930 . S
C1768 C1764 1.524 . S
C1768 H1780 0.956 . S
C1768 H1781 0.961 . S
C1768 H1782 0.961 . S
C1769 C1766 1.539 . S
C1769 H1783 0.958 . S
C1769 H1784 0.961 . S
C1769 H1785 0.960 . S
H1770 C1754 0.931 . S
H1771 C1759 0.929 . S
H1772 C1760 0.960 . S
H1773 C1760 0.962 . S
H1774 C1760 0.960 . S
H1775 C1761 0.961 . S
H1776 C1761 0.961 . S
H1777 C1761 0.961 . S
H1778 C1762 0.931 . S
H1779 C1767 0.930 . S
H1780 C1768 0.956 . S
H1781 C1768 0.961 . S
H1782 C1768 0.961 . S
H1783 C1769 0.958 . S
H1784 C1769 0.961 . S
H1785 C1769 0.960 . S
C1786 C1787 1.391 . S
C1786 C1788 1.394 . S
C1786 H1802 0.931 . S
C1787 C1786 1.391 . S
C1787 C1791 1.376 . S
C1788 C1786 1.394 . S
C1788 C1789 1.369 . S
C1788 C1792 1.531 . S
C1789 C1788 1.369 . S
C1789 C1790 1.410 . S
C1789 C1797 1.503 . S
C1790 C1789 1.410 . S
C1790 C1791 1.392 . S
C1790 C1793 1.511 . S
C1791 C1787 1.376 . S
C1791 C1790 1.392 . S
C1791 H1803 0.929 . S
C1792 C1788 1.531 . S
C1792 H1804 0.960 . S
C1792 H1805 0.962 . S
C1792 H1806 0.960 . S
C1793 C1790 1.511 . S
C1793 H1807 0.961 . S
C1793 H1808 0.961 . S
C1793 H1809 0.961 . S
C1794 C1795 1.370 . S
C1794 C1796 1.363 . S
C1794 H1810 0.931 . S
C1795 C1794 1.370 . S
C1795 C1799 1.408 . S
C1796 C1794 1.363 . S
C1796 C1797 1.370 . S
C1796 C1800 1.524 . S
C1797 C1789 1.503 . S
C1797 C1796 1.370 . S
C1797 C1798 1.403 . S
C1798 C1797 1.403 . S
C1798 C1799 1.404 . S
C1798 C1801 1.539 . S
C1799 C1795 1.408 . S
C1799 C1798 1.404 . S
C1799 H1811 0.930 . S
C1800 C1796 1.524 . S
C1800 H1812 0.956 . S
C1800 H1813 0.961 . S
C1800 H1814 0.961 . S
C1801 C1798 1.539 . S
C1801 H1815 0.958 . S
C1801 H1816 0.961 . S
C1801 H1817 0.960 . S
H1802 C1786 0.931 . S
H1803 C1791 0.929 . S
H1804 C1792 0.960 . S
H1805 C1792 0.962 . S
H1806 C1792 0.960 . S
H1807 C1793 0.961 . S
H1808 C1793 0.961 . S
H1809 C1793 0.961 . S
H1810 C1794 0.931 . S
H1811 C1799 0.930 . S
H1812 C1800 0.956 . S
H1813 C1800 0.961 . S
H1814 C1800 0.961 . S
H1815 C1801 0.958 . S
H1816 C1801 0.961 . S
H1817 C1801 0.960 . S
C1818 C1819 1.391 . S
C1818 C1820 1.394 . S
C1818 H1834 0.931 . S
C1819 C1818 1.391 . S
C1819 C1823 1.376 . S
C1820 C1818 1.394 . S
C1820 C1821 1.369 . S
C1820 C1824 1.531 . S
C1821 C1820 1.369 . S
C1821 C1822 1.410 . S
C1821 C1829 1.503 . S
C1822 C1821 1.410 . S
C1822 C1823 1.392 . S
C1822 C1825 1.511 . S
C1823 C1819 1.376 . S
C1823 C1822 1.392 . S
C1823 H1835 0.929 . S
C1824 C1820 1.531 . S
C1824 H1836 0.960 . S
C1824 H1837 0.962 . S
C1824 H1838 0.960 . S
C1825 C1822 1.511 . S
C1825 H1839 0.961 . S
C1825 H1840 0.961 . S
C1825 H1841 0.961 . S
C1826 C1827 1.370 . S
C1826 C1828 1.363 . S
C1826 H1842 0.931 . S
C1827 C1826 1.370 . S
C1827 C1831 1.408 . S
C1828 C1826 1.363 . S
C1828 C1829 1.370 . S
C1828 C1832 1.524 . S
C1829 C1821 1.503 . S
C1829 C1828 1.370 . S
C1829 C1830 1.403 . S
C1830 C1829 1.403 . S
C1830 C1831 1.404 . S
C1830 C1833 1.539 . S
C1831 C1827 1.408 . S
C1831 C1830 1.404 . S
C1831 H1843 0.930 . S
C1832 C1828 1.524 . S
C1832 H1844 0.956 . S
C1832 H1845 0.961 . S
C1832 H1846 0.961 . S
C1833 C1830 1.539 . S
C1833 H1847 0.958 . S
C1833 H1848 0.961 . S
C1833 H1849 0.960 . S
H1834 C1818 0.931 . S
H1835 C1823 0.929 . S
H1836 C1824 0.960 . S
H1837 C1824 0.962 . S
H1838 C1824 0.960 . S
H1839 C1825 0.961 . S
H1840 C1825 0.961 . S
H1841 C1825 0.961 . S
H1842 C1826 0.931 . S
H1843 C1831 0.930 . S
H1844 C1832 0.956 . S
H1845 C1832 0.961 . S
H1846 C1832 0.961 . S
H1847 C1833 0.958 . S
H1848 C1833 0.961 . S
H1849 C1833 0.960 . S
C1850 C1851 1.391 . S
C1850 C1852 1.394 . S
C1850 H1866 0.931 . S
C1851 C1850 1.391 . S
C1851 C1855 1.376 . S
C1852 C1850 1.394 . S
C1852 C1853 1.369 . S
C1852 C1856 1.531 . S
C1853 C1852 1.369 . S
C1853 C1854 1.410 . S
C1853 C1861 1.503 . S
C1854 C1853 1.410 . S
C1854 C1855 1.392 . S
C1854 C1857 1.511 . S
C1855 C1851 1.376 . S
C1855 C1854 1.392 . S
C1855 H1867 0.929 . S
C1856 C1852 1.531 . S
C1856 H1868 0.960 . S
C1856 H1869 0.962 . S
C1856 H1870 0.960 . S
C1857 C1854 1.511 . S
C1857 H1871 0.961 . S
C1857 H1872 0.961 . S
C1857 H1873 0.961 . S
C1858 C1859 1.370 . S
C1858 C1860 1.363 . S
C1858 H1874 0.931 . S
C1859 C1858 1.370 . S
C1859 C1863 1.408 . S
C1860 C1858 1.363 . S
C1860 C1861 1.370 . S
C1860 C1864 1.524 . S
C1861 C1853 1.503 . S
C1861 C1860 1.370 . S
C1861 C1862 1.403 . S
C1862 C1861 1.403 . S
C1862 C1863 1.404 . S
C1862 C1865 1.539 . S
C1863 C1859 1.408 . S
C1863 C1862 1.404 . S
C1863 H1875 0.930 . S
C1864 C1860 1.524 . S
C1864 H1876 0.956 . S
C1864 H1877 0.961 . S
C1864 H1878 0.961 . S
C1865 C1862 1.539 . S
C1865 H1879 0.958 . S
C1865 H1880 0.961 . S
C1865 H1881 0.960 . S
H1866 C1850 0.931 . S
H1867 C1855 0.929 . S
H1868 C1856 0.960 . S
H1869 C1856 0.962 . S
H1870 C1856 0.960 . S
H1871 C1857 0.961 . S
H1872 C1857 0.961 . S
H1873 C1857 0.961 . S
H1874 C1858 0.931 . S
H1875 C1863 0.930 . S
H1876 C1864 0.956 . S
H1877 C1864 0.961 . S
H1878 C1864 0.961 . S
H1879 C1865 0.958 . S
H1880 C1865 0.961 . S
H1881 C1865 0.960 . S
C1882 C1883 1.391 . S
C1882 C1884 1.394 . S
C1882 H1898 0.931 . S
C1883 C1882 1.391 . S
C1883 C1887 1.376 . S
C1884 C1882 1.394 . S
C1884 C1885 1.369 . S
C1884 C1888 1.531 . S
C1885 C1884 1.369 . S
C1885 C1886 1.410 . S
C1885 C1893 1.503 . S
C1886 C1885 1.410 . S
C1886 C1887 1.392 . S
C1886 C1889 1.511 . S
C1887 C1883 1.376 . S
C1887 C1886 1.392 . S
C1887 H1899 0.929 . S
C1888 C1884 1.531 . S
C1888 H1900 0.960 . S
C1888 H1901 0.962 . S
C1888 H1902 0.960 . S
C1889 C1886 1.511 . S
C1889 H1903 0.961 . S
C1889 H1904 0.961 . S
C1889 H1905 0.961 . S
C1890 C1891 1.370 . S
C1890 C1892 1.363 . S
C1890 H1906 0.931 . S
C1891 C1890 1.370 . S
C1891 C1895 1.408 . S
C1892 C1890 1.363 . S
C1892 C1893 1.370 . S
C1892 C1896 1.524 . S
C1893 C1885 1.503 . S
C1893 C1892 1.370 . S
C1893 C1894 1.403 . S
C1894 C1893 1.403 . S
C1894 C1895 1.404 . S
C1894 C1897 1.539 . S
C1895 C1891 1.408 . S
C1895 C1894 1.404 . S
C1895 H1907 0.930 . S
C1896 C1892 1.524 . S
C1896 H1908 0.956 . S
C1896 H1909 0.961 . S
C1896 H1910 0.961 . S
C1897 C1894 1.539 . S
C1897 H1911 0.958 . S
C1897 H1912 0.961 . S
C1897 H1913 0.960 . S
H1898 C1882 0.931 . S
H1899 C1887 0.929 . S
H1900 C1888 0.960 . S
H1901 C1888 0.962 . S
H1902 C1888 0.960 . S
H1903 C1889 0.961 . S
H1904 C1889 0.961 . S
H1905 C1889 0.961 . S
H1906 C1890 0.931 . S
H1907 C1895 0.930 . S
H1908 C1896 0.956 . S
H1909 C1896 0.961 . S
H1910 C1896 0.961 . S
H1911 C1897 0.958 . S
H1912 C1897 0.961 . S
H1913 C1897 0.960 . S
C1914 C1915 1.391 . S
C1914 C1916 1.394 . S
C1914 H1930 0.931 . S
C1915 C1914 1.391 . S
C1915 C1919 1.376 . S
C1916 C1914 1.394 . S
C1916 C1917 1.369 . S
C1916 C1920 1.531 . S
C1917 C1916 1.369 . S
C1917 C1918 1.410 . S
C1917 C1925 1.503 . S
C1918 C1917 1.410 . S
C1918 C1919 1.392 . S
C1918 C1921 1.511 . S
C1919 C1915 1.376 . S
C1919 C1918 1.392 . S
C1919 H1931 0.929 . S
C1920 C1916 1.531 . S
C1920 H1932 0.960 . S
C1920 H1933 0.962 . S
C1920 H1934 0.960 . S
C1921 C1918 1.511 . S
C1921 H1935 0.961 . S
C1921 H1936 0.961 . S
C1921 H1937 0.961 . S
C1922 C1923 1.370 . S
C1922 C1924 1.363 . S
C1922 H1938 0.931 . S
C1923 C1922 1.370 . S
C1923 C1927 1.408 . S
C1924 C1922 1.363 . S
C1924 C1925 1.370 . S
C1924 C1928 1.524 . S
C1925 C1917 1.503 . S
C1925 C1924 1.370 . S
C1925 C1926 1.403 . S
C1926 C1925 1.403 . S
C1926 C1927 1.404 . S
C1926 C1929 1.539 . S
C1927 C1923 1.408 . S
C1927 C1926 1.404 . S
C1927 H1939 0.930 . S
C1928 C1924 1.524 . S
C1928 H1940 0.956 . S
C1928 H1941 0.961 . S
C1928 H1942 0.961 . S
C1929 C1926 1.539 . S
C1929 H1943 0.958 . S
C1929 H1944 0.961 . S
C1929 H1945 0.960 . S
H1930 C1914 0.931 . S
H1931 C1919 0.929 . S
H1932 C1920 0.960 . S
H1933 C1920 0.962 . S
H1934 C1920 0.960 . S
H1935 C1921 0.961 . S
H1936 C1921 0.961 . S
H1937 C1921 0.961 . S
H1938 C1922 0.931 . S
H1939 C1927 0.930 . S
H1940 C1928 0.956 . S
H1941 C1928 0.961 . S
H1942 C1928 0.961 . S
H1943 C1929 0.958 . S
H1944 C1929 0.961 . S
H1945 C1929 0.960 . S
C1946 C1947 1.391 . S
C1946 C1948 1.394 . S
C1946 H1962 0.931 . S
C1947 C1946 1.391 . S
C1947 C1951 1.376 . S
C1948 C1946 1.394 . S
C1948 C1949 1.369 . S
C1948 C1952 1.531 . S
C1949 C1948 1.369 . S
C1949 C1950 1.410 . S
C1949 C1957 1.503 . S
C1950 C1949 1.410 . S
C1950 C1951 1.392 . S
C1950 C1953 1.511 . S
C1951 C1947 1.376 . S
C1951 C1950 1.392 . S
C1951 H1963 0.929 . S
C1952 C1948 1.531 . S
C1952 H1964 0.960 . S
C1952 H1965 0.962 . S
C1952 H1966 0.960 . S
C1953 C1950 1.511 . S
C1953 H1967 0.961 . S
C1953 H1968 0.961 . S
C1953 H1969 0.961 . S
C1954 C1955 1.370 . S
C1954 C1956 1.363 . S
C1954 H1970 0.931 . S
C1955 C1954 1.370 . S
C1955 C1959 1.408 . S
C1956 C1954 1.363 . S
C1956 C1957 1.370 . S
C1956 C1960 1.524 . S
C1957 C1949 1.503 . S
C1957 C1956 1.370 . S
C1957 C1958 1.403 . S
C1958 C1957 1.403 . S
C1958 C1959 1.404 . S
C1958 C1961 1.539 . S
C1959 C1955 1.408 . S
C1959 C1958 1.404 . S
C1959 H1971 0.930 . S
C1960 C1956 1.524 . S
C1960 H1972 0.956 . S
C1960 H1973 0.961 . S
C1960 H1974 0.961 . S
C1961 C1958 1.539 . S
C1961 H1975 0.958 . S
C1961 H1976 0.961 . S
C1961 H1977 0.960 . S
H1962 C1946 0.931 . S
H1963 C1951 0.929 . S
H1964 C1952 0.960 . S
H1965 C1952 0.962 . S
H1966 C1952 0.960 . S
H1967 C1953 0.961 . S
H1968 C1953 0.961 . S
H1969 C1953 0.961 . S
H1970 C1954 0.931 . S
H1971 C1959 0.930 . S
H1972 C1960 0.956 . S
H1973 C1960 0.961 . S
H1974 C1960 0.961 . S
H1975 C1961 0.958 . S
H1976 C1961 0.961 . S
H1977 C1961 0.960 . S
C1978 C1979 1.391 . S
C1978 C1980 1.394 . S
C1978 H1994 0.931 . S
C1979 C1978 1.391 . S
C1979 C1983 1.376 . S
C1980 C1978 1.394 . S
C1980 C1981 1.369 . S
C1980 C1984 1.531 . S
C1981 C1980 1.369 . S
C1981 C1982 1.410 . S
C1981 C1989 1.503 . S
C1982 C1981 1.410 . S
C1982 C1983 1.392 . S
C1982 C1985 1.511 . S
C1983 C1979 1.376 . S
C1983 C1982 1.392 . S
C1983 H1995 0.929 . S
C1984 C1980 1.531 . S
C1984 H1996 0.960 . S
C1984 H1997 0.962 . S
C1984 H1998 0.960 . S
C1985 C1982 1.511 . S
C1985 H1999 0.961 . S
C1985 H2000 0.961 . S
C1985 H2001 0.961 . S
C1986 C1987 1.370 . S
C1986 C1988 1.363 . S
C1986 H2002 0.931 . S
C1987 C1986 1.370 . S
C1987 C1991 1.408 . S
C1988 C1986 1.363 . S
C1988 C1989 1.370 . S
C1988 C1992 1.524 . S
C1989 C1981 1.503 . S
C1989 C1988 1.370 . S
C1989 C1990 1.403 . S
C1990 C1989 1.403 . S
C1990 C1991 1.404 . S
C1990 C1993 1.539 . S
C1991 C1987 1.408 . S
C1991 C1990 1.404 . S
C1991 H2003 0.930 . S
C1992 C1988 1.524 . S
C1992 H2004 0.956 . S
C1992 H2005 0.961 . S
C1992 H2006 0.961 . S
C1993 C1990 1.539 . S
C1993 H2007 0.958 . S
C1993 H2008 0.961 . S
C1993 H2009 0.960 . S
H1994 C1978 0.931 . S
H1995 C1983 0.929 . S
H1996 C1984 0.960 . S
H1997 C1984 0.962 . S
H1998 C1984 0.960 . S
H1999 C1985 0.961 . S
H2000 C1985 0.961 . S
H2001 C1985 0.961 . S
H2002 C1986 0.931 . S
H2003 C1991 0.930 . S
H2004 C1992 0.956 . S
H2005 C1992 0.961 . S
H2006 C1992 0.961 . S
H2007 C1993 0.958 . S
H2008 C1993 0.961 . S
H2009 C1993 0.960 . S
C2010 C2011 1.391 . S
C2010 C2012 1.394 . S
C2010 H2026 0.931 . S
C2011 C2010 1.391 . S
C2011 C2015 1.376 . S
C2012 C2010 1.394 . S
C2012 C2013 1.369 . S
C2012 C2016 1.531 . S
C2013 C2012 1.369 . S
C2013 C2014 1.410 . S
C2013 C2021 1.503 . S
C2014 C2013 1.410 . S
C2014 C2015 1.392 . S
C2014 C2017 1.511 . S
C2015 C2011 1.376 . S
C2015 C2014 1.392 . S
C2015 H2027 0.929 . S
C2016 C2012 1.531 . S
C2016 H2028 0.960 . S
C2016 H2029 0.962 . S
C2016 H2030 0.960 . S
C2017 C2014 1.511 . S
C2017 H2031 0.961 . S
C2017 H2032 0.961 . S
C2017 H2033 0.961 . S
C2018 C2019 1.370 . S
C2018 C2020 1.363 . S
C2018 H2034 0.931 . S
C2019 C2018 1.370 . S
C2019 C2023 1.408 . S
C2020 C2018 1.363 . S
C2020 C2021 1.370 . S
C2020 C2024 1.524 . S
C2021 C2013 1.503 . S
C2021 C2020 1.370 . S
C2021 C2022 1.403 . S
C2022 C2021 1.403 . S
C2022 C2023 1.404 . S
C2022 C2025 1.539 . S
C2023 C2019 1.408 . S
C2023 C2022 1.404 . S
C2023 H2035 0.930 . S
C2024 C2020 1.524 . S
C2024 H2036 0.956 . S
C2024 H2037 0.961 . S
C2024 H2038 0.961 . S
C2025 C2022 1.539 . S
C2025 H2039 0.958 . S
C2025 H2040 0.961 . S
C2025 H2041 0.960 . S
H2026 C2010 0.931 . S
H2027 C2015 0.929 . S
H2028 C2016 0.960 . S
H2029 C2016 0.962 . S
H2030 C2016 0.960 . S
H2031 C2017 0.961 . S
H2032 C2017 0.961 . S
H2033 C2017 0.961 . S
H2034 C2018 0.931 . S
H2035 C2023 0.930 . S
H2036 C2024 0.956 . S
H2037 C2024 0.961 . S
H2038 C2024 0.961 . S
H2039 C2025 0.958 . S
H2040 C2025 0.961 . S
H2041 C2025 0.960 . S
C2042 C2043 1.391 . S
C2042 C2044 1.394 . S
C2042 H2058 0.931 . S
C2043 C2042 1.391 . S
C2043 C2047 1.376 . S
C2044 C2042 1.394 . S
C2044 C2045 1.369 . S
C2044 C2048 1.531 . S
C2045 C2044 1.369 . S
C2045 C2046 1.410 . S
C2045 C2053 1.503 . S
C2046 C2045 1.410 . S
C2046 C2047 1.392 . S
C2046 C2049 1.511 . S
C2047 C2043 1.376 . S
C2047 C2046 1.392 . S
C2047 H2059 0.929 . S
C2048 C2044 1.531 . S
C2048 H2060 0.960 . S
C2048 H2061 0.962 . S
C2048 H2062 0.960 . S
C2049 C2046 1.511 . S
C2049 H2063 0.961 . S
C2049 H2064 0.961 . S
C2049 H2065 0.961 . S
C2050 C2051 1.370 . S
C2050 C2052 1.363 . S
C2050 H2066 0.931 . S
C2051 C2050 1.370 . S
C2051 C2055 1.408 . S
C2052 C2050 1.363 . S
C2052 C2053 1.370 . S
C2052 C2056 1.524 . S
C2053 C2045 1.503 . S
C2053 C2052 1.370 . S
C2053 C2054 1.403 . S
C2054 C2053 1.403 . S
C2054 C2055 1.404 . S
C2054 C2057 1.539 . S
C2055 C2051 1.408 . S
C2055 C2054 1.404 . S
C2055 H2067 0.930 . S
C2056 C2052 1.524 . S
C2056 H2068 0.956 . S
C2056 H2069 0.961 . S
C2056 H2070 0.961 . S
C2057 C2054 1.539 . S
C2057 H2071 0.958 . S
C2057 H2072 0.961 . S
C2057 H2073 0.960 . S
H2058 C2042 0.931 . S
H2059 C2047 0.929 . S
H2060 C2048 0.960 . S
H2061 C2048 0.962 . S
H2062 C2048 0.960 . S
H2063 C2049 0.961 . S
H2064 C2049 0.961 . S
H2065 C2049 0.961 . S
H2066 C2050 0.931 . S
H2067 C2055 0.930 . S
H2068 C2056 0.956 . S
H2069 C2056 0.961 . S
H2070 C2056 0.961 . S
H2071 C2057 0.958 . S
H2072 C2057 0.961 . S
H2073 C2057 0.960 . S
C2074 C2075 1.391 . S
C2074 C2076 1.394 . S
C2074 H2090 0.931 . S
C2075 C2074 1.391 . S
C2075 C2079 1.376 . S
C2076 C2074 1.394 . S
C2076 C2077 1.369 . S
C2076 C2080 1.531 . S
C2077 C2076 1.369 . S
C2077 C2078 1.410 . S
C2077 C2085 1.503 . S
C2078 C2077 1.410 . S
C2078 C2079 1.392 . S
C2078 C2081 1.511 . S
C2079 C2075 1.376 . S
C2079 C2078 1.392 . S
C2079 H2091 0.929 . S
C2080 C2076 1.531 . S
C2080 H2092 0.960 . S
C2080 H2093 0.962 . S
C2080 H2094 0.960 . S
C2081 C2078 1.511 . S
C2081 H2095 0.961 . S
C2081 H2096 0.961 . S
C2081 H2097 0.961 . S
C2082 C2083 1.370 . S
C2082 C2084 1.363 . S
C2082 H2098 0.931 . S
C2083 C2082 1.370 . S
C2083 C2087 1.408 . S
C2084 C2082 1.363 . S
C2084 C2085 1.370 . S
C2084 C2088 1.524 . S
C2085 C2077 1.503 . S
C2085 C2084 1.370 . S
C2085 C2086 1.403 . S
C2086 C2085 1.403 . S
C2086 C2087 1.404 . S
C2086 C2089 1.539 . S
C2087 C2083 1.408 . S
C2087 C2086 1.404 . S
C2087 H2099 0.930 . S
C2088 C2084 1.524 . S
C2088 H2100 0.956 . S
C2088 H2101 0.961 . S
C2088 H2102 0.961 . S
C2089 C2086 1.539 . S
C2089 H2103 0.958 . S
C2089 H2104 0.961 . S
C2089 H2105 0.960 . S
H2090 C2074 0.931 . S
H2091 C2079 0.929 . S
H2092 C2080 0.960 . S
H2093 C2080 0.962 . S
H2094 C2080 0.960 . S
H2095 C2081 0.961 . S
H2096 C2081 0.961 . S
H2097 C2081 0.961 . S
H2098 C2082 0.931 . S
H2099 C2087 0.930 . S
H2100 C2088 0.956 . S
H2101 C2088 0.961 . S
H2102 C2088 0.961 . S
H2103 C2089 0.958 . S
H2104 C2089 0.961 . S
H2105 C2089 0.960 . S
C2106 C2107 1.391 . S
C2106 C2108 1.394 . S
C2106 H2122 0.931 . S
C2107 C2106 1.391 . S
C2107 C2111 1.376 . S
C2108 C2106 1.394 . S
C2108 C2109 1.369 . S
C2108 C2112 1.531 . S
C2109 C2108 1.369 . S
C2109 C2110 1.410 . S
C2109 C2117 1.503 . S
C2110 C2109 1.410 . S
C2110 C2111 1.392 . S
C2110 C2113 1.511 . S
C2111 C2107 1.376 . S
C2111 C2110 1.392 . S
C2111 H2123 0.929 . S
C2112 C2108 1.531 . S
C2112 H2124 0.960 . S
C2112 H2125 0.962 . S
C2112 H2126 0.960 . S
C2113 C2110 1.511 . S
C2113 H2127 0.961 . S
C2113 H2128 0.961 . S
C2113 H2129 0.961 . S
C2114 C2115 1.370 . S
C2114 C2116 1.363 . S
C2114 H2130 0.931 . S
C2115 C2114 1.370 . S
C2115 C2119 1.408 . S
C2116 C2114 1.363 . S
C2116 C2117 1.370 . S
C2116 C2120 1.524 . S
C2117 C2109 1.503 . S
C2117 C2116 1.370 . S
C2117 C2118 1.403 . S
C2118 C2117 1.403 . S
C2118 C2119 1.404 . S
C2118 C2121 1.539 . S
C2119 C2115 1.408 . S
C2119 C2118 1.404 . S
C2119 H2131 0.930 . S
C2120 C2116 1.524 . S
C2120 H2132 0.956 . S
C2120 H2133 0.961 . S
C2120 H2134 0.961 . S
C2121 C2118 1.539 . S
C2121 H2135 0.958 . S
C2121 H2136 0.961 . S
C2121 H2137 0.960 . S
H2122 C2106 0.931 . S
H2123 C2111 0.929 . S
H2124 C2112 0.960 . S
H2125 C2112 0.962 . S
H2126 C2112 0.960 . S
H2127 C2113 0.961 . S
H2128 C2113 0.961 . S
H2129 C2113 0.961 . S
H2130 C2114 0.931 . S
H2131 C2119 0.930 . S
H2132 C2120 0.956 . S
H2133 C2120 0.961 . S
H2134 C2120 0.961 . S
H2135 C2121 0.958 . S
H2136 C2121 0.961 . S
H2137 C2121 0.960 . S
C2138 C2139 1.391 . S
C2138 C2140 1.394 . S
C2138 H2154 0.931 . S
C2139 C2138 1.391 . S
C2139 C2143 1.376 . S
C2140 C2138 1.394 . S
C2140 C2141 1.369 . S
C2140 C2144 1.531 . S
C2141 C2140 1.369 . S
C2141 C2142 1.410 . S
C2141 C2149 1.503 . S
C2142 C2141 1.410 . S
C2142 C2143 1.392 . S
C2142 C2145 1.511 . S
C2143 C2139 1.376 . S
C2143 C2142 1.392 . S
C2143 H2155 0.929 . S
C2144 C2140 1.531 . S
C2144 H2156 0.960 . S
C2144 H2157 0.962 . S
C2144 H2158 0.960 . S
C2145 C2142 1.511 . S
C2145 H2159 0.961 . S
C2145 H2160 0.961 . S
C2145 H2161 0.961 . S
C2146 C2147 1.370 . S
C2146 C2148 1.363 . S
C2146 H2162 0.931 . S
C2147 C2146 1.370 . S
C2147 C2151 1.408 . S
C2148 C2146 1.363 . S
C2148 C2149 1.370 . S
C2148 C2152 1.524 . S
C2149 C2141 1.503 . S
C2149 C2148 1.370 . S
C2149 C2150 1.403 . S
C2150 C2149 1.403 . S
C2150 C2151 1.404 . S
C2150 C2153 1.539 . S
C2151 C2147 1.408 . S
C2151 C2150 1.404 . S
C2151 H2163 0.930 . S
C2152 C2148 1.524 . S
C2152 H2164 0.956 . S
C2152 H2165 0.961 . S
C2152 H2166 0.961 . S
C2153 C2150 1.539 . S
C2153 H2167 0.958 . S
C2153 H2168 0.961 . S
C2153 H2169 0.960 . S
H2154 C2138 0.931 . S
H2155 C2143 0.929 . S
H2156 C2144 0.960 . S
H2157 C2144 0.962 . S
H2158 C2144 0.960 . S
H2159 C2145 0.961 . S
H2160 C2145 0.961 . S
H2161 C2145 0.961 . S
H2162 C2146 0.931 . S
H2163 C2151 0.930 . S
H2164 C2152 0.956 . S
H2165 C2152 0.961 . S
H2166 C2152 0.961 . S
H2167 C2153 0.958 . S
H2168 C2153 0.961 . S
H2169 C2153 0.960 . S
C2170 C2171 1.391 . S
C2170 C2172 1.394 . S
C2170 H2186 0.931 . S
C2171 C2170 1.391 . S
C2171 C2175 1.376 . S
C2172 C2170 1.394 . S
C2172 C2173 1.369 . S
C2172 C2176 1.531 . S
C2173 C2172 1.369 . S
C2173 C2174 1.410 . S
C2173 C2181 1.503 . S
C2174 C2173 1.410 . S
C2174 C2175 1.392 . S
C2174 C2177 1.511 . S
C2175 C2171 1.376 . S
C2175 C2174 1.392 . S
C2175 H2187 0.929 . S
C2176 C2172 1.531 . S
C2176 H2188 0.960 . S
C2176 H2189 0.962 . S
C2176 H2190 0.960 . S
C2177 C2174 1.511 . S
C2177 H2191 0.961 . S
C2177 H2192 0.961 . S
C2177 H2193 0.961 . S
C2178 C2179 1.370 . S
C2178 C2180 1.363 . S
C2178 H2194 0.931 . S
C2179 C2178 1.370 . S
C2179 C2183 1.408 . S
C2180 C2178 1.363 . S
C2180 C2181 1.370 . S
C2180 C2184 1.524 . S
C2181 C2173 1.503 . S
C2181 C2180 1.370 . S
C2181 C2182 1.403 . S
C2182 C2181 1.403 . S
C2182 C2183 1.404 . S
C2182 C2185 1.539 . S
C2183 C2179 1.408 . S
C2183 C2182 1.404 . S
C2183 H2195 0.930 . S
C2184 C2180 1.524 . S
C2184 H2196 0.956 . S
C2184 H2197 0.961 . S
C2184 H2198 0.961 . S
C2185 C2182 1.539 . S
C2185 H2199 0.958 . S
C2185 H2200 0.961 . S
C2185 H2201 0.960 . S
H2186 C2170 0.931 . S
H2187 C2175 0.929 . S
H2188 C2176 0.960 . S
H2189 C2176 0.962 . S
H2190 C2176 0.960 . S
H2191 C2177 0.961 . S
H2192 C2177 0.961 . S
H2193 C2177 0.961 . S
H2194 C2178 0.931 . S
H2195 C2183 0.930 . S
H2196 C2184 0.956 . S
H2197 C2184 0.961 . S
H2198 C2184 0.961 . S
H2199 C2185 0.958 . S
H2200 C2185 0.961 . S
H2201 C2185 0.960 . S
C2202 C2203 1.391 . S
C2202 C2204 1.394 . S
C2202 H2218 0.931 . S
C2203 C2202 1.391 . S
C2203 C2207 1.376 . S
C2204 C2202 1.394 . S
C2204 C2205 1.369 . S
C2204 C2208 1.531 . S
C2205 C2204 1.369 . S
C2205 C2206 1.410 . S
C2205 C2213 1.503 . S
C2206 C2205 1.410 . S
C2206 C2207 1.392 . S
C2206 C2209 1.511 . S
C2207 C2203 1.376 . S
C2207 C2206 1.392 . S
C2207 H2219 0.929 . S
C2208 C2204 1.531 . S
C2208 H2220 0.960 . S
C2208 H2221 0.962 . S
C2208 H2222 0.960 . S
C2209 C2206 1.511 . S
C2209 H2223 0.961 . S
C2209 H2224 0.961 . S
C2209 H2225 0.961 . S
C2210 C2211 1.370 . S
C2210 C2212 1.363 . S
C2210 H2226 0.931 . S
C2211 C2210 1.370 . S
C2211 C2215 1.408 . S
C2212 C2210 1.363 . S
C2212 C2213 1.370 . S
C2212 C2216 1.524 . S
C2213 C2205 1.503 . S
C2213 C2212 1.370 . S
C2213 C2214 1.403 . S
C2214 C2213 1.403 . S
C2214 C2215 1.404 . S
C2214 C2217 1.539 . S
C2215 C2211 1.408 . S
C2215 C2214 1.404 . S
C2215 H2227 0.930 . S
C2216 C2212 1.524 . S
C2216 H2228 0.956 . S
C2216 H2229 0.961 . S
C2216 H2230 0.961 . S
C2217 C2214 1.539 . S
C2217 H2231 0.958 . S
C2217 H2232 0.961 . S
C2217 H2233 0.960 . S
H2218 C2202 0.931 . S
H2219 C2207 0.929 . S
H2220 C2208 0.960 . S
H2221 C2208 0.962 . S
H2222 C2208 0.960 . S
H2223 C2209 0.961 . S
H2224 C2209 0.961 . S
H2225 C2209 0.961 . S
H2226 C2210 0.931 . S
H2227 C2215 0.930 . S
H2228 C2216 0.956 . S
H2229 C2216 0.961 . S
H2230 C2216 0.961 . S
H2231 C2217 0.958 . S
H2232 C2217 0.961 . S
H2233 C2217 0.960 . S
C2234 C2235 1.391 . S
C2234 C2236 1.394 . S
C2234 H2250 0.931 . S
C2235 C2234 1.391 . S
C2235 C2239 1.376 . S
C2236 C2234 1.394 . S
C2236 C2237 1.369 . S
C2236 C2240 1.531 . S
C2237 C2236 1.369 . S
C2237 C2238 1.410 . S
C2237 C2245 1.503 . S
C2238 C2237 1.410 . S
C2238 C2239 1.392 . S
C2238 C2241 1.511 . S
C2239 C2235 1.376 . S
C2239 C2238 1.392 . S
C2239 H2251 0.929 . S
C2240 C2236 1.531 . S
C2240 H2252 0.960 . S
C2240 H2253 0.962 . S
C2240 H2254 0.960 . S
C2241 C2238 1.511 . S
C2241 H2255 0.961 . S
C2241 H2256 0.961 . S
C2241 H2257 0.961 . S
C2242 C2243 1.370 . S
C2242 C2244 1.363 . S
C2242 H2258 0.931 . S
C2243 C2242 1.370 . S
C2243 C2247 1.408 . S
C2244 C2242 1.363 . S
C2244 C2245 1.370 . S
C2244 C2248 1.524 . S
C2245 C2237 1.503 . S
C2245 C2244 1.370 . S
C2245 C2246 1.403 . S
C2246 C2245 1.403 . S
C2246 C2247 1.404 . S
C2246 C2249 1.539 . S
C2247 C2243 1.408 . S
C2247 C2246 1.404 . S
C2247 H2259 0.930 . S
C2248 C2244 1.524 . S
C2248 H2260 0.956 . S
C2248 H2261 0.961 . S
C2248 H2262 0.961 . S
C2249 C2246 1.539 . S
C2249 H2263 0.958 . S
C2249 H2264 0.961 . S
C2249 H2265 0.960 . S
H2250 C2234 0.931 . S
H2251 C2239 0.929 . S
H2252 C2240 0.960 . S
H2253 C2240 0.962 . S
H2254 C2240 0.960 . S
H2255 C2241 0.961 . S
H2256 C2241 0.961 . S
H2257 C2241 0.961 . S
H2258 C2242 0.931 . S
H2259 C2247 0.930 . S
H2260 C2248 0.956 . S
H2261 C2248 0.961 . S
H2262 C2248 0.961 . S
H2263 C2249 0.958 . S
H2264 C2249 0.961 . S
H2265 C2249 0.960 . S
C2266 C2267 1.391 . S
C2266 C2268 1.394 . S
C2266 H2282 0.931 . S
C2267 C2266 1.391 . S
C2267 C2271 1.376 . S
C2268 C2266 1.394 . S
C2268 C2269 1.369 . S
C2268 C2272 1.531 . S
C2269 C2268 1.369 . S
C2269 C2270 1.410 . S
C2269 C2277 1.503 . S
C2270 C2269 1.410 . S
C2270 C2271 1.392 . S
C2270 C2273 1.511 . S
C2271 C2267 1.376 . S
C2271 C2270 1.392 . S
C2271 H2283 0.929 . S
C2272 C2268 1.531 . S
C2272 H2284 0.960 . S
C2272 H2285 0.962 . S
C2272 H2286 0.960 . S
C2273 C2270 1.511 . S
C2273 H2287 0.961 . S
C2273 H2288 0.961 . S
C2273 H2289 0.961 . S
C2274 C2275 1.370 . S
C2274 C2276 1.363 . S
C2274 H2290 0.931 . S
C2275 C2274 1.370 . S
C2275 C2279 1.408 . S
C2276 C2274 1.363 . S
C2276 C2277 1.370 . S
C2276 C2280 1.524 . S
C2277 C2269 1.503 . S
C2277 C2276 1.370 . S
C2277 C2278 1.403 . S
C2278 C2277 1.403 . S
C2278 C2279 1.404 . S
C2278 C2281 1.539 . S
C2279 C2275 1.408 . S
C2279 C2278 1.404 . S
C2279 H2291 0.930 . S
C2280 C2276 1.524 . S
C2280 H2292 0.956 . S
C2280 H2293 0.961 . S
C2280 H2294 0.961 . S
C2281 C2278 1.539 . S
C2281 H2295 0.958 . S
C2281 H2296 0.961 . S
C2281 H2297 0.960 . S
H2282 C2266 0.931 . S
H2283 C2271 0.929 . S
H2284 C2272 0.960 . S
H2285 C2272 0.962 . S
H2286 C2272 0.960 . S
H2287 C2273 0.961 . S
H2288 C2273 0.961 . S
H2289 C2273 0.961 . S
H2290 C2274 0.931 . S
H2291 C2279 0.930 . S
H2292 C2280 0.956 . S
H2293 C2280 0.961 . S
H2294 C2280 0.961 . S
H2295 C2281 0.958 . S
H2296 C2281 0.961 . S
H2297 C2281 0.960 . S
C2298 C2299 1.391 . S
C2298 C2300 1.394 . S
C2298 H2314 0.931 . S
C2299 C2298 1.391 . S
C2299 C2303 1.376 . S
C2300 C2298 1.394 . S
C2300 C2301 1.369 . S
C2300 C2304 1.531 . S
C2301 C2300 1.369 . S
C2301 C2302 1.410 . S
C2301 C2309 1.503 . S
C2302 C2301 1.410 . S
C2302 C2303 1.392 . S
C2302 C2305 1.511 . S
C2303 C2299 1.376 . S
C2303 C2302 1.392 . S
C2303 H2315 0.929 . S
C2304 C2300 1.531 . S
C2304 H2316 0.960 . S
C2304 H2317 0.962 . S
C2304 H2318 0.960 . S
C2305 C2302 1.511 . S
C2305 H2319 0.961 . S
C2305 H2320 0.961 . S
C2305 H2321 0.961 . S
C2306 C2307 1.370 . S
C2306 C2308 1.363 . S
C2306 H2322 0.931 . S
C2307 C2306 1.370 . S
C2307 C2311 1.408 . S
C2308 C2306 1.363 . S
C2308 C2309 1.370 . S
C2308 C2312 1.524 . S
C2309 C2301 1.503 . S
C2309 C2308 1.370 . S
C2309 C2310 1.403 . S
C2310 C2309 1.403 . S
C2310 C2311 1.404 . S
C2310 C2313 1.539 . S
C2311 C2307 1.408 . S
C2311 C2310 1.404 . S
C2311 H2323 0.930 . S
C2312 C2308 1.524 . S
C2312 H2324 0.956 . S
C2312 H2325 0.961 . S
C2312 H2326 0.961 . S
C2313 C2310 1.539 . S
C2313 H2327 0.958 . S
C2313 H2328 0.961 . S
C2313 H2329 0.960 . S
H2314 C2298 0.931 . S
H2315 C2303 0.929 . S
H2316 C2304 0.960 . S
H2317 C2304 0.962 . S
H2318 C2304 0.960 . S
H2319 C2305 0.961 . S
H2320 C2305 0.961 . S
H2321 C2305 0.961 . S
H2322 C2306 0.931 . S
H2323 C2311 0.930 . S
H2324 C2312 0.956 . S
H2325 C2312 0.961 . S
H2326 C2312 0.961 . S
H2327 C2313 0.958 . S
H2328 C2313 0.961 . S
H2329 C2313 0.960 . S
C2330 C2331 1.391 . S
C2330 C2332 1.394 . S
C2330 H2346 0.931 . S
C2331 C2330 1.391 . S
C2331 C2335 1.376 . S
C2332 C2330 1.394 . S
C2332 C2333 1.369 . S
C2332 C2336 1.531 . S
C2333 C2332 1.369 . S
C2333 C2334 1.410 . S
C2333 C2341 1.503 . S
C2334 C2333 1.410 . S
C2334 C2335 1.392 . S
C2334 C2337 1.511 . S
C2335 C2331 1.376 . S
C2335 C2334 1.392 . S
C2335 H2347 0.929 . S
C2336 C2332 1.531 . S
C2336 H2348 0.960 . S
C2336 H2349 0.962 . S
C2336 H2350 0.960 . S
C2337 C2334 1.511 . S
C2337 H2351 0.961 . S
C2337 H2352 0.961 . S
C2337 H2353 0.961 . S
C2338 C2339 1.370 . S
C2338 C2340 1.363 . S
C2338 H2354 0.931 . S
C2339 C2338 1.370 . S
C2339 C2343 1.408 . S
C2340 C2338 1.363 . S
C2340 C2341 1.370 . S
C2340 C2344 1.524 . S
C2341 C2333 1.503 . S
C2341 C2340 1.370 . S
C2341 C2342 1.403 . S
C2342 C2341 1.403 . S
C2342 C2343 1.404 . S
C2342 C2345 1.539 . S
C2343 C2339 1.408 . S
C2343 C2342 1.404 . S
C2343 H2355 0.930 . S
C2344 C2340 1.524 . S
C2344 H2356 0.956 . S
C2344 H2357 0.961 . S
C2344 H2358 0.961 . S
C2345 C2342 1.539 . S
C2345 H2359 0.958 . S
C2345 H2360 0.961 . S
C2345 H2361 0.960 . S
H2346 C2330 0.931 . S
H2347 C2335 0.929 . S
H2348 C2336 0.960 . S
H2349 C2336 0.962 . S
H2350 C2336 0.960 . S
H2351 C2337 0.961 . S
H2352 C2337 0.961 . S
H2353 C2337 0.961 . S
H2354 C2338 0.931 . S
H2355 C2343 0.930 . S
H2356 C2344 0.956 . S
H2357 C2344 0.961 . S
H2358 C2344 0.961 . S
H2359 C2345 0.958 . S
H2360 C2345 0.961 . S
H2361 C2345 0.960 . S
C2362 C2363 1.391 . S
C2362 C2364 1.394 . S
C2362 H2378 0.931 . S
C2363 C2362 1.391 . S
C2363 C2367 1.376 . S
C2364 C2362 1.394 . S
C2364 C2365 1.369 . S
C2364 C2368 1.531 . S
C2365 C2364 1.369 . S
C2365 C2366 1.410 . S
C2365 C2373 1.503 . S
C2366 C2365 1.410 . S
C2366 C2367 1.392 . S
C2366 C2369 1.511 . S
C2367 C2363 1.376 . S
C2367 C2366 1.392 . S
C2367 H2379 0.929 . S
C2368 C2364 1.531 . S
C2368 H2380 0.960 . S
C2368 H2381 0.962 . S
C2368 H2382 0.960 . S
C2369 C2366 1.511 . S
C2369 H2383 0.961 . S
C2369 H2384 0.961 . S
C2369 H2385 0.961 . S
C2370 C2371 1.370 . S
C2370 C2372 1.363 . S
C2370 H2386 0.931 . S
C2371 C2370 1.370 . S
C2371 C2375 1.408 . S
C2372 C2370 1.363 . S
C2372 C2373 1.370 . S
C2372 C2376 1.524 . S
C2373 C2365 1.503 . S
C2373 C2372 1.370 . S
C2373 C2374 1.403 . S
C2374 C2373 1.403 . S
C2374 C2375 1.404 . S
C2374 C2377 1.539 . S
C2375 C2371 1.408 . S
C2375 C2374 1.404 . S
C2375 H2387 0.930 . S
C2376 C2372 1.524 . S
C2376 H2388 0.956 . S
C2376 H2389 0.961 . S
C2376 H2390 0.961 . S
C2377 C2374 1.539 . S
C2377 H2391 0.958 . S
C2377 H2392 0.961 . S
C2377 H2393 0.960 . S
H2378 C2362 0.931 . S
H2379 C2367 0.929 . S
H2380 C2368 0.960 . S
H2381 C2368 0.962 . S
H2382 C2368 0.960 . S
H2383 C2369 0.961 . S
H2384 C2369 0.961 . S
H2385 C2369 0.961 . S
H2386 C2370 0.931 . S
H2387 C2375 0.930 . S
H2388 C2376 0.956 . S
H2389 C2376 0.961 . S
H2390 C2376 0.961 . S
H2391 C2377 0.958 . S
H2392 C2377 0.961 . S
H2393 C2377 0.960 . S
C867 C683 1.522 . S
C859 C74 1.481 . S
C899 C673 0.550 . S
C891 C142 0.857 . S
C931 C674 1.166 . S
C923 C231 1.147 . S
C955 C322 1.377 . S
C963 C696 1.414 . S
C987 C406 0.905 . S
C995 C699 0.569 . S
C1027 C682 1.152 . S
C1019 C494 1.070 . S
C1051 C562 1.354 . S
C1059 C672 1.412 . S
C1083 C651 1.485 . S
C1091 C690 1.523 . S
C1123 C703 1.462 . S
C1115 C58 1.347 . S
C1147 C151 1.562 . S
C1155 C752 1.520 . S
C1187 C730 2.633 . S
C1179 C224 2.501 . S
C1219 C744 1.049 . S
C1211 C315 1.004 . S
C1243 C399 1.037 . S
C1251 C705 1.039 . S
C1283 C758 1.466 . S
C1275 C478 1.421 . S
C1307 C571 1.466 . S
C1315 C714 1.526 . S
C1339 C644 2.529 . S
C1347 C735 2.604 . S
C1371 C67 2.492 . S
C1379 C761 2.608 . S
C1403 C392 1.576 . S
C1411 C745 1.541 . S
C1443 C704 2.630 . S
C1435 C487 2.502 . S
C1475 C736 1.065 . S
C1467 C578 1.017 . S
C1499 C658 1.356 . S
C1507 C727 1.468 . S
C1531 C238 1.442 . S
C1539 C734 1.451 . S
C1571 C721 1.507 . S
C1563 C308 1.520 . S
C1595 C158 1.056 . S
C1603 C713 1.057 . S
C1627 C662 1.485 . S
C1635 C776 1.523 . S
C1659 C394 0.759 . S
C1667 C766 0.601 . S
C1699 C767 1.141 . S
C1691 C483 1.033 . S
C1731 C789 1.431 . S
C1723 C574 1.280 . S
C1755 C154 0.804 . S
C1763 C792 0.561 . S
C1795 C775 1.161 . S
C1787 C242 1.131 . S
C1819 C310 1.357 . S
C1827 C765 1.412 . S
C1851 C63 1.477 . S
C1859 C783 1.522 . S
C1883 C646 1.419 . S
C1891 C796 1.466 . S
C1923 C845 1.529 . S
C1915 C403 1.576 . S
C1947 C476 2.529 . S
C1955 C823 2.636 . S
C1979 C567 1.085 . S
C1987 C837 1.032 . S
C2019 C798 1.026 . S
C2011 C147 1.085 . S
C2043 C226 1.394 . S
C2051 C851 1.445 . S
C2083 C807 1.531 . S
C2075 C319 1.463 . S
C2115 C828 2.609 . S
C2107 C56 2.512 . S
C2147 C854 2.602 . S
C2139 C655 2.486 . S
C2171 C140 1.577 . S
C2179 C838 1.537 . S
C2203 C235 2.543 . S
C2211 C797 2.628 . S
C2243 C829 1.065 . S
C2235 C326 1.020 . S
C2267 C70 1.413 . S
C2275 C820 1.465 . S
C2299 C490 1.466 . S
C2307 C827 1.470 . S
C2339 C814 1.510 . S
C2331 C560 1.502 . S
C2371 C806 1.027 . S
C2363 C410 1.065 . S
