# Generated by pormake.
# Topology dag, (6,3)-cn, num edge types: 1
# Building blocks:
#     Node 0, Type 0, BuildingBlock: OJICUG_clean_sbu_0, # of connection points: 6
#     Node 1, Type 0, BuildingBlock: OJICUG_clean_sbu_0, # of connection points: 6
#     Node 2, Type 0, BuildingBlock: OJICUG_clean_sbu_0, # of connection points: 6
#     Node 3, Type 0, BuildingBlock: OJICUG_clean_sbu_0, # of connection points: 6
#     Node 4, Type 1, BuildingBlock: OLANEW_clean_sbu_2, # of connection points: 3
#     Node 5, Type 1, BuildingBlock: OLANEW_clean_sbu_2, # of connection points: 3
#     Node 6, Type 1, BuildingBlock: OLANEW_clean_sbu_2, # of connection points: 3
#     Node 7, Type 1, BuildingBlock: OLANEW_clean_sbu_2, # of connection points: 3
#     Node 8, Type 1, BuildingBlock: OLANEW_clean_sbu_2, # of connection points: 3
#     Node 9, Type 1, BuildingBlock: OLANEW_clean_sbu_2, # of connection points: 3
#     Node 10, Type 1, BuildingBlock: OLANEW_clean_sbu_2, # of connection points: 3
#     Node 11, Type 1, BuildingBlock: OLANEW_clean_sbu_2, # of connection points: 3
#     Edge 12, Type (0, 1), BuildingBlock: OJICUG_clean_linker_0, # of connection points: 2
#     Edge 13, Type (0, 1), BuildingBlock: OJICUG_clean_linker_0, # of connection points: 2
#     Edge 14, Type (0, 1), BuildingBlock: OJICUG_clean_linker_0, # of connection points: 2
#     Edge 15, Type (0, 1), BuildingBlock: OJICUG_clean_linker_0, # of connection points: 2
#     Edge 16, Type (0, 1), BuildingBlock: OJICUG_clean_linker_0, # of connection points: 2
#     Edge 17, Type (0, 1), BuildingBlock: OJICUG_clean_linker_0, # of connection points: 2
#     Edge 18, Type (0, 1), BuildingBlock: OJICUG_clean_linker_0, # of connection points: 2
#     Edge 19, Type (0, 1), BuildingBlock: OJICUG_clean_linker_0, # of connection points: 2
#     Edge 20, Type (0, 1), BuildingBlock: OJICUG_clean_linker_0, # of connection points: 2
#     Edge 21, Type (0, 1), BuildingBlock: OJICUG_clean_linker_0, # of connection points: 2
#     Edge 22, Type (0, 1), BuildingBlock: OJICUG_clean_linker_0, # of connection points: 2
#     Edge 23, Type (0, 1), BuildingBlock: OJICUG_clean_linker_0, # of connection points: 2
#     Edge 24, Type (0, 1), BuildingBlock: OJICUG_clean_linker_0, # of connection points: 2
#     Edge 25, Type (0, 1), BuildingBlock: OJICUG_clean_linker_0, # of connection points: 2
#     Edge 26, Type (0, 1), BuildingBlock: OJICUG_clean_linker_0, # of connection points: 2
#     Edge 27, Type (0, 1), BuildingBlock: OJICUG_clean_linker_0, # of connection points: 2
#     Edge 28, Type (0, 1), BuildingBlock: OJICUG_clean_linker_0, # of connection points: 2
#     Edge 29, Type (0, 1), BuildingBlock: OJICUG_clean_linker_0, # of connection points: 2
#     Edge 30, Type (0, 1), BuildingBlock: OJICUG_clean_linker_0, # of connection points: 2
#     Edge 31, Type (0, 1), BuildingBlock: OJICUG_clean_linker_0, # of connection points: 2
#     Edge 32, Type (0, 1), BuildingBlock: OJICUG_clean_linker_0, # of connection points: 2
#     Edge 33, Type (0, 1), BuildingBlock: OJICUG_clean_linker_0, # of connection points: 2
#     Edge 34, Type (0, 1), BuildingBlock: OJICUG_clean_linker_0, # of connection points: 2
#     Edge 35, Type (0, 1), BuildingBlock: OJICUG_clean_linker_0, # of connection points: 2
# Relax obj value: 0.128
# Max RMSD: 0.164
# Mean RMSD: 0.127
data_MOF--net-dag--node1-OJICUG_clean_sbu_0--node2-OLANEW_clean_sbu_2--edge1-OJICUG_clean_linker_0
_symmetry_space_group_name_H-M    P1
_symmetry_Int_Tables_number       1
_symmetry_cell_setting            triclinic
loop_
_symmetry_equiv_pos_as_xyz
'x, y, z'
_cell_length_a     31.073108
_cell_length_b     28.654669
_cell_length_c     30.594678
_cell_angle_alpha  92.521145
_cell_angle_beta   94.576562
_cell_angle_gamma 91.265242
loop_
_atom_site_label
_atom_site_type_symbol
_atom_site_fract_x
_atom_site_fract_y
_atom_site_fract_z
_atom_type_partial_charge
Sc0 Sc 0.07963 0.94206 0.02228 0.0
Sc1 Sc 0.10727 0.82575 0.9991 0.0
Sc2 Sc 0.18939 0.91147 0.01722 0.0
O3 O 0.12542 0.89333 0.01288 0.0
C4 C 0.1503 0.00422 0.97797 0.0
C5 C 0.03847 0.88292 0.93836 0.0
C6 C 0.17959 0.84276 0.93237 0.0
C7 C 0.0388 0.85285 0.06611 0.0
C8 C 0.15259 0.96305 0.10159 0.0
C9 C 0.1934 0.81164 0.05995 0.0
O10 O 0.11213 0.99678 0.98881 0.0
O11 O 0.05736 0.84586 0.95024 0.0
O12 O 0.19825 0.87821 0.95316 0.0
O13 O 0.03851 0.89595 0.05748 0.0
O14 O 0.18339 0.94578 0.08119 0.0
O15 O 0.15519 0.79847 0.04618 0.0
O16 O 0.11367 0.96429 0.08462 0.0
O17 O 0.06395 0.82427 0.04936 0.0
O18 O 0.21007 0.85016 0.05013 0.0
O19 O 0.04393 0.92189 0.96018 0.0
O20 O 0.18032 0.97585 0.98562 0.0
O21 O 0.14872 0.81997 0.94693 0.0
Sc22 Sc 0.74412 0.58658 0.47252 0.0
Sc23 Sc 0.67724 0.68211 0.44514 0.0
Sc24 Sc 0.63211 0.57404 0.47168 0.0
O25 O 0.68453 0.61451 0.46307 0.0
C26 C 0.68985 0.50017 0.42544 0.0
C27 C 0.75079 0.64343 0.38588 0.0
C28 C 0.59734 0.63044 0.38868 0.0
C29 C 0.76262 0.69116 0.51148 0.0
C30 C 0.6978 0.54684 0.5522 0.0
C31 C 0.60735 0.67193 0.51532 0.0
O32 O 0.72549 0.52017 0.4394 0.0
O33 O 0.72146 0.67236 0.39404 0.0
O34 O 0.59746 0.59563 0.41295 0.0
O35 O 0.77132 0.64833 0.50648 0.0
O36 O 0.6605 0.54781 0.53194 0.0
O37 O 0.63158 0.69745 0.49392 0.0
O38 O 0.73175 0.56089 0.53565 0.0
O39 O 0.72929 0.70879 0.49228 0.0
O40 O 0.60505 0.62772 0.51046 0.0
O41 O 0.76171 0.61071 0.41096 0.0
O42 O 0.65354 0.51647 0.43325 0.0
O43 O 0.62382 0.66501 0.39588 0.0
Sc44 Sc 0.8447 0.19839 0.03537 0.0
Sc45 Sc 0.75128 0.1378 0.98596 0.0
Sc46 Sc 0.85038 0.08112 1.00006 0.0
O47 O 0.81537 0.13921 0.00708 0.0
C48 C 0.9111 0.16159 0.96827 0.0
C49 C 0.77992 0.23993 0.96112 0.0
C50 C 0.78907 0.07513 0.91102 0.0
C51 C 0.75535 0.19296 0.07955 0.0
C52 C 0.89535 0.12279 0.09091 0.0
C53 C 0.76373 0.04041 0.03193 0.0
O54 O 0.89568 0.19458 0.99114 0.0
O55 O 0.755 0.20406 0.95488 0.0
O56 O 0.82076 0.0628 0.93613 0.0
O57 O 0.79525 0.20483 0.0809 0.0
O58 O 0.88548 0.08954 0.06307 0.0
O59 O 0.73944 0.07126 0.01517 0.0
O60 O 0.88319 0.16417 0.0854 0.0
O61 O 0.73517 0.17105 0.04674 0.0
O62 O 0.80434 0.04037 0.03025 0.0
O63 O 0.81178 0.24232 0.98974 0.0
O64 O 0.89849 0.11913 0.96907 0.0
O65 O 0.76163 0.10428 0.9231 0.0
Sc66 Sc 0.39498 0.41471 0.55102 0.0
Sc67 Sc 0.29081 0.36659 0.56096 0.0
Sc68 Sc 0.38457 0.30493 0.59508 0.0
O69 O 0.35663 0.36203 0.56896 0.0
C70 C 0.45043 0.3267 0.52418 0.0
C71 C 0.32197 0.4065 0.47212 0.0
C72 C 0.30688 0.25974 0.53135 0.0
C73 C 0.31837 0.47194 0.59064 0.0
C74 C 0.44094 0.38951 0.64326 0.0
C75 C 0.30476 0.3194 0.65371 0.0
O76 O 0.4407 0.36942 0.52259 0.0
O77 O 0.29244 0.39084 0.4946 0.0
O78 O 0.34385 0.25836 0.55226 0.0
O79 O 0.35581 0.46802 0.57736 0.0
O80 O 0.42798 0.34691 0.64074 0.0
O81 O 0.2822 0.34338 0.62671 0.0
O82 O 0.43153 0.41791 0.61341 0.0
O83 O 0.29081 0.43814 0.588 0.0
O84 O 0.34106 0.30333 0.64541 0.0
O85 O 0.36059 0.41528 0.48763 0.0
O86 O 0.43211 0.29859 0.54807 0.0
O87 O 0.28345 0.29572 0.53231 0.0
O88 O 0.21699 0.99766 0.30772 0.0
Cd89 Cd 0.22022 0.00629 0.38815 0.0
O90 O 0.163 0.04519 0.3071 0.0
Cd91 Cd 0.11021 0.08555 0.27823 0.0
O92 O 0.05444 0.11004 0.23919 0.0
C93 C 0.02377 0.08067 0.22865 0.0
O94 O 0.02656 0.03825 0.24313 0.0
C95 C 0.18687 0.01807 0.28617 0.0
C96 C 0.24828 0.09242 0.42811 0.0
O97 O 0.27485 0.05995 0.42062 0.0
O98 O 0.20835 0.08485 0.41528 0.0
O99 O 0.23993 0.67006 0.65908 0.0
Cd100 Cd 0.23065 0.75445 0.67062 0.0
O101 O 0.30595 0.69283 0.6512 0.0
Cd102 Cd 0.37332 0.6938 0.63547 0.0
O103 O 0.44034 0.69259 0.61948 0.0
C104 C 0.45863 0.7254 0.60057 0.0
O105 O 0.43673 0.76263 0.59038 0.0
C106 C 0.27797 0.65957 0.65069 0.0
C107 C 0.21753 0.78349 0.7566 0.0
O108 O 0.18636 0.76834 0.72932 0.0
O109 O 0.25568 0.7846 0.74346 0.0
O110 O 0.9229 0.69509 0.13441 0.0
Cd111 Cd 0.86708 0.63547 0.14147 0.0
O112 O 0.87302 0.74616 0.14316 0.0
Cd113 Cd 0.84088 0.81243 0.14784 0.0
O114 O 0.80225 0.87374 0.13816 0.0
C115 C 0.76907 0.87212 0.11093 0.0
O116 O 0.75717 0.83216 0.09032 0.0
C117 C 0.91189 0.73751 0.13606 0.0
C118 C 0.83148 0.6436 0.22199 0.0
O119 O 0.86436 0.61834 0.21665 0.0
O120 O 0.81538 0.66542 0.1891 0.0
O121 O 0.73719 0.50502 0.76046 0.0
Cd122 Cd 0.73149 0.49794 0.83909 0.0
O123 O 0.66711 0.49192 0.75011 0.0
Cd124 Cd 0.65209 0.47409 0.81581 0.0
O125 O 0.59047 0.43791 0.79938 0.0
C126 C 0.56299 0.4643 0.78086 0.0
O127 O 0.57234 0.50927 0.78086 0.0
C128 C 0.7029 0.50161 0.73486 0.0
C129 C 0.74836 0.40967 0.87019 0.0
O130 O 0.77851 0.44083 0.86939 0.0
O131 O 0.71019 0.41986 0.85534 0.0
O132 O 0.6352 0.29934 0.33566 0.0
Cd133 Cd 0.62064 0.21837 0.3117 0.0
O134 O 0.69476 0.28092 0.37367 0.0
Cd135 Cd 0.66034 0.21605 0.38538 0.0
O136 O 0.60055 0.22323 0.41835 0.0
C137 C 0.59867 0.26298 0.43827 0.0
O138 O 0.63225 0.29177 0.43958 0.0
C139 C 0.67107 0.31182 0.35624 0.0
C140 C 0.66333 0.20771 0.2358 0.0
O141 O 0.62296 0.21643 0.23385 0.0
O142 O 0.68295 0.20194 0.27356 0.0
O143 O 0.22717 0.20742 0.93809 0.0
Cd144 Cd 0.24257 0.28774 0.91885 0.0
O145 O 0.18411 0.20015 0.87801 0.0
Cd146 Cd 0.13474 0.16625 0.83268 0.0
O147 O 0.06665 0.1606 0.84089 0.0
C148 C 0.05295 0.19481 0.86321 0.0
O149 O 0.07897 0.23111 0.87342 0.0
C150 C 0.19992 0.18299 0.91321 0.0
C151 C 0.25813 0.29499 0.83088 0.0
O152 O 0.28799 0.28482 0.86002 0.0
O153 O 0.22019 0.3017 0.84318 0.0
O154 O 0.41925 0.65275 0.26174 0.0
Cd155 Cd 0.34834 0.63223 0.22178 0.0
O156 O 0.42551 0.57699 0.26826 0.0
Cd157 Cd 0.35751 0.55574 0.25494 0.0
O158 O 0.3175 0.5173 0.29751 0.0
C159 C 0.32599 0.47445 0.3015 0.0
O160 O 0.35303 0.45528 0.27553 0.0
C161 C 0.44208 0.61812 0.27287 0.0
C162 C 0.30047 0.69619 0.17242 0.0
O163 O 0.33423 0.6778 0.15824 0.0
O164 O 0.29037 0.6862 0.2108 0.0
O165 O 0.97826 0.85373 0.73399 0.0
Cd166 Cd 0.9601 0.86277 0.65517 0.0
O167 O 0.93046 0.90637 0.74409 0.0
Cd168 Cd 0.88229 0.95697 0.76125 0.0
O169 O 0.82714 0.98428 0.72078 0.0
C170 C 0.79565 0.00888 0.73146 0.0
O171 O 0.76779 0.02244 0.70028 0.0
C172 C 0.9592 0.87987 0.76052 0.0
C173 C 0.89208 0.80674 0.61489 0.0
O174 O 0.93059 0.79166 0.62045 0.0
O175 O 0.88516 0.8483 0.62946 0.0
C176 C 0.12824 0.99427 0.17347 0.0
C177 C 0.16201 0.98059 0.14803 0.0
H178 H 0.10941 0.01481 0.23696 0.0
C179 C 0.2044 0.98153 0.16821 0.0
H180 H 0.09509 0.99343 0.15944 0.0
C181 C 0.2126 0.99495 0.21276 0.0
C182 C 0.1787 0.00801 0.23817 0.0
H183 H 0.23126 0.97113 0.14983 0.0
H184 H 0.24546 0.99455 0.22749 0.0
C185 C 0.13649 0.00741 0.21798 0.0
C186 C 0.56287 0.66758 0.57885 0.0
C187 C 0.57675 0.69329 0.54428 0.0
H188 H 0.51493 0.65792 0.62403 0.0
C189 C 0.55542 0.73435 0.53321 0.0
H190 H 0.57906 0.63606 0.58843 0.0
C191 C 0.51824 0.74685 0.5536 0.0
C192 C 0.50209 0.71843 0.58527 0.0
H193 H 0.56538 0.75467 0.50657 0.0
H194 H 0.50071 0.77696 0.54254 0.0
C195 C 0.52598 0.68001 0.59912 0.0
C196 C 0.75838 0.00086 0.10051 0.0
C197 C 0.7457 0.00244 0.05561 0.0
H198 H 0.77512 0.95738 0.15389 0.0
C199 C 0.73032 0.96158 0.0321 0.0
H200 H 0.77084 0.03209 0.11898 0.0
C201 C 0.73295 0.91859 0.05198 0.0
C202 C 0.7516 0.91636 0.09525 0.0
H203 H 0.72115 0.96213 0.9972 0.0
H204 H 0.72495 0.88698 0.03199 0.0
C205 C 0.76129 0.95805 0.12028 0.0
C206 C 0.47207 0.45598 0.69176 0.0
C207 C 0.46829 0.40755 0.68235 0.0
H208 H 0.50397 0.5117 0.73103 0.0
C209 C 0.492 0.3774 0.70955 0.0
H210 H 0.45355 0.48017 0.67204 0.0
C211 C 0.52117 0.39563 0.74361 0.0
C212 C 0.52676 0.44427 0.75119 0.0
H213 H 0.48946 0.33989 0.70334 0.0
H214 H 0.54065 0.37172 0.76267 0.0
C215 C 0.50079 0.4741 0.72587 0.0
C216 C 0.65409 0.44074 0.37222 0.0
C217 C 0.68981 0.45458 0.40124 0.0
H218 H 0.62081 0.38502 0.33423 0.0
C219 C 0.72277 0.42278 0.41011 0.0
H220 H 0.62852 0.46482 0.36429 0.0
C221 C 0.71819 0.37662 0.39315 0.0
C222 C 0.68083 0.36193 0.36669 0.0
H223 H 0.75071 0.43267 0.43231 0.0
H224 H 0.74279 0.35199 0.40261 0.0
C225 C 0.64979 0.395 0.35487 0.0
C226 C 0.96697 0.21589 0.94188 0.0
C227 C 0.94488 0.17243 0.93869 0.0
H228 H 0.01842 0.25736 0.91991 0.0
C229 C 0.95569 0.13854 0.907 0.0
H230 H 0.9591 0.24288 0.96563 0.0
C231 C 0.98924 0.14694 0.88063 0.0
C232 C 0.01292 0.18934 0.88547 0.0
H233 H 0.93877 0.10497 0.90302 0.0
H234 H 0.99761 0.11943 0.85764 0.0
C235 C 0.0008 0.22423 0.91554 0.0
C236 C 0.28826 0.45521 0.41406 0.0
C237 C 0.31203 0.41599 0.42573 0.0
H238 H 0.27367 0.50469 0.36478 0.0
C239 C 0.33411 0.39184 0.39396 0.0
H240 H 0.27149 0.47463 0.4384 0.0
C241 C 0.3351 0.40855 0.35189 0.0
C242 C 0.31492 0.45047 0.34122 0.0
H243 H 0.35292 0.36169 0.40256 0.0
H244 H 0.3545 0.39051 0.32894 0.0
C245 C 0.28977 0.47247 0.37205 0.0
C246 C 0.98981 0.91994 0.87951 0.0
C247 C 0.01211 0.88089 0.89524 0.0
H248 H 0.95456 0.95015 0.82464 0.0
C249 C 0.01194 0.84028 0.86764 0.0
H250 H 0.98906 0.95178 0.89984 0.0
C251 C 0.99259 0.83959 0.82484 0.0
C252 C 0.97225 0.87921 0.8083 0.0
H253 H 0.02846 0.80937 0.87832 0.0
H254 H 0.99486 0.80826 0.80408 0.0
C255 C 0.96981 0.91899 0.83651 0.0
C256 C 0.80715 0.01424 0.85535 0.0
C257 C 0.78619 0.05592 0.86533 0.0
H258 H 0.82492 0.96568 0.80553 0.0
C259 C 0.76576 0.0803 0.83105 0.0
H260 H 0.82246 0.99412 0.88115 0.0
C261 C 0.76821 0.06445 0.78745 0.0
C262 C 0.791 0.02395 0.77752 0.0
H263 H 0.7494 0.11252 0.83778 0.0
H264 H 0.75335 0.08467 0.76149 0.0
C265 C 0.80922 0.99826 0.81194 0.0
C266 C 0.49246 0.26169 0.49142 0.0
C267 C 0.48649 0.30981 0.4994 0.0
H268 H 0.53249 0.2089 0.46516 0.0
C269 C 0.51673 0.34191 0.48544 0.0
H270 H 0.46958 0.23609 0.50162 0.0
C271 C 0.55284 0.32635 0.46538 0.0
C272 C 0.55927 0.27834 0.45809 0.0
H273 H 0.51323 0.37917 0.49112 0.0
H274 H 0.57587 0.3521 0.45568 0.0
C275 C 0.52836 0.2461 0.47053 0.0
C276 C 0.13057 0.07895 0.94072 0.0
C277 C 0.16203 0.049 0.95844 0.0
H278 H 0.11804 0.14506 0.91237 0.0
C279 C 0.20587 0.06305 0.9592 0.0
H280 H 0.09657 0.06943 0.93983 0.0
C281 C 0.21789 0.10618 0.94378 0.0
C282 C 0.18658 0.13606 0.92624 0.0
H283 H 0.23112 0.04125 0.97287 0.0
H284 H 0.25182 0.11633 0.94581 0.0
C285 C 0.14282 0.12198 0.92451 0.0
C286 C 0.54851 0.58745 0.33158 0.0
C287 C 0.56306 0.63035 0.35204 0.0
H288 H 0.49997 0.55034 0.28986 0.0
C289 C 0.54069 0.67099 0.34126 0.0
H290 H 0.56531 0.5556 0.33883 0.0
C291 C 0.50243 0.66797 0.3132 0.0
C292 C 0.48628 0.62429 0.29533 0.0
H293 H 0.5511 0.70451 0.35672 0.0
H294 H 0.48435 0.69931 0.30754 0.0
C295 C 0.51089 0.5845 0.30348 0.0
C296 C 0.3403 0.55028 0.62578 0.0
C297 C 0.30717 0.51842 0.60934 0.0
H298 H 0.35716 0.6184 0.65368 0.0
C299 C 0.26414 0.53244 0.60932 0.0
H300 H 0.37381 0.54032 0.62726 0.0
C301 C 0.2547 0.57803 0.62354 0.0
C302 C 0.28806 0.61045 0.63834 0.0
H303 H 0.23787 0.50874 0.597 0.0
H304 H 0.22127 0.58821 0.62189 0.0
C305 C 0.33083 0.59549 0.64045 0.0
C306 C 0.963 0.84383 0.08864 0.0
C307 C 0.00687 0.83256 0.09378 0.0
H308 H 0.89785 0.82201 0.09765 0.0
C309 C 0.01905 0.7946 0.11913 0.0
H310 H 0.95271 0.87254 0.06878 0.0
C311 C 0.98795 0.76595 0.13562 0.0
C312 C 0.94381 0.77447 0.12725 0.0
H313 H 0.05265 0.78524 0.12384 0.0
H314 H 0.99845 0.73547 0.15289 0.0
C315 C 0.93159 0.81484 0.1052 0.0
C316 C 0.66414 0.51302 0.61564 0.0
C317 C 0.70096 0.53132 0.59794 0.0
H318 H 0.63603 0.48922 0.67221 0.0
C319 C 0.73959 0.53718 0.62519 0.0
H320 H 0.63389 0.50767 0.59569 0.0
C321 C 0.74082 0.52654 0.66956 0.0
C322 C 0.70345 0.50985 0.68744 0.0
H323 H 0.76857 0.55121 0.61263 0.0
H324 H 0.77069 0.53245 0.69001 0.0
C325 C 0.66537 0.50246 0.65972 0.0
C326 C 0.95015 0.14909 0.152 0.0
C327 C 0.92459 0.11309 0.12974 0.0
H328 H 0.00191 0.16703 0.20072 0.0
C329 C 0.9296 0.06698 0.14279 0.0
H330 H 0.94708 0.18496 0.14264 0.0
C331 C 0.96066 0.0568 0.17624 0.0
C332 C 0.98775 0.09242 0.19696 0.0
H333 H 0.91013 0.03853 0.12649 0.0
H334 H 0.96446 0.02073 0.1847 0.0
C335 C 0.98167 0.1388 0.18512 0.0
C336 C 0.20202 0.75495 0.12026 0.0
C337 C 0.22024 0.78134 0.08846 0.0
H338 H 0.21347 0.70835 0.17279 0.0
C339 C 0.26506 0.77997 0.08494 0.0
H340 H 0.16763 0.75565 0.12388 0.0
C341 C 0.29106 0.75228 0.11218 0.0
C342 C 0.27303 0.72646 0.14444 0.0
H343 H 0.27998 0.79993 0.06068 0.0
H344 H 0.32539 0.75146 0.10828 0.0
C345 C 0.22829 0.72828 0.14844 0.0
C346 C 0.78657 0.76851 0.55001 0.0
C347 C 0.7941 0.72116 0.53991 0.0
H348 H 0.81148 0.83279 0.58216 0.0
C349 C 0.83321 0.7022 0.55654 0.0
H350 H 0.75682 0.78423 0.53793 0.0
C351 C 0.86435 0.72987 0.58146 0.0
C352 C 0.8573 0.77729 0.5909 0.0
H353 H 0.84035 0.6659 0.54971 0.0
H354 H 0.89426 0.71405 0.59297 0.0
C355 C 0.81783 0.79627 0.57546 0.0
C356 C 0.68652 0.19973 0.11626 0.0
C357 C 0.73193 0.201 0.11927 0.0
H358 H 0.62924 0.201 0.15072 0.0
C359 C 0.75457 0.20571 0.16092 0.0
H360 H 0.66815 0.19614 0.08462 0.0
C361 C 0.73225 0.20764 0.1988 0.0
C362 C 0.68687 0.20559 0.19575 0.0
H363 H 0.78955 0.20635 0.16435 0.0
H364 H 0.75058 0.21063 0.23048 0.0
C365 C 0.66422 0.20236 0.1541 0.0
C366 C 0.25058 0.32694 0.71109 0.0
C367 C 0.29033 0.31115 0.69794 0.0
H368 H 0.20885 0.33389 0.76363 0.0
C369 C 0.31798 0.28842 0.72846 0.0
H370 H 0.22851 0.3445 0.68848 0.0
C371 C 0.307 0.2828 0.77113 0.0
C372 C 0.26785 0.2993 0.78465 0.0
H373 H 0.34885 0.27556 0.7198 0.0
H374 H 0.32954 0.26573 0.79369 0.0
C375 C 0.23934 0.32083 0.75408 0.0
C376 C 0.75666 0.67422 0.31066 0.0
C377 C 0.77275 0.64651 0.34479 0.0
H378 H 0.76253 0.69497 0.24486 0.0
C379 C 0.8094 0.61973 0.33869 0.0
H380 H 0.72849 0.69522 0.31424 0.0
C381 C 0.82882 0.61966 0.29918 0.0
C382 C 0.81208 0.64622 0.26461 0.0
H383 H 0.82295 0.59822 0.36432 0.0
H384 H 0.85661 0.59806 0.29555 0.0
C385 C 0.77609 0.67397 0.27088 0.0
C386 C 0.80517 0.31543 0.93312 0.0
C387 C 0.7721 0.28132 0.93457 0.0
H388 H 0.82376 0.38215 0.91135 0.0
C389 C 0.73175 0.28836 0.91203 0.0
H390 H 0.83686 0.3109 0.94965 0.0
C391 C 0.72419 0.32963 0.89007 0.0
C392 C 0.75698 0.3643 0.88993 0.0
H393 H 0.70568 0.26271 0.91245 0.0
H394 H 0.69243 0.33475 0.87396 0.0
C395 C 0.79775 0.3563 0.91097 0.0
C396 C 0.2486 0.21308 0.48524 0.0
C397 C 0.2914 0.2176 0.50402 0.0
H398 H 0.20128 0.16998 0.4465 0.0
C399 C 0.31995 0.18125 0.49623 0.0
H400 H 0.22577 0.24041 0.49044 0.0
C401 C 0.30607 0.14128 0.47085 0.0
C402 C 0.26318 0.13632 0.45272 0.0
H403 H 0.35327 0.18354 0.50974 0.0
H404 H 0.32897 0.11394 0.46598 0.0
C405 C 0.23458 0.17275 0.46 0.0
C406 C 0.16001 0.80286 0.85949 0.0
C407 C 0.19092 0.82836 0.88769 0.0
H408 H 0.14414 0.76916 0.79663 0.0
C409 C 0.23119 0.83941 0.87235 0.0
H410 H 0.12837 0.7942 0.86985 0.0
C411 C 0.2404 0.82444 0.82981 0.0
C412 C 0.20918 0.79898 0.80185 0.0
H413 H 0.25557 0.85906 0.89327 0.0
H414 H 0.27169 0.83314 0.81871 0.0
C415 C 0.16894 0.7886 0.81722 0.0
loop_
_geom_bond_atom_site_label_1
_geom_bond_atom_site_label_2
_geom_bond_distance
_geom_bond_site_symmetry_2
_ccdc_geom_bond_type
Sc0 O3 2.027 . S
Sc0 O10 2.105 1_554 S
Sc0 O13 2.105 . S
Sc0 O16 2.105 . S
Sc0 O19 2.105 1_554 S
Sc1 O3 2.020 1_556 S
Sc1 O11 2.105 . S
Sc1 O15 2.105 1_556 S
Sc1 O17 2.105 1_556 S
Sc1 O21 2.105 . S
Sc2 O3 2.029 . S
Sc2 O12 2.105 1_554 S
Sc2 O14 2.105 . S
Sc2 O18 2.105 . S
Sc2 O20 2.105 1_554 S
O3 Sc0 2.027 . S
O3 Sc1 2.020 1_554 S
O3 Sc2 2.029 . S
C4 O10 1.268 . S
C4 O20 1.268 . S
C5 O11 1.268 . S
C5 O19 1.268 . S
C6 O12 1.268 . S
C6 O21 1.268 . S
C7 O13 1.268 . S
C7 O17 1.268 . S
C8 O14 1.268 . S
C8 O16 1.268 . S
C9 O15 1.268 . S
C9 O18 1.268 . S
O10 Sc0 2.105 1_556 S
O10 C4 1.268 . S
O11 Sc1 2.105 . S
O11 C5 1.268 . S
O12 Sc2 2.105 1_556 S
O12 C6 1.268 . S
O13 Sc0 2.105 . S
O13 C7 1.268 . S
O14 Sc2 2.105 . S
O14 C8 1.268 . S
O15 Sc1 2.105 1_554 S
O15 C9 1.268 . S
O16 Sc0 2.105 . S
O16 C8 1.268 . S
O17 Sc1 2.105 1_554 S
O17 C7 1.268 . S
O18 Sc2 2.105 . S
O18 C9 1.268 . S
O19 Sc0 2.105 1_556 S
O19 C5 1.268 . S
O20 Sc2 2.105 1_556 S
O20 C4 1.268 . S
O21 Sc1 2.105 . S
O21 C6 1.268 . S
Sc22 O25 2.025 . S
Sc22 O32 2.105 . S
Sc22 O35 2.105 . S
Sc22 O38 2.105 . S
Sc22 O41 2.105 . S
Sc23 O25 2.025 . S
Sc23 O33 2.105 . S
Sc23 O37 2.105 . S
Sc23 O39 2.105 . S
Sc23 O43 2.105 . S
Sc24 O25 2.025 . S
Sc24 O34 2.105 . S
Sc24 O36 2.105 . S
Sc24 O40 2.105 . S
Sc24 O42 2.105 . S
O25 Sc22 2.025 . S
O25 Sc23 2.025 . S
O25 Sc24 2.025 . S
C26 O32 1.268 . S
C26 O42 1.268 . S
C27 O33 1.268 . S
C27 O41 1.268 . S
C28 O34 1.268 . S
C28 O43 1.268 . S
C29 O35 1.268 . S
C29 O39 1.268 . S
C30 O36 1.268 . S
C30 O38 1.268 . S
C31 O37 1.268 . S
C31 O40 1.268 . S
O32 Sc22 2.105 . S
O32 C26 1.268 . S
O33 Sc23 2.105 . S
O33 C27 1.268 . S
O34 Sc24 2.105 . S
O34 C28 1.268 . S
O35 Sc22 2.105 . S
O35 C29 1.268 . S
O36 Sc24 2.105 . S
O36 C30 1.268 . S
O37 Sc23 2.105 . S
O37 C31 1.268 . S
O38 Sc22 2.105 . S
O38 C30 1.268 . S
O39 Sc23 2.105 . S
O39 C29 1.268 . S
O40 Sc24 2.105 . S
O40 C31 1.268 . S
O41 Sc22 2.105 . S
O41 C27 1.268 . S
O42 Sc24 2.105 . S
O42 C26 1.268 . S
O43 Sc23 2.105 . S
O43 C28 1.268 . S
Sc44 O47 2.025 . S
Sc44 O54 2.105 . S
Sc44 O57 2.105 . S
Sc44 O60 2.105 . S
Sc44 O63 2.105 1_554 S
Sc45 O47 2.025 . S
Sc45 O55 2.105 1_554 S
Sc45 O59 2.105 . S
Sc45 O61 2.105 . S
Sc45 O65 2.105 1_554 S
Sc46 O47 2.025 . S
Sc46 O56 2.105 1_554 S
Sc46 O58 2.105 . S
Sc46 O62 2.105 . S
Sc46 O64 2.105 1_554 S
O47 Sc44 2.025 . S
O47 Sc45 2.025 . S
O47 Sc46 2.025 . S
C48 O54 1.268 1_556 S
C48 O64 1.268 . S
C49 O55 1.268 . S
C49 O63 1.268 . S
C50 O56 1.268 . S
C50 O65 1.268 . S
C51 O57 1.268 . S
C51 O61 1.268 . S
C52 O58 1.268 . S
C52 O60 1.268 . S
C53 O59 1.268 . S
C53 O62 1.268 . S
O54 Sc44 2.105 . S
O54 C48 1.268 1_554 S
O55 Sc45 2.105 1_556 S
O55 C49 1.268 . S
O56 Sc46 2.105 1_556 S
O56 C50 1.268 . S
O57 Sc44 2.105 . S
O57 C51 1.268 . S
O58 Sc46 2.105 . S
O58 C52 1.268 . S
O59 Sc45 2.105 . S
O59 C53 1.268 . S
O60 Sc44 2.105 . S
O60 C52 1.268 . S
O61 Sc45 2.105 . S
O61 C51 1.268 . S
O62 Sc46 2.105 . S
O62 C53 1.268 . S
O63 Sc44 2.105 1_556 S
O63 C49 1.268 . S
O64 Sc46 2.105 1_556 S
O64 C48 1.268 . S
O65 Sc45 2.105 1_556 S
O65 C50 1.268 . S
Sc66 O69 2.025 . S
Sc66 O76 2.105 . S
Sc66 O79 2.105 . S
Sc66 O82 2.105 . S
Sc66 O85 2.105 . S
Sc67 O69 2.025 . S
Sc67 O77 2.105 . S
Sc67 O81 2.105 . S
Sc67 O83 2.105 . S
Sc67 O87 2.105 . S
Sc68 O69 2.025 . S
Sc68 O78 2.105 . S
Sc68 O80 2.105 . S
Sc68 O84 2.105 . S
Sc68 O86 2.105 . S
O69 Sc66 2.025 . S
O69 Sc67 2.025 . S
O69 Sc68 2.025 . S
C70 O76 1.268 . S
C70 O86 1.268 . S
C71 O77 1.268 . S
C71 O85 1.268 . S
C72 O78 1.268 . S
C72 O87 1.268 . S
C73 O79 1.268 . S
C73 O83 1.268 . S
C74 O80 1.268 . S
C74 O82 1.268 . S
C75 O81 1.268 . S
C75 O84 1.268 . S
O76 Sc66 2.105 . S
O76 C70 1.268 . S
O77 Sc67 2.105 . S
O77 C71 1.268 . S
O78 Sc68 2.105 . S
O78 C72 1.268 . S
O79 Sc66 2.105 . S
O79 C73 1.268 . S
O80 Sc68 2.105 . S
O80 C74 1.268 . S
O81 Sc67 2.105 . S
O81 C75 1.268 . S
O82 Sc66 2.105 . S
O82 C74 1.268 . S
O83 Sc67 2.105 . S
O83 C73 1.268 . S
O84 Sc68 2.105 . S
O84 C75 1.268 . S
O85 Sc66 2.105 . S
O85 C71 1.268 . S
O86 Sc68 2.105 . S
O86 C70 1.268 . S
O87 Sc67 2.105 . S
O87 C72 1.268 . S
O88 Cd89 2.300 . S
O88 C95 1.275 . S
Cd89 O88 2.300 . S
Cd89 O97 2.381 . S
Cd89 O98 2.378 . S
O90 Cd91 2.385 . S
O90 C95 1.255 . S
Cd91 O90 2.385 . S
Cd91 O92 2.317 . S
O92 Cd91 2.317 . S
O92 C93 1.232 . S
C93 O92 1.232 . S
C93 O94 1.218 . S
O94 C93 1.218 . S
C95 O88 1.275 . S
C95 O90 1.255 . S
C96 O97 1.258 . S
C96 O98 1.256 . S
O97 Cd89 2.381 . S
O97 C96 1.258 . S
O98 Cd89 2.378 . S
O98 C96 1.256 . S
O99 Cd100 2.300 . S
O99 C106 1.275 . S
Cd100 O99 2.300 . S
Cd100 O108 2.381 . S
Cd100 O109 2.378 . S
O101 Cd102 2.385 . S
O101 C106 1.255 . S
Cd102 O101 2.385 . S
Cd102 O103 2.317 . S
O103 Cd102 2.317 . S
O103 C104 1.232 . S
C104 O103 1.232 . S
C104 O105 1.218 . S
O105 C104 1.218 . S
C106 O99 1.275 . S
C106 O101 1.255 . S
C107 O108 1.258 . S
C107 O109 1.256 . S
O108 Cd100 2.381 . S
O108 C107 1.258 . S
O109 Cd100 2.378 . S
O109 C107 1.256 . S
O110 Cd111 2.300 . S
O110 C117 1.275 . S
Cd111 O110 2.300 . S
Cd111 O119 2.381 . S
Cd111 O120 2.378 . S
O112 Cd113 2.385 . S
O112 C117 1.255 . S
Cd113 O112 2.385 . S
Cd113 O114 2.317 . S
O114 Cd113 2.317 . S
O114 C115 1.232 . S
C115 O114 1.232 . S
C115 O116 1.218 . S
O116 C115 1.218 . S
C117 O110 1.275 . S
C117 O112 1.255 . S
C118 O119 1.258 . S
C118 O120 1.256 . S
O119 Cd111 2.381 . S
O119 C118 1.258 . S
O120 Cd111 2.378 . S
O120 C118 1.256 . S
O121 Cd122 2.300 . S
O121 C128 1.275 . S
Cd122 O121 2.300 . S
Cd122 O130 2.381 . S
Cd122 O131 2.378 . S
O123 Cd124 2.385 . S
O123 C128 1.255 . S
Cd124 O123 2.385 . S
Cd124 O125 2.317 . S
O125 Cd124 2.317 . S
O125 C126 1.232 . S
C126 O125 1.232 . S
C126 O127 1.218 . S
O127 C126 1.218 . S
C128 O121 1.275 . S
C128 O123 1.255 . S
C129 O130 1.258 . S
C129 O131 1.256 . S
O130 Cd122 2.381 . S
O130 C129 1.258 . S
O131 Cd122 2.378 . S
O131 C129 1.256 . S
O132 Cd133 2.300 . S
O132 C139 1.275 . S
Cd133 O132 2.300 . S
Cd133 O141 2.381 . S
Cd133 O142 2.378 . S
O134 Cd135 2.385 . S
O134 C139 1.255 . S
Cd135 O134 2.385 . S
Cd135 O136 2.317 . S
O136 Cd135 2.317 . S
O136 C137 1.232 . S
C137 O136 1.232 . S
C137 O138 1.218 . S
O138 C137 1.218 . S
C139 O132 1.275 . S
C139 O134 1.255 . S
C140 O141 1.258 . S
C140 O142 1.256 . S
O141 Cd133 2.381 . S
O141 C140 1.258 . S
O142 Cd133 2.378 . S
O142 C140 1.256 . S
O143 Cd144 2.300 . S
O143 C150 1.275 . S
Cd144 O143 2.300 . S
Cd144 O152 2.381 . S
Cd144 O153 2.378 . S
O145 Cd146 2.385 . S
O145 C150 1.255 . S
Cd146 O145 2.385 . S
Cd146 O147 2.317 . S
O147 Cd146 2.317 . S
O147 C148 1.232 . S
C148 O147 1.232 . S
C148 O149 1.218 . S
O149 C148 1.218 . S
C150 O143 1.275 . S
C150 O145 1.255 . S
C151 O152 1.258 . S
C151 O153 1.256 . S
O152 Cd144 2.381 . S
O152 C151 1.258 . S
O153 Cd144 2.378 . S
O153 C151 1.256 . S
O154 Cd155 2.300 . S
O154 C161 1.275 . S
Cd155 O154 2.300 . S
Cd155 O163 2.381 . S
Cd155 O164 2.378 . S
O156 Cd157 2.385 . S
O156 C161 1.255 . S
Cd157 O156 2.385 . S
Cd157 O158 2.317 . S
O158 Cd157 2.317 . S
O158 C159 1.232 . S
C159 O158 1.232 . S
C159 O160 1.218 . S
O160 C159 1.218 . S
C161 O154 1.275 . S
C161 O156 1.255 . S
C162 O163 1.258 . S
C162 O164 1.256 . S
O163 Cd155 2.381 . S
O163 C162 1.258 . S
O164 Cd155 2.378 . S
O164 C162 1.256 . S
O165 Cd166 2.300 . S
O165 C172 1.275 . S
Cd166 O165 2.300 . S
Cd166 O174 2.381 . S
Cd166 O175 2.378 . S
O167 Cd168 2.385 . S
O167 C172 1.255 . S
Cd168 O167 2.385 . S
Cd168 O169 2.317 . S
O169 Cd168 2.317 . S
O169 C170 1.232 . S
C170 O169 1.232 . S
C170 O171 1.218 . S
O171 C170 1.218 . S
C172 O165 1.275 . S
C172 O167 1.255 . S
C173 O174 1.258 . S
C173 O175 1.256 . S
O174 Cd166 2.381 . S
O174 C173 1.258 . S
O175 Cd166 2.378 . S
O175 C173 1.256 . S
C176 C177 1.387 . S
C176 H180 0.950 . S
C176 C185 1.390 . S
C177 C176 1.387 . S
C177 C179 1.387 1_565 S
H178 C185 0.950 . S
C179 C177 1.387 1_545 S
C179 C181 1.390 . S
C179 H183 0.950 . S
H180 C176 0.950 . S
C181 C179 1.390 . S
C181 C182 1.387 1_545 S
C181 H184 0.950 . S
C182 C181 1.387 1_565 S
C182 C185 1.387 . S
H183 C179 0.950 . S
H184 C181 0.950 . S
C185 C176 1.390 . S
C185 H178 0.950 . S
C185 C182 1.387 . S
C186 C187 1.387 . S
C186 H190 0.950 . S
C186 C195 1.390 . S
C187 C186 1.387 . S
C187 C189 1.387 . S
H188 C195 0.950 . S
C189 C187 1.387 . S
C189 C191 1.390 . S
C189 H193 0.950 . S
H190 C186 0.950 . S
C191 C189 1.390 . S
C191 C192 1.387 . S
C191 H194 0.950 . S
C192 C191 1.387 . S
C192 C195 1.387 . S
H193 C189 0.950 . S
H194 C191 0.950 . S
C195 C186 1.390 . S
C195 H188 0.950 . S
C195 C192 1.387 . S
C196 C197 1.388 . S
C196 H200 0.950 1_565 S
C196 C205 1.390 . S
C197 C196 1.388 . S
C197 C199 1.389 . S
H198 C205 0.950 . S
C199 C197 1.389 . S
C199 C201 1.390 . S
C199 H203 0.950 . S
H200 C196 0.950 1_545 S
C201 C199 1.390 . S
C201 C202 1.387 . S
C201 H204 0.950 . S
C202 C201 1.387 . S
C202 C205 1.387 . S
H203 C199 0.950 . S
H204 C201 0.950 . S
C205 C196 1.390 . S
C205 H198 0.950 . S
C205 C202 1.387 . S
C206 C207 1.387 . S
C206 H210 0.950 . S
C206 C215 1.390 . S
C207 C206 1.387 . S
C207 C209 1.387 . S
H208 C215 0.950 . S
C209 C207 1.387 . S
C209 C211 1.390 . S
C209 H213 0.950 . S
H210 C206 0.950 . S
C211 C209 1.390 . S
C211 C212 1.387 . S
C211 H214 0.950 . S
C212 C211 1.387 . S
C212 C215 1.387 . S
H213 C209 0.950 . S
H214 C211 0.950 . S
C215 C206 1.390 . S
C215 H208 0.950 . S
C215 C212 1.387 . S
C216 C217 1.387 . S
C216 H220 0.950 . S
C216 C225 1.390 . S
C217 C216 1.387 . S
C217 C219 1.387 . S
H218 C225 0.950 . S
C219 C217 1.387 . S
C219 C221 1.390 . S
C219 H223 0.950 . S
H220 C216 0.950 . S
C221 C219 1.390 . S
C221 C222 1.387 . S
C221 H224 0.950 . S
C222 C221 1.387 . S
C222 C225 1.387 . S
H223 C219 0.950 . S
H224 C221 0.950 . S
C225 C216 1.390 . S
C225 H218 0.950 . S
C225 C222 1.387 . S
C226 C227 1.387 1_455 S
C226 H230 0.952 1_556 S
C226 C235 1.390 . S
C227 C226 1.387 1_655 S
C227 C229 1.387 . S
H228 C235 0.950 1_554 S
C229 C227 1.387 . S
C229 C231 1.390 1_655 S
C229 H233 0.950 . S
H230 C226 0.952 1_554 S
C231 C229 1.390 1_455 S
C231 C232 1.387 . S
C231 H234 0.950 . S
C232 C231 1.387 . S
C232 C235 1.387 . S
H233 C229 0.950 . S
H234 C231 0.950 . S
C235 C226 1.390 . S
C235 H228 0.950 1_556 S
C235 C232 1.387 . S
C236 C237 1.387 . S
C236 H240 0.950 . S
C236 C245 1.390 . S
C237 C236 1.387 . S
C237 C239 1.387 . S
H238 C245 0.950 . S
C239 C237 1.387 . S
C239 C241 1.390 . S
C239 H243 0.950 . S
H240 C236 0.950 . S
C241 C239 1.390 . S
C241 C242 1.387 . S
C241 H244 0.950 . S
C242 C241 1.387 . S
C242 C245 1.387 . S
H243 C239 0.950 . S
H244 C241 0.950 . S
C245 C236 1.390 . S
C245 H238 0.950 . S
C245 C242 1.387 . S
C246 C247 1.387 . S
C246 H250 0.950 . S
C246 C255 1.390 . S
C247 C246 1.387 . S
C247 C249 1.387 . S
H248 C255 0.950 . S
C249 C247 1.387 . S
C249 C251 1.390 1_455 S
C249 H253 0.950 . S
H250 C246 0.950 . S
C251 C249 1.390 1_655 S
C251 C252 1.387 . S
C251 H254 0.950 . S
C252 C251 1.387 . S
C252 C255 1.387 1_655 S
H253 C249 0.950 . S
H254 C251 0.950 . S
C255 C246 1.390 . S
C255 H248 0.950 . S
C255 C252 1.387 1_455 S
C256 C257 1.387 . S
C256 H260 0.950 1_545 S
C256 C265 1.389 1_545 S
C257 C256 1.387 . S
C257 C259 1.387 . S
H258 C265 0.954 . S
C259 C257 1.387 . S
C259 C261 1.390 . S
C259 H263 0.950 . S
H260 C256 0.950 1_565 S
C261 C259 1.390 . S
C261 C262 1.387 . S
C261 H264 0.950 . S
C262 C261 1.387 . S
C262 C265 1.385 1_545 S
H263 C259 0.950 . S
H264 C261 0.950 . S
C265 C256 1.389 1_565 S
C265 H258 0.954 . S
C265 C262 1.385 1_565 S
C266 C267 1.387 . S
C266 H270 0.950 . S
C266 C275 1.390 . S
C267 C266 1.387 . S
C267 C269 1.387 . S
H268 C275 0.950 . S
C269 C267 1.387 . S
C269 C271 1.390 . S
C269 H273 0.950 . S
H270 C266 0.950 . S
C271 C269 1.390 . S
C271 C272 1.387 . S
C271 H274 0.950 . S
C272 C271 1.387 . S
C272 C275 1.387 . S
H273 C269 0.950 . S
H274 C271 0.950 . S
C275 C266 1.390 . S
C275 H268 0.950 . S
C275 C272 1.387 . S
C276 C277 1.387 . S
C276 H280 0.950 . S
C276 C285 1.390 . S
C277 C276 1.387 . S
C277 C279 1.387 . S
H278 C285 0.950 . S
C279 C277 1.387 . S
C279 C281 1.390 . S
C279 H283 0.950 . S
H280 C276 0.950 . S
C281 C279 1.390 . S
C281 C282 1.387 . S
C281 H284 0.950 . S
C282 C281 1.387 . S
C282 C285 1.387 . S
H283 C279 0.950 . S
H284 C281 0.950 . S
C285 C276 1.390 . S
C285 H278 0.950 . S
C285 C282 1.387 . S
C286 C287 1.387 . S
C286 H290 0.950 . S
C286 C295 1.390 . S
C287 C286 1.387 . S
C287 C289 1.387 . S
H288 C295 0.950 . S
C289 C287 1.387 . S
C289 C291 1.390 . S
C289 H293 0.950 . S
H290 C286 0.950 . S
C291 C289 1.390 . S
C291 C292 1.387 . S
C291 H294 0.950 . S
C292 C291 1.387 . S
C292 C295 1.387 . S
H293 C289 0.950 . S
H294 C291 0.950 . S
C295 C286 1.390 . S
C295 H288 0.950 . S
C295 C292 1.387 . S
C296 C297 1.387 . S
C296 H300 0.950 . S
C296 C305 1.390 . S
C297 C296 1.387 . S
C297 C299 1.387 . S
H298 C305 0.950 . S
C299 C297 1.387 . S
C299 C301 1.390 . S
C299 H303 0.950 . S
H300 C296 0.950 . S
C301 C299 1.390 . S
C301 C302 1.387 . S
C301 H304 0.950 . S
C302 C301 1.387 . S
C302 C305 1.387 . S
H303 C299 0.950 . S
H304 C301 0.950 . S
C305 C296 1.390 . S
C305 H298 0.950 . S
C305 C302 1.387 . S
C306 C307 1.387 1_655 S
C306 H310 0.950 . S
C306 C315 1.390 . S
C307 C306 1.387 1_455 S
C307 C309 1.387 1_455 S
H308 C315 0.950 . S
C309 C307 1.387 1_655 S
C309 C311 1.390 . S
C309 H313 0.950 1_655 S
H310 C306 0.950 . S
C311 C309 1.390 . S
C311 C312 1.387 . S
C311 H314 0.950 . S
C312 C311 1.387 . S
C312 C315 1.387 . S
H313 C309 0.950 1_455 S
H314 C311 0.950 . S
C315 C306 1.390 . S
C315 H308 0.950 . S
C315 C312 1.387 . S
C316 C317 1.387 . S
C316 H320 0.950 . S
C316 C325 1.390 . S
C317 C316 1.387 . S
C317 C319 1.387 . S
H318 C325 0.950 . S
C319 C317 1.387 . S
C319 C321 1.390 . S
C319 H323 0.950 . S
H320 C316 0.950 . S
C321 C319 1.390 . S
C321 C322 1.387 . S
C321 H324 0.950 . S
C322 C321 1.387 . S
C322 C325 1.387 . S
H323 C319 0.950 . S
H324 C321 0.950 . S
C325 C316 1.390 . S
C325 H318 0.950 . S
C325 C322 1.387 . S
C326 C327 1.387 . S
C326 H330 0.950 . S
C326 C335 1.390 . S
C327 C326 1.387 . S
C327 C329 1.387 . S
H328 C335 0.950 . S
C329 C327 1.387 . S
C329 C331 1.390 . S
C329 H333 0.950 . S
H330 C326 0.950 . S
C331 C329 1.390 . S
C331 C332 1.387 . S
C331 H334 0.950 . S
C332 C331 1.387 . S
C332 C335 1.387 . S
H333 C329 0.950 . S
H334 C331 0.950 . S
C335 C326 1.390 . S
C335 H328 0.950 . S
C335 C332 1.387 . S
C336 C337 1.387 . S
C336 H340 0.950 . S
C336 C345 1.390 . S
C337 C336 1.387 . S
C337 C339 1.387 . S
H338 C345 0.950 . S
C339 C337 1.387 . S
C339 C341 1.390 . S
C339 H343 0.950 . S
H340 C336 0.950 . S
C341 C339 1.390 . S
C341 C342 1.387 . S
C341 H344 0.950 . S
C342 C341 1.387 . S
C342 C345 1.387 . S
H343 C339 0.950 . S
H344 C341 0.950 . S
C345 C336 1.390 . S
C345 H338 0.950 . S
C345 C342 1.387 . S
C346 C347 1.387 . S
C346 H350 0.950 . S
C346 C355 1.390 . S
C347 C346 1.387 . S
C347 C349 1.387 . S
H348 C355 0.950 . S
C349 C347 1.387 . S
C349 C351 1.390 . S
C349 H353 0.950 . S
H350 C346 0.950 . S
C351 C349 1.390 . S
C351 C352 1.387 . S
C351 H354 0.950 . S
C352 C351 1.387 . S
C352 C355 1.387 . S
H353 C349 0.950 . S
H354 C351 0.950 . S
C355 C346 1.390 . S
C355 H348 0.950 . S
C355 C352 1.387 . S
C356 C357 1.387 . S
C356 H360 0.950 . S
C356 C365 1.390 . S
C357 C356 1.387 . S
C357 C359 1.387 . S
H358 C365 0.950 . S
C359 C357 1.387 . S
C359 C361 1.390 . S
C359 H363 0.950 . S
H360 C356 0.950 . S
C361 C359 1.390 . S
C361 C362 1.387 . S
C361 H364 0.950 . S
C362 C361 1.387 . S
C362 C365 1.387 . S
H363 C359 0.950 . S
H364 C361 0.950 . S
C365 C356 1.390 . S
C365 H358 0.950 . S
C365 C362 1.387 . S
C366 C367 1.387 . S
C366 H370 0.950 . S
C366 C375 1.390 . S
C367 C366 1.387 . S
C367 C369 1.387 . S
H368 C375 0.950 . S
C369 C367 1.387 . S
C369 C371 1.390 . S
C369 H373 0.950 . S
H370 C366 0.950 . S
C371 C369 1.390 . S
C371 C372 1.387 . S
C371 H374 0.950 . S
C372 C371 1.387 . S
C372 C375 1.387 . S
H373 C369 0.950 . S
H374 C371 0.950 . S
C375 C366 1.390 . S
C375 H368 0.950 . S
C375 C372 1.387 . S
C376 C377 1.387 . S
C376 H380 0.950 . S
C376 C385 1.390 . S
C377 C376 1.387 . S
C377 C379 1.387 . S
H378 C385 0.950 . S
C379 C377 1.387 . S
C379 C381 1.390 . S
C379 H383 0.950 . S
H380 C376 0.950 . S
C381 C379 1.390 . S
C381 C382 1.387 . S
C381 H384 0.950 . S
C382 C381 1.387 . S
C382 C385 1.387 . S
H383 C379 0.950 . S
H384 C381 0.950 . S
C385 C376 1.390 . S
C385 H378 0.950 . S
C385 C382 1.387 . S
C386 C387 1.387 . S
C386 H390 0.950 . S
C386 C395 1.390 . S
C387 C386 1.387 . S
C387 C389 1.387 . S
H388 C395 0.950 . S
C389 C387 1.387 . S
C389 C391 1.390 . S
C389 H393 0.950 . S
H390 C386 0.950 . S
C391 C389 1.390 . S
C391 C392 1.387 . S
C391 H394 0.950 . S
C392 C391 1.387 . S
C392 C395 1.387 . S
H393 C389 0.950 . S
H394 C391 0.950 . S
C395 C386 1.390 . S
C395 H388 0.950 . S
C395 C392 1.387 . S
C396 C397 1.387 . S
C396 H400 0.950 . S
C396 C405 1.390 . S
C397 C396 1.387 . S
C397 C399 1.387 . S
H398 C405 0.950 . S
C399 C397 1.387 . S
C399 C401 1.390 . S
C399 H403 0.950 . S
H400 C396 0.950 . S
C401 C399 1.390 . S
C401 C402 1.387 . S
C401 H404 0.950 . S
C402 C401 1.387 . S
C402 C405 1.387 . S
H403 C399 0.950 . S
H404 C401 0.950 . S
C405 C396 1.390 . S
C405 H398 0.950 . S
C405 C402 1.387 . S
C406 C407 1.387 . S
C406 H410 0.950 . S
C406 C415 1.390 . S
C407 C406 1.387 . S
C407 C409 1.387 . S
H408 C415 0.950 . S
C409 C407 1.387 . S
C409 C411 1.390 . S
C409 H413 0.950 . S
H410 C406 0.950 . S
C411 C409 1.390 . S
C411 C412 1.387 . S
C411 H414 0.950 . S
C412 C411 1.387 . S
C412 C415 1.387 . S
H413 C409 0.950 . S
H414 C411 0.950 . S
C415 C406 1.390 . S
C415 H408 0.950 . S
C415 C412 1.387 . S
C177 C8 1.647 . S
C182 C95 1.527 1_565 S
C187 C31 1.515 . S
C192 C104 1.138 . S
C197 C53 1.302 1_565 S
C202 C115 1.010 . S
C212 C126 1.150 . S
C207 C74 1.208 . S
C222 C139 1.390 . S
C217 C26 1.361 . S
C227 C48 1.283 . S
C232 C148 0.918 . S
C237 C71 1.234 . S
C242 C159 1.129 . S
C247 C5 1.730 . S
C252 C172 1.609 . S
C257 C50 1.308 . S
C262 C170 0.907 1_545 S
C272 C137 1.213 . S
C267 C70 1.438 . S
C282 C150 1.597 . S
C277 C4 1.656 1_545 S
C287 C28 1.696 . S
C292 C161 1.714 . S
C302 C106 1.429 . S
C297 C73 1.437 . S
C307 C7 1.719 . S
C312 C117 1.647 . S
C322 C128 1.565 . S
C317 C30 1.568 . S
C332 C93 0.918 1_655 S
C327 C52 1.310 . S
C342 C162 1.502 . S
C337 C9 1.463 . S
C352 C173 1.483 . S
C347 C29 1.525 . S
C357 C51 1.422 . S
C362 C140 1.395 . S
C372 C151 1.443 . S
C367 C75 1.544 . S
C382 C118 1.564 . S
C377 C27 1.674 . S
C387 C49 1.421 . S
C392 C129 1.417 . S
C402 C96 1.434 . S
C397 C72 1.487 . S
C412 C107 1.446 . S
C407 C6 1.498 . S
