# Generated by pormake.
# Topology nia, (6,6)-cn, num edge types: 1
# Building blocks:
#     Node 0, Type 0, BuildingBlock: VOLQOD_clean_sbu_1, # of connection points: 6
#     Node 1, Type 0, BuildingBlock: VOLQOD_clean_sbu_1, # of connection points: 6
#     Node 2, Type 1, BuildingBlock: MIDCAF_clean_sbu_0, # of connection points: 6
#     Node 3, Type 1, BuildingBlock: MIDCAF_clean_sbu_0, # of connection points: 6
#     Edge 4, Type (0, 1), BuildingBlock: FUNLAD_clean_linker_0, # of connection points: 2
#     Edge 5, Type (0, 1), BuildingBlock: FUNLAD_clean_linker_0, # of connection points: 2
#     Edge 6, Type (0, 1), BuildingBlock: FUNLAD_clean_linker_0, # of connection points: 2
#     Edge 7, Type (0, 1), BuildingBlock: FUNLAD_clean_linker_0, # of connection points: 2
#     Edge 8, Type (0, 1), BuildingBlock: FUNLAD_clean_linker_0, # of connection points: 2
#     Edge 9, Type (0, 1), BuildingBlock: FUNLAD_clean_linker_0, # of connection points: 2
#     Edge 10, Type (0, 1), BuildingBlock: FUNLAD_clean_linker_0, # of connection points: 2
#     Edge 11, Type (0, 1), BuildingBlock: FUNLAD_clean_linker_0, # of connection points: 2
#     Edge 12, Type (0, 1), BuildingBlock: FUNLAD_clean_linker_0, # of connection points: 2
#     Edge 13, Type (0, 1), BuildingBlock: FUNLAD_clean_linker_0, # of connection points: 2
#     Edge 14, Type (0, 1), BuildingBlock: FUNLAD_clean_linker_0, # of connection points: 2
#     Edge 15, Type (0, 1), BuildingBlock: FUNLAD_clean_linker_0, # of connection points: 2
# Relax obj value: 0.144
# Max RMSD: 0.235
# Mean RMSD: 0.189
data_MOF--net-nia--node1-VOLQOD_clean_sbu_1--node2-MIDCAF_clean_sbu_0--edge1-FUNLAD_clean_linker_0
_symmetry_space_group_name_H-M    P1
_symmetry_Int_Tables_number       1
_symmetry_cell_setting            triclinic
loop_
_symmetry_equiv_pos_as_xyz
'x, y, z'
_cell_length_a     27.801985
_cell_length_b     27.847304
_cell_length_c     39.32461
_cell_angle_alpha  90.545438
_cell_angle_beta   91.409389
_cell_angle_gamma 120.64796
loop_
_atom_site_label
_atom_site_type_symbol
_atom_site_fract_x
_atom_site_fract_y
_atom_site_fract_z
_atom_type_partial_charge
O0 O 0.04839 0.02209 0.9746 0.0
Zn1 Zn -0.03007 -0.02388 0.99021 0.0
O2 O -0.03149 0.97311 0.03976 0.0
Zn3 Zn 0.92935 0.89511 0.05262 0.0
Zn4 Zn 0.04521 0.01066 0.05878 0.0
Zn5 Zn 0.92927 0.00956 0.05705 0.0
O6 O 0.85941 0.8748 0.07739 0.0
O7 O 0.86362 0.95605 0.08435 0.0
O8 O 0.93847 0.89996 0.96833 0.0
O9 O 0.91039 0.84326 1.01204 0.0
O10 O -0.02323 0.88083 0.0851 0.0
O11 O 0.05873 0.95982 0.0888 0.0
O12 O 0.05959 0.07527 0.089 0.0
O13 O 0.92522 0.00882 0.97198 0.0
O14 O -0.02009 0.07563 0.08826 0.0
O15 O 0.89852 0.03432 1.01816 0.0
C16 C 0.09634 0.04363 0.98949 0.0
C17 C 0.84008 0.90388 0.08949 0.0
C18 C 0.02661 0.90944 0.09725 0.0
C19 C 0.91658 0.85117 0.98021 0.0
C20 C 0.03055 0.09604 0.09872 0.0
C21 C 0.89956 0.03041 0.98587 0.0
O22 O 0.10151 0.04086 1.02161 0.0
O23 O 0.04474 0.114 0.5235 0.0
Zn24 Zn 0.01007 0.05529 0.55965 0.0
O25 O -0.02709 -0.02041 0.53959 0.0
Zn26 Zn 0.89199 0.94192 0.54589 0.0
Zn27 Zn -0.01321 -0.01603 0.49131 0.0
Zn28 Zn 0.00359 0.937 0.5603 0.0
O29 O 0.86609 0.87135 0.5723 0.0
O30 O 0.94377 0.86898 0.5824 0.0
O31 O 0.95448 0.06788 0.58376 0.0
O32 O 0.87227 -0.00917 0.57339 0.0
O33 O 0.84881 0.9201 0.5005 0.0
O34 O 0.91573 0.94237 0.4635 0.0
O35 O 0.03344 0.95165 0.47896 0.0
O36 O 0.06852 0.06626 0.59557 0.0
O37 O 0.04066 0.91251 0.52615 0.0
O38 O 0.06034 -0.01728 0.59706 0.0
C39 C 0.0473 0.10979 0.49135 0.0
C40 C 0.89139 0.84817 0.5853 0.0
C41 C 0.8644 0.921 0.47016 0.0
C42 C 0.90177 0.03935 0.58714 0.0
C43 C 0.05044 0.92329 0.49482 0.0
C44 C 0.08231 0.03283 0.60825 0.0
O45 O 0.02649 0.06249 0.47624 0.0
Zn46 Zn 0.27086 0.63478 0.22766 0.0
Zn47 Zn 0.33604 0.66689 0.35461 0.0
Zn48 Zn 0.30588 0.64985 0.29257 0.0
C49 C 0.43012 0.69121 0.32152 0.0
C50 C 0.25177 0.5571 0.34895 0.0
O51 O 0.26101 0.69535 0.28252 0.0
O52 O 0.22567 0.67077 0.22989 0.0
C53 C 0.38869 0.69355 0.23007 0.0
O54 O 0.39808 0.68918 0.29663 0.0
O55 O 0.41058 0.67537 0.35056 0.0
O56 O 0.27483 0.59565 0.37133 0.0
O57 O 0.26236 0.56803 0.31732 0.0
O58 O 0.3474 0.6781 0.20958 0.0
O59 O 0.38122 0.68445 0.26209 0.0
O60 O 0.25231 0.55868 0.28208 0.0
O61 O 0.23061 0.55249 0.22692 0.0
C62 C 0.22783 0.52935 0.2548 0.0
O63 O 0.28055 0.7053 0.31639 0.0
O64 O 0.33196 0.73488 0.36413 0.0
C65 C 0.23138 0.69704 0.2574 0.0
C66 C 0.29797 0.73713 0.34332 0.0
Zn67 Zn 0.66462 0.32326 0.85169 0.0
Zn68 Zn 0.59474 0.28605 0.7233 0.0
Zn69 Zn 0.63153 0.30567 0.78851 0.0
C70 C 0.66752 0.40129 0.73252 0.0
C71 C 0.50162 0.25025 0.76227 0.0
O72 O 0.67157 0.25581 0.79961 0.0
O73 O 0.68076 0.26231 0.85582 0.0
C74 C 0.7263 0.42441 0.82147 0.0
O75 O 0.67134 0.38665 0.76298 0.0
O76 O 0.63664 0.36525 0.71003 0.0
O77 O 0.51493 0.25382 0.73161 0.0
O78 O 0.53902 0.26686 0.78656 0.0
O79 O 0.72812 0.40024 0.84802 0.0
O80 O 0.69052 0.39645 0.79714 0.0
O81 O 0.55809 0.27778 0.82069 0.0
O82 O 0.59522 0.31232 0.87191 0.0
C83 C 0.55267 0.28676 0.85222 0.0
O84 O 0.65787 0.25076 0.76467 0.0
O85 O 0.62205 0.23472 0.71195 0.0
C86 C 0.68455 0.24183 0.82799 0.0
C87 C 0.64975 0.2272 0.73501 0.0
C88 C 0.09755 0.91557 0.14079 0.0
C89 C 0.04621 0.88374 0.12265 0.0
C90 C 0.11473 0.89082 0.16535 0.0
C91 C 0.08078 0.8337 0.17214 0.0
C92 C 0.0297 0.80216 0.15395 0.0
C93 C 0.01246 0.82681 0.12965 0.0
C94 C 0.09852 0.80383 0.19563 0.0
C95 C 0.13778 0.82808 0.22092 0.0
C96 C 0.15865 0.79587 0.23968 0.0
C97 C 0.21563 0.82195 0.24937 0.0
C98 C 0.23908 0.78981 0.25906 0.0
C99 C 0.20558 0.73145 0.25913 0.0
H100 H 0.07958 0.71693 0.23888 0.0
C101 C 0.14774 0.70603 0.25332 0.0
C102 C 0.1242 0.73808 0.2443 0.0
H103 H 0.12125 0.66099 0.25363 0.0
H104 H 0.12449 0.95957 0.13601 0.0
H105 H 0.15509 0.91623 0.17816 0.0
H106 H 0.00298 0.75798 0.15841 0.0
H107 H -0.02733 0.80095 0.11622 0.0
H108 H 0.07902 0.75921 0.19067 0.0
H109 H 0.15879 0.87283 0.2257 0.0
H110 H 0.24286 0.86654 0.24669 0.0
H111 H 0.28393 0.81003 0.2635 0.0
C112 C 0.14773 0.10597 0.65129 0.0
C113 C 0.12376 0.05173 0.63706 0.0
C114 C 0.18751 0.12356 0.67816 0.0
C115 C 0.20393 0.08706 0.69141 0.0
C116 C 0.17924 0.03271 0.67751 0.0
C117 C 0.13953 0.01514 0.6508 0.0
C118 C 0.25111 0.10561 0.7166 0.0
C119 C 0.27094 0.15105 0.73734 0.0
C120 C 0.32694 0.17598 0.75464 0.0
C121 C 0.36061 0.23439 0.75688 0.0
C122 C 0.41813 0.25959 0.76368 0.0
C123 C 0.44232 0.22662 0.76888 0.0
H124 H 0.32519 0.09827 0.76407 0.0
C125 C 0.40792 0.16859 0.77059 0.0
C126 C 0.35038 0.14337 0.76408 0.0
H127 H 0.42605 0.14251 0.77429 0.0
H128 H 0.13647 0.13519 0.64135 0.0
H129 H 0.20662 0.1663 0.68742 0.0
H130 H 0.19149 0.00391 0.68695 0.0
H131 H 0.12183 0.97297 0.64063 0.0
H132 H 0.27293 0.08255 0.7159 0.0
H133 H 0.24988 0.17483 0.73793 0.0
H134 H 0.34349 0.26047 0.75015 0.0
H135 H 0.44429 0.30447 0.76178 0.0
C136 C 0.02428 0.16474 0.1376 0.0
C137 C 0.05608 0.14371 0.12351 0.0
C138 C 0.04864 0.2092 0.16139 0.0
C139 C 0.1054 0.23348 0.17165 0.0
C140 C 0.13701 0.21249 0.15747 0.0
C141 C 0.11269 0.16804 0.13385 0.0
C142 C 0.13451 0.28349 0.19472 0.0
C143 C 0.10847 0.29952 0.21659 0.0
C144 C 0.13804 0.3551 0.23417 0.0
C145 C 0.10912 0.38371 0.2386 0.0
C146 C 0.13806 0.44013 0.24844 0.0
C147 C 0.19604 0.46827 0.25484 0.0
H148 H 0.2186 0.36081 0.24146 0.0
C149 C 0.22427 0.43864 0.25347 0.0
C150 C 0.19542 0.38224 0.24344 0.0
H151 H 0.26918 0.45996 0.25802 0.0
H152 H -0.0194 0.14705 0.13016 0.0
H153 H 0.02316 0.22518 0.17083 0.0
H154 H 0.18093 0.23077 0.16456 0.0
H155 H 0.13855 0.15301 0.12356 0.0
H156 H 0.17946 0.30946 0.19228 0.0
H157 H 0.06349 0.27434 0.219 0.0
H158 H 0.06488 0.36363 0.23195 0.0
H159 H 0.11579 0.46267 0.24896 0.0
C160 C 0.81689 0.03211 0.61332 0.0
C161 C 0.87485 0.06246 0.60857 0.0
C162 C 0.79192 0.05352 0.63423 0.0
C163 C 0.82453 0.10577 0.65113 0.0
C164 C 0.88232 0.13616 0.6461 0.0
C165 C 0.90725 0.11481 0.62519 0.0
C166 C 0.79997 0.1317 0.67253 0.0
C167 C 0.74828 0.10365 0.68503 0.0
C168 C 0.72271 0.13259 0.702 0.0
C169 C 0.66556 0.11239 0.69591 0.0
C170 C 0.64133 0.14228 0.70786 0.0
C171 C 0.67353 0.19207 0.72693 0.0
H172 H 0.7983 0.19707 0.72834 0.0
C173 C 0.72986 0.21067 0.73484 0.0
C174 C 0.7544 0.18117 0.72248 0.0
H175 H 0.75556 0.24955 0.74897 0.0
H176 H 0.79063 -0.00822 0.60077 0.0
H177 H 0.74703 0.02927 0.63636 0.0
H178 H 0.90845 0.17672 0.65844 0.0
H179 H 0.95203 0.13942 0.62216 0.0
H180 H 0.82532 0.17652 0.67722 0.0
H181 H 0.7218 0.05906 0.6803 0.0
H182 H 0.6402 0.07487 0.68044 0.0
H183 H 0.59772 0.12723 0.70147 0.0
C184 C 0.77006 0.90861 0.12612 0.0
C185 C 0.79006 0.87677 0.11062 0.0
C186 C 0.72308 0.88319 0.14619 0.0
C187 C 0.69463 0.82517 0.15094 0.0
C188 C 0.71542 0.7936 0.13619 0.0
C189 C 0.76248 0.81902 0.11613 0.0
C190 C 0.64294 0.79625 0.17073 0.0
C191 C 0.60736 0.81537 0.17315 0.0
C192 C 0.55233 0.78403 0.18918 0.0
C193 C 0.5093 0.79251 0.17736 0.0
C194 C 0.45627 0.76291 0.19078 0.0
C195 C 0.4454 0.72496 0.21683 0.0
H196 H 0.57425 0.73971 0.22585 0.0
C197 C 0.48847 0.71696 0.22924 0.0
C198 C 0.5417 0.74636 0.21558 0.0
H199 H 0.4807 0.6872 0.24894 0.0
H200 H 0.79079 0.95331 0.12289 0.0
H201 H 0.70958 0.90932 0.15813 0.0
H202 H 0.69459 0.74894 0.13968 0.0
H203 H 0.77703 0.79328 0.10484 0.0
H204 H 0.63158 0.7558 0.18086 0.0
H205 H 0.61624 0.85308 0.1601 0.0
H206 H 0.51644 0.82147 0.15721 0.0
H207 H 0.42372 0.76997 0.18088 0.0
C208 C 0.88802 0.77491 0.6233 0.0
C209 C 0.85967 0.79628 0.6045 0.0
C210 C 0.85833 0.72566 0.6412 0.0
C211 C 0.79954 0.69667 0.64065 0.0
C212 C 0.77125 0.71792 0.62183 0.0
C213 C 0.80093 0.76742 0.60415 0.0
C214 C 0.76629 0.64225 0.65728 0.0
C215 C 0.78474 0.62667 0.68469 0.0
C216 C 0.75272 0.57022 0.69945 0.0
C217 C 0.78134 0.55083 0.71983 0.0
C218 C 0.75351 0.49623 0.73171 0.0
C219 C 0.69661 0.46037 0.72346 0.0
H220 H 0.67026 0.54835 0.67884 0.0
C221 C 0.66743 0.48028 0.70442 0.0
C222 C 0.69487 0.53477 0.69292 0.0
H223 H 0.6232 0.45341 0.69824 0.0
H224 H 0.93328 0.79602 0.62407 0.0
H225 H 0.88162 0.70975 0.65452 0.0
H226 H 0.72594 0.69604 0.62071 0.0
H227 H 0.77778 0.78261 0.58986 0.0
H228 H 0.72532 0.61415 0.64577 0.0
H229 H 0.82584 0.65532 0.696 0.0
H230 H 0.82571 0.57736 0.72566 0.0
H231 H 0.77681 0.48147 0.74626 0.0
C232 C 0.105 0.92525 0.44491 0.0
C233 C 0.08044 0.90126 0.47578 0.0
C234 C 0.13059 0.90281 0.42561 0.0
C235 C 0.13173 0.8556 0.4367 0.0
C236 C 0.1073 0.83163 0.46752 0.0
C237 C 0.08242 0.85464 0.48715 0.0
C238 C 0.15616 0.82932 0.41596 0.0
C239 C 0.2007 0.85881 0.39662 0.0
C240 C 0.22635 0.8313 0.37853 0.0
C241 C 0.28427 0.85369 0.38182 0.0
C242 C 0.30823 0.82403 0.36901 0.0
C243 C 0.27473 0.77253 0.35181 0.0
H244 H 0.14849 0.76361 0.35659 0.0
C245 C 0.21738 0.75211 0.3464 0.0
C246 C 0.19323 0.78112 0.35987 0.0
H247 H 0.19068 0.71219 0.33351 0.0
H248 H 0.10404 0.96118 0.43546 0.0
H249 H 0.14802 0.92154 0.4016 0.0
H250 H 0.10749 0.79502 0.47644 0.0
H251 H 0.06345 0.83503 0.51069 0.0
H252 H 0.13915 0.78467 0.41836 0.0
H253 H 0.2221 0.90413 0.39692 0.0
H254 H 0.31047 0.89253 0.39593 0.0
H255 H 0.35262 0.84051 0.3734 0.0
C256 C 0.20055 0.09913 0.9845 0.0
C257 C 0.14686 0.07211 0.96887 0.0
C258 C 0.2481 0.12564 0.96493 0.0
C259 C 0.24294 0.12594 0.92922 0.0
C260 C 0.18937 0.09843 0.9136 0.0
C261 C 0.14181 0.0721 0.93317 0.0
C262 C 0.29252 0.15218 0.90756 0.0
C263 C 0.34227 0.19541 0.91853 0.0
C264 C 0.39371 0.22002 0.89843 0.0
C265 C 0.43879 0.27258 0.90872 0.0
C266 C 0.48992 0.29513 0.89284 0.0
C267 C 0.49699 0.26561 0.86623 0.0
H268 H 0.36777 0.14947 0.86323 0.0
C269 C 0.4519 0.21354 0.85544 0.0
C270 C 0.40063 0.19083 0.87131 0.0
H271 H 0.45724 0.18904 0.83602 0.0
H272 H 0.20598 0.09956 1.01192 0.0
H273 H 0.28869 0.1447 0.97786 0.0
H274 H 0.18425 0.09749 0.88615 0.0
H275 H 0.10113 0.05145 0.92023 0.0
H276 H 0.28701 0.13625 0.88158 0.0
H277 H 0.3457 0.21436 0.94342 0.0
H278 H 0.43486 0.29582 0.92965 0.0
H279 H 0.52431 0.33527 0.9018 0.0
C280 C 0.08107 0.21116 0.4832 0.0
C281 C 0.07338 0.1603 0.47058 0.0
C282 C 0.10257 0.25772 0.46252 0.0
C283 C 0.1171 0.25429 0.42891 0.0
C284 C 0.11121 0.20408 0.41674 0.0
C285 C 0.08901 0.15736 0.4372 0.0
C286 C 0.14063 0.30307 0.40653 0.0
C287 C 0.12466 0.34121 0.40777 0.0
C288 C 0.15235 0.39416 0.38904 0.0
C289 C 0.15016 0.43974 0.40255 0.0
C290 C 0.1808 0.49223 0.38845 0.0
C291 C 0.21352 0.50004 0.36012 0.0
H292 H 0.18409 0.36679 0.34762 0.0
C293 C 0.21322 0.454 0.34517 0.0
C294 C 0.18274 0.40128 0.35945 0.0
H295 H 0.23888 0.45935 0.32369 0.0
H296 H 0.06964 0.21477 0.50883 0.0
H297 H 0.10842 0.29647 0.47307 0.0
H298 H 0.12293 0.20071 0.39113 0.0
H299 H 0.08408 0.11887 0.42682 0.0
H300 H 0.17206 0.30738 0.389 0.0
H301 H 0.09253 0.33547 0.42523 0.0
H302 H 0.12664 0.43535 0.42506 0.0
H303 H 0.18011 0.52715 0.40031 0.0
C304 C 0.8705 0.04675 0.92824 0.0
C305 C 0.86872 0.04943 0.96392 0.0
C306 C 0.83992 0.06288 0.90745 0.0
C307 C 0.80697 0.08221 0.92196 0.0
C308 C 0.80502 0.0846 0.95755 0.0
C309 C 0.83571 0.06869 0.97832 0.0
C310 C 0.77329 0.09944 0.90115 0.0
C311 C 0.78429 0.11693 0.86888 0.0
C312 C 0.75403 0.14135 0.8515 0.0
C313 C 0.78382 0.18845 0.83144 0.0
C314 C 0.7593 0.21914 0.82076 0.0
C315 C 0.70433 0.20217 0.82933 0.0
H316 H 0.67274 0.08461 0.87185 0.0
C317 C 0.67293 0.15236 0.84665 0.0
C318 C 0.69737 0.12184 0.85741 0.0
H319 H 0.63055 0.13895 0.85373 0.0
H320 H 0.89516 0.03169 0.91625 0.0
H321 H 0.8415 0.05909 0.88016 0.0
H322 H 0.77978 0.0991 0.96942 0.0
H323 H 0.83306 0.07101 1.00567 0.0
H324 H 0.74058 0.10206 0.9141 0.0
H325 H 0.82026 0.12002 0.85659 0.0
H326 H 0.8274 0.20404 0.82636 0.0
H327 H 0.78467 0.25836 0.80828 0.0
C328 C 0.77086 0.89304 0.44346 0.0
C329 C 0.82231 0.89526 0.442 0.0
C330 C 0.7309 0.86768 0.41691 0.0
C331 C 0.74135 0.84315 0.38874 0.0
C332 C 0.79262 0.84512 0.38737 0.0
C333 C 0.83317 0.87179 0.41348 0.0
C334 C 0.69675 0.81008 0.36274 0.0
C335 C 0.66076 0.82571 0.3517 0.0
C336 C 0.606 0.78653 0.3347 0.0
C337 C 0.57783 0.80812 0.31604 0.0
C338 C 0.5207 0.77457 0.30781 0.0
C339 C 0.491 0.71934 0.31873 0.0
H340 H 0.59697 0.71141 0.35725 0.0
C341 C 0.52001 0.69635 0.33468 0.0
C342 C 0.57714 0.72946 0.34238 0.0
H343 H 0.49761 0.65393 0.34359 0.0
H344 H 0.76148 0.9108 0.46514 0.0
H345 H 0.69103 0.86541 0.41906 0.0
H346 H 0.80114 0.8257 0.36619 0.0
H347 H 0.8724 0.87257 0.41183 0.0
H348 H 0.69181 0.77063 0.35401 0.0
H349 H 0.66926 0.86745 0.35817 0.0
H350 H 0.59907 0.85196 0.30995 0.0
H351 H 0.49885 0.79325 0.29583 0.0
C352 C 0.90088 0.80911 0.92123 0.0
C353 C 0.89991 0.80293 0.95674 0.0
C354 C 0.88686 0.76369 0.89924 0.0
C355 C 0.87183 0.71129 0.91244 0.0
C356 C 0.87106 0.70531 0.94785 0.0
C357 C 0.88454 0.7504 0.96975 0.0
C358 C 0.85799 0.66195 0.89057 0.0
C359 C 0.83776 0.65391 0.85819 0.0
C360 C 0.81659 0.59918 0.84045 0.0
C361 C 0.7658 0.57496 0.82147 0.0
C362 C 0.73813 0.51823 0.81199 0.0
C363 C 0.76142 0.48557 0.82115 0.0
H364 H 0.88296 0.58607 0.85929 0.0
C365 C 0.81509 0.51141 0.83662 0.0
C366 C 0.84274 0.56788 0.84588 0.0
H367 H 0.83408 0.48706 0.84357 0.0
H368 H 0.91282 0.84913 0.91037 0.0
H369 H 0.88902 0.77013 0.8721 0.0
H370 H 0.85981 0.66543 0.9587 0.0
H371 H 0.88364 0.74414 0.99693 0.0
H372 H 0.86014 0.6283 0.90294 0.0
H373 H 0.82971 0.68433 0.8464 0.0
H374 H 0.74527 0.59854 0.81655 0.0
H375 H 0.69663 0.49905 0.80015 0.0
loop_
_geom_bond_atom_site_label_1
_geom_bond_atom_site_label_2
_geom_bond_distance
_geom_bond_site_symmetry_2
_ccdc_geom_bond_type
O0 Zn1 1.953 1_545 S
O0 C16 1.225 . S
Zn1 O0 1.953 1_565 S
Zn1 O2 1.949 1_566 S
Zn1 O8 1.919 1_455 S
Zn1 O13 1.924 1_465 S
O2 Zn1 1.949 1_544 S
O2 Zn3 1.923 1_445 S
O2 Zn4 1.950 . S
O2 Zn5 1.945 1_455 S
Zn3 O2 1.923 1_665 S
Zn3 O6 1.933 . S
Zn3 O9 1.941 1_554 S
Zn3 O10 1.965 1_655 S
Zn4 O2 1.950 . S
Zn4 O11 1.938 . S
Zn4 O12 1.906 . S
Zn4 O22 1.953 1_554 S
Zn5 O2 1.945 1_655 S
Zn5 O7 1.932 1_545 S
Zn5 O14 1.977 1_655 S
Zn5 O15 1.910 1_554 S
O6 Zn3 1.933 . S
O6 C17 1.226 . S
O7 Zn5 1.932 1_565 S
O7 C17 1.307 . S
O8 Zn1 1.919 1_655 S
O8 C19 1.253 . S
O9 Zn3 1.941 1_556 S
O9 C19 1.283 . S
O10 Zn3 1.965 1_455 S
O10 C18 1.303 . S
O11 Zn4 1.938 . S
O11 C18 1.247 1_545 S
O12 Zn4 1.906 . S
O12 C20 1.304 . S
O13 Zn1 1.924 1_645 S
O13 C21 1.311 . S
O14 Zn5 1.977 1_455 S
O14 C20 1.272 . S
O15 Zn5 1.910 1_556 S
O15 C21 1.231 . S
C16 O0 1.225 . S
C16 O22 1.298 . S
C17 O6 1.226 . S
C17 O7 1.307 . S
C18 O10 1.303 . S
C18 O11 1.247 1_565 S
C19 O8 1.253 . S
C19 O9 1.283 . S
C20 O12 1.304 . S
C20 O14 1.272 . S
C21 O13 1.311 . S
C21 O15 1.231 . S
O22 Zn4 1.953 1_556 S
O22 C16 1.298 . S
O23 Zn24 1.953 . S
O23 C39 1.225 . S
Zn24 O23 1.953 . S
Zn24 O25 1.965 . S
Zn24 O31 1.919 1_455 S
Zn24 O36 1.924 . S
O25 Zn24 1.965 . S
O25 Zn26 1.921 1_445 S
O25 Zn27 1.949 . S
O25 Zn28 1.931 1_545 S
Zn26 O25 1.921 1_665 S
Zn26 O29 1.933 . S
Zn26 O32 1.941 . S
Zn26 O33 1.965 . S
Zn27 O25 1.949 . S
Zn27 O34 1.938 1_445 S
Zn27 O35 1.906 1_545 S
Zn27 O45 1.953 . S
Zn28 O25 1.931 1_565 S
Zn28 O30 1.932 1_455 S
Zn28 O37 1.977 . S
Zn28 O38 1.910 1_565 S
O29 Zn26 1.933 . S
O29 C40 1.226 . S
O30 Zn28 1.932 1_655 S
O30 C40 1.307 . S
O31 Zn24 1.919 1_655 S
O31 C42 1.253 . S
O32 Zn26 1.941 . S
O32 C42 1.283 1_565 S
O33 Zn26 1.965 . S
O33 C41 1.303 . S
O34 Zn27 1.938 1_665 S
O34 C41 1.247 . S
O35 Zn27 1.906 1_565 S
O35 C43 1.304 . S
O36 Zn24 1.924 . S
O36 C44 1.311 . S
O37 Zn28 1.977 . S
O37 C43 1.272 . S
O38 Zn28 1.910 1_545 S
O38 C44 1.231 . S
C39 O23 1.225 . S
C39 O45 1.298 . S
C40 O29 1.226 . S
C40 O30 1.307 . S
C41 O33 1.303 . S
C41 O34 1.247 . S
C42 O31 1.253 . S
C42 O32 1.283 1_545 S
C43 O35 1.304 . S
C43 O37 1.272 . S
C44 O36 1.311 . S
C44 O38 1.231 . S
O45 Zn27 1.953 . S
O45 C39 1.298 . S
Zn46 O52 1.920 . S
Zn46 O58 1.898 . S
Zn46 O61 1.905 . S
Zn47 O55 1.905 . S
Zn47 O56 1.898 . S
Zn47 O64 1.920 . S
Zn48 O51 2.080 . S
Zn48 O54 2.114 . S
Zn48 O57 2.120 . S
Zn48 O59 2.120 . S
Zn48 O60 2.114 . S
Zn48 O63 2.080 . S
C49 O54 1.166 . S
C49 O55 1.182 . S
C50 O56 1.167 . S
C50 O57 1.299 . S
O51 Zn48 2.080 . S
O51 C65 1.305 . S
O52 Zn46 1.920 . S
O52 C65 1.234 . S
C53 O58 1.167 . S
C53 O59 1.299 . S
O54 Zn48 2.114 . S
O54 C49 1.166 . S
O55 Zn47 1.905 . S
O55 C49 1.182 . S
O56 Zn47 1.898 . S
O56 C50 1.167 . S
O57 Zn48 2.120 . S
O57 C50 1.299 . S
O58 Zn46 1.898 . S
O58 C53 1.167 . S
O59 Zn48 2.120 . S
O59 C53 1.299 . S
O60 Zn48 2.114 . S
O60 C62 1.166 . S
O61 Zn46 1.905 . S
O61 C62 1.182 . S
C62 O60 1.166 . S
C62 O61 1.182 . S
O63 Zn48 2.080 . S
O63 C66 1.305 . S
O64 Zn47 1.920 . S
O64 C66 1.234 . S
C65 O51 1.305 . S
C65 O52 1.234 . S
C66 O63 1.305 . S
C66 O64 1.234 . S
Zn67 O73 1.920 . S
Zn67 O79 1.898 . S
Zn67 O82 1.905 . S
Zn68 O76 1.905 . S
Zn68 O77 1.898 . S
Zn68 O85 1.920 . S
Zn69 O72 2.080 . S
Zn69 O75 2.114 . S
Zn69 O78 2.120 . S
Zn69 O80 2.120 . S
Zn69 O81 2.114 . S
Zn69 O84 2.080 . S
C70 O75 1.166 . S
C70 O76 1.182 . S
C71 O77 1.167 . S
C71 O78 1.299 . S
O72 Zn69 2.080 . S
O72 C86 1.305 . S
O73 Zn67 1.920 . S
O73 C86 1.234 . S
C74 O79 1.167 . S
C74 O80 1.299 . S
O75 Zn69 2.114 . S
O75 C70 1.166 . S
O76 Zn68 1.905 . S
O76 C70 1.182 . S
O77 Zn68 1.898 . S
O77 C71 1.167 . S
O78 Zn69 2.120 . S
O78 C71 1.299 . S
O79 Zn67 1.898 . S
O79 C74 1.167 . S
O80 Zn69 2.120 . S
O80 C74 1.299 . S
O81 Zn69 2.114 . S
O81 C83 1.166 . S
O82 Zn67 1.905 . S
O82 C83 1.182 . S
C83 O81 1.166 . S
C83 O82 1.182 . S
O84 Zn69 2.080 . S
O84 C87 1.305 . S
O85 Zn68 1.920 . S
O85 C87 1.234 . S
C86 O72 1.305 . S
C86 O73 1.234 . S
C87 O84 1.305 . S
C87 O85 1.234 . S
C88 C89 1.386 . S
C88 C90 1.383 . S
C88 H104 0.951 . S
C89 C88 1.386 . S
C89 C93 1.383 . S
C90 C88 1.383 . S
C90 C91 1.402 . S
C90 H105 0.951 . S
C91 C90 1.402 . S
C91 C92 1.375 . S
C91 C94 1.481 . S
C92 C91 1.375 . S
C92 C93 1.367 . S
C92 H106 0.951 . S
C93 C89 1.383 . S
C93 C92 1.367 . S
C93 H107 0.950 . S
C94 C91 1.481 . S
C94 C95 1.297 . S
C94 H108 0.950 . S
C95 C94 1.297 . S
C95 C96 1.479 . S
C95 H109 0.950 . S
C96 C95 1.479 . S
C96 C97 1.375 . S
C96 C102 1.404 . S
C97 C96 1.375 . S
C97 C98 1.369 . S
C97 H110 0.950 . S
C98 C97 1.369 . S
C98 C99 1.392 . S
C98 H111 0.951 . S
C99 C98 1.392 . S
C99 C101 1.384 . S
H100 C102 0.949 . S
C101 C99 1.384 . S
C101 C102 1.385 . S
C101 H103 0.950 . S
C102 C96 1.404 . S
C102 H100 0.949 . S
C102 C101 1.385 . S
H103 C101 0.950 . S
H104 C88 0.951 . S
H105 C90 0.951 . S
H106 C92 0.951 . S
H107 C93 0.950 . S
H108 C94 0.950 . S
H109 C95 0.950 . S
H110 C97 0.950 . S
H111 C98 0.951 . S
C112 C113 1.386 . S
C112 C114 1.383 . S
C112 H128 0.951 . S
C113 C112 1.386 . S
C113 C117 1.383 . S
C114 C112 1.383 . S
C114 C115 1.402 . S
C114 H129 0.951 . S
C115 C114 1.402 . S
C115 C116 1.375 . S
C115 C118 1.481 . S
C116 C115 1.375 . S
C116 C117 1.367 . S
C116 H130 0.951 . S
C117 C113 1.383 . S
C117 C116 1.367 . S
C117 H131 0.950 . S
C118 C115 1.481 . S
C118 C119 1.297 . S
C118 H132 0.950 . S
C119 C118 1.297 . S
C119 C120 1.479 . S
C119 H133 0.950 . S
C120 C119 1.479 . S
C120 C121 1.375 . S
C120 C126 1.404 . S
C121 C120 1.375 . S
C121 C122 1.369 . S
C121 H134 0.950 . S
C122 C121 1.369 . S
C122 C123 1.392 . S
C122 H135 0.951 . S
C123 C122 1.392 . S
C123 C125 1.384 . S
H124 C126 0.949 . S
C125 C123 1.384 . S
C125 C126 1.385 . S
C125 H127 0.950 . S
C126 C120 1.404 . S
C126 H124 0.949 . S
C126 C125 1.385 . S
H127 C125 0.950 . S
H128 C112 0.951 . S
H129 C114 0.951 . S
H130 C116 0.951 . S
H131 C117 0.950 . S
H132 C118 0.950 . S
H133 C119 0.950 . S
H134 C121 0.950 . S
H135 C122 0.951 . S
C136 C137 1.386 . S
C136 C138 1.383 . S
C136 H152 0.951 . S
C137 C136 1.386 . S
C137 C141 1.383 . S
C138 C136 1.383 . S
C138 C139 1.402 . S
C138 H153 0.951 . S
C139 C138 1.402 . S
C139 C140 1.375 . S
C139 C142 1.481 . S
C140 C139 1.375 . S
C140 C141 1.367 . S
C140 H154 0.951 . S
C141 C137 1.383 . S
C141 C140 1.367 . S
C141 H155 0.950 . S
C142 C139 1.481 . S
C142 C143 1.297 . S
C142 H156 0.950 . S
C143 C142 1.297 . S
C143 C144 1.479 . S
C143 H157 0.950 . S
C144 C143 1.479 . S
C144 C145 1.375 . S
C144 C150 1.404 . S
C145 C144 1.375 . S
C145 C146 1.369 . S
C145 H158 0.950 . S
C146 C145 1.369 . S
C146 C147 1.392 . S
C146 H159 0.951 . S
C147 C146 1.392 . S
C147 C149 1.384 . S
H148 C150 0.949 . S
C149 C147 1.384 . S
C149 C150 1.385 . S
C149 H151 0.950 . S
C150 C144 1.404 . S
C150 H148 0.949 . S
C150 C149 1.385 . S
H151 C149 0.950 . S
H152 C136 0.951 . S
H153 C138 0.951 . S
H154 C140 0.951 . S
H155 C141 0.950 . S
H156 C142 0.950 . S
H157 C143 0.950 . S
H158 C145 0.950 . S
H159 C146 0.951 . S
C160 C161 1.386 . S
C160 C162 1.383 . S
C160 H176 0.951 . S
C161 C160 1.386 . S
C161 C165 1.383 . S
C162 C160 1.383 . S
C162 C163 1.402 . S
C162 H177 0.951 . S
C163 C162 1.402 . S
C163 C164 1.375 . S
C163 C166 1.481 . S
C164 C163 1.375 . S
C164 C165 1.367 . S
C164 H178 0.951 . S
C165 C161 1.383 . S
C165 C164 1.367 . S
C165 H179 0.950 . S
C166 C163 1.481 . S
C166 C167 1.297 . S
C166 H180 0.950 . S
C167 C166 1.297 . S
C167 C168 1.479 . S
C167 H181 0.950 . S
C168 C167 1.479 . S
C168 C169 1.375 . S
C168 C174 1.404 . S
C169 C168 1.375 . S
C169 C170 1.369 . S
C169 H182 0.950 . S
C170 C169 1.369 . S
C170 C171 1.392 . S
C170 H183 0.951 . S
C171 C170 1.392 . S
C171 C173 1.384 . S
H172 C174 0.949 . S
C173 C171 1.384 . S
C173 C174 1.385 . S
C173 H175 0.950 . S
C174 C168 1.404 . S
C174 H172 0.949 . S
C174 C173 1.385 . S
H175 C173 0.950 . S
H176 C160 0.951 . S
H177 C162 0.951 . S
H178 C164 0.951 . S
H179 C165 0.950 . S
H180 C166 0.950 . S
H181 C167 0.950 . S
H182 C169 0.950 . S
H183 C170 0.951 . S
C184 C185 1.386 . S
C184 C186 1.383 . S
C184 H200 0.951 . S
C185 C184 1.386 . S
C185 C189 1.383 . S
C186 C184 1.383 . S
C186 C187 1.402 . S
C186 H201 0.951 . S
C187 C186 1.402 . S
C187 C188 1.375 . S
C187 C190 1.481 . S
C188 C187 1.375 . S
C188 C189 1.367 . S
C188 H202 0.951 . S
C189 C185 1.383 . S
C189 C188 1.367 . S
C189 H203 0.950 . S
C190 C187 1.481 . S
C190 C191 1.297 . S
C190 H204 0.950 . S
C191 C190 1.297 . S
C191 C192 1.479 . S
C191 H205 0.950 . S
C192 C191 1.479 . S
C192 C193 1.375 . S
C192 C198 1.404 . S
C193 C192 1.375 . S
C193 C194 1.369 . S
C193 H206 0.950 . S
C194 C193 1.369 . S
C194 C195 1.392 . S
C194 H207 0.951 . S
C195 C194 1.392 . S
C195 C197 1.384 . S
H196 C198 0.949 . S
C197 C195 1.384 . S
C197 C198 1.385 . S
C197 H199 0.950 . S
C198 C192 1.404 . S
C198 H196 0.949 . S
C198 C197 1.385 . S
H199 C197 0.950 . S
H200 C184 0.951 . S
H201 C186 0.951 . S
H202 C188 0.951 . S
H203 C189 0.950 . S
H204 C190 0.950 . S
H205 C191 0.950 . S
H206 C193 0.950 . S
H207 C194 0.951 . S
C208 C209 1.386 . S
C208 C210 1.383 . S
C208 H224 0.951 . S
C209 C208 1.386 . S
C209 C213 1.383 . S
C210 C208 1.383 . S
C210 C211 1.402 . S
C210 H225 0.951 . S
C211 C210 1.402 . S
C211 C212 1.375 . S
C211 C214 1.481 . S
C212 C211 1.375 . S
C212 C213 1.367 . S
C212 H226 0.951 . S
C213 C209 1.383 . S
C213 C212 1.367 . S
C213 H227 0.950 . S
C214 C211 1.481 . S
C214 C215 1.297 . S
C214 H228 0.950 . S
C215 C214 1.297 . S
C215 C216 1.479 . S
C215 H229 0.950 . S
C216 C215 1.479 . S
C216 C217 1.375 . S
C216 C222 1.404 . S
C217 C216 1.375 . S
C217 C218 1.369 . S
C217 H230 0.950 . S
C218 C217 1.369 . S
C218 C219 1.392 . S
C218 H231 0.951 . S
C219 C218 1.392 . S
C219 C221 1.384 . S
H220 C222 0.949 . S
C221 C219 1.384 . S
C221 C222 1.385 . S
C221 H223 0.950 . S
C222 C216 1.404 . S
C222 H220 0.949 . S
C222 C221 1.385 . S
H223 C221 0.950 . S
H224 C208 0.951 . S
H225 C210 0.951 . S
H226 C212 0.951 . S
H227 C213 0.950 . S
H228 C214 0.950 . S
H229 C215 0.950 . S
H230 C217 0.950 . S
H231 C218 0.951 . S
C232 C233 1.386 . S
C232 C234 1.383 . S
C232 H248 0.951 . S
C233 C232 1.386 . S
C233 C237 1.383 . S
C234 C232 1.383 . S
C234 C235 1.402 . S
C234 H249 0.951 . S
C235 C234 1.402 . S
C235 C236 1.375 . S
C235 C238 1.481 . S
C236 C235 1.375 . S
C236 C237 1.367 . S
C236 H250 0.951 . S
C237 C233 1.383 . S
C237 C236 1.367 . S
C237 H251 0.950 . S
C238 C235 1.481 . S
C238 C239 1.297 . S
C238 H252 0.950 . S
C239 C238 1.297 . S
C239 C240 1.479 . S
C239 H253 0.950 . S
C240 C239 1.479 . S
C240 C241 1.375 . S
C240 C246 1.404 . S
C241 C240 1.375 . S
C241 C242 1.369 . S
C241 H254 0.950 . S
C242 C241 1.369 . S
C242 C243 1.392 . S
C242 H255 0.951 . S
C243 C242 1.392 . S
C243 C245 1.384 . S
H244 C246 0.949 . S
C245 C243 1.384 . S
C245 C246 1.385 . S
C245 H247 0.950 . S
C246 C240 1.404 . S
C246 H244 0.949 . S
C246 C245 1.385 . S
H247 C245 0.950 . S
H248 C232 0.951 . S
H249 C234 0.951 . S
H250 C236 0.951 . S
H251 C237 0.950 . S
H252 C238 0.950 . S
H253 C239 0.950 . S
H254 C241 0.950 . S
H255 C242 0.951 . S
C256 C257 1.386 . S
C256 C258 1.383 . S
C256 H272 0.951 . S
C257 C256 1.386 . S
C257 C261 1.383 . S
C258 C256 1.383 . S
C258 C259 1.402 . S
C258 H273 0.951 . S
C259 C258 1.402 . S
C259 C260 1.375 . S
C259 C262 1.481 . S
C260 C259 1.375 . S
C260 C261 1.367 . S
C260 H274 0.951 . S
C261 C257 1.383 . S
C261 C260 1.367 . S
C261 H275 0.950 . S
C262 C259 1.481 . S
C262 C263 1.297 . S
C262 H276 0.950 . S
C263 C262 1.297 . S
C263 C264 1.479 . S
C263 H277 0.950 . S
C264 C263 1.479 . S
C264 C265 1.375 . S
C264 C270 1.404 . S
C265 C264 1.375 . S
C265 C266 1.369 . S
C265 H278 0.950 . S
C266 C265 1.369 . S
C266 C267 1.392 . S
C266 H279 0.951 . S
C267 C266 1.392 . S
C267 C269 1.384 . S
H268 C270 0.949 . S
C269 C267 1.384 . S
C269 C270 1.385 . S
C269 H271 0.950 . S
C270 C264 1.404 . S
C270 H268 0.949 . S
C270 C269 1.385 . S
H271 C269 0.950 . S
H272 C256 0.951 . S
H273 C258 0.951 . S
H274 C260 0.951 . S
H275 C261 0.950 . S
H276 C262 0.950 . S
H277 C263 0.950 . S
H278 C265 0.950 . S
H279 C266 0.951 . S
C280 C281 1.386 . S
C280 C282 1.383 . S
C280 H296 0.951 . S
C281 C280 1.386 . S
C281 C285 1.383 . S
C282 C280 1.383 . S
C282 C283 1.402 . S
C282 H297 0.951 . S
C283 C282 1.402 . S
C283 C284 1.375 . S
C283 C286 1.481 . S
C284 C283 1.375 . S
C284 C285 1.367 . S
C284 H298 0.951 . S
C285 C281 1.383 . S
C285 C284 1.367 . S
C285 H299 0.950 . S
C286 C283 1.481 . S
C286 C287 1.297 . S
C286 H300 0.950 . S
C287 C286 1.297 . S
C287 C288 1.479 . S
C287 H301 0.950 . S
C288 C287 1.479 . S
C288 C289 1.375 . S
C288 C294 1.404 . S
C289 C288 1.375 . S
C289 C290 1.369 . S
C289 H302 0.950 . S
C290 C289 1.369 . S
C290 C291 1.392 . S
C290 H303 0.951 . S
C291 C290 1.392 . S
C291 C293 1.384 . S
H292 C294 0.949 . S
C293 C291 1.384 . S
C293 C294 1.385 . S
C293 H295 0.950 . S
C294 C288 1.404 . S
C294 H292 0.949 . S
C294 C293 1.385 . S
H295 C293 0.950 . S
H296 C280 0.951 . S
H297 C282 0.951 . S
H298 C284 0.951 . S
H299 C285 0.950 . S
H300 C286 0.950 . S
H301 C287 0.950 . S
H302 C289 0.950 . S
H303 C290 0.951 . S
C304 C305 1.386 . S
C304 C306 1.383 . S
C304 H320 0.951 . S
C305 C304 1.386 . S
C305 C309 1.383 . S
C306 C304 1.383 . S
C306 C307 1.402 . S
C306 H321 0.951 . S
C307 C306 1.402 . S
C307 C308 1.375 . S
C307 C310 1.481 . S
C308 C307 1.375 . S
C308 C309 1.367 . S
C308 H322 0.951 . S
C309 C305 1.383 . S
C309 C308 1.367 . S
C309 H323 0.950 . S
C310 C307 1.481 . S
C310 C311 1.297 . S
C310 H324 0.950 . S
C311 C310 1.297 . S
C311 C312 1.479 . S
C311 H325 0.950 . S
C312 C311 1.479 . S
C312 C313 1.375 . S
C312 C318 1.404 . S
C313 C312 1.375 . S
C313 C314 1.369 . S
C313 H326 0.950 . S
C314 C313 1.369 . S
C314 C315 1.392 . S
C314 H327 0.951 . S
C315 C314 1.392 . S
C315 C317 1.384 . S
H316 C318 0.949 . S
C317 C315 1.384 . S
C317 C318 1.385 . S
C317 H319 0.950 . S
C318 C312 1.404 . S
C318 H316 0.949 . S
C318 C317 1.385 . S
H319 C317 0.950 . S
H320 C304 0.951 . S
H321 C306 0.951 . S
H322 C308 0.951 . S
H323 C309 0.950 . S
H324 C310 0.950 . S
H325 C311 0.950 . S
H326 C313 0.950 . S
H327 C314 0.951 . S
C328 C329 1.386 . S
C328 C330 1.383 . S
C328 H344 0.951 . S
C329 C328 1.386 . S
C329 C333 1.383 . S
C330 C328 1.383 . S
C330 C331 1.402 . S
C330 H345 0.951 . S
C331 C330 1.402 . S
C331 C332 1.375 . S
C331 C334 1.481 . S
C332 C331 1.375 . S
C332 C333 1.367 . S
C332 H346 0.951 . S
C333 C329 1.383 . S
C333 C332 1.367 . S
C333 H347 0.950 . S
C334 C331 1.481 . S
C334 C335 1.297 . S
C334 H348 0.950 . S
C335 C334 1.297 . S
C335 C336 1.479 . S
C335 H349 0.950 . S
C336 C335 1.479 . S
C336 C337 1.375 . S
C336 C342 1.404 . S
C337 C336 1.375 . S
C337 C338 1.369 . S
C337 H350 0.950 . S
C338 C337 1.369 . S
C338 C339 1.392 . S
C338 H351 0.951 . S
C339 C338 1.392 . S
C339 C341 1.384 . S
H340 C342 0.949 . S
C341 C339 1.384 . S
C341 C342 1.385 . S
C341 H343 0.950 . S
C342 C336 1.404 . S
C342 H340 0.949 . S
C342 C341 1.385 . S
H343 C341 0.950 . S
H344 C328 0.951 . S
H345 C330 0.951 . S
H346 C332 0.951 . S
H347 C333 0.950 . S
H348 C334 0.950 . S
H349 C335 0.950 . S
H350 C337 0.950 . S
H351 C338 0.951 . S
C352 C353 1.386 . S
C352 C354 1.383 . S
C352 H368 0.951 . S
C353 C352 1.386 . S
C353 C357 1.383 . S
C354 C352 1.383 . S
C354 C355 1.402 . S
C354 H369 0.951 . S
C355 C354 1.402 . S
C355 C356 1.375 . S
C355 C358 1.481 . S
C356 C355 1.375 . S
C356 C357 1.367 . S
C356 H370 0.951 . S
C357 C353 1.383 . S
C357 C356 1.367 . S
C357 H371 0.950 . S
C358 C355 1.481 . S
C358 C359 1.297 . S
C358 H372 0.950 . S
C359 C358 1.297 . S
C359 C360 1.479 . S
C359 H373 0.950 . S
C360 C359 1.479 . S
C360 C361 1.375 . S
C360 C366 1.404 . S
C361 C360 1.375 . S
C361 C362 1.369 . S
C361 H374 0.950 . S
C362 C361 1.369 . S
C362 C363 1.392 . S
C362 H375 0.951 . S
C363 C362 1.392 . S
C363 C365 1.384 . S
H364 C366 0.949 . S
C365 C363 1.384 . S
C365 C366 1.385 . S
C365 H367 0.950 . S
C366 C360 1.404 . S
C366 H364 0.949 . S
C366 C365 1.385 . S
H367 C365 0.950 . S
H368 C352 0.951 . S
H369 C354 0.951 . S
H370 C356 0.951 . S
H371 C357 0.950 . S
H372 C358 0.950 . S
H373 C359 0.950 . S
H374 C361 0.950 . S
H375 C362 0.951 . S
C89 C18 1.436 . S
C99 C65 1.414 . S
C113 C44 1.394 . S
C123 C71 1.330 . S
C137 C20 1.436 . S
C147 C62 1.305 . S
C161 C42 1.448 . S
C171 C87 1.453 . S
C185 C17 1.446 . S
C195 C53 1.228 . S
C219 C70 1.352 . S
C209 C40 1.485 . S
C233 C43 1.454 . S
C243 C66 1.216 . S
C267 C83 1.264 . S
C257 C16 1.492 . S
C291 C50 1.240 . S
C281 C39 1.490 . S
C315 C86 1.383 . S
C305 C21 1.389 . S
C339 C49 1.421 . S
C329 C41 1.444 . S
C363 C74 1.399 . S
C353 C19 1.397 . S
