# Generated by pormake.
# Topology gar, (4,6)-cn, num edge types: 1
# Building blocks:
#     Node 0, Type 0, BuildingBlock: QUQFOY_clean_sbu_3, # of connection points: 4
#     Node 1, Type 0, BuildingBlock: QUQFOY_clean_sbu_3, # of connection points: 4
#     Node 2, Type 0, BuildingBlock: QUQFOY_clean_sbu_3, # of connection points: 4
#     Node 3, Type 0, BuildingBlock: QUQFOY_clean_sbu_3, # of connection points: 4
#     Node 4, Type 0, BuildingBlock: QUQFOY_clean_sbu_3, # of connection points: 4
#     Node 5, Type 0, BuildingBlock: QUQFOY_clean_sbu_3, # of connection points: 4
#     Node 6, Type 0, BuildingBlock: QUQFOY_clean_sbu_3, # of connection points: 4
#     Node 7, Type 0, BuildingBlock: QUQFOY_clean_sbu_3, # of connection points: 4
#     Node 8, Type 0, BuildingBlock: QUQFOY_clean_sbu_3, # of connection points: 4
#     Node 9, Type 0, BuildingBlock: QUQFOY_clean_sbu_3, # of connection points: 4
#     Node 10, Type 0, BuildingBlock: QUQFOY_clean_sbu_3, # of connection points: 4
#     Node 11, Type 0, BuildingBlock: QUQFOY_clean_sbu_3, # of connection points: 4
#     Node 12, Type 0, BuildingBlock: QUQFOY_clean_sbu_3, # of connection points: 4
#     Node 13, Type 0, BuildingBlock: QUQFOY_clean_sbu_3, # of connection points: 4
#     Node 14, Type 0, BuildingBlock: QUQFOY_clean_sbu_3, # of connection points: 4
#     Node 15, Type 0, BuildingBlock: QUQFOY_clean_sbu_3, # of connection points: 4
#     Node 16, Type 0, BuildingBlock: QUQFOY_clean_sbu_3, # of connection points: 4
#     Node 17, Type 0, BuildingBlock: QUQFOY_clean_sbu_3, # of connection points: 4
#     Node 18, Type 0, BuildingBlock: QUQFOY_clean_sbu_3, # of connection points: 4
#     Node 19, Type 0, BuildingBlock: QUQFOY_clean_sbu_3, # of connection points: 4
#     Node 20, Type 0, BuildingBlock: QUQFOY_clean_sbu_3, # of connection points: 4
#     Node 21, Type 0, BuildingBlock: QUQFOY_clean_sbu_3, # of connection points: 4
#     Node 22, Type 0, BuildingBlock: QUQFOY_clean_sbu_3, # of connection points: 4
#     Node 23, Type 0, BuildingBlock: QUQFOY_clean_sbu_3, # of connection points: 4
#     Node 24, Type 1, BuildingBlock: BETFEN_clean_sbu_0, # of connection points: 6
#     Node 25, Type 1, BuildingBlock: BETFEN_clean_sbu_0, # of connection points: 6
#     Node 26, Type 1, BuildingBlock: BETFEN_clean_sbu_0, # of connection points: 6
#     Node 27, Type 1, BuildingBlock: BETFEN_clean_sbu_0, # of connection points: 6
#     Node 28, Type 1, BuildingBlock: BETFEN_clean_sbu_0, # of connection points: 6
#     Node 29, Type 1, BuildingBlock: BETFEN_clean_sbu_0, # of connection points: 6
#     Node 30, Type 1, BuildingBlock: BETFEN_clean_sbu_0, # of connection points: 6
#     Node 31, Type 1, BuildingBlock: BETFEN_clean_sbu_0, # of connection points: 6
#     Node 32, Type 1, BuildingBlock: BETFEN_clean_sbu_0, # of connection points: 6
#     Node 33, Type 1, BuildingBlock: BETFEN_clean_sbu_0, # of connection points: 6
#     Node 34, Type 1, BuildingBlock: BETFEN_clean_sbu_0, # of connection points: 6
#     Node 35, Type 1, BuildingBlock: BETFEN_clean_sbu_0, # of connection points: 6
#     Node 36, Type 1, BuildingBlock: BETFEN_clean_sbu_0, # of connection points: 6
#     Node 37, Type 1, BuildingBlock: BETFEN_clean_sbu_0, # of connection points: 6
#     Node 38, Type 1, BuildingBlock: BETFEN_clean_sbu_0, # of connection points: 6
#     Node 39, Type 1, BuildingBlock: BETFEN_clean_sbu_0, # of connection points: 6
#     Edge 40, Type (0, 1), BuildingBlock: OJICUG_clean_linker_0, # of connection points: 2
#     Edge 41, Type (0, 1), BuildingBlock: OJICUG_clean_linker_0, # of connection points: 2
#     Edge 42, Type (0, 1), BuildingBlock: OJICUG_clean_linker_0, # of connection points: 2
#     Edge 43, Type (0, 1), BuildingBlock: OJICUG_clean_linker_0, # of connection points: 2
#     Edge 44, Type (0, 1), BuildingBlock: OJICUG_clean_linker_0, # of connection points: 2
#     Edge 45, Type (0, 1), BuildingBlock: OJICUG_clean_linker_0, # of connection points: 2
#     Edge 46, Type (0, 1), BuildingBlock: OJICUG_clean_linker_0, # of connection points: 2
#     Edge 47, Type (0, 1), BuildingBlock: OJICUG_clean_linker_0, # of connection points: 2
#     Edge 48, Type (0, 1), BuildingBlock: OJICUG_clean_linker_0, # of connection points: 2
#     Edge 49, Type (0, 1), BuildingBlock: OJICUG_clean_linker_0, # of connection points: 2
#     Edge 50, Type (0, 1), BuildingBlock: OJICUG_clean_linker_0, # of connection points: 2
#     Edge 51, Type (0, 1), BuildingBlock: OJICUG_clean_linker_0, # of connection points: 2
#     Edge 52, Type (0, 1), BuildingBlock: OJICUG_clean_linker_0, # of connection points: 2
#     Edge 53, Type (0, 1), BuildingBlock: OJICUG_clean_linker_0, # of connection points: 2
#     Edge 54, Type (0, 1), BuildingBlock: OJICUG_clean_linker_0, # of connection points: 2
#     Edge 55, Type (0, 1), BuildingBlock: OJICUG_clean_linker_0, # of connection points: 2
#     Edge 56, Type (0, 1), BuildingBlock: OJICUG_clean_linker_0, # of connection points: 2
#     Edge 57, Type (0, 1), BuildingBlock: OJICUG_clean_linker_0, # of connection points: 2
#     Edge 58, Type (0, 1), BuildingBlock: OJICUG_clean_linker_0, # of connection points: 2
#     Edge 59, Type (0, 1), BuildingBlock: OJICUG_clean_linker_0, # of connection points: 2
#     Edge 60, Type (0, 1), BuildingBlock: OJICUG_clean_linker_0, # of connection points: 2
#     Edge 61, Type (0, 1), BuildingBlock: OJICUG_clean_linker_0, # of connection points: 2
#     Edge 62, Type (0, 1), BuildingBlock: OJICUG_clean_linker_0, # of connection points: 2
#     Edge 63, Type (0, 1), BuildingBlock: OJICUG_clean_linker_0, # of connection points: 2
#     Edge 64, Type (0, 1), BuildingBlock: OJICUG_clean_linker_0, # of connection points: 2
#     Edge 65, Type (0, 1), BuildingBlock: OJICUG_clean_linker_0, # of connection points: 2
#     Edge 66, Type (0, 1), BuildingBlock: OJICUG_clean_linker_0, # of connection points: 2
#     Edge 67, Type (0, 1), BuildingBlock: OJICUG_clean_linker_0, # of connection points: 2
#     Edge 68, Type (0, 1), BuildingBlock: OJICUG_clean_linker_0, # of connection points: 2
#     Edge 69, Type (0, 1), BuildingBlock: OJICUG_clean_linker_0, # of connection points: 2
#     Edge 70, Type (0, 1), BuildingBlock: OJICUG_clean_linker_0, # of connection points: 2
#     Edge 71, Type (0, 1), BuildingBlock: OJICUG_clean_linker_0, # of connection points: 2
#     Edge 72, Type (0, 1), BuildingBlock: OJICUG_clean_linker_0, # of connection points: 2
#     Edge 73, Type (0, 1), BuildingBlock: OJICUG_clean_linker_0, # of connection points: 2
#     Edge 74, Type (0, 1), BuildingBlock: OJICUG_clean_linker_0, # of connection points: 2
#     Edge 75, Type (0, 1), BuildingBlock: OJICUG_clean_linker_0, # of connection points: 2
#     Edge 76, Type (0, 1), BuildingBlock: OJICUG_clean_linker_0, # of connection points: 2
#     Edge 77, Type (0, 1), BuildingBlock: OJICUG_clean_linker_0, # of connection points: 2
#     Edge 78, Type (0, 1), BuildingBlock: OJICUG_clean_linker_0, # of connection points: 2
#     Edge 79, Type (0, 1), BuildingBlock: OJICUG_clean_linker_0, # of connection points: 2
#     Edge 80, Type (0, 1), BuildingBlock: OJICUG_clean_linker_0, # of connection points: 2
#     Edge 81, Type (0, 1), BuildingBlock: OJICUG_clean_linker_0, # of connection points: 2
#     Edge 82, Type (0, 1), BuildingBlock: OJICUG_clean_linker_0, # of connection points: 2
#     Edge 83, Type (0, 1), BuildingBlock: OJICUG_clean_linker_0, # of connection points: 2
#     Edge 84, Type (0, 1), BuildingBlock: OJICUG_clean_linker_0, # of connection points: 2
#     Edge 85, Type (0, 1), BuildingBlock: OJICUG_clean_linker_0, # of connection points: 2
#     Edge 86, Type (0, 1), BuildingBlock: OJICUG_clean_linker_0, # of connection points: 2
#     Edge 87, Type (0, 1), BuildingBlock: OJICUG_clean_linker_0, # of connection points: 2
#     Edge 88, Type (0, 1), BuildingBlock: OJICUG_clean_linker_0, # of connection points: 2
#     Edge 89, Type (0, 1), BuildingBlock: OJICUG_clean_linker_0, # of connection points: 2
#     Edge 90, Type (0, 1), BuildingBlock: OJICUG_clean_linker_0, # of connection points: 2
#     Edge 91, Type (0, 1), BuildingBlock: OJICUG_clean_linker_0, # of connection points: 2
#     Edge 92, Type (0, 1), BuildingBlock: OJICUG_clean_linker_0, # of connection points: 2
#     Edge 93, Type (0, 1), BuildingBlock: OJICUG_clean_linker_0, # of connection points: 2
#     Edge 94, Type (0, 1), BuildingBlock: OJICUG_clean_linker_0, # of connection points: 2
#     Edge 95, Type (0, 1), BuildingBlock: OJICUG_clean_linker_0, # of connection points: 2
#     Edge 96, Type (0, 1), BuildingBlock: OJICUG_clean_linker_0, # of connection points: 2
#     Edge 97, Type (0, 1), BuildingBlock: OJICUG_clean_linker_0, # of connection points: 2
#     Edge 98, Type (0, 1), BuildingBlock: OJICUG_clean_linker_0, # of connection points: 2
#     Edge 99, Type (0, 1), BuildingBlock: OJICUG_clean_linker_0, # of connection points: 2
#     Edge 100, Type (0, 1), BuildingBlock: OJICUG_clean_linker_0, # of connection points: 2
#     Edge 101, Type (0, 1), BuildingBlock: OJICUG_clean_linker_0, # of connection points: 2
#     Edge 102, Type (0, 1), BuildingBlock: OJICUG_clean_linker_0, # of connection points: 2
#     Edge 103, Type (0, 1), BuildingBlock: OJICUG_clean_linker_0, # of connection points: 2
#     Edge 104, Type (0, 1), BuildingBlock: OJICUG_clean_linker_0, # of connection points: 2
#     Edge 105, Type (0, 1), BuildingBlock: OJICUG_clean_linker_0, # of connection points: 2
#     Edge 106, Type (0, 1), BuildingBlock: OJICUG_clean_linker_0, # of connection points: 2
#     Edge 107, Type (0, 1), BuildingBlock: OJICUG_clean_linker_0, # of connection points: 2
#     Edge 108, Type (0, 1), BuildingBlock: OJICUG_clean_linker_0, # of connection points: 2
#     Edge 109, Type (0, 1), BuildingBlock: OJICUG_clean_linker_0, # of connection points: 2
#     Edge 110, Type (0, 1), BuildingBlock: OJICUG_clean_linker_0, # of connection points: 2
#     Edge 111, Type (0, 1), BuildingBlock: OJICUG_clean_linker_0, # of connection points: 2
#     Edge 112, Type (0, 1), BuildingBlock: OJICUG_clean_linker_0, # of connection points: 2
#     Edge 113, Type (0, 1), BuildingBlock: OJICUG_clean_linker_0, # of connection points: 2
#     Edge 114, Type (0, 1), BuildingBlock: OJICUG_clean_linker_0, # of connection points: 2
#     Edge 115, Type (0, 1), BuildingBlock: OJICUG_clean_linker_0, # of connection points: 2
#     Edge 116, Type (0, 1), BuildingBlock: OJICUG_clean_linker_0, # of connection points: 2
#     Edge 117, Type (0, 1), BuildingBlock: OJICUG_clean_linker_0, # of connection points: 2
#     Edge 118, Type (0, 1), BuildingBlock: OJICUG_clean_linker_0, # of connection points: 2
#     Edge 119, Type (0, 1), BuildingBlock: OJICUG_clean_linker_0, # of connection points: 2
#     Edge 120, Type (0, 1), BuildingBlock: OJICUG_clean_linker_0, # of connection points: 2
#     Edge 121, Type (0, 1), BuildingBlock: OJICUG_clean_linker_0, # of connection points: 2
#     Edge 122, Type (0, 1), BuildingBlock: OJICUG_clean_linker_0, # of connection points: 2
#     Edge 123, Type (0, 1), BuildingBlock: OJICUG_clean_linker_0, # of connection points: 2
#     Edge 124, Type (0, 1), BuildingBlock: OJICUG_clean_linker_0, # of connection points: 2
#     Edge 125, Type (0, 1), BuildingBlock: OJICUG_clean_linker_0, # of connection points: 2
#     Edge 126, Type (0, 1), BuildingBlock: OJICUG_clean_linker_0, # of connection points: 2
#     Edge 127, Type (0, 1), BuildingBlock: OJICUG_clean_linker_0, # of connection points: 2
#     Edge 128, Type (0, 1), BuildingBlock: OJICUG_clean_linker_0, # of connection points: 2
#     Edge 129, Type (0, 1), BuildingBlock: OJICUG_clean_linker_0, # of connection points: 2
#     Edge 130, Type (0, 1), BuildingBlock: OJICUG_clean_linker_0, # of connection points: 2
#     Edge 131, Type (0, 1), BuildingBlock: OJICUG_clean_linker_0, # of connection points: 2
#     Edge 132, Type (0, 1), BuildingBlock: OJICUG_clean_linker_0, # of connection points: 2
#     Edge 133, Type (0, 1), BuildingBlock: OJICUG_clean_linker_0, # of connection points: 2
#     Edge 134, Type (0, 1), BuildingBlock: OJICUG_clean_linker_0, # of connection points: 2
#     Edge 135, Type (0, 1), BuildingBlock: OJICUG_clean_linker_0, # of connection points: 2
# Relax obj value: 0.240
# Max RMSD: 0.356
# Mean RMSD: 0.176
data_MOF--net-gar--node1-QUQFOY_clean_sbu_3--node2-BETFEN_clean_sbu_0--edge1-OJICUG_clean_linker_0
_symmetry_space_group_name_H-M    P1
_symmetry_Int_Tables_number       1
_symmetry_cell_setting            triclinic
loop_
_symmetry_equiv_pos_as_xyz
'x, y, z'
_cell_length_a     49.503399
_cell_length_b     43.204069
_cell_length_c     42.88639
_cell_angle_alpha  95.161156
_cell_angle_beta   99.731274
_cell_angle_gamma 102.46261
loop_
_atom_site_label
_atom_site_type_symbol
_atom_site_fract_x
_atom_site_fract_y
_atom_site_fract_z
_atom_type_partial_charge
C0 C 0.98644 0.35576 0.37183 0.0
O1 O 1.0039 0.37351 0.35866 0.0
Cd2 Cd 0.05373 0.38568 0.3721 0.0
O3 O 0.99525 0.34125 0.39494 0.0
Cd4 Cd 0.0452 0.33958 0.42482 0.0
C5 C 0.06107 0.42321 0.44819 0.0
O6 O 0.06581 0.33514 0.37642 0.0
O7 O 0.09572 0.34428 0.42063 0.0
O8 O 0.02879 0.2806 0.42649 0.0
C9 C 0.09078 0.33678 0.3906 0.0
O10 O 0.0632 0.42535 0.41927 0.0
C11 C 0.03934 0.28059 0.45561 0.0
O12 O 0.05456 0.39556 0.45746 0.0
O13 O 0.05098 0.30804 0.47129 0.0
C14 C 0.05206 0.85826 0.69552 0.0
O15 O 0.06493 0.83927 0.70928 0.0
Cd16 Cd 0.10733 0.82736 0.69679 0.0
O17 O 0.06089 0.87135 0.67235 0.0
Cd18 Cd 0.10101 0.87211 0.64177 0.0
C19 C 0.08828 0.78873 0.61968 0.0
O20 O 0.13683 0.87742 0.69084 0.0
O21 O 0.15162 0.86803 0.64756 0.0
O22 O 0.10518 0.93091 0.64078 0.0
C23 C 0.15729 0.87418 0.6778 0.0
O24 O 0.09713 0.78791 0.64918 0.0
C25 C 0.09955 0.93069 0.61078 0.0
O26 O 0.08514 0.81525 0.6099 0.0
O27 O 0.09501 0.90335 0.59439 0.0
C28 C 0.49064 0.85605 0.86884 0.0
O29 O 0.50888 0.87405 0.85683 0.0
Cd30 Cd 0.55849 0.88696 0.87286 0.0
O31 O 0.49846 0.84164 0.89249 0.0
Cd32 Cd 0.54747 0.84034 0.92539 0.0
C33 C 0.563 0.92399 0.94857 0.0
O34 O 0.5694 0.83608 0.87806 0.0
O35 O 0.59815 0.84331 0.92294 0.0
O36 O 0.53028 0.78166 0.92782 0.0
C37 C 0.59394 0.83675 0.89285 0.0
O38 O 0.56605 0.92627 0.91994 0.0
C39 C 0.54047 0.78202 0.95713 0.0
O40 O 0.55616 0.89631 0.95765 0.0
O41 O 0.55215 0.80958 0.97251 0.0
C42 C 0.54868 0.35565 0.19453 0.0
O43 O 0.56078 0.33567 0.2077 0.0
Cd44 Cd 0.6037 0.32219 0.198 0.0
O45 O 0.55825 0.36975 0.17225 0.0
Cd46 Cd 0.59831 0.37211 0.14158 0.0
C47 C 0.58681 0.28796 0.11879 0.0
O48 O 0.63075 0.37265 0.19124 0.0
O49 O 0.65107 0.37838 0.15106 0.0
O50 O 0.59962 0.43028 0.14154 0.0
C51 C 0.65335 0.37584 0.1806 0.0
O52 O 0.59394 0.28596 0.14837 0.0
C53 C 0.59582 0.43074 0.11159 0.0
O54 O 0.5848 0.31503 0.10943 0.0
O55 O 0.59304 0.40394 0.09484 0.0
C56 C 0.0787 0.86022 0.20334 0.0
O57 O 0.09636 0.84929 0.22155 0.0
Cd58 Cd 0.1419 0.84697 0.21277 0.0
O59 O 0.08506 0.87201 0.17852 0.0
Cd60 Cd 0.12589 0.88317 0.14975 0.0
C61 C 0.11992 0.80159 0.13783 0.0
O62 O 0.16058 0.89845 0.19984 0.0
O63 O 0.17879 0.88927 0.15921 0.0
O64 O 0.10402 0.92898 0.14021 0.0
C65 C 0.18267 0.89768 0.18906 0.0
O66 O 0.13158 0.8051 0.16721 0.0
C67 C 0.1114 0.93439 0.11394 0.0
O68 O 0.11345 0.82527 0.12483 0.0
O69 O 0.12605 0.91633 0.10361 0.0
C70 C 0.47337 0.84094 0.37422 0.0
O71 O 0.49246 0.85683 0.36172 0.0
Cd72 Cd 0.54186 0.86776 0.37797 0.0
O73 O 0.48006 0.8285 0.39974 0.0
Cd74 Cd 0.5287 0.83065 0.43604 0.0
C75 C 0.54602 0.91316 0.4489 0.0
O76 O 0.55184 0.81919 0.39198 0.0
O77 O 0.5802 0.84147 0.43536 0.0
O78 O 0.51379 0.77465 0.44871 0.0
C79 C 0.57693 0.82737 0.40731 0.0
O80 O 0.5533 0.9109 0.42188 0.0
C81 C 0.52886 0.77929 0.47659 0.0
O82 O 0.53379 0.88823 0.45967 0.0
O83 O 0.54143 0.80816 0.48705 0.0
C84 C 0.5801 0.3634 0.70527 0.0
O85 O 0.59773 0.35246 0.72352 0.0
Cd86 Cd 0.6434 0.35039 0.71485 0.0
O87 O 0.58657 0.37531 0.68055 0.0
Cd88 Cd 0.62768 0.38657 0.65217 0.0
C89 C 0.62186 0.30497 0.64003 0.0
O90 O 0.6626 0.40199 0.70234 0.0
O91 O 0.68047 0.39228 0.66157 0.0
O92 O 0.60609 0.43263 0.64257 0.0
C93 C 0.68458 0.40102 0.69138 0.0
O94 O 0.63351 0.30847 0.6694 0.0
C95 C 0.6134 0.43786 0.61622 0.0
O96 O 0.61528 0.32865 0.62709 0.0
O97 O 0.62789 0.4196 0.60589 0.0
C98 C 0.96828 0.3309 0.87536 0.0
O99 O 0.98421 0.34506 0.85821 0.0
Cd100 Cd 0.03358 0.36428 0.8723 0.0
O101 O 0.97854 0.32374 0.90266 0.0
Cd102 Cd 0.02899 0.32863 0.93609 0.0
C103 C 0.03859 0.41085 0.94442 0.0
O104 O 0.05052 0.32019 0.88985 0.0
O105 O 0.07988 0.34019 0.93334 0.0
O106 O 0.01571 0.27253 0.94889 0.0
C107 C 0.07595 0.32887 0.90424 0.0
O108 O 0.03946 0.4081 0.91482 0.0
C109 C 0.0306 0.27747 0.97687 0.0
O110 O 0.03457 0.38618 0.95908 0.0
O111 O 0.04294 0.30646 0.98717 0.0
C112 C 0.5415 0.2096 0.39232 0.0
O113 O 0.55876 0.2074 0.37387 0.0
Cd114 Cd 0.55396 0.20711 0.31769 0.0
O115 O 0.51753 0.21562 0.3824 0.0
Cd116 Cd 0.49316 0.22729 0.32962 0.0
C117 C 0.4918 0.14993 0.3014 0.0
O118 O 0.5338 0.25087 0.30872 0.0
O119 O 0.49493 0.23924 0.2751 0.0
O120 O 0.46984 0.26968 0.34205 0.0
C121 C 0.52144 0.24937 0.28013 0.0
O122 O 0.51793 0.15694 0.30012 0.0
C123 C 0.44524 0.25285 0.32955 0.0
O124 O 0.47971 0.1709 0.3115 0.0
O125 O 0.44295 0.22346 0.32045 0.0
C126 C 0.32322 0.20211 0.52664 0.0
O127 O 0.30507 0.1841 0.53878 0.0
Cd128 Cd 0.25859 0.1881 0.54215 0.0
O129 O 0.31751 0.22602 0.51359 0.0
Cd130 Cd 0.27637 0.25242 0.50374 0.0
C131 C 0.27886 0.26389 0.58541 0.0
O132 O 0.2412 0.20211 0.49232 0.0
O133 O 0.22351 0.24256 0.49944 0.0
O134 O 0.28584 0.2597 0.44965 0.0
C135 C 0.21934 0.21238 0.49357 0.0
O136 O 0.26716 0.23418 0.58254 0.0
C137 C 0.28842 0.28974 0.45162 0.0
O138 O 0.28658 0.27691 0.56163 0.0
O139 O 0.28522 0.30322 0.47797 0.0
C140 C 0.17162 0.14766 0.92893 0.0
O141 O 0.16047 0.16165 0.90713 0.0
Cd142 Cd 0.17145 0.16308 0.85522 0.0
O143 O 0.19418 0.13841 0.92738 0.0
Cd144 Cd 0.22791 0.14209 0.89066 0.0
C145 C 0.23535 0.21617 0.86575 0.0
O146 O 0.18826 0.11596 0.85053 0.0
O147 O 0.22742 0.12258 0.83437 0.0
O148 O 0.24231 0.09761 0.91289 0.0
C149 C 0.20091 0.11219 0.82786 0.0
O150 O 0.20956 0.20757 0.85196 0.0
C151 C 0.26841 0.10791 0.91342 0.0
O152 O 0.24621 0.19874 0.88434 0.0
O153 O 0.27611 0.13603 0.90655 0.0
C154 C 0.39406 0.02419 0.03204 0.0
O155 O 0.37721 0.03649 0.01423 0.0
Cd156 Cd 0.32767 0.02076 1.00307 0.0
O157 O 0.38465 1.00089 0.04687 0.0
Cd158 Cd 0.33507 0.96858 0.05035 0.0
C159 C 0.32165 0.94443 0.96754 0.0
O160 O 0.317 0.01689 0.05529 0.0
O161 O 0.28503 0.97347 0.04932 0.0
O162 O 0.35352 0.96628 0.10797 0.0
C163 C 0.29166 1.00371 0.05547 0.0
O164 O 0.3201 0.97306 0.96464 0.0
C165 C 0.34148 0.93729 0.10855 0.0
O166 O 0.32673 0.93567 0.9953 0.0
O167 O 0.32763 0.92203 0.08186 0.0
C168 C 0.4092 0.5167 0.05459 0.0
O169 O 0.39067 0.53016 0.04153 0.0
Cd170 Cd 0.34151 0.50969 0.02772 0.0
O171 O 0.40201 0.48893 0.06344 0.0
Cd172 Cd 0.35352 0.45041 0.063 0.0
C173 C 0.34011 0.43965 0.98093 0.0
O174 O 0.32934 0.49163 0.07477 0.0
O175 O 0.30152 0.44754 0.05155 0.0
O176 O 0.36396 0.44268 0.12008 0.0
C177 C 0.30434 0.47518 0.06632 0.0
O178 O 0.33399 0.46677 0.98397 0.0
C179 C 0.35335 0.41278 0.11668 0.0
O180 O 0.35 0.42772 1.00544 0.0
O181 O 0.34552 0.39917 0.08798 0.0
C182 C 0.83546 0.19115 0.04041 0.0
O183 O 0.81926 0.17782 0.05781 0.0
Cd184 Cd 0.77933 0.19403 0.07103 0.0
O185 O 0.83149 0.21643 0.02864 0.0
Cd186 Cd 0.79458 0.25033 0.02773 0.0
C187 C 0.80501 0.27082 0.11093 0.0
O188 O 0.75612 0.20275 0.02046 0.0
O189 O 0.74356 0.24625 0.03145 0.0
O190 O 0.79229 0.25236 0.96945 0.0
C191 C 0.73633 0.21617 0.02357 0.0
O192 O 0.79371 0.24146 0.11124 0.0
C193 C 0.79888 0.28247 0.97003 0.0
O194 O 0.80962 0.28088 0.08457 0.0
O195 O 0.80398 0.29857 0.99759 0.0
C196 C 0.09027 0.47856 0.25033 0.0
O197 O 0.07295 0.48291 0.22661 0.0
Cd198 Cd 0.08524 0.50071 0.17863 0.0
O199 O 0.11582 0.47926 0.24844 0.0
Cd200 Cd 0.14826 0.48411 0.21023 0.0
C201 C 0.14315 0.56126 0.21554 0.0
O202 O 0.11458 0.4694 0.16138 0.0
O203 O 0.15549 0.49478 0.15626 0.0
O204 O 0.16843 0.44007 0.22711 0.0
C205 C 0.12946 0.485 0.14409 0.0
O206 O 0.11856 0.55281 0.19793 0.0
C207 C 0.19355 0.45709 0.23563 0.0
O208 O 0.15676 0.54077 0.22473 0.0
O209 O 0.19765 0.48623 0.23099 0.0
C210 C 0.90973 0.01492 0.55356 0.0
O211 O 0.89185 0.02904 0.54017 0.0
Cd212 Cd 0.84317 1.00906 0.52357 0.0
O213 O 0.90179 0.98707 0.56202 0.0
Cd214 Cd 0.85273 0.94925 0.56177 0.0
C215 C 0.84305 0.93734 0.47985 0.0
O216 O 0.82989 0.99202 0.5707 0.0
O217 O 0.80082 0.94752 0.5511 0.0
O218 O 0.86275 0.94251 0.61917 0.0
C219 C 0.80461 0.97626 0.5635 0.0
O220 O 0.84005 0.96592 0.48136 0.0
C221 C 0.85246 0.91256 0.6161 0.0
O222 O 0.84822 0.92431 0.50516 0.0
O223 O 0.8447 0.89862 0.58753 0.0
C224 C 0.97183 0.05946 0.2149 0.0
O225 O 0.97648 0.03958 0.19386 0.0
Cd226 Cd 0.94486 0.01196 0.14551 0.0
O227 O 0.94905 0.06911 0.21124 0.0
Cd228 Cd 0.90746 0.06457 0.17023 0.0
C229 C 0.888 0.98327 0.17817 0.0
O230 O 0.92505 0.05306 0.12369 0.0
O231 O 0.93008 0.10309 0.13882 0.0
O232 O 0.89934 0.10532 0.20544 0.0
C233 C 0.93759 0.08177 0.12238 0.0
O234 O 0.90931 0.97673 0.16843 0.0
C235 C 0.87439 0.10407 0.19111 0.0
O236 O 0.88352 0.01118 0.17838 0.0
O237 O 0.86441 0.08396 0.16598 0.0
C238 C 0.33523 0.68821 0.53558 0.0
O239 O 0.31898 0.67482 0.5529 0.0
Cd240 Cd 0.27885 0.69087 0.56586 0.0
O241 O 0.33114 0.71337 0.52365 0.0
Cd242 Cd 0.29402 0.74692 0.52245 0.0
C243 C 0.30423 0.76794 0.60526 0.0
O244 O 0.25526 0.69955 0.51552 0.0
O245 O 0.24336 0.74331 0.5273 0.0
O246 O 0.29073 0.74895 0.46401 0.0
C247 C 0.23577 0.71325 0.51929 0.0
O248 O 0.29274 0.73863 0.60563 0.0
C249 C 0.2979 0.77904 0.46474 0.0
O250 O 0.30927 0.77781 0.57898 0.0
O251 O 0.30372 0.79506 0.4924 0.0
C252 C 0.46617 0.56674 0.7181 0.0
O253 O 0.4734 0.54821 0.69791 0.0
Cd254 Cd 0.44648 0.51817 0.648 0.0
O255 O 0.44243 0.57424 0.71246 0.0
Cd256 Cd 0.40404 0.56587 0.66669 0.0
C257 C 0.38906 0.48429 0.67593 0.0
O258 O 0.42591 0.55707 0.62251 0.0
O259 O 0.43286 0.60638 0.64277 0.0
O260 O 0.38365 0.59866 0.69862 0.0
C261 C 0.4395 0.586 0.62414 0.0
O262 O 0.41169 0.47945 0.66827 0.0
C263 C 0.36204 0.59773 0.67751 0.0
O264 O 0.38306 0.51137 0.67475 0.0
O265 O 0.3601 0.58253 0.65007 0.0
C266 C 0.59109 0.97561 0.75032 0.0
O267 O 0.57347 0.97857 0.72619 0.0
Cd268 Cd 0.58619 0.99816 0.67891 0.0
O269 O 0.61698 0.97823 0.74889 0.0
Cd270 Cd 0.65052 0.98556 0.71214 0.0
C271 C 0.64105 0.06087 0.71896 0.0
O272 O 0.61867 0.97129 0.66197 0.0
O273 O 0.65949 0.99953 0.65981 0.0
O274 O 0.67094 0.94153 0.72806 0.0
C275 C 0.63386 0.98887 0.64628 0.0
O276 O 0.61704 0.05112 0.70028 0.0
C277 C 0.69587 0.95875 0.73774 0.0
O278 O 0.65595 0.04161 0.72843 0.0
O279 O 0.69983 0.98822 0.73431 0.0
C280 C 0.82373 0.70449 0.02681 0.0
O281 O 0.80607 0.68673 0.03976 0.0
Cd282 Cd 0.75882 0.68876 0.04192 0.0
O283 O 0.81732 0.72743 0.01257 0.0
Cd284 Cd 0.77552 0.75264 1.00267 0.0
C285 C 0.77746 0.76464 0.08421 0.0
O286 O 0.74055 0.70194 0.99194 0.0
O287 O 0.72272 0.7424 0.99848 0.0
O288 O 0.7849 0.75996 0.94859 0.0
C289 C 0.71865 0.71218 0.99321 0.0
O290 O 0.76598 0.73491 0.08161 0.0
C291 C 0.78764 0.79003 0.95066 0.0
O292 O 0.78538 0.77745 0.06041 0.0
O293 O 0.78434 0.80348 0.97697 0.0
C294 C 0.0431 0.70966 0.89238 0.0
O295 O 0.06053 0.70764 0.87409 0.0
Cd296 Cd 0.05609 0.70777 0.81799 0.0
O297 O 0.01923 0.71586 0.88236 0.0
Cd298 Cd 0.99526 0.72822 0.82977 0.0
C299 C 0.99374 0.65086 0.80137 0.0
O300 O 0.03607 0.75162 0.80912 0.0
O301 O 0.99727 0.74049 0.7754 0.0
O302 O 0.97186 0.77049 0.84238 0.0
C303 C 0.02382 0.75023 0.7805 0.0
O304 O 0.01988 0.65777 0.80012 0.0
C305 C 0.94729 0.75364 0.82974 0.0
O306 O 0.98173 0.67189 0.8115 0.0
O307 O 0.94508 0.72432 0.82043 0.0
C308 C 0.89433 0.52648 0.53711 0.0
O309 O 0.87734 0.53947 0.52034 0.0
Cd310 Cd 0.82763 0.52569 0.51128 0.0
O311 O 0.88511 0.50294 0.55172 0.0
Cd312 Cd 0.83574 0.471 0.55585 0.0
C313 C 0.81884 0.45004 0.47236 0.0
O314 O 0.81833 0.51939 0.56345 0.0
O315 O 0.78593 0.4762 0.55585 0.0
O316 O 0.85495 0.46707 0.61286 0.0
C317 C 0.79289 0.50632 0.56323 0.0
O318 O 0.81641 0.47867 0.47134 0.0
C319 C 0.84264 0.43807 0.61293 0.0
O320 O 0.8262 0.44051 0.49934 0.0
O321 O 0.82833 0.42349 0.58615 0.0
C322 C 0.67592 0.6384 0.42694 0.0
O323 O 0.66419 0.65075 0.40412 0.0
Cd324 Cd 0.6745 0.65188 0.35184 0.0
O325 O 0.69901 0.62991 0.42626 0.0
Cd326 Cd 0.73277 0.63465 0.38872 0.0
C327 C 0.73626 0.70812 0.36183 0.0
O328 O 0.69393 0.60659 0.34828 0.0
O329 O 0.73308 0.61537 0.33227 0.0
O330 O 0.75471 0.59364 0.41002 0.0
C331 C 0.70668 0.60407 0.3255 0.0
O332 O 0.71065 0.69829 0.34761 0.0
C333 C 0.77985 0.6096 0.41202 0.0
O334 O 0.74771 0.69139 0.38075 0.0
O335 O 0.7829 0.63821 0.40596 0.0
Pr336 Pr 0.03835 0.08484 0.02402 0.0
Pr337 Pr 0.09696 0.12429 0.06874 0.0
C338 C 0.98224 0.06974 1.00192 0.0
C339 C 0.96107 0.0889 1.00444 0.0
C340 C 0.93366 0.07876 0.98626 0.0
C341 C 0.91344 0.09642 0.98996 0.0
C342 C 0.92043 0.12481 0.01156 0.0
C343 C 0.94803 0.13516 0.02931 0.0
C344 C 0.96801 0.1172 0.02605 0.0
C345 C 0.08492 0.09852 0.99558 0.0
C346 C 0.05599 0.16736 0.03554 0.0
C347 C 0.15298 0.13919 0.08997 0.0
C348 C 0.1735 0.11947 0.08591 0.0
C349 C 0.19928 0.12483 0.10737 0.0
C350 C 0.21837 0.10571 0.10324 0.0
C351 C 0.21191 0.08067 0.07772 0.0
C352 C 0.18595 0.07535 0.05641 0.0
C353 C 0.16706 0.09458 0.06039 0.0
C354 C 0.05013 0.11187 0.09694 0.0
C355 C 0.07951 0.04208 0.05669 0.0
O356 O 0.99393 0.06207 0.0289 0.0
O357 O 1.00047 0.07899 0.98378 0.0
O358 O 0.07826 0.11633 0.01611 0.0
O359 O 0.06558 0.07182 0.98628 0.0
O360 O 0.08215 0.1687 0.05021 0.0
O361 O 0.03672 0.13982 0.02795 0.0
O362 O 0.14106 0.14806 0.06369 0.0
O363 O 0.1351 0.12953 0.10843 0.0
O364 O 0.05684 0.09343 0.07695 0.0
O365 O 0.06959 0.13853 0.10572 0.0
O366 O 0.05301 0.04114 0.0438 0.0
O367 O 0.09927 0.06928 0.06291 0.0
H368 H 0.92776 0.05694 0.96962 0.0
H369 H 0.89225 0.08782 0.97608 0.0
H370 H 0.95389 0.15653 0.04658 0.0
H371 H 0.98871 0.1251 0.04102 0.0
H372 H 0.20465 0.14378 0.12727 0.0
H373 H 0.23808 0.11032 0.12024 0.0
H374 H 0.18041 0.05667 0.03625 0.0
H375 H 0.1474 0.09004 0.04331 0.0
Pr376 Pr 0.33953 0.89401 0.30797 0.0
Pr377 Pr 0.30566 0.82455 0.26816 0.0
C378 C 0.38136 0.94243 0.33968 0.0
C379 C 0.3973 0.97135 0.33005 0.0
C380 C 0.38709 0.98204 0.30144 0.0
C381 C 0.40296 1.00874 0.29142 0.0
C382 C 0.42935 0.0249 0.30976 0.0
C383 C 0.43968 0.0137 0.33814 0.0
C384 C 0.42373 0.98706 0.3482 0.0
C385 C 0.28409 0.89445 0.27841 0.0
C386 C 0.33557 0.88415 0.22891 0.0
C387 C 0.2684 0.77764 0.22786 0.0
C388 C 0.24978 0.74663 0.22832 0.0
C389 C 0.23374 0.72931 0.1996 0.0
C390 C 0.21439 0.70066 0.19978 0.0
C391 C 0.2108 0.68904 0.22877 0.0
C392 C 0.22702 0.7066 0.25757 0.0
C393 C 0.2464 0.73525 0.25733 0.0
C394 C 0.35949 0.82794 0.30283 0.0
C395 C 0.30785 0.83544 0.34651 0.0
O396 O 0.38569 0.91584 0.32668 0.0
O397 O 0.35474 0.9412 0.34017 0.0
O398 O 0.29607 0.87174 0.28024 0.0
O399 O 0.30137 0.91982 0.29519 0.0
O400 O 0.32018 0.85463 0.22778 0.0
O401 O 0.3466 0.90315 0.25624 0.0
O402 O 0.2615 0.80198 0.24231 0.0
O403 O 0.29562 0.77929 0.23316 0.0
O404 O 0.35198 0.84925 0.28725 0.0
O405 O 0.33923 0.80213 0.29842 0.0
O406 O 0.32704 0.86269 0.34834 0.0
O407 O 0.29374 0.81888 0.3187 0.0
H408 H 0.3669 0.96969 0.28684 0.0
H409 H 0.39461 0.01678 0.26938 0.0
H410 H 0.45976 0.02602 0.35298 0.0
H411 H 0.432 0.97873 0.37011 0.0
H412 H 0.23605 0.73805 0.17706 0.0
H413 H 0.20258 0.68737 0.1772 0.0
H414 H 0.22455 0.69832 0.28025 0.0
H415 H 0.25849 0.74872 0.27974 0.0
Pr416 Pr 0.60944 0.11472 0.53905 0.0
Pr417 Pr 0.5465 0.10646 0.53907 0.0
C418 C 0.66357 0.11193 0.54188 0.0
C419 C 0.68201 0.0896 0.54491 0.0
C420 C 0.71009 0.10032 0.54206 0.0
C421 C 0.72858 0.0802 0.54602 0.0
C422 C 0.71931 0.04892 0.55302 0.0
C423 C 0.69086 0.03791 0.55519 0.0
C424 C 0.6723 0.05821 0.55123 0.0
C425 C 0.58274 0.1493 0.4968 0.0
C426 C 0.56484 0.04516 0.5054 0.0
C427 C 0.49249 0.11058 0.53445 0.0
C428 C 0.47318 0.13251 0.53322 0.0
C429 C 0.46816 0.14733 0.56152 0.0
C430 C 0.44657 0.16357 0.56062 0.0
C431 C 0.42941 0.16527 0.53144 0.0
C432 C 0.43549 0.15213 0.50299 0.0
C433 C 0.45707 0.13577 0.50389 0.0
C434 C 0.5734 0.07178 0.58121 0.0
C435 C 0.59226 0.17387 0.57658 0.0
O436 O 0.6533 0.11911 0.56703 0.0
O437 O 0.64549 0.10818 0.51499 0.0
O438 O 0.57227 0.1209 0.50086 0.0
O439 O 0.60825 0.15954 0.51291 0.0
O440 O 0.54351 0.05898 0.50598 0.0
O441 O 0.59099 0.06041 0.51855 0.0
O442 O 0.50381 0.10562 0.50951 0.0
O443 O 0.50929 0.11088 0.56166 0.0
O444 O 0.58355 0.10008 0.57671 0.0
O445 O 0.54742 0.0619 0.56629 0.0
O446 O 0.61244 0.15828 0.57681 0.0
O447 O 0.56629 0.1608 0.56083 0.0
H448 H 0.71782 0.12444 0.53701 0.0
H449 H 0.75021 0.08916 0.54359 0.0
H450 H 0.68318 0.01397 0.56063 0.0
H451 H 0.65055 0.04961 0.55342 0.0
H452 H 0.48009 0.14527 0.58455 0.0
H453 H 0.44258 0.17378 0.58292 0.0
H454 H 0.42248 0.15282 0.48017 0.0
H455 H 0.46027 0.12441 0.48167 0.0
Pr456 Pr 0.28468 0.36166 0.77622 0.0
Pr457 Pr 0.34592 0.35457 0.78628 0.0
C458 C 0.23048 0.36256 0.77673 0.0
C459 C 0.20914 0.35724 0.79685 0.0
C460 C 0.1828 0.36347 0.78605 0.0
C461 C 0.1617 0.35767 0.80408 0.0
C462 C 0.16656 0.34547 0.83331 0.0
C463 C 0.19321 0.33957 0.84428 0.0
C464 C 0.21436 0.34534 0.8261 0.0
C465 C 0.31922 0.40397 0.74593 0.0
C466 C 0.3265 0.38704 0.84815 0.0
C467 C 0.39967 0.35229 0.78506 0.0
C468 C 0.42195 0.35358 0.76583 0.0
C469 C 0.43103 0.32567 0.75848 0.0
C470 C 0.45488 0.32692 0.7449 0.0
C471 C 0.47037 0.35619 0.73855 0.0
C472 C 0.46043 0.38391 0.74422 0.0
C473 C 0.43647 0.38266 0.75787 0.0
C474 C 0.31007 0.31078 0.81398 0.0
C475 C 0.30274 0.32559 0.71619 0.0
O476 O 0.23835 0.33731 0.76597 0.0
O477 O 0.25129 0.38795 0.78551 0.0
O478 O 0.32686 0.39671 0.77347 0.0
O479 O 0.2926 0.39207 0.73501 0.0
O480 O 0.34864 0.38546 0.83515 0.0
O481 O 0.30051 0.37666 0.83156 0.0
O482 O 0.39227 0.37873 0.79334 0.0
O483 O 0.37876 0.32684 0.77933 0.0
O484 O 0.30376 0.31924 0.78683 0.0
O485 O 0.33636 0.32286 0.82662 0.0
O486 O 0.28148 0.326 0.73093 0.0
O487 O 0.32905 0.33876 0.73076 0.0
H488 H 0.17849 0.37271 0.76352 0.0
H489 H 0.14161 0.363 0.79522 0.0
H490 H 0.19754 0.32998 0.86659 0.0
H491 H 0.23464 0.3403 0.8347 0.0
H492 H 0.42035 0.30296 0.76444 0.0
H493 H 0.46176 0.30507 0.74034 0.0
H494 H 0.472 0.40682 0.7397 0.0
H495 H 0.43007 0.40464 0.76334 0.0
Pr496 Pr 0.06166 0.08763 0.50074 0.0
Pr497 Pr 0.07804 0.12271 0.56223 0.0
C498 C 0.03669 0.05796 0.44205 0.0
C499 C 0.03323 0.0655 0.40904 0.0
C500 C 0.05398 0.06339 0.39075 0.0
C501 C 0.04972 0.06881 0.3589 0.0
C502 C 0.02463 0.07636 0.34485 0.0
C503 C 1.00425 0.07925 0.36342 0.0
C504 C 1.00848 0.07379 0.39514 0.0
C505 C 0.11729 0.12462 0.51027 0.0
C506 C 0.05238 0.16282 0.50841 0.0
C507 C 0.106 0.15178 0.62002 0.0
C508 C 0.11835 0.14043 0.64892 0.0
C509 C 0.11474 0.15334 0.6786 0.0
C510 C 0.12622 0.14253 0.70629 0.0
C511 C 0.14155 0.11877 0.70456 0.0
C512 C 0.14484 0.10556 0.67479 0.0
C513 C 0.13315 0.11618 0.64709 0.0
C514 C 0.0218 0.08862 0.55202 0.0
C515 C 0.08515 0.04713 0.55547 0.0
O516 O 0.02336 0.07153 0.46118 0.0
O517 O 0.06193 0.05644 0.45585 0.0
O518 O 0.09661 0.1339 0.51786 0.0
O519 O 0.10984 0.09474 0.49816 0.0
O520 O 0.06793 0.16582 0.53709 0.0
O521 O 0.04454 0.13444 0.49067 0.0
O522 O 0.11826 0.14871 0.59557 0.0
O523 O 0.07848 0.14418 0.61248 0.0
O524 O 0.04177 0.07739 0.54469 0.0
O525 O 0.03044 0.11859 0.56392 0.0
O526 O 0.06845 0.04405 0.5275 0.0
O527 O 0.0949 0.07591 0.57205 0.0
H528 H 0.07328 0.05694 0.40078 0.0
H529 H 0.06573 0.06644 0.34509 0.0
H530 H 0.98438 0.08427 0.35306 0.0
H531 H 0.992 0.07529 0.40855 0.0
H532 H 0.10323 0.1719 0.68034 0.0
H533 H 0.12381 0.15336 0.72912 0.0
H534 H 0.15653 0.08717 0.67301 0.0
H535 H 0.13591 0.1056 0.62432 0.0
Pr536 Pr 0.3047 0.82126 0.79121 0.0
Pr537 Pr 0.32986 0.89548 0.78104 0.0
C538 C 0.2866 0.75731 0.78244 0.0
C539 C 0.28841 0.73148 0.75901 0.0
C540 C 0.27248 0.70038 0.75856 0.0
C541 C 0.2771 0.67503 0.73916 0.0
C542 C 0.2974 0.68073 0.71976 0.0
C543 C 0.31198 0.71222 0.71884 0.0
C544 C 0.3078 0.73735 0.73869 0.0
C545 C 0.30555 0.86257 0.84677 0.0
C546 C 0.37415 0.85311 0.81255 0.0
C547 C 0.34576 0.9595 0.79239 0.0
C548 C 0.3395 0.98109 0.81699 0.0
C549 C 0.35043 0.01412 0.82054 0.0
C550 C 0.3433 0.03402 0.84389 0.0
C551 C 0.32586 0.02102 0.86474 0.0
C552 C 0.31623 0.98755 0.86164 0.0
C553 C 0.32207 0.96808 0.83728 0.0
C554 C 0.32834 0.85354 0.72558 0.0
C555 C 0.26224 0.86322 0.75558 0.0
O556 O 0.27062 0.77624 0.77219 0.0
O557 O 0.31068 0.77256 0.80058 0.0
O558 O 0.31302 0.8703 0.82121 0.0
O559 O 0.29491 0.83199 0.84296 0.0
O560 O 0.36933 0.88164 0.80885 0.0
O561 O 0.35408 0.82634 0.80406 0.0
O562 O 0.362 0.94102 0.80321 0.0
O563 O 0.32385 0.94418 0.77075 0.0
O564 O 0.32142 0.84661 0.75153 0.0
O565 O 0.33816 0.88431 0.72832 0.0
O566 O 0.26782 0.83468 0.75664 0.0
O567 O 0.28075 0.88965 0.76978 0.0
H568 H 0.25752 0.69553 0.77427 0.0
H569 H 0.26586 0.65085 0.74043 0.0
H570 H 0.32822 0.71713 0.70467 0.0
H571 H 0.32083 0.76112 0.73946 0.0
H572 H 0.36374 0.02455 0.80476 0.0
H573 H 0.3507 0.05956 0.84456 0.0
H574 H 0.30352 0.97605 0.87739 0.0
H575 H 0.31269 0.94266 0.83397 0.0
Pr576 Pr 0.58037 0.10171 0.07037 0.0
Pr577 Pr 0.56154 0.1099 0.99464 0.0
C578 C 0.59131 0.1152 0.134 0.0
C579 C 0.58582 0.14199 0.15332 0.0
C580 C 0.59769 0.14973 0.18581 0.0
C581 C 0.59096 0.17462 0.20385 0.0
C582 C 0.57264 0.19244 0.18942 0.0
C583 C 0.56199 0.18531 0.15643 0.0
C584 C 0.56799 0.15989 0.1388 0.0
C585 C 0.58014 0.04528 0.03075 0.0
C586 C 0.51245 0.07964 0.03525 0.0
C587 C 0.54948 0.09726 0.93074 0.0
C588 C 0.55364 0.07251 0.90756 0.0
C589 C 0.53614 0.06487 0.8774 0.0
C590 C 0.54022 0.04155 0.8551 0.0
C591 C 0.5616 0.02503 0.86281 0.0
C592 C 0.57842 0.03212 0.89364 0.0
C593 C 0.57478 0.05601 0.91558 0.0
C594 C 0.56299 0.16671 0.03447 0.0
C595 C 0.62781 0.13634 0.03014 0.0
O596 O 0.61067 0.12296 0.11682 0.0
O597 O 0.56858 0.0947 0.11817 0.0
O598 O 0.57469 0.07094 0.02243 0.0
O599 O 0.58818 0.04923 0.06162 0.0
O600 O 0.51969 0.08204 0.0071 0.0
O601 O 0.53076 0.08946 0.0625 0.0
O602 O 0.53118 0.08749 0.94862 0.0
O603 O 0.57241 0.11751 0.94649 0.0
O604 O 0.5677 0.14064 0.0424 0.0
O605 O 0.55526 0.16323 1.00358 0.0
O606 O 0.61993 0.13574 0.0581 0.0
O607 O 0.61092 0.12133 1.00332 0.0
H608 H 0.61143 0.13599 0.19737 0.0
H609 H 0.59914 0.17885 0.2293 0.0
H610 H 0.54836 0.19877 0.14423 0.0
H611 H 0.55839 0.15391 0.11372 0.0
H612 H 0.51972 0.07742 0.87086 0.0
H613 H 0.52725 0.03748 0.83145 0.0
H614 H 0.59476 0.01964 0.90075 0.0
H615 H 0.58856 0.06168 0.93883 0.0
Pr616 Pr 0.29312 0.32639 0.27368 0.0
Pr617 Pr 0.34428 0.38362 0.29648 0.0
C618 C 0.24134 0.28923 0.27108 0.0
C619 C 0.21802 0.29404 0.28763 0.0
C620 C 0.19708 0.30864 0.27342 0.0
C621 C 0.17649 0.31555 0.28994 0.0
C622 C 0.17604 0.30783 0.32111 0.0
C623 C 0.19664 0.29259 0.33504 0.0
C624 C 0.2173 0.28579 0.31856 0.0
C625 C 0.31789 0.35104 0.22384 0.0
C626 C 0.28371 0.39982 0.2868 0.0
C627 C 0.39652 0.41996 0.30006 0.0
C628 C 0.41981 0.41407 0.28406 0.0
C629 C 0.44343 0.40613 0.30165 0.0
C630 C 0.46393 0.397 0.28636 0.0
C631 C 0.46148 0.39572 0.25303 0.0
C632 C 0.4383 0.40468 0.23556 0.0
C633 C 0.41773 0.41367 0.25084 0.0
C634 C 0.32003 0.35723 0.34605 0.0
C635 C 0.35386 0.31074 0.28451 0.0
O636 O 0.26404 0.28462 0.28876 0.0
O637 O 0.24718 0.30787 0.24949 0.0
O638 O 0.31405 0.36711 0.24814 0.0
O639 O 0.30689 0.32063 0.22343 0.0
O640 O 0.30999 0.41236 0.2847 0.0
O641 O 0.27601 0.36987 0.29206 0.0
O642 O 0.37422 0.42508 0.28204 0.0
O643 O 0.39005 0.40151 0.32157 0.0
O644 O 0.32406 0.34229 0.32131 0.0
O645 O 0.33033 0.38789 0.34704 0.0
O646 O 0.32764 0.2981 0.28673 0.0
O647 O 0.36103 0.34017 0.27769 0.0
H648 H 0.19693 0.31542 0.24969 0.0
H649 H 0.16129 0.32764 0.27846 0.0
H650 H 0.19677 0.28572 0.35872 0.0
H651 H 0.23295 0.2744 0.33032 0.0
H652 H 0.44574 0.40623 0.32723 0.0
H653 H 0.48171 0.39083 0.30072 0.0
H654 H 0.43555 0.40381 0.20987 0.0
H655 H 0.39986 0.41958 0.23642 0.0
Pr656 Pr 0.56087 0.58917 1.00294 0.0
Pr657 Pr 0.57827 0.62431 0.06499 0.0
C658 C 0.53381 0.5602 0.94472 0.0
C659 C 0.52849 0.56844 0.91212 0.0
C660 C 0.55025 0.57517 0.89469 0.0
C661 C 0.54433 0.58169 0.8633 0.0
C662 C 0.51666 0.58178 0.84905 0.0
C663 C 0.49514 0.57581 0.86681 0.0
C664 C 0.50099 0.56908 0.898 0.0
C665 C 0.61674 0.62532 0.01193 0.0
C666 C 0.55259 0.66482 0.01146 0.0
C667 C 0.60757 0.65227 0.12269 0.0
C668 C 0.6211 0.64026 0.15064 0.0
C669 C 0.61768 0.65136 0.18105 0.0
C670 C 0.63018 0.63982 0.20779 0.0
C671 C 0.6464 0.61717 0.20441 0.0
C672 C 0.64965 0.60588 0.17393 0.0
C673 C 0.63691 0.61717 0.14717 0.0
C674 C 0.52186 0.59084 0.05484 0.0
C675 C 0.58433 0.54819 0.05713 0.0
O676 O 0.52127 0.57315 0.96517 0.0
O677 O 0.55957 0.55892 0.95683 0.0
O678 O 0.59638 0.63493 0.02012 0.0
O679 O 0.60875 0.59557 0.99931 0.0
O680 O 0.568 0.66767 0.04025 0.0
O681 O 0.54468 0.63655 0.99355 0.0
O682 O 0.61899 0.65039 0.09743 0.0
O683 O 0.58001 0.64433 0.11617 0.0
O684 O 0.54171 0.57946 0.04739 0.0
O685 O 0.53072 0.62071 0.06714 0.0
O686 O 0.56779 0.54539 0.02911 0.0
O687 O 0.59424 0.57682 0.074 0.0
H688 H 0.57172 0.57495 0.90504 0.0
H689 H 0.56123 0.58618 0.85003 0.0
H690 H 0.47348 0.57502 0.85617 0.0
H691 H 0.48387 0.56379 0.91091 0.0
H692 H 0.60545 0.66901 0.18411 0.0
H693 H 0.62773 0.64916 0.23118 0.0
H694 H 0.662 0.58834 0.17084 0.0
H695 H 0.63955 0.60793 0.12383 0.0
Pr696 Pr 0.80097 0.32696 0.29581 0.0
Pr697 Pr 0.82876 0.40022 0.28518 0.0
C698 C 0.78171 0.2633 0.28479 0.0
C699 C 0.79228 0.23901 0.26798 0.0
C700 C 0.77689 0.20713 0.26112 0.0
C701 C 0.78828 0.18409 0.24639 0.0
C702 C 0.81513 0.19294 0.23868 0.0
C703 C 0.82985 0.22514 0.24451 0.0
C704 C 0.81855 0.24797 0.25913 0.0
C705 C 0.80208 0.36893 0.35062 0.0
C706 C 0.86993 0.35663 0.3201 0.0
C707 C 0.849 0.46402 0.29477 0.0
C708 C 0.85379 0.49005 0.32099 0.0
C709 C 0.85107 0.52028 0.3137 0.0
C710 C 0.849 0.54336 0.33754 0.0
C711 C 0.84944 0.53644 0.36903 0.0
C712 C 0.85483 0.50713 0.37678 0.0
C713 C 0.85692 0.484 0.35286 0.0
C714 C 0.82792 0.35705 0.23089 0.0
C715 C 0.75939 0.37067 0.25976 0.0
O716 O 0.77145 0.28258 0.2668 0.0
O717 O 0.79848 0.27814 0.31135 0.0
O718 O 0.81027 0.37647 0.32528 0.0
O719 O 0.79179 0.33826 0.34739 0.0
O720 O 0.86506 0.38539 0.31826 0.0
O721 O 0.85006 0.33019 0.30882 0.0
O722 O 0.86529 0.44383 0.29776 0.0
O723 O 0.82246 0.45021 0.28324 0.0
O724 O 0.81987 0.35086 0.25652 0.0
O725 O 0.83833 0.38767 0.2334 0.0
O726 O 0.76162 0.34266 0.26882 0.0
O727 O 0.78082 0.39608 0.26517 0.0
H728 H 0.75649 0.20003 0.26773 0.0
H729 H 0.77667 0.15931 0.24214 0.0
H730 H 0.85042 0.23255 0.23834 0.0
H731 H 0.83055 0.2726 0.26406 0.0
H732 H 0.84859 0.5253 0.28921 0.0
H733 H 0.84457 0.56555 0.33068 0.0
H734 H 0.85571 0.50144 0.40096 0.0
H735 H 0.85923 0.46079 0.35894 0.0
Pr736 Pr 0.08098 0.60115 0.57102 0.0
Pr737 Pr 0.06083 0.60984 0.49588 0.0
C738 C 0.09312 0.61448 0.63467 0.0
C739 C 0.08765 0.64119 0.65411 0.0
C740 C 0.09953 0.6489 0.6866 0.0
C741 C 0.09284 0.67383 0.70466 0.0
C742 C 0.07457 0.6917 0.69023 0.0
C743 C 0.06388 0.68455 0.65725 0.0
C744 C 0.06981 0.6591 0.63962 0.0
C745 C 0.07975 0.54468 0.53084 0.0
C746 C 0.01252 0.58025 0.53759 0.0
C747 C 0.04749 0.59766 0.43202 0.0
C748 C 0.05215 0.57366 0.40847 0.0
C749 C 0.03474 0.5662 0.37827 0.0
C750 C 0.03918 0.54341 0.35571 0.0
C751 C 0.06087 0.52725 0.36321 0.0
C752 C 0.07766 0.5342 0.39405 0.0
C753 C 0.07363 0.55757 0.41626 0.0
C754 C 0.06325 0.66667 0.53624 0.0
C755 C 0.12764 0.63497 0.52951 0.0
O756 O 0.112 0.62244 0.61695 0.0
O757 O 0.07035 0.59373 0.61928 0.0
O758 O 0.07422 0.57041 0.52279 0.0
O759 O 0.08835 0.54856 0.56163 0.0
O760 O 0.0191 0.5829 0.50918 0.0
O761 O 0.03142 0.58939 0.56448 0.0
O762 O 0.03004 0.58672 0.45044 0.0
O763 O 0.07008 0.61876 0.44733 0.0
O764 O 0.06811 0.64057 0.54396 0.0
O765 O 0.05491 0.6632 0.50544 0.0
O766 O 0.12044 0.63455 0.55783 0.0
O767 O 0.11009 0.62024 0.50303 0.0
H768 H 0.11327 0.63515 0.69813 0.0
H769 H 0.10104 0.67807 0.7301 0.0
H770 H 0.0503 0.69806 0.64504 0.0
H771 H 0.06019 0.65313 0.61455 0.0
H772 H 0.01805 0.57844 0.37193 0.0
H773 H 0.02623 0.53942 0.33205 0.0
H774 H 0.09424 0.522 0.40095 0.0
H775 H 0.08733 0.56313 0.43957 0.0
Pr776 Pr 0.78414 0.85859 0.27723 0.0
Pr777 Pr 0.84491 0.85148 0.2852 0.0
C778 C 0.7303 0.85965 0.27942 0.0
C779 C 0.70929 0.85343 0.29978 0.0
C780 C 0.68195 0.85644 0.28825 0.0
C781 C 0.66125 0.85011 0.3067 0.0
C782 C 0.66754 0.84062 0.3371 0.0
C783 C 0.69515 0.83784 0.34874 0.0
C784 C 0.7159 0.84408 0.33011 0.0
C785 C 0.8181 0.90255 0.24786 0.0
C786 C 0.82707 0.88318 0.3479 0.0
C787 C 0.89843 0.84851 0.28336 0.0
C788 C 0.92069 0.85001 0.26413 0.0
C789 C 0.92996 0.82221 0.25691 0.0
C790 C 0.95382 0.82362 0.24334 0.0
C791 C 0.96911 0.85293 0.23687 0.0
C792 C 0.95896 0.88053 0.24238 0.0
C793 C 0.93499 0.87912 0.25603 0.0
C794 C 0.80941 0.80646 0.31231 0.0
C795 C 0.80138 0.82502 0.21522 0.0
O796 O 0.7377 0.83471 0.26706 0.0
O797 O 0.75137 0.88466 0.28899 0.0
O798 O 0.82603 0.89422 0.27477 0.0
O799 O 0.79145 0.8908 0.2371 0.0
O800 O 0.84845 0.88428 0.333 0.0
O801 O 0.80089 0.87036 0.33285 0.0
O802 O 0.89142 0.87497 0.29243 0.0
O803 O 0.87724 0.82337 0.27703 0.0
O804 O 0.80291 0.81554 0.28553 0.0
O805 O 0.83558 0.81903 0.32515 0.0
O806 O 0.78038 0.82454 0.23058 0.0
O807 O 0.82775 0.8381 0.22957 0.0
H808 H 0.67657 0.86368 0.26488 0.0
H809 H 0.64035 0.85303 0.29729 0.0
H810 H 0.70055 0.83042 0.37199 0.0
H811 H 0.73698 0.84152 0.33924 0.0
H812 H 0.91944 0.79948 0.26299 0.0
H813 H 0.96088 0.80186 0.2389 0.0
H814 H 0.97038 0.90347 0.23774 0.0
H815 H 0.9284 0.90101 0.26139 0.0
Pr816 Pr 0.8408 0.39641 0.81268 0.0
Pr817 Pr 0.8035 0.32527 0.77073 0.0
C818 C 0.88621 0.44202 0.84077 0.0
C819 C 0.90121 0.47163 0.8315 0.0
C820 C 0.92801 0.48721 0.84875 0.0
C821 C 0.94331 0.51419 0.83854 0.0
C822 C 0.93196 0.52582 0.81088 0.0
C823 C 0.90508 0.50991 0.79355 0.0
C824 C 0.88984 0.48291 0.80375 0.0
C825 C 0.78713 0.39851 0.77933 0.0
C826 C 0.8361 0.38311 0.73226 0.0
C827 C 0.75785 0.28255 0.73811 0.0
C828 C 0.73964 0.25114 0.73864 0.0
C829 C 0.7509 0.22512 0.74646 0.0
C830 C 0.73296 0.19535 0.74619 0.0
C831 C 0.70351 0.19125 0.7384 0.0
C832 C 0.69238 0.21761 0.73116 0.0
C833 C 0.71034 0.2473 0.73122 0.0
C834 C 0.85705 0.32274 0.80372 0.0
C835 C 0.80882 0.3383 0.85138 0.0
O836 O 0.88767 0.41611 0.82334 0.0
O837 O 0.86096 0.44156 0.84688 0.0
O838 O 0.79887 0.37556 0.78103 0.0
O839 O 0.80361 0.42326 0.79819 0.0
O840 O 0.81862 0.35467 0.73051 0.0
O841 O 0.84845 0.40132 0.75989 0.0
O842 O 0.75654 0.30544 0.75971 0.0
O843 O 0.78333 0.2836 0.73243 0.0
O844 O 0.84572 0.34607 0.80189 0.0
O845 O 0.84013 0.29785 0.78537 0.0
O846 O 0.8264 0.36684 0.85335 0.0
O847 O 0.79616 0.3203 0.82363 0.0
H848 H 0.93715 0.47843 0.86998 0.0
H849 H 0.96377 0.52632 0.85266 0.0
H850 H 0.89592 0.51827 0.77208 0.0
H851 H 0.86931 0.47064 0.78985 0.0
H852 H 0.7735 0.22767 0.75244 0.0
H853 H 0.74222 0.17539 0.75132 0.0
H854 H 0.66981 0.2153 0.72541 0.0
H855 H 0.70135 0.26729 0.72532 0.0
Pr856 Pr 0.79478 0.82655 0.77425 0.0
Pr857 Pr 0.84612 0.884 0.79666 0.0
C858 C 0.74327 0.78908 0.77246 0.0
C859 C 0.72158 0.79409 0.79105 0.0
C860 C 0.69303 0.77923 0.77974 0.0
C861 C 0.67244 0.7857 0.79656 0.0
C862 C 0.67996 0.80734 0.82501 0.0
C863 C 0.70871 0.82195 0.83631 0.0
C864 C 0.72922 0.8154 0.81955 0.0
C865 C 0.81913 0.85104 0.72414 0.0
C866 C 0.78563 0.90026 0.78738 0.0
C867 C 0.89832 0.92032 0.7999 0.0
C868 C 0.92164 0.91456 0.78391 0.0
C869 C 0.94592 0.90825 0.80181 0.0
C870 C 0.9667 0.89952 0.78673 0.0
C871 C 0.96388 0.89701 0.75329 0.0
C872 C 0.93997 0.90424 0.73545 0.0
C873 C 0.91911 0.91282 0.75053 0.0
C874 C 0.82186 0.8578 0.84632 0.0
C875 C 0.85567 0.81117 0.78488 0.0
O876 O 0.76636 0.78389 0.78869 0.0
O877 O 0.7483 0.80907 0.75184 0.0
O878 O 0.81554 0.86716 0.74855 0.0
O879 O 0.80798 0.82067 0.72372 0.0
O880 O 0.81187 0.91279 0.78514 0.0
O881 O 0.77789 0.87028 0.79258 0.0
O882 O 0.87595 0.92531 0.78189 0.0
O883 O 0.89197 0.9019 0.82148 0.0
O884 O 0.82589 0.84283 0.82163 0.0
O885 O 0.83226 0.88843 0.84734 0.0
O886 O 0.82952 0.79855 0.78738 0.0
O887 O 0.86272 0.8405 0.77778 0.0
H888 H 0.68662 0.76283 0.75775 0.0
H889 H 0.65062 0.7736 0.78728 0.0
H890 H 0.71541 0.83908 0.85775 0.0
H891 H 0.7511 0.82742 0.82865 0.0
H892 H 0.94856 0.90937 0.82751 0.0
H893 H 0.98501 0.89466 0.80136 0.0
H894 H 0.93691 0.90235 0.70968 0.0
H895 H 0.90071 0.91738 0.73585 0.0
Pr896 Pr 0.54065 0.58664 0.52233 0.0
Pr897 Pr 0.59817 0.62699 0.56712 0.0
C898 C 0.4848 0.5703 0.49861 0.0
C899 C 0.46309 0.58865 0.50138 0.0
C900 C 0.43584 0.57821 0.48284 0.0
C901 C 0.41521 0.59532 0.48649 0.0
C902 C 0.42165 0.62344 0.50837 0.0
C903 C 0.44907 0.63403 0.52656 0.0
C904 C 0.46944 0.61661 0.52337 0.0
C905 C 0.58802 0.59797 0.49478 0.0
C906 C 0.557 0.66897 0.53261 0.0
C907 C 0.65385 0.64293 0.59042 0.0
C908 C 0.67466 0.62342 0.58735 0.0
C909 C 0.69977 0.62862 0.60992 0.0
C910 C 0.71891 0.6093 0.60701 0.0
C911 C 0.71314 0.58423 0.58161 0.0
C912 C 0.68788 0.57914 0.55915 0.0
C913 C 0.66894 0.59854 0.56194 0.0
C914 C 0.55069 0.61587 0.59447 0.0
C915 C 0.58147 0.54496 0.55761 0.0
O916 O 0.49618 0.56176 0.52527 0.0
O917 O 0.50341 0.58108 0.48141 0.0
O918 O 0.58116 0.61717 0.51391 0.0
O919 O 0.56851 0.57132 0.48647 0.0
O920 O 0.5832 0.6708 0.54741 0.0
O921 O 0.53805 0.64122 0.52524 0.0
O922 O 0.64253 0.65168 0.56376 0.0
O923 O 0.63538 0.63298 0.60809 0.0
O924 O 0.55775 0.59671 0.57552 0.0
O925 O 0.57011 0.64257 0.60271 0.0
O926 O 0.55501 0.54375 0.54436 0.0
O927 O 0.60114 0.5722 0.56317 0.0
H928 H 0.43041 0.55665 0.46588 0.0
H929 H 0.39418 0.58654 0.47226 0.0
H930 H 0.45449 0.6552 0.54406 0.0
H931 H 0.49003 0.62472 0.53859 0.0
H932 H 0.70453 0.64751 0.62981 0.0
H933 H 0.73807 0.61372 0.62487 0.0
H934 H 0.68291 0.56044 0.53905 0.0
H935 H 0.64976 0.59407 0.5441 0.0
Pr936 Pr 0.10674 0.61058 0.03817 0.0
Pr937 Pr 0.04374 0.60364 0.03633 0.0
C938 C 0.1608 0.60701 0.04216 0.0
C939 C 0.17961 0.58523 0.04692 0.0
C940 C 0.20832 0.5971 0.04759 0.0
C941 C 0.22703 0.57735 0.05259 0.0
C942 C 0.21738 0.54529 0.05709 0.0
C943 C 0.1884 0.53326 0.05606 0.0
C944 C 0.1696 0.5532 0.0511 0.0
C945 C 0.08185 0.6462 0.99548 0.0
C946 C 0.06166 0.54289 1.00217 0.0
C947 C 0.98925 0.6059 0.03141 0.0
C948 C 0.96821 0.62526 0.03186 0.0
C949 C 0.94508 0.614 0.0459 0.0
C950 C 0.92385 0.63053 0.04587 0.0
C951 C 0.92528 0.65898 0.03195 0.0
C952 C 0.94859 0.67036 0.01782 0.0
C953 C 0.96997 0.65362 0.01781 0.0
C954 C 0.06937 0.56804 0.07887 0.0
C955 C 0.08944 0.67035 0.07475 0.0
O956 O 0.15054 0.61578 0.06679 0.0
O957 O 0.14268 0.60167 0.01513 0.0
O958 O 0.07068 0.61789 0.99912 0.0
O959 O 0.1072 0.65571 0.01211 0.0
O960 O 0.04163 0.55889 0.99987 0.0
O961 O 0.08722 0.55597 0.01888 0.0
O962 O 1.00167 0.60497 0.00681 0.0
O963 O 1.00557 0.60497 0.05853 0.0
O964 O 0.07979 0.59641 0.07491 0.0
O965 O 0.0439 0.55816 0.0625 0.0
O966 O 0.10928 0.65418 0.07578 0.0
O967 O 0.06362 0.6578 0.05828 0.0
H968 H 0.21631 0.62174 0.04428 0.0
H969 H 0.24911 0.58716 0.05265 0.0
H970 H 0.18041 0.50869 0.05955 0.0
H971 H 0.14738 0.54375 0.05065 0.0
H972 H 0.9432 0.592 0.05655 0.0
H973 H 0.90594 0.62053 0.05625 0.0
H974 H 0.95039 0.69222 0.007 0.0
H975 H 0.9877 0.66268 1.00676 0.0
C976 C 0.05977 0.2539 0.0188 0.0
C977 C 0.03541 0.25041 0.99507 0.0
H978 H 0.08563 0.23077 0.04997 0.0
C979 C 0.01702 0.21994 0.98686 0.0
H980 H 0.07455 0.27694 0.02562 0.0
C981 C 0.02311 0.19361 1.00122 0.0
C982 C 0.04815 0.19665 0.02382 0.0
H983 H 0.99809 0.21624 0.96876 0.0
H984 H 1.00857 0.17051 0.99354 0.0
C985 C 0.06619 0.22735 0.03274 0.0
C986 C 0.21677 0.91667 0.24113 0.0
C987 C 0.20943 0.89784 0.21109 0.0
H988 H 0.24638 0.93071 0.28564 0.0
C989 C 0.22679 0.87756 0.20348 0.0
H990 H 0.20375 0.9324 0.24776 0.0
C991 C 0.25061 0.87573 0.22566 0.0
C992 C 0.258 0.89476 0.25559 0.0
H993 H 0.22157 0.86251 0.18068 0.0
H994 H 0.26355 0.85991 0.21914 0.0
C995 C 0.24106 0.91558 0.26288 0.0
C996 C 0.5302 0.95645 0.47963 0.0
C997 C 0.5513 0.9458 0.46653 0.0
H998 H 0.51752 0.99655 0.50135 0.0
C999 C 0.57671 0.96796 0.46665 0.0
H1000 H 0.51024 0.94002 0.47941 0.0
C1001 C 0.581 1.0 0.47943 0.0
C1002 C 0.55965 0.01105 0.49156 0.0
H1003 H 0.59328 0.96053 0.45651 0.0
H1004 H 0.60092 0.01632 0.47917 0.0
C1005 C 0.53421 0.98888 0.4917 0.0
C1006 C 0.54353 0.34391 0.73709 0.0
C1007 C 0.55176 0.36171 0.71299 0.0
H1008 H 0.51173 0.32845 0.76398 0.0
C1009 C 0.53277 0.37767 0.69688 0.0
H1010 H 0.55754 0.3313 0.75004 0.0
C1011 C 0.50623 0.376 0.705 0.0
C1012 C 0.49811 0.358 0.72904 0.0
H1013 H 0.53848 0.39163 0.67823 0.0
H1014 H 0.492 0.38852 0.69232 0.0
C1015 C 0.5171 0.34204 0.74494 0.0
C1016 C 0.10578 0.99095 0.61497 0.0
C1017 C 0.0975 0.96072 0.59611 0.0
H1018 H 0.10889 0.04158 0.61722 0.0
C1019 C 0.08632 0.95959 0.56346 0.0
H1020 H 0.1145 0.99296 0.64019 0.0
C1021 C 0.08287 0.98757 0.5503 0.0
C1022 C 0.09079 0.01774 0.56924 0.0
H1023 H 0.07963 0.93692 0.54811 0.0
H1024 H 0.07367 0.98546 0.52521 0.0
C1025 C 0.10263 0.01899 0.60173 0.0
C1026 C 0.45354 0.8787 0.83855 0.0
C1027 C 0.46032 0.85398 0.85532 0.0
H1028 H 0.42176 0.89761 0.81219 0.0
C1029 C 0.43824 0.82807 0.85762 0.0
H1030 H 0.46979 0.89917 0.83628 0.0
C1031 C 0.41013 0.82697 0.84308 0.0
C1032 C 0.40362 0.85208 0.8266 0.0
H1033 H 0.44271 0.80856 0.8702 0.0
H1034 H 0.39351 0.80685 0.84523 0.0
C1035 C 0.42578 0.87786 0.82466 0.0
C1036 C 0.56349 0.25298 0.06573 0.0
C1037 C 0.58136 0.2578 0.09587 0.0
H1038 H 0.54327 0.22032 0.02307 0.0
C1039 C 0.59359 0.23252 0.10501 0.0
H1040 H 0.55374 0.27177 0.05775 0.0
C1041 C 0.58784 0.2033 0.08508 0.0
C1042 C 0.56907 0.19793 0.05568 0.0
H1043 H 0.60785 0.23531 0.12776 0.0
H1044 H 0.59828 0.1849 0.09268 0.0
C1045 C 0.55739 0.22339 0.04594 0.0
C1046 C 0.10601 0.32033 0.33976 0.0
C1047 C 0.11283 0.33021 0.37288 0.0
H1048 H 0.12011 0.30503 0.29772 0.0
C1049 C 0.14067 0.33294 0.38884 0.0
H1050 H 0.08476 0.31779 0.32668 0.0
C1051 C 0.16111 0.32584 0.37213 0.0
C1052 C 0.15428 0.3157 0.33898 0.0
H1053 H 0.1467 0.34054 0.41431 0.0
H1054 H 0.18239 0.32863 0.38522 0.0
C1055 C 0.1264 0.31315 0.32308 0.0
C1056 C 0.97837 0.06547 0.10418 0.0
C1057 C 0.96543 0.08981 0.11311 0.0
H1058 H 0.01576 0.05363 0.09335 0.0
C1059 C 0.98089 0.1219 0.11722 0.0
H1060 H 0.9672 0.04058 0.10104 0.0
C1061 C 1.00889 0.12939 0.11308 0.0
C1062 C 0.02175 0.10492 0.10451 0.0
H1063 H 0.97151 0.14124 0.12422 0.0
H1064 H 0.02026 0.15421 0.11602 0.0
C1065 C 1.00627 0.07297 0.10013 0.0
C1066 C 0.28791 0.77594 0.40457 0.0
C1067 C 0.29939 0.79421 0.43468 0.0
H1068 H 0.28104 0.77443 0.35362 0.0
C1069 C 0.31257 0.82667 0.43547 0.0
H1070 H 0.2775 0.75092 0.40287 0.0
C1071 C 0.31484 0.84019 0.40702 0.0
C1072 C 0.3036 0.82181 0.37687 0.0
H1073 H 0.32166 0.84153 0.45811 0.0
H1074 H 0.32566 0.86508 0.4087 0.0
C1075 C 0.28981 0.78954 0.37618 0.0
C1076 C 0.63377 0.04035 0.62336 0.0
C1077 C 0.6203 1.00831 0.62448 0.0
H1078 H 0.62927 0.08587 0.60979 0.0
C1079 C 0.59188 0.99707 0.60947 0.0
H1080 H 0.65557 0.04998 0.63499 0.0
C1081 C 0.57689 0.01771 0.59513 0.0
C1082 C 0.58992 0.05012 0.59561 0.0
H1083 H 0.58088 0.97263 0.61007 0.0
H1084 H 0.55485 1.0084 0.58431 0.0
C1085 C 0.61866 0.06109 0.60925 0.0
C1086 C 0.3567 0.40923 0.93756 0.0
C1087 C 0.33599 0.42307 0.94795 0.0
H1088 H 0.37045 0.38777 0.89759 0.0
C1089 C 0.31225 0.42448 0.9254 0.0
H1090 H 0.37541 0.40824 0.95431 0.0
C1091 C 0.30924 0.41253 0.89328 0.0
C1092 C 0.33027 0.39961 0.88252 0.0
H1093 H 0.29602 0.43518 0.93262 0.0
H1094 H 0.29062 0.41407 0.87669 0.0
C1095 C 0.35403 0.39794 0.90505 0.0
C1096 C 0.98966 0.09507 0.26645 0.0
C1097 C 0.99142 0.06878 0.24579 0.0
H1098 H 0.9999 0.11884 0.3143 0.0
C1099 C 1.00904 0.04895 0.25669 0.0
H1100 H 0.97667 0.11113 0.25844 0.0
C1101 C 0.02206 0.05316 0.28875 0.0
C1102 C 0.01781 0.07742 0.31016 0.0
H1103 H 1.0109 0.02861 0.24118 0.0
H1104 H 0.03342 0.03577 0.29716 0.0
C1105 C 1.0029 0.09946 0.29838 0.0
C1106 C 0.29955 0.78032 0.66256 0.0
C1107 C 0.31095 0.7902 0.63601 0.0
H1108 H 0.29513 0.79277 0.7108 0.0
C1109 C 0.32837 0.8212 0.6395 0.0
H1110 H 0.28573 0.75684 0.6609 0.0
C1111 C 0.33435 0.84147 0.66871 0.0
C1112 C 0.32296 0.8314 0.69513 0.0
H1113 H 0.33749 0.82977 0.61975 0.0
H1114 H 0.34785 0.86516 0.67055 0.0
C1115 C 0.3052 0.80074 0.69148 0.0
C1116 C 0.60386 0.99051 0.80916 0.0
C1117 C 0.58297 0.97763 0.78189 0.0
H1118 H 0.61369 0.01649 0.85573 0.0
C1119 C 0.5545 0.97392 0.78418 0.0
H1120 H 0.62602 0.99355 0.80832 0.0
C1121 C 0.54727 0.98653 0.81192 0.0
C1122 C 0.56841 1.00361 0.83758 0.0
H1123 H 0.53788 0.96351 0.76372 0.0
H1124 H 0.52519 0.98478 0.81235 0.0
C1125 C 0.5967 1.00371 0.83659 0.0
C1126 C 0.33585 0.3626 0.1414 0.0
C1127 C 0.3472 0.39586 0.14472 0.0
H1128 H 0.31806 0.32224 0.16365 0.0
C1129 C 0.34999 0.41364 0.17477 0.0
H1130 H 0.33319 0.34809 0.11865 0.0
C1131 C 0.34078 0.39896 0.20025 0.0
C1132 C 0.32895 0.36588 0.19683 0.0
H1133 H 0.35839 0.43929 0.17838 0.0
H1134 H 0.34252 0.41374 0.22259 0.0
C1135 C 0.32706 0.34777 0.1672 0.0
C1136 C 0.28028 0.05627 0.07051 0.0
C1137 C 0.27105 0.02301 0.0614 0.0
H1138 H 0.26905 0.10037 0.08275 0.0
C1139 C 0.24222 1.0087 0.05825 0.0
H1140 H 0.30234 0.06811 0.07323 0.0
C1141 C 0.22306 0.02731 0.06373 0.0
C1142 C 0.23232 0.06062 0.07276 0.0
H1143 H 0.23441 0.98316 0.05139 0.0
H1144 H 0.20099 0.01555 0.06113 0.0
C1145 C 0.26121 0.07479 0.07622 0.0
C1146 C 0.68856 0.65675 0.99107 0.0
C1147 C 0.69197 0.69013 0.99676 0.0
H1148 H 0.66233 0.6102 0.99143 0.0
C1149 C 0.67041 0.70192 0.0077 0.0
H1150 H 0.70476 0.64679 0.98277 0.0
C1151 C 0.64625 0.68088 0.01309 0.0
C1152 C 0.6429 0.64752 0.00738 0.0
H1153 H 0.67237 0.72742 0.01257 0.0
H1154 H 0.63009 0.69078 0.02157 0.0
C1155 C 0.66429 0.63572 0.99617 0.0
C1156 C 0.7984 0.56068 0.41593 0.0
C1157 C 0.80337 0.59346 0.41327 0.0
H1158 H 0.80933 0.5168 0.40368 0.0
C1159 C 0.82837 0.60848 0.40395 0.0
H1160 H 0.77947 0.54847 0.42333 0.0
C1161 C 0.84572 0.59018 0.39282 0.0
C1162 C 0.83842 0.55672 0.39117 0.0
H1163 H 0.833 0.63383 0.40201 0.0
H1164 H 0.86332 0.60185 0.3828 0.0
C1165 C 0.81575 0.54246 0.40488 0.0
C1166 C 0.93323 0.5538 0.51217 0.0
C1167 C 0.92493 0.53888 0.53798 0.0
H1168 H 0.9669 0.57832 0.49191 0.0
C1169 C 0.94583 0.53763 0.56419 0.0
H1170 H 0.91776 0.55511 0.49149 0.0
C1171 C 0.9744 0.55164 0.56466 0.0
C1172 C 0.98251 0.56647 0.53862 0.0
H1173 H 0.94006 0.52646 0.5845 0.0
H1174 H 0.99012 0.5505 0.58514 0.0
C1175 C 0.96153 0.56714 0.51238 0.0
C1176 C 0.39346 0.24885 0.31194 0.0
C1177 C 0.42125 0.26764 0.32087 0.0
H1178 H 0.35006 0.24768 0.29331 0.0
C1179 C 0.42651 0.30019 0.31728 0.0
H1180 H 0.38888 0.22356 0.31416 0.0
C1181 C 0.40464 0.31358 0.30438 0.0
C1182 C 0.37681 0.29494 0.29534 0.0
H1183 H 0.44773 0.31518 0.3234 0.0
H1184 H 0.40964 0.3388 0.30193 0.0
C1185 C 0.37132 0.2625 0.29965 0.0
C1186 C 0.3599 0.17528 0.55084 0.0
C1187 C 0.35134 0.19486 0.52849 0.0
H1188 H 0.39102 0.15084 0.56921 0.0
C1189 C 0.3694 0.20613 0.50784 0.0
H1190 H 0.34662 0.1663 0.56725 0.0
C1191 C 0.3951 0.19706 0.50894 0.0
C1192 C 0.40334 0.1771 0.5311 0.0
H1193 H 0.36337 0.22123 0.49035 0.0
H1194 H 0.40845 0.20549 0.4924 0.0
C1195 C 0.38554 0.16664 0.5522 0.0
C1196 C 0.74348 0.75038 0.32562 0.0
C1197 C 0.75402 0.73664 0.35227 0.0
H1198 H 0.75285 0.78277 0.29179 0.0
C1199 C 0.78257 0.7479 0.36697 0.0
H1200 H 0.72163 0.74234 0.31363 0.0
C1201 C 0.80039 0.77126 0.35445 0.0
C1202 C 0.79012 0.78355 0.3268 0.0
H1203 H 0.7914 0.73793 0.38753 0.0
H1204 H 0.82243 0.77894 0.36585 0.0
C1205 C 0.76139 0.77343 0.31291 0.0
C1206 C 0.94816 0.61029 0.79148 0.0
C1207 C 0.97773 0.61728 0.79584 0.0
H1208 H 0.91052 0.57576 0.79292 0.0
C1209 C 0.99173 0.59253 0.8003 0.0
H1210 H 0.9368 0.62887 0.78777 0.0
C1211 C 0.97663 0.56205 0.80338 0.0
C1212 C 0.94732 0.55585 0.8017 0.0
H1213 H 0.01451 0.59723 0.80372 0.0
H1214 H 0.98801 0.54374 0.8085 0.0
C1215 C 0.93309 0.57984 0.79432 0.0
C1216 C 0.12171 0.98076 0.08196 0.0
C1217 C 0.10283 0.96033 0.09653 0.0
H1218 H 0.12945 0.02302 0.05854 0.0
C1219 C 0.07579 0.96593 0.09591 0.0
H1220 H 0.14276 0.97727 0.08221 0.0
C1221 C 0.06782 0.99134 0.08136 0.0
C1222 C 0.087 0.01263 0.06798 0.0
H1223 H 0.06074 0.95068 0.1069 0.0
H1224 H 0.04697 0.99515 0.08188 0.0
C1225 C 0.11408 1.00698 0.06842 0.0
C1226 C 0.92309 0.34843 0.86888 0.0
C1227 C 0.93756 0.32458 0.86286 0.0
H1228 H 0.88622 0.3664 0.85514 0.0
C1229 C 0.92463 0.29919 0.83842 0.0
H1230 H 0.93292 0.36876 0.88694 0.0
C1231 C 0.89808 0.29806 0.81987 0.0
C1232 C 0.88422 0.32275 0.82487 0.0
H1233 H 0.9357 0.28104 0.8326 0.0
H1234 H 0.88896 0.27858 0.80072 0.0
C1235 C 0.89666 0.34746 0.85017 0.0
C1236 C 0.63079 0.25014 0.63177 0.0
C1237 C 0.61492 0.27219 0.62197 0.0
H1238 H 0.63624 0.20226 0.62522 0.0
C1239 C 0.59141 0.2616 0.5969 0.0
H1240 H 0.64901 0.2574 0.65104 0.0
C1241 C 0.58364 0.22953 0.58254 0.0
C1242 C 0.59957 0.20755 0.59248 0.0
H1243 H 0.57857 0.27783 0.58899 0.0
H1244 H 0.56533 0.22204 0.56342 0.0
C1245 C 0.62342 0.21842 0.61702 0.0
C1246 C 0.62857 0.84328 0.40595 0.0
C1247 C 0.60088 0.82771 0.39077 0.0
H1248 H 0.67148 0.85969 0.40078 0.0
C1249 C 0.59586 0.81408 0.35873 0.0
H1250 H 0.63311 0.85393 0.43066 0.0
C1251 C 0.61775 0.81727 0.34175 0.0
C1252 C 0.6452 0.83417 0.35638 0.0
H1253 H 0.57481 0.80161 0.34645 0.0
H1254 H 0.61308 0.80698 0.3169 0.0
C1255 C 0.65056 0.84646 0.38889 0.0
C1256 C 0.02973 0.21992 0.45092 0.0
C1257 C 0.04001 0.25006 0.46978 0.0
H1258 H 0.02532 0.16898 0.44798 0.0
C1259 C 0.05274 0.25076 0.50184 0.0
H1260 H 0.01987 0.21829 0.4261 0.0
C1261 C 0.05583 0.22245 0.51439 0.0
C1262 C 0.04635 0.19236 0.49535 0.0
H1263 H 0.06098 0.27334 0.51718 0.0
H1264 H 0.06632 0.22434 0.53902 0.0
C1265 C 0.03286 0.19152 0.46349 0.0
C1266 C 0.68074 0.35715 0.2271 0.0
C1267 C 0.68046 0.37503 0.20124 0.0
H1268 H 0.7059 0.34121 0.26553 0.0
C1269 C 0.70626 0.39212 0.19541 0.0
H1270 H 0.66117 0.34366 0.23213 0.0
C1271 C 0.73177 0.39158 0.21519 0.0
C1272 C 0.73211 0.37311 0.24061 0.0
H1273 H 0.70671 0.40619 0.17575 0.0
H1274 H 0.75133 0.40492 0.21002 0.0
C1275 C 0.70631 0.35574 0.24623 0.0
C1276 C 0.57756 0.95756 1.00324 0.0
C1277 C 0.56652 0.9544 0.97037 0.0
H1278 H 0.59124 0.98881 0.04775 0.0
C1279 C 0.55958 0.98139 0.95774 0.0
H1280 H 0.58316 0.93741 0.01382 0.0
C1281 C 0.56359 0.01059 0.97728 0.0
C1282 C 0.57564 0.01416 0.00981 0.0
H1283 H 0.5506 0.97982 0.93263 0.0
H1284 H 0.55697 0.03034 0.96704 0.0
C1285 C 0.58232 0.98713 0.02262 0.0
C1286 C 0.01859 0.85208 0.73385 0.0
C1287 C 0.028 0.86679 0.70836 0.0
H1288 H 0.99111 0.84969 0.76754 0.0
C1289 C 0.01533 0.89083 0.69692 0.0
H1290 H 0.02763 0.83334 0.74327 0.0
C1291 C 0.99433 0.90039 0.71112 0.0
C1292 C 0.98552 0.88624 0.7372 0.0
H1293 H 0.02206 0.90279 0.67744 0.0
H1294 H 0.98553 0.91948 0.70219 0.0
C1295 C 0.99772 0.86166 0.74803 0.0
C1296 C 0.14135 0.15609 0.96759 0.0
C1297 C 0.15424 0.13552 0.95159 0.0
H1298 H 0.10946 0.16018 0.99432 0.0
C1299 C 0.14546 0.10228 0.95165 0.0
H1300 H 0.14748 0.18169 0.9673 0.0
C1301 C 0.12282 0.0897 0.966 0.0
C1302 C 0.10932 0.11037 0.98105 0.0
H1303 H 0.15483 0.08599 0.93874 0.0
H1304 H 0.11562 0.06403 0.96492 0.0
C1305 C 0.11941 0.14365 0.98265 0.0
C1306 C 0.82787 0.39144 0.64311 0.0
C1307 C 0.84332 0.42289 0.64315 0.0
H1308 H 0.81363 0.35427 0.6706 0.0
C1309 C 0.85792 0.44041 0.67277 0.0
H1310 H 0.81629 0.37716 0.62091 0.0
C1311 C 0.85642 0.42724 0.70149 0.0
C1312 C 0.84026 0.3961 0.70155 0.0
H1313 H 0.87002 0.46471 0.6739 0.0
H1314 H 0.8674 0.44188 0.72373 0.0
C1315 C 0.82636 0.37827 0.6718 0.0
C1316 C 0.53118 0.17236 0.43209 0.0
C1317 C 0.5484 0.19965 0.42402 0.0
H1318 H 0.52879 0.1343 0.46129 0.0
C1319 C 0.57554 0.212 0.44231 0.0
H1320 H 0.51038 0.16201 0.4178 0.0
C1321 C 0.58596 0.19636 0.46707 0.0
C1322 C 0.5697 0.16759 0.47351 0.0
H1323 H 0.58932 0.23272 0.43619 0.0
H1324 H 0.60739 0.20592 0.47997 0.0
C1325 C 0.54184 0.15626 0.45659 0.0
C1326 C 0.76347 0.77487 0.13665 0.0
C1327 C 0.78259 0.7833 0.11631 0.0
H1328 H 0.75428 0.78147 0.18344 0.0
C1329 C 0.80769 0.80663 0.12839 0.0
H1330 H 0.74397 0.75691 0.12807 0.0
C1331 C 0.81396 0.82025 0.16058 0.0
C1332 C 0.79497 0.81124 0.18103 0.0
H1333 H 0.82295 0.81333 0.11337 0.0
H1334 H 0.8337 0.83771 0.16947 0.0
C1335 C 0.76942 0.78888 0.16846 0.0
C1336 C 0.1557 0.10131 0.78902 0.0
C1337 C 0.18521 0.10612 0.79482 0.0
H1338 H 0.11859 0.10148 0.75535 0.0
C1339 C 0.19952 0.10968 0.7693 0.0
H1340 H 0.14407 0.09808 0.80819 0.0
C1341 C 0.18483 0.11146 0.73903 0.0
C1342 C 0.15576 0.10979 0.73409 0.0
H1343 H 0.22224 0.11319 0.77311 0.0
H1344 H 0.19651 0.11643 0.72012 0.0
C1345 C 0.1411 0.10333 0.75889 0.0
C1346 C 0.81218 0.39572 0.43995 0.0
C1347 C 0.81432 0.42879 0.4413 0.0
H1348 H 0.80631 0.3511 0.41029 0.0
C1349 C 0.81244 0.44195 0.41222 0.0
H1350 H 0.81347 0.3846 0.46163 0.0
C1351 C 0.80893 0.42292 0.38281 0.0
C1352 C 0.80661 0.38994 0.38153 0.0
H1353 H 0.81382 0.46717 0.41217 0.0
H1354 H 0.80749 0.43389 0.36105 0.0
C1355 C 0.80806 0.37654 0.41044 0.0
C1356 C 0.52092 0.23165 0.22329 0.0
C1357 C 0.53648 0.24473 0.25384 0.0
H1358 H 0.51973 0.20394 0.17946 0.0
C1359 C 0.56566 0.24682 0.26033 0.0
H1360 H 0.49847 0.23014 0.21733 0.0
C1361 C 0.57822 0.23223 0.23812 0.0
C1362 C 0.56174 0.21516 0.20924 0.0
H1363 H 0.57833 0.25739 0.2835 0.0
H1364 H 0.60042 0.23263 0.24447 0.0
C1365 C 0.5333 0.21668 0.20136 0.0
C1366 C 0.79642 0.7914 0.89462 0.0
C1367 C 0.79504 0.80812 0.9238 0.0
H1368 H 0.80569 0.79376 0.84781 0.0
C1369 C 0.80164 0.84184 0.92697 0.0
H1370 H 0.79144 0.76551 0.89107 0.0
C1371 C 0.80998 0.85826 0.90185 0.0
C1372 C 0.81182 0.84133 0.87294 0.0
H1373 H 0.8008 0.85557 0.94905 0.0
H1374 H 0.8153 0.88415 0.90519 0.0
C1375 C 0.80461 0.8077 0.86966 0.0
C1376 C 0.88234 0.19169 0.02382 0.0
C1377 C 0.85742 0.17496 0.03205 0.0
H1378 H 0.92219 0.18896 0.01133 0.0
C1379 C 0.85323 0.1417 0.03243 0.0
H1380 H 0.88618 0.21726 0.0233 0.0
C1381 C 0.87335 0.12555 0.02494 0.0
C1382 C 0.89853 0.14223 0.01744 0.0
H1383 H 0.83419 0.12795 0.03838 0.0
H1384 H 0.8695 0.1 0.02577 0.0
C1385 C 0.90291 0.17552 0.01703 0.0
C1386 C 0.44555 0.56812 0.06376 0.0
C1387 C 0.43913 0.53446 0.05852 0.0
H1388 H 0.47641 0.61198 0.06677 0.0
C1389 C 0.4606 0.51919 0.05315 0.0
H1390 H 0.42949 0.58066 0.06792 0.0
C1391 C 0.48759 0.53737 0.05186 0.0
C1392 C 0.49365 0.57109 0.05643 0.0
H1393 H 0.45621 0.49335 0.04861 0.0
H1394 H 0.50363 0.52507 0.04701 0.0
C1395 C 0.47244 0.58614 0.06296 0.0
C1396 C 0.32855 0.63238 0.66394 0.0
C1397 C 0.3405 0.61399 0.68526 0.0
H1398 H 0.30511 0.66864 0.65843 0.0
C1399 C 0.33419 0.61397 0.71592 0.0
H1400 H 0.33329 0.6327 0.64019 0.0
C1401 C 0.31765 0.63365 0.72597 0.0
C1402 C 0.3077 0.6542 0.70574 0.0
H1403 H 0.3431 0.59975 0.73262 0.0
H1404 H 0.31456 0.63462 0.75041 0.0
C1405 C 0.3125 0.65278 0.67431 0.0
C1406 C 0.1925 0.70373 0.54367 0.0
C1407 C 0.20747 0.69416 0.52097 0.0
H1408 H 0.15587 0.6919 0.56479 0.0
C1409 C 0.19609 0.66482 0.50122 0.0
H1410 H 0.20092 0.72604 0.55943 0.0
C1411 C 0.17009 0.64561 0.50382 0.0
C1412 C 0.15544 0.65479 0.52703 0.0
H1413 H 0.20729 0.65682 0.48361 0.0
H1414 H 0.16165 0.62332 0.48804 0.0
C1415 C 0.16692 0.68401 0.54698 0.0
C1416 C 0.74741 0.962 0.75675 0.0
C1417 C 0.71908 0.9452 0.7528 0.0
H1418 H 0.7909 0.96114 0.77108 0.0
C1419 C 0.71302 0.91516 0.76345 0.0
H1420 H 0.75271 0.98535 0.74899 0.0
C1421 C 0.73477 0.90166 0.7767 0.0
C1422 C 0.76319 0.91764 0.77919 0.0
H1423 H 0.69142 0.90184 0.76121 0.0
H1424 H 0.72916 0.87803 0.78378 0.0
C1425 C 0.76928 0.94826 0.76964 0.0
C1426 C 0.75394 0.97877 0.54656 0.0
C1427 C 0.78142 0.99281 0.5635 0.0
H1428 H 0.71252 0.98569 0.52977 0.0
C1429 C 0.78737 0.02417 0.5792 0.0
H1430 H 0.74875 0.95459 0.53432 0.0
C1431 C 0.76679 0.04174 0.57674 0.0
C1432 C 0.73974 0.02848 0.55842 0.0
H1433 H 0.80822 0.03551 0.59285 0.0
H1434 H 0.77226 0.06606 0.58872 0.0
C1435 C 0.73322 0.99651 0.54404 0.0
C1436 C 0.38335 0.44362 0.71396 0.0
C1437 C 0.37118 0.46036 0.69091 0.0
H1438 H 0.37651 0.4134 0.75042 0.0
C1439 C 0.34199 0.45782 0.68586 0.0
H1440 H 0.40591 0.44562 0.71871 0.0
C1441 C 0.3253 0.43922 0.70366 0.0
C1442 C 0.33753 0.42354 0.72761 0.0
H1443 H 0.33212 0.47073 0.66848 0.0
H1444 H 0.30282 0.43777 0.6992 0.0
C1445 C 0.36667 0.42564 0.73246 0.0
C1446 C 0.14833 0.61796 0.2048 0.0
C1447 C 0.15779 0.59533 0.22265 0.0
H1448 H 0.15769 0.66572 0.193 0.0
C1449 C 0.1833 0.60484 0.24495 0.0
H1450 H 0.12876 0.61134 0.18743 0.0
C1451 C 0.19991 0.63576 0.24792 0.0
C1452 C 0.19133 0.65783 0.22867 0.0
H1453 H 0.19108 0.58799 0.25921 0.0
H1454 H 0.22014 0.64182 0.26411 0.0
C1455 C 0.16501 0.64896 0.20775 0.0
C1456 C 0.55872 0.75566 0.51771 0.0
C1457 C 0.53418 0.75201 0.4942 0.0
H1458 H 0.58543 0.7327 0.54801 0.0
C1459 C 0.51642 0.72123 0.48536 0.0
H1460 H 0.57308 0.77892 0.52497 0.0
C1461 C 0.52329 0.69481 0.49892 0.0
C1462 C 0.5485 0.6981 0.52132 0.0
H1463 H 0.49741 0.71738 0.46735 0.0
H1464 H 0.5092 0.67149 0.49084 0.0
C1465 C 0.56592 0.72906 0.53086 0.0
C1466 C 0.72003 0.42165 0.7423 0.0
C1467 C 0.71146 0.40122 0.71319 0.0
H1468 H 0.75094 0.43725 0.7857 0.0
C1469 C 0.72778 0.37949 0.70628 0.0
H1470 H 0.70778 0.43847 0.7484 0.0
C1471 C 0.75184 0.37792 0.7282 0.0
C1472 C 0.76063 0.39871 0.75709 0.0
H1473 H 0.72154 0.36312 0.68428 0.0
H1474 H 0.76384 0.36079 0.72226 0.0
C1475 C 0.74463 0.42083 0.76372 0.0
C1476 C 0.06178 0.45444 0.99012 0.0
C1477 C 0.04253 0.44361 0.96116 0.0
H1478 H 0.08356 0.49461 0.02526 0.0
C1479 C 0.02908 0.46549 0.94626 0.0
H1480 H 0.07271 0.43823 1.0019 0.0
C1481 C 0.03477 0.49752 0.95989 0.0
C1482 C 0.05484 0.5087 0.98816 0.0
H1483 H 0.01424 0.45783 0.92382 0.0
H1484 H 0.02408 0.51375 0.9478 0.0
C1485 C 0.06819 0.48677 1.00324 0.0
C1486 C 0.0313 0.87429 0.19491 0.0
C1487 C 0.05044 0.85865 0.21122 0.0
H1488 H 0.99041 0.88486 0.19023 0.0
C1489 C 0.04243 0.84121 0.23565 0.0
H1490 H 0.03684 0.88798 0.17601 0.0
C1491 C 0.01604 0.83934 0.24358 0.0
C1492 C 0.99687 0.85492 0.22741 0.0
H1493 H 0.05657 0.82886 0.24878 0.0
H1494 H 1.0108 0.82601 0.26283 0.0
C1495 C 1.00479 0.87262 0.20309 0.0
C1496 C 0.60211 0.49095 0.11659 0.0
C1497 C 0.59434 0.46101 0.09726 0.0
H1498 H 0.60564 0.54168 0.11932 0.0
C1499 C 0.58458 0.46042 0.06437 0.0
H1500 H 0.60981 0.49251 0.142 0.0
C1501 C 0.58194 0.48869 0.05138 0.0
C1502 C 0.58935 0.51857 0.07076 0.0
H1503 H 0.5784 0.43796 0.04868 0.0
H1504 H 0.57377 0.48702 0.02606 0.0
C1505 C 0.59984 0.51929 0.10353 0.0
C1506 C 0.94894 0.38245 0.3502 0.0
C1507 C 0.95599 0.35489 0.36093 0.0
H1508 H 0.91704 0.40452 0.32939 0.0
C1509 C 0.93417 0.32735 0.35889 0.0
H1510 H 0.9651 0.40416 0.35151 0.0
C1511 C 0.90603 0.32736 0.34545 0.0
C1512 C 0.89925 0.35512 0.3345 0.0
H1513 H 0.93895 0.30567 0.36677 0.0
H1514 H 0.88966 0.30577 0.34367 0.0
C1515 C 0.92116 0.38265 0.33747 0.0
C1516 C 0.09478 0.733 0.60628 0.0
C1517 C 0.0822 0.75809 0.59729 0.0
H1518 H 0.0996 0.68542 0.59386 0.0
C1519 C 0.06365 0.75285 0.56757 0.0
H1520 H 0.10955 0.73611 0.62869 0.0
C1521 C 0.05733 0.72312 0.54799 0.0
C1522 C 0.06947 0.6979 0.55748 0.0
H1523 H 0.05362 0.77147 0.5597 0.0
H1524 H 0.04275 0.71981 0.52542 0.0
C1525 C 0.08882 0.70363 0.5865 0.0
C1526 C 0.6111 0.82487 0.84214 0.0
C1527 C 0.61625 0.82999 0.8757 0.0
H1528 H 0.62698 0.8143 0.79997 0.0
C1529 C 0.64257 0.82772 0.89252 0.0
H1530 H 0.59111 0.82651 0.82837 0.0
C1531 C 0.66312 0.8203 0.87618 0.0
C1532 C 0.65796 0.81505 0.84255 0.0
H1533 H 0.6472 0.83131 0.91836 0.0
H1534 H 0.68292 0.8182 0.89 0.0
C1535 C 0.63165 0.81757 0.82581 0.0
C1536 C 0.4789 0.56998 0.60252 0.0
C1537 C 0.46691 0.59425 0.61387 0.0
H1538 H 0.51521 0.55792 0.58884 0.0
C1539 C 0.48285 0.62617 0.61894 0.0
H1540 H 0.46736 0.54518 0.59866 0.0
C1541 C 0.51043 0.63352 0.61332 0.0
C1542 C 0.52241 0.60906 0.60247 0.0
H1543 H 0.47419 0.64544 0.6278 0.0
H1544 H 0.52223 0.65821 0.61719 0.0
C1545 C 0.5064 0.57729 0.59713 0.0
C1546 C 0.81253 0.33026 0.94049 0.0
C1547 C 0.80044 0.2975 0.93988 0.0
H1548 H 0.82474 0.3688 0.9135 0.0
C1549 C 0.79006 0.27878 0.90984 0.0
H1550 H 0.82076 0.34548 0.96307 0.0
C1551 C 0.79197 0.2922 0.88137 0.0
C1552 C 0.80463 0.3248 0.88187 0.0
H1553 H 0.7805 0.25352 0.90825 0.0
H1554 H 0.78403 0.27671 0.85892 0.0
C1555 C 0.81478 0.34365 0.91194 0.0
C1556 C 0.08737 0.49324 0.10756 0.0
C1557 C 0.11594 0.50425 0.12208 0.0
H1558 H 0.0503 0.50484 0.08278 0.0
C1559 C 0.12957 0.53614 0.12061 0.0
H1560 H 0.07625 0.46893 0.10854 0.0
C1561 C 0.1145 0.55697 0.10665 0.0
C1562 C 0.08566 0.54623 0.09338 0.0
H1563 H 0.15147 0.54561 0.13196 0.0
H1564 H 0.12526 0.58165 0.10696 0.0
C1565 C 0.07243 0.51396 0.09326 0.0
C1566 C 0.86045 0.93198 0.42882 0.0
C1567 C 0.84103 0.92014 0.44781 0.0
H1568 H 0.87161 0.92922 0.38257 0.0
C1569 C 0.81759 0.8952 0.43414 0.0
H1570 H 0.87845 0.95159 0.43874 0.0
C1571 C 0.81317 0.88306 0.40172 0.0
C1572 C 0.83239 0.89524 0.38252 0.0
H1573 H 0.80205 0.88612 0.44813 0.0
H1574 H 0.79454 0.86431 0.39161 0.0
C1575 C 0.85643 0.91931 0.39666 0.0
C1576 C 0.47698 0.59822 0.77213 0.0
C1577 C 0.48399 0.57666 0.75009 0.0
H1578 H 0.48261 0.61746 0.82113 0.0
C1579 C 0.50586 0.56166 0.76018 0.0
H1580 H 0.46059 0.61064 0.76493 0.0
C1581 C 0.51836 0.56551 0.79238 0.0
C1582 C 0.50923 0.58451 0.81483 0.0
H1583 H 0.51192 0.54515 0.74369 0.0
H1584 H 0.53349 0.55162 0.79992 0.0
C1585 C 0.48954 0.60214 0.80426 0.0
C1586 C 0.82619 0.32527 0.14416 0.0
C1587 C 0.81193 0.29299 0.14184 0.0
H1588 H 0.84265 0.37044 0.17397 0.0
C1589 C 0.80368 0.28184 0.16962 0.0
H1590 H 0.83292 0.33485 0.12351 0.0
C1591 C 0.80908 0.30233 0.19851 0.0
C1592 C 0.82321 0.33454 0.20075 0.0
H1593 H 0.79257 0.25722 0.16904 0.0
H1594 H 0.80178 0.29306 0.21896 0.0
C1595 C 0.83181 0.34568 0.17321 0.0
C1596 C 0.1034 0.49403 0.30904 0.0
C1597 C 0.08242 0.48073 0.28198 0.0
H1598 H 0.11319 0.52006 0.35561 0.0
C1599 C 0.05397 0.47655 0.28447 0.0
H1600 H 0.12554 0.49751 0.30794 0.0
C1601 C 0.04675 0.48892 0.31229 0.0
C1602 C 0.06787 0.50627 0.33782 0.0
H1603 H 0.03733 0.46585 0.26412 0.0
H1604 H 0.02465 0.48674 0.31292 0.0
C1605 C 0.09623 0.507 0.33658 0.0
C1606 C 0.83571 0.86249 0.6412 0.0
C1607 C 0.8468 0.89579 0.64433 0.0
H1608 H 0.81862 0.82213 0.66384 0.0
C1609 C 0.84993 0.91365 0.67441 0.0
H1610 H 0.83283 0.84793 0.61844 0.0
C1611 C 0.8413 0.89897 0.70014 0.0
C1612 C 0.82969 0.86586 0.69691 0.0
H1613 H 0.85818 0.93932 0.67786 0.0
H1614 H 0.84329 0.91379 0.72254 0.0
C1615 C 0.82746 0.84769 0.66723 0.0
C1616 C 0.78171 0.55896 0.57815 0.0
C1617 C 0.77232 0.52578 0.56866 0.0
H1618 H 0.77057 0.60328 0.5896 0.0
C1619 C 0.74332 0.51176 0.56427 0.0
H1620 H 0.80391 0.57057 0.58181 0.0
C1621 C 0.72415 0.53062 0.56877 0.0
C1622 C 0.73355 0.56389 0.578 0.0
H1623 H 0.73539 0.48628 0.55709 0.0
H1624 H 0.70193 0.5191 0.56516 0.0
C1625 C 0.76261 0.57774 0.58286 0.0
C1626 C 0.18932 0.15684 0.49047 0.0
C1627 C 0.19256 0.19017 0.49651 0.0
H1628 H 0.16322 0.1101 0.49017 0.0
C1629 C 0.17079 0.20168 0.50721 0.0
H1630 H 0.2057 0.1471 0.48232 0.0
C1631 C 0.14657 0.18038 0.51209 0.0
C1632 C 0.14342 0.14707 0.50612 0.0
H1633 H 0.17262 0.22714 0.51231 0.0
H1634 H 0.13023 0.19005 0.52043 0.0
C1635 C 0.16503 0.13557 0.49511 0.0
C1636 C 0.27455 0.05256 0.90773 0.0
C1637 C 0.28693 0.08543 0.91288 0.0
H1638 H 0.27598 1.00689 0.88716 0.0
C1639 C 0.31496 0.09598 0.90925 0.0
H1640 H 0.25306 0.04356 0.91066 0.0
C1641 C 0.32896 0.0744 0.89664 0.0
C1642 C 0.31483 0.04213 0.88655 0.0
H1643 H 0.32527 0.1212 0.91368 0.0
H1644 H 0.35014 0.08359 0.89291 0.0
C1645 C 0.28805 0.03126 0.89417 0.0
C1646 C 0.44522 0.03673 0.06066 0.0
C1647 C 0.42472 0.03696 0.03367 0.0
H1648 H 0.48923 0.0508 0.08281 0.0
C1649 C 0.43348 0.05123 0.00772 0.0
H1650 H 0.4391 0.02607 0.08108 0.0
C1651 C 0.46181 0.06496 0.00855 0.0
C1652 C 0.48237 0.06534 0.03556 0.0
H1653 H 0.41833 0.05174 0.98645 0.0
H1654 H 0.46752 0.07562 0.98795 0.0
C1655 C 0.47382 0.05113 0.06173 0.0
C1656 C 0.8955 0.74948 0.81223 0.0
C1657 C 0.92326 0.76836 0.82117 0.0
H1658 H 0.85206 0.74815 0.79362 0.0
C1659 C 0.92842 0.80093 0.81767 0.0
H1660 H 0.891 0.72418 0.81439 0.0
C1661 C 0.90648 0.81425 0.80481 0.0
C1662 C 0.87868 0.7955 0.79573 0.0
H1663 H 0.94961 0.81599 0.82381 0.0
H1664 H 0.91139 0.83949 0.80241 0.0
C1665 C 0.8733 0.76305 0.79999 0.0
C1666 C 0.86402 0.68726 0.05697 0.0
C1667 C 0.85207 0.69806 0.02918 0.0
H1668 H 0.89711 0.66802 0.08015 0.0
C1669 C 0.86623 0.6997 1.00341 0.0
H1670 H 0.8538 0.6863 0.07742 0.0
C1671 C 0.89092 0.6884 1.00466 0.0
C1672 C 0.90191 0.67573 0.03187 0.0
H1673 H 0.85739 0.70794 0.98172 0.0
H1674 H 0.90049 0.68806 0.98375 0.0
C1675 C 0.88877 0.67661 0.05844 0.0
C1676 C 0.24343 0.25772 0.82908 0.0
C1677 C 0.25376 0.24387 0.85574 0.0
H1678 H 0.25325 0.28911 0.79457 0.0
C1679 C 0.28252 0.25403 0.86984 0.0
H1680 H 0.22141 0.25051 0.81752 0.0
C1681 C 0.30069 0.27648 0.85671 0.0
C1682 C 0.29054 0.28882 0.82902 0.0
H1683 H 0.29118 0.24391 0.89037 0.0
H1684 H 0.32286 0.28338 0.86767 0.0
C1685 C 0.26167 0.27973 0.81572 0.0
C1686 C 0.44624 0.10928 0.29034 0.0
C1687 C 0.47584 0.11634 0.29574 0.0
H1688 H 0.40833 0.07464 0.29056 0.0
C1689 C 0.48981 0.09168 0.30097 0.0
H1690 H 0.43493 0.12782 0.28604 0.0
C1691 C 0.47452 0.06118 0.30376 0.0
C1692 C 0.44509 0.05489 0.30093 0.0
H1693 H 0.51261 0.09646 0.30524 0.0
H1694 H 0.48581 0.04293 0.30954 0.0
C1695 C 0.43099 0.0788 0.29282 0.0
C1696 C 0.62375 0.48401 0.58395 0.0
C1697 C 0.60489 0.46377 0.59869 0.0
H1698 H 0.63148 0.52594 0.56004 0.0
C1699 C 0.57786 0.46948 0.59803 0.0
H1700 H 0.64478 0.48044 0.58421 0.0
C1701 C 0.5699 0.49474 0.5832 0.0
C1702 C 0.58906 0.51581 0.56958 0.0
H1703 H 0.56282 0.45439 0.60915 0.0
H1704 H 0.54904 0.4986 0.58361 0.0
C1705 C 0.61613 0.5101 0.57013 0.0
C1706 C 0.43782 0.85842 0.33523 0.0
C1707 C 0.44349 0.8378 0.35795 0.0
H1708 H 0.40744 0.87114 0.30006 0.0
C1709 C 0.42083 0.81411 0.36303 0.0
H1710 H 0.45456 0.87709 0.33057 0.0
C1711 C 0.39342 0.8108 0.34519 0.0
C1712 C 0.38813 0.83135 0.3223 0.0
H1713 H 0.42436 0.79777 0.38016 0.0
H1714 H 0.37639 0.79215 0.34928 0.0
C1715 C 0.41066 0.85522 0.31774 0.0
C1716 C 0.12838 0.74651 0.12986 0.0
C1717 C 0.11281 0.76876 0.11986 0.0
H1718 H 0.13336 0.69843 0.12359 0.0
C1719 C 0.08938 0.75835 0.09466 0.0
H1720 H 0.14653 0.75364 0.14921 0.0
C1721 C 0.0814 0.72626 0.08038 0.0
C1722 C 0.097 0.70406 0.09057 0.0
H1723 H 0.07678 0.77475 0.08659 0.0
H1724 H 0.06316 0.71892 0.06116 0.0
C1725 C 0.12077 0.71475 0.11523 0.0
C1726 C 0.09393 0.32122 0.85367 0.0
C1727 C 0.09948 0.33107 0.88671 0.0
H1728 H 0.11076 0.31756 0.81109 0.0
C1729 C 0.12752 0.34411 0.90245 0.0
H1730 H 0.07259 0.31086 0.84086 0.0
C1731 C 0.14945 0.34807 0.88531 0.0
C1732 C 0.14375 0.33916 0.85208 0.0
H1733 H 0.13248 0.35186 0.92791 0.0
H1734 H 0.17074 0.35904 0.89792 0.0
C1735 C 0.11579 0.32522 0.83657 0.0
C1736 C 0.53024 0.72144 0.95337 0.0
C1737 C 0.5408 0.75173 0.97184 0.0
H1738 H 0.52542 0.67053 0.95108 0.0
C1739 C 0.55359 0.75276 1.00396 0.0
H1740 H 0.52033 0.71955 0.92853 0.0
C1741 C 0.5565 0.72459 0.01692 0.0
C1742 C 0.54675 0.69435 0.99822 0.0
H1743 H 0.56205 0.77549 0.019 0.0
H1744 H 0.56709 0.72668 0.04154 0.0
C1745 C 0.53317 0.6932 0.96634 0.0
C1746 C 0.19921 0.84964 0.68723 0.0
C1747 C 0.1846 0.87205 0.6972 0.0
H1748 H 0.23468 0.82861 0.69838 0.0
C1749 C 0.19561 0.8914 0.72675 0.0
H1750 H 0.19113 0.8342 0.66474 0.0
C1751 C 0.22094 0.8888 0.74563 0.0
C1752 C 0.23521 0.86589 0.73598 0.0
H1753 H 0.18477 0.90882 0.7351 0.0
H1754 H 0.22913 0.90434 0.76802 0.0
C1755 C 0.22398 0.84624 0.70664 0.0
C1756 C 0.05845 0.48093 0.4576 0.0
C1757 C 0.06515 0.45374 0.47008 0.0
H1758 H 0.05634 0.53002 0.46712 0.0
C1759 C 0.07634 0.45677 0.5029 0.0
H1760 H 0.04939 0.4795 0.43254 0.0
C1761 C 0.08142 0.48636 0.52239 0.0
C1762 C 0.07492 0.51355 0.50975 0.0
H1763 H 0.08176 0.4365 0.51339 0.0
H1764 H 0.09042 0.48791 0.54748 0.0
C1765 C 0.06278 0.51014 0.47725 0.0
C1766 C 0.51445 0.34891 0.23203 0.0
C1767 C 0.5247 0.36439 0.20737 0.0
H1768 H 0.48656 0.34627 0.26531 0.0
C1769 C 0.51308 0.38955 0.19693 0.0
H1770 H 0.52267 0.32932 0.24067 0.0
C1771 C 0.49236 0.39945 0.21135 0.0
C1772 C 0.48275 0.38454 0.23664 0.0
H1773 H 0.52048 0.40214 0.17813 0.0
H1774 H 0.48443 0.41942 0.20324 0.0
C1775 C 0.49383 0.35883 0.24643 0.0
C1776 C 0.64833 0.65046 0.46745 0.0
C1777 C 0.65898 0.62807 0.45067 0.0
H1778 H 0.61776 0.65822 0.49498 0.0
C1779 C 0.64775 0.59524 0.45057 0.0
H1780 H 0.65631 0.67584 0.46724 0.0
C1781 C 0.62483 0.58498 0.46539 0.0
C1782 C 0.61338 0.60752 0.48096 0.0
H1783 H 0.6553 0.5776 0.43705 0.0
H1784 H 0.61562 0.55963 0.46392 0.0
C1785 C 0.62605 0.64028 0.48292 0.0
C1786 C 0.35588 0.94111 0.16863 0.0
C1787 C 0.34205 0.92278 0.13914 0.0
H1788 H 0.36491 0.94358 0.2197 0.0
C1789 C 0.32737 0.89107 0.13949 0.0
H1790 H 0.36735 0.96562 0.16945 0.0
C1791 C 0.32598 0.87835 0.16842 0.0
C1792 C 0.33918 0.89692 0.198 0.0
H1793 H 0.3164 0.87619 0.11738 0.0
H1794 H 0.31394 0.85406 0.16753 0.0
C1795 C 0.35446 0.9284 0.19758 0.0
C1796 C 0.07672 0.71032 0.94225 0.0
C1797 C 0.04952 0.69897 0.9238 0.0
H1798 H 0.10799 0.70267 0.97968 0.0
C1799 C 0.03164 0.67187 0.93134 0.0
H1800 H 0.09099 0.73088 0.93654 0.0
C1801 C 0.04168 0.65495 0.95543 0.0
C1802 C 0.06956 0.66527 0.9725 0.0
H1803 H 1.01078 0.66228 0.91692 0.0
H1804 H 0.02811 0.63316 0.95972 0.0
C1805 C 0.08652 0.69387 0.96663 0.0
C1806 C 0.30914 0.30609 0.6295 0.0
C1807 C 0.28425 0.28235 0.61769 0.0
H1808 H 0.33494 0.3379 0.67025 0.0
C1809 C 0.26541 0.27368 0.6383 0.0
H1810 H 0.3242 0.313 0.6143 0.0
C1811 C 0.27135 0.28803 0.67 0.0
C1812 C 0.29663 0.31095 0.68226 0.0
H1813 H 0.24606 0.25543 0.62995 0.0
H1814 H 0.25635 0.28056 0.68514 0.0
C1815 C 0.31543 0.32001 0.66162 0.0
C1816 C 0.70522 0.606 0.26721 0.0
C1817 C 0.69099 0.59968 0.29246 0.0
H1818 H 0.70192 0.61651 0.21904 0.0
C1819 C 0.66142 0.59404 0.28676 0.0
H1820 H 0.72799 0.61027 0.2709 0.0
C1821 C 0.64663 0.59788 0.25732 0.0
C1822 C 0.66114 0.60696 0.233 0.0
H1823 H 0.64982 0.58875 0.30567 0.0
H1824 H 0.62403 0.59524 0.25403 0.0
C1825 C 0.69034 0.60956 0.23759 0.0
C1826 C 0.29982 0.89214 0.93161 0.0
C1827 C 0.31882 0.92223 0.93779 0.0
H1828 H 0.28014 0.85031 0.89767 0.0
C1829 C 0.33404 0.93223 0.91406 0.0
H1830 H 0.28776 0.88377 0.94931 0.0
C1831 C 0.33022 0.91276 0.88482 0.0
C1832 C 0.31008 0.8835 0.87785 0.0
H1833 H 0.34912 0.95515 0.91826 0.0
H1834 H 0.34321 0.92051 0.86776 0.0
C1835 C 0.29535 0.87313 0.9019 0.0
C1836 C 0.06795 0.74674 0.7609 0.0
C1837 C 0.03884 0.74508 0.7543 0.0
H1838 H 0.10251 0.73186 0.74527 0.0
C1839 C 0.02324 0.73189 0.7238 0.0
H1840 H 0.08065 0.75737 0.78404 0.0
C1841 C 0.03547 0.71648 0.70204 0.0
C1842 C 0.06382 0.71462 0.71 0.0
H1843 H 1.00085 0.73067 0.71776 0.0
H1844 H 0.02184 0.70372 0.68018 0.0
C1845 C 0.08037 0.73172 0.73885 0.0
C1846 C 0.30181 0.34144 0.42758 0.0
C1847 C 0.29528 0.30773 0.42451 0.0
H1848 H 0.31477 0.38367 0.40542 0.0
C1849 C 0.29603 0.29093 0.39511 0.0
H1850 H 0.30144 0.35523 0.44982 0.0
C1851 C 0.3035 0.30715 0.36981 0.0
C1852 C 0.31063 0.34078 0.37298 0.0
H1853 H 0.29104 0.26503 0.39162 0.0
H1854 H 0.3041 0.29317 0.34777 0.0
C1855 C 0.30946 0.35777 0.40214 0.0
C1856 C 0.35372 0.63917 0.52819 0.0
C1857 C 0.35753 0.67237 0.52764 0.0
H1858 H 0.37064 0.59787 0.52202 0.0
C1859 C 0.38247 0.68943 0.51972 0.0
H1860 H 0.33468 0.62518 0.53394 0.0
C1861 C 0.40341 0.67366 0.51336 0.0
C1862 C 0.39939 0.64042 0.51391 0.0
H1863 H 0.38604 0.71498 0.5191 0.0
H1864 H 0.42269 0.68736 0.50788 0.0
C1865 C 0.37422 0.62339 0.52112 0.0
C1866 C 0.94672 0.06565 0.56499 0.0
C1867 C 0.93981 0.0321 0.55805 0.0
H1868 H 0.97765 0.10947 0.56841 0.0
C1869 C 0.96068 0.01683 0.55049 0.0
H1870 H 0.93108 0.07817 0.57075 0.0
C1871 C 0.98751 0.03504 0.54859 0.0
C1872 C 0.99393 0.06872 0.55455 0.0
H1873 H 0.95583 0.99109 0.54451 0.0
H1874 H 1.00305 0.02281 0.54196 0.0
C1875 C 0.97339 0.08367 0.56342 0.0
C1876 C 0.83029 0.12428 0.18871 0.0
C1877 C 0.85821 0.12559 0.20342 0.0
H1878 H 0.79442 0.14482 0.18862 0.0
C1879 C 0.87111 0.14814 0.23035 0.0
H1880 H 0.81984 0.10698 0.16799 0.0
C1881 C 0.85673 0.16948 0.24193 0.0
C1882 C 0.82912 0.16875 0.22691 0.0
H1883 H 0.89252 0.14963 0.24239 0.0
H1884 H 0.86729 0.18675 0.26264 0.0
C1885 C 0.81575 0.1457 0.20051 0.0
C1886 C 0.69205 0.20601 0.04609 0.0
C1887 C 0.7079 0.19674 0.02423 0.0
H1888 H 0.65462 0.19357 0.06572 0.0
C1889 C 0.69725 0.16737 1.00436 0.0
H1890 H 0.69988 0.22835 0.06191 0.0
C1891 C 0.67114 0.14779 1.00606 0.0
C1892 C 0.65563 0.15664 0.02848 0.0
H1893 H 0.70912 0.1596 0.98738 0.0
H1894 H 0.66331 0.12546 0.99023 0.0
C1895 C 0.66635 0.18593 0.04851 0.0
C1896 C 0.24516 0.46045 0.25414 0.0
C1897 C 0.21687 0.44379 0.25091 0.0
H1898 H 0.28871 0.45982 0.26833 0.0
C1899 C 0.21096 0.41433 0.26271 0.0
H1900 H 0.25035 0.48339 0.2455 0.0
C1901 C 0.23284 0.40124 0.2764 0.0
C1902 C 0.26121 0.41702 0.27819 0.0
H1903 H 0.1894 0.40114 0.26107 0.0
H1904 H 0.22738 0.37807 0.28448 0.0
C1905 C 0.26715 0.4471 0.26747 0.0
C1906 C 0.25368 0.47691 0.04805 0.0
C1907 C 0.28046 0.49051 0.06699 0.0
H1908 H 0.2125 0.48376 0.0299 0.0
C1909 C 0.28513 0.52055 0.08515 0.0
H1910 H 0.24947 0.45374 0.03388 0.0
C1911 C 0.26409 0.53751 0.08303 0.0
C1912 C 0.23788 0.52493 0.0626 0.0
H1913 H 0.3054 0.53146 0.10036 0.0
H1914 H 0.26862 0.56095 0.09679 0.0
C1915 C 0.23252 0.49403 0.04585 0.0
C1916 C 0.88166 0.94107 0.21451 0.0
C1917 C 0.86985 0.95986 0.1934 0.0
H1918 H 0.87461 0.90891 0.24927 0.0
C1919 C 0.84106 0.95929 0.19024 0.0
H1920 H 0.90392 0.94147 0.21775 0.0
C1921 C 0.82438 0.94045 0.20789 0.0
C1922 C 0.83632 0.9226 0.22986 0.0
H1923 H 0.8315 0.97375 0.17434 0.0
H1924 H 0.80219 0.9404 0.20485 0.0
C1925 C 0.86506 0.92289 0.23292 0.0
C1926 C 0.67577 0.10654 0.75342 0.0
C1927 C 0.65358 0.09534 0.72707 0.0
H1928 H 0.70844 0.14604 0.77825 0.0
C1929 C 0.64585 0.11678 0.70649 0.0
H1930 H 0.68193 0.09054 0.76986 0.0
C1931 C 0.66138 0.14842 0.71093 0.0
C1932 C 0.68467 0.15917 0.73624 0.0
H1933 H 0.62895 0.10868 0.68583 0.0
H1934 H 0.65604 0.1639 0.69353 0.0
C1935 C 0.69106 0.13822 0.75808 0.0
loop_
_geom_bond_atom_site_label_1
_geom_bond_atom_site_label_2
_geom_bond_distance
_geom_bond_site_symmetry_2
_ccdc_geom_bond_type
C0 O1 1.306 . S
C0 O3 1.160 . S
O1 C0 1.306 . S
O1 Cd2 2.228 1_655 S
Cd2 O1 2.228 1_455 S
Cd2 O6 2.273 . S
Cd2 O10 2.277 . S
O3 C0 1.160 . S
O3 Cd4 2.203 1_655 S
Cd4 O3 2.203 1_455 S
Cd4 O6 2.411 . S
Cd4 O7 2.333 . S
Cd4 O8 2.352 . S
Cd4 O12 2.277 . S
Cd4 O13 2.356 . S
C5 O10 1.209 . S
C5 O12 1.226 . S
O6 Cd2 2.273 . S
O6 Cd4 2.411 . S
O6 C9 1.320 . S
O7 Cd4 2.333 . S
O7 C9 1.214 . S
O8 Cd4 2.352 . S
O8 C11 1.258 . S
C9 O6 1.320 . S
C9 O7 1.214 . S
O10 Cd2 2.277 . S
O10 C5 1.209 . S
C11 O8 1.258 . S
C11 O13 1.282 . S
O12 Cd4 2.277 . S
O12 C5 1.226 . S
O13 Cd4 2.356 . S
O13 C11 1.282 . S
C14 O15 1.306 . S
C14 O17 1.160 . S
O15 C14 1.306 . S
O15 Cd16 2.228 . S
Cd16 O15 2.228 . S
Cd16 O20 2.273 . S
Cd16 O24 2.277 . S
O17 C14 1.160 . S
O17 Cd18 2.203 . S
Cd18 O17 2.203 . S
Cd18 O20 2.411 . S
Cd18 O21 2.333 . S
Cd18 O22 2.352 . S
Cd18 O26 2.277 . S
Cd18 O27 2.356 . S
C19 O24 1.209 . S
C19 O26 1.226 . S
O20 Cd16 2.273 . S
O20 Cd18 2.411 . S
O20 C23 1.320 . S
O21 Cd18 2.333 . S
O21 C23 1.214 . S
O22 Cd18 2.352 . S
O22 C25 1.258 . S
C23 O20 1.320 . S
C23 O21 1.214 . S
O24 Cd16 2.277 . S
O24 C19 1.209 . S
C25 O22 1.258 . S
C25 O27 1.282 . S
O26 Cd18 2.277 . S
O26 C19 1.226 . S
O27 Cd18 2.356 . S
O27 C25 1.282 . S
C28 O29 1.306 . S
C28 O31 1.160 . S
O29 C28 1.306 . S
O29 Cd30 2.228 . S
Cd30 O29 2.228 . S
Cd30 O34 2.273 . S
Cd30 O38 2.277 . S
O31 C28 1.160 . S
O31 Cd32 2.203 . S
Cd32 O31 2.203 . S
Cd32 O34 2.411 . S
Cd32 O35 2.333 . S
Cd32 O36 2.352 . S
Cd32 O40 2.277 . S
Cd32 O41 2.356 . S
C33 O38 1.209 . S
C33 O40 1.226 . S
O34 Cd30 2.273 . S
O34 Cd32 2.411 . S
O34 C37 1.320 . S
O35 Cd32 2.333 . S
O35 C37 1.214 . S
O36 Cd32 2.352 . S
O36 C39 1.258 . S
C37 O34 1.320 . S
C37 O35 1.214 . S
O38 Cd30 2.277 . S
O38 C33 1.209 . S
C39 O36 1.258 . S
C39 O41 1.282 . S
O40 Cd32 2.277 . S
O40 C33 1.226 . S
O41 Cd32 2.356 . S
O41 C39 1.282 . S
C42 O43 1.306 . S
C42 O45 1.160 . S
O43 C42 1.306 . S
O43 Cd44 2.228 . S
Cd44 O43 2.228 . S
Cd44 O48 2.273 . S
Cd44 O52 2.277 . S
O45 C42 1.160 . S
O45 Cd46 2.203 . S
Cd46 O45 2.203 . S
Cd46 O48 2.411 . S
Cd46 O49 2.333 . S
Cd46 O50 2.352 . S
Cd46 O54 2.277 . S
Cd46 O55 2.356 . S
C47 O52 1.209 . S
C47 O54 1.226 . S
O48 Cd44 2.273 . S
O48 Cd46 2.411 . S
O48 C51 1.320 . S
O49 Cd46 2.333 . S
O49 C51 1.214 . S
O50 Cd46 2.352 . S
O50 C53 1.258 . S
C51 O48 1.320 . S
C51 O49 1.214 . S
O52 Cd44 2.277 . S
O52 C47 1.209 . S
C53 O50 1.258 . S
C53 O55 1.282 . S
O54 Cd46 2.277 . S
O54 C47 1.226 . S
O55 Cd46 2.356 . S
O55 C53 1.282 . S
C56 O57 1.306 . S
C56 O59 1.160 . S
O57 C56 1.306 . S
O57 Cd58 2.228 . S
Cd58 O57 2.228 . S
Cd58 O62 2.273 . S
Cd58 O66 2.277 . S
O59 C56 1.160 . S
O59 Cd60 2.203 . S
Cd60 O59 2.203 . S
Cd60 O62 2.411 . S
Cd60 O63 2.333 . S
Cd60 O64 2.352 . S
Cd60 O68 2.277 . S
Cd60 O69 2.356 . S
C61 O66 1.209 . S
C61 O68 1.226 . S
O62 Cd58 2.273 . S
O62 Cd60 2.411 . S
O62 C65 1.320 . S
O63 Cd60 2.333 . S
O63 C65 1.214 . S
O64 Cd60 2.352 . S
O64 C67 1.258 . S
C65 O62 1.320 . S
C65 O63 1.214 . S
O66 Cd58 2.277 . S
O66 C61 1.209 . S
C67 O64 1.258 . S
C67 O69 1.282 . S
O68 Cd60 2.277 . S
O68 C61 1.226 . S
O69 Cd60 2.356 . S
O69 C67 1.282 . S
C70 O71 1.306 . S
C70 O73 1.160 . S
O71 C70 1.306 . S
O71 Cd72 2.228 . S
Cd72 O71 2.228 . S
Cd72 O76 2.273 . S
Cd72 O80 2.277 . S
O73 C70 1.160 . S
O73 Cd74 2.203 . S
Cd74 O73 2.203 . S
Cd74 O76 2.411 . S
Cd74 O77 2.333 . S
Cd74 O78 2.352 . S
Cd74 O82 2.277 . S
Cd74 O83 2.356 . S
C75 O80 1.209 . S
C75 O82 1.226 . S
O76 Cd72 2.273 . S
O76 Cd74 2.411 . S
O76 C79 1.320 . S
O77 Cd74 2.333 . S
O77 C79 1.214 . S
O78 Cd74 2.352 . S
O78 C81 1.258 . S
C79 O76 1.320 . S
C79 O77 1.214 . S
O80 Cd72 2.277 . S
O80 C75 1.209 . S
C81 O78 1.258 . S
C81 O83 1.282 . S
O82 Cd74 2.277 . S
O82 C75 1.226 . S
O83 Cd74 2.356 . S
O83 C81 1.282 . S
C84 O85 1.306 . S
C84 O87 1.160 . S
O85 C84 1.306 . S
O85 Cd86 2.228 . S
Cd86 O85 2.228 . S
Cd86 O90 2.273 . S
Cd86 O94 2.277 . S
O87 C84 1.160 . S
O87 Cd88 2.203 . S
Cd88 O87 2.203 . S
Cd88 O90 2.411 . S
Cd88 O91 2.333 . S
Cd88 O92 2.352 . S
Cd88 O96 2.277 . S
Cd88 O97 2.356 . S
C89 O94 1.209 . S
C89 O96 1.226 . S
O90 Cd86 2.273 . S
O90 Cd88 2.411 . S
O90 C93 1.320 . S
O91 Cd88 2.333 . S
O91 C93 1.214 . S
O92 Cd88 2.352 . S
O92 C95 1.258 . S
C93 O90 1.320 . S
C93 O91 1.214 . S
O94 Cd86 2.277 . S
O94 C89 1.209 . S
C95 O92 1.258 . S
C95 O97 1.282 . S
O96 Cd88 2.277 . S
O96 C89 1.226 . S
O97 Cd88 2.356 . S
O97 C95 1.282 . S
C98 O99 1.306 . S
C98 O101 1.160 . S
O99 C98 1.306 . S
O99 Cd100 2.228 1_655 S
Cd100 O99 2.228 1_455 S
Cd100 O104 2.273 . S
Cd100 O108 2.277 . S
O101 C98 1.160 . S
O101 Cd102 2.203 1_655 S
Cd102 O101 2.203 1_455 S
Cd102 O104 2.411 . S
Cd102 O105 2.333 . S
Cd102 O106 2.352 . S
Cd102 O110 2.277 . S
Cd102 O111 2.356 . S
C103 O108 1.209 . S
C103 O110 1.226 . S
O104 Cd100 2.273 . S
O104 Cd102 2.411 . S
O104 C107 1.320 . S
O105 Cd102 2.333 . S
O105 C107 1.214 . S
O106 Cd102 2.352 . S
O106 C109 1.258 . S
C107 O104 1.320 . S
C107 O105 1.214 . S
O108 Cd100 2.277 . S
O108 C103 1.209 . S
C109 O106 1.258 . S
C109 O111 1.282 . S
O110 Cd102 2.277 . S
O110 C103 1.226 . S
O111 Cd102 2.356 . S
O111 C109 1.282 . S
C112 O113 1.306 . S
C112 O115 1.160 . S
O113 C112 1.306 . S
O113 Cd114 2.228 . S
Cd114 O113 2.228 . S
Cd114 O118 2.273 . S
Cd114 O122 2.277 . S
O115 C112 1.160 . S
O115 Cd116 2.203 . S
Cd116 O115 2.203 . S
Cd116 O118 2.411 . S
Cd116 O119 2.333 . S
Cd116 O120 2.352 . S
Cd116 O124 2.277 . S
Cd116 O125 2.356 . S
C117 O122 1.209 . S
C117 O124 1.226 . S
O118 Cd114 2.273 . S
O118 Cd116 2.411 . S
O118 C121 1.320 . S
O119 Cd116 2.333 . S
O119 C121 1.214 . S
O120 Cd116 2.352 . S
O120 C123 1.258 . S
C121 O118 1.320 . S
C121 O119 1.214 . S
O122 Cd114 2.277 . S
O122 C117 1.209 . S
C123 O120 1.258 . S
C123 O125 1.282 . S
O124 Cd116 2.277 . S
O124 C117 1.226 . S
O125 Cd116 2.356 . S
O125 C123 1.282 . S
C126 O127 1.306 . S
C126 O129 1.160 . S
O127 C126 1.306 . S
O127 Cd128 2.228 . S
Cd128 O127 2.228 . S
Cd128 O132 2.273 . S
Cd128 O136 2.277 . S
O129 C126 1.160 . S
O129 Cd130 2.203 . S
Cd130 O129 2.203 . S
Cd130 O132 2.411 . S
Cd130 O133 2.333 . S
Cd130 O134 2.352 . S
Cd130 O138 2.277 . S
Cd130 O139 2.356 . S
C131 O136 1.209 . S
C131 O138 1.226 . S
O132 Cd128 2.273 . S
O132 Cd130 2.411 . S
O132 C135 1.320 . S
O133 Cd130 2.333 . S
O133 C135 1.214 . S
O134 Cd130 2.352 . S
O134 C137 1.258 . S
C135 O132 1.320 . S
C135 O133 1.214 . S
O136 Cd128 2.277 . S
O136 C131 1.209 . S
C137 O134 1.258 . S
C137 O139 1.282 . S
O138 Cd130 2.277 . S
O138 C131 1.226 . S
O139 Cd130 2.356 . S
O139 C137 1.282 . S
C140 O141 1.306 . S
C140 O143 1.160 . S
O141 C140 1.306 . S
O141 Cd142 2.228 . S
Cd142 O141 2.228 . S
Cd142 O146 2.273 . S
Cd142 O150 2.277 . S
O143 C140 1.160 . S
O143 Cd144 2.203 . S
Cd144 O143 2.203 . S
Cd144 O146 2.411 . S
Cd144 O147 2.333 . S
Cd144 O148 2.352 . S
Cd144 O152 2.277 . S
Cd144 O153 2.356 . S
C145 O150 1.209 . S
C145 O152 1.226 . S
O146 Cd142 2.273 . S
O146 Cd144 2.411 . S
O146 C149 1.320 . S
O147 Cd144 2.333 . S
O147 C149 1.214 . S
O148 Cd144 2.352 . S
O148 C151 1.258 . S
C149 O146 1.320 . S
C149 O147 1.214 . S
O150 Cd142 2.277 . S
O150 C145 1.209 . S
C151 O148 1.258 . S
C151 O153 1.282 . S
O152 Cd144 2.277 . S
O152 C145 1.226 . S
O153 Cd144 2.356 . S
O153 C151 1.282 . S
C154 O155 1.306 1_565 S
C154 O157 1.160 . S
O155 C154 1.306 1_545 S
O155 Cd156 2.228 . S
Cd156 O155 2.228 . S
Cd156 O160 2.273 1_545 S
Cd156 O164 2.277 1_544 S
O157 C154 1.160 . S
O157 Cd158 2.203 . S
Cd158 O157 2.203 . S
Cd158 O160 2.411 . S
Cd158 O161 2.333 . S
Cd158 O162 2.352 . S
Cd158 O166 2.277 . S
Cd158 O167 2.356 . S
C159 O164 1.209 . S
C159 O166 1.226 1_556 S
O160 Cd156 2.273 1_565 S
O160 Cd158 2.411 . S
O160 C163 1.320 . S
O161 Cd158 2.333 . S
O161 C163 1.214 . S
O162 Cd158 2.352 . S
O162 C165 1.258 . S
C163 O160 1.320 . S
C163 O161 1.214 . S
O164 Cd156 2.277 1_566 S
O164 C159 1.209 . S
C165 O162 1.258 . S
C165 O167 1.282 . S
O166 Cd158 2.277 . S
O166 C159 1.226 1_554 S
O167 Cd158 2.356 . S
O167 C165 1.282 . S
C168 O169 1.306 . S
C168 O171 1.160 . S
O169 C168 1.306 . S
O169 Cd170 2.228 1_554 S
Cd170 O169 2.228 1_556 S
Cd170 O174 2.273 1_556 S
Cd170 O178 2.277 . S
O171 C168 1.160 . S
O171 Cd172 2.203 . S
Cd172 O171 2.203 . S
Cd172 O174 2.411 . S
Cd172 O175 2.333 . S
Cd172 O176 2.352 . S
Cd172 O180 2.277 1_554 S
Cd172 O181 2.356 . S
C173 O178 1.209 . S
C173 O180 1.226 . S
O174 Cd170 2.273 1_554 S
O174 Cd172 2.411 . S
O174 C177 1.320 . S
O175 Cd172 2.333 . S
O175 C177 1.214 . S
O176 Cd172 2.352 . S
O176 C179 1.258 . S
C177 O174 1.320 . S
C177 O175 1.214 . S
O178 Cd170 2.277 . S
O178 C173 1.209 . S
C179 O176 1.258 . S
C179 O181 1.282 . S
O180 Cd172 2.277 1_556 S
O180 C173 1.226 . S
O181 Cd172 2.356 . S
O181 C179 1.282 . S
C182 O183 1.306 . S
C182 O185 1.160 . S
O183 C182 1.306 . S
O183 Cd184 2.228 . S
Cd184 O183 2.228 . S
Cd184 O188 2.273 1_554 S
Cd184 O192 2.277 . S
O185 C182 1.160 . S
O185 Cd186 2.203 1_554 S
Cd186 O185 2.203 1_556 S
Cd186 O188 2.411 . S
Cd186 O189 2.333 . S
Cd186 O190 2.352 . S
Cd186 O194 2.277 1_556 S
Cd186 O195 2.356 . S
C187 O192 1.209 . S
C187 O194 1.226 . S
O188 Cd184 2.273 1_556 S
O188 Cd186 2.411 . S
O188 C191 1.320 . S
O189 Cd186 2.333 . S
O189 C191 1.214 . S
O190 Cd186 2.352 . S
O190 C193 1.258 . S
C191 O188 1.320 . S
C191 O189 1.214 . S
O192 Cd184 2.277 . S
O192 C187 1.209 . S
C193 O190 1.258 . S
C193 O195 1.282 . S
O194 Cd186 2.277 1_554 S
O194 C187 1.226 . S
O195 Cd186 2.356 . S
O195 C193 1.282 . S
C196 O197 1.306 . S
C196 O199 1.160 . S
O197 C196 1.306 . S
O197 Cd198 2.228 . S
Cd198 O197 2.228 . S
Cd198 O202 2.273 . S
Cd198 O206 2.277 . S
O199 C196 1.160 . S
O199 Cd200 2.203 . S
Cd200 O199 2.203 . S
Cd200 O202 2.411 . S
Cd200 O203 2.333 . S
Cd200 O204 2.352 . S
Cd200 O208 2.277 . S
Cd200 O209 2.356 . S
C201 O206 1.209 . S
C201 O208 1.226 . S
O202 Cd198 2.273 . S
O202 Cd200 2.411 . S
O202 C205 1.320 . S
O203 Cd200 2.333 . S
O203 C205 1.214 . S
O204 Cd200 2.352 . S
O204 C207 1.258 . S
C205 O202 1.320 . S
C205 O203 1.214 . S
O206 Cd198 2.277 . S
O206 C201 1.209 . S
C207 O204 1.258 . S
C207 O209 1.282 . S
O208 Cd200 2.277 . S
O208 C201 1.226 . S
O209 Cd200 2.356 . S
O209 C207 1.282 . S
C210 O211 1.306 1_565 S
C210 O213 1.160 . S
O211 C210 1.306 1_545 S
O211 Cd212 2.228 . S
Cd212 O211 2.228 . S
Cd212 O216 2.273 1_545 S
Cd212 O220 2.277 1_545 S
O213 C210 1.160 . S
O213 Cd214 2.203 . S
Cd214 O213 2.203 . S
Cd214 O216 2.411 . S
Cd214 O217 2.333 . S
Cd214 O218 2.352 . S
Cd214 O222 2.277 . S
Cd214 O223 2.356 . S
C215 O220 1.209 . S
C215 O222 1.226 . S
O216 Cd212 2.273 1_565 S
O216 Cd214 2.411 . S
O216 C219 1.320 . S
O217 Cd214 2.333 . S
O217 C219 1.214 . S
O218 Cd214 2.352 . S
O218 C221 1.258 . S
C219 O216 1.320 . S
C219 O217 1.214 . S
O220 Cd212 2.277 1_565 S
O220 C215 1.209 . S
C221 O218 1.258 . S
C221 O223 1.282 . S
O222 Cd214 2.277 . S
O222 C215 1.226 . S
O223 Cd214 2.356 . S
O223 C221 1.282 . S
C224 O225 1.306 . S
C224 O227 1.160 . S
O225 C224 1.306 . S
O225 Cd226 2.228 . S
Cd226 O225 2.228 . S
Cd226 O230 2.273 . S
Cd226 O234 2.277 1_545 S
O227 C224 1.160 . S
O227 Cd228 2.203 . S
Cd228 O227 2.203 . S
Cd228 O230 2.411 . S
Cd228 O231 2.333 . S
Cd228 O232 2.352 . S
Cd228 O236 2.277 1_545 S
Cd228 O237 2.356 . S
C229 O234 1.209 . S
C229 O236 1.226 . S
O230 Cd226 2.273 . S
O230 Cd228 2.411 . S
O230 C233 1.320 . S
O231 Cd228 2.333 . S
O231 C233 1.214 . S
O232 Cd228 2.352 . S
O232 C235 1.258 . S
C233 O230 1.320 . S
C233 O231 1.214 . S
O234 Cd226 2.277 1_565 S
O234 C229 1.209 . S
C235 O232 1.258 . S
C235 O237 1.282 . S
O236 Cd228 2.277 1_565 S
O236 C229 1.226 . S
O237 Cd228 2.356 . S
O237 C235 1.282 . S
C238 O239 1.306 . S
C238 O241 1.160 . S
O239 C238 1.306 . S
O239 Cd240 2.228 . S
Cd240 O239 2.228 . S
Cd240 O244 2.273 . S
Cd240 O248 2.277 . S
O241 C238 1.160 . S
O241 Cd242 2.203 . S
Cd242 O241 2.203 . S
Cd242 O244 2.411 . S
Cd242 O245 2.333 . S
Cd242 O246 2.352 . S
Cd242 O250 2.277 . S
Cd242 O251 2.356 . S
C243 O248 1.209 . S
C243 O250 1.226 . S
O244 Cd240 2.273 . S
O244 Cd242 2.411 . S
O244 C247 1.320 . S
O245 Cd242 2.333 . S
O245 C247 1.214 . S
O246 Cd242 2.352 . S
O246 C249 1.258 . S
C247 O244 1.320 . S
C247 O245 1.214 . S
O248 Cd240 2.277 . S
O248 C243 1.209 . S
C249 O246 1.258 . S
C249 O251 1.282 . S
O250 Cd242 2.277 . S
O250 C243 1.226 . S
O251 Cd242 2.356 . S
O251 C249 1.282 . S
C252 O253 1.306 . S
C252 O255 1.160 . S
O253 C252 1.306 . S
O253 Cd254 2.228 . S
Cd254 O253 2.228 . S
Cd254 O258 2.273 . S
Cd254 O262 2.277 . S
O255 C252 1.160 . S
O255 Cd256 2.203 . S
Cd256 O255 2.203 . S
Cd256 O258 2.411 . S
Cd256 O259 2.333 . S
Cd256 O260 2.352 . S
Cd256 O264 2.277 . S
Cd256 O265 2.356 . S
C257 O262 1.209 . S
C257 O264 1.226 . S
O258 Cd254 2.273 . S
O258 Cd256 2.411 . S
O258 C261 1.320 . S
O259 Cd256 2.333 . S
O259 C261 1.214 . S
O260 Cd256 2.352 . S
O260 C263 1.258 . S
C261 O258 1.320 . S
C261 O259 1.214 . S
O262 Cd254 2.277 . S
O262 C257 1.209 . S
C263 O260 1.258 . S
C263 O265 1.282 . S
O264 Cd256 2.277 . S
O264 C257 1.226 . S
O265 Cd256 2.356 . S
O265 C263 1.282 . S
C266 O267 1.306 . S
C266 O269 1.159 1_545 S
O267 C266 1.306 . S
O267 Cd268 2.228 . S
Cd268 O267 2.228 . S
Cd268 O272 2.273 1_545 S
Cd268 O276 2.277 . S
O269 C266 1.159 1_565 S
O269 Cd270 2.203 . S
Cd270 O269 2.203 . S
Cd270 O272 2.411 . S
Cd270 O273 2.333 . S
Cd270 O274 2.352 . S
Cd270 O278 2.277 1_565 S
Cd270 O279 2.356 . S
C271 O276 1.209 . S
C271 O278 1.226 . S
O272 Cd268 2.273 1_565 S
O272 Cd270 2.411 . S
O272 C275 1.320 . S
O273 Cd270 2.333 . S
O273 C275 1.214 . S
O274 Cd270 2.352 . S
O274 C277 1.258 . S
C275 O272 1.320 . S
C275 O273 1.214 . S
O276 Cd268 2.277 . S
O276 C271 1.209 . S
C277 O274 1.258 . S
C277 O279 1.282 . S
O278 Cd270 2.277 1_545 S
O278 C271 1.226 . S
O279 Cd270 2.356 . S
O279 C277 1.282 . S
C280 O281 1.306 . S
C280 O283 1.160 . S
O281 C280 1.306 . S
O281 Cd282 2.228 . S
Cd282 O281 2.228 . S
Cd282 O286 2.273 . S
Cd282 O290 2.277 . S
O283 C280 1.160 . S
O283 Cd284 2.203 . S
Cd284 O283 2.203 . S
Cd284 O286 2.411 . S
Cd284 O287 2.333 . S
Cd284 O288 2.352 1_554 S
Cd284 O292 2.277 . S
Cd284 O293 2.356 1_554 S
C285 O290 1.209 . S
C285 O292 1.226 . S
O286 Cd282 2.273 . S
O286 Cd284 2.411 . S
O286 C289 1.320 . S
O287 Cd284 2.333 . S
O287 C289 1.214 . S
O288 Cd284 2.352 1_556 S
O288 C291 1.258 . S
C289 O286 1.320 . S
C289 O287 1.214 . S
O290 Cd282 2.277 . S
O290 C285 1.209 . S
C291 O288 1.258 . S
C291 O293 1.282 . S
O292 Cd284 2.277 . S
O292 C285 1.226 . S
O293 Cd284 2.356 1_556 S
O293 C291 1.282 . S
C294 O295 1.306 . S
C294 O297 1.160 1_455 S
O295 C294 1.306 . S
O295 Cd296 2.228 . S
Cd296 O295 2.228 . S
Cd296 O300 2.273 . S
Cd296 O304 2.277 1_455 S
O297 C294 1.160 1_655 S
O297 Cd298 2.203 . S
Cd298 O297 2.203 . S
Cd298 O300 2.411 1_655 S
Cd298 O301 2.333 . S
Cd298 O302 2.352 . S
Cd298 O306 2.277 . S
Cd298 O307 2.356 . S
C299 O304 1.209 . S
C299 O306 1.226 . S
O300 Cd296 2.273 . S
O300 Cd298 2.411 1_455 S
O300 C303 1.320 1_455 S
O301 Cd298 2.333 . S
O301 C303 1.214 . S
O302 Cd298 2.352 . S
O302 C305 1.258 . S
C303 O300 1.320 1_655 S
C303 O301 1.214 . S
O304 Cd296 2.277 1_655 S
O304 C299 1.209 . S
C305 O302 1.258 . S
C305 O307 1.282 . S
O306 Cd298 2.277 . S
O306 C299 1.226 . S
O307 Cd298 2.356 . S
O307 C305 1.282 . S
C308 O309 1.306 . S
C308 O311 1.160 . S
O309 C308 1.306 . S
O309 Cd310 2.228 . S
Cd310 O309 2.228 . S
Cd310 O314 2.273 . S
Cd310 O318 2.277 . S
O311 C308 1.160 . S
O311 Cd312 2.203 . S
Cd312 O311 2.203 . S
Cd312 O314 2.411 . S
Cd312 O315 2.333 . S
Cd312 O316 2.352 . S
Cd312 O320 2.277 . S
Cd312 O321 2.356 . S
C313 O318 1.209 . S
C313 O320 1.226 . S
O314 Cd310 2.273 . S
O314 Cd312 2.411 . S
O314 C317 1.320 . S
O315 Cd312 2.333 . S
O315 C317 1.214 . S
O316 Cd312 2.352 . S
O316 C319 1.258 . S
C317 O314 1.320 . S
C317 O315 1.214 . S
O318 Cd310 2.277 . S
O318 C313 1.209 . S
C319 O316 1.258 . S
C319 O321 1.282 . S
O320 Cd312 2.277 . S
O320 C313 1.226 . S
O321 Cd312 2.356 . S
O321 C319 1.282 . S
C322 O323 1.306 . S
C322 O325 1.160 . S
O323 C322 1.306 . S
O323 Cd324 2.228 . S
Cd324 O323 2.228 . S
Cd324 O328 2.273 . S
Cd324 O332 2.277 . S
O325 C322 1.160 . S
O325 Cd326 2.203 . S
Cd326 O325 2.203 . S
Cd326 O328 2.411 . S
Cd326 O329 2.333 . S
Cd326 O330 2.352 . S
Cd326 O334 2.277 . S
Cd326 O335 2.356 . S
C327 O332 1.209 . S
C327 O334 1.226 . S
O328 Cd324 2.273 . S
O328 Cd326 2.411 . S
O328 C331 1.320 . S
O329 Cd326 2.333 . S
O329 C331 1.214 . S
O330 Cd326 2.352 . S
O330 C333 1.258 . S
C331 O328 1.320 . S
C331 O329 1.214 . S
O332 Cd324 2.277 . S
O332 C327 1.209 . S
C333 O330 1.258 . S
C333 O335 1.282 . S
O334 Cd326 2.277 . S
O334 C327 1.226 . S
O335 Cd326 2.356 . S
O335 C333 1.282 . S
Pr336 C338 2.880 1_454 S
Pr336 O356 2.562 1_455 S
Pr336 O357 2.490 1_454 S
Pr336 O358 2.695 . S
Pr336 O359 2.512 1_554 S
Pr336 O361 2.437 . S
Pr336 O364 2.436 . S
Pr336 O366 2.438 . S
Pr337 C347 2.880 . S
Pr337 O358 2.436 . S
Pr337 O360 2.438 . S
Pr337 O362 2.562 . S
Pr337 O363 2.490 . S
Pr337 O364 2.695 . S
Pr337 O365 2.512 . S
Pr337 O367 2.437 . S
C338 Pr336 2.880 1_656 S
C338 C339 1.491 . S
C338 O356 1.254 1_556 S
C338 O357 1.225 . S
C339 C338 1.491 . S
C339 C340 1.392 . S
C339 C344 1.356 . S
C340 C339 1.392 . S
C340 C341 1.368 . S
C340 H368 0.929 . S
C341 C340 1.368 . S
C341 C342 1.386 . S
C341 H369 0.929 . S
C342 C341 1.386 . S
C342 C343 1.373 . S
C343 C342 1.373 . S
C343 C344 1.409 . S
C343 H370 0.931 . S
C344 C339 1.356 . S
C344 C343 1.409 . S
C344 H371 0.930 1_556 S
C345 O358 1.270 1_556 S
C345 O359 1.248 . S
C346 O360 1.267 . S
C346 O361 1.278 . S
C347 Pr337 2.880 . S
C347 C348 1.491 . S
C347 O362 1.254 . S
C347 O363 1.225 . S
C348 C347 1.491 . S
C348 C349 1.392 . S
C348 C353 1.356 . S
C349 C348 1.392 . S
C349 C350 1.368 . S
C349 H372 0.929 . S
C350 C349 1.368 . S
C350 C351 1.386 . S
C350 H373 0.929 . S
C351 C350 1.386 . S
C351 C352 1.373 . S
C352 C351 1.373 . S
C352 C353 1.409 . S
C352 H374 0.931 . S
C353 C348 1.356 . S
C353 C352 1.409 . S
C353 H375 0.930 . S
C354 O364 1.270 . S
C354 O365 1.248 . S
C355 O366 1.267 . S
C355 O367 1.278 . S
O356 Pr336 2.562 1_655 S
O356 C338 1.254 1_554 S
O357 Pr336 2.490 1_656 S
O357 C338 1.225 . S
O358 Pr336 2.695 . S
O358 Pr337 2.436 . S
O358 C345 1.270 1_554 S
O359 Pr336 2.512 1_556 S
O359 C345 1.248 . S
O360 Pr337 2.438 . S
O360 C346 1.267 . S
O361 Pr336 2.437 . S
O361 C346 1.278 . S
O362 Pr337 2.562 . S
O362 C347 1.254 . S
O363 Pr337 2.490 . S
O363 C347 1.225 . S
O364 Pr336 2.436 . S
O364 Pr337 2.695 . S
O364 C354 1.270 . S
O365 Pr337 2.512 . S
O365 C354 1.248 . S
O366 Pr336 2.438 . S
O366 C355 1.267 . S
O367 Pr337 2.437 . S
O367 C355 1.278 . S
H368 C340 0.929 . S
H369 C341 0.929 . S
H370 C343 0.931 . S
H371 C344 0.930 1_554 S
H372 C349 0.929 . S
H373 C350 0.929 . S
H374 C352 0.931 . S
H375 C353 0.930 . S
Pr376 C378 2.880 . S
Pr376 O396 2.562 . S
Pr376 O397 2.490 . S
Pr376 O398 2.695 . S
Pr376 O399 2.512 . S
Pr376 O401 2.437 . S
Pr376 O404 2.436 . S
Pr376 O406 2.438 . S
Pr377 C387 2.880 . S
Pr377 O398 2.436 . S
Pr377 O400 2.438 . S
Pr377 O402 2.562 . S
Pr377 O403 2.490 . S
Pr377 O404 2.695 . S
Pr377 O405 2.512 . S
Pr377 O407 2.437 . S
C378 Pr376 2.880 . S
C378 C379 1.491 . S
C378 O396 1.254 . S
C378 O397 1.225 . S
C379 C378 1.491 . S
C379 C380 1.392 1_565 S
C379 C384 1.356 . S
C380 C379 1.392 1_545 S
C380 C381 1.368 . S
C380 H408 0.929 . S
C381 C380 1.368 . S
C381 C382 1.386 . S
C381 H409 0.929 . S
C382 C381 1.386 . S
C382 C383 1.373 . S
C383 C382 1.373 . S
C383 C384 1.409 1_545 S
C383 H410 0.931 . S
C384 C379 1.356 . S
C384 C383 1.409 1_565 S
C384 H411 0.930 . S
C385 O398 1.270 . S
C385 O399 1.248 . S
C386 O400 1.267 . S
C386 O401 1.278 . S
C387 Pr377 2.880 . S
C387 C388 1.491 . S
C387 O402 1.254 . S
C387 O403 1.225 . S
C388 C387 1.491 . S
C388 C389 1.392 . S
C388 C393 1.356 . S
C389 C388 1.392 . S
C389 C390 1.368 . S
C389 H412 0.929 . S
C390 C389 1.368 . S
C390 C391 1.386 . S
C390 H413 0.929 . S
C391 C390 1.386 . S
C391 C392 1.373 . S
C392 C391 1.373 . S
C392 C393 1.409 . S
C392 H414 0.931 . S
C393 C388 1.356 . S
C393 C392 1.409 . S
C393 H415 0.930 . S
C394 O404 1.270 . S
C394 O405 1.248 . S
C395 O406 1.267 . S
C395 O407 1.278 . S
O396 Pr376 2.562 . S
O396 C378 1.254 . S
O397 Pr376 2.490 . S
O397 C378 1.225 . S
O398 Pr376 2.695 . S
O398 Pr377 2.436 . S
O398 C385 1.270 . S
O399 Pr376 2.512 . S
O399 C385 1.248 . S
O400 Pr377 2.438 . S
O400 C386 1.267 . S
O401 Pr376 2.437 . S
O401 C386 1.278 . S
O402 Pr377 2.562 . S
O402 C387 1.254 . S
O403 Pr377 2.490 . S
O403 C387 1.225 . S
O404 Pr376 2.436 . S
O404 Pr377 2.695 . S
O404 C394 1.270 . S
O405 Pr377 2.512 . S
O405 C394 1.248 . S
O406 Pr376 2.438 . S
O406 C395 1.267 . S
O407 Pr377 2.437 . S
O407 C395 1.278 . S
H408 C380 0.929 . S
H409 C381 0.929 . S
H410 C383 0.931 . S
H411 C384 0.930 . S
H412 C389 0.929 . S
H413 C390 0.929 . S
H414 C392 0.931 . S
H415 C393 0.930 . S
Pr416 C418 2.880 . S
Pr416 O436 2.562 . S
Pr416 O437 2.490 . S
Pr416 O438 2.695 . S
Pr416 O439 2.512 . S
Pr416 O441 2.437 . S
Pr416 O444 2.436 . S
Pr416 O446 2.438 . S
Pr417 C427 2.880 . S
Pr417 O438 2.436 . S
Pr417 O440 2.438 . S
Pr417 O442 2.562 . S
Pr417 O443 2.490 . S
Pr417 O444 2.695 . S
Pr417 O445 2.512 . S
Pr417 O447 2.437 . S
C418 Pr416 2.880 . S
C418 C419 1.491 . S
C418 O436 1.254 . S
C418 O437 1.225 . S
C419 C418 1.491 . S
C419 C420 1.392 . S
C419 C424 1.356 . S
C420 C419 1.392 . S
C420 C421 1.368 . S
C420 H448 0.929 . S
C421 C420 1.368 . S
C421 C422 1.386 . S
C421 H449 0.929 . S
C422 C421 1.386 . S
C422 C423 1.373 . S
C423 C422 1.373 . S
C423 C424 1.409 . S
C423 H450 0.931 1_545 S
C424 C419 1.356 . S
C424 C423 1.409 . S
C424 H451 0.930 . S
C425 O438 1.270 . S
C425 O439 1.248 . S
C426 O440 1.267 . S
C426 O441 1.278 . S
C427 Pr417 2.880 . S
C427 C428 1.491 . S
C427 O442 1.254 . S
C427 O443 1.225 . S
C428 C427 1.491 . S
C428 C429 1.392 . S
C428 C433 1.356 . S
C429 C428 1.392 . S
C429 C430 1.368 . S
C429 H452 0.929 . S
C430 C429 1.368 . S
C430 C431 1.386 . S
C430 H453 0.929 . S
C431 C430 1.386 . S
C431 C432 1.373 . S
C432 C431 1.373 . S
C432 C433 1.409 . S
C432 H454 0.931 . S
C433 C428 1.356 . S
C433 C432 1.409 . S
C433 H455 0.930 . S
C434 O444 1.270 . S
C434 O445 1.248 . S
C435 O446 1.267 . S
C435 O447 1.278 . S
O436 Pr416 2.562 . S
O436 C418 1.254 . S
O437 Pr416 2.490 . S
O437 C418 1.225 . S
O438 Pr416 2.695 . S
O438 Pr417 2.436 . S
O438 C425 1.270 . S
O439 Pr416 2.512 . S
O439 C425 1.248 . S
O440 Pr417 2.438 . S
O440 C426 1.267 . S
O441 Pr416 2.437 . S
O441 C426 1.278 . S
O442 Pr417 2.562 . S
O442 C427 1.254 . S
O443 Pr417 2.490 . S
O443 C427 1.225 . S
O444 Pr416 2.436 . S
O444 Pr417 2.695 . S
O444 C434 1.270 . S
O445 Pr417 2.512 . S
O445 C434 1.248 . S
O446 Pr416 2.438 . S
O446 C435 1.267 . S
O447 Pr417 2.437 . S
O447 C435 1.278 . S
H448 C420 0.929 . S
H449 C421 0.929 . S
H450 C423 0.931 1_565 S
H451 C424 0.930 . S
H452 C429 0.929 . S
H453 C430 0.929 . S
H454 C432 0.931 . S
H455 C433 0.930 . S
Pr456 C458 2.880 . S
Pr456 O476 2.562 . S
Pr456 O477 2.490 . S
Pr456 O478 2.695 . S
Pr456 O479 2.512 . S
Pr456 O481 2.437 . S
Pr456 O484 2.436 . S
Pr456 O486 2.438 . S
Pr457 C467 2.880 . S
Pr457 O478 2.436 . S
Pr457 O480 2.438 . S
Pr457 O482 2.562 . S
Pr457 O483 2.490 . S
Pr457 O484 2.695 . S
Pr457 O485 2.512 . S
Pr457 O487 2.437 . S
C458 Pr456 2.880 . S
C458 C459 1.491 . S
C458 O476 1.254 . S
C458 O477 1.225 . S
C459 C458 1.491 . S
C459 C460 1.392 . S
C459 C464 1.356 . S
C460 C459 1.392 . S
C460 C461 1.368 . S
C460 H488 0.929 . S
C461 C460 1.368 . S
C461 C462 1.386 . S
C461 H489 0.929 . S
C462 C461 1.386 . S
C462 C463 1.373 . S
C463 C462 1.373 . S
C463 C464 1.409 . S
C463 H490 0.931 . S
C464 C459 1.356 . S
C464 C463 1.409 . S
C464 H491 0.930 . S
C465 O478 1.270 . S
C465 O479 1.248 . S
C466 O480 1.267 . S
C466 O481 1.278 . S
C467 Pr457 2.880 . S
C467 C468 1.491 . S
C467 O482 1.254 . S
C467 O483 1.225 . S
C468 C467 1.491 . S
C468 C469 1.392 . S
C468 C473 1.356 . S
C469 C468 1.392 . S
C469 C470 1.368 . S
C469 H492 0.929 . S
C470 C469 1.368 . S
C470 C471 1.386 . S
C470 H493 0.929 . S
C471 C470 1.386 . S
C471 C472 1.373 . S
C472 C471 1.373 . S
C472 C473 1.409 . S
C472 H494 0.931 . S
C473 C468 1.356 . S
C473 C472 1.409 . S
C473 H495 0.930 . S
C474 O484 1.270 . S
C474 O485 1.248 . S
C475 O486 1.267 . S
C475 O487 1.278 . S
O476 Pr456 2.562 . S
O476 C458 1.254 . S
O477 Pr456 2.490 . S
O477 C458 1.225 . S
O478 Pr456 2.695 . S
O478 Pr457 2.436 . S
O478 C465 1.270 . S
O479 Pr456 2.512 . S
O479 C465 1.248 . S
O480 Pr457 2.438 . S
O480 C466 1.267 . S
O481 Pr456 2.437 . S
O481 C466 1.278 . S
O482 Pr457 2.562 . S
O482 C467 1.254 . S
O483 Pr457 2.490 . S
O483 C467 1.225 . S
O484 Pr456 2.436 . S
O484 Pr457 2.695 . S
O484 C474 1.270 . S
O485 Pr457 2.512 . S
O485 C474 1.248 . S
O486 Pr456 2.438 . S
O486 C475 1.267 . S
O487 Pr457 2.437 . S
O487 C475 1.278 . S
H488 C460 0.929 . S
H489 C461 0.929 . S
H490 C463 0.931 . S
H491 C464 0.930 . S
H492 C469 0.929 . S
H493 C470 0.929 . S
H494 C472 0.931 . S
H495 C473 0.930 . S
Pr496 C498 2.880 . S
Pr496 O516 2.562 . S
Pr496 O517 2.490 . S
Pr496 O518 2.695 . S
Pr496 O519 2.512 . S
Pr496 O521 2.437 . S
Pr496 O524 2.436 . S
Pr496 O526 2.438 . S
Pr497 C507 2.880 . S
Pr497 O518 2.436 . S
Pr497 O520 2.438 . S
Pr497 O522 2.562 . S
Pr497 O523 2.490 . S
Pr497 O524 2.695 . S
Pr497 O525 2.512 . S
Pr497 O527 2.437 . S
C498 Pr496 2.880 . S
C498 C499 1.491 . S
C498 O516 1.254 . S
C498 O517 1.225 . S
C499 C498 1.491 . S
C499 C500 1.392 . S
C499 C504 1.356 1_455 S
C500 C499 1.392 . S
C500 C501 1.368 . S
C500 H528 0.929 . S
C501 C500 1.368 . S
C501 C502 1.386 1_455 S
C501 H529 0.929 . S
C502 C501 1.386 1_655 S
C502 C503 1.373 . S
C503 C502 1.373 . S
C503 C504 1.409 . S
C503 H530 0.931 . S
C504 C499 1.356 1_655 S
C504 C503 1.409 . S
C504 H531 0.930 . S
C505 O518 1.270 . S
C505 O519 1.248 . S
C506 O520 1.267 . S
C506 O521 1.278 . S
C507 Pr497 2.880 . S
C507 C508 1.491 . S
C507 O522 1.254 . S
C507 O523 1.225 . S
C508 C507 1.491 . S
C508 C509 1.392 . S
C508 C513 1.356 . S
C509 C508 1.392 . S
C509 C510 1.368 . S
C509 H532 0.929 . S
C510 C509 1.368 . S
C510 C511 1.386 . S
C510 H533 0.929 . S
C511 C510 1.386 . S
C511 C512 1.373 . S
C512 C511 1.373 . S
C512 C513 1.409 . S
C512 H534 0.931 . S
C513 C508 1.356 . S
C513 C512 1.409 . S
C513 H535 0.930 . S
C514 O524 1.270 . S
C514 O525 1.248 . S
C515 O526 1.267 . S
C515 O527 1.278 . S
O516 Pr496 2.562 . S
O516 C498 1.254 . S
O517 Pr496 2.490 . S
O517 C498 1.225 . S
O518 Pr496 2.695 . S
O518 Pr497 2.436 . S
O518 C505 1.270 . S
O519 Pr496 2.512 . S
O519 C505 1.248 . S
O520 Pr497 2.438 . S
O520 C506 1.267 . S
O521 Pr496 2.437 . S
O521 C506 1.278 . S
O522 Pr497 2.562 . S
O522 C507 1.254 . S
O523 Pr497 2.490 . S
O523 C507 1.225 . S
O524 Pr496 2.436 . S
O524 Pr497 2.695 . S
O524 C514 1.270 . S
O525 Pr497 2.512 . S
O525 C514 1.248 . S
O526 Pr496 2.438 . S
O526 C515 1.267 . S
O527 Pr497 2.437 . S
O527 C515 1.278 . S
H528 C500 0.929 . S
H529 C501 0.929 . S
H530 C503 0.931 . S
H531 C504 0.930 . S
H532 C509 0.929 . S
H533 C510 0.929 . S
H534 C512 0.931 . S
H535 C513 0.930 . S
Pr536 C538 2.880 . S
Pr536 O556 2.562 . S
Pr536 O557 2.490 . S
Pr536 O558 2.695 . S
Pr536 O559 2.512 . S
Pr536 O561 2.437 . S
Pr536 O564 2.436 . S
Pr536 O566 2.438 . S
Pr537 C547 2.880 . S
Pr537 O558 2.436 . S
Pr537 O560 2.438 . S
Pr537 O562 2.562 . S
Pr537 O563 2.490 . S
Pr537 O564 2.695 . S
Pr537 O565 2.512 . S
Pr537 O567 2.437 . S
C538 Pr536 2.880 . S
C538 C539 1.491 . S
C538 O556 1.254 . S
C538 O557 1.225 . S
C539 C538 1.491 . S
C539 C540 1.392 . S
C539 C544 1.356 . S
C540 C539 1.392 . S
C540 C541 1.368 . S
C540 H568 0.929 . S
C541 C540 1.368 . S
C541 C542 1.386 . S
C541 H569 0.929 . S
C542 C541 1.386 . S
C542 C543 1.373 . S
C543 C542 1.373 . S
C543 C544 1.409 . S
C543 H570 0.931 . S
C544 C539 1.356 . S
C544 C543 1.409 . S
C544 H571 0.930 . S
C545 O558 1.270 . S
C545 O559 1.248 . S
C546 O560 1.267 . S
C546 O561 1.278 . S
C547 Pr537 2.880 . S
C547 C548 1.491 . S
C547 O562 1.254 . S
C547 O563 1.225 . S
C548 C547 1.491 . S
C548 C549 1.392 . S
C548 C553 1.356 . S
C549 C548 1.392 . S
C549 C550 1.368 1_565 S
C549 H572 0.929 . S
C550 C549 1.368 1_545 S
C550 C551 1.386 . S
C550 H573 0.929 . S
C551 C550 1.386 . S
C551 C552 1.373 . S
C552 C551 1.373 . S
C552 C553 1.409 1_545 S
C552 H574 0.931 . S
C553 C548 1.356 . S
C553 C552 1.409 1_565 S
C553 H575 0.930 . S
C554 O564 1.270 . S
C554 O565 1.248 . S
C555 O566 1.267 . S
C555 O567 1.278 . S
O556 Pr536 2.562 . S
O556 C538 1.254 . S
O557 Pr536 2.490 . S
O557 C538 1.225 . S
O558 Pr536 2.695 . S
O558 Pr537 2.436 . S
O558 C545 1.270 . S
O559 Pr536 2.512 . S
O559 C545 1.248 . S
O560 Pr537 2.438 . S
O560 C546 1.267 . S
O561 Pr536 2.437 . S
O561 C546 1.278 . S
O562 Pr537 2.562 . S
O562 C547 1.254 . S
O563 Pr537 2.490 . S
O563 C547 1.225 . S
O564 Pr536 2.436 . S
O564 Pr537 2.695 . S
O564 C554 1.270 . S
O565 Pr537 2.512 . S
O565 C554 1.248 . S
O566 Pr536 2.438 . S
O566 C555 1.267 . S
O567 Pr537 2.437 . S
O567 C555 1.278 . S
H568 C540 0.929 . S
H569 C541 0.929 . S
H570 C543 0.931 . S
H571 C544 0.930 . S
H572 C549 0.929 . S
H573 C550 0.929 . S
H574 C552 0.931 . S
H575 C553 0.930 . S
Pr576 C578 2.880 . S
Pr576 O596 2.562 . S
Pr576 O597 2.490 . S
Pr576 O598 2.695 . S
Pr576 O599 2.512 . S
Pr576 O601 2.437 . S
Pr576 O604 2.436 . S
Pr576 O606 2.438 . S
Pr577 C587 2.880 . S
Pr577 O598 2.436 1_556 S
Pr577 O600 2.438 1_556 S
Pr577 O602 2.562 . S
Pr577 O603 2.490 . S
Pr577 O604 2.695 1_556 S
Pr577 O605 2.512 1_556 S
Pr577 O607 2.435 1_556 S
C578 Pr576 2.880 . S
C578 C579 1.491 . S
C578 O596 1.254 . S
C578 O597 1.225 . S
C579 C578 1.491 . S
C579 C580 1.392 . S
C579 C584 1.356 . S
C580 C579 1.392 . S
C580 C581 1.368 . S
C580 H608 0.929 . S
C581 C580 1.368 . S
C581 C582 1.386 . S
C581 H609 0.929 . S
C582 C581 1.386 . S
C582 C583 1.373 . S
C583 C582 1.373 . S
C583 C584 1.409 . S
C583 H610 0.931 . S
C584 C579 1.356 . S
C584 C583 1.409 . S
C584 H611 0.930 . S
C585 O598 1.270 . S
C585 O599 1.248 . S
C586 O600 1.267 . S
C586 O601 1.278 . S
C587 Pr577 2.880 . S
C587 C588 1.491 . S
C587 O602 1.254 . S
C587 O603 1.225 . S
C588 C587 1.491 . S
C588 C589 1.392 . S
C588 C593 1.356 . S
C589 C588 1.392 . S
C589 C590 1.368 . S
C589 H612 0.929 . S
C590 C589 1.368 . S
C590 C591 1.386 . S
C590 H613 0.929 . S
C591 C590 1.386 . S
C591 C592 1.373 . S
C592 C591 1.373 . S
C592 C593 1.409 . S
C592 H614 0.931 . S
C593 C588 1.356 . S
C593 C592 1.409 . S
C593 H615 0.930 . S
C594 O604 1.270 . S
C594 O605 1.248 . S
C595 O606 1.267 . S
C595 O607 1.288 . S
O596 Pr576 2.562 . S
O596 C578 1.254 . S
O597 Pr576 2.490 . S
O597 C578 1.225 . S
O598 Pr576 2.695 . S
O598 Pr577 2.436 1_554 S
O598 C585 1.270 . S
O599 Pr576 2.512 . S
O599 C585 1.248 . S
O600 Pr577 2.438 1_554 S
O600 C586 1.267 . S
O601 Pr576 2.437 . S
O601 C586 1.278 . S
O602 Pr577 2.562 . S
O602 C587 1.254 . S
O603 Pr577 2.490 . S
O603 C587 1.225 . S
O604 Pr576 2.436 . S
O604 Pr577 2.695 1_554 S
O604 C594 1.270 . S
O605 Pr577 2.512 1_554 S
O605 C594 1.248 . S
O606 Pr576 2.438 . S
O606 C595 1.267 . S
O607 Pr577 2.435 1_554 S
O607 C595 1.288 . S
H608 C580 0.929 . S
H609 C581 0.929 . S
H610 C583 0.931 . S
H611 C584 0.930 . S
H612 C589 0.929 . S
H613 C590 0.929 . S
H614 C592 0.931 . S
H615 C593 0.930 . S
Pr616 C618 2.880 . S
Pr616 O636 2.562 . S
Pr616 O637 2.490 . S
Pr616 O638 2.695 . S
Pr616 O639 2.512 . S
Pr616 O641 2.437 . S
Pr616 O644 2.436 . S
Pr616 O646 2.438 . S
Pr617 C627 2.880 . S
Pr617 O638 2.436 . S
Pr617 O640 2.438 . S
Pr617 O642 2.562 . S
Pr617 O643 2.490 . S
Pr617 O644 2.695 . S
Pr617 O645 2.512 . S
Pr617 O647 2.437 . S
C618 Pr616 2.880 . S
C618 C619 1.491 . S
C618 O636 1.254 . S
C618 O637 1.225 . S
C619 C618 1.491 . S
C619 C620 1.392 . S
C619 C624 1.356 . S
C620 C619 1.392 . S
C620 C621 1.368 . S
C620 H648 0.929 . S
C621 C620 1.368 . S
C621 C622 1.386 . S
C621 H649 0.929 . S
C622 C621 1.386 . S
C622 C623 1.373 . S
C623 C622 1.373 . S
C623 C624 1.409 . S
C623 H650 0.931 . S
C624 C619 1.356 . S
C624 C623 1.409 . S
C624 H651 0.930 . S
C625 O638 1.270 . S
C625 O639 1.248 . S
C626 O640 1.267 . S
C626 O641 1.278 . S
C627 Pr617 2.880 . S
C627 C628 1.491 . S
C627 O642 1.254 . S
C627 O643 1.225 . S
C628 C627 1.491 . S
C628 C629 1.392 . S
C628 C633 1.356 . S
C629 C628 1.392 . S
C629 C630 1.368 . S
C629 H652 0.929 . S
C630 C629 1.368 . S
C630 C631 1.386 . S
C630 H653 0.929 . S
C631 C630 1.386 . S
C631 C632 1.373 . S
C632 C631 1.373 . S
C632 C633 1.409 . S
C632 H654 0.931 . S
C633 C628 1.356 . S
C633 C632 1.409 . S
C633 H655 0.930 . S
C634 O644 1.270 . S
C634 O645 1.248 . S
C635 O646 1.267 . S
C635 O647 1.278 . S
O636 Pr616 2.562 . S
O636 C618 1.254 . S
O637 Pr616 2.490 . S
O637 C618 1.225 . S
O638 Pr616 2.695 . S
O638 Pr617 2.436 . S
O638 C625 1.270 . S
O639 Pr616 2.512 . S
O639 C625 1.248 . S
O640 Pr617 2.438 . S
O640 C626 1.267 . S
O641 Pr616 2.437 . S
O641 C626 1.278 . S
O642 Pr617 2.562 . S
O642 C627 1.254 . S
O643 Pr617 2.490 . S
O643 C627 1.225 . S
O644 Pr616 2.436 . S
O644 Pr617 2.695 . S
O644 C634 1.270 . S
O645 Pr617 2.512 . S
O645 C634 1.248 . S
O646 Pr616 2.438 . S
O646 C635 1.267 . S
O647 Pr617 2.437 . S
O647 C635 1.278 . S
H648 C620 0.929 . S
H649 C621 0.929 . S
H650 C623 0.931 . S
H651 C624 0.930 . S
H652 C629 0.929 . S
H653 C630 0.929 . S
H654 C632 0.931 . S
H655 C633 0.930 . S
Pr656 C658 2.880 . S
Pr656 O676 2.562 . S
Pr656 O677 2.490 . S
Pr656 O678 2.695 1_556 S
Pr656 O679 2.512 . S
Pr656 O681 2.437 . S
Pr656 O684 2.436 1_556 S
Pr656 O686 2.438 1_556 S
Pr657 C667 2.880 . S
Pr657 O678 2.436 . S
Pr657 O680 2.438 . S
Pr657 O682 2.562 . S
Pr657 O683 2.490 . S
Pr657 O684 2.695 . S
Pr657 O685 2.512 . S
Pr657 O687 2.437 . S
C658 Pr656 2.880 . S
C658 C659 1.491 . S
C658 O676 1.254 . S
C658 O677 1.225 . S
C659 C658 1.491 . S
C659 C660 1.392 . S
C659 C664 1.356 . S
C660 C659 1.392 . S
C660 C661 1.368 . S
C660 H688 0.929 . S
C661 C660 1.368 . S
C661 C662 1.386 . S
C661 H689 0.929 . S
C662 C661 1.386 . S
C662 C663 1.373 . S
C663 C662 1.373 . S
C663 C664 1.409 . S
C663 H690 0.931 . S
C664 C659 1.356 . S
C664 C663 1.409 . S
C664 H691 0.930 . S
C665 O678 1.270 . S
C665 O679 1.248 1_554 S
C666 O680 1.268 1_556 S
C666 O681 1.277 . S
C667 Pr657 2.880 . S
C667 C668 1.491 . S
C667 O682 1.254 . S
C667 O683 1.225 . S
C668 C667 1.491 . S
C668 C669 1.392 . S
C668 C673 1.356 . S
C669 C668 1.392 . S
C669 C670 1.368 . S
C669 H692 0.929 . S
C670 C669 1.368 . S
C670 C671 1.386 . S
C670 H693 0.929 . S
C671 C670 1.386 . S
C671 C672 1.373 . S
C672 C671 1.373 . S
C672 C673 1.409 . S
C672 H694 0.931 . S
C673 C668 1.356 . S
C673 C672 1.409 . S
C673 H695 0.930 . S
C674 O684 1.270 . S
C674 O685 1.248 . S
C675 O686 1.267 . S
C675 O687 1.278 . S
O676 Pr656 2.562 . S
O676 C658 1.254 . S
O677 Pr656 2.490 . S
O677 C658 1.225 . S
O678 Pr656 2.695 1_554 S
O678 Pr657 2.436 . S
O678 C665 1.270 . S
O679 Pr656 2.512 . S
O679 C665 1.248 1_556 S
O680 Pr657 2.438 . S
O680 C666 1.268 1_554 S
O681 Pr656 2.437 . S
O681 C666 1.277 . S
O682 Pr657 2.562 . S
O682 C667 1.254 . S
O683 Pr657 2.490 . S
O683 C667 1.225 . S
O684 Pr656 2.436 1_554 S
O684 Pr657 2.695 . S
O684 C674 1.270 . S
O685 Pr657 2.512 . S
O685 C674 1.248 . S
O686 Pr656 2.438 1_554 S
O686 C675 1.267 . S
O687 Pr657 2.437 . S
O687 C675 1.278 . S
H688 C660 0.929 . S
H689 C661 0.929 . S
H690 C663 0.931 . S
H691 C664 0.930 . S
H692 C669 0.929 . S
H693 C670 0.929 . S
H694 C672 0.931 . S
H695 C673 0.930 . S
Pr696 C698 2.880 . S
Pr696 O716 2.562 . S
Pr696 O717 2.490 . S
Pr696 O718 2.695 . S
Pr696 O719 2.512 . S
Pr696 O721 2.437 . S
Pr696 O724 2.436 . S
Pr696 O726 2.438 . S
Pr697 C707 2.880 . S
Pr697 O718 2.436 . S
Pr697 O720 2.438 . S
Pr697 O722 2.562 . S
Pr697 O723 2.490 . S
Pr697 O724 2.695 . S
Pr697 O725 2.512 . S
Pr697 O727 2.437 . S
C698 Pr696 2.880 . S
C698 C699 1.491 . S
C698 O716 1.254 . S
C698 O717 1.225 . S
C699 C698 1.491 . S
C699 C700 1.392 . S
C699 C704 1.356 . S
C700 C699 1.392 . S
C700 C701 1.368 . S
C700 H728 0.929 . S
C701 C700 1.368 . S
C701 C702 1.386 . S
C701 H729 0.929 . S
C702 C701 1.386 . S
C702 C703 1.373 . S
C703 C702 1.373 . S
C703 C704 1.409 . S
C703 H730 0.931 . S
C704 C699 1.356 . S
C704 C703 1.409 . S
C704 H731 0.930 . S
C705 O718 1.270 . S
C705 O719 1.248 . S
C706 O720 1.267 . S
C706 O721 1.278 . S
C707 Pr697 2.880 . S
C707 C708 1.491 . S
C707 O722 1.254 . S
C707 O723 1.225 . S
C708 C707 1.491 . S
C708 C709 1.392 . S
C708 C713 1.356 . S
C709 C708 1.392 . S
C709 C710 1.368 . S
C709 H732 0.929 . S
C710 C709 1.368 . S
C710 C711 1.386 . S
C710 H733 0.929 . S
C711 C710 1.386 . S
C711 C712 1.373 . S
C712 C711 1.373 . S
C712 C713 1.409 . S
C712 H734 0.931 . S
C713 C708 1.356 . S
C713 C712 1.409 . S
C713 H735 0.930 . S
C714 O724 1.270 . S
C714 O725 1.248 . S
C715 O726 1.267 . S
C715 O727 1.278 . S
O716 Pr696 2.562 . S
O716 C698 1.254 . S
O717 Pr696 2.490 . S
O717 C698 1.225 . S
O718 Pr696 2.695 . S
O718 Pr697 2.436 . S
O718 C705 1.270 . S
O719 Pr696 2.512 . S
O719 C705 1.248 . S
O720 Pr697 2.438 . S
O720 C706 1.267 . S
O721 Pr696 2.437 . S
O721 C706 1.278 . S
O722 Pr697 2.562 . S
O722 C707 1.254 . S
O723 Pr697 2.490 . S
O723 C707 1.225 . S
O724 Pr696 2.436 . S
O724 Pr697 2.695 . S
O724 C714 1.270 . S
O725 Pr697 2.512 . S
O725 C714 1.248 . S
O726 Pr696 2.438 . S
O726 C715 1.267 . S
O727 Pr697 2.437 . S
O727 C715 1.278 . S
H728 C700 0.929 . S
H729 C701 0.929 . S
H730 C703 0.931 . S
H731 C704 0.930 . S
H732 C709 0.929 . S
H733 C710 0.929 . S
H734 C712 0.931 . S
H735 C713 0.930 . S
Pr736 C738 2.880 . S
Pr736 O756 2.562 . S
Pr736 O757 2.490 . S
Pr736 O758 2.695 . S
Pr736 O759 2.512 . S
Pr736 O761 2.437 . S
Pr736 O764 2.436 . S
Pr736 O766 2.438 . S
Pr737 C747 2.880 . S
Pr737 O758 2.436 . S
Pr737 O760 2.438 . S
Pr737 O762 2.562 . S
Pr737 O763 2.490 . S
Pr737 O764 2.695 . S
Pr737 O765 2.512 . S
Pr737 O767 2.437 . S
C738 Pr736 2.880 . S
C738 C739 1.491 . S
C738 O756 1.254 . S
C738 O757 1.225 . S
C739 C738 1.491 . S
C739 C740 1.392 . S
C739 C744 1.356 . S
C740 C739 1.392 . S
C740 C741 1.368 . S
C740 H768 0.929 . S
C741 C740 1.368 . S
C741 C742 1.386 . S
C741 H769 0.929 . S
C742 C741 1.386 . S
C742 C743 1.373 . S
C743 C742 1.373 . S
C743 C744 1.409 . S
C743 H770 0.917 1_455 S
C744 C739 1.356 . S
C744 C743 1.409 . S
C744 H771 0.930 . S
C745 O758 1.270 . S
C745 O759 1.248 . S
C746 O760 1.267 . S
C746 O761 1.278 . S
C747 Pr737 2.880 . S
C747 C748 1.491 . S
C747 O762 1.254 . S
C747 O763 1.225 . S
C748 C747 1.491 . S
C748 C749 1.392 . S
C748 C753 1.356 . S
C749 C748 1.392 . S
C749 C750 1.368 . S
C749 H772 0.929 . S
C750 C749 1.368 . S
C750 C751 1.386 . S
C750 H773 0.929 . S
C751 C750 1.386 . S
C751 C752 1.373 . S
C752 C751 1.373 . S
C752 C753 1.409 . S
C752 H774 0.931 . S
C753 C748 1.356 . S
C753 C752 1.409 . S
C753 H775 0.930 . S
C754 O764 1.270 . S
C754 O765 1.248 . S
C755 O766 1.267 . S
C755 O767 1.278 . S
O756 Pr736 2.562 . S
O756 C738 1.254 . S
O757 Pr736 2.490 . S
O757 C738 1.225 . S
O758 Pr736 2.695 . S
O758 Pr737 2.436 . S
O758 C745 1.270 . S
O759 Pr736 2.512 . S
O759 C745 1.248 . S
O760 Pr737 2.438 . S
O760 C746 1.267 . S
O761 Pr736 2.437 . S
O761 C746 1.278 . S
O762 Pr737 2.562 . S
O762 C747 1.254 . S
O763 Pr737 2.490 . S
O763 C747 1.225 . S
O764 Pr736 2.436 . S
O764 Pr737 2.695 . S
O764 C754 1.270 . S
O765 Pr737 2.512 . S
O765 C754 1.248 . S
O766 Pr736 2.438 . S
O766 C755 1.267 . S
O767 Pr737 2.437 . S
O767 C755 1.278 . S
H768 C740 0.929 . S
H769 C741 0.929 . S
H770 C743 0.917 1_655 S
H771 C744 0.930 . S
H772 C749 0.929 . S
H773 C750 0.929 . S
H774 C752 0.931 . S
H775 C753 0.930 . S
Pr776 C778 2.880 . S
Pr776 O796 2.562 . S
Pr776 O797 2.490 . S
Pr776 O798 2.695 . S
Pr776 O799 2.512 . S
Pr776 O801 2.437 . S
Pr776 O804 2.436 . S
Pr776 O806 2.438 . S
Pr777 C787 2.880 . S
Pr777 O798 2.436 . S
Pr777 O800 2.438 . S
Pr777 O802 2.562 . S
Pr777 O803 2.490 . S
Pr777 O804 2.695 . S
Pr777 O805 2.512 . S
Pr777 O807 2.437 . S
C778 Pr776 2.880 . S
C778 C779 1.491 . S
C778 O796 1.254 . S
C778 O797 1.225 . S
C779 C778 1.491 . S
C779 C780 1.392 . S
C779 C784 1.356 . S
C780 C779 1.392 . S
C780 C781 1.368 . S
C780 H808 0.929 . S
C781 C780 1.368 . S
C781 C782 1.386 . S
C781 H809 0.929 . S
C782 C781 1.386 . S
C782 C783 1.373 . S
C783 C782 1.373 . S
C783 C784 1.409 . S
C783 H810 0.931 . S
C784 C779 1.356 . S
C784 C783 1.409 . S
C784 H811 0.930 . S
C785 O798 1.270 . S
C785 O799 1.248 . S
C786 O800 1.267 . S
C786 O801 1.278 . S
C787 Pr777 2.880 . S
C787 C788 1.491 . S
C787 O802 1.254 . S
C787 O803 1.225 . S
C788 C787 1.491 . S
C788 C789 1.392 . S
C788 C793 1.356 . S
C789 C788 1.392 . S
C789 C790 1.368 . S
C789 H812 0.929 . S
C790 C789 1.368 . S
C790 C791 1.386 . S
C790 H813 0.929 . S
C791 C790 1.386 . S
C791 C792 1.373 . S
C792 C791 1.373 . S
C792 C793 1.409 . S
C792 H814 0.931 . S
C793 C788 1.356 . S
C793 C792 1.409 . S
C793 H815 0.930 . S
C794 O804 1.270 . S
C794 O805 1.248 . S
C795 O806 1.267 . S
C795 O807 1.278 . S
O796 Pr776 2.562 . S
O796 C778 1.254 . S
O797 Pr776 2.490 . S
O797 C778 1.225 . S
O798 Pr776 2.695 . S
O798 Pr777 2.436 . S
O798 C785 1.270 . S
O799 Pr776 2.512 . S
O799 C785 1.248 . S
O800 Pr777 2.438 . S
O800 C786 1.267 . S
O801 Pr776 2.437 . S
O801 C786 1.278 . S
O802 Pr777 2.562 . S
O802 C787 1.254 . S
O803 Pr777 2.490 . S
O803 C787 1.225 . S
O804 Pr776 2.436 . S
O804 Pr777 2.695 . S
O804 C794 1.270 . S
O805 Pr777 2.512 . S
O805 C794 1.248 . S
O806 Pr776 2.438 . S
O806 C795 1.267 . S
O807 Pr777 2.437 . S
O807 C795 1.278 . S
H808 C780 0.929 . S
H809 C781 0.929 . S
H810 C783 0.931 . S
H811 C784 0.930 . S
H812 C789 0.929 . S
H813 C790 0.929 . S
H814 C792 0.931 . S
H815 C793 0.930 . S
Pr816 C818 2.880 . S
Pr816 O836 2.562 . S
Pr816 O837 2.490 . S
Pr816 O838 2.695 . S
Pr816 O839 2.512 . S
Pr816 O841 2.437 . S
Pr816 O844 2.436 . S
Pr816 O846 2.438 . S
Pr817 C827 2.880 . S
Pr817 O838 2.436 . S
Pr817 O840 2.438 . S
Pr817 O842 2.562 . S
Pr817 O843 2.490 . S
Pr817 O844 2.695 . S
Pr817 O845 2.512 . S
Pr817 O847 2.437 . S
C818 Pr816 2.880 . S
C818 C819 1.491 . S
C818 O836 1.254 . S
C818 O837 1.225 . S
C819 C818 1.491 . S
C819 C820 1.392 . S
C819 C824 1.356 . S
C820 C819 1.392 . S
C820 C821 1.368 . S
C820 H848 0.929 . S
C821 C820 1.368 . S
C821 C822 1.386 . S
C821 H849 0.929 . S
C822 C821 1.386 . S
C822 C823 1.373 . S
C823 C822 1.373 . S
C823 C824 1.409 . S
C823 H850 0.931 . S
C824 C819 1.356 . S
C824 C823 1.409 . S
C824 H851 0.930 . S
C825 O838 1.270 . S
C825 O839 1.248 . S
C826 O840 1.267 . S
C826 O841 1.278 . S
C827 Pr817 2.880 . S
C827 C828 1.491 . S
C827 O842 1.254 . S
C827 O843 1.225 . S
C828 C827 1.491 . S
C828 C829 1.392 . S
C828 C833 1.356 . S
C829 C828 1.392 . S
C829 C830 1.368 . S
C829 H852 0.929 . S
C830 C829 1.368 . S
C830 C831 1.386 . S
C830 H853 0.929 . S
C831 C830 1.386 . S
C831 C832 1.373 . S
C832 C831 1.373 . S
C832 C833 1.409 . S
C832 H854 0.931 . S
C833 C828 1.356 . S
C833 C832 1.409 . S
C833 H855 0.930 . S
C834 O844 1.270 . S
C834 O845 1.248 . S
C835 O846 1.267 . S
C835 O847 1.278 . S
O836 Pr816 2.562 . S
O836 C818 1.254 . S
O837 Pr816 2.490 . S
O837 C818 1.225 . S
O838 Pr816 2.695 . S
O838 Pr817 2.436 . S
O838 C825 1.270 . S
O839 Pr816 2.512 . S
O839 C825 1.248 . S
O840 Pr817 2.438 . S
O840 C826 1.267 . S
O841 Pr816 2.437 . S
O841 C826 1.278 . S
O842 Pr817 2.562 . S
O842 C827 1.254 . S
O843 Pr817 2.490 . S
O843 C827 1.225 . S
O844 Pr816 2.436 . S
O844 Pr817 2.695 . S
O844 C834 1.270 . S
O845 Pr817 2.512 . S
O845 C834 1.248 . S
O846 Pr816 2.438 . S
O846 C835 1.267 . S
O847 Pr817 2.437 . S
O847 C835 1.278 . S
H848 C820 0.929 . S
H849 C821 0.929 . S
H850 C823 0.931 . S
H851 C824 0.930 . S
H852 C829 0.929 . S
H853 C830 0.929 . S
H854 C832 0.931 . S
H855 C833 0.930 . S
Pr856 C858 2.880 . S
Pr856 O876 2.562 . S
Pr856 O877 2.490 . S
Pr856 O878 2.695 . S
Pr856 O879 2.512 . S
Pr856 O881 2.437 . S
Pr856 O884 2.436 . S
Pr856 O886 2.438 . S
Pr857 C867 2.880 . S
Pr857 O878 2.436 . S
Pr857 O880 2.438 . S
Pr857 O882 2.562 . S
Pr857 O883 2.490 . S
Pr857 O884 2.695 . S
Pr857 O885 2.512 . S
Pr857 O887 2.437 . S
C858 Pr856 2.880 . S
C858 C859 1.491 . S
C858 O876 1.254 . S
C858 O877 1.225 . S
C859 C858 1.491 . S
C859 C860 1.392 . S
C859 C864 1.356 . S
C860 C859 1.392 . S
C860 C861 1.368 . S
C860 H888 0.929 . S
C861 C860 1.368 . S
C861 C862 1.386 . S
C861 H889 0.929 . S
C862 C861 1.386 . S
C862 C863 1.373 . S
C863 C862 1.373 . S
C863 C864 1.409 . S
C863 H890 0.931 . S
C864 C859 1.356 . S
C864 C863 1.409 . S
C864 H891 0.930 . S
C865 O878 1.270 . S
C865 O879 1.248 . S
C866 O880 1.267 . S
C866 O881 1.278 . S
C867 Pr857 2.880 . S
C867 C868 1.491 . S
C867 O882 1.254 . S
C867 O883 1.225 . S
C868 C867 1.491 . S
C868 C869 1.392 . S
C868 C873 1.356 . S
C869 C868 1.392 . S
C869 C870 1.368 . S
C869 H892 0.929 . S
C870 C869 1.368 . S
C870 C871 1.386 . S
C870 H893 0.929 . S
C871 C870 1.386 . S
C871 C872 1.373 . S
C872 C871 1.373 . S
C872 C873 1.409 . S
C872 H894 0.931 . S
C873 C868 1.356 . S
C873 C872 1.409 . S
C873 H895 0.930 . S
C874 O884 1.270 . S
C874 O885 1.248 . S
C875 O886 1.267 . S
C875 O887 1.278 . S
O876 Pr856 2.562 . S
O876 C858 1.254 . S
O877 Pr856 2.490 . S
O877 C858 1.225 . S
O878 Pr856 2.695 . S
O878 Pr857 2.436 . S
O878 C865 1.270 . S
O879 Pr856 2.512 . S
O879 C865 1.248 . S
O880 Pr857 2.438 . S
O880 C866 1.267 . S
O881 Pr856 2.437 . S
O881 C866 1.278 . S
O882 Pr857 2.562 . S
O882 C867 1.254 . S
O883 Pr857 2.490 . S
O883 C867 1.225 . S
O884 Pr856 2.436 . S
O884 Pr857 2.695 . S
O884 C874 1.270 . S
O885 Pr857 2.512 . S
O885 C874 1.248 . S
O886 Pr856 2.438 . S
O886 C875 1.267 . S
O887 Pr857 2.437 . S
O887 C875 1.278 . S
H888 C860 0.929 . S
H889 C861 0.929 . S
H890 C863 0.931 . S
H891 C864 0.930 . S
H892 C869 0.929 . S
H893 C870 0.929 . S
H894 C872 0.931 . S
H895 C873 0.930 . S
Pr896 C898 2.880 . S
Pr896 O916 2.562 . S
Pr896 O917 2.490 . S
Pr896 O918 2.695 . S
Pr896 O919 2.512 . S
Pr896 O921 2.437 . S
Pr896 O924 2.436 . S
Pr896 O926 2.438 . S
Pr897 C907 2.880 . S
Pr897 O918 2.436 . S
Pr897 O920 2.438 . S
Pr897 O922 2.562 . S
Pr897 O923 2.490 . S
Pr897 O924 2.695 . S
Pr897 O925 2.512 . S
Pr897 O927 2.437 . S
C898 Pr896 2.880 . S
C898 C899 1.491 . S
C898 O916 1.254 . S
C898 O917 1.225 . S
C899 C898 1.491 . S
C899 C900 1.392 . S
C899 C904 1.356 . S
C900 C899 1.392 . S
C900 C901 1.368 . S
C900 H928 0.929 . S
C901 C900 1.368 . S
C901 C902 1.386 . S
C901 H929 0.929 . S
C902 C901 1.386 . S
C902 C903 1.373 . S
C903 C902 1.373 . S
C903 C904 1.409 . S
C903 H930 0.931 . S
C904 C899 1.356 . S
C904 C903 1.409 . S
C904 H931 0.930 . S
C905 O918 1.270 . S
C905 O919 1.248 . S
C906 O920 1.267 . S
C906 O921 1.278 . S
C907 Pr897 2.880 . S
C907 C908 1.491 . S
C907 O922 1.254 . S
C907 O923 1.225 . S
C908 C907 1.491 . S
C908 C909 1.392 . S
C908 C913 1.356 . S
C909 C908 1.392 . S
C909 C910 1.368 . S
C909 H932 0.929 . S
C910 C909 1.368 . S
C910 C911 1.386 . S
C910 H933 0.929 . S
C911 C910 1.386 . S
C911 C912 1.373 . S
C912 C911 1.373 . S
C912 C913 1.409 . S
C912 H934 0.931 . S
C913 C908 1.356 . S
C913 C912 1.409 . S
C913 H935 0.930 . S
C914 O924 1.270 . S
C914 O925 1.248 . S
C915 O926 1.267 . S
C915 O927 1.278 . S
O916 Pr896 2.562 . S
O916 C898 1.254 . S
O917 Pr896 2.490 . S
O917 C898 1.225 . S
O918 Pr896 2.695 . S
O918 Pr897 2.436 . S
O918 C905 1.270 . S
O919 Pr896 2.512 . S
O919 C905 1.248 . S
O920 Pr897 2.438 . S
O920 C906 1.267 . S
O921 Pr896 2.437 . S
O921 C906 1.278 . S
O922 Pr897 2.562 . S
O922 C907 1.254 . S
O923 Pr897 2.490 . S
O923 C907 1.225 . S
O924 Pr896 2.436 . S
O924 Pr897 2.695 . S
O924 C914 1.270 . S
O925 Pr897 2.512 . S
O925 C914 1.248 . S
O926 Pr896 2.438 . S
O926 C915 1.267 . S
O927 Pr897 2.437 . S
O927 C915 1.278 . S
H928 C900 0.929 . S
H929 C901 0.929 . S
H930 C903 0.931 . S
H931 C904 0.930 . S
H932 C909 0.929 . S
H933 C910 0.929 . S
H934 C912 0.931 . S
H935 C913 0.930 . S
Pr936 C938 2.880 . S
Pr936 O956 2.562 . S
Pr936 O957 2.490 1_554 S
Pr936 O958 2.700 . S
Pr936 O959 2.512 1_554 S
Pr936 O961 2.437 1_554 S
Pr936 O964 2.436 . S
Pr936 O966 2.438 . S
Pr937 C947 2.880 1_455 S
Pr937 O958 2.451 . S
Pr937 O960 2.438 . S
Pr937 O962 2.562 1_455 S
Pr937 O963 2.490 1_455 S
Pr937 O964 2.695 . S
Pr937 O965 2.512 . S
Pr937 O967 2.437 . S
C938 Pr936 2.880 . S
C938 C939 1.491 . S
C938 O956 1.254 . S
C938 O957 1.225 1_554 S
C939 C938 1.491 . S
C939 C940 1.392 1_554 S
C939 C944 1.356 . S
C940 C939 1.392 1_556 S
C940 C941 1.368 . S
C940 H968 0.929 . S
C941 C940 1.368 . S
C941 C942 1.386 . S
C941 H969 0.929 . S
C942 C941 1.386 . S
C942 C943 1.373 1_556 S
C943 C942 1.373 1_554 S
C943 C944 1.409 . S
C943 H970 0.931 . S
C944 C939 1.356 . S
C944 C943 1.409 . S
C944 H971 0.930 . S
C945 O958 1.252 1_556 S
C945 O959 1.248 . S
C946 O960 1.252 1_556 S
C946 O961 1.290 . S
C947 Pr937 2.880 1_655 S
C947 C948 1.491 . S
C947 O962 1.254 . S
C947 O963 1.225 . S
C948 C947 1.491 . S
C948 C949 1.392 . S
C948 C953 1.356 . S
C949 C948 1.392 . S
C949 C950 1.368 . S
C949 H972 0.929 . S
C950 C949 1.368 . S
C950 C951 1.386 . S
C950 H973 0.929 . S
C951 C950 1.386 . S
C951 C952 1.373 . S
C952 C951 1.373 . S
C952 C953 1.409 . S
C952 H974 0.931 . S
C953 C948 1.356 . S
C953 C952 1.409 . S
C953 H975 0.930 . S
C954 O964 1.270 . S
C954 O965 1.248 . S
C955 O966 1.267 . S
C955 O967 1.278 . S
O956 Pr936 2.562 . S
O956 C938 1.254 . S
O957 Pr936 2.490 1_556 S
O957 C938 1.225 1_556 S
O958 Pr936 2.700 . S
O958 Pr937 2.451 . S
O958 C945 1.252 1_554 S
O959 Pr936 2.512 1_556 S
O959 C945 1.248 . S
O960 Pr937 2.438 . S
O960 C946 1.252 1_554 S
O961 Pr936 2.437 1_556 S
O961 C946 1.290 . S
O962 Pr937 2.562 1_655 S
O962 C947 1.254 . S
O963 Pr937 2.490 1_655 S
O963 C947 1.225 . S
O964 Pr936 2.436 . S
O964 Pr937 2.695 . S
O964 C954 1.270 . S
O965 Pr937 2.512 . S
O965 C954 1.248 . S
O966 Pr936 2.438 . S
O966 C955 1.267 . S
O967 Pr937 2.437 . S
O967 C955 1.278 . S
H968 C940 0.929 . S
H969 C941 0.929 . S
H970 C943 0.931 . S
H971 C944 0.930 . S
H972 C949 0.929 . S
H973 C950 0.929 . S
H974 C952 0.931 . S
H975 C953 0.930 . S
C976 C977 1.376 1_554 S
C976 H980 0.952 . S
C976 C985 1.399 . S
C977 C976 1.376 1_556 S
C977 C979 1.387 . S
H978 C985 0.950 . S
C979 C977 1.387 . S
C979 C981 1.390 . S
C979 H983 0.950 . S
H980 C976 0.952 . S
C981 C979 1.390 . S
C981 C982 1.387 1_556 S
C981 H984 0.950 . S
C982 C981 1.387 1_554 S
C982 C985 1.387 . S
H983 C979 0.950 . S
H984 C981 0.950 . S
C985 C976 1.399 . S
C985 H978 0.950 . S
C985 C982 1.387 . S
C986 C987 1.387 . S
C986 H990 0.950 . S
C986 C995 1.390 . S
C987 C986 1.387 . S
C987 C989 1.387 . S
H988 C995 0.950 . S
C989 C987 1.387 . S
C989 C991 1.390 . S
C989 H993 0.950 . S
H990 C986 0.950 . S
C991 C989 1.390 . S
C991 C992 1.387 . S
C991 H994 0.950 . S
C992 C991 1.387 . S
C992 C995 1.387 . S
H993 C989 0.950 . S
H994 C991 0.950 . S
C995 C986 1.390 . S
C995 H988 0.950 . S
C995 C992 1.387 . S
C996 C997 1.387 . S
C996 H1000 0.950 . S
C996 C1005 1.390 . S
C997 C996 1.387 . S
C997 C999 1.387 . S
H998 C1005 0.950 . S
C999 C997 1.387 . S
C999 C1001 1.390 . S
C999 H1003 0.950 . S
H1000 C996 0.950 . S
C1001 C999 1.390 . S
C1001 C1002 1.387 . S
C1001 H1004 0.950 . S
C1002 C1001 1.387 . S
C1002 C1005 1.387 . S
H1003 C999 0.950 . S
H1004 C1001 0.950 . S
C1005 C996 1.390 . S
C1005 H998 0.950 . S
C1005 C1002 1.387 . S
C1006 C1007 1.387 . S
C1006 H1010 0.950 . S
C1006 C1015 1.390 . S
C1007 C1006 1.387 . S
C1007 C1009 1.387 . S
H1008 C1015 0.950 . S
C1009 C1007 1.387 . S
C1009 C1011 1.390 . S
C1009 H1013 0.950 . S
H1010 C1006 0.950 . S
C1011 C1009 1.390 . S
C1011 C1012 1.387 . S
C1011 H1014 0.950 . S
C1012 C1011 1.387 . S
C1012 C1015 1.387 . S
H1013 C1009 0.950 . S
H1014 C1011 0.950 . S
C1015 C1006 1.390 . S
C1015 H1008 0.950 . S
C1015 C1012 1.387 . S
C1016 C1017 1.387 . S
C1016 H1020 0.950 . S
C1016 C1025 1.390 1_565 S
C1017 C1016 1.387 . S
C1017 C1019 1.387 . S
H1018 C1025 0.950 . S
C1019 C1017 1.387 . S
C1019 C1021 1.390 . S
C1019 H1023 0.950 . S
H1020 C1016 0.950 . S
C1021 C1019 1.390 . S
C1021 C1022 1.387 1_565 S
C1021 H1024 0.950 . S
C1022 C1021 1.387 1_545 S
C1022 C1025 1.387 . S
H1023 C1019 0.950 . S
H1024 C1021 0.950 . S
C1025 C1016 1.390 1_545 S
C1025 H1018 0.950 . S
C1025 C1022 1.387 . S
C1026 C1027 1.387 . S
C1026 H1030 0.950 . S
C1026 C1035 1.390 . S
C1027 C1026 1.387 . S
C1027 C1029 1.387 . S
H1028 C1035 0.950 . S
C1029 C1027 1.387 . S
C1029 C1031 1.390 . S
C1029 H1033 0.950 . S
H1030 C1026 0.950 . S
C1031 C1029 1.390 . S
C1031 C1032 1.387 . S
C1031 H1034 0.950 . S
C1032 C1031 1.387 . S
C1032 C1035 1.387 . S
H1033 C1029 0.950 . S
H1034 C1031 0.950 . S
C1035 C1026 1.390 . S
C1035 H1028 0.950 . S
C1035 C1032 1.387 . S
C1036 C1037 1.387 . S
C1036 H1040 0.950 . S
C1036 C1045 1.390 . S
C1037 C1036 1.387 . S
C1037 C1039 1.387 . S
H1038 C1045 0.950 . S
C1039 C1037 1.387 . S
C1039 C1041 1.390 . S
C1039 H1043 0.950 . S
H1040 C1036 0.950 . S
C1041 C1039 1.390 . S
C1041 C1042 1.387 . S
C1041 H1044 0.950 . S
C1042 C1041 1.387 . S
C1042 C1045 1.387 . S
H1043 C1039 0.950 . S
H1044 C1041 0.950 . S
C1045 C1036 1.390 . S
C1045 H1038 0.950 . S
C1045 C1042 1.387 . S
C1046 C1047 1.387 . S
C1046 H1050 0.950 . S
C1046 C1055 1.390 . S
C1047 C1046 1.387 . S
C1047 C1049 1.387 . S
H1048 C1055 0.950 . S
C1049 C1047 1.387 . S
C1049 C1051 1.390 . S
C1049 H1053 0.950 . S
H1050 C1046 0.950 . S
C1051 C1049 1.390 . S
C1051 C1052 1.387 . S
C1051 H1054 0.950 . S
C1052 C1051 1.387 . S
C1052 C1055 1.387 . S
H1053 C1049 0.950 . S
H1054 C1051 0.950 . S
C1055 C1046 1.390 . S
C1055 H1048 0.950 . S
C1055 C1052 1.387 . S
C1056 C1057 1.387 . S
C1056 H1060 0.950 . S
C1056 C1065 1.390 1_655 S
C1057 C1056 1.387 . S
C1057 C1059 1.387 . S
H1058 C1065 0.950 . S
C1059 C1057 1.387 . S
C1059 C1061 1.390 . S
C1059 H1063 0.950 . S
H1060 C1056 0.950 . S
C1061 C1059 1.390 . S
C1061 C1062 1.387 1_655 S
C1061 H1064 0.950 . S
C1062 C1061 1.387 1_455 S
C1062 C1065 1.387 . S
H1063 C1059 0.950 . S
H1064 C1061 0.950 . S
C1065 C1056 1.390 1_455 S
C1065 H1058 0.950 . S
C1065 C1062 1.387 . S
C1066 C1067 1.387 . S
C1066 H1070 0.950 . S
C1066 C1075 1.390 . S
C1067 C1066 1.387 . S
C1067 C1069 1.387 . S
H1068 C1075 0.950 . S
C1069 C1067 1.387 . S
C1069 C1071 1.390 . S
C1069 H1073 0.950 . S
H1070 C1066 0.950 . S
C1071 C1069 1.390 . S
C1071 C1072 1.387 . S
C1071 H1074 0.950 . S
C1072 C1071 1.387 . S
C1072 C1075 1.387 . S
H1073 C1069 0.950 . S
H1074 C1071 0.950 . S
C1075 C1066 1.390 . S
C1075 H1068 0.950 . S
C1075 C1072 1.387 . S
C1076 C1077 1.387 . S
C1076 H1080 0.950 1_545 S
C1076 C1085 1.390 . S
C1077 C1076 1.387 . S
C1077 C1079 1.387 . S
H1078 C1085 0.950 . S
C1079 C1077 1.387 . S
C1079 C1081 1.390 . S
C1079 H1083 0.950 . S
H1080 C1076 0.950 1_565 S
C1081 C1079 1.390 . S
C1081 C1082 1.387 . S
C1081 H1084 0.950 . S
C1082 C1081 1.387 . S
C1082 C1085 1.387 . S
H1083 C1079 0.950 . S
H1084 C1081 0.950 . S
C1085 C1076 1.390 . S
C1085 H1078 0.950 . S
C1085 C1082 1.387 . S
C1086 C1087 1.387 . S
C1086 H1090 0.950 . S
C1086 C1095 1.390 . S
C1087 C1086 1.387 . S
C1087 C1089 1.387 . S
H1088 C1095 0.950 . S
C1089 C1087 1.387 . S
C1089 C1091 1.390 . S
C1089 H1093 0.950 . S
H1090 C1086 0.950 . S
C1091 C1089 1.390 . S
C1091 C1092 1.387 . S
C1091 H1094 0.950 . S
C1092 C1091 1.387 . S
C1092 C1095 1.387 . S
H1093 C1089 0.950 . S
H1094 C1091 0.950 . S
C1095 C1086 1.390 . S
C1095 H1088 0.950 . S
C1095 C1092 1.387 . S
C1096 C1097 1.387 . S
C1096 H1100 0.950 . S
C1096 C1105 1.390 . S
C1097 C1096 1.387 . S
C1097 C1099 1.387 . S
H1098 C1105 0.950 . S
C1099 C1097 1.387 . S
C1099 C1101 1.390 . S
C1099 H1103 0.950 . S
H1100 C1096 0.950 . S
C1101 C1099 1.390 . S
C1101 C1102 1.387 . S
C1101 H1104 0.950 . S
C1102 C1101 1.387 . S
C1102 C1105 1.387 . S
H1103 C1099 0.950 . S
H1104 C1101 0.950 . S
C1105 C1096 1.390 . S
C1105 H1098 0.950 . S
C1105 C1102 1.387 . S
C1106 C1107 1.387 . S
C1106 H1110 0.950 . S
C1106 C1115 1.390 . S
C1107 C1106 1.387 . S
C1107 C1109 1.387 . S
H1108 C1115 0.950 . S
C1109 C1107 1.387 . S
C1109 C1111 1.390 . S
C1109 H1113 0.950 . S
H1110 C1106 0.950 . S
C1111 C1109 1.390 . S
C1111 C1112 1.387 . S
C1111 H1114 0.950 . S
C1112 C1111 1.387 . S
C1112 C1115 1.387 . S
H1113 C1109 0.950 . S
H1114 C1111 0.950 . S
C1115 C1106 1.390 . S
C1115 H1108 0.950 . S
C1115 C1112 1.387 . S
C1116 C1117 1.387 . S
C1116 H1120 0.950 . S
C1116 C1125 1.390 . S
C1117 C1116 1.387 . S
C1117 C1119 1.387 . S
H1118 C1125 0.950 . S
C1119 C1117 1.387 . S
C1119 C1121 1.390 . S
C1119 H1123 0.950 . S
H1120 C1116 0.950 . S
C1121 C1119 1.390 . S
C1121 C1122 1.387 . S
C1121 H1124 0.950 . S
C1122 C1121 1.387 . S
C1122 C1125 1.387 . S
H1123 C1119 0.950 . S
H1124 C1121 0.950 . S
C1125 C1116 1.390 . S
C1125 H1118 0.950 . S
C1125 C1122 1.387 . S
C1126 C1127 1.387 . S
C1126 H1130 0.950 . S
C1126 C1135 1.390 . S
C1127 C1126 1.387 . S
C1127 C1129 1.387 . S
H1128 C1135 0.950 . S
C1129 C1127 1.387 . S
C1129 C1131 1.390 . S
C1129 H1133 0.950 . S
H1130 C1126 0.950 . S
C1131 C1129 1.390 . S
C1131 C1132 1.387 . S
C1131 H1134 0.950 . S
C1132 C1131 1.387 . S
C1132 C1135 1.387 . S
H1133 C1129 0.950 . S
H1134 C1131 0.950 . S
C1135 C1126 1.390 . S
C1135 H1128 0.950 . S
C1135 C1132 1.387 . S
C1136 C1137 1.387 . S
C1136 H1140 0.950 . S
C1136 C1145 1.390 . S
C1137 C1136 1.387 . S
C1137 C1139 1.387 1_545 S
H1138 C1145 0.950 . S
C1139 C1137 1.387 1_565 S
C1139 C1141 1.390 1_565 S
C1139 H1143 0.950 . S
H1140 C1136 0.950 . S
C1141 C1139 1.390 1_545 S
C1141 C1142 1.387 . S
C1141 H1144 0.950 . S
C1142 C1141 1.387 . S
C1142 C1145 1.387 . S
H1143 C1139 0.950 . S
H1144 C1141 0.950 . S
C1145 C1136 1.390 . S
C1145 H1138 0.950 . S
C1145 C1142 1.387 . S
C1146 C1147 1.387 . S
C1146 H1150 0.950 . S
C1146 C1155 1.390 . S
C1147 C1146 1.387 . S
C1147 C1149 1.387 1_554 S
H1148 C1155 0.950 . S
C1149 C1147 1.387 1_556 S
C1149 C1151 1.390 . S
C1149 H1153 0.950 . S
H1150 C1146 0.950 . S
C1151 C1149 1.390 . S
C1151 C1152 1.387 1_556 S
C1151 H1154 0.950 . S
C1152 C1151 1.387 1_554 S
C1152 C1155 1.387 . S
H1153 C1149 0.950 . S
H1154 C1151 0.950 . S
C1155 C1146 1.390 . S
C1155 H1148 0.950 . S
C1155 C1152 1.387 . S
C1156 C1157 1.387 . S
C1156 H1160 0.950 . S
C1156 C1165 1.390 . S
C1157 C1156 1.387 . S
C1157 C1159 1.387 . S
H1158 C1165 0.950 . S
C1159 C1157 1.387 . S
C1159 C1161 1.390 . S
C1159 H1163 0.950 . S
H1160 C1156 0.950 . S
C1161 C1159 1.390 . S
C1161 C1162 1.387 . S
C1161 H1164 0.950 . S
C1162 C1161 1.387 . S
C1162 C1165 1.387 . S
H1163 C1159 0.950 . S
H1164 C1161 0.950 . S
C1165 C1156 1.390 . S
C1165 H1158 0.950 . S
C1165 C1162 1.387 . S
C1166 C1167 1.387 . S
C1166 H1170 0.950 . S
C1166 C1175 1.390 . S
C1167 C1166 1.387 . S
C1167 C1169 1.387 . S
H1168 C1175 0.950 . S
C1169 C1167 1.387 . S
C1169 C1171 1.390 . S
C1169 H1173 0.950 . S
H1170 C1166 0.950 . S
C1171 C1169 1.390 . S
C1171 C1172 1.387 . S
C1171 H1174 0.950 . S
C1172 C1171 1.387 . S
C1172 C1175 1.387 . S
H1173 C1169 0.950 . S
H1174 C1171 0.950 . S
C1175 C1166 1.390 . S
C1175 H1168 0.950 . S
C1175 C1172 1.387 . S
C1176 C1177 1.387 . S
C1176 H1180 0.950 . S
C1176 C1185 1.390 . S
C1177 C1176 1.387 . S
C1177 C1179 1.387 . S
H1178 C1185 0.950 . S
C1179 C1177 1.387 . S
C1179 C1181 1.390 . S
C1179 H1183 0.950 . S
H1180 C1176 0.950 . S
C1181 C1179 1.390 . S
C1181 C1182 1.387 . S
C1181 H1184 0.950 . S
C1182 C1181 1.387 . S
C1182 C1185 1.387 . S
H1183 C1179 0.950 . S
H1184 C1181 0.950 . S
C1185 C1176 1.390 . S
C1185 H1178 0.950 . S
C1185 C1182 1.387 . S
C1186 C1187 1.387 . S
C1186 H1190 0.950 . S
C1186 C1195 1.390 . S
C1187 C1186 1.387 . S
C1187 C1189 1.387 . S
H1188 C1195 0.950 . S
C1189 C1187 1.387 . S
C1189 C1191 1.390 . S
C1189 H1193 0.950 . S
H1190 C1186 0.950 . S
C1191 C1189 1.390 . S
C1191 C1192 1.387 . S
C1191 H1194 0.950 . S
C1192 C1191 1.387 . S
C1192 C1195 1.387 . S
H1193 C1189 0.950 . S
H1194 C1191 0.950 . S
C1195 C1186 1.390 . S
C1195 H1188 0.950 . S
C1195 C1192 1.387 . S
C1196 C1197 1.387 . S
C1196 H1200 0.950 . S
C1196 C1205 1.390 . S
C1197 C1196 1.387 . S
C1197 C1199 1.387 . S
H1198 C1205 0.950 . S
C1199 C1197 1.387 . S
C1199 C1201 1.390 . S
C1199 H1203 0.950 . S
H1200 C1196 0.950 . S
C1201 C1199 1.390 . S
C1201 C1202 1.387 . S
C1201 H1204 0.950 . S
C1202 C1201 1.387 . S
C1202 C1205 1.387 . S
H1203 C1199 0.950 . S
H1204 C1201 0.950 . S
C1205 C1196 1.390 . S
C1205 H1198 0.950 . S
C1205 C1202 1.387 . S
C1206 C1207 1.387 . S
C1206 H1210 0.950 . S
C1206 C1215 1.390 . S
C1207 C1206 1.387 . S
C1207 C1209 1.387 . S
H1208 C1215 0.950 . S
C1209 C1207 1.387 . S
C1209 C1211 1.390 . S
C1209 H1213 0.950 . S
H1210 C1206 0.950 . S
C1211 C1209 1.390 . S
C1211 C1212 1.387 . S
C1211 H1214 0.950 . S
C1212 C1211 1.387 . S
C1212 C1215 1.387 . S
H1213 C1209 0.950 . S
H1214 C1211 0.950 . S
C1215 C1206 1.390 . S
C1215 H1208 0.950 . S
C1215 C1212 1.387 . S
C1216 C1217 1.387 . S
C1216 H1220 0.950 . S
C1216 C1225 1.390 . S
C1217 C1216 1.387 . S
C1217 C1219 1.387 . S
H1218 C1225 0.950 . S
C1219 C1217 1.387 . S
C1219 C1221 1.390 . S
C1219 H1223 0.950 . S
H1220 C1216 0.950 . S
C1221 C1219 1.390 . S
C1221 C1222 1.387 . S
C1221 H1224 0.950 1_565 S
C1222 C1221 1.387 . S
C1222 C1225 1.387 . S
H1223 C1219 0.950 . S
H1224 C1221 0.950 1_545 S
C1225 C1216 1.390 . S
C1225 H1218 0.950 . S
C1225 C1222 1.387 . S
C1226 C1227 1.387 . S
C1226 H1230 0.950 . S
C1226 C1235 1.390 . S
C1227 C1226 1.387 . S
C1227 C1229 1.387 . S
H1228 C1235 0.950 . S
C1229 C1227 1.387 . S
C1229 C1231 1.390 . S
C1229 H1233 0.950 . S
H1230 C1226 0.950 . S
C1231 C1229 1.390 . S
C1231 C1232 1.387 . S
C1231 H1234 0.950 . S
C1232 C1231 1.387 . S
C1232 C1235 1.387 . S
H1233 C1229 0.950 . S
H1234 C1231 0.950 . S
C1235 C1226 1.390 . S
C1235 H1228 0.950 . S
C1235 C1232 1.387 . S
C1236 C1237 1.387 . S
C1236 H1240 0.950 . S
C1236 C1245 1.390 . S
C1237 C1236 1.387 . S
C1237 C1239 1.387 . S
H1238 C1245 0.950 . S
C1239 C1237 1.387 . S
C1239 C1241 1.390 . S
C1239 H1243 0.950 . S
H1240 C1236 0.950 . S
C1241 C1239 1.390 . S
C1241 C1242 1.387 . S
C1241 H1244 0.950 . S
C1242 C1241 1.387 . S
C1242 C1245 1.387 . S
H1243 C1239 0.950 . S
H1244 C1241 0.950 . S
C1245 C1236 1.390 . S
C1245 H1238 0.950 . S
C1245 C1242 1.387 . S
C1246 C1247 1.387 . S
C1246 H1250 0.950 . S
C1246 C1255 1.390 . S
C1247 C1246 1.387 . S
C1247 C1249 1.387 . S
H1248 C1255 0.950 . S
C1249 C1247 1.387 . S
C1249 C1251 1.390 . S
C1249 H1253 0.950 . S
H1250 C1246 0.950 . S
C1251 C1249 1.390 . S
C1251 C1252 1.387 . S
C1251 H1254 0.950 . S
C1252 C1251 1.387 . S
C1252 C1255 1.387 . S
H1253 C1249 0.950 . S
H1254 C1251 0.950 . S
C1255 C1246 1.390 . S
C1255 H1248 0.950 . S
C1255 C1252 1.387 . S
C1256 C1257 1.387 . S
C1256 H1260 0.950 . S
C1256 C1265 1.390 . S
C1257 C1256 1.387 . S
C1257 C1259 1.387 . S
H1258 C1265 0.950 . S
C1259 C1257 1.387 . S
C1259 C1261 1.390 . S
C1259 H1263 0.950 . S
H1260 C1256 0.950 . S
C1261 C1259 1.390 . S
C1261 C1262 1.387 . S
C1261 H1264 0.950 . S
C1262 C1261 1.387 . S
C1262 C1265 1.387 . S
H1263 C1259 0.950 . S
H1264 C1261 0.950 . S
C1265 C1256 1.390 . S
C1265 H1258 0.950 . S
C1265 C1262 1.387 . S
C1266 C1267 1.387 . S
C1266 H1270 0.950 . S
C1266 C1275 1.390 . S
C1267 C1266 1.387 . S
C1267 C1269 1.387 . S
H1268 C1275 0.950 . S
C1269 C1267 1.387 . S
C1269 C1271 1.390 . S
C1269 H1273 0.950 . S
H1270 C1266 0.950 . S
C1271 C1269 1.390 . S
C1271 C1272 1.387 . S
C1271 H1274 0.950 . S
C1272 C1271 1.387 . S
C1272 C1275 1.387 . S
H1273 C1269 0.950 . S
H1274 C1271 0.950 . S
C1275 C1266 1.390 . S
C1275 H1268 0.950 . S
C1275 C1272 1.387 . S
C1276 C1277 1.387 . S
C1276 H1280 0.950 . S
C1276 C1285 1.390 1_556 S
C1277 C1276 1.387 . S
C1277 C1279 1.387 . S
H1278 C1285 0.950 . S
C1279 C1277 1.387 . S
C1279 C1281 1.390 . S
C1279 H1283 0.950 . S
H1280 C1276 0.950 . S
C1281 C1279 1.390 . S
C1281 C1282 1.387 . S
C1281 H1284 0.950 1_565 S
C1282 C1281 1.387 . S
C1282 C1285 1.387 1_556 S
H1283 C1279 0.950 . S
H1284 C1281 0.950 1_545 S
C1285 C1276 1.390 1_554 S
C1285 H1278 0.950 . S
C1285 C1282 1.387 1_554 S
C1286 C1287 1.387 . S
C1286 H1290 0.950 . S
C1286 C1295 1.390 . S
C1287 C1286 1.387 . S
C1287 C1289 1.387 . S
H1288 C1295 0.950 . S
C1289 C1287 1.387 . S
C1289 C1291 1.390 . S
C1289 H1293 0.950 . S
H1290 C1286 0.950 . S
C1291 C1289 1.390 . S
C1291 C1292 1.387 . S
C1291 H1294 0.950 . S
C1292 C1291 1.387 . S
C1292 C1295 1.387 . S
H1293 C1289 0.950 . S
H1294 C1291 0.950 . S
C1295 C1286 1.390 . S
C1295 H1288 0.950 . S
C1295 C1292 1.387 . S
C1296 C1297 1.387 . S
C1296 H1300 0.950 . S
C1296 C1305 1.390 . S
C1297 C1296 1.387 . S
C1297 C1299 1.387 . S
H1298 C1305 0.950 . S
C1299 C1297 1.387 . S
C1299 C1301 1.390 . S
C1299 H1303 0.950 . S
H1300 C1296 0.950 . S
C1301 C1299 1.390 . S
C1301 C1302 1.387 . S
C1301 H1304 0.950 . S
C1302 C1301 1.387 . S
C1302 C1305 1.387 . S
H1303 C1299 0.950 . S
H1304 C1301 0.950 . S
C1305 C1296 1.390 . S
C1305 H1298 0.950 . S
C1305 C1302 1.387 . S
C1306 C1307 1.387 . S
C1306 H1310 0.950 . S
C1306 C1315 1.390 . S
C1307 C1306 1.387 . S
C1307 C1309 1.387 . S
H1308 C1315 0.950 . S
C1309 C1307 1.387 . S
C1309 C1311 1.390 . S
C1309 H1313 0.950 . S
H1310 C1306 0.950 . S
C1311 C1309 1.390 . S
C1311 C1312 1.387 . S
C1311 H1314 0.950 . S
C1312 C1311 1.387 . S
C1312 C1315 1.387 . S
H1313 C1309 0.950 . S
H1314 C1311 0.950 . S
C1315 C1306 1.390 . S
C1315 H1308 0.950 . S
C1315 C1312 1.387 . S
C1316 C1317 1.387 . S
C1316 H1320 0.950 . S
C1316 C1325 1.390 . S
C1317 C1316 1.387 . S
C1317 C1319 1.387 . S
H1318 C1325 0.950 . S
C1319 C1317 1.387 . S
C1319 C1321 1.390 . S
C1319 H1323 0.950 . S
H1320 C1316 0.950 . S
C1321 C1319 1.390 . S
C1321 C1322 1.387 . S
C1321 H1324 0.950 . S
C1322 C1321 1.387 . S
C1322 C1325 1.387 . S
H1323 C1319 0.950 . S
H1324 C1321 0.950 . S
C1325 C1316 1.390 . S
C1325 H1318 0.950 . S
C1325 C1322 1.387 . S
C1326 C1327 1.387 . S
C1326 H1330 0.950 . S
C1326 C1335 1.390 . S
C1327 C1326 1.387 . S
C1327 C1329 1.387 . S
H1328 C1335 0.950 . S
C1329 C1327 1.387 . S
C1329 C1331 1.390 . S
C1329 H1333 0.950 . S
H1330 C1326 0.950 . S
C1331 C1329 1.390 . S
C1331 C1332 1.387 . S
C1331 H1334 0.950 . S
C1332 C1331 1.387 . S
C1332 C1335 1.387 . S
H1333 C1329 0.950 . S
H1334 C1331 0.950 . S
C1335 C1326 1.390 . S
C1335 H1328 0.950 . S
C1335 C1332 1.387 . S
C1336 C1337 1.387 . S
C1336 H1340 0.950 . S
C1336 C1345 1.390 . S
C1337 C1336 1.387 . S
C1337 C1339 1.387 . S
H1338 C1345 0.950 . S
C1339 C1337 1.387 . S
C1339 C1341 1.390 . S
C1339 H1343 0.950 . S
H1340 C1336 0.950 . S
C1341 C1339 1.390 . S
C1341 C1342 1.387 . S
C1341 H1344 0.950 . S
C1342 C1341 1.387 . S
C1342 C1345 1.387 . S
H1343 C1339 0.950 . S
H1344 C1341 0.950 . S
C1345 C1336 1.390 . S
C1345 H1338 0.950 . S
C1345 C1342 1.387 . S
C1346 C1347 1.387 . S
C1346 H1350 0.950 . S
C1346 C1355 1.390 . S
C1347 C1346 1.387 . S
C1347 C1349 1.387 . S
H1348 C1355 0.950 . S
C1349 C1347 1.387 . S
C1349 C1351 1.390 . S
C1349 H1353 0.950 . S
H1350 C1346 0.950 . S
C1351 C1349 1.390 . S
C1351 C1352 1.387 . S
C1351 H1354 0.950 . S
C1352 C1351 1.387 . S
C1352 C1355 1.387 . S
H1353 C1349 0.950 . S
H1354 C1351 0.950 . S
C1355 C1346 1.390 . S
C1355 H1348 0.950 . S
C1355 C1352 1.387 . S
C1356 C1357 1.387 . S
C1356 H1360 0.950 . S
C1356 C1365 1.390 . S
C1357 C1356 1.387 . S
C1357 C1359 1.387 . S
H1358 C1365 0.950 . S
C1359 C1357 1.387 . S
C1359 C1361 1.390 . S
C1359 H1363 0.950 . S
H1360 C1356 0.950 . S
C1361 C1359 1.390 . S
C1361 C1362 1.387 . S
C1361 H1364 0.950 . S
C1362 C1361 1.387 . S
C1362 C1365 1.387 . S
H1363 C1359 0.950 . S
H1364 C1361 0.950 . S
C1365 C1356 1.390 . S
C1365 H1358 0.950 . S
C1365 C1362 1.387 . S
C1366 C1367 1.387 . S
C1366 H1370 0.950 . S
C1366 C1375 1.390 . S
C1367 C1366 1.387 . S
C1367 C1369 1.387 . S
H1368 C1375 0.950 . S
C1369 C1367 1.387 . S
C1369 C1371 1.390 . S
C1369 H1373 0.950 . S
H1370 C1366 0.950 . S
C1371 C1369 1.390 . S
C1371 C1372 1.387 . S
C1371 H1374 0.950 . S
C1372 C1371 1.387 . S
C1372 C1375 1.387 . S
H1373 C1369 0.950 . S
H1374 C1371 0.950 . S
C1375 C1366 1.390 . S
C1375 H1368 0.950 . S
C1375 C1372 1.387 . S
C1376 C1377 1.387 . S
C1376 H1380 0.950 . S
C1376 C1385 1.390 . S
C1377 C1376 1.387 . S
C1377 C1379 1.387 . S
H1378 C1385 0.950 . S
C1379 C1377 1.387 . S
C1379 C1381 1.390 . S
C1379 H1383 0.950 1_556 S
H1380 C1376 0.950 . S
C1381 C1379 1.390 . S
C1381 C1382 1.387 . S
C1381 H1384 0.950 . S
C1382 C1381 1.387 . S
C1382 C1385 1.387 . S
H1383 C1379 0.950 1_554 S
H1384 C1381 0.950 . S
C1385 C1376 1.390 . S
C1385 H1378 0.950 . S
C1385 C1382 1.387 . S
C1386 C1387 1.387 . S
C1386 H1390 0.950 . S
C1386 C1395 1.390 . S
C1387 C1386 1.387 . S
C1387 C1389 1.387 . S
H1388 C1395 0.950 . S
C1389 C1387 1.387 . S
C1389 C1391 1.390 . S
C1389 H1393 0.950 1_554 S
H1390 C1386 0.950 . S
C1391 C1389 1.390 . S
C1391 C1392 1.387 . S
C1391 H1394 0.950 1_554 S
C1392 C1391 1.387 . S
C1392 C1395 1.387 . S
H1393 C1389 0.950 1_556 S
H1394 C1391 0.950 1_556 S
C1395 C1386 1.390 . S
C1395 H1388 0.950 . S
C1395 C1392 1.387 . S
C1396 C1397 1.387 . S
C1396 H1400 0.950 . S
C1396 C1405 1.390 . S
C1397 C1396 1.387 . S
C1397 C1399 1.387 . S
H1398 C1405 0.950 . S
C1399 C1397 1.387 . S
C1399 C1401 1.390 . S
C1399 H1403 0.950 . S
H1400 C1396 0.950 . S
C1401 C1399 1.390 . S
C1401 C1402 1.387 . S
C1401 H1404 0.950 . S
C1402 C1401 1.387 . S
C1402 C1405 1.387 . S
H1403 C1399 0.950 . S
H1404 C1401 0.950 . S
C1405 C1396 1.390 . S
C1405 H1398 0.950 . S
C1405 C1402 1.387 . S
C1406 C1407 1.387 . S
C1406 H1410 0.950 . S
C1406 C1415 1.390 . S
C1407 C1406 1.387 . S
C1407 C1409 1.387 . S
H1408 C1415 0.950 . S
C1409 C1407 1.387 . S
C1409 C1411 1.390 . S
C1409 H1413 0.950 . S
H1410 C1406 0.950 . S
C1411 C1409 1.390 . S
C1411 C1412 1.387 . S
C1411 H1414 0.950 . S
C1412 C1411 1.387 . S
C1412 C1415 1.387 . S
H1413 C1409 0.950 . S
H1414 C1411 0.950 . S
C1415 C1406 1.390 . S
C1415 H1408 0.950 . S
C1415 C1412 1.387 . S
C1416 C1417 1.387 . S
C1416 H1420 0.950 . S
C1416 C1425 1.390 . S
C1417 C1416 1.387 . S
C1417 C1419 1.387 . S
H1418 C1425 0.950 . S
C1419 C1417 1.387 . S
C1419 C1421 1.390 . S
C1419 H1423 0.950 . S
H1420 C1416 0.950 . S
C1421 C1419 1.390 . S
C1421 C1422 1.387 . S
C1421 H1424 0.950 . S
C1422 C1421 1.387 . S
C1422 C1425 1.387 . S
H1423 C1419 0.950 . S
H1424 C1421 0.950 . S
C1425 C1416 1.390 . S
C1425 H1418 0.950 . S
C1425 C1422 1.387 . S
C1426 C1427 1.387 . S
C1426 H1430 0.950 . S
C1426 C1435 1.390 . S
C1427 C1426 1.387 . S
C1427 C1429 1.387 1_565 S
H1428 C1435 0.950 . S
C1429 C1427 1.387 1_545 S
C1429 C1431 1.390 . S
C1429 H1433 0.950 . S
H1430 C1426 0.950 . S
C1431 C1429 1.390 . S
C1431 C1432 1.387 . S
C1431 H1434 0.950 . S
C1432 C1431 1.387 . S
C1432 C1435 1.387 1_545 S
H1433 C1429 0.950 . S
H1434 C1431 0.950 . S
C1435 C1426 1.390 . S
C1435 H1428 0.950 . S
C1435 C1432 1.387 1_565 S
C1436 C1437 1.387 . S
C1436 H1440 0.950 . S
C1436 C1445 1.390 . S
C1437 C1436 1.387 . S
C1437 C1439 1.387 . S
H1438 C1445 0.950 . S
C1439 C1437 1.387 . S
C1439 C1441 1.390 . S
C1439 H1443 0.950 . S
H1440 C1436 0.950 . S
C1441 C1439 1.390 . S
C1441 C1442 1.387 . S
C1441 H1444 0.950 . S
C1442 C1441 1.387 . S
C1442 C1445 1.387 . S
H1443 C1439 0.950 . S
H1444 C1441 0.950 . S
C1445 C1436 1.390 . S
C1445 H1438 0.950 . S
C1445 C1442 1.387 . S
C1446 C1447 1.387 . S
C1446 H1450 0.950 . S
C1446 C1455 1.390 . S
C1447 C1446 1.387 . S
C1447 C1449 1.387 . S
H1448 C1455 0.950 . S
C1449 C1447 1.387 . S
C1449 C1451 1.390 . S
C1449 H1453 0.950 . S
H1450 C1446 0.950 . S
C1451 C1449 1.390 . S
C1451 C1452 1.387 . S
C1451 H1454 0.950 . S
C1452 C1451 1.387 . S
C1452 C1455 1.387 . S
H1453 C1449 0.950 . S
H1454 C1451 0.950 . S
C1455 C1446 1.390 . S
C1455 H1448 0.950 . S
C1455 C1452 1.387 . S
C1456 C1457 1.387 . S
C1456 H1460 0.950 . S
C1456 C1465 1.390 . S
C1457 C1456 1.387 . S
C1457 C1459 1.387 . S
H1458 C1465 0.950 . S
C1459 C1457 1.387 . S
C1459 C1461 1.390 . S
C1459 H1463 0.950 . S
H1460 C1456 0.950 . S
C1461 C1459 1.390 . S
C1461 C1462 1.387 . S
C1461 H1464 0.950 . S
C1462 C1461 1.387 . S
C1462 C1465 1.387 . S
H1463 C1459 0.950 . S
H1464 C1461 0.950 . S
C1465 C1456 1.390 . S
C1465 H1458 0.950 . S
C1465 C1462 1.387 . S
C1466 C1467 1.387 . S
C1466 H1470 0.950 . S
C1466 C1475 1.390 . S
C1467 C1466 1.387 . S
C1467 C1469 1.387 . S
H1468 C1475 0.950 . S
C1469 C1467 1.387 . S
C1469 C1471 1.390 . S
C1469 H1473 0.950 . S
H1470 C1466 0.950 . S
C1471 C1469 1.390 . S
C1471 C1472 1.387 . S
C1471 H1474 0.950 . S
C1472 C1471 1.387 . S
C1472 C1475 1.387 . S
H1473 C1469 0.950 . S
H1474 C1471 0.950 . S
C1475 C1466 1.390 . S
C1475 H1468 0.950 . S
C1475 C1472 1.387 . S
C1476 C1477 1.387 . S
C1476 H1480 0.950 . S
C1476 C1485 1.390 . S
C1477 C1476 1.387 . S
C1477 C1479 1.387 . S
H1478 C1485 0.950 1_554 S
C1479 C1477 1.387 . S
C1479 C1481 1.390 . S
C1479 H1483 0.950 . S
H1480 C1476 0.950 . S
C1481 C1479 1.390 . S
C1481 C1482 1.387 . S
C1481 H1484 0.950 . S
C1482 C1481 1.387 . S
C1482 C1485 1.387 . S
H1483 C1479 0.950 . S
H1484 C1481 0.950 . S
C1485 C1476 1.390 . S
C1485 H1478 0.950 1_556 S
C1485 C1482 1.387 . S
C1486 C1487 1.387 . S
C1486 H1490 0.950 . S
C1486 C1495 1.390 1_455 S
C1487 C1486 1.387 . S
C1487 C1489 1.387 . S
H1488 C1495 0.950 . S
C1489 C1487 1.387 . S
C1489 C1491 1.390 1_455 S
C1489 H1493 0.950 . S
H1490 C1486 0.950 . S
C1491 C1489 1.390 1_655 S
C1491 C1492 1.387 . S
C1491 H1494 0.950 . S
C1492 C1491 1.387 . S
C1492 C1495 1.387 . S
H1493 C1489 0.950 . S
H1494 C1491 0.950 . S
C1495 C1486 1.390 1_655 S
C1495 H1488 0.950 . S
C1495 C1492 1.387 . S
C1496 C1497 1.387 . S
C1496 H1500 0.950 . S
C1496 C1505 1.390 . S
C1497 C1496 1.387 . S
C1497 C1499 1.387 . S
H1498 C1505 0.950 . S
C1499 C1497 1.387 . S
C1499 C1501 1.390 . S
C1499 H1503 0.950 . S
H1500 C1496 0.950 . S
C1501 C1499 1.390 . S
C1501 C1502 1.387 . S
C1501 H1504 0.950 . S
C1502 C1501 1.387 . S
C1502 C1505 1.387 . S
H1503 C1499 0.950 . S
H1504 C1501 0.950 . S
C1505 C1496 1.390 . S
C1505 H1498 0.950 . S
C1505 C1502 1.387 . S
C1506 C1507 1.387 . S
C1506 H1510 0.950 . S
C1506 C1515 1.390 . S
C1507 C1506 1.387 . S
C1507 C1509 1.387 . S
H1508 C1515 0.950 . S
C1509 C1507 1.387 . S
C1509 C1511 1.390 . S
C1509 H1513 0.950 . S
H1510 C1506 0.950 . S
C1511 C1509 1.390 . S
C1511 C1512 1.387 . S
C1511 H1514 0.950 . S
C1512 C1511 1.387 . S
C1512 C1515 1.387 . S
H1513 C1509 0.950 . S
H1514 C1511 0.950 . S
C1515 C1506 1.390 . S
C1515 H1508 0.950 . S
C1515 C1512 1.387 . S
C1516 C1517 1.387 . S
C1516 H1520 0.950 . S
C1516 C1525 1.390 . S
C1517 C1516 1.387 . S
C1517 C1519 1.387 . S
H1518 C1525 0.950 . S
C1519 C1517 1.387 . S
C1519 C1521 1.390 . S
C1519 H1523 0.950 . S
H1520 C1516 0.950 . S
C1521 C1519 1.390 . S
C1521 C1522 1.387 . S
C1521 H1524 0.950 . S
C1522 C1521 1.387 . S
C1522 C1525 1.387 . S
H1523 C1519 0.950 . S
H1524 C1521 0.950 . S
C1525 C1516 1.390 . S
C1525 H1518 0.950 . S
C1525 C1522 1.387 . S
C1526 C1527 1.387 . S
C1526 H1530 0.950 . S
C1526 C1535 1.390 . S
C1527 C1526 1.387 . S
C1527 C1529 1.387 . S
H1528 C1535 0.950 . S
C1529 C1527 1.387 . S
C1529 C1531 1.390 . S
C1529 H1533 0.950 . S
H1530 C1526 0.950 . S
C1531 C1529 1.390 . S
C1531 C1532 1.387 . S
C1531 H1534 0.950 . S
C1532 C1531 1.387 . S
C1532 C1535 1.387 . S
H1533 C1529 0.950 . S
H1534 C1531 0.950 . S
C1535 C1526 1.390 . S
C1535 H1528 0.950 . S
C1535 C1532 1.387 . S
C1536 C1537 1.387 . S
C1536 H1540 0.950 . S
C1536 C1545 1.390 . S
C1537 C1536 1.387 . S
C1537 C1539 1.387 . S
H1538 C1545 0.950 . S
C1539 C1537 1.387 . S
C1539 C1541 1.390 . S
C1539 H1543 0.950 . S
H1540 C1536 0.950 . S
C1541 C1539 1.390 . S
C1541 C1542 1.387 . S
C1541 H1544 0.950 . S
C1542 C1541 1.387 . S
C1542 C1545 1.387 . S
H1543 C1539 0.950 . S
H1544 C1541 0.950 . S
C1545 C1536 1.390 . S
C1545 H1538 0.950 . S
C1545 C1542 1.387 . S
C1546 C1547 1.387 . S
C1546 H1550 0.950 . S
C1546 C1555 1.390 . S
C1547 C1546 1.387 . S
C1547 C1549 1.387 . S
H1548 C1555 0.950 . S
C1549 C1547 1.387 . S
C1549 C1551 1.390 . S
C1549 H1553 0.950 . S
H1550 C1546 0.950 . S
C1551 C1549 1.390 . S
C1551 C1552 1.387 . S
C1551 H1554 0.950 . S
C1552 C1551 1.387 . S
C1552 C1555 1.387 . S
H1553 C1549 0.950 . S
H1554 C1551 0.950 . S
C1555 C1546 1.390 . S
C1555 H1548 0.950 . S
C1555 C1552 1.387 . S
C1556 C1557 1.387 . S
C1556 H1560 0.950 . S
C1556 C1565 1.390 . S
C1557 C1556 1.387 . S
C1557 C1559 1.387 . S
H1558 C1565 0.950 . S
C1559 C1557 1.387 . S
C1559 C1561 1.390 . S
C1559 H1563 0.950 . S
H1560 C1556 0.950 . S
C1561 C1559 1.390 . S
C1561 C1562 1.387 . S
C1561 H1564 0.950 . S
C1562 C1561 1.387 . S
C1562 C1565 1.387 . S
H1563 C1559 0.950 . S
H1564 C1561 0.950 . S
C1565 C1556 1.390 . S
C1565 H1558 0.950 . S
C1565 C1562 1.387 . S
C1566 C1567 1.387 . S
C1566 H1570 0.950 . S
C1566 C1575 1.390 . S
C1567 C1566 1.387 . S
C1567 C1569 1.387 . S
H1568 C1575 0.950 . S
C1569 C1567 1.387 . S
C1569 C1571 1.390 . S
C1569 H1573 0.950 . S
H1570 C1566 0.950 . S
C1571 C1569 1.390 . S
C1571 C1572 1.387 . S
C1571 H1574 0.950 . S
C1572 C1571 1.387 . S
C1572 C1575 1.387 . S
H1573 C1569 0.950 . S
H1574 C1571 0.950 . S
C1575 C1566 1.390 . S
C1575 H1568 0.950 . S
C1575 C1572 1.387 . S
C1576 C1577 1.387 . S
C1576 H1580 0.950 . S
C1576 C1585 1.390 . S
C1577 C1576 1.387 . S
C1577 C1579 1.387 . S
H1578 C1585 0.950 . S
C1579 C1577 1.387 . S
C1579 C1581 1.390 . S
C1579 H1583 0.950 . S
H1580 C1576 0.950 . S
C1581 C1579 1.390 . S
C1581 C1582 1.387 . S
C1581 H1584 0.950 . S
C1582 C1581 1.387 . S
C1582 C1585 1.387 . S
H1583 C1579 0.950 . S
H1584 C1581 0.950 . S
C1585 C1576 1.390 . S
C1585 H1578 0.950 . S
C1585 C1582 1.387 . S
C1586 C1587 1.387 . S
C1586 H1590 0.950 . S
C1586 C1595 1.390 . S
C1587 C1586 1.387 . S
C1587 C1589 1.387 . S
H1588 C1595 0.950 . S
C1589 C1587 1.387 . S
C1589 C1591 1.390 . S
C1589 H1593 0.950 . S
H1590 C1586 0.950 . S
C1591 C1589 1.390 . S
C1591 C1592 1.387 . S
C1591 H1594 0.950 . S
C1592 C1591 1.387 . S
C1592 C1595 1.387 . S
H1593 C1589 0.950 . S
H1594 C1591 0.950 . S
C1595 C1586 1.390 . S
C1595 H1588 0.950 . S
C1595 C1592 1.387 . S
C1596 C1597 1.387 . S
C1596 H1600 0.950 . S
C1596 C1605 1.390 . S
C1597 C1596 1.387 . S
C1597 C1599 1.387 . S
H1598 C1605 0.950 . S
C1599 C1597 1.387 . S
C1599 C1601 1.390 . S
C1599 H1603 0.950 . S
H1600 C1596 0.950 . S
C1601 C1599 1.390 . S
C1601 C1602 1.387 . S
C1601 H1604 0.950 . S
C1602 C1601 1.387 . S
C1602 C1605 1.387 . S
H1603 C1599 0.950 . S
H1604 C1601 0.950 . S
C1605 C1596 1.390 . S
C1605 H1598 0.950 . S
C1605 C1602 1.387 . S
C1606 C1607 1.387 . S
C1606 H1610 0.950 . S
C1606 C1615 1.390 . S
C1607 C1606 1.387 . S
C1607 C1609 1.387 . S
H1608 C1615 0.950 . S
C1609 C1607 1.387 . S
C1609 C1611 1.390 . S
C1609 H1613 0.950 . S
H1610 C1606 0.950 . S
C1611 C1609 1.390 . S
C1611 C1612 1.387 . S
C1611 H1614 0.950 . S
C1612 C1611 1.387 . S
C1612 C1615 1.387 . S
H1613 C1609 0.950 . S
H1614 C1611 0.950 . S
C1615 C1606 1.390 . S
C1615 H1608 0.950 . S
C1615 C1612 1.387 . S
C1616 C1617 1.387 . S
C1616 H1620 0.950 . S
C1616 C1625 1.390 . S
C1617 C1616 1.387 . S
C1617 C1619 1.387 . S
H1618 C1625 0.950 . S
C1619 C1617 1.387 . S
C1619 C1621 1.390 . S
C1619 H1623 0.950 . S
H1620 C1616 0.950 . S
C1621 C1619 1.390 . S
C1621 C1622 1.387 . S
C1621 H1624 0.950 . S
C1622 C1621 1.387 . S
C1622 C1625 1.387 . S
H1623 C1619 0.950 . S
H1624 C1621 0.950 . S
C1625 C1616 1.390 . S
C1625 H1618 0.950 . S
C1625 C1622 1.387 . S
C1626 C1627 1.387 . S
C1626 H1630 0.950 . S
C1626 C1635 1.390 . S
C1627 C1626 1.387 . S
C1627 C1629 1.387 . S
H1628 C1635 0.950 . S
C1629 C1627 1.387 . S
C1629 C1631 1.390 . S
C1629 H1633 0.950 . S
H1630 C1626 0.950 . S
C1631 C1629 1.390 . S
C1631 C1632 1.387 . S
C1631 H1634 0.950 . S
C1632 C1631 1.387 . S
C1632 C1635 1.387 . S
H1633 C1629 0.950 . S
H1634 C1631 0.950 . S
C1635 C1626 1.390 . S
C1635 H1628 0.950 . S
C1635 C1632 1.387 . S
C1636 C1637 1.387 . S
C1636 H1640 0.950 . S
C1636 C1645 1.390 . S
C1637 C1636 1.387 . S
C1637 C1639 1.387 . S
H1638 C1645 0.950 . S
C1639 C1637 1.387 . S
C1639 C1641 1.390 . S
C1639 H1643 0.950 . S
H1640 C1636 0.950 . S
C1641 C1639 1.390 . S
C1641 C1642 1.387 . S
C1641 H1644 0.950 . S
C1642 C1641 1.387 . S
C1642 C1645 1.387 . S
H1643 C1639 0.950 . S
H1644 C1641 0.950 . S
C1645 C1636 1.390 . S
C1645 H1638 0.950 . S
C1645 C1642 1.387 . S
C1646 C1647 1.387 . S
C1646 H1650 0.950 . S
C1646 C1655 1.390 . S
C1647 C1646 1.387 . S
C1647 C1649 1.387 . S
H1648 C1655 0.950 . S
C1649 C1647 1.387 . S
C1649 C1651 1.390 . S
C1649 H1653 0.950 1_545 S
H1650 C1646 0.950 . S
C1651 C1649 1.390 . S
C1651 C1652 1.387 . S
C1651 H1654 0.950 . S
C1652 C1651 1.387 . S
C1652 C1655 1.387 . S
H1653 C1649 0.950 1_565 S
H1654 C1651 0.950 . S
C1655 C1646 1.390 . S
C1655 H1648 0.950 . S
C1655 C1652 1.387 . S
C1656 C1657 1.387 . S
C1656 H1660 0.950 . S
C1656 C1665 1.390 . S
C1657 C1656 1.387 . S
C1657 C1659 1.387 . S
H1658 C1665 0.950 . S
C1659 C1657 1.387 . S
C1659 C1661 1.390 . S
C1659 H1663 0.950 . S
H1660 C1656 0.950 . S
C1661 C1659 1.390 . S
C1661 C1662 1.387 . S
C1661 H1664 0.950 . S
C1662 C1661 1.387 . S
C1662 C1665 1.387 . S
H1663 C1659 0.950 . S
H1664 C1661 0.950 . S
C1665 C1656 1.390 . S
C1665 H1658 0.950 . S
C1665 C1662 1.387 . S
C1666 C1667 1.387 . S
C1666 H1670 0.950 . S
C1666 C1675 1.390 . S
C1667 C1666 1.387 . S
C1667 C1669 1.387 . S
H1668 C1675 0.950 . S
C1669 C1667 1.387 . S
C1669 C1671 1.390 . S
C1669 H1673 0.950 . S
H1670 C1666 0.950 . S
C1671 C1669 1.390 . S
C1671 C1672 1.387 . S
C1671 H1674 0.950 . S
C1672 C1671 1.387 . S
C1672 C1675 1.387 . S
H1673 C1669 0.950 . S
H1674 C1671 0.950 . S
C1675 C1666 1.390 . S
C1675 H1668 0.950 . S
C1675 C1672 1.387 . S
C1676 C1677 1.387 . S
C1676 H1680 0.950 . S
C1676 C1685 1.390 . S
C1677 C1676 1.387 . S
C1677 C1679 1.387 . S
H1678 C1685 0.950 . S
C1679 C1677 1.387 . S
C1679 C1681 1.390 . S
C1679 H1683 0.950 . S
H1680 C1676 0.950 . S
C1681 C1679 1.390 . S
C1681 C1682 1.387 . S
C1681 H1684 0.950 . S
C1682 C1681 1.387 . S
C1682 C1685 1.387 . S
H1683 C1679 0.950 . S
H1684 C1681 0.950 . S
C1685 C1676 1.390 . S
C1685 H1678 0.950 . S
C1685 C1682 1.387 . S
C1686 C1687 1.387 . S
C1686 H1690 0.950 . S
C1686 C1695 1.390 . S
C1687 C1686 1.387 . S
C1687 C1689 1.387 . S
H1688 C1695 0.950 . S
C1689 C1687 1.387 . S
C1689 C1691 1.390 . S
C1689 H1693 0.950 . S
H1690 C1686 0.950 . S
C1691 C1689 1.390 . S
C1691 C1692 1.387 . S
C1691 H1694 0.950 . S
C1692 C1691 1.387 . S
C1692 C1695 1.387 . S
H1693 C1689 0.950 . S
H1694 C1691 0.950 . S
C1695 C1686 1.390 . S
C1695 H1688 0.950 . S
C1695 C1692 1.387 . S
C1696 C1697 1.387 . S
C1696 H1700 0.950 . S
C1696 C1705 1.390 . S
C1697 C1696 1.387 . S
C1697 C1699 1.387 . S
H1698 C1705 0.950 . S
C1699 C1697 1.387 . S
C1699 C1701 1.390 . S
C1699 H1703 0.950 . S
H1700 C1696 0.950 . S
C1701 C1699 1.390 . S
C1701 C1702 1.387 . S
C1701 H1704 0.950 . S
C1702 C1701 1.387 . S
C1702 C1705 1.387 . S
H1703 C1699 0.950 . S
H1704 C1701 0.950 . S
C1705 C1696 1.390 . S
C1705 H1698 0.950 . S
C1705 C1702 1.387 . S
C1706 C1707 1.387 . S
C1706 H1710 0.950 . S
C1706 C1715 1.390 . S
C1707 C1706 1.387 . S
C1707 C1709 1.387 . S
H1708 C1715 0.950 . S
C1709 C1707 1.387 . S
C1709 C1711 1.390 . S
C1709 H1713 0.950 . S
H1710 C1706 0.950 . S
C1711 C1709 1.390 . S
C1711 C1712 1.387 . S
C1711 H1714 0.950 . S
C1712 C1711 1.387 . S
C1712 C1715 1.387 . S
H1713 C1709 0.950 . S
H1714 C1711 0.950 . S
C1715 C1706 1.390 . S
C1715 H1708 0.950 . S
C1715 C1712 1.387 . S
C1716 C1717 1.387 . S
C1716 H1720 0.950 . S
C1716 C1725 1.390 . S
C1717 C1716 1.387 . S
C1717 C1719 1.387 . S
H1718 C1725 0.950 . S
C1719 C1717 1.387 . S
C1719 C1721 1.390 . S
C1719 H1723 0.950 . S
H1720 C1716 0.950 . S
C1721 C1719 1.390 . S
C1721 C1722 1.387 . S
C1721 H1724 0.950 . S
C1722 C1721 1.387 . S
C1722 C1725 1.387 . S
H1723 C1719 0.950 . S
H1724 C1721 0.950 . S
C1725 C1716 1.390 . S
C1725 H1718 0.950 . S
C1725 C1722 1.387 . S
C1726 C1727 1.387 . S
C1726 H1730 0.950 . S
C1726 C1735 1.390 . S
C1727 C1726 1.387 . S
C1727 C1729 1.387 . S
H1728 C1735 0.950 . S
C1729 C1727 1.387 . S
C1729 C1731 1.390 . S
C1729 H1733 0.950 . S
H1730 C1726 0.950 . S
C1731 C1729 1.390 . S
C1731 C1732 1.387 . S
C1731 H1734 0.950 . S
C1732 C1731 1.387 . S
C1732 C1735 1.387 . S
H1733 C1729 0.950 . S
H1734 C1731 0.950 . S
C1735 C1726 1.390 . S
C1735 H1728 0.950 . S
C1735 C1732 1.387 . S
C1736 C1737 1.387 . S
C1736 H1740 0.950 . S
C1736 C1745 1.390 . S
C1737 C1736 1.387 . S
C1737 C1739 1.387 . S
H1738 C1745 0.950 . S
C1739 C1737 1.387 . S
C1739 C1741 1.390 . S
C1739 H1743 0.950 . S
H1740 C1736 0.950 . S
C1741 C1739 1.390 . S
C1741 C1742 1.387 . S
C1741 H1744 0.950 1_556 S
C1742 C1741 1.387 . S
C1742 C1745 1.387 . S
H1743 C1739 0.950 . S
H1744 C1741 0.950 1_554 S
C1745 C1736 1.390 . S
C1745 H1738 0.950 . S
C1745 C1742 1.387 . S
C1746 C1747 1.387 . S
C1746 H1750 0.950 . S
C1746 C1755 1.390 . S
C1747 C1746 1.387 . S
C1747 C1749 1.387 . S
H1748 C1755 0.950 . S
C1749 C1747 1.387 . S
C1749 C1751 1.390 . S
C1749 H1753 0.950 . S
H1750 C1746 0.950 . S
C1751 C1749 1.390 . S
C1751 C1752 1.387 . S
C1751 H1754 0.950 . S
C1752 C1751 1.387 . S
C1752 C1755 1.387 . S
H1753 C1749 0.950 . S
H1754 C1751 0.950 . S
C1755 C1746 1.390 . S
C1755 H1748 0.950 . S
C1755 C1752 1.387 . S
C1756 C1757 1.387 . S
C1756 H1760 0.950 . S
C1756 C1765 1.390 . S
C1757 C1756 1.387 . S
C1757 C1759 1.387 . S
H1758 C1765 0.950 . S
C1759 C1757 1.387 . S
C1759 C1761 1.390 . S
C1759 H1763 0.950 . S
H1760 C1756 0.950 . S
C1761 C1759 1.390 . S
C1761 C1762 1.387 . S
C1761 H1764 0.950 . S
C1762 C1761 1.387 . S
C1762 C1765 1.387 . S
H1763 C1759 0.950 . S
H1764 C1761 0.950 . S
C1765 C1756 1.390 . S
C1765 H1758 0.950 . S
C1765 C1762 1.387 . S
C1766 C1767 1.387 . S
C1766 H1770 0.950 . S
C1766 C1775 1.390 . S
C1767 C1766 1.387 . S
C1767 C1769 1.387 . S
H1768 C1775 0.950 . S
C1769 C1767 1.387 . S
C1769 C1771 1.390 . S
C1769 H1773 0.950 . S
H1770 C1766 0.950 . S
C1771 C1769 1.390 . S
C1771 C1772 1.387 . S
C1771 H1774 0.950 . S
C1772 C1771 1.387 . S
C1772 C1775 1.387 . S
H1773 C1769 0.950 . S
H1774 C1771 0.950 . S
C1775 C1766 1.390 . S
C1775 H1768 0.950 . S
C1775 C1772 1.387 . S
C1776 C1777 1.387 . S
C1776 H1780 0.950 . S
C1776 C1785 1.390 . S
C1777 C1776 1.387 . S
C1777 C1779 1.387 . S
H1778 C1785 0.950 . S
C1779 C1777 1.387 . S
C1779 C1781 1.390 . S
C1779 H1783 0.950 . S
H1780 C1776 0.950 . S
C1781 C1779 1.390 . S
C1781 C1782 1.387 . S
C1781 H1784 0.950 . S
C1782 C1781 1.387 . S
C1782 C1785 1.387 . S
H1783 C1779 0.950 . S
H1784 C1781 0.950 . S
C1785 C1776 1.390 . S
C1785 H1778 0.950 . S
C1785 C1782 1.387 . S
C1786 C1787 1.387 . S
C1786 H1790 0.950 . S
C1786 C1795 1.390 . S
C1787 C1786 1.387 . S
C1787 C1789 1.387 . S
H1788 C1795 0.950 . S
C1789 C1787 1.387 . S
C1789 C1791 1.390 . S
C1789 H1793 0.950 . S
H1790 C1786 0.950 . S
C1791 C1789 1.390 . S
C1791 C1792 1.387 . S
C1791 H1794 0.950 . S
C1792 C1791 1.387 . S
C1792 C1795 1.387 . S
H1793 C1789 0.950 . S
H1794 C1791 0.950 . S
C1795 C1786 1.390 . S
C1795 H1788 0.950 . S
C1795 C1792 1.387 . S
C1796 C1797 1.387 . S
C1796 H1800 0.950 . S
C1796 C1805 1.390 . S
C1797 C1796 1.387 . S
C1797 C1799 1.387 . S
H1798 C1805 0.950 . S
C1799 C1797 1.387 . S
C1799 C1801 1.390 . S
C1799 H1803 0.950 . S
H1800 C1796 0.950 . S
C1801 C1799 1.390 . S
C1801 C1802 1.387 . S
C1801 H1804 0.950 . S
C1802 C1801 1.387 . S
C1802 C1805 1.387 . S
H1803 C1799 0.950 . S
H1804 C1801 0.950 . S
C1805 C1796 1.390 . S
C1805 H1798 0.950 . S
C1805 C1802 1.387 . S
C1806 C1807 1.387 . S
C1806 H1810 0.950 . S
C1806 C1815 1.390 . S
C1807 C1806 1.387 . S
C1807 C1809 1.387 . S
H1808 C1815 0.950 . S
C1809 C1807 1.387 . S
C1809 C1811 1.390 . S
C1809 H1813 0.950 . S
H1810 C1806 0.950 . S
C1811 C1809 1.390 . S
C1811 C1812 1.387 . S
C1811 H1814 0.950 . S
C1812 C1811 1.387 . S
C1812 C1815 1.387 . S
H1813 C1809 0.950 . S
H1814 C1811 0.950 . S
C1815 C1806 1.390 . S
C1815 H1808 0.950 . S
C1815 C1812 1.387 . S
C1816 C1817 1.387 . S
C1816 H1820 0.950 . S
C1816 C1825 1.390 . S
C1817 C1816 1.387 . S
C1817 C1819 1.387 . S
H1818 C1825 0.950 . S
C1819 C1817 1.387 . S
C1819 C1821 1.390 . S
C1819 H1823 0.950 . S
H1820 C1816 0.950 . S
C1821 C1819 1.390 . S
C1821 C1822 1.387 . S
C1821 H1824 0.950 . S
C1822 C1821 1.387 . S
C1822 C1825 1.387 . S
H1823 C1819 0.950 . S
H1824 C1821 0.950 . S
C1825 C1816 1.390 . S
C1825 H1818 0.950 . S
C1825 C1822 1.387 . S
C1826 C1827 1.387 . S
C1826 H1830 0.950 . S
C1826 C1835 1.390 . S
C1827 C1826 1.387 . S
C1827 C1829 1.387 . S
H1828 C1835 0.950 . S
C1829 C1827 1.387 . S
C1829 C1831 1.390 . S
C1829 H1833 0.950 . S
H1830 C1826 0.950 . S
C1831 C1829 1.390 . S
C1831 C1832 1.387 . S
C1831 H1834 0.950 . S
C1832 C1831 1.387 . S
C1832 C1835 1.387 . S
H1833 C1829 0.950 . S
H1834 C1831 0.950 . S
C1835 C1826 1.390 . S
C1835 H1828 0.950 . S
C1835 C1832 1.387 . S
C1836 C1837 1.387 . S
C1836 H1840 0.950 . S
C1836 C1845 1.390 . S
C1837 C1836 1.387 . S
C1837 C1839 1.387 1_455 S
H1838 C1845 0.950 . S
C1839 C1837 1.387 1_655 S
C1839 C1841 1.390 . S
C1839 H1843 0.950 . S
H1840 C1836 0.950 . S
C1841 C1839 1.390 . S
C1841 C1842 1.387 1_655 S
C1841 H1844 0.950 . S
C1842 C1841 1.387 1_455 S
C1842 C1845 1.387 . S
H1843 C1839 0.950 . S
H1844 C1841 0.950 . S
C1845 C1836 1.390 . S
C1845 H1838 0.950 . S
C1845 C1842 1.387 . S
C1846 C1847 1.387 . S
C1846 H1850 0.950 . S
C1846 C1855 1.390 . S
C1847 C1846 1.387 . S
C1847 C1849 1.387 . S
H1848 C1855 0.950 . S
C1849 C1847 1.387 . S
C1849 C1851 1.390 . S
C1849 H1853 0.950 . S
H1850 C1846 0.950 . S
C1851 C1849 1.390 . S
C1851 C1852 1.387 . S
C1851 H1854 0.950 . S
C1852 C1851 1.387 . S
C1852 C1855 1.387 . S
H1853 C1849 0.950 . S
H1854 C1851 0.950 . S
C1855 C1846 1.390 . S
C1855 H1848 0.950 . S
C1855 C1852 1.387 . S
C1856 C1857 1.387 . S
C1856 H1860 0.950 . S
C1856 C1865 1.390 . S
C1857 C1856 1.387 . S
C1857 C1859 1.387 . S
H1858 C1865 0.950 . S
C1859 C1857 1.387 . S
C1859 C1861 1.390 . S
C1859 H1863 0.950 . S
H1860 C1856 0.950 . S
C1861 C1859 1.390 . S
C1861 C1862 1.387 . S
C1861 H1864 0.950 . S
C1862 C1861 1.387 . S
C1862 C1865 1.387 . S
H1863 C1859 0.950 . S
H1864 C1861 0.950 . S
C1865 C1856 1.390 . S
C1865 H1858 0.950 . S
C1865 C1862 1.387 . S
C1866 C1867 1.387 . S
C1866 H1870 0.950 . S
C1866 C1875 1.390 . S
C1867 C1866 1.387 . S
C1867 C1869 1.387 1_545 S
H1868 C1875 0.950 . S
C1869 C1867 1.387 1_565 S
C1869 C1871 1.390 1_565 S
C1869 H1873 0.950 . S
H1870 C1866 0.950 . S
C1871 C1869 1.390 1_545 S
C1871 C1872 1.387 . S
C1871 H1874 0.950 . S
C1872 C1871 1.387 . S
C1872 C1875 1.387 . S
H1873 C1869 0.950 . S
H1874 C1871 0.950 . S
C1875 C1866 1.390 . S
C1875 H1868 0.950 . S
C1875 C1872 1.387 . S
C1876 C1877 1.387 . S
C1876 H1880 0.950 . S
C1876 C1885 1.390 . S
C1877 C1876 1.387 . S
C1877 C1879 1.387 . S
H1878 C1885 0.950 . S
C1879 C1877 1.387 . S
C1879 C1881 1.390 . S
C1879 H1883 0.950 . S
H1880 C1876 0.950 . S
C1881 C1879 1.390 . S
C1881 C1882 1.387 . S
C1881 H1884 0.950 . S
C1882 C1881 1.387 . S
C1882 C1885 1.387 . S
H1883 C1879 0.950 . S
H1884 C1881 0.950 . S
C1885 C1876 1.390 . S
C1885 H1878 0.950 . S
C1885 C1882 1.387 . S
C1886 C1887 1.387 1_554 S
C1886 H1890 0.950 . S
C1886 C1895 1.390 . S
C1887 C1886 1.387 1_556 S
C1887 C1889 1.387 . S
H1888 C1895 0.950 . S
C1889 C1887 1.387 . S
C1889 C1891 1.390 . S
C1889 H1893 0.950 . S
H1890 C1886 0.950 . S
C1891 C1889 1.390 . S
C1891 C1892 1.387 1_556 S
C1891 H1894 0.950 . S
C1892 C1891 1.387 1_554 S
C1892 C1895 1.387 . S
H1893 C1889 0.950 . S
H1894 C1891 0.950 . S
C1895 C1886 1.390 . S
C1895 H1888 0.950 . S
C1895 C1892 1.387 . S
C1896 C1897 1.387 . S
C1896 H1900 0.950 . S
C1896 C1905 1.390 . S
C1897 C1896 1.387 . S
C1897 C1899 1.387 . S
H1898 C1905 0.950 . S
C1899 C1897 1.387 . S
C1899 C1901 1.390 . S
C1899 H1903 0.950 . S
H1900 C1896 0.950 . S
C1901 C1899 1.390 . S
C1901 C1902 1.387 . S
C1901 H1904 0.950 . S
C1902 C1901 1.387 . S
C1902 C1905 1.387 . S
H1903 C1899 0.950 . S
H1904 C1901 0.950 . S
C1905 C1896 1.390 . S
C1905 H1898 0.950 . S
C1905 C1902 1.387 . S
C1906 C1907 1.387 1_556 S
C1906 H1910 0.950 . S
C1906 C1915 1.390 . S
C1907 C1906 1.387 1_554 S
C1907 C1909 1.387 . S
H1908 C1915 0.950 . S
C1909 C1907 1.387 . S
C1909 C1911 1.390 . S
C1909 H1913 0.950 . S
H1910 C1906 0.950 . S
C1911 C1909 1.390 . S
C1911 C1912 1.387 1_554 S
C1911 H1914 0.950 . S
C1912 C1911 1.387 1_556 S
C1912 C1915 1.387 . S
H1913 C1909 0.950 . S
H1914 C1911 0.950 . S
C1915 C1906 1.390 . S
C1915 H1908 0.950 . S
C1915 C1912 1.387 . S
C1916 C1917 1.387 . S
C1916 H1920 0.950 . S
C1916 C1925 1.390 . S
C1917 C1916 1.387 . S
C1917 C1919 1.387 . S
H1918 C1925 0.950 . S
C1919 C1917 1.387 . S
C1919 C1921 1.390 . S
C1919 H1923 0.950 . S
H1920 C1916 0.950 . S
C1921 C1919 1.390 . S
C1921 C1922 1.387 . S
C1921 H1924 0.950 . S
C1922 C1921 1.387 . S
C1922 C1925 1.387 . S
H1923 C1919 0.950 . S
H1924 C1921 0.950 . S
C1925 C1916 1.390 . S
C1925 H1918 0.950 . S
C1925 C1922 1.387 . S
C1926 C1927 1.387 . S
C1926 H1930 0.950 . S
C1926 C1935 1.390 . S
C1927 C1926 1.387 . S
C1927 C1929 1.387 . S
H1928 C1935 0.950 . S
C1929 C1927 1.387 . S
C1929 C1931 1.390 . S
C1929 H1933 0.950 . S
H1930 C1926 0.950 . S
C1931 C1929 1.390 . S
C1931 C1932 1.387 . S
C1931 H1934 0.950 . S
C1932 C1931 1.387 . S
C1932 C1935 1.387 . S
H1933 C1929 0.950 . S
H1934 C1931 0.950 . S
C1935 C1926 1.390 . S
C1935 H1928 0.950 . S
C1935 C1932 1.387 . S
C977 C109 2.184 . S
C982 C346 2.120 . S
C987 C65 1.886 . S
C992 C385 1.828 . S
C997 C75 1.615 . S
C1002 C426 1.606 1_565 S
C1012 C471 1.504 . S
C1007 C84 1.546 . S
C1017 C25 2.090 . S
C1022 C515 2.078 . S
C1032 C546 1.567 . S
C1027 C28 1.598 . S
C1042 C594 2.036 . S
C1037 C47 2.039 . S
C1047 C9 2.135 . S
C1052 C622 1.980 . S
C1062 C354 1.975 . S
C1057 C233 1.877 . S
C1067 C249 1.593 . S
C1072 C395 1.549 . S
C1082 C434 1.734 . S
C1077 C275 1.662 1_545 S
C1092 C466 1.644 . S
C1087 C173 1.647 . S
C1097 C224 0.541 . S
C1102 C502 0.567 . S
C1112 C554 2.154 . S
C1107 C243 2.167 . S
C1122 C591 1.543 . S
C1117 C266 1.505 . S
C1132 C625 2.002 . S
C1127 C179 1.975 . S
C1142 C351 2.117 . S
C1137 C163 2.236 1_545 S
C1147 C289 1.985 . S
C1152 C665 1.930 . S
C1162 C711 1.622 . S
C1157 C333 1.617 . S
C1172 C746 1.648 1_655 S
C1167 C308 1.682 . S
C1177 C123 2.171 . S
C1182 C635 2.189 . S
C1187 C126 1.522 . S
C1192 C431 1.489 . S
C1197 C327 1.515 . S
C1202 C794 1.635 . S
C1212 C822 0.734 . S
C1207 C299 0.733 . S
C1222 C355 2.134 1_565 S
C1217 C67 2.205 . S
C1232 C834 1.846 . S
C1227 C98 1.854 . S
C1237 C89 1.641 . S
C1242 C435 1.634 . S
C1247 C79 1.605 . S
C1252 C782 1.529 . S
C1262 C506 2.119 . S
C1257 C11 2.122 . S
C1267 C51 1.646 . S
C1272 C715 1.558 . S
C1282 C585 2.062 1_566 S
C1277 C33 2.066 . S
C1292 C871 1.934 1_455 S
C1287 C14 2.058 . S
C1302 C345 1.927 . S
C1297 C140 1.824 . S
C1312 C826 1.570 . S
C1307 C319 1.616 . S
C1317 C112 1.576 . S
C1322 C425 1.750 . S
C1327 C285 1.671 . S
C1332 C795 1.671 . S
C1337 C149 0.565 . S
C1342 C511 0.573 . S
C1352 C705 2.185 . S
C1347 C313 2.200 . S
C1357 C121 1.625 . S
C1362 C582 1.546 . S
C1367 C291 1.997 . S
C1372 C874 2.013 . S
C1377 C182 2.242 1_556 S
C1382 C342 2.078 . S
C1387 C168 1.959 . S
C1392 C674 1.943 . S
C1397 C263 1.657 . S
C1402 C542 1.623 . S
C1407 C247 1.777 . S
C1412 C755 1.682 . S
C1422 C866 2.173 . S
C1417 C277 2.185 . S
C1427 C219 1.584 . S
C1432 C422 1.506 . S
C1442 C465 1.671 . S
C1437 C257 1.561 . S
C1452 C391 0.722 . S
C1447 C201 0.720 . S
C1457 C81 2.185 . S
C1462 C906 2.120 . S
C1472 C825 1.827 . S
C1467 C93 1.886 . S
C1477 C103 1.615 . S
C1482 C946 1.612 . S
C1487 C56 1.549 . S
C1492 C791 1.507 . S
C1497 C53 2.090 . S
C1502 C675 2.078 . S
C1512 C706 1.566 . S
C1507 C0 1.598 . S
C1522 C754 2.037 . S
C1517 C19 2.040 . S
C1532 C862 1.976 . S
C1527 C37 2.133 . S
C1542 C914 1.976 . S
C1537 C261 1.879 . S
C1547 C193 1.594 . S
C1552 C835 1.551 . S
C1562 C954 1.737 . S
C1557 C205 1.667 . S
C1572 C786 1.643 . S
C1567 C215 1.646 . S
C1582 C662 0.567 . S
C1577 C252 0.541 . S
C1587 C187 2.166 . S
C1592 C714 2.148 . S
C1602 C751 1.543 . S
C1597 C196 1.507 . S
C1607 C221 1.975 . S
C1612 C865 2.002 . S
C1622 C911 2.117 . S
C1617 C317 2.236 . S
C1627 C135 1.985 . S
C1632 C505 1.929 . S
C1642 C551 1.622 . S
C1637 C151 1.617 . S
C1652 C586 1.644 . S
C1647 C154 1.680 1_545 S
C1662 C875 2.190 . S
C1657 C305 2.172 . S
C1667 C280 1.525 . S
C1672 C951 1.493 . S
C1682 C474 1.633 . S
C1677 C145 1.513 . S
C1692 C382 0.738 . S
C1687 C117 0.737 . S
C1697 C95 2.205 . S
C1702 C915 2.134 . S
C1712 C394 1.844 . S
C1707 C70 1.852 . S
C1717 C61 1.640 . S
C1722 C955 1.633 . S
C1727 C107 1.605 . S
C1732 C462 1.531 . S
C1737 C39 2.122 . S
C1742 C666 2.118 . S
C1752 C555 1.558 . S
C1747 C23 1.646 . S
C1757 C5 2.065 . S
C1762 C745 2.061 . S
C1767 C42 2.058 . S
C1772 C631 1.934 . S
C1782 C905 1.926 . S
C1777 C322 1.823 . S
C1787 C165 1.616 . S
C1792 C386 1.570 . S
C1802 C945 1.752 . S
C1797 C294 1.577 . S
C1807 C131 1.670 . S
C1812 C475 1.670 . S
C1817 C331 0.569 . S
C1822 C671 0.575 . S
C1832 C545 2.185 . S
C1827 C159 2.200 . S
C1837 C303 1.628 1_455 S
C1842 C742 1.550 . S
C1852 C634 2.013 . S
C1847 C137 1.999 . S
C1862 C902 2.079 . S
C1857 C238 2.243 . S
C1872 C514 1.942 1_655 S
C1867 C210 1.959 1_545 S
C1877 C235 1.658 . S
C1882 C702 1.624 . S
C1892 C595 1.682 . S
C1887 C191 1.776 . S
C1897 C207 2.185 . S
C1902 C626 2.173 . S
C1907 C177 1.584 . S
C1912 C942 1.505 . S
C1922 C785 1.672 . S
C1917 C229 1.561 . S
C1932 C831 0.722 . S
C1927 C271 0.717 . S
