# Generated by pormake.
# Topology anh, (6,3)-cn, num edge types: 1
# Building blocks:
#     Node 0, Type 0, BuildingBlock: BETDEL_clean_sbu_0, # of connection points: 6
#     Node 1, Type 0, BuildingBlock: BETDEL_clean_sbu_0, # of connection points: 6
#     Node 2, Type 0, BuildingBlock: BETDEL_clean_sbu_0, # of connection points: 6
#     Node 3, Type 1, BuildingBlock: OLANEW_clean_sbu_2, # of connection points: 3
#     Node 4, Type 1, BuildingBlock: OLANEW_clean_sbu_2, # of connection points: 3
#     Node 5, Type 1, BuildingBlock: OLANEW_clean_sbu_2, # of connection points: 3
#     Node 6, Type 1, BuildingBlock: OLANEW_clean_sbu_2, # of connection points: 3
#     Node 7, Type 1, BuildingBlock: OLANEW_clean_sbu_2, # of connection points: 3
#     Node 8, Type 1, BuildingBlock: OLANEW_clean_sbu_2, # of connection points: 3
#     Edge 9, Type (0, 1), BuildingBlock: XUDNAN_clean_linker_2, # of connection points: 2
#     Edge 10, Type (0, 1), BuildingBlock: XUDNAN_clean_linker_2, # of connection points: 2
#     Edge 11, Type (0, 1), BuildingBlock: XUDNAN_clean_linker_2, # of connection points: 2
#     Edge 12, Type (0, 1), BuildingBlock: XUDNAN_clean_linker_2, # of connection points: 2
#     Edge 13, Type (0, 1), BuildingBlock: XUDNAN_clean_linker_2, # of connection points: 2
#     Edge 14, Type (0, 1), BuildingBlock: XUDNAN_clean_linker_2, # of connection points: 2
#     Edge 15, Type (0, 1), BuildingBlock: XUDNAN_clean_linker_2, # of connection points: 2
#     Edge 16, Type (0, 1), BuildingBlock: XUDNAN_clean_linker_2, # of connection points: 2
#     Edge 17, Type (0, 1), BuildingBlock: XUDNAN_clean_linker_2, # of connection points: 2
#     Edge 18, Type (0, 1), BuildingBlock: XUDNAN_clean_linker_2, # of connection points: 2
#     Edge 19, Type (0, 1), BuildingBlock: XUDNAN_clean_linker_2, # of connection points: 2
#     Edge 20, Type (0, 1), BuildingBlock: XUDNAN_clean_linker_2, # of connection points: 2
#     Edge 21, Type (0, 1), BuildingBlock: XUDNAN_clean_linker_2, # of connection points: 2
#     Edge 22, Type (0, 1), BuildingBlock: XUDNAN_clean_linker_2, # of connection points: 2
#     Edge 23, Type (0, 1), BuildingBlock: XUDNAN_clean_linker_2, # of connection points: 2
#     Edge 24, Type (0, 1), BuildingBlock: XUDNAN_clean_linker_2, # of connection points: 2
#     Edge 25, Type (0, 1), BuildingBlock: XUDNAN_clean_linker_2, # of connection points: 2
#     Edge 26, Type (0, 1), BuildingBlock: XUDNAN_clean_linker_2, # of connection points: 2
# Relax obj value: 0.082
# Max RMSD: 0.105
# Mean RMSD: 0.101
data_MOF--net-anh--node1-BETDEL_clean_sbu_0--node2-OLANEW_clean_sbu_2--edge1-XUDNAN_clean_linker_2
_symmetry_space_group_name_H-M    P1
_symmetry_Int_Tables_number       1
_symmetry_cell_setting            triclinic
loop_
_symmetry_equiv_pos_as_xyz
'x, y, z'
_cell_length_a     33.184014
_cell_length_b     33.199277
_cell_length_c     49.467153
_cell_angle_alpha  89.591619
_cell_angle_beta   89.845602
_cell_angle_gamma 119.99275
loop_
_atom_site_label
_atom_site_type_symbol
_atom_site_fract_x
_atom_site_fract_y
_atom_site_fract_z
_atom_type_partial_charge
Dy0 Dy 0.02722 0.45355 0.16605 0.0
C1 C 0.88633 0.50211 0.18127 0.0
C2 C 0.09767 0.43548 0.15607 0.0
Dy3 Dy 0.95977 0.4915 0.16638 0.0
O4 O 0.06995 0.42047 0.17686 0.0
O5 O 0.08629 0.45963 0.14034 0.0
O6 O 0.01412 0.43697 0.21058 0.0
O7 O 0.01044 0.4932 0.19441 0.0
C8 C 0.00337 0.46882 0.21529 0.0
C9 C 0.9861 0.48086 0.11722 0.0
O10 O 0.02649 0.55877 0.1717 0.0
O11 O 0.07369 0.52991 0.15689 0.0
O12 O 0.91097 0.51936 0.15933 0.0
O13 O 0.90309 0.48082 0.19535 0.0
O14 O 0.9741 0.51168 0.12274 0.0
O15 O 0.97804 0.45396 0.1372 0.0
O16 O 0.96113 0.38604 0.15995 0.0
O17 O 0.9127 0.41447 0.17243 0.0
C18 C 0.06722 0.56523 0.16291 0.0
C19 C 0.91954 0.37934 0.16682 0.0
Dy20 Dy 0.47183 0.01297 0.50064 0.0
C21 C 0.67015 0.13037 0.52428 0.0
C22 C 0.38303 0.9441 0.49097 0.0
Dy23 Dy 0.58308 0.07374 0.50492 0.0
O24 O 0.41159 0.9416 0.50781 0.0
O25 O 0.40269 0.98502 0.47934 0.0
O26 O 0.46698 0.02823 0.54452 0.0
O27 O 0.52523 0.02574 0.53041 0.0
C28 C 0.50806 0.03505 0.55041 0.0
C29 C 0.55489 0.07231 0.4538 0.0
O30 O 0.5721 0.00155 0.50469 0.0
O31 O 0.49821 0.9666 0.48548 0.0
O32 O 0.6594 0.0972 0.50694 0.0
O33 O 0.63294 0.13116 0.5317 0.0
O34 O 0.59831 0.09504 0.46087 0.0
O35 O 0.53083 0.0521 0.47434 0.0
O36 O 0.48153 0.08441 0.49558 0.0
O37 O 0.55755 0.12385 0.51229 0.0
C38 C 0.53625 0.96576 0.49291 0.0
C39 C 0.51908 0.12287 0.50384 0.0
Dy40 Dy 0.60124 0.6022 0.82996 0.0
C41 C 0.53163 0.4097 0.86532 0.0
C42 C 0.61565 0.68876 0.81855 0.0
Dy43 Dy 0.55245 0.49196 0.84112 0.0
O44 O 0.5901 0.66188 0.83813 0.0
O45 O 0.63454 0.66873 0.805 0.0
O46 O 0.63743 0.61436 0.86963 0.0
O47 O 0.57197 0.5545 0.86456 0.0
C48 C 0.6062 0.57503 0.88019 0.0
C49 C 0.56053 0.51285 0.78777 0.0
O50 O 0.49155 0.50278 0.84684 0.0
O51 O 0.52478 0.57353 0.82333 0.0
O52 O 0.50706 0.41458 0.84644 0.0
O53 O 0.56646 0.45012 0.87158 0.0
O54 O 0.54103 0.47031 0.79687 0.0
O55 O 0.5738 0.53915 0.80773 0.0
O56 O 0.66046 0.59107 0.81887 0.0
O57 O 0.62922 0.51784 0.83971 0.0
C58 C 0.48851 0.53721 0.83494 0.0
C59 C 0.66432 0.55541 0.82819 0.0
O60 O 0.50849 0.04702 0.24551 0.0
Cd61 Cd 0.51824 0.03588 0.19768 0.0
O62 O 0.44495 0.98304 0.25889 0.0
Cd63 Cd 0.42363 0.94866 0.21985 0.0
O64 O 0.37349 0.89081 0.19529 0.0
C65 C 0.33096 0.87203 0.20239 0.0
O66 O 0.3198 0.88947 0.22295 0.0
C67 C 0.47959 0.02276 0.26402 0.0
C68 C 0.61091 0.09988 0.18393 0.0
O69 O 0.57913 0.11102 0.18275 0.0
O70 O 0.59877 0.05802 0.19082 0.0
O71 O 0.50002 0.49723 0.58294 0.0
Cd72 Cd 0.47513 0.47473 0.53623 0.0
O73 O 0.53402 0.57362 0.57835 0.0
Cd74 Cd 0.51791 0.58158 0.53659 0.0
O75 O 0.51526 0.63593 0.51263 0.0
C76 C 0.54253 0.67726 0.52045 0.0
O77 O 0.57065 0.68362 0.54068 0.0
C78 C 0.52285 0.53776 0.5929 0.0
C79 C 0.49186 0.40309 0.52127 0.0
O80 O 0.52252 0.44602 0.51771 0.0
O81 O 0.45259 0.39367 0.53158 0.0
O82 O 0.06489 0.45923 0.90979 0.0
Cd83 Cd 0.07756 0.46097 0.86103 0.0
O84 O 0.03293 0.5038 0.91221 0.0
Cd85 Cd 0.02214 0.51591 0.86994 0.0
O86 O 0.97583 0.53393 0.84779 0.0
C87 C 0.9345 0.5145 0.85712 0.0
O88 O 0.92347 0.48488 0.87737 0.0
C89 C 0.04845 0.47988 0.92368 0.0
C90 C 0.17056 0.48749 0.85038 0.0
O91 O 0.1567 0.51727 0.85029 0.0
O92 O 0.14035 0.44485 0.85522 0.0
O93 O 0.01916 0.52549 0.4209 0.0
Cd94 Cd 0.03144 0.54676 0.4686 0.0
O95 O 0.96007 0.53801 0.42008 0.0
Cd96 Cd 0.94766 0.52132 0.46321 0.0
O97 O 0.91491 0.46153 0.49088 0.0
C98 C 0.92997 0.43303 0.49046 0.0
O99 O 0.96651 0.44303 0.47536 0.0
C100 C 0.98954 0.53103 0.40758 0.0
C101 C 0.0996 0.64062 0.47232 0.0
O102 O 0.10988 0.60841 0.47517 0.0
O103 O 0.05694 0.62854 0.46818 0.0
O104 O 0.546 0.0461 0.75711 0.0
Cd105 Cd 0.55404 0.032 0.80473 0.0
O106 O 0.62119 0.09574 0.75553 0.0
Cd107 Cd 0.6213 0.11044 0.79857 0.0
O108 O 0.60572 0.1474 0.82964 0.0
C109 C 0.56895 0.14967 0.82612 0.0
O110 O 0.54214 0.12767 0.80554 0.0
C111 C 0.58291 0.07085 0.7434 0.0
C112 C 0.58244 0.96568 0.80646 0.0
O113 O 0.53963 0.95394 0.80985 0.0
O114 O 0.61209 0.00892 0.80301 0.0
O115 O 0.51333 0.43481 0.07321 0.0
Cd116 Cd 0.49139 0.41789 0.12092 0.0
O117 O 0.55077 0.50894 0.08399 0.0
Cd118 Cd 0.50476 0.49643 0.11847 0.0
O119 O 0.43637 0.47546 0.13571 0.0
C120 C 0.41001 0.48465 0.12154 0.0
O121 O 0.42586 0.50686 0.0984 0.0
C122 C 0.54242 0.47691 0.06717 0.0
C123 C 0.57136 0.43581 0.14915 0.0
O124 O 0.53961 0.39398 0.1442 0.0
O125 O 0.5649 0.46904 0.14149 0.0
H126 H 0.16516 0.47539 0.117 0.0
H127 H 0.12582 0.38827 0.18901 0.0
H128 H 0.20061 0.38895 0.18721 0.0
H129 H 0.22777 0.42441 0.08303 0.0
H130 H 0.27183 0.47975 0.06956 0.0
H131 H 0.21368 0.46911 0.0754 0.0
H132 H 0.24666 0.54236 0.10542 0.0
H133 H 0.30482 0.55297 0.09991 0.0
H134 H 0.28268 0.54737 0.13387 0.0
H135 H 0.28203 0.40412 0.17953 0.0
H136 H 0.3627 0.42943 0.16517 0.0
H137 H 0.34853 0.50635 0.09803 0.0
C138 C 0.17197 0.45572 0.13205 0.0
C139 C 0.13977 0.43155 0.15306 0.0
C140 C 0.15003 0.40678 0.17266 0.0
C141 C 0.1924 0.40703 0.17183 0.0
C142 C 0.22396 0.43209 0.1512 0.0
C143 C 0.2141 0.45565 0.13152 0.0
C144 C 0.25471 0.48141 0.11217 0.0
C145 C 0.24118 0.46252 0.08333 0.0
C146 C 0.27331 0.53414 0.1129 0.0
C147 C 0.28916 0.4692 0.12426 0.0
C148 C 0.27077 0.44068 0.14673 0.0
C149 C 0.29667 0.42609 0.1618 0.0
C150 C 0.3425 0.44079 0.15355 0.0
C151 C 0.3619 0.46974 0.13044 0.0
C152 C 0.33467 0.48398 0.11569 0.0
H153 H 0.6948 0.2175 0.54042 0.0
H154 H 0.75201 0.13164 0.51498 0.0
H155 H 0.83033 0.20149 0.51198 0.0
H156 H 0.75178 0.30129 0.49397 0.0
H157 H 0.76155 0.3501 0.51437 0.0
H158 H 0.71334 0.29333 0.52188 0.0
H159 H 0.74271 0.29822 0.57088 0.0
H160 H 0.79096 0.35551 0.56364 0.0
H161 H 0.80147 0.31071 0.57657 0.0
H162 H 0.89843 0.28082 0.50394 0.0
H163 H 0.94993 0.36241 0.48998 0.0
H164 H 0.84722 0.39712 0.51834 0.0
C165 C 0.72423 0.21319 0.53547 0.0
C166 C 0.71776 0.16923 0.52843 0.0
C167 C 0.75658 0.16502 0.52088 0.0
C168 C 0.80113 0.2045 0.51916 0.0
C169 C 0.80607 0.24783 0.52499 0.0
C170 C 0.76862 0.25235 0.53312 0.0
C171 C 0.7813 0.30297 0.53391 0.0
C172 C 0.75016 0.31244 0.5149 0.0
C173 C 0.77898 0.31772 0.56298 0.0
C174 C 0.83102 0.32615 0.52367 0.0
C175 C 0.84506 0.29388 0.51934 0.0
C176 C 0.88814 0.30649 0.50775 0.0
C177 C 0.91714 0.35299 0.4998 0.0
C178 C 0.90268 0.38626 0.50308 0.0
C179 C 0.85956 0.37271 0.51586 0.0
H180 H 0.55586 0.71711 0.83419 0.0
H181 H 0.68396 0.76223 0.78926 0.0
H182 H 0.6906 0.83946 0.78162 0.0
H183 H 0.51173 0.77418 0.79108 0.0
H184 H 0.48514 0.7877 0.81873 0.0
H185 H 0.49161 0.73703 0.82064 0.0
H186 H 0.5362 0.76649 0.8657 0.0
H187 H 0.53017 0.8174 0.86386 0.0
H188 H 0.58711 0.82359 0.86689 0.0
H189 H 0.68427 0.91319 0.78134 0.0
H190 H 0.66203 0.97398 0.78426 0.0
H191 H 0.53539 0.87713 0.82701 0.0
C192 C 0.58537 0.74326 0.82274 0.0
C193 C 0.61972 0.73417 0.8125 0.0
C194 C 0.6574 0.76881 0.79727 0.0
C195 C 0.66145 0.81266 0.79294 0.0
C196 C 0.62707 0.82067 0.80363 0.0
C197 C 0.5894 0.78656 0.81786 0.0
C198 C 0.55634 0.80299 0.8266 0.0
C199 C 0.50838 0.77374 0.81347 0.0
C200 C 0.55224 0.8026 0.8576 0.0
C201 C 0.58144 0.85205 0.81538 0.0
C202 C 0.62239 0.86187 0.80242 0.0
C203 C 0.65208 0.90567 0.79123 0.0
C204 C 0.63928 0.94002 0.79311 0.0
C205 C 0.59689 0.93016 0.80575 0.0
C206 C 0.56781 0.88557 0.81703 0.0
H207 H 0.84486 0.54351 0.15367 0.0
H208 H 0.82224 0.4456 0.21849 0.0
H209 H 0.73936 0.42316 0.22052 0.0
H210 H 0.75899 0.57761 0.17966 0.0
H211 H 0.74149 0.58227 0.14586 0.0
H212 H 0.80027 0.59529 0.15214 0.0
H213 H 0.79113 0.53512 0.11609 0.0
H214 H 0.73228 0.52147 0.10993 0.0
H215 H 0.74416 0.47589 0.11934 0.0
H216 H 0.65735 0.40079 0.20958 0.0
H217 H 0.58289 0.38754 0.19035 0.0
H218 H 0.65867 0.50433 0.13552 0.0
C219 C 0.82272 0.51856 0.16889 0.0
C220 C 0.83987 0.49642 0.186 0.0
C221 C 0.80985 0.46331 0.20537 0.0
C222 C 0.76267 0.45023 0.20664 0.0
C223 C 0.74634 0.4714 0.18882 0.0
C224 C 0.77562 0.5057 0.17076 0.0
C225 C 0.74868 0.52099 0.15281 0.0
C226 C 0.76322 0.57207 0.15793 0.0
C227 C 0.75441 0.51286 0.12278 0.0
C228 C 0.69954 0.48851 0.16279 0.0
C229 C 0.69894 0.46012 0.18356 0.0
C230 C 0.65737 0.42375 0.19393 0.0
C231 C 0.61533 0.41629 0.18283 0.0
C232 C 0.6153 0.44555 0.16195 0.0
C233 C 0.65789 0.48243 0.15209 0.0
H234 H 0.35059 0.85396 0.50465 0.0
H235 H 0.31066 0.94501 0.46439 0.0
H236 H 0.23216 0.87723 0.45602 0.0
H237 H 0.29214 0.75864 0.45922 0.0
H238 H 0.27627 0.71507 0.48535 0.0
H239 H 0.32799 0.77099 0.48877 0.0
H240 H 0.29781 0.78212 0.53492 0.0
H241 H 0.24591 0.72629 0.53161 0.0
H242 H 0.24142 0.77757 0.53689 0.0
H243 H 0.15714 0.79852 0.45342 0.0
H244 H 0.09472 0.71592 0.45342 0.0
H245 H 0.18704 0.67741 0.49329 0.0
C246 C 0.32526 0.85973 0.49418 0.0
C247 C 0.3363 0.90463 0.48535 0.0
C248 C 0.30262 0.91078 0.47136 0.0
C249 C 0.25806 0.87255 0.46661 0.0
C250 C 0.24824 0.82859 0.47571 0.0
C251 C 0.28119 0.82209 0.48895 0.0
C252 C 0.26295 0.7714 0.49587 0.0
C253 C 0.29153 0.75295 0.48143 0.0
C254 C 0.26196 0.76393 0.52665 0.0
C255 C 0.21435 0.75013 0.48458 0.0
C256 C 0.20623 0.78361 0.47327 0.0
C257 C 0.16329 0.77207 0.46209 0.0
C258 C 0.12802 0.72511 0.46226 0.0
C259 C 0.13613 0.69026 0.47324 0.0
C260 C 0.17989 0.70319 0.48457 0.0
H261 H 0.47742 0.32562 0.84194 0.0
H262 H 0.5837 0.39524 0.90253 0.0
H263 H 0.59534 0.32741 0.90496 0.0
H264 H 0.43329 0.20108 0.86731 0.0
H265 H 0.4256 0.18053 0.83303 0.0
H266 H 0.41713 0.22861 0.84134 0.0
H267 H 0.47712 0.27873 0.80433 0.0
H268 H 0.48637 0.23137 0.7962 0.0
H269 H 0.53501 0.28679 0.80551 0.0
H270 H 0.60736 0.26079 0.89354 0.0
H271 H 0.61621 0.19964 0.87076 0.0
H272 H 0.50205 0.17329 0.81752 0.0
C273 C 0.50149 0.32557 0.85666 0.0
C274 C 0.52936 0.36533 0.87223 0.0
C275 C 0.56165 0.3648 0.89065 0.0
C276 C 0.56848 0.3264 0.89215 0.0
C277 C 0.54235 0.28868 0.87532 0.0
C278 C 0.50886 0.28763 0.85825 0.0
C279 C 0.49007 0.24624 0.83958 0.0
C280 C 0.43845 0.21208 0.84569 0.0
C281 C 0.49764 0.26174 0.80966 0.0
C282 C 0.52012 0.22579 0.84765 0.0
C283 C 0.54942 0.25013 0.86867 0.0
C284 C 0.58374 0.24069 0.87758 0.0
C285 C 0.58867 0.20602 0.86442 0.0
C286 C 0.55966 0.18145 0.84245 0.0
C287 C 0.52427 0.19084 0.83454 0.0
H288 H 0.59159 0.93766 0.51843 0.0
H289 H 0.48066 0.89361 0.45977 0.0
H290 H 0.47511 0.81683 0.45725 0.0
H291 H 0.64544 0.87231 0.49027 0.0
H292 H 0.65759 0.85809 0.52337 0.0
H293 H 0.65684 0.91146 0.51799 0.0
H294 H 0.59557 0.88825 0.55634 0.0
H295 H 0.59595 0.83481 0.56174 0.0
H296 H 0.542 0.83338 0.55465 0.0
H297 H 0.47668 0.74248 0.46412 0.0
H298 H 0.48489 0.67636 0.48036 0.0
H299 H 0.594 0.7687 0.53487 0.0
C300 C 0.56697 0.91231 0.50453 0.0
C301 C 0.53682 0.92182 0.48916 0.0
C302 C 0.50425 0.88721 0.47171 0.0
C303 C 0.5009 0.84349 0.47006 0.0
C304 C 0.53038 0.83484 0.48595 0.0
C305 C 0.56291 0.86832 0.50279 0.0
C306 C 0.58785 0.84901 0.51935 0.0
C307 C 0.64003 0.87422 0.51231 0.0
C308 C 0.57983 0.85151 0.54981 0.0
C309 C 0.56354 0.79921 0.50965 0.0
C310 C 0.53088 0.79183 0.49016 0.0
C311 C 0.50255 0.74798 0.47915 0.0
C312 C 0.50742 0.71061 0.48851 0.0
C313 C 0.54015 0.71729 0.50883 0.0
C314 C 0.56889 0.76241 0.51917 0.0
H315 H 0.68806 0.49868 0.85521 0.0
H316 H 0.74407 0.61628 0.79954 0.0
H317 H 0.81953 0.61751 0.79915 0.0
H318 H 0.79 0.5381 0.89442 0.0
H319 H 0.78115 0.4805 0.89997 0.0
H320 H 0.73195 0.4885 0.89472 0.0
H321 H 0.70519 0.43064 0.85491 0.0
H322 H 0.75437 0.42248 0.85995 0.0
H323 H 0.74485 0.44069 0.82733 0.0
H324 H 0.88973 0.605 0.80575 0.0
H325 H 0.94752 0.5826 0.81999 0.0
H326 H 0.84303 0.47428 0.87161 0.0
C327 C 0.71587 0.5246 0.84266 0.0
C328 C 0.70991 0.5572 0.8272 0.0
C329 C 0.74774 0.59088 0.8115 0.0
C330 C 0.79066 0.59173 0.81113 0.0
C331 C 0.79512 0.55885 0.82666 0.0
C332 C 0.75861 0.52611 0.84221 0.0
C333 C 0.77204 0.49545 0.85792 0.0
C334 C 0.7686 0.501 0.88857 0.0
C335 C 0.74236 0.4443 0.84951 0.0
C336 C 0.822 0.5158 0.8488 0.0
C337 C 0.83489 0.55222 0.8307 0.0
C338 C 0.87986 0.57649 0.81989 0.0
C339 C 0.91242 0.56346 0.82804 0.0
C340 C 0.89987 0.52667 0.84692 0.0
C341 C 0.85388 0.50252 0.85714 0.0
H342 H 0.08298 0.64228 0.19165 0.0
H343 H 0.1445 0.59445 0.13146 0.0
H344 H 0.21643 0.67087 0.13188 0.0
H345 H 0.139 0.76515 0.16817 0.0
H346 H 0.14758 0.78696 0.20218 0.0
H347 H 0.09873 0.7306 0.19463 0.0
H348 H 0.12496 0.6933 0.23174 0.0
H349 H 0.1739 0.74939 0.23933 0.0
H350 H 0.18309 0.702 0.2305 0.0
H351 H 0.28389 0.74968 0.14155 0.0
H352 H 0.34265 0.82489 0.16057 0.0
H353 H 0.23807 0.82117 0.21513 0.0
C354 C 0.11117 0.64835 0.17807 0.0
C355 C 0.10807 0.61261 0.16137 0.0
C356 C 0.14614 0.62141 0.1444 0.0
C357 C 0.18708 0.66476 0.1444 0.0
C358 C 0.1895 0.69898 0.16153 0.0
C359 C 0.15258 0.69136 0.17804 0.0
C360 C 0.16565 0.73261 0.19619 0.0
C361 C 0.13597 0.75516 0.18991 0.0
C362 C 0.16167 0.71846 0.22621 0.0
C363 C 0.21592 0.76407 0.18772 0.0
C364 C 0.2288 0.74428 0.16746 0.0
C365 C 0.2741 0.7658 0.15721 0.0
C366 C 0.30726 0.80849 0.16817 0.0
C367 C 0.29502 0.82903 0.1893 0.0
C368 C 0.24852 0.80663 0.19886 0.0
H369 H 0.44842 0.1426 0.51358 0.0
H370 H 0.59418 0.20554 0.49103 0.0
H371 H 0.60107 0.28282 0.49029 0.0
H372 H 0.423 0.2221 0.47445 0.0
H373 H 0.38597 0.22448 0.50036 0.0
H374 H 0.39078 0.17304 0.49684 0.0
H375 H 0.41507 0.17894 0.54702 0.0
H376 H 0.41042 0.23039 0.55067 0.0
H377 H 0.46408 0.23201 0.55891 0.0
H378 H 0.594 0.3532 0.49349 0.0
H379 H 0.57413 0.41403 0.50254 0.0
H380 H 0.43363 0.30785 0.52494 0.0
C381 C 0.48146 0.17266 0.50809 0.0
C382 C 0.52074 0.16814 0.50226 0.0
C383 C 0.5637 0.20827 0.49566 0.0
C384 C 0.56795 0.25233 0.49505 0.0
C385 C 0.52897 0.25589 0.50127 0.0
C386 C 0.48656 0.21735 0.5078 0.0
C387 C 0.45123 0.23178 0.51543 0.0
C388 C 0.41032 0.21165 0.49558 0.0
C389 C 0.43422 0.21743 0.54475 0.0
C390 C 0.48067 0.2843 0.5124 0.0
C391 C 0.52521 0.29721 0.50389 0.0
C392 C 0.55918 0.34361 0.50006 0.0
C393 C 0.54752 0.37794 0.50527 0.0
C394 C 0.50235 0.36584 0.51445 0.0
C395 C 0.46843 0.31826 0.51786 0.0
H396 H 0.40103 0.46615 0.85061 0.0
H397 H 0.47394 0.60754 0.81865 0.0
H398 H 0.40081 0.60905 0.8185 0.0
H399 H 0.29507 0.42828 0.8121 0.0
H400 H 0.25715 0.39296 0.8392 0.0
H401 H 0.31536 0.40221 0.83667 0.0
H402 H 0.33203 0.43367 0.88556 0.0
H403 H 0.27389 0.42453 0.88824 0.0
H404 H 0.32318 0.48129 0.89441 0.0
H405 H 0.32113 0.59723 0.82295 0.0
H406 H 0.23827 0.57141 0.83076 0.0
H407 H 0.21498 0.43709 0.85876 0.0
C408 C 0.40156 0.49734 0.84351 0.0
C409 C 0.44346 0.53663 0.83459 0.0
C410 C 0.4425 0.57678 0.82546 0.0
C411 C 0.40104 0.57812 0.82532 0.0
C412 C 0.36052 0.539 0.83423 0.0
C413 C 0.36021 0.49925 0.84306 0.0
C414 C 0.31153 0.46217 0.85162 0.0
C415 C 0.29373 0.41884 0.83383 0.0
C416 C 0.31009 0.4497 0.88175 0.0
C417 C 0.28483 0.48755 0.84638 0.0
C418 C 0.31392 0.53186 0.83641 0.0
C419 C 0.29787 0.56251 0.83061 0.0
C420 C 0.25074 0.54753 0.83516 0.0
C421 C 0.22007 0.50221 0.84526 0.0
C422 C 0.23746 0.47182 0.85081 0.0
H423 H 0.8282 0.35581 0.17057 0.0
H424 H 0.91745 0.29533 0.1641 0.0
H425 H 0.84783 0.21653 0.16617 0.0
H426 H 0.7472 0.27432 0.2174 0.0
H427 H 0.6976 0.274 0.2024 0.0
H428 H 0.75429 0.32506 0.19957 0.0
H429 H 0.74691 0.3232 0.14745 0.0
H430 H 0.69013 0.2721 0.15002 0.0
H431 H 0.73469 0.27123 0.12954 0.0
H432 H 0.76767 0.14413 0.17122 0.0
H433 H 0.68463 0.08493 0.17753 0.0
H434 H 0.64924 0.19428 0.17924 0.0
C435 C 0.83336 0.32612 0.16951 0.0
C436 C 0.87842 0.33181 0.16725 0.0
C437 C 0.88331 0.29186 0.16579 0.0
C438 C 0.84396 0.24699 0.16697 0.0
C439 C 0.80007 0.24277 0.16936 0.0
C440 C 0.79468 0.28137 0.17044 0.0
C441 C 0.74402 0.26785 0.17323 0.0
C442 C 0.73529 0.2864 0.19972 0.0
C443 C 0.72801 0.28458 0.14859 0.0
C444 C 0.72152 0.21542 0.17389 0.0
C445 C 0.75432 0.20152 0.17166 0.0
C446 C 0.74172 0.15467 0.17275 0.0
C447 C 0.69448 0.1213 0.17636 0.0
C448 C 0.66037 0.13491 0.17868 0.0
C449 C 0.67431 0.18264 0.1772 0.0
H450 H 0.99222 0.52991 0.07183 0.0
H451 H 0.01198 0.41777 0.10144 0.0
H452 H 0.03467 0.40761 0.05524 0.0
H453 H 0.94053 0.47775 0.00981 0.0
H454 H 0.96749 0.53167 0.99091 0.0
H455 H 0.9561 0.53167 0.02649 0.0
H456 H 0.04317 0.59144 0.03442 0.0
H457 H 0.05486 0.59161 0.99883 0.0
H458 H 0.08707 0.57841 0.02314 0.0
H459 H 0.05304 0.40899 0.00498 0.0
H460 H 0.06236 0.41941 0.95532 0.0
H461 H 0.02807 0.52944 0.95961 0.0
C462 C 1.00164 0.50341 0.06866 0.0
C463 C 1.00056 0.47469 0.0901 0.0
C464 C 0.01277 0.44019 0.08518 0.0
C465 C 0.02574 0.43427 0.05907 0.0
C466 C 0.02612 0.46309 0.03825 0.0
C467 C 0.01425 0.49688 0.04283 0.0
C468 C 0.01535 0.52208 0.01703 0.0
C469 C 0.96699 0.51536 0.01069 0.0
C470 C 0.05232 0.57395 0.01845 0.0
C471 C 0.02916 0.49687 0.99703 0.0
C472 C 0.03572 0.46329 0.00959 0.0
C473 C 0.04809 0.43528 0.99498 0.0
C474 C 0.05337 0.4415 0.96679 0.0
C475 C 0.04583 0.47516 0.95353 0.0
C476 C 0.03398 0.50332 0.96905 0.0
H477 H 0.4852 0.00265 0.42429 0.0
H478 H 0.58996 0.14886 0.42248 0.0
H479 H 0.57291 0.15408 0.37455 0.0
H480 H 0.51541 0.97744 0.36309 0.0
H481 H 0.45761 0.93584 0.3521 0.0
H482 H 0.46996 0.94507 0.38761 0.0
H483 H 0.40387 0.96426 0.39377 0.0
H484 H 0.39093 0.95463 0.35823 0.0
H485 H 0.40348 0.00904 0.37314 0.0
H486 H 0.55455 0.1417 0.32634 0.0
H487 H 0.53528 0.1124 0.27987 0.0
H488 H 0.44307 0.97324 0.31129 0.0
C489 C 0.50305 0.03598 0.41392 0.0
C490 C 0.53831 0.07559 0.4269 0.0
C491 C 0.56254 0.11835 0.41272 0.0
C492 C 0.55296 0.12168 0.38559 0.0
C493 C 0.51925 0.08177 0.37289 0.0
C494 C 0.49443 0.03968 0.3865 0.0
C495 C 0.46457 1.001 0.3671 0.0
C496 C 0.4777 0.9626 0.3675 0.0
C497 C 0.41262 0.98106 0.37344 0.0
C498 C 0.47807 0.02767 0.34046 0.0
C499 C 0.50903 0.07433 0.34442 0.0
C500 C 0.52962 0.10543 0.32293 0.0
C501 C 0.51868 0.08838 0.2966 0.0
C502 C 0.48753 0.04062 0.29194 0.0
C503 C 0.46638 0.01009 0.31422 0.0
H504 H 0.52564 0.4556 0.74458 0.0
H505 H 0.59952 0.60101 0.76689 0.0
H506 H 0.60046 0.62358 0.71894 0.0
H507 H 0.58427 0.46911 0.68026 0.0
H508 H 0.53237 0.42571 0.6638 0.0
H509 H 0.53943 0.42146 0.69961 0.0
H510 H 0.46114 0.41879 0.70863 0.0
H511 H 0.45386 0.42307 0.67287 0.0
H512 H 0.45253 0.46471 0.6955 0.0
H513 H 0.59103 0.62966 0.66885 0.0
H514 H 0.57162 0.61951 0.6204 0.0
H515 H 0.50319 0.46954 0.63105 0.0
C516 C 0.54233 0.4922 0.73931 0.0
C517 C 0.56267 0.52672 0.75926 0.0
C518 C 0.5839 0.5742 0.75177 0.0
C519 C 0.5846 0.58725 0.72464 0.0
C520 C 0.56393 0.55228 0.70541 0.0
C521 C 0.54322 0.50573 0.7124 0.0
C522 C 0.52227 0.47493 0.68805 0.0
C523 C 0.54602 0.44611 0.68261 0.0
C524 C 0.46931 0.44354 0.69148 0.0
C525 C 0.53406 0.5114 0.66623 0.0
C526 C 0.55827 0.55577 0.67664 0.0
C527 C 0.57225 0.5951 0.66046 0.0
C528 C 0.561 0.58889 0.63294 0.0
C529 C 0.53586 0.54368 0.62184 0.0
C530 C 0.52253 0.50454 0.63882 0.0
H531 H 0.46606 0.03451 0.59815 0.0
H532 H 0.59605 0.05652 0.5639 0.0
H533 H 0.63085 0.07251 0.60941 0.0
H534 H 0.51409 0.11978 0.65178 0.0
H535 H 0.46995 0.08314 0.676 0.0
H536 H 0.45668 0.0777 0.64046 0.0
H537 H 0.43015 0.98989 0.64307 0.0
H538 H 0.4434 0.99506 0.67858 0.0
H539 H 0.46951 0.97197 0.65608 0.0
H540 H 0.65131 0.08599 0.65861 0.0
H541 H 0.6541 0.08928 0.70853 0.0
H542 H 0.50859 0.05131 0.71108 0.0
C543 C 0.50202 0.04332 0.60024 0.0
C544 C 0.52885 0.04549 0.57753 0.0
C545 C 0.57536 0.05584 0.58103 0.0
C546 C 0.59533 0.06479 0.60679 0.0
C547 C 0.56795 0.06231 0.62884 0.0
C548 C 0.52214 0.05127 0.62589 0.0
C549 C 0.49933 0.04759 0.65305 0.0
C550 C 0.48413 0.08424 0.65545 0.0
C551 C 0.45817 0.99819 0.65798 0.0
C552 C 0.53944 0.05816 0.67173 0.0
C553 C 0.5789 0.06727 0.65733 0.0
C554 C 0.62059 0.07873 0.67013 0.0
C555 C 0.62187 0.08061 0.69844 0.0
C556 C 0.5815 0.07024 0.71359 0.0
C557 C 0.53984 0.05895 0.69999 0.0
H558 H 0.53959 0.49875 0.90811 0.0
H559 H 0.67875 0.61776 0.91453 0.0
H560 H 0.68159 0.59804 0.96233 0.0
H561 H 0.49855 0.50961 0.96949 0.0
H562 H 0.46477 0.44845 0.97757 0.0
H563 H 0.47623 0.46728 0.94284 0.0
H564 H 0.51262 0.41512 0.93475 0.0
H565 H 0.50103 0.39582 0.96953 0.0
H566 H 0.55929 0.42122 0.95604 0.0
H567 H 0.66474 0.57438 0.01023 0.0
H568 H 0.63028 0.5455 0.05547 0.0
H569 H 0.50373 0.43862 0.01855 0.0
C570 C 0.57105 0.51982 0.91945 0.0
C571 C 0.60897 0.55971 0.90775 0.0
C572 C 0.64933 0.58702 0.92319 0.0
C573 C 0.65139 0.57597 0.9503 0.0
C574 C 0.61305 0.53707 0.96151 0.0
C575 C 0.57384 0.50897 0.94655 0.0
C576 C 0.53611 0.4714 0.96412 0.0
C577 C 0.4913 0.47441 0.96347 0.0
C578 C 0.52672 0.42302 0.95561 0.0
C579 C 0.55927 0.48455 0.99155 0.0
C580 C 0.6039 0.52219 0.98945 0.0
C581 C 0.63038 0.54413 0.01215 0.0
C582 C 0.6105 0.52769 0.03771 0.0
C583 C 0.56478 0.48953 0.04033 0.0
C584 C 0.53929 0.467 0.01699 0.0
H585 H 0.01778 0.43921 0.26416 0.0
H586 H 0.97525 0.53094 0.22738 0.0
H587 H 0.96503 0.55553 0.2727 0.0
H588 H 0.94275 0.40466 0.32305 0.0
H589 H 0.98621 0.40607 0.34542 0.0
H590 H 0.98698 0.39336 0.31015 0.0
H591 H 0.07211 0.46111 0.30604 0.0
H592 H 0.07156 0.47414 0.34127 0.0
H593 H 0.08602 0.51876 0.31599 0.0
H594 H 0.95797 0.56877 0.32213 0.0
H595 H 0.9606 0.5745 0.37202 0.0
H596 H 0.01498 0.47991 0.3762 0.0
C597 C 0.00581 0.46406 0.2657 0.0
C598 C 0.99628 0.48247 0.24237 0.0
C599 C 0.9818 0.51576 0.24508 0.0
C600 C 0.97608 0.53005 0.2707 0.0
C601 C 0.98589 0.51135 0.29335 0.0
C602 C 1.00099 0.47951 0.2911 0.0
C603 C 0.01172 0.46678 0.31853 0.0
C604 C 0.98001 0.41462 0.32464 0.0
C605 C 0.06342 0.48107 0.32057 0.0
C606 C 1.00008 0.49625 0.33658 0.0
C607 C 0.98468 0.52125 0.32169 0.0
C608 C 0.97035 0.54968 0.33399 0.0
C609 C 0.97189 0.55267 0.36228 0.0
C610 C 0.98844 0.52806 0.37783 0.0
C611 C 0.00286 0.49968 0.36474 0.0
loop_
_geom_bond_atom_site_label_1
_geom_bond_atom_site_label_2
_geom_bond_distance
_geom_bond_site_symmetry_2
_ccdc_geom_bond_type
Dy0 O4 2.398 . S
Dy0 O5 2.491 . S
Dy0 O6 2.403 . S
Dy0 O7 2.664 . S
Dy0 O11 2.326 . S
Dy0 O15 2.310 . S
Dy0 O16 2.351 1_455 S
C1 O12 1.185 . S
C1 O13 1.355 . S
C2 O4 1.185 . S
C2 O5 1.355 . S
Dy3 O7 2.310 1_655 S
Dy3 O10 2.351 1_655 S
Dy3 O12 2.398 . S
Dy3 O13 2.491 . S
Dy3 O14 2.403 . S
Dy3 O15 2.664 1_655 S
Dy3 O17 2.326 . S
O4 Dy0 2.398 . S
O4 C2 1.185 . S
O5 Dy0 2.491 . S
O5 C2 1.355 . S
O6 Dy0 2.403 . S
O6 C8 1.254 . S
O7 Dy0 2.664 . S
O7 Dy3 2.310 1_455 S
O7 C8 1.268 . S
C8 O6 1.254 . S
C8 O7 1.268 . S
C9 O14 1.254 1_455 S
C9 O15 1.268 . S
O10 Dy3 2.351 1_455 S
O10 C18 1.249 . S
O11 Dy0 2.326 . S
O11 C18 1.267 . S
O12 C1 1.185 . S
O12 Dy3 2.398 . S
O13 C1 1.355 . S
O13 Dy3 2.491 . S
O14 Dy3 2.403 . S
O14 C9 1.254 1_655 S
O15 Dy0 2.310 . S
O15 Dy3 2.664 1_455 S
O15 C9 1.268 . S
O16 Dy0 2.351 1_655 S
O16 C19 1.249 . S
O17 Dy3 2.326 . S
O17 C19 1.267 . S
C18 O10 1.249 . S
C18 O11 1.267 . S
C19 O16 1.249 . S
C19 O17 1.267 . S
Dy20 O24 2.398 . S
Dy20 O25 2.491 . S
Dy20 O26 2.403 . S
Dy20 O27 2.664 1_565 S
Dy20 O31 2.326 . S
Dy20 O35 2.310 1_565 S
Dy20 O36 2.351 1_565 S
C21 O32 1.185 . S
C21 O33 1.355 . S
C22 O24 1.185 . S
C22 O25 1.355 . S
Dy23 O27 2.310 . S
Dy23 O30 2.351 1_545 S
Dy23 O32 2.398 . S
Dy23 O33 2.491 . S
Dy23 O34 2.403 . S
Dy23 O35 2.664 . S
Dy23 O37 2.326 . S
O24 Dy20 2.398 . S
O24 C22 1.185 . S
O25 Dy20 2.491 . S
O25 C22 1.355 . S
O26 Dy20 2.403 . S
O26 C28 1.254 1_565 S
O27 Dy20 2.664 1_545 S
O27 Dy23 2.310 . S
O27 C28 1.268 . S
C28 O26 1.254 1_545 S
C28 O27 1.268 . S
C29 O34 1.254 . S
C29 O35 1.268 . S
O30 Dy23 2.351 1_565 S
O30 C38 1.249 . S
O31 Dy20 2.326 . S
O31 C38 1.267 . S
O32 C21 1.185 . S
O32 Dy23 2.398 . S
O33 C21 1.355 . S
O33 Dy23 2.491 . S
O34 Dy23 2.403 . S
O34 C29 1.254 . S
O35 Dy20 2.310 1_545 S
O35 Dy23 2.664 . S
O35 C29 1.268 . S
O36 Dy20 2.351 1_545 S
O36 C39 1.249 . S
O37 Dy23 2.326 . S
O37 C39 1.267 . S
C38 O30 1.249 . S
C38 O31 1.267 . S
C39 O36 1.249 . S
C39 O37 1.267 . S
Dy40 O44 2.398 . S
Dy40 O45 2.491 . S
Dy40 O46 2.403 . S
Dy40 O47 2.664 . S
Dy40 O51 2.326 . S
Dy40 O55 2.310 . S
Dy40 O56 2.351 . S
C41 O52 1.185 . S
C41 O53 1.355 . S
C42 O44 1.185 . S
C42 O45 1.355 . S
Dy43 O47 2.310 . S
Dy43 O50 2.351 . S
Dy43 O52 2.398 . S
Dy43 O53 2.491 . S
Dy43 O54 2.403 . S
Dy43 O55 2.664 . S
Dy43 O57 2.326 . S
O44 Dy40 2.398 . S
O44 C42 1.185 . S
O45 Dy40 2.491 . S
O45 C42 1.355 . S
O46 Dy40 2.403 . S
O46 C48 1.254 . S
O47 Dy40 2.664 . S
O47 Dy43 2.310 . S
O47 C48 1.268 . S
C48 O46 1.254 . S
C48 O47 1.268 . S
C49 O54 1.254 . S
C49 O55 1.268 . S
O50 Dy43 2.351 . S
O50 C58 1.249 . S
O51 Dy40 2.326 . S
O51 C58 1.267 . S
O52 C41 1.185 . S
O52 Dy43 2.398 . S
O53 C41 1.355 . S
O53 Dy43 2.491 . S
O54 Dy43 2.403 . S
O54 C49 1.254 . S
O55 Dy40 2.310 . S
O55 Dy43 2.664 . S
O55 C49 1.268 . S
O56 Dy40 2.351 . S
O56 C59 1.249 . S
O57 Dy43 2.326 . S
O57 C59 1.267 . S
C58 O50 1.249 . S
C58 O51 1.267 . S
C59 O56 1.249 . S
C59 O57 1.267 . S
O60 Cd61 2.300 . S
O60 C67 1.275 1_545 S
Cd61 O60 2.300 . S
Cd61 O69 2.381 . S
Cd61 O70 2.378 . S
O62 Cd63 2.385 . S
O62 C67 1.255 . S
Cd63 O62 2.385 . S
Cd63 O64 2.317 . S
O64 Cd63 2.317 . S
O64 C65 1.232 . S
C65 O64 1.232 . S
C65 O66 1.218 . S
O66 C65 1.218 . S
C67 O60 1.275 1_565 S
C67 O62 1.255 . S
C68 O69 1.258 . S
C68 O70 1.256 . S
O69 Cd61 2.381 . S
O69 C68 1.258 . S
O70 Cd61 2.378 . S
O70 C68 1.256 . S
O71 Cd72 2.300 . S
O71 C78 1.275 . S
Cd72 O71 2.300 . S
Cd72 O80 2.381 . S
Cd72 O81 2.378 . S
O73 Cd74 2.385 . S
O73 C78 1.255 . S
Cd74 O73 2.385 . S
Cd74 O75 2.317 . S
O75 Cd74 2.317 . S
O75 C76 1.232 . S
C76 O75 1.232 . S
C76 O77 1.218 . S
O77 C76 1.218 . S
C78 O71 1.275 . S
C78 O73 1.255 . S
C79 O80 1.258 . S
C79 O81 1.256 . S
O80 Cd72 2.381 . S
O80 C79 1.258 . S
O81 Cd72 2.378 . S
O81 C79 1.256 . S
O82 Cd83 2.300 . S
O82 C89 1.275 . S
Cd83 O82 2.300 . S
Cd83 O91 2.381 . S
Cd83 O92 2.378 . S
O84 Cd85 2.385 1_455 S
O84 C89 1.255 . S
Cd85 O84 2.385 1_655 S
Cd85 O86 2.317 . S
O86 Cd85 2.317 . S
O86 C87 1.232 . S
C87 O86 1.232 . S
C87 O88 1.218 . S
O88 C87 1.218 . S
C89 O82 1.275 . S
C89 O84 1.255 . S
C90 O91 1.258 . S
C90 O92 1.256 . S
O91 Cd83 2.381 . S
O91 C90 1.258 . S
O92 Cd83 2.378 . S
O92 C90 1.256 . S
O93 Cd94 2.300 . S
O93 C100 1.292 . S
Cd94 O93 2.300 . S
Cd94 O102 2.381 . S
Cd94 O103 2.378 . S
O95 Cd96 2.385 . S
O95 C100 1.236 1_655 S
Cd96 O95 2.385 . S
Cd96 O97 2.317 . S
O97 Cd96 2.317 . S
O97 C98 1.232 . S
C98 O97 1.232 . S
C98 O99 1.218 . S
O99 C98 1.218 . S
C100 O93 1.292 . S
C100 O95 1.236 1_455 S
C101 O102 1.258 . S
C101 O103 1.256 . S
O102 Cd94 2.381 . S
O102 C101 1.258 . S
O103 Cd94 2.378 . S
O103 C101 1.256 . S
O104 Cd105 2.300 1_565 S
O104 C111 1.275 1_565 S
Cd105 O104 2.300 1_545 S
Cd105 O113 2.381 1_545 S
Cd105 O114 2.378 1_545 S
O106 Cd107 2.385 . S
O106 C111 1.255 . S
Cd107 O106 2.385 . S
Cd107 O108 2.317 . S
O108 Cd107 2.317 . S
O108 C109 1.232 . S
C109 O108 1.232 . S
C109 O110 1.218 . S
O110 C109 1.218 . S
C111 O104 1.275 1_545 S
C111 O106 1.255 . S
C112 O113 1.258 . S
C112 O114 1.256 . S
O113 Cd105 2.381 1_565 S
O113 C112 1.258 . S
O114 Cd105 2.378 1_565 S
O114 C112 1.256 . S
O115 Cd116 2.300 . S
O115 C122 1.275 . S
Cd116 O115 2.300 . S
Cd116 O124 2.381 . S
Cd116 O125 2.378 . S
O117 Cd118 2.385 . S
O117 C122 1.255 . S
Cd118 O117 2.385 . S
Cd118 O119 2.317 . S
O119 Cd118 2.317 . S
O119 C120 1.232 . S
C120 O119 1.232 . S
C120 O121 1.218 . S
O121 C120 1.218 . S
C122 O115 1.275 . S
C122 O117 1.255 . S
C123 O124 1.258 . S
C123 O125 1.256 . S
O124 Cd116 2.381 . S
O124 C123 1.258 . S
O125 Cd116 2.378 . S
O125 C123 1.256 . S
H126 C138 0.930 . S
H127 C140 0.930 . S
H128 C141 0.930 . S
H129 C145 0.959 . S
H130 C145 0.959 . S
H131 C145 0.961 . S
H132 C146 0.960 . S
H133 C146 0.961 . S
H134 C146 0.959 . S
H135 C149 0.929 . S
H136 C150 0.931 . S
H137 C152 0.930 . S
C138 H126 0.930 . S
C138 C139 1.399 . S
C138 C143 1.399 . S
C139 C138 1.399 . S
C139 C140 1.376 . S
C140 H127 0.930 . S
C140 C139 1.376 . S
C140 C141 1.388 . S
C141 H128 0.930 . S
C141 C140 1.388 . S
C141 C142 1.390 . S
C142 C141 1.390 . S
C142 C143 1.394 . S
C142 C148 1.465 . S
C143 C138 1.399 . S
C143 C142 1.394 . S
C143 C144 1.516 . S
C144 C143 1.516 . S
C144 C145 1.502 . S
C144 C146 1.561 . S
C144 C147 1.526 . S
C145 H129 0.959 . S
C145 H130 0.959 . S
C145 H131 0.961 . S
C145 C144 1.502 . S
C146 H132 0.960 . S
C146 H133 0.961 . S
C146 H134 0.959 . S
C146 C144 1.561 . S
C147 C144 1.526 . S
C147 C148 1.396 . S
C147 C152 1.390 . S
C148 C142 1.465 . S
C148 C147 1.396 . S
C148 C149 1.399 . S
C149 H135 0.929 . S
C149 C148 1.399 . S
C149 C150 1.385 . S
C150 H136 0.931 . S
C150 C149 1.385 . S
C150 C151 1.389 . S
C151 C150 1.389 . S
C151 C152 1.387 . S
C152 H137 0.930 . S
C152 C147 1.390 . S
C152 C151 1.387 . S
H153 C165 0.930 . S
H154 C167 0.930 . S
H155 C168 0.930 . S
H156 C172 0.959 . S
H157 C172 0.959 . S
H158 C172 0.961 . S
H159 C173 0.960 . S
H160 C173 0.961 . S
H161 C173 0.959 . S
H162 C176 0.929 . S
H163 C177 0.931 . S
H164 C179 0.930 . S
C165 H153 0.930 . S
C165 C166 1.399 . S
C165 C170 1.399 . S
C166 C165 1.399 . S
C166 C167 1.376 . S
C167 H154 0.930 . S
C167 C166 1.376 . S
C167 C168 1.388 . S
C168 H155 0.930 . S
C168 C167 1.388 . S
C168 C169 1.390 . S
C169 C168 1.390 . S
C169 C170 1.394 . S
C169 C175 1.465 . S
C170 C165 1.399 . S
C170 C169 1.394 . S
C170 C171 1.516 . S
C171 C170 1.516 . S
C171 C172 1.502 . S
C171 C173 1.561 . S
C171 C174 1.526 . S
C172 H156 0.959 . S
C172 H157 0.959 . S
C172 H158 0.961 . S
C172 C171 1.502 . S
C173 H159 0.960 . S
C173 H160 0.961 . S
C173 H161 0.959 . S
C173 C171 1.561 . S
C174 C171 1.526 . S
C174 C175 1.396 . S
C174 C179 1.390 . S
C175 C169 1.465 . S
C175 C174 1.396 . S
C175 C176 1.399 . S
C176 H162 0.929 . S
C176 C175 1.399 . S
C176 C177 1.385 . S
C177 H163 0.931 . S
C177 C176 1.385 . S
C177 C178 1.389 . S
C178 C177 1.389 . S
C178 C179 1.387 . S
C179 H164 0.930 . S
C179 C174 1.390 . S
C179 C178 1.387 . S
H180 C192 0.930 . S
H181 C194 0.930 . S
H182 C195 0.930 . S
H183 C199 0.959 . S
H184 C199 0.959 . S
H185 C199 0.961 . S
H186 C200 0.960 . S
H187 C200 0.961 . S
H188 C200 0.959 . S
H189 C203 0.929 . S
H190 C204 0.931 . S
H191 C206 0.930 . S
C192 H180 0.930 . S
C192 C193 1.399 . S
C192 C197 1.399 . S
C193 C192 1.399 . S
C193 C194 1.376 . S
C194 H181 0.930 . S
C194 C193 1.376 . S
C194 C195 1.388 . S
C195 H182 0.930 . S
C195 C194 1.388 . S
C195 C196 1.390 . S
C196 C195 1.390 . S
C196 C197 1.394 . S
C196 C202 1.465 . S
C197 C192 1.399 . S
C197 C196 1.394 . S
C197 C198 1.516 . S
C198 C197 1.516 . S
C198 C199 1.502 . S
C198 C200 1.561 . S
C198 C201 1.526 . S
C199 H183 0.959 . S
C199 H184 0.959 . S
C199 H185 0.961 . S
C199 C198 1.502 . S
C200 H186 0.960 . S
C200 H187 0.961 . S
C200 H188 0.959 . S
C200 C198 1.561 . S
C201 C198 1.526 . S
C201 C202 1.396 . S
C201 C206 1.390 . S
C202 C196 1.465 . S
C202 C201 1.396 . S
C202 C203 1.399 . S
C203 H189 0.929 . S
C203 C202 1.399 . S
C203 C204 1.385 . S
C204 H190 0.931 . S
C204 C203 1.385 . S
C204 C205 1.389 . S
C205 C204 1.389 . S
C205 C206 1.387 . S
C206 H191 0.930 . S
C206 C201 1.390 . S
C206 C205 1.387 . S
H207 C219 0.930 . S
H208 C221 0.930 . S
H209 C222 0.930 . S
H210 C226 0.959 . S
H211 C226 0.959 . S
H212 C226 0.961 . S
H213 C227 0.960 . S
H214 C227 0.961 . S
H215 C227 0.959 . S
H216 C230 0.929 . S
H217 C231 0.931 . S
H218 C233 0.930 . S
C219 H207 0.930 . S
C219 C220 1.399 . S
C219 C224 1.399 . S
C220 C219 1.399 . S
C220 C221 1.376 . S
C221 H208 0.930 . S
C221 C220 1.376 . S
C221 C222 1.388 . S
C222 H209 0.930 . S
C222 C221 1.388 . S
C222 C223 1.390 . S
C223 C222 1.390 . S
C223 C224 1.394 . S
C223 C229 1.465 . S
C224 C219 1.399 . S
C224 C223 1.394 . S
C224 C225 1.516 . S
C225 C224 1.516 . S
C225 C226 1.502 . S
C225 C227 1.561 . S
C225 C228 1.526 . S
C226 H210 0.959 . S
C226 H211 0.959 . S
C226 H212 0.961 . S
C226 C225 1.502 . S
C227 H213 0.960 . S
C227 H214 0.961 . S
C227 H215 0.959 . S
C227 C225 1.561 . S
C228 C225 1.526 . S
C228 C229 1.396 . S
C228 C233 1.390 . S
C229 C223 1.465 . S
C229 C228 1.396 . S
C229 C230 1.399 . S
C230 H216 0.929 . S
C230 C229 1.399 . S
C230 C231 1.385 . S
C231 H217 0.931 . S
C231 C230 1.385 . S
C231 C232 1.389 . S
C232 C231 1.389 . S
C232 C233 1.387 . S
C233 H218 0.930 . S
C233 C228 1.390 . S
C233 C232 1.387 . S
H234 C246 0.930 . S
H235 C248 0.930 . S
H236 C249 0.930 . S
H237 C253 0.959 . S
H238 C253 0.959 . S
H239 C253 0.961 . S
H240 C254 0.960 . S
H241 C254 0.961 . S
H242 C254 0.959 . S
H243 C257 0.929 . S
H244 C258 0.931 . S
H245 C260 0.930 . S
C246 H234 0.930 . S
C246 C247 1.399 . S
C246 C251 1.399 . S
C247 C246 1.399 . S
C247 C248 1.376 . S
C248 H235 0.930 . S
C248 C247 1.376 . S
C248 C249 1.388 . S
C249 H236 0.930 . S
C249 C248 1.388 . S
C249 C250 1.390 . S
C250 C249 1.390 . S
C250 C251 1.394 . S
C250 C256 1.465 . S
C251 C246 1.399 . S
C251 C250 1.394 . S
C251 C252 1.516 . S
C252 C251 1.516 . S
C252 C253 1.502 . S
C252 C254 1.561 . S
C252 C255 1.526 . S
C253 H237 0.959 . S
C253 H238 0.959 . S
C253 H239 0.961 . S
C253 C252 1.502 . S
C254 H240 0.960 . S
C254 H241 0.961 . S
C254 H242 0.959 . S
C254 C252 1.561 . S
C255 C252 1.526 . S
C255 C256 1.396 . S
C255 C260 1.390 . S
C256 C250 1.465 . S
C256 C255 1.396 . S
C256 C257 1.399 . S
C257 H243 0.929 . S
C257 C256 1.399 . S
C257 C258 1.385 . S
C258 H244 0.931 . S
C258 C257 1.385 . S
C258 C259 1.389 . S
C259 C258 1.389 . S
C259 C260 1.387 . S
C260 H245 0.930 . S
C260 C255 1.390 . S
C260 C259 1.387 . S
H261 C273 0.930 . S
H262 C275 0.930 . S
H263 C276 0.930 . S
H264 C280 0.959 . S
H265 C280 0.959 . S
H266 C280 0.961 . S
H267 C281 0.960 . S
H268 C281 0.961 . S
H269 C281 0.959 . S
H270 C284 0.929 . S
H271 C285 0.931 . S
H272 C287 0.930 . S
C273 H261 0.930 . S
C273 C274 1.399 . S
C273 C278 1.399 . S
C274 C273 1.399 . S
C274 C275 1.376 . S
C275 H262 0.930 . S
C275 C274 1.376 . S
C275 C276 1.388 . S
C276 H263 0.930 . S
C276 C275 1.388 . S
C276 C277 1.390 . S
C277 C276 1.390 . S
C277 C278 1.394 . S
C277 C283 1.465 . S
C278 C273 1.399 . S
C278 C277 1.394 . S
C278 C279 1.516 . S
C279 C278 1.516 . S
C279 C280 1.502 . S
C279 C281 1.561 . S
C279 C282 1.526 . S
C280 H264 0.959 . S
C280 H265 0.959 . S
C280 H266 0.961 . S
C280 C279 1.502 . S
C281 H267 0.960 . S
C281 H268 0.961 . S
C281 H269 0.959 . S
C281 C279 1.561 . S
C282 C279 1.526 . S
C282 C283 1.396 . S
C282 C287 1.390 . S
C283 C277 1.465 . S
C283 C282 1.396 . S
C283 C284 1.399 . S
C284 H270 0.929 . S
C284 C283 1.399 . S
C284 C285 1.385 . S
C285 H271 0.931 . S
C285 C284 1.385 . S
C285 C286 1.389 . S
C286 C285 1.389 . S
C286 C287 1.387 . S
C287 H272 0.930 . S
C287 C282 1.390 . S
C287 C286 1.387 . S
H288 C300 0.930 . S
H289 C302 0.930 . S
H290 C303 0.930 . S
H291 C307 0.959 . S
H292 C307 0.959 . S
H293 C307 0.961 . S
H294 C308 0.960 . S
H295 C308 0.961 . S
H296 C308 0.959 . S
H297 C311 0.929 . S
H298 C312 0.931 . S
H299 C314 0.930 . S
C300 H288 0.930 . S
C300 C301 1.399 . S
C300 C305 1.399 . S
C301 C300 1.399 . S
C301 C302 1.376 . S
C302 H289 0.930 . S
C302 C301 1.376 . S
C302 C303 1.388 . S
C303 H290 0.930 . S
C303 C302 1.388 . S
C303 C304 1.390 . S
C304 C303 1.390 . S
C304 C305 1.394 . S
C304 C310 1.465 . S
C305 C300 1.399 . S
C305 C304 1.394 . S
C305 C306 1.516 . S
C306 C305 1.516 . S
C306 C307 1.502 . S
C306 C308 1.561 . S
C306 C309 1.526 . S
C307 H291 0.959 . S
C307 H292 0.959 . S
C307 H293 0.961 . S
C307 C306 1.502 . S
C308 H294 0.960 . S
C308 H295 0.961 . S
C308 H296 0.959 . S
C308 C306 1.561 . S
C309 C306 1.526 . S
C309 C310 1.396 . S
C309 C314 1.390 . S
C310 C304 1.465 . S
C310 C309 1.396 . S
C310 C311 1.399 . S
C311 H297 0.929 . S
C311 C310 1.399 . S
C311 C312 1.385 . S
C312 H298 0.931 . S
C312 C311 1.385 . S
C312 C313 1.389 . S
C313 C312 1.389 . S
C313 C314 1.387 . S
C314 H299 0.930 . S
C314 C309 1.390 . S
C314 C313 1.387 . S
H315 C327 0.930 . S
H316 C329 0.930 . S
H317 C330 0.930 . S
H318 C334 0.959 . S
H319 C334 0.959 . S
H320 C334 0.961 . S
H321 C335 0.960 . S
H322 C335 0.961 . S
H323 C335 0.959 . S
H324 C338 0.929 . S
H325 C339 0.931 . S
H326 C341 0.930 . S
C327 H315 0.930 . S
C327 C328 1.399 . S
C327 C332 1.399 . S
C328 C327 1.399 . S
C328 C329 1.376 . S
C329 H316 0.930 . S
C329 C328 1.376 . S
C329 C330 1.388 . S
C330 H317 0.930 . S
C330 C329 1.388 . S
C330 C331 1.390 . S
C331 C330 1.390 . S
C331 C332 1.394 . S
C331 C337 1.465 . S
C332 C327 1.399 . S
C332 C331 1.394 . S
C332 C333 1.516 . S
C333 C332 1.516 . S
C333 C334 1.502 . S
C333 C335 1.561 . S
C333 C336 1.526 . S
C334 H318 0.959 . S
C334 H319 0.959 . S
C334 H320 0.961 . S
C334 C333 1.502 . S
C335 H321 0.960 . S
C335 H322 0.961 . S
C335 H323 0.959 . S
C335 C333 1.561 . S
C336 C333 1.526 . S
C336 C337 1.396 . S
C336 C341 1.390 . S
C337 C331 1.465 . S
C337 C336 1.396 . S
C337 C338 1.399 . S
C338 H324 0.929 . S
C338 C337 1.399 . S
C338 C339 1.385 . S
C339 H325 0.931 . S
C339 C338 1.385 . S
C339 C340 1.389 . S
C340 C339 1.389 . S
C340 C341 1.387 . S
C341 H326 0.930 . S
C341 C336 1.390 . S
C341 C340 1.387 . S
H342 C354 0.930 . S
H343 C356 0.930 . S
H344 C357 0.930 . S
H345 C361 0.959 . S
H346 C361 0.959 . S
H347 C361 0.961 . S
H348 C362 0.960 . S
H349 C362 0.961 . S
H350 C362 0.959 . S
H351 C365 0.929 . S
H352 C366 0.931 . S
H353 C368 0.930 . S
C354 H342 0.930 . S
C354 C355 1.399 . S
C354 C359 1.399 . S
C355 C354 1.399 . S
C355 C356 1.376 . S
C356 H343 0.930 . S
C356 C355 1.376 . S
C356 C357 1.388 . S
C357 H344 0.930 . S
C357 C356 1.388 . S
C357 C358 1.390 . S
C358 C357 1.390 . S
C358 C359 1.394 . S
C358 C364 1.465 . S
C359 C354 1.399 . S
C359 C358 1.394 . S
C359 C360 1.516 . S
C360 C359 1.516 . S
C360 C361 1.502 . S
C360 C362 1.561 . S
C360 C363 1.526 . S
C361 H345 0.959 . S
C361 H346 0.959 . S
C361 H347 0.961 . S
C361 C360 1.502 . S
C362 H348 0.960 . S
C362 H349 0.961 . S
C362 H350 0.959 . S
C362 C360 1.561 . S
C363 C360 1.526 . S
C363 C364 1.396 . S
C363 C368 1.390 . S
C364 C358 1.465 . S
C364 C363 1.396 . S
C364 C365 1.399 . S
C365 H351 0.929 . S
C365 C364 1.399 . S
C365 C366 1.385 . S
C366 H352 0.931 . S
C366 C365 1.385 . S
C366 C367 1.389 . S
C367 C366 1.389 . S
C367 C368 1.387 . S
C368 H353 0.930 . S
C368 C363 1.390 . S
C368 C367 1.387 . S
H369 C381 0.930 . S
H370 C383 0.930 . S
H371 C384 0.930 . S
H372 C388 0.959 . S
H373 C388 0.959 . S
H374 C388 0.961 . S
H375 C389 0.960 . S
H376 C389 0.961 . S
H377 C389 0.959 . S
H378 C392 0.929 . S
H379 C393 0.931 . S
H380 C395 0.930 . S
C381 H369 0.930 . S
C381 C382 1.399 . S
C381 C386 1.399 . S
C382 C381 1.399 . S
C382 C383 1.376 . S
C383 H370 0.930 . S
C383 C382 1.376 . S
C383 C384 1.388 . S
C384 H371 0.930 . S
C384 C383 1.388 . S
C384 C385 1.390 . S
C385 C384 1.390 . S
C385 C386 1.394 . S
C385 C391 1.465 . S
C386 C381 1.399 . S
C386 C385 1.394 . S
C386 C387 1.516 . S
C387 C386 1.516 . S
C387 C388 1.502 . S
C387 C389 1.561 . S
C387 C390 1.526 . S
C388 H372 0.959 . S
C388 H373 0.959 . S
C388 H374 0.961 . S
C388 C387 1.502 . S
C389 H375 0.960 . S
C389 H376 0.961 . S
C389 H377 0.959 . S
C389 C387 1.561 . S
C390 C387 1.526 . S
C390 C391 1.396 . S
C390 C395 1.390 . S
C391 C385 1.465 . S
C391 C390 1.396 . S
C391 C392 1.399 . S
C392 H378 0.929 . S
C392 C391 1.399 . S
C392 C393 1.385 . S
C393 H379 0.931 . S
C393 C392 1.385 . S
C393 C394 1.389 . S
C394 C393 1.389 . S
C394 C395 1.387 . S
C395 H380 0.930 . S
C395 C390 1.390 . S
C395 C394 1.387 . S
H396 C408 0.930 . S
H397 C410 0.930 . S
H398 C411 0.930 . S
H399 C415 0.959 . S
H400 C415 0.959 . S
H401 C415 0.961 . S
H402 C416 0.960 . S
H403 C416 0.961 . S
H404 C416 0.959 . S
H405 C419 0.929 . S
H406 C420 0.931 . S
H407 C422 0.930 . S
C408 H396 0.930 . S
C408 C409 1.399 . S
C408 C413 1.399 . S
C409 C408 1.399 . S
C409 C410 1.376 . S
C410 H397 0.930 . S
C410 C409 1.376 . S
C410 C411 1.388 . S
C411 H398 0.930 . S
C411 C410 1.388 . S
C411 C412 1.390 . S
C412 C411 1.390 . S
C412 C413 1.394 . S
C412 C418 1.465 . S
C413 C408 1.399 . S
C413 C412 1.394 . S
C413 C414 1.516 . S
C414 C413 1.516 . S
C414 C415 1.502 . S
C414 C416 1.561 . S
C414 C417 1.526 . S
C415 H399 0.959 . S
C415 H400 0.959 . S
C415 H401 0.961 . S
C415 C414 1.502 . S
C416 H402 0.960 . S
C416 H403 0.961 . S
C416 H404 0.959 . S
C416 C414 1.561 . S
C417 C414 1.526 . S
C417 C418 1.396 . S
C417 C422 1.390 . S
C418 C412 1.465 . S
C418 C417 1.396 . S
C418 C419 1.399 . S
C419 H405 0.929 . S
C419 C418 1.399 . S
C419 C420 1.385 . S
C420 H406 0.931 . S
C420 C419 1.385 . S
C420 C421 1.389 . S
C421 C420 1.389 . S
C421 C422 1.387 . S
C422 H407 0.930 . S
C422 C417 1.390 . S
C422 C421 1.387 . S
H423 C435 0.930 . S
H424 C437 0.930 . S
H425 C438 0.930 . S
H426 C442 0.959 . S
H427 C442 0.959 . S
H428 C442 0.961 . S
H429 C443 0.960 . S
H430 C443 0.961 . S
H431 C443 0.959 . S
H432 C446 0.929 . S
H433 C447 0.931 . S
H434 C449 0.930 . S
C435 H423 0.930 . S
C435 C436 1.399 . S
C435 C440 1.399 . S
C436 C435 1.399 . S
C436 C437 1.376 . S
C437 H424 0.930 . S
C437 C436 1.376 . S
C437 C438 1.388 . S
C438 H425 0.930 . S
C438 C437 1.388 . S
C438 C439 1.390 . S
C439 C438 1.390 . S
C439 C440 1.394 . S
C439 C445 1.465 . S
C440 C435 1.399 . S
C440 C439 1.394 . S
C440 C441 1.516 . S
C441 C440 1.516 . S
C441 C442 1.502 . S
C441 C443 1.561 . S
C441 C444 1.526 . S
C442 H426 0.959 . S
C442 H427 0.959 . S
C442 H428 0.961 . S
C442 C441 1.502 . S
C443 H429 0.960 . S
C443 H430 0.961 . S
C443 H431 0.959 . S
C443 C441 1.561 . S
C444 C441 1.526 . S
C444 C445 1.396 . S
C444 C449 1.390 . S
C445 C439 1.465 . S
C445 C444 1.396 . S
C445 C446 1.399 . S
C446 H432 0.929 . S
C446 C445 1.399 . S
C446 C447 1.385 . S
C447 H433 0.931 . S
C447 C446 1.385 . S
C447 C448 1.389 . S
C448 C447 1.389 . S
C448 C449 1.387 . S
C449 H434 0.930 . S
C449 C444 1.390 . S
C449 C448 1.387 . S
H450 C462 0.930 . S
H451 C464 0.930 . S
H452 C465 0.930 . S
H453 C469 0.959 1_655 S
H454 C469 0.959 . S
H455 C469 0.961 . S
H456 C470 0.960 . S
H457 C470 0.961 . S
H458 C470 0.959 . S
H459 C473 0.929 . S
H460 C474 0.931 . S
H461 C476 0.930 . S
C462 H450 0.930 . S
C462 C463 1.399 . S
C462 C467 1.399 . S
C463 C462 1.399 . S
C463 C464 1.376 . S
C464 H451 0.930 . S
C464 C463 1.376 . S
C464 C465 1.388 . S
C465 H452 0.930 . S
C465 C464 1.388 . S
C465 C466 1.390 . S
C466 C465 1.390 . S
C466 C467 1.394 . S
C466 C472 1.465 . S
C467 C462 1.399 . S
C467 C466 1.394 . S
C467 C468 1.516 . S
C468 C467 1.516 . S
C468 C469 1.502 . S
C468 C470 1.561 . S
C468 C471 1.526 1_554 S
C469 H453 0.959 1_455 S
C469 H454 0.959 . S
C469 H455 0.961 . S
C469 C468 1.502 . S
C470 H456 0.960 . S
C470 H457 0.961 . S
C470 H458 0.959 . S
C470 C468 1.561 . S
C471 C468 1.526 1_556 S
C471 C472 1.396 1_556 S
C471 C476 1.390 . S
C472 C466 1.465 . S
C472 C471 1.396 1_554 S
C472 C473 1.399 1_554 S
C473 H459 0.929 . S
C473 C472 1.399 1_556 S
C473 C474 1.385 . S
C474 H460 0.931 . S
C474 C473 1.385 . S
C474 C475 1.389 . S
C475 C474 1.389 . S
C475 C476 1.387 . S
C476 H461 0.930 . S
C476 C471 1.390 . S
C476 C475 1.387 . S
H477 C489 0.930 . S
H478 C491 0.930 . S
H479 C492 0.930 . S
H480 C496 0.959 . S
H481 C496 0.959 . S
H482 C496 0.961 . S
H483 C497 0.960 . S
H484 C497 0.961 . S
H485 C497 0.959 . S
H486 C500 0.929 . S
H487 C501 0.931 . S
H488 C503 0.930 . S
C489 H477 0.930 . S
C489 C490 1.399 1_565 S
C489 C494 1.399 . S
C490 C489 1.399 1_545 S
C490 C491 1.376 . S
C491 H478 0.930 . S
C491 C490 1.376 . S
C491 C492 1.388 . S
C492 H479 0.930 . S
C492 C491 1.388 . S
C492 C493 1.390 . S
C493 C492 1.390 . S
C493 C494 1.394 1_545 S
C493 C499 1.465 . S
C494 C489 1.399 . S
C494 C493 1.394 1_565 S
C494 C495 1.516 . S
C495 C494 1.516 . S
C495 C496 1.502 . S
C495 C497 1.561 . S
C495 C498 1.526 . S
C496 H480 0.959 . S
C496 H481 0.959 . S
C496 H482 0.961 . S
C496 C495 1.502 . S
C497 H483 0.960 . S
C497 H484 0.961 . S
C497 H485 0.959 . S
C497 C495 1.561 . S
C498 C495 1.526 . S
C498 C499 1.396 1_565 S
C498 C503 1.390 . S
C499 C493 1.465 . S
C499 C498 1.396 1_545 S
C499 C500 1.399 . S
C500 H486 0.929 . S
C500 C499 1.399 . S
C500 C501 1.385 . S
C501 H487 0.931 . S
C501 C500 1.385 . S
C501 C502 1.386 . S
C502 C501 1.386 . S
C502 C503 1.389 1_545 S
C503 H488 0.930 . S
C503 C498 1.390 . S
C503 C502 1.389 1_565 S
H504 C516 0.930 . S
H505 C518 0.930 . S
H506 C519 0.930 . S
H507 C523 0.959 . S
H508 C523 0.959 . S
H509 C523 0.961 . S
H510 C524 0.960 . S
H511 C524 0.961 . S
H512 C524 0.959 . S
H513 C527 0.929 . S
H514 C528 0.931 . S
H515 C530 0.930 . S
C516 H504 0.930 . S
C516 C517 1.399 . S
C516 C521 1.399 . S
C517 C516 1.399 . S
C517 C518 1.376 . S
C518 H505 0.930 . S
C518 C517 1.376 . S
C518 C519 1.388 . S
C519 H506 0.930 . S
C519 C518 1.388 . S
C519 C520 1.390 . S
C520 C519 1.390 . S
C520 C521 1.394 . S
C520 C526 1.465 . S
C521 C516 1.399 . S
C521 C520 1.394 . S
C521 C522 1.516 . S
C522 C521 1.516 . S
C522 C523 1.502 . S
C522 C524 1.561 . S
C522 C525 1.526 . S
C523 H507 0.959 . S
C523 H508 0.959 . S
C523 H509 0.961 . S
C523 C522 1.502 . S
C524 H510 0.960 . S
C524 H511 0.961 . S
C524 H512 0.959 . S
C524 C522 1.561 . S
C525 C522 1.526 . S
C525 C526 1.396 . S
C525 C530 1.390 . S
C526 C520 1.465 . S
C526 C525 1.396 . S
C526 C527 1.399 . S
C527 H513 0.929 . S
C527 C526 1.399 . S
C527 C528 1.385 . S
C528 H514 0.931 . S
C528 C527 1.385 . S
C528 C529 1.389 . S
C529 C528 1.389 . S
C529 C530 1.387 . S
C530 H515 0.930 . S
C530 C525 1.390 . S
C530 C529 1.387 . S
H531 C543 0.930 . S
H532 C545 0.930 . S
H533 C546 0.930 . S
H534 C550 0.959 . S
H535 C550 0.959 . S
H536 C550 0.961 . S
H537 C551 0.960 . S
H538 C551 0.961 . S
H539 C551 0.959 . S
H540 C554 0.929 . S
H541 C555 0.931 . S
H542 C557 0.930 1_565 S
C543 H531 0.930 . S
C543 C544 1.399 1_565 S
C543 C548 1.399 1_565 S
C544 C543 1.399 1_545 S
C544 C545 1.376 . S
C545 H532 0.930 . S
C545 C544 1.376 . S
C545 C546 1.388 . S
C546 H533 0.930 . S
C546 C545 1.388 . S
C546 C547 1.390 . S
C547 C546 1.390 . S
C547 C548 1.394 . S
C547 C553 1.465 . S
C548 C543 1.399 1_545 S
C548 C547 1.394 . S
C548 C549 1.516 1_545 S
C549 C548 1.516 1_565 S
C549 C550 1.502 . S
C549 C551 1.561 . S
C549 C552 1.526 1_565 S
C550 H534 0.959 . S
C550 H535 0.959 . S
C550 H536 0.961 . S
C550 C549 1.502 . S
C551 H537 0.960 . S
C551 H538 0.961 . S
C551 H539 0.959 . S
C551 C549 1.561 . S
C552 C549 1.526 1_545 S
C552 C553 1.396 . S
C552 C557 1.390 . S
C553 C547 1.465 . S
C553 C552 1.396 . S
C553 C554 1.399 . S
C554 H540 0.929 . S
C554 C553 1.399 . S
C554 C555 1.385 . S
C555 H541 0.931 . S
C555 C554 1.385 . S
C555 C556 1.389 . S
C556 C555 1.389 . S
C556 C557 1.387 . S
C557 H542 0.930 1_545 S
C557 C552 1.390 . S
C557 C556 1.387 . S
H558 C570 0.930 . S
H559 C572 0.930 . S
H560 C573 0.930 . S
H561 C577 0.959 . S
H562 C577 0.959 . S
H563 C577 0.961 . S
H564 C578 0.960 . S
H565 C578 0.961 . S
H566 C578 0.959 . S
H567 C581 0.929 . S
H568 C582 0.931 . S
H569 C584 0.930 . S
C570 H558 0.930 . S
C570 C571 1.399 . S
C570 C575 1.399 . S
C571 C570 1.399 . S
C571 C572 1.376 . S
C572 H559 0.930 . S
C572 C571 1.376 . S
C572 C573 1.388 . S
C573 H560 0.930 . S
C573 C572 1.388 . S
C573 C574 1.390 . S
C574 C573 1.390 . S
C574 C575 1.394 . S
C574 C580 1.483 . S
C575 C570 1.399 . S
C575 C574 1.394 . S
C575 C576 1.516 . S
C576 C575 1.516 . S
C576 C577 1.502 . S
C576 C578 1.561 . S
C576 C579 1.526 1_556 S
C577 H561 0.959 . S
C577 H562 0.959 . S
C577 H563 0.961 . S
C577 C576 1.502 . S
C578 H564 0.960 . S
C578 H565 0.961 . S
C578 H566 0.959 . S
C578 C576 1.561 . S
C579 C576 1.526 1_554 S
C579 C580 1.393 1_554 S
C579 C584 1.390 . S
C580 C574 1.483 . S
C580 C579 1.393 1_556 S
C580 C581 1.386 1_556 S
C581 H567 0.929 . S
C581 C580 1.386 1_554 S
C581 C582 1.385 . S
C582 H568 0.931 . S
C582 C581 1.385 . S
C582 C583 1.389 . S
C583 C582 1.389 . S
C583 C584 1.387 . S
C584 H569 0.930 . S
C584 C579 1.390 . S
C584 C583 1.387 . S
H585 C597 0.930 . S
H586 C599 0.930 . S
H587 C600 0.930 . S
H588 C604 0.959 . S
H589 C604 0.959 . S
H590 C604 0.961 . S
H591 C605 0.960 . S
H592 C605 0.961 . S
H593 C605 0.959 . S
H594 C608 0.929 . S
H595 C609 0.931 . S
H596 C611 0.930 . S
C597 H585 0.930 . S
C597 C598 1.399 1_655 S
C597 C602 1.399 . S
C598 C597 1.399 1_455 S
C598 C599 1.376 . S
C599 H586 0.930 . S
C599 C598 1.376 . S
C599 C600 1.388 . S
C600 H587 0.930 . S
C600 C599 1.388 . S
C600 C601 1.390 . S
C601 C600 1.390 . S
C601 C602 1.394 1_455 S
C601 C607 1.465 . S
C602 C597 1.399 . S
C602 C601 1.394 1_655 S
C602 C603 1.516 . S
C603 C602 1.516 . S
C603 C604 1.502 . S
C603 C605 1.561 . S
C603 C606 1.526 . S
C604 H588 0.959 . S
C604 H589 0.959 . S
C604 H590 0.961 . S
C604 C603 1.502 . S
C605 H591 0.960 . S
C605 H592 0.961 . S
C605 H593 0.959 . S
C605 C603 1.561 . S
C606 C603 1.526 . S
C606 C607 1.396 1_655 S
C606 C611 1.390 . S
C607 C601 1.465 . S
C607 C606 1.396 1_455 S
C607 C608 1.399 . S
C608 H594 0.929 . S
C608 C607 1.399 . S
C608 C609 1.385 . S
C609 H595 0.931 . S
C609 C608 1.385 . S
C609 C610 1.389 . S
C610 C609 1.389 . S
C610 C611 1.387 1_455 S
C611 H596 0.930 . S
C611 C606 1.390 . S
C611 C610 1.387 1_655 S
C139 C2 1.189 . S
C151 C120 1.116 . S
C166 C21 1.087 . S
C178 C98 0.990 . S
C193 C42 0.920 . S
C205 C112 0.889 . S
C220 C1 0.906 . S
C232 C123 0.909 . S
C259 C101 0.880 . S
C247 C22 0.933 . S
C286 C109 0.984 . S
C274 C41 1.160 . S
C301 C38 2.021 . S
C313 C76 1.729 . S
C328 C59 2.087 . S
C340 C87 1.769 . S
C355 C18 2.021 . S
C367 C65 1.738 . S
C394 C79 1.790 . S
C382 C39 1.805 . S
C421 C90 1.729 . S
C409 C58 1.758 . S
C436 C19 1.801 . S
C448 C68 1.778 . S
C475 C89 1.461 . S
C463 C9 1.545 . S
C490 C29 1.539 . S
C502 C67 1.512 1_545 S
C517 C49 1.536 . S
C529 C78 1.532 . S
C556 C111 1.387 . S
C544 C28 1.445 . S
C583 C122 1.334 . S
C571 C48 1.405 . S
C598 C8 1.400 . S
C610 C100 1.357 . S
