# Generated by pormake.
# Topology gar, (4,6)-cn, num edge types: 1
# Building blocks:
#     Node 0, Type 0, BuildingBlock: CEKHIL_clean_sbu_0, # of connection points: 4
#     Node 1, Type 0, BuildingBlock: CEKHIL_clean_sbu_0, # of connection points: 4
#     Node 2, Type 0, BuildingBlock: CEKHIL_clean_sbu_0, # of connection points: 4
#     Node 3, Type 0, BuildingBlock: CEKHIL_clean_sbu_0, # of connection points: 4
#     Node 4, Type 0, BuildingBlock: CEKHIL_clean_sbu_0, # of connection points: 4
#     Node 5, Type 0, BuildingBlock: CEKHIL_clean_sbu_0, # of connection points: 4
#     Node 6, Type 0, BuildingBlock: CEKHIL_clean_sbu_0, # of connection points: 4
#     Node 7, Type 0, BuildingBlock: CEKHIL_clean_sbu_0, # of connection points: 4
#     Node 8, Type 0, BuildingBlock: CEKHIL_clean_sbu_0, # of connection points: 4
#     Node 9, Type 0, BuildingBlock: CEKHIL_clean_sbu_0, # of connection points: 4
#     Node 10, Type 0, BuildingBlock: CEKHIL_clean_sbu_0, # of connection points: 4
#     Node 11, Type 0, BuildingBlock: CEKHIL_clean_sbu_0, # of connection points: 4
#     Node 12, Type 0, BuildingBlock: CEKHIL_clean_sbu_0, # of connection points: 4
#     Node 13, Type 0, BuildingBlock: CEKHIL_clean_sbu_0, # of connection points: 4
#     Node 14, Type 0, BuildingBlock: CEKHIL_clean_sbu_0, # of connection points: 4
#     Node 15, Type 0, BuildingBlock: CEKHIL_clean_sbu_0, # of connection points: 4
#     Node 16, Type 0, BuildingBlock: CEKHIL_clean_sbu_0, # of connection points: 4
#     Node 17, Type 0, BuildingBlock: CEKHIL_clean_sbu_0, # of connection points: 4
#     Node 18, Type 0, BuildingBlock: CEKHIL_clean_sbu_0, # of connection points: 4
#     Node 19, Type 0, BuildingBlock: CEKHIL_clean_sbu_0, # of connection points: 4
#     Node 20, Type 0, BuildingBlock: CEKHIL_clean_sbu_0, # of connection points: 4
#     Node 21, Type 0, BuildingBlock: CEKHIL_clean_sbu_0, # of connection points: 4
#     Node 22, Type 0, BuildingBlock: CEKHIL_clean_sbu_0, # of connection points: 4
#     Node 23, Type 0, BuildingBlock: CEKHIL_clean_sbu_0, # of connection points: 4
#     Node 24, Type 1, BuildingBlock: NUHQIS_clean_sbu_0, # of connection points: 6
#     Node 25, Type 1, BuildingBlock: NUHQIS_clean_sbu_0, # of connection points: 6
#     Node 26, Type 1, BuildingBlock: NUHQIS_clean_sbu_0, # of connection points: 6
#     Node 27, Type 1, BuildingBlock: NUHQIS_clean_sbu_0, # of connection points: 6
#     Node 28, Type 1, BuildingBlock: NUHQIS_clean_sbu_0, # of connection points: 6
#     Node 29, Type 1, BuildingBlock: NUHQIS_clean_sbu_0, # of connection points: 6
#     Node 30, Type 1, BuildingBlock: NUHQIS_clean_sbu_0, # of connection points: 6
#     Node 31, Type 1, BuildingBlock: NUHQIS_clean_sbu_0, # of connection points: 6
#     Node 32, Type 1, BuildingBlock: NUHQIS_clean_sbu_0, # of connection points: 6
#     Node 33, Type 1, BuildingBlock: NUHQIS_clean_sbu_0, # of connection points: 6
#     Node 34, Type 1, BuildingBlock: NUHQIS_clean_sbu_0, # of connection points: 6
#     Node 35, Type 1, BuildingBlock: NUHQIS_clean_sbu_0, # of connection points: 6
#     Node 36, Type 1, BuildingBlock: NUHQIS_clean_sbu_0, # of connection points: 6
#     Node 37, Type 1, BuildingBlock: NUHQIS_clean_sbu_0, # of connection points: 6
#     Node 38, Type 1, BuildingBlock: NUHQIS_clean_sbu_0, # of connection points: 6
#     Node 39, Type 1, BuildingBlock: NUHQIS_clean_sbu_0, # of connection points: 6
#     Edge 40, Type (0, 1), BuildingBlock: TEMPAE_clean_linker_10, # of connection points: 2
#     Edge 41, Type (0, 1), BuildingBlock: TEMPAE_clean_linker_10, # of connection points: 2
#     Edge 42, Type (0, 1), BuildingBlock: TEMPAE_clean_linker_10, # of connection points: 2
#     Edge 43, Type (0, 1), BuildingBlock: TEMPAE_clean_linker_10, # of connection points: 2
#     Edge 44, Type (0, 1), BuildingBlock: TEMPAE_clean_linker_10, # of connection points: 2
#     Edge 45, Type (0, 1), BuildingBlock: TEMPAE_clean_linker_10, # of connection points: 2
#     Edge 46, Type (0, 1), BuildingBlock: TEMPAE_clean_linker_10, # of connection points: 2
#     Edge 47, Type (0, 1), BuildingBlock: TEMPAE_clean_linker_10, # of connection points: 2
#     Edge 48, Type (0, 1), BuildingBlock: TEMPAE_clean_linker_10, # of connection points: 2
#     Edge 49, Type (0, 1), BuildingBlock: TEMPAE_clean_linker_10, # of connection points: 2
#     Edge 50, Type (0, 1), BuildingBlock: TEMPAE_clean_linker_10, # of connection points: 2
#     Edge 51, Type (0, 1), BuildingBlock: TEMPAE_clean_linker_10, # of connection points: 2
#     Edge 52, Type (0, 1), BuildingBlock: TEMPAE_clean_linker_10, # of connection points: 2
#     Edge 53, Type (0, 1), BuildingBlock: TEMPAE_clean_linker_10, # of connection points: 2
#     Edge 54, Type (0, 1), BuildingBlock: TEMPAE_clean_linker_10, # of connection points: 2
#     Edge 55, Type (0, 1), BuildingBlock: TEMPAE_clean_linker_10, # of connection points: 2
#     Edge 56, Type (0, 1), BuildingBlock: TEMPAE_clean_linker_10, # of connection points: 2
#     Edge 57, Type (0, 1), BuildingBlock: TEMPAE_clean_linker_10, # of connection points: 2
#     Edge 58, Type (0, 1), BuildingBlock: TEMPAE_clean_linker_10, # of connection points: 2
#     Edge 59, Type (0, 1), BuildingBlock: TEMPAE_clean_linker_10, # of connection points: 2
#     Edge 60, Type (0, 1), BuildingBlock: TEMPAE_clean_linker_10, # of connection points: 2
#     Edge 61, Type (0, 1), BuildingBlock: TEMPAE_clean_linker_10, # of connection points: 2
#     Edge 62, Type (0, 1), BuildingBlock: TEMPAE_clean_linker_10, # of connection points: 2
#     Edge 63, Type (0, 1), BuildingBlock: TEMPAE_clean_linker_10, # of connection points: 2
#     Edge 64, Type (0, 1), BuildingBlock: TEMPAE_clean_linker_10, # of connection points: 2
#     Edge 65, Type (0, 1), BuildingBlock: TEMPAE_clean_linker_10, # of connection points: 2
#     Edge 66, Type (0, 1), BuildingBlock: TEMPAE_clean_linker_10, # of connection points: 2
#     Edge 67, Type (0, 1), BuildingBlock: TEMPAE_clean_linker_10, # of connection points: 2
#     Edge 68, Type (0, 1), BuildingBlock: TEMPAE_clean_linker_10, # of connection points: 2
#     Edge 69, Type (0, 1), BuildingBlock: TEMPAE_clean_linker_10, # of connection points: 2
#     Edge 70, Type (0, 1), BuildingBlock: TEMPAE_clean_linker_10, # of connection points: 2
#     Edge 71, Type (0, 1), BuildingBlock: TEMPAE_clean_linker_10, # of connection points: 2
#     Edge 72, Type (0, 1), BuildingBlock: TEMPAE_clean_linker_10, # of connection points: 2
#     Edge 73, Type (0, 1), BuildingBlock: TEMPAE_clean_linker_10, # of connection points: 2
#     Edge 74, Type (0, 1), BuildingBlock: TEMPAE_clean_linker_10, # of connection points: 2
#     Edge 75, Type (0, 1), BuildingBlock: TEMPAE_clean_linker_10, # of connection points: 2
#     Edge 76, Type (0, 1), BuildingBlock: TEMPAE_clean_linker_10, # of connection points: 2
#     Edge 77, Type (0, 1), BuildingBlock: TEMPAE_clean_linker_10, # of connection points: 2
#     Edge 78, Type (0, 1), BuildingBlock: TEMPAE_clean_linker_10, # of connection points: 2
#     Edge 79, Type (0, 1), BuildingBlock: TEMPAE_clean_linker_10, # of connection points: 2
#     Edge 80, Type (0, 1), BuildingBlock: TEMPAE_clean_linker_10, # of connection points: 2
#     Edge 81, Type (0, 1), BuildingBlock: TEMPAE_clean_linker_10, # of connection points: 2
#     Edge 82, Type (0, 1), BuildingBlock: TEMPAE_clean_linker_10, # of connection points: 2
#     Edge 83, Type (0, 1), BuildingBlock: TEMPAE_clean_linker_10, # of connection points: 2
#     Edge 84, Type (0, 1), BuildingBlock: TEMPAE_clean_linker_10, # of connection points: 2
#     Edge 85, Type (0, 1), BuildingBlock: TEMPAE_clean_linker_10, # of connection points: 2
#     Edge 86, Type (0, 1), BuildingBlock: TEMPAE_clean_linker_10, # of connection points: 2
#     Edge 87, Type (0, 1), BuildingBlock: TEMPAE_clean_linker_10, # of connection points: 2
#     Edge 88, Type (0, 1), BuildingBlock: TEMPAE_clean_linker_10, # of connection points: 2
#     Edge 89, Type (0, 1), BuildingBlock: TEMPAE_clean_linker_10, # of connection points: 2
#     Edge 90, Type (0, 1), BuildingBlock: TEMPAE_clean_linker_10, # of connection points: 2
#     Edge 91, Type (0, 1), BuildingBlock: TEMPAE_clean_linker_10, # of connection points: 2
#     Edge 92, Type (0, 1), BuildingBlock: TEMPAE_clean_linker_10, # of connection points: 2
#     Edge 93, Type (0, 1), BuildingBlock: TEMPAE_clean_linker_10, # of connection points: 2
#     Edge 94, Type (0, 1), BuildingBlock: TEMPAE_clean_linker_10, # of connection points: 2
#     Edge 95, Type (0, 1), BuildingBlock: TEMPAE_clean_linker_10, # of connection points: 2
#     Edge 96, Type (0, 1), BuildingBlock: TEMPAE_clean_linker_10, # of connection points: 2
#     Edge 97, Type (0, 1), BuildingBlock: TEMPAE_clean_linker_10, # of connection points: 2
#     Edge 98, Type (0, 1), BuildingBlock: TEMPAE_clean_linker_10, # of connection points: 2
#     Edge 99, Type (0, 1), BuildingBlock: TEMPAE_clean_linker_10, # of connection points: 2
#     Edge 100, Type (0, 1), BuildingBlock: TEMPAE_clean_linker_10, # of connection points: 2
#     Edge 101, Type (0, 1), BuildingBlock: TEMPAE_clean_linker_10, # of connection points: 2
#     Edge 102, Type (0, 1), BuildingBlock: TEMPAE_clean_linker_10, # of connection points: 2
#     Edge 103, Type (0, 1), BuildingBlock: TEMPAE_clean_linker_10, # of connection points: 2
#     Edge 104, Type (0, 1), BuildingBlock: TEMPAE_clean_linker_10, # of connection points: 2
#     Edge 105, Type (0, 1), BuildingBlock: TEMPAE_clean_linker_10, # of connection points: 2
#     Edge 106, Type (0, 1), BuildingBlock: TEMPAE_clean_linker_10, # of connection points: 2
#     Edge 107, Type (0, 1), BuildingBlock: TEMPAE_clean_linker_10, # of connection points: 2
#     Edge 108, Type (0, 1), BuildingBlock: TEMPAE_clean_linker_10, # of connection points: 2
#     Edge 109, Type (0, 1), BuildingBlock: TEMPAE_clean_linker_10, # of connection points: 2
#     Edge 110, Type (0, 1), BuildingBlock: TEMPAE_clean_linker_10, # of connection points: 2
#     Edge 111, Type (0, 1), BuildingBlock: TEMPAE_clean_linker_10, # of connection points: 2
#     Edge 112, Type (0, 1), BuildingBlock: TEMPAE_clean_linker_10, # of connection points: 2
#     Edge 113, Type (0, 1), BuildingBlock: TEMPAE_clean_linker_10, # of connection points: 2
#     Edge 114, Type (0, 1), BuildingBlock: TEMPAE_clean_linker_10, # of connection points: 2
#     Edge 115, Type (0, 1), BuildingBlock: TEMPAE_clean_linker_10, # of connection points: 2
#     Edge 116, Type (0, 1), BuildingBlock: TEMPAE_clean_linker_10, # of connection points: 2
#     Edge 117, Type (0, 1), BuildingBlock: TEMPAE_clean_linker_10, # of connection points: 2
#     Edge 118, Type (0, 1), BuildingBlock: TEMPAE_clean_linker_10, # of connection points: 2
#     Edge 119, Type (0, 1), BuildingBlock: TEMPAE_clean_linker_10, # of connection points: 2
#     Edge 120, Type (0, 1), BuildingBlock: TEMPAE_clean_linker_10, # of connection points: 2
#     Edge 121, Type (0, 1), BuildingBlock: TEMPAE_clean_linker_10, # of connection points: 2
#     Edge 122, Type (0, 1), BuildingBlock: TEMPAE_clean_linker_10, # of connection points: 2
#     Edge 123, Type (0, 1), BuildingBlock: TEMPAE_clean_linker_10, # of connection points: 2
#     Edge 124, Type (0, 1), BuildingBlock: TEMPAE_clean_linker_10, # of connection points: 2
#     Edge 125, Type (0, 1), BuildingBlock: TEMPAE_clean_linker_10, # of connection points: 2
#     Edge 126, Type (0, 1), BuildingBlock: TEMPAE_clean_linker_10, # of connection points: 2
#     Edge 127, Type (0, 1), BuildingBlock: TEMPAE_clean_linker_10, # of connection points: 2
#     Edge 128, Type (0, 1), BuildingBlock: TEMPAE_clean_linker_10, # of connection points: 2
#     Edge 129, Type (0, 1), BuildingBlock: TEMPAE_clean_linker_10, # of connection points: 2
#     Edge 130, Type (0, 1), BuildingBlock: TEMPAE_clean_linker_10, # of connection points: 2
#     Edge 131, Type (0, 1), BuildingBlock: TEMPAE_clean_linker_10, # of connection points: 2
#     Edge 132, Type (0, 1), BuildingBlock: TEMPAE_clean_linker_10, # of connection points: 2
#     Edge 133, Type (0, 1), BuildingBlock: TEMPAE_clean_linker_10, # of connection points: 2
#     Edge 134, Type (0, 1), BuildingBlock: TEMPAE_clean_linker_10, # of connection points: 2
#     Edge 135, Type (0, 1), BuildingBlock: TEMPAE_clean_linker_10, # of connection points: 2
# Relax obj value: 0.217
# Max RMSD: 0.313
# Mean RMSD: 0.137
data_MOF--net-gar--node1-CEKHIL_clean_sbu_0--node2-NUHQIS_clean_sbu_0--edge1-TEMPAE_clean_linker_10
_symmetry_space_group_name_H-M    P1
_symmetry_Int_Tables_number       1
_symmetry_cell_setting            triclinic
loop_
_symmetry_equiv_pos_as_xyz
'x, y, z'
_cell_length_a     57.766679
_cell_length_b     59.815009
_cell_length_c     56.186022
_cell_angle_alpha  92.877032
_cell_angle_beta   96.458495
_cell_angle_gamma 100.17929
loop_
_atom_site_label
_atom_site_type_symbol
_atom_site_fract_x
_atom_site_fract_y
_atom_site_fract_z
_atom_type_partial_charge
Co0 Co 0.09666 0.30051 0.41592 0.0
O1 O 0.13261 0.30436 0.41976 0.0
O2 O 0.11112 0.2921 0.38639 0.0
C3 C 0.09398 0.33803 0.43374 0.0
O4 O 0.06029 0.29603 0.40039 0.0
Co5 Co 0.06493 0.29844 0.45356 0.0
O6 O 0.03891 0.30377 0.42937 0.0
C7 C 0.08308 0.25575 0.44587 0.0
C8 C 0.13254 0.29787 0.39727 0.0
C9 C 0.04031 0.29997 0.40716 0.0
O10 O 0.09331 0.26611 0.42838 0.0
O11 O 0.07119 0.26661 0.45877 0.0
O12 O 0.09899 0.33433 0.41209 0.0
O13 O 0.09264 0.3194 0.44509 0.0
Co14 Co 0.06124 0.80461 0.65412 0.0
O15 O 1.02527 0.80186 0.65127 0.0
O16 O 0.04554 0.79604 0.68385 0.0
C17 C 0.06818 0.84189 0.63645 0.0
O18 O 0.09762 0.80725 0.66927 0.0
Co19 Co 0.0927 0.80717 0.61659 0.0
O20 O 0.12137 0.81301 0.64073 0.0
C21 C 0.06994 0.76 0.62351 0.0
C22 C 1.02462 0.79756 0.67368 0.0
C23 C 0.11897 0.8108 0.66274 0.0
O24 O 0.05966 0.76923 0.64062 0.0
O25 O 0.08327 0.77302 0.61124 0.0
O26 O 0.06461 0.83919 0.65863 0.0
O27 O 0.06677 0.82216 0.62494 0.0
Co28 Co 0.59606 0.80479 0.9157 0.0
O29 O 0.63197 0.80899 0.9193 0.0
O30 O 0.61038 0.79647 0.88603 0.0
C31 C 0.59316 0.84213 0.93354 0.0
O32 O 0.55959 0.79991 0.90067 0.0
Co33 Co 0.56509 0.80254 0.9538 0.0
O34 O 0.53877 0.80795 0.93 0.0
C35 C 0.58298 0.75992 0.94542 0.0
C36 C 0.63184 0.80236 0.89686 0.0
C37 C 0.53981 0.80399 0.90773 0.0
O38 O 0.59323 0.77049 0.92809 0.0
O39 O 0.57103 0.77054 0.95846 0.0
O40 O 0.59749 0.83847 0.91163 0.0
O41 O 0.59255 0.82366 0.94504 0.0
Co42 Co 0.56272 0.30937 0.15308 0.0
O43 O 0.52672 0.30652 0.1499 0.0
O44 O 0.54677 0.3005 0.18255 0.0
C45 C 0.56977 0.34672 0.13548 0.0
O46 O 0.59913 0.31177 0.1685 0.0
Co47 Co 0.59496 0.31246 0.11568 0.0
O48 O 0.62326 0.31713 0.14018 0.0
C49 C 0.57124 0.26524 0.12187 0.0
C50 C 0.52591 0.30203 0.17226 0.0
C51 C 0.62058 0.3148 0.16212 0.0
O52 O 0.56127 0.27418 0.13937 0.0
O53 O 0.58442 0.27847 0.10963 0.0
O54 O 0.56555 0.34393 0.15748 0.0
O55 O 0.56889 0.32702 0.12414 0.0
Co56 Co 0.12973 0.87164 0.1907 0.0
O57 O 0.09764 0.85568 0.18836 0.0
O58 O 0.124 0.85941 0.22093 0.0
C59 C 0.12106 0.90219 0.17286 0.0
O60 O 0.16391 0.88705 0.20039 0.0
Co61 Co 0.15478 0.88291 0.14604 0.0
O62 O 0.18238 0.89838 0.16881 0.0
C63 C 0.14422 0.83558 0.15923 0.0
C64 C 0.10267 0.85134 0.21058 0.0
C65 C 0.18218 0.89685 0.19131 0.0
O66 O 0.13959 0.84291 0.17966 0.0
O67 O 0.14894 0.8486 0.14232 0.0
O68 O 0.11937 0.90042 0.1956 0.0
O69 O 0.1265 0.88496 0.16134 0.0
Co70 Co 0.52825 0.74146 0.40823 0.0
O71 O 0.56198 0.75116 0.41048 0.0
O72 O 0.5409 0.7237 0.3849 0.0
C73 C 0.51957 0.77662 0.40897 0.0
O74 O 0.49328 0.72786 0.39947 0.0
Co75 Co 0.50024 0.75402 0.4494 0.0
O76 O 0.47255 0.74423 0.42461 0.0
C77 C 0.53402 0.72305 0.45644 0.0
C78 C 0.56141 0.73617 0.39279 0.0
C79 C 0.47362 0.73234 0.40541 0.0
O80 O 0.5329 0.71944 0.43354 0.0
O81 O 0.5243 0.73807 0.46641 0.0
O82 O 0.5235 0.76692 0.38897 0.0
O83 O 0.52284 0.76557 0.42786 0.0
Co84 Co 0.62219 0.36351 0.68297 0.0
O85 O 0.59023 0.3467 0.67853 0.0
O86 O 0.61532 0.34956 0.712 0.0
C87 C 0.61369 0.39463 0.6661 0.0
O88 O 0.65564 0.37944 0.69505 0.0
Co89 Co 0.64991 0.37856 0.64083 0.0
O90 O 0.67586 0.39367 0.66571 0.0
C91 C 0.64226 0.33047 0.65212 0.0
C92 C 0.59444 0.3415 0.70059 0.0
C93 C 0.67435 0.39051 0.68776 0.0
O94 O 0.63402 0.33599 0.67144 0.0
O95 O 0.64782 0.34461 0.63644 0.0
O96 O 0.61062 0.39167 0.68839 0.0
O97 O 0.6203 0.37818 0.65441 0.0
Co98 Co 1.02404 0.23993 0.90026 0.0
O99 O 0.05643 0.25567 0.90558 0.0
O100 O 0.03924 0.23506 0.87229 0.0
C101 C 1.00868 0.26899 0.9147 0.0
O102 O 0.99139 0.22239 0.88707 0.0
Co103 Co 0.99312 0.22894 0.94072 0.0
O104 O 0.96642 0.22401 0.91453 0.0
C105 C 1.03224 0.20451 0.93465 0.0
C106 C 0.05808 0.24771 0.88401 0.0
C107 C 0.97032 0.22006 0.89302 0.0
O108 O 1.03431 0.21264 0.91417 0.0
O109 O 1.01779 0.20985 0.94869 0.0
O110 O 1.01348 0.26799 0.89265 0.0
O111 O 1.01436 0.25304 0.92768 0.0
Co112 Co 0.51871 0.13495 0.34058 0.0
O113 O 0.5139 0.16179 0.32429 0.0
O114 O 0.49116 0.12744 0.3175 0.0
C115 C 0.52679 0.15109 0.37823 0.0
O116 O 0.51594 0.10378 0.35351 0.0
Co117 Co 0.56557 0.1286 0.36953 0.0
O118 O 0.54778 0.09896 0.3779 0.0
C119 C 0.56062 0.12467 0.31671 0.0
C120 C 0.49557 0.14851 0.31228 0.0
C121 C 0.52676 0.09181 0.36773 0.0
O122 O 0.53867 0.12633 0.31589 0.0
O123 O 0.57476 0.12678 0.33626 0.0
O124 O 0.5049 0.14541 0.3683 0.0
O125 O 0.54278 0.14886 0.36445 0.0
Co126 Co 0.35481 0.17303 0.53054 0.0
O127 O 0.39054 0.17708 0.53214 0.0
O128 O 0.369 0.14561 0.53942 0.0
C129 C 0.34933 0.18994 0.49241 0.0
O130 O 0.318 0.15844 0.52973 0.0
Co131 Co 0.3244 0.20937 0.52879 0.0
O132 O 0.29559 0.18516 0.52479 0.0
C133 C 0.34919 0.20376 0.57658 0.0
C134 C 0.39026 0.15603 0.53713 0.0
C135 C 0.29714 0.16442 0.5273 0.0
O136 O 0.35617 0.18585 0.56704 0.0
O137 O 0.33804 0.21631 0.5635 0.0
O138 O 0.35263 0.1691 0.49421 0.0
O139 O 0.35021 0.20026 0.51342 0.0
Co140 Co 0.23219 0.07854 0.86465 0.0
O141 O 0.23287 0.04845 0.85154 0.0
O142 O 0.26258 0.07789 0.85395 0.0
C143 C 0.21591 0.06713 0.89734 0.0
O144 O 0.23868 0.1117 0.87692 0.0
Co145 Co 0.18578 0.09512 0.87294 0.0
O146 O 0.20616 0.12462 0.88527 0.0
C147 C 0.19939 0.09137 0.82394 0.0
C148 C 0.25443 0.05647 0.84771 0.0
C149 C 0.22833 0.12776 0.88386 0.0
O150 O 0.2197 0.08726 0.83234 0.0
O151 O 0.18273 0.09284 0.83685 0.0
O152 O 0.23862 0.06908 0.89704 0.0
O153 O 0.20363 0.0708 0.87778 0.0
Co154 Co 0.33654 0.90368 0.04334 0.0
O155 O 0.30321 0.90025 0.04789 0.0
O156 O 0.33071 0.93087 0.05898 0.0
C157 C 0.33117 0.8893 1.00457 0.0
O158 O 0.37125 0.91566 0.04173 0.0
Co159 Co 0.36385 0.86563 0.03273 0.0
O160 O 0.39158 0.88971 0.02947 0.0
C161 C 0.35348 0.87444 0.08232 0.0
C162 C 0.30873 0.921 0.05775 0.0
C163 C 0.39047 0.9101 0.03612 0.0
O164 O 0.3443 0.89152 0.07554 0.0
O165 O 0.36105 0.86113 0.06767 0.0
O166 O 0.32901 0.91015 1.01002 0.0
O167 O 0.33493 0.87718 0.02263 0.0
Co168 Co 0.3045 0.42733 0.0366 0.0
O169 O 0.26866 0.42245 0.03331 0.0
O170 O 0.29057 0.45457 0.04655 0.0
C171 C 0.30739 0.40955 0.9981 0.0
O172 O 0.34134 0.44266 0.04008 0.0
Co173 Co 0.33579 0.39128 0.03576 0.0
O174 O 0.36287 0.416 0.03237 0.0
C175 C 0.31543 0.3981 0.08125 0.0
C176 C 0.26904 0.44351 0.04065 0.0
C177 C 0.36162 0.43686 0.03647 0.0
O178 O 0.30676 0.41531 0.07216 0.0
O179 O 0.32622 0.38591 0.06854 0.0
O180 O 0.30322 0.43016 1.00075 0.0
O181 O 0.3082 0.39995 0.01819 0.0
Co182 Co 0.82091 0.20414 0.02407 0.0
O183 O 0.85508 0.21177 0.02656 0.0
O184 O 0.83448 0.17817 0.03295 0.0
C185 C 0.81453 0.21978 0.98859 0.0
O186 O 0.78639 0.18834 0.02165 0.0
Co187 Co 0.78771 0.23873 0.02332 0.0
O188 O 0.76128 0.21254 1.01502 0.0
C189 C 0.81349 0.23061 0.06964 0.0
C190 C 0.85494 0.19071 0.03137 0.0
C191 C 0.76531 0.19245 0.01704 0.0
O192 O 0.82154 0.21448 0.0591 0.0
O193 O 0.80083 0.24311 0.05825 0.0
O194 O 0.8196 0.19951 0.98942 0.0
O195 O 0.81464 0.23061 1.00917 0.0
Co196 Co 0.17457 0.49723 0.26911 0.0
O197 O 0.18625 0.46921 0.27172 0.0
O198 O 0.19956 0.4969 0.24919 0.0
C199 C 0.17447 0.5064 0.30824 0.0
O200 O 0.1683 0.52886 0.26305 0.0
Co201 Co 0.12617 0.50287 0.28547 0.0
O202 O 0.13813 0.53581 0.28255 0.0
C203 C 0.12705 0.47927 0.23846 0.0
C204 C 0.2015 0.47736 0.25756 0.0
C205 C 0.15544 0.54245 0.27083 0.0
O206 O 0.14988 0.48365 0.24154 0.0
O207 O 0.1144 0.48382 0.25473 0.0
O208 O 0.19415 0.51001 0.29875 0.0
O209 O 0.15653 0.49425 0.2948 0.0
Co210 Co 0.80331 0.92721 0.53875 0.0
O211 O 0.76747 0.92245 0.53635 0.0
O212 O 0.7897 0.9549 0.5476 0.0
C213 C 0.80565 0.90872 0.5004 0.0
O214 O 0.8402 0.94233 0.54182 0.0
Co215 Co 0.83436 0.891 0.53843 0.0
O216 O 0.86202 0.91544 0.5362 0.0
C217 C 0.81443 0.89884 0.58394 0.0
C218 C 0.76808 0.94381 0.54265 0.0
C219 C 0.86066 0.93636 0.53945 0.0
O220 O 0.80589 0.91599 0.57458 0.0
O221 O 0.825 0.88628 0.57141 0.0
O222 O 0.80157 0.92937 0.50282 0.0
O223 O 0.80666 0.8994 0.52068 0.0
Co224 Co 0.93575 0.03432 0.2209 0.0
O225 O 0.93717 0.06681 0.22328 0.0
O226 O 0.90418 0.04091 0.21666 0.0
C227 C 0.96222 0.03435 0.25334 0.0
O228 O 0.92642 0.99964 0.21878 0.0
Co229 Co 0.97841 1.01027 0.21495 0.0
O230 O 0.95901 0.98507 0.22925 0.0
C231 C 0.95588 0.03186 0.17411 0.0
C232 C 0.91414 0.06224 0.22033 0.0
C233 C 0.93661 0.9834 0.2263 0.0
O234 O 0.9386 0.03524 0.18559 0.0
O235 O 0.97338 1.02325 0.18312 0.0
O236 O 0.94017 0.03467 0.25587 0.0
O237 O 0.9676 0.03485 0.2317 0.0
Co238 Co 0.32153 0.70564 0.52854 0.0
O239 O 0.35578 0.71248 0.53314 0.0
O240 O 0.33377 0.67907 0.53773 0.0
C241 C 0.31749 0.72214 0.49337 0.0
O242 O 0.28669 0.6907 0.52411 0.0
Co243 Co 0.28932 0.74126 0.52652 0.0
O244 O 0.26264 0.71566 0.51633 0.0
C245 C 0.31299 0.73207 0.5735 0.0
C246 C 0.35473 0.69125 0.53777 0.0
C247 C 0.26599 0.69535 0.51835 0.0
O248 O 0.32061 0.7155 0.56333 0.0
O249 O 0.30138 0.74519 0.56174 0.0
O250 O 0.322 0.70165 0.49408 0.0
O251 O 0.31682 0.73261 0.51396 0.0
Co252 Co 0.43049 0.53259 0.74161 0.0
O253 O 0.42916 0.56266 0.75409 0.0
O254 O 0.40147 0.54121 0.72795 0.0
C255 C 0.44159 0.51906 0.77676 0.0
O256 O 0.42501 0.50045 0.72607 0.0
Co257 Co 0.478 0.51452 0.74584 0.0
O258 O 0.45659 0.48468 0.73804 0.0
C259 C 0.46958 0.54843 0.71134 0.0
C260 C 0.40867 0.56021 0.74113 0.0
C261 C 0.43518 0.4831 0.72863 0.0
O262 O 0.44763 0.54577 0.71466 0.0
O263 O 0.48486 0.53893 0.72326 0.0
O264 O 0.41941 0.5197 0.77039 0.0
O265 O 0.45637 0.52859 0.76302 0.0
Co266 Co 0.6626 0.99558 0.75536 0.0
O267 O 0.67445 0.96825 0.76203 0.0
O268 O 0.68968 0.99428 0.73858 0.0
C269 C 0.65891 1.00734 0.79292 0.0
O270 O 0.65623 0.02642 0.74569 0.0
Co271 Co 0.61191 1.00054 0.76508 0.0
O272 O 0.6245 0.03344 0.76253 0.0
C273 C 0.61793 0.97318 0.72217 0.0
C274 C 0.69099 0.97548 0.7489 0.0
C275 C 0.6428 0.04008 0.75215 0.0
O276 O 0.64052 0.97957 0.7269 0.0
O277 O 0.60334 0.97806 0.73629 0.0
O278 O 0.67954 1.0106 0.78528 0.0
O279 O 0.6421 0.99404 0.77903 0.0
Co280 Co 0.85636 0.67355 0.03249 0.0
O281 O 0.89219 0.67792 0.03442 0.0
O282 O 0.87096 0.64641 0.04193 0.0
C283 C 0.85096 0.69019 0.99418 0.0
O284 O 0.81962 0.65853 0.03107 0.0
Co285 Co 0.82533 0.70946 0.03003 0.0
O286 O 0.79689 0.68481 0.02464 0.0
C287 C 0.84923 0.70413 0.07831 0.0
C288 C 0.89217 0.65697 0.03965 0.0
C289 C 0.79865 0.66417 0.02754 0.0
O290 O 0.85694 0.68654 0.06894 0.0
O291 O 0.83794 0.71642 0.06502 0.0
O292 O 0.85466 0.66949 0.99619 0.0
O293 O 0.85149 0.70055 1.01509 0.0
Co294 Co 1.01163 0.6293 0.84002 0.0
O295 O 1.00494 0.65514 0.82303 0.0
O296 O 0.97925 0.62328 0.82639 0.0
C297 C 1.0325 0.64791 0.87352 0.0
O298 O 1.01071 0.59954 0.85574 0.0
Co299 Co 0.06236 0.61985 0.85332 0.0
O300 O 0.04673 0.5915 0.86639 0.0
C301 C 0.03977 0.61143 0.80347 0.0
C302 C 0.9838 0.64297 0.81756 0.0
C303 C 1.02422 0.58645 0.86478 0.0
O304 O 1.02012 0.61496 0.81008 0.0
O305 O 0.05926 0.61476 0.81752 0.0
O306 O 1.00942 0.64474 0.87086 0.0
O307 O 0.04189 0.64229 0.85486 0.0
Co308 Co 0.83398 0.40433 0.53863 0.0
O309 O 0.80116 0.40296 0.54475 0.0
O310 O 0.83033 0.43255 0.55376 0.0
C311 C 0.82681 0.38869 0.50023 0.0
O312 O 0.86857 0.41461 0.5353 0.0
Co313 Co 0.85908 0.36455 0.52809 0.0
O314 O 0.8872 0.3874 0.52278 0.0
C315 C 0.85079 0.3754 0.57804 0.0
C316 C 0.80819 0.42386 0.55393 0.0
C317 C 0.88707 0.40813 0.52895 0.0
O318 O 0.84236 0.39287 0.57114 0.0
O319 O 0.85714 0.36121 0.56337 0.0
O320 O 0.82553 0.40988 0.50511 0.0
O321 O 0.83058 0.37705 0.51867 0.0
Co322 Co 0.74257 0.57334 0.37276 0.0
O323 O 0.74524 0.54279 0.36315 0.0
O324 O 0.77209 0.57363 0.35992 0.0
C325 C 0.72995 0.56481 0.40788 0.0
O326 O 0.74674 0.60727 0.38073 0.0
Co327 Co 0.69554 0.58772 0.38274 0.0
O328 O 0.71423 0.61885 0.39112 0.0
C329 C 0.70473 0.57806 0.33281 0.0
C330 C 0.76554 0.55165 0.35658 0.0
C331 C 0.73585 0.62302 0.38737 0.0
O332 O 0.72631 0.57681 0.34011 0.0
O333 O 0.68933 0.58026 0.34708 0.0
O334 O 0.75254 0.56856 0.40617 0.0
O335 O 0.71587 0.56547 0.38856 0.0
Tb336 Tb 0.07263 0.06011 0.03759 0.0
Eu337 Eu 0.1239 0.07798 0.07262 0.0
C338 C 0.11745 0.04225 0.02493 0.0
C339 C 0.09121 0.03113 0.07818 0.0
C340 C 1.0149 0.06925 1.0109 0.0
C341 C 0.97451 0.07617 1.00676 0.0
C342 C 0.99044 0.06103 1.00675 0.0
C343 C 1.02328 0.09282 1.01437 0.0
C344 C 1.0074 0.10789 1.01481 0.0
C345 C 0.98284 0.09977 1.01128 0.0
C346 C 1.03152 0.05339 1.01476 0.0
O347 O 0.07287 0.09121 0.05901 0.0
O348 O 0.09391 0.08422 0.09298 0.0
O349 O 0.11777 0.10688 0.05019 0.0
O350 O 0.09581 0.0838 0.01869 0.0
C351 C 0.07542 0.09125 0.08236 0.0
O352 O 0.14457 0.08073 0.10801 0.0
O353 O 0.16173 0.0925 0.07741 0.0
O354 O 0.13083 0.05845 0.03972 0.0
O355 O 0.09418 0.03741 0.02387 0.0
O356 O 0.07261 0.03793 0.06733 0.0
O357 O 0.11281 0.04099 0.07594 0.0
C358 C 0.10921 0.10323 0.02738 0.0
O359 O 0.05085 0.0577 1.00457 0.0
O360 O 1.03601 0.04884 0.03703 0.0
C361 C 0.18079 0.06889 0.10221 0.0
C362 C 0.2064 0.03307 0.09735 0.0
C363 C 0.18557 0.02981 0.10845 0.0
C364 C 0.17296 0.04752 0.11089 0.0
C365 C 0.20241 0.07259 0.09256 0.0
C366 C 0.2151 0.05489 0.09018 0.0
C367 C 0.16464 0.0855 0.09902 0.0
H368 H 0.95568 0.06931 1.00439 0.0
H369 H 0.98364 0.04288 1.00438 0.0
H370 H 0.04213 0.09951 0.01789 0.0
H371 H 1.01436 0.12591 0.01847 0.0
H372 H 0.17832 1.01326 0.11414 0.0
H373 H 0.15641 0.04401 0.11845 0.0
H374 H 0.20888 0.08882 0.08569 0.0
H375 H 0.23139 0.05811 0.08205 0.0
Tb376 Tb 0.35593 0.83787 0.30993 0.0
Eu377 Eu 0.31057 0.79865 0.28301 0.0
C378 C 0.30675 0.84949 0.2947 0.0
C379 C 0.32507 0.80058 0.33916 0.0
C380 C 0.40236 0.89065 0.33522 0.0
C381 C 0.41076 0.92908 0.35451 0.0
C382 C 0.39567 0.90801 0.34925 0.0
C383 C 0.42433 0.89502 0.32619 0.0
C384 C 0.43942 0.91613 0.33142 0.0
C385 C 0.43298 0.93326 0.346 0.0
C386 C 0.38836 0.86725 0.33348 0.0
O387 O 0.36905 0.80624 0.31081 0.0
O388 O 0.34118 0.77982 0.28628 0.0
O389 O 0.32368 0.82081 0.25476 0.0
O390 O 0.36104 0.83848 0.27183 0.0
C391 C 0.3619 0.78604 0.2994 0.0
O392 O 0.29385 0.77194 0.25522 0.0
O393 O 0.2724 0.78727 0.27838 0.0
O394 O 0.2987 0.82874 0.29996 0.0
O395 O 0.32945 0.85612 0.29401 0.0
O396 O 0.33697 0.82147 0.33823 0.0
O397 O 0.31586 0.78737 0.31992 0.0
C398 C 0.34481 0.83247 0.25302 0.0
O399 O 0.36602 0.86473 0.33661 0.0
O400 O 0.39208 0.85251 0.31706 0.0
C401 C 0.25826 0.74893 0.26361 0.0
C402 C 0.22875 0.70635 0.26571 0.0
C403 C 0.23787 0.71247 0.24429 0.0
C404 C 0.25239 0.7336 0.24324 0.0
C405 C 0.2494 0.74284 0.28513 0.0
C406 C 0.2347 0.72178 0.28614 0.0
C407 C 0.27274 0.77145 0.26164 0.0
H408 H 0.40512 0.94204 0.36547 0.0
H409 H 0.37906 0.9051 0.35685 0.0
H410 H 0.43027 0.88186 0.31579 0.0
H411 H 0.4565 0.91876 0.32475 0.0
H412 H 0.23405 0.70084 0.22836 0.0
H413 H 0.25901 0.73799 0.22647 0.0
H414 H 0.25363 0.75438 0.30113 0.0
H415 H 0.22781 0.71769 0.30285 0.0
Tb416 Tb 0.565 0.03195 0.52199 0.0
Eu417 Eu 0.59115 0.064 0.56848 0.0
C418 C 0.56278 1.01505 0.57408 0.0
C419 C 0.53832 0.07187 0.54546 0.0
C420 C 0.53763 0.98506 0.47478 0.0
C421 C 0.54422 0.94622 0.47478 0.0
C422 C 0.54782 0.96812 0.48598 0.0
C423 C 0.52398 0.98002 0.4523 0.0
C424 C 0.52036 0.95812 0.44107 0.0
C425 C 0.53045 0.94099 0.45221 0.0
C426 C 0.54098 1.00806 0.48625 0.0
O427 O 0.58475 0.06128 0.50748 0.0
O428 O 0.5894 0.08761 0.53917 0.0
O429 O 0.61678 0.03907 0.56063 0.0
O430 O 0.59951 1.01939 0.52511 0.0
C431 C 0.58792 0.08244 0.51619 0.0
O432 O 0.6247 0.08421 0.58472 0.0
O433 O 0.59483 0.07895 0.6053 0.0
O434 O 0.56655 0.03631 0.58237 0.0
O435 O 0.56535 1.0096 0.55173 0.0
O436 O 0.5388 0.0548 0.52937 0.0
O437 O 0.55654 0.07835 0.56241 0.0
C438 C 0.61747 0.02392 0.54269 0.0
O439 O 0.53377 1.00981 0.50733 0.0
O440 O 0.56159 1.02084 0.48554 0.0
C441 C 0.61982 0.11477 0.6097 0.0
C442 C 0.62879 0.1623 0.6187 0.0
C443 C 0.61594 0.15214 0.59696 0.0
C444 C 0.61139 0.12859 0.59257 0.0
C445 C 0.63258 0.12468 0.63146 0.0
C446 C 0.63701 0.14835 0.63598 0.0
C447 C 0.61616 0.09019 0.60411 0.0
H448 H 0.55191 0.93328 0.48396 0.0
H449 H 0.5584 0.97182 0.50338 0.0
H450 H 0.51612 0.99305 0.44345 0.0
H451 H 0.50986 0.95466 0.42361 0.0
H452 H 0.60967 0.16241 0.58315 0.0
H453 H 0.60157 0.12115 0.57562 0.0
H454 H 0.63922 0.11417 0.64482 0.0
H455 H 0.64668 0.15569 0.65303 0.0
Tb456 Tb 0.3077 0.30129 0.78119 0.0
Eu457 Eu 0.35884 0.29333 0.8056 0.0
C458 C 0.35481 0.33445 0.77133 0.0
C459 C 0.33822 0.27491 0.74824 0.0
C460 C 0.24504 0.30131 0.77954 0.0
C461 C 0.20268 0.29739 0.78007 0.0
C462 C 0.22265 0.30287 0.7681 0.0
C463 C 0.24741 0.29446 0.80307 0.0
C464 C 0.22755 0.28904 0.81502 0.0
C465 C 0.20495 0.29027 0.80359 0.0
C466 C 0.26599 0.30577 0.76694 0.0
O467 O 0.30209 0.268 0.7957 0.0
O468 O 0.33154 0.27534 0.82675 0.0
O469 O 0.3497 0.31902 0.83316 0.0
O470 O 0.31036 0.31641 0.81915 0.0
C471 C 0.31092 0.26413 0.81721 0.0
O472 O 0.37971 0.26765 0.81614 0.0
O473 O 0.39475 0.30354 0.82386 0.0
O474 O 0.36854 0.32378 0.78498 0.0
O475 O 0.33164 0.32853 0.76765 0.0
O476 O 0.32073 0.28642 0.74938 0.0
O477 O 0.35306 0.27384 0.76785 0.0
C478 C 0.32863 0.32379 0.83598 0.0
O479 O 0.28247 0.32254 0.77657 0.0
O480 O 0.27467 0.28776 0.76162 0.0
C481 C 0.42044 0.27958 0.81362 0.0
C482 C 0.4626 0.2812 0.79287 0.0
C483 C 0.46333 0.28731 0.81745 0.0
C484 C 0.44235 0.28647 0.82776 0.0
C485 C 0.41967 0.27231 0.78935 0.0
C486 C 0.44064 0.27297 0.77907 0.0
C487 C 0.39876 0.28274 0.82352 0.0
H488 H 0.18543 0.29826 0.77076 0.0
H489 H 0.22059 0.30798 0.74986 0.0
H490 H 0.26462 0.29306 0.8121 0.0
H491 H 0.22989 0.28391 0.83323 0.0
H492 H 0.48009 0.29365 0.82842 0.0
H493 H 0.44321 0.29224 0.84649 0.0
H494 H 0.40288 0.26718 0.77806 0.0
H495 H 0.43962 0.26845 0.76001 0.0
Tb496 Tb 0.08033 0.03598 0.51365 0.0
Eu497 Eu 0.08072 0.06037 0.564 0.0
C498 C 0.12956 0.06675 0.53835 0.0
C499 C 0.08095 1.00464 0.55967 0.0
C500 C 0.08283 1.02165 0.44876 0.0
C501 C 0.08351 1.00821 0.40756 0.0
C502 C 0.08699 1.00513 0.43207 0.0
C503 C 0.0777 0.04235 0.44099 0.0
C504 C 0.07383 0.0453 0.41652 0.0
C505 C 0.07532 0.02766 0.39953 0.0
C506 C 0.07954 1.01552 0.47318 0.0
O507 O 0.04341 0.02379 0.52167 0.0
O508 O 0.04079 0.0479 0.55361 0.0
O509 O 0.08255 0.09079 0.53941 0.0
O510 O 0.07543 0.07117 0.50263 0.0
C511 C 1.03065 0.03133 0.53738 0.0
O512 O 0.08882 0.06029 0.60257 0.0
O513 O 0.07484 0.08858 0.58767 0.0
O514 O 0.12038 0.06573 0.55886 0.0
O515 O 0.11603 0.05795 0.51841 0.0
O516 O 0.08806 1.00851 0.53826 0.0
O517 O 0.07472 1.02183 0.57163 0.0
C518 C 0.07923 0.0911 0.51567 0.0
O519 O 0.09815 1.01947 0.48926 0.0
O520 O 0.0611 1.02147 0.48131 0.0
C521 C 0.10297 0.09594 0.62249 0.0
C522 C 0.14013 0.11417 0.65847 0.0
C523 C 0.11646 0.11403 0.66233 0.0
C524 C 0.09797 0.10481 0.64445 0.0
C525 C 0.12658 0.09839 0.61766 0.0
C526 C 0.14509 0.10735 0.63561 0.0
C527 C 0.08422 0.08055 0.60686 0.0
H528 H 0.08546 0.9946 0.3949 0.0
H529 H 0.09121 0.98915 0.43785 0.0
H530 H 0.07463 0.05541 0.45372 0.0
H531 H 0.06753 0.0605 0.41109 0.0
H532 H 0.11215 0.11896 0.67988 0.0
H533 H 0.07984 0.10298 0.64846 0.0
H534 H 0.13071 0.09167 0.60072 0.0
H535 H 0.16319 0.10734 0.63222 0.0
Tb536 Tb 0.31862 0.78498 0.79668 0.0
Eu537 Eu 0.33954 0.83445 0.77886 0.0
C538 C 0.32185 0.82868 0.83121 0.0
C539 C 0.28286 0.81274 0.7665 0.0
C540 C 0.31049 0.72398 0.80105 0.0
C541 C 0.30125 0.68309 0.79169 0.0
C542 C 0.29521 0.70303 0.80131 0.0
C543 C 0.33193 0.72483 0.79133 0.0
C544 C 0.33785 0.70506 0.78159 0.0
C545 C 0.32247 0.68404 0.7814 0.0
C546 C 0.30315 0.7453 0.80813 0.0
O547 O 0.3351 0.77628 0.76529 0.0
O548 O 0.3389 0.81005 0.74721 0.0
O549 O 0.37301 0.82036 0.79158 0.0
O550 O 0.35644 0.79163 0.81334 0.0
C551 C 0.33868 0.78812 0.74657 0.0
O552 O 0.33967 0.85997 0.75241 0.0
O553 O 0.36496 0.86643 0.78443 0.0
O554 O 0.33621 0.84039 0.81799 0.0
O555 O 0.30931 0.80861 0.82338 0.0
O556 O 0.28852 0.79303 0.77226 0.0
O557 O 0.29885 0.83167 0.77161 0.0
C558 C 0.37546 0.8052 0.80759 0.0
O559 O 0.31894 0.76008 0.82184 0.0
O560 O 0.29331 0.75482 0.79039 0.0
C561 C 0.35055 0.89807 0.76944 0.0
C562 C 0.3395 0.94092 0.78121 0.0
C563 C 0.32329 0.92465 0.76593 0.0
C564 C 0.32873 0.90339 0.76013 0.0
C565 C 0.36722 0.91475 0.78372 0.0
C566 C 0.36169 0.93596 0.78968 0.0
C567 C 0.35574 0.87499 0.76556 0.0
H568 H 0.28913 0.66707 0.79176 0.0
H569 H 0.27844 0.70217 0.80844 0.0
H570 H 0.34391 0.74088 0.79085 0.0
H571 H 0.35454 0.70622 0.77422 0.0
H572 H 0.30594 0.92796 0.75937 0.0
H573 H 0.31552 0.89094 0.749 0.0
H574 H 0.38427 0.91112 0.7909 0.0
H575 H 0.37455 0.9483 0.80134 0.0
Tb576 Tb 0.58872 0.04601 0.05148 0.0
Eu577 Eu 0.5655 0.05973 1.00107 0.0
C578 C 0.58191 1.00892 1.00537 0.0
C579 C 0.62093 0.07164 1.0159 0.0
C580 C 0.60516 0.04226 0.11626 0.0
C581 C 0.62284 0.05921 0.15568 0.0
C582 C 0.62529 0.05107 0.13257 0.0
C583 C 0.58252 0.04099 0.12355 0.0
C584 C 0.58008 0.04887 0.14671 0.0
C585 C 0.6002 0.0584 0.1628 0.0
C586 C 0.60801 0.03642 0.09125 0.0
O587 O 0.58396 0.08188 0.0616 0.0
O588 O 0.56174 0.08975 0.02774 0.0
O589 O 0.53649 0.03642 1.01481 0.0
O590 O 0.55087 0.03942 0.05471 0.0
C591 C 0.57196 0.09603 0.05004 0.0
O592 O 0.54714 0.08272 0.98016 0.0
O593 O 0.55488 0.05251 0.96265 0.0
O594 O 0.57893 0.02587 0.99147 0.0
O595 O 0.58331 1.01291 0.02899 0.0
O596 O 0.61834 0.05535 0.0307 0.0
O597 O 0.6027 0.0783 1.00457 0.0
C598 C 0.53375 0.03253 0.03707 0.0
O599 O 0.59016 1.02314 0.07848 0.0
O600 O 0.61676 0.0535 0.07953 0.0
C601 C 0.55977 0.08512 0.94179 0.0
C602 C 0.59015 0.09658 0.90705 0.0
C603 C 0.5666 0.08539 0.90014 0.0
C604 C 0.55153 0.0796 0.91747 0.0
C605 C 0.58207 0.09902 0.94843 0.0
C606 C 0.59716 0.10483 0.93111 0.0
C607 C 0.5481 0.0719 0.95973 0.0
H608 H 0.63857 0.06641 0.16789 0.0
H609 H 0.64288 0.05228 0.12718 0.0
H610 H 0.56668 0.03454 0.11118 0.0
H611 H 0.56244 0.04834 0.15175 0.0
H612 H 0.56068 0.0787 0.88177 0.0
H613 H 0.5344 0.06881 0.91209 0.0
H614 H 0.58873 0.10348 0.96718 0.0
H615 H 0.61511 0.1137 0.93686 0.0
Tb616 Tb 0.34207 0.31982 0.30209 0.0
Eu617 Eu 0.31747 0.27397 0.27254 0.0
C618 C 0.33937 0.27305 0.33 0.0
C619 C 0.37356 0.29595 0.26645 0.0
C620 C 0.36261 0.38088 0.31548 0.0
C621 C 0.34688 0.41579 0.31702 0.0
C622 C 0.3546 0.39788 0.32862 0.0
C623 C 0.36632 0.3839 0.29148 0.0
C624 C 0.35902 0.4021 0.27998 0.0
C625 C 0.34733 0.41706 0.29212 0.0
C626 C 0.35944 0.35796 0.32424 0.0
O627 O 0.33118 0.33297 0.26663 0.0
O628 O 0.30997 0.30062 0.24583 0.0
O629 O 0.28551 0.28307 0.28972 0.0
O630 O 0.30541 0.31394 0.31391 0.0
C631 C 0.31884 0.32262 0.24652 0.0
O632 O 0.31084 0.25346 0.23834 0.0
O633 O 0.29642 0.23957 0.26923 0.0
O634 O 0.32651 0.26211 0.31052 0.0
O635 O 0.34946 0.29471 0.32915 0.0
O636 O 0.3703 0.31444 0.27881 0.0
O637 O 0.35694 0.27736 0.26528 0.0
C638 C 0.28559 0.29883 0.30714 0.0
O639 O 0.33729 0.34833 0.32264 0.0
O640 O 0.37234 0.34389 0.31672 0.0
C641 C 0.31369 0.21552 0.24461 0.0
C642 C 0.3479 0.18756 0.24196 0.0
C643 C 0.33898 0.19713 0.22129 0.0
C644 C 0.32199 0.211 0.22261 0.0
C645 C 0.32082 0.20408 0.26459 0.0
C646 C 0.33778 0.19035 0.2633 0.0
C647 C 0.30161 0.23505 0.24777 0.0
H648 H 0.33806 0.42697 0.32707 0.0
H649 H 0.3515 0.39579 0.34712 0.0
H650 H 0.3725 0.37099 0.28093 0.0
H651 H 0.36041 0.40314 0.26102 0.0
H652 H 0.34608 0.19494 0.20446 0.0
H653 H 0.31661 0.21949 0.20689 0.0
H654 H 0.31474 0.20706 0.28182 0.0
H655 H 0.3443 0.18352 0.2797 0.0
Tb656 Tb 0.57931 0.53937 1.00862 0.0
Eu657 Eu 0.58106 0.5631 0.06019 0.0
C658 C 0.63034 0.56723 0.03546 0.0
C659 C 0.58248 0.50808 0.05562 0.0
C660 C 0.56122 0.50014 0.95398 0.0
C661 C 0.54635 0.48234 0.91427 0.0
C662 C 0.56496 0.49449 0.93044 0.0
C663 C 0.53947 0.49141 0.96198 0.0
C664 C 0.52075 0.47939 0.94576 0.0
C665 C 0.52366 0.47594 0.92141 0.0
C666 C 0.57779 0.51879 0.96801 0.0
O667 O 0.54104 0.5314 1.01318 0.0
O668 O 0.5416 0.54704 0.05127 0.0
O669 O 0.57654 0.59291 0.03589 0.0
O670 O 0.57899 0.57578 0.99927 0.0
C671 C 0.52997 0.53469 0.03206 0.0
O672 O 0.57228 0.56212 0.09691 0.0
O673 O 0.5901 0.59352 0.08488 0.0
O674 O 0.62032 0.57034 0.05501 0.0
O675 O 0.61766 0.55539 1.01633 0.0
O676 O 0.576 0.50944 0.03227 0.0
O677 O 0.58936 0.52746 0.06916 0.0
C678 C 0.57797 0.59457 1.01261 0.0
O679 O 0.56889 0.53703 0.97168 0.0
O680 O 0.59 0.51385 0.98736 0.0
C681 C 0.6016 0.58497 0.12394 0.0
C682 C 0.6354 0.58731 0.16432 0.0
C683 C 0.61611 0.59866 0.16506 0.0
C684 C 0.59927 0.59746 0.14496 0.0
C685 C 0.62118 0.5742 0.12286 0.0
C686 C 0.63797 0.57532 0.14294 0.0
C687 C 0.58352 0.58276 0.10321 0.0
H688 H 0.54913 0.48016 0.89561 0.0
H689 H 0.58161 0.50117 0.92398 0.0
H690 H 0.53634 0.49555 0.98018 0.0
H691 H 0.50352 0.47452 0.95179 0.0
H692 H 0.61356 0.60775 0.18145 0.0
H693 H 0.58424 0.60589 0.14596 0.0
H694 H 0.62323 0.56459 0.1066 0.0
H695 H 0.65275 0.56656 0.14188 0.0
Tb696 Tb 0.81979 0.28179 0.29348 0.0
Eu697 Eu 0.84134 0.33125 0.27631 0.0
C698 C 0.82255 0.32544 0.32828 0.0
C699 C 0.78422 0.31083 0.26438 0.0
C700 C 0.81282 0.22042 0.29881 0.0
C701 C 0.80723 0.18465 0.2745 0.0
C702 C 0.79823 0.20322 0.28324 0.0
C703 C 0.83625 0.21811 0.30653 0.0
C704 C 0.84514 0.1994 0.29802 0.0
C705 C 0.8309 0.18281 0.28146 0.0
C706 C 0.80441 0.24184 0.30407 0.0
O707 O 0.8368 0.27339 0.26228 0.0
O708 O 0.83969 0.30707 0.24424 0.0
O709 O 0.87447 0.31673 0.28932 0.0
O710 O 0.85742 0.28805 0.3108 0.0
C711 C 0.83983 0.28522 0.24347 0.0
O712 O 0.8425 0.35675 0.24982 0.0
O713 O 0.86728 0.36289 0.28225 0.0
O714 O 0.83699 0.3373 0.31522 0.0
O715 O 0.81041 0.30517 0.32046 0.0
O716 O 0.78929 0.2909 0.27028 0.0
O717 O 0.80079 0.32942 0.269 0.0
C718 C 0.87663 0.30154 0.30534 0.0
O719 O 0.81822 0.25717 0.31905 0.0
O720 O 0.79589 0.25091 0.28524 0.0
C721 C 0.8541 0.39474 0.26672 0.0
C722 C 0.84493 0.43816 0.27907 0.0
C723 C 0.82669 0.42107 0.26754 0.0
C724 C 0.83119 0.3995 0.26151 0.0
C725 C 0.87257 0.41211 0.27716 0.0
C726 C 0.86801 0.43365 0.28342 0.0
C727 C 0.85872 0.3715 0.2631 0.0
H728 H 0.79583 0.17195 0.26194 0.0
H729 H 0.78015 0.20466 0.27698 0.0
H730 H 0.84804 0.23117 0.31834 0.0
H731 H 0.8635 0.19845 0.30354 0.0
H732 H 0.80866 0.42402 0.26431 0.0
H733 H 0.81657 0.38638 0.25358 0.0
H734 H 0.89037 0.40877 0.28127 0.0
H735 H 0.88236 0.44659 0.29223 0.0
Tb736 Tb 0.09051 0.54201 0.55067 0.0
Eu737 Eu 0.06733 0.55617 0.5007 0.0
C738 C 0.08381 0.5054 0.50493 0.0
C739 C 0.12345 0.57102 0.51706 0.0
C740 C 0.09739 0.53338 0.61433 0.0
C741 C 0.06891 0.52021 0.64163 0.0
C742 C 0.08127 0.51579 0.62248 0.0
C743 C 0.10231 0.55493 0.62686 0.0
C744 C 0.08992 0.55933 0.64582 0.0
C745 C 0.07254 0.54226 0.65275 0.0
C746 C 0.10608 0.53031 0.59097 0.0
O747 O 0.07817 0.57437 0.56257 0.0
O748 O 0.0711 0.58897 0.52618 0.0
O749 O 1.03531 0.54188 0.51731 0.0
O750 O 0.05359 0.52509 0.54802 0.0
C751 C 0.07369 0.59184 0.54999 0.0
O752 O 0.04886 0.57893 0.47961 0.0
O753 O 0.05836 0.54954 0.46201 0.0
O754 O 0.06845 0.51722 0.4946 0.0
O755 O 0.09773 0.515 0.52459 0.0
O756 O 0.1205 0.56305 0.53801 0.0
O757 O 0.10627 0.56786 0.49926 0.0
C758 C 1.03449 0.52791 0.53442 0.0
O759 O 0.09166 0.51659 0.57501 0.0
O760 O 0.11524 0.54882 0.58166 0.0
C761 C 0.0641 0.58295 0.44257 0.0
C762 C 0.09871 0.59558 0.41227 0.0
C763 C 0.07624 0.58323 0.40277 0.0
C764 C 0.05903 0.57687 0.41791 0.0
C765 C 0.08513 0.59811 0.4514 0.0
C766 C 0.1023 0.60452 0.43625 0.0
C767 C 0.05131 0.56885 0.45919 0.0
H768 H 0.05581 0.50675 0.64702 0.0
H769 H 0.07731 0.49896 0.61326 0.0
H770 H 0.11487 0.56877 0.62131 0.0
H771 H 0.0935 0.5763 0.65472 0.0
H772 H 0.07298 0.57604 0.38436 0.0
H773 H 0.04295 0.5651 0.41085 0.0
H774 H 0.08941 0.60299 0.47044 0.0
H775 H 0.11934 0.61433 0.44388 0.0
Tb776 Tb 0.80305 0.80053 0.28302 0.0
Eu777 Eu 0.85513 0.79518 0.30527 0.0
C778 C 0.84728 0.8359 0.27264 0.0
C779 C 0.83436 0.77583 0.24928 0.0
C780 C 0.73919 0.79182 0.27946 0.0
C781 C 0.69659 0.78029 0.2775 0.0
C782 C 0.71648 0.79021 0.26709 0.0
C783 C 0.74192 0.78327 0.30221 0.0
C784 C 0.72214 0.77341 0.31261 0.0
C785 C 0.69923 0.77181 0.30041 0.0
C786 C 0.7603 0.80128 0.26849 0.0
O787 O 0.79967 0.76708 0.29712 0.0
O788 O 0.8301 0.7749 0.32718 0.0
O789 O 0.84513 0.82152 0.33172 0.0
O790 O 0.80493 0.81278 0.32182 0.0
C791 C 0.80958 0.76306 0.31814 0.0
O792 O 0.87999 0.77249 0.31446 0.0
O793 O 0.89032 0.80888 0.32353 0.0
O794 O 0.8611 0.82137 0.27841 0.0
O795 O 0.82502 0.83259 0.27661 0.0
O796 O 0.81817 0.78895 0.25055 0.0
O797 O 0.84799 0.77312 0.26916 0.0
C798 C 0.82365 0.82305 0.33688 0.0
O799 O 0.77458 0.81821 0.28089 0.0
O800 O 0.7718 0.78615 0.26068 0.0
C801 C 0.91914 0.78967 0.3113 0.0
C802 C 0.9622 0.7952 0.29202 0.0
C803 C 0.9605 0.78614 0.31445 0.0
C804 C 0.939 0.78351 0.32415 0.0
C805 C 0.92055 0.79757 0.28835 0.0
C806 C 0.942 0.80044 0.27883 0.0
C807 C 0.89732 0.78931 0.32219 0.0
H808 H 0.67918 0.77911 0.26757 0.0
H809 H 0.71413 0.79648 0.24938 0.0
H810 H 0.75939 0.78422 0.31195 0.0
H811 H 0.7248 0.76739 0.3304 0.0
H812 H 0.97598 0.78208 0.32486 0.0
H813 H 0.93806 0.77735 0.34188 0.0
H814 H 0.90526 0.80224 0.27817 0.0
H815 H 0.94298 0.80729 0.2614 0.0
Tb816 Tb 0.85062 0.33425 0.80475 0.0
Eu817 Eu 0.81094 0.29127 0.77537 0.0
C818 C 0.79869 0.33936 0.78831 0.0
C819 C 0.81983 0.29618 0.83295 0.0
C820 C 0.89418 0.38872 0.83126 0.0
C821 C 0.90694 0.42425 0.85606 0.0
C822 C 0.89173 0.40326 0.85085 0.0
C823 C 0.91177 0.39587 0.81649 0.0
C824 C 0.92702 0.41694 0.82169 0.0
C825 C 0.92507 0.43115 0.84184 0.0
C826 C 0.88064 0.36518 0.82907 0.0
O827 O 0.86421 0.30315 0.80902 0.0
O828 O 0.84707 0.28253 0.77418 0.0
O829 O 0.82218 0.31535 0.74811 0.0
O830 O 0.85718 0.33669 0.76703 0.0
C831 C 0.8636 0.28667 0.7926 0.0
O832 O 0.80059 0.25607 0.76076 0.0
O833 O 0.77684 0.27983 0.75323 0.0
O834 O 0.79231 0.31752 0.79083 0.0
O835 O 0.8211 0.34871 0.78906 0.0
O836 O 0.8313 0.31727 0.8323 0.0
O837 O 0.81236 0.28243 0.81361 0.0
C838 C 0.842 0.32976 0.74756 0.0
O839 O 0.8579 0.36218 0.83044 0.0
O840 O 0.88608 0.35035 0.81378 0.0
C841 C 0.75994 0.24063 0.75177 0.0
C842 C 0.72426 0.20225 0.75366 0.0
C843 C 0.73152 0.20879 0.73156 0.0
C844 C 0.74916 0.22781 0.73066 0.0
C845 C 0.75234 0.23479 0.77385 0.0
C846 C 0.73455 0.21573 0.77478 0.0
C847 C 0.78012 0.25892 0.75026 0.0
H848 H 0.9047 0.43496 0.87144 0.0
H849 H 0.8785 0.39804 0.86269 0.0
H850 H 0.9143 0.38492 0.80143 0.0
H851 H 0.94088 0.42173 0.81045 0.0
H852 H 0.72435 0.19864 0.715 0.0
H853 H 0.75496 0.23208 0.71349 0.0
H854 H 0.76054 0.24458 0.79033 0.0
H855 H 0.72918 0.21132 0.79205 0.0
Tb856 Tb 0.84206 0.8195 0.80358 0.0
Eu857 Eu 0.81629 0.77379 0.77417 0.0
C858 C 0.8393 0.77241 0.83119 0.0
C859 C 0.87281 0.79386 0.76822 0.0
C860 C 0.85783 0.88036 0.81794 0.0
C861 C 0.83502 0.9105 0.82136 0.0
C862 C 0.84582 0.89364 0.83175 0.0
C863 C 0.86172 0.88636 0.79464 0.0
C864 C 0.85123 0.90348 0.78439 0.0
C865 C 0.83637 0.91455 0.79706 0.0
C866 C 0.86038 0.85757 0.82545 0.0
O867 O 0.8299 0.8333 0.76894 0.0
O868 O 0.81006 0.80076 0.74742 0.0
O869 O 0.78521 0.78365 0.79219 0.0
O870 O 0.80483 0.81624 0.81372 0.0
C871 C 0.81821 0.82292 0.74856 0.0
O872 O 0.80924 0.75288 0.74025 0.0
O873 O 0.79245 0.7408 0.7706 0.0
O874 O 0.82631 0.76149 0.81174 0.0
O875 O 0.84928 0.79412 0.83039 0.0
O876 O 0.87038 0.81237 0.78114 0.0
O877 O 0.85543 0.77583 0.76636 0.0
C878 C 0.7852 0.80062 0.80818 0.0
O879 O 0.8407 0.84526 0.82986 0.0
O880 O 0.87193 0.84572 0.81263 0.0
C881 C 0.80681 0.71415 0.74637 0.0
C882 C 0.83689 0.68219 0.7439 0.0
C883 C 0.82913 0.69222 0.72308 0.0
C884 C 0.81415 0.70809 0.72432 0.0
C885 C 0.81234 0.70217 0.76645 0.0
C886 C 0.82725 0.68639 0.76523 0.0
C887 C 0.79756 0.73541 0.74934 0.0
H888 H 0.82373 0.9187 0.83169 0.0
H889 H 0.84261 0.88934 0.84975 0.0
H890 H 0.87104 0.87655 0.78354 0.0
H891 H 0.85321 0.90679 0.7659 0.0
H892 H 0.83591 0.68898 0.70629 0.0
H893 H 0.80986 0.71694 0.70851 0.0
H894 H 0.80683 0.70627 0.7837 0.0
H895 H 0.83292 0.67915 0.7817 0.0
Tb896 Tb 0.58449 0.57358 0.5538 0.0
Eu897 Eu 0.63499 0.58872 0.59009 0.0
C898 C 0.63091 0.56226 0.53758 0.0
C899 C 0.60459 0.53915 0.58716 0.0
C900 C 0.52642 0.58162 0.52741 0.0
C901 C 0.48549 0.5859 0.51787 0.0
C902 C 0.50328 0.57286 0.51678 0.0
C903 C 0.53173 0.60366 0.53878 0.0
C904 C 0.51399 0.61658 0.54009 0.0
C905 C 0.49062 0.60777 0.52985 0.0
C906 C 0.54462 0.56729 0.52855 0.0
O907 O 0.57915 0.59757 0.58197 0.0
O908 O 0.60479 0.58838 0.61213 0.0
O909 O 0.62427 0.62107 0.57811 0.0
O910 O 0.60609 0.60362 0.54208 0.0
C911 C 0.58511 0.59544 0.60479 0.0
O912 O 0.65558 0.58723 0.6248 0.0
O913 O 0.67264 0.60404 0.59641 0.0
O914 O 0.64316 0.57797 0.55356 0.0
O915 O 0.60796 0.55515 0.53678 0.0
O916 O 0.58553 0.54657 0.57838 0.0
O917 O 0.62582 0.55093 0.58669 0.0
C918 C 0.61529 0.62212 0.55581 0.0
O919 O 0.56442 0.57592 0.5207 0.0
O920 O 0.54842 0.55861 0.5491 0.0
C921 C 0.69213 0.57745 0.6167 0.0
C922 C 0.71641 0.54128 0.60747 0.0
C923 C 0.69856 0.53879 0.62272 0.0
C924 C 0.68672 0.55669 0.62744 0.0
C925 C 0.71108 0.5805 0.60283 0.0
C926 C 0.72311 0.56267 0.59833 0.0
C927 C 0.67566 0.59397 0.61638 0.0
H928 H 0.4676 0.57858 0.51002 0.0
H929 H 0.49885 0.55579 0.50813 0.0
H930 H 0.54953 0.61072 0.5471 0.0
H931 H 0.51849 0.6334 0.54927 0.0
H932 H 0.69287 0.52264 0.6301 0.0
H933 H 0.67242 0.55375 0.63846 0.0
H934 H 0.71585 0.59631 0.59445 0.0
H935 H 0.73726 0.56549 0.58711 0.0
Tb936 Tb 0.06269 0.52829 0.0285 0.0
Eu937 Eu 0.09727 0.56914 0.06219 0.0
C938 C 0.07095 0.52557 0.08384 0.0
C939 C 0.04086 0.57306 0.04651 0.0
C940 C 1.02916 0.47289 0.99726 0.0
C941 C 0.03666 0.43509 1.00464 0.0
C942 C 0.04201 0.45863 1.01011 0.0
C943 C 1.01084 0.46352 0.97918 0.0
C944 C 1.00546 0.44006 0.97373 0.0
C945 C 1.01837 0.4256 0.98632 0.0
C946 C 1.03423 0.49754 1.00246 0.0
O947 O 0.06924 0.55654 1.00622 0.0
O948 O 0.10506 0.57493 0.0248 0.0
O949 O 0.12153 0.54274 0.0572 0.0
O950 O 0.09813 0.51704 0.02857 0.0
C951 C 0.08875 0.57141 1.00637 0.0
O952 O 0.12048 0.60216 0.06635 0.0
O953 O 0.1167 0.5822 0.09728 0.0
O954 O 0.0749 0.54783 0.08577 0.0
O955 O 0.06972 0.51453 0.06294 0.0
O956 O 0.03761 0.55133 0.03809 0.0
O957 O 0.06256 0.5838 0.05524 0.0
C958 C 0.11884 0.52432 0.04227 0.0
O959 O 1.03077 0.50482 0.02383 0.0
O960 O 0.05379 0.5085 0.99576 0.0
C961 C 0.12657 0.62237 0.10373 0.0
C962 C 0.12841 0.66665 0.1239 0.0
C963 C 0.1494 0.65837 0.12145 0.0
C964 C 0.14845 0.63638 0.11148 0.0
C965 C 0.10552 0.63001 0.10709 0.0
C966 C 0.10644 0.65201 0.11726 0.0
C967 C 0.12629 0.60133 0.0893 0.0
H968 H 0.0468 0.42432 1.01469 0.0
H969 H 0.05616 0.46572 0.02423 0.0
H970 H 1.00079 0.47439 0.96913 0.0
H971 H 0.99158 0.4333 0.95926 0.0
H972 H 0.16659 0.66924 0.126 0.0
H973 H 0.16483 0.63074 0.10871 0.0
H974 H 0.08848 0.61935 0.10098 0.0
H975 H 0.08997 0.65778 0.11923 0.0
C976 C 0.07258 0.19495 0.94012 0.0
C977 C 0.04852 0.18966 0.94328 0.0
C978 C 0.08898 0.1829 0.95137 0.0
C979 C 0.08085 0.165 0.96559 0.0
C980 C 0.05631 0.15876 0.96746 0.0
C981 C 0.0405 0.17147 0.95662 0.0
C982 C 0.11495 0.19017 0.94904 0.0
C983 C 0.04673 0.13919 0.98165 0.0
C984 C 0.10845 0.11654 0.9864 0.0
C985 C 0.11123 0.12186 1.01127 0.0
C986 C 0.10168 0.13208 0.97044 0.0
C987 C 0.09756 0.1532 0.97979 0.0
C988 C 0.10406 0.15992 1.00452 0.0
C989 C 0.11088 0.14404 0.02012 0.0
C990 C 0.09566 0.12453 0.9441 0.0
C991 C 0.1007 0.18269 1.01498 0.0
H992 H 0.07875 0.20927 0.92991 0.0
H993 H 1.02185 0.16739 0.95885 0.0
H994 H 0.12365 0.20116 0.96521 0.0
H995 H 0.12395 0.17531 0.94783 0.0
H996 H 0.11764 0.20007 0.93304 0.0
H997 H 1.02707 0.13511 0.97884 0.0
H998 H 0.05354 0.12367 0.97644 0.0
H999 H 0.05264 0.1436 1.00107 0.0
H1000 H 0.10942 0.09949 0.97953 0.0
H1001 H 0.1134 0.14827 0.03934 0.0
H1002 H 0.10037 0.1389 0.93277 0.0
H1003 H 0.07627 0.1182 0.94014 0.0
H1004 H 0.1049 0.11055 0.93902 0.0
H1005 H 0.10613 0.19634 1.003 0.0
H1006 H 0.111 0.18718 0.03302 0.0
H1007 H 0.08166 0.18202 1.01678 0.0
C1008 C 0.20463 0.90775 0.23193 0.0
C1009 C 0.20474 0.90247 0.20735 0.0
C1010 C 0.22407 0.90585 0.24856 0.0
C1011 C 0.24354 0.89772 0.24037 0.0
C1012 C 0.24491 0.89509 0.21539 0.0
C1013 C 0.22552 0.89781 0.19911 0.0
C1014 C 0.22257 0.91005 0.27499 0.0
C1015 C 0.26538 0.88647 0.20587 0.0
C1016 C 0.29706 0.8863 0.28065 0.0
C1017 C 0.28977 0.86321 0.28429 0.0
C1018 C 0.28174 0.89837 0.26755 0.0
C1019 C 0.25905 0.88677 0.25721 0.0
C1020 C 0.25138 0.86368 0.26161 0.0
C1021 C 0.26668 0.85234 0.27541 0.0
C1022 C 0.29028 0.92317 0.26404 0.0
C1023 C 0.22743 0.85047 0.25069 0.0
H1024 H 0.18872 0.91179 0.23831 0.0
H1025 H 0.22572 0.89382 0.1801 0.0
H1026 H 0.21673 0.89358 0.28273 0.0
H1027 H 0.24015 0.91792 0.2847 0.0
H1028 H 0.20963 0.92126 0.27814 0.0
H1029 H 0.2655 0.88854 0.18634 0.0
H1030 H 0.28252 0.89551 0.21552 0.0
H1031 H 0.26399 0.86809 0.20884 0.0
H1032 H 0.31488 0.89481 0.28758 0.0
H1033 H 0.26091 0.83449 0.27805 0.0
H1034 H 0.27562 0.93293 0.26399 0.0
H1035 H 0.29726 0.92471 0.24648 0.0
H1036 H 0.30477 0.93104 0.27828 0.0
H1037 H 0.21311 0.85874 0.25661 0.0
H1038 H 0.22435 0.83255 0.2557 0.0
H1039 H 0.22595 0.85036 0.23081 0.0
C1040 C 0.50961 0.80896 0.43274 0.0
C1041 C 0.51463 0.79994 0.41082 0.0
C1042 C 0.50898 0.83214 0.43637 0.0
C1043 C 0.51353 0.84661 0.41761 0.0
C1044 C 0.51673 0.83728 0.39482 0.0
C1045 C 0.51723 0.81394 0.39166 0.0
C1046 C 0.50521 0.84139 0.46087 0.0
C1047 C 0.52131 0.85215 0.37431 0.0
C1048 C 0.50372 0.90687 0.43019 0.0
C1049 C 0.52643 0.9176 0.44066 0.0
C1050 C 0.49938 0.88397 0.42129 0.0
C1051 C 0.51818 0.87162 0.42309 0.0
C1052 C 0.54135 0.88273 0.43251 0.0
C1053 C 0.54519 0.9056 0.44113 0.0
C1054 C 0.47449 0.87275 0.41113 0.0
C1055 C 0.56194 0.87018 0.43456 0.0
H1056 H 0.50723 0.7981 0.44748 0.0
H1057 H 0.52092 0.80696 0.37461 0.0
H1058 H 0.52204 0.85186 0.46979 0.0
H1059 H 0.4918 0.85258 0.45922 0.0
H1060 H 0.49933 0.82762 0.4726 0.0
H1061 H 0.51937 0.84196 0.35688 0.0
H1062 H 0.50902 0.86446 0.37288 0.0
H1063 H 0.53962 0.86213 0.37769 0.0
H1064 H 0.48914 0.91608 0.42983 0.0
H1065 H 0.56286 0.914 0.4487 0.0
H1066 H 0.4667 0.86128 0.42423 0.0
H1067 H 0.47457 0.86217 0.39436 0.0
H1068 H 0.46289 0.88543 0.4073 0.0
H1069 H 0.55902 0.85688 0.44754 0.0
H1070 H 0.57909 0.8817 0.4407 0.0
H1071 H 0.56322 0.86148 0.41698 0.0
C1072 C 0.55206 0.32637 0.70378 0.0
C1073 C 0.57598 0.32793 0.71259 0.0
C1074 C 0.53419 0.31587 0.71659 0.0
C1075 C 0.54052 0.30635 0.73842 0.0
C1076 C 0.56464 0.30654 0.74653 0.0
C1077 C 0.58215 0.3176 0.73363 0.0
C1078 C 0.50864 0.3163 0.70756 0.0
C1079 C 0.57198 0.29606 0.76942 0.0
C1080 C 0.49796 0.30828 0.78446 0.0
C1081 C 0.48421 0.28636 0.78092 0.0
C1082 C 0.51675 0.31477 0.77112 0.0
C1083 C 0.52209 0.2988 0.75408 0.0
C1084 C 0.50892 0.27631 0.75115 0.0
C1085 C 0.48988 0.2704 0.76448 0.0
C1086 C 0.53017 0.33903 0.7745 0.0
C1087 C 0.51448 0.25876 0.73347 0.0
H1088 H 0.54728 0.33435 0.68749 0.0
H1089 H 0.60069 0.31853 0.74026 0.0
H1090 H 0.49771 0.29903 0.70704 0.0
H1091 H 0.50147 0.32752 0.72005 0.0
H1092 H 0.50662 0.32266 0.68934 0.0
H1093 H 0.59103 0.29473 0.77138 0.0
H1094 H 0.56879 0.30665 0.78508 0.0
H1095 H 0.56122 0.27883 0.76998 0.0
H1096 H 0.4933 0.32074 0.79689 0.0
H1097 H 0.47921 0.25343 0.76182 0.0
H1098 H 0.52771 0.34754 0.75753 0.0
H1099 H 0.54942 0.33928 0.77889 0.0
H1100 H 0.52419 0.34911 0.78901 0.0
H1101 H 0.51027 0.2636 0.71489 0.0
H1102 H 0.50422 0.24149 0.73516 0.0
H1103 H 0.53367 0.25811 0.73613 0.0
C1104 C 0.06446 0.8678 0.59992 0.0
C1105 C 0.07076 0.8656 0.62475 0.0
C1106 C 0.06565 0.88952 0.58931 0.0
C1107 C 0.07455 0.91089 0.60307 0.0
C1108 C 0.08158 0.90862 0.6281 0.0
C1109 C 0.07909 0.88671 0.63838 0.0
C1110 C 0.05683 0.88907 0.56298 0.0
C1111 C 0.09213 0.92935 0.64473 0.0
C1112 C 0.09369 0.96449 0.56457 0.0
C1113 C 0.07954 0.9806 0.57059 0.0
C1114 C 0.09272 0.94271 0.57503 0.0
C1115 C 0.07626 0.93505 0.59166 0.0
C1116 C 0.06146 0.9511 0.59721 0.0
C1117 C 0.06367 0.97319 0.58737 0.0
C1118 C 0.10998 0.92814 0.56802 0.0
C1119 C 0.04261 0.94525 0.61353 0.0
H1120 H 0.05781 0.85232 0.58853 0.0
H1121 H 0.08425 0.88622 0.65746 0.0
H1122 H 0.05126 0.90521 0.55799 0.0
H1123 H 0.07117 0.88602 0.55235 0.0
H1124 H 0.0416 0.87486 0.55785 0.0
H1125 H 0.10607 0.92542 0.65833 0.0
H1126 H 0.1 0.94397 0.63504 0.0
H1127 H 0.07808 0.93444 0.65459 0.0
H1128 H 0.10622 0.96911 0.55188 0.0
H1129 H 0.05221 0.98461 0.59257 0.0
H1130 H 0.10281 0.91865 0.55051 0.0
H1131 H 0.1133 0.91576 0.58148 0.0
H1132 H 0.12718 0.93891 0.5656 0.0
H1133 H 0.03709 0.92662 0.61446 0.0
H1134 H 1.02669 0.95248 0.60742 0.0
H1135 H 0.04949 0.95306 0.63185 0.0
C1136 C 0.5122 0.79384 0.8669 0.0
C1137 C 0.51689 0.80401 0.89061 0.0
C1138 C 0.48997 0.79324 0.85226 0.0
C1139 C 0.47154 0.80331 0.86097 0.0
C1140 C 0.47646 0.81393 0.88466 0.0
C1141 C 0.49851 0.81401 0.89889 0.0
C1142 C 0.48607 0.78147 0.82743 0.0
C1143 C 0.45824 0.82532 0.8952 0.0
C1144 C 0.42037 0.82083 0.81808 0.0
C1145 C 0.40035 0.80395 0.82017 0.0
C1146 C 0.44331 0.82058 0.8306 0.0
C1147 C 0.44722 0.80285 0.84578 0.0
C1148 C 0.42719 0.78549 0.84754 0.0
C1149 C 0.40436 0.78631 0.83508 0.0
C1150 C 0.46338 0.83981 0.828 0.0
C1151 C 0.42979 0.76598 0.86299 0.0
H1152 H 0.52572 0.78589 0.85988 0.0
H1153 H 0.50135 0.82217 0.9169 0.0
H1154 H 0.47056 0.76735 0.82594 0.0
H1155 H 0.48198 0.79356 0.81392 0.0
H1156 H 0.50176 0.77446 0.82297 0.0
H1157 H 0.46472 0.83346 0.91351 0.0
H1158 H 0.45325 0.83852 0.88346 0.0
H1159 H 0.44192 0.81263 0.89615 0.0
H1160 H 0.41805 0.83473 0.80693 0.0
H1161 H 0.38951 0.773 0.83714 0.0
H1162 H 0.47858 0.83295 0.82205 0.0
H1163 H 0.46964 0.84934 0.84568 0.0
H1164 H 0.45809 0.85189 0.81494 0.0
H1165 H 0.44453 0.75777 0.85802 0.0
H1166 H 0.41334 0.7529 0.86128 0.0
H1167 H 0.43432 0.77248 0.8821 0.0
C1168 C 0.5867 0.23233 0.10051 0.0
C1169 C 0.56958 0.23902 0.11448 0.0
C1170 C 0.58636 0.20938 0.09137 0.0
C1171 C 0.56828 0.19099 0.09555 0.0
C1172 C 0.55094 0.19727 0.10989 0.0
C1173 C 0.55178 0.22066 0.11907 0.0
C1174 C 0.60568 0.2049 0.0768 0.0
C1175 C 0.53105 0.17912 0.11533 0.0
C1176 C 0.55781 0.13555 0.05037 0.0
C1177 C 0.57016 0.11993 0.06227 0.0
C1178 C 0.55651 0.15777 0.06096 0.0
C1179 C 0.5678 0.16584 0.08463 0.0
C1180 C 0.5801 0.15007 0.09685 0.0
C1181 C 0.5811 0.12791 0.08583 0.0
C1182 C 0.5431 0.17291 0.04642 0.0
C1183 C 0.59274 0.15678 0.1218 0.0
H1184 H 0.60095 0.24539 0.09644 0.0
H1185 H 0.53811 0.22453 0.12947 0.0
H1186 H 0.61499 0.19196 0.08507 0.0
H1187 H 0.5978 0.19789 0.05844 0.0
H1188 H 0.61893 0.22051 0.07535 0.0
H1189 H 0.51918 0.18594 0.12693 0.0
H1190 H 0.5204 0.17132 0.09832 0.0
H1191 H 0.53838 0.16538 0.1244 0.0
H1192 H 0.5491 0.13049 0.03232 0.0
H1193 H 0.59084 0.11679 0.09584 0.0
H1194 H 0.55549 0.18837 0.04266 0.0
H1195 H 0.5297 0.17864 0.0568 0.0
H1196 H 0.534 0.16422 0.02907 0.0
H1197 H 0.60732 0.17148 0.12126 0.0
H1198 H 0.60029 0.14263 0.12983 0.0
H1199 H 0.58035 0.16228 0.13364 0.0
C1200 C 0.15466 0.29931 0.35916 0.0
C1201 C 0.15523 0.29796 0.38434 0.0
C1202 C 0.17533 0.30008 0.34683 0.0
C1203 C 0.198 0.29863 0.35924 0.0
C1204 C 0.1986 0.29686 0.38465 0.0
C1205 C 0.1778 0.297 0.39668 0.0
C1206 C 0.17287 0.30284 0.3202 0.0
C1207 C 0.2214 0.29451 0.39935 0.0
C1208 C 0.24602 0.27906 0.32153 0.0
C1209 C 0.26298 0.29907 0.32012 0.0
C1210 C 0.22565 0.27861 0.33429 0.0
C1211 C 0.22063 0.29882 0.34578 0.0
C1212 C 0.23747 0.31917 0.34402 0.0
C1213 C 0.25821 0.31897 0.33193 0.0
C1214 C 0.20958 0.25609 0.3358 0.0
C1215 C 0.23349 0.34155 0.3548 0.0
H1216 H 0.13788 0.30028 0.34889 0.0
H1217 H 0.17921 0.29589 0.41596 0.0
H1218 H 0.18624 0.31742 0.3161 0.0
H1219 H 0.17629 0.28739 0.31048 0.0
H1220 H 0.15495 0.3057 0.31319 0.0
H1221 H 0.2189 0.29098 0.4182 0.0
H1222 H 0.22892 0.28054 0.39117 0.0
H1223 H 0.2346 0.31042 0.39949 0.0
H1224 H 0.24896 0.2633 0.31306 0.0
H1225 H 0.27061 0.33475 0.33141 0.0
H1226 H 0.19181 0.25626 0.3261 0.0
H1227 H 0.20723 0.25325 0.35483 0.0
H1228 H 0.21657 0.24159 0.32799 0.0
H1229 H 0.21523 0.34408 0.34873 0.0
H1230 H 0.2463 0.35622 0.3499 0.0
H1231 H 0.23529 0.34141 0.37464 0.0
C1232 C 0.96864 0.03114 0.13388 0.0
C1233 C 0.95919 0.0427 0.15163 0.0
C1234 C 0.98358 0.0432 0.11909 0.0
C1235 C 0.98925 0.06724 0.12255 0.0
C1236 C 0.97667 0.07896 0.13767 0.0
C1237 C 0.9615 0.06643 0.15204 0.0
C1238 C 0.99574 0.03011 0.10217 0.0
C1239 C 0.98153 0.1046 0.14101 0.0
C1240 C 0.0545 0.08567 0.11874 0.0
C1241 C 0.05425 0.09141 0.09488 0.0
C1242 C 1.03327 0.07967 0.1287 0.0
C1243 C 1.01135 0.0792 0.11432 0.0
C1244 C 1.01111 0.08712 0.09109 0.0
C1245 C 1.03263 0.09343 0.08175 0.0
C1246 C 1.03429 0.07187 0.15389 0.0
C1247 C 0.98829 0.08692 0.07511 0.0
H1248 H 0.96665 1.01275 0.13352 0.0
H1249 H 0.95413 0.07536 0.1658 0.0
H1250 H 0.99622 0.038 0.08474 0.0
H1251 H 1.01433 0.03053 0.11007 0.0
H1252 H 0.98675 1.01202 0.09881 0.0
H1253 H 0.96714 0.11108 0.14919 0.0
H1254 H 0.99836 0.11037 0.15305 0.0
H1255 H 0.98359 0.11226 0.12361 0.0
H1256 H 0.07114 0.0844 0.12915 0.0
H1257 H 1.03229 0.09841 0.06351 0.0
H1258 H 1.02798 0.05318 0.15313 0.0
H1259 H 1.02249 0.08007 0.16436 0.0
H1260 H 0.05255 0.0758 0.16358 0.0
H1261 H 0.98353 0.07061 0.06384 0.0
H1262 H 0.99053 0.10088 0.06292 0.0
H1263 H 0.97337 0.08868 0.08545 0.0
C1264 C 0.32491 0.72497 0.45063 0.0
C1265 C 0.3162 0.73374 0.47073 0.0
C1266 C 0.32568 0.73663 0.42958 0.0
C1267 C 0.31697 0.7573 0.42837 0.0
C1268 C 0.30747 0.76588 0.44837 0.0
C1269 C 0.30745 0.75412 0.46943 0.0
C1270 C 0.33609 0.72694 0.40875 0.0
C1271 C 0.29748 0.78754 0.44755 0.0
C1272 C 0.33976 0.79746 0.38225 0.0
C1273 C 0.32202 0.79127 0.36273 0.0
C1274 C 0.33818 0.78678 0.40388 0.0
C1275 C 0.31809 0.76996 0.40621 0.0
C1276 C 0.29971 0.76433 0.38683 0.0
C1277 C 0.30204 0.77484 0.36523 0.0
C1278 C 0.3585 0.79274 0.42384 0.0
C1279 C 0.27781 0.74682 0.38869 0.0
H1280 H 0.33178 0.70926 0.45154 0.0
H1281 H 0.30059 0.7609 0.4849 0.0
H1282 H 0.32191 0.72112 0.3936 0.0
H1283 H 0.34935 0.74024 0.4023 0.0
H1284 H 0.3447 0.71231 0.41357 0.0
H1285 H 0.28975 0.79137 0.46418 0.0
H1286 H 0.31164 0.80207 0.44506 0.0
H1287 H 0.28355 0.78619 0.43197 0.0
H1288 H 0.35537 0.80993 0.38024 0.0
H1289 H 0.28823 0.77008 0.35018 0.0
H1290 H 0.3668 0.7776 0.42698 0.0
H1291 H 0.35195 0.79763 0.44081 0.0
H1292 H 0.37232 0.80692 0.41966 0.0
H1293 H 0.28265 0.72977 0.39017 0.0
H1294 H 0.2642 0.74595 0.37287 0.0
H1295 H 0.26988 0.7508 0.40514 0.0
C1296 C 0.58445 0.95298 0.69208 0.0
C1297 C 0.60814 0.96408 0.69741 0.0
C1298 C 0.57291 0.95124 0.66849 0.0
C1299 C 0.585 0.96201 0.65041 0.0
C1300 C 0.60979 0.97009 0.65505 0.0
C1301 C 0.62115 0.97063 0.6785 0.0
C1302 C 0.54717 0.94003 0.66359 0.0
C1303 C 0.62373 0.98106 0.63614 0.0
C1304 C 0.56553 0.9759 0.58723 0.0
C1305 C 0.56063 0.99773 0.59199 0.0
C1306 C 0.57054 0.96227 0.60618 0.0
C1307 C 0.57152 0.97118 0.63021 0.0
C1308 C 0.56383 0.99205 0.63476 0.0
C1309 C 0.55787 1.00469 0.61553 0.0
C1310 C 0.5764 0.93921 0.60027 0.0
C1311 C 0.56443 1.00248 0.65999 0.0
H1312 H 0.57447 0.94706 0.7065 0.0
H1313 H 0.63964 0.97869 0.68236 0.0
H1314 H 0.53587 0.95226 0.6686 0.0
H1315 H 0.54204 0.93423 0.64433 0.0
H1316 H 0.54352 0.92521 0.67463 0.0
H1317 H 0.64301 0.98573 0.64245 0.0
H1318 H 0.62131 0.96932 0.61981 0.0
H1319 H 0.61719 0.99674 0.63099 0.0
H1320 H 0.56704 0.97005 0.56899 0.0
H1321 H 0.55318 1.02118 0.61926 0.0
H1322 H 0.57616 0.9285 0.61584 0.0
H1323 H 0.59418 0.94136 0.59407 0.0
H1324 H 0.56351 0.9301 0.58522 0.0
H1325 H 0.55867 1.01925 0.66022 0.0
H1326 H 0.58266 1.00492 0.6696 0.0
H1327 H 0.55263 0.99101 0.67019 0.0
C1328 C 0.31228 0.3742 0.97214 0.0
C1329 C 0.31059 0.3975 0.974 0.0
C1330 C 0.31483 0.36247 0.95 0.0
C1331 C 0.3161 0.37396 0.9284 0.0
C1332 C 0.31456 0.39755 0.9302 0.0
C1333 C 0.31173 0.40882 0.95255 0.0
C1334 C 0.31607 0.33749 0.94976 0.0
C1335 C 0.31604 0.41109 0.90833 0.0
C1336 C 0.3448 0.34772 0.87599 0.0
C1337 C 0.32528 0.33704 0.85935 0.0
C1338 C 0.34212 0.35979 0.89789 0.0
C1339 C 0.31923 0.36142 0.90431 0.0
C1340 C 0.29943 0.35063 0.88761 0.0
C1341 C 0.30263 0.33891 0.86566 0.0
C1342 C 0.36404 0.37089 0.91429 0.0
C1343 C 0.27459 0.35124 0.89308 0.0
H1344 H 0.31142 0.36487 0.98816 0.0
H1345 H 0.31052 0.42671 0.95321 0.0
H1346 H 0.30176 0.32765 0.93649 0.0
H1347 H 0.33318 0.33469 0.94409 0.0
H1348 H 0.31435 0.33065 0.96762 0.0
H1349 H 0.31489 0.42921 0.91233 0.0
H1350 H 0.33298 0.41038 0.90103 0.0
H1351 H 0.30148 0.40352 0.89408 0.0
H1352 H 0.36249 0.34675 0.87188 0.0
H1353 H 0.28717 0.33088 0.8535 0.0
H1354 H 0.36415 0.36334 0.93192 0.0
H1355 H 0.36397 0.38932 0.91761 0.0
H1356 H 0.38059 0.36891 0.90674 0.0
H1357 H 0.2717 0.34335 0.91021 0.0
H1358 H 0.26094 0.34214 0.87866 0.0
H1359 H 0.27209 0.36915 0.89544 0.0
C1360 C 1.00259 0.02873 0.269 0.0
C1361 C 0.98022 0.03272 0.27356 0.0
C1362 C 1.02032 0.02774 0.28784 0.0
C1363 C 1.01559 0.03107 0.31175 0.0
C1364 C 0.99307 0.03519 0.31649 0.0
C1365 C 0.97554 0.03582 0.29727 0.0
C1366 C 0.04401 1.02298 0.28217 0.0
C1367 C 0.98753 0.03894 0.34186 0.0
C1368 C 0.04918 1.00794 0.36351 0.0
C1369 C 0.06404 0.02777 0.37449 0.0
C1370 C 1.03424 1.00856 0.34226 0.0
C1371 C 1.03391 0.02957 0.33194 0.0
C1372 C 0.0499 0.04937 0.34198 0.0
C1373 C 0.06495 0.04818 0.36308 0.0
C1374 C 1.01769 0.98701 0.33179 0.0
C1375 C 0.05006 0.07206 0.33132 0.0
H1376 H 1.00628 0.02631 0.25066 0.0
H1377 H 0.95831 0.03904 0.3008 0.0
H1378 H 0.05841 0.03701 0.29019 0.0
H1379 H 0.04749 1.00715 0.29022 0.0
H1380 H 0.04488 1.02103 0.26254 0.0
H1381 H 0.96939 0.0426 0.34244 0.0
H1382 H 0.98914 1.02362 0.3518 0.0
H1383 H 1.0005 0.05339 0.35144 0.0
H1384 H 0.04799 0.99213 0.37228 0.0
H1385 H 0.07665 0.06348 0.37126 0.0
H1386 H 1.01831 0.98465 0.31218 0.0
H1387 H 0.99921 0.9883 0.33444 0.0
H1388 H 1.02209 0.97167 0.34031 0.0
H1389 H 0.0512 0.07042 0.31176 0.0
H1390 H 0.06503 0.0853 0.33992 0.0
H1391 H 1.03322 0.07793 0.33368 0.0
C1392 C 0.33757 0.73 0.61297 0.0
C1393 C 0.31791 0.73652 0.59998 0.0
C1394 C 0.34326 0.73583 0.6378 0.0
C1395 C 0.32871 0.74809 0.64996 0.0
C1396 C 0.3083 0.75382 0.63709 0.0
C1397 C 0.3033 0.74817 0.61229 0.0
C1398 C 0.36531 0.72967 0.65081 0.0
C1399 C 0.29203 0.76651 0.64939 0.0
C1400 C 0.32934 0.75342 0.7178 0.0
C1401 C 0.34034 0.77625 0.72319 0.0
C1402 C 0.32662 0.74343 0.6942 0.0
C1403 C 0.33543 0.7565 0.6757 0.0
C1404 C 0.34827 0.77892 0.68153 0.0
C1405 C 0.35038 0.78858 0.70513 0.0
C1406 C 0.31274 0.71951 0.68881 0.0
C1407 C 0.35848 0.79328 0.66253 0.0
H1408 H 0.34899 0.72105 0.60357 0.0
H1409 H 0.28791 0.75301 0.60246 0.0
H1410 H 0.37842 0.74542 0.6567 0.0
H1411 H 0.36115 0.72093 0.66718 0.0
H1412 H 0.37362 0.71849 0.63931 0.0
H1413 H 0.27595 0.76813 0.63724 0.0
H1414 H 0.28641 0.75766 0.66525 0.0
H1415 H 0.30161 0.78385 0.65594 0.0
H1416 H 0.3215 0.74379 0.73166 0.0
H1417 H 0.35917 0.80614 0.70924 0.0
H1418 H 0.32147 0.70953 0.67653 0.0
H1419 H 0.29486 0.72021 0.67966 0.0
H1420 H 0.31063 0.71039 0.70541 0.0
H1421 H 0.36829 0.78345 0.65123 0.0
H1422 H 0.37064 0.80905 0.67044 0.0
H1423 H 0.34387 0.79822 0.65057 0.0
C1424 C 0.66785 0.0449 0.81641 0.0
C1425 C 0.65362 1.0232 0.81155 0.0
C1426 C 0.66141 0.06135 0.83175 0.0
C1427 C 0.64057 0.05571 0.84281 0.0
C1428 C 0.62649 0.03361 0.83843 0.0
C1429 C 0.63308 1.01769 0.82261 0.0
C1430 C 0.67649 0.08487 0.83557 0.0
C1431 C 0.60425 0.02688 0.85018 0.0
C1432 C 0.62747 0.08387 0.89974 0.0
C1433 C 0.60819 0.09375 0.89096 0.0
C1434 C 0.63996 0.07321 0.88403 0.0
C1435 C 0.63311 0.07268 0.85902 0.0
C1436 C 0.61585 0.08526 0.85006 0.0
C1437 C 0.60344 0.0956 0.86621 0.0
C1438 C 0.65839 0.06015 0.89435 0.0
C1439 C 0.60871 0.08578 0.82346 0.0
H1440 H 0.68353 0.04937 0.80746 0.0
H1441 H 0.62203 1.00098 0.81868 0.0
H1442 H 0.66591 0.09761 0.82906 0.0
H1443 H 0.68221 0.08933 0.855 0.0
H1444 H 0.69248 0.08632 0.82605 0.0
H1445 H 0.5958 1.00879 0.84552 0.0
H1446 H 0.60842 0.02957 0.87 0.0
H1447 H 0.59125 0.03778 0.8445 0.0
H1448 H 0.63124 0.08226 0.91886 0.0
H1449 H 0.58878 0.10354 0.8594 0.0
H1450 H 0.67373 0.06201 0.88393 0.0
H1451 H 0.65045 0.04177 0.89339 0.0
H1452 H 0.66489 0.06585 0.91344 0.0
H1453 H 0.62446 0.0876 0.81364 0.0
H1454 H 0.59909 0.09993 0.81941 0.0
H1455 H 0.59689 0.06949 0.81661 0.0
C1456 C 0.332 0.37876 0.11735 0.0
C1457 C 0.3147 0.39102 0.1075 0.0
C1458 C 0.33158 0.36909 0.14003 0.0
C1459 C 0.3133 0.37116 0.15449 0.0
C1460 C 0.29593 0.38397 0.14514 0.0
C1461 C 0.29686 0.39371 0.12215 0.0
C1462 C 0.35087 0.35619 0.14837 0.0
C1463 C 0.2762 0.38747 0.15946 0.0
C1464 C 0.303 0.32508 0.20172 0.0
C1465 C 0.31573 0.33581 0.22353 0.0
C1466 C 0.30132 0.33644 0.17986 0.0
C1467 C 0.31264 0.35956 0.17882 0.0
C1468 C 0.32515 0.37065 0.20084 0.0
C1469 C 0.3265 0.35889 0.22251 0.0
C1470 C 0.28768 0.32336 0.15751 0.0
C1471 C 0.33753 0.39509 0.20142 0.0
H1472 H 0.34622 0.37637 0.10701 0.0
H1473 H 0.28317 0.40285 0.11544 0.0
H1474 H 0.36002 0.36363 0.16617 0.0
H1475 H 0.34297 0.33821 0.15053 0.0
H1476 H 0.36427 0.35641 0.13563 0.0
H1477 H 0.26179 0.39378 0.14849 0.0
H1478 H 0.2686 0.37142 0.16708 0.0
H1479 H 0.28344 0.40022 0.17469 0.0
H1480 H 0.2945 0.3074 0.20153 0.0
H1481 H 0.33651 0.36779 0.23871 0.0
H1482 H 0.29997 0.32137 0.14405 0.0
H1483 H 0.27438 0.33297 0.14939 0.0
H1484 H 0.27844 0.3062 0.16116 0.0
H1485 H 0.3499 0.3971 0.18761 0.0
H1486 H 0.34766 0.40127 0.21917 0.0
H1487 H 0.32426 0.40607 0.19705 0.0
C1488 C 0.26669 0.92599 0.06041 0.0
C1489 C 0.29113 0.9337 0.06638 0.0
C1490 C 0.25037 0.93965 0.06641 0.0
C1491 C 0.2588 0.96143 0.07856 0.0
C1492 C 0.28338 0.96868 0.08563 0.0
C1493 C 0.29918 0.95475 0.07948 0.0
C1494 C 0.22425 0.93123 0.05883 0.0
C1495 C 0.29317 0.9917 0.09871 0.0
C1496 C 0.22689 1.01109 0.0699 0.0
C1497 C 0.21832 1.01358 0.09208 0.0
C1498 C 0.23894 0.99338 0.06477 0.0
C1499 C 0.24251 0.97765 0.08223 0.0
C1500 C 0.23291 0.97937 0.10422 0.0
C1501 C 0.22097 0.99736 0.10892 0.0
C1502 C 0.24874 0.99211 0.04102 0.0
C1503 C 0.23613 0.96282 0.1232 0.0
H1504 H 0.26036 0.9097 0.05035 0.0
H1505 H 0.31803 0.96073 0.08443 0.0
H1506 H 0.21397 0.93376 0.07396 0.0
H1507 H 0.218 0.94121 0.0441 0.0
H1508 H 0.22034 0.91292 0.05244 0.0
H1509 H 0.31258 0.99417 0.10425 0.0
H1510 H 0.2896 1.00535 0.08691 0.0
H1511 H 0.28426 0.99379 0.11495 0.0
H1512 H 0.22433 1.02315 0.05652 0.0
H1513 H 0.21436 0.99911 0.12609 0.0
H1514 H 0.24352 0.97465 0.03221 0.0
H1515 H 0.2684 0.99603 0.04413 0.0
H1516 H 0.24255 1.00427 0.02855 0.0
H1517 H 0.23188 0.94504 0.11512 0.0
H1518 H 0.22483 0.96445 0.13771 0.0
H1519 H 0.25492 0.96599 0.13134 0.0
C1520 C 0.75324 0.65447 0.02151 0.0
C1521 C 0.77509 0.64724 0.0277 0.0
C1522 C 0.7308 0.64047 0.0227 0.0
C1523 C 0.72913 0.618 0.03032 0.0
C1524 C 0.75101 0.61029 0.0363 0.0
C1525 C 0.77344 0.62478 0.03495 0.0
C1526 C 0.70864 0.65003 1.016 0.0
C1527 C 0.75074 0.58666 0.04448 0.0
C1528 C 0.66994 0.59204 0.05453 0.0
C1529 C 0.6564 0.57854 0.03466 0.0
C1530 C 0.69347 0.60413 0.05361 0.0
C1531 C 0.70458 0.60314 0.03227 0.0
C1532 C 0.69122 0.58916 1.01229 0.0
C1533 C 0.66767 0.57725 1.01369 0.0
C1534 C 0.70628 0.61856 0.07555 0.0
C1535 C 0.70163 0.58718 0.98902 0.0
H1536 H 0.75354 0.67154 1.01579 0.0
H1537 H 0.7897 0.61858 0.03997 0.0
H1538 H 0.69701 0.63895 1.00136 0.0
H1539 H 0.69853 0.65034 0.03163 0.0
H1540 H 0.71259 0.66757 1.01002 0.0
H1541 H 0.76883 0.58263 0.04773 0.0
H1542 H 0.74241 0.58494 0.06131 0.0
H1543 H 0.73985 0.5739 0.0308 0.0
H1544 H 0.66195 0.59358 0.07095 0.0
H1545 H 0.65788 0.56718 0.998 0.0
H1546 H 0.70928 0.63676 0.07158 0.0
H1547 H 0.72392 0.61401 0.08039 0.0
H1548 H 0.69621 0.61657 0.09126 0.0
H1549 H 0.70429 0.60396 0.98118 0.0
H1550 H 0.69007 0.57451 0.97567 0.0
H1551 H 0.71926 0.58221 0.99235 0.0
C1552 C 0.80147 0.54714 0.33718 0.0
C1553 C 0.78012 0.53734 0.34525 0.0
C1554 C 0.81505 0.53357 0.3258 0.0
C1555 C 0.80701 0.50976 0.3225 0.0
C1556 C 0.78557 0.49979 0.33081 0.0
C1557 C 0.77239 0.51372 0.34208 0.0
C1558 C 0.83785 0.54468 0.31714 0.0
C1559 C 0.77645 0.4744 0.32767 0.0
C1560 C 0.8241 0.47118 0.27493 0.0
C1561 C 0.83912 0.45958 0.28886 0.0
C1562 C 0.81488 0.48894 0.28535 0.0
C1563 C 0.82069 0.49495 0.31026 0.0
C1564 C 0.83718 0.48437 0.32402 0.0
C1565 C 0.84627 0.46679 0.3131 0.0
C1566 C 0.79757 0.50006 0.27006 0.0
C1567 C 0.84373 0.49028 0.35066 0.0
H1568 H 0.8075 0.56542 0.3396 0.0
H1569 H 0.75591 0.50606 0.3483 0.0
H1570 H 0.85286 0.53731 0.32548 0.0
H1571 H 0.83678 0.54124 0.29742 0.0
H1572 H 0.84178 0.56341 0.3214 0.0
H1573 H 0.75959 0.46937 0.33543 0.0
H1574 H 0.77347 0.46867 0.3083 0.0
H1575 H 0.78983 0.46522 0.33642 0.0
H1576 H 0.8188 0.46573 0.25611 0.0
H1577 H 0.85774 0.45769 0.32393 0.0
H1578 H 0.80179 0.51884 0.27359 0.0
H1579 H 0.77942 0.4942 0.27471 0.0
H1580 H 0.79756 0.49582 0.25058 0.0
H1581 H 0.84786 0.509 0.35464 0.0
H1582 H 0.8592 0.48293 0.35798 0.0
H1583 H 0.82845 0.48353 0.36021 0.0
C1584 C 0.92909 0.42111 0.52052 0.0
C1585 C 0.90899 0.42558 0.53037 0.0
C1586 C 0.9497 0.4379 0.52208 0.0
C1587 C 0.95022 0.4595 0.53398 0.0
C1588 C 0.93015 0.46394 0.54426 0.0
C1589 C 0.9098 0.44702 0.54224 0.0
C1590 C 0.97081 0.43267 0.51076 0.0
C1591 C 0.93007 0.48666 0.55728 0.0
C1592 C 1.00995 0.49734 0.55451 0.0
C1593 C 1.01185 0.51231 0.53608 0.0
C1594 C 0.98988 0.48018 0.55422 0.0
C1595 C 0.9714 0.47783 0.53494 0.0
C1596 C 0.97291 0.49327 0.51667 0.0
C1597 C 0.99302 0.5104 0.51754 0.0
C1598 C 0.98866 0.46429 0.57428 0.0
C1599 C 0.95354 0.49132 0.49582 0.0
H1600 H 0.92864 0.40462 0.51138 0.0
H1601 H 0.89449 0.45064 0.55018 0.0
H1602 H 0.9749 0.44456 0.49663 0.0
H1603 H 0.98666 0.43527 0.52442 0.0
H1604 H 0.96776 0.41494 0.50259 0.0
H1605 H 0.91332 0.48705 0.56513 0.0
H1606 H 0.94507 0.49062 0.57192 0.0
H1607 H 0.93252 0.50036 0.54471 0.0
H1608 H 1.02439 0.49868 0.56891 0.0
H1609 H 0.99434 0.52175 0.50312 0.0
H1610 H 0.98807 0.4466 0.56694 0.0
H1611 H 0.97217 0.46442 0.58264 0.0
H1612 H 1.00407 0.46897 0.58844 0.0
H1613 H 0.95127 0.47444 0.48584 0.0
H1614 H 0.95738 0.50476 0.48313 0.0
H1615 H 0.93642 0.49254 0.50251 0.0
C1616 C 0.47035 0.17642 0.30008 0.0
C1617 C 0.47922 0.15682 0.29445 0.0
C1618 C 0.45032 0.18124 0.28622 0.0
C1619 C 0.43961 0.16641 0.26595 0.0
C1620 C 0.45029 0.14808 0.25873 0.0
C1621 C 0.46972 0.14317 0.27344 0.0
C1622 C 0.43935 0.2009 0.29461 0.0
C1623 C 0.44022 0.1327 0.23649 0.0
C1624 C 0.37308 0.16038 0.25783 0.0
C1625 C 0.3699 0.17783 0.24274 0.0
C1626 C 0.39566 0.1556 0.26452 0.0
C1627 C 0.41539 0.16794 0.25505 0.0
C1628 C 0.41189 0.18351 0.23746 0.0
C1629 C 0.38919 0.18855 0.23175 0.0
C1630 C 0.39859 0.1388 0.28335 0.0
C1631 C 0.43229 0.19611 0.226 0.0
H1632 H 0.47776 0.18685 0.31643 0.0
H1633 H 0.4769 0.12811 0.26903 0.0
H1634 H 0.43613 0.2118 0.27965 0.0
H1635 H 0.42194 0.19424 0.30062 0.0
H1636 H 0.45071 0.21163 0.30972 0.0
H1637 H 0.45347 0.12305 0.23034 0.0
H1638 H 0.42472 0.12026 0.24043 0.0
H1639 H 0.43407 0.14264 0.22167 0.0
H1640 H 0.35811 0.15149 0.26574 0.0
H1641 H 0.38699 0.202 0.21996 0.0
H1642 H 0.40924 0.14784 0.29984 0.0
H1643 H 0.40828 0.12573 0.27691 0.0
H1644 H 0.38132 0.13005 0.2882 0.0
H1645 H 0.44135 0.21113 0.23802 0.0
H1646 H 0.42606 0.20227 0.20851 0.0
H1647 H 0.4455 0.18517 0.2231 0.0
C1648 C 0.43455 0.15456 0.53221 0.0
C1649 C 0.41242 0.14418 0.53889 0.0
C1650 C 0.45476 0.14338 0.53289 0.0
C1651 C 0.45383 0.12087 0.54077 0.0
C1652 C 0.43159 0.11042 0.54772 0.0
C1653 C 0.41159 0.12186 0.54655 0.0
C1654 C 0.47729 0.15575 0.52484 0.0
C1655 C 0.42884 0.08683 0.55655 0.0
C1656 C 0.49948 0.08215 0.52368 0.0
C1657 C 0.51669 0.08445 0.54417 0.0
C1658 C 0.47965 0.09386 0.52222 0.0
C1659 C 0.47578 0.10843 0.54182 0.0
C1660 C 0.4931 0.11079 0.56253 0.0
C1661 C 0.51299 0.09922 0.56335 0.0
C1662 C 0.46278 0.09069 0.49932 0.0
C1663 C 0.49056 0.12562 0.58422 0.0
H1664 H 0.43609 0.17157 0.52604 0.0
H1665 H 0.39506 0.11314 0.55181 0.0
H1666 H 0.49195 0.15788 0.5398 0.0
H1667 H 0.48242 0.14553 0.50993 0.0
H1668 H 0.4755 0.1728 0.51872 0.0
H1669 H 0.41094 0.08092 0.56185 0.0
H1670 H 0.43202 0.07462 0.54228 0.0
H1671 H 0.44229 0.08652 0.57222 0.0
H1672 H 0.50161 0.07126 0.50839 0.0
H1673 H 0.52567 0.10162 0.57943 0.0
H1674 H 0.46197 0.10745 0.49197 0.0
H1675 H 0.44465 0.08331 0.50307 0.0
H1676 H 0.46807 0.07938 0.48543 0.0
H1677 H 0.49072 0.14336 0.57927 0.0
H1678 H 0.50494 0.12571 0.59914 0.0
H1679 H 0.47326 0.11955 0.59073 0.0
C1680 C 0.77137 0.65125 0.38092 0.0
C1681 C 0.74788 0.64692 0.3862 0.0
C1682 C 0.78123 0.67222 0.37299 0.0
C1683 C 0.76748 0.68955 0.37088 0.0
C1684 C 0.7447 0.68619 0.37861 0.0
C1685 C 0.73506 0.6648 0.38608 0.0
C1686 C 0.80556 0.67503 0.36481 0.0
C1687 C 0.72985 0.70459 0.37738 0.0
C1688 C 0.80257 0.74606 0.35692 0.0
C1689 C 0.79752 0.74509 0.33184 0.0
C1690 C 0.7917 0.72879 0.37016 0.0
C1691 C 0.776 0.70983 0.35791 0.0
C1692 C 0.77031 0.70913 0.33264 0.0
C1693 C 0.78092 0.72696 0.31994 0.0
C1694 C 0.79757 0.7305 0.39714 0.0
C1695 C 0.75387 0.68905 0.31885 0.0
H1696 H 0.78161 0.6377 0.38131 0.0
H1697 H 0.71698 0.66174 0.39033 0.0
H1698 H 0.80394 0.67613 0.34505 0.0
H1699 H 0.8169 0.69105 0.37309 0.0
H1700 H 0.81462 0.66062 0.36934 0.0
H1701 H 0.71448 0.7008 0.3877 0.0
H1702 H 0.74071 0.72131 0.38438 0.0
H1703 H 0.72303 0.70618 0.3584 0.0
H1704 H 0.81503 0.76036 0.36623 0.0
H1705 H 0.77687 0.72627 0.30057 0.0
H1706 H 0.80894 0.71801 0.40244 0.0
H1707 H 0.78118 0.72633 0.40584 0.0
H1708 H 0.8071 0.74777 0.40416 0.0
H1709 H 0.76163 0.67346 0.32099 0.0
H1710 H 0.75062 0.69155 0.29938 0.0
H1711 H 0.7366 0.68604 0.3261 0.0
C1712 C 1.02457 0.54494 0.86855 0.0
C1713 C 1.01267 0.56339 0.87004 0.0
C1714 C 1.01207 0.5224 0.86719 0.0
C1715 C 0.98719 0.51832 0.86751 0.0
C1716 C 0.97554 0.53687 0.87131 0.0
C1717 C 0.98841 0.55916 0.87251 0.0
C1718 C 1.0252 0.50308 0.86345 0.0
C1719 C 0.94911 0.5333 0.87217 0.0
C1720 C 0.94869 0.46757 0.83058 0.0
C1721 C 0.94207 0.45294 0.84834 0.0
C1722 C 0.96395 0.48859 0.83658 0.0
C1723 C 0.97286 0.49514 0.86095 0.0
C1724 C 0.96681 0.48017 0.87891 0.0
C1725 C 0.95145 0.45927 0.87239 0.0
C1726 C 0.96999 0.50407 0.81687 0.0
C1727 C 0.97609 0.48645 0.90504 0.0
H1728 H 0.04332 0.54804 0.86669 0.0
H1729 H 0.97915 0.57333 0.87403 0.0
H1730 H 1.0194 0.489 0.8748 0.0
H1731 H 1.02117 0.49616 0.84444 0.0
H1732 H 0.0447 0.50869 0.86758 0.0
H1733 H 0.94327 0.54918 0.8781 0.0
H1734 H 0.93971 0.52732 0.85403 0.0
H1735 H 0.94365 0.51998 0.88451 0.0
H1736 H 0.9414 0.46288 0.81201 0.0
H1737 H 0.94676 0.44784 0.88617 0.0
H1738 H 0.9895 0.50896 0.81748 0.0
H1739 H 0.96291 0.51997 0.8196 0.0
H1740 H 0.96258 0.49599 0.79874 0.0
H1741 H 0.99565 0.49179 0.90725 0.0
H1742 H 0.97141 0.47214 0.91651 0.0
H1743 H 0.96863 0.50114 0.9116 0.0
C1744 C 0.12245 0.92679 0.13864 0.0
C1745 C 0.11364 0.92105 0.16014 0.0
C1746 C 0.11514 0.9444 0.12598 0.0
C1747 C 0.09814 0.95601 0.13478 0.0
C1748 C 0.08865 0.94978 0.15613 0.0
C1749 C 0.09681 0.93253 0.1688 0.0
C1750 C 0.12618 0.95105 0.10362 0.0
C1751 C 0.0702 0.96156 0.16575 0.0
C1752 C 0.1045 1.01588 0.11594 0.0
C1753 C 0.08868 1.01305 0.0948 0.0
C1754 C 0.10675 0.99766 0.12999 0.0
C1755 C 0.09238 0.97618 0.12288 0.0
C1756 C 0.07469 0.97375 0.10278 0.0
C1757 C 0.07307 0.99237 0.08879 0.0
C1758 C 0.1259 1.00103 0.1512 0.0
C1759 C 0.05871 0.95116 0.09512 0.0
H1760 H 0.13543 0.91782 0.13199 0.0
H1761 H 0.0897 0.92775 0.18526 0.0
H1762 H 0.11218 0.95043 0.08826 0.0
H1763 H 0.13614 0.96882 0.10642 0.0
H1764 H 0.13853 0.93976 0.09877 0.0
H1765 H 0.06302 0.95325 0.18129 0.0
H1766 H 0.07806 0.97957 0.1715 0.0
H1767 H 0.05533 0.96166 0.15144 0.0
H1768 H 0.11595 0.03222 0.1209 0.0
H1769 H 0.0607 0.99036 0.07248 0.0
H1770 H 0.1402 0.99181 0.14706 0.0
H1771 H 0.11877 0.99392 0.1673 0.0
H1772 H 0.13385 1.01928 0.15565 0.0
H1773 H 0.06896 0.93954 0.08674 0.0
H1774 H 0.04347 0.95301 0.0819 0.0
H1775 H 0.05187 0.94301 0.11087 0.0
C1776 C 0.95442 0.21369 0.84949 0.0
C1777 C 0.95026 0.21643 0.87353 0.0
C1778 C 0.93809 0.21822 0.83077 0.0
C1779 C 0.9174 0.22581 0.83639 0.0
C1780 C 0.9114 0.22492 0.86012 0.0
C1781 C 0.92793 0.22015 0.87848 0.0
C1782 C 0.94448 0.21776 0.80548 0.0
C1783 C 0.88906 0.23213 0.86678 0.0
C1784 C 0.90184 0.27892 0.81099 0.0
C1785 C 0.87974 0.27062 0.79777 0.0
C1786 C 0.91513 0.26416 0.82212 0.0
C1787 C 0.90602 0.24044 0.81994 0.0
C1788 C 0.88479 0.23176 0.80464 0.0
C1789 C 0.87178 0.24706 0.79367 0.0
C1790 C 0.93794 0.27423 0.83791 0.0
C1791 C 0.87476 0.20661 0.80132 0.0
H1792 H 0.97132 0.21003 0.84536 0.0
H1793 H 0.92423 0.22164 0.89693 0.0
H1794 H 0.92845 0.21245 0.7922 0.0
H1795 H 0.95307 0.23511 0.80171 0.0
H1796 H 0.95709 0.20604 0.80297 0.0
H1797 H 0.88505 0.22673 0.88472 0.0
H1798 H 0.89125 0.25097 0.86718 0.0
H1799 H 0.87371 0.22488 0.85329 0.0
H1800 H 0.90806 0.29717 0.81388 0.0
H1801 H 0.8546 0.24063 0.78347 0.0
H1802 H 0.95257 0.26581 0.83313 0.0
H1803 H 0.93579 0.27138 0.85697 0.0
H1804 H 0.94322 0.29283 0.83635 0.0
H1805 H 0.88894 0.19624 0.80276 0.0
H1806 H 0.86376 0.20217 0.78362 0.0
H1807 H 0.86322 0.20192 0.81547 0.0
C1808 C 0.65202 0.29875 0.62641 0.0
C1809 C 0.64453 0.3064 0.64779 0.0
C1810 C 0.65219 0.27556 0.62144 0.0
C1811 C 0.64465 0.25979 0.63819 0.0
C1812 C 0.6381 0.26753 0.66022 0.0
C1813 C 0.63817 0.29073 0.66475 0.0
C1814 C 0.65942 0.26784 0.59782 0.0
C1815 C 0.62994 0.25117 0.67852 0.0
C1816 C 0.6153 0.19961 0.61656 0.0
C1817 C 0.63329 0.18738 0.62327 0.0
C1818 C 0.6191 0.2233 0.62062 0.0
C1819 C 0.64136 0.23502 0.63192 0.0
C1820 C 0.65971 0.22286 0.63855 0.0
C1821 C 0.65545 0.19912 0.63411 0.0
C1822 C 0.59907 0.23571 0.61336 0.0
C1823 C 0.68364 0.23489 0.65067 0.0
H1824 H 0.65713 0.31072 0.6133 0.0
H1825 H 0.63254 0.29645 0.68146 0.0
H1826 H 0.67246 0.25639 0.60079 0.0
H1827 H 0.64368 0.25799 0.58633 0.0
H1828 H 0.66724 0.28239 0.58797 0.0
H1829 H 0.62719 0.26012 0.6955 0.0
H1830 H 0.61298 0.24 0.67103 0.0
H1831 H 0.64307 0.24003 0.68273 0.0
H1832 H 0.59803 0.1906 0.60851 0.0
H1833 H 0.66951 0.18976 0.639 0.0
H1834 H 0.60501 0.2495 0.60172 0.0
H1835 H 0.5937 0.24378 0.62956 0.0
H1836 H 0.5833 0.22419 0.60358 0.0
H1837 H 0.69118 0.24868 0.63975 0.0
H1838 H 0.69641 0.2231 0.6535 0.0
H1839 H 0.68169 0.24296 0.66836 0.0
C1840 C 0.60438 0.749 0.39009 0.0
C1841 C 0.58267 0.73535 0.38066 0.0
C1842 C 0.62378 0.7517 0.37694 0.0
C1843 C 0.62139 0.74046 0.35379 0.0
C1844 C 0.60008 0.72538 0.34487 0.0
C1845 C 0.5809 0.72299 0.35844 0.0
C1846 C 0.6463 0.76776 0.3872 0.0
C1847 C 0.59702 0.71289 0.32038 0.0
C1848 C 0.6586 0.77306 0.31108 0.0
C1849 C 0.67824 0.7622 0.3121 0.0
C1850 C 0.63956 0.76552 0.32384 0.0
C1851 C 0.64018 0.74666 0.33802 0.0
C1852 C 0.65951 0.73504 0.3384 0.0
C1853 C 0.67835 0.74296 0.32544 0.0
C1854 C 0.61923 0.77838 0.32297 0.0
C1855 C 0.66081 0.71483 0.35323 0.0
H1856 H 0.60595 0.75842 0.40737 0.0
H1857 H 0.5642 0.71232 0.3511 0.0
H1858 H 0.66191 0.75953 0.3858 0.0
H1859 H 0.64861 0.78307 0.37671 0.0
H1860 H 0.64613 0.77337 0.40632 0.0
H1861 H 0.58071 0.6996 0.31742 0.0
H1862 H 0.5959 0.72519 0.30634 0.0
H1863 H 0.61253 0.70478 0.31801 0.0
H1864 H 0.65852 0.78807 0.30106 0.0
H1865 H 0.69334 0.73428 0.32601 0.0
H1866 H 0.61877 0.78664 0.341 0.0
H1867 H 0.60212 0.76649 0.31803 0.0
H1868 H 0.62072 0.79173 0.30988 0.0
H1869 H 0.66448 0.72074 0.37255 0.0
H1870 H 0.67501 0.70563 0.3487 0.0
H1871 H 0.64365 0.70273 0.35065 0.0
C1872 C 0.06412 0.21796 0.46289 0.0
C1873 C 0.08337 0.23026 0.45234 0.0
C1874 C 0.06362 0.19563 0.47165 0.0
C1875 C 0.08313 0.18397 0.47098 0.0
C1876 C 0.10271 0.19609 0.46024 0.0
C1877 C 0.10255 0.21844 0.45106 0.0
C1878 C 0.04183 0.18451 0.482 0.0
C1879 C 0.12442 0.18561 0.45897 0.0
C1880 C 0.0885 0.13594 0.51726 0.0
C1881 C 0.08032 0.11469 0.50375 0.0
C1882 C 0.09005 0.15781 0.50701 0.0
C1883 C 0.08298 0.15985 0.48204 0.0
C1884 C 0.07466 0.13848 0.46824 0.0
C1885 C 0.07368 0.11676 0.47891 0.0
C1886 C 0.09947 0.17904 0.52325 0.0
C1887 C 0.06635 0.13848 0.44186 0.0
H1888 H 0.04892 0.22601 0.46449 0.0
H1889 H 0.11797 0.22697 0.44363 0.0
H1890 H 1.03515 0.16724 0.47306 0.0
H1891 H 0.04638 0.18246 0.50138 0.0
H1892 H 1.02738 0.19456 0.47996 0.0
H1893 H 0.13811 0.19635 0.45001 0.0
H1894 H 0.1322 0.18304 0.47739 0.0
H1895 H 0.11951 0.1686 0.44907 0.0
H1896 H 0.09403 0.13559 0.53629 0.0
H1897 H 0.06733 0.1012 0.46757 0.0
H1898 H 0.08538 0.18935 0.52427 0.0
H1899 H 0.11432 0.18965 0.51575 0.0
H1900 H 0.1058 0.17516 0.54173 0.0
H1901 H 0.05136 0.1478 0.43934 0.0
H1902 H 0.06053 0.12098 0.43318 0.0
H1903 H 0.08081 0.14756 0.43259 0.0
C1904 C 0.66526 0.31446 0.16994 0.0
C1905 C 0.64354 0.31465 0.17947 0.0
C1906 C 0.68712 0.31406 0.1844 0.0
C1907 C 0.68847 0.31406 0.20983 0.0
C1908 C 0.66674 0.31437 0.2198 0.0
C1909 C 0.64483 0.31451 0.20476 0.0
C1910 C 0.70898 0.31343 0.17217 0.0
C1911 C 0.66664 0.3146 0.2466 0.0
C1912 C 0.74243 0.29197 0.24377 0.0
C1913 C 0.75928 0.31195 0.25148 0.0
C1914 C 0.71962 0.29244 0.23097 0.0
C1915 C 0.71246 0.31343 0.22544 0.0
C1916 C 0.72923 0.33369 0.23353 0.0
C1917 C 0.75206 0.33272 0.2461 0.0
C1918 C 0.70326 0.27017 0.22285 0.0
C1919 C 0.72314 0.35664 0.22862 0.0
H1920 H 0.66529 0.31442 0.15066 0.0
H1921 H 0.62873 0.31465 0.21291 0.0
H1922 H 0.72285 0.32844 0.17873 0.0
H1923 H 0.71633 0.29802 0.1767 0.0
H1924 H 0.70534 0.31331 0.15232 0.0
H1925 H 0.64887 0.31546 0.25197 0.0
H1926 H 0.67231 0.29905 0.25331 0.0
H1927 H 0.67956 0.32944 0.2555 0.0
H1928 H 0.7472 0.27565 0.2474 0.0
H1929 H 0.76437 0.34847 0.25166 0.0
H1930 H 0.69997 0.2684 0.20295 0.0
H1931 H 0.68588 0.26989 0.22956 0.0
H1932 H 0.71063 0.25528 0.22919 0.0
H1933 H 0.721 0.35845 0.20898 0.0
H1934 H 0.73699 0.37088 0.23734 0.0
H1935 H 0.70599 0.3581 0.23514 0.0
C1936 C 0.6005 0.87477 0.96829 0.0
C1937 C 0.59091 0.86624 0.94457 0.0
C1938 C 0.59979 0.89752 0.97787 0.0
C1939 C 0.58792 0.91292 0.96434 0.0
C1940 C 0.5775 0.90393 0.94057 0.0
C1941 C 0.57974 0.88163 0.93105 0.0
C1942 C 0.61244 0.9048 1.00272 0.0
C1943 C 0.56346 0.91755 0.92459 0.0
C1944 C 0.57236 0.96436 1.004 0.0
C1945 C 0.58333 0.98451 0.99448 0.0
C1946 C 0.57303 0.94171 0.99423 0.0
C1947 C 0.58635 0.93781 0.97478 0.0
C1948 C 0.59801 0.95826 0.96551 0.0
C1949 C 0.59582 0.98071 0.97478 0.0
C1950 C 0.55883 0.92205 1.00509 0.0
C1951 C 0.61345 0.95702 0.94576 0.0
H1952 H 0.60949 0.86384 0.9794 0.0
H1953 H 0.57202 0.876 0.91279 0.0
H1954 H 0.61701 0.92357 1.00615 0.0
H1955 H 0.60096 0.89774 1.01612 0.0
H1956 H 0.62901 0.89776 1.00561 0.0
H1957 H 0.54816 0.9062 0.91381 0.0
H1958 H 0.55667 0.93084 0.93482 0.0
H1959 H 0.5749 0.92583 0.91174 0.0
H1960 H 0.56242 0.96622 0.01901 0.0
H1961 H 0.60472 0.99549 0.96686 0.0
H1962 H 0.56908 0.91848 0.02193 0.0
H1963 H 0.5545 0.90634 0.99287 0.0
H1964 H 0.542 0.9265 1.00995 0.0
H1965 H 0.61964 0.94054 0.94422 0.0
H1966 H 0.62921 0.97094 0.9488 0.0
H1967 H 0.60331 0.95955 0.92844 0.0
C1968 C 1.0023 0.79088 0.71177 0.0
C1969 C 1.00198 0.79588 0.68729 0.0
C1970 C 0.98199 0.79001 0.72481 0.0
C1971 C 0.95974 0.79438 0.71387 0.0
C1972 C 0.95929 0.7994 0.68914 0.0
C1973 C 0.97984 0.80002 0.67647 0.0
C1974 C 0.98447 0.78441 0.75071 0.0
C1975 C 0.93683 0.80436 0.67586 0.0
C1976 C 0.89961 0.77404 0.74193 0.0
C1977 C 0.89543 0.79368 0.75489 0.0
C1978 C 0.91992 0.77396 0.72903 0.0
C1979 C 0.93745 0.79405 0.72816 0.0
C1980 C 0.93332 0.81389 0.74121 0.0
C1981 C 0.91297 0.81346 0.7541 0.0
C1982 C 0.92258 0.75201 0.71618 0.0
C1983 C 0.95055 0.836 0.74146 0.0
H1984 H 1.01873 0.78763 0.72102 0.0
H1985 H 0.97854 0.80406 0.65784 0.0
H1986 H 0.9811 0.79879 0.76226 0.0
H1987 H 0.97103 0.76928 0.75323 0.0
H1988 H 1.00235 0.78093 0.75688 0.0
H1989 H 0.93869 0.80777 0.65685 0.0
H1990 H 0.92213 0.78973 0.67627 0.0
H1991 H 0.93175 0.81937 0.68491 0.0
H1992 H 0.88682 0.75841 0.7418 0.0
H1993 H 0.9107 0.82903 0.76352 0.0
H1994 H 0.93947 0.74708 0.72347 0.0
H1995 H 0.92339 0.75439 0.69682 0.0
H1996 H 0.90775 0.73784 0.71802 0.0
H1997 H 0.96851 0.83379 0.74907 0.0
H1998 H 0.94537 0.85004 0.75214 0.0
H1999 H 0.95171 0.841 0.72282 0.0
C2000 C 0.1955 0.03502 0.9176 0.0
C2001 C 0.20412 0.05839 0.9175 0.0
C2002 C 0.18129 0.02654 0.93497 0.0
C2003 C 0.17552 0.04194 0.95231 0.0
C2004 C 0.18488 0.06556 0.95259 0.0
C2005 C 0.19908 0.07352 0.93505 0.0
C2006 C 0.17173 1.00131 0.9342 0.0
C2007 C 0.17916 0.08255 0.97084 0.0
C2008 C 0.11966 0.03402 0.98191 0.0
C2009 C 0.12911 0.03305 1.00579 0.0
C2010 C 0.13427 0.03474 0.96356 0.0
C2011 C 0.15861 0.03393 0.9694 0.0
C2012 C 0.16729 0.02968 0.99299 0.0
C2013 C 0.15243 0.02959 1.01105 0.0
C2014 C 0.12432 0.03929 0.93863 0.0
C2015 C 0.1929 0.02794 0.99982 0.0
H2016 H 0.19933 1.0235 0.90366 0.0
H2017 H 0.20565 0.09162 0.93455 0.0
H2018 H 0.17465 0.99494 0.95231 0.0
H2019 H 0.15232 0.99804 0.92861 0.0
H2020 H 0.18008 0.99141 0.92143 0.0
H2021 H 0.18852 0.10016 0.96906 0.0
H2022 H 0.1598 0.08241 0.96867 0.0
H2023 H 0.18414 0.07776 0.98929 0.0
H2024 H 0.10166 0.03692 0.97791 0.0
H2025 H 0.15965 0.02876 0.0296 0.0
H2026 H 0.13092 0.02902 0.92479 0.0
H2027 H 0.13021 0.05752 0.93566 0.0
H2028 H 0.10463 0.03551 0.93606 0.0
H2029 H 0.19976 1.01872 0.98531 0.0
H2030 H 0.19527 1.0191 1.01662 0.0
H2031 H 0.20377 0.04532 1.00285 0.0
C2032 C 0.86508 0.35432 0.61274 0.0
C2033 C 0.85323 0.37144 0.60412 0.0
C2034 C 0.86645 0.34955 0.63704 0.0
C2035 C 0.85558 0.36205 0.65322 0.0
C2036 C 0.84448 0.37999 0.64489 0.0
C2037 C 0.84348 0.3845 0.62049 0.0
C2038 C 0.8785 0.33031 0.64514 0.0
C2039 C 0.83254 0.39365 0.66147 0.0
C2040 C 0.82987 0.33 0.70352 0.0
C2041 C 0.8464 0.33836 0.72372 0.0
C2042 C 0.83275 0.33765 0.68073 0.0
C2043 C 0.85274 0.35417 0.67771 0.0
C2044 C 0.86965 0.36274 0.69787 0.0
C2045 C 0.86628 0.35474 0.72069 0.0
C2046 C 0.81425 0.32797 0.65983 0.0
C2047 C 0.89121 0.38036 0.69529 0.0
H2048 H 0.87297 0.34429 0.6004 0.0
H2049 H 0.83442 0.39786 0.61416 0.0
H2050 H 0.89078 0.33576 0.66187 0.0
H2051 H 0.86498 0.31583 0.64918 0.0
H2052 H 0.88861 0.32416 0.63125 0.0
H2053 H 0.82722 0.40868 0.65305 0.0
H2054 H 0.81644 0.38272 0.66643 0.0
H2055 H 0.84447 0.39957 0.67833 0.0
H2056 H 0.81439 0.31734 0.7054 0.0
H2057 H 0.87914 0.36134 0.7361 0.0
H2058 H 0.82256 0.31964 0.64579 0.0
H2059 H 0.80648 0.34187 0.65158 0.0
H2060 H 0.79966 0.31527 0.66524 0.0
H2061 H 0.90177 0.37369 0.68219 0.0
H2062 H 0.90272 0.3853 0.71263 0.0
H2063 H 0.88567 0.39582 0.68815 0.0
C2064 C 0.51916 0.13861 0.41859 0.0
C2065 C 0.53335 0.1523 0.40435 0.0
C2066 C 0.52895 0.13267 0.44086 0.0
C2067 C 0.55332 0.14075 0.44876 0.0
C2068 C 0.56658 0.15723 0.43605 0.0
C2069 C 0.55642 0.16274 0.41382 0.0
C2070 C 0.51404 0.11556 0.45437 0.0
C2071 C 0.59237 0.16677 0.44428 0.0
C2072 C 0.57789 0.12035 0.50758 0.0
C2073 C 0.58459 0.10011 0.49942 0.0
C2074 C 0.56857 0.13449 0.49131 0.0
C2075 C 0.56596 0.12815 0.46645 0.0
C2076 C 0.57436 0.10865 0.45815 0.0
C2077 C 0.58365 0.09493 0.47475 0.0
C2078 C 0.55999 0.15517 0.50092 0.0
C2079 C 0.57187 0.10118 0.43177 0.0
H2080 H 0.50126 0.1306 0.4113 0.0
H2081 H 0.56727 0.17361 0.40287 0.0
H2082 H 0.51881 0.09856 0.45124 0.0
H2083 H 0.51742 0.12022 0.47397 0.0
H2084 H 0.4948 0.11416 0.44841 0.0
H2085 H 0.59862 0.18255 0.43546 0.0
H2086 H 0.59545 0.17052 0.46404 0.0
H2087 H 0.60321 0.15396 0.43969 0.0
H2088 H 0.57843 0.12444 0.52667 0.0
H2089 H 0.58889 0.07938 0.46836 0.0
H2090 H 0.54063 0.15075 0.50179 0.0
H2091 H 0.56308 0.16943 0.48909 0.0
H2092 H 0.56882 0.16107 0.51932 0.0
H2093 H 0.55281 0.09541 0.42514 0.0
H2094 H 0.58131 0.08694 0.42821 0.0
H2095 H 0.57883 0.11558 0.42132 0.0
C2096 C 0.86101 0.73485 0.11313 0.0
C2097 C 0.85227 0.71168 0.10541 0.0
C2098 C 0.85919 0.74442 0.13657 0.0
C2099 C 0.84758 0.73106 0.15358 0.0
C2100 C 0.839 0.70751 0.14612 0.0
C2101 C 0.84144 0.69824 0.12255 0.0
C2102 C 0.86917 0.76932 0.14285 0.0
C2103 C 0.82618 0.69215 0.16277 0.0
C2104 C 0.85718 0.75336 0.22194 0.0
C2105 C 0.83757 0.76406 0.22486 0.0
C2106 C 0.86054 0.74268 0.19942 0.0
C2107 C 0.84384 0.74194 0.17847 0.0
C2108 C 0.82389 0.7525 0.18139 0.0
C2109 C 0.82114 0.76335 0.20402 0.0
C2110 C 0.88238 0.73237 0.198 0.0
C2111 C 0.80518 0.75237 0.16036 0.0
H2112 H 0.86883 0.74591 0.10033 0.0
H2113 H 0.83365 0.68064 0.11712 0.0
H2114 H 0.85452 0.77868 0.1451 0.0
H2115 H 0.8809 0.77158 0.16018 0.0
H2116 H 0.87942 0.77713 0.12882 0.0
H2117 H 0.82167 0.67414 0.15534 0.0
H2118 H 0.83719 0.69302 0.1804 0.0
H2119 H 0.80957 0.69805 0.16603 0.0
H2120 H 0.8703 0.75354 0.23736 0.0
H2121 H 0.80581 0.77125 0.20538 0.0
H2122 H 0.89295 0.74081 0.18455 0.0
H2123 H 0.87723 0.71406 0.19188 0.0
H2124 H 0.89376 0.73403 0.21554 0.0
H2125 H 0.8131 0.76191 0.14592 0.0
H2126 H 0.79015 0.76014 0.16538 0.0
H2127 H 0.79824 0.73463 0.15284 0.0
C2128 C 0.17242 0.09055 0.78609 0.0
C2129 C 0.19535 0.09573 0.79839 0.0
C2130 C 0.16796 0.09562 0.76216 0.0
C2131 C 0.18684 0.10663 0.75044 0.0
C2132 C 0.21009 0.11189 0.76274 0.0
C2133 C 0.21413 0.10614 0.78658 0.0
C2134 C 0.14296 0.08925 0.74948 0.0
C2135 C 0.23051 0.12408 0.75098 0.0
C2136 C 0.17032 0.0981 0.68358 0.0
C2137 C 0.15841 0.1163 0.67948 0.0
C2138 C 0.18187 0.0958 0.70635 0.0
C2139 C 0.18176 0.11232 0.72523 0.0
C2140 C 0.17234 0.13215 0.72038 0.0
C2141 C 0.16043 0.13378 0.69754 0.0
C2142 C 0.19157 0.07432 0.71077 0.0
C2143 C 0.17267 0.15053 0.73988 0.0
H2144 H 0.15793 0.08242 0.79519 0.0
H2145 H 0.23185 0.11043 0.79622 0.0
H2146 H 0.13634 0.10482 0.74417 0.0
H2147 H 0.1427 0.07838 0.73282 0.0
H2148 H 0.13054 0.07994 0.76089 0.0
H2149 H 0.24777 0.1254 0.76238 0.0
H2150 H 0.23149 0.11519 0.73342 0.0
H2151 H 0.22762 0.14152 0.7474 0.0
H2152 H 0.16863 0.08446 0.66968 0.0
H2153 H 0.15138 0.14794 0.69426 0.0
H2154 H 0.17893 0.06265 0.72003 0.0
H2155 H 0.20871 0.0781 0.72257 0.0
H2156 H 0.19413 0.06532 0.69375 0.0
H2157 H 0.15873 0.14473 0.75144 0.0
H2158 H 0.16922 0.16661 0.73233 0.0
H2159 H 0.18996 0.15404 0.75145 0.0
C2160 C 0.81439 0.38943 0.45604 0.0
C2161 C 0.82475 0.37875 0.47508 0.0
C2162 C 0.81243 0.38038 0.43212 0.0
C2163 C 0.82155 0.36042 0.42693 0.0
C2164 C 0.83202 0.34955 0.44611 0.0
C2165 C 0.83323 0.35868 0.46994 0.0
C2166 C 0.80076 0.39232 0.41235 0.0
C2167 C 0.84247 0.32858 0.44143 0.0
C2168 C 0.80277 0.32627 0.36617 0.0
C2169 C 0.82136 0.33482 0.35315 0.0
C2170 C 0.80235 0.33466 0.39003 0.0
C2171 C 0.82125 0.35162 0.40139 0.0
C2172 C 0.84007 0.36021 0.38831 0.0
C2173 C 0.83976 0.35192 0.3644 0.0
C2174 C 0.7817 0.32536 0.40312 0.0
C2175 C 0.86082 0.37794 0.39973 0.0
H2176 H 0.80763 0.40484 0.45987 0.0
H2177 H 0.84135 0.35037 0.48452 0.0
H2178 H 0.81389 0.39897 0.40028 0.0
H2179 H 0.78641 0.38009 0.4013 0.0
H2180 H 0.79315 0.40673 0.41945 0.0
H2181 H 0.84963 0.32191 0.45828 0.0
H2182 H 0.82884 0.31496 0.43136 0.0
H2183 H 0.85701 0.3326 0.4301 0.0
H2184 H 0.78847 0.31309 0.35769 0.0
H2185 H 0.85439 0.35851 0.35468 0.0
H2186 H 0.77341 0.3395 0.40965 0.0
H2187 H 0.78801 0.31692 0.41909 0.0
H2188 H 0.76798 0.31287 0.39156 0.0
H2189 H 0.85456 0.39356 0.40565 0.0
H2190 H 0.87425 0.38261 0.38729 0.0
H2191 H 0.86951 0.37148 0.41594 0.0
C2192 C 0.55651 0.12014 0.27198 0.0
C2193 C 0.56945 0.11823 0.2942 0.0
C2194 C 0.56326 0.11173 0.25062 0.0
C2195 C 0.58322 0.10094 0.25162 0.0
C2196 C 0.59686 0.0997 0.27387 0.0
C2197 C 0.58989 0.10851 0.29493 0.0
C2198 C 0.5485 0.11362 0.2271 0.0
C2199 C 0.61814 0.08811 0.27556 0.0
C2200 C 0.58214 0.05661 0.20098 0.0
C2201 C 0.59735 0.06865 0.18642 0.0
C2202 C 0.57784 0.0668 0.22261 0.0
C2203 C 0.58884 0.08962 0.22956 0.0
C2204 C 0.60457 0.10172 0.21512 0.0
C2205 C 0.60873 0.09101 0.19369 0.0
C2206 C 0.56117 0.0533 0.23776 0.0
C2207 C 0.61639 0.12615 0.22193 0.0
H2208 H 0.54082 0.12782 0.2713 0.0
H2209 H 0.59993 0.10688 0.31205 0.0
H2210 H 0.55998 0.12123 0.21394 0.0
H2211 H 0.53962 0.09639 0.21941 0.0
H2212 H 0.53471 0.12412 0.22923 0.0
H2213 H 0.62781 0.09 0.29401 0.0
H2214 H 0.61233 0.06968 0.27021 0.0
H2215 H 0.6306 0.09518 0.26301 0.0
H2216 H 0.57349 0.03926 0.19533 0.0
H2217 H 0.62027 0.10038 0.1822 0.0
H2218 H 0.54548 0.06145 0.23898 0.0
H2219 H 0.57006 0.0532 0.25631 0.0
H2220 H 0.55496 0.03541 0.23032 0.0
H2221 H 0.60272 0.13704 0.22225 0.0
H2222 H 0.6289 0.13282 0.20922 0.0
H2223 H 0.62621 0.12772 0.24025 0.0
C2224 C 0.83877 0.72165 0.96742 0.0
C2225 C 0.84897 0.70192 0.97003 0.0
C2226 C 0.83703 0.73275 0.9453 0.0
C2227 C 0.84642 0.72491 0.92457 0.0
C2228 C 0.85708 0.70518 0.92726 0.0
C2229 C 0.85785 0.69395 0.94933 0.0
C2230 C 0.82475 0.75297 0.9441 0.0
C2231 C 0.8682 0.696 0.90673 0.0
C2232 C 0.82508 0.74071 0.85915 0.0
C2233 C 0.84185 0.75998 0.85488 0.0
C2234 C 0.82616 0.72963 0.88129 0.0
C2235 C 0.84495 0.73704 0.90037 0.0
C2236 C 0.86221 0.75623 0.89599 0.0
C2237 C 0.86026 0.76748 0.87395 0.0
C2238 C 0.80665 0.71005 0.8844 0.0
C2239 C 0.88311 0.76493 0.91469 0.0
H2240 H 0.83169 0.72837 0.98276 0.0
H2241 H 0.86604 0.67902 0.95052 0.0
H2242 H 0.83754 0.7684 0.94109 0.0
H2243 H 0.8105 0.75016 0.92868 0.0
H2244 H 0.81688 0.75627 0.96078 0.0
H2245 H 0.87707 0.68157 0.91167 0.0
H2246 H 0.85447 0.69014 0.8912 0.0
H2247 H 0.88144 0.70972 0.90079 0.0
H2248 H 0.81048 0.73446 0.84523 0.0
H2249 H 0.87353 0.78217 0.87159 0.0
H2250 H 0.79845 0.71362 0.90079 0.0
H2251 H 0.81408 0.69433 0.88689 0.0
H2252 H 0.79262 0.7068 0.86876 0.0
H2253 H 0.87692 0.77173 0.93108 0.0
H2254 H 0.89607 0.7786 0.90826 0.0
H2255 H 0.89227 0.75076 0.9199 0.0
C2256 C 0.89527 0.19007 0.01971 0.0
C2257 C 0.87647 0.18053 0.03195 0.0
C2258 C 0.914 0.17853 1.01662 0.0
C2259 C 0.91412 0.15719 0.02643 0.0
C2260 C 0.89586 0.14815 0.03999 0.0
C2261 C 0.87711 0.15981 0.04235 0.0
C2262 C 0.93298 0.18858 1.00179 0.0
C2263 C 0.89567 0.12572 0.05126 0.0
C2264 C 0.94489 0.11323 0.99838 0.0
C2265 C 0.96601 0.11564 1.01401 0.0
C2266 C 0.92822 0.12719 1.00176 0.0
C2267 C 0.93256 0.14368 0.02152 0.0
C2268 C 0.95405 0.14652 0.03707 0.0
C2269 C 0.97064 0.1327 0.03294 0.0
C2270 C 0.90573 0.12401 0.98444 0.0
C2271 C 0.95916 0.16362 0.05857 0.0
H2272 H 0.89471 0.20599 1.01145 0.0
H2273 H 0.86264 0.15244 0.0519 0.0
H2274 H 0.95083 0.18926 1.01172 0.0
H2275 H 0.93184 0.17755 0.98506 0.0
H2276 H 0.93125 0.20601 0.99683 0.0
H2277 H 0.88141 0.12207 0.06299 0.0
H2278 H 0.893 0.11169 0.03698 0.0
H2279 H 0.91297 0.12572 0.06207 0.0
H2280 H 0.9414 0.10039 0.98347 0.0
H2281 H 0.98693 0.1348 0.04509 0.0
H2282 H 0.90333 0.14052 0.97728 0.0
H2283 H 0.89023 0.11796 0.99395 0.0
H2284 H 0.90576 0.11153 0.96912 0.0
H2285 H 0.9577 0.18086 0.05288 0.0
H2286 H 0.97709 0.16433 0.06841 0.0
H2287 H 0.94583 0.1591 0.07112 0.0
C2288 C 0.40691 0.44609 0.04184 0.0
C2289 C 0.38518 0.45393 0.03741 0.0
C2290 C 0.42939 0.46015 0.04103 0.0
C2291 C 0.43116 0.48321 0.03527 0.0
C2292 C 0.40939 0.49149 0.031 0.0
C2293 C 0.38693 0.477 0.03225 0.0
C2294 C 0.45145 0.45007 0.04622 0.0
C2295 C 0.40977 0.51568 0.02456 0.0
C2296 C 0.49267 0.52333 0.05328 0.0
C2297 C 0.50392 0.52311 0.03221 0.0
C2298 C 0.46919 0.51117 0.05433 0.0
C2299 C 0.45573 0.4982 0.03378 0.0
C2300 C 0.46678 0.49835 1.01228 0.0
C2301 C 0.49039 0.51049 1.0118 0.0
C2302 C 0.45901 0.51167 0.07787 0.0
C2303 C 0.45376 0.48521 0.98967 0.0
H2304 H 0.40644 0.42852 0.04598 0.0
H2305 H 0.37072 0.48361 0.02849 0.0
H2306 H 0.4611 0.45051 0.03021 0.0
H2307 H 0.46355 0.46035 0.0611 0.0
H2308 H 0.44744 0.43218 0.05119 0.0
H2309 H 0.39174 0.51994 0.0221 0.0
H2310 H 0.42091 0.52764 0.0388 0.0
H2311 H 0.41787 0.5184 1.0077 0.0
H2312 H 0.50249 0.53265 0.06939 0.0
H2313 H 0.49837 0.50982 0.99529 0.0
H2314 H 0.4561 0.49429 0.08436 0.0
H2315 H 0.44153 0.51704 0.07538 0.0
H2316 H 0.47083 0.52338 0.09192 0.0
H2317 H 0.45079 0.46672 0.99231 0.0
H2318 H 0.46368 0.48828 0.97395 0.0
H2319 H 0.4361 0.48997 0.9856 0.0
C2320 C 0.4031 0.59846 0.75605 0.0
C2321 C 0.39386 0.57783 0.7426 0.0
C2322 C 0.38891 0.6147 0.75964 0.0
C2323 C 0.36484 0.61019 0.74953 0.0
C2324 C 0.35555 0.58973 0.73524 0.0
C2325 C 0.37022 0.57373 0.73192 0.0
C2326 C 0.39955 0.63643 0.77485 0.0
C2327 C 0.33 0.58448 0.72408 0.0
C2328 C 0.32841 0.64386 0.78402 0.0
C2329 C 0.32921 0.66327 0.77099 0.0
C2330 C 0.33848 0.62554 0.77623 0.0
C2331 C 0.34949 0.62674 0.75492 0.0
C2332 C 0.34866 0.64554 0.74075 0.0
C2333 C 0.33854 0.66363 0.749 0.0
C2334 C 0.33895 0.60572 0.79178 0.0
C2335 C 0.35995 0.64733 0.71779 0.0
H2336 H 0.4214 0.60179 0.76422 0.0
H2337 H 0.363 0.55778 0.7215 0.0
H2338 H 0.39714 0.65143 0.76465 0.0
H2339 H 0.39029 0.63741 0.79104 0.0
H2340 H 0.41876 0.63761 0.78075 0.0
H2341 H 0.32607 0.56877 0.71181 0.0
H2342 H 0.31824 0.58223 0.73843 0.0
H2343 H 0.32556 0.59889 0.7139 0.0
H2344 H 0.32122 0.64358 0.80103 0.0
H2345 H 0.33873 0.67849 0.73867 0.0
H2346 H 0.35727 0.60642 0.80061 0.0
H2347 H 0.33368 0.58933 0.78072 0.0
H2348 H 0.32701 0.60591 0.80594 0.0
H2349 H 0.37952 0.65108 0.72217 0.0
H2350 H 0.35452 0.66107 0.70706 0.0
H2351 H 0.35524 0.63099 0.7066 0.0
C2352 C 0.24848 0.65391 0.51015 0.0
C2353 C 0.24532 0.67636 0.51498 0.0
C2354 C 0.22933 0.63557 0.50828 0.0
C2355 C 0.20654 0.63971 0.51179 0.0
C2356 C 0.20313 0.66237 0.51619 0.0
C2357 C 0.22252 0.68043 0.51751 0.0
C2358 C 0.23359 0.61171 0.50311 0.0
C2359 C 0.17915 0.66747 0.52035 0.0
C2360 C 0.15059 0.59552 0.49269 0.0
C2361 C 0.14622 0.58627 0.5146 0.0
C2362 C 0.17067 0.61237 0.49129 0.0
C2363 C 0.18651 0.62033 0.5123 0.0
C2364 C 0.18266 0.6105 0.53422 0.0
C2365 C 0.16271 0.59351 0.53506 0.0
C2366 C 0.17456 0.62227 0.46756 0.0
C2367 C 0.19903 0.61863 0.55708 0.0
H2368 H 0.26601 0.65064 0.50792 0.0
H2369 H 0.21993 0.6977 0.52133 0.0
H2370 H 0.23058 0.60165 0.51889 0.0
H2371 H 0.22087 0.60303 0.48775 0.0
H2372 H 0.2519 0.61154 0.49891 0.0
H2373 H 0.17926 0.68605 0.52267 0.0
H2374 H 0.16569 0.66005 0.50505 0.0
H2375 H 0.1735 0.65949 0.53667 0.0
H2376 H 0.13805 0.59002 0.47677 0.0
H2377 H 0.15959 0.58659 0.55211 0.0
H2378 H 0.19288 0.62188 0.46359 0.0
H2379 H 0.17243 0.64035 0.46848 0.0
H2380 H 0.16197 0.61299 0.4525 0.0
H2381 H 0.21756 0.61751 0.55448 0.0
H2382 H 0.19408 0.60861 0.57246 0.0
H2383 H 0.19861 0.63678 0.56178 0.0
C2384 C 0.73158 0.97465 0.73778 0.0
C2385 C 0.71206 0.96465 0.74879 0.0
C2386 C 0.75327 0.96706 0.74152 0.0
C2387 C 0.75541 0.9492 0.75674 0.0
C2388 C 0.7353 0.93808 0.76658 0.0
C2389 C 0.71384 0.94588 0.76239 0.0
C2390 C 0.77421 0.97904 0.73039 0.0
C2391 C 0.7368 0.91883 0.78278 0.0
C2392 C 0.80623 0.91692 0.76221 0.0
C2393 C 0.81903 0.92668 0.78413 0.0
C2394 C 0.78629 0.92506 0.75212 0.0
C2395 C 0.77892 0.94332 0.76431 0.0
C2396 C 0.79267 0.95424 0.78556 0.0
C2397 C 0.81263 0.94583 0.79517 0.0
C2398 C 0.77226 0.91317 0.72927 0.0
C2399 C 0.78532 0.97374 0.79913 0.0
H2400 H 0.73027 0.98911 0.72715 0.0
H2401 H 0.69878 0.93796 0.77082 0.0
H2402 H 0.78692 0.98976 0.74451 0.0
H2403 H 0.78369 0.96651 0.72238 0.0
H2404 H 0.76884 0.99013 0.71629 0.0
H2405 H 0.71918 0.91094 0.78754 0.0
H2406 H 0.74464 0.90542 0.77401 0.0
H2407 H 0.74855 0.92533 0.79961 0.0
H2408 H 0.81078 0.9019 0.75373 0.0
H2409 H 0.82259 0.95357 0.81196 0.0
H2410 H 0.77081 0.92561 0.71544 0.0
H2411 H 0.75399 0.90584 0.7326 0.0
H2412 H 0.78047 0.89924 0.72201 0.0
H2413 H 0.78173 0.98701 0.78686 0.0
H2414 H 0.79904 0.98169 0.81406 0.0
H2415 H 0.76867 0.96744 0.80676 0.0
C2416 C 0.74707 0.97905 0.5424 0.0
C2417 C 0.74571 0.95519 0.54309 0.0
C2418 C 0.72665 0.98986 0.54197 0.0
C2419 C 0.7034 0.97711 0.54295 0.0
C2420 C 0.70197 0.95304 0.54407 0.0
C2421 C 0.7226 0.94256 0.54374 0.0
C2422 C 0.73003 1.01525 0.54009 0.0
C2423 C 0.67841 0.93813 0.54591 0.0
C2424 C 0.65422 1.00968 0.56396 0.0
C2425 C 0.63921 1.01157 0.54266 0.0
C2426 C 0.67429 0.99838 0.56438 0.0
C2427 C 0.68097 0.98883 0.54286 0.0
C2428 C 0.666 0.99087 0.52126 0.0
C2429 C 0.64556 1.00163 0.52146 0.0
C2430 C 0.68838 0.99651 0.58822 0.0
C2431 C 0.67181 0.98189 0.49753 0.0
H2432 H 0.76431 0.98946 0.54171 0.0
H2433 H 0.7206 0.92426 0.54433 0.0
H2434 H 0.71828 1.01916 0.52443 0.0
H2435 H 0.72494 1.0235 0.55634 0.0
H2436 H 0.74864 1.02287 0.53814 0.0
H2437 H 0.68001 0.92011 0.54823 0.0
H2438 H 0.6704 0.94456 0.56133 0.0
H2439 H 0.66603 0.93875 0.52948 0.0
H2440 H 0.65005 1.01684 0.58071 0.0
H2441 H 0.63473 1.00269 0.50466 0.0
H2442 H 0.70653 1.00656 0.58881 0.0
H2443 H 0.6901 0.97852 0.59047 0.0
H2444 H 0.68011 1.00275 0.60356 0.0
H2445 H 0.69019 0.98966 0.49493 0.0
H2446 H 0.6595 0.98548 0.48215 0.0
H2447 H 0.67096 0.96322 0.49746 0.0
C2448 C 0.39707 0.45707 0.73026 0.0
C2449 C 0.42039 0.46022 0.72461 0.0
C2450 C 0.38484 0.43532 0.73369 0.0
C2451 C 0.39603 0.41632 0.73067 0.0
C2452 C 0.41848 0.41916 0.72224 0.0
C2453 C 0.43062 0.4412 0.7197 0.0
C2454 C 0.36116 0.43312 0.74319 0.0
C2455 C 0.43055 0.39917 0.71794 0.0
C2456 C 0.38376 0.37056 0.77399 0.0
C2457 C 0.36594 0.35469 0.76033 0.0
C2458 C 0.39369 0.39069 0.76444 0.0
C2459 C 0.38621 0.39452 0.74033 0.0
C2460 C 0.36882 0.37808 0.72615 0.0
C2461 C 0.35849 0.35848 0.73652 0.0
C2462 C 0.41173 0.40812 0.78039 0.0
C2463 C 0.36108 0.38127 0.70017 0.0
H2464 H 0.38918 0.47176 0.73426 0.0
H2465 H 0.4486 0.44363 0.71513 0.0
H2466 H 0.34834 0.41852 0.73376 0.0
H2467 H 0.36347 0.4299 0.76252 0.0
H2468 H 0.35346 0.4488 0.74131 0.0
H2469 H 0.44523 0.40348 0.70682 0.0
H2470 H 0.43804 0.39396 0.73541 0.0
H2471 H 0.4177 0.38435 0.70892 0.0
H2472 H 0.38932 0.36759 0.79247 0.0
H2473 H 0.34482 0.34597 0.72597 0.0
H2474 H 0.40565 0.42471 0.78119 0.0
H2475 H 0.42885 0.41087 0.77283 0.0
H2476 H 0.41487 0.40287 0.79899 0.0
H2477 H 0.35195 0.39607 0.69894 0.0
H2478 H 0.34887 0.36602 0.6911 0.0
H2479 H 0.37676 0.38498 0.69031 0.0
C2480 C 0.18333 0.57508 0.25792 0.0
C2481 C 0.16221 0.56702 0.26739 0.0
C2482 C 0.19154 0.59843 0.25699 0.0
C2483 C 0.17833 0.61417 0.26573 0.0
C2484 C 0.15646 0.6062 0.2743 0.0
C2485 C 0.14863 0.58268 0.275 0.0
C2486 C 0.21489 0.60627 0.24754 0.0
C2487 C 0.14184 0.62246 0.28373 0.0
C2488 C 0.2168 0.6711 0.287 0.0
C2489 C 0.21369 0.68366 0.26683 0.0
C2490 C 0.20422 0.64887 0.28744 0.0
C2491 C 0.18839 0.63885 0.26711 0.0
C2492 C 0.18429 0.65177 0.24717 0.0
C2493 C 0.19693 0.67407 0.24731 0.0
C2494 C 0.20867 0.63571 0.30923 0.0
C2495 C 0.16735 0.6417 0.22528 0.0
H2496 H 0.19394 0.56318 0.25188 0.0
H2497 H 0.13214 0.5766 0.28205 0.0
H2498 H 0.21268 0.61815 0.23327 0.0
H2499 H 0.22799 0.61565 0.26223 0.0
H2500 H 0.22228 0.59185 0.2401 0.0
H2501 H 0.12341 0.61381 0.28512 0.0
H2502 H 0.1501 0.62974 0.30189 0.0
H2503 H 0.1412 0.63682 0.27207 0.0
H2504 H 0.22978 0.67829 0.30211 0.0
H2505 H 0.19398 0.68388 0.2319 0.0
H2506 H 0.21708 0.62109 0.30434 0.0
H2507 H 0.19163 0.62869 0.31575 0.0
H2508 H 0.22036 0.64641 0.32415 0.0
H2509 H 0.17453 0.62806 0.21606 0.0
H2510 H 0.16441 0.65464 0.2123 0.0
H2511 H 0.15001 0.63379 0.2306 0.0
C2512 C 0.54528 0.68672 0.46901 0.0
C2513 C 0.54825 0.71042 0.47214 0.0
C2514 C 0.55832 0.67468 0.48468 0.0
C2515 C 0.57532 0.68683 0.50316 0.0
C2516 C 0.57881 0.71085 0.50588 0.0
C2517 C 0.56487 0.72235 0.49056 0.0
C2518 C 0.55356 0.64897 0.4818 0.0
C2519 C 0.59733 0.72437 0.52479 0.0
C2520 C 0.59133 0.65211 0.55486 0.0
C2521 C 0.61029 0.64347 0.54692 0.0
C2522 C 0.58033 0.66721 0.5413 0.0
C2523 C 0.58911 0.6742 0.51979 0.0
C2524 C 0.60969 0.66708 0.51299 0.0
C2525 C 0.61976 0.65132 0.52642 0.0
C2526 C 0.55819 0.67413 0.54889 0.0
C2527 C 0.61999 0.67474 0.49059 0.0
H2528 H 0.53229 0.67762 0.45478 0.0
H2529 H 0.56724 0.74077 0.49269 0.0
H2530 H 0.56991 0.64278 0.47818 0.0
H2531 H 0.54832 0.6419 0.49871 0.0
H2532 H 0.53931 0.64214 0.46694 0.0
H2533 H 0.59851 0.74303 0.52378 0.0
H2534 H 0.59321 0.71986 0.54294 0.0
H2535 H 0.61495 0.72007 0.5227 0.0
H2536 H 0.58375 0.64546 0.57045 0.0
H2537 H 0.63418 0.64417 0.52017 0.0
H2538 H 0.54302 0.66807 0.53475 0.0
H2539 H 0.56045 0.69294 0.55099 0.0
H2540 H 0.55366 0.66712 0.56607 0.0
H2541 H 0.60834 0.66604 0.47453 0.0
H2542 H 0.63799 0.67074 0.49002 0.0
H2543 H 0.62098 0.69334 0.48941 0.0
C2544 C 0.69412 0.39763 0.72984 0.0
C2545 C 0.69601 0.39543 0.70519 0.0
C2546 C 0.7127 0.39439 0.74687 0.0
C2547 C 0.73324 0.38827 0.73891 0.0
C2548 C 0.73636 0.38884 0.71428 0.0
C2549 C 0.71772 0.39269 0.69767 0.0
C2550 C 0.70922 0.39504 0.77309 0.0
C2551 C 0.75809 0.38253 0.70504 0.0
C2552 C 0.78612 0.37633 0.7795 0.0
C2553 C 0.78047 0.35254 0.77971 0.0
C2554 C 0.77029 0.38858 0.76754 0.0
C2555 C 0.7487 0.37661 0.755 0.0
C2556 C 0.74243 0.35272 0.75623 0.0
C2557 C 0.75828 0.34104 0.76883 0.0
C2558 C 0.77727 0.41409 0.76735 0.0
C2559 C 0.7196 0.33923 0.74299 0.0
H2560 H 0.67747 0.40015 0.73574 0.0
H2561 H 0.71931 0.39108 0.67865 0.0
H2562 H 0.70364 0.37742 0.77827 0.0
H2563 H 0.72599 0.40258 0.78452 0.0
H2564 H 0.69533 0.40496 0.77685 0.0
H2565 H 0.75934 0.38691 0.68619 0.0
H2566 H 0.77443 0.39126 0.71641 0.0
H2567 H 0.75737 0.36391 0.70579 0.0
H2568 H 0.80321 0.38533 0.78805 0.0
H2569 H 0.7538 0.32266 0.76886 0.0
H2570 H 0.76174 0.42252 0.76841 0.0
H2571 H 0.78449 0.41836 0.75033 0.0
H2572 H 0.79113 0.42122 0.78247 0.0
H2573 H 0.70421 0.34593 0.74866 0.0
H2574 H 0.71724 0.32083 0.74618 0.0
H2575 H 0.7194 0.34099 0.7234 0.0
C2576 C 1.00091 0.29167 0.95042 0.0
C2577 C 1.0023 0.28961 0.92568 0.0
C2578 C 0.99986 0.31274 0.96198 0.0
C2579 C 1.00028 0.33205 0.94839 0.0
C2580 C 0.99963 0.32961 0.92312 0.0
C2581 C 1.00057 0.30834 0.91204 0.0
C2582 C 1.00014 0.31462 0.9889 0.0
C2583 C 0.99988 0.3498 0.90799 0.0
C2584 C 0.9902 0.38893 0.97392 0.0
C2585 C 1.01357 0.40089 0.97923 0.0
C2586 C 0.98549 0.36613 0.96474 0.0
C2587 C 1.00462 0.35518 0.96069 0.0
C2588 C 1.02824 0.36691 0.96694 0.0
C2589 C 1.03242 0.38963 0.97616 0.0
C2590 C 0.9601 0.35405 0.95856 0.0
C2591 C 0.04914 0.35577 0.96289 0.0
H2592 H 1.00195 0.27715 0.96102 0.0
H2593 H 1.00135 0.30676 0.89285 0.0
H2594 H 1.01804 0.32304 0.99739 0.0
H2595 H 0.98738 0.32525 0.99416 0.0
H2596 H 0.99578 0.29767 0.9962 0.0
H2597 H 0.99656 0.3446 0.88847 0.0
H2598 H 0.98631 0.35975 0.91257 0.0
H2599 H 1.01741 0.36125 0.91176 0.0
H2600 H 0.97558 0.39754 0.9766 0.0
H2601 H 0.05049 0.39888 0.98 0.0
H2602 H 0.95746 0.33719 0.96626 0.0
H2603 H 0.95588 0.35096 0.93879 0.0
H2604 H 0.94739 0.36408 0.96523 0.0
H2605 H 0.04787 0.33952 0.97176 0.0
H2606 H 0.06635 0.36685 0.96987 0.0
H2607 H 0.04902 0.35168 0.94339 0.0
C2608 C 0.06258 0.82817 0.21119 0.0
C2609 C 0.08459 0.83844 0.2236 0.0
C2610 C 0.0442 0.81806 0.22354 0.0
C2611 C 0.04796 0.81841 0.24889 0.0
C2612 C 0.0706 0.82744 0.26138 0.0
C2613 C 0.08874 0.83735 0.24853 0.0
C2614 C 1.02031 0.80839 0.20958 0.0
C2615 C 0.07522 0.82805 0.28841 0.0
C2616 C 0.99309 0.82351 0.27763 0.0
C2617 C 0.98527 0.80107 0.283 0.0
C2618 C 1.01407 0.8295 0.26745 0.0
C2619 C 1.02735 0.8125 0.26227 0.0
C2620 C 1.01992 0.78989 0.26838 0.0
C2621 C 0.9989 0.78443 0.2789 0.0
C2622 C 1.02157 0.85388 0.26147 0.0
C2623 C 1.0336 0.77136 0.26291 0.0
H2624 H 0.05942 0.82866 0.19185 0.0
H2625 H 0.10583 0.8451 0.25815 0.0
H2626 H 1.01321 0.79139 0.2155 0.0
H2627 H 1.00758 0.8197 0.21305 0.0
H2628 H 1.02116 0.80679 0.18993 0.0
H2629 H 0.09444 0.83244 0.29503 0.0
H2630 H 0.06623 0.841 0.29641 0.0
H2631 H 0.06784 0.81139 0.29493 0.0
H2632 H 0.98255 0.83635 0.28116 0.0
H2633 H 0.99268 0.76707 0.28312 0.0
H2634 H 1.02083 0.85467 0.24172 0.0
H2635 H 0.04014 0.86051 0.26938 0.0
H2636 H 1.01008 0.86525 0.26815 0.0
H2637 H 1.0323 0.76787 0.24317 0.0
H2638 H 1.0268 0.75527 0.27094 0.0
H2639 H 0.05266 0.77691 0.26967 0.0
C2640 C 0.58224 0.37444 0.10194 0.0
C2641 C 0.57213 0.37035 0.12358 0.0
C2642 C 0.58467 0.39615 0.09117 0.0
C2643 C 0.57593 0.41526 0.10108 0.0
C2644 C 0.56521 0.41094 0.1227 0.0
C2645 C 0.56399 0.38939 0.1336 0.0
C2646 C 0.59704 0.39823 0.06895 0.0
C2647 C 0.55447 0.42901 0.13478 0.0
C2648 C 0.59435 0.48132 0.08922 0.0
C2649 C 0.58126 0.48424 0.06698 0.0
C2650 C 0.59334 0.45963 0.09984 0.0
C2651 C 0.5779 0.43918 0.08915 0.0
C2652 C 0.56425 0.44222 0.06687 0.0
C2653 C 0.56646 0.46392 0.05616 0.0
C2654 C 0.60938 0.4591 0.12281 0.0
C2655 C 0.54665 0.42258 0.05389 0.0
H2656 H 0.58884 0.36061 0.09339 0.0
H2657 H 0.55596 0.38736 0.15007 0.0
H2658 H 0.58408 0.39134 0.05307 0.0
H2659 H 0.60486 0.41612 0.06633 0.0
H2660 H 0.61134 0.38798 0.06974 0.0
H2661 H 0.53876 0.42119 0.14319 0.0
H2662 H 0.56767 0.43843 0.14935 0.0
H2663 H 0.54901 0.44132 0.12213 0.0
H2664 H 0.60601 0.49617 0.09844 0.0
H2665 H 0.55582 0.465 0.03924 0.0
H2666 H 0.61308 0.44183 0.12586 0.0
H2667 H 0.60091 0.46505 0.13811 0.0
H2668 H 0.62651 0.47093 0.12272 0.0
H2669 H 0.55513 0.41461 0.03975 0.0
H2670 H 0.53105 0.42863 0.04481 0.0
H2671 H 0.54033 0.40942 0.06608 0.0
C2672 C 0.99906 0.31005 0.39783 0.0
C2673 C 1.01753 0.30004 0.38976 0.0
C2674 C 0.97709 0.30996 0.38341 0.0
C2675 C 0.97233 0.29932 0.35972 0.0
C2676 C 0.99086 0.28925 0.35123 0.0
C2677 C 1.013 0.28985 0.36605 0.0
C2678 C 0.95878 0.32137 0.39377 0.0
C2679 C 0.98714 0.27744 0.32641 0.0
C2680 C 0.90522 0.28252 0.33319 0.0
C2681 C 0.90141 0.30017 0.31822 0.0
C2682 C 0.92795 0.28162 0.34588 0.0
C2683 C 0.94809 0.29892 0.3443 0.0
C2684 C 0.94438 0.31667 0.32908 0.0
C2685 C 0.92154 0.31699 0.31633 0.0
C2686 C 0.93032 0.26208 0.36135 0.0
C2687 C 0.96456 0.33585 0.32665 0.0
H2688 H 1.00175 0.31821 0.41583 0.0
H2689 H 1.02658 0.28188 0.35917 0.0
H2690 H 0.95391 0.33457 0.38197 0.0
H2691 H 0.94242 0.30869 0.39459 0.0
H2692 H 0.96512 0.3295 0.4121 0.0
H2693 H 1.00286 0.27041 0.32213 0.0
H2694 H 0.9716 0.26335 0.32482 0.0
H2695 H 0.98319 0.28953 0.31285 0.0
H2696 H 0.89028 0.26924 0.33512 0.0
H2697 H 0.9194 0.33091 0.30515 0.0
H2698 H 0.93463 0.26856 0.38048 0.0
H2699 H 0.94512 0.25386 0.35659 0.0
H2700 H 0.91383 0.24902 0.35945 0.0
H2701 H 0.9707 0.34536 0.34436 0.0
H2702 H 0.95943 0.34796 0.31355 0.0
H2703 H 0.97979 0.32894 0.32085 0.0
C2704 C 0.08845 0.72656 0.60758 0.0
C2705 C 0.06875 0.73371 0.61687 0.0
C2706 C 0.0886 0.70372 0.59827 0.0
C2707 C 0.06835 0.68598 0.59723 0.0
C2708 C 0.04833 0.69276 0.60688 0.0
C2709 C 0.04876 0.71596 0.61648 0.0
C2710 C 0.11081 0.69868 0.58906 0.0
C2711 C 1.02595 0.67544 0.60651 0.0
C2712 C 0.06422 0.63331 0.54939 0.0
C2713 C 0.07148 0.61554 0.56259 0.0
C2714 C 0.06247 0.65532 0.56023 0.0
C2715 C 0.06831 0.66113 0.58552 0.0
C2716 C 0.07558 0.64324 0.59902 0.0
C2717 C 0.07691 0.62122 0.58773 0.0
C2718 C 0.0544 0.67265 0.54424 0.0
C2719 C 0.08245 0.64748 0.62574 0.0
H2720 H 0.10432 0.73924 0.60734 0.0
H2721 H 1.033 0.72026 0.62291 0.0
H2722 H 0.11653 0.6841 0.59802 0.0
H2723 H 0.10716 0.69372 0.56953 0.0
H2724 H 0.12564 0.71352 0.5921 0.0
H2725 H 1.01213 0.68244 0.61516 0.0
H2726 H 1.01881 0.66945 0.58765 0.0
H2727 H 1.02983 0.66038 0.61585 0.0
H2728 H 0.05979 0.63007 0.53013 0.0
H2729 H 0.08263 0.60843 0.59881 0.0
H2730 H 0.069 0.68747 0.54437 0.0
H2731 H 0.03935 0.67902 0.55117 0.0
H2732 H 0.04882 0.66558 0.52539 0.0
H2733 H 0.0981 0.66144 0.62949 0.0
H2734 H 0.08678 0.6321 0.63422 0.0
H2735 H 0.06781 0.65306 0.63425 0.0
C2736 C 0.67718 0.80207 0.89667 0.0
C2737 C 0.65454 0.80224 0.88405 0.0
C2738 C 0.69807 0.80177 0.88485 0.0
C2739 C 0.69744 0.80246 0.85934 0.0
C2740 C 0.67469 0.80308 0.8466 0.0
C2741 C 0.65396 0.80258 0.85877 0.0
C2742 C 0.72099 0.80037 0.8999 0.0
C2743 C 0.6722 0.8046 0.81977 0.0
C2744 C 0.75746 0.82187 0.83141 0.0
C2745 C 0.76258 0.80152 0.82093 0.0
C2746 C 0.73665 0.8225 0.84326 0.0
C2747 C 0.72011 0.80222 0.8461 0.0
C2748 C 0.72548 0.7816 0.83594 0.0
C2749 C 0.74591 0.78157 0.82343 0.0
C2750 C 0.73225 0.84523 0.85262 0.0
C2751 C 0.70971 0.75918 0.83864 0.0
H2752 H 0.67859 0.80174 0.91604 0.0
H2753 H 0.63711 0.80291 0.8483 0.0
H2754 H 0.72836 0.78575 0.89294 0.0
H2755 H 0.73422 0.816 0.89869 0.0
H2756 H 0.71871 0.79837 0.91909 0.0
H2757 H 0.65408 0.8066 0.81237 0.0
H2758 H 0.68512 0.81927 0.81508 0.0
H2759 H 0.67628 0.78902 0.81091 0.0
H2760 H 0.76964 0.83762 0.83001 0.0
H2761 H 0.74914 0.76549 0.816 0.0
H2762 H 0.73338 0.84594 0.87248 0.0
H2763 H 0.71409 0.84744 0.84563 0.0
H2764 H 0.74521 0.85965 0.84747 0.0
H2765 H 0.70783 0.75713 0.8579 0.0
H2766 H 0.7167 0.74445 0.83134 0.0
H2767 H 0.69174 0.75887 0.82917 0.0
C2768 C 0.47972 0.55096 0.67013 0.0
C2769 C 0.47796 0.56208 0.69212 0.0
C2770 C 0.4946 0.56152 0.65435 0.0
C2771 C 0.50803 0.58359 0.661 0.0
C2772 C 0.5041 0.59582 0.68194 0.0
C2773 C 0.48923 0.58474 0.69752 0.0
C2774 C 0.49794 0.54807 0.63193 0.0
C2775 C 0.51733 0.61972 0.68903 0.0
C2776 C 0.56977 0.58787 0.64375 0.0
C2777 C 0.56747 0.59729 0.6215 0.0
C2778 C 0.55088 0.58466 0.65752 0.0
C2779 C 0.52931 0.59143 0.649 0.0
C2780 C 0.52765 0.60294 0.62766 0.0
C2781 C 0.54673 0.60556 0.61401 0.0
C2782 C 0.55344 0.5723 0.68022 0.0
C2783 C 0.50534 0.6111 0.6182 0.0
H2784 H 0.47102 0.53333 0.66621 0.0
H2785 H 0.48784 0.59319 0.7147 0.0
H2786 H 0.49729 0.55861 0.61627 0.0
H2787 H 0.51564 0.54308 0.63424 0.0
H2788 H 0.48424 0.53237 0.62791 0.0
H2789 H 0.50886 0.6284 0.70271 0.0
H2790 H 0.53576 0.61913 0.69668 0.0
H2791 H 0.51826 0.62996 0.67311 0.0
H2792 H 0.58577 0.58155 0.6497 0.0
H2793 H 0.54493 0.61317 0.59694 0.0
H2794 H 0.54137 0.5555 0.67779 0.0
H2795 H 0.54834 0.58209 0.69546 0.0
H2796 H 0.57182 0.56946 0.68509 0.0
H2797 H 0.49393 0.59751 0.6058 0.0
H2798 H 0.50956 0.62635 0.60788 0.0
H2799 H 0.4951 0.61532 0.63283 0.0
C2800 C 0.80148 0.24999 0.96364 0.0
C2801 C 0.81254 0.231 0.96573 0.0
C2802 C 0.80068 0.26136 0.9423 0.0
C2803 C 0.81183 0.25395 0.9229 0.0
C2804 C 0.823 0.23476 0.92497 0.0
C2805 C 0.8229 0.22333 0.9462 0.0
C2806 C 0.78808 0.28138 0.94056 0.0
C2807 C 0.83558 0.2266 0.90498 0.0
C2808 C 0.79748 0.26915 0.85861 0.0
C2809 C 0.81625 0.28709 0.85659 0.0
C2810 C 0.79515 0.25895 0.88043 0.0
C2811 C 0.81237 0.26644 0.90055 0.0
C2812 C 0.8311 0.28486 0.89873 0.0
C2813 C 0.83263 0.29514 0.87686 0.0
C2814 C 0.77462 0.23974 0.88174 0.0
C2815 C 0.85018 0.29298 0.91952 0.0
H2816 H 0.79339 0.25592 0.97867 0.0
H2817 H 0.83168 0.20879 0.94779 0.0
H2818 H 0.80093 0.29707 0.93848 0.0
H2819 H 0.77466 0.27867 0.92443 0.0
H2820 H 0.77912 0.28418 0.95665 0.0
H2821 H 0.84429 0.21203 0.90981 0.0
H2822 H 0.82281 0.2213 0.88857 0.0
H2823 H 0.84925 0.24071 0.90044 0.0
H2824 H 0.78468 0.26294 0.84303 0.0
H2825 H 0.84733 0.30882 0.87534 0.0
H2826 H 0.76551 0.2429 0.89762 0.0
H2827 H 0.78126 0.22357 0.88393 0.0
H2828 H 0.76148 0.23752 0.86538 0.0
H2829 H 0.84217 0.2972 0.93581 0.0
H2830 H 0.86287 0.3082 0.91561 0.0
H2831 H 0.86019 0.27916 0.92372 0.0
C2832 C 0.09002 0.47025 0.20935 0.0
C2833 C 0.11486 0.47331 0.21371 0.0
C2834 C 0.07869 0.47288 0.18651 0.0
C2835 C 0.09257 0.47879 0.16781 0.0
C2836 C 0.11719 0.4786 0.17127 0.0
C2837 C 0.12805 0.47567 0.1942 0.0
C2838 C 0.05224 0.47191 0.1832 0.0
C2839 C 0.13259 0.48435 0.15161 0.0
C2840 C 0.06909 0.48916 0.10431 0.0
C2841 C 0.07198 0.51303 0.10583 0.0
C2842 C 0.07419 0.47741 0.1247 0.0
C2843 C 0.08273 0.4899 0.14694 0.0
C2844 C 0.08417 0.51384 0.14884 0.0
C2845 C 0.0786 0.52507 0.1283 0.0
C2846 C 0.07176 0.45185 0.12203 0.0
C2847 C 0.09309 0.52785 0.17228 0.0
H2848 H 0.07954 0.46778 0.22416 0.0
H2849 H 0.14718 0.47754 0.1972 0.0
H2850 H 0.04852 0.48947 0.18475 0.0
H2851 H 0.04424 0.46412 0.16514 0.0
H2852 H 0.04351 0.46208 0.19704 0.0
H2853 H 0.15052 0.48021 0.15596 0.0
H2854 H 0.12427 0.47504 0.13434 0.0
H2855 H 0.13459 0.50285 0.14906 0.0
H2856 H 0.06374 0.47968 0.08703 0.0
H2857 H 0.08071 0.54348 0.12969 0.0
H2858 H 0.06567 0.44388 0.13819 0.0
H2859 H 0.08928 0.44742 0.11977 0.0
H2860 H 0.05917 0.44438 0.10603 0.0
H2861 H 0.08261 0.52127 0.18663 0.0
H2862 H 0.09211 0.54613 0.17093 0.0
H2863 H 0.11182 0.52651 0.17788 0.0
C2864 C 0.80779 0.90728 0.45445 0.0
C2865 C 0.8084 0.89643 0.47625 0.0
C2866 C 0.81005 0.89589 0.43197 0.0
C2867 C 0.81293 0.87265 0.43041 0.0
C2868 C 0.81353 0.86163 0.45237 0.0
C2869 C 0.81136 0.87345 0.47461 0.0
C2870 C 0.80938 0.90891 0.4097 0.0
C2871 C 0.81643 0.83708 0.45243 0.0
C2872 C 0.79825 0.83627 0.36839 0.0
C2873 C 0.82067 0.83595 0.36064 0.0
C2874 C 0.79551 0.84791 0.39058 0.0
C2875 C 0.81554 0.86004 0.40614 0.0
C2876 C 0.83818 0.85985 0.39833 0.0
C2877 C 0.84043 0.84799 0.37616 0.0
C2878 C 0.77092 0.84708 0.39746 0.0
C2879 C 0.86031 0.8723 0.41354 0.0
H2880 H 0.80554 0.92489 0.45491 0.0
H2881 H 0.81188 0.86449 0.49089 0.0
H2882 H 0.82601 0.9091 0.40151 0.0
H2883 H 0.79456 0.9003 0.39622 0.0
H2884 H 0.80715 0.92676 0.4135 0.0
H2885 H 0.81631 0.83061 0.47061 0.0
H2886 H 0.80193 0.8263 0.44008 0.0
H2887 H 0.83337 0.83516 0.44572 0.0
H2888 H 0.78263 0.82721 0.35711 0.0
H2889 H 0.85796 0.84821 0.37096 0.0
H2890 H 0.7673 0.86461 0.39983 0.0
H2891 H 0.76958 0.83935 0.41491 0.0
H2892 H 0.75705 0.8371 0.38379 0.0
H2893 H 0.85926 0.89056 0.41653 0.0
H2894 H 0.87661 0.87104 0.40517 0.0
H2895 H 0.86183 0.86525 0.43142 0.0
C2896 C 0.47265 0.51372 0.80892 0.0
C2897 C 0.44949 0.5071 0.79754 0.0
C2898 C 0.48053 0.50335 0.82928 0.0
C2899 C 0.465 0.48544 0.83808 0.0
C2900 C 0.44185 0.47795 0.82598 0.0
C2901 C 0.4342 0.48916 0.80598 0.0
C2902 C 0.50532 0.51209 0.84175 0.0
C2903 C 0.42515 0.45837 0.8343 0.0
C2904 C 0.50312 0.45777 0.88165 0.0
C2905 C 0.50281 0.47127 0.90271 0.0
C2906 C 0.48814 0.4598 0.86069 0.0
C2907 C 0.47301 0.47601 0.86088 0.0
C2908 C 0.47039 0.48729 0.8829 0.0
C2909 C 0.48524 0.48465 0.90363 0.0
C2910 C 0.49069 0.4467 0.83778 0.0
C2911 C 0.45446 0.50471 0.88399 0.0
H2912 H 0.48446 0.52755 0.8023 0.0
H2913 H 0.41638 0.48377 0.79683 0.0
H2914 H 0.50454 0.51829 0.86054 0.0
H2915 H 0.51565 0.49812 0.84241 0.0
H2916 H 0.51503 0.52622 0.83259 0.0
H2917 H 0.40894 0.45287 0.82125 0.0
H2918 H 0.43414 0.44361 0.83707 0.0
H2919 H 0.41974 0.46345 0.85179 0.0
H2920 H 0.51638 0.44707 0.881 0.0
H2921 H 0.48485 0.49514 0.91983 0.0
H2922 H 0.50303 0.45758 0.8275 0.0
H2923 H 0.47342 0.44184 0.82629 0.0
H2924 H 0.498 0.43108 0.84153 0.0
H2925 H 0.46311 0.5207 0.87698 0.0
H2926 H 0.45104 0.50867 0.90267 0.0
H2927 H 0.43726 0.49874 0.8727 0.0
C2928 C 0.80426 0.24658 0.10875 0.0
C2929 C 0.81882 0.23506 0.09617 0.0
C2930 C 0.80935 0.252 0.13359 0.0
C2931 C 0.82977 0.24614 0.14631 0.0
C2932 C 0.84429 0.23404 0.13388 0.0
C2933 C 0.83853 0.22848 0.10897 0.0
C2934 C 0.79313 0.26456 0.14613 0.0
C2935 C 0.86633 0.2277 0.14671 0.0
C2936 C 0.85148 0.28604 0.20199 0.0
C2937 C 0.84141 0.27353 0.21993 0.0
C2938 C 0.84939 0.27662 0.17829 0.0
C2939 C 0.83651 0.25425 0.17218 0.0
C2940 C 0.82763 0.241 0.19053 0.0
C2941 C 0.83033 0.25076 0.21425 0.0
C2942 C 0.85964 0.29121 0.15947 0.0
C2943 C 0.81372 0.21713 0.18486 0.0
H2944 H 0.78881 0.25147 0.09912 0.0
H2945 H 0.84989 0.2196 0.09941 0.0
H2946 H 0.78745 0.25547 0.16183 0.0
H2947 H 0.80277 0.28181 0.15295 0.0
H2948 H 0.77707 0.26639 0.13405 0.0
H2949 H 0.87465 0.21673 0.135 0.0
H2950 H 0.87943 0.24339 0.15289 0.0
H2951 H 0.86212 0.21865 0.16289 0.0
H2952 H 0.86031 0.30357 0.20631 0.0
H2953 H 0.82243 0.241 0.22799 0.0
H2954 H 0.84506 0.29628 0.1476 0.0
H2955 H 0.86945 0.2815 0.14805 0.0
H2956 H 0.87181 0.30691 0.16757 0.0
H2957 H 0.79587 0.21793 0.17566 0.0
H2958 H 0.81149 0.20785 0.20134 0.0
H2959 H 0.82249 0.20726 0.17252 0.0
C2960 C 0.14978 0.51666 0.3389 0.0
C2961 C 0.17064 0.52164 0.32824 0.0
C2962 C 0.14313 0.53292 0.3542 0.0
C2963 C 0.15773 0.55475 0.35888 0.0
C2964 C 0.17952 0.55947 0.34925 0.0
C2965 C 0.18576 0.54278 0.33402 0.0
C2966 C 0.11984 0.52707 0.36437 0.0
C2967 C 0.19557 0.58246 0.35377 0.0
C2968 C 0.1182 0.59516 0.37478 0.0
C2969 C 0.11925 0.59307 0.39956 0.0
C2970 C 0.13308 0.58503 0.36129 0.0
C2971 C 0.14914 0.57254 0.37297 0.0
C2972 C 0.1525 0.57316 0.39829 0.0
C2973 C 0.13729 0.58322 0.4113 0.0
C2974 C 0.12974 0.58547 0.33434 0.0
C2975 C 0.16996 0.5607 0.4115 0.0
H2976 H 0.13811 0.50033 0.33443 0.0
H2977 H 0.20182 0.54682 0.32558 0.0
H2978 H 0.1227 0.53005 0.38422 0.0
H2979 H 0.10761 0.53825 0.35738 0.0
H2980 H 0.11108 0.50907 0.35969 0.0
H2981 H 0.21398 0.58155 0.35042 0.0
H2982 H 0.18885 0.59441 0.34143 0.0
H2983 H 0.1959 0.58964 0.37242 0.0
H2984 H 0.1044 0.60297 0.36574 0.0
H2985 H 0.13791 0.58108 0.43039 0.0
H2986 H 0.12073 0.56842 0.3262 0.0
H2987 H 0.14718 0.58945 0.32755 0.0
H2988 H 0.11891 0.59822 0.3283 0.0
H2989 H 0.16218 0.54229 0.41065 0.0
H2990 H 0.17425 0.56704 0.43071 0.0
H2991 H 0.18662 0.56249 0.40311 0.0
C2992 C 0.83232 0.88188 0.62102 0.0
C2993 C 0.8139 0.89235 0.61034 0.0
C2994 C 0.832 0.87218 0.64369 0.0
C2995 C 0.81263 0.87234 0.65719 0.0
C2996 C 0.79411 0.8834 0.647 0.0
C2997 C 0.79496 0.89322 0.62408 0.0
C2998 C 0.85249 0.86117 0.65296 0.0
C2999 C 0.77311 0.8847 0.66028 0.0
C3000 C 0.804 0.82516 0.70338 0.0
C3001 C 0.81502 0.83625 0.72571 0.0
C3002 C 0.80237 0.83667 0.68164 0.0
C3003 C 0.81191 0.86034 0.68127 0.0
C3004 C 0.82261 0.87178 0.70381 0.0
C3005 C 0.82404 0.85983 0.72535 0.0
C3006 C 0.7908 0.82317 0.6587 0.0
C3007 C 0.83298 0.89683 0.70512 0.0
H3008 H 0.84729 0.88086 0.61126 0.0
H3009 H 0.78034 0.90084 0.61659 0.0
H3010 H 0.86021 0.86882 0.67115 0.0
H3011 H 0.84611 0.84275 0.65458 0.0
H3012 H 0.86672 0.86302 0.64106 0.0
H3013 H 0.75889 0.8912 0.64923 0.0
H3014 H 0.7657 0.86768 0.666 0.0
H3015 H 0.77892 0.89625 0.67674 0.0
H3016 H 0.79689 0.80709 0.7027 0.0
H3017 H 0.83269 0.86903 0.74197 0.0
H3018 H 0.80415 0.8226 0.64605 0.0
H3019 H 0.77681 0.83161 0.64989 0.0
H3020 H 0.78276 0.80543 0.66179 0.0
H3021 H 0.84637 0.90013 0.69242 0.0
H3022 H 0.84149 0.90341 0.72341 0.0
H3023 H 0.81881 0.90654 0.69966 0.0
C3024 C 0.80232 0.45916 0.5758 0.0
C3025 C 0.7923 0.4379 0.56385 0.0
C3026 C 0.78818 0.47401 0.58378 0.0
C3027 C 0.76322 0.46752 0.57982 0.0
C3028 C 0.75288 0.4457 0.56862 0.0
C3029 C 0.76758 0.43109 0.56071 0.0
C3030 C 0.80002 0.49706 0.59565 0.0
C3031 C 0.72633 0.43812 0.56432 0.0
C3032 C 0.73169 0.50517 0.61644 0.0
C3033 C 0.72715 0.52143 0.60017 0.0
C3034 C 0.74212 0.48667 0.60966 0.0
C3035 C 0.74838 0.48443 0.58611 0.0
C3036 C 0.74312 0.50031 0.5694 0.0
C3037 C 0.73258 0.51853 0.57661 0.0
C3038 C 0.74737 0.47007 0.62801 0.0
C3039 C 0.74946 0.49855 0.54409 0.0
H3040 H 0.82142 0.46452 0.57857 0.0
H3041 H 0.75973 0.41466 0.55157 0.0
H3042 H 0.79523 0.51066 0.58438 0.0
H3043 H 0.7937 0.49974 0.61332 0.0
H3044 H 0.81964 0.49904 0.59843 0.0
H3045 H 0.72114 0.41985 0.55788 0.0
H3046 H 0.71837 0.44093 0.58104 0.0
H3047 H 0.7187 0.44843 0.55067 0.0
H3048 H 0.72772 0.50723 0.63473 0.0
H3049 H 0.72872 0.53064 0.56374 0.0
H3050 H 0.76678 0.47257 0.63339 0.0
H3051 H 0.74148 0.45229 0.62022 0.0
H3052 H 0.73862 0.47231 0.64436 0.0
H3053 H 0.76897 0.50049 0.54453 0.0
H3054 H 0.74334 0.51171 0.53298 0.0
H3055 H 0.74151 0.4815 0.53524 0.0
C3056 C 0.25183 0.15588 0.52534 0.0
C3057 C 0.27354 0.14779 0.52841 0.0
C3058 C 0.22947 0.14202 0.52725 0.0
C3059 C 0.22773 0.11879 0.53235 0.0
C3060 C 0.24945 0.11026 0.53528 0.0
C3061 C 0.27181 0.12466 0.53336 0.0
C3062 C 0.20749 0.1525 0.5239 0.0
C3063 C 0.24908 0.08578 0.5406 0.0
C3064 C 0.16995 0.09022 0.55774 0.0
C3065 C 0.15531 0.07885 0.53729 0.0
C3066 C 0.19337 0.10254 0.55656 0.0
C3067 C 0.20324 0.10383 0.53437 0.0
C3068 C 0.1887 0.09202 0.51377 0.0
C3069 C 0.16531 0.07995 0.51543 0.0
C3070 C 0.20746 0.11467 0.5792 0.0
C3071 C 0.19771 0.09249 0.4896 0.0
H3072 H 0.25217 0.1735 0.52154 0.0
H3073 H 0.28796 0.11776 0.53595 0.0
H3074 H 0.1949 0.14313 0.50882 0.0
H3075 H 0.1984 0.15106 0.54028 0.0
H3076 H 0.2115 0.17074 0.52014 0.0
H3077 H 0.26704 0.08134 0.54205 0.0
H3078 H 0.24157 0.08246 0.55768 0.0
H3079 H 0.23741 0.07437 0.52624 0.0
H3080 H 0.16297 0.08984 0.57484 0.0
H3081 H 0.15468 0.07149 0.4993 0.0
H3082 H 0.21093 0.13329 0.57728 0.0
H3083 H 0.22491 0.10927 0.5822 0.0
H3084 H 0.19812 0.11131 0.59525 0.0
H3085 H 0.20044 0.11016 0.48391 0.0
H3086 H 0.18525 0.08135 0.47555 0.0
H3087 H 0.21513 0.08695 0.49081 0.0
C3088 C 0.25989 1.01852 0.83159 0.0
C3089 C 0.26904 0.04173 0.83702 0.0
C3090 C 0.27357 1.00404 0.82197 0.0
C3091 C 0.29694 1.01303 0.8176 0.0
C3092 C 0.30624 0.03649 0.82281 0.0
C3093 C 0.29215 0.05061 0.83253 0.0
C3094 C 0.26306 0.97905 0.81673 0.0
C3095 C 0.33108 0.0466 0.8183 0.0
C3096 C 0.33514 0.96807 0.81477 0.0
C3097 C 0.33219 0.96198 0.79005 0.0
C3098 C 0.32492 0.9857 0.82395 0.0
C3099 C 0.31156 0.99753 0.80797 0.0
C3100 C 0.30989 0.99247 0.78289 0.0
C3101 C 0.32014 0.97463 0.77421 0.0
C3102 C 0.32699 0.99053 0.85082 0.0
C3103 C 0.29603 1.00494 0.76531 0.0
H3104 H 0.24205 1.01156 0.83504 0.0
H3105 H 0.29928 0.06857 0.83669 0.0
H3106 H 0.26321 0.97403 0.79748 0.0
H3107 H 0.27396 0.96863 0.82734 0.0
H3108 H 0.24456 0.97484 0.82103 0.0
H3109 H 0.33543 0.06529 0.82273 0.0
H3110 H 0.34408 0.0385 0.82923 0.0
H3111 H 0.33326 0.04311 0.79917 0.0
H3112 H 0.34427 0.95817 0.82707 0.0
H3113 H 0.3181 0.97007 0.75507 0.0
H3114 H 0.30955 0.98461 0.8571 0.0
H3115 H 0.33201 1.00909 0.8557 0.0
H3116 H 0.34026 0.98181 0.86055 0.0
H3117 H 0.27682 0.99993 0.76668 0.0
H3118 H 0.29903 1.00107 0.74647 0.0
H3119 H 0.30092 1.0236 0.76961 0.0
C3120 C 0.4328 0.92453 0.02976 0.0
C3121 C 0.41199 0.92814 0.03876 0.0
C3122 C 0.45293 0.94194 0.03202 0.0
C3123 C 0.45222 0.96334 0.0437 0.0
C3124 C 0.43155 0.96682 0.05347 0.0
C3125 C 0.41169 0.94926 0.0508 0.0
C3126 C 0.4747 0.93769 0.02126 0.0
C3127 C 0.43014 0.98932 0.06617 0.0
C3128 C 0.5108 1.0043 0.06117 0.0
C3129 C 0.51154 1.01763 0.04135 0.0
C3130 C 0.49129 0.98683 0.06257 0.0
C3131 C 0.47224 0.98273 0.04372 0.0
C3132 C 0.47241 0.99696 0.02437 0.0
C3133 C 0.49199 1.01425 0.02348 0.0
C3134 C 0.49155 0.97215 0.08363 0.0
C3135 C 0.45235 0.99333 1.00403 0.0
H3136 H 0.43325 0.90827 0.02058 0.0
H3137 H 0.39584 0.95219 0.05815 0.0
H3138 H 0.47784 0.94892 1.00637 0.0
H3139 H 0.49054 0.94194 0.03491 0.0
H3140 H 0.47297 0.91972 1.01416 0.0
H3141 H 0.41351 0.98864 0.07453 0.0
H3142 H 0.44543 0.99455 0.08032 0.0
H3143 H 0.43102 1.00273 0.05318 0.0
H3144 H 0.52592 1.00672 0.07495 0.0
H3145 H 0.49236 0.02462 1.00819 0.0
H3146 H 0.49307 0.95463 0.0774 0.0
H3147 H 0.4747 0.97093 0.09163 0.0
H3148 H 0.50654 0.97883 0.09781 0.0
H3149 H 0.45097 0.97632 0.99458 0.0
H3150 H 0.45484 1.00643 0.99076 0.0
H3151 H 0.43526 0.99368 1.01115 0.0
C3152 C 0.95679 0.63586 0.77974 0.0
C3153 C 0.96596 0.64997 0.8005 0.0
C3154 C 0.93715 0.64006 0.76486 0.0
C3155 C 0.92602 0.6582 0.77163 0.0
C3156 C 0.93605 0.67319 0.79201 0.0
C3157 C 0.95624 0.66902 0.8061 0.0
C3158 C 0.92764 0.62442 0.74267 0.0
C3159 C 0.92452 0.69263 0.7999 0.0
C3160 C 0.87805 0.68129 0.73486 0.0
C3161 C 0.85798 0.67115 0.74503 0.0
C3162 C 0.90026 0.67564 0.74165 0.0
C3163 C 0.90241 0.65998 0.75942 0.0
C3164 C 0.88188 0.64807 0.76792 0.0
C3165 C 0.85981 0.65351 0.76022 0.0
C3166 C 0.9216 0.68799 0.73138 0.0
C3167 C 0.88344 0.63124 0.78696 0.0
H3168 H 0.96465 0.62118 0.7755 0.0
H3169 H 0.96348 0.67975 0.82231 0.0
H3170 H 0.91135 0.6127 0.74598 0.0
H3171 H 0.92279 0.63434 0.72731 0.0
H3172 H 0.94069 0.614 0.73759 0.0
H3173 H 0.9351 0.7032 0.81556 0.0
H3174 H 0.92206 0.70374 0.78495 0.0
H3175 H 0.90669 0.68579 0.80486 0.0
H3176 H 0.8769 0.69498 0.7231 0.0
H3177 H 0.84423 0.64522 0.76761 0.0
H3178 H 0.93479 0.67682 0.72933 0.0
H3179 H 0.93029 0.70291 0.74372 0.0
H3180 H 0.91646 0.69429 0.71364 0.0
H3181 H 0.89388 0.61835 0.78168 0.0
H3182 H 0.86569 0.62229 0.79034 0.0
H3183 H 0.89272 0.64035 0.80403 0.0
C3184 C 0.91581 0.62561 0.05423 0.0
C3185 C 0.91454 0.64534 0.04153 0.0
C3186 C 0.93609 0.61448 0.05575 0.0
C3187 C 0.95618 0.62217 0.04354 0.0
C3188 C 0.95483 0.64189 0.03037 0.0
C3189 C 0.9347 0.65322 0.02991 0.0
C3190 C 0.93599 0.59432 0.0708 0.0
C3191 C 0.97466 0.65097 1.01619 0.0
C3192 C 1.01909 0.60517 0.06136 0.0
C3193 C 1.01923 0.58571 0.04591 0.0
C3194 C 0.9991 0.61667 0.06109 0.0
C3195 C 0.97813 0.60961 0.04433 0.0
C3196 C 0.97843 0.59027 0.02836 0.0
C3197 C 0.9983 0.57861 0.0296 0.0
C3198 C 1.00042 0.63646 0.07918 0.0
C3199 C 0.95764 0.58192 1.00942 0.0
H3200 H 0.90087 0.61888 0.06345 0.0
H3201 H 0.93455 0.66811 0.01973 0.0
H3202 H 0.93538 0.5787 0.05907 0.0
H3203 H 0.95257 0.59673 0.08349 0.0
H3204 H 0.92061 0.5916 0.08121 0.0
H3205 H 0.97041 0.66489 1.00506 0.0
H3206 H 0.99104 0.65759 0.02859 0.0
H3207 H 0.97849 0.63706 1.00426 0.0
H3208 H 1.03463 0.61132 0.07422 0.0
H3209 H 0.99755 0.56394 0.01722 0.0
H3210 H 0.9844 0.6341 0.08865 0.0
H3211 H 1.0009 0.65239 0.06984 0.0
H3212 H 1.01639 0.63855 0.09268 0.0
H3213 H 0.94174 0.57529 0.01808 0.0
H3214 H 0.96101 0.56819 0.99692 0.0
H3215 H 0.95351 0.59623 0.99887 0.0
C3216 C 0.23002 0.16993 0.88383 0.0
C3217 C 0.24189 0.15136 0.88492 0.0
C3218 C 0.24116 0.191 0.87687 0.0
C3219 C 0.26453 0.19336 0.87072 0.0
C3220 C 0.27738 0.17551 0.87439 0.0
C3221 C 0.26599 0.15483 0.88174 0.0
C3222 C 0.22717 0.20997 0.87403 0.0
C3223 C 0.30237 0.17733 0.8681 0.0
C3224 C 0.28145 0.22855 0.81901 0.0
C3225 C 0.29771 0.2469 0.83094 0.0
C3226 C 0.26997 0.21132 0.83188 0.0
C3227 C 0.27442 0.21287 0.85732 0.0
C3228 C 0.28984 0.23204 0.86949 0.0
C3229 C 0.30158 0.2487 0.85612 0.0
C3230 C 0.25383 0.19098 0.8182 0.0
C3231 C 0.29442 0.23467 0.89656 0.0
H3232 H 0.21149 0.16758 0.88653 0.0
H3233 H 0.27548 0.14075 0.88298 0.0
H3234 H 0.23844 0.22671 0.88026 0.0
H3235 H 0.22072 0.21065 0.85477 0.0
H3236 H 0.21156 0.20736 0.88414 0.0
H3237 H 0.31074 0.16298 0.87441 0.0
H3238 H 0.30208 0.17728 0.84831 0.0
H3239 H 0.31361 0.19353 0.87602 0.0
H3240 H 0.27836 0.22721 0.79955 0.0
H3241 H 0.31383 0.26316 0.8654 0.0
H3242 H 0.23604 0.18872 0.82434 0.0
H3243 H 0.26105 0.1753 0.82178 0.0
H3244 H 0.2518 0.19267 0.79851 0.0
H3245 H 0.27748 0.23118 0.90445 0.0
H3246 H 0.304 0.25201 0.90326 0.0
H3247 H 0.30523 0.22214 0.90313 0.0
C3248 C 0.52694 0.05121 0.37737 0.0
C3249 C 0.51436 0.06845 0.37086 0.0
C3250 C 0.51528 0.02837 0.37649 0.0
C3251 C 0.49055 1.02281 0.36908 0.0
C3252 C 0.47761 0.04039 0.36423 0.0
C3253 C 0.48966 0.06293 0.36511 0.0
C3254 C 0.52955 1.01009 0.38234 0.0
C3255 C 0.45113 0.03528 0.3569 0.0
C3256 C 0.46162 0.96666 0.33512 0.0
C3257 C 0.44941 0.95536 0.35253 0.0
C3258 C 0.47605 0.98817 0.34067 0.0
C3259 C 0.47833 0.99866 0.36421 0.0
C3260 C 0.46691 0.98689 0.38215 0.0
C3261 C 0.45251 0.96542 0.37607 0.0
C3262 C 0.48801 1.0001 0.32103 0.0
C3263 C 0.46883 0.99733 0.40748 0.0
H3264 H 0.54601 0.05537 0.38201 0.0
H3265 H 0.47972 0.07622 0.36053 0.0
H3266 H 0.52099 0.99862 0.39503 0.0
H3267 H 0.53017 0.99952 0.36569 0.0
H3268 H 0.548 1.01733 0.39031 0.0
H3269 H 0.44345 0.05101 0.35558 0.0
H3270 H 0.44711 0.02545 0.33918 0.0
H3271 H 0.44222 0.02465 0.37003 0.0
H3272 H 0.45924 0.95904 0.31689 0.0
H3273 H 0.44348 0.95659 0.38974 0.0
H3274 H 0.50715 1.00613 0.3271 0.0
H3275 H 0.48013 1.01529 0.31683 0.0
H3276 H 0.48613 0.98889 0.30429 0.0
H3277 H 0.4867 1.0076 0.41333 0.0
H3278 H 0.46494 0.98411 0.4204 0.0
H3279 H 0.45579 1.00884 0.40825 0.0
C3280 C 0.59866 0.43123 0.6662 0.0
C3281 C 0.60907 0.41511 0.65439 0.0
C3282 C 0.59449 0.4509 0.65519 0.0
C3283 C 0.60114 0.45448 0.632 0.0
C3284 C 0.61101 0.43792 0.61975 0.0
C3285 C 0.61481 0.41837 0.63109 0.0
C3286 C 0.58398 0.46829 0.66876 0.0
C3287 C 0.61853 0.44129 0.59508 0.0
C3288 C 0.58205 0.50096 0.59506 0.0
C3289 C 0.60263 0.51768 0.5991 0.0
C3290 C 0.58093 0.48032 0.60615 0.0
C3291 C 0.60074 0.47671 0.62177 0.0
C3292 C 0.62115 0.49393 0.62657 0.0
C3293 C 0.62189 0.51408 0.61502 0.0
C3294 C 0.55894 0.46219 0.60067 0.0
C3295 C 0.64257 0.49086 0.64333 0.0
H3296 H 0.59397 0.42861 0.68414 0.0
H3297 H 0.62273 0.40586 0.62186 0.0
H3298 H 0.59765 0.48384 0.67379 0.0
H3299 H 0.56917 0.47339 0.65725 0.0
H3300 H 0.57735 0.46181 0.68538 0.0
H3301 H 0.62387 0.42588 0.58714 0.0
H3302 H 0.6039 0.44575 0.58277 0.0
H3303 H 0.63375 0.45566 0.59623 0.0
H3304 H 0.56709 0.50377 0.58284 0.0
H3305 H 0.63772 0.52708 0.61852 0.0
H3306 H 0.55251 0.4563 0.61757 0.0
H3307 H 0.5632 0.44723 0.59076 0.0
H3308 H 0.54443 0.46834 0.58968 0.0
H3309 H 0.63723 0.48437 0.66041 0.0
H3310 H 0.65557 0.50701 0.64759 0.0
H3311 H 0.65153 0.47814 0.63487 0.0
C3312 C 0.43155 0.73486 0.39224 0.0
C3313 C 0.45214 0.72692 0.3875 0.0
C3314 C 0.41416 0.73718 0.37354 0.0
C3315 C 0.41717 0.73088 0.3496 0.0
C3316 C 0.43585 0.71941 0.34522 0.0
C3317 C 0.45336 0.71778 0.36423 0.0
C3318 C 0.39426 0.74914 0.37918 0.0
C3319 C 0.43879 0.71107 0.32016 0.0
C3320 C 0.36747 0.74641 0.30764 0.0
C3321 C 0.3772 0.76916 0.30475 0.0
C3322 C 0.38119 0.73239 0.31998 0.0
C3323 C 0.40482 0.74162 0.32984 0.0
C3324 C 0.41535 0.7637 0.32437 0.0
C3325 C 0.40143 0.77707 0.31168 0.0
C3326 C 0.36965 0.70853 0.32425 0.0
C3327 C 0.44057 0.77431 0.33425 0.0
H3328 H 0.43003 0.74133 0.41025 0.0
H3329 H 0.46884 0.71097 0.36041 0.0
H3330 H 0.39715 0.76645 0.37249 0.0
H3331 H 0.37705 0.73975 0.37001 0.0
H3332 H 0.3931 0.75089 0.39877 0.0
H3333 H 0.44893 0.69692 0.32051 0.0
H3334 H 0.42134 0.70521 0.3092 0.0
H3335 H 0.44875 0.72518 0.31123 0.0
H3336 H 0.34877 0.74012 0.30209 0.0
H3337 H 0.4091 0.79452 0.30895 0.0
H3338 H 0.36051 0.70896 0.34057 0.0
H3339 H 0.38282 0.69716 0.32691 0.0
H3340 H 0.35609 0.7012 0.30894 0.0
H3341 H 0.44203 0.77692 0.35411 0.0
H3342 H 0.44645 0.79103 0.32699 0.0
H3343 H 0.4529 0.76288 0.32995 0.0
C3344 C 0.15402 0.80188 0.13687 0.0
C3345 C 0.14277 0.8108 0.155 0.0
C3346 C 0.15199 0.77826 0.13254 0.0
C3347 C 0.13803 0.76336 0.14638 0.0
C3348 C 0.12662 0.77228 0.16467 0.0
C3349 C 0.12928 0.7959 0.16888 0.0
C3350 C 0.16466 0.76925 0.11309 0.0
C3351 C 0.11121 0.75691 0.17947 0.0
C3352 C 0.11403 0.70342 0.11915 0.0
C3353 C 0.12962 0.69104 0.13124 0.0
C3354 C 0.11636 0.72693 0.12419 0.0
C3355 C 0.13493 0.73838 0.14146 0.0
C3356 C 0.15047 0.72598 0.15404 0.0
C3357 C 0.1475 0.70241 0.14892 0.0
C3358 C 0.09922 0.73959 0.11069 0.0
C3359 C 0.17052 0.73768 0.17255 0.0
H3360 H 0.1645 0.81335 0.12616 0.0
H3361 H 0.12028 0.80268 0.18275 0.0
H3362 H 0.17643 0.75791 0.1207 0.0
H3363 H 0.15157 0.7589 0.09902 0.0
H3364 H 0.17547 0.78311 0.10453 0.0
H3365 H 0.10365 0.76662 0.19309 0.0
H3366 H 0.0964 0.74608 0.16755 0.0
H3367 H 0.12163 0.74534 0.18882 0.0
H3368 H 0.10043 0.69487 0.10518 0.0
H3369 H 0.1594 0.69289 0.15856 0.0
H3370 H 0.10891 0.75212 0.09972 0.0
H3371 H 0.09075 0.74927 0.12352 0.0
H3372 H 0.0851 0.72799 0.09863 0.0
H3373 H 0.18256 0.75066 0.1641 0.0
H3374 H 0.18102 0.72554 0.18077 0.0
H3375 H 0.16344 0.74674 0.18701 0.0
C3376 C 0.08134 0.24453 0.84966 0.0
C3377 C 0.08029 0.25299 0.87315 0.0
C3378 C 0.10205 0.25003 0.83876 0.0
C3379 C 0.12212 0.26431 0.8517 0.0
C3380 C 0.12134 0.27255 0.87558 0.0
C3381 C 0.10038 0.26679 0.88605 0.0
C3382 C 0.10232 0.24088 0.81325 0.0
C3383 C 0.1425 0.28775 0.88992 0.0
C3384 C 0.18146 0.26425 0.82915 0.0
C3385 C 0.18384 0.28376 0.81612 0.0
C3386 C 0.16158 0.25784 0.84111 0.0
C3387 C 0.14366 0.27123 0.83988 0.0
C3388 C 0.14601 0.291 0.82688 0.0
C3389 C 0.16611 0.29704 0.81513 0.0
C3390 C 0.15964 0.23663 0.85481 0.0
C3391 C 0.12724 0.30572 0.82528 0.0
H3392 H 0.06588 0.23379 0.83965 0.0
H3393 H 0.09967 0.27329 0.90426 0.0
H3394 H 0.10536 0.25521 0.80151 0.0
H3395 H 0.11711 0.23142 0.81234 0.0
H3396 H 0.08547 0.22936 0.80598 0.0
H3397 H 0.13926 0.29201 0.90859 0.0
H3398 H 0.15819 0.27934 0.89061 0.0
H3399 H 0.14697 0.30382 0.88102 0.0
H3400 H 0.19501 0.25378 0.82969 0.0
H3401 H 0.16807 0.31229 0.80535 0.0
H3402 H 0.14383 0.22405 0.84687 0.0
H3403 H 0.15722 0.24079 0.87373 0.0
H3404 H 0.17554 0.22855 0.85466 0.0
H3405 H 0.11009 0.29555 0.81678 0.0
H3406 H 0.13194 0.32071 0.81471 0.0
H3407 H 0.12456 0.31184 0.84356 0.0
C3408 C 0.56288 0.72107 0.95913 0.0
C3409 C 0.58323 0.73439 0.95135 0.0
C3410 C 0.5622 0.69867 0.96768 0.0
C3411 C 0.58263 0.68812 0.96981 0.0
C3412 C 0.60336 0.70134 0.96194 0.0
C3413 C 0.60337 0.72368 0.95279 0.0
C3414 C 0.53922 0.68625 0.97476 0.0
C3415 C 0.62605 0.6921 0.96389 0.0
C3416 C 0.58413 0.63938 1.01575 0.0
C3417 C 0.57906 0.61843 1.00139 0.0
C3418 C 0.58593 0.66146 1.00596 0.0
C3419 C 0.58214 0.66394 0.98063 0.0
C3420 C 0.57684 0.64285 0.96603 0.0
C3421 C 0.57571 0.62097 0.97628 0.0
C3422 C 0.59212 0.68244 0.02306 0.0
C3423 C 0.57195 0.64331 0.93918 0.0
H3424 H 0.54696 0.72838 0.95865 0.0
H3425 H 0.61962 0.73313 0.94767 0.0
H3426 H 0.53457 0.66895 0.96545 0.0
H3427 H 0.54125 0.68414 0.99434 0.0
H3428 H 0.52432 0.69542 0.97042 0.0
H3429 H 0.64068 0.70375 0.95713 0.0
H3430 H 0.63151 0.68934 0.98294 0.0
H3431 H 0.62324 0.67534 0.95359 0.0
H3432 H 0.58711 0.63862 0.03505 0.0
H3433 H 0.57182 0.60563 0.96435 0.0
H3434 H 0.57709 0.69175 0.02207 0.0
H3435 H 0.60761 0.6941 0.01784 0.0
H3436 H 0.5963 0.67832 0.04194 0.0
H3437 H 0.55693 0.65225 0.93459 0.0
H3438 H 0.56762 0.62595 0.92997 0.0
H3439 H 0.58763 0.653 0.93214 0.0
C3440 C 0.16391 0.81218 0.6707 0.0
C3441 C 0.14204 0.81156 0.6801 0.0
C3442 C 0.18587 0.81266 0.68532 0.0
C3443 C 0.1871 0.81278 0.71075 0.0
C3444 C 0.1652 0.81229 0.72058 0.0
C3445 C 0.14322 0.81156 0.70538 0.0
C3446 C 0.20798 0.81286 0.67328 0.0
C3447 C 0.16497 0.81256 0.74737 0.0
C3448 C 0.24182 0.79269 0.74534 0.0
C3449 C 0.25795 0.81309 0.75319 0.0
C3450 C 0.21901 0.79238 0.73225 0.0
C3451 C 0.21113 0.81299 0.72654 0.0
C3452 C 0.22716 0.83368 0.73473 0.0
C3453 C 0.25002 0.8335 0.74763 0.0
C3454 C 0.20343 0.76972 0.72404 0.0
C3455 C 0.22023 0.85626 0.72961 0.0
H3456 H 0.164 0.81209 0.65142 0.0
H3457 H 0.12697 0.81111 0.71341 0.0
H3458 H 0.22134 0.82824 0.67991 0.0
H3459 H 0.21594 0.79782 0.67792 0.0
H3460 H 0.20443 0.81266 0.65342 0.0
H3461 H 0.14702 0.81277 0.75259 0.0
H3462 H 0.17126 0.79735 0.75424 0.0
H3463 H 0.17735 0.82777 0.75624 0.0
H3464 H 0.24717 0.77663 0.74912 0.0
H3465 H 0.26179 0.84953 0.75329 0.0
H3466 H 0.20033 0.7679 0.70413 0.0
H3467 H 0.18588 0.76881 0.73057 0.0
H3468 H 0.21135 0.75517 0.7305 0.0
H3469 H 0.2181 0.85796 0.70995 0.0
H3470 H 0.23361 0.87087 0.73832 0.0
H3471 H 0.20289 0.85715 0.73597 0.0
C3472 C 0.10033 0.38251 0.43342 0.0
C3473 C 0.09231 0.36238 0.4448 0.0
C3474 C 0.09927 0.40513 0.443 0.0
C3475 C 0.08933 0.40897 0.46475 0.0
C3476 C 0.08092 0.3887 0.47621 0.0
C3477 C 0.08272 0.36624 0.46651 0.0
C3478 C 0.10915 0.42519 0.42968 0.0
C3479 C 0.06962 0.39067 0.49892 0.0
C3480 C 0.10435 0.46953 0.50187 0.0
C3481 C 0.08534 0.48078 0.49445 0.0
C3482 C 0.10591 0.44693 0.49252 0.0
C3483 C 0.08782 0.4338 0.47524 0.0
C3484 C 0.06844 0.44496 0.4679 0.0
C3485 C 0.06758 0.46778 0.47715 0.0
C3486 C 0.12736 0.43709 0.50116 0.0
C3487 C 0.04815 0.43259 0.45019 0.0
H3488 H 0.1079 0.38065 0.41681 0.0
H3489 H 0.07618 0.35152 0.47594 0.0
H3490 H 0.09486 0.43457 0.42366 0.0
H3491 H 0.12278 0.4372 0.44185 0.0
H3492 H 0.11725 0.42001 0.41375 0.0
H3493 H 0.0629 0.37377 0.50539 0.0
H3494 H 0.08267 0.40067 0.51324 0.0
H3495 H 0.05466 0.39997 0.49583 0.0
H3496 H 0.11846 0.47857 0.51505 0.0
H3497 H 0.05252 0.47538 0.47092 0.0
H3498 H 0.13618 0.4323 0.48561 0.0
H3499 H 0.12187 0.42135 0.51028 0.0
H3500 H 0.14041 0.44921 0.51382 0.0
H3501 H 0.05462 0.42886 0.43283 0.0
H3502 H 1.03376 0.44258 0.44693 0.0
H3503 H 0.0407 0.41602 0.45688 0.0
C3504 C 0.48107 0.30442 0.17492 0.0
C3505 C 0.50316 0.30016 0.18573 0.0
C3506 C 0.46043 0.3036 0.18751 0.0
C3507 C 0.46077 0.29827 0.21215 0.0
C3508 C 0.48297 0.29379 0.22307 0.0
C3509 C 0.50336 0.29485 0.21011 0.0
C3510 C 0.43802 0.30868 0.17425 0.0
C3511 C 0.48532 0.28784 0.24886 0.0
C3512 C 0.41354 0.31631 0.25249 0.0
C3513 C 0.39622 0.29632 0.25303 0.0
C3514 C 0.43398 0.31715 0.23964 0.0
C3515 C 0.43836 0.29756 0.22633 0.0
C3516 C 0.42099 0.27731 0.22688 0.0
C3517 C 0.40065 0.27695 0.23982 0.0
C3518 C 0.45105 0.33941 0.24027 0.0
C3519 C 0.42383 0.25568 0.21355 0.0
H3520 H 0.47985 0.30868 0.15637 0.0
H3521 H 0.51975 0.29151 0.21935 0.0
H3522 H 0.42334 0.29398 0.17436 0.0
H3523 H 0.43284 0.32353 0.18351 0.0
H3524 H 0.44 0.31241 0.15534 0.0
H3525 H 0.50326 0.28454 0.2551 0.0
H3526 H 0.48162 0.30195 0.26058 0.0
H3527 H 0.47203 0.27249 0.25105 0.0
H3528 H 0.41108 0.33169 0.26212 0.0
H3529 H 0.38802 0.26118 0.23945 0.0
H3530 H 0.45224 0.34469 0.22173 0.0
H3531 H 0.46904 0.33726 0.24787 0.0
H3532 H 0.44568 0.35322 0.25113 0.0
H3533 H 0.42392 0.2583 0.19415 0.0
H3534 H 0.40944 0.24121 0.21566 0.0
H3535 H 0.4411 0.25111 0.22014 0.0
C3536 C 0.70479 0.53826 0.43041 0.0
C3537 C 0.72016 0.55909 0.43005 0.0
C3538 C 0.69098 0.53411 0.44919 0.0
C3539 C 0.69206 0.55161 0.46734 0.0
C3540 C 0.70869 0.57218 0.46775 0.0
C3541 C 0.7228 0.57561 0.44905 0.0
C3542 C 0.67435 0.51157 0.44891 0.0
C3543 C 0.71037 0.59116 0.48697 0.0
C3544 C 0.63709 0.55902 0.495 0.0
C3545 C 0.64346 0.55433 0.51867 0.0
C3546 C 0.65237 0.55712 0.47766 0.0
C3547 C 0.67404 0.54967 0.48423 0.0
C3548 C 0.67933 0.54279 0.50763 0.0
C3549 C 0.66419 0.54579 0.52484 0.0
C3550 C 0.64623 0.56485 0.45293 0.0
C3551 C 0.70156 0.53368 0.51514 0.0
H3552 H 0.70292 0.52556 0.4155 0.0
H3553 H 0.7346 0.59177 0.4484 0.0
H3554 H 0.6756 0.50487 0.467 0.0
H3555 H 0.65582 0.51392 0.44417 0.0
H3556 H 0.67822 0.49869 0.43571 0.0
H3557 H 0.72486 0.60568 0.48521 0.0
H3558 H 0.69337 0.59749 0.4859 0.0
H3559 H 0.71349 0.58472 0.505 0.0
H3560 H 0.62111 0.5659 0.49054 0.0
H3561 H 0.66899 0.54223 0.54331 0.0
H3562 H 0.6474 0.55149 0.43894 0.0
H3563 H 0.65916 0.58026 0.45008 0.0
H3564 H 0.62813 0.56897 0.45038 0.0
H3565 H 0.70815 0.52545 0.49977 0.0
H3566 H 0.69834 0.52105 0.52879 0.0
H3567 H 0.71563 0.54791 0.52339 0.0
C3568 C 0.34497 0.88253 0.12448 0.0
C3569 C 0.35553 0.87009 0.10826 0.0
C3570 C 0.34598 0.87798 0.14884 0.0
C3571 C 0.35792 0.86064 0.1573 0.0
C3572 C 0.36943 0.84866 0.14127 0.0
C3573 C 0.36803 0.85346 0.11697 0.0
C3574 C 0.33332 0.89106 0.16529 0.0
C3575 C 0.38238 0.83007 0.14956 0.0
C3576 C 0.3691 0.85579 0.22507 0.0
C3577 C 0.34951 0.83933 0.22869 0.0
C3578 C 0.37236 0.8628 0.20188 0.0
C3579 C 0.35569 0.85307 0.18196 0.0
C3580 C 0.33623 0.83614 0.18552 0.0
C3581 C 0.33342 0.82951 0.2087 0.0
C3582 C 0.39337 0.88086 0.19872 0.0
C3583 C 0.31806 0.82519 0.16484 0.0
H3584 H 0.33538 0.89551 0.11807 0.0
H3585 H 0.37652 0.84391 0.10474 0.0
H3586 H 0.31785 0.87947 0.17064 0.0
H3587 H 0.34523 0.89777 0.18195 0.0
H3588 H 0.32693 0.9055 0.15662 0.0
H3589 H 0.39268 0.82422 0.13568 0.0
H3590 H 0.39465 0.83608 0.16618 0.0
H3591 H 0.36942 0.81528 0.15388 0.0
H3592 H 0.38162 0.86347 0.24035 0.0
H3593 H 0.31833 0.81659 0.2111 0.0
H3594 H 0.38713 0.89614 0.19194 0.0
H3595 H 0.40369 0.87461 0.18514 0.0
H3596 H 0.4053 0.88599 0.21577 0.0
H3597 H 0.30929 0.83834 0.15627 0.0
H3598 H 0.30419 0.81194 0.17059 0.0
H3599 H 0.32686 0.81723 0.15096 0.0
C3600 C 0.07085 0.64999 0.89892 0.0
C3601 C 0.04631 0.64929 0.89739 0.0
C3602 C 0.08314 0.64269 0.91908 0.0
C3603 C 0.07054 0.63492 0.9381 0.0
C3604 C 0.04672 0.6378 0.93826 0.0
C3605 C 1.03477 0.64492 0.91772 0.0
C3606 C 0.1087 0.64047 0.91851 0.0
C3607 C 1.03295 0.63047 0.95871 0.0
C3608 C 0.07877 0.57983 0.9644 0.0
C3609 C 0.08968 0.58744 0.98752 0.0
C3610 C 0.07396 0.59533 0.9476 0.0
C3611 C 0.07988 0.619 0.95434 0.0
C3612 C 0.09252 0.6268 0.97713 0.0
C3613 C 0.09743 0.61081 0.99352 0.0
C3614 C 0.06133 0.58629 0.9231 0.0
C3615 C 0.09917 0.65183 0.98497 0.0
H3616 H 0.08001 0.65404 0.88342 0.0
H3617 H 1.01591 0.64484 0.91682 0.0
H3618 H 0.11892 0.64411 0.93663 0.0
H3619 H 0.10946 0.62275 0.91227 0.0
H3620 H 0.11735 0.65211 0.90599 0.0
H3621 H 1.0165 0.63775 0.95831 0.0
H3622 H 1.02788 0.61161 0.95734 0.0
H3623 H 0.04392 0.63568 0.97626 0.0
H3624 H 0.07296 0.56171 0.95985 0.0
H3625 H 0.10567 0.61666 1.01158 0.0
H3626 H 0.07166 0.59382 0.90905 0.0
H3627 H 0.04364 0.59127 0.92051 0.0
H3628 H 0.05884 0.56745 0.92046 0.0
H3629 H 0.10444 0.6621 0.96991 0.0
H3630 H 0.1139 0.65518 0.99996 0.0
H3631 H 0.08361 0.65771 0.99133 0.0
C3632 C 0.36041 0.2348 0.61095 0.0
C3633 C 0.35299 0.21138 0.60364 0.0
C3634 C 0.35933 0.24412 0.63464 0.0
C3635 C 0.34997 0.23015 0.65238 0.0
C3636 C 0.34289 0.20634 0.64537 0.0
C3637 C 0.34452 0.19735 0.62148 0.0
C3638 C 0.3676 0.26937 0.64041 0.0
C3639 C 0.33251 0.19036 0.6629 0.0
C3640 C 0.36164 0.25382 0.72025 0.0
C3641 C 0.34118 0.26287 0.72396 0.0
C3642 C 0.36463 0.24313 0.69762 0.0
C3643 C 0.34668 0.24072 0.67748 0.0
C3644 C 0.32587 0.24954 0.68126 0.0
C3645 C 0.3235 0.26043 0.70393 0.0
C3646 C 0.38738 0.23468 0.69517 0.0
C3647 C 0.30588 0.24756 0.66111 0.0
H3648 H 0.36655 0.24622 0.59767 0.0
H3649 H 0.3379 0.17945 0.61643 0.0
H3650 H 0.35226 0.27746 0.64361 0.0
H3651 H 0.38028 0.27254 0.65712 0.0
H3652 H 0.37629 0.27777 0.6257 0.0
H3653 H 0.3293 0.17227 0.65576 0.0
H3654 H 0.34452 0.19231 0.68002 0.0
H3655 H 0.31544 0.19472 0.66706 0.0
H3656 H 0.37569 0.25537 0.73507 0.0
H3657 H 0.30748 0.26704 0.70595 0.0
H3658 H 0.39653 0.24365 0.68107 0.0
H3659 H 0.38349 0.21625 0.6894 0.0
H3660 H 0.3996 0.23736 0.71223 0.0
H3661 H 0.31208 0.25739 0.64608 0.0
H3662 H 0.29033 0.25396 0.66688 0.0
H3663 H 0.30017 0.22952 0.65408 0.0
C3664 C 0.67339 0.57587 0.29805 0.0
C3665 C 0.69744 0.57795 0.30676 0.0
C3666 C 0.66616 0.57717 0.27365 0.0
C3667 C 0.68341 0.58073 0.25757 0.0
C3668 C 0.70768 0.58237 0.26606 0.0
C3669 C 0.71443 0.5809 0.29062 0.0
C3670 C 0.64004 0.57512 0.26517 0.0
C3671 C 0.72649 0.58621 0.24933 0.0
C3672 C 0.65658 0.56539 0.19328 0.0
C3673 C 0.65153 0.58639 0.18643 0.0
C3674 C 0.66861 0.56353 0.21594 0.0
C3675 C 0.6757 0.58316 0.23198 0.0
C3676 C 0.67223 0.60469 0.22446 0.0
C3677 C 0.66006 0.60603 0.20173 0.0
C3678 C 0.67202 0.54029 0.22335 0.0
C3679 C 0.67985 0.62604 0.24102 0.0
H3680 H 0.66014 0.57342 0.31034 0.0
H3681 H 0.73307 0.58258 0.29722 0.0
H3682 H 0.63671 0.5911 0.25735 0.0
H3683 H 0.63432 0.56114 0.25085 0.0
H3684 H 0.62889 0.57172 0.27992 0.0
H3685 H 0.74444 0.58579 0.25856 0.0
H3686 H 0.72236 0.57308 0.23406 0.0
H3687 H 0.72675 0.60299 0.2417 0.0
H3688 H 0.64987 0.55015 0.18151 0.0
H3689 H 0.65647 0.62233 0.19624 0.0
H3690 H 0.65949 0.53447 0.23633 0.0
H3691 H 0.69021 0.54098 0.23247 0.0
H3692 H 0.66879 0.52747 0.20778 0.0
H3693 H 0.66817 0.62559 0.25544 0.0
H3694 H 0.67887 0.64168 0.23138 0.0
H3695 H 0.69824 0.62708 0.24977 0.0
C3696 C 0.31774 0.8908 0.96079 0.0
C3697 C 0.32878 0.87992 0.97923 0.0
C3698 C 0.31508 0.88212 0.9367 0.0
C3699 C 0.32417 0.86234 0.93073 0.0
C3700 C 0.33539 0.8513 0.94929 0.0
C3701 C 0.33731 0.86006 0.97332 0.0
C3702 C 0.30266 0.89423 0.9176 0.0
C3703 C 0.34582 0.83049 0.94371 0.0
C3704 C 0.3034 0.82901 0.86989 0.0
C3705 C 0.3214 0.83785 0.85628 0.0
C3706 C 0.30384 0.83702 0.89401 0.0
C3707 C 0.323 0.85391 0.90499 0.0
C3708 C 0.34119 0.86283 0.89132 0.0
C3709 C 0.34005 0.85489 0.86718 0.0
C3710 C 0.28384 0.82739 0.90779 0.0
C3711 C 0.36216 0.88053 0.90231 0.0
H3712 H 0.31091 0.90604 0.96523 0.0
H3713 H 0.34593 0.85161 0.98746 0.0
H3714 H 0.31523 0.90106 0.90505 0.0
H3715 H 0.288 0.88207 0.9069 0.0
H3716 H 0.2953 0.90854 0.92531 0.0
H3717 H 0.35367 0.82369 0.96016 0.0
H3718 H 0.33198 0.81689 0.93393 0.0
H3719 H 0.35981 0.83477 0.9318 0.0
H3720 H 0.28893 0.81586 0.86168 0.0
H3721 H 0.35423 0.86169 0.85699 0.0
H3722 H 0.27572 0.84137 0.91503 0.0
H3723 H 0.29079 0.81877 0.92335 0.0
H3724 H 0.26983 0.81498 0.89649 0.0
H3725 H 0.35604 0.89601 0.9089 0.0
H3726 H 0.37503 0.88549 0.88938 0.0
H3727 H 0.37149 0.87389 0.91803 0.0
C3728 C 1.0184 0.58876 0.76657 0.0
C3729 C 0.03949 0.60133 0.77904 0.0
C3730 C 1.01843 0.57704 0.74436 0.0
C3731 C 0.04001 0.5782 0.73449 0.0
C3732 C 0.06116 0.59155 0.74659 0.0
C3733 C 0.06065 0.60286 0.76882 0.0
C3734 C 0.99564 0.5628 0.73202 0.0
C3735 C 0.08447 0.59354 0.73632 0.0
C3736 C 0.05716 0.53556 0.69187 0.0
C3737 C 0.05834 0.54799 0.67149 0.0
C3738 C 0.04851 0.54406 0.71211 0.0
C3739 C 0.0411 0.56539 0.71165 0.0
C3740 C 0.03965 0.57654 0.6901 0.0
C3741 C 0.04836 0.56767 0.67018 0.0
C3742 C 0.04973 0.53147 0.73469 0.0
C3743 C 1.03144 0.59911 0.68881 0.0
H3744 H 1.00202 0.58739 0.77455 0.0
H3745 H 0.07691 0.61272 0.77834 0.0
H3746 H 0.99337 0.56545 0.71255 0.0
H3747 H 0.99622 0.54451 0.73378 0.0
H3748 H 0.97991 0.56671 0.73995 0.0
H3749 H 0.08951 0.57652 0.73453 0.0
H3750 H 0.08272 0.5999 0.71811 0.0
H3751 H 0.09908 0.60522 0.7477 0.0
H3752 H 0.06468 0.5202 0.69269 0.0
H3753 H 0.04877 0.5769 0.65406 0.0
H3754 H 1.03369 0.53173 0.74378 0.0
H3755 H 0.0653 0.54001 0.74733 0.0
H3756 H 0.05154 0.51349 0.73092 0.0
H3757 H 1.01559 0.59911 0.69828 0.0
H3758 H 1.02717 0.60327 0.66996 0.0
H3759 H 0.04571 0.61279 0.69782 0.0
C3760 C 0.35621 0.19379 0.4476 0.0
C3761 C 0.34757 0.20187 0.46839 0.0
C3762 C 0.35569 0.20519 0.42564 0.0
C3763 C 0.34553 0.22523 0.42317 0.0
C3764 C 0.33638 0.2332 0.44399 0.0
C3765 C 0.33787 0.22192 0.466 0.0
C3766 C 0.36651 0.19583 0.40499 0.0
C3767 C 0.32461 0.25376 0.443 0.0
C3768 C 0.36014 0.2678 0.37275 0.0
C3769 C 0.34163 0.26064 0.35371 0.0
C3770 C 0.36187 0.25644 0.39473 0.0
C3771 C 0.34427 0.23751 0.39907 0.0
C3772 C 0.32536 0.23049 0.38004 0.0
C3773 C 0.32451 0.24164 0.35796 0.0
C3774 C 0.3829 0.26471 0.4134 0.0
C3775 C 0.3055 0.21123 0.38313 0.0
H3776 H 0.36402 0.17862 0.44862 0.0
H3777 H 0.331 0.22873 0.48143 0.0
H3778 H 0.35268 0.19029 0.38947 0.0
H3779 H 0.37998 0.20936 0.39909 0.0
H3780 H 0.37503 0.18114 0.40977 0.0
H3781 H 0.3169 0.25718 0.45976 0.0
H3782 H 0.33769 0.269 0.44003 0.0
H3783 H 0.31032 0.25129 0.42764 0.0
H3784 H 0.37367 0.28227 0.37039 0.0
H3785 H 0.30982 0.23567 0.34405 0.0
H3786 H 0.39176 0.2503 0.41843 0.0
H3787 H 0.37692 0.27156 0.42988 0.0
H3788 H 0.39607 0.27823 0.40701 0.0
H3789 H 0.31253 0.19528 0.38543 0.0
H3790 H 0.29138 0.20833 0.36757 0.0
H3791 H 0.2975 0.21492 0.39962 0.0
C3792 C 0.37419 0.65798 0.5463 0.0
C3793 C 0.37611 0.68074 0.5406 0.0
C3794 C 0.39352 0.64674 0.5461 0.0
C3795 C 0.41527 0.65853 0.53996 0.0
C3796 C 0.41761 0.68179 0.53515 0.0
C3797 C 0.39798 0.69265 0.53559 0.0
C3798 C 0.39038 0.62199 0.55153 0.0
C3799 C 0.44054 0.69492 0.52858 0.0
C3800 C 0.47016 0.63252 0.55438 0.0
C3801 C 0.47159 0.62116 0.53228 0.0
C3802 C 0.45208 0.64497 0.55712 0.0
C3803 C 0.43506 0.64612 0.53725 0.0
C3804 C 0.43654 0.63485 0.51483 0.0
C3805 C 0.45477 0.62247 0.51263 0.0
C3806 C 0.45101 0.65663 0.58133 0.0
C3807 C 0.41874 0.63574 0.4932 0.0
H3808 H 0.35736 0.6487 0.5503 0.0
H3809 H 0.39956 0.71023 0.53114 0.0
H3810 H 0.39191 0.61141 0.53519 0.0
H3811 H 0.40455 0.61939 0.5656 0.0
H3812 H 0.37291 0.61576 0.55766 0.0
H3813 H 0.44 0.71327 0.52705 0.0
H3814 H 0.45552 0.69335 0.54221 0.0
H3815 H 0.44425 0.68766 0.51114 0.0
H3816 H 0.48295 0.63132 0.5697 0.0
H3817 H 0.45598 0.61394 0.49545 0.0
H3818 H 0.43407 0.64964 0.58808 0.0
H3819 H 0.45146 0.6751 0.57967 0.0
H3820 H 0.4659 0.65446 0.59484 0.0
H3821 H 0.40069 0.62819 0.49702 0.0
H3822 H 0.42266 0.62645 0.47695 0.0
H3823 H 0.41854 0.6537 0.48926 0.0
C3824 C 0.88671 0.97537 0.53269 0.0
C3825 C 0.88432 0.95333 0.54111 0.0
C3826 C 0.90951 0.98938 0.53188 0.0
C3827 C 0.93095 0.98173 0.54004 0.0
C3828 C 0.92847 0.95983 0.54925 0.0
C3829 C 0.90568 0.94613 0.54943 0.0
C3830 C 0.91065 1.01226 0.52157 0.0
C3831 C 0.9501 0.95056 0.55873 0.0
C3832 C 0.9923 1.00446 0.51835 0.0
C3833 C 1.00454 1.01989 0.53741 0.0
C3834 C 0.96849 0.99282 0.5186 0.0
C3835 C 0.95591 0.99597 0.53858 0.0
C3836 C 0.96809 1.01167 0.5578 0.0
C3837 C 0.9918 1.02337 0.55692 0.0
C3838 C 0.95684 0.97674 0.49739 0.0
C3839 C 0.95625 1.01567 0.5798 0.0
H3840 H 0.87079 0.98139 0.52587 0.0
H3841 H 0.90462 0.92934 0.55612 0.0
H3842 H 0.92105 0.02582 0.53469 0.0
H3843 H 0.91994 1.0125 0.50531 0.0
H3844 H 0.89277 1.01634 0.51665 0.0
H3845 H 0.94545 0.93392 0.56658 0.0
H3846 H 0.96095 0.94833 0.544 0.0
H3847 H 0.96131 0.96281 0.57269 0.0
H3848 H 1.00144 1.00132 0.50305 0.0
H3849 H 1.00062 0.03494 0.57198 0.0
H3850 H 0.93942 0.98096 0.49071 0.0
H3851 H 0.95349 0.95906 0.50299 0.0
H3852 H 0.9679 0.97735 0.48241 0.0
H3853 H 0.93896 1.02082 0.5746 0.0
H3854 H 0.96731 0.02901 0.59279 0.0
H3855 H 0.95262 0.99961 0.58891 0.0
C3856 C 0.91098 0.10317 0.22659 0.0
C3857 C 0.90002 0.08018 0.22394 0.0
C3858 C 0.89865 0.12011 0.23364 0.0
C3859 C 0.87491 0.11382 0.23842 0.0
C3860 C 0.8634 0.09077 0.2346 0.0
C3861 C 0.87606 0.07423 0.22726 0.0
C3862 C 0.91139 0.14457 0.23712 0.0
C3863 C 0.83813 0.08339 0.23961 0.0
C3864 C 0.85481 0.15191 0.28492 0.0
C3865 C 0.84116 0.16439 0.2705 0.0
C3866 C 0.86558 0.13516 0.27467 0.0
C3867 C 0.86285 0.13101 0.24937 0.0
C3868 C 0.84894 0.14347 0.23471 0.0
C3869 C 0.83815 0.15996 0.24548 0.0
C3870 C 0.88006 0.12204 0.29092 0.0
C3871 C 0.84587 0.13971 0.20768 0.0
H3872 H 0.92945 0.10788 0.2239 0.0
H3873 H 0.86749 0.05648 0.22526 0.0
H3874 H 0.90048 0.15584 0.22791 0.0
H3875 H 0.91426 0.15016 0.25653 0.0
H3876 H 0.92888 0.14695 0.23021 0.0
H3877 H 0.83109 0.06522 0.23372 0.0
H3878 H 0.83723 0.08585 0.25917 0.0
H3879 H 0.82646 0.094 0.23042 0.0
H3880 H 0.85701 0.15525 0.30427 0.0
H3881 H 0.82786 0.16984 0.23429 0.0
H3882 H 0.89871 0.12515 0.287 0.0
H3883 H 0.87316 0.10349 0.28751 0.0
H3884 H 0.87984 0.12686 0.31024 0.0
H3885 H 0.86338 0.14355 0.20098 0.0
H3886 H 0.83413 0.15053 0.19889 0.0
H3887 H 0.83828 0.12159 0.20214 0.0
C3888 C 0.72261 0.17672 0.01964 0.0
C3889 C 0.74503 0.17313 1.01487 0.0
C3890 C 0.70351 0.15845 0.01879 0.0
C3891 C 0.70674 0.13606 1.01248 0.0
C3892 C 0.72917 0.13239 1.00705 0.0
C3893 C 0.74813 0.15093 1.00859 0.0
C3894 C 0.67996 0.16306 0.02507 0.0
C3895 C 0.73313 0.10889 0.99962 0.0
C3896 C 0.66222 0.0888 0.03342 0.0
C3897 C 0.64474 0.08451 1.01351 0.0
C3898 C 0.68302 0.10494 0.03303 0.0
C3899 C 0.68662 0.11659 1.01201 0.0
C3900 C 0.66981 0.11097 0.99125 0.0
C3901 C 0.6489 0.09524 0.99238 0.0
C3902 C 0.70031 0.11066 0.05564 0.0
C3903 C 0.67323 0.12245 0.96825 0.0
H3904 H 0.72012 0.1938 0.02465 0.0
H3905 H 0.76536 0.14806 1.00467 0.0
H3906 H 0.66604 0.1575 1.00962 0.0
H3907 H 0.67465 0.15309 0.04034 0.0
H3908 H 0.68049 0.18137 0.03002 0.0
H3909 H 0.75137 0.10903 0.99505 0.0
H3910 H 0.73001 0.09746 1.01433 0.0
H3911 H 0.72029 0.10151 0.9838 0.0
H3912 H 0.65892 0.08071 0.04986 0.0
H3913 H 0.63544 0.09185 0.9769 0.0
H3914 H 0.70012 0.12825 0.0628 0.0
H3915 H 0.7186 0.11012 0.05173 0.0
H3916 H 0.69594 0.09884 0.06979 0.0
H3917 H 0.67002 0.14015 0.97037 0.0
H3918 H 0.66086 0.1134 0.95278 0.0
H3919 H 0.69167 0.12338 0.96406 0.0
C3920 C 0.22675 0.44894 0.2685 0.0
C3921 C 0.2223 0.46675 0.25444 0.0
C3922 C 0.24862 0.44177 0.26988 0.0
C3923 C 0.26633 0.45238 0.25648 0.0
C3924 C 0.26125 0.46908 0.24072 0.0
C3925 C 0.23932 0.47626 0.24006 0.0
C3926 C 0.25327 0.42383 0.28691 0.0
C3927 C 0.27939 0.48031 0.22563 0.0
C3928 C 0.32699 0.45069 0.28838 0.0
C3929 C 0.33107 0.42994 0.27853 0.0
C3930 C 0.3068 0.45934 0.27993 0.0
C3931 C 0.29059 0.44716 0.26088 0.0
C3932 C 0.29606 0.42769 0.24906 0.0
C3933 C 0.31616 0.41921 0.25812 0.0
C3934 C 0.30162 0.48022 0.29303 0.0
C3935 C 0.27958 0.41464 0.22823 0.0
H3936 H 0.21366 0.44145 0.27959 0.0
H3937 H 0.23591 0.48995 0.22902 0.0
H3938 H 0.25943 0.40973 0.27734 0.0
H3939 H 0.26754 0.43137 0.30147 0.0
H3940 H 0.23728 0.41658 0.2952 0.0
H3941 H 0.27117 0.48911 0.21087 0.0
H3942 H 0.2928 0.49312 0.23709 0.0
H3943 H 0.28883 0.46765 0.21778 0.0
H3944 H 0.33867 0.4593 0.30384 0.0
H3945 H 0.31891 0.40307 0.25045 0.0
H3946 H 0.2867 0.4751 0.30365 0.0
H3947 H 0.29614 0.49228 0.28011 0.0
H3948 H 0.31717 0.4892 0.30546 0.0
H3949 H 0.26244 0.40722 0.23434 0.0
H3950 H 0.28708 0.40059 0.22016 0.0
H3951 H 0.27575 0.42631 0.21417 0.0
C3952 C 0.22647 0.44866 0.02356 0.0
C3953 C 0.2465 0.45459 0.04117 0.0
C3954 C 0.20615 0.45967 0.02293 0.0
C3955 C 0.2042 0.47668 0.0412 0.0
C3956 C 0.22418 0.48212 0.05952 0.0
C3957 C 0.24484 0.47177 0.05884 0.0
C3958 C 0.18697 0.4529 1.00203 0.0
C3959 C 0.22419 0.49886 0.08049 0.0
C3960 C 0.16302 0.52342 0.03765 0.0
C3961 C 0.14022 0.51173 0.04102 0.0
C3962 C 0.18318 0.5124 0.03683 0.0
C3963 C 0.18189 0.48875 0.04099 0.0
C3964 C 0.15886 0.477 0.04504 0.0
C3965 C 0.13868 0.48824 0.04433 0.0
C3966 C 0.20588 0.52669 0.03123 0.0
C3967 C 0.15503 0.45234 0.05064 0.0
H3968 H 0.22693 0.43574 1.00949 0.0
H3969 H 0.25968 0.47689 0.07279 0.0
H3970 H 0.1751 0.43712 1.0058 0.0
H3971 H 0.17622 0.4663 0.99855 0.0
H3972 H 0.19472 0.44903 0.98542 0.0
H3973 H 0.23287 0.49319 0.0972 0.0
H3974 H 0.23474 0.51555 0.07722 0.0
H3975 H 0.2061 0.5012 0.08352 0.0
H3976 H 0.16512 0.54147 0.03507 0.0
H3977 H 0.12166 0.47858 0.04731 0.0
H3978 H 0.21795 0.51631 0.02395 0.0
H3979 H 0.21514 0.53658 0.04786 0.0
H3980 H 0.20206 0.53917 0.01801 0.0
H3981 H 0.14694 0.44162 0.03409 0.0
H3982 H 0.14238 0.44918 0.06414 0.0
H3983 H 0.1717 0.44679 0.05756 0.0
C3984 C 0.92935 0.95061 0.25148 0.0
C3985 C 0.92199 0.96191 0.23157 0.0
C3986 C 0.91574 0.93025 0.25717 0.0
C3987 C 0.89467 0.92059 0.24207 0.0
C3988 C 0.88728 0.93182 0.22174 0.0
C3989 C 0.90085 0.95265 0.21697 0.0
C3990 C 0.92385 0.91916 0.27941 0.0
C3991 C 0.86532 0.92165 0.20485 0.0
C3992 C 0.87562 0.85739 0.24799 0.0
C3993 C 0.8576 0.8572 0.26273 0.0
C3994 C 0.88694 0.87784 0.23998 0.0
C3995 C 0.88061 0.89862 0.24763 0.0
C3996 C 0.86208 0.89845 0.26216 0.0
C3997 C 0.85051 0.87764 0.26923 0.0
C3998 C 0.90615 0.87727 0.22393 0.0
C3999 C 0.85533 0.92029 0.27129 0.0
H4000 H 0.94559 0.95797 0.26291 0.0
H4001 H 0.89528 0.96139 0.20149 0.0
H4002 H 0.90952 0.91644 0.29114 0.0
H4003 H 0.92782 0.90221 0.27434 0.0
H4004 H 0.93994 0.92955 0.28992 0.0
H4005 H 0.86221 0.93236 0.18965 0.0
H4006 H 0.86695 0.9045 0.19751 0.0
H4007 H 0.84955 0.91944 0.21468 0.0
H4008 H 0.88095 0.84151 0.24284 0.0
H4009 H 0.83671 0.87748 0.28083 0.0
H4010 H 0.9236 0.88507 0.23394 0.0
H4011 H 0.90314 0.88739 0.20822 0.0
H4012 H 0.907 0.85964 0.21737 0.0
H4013 H 0.87051 0.93048 0.2833 0.0
H4014 H 0.83976 0.91715 0.28141 0.0
H4015 H 0.85125 0.93073 0.25615 0.0
C4016 C 0.66973 0.07247 0.73735 0.0
C4017 C 0.65016 0.06475 0.74938 0.0
C4018 C 0.67905 0.09576 0.73746 0.0
C4019 C 0.66858 0.11177 0.7499 0.0
C4020 C 0.64809 0.10422 0.76104 0.0
C4021 C 0.63912 0.08078 0.76066 0.0
C4022 C 0.70084 0.10315 0.7252 0.0
C4023 C 0.63633 0.12068 0.77448 0.0
C4024 C 0.71199 0.16571 0.77263 0.0
C4025 C 0.7076 0.18039 0.75462 0.0
C4026 C 0.69851 0.14371 0.77195 0.0
C4027 C 0.68034 0.13611 0.75271 0.0
C4028 C 0.67497 0.1512 0.73518 0.0
C4029 C 0.68861 0.1732 0.73639 0.0
C4030 C 0.70446 0.12822 0.79124 0.0
C4031 C 0.65551 0.14378 0.71458 0.0
H4032 H 0.67831 0.06028 0.72845 0.0
H4033 H 0.62398 0.07503 0.77001 0.0
H4034 H 0.69785 0.11648 0.71277 0.0
H4035 H 0.71599 0.11067 0.73885 0.0
H4036 H 0.70582 0.08876 0.71489 0.0
H4037 H 0.61779 0.11307 0.77673 0.0
H4038 H 0.64637 0.12533 0.79259 0.0
H4039 H 0.63623 0.13659 0.76516 0.0
H4040 H 0.72672 0.17098 0.78666 0.0
H4041 H 0.68479 0.1846 0.72269 0.0
H4042 H 0.71097 0.11353 0.78321 0.0
H4043 H 0.68831 0.12133 0.79938 0.0
H4044 H 0.7182 0.1371 0.80569 0.0
H4045 H 0.66047 0.13052 0.70264 0.0
H4046 H 0.65211 0.15815 0.70372 0.0
H4047 H 0.63883 0.1361 0.72141 0.0
loop_
_geom_bond_atom_site_label_1
_geom_bond_atom_site_label_2
_geom_bond_distance
_geom_bond_site_symmetry_2
_ccdc_geom_bond_type
Co0 O1 2.216 . S
Co0 O2 2.091 . S
Co0 O4 2.004 . S
Co0 O10 2.021 . S
Co0 O12 2.137 . S
Co0 O13 2.244 . S
O1 Co0 2.216 . S
O1 C8 1.247 . S
O2 Co0 2.091 . S
O2 C8 1.261 . S
C3 O12 1.247 . S
C3 O13 1.272 . S
O4 Co0 2.004 . S
O4 C9 1.259 . S
Co5 O6 2.074 . S
Co5 O11 2.052 . S
Co5 O13 2.135 . S
O6 Co5 2.074 . S
O6 C9 1.244 . S
C7 O10 1.238 . S
C7 O11 1.241 . S
C8 O1 1.247 . S
C8 O2 1.261 . S
C9 O4 1.259 . S
C9 O6 1.244 . S
O10 Co0 2.021 . S
O10 C7 1.238 . S
O11 Co5 2.052 . S
O11 C7 1.241 . S
O12 Co0 2.137 . S
O12 C3 1.247 . S
O13 Co0 2.244 . S
O13 C3 1.272 . S
O13 Co5 2.135 . S
Co14 O15 2.216 . S
Co14 O16 2.091 . S
Co14 O18 2.004 . S
Co14 O24 2.021 . S
Co14 O26 2.137 . S
Co14 O27 2.244 . S
O15 Co14 2.216 . S
O15 C22 1.247 . S
O16 Co14 2.091 . S
O16 C22 1.261 . S
C17 O26 1.247 . S
C17 O27 1.272 . S
O18 Co14 2.004 . S
O18 C23 1.259 . S
Co19 O20 2.061 . S
Co19 O25 2.052 . S
Co19 O27 2.135 . S
O20 Co19 2.061 . S
O20 C23 1.235 . S
C21 O24 1.238 . S
C21 O25 1.241 . S
C22 O15 1.247 . S
C22 O16 1.261 . S
C23 O18 1.259 . S
C23 O20 1.235 . S
O24 Co14 2.021 . S
O24 C21 1.238 . S
O25 Co19 2.052 . S
O25 C21 1.241 . S
O26 Co14 2.137 . S
O26 C17 1.247 . S
O27 Co14 2.244 . S
O27 C17 1.272 . S
O27 Co19 2.135 . S
Co28 O29 2.216 . S
Co28 O30 2.091 . S
Co28 O32 2.004 . S
Co28 O38 2.021 . S
Co28 O40 2.137 . S
Co28 O41 2.244 . S
O29 Co28 2.216 . S
O29 C36 1.247 . S
O30 Co28 2.091 . S
O30 C36 1.261 . S
C31 O40 1.247 . S
C31 O41 1.272 . S
O32 Co28 2.004 . S
O32 C37 1.259 . S
Co33 O34 2.061 . S
Co33 O39 2.052 . S
Co33 O41 2.135 . S
O34 Co33 2.061 . S
O34 C37 1.235 . S
C35 O38 1.238 . S
C35 O39 1.241 . S
C36 O29 1.247 . S
C36 O30 1.261 . S
C37 O32 1.259 . S
C37 O34 1.235 . S
O38 Co28 2.021 . S
O38 C35 1.238 . S
O39 Co33 2.052 . S
O39 C35 1.241 . S
O40 Co28 2.137 . S
O40 C31 1.247 . S
O41 Co28 2.244 . S
O41 C31 1.272 . S
O41 Co33 2.135 . S
Co42 O43 2.216 . S
Co42 O44 2.091 . S
Co42 O46 2.004 . S
Co42 O52 2.021 . S
Co42 O54 2.137 . S
Co42 O55 2.244 . S
O43 Co42 2.216 . S
O43 C50 1.247 . S
O44 Co42 2.091 . S
O44 C50 1.261 . S
C45 O54 1.247 . S
C45 O55 1.272 . S
O46 Co42 2.004 . S
O46 C51 1.259 . S
Co47 O48 2.061 . S
Co47 O53 2.052 . S
Co47 O55 2.135 . S
O48 Co47 2.061 . S
O48 C51 1.235 . S
C49 O52 1.238 . S
C49 O53 1.241 . S
C50 O43 1.247 . S
C50 O44 1.261 . S
C51 O46 1.259 . S
C51 O48 1.235 . S
O52 Co42 2.021 . S
O52 C49 1.238 . S
O53 Co47 2.052 . S
O53 C49 1.241 . S
O54 Co42 2.137 . S
O54 C45 1.247 . S
O55 Co42 2.244 . S
O55 C45 1.272 . S
O55 Co47 2.135 . S
Co56 O57 2.216 . S
Co56 O58 2.091 . S
Co56 O60 2.004 . S
Co56 O66 2.021 . S
Co56 O68 2.137 . S
Co56 O69 2.244 . S
O57 Co56 2.216 . S
O57 C64 1.247 . S
O58 Co56 2.091 . S
O58 C64 1.261 . S
C59 O68 1.247 . S
C59 O69 1.272 . S
O60 Co56 2.004 . S
O60 C65 1.259 . S
Co61 O62 2.061 . S
Co61 O67 2.052 . S
Co61 O69 2.135 . S
O62 Co61 2.061 . S
O62 C65 1.235 . S
C63 O66 1.238 . S
C63 O67 1.241 . S
C64 O57 1.247 . S
C64 O58 1.261 . S
C65 O60 1.259 . S
C65 O62 1.235 . S
O66 Co56 2.021 . S
O66 C63 1.238 . S
O67 Co61 2.052 . S
O67 C63 1.241 . S
O68 Co56 2.137 . S
O68 C59 1.247 . S
O69 Co56 2.244 . S
O69 C59 1.272 . S
O69 Co61 2.135 . S
Co70 O71 2.216 . S
Co70 O72 2.091 . S
Co70 O74 2.004 . S
Co70 O80 2.021 . S
Co70 O82 2.137 . S
Co70 O83 2.244 . S
O71 Co70 2.216 . S
O71 C78 1.247 . S
O72 Co70 2.091 . S
O72 C78 1.261 . S
C73 O82 1.247 . S
C73 O83 1.272 . S
O74 Co70 2.004 . S
O74 C79 1.259 . S
Co75 O76 2.061 . S
Co75 O81 2.052 . S
Co75 O83 2.135 . S
O76 Co75 2.061 . S
O76 C79 1.235 . S
C77 O80 1.238 . S
C77 O81 1.241 . S
C78 O71 1.247 . S
C78 O72 1.261 . S
C79 O74 1.259 . S
C79 O76 1.235 . S
O80 Co70 2.021 . S
O80 C77 1.238 . S
O81 Co75 2.052 . S
O81 C77 1.241 . S
O82 Co70 2.137 . S
O82 C73 1.247 . S
O83 Co70 2.244 . S
O83 C73 1.272 . S
O83 Co75 2.135 . S
Co84 O85 2.216 . S
Co84 O86 2.091 . S
Co84 O88 2.004 . S
Co84 O94 2.021 . S
Co84 O96 2.137 . S
Co84 O97 2.244 . S
O85 Co84 2.216 . S
O85 C92 1.247 . S
O86 Co84 2.091 . S
O86 C92 1.261 . S
C87 O96 1.247 . S
C87 O97 1.272 . S
O88 Co84 2.004 . S
O88 C93 1.259 . S
Co89 O90 2.061 . S
Co89 O95 2.052 . S
Co89 O97 2.135 . S
O90 Co89 2.061 . S
O90 C93 1.235 . S
C91 O94 1.238 . S
C91 O95 1.241 . S
C92 O85 1.247 . S
C92 O86 1.261 . S
C93 O88 1.259 . S
C93 O90 1.235 . S
O94 Co84 2.021 . S
O94 C91 1.238 . S
O95 Co89 2.052 . S
O95 C91 1.241 . S
O96 Co84 2.137 . S
O96 C87 1.247 . S
O97 Co84 2.244 . S
O97 C87 1.272 . S
O97 Co89 2.135 . S
Co98 O99 2.216 . S
Co98 O100 2.091 . S
Co98 O102 2.004 1_455 S
Co98 O108 2.021 1_455 S
Co98 O110 2.137 . S
Co98 O111 2.244 1_455 S
O99 Co98 2.216 . S
O99 C106 1.247 . S
O100 Co98 2.091 . S
O100 C106 1.261 . S
C101 O110 1.247 . S
C101 O111 1.272 1_455 S
O102 Co98 2.004 1_655 S
O102 C107 1.259 . S
Co103 O104 2.061 . S
Co103 O109 2.052 . S
Co103 O111 2.135 . S
O104 Co103 2.061 . S
O104 C107 1.235 . S
C105 O108 1.245 . S
C105 O109 1.241 . S
C106 O99 1.247 . S
C106 O100 1.261 . S
C107 O102 1.259 . S
C107 O104 1.235 . S
O108 Co98 2.021 1_655 S
O108 C105 1.245 . S
O109 Co103 2.052 . S
O109 C105 1.241 . S
O110 Co98 2.137 . S
O110 C101 1.247 . S
O111 Co98 2.244 1_655 S
O111 C101 1.272 1_655 S
O111 Co103 2.135 . S
Co112 O113 2.216 . S
Co112 O114 2.091 . S
Co112 O116 2.004 . S
Co112 O122 2.021 . S
Co112 O124 2.137 . S
Co112 O125 2.244 . S
O113 Co112 2.216 . S
O113 C120 1.247 . S
O114 Co112 2.091 . S
O114 C120 1.261 . S
C115 O124 1.247 . S
C115 O125 1.272 . S
O116 Co112 2.004 . S
O116 C121 1.259 . S
Co117 O118 2.061 . S
Co117 O123 2.052 . S
Co117 O125 2.135 . S
O118 Co117 2.061 . S
O118 C121 1.235 . S
C119 O122 1.238 . S
C119 O123 1.241 . S
C120 O113 1.247 . S
C120 O114 1.261 . S
C121 O116 1.259 . S
C121 O118 1.235 . S
O122 Co112 2.021 . S
O122 C119 1.238 . S
O123 Co117 2.052 . S
O123 C119 1.241 . S
O124 Co112 2.137 . S
O124 C115 1.247 . S
O125 Co112 2.244 . S
O125 C115 1.272 . S
O125 Co117 2.135 . S
Co126 O127 2.216 . S
Co126 O128 2.091 . S
Co126 O130 2.004 . S
Co126 O136 2.021 . S
Co126 O138 2.137 . S
Co126 O139 2.244 . S
O127 Co126 2.216 . S
O127 C134 1.247 . S
O128 Co126 2.091 . S
O128 C134 1.261 . S
C129 O138 1.247 . S
C129 O139 1.272 . S
O130 Co126 2.004 . S
O130 C135 1.259 . S
Co131 O132 2.061 . S
Co131 O137 2.052 . S
Co131 O139 2.135 . S
O132 Co131 2.061 . S
O132 C135 1.235 . S
C133 O136 1.238 . S
C133 O137 1.241 . S
C134 O127 1.247 . S
C134 O128 1.261 . S
C135 O130 1.259 . S
C135 O132 1.235 . S
O136 Co126 2.021 . S
O136 C133 1.238 . S
O137 Co131 2.052 . S
O137 C133 1.241 . S
O138 Co126 2.137 . S
O138 C129 1.247 . S
O139 Co126 2.244 . S
O139 C129 1.272 . S
O139 Co131 2.135 . S
Co140 O141 2.216 . S
Co140 O142 2.091 . S
Co140 O144 2.004 . S
Co140 O150 2.021 . S
Co140 O152 2.137 . S
Co140 O153 2.244 . S
O141 Co140 2.216 . S
O141 C148 1.247 . S
O142 Co140 2.091 . S
O142 C148 1.261 . S
C143 O152 1.247 . S
C143 O153 1.272 . S
O144 Co140 2.004 . S
O144 C149 1.259 . S
Co145 O146 2.061 . S
Co145 O151 2.052 . S
Co145 O153 2.135 . S
O146 Co145 2.061 . S
O146 C149 1.235 . S
C147 O150 1.238 . S
C147 O151 1.241 . S
C148 O141 1.247 . S
C148 O142 1.261 . S
C149 O144 1.259 . S
C149 O146 1.235 . S
O150 Co140 2.021 . S
O150 C147 1.238 . S
O151 Co145 2.052 . S
O151 C147 1.241 . S
O152 Co140 2.137 . S
O152 C143 1.247 . S
O153 Co140 2.244 . S
O153 C143 1.272 . S
O153 Co145 2.135 . S
Co154 O155 2.216 . S
Co154 O156 2.091 . S
Co154 O158 2.004 . S
Co154 O164 2.021 . S
Co154 O166 2.137 . S
Co154 O167 2.244 . S
O155 Co154 2.216 . S
O155 C162 1.247 . S
O156 Co154 2.091 . S
O156 C162 1.261 . S
C157 O166 1.247 . S
C157 O167 1.272 . S
O158 Co154 2.004 . S
O158 C163 1.259 . S
Co159 O160 2.061 . S
Co159 O165 2.052 . S
Co159 O167 2.135 . S
O160 Co159 2.061 . S
O160 C163 1.235 . S
C161 O164 1.238 . S
C161 O165 1.241 . S
C162 O155 1.247 . S
C162 O156 1.261 . S
C163 O158 1.259 . S
C163 O160 1.235 . S
O164 Co154 2.021 . S
O164 C161 1.238 . S
O165 Co159 2.052 . S
O165 C161 1.241 . S
O166 Co154 2.137 . S
O166 C157 1.247 . S
O167 Co154 2.244 . S
O167 C157 1.272 . S
O167 Co159 2.135 . S
Co168 O169 2.216 . S
Co168 O170 2.091 . S
Co168 O172 2.004 . S
Co168 O178 2.021 . S
Co168 O180 2.137 1_554 S
Co168 O181 2.244 . S
O169 Co168 2.216 . S
O169 C176 1.247 . S
O170 Co168 2.091 . S
O170 C176 1.261 . S
C171 O180 1.247 . S
C171 O181 1.272 1_556 S
O172 Co168 2.004 . S
O172 C177 1.259 . S
Co173 O174 2.061 . S
Co173 O179 2.052 . S
Co173 O181 2.135 . S
O174 Co173 2.061 . S
O174 C177 1.235 . S
C175 O178 1.238 . S
C175 O179 1.241 . S
C176 O169 1.247 . S
C176 O170 1.261 . S
C177 O172 1.259 . S
C177 O174 1.235 . S
O178 Co168 2.021 . S
O178 C175 1.238 . S
O179 Co173 2.052 . S
O179 C175 1.241 . S
O180 Co168 2.137 1_556 S
O180 C171 1.247 . S
O181 Co168 2.244 . S
O181 C171 1.272 1_554 S
O181 Co173 2.135 . S
Co182 O183 2.216 1_556 S
Co182 O184 2.089 1_556 S
Co182 O186 2.004 . S
Co182 O192 2.021 1_556 S
Co182 O194 2.137 . S
Co182 O195 2.244 . S
O183 Co182 2.216 1_554 S
O183 C190 1.247 . S
O184 Co182 2.089 1_554 S
O184 C190 1.260 . S
C185 O194 1.247 . S
C185 O195 1.272 . S
O186 Co182 2.004 . S
O186 C191 1.259 . S
Co187 O188 2.057 . S
Co187 O193 2.016 1_556 S
Co187 O195 2.163 . S
O188 Co187 2.057 . S
O188 C191 1.235 . S
C189 O192 1.238 . S
C189 O193 1.241 . S
C190 O183 1.247 . S
C190 O184 1.260 . S
C191 O186 1.259 . S
C191 O188 1.235 . S
O192 Co182 2.021 1_554 S
O192 C189 1.238 . S
O193 Co187 2.016 1_554 S
O193 C189 1.241 . S
O194 Co182 2.137 . S
O194 C185 1.247 . S
O195 Co182 2.244 . S
O195 C185 1.272 . S
O195 Co187 2.163 . S
Co196 O197 2.216 . S
Co196 O198 2.091 . S
Co196 O200 2.004 . S
Co196 O206 2.021 . S
Co196 O208 2.137 . S
Co196 O209 2.244 . S
O197 Co196 2.216 . S
O197 C204 1.247 . S
O198 Co196 2.091 . S
O198 C204 1.261 . S
C199 O208 1.247 . S
C199 O209 1.272 . S
O200 Co196 2.004 . S
O200 C205 1.259 . S
Co201 O202 2.061 . S
Co201 O207 2.052 . S
Co201 O209 2.135 . S
O202 Co201 2.061 . S
O202 C205 1.235 . S
C203 O206 1.238 . S
C203 O207 1.241 . S
C204 O197 1.247 . S
C204 O198 1.261 . S
C205 O200 1.259 . S
C205 O202 1.235 . S
O206 Co196 2.021 . S
O206 C203 1.238 . S
O207 Co201 2.052 . S
O207 C203 1.241 . S
O208 Co196 2.137 . S
O208 C199 1.247 . S
O209 Co196 2.244 . S
O209 C199 1.272 . S
O209 Co201 2.135 . S
Co210 O211 2.216 . S
Co210 O212 2.091 . S
Co210 O214 2.004 . S
Co210 O220 2.021 . S
Co210 O222 2.137 . S
Co210 O223 2.244 . S
O211 Co210 2.216 . S
O211 C218 1.247 . S
O212 Co210 2.091 . S
O212 C218 1.261 . S
C213 O222 1.247 . S
C213 O223 1.272 . S
O214 Co210 2.004 . S
O214 C219 1.259 . S
Co215 O216 2.061 . S
Co215 O221 2.052 . S
Co215 O223 2.135 . S
O216 Co215 2.061 . S
O216 C219 1.235 . S
C217 O220 1.238 . S
C217 O221 1.241 . S
C218 O211 1.247 . S
C218 O212 1.261 . S
C219 O214 1.259 . S
C219 O216 1.235 . S
O220 Co210 2.021 . S
O220 C217 1.238 . S
O221 Co215 2.052 . S
O221 C217 1.241 . S
O222 Co210 2.137 . S
O222 C213 1.247 . S
O223 Co210 2.244 . S
O223 C213 1.272 . S
O223 Co215 2.135 . S
Co224 O225 2.216 . S
Co224 O226 2.091 . S
Co224 O228 2.004 1_545 S
Co224 O234 2.021 . S
Co224 O236 2.137 . S
Co224 O237 2.244 1_545 S
O225 Co224 2.216 . S
O225 C232 1.247 . S
O226 Co224 2.091 . S
O226 C232 1.261 . S
C227 O236 1.247 . S
C227 O237 1.272 1_545 S
O228 Co224 2.004 1_565 S
O228 C233 1.259 . S
Co229 O230 2.061 . S
Co229 O235 2.052 . S
Co229 O237 2.135 . S
O230 Co229 2.061 . S
O230 C233 1.235 . S
C231 O234 1.238 1_565 S
C231 O235 1.241 . S
C232 O225 1.247 . S
C232 O226 1.261 . S
C233 O228 1.259 . S
C233 O230 1.235 . S
O234 Co224 2.021 . S
O234 C231 1.238 1_545 S
O235 Co229 2.052 . S
O235 C231 1.241 . S
O236 Co224 2.137 . S
O236 C227 1.247 . S
O237 Co224 2.244 1_565 S
O237 C227 1.272 1_565 S
O237 Co229 2.135 . S
Co238 O239 2.216 . S
Co238 O240 2.091 . S
Co238 O242 2.004 . S
Co238 O248 2.021 . S
Co238 O250 2.137 . S
Co238 O251 2.244 . S
O239 Co238 2.216 . S
O239 C246 1.247 . S
O240 Co238 2.091 . S
O240 C246 1.261 . S
C241 O250 1.247 . S
C241 O251 1.272 . S
O242 Co238 2.004 . S
O242 C247 1.259 . S
Co243 O244 2.061 . S
Co243 O249 2.052 . S
Co243 O251 2.135 . S
O244 Co243 2.061 . S
O244 C247 1.235 . S
C245 O248 1.238 . S
C245 O249 1.241 . S
C246 O239 1.247 . S
C246 O240 1.261 . S
C247 O242 1.259 . S
C247 O244 1.235 . S
O248 Co238 2.021 . S
O248 C245 1.238 . S
O249 Co243 2.052 . S
O249 C245 1.241 . S
O250 Co238 2.137 . S
O250 C241 1.247 . S
O251 Co238 2.244 . S
O251 C241 1.272 . S
O251 Co243 2.135 . S
Co252 O253 2.216 . S
Co252 O254 2.091 . S
Co252 O256 2.004 . S
Co252 O262 2.021 . S
Co252 O264 2.137 . S
Co252 O265 2.244 . S
O253 Co252 2.216 . S
O253 C260 1.247 . S
O254 Co252 2.091 . S
O254 C260 1.261 . S
C255 O264 1.247 . S
C255 O265 1.272 . S
O256 Co252 2.004 . S
O256 C261 1.259 . S
Co257 O258 2.061 . S
Co257 O263 2.052 . S
Co257 O265 2.135 . S
O258 Co257 2.061 . S
O258 C261 1.235 . S
C259 O262 1.238 . S
C259 O263 1.241 . S
C260 O253 1.247 . S
C260 O254 1.261 . S
C261 O256 1.259 . S
C261 O258 1.235 . S
O262 Co252 2.021 . S
O262 C259 1.238 . S
O263 Co257 2.052 . S
O263 C259 1.241 . S
O264 Co252 2.137 . S
O264 C255 1.247 . S
O265 Co252 2.244 . S
O265 C255 1.272 . S
O265 Co257 2.135 . S
Co266 O267 2.216 1_545 S
Co266 O268 2.091 1_545 S
Co266 O270 2.004 . S
Co266 O276 2.021 . S
Co266 O278 2.138 . S
Co266 O279 2.244 . S
O267 Co266 2.216 1_565 S
O267 C274 1.247 . S
O268 Co266 2.091 1_565 S
O268 C274 1.261 . S
C269 O278 1.252 . S
C269 O279 1.272 . S
O270 Co266 2.004 . S
O270 C275 1.259 . S
Co271 O272 2.061 . S
Co271 O277 2.052 . S
Co271 O279 2.135 . S
O272 Co271 2.061 . S
O272 C275 1.235 . S
C273 O276 1.238 . S
C273 O277 1.241 . S
C274 O267 1.247 . S
C274 O268 1.261 . S
C275 O270 1.259 . S
C275 O272 1.235 . S
O276 Co266 2.021 . S
O276 C273 1.238 . S
O277 Co271 2.052 . S
O277 C273 1.241 . S
O278 Co266 2.138 . S
O278 C269 1.252 . S
O279 Co266 2.244 . S
O279 C269 1.272 . S
O279 Co271 2.135 . S
Co280 O281 2.216 . S
Co280 O282 2.091 . S
Co280 O284 2.004 . S
Co280 O290 2.021 . S
Co280 O292 2.137 1_554 S
Co280 O293 2.243 . S
O281 Co280 2.216 . S
O281 C288 1.247 . S
O282 Co280 2.091 . S
O282 C288 1.261 . S
C283 O292 1.247 . S
C283 O293 1.273 1_556 S
O284 Co280 2.004 . S
O284 C289 1.259 . S
Co285 O286 2.061 . S
Co285 O291 2.052 . S
Co285 O293 2.134 . S
O286 Co285 2.061 . S
O286 C289 1.235 . S
C287 O290 1.238 . S
C287 O291 1.241 . S
C288 O281 1.247 . S
C288 O282 1.261 . S
C289 O284 1.259 . S
C289 O286 1.235 . S
O290 Co280 2.021 . S
O290 C287 1.238 . S
O291 Co285 2.052 . S
O291 C287 1.241 . S
O292 Co280 2.137 1_556 S
O292 C283 1.247 . S
O293 Co280 2.243 . S
O293 C283 1.273 1_554 S
O293 Co285 2.134 . S
Co294 O295 2.216 . S
Co294 O296 2.091 . S
Co294 O298 2.004 . S
Co294 O304 2.021 . S
Co294 O306 2.137 . S
Co294 O307 2.244 1_655 S
O295 Co294 2.216 . S
O295 C302 1.247 . S
O296 Co294 2.091 . S
O296 C302 1.261 . S
C297 O306 1.247 1_455 S
C297 O307 1.272 . S
O298 Co294 2.004 . S
O298 C303 1.259 . S
Co299 O300 2.061 1_455 S
Co299 O305 2.052 . S
Co299 O307 2.135 . S
O300 Co299 2.061 1_655 S
O300 C303 1.235 . S
C301 O304 1.238 1_455 S
C301 O305 1.241 . S
C302 O295 1.247 . S
C302 O296 1.261 . S
C303 O298 1.259 . S
C303 O300 1.235 . S
O304 Co294 2.021 . S
O304 C301 1.238 1_655 S
O305 Co299 2.052 . S
O305 C301 1.241 . S
O306 Co294 2.137 . S
O306 C297 1.247 1_655 S
O307 Co294 2.244 1_455 S
O307 C297 1.272 . S
O307 Co299 2.135 . S
Co308 O309 2.216 . S
Co308 O310 2.091 . S
Co308 O312 2.004 . S
Co308 O318 2.021 . S
Co308 O320 2.137 . S
Co308 O321 2.244 . S
O309 Co308 2.216 . S
O309 C316 1.247 . S
O310 Co308 2.091 . S
O310 C316 1.261 . S
C311 O320 1.247 . S
C311 O321 1.272 . S
O312 Co308 2.004 . S
O312 C317 1.259 . S
Co313 O314 2.061 . S
Co313 O319 2.052 . S
Co313 O321 2.135 . S
O314 Co313 2.061 . S
O314 C317 1.235 . S
C315 O318 1.238 . S
C315 O319 1.241 . S
C316 O309 1.247 . S
C316 O310 1.261 . S
C317 O312 1.259 . S
C317 O314 1.235 . S
O318 Co308 2.021 . S
O318 C315 1.238 . S
O319 Co313 2.052 . S
O319 C315 1.241 . S
O320 Co308 2.137 . S
O320 C311 1.247 . S
O321 Co308 2.244 . S
O321 C311 1.272 . S
O321 Co313 2.135 . S
Co322 O323 2.216 . S
Co322 O324 2.091 . S
Co322 O326 2.004 . S
Co322 O332 2.021 . S
Co322 O334 2.137 . S
Co322 O335 2.244 . S
O323 Co322 2.216 . S
O323 C330 1.247 . S
O324 Co322 2.091 . S
O324 C330 1.261 . S
C325 O334 1.247 . S
C325 O335 1.272 . S
O326 Co322 2.004 . S
O326 C331 1.259 . S
Co327 O328 2.061 . S
Co327 O333 2.052 . S
Co327 O335 2.135 . S
O328 Co327 2.061 . S
O328 C331 1.235 . S
C329 O332 1.238 . S
C329 O333 1.241 . S
C330 O323 1.247 . S
C330 O324 1.261 . S
C331 O326 1.259 . S
C331 O328 1.235 . S
O332 Co322 2.021 . S
O332 C329 1.238 . S
O333 Co327 2.052 . S
O333 C329 1.241 . S
O334 Co322 2.137 . S
O334 C325 1.247 . S
O335 Co322 2.244 . S
O335 C325 1.272 . S
O335 Co327 2.135 . S
Tb336 C346 2.825 1_454 S
Tb336 O347 2.347 . S
Tb336 O350 2.366 . S
Tb336 O355 2.418 1_554 S
Tb336 O356 2.384 1_545 S
Tb336 O359 2.479 1_454 S
Tb336 O360 2.471 1_455 S
Eu337 O348 2.418 . S
Eu337 O349 2.384 . S
Eu337 O352 2.479 . S
Eu337 O353 2.471 . S
Eu337 O354 2.347 . S
Eu337 O357 2.366 . S
Eu337 C367 2.825 . S
C338 O354 1.259 1_556 S
C338 O355 1.265 . S
C339 O356 1.255 . S
C339 O357 1.265 1_565 S
C340 C342 1.380 . S
C340 C343 1.374 1_556 S
C340 C346 1.507 . S
C341 C342 1.384 . S
C341 C345 1.387 . S
C341 H368 0.930 . S
C342 C340 1.380 . S
C342 C341 1.384 . S
C342 H369 0.931 . S
C343 C340 1.374 1_554 S
C343 C344 1.390 1_554 S
C343 H370 0.930 . S
C344 C343 1.390 1_556 S
C344 C345 1.391 . S
C344 H371 0.930 1_556 S
C345 C341 1.387 . S
C345 C344 1.391 . S
C346 Tb336 2.825 1_656 S
C346 C340 1.507 . S
C346 O359 1.238 . S
C346 O360 1.247 1_556 S
O347 Tb336 2.347 . S
O347 C351 1.259 . S
O348 Eu337 2.418 . S
O348 C351 1.265 . S
O349 Eu337 2.384 . S
O349 C358 1.255 . S
O350 Tb336 2.366 . S
O350 C358 1.265 . S
C351 O347 1.259 . S
C351 O348 1.265 . S
O352 Eu337 2.479 . S
O352 C367 1.238 . S
O353 Eu337 2.471 . S
O353 C367 1.247 . S
O354 Eu337 2.347 . S
O354 C338 1.259 1_554 S
O355 Tb336 2.418 1_556 S
O355 C338 1.265 . S
O356 Tb336 2.384 1_565 S
O356 C339 1.255 . S
O357 Eu337 2.366 . S
O357 C339 1.265 1_545 S
C358 O349 1.255 . S
C358 O350 1.265 . S
O359 Tb336 2.479 1_656 S
O359 C346 1.238 . S
O360 Tb336 2.471 1_655 S
O360 C346 1.247 1_554 S
C361 C364 1.380 . S
C361 C365 1.374 . S
C361 C367 1.507 . S
C362 C363 1.387 . S
C362 C366 1.391 1_545 S
C363 C362 1.387 . S
C363 C364 1.384 . S
C363 H372 0.930 . S
C364 C361 1.380 . S
C364 C363 1.384 . S
C364 H373 0.931 . S
C365 C361 1.374 . S
C365 C366 1.390 1_545 S
C365 H374 0.930 . S
C366 C362 1.391 1_565 S
C366 C365 1.390 1_565 S
C366 H375 0.930 . S
C367 Eu337 2.825 . S
C367 O352 1.238 . S
C367 O353 1.247 . S
C367 C361 1.507 . S
H368 C341 0.930 . S
H369 C342 0.931 . S
H370 C343 0.930 . S
H371 C344 0.930 1_554 S
H372 C363 0.930 . S
H373 C364 0.931 . S
H374 C365 0.930 . S
H375 C366 0.930 . S
Tb376 C386 2.825 . S
Tb376 O387 2.347 . S
Tb376 O390 2.366 . S
Tb376 O395 2.418 . S
Tb376 O396 2.384 . S
Tb376 O399 2.479 . S
Tb376 O400 2.471 . S
Eu377 O388 2.418 . S
Eu377 O389 2.384 . S
Eu377 O392 2.479 . S
Eu377 O393 2.471 . S
Eu377 O394 2.347 . S
Eu377 O397 2.366 . S
Eu377 C407 2.825 . S
C378 O394 1.259 . S
C378 O395 1.265 . S
C379 O396 1.255 . S
C379 O397 1.265 . S
C380 C382 1.380 . S
C380 C383 1.374 . S
C380 C386 1.507 . S
C381 C382 1.384 . S
C381 C385 1.387 . S
C381 H408 0.930 . S
C382 C380 1.380 . S
C382 C381 1.384 . S
C382 H409 0.931 . S
C383 C380 1.374 . S
C383 C384 1.390 . S
C383 H410 0.930 . S
C384 C383 1.390 . S
C384 C385 1.391 . S
C384 H411 0.930 . S
C385 C381 1.387 . S
C385 C384 1.391 . S
C386 Tb376 2.825 . S
C386 C380 1.507 . S
C386 O399 1.238 . S
C386 O400 1.247 . S
O387 Tb376 2.347 . S
O387 C391 1.259 . S
O388 Eu377 2.418 . S
O388 C391 1.265 . S
O389 Eu377 2.384 . S
O389 C398 1.255 . S
O390 Tb376 2.366 . S
O390 C398 1.265 . S
C391 O387 1.259 . S
C391 O388 1.265 . S
O392 Eu377 2.479 . S
O392 C407 1.238 . S
O393 Eu377 2.471 . S
O393 C407 1.247 . S
O394 Eu377 2.347 . S
O394 C378 1.259 . S
O395 Tb376 2.418 . S
O395 C378 1.265 . S
O396 Tb376 2.384 . S
O396 C379 1.255 . S
O397 Eu377 2.366 . S
O397 C379 1.265 . S
C398 O389 1.255 . S
C398 O390 1.265 . S
O399 Tb376 2.479 . S
O399 C386 1.238 . S
O400 Tb376 2.471 . S
O400 C386 1.247 . S
C401 C404 1.380 . S
C401 C405 1.374 . S
C401 C407 1.507 . S
C402 C403 1.387 . S
C402 C406 1.391 . S
C403 C402 1.387 . S
C403 C404 1.384 . S
C403 H412 0.930 . S
C404 C401 1.380 . S
C404 C403 1.384 . S
C404 H413 0.931 . S
C405 C401 1.374 . S
C405 C406 1.390 . S
C405 H414 0.930 . S
C406 C402 1.391 . S
C406 C405 1.390 . S
C406 H415 0.930 . S
C407 Eu377 2.825 . S
C407 O392 1.238 . S
C407 O393 1.247 . S
C407 C401 1.507 . S
H408 C381 0.930 . S
H409 C382 0.931 . S
H410 C383 0.930 . S
H411 C384 0.930 . S
H412 C403 0.930 . S
H413 C404 0.931 . S
H414 C405 0.930 . S
H415 C406 0.930 . S
Tb416 C426 2.779 1_545 S
Tb416 O427 2.380 . S
Tb416 O430 2.353 1_545 S
Tb416 O435 2.413 . S
Tb416 O436 2.426 . S
Tb416 O439 2.428 1_545 S
Tb416 O440 2.439 1_545 S
Eu417 O428 2.418 . S
Eu417 O429 2.384 . S
Eu417 O432 2.479 . S
Eu417 O433 2.471 . S
Eu417 O434 2.347 . S
Eu417 O437 2.366 . S
Eu417 C447 2.825 . S
C418 O434 1.259 . S
C418 O435 1.265 . S
C419 O436 1.255 . S
C419 O437 1.265 . S
C420 C422 1.380 . S
C420 C423 1.374 . S
C420 C426 1.507 . S
C421 C422 1.384 . S
C421 C425 1.387 . S
C421 H448 0.930 . S
C422 C420 1.380 . S
C422 C421 1.384 . S
C422 H449 0.931 . S
C423 C420 1.374 . S
C423 C424 1.390 . S
C423 H450 0.930 . S
C424 C423 1.390 . S
C424 C425 1.391 . S
C424 H451 0.930 . S
C425 C421 1.387 . S
C425 C424 1.391 . S
C426 Tb416 2.779 1_565 S
C426 C420 1.507 . S
C426 O439 1.238 . S
C426 O440 1.247 . S
O427 Tb416 2.380 . S
O427 C431 1.259 . S
O428 Eu417 2.418 . S
O428 C431 1.265 . S
O429 Eu417 2.384 . S
O429 C438 1.255 . S
O430 Tb416 2.353 1_565 S
O430 C438 1.265 1_565 S
C431 O427 1.259 . S
C431 O428 1.265 . S
O432 Eu417 2.479 . S
O432 C447 1.238 . S
O433 Eu417 2.471 . S
O433 C447 1.247 . S
O434 Eu417 2.347 . S
O434 C418 1.259 . S
O435 Tb416 2.413 . S
O435 C418 1.265 . S
O436 Tb416 2.426 . S
O436 C419 1.255 . S
O437 Eu417 2.366 . S
O437 C419 1.265 . S
C438 O429 1.255 . S
C438 O430 1.265 1_545 S
O439 Tb416 2.428 1_565 S
O439 C426 1.238 . S
O440 Tb416 2.439 1_565 S
O440 C426 1.247 . S
C441 C444 1.380 . S
C441 C445 1.374 . S
C441 C447 1.507 . S
C442 C443 1.387 . S
C442 C446 1.391 . S
C443 C442 1.387 . S
C443 C444 1.384 . S
C443 H452 0.930 . S
C444 C441 1.380 . S
C444 C443 1.384 . S
C444 H453 0.931 . S
C445 C441 1.374 . S
C445 C446 1.390 . S
C445 H454 0.930 . S
C446 C442 1.391 . S
C446 C445 1.390 . S
C446 H455 0.930 . S
C447 Eu417 2.825 . S
C447 O432 1.238 . S
C447 O433 1.247 . S
C447 C441 1.507 . S
H448 C421 0.930 . S
H449 C422 0.931 . S
H450 C423 0.930 . S
H451 C424 0.930 . S
H452 C443 0.930 . S
H453 C444 0.931 . S
H454 C445 0.930 . S
H455 C446 0.930 . S
Tb456 C466 2.825 . S
Tb456 O467 2.347 . S
Tb456 O470 2.366 . S
Tb456 O475 2.418 . S
Tb456 O476 2.384 . S
Tb456 O479 2.479 . S
Tb456 O480 2.471 . S
Eu457 O468 2.418 . S
Eu457 O469 2.384 . S
Eu457 O472 2.479 . S
Eu457 O473 2.471 . S
Eu457 O474 2.347 . S
Eu457 O477 2.366 . S
Eu457 C487 2.825 . S
C458 O474 1.259 . S
C458 O475 1.265 . S
C459 O476 1.255 . S
C459 O477 1.265 . S
C460 C462 1.380 . S
C460 C463 1.374 . S
C460 C466 1.507 . S
C461 C462 1.384 . S
C461 C465 1.387 . S
C461 H488 0.930 . S
C462 C460 1.380 . S
C462 C461 1.384 . S
C462 H489 0.931 . S
C463 C460 1.374 . S
C463 C464 1.390 . S
C463 H490 0.930 . S
C464 C463 1.390 . S
C464 C465 1.391 . S
C464 H491 0.930 . S
C465 C461 1.387 . S
C465 C464 1.391 . S
C466 Tb456 2.825 . S
C466 C460 1.507 . S
C466 O479 1.238 . S
C466 O480 1.247 . S
O467 Tb456 2.347 . S
O467 C471 1.259 . S
O468 Eu457 2.418 . S
O468 C471 1.265 . S
O469 Eu457 2.384 . S
O469 C478 1.255 . S
O470 Tb456 2.366 . S
O470 C478 1.265 . S
C471 O467 1.259 . S
C471 O468 1.265 . S
O472 Eu457 2.479 . S
O472 C487 1.238 . S
O473 Eu457 2.471 . S
O473 C487 1.247 . S
O474 Eu457 2.347 . S
O474 C458 1.259 . S
O475 Tb456 2.418 . S
O475 C458 1.265 . S
O476 Tb456 2.384 . S
O476 C459 1.255 . S
O477 Eu457 2.366 . S
O477 C459 1.265 . S
C478 O469 1.255 . S
C478 O470 1.265 . S
O479 Tb456 2.479 . S
O479 C466 1.238 . S
O480 Tb456 2.471 . S
O480 C466 1.247 . S
C481 C484 1.380 . S
C481 C485 1.374 . S
C481 C487 1.507 . S
C482 C483 1.387 . S
C482 C486 1.391 . S
C483 C482 1.387 . S
C483 C484 1.384 . S
C483 H492 0.930 . S
C484 C481 1.380 . S
C484 C483 1.384 . S
C484 H493 0.931 . S
C485 C481 1.374 . S
C485 C486 1.390 . S
C485 H494 0.930 . S
C486 C482 1.391 . S
C486 C485 1.390 . S
C486 H495 0.930 . S
C487 Eu457 2.825 . S
C487 O472 1.238 . S
C487 O473 1.247 . S
C487 C481 1.507 . S
H488 C461 0.930 . S
H489 C462 0.931 . S
H490 C463 0.930 . S
H491 C464 0.930 . S
H492 C483 0.930 . S
H493 C484 0.931 . S
H494 C485 0.930 . S
H495 C486 0.930 . S
Tb496 C506 2.825 . S
Tb496 O507 2.347 . S
Tb496 O510 2.366 . S
Tb496 O515 2.418 . S
Tb496 O516 2.384 1_545 S
Tb496 O519 2.479 . S
Tb496 O520 2.471 . S
Eu497 O508 2.418 . S
Eu497 O509 2.384 . S
Eu497 O512 2.479 . S
Eu497 O513 2.471 . S
Eu497 O514 2.347 . S
Eu497 O517 2.366 . S
Eu497 C527 2.825 . S
C498 O514 1.259 . S
C498 O515 1.265 . S
C499 O516 1.255 . S
C499 O517 1.265 1_565 S
C500 C502 1.380 . S
C500 C503 1.374 1_455 S
C500 C506 1.507 . S
C501 C502 1.384 . S
C501 C505 1.341 1_455 S
C501 H528 0.930 . S
C502 C500 1.380 . S
C502 C501 1.384 . S
C502 H529 0.931 . S
C503 C500 1.374 1_655 S
C503 C504 1.390 . S
C503 H530 0.930 . S
C504 C503 1.390 . S
C504 C505 1.422 . S
C504 H531 0.930 . S
C505 C501 1.341 1_655 S
C505 C504 1.422 . S
C506 Tb496 2.825 . S
C506 C500 1.507 . S
C506 O519 1.238 . S
C506 O520 1.247 . S
O507 Tb496 2.347 . S
O507 C511 1.259 . S
O508 Eu497 2.418 . S
O508 C511 1.265 . S
O509 Eu497 2.384 . S
O509 C518 1.255 . S
O510 Tb496 2.366 . S
O510 C518 1.265 . S
C511 O507 1.259 . S
C511 O508 1.265 . S
O512 Eu497 2.479 . S
O512 C527 1.238 . S
O513 Eu497 2.471 . S
O513 C527 1.247 . S
O514 Eu497 2.347 . S
O514 C498 1.259 . S
O515 Tb496 2.418 . S
O515 C498 1.265 . S
O516 Tb496 2.384 1_565 S
O516 C499 1.255 . S
O517 Eu497 2.366 . S
O517 C499 1.265 1_545 S
C518 O509 1.255 . S
C518 O510 1.265 . S
O519 Tb496 2.479 . S
O519 C506 1.238 . S
O520 Tb496 2.471 . S
O520 C506 1.247 . S
C521 C524 1.380 . S
C521 C525 1.374 . S
C521 C527 1.507 . S
C522 C523 1.387 . S
C522 C526 1.391 . S
C523 C522 1.387 . S
C523 C524 1.384 . S
C523 H532 0.930 . S
C524 C521 1.380 . S
C524 C523 1.384 . S
C524 H533 0.931 . S
C525 C521 1.374 . S
C525 C526 1.390 . S
C525 H534 0.930 . S
C526 C522 1.391 . S
C526 C525 1.390 . S
C526 H535 0.930 . S
C527 Eu497 2.825 . S
C527 O512 1.238 . S
C527 O513 1.247 . S
C527 C521 1.507 . S
H528 C501 0.930 . S
H529 C502 0.931 . S
H530 C503 0.930 . S
H531 C504 0.930 . S
H532 C523 0.930 . S
H533 C524 0.931 . S
H534 C525 0.930 . S
H535 C526 0.930 . S
Tb536 C546 2.825 . S
Tb536 O547 2.347 . S
Tb536 O550 2.366 . S
Tb536 O555 2.418 . S
Tb536 O556 2.384 . S
Tb536 O559 2.479 . S
Tb536 O560 2.471 . S
Eu537 O548 2.418 . S
Eu537 O549 2.384 . S
Eu537 O552 2.479 . S
Eu537 O553 2.471 . S
Eu537 O554 2.347 . S
Eu537 O557 2.366 . S
Eu537 C567 2.825 . S
C538 O554 1.259 . S
C538 O555 1.265 . S
C539 O556 1.255 . S
C539 O557 1.265 . S
C540 C542 1.380 . S
C540 C543 1.374 . S
C540 C546 1.507 . S
C541 C542 1.384 . S
C541 C545 1.387 . S
C541 H568 0.930 . S
C542 C540 1.380 . S
C542 C541 1.384 . S
C542 H569 0.931 . S
C543 C540 1.374 . S
C543 C544 1.390 . S
C543 H570 0.930 . S
C544 C543 1.390 . S
C544 C545 1.391 . S
C544 H571 0.930 . S
C545 C541 1.387 . S
C545 C544 1.391 . S
C546 Tb536 2.825 . S
C546 C540 1.507 . S
C546 O559 1.238 . S
C546 O560 1.247 . S
O547 Tb536 2.347 . S
O547 C551 1.259 . S
O548 Eu537 2.418 . S
O548 C551 1.265 . S
O549 Eu537 2.384 . S
O549 C558 1.255 . S
O550 Tb536 2.366 . S
O550 C558 1.265 . S
C551 O547 1.259 . S
C551 O548 1.265 . S
O552 Eu537 2.479 . S
O552 C567 1.238 . S
O553 Eu537 2.471 . S
O553 C567 1.247 . S
O554 Eu537 2.347 . S
O554 C538 1.259 . S
O555 Tb536 2.418 . S
O555 C538 1.265 . S
O556 Tb536 2.384 . S
O556 C539 1.255 . S
O557 Eu537 2.366 . S
O557 C539 1.265 . S
C558 O549 1.255 . S
C558 O550 1.265 . S
O559 Tb536 2.479 . S
O559 C546 1.238 . S
O560 Tb536 2.471 . S
O560 C546 1.247 . S
C561 C564 1.380 . S
C561 C565 1.374 . S
C561 C567 1.507 . S
C562 C563 1.387 . S
C562 C566 1.391 . S
C563 C562 1.387 . S
C563 C564 1.384 . S
C563 H572 0.930 . S
C564 C561 1.380 . S
C564 C563 1.384 . S
C564 H573 0.931 . S
C565 C561 1.374 . S
C565 C566 1.390 . S
C565 H574 0.930 . S
C566 C562 1.391 . S
C566 C565 1.390 . S
C566 H575 0.930 . S
C567 Eu537 2.825 . S
C567 O552 1.238 . S
C567 O553 1.247 . S
C567 C561 1.507 . S
H568 C541 0.930 . S
H569 C542 0.931 . S
H570 C543 0.930 . S
H571 C544 0.930 . S
H572 C563 0.930 . S
H573 C564 0.931 . S
H574 C565 0.930 . S
H575 C566 0.930 . S
Tb576 C586 2.825 . S
Tb576 O587 2.347 . S
Tb576 O590 2.366 . S
Tb576 O595 2.418 1_545 S
Tb576 O596 2.384 . S
Tb576 O599 2.479 . S
Tb576 O600 2.471 . S
Eu577 O588 2.418 1_556 S
Eu577 O589 2.384 1_556 S
Eu577 O592 2.479 . S
Eu577 O593 2.471 . S
Eu577 O594 2.347 1_556 S
Eu577 O597 2.366 . S
Eu577 C607 2.825 . S
C578 O594 1.259 1_565 S
C578 O595 1.265 . S
C579 O596 1.255 . S
C579 O597 1.265 1_554 S
C580 C582 1.347 1_545 S
C580 C583 1.374 . S
C580 C586 1.507 . S
C581 C582 1.390 . S
C581 C585 1.387 1_565 S
C581 H608 0.930 . S
C582 C580 1.347 1_565 S
C582 C581 1.390 . S
C582 H609 0.959 . S
C583 C580 1.374 . S
C583 C584 1.390 . S
C583 H610 0.930 . S
C584 C583 1.390 . S
C584 C585 1.391 . S
C584 H611 0.930 . S
C585 C581 1.387 1_545 S
C585 C584 1.391 . S
C586 Tb576 2.825 . S
C586 C580 1.507 . S
C586 O599 1.238 . S
C586 O600 1.247 . S
O587 Tb576 2.347 . S
O587 C591 1.259 . S
O588 Eu577 2.418 1_554 S
O588 C591 1.265 . S
O589 Eu577 2.384 1_554 S
O589 C598 1.255 . S
O590 Tb576 2.366 . S
O590 C598 1.265 . S
C591 O587 1.259 . S
C591 O588 1.265 . S
O592 Eu577 2.479 . S
O592 C607 1.238 . S
O593 Eu577 2.471 . S
O593 C607 1.247 . S
O594 Eu577 2.347 1_554 S
O594 C578 1.259 1_545 S
O595 Tb576 2.418 1_565 S
O595 C578 1.265 . S
O596 Tb576 2.384 . S
O596 C579 1.255 . S
O597 Eu577 2.366 . S
O597 C579 1.265 1_556 S
C598 O589 1.255 . S
C598 O590 1.265 . S
O599 Tb576 2.479 . S
O599 C586 1.238 . S
O600 Tb576 2.471 . S
O600 C586 1.247 . S
C601 C604 1.380 . S
C601 C605 1.374 . S
C601 C607 1.507 . S
C602 C603 1.387 . S
C602 C606 1.391 . S
C603 C602 1.387 . S
C603 C604 1.384 . S
C603 H612 0.930 . S
C604 C601 1.380 . S
C604 C603 1.384 . S
C604 H613 0.931 . S
C605 C601 1.374 . S
C605 C606 1.390 . S
C605 H614 0.930 . S
C606 C602 1.391 . S
C606 C605 1.390 . S
C606 H615 0.930 . S
C607 Eu577 2.825 . S
C607 O592 1.238 . S
C607 O593 1.247 . S
C607 C601 1.507 . S
H608 C581 0.930 . S
H609 C582 0.959 . S
H610 C583 0.930 . S
H611 C584 0.930 . S
H612 C603 0.930 . S
H613 C604 0.931 . S
H614 C605 0.930 . S
H615 C606 0.930 . S
Tb616 C626 2.825 . S
Tb616 O627 2.347 . S
Tb616 O630 2.366 . S
Tb616 O635 2.418 . S
Tb616 O636 2.384 . S
Tb616 O639 2.479 . S
Tb616 O640 2.471 . S
Eu617 O628 2.418 . S
Eu617 O629 2.384 . S
Eu617 O632 2.479 . S
Eu617 O633 2.471 . S
Eu617 O634 2.347 . S
Eu617 O637 2.366 . S
Eu617 C647 2.825 . S
C618 O634 1.259 . S
C618 O635 1.265 . S
C619 O636 1.255 . S
C619 O637 1.265 . S
C620 C622 1.380 . S
C620 C623 1.374 . S
C620 C626 1.507 . S
C621 C622 1.384 . S
C621 C625 1.387 . S
C621 H648 0.930 . S
C622 C620 1.380 . S
C622 C621 1.384 . S
C622 H649 0.931 . S
C623 C620 1.374 . S
C623 C624 1.390 . S
C623 H650 0.930 . S
C624 C623 1.390 . S
C624 C625 1.391 . S
C624 H651 0.930 . S
C625 C621 1.387 . S
C625 C624 1.391 . S
C626 Tb616 2.825 . S
C626 C620 1.507 . S
C626 O639 1.238 . S
C626 O640 1.247 . S
O627 Tb616 2.347 . S
O627 C631 1.259 . S
O628 Eu617 2.418 . S
O628 C631 1.265 . S
O629 Eu617 2.384 . S
O629 C638 1.255 . S
O630 Tb616 2.366 . S
O630 C638 1.265 . S
C631 O627 1.259 . S
C631 O628 1.265 . S
O632 Eu617 2.479 . S
O632 C647 1.238 . S
O633 Eu617 2.471 . S
O633 C647 1.247 . S
O634 Eu617 2.347 . S
O634 C618 1.259 . S
O635 Tb616 2.418 . S
O635 C618 1.265 . S
O636 Tb616 2.384 . S
O636 C619 1.255 . S
O637 Eu617 2.366 . S
O637 C619 1.265 . S
C638 O629 1.255 . S
C638 O630 1.265 . S
O639 Tb616 2.479 . S
O639 C626 1.238 . S
O640 Tb616 2.471 . S
O640 C626 1.247 . S
C641 C644 1.380 . S
C641 C645 1.374 . S
C641 C647 1.507 . S
C642 C643 1.387 . S
C642 C646 1.391 . S
C643 C642 1.387 . S
C643 C644 1.384 . S
C643 H652 0.930 . S
C644 C641 1.380 . S
C644 C643 1.384 . S
C644 H653 0.931 . S
C645 C641 1.374 . S
C645 C646 1.390 . S
C645 H654 0.930 . S
C646 C642 1.391 . S
C646 C645 1.390 . S
C646 H655 0.930 . S
C647 Eu617 2.825 . S
C647 O632 1.238 . S
C647 O633 1.247 . S
C647 C641 1.507 . S
H648 C621 0.930 . S
H649 C622 0.931 . S
H650 C623 0.930 . S
H651 C624 0.930 . S
H652 C643 0.930 . S
H653 C644 0.931 . S
H654 C645 0.930 . S
H655 C646 0.930 . S
Tb656 C666 2.825 . S
Tb656 O667 2.347 1_556 S
Tb656 O670 2.366 . S
Tb656 O675 2.418 . S
Tb656 O676 2.384 1_556 S
Tb656 O679 2.479 . S
Tb656 O680 2.471 . S
Eu657 O668 2.418 . S
Eu657 O669 2.384 . S
Eu657 O672 2.479 . S
Eu657 O673 2.471 . S
Eu657 O674 2.347 . S
Eu657 O677 2.366 . S
Eu657 C687 2.825 . S
C658 O674 1.259 . S
C658 O675 1.265 1_554 S
C659 O676 1.255 . S
C659 O677 1.265 . S
C660 C662 1.380 . S
C660 C663 1.374 . S
C660 C666 1.507 . S
C661 C662 1.384 . S
C661 C665 1.387 . S
C661 H688 0.930 . S
C662 C660 1.380 . S
C662 C661 1.384 . S
C662 H689 0.931 . S
C663 C660 1.374 . S
C663 C664 1.390 . S
C663 H690 0.930 . S
C664 C663 1.390 . S
C664 C665 1.391 . S
C664 H691 0.930 . S
C665 C661 1.387 . S
C665 C664 1.391 . S
C666 Tb656 2.825 . S
C666 C660 1.507 . S
C666 O679 1.238 . S
C666 O680 1.247 . S
O667 Tb656 2.347 1_554 S
O667 C671 1.259 . S
O668 Eu657 2.418 . S
O668 C671 1.265 . S
O669 Eu657 2.384 . S
O669 C678 1.255 . S
O670 Tb656 2.366 . S
O670 C678 1.265 1_556 S
C671 O667 1.259 . S
C671 O668 1.265 . S
O672 Eu657 2.479 . S
O672 C687 1.238 . S
O673 Eu657 2.471 . S
O673 C687 1.247 . S
O674 Eu657 2.347 . S
O674 C658 1.259 . S
O675 Tb656 2.418 . S
O675 C658 1.265 1_556 S
O676 Tb656 2.384 1_554 S
O676 C659 1.255 . S
O677 Eu657 2.366 . S
O677 C659 1.265 . S
C678 O669 1.255 . S
C678 O670 1.265 1_554 S
O679 Tb656 2.479 . S
O679 C666 1.238 . S
O680 Tb656 2.471 . S
O680 C666 1.247 . S
C681 C684 1.380 . S
C681 C685 1.374 . S
C681 C687 1.507 . S
C682 C683 1.387 . S
C682 C686 1.391 . S
C683 C682 1.387 . S
C683 C684 1.384 . S
C683 H692 0.930 . S
C684 C681 1.380 . S
C684 C683 1.384 . S
C684 H693 0.931 . S
C685 C681 1.374 . S
C685 C686 1.390 . S
C685 H694 0.930 . S
C686 C682 1.391 . S
C686 C685 1.390 . S
C686 H695 0.930 . S
C687 Eu657 2.825 . S
C687 O672 1.238 . S
C687 O673 1.247 . S
C687 C681 1.507 . S
H688 C661 0.930 . S
H689 C662 0.931 . S
H690 C663 0.930 . S
H691 C664 0.930 . S
H692 C683 0.930 . S
H693 C684 0.931 . S
H694 C685 0.930 . S
H695 C686 0.930 . S
Tb696 C706 2.825 . S
Tb696 O707 2.347 . S
Tb696 O710 2.366 . S
Tb696 O715 2.418 . S
Tb696 O716 2.384 . S
Tb696 O719 2.479 . S
Tb696 O720 2.471 . S
Eu697 O708 2.418 . S
Eu697 O709 2.384 . S
Eu697 O712 2.479 . S
Eu697 O713 2.471 . S
Eu697 O714 2.347 . S
Eu697 O717 2.366 . S
Eu697 C727 2.825 . S
C698 O714 1.259 . S
C698 O715 1.265 . S
C699 O716 1.255 . S
C699 O717 1.265 . S
C700 C702 1.380 . S
C700 C703 1.374 . S
C700 C706 1.507 . S
C701 C702 1.384 . S
C701 C705 1.387 . S
C701 H728 0.930 . S
C702 C700 1.380 . S
C702 C701 1.384 . S
C702 H729 0.931 . S
C703 C700 1.374 . S
C703 C704 1.390 . S
C703 H730 0.930 . S
C704 C703 1.390 . S
C704 C705 1.391 . S
C704 H731 0.930 . S
C705 C701 1.387 . S
C705 C704 1.391 . S
C706 Tb696 2.825 . S
C706 C700 1.507 . S
C706 O719 1.238 . S
C706 O720 1.247 . S
O707 Tb696 2.347 . S
O707 C711 1.259 . S
O708 Eu697 2.418 . S
O708 C711 1.265 . S
O709 Eu697 2.384 . S
O709 C718 1.255 . S
O710 Tb696 2.366 . S
O710 C718 1.265 . S
C711 O707 1.259 . S
C711 O708 1.265 . S
O712 Eu697 2.479 . S
O712 C727 1.238 . S
O713 Eu697 2.471 . S
O713 C727 1.247 . S
O714 Eu697 2.347 . S
O714 C698 1.259 . S
O715 Tb696 2.418 . S
O715 C698 1.265 . S
O716 Tb696 2.384 . S
O716 C699 1.255 . S
O717 Eu697 2.366 . S
O717 C699 1.265 . S
C718 O709 1.255 . S
C718 O710 1.265 . S
O719 Tb696 2.479 . S
O719 C706 1.238 . S
O720 Tb696 2.471 . S
O720 C706 1.247 . S
C721 C724 1.380 . S
C721 C725 1.374 . S
C721 C727 1.507 . S
C722 C723 1.387 . S
C722 C726 1.391 . S
C723 C722 1.387 . S
C723 C724 1.384 . S
C723 H732 0.930 . S
C724 C721 1.380 . S
C724 C723 1.384 . S
C724 H733 0.931 . S
C725 C721 1.374 . S
C725 C726 1.390 . S
C725 H734 0.930 . S
C726 C722 1.391 . S
C726 C725 1.390 . S
C726 H735 0.930 . S
C727 Eu697 2.825 . S
C727 O712 1.238 . S
C727 O713 1.247 . S
C727 C721 1.507 . S
H728 C701 0.930 . S
H729 C702 0.931 . S
H730 C703 0.930 . S
H731 C704 0.930 . S
H732 C723 0.930 . S
H733 C724 0.931 . S
H734 C725 0.930 . S
H735 C726 0.930 . S
Tb736 C746 2.825 . S
Tb736 O747 2.347 . S
Tb736 O750 2.366 . S
Tb736 O755 2.418 . S
Tb736 O756 2.384 . S
Tb736 O759 2.479 . S
Tb736 O760 2.471 . S
Eu737 O748 2.418 . S
Eu737 O749 2.384 . S
Eu737 O752 2.479 . S
Eu737 O753 2.471 . S
Eu737 O754 2.347 . S
Eu737 O757 2.366 . S
Eu737 C767 2.825 . S
C738 O754 1.259 . S
C738 O755 1.265 . S
C739 O756 1.255 . S
C739 O757 1.265 . S
C740 C742 1.380 . S
C740 C743 1.374 . S
C740 C746 1.507 . S
C741 C742 1.384 . S
C741 C745 1.387 . S
C741 H768 0.930 . S
C742 C740 1.380 . S
C742 C741 1.384 . S
C742 H769 0.931 . S
C743 C740 1.374 . S
C743 C744 1.390 . S
C743 H770 0.930 . S
C744 C743 1.390 . S
C744 C745 1.391 . S
C744 H771 0.926 1_455 S
C745 C741 1.387 . S
C745 C744 1.391 . S
C746 Tb736 2.825 . S
C746 C740 1.507 . S
C746 O759 1.238 . S
C746 O760 1.247 . S
O747 Tb736 2.347 . S
O747 C751 1.259 . S
O748 Eu737 2.418 . S
O748 C751 1.265 . S
O749 Eu737 2.384 . S
O749 C758 1.255 . S
O750 Tb736 2.366 . S
O750 C758 1.265 . S
C751 O747 1.259 . S
C751 O748 1.265 . S
O752 Eu737 2.479 . S
O752 C767 1.238 . S
O753 Eu737 2.471 . S
O753 C767 1.247 . S
O754 Eu737 2.347 . S
O754 C738 1.259 . S
O755 Tb736 2.418 . S
O755 C738 1.265 . S
O756 Tb736 2.384 . S
O756 C739 1.255 . S
O757 Eu737 2.366 . S
O757 C739 1.265 . S
C758 O749 1.255 . S
C758 O750 1.265 . S
O759 Tb736 2.479 . S
O759 C746 1.238 . S
O760 Tb736 2.471 . S
O760 C746 1.247 . S
C761 C764 1.380 . S
C761 C765 1.374 . S
C761 C767 1.507 . S
C762 C763 1.387 . S
C762 C766 1.391 . S
C763 C762 1.387 . S
C763 C764 1.384 . S
C763 H772 0.930 . S
C764 C761 1.380 . S
C764 C763 1.384 . S
C764 H773 0.931 . S
C765 C761 1.374 . S
C765 C766 1.390 . S
C765 H774 0.930 . S
C766 C762 1.391 . S
C766 C765 1.390 . S
C766 H775 0.930 . S
C767 Eu737 2.825 . S
C767 O752 1.238 . S
C767 O753 1.247 . S
C767 C761 1.507 . S
H768 C741 0.930 . S
H769 C742 0.931 . S
H770 C743 0.930 . S
H771 C744 0.926 1_655 S
H772 C763 0.930 . S
H773 C764 0.931 . S
H774 C765 0.930 . S
H775 C766 0.930 . S
Tb776 C786 2.825 . S
Tb776 O787 2.347 . S
Tb776 O790 2.366 . S
Tb776 O795 2.418 . S
Tb776 O796 2.384 . S
Tb776 O799 2.479 . S
Tb776 O800 2.471 . S
Eu777 O788 2.418 . S
Eu777 O789 2.384 . S
Eu777 O792 2.479 . S
Eu777 O793 2.471 . S
Eu777 O794 2.347 . S
Eu777 O797 2.366 . S
Eu777 C807 2.825 . S
C778 O794 1.259 . S
C778 O795 1.265 . S
C779 O796 1.255 . S
C779 O797 1.265 . S
C780 C782 1.380 . S
C780 C783 1.374 . S
C780 C786 1.507 . S
C781 C782 1.384 . S
C781 C785 1.387 . S
C781 H808 0.930 . S
C782 C780 1.380 . S
C782 C781 1.384 . S
C782 H809 0.931 . S
C783 C780 1.374 . S
C783 C784 1.390 . S
C783 H810 0.930 . S
C784 C783 1.390 . S
C784 C785 1.391 . S
C784 H811 0.930 . S
C785 C781 1.387 . S
C785 C784 1.391 . S
C786 Tb776 2.825 . S
C786 C780 1.507 . S
C786 O799 1.238 . S
C786 O800 1.247 . S
O787 Tb776 2.347 . S
O787 C791 1.259 . S
O788 Eu777 2.418 . S
O788 C791 1.265 . S
O789 Eu777 2.384 . S
O789 C798 1.255 . S
O790 Tb776 2.366 . S
O790 C798 1.265 . S
C791 O787 1.259 . S
C791 O788 1.265 . S
O792 Eu777 2.479 . S
O792 C807 1.238 . S
O793 Eu777 2.471 . S
O793 C807 1.247 . S
O794 Eu777 2.347 . S
O794 C778 1.259 . S
O795 Tb776 2.418 . S
O795 C778 1.265 . S
O796 Tb776 2.384 . S
O796 C779 1.255 . S
O797 Eu777 2.366 . S
O797 C779 1.265 . S
C798 O789 1.255 . S
C798 O790 1.265 . S
O799 Tb776 2.479 . S
O799 C786 1.238 . S
O800 Tb776 2.471 . S
O800 C786 1.247 . S
C801 C804 1.380 . S
C801 C805 1.374 . S
C801 C807 1.507 . S
C802 C803 1.387 . S
C802 C806 1.391 . S
C803 C802 1.387 . S
C803 C804 1.384 . S
C803 H812 0.930 . S
C804 C801 1.380 . S
C804 C803 1.384 . S
C804 H813 0.931 . S
C805 C801 1.374 . S
C805 C806 1.390 . S
C805 H814 0.930 . S
C806 C802 1.391 . S
C806 C805 1.390 . S
C806 H815 0.930 . S
C807 Eu777 2.825 . S
C807 O792 1.238 . S
C807 O793 1.247 . S
C807 C801 1.507 . S
H808 C781 0.930 . S
H809 C782 0.931 . S
H810 C783 0.930 . S
H811 C784 0.930 . S
H812 C803 0.930 . S
H813 C804 0.931 . S
H814 C805 0.930 . S
H815 C806 0.930 . S
Tb816 C826 2.825 . S
Tb816 O827 2.347 . S
Tb816 O830 2.366 . S
Tb816 O835 2.418 . S
Tb816 O836 2.384 . S
Tb816 O839 2.479 . S
Tb816 O840 2.471 . S
Eu817 O828 2.418 . S
Eu817 O829 2.384 . S
Eu817 O832 2.479 . S
Eu817 O833 2.471 . S
Eu817 O834 2.347 . S
Eu817 O837 2.366 . S
Eu817 C847 2.825 . S
C818 O834 1.259 . S
C818 O835 1.265 . S
C819 O836 1.255 . S
C819 O837 1.265 . S
C820 C822 1.380 . S
C820 C823 1.374 . S
C820 C826 1.507 . S
C821 C822 1.384 . S
C821 C825 1.387 . S
C821 H848 0.930 . S
C822 C820 1.380 . S
C822 C821 1.384 . S
C822 H849 0.931 . S
C823 C820 1.374 . S
C823 C824 1.390 . S
C823 H850 0.930 . S
C824 C823 1.390 . S
C824 C825 1.391 . S
C824 H851 0.930 . S
C825 C821 1.387 . S
C825 C824 1.391 . S
C826 Tb816 2.825 . S
C826 C820 1.507 . S
C826 O839 1.238 . S
C826 O840 1.247 . S
O827 Tb816 2.347 . S
O827 C831 1.259 . S
O828 Eu817 2.418 . S
O828 C831 1.265 . S
O829 Eu817 2.384 . S
O829 C838 1.255 . S
O830 Tb816 2.366 . S
O830 C838 1.265 . S
C831 O827 1.259 . S
C831 O828 1.265 . S
O832 Eu817 2.479 . S
O832 C847 1.238 . S
O833 Eu817 2.471 . S
O833 C847 1.247 . S
O834 Eu817 2.347 . S
O834 C818 1.259 . S
O835 Tb816 2.418 . S
O835 C818 1.265 . S
O836 Tb816 2.384 . S
O836 C819 1.255 . S
O837 Eu817 2.366 . S
O837 C819 1.265 . S
C838 O829 1.255 . S
C838 O830 1.265 . S
O839 Tb816 2.479 . S
O839 C826 1.238 . S
O840 Tb816 2.471 . S
O840 C826 1.247 . S
C841 C844 1.380 . S
C841 C845 1.374 . S
C841 C847 1.507 . S
C842 C843 1.387 . S
C842 C846 1.391 . S
C843 C842 1.387 . S
C843 C844 1.384 . S
C843 H852 0.930 . S
C844 C841 1.380 . S
C844 C843 1.384 . S
C844 H853 0.931 . S
C845 C841 1.374 . S
C845 C846 1.390 . S
C845 H854 0.930 . S
C846 C842 1.391 . S
C846 C845 1.390 . S
C846 H855 0.930 . S
C847 Eu817 2.825 . S
C847 O832 1.238 . S
C847 O833 1.247 . S
C847 C841 1.507 . S
H848 C821 0.930 . S
H849 C822 0.931 . S
H850 C823 0.930 . S
H851 C824 0.930 . S
H852 C843 0.930 . S
H853 C844 0.931 . S
H854 C845 0.930 . S
H855 C846 0.930 . S
Tb856 C866 2.825 . S
Tb856 O867 2.347 . S
Tb856 O870 2.366 . S
Tb856 O875 2.418 . S
Tb856 O876 2.384 . S
Tb856 O879 2.479 . S
Tb856 O880 2.471 . S
Eu857 O868 2.418 . S
Eu857 O869 2.384 . S
Eu857 O872 2.479 . S
Eu857 O873 2.471 . S
Eu857 O874 2.347 . S
Eu857 O877 2.366 . S
Eu857 C887 2.825 . S
C858 O874 1.259 . S
C858 O875 1.265 . S
C859 O876 1.255 . S
C859 O877 1.265 . S
C860 C862 1.380 . S
C860 C863 1.374 . S
C860 C866 1.507 . S
C861 C862 1.384 . S
C861 C865 1.387 . S
C861 H888 0.930 . S
C862 C860 1.380 . S
C862 C861 1.384 . S
C862 H889 0.931 . S
C863 C860 1.374 . S
C863 C864 1.390 . S
C863 H890 0.930 . S
C864 C863 1.390 . S
C864 C865 1.391 . S
C864 H891 0.930 . S
C865 C861 1.387 . S
C865 C864 1.391 . S
C866 Tb856 2.825 . S
C866 C860 1.507 . S
C866 O879 1.238 . S
C866 O880 1.247 . S
O867 Tb856 2.347 . S
O867 C871 1.259 . S
O868 Eu857 2.418 . S
O868 C871 1.265 . S
O869 Eu857 2.384 . S
O869 C878 1.255 . S
O870 Tb856 2.366 . S
O870 C878 1.265 . S
C871 O867 1.259 . S
C871 O868 1.265 . S
O872 Eu857 2.479 . S
O872 C887 1.238 . S
O873 Eu857 2.471 . S
O873 C887 1.247 . S
O874 Eu857 2.347 . S
O874 C858 1.259 . S
O875 Tb856 2.418 . S
O875 C858 1.265 . S
O876 Tb856 2.384 . S
O876 C859 1.255 . S
O877 Eu857 2.366 . S
O877 C859 1.265 . S
C878 O869 1.255 . S
C878 O870 1.265 . S
O879 Tb856 2.479 . S
O879 C866 1.238 . S
O880 Tb856 2.471 . S
O880 C866 1.247 . S
C881 C884 1.380 . S
C881 C885 1.374 . S
C881 C887 1.507 . S
C882 C883 1.387 . S
C882 C886 1.391 . S
C883 C882 1.387 . S
C883 C884 1.384 . S
C883 H892 0.930 . S
C884 C881 1.380 . S
C884 C883 1.384 . S
C884 H893 0.931 . S
C885 C881 1.374 . S
C885 C886 1.390 . S
C885 H894 0.930 . S
C886 C882 1.391 . S
C886 C885 1.390 . S
C886 H895 0.930 . S
C887 Eu857 2.825 . S
C887 O872 1.238 . S
C887 O873 1.247 . S
C887 C881 1.507 . S
H888 C861 0.930 . S
H889 C862 0.931 . S
H890 C863 0.930 . S
H891 C864 0.930 . S
H892 C883 0.930 . S
H893 C884 0.931 . S
H894 C885 0.930 . S
H895 C886 0.930 . S
Tb896 C906 2.825 . S
Tb896 O907 2.347 . S
Tb896 O910 2.366 . S
Tb896 O915 2.418 . S
Tb896 O916 2.384 . S
Tb896 O919 2.479 . S
Tb896 O920 2.471 . S
Eu897 O908 2.418 . S
Eu897 O909 2.384 . S
Eu897 O912 2.479 . S
Eu897 O913 2.471 . S
Eu897 O914 2.347 . S
Eu897 O917 2.366 . S
Eu897 C927 2.825 . S
C898 O914 1.259 . S
C898 O915 1.265 . S
C899 O916 1.255 . S
C899 O917 1.265 . S
C900 C902 1.380 . S
C900 C903 1.374 . S
C900 C906 1.507 . S
C901 C902 1.384 . S
C901 C905 1.387 . S
C901 H928 0.930 . S
C902 C900 1.380 . S
C902 C901 1.384 . S
C902 H929 0.931 . S
C903 C900 1.374 . S
C903 C904 1.390 . S
C903 H930 0.930 . S
C904 C903 1.390 . S
C904 C905 1.391 . S
C904 H931 0.930 . S
C905 C901 1.387 . S
C905 C904 1.391 . S
C906 Tb896 2.825 . S
C906 C900 1.507 . S
C906 O919 1.238 . S
C906 O920 1.247 . S
O907 Tb896 2.347 . S
O907 C911 1.259 . S
O908 Eu897 2.418 . S
O908 C911 1.265 . S
O909 Eu897 2.384 . S
O909 C918 1.255 . S
O910 Tb896 2.366 . S
O910 C918 1.265 . S
C911 O907 1.259 . S
C911 O908 1.265 . S
O912 Eu897 2.479 . S
O912 C927 1.238 . S
O913 Eu897 2.471 . S
O913 C927 1.247 . S
O914 Eu897 2.347 . S
O914 C898 1.259 . S
O915 Tb896 2.418 . S
O915 C898 1.265 . S
O916 Tb896 2.384 . S
O916 C899 1.255 . S
O917 Eu897 2.366 . S
O917 C899 1.265 . S
C918 O909 1.255 . S
C918 O910 1.265 . S
O919 Tb896 2.479 . S
O919 C906 1.238 . S
O920 Tb896 2.471 . S
O920 C906 1.247 . S
C921 C924 1.380 . S
C921 C925 1.374 . S
C921 C927 1.507 . S
C922 C923 1.387 . S
C922 C926 1.391 . S
C923 C922 1.387 . S
C923 C924 1.384 . S
C923 H932 0.930 . S
C924 C921 1.380 . S
C924 C923 1.384 . S
C924 H933 0.931 . S
C925 C921 1.374 . S
C925 C926 1.390 . S
C925 H934 0.930 . S
C926 C922 1.391 . S
C926 C925 1.390 . S
C926 H935 0.930 . S
C927 Eu897 2.825 . S
C927 O912 1.238 . S
C927 O913 1.247 . S
C927 C921 1.507 . S
H928 C901 0.930 . S
H929 C902 0.931 . S
H930 C903 0.930 . S
H931 C904 0.930 . S
H932 C923 0.930 . S
H933 C924 0.931 . S
H934 C925 0.930 . S
H935 C926 0.930 . S
Tb936 C946 2.825 . S
Tb936 O947 2.347 1_554 S
Tb936 O950 2.366 . S
Tb936 O955 2.418 . S
Tb936 O956 2.384 . S
Tb936 O959 2.479 . S
Tb936 O960 2.471 1_554 S
Eu937 O948 2.418 1_554 S
Eu937 O949 2.384 . S
Eu937 O952 2.479 . S
Eu937 O953 2.471 . S
Eu937 O954 2.347 . S
Eu937 O957 2.366 . S
Eu937 C967 2.825 . S
C938 O954 1.259 . S
C938 O955 1.265 . S
C939 O956 1.255 . S
C939 O957 1.265 . S
C940 C942 1.380 1_556 S
C940 C943 1.374 . S
C940 C946 1.507 1_556 S
C941 C942 1.384 1_556 S
C941 C945 1.387 . S
C941 H968 0.930 1_556 S
C942 C940 1.380 1_554 S
C942 C941 1.384 1_554 S
C942 H969 0.931 . S
C943 C940 1.374 . S
C943 C944 1.390 . S
C943 H970 0.930 . S
C944 C943 1.390 . S
C944 C945 1.391 . S
C944 H971 0.930 . S
C945 C941 1.387 . S
C945 C944 1.391 . S
C946 Tb936 2.825 . S
C946 C940 1.507 1_554 S
C946 O959 1.238 . S
C946 O960 1.247 1_554 S
O947 Tb936 2.347 1_556 S
O947 C951 1.259 . S
O948 Eu937 2.418 1_556 S
O948 C951 1.265 . S
O949 Eu937 2.384 . S
O949 C958 1.255 . S
O950 Tb936 2.366 . S
O950 C958 1.265 . S
C951 O947 1.259 . S
C951 O948 1.265 . S
O952 Eu937 2.479 . S
O952 C967 1.238 . S
O953 Eu937 2.471 . S
O953 C967 1.247 . S
O954 Eu937 2.347 . S
O954 C938 1.259 . S
O955 Tb936 2.418 . S
O955 C938 1.265 . S
O956 Tb936 2.384 . S
O956 C939 1.255 . S
O957 Eu937 2.366 . S
O957 C939 1.265 . S
C958 O949 1.255 . S
C958 O950 1.265 . S
O959 Tb936 2.479 . S
O959 C946 1.238 . S
O960 Tb936 2.471 1_556 S
O960 C946 1.247 1_556 S
C961 C964 1.380 . S
C961 C965 1.374 . S
C961 C967 1.507 . S
C962 C963 1.387 . S
C962 C966 1.391 . S
C963 C962 1.387 . S
C963 C964 1.384 . S
C963 H972 0.930 . S
C964 C961 1.380 . S
C964 C963 1.384 . S
C964 H973 0.931 . S
C965 C961 1.374 . S
C965 C966 1.390 . S
C965 H974 0.930 . S
C966 C962 1.391 . S
C966 C965 1.390 . S
C966 H975 0.930 . S
C967 Eu937 2.825 . S
C967 O952 1.238 . S
C967 O953 1.247 . S
C967 C961 1.507 . S
H968 C941 0.930 1_554 S
H969 C942 0.931 . S
H970 C943 0.930 . S
H971 C944 0.930 . S
H972 C963 0.930 . S
H973 C964 0.931 . S
H974 C965 0.930 . S
H975 C966 0.930 . S
C976 C977 1.391 . S
C976 C978 1.394 . S
C976 H992 0.931 . S
C977 C976 1.391 . S
C977 C981 1.376 1_455 S
C978 C976 1.394 . S
C978 C979 1.369 . S
C978 C982 1.531 . S
C979 C978 1.369 . S
C979 C980 1.410 1_455 S
C979 C987 1.503 . S
C980 C979 1.410 1_655 S
C980 C981 1.392 . S
C980 C983 1.511 . S
C981 C977 1.376 1_655 S
C981 C980 1.392 . S
C981 H993 0.929 . S
C982 C978 1.531 . S
C982 H994 0.960 . S
C982 H995 0.962 . S
C982 H996 0.960 . S
C983 C980 1.511 . S
C983 H997 0.961 . S
C983 H998 0.961 . S
C983 H999 0.961 . S
C984 C985 1.370 1_556 S
C984 C986 1.363 . S
C984 H1000 0.931 . S
C985 C984 1.370 1_554 S
C985 C989 1.408 . S
C986 C984 1.363 . S
C986 C987 1.370 . S
C986 C990 1.524 . S
C987 C979 1.503 . S
C987 C986 1.370 . S
C987 C988 1.373 1_556 S
C988 C987 1.373 1_554 S
C988 C989 1.422 . S
C988 C991 1.552 . S
C989 C985 1.408 . S
C989 C988 1.422 . S
C989 H1001 0.930 . S
C990 C986 1.524 . S
C990 H1002 0.956 . S
C990 H1003 0.961 . S
C990 H1004 0.961 . S
C991 C988 1.552 . S
C991 H1005 0.958 . S
C991 H1006 0.961 . S
C991 H1007 0.952 1_454 S
H992 C976 0.931 . S
H993 C981 0.929 . S
H994 C982 0.960 . S
H995 C982 0.962 . S
H996 C982 0.960 . S
H997 C983 0.961 . S
H998 C983 0.961 . S
H999 C983 0.961 . S
H1000 C984 0.931 . S
H1001 C989 0.930 . S
H1002 C990 0.956 . S
H1003 C990 0.961 . S
H1004 C990 0.961 . S
H1005 C991 0.958 . S
H1006 C991 0.961 . S
H1007 C991 0.952 1_656 S
C1008 C1009 1.391 . S
C1008 C1010 1.394 . S
C1008 H1024 0.931 . S
C1009 C1008 1.391 . S
C1009 C1013 1.376 . S
C1010 C1008 1.394 . S
C1010 C1011 1.369 . S
C1010 C1014 1.531 . S
C1011 C1010 1.369 . S
C1011 C1012 1.410 . S
C1011 C1019 1.503 . S
C1012 C1011 1.410 . S
C1012 C1013 1.392 . S
C1012 C1015 1.511 . S
C1013 C1009 1.376 . S
C1013 C1012 1.392 . S
C1013 H1025 0.929 . S
C1014 C1010 1.531 . S
C1014 H1026 0.960 . S
C1014 H1027 0.962 . S
C1014 H1028 0.960 . S
C1015 C1012 1.511 . S
C1015 H1029 0.961 . S
C1015 H1030 0.961 . S
C1015 H1031 0.961 . S
C1016 C1017 1.370 . S
C1016 C1018 1.363 . S
C1016 H1032 0.931 . S
C1017 C1016 1.370 . S
C1017 C1021 1.408 . S
C1018 C1016 1.363 . S
C1018 C1019 1.370 . S
C1018 C1022 1.524 . S
C1019 C1011 1.503 . S
C1019 C1018 1.370 . S
C1019 C1020 1.403 . S
C1020 C1019 1.403 . S
C1020 C1021 1.404 . S
C1020 C1023 1.539 . S
C1021 C1017 1.408 . S
C1021 C1020 1.404 . S
C1021 H1033 0.930 . S
C1022 C1018 1.524 . S
C1022 H1034 0.956 . S
C1022 H1035 0.961 . S
C1022 H1036 0.961 . S
C1023 C1020 1.539 . S
C1023 H1037 0.958 . S
C1023 H1038 0.961 . S
C1023 H1039 0.960 . S
H1024 C1008 0.931 . S
H1025 C1013 0.929 . S
H1026 C1014 0.960 . S
H1027 C1014 0.962 . S
H1028 C1014 0.960 . S
H1029 C1015 0.961 . S
H1030 C1015 0.961 . S
H1031 C1015 0.961 . S
H1032 C1016 0.931 . S
H1033 C1021 0.930 . S
H1034 C1022 0.956 . S
H1035 C1022 0.961 . S
H1036 C1022 0.961 . S
H1037 C1023 0.958 . S
H1038 C1023 0.961 . S
H1039 C1023 0.960 . S
C1040 C1041 1.391 . S
C1040 C1042 1.394 . S
C1040 H1056 0.931 . S
C1041 C1040 1.391 . S
C1041 C1045 1.376 . S
C1042 C1040 1.394 . S
C1042 C1043 1.369 . S
C1042 C1046 1.531 . S
C1043 C1042 1.369 . S
C1043 C1044 1.410 . S
C1043 C1051 1.503 . S
C1044 C1043 1.410 . S
C1044 C1045 1.392 . S
C1044 C1047 1.511 . S
C1045 C1041 1.376 . S
C1045 C1044 1.392 . S
C1045 H1057 0.929 . S
C1046 C1042 1.531 . S
C1046 H1058 0.960 . S
C1046 H1059 0.962 . S
C1046 H1060 0.960 . S
C1047 C1044 1.511 . S
C1047 H1061 0.961 . S
C1047 H1062 0.961 . S
C1047 H1063 0.961 . S
C1048 C1049 1.370 . S
C1048 C1050 1.363 . S
C1048 H1064 0.931 . S
C1049 C1048 1.370 . S
C1049 C1053 1.408 . S
C1050 C1048 1.363 . S
C1050 C1051 1.370 . S
C1050 C1054 1.524 . S
C1051 C1043 1.503 . S
C1051 C1050 1.370 . S
C1051 C1052 1.403 . S
C1052 C1051 1.403 . S
C1052 C1053 1.404 . S
C1052 C1055 1.539 . S
C1053 C1049 1.408 . S
C1053 C1052 1.404 . S
C1053 H1065 0.930 . S
C1054 C1050 1.524 . S
C1054 H1066 0.956 . S
C1054 H1067 0.961 . S
C1054 H1068 0.961 . S
C1055 C1052 1.539 . S
C1055 H1069 0.958 . S
C1055 H1070 0.961 . S
C1055 H1071 0.960 . S
H1056 C1040 0.931 . S
H1057 C1045 0.929 . S
H1058 C1046 0.960 . S
H1059 C1046 0.962 . S
H1060 C1046 0.960 . S
H1061 C1047 0.961 . S
H1062 C1047 0.961 . S
H1063 C1047 0.961 . S
H1064 C1048 0.931 . S
H1065 C1053 0.930 . S
H1066 C1054 0.956 . S
H1067 C1054 0.961 . S
H1068 C1054 0.961 . S
H1069 C1055 0.958 . S
H1070 C1055 0.961 . S
H1071 C1055 0.960 . S
C1072 C1073 1.391 . S
C1072 C1074 1.394 . S
C1072 H1088 0.931 . S
C1073 C1072 1.391 . S
C1073 C1077 1.376 . S
C1074 C1072 1.394 . S
C1074 C1075 1.369 . S
C1074 C1078 1.531 . S
C1075 C1074 1.369 . S
C1075 C1076 1.410 . S
C1075 C1083 1.503 . S
C1076 C1075 1.410 . S
C1076 C1077 1.392 . S
C1076 C1079 1.511 . S
C1077 C1073 1.376 . S
C1077 C1076 1.392 . S
C1077 H1089 0.929 . S
C1078 C1074 1.531 . S
C1078 H1090 0.960 . S
C1078 H1091 0.962 . S
C1078 H1092 0.960 . S
C1079 C1076 1.511 . S
C1079 H1093 0.961 . S
C1079 H1094 0.961 . S
C1079 H1095 0.961 . S
C1080 C1081 1.370 . S
C1080 C1082 1.363 . S
C1080 H1096 0.931 . S
C1081 C1080 1.370 . S
C1081 C1085 1.408 . S
C1082 C1080 1.363 . S
C1082 C1083 1.370 . S
C1082 C1086 1.524 . S
C1083 C1075 1.503 . S
C1083 C1082 1.370 . S
C1083 C1084 1.403 . S
C1084 C1083 1.403 . S
C1084 C1085 1.404 . S
C1084 C1087 1.539 . S
C1085 C1081 1.408 . S
C1085 C1084 1.404 . S
C1085 H1097 0.930 . S
C1086 C1082 1.524 . S
C1086 H1098 0.956 . S
C1086 H1099 0.961 . S
C1086 H1100 0.961 . S
C1087 C1084 1.539 . S
C1087 H1101 0.958 . S
C1087 H1102 0.961 . S
C1087 H1103 0.960 . S
H1088 C1072 0.931 . S
H1089 C1077 0.929 . S
H1090 C1078 0.960 . S
H1091 C1078 0.962 . S
H1092 C1078 0.960 . S
H1093 C1079 0.961 . S
H1094 C1079 0.961 . S
H1095 C1079 0.961 . S
H1096 C1080 0.931 . S
H1097 C1085 0.930 . S
H1098 C1086 0.956 . S
H1099 C1086 0.961 . S
H1100 C1086 0.961 . S
H1101 C1087 0.958 . S
H1102 C1087 0.961 . S
H1103 C1087 0.960 . S
C1104 C1105 1.391 . S
C1104 C1106 1.394 . S
C1104 H1120 0.931 . S
C1105 C1104 1.391 . S
C1105 C1109 1.376 . S
C1106 C1104 1.394 . S
C1106 C1107 1.369 . S
C1106 C1110 1.531 . S
C1107 C1106 1.369 . S
C1107 C1108 1.410 . S
C1107 C1115 1.503 . S
C1108 C1107 1.410 . S
C1108 C1109 1.392 . S
C1108 C1111 1.511 . S
C1109 C1105 1.376 . S
C1109 C1108 1.392 . S
C1109 H1121 0.929 . S
C1110 C1106 1.531 . S
C1110 H1122 0.960 . S
C1110 H1123 0.962 . S
C1110 H1124 0.960 . S
C1111 C1108 1.511 . S
C1111 H1125 0.961 . S
C1111 H1126 0.961 . S
C1111 H1127 0.961 . S
C1112 C1113 1.370 . S
C1112 C1114 1.363 . S
C1112 H1128 0.931 . S
C1113 C1112 1.370 . S
C1113 C1117 1.408 . S
C1114 C1112 1.363 . S
C1114 C1115 1.370 . S
C1114 C1118 1.524 . S
C1115 C1107 1.503 . S
C1115 C1114 1.370 . S
C1115 C1116 1.403 . S
C1116 C1115 1.403 . S
C1116 C1117 1.404 . S
C1116 C1119 1.539 . S
C1117 C1113 1.408 . S
C1117 C1116 1.404 . S
C1117 H1129 0.930 . S
C1118 C1114 1.524 . S
C1118 H1130 0.956 . S
C1118 H1131 0.961 . S
C1118 H1132 0.961 . S
C1119 C1116 1.539 . S
C1119 H1133 0.958 . S
C1119 H1134 0.961 . S
C1119 H1135 0.960 . S
H1120 C1104 0.931 . S
H1121 C1109 0.929 . S
H1122 C1110 0.960 . S
H1123 C1110 0.962 . S
H1124 C1110 0.960 . S
H1125 C1111 0.961 . S
H1126 C1111 0.961 . S
H1127 C1111 0.961 . S
H1128 C1112 0.931 . S
H1129 C1117 0.930 . S
H1130 C1118 0.956 . S
H1131 C1118 0.961 . S
H1132 C1118 0.961 . S
H1133 C1119 0.958 . S
H1134 C1119 0.961 . S
H1135 C1119 0.960 . S
C1136 C1137 1.391 . S
C1136 C1138 1.394 . S
C1136 H1152 0.931 . S
C1137 C1136 1.391 . S
C1137 C1141 1.376 . S
C1138 C1136 1.394 . S
C1138 C1139 1.369 . S
C1138 C1142 1.531 . S
C1139 C1138 1.369 . S
C1139 C1140 1.410 . S
C1139 C1147 1.503 . S
C1140 C1139 1.410 . S
C1140 C1141 1.392 . S
C1140 C1143 1.511 . S
C1141 C1137 1.376 . S
C1141 C1140 1.392 . S
C1141 H1153 0.929 . S
C1142 C1138 1.531 . S
C1142 H1154 0.960 . S
C1142 H1155 0.962 . S
C1142 H1156 0.960 . S
C1143 C1140 1.511 . S
C1143 H1157 0.961 . S
C1143 H1158 0.961 . S
C1143 H1159 0.961 . S
C1144 C1145 1.370 . S
C1144 C1146 1.363 . S
C1144 H1160 0.931 . S
C1145 C1144 1.370 . S
C1145 C1149 1.408 . S
C1146 C1144 1.363 . S
C1146 C1147 1.370 . S
C1146 C1150 1.524 . S
C1147 C1139 1.503 . S
C1147 C1146 1.370 . S
C1147 C1148 1.403 . S
C1148 C1147 1.403 . S
C1148 C1149 1.404 . S
C1148 C1151 1.539 . S
C1149 C1145 1.408 . S
C1149 C1148 1.404 . S
C1149 H1161 0.930 . S
C1150 C1146 1.524 . S
C1150 H1162 0.956 . S
C1150 H1163 0.961 . S
C1150 H1164 0.961 . S
C1151 C1148 1.539 . S
C1151 H1165 0.958 . S
C1151 H1166 0.961 . S
C1151 H1167 0.960 . S
H1152 C1136 0.931 . S
H1153 C1141 0.929 . S
H1154 C1142 0.960 . S
H1155 C1142 0.962 . S
H1156 C1142 0.960 . S
H1157 C1143 0.961 . S
H1158 C1143 0.961 . S
H1159 C1143 0.961 . S
H1160 C1144 0.931 . S
H1161 C1149 0.930 . S
H1162 C1150 0.956 . S
H1163 C1150 0.961 . S
H1164 C1150 0.961 . S
H1165 C1151 0.958 . S
H1166 C1151 0.961 . S
H1167 C1151 0.960 . S
C1168 C1169 1.391 . S
C1168 C1170 1.394 . S
C1168 H1184 0.931 . S
C1169 C1168 1.391 . S
C1169 C1173 1.376 . S
C1170 C1168 1.394 . S
C1170 C1171 1.369 . S
C1170 C1174 1.531 . S
C1171 C1170 1.369 . S
C1171 C1172 1.410 . S
C1171 C1179 1.503 . S
C1172 C1171 1.410 . S
C1172 C1173 1.392 . S
C1172 C1175 1.511 . S
C1173 C1169 1.376 . S
C1173 C1172 1.392 . S
C1173 H1185 0.929 . S
C1174 C1170 1.531 . S
C1174 H1186 0.960 . S
C1174 H1187 0.962 . S
C1174 H1188 0.960 . S
C1175 C1172 1.511 . S
C1175 H1189 0.961 . S
C1175 H1190 0.961 . S
C1175 H1191 0.961 . S
C1176 C1177 1.370 . S
C1176 C1178 1.363 . S
C1176 H1192 0.931 . S
C1177 C1176 1.370 . S
C1177 C1181 1.408 . S
C1178 C1176 1.363 . S
C1178 C1179 1.370 . S
C1178 C1182 1.524 . S
C1179 C1171 1.503 . S
C1179 C1178 1.370 . S
C1179 C1180 1.403 . S
C1180 C1179 1.403 . S
C1180 C1181 1.404 . S
C1180 C1183 1.539 . S
C1181 C1177 1.408 . S
C1181 C1180 1.404 . S
C1181 H1193 0.930 . S
C1182 C1178 1.524 . S
C1182 H1194 0.956 . S
C1182 H1195 0.961 . S
C1182 H1196 0.961 . S
C1183 C1180 1.539 . S
C1183 H1197 0.958 . S
C1183 H1198 0.961 . S
C1183 H1199 0.960 . S
H1184 C1168 0.931 . S
H1185 C1173 0.929 . S
H1186 C1174 0.960 . S
H1187 C1174 0.962 . S
H1188 C1174 0.960 . S
H1189 C1175 0.961 . S
H1190 C1175 0.961 . S
H1191 C1175 0.961 . S
H1192 C1176 0.931 . S
H1193 C1181 0.930 . S
H1194 C1182 0.956 . S
H1195 C1182 0.961 . S
H1196 C1182 0.961 . S
H1197 C1183 0.958 . S
H1198 C1183 0.961 . S
H1199 C1183 0.960 . S
C1200 C1201 1.391 . S
C1200 C1202 1.394 . S
C1200 H1216 0.931 . S
C1201 C1200 1.391 . S
C1201 C1205 1.376 . S
C1202 C1200 1.394 . S
C1202 C1203 1.369 . S
C1202 C1206 1.531 . S
C1203 C1202 1.369 . S
C1203 C1204 1.410 . S
C1203 C1211 1.503 . S
C1204 C1203 1.410 . S
C1204 C1205 1.392 . S
C1204 C1207 1.511 . S
C1205 C1201 1.376 . S
C1205 C1204 1.392 . S
C1205 H1217 0.929 . S
C1206 C1202 1.531 . S
C1206 H1218 0.960 . S
C1206 H1219 0.962 . S
C1206 H1220 0.960 . S
C1207 C1204 1.511 . S
C1207 H1221 0.961 . S
C1207 H1222 0.961 . S
C1207 H1223 0.961 . S
C1208 C1209 1.370 . S
C1208 C1210 1.363 . S
C1208 H1224 0.931 . S
C1209 C1208 1.370 . S
C1209 C1213 1.408 . S
C1210 C1208 1.363 . S
C1210 C1211 1.370 . S
C1210 C1214 1.524 . S
C1211 C1203 1.503 . S
C1211 C1210 1.370 . S
C1211 C1212 1.403 . S
C1212 C1211 1.403 . S
C1212 C1213 1.404 . S
C1212 C1215 1.539 . S
C1213 C1209 1.408 . S
C1213 C1212 1.404 . S
C1213 H1225 0.930 . S
C1214 C1210 1.524 . S
C1214 H1226 0.956 . S
C1214 H1227 0.961 . S
C1214 H1228 0.961 . S
C1215 C1212 1.539 . S
C1215 H1229 0.958 . S
C1215 H1230 0.961 . S
C1215 H1231 0.960 . S
H1216 C1200 0.931 . S
H1217 C1205 0.929 . S
H1218 C1206 0.960 . S
H1219 C1206 0.962 . S
H1220 C1206 0.960 . S
H1221 C1207 0.961 . S
H1222 C1207 0.961 . S
H1223 C1207 0.961 . S
H1224 C1208 0.931 . S
H1225 C1213 0.930 . S
H1226 C1214 0.956 . S
H1227 C1214 0.961 . S
H1228 C1214 0.961 . S
H1229 C1215 0.958 . S
H1230 C1215 0.961 . S
H1231 C1215 0.960 . S
C1232 C1233 1.391 1_565 S
C1232 C1234 1.394 . S
C1232 H1248 0.931 . S
C1233 C1232 1.391 1_545 S
C1233 C1237 1.376 . S
C1234 C1232 1.394 . S
C1234 C1235 1.369 1_565 S
C1234 C1238 1.531 . S
C1235 C1234 1.369 1_545 S
C1235 C1236 1.410 . S
C1235 C1243 1.503 . S
C1236 C1235 1.410 . S
C1236 C1237 1.392 . S
C1236 C1239 1.511 . S
C1237 C1233 1.376 . S
C1237 C1236 1.392 . S
C1237 H1249 0.929 . S
C1238 C1234 1.531 . S
C1238 H1250 0.960 . S
C1238 H1251 0.962 . S
C1238 H1252 0.960 . S
C1239 C1236 1.511 . S
C1239 H1253 0.961 . S
C1239 H1254 0.961 . S
C1239 H1255 0.961 . S
C1240 C1241 1.370 . S
C1240 C1242 1.363 . S
C1240 H1256 0.931 . S
C1241 C1240 1.370 . S
C1241 C1245 1.408 1_455 S
C1242 C1240 1.363 . S
C1242 C1243 1.370 1_455 S
C1242 C1246 1.524 . S
C1243 C1235 1.503 . S
C1243 C1242 1.370 1_655 S
C1243 C1244 1.403 . S
C1244 C1243 1.403 . S
C1244 C1245 1.404 . S
C1244 C1247 1.539 . S
C1245 C1241 1.408 1_655 S
C1245 C1244 1.404 . S
C1245 H1257 0.930 . S
C1246 C1242 1.524 . S
C1246 H1258 0.956 . S
C1246 H1259 0.979 . S
C1246 H1260 0.961 . S
C1247 C1244 1.539 . S
C1247 H1261 0.958 1_545 S
C1247 H1262 0.961 . S
C1247 H1263 0.960 . S
H1248 C1232 0.931 . S
H1249 C1237 0.929 . S
H1250 C1238 0.960 . S
H1251 C1238 0.962 . S
H1252 C1238 0.960 . S
H1253 C1239 0.961 . S
H1254 C1239 0.961 . S
H1255 C1239 0.961 . S
H1256 C1240 0.931 . S
H1257 C1245 0.930 . S
H1258 C1246 0.956 . S
H1259 C1246 0.979 . S
H1260 C1246 0.961 . S
H1261 C1247 0.958 1_565 S
H1262 C1247 0.961 . S
H1263 C1247 0.960 . S
C1264 C1265 1.391 . S
C1264 C1266 1.394 . S
C1264 H1280 0.931 . S
C1265 C1264 1.391 . S
C1265 C1269 1.376 . S
C1266 C1264 1.394 . S
C1266 C1267 1.369 . S
C1266 C1270 1.531 . S
C1267 C1266 1.369 . S
C1267 C1268 1.410 . S
C1267 C1275 1.503 . S
C1268 C1267 1.410 . S
C1268 C1269 1.392 . S
C1268 C1271 1.511 . S
C1269 C1265 1.376 . S
C1269 C1268 1.392 . S
C1269 H1281 0.929 . S
C1270 C1266 1.531 . S
C1270 H1282 0.960 . S
C1270 H1283 0.962 . S
C1270 H1284 0.960 . S
C1271 C1268 1.511 . S
C1271 H1285 0.961 . S
C1271 H1286 0.961 . S
C1271 H1287 0.961 . S
C1272 C1273 1.370 . S
C1272 C1274 1.363 . S
C1272 H1288 0.931 . S
C1273 C1272 1.370 . S
C1273 C1277 1.408 . S
C1274 C1272 1.363 . S
C1274 C1275 1.370 . S
C1274 C1278 1.524 . S
C1275 C1267 1.503 . S
C1275 C1274 1.370 . S
C1275 C1276 1.403 . S
C1276 C1275 1.403 . S
C1276 C1277 1.404 . S
C1276 C1279 1.539 . S
C1277 C1273 1.408 . S
C1277 C1276 1.404 . S
C1277 H1289 0.930 . S
C1278 C1274 1.524 . S
C1278 H1290 0.956 . S
C1278 H1291 0.961 . S
C1278 H1292 0.961 . S
C1279 C1276 1.539 . S
C1279 H1293 0.958 . S
C1279 H1294 0.961 . S
C1279 H1295 0.960 . S
H1280 C1264 0.931 . S
H1281 C1269 0.929 . S
H1282 C1270 0.960 . S
H1283 C1270 0.962 . S
H1284 C1270 0.960 . S
H1285 C1271 0.961 . S
H1286 C1271 0.961 . S
H1287 C1271 0.961 . S
H1288 C1272 0.931 . S
H1289 C1277 0.930 . S
H1290 C1278 0.956 . S
H1291 C1278 0.961 . S
H1292 C1278 0.961 . S
H1293 C1279 0.958 . S
H1294 C1279 0.961 . S
H1295 C1279 0.960 . S
C1296 C1297 1.404 . S
C1296 C1298 1.394 . S
C1296 H1312 0.931 . S
C1297 C1296 1.404 . S
C1297 C1301 1.370 1_545 S
C1298 C1296 1.394 . S
C1298 C1299 1.369 . S
C1298 C1302 1.531 . S
C1299 C1298 1.369 . S
C1299 C1300 1.410 1_545 S
C1299 C1307 1.503 . S
C1300 C1299 1.410 1_565 S
C1300 C1301 1.392 . S
C1300 C1303 1.511 . S
C1301 C1297 1.370 1_565 S
C1301 C1300 1.392 . S
C1301 H1313 0.929 . S
C1302 C1298 1.531 . S
C1302 H1314 0.960 . S
C1302 H1315 0.962 . S
C1302 H1316 0.960 . S
C1303 C1300 1.511 . S
C1303 H1317 0.961 . S
C1303 H1318 0.961 . S
C1303 H1319 0.961 . S
C1304 C1305 1.370 . S
C1304 C1306 1.363 . S
C1304 H1320 0.947 . S
C1305 C1304 1.370 . S
C1305 C1309 1.408 . S
C1306 C1304 1.363 . S
C1306 C1307 1.370 . S
C1306 C1310 1.524 1_545 S
C1307 C1299 1.503 . S
C1307 C1306 1.370 . S
C1307 C1308 1.403 . S
C1308 C1307 1.403 . S
C1308 C1309 1.404 . S
C1308 C1311 1.539 . S
C1309 C1305 1.408 . S
C1309 C1308 1.404 . S
C1309 H1321 0.930 . S
C1310 C1306 1.524 1_565 S
C1310 H1322 0.956 . S
C1310 H1323 0.961 . S
C1310 H1324 0.961 . S
C1311 C1308 1.539 . S
C1311 H1325 0.958 . S
C1311 H1326 0.961 . S
C1311 H1327 0.960 . S
H1312 C1296 0.931 . S
H1313 C1301 0.929 . S
H1314 C1302 0.960 . S
H1315 C1302 0.962 . S
H1316 C1302 0.960 . S
H1317 C1303 0.961 . S
H1318 C1303 0.961 . S
H1319 C1303 0.961 . S
H1320 C1304 0.947 . S
H1321 C1309 0.930 . S
H1322 C1310 0.956 . S
H1323 C1310 0.961 . S
H1324 C1310 0.961 . S
H1325 C1311 0.958 . S
H1326 C1311 0.961 . S
H1327 C1311 0.960 . S
C1328 C1329 1.391 . S
C1328 C1330 1.394 . S
C1328 H1344 0.931 . S
C1329 C1328 1.391 . S
C1329 C1333 1.376 . S
C1330 C1328 1.394 . S
C1330 C1331 1.369 . S
C1330 C1334 1.531 . S
C1331 C1330 1.369 . S
C1331 C1332 1.410 . S
C1331 C1339 1.503 . S
C1332 C1331 1.410 . S
C1332 C1333 1.392 . S
C1332 C1335 1.511 . S
C1333 C1329 1.376 . S
C1333 C1332 1.392 . S
C1333 H1345 0.929 . S
C1334 C1330 1.531 . S
C1334 H1346 0.960 . S
C1334 H1347 0.962 . S
C1334 H1348 0.960 . S
C1335 C1332 1.511 . S
C1335 H1349 0.961 . S
C1335 H1350 0.961 . S
C1335 H1351 0.961 . S
C1336 C1337 1.370 . S
C1336 C1338 1.363 . S
C1336 H1352 0.931 . S
C1337 C1336 1.370 . S
C1337 C1341 1.408 . S
C1338 C1336 1.363 . S
C1338 C1339 1.370 . S
C1338 C1342 1.524 . S
C1339 C1331 1.503 . S
C1339 C1338 1.370 . S
C1339 C1340 1.403 . S
C1340 C1339 1.403 . S
C1340 C1341 1.404 . S
C1340 C1343 1.539 . S
C1341 C1337 1.408 . S
C1341 C1340 1.404 . S
C1341 H1353 0.930 . S
C1342 C1338 1.524 . S
C1342 H1354 0.956 . S
C1342 H1355 0.961 . S
C1342 H1356 0.961 . S
C1343 C1340 1.539 . S
C1343 H1357 0.958 . S
C1343 H1358 0.961 . S
C1343 H1359 0.960 . S
H1344 C1328 0.931 . S
H1345 C1333 0.929 . S
H1346 C1334 0.960 . S
H1347 C1334 0.962 . S
H1348 C1334 0.960 . S
H1349 C1335 0.961 . S
H1350 C1335 0.961 . S
H1351 C1335 0.961 . S
H1352 C1336 0.931 . S
H1353 C1341 0.930 . S
H1354 C1342 0.956 . S
H1355 C1342 0.961 . S
H1356 C1342 0.961 . S
H1357 C1343 0.958 . S
H1358 C1343 0.961 . S
H1359 C1343 0.960 . S
C1360 C1361 1.391 . S
C1360 C1362 1.394 . S
C1360 H1376 0.931 . S
C1361 C1360 1.391 . S
C1361 C1365 1.376 1_545 S
C1362 C1360 1.394 . S
C1362 C1363 1.369 . S
C1362 C1366 1.531 . S
C1363 C1362 1.369 . S
C1363 C1364 1.410 . S
C1363 C1371 1.503 . S
C1364 C1363 1.410 . S
C1364 C1365 1.392 1_545 S
C1364 C1367 1.511 1_545 S
C1365 C1361 1.376 1_565 S
C1365 C1364 1.392 1_565 S
C1365 H1377 0.929 . S
C1366 C1362 1.531 . S
C1366 H1378 0.960 . S
C1366 H1379 0.962 . S
C1366 H1380 0.960 . S
C1367 C1364 1.511 1_565 S
C1367 H1381 0.961 . S
C1367 H1382 0.961 . S
C1367 H1383 0.961 1_565 S
C1368 C1369 1.370 . S
C1368 C1370 1.363 . S
C1368 H1384 0.959 1_655 S
C1369 C1368 1.370 . S
C1369 C1373 1.408 . S
C1370 C1368 1.363 . S
C1370 C1371 1.370 . S
C1370 C1374 1.524 1_545 S
C1371 C1363 1.503 . S
C1371 C1370 1.370 . S
C1371 C1372 1.403 . S
C1372 C1371 1.403 . S
C1372 C1373 1.404 . S
C1372 C1375 1.539 . S
C1373 C1369 1.408 . S
C1373 C1372 1.404 . S
C1373 H1385 0.930 . S
C1374 C1370 1.524 1_565 S
C1374 H1386 0.956 . S
C1374 H1387 0.961 . S
C1374 H1388 0.961 . S
C1375 C1372 1.539 . S
C1375 H1389 0.958 . S
C1375 H1390 0.961 . S
C1375 H1391 0.960 . S
H1376 C1360 0.931 . S
H1377 C1365 0.929 . S
H1378 C1366 0.960 . S
H1379 C1366 0.962 . S
H1380 C1366 0.960 . S
H1381 C1367 0.961 . S
H1382 C1367 0.961 . S
H1383 C1367 0.961 1_545 S
H1384 C1368 0.959 1_455 S
H1385 C1373 0.930 . S
H1386 C1374 0.956 . S
H1387 C1374 0.961 . S
H1388 C1374 0.961 . S
H1389 C1375 0.958 . S
H1390 C1375 0.961 . S
H1391 C1375 0.960 . S
C1392 C1393 1.391 . S
C1392 C1394 1.394 . S
C1392 H1408 0.931 . S
C1393 C1392 1.391 . S
C1393 C1397 1.376 . S
C1394 C1392 1.394 . S
C1394 C1395 1.369 . S
C1394 C1398 1.531 . S
C1395 C1394 1.369 . S
C1395 C1396 1.410 . S
C1395 C1403 1.503 . S
C1396 C1395 1.410 . S
C1396 C1397 1.392 . S
C1396 C1399 1.511 . S
C1397 C1393 1.376 . S
C1397 C1396 1.392 . S
C1397 H1409 0.929 . S
C1398 C1394 1.531 . S
C1398 H1410 0.960 . S
C1398 H1411 0.962 . S
C1398 H1412 0.960 . S
C1399 C1396 1.511 . S
C1399 H1413 0.961 . S
C1399 H1414 0.961 . S
C1399 H1415 0.961 . S
C1400 C1401 1.370 . S
C1400 C1402 1.363 . S
C1400 H1416 0.931 . S
C1401 C1400 1.370 . S
C1401 C1405 1.408 . S
C1402 C1400 1.363 . S
C1402 C1403 1.370 . S
C1402 C1406 1.524 . S
C1403 C1395 1.503 . S
C1403 C1402 1.370 . S
C1403 C1404 1.403 . S
C1404 C1403 1.403 . S
C1404 C1405 1.404 . S
C1404 C1407 1.539 . S
C1405 C1401 1.408 . S
C1405 C1404 1.404 . S
C1405 H1417 0.930 . S
C1406 C1402 1.524 . S
C1406 H1418 0.956 . S
C1406 H1419 0.961 . S
C1406 H1420 0.961 . S
C1407 C1404 1.539 . S
C1407 H1421 0.958 . S
C1407 H1422 0.961 . S
C1407 H1423 0.960 . S
H1408 C1392 0.931 . S
H1409 C1397 0.929 . S
H1410 C1398 0.960 . S
H1411 C1398 0.962 . S
H1412 C1398 0.960 . S
H1413 C1399 0.961 . S
H1414 C1399 0.961 . S
H1415 C1399 0.961 . S
H1416 C1400 0.931 . S
H1417 C1405 0.930 . S
H1418 C1406 0.956 . S
H1419 C1406 0.961 . S
H1420 C1406 0.961 . S
H1421 C1407 0.958 . S
H1422 C1407 0.961 . S
H1423 C1407 0.960 . S
C1424 C1425 1.391 . S
C1424 C1426 1.394 . S
C1424 H1440 0.931 1_545 S
C1425 C1424 1.391 . S
C1425 C1429 1.376 . S
C1426 C1424 1.394 . S
C1426 C1427 1.369 . S
C1426 C1430 1.531 . S
C1427 C1426 1.369 . S
C1427 C1428 1.410 . S
C1427 C1435 1.503 . S
C1428 C1427 1.410 . S
C1428 C1429 1.392 . S
C1428 C1431 1.511 . S
C1429 C1425 1.376 . S
C1429 C1428 1.392 . S
C1429 H1441 0.929 . S
C1430 C1426 1.531 . S
C1430 H1442 0.960 . S
C1430 H1443 0.962 . S
C1430 H1444 0.960 . S
C1431 C1428 1.511 . S
C1431 H1445 0.961 . S
C1431 H1446 0.961 . S
C1431 H1447 0.961 . S
C1432 C1433 1.370 . S
C1432 C1434 1.363 . S
C1432 H1448 0.931 . S
C1433 C1432 1.370 . S
C1433 C1437 1.408 . S
C1434 C1432 1.363 . S
C1434 C1435 1.370 . S
C1434 C1438 1.524 . S
C1435 C1427 1.503 . S
C1435 C1434 1.370 . S
C1435 C1436 1.403 . S
C1436 C1435 1.403 . S
C1436 C1437 1.404 . S
C1436 C1439 1.539 . S
C1437 C1433 1.408 . S
C1437 C1436 1.404 . S
C1437 H1449 0.930 . S
C1438 C1434 1.524 . S
C1438 H1450 0.956 1_545 S
C1438 H1451 0.961 . S
C1438 H1452 0.961 . S
C1439 C1436 1.539 . S
C1439 H1453 0.958 . S
C1439 H1454 0.961 . S
C1439 H1455 0.960 . S
H1440 C1424 0.931 1_565 S
H1441 C1429 0.929 . S
H1442 C1430 0.960 . S
H1443 C1430 0.962 . S
H1444 C1430 0.960 . S
H1445 C1431 0.961 . S
H1446 C1431 0.961 . S
H1447 C1431 0.961 . S
H1448 C1432 0.931 . S
H1449 C1437 0.930 . S
H1450 C1438 0.956 1_565 S
H1451 C1438 0.961 . S
H1452 C1438 0.961 . S
H1453 C1439 0.958 . S
H1454 C1439 0.961 . S
H1455 C1439 0.960 . S
C1456 C1457 1.391 . S
C1456 C1458 1.394 . S
C1456 H1472 0.931 . S
C1457 C1456 1.391 . S
C1457 C1461 1.376 . S
C1458 C1456 1.394 . S
C1458 C1459 1.369 . S
C1458 C1462 1.531 . S
C1459 C1458 1.369 . S
C1459 C1460 1.410 . S
C1459 C1467 1.503 . S
C1460 C1459 1.410 . S
C1460 C1461 1.392 . S
C1460 C1463 1.511 . S
C1461 C1457 1.376 . S
C1461 C1460 1.392 . S
C1461 H1473 0.929 . S
C1462 C1458 1.531 . S
C1462 H1474 0.960 . S
C1462 H1475 0.962 . S
C1462 H1476 0.960 . S
C1463 C1460 1.511 . S
C1463 H1477 0.961 . S
C1463 H1478 0.961 . S
C1463 H1479 0.961 . S
C1464 C1465 1.370 . S
C1464 C1466 1.363 . S
C1464 H1480 0.931 . S
C1465 C1464 1.370 . S
C1465 C1469 1.408 . S
C1466 C1464 1.363 . S
C1466 C1467 1.370 . S
C1466 C1470 1.524 . S
C1467 C1459 1.503 . S
C1467 C1466 1.370 . S
C1467 C1468 1.403 . S
C1468 C1467 1.403 . S
C1468 C1469 1.404 . S
C1468 C1471 1.539 . S
C1469 C1465 1.408 . S
C1469 C1468 1.404 . S
C1469 H1481 0.930 . S
C1470 C1466 1.524 . S
C1470 H1482 0.956 . S
C1470 H1483 0.961 . S
C1470 H1484 0.961 . S
C1471 C1468 1.539 . S
C1471 H1485 0.958 . S
C1471 H1486 0.961 . S
C1471 H1487 0.960 . S
H1472 C1456 0.931 . S
H1473 C1461 0.929 . S
H1474 C1462 0.960 . S
H1475 C1462 0.962 . S
H1476 C1462 0.960 . S
H1477 C1463 0.961 . S
H1478 C1463 0.961 . S
H1479 C1463 0.961 . S
H1480 C1464 0.931 . S
H1481 C1469 0.930 . S
H1482 C1470 0.956 . S
H1483 C1470 0.961 . S
H1484 C1470 0.961 . S
H1485 C1471 0.958 . S
H1486 C1471 0.961 . S
H1487 C1471 0.960 . S
C1488 C1489 1.391 . S
C1488 C1490 1.394 . S
C1488 H1504 0.931 . S
C1489 C1488 1.391 . S
C1489 C1493 1.376 . S
C1490 C1488 1.394 . S
C1490 C1491 1.369 . S
C1490 C1494 1.531 . S
C1491 C1490 1.369 . S
C1491 C1492 1.410 . S
C1491 C1499 1.503 . S
C1492 C1491 1.410 . S
C1492 C1493 1.392 . S
C1492 C1495 1.511 . S
C1493 C1489 1.376 . S
C1493 C1492 1.392 . S
C1493 H1505 0.929 . S
C1494 C1490 1.531 . S
C1494 H1506 0.960 . S
C1494 H1507 0.962 . S
C1494 H1508 0.960 . S
C1495 C1492 1.511 . S
C1495 H1509 0.961 . S
C1495 H1510 0.961 . S
C1495 H1511 0.961 . S
C1496 C1497 1.370 . S
C1496 C1498 1.363 . S
C1496 H1512 0.931 . S
C1497 C1496 1.370 . S
C1497 C1501 1.408 . S
C1498 C1496 1.363 . S
C1498 C1499 1.370 . S
C1498 C1502 1.524 . S
C1499 C1491 1.503 . S
C1499 C1498 1.370 . S
C1499 C1500 1.403 . S
C1500 C1499 1.403 . S
C1500 C1501 1.404 . S
C1500 C1503 1.539 . S
C1501 C1497 1.408 . S
C1501 C1500 1.404 . S
C1501 H1513 0.930 . S
C1502 C1498 1.524 . S
C1502 H1514 0.956 . S
C1502 H1515 0.961 . S
C1502 H1516 0.961 . S
C1503 C1500 1.539 . S
C1503 H1517 0.958 . S
C1503 H1518 0.961 . S
C1503 H1519 0.960 . S
H1504 C1488 0.931 . S
H1505 C1493 0.929 . S
H1506 C1494 0.960 . S
H1507 C1494 0.962 . S
H1508 C1494 0.960 . S
H1509 C1495 0.961 . S
H1510 C1495 0.961 . S
H1511 C1495 0.961 . S
H1512 C1496 0.931 . S
H1513 C1501 0.930 . S
H1514 C1502 0.956 . S
H1515 C1502 0.961 . S
H1516 C1502 0.961 . S
H1517 C1503 0.958 . S
H1518 C1503 0.961 . S
H1519 C1503 0.960 . S
C1520 C1521 1.391 1_556 S
C1520 C1522 1.394 . S
C1520 H1536 0.931 . S
C1521 C1520 1.391 1_554 S
C1521 C1525 1.376 . S
C1522 C1520 1.394 . S
C1522 C1523 1.369 1_556 S
C1522 C1526 1.531 . S
C1523 C1522 1.369 1_554 S
C1523 C1524 1.410 . S
C1523 C1531 1.503 . S
C1524 C1523 1.410 . S
C1524 C1525 1.392 . S
C1524 C1527 1.511 . S
C1525 C1521 1.376 . S
C1525 C1524 1.392 . S
C1525 H1537 0.929 . S
C1526 C1522 1.531 . S
C1526 H1538 0.960 . S
C1526 H1539 0.962 . S
C1526 H1540 0.960 . S
C1527 C1524 1.511 . S
C1527 H1541 0.961 . S
C1527 H1542 0.961 . S
C1527 H1543 0.961 . S
C1528 C1529 1.370 . S
C1528 C1530 1.363 . S
C1528 H1544 0.931 . S
C1529 C1528 1.370 . S
C1529 C1533 1.408 . S
C1530 C1528 1.363 . S
C1530 C1531 1.370 . S
C1530 C1534 1.524 . S
C1531 C1523 1.503 . S
C1531 C1530 1.370 . S
C1531 C1532 1.403 . S
C1532 C1531 1.403 . S
C1532 C1533 1.404 . S
C1532 C1535 1.539 . S
C1533 C1529 1.408 . S
C1533 C1532 1.404 . S
C1533 H1545 0.930 . S
C1534 C1530 1.524 . S
C1534 H1546 0.956 . S
C1534 H1547 0.961 . S
C1534 H1548 0.961 . S
C1535 C1532 1.539 . S
C1535 H1549 0.958 1_554 S
C1535 H1550 0.961 . S
C1535 H1551 0.960 . S
H1536 C1520 0.931 . S
H1537 C1525 0.929 . S
H1538 C1526 0.960 . S
H1539 C1526 0.962 . S
H1540 C1526 0.960 . S
H1541 C1527 0.961 . S
H1542 C1527 0.961 . S
H1543 C1527 0.961 . S
H1544 C1528 0.931 . S
H1545 C1533 0.930 . S
H1546 C1534 0.956 . S
H1547 C1534 0.961 . S
H1548 C1534 0.961 . S
H1549 C1535 0.958 1_556 S
H1550 C1535 0.961 . S
H1551 C1535 0.960 . S
C1552 C1553 1.391 . S
C1552 C1554 1.394 . S
C1552 H1568 0.931 . S
C1553 C1552 1.391 . S
C1553 C1557 1.376 . S
C1554 C1552 1.394 . S
C1554 C1555 1.369 . S
C1554 C1558 1.531 . S
C1555 C1554 1.369 . S
C1555 C1556 1.410 . S
C1555 C1563 1.503 . S
C1556 C1555 1.410 . S
C1556 C1557 1.392 . S
C1556 C1559 1.511 . S
C1557 C1553 1.376 . S
C1557 C1556 1.392 . S
C1557 H1569 0.929 . S
C1558 C1554 1.531 . S
C1558 H1570 0.960 . S
C1558 H1571 0.962 . S
C1558 H1572 0.960 . S
C1559 C1556 1.511 . S
C1559 H1573 0.961 . S
C1559 H1574 0.961 . S
C1559 H1575 0.961 . S
C1560 C1561 1.370 . S
C1560 C1562 1.363 . S
C1560 H1576 0.931 . S
C1561 C1560 1.370 . S
C1561 C1565 1.408 . S
C1562 C1560 1.363 . S
C1562 C1563 1.370 . S
C1562 C1566 1.524 . S
C1563 C1555 1.503 . S
C1563 C1562 1.370 . S
C1563 C1564 1.403 . S
C1564 C1563 1.403 . S
C1564 C1565 1.404 . S
C1564 C1567 1.539 . S
C1565 C1561 1.408 . S
C1565 C1564 1.404 . S
C1565 H1577 0.930 . S
C1566 C1562 1.524 . S
C1566 H1578 0.956 . S
C1566 H1579 0.961 . S
C1566 H1580 0.961 . S
C1567 C1564 1.539 . S
C1567 H1581 0.958 . S
C1567 H1582 0.961 . S
C1567 H1583 0.960 . S
H1568 C1552 0.931 . S
H1569 C1557 0.929 . S
H1570 C1558 0.960 . S
H1571 C1558 0.962 . S
H1572 C1558 0.960 . S
H1573 C1559 0.961 . S
H1574 C1559 0.961 . S
H1575 C1559 0.961 . S
H1576 C1560 0.931 . S
H1577 C1565 0.930 . S
H1578 C1566 0.956 . S
H1579 C1566 0.961 . S
H1580 C1566 0.961 . S
H1581 C1567 0.958 . S
H1582 C1567 0.961 . S
H1583 C1567 0.960 . S
C1584 C1585 1.391 . S
C1584 C1586 1.394 . S
C1584 H1600 0.931 . S
C1585 C1584 1.391 . S
C1585 C1589 1.376 . S
C1586 C1584 1.394 . S
C1586 C1587 1.369 . S
C1586 C1590 1.531 . S
C1587 C1586 1.369 . S
C1587 C1588 1.410 . S
C1587 C1595 1.503 . S
C1588 C1587 1.410 . S
C1588 C1589 1.392 . S
C1588 C1591 1.511 . S
C1589 C1585 1.376 . S
C1589 C1588 1.392 . S
C1589 H1601 0.929 . S
C1590 C1586 1.531 . S
C1590 H1602 0.960 . S
C1590 H1603 0.962 . S
C1590 H1604 0.960 . S
C1591 C1588 1.511 . S
C1591 H1605 0.961 . S
C1591 H1606 0.961 . S
C1591 H1607 0.961 . S
C1592 C1593 1.370 . S
C1592 C1594 1.363 . S
C1592 H1608 0.931 . S
C1593 C1592 1.370 . S
C1593 C1597 1.408 . S
C1594 C1592 1.363 . S
C1594 C1595 1.370 . S
C1594 C1598 1.524 . S
C1595 C1587 1.503 . S
C1595 C1594 1.370 . S
C1595 C1596 1.403 . S
C1596 C1595 1.403 . S
C1596 C1597 1.404 . S
C1596 C1599 1.539 . S
C1597 C1593 1.408 . S
C1597 C1596 1.404 . S
C1597 H1609 0.930 . S
C1598 C1594 1.524 . S
C1598 H1610 0.956 . S
C1598 H1611 0.961 . S
C1598 H1612 0.961 . S
C1599 C1596 1.539 . S
C1599 H1613 0.958 . S
C1599 H1614 0.961 . S
C1599 H1615 0.960 . S
H1600 C1584 0.931 . S
H1601 C1589 0.929 . S
H1602 C1590 0.960 . S
H1603 C1590 0.962 . S
H1604 C1590 0.960 . S
H1605 C1591 0.961 . S
H1606 C1591 0.961 . S
H1607 C1591 0.961 . S
H1608 C1592 0.931 . S
H1609 C1597 0.930 . S
H1610 C1598 0.956 . S
H1611 C1598 0.961 . S
H1612 C1598 0.961 . S
H1613 C1599 0.958 . S
H1614 C1599 0.961 . S
H1615 C1599 0.960 . S
C1616 C1617 1.391 . S
C1616 C1618 1.394 . S
C1616 H1632 0.931 . S
C1617 C1616 1.391 . S
C1617 C1621 1.376 . S
C1618 C1616 1.394 . S
C1618 C1619 1.369 . S
C1618 C1622 1.531 . S
C1619 C1618 1.369 . S
C1619 C1620 1.410 . S
C1619 C1627 1.503 . S
C1620 C1619 1.410 . S
C1620 C1621 1.392 . S
C1620 C1623 1.511 . S
C1621 C1617 1.376 . S
C1621 C1620 1.392 . S
C1621 H1633 0.929 . S
C1622 C1618 1.531 . S
C1622 H1634 0.960 . S
C1622 H1635 0.962 . S
C1622 H1636 0.960 . S
C1623 C1620 1.511 . S
C1623 H1637 0.961 . S
C1623 H1638 0.961 . S
C1623 H1639 0.961 . S
C1624 C1625 1.370 . S
C1624 C1626 1.363 . S
C1624 H1640 0.931 . S
C1625 C1624 1.370 . S
C1625 C1629 1.408 . S
C1626 C1624 1.363 . S
C1626 C1627 1.370 . S
C1626 C1630 1.524 . S
C1627 C1619 1.503 . S
C1627 C1626 1.370 . S
C1627 C1628 1.403 . S
C1628 C1627 1.403 . S
C1628 C1629 1.404 . S
C1628 C1631 1.539 . S
C1629 C1625 1.408 . S
C1629 C1628 1.404 . S
C1629 H1641 0.930 . S
C1630 C1626 1.524 . S
C1630 H1642 0.956 . S
C1630 H1643 0.961 . S
C1630 H1644 0.961 . S
C1631 C1628 1.539 . S
C1631 H1645 0.958 . S
C1631 H1646 0.961 . S
C1631 H1647 0.960 . S
H1632 C1616 0.931 . S
H1633 C1621 0.929 . S
H1634 C1622 0.960 . S
H1635 C1622 0.962 . S
H1636 C1622 0.960 . S
H1637 C1623 0.961 . S
H1638 C1623 0.961 . S
H1639 C1623 0.961 . S
H1640 C1624 0.931 . S
H1641 C1629 0.930 . S
H1642 C1630 0.956 . S
H1643 C1630 0.961 . S
H1644 C1630 0.961 . S
H1645 C1631 0.958 . S
H1646 C1631 0.961 . S
H1647 C1631 0.960 . S
C1648 C1649 1.391 . S
C1648 C1650 1.394 . S
C1648 H1664 0.931 . S
C1649 C1648 1.391 . S
C1649 C1653 1.376 . S
C1650 C1648 1.394 . S
C1650 C1651 1.369 . S
C1650 C1654 1.531 . S
C1651 C1650 1.369 . S
C1651 C1652 1.410 . S
C1651 C1659 1.503 . S
C1652 C1651 1.410 . S
C1652 C1653 1.392 . S
C1652 C1655 1.511 . S
C1653 C1649 1.376 . S
C1653 C1652 1.392 . S
C1653 H1665 0.929 . S
C1654 C1650 1.531 . S
C1654 H1666 0.960 . S
C1654 H1667 0.962 . S
C1654 H1668 0.960 . S
C1655 C1652 1.511 . S
C1655 H1669 0.961 . S
C1655 H1670 0.961 . S
C1655 H1671 0.961 . S
C1656 C1657 1.370 . S
C1656 C1658 1.363 . S
C1656 H1672 0.931 . S
C1657 C1656 1.370 . S
C1657 C1661 1.408 . S
C1658 C1656 1.363 . S
C1658 C1659 1.370 . S
C1658 C1662 1.524 . S
C1659 C1651 1.503 . S
C1659 C1658 1.370 . S
C1659 C1660 1.403 . S
C1660 C1659 1.403 . S
C1660 C1661 1.404 . S
C1660 C1663 1.539 . S
C1661 C1657 1.408 . S
C1661 C1660 1.404 . S
C1661 H1673 0.930 . S
C1662 C1658 1.524 . S
C1662 H1674 0.956 . S
C1662 H1675 0.961 . S
C1662 H1676 0.961 . S
C1663 C1660 1.539 . S
C1663 H1677 0.958 . S
C1663 H1678 0.961 . S
C1663 H1679 0.960 . S
H1664 C1648 0.931 . S
H1665 C1653 0.929 . S
H1666 C1654 0.960 . S
H1667 C1654 0.962 . S
H1668 C1654 0.960 . S
H1669 C1655 0.961 . S
H1670 C1655 0.961 . S
H1671 C1655 0.961 . S
H1672 C1656 0.931 . S
H1673 C1661 0.930 . S
H1674 C1662 0.956 . S
H1675 C1662 0.961 . S
H1676 C1662 0.961 . S
H1677 C1663 0.958 . S
H1678 C1663 0.961 . S
H1679 C1663 0.960 . S
C1680 C1681 1.391 . S
C1680 C1682 1.394 . S
C1680 H1696 0.931 . S
C1681 C1680 1.391 . S
C1681 C1685 1.376 . S
C1682 C1680 1.394 . S
C1682 C1683 1.369 . S
C1682 C1686 1.531 . S
C1683 C1682 1.369 . S
C1683 C1684 1.410 . S
C1683 C1691 1.503 . S
C1684 C1683 1.410 . S
C1684 C1685 1.392 . S
C1684 C1687 1.511 . S
C1685 C1681 1.376 . S
C1685 C1684 1.392 . S
C1685 H1697 0.929 . S
C1686 C1682 1.531 . S
C1686 H1698 0.960 . S
C1686 H1699 0.962 . S
C1686 H1700 0.960 . S
C1687 C1684 1.511 . S
C1687 H1701 0.961 . S
C1687 H1702 0.961 . S
C1687 H1703 0.961 . S
C1688 C1689 1.370 . S
C1688 C1690 1.363 . S
C1688 H1704 0.931 . S
C1689 C1688 1.370 . S
C1689 C1693 1.408 . S
C1690 C1688 1.363 . S
C1690 C1691 1.370 . S
C1690 C1694 1.524 . S
C1691 C1683 1.503 . S
C1691 C1690 1.370 . S
C1691 C1692 1.403 . S
C1692 C1691 1.403 . S
C1692 C1693 1.404 . S
C1692 C1695 1.539 . S
C1693 C1689 1.408 . S
C1693 C1692 1.404 . S
C1693 H1705 0.930 . S
C1694 C1690 1.524 . S
C1694 H1706 0.956 . S
C1694 H1707 0.961 . S
C1694 H1708 0.961 . S
C1695 C1692 1.539 . S
C1695 H1709 0.958 . S
C1695 H1710 0.961 . S
C1695 H1711 0.960 . S
H1696 C1680 0.931 . S
H1697 C1685 0.929 . S
H1698 C1686 0.960 . S
H1699 C1686 0.962 . S
H1700 C1686 0.960 . S
H1701 C1687 0.961 . S
H1702 C1687 0.961 . S
H1703 C1687 0.961 . S
H1704 C1688 0.931 . S
H1705 C1693 0.930 . S
H1706 C1694 0.956 . S
H1707 C1694 0.961 . S
H1708 C1694 0.961 . S
H1709 C1695 0.958 . S
H1710 C1695 0.961 . S
H1711 C1695 0.960 . S
C1712 C1713 1.391 . S
C1712 C1714 1.394 . S
C1712 H1728 0.931 . S
C1713 C1712 1.391 . S
C1713 C1717 1.376 . S
C1714 C1712 1.394 . S
C1714 C1715 1.369 . S
C1714 C1718 1.531 . S
C1715 C1714 1.369 . S
C1715 C1716 1.410 . S
C1715 C1723 1.503 . S
C1716 C1715 1.410 . S
C1716 C1717 1.392 . S
C1716 C1719 1.511 . S
C1717 C1713 1.376 . S
C1717 C1716 1.392 . S
C1717 H1729 0.929 . S
C1718 C1714 1.531 . S
C1718 H1730 0.960 . S
C1718 H1731 0.962 . S
C1718 H1732 0.960 . S
C1719 C1716 1.511 . S
C1719 H1733 0.961 . S
C1719 H1734 0.961 . S
C1719 H1735 0.961 . S
C1720 C1721 1.370 . S
C1720 C1722 1.363 . S
C1720 H1736 0.931 . S
C1721 C1720 1.370 . S
C1721 C1725 1.408 . S
C1722 C1720 1.363 . S
C1722 C1723 1.370 . S
C1722 C1726 1.524 . S
C1723 C1715 1.503 . S
C1723 C1722 1.370 . S
C1723 C1724 1.403 . S
C1724 C1723 1.403 . S
C1724 C1725 1.404 . S
C1724 C1727 1.539 . S
C1725 C1721 1.408 . S
C1725 C1724 1.404 . S
C1725 H1737 0.930 . S
C1726 C1722 1.524 . S
C1726 H1738 0.956 . S
C1726 H1739 0.961 . S
C1726 H1740 0.961 . S
C1727 C1724 1.539 . S
C1727 H1741 0.958 . S
C1727 H1742 0.961 . S
C1727 H1743 0.960 . S
H1728 C1712 0.931 . S
H1729 C1717 0.929 . S
H1730 C1718 0.960 . S
H1731 C1718 0.962 . S
H1732 C1718 0.960 . S
H1733 C1719 0.961 . S
H1734 C1719 0.961 . S
H1735 C1719 0.961 . S
H1736 C1720 0.931 . S
H1737 C1725 0.930 . S
H1738 C1726 0.956 . S
H1739 C1726 0.961 . S
H1740 C1726 0.961 . S
H1741 C1727 0.958 . S
H1742 C1727 0.961 . S
H1743 C1727 0.960 . S
C1744 C1745 1.391 . S
C1744 C1746 1.394 . S
C1744 H1760 0.931 . S
C1745 C1744 1.391 . S
C1745 C1749 1.376 . S
C1746 C1744 1.394 . S
C1746 C1747 1.369 . S
C1746 C1750 1.531 . S
C1747 C1746 1.369 . S
C1747 C1748 1.410 . S
C1747 C1755 1.503 . S
C1748 C1747 1.410 . S
C1748 C1749 1.392 . S
C1748 C1751 1.511 . S
C1749 C1745 1.376 . S
C1749 C1748 1.392 . S
C1749 H1761 0.929 . S
C1750 C1746 1.531 . S
C1750 H1762 0.960 . S
C1750 H1763 0.962 . S
C1750 H1764 0.960 . S
C1751 C1748 1.511 . S
C1751 H1765 0.961 . S
C1751 H1766 0.961 . S
C1751 H1767 0.961 . S
C1752 C1753 1.370 . S
C1752 C1754 1.363 . S
C1752 H1768 0.931 . S
C1753 C1752 1.370 . S
C1753 C1757 1.408 . S
C1754 C1752 1.363 . S
C1754 C1755 1.370 . S
C1754 C1758 1.524 . S
C1755 C1747 1.503 . S
C1755 C1754 1.370 . S
C1755 C1756 1.403 . S
C1756 C1755 1.403 . S
C1756 C1757 1.404 . S
C1756 C1759 1.539 . S
C1757 C1753 1.408 . S
C1757 C1756 1.404 . S
C1757 H1769 0.930 . S
C1758 C1754 1.524 . S
C1758 H1770 0.956 . S
C1758 H1771 0.961 . S
C1758 H1772 0.961 . S
C1759 C1756 1.539 . S
C1759 H1773 0.958 . S
C1759 H1774 0.961 . S
C1759 H1775 0.960 . S
H1760 C1744 0.931 . S
H1761 C1749 0.929 . S
H1762 C1750 0.960 . S
H1763 C1750 0.962 . S
H1764 C1750 0.960 . S
H1765 C1751 0.961 . S
H1766 C1751 0.961 . S
H1767 C1751 0.961 . S
H1768 C1752 0.931 . S
H1769 C1757 0.930 . S
H1770 C1758 0.956 . S
H1771 C1758 0.961 . S
H1772 C1758 0.961 . S
H1773 C1759 0.958 . S
H1774 C1759 0.961 . S
H1775 C1759 0.960 . S
C1776 C1777 1.391 . S
C1776 C1778 1.394 . S
C1776 H1792 0.931 . S
C1777 C1776 1.391 . S
C1777 C1781 1.376 . S
C1778 C1776 1.394 . S
C1778 C1779 1.369 . S
C1778 C1782 1.531 . S
C1779 C1778 1.369 . S
C1779 C1780 1.410 . S
C1779 C1787 1.503 . S
C1780 C1779 1.410 . S
C1780 C1781 1.392 . S
C1780 C1783 1.511 . S
C1781 C1777 1.376 . S
C1781 C1780 1.392 . S
C1781 H1793 0.929 . S
C1782 C1778 1.531 . S
C1782 H1794 0.960 . S
C1782 H1795 0.962 . S
C1782 H1796 0.960 . S
C1783 C1780 1.511 . S
C1783 H1797 0.961 . S
C1783 H1798 0.961 . S
C1783 H1799 0.961 . S
C1784 C1785 1.370 . S
C1784 C1786 1.363 . S
C1784 H1800 0.931 . S
C1785 C1784 1.370 . S
C1785 C1789 1.408 . S
C1786 C1784 1.363 . S
C1786 C1787 1.370 . S
C1786 C1790 1.524 . S
C1787 C1779 1.503 . S
C1787 C1786 1.370 . S
C1787 C1788 1.403 . S
C1788 C1787 1.403 . S
C1788 C1789 1.404 . S
C1788 C1791 1.539 . S
C1789 C1785 1.408 . S
C1789 C1788 1.404 . S
C1789 H1801 0.930 . S
C1790 C1786 1.524 . S
C1790 H1802 0.956 . S
C1790 H1803 0.961 . S
C1790 H1804 0.961 . S
C1791 C1788 1.539 . S
C1791 H1805 0.958 . S
C1791 H1806 0.961 . S
C1791 H1807 0.960 . S
H1792 C1776 0.931 . S
H1793 C1781 0.929 . S
H1794 C1782 0.960 . S
H1795 C1782 0.962 . S
H1796 C1782 0.960 . S
H1797 C1783 0.961 . S
H1798 C1783 0.961 . S
H1799 C1783 0.961 . S
H1800 C1784 0.931 . S
H1801 C1789 0.930 . S
H1802 C1790 0.956 . S
H1803 C1790 0.961 . S
H1804 C1790 0.961 . S
H1805 C1791 0.958 . S
H1806 C1791 0.961 . S
H1807 C1791 0.960 . S
C1808 C1809 1.391 . S
C1808 C1810 1.394 . S
C1808 H1824 0.931 . S
C1809 C1808 1.391 . S
C1809 C1813 1.376 . S
C1810 C1808 1.394 . S
C1810 C1811 1.369 . S
C1810 C1814 1.531 . S
C1811 C1810 1.369 . S
C1811 C1812 1.410 . S
C1811 C1819 1.503 . S
C1812 C1811 1.410 . S
C1812 C1813 1.392 . S
C1812 C1815 1.511 . S
C1813 C1809 1.376 . S
C1813 C1812 1.392 . S
C1813 H1825 0.929 . S
C1814 C1810 1.531 . S
C1814 H1826 0.960 . S
C1814 H1827 0.962 . S
C1814 H1828 0.960 . S
C1815 C1812 1.511 . S
C1815 H1829 0.961 . S
C1815 H1830 0.961 . S
C1815 H1831 0.961 . S
C1816 C1817 1.370 . S
C1816 C1818 1.363 . S
C1816 H1832 0.931 . S
C1817 C1816 1.370 . S
C1817 C1821 1.408 . S
C1818 C1816 1.363 . S
C1818 C1819 1.370 . S
C1818 C1822 1.524 . S
C1819 C1811 1.503 . S
C1819 C1818 1.370 . S
C1819 C1820 1.403 . S
C1820 C1819 1.403 . S
C1820 C1821 1.404 . S
C1820 C1823 1.539 . S
C1821 C1817 1.408 . S
C1821 C1820 1.404 . S
C1821 H1833 0.930 . S
C1822 C1818 1.524 . S
C1822 H1834 0.956 . S
C1822 H1835 0.961 . S
C1822 H1836 0.961 . S
C1823 C1820 1.539 . S
C1823 H1837 0.958 . S
C1823 H1838 0.961 . S
C1823 H1839 0.960 . S
H1824 C1808 0.931 . S
H1825 C1813 0.929 . S
H1826 C1814 0.960 . S
H1827 C1814 0.962 . S
H1828 C1814 0.960 . S
H1829 C1815 0.961 . S
H1830 C1815 0.961 . S
H1831 C1815 0.961 . S
H1832 C1816 0.931 . S
H1833 C1821 0.930 . S
H1834 C1822 0.956 . S
H1835 C1822 0.961 . S
H1836 C1822 0.961 . S
H1837 C1823 0.958 . S
H1838 C1823 0.961 . S
H1839 C1823 0.960 . S
C1840 C1841 1.391 . S
C1840 C1842 1.394 . S
C1840 H1856 0.931 . S
C1841 C1840 1.391 . S
C1841 C1845 1.376 . S
C1842 C1840 1.394 . S
C1842 C1843 1.369 . S
C1842 C1846 1.531 . S
C1843 C1842 1.369 . S
C1843 C1844 1.410 . S
C1843 C1851 1.503 . S
C1844 C1843 1.410 . S
C1844 C1845 1.392 . S
C1844 C1847 1.511 . S
C1845 C1841 1.376 . S
C1845 C1844 1.392 . S
C1845 H1857 0.929 . S
C1846 C1842 1.531 . S
C1846 H1858 0.960 . S
C1846 H1859 0.962 . S
C1846 H1860 0.960 . S
C1847 C1844 1.511 . S
C1847 H1861 0.961 . S
C1847 H1862 0.961 . S
C1847 H1863 0.961 . S
C1848 C1849 1.370 . S
C1848 C1850 1.363 . S
C1848 H1864 0.931 . S
C1849 C1848 1.370 . S
C1849 C1853 1.408 . S
C1850 C1848 1.363 . S
C1850 C1851 1.370 . S
C1850 C1854 1.524 . S
C1851 C1843 1.503 . S
C1851 C1850 1.370 . S
C1851 C1852 1.403 . S
C1852 C1851 1.403 . S
C1852 C1853 1.404 . S
C1852 C1855 1.539 . S
C1853 C1849 1.408 . S
C1853 C1852 1.404 . S
C1853 H1865 0.930 . S
C1854 C1850 1.524 . S
C1854 H1866 0.956 . S
C1854 H1867 0.961 . S
C1854 H1868 0.961 . S
C1855 C1852 1.539 . S
C1855 H1869 0.958 . S
C1855 H1870 0.961 . S
C1855 H1871 0.960 . S
H1856 C1840 0.931 . S
H1857 C1845 0.929 . S
H1858 C1846 0.960 . S
H1859 C1846 0.962 . S
H1860 C1846 0.960 . S
H1861 C1847 0.961 . S
H1862 C1847 0.961 . S
H1863 C1847 0.961 . S
H1864 C1848 0.931 . S
H1865 C1853 0.930 . S
H1866 C1854 0.956 . S
H1867 C1854 0.961 . S
H1868 C1854 0.961 . S
H1869 C1855 0.958 . S
H1870 C1855 0.961 . S
H1871 C1855 0.960 . S
C1872 C1873 1.391 . S
C1872 C1874 1.394 . S
C1872 H1888 0.931 . S
C1873 C1872 1.391 . S
C1873 C1877 1.376 . S
C1874 C1872 1.394 . S
C1874 C1875 1.369 . S
C1874 C1878 1.531 . S
C1875 C1874 1.369 . S
C1875 C1876 1.410 . S
C1875 C1883 1.503 . S
C1876 C1875 1.410 . S
C1876 C1877 1.392 . S
C1876 C1879 1.511 . S
C1877 C1873 1.376 . S
C1877 C1876 1.392 . S
C1877 H1889 0.929 . S
C1878 C1874 1.531 . S
C1878 H1890 0.960 . S
C1878 H1891 0.962 . S
C1878 H1892 0.960 . S
C1879 C1876 1.511 . S
C1879 H1893 0.961 . S
C1879 H1894 0.961 . S
C1879 H1895 0.961 . S
C1880 C1881 1.370 . S
C1880 C1882 1.363 . S
C1880 H1896 0.931 . S
C1881 C1880 1.370 . S
C1881 C1885 1.408 . S
C1882 C1880 1.363 . S
C1882 C1883 1.370 . S
C1882 C1886 1.524 . S
C1883 C1875 1.503 . S
C1883 C1882 1.370 . S
C1883 C1884 1.403 . S
C1884 C1883 1.403 . S
C1884 C1885 1.404 . S
C1884 C1887 1.539 . S
C1885 C1881 1.408 . S
C1885 C1884 1.404 . S
C1885 H1897 0.930 . S
C1886 C1882 1.524 . S
C1886 H1898 0.956 . S
C1886 H1899 0.961 . S
C1886 H1900 0.961 . S
C1887 C1884 1.539 . S
C1887 H1901 0.958 . S
C1887 H1902 0.961 . S
C1887 H1903 0.960 . S
H1888 C1872 0.931 . S
H1889 C1877 0.929 . S
H1890 C1878 0.960 . S
H1891 C1878 0.962 . S
H1892 C1878 0.960 . S
H1893 C1879 0.961 . S
H1894 C1879 0.961 . S
H1895 C1879 0.961 . S
H1896 C1880 0.931 . S
H1897 C1885 0.930 . S
H1898 C1886 0.956 . S
H1899 C1886 0.961 . S
H1900 C1886 0.961 . S
H1901 C1887 0.958 . S
H1902 C1887 0.961 . S
H1903 C1887 0.960 . S
C1904 C1905 1.391 . S
C1904 C1906 1.394 . S
C1904 H1920 0.931 . S
C1905 C1904 1.391 . S
C1905 C1909 1.376 . S
C1906 C1904 1.394 . S
C1906 C1907 1.369 . S
C1906 C1910 1.531 . S
C1907 C1906 1.369 . S
C1907 C1908 1.410 . S
C1907 C1915 1.503 . S
C1908 C1907 1.410 . S
C1908 C1909 1.392 . S
C1908 C1911 1.511 . S
C1909 C1905 1.376 . S
C1909 C1908 1.392 . S
C1909 H1921 0.929 . S
C1910 C1906 1.531 . S
C1910 H1922 0.960 . S
C1910 H1923 0.962 . S
C1910 H1924 0.960 . S
C1911 C1908 1.511 . S
C1911 H1925 0.961 . S
C1911 H1926 0.961 . S
C1911 H1927 0.961 . S
C1912 C1913 1.370 . S
C1912 C1914 1.363 . S
C1912 H1928 0.931 . S
C1913 C1912 1.370 . S
C1913 C1917 1.408 . S
C1914 C1912 1.363 . S
C1914 C1915 1.370 . S
C1914 C1918 1.524 . S
C1915 C1907 1.503 . S
C1915 C1914 1.370 . S
C1915 C1916 1.403 . S
C1916 C1915 1.403 . S
C1916 C1917 1.404 . S
C1916 C1919 1.539 . S
C1917 C1913 1.408 . S
C1917 C1916 1.404 . S
C1917 H1929 0.930 . S
C1918 C1914 1.524 . S
C1918 H1930 0.956 . S
C1918 H1931 0.961 . S
C1918 H1932 0.961 . S
C1919 C1916 1.539 . S
C1919 H1933 0.958 . S
C1919 H1934 0.961 . S
C1919 H1935 0.960 . S
H1920 C1904 0.931 . S
H1921 C1909 0.929 . S
H1922 C1910 0.960 . S
H1923 C1910 0.962 . S
H1924 C1910 0.960 . S
H1925 C1911 0.961 . S
H1926 C1911 0.961 . S
H1927 C1911 0.961 . S
H1928 C1912 0.931 . S
H1929 C1917 0.930 . S
H1930 C1918 0.956 . S
H1931 C1918 0.961 . S
H1932 C1918 0.961 . S
H1933 C1919 0.958 . S
H1934 C1919 0.961 . S
H1935 C1919 0.960 . S
C1936 C1937 1.391 . S
C1936 C1938 1.394 . S
C1936 H1952 0.931 . S
C1937 C1936 1.391 . S
C1937 C1941 1.376 . S
C1938 C1936 1.394 . S
C1938 C1939 1.369 . S
C1938 C1942 1.531 . S
C1939 C1938 1.369 . S
C1939 C1940 1.410 . S
C1939 C1947 1.503 . S
C1940 C1939 1.410 . S
C1940 C1941 1.392 . S
C1940 C1943 1.511 . S
C1941 C1937 1.376 . S
C1941 C1940 1.392 . S
C1941 H1953 0.929 . S
C1942 C1938 1.531 . S
C1942 H1954 0.960 . S
C1942 H1955 0.962 . S
C1942 H1956 0.960 . S
C1943 C1940 1.511 . S
C1943 H1957 0.961 . S
C1943 H1958 0.961 . S
C1943 H1959 0.961 . S
C1944 C1945 1.370 . S
C1944 C1946 1.363 . S
C1944 H1960 0.931 1_556 S
C1945 C1944 1.370 . S
C1945 C1949 1.408 . S
C1946 C1944 1.363 . S
C1946 C1947 1.370 . S
C1946 C1950 1.524 . S
C1947 C1939 1.503 . S
C1947 C1946 1.370 . S
C1947 C1948 1.403 . S
C1948 C1947 1.403 . S
C1948 C1949 1.404 . S
C1948 C1951 1.539 . S
C1949 C1945 1.408 . S
C1949 C1948 1.404 . S
C1949 H1961 0.930 . S
C1950 C1946 1.524 . S
C1950 H1962 0.956 . S
C1950 H1963 0.961 . S
C1950 H1964 0.961 . S
C1951 C1948 1.539 . S
C1951 H1965 0.958 . S
C1951 H1966 0.961 . S
C1951 H1967 0.960 . S
H1952 C1936 0.931 . S
H1953 C1941 0.929 . S
H1954 C1942 0.960 . S
H1955 C1942 0.962 . S
H1956 C1942 0.960 . S
H1957 C1943 0.961 . S
H1958 C1943 0.961 . S
H1959 C1943 0.961 . S
H1960 C1944 0.931 1_554 S
H1961 C1949 0.930 . S
H1962 C1950 0.956 . S
H1963 C1950 0.961 . S
H1964 C1950 0.961 . S
H1965 C1951 0.958 . S
H1966 C1951 0.961 . S
H1967 C1951 0.960 . S
C1968 C1969 1.391 . S
C1968 C1970 1.394 . S
C1968 H1984 0.931 . S
C1969 C1968 1.391 . S
C1969 C1973 1.376 . S
C1970 C1968 1.394 . S
C1970 C1971 1.369 . S
C1970 C1974 1.531 . S
C1971 C1970 1.369 . S
C1971 C1972 1.410 . S
C1971 C1979 1.503 . S
C1972 C1971 1.410 . S
C1972 C1973 1.392 . S
C1972 C1975 1.511 . S
C1973 C1969 1.376 . S
C1973 C1972 1.392 . S
C1973 H1985 0.929 . S
C1974 C1970 1.531 . S
C1974 H1986 0.960 . S
C1974 H1987 0.962 . S
C1974 H1988 0.960 . S
C1975 C1972 1.511 . S
C1975 H1989 0.961 . S
C1975 H1990 0.961 . S
C1975 H1991 0.961 . S
C1976 C1977 1.370 . S
C1976 C1978 1.363 . S
C1976 H1992 0.931 . S
C1977 C1976 1.370 . S
C1977 C1981 1.408 . S
C1978 C1976 1.363 . S
C1978 C1979 1.370 . S
C1978 C1982 1.524 . S
C1979 C1971 1.503 . S
C1979 C1978 1.370 . S
C1979 C1980 1.403 . S
C1980 C1979 1.403 . S
C1980 C1981 1.404 . S
C1980 C1983 1.539 . S
C1981 C1977 1.408 . S
C1981 C1980 1.404 . S
C1981 H1993 0.930 . S
C1982 C1978 1.524 . S
C1982 H1994 0.956 . S
C1982 H1995 0.961 . S
C1982 H1996 0.961 . S
C1983 C1980 1.539 . S
C1983 H1997 0.958 . S
C1983 H1998 0.961 . S
C1983 H1999 0.960 . S
H1984 C1968 0.931 . S
H1985 C1973 0.929 . S
H1986 C1974 0.960 . S
H1987 C1974 0.962 . S
H1988 C1974 0.960 . S
H1989 C1975 0.961 . S
H1990 C1975 0.961 . S
H1991 C1975 0.961 . S
H1992 C1976 0.931 . S
H1993 C1981 0.930 . S
H1994 C1982 0.956 . S
H1995 C1982 0.961 . S
H1996 C1982 0.961 . S
H1997 C1983 0.958 . S
H1998 C1983 0.961 . S
H1999 C1983 0.960 . S
C2000 C2001 1.391 . S
C2000 C2002 1.394 . S
C2000 H2016 0.931 . S
C2001 C2000 1.391 . S
C2001 C2005 1.376 . S
C2002 C2000 1.394 . S
C2002 C2003 1.369 . S
C2002 C2006 1.531 . S
C2003 C2002 1.369 . S
C2003 C2004 1.410 . S
C2003 C2011 1.503 . S
C2004 C2003 1.410 . S
C2004 C2005 1.392 . S
C2004 C2007 1.511 . S
C2005 C2001 1.376 . S
C2005 C2004 1.392 . S
C2005 H2017 0.929 . S
C2006 C2002 1.531 . S
C2006 H2018 0.960 . S
C2006 H2019 0.962 . S
C2006 H2020 0.960 . S
C2007 C2004 1.511 . S
C2007 H2021 0.961 . S
C2007 H2022 0.961 . S
C2007 H2023 0.961 . S
C2008 C2009 1.370 . S
C2008 C2010 1.363 . S
C2008 H2024 0.931 . S
C2009 C2008 1.370 . S
C2009 C2013 1.408 . S
C2010 C2008 1.363 . S
C2010 C2011 1.370 . S
C2010 C2014 1.524 . S
C2011 C2003 1.503 . S
C2011 C2010 1.370 . S
C2011 C2012 1.403 . S
C2012 C2011 1.403 . S
C2012 C2013 1.404 . S
C2012 C2015 1.539 . S
C2013 C2009 1.408 . S
C2013 C2012 1.404 . S
C2013 H2025 0.930 . S
C2014 C2010 1.524 . S
C2014 H2026 0.956 . S
C2014 H2027 0.961 . S
C2014 H2028 0.961 . S
C2015 C2012 1.539 . S
C2015 H2029 0.958 1_545 S
C2015 H2030 0.961 1_545 S
C2015 H2031 0.960 . S
H2016 C2000 0.931 . S
H2017 C2005 0.929 . S
H2018 C2006 0.960 . S
H2019 C2006 0.962 . S
H2020 C2006 0.960 . S
H2021 C2007 0.961 . S
H2022 C2007 0.961 . S
H2023 C2007 0.961 . S
H2024 C2008 0.931 . S
H2025 C2013 0.930 . S
H2026 C2014 0.956 . S
H2027 C2014 0.961 . S
H2028 C2014 0.961 . S
H2029 C2015 0.958 1_565 S
H2030 C2015 0.961 1_565 S
H2031 C2015 0.960 . S
C2032 C2033 1.391 . S
C2032 C2034 1.394 . S
C2032 H2048 0.931 . S
C2033 C2032 1.391 . S
C2033 C2037 1.376 . S
C2034 C2032 1.394 . S
C2034 C2035 1.369 . S
C2034 C2038 1.531 . S
C2035 C2034 1.369 . S
C2035 C2036 1.410 . S
C2035 C2043 1.503 . S
C2036 C2035 1.410 . S
C2036 C2037 1.392 . S
C2036 C2039 1.511 . S
C2037 C2033 1.376 . S
C2037 C2036 1.392 . S
C2037 H2049 0.929 . S
C2038 C2034 1.531 . S
C2038 H2050 0.960 . S
C2038 H2051 0.962 . S
C2038 H2052 0.960 . S
C2039 C2036 1.511 . S
C2039 H2053 0.961 . S
C2039 H2054 0.961 . S
C2039 H2055 0.961 . S
C2040 C2041 1.370 . S
C2040 C2042 1.363 . S
C2040 H2056 0.931 . S
C2041 C2040 1.370 . S
C2041 C2045 1.408 . S
C2042 C2040 1.363 . S
C2042 C2043 1.370 . S
C2042 C2046 1.524 . S
C2043 C2035 1.503 . S
C2043 C2042 1.370 . S
C2043 C2044 1.403 . S
C2044 C2043 1.403 . S
C2044 C2045 1.404 . S
C2044 C2047 1.539 . S
C2045 C2041 1.408 . S
C2045 C2044 1.404 . S
C2045 H2057 0.930 . S
C2046 C2042 1.524 . S
C2046 H2058 0.956 . S
C2046 H2059 0.961 . S
C2046 H2060 0.961 . S
C2047 C2044 1.539 . S
C2047 H2061 0.958 . S
C2047 H2062 0.961 . S
C2047 H2063 0.960 . S
H2048 C2032 0.931 . S
H2049 C2037 0.929 . S
H2050 C2038 0.960 . S
H2051 C2038 0.962 . S
H2052 C2038 0.960 . S
H2053 C2039 0.961 . S
H2054 C2039 0.961 . S
H2055 C2039 0.961 . S
H2056 C2040 0.931 . S
H2057 C2045 0.930 . S
H2058 C2046 0.956 . S
H2059 C2046 0.961 . S
H2060 C2046 0.961 . S
H2061 C2047 0.958 . S
H2062 C2047 0.961 . S
H2063 C2047 0.960 . S
C2064 C2065 1.391 . S
C2064 C2066 1.394 . S
C2064 H2080 0.931 . S
C2065 C2064 1.391 . S
C2065 C2069 1.376 . S
C2066 C2064 1.394 . S
C2066 C2067 1.369 . S
C2066 C2070 1.531 . S
C2067 C2066 1.369 . S
C2067 C2068 1.410 . S
C2067 C2075 1.503 . S
C2068 C2067 1.410 . S
C2068 C2069 1.392 . S
C2068 C2071 1.511 . S
C2069 C2065 1.376 . S
C2069 C2068 1.392 . S
C2069 H2081 0.929 . S
C2070 C2066 1.531 . S
C2070 H2082 0.960 . S
C2070 H2083 0.962 . S
C2070 H2084 0.960 . S
C2071 C2068 1.511 . S
C2071 H2085 0.961 . S
C2071 H2086 0.961 . S
C2071 H2087 0.961 . S
C2072 C2073 1.370 . S
C2072 C2074 1.363 . S
C2072 H2088 0.931 . S
C2073 C2072 1.370 . S
C2073 C2077 1.408 . S
C2074 C2072 1.363 . S
C2074 C2075 1.370 . S
C2074 C2078 1.524 . S
C2075 C2067 1.503 . S
C2075 C2074 1.370 . S
C2075 C2076 1.403 . S
C2076 C2075 1.403 . S
C2076 C2077 1.404 . S
C2076 C2079 1.539 . S
C2077 C2073 1.408 . S
C2077 C2076 1.404 . S
C2077 H2089 0.930 . S
C2078 C2074 1.524 . S
C2078 H2090 0.956 . S
C2078 H2091 0.961 . S
C2078 H2092 0.961 . S
C2079 C2076 1.539 . S
C2079 H2093 0.958 1_545 S
C2079 H2094 0.961 . S
C2079 H2095 0.960 . S
H2080 C2064 0.931 . S
H2081 C2069 0.929 . S
H2082 C2070 0.960 . S
H2083 C2070 0.962 . S
H2084 C2070 0.960 . S
H2085 C2071 0.961 . S
H2086 C2071 0.961 . S
H2087 C2071 0.961 . S
H2088 C2072 0.931 . S
H2089 C2077 0.930 . S
H2090 C2078 0.956 . S
H2091 C2078 0.961 . S
H2092 C2078 0.961 . S
H2093 C2079 0.958 1_565 S
H2094 C2079 0.961 . S
H2095 C2079 0.960 . S
C2096 C2097 1.391 . S
C2096 C2098 1.394 . S
C2096 H2112 0.931 . S
C2097 C2096 1.391 . S
C2097 C2101 1.376 . S
C2098 C2096 1.394 . S
C2098 C2099 1.369 . S
C2098 C2102 1.531 . S
C2099 C2098 1.369 . S
C2099 C2100 1.410 . S
C2099 C2107 1.503 . S
C2100 C2099 1.410 . S
C2100 C2101 1.392 . S
C2100 C2103 1.511 . S
C2101 C2097 1.376 . S
C2101 C2100 1.392 . S
C2101 H2113 0.929 . S
C2102 C2098 1.531 . S
C2102 H2114 0.960 . S
C2102 H2115 0.962 . S
C2102 H2116 0.960 . S
C2103 C2100 1.511 . S
C2103 H2117 0.961 . S
C2103 H2118 0.961 . S
C2103 H2119 0.961 . S
C2104 C2105 1.370 . S
C2104 C2106 1.363 . S
C2104 H2120 0.931 . S
C2105 C2104 1.370 . S
C2105 C2109 1.408 . S
C2106 C2104 1.363 . S
C2106 C2107 1.370 . S
C2106 C2110 1.524 . S
C2107 C2099 1.503 . S
C2107 C2106 1.370 . S
C2107 C2108 1.403 . S
C2108 C2107 1.403 . S
C2108 C2109 1.404 . S
C2108 C2111 1.539 . S
C2109 C2105 1.408 . S
C2109 C2108 1.404 . S
C2109 H2121 0.930 . S
C2110 C2106 1.524 . S
C2110 H2122 0.956 . S
C2110 H2123 0.961 . S
C2110 H2124 0.961 . S
C2111 C2108 1.539 . S
C2111 H2125 0.958 . S
C2111 H2126 0.961 . S
C2111 H2127 0.960 . S
H2112 C2096 0.931 . S
H2113 C2101 0.929 . S
H2114 C2102 0.960 . S
H2115 C2102 0.962 . S
H2116 C2102 0.960 . S
H2117 C2103 0.961 . S
H2118 C2103 0.961 . S
H2119 C2103 0.961 . S
H2120 C2104 0.931 . S
H2121 C2109 0.930 . S
H2122 C2110 0.956 . S
H2123 C2110 0.961 . S
H2124 C2110 0.961 . S
H2125 C2111 0.958 . S
H2126 C2111 0.961 . S
H2127 C2111 0.960 . S
C2128 C2129 1.391 . S
C2128 C2130 1.394 . S
C2128 H2144 0.931 . S
C2129 C2128 1.391 . S
C2129 C2133 1.376 . S
C2130 C2128 1.394 . S
C2130 C2131 1.369 . S
C2130 C2134 1.531 . S
C2131 C2130 1.369 . S
C2131 C2132 1.410 . S
C2131 C2139 1.503 . S
C2132 C2131 1.410 . S
C2132 C2133 1.392 . S
C2132 C2135 1.511 . S
C2133 C2129 1.376 . S
C2133 C2132 1.392 . S
C2133 H2145 0.929 . S
C2134 C2130 1.531 . S
C2134 H2146 0.960 . S
C2134 H2147 0.962 . S
C2134 H2148 0.960 . S
C2135 C2132 1.511 . S
C2135 H2149 0.961 . S
C2135 H2150 0.961 . S
C2135 H2151 0.961 . S
C2136 C2137 1.370 . S
C2136 C2138 1.363 . S
C2136 H2152 0.931 . S
C2137 C2136 1.370 . S
C2137 C2141 1.408 . S
C2138 C2136 1.363 . S
C2138 C2139 1.370 . S
C2138 C2142 1.524 . S
C2139 C2131 1.503 . S
C2139 C2138 1.370 . S
C2139 C2140 1.403 . S
C2140 C2139 1.403 . S
C2140 C2141 1.404 . S
C2140 C2143 1.539 . S
C2141 C2137 1.408 . S
C2141 C2140 1.404 . S
C2141 H2153 0.930 . S
C2142 C2138 1.524 . S
C2142 H2154 0.956 . S
C2142 H2155 0.961 . S
C2142 H2156 0.961 1_545 S
C2143 C2140 1.539 . S
C2143 H2157 0.958 . S
C2143 H2158 0.961 . S
C2143 H2159 0.960 . S
H2144 C2128 0.931 . S
H2145 C2133 0.929 . S
H2146 C2134 0.960 . S
H2147 C2134 0.962 . S
H2148 C2134 0.960 . S
H2149 C2135 0.961 . S
H2150 C2135 0.961 . S
H2151 C2135 0.961 . S
H2152 C2136 0.931 . S
H2153 C2141 0.930 . S
H2154 C2142 0.956 . S
H2155 C2142 0.961 . S
H2156 C2142 0.961 1_565 S
H2157 C2143 0.958 . S
H2158 C2143 0.961 . S
H2159 C2143 0.960 . S
C2160 C2161 1.391 . S
C2160 C2162 1.394 . S
C2160 H2176 0.931 . S
C2161 C2160 1.391 . S
C2161 C2165 1.376 . S
C2162 C2160 1.394 . S
C2162 C2163 1.369 . S
C2162 C2166 1.531 . S
C2163 C2162 1.369 . S
C2163 C2164 1.410 . S
C2163 C2171 1.503 . S
C2164 C2163 1.410 . S
C2164 C2165 1.392 . S
C2164 C2167 1.511 . S
C2165 C2161 1.376 . S
C2165 C2164 1.392 . S
C2165 H2177 0.929 . S
C2166 C2162 1.531 . S
C2166 H2178 0.960 . S
C2166 H2179 0.962 . S
C2166 H2180 0.960 . S
C2167 C2164 1.511 . S
C2167 H2181 0.961 . S
C2167 H2182 0.961 . S
C2167 H2183 0.961 . S
C2168 C2169 1.370 . S
C2168 C2170 1.363 . S
C2168 H2184 0.931 . S
C2169 C2168 1.370 . S
C2169 C2173 1.408 . S
C2170 C2168 1.363 . S
C2170 C2171 1.370 . S
C2170 C2174 1.524 . S
C2171 C2163 1.503 . S
C2171 C2170 1.370 . S
C2171 C2172 1.403 . S
C2172 C2171 1.403 . S
C2172 C2173 1.404 . S
C2172 C2175 1.539 . S
C2173 C2169 1.408 . S
C2173 C2172 1.404 . S
C2173 H2185 0.930 . S
C2174 C2170 1.524 . S
C2174 H2186 0.956 . S
C2174 H2187 0.961 . S
C2174 H2188 0.961 . S
C2175 C2172 1.539 . S
C2175 H2189 0.958 . S
C2175 H2190 0.961 . S
C2175 H2191 0.960 . S
H2176 C2160 0.931 . S
H2177 C2165 0.929 . S
H2178 C2166 0.960 . S
H2179 C2166 0.962 . S
H2180 C2166 0.960 . S
H2181 C2167 0.961 . S
H2182 C2167 0.961 . S
H2183 C2167 0.961 . S
H2184 C2168 0.931 . S
H2185 C2173 0.930 . S
H2186 C2174 0.956 . S
H2187 C2174 0.961 . S
H2188 C2174 0.961 . S
H2189 C2175 0.958 . S
H2190 C2175 0.961 . S
H2191 C2175 0.960 . S
C2192 C2193 1.391 . S
C2192 C2194 1.394 . S
C2192 H2208 0.931 . S
C2193 C2192 1.391 . S
C2193 C2197 1.376 . S
C2194 C2192 1.394 . S
C2194 C2195 1.369 . S
C2194 C2198 1.531 . S
C2195 C2194 1.369 . S
C2195 C2196 1.410 . S
C2195 C2203 1.503 . S
C2196 C2195 1.410 . S
C2196 C2197 1.392 . S
C2196 C2199 1.511 . S
C2197 C2193 1.376 . S
C2197 C2196 1.392 . S
C2197 H2209 0.929 . S
C2198 C2194 1.531 . S
C2198 H2210 0.960 . S
C2198 H2211 0.962 . S
C2198 H2212 0.960 . S
C2199 C2196 1.511 . S
C2199 H2213 0.961 . S
C2199 H2214 0.961 . S
C2199 H2215 0.961 . S
C2200 C2201 1.369 1_565 S
C2200 C2202 1.350 1_565 S
C2200 H2216 0.946 . S
C2201 C2200 1.369 1_545 S
C2201 C2205 1.408 . S
C2202 C2200 1.350 1_545 S
C2202 C2203 1.370 . S
C2202 C2206 1.524 . S
C2203 C2195 1.503 . S
C2203 C2202 1.370 . S
C2203 C2204 1.403 . S
C2204 C2203 1.403 . S
C2204 C2205 1.404 . S
C2204 C2207 1.539 . S
C2205 C2201 1.408 . S
C2205 C2204 1.404 . S
C2205 H2217 0.930 . S
C2206 C2202 1.524 . S
C2206 H2218 0.956 . S
C2206 H2219 0.961 . S
C2206 H2220 0.961 1_545 S
C2207 C2204 1.539 . S
C2207 H2221 0.958 . S
C2207 H2222 0.961 . S
C2207 H2223 0.960 . S
H2208 C2192 0.931 . S
H2209 C2197 0.929 . S
H2210 C2198 0.960 . S
H2211 C2198 0.962 . S
H2212 C2198 0.960 . S
H2213 C2199 0.961 . S
H2214 C2199 0.961 . S
H2215 C2199 0.961 . S
H2216 C2200 0.946 . S
H2217 C2205 0.930 . S
H2218 C2206 0.956 . S
H2219 C2206 0.961 . S
H2220 C2206 0.961 1_565 S
H2221 C2207 0.958 . S
H2222 C2207 0.961 . S
H2223 C2207 0.960 . S
C2224 C2225 1.391 . S
C2224 C2226 1.394 . S
C2224 H2240 0.931 . S
C2225 C2224 1.391 . S
C2225 C2229 1.376 . S
C2226 C2224 1.394 . S
C2226 C2227 1.369 . S
C2226 C2230 1.531 . S
C2227 C2226 1.369 . S
C2227 C2228 1.410 . S
C2227 C2235 1.503 . S
C2228 C2227 1.410 . S
C2228 C2229 1.392 . S
C2228 C2231 1.511 . S
C2229 C2225 1.376 . S
C2229 C2228 1.392 . S
C2229 H2241 0.929 . S
C2230 C2226 1.531 . S
C2230 H2242 0.960 . S
C2230 H2243 0.962 . S
C2230 H2244 0.960 . S
C2231 C2228 1.511 . S
C2231 H2245 0.961 . S
C2231 H2246 0.961 . S
C2231 H2247 0.961 . S
C2232 C2233 1.370 . S
C2232 C2234 1.363 . S
C2232 H2248 0.931 . S
C2233 C2232 1.370 . S
C2233 C2237 1.408 . S
C2234 C2232 1.363 . S
C2234 C2235 1.370 . S
C2234 C2238 1.524 . S
C2235 C2227 1.503 . S
C2235 C2234 1.370 . S
C2235 C2236 1.403 . S
C2236 C2235 1.403 . S
C2236 C2237 1.404 . S
C2236 C2239 1.539 . S
C2237 C2233 1.408 . S
C2237 C2236 1.404 . S
C2237 H2249 0.930 . S
C2238 C2234 1.524 . S
C2238 H2250 0.956 . S
C2238 H2251 0.961 . S
C2238 H2252 0.961 . S
C2239 C2236 1.539 . S
C2239 H2253 0.958 . S
C2239 H2254 0.961 . S
C2239 H2255 0.960 . S
H2240 C2224 0.931 . S
H2241 C2229 0.929 . S
H2242 C2230 0.960 . S
H2243 C2230 0.962 . S
H2244 C2230 0.960 . S
H2245 C2231 0.961 . S
H2246 C2231 0.961 . S
H2247 C2231 0.961 . S
H2248 C2232 0.931 . S
H2249 C2237 0.930 . S
H2250 C2238 0.956 . S
H2251 C2238 0.961 . S
H2252 C2238 0.961 . S
H2253 C2239 0.958 . S
H2254 C2239 0.961 . S
H2255 C2239 0.960 . S
C2256 C2257 1.391 . S
C2256 C2258 1.394 . S
C2256 H2272 0.931 . S
C2257 C2256 1.391 . S
C2257 C2261 1.376 1_554 S
C2258 C2256 1.394 . S
C2258 C2259 1.369 1_554 S
C2258 C2262 1.531 . S
C2259 C2258 1.369 1_556 S
C2259 C2260 1.410 . S
C2259 C2267 1.503 . S
C2260 C2259 1.410 . S
C2260 C2261 1.392 . S
C2260 C2263 1.511 . S
C2261 C2257 1.376 1_556 S
C2261 C2260 1.392 . S
C2261 H2273 0.929 . S
C2262 C2258 1.531 . S
C2262 H2274 0.960 . S
C2262 H2275 0.962 . S
C2262 H2276 0.960 . S
C2263 C2260 1.511 . S
C2263 H2277 0.961 . S
C2263 H2278 0.961 . S
C2263 H2279 0.961 . S
C2264 C2265 1.370 . S
C2264 C2266 1.363 . S
C2264 H2280 0.931 . S
C2265 C2264 1.370 . S
C2265 C2269 1.408 . S
C2266 C2264 1.363 . S
C2266 C2267 1.370 . S
C2266 C2270 1.524 . S
C2267 C2259 1.503 . S
C2267 C2266 1.370 . S
C2267 C2268 1.403 . S
C2268 C2267 1.403 . S
C2268 C2269 1.404 . S
C2268 C2271 1.539 1_556 S
C2269 C2265 1.408 . S
C2269 C2268 1.404 . S
C2269 H2281 0.930 . S
C2270 C2266 1.524 . S
C2270 H2282 0.956 . S
C2270 H2283 0.961 . S
C2270 H2284 0.961 . S
C2271 C2268 1.539 1_554 S
C2271 H2285 0.958 . S
C2271 H2286 0.961 . S
C2271 H2287 0.960 . S
H2272 C2256 0.931 . S
H2273 C2261 0.929 . S
H2274 C2262 0.960 . S
H2275 C2262 0.962 . S
H2276 C2262 0.960 . S
H2277 C2263 0.961 . S
H2278 C2263 0.961 . S
H2279 C2263 0.961 . S
H2280 C2264 0.931 . S
H2281 C2269 0.930 . S
H2282 C2270 0.956 . S
H2283 C2270 0.961 . S
H2284 C2270 0.961 . S
H2285 C2271 0.958 . S
H2286 C2271 0.961 . S
H2287 C2271 0.960 . S
C2288 C2289 1.391 . S
C2288 C2290 1.394 . S
C2288 H2304 0.931 . S
C2289 C2288 1.391 . S
C2289 C2293 1.376 . S
C2290 C2288 1.394 . S
C2290 C2291 1.369 . S
C2290 C2294 1.531 . S
C2291 C2290 1.369 . S
C2291 C2292 1.410 . S
C2291 C2299 1.503 . S
C2292 C2291 1.410 . S
C2292 C2293 1.392 . S
C2292 C2295 1.511 . S
C2293 C2289 1.376 . S
C2293 C2292 1.392 . S
C2293 H2305 0.929 . S
C2294 C2290 1.531 . S
C2294 H2306 0.960 . S
C2294 H2307 0.962 . S
C2294 H2308 0.960 . S
C2295 C2292 1.511 . S
C2295 H2309 0.961 . S
C2295 H2310 0.961 . S
C2295 H2311 0.961 . S
C2296 C2297 1.370 . S
C2296 C2298 1.363 . S
C2296 H2312 0.931 . S
C2297 C2296 1.370 . S
C2297 C2301 1.408 . S
C2298 C2296 1.363 . S
C2298 C2299 1.370 . S
C2298 C2302 1.524 . S
C2299 C2291 1.503 . S
C2299 C2298 1.370 . S
C2299 C2300 1.403 . S
C2300 C2299 1.403 . S
C2300 C2301 1.404 . S
C2300 C2303 1.539 1_554 S
C2301 C2297 1.408 . S
C2301 C2300 1.404 . S
C2301 H2313 0.930 1_554 S
C2302 C2298 1.524 . S
C2302 H2314 0.956 . S
C2302 H2315 0.961 . S
C2302 H2316 0.961 . S
C2303 C2300 1.539 1_556 S
C2303 H2317 0.958 . S
C2303 H2318 0.961 . S
C2303 H2319 0.960 . S
H2304 C2288 0.931 . S
H2305 C2293 0.929 . S
H2306 C2294 0.960 . S
H2307 C2294 0.962 . S
H2308 C2294 0.960 . S
H2309 C2295 0.961 . S
H2310 C2295 0.961 . S
H2311 C2295 0.961 . S
H2312 C2296 0.931 . S
H2313 C2301 0.930 1_556 S
H2314 C2302 0.956 . S
H2315 C2302 0.961 . S
H2316 C2302 0.961 . S
H2317 C2303 0.958 . S
H2318 C2303 0.961 . S
H2319 C2303 0.960 . S
C2320 C2321 1.391 . S
C2320 C2322 1.394 . S
C2320 H2336 0.931 . S
C2321 C2320 1.391 . S
C2321 C2325 1.376 . S
C2322 C2320 1.394 . S
C2322 C2323 1.369 . S
C2322 C2326 1.531 . S
C2323 C2322 1.369 . S
C2323 C2324 1.410 . S
C2323 C2331 1.503 . S
C2324 C2323 1.410 . S
C2324 C2325 1.392 . S
C2324 C2327 1.511 . S
C2325 C2321 1.376 . S
C2325 C2324 1.392 . S
C2325 H2337 0.929 . S
C2326 C2322 1.531 . S
C2326 H2338 0.960 . S
C2326 H2339 0.962 . S
C2326 H2340 0.960 . S
C2327 C2324 1.511 . S
C2327 H2341 0.961 . S
C2327 H2342 0.961 . S
C2327 H2343 0.961 . S
C2328 C2329 1.370 . S
C2328 C2330 1.363 . S
C2328 H2344 0.931 . S
C2329 C2328 1.370 . S
C2329 C2333 1.408 . S
C2330 C2328 1.363 . S
C2330 C2331 1.370 . S
C2330 C2334 1.524 . S
C2331 C2323 1.503 . S
C2331 C2330 1.370 . S
C2331 C2332 1.403 . S
C2332 C2331 1.403 . S
C2332 C2333 1.404 . S
C2332 C2335 1.539 . S
C2333 C2329 1.408 . S
C2333 C2332 1.404 . S
C2333 H2345 0.930 . S
C2334 C2330 1.524 . S
C2334 H2346 0.956 . S
C2334 H2347 0.961 . S
C2334 H2348 0.961 . S
C2335 C2332 1.539 . S
C2335 H2349 0.958 . S
C2335 H2350 0.961 . S
C2335 H2351 0.960 . S
H2336 C2320 0.931 . S
H2337 C2325 0.929 . S
H2338 C2326 0.960 . S
H2339 C2326 0.962 . S
H2340 C2326 0.960 . S
H2341 C2327 0.961 . S
H2342 C2327 0.961 . S
H2343 C2327 0.961 . S
H2344 C2328 0.931 . S
H2345 C2333 0.930 . S
H2346 C2334 0.956 . S
H2347 C2334 0.961 . S
H2348 C2334 0.961 . S
H2349 C2335 0.958 . S
H2350 C2335 0.961 . S
H2351 C2335 0.960 . S
C2352 C2353 1.391 . S
C2352 C2354 1.394 . S
C2352 H2368 0.931 . S
C2353 C2352 1.391 . S
C2353 C2357 1.376 . S
C2354 C2352 1.394 . S
C2354 C2355 1.369 . S
C2354 C2358 1.531 . S
C2355 C2354 1.369 . S
C2355 C2356 1.410 . S
C2355 C2363 1.503 . S
C2356 C2355 1.410 . S
C2356 C2357 1.392 . S
C2356 C2359 1.511 . S
C2357 C2353 1.376 . S
C2357 C2356 1.392 . S
C2357 H2369 0.929 . S
C2358 C2354 1.531 . S
C2358 H2370 0.960 . S
C2358 H2371 0.962 . S
C2358 H2372 0.960 . S
C2359 C2356 1.511 . S
C2359 H2373 0.961 . S
C2359 H2374 0.961 . S
C2359 H2375 0.961 . S
C2360 C2361 1.370 . S
C2360 C2362 1.363 . S
C2360 H2376 0.931 . S
C2361 C2360 1.370 . S
C2361 C2365 1.408 . S
C2362 C2360 1.363 . S
C2362 C2363 1.370 . S
C2362 C2366 1.524 . S
C2363 C2355 1.503 . S
C2363 C2362 1.370 . S
C2363 C2364 1.403 . S
C2364 C2363 1.403 . S
C2364 C2365 1.404 . S
C2364 C2367 1.539 . S
C2365 C2361 1.408 . S
C2365 C2364 1.404 . S
C2365 H2377 0.930 . S
C2366 C2362 1.524 . S
C2366 H2378 0.956 . S
C2366 H2379 0.961 . S
C2366 H2380 0.961 . S
C2367 C2364 1.539 . S
C2367 H2381 0.958 . S
C2367 H2382 0.961 . S
C2367 H2383 0.960 . S
H2368 C2352 0.931 . S
H2369 C2357 0.929 . S
H2370 C2358 0.960 . S
H2371 C2358 0.962 . S
H2372 C2358 0.960 . S
H2373 C2359 0.961 . S
H2374 C2359 0.961 . S
H2375 C2359 0.961 . S
H2376 C2360 0.931 . S
H2377 C2365 0.930 . S
H2378 C2366 0.956 . S
H2379 C2366 0.961 . S
H2380 C2366 0.961 . S
H2381 C2367 0.958 . S
H2382 C2367 0.961 . S
H2383 C2367 0.960 . S
C2384 C2385 1.391 . S
C2384 C2386 1.394 . S
C2384 H2400 0.931 . S
C2385 C2384 1.391 . S
C2385 C2389 1.376 . S
C2386 C2384 1.394 . S
C2386 C2387 1.369 . S
C2386 C2390 1.531 . S
C2387 C2386 1.369 . S
C2387 C2388 1.410 . S
C2387 C2395 1.503 . S
C2388 C2387 1.410 . S
C2388 C2389 1.392 . S
C2388 C2391 1.511 . S
C2389 C2385 1.376 . S
C2389 C2388 1.392 . S
C2389 H2401 0.929 . S
C2390 C2386 1.531 . S
C2390 H2402 0.960 . S
C2390 H2403 0.962 . S
C2390 H2404 0.960 . S
C2391 C2388 1.511 . S
C2391 H2405 0.961 . S
C2391 H2406 0.961 . S
C2391 H2407 0.961 . S
C2392 C2393 1.370 . S
C2392 C2394 1.363 . S
C2392 H2408 0.931 . S
C2393 C2392 1.370 . S
C2393 C2397 1.408 . S
C2394 C2392 1.363 . S
C2394 C2395 1.370 . S
C2394 C2398 1.524 . S
C2395 C2387 1.503 . S
C2395 C2394 1.370 . S
C2395 C2396 1.403 . S
C2396 C2395 1.403 . S
C2396 C2397 1.404 . S
C2396 C2399 1.539 . S
C2397 C2393 1.408 . S
C2397 C2396 1.404 . S
C2397 H2409 0.930 . S
C2398 C2394 1.524 . S
C2398 H2410 0.956 . S
C2398 H2411 0.961 . S
C2398 H2412 0.961 . S
C2399 C2396 1.539 . S
C2399 H2413 0.958 . S
C2399 H2414 0.961 . S
C2399 H2415 0.960 . S
H2400 C2384 0.931 . S
H2401 C2389 0.929 . S
H2402 C2390 0.960 . S
H2403 C2390 0.962 . S
H2404 C2390 0.960 . S
H2405 C2391 0.961 . S
H2406 C2391 0.961 . S
H2407 C2391 0.961 . S
H2408 C2392 0.931 . S
H2409 C2397 0.930 . S
H2410 C2398 0.956 . S
H2411 C2398 0.961 . S
H2412 C2398 0.961 . S
H2413 C2399 0.958 . S
H2414 C2399 0.961 . S
H2415 C2399 0.960 . S
C2416 C2417 1.391 . S
C2416 C2418 1.394 . S
C2416 H2432 0.931 . S
C2417 C2416 1.391 . S
C2417 C2421 1.376 . S
C2418 C2416 1.394 . S
C2418 C2419 1.369 . S
C2418 C2422 1.531 . S
C2419 C2418 1.369 . S
C2419 C2420 1.410 . S
C2419 C2427 1.503 . S
C2420 C2419 1.410 . S
C2420 C2421 1.392 . S
C2420 C2423 1.511 . S
C2421 C2417 1.376 . S
C2421 C2420 1.392 . S
C2421 H2433 0.929 . S
C2422 C2418 1.531 . S
C2422 H2434 0.960 . S
C2422 H2435 0.962 . S
C2422 H2436 0.960 . S
C2423 C2420 1.511 . S
C2423 H2437 0.961 . S
C2423 H2438 0.961 . S
C2423 H2439 0.961 . S
C2424 C2425 1.370 . S
C2424 C2426 1.363 . S
C2424 H2440 0.931 1_565 S
C2425 C2424 1.370 . S
C2425 C2429 1.408 . S
C2426 C2424 1.363 . S
C2426 C2427 1.370 . S
C2426 C2430 1.524 . S
C2427 C2419 1.503 . S
C2427 C2426 1.370 . S
C2427 C2428 1.403 . S
C2428 C2427 1.403 . S
C2428 C2429 1.404 . S
C2428 C2431 1.539 . S
C2429 C2425 1.408 . S
C2429 C2428 1.404 . S
C2429 H2441 0.930 . S
C2430 C2426 1.524 . S
C2430 H2442 0.956 . S
C2430 H2443 0.961 . S
C2430 H2444 0.961 . S
C2431 C2428 1.539 . S
C2431 H2445 0.958 . S
C2431 H2446 0.961 . S
C2431 H2447 0.960 . S
H2432 C2416 0.931 . S
H2433 C2421 0.929 . S
H2434 C2422 0.960 . S
H2435 C2422 0.962 . S
H2436 C2422 0.960 . S
H2437 C2423 0.961 . S
H2438 C2423 0.961 . S
H2439 C2423 0.961 . S
H2440 C2424 0.931 1_545 S
H2441 C2429 0.930 . S
H2442 C2430 0.956 . S
H2443 C2430 0.961 . S
H2444 C2430 0.961 . S
H2445 C2431 0.958 . S
H2446 C2431 0.961 . S
H2447 C2431 0.960 . S
C2448 C2449 1.391 . S
C2448 C2450 1.394 . S
C2448 H2464 0.931 . S
C2449 C2448 1.391 . S
C2449 C2453 1.376 . S
C2450 C2448 1.394 . S
C2450 C2451 1.369 . S
C2450 C2454 1.531 . S
C2451 C2450 1.369 . S
C2451 C2452 1.410 . S
C2451 C2459 1.503 . S
C2452 C2451 1.410 . S
C2452 C2453 1.392 . S
C2452 C2455 1.511 . S
C2453 C2449 1.376 . S
C2453 C2452 1.392 . S
C2453 H2465 0.929 . S
C2454 C2450 1.531 . S
C2454 H2466 0.960 . S
C2454 H2467 0.962 . S
C2454 H2468 0.960 . S
C2455 C2452 1.511 . S
C2455 H2469 0.961 . S
C2455 H2470 0.961 . S
C2455 H2471 0.961 . S
C2456 C2457 1.370 . S
C2456 C2458 1.363 . S
C2456 H2472 0.931 . S
C2457 C2456 1.370 . S
C2457 C2461 1.408 . S
C2458 C2456 1.363 . S
C2458 C2459 1.370 . S
C2458 C2462 1.524 . S
C2459 C2451 1.503 . S
C2459 C2458 1.370 . S
C2459 C2460 1.403 . S
C2460 C2459 1.403 . S
C2460 C2461 1.404 . S
C2460 C2463 1.539 . S
C2461 C2457 1.408 . S
C2461 C2460 1.404 . S
C2461 H2473 0.930 . S
C2462 C2458 1.524 . S
C2462 H2474 0.956 . S
C2462 H2475 0.961 . S
C2462 H2476 0.961 . S
C2463 C2460 1.539 . S
C2463 H2477 0.958 . S
C2463 H2478 0.961 . S
C2463 H2479 0.960 . S
H2464 C2448 0.931 . S
H2465 C2453 0.929 . S
H2466 C2454 0.960 . S
H2467 C2454 0.962 . S
H2468 C2454 0.960 . S
H2469 C2455 0.961 . S
H2470 C2455 0.961 . S
H2471 C2455 0.961 . S
H2472 C2456 0.931 . S
H2473 C2461 0.930 . S
H2474 C2462 0.956 . S
H2475 C2462 0.961 . S
H2476 C2462 0.961 . S
H2477 C2463 0.958 . S
H2478 C2463 0.961 . S
H2479 C2463 0.960 . S
C2480 C2481 1.391 . S
C2480 C2482 1.394 . S
C2480 H2496 0.931 . S
C2481 C2480 1.391 . S
C2481 C2485 1.376 . S
C2482 C2480 1.394 . S
C2482 C2483 1.369 . S
C2482 C2486 1.531 . S
C2483 C2482 1.369 . S
C2483 C2484 1.410 . S
C2483 C2491 1.503 . S
C2484 C2483 1.410 . S
C2484 C2485 1.392 . S
C2484 C2487 1.511 . S
C2485 C2481 1.376 . S
C2485 C2484 1.392 . S
C2485 H2497 0.929 . S
C2486 C2482 1.531 . S
C2486 H2498 0.960 . S
C2486 H2499 0.962 . S
C2486 H2500 0.960 . S
C2487 C2484 1.511 . S
C2487 H2501 0.961 . S
C2487 H2502 0.961 . S
C2487 H2503 0.961 . S
C2488 C2489 1.370 . S
C2488 C2490 1.363 . S
C2488 H2504 0.931 . S
C2489 C2488 1.370 . S
C2489 C2493 1.408 . S
C2490 C2488 1.363 . S
C2490 C2491 1.370 . S
C2490 C2494 1.524 . S
C2491 C2483 1.503 . S
C2491 C2490 1.370 . S
C2491 C2492 1.403 . S
C2492 C2491 1.403 . S
C2492 C2493 1.404 . S
C2492 C2495 1.539 . S
C2493 C2489 1.408 . S
C2493 C2492 1.404 . S
C2493 H2505 0.930 . S
C2494 C2490 1.524 . S
C2494 H2506 0.956 . S
C2494 H2507 0.961 . S
C2494 H2508 0.961 . S
C2495 C2492 1.539 . S
C2495 H2509 0.958 . S
C2495 H2510 0.961 . S
C2495 H2511 0.960 . S
H2496 C2480 0.931 . S
H2497 C2485 0.929 . S
H2498 C2486 0.960 . S
H2499 C2486 0.962 . S
H2500 C2486 0.960 . S
H2501 C2487 0.961 . S
H2502 C2487 0.961 . S
H2503 C2487 0.961 . S
H2504 C2488 0.931 . S
H2505 C2493 0.930 . S
H2506 C2494 0.956 . S
H2507 C2494 0.961 . S
H2508 C2494 0.961 . S
H2509 C2495 0.958 . S
H2510 C2495 0.961 . S
H2511 C2495 0.960 . S
C2512 C2513 1.391 . S
C2512 C2514 1.394 . S
C2512 H2528 0.931 . S
C2513 C2512 1.391 . S
C2513 C2517 1.376 . S
C2514 C2512 1.394 . S
C2514 C2515 1.369 . S
C2514 C2518 1.531 . S
C2515 C2514 1.369 . S
C2515 C2516 1.410 . S
C2515 C2523 1.503 . S
C2516 C2515 1.410 . S
C2516 C2517 1.392 . S
C2516 C2519 1.511 . S
C2517 C2513 1.376 . S
C2517 C2516 1.392 . S
C2517 H2529 0.929 . S
C2518 C2514 1.531 . S
C2518 H2530 0.960 . S
C2518 H2531 0.962 . S
C2518 H2532 0.960 . S
C2519 C2516 1.511 . S
C2519 H2533 0.961 . S
C2519 H2534 0.961 . S
C2519 H2535 0.961 . S
C2520 C2521 1.370 . S
C2520 C2522 1.363 . S
C2520 H2536 0.931 . S
C2521 C2520 1.370 . S
C2521 C2525 1.408 . S
C2522 C2520 1.363 . S
C2522 C2523 1.370 . S
C2522 C2526 1.524 . S
C2523 C2515 1.503 . S
C2523 C2522 1.370 . S
C2523 C2524 1.403 . S
C2524 C2523 1.403 . S
C2524 C2525 1.404 . S
C2524 C2527 1.539 . S
C2525 C2521 1.408 . S
C2525 C2524 1.404 . S
C2525 H2537 0.930 . S
C2526 C2522 1.524 . S
C2526 H2538 0.956 . S
C2526 H2539 0.961 . S
C2526 H2540 0.961 . S
C2527 C2524 1.539 . S
C2527 H2541 0.958 . S
C2527 H2542 0.961 . S
C2527 H2543 0.960 . S
H2528 C2512 0.931 . S
H2529 C2517 0.929 . S
H2530 C2518 0.960 . S
H2531 C2518 0.962 . S
H2532 C2518 0.960 . S
H2533 C2519 0.961 . S
H2534 C2519 0.961 . S
H2535 C2519 0.961 . S
H2536 C2520 0.931 . S
H2537 C2525 0.930 . S
H2538 C2526 0.956 . S
H2539 C2526 0.961 . S
H2540 C2526 0.961 . S
H2541 C2527 0.958 . S
H2542 C2527 0.961 . S
H2543 C2527 0.960 . S
C2544 C2545 1.391 . S
C2544 C2546 1.394 . S
C2544 H2560 0.931 . S
C2545 C2544 1.391 . S
C2545 C2549 1.376 . S
C2546 C2544 1.394 . S
C2546 C2547 1.369 . S
C2546 C2550 1.531 . S
C2547 C2546 1.369 . S
C2547 C2548 1.410 . S
C2547 C2555 1.503 . S
C2548 C2547 1.410 . S
C2548 C2549 1.392 . S
C2548 C2551 1.511 . S
C2549 C2545 1.376 . S
C2549 C2548 1.392 . S
C2549 H2561 0.929 . S
C2550 C2546 1.531 . S
C2550 H2562 0.960 . S
C2550 H2563 0.962 . S
C2550 H2564 0.960 . S
C2551 C2548 1.511 . S
C2551 H2565 0.961 . S
C2551 H2566 0.961 . S
C2551 H2567 0.961 . S
C2552 C2553 1.370 . S
C2552 C2554 1.363 . S
C2552 H2568 0.931 . S
C2553 C2552 1.370 . S
C2553 C2557 1.408 . S
C2554 C2552 1.363 . S
C2554 C2555 1.370 . S
C2554 C2558 1.524 . S
C2555 C2547 1.503 . S
C2555 C2554 1.370 . S
C2555 C2556 1.403 . S
C2556 C2555 1.403 . S
C2556 C2557 1.404 . S
C2556 C2559 1.539 . S
C2557 C2553 1.408 . S
C2557 C2556 1.404 . S
C2557 H2569 0.930 . S
C2558 C2554 1.524 . S
C2558 H2570 0.956 . S
C2558 H2571 0.961 . S
C2558 H2572 0.961 . S
C2559 C2556 1.539 . S
C2559 H2573 0.958 . S
C2559 H2574 0.961 . S
C2559 H2575 0.960 . S
H2560 C2544 0.931 . S
H2561 C2549 0.929 . S
H2562 C2550 0.960 . S
H2563 C2550 0.962 . S
H2564 C2550 0.960 . S
H2565 C2551 0.961 . S
H2566 C2551 0.961 . S
H2567 C2551 0.961 . S
H2568 C2552 0.931 . S
H2569 C2557 0.930 . S
H2570 C2558 0.956 . S
H2571 C2558 0.961 . S
H2572 C2558 0.961 . S
H2573 C2559 0.958 . S
H2574 C2559 0.961 . S
H2575 C2559 0.960 . S
C2576 C2577 1.391 1_655 S
C2576 C2578 1.394 . S
C2576 H2592 0.931 . S
C2577 C2576 1.391 1_455 S
C2577 C2581 1.376 . S
C2578 C2576 1.394 . S
C2578 C2579 1.369 1_655 S
C2578 C2582 1.531 . S
C2579 C2578 1.369 1_455 S
C2579 C2580 1.410 . S
C2579 C2587 1.503 . S
C2580 C2579 1.410 . S
C2580 C2581 1.392 . S
C2580 C2583 1.511 . S
C2581 C2577 1.376 . S
C2581 C2580 1.392 . S
C2581 H2593 0.929 . S
C2582 C2578 1.531 . S
C2582 H2594 0.960 . S
C2582 H2595 0.962 . S
C2582 H2596 0.960 . S
C2583 C2580 1.511 . S
C2583 H2597 0.961 . S
C2583 H2598 0.961 . S
C2583 H2599 0.961 . S
C2584 C2585 1.370 . S
C2584 C2586 1.363 . S
C2584 H2600 0.931 . S
C2585 C2584 1.370 . S
C2585 C2589 1.408 . S
C2586 C2584 1.363 . S
C2586 C2587 1.370 . S
C2586 C2590 1.524 1_455 S
C2587 C2579 1.503 . S
C2587 C2586 1.370 . S
C2587 C2588 1.403 . S
C2588 C2587 1.403 . S
C2588 C2589 1.404 . S
C2588 C2591 1.539 . S
C2589 C2585 1.408 . S
C2589 C2588 1.404 . S
C2589 H2601 0.930 . S
C2590 C2586 1.524 1_655 S
C2590 H2602 0.956 . S
C2590 H2603 0.961 1_655 S
C2590 H2604 0.961 . S
C2591 C2588 1.539 . S
C2591 H2605 0.958 . S
C2591 H2606 0.961 . S
C2591 H2607 0.960 . S
H2592 C2576 0.931 . S
H2593 C2581 0.929 . S
H2594 C2582 0.960 . S
H2595 C2582 0.962 . S
H2596 C2582 0.960 . S
H2597 C2583 0.961 . S
H2598 C2583 0.961 . S
H2599 C2583 0.961 . S
H2600 C2584 0.931 . S
H2601 C2589 0.930 . S
H2602 C2590 0.956 . S
H2603 C2590 0.961 1_455 S
H2604 C2590 0.961 . S
H2605 C2591 0.958 . S
H2606 C2591 0.961 . S
H2607 C2591 0.960 . S
C2608 C2609 1.391 . S
C2608 C2610 1.394 1_455 S
C2608 H2624 0.931 . S
C2609 C2608 1.391 . S
C2609 C2613 1.376 . S
C2610 C2608 1.394 1_655 S
C2610 C2611 1.369 . S
C2610 C2614 1.531 . S
C2611 C2610 1.369 . S
C2611 C2612 1.410 1_655 S
C2611 C2619 1.503 . S
C2612 C2611 1.410 1_455 S
C2612 C2613 1.392 . S
C2612 C2615 1.511 . S
C2613 C2609 1.376 . S
C2613 C2612 1.392 . S
C2613 H2625 0.929 . S
C2614 C2610 1.531 . S
C2614 H2626 0.960 . S
C2614 H2627 0.962 . S
C2614 H2628 0.960 . S
C2615 C2612 1.511 . S
C2615 H2629 0.961 . S
C2615 H2630 0.961 . S
C2615 H2631 0.961 . S
C2616 C2617 1.370 . S
C2616 C2618 1.363 . S
C2616 H2632 0.931 . S
C2617 C2616 1.370 . S
C2617 C2621 1.408 . S
C2618 C2616 1.363 . S
C2618 C2619 1.370 . S
C2618 C2622 1.524 . S
C2619 C2611 1.503 . S
C2619 C2618 1.370 . S
C2619 C2620 1.403 . S
C2620 C2619 1.403 . S
C2620 C2621 1.404 . S
C2620 C2623 1.539 . S
C2621 C2617 1.408 . S
C2621 C2620 1.404 . S
C2621 H2633 0.930 . S
C2622 C2618 1.524 . S
C2622 H2634 0.956 . S
C2622 H2635 0.961 1_655 S
C2622 H2636 0.961 . S
C2623 C2620 1.539 . S
C2623 H2637 0.958 . S
C2623 H2638 0.961 . S
C2623 H2639 0.960 . S
H2624 C2608 0.931 . S
H2625 C2613 0.929 . S
H2626 C2614 0.960 . S
H2627 C2614 0.962 . S
H2628 C2614 0.960 . S
H2629 C2615 0.961 . S
H2630 C2615 0.961 . S
H2631 C2615 0.961 . S
H2632 C2616 0.931 . S
H2633 C2621 0.930 . S
H2634 C2622 0.956 . S
H2635 C2622 0.961 1_455 S
H2636 C2622 0.961 . S
H2637 C2623 0.958 . S
H2638 C2623 0.961 . S
H2639 C2623 0.960 . S
C2640 C2641 1.391 . S
C2640 C2642 1.394 . S
C2640 H2656 0.931 . S
C2641 C2640 1.391 . S
C2641 C2645 1.376 . S
C2642 C2640 1.394 . S
C2642 C2643 1.369 . S
C2642 C2646 1.531 . S
C2643 C2642 1.369 . S
C2643 C2644 1.410 . S
C2643 C2651 1.503 . S
C2644 C2643 1.410 . S
C2644 C2645 1.392 . S
C2644 C2647 1.511 . S
C2645 C2641 1.376 . S
C2645 C2644 1.392 . S
C2645 H2657 0.929 . S
C2646 C2642 1.531 . S
C2646 H2658 0.960 . S
C2646 H2659 0.962 . S
C2646 H2660 0.960 . S
C2647 C2644 1.511 . S
C2647 H2661 0.961 . S
C2647 H2662 0.961 . S
C2647 H2663 0.961 . S
C2648 C2649 1.370 . S
C2648 C2650 1.363 . S
C2648 H2664 0.931 . S
C2649 C2648 1.370 . S
C2649 C2653 1.408 . S
C2650 C2648 1.363 . S
C2650 C2651 1.370 . S
C2650 C2654 1.524 . S
C2651 C2643 1.503 . S
C2651 C2650 1.370 . S
C2651 C2652 1.403 . S
C2652 C2651 1.403 . S
C2652 C2653 1.404 . S
C2652 C2655 1.539 . S
C2653 C2649 1.408 . S
C2653 C2652 1.404 . S
C2653 H2665 0.930 . S
C2654 C2650 1.524 . S
C2654 H2666 0.956 . S
C2654 H2667 0.961 . S
C2654 H2668 0.961 . S
C2655 C2652 1.539 . S
C2655 H2669 0.958 . S
C2655 H2670 0.961 . S
C2655 H2671 0.960 . S
H2656 C2640 0.931 . S
H2657 C2645 0.929 . S
H2658 C2646 0.960 . S
H2659 C2646 0.962 . S
H2660 C2646 0.960 . S
H2661 C2647 0.961 . S
H2662 C2647 0.961 . S
H2663 C2647 0.961 . S
H2664 C2648 0.931 . S
H2665 C2653 0.930 . S
H2666 C2654 0.956 . S
H2667 C2654 0.961 . S
H2668 C2654 0.961 . S
H2669 C2655 0.958 . S
H2670 C2655 0.961 . S
H2671 C2655 0.960 . S
C2672 C2673 1.391 . S
C2672 C2674 1.394 . S
C2672 H2688 0.931 . S
C2673 C2672 1.391 . S
C2673 C2677 1.376 . S
C2674 C2672 1.394 . S
C2674 C2675 1.369 . S
C2674 C2678 1.531 . S
C2675 C2674 1.369 . S
C2675 C2676 1.410 . S
C2675 C2683 1.503 . S
C2676 C2675 1.410 . S
C2676 C2677 1.392 . S
C2676 C2679 1.511 . S
C2677 C2673 1.376 . S
C2677 C2676 1.392 . S
C2677 H2689 0.929 . S
C2678 C2674 1.531 . S
C2678 H2690 0.960 . S
C2678 H2691 0.962 . S
C2678 H2692 0.960 . S
C2679 C2676 1.511 . S
C2679 H2693 0.961 . S
C2679 H2694 0.961 . S
C2679 H2695 0.961 . S
C2680 C2681 1.370 . S
C2680 C2682 1.363 . S
C2680 H2696 0.931 . S
C2681 C2680 1.370 . S
C2681 C2685 1.408 . S
C2682 C2680 1.363 . S
C2682 C2683 1.370 . S
C2682 C2686 1.524 . S
C2683 C2675 1.503 . S
C2683 C2682 1.370 . S
C2683 C2684 1.403 . S
C2684 C2683 1.403 . S
C2684 C2685 1.404 . S
C2684 C2687 1.539 . S
C2685 C2681 1.408 . S
C2685 C2684 1.404 . S
C2685 H2697 0.930 . S
C2686 C2682 1.524 . S
C2686 H2698 0.956 . S
C2686 H2699 0.961 . S
C2686 H2700 0.961 . S
C2687 C2684 1.539 . S
C2687 H2701 0.958 . S
C2687 H2702 0.961 . S
C2687 H2703 0.960 . S
H2688 C2672 0.931 . S
H2689 C2677 0.929 . S
H2690 C2678 0.960 . S
H2691 C2678 0.962 . S
H2692 C2678 0.960 . S
H2693 C2679 0.961 . S
H2694 C2679 0.961 . S
H2695 C2679 0.961 . S
H2696 C2680 0.931 . S
H2697 C2685 0.930 . S
H2698 C2686 0.956 . S
H2699 C2686 0.961 . S
H2700 C2686 0.961 . S
H2701 C2687 0.958 . S
H2702 C2687 0.961 . S
H2703 C2687 0.960 . S
C2704 C2705 1.391 . S
C2704 C2706 1.394 . S
C2704 H2720 0.931 . S
C2705 C2704 1.391 . S
C2705 C2709 1.376 . S
C2706 C2704 1.394 . S
C2706 C2707 1.369 . S
C2706 C2710 1.531 . S
C2707 C2706 1.369 . S
C2707 C2708 1.410 . S
C2707 C2715 1.503 . S
C2708 C2707 1.410 . S
C2708 C2709 1.392 . S
C2708 C2711 1.535 . S
C2709 C2705 1.376 . S
C2709 C2708 1.392 . S
C2709 H2721 0.929 . S
C2710 C2706 1.531 . S
C2710 H2722 0.960 . S
C2710 H2723 0.962 . S
C2710 H2724 0.960 . S
C2711 C2708 1.535 . S
C2711 H2725 0.946 1_455 S
C2711 H2726 0.985 . S
C2711 H2727 0.930 1_455 S
C2712 C2713 1.370 . S
C2712 C2714 1.363 . S
C2712 H2728 0.931 . S
C2713 C2712 1.370 . S
C2713 C2717 1.408 . S
C2714 C2712 1.363 . S
C2714 C2715 1.370 . S
C2714 C2718 1.524 . S
C2715 C2707 1.503 . S
C2715 C2714 1.370 . S
C2715 C2716 1.403 . S
C2716 C2715 1.403 . S
C2716 C2717 1.404 . S
C2716 C2719 1.539 . S
C2717 C2713 1.408 . S
C2717 C2716 1.404 . S
C2717 H2729 0.930 . S
C2718 C2714 1.524 . S
C2718 H2730 0.956 . S
C2718 H2731 0.961 . S
C2718 H2732 0.961 . S
C2719 C2716 1.539 . S
C2719 H2733 0.958 . S
C2719 H2734 0.961 1_455 S
C2719 H2735 0.960 . S
H2720 C2704 0.931 . S
H2721 C2709 0.929 . S
H2722 C2710 0.960 . S
H2723 C2710 0.962 . S
H2724 C2710 0.960 . S
H2725 C2711 0.946 1_655 S
H2726 C2711 0.985 . S
H2727 C2711 0.930 1_655 S
H2728 C2712 0.931 . S
H2729 C2717 0.930 . S
H2730 C2718 0.956 . S
H2731 C2718 0.961 . S
H2732 C2718 0.961 . S
H2733 C2719 0.958 . S
H2734 C2719 0.961 1_655 S
H2735 C2719 0.960 . S
C2736 C2737 1.391 . S
C2736 C2738 1.394 . S
C2736 H2752 0.931 . S
C2737 C2736 1.391 . S
C2737 C2741 1.376 . S
C2738 C2736 1.394 . S
C2738 C2739 1.369 . S
C2738 C2742 1.531 . S
C2739 C2738 1.369 . S
C2739 C2740 1.410 . S
C2739 C2747 1.503 . S
C2740 C2739 1.410 . S
C2740 C2741 1.392 . S
C2740 C2743 1.511 . S
C2741 C2737 1.376 . S
C2741 C2740 1.392 . S
C2741 H2753 0.929 . S
C2742 C2738 1.531 . S
C2742 H2754 0.960 . S
C2742 H2755 0.962 . S
C2742 H2756 0.960 . S
C2743 C2740 1.511 . S
C2743 H2757 0.961 . S
C2743 H2758 0.961 . S
C2743 H2759 0.961 . S
C2744 C2745 1.370 . S
C2744 C2746 1.363 . S
C2744 H2760 0.931 . S
C2745 C2744 1.370 . S
C2745 C2749 1.408 . S
C2746 C2744 1.363 . S
C2746 C2747 1.370 . S
C2746 C2750 1.524 . S
C2747 C2739 1.503 . S
C2747 C2746 1.370 . S
C2747 C2748 1.403 . S
C2748 C2747 1.403 . S
C2748 C2749 1.404 . S
C2748 C2751 1.539 . S
C2749 C2745 1.408 . S
C2749 C2748 1.404 . S
C2749 H2761 0.930 . S
C2750 C2746 1.524 . S
C2750 H2762 0.956 . S
C2750 H2763 0.961 . S
C2750 H2764 0.961 . S
C2751 C2748 1.539 . S
C2751 H2765 0.958 . S
C2751 H2766 0.961 . S
C2751 H2767 0.960 . S
H2752 C2736 0.931 . S
H2753 C2741 0.929 . S
H2754 C2742 0.960 . S
H2755 C2742 0.962 . S
H2756 C2742 0.960 . S
H2757 C2743 0.961 . S
H2758 C2743 0.961 . S
H2759 C2743 0.961 . S
H2760 C2744 0.931 . S
H2761 C2749 0.930 . S
H2762 C2750 0.956 . S
H2763 C2750 0.961 . S
H2764 C2750 0.961 . S
H2765 C2751 0.958 . S
H2766 C2751 0.961 . S
H2767 C2751 0.960 . S
C2768 C2769 1.391 . S
C2768 C2770 1.394 . S
C2768 H2784 0.931 . S
C2769 C2768 1.391 . S
C2769 C2773 1.376 . S
C2770 C2768 1.394 . S
C2770 C2771 1.369 . S
C2770 C2774 1.531 . S
C2771 C2770 1.369 . S
C2771 C2772 1.410 . S
C2771 C2779 1.503 . S
C2772 C2771 1.410 . S
C2772 C2773 1.392 . S
C2772 C2775 1.511 . S
C2773 C2769 1.376 . S
C2773 C2772 1.392 . S
C2773 H2785 0.929 . S
C2774 C2770 1.531 . S
C2774 H2786 0.960 . S
C2774 H2787 0.962 . S
C2774 H2788 0.960 . S
C2775 C2772 1.511 . S
C2775 H2789 0.961 . S
C2775 H2790 0.961 . S
C2775 H2791 0.961 . S
C2776 C2777 1.370 . S
C2776 C2778 1.363 . S
C2776 H2792 0.931 . S
C2777 C2776 1.370 . S
C2777 C2781 1.408 . S
C2778 C2776 1.363 . S
C2778 C2779 1.370 . S
C2778 C2782 1.524 . S
C2779 C2771 1.503 . S
C2779 C2778 1.370 . S
C2779 C2780 1.403 . S
C2780 C2779 1.403 . S
C2780 C2781 1.404 . S
C2780 C2783 1.539 . S
C2781 C2777 1.408 . S
C2781 C2780 1.404 . S
C2781 H2793 0.930 . S
C2782 C2778 1.524 . S
C2782 H2794 0.956 . S
C2782 H2795 0.961 . S
C2782 H2796 0.961 . S
C2783 C2780 1.539 . S
C2783 H2797 0.958 . S
C2783 H2798 0.961 . S
C2783 H2799 0.960 . S
H2784 C2768 0.931 . S
H2785 C2773 0.929 . S
H2786 C2774 0.960 . S
H2787 C2774 0.962 . S
H2788 C2774 0.960 . S
H2789 C2775 0.961 . S
H2790 C2775 0.961 . S
H2791 C2775 0.961 . S
H2792 C2776 0.931 . S
H2793 C2781 0.930 . S
H2794 C2782 0.956 . S
H2795 C2782 0.961 . S
H2796 C2782 0.961 . S
H2797 C2783 0.958 . S
H2798 C2783 0.961 . S
H2799 C2783 0.960 . S
C2800 C2801 1.391 . S
C2800 C2802 1.394 . S
C2800 H2816 0.931 . S
C2801 C2800 1.391 . S
C2801 C2805 1.376 . S
C2802 C2800 1.394 . S
C2802 C2803 1.369 . S
C2802 C2806 1.531 . S
C2803 C2802 1.369 . S
C2803 C2804 1.410 . S
C2803 C2811 1.503 . S
C2804 C2803 1.410 . S
C2804 C2805 1.392 . S
C2804 C2807 1.511 . S
C2805 C2801 1.376 . S
C2805 C2804 1.392 . S
C2805 H2817 0.929 . S
C2806 C2802 1.531 . S
C2806 H2818 0.960 . S
C2806 H2819 0.962 . S
C2806 H2820 0.960 . S
C2807 C2804 1.511 . S
C2807 H2821 0.961 . S
C2807 H2822 0.961 . S
C2807 H2823 0.961 . S
C2808 C2809 1.370 . S
C2808 C2810 1.363 . S
C2808 H2824 0.931 . S
C2809 C2808 1.370 . S
C2809 C2813 1.408 . S
C2810 C2808 1.363 . S
C2810 C2811 1.370 . S
C2810 C2814 1.524 . S
C2811 C2803 1.503 . S
C2811 C2810 1.370 . S
C2811 C2812 1.403 . S
C2812 C2811 1.403 . S
C2812 C2813 1.404 . S
C2812 C2815 1.539 . S
C2813 C2809 1.408 . S
C2813 C2812 1.404 . S
C2813 H2825 0.930 . S
C2814 C2810 1.524 . S
C2814 H2826 0.956 . S
C2814 H2827 0.961 . S
C2814 H2828 0.961 . S
C2815 C2812 1.539 . S
C2815 H2829 0.958 . S
C2815 H2830 0.961 . S
C2815 H2831 0.960 . S
H2816 C2800 0.931 . S
H2817 C2805 0.929 . S
H2818 C2806 0.960 . S
H2819 C2806 0.962 . S
H2820 C2806 0.960 . S
H2821 C2807 0.961 . S
H2822 C2807 0.961 . S
H2823 C2807 0.961 . S
H2824 C2808 0.931 . S
H2825 C2813 0.930 . S
H2826 C2814 0.956 . S
H2827 C2814 0.961 . S
H2828 C2814 0.961 . S
H2829 C2815 0.958 . S
H2830 C2815 0.961 . S
H2831 C2815 0.960 . S
C2832 C2833 1.391 . S
C2832 C2834 1.394 . S
C2832 H2848 0.931 . S
C2833 C2832 1.391 . S
C2833 C2837 1.376 . S
C2834 C2832 1.394 . S
C2834 C2835 1.369 . S
C2834 C2838 1.531 . S
C2835 C2834 1.369 . S
C2835 C2836 1.410 . S
C2835 C2843 1.503 . S
C2836 C2835 1.410 . S
C2836 C2837 1.392 . S
C2836 C2839 1.511 . S
C2837 C2833 1.376 . S
C2837 C2836 1.392 . S
C2837 H2849 0.929 . S
C2838 C2834 1.531 . S
C2838 H2850 0.960 . S
C2838 H2851 0.962 . S
C2838 H2852 0.960 . S
C2839 C2836 1.511 . S
C2839 H2853 0.961 . S
C2839 H2854 0.961 . S
C2839 H2855 0.961 . S
C2840 C2841 1.370 . S
C2840 C2842 1.363 . S
C2840 H2856 0.931 . S
C2841 C2840 1.370 . S
C2841 C2845 1.408 . S
C2842 C2840 1.363 . S
C2842 C2843 1.370 . S
C2842 C2846 1.524 . S
C2843 C2835 1.503 . S
C2843 C2842 1.370 . S
C2843 C2844 1.403 . S
C2844 C2843 1.403 . S
C2844 C2845 1.404 . S
C2844 C2847 1.539 . S
C2845 C2841 1.408 . S
C2845 C2844 1.404 . S
C2845 H2857 0.930 . S
C2846 C2842 1.524 . S
C2846 H2858 0.956 . S
C2846 H2859 0.961 . S
C2846 H2860 0.961 . S
C2847 C2844 1.539 . S
C2847 H2861 0.958 . S
C2847 H2862 0.961 . S
C2847 H2863 0.960 . S
H2848 C2832 0.931 . S
H2849 C2837 0.929 . S
H2850 C2838 0.960 . S
H2851 C2838 0.962 . S
H2852 C2838 0.960 . S
H2853 C2839 0.961 . S
H2854 C2839 0.961 . S
H2855 C2839 0.961 . S
H2856 C2840 0.931 . S
H2857 C2845 0.930 . S
H2858 C2846 0.956 . S
H2859 C2846 0.961 . S
H2860 C2846 0.961 . S
H2861 C2847 0.958 . S
H2862 C2847 0.961 . S
H2863 C2847 0.960 . S
C2864 C2865 1.391 . S
C2864 C2866 1.394 . S
C2864 H2880 0.931 . S
C2865 C2864 1.391 . S
C2865 C2869 1.376 . S
C2866 C2864 1.394 . S
C2866 C2867 1.369 . S
C2866 C2870 1.531 . S
C2867 C2866 1.369 . S
C2867 C2868 1.410 . S
C2867 C2875 1.503 . S
C2868 C2867 1.410 . S
C2868 C2869 1.392 . S
C2868 C2871 1.511 . S
C2869 C2865 1.376 . S
C2869 C2868 1.392 . S
C2869 H2881 0.929 . S
C2870 C2866 1.531 . S
C2870 H2882 0.960 . S
C2870 H2883 0.962 . S
C2870 H2884 0.960 . S
C2871 C2868 1.511 . S
C2871 H2885 0.961 . S
C2871 H2886 0.961 . S
C2871 H2887 0.961 . S
C2872 C2873 1.370 . S
C2872 C2874 1.363 . S
C2872 H2888 0.931 . S
C2873 C2872 1.370 . S
C2873 C2877 1.408 . S
C2874 C2872 1.363 . S
C2874 C2875 1.370 . S
C2874 C2878 1.524 . S
C2875 C2867 1.503 . S
C2875 C2874 1.370 . S
C2875 C2876 1.403 . S
C2876 C2875 1.403 . S
C2876 C2877 1.404 . S
C2876 C2879 1.539 . S
C2877 C2873 1.408 . S
C2877 C2876 1.404 . S
C2877 H2889 0.930 . S
C2878 C2874 1.524 . S
C2878 H2890 0.956 . S
C2878 H2891 0.961 . S
C2878 H2892 0.961 . S
C2879 C2876 1.539 . S
C2879 H2893 0.958 . S
C2879 H2894 0.961 . S
C2879 H2895 0.960 . S
H2880 C2864 0.931 . S
H2881 C2869 0.929 . S
H2882 C2870 0.960 . S
H2883 C2870 0.962 . S
H2884 C2870 0.960 . S
H2885 C2871 0.961 . S
H2886 C2871 0.961 . S
H2887 C2871 0.961 . S
H2888 C2872 0.931 . S
H2889 C2877 0.930 . S
H2890 C2878 0.956 . S
H2891 C2878 0.961 . S
H2892 C2878 0.961 . S
H2893 C2879 0.958 . S
H2894 C2879 0.961 . S
H2895 C2879 0.960 . S
C2896 C2897 1.391 . S
C2896 C2898 1.394 . S
C2896 H2912 0.931 . S
C2897 C2896 1.391 . S
C2897 C2901 1.376 . S
C2898 C2896 1.394 . S
C2898 C2899 1.369 . S
C2898 C2902 1.531 . S
C2899 C2898 1.369 . S
C2899 C2900 1.410 . S
C2899 C2907 1.503 . S
C2900 C2899 1.410 . S
C2900 C2901 1.392 . S
C2900 C2903 1.511 . S
C2901 C2897 1.376 . S
C2901 C2900 1.392 . S
C2901 H2913 0.929 . S
C2902 C2898 1.531 . S
C2902 H2914 0.960 . S
C2902 H2915 0.962 . S
C2902 H2916 0.960 . S
C2903 C2900 1.511 . S
C2903 H2917 0.961 . S
C2903 H2918 0.961 . S
C2903 H2919 0.961 . S
C2904 C2905 1.370 . S
C2904 C2906 1.363 . S
C2904 H2920 0.931 . S
C2905 C2904 1.370 . S
C2905 C2909 1.408 . S
C2906 C2904 1.363 . S
C2906 C2907 1.370 . S
C2906 C2910 1.524 . S
C2907 C2899 1.503 . S
C2907 C2906 1.370 . S
C2907 C2908 1.403 . S
C2908 C2907 1.403 . S
C2908 C2909 1.404 . S
C2908 C2911 1.539 . S
C2909 C2905 1.408 . S
C2909 C2908 1.404 . S
C2909 H2921 0.930 . S
C2910 C2906 1.524 . S
C2910 H2922 0.956 . S
C2910 H2923 0.961 . S
C2910 H2924 0.961 . S
C2911 C2908 1.539 . S
C2911 H2925 0.958 . S
C2911 H2926 0.961 . S
C2911 H2927 0.960 . S
H2912 C2896 0.931 . S
H2913 C2901 0.929 . S
H2914 C2902 0.960 . S
H2915 C2902 0.962 . S
H2916 C2902 0.960 . S
H2917 C2903 0.961 . S
H2918 C2903 0.961 . S
H2919 C2903 0.961 . S
H2920 C2904 0.931 . S
H2921 C2909 0.930 . S
H2922 C2910 0.956 . S
H2923 C2910 0.961 . S
H2924 C2910 0.961 . S
H2925 C2911 0.958 . S
H2926 C2911 0.961 . S
H2927 C2911 0.960 . S
C2928 C2929 1.391 . S
C2928 C2930 1.394 . S
C2928 H2944 0.931 . S
C2929 C2928 1.391 . S
C2929 C2933 1.376 . S
C2930 C2928 1.394 . S
C2930 C2931 1.369 . S
C2930 C2934 1.531 . S
C2931 C2930 1.369 . S
C2931 C2932 1.410 . S
C2931 C2939 1.503 . S
C2932 C2931 1.410 . S
C2932 C2933 1.392 . S
C2932 C2935 1.511 . S
C2933 C2929 1.376 . S
C2933 C2932 1.392 . S
C2933 H2945 0.929 . S
C2934 C2930 1.531 . S
C2934 H2946 0.960 . S
C2934 H2947 0.962 . S
C2934 H2948 0.960 . S
C2935 C2932 1.511 . S
C2935 H2949 0.961 . S
C2935 H2950 0.961 . S
C2935 H2951 0.961 . S
C2936 C2937 1.370 . S
C2936 C2938 1.363 . S
C2936 H2952 0.931 . S
C2937 C2936 1.370 . S
C2937 C2941 1.408 . S
C2938 C2936 1.363 . S
C2938 C2939 1.370 . S
C2938 C2942 1.524 . S
C2939 C2931 1.503 . S
C2939 C2938 1.370 . S
C2939 C2940 1.403 . S
C2940 C2939 1.403 . S
C2940 C2941 1.404 . S
C2940 C2943 1.539 . S
C2941 C2937 1.408 . S
C2941 C2940 1.404 . S
C2941 H2953 0.930 . S
C2942 C2938 1.524 . S
C2942 H2954 0.956 . S
C2942 H2955 0.961 . S
C2942 H2956 0.961 . S
C2943 C2940 1.539 . S
C2943 H2957 0.958 . S
C2943 H2958 0.961 . S
C2943 H2959 0.960 . S
H2944 C2928 0.931 . S
H2945 C2933 0.929 . S
H2946 C2934 0.960 . S
H2947 C2934 0.962 . S
H2948 C2934 0.960 . S
H2949 C2935 0.961 . S
H2950 C2935 0.961 . S
H2951 C2935 0.961 . S
H2952 C2936 0.931 . S
H2953 C2941 0.930 . S
H2954 C2942 0.956 . S
H2955 C2942 0.961 . S
H2956 C2942 0.961 . S
H2957 C2943 0.958 . S
H2958 C2943 0.961 . S
H2959 C2943 0.960 . S
C2960 C2961 1.391 . S
C2960 C2962 1.394 . S
C2960 H2976 0.931 . S
C2961 C2960 1.391 . S
C2961 C2965 1.376 . S
C2962 C2960 1.394 . S
C2962 C2963 1.369 . S
C2962 C2966 1.531 . S
C2963 C2962 1.369 . S
C2963 C2964 1.410 . S
C2963 C2971 1.503 . S
C2964 C2963 1.410 . S
C2964 C2965 1.392 . S
C2964 C2967 1.511 . S
C2965 C2961 1.376 . S
C2965 C2964 1.392 . S
C2965 H2977 0.929 . S
C2966 C2962 1.531 . S
C2966 H2978 0.960 . S
C2966 H2979 0.962 . S
C2966 H2980 0.960 . S
C2967 C2964 1.511 . S
C2967 H2981 0.961 . S
C2967 H2982 0.961 . S
C2967 H2983 0.961 . S
C2968 C2969 1.370 . S
C2968 C2970 1.363 . S
C2968 H2984 0.931 . S
C2969 C2968 1.370 . S
C2969 C2973 1.408 . S
C2970 C2968 1.363 . S
C2970 C2971 1.370 . S
C2970 C2974 1.524 . S
C2971 C2963 1.503 . S
C2971 C2970 1.370 . S
C2971 C2972 1.403 . S
C2972 C2971 1.403 . S
C2972 C2973 1.404 . S
C2972 C2975 1.539 . S
C2973 C2969 1.408 . S
C2973 C2972 1.404 . S
C2973 H2985 0.930 . S
C2974 C2970 1.524 . S
C2974 H2986 0.956 . S
C2974 H2987 0.961 . S
C2974 H2988 0.961 . S
C2975 C2972 1.539 . S
C2975 H2989 0.958 . S
C2975 H2990 0.961 . S
C2975 H2991 0.960 . S
H2976 C2960 0.931 . S
H2977 C2965 0.929 . S
H2978 C2966 0.960 . S
H2979 C2966 0.962 . S
H2980 C2966 0.960 . S
H2981 C2967 0.961 . S
H2982 C2967 0.961 . S
H2983 C2967 0.961 . S
H2984 C2968 0.931 . S
H2985 C2973 0.930 . S
H2986 C2974 0.956 . S
H2987 C2974 0.961 . S
H2988 C2974 0.961 . S
H2989 C2975 0.958 . S
H2990 C2975 0.961 . S
H2991 C2975 0.960 . S
C2992 C2993 1.391 . S
C2992 C2994 1.394 . S
C2992 H3008 0.931 . S
C2993 C2992 1.391 . S
C2993 C2997 1.376 . S
C2994 C2992 1.394 . S
C2994 C2995 1.369 . S
C2994 C2998 1.531 . S
C2995 C2994 1.369 . S
C2995 C2996 1.410 . S
C2995 C3003 1.503 . S
C2996 C2995 1.410 . S
C2996 C2997 1.392 . S
C2996 C2999 1.511 . S
C2997 C2993 1.376 . S
C2997 C2996 1.392 . S
C2997 H3009 0.929 . S
C2998 C2994 1.531 . S
C2998 H3010 0.960 . S
C2998 H3011 0.962 . S
C2998 H3012 0.960 . S
C2999 C2996 1.511 . S
C2999 H3013 0.961 . S
C2999 H3014 0.961 . S
C2999 H3015 0.961 . S
C3000 C3001 1.370 . S
C3000 C3002 1.363 . S
C3000 H3016 0.931 . S
C3001 C3000 1.370 . S
C3001 C3005 1.408 . S
C3002 C3000 1.363 . S
C3002 C3003 1.370 . S
C3002 C3006 1.524 . S
C3003 C2995 1.503 . S
C3003 C3002 1.370 . S
C3003 C3004 1.403 . S
C3004 C3003 1.403 . S
C3004 C3005 1.404 . S
C3004 C3007 1.539 . S
C3005 C3001 1.408 . S
C3005 C3004 1.404 . S
C3005 H3017 0.930 . S
C3006 C3002 1.524 . S
C3006 H3018 0.956 . S
C3006 H3019 0.961 . S
C3006 H3020 0.961 . S
C3007 C3004 1.539 . S
C3007 H3021 0.958 . S
C3007 H3022 0.961 . S
C3007 H3023 0.960 . S
H3008 C2992 0.931 . S
H3009 C2997 0.929 . S
H3010 C2998 0.960 . S
H3011 C2998 0.962 . S
H3012 C2998 0.960 . S
H3013 C2999 0.961 . S
H3014 C2999 0.961 . S
H3015 C2999 0.961 . S
H3016 C3000 0.931 . S
H3017 C3005 0.930 . S
H3018 C3006 0.956 . S
H3019 C3006 0.961 . S
H3020 C3006 0.961 . S
H3021 C3007 0.958 . S
H3022 C3007 0.961 . S
H3023 C3007 0.960 . S
C3024 C3025 1.391 . S
C3024 C3026 1.394 . S
C3024 H3040 0.931 . S
C3025 C3024 1.391 . S
C3025 C3029 1.376 . S
C3026 C3024 1.394 . S
C3026 C3027 1.369 . S
C3026 C3030 1.531 . S
C3027 C3026 1.369 . S
C3027 C3028 1.410 . S
C3027 C3035 1.503 . S
C3028 C3027 1.410 . S
C3028 C3029 1.392 . S
C3028 C3031 1.511 . S
C3029 C3025 1.376 . S
C3029 C3028 1.392 . S
C3029 H3041 0.929 . S
C3030 C3026 1.531 . S
C3030 H3042 0.960 . S
C3030 H3043 0.962 . S
C3030 H3044 0.960 . S
C3031 C3028 1.511 . S
C3031 H3045 0.961 . S
C3031 H3046 0.961 . S
C3031 H3047 0.961 . S
C3032 C3033 1.370 . S
C3032 C3034 1.363 . S
C3032 H3048 0.931 . S
C3033 C3032 1.370 . S
C3033 C3037 1.408 . S
C3034 C3032 1.363 . S
C3034 C3035 1.370 . S
C3034 C3038 1.524 . S
C3035 C3027 1.503 . S
C3035 C3034 1.370 . S
C3035 C3036 1.403 . S
C3036 C3035 1.403 . S
C3036 C3037 1.404 . S
C3036 C3039 1.539 . S
C3037 C3033 1.408 . S
C3037 C3036 1.404 . S
C3037 H3049 0.930 . S
C3038 C3034 1.524 . S
C3038 H3050 0.956 . S
C3038 H3051 0.961 . S
C3038 H3052 0.961 . S
C3039 C3036 1.539 . S
C3039 H3053 0.958 . S
C3039 H3054 0.961 . S
C3039 H3055 0.960 . S
H3040 C3024 0.931 . S
H3041 C3029 0.929 . S
H3042 C3030 0.960 . S
H3043 C3030 0.962 . S
H3044 C3030 0.960 . S
H3045 C3031 0.961 . S
H3046 C3031 0.961 . S
H3047 C3031 0.961 . S
H3048 C3032 0.931 . S
H3049 C3037 0.930 . S
H3050 C3038 0.956 . S
H3051 C3038 0.961 . S
H3052 C3038 0.961 . S
H3053 C3039 0.958 . S
H3054 C3039 0.961 . S
H3055 C3039 0.960 . S
C3056 C3057 1.391 . S
C3056 C3058 1.394 . S
C3056 H3072 0.931 . S
C3057 C3056 1.391 . S
C3057 C3061 1.376 . S
C3058 C3056 1.394 . S
C3058 C3059 1.369 . S
C3058 C3062 1.531 . S
C3059 C3058 1.369 . S
C3059 C3060 1.410 . S
C3059 C3067 1.503 . S
C3060 C3059 1.410 . S
C3060 C3061 1.392 . S
C3060 C3063 1.511 . S
C3061 C3057 1.376 . S
C3061 C3060 1.392 . S
C3061 H3073 0.929 . S
C3062 C3058 1.531 . S
C3062 H3074 0.960 . S
C3062 H3075 0.962 . S
C3062 H3076 0.960 . S
C3063 C3060 1.511 . S
C3063 H3077 0.961 . S
C3063 H3078 0.961 . S
C3063 H3079 0.961 . S
C3064 C3065 1.370 . S
C3064 C3066 1.363 . S
C3064 H3080 0.931 . S
C3065 C3064 1.370 . S
C3065 C3069 1.408 . S
C3066 C3064 1.363 . S
C3066 C3067 1.370 . S
C3066 C3070 1.524 . S
C3067 C3059 1.503 . S
C3067 C3066 1.370 . S
C3067 C3068 1.403 . S
C3068 C3067 1.403 . S
C3068 C3069 1.404 . S
C3068 C3071 1.539 . S
C3069 C3065 1.408 . S
C3069 C3068 1.404 . S
C3069 H3081 0.930 . S
C3070 C3066 1.524 . S
C3070 H3082 0.956 . S
C3070 H3083 0.961 . S
C3070 H3084 0.961 . S
C3071 C3068 1.539 . S
C3071 H3085 0.958 . S
C3071 H3086 0.961 . S
C3071 H3087 0.960 . S
H3072 C3056 0.931 . S
H3073 C3061 0.929 . S
H3074 C3062 0.960 . S
H3075 C3062 0.962 . S
H3076 C3062 0.960 . S
H3077 C3063 0.961 . S
H3078 C3063 0.961 . S
H3079 C3063 0.961 . S
H3080 C3064 0.931 . S
H3081 C3069 0.930 . S
H3082 C3070 0.956 . S
H3083 C3070 0.961 . S
H3084 C3070 0.961 . S
H3085 C3071 0.958 . S
H3086 C3071 0.961 . S
H3087 C3071 0.960 . S
C3088 C3089 1.391 1_565 S
C3088 C3090 1.394 . S
C3088 H3104 0.931 . S
C3089 C3088 1.391 1_545 S
C3089 C3093 1.376 . S
C3090 C3088 1.394 . S
C3090 C3091 1.369 . S
C3090 C3094 1.531 . S
C3091 C3090 1.369 . S
C3091 C3092 1.410 . S
C3091 C3099 1.503 . S
C3092 C3091 1.410 . S
C3092 C3093 1.392 1_565 S
C3092 C3095 1.511 . S
C3093 C3089 1.376 . S
C3093 C3092 1.392 1_545 S
C3093 H3105 0.929 . S
C3094 C3090 1.531 . S
C3094 H3106 0.960 . S
C3094 H3107 0.962 . S
C3094 H3108 0.960 . S
C3095 C3092 1.511 . S
C3095 H3109 0.961 . S
C3095 H3110 0.961 . S
C3095 H3111 0.961 . S
C3096 C3097 1.370 . S
C3096 C3098 1.363 . S
C3096 H3112 0.931 . S
C3097 C3096 1.370 . S
C3097 C3101 1.408 . S
C3098 C3096 1.363 . S
C3098 C3099 1.370 . S
C3098 C3102 1.524 . S
C3099 C3091 1.503 . S
C3099 C3098 1.370 . S
C3099 C3100 1.403 . S
C3100 C3099 1.403 . S
C3100 C3101 1.404 . S
C3100 C3103 1.539 . S
C3101 C3097 1.408 . S
C3101 C3100 1.404 . S
C3101 H3113 0.930 . S
C3102 C3098 1.524 . S
C3102 H3114 0.956 . S
C3102 H3115 0.961 . S
C3102 H3116 0.961 . S
C3103 C3100 1.539 . S
C3103 H3117 0.958 . S
C3103 H3118 0.961 . S
C3103 H3119 0.960 . S
H3104 C3088 0.931 . S
H3105 C3093 0.929 . S
H3106 C3094 0.960 . S
H3107 C3094 0.962 . S
H3108 C3094 0.960 . S
H3109 C3095 0.961 . S
H3110 C3095 0.961 . S
H3111 C3095 0.961 . S
H3112 C3096 0.931 . S
H3113 C3101 0.930 . S
H3114 C3102 0.956 . S
H3115 C3102 0.961 . S
H3116 C3102 0.961 . S
H3117 C3103 0.958 . S
H3118 C3103 0.961 . S
H3119 C3103 0.960 . S
C3120 C3121 1.391 . S
C3120 C3122 1.394 . S
C3120 H3136 0.931 . S
C3121 C3120 1.391 . S
C3121 C3125 1.376 . S
C3122 C3120 1.394 . S
C3122 C3123 1.369 . S
C3122 C3126 1.531 . S
C3123 C3122 1.369 . S
C3123 C3124 1.410 . S
C3123 C3131 1.503 . S
C3124 C3123 1.410 . S
C3124 C3125 1.392 . S
C3124 C3127 1.511 . S
C3125 C3121 1.376 . S
C3125 C3124 1.392 . S
C3125 H3137 0.929 . S
C3126 C3122 1.531 . S
C3126 H3138 0.960 . S
C3126 H3139 0.962 . S
C3126 H3140 0.960 . S
C3127 C3124 1.511 . S
C3127 H3141 0.961 . S
C3127 H3142 0.961 . S
C3127 H3143 0.961 . S
C3128 C3129 1.363 1_565 S
C3128 C3130 1.363 . S
C3128 H3144 0.931 . S
C3129 C3128 1.363 1_545 S
C3129 C3133 1.409 1_545 S
C3130 C3128 1.363 . S
C3130 C3131 1.370 . S
C3130 C3134 1.524 . S
C3131 C3123 1.503 . S
C3131 C3130 1.370 . S
C3131 C3132 1.403 . S
C3132 C3131 1.403 . S
C3132 C3133 1.404 . S
C3132 C3135 1.542 1_554 S
C3133 C3129 1.409 1_565 S
C3133 C3132 1.404 . S
C3133 H3145 0.930 1_565 S
C3134 C3130 1.524 . S
C3134 H3146 0.956 . S
C3134 H3147 0.961 . S
C3134 H3148 0.961 . S
C3135 C3132 1.542 1_556 S
C3135 H3149 0.955 . S
C3135 H3150 0.959 . S
C3135 H3151 0.962 1_556 S
H3136 C3120 0.931 . S
H3137 C3125 0.929 . S
H3138 C3126 0.960 . S
H3139 C3126 0.962 . S
H3140 C3126 0.960 . S
H3141 C3127 0.961 . S
H3142 C3127 0.961 . S
H3143 C3127 0.961 . S
H3144 C3128 0.931 . S
H3145 C3133 0.930 1_545 S
H3146 C3134 0.956 . S
H3147 C3134 0.961 . S
H3148 C3134 0.961 . S
H3149 C3135 0.955 . S
H3150 C3135 0.959 . S
H3151 C3135 0.962 1_554 S
C3152 C3153 1.391 . S
C3152 C3154 1.394 . S
C3152 H3168 0.931 . S
C3153 C3152 1.391 . S
C3153 C3157 1.376 . S
C3154 C3152 1.394 . S
C3154 C3155 1.369 . S
C3154 C3158 1.531 . S
C3155 C3154 1.369 . S
C3155 C3156 1.410 . S
C3155 C3163 1.503 . S
C3156 C3155 1.410 . S
C3156 C3157 1.392 . S
C3156 C3159 1.511 . S
C3157 C3153 1.376 . S
C3157 C3156 1.392 . S
C3157 H3169 0.929 . S
C3158 C3154 1.531 . S
C3158 H3170 0.960 . S
C3158 H3171 0.962 . S
C3158 H3172 0.960 . S
C3159 C3156 1.511 . S
C3159 H3173 0.961 . S
C3159 H3174 0.961 . S
C3159 H3175 0.961 . S
C3160 C3161 1.370 . S
C3160 C3162 1.363 . S
C3160 H3176 0.931 . S
C3161 C3160 1.370 . S
C3161 C3165 1.408 . S
C3162 C3160 1.363 . S
C3162 C3163 1.370 . S
C3162 C3166 1.524 . S
C3163 C3155 1.503 . S
C3163 C3162 1.370 . S
C3163 C3164 1.403 . S
C3164 C3163 1.403 . S
C3164 C3165 1.404 . S
C3164 C3167 1.539 . S
C3165 C3161 1.408 . S
C3165 C3164 1.404 . S
C3165 H3177 0.930 . S
C3166 C3162 1.524 . S
C3166 H3178 0.956 . S
C3166 H3179 0.961 . S
C3166 H3180 0.961 . S
C3167 C3164 1.539 . S
C3167 H3181 0.958 . S
C3167 H3182 0.961 . S
C3167 H3183 0.960 . S
H3168 C3152 0.931 . S
H3169 C3157 0.929 . S
H3170 C3158 0.960 . S
H3171 C3158 0.962 . S
H3172 C3158 0.960 . S
H3173 C3159 0.961 . S
H3174 C3159 0.961 . S
H3175 C3159 0.961 . S
H3176 C3160 0.931 . S
H3177 C3165 0.930 . S
H3178 C3166 0.956 . S
H3179 C3166 0.961 . S
H3180 C3166 0.961 . S
H3181 C3167 0.958 . S
H3182 C3167 0.961 . S
H3183 C3167 0.960 . S
C3184 C3185 1.391 . S
C3184 C3186 1.394 . S
C3184 H3200 0.931 . S
C3185 C3184 1.391 . S
C3185 C3189 1.376 . S
C3186 C3184 1.394 . S
C3186 C3187 1.369 . S
C3186 C3190 1.531 . S
C3187 C3186 1.369 . S
C3187 C3188 1.410 . S
C3187 C3195 1.503 . S
C3188 C3187 1.410 . S
C3188 C3189 1.392 . S
C3188 C3191 1.511 . S
C3189 C3185 1.376 . S
C3189 C3188 1.392 . S
C3189 H3201 0.929 . S
C3190 C3186 1.531 . S
C3190 H3202 0.960 . S
C3190 H3203 0.962 . S
C3190 H3204 0.960 . S
C3191 C3188 1.511 . S
C3191 H3205 0.961 . S
C3191 H3206 0.961 . S
C3191 H3207 0.961 . S
C3192 C3193 1.370 . S
C3192 C3194 1.363 . S
C3192 H3208 0.931 . S
C3193 C3192 1.370 . S
C3193 C3197 1.408 . S
C3194 C3192 1.363 . S
C3194 C3195 1.370 . S
C3194 C3198 1.524 . S
C3195 C3187 1.503 . S
C3195 C3194 1.370 . S
C3195 C3196 1.403 . S
C3196 C3195 1.403 . S
C3196 C3197 1.404 . S
C3196 C3199 1.539 1_554 S
C3197 C3193 1.408 . S
C3197 C3196 1.404 . S
C3197 H3209 0.930 1_554 S
C3198 C3194 1.524 . S
C3198 H3210 0.956 . S
C3198 H3211 0.961 . S
C3198 H3212 0.961 . S
C3199 C3196 1.539 1_556 S
C3199 H3213 0.958 . S
C3199 H3214 0.961 . S
C3199 H3215 0.960 . S
H3200 C3184 0.931 . S
H3201 C3189 0.929 . S
H3202 C3190 0.960 . S
H3203 C3190 0.962 . S
H3204 C3190 0.960 . S
H3205 C3191 0.961 . S
H3206 C3191 0.961 . S
H3207 C3191 0.961 . S
H3208 C3192 0.931 . S
H3209 C3197 0.930 1_556 S
H3210 C3198 0.956 . S
H3211 C3198 0.961 . S
H3212 C3198 0.961 . S
H3213 C3199 0.958 . S
H3214 C3199 0.961 . S
H3215 C3199 0.960 . S
C3216 C3217 1.391 . S
C3216 C3218 1.394 . S
C3216 H3232 0.931 . S
C3217 C3216 1.391 . S
C3217 C3221 1.376 . S
C3218 C3216 1.394 . S
C3218 C3219 1.369 . S
C3218 C3222 1.531 . S
C3219 C3218 1.369 . S
C3219 C3220 1.410 . S
C3219 C3227 1.503 . S
C3220 C3219 1.410 . S
C3220 C3221 1.392 . S
C3220 C3223 1.511 . S
C3221 C3217 1.376 . S
C3221 C3220 1.392 . S
C3221 H3233 0.929 . S
C3222 C3218 1.531 . S
C3222 H3234 0.960 . S
C3222 H3235 0.962 . S
C3222 H3236 0.960 . S
C3223 C3220 1.511 . S
C3223 H3237 0.961 . S
C3223 H3238 0.961 . S
C3223 H3239 0.961 . S
C3224 C3225 1.370 . S
C3224 C3226 1.363 . S
C3224 H3240 0.931 . S
C3225 C3224 1.370 . S
C3225 C3229 1.408 . S
C3226 C3224 1.363 . S
C3226 C3227 1.370 . S
C3226 C3230 1.524 . S
C3227 C3219 1.503 . S
C3227 C3226 1.370 . S
C3227 C3228 1.403 . S
C3228 C3227 1.403 . S
C3228 C3229 1.404 . S
C3228 C3231 1.539 . S
C3229 C3225 1.408 . S
C3229 C3228 1.404 . S
C3229 H3241 0.930 . S
C3230 C3226 1.524 . S
C3230 H3242 0.956 . S
C3230 H3243 0.961 . S
C3230 H3244 0.961 . S
C3231 C3228 1.539 . S
C3231 H3245 0.958 . S
C3231 H3246 0.961 . S
C3231 H3247 0.960 . S
H3232 C3216 0.931 . S
H3233 C3221 0.929 . S
H3234 C3222 0.960 . S
H3235 C3222 0.962 . S
H3236 C3222 0.960 . S
H3237 C3223 0.961 . S
H3238 C3223 0.961 . S
H3239 C3223 0.961 . S
H3240 C3224 0.931 . S
H3241 C3229 0.930 . S
H3242 C3230 0.956 . S
H3243 C3230 0.961 . S
H3244 C3230 0.961 . S
H3245 C3231 0.958 . S
H3246 C3231 0.961 . S
H3247 C3231 0.960 . S
C3248 C3249 1.391 1_565 S
C3248 C3250 1.394 . S
C3248 H3264 0.931 . S
C3249 C3248 1.391 1_545 S
C3249 C3253 1.376 . S
C3250 C3248 1.394 . S
C3250 C3251 1.369 . S
C3250 C3254 1.531 . S
C3251 C3250 1.369 . S
C3251 C3252 1.410 . S
C3251 C3259 1.503 . S
C3252 C3251 1.410 . S
C3252 C3253 1.392 1_565 S
C3252 C3255 1.511 . S
C3253 C3249 1.376 . S
C3253 C3252 1.392 1_545 S
C3253 H3265 0.929 . S
C3254 C3250 1.531 . S
C3254 H3266 0.960 . S
C3254 H3267 0.962 . S
C3254 H3268 0.960 . S
C3255 C3252 1.511 . S
C3255 H3269 0.961 1_565 S
C3255 H3270 0.961 . S
C3255 H3271 0.961 . S
C3256 C3257 1.370 . S
C3256 C3258 1.363 . S
C3256 H3272 0.931 . S
C3257 C3256 1.370 . S
C3257 C3261 1.408 . S
C3258 C3256 1.363 . S
C3258 C3259 1.370 . S
C3258 C3262 1.524 . S
C3259 C3251 1.503 . S
C3259 C3258 1.370 . S
C3259 C3260 1.403 . S
C3260 C3259 1.403 . S
C3260 C3261 1.404 . S
C3260 C3263 1.539 . S
C3261 C3257 1.408 . S
C3261 C3260 1.404 . S
C3261 H3273 0.930 . S
C3262 C3258 1.524 . S
C3262 H3274 0.956 . S
C3262 H3275 0.961 . S
C3262 H3276 0.961 . S
C3263 C3260 1.539 . S
C3263 H3277 0.958 . S
C3263 H3278 0.961 . S
C3263 H3279 0.960 . S
H3264 C3248 0.931 . S
H3265 C3253 0.929 . S
H3266 C3254 0.960 . S
H3267 C3254 0.962 . S
H3268 C3254 0.960 . S
H3269 C3255 0.961 1_545 S
H3270 C3255 0.961 . S
H3271 C3255 0.961 . S
H3272 C3256 0.931 . S
H3273 C3261 0.930 . S
H3274 C3262 0.956 . S
H3275 C3262 0.961 . S
H3276 C3262 0.961 . S
H3277 C3263 0.958 . S
H3278 C3263 0.961 . S
H3279 C3263 0.960 . S
C3280 C3281 1.391 . S
C3280 C3282 1.394 . S
C3280 H3296 0.931 . S
C3281 C3280 1.391 . S
C3281 C3285 1.376 . S
C3282 C3280 1.394 . S
C3282 C3283 1.369 . S
C3282 C3286 1.531 . S
C3283 C3282 1.369 . S
C3283 C3284 1.410 . S
C3283 C3291 1.503 . S
C3284 C3283 1.410 . S
C3284 C3285 1.392 . S
C3284 C3287 1.511 . S
C3285 C3281 1.376 . S
C3285 C3284 1.392 . S
C3285 H3297 0.929 . S
C3286 C3282 1.531 . S
C3286 H3298 0.960 . S
C3286 H3299 0.962 . S
C3286 H3300 0.960 . S
C3287 C3284 1.511 . S
C3287 H3301 0.961 . S
C3287 H3302 0.961 . S
C3287 H3303 0.961 . S
C3288 C3289 1.370 . S
C3288 C3290 1.363 . S
C3288 H3304 0.931 . S
C3289 C3288 1.370 . S
C3289 C3293 1.408 . S
C3290 C3288 1.363 . S
C3290 C3291 1.370 . S
C3290 C3294 1.524 . S
C3291 C3283 1.503 . S
C3291 C3290 1.370 . S
C3291 C3292 1.403 . S
C3292 C3291 1.403 . S
C3292 C3293 1.404 . S
C3292 C3295 1.539 . S
C3293 C3289 1.408 . S
C3293 C3292 1.404 . S
C3293 H3305 0.930 . S
C3294 C3290 1.524 . S
C3294 H3306 0.956 . S
C3294 H3307 0.961 . S
C3294 H3308 0.961 . S
C3295 C3292 1.539 . S
C3295 H3309 0.958 . S
C3295 H3310 0.961 . S
C3295 H3311 0.960 . S
H3296 C3280 0.931 . S
H3297 C3285 0.929 . S
H3298 C3286 0.960 . S
H3299 C3286 0.962 . S
H3300 C3286 0.960 . S
H3301 C3287 0.961 . S
H3302 C3287 0.961 . S
H3303 C3287 0.961 . S
H3304 C3288 0.931 . S
H3305 C3293 0.930 . S
H3306 C3294 0.956 . S
H3307 C3294 0.961 . S
H3308 C3294 0.961 . S
H3309 C3295 0.958 . S
H3310 C3295 0.961 . S
H3311 C3295 0.960 . S
C3312 C3313 1.391 . S
C3312 C3314 1.394 . S
C3312 H3328 0.931 . S
C3313 C3312 1.391 . S
C3313 C3317 1.376 . S
C3314 C3312 1.394 . S
C3314 C3315 1.369 . S
C3314 C3318 1.531 . S
C3315 C3314 1.369 . S
C3315 C3316 1.410 . S
C3315 C3323 1.503 . S
C3316 C3315 1.410 . S
C3316 C3317 1.392 . S
C3316 C3319 1.511 . S
C3317 C3313 1.376 . S
C3317 C3316 1.392 . S
C3317 H3329 0.929 . S
C3318 C3314 1.531 . S
C3318 H3330 0.960 . S
C3318 H3331 0.962 . S
C3318 H3332 0.960 . S
C3319 C3316 1.511 . S
C3319 H3333 0.961 . S
C3319 H3334 0.961 . S
C3319 H3335 0.961 . S
C3320 C3321 1.370 . S
C3320 C3322 1.363 . S
C3320 H3336 0.931 . S
C3321 C3320 1.370 . S
C3321 C3325 1.408 . S
C3322 C3320 1.363 . S
C3322 C3323 1.370 . S
C3322 C3326 1.524 . S
C3323 C3315 1.503 . S
C3323 C3322 1.370 . S
C3323 C3324 1.403 . S
C3324 C3323 1.403 . S
C3324 C3325 1.404 . S
C3324 C3327 1.539 . S
C3325 C3321 1.408 . S
C3325 C3324 1.404 . S
C3325 H3337 0.930 . S
C3326 C3322 1.524 . S
C3326 H3338 0.956 . S
C3326 H3339 0.961 . S
C3326 H3340 0.961 . S
C3327 C3324 1.539 . S
C3327 H3341 0.958 . S
C3327 H3342 0.961 . S
C3327 H3343 0.960 . S
H3328 C3312 0.931 . S
H3329 C3317 0.929 . S
H3330 C3318 0.960 . S
H3331 C3318 0.962 . S
H3332 C3318 0.960 . S
H3333 C3319 0.961 . S
H3334 C3319 0.961 . S
H3335 C3319 0.961 . S
H3336 C3320 0.931 . S
H3337 C3325 0.930 . S
H3338 C3326 0.956 . S
H3339 C3326 0.961 . S
H3340 C3326 0.961 . S
H3341 C3327 0.958 . S
H3342 C3327 0.961 . S
H3343 C3327 0.960 . S
C3344 C3345 1.391 . S
C3344 C3346 1.394 . S
C3344 H3360 0.931 . S
C3345 C3344 1.391 . S
C3345 C3349 1.376 . S
C3346 C3344 1.394 . S
C3346 C3347 1.369 . S
C3346 C3350 1.531 . S
C3347 C3346 1.369 . S
C3347 C3348 1.410 . S
C3347 C3355 1.503 . S
C3348 C3347 1.410 . S
C3348 C3349 1.392 . S
C3348 C3351 1.511 . S
C3349 C3345 1.376 . S
C3349 C3348 1.392 . S
C3349 H3361 0.929 . S
C3350 C3346 1.531 . S
C3350 H3362 0.960 . S
C3350 H3363 0.962 . S
C3350 H3364 0.960 . S
C3351 C3348 1.511 . S
C3351 H3365 0.961 . S
C3351 H3366 0.961 . S
C3351 H3367 0.961 . S
C3352 C3353 1.370 . S
C3352 C3354 1.363 . S
C3352 H3368 0.931 . S
C3353 C3352 1.370 . S
C3353 C3357 1.408 . S
C3354 C3352 1.363 . S
C3354 C3355 1.370 . S
C3354 C3358 1.524 . S
C3355 C3347 1.503 . S
C3355 C3354 1.370 . S
C3355 C3356 1.403 . S
C3356 C3355 1.403 . S
C3356 C3357 1.404 . S
C3356 C3359 1.539 . S
C3357 C3353 1.408 . S
C3357 C3356 1.404 . S
C3357 H3369 0.930 . S
C3358 C3354 1.524 . S
C3358 H3370 0.956 . S
C3358 H3371 0.961 . S
C3358 H3372 0.961 . S
C3359 C3356 1.539 . S
C3359 H3373 0.958 . S
C3359 H3374 0.961 . S
C3359 H3375 0.960 . S
H3360 C3344 0.931 . S
H3361 C3349 0.929 . S
H3362 C3350 0.960 . S
H3363 C3350 0.962 . S
H3364 C3350 0.960 . S
H3365 C3351 0.961 . S
H3366 C3351 0.961 . S
H3367 C3351 0.961 . S
H3368 C3352 0.931 . S
H3369 C3357 0.930 . S
H3370 C3358 0.956 . S
H3371 C3358 0.961 . S
H3372 C3358 0.961 . S
H3373 C3359 0.958 . S
H3374 C3359 0.961 . S
H3375 C3359 0.960 . S
C3376 C3377 1.391 . S
C3376 C3378 1.394 . S
C3376 H3392 0.931 . S
C3377 C3376 1.391 . S
C3377 C3381 1.376 . S
C3378 C3376 1.394 . S
C3378 C3379 1.369 . S
C3378 C3382 1.531 . S
C3379 C3378 1.369 . S
C3379 C3380 1.410 . S
C3379 C3387 1.503 . S
C3380 C3379 1.410 . S
C3380 C3381 1.392 . S
C3380 C3383 1.511 . S
C3381 C3377 1.376 . S
C3381 C3380 1.392 . S
C3381 H3393 0.929 . S
C3382 C3378 1.531 . S
C3382 H3394 0.960 . S
C3382 H3395 0.962 . S
C3382 H3396 0.960 . S
C3383 C3380 1.511 . S
C3383 H3397 0.961 . S
C3383 H3398 0.961 . S
C3383 H3399 0.961 . S
C3384 C3385 1.370 . S
C3384 C3386 1.363 . S
C3384 H3400 0.931 . S
C3385 C3384 1.370 . S
C3385 C3389 1.408 . S
C3386 C3384 1.363 . S
C3386 C3387 1.370 . S
C3386 C3390 1.524 . S
C3387 C3379 1.503 . S
C3387 C3386 1.370 . S
C3387 C3388 1.403 . S
C3388 C3387 1.403 . S
C3388 C3389 1.404 . S
C3388 C3391 1.539 . S
C3389 C3385 1.408 . S
C3389 C3388 1.404 . S
C3389 H3401 0.930 . S
C3390 C3386 1.524 . S
C3390 H3402 0.956 . S
C3390 H3403 0.961 . S
C3390 H3404 0.961 . S
C3391 C3388 1.539 . S
C3391 H3405 0.958 . S
C3391 H3406 0.961 . S
C3391 H3407 0.960 . S
H3392 C3376 0.931 . S
H3393 C3381 0.929 . S
H3394 C3382 0.960 . S
H3395 C3382 0.962 . S
H3396 C3382 0.960 . S
H3397 C3383 0.961 . S
H3398 C3383 0.961 . S
H3399 C3383 0.961 . S
H3400 C3384 0.931 . S
H3401 C3389 0.930 . S
H3402 C3390 0.956 . S
H3403 C3390 0.961 . S
H3404 C3390 0.961 . S
H3405 C3391 0.958 . S
H3406 C3391 0.961 . S
H3407 C3391 0.960 . S
C3408 C3409 1.391 . S
C3408 C3410 1.394 . S
C3408 H3424 0.931 . S
C3409 C3408 1.391 . S
C3409 C3413 1.376 . S
C3410 C3408 1.394 . S
C3410 C3411 1.369 . S
C3410 C3414 1.531 . S
C3411 C3410 1.369 . S
C3411 C3412 1.410 . S
C3411 C3419 1.503 . S
C3412 C3411 1.410 . S
C3412 C3413 1.392 . S
C3412 C3415 1.511 . S
C3413 C3409 1.376 . S
C3413 C3412 1.392 . S
C3413 H3425 0.929 . S
C3414 C3410 1.531 . S
C3414 H3426 0.960 . S
C3414 H3427 0.962 . S
C3414 H3428 0.960 . S
C3415 C3412 1.511 . S
C3415 H3429 0.961 . S
C3415 H3430 0.961 . S
C3415 H3431 0.961 . S
C3416 C3417 1.370 . S
C3416 C3418 1.363 . S
C3416 H3432 0.931 1_556 S
C3417 C3416 1.370 . S
C3417 C3421 1.408 . S
C3418 C3416 1.363 . S
C3418 C3419 1.370 . S
C3418 C3422 1.524 . S
C3419 C3411 1.503 . S
C3419 C3418 1.370 . S
C3419 C3420 1.403 . S
C3420 C3419 1.403 . S
C3420 C3421 1.404 . S
C3420 C3423 1.539 . S
C3421 C3417 1.408 . S
C3421 C3420 1.404 . S
C3421 H3433 0.930 . S
C3422 C3418 1.524 . S
C3422 H3434 0.956 . S
C3422 H3435 0.961 . S
C3422 H3436 0.961 1_556 S
C3423 C3420 1.539 . S
C3423 H3437 0.958 . S
C3423 H3438 0.961 . S
C3423 H3439 0.960 . S
H3424 C3408 0.931 . S
H3425 C3413 0.929 . S
H3426 C3414 0.960 . S
H3427 C3414 0.962 . S
H3428 C3414 0.960 . S
H3429 C3415 0.961 . S
H3430 C3415 0.961 . S
H3431 C3415 0.961 . S
H3432 C3416 0.931 1_554 S
H3433 C3421 0.930 . S
H3434 C3422 0.956 . S
H3435 C3422 0.961 . S
H3436 C3422 0.961 1_554 S
H3437 C3423 0.958 . S
H3438 C3423 0.961 . S
H3439 C3423 0.960 . S
C3440 C3441 1.391 . S
C3440 C3442 1.394 . S
C3440 H3456 0.931 . S
C3441 C3440 1.391 . S
C3441 C3445 1.376 . S
C3442 C3440 1.394 . S
C3442 C3443 1.369 . S
C3442 C3446 1.531 . S
C3443 C3442 1.369 . S
C3443 C3444 1.410 . S
C3443 C3451 1.503 . S
C3444 C3443 1.410 . S
C3444 C3445 1.392 . S
C3444 C3447 1.511 . S
C3445 C3441 1.376 . S
C3445 C3444 1.392 . S
C3445 H3457 0.929 . S
C3446 C3442 1.531 . S
C3446 H3458 0.960 . S
C3446 H3459 0.962 . S
C3446 H3460 0.960 . S
C3447 C3444 1.511 . S
C3447 H3461 0.961 . S
C3447 H3462 0.961 . S
C3447 H3463 0.961 . S
C3448 C3449 1.370 . S
C3448 C3450 1.363 . S
C3448 H3464 0.931 . S
C3449 C3448 1.370 . S
C3449 C3453 1.408 . S
C3450 C3448 1.363 . S
C3450 C3451 1.370 . S
C3450 C3454 1.524 . S
C3451 C3443 1.503 . S
C3451 C3450 1.370 . S
C3451 C3452 1.403 . S
C3452 C3451 1.403 . S
C3452 C3453 1.404 . S
C3452 C3455 1.539 . S
C3453 C3449 1.408 . S
C3453 C3452 1.404 . S
C3453 H3465 0.930 . S
C3454 C3450 1.524 . S
C3454 H3466 0.956 . S
C3454 H3467 0.961 . S
C3454 H3468 0.961 . S
C3455 C3452 1.539 . S
C3455 H3469 0.958 . S
C3455 H3470 0.961 . S
C3455 H3471 0.960 . S
H3456 C3440 0.931 . S
H3457 C3445 0.929 . S
H3458 C3446 0.960 . S
H3459 C3446 0.962 . S
H3460 C3446 0.960 . S
H3461 C3447 0.961 . S
H3462 C3447 0.961 . S
H3463 C3447 0.961 . S
H3464 C3448 0.931 . S
H3465 C3453 0.930 . S
H3466 C3454 0.956 . S
H3467 C3454 0.961 . S
H3468 C3454 0.961 . S
H3469 C3455 0.958 . S
H3470 C3455 0.961 . S
H3471 C3455 0.960 . S
C3472 C3473 1.391 . S
C3472 C3474 1.394 . S
C3472 H3488 0.931 . S
C3473 C3472 1.391 . S
C3473 C3477 1.376 . S
C3474 C3472 1.394 . S
C3474 C3475 1.369 . S
C3474 C3478 1.531 . S
C3475 C3474 1.369 . S
C3475 C3476 1.410 . S
C3475 C3483 1.503 . S
C3476 C3475 1.410 . S
C3476 C3477 1.392 . S
C3476 C3479 1.511 . S
C3477 C3473 1.376 . S
C3477 C3476 1.392 . S
C3477 H3489 0.929 . S
C3478 C3474 1.531 . S
C3478 H3490 0.960 . S
C3478 H3491 0.962 . S
C3478 H3492 0.960 . S
C3479 C3476 1.511 . S
C3479 H3493 0.961 . S
C3479 H3494 0.961 . S
C3479 H3495 0.961 . S
C3480 C3481 1.370 . S
C3480 C3482 1.363 . S
C3480 H3496 0.931 . S
C3481 C3480 1.370 . S
C3481 C3485 1.408 . S
C3482 C3480 1.363 . S
C3482 C3483 1.370 . S
C3482 C3486 1.524 . S
C3483 C3475 1.503 . S
C3483 C3482 1.370 . S
C3483 C3484 1.403 . S
C3484 C3483 1.403 . S
C3484 C3485 1.404 . S
C3484 C3487 1.539 . S
C3485 C3481 1.408 . S
C3485 C3484 1.404 . S
C3485 H3497 0.930 . S
C3486 C3482 1.524 . S
C3486 H3498 0.956 . S
C3486 H3499 0.961 . S
C3486 H3500 0.961 . S
C3487 C3484 1.539 . S
C3487 H3501 0.958 . S
C3487 H3502 0.961 . S
C3487 H3503 0.960 . S
H3488 C3472 0.931 . S
H3489 C3477 0.929 . S
H3490 C3478 0.960 . S
H3491 C3478 0.962 . S
H3492 C3478 0.960 . S
H3493 C3479 0.961 . S
H3494 C3479 0.961 . S
H3495 C3479 0.961 . S
H3496 C3480 0.931 . S
H3497 C3485 0.930 . S
H3498 C3486 0.956 . S
H3499 C3486 0.961 . S
H3500 C3486 0.961 . S
H3501 C3487 0.958 . S
H3502 C3487 0.961 . S
H3503 C3487 0.960 . S
C3504 C3505 1.391 . S
C3504 C3506 1.394 . S
C3504 H3520 0.931 . S
C3505 C3504 1.391 . S
C3505 C3509 1.376 . S
C3506 C3504 1.394 . S
C3506 C3507 1.369 . S
C3506 C3510 1.531 . S
C3507 C3506 1.369 . S
C3507 C3508 1.410 . S
C3507 C3515 1.503 . S
C3508 C3507 1.410 . S
C3508 C3509 1.392 . S
C3508 C3511 1.511 . S
C3509 C3505 1.376 . S
C3509 C3508 1.392 . S
C3509 H3521 0.929 . S
C3510 C3506 1.531 . S
C3510 H3522 0.960 . S
C3510 H3523 0.962 . S
C3510 H3524 0.960 . S
C3511 C3508 1.511 . S
C3511 H3525 0.961 . S
C3511 H3526 0.961 . S
C3511 H3527 0.961 . S
C3512 C3513 1.370 . S
C3512 C3514 1.363 . S
C3512 H3528 0.931 . S
C3513 C3512 1.370 . S
C3513 C3517 1.408 . S
C3514 C3512 1.363 . S
C3514 C3515 1.370 . S
C3514 C3518 1.524 . S
C3515 C3507 1.503 . S
C3515 C3514 1.370 . S
C3515 C3516 1.403 . S
C3516 C3515 1.403 . S
C3516 C3517 1.404 . S
C3516 C3519 1.539 . S
C3517 C3513 1.408 . S
C3517 C3516 1.404 . S
C3517 H3529 0.930 . S
C3518 C3514 1.524 . S
C3518 H3530 0.956 . S
C3518 H3531 0.961 . S
C3518 H3532 0.961 . S
C3519 C3516 1.539 . S
C3519 H3533 0.958 . S
C3519 H3534 0.961 . S
C3519 H3535 0.960 . S
H3520 C3504 0.931 . S
H3521 C3509 0.929 . S
H3522 C3510 0.960 . S
H3523 C3510 0.962 . S
H3524 C3510 0.960 . S
H3525 C3511 0.961 . S
H3526 C3511 0.961 . S
H3527 C3511 0.961 . S
H3528 C3512 0.931 . S
H3529 C3517 0.930 . S
H3530 C3518 0.956 . S
H3531 C3518 0.961 . S
H3532 C3518 0.961 . S
H3533 C3519 0.958 . S
H3534 C3519 0.961 . S
H3535 C3519 0.960 . S
C3536 C3537 1.391 . S
C3536 C3538 1.394 . S
C3536 H3552 0.931 . S
C3537 C3536 1.391 . S
C3537 C3541 1.376 . S
C3538 C3536 1.394 . S
C3538 C3539 1.369 . S
C3538 C3542 1.531 . S
C3539 C3538 1.369 . S
C3539 C3540 1.410 . S
C3539 C3547 1.503 . S
C3540 C3539 1.410 . S
C3540 C3541 1.392 . S
C3540 C3543 1.511 . S
C3541 C3537 1.376 . S
C3541 C3540 1.392 . S
C3541 H3553 0.929 . S
C3542 C3538 1.531 . S
C3542 H3554 0.960 . S
C3542 H3555 0.962 . S
C3542 H3556 0.960 . S
C3543 C3540 1.511 . S
C3543 H3557 0.961 . S
C3543 H3558 0.961 . S
C3543 H3559 0.961 . S
C3544 C3545 1.370 . S
C3544 C3546 1.363 . S
C3544 H3560 0.931 . S
C3545 C3544 1.370 . S
C3545 C3549 1.408 . S
C3546 C3544 1.363 . S
C3546 C3547 1.370 . S
C3546 C3550 1.524 . S
C3547 C3539 1.503 . S
C3547 C3546 1.370 . S
C3547 C3548 1.403 . S
C3548 C3547 1.403 . S
C3548 C3549 1.404 . S
C3548 C3551 1.539 . S
C3549 C3545 1.408 . S
C3549 C3548 1.404 . S
C3549 H3561 0.930 . S
C3550 C3546 1.524 . S
C3550 H3562 0.956 . S
C3550 H3563 0.961 . S
C3550 H3564 0.961 . S
C3551 C3548 1.539 . S
C3551 H3565 0.958 . S
C3551 H3566 0.961 . S
C3551 H3567 0.960 . S
H3552 C3536 0.931 . S
H3553 C3541 0.929 . S
H3554 C3542 0.960 . S
H3555 C3542 0.962 . S
H3556 C3542 0.960 . S
H3557 C3543 0.961 . S
H3558 C3543 0.961 . S
H3559 C3543 0.961 . S
H3560 C3544 0.931 . S
H3561 C3549 0.930 . S
H3562 C3550 0.956 . S
H3563 C3550 0.961 . S
H3564 C3550 0.961 . S
H3565 C3551 0.958 . S
H3566 C3551 0.961 . S
H3567 C3551 0.960 . S
C3568 C3569 1.391 . S
C3568 C3570 1.394 . S
C3568 H3584 0.931 . S
C3569 C3568 1.391 . S
C3569 C3573 1.376 . S
C3570 C3568 1.394 . S
C3570 C3571 1.369 . S
C3570 C3574 1.531 . S
C3571 C3570 1.369 . S
C3571 C3572 1.410 . S
C3571 C3579 1.503 . S
C3572 C3571 1.410 . S
C3572 C3573 1.392 . S
C3572 C3575 1.511 . S
C3573 C3569 1.376 . S
C3573 C3572 1.392 . S
C3573 H3585 0.929 . S
C3574 C3570 1.531 . S
C3574 H3586 0.960 . S
C3574 H3587 0.962 . S
C3574 H3588 0.960 . S
C3575 C3572 1.511 . S
C3575 H3589 0.961 . S
C3575 H3590 0.961 . S
C3575 H3591 0.961 . S
C3576 C3577 1.370 . S
C3576 C3578 1.363 . S
C3576 H3592 0.931 . S
C3577 C3576 1.370 . S
C3577 C3581 1.408 . S
C3578 C3576 1.363 . S
C3578 C3579 1.370 . S
C3578 C3582 1.524 . S
C3579 C3571 1.503 . S
C3579 C3578 1.370 . S
C3579 C3580 1.403 . S
C3580 C3579 1.403 . S
C3580 C3581 1.404 . S
C3580 C3583 1.539 . S
C3581 C3577 1.408 . S
C3581 C3580 1.404 . S
C3581 H3593 0.930 . S
C3582 C3578 1.524 . S
C3582 H3594 0.956 . S
C3582 H3595 0.961 . S
C3582 H3596 0.961 . S
C3583 C3580 1.539 . S
C3583 H3597 0.958 . S
C3583 H3598 0.961 . S
C3583 H3599 0.960 . S
H3584 C3568 0.931 . S
H3585 C3573 0.929 . S
H3586 C3574 0.960 . S
H3587 C3574 0.962 . S
H3588 C3574 0.960 . S
H3589 C3575 0.961 . S
H3590 C3575 0.961 . S
H3591 C3575 0.961 . S
H3592 C3576 0.931 . S
H3593 C3581 0.930 . S
H3594 C3582 0.956 . S
H3595 C3582 0.961 . S
H3596 C3582 0.961 . S
H3597 C3583 0.958 . S
H3598 C3583 0.961 . S
H3599 C3583 0.960 . S
C3600 C3601 1.391 . S
C3600 C3602 1.394 . S
C3600 H3616 0.931 . S
C3601 C3600 1.391 . S
C3601 C3605 1.392 . S
C3602 C3600 1.394 . S
C3602 C3603 1.369 . S
C3602 C3606 1.531 . S
C3603 C3602 1.369 . S
C3603 C3604 1.410 . S
C3603 C3611 1.503 . S
C3604 C3603 1.410 . S
C3604 C3605 1.396 . S
C3604 C3607 1.511 1_455 S
C3605 C3601 1.392 . S
C3605 C3604 1.396 . S
C3605 H3617 0.909 1_455 S
C3606 C3602 1.531 . S
C3606 H3618 0.960 . S
C3606 H3619 0.962 . S
C3606 H3620 0.960 . S
C3607 C3604 1.511 1_655 S
C3607 H3621 0.961 . S
C3607 H3622 0.961 . S
C3607 H3623 0.961 . S
C3608 C3609 1.370 . S
C3608 C3610 1.363 . S
C3608 H3624 0.931 . S
C3609 C3608 1.370 . S
C3609 C3613 1.408 . S
C3610 C3608 1.363 . S
C3610 C3611 1.370 . S
C3610 C3614 1.524 . S
C3611 C3603 1.503 . S
C3611 C3610 1.370 . S
C3611 C3612 1.403 . S
C3612 C3611 1.403 . S
C3612 C3613 1.404 . S
C3612 C3615 1.539 . S
C3613 C3609 1.408 . S
C3613 C3612 1.404 . S
C3613 H3625 0.930 . S
C3614 C3610 1.524 . S
C3614 H3626 0.956 . S
C3614 H3627 0.961 1_455 S
C3614 H3628 0.961 1_455 S
C3615 C3612 1.539 . S
C3615 H3629 0.958 . S
C3615 H3630 0.961 . S
C3615 H3631 0.960 . S
H3616 C3600 0.931 . S
H3617 C3605 0.909 1_655 S
H3618 C3606 0.960 . S
H3619 C3606 0.962 . S
H3620 C3606 0.960 . S
H3621 C3607 0.961 . S
H3622 C3607 0.961 . S
H3623 C3607 0.961 . S
H3624 C3608 0.931 . S
H3625 C3613 0.930 . S
H3626 C3614 0.956 . S
H3627 C3614 0.961 1_655 S
H3628 C3614 0.961 1_655 S
H3629 C3615 0.958 . S
H3630 C3615 0.961 . S
H3631 C3615 0.960 . S
C3632 C3633 1.391 . S
C3632 C3634 1.394 . S
C3632 H3648 0.931 . S
C3633 C3632 1.391 . S
C3633 C3637 1.376 . S
C3634 C3632 1.394 . S
C3634 C3635 1.369 . S
C3634 C3638 1.531 . S
C3635 C3634 1.369 . S
C3635 C3636 1.410 . S
C3635 C3643 1.503 . S
C3636 C3635 1.410 . S
C3636 C3637 1.392 . S
C3636 C3639 1.511 . S
C3637 C3633 1.376 . S
C3637 C3636 1.392 . S
C3637 H3649 0.929 . S
C3638 C3634 1.531 . S
C3638 H3650 0.960 . S
C3638 H3651 0.962 . S
C3638 H3652 0.960 . S
C3639 C3636 1.511 . S
C3639 H3653 0.961 . S
C3639 H3654 0.961 . S
C3639 H3655 0.961 . S
C3640 C3641 1.370 . S
C3640 C3642 1.363 . S
C3640 H3656 0.931 . S
C3641 C3640 1.370 . S
C3641 C3645 1.408 . S
C3642 C3640 1.363 . S
C3642 C3643 1.370 . S
C3642 C3646 1.524 . S
C3643 C3635 1.503 . S
C3643 C3642 1.370 . S
C3643 C3644 1.403 . S
C3644 C3643 1.403 . S
C3644 C3645 1.404 . S
C3644 C3647 1.539 . S
C3645 C3641 1.408 . S
C3645 C3644 1.404 . S
C3645 H3657 0.930 . S
C3646 C3642 1.524 . S
C3646 H3658 0.956 . S
C3646 H3659 0.961 . S
C3646 H3660 0.961 . S
C3647 C3644 1.539 . S
C3647 H3661 0.958 . S
C3647 H3662 0.961 . S
C3647 H3663 0.960 . S
H3648 C3632 0.931 . S
H3649 C3637 0.929 . S
H3650 C3638 0.960 . S
H3651 C3638 0.962 . S
H3652 C3638 0.960 . S
H3653 C3639 0.961 . S
H3654 C3639 0.961 . S
H3655 C3639 0.961 . S
H3656 C3640 0.931 . S
H3657 C3645 0.930 . S
H3658 C3646 0.956 . S
H3659 C3646 0.961 . S
H3660 C3646 0.961 . S
H3661 C3647 0.958 . S
H3662 C3647 0.961 . S
H3663 C3647 0.960 . S
C3664 C3665 1.391 . S
C3664 C3666 1.394 . S
C3664 H3680 0.931 . S
C3665 C3664 1.391 . S
C3665 C3669 1.376 . S
C3666 C3664 1.394 . S
C3666 C3667 1.369 . S
C3666 C3670 1.531 . S
C3667 C3666 1.369 . S
C3667 C3668 1.410 . S
C3667 C3675 1.503 . S
C3668 C3667 1.410 . S
C3668 C3669 1.392 . S
C3668 C3671 1.511 . S
C3669 C3665 1.376 . S
C3669 C3668 1.392 . S
C3669 H3681 0.929 . S
C3670 C3666 1.531 . S
C3670 H3682 0.960 . S
C3670 H3683 0.962 . S
C3670 H3684 0.960 . S
C3671 C3668 1.511 . S
C3671 H3685 0.961 . S
C3671 H3686 0.961 . S
C3671 H3687 0.961 . S
C3672 C3673 1.370 . S
C3672 C3674 1.363 . S
C3672 H3688 0.931 . S
C3673 C3672 1.370 . S
C3673 C3677 1.408 . S
C3674 C3672 1.363 . S
C3674 C3675 1.370 . S
C3674 C3678 1.524 . S
C3675 C3667 1.503 . S
C3675 C3674 1.370 . S
C3675 C3676 1.403 . S
C3676 C3675 1.403 . S
C3676 C3677 1.404 . S
C3676 C3679 1.539 . S
C3677 C3673 1.408 . S
C3677 C3676 1.404 . S
C3677 H3689 0.930 . S
C3678 C3674 1.524 . S
C3678 H3690 0.956 . S
C3678 H3691 0.961 . S
C3678 H3692 0.961 . S
C3679 C3676 1.539 . S
C3679 H3693 0.958 . S
C3679 H3694 0.961 . S
C3679 H3695 0.960 . S
H3680 C3664 0.931 . S
H3681 C3669 0.929 . S
H3682 C3670 0.960 . S
H3683 C3670 0.962 . S
H3684 C3670 0.960 . S
H3685 C3671 0.961 . S
H3686 C3671 0.961 . S
H3687 C3671 0.961 . S
H3688 C3672 0.931 . S
H3689 C3677 0.930 . S
H3690 C3678 0.956 . S
H3691 C3678 0.961 . S
H3692 C3678 0.961 . S
H3693 C3679 0.958 . S
H3694 C3679 0.961 . S
H3695 C3679 0.960 . S
C3696 C3697 1.391 . S
C3696 C3698 1.394 . S
C3696 H3712 0.931 . S
C3697 C3696 1.391 . S
C3697 C3701 1.376 . S
C3698 C3696 1.394 . S
C3698 C3699 1.369 . S
C3698 C3702 1.531 . S
C3699 C3698 1.369 . S
C3699 C3700 1.410 . S
C3699 C3707 1.503 . S
C3700 C3699 1.410 . S
C3700 C3701 1.392 . S
C3700 C3703 1.511 . S
C3701 C3697 1.376 . S
C3701 C3700 1.392 . S
C3701 H3713 0.929 . S
C3702 C3698 1.531 . S
C3702 H3714 0.960 . S
C3702 H3715 0.962 . S
C3702 H3716 0.960 . S
C3703 C3700 1.511 . S
C3703 H3717 0.961 . S
C3703 H3718 0.961 . S
C3703 H3719 0.961 . S
C3704 C3705 1.370 . S
C3704 C3706 1.363 . S
C3704 H3720 0.931 . S
C3705 C3704 1.370 . S
C3705 C3709 1.408 . S
C3706 C3704 1.363 . S
C3706 C3707 1.370 . S
C3706 C3710 1.524 . S
C3707 C3699 1.503 . S
C3707 C3706 1.370 . S
C3707 C3708 1.403 . S
C3708 C3707 1.403 . S
C3708 C3709 1.404 . S
C3708 C3711 1.539 . S
C3709 C3705 1.408 . S
C3709 C3708 1.404 . S
C3709 H3721 0.930 . S
C3710 C3706 1.524 . S
C3710 H3722 0.956 . S
C3710 H3723 0.961 . S
C3710 H3724 0.961 . S
C3711 C3708 1.539 . S
C3711 H3725 0.958 . S
C3711 H3726 0.961 . S
C3711 H3727 0.960 . S
H3712 C3696 0.931 . S
H3713 C3701 0.929 . S
H3714 C3702 0.960 . S
H3715 C3702 0.962 . S
H3716 C3702 0.960 . S
H3717 C3703 0.961 . S
H3718 C3703 0.961 . S
H3719 C3703 0.961 . S
H3720 C3704 0.931 . S
H3721 C3709 0.930 . S
H3722 C3710 0.956 . S
H3723 C3710 0.961 . S
H3724 C3710 0.961 . S
H3725 C3711 0.958 . S
H3726 C3711 0.961 . S
H3727 C3711 0.960 . S
C3728 C3729 1.391 1_655 S
C3728 C3730 1.394 . S
C3728 H3744 0.931 . S
C3729 C3728 1.391 1_455 S
C3729 C3733 1.376 . S
C3730 C3728 1.394 . S
C3730 C3731 1.369 1_655 S
C3730 C3734 1.531 . S
C3731 C3730 1.369 1_455 S
C3731 C3732 1.410 . S
C3731 C3739 1.503 . S
C3732 C3731 1.410 . S
C3732 C3733 1.392 . S
C3732 C3735 1.511 . S
C3733 C3729 1.376 . S
C3733 C3732 1.392 . S
C3733 H3745 0.929 . S
C3734 C3730 1.531 . S
C3734 H3746 0.960 . S
C3734 H3747 0.962 . S
C3734 H3748 0.960 . S
C3735 C3732 1.511 . S
C3735 H3749 0.961 . S
C3735 H3750 0.961 . S
C3735 H3751 0.961 . S
C3736 C3737 1.370 . S
C3736 C3738 1.363 . S
C3736 H3752 0.931 . S
C3737 C3736 1.370 . S
C3737 C3741 1.408 . S
C3738 C3736 1.363 . S
C3738 C3739 1.370 . S
C3738 C3742 1.524 . S
C3739 C3731 1.503 . S
C3739 C3738 1.370 . S
C3739 C3740 1.403 . S
C3740 C3739 1.403 . S
C3740 C3741 1.404 . S
C3740 C3743 1.539 1_455 S
C3741 C3737 1.408 . S
C3741 C3740 1.404 . S
C3741 H3753 0.930 . S
C3742 C3738 1.524 . S
C3742 H3754 0.956 . S
C3742 H3755 0.961 . S
C3742 H3756 0.961 . S
C3743 C3740 1.539 1_655 S
C3743 H3757 0.958 . S
C3743 H3758 0.961 1_655 S
C3743 H3759 0.960 1_655 S
H3744 C3728 0.931 . S
H3745 C3733 0.929 . S
H3746 C3734 0.960 . S
H3747 C3734 0.962 . S
H3748 C3734 0.960 . S
H3749 C3735 0.961 . S
H3750 C3735 0.961 . S
H3751 C3735 0.961 . S
H3752 C3736 0.931 . S
H3753 C3741 0.930 . S
H3754 C3742 0.956 . S
H3755 C3742 0.961 . S
H3756 C3742 0.961 . S
H3757 C3743 0.958 . S
H3758 C3743 0.961 1_455 S
H3759 C3743 0.960 1_455 S
C3760 C3761 1.391 . S
C3760 C3762 1.394 . S
C3760 H3776 0.931 . S
C3761 C3760 1.391 . S
C3761 C3765 1.376 . S
C3762 C3760 1.394 . S
C3762 C3763 1.369 . S
C3762 C3766 1.531 . S
C3763 C3762 1.369 . S
C3763 C3764 1.410 . S
C3763 C3771 1.503 . S
C3764 C3763 1.410 . S
C3764 C3765 1.392 . S
C3764 C3767 1.511 . S
C3765 C3761 1.376 . S
C3765 C3764 1.392 . S
C3765 H3777 0.929 . S
C3766 C3762 1.531 . S
C3766 H3778 0.960 . S
C3766 H3779 0.962 . S
C3766 H3780 0.960 . S
C3767 C3764 1.511 . S
C3767 H3781 0.961 . S
C3767 H3782 0.961 . S
C3767 H3783 0.961 . S
C3768 C3769 1.370 . S
C3768 C3770 1.363 . S
C3768 H3784 0.931 . S
C3769 C3768 1.370 . S
C3769 C3773 1.408 . S
C3770 C3768 1.363 . S
C3770 C3771 1.370 . S
C3770 C3774 1.524 . S
C3771 C3763 1.503 . S
C3771 C3770 1.370 . S
C3771 C3772 1.403 . S
C3772 C3771 1.403 . S
C3772 C3773 1.404 . S
C3772 C3775 1.539 . S
C3773 C3769 1.408 . S
C3773 C3772 1.404 . S
C3773 H3785 0.930 . S
C3774 C3770 1.524 . S
C3774 H3786 0.956 . S
C3774 H3787 0.961 . S
C3774 H3788 0.961 . S
C3775 C3772 1.539 . S
C3775 H3789 0.958 . S
C3775 H3790 0.961 . S
C3775 H3791 0.960 . S
H3776 C3760 0.931 . S
H3777 C3765 0.929 . S
H3778 C3766 0.960 . S
H3779 C3766 0.962 . S
H3780 C3766 0.960 . S
H3781 C3767 0.961 . S
H3782 C3767 0.961 . S
H3783 C3767 0.961 . S
H3784 C3768 0.931 . S
H3785 C3773 0.930 . S
H3786 C3774 0.956 . S
H3787 C3774 0.961 . S
H3788 C3774 0.961 . S
H3789 C3775 0.958 . S
H3790 C3775 0.961 . S
H3791 C3775 0.960 . S
C3792 C3793 1.391 . S
C3792 C3794 1.394 . S
C3792 H3808 0.931 . S
C3793 C3792 1.391 . S
C3793 C3797 1.376 . S
C3794 C3792 1.394 . S
C3794 C3795 1.369 . S
C3794 C3798 1.531 . S
C3795 C3794 1.369 . S
C3795 C3796 1.410 . S
C3795 C3803 1.503 . S
C3796 C3795 1.410 . S
C3796 C3797 1.392 . S
C3796 C3799 1.511 . S
C3797 C3793 1.376 . S
C3797 C3796 1.392 . S
C3797 H3809 0.929 . S
C3798 C3794 1.531 . S
C3798 H3810 0.960 . S
C3798 H3811 0.962 . S
C3798 H3812 0.960 . S
C3799 C3796 1.511 . S
C3799 H3813 0.961 . S
C3799 H3814 0.961 . S
C3799 H3815 0.961 . S
C3800 C3801 1.370 . S
C3800 C3802 1.363 . S
C3800 H3816 0.931 . S
C3801 C3800 1.370 . S
C3801 C3805 1.408 . S
C3802 C3800 1.363 . S
C3802 C3803 1.370 . S
C3802 C3806 1.524 . S
C3803 C3795 1.503 . S
C3803 C3802 1.370 . S
C3803 C3804 1.403 . S
C3804 C3803 1.403 . S
C3804 C3805 1.404 . S
C3804 C3807 1.539 . S
C3805 C3801 1.408 . S
C3805 C3804 1.404 . S
C3805 H3817 0.930 . S
C3806 C3802 1.524 . S
C3806 H3818 0.956 . S
C3806 H3819 0.961 . S
C3806 H3820 0.961 . S
C3807 C3804 1.539 . S
C3807 H3821 0.958 . S
C3807 H3822 0.961 . S
C3807 H3823 0.960 . S
H3808 C3792 0.931 . S
H3809 C3797 0.929 . S
H3810 C3798 0.960 . S
H3811 C3798 0.962 . S
H3812 C3798 0.960 . S
H3813 C3799 0.961 . S
H3814 C3799 0.961 . S
H3815 C3799 0.961 . S
H3816 C3800 0.931 . S
H3817 C3805 0.930 . S
H3818 C3806 0.956 . S
H3819 C3806 0.961 . S
H3820 C3806 0.961 . S
H3821 C3807 0.958 . S
H3822 C3807 0.961 . S
H3823 C3807 0.960 . S
C3824 C3825 1.391 . S
C3824 C3826 1.394 . S
C3824 H3840 0.931 . S
C3825 C3824 1.391 . S
C3825 C3829 1.376 . S
C3826 C3824 1.394 . S
C3826 C3827 1.369 . S
C3826 C3830 1.531 . S
C3827 C3826 1.369 . S
C3827 C3828 1.410 . S
C3827 C3835 1.503 . S
C3828 C3827 1.410 . S
C3828 C3829 1.392 . S
C3828 C3831 1.511 . S
C3829 C3825 1.376 . S
C3829 C3828 1.392 . S
C3829 H3841 0.929 . S
C3830 C3826 1.531 . S
C3830 H3842 0.960 . S
C3830 H3843 0.962 . S
C3830 H3844 0.960 . S
C3831 C3828 1.511 . S
C3831 H3845 0.961 . S
C3831 H3846 0.961 . S
C3831 H3847 0.961 . S
C3832 C3833 1.375 1_565 S
C3832 C3834 1.363 . S
C3832 H3848 0.931 . S
C3833 C3832 1.375 1_545 S
C3833 C3837 1.405 . S
C3834 C3832 1.363 . S
C3834 C3835 1.370 . S
C3834 C3838 1.524 . S
C3835 C3827 1.503 . S
C3835 C3834 1.370 . S
C3835 C3836 1.370 1_565 S
C3836 C3835 1.370 1_545 S
C3836 C3837 1.414 . S
C3836 C3839 1.564 . S
C3837 C3833 1.405 . S
C3837 C3836 1.414 . S
C3837 H3849 0.930 . S
C3838 C3834 1.524 . S
C3838 H3850 0.956 . S
C3838 H3851 0.961 . S
C3838 H3852 0.961 . S
C3839 C3836 1.564 . S
C3839 H3853 0.958 . S
C3839 H3854 0.961 . S
C3839 H3855 0.960 . S
H3840 C3824 0.931 . S
H3841 C3829 0.929 . S
H3842 C3830 0.960 . S
H3843 C3830 0.962 . S
H3844 C3830 0.960 . S
H3845 C3831 0.961 . S
H3846 C3831 0.961 . S
H3847 C3831 0.961 . S
H3848 C3832 0.931 . S
H3849 C3837 0.930 . S
H3850 C3838 0.956 . S
H3851 C3838 0.961 . S
H3852 C3838 0.961 . S
H3853 C3839 0.958 . S
H3854 C3839 0.961 . S
H3855 C3839 0.960 . S
C3856 C3857 1.391 . S
C3856 C3858 1.394 . S
C3856 H3872 0.931 . S
C3857 C3856 1.391 . S
C3857 C3861 1.376 . S
C3858 C3856 1.394 . S
C3858 C3859 1.369 . S
C3858 C3862 1.531 . S
C3859 C3858 1.369 . S
C3859 C3860 1.410 . S
C3859 C3867 1.503 . S
C3860 C3859 1.410 . S
C3860 C3861 1.392 . S
C3860 C3863 1.511 . S
C3861 C3857 1.376 . S
C3861 C3860 1.392 . S
C3861 H3873 0.929 . S
C3862 C3858 1.531 . S
C3862 H3874 0.960 . S
C3862 H3875 0.962 . S
C3862 H3876 0.960 . S
C3863 C3860 1.511 . S
C3863 H3877 0.961 . S
C3863 H3878 0.961 . S
C3863 H3879 0.961 . S
C3864 C3865 1.370 . S
C3864 C3866 1.363 . S
C3864 H3880 0.931 . S
C3865 C3864 1.370 . S
C3865 C3869 1.408 . S
C3866 C3864 1.363 . S
C3866 C3867 1.370 . S
C3866 C3870 1.524 . S
C3867 C3859 1.503 . S
C3867 C3866 1.370 . S
C3867 C3868 1.403 . S
C3868 C3867 1.403 . S
C3868 C3869 1.404 . S
C3868 C3871 1.539 . S
C3869 C3865 1.408 . S
C3869 C3868 1.404 . S
C3869 H3881 0.930 . S
C3870 C3866 1.524 . S
C3870 H3882 0.956 . S
C3870 H3883 0.961 . S
C3870 H3884 0.961 . S
C3871 C3868 1.539 . S
C3871 H3885 0.958 . S
C3871 H3886 0.961 . S
C3871 H3887 0.960 . S
H3872 C3856 0.931 . S
H3873 C3861 0.929 . S
H3874 C3862 0.960 . S
H3875 C3862 0.962 . S
H3876 C3862 0.960 . S
H3877 C3863 0.961 . S
H3878 C3863 0.961 . S
H3879 C3863 0.961 . S
H3880 C3864 0.931 . S
H3881 C3869 0.930 . S
H3882 C3870 0.956 . S
H3883 C3870 0.961 . S
H3884 C3870 0.961 . S
H3885 C3871 0.958 . S
H3886 C3871 0.961 . S
H3887 C3871 0.960 . S
C3888 C3889 1.391 . S
C3888 C3890 1.394 . S
C3888 H3904 0.931 . S
C3889 C3888 1.391 . S
C3889 C3893 1.376 1_556 S
C3890 C3888 1.394 . S
C3890 C3891 1.369 . S
C3890 C3894 1.531 . S
C3891 C3890 1.369 . S
C3891 C3892 1.410 1_556 S
C3891 C3899 1.503 1_556 S
C3892 C3891 1.410 1_554 S
C3892 C3893 1.392 . S
C3892 C3895 1.511 . S
C3893 C3889 1.376 1_554 S
C3893 C3892 1.392 . S
C3893 H3905 0.929 . S
C3894 C3890 1.531 . S
C3894 H3906 0.960 . S
C3894 H3907 0.962 . S
C3894 H3908 0.960 . S
C3895 C3892 1.511 . S
C3895 H3909 0.961 . S
C3895 H3910 0.961 . S
C3895 H3911 0.961 . S
C3896 C3897 1.370 . S
C3896 C3898 1.363 . S
C3896 H3912 0.931 . S
C3897 C3896 1.370 . S
C3897 C3901 1.407 1_554 S
C3898 C3896 1.363 . S
C3898 C3899 1.370 . S
C3898 C3902 1.524 . S
C3899 C3891 1.503 1_554 S
C3899 C3898 1.370 . S
C3899 C3900 1.403 1_554 S
C3900 C3899 1.403 1_556 S
C3900 C3901 1.404 . S
C3900 C3903 1.539 . S
C3901 C3897 1.407 1_556 S
C3901 C3900 1.404 . S
C3901 H3913 0.930 . S
C3902 C3898 1.524 . S
C3902 H3914 0.956 . S
C3902 H3915 0.961 . S
C3902 H3916 0.961 . S
C3903 C3900 1.539 . S
C3903 H3917 0.958 . S
C3903 H3918 0.961 . S
C3903 H3919 0.960 . S
H3904 C3888 0.931 . S
H3905 C3893 0.929 . S
H3906 C3894 0.960 . S
H3907 C3894 0.962 . S
H3908 C3894 0.960 . S
H3909 C3895 0.961 . S
H3910 C3895 0.961 . S
H3911 C3895 0.961 . S
H3912 C3896 0.931 . S
H3913 C3901 0.930 . S
H3914 C3902 0.956 . S
H3915 C3902 0.961 . S
H3916 C3902 0.961 . S
H3917 C3903 0.958 . S
H3918 C3903 0.961 . S
H3919 C3903 0.960 . S
C3920 C3921 1.391 . S
C3920 C3922 1.394 . S
C3920 H3936 0.931 . S
C3921 C3920 1.391 . S
C3921 C3925 1.376 . S
C3922 C3920 1.394 . S
C3922 C3923 1.369 . S
C3922 C3926 1.531 . S
C3923 C3922 1.369 . S
C3923 C3924 1.410 . S
C3923 C3931 1.503 . S
C3924 C3923 1.410 . S
C3924 C3925 1.392 . S
C3924 C3927 1.511 . S
C3925 C3921 1.376 . S
C3925 C3924 1.392 . S
C3925 H3937 0.929 . S
C3926 C3922 1.531 . S
C3926 H3938 0.960 . S
C3926 H3939 0.962 . S
C3926 H3940 0.960 . S
C3927 C3924 1.511 . S
C3927 H3941 0.961 . S
C3927 H3942 0.961 . S
C3927 H3943 0.961 . S
C3928 C3929 1.370 . S
C3928 C3930 1.363 . S
C3928 H3944 0.931 . S
C3929 C3928 1.370 . S
C3929 C3933 1.408 . S
C3930 C3928 1.363 . S
C3930 C3931 1.370 . S
C3930 C3934 1.524 . S
C3931 C3923 1.503 . S
C3931 C3930 1.370 . S
C3931 C3932 1.403 . S
C3932 C3931 1.403 . S
C3932 C3933 1.404 . S
C3932 C3935 1.539 . S
C3933 C3929 1.408 . S
C3933 C3932 1.404 . S
C3933 H3945 0.930 . S
C3934 C3930 1.524 . S
C3934 H3946 0.956 . S
C3934 H3947 0.961 . S
C3934 H3948 0.961 . S
C3935 C3932 1.539 . S
C3935 H3949 0.958 . S
C3935 H3950 0.961 . S
C3935 H3951 0.960 . S
H3936 C3920 0.931 . S
H3937 C3925 0.929 . S
H3938 C3926 0.960 . S
H3939 C3926 0.962 . S
H3940 C3926 0.960 . S
H3941 C3927 0.961 . S
H3942 C3927 0.961 . S
H3943 C3927 0.961 . S
H3944 C3928 0.931 . S
H3945 C3933 0.930 . S
H3946 C3934 0.956 . S
H3947 C3934 0.961 . S
H3948 C3934 0.961 . S
H3949 C3935 0.958 . S
H3950 C3935 0.961 . S
H3951 C3935 0.960 . S
C3952 C3953 1.391 . S
C3952 C3954 1.394 . S
C3952 H3968 0.931 1_554 S
C3953 C3952 1.391 . S
C3953 C3957 1.376 . S
C3954 C3952 1.394 . S
C3954 C3955 1.369 . S
C3954 C3958 1.531 1_554 S
C3955 C3954 1.369 . S
C3955 C3956 1.410 . S
C3955 C3963 1.503 . S
C3956 C3955 1.410 . S
C3956 C3957 1.392 . S
C3956 C3959 1.511 . S
C3957 C3953 1.376 . S
C3957 C3956 1.392 . S
C3957 H3969 0.929 . S
C3958 C3954 1.531 1_556 S
C3958 H3970 0.960 . S
C3958 H3971 0.962 . S
C3958 H3972 0.960 . S
C3959 C3956 1.511 . S
C3959 H3973 0.961 . S
C3959 H3974 0.961 . S
C3959 H3975 0.961 . S
C3960 C3961 1.370 . S
C3960 C3962 1.363 . S
C3960 H3976 0.931 . S
C3961 C3960 1.370 . S
C3961 C3965 1.408 . S
C3962 C3960 1.363 . S
C3962 C3963 1.370 . S
C3962 C3966 1.524 . S
C3963 C3955 1.503 . S
C3963 C3962 1.370 . S
C3963 C3964 1.403 . S
C3964 C3963 1.403 . S
C3964 C3965 1.404 . S
C3964 C3967 1.539 . S
C3965 C3961 1.408 . S
C3965 C3964 1.404 . S
C3965 H3977 0.930 . S
C3966 C3962 1.524 . S
C3966 H3978 0.956 . S
C3966 H3979 0.961 . S
C3966 H3980 0.961 . S
C3967 C3964 1.539 . S
C3967 H3981 0.958 . S
C3967 H3982 0.961 . S
C3967 H3983 0.960 . S
H3968 C3952 0.931 1_556 S
H3969 C3957 0.929 . S
H3970 C3958 0.960 . S
H3971 C3958 0.962 . S
H3972 C3958 0.960 . S
H3973 C3959 0.961 . S
H3974 C3959 0.961 . S
H3975 C3959 0.961 . S
H3976 C3960 0.931 . S
H3977 C3965 0.930 . S
H3978 C3966 0.956 . S
H3979 C3966 0.961 . S
H3980 C3966 0.961 . S
H3981 C3967 0.958 . S
H3982 C3967 0.961 . S
H3983 C3967 0.960 . S
C3984 C3985 1.391 . S
C3984 C3986 1.394 . S
C3984 H4000 0.931 . S
C3985 C3984 1.391 . S
C3985 C3989 1.376 . S
C3986 C3984 1.394 . S
C3986 C3987 1.369 . S
C3986 C3990 1.531 . S
C3987 C3986 1.369 . S
C3987 C3988 1.410 . S
C3987 C3995 1.503 . S
C3988 C3987 1.410 . S
C3988 C3989 1.392 . S
C3988 C3991 1.511 . S
C3989 C3985 1.376 . S
C3989 C3988 1.392 . S
C3989 H4001 0.929 . S
C3990 C3986 1.531 . S
C3990 H4002 0.960 . S
C3990 H4003 0.962 . S
C3990 H4004 0.960 . S
C3991 C3988 1.511 . S
C3991 H4005 0.961 . S
C3991 H4006 0.961 . S
C3991 H4007 0.961 . S
C3992 C3993 1.370 . S
C3992 C3994 1.363 . S
C3992 H4008 0.931 . S
C3993 C3992 1.370 . S
C3993 C3997 1.408 . S
C3994 C3992 1.363 . S
C3994 C3995 1.370 . S
C3994 C3998 1.524 . S
C3995 C3987 1.503 . S
C3995 C3994 1.370 . S
C3995 C3996 1.403 . S
C3996 C3995 1.403 . S
C3996 C3997 1.404 . S
C3996 C3999 1.539 . S
C3997 C3993 1.408 . S
C3997 C3996 1.404 . S
C3997 H4009 0.930 . S
C3998 C3994 1.524 . S
C3998 H4010 0.956 . S
C3998 H4011 0.961 . S
C3998 H4012 0.961 . S
C3999 C3996 1.539 . S
C3999 H4013 0.958 . S
C3999 H4014 0.961 . S
C3999 H4015 0.960 . S
H4000 C3984 0.931 . S
H4001 C3989 0.929 . S
H4002 C3990 0.960 . S
H4003 C3990 0.962 . S
H4004 C3990 0.960 . S
H4005 C3991 0.961 . S
H4006 C3991 0.961 . S
H4007 C3991 0.961 . S
H4008 C3992 0.931 . S
H4009 C3997 0.930 . S
H4010 C3998 0.956 . S
H4011 C3998 0.961 . S
H4012 C3998 0.961 . S
H4013 C3999 0.958 . S
H4014 C3999 0.961 . S
H4015 C3999 0.960 . S
C4016 C4017 1.391 . S
C4016 C4018 1.394 . S
C4016 H4032 0.931 . S
C4017 C4016 1.391 . S
C4017 C4021 1.376 . S
C4018 C4016 1.394 . S
C4018 C4019 1.369 . S
C4018 C4022 1.531 . S
C4019 C4018 1.369 . S
C4019 C4020 1.410 . S
C4019 C4027 1.503 . S
C4020 C4019 1.410 . S
C4020 C4021 1.392 . S
C4020 C4023 1.511 . S
C4021 C4017 1.376 . S
C4021 C4020 1.392 . S
C4021 H4033 0.929 . S
C4022 C4018 1.531 . S
C4022 H4034 0.960 . S
C4022 H4035 0.962 . S
C4022 H4036 0.960 . S
C4023 C4020 1.511 . S
C4023 H4037 0.961 . S
C4023 H4038 0.961 . S
C4023 H4039 0.961 . S
C4024 C4025 1.370 . S
C4024 C4026 1.363 . S
C4024 H4040 0.931 . S
C4025 C4024 1.370 . S
C4025 C4029 1.408 . S
C4026 C4024 1.363 . S
C4026 C4027 1.370 . S
C4026 C4030 1.524 . S
C4027 C4019 1.503 . S
C4027 C4026 1.370 . S
C4027 C4028 1.403 . S
C4028 C4027 1.403 . S
C4028 C4029 1.404 . S
C4028 C4031 1.539 . S
C4029 C4025 1.408 . S
C4029 C4028 1.404 . S
C4029 H4041 0.930 . S
C4030 C4026 1.524 . S
C4030 H4042 0.956 . S
C4030 H4043 0.961 . S
C4030 H4044 0.961 . S
C4031 C4028 1.539 . S
C4031 H4045 0.958 . S
C4031 H4046 0.961 . S
C4031 H4047 0.960 . S
H4032 C4016 0.931 . S
H4033 C4021 0.929 . S
H4034 C4022 0.960 . S
H4035 C4022 0.962 . S
H4036 C4022 0.960 . S
H4037 C4023 0.961 . S
H4038 C4023 0.961 . S
H4039 C4023 0.961 . S
H4040 C4024 0.931 . S
H4041 C4029 0.930 . S
H4042 C4030 0.956 . S
H4043 C4030 0.961 . S
H4044 C4030 0.961 . S
H4045 C4031 0.958 . S
H4046 C4031 0.961 . S
H4047 C4031 0.960 . S
C977 C105 1.817 1_455 S
C985 C358 1.847 . S
C1009 C65 1.195 . S
C1017 C378 1.212 . S
C1041 C73 0.713 . S
C1049 C425 0.709 . S
C1081 C482 1.070 . S
C1073 C92 1.078 . S
C1105 C17 2.674 . S
C1113 C499 2.664 . S
C1145 C558 1.821 . S
C1137 C37 1.826 . S
C1177 C591 2.745 . S
C1169 C49 2.684 . S
C1201 C8 2.507 . S
C1209 C638 2.472 . S
C1241 C351 1.575 . S
C1233 C231 1.539 1_545 S
C1265 C241 1.434 . S
C1273 C379 1.436 . S
C1305 C418 0.517 . S
C1297 C273 0.468 . S
C1337 C478 2.164 . S
C1329 C171 2.156 . S
C1361 C227 0.387 . S
C1369 C505 0.476 . S
C1401 C551 2.304 . S
C1393 C245 2.276 . S
C1433 C602 0.571 . S
C1425 C269 0.354 . S
C1465 C631 2.339 . S
C1457 C175 2.289 . S
C1497 C362 1.782 1_565 S
C1489 C162 1.779 . S
C1521 C289 2.246 . S
C1529 C658 2.220 . S
C1561 C722 1.303 . S
C1553 C330 1.335 . S
C1593 C758 1.404 1_655 S
C1585 C317 1.417 . S
C1617 C120 1.328 . S
C1625 C642 1.365 . S
C1649 C134 2.599 . S
C1657 C419 2.600 . S
C1681 C331 1.378 . S
C1689 C791 1.420 . S
C1721 C825 0.355 . S
C1713 C303 0.291 . S
C1753 C339 1.857 . S
C1745 C59 1.845 . S
C1785 C831 1.231 . S
C1777 C107 1.261 . S
C1809 C91 0.785 . S
C1817 C442 0.763 . S
C1841 C78 1.110 . S
C1849 C785 1.055 . S
C1881 C518 2.727 . S
C1873 C7 2.713 . S
C1905 C51 1.844 . S
C1913 C699 1.844 . S
C1945 C578 2.790 1_556 S
C1937 C31 2.788 . S
C1977 C859 2.478 . S
C1969 C22 2.497 1_655 S
C2009 C338 1.575 . S
C2001 C143 1.550 . S
C2041 C838 1.524 . S
C2033 C315 1.525 . S
C2065 C115 0.512 . S
C2073 C431 0.555 . S
C2097 C287 2.099 . S
C2105 C779 2.203 . S
C2129 C147 0.469 . S
C2137 C522 0.449 . S
C2169 C698 2.353 . S
C2161 C311 2.346 . S
C2193 C119 0.646 . S
C2201 C585 0.492 . S
C2225 C283 2.370 . S
C2233 C858 2.369 . S
C2257 C190 1.742 . S
C2265 C345 1.733 . S
C2289 C177 2.251 . S
C2297 C671 2.249 . S
C2321 C260 1.343 . S
C2329 C545 1.303 . S
C2353 C247 1.444 . S
C2361 C739 1.441 . S
C2393 C865 1.323 . S
C2385 C274 1.261 . S
C2417 C218 2.630 . S
C2425 C438 2.640 1_565 S
C2457 C458 1.462 . S
C2449 C261 1.455 . S
C2489 C402 0.374 . S
C2481 C205 0.353 . S
C2513 C77 1.845 . S
C2521 C918 1.843 . S
C2553 C818 1.199 . S
C2545 C93 1.189 . S
C2577 C101 0.709 . S
C2585 C945 0.714 . S
C2609 C64 1.061 . S
C2617 C802 1.077 . S
C2641 C45 2.678 . S
C2649 C659 2.663 . S
C2681 C718 1.823 . S
C2673 C9 1.816 1_655 S
C2713 C751 2.745 . S
C2705 C21 2.687 . S
C2745 C878 2.480 . S
C2737 C36 2.499 . S
C2777 C911 1.580 . S
C2769 C259 1.537 . S
C2801 C185 1.441 . S
C2809 C819 1.431 . S
C2841 C938 0.525 . S
C2833 C203 0.426 . S
C2873 C798 2.163 . S
C2865 C213 2.148 . S
C2905 C665 0.462 . S
C2897 C255 0.384 . S
C2929 C189 2.276 . S
C2937 C711 2.301 . S
C2969 C762 0.491 . S
C2961 C199 0.540 . S
C2993 C217 2.289 . S
C3001 C871 2.340 . S
C3033 C922 1.761 . S
C3025 C316 1.814 . S
C3057 C135 2.245 . S
C3065 C498 2.216 . S
C3097 C562 1.311 . S
C3089 C148 1.290 . S
C3129 C598 1.421 . S
C3121 C163 1.406 . S
C3161 C882 1.336 . S
C3153 C302 1.368 . S
C3185 C288 2.589 . S
C3193 C939 2.595 1_655 S
C3225 C471 1.411 . S
C3217 C149 1.416 . S
C3257 C385 0.321 . S
C3249 C121 0.330 . S
C3281 C87 1.869 . S
C3289 C899 1.842 . S
C3321 C391 1.251 . S
C3313 C79 1.205 . S
C3345 C63 0.725 . S
C3353 C962 0.749 . S
C3377 C106 1.040 . S
C3385 C465 1.082 . S
C3409 C35 2.710 . S
C3417 C678 2.730 1_556 S
C3449 C539 1.845 . S
C3441 C23 1.846 . S
C3473 C3 2.783 . S
C3481 C738 2.788 . S
C3505 C50 2.499 . S
C3513 C619 2.484 . S
C3545 C898 1.575 . S
C3537 C325 1.552 . S
C3569 C161 1.512 . S
C3577 C398 1.516 . S
C3609 C951 0.498 . S
C3601 C297 0.584 . S
C3633 C133 2.090 . S
C3641 C459 2.200 . S
C3665 C329 0.437 . S
C3673 C682 0.452 . S
C3705 C538 2.351 . S
C3697 C157 2.348 1_556 S
C3729 C301 0.673 . S
C3737 C745 0.492 . S
C3769 C618 2.367 . S
C3761 C129 2.371 . S
C3801 C905 1.737 . S
C3793 C246 1.747 . S
C3833 C511 2.243 1_655 S
C3825 C219 2.261 . S
C3857 C232 1.306 . S
C3865 C705 1.309 . S
C3897 C579 1.450 . S
C3889 C191 1.454 . S
C3921 C204 1.328 . S
C3929 C625 1.305 . S
C3953 C176 2.637 . S
C3961 C958 2.636 . S
C3993 C778 1.468 . S
C3985 C233 1.415 . S
C4025 C842 0.364 . S
C4017 C275 0.368 . S
