# Generated by pormake.
# Topology anh, (6,3)-cn, num edge types: 1
# Building blocks:
#     Node 0, Type 0, BuildingBlock: PAMTOO_clean_sbu_0, # of connection points: 6
#     Node 1, Type 0, BuildingBlock: PAMTOO_clean_sbu_0, # of connection points: 6
#     Node 2, Type 0, BuildingBlock: PAMTOO_clean_sbu_0, # of connection points: 6
#     Node 3, Type 1, BuildingBlock: WUSLED_clean_sbu_0, # of connection points: 3
#     Node 4, Type 1, BuildingBlock: WUSLED_clean_sbu_0, # of connection points: 3
#     Node 5, Type 1, BuildingBlock: WUSLED_clean_sbu_0, # of connection points: 3
#     Node 6, Type 1, BuildingBlock: WUSLED_clean_sbu_0, # of connection points: 3
#     Node 7, Type 1, BuildingBlock: WUSLED_clean_sbu_0, # of connection points: 3
#     Node 8, Type 1, BuildingBlock: WUSLED_clean_sbu_0, # of connection points: 3
#     Edge 9, Type (0, 1), BuildingBlock: EZIPEK_clean_linker_0, # of connection points: 2
#     Edge 10, Type (0, 1), BuildingBlock: EZIPEK_clean_linker_0, # of connection points: 2
#     Edge 11, Type (0, 1), BuildingBlock: EZIPEK_clean_linker_0, # of connection points: 2
#     Edge 12, Type (0, 1), BuildingBlock: EZIPEK_clean_linker_0, # of connection points: 2
#     Edge 13, Type (0, 1), BuildingBlock: EZIPEK_clean_linker_0, # of connection points: 2
#     Edge 14, Type (0, 1), BuildingBlock: EZIPEK_clean_linker_0, # of connection points: 2
#     Edge 15, Type (0, 1), BuildingBlock: EZIPEK_clean_linker_0, # of connection points: 2
#     Edge 16, Type (0, 1), BuildingBlock: EZIPEK_clean_linker_0, # of connection points: 2
#     Edge 17, Type (0, 1), BuildingBlock: EZIPEK_clean_linker_0, # of connection points: 2
#     Edge 18, Type (0, 1), BuildingBlock: EZIPEK_clean_linker_0, # of connection points: 2
#     Edge 19, Type (0, 1), BuildingBlock: EZIPEK_clean_linker_0, # of connection points: 2
#     Edge 20, Type (0, 1), BuildingBlock: EZIPEK_clean_linker_0, # of connection points: 2
#     Edge 21, Type (0, 1), BuildingBlock: EZIPEK_clean_linker_0, # of connection points: 2
#     Edge 22, Type (0, 1), BuildingBlock: EZIPEK_clean_linker_0, # of connection points: 2
#     Edge 23, Type (0, 1), BuildingBlock: EZIPEK_clean_linker_0, # of connection points: 2
#     Edge 24, Type (0, 1), BuildingBlock: EZIPEK_clean_linker_0, # of connection points: 2
#     Edge 25, Type (0, 1), BuildingBlock: EZIPEK_clean_linker_0, # of connection points: 2
#     Edge 26, Type (0, 1), BuildingBlock: EZIPEK_clean_linker_0, # of connection points: 2
# Relax obj value: 0.192
# Max RMSD: 0.199
# Mean RMSD: 0.156
data_MOF--net-anh--node1-PAMTOO_clean_sbu_0--node2-WUSLED_clean_sbu_0--edge1-EZIPEK_clean_linker_0
_symmetry_space_group_name_H-M    P1
_symmetry_Int_Tables_number       1
_symmetry_cell_setting            triclinic
loop_
_symmetry_equiv_pos_as_xyz
'x, y, z'
_cell_length_a     31.316327
_cell_length_b     30.047535
_cell_length_c     55.720847
_cell_angle_alpha  90.0684
_cell_angle_beta   95.054996
_cell_angle_gamma 104.15963
loop_
_atom_site_label
_atom_site_type_symbol
_atom_site_fract_x
_atom_site_fract_y
_atom_site_fract_z
_atom_type_partial_charge
Dy0 Dy 0.09776 0.60838 0.16901 0.0
Dy1 Dy 1.06724 0.49776 0.16556 0.0
C2 C 0.07719 0.55636 0.11858 0.0
O3 O 1.0234 0.59463 0.15823 0.0
O4 O 1.00407 0.52051 0.17105 0.0
O5 O 0.11313 0.67687 0.15429 0.0
O6 O 0.1202 0.6673 0.19281 0.0
O7 O 0.0977 0.51838 0.20268 0.0
O8 O 1.07376 0.58314 0.20437 0.0
O9 O 0.13953 0.51172 0.15723 0.0
O10 O 0.16287 0.58605 0.17183 0.0
O11 O 1.05623 0.43468 0.18496 0.0
O12 O 1.04034 0.43257 0.14642 0.0
C13 C 0.99245 0.55797 0.16333 0.0
O14 O 0.10477 0.58969 0.1312 0.0
O15 O 1.0522 0.5217 0.12886 0.0
C16 C 0.17346 0.72698 0.17726 0.0
C17 C 0.25626 0.79038 0.18452 0.0
C18 C 0.22242 0.80039 0.16885 0.0
C19 C 0.18114 0.76893 0.16535 0.0
C20 C 0.20826 0.71614 0.19198 0.0
C21 C 0.24922 0.74778 0.19571 0.0
C22 C 0.12871 0.69595 0.17533 0.0
C23 C 0.08615 0.54936 0.21523 0.0
C24 C 0.17215 0.54846 0.16339 0.0
C25 C 0.99233 0.38081 0.16978 0.0
C26 C 0.91111 0.32426 0.18081 0.0
C27 C 0.92118 0.37156 0.18598 0.0
C28 C 0.96137 0.39969 0.18032 0.0
C29 C 0.98185 0.33375 0.16406 0.0
C30 C 0.94134 0.30562 0.16945 0.0
C31 C 1.03644 0.40964 0.16626 0.0
H32 H 0.22745 0.83322 0.16011 0.0
H33 H 0.15487 0.77785 0.15386 0.0
H34 H 0.2035 0.68378 0.20118 0.0
H35 H 0.27509 0.73956 0.20782 0.0
H36 H 0.89824 0.38649 0.19473 0.0
H37 H 0.96872 0.43597 0.18476 0.0
H38 H 1.00533 0.31865 0.15593 0.0
H39 H 0.93398 0.26914 0.16534 0.0
Dy40 Dy 0.56285 0.02275 0.52994 0.0
Dy41 Dy 0.67175 0.05976 0.53582 0.0
C42 C 0.61684 0.04172 0.58149 0.0
O43 O 0.57461 0.0987 0.52571 0.0
O44 O 0.64692 0.12176 0.54237 0.0
O45 O 0.50236 0.99489 0.54605 0.0
O46 O 0.50038 1.0086 0.50782 0.0
O47 O 0.64705 0.07327 0.49828 0.0
O48 O 0.5874 1.01189 0.49443 0.0
O49 O 0.65996 0.9834 0.53147 0.0
O50 O 0.58654 0.96019 0.53896 0.0
O51 O 0.73426 0.06592 0.52094 0.0
O52 O 0.73209 0.09697 0.55579 0.0
C53 C 0.60909 0.13056 0.53467 0.0
O54 O 0.58237 0.04767 0.56797 0.0
O55 O 0.65233 0.03623 0.5722 0.0
C56 C 0.44919 0.94282 0.52028 0.0
C57 C 0.38964 0.85669 0.51141 0.0
C58 C 0.42316 0.86248 0.53037 0.0
C59 C 0.45296 0.90523 0.53471 0.0
C60 C 0.41622 0.93648 0.50099 0.0
C61 C 0.3867 0.89369 0.49656 0.0
C62 C 0.47845 0.98892 0.52541 0.0
C63 C 0.61726 0.04327 0.48474 0.0
C64 C 0.62484 0.95147 0.53613 0.0
C65 C 0.783 0.1378 0.53052 0.0
C66 C 0.83419 0.22243 0.51652 0.0
C67 C 0.78827 0.21069 0.51069 0.0
C68 C 0.76281 0.16852 0.51765 0.0
C69 C 0.82881 0.14969 0.53647 0.0
C70 C 0.85432 0.19179 0.52945 0.0
C71 C 0.75615 0.09393 0.53821 0.0
H72 H 0.42571 0.83419 0.54199 0.0
H73 H 0.47837 0.90897 0.54959 0.0
H74 H 0.41287 0.96484 0.4896 0.0
H75 H 0.36091 0.88962 0.48185 0.0
H76 H 0.77231 0.234 0.50069 0.0
H77 H 0.72741 0.15978 0.51303 0.0
H78 H 0.84479 0.12646 0.54652 0.0
H79 H 0.88976 0.20052 0.53406 0.0
Dy80 Dy 0.61538 0.52367 0.85531 0.0
Dy81 Dy 0.51134 0.48686 0.84364 0.0
C82 C 0.57446 0.51356 0.79974 0.0
O83 O 0.59023 0.58716 0.85638 0.0
O84 O 0.52148 0.56185 0.83582 0.0
O85 O 0.6757 0.57678 0.85716 0.0
O86 O 0.67455 0.51085 0.87346 0.0
O87 O 0.52054 0.51577 0.88153 0.0
O88 O 0.58835 0.50245 0.89036 0.0
O89 O 0.53845 0.42611 0.85265 0.0
O90 O 0.60543 0.45365 0.83868 0.0
O91 O 0.4464 0.46729 0.85603 0.0
O92 O 0.45622 0.4501 0.81955 0.0
C93 C 0.55491 0.59526 0.8445 0.0
O94 O 0.60959 0.52759 0.81508 0.0
O95 O 0.53497 0.49586 0.80669 0.0
C96 C 0.73339 0.54356 0.85176 0.0
C97 C 0.79861 0.53314 0.82312 0.0
C98 C 0.75445 0.52089 0.81369 0.0
C99 C 0.72183 0.52577 0.8281 0.0
C100 C 0.77745 0.55543 0.86126 0.0
C101 C 0.81009 0.55012 0.84694 0.0
C102 C 0.69891 0.54923 0.86623 0.0
C103 C 0.55265 0.51149 0.89741 0.0
C104 C 0.57326 0.41892 0.84349 0.0
C105 C 0.39347 0.47692 0.82587 0.0
C106 C 0.34383 0.54165 0.81728 0.0
C107 C 0.33772 0.51346 0.83738 0.0
C108 C 0.36198 0.48091 0.84149 0.0
C109 C 0.39713 0.50258 0.80465 0.0
C110 C 0.37184 0.53453 0.80022 0.0
C111 C 0.42764 0.4538 0.83456 0.0
H112 H 0.74544 0.50779 0.79535 0.0
H113 H 0.68764 0.51588 0.82076 0.0
H114 H 0.7865 0.56885 0.87956 0.0
H115 H 0.84438 0.55959 0.8543 0.0
H116 H 0.31584 0.51839 0.85063 0.0
H117 H 0.35879 0.46157 0.85792 0.0
H118 H 0.42135 0.50018 0.7923 0.0
H119 H 0.37623 0.55564 0.78445 0.0
C120 C 0.67491 0.13516 0.21958 0.0
C121 C 0.6981 0.16872 0.23672 0.0
C122 C 0.75088 0.20029 0.20793 0.0
C123 C 0.73578 0.20127 0.23088 0.0
C124 C 0.72758 0.16681 0.19082 0.0
C125 C 0.6898 0.13451 0.19661 0.0
U126 U 0.60316 0.06423 0.26488 0.0
O127 O 0.53086 0.04262 0.26479 0.0
O128 O 0.56941 0.9907 0.26334 0.0
C129 C 0.52992 0.99885 0.26221 0.0
C130 C 0.63577 0.10002 0.22544 0.0
C131 C 0.49624 0.97148 0.24418 0.0
C132 C 0.43279 0.96442 0.21458 0.0
C133 C 0.46945 0.99183 0.22829 0.0
C134 C 0.45087 0.89612 0.23121 0.0
C135 C 0.42248 0.91649 0.21666 0.0
C136 C 0.48743 0.92341 0.24487 0.0
C137 C 0.63713 0.08125 0.3327 0.0
C138 C 0.58894 0.05229 0.36416 0.0
C139 C 0.6676 0.0824 0.37443 0.0
C140 C 0.67343 0.09144 0.35016 0.0
C141 C 0.62533 0.06313 0.38163 0.0
C142 C 0.59482 0.06114 0.3398 0.0
C143 C 0.64418 0.09245 0.30737 0.0
O144 O 0.64394 0.06255 0.23483 0.0
O145 O 0.60613 0.11497 0.23627 0.0
O146 O 0.61569 0.11245 0.29589 0.0
O147 O 0.65373 0.06028 0.29436 0.0
H148 H 0.68722 0.16955 0.25461 0.0
H149 H 0.75348 0.22685 0.24429 0.0
H150 H 0.73888 0.16555 0.17306 0.0
H151 H 0.67238 0.10876 0.18321 0.0
H152 H 0.41106 0.98062 0.20343 0.0
H153 H 0.4755 0.02881 0.22728 0.0
H154 H 0.44331 0.85919 0.23303 0.0
H155 H 0.50754 0.90694 0.25697 0.0
H156 H 0.55608 0.03742 0.36942 0.0
H157 H 0.69599 0.09106 0.38768 0.0
H158 H 0.70629 0.10683 0.34503 0.0
H159 H 0.56639 0.05275 0.32657 0.0
C160 C 0.62614 0.66684 0.55207 0.0
C161 C 0.60045 0.68638 0.56643 0.0
C162 C 0.62785 0.76075 0.54858 0.0
C163 C 0.60141 0.73321 0.56472 0.0
C164 C 0.65413 0.74137 0.53469 0.0
C165 C 0.65329 0.69483 0.53645 0.0
U166 U 0.61368 0.53963 0.57407 0.0
O167 O 0.57659 0.47931 0.552 0.0
O168 O 0.64873 0.49217 0.55931 0.0
C169 C 0.61222 0.46495 0.54906 0.0
C170 C 0.62256 0.61705 0.55087 0.0
C171 C 0.60796 0.41502 0.54991 0.0
C172 C 0.5809 0.34069 0.52938 0.0
C173 C 0.58204 0.38732 0.53108 0.0
C174 C 0.63083 0.3482 0.56578 0.0
C175 C 0.60569 0.32098 0.54652 0.0
C176 C 0.63206 0.39507 0.56746 0.0
C177 C 0.6017 0.53375 0.64667 0.0
C178 C 0.56009 0.50218 0.68032 0.0
C179 C 0.631 0.55692 0.68801 0.0
C180 C 0.63523 0.55946 0.66318 0.0
C181 C 0.59351 0.52806 0.69678 0.0
C182 C 0.56399 0.50526 0.65548 0.0
C183 C 0.60625 0.53604 0.62043 0.0
O184 O 0.65634 0.60238 0.56042 0.0
O185 O 0.58402 0.58924 0.55397 0.0
O186 O 0.57168 0.52932 0.60441 0.0
O187 O 0.64492 0.54509 0.61153 0.0
H188 H 0.57903 0.66537 0.57848 0.0
H189 H 0.58091 0.74775 0.57556 0.0
H190 H 0.67466 0.76212 0.52216 0.0
H191 H 0.673 0.68032 0.52505 0.0
H192 H 0.56139 0.32013 0.51442 0.0
H193 H 0.56356 0.4021 0.51724 0.0
H194 H 0.65019 0.33337 0.57913 0.0
H195 H 0.65252 0.41579 0.58207 0.0
H196 H 0.53094 0.47971 0.68673 0.0
H197 H 0.6571 0.5772 0.70042 0.0
H198 H 0.66458 0.58175 0.65687 0.0
H199 H 0.53778 0.48488 0.64316 0.0
C200 C 1.04792 0.57325 0.84791 0.0
C201 C 1.0086 0.56035 0.85911 0.0
C202 C 0.96728 0.54672 0.81999 0.0
C203 C 0.96847 0.5473 0.8452 0.0
C204 C 1.0067 0.55724 0.80873 0.0
C205 C 1.04713 0.57086 0.82275 0.0
U206 U 0.10696 0.59905 0.9095 0.0
O207 O 0.17209 0.59082 0.9239 0.0
O208 O 0.1584 0.65917 0.92391 0.0
C209 C 0.18873 0.63554 0.92446 0.0
C210 C 0.08913 0.59126 0.86273 0.0
C211 C 0.2227 0.65014 0.9076 0.0
C212 C 0.23323 0.66946 0.86576 0.0
C213 C 0.21223 0.67269 0.88648 0.0
C214 C 0.27882 0.62557 0.88763 0.0
C215 C 0.26471 0.64359 0.86596 0.0
C216 C 0.25802 0.62901 0.90843 0.0
C217 C 1.05034 0.56818 0.96498 0.0
C218 C 0.09739 0.57441 1.00236 0.0
C219 C 1.01757 0.5579 1.00292 0.0
C220 C 1.0128 0.5593 0.9778 0.0
C221 C 1.05988 0.56523 0.01519 0.0
C222 C 0.09265 0.57607 0.97735 0.0
C223 C 1.04611 0.5693 0.93873 0.0
O224 O 0.09002 0.6288 0.87512 0.0
O225 O 0.10346 0.56039 0.8756 0.0
O226 O 1.0666 0.5422 0.92836 0.0
O227 O 1.05348 0.61076 0.92986 0.0
H228 H 1.00893 0.56187 0.87857 0.0
H229 H 0.93814 0.53921 0.85408 0.0
H230 H 1.00593 0.55679 0.78926 0.0
H231 H 0.07751 0.58066 0.81402 0.0
H232 H 0.2223 0.68365 0.84914 0.0
H233 H 0.18476 0.6888 0.88511 0.0
H234 H 0.30348 0.60573 0.88795 0.0
H235 H 0.26621 0.61088 0.9243 0.0
H236 H 0.13017 0.58021 0.01172 0.0
H237 H 0.98844 0.55087 0.01279 0.0
H238 H 0.98003 0.55336 0.96842 0.0
H239 H 0.12195 0.58326 0.96761 0.0
C240 C 1.01871 0.46855 0.47914 0.0
C241 C 0.97916 0.45422 0.4641 0.0
C242 C 0.95408 0.39018 0.49019 0.0
C243 C 0.94691 0.41542 0.46969 0.0
C244 C 0.99351 0.40456 0.50522 0.0
C245 C 1.02559 0.44353 0.49974 0.0
U246 U 0.08054 0.54425 0.4325 0.0
O247 O 0.10786 0.61894 0.43173 0.0
O248 O 0.15182 0.57217 0.43062 0.0
C249 C 0.1487 0.61495 0.43161 0.0
C250 C 1.05385 0.5081 0.47303 0.0
C251 C 0.18189 0.64611 0.448 0.0
C252 C 0.22267 0.66674 0.48722 0.0
C253 C 0.18929 0.63668 0.47251 0.0
C254 C 0.24061 0.71569 0.45308 0.0
C255 C 0.2486 0.70624 0.47744 0.0
C256 C 0.20748 0.68584 0.43848 0.0
C257 C 1.04803 0.51847 0.36588 0.0
C258 C 0.09619 0.55426 0.33579 0.0
C259 C 1.02675 0.50117 0.32344 0.0
C260 C 1.01717 0.49617 0.34746 0.0
C261 C 1.06874 0.52619 0.31718 0.0
C262 C 0.08668 0.54929 0.35987 0.0
C263 C 1.04013 0.50862 0.39116 0.0
O264 O 0.08599 0.49755 0.46238 0.0
O265 O 1.04067 0.54282 0.4632 0.0
O266 O 1.02769 0.54029 0.40313 0.0
O267 O 1.07067 0.49251 0.40339 0.0
H268 H 0.9734 0.47275 0.44796 0.0
H269 H 0.91667 0.40467 0.4579 0.0
H270 H 0.99954 0.38535 0.52107 0.0
H271 H 1.05602 0.45386 0.51142 0.0
H272 H 0.22856 0.65913 0.50604 0.0
H273 H 0.16965 0.60607 0.48011 0.0
H274 H 0.26035 0.74609 0.44533 0.0
H275 H 0.20211 0.69356 0.41962 0.0
H276 H 0.12494 0.58066 0.33238 0.0
H277 H 1.00079 0.48468 0.30994 0.0
H278 H 0.98583 0.4743 0.35164 0.0
H279 H 0.10975 0.56922 0.37385 0.0
C280 C 0.56215 0.88348 0.8296 0.0
C281 C 0.54118 0.85331 0.81039 0.0
C282 C 0.55913 0.78871 0.83202 0.0
C283 C 0.53971 0.80625 0.81161 0.0
C284 C 0.58088 0.81901 0.8509 0.0
C285 C 0.58234 0.86589 0.8497 0.0
U286 U 0.57118 1.00497 0.80254 0.0
O287 O 0.53135 0.054 0.81007 0.0
O288 O 0.60282 0.07112 0.82122 0.0
C289 C 0.56533 0.08336 0.82139 0.0
C290 C 0.56132 0.93261 0.83013 0.0
C291 C 0.56641 0.1328 0.82141 0.0
C292 C 0.55995 0.19927 0.84457 0.0
C293 C 0.55787 0.1524 0.8428 0.0
C294 C 0.57886 0.2082 0.80333 0.0
C295 C 0.57065 0.2277 0.82495 0.0
C296 C 0.57677 0.16091 0.80156 0.0
C297 C 0.5971 1.01206 0.73369 0.0
C298 C 0.57926 0.05189 0.69757 0.0
C299 C 0.62983 1.00254 0.69662 0.0
C300 C 0.62539 0.99318 0.72092 0.0
C301 C 0.60621 0.03122 0.68466 0.0
C302 C 0.57454 0.0422 0.72199 0.0
C303 C 0.58796 0.99419 0.75785 0.0
O304 O 0.59932 0.96263 0.82886 0.0
O305 O 0.52824 0.94419 0.81764 0.0
O306 O 0.54771 0.9889 0.76441 0.0
O307 O 0.61922 1.00631 0.77565 0.0
H308 H 0.52539 0.86592 0.79465 0.0
H309 H 0.52293 0.78341 0.79681 0.0
H310 H 0.59622 0.80622 0.86674 0.0
H311 H 0.59861 0.88839 0.86474 0.0
H312 H 0.5535 0.21349 0.86137 0.0
H313 H 0.54993 0.13136 0.85835 0.0
H314 H 0.58712 0.22961 0.78796 0.0
H315 H 0.58352 0.14647 0.7849 0.0
H316 H 0.56068 0.07401 0.68852 0.0
H317 H 0.65057 0.98616 0.68692 0.0
H318 H 0.64266 0.96942 0.72951 0.0
H319 H 0.55224 0.05686 0.73143 0.0
C320 C 0.70526 0.55623 0.15011 0.0
C321 C 0.7258 0.54902 0.12933 0.0
C322 C 0.79906 0.55748 0.15275 0.0
C323 C 0.77179 0.54988 0.13062 0.0
C324 C 0.77811 0.56447 0.17338 0.0
C325 C 0.73256 0.56406 0.17205 0.0
U326 U 0.57619 0.54932 0.12689 0.0
O327 O 0.51712 0.51249 0.145 0.0
O328 O 0.53146 0.58687 0.14241 0.0
C329 C 0.50425 0.54983 0.14974 0.0
C330 C 0.6561 0.55494 0.15035 0.0
C331 C 0.4548 0.54773 0.14942 0.0
C332 C 0.38791 0.53335 0.17183 0.0
C333 C 0.4329 0.53338 0.17024 0.0
C334 C 0.38401 0.5619 0.13161 0.0
C335 C 0.36227 0.54782 0.15265 0.0
C336 C 0.42934 0.56197 0.13003 0.0
C337 C 0.56371 0.53854 0.05287 0.0
C338 C 0.55086 0.57084 0.01344 0.0
C339 C 0.56545 0.49547 0.0159 0.0
C340 C 0.56875 0.49887 0.04116 0.0
C341 C 0.55646 0.5314 1.00176 0.0
C342 C 0.55478 0.57452 0.03871 0.0
C343 C 0.56822 0.54251 0.07967 0.0
O344 O 0.64156 0.59072 0.14319 0.0
O345 O 0.62634 0.51623 0.14508 0.0
O346 O 0.56328 0.50643 0.09345 0.0
O347 O 0.57728 0.58229 0.09132 0.0
H348 H 0.70636 0.54265 0.11207 0.0
H349 H 0.78609 0.54433 0.11421 0.0
H350 H 0.79718 0.57034 0.19077 0.0
H351 H 0.71844 0.56967 0.18852 0.0
H352 H 0.3731 0.52225 0.18834 0.0
H353 H 0.451 0.5226 0.18571 0.0
H354 H 0.36594 0.57333 0.11635 0.0
H355 H 0.44452 0.57357 0.1137 0.0
H356 H 0.5439 0.599 1.00295 0.0
H357 H 0.57002 0.46478 0.00735 0.0
H358 H 0.57582 0.47064 0.05153 0.0
H359 H 0.55064 0.60548 0.04716 0.0
C360 C 0.23327 0.52617 0.1403 0.0
C361 C 0.22103 0.54798 0.16061 0.0
C362 C 0.30191 0.5755 0.17337 0.0
C363 C 0.31343 0.54854 0.15499 0.0
N364 N 0.28639 0.48995 0.124 0.0
N365 N 0.24658 0.58474 0.19965 0.0
C366 C 0.27796 0.52148 0.13939 0.0
C367 C 0.25626 0.57034 0.17797 0.0
N368 N 0.20309 0.51233 0.1209 0.0
N369 N 0.33451 0.60754 0.18612 0.0
H370 H 0.21446 0.57875 0.20471 0.0
H371 H 0.27067 0.59749 0.21374 0.0
H372 H 0.36776 0.61331 0.18301 0.0
H373 H 0.328 0.63159 0.19786 0.0
H374 H 0.21099 0.49986 0.10484 0.0
H375 H 0.17191 0.51896 0.11966 0.0
H376 H 0.26143 0.46585 0.11409 0.0
H377 H 0.31794 0.48481 0.12299 0.0
C378 C 0.8834 0.26712 0.48733 0.0
C379 C 0.86173 0.26647 0.50866 0.0
C380 C 0.89491 0.34877 0.51546 0.0
C381 C 0.92067 0.34806 0.49581 0.0
N382 N 0.94365 0.30574 0.46457 0.0
N383 N 0.84874 0.30491 0.5443 0.0
C384 C 0.91585 0.30707 0.48202 0.0
C385 C 0.86783 0.3069 0.52305 0.0
N386 N 0.87244 0.22969 0.47199 0.0
N387 N 0.89557 0.38968 0.52646 0.0
H388 H 0.82766 0.27515 0.55006 0.0
H389 H 0.85598 0.33178 0.55698 0.0
H390 H 0.91497 0.421 0.52131 0.0
H391 H 0.87428 0.39323 0.53926 0.0
H392 H 0.88342 0.22977 0.45489 0.0
H393 H 0.84925 0.19956 0.47549 0.0
H394 H 0.94512 0.27561 0.4558 0.0
H395 H 0.9679 0.33423 0.46011 0.0
C396 C 0.58355 0.67083 0.82477 0.0
C397 C 0.55399 0.6441 0.84028 0.0
C398 C 0.52447 0.71099 0.84809 0.0
C399 C 0.55624 0.73844 0.83402 0.0
N400 N 0.61951 0.74652 0.81127 0.0
N401 N 0.50034 0.63962 0.86914 0.0
C402 C 0.58662 0.71884 0.82289 0.0
C403 C 0.52533 0.66438 0.8525 0.0
N404 N 0.608 0.65004 0.81135 0.0
N405 N 0.49308 0.72949 0.85694 0.0
H406 H 0.49989 0.60544 0.87268 0.0
H407 H 0.48251 0.6536 0.88073 0.0
H408 H 0.49163 0.76344 0.85417 0.0
H409 H 0.46658 0.71067 0.86558 0.0
H410 H 0.62601 0.66603 0.79757 0.0
H411 H 0.60768 0.61539 0.81267 0.0
H412 H 0.64594 0.73571 0.80525 0.0
H413 H 0.62225 0.78155 0.80908 0.0
C414 C 0.91068 0.5216 0.1478 0.0
C415 C 0.94293 0.55839 0.16019 0.0
C416 C 0.88188 0.59729 0.16438 0.0
C417 C 0.84898 0.55812 0.15465 0.0
N418 N 0.83369 0.47872 0.14175 0.0
N419 N 0.95547 0.62736 0.18468 0.0
C420 C 0.86398 0.51917 0.14763 0.0
C421 C 0.92739 0.59519 0.16961 0.0
N422 N 0.92447 0.48962 0.1351 0.0
N423 N 0.87016 0.63754 0.16786 0.0
H424 H 0.98808 0.6264 0.18972 0.0
H425 H 0.9451 0.65206 0.1942 0.0
H426 H 0.8381 0.64114 0.16361 0.0
H427 H 0.89308 0.66845 0.17252 0.0
H428 H 0.90305 0.46491 0.12369 0.0
H429 H 0.95773 0.49081 0.13383 0.0
H430 H 0.84247 0.44791 0.13908 0.0
H431 H 0.79974 0.47486 0.14199 0.0
C432 C 0.31234 0.81113 0.51448 0.0
C433 C 0.35536 0.81294 0.50778 0.0
C434 C 0.32914 0.73595 0.48946 0.0
C435 C 0.28512 0.73819 0.49208 0.0
N436 N 0.23366 0.77701 0.50703 0.0
N437 N 0.40582 0.77782 0.48895 0.0
C438 C 0.27637 0.77517 0.50498 0.0
C439 C 0.36433 0.77516 0.49566 0.0
N440 N 0.30613 0.84383 0.52998 0.0
N441 N 0.33697 0.69633 0.48088 0.0
H442 H 0.43253 0.80575 0.49354 0.0
H443 H 0.41333 0.7537 0.47768 0.0
H444 H 0.31156 0.6672 0.47619 0.0
H445 H 0.36846 0.69085 0.48048 0.0
H446 H 0.27637 0.84227 0.53731 0.0
H447 H 0.33201 0.87056 0.53727 0.0
H448 H 0.22492 0.80574 0.51353 0.0
H449 H 0.20658 0.7504 0.50102 0.0
C450 C 0.54211 0.34451 0.82023 0.0
C451 C 0.57479 0.37106 0.83735 0.0
C452 C 0.60946 0.30617 0.84235 0.0
C453 C 0.57364 0.27796 0.82763 0.0
N454 N 0.50258 0.26861 0.80503 0.0
N455 N 0.63673 0.37574 0.86697 0.0
C456 C 0.53913 0.29673 0.81714 0.0
C457 C 0.60795 0.35163 0.84891 0.0
N458 N 0.51488 0.36531 0.80627 0.0
N459 N 0.64535 0.2897 0.84971 0.0
H460 H 0.63657 0.40896 0.87234 0.0
H461 H 0.65835 0.36158 0.87798 0.0
H462 H 0.64761 0.25669 0.8452 0.0
H463 H 0.67444 0.30993 0.85839 0.0
H464 H 0.4935 0.34888 0.7918 0.0
H465 H 0.51675 0.40036 0.8076 0.0
H466 H 0.4741 0.27925 0.79947 0.0
H467 H 0.49927 0.23358 0.80217 0.0
C468 C 0.60335 0.86937 0.52159 0.0
C469 C 0.62801 0.90319 0.53863 0.0
C470 C 0.65487 0.84391 0.56137 0.0
C471 C 0.62726 0.80977 0.5455 0.0
N472 N 0.57091 0.78858 0.51231 0.0
N473 N 0.67226 0.92247 0.5766 0.0
C474 C 0.60029 0.82212 0.52608 0.0
C475 C 0.65263 0.89047 0.55898 0.0
N476 N 0.58398 0.8826 0.50073 0.0
N477 N 0.68396 0.83193 0.57841 0.0
H478 H 0.67201 0.95699 0.57539 0.0
H479 H 0.68596 0.91435 0.59323 0.0
H480 H 0.6857 0.79804 0.58112 0.0
H481 H 0.70856 0.85572 0.58868 0.0
H482 H 0.56962 0.86016 0.48638 0.0
H483 H 0.58552 0.91687 0.49686 0.0
H484 H 0.54685 0.79508 0.49963 0.0
H485 H 0.56821 0.75363 0.51483 0.0
C486 C 0.85021 0.48991 0.80969 0.0
C487 C 0.83416 0.52992 0.80837 0.0
C488 C 0.90622 0.57716 0.80102 0.0
C489 C 0.92373 0.53865 0.80627 0.0
N490 N 0.91332 0.45698 0.80719 0.0
N491 N 0.84036 0.60616 0.79401 0.0
C492 C 0.89559 0.49417 0.80713 0.0
C493 C 0.86001 0.57154 0.80043 0.0
N494 N 0.82296 0.44926 0.81552 0.0
N495 N 0.93401 0.61961 0.79928 0.0
H496 H 0.80627 0.60209 0.79405 0.0
H497 H 0.85682 0.63683 0.78676 0.0
H498 H 0.9681 0.62451 0.79912 0.0
H499 H 0.9236 0.64997 0.79879 0.0
H500 H 0.83361 0.41968 0.81948 0.0
H501 H 0.78925 0.44565 0.81687 0.0
H502 H 0.89466 0.42314 0.80681 0.0
H503 H 0.94702 0.46058 0.80573 0.0
C504 C 0.33646 0.82521 0.17931 0.0
C505 C 0.29801 0.82573 0.19091 0.0
C506 C 0.34093 0.88678 0.2188 0.0
C507 C 0.37902 0.88776 0.20653 0.0
N508 N 0.41225 0.86391 0.17299 0.0
N509 N 0.26134 0.8614 0.21896 0.0
C510 C 0.37652 0.85873 0.1861 0.0
C511 C 0.29953 0.8581 0.20972 0.0
N512 N 0.33486 0.79191 0.16228 0.0
N513 N 0.34476 0.91137 0.23991 0.0
H514 H 0.23055 0.83952 0.21371 0.0
H515 H 0.25949 0.88794 0.23054 0.0
H516 H 0.37432 0.93306 0.24725 0.0
H517 H 0.31949 0.90769 0.25126 0.0
H518 H 0.36271 0.78615 0.15515 0.0
H519 H 0.30569 0.76799 0.15622 0.0
H520 H 0.41146 0.84698 0.15659 0.0
H521 H 0.44199 0.88812 0.17761 0.0
C522 C 0.63201 0.21272 0.52288 0.0
C523 C 0.60564 0.17871 0.53663 0.0
C524 C 0.57692 0.23773 0.55571 0.0
C525 C 0.60632 0.27202 0.5436 0.0
N526 N 0.66617 0.29346 0.51817 0.0
N527 N 0.55739 0.15882 0.56848 0.0
C528 C 0.63511 0.25987 0.52788 0.0
C529 C 0.57907 0.19114 0.55361 0.0
N530 N 0.65283 0.1998 0.50447 0.0
N531 N 0.54632 0.24962 0.56881 0.0
H532 H 0.55738 0.12424 0.56723 0.0
H533 H 0.54202 0.16668 0.58318 0.0
H534 H 0.54461 0.28354 0.57132 0.0
H535 H 0.52062 0.22579 0.57575 0.0
H536 H 0.66887 0.22256 0.49217 0.0
H537 H 0.65076 0.16554 0.50012 0.0
H538 H 0.69139 0.28688 0.50881 0.0
H539 H 0.66898 0.3284 0.52111 0.0
C540 C 0.3464 0.62324 0.82598 0.0
C541 C 0.32229 0.58006 0.81599 0.0
C542 C 0.25434 0.59045 0.83027 0.0
C543 C 0.2797 0.63018 0.84333 0.0
N544 N 0.34384 0.69343 0.84698 0.0
N545 N 0.2532 0.5318 0.79991 0.0
C546 C 0.32372 0.65004 0.83853 0.0
C547 C 0.27579 0.56775 0.81463 0.0
N548 N 0.39123 0.63626 0.82545 0.0
N549 N 0.21133 0.5722 0.83454 0.0
H550 H 0.2697 0.51454 0.78898 0.0
H551 H 0.21886 0.52196 0.79703 0.0
H552 H 0.19441 0.58823 0.84575 0.0
H553 H 0.19298 0.54025 0.82779 0.0
H554 H 0.41143 0.66461 0.83495 0.0
H555 H 0.40845 0.61781 0.81578 0.0
H556 H 0.37517 0.7113 0.84292 0.0
H557 H 0.32711 0.71296 0.85638 0.0
C558 C 0.87227 0.26284 0.20731 0.0
C559 C 0.86977 0.29385 0.18835 0.0
C560 C 0.78885 0.26852 0.18508 0.0
C561 C 0.79177 0.23361 0.20184 0.0
N562 N 0.83658 0.19272 0.22619 0.0
N563 N 0.82632 0.32257 0.15691 0.0
C564 C 0.83359 0.22948 0.21227 0.0
C565 C 0.82818 0.29584 0.17663 0.0
N566 N 0.91132 0.26623 0.2211 0.0
N567 N 0.74855 0.27634 0.17776 0.0
H568 H 0.85441 0.3429 0.1501 0.0
H569 H 0.79725 0.32172 0.14609 0.0
H570 H 0.71907 0.25714 0.1837 0.0
H571 H 0.74468 0.30435 0.16757 0.0
H572 H 0.91398 0.24779 0.23674 0.0
H573 H 0.94032 0.29068 0.21827 0.0
H574 H 0.86653 0.18528 0.23202 0.0
H575 H 0.80907 0.16728 0.23017 0.0
C576 C 0.07818 0.52113 0.07797 0.0
C577 C 1.07309 0.55856 0.09211 0.0
C578 C 1.06438 0.60206 0.05573 0.0
C579 C 1.06503 0.56307 0.04164 0.0
N580 N 1.06693 0.48352 0.03862 0.0
N581 N 1.05208 0.63063 0.0944 0.0
C582 C 1.07034 0.52198 0.05255 0.0
C583 C 1.06386 0.5981 0.08101 0.0
N584 N 0.09211 0.4856 0.08872 0.0
N585 N 1.06503 0.64308 0.04497 0.0
H586 H 1.04929 0.62817 0.11288 0.0
H587 H 1.04062 0.65769 0.08683 0.0
H588 H 1.06469 0.64713 0.02637 0.0
H589 H 1.06973 0.67388 0.05462 0.0
H590 H 0.10153 0.4603 0.07917 0.0
H591 H 0.09791 0.48321 0.1073 0.0
H592 H 1.06538 0.45115 0.04568 0.0
H593 H 1.06223 0.48314 0.01985 0.0
C594 C 0.62665 1.01165 0.44417 0.0
C595 C 0.61609 0.04647 0.45808 0.0
C596 C 0.61049 0.09168 0.42174 0.0
C597 C 0.61937 0.0561 0.4077 0.0
N598 N 0.62826 0.97902 0.40442 0.0
N599 N 0.58886 0.11472 0.45967 0.0
C600 C 0.62499 0.015 0.41859 0.0
C601 C 0.60543 0.08514 0.44672 0.0
N602 N 0.64027 0.97651 0.4555 0.0
N603 N 0.60798 0.13224 0.41129 0.0
H604 H 0.58396 0.11053 0.47787 0.0
H605 H 0.5762 0.14093 0.45201 0.0
H606 H 0.60982 0.13774 0.39288 0.0
H607 H 0.60701 0.16151 0.42103 0.0
H608 H 0.65301 0.95273 0.4467 0.0
H609 H 0.64205 0.97303 0.47416 0.0
H610 H 0.6277 0.94642 0.41089 0.0
H611 H 0.62802 0.98071 0.3857 0.0
C612 C 0.56002 0.54835 0.75957 0.0
C613 C 0.57953 0.51749 0.77339 0.0
C614 C 0.6109 0.49619 0.73733 0.0
C615 C 0.58914 0.52488 0.72325 0.0
N616 N 0.53954 0.57498 0.72005 0.0
N617 N 0.61751 0.45664 0.7749 0.0
C618 C 0.56267 0.54999 0.73414 0.0
C619 C 0.60359 0.49014 0.76215 0.0
N620 N 0.54031 0.57735 0.7709 0.0
N621 N 0.63887 0.47492 0.72697 0.0
H622 H 0.61241 0.45082 0.79297 0.0
H623 H 0.63076 0.43203 0.76722 0.0
H624 H 0.64327 0.47644 0.70862 0.0
H625 H 0.65995 0.4582 0.73672 0.0
H626 H 0.53033 0.60455 0.76255 0.0
H627 H 0.53661 0.5764 0.7893 0.0
H628 H 0.51542 0.58946 0.7262 0.0
H629 H 0.54246 0.57908 0.70164 0.0
C630 C 0.58334 1.00298 0.6175 0.0
C631 C 0.61451 0.03955 0.60792 0.0
C632 C 0.64076 0.07095 0.64876 0.0
C633 C 0.60746 0.03621 0.65815 0.0
N634 N 0.54273 0.97324 0.6515 0.0
N635 N 0.66841 0.11213 0.6136 0.0
C636 C 0.57737 1.00351 0.64249 0.0
C637 C 0.64212 0.07458 0.62333 0.0
N638 N 0.56089 0.9666 0.6029 0.0
N639 N 0.67161 0.09981 0.66421 0.0
H640 H 0.67033 0.11589 0.59509 0.0
H641 H 0.68573 0.14118 0.62366 0.0
H642 H 0.67055 0.09927 0.68287 0.0
H643 H 0.69976 0.12229 0.65871 0.0
H644 H 0.54143 0.9365 0.60925 0.0
H645 H 0.56474 0.96461 0.58457 0.0
H646 H 0.51683 0.95209 0.64071 0.0
H647 H 0.53784 0.97175 0.66978 0.0
C648 C 0.5818 0.55558 0.93622 0.0
C649 C 0.55033 0.5189 0.92372 0.0
C650 C 0.51871 0.4948 0.96191 0.0
C651 C 0.55362 0.52791 0.97475 0.0
N652 N 0.62261 0.58528 0.97422 0.0
N653 N 0.49207 0.4499 0.92493 0.0
C654 C 0.58622 0.55725 0.96191 0.0
C655 C 0.51945 0.48762 0.93662 0.0
N656 N 0.60677 0.58965 0.92351 0.0
N657 N 0.4841 0.47111 0.97376 0.0
H658 H 0.49132 0.44372 0.90646 0.0
H659 H 0.47257 0.42297 0.93381 0.0
H660 H 0.48209 0.47582 0.99214 0.0
H661 H 0.45554 0.44995 0.96505 0.0
H662 H 0.62681 0.61982 0.93149 0.0
H663 H 0.60413 0.58988 0.90473 0.0
H664 H 0.64974 0.6037 0.96587 0.0
H665 H 0.62768 0.58697 0.99297 0.0
C666 C 1.05158 0.50495 0.24934 0.0
C667 C 0.08335 0.54288 0.24141 0.0
C668 C 0.11822 0.55635 0.28273 0.0
C669 C 0.08087 0.52533 0.2912 0.0
N670 N 1.03688 0.44915 0.28043 0.0
N671 N 0.14772 0.60546 0.25063 0.0
C672 C 1.0542 0.49321 0.27393 0.0
C673 C 0.11676 0.56909 0.25815 0.0
N674 N 1.01811 0.48069 0.23359 0.0
N675 N 0.15785 0.56553 0.29634 0.0
H676 H 0.1488 0.61477 0.23262 0.0
H677 H 0.17018 0.62811 0.26264 0.0
H678 H 0.16269 0.54663 0.31161 0.0
H679 H 0.18709 0.58505 0.29032 0.0
H680 H 0.99179 0.45548 0.23911 0.0
H681 H 1.01455 0.48875 0.21546 0.0
H682 H 1.02048 0.42315 0.26809 0.0
H683 H 1.04453 0.43758 0.29755 0.0
loop_
_geom_bond_atom_site_label_1
_geom_bond_atom_site_label_2
_geom_bond_distance
_geom_bond_site_symmetry_2
_ccdc_geom_bond_type
Dy0 O3 2.307 1_455 S
Dy0 O5 2.395 . S
Dy0 O6 2.379 . S
Dy0 O8 2.339 . S
Dy0 O10 2.298 . S
Dy0 O14 2.275 . S
Dy0 C22 2.738 . S
Dy1 O4 2.298 . S
Dy1 O7 2.275 1_655 S
Dy1 O9 2.307 1_655 S
Dy1 O11 2.395 . S
Dy1 O12 2.379 . S
Dy1 O15 2.339 . S
Dy1 C31 2.738 . S
C2 O14 1.254 . S
C2 O15 1.257 1_455 S
O3 Dy0 2.307 1_655 S
O3 C13 1.266 . S
O4 Dy1 2.298 . S
O4 C13 1.236 . S
O5 Dy0 2.395 . S
O5 C22 1.255 . S
O6 Dy0 2.379 . S
O6 C22 1.249 . S
O7 Dy1 2.275 1_455 S
O7 C23 1.254 . S
O8 Dy0 2.339 . S
O8 C23 1.257 . S
O9 Dy1 2.307 1_455 S
O9 C24 1.266 . S
O10 Dy0 2.298 . S
O10 C24 1.236 . S
O11 Dy1 2.395 . S
O11 C31 1.255 . S
O12 Dy1 2.379 . S
O12 C31 1.249 . S
C13 O3 1.266 . S
C13 O4 1.236 . S
O14 Dy0 2.275 . S
O14 C2 1.254 . S
O15 Dy1 2.339 . S
O15 C2 1.257 1_655 S
C16 C19 1.344 . S
C16 C20 1.328 . S
C16 C22 1.516 . S
C17 C18 1.304 . S
C17 C21 1.323 . S
C18 C17 1.304 . S
C18 C19 1.371 . S
C18 H32 0.930 . S
C19 C16 1.344 . S
C19 C18 1.371 . S
C19 H33 0.931 . S
C20 C16 1.328 . S
C20 C21 1.433 . S
C20 H34 0.931 . S
C21 C17 1.323 . S
C21 C20 1.433 . S
C21 H35 0.933 . S
C22 Dy0 2.738 . S
C22 O5 1.255 . S
C22 O6 1.249 . S
C22 C16 1.516 . S
C23 O7 1.254 . S
C23 O8 1.257 . S
C24 O9 1.266 . S
C24 O10 1.236 . S
C25 C28 1.344 . S
C25 C29 1.328 . S
C25 C31 1.516 . S
C26 C27 1.304 . S
C26 C30 1.323 . S
C27 C26 1.304 . S
C27 C28 1.371 . S
C27 H36 0.930 . S
C28 C25 1.344 . S
C28 C27 1.371 . S
C28 H37 0.931 . S
C29 C25 1.328 . S
C29 C30 1.433 . S
C29 H38 0.931 . S
C30 C26 1.323 . S
C30 C29 1.433 . S
C30 H39 0.933 . S
C31 Dy1 2.738 . S
C31 O11 1.255 . S
C31 O12 1.249 . S
C31 C25 1.516 . S
H32 C18 0.930 . S
H33 C19 0.931 . S
H34 C20 0.931 . S
H35 C21 0.933 . S
H36 C27 0.930 . S
H37 C28 0.931 . S
H38 C29 0.931 . S
H39 C30 0.933 . S
Dy40 O43 2.307 1_565 S
Dy40 O45 2.395 . S
Dy40 O46 2.379 . S
Dy40 O48 2.339 1_565 S
Dy40 O50 2.298 . S
Dy40 O54 2.275 1_565 S
Dy40 C62 2.738 . S
Dy41 O44 2.298 . S
Dy41 O47 2.275 . S
Dy41 O49 2.307 1_545 S
Dy41 O51 2.395 . S
Dy41 O52 2.379 . S
Dy41 O55 2.339 . S
Dy41 C71 2.738 . S
C42 O54 1.254 . S
C42 O55 1.257 . S
O43 Dy40 2.307 1_545 S
O43 C53 1.266 . S
O44 Dy41 2.298 . S
O44 C53 1.236 . S
O45 Dy40 2.395 . S
O45 C62 1.255 . S
O46 Dy40 2.379 . S
O46 C62 1.249 . S
O47 Dy41 2.275 . S
O47 C63 1.254 . S
O48 Dy40 2.339 1_545 S
O48 C63 1.257 . S
O49 Dy41 2.307 1_565 S
O49 C64 1.266 . S
O50 Dy40 2.298 . S
O50 C64 1.236 . S
O51 Dy41 2.395 . S
O51 C71 1.255 . S
O52 Dy41 2.379 . S
O52 C71 1.249 . S
C53 O43 1.266 . S
C53 O44 1.236 . S
O54 Dy40 2.275 1_545 S
O54 C42 1.254 . S
O55 Dy41 2.339 . S
O55 C42 1.257 . S
C56 C59 1.344 . S
C56 C60 1.328 . S
C56 C62 1.516 . S
C57 C58 1.304 . S
C57 C61 1.323 . S
C58 C57 1.304 . S
C58 C59 1.371 . S
C58 H72 0.930 . S
C59 C56 1.344 . S
C59 C58 1.371 . S
C59 H73 0.931 . S
C60 C56 1.328 . S
C60 C61 1.433 . S
C60 H74 0.931 . S
C61 C57 1.323 . S
C61 C60 1.433 . S
C61 H75 0.933 . S
C62 Dy40 2.738 . S
C62 O45 1.255 . S
C62 O46 1.249 . S
C62 C56 1.516 . S
C63 O47 1.254 . S
C63 O48 1.257 . S
C64 O49 1.266 . S
C64 O50 1.236 . S
C65 C68 1.344 . S
C65 C69 1.328 . S
C65 C71 1.516 . S
C66 C67 1.304 . S
C66 C70 1.323 . S
C67 C66 1.304 . S
C67 C68 1.371 . S
C67 H76 0.930 . S
C68 C65 1.344 . S
C68 C67 1.371 . S
C68 H77 0.931 . S
C69 C65 1.328 . S
C69 C70 1.433 . S
C69 H78 0.931 . S
C70 C66 1.323 . S
C70 C69 1.433 . S
C70 H79 0.933 . S
C71 Dy41 2.738 . S
C71 O51 1.255 . S
C71 O52 1.249 . S
C71 C65 1.516 . S
H72 C58 0.930 . S
H73 C59 0.931 . S
H74 C60 0.931 . S
H75 C61 0.933 . S
H76 C67 0.930 . S
H77 C68 0.931 . S
H78 C69 0.931 . S
H79 C70 0.933 . S
Dy80 O83 2.307 . S
Dy80 O85 2.395 . S
Dy80 O86 2.379 . S
Dy80 O88 2.339 . S
Dy80 O90 2.298 . S
Dy80 O94 2.275 . S
Dy80 C102 2.738 . S
Dy81 O84 2.298 . S
Dy81 O87 2.275 . S
Dy81 O89 2.307 . S
Dy81 O91 2.395 . S
Dy81 O92 2.379 . S
Dy81 O95 2.339 . S
Dy81 C111 2.738 . S
C82 O94 1.254 . S
C82 O95 1.257 . S
O83 Dy80 2.307 . S
O83 C93 1.266 . S
O84 Dy81 2.298 . S
O84 C93 1.236 . S
O85 Dy80 2.395 . S
O85 C102 1.255 . S
O86 Dy80 2.379 . S
O86 C102 1.249 . S
O87 Dy81 2.275 . S
O87 C103 1.254 . S
O88 Dy80 2.339 . S
O88 C103 1.257 . S
O89 Dy81 2.307 . S
O89 C104 1.266 . S
O90 Dy80 2.298 . S
O90 C104 1.236 . S
O91 Dy81 2.395 . S
O91 C111 1.255 . S
O92 Dy81 2.379 . S
O92 C111 1.249 . S
C93 O83 1.266 . S
C93 O84 1.236 . S
O94 Dy80 2.275 . S
O94 C82 1.254 . S
O95 Dy81 2.339 . S
O95 C82 1.257 . S
C96 C99 1.344 . S
C96 C100 1.328 . S
C96 C102 1.516 . S
C97 C98 1.304 . S
C97 C101 1.323 . S
C98 C97 1.304 . S
C98 C99 1.371 . S
C98 H112 0.930 . S
C99 C96 1.344 . S
C99 C98 1.371 . S
C99 H113 0.931 . S
C100 C96 1.328 . S
C100 C101 1.433 . S
C100 H114 0.931 . S
C101 C97 1.323 . S
C101 C100 1.433 . S
C101 H115 0.933 . S
C102 Dy80 2.738 . S
C102 O85 1.255 . S
C102 O86 1.249 . S
C102 C96 1.516 . S
C103 O87 1.254 . S
C103 O88 1.257 . S
C104 O89 1.266 . S
C104 O90 1.236 . S
C105 C108 1.344 . S
C105 C109 1.328 . S
C105 C111 1.516 . S
C106 C107 1.304 . S
C106 C110 1.323 . S
C107 C106 1.304 . S
C107 C108 1.371 . S
C107 H116 0.930 . S
C108 C105 1.344 . S
C108 C107 1.371 . S
C108 H117 0.931 . S
C109 C105 1.328 . S
C109 C110 1.433 . S
C109 H118 0.931 . S
C110 C106 1.323 . S
C110 C109 1.433 . S
C110 H119 0.933 . S
C111 Dy81 2.738 . S
C111 O91 1.255 . S
C111 O92 1.249 . S
C111 C105 1.516 . S
H112 C98 0.930 . S
H113 C99 0.931 . S
H114 C100 0.931 . S
H115 C101 0.933 . S
H116 C107 0.930 . S
H117 C108 0.931 . S
H118 C109 0.931 . S
H119 C110 0.933 . S
C120 C121 1.264 . S
C120 C125 1.479 . S
C120 C130 1.465 . S
C121 C120 1.264 . S
C121 C123 1.339 . S
C121 H148 0.931 . S
C122 C123 1.395 . S
C122 C124 1.320 . S
C123 C121 1.339 . S
C123 C122 1.395 . S
C123 H149 0.929 . S
C124 C122 1.320 . S
C124 C125 1.405 . S
C124 H150 0.930 . S
C125 C120 1.479 . S
C125 C124 1.405 . S
C125 H151 0.931 . S
U126 O127 2.454 . S
U126 O128 2.458 1_545 S
U126 C129 2.984 1_545 S
U126 C130 2.847 . S
U126 C143 2.882 . S
U126 O144 2.441 . S
U126 O145 2.420 . S
U126 O146 2.455 . S
U126 O147 2.449 . S
O127 U126 2.454 . S
O127 C129 1.353 1_545 S
O128 U126 2.458 1_565 S
O128 C129 1.286 . S
C129 U126 2.984 1_565 S
C129 O127 1.353 1_565 S
C129 O128 1.286 . S
C129 C131 1.363 . S
C130 C120 1.465 . S
C130 U126 2.847 . S
C130 O144 1.249 . S
C130 O145 1.202 . S
C131 C129 1.363 . S
C131 C133 1.408 . S
C131 C136 1.342 . S
C132 C133 1.310 . S
C132 C135 1.461 . S
C132 H152 0.932 . S
C133 C131 1.408 . S
C133 C132 1.310 . S
C133 H153 0.930 . S
C134 C135 1.474 . S
C134 C136 1.285 . S
C134 H154 0.929 . S
C135 C132 1.461 . S
C135 C134 1.474 . S
C136 C131 1.342 . S
C136 C134 1.285 . S
C136 H155 0.930 . S
C137 C140 1.424 . S
C137 C142 1.245 . S
C137 C143 1.428 . S
C138 C141 1.260 . S
C138 C142 1.477 . S
C138 H156 0.932 . S
C139 C140 1.384 . S
C139 C141 1.479 . S
C139 H157 0.929 . S
C140 C137 1.424 . S
C140 C139 1.384 . S
C140 H158 0.928 . S
C141 C138 1.260 . S
C141 C139 1.479 . S
C142 C137 1.245 . S
C142 C138 1.477 . S
C142 H159 0.932 . S
C143 U126 2.882 . S
C143 C137 1.428 . S
C143 O146 1.301 . S
C143 O147 1.282 . S
O144 U126 2.441 . S
O144 C130 1.249 . S
O145 U126 2.420 . S
O145 C130 1.202 . S
O146 U126 2.455 . S
O146 C143 1.301 . S
O147 U126 2.449 . S
O147 C143 1.282 . S
H148 C121 0.931 . S
H149 C123 0.929 . S
H150 C124 0.930 . S
H151 C125 0.931 . S
H152 C132 0.932 . S
H153 C133 0.930 . S
H154 C134 0.929 . S
H155 C136 0.930 . S
H156 C138 0.932 . S
H157 C139 0.929 . S
H158 C140 0.928 . S
H159 C142 0.932 . S
C160 C161 1.264 . S
C160 C165 1.479 . S
C160 C170 1.465 . S
C161 C160 1.264 . S
C161 C163 1.339 . S
C161 H188 0.931 . S
C162 C163 1.395 . S
C162 C164 1.320 . S
C163 C161 1.339 . S
C163 C162 1.395 . S
C163 H189 0.929 . S
C164 C162 1.320 . S
C164 C165 1.405 . S
C164 H190 0.930 . S
C165 C160 1.479 . S
C165 C164 1.405 . S
C165 H191 0.931 . S
U166 O167 2.454 . S
U166 O168 2.458 . S
U166 C169 2.984 . S
U166 C170 2.847 . S
U166 C183 2.882 . S
U166 O184 2.441 . S
U166 O185 2.420 . S
U166 O186 2.455 . S
U166 O187 2.449 . S
O167 U166 2.454 . S
O167 C169 1.353 . S
O168 U166 2.458 . S
O168 C169 1.286 . S
C169 U166 2.984 . S
C169 O167 1.353 . S
C169 O168 1.286 . S
C169 C171 1.363 . S
C170 C160 1.465 . S
C170 U166 2.847 . S
C170 O184 1.249 . S
C170 O185 1.202 . S
C171 C169 1.363 . S
C171 C173 1.408 . S
C171 C176 1.342 . S
C172 C173 1.310 . S
C172 C175 1.461 . S
C172 H192 0.932 . S
C173 C171 1.408 . S
C173 C172 1.310 . S
C173 H193 0.930 . S
C174 C175 1.474 . S
C174 C176 1.285 . S
C174 H194 0.929 . S
C175 C172 1.461 . S
C175 C174 1.474 . S
C176 C171 1.342 . S
C176 C174 1.285 . S
C176 H195 0.930 . S
C177 C180 1.424 . S
C177 C182 1.245 . S
C177 C183 1.428 . S
C178 C181 1.260 . S
C178 C182 1.477 . S
C178 H196 0.932 . S
C179 C180 1.384 . S
C179 C181 1.479 . S
C179 H197 0.929 . S
C180 C177 1.424 . S
C180 C179 1.384 . S
C180 H198 0.928 . S
C181 C178 1.260 . S
C181 C179 1.479 . S
C182 C177 1.245 . S
C182 C178 1.477 . S
C182 H199 0.932 . S
C183 U166 2.882 . S
C183 C177 1.428 . S
C183 O186 1.301 . S
C183 O187 1.282 . S
O184 U166 2.441 . S
O184 C170 1.249 . S
O185 U166 2.420 . S
O185 C170 1.202 . S
O186 U166 2.455 . S
O186 C183 1.301 . S
O187 U166 2.449 . S
O187 C183 1.282 . S
H188 C161 0.931 . S
H189 C163 0.929 . S
H190 C164 0.930 . S
H191 C165 0.931 . S
H192 C172 0.932 . S
H193 C173 0.930 . S
H194 C174 0.929 . S
H195 C176 0.930 . S
H196 C178 0.932 . S
H197 C179 0.929 . S
H198 C180 0.928 . S
H199 C182 0.932 . S
C200 C201 1.264 . S
C200 C205 1.479 . S
C200 C210 1.465 . S
C201 C200 1.264 . S
C201 C203 1.339 . S
C201 H228 0.931 . S
C202 C203 1.395 . S
C202 C204 1.320 . S
C203 C201 1.339 . S
C203 C202 1.395 . S
C203 H229 0.929 . S
C204 C202 1.320 . S
C204 C205 1.405 . S
C204 H230 0.930 . S
C205 C200 1.479 . S
C205 C204 1.405 . S
C205 H231 0.931 . S
U206 O207 2.454 . S
U206 O208 2.458 . S
U206 C209 2.984 . S
U206 C210 2.847 1_455 S
U206 C223 2.882 . S
U206 O224 2.441 1_455 S
U206 O225 2.420 1_455 S
U206 O226 2.455 . S
U206 O227 2.449 1_455 S
O207 U206 2.454 . S
O207 C209 1.353 . S
O208 U206 2.458 . S
O208 C209 1.286 . S
C209 U206 2.984 . S
C209 O207 1.353 . S
C209 O208 1.286 . S
C209 C211 1.363 . S
C210 C200 1.465 . S
C210 U206 2.847 1_655 S
C210 O224 1.249 . S
C210 O225 1.202 . S
C211 C209 1.363 . S
C211 C213 1.408 . S
C211 C216 1.342 . S
C212 C213 1.310 . S
C212 C215 1.461 . S
C212 H232 0.932 . S
C213 C211 1.408 . S
C213 C212 1.310 . S
C213 H233 0.930 . S
C214 C215 1.474 . S
C214 C216 1.285 . S
C214 H234 0.929 . S
C215 C212 1.461 . S
C215 C214 1.474 . S
C216 C211 1.342 . S
C216 C214 1.285 . S
C216 H235 0.930 . S
C217 C220 1.424 1_455 S
C217 C222 1.245 . S
C217 C223 1.428 . S
C218 C221 1.260 . S
C218 C222 1.477 1_554 S
C218 H236 0.932 . S
C219 C220 1.384 1_554 S
C219 C221 1.479 1_655 S
C219 H237 0.929 . S
C220 C217 1.424 1_655 S
C220 C219 1.384 1_556 S
C220 H238 0.928 . S
C221 C218 1.260 . S
C221 C219 1.479 1_455 S
C222 C217 1.245 . S
C222 C218 1.477 1_556 S
C222 H239 0.932 . S
C223 U206 2.882 . S
C223 C217 1.428 . S
C223 O226 1.301 . S
C223 O227 1.282 1_455 S
O224 U206 2.441 1_655 S
O224 C210 1.249 . S
O225 U206 2.420 1_655 S
O225 C210 1.202 . S
O226 U206 2.455 . S
O226 C223 1.301 . S
O227 U206 2.449 1_655 S
O227 C223 1.282 1_655 S
H228 C201 0.931 . S
H229 C203 0.929 . S
H230 C204 0.930 . S
H231 C205 0.931 . S
H232 C212 0.932 . S
H233 C213 0.930 . S
H234 C214 0.929 . S
H235 C216 0.930 . S
H236 C218 0.932 . S
H237 C219 0.929 . S
H238 C220 0.928 . S
H239 C222 0.932 . S
C240 C241 1.264 . S
C240 C245 1.479 . S
C240 C250 1.465 . S
C241 C240 1.264 . S
C241 C243 1.339 . S
C241 H268 0.931 . S
C242 C243 1.395 . S
C242 C244 1.320 . S
C243 C241 1.339 . S
C243 C242 1.395 . S
C243 H269 0.929 . S
C244 C242 1.320 . S
C244 C245 1.405 . S
C244 H270 0.930 . S
C245 C240 1.479 . S
C245 C244 1.405 . S
C245 H271 0.931 . S
U246 O247 2.454 . S
U246 O248 2.458 . S
U246 C249 2.984 . S
U246 C250 2.847 1_455 S
U246 C263 2.882 1_455 S
U246 O264 2.441 1_455 S
U246 O265 2.420 1_455 S
U246 O266 2.455 . S
U246 O267 2.449 1_455 S
O247 U246 2.454 . S
O247 C249 1.353 . S
O248 U246 2.458 . S
O248 C249 1.286 . S
C249 U246 2.984 . S
C249 O247 1.353 . S
C249 O248 1.286 . S
C249 C251 1.363 . S
C250 C240 1.465 . S
C250 U246 2.847 1_655 S
C250 O264 1.249 . S
C250 O265 1.202 . S
C251 C249 1.363 . S
C251 C253 1.408 . S
C251 C256 1.342 . S
C252 C253 1.310 . S
C252 C255 1.461 . S
C252 H272 0.932 . S
C253 C251 1.408 . S
C253 C252 1.310 . S
C253 H273 0.930 . S
C254 C255 1.474 . S
C254 C256 1.285 . S
C254 H274 0.929 . S
C255 C252 1.461 . S
C255 C254 1.474 . S
C256 C251 1.342 . S
C256 C254 1.285 . S
C256 H275 0.930 . S
C257 C260 1.424 . S
C257 C262 1.245 1_655 S
C257 C263 1.428 . S
C258 C261 1.260 1_455 S
C258 C262 1.477 . S
C258 H276 0.932 . S
C259 C260 1.384 . S
C259 C261 1.479 . S
C259 H277 0.929 . S
C260 C257 1.424 . S
C260 C259 1.384 . S
C260 H278 0.928 . S
C261 C258 1.260 1_655 S
C261 C259 1.479 . S
C262 C257 1.245 1_455 S
C262 C258 1.477 . S
C262 H279 0.932 . S
C263 U246 2.882 1_655 S
C263 C257 1.428 . S
C263 O266 1.301 1_655 S
C263 O267 1.282 . S
O264 U246 2.441 1_655 S
O264 C250 1.249 . S
O265 U246 2.420 1_655 S
O265 C250 1.202 . S
O266 U246 2.455 . S
O266 C263 1.301 1_455 S
O267 U246 2.449 1_655 S
O267 C263 1.282 . S
H268 C241 0.931 . S
H269 C243 0.929 . S
H270 C244 0.930 . S
H271 C245 0.931 . S
H272 C252 0.932 . S
H273 C253 0.930 . S
H274 C254 0.929 . S
H275 C256 0.930 . S
H276 C258 0.932 . S
H277 C259 0.929 . S
H278 C260 0.928 . S
H279 C262 0.932 . S
C280 C281 1.264 . S
C280 C285 1.479 . S
C280 C290 1.465 . S
C281 C280 1.264 . S
C281 C283 1.339 . S
C281 H308 0.931 . S
C282 C283 1.395 . S
C282 C284 1.320 . S
C283 C281 1.339 . S
C283 C282 1.395 . S
C283 H309 0.929 . S
C284 C282 1.320 . S
C284 C285 1.405 . S
C284 H310 0.930 . S
C285 C280 1.479 . S
C285 C284 1.405 . S
C285 H311 0.931 . S
U286 O287 2.454 1_565 S
U286 O288 2.458 1_565 S
U286 C289 2.984 1_565 S
U286 C290 2.847 . S
U286 C303 2.882 . S
U286 O304 2.441 . S
U286 O305 2.420 . S
U286 O306 2.455 1_565 S
U286 O307 2.449 . S
O287 U286 2.454 1_545 S
O287 C289 1.353 . S
O288 U286 2.458 1_545 S
O288 C289 1.286 . S
C289 U286 2.984 1_545 S
C289 O287 1.353 . S
C289 O288 1.286 . S
C289 C291 1.363 . S
C290 C280 1.465 . S
C290 U286 2.847 . S
C290 O304 1.249 . S
C290 O305 1.202 . S
C291 C289 1.363 . S
C291 C293 1.408 . S
C291 C296 1.342 . S
C292 C293 1.310 . S
C292 C295 1.461 . S
C292 H312 0.932 . S
C293 C291 1.408 . S
C293 C292 1.310 . S
C293 H313 0.930 . S
C294 C295 1.474 . S
C294 C296 1.285 . S
C294 H314 0.929 . S
C295 C292 1.461 . S
C295 C294 1.474 . S
C296 C291 1.342 . S
C296 C294 1.285 . S
C296 H315 0.930 . S
C297 C300 1.424 1_545 S
C297 C302 1.245 . S
C297 C303 1.428 1_545 S
C298 C301 1.260 . S
C298 C302 1.477 . S
C298 H316 0.932 . S
C299 C300 1.384 . S
C299 C301 1.479 1_565 S
C299 H317 0.929 . S
C300 C297 1.424 1_565 S
C300 C299 1.384 . S
C300 H318 0.928 . S
C301 C298 1.260 . S
C301 C299 1.479 1_545 S
C302 C297 1.245 . S
C302 C298 1.477 . S
C302 H319 0.932 . S
C303 U286 2.882 . S
C303 C297 1.428 1_565 S
C303 O306 1.301 1_565 S
C303 O307 1.282 . S
O304 U286 2.441 . S
O304 C290 1.249 . S
O305 U286 2.420 . S
O305 C290 1.202 . S
O306 U286 2.455 1_545 S
O306 C303 1.301 1_545 S
O307 U286 2.449 . S
O307 C303 1.282 . S
H308 C281 0.931 . S
H309 C283 0.929 . S
H310 C284 0.930 . S
H311 C285 0.931 . S
H312 C292 0.932 . S
H313 C293 0.930 . S
H314 C294 0.929 . S
H315 C296 0.930 . S
H316 C298 0.932 . S
H317 C299 0.929 . S
H318 C300 0.928 . S
H319 C302 0.932 . S
C320 C321 1.264 . S
C320 C325 1.479 . S
C320 C330 1.465 . S
C321 C320 1.264 . S
C321 C323 1.339 . S
C321 H348 0.931 . S
C322 C323 1.395 . S
C322 C324 1.320 . S
C323 C321 1.339 . S
C323 C322 1.395 . S
C323 H349 0.929 . S
C324 C322 1.320 . S
C324 C325 1.405 . S
C324 H350 0.930 . S
C325 C320 1.479 . S
C325 C324 1.405 . S
C325 H351 0.931 . S
U326 O327 2.454 . S
U326 O328 2.458 . S
U326 C329 2.984 . S
U326 C330 2.847 . S
U326 C343 2.882 . S
U326 O344 2.441 . S
U326 O345 2.420 . S
U326 O346 2.455 . S
U326 O347 2.449 . S
O327 U326 2.454 . S
O327 C329 1.353 . S
O328 U326 2.458 . S
O328 C329 1.286 . S
C329 U326 2.984 . S
C329 O327 1.353 . S
C329 O328 1.286 . S
C329 C331 1.363 . S
C330 C320 1.465 . S
C330 U326 2.847 . S
C330 O344 1.249 . S
C330 O345 1.202 . S
C331 C329 1.363 . S
C331 C333 1.408 . S
C331 C336 1.342 . S
C332 C333 1.310 . S
C332 C335 1.461 . S
C332 H352 0.932 . S
C333 C331 1.408 . S
C333 C332 1.310 . S
C333 H353 0.930 . S
C334 C335 1.474 . S
C334 C336 1.285 . S
C334 H354 0.929 . S
C335 C332 1.461 . S
C335 C334 1.474 . S
C336 C331 1.342 . S
C336 C334 1.285 . S
C336 H355 0.930 . S
C337 C340 1.424 . S
C337 C342 1.245 . S
C337 C343 1.428 . S
C338 C341 1.260 . S
C338 C342 1.477 1_556 S
C338 H356 0.932 . S
C339 C340 1.364 1_556 S
C339 C341 1.489 . S
C339 H357 0.939 . S
C340 C337 1.424 . S
C340 C339 1.364 1_554 S
C340 H358 0.928 . S
C341 C338 1.260 . S
C341 C339 1.489 . S
C342 C337 1.245 . S
C342 C338 1.477 1_554 S
C342 H359 0.932 . S
C343 U326 2.882 . S
C343 C337 1.428 . S
C343 O346 1.301 . S
C343 O347 1.282 . S
O344 U326 2.441 . S
O344 C330 1.249 . S
O345 U326 2.420 . S
O345 C330 1.202 . S
O346 U326 2.455 . S
O346 C343 1.301 . S
O347 U326 2.449 . S
O347 C343 1.282 . S
H348 C321 0.931 . S
H349 C323 0.929 . S
H350 C324 0.930 . S
H351 C325 0.931 . S
H352 C332 0.932 . S
H353 C333 0.930 . S
H354 C334 0.929 . S
H355 C336 0.930 . S
H356 C338 0.932 . S
H357 C339 0.939 . S
H358 C340 0.928 . S
H359 C342 0.932 . S
C360 C361 1.363 . S
C360 C366 1.379 . S
C360 N368 1.356 . S
C361 C360 1.363 . S
C361 C367 1.363 . S
C362 C363 1.363 . S
C362 C367 1.379 . S
C362 N369 1.356 . S
C363 C362 1.363 . S
C363 C366 1.363 . S
N364 C366 1.356 . S
N364 H376 0.984 . S
N364 H377 0.985 . S
N365 C367 1.356 . S
N365 H370 0.984 . S
N365 H371 0.985 . S
C366 C360 1.379 . S
C366 C363 1.363 . S
C366 N364 1.356 . S
C367 C361 1.363 . S
C367 C362 1.379 . S
C367 N365 1.356 . S
N368 C360 1.356 . S
N368 H374 0.984 . S
N368 H375 0.984 . S
N369 C362 1.356 . S
N369 H372 0.984 . S
N369 H373 0.985 . S
H370 N365 0.984 . S
H371 N365 0.985 . S
H372 N369 0.984 . S
H373 N369 0.985 . S
H374 N368 0.984 . S
H375 N368 0.984 . S
H376 N364 0.984 . S
H377 N364 0.985 . S
C378 C379 1.363 . S
C378 C384 1.379 . S
C378 N386 1.356 . S
C379 C378 1.363 . S
C379 C385 1.363 . S
C380 C381 1.363 . S
C380 C385 1.379 . S
C380 N387 1.356 . S
C381 C380 1.363 . S
C381 C384 1.363 . S
N382 C384 1.356 . S
N382 H394 0.984 . S
N382 H395 0.985 . S
N383 C385 1.356 . S
N383 H388 0.984 . S
N383 H389 0.985 . S
C384 C378 1.379 . S
C384 C381 1.363 . S
C384 N382 1.356 . S
C385 C379 1.363 . S
C385 C380 1.379 . S
C385 N383 1.356 . S
N386 C378 1.356 . S
N386 H392 0.984 . S
N386 H393 0.984 . S
N387 C380 1.356 . S
N387 H390 0.984 . S
N387 H391 0.985 . S
H388 N383 0.984 . S
H389 N383 0.985 . S
H390 N387 0.984 . S
H391 N387 0.985 . S
H392 N386 0.984 . S
H393 N386 0.984 . S
H394 N382 0.984 . S
H395 N382 0.985 . S
C396 C397 1.363 . S
C396 C402 1.379 . S
C396 N404 1.356 . S
C397 C396 1.363 . S
C397 C403 1.363 . S
C398 C399 1.363 . S
C398 C403 1.379 . S
C398 N405 1.356 . S
C399 C398 1.363 . S
C399 C402 1.363 . S
N400 C402 1.356 . S
N400 H412 0.984 . S
N400 H413 0.985 . S
N401 C403 1.356 . S
N401 H406 0.984 . S
N401 H407 0.985 . S
C402 C396 1.379 . S
C402 C399 1.363 . S
C402 N400 1.356 . S
C403 C397 1.363 . S
C403 C398 1.379 . S
C403 N401 1.356 . S
N404 C396 1.356 . S
N404 H410 0.984 . S
N404 H411 0.984 . S
N405 C398 1.356 . S
N405 H408 0.984 . S
N405 H409 0.985 . S
H406 N401 0.984 . S
H407 N401 0.985 . S
H408 N405 0.984 . S
H409 N405 0.985 . S
H410 N404 0.984 . S
H411 N404 0.984 . S
H412 N400 0.984 . S
H413 N400 0.985 . S
C414 C415 1.363 . S
C414 C420 1.379 . S
C414 N422 1.356 . S
C415 C414 1.363 . S
C415 C421 1.363 . S
C416 C417 1.363 . S
C416 C421 1.379 . S
C416 N423 1.356 . S
C417 C416 1.363 . S
C417 C420 1.363 . S
N418 C420 1.356 . S
N418 H430 0.984 . S
N418 H431 0.985 . S
N419 C421 1.356 . S
N419 H424 0.984 . S
N419 H425 0.985 . S
C420 C414 1.379 . S
C420 C417 1.363 . S
C420 N418 1.356 . S
C421 C415 1.363 . S
C421 C416 1.379 . S
C421 N419 1.356 . S
N422 C414 1.356 . S
N422 H428 0.984 . S
N422 H429 0.984 . S
N423 C416 1.356 . S
N423 H426 0.984 . S
N423 H427 0.985 . S
H424 N419 0.984 . S
H425 N419 0.985 . S
H426 N423 0.984 . S
H427 N423 0.985 . S
H428 N422 0.984 . S
H429 N422 0.984 . S
H430 N418 0.984 . S
H431 N418 0.985 . S
C432 C433 1.363 . S
C432 C438 1.379 . S
C432 N440 1.356 . S
C433 C432 1.363 . S
C433 C439 1.363 . S
C434 C435 1.363 . S
C434 C439 1.379 . S
C434 N441 1.356 . S
C435 C434 1.363 . S
C435 C438 1.363 . S
N436 C438 1.356 . S
N436 H448 0.984 . S
N436 H449 0.985 . S
N437 C439 1.356 . S
N437 H442 0.984 . S
N437 H443 0.985 . S
C438 C432 1.379 . S
C438 C435 1.363 . S
C438 N436 1.356 . S
C439 C433 1.363 . S
C439 C434 1.379 . S
C439 N437 1.356 . S
N440 C432 1.356 . S
N440 H446 0.984 . S
N440 H447 0.984 . S
N441 C434 1.356 . S
N441 H444 0.984 . S
N441 H445 0.985 . S
H442 N437 0.984 . S
H443 N437 0.985 . S
H444 N441 0.984 . S
H445 N441 0.985 . S
H446 N440 0.984 . S
H447 N440 0.984 . S
H448 N436 0.984 . S
H449 N436 0.985 . S
C450 C451 1.363 . S
C450 C456 1.379 . S
C450 N458 1.356 . S
C451 C450 1.363 . S
C451 C457 1.363 . S
C452 C453 1.363 . S
C452 C457 1.379 . S
C452 N459 1.356 . S
C453 C452 1.363 . S
C453 C456 1.363 . S
N454 C456 1.356 . S
N454 H466 0.984 . S
N454 H467 0.985 . S
N455 C457 1.356 . S
N455 H460 0.984 . S
N455 H461 0.985 . S
C456 C450 1.379 . S
C456 C453 1.363 . S
C456 N454 1.356 . S
C457 C451 1.363 . S
C457 C452 1.379 . S
C457 N455 1.356 . S
N458 C450 1.356 . S
N458 H464 0.984 . S
N458 H465 0.984 . S
N459 C452 1.356 . S
N459 H462 0.984 . S
N459 H463 0.985 . S
H460 N455 0.984 . S
H461 N455 0.985 . S
H462 N459 0.984 . S
H463 N459 0.985 . S
H464 N458 0.984 . S
H465 N458 0.984 . S
H466 N454 0.984 . S
H467 N454 0.985 . S
C468 C469 1.363 . S
C468 C474 1.379 . S
C468 N476 1.356 . S
C469 C468 1.363 . S
C469 C475 1.363 . S
C470 C471 1.363 . S
C470 C475 1.379 . S
C470 N477 1.356 . S
C471 C470 1.363 . S
C471 C474 1.363 . S
N472 C474 1.356 . S
N472 H484 0.984 . S
N472 H485 0.985 . S
N473 C475 1.356 . S
N473 H478 0.984 . S
N473 H479 0.985 . S
C474 C468 1.379 . S
C474 C471 1.363 . S
C474 N472 1.356 . S
C475 C469 1.363 . S
C475 C470 1.379 . S
C475 N473 1.356 . S
N476 C468 1.356 . S
N476 H482 0.984 . S
N476 H483 0.984 . S
N477 C470 1.356 . S
N477 H480 0.984 . S
N477 H481 0.985 . S
H478 N473 0.984 . S
H479 N473 0.985 . S
H480 N477 0.984 . S
H481 N477 0.985 . S
H482 N476 0.984 . S
H483 N476 0.984 . S
H484 N472 0.984 . S
H485 N472 0.985 . S
C486 C487 1.363 . S
C486 C492 1.379 . S
C486 N494 1.356 . S
C487 C486 1.363 . S
C487 C493 1.363 . S
C488 C489 1.363 . S
C488 C493 1.379 . S
C488 N495 1.356 . S
C489 C488 1.363 . S
C489 C492 1.363 . S
N490 C492 1.356 . S
N490 H502 0.984 . S
N490 H503 0.985 . S
N491 C493 1.356 . S
N491 H496 0.984 . S
N491 H497 0.985 . S
C492 C486 1.379 . S
C492 C489 1.363 . S
C492 N490 1.356 . S
C493 C487 1.363 . S
C493 C488 1.379 . S
C493 N491 1.356 . S
N494 C486 1.356 . S
N494 H500 0.984 . S
N494 H501 0.984 . S
N495 C488 1.356 . S
N495 H498 0.984 . S
N495 H499 0.985 . S
H496 N491 0.984 . S
H497 N491 0.985 . S
H498 N495 0.984 . S
H499 N495 0.985 . S
H500 N494 0.984 . S
H501 N494 0.984 . S
H502 N490 0.984 . S
H503 N490 0.985 . S
C504 C505 1.363 . S
C504 C510 1.379 . S
C504 N512 1.356 . S
C505 C504 1.363 . S
C505 C511 1.363 . S
C506 C507 1.363 . S
C506 C511 1.379 . S
C506 N513 1.356 . S
C507 C506 1.363 . S
C507 C510 1.363 . S
N508 C510 1.356 . S
N508 H520 0.984 . S
N508 H521 0.985 . S
N509 C511 1.356 . S
N509 H514 0.984 . S
N509 H515 0.985 . S
C510 C504 1.379 . S
C510 C507 1.363 . S
C510 N508 1.356 . S
C511 C505 1.363 . S
C511 C506 1.379 . S
C511 N509 1.356 . S
N512 C504 1.356 . S
N512 H518 0.984 . S
N512 H519 0.984 . S
N513 C506 1.356 . S
N513 H516 0.984 . S
N513 H517 0.985 . S
H514 N509 0.984 . S
H515 N509 0.985 . S
H516 N513 0.984 . S
H517 N513 0.985 . S
H518 N512 0.984 . S
H519 N512 0.984 . S
H520 N508 0.984 . S
H521 N508 0.985 . S
C522 C523 1.363 . S
C522 C528 1.379 . S
C522 N530 1.356 . S
C523 C522 1.363 . S
C523 C529 1.363 . S
C524 C525 1.363 . S
C524 C529 1.379 . S
C524 N531 1.356 . S
C525 C524 1.363 . S
C525 C528 1.363 . S
N526 C528 1.356 . S
N526 H538 0.984 . S
N526 H539 0.985 . S
N527 C529 1.356 . S
N527 H532 0.984 . S
N527 H533 0.985 . S
C528 C522 1.379 . S
C528 C525 1.363 . S
C528 N526 1.356 . S
C529 C523 1.363 . S
C529 C524 1.379 . S
C529 N527 1.356 . S
N530 C522 1.356 . S
N530 H536 0.984 . S
N530 H537 0.984 . S
N531 C524 1.356 . S
N531 H534 0.984 . S
N531 H535 0.985 . S
H532 N527 0.984 . S
H533 N527 0.985 . S
H534 N531 0.984 . S
H535 N531 0.985 . S
H536 N530 0.984 . S
H537 N530 0.984 . S
H538 N526 0.984 . S
H539 N526 0.985 . S
C540 C541 1.363 . S
C540 C546 1.379 . S
C540 N548 1.356 . S
C541 C540 1.363 . S
C541 C547 1.363 . S
C542 C543 1.363 . S
C542 C547 1.379 . S
C542 N549 1.356 . S
C543 C542 1.363 . S
C543 C546 1.363 . S
N544 C546 1.356 . S
N544 H556 0.984 . S
N544 H557 0.985 . S
N545 C547 1.356 . S
N545 H550 0.984 . S
N545 H551 0.985 . S
C546 C540 1.379 . S
C546 C543 1.363 . S
C546 N544 1.356 . S
C547 C541 1.363 . S
C547 C542 1.379 . S
C547 N545 1.356 . S
N548 C540 1.356 . S
N548 H554 0.984 . S
N548 H555 0.984 . S
N549 C542 1.356 . S
N549 H552 0.984 . S
N549 H553 0.985 . S
H550 N545 0.984 . S
H551 N545 0.985 . S
H552 N549 0.984 . S
H553 N549 0.985 . S
H554 N548 0.984 . S
H555 N548 0.984 . S
H556 N544 0.984 . S
H557 N544 0.985 . S
C558 C559 1.363 . S
C558 C564 1.379 . S
C558 N566 1.356 . S
C559 C558 1.363 . S
C559 C565 1.363 . S
C560 C561 1.363 . S
C560 C565 1.379 . S
C560 N567 1.356 . S
C561 C560 1.363 . S
C561 C564 1.363 . S
N562 C564 1.356 . S
N562 H574 0.984 . S
N562 H575 0.985 . S
N563 C565 1.356 . S
N563 H568 0.984 . S
N563 H569 0.985 . S
C564 C558 1.379 . S
C564 C561 1.363 . S
C564 N562 1.356 . S
C565 C559 1.363 . S
C565 C560 1.379 . S
C565 N563 1.356 . S
N566 C558 1.356 . S
N566 H572 0.984 . S
N566 H573 0.984 . S
N567 C560 1.356 . S
N567 H570 0.984 . S
N567 H571 0.985 . S
H568 N563 0.984 . S
H569 N563 0.985 . S
H570 N567 0.984 . S
H571 N567 0.985 . S
H572 N566 0.984 . S
H573 N566 0.984 . S
H574 N562 0.984 . S
H575 N562 0.985 . S
C576 C577 1.363 . S
C576 C582 1.379 . S
C576 N584 1.356 . S
C577 C576 1.363 . S
C577 C583 1.363 . S
C578 C579 1.363 . S
C578 C583 1.379 . S
C578 N585 1.356 . S
C579 C578 1.363 . S
C579 C582 1.363 . S
N580 C582 1.356 . S
N580 H592 0.984 . S
N580 H593 0.985 . S
N581 C583 1.356 . S
N581 H586 0.984 . S
N581 H587 0.985 . S
C582 C576 1.379 . S
C582 C579 1.363 . S
C582 N580 1.356 . S
C583 C577 1.363 . S
C583 C578 1.379 . S
C583 N581 1.356 . S
N584 C576 1.356 . S
N584 H590 0.984 . S
N584 H591 0.984 . S
N585 C578 1.356 . S
N585 H588 0.984 . S
N585 H589 0.985 . S
H586 N581 0.984 . S
H587 N581 0.985 . S
H588 N585 0.984 . S
H589 N585 0.985 . S
H590 N584 0.984 . S
H591 N584 0.984 . S
H592 N580 0.984 . S
H593 N580 0.985 . S
C594 C595 1.363 . S
C594 C600 1.379 . S
C594 N602 1.356 1_545 S
C595 C594 1.363 . S
C595 C601 1.363 . S
C596 C597 1.363 . S
C596 C601 1.379 . S
C596 N603 1.356 . S
C597 C596 1.363 . S
C597 C600 1.363 . S
N598 C600 1.356 1_565 S
N598 H610 0.984 . S
N598 H611 0.985 1_565 S
N599 C601 1.356 . S
N599 H604 0.984 . S
N599 H605 0.985 . S
C600 C594 1.379 . S
C600 C597 1.363 . S
C600 N598 1.356 1_545 S
C601 C595 1.363 . S
C601 C596 1.379 . S
C601 N599 1.356 . S
N602 C594 1.356 1_565 S
N602 H608 0.984 . S
N602 H609 0.984 . S
N603 C596 1.356 . S
N603 H606 0.984 . S
N603 H607 0.985 . S
H604 N599 0.984 . S
H605 N599 0.985 . S
H606 N603 0.984 . S
H607 N603 0.985 . S
H608 N602 0.984 . S
H609 N602 0.984 . S
H610 N598 0.984 . S
H611 N598 0.985 1_545 S
C612 C613 1.363 . S
C612 C618 1.379 . S
C612 N620 1.356 . S
C613 C612 1.363 . S
C613 C619 1.363 . S
C614 C615 1.363 . S
C614 C619 1.379 . S
C614 N621 1.356 . S
C615 C614 1.363 . S
C615 C618 1.363 . S
N616 C618 1.356 . S
N616 H628 0.984 . S
N616 H629 0.985 . S
N617 C619 1.356 . S
N617 H622 0.984 . S
N617 H623 0.985 . S
C618 C612 1.379 . S
C618 C615 1.363 . S
C618 N616 1.356 . S
C619 C613 1.363 . S
C619 C614 1.379 . S
C619 N617 1.356 . S
N620 C612 1.356 . S
N620 H626 0.984 . S
N620 H627 0.984 . S
N621 C614 1.356 . S
N621 H624 0.984 . S
N621 H625 0.985 . S
H622 N617 0.984 . S
H623 N617 0.985 . S
H624 N621 0.984 . S
H625 N621 0.985 . S
H626 N620 0.984 . S
H627 N620 0.984 . S
H628 N616 0.984 . S
H629 N616 0.985 . S
C630 C631 1.363 1_565 S
C630 C636 1.379 . S
C630 N638 1.356 . S
C631 C630 1.363 1_545 S
C631 C637 1.363 . S
C632 C633 1.363 . S
C632 C637 1.379 . S
C632 N639 1.356 . S
C633 C632 1.363 . S
C633 C636 1.363 1_545 S
N634 C636 1.356 . S
N634 H646 0.984 . S
N634 H647 0.985 . S
N635 C637 1.356 . S
N635 H640 0.984 . S
N635 H641 0.985 . S
C636 C630 1.379 . S
C636 C633 1.363 1_565 S
C636 N634 1.356 . S
C637 C631 1.363 . S
C637 C632 1.379 . S
C637 N635 1.356 . S
N638 C630 1.356 . S
N638 H644 0.984 . S
N638 H645 0.984 . S
N639 C632 1.356 . S
N639 H642 0.984 . S
N639 H643 0.985 . S
H640 N635 0.984 . S
H641 N635 0.985 . S
H642 N639 0.984 . S
H643 N639 0.985 . S
H644 N638 0.984 . S
H645 N638 0.984 . S
H646 N634 0.984 . S
H647 N634 0.985 . S
C648 C649 1.363 . S
C648 C654 1.379 . S
C648 N656 1.356 . S
C649 C648 1.363 . S
C649 C655 1.363 . S
C650 C651 1.363 . S
C650 C655 1.379 . S
C650 N657 1.356 . S
C651 C650 1.363 . S
C651 C654 1.363 . S
N652 C654 1.356 . S
N652 H664 0.984 . S
N652 H665 0.985 . S
N653 C655 1.356 . S
N653 H658 0.984 . S
N653 H659 0.985 . S
C654 C648 1.379 . S
C654 C651 1.363 . S
C654 N652 1.356 . S
C655 C649 1.363 . S
C655 C650 1.379 . S
C655 N653 1.356 . S
N656 C648 1.356 . S
N656 H662 0.984 . S
N656 H663 0.984 . S
N657 C650 1.356 . S
N657 H660 0.984 . S
N657 H661 0.985 . S
H658 N653 0.984 . S
H659 N653 0.985 . S
H660 N657 0.984 . S
H661 N657 0.985 . S
H662 N656 0.984 . S
H663 N656 0.984 . S
H664 N652 0.984 . S
H665 N652 0.985 . S
C666 C667 1.363 1_655 S
C666 C672 1.379 . S
C666 N674 1.356 . S
C667 C666 1.363 1_455 S
C667 C673 1.363 . S
C668 C669 1.363 1_455 S
C668 C673 1.379 . S
C668 N675 1.356 . S
C669 C668 1.363 1_655 S
C669 C672 1.363 . S
N670 C672 1.356 . S
N670 H682 0.984 . S
N670 H683 0.985 . S
N671 C673 1.356 . S
N671 H676 0.984 . S
N671 H677 0.985 . S
C672 C666 1.379 . S
C672 C669 1.363 . S
C672 N670 1.356 . S
C673 C667 1.363 . S
C673 C668 1.379 . S
C673 N671 1.356 . S
N674 C666 1.356 . S
N674 H680 0.984 . S
N674 H681 0.984 . S
N675 C668 1.356 . S
N675 H678 0.984 . S
N675 H679 0.985 . S
H676 N671 0.984 . S
H677 N671 0.985 . S
H678 N675 0.984 . S
H679 N675 0.985 . S
H680 N674 0.984 . S
H681 N674 0.984 . S
H682 N670 0.984 . S
H683 N670 0.985 . S
C361 C24 3.099 . S
C363 C335 3.031 . S
C379 C66 1.204 . S
C381 C242 1.259 . S
C397 C93 2.055 . S
C399 C282 1.972 . S
C415 C13 3.270 . S
C417 C322 3.194 . S
C435 C255 1.356 . S
C433 C57 1.365 . S
C453 C295 2.110 . S
C451 C104 2.197 . S
C469 C64 2.142 . S
C471 C162 2.073 . S
C487 C97 0.803 . S
C489 C202 0.794 . S
C505 C17 1.377 . S
C507 C135 1.395 . S
C525 C175 1.972 . S
C523 C53 2.091 . S
C543 C215 0.352 . S
C541 C106 0.536 . S
C559 C26 1.234 . S
C561 C122 1.291 . S
C579 C221 1.063 . S
C577 C2 1.098 . S
C595 C63 1.474 . S
C597 C141 1.504 . S
C613 C82 1.373 . S
C615 C181 1.364 . S
C633 C301 1.414 . S
C631 C42 1.399 . S
C651 C341 1.783 . S
C649 C103 1.757 . S
C667 C23 1.500 . S
C669 C261 1.525 . S
