# Generated by pormake.
# Topology the, (3,8)-cn, num edge types: 1
# Building blocks:
#     Node 0, Type 0, BuildingBlock: WUSLED_clean_sbu_0, # of connection points: 3
#     Node 1, Type 0, BuildingBlock: WUSLED_clean_sbu_0, # of connection points: 3
#     Node 2, Type 0, BuildingBlock: WUSLED_clean_sbu_0, # of connection points: 3
#     Node 3, Type 0, BuildingBlock: WUSLED_clean_sbu_0, # of connection points: 3
#     Node 4, Type 0, BuildingBlock: WUSLED_clean_sbu_0, # of connection points: 3
#     Node 5, Type 0, BuildingBlock: WUSLED_clean_sbu_0, # of connection points: 3
#     Node 6, Type 0, BuildingBlock: WUSLED_clean_sbu_0, # of connection points: 3
#     Node 7, Type 0, BuildingBlock: WUSLED_clean_sbu_0, # of connection points: 3
#     Node 8, Type 1, BuildingBlock: GIZVER_clean_sbu_0, # of connection points: 8
#     Node 9, Type 1, BuildingBlock: GIZVER_clean_sbu_0, # of connection points: 8
#     Node 10, Type 1, BuildingBlock: GIZVER_clean_sbu_0, # of connection points: 8
#     Edge 11, Type (0, 1), BuildingBlock: CIFDUS_clean_linker_0, # of connection points: 2
#     Edge 12, Type (0, 1), BuildingBlock: CIFDUS_clean_linker_0, # of connection points: 2
#     Edge 13, Type (0, 1), BuildingBlock: CIFDUS_clean_linker_0, # of connection points: 2
#     Edge 14, Type (0, 1), BuildingBlock: CIFDUS_clean_linker_0, # of connection points: 2
#     Edge 15, Type (0, 1), BuildingBlock: CIFDUS_clean_linker_0, # of connection points: 2
#     Edge 16, Type (0, 1), BuildingBlock: CIFDUS_clean_linker_0, # of connection points: 2
#     Edge 17, Type (0, 1), BuildingBlock: CIFDUS_clean_linker_0, # of connection points: 2
#     Edge 18, Type (0, 1), BuildingBlock: CIFDUS_clean_linker_0, # of connection points: 2
#     Edge 19, Type (0, 1), BuildingBlock: CIFDUS_clean_linker_0, # of connection points: 2
#     Edge 20, Type (0, 1), BuildingBlock: CIFDUS_clean_linker_0, # of connection points: 2
#     Edge 21, Type (0, 1), BuildingBlock: CIFDUS_clean_linker_0, # of connection points: 2
#     Edge 22, Type (0, 1), BuildingBlock: CIFDUS_clean_linker_0, # of connection points: 2
#     Edge 23, Type (0, 1), BuildingBlock: CIFDUS_clean_linker_0, # of connection points: 2
#     Edge 24, Type (0, 1), BuildingBlock: CIFDUS_clean_linker_0, # of connection points: 2
#     Edge 25, Type (0, 1), BuildingBlock: CIFDUS_clean_linker_0, # of connection points: 2
#     Edge 26, Type (0, 1), BuildingBlock: CIFDUS_clean_linker_0, # of connection points: 2
#     Edge 27, Type (0, 1), BuildingBlock: CIFDUS_clean_linker_0, # of connection points: 2
#     Edge 28, Type (0, 1), BuildingBlock: CIFDUS_clean_linker_0, # of connection points: 2
#     Edge 29, Type (0, 1), BuildingBlock: CIFDUS_clean_linker_0, # of connection points: 2
#     Edge 30, Type (0, 1), BuildingBlock: CIFDUS_clean_linker_0, # of connection points: 2
#     Edge 31, Type (0, 1), BuildingBlock: CIFDUS_clean_linker_0, # of connection points: 2
#     Edge 32, Type (0, 1), BuildingBlock: CIFDUS_clean_linker_0, # of connection points: 2
#     Edge 33, Type (0, 1), BuildingBlock: CIFDUS_clean_linker_0, # of connection points: 2
#     Edge 34, Type (0, 1), BuildingBlock: CIFDUS_clean_linker_0, # of connection points: 2
# Relax obj value: 0.044
# Max RMSD: 0.138
# Mean RMSD: 0.064
data_MOF--net-the--node1-WUSLED_clean_sbu_0--node2-GIZVER_clean_sbu_0--edge1-CIFDUS_clean_linker_0
_symmetry_space_group_name_H-M    P1
_symmetry_Int_Tables_number       1
_symmetry_cell_setting            triclinic
loop_
_symmetry_equiv_pos_as_xyz
'x, y, z'
_cell_length_a     48.852279
_cell_length_b     45.370126
_cell_length_c     40.730826
_cell_angle_alpha  86.418697
_cell_angle_beta   94.334642
_cell_angle_gamma 101.74536
loop_
_atom_site_label
_atom_site_type_symbol
_atom_site_fract_x
_atom_site_fract_y
_atom_site_fract_z
_atom_type_partial_charge
C0 C 0.32575 0.26533 0.46784 0.0
C1 C 0.32856 0.24757 0.44169 0.0
C2 C 0.35077 0.2143 0.47943 0.0
C3 C 0.34081 0.22226 0.44748 0.0
C4 C 0.34808 0.23218 0.50554 0.0
C5 C 0.33556 0.25735 0.49979 0.0
U6 U 0.32026 0.33956 0.42081 0.0
O7 O 0.2837 0.35881 0.40321 0.0
O8 O 0.31532 0.38301 0.43847 0.0
C9 C 0.29093 0.38198 0.42209 0.0
C10 C 0.31302 0.29233 0.46222 0.0
C11 C 0.26858 0.38961 0.44032 0.0
C12 C 0.22615 0.37563 0.47019 0.0
C13 C 0.2481 0.3674 0.4549 0.0
C14 C 0.24539 0.42823 0.45714 0.0
C15 C 0.22443 0.40618 0.47127 0.0
C16 C 0.26717 0.42001 0.44186 0.0
C17 C 0.36981 0.36614 0.35096 0.0
C18 C 0.36479 0.40395 0.30704 0.0
C19 C 0.40901 0.38772 0.31789 0.0
C20 C 0.39765 0.36811 0.34343 0.0
C21 C 0.3927 0.40577 0.29923 0.0
C22 C 0.35347 0.38439 0.3328 0.0
C23 C 0.3584 0.34462 0.37753 0.0
O24 O 0.3296 0.3181 0.46932 0.0
O25 O 0.2975 0.29402 0.43459 0.0
O26 O 0.33246 0.3299 0.37234 0.0
O27 O 0.36404 0.35405 0.4076 0.0
H28 H 0.32146 0.25327 0.41671 0.0
H29 H 0.34293 0.20919 0.42678 0.0
H30 H 0.35541 0.22651 0.53045 0.0
H31 H 0.33363 0.27069 0.52034 0.0
H32 H 0.2105 0.3581 0.48107 0.0
H33 H 0.24886 0.34377 0.45407 0.0
H34 H 0.24452 0.45191 0.45697 0.0
H35 H 0.2827 0.43746 0.43062 0.0
H36 H 0.35176 0.41772 0.2933 0.0
H37 H 0.43041 0.3882 0.31224 0.0
H38 H 0.41058 0.35418 0.35713 0.0
H39 H 0.33195 0.38338 0.33838 0.0
C40 C 0.64936 0.36536 0.27285 0.0
C41 C 0.64826 0.39586 0.27565 0.0
C42 C 0.62433 0.39784 0.22061 0.0
C43 C 0.63599 0.4119 0.24984 0.0
C44 C 0.6263 0.3676 0.21758 0.0
C45 C 0.63858 0.35164 0.24332 0.0
U46 U 0.69845 0.34089 0.34701 0.0
O47 O 0.68517 0.3205 0.39539 0.0
O48 O 0.70318 0.29456 0.36203 0.0
C49 C 0.69141 0.29444 0.39004 0.0
C50 C 0.65818 0.34628 0.30128 0.0
C51 C 0.67117 0.26678 0.40031 0.0
C52 C 0.64254 0.21694 0.39005 0.0
C53 C 0.65911 0.24417 0.37841 0.0
C54 C 0.64939 0.23468 0.44539 0.0
C55 C 0.63785 0.2116 0.42385 0.0
C56 C 0.66581 0.26178 0.43379 0.0
C57 C 0.77196 0.38855 0.37228 0.0
C58 C 0.79801 0.38708 0.42568 0.0
C59 C 0.81987 0.41734 0.38018 0.0
C60 C 0.79548 0.40799 0.35981 0.0
C61 C 0.8213 0.40758 0.41365 0.0
C62 C 0.77366 0.3777 0.40527 0.0
C63 C 0.74546 0.38174 0.35115 0.0
O64 O 0.6782 0.3316 0.29721 0.0
O65 O 0.65954 0.35659 0.33095 0.0
O66 O 0.72247 0.38405 0.36476 0.0
O67 O 0.74189 0.35821 0.33288 0.0
H68 H 0.6561 0.40711 0.29815 0.0
H69 H 0.63472 0.43503 0.25334 0.0
H70 H 0.61806 0.35605 0.19538 0.0
H71 H 0.6389 0.32812 0.24049 0.0
H72 H 0.63415 0.19972 0.37271 0.0
H73 H 0.66295 0.24722 0.35246 0.0
H74 H 0.64584 0.23179 0.47142 0.0
H75 H 0.6749 0.27869 0.45126 0.0
H76 H 0.7984 0.37864 0.45114 0.0
H77 H 0.83712 0.43329 0.37001 0.0
H78 H 0.79469 0.41674 0.33447 0.0
H79 H 0.75591 0.36256 0.4155 0.0
C80 C 0.65734 0.69378 0.28619 0.0
C81 C 0.65957 0.66336 0.28989 0.0
C82 C 0.63137 0.65245 0.23824 0.0
C83 C 0.64669 0.64294 0.26623 0.0
C84 C 0.63042 0.68324 0.23379 0.0
C85 C 0.64319 0.70364 0.25759 0.0
U86 U 0.7091 0.72539 0.35843 0.0
O87 O 0.72325 0.77244 0.37277 0.0
O88 O 0.69985 0.73896 0.40672 0.0
C89 C 0.71105 0.7675 0.40084 0.0
C90 C 0.66751 0.71494 0.31286 0.0
C91 C 0.69397 0.7893 0.40859 0.0
C92 C 0.65329 0.81261 0.39777 0.0
C93 C 0.66993 0.79291 0.38892 0.0
C94 C 0.68475 0.82574 0.44576 0.0
C95 C 0.66028 0.82908 0.42655 0.0
C96 C 0.70136 0.80605 0.43687 0.0
C97 C 0.774 0.68744 0.38026 0.0
C98 C 0.80067 0.67809 0.43166 0.0
C99 C 0.81881 0.67185 0.37943 0.0
C100 C 0.79535 0.68048 0.36279 0.0
C101 C 0.82155 0.66989 0.41411 0.0
C102 C 0.77707 0.68669 0.41491 0.0
C103 C 0.74795 0.69246 0.36156 0.0
O104 O 0.66611 0.70322 0.34318 0.0
O105 O 0.69079 0.73474 0.30845 0.0
O106 O 0.74946 0.71762 0.34332 0.0
O107 O 0.72443 0.68458 0.3765 0.0
H108 H 0.67055 0.65515 0.31156 0.0
H109 H 0.6482 0.61948 0.27023 0.0
H110 H 0.61868 0.69133 0.21271 0.0
H111 H 0.64116 0.72699 0.25419 0.0
H112 H 0.63485 0.81486 0.38207 0.0
H113 H 0.66385 0.78023 0.36696 0.0
H114 H 0.69066 0.83765 0.46825 0.0
H115 H 0.71978 0.80351 0.45248 0.0
H116 H 0.80199 0.6767 0.45835 0.0
H117 H 0.83464 0.66623 0.36507 0.0
H118 H 0.79349 0.68086 0.33609 0.0
H119 H 0.76089 0.69188 0.42904 0.0
C120 C 0.23908 0.65639 0.38147 0.0
C121 C 0.23781 0.65207 0.41589 0.0
C122 C 0.18679 0.6357 0.41016 0.0
C123 C 0.21202 0.64188 0.43002 0.0
C124 C 0.1881 0.64102 0.37582 0.0
C125 C 0.21388 0.65113 0.36171 0.0
U126 U 0.31342 0.70335 0.3632 0.0
O127 O 0.35217 0.68685 0.35829 0.0
O128 O 0.33375 0.70979 0.31583 0.0
C129 C 0.35322 0.69474 0.32672 0.0
C130 C 0.26623 0.6631 0.36544 0.0
C131 C 0.36017 0.67269 0.30455 0.0
C132 C 0.37741 0.62681 0.29704 0.0
C133 C 0.36647 0.64504 0.31709 0.0
C134 C 0.37484 0.66257 0.25094 0.0
C135 C 0.3824 0.63565 0.2639 0.0
C136 C 0.36402 0.68092 0.27107 0.0
C137 C 0.34318 0.77814 0.40664 0.0
C138 C 0.39189 0.80457 0.40892 0.0
C139 C 0.35763 0.82491 0.4355 0.0
C140 C 0.33666 0.8008 0.42484 0.0
C141 C 0.38568 0.82682 0.42829 0.0
C142 C 0.37089 0.78048 0.39825 0.0
C143 C 0.32116 0.75147 0.39865 0.0
O144 O 0.27011 0.68583 0.34348 0.0
O145 O 0.28898 0.66117 0.38419 0.0
O146 O 0.32633 0.7253 0.41012 0.0
O147 O 0.3098 0.7506 0.36832 0.0
H148 H 0.25679 0.65568 0.43191 0.0
H149 H 0.21204 0.63776 0.45649 0.0
H150 H 0.1692 0.63703 0.35969 0.0
H151 H 0.21418 0.65407 0.33513 0.0
H152 H 0.38263 0.60604 0.30777 0.0
H153 H 0.36391 0.6379 0.34273 0.0
H154 H 0.3786 0.67025 0.22566 0.0
H155 H 0.35973 0.70222 0.26072 0.0
H156 H 0.41315 0.80548 0.40243 0.0
H157 H 0.35203 0.84133 0.45057 0.0
H158 H 0.31541 0.7994 0.43167 0.0
H159 H 0.3764 0.76333 0.38413 0.0
C160 C 0.25494 0.65176 0.71617 0.0
C161 C 0.24771 0.66427 0.68506 0.0
C162 C 0.20116 0.63087 0.68379 0.0
C163 C 0.22112 0.65396 0.66907 0.0
C164 C 0.20867 0.61878 0.71512 0.0
C165 C 0.23506 0.62911 0.731 0.0
U166 U 0.33046 0.70108 0.73513 0.0
O167 O 0.3522 0.71013 0.78421 0.0
O168 O 0.36914 0.68431 0.74974 0.0
C169 C 0.37155 0.69479 0.77944 0.0
C170 C 0.28315 0.66046 0.73348 0.0
C171 C 0.38051 0.67556 0.80769 0.0
C172 C 0.39383 0.6289 0.83041 0.0
C173 C 0.38162 0.64509 0.80468 0.0
C174 C 0.40353 0.673 0.86296 0.0
C175 C 0.40544 0.64276 0.85977 0.0
C176 C 0.3913 0.68911 0.83732 0.0
C177 C 0.35842 0.77538 0.68274 0.0
C178 C 0.38803 0.8247 0.69349 0.0
C179 C 0.38165 0.807 0.63816 0.0
C180 C 0.36442 0.78025 0.64943 0.0
C181 C 0.39339 0.82993 0.65984 0.0
C182 C 0.37067 0.79781 0.70479 0.0
C183 C 0.33751 0.74805 0.69271 0.0
O184 O 0.30496 0.65848 0.71733 0.0
O185 O 0.28769 0.68421 0.75155 0.0
O186 O 0.32623 0.74778 0.72108 0.0
O187 O 0.34281 0.72174 0.68651 0.0
H188 H 0.26266 0.68177 0.67303 0.0
H189 H 0.21623 0.66418 0.6452 0.0
H190 H 0.19444 0.60062 0.72719 0.0
H191 H 0.24015 0.6189 0.75485 0.0
H192 H 0.39506 0.60578 0.82677 0.0
H193 H 0.37378 0.63396 0.78211 0.0
H194 H 0.41174 0.68442 0.88525 0.0
H195 H 0.39099 0.7126 0.84033 0.0
H196 H 0.39652 0.84178 0.71096 0.0
H197 H 0.38565 0.80975 0.61225 0.0
H198 H 0.35524 0.76351 0.6318 0.0
H199 H 0.3664 0.79491 0.73062 0.0
C200 C 0.25127 0.32441 0.67421 0.0
C201 C 0.25583 0.35576 0.66763 0.0
C202 C 0.20613 0.35271 0.65138 0.0
C203 C 0.23356 0.3697 0.65628 0.0
C204 C 0.2016 0.32142 0.65874 0.0
C205 C 0.2239 0.30747 0.66992 0.0
U206 U 0.31901 0.31225 0.72495 0.0
O207 O 0.3319 0.26958 0.7418 0.0
O208 O 0.35693 0.30111 0.70725 0.0
C209 C 0.35319 0.2745 0.7229 0.0
C210 C 0.27477 0.30861 0.68314 0.0
C211 C 0.35735 0.24876 0.70442 0.0
C212 C 0.36288 0.22602 0.6532 0.0
C213 C 0.3554 0.24917 0.66976 0.0
C214 C 0.37327 0.20118 0.70561 0.0
C215 C 0.37255 0.20206 0.67094 0.0
C216 C 0.36583 0.22426 0.72208 0.0
C217 C 0.35176 0.36546 0.79491 0.0
C218 C 0.3989 0.39155 0.8121 0.0
C219 C 0.36425 0.37719 0.85256 0.0
C220 C 0.34451 0.36472 0.82776 0.0
C221 C 0.39175 0.39096 0.84507 0.0
C222 C 0.37927 0.37892 0.78744 0.0
C223 C 0.32996 0.35431 0.76854 0.0
O224 O 0.29997 0.32322 0.67629 0.0
O225 O 0.27439 0.29353 0.7118 0.0
O226 O 0.31389 0.32773 0.77412 0.0
O227 O 0.33733 0.35876 0.73795 0.0
H228 H 0.27669 0.36947 0.67056 0.0
H229 H 0.23806 0.39375 0.6505 0.0
H230 H 0.18078 0.30761 0.65583 0.0
H231 H 0.21982 0.28327 0.67474 0.0
H232 H 0.36219 0.22756 0.62652 0.0
H233 H 0.34891 0.2678 0.65546 0.0
H234 H 0.38011 0.18286 0.72011 0.0
H235 H 0.36749 0.22338 0.74879 0.0
H236 H 0.41959 0.40245 0.80502 0.0
H237 H 0.35793 0.37593 0.8776 0.0
H238 H 0.3234 0.35476 0.83425 0.0
H239 H 0.38561 0.38027 0.7624 0.0
C240 C 0.66996 0.25591 0.71082 0.0
C241 C 0.67624 0.25117 0.67868 0.0
C242 C 0.64523 0.20121 0.68008 0.0
C243 C 0.66405 0.22411 0.66351 0.0
C244 C 0.63959 0.20603 0.71253 0.0
C245 C 0.6518 0.23292 0.72761 0.0
U246 U 0.72162 0.33238 0.73051 0.0
O247 O 0.71044 0.37591 0.73866 0.0
O248 O 0.73125 0.35276 0.77897 0.0
C249 C 0.7192 0.37567 0.77 0.0
C250 C 0.6801 0.28502 0.72689 0.0
C251 C 0.70133 0.38503 0.79403 0.0
C252 C 0.6632 0.40947 0.80595 0.0
C253 C 0.67757 0.39704 0.78347 0.0
C254 C 0.69564 0.3978 0.85026 0.0
C255 C 0.6722 0.4104 0.83967 0.0
C256 C 0.71002 0.38542 0.82776 0.0
C257 C 0.7922 0.35866 0.6892 0.0
C258 C 0.8305 0.39941 0.70612 0.0
C259 C 0.8303 0.37782 0.65327 0.0
C260 C 0.80505 0.35797 0.65966 0.0
C261 C 0.84345 0.39894 0.67635 0.0
C262 C 0.80516 0.37955 0.71244 0.0
C263 C 0.76553 0.33722 0.6951 0.0
O264 O 0.70164 0.28665 0.74855 0.0
O265 O 0.68074 0.3099 0.70834 0.0
O266 O 0.74241 0.34615 0.68413 0.0
O267 O 0.76354 0.32331 0.72439 0.0
H268 H 0.69019 0.26853 0.66513 0.0
H269 H 0.66928 0.22124 0.63871 0.0
H270 H 0.62491 0.18945 0.72605 0.0
H271 H 0.6464 0.2361 0.75229 0.0
H272 H 0.64556 0.41929 0.7966 0.0
H273 H 0.67047 0.39766 0.75765 0.0
H274 H 0.70305 0.39764 0.87599 0.0
H275 H 0.72846 0.37679 0.83672 0.0
H276 H 0.84003 0.41504 0.72471 0.0
H277 H 0.83918 0.377 0.62986 0.0
H278 H 0.79542 0.34209 0.64132 0.0
H279 H 0.79571 0.38051 0.73547 0.0
C280 C 0.70848 0.7769 0.61807 0.0
C281 C 0.68036 0.77478 0.62475 0.0
C282 C 0.68241 0.82684 0.6045 0.0
C283 C 0.6674 0.79948 0.61788 0.0
C284 C 0.71057 0.82879 0.59777 0.0
C285 C 0.72345 0.804 0.60444 0.0
U286 U 0.71393 0.70351 0.66647 0.0
O287 O 0.72443 0.6618 0.65069 0.0
O288 O 0.75069 0.68748 0.68956 0.0
C289 C 0.74751 0.66484 0.67003 0.0
C290 C 0.72261 0.75136 0.62599 0.0
C291 C 0.77276 0.66088 0.65462 0.0
C292 C 0.8171 0.68096 0.63013 0.0
C293 C 0.79271 0.68557 0.64336 0.0
C294 C 0.80143 0.62699 0.63853 0.0
C295 C 0.82178 0.65158 0.6277 0.0
C296 C 0.77722 0.63163 0.65185 0.0
C297 C 0.65905 0.67197 0.7291 0.0
C298 C 0.66345 0.63311 0.77199 0.0
C299 C 0.61944 0.64984 0.76129 0.0
C300 C 0.63112 0.66993 0.73629 0.0
C301 C 0.63552 0.63137 0.77969 0.0
C302 C 0.67509 0.65318 0.74682 0.0
C303 C 0.67113 0.69445 0.70377 0.0
O304 O 0.73483 0.75055 0.6558 0.0
O305 O 0.70846 0.72489 0.61711 0.0
O306 O 0.66932 0.68509 0.67365 0.0
O307 O 0.69566 0.71121 0.71208 0.0
H308 H 0.66851 0.75412 0.63558 0.0
H309 H 0.64582 0.79739 0.6238 0.0
H310 H 0.72262 0.84947 0.58725 0.0
H311 H 0.74519 0.80606 0.59918 0.0
H312 H 0.83226 0.70034 0.62179 0.0
H313 H 0.78958 0.70837 0.64509 0.0
H314 H 0.80455 0.60411 0.63753 0.0
H315 H 0.7621 0.6123 0.66046 0.0
H316 H 0.6763 0.61902 0.78549 0.0
H317 H 0.59803 0.64943 0.76685 0.0
H318 H 0.61844 0.6843 0.72291 0.0
H319 H 0.69669 0.65432 0.74148 0.0
Co320 Co 0.07375 0.4862 0.56311 0.0
Co321 Co 0.04612 0.47349 0.50663 0.0
Co322 Co 0.01675 0.51828 0.54168 0.0
O323 O 0.03498 0.48202 0.54714 0.0
H324 H 0.02302 0.46455 0.55691 0.0
O325 O 0.99805 0.55447 0.53647 0.0
Co326 Co 0.9598 0.54961 0.51728 0.0
Co327 Co 0.98355 0.56213 0.57594 0.0
H328 H 1.01024 0.57223 0.5277 0.0
O329 O 0.05456 0.43636 0.49858 0.0
O330 O 0.08403 0.47642 0.51948 0.0
O331 O 0.04453 0.50342 0.47113 0.0
O332 O 0.04162 0.53891 0.50523 0.0
O333 O 0.98819 0.49582 0.5081 0.0
O334 O 0.92582 0.54788 0.49783 0.0
O335 O 0.96098 0.58852 0.50148 0.0
O336 O 0.95329 0.50868 0.53055 0.0
O337 O 0.99173 0.49723 0.57781 0.0
O338 O 0.98097 0.53055 0.61004 0.0
O339 O 0.94651 0.55853 0.5592 0.0
O340 O 0.97264 0.59869 0.58338 0.0
C341 C 0.09883 0.45912 0.58704 0.0
C342 C 0.07228 0.54443 0.56965 0.0
C343 C 0.04886 0.53096 0.47799 0.0
C344 C 0.0798 0.44958 0.50806 0.0
C345 C 0.9355 0.57624 0.49085 0.0
C346 C 0.96183 0.49199 0.51152 0.0
C347 C 0.98023 0.5035 0.60314 0.0
C348 C 0.94853 0.5848 0.57112 0.0
O349 O 0.10852 0.48738 0.57958 0.0
O350 O 0.07274 0.44726 0.57847 0.0
O351 O 0.04611 0.54083 0.57472 0.0
O352 O 0.08007 0.52726 0.55039 0.0
Co353 Co 0.55006 0.96552 0.5201 0.0
Co354 Co 0.56139 0.98416 0.58051 0.0
Co355 Co 0.5172 0.02091 0.54361 0.0
O356 O 0.55158 1.00337 0.54025 0.0
H357 H 0.56729 0.01855 0.53342 0.0
O358 O 0.4828 0.03841 0.54721 0.0
Co359 Co 0.48583 0.07603 0.56802 0.0
Co360 Co 0.47262 0.05842 0.50819 0.0
H361 H 0.46712 0.02336 0.55435 0.0
O362 O 0.59706 0.97482 0.59053 0.0
O363 O 0.56028 0.94696 0.56322 0.0
O364 O 0.53361 0.97584 0.61283 0.0
O365 O 0.50016 0.98907 0.57828 0.0
O366 O 0.53946 0.04869 0.57796 0.0
O367 O 0.48623 0.10916 0.58899 0.0
O368 O 0.4504 0.06949 0.58251 0.0
O369 O 0.52307 0.08797 0.55653 0.0
O370 O 0.53399 0.05245 0.50847 0.0
O371 O 0.49995 0.06674 0.47551 0.0
O372 O 0.47311 0.0953 0.52628 0.0
O373 O 0.43667 0.06663 0.49903 0.0
C374 C 0.57775 0.94514 0.49787 0.0
C375 C 0.49357 0.9649 0.51083 0.0
C376 C 0.5079 0.97478 0.60441 0.0
C377 C 0.58556 0.94989 0.57677 0.0
C378 C 0.4608 0.09574 0.5947 0.0
C379 C 0.54192 0.07734 0.57363 0.0
C380 C 0.52572 0.06693 0.48271 0.0
C381 C 0.44762 0.09158 0.51311 0.0
O382 O 0.55173 0.93187 0.50059 0.0
O383 O 0.58643 0.97208 0.50914 0.0
O384 O 0.4952 0.99351 0.50915 0.0
O385 O 0.5119 0.95357 0.52819 0.0
Co386 Co 0.48199 0.53639 0.10749 0.0
Co387 Co 0.46829 0.48264 0.08535 0.0
Co388 Co 0.51453 0.51992 0.04043 0.0
O389 O 0.48017 0.52014 0.06458 0.0
H390 H 0.46517 0.52551 0.05015 0.0
O391 O 0.54885 0.51934 1.01587 0.0
Co392 Co 0.54618 0.50227 0.97282 0.0
Co393 Co 0.56053 0.5563 0.99407 0.0
H394 H 0.56398 0.51401 1.0302 0.0
O395 O 0.43196 0.46969 0.09786 0.0
O396 O 0.46876 0.49531 0.12795 0.0
O397 O 0.49332 0.45453 0.08751 0.0
O398 O 0.52958 0.48995 0.07328 0.0
O399 O 0.49179 0.48665 1.01349 0.0
O400 O 0.54615 0.4857 0.93465 0.0
O401 O 0.5817 0.49402 0.97341 0.0
O402 O 0.50856 0.50658 0.96634 0.0
O403 O 0.4995 0.54994 1.00755 0.0
O404 O 0.53585 0.58473 0.99215 0.0
O405 O 0.55948 0.54298 0.95161 0.0
O406 O 0.59669 0.56868 0.98107 0.0
C407 C 0.4555 0.55427 0.13457 0.0
C408 C 0.53808 0.55129 0.09954 0.0
C409 C 0.51955 0.46421 0.08706 0.0
C410 C 0.44319 0.47966 0.126 0.0
C411 C 0.57132 0.48296 0.94511 0.0
C412 C 0.49019 0.48828 0.98198 0.0
C413 C 0.50962 0.57543 0.99327 0.0
C414 C 0.58517 0.55839 0.95318 0.0
O415 O 0.48069 0.55244 0.14623 0.0
O416 O 0.44664 0.54387 0.10559 0.0
O417 O 0.5369 0.5533 0.06791 0.0
O418 O 0.51971 0.53222 0.11441 0.0
H419 H 0.16908 0.37938 0.46458 0.0
H420 H 0.22557 0.45374 0.50988 0.0
H421 H 0.18585 0.47273 0.52708 0.0
H422 H 0.13513 0.47061 0.52516 0.0
H423 H 0.0786 0.39594 0.48034 0.0
H424 H 0.11826 0.37454 0.46757 0.0
C425 C 0.17275 0.39939 0.47879 0.0
C426 C 0.20033 0.4153 0.48548 0.0
C427 C 0.14978 0.41033 0.48849 0.0
C428 C 0.20458 0.44137 0.50375 0.0
C429 C 0.18187 0.45222 0.5137 0.0
C430 C 0.13142 0.4495 0.51289 0.0
C431 C 0.10385 0.43518 0.50336 0.0
C432 C 0.15436 0.43731 0.50548 0.0
C433 C 0.09955 0.40767 0.48774 0.0
C434 C 0.12225 0.39537 0.48038 0.0
H435 H 0.58976 0.17659 0.39673 0.0
H436 H 0.64933 0.17977 0.48088 0.0
H437 H 0.6217 0.13359 0.50472 0.0
H438 H 0.57908 0.09371 0.50351 0.0
H439 H 0.51858 0.09159 0.42045 0.0
H440 H 0.5485 0.13493 0.39403 0.0
C441 C 0.59696 0.16697 0.42004 0.0
C442 C 0.62156 0.18208 0.43703 0.0
C443 C 0.58084 0.14026 0.43381 0.0
C444 C 0.63026 0.16918 0.46743 0.0
C445 C 0.61455 0.14254 0.48104 0.0
C446 C 0.57266 0.10234 0.47935 0.0
C447 C 0.54649 0.08927 0.46411 0.0
C448 C 0.58958 0.12805 0.4647 0.0
C449 C 0.53854 0.10109 0.43286 0.0
C450 C 0.55559 0.12607 0.41777 0.0
H451 H 0.84244 0.62194 0.39803 0.0
H452 H 0.85369 0.68987 0.47 0.0
H453 H 0.89171 0.66868 0.4989 0.0
H454 H 0.9211 0.62945 0.50453 0.0
H455 H 0.90704 0.56041 0.43364 0.0
H456 H 0.87153 0.58388 0.40302 0.0
C457 C 0.85347 0.63249 0.41973 0.0
C458 C 0.84526 0.65767 0.43158 0.0
C459 C 0.87511 0.62007 0.43629 0.0
C460 C 0.85941 0.67042 0.46033 0.0
C461 C 0.88129 0.65839 0.47679 0.0
C462 C 0.91059 0.62001 0.48202 0.0
C463 C 0.91696 0.59352 0.47097 0.0
C464 C 0.88931 0.6331 0.46508 0.0
C465 C 0.90266 0.58096 0.44234 0.0
C466 C 0.88225 0.59427 0.42493 0.0
H467 H 0.38636 0.88719 0.43574 0.0
H468 H 0.43673 0.81927 0.455 0.0
H469 H 0.47398 0.85594 0.48114 0.0
H470 H 0.4921 0.90641 0.49991 0.0
H471 H 0.44326 0.97564 0.48143 0.0
H472 H 0.40558 0.93931 0.45388 0.0
C473 C 0.40548 0.88042 0.44569 0.0
C474 C 0.40863 0.85033 0.44306 0.0
C475 C 0.42708 0.90181 0.461 0.0
C476 C 0.43374 0.8422 0.45596 0.0
C477 C 0.45506 0.86315 0.47123 0.0
C478 C 0.47325 0.91376 0.48992 0.0
C479 C 0.47056 0.94383 0.49299 0.0
C480 C 0.45192 0.8929 0.47403 0.0
C481 C 0.44598 0.95272 0.47947 0.0
C482 C 0.4244 0.93189 0.46375 0.0
H483 H 0.18833 0.62297 0.61754 0.0
H484 H 0.15008 0.61054 0.7108 0.0
H485 H 0.10586 0.58556 0.68383 0.0
H486 H 0.07858 0.56322 0.63389 0.0
H487 H 0.11799 0.57604 0.54144 0.0
H488 H 0.16023 0.60551 0.56755 0.0
C489 C 0.17026 0.61545 0.63203 0.0
C490 C 0.17309 0.61849 0.66645 0.0
C491 C 0.14465 0.6011 0.6163 0.0
C492 C 0.14911 0.60802 0.68446 0.0
C493 C 0.12356 0.59384 0.66896 0.0
C494 C 0.09612 0.57321 0.61936 0.0
C495 C 0.0948 0.56754 0.58554 0.0
C496 C 0.12112 0.58967 0.63491 0.0
C497 C 0.11814 0.58018 0.56735 0.0
C498 C 0.14255 0.59689 0.58237 0.0
H499 H 0.41913 0.1794 0.68875 0.0
H500 H 0.35128 0.17372 0.61379 0.0
H501 H 0.37091 0.13775 0.58491 0.0
H502 H 0.4087 0.10903 0.5801 0.0
H503 H 0.47765 0.11838 0.65376 0.0
H504 H 0.4557 0.15065 0.68469 0.0
C505 C 0.40825 0.1699 0.66644 0.0
C506 C 0.38359 0.17916 0.65371 0.0
C507 C 0.41976 0.14948 0.6499 0.0
C508 C 0.37035 0.16716 0.62416 0.0
C509 C 0.38149 0.14642 0.60771 0.0
C510 C 0.41855 0.11776 0.60322 0.0
C511 C 0.4446 0.1111 0.61492 0.0
C512 C 0.40632 0.1375 0.62026 0.0
C513 C 0.45749 0.12302 0.64451 0.0
C514 C 0.44504 0.14162 0.66208 0.0
H515 H 0.88838 0.38987 0.64392 0.0
H516 H 0.8581 0.45842 0.69134 0.0
H517 H 0.89942 0.49549 0.67675 0.0
H518 H 0.94221 0.50971 0.64687 0.0
H519 H 0.97156 0.44226 0.59655 0.0
H520 H 0.93278 0.40376 0.61606 0.0
C521 C 0.89073 0.41292 0.65104 0.0
C522 C 0.86983 0.4211 0.66877 0.0
C523 C 0.91452 0.43447 0.64206 0.0
C524 C 0.87376 0.4511 0.67816 0.0
C525 C 0.89741 0.47249 0.6696 0.0
C526 C 0.94058 0.48651 0.64063 0.0
C527 C 0.96007 0.4791 0.6202 0.0
C528 C 0.91773 0.46456 0.65118 0.0
C529 C 0.95713 0.4488 0.61229 0.0
C530 C 0.93476 0.42673 0.62327 0.0
H531 H 0.63031 0.82864 0.57641 0.0
H532 H 0.70446 0.88501 0.61977 0.0
H533 H 0.68162 0.92837 0.61356 0.0
H534 H 0.63971 0.94969 0.59857 0.0
H535 H 0.56531 0.89302 0.55592 0.0
H536 H 0.58914 0.85056 0.55896 0.0
C537 C 0.64144 0.85042 0.58453 0.0
C538 C 0.66898 0.85351 0.59874 0.0
C539 C 0.62811 0.87523 0.5811 0.0
C540 C 0.68331 0.88202 0.60857 0.0
C541 C 0.6702 0.90681 0.60521 0.0
C542 C 0.6287 0.92807 0.5899 0.0
C543 C 0.60065 0.92457 0.57733 0.0
C544 C 0.64247 0.90359 0.59193 0.0
C545 C 0.58685 0.89642 0.56588 0.0
C546 C 0.60045 0.87204 0.56763 0.0
H547 H 0.39938 0.21069 0.51556 0.0
H548 H 0.33246 0.15816 0.45601 0.0
H549 H 0.35578 0.11514 0.46251 0.0
H550 H 0.39608 0.09311 0.48313 0.0
H551 H 0.46415 0.1465 0.54049 0.0
H552 H 0.43928 0.18817 0.53734 0.0
C553 C 0.38975 0.18969 0.50435 0.0
C554 C 0.36427 0.18768 0.48521 0.0
C555 C 0.4035 0.16516 0.50778 0.0
C556 C 0.35223 0.16042 0.47053 0.0
C557 C 0.36551 0.13578 0.47432 0.0
C558 C 0.40547 0.1138 0.49506 0.0
C559 C 0.43198 0.11653 0.51207 0.0
C560 C 0.39133 0.13801 0.49252 0.0
C561 C 0.44379 0.14364 0.52726 0.0
C562 C 0.42959 0.16757 0.52543 0.0
H563 H 0.87801 0.42042 0.40286 0.0
H564 H 0.81983 0.42497 0.47624 0.0
H565 H 0.85821 0.44884 0.51322 0.0
H566 H 0.90762 0.47113 0.52406 0.0
H567 H 0.96696 0.46802 0.45183 0.0
H568 H 0.92899 0.44077 0.41538 0.0
C569 C 0.87374 0.42658 0.42696 0.0
C570 C 0.84578 0.42064 0.43657 0.0
C571 C 0.89617 0.44064 0.44841 0.0
C572 C 0.84092 0.42864 0.46814 0.0
C573 C 0.86293 0.44257 0.48935 0.0
C574 C 0.91242 0.46433 0.50043 0.0
C575 C 0.94021 0.47188 0.49069 0.0
C576 C 0.89053 0.44897 0.47964 0.0
C577 C 0.94588 0.46249 0.4601 0.0
C578 C 0.92408 0.44708 0.43915 0.0
H579 H 0.67474 0.88445 0.45432 0.0
H580 H 0.60305 0.81705 0.42351 0.0
H581 H 0.57172 0.84734 0.44161 0.0
H582 H 0.56431 0.89218 0.4672 0.0
H583 H 0.63532 0.95974 0.49915 0.0
H584 H 0.66714 0.93009 0.4799 0.0
C585 C 0.65227 0.87631 0.45168 0.0
C586 C 0.64141 0.84842 0.43727 0.0
C587 C 0.63418 0.89388 0.4624 0.0
C588 C 0.61215 0.83854 0.43384 0.0
C589 C 0.59414 0.85579 0.44445 0.0
C590 C 0.58675 0.90062 0.46982 0.0
C591 C 0.59733 0.92835 0.48445 0.0
C592 C 0.60488 0.88343 0.45879 0.0
C593 C 0.62652 0.93869 0.48768 0.0
C594 C 0.64475 0.92164 0.4768 0.0
H595 H 0.14392 0.59236 0.38562 0.0
H596 H 0.16813 0.64871 0.46869 0.0
H597 H 0.12566 0.62394 0.49518 0.0
H598 H 0.08324 0.58359 0.49665 0.0
H599 H 0.06026 0.52644 0.41414 0.0
H600 H 0.09981 0.55508 0.38508 0.0
C601 C 0.13973 0.59976 0.4092 0.0
C602 C 0.15954 0.62237 0.42509 0.0
C603 C 0.11521 0.58534 0.4244 0.0
C604 C 0.15368 0.63108 0.45599 0.0
C605 C 0.12922 0.61703 0.47112 0.0
C606 C 0.08654 0.57777 0.47205 0.0
C607 C 0.06876 0.55269 0.45777 0.0
C608 C 0.11004 0.59375 0.45583 0.0
C609 C 0.07354 0.54553 0.42584 0.0
C610 C 0.09633 0.56179 0.40925 0.0
H611 H 0.44136 0.86454 0.68823 0.0
H612 H 0.38385 0.86182 0.60215 0.0
H613 H 0.41253 0.90758 0.5789 0.0
H614 H 0.45546 0.94704 0.5812 0.0
H615 H 0.51349 0.94945 0.66672 0.0
H616 H 0.48287 0.90599 0.69207 0.0
C617 C 0.43484 0.87414 0.66459 0.0
C618 C 0.41048 0.85921 0.64693 0.0
C619 C 0.45155 0.90072 0.65118 0.0
C620 C 0.40271 0.87216 0.61615 0.0
C621 C 0.41904 0.89859 0.60285 0.0
C622 C 0.46115 0.93853 0.60571 0.0
C623 C 0.48682 0.95182 0.622 0.0
C624 C 0.44371 0.91291 0.61991 0.0
C625 C 0.49391 0.9399 0.65354 0.0
C626 C 0.47644 0.91485 0.66803 0.0
H627 H 0.1968 0.40794 0.66497 0.0
H628 H 0.16225 0.33088 0.60726 0.0
H629 H 0.1246 0.3556 0.58426 0.0
H630 H 0.10245 0.40051 0.57844 0.0
H631 H 0.13954 0.47837 0.63365 0.0
H632 H 0.17509 0.45213 0.65937 0.0
C633 C 0.1812 0.39654 0.64719 0.0
C634 C 0.18257 0.36749 0.63799 0.0
C635 C 0.15987 0.4111 0.63354 0.0
C636 C 0.16167 0.35303 0.6153 0.0
C637 C 0.14015 0.36725 0.6019 0.0
C638 C 0.11807 0.41143 0.59651 0.0
C639 C 0.11821 0.44123 0.60438 0.0
C640 C 0.13907 0.3964 0.61068 0.0
C641 C 0.13895 0.45541 0.62725 0.0
C642 C 0.15935 0.44045 0.64194 0.0
H643 H 0.62574 0.19538 0.61537 0.0
H644 H 0.63076 0.14325 0.70713 0.0
H645 H 0.60179 0.0991 0.68179 0.0
H646 H 0.57125 0.07614 0.6344 0.0
H647 H 0.56656 0.12949 0.5435 0.0
H648 H 0.59975 0.17139 0.56715 0.0
C649 C 0.62112 0.17426 0.62977 0.0
C650 C 0.63033 0.17312 0.6634 0.0
C651 C 0.6044 0.14879 0.61502 0.0
C652 C 0.62356 0.14532 0.68145 0.0
C653 C 0.60707 0.11984 0.66688 0.0
C654 C 0.5781 0.09666 0.6196 0.0
C655 C 0.56642 0.09948 0.58711 0.0
C656 C 0.5968 0.1214 0.63381 0.0
C657 C 0.57521 0.12654 0.56849 0.0
C658 C 0.5941 0.15071 0.58209 0.0
H659 H 0.82767 0.60913 0.58587 0.0
H660 H 0.87534 0.68212 0.64194 0.0
H661 H 0.919 0.66979 0.62669 0.0
H662 H 0.94356 0.63525 0.60174 0.0
H663 H 0.8953 0.56093 0.54786 0.0
H664 H 0.85216 0.5769 0.5578 0.0
C665 C 0.84762 0.62239 0.5947 0.0
C666 C 0.8482 0.64629 0.61532 0.0
C667 C 0.87262 0.61484 0.58635 0.0
C668 C 0.87424 0.66368 0.62592 0.0
C669 C 0.89925 0.6565 0.6174 0.0
C670 C 0.92364 0.62272 0.59188 0.0
C671 C 0.92279 0.59675 0.57431 0.0
C672 C 0.89869 0.63169 0.59826 0.0
C673 C 0.89672 0.58091 0.56161 0.0
C674 C 0.87194 0.58997 0.56735 0.0
H675 H 0.36791 0.41331 0.23792 0.0
H676 H 0.4446 0.44227 0.29714 0.0
H677 H 0.46618 0.47032 0.24938 0.0
H678 H 0.46454 0.48317 0.1898 0.0
H679 H 0.38819 0.45279 0.13036 0.0
H680 H 0.36509 0.42947 0.17926 0.0
C681 C 0.38916 0.42622 0.24054 0.0
C682 C 0.40467 0.42544 0.27103 0.0
C683 C 0.40157 0.44203 0.21285 0.0
C684 C 0.43233 0.44206 0.27384 0.0
C685 C 0.44466 0.45821 0.24656 0.0
C686 C 0.44273 0.47183 0.18759 0.0
C687 C 0.42825 0.46948 0.15634 0.0
C688 C 0.4297 0.45782 0.21576 0.0
C689 C 0.39996 0.45472 0.15402 0.0
C690 C 0.38671 0.44129 0.18199 0.0
H691 H 0.45344 0.66451 0.89737 0.0
H692 H 0.39122 0.5834 0.8822 0.0
H693 H 0.41646 0.556 0.92382 0.0
H694 H 0.45757 0.5544 0.96315 0.0
H695 H 0.52002 0.63559 0.9768 0.0
H696 H 0.49304 0.66354 0.93803 0.0
C697 C 0.44506 0.64096 0.90345 0.0
C698 C 0.42031 0.62621 0.88637 0.0
C699 C 0.45976 0.62524 0.92743 0.0
C700 C 0.41032 0.59542 0.89442 0.0
C701 C 0.4247 0.57971 0.91846 0.0
C702 C 0.46499 0.57833 0.95813 0.0
C703 C 0.49083 0.59284 0.97318 0.0
C704 C 0.44961 0.59429 0.93499 0.0
C705 C 0.50028 0.62379 0.96575 0.0
C706 C 0.48488 0.63982 0.94341 0.0
H707 H 0.38356 0.42186 0.89866 0.0
H708 H 0.44805 0.39141 0.85076 0.0
H709 H 0.4836 0.41792 0.88938 0.0
H710 H 0.49695 0.45171 0.935 0.0
H711 H 0.43339 0.48033 0.9856 0.0
H712 H 0.39682 0.45193 0.94833 0.0
C713 C 0.4053 0.42054 0.89693 0.0
C714 C 0.41295 0.40502 0.8711 0.0
C715 C 0.42585 0.43551 0.91979 0.0
C716 C 0.4414 0.40384 0.86951 0.0
C717 C 0.46184 0.41882 0.89183 0.0
C718 C 0.47508 0.45158 0.93796 0.0
C719 C 0.46782 0.46824 0.96275 0.0
C720 C 0.45438 0.43513 0.91667 0.0
C721 C 0.4394 0.46751 0.96676 0.0
C722 C 0.41857 0.45143 0.94531 0.0
H723 H 0.61605 0.40916 0.8412 0.0
H724 H 0.69548 0.44505 0.89188 0.0
H725 H 0.67185 0.46973 0.92974 0.0
H726 H 0.62821 0.48252 0.94786 0.0
H727 H 0.54956 0.4473 0.89488 0.0
H728 H 0.57328 0.42169 0.85873 0.0
C729 C 0.62834 0.42258 0.8603 0.0
C730 C 0.65763 0.42507 0.8634 0.0
C731 C 0.61467 0.43712 0.88178 0.0
C732 C 0.6729 0.44221 0.88894 0.0
C733 C 0.65939 0.45659 0.91057 0.0
C734 C 0.61631 0.46914 0.9285 0.0
C735 C 0.58706 0.4671 0.92424 0.0
C736 C 0.63022 0.45435 0.90721 0.0
C737 C 0.57207 0.44966 0.8988 0.0
C738 C 0.58561 0.43482 0.878 0.0
H739 H 0.66052 0.62285 0.84064 0.0
H740 H 0.58314 0.59576 0.78202 0.0
H741 H 0.56146 0.56805 0.82991 0.0
H742 H 0.56327 0.5552 0.88954 0.0
H743 H 0.64044 0.58363 0.94823 0.0
H744 H 0.66352 0.60637 0.89912 0.0
C745 C 0.63909 0.61039 0.83814 0.0
C746 C 0.62344 0.61164 0.80781 0.0
C747 C 0.62665 0.59476 0.86588 0.0
C748 C 0.59555 0.5956 0.8052 0.0
C749 C 0.58316 0.57965 0.83256 0.0
C750 C 0.58525 0.56596 0.89152 0.0
C751 C 0.59998 0.56799 0.92264 0.0
C752 C 0.5983 0.57964 0.86322 0.0
C753 C 0.62848 0.58199 0.92468 0.0
C754 C 0.64172 0.59508 0.89659 0.0
H755 H 0.62528 0.65563 0.17023 0.0
H756 H 0.59863 0.59861 0.2555 0.0
H757 H 0.56896 0.56214 0.22013 0.0
H758 H 0.5491 0.547 0.16567 0.0
H759 H 0.57468 0.60294 0.07938 0.0
H760 H 0.60631 0.63901 0.11438 0.0
C761 C 0.61301 0.63519 0.18101 0.0
C762 C 0.61441 0.62991 0.21561 0.0
C763 C 0.59577 0.61406 0.16036 0.0
C764 C 0.59844 0.60315 0.22906 0.0
C765 C 0.58126 0.58229 0.20883 0.0
C766 C 0.56164 0.56699 0.15432 0.0
C767 C 0.55928 0.57224 0.11983 0.0
C768 C 0.57961 0.58759 0.17453 0.0
C769 C 0.57601 0.59823 0.1058 0.0
C770 C 0.59403 0.61896 0.12585 0.0
H771 H 0.37136 0.62045 0.19903 0.0
H772 H 0.42819 0.61193 0.2839 0.0
H773 H 0.4549 0.58542 0.25195 0.0
H774 H 0.4634 0.56608 0.19962 0.0
H775 H 0.40674 0.57342 0.1144 0.0
H776 H 0.37883 0.5988 0.14665 0.0
C777 C 0.38958 0.61277 0.21051 0.0
C778 C 0.3976 0.61821 0.24399 0.0
C779 C 0.40499 0.59734 0.19188 0.0
C780 C 0.42118 0.60778 0.25843 0.0
C781 C 0.43664 0.59274 0.24008 0.0
C782 C 0.44491 0.57315 0.18802 0.0
C783 C 0.43737 0.56801 0.15446 0.0
C784 C 0.4289 0.58758 0.20675 0.0
C785 C 0.41311 0.57706 0.14012 0.0
C786 C 0.39716 0.59168 0.15857 0.0
H787 H 0.57626 0.37576 0.1833 0.0
H788 H 0.6383 0.45712 0.19785 0.0
H789 H 0.61278 0.48426 0.15628 0.0
H790 H 0.57154 0.48556 0.11714 0.0
H791 H 0.50932 0.40409 0.10396 0.0
H792 H 0.53649 0.37642 0.14279 0.0
C793 C 0.58454 0.39931 0.17709 0.0
C794 C 0.60932 0.41421 0.19398 0.0
C795 C 0.56969 0.41487 0.15312 0.0
C796 C 0.61918 0.44499 0.18577 0.0
C797 C 0.60464 0.46055 0.16176 0.0
C798 C 0.56419 0.46162 0.12228 0.0
C799 C 0.53837 0.44697 0.10733 0.0
C800 C 0.57971 0.44582 0.14542 0.0
C801 C 0.52904 0.41602 0.11492 0.0
C802 C 0.54456 0.40015 0.13729 0.0
loop_
_geom_bond_atom_site_label_1
_geom_bond_atom_site_label_2
_geom_bond_distance
_geom_bond_site_symmetry_2
_ccdc_geom_bond_type
C0 C1 1.264 . S
C0 C5 1.479 . S
C0 C10 1.465 . S
C1 C0 1.264 . S
C1 C3 1.339 . S
C1 H28 0.931 . S
C2 C3 1.395 . S
C2 C4 1.320 . S
C3 C1 1.339 . S
C3 C2 1.395 . S
C3 H29 0.929 . S
C4 C2 1.320 . S
C4 C5 1.405 . S
C4 H30 0.930 . S
C5 C0 1.479 . S
C5 C4 1.405 . S
C5 H31 0.931 . S
U6 O7 2.454 . S
U6 O8 2.458 . S
U6 C9 2.984 . S
U6 C10 2.847 . S
U6 C23 2.882 . S
U6 O24 2.441 . S
U6 O25 2.420 . S
U6 O26 2.455 . S
U6 O27 2.449 . S
O7 U6 2.454 . S
O7 C9 1.353 . S
O8 U6 2.458 . S
O8 C9 1.286 . S
C9 U6 2.984 . S
C9 O7 1.353 . S
C9 O8 1.286 . S
C9 C11 1.363 . S
C10 C0 1.465 . S
C10 U6 2.847 . S
C10 O24 1.249 . S
C10 O25 1.202 . S
C11 C9 1.363 . S
C11 C13 1.408 . S
C11 C16 1.342 . S
C12 C13 1.310 . S
C12 C15 1.461 . S
C12 H32 0.932 . S
C13 C11 1.408 . S
C13 C12 1.310 . S
C13 H33 0.930 . S
C14 C15 1.474 . S
C14 C16 1.285 . S
C14 H34 0.929 . S
C15 C12 1.461 . S
C15 C14 1.474 . S
C16 C11 1.342 . S
C16 C14 1.285 . S
C16 H35 0.930 . S
C17 C20 1.424 . S
C17 C22 1.245 . S
C17 C23 1.428 . S
C18 C21 1.260 . S
C18 C22 1.477 . S
C18 H36 0.932 . S
C19 C20 1.384 . S
C19 C21 1.479 . S
C19 H37 0.929 . S
C20 C17 1.424 . S
C20 C19 1.384 . S
C20 H38 0.928 . S
C21 C18 1.260 . S
C21 C19 1.479 . S
C22 C17 1.245 . S
C22 C18 1.477 . S
C22 H39 0.932 . S
C23 U6 2.882 . S
C23 C17 1.428 . S
C23 O26 1.301 . S
C23 O27 1.282 . S
O24 U6 2.441 . S
O24 C10 1.249 . S
O25 U6 2.420 . S
O25 C10 1.202 . S
O26 U6 2.455 . S
O26 C23 1.301 . S
O27 U6 2.449 . S
O27 C23 1.282 . S
H28 C1 0.931 . S
H29 C3 0.929 . S
H30 C4 0.930 . S
H31 C5 0.931 . S
H32 C12 0.932 . S
H33 C13 0.930 . S
H34 C14 0.929 . S
H35 C16 0.930 . S
H36 C18 0.932 . S
H37 C19 0.929 . S
H38 C20 0.928 . S
H39 C22 0.932 . S
C40 C41 1.264 . S
C40 C45 1.479 . S
C40 C50 1.465 . S
C41 C40 1.264 . S
C41 C43 1.339 . S
C41 H68 0.931 . S
C42 C43 1.395 . S
C42 C44 1.320 . S
C43 C41 1.339 . S
C43 C42 1.395 . S
C43 H69 0.929 . S
C44 C42 1.320 . S
C44 C45 1.405 . S
C44 H70 0.930 . S
C45 C40 1.479 . S
C45 C44 1.405 . S
C45 H71 0.931 . S
U46 O47 2.454 . S
U46 O48 2.458 . S
U46 C49 2.984 . S
U46 C50 2.847 . S
U46 C63 2.882 . S
U46 O64 2.441 . S
U46 O65 2.420 . S
U46 O66 2.455 . S
U46 O67 2.449 . S
O47 U46 2.454 . S
O47 C49 1.353 . S
O48 U46 2.458 . S
O48 C49 1.286 . S
C49 U46 2.984 . S
C49 O47 1.353 . S
C49 O48 1.286 . S
C49 C51 1.363 . S
C50 C40 1.465 . S
C50 U46 2.847 . S
C50 O64 1.249 . S
C50 O65 1.202 . S
C51 C49 1.363 . S
C51 C53 1.408 . S
C51 C56 1.342 . S
C52 C53 1.310 . S
C52 C55 1.461 . S
C52 H72 0.932 . S
C53 C51 1.408 . S
C53 C52 1.310 . S
C53 H73 0.930 . S
C54 C55 1.474 . S
C54 C56 1.285 . S
C54 H74 0.929 . S
C55 C52 1.461 . S
C55 C54 1.474 . S
C56 C51 1.342 . S
C56 C54 1.285 . S
C56 H75 0.930 . S
C57 C60 1.424 . S
C57 C62 1.245 . S
C57 C63 1.428 . S
C58 C61 1.260 . S
C58 C62 1.477 . S
C58 H76 0.932 . S
C59 C60 1.384 . S
C59 C61 1.479 . S
C59 H77 0.929 . S
C60 C57 1.424 . S
C60 C59 1.384 . S
C60 H78 0.928 . S
C61 C58 1.260 . S
C61 C59 1.479 . S
C62 C57 1.245 . S
C62 C58 1.477 . S
C62 H79 0.932 . S
C63 U46 2.882 . S
C63 C57 1.428 . S
C63 O66 1.301 . S
C63 O67 1.282 . S
O64 U46 2.441 . S
O64 C50 1.249 . S
O65 U46 2.420 . S
O65 C50 1.202 . S
O66 U46 2.455 . S
O66 C63 1.301 . S
O67 U46 2.449 . S
O67 C63 1.282 . S
H68 C41 0.931 . S
H69 C43 0.929 . S
H70 C44 0.930 . S
H71 C45 0.931 . S
H72 C52 0.932 . S
H73 C53 0.930 . S
H74 C54 0.929 . S
H75 C56 0.930 . S
H76 C58 0.932 . S
H77 C59 0.929 . S
H78 C60 0.928 . S
H79 C62 0.932 . S
C80 C81 1.264 . S
C80 C85 1.479 . S
C80 C90 1.465 . S
C81 C80 1.264 . S
C81 C83 1.339 . S
C81 H108 0.931 . S
C82 C83 1.395 . S
C82 C84 1.320 . S
C83 C81 1.339 . S
C83 C82 1.395 . S
C83 H109 0.929 . S
C84 C82 1.320 . S
C84 C85 1.405 . S
C84 H110 0.930 . S
C85 C80 1.479 . S
C85 C84 1.405 . S
C85 H111 0.931 . S
U86 O87 2.454 . S
U86 O88 2.458 . S
U86 C89 2.984 . S
U86 C90 2.847 . S
U86 C103 2.882 . S
U86 O104 2.441 . S
U86 O105 2.420 . S
U86 O106 2.455 . S
U86 O107 2.449 . S
O87 U86 2.454 . S
O87 C89 1.353 . S
O88 U86 2.458 . S
O88 C89 1.286 . S
C89 U86 2.984 . S
C89 O87 1.353 . S
C89 O88 1.286 . S
C89 C91 1.363 . S
C90 C80 1.465 . S
C90 U86 2.847 . S
C90 O104 1.249 . S
C90 O105 1.202 . S
C91 C89 1.363 . S
C91 C93 1.408 . S
C91 C96 1.342 . S
C92 C93 1.310 . S
C92 C95 1.461 . S
C92 H112 0.932 . S
C93 C91 1.408 . S
C93 C92 1.310 . S
C93 H113 0.930 . S
C94 C95 1.474 . S
C94 C96 1.285 . S
C94 H114 0.929 . S
C95 C92 1.461 . S
C95 C94 1.474 . S
C96 C91 1.342 . S
C96 C94 1.285 . S
C96 H115 0.930 . S
C97 C100 1.424 . S
C97 C102 1.245 . S
C97 C103 1.428 . S
C98 C101 1.260 . S
C98 C102 1.477 . S
C98 H116 0.932 . S
C99 C100 1.384 . S
C99 C101 1.479 . S
C99 H117 0.929 . S
C100 C97 1.424 . S
C100 C99 1.384 . S
C100 H118 0.928 . S
C101 C98 1.260 . S
C101 C99 1.479 . S
C102 C97 1.245 . S
C102 C98 1.477 . S
C102 H119 0.932 . S
C103 U86 2.882 . S
C103 C97 1.428 . S
C103 O106 1.301 . S
C103 O107 1.282 . S
O104 U86 2.441 . S
O104 C90 1.249 . S
O105 U86 2.420 . S
O105 C90 1.202 . S
O106 U86 2.455 . S
O106 C103 1.301 . S
O107 U86 2.449 . S
O107 C103 1.282 . S
H108 C81 0.931 . S
H109 C83 0.929 . S
H110 C84 0.930 . S
H111 C85 0.931 . S
H112 C92 0.932 . S
H113 C93 0.930 . S
H114 C94 0.929 . S
H115 C96 0.930 . S
H116 C98 0.932 . S
H117 C99 0.929 . S
H118 C100 0.928 . S
H119 C102 0.932 . S
C120 C121 1.264 . S
C120 C125 1.479 . S
C120 C130 1.465 . S
C121 C120 1.264 . S
C121 C123 1.339 . S
C121 H148 0.931 . S
C122 C123 1.395 . S
C122 C124 1.320 . S
C123 C121 1.339 . S
C123 C122 1.395 . S
C123 H149 0.929 . S
C124 C122 1.320 . S
C124 C125 1.405 . S
C124 H150 0.930 . S
C125 C120 1.479 . S
C125 C124 1.405 . S
C125 H151 0.931 . S
U126 O127 2.454 . S
U126 O128 2.458 . S
U126 C129 2.984 . S
U126 C130 2.847 . S
U126 C143 2.882 . S
U126 O144 2.441 . S
U126 O145 2.420 . S
U126 O146 2.455 . S
U126 O147 2.449 . S
O127 U126 2.454 . S
O127 C129 1.353 . S
O128 U126 2.458 . S
O128 C129 1.286 . S
C129 U126 2.984 . S
C129 O127 1.353 . S
C129 O128 1.286 . S
C129 C131 1.363 . S
C130 C120 1.465 . S
C130 U126 2.847 . S
C130 O144 1.249 . S
C130 O145 1.202 . S
C131 C129 1.363 . S
C131 C133 1.408 . S
C131 C136 1.342 . S
C132 C133 1.310 . S
C132 C135 1.461 . S
C132 H152 0.932 . S
C133 C131 1.408 . S
C133 C132 1.310 . S
C133 H153 0.930 . S
C134 C135 1.474 . S
C134 C136 1.285 . S
C134 H154 0.929 . S
C135 C132 1.461 . S
C135 C134 1.474 . S
C136 C131 1.342 . S
C136 C134 1.285 . S
C136 H155 0.930 . S
C137 C140 1.424 . S
C137 C142 1.245 . S
C137 C143 1.428 . S
C138 C141 1.260 . S
C138 C142 1.477 . S
C138 H156 0.932 . S
C139 C140 1.384 . S
C139 C141 1.479 . S
C139 H157 0.929 . S
C140 C137 1.424 . S
C140 C139 1.384 . S
C140 H158 0.928 . S
C141 C138 1.260 . S
C141 C139 1.479 . S
C142 C137 1.245 . S
C142 C138 1.477 . S
C142 H159 0.932 . S
C143 U126 2.882 . S
C143 C137 1.428 . S
C143 O146 1.301 . S
C143 O147 1.282 . S
O144 U126 2.441 . S
O144 C130 1.249 . S
O145 U126 2.420 . S
O145 C130 1.202 . S
O146 U126 2.455 . S
O146 C143 1.301 . S
O147 U126 2.449 . S
O147 C143 1.282 . S
H148 C121 0.931 . S
H149 C123 0.929 . S
H150 C124 0.930 . S
H151 C125 0.931 . S
H152 C132 0.932 . S
H153 C133 0.930 . S
H154 C134 0.929 . S
H155 C136 0.930 . S
H156 C138 0.932 . S
H157 C139 0.929 . S
H158 C140 0.928 . S
H159 C142 0.932 . S
C160 C161 1.264 . S
C160 C165 1.479 . S
C160 C170 1.465 . S
C161 C160 1.264 . S
C161 C163 1.339 . S
C161 H188 0.931 . S
C162 C163 1.395 . S
C162 C164 1.320 . S
C163 C161 1.339 . S
C163 C162 1.395 . S
C163 H189 0.929 . S
C164 C162 1.320 . S
C164 C165 1.405 . S
C164 H190 0.930 . S
C165 C160 1.479 . S
C165 C164 1.405 . S
C165 H191 0.931 . S
U166 O167 2.454 . S
U166 O168 2.458 . S
U166 C169 2.984 . S
U166 C170 2.847 . S
U166 C183 2.882 . S
U166 O184 2.441 . S
U166 O185 2.420 . S
U166 O186 2.455 . S
U166 O187 2.449 . S
O167 U166 2.454 . S
O167 C169 1.353 . S
O168 U166 2.458 . S
O168 C169 1.286 . S
C169 U166 2.984 . S
C169 O167 1.353 . S
C169 O168 1.286 . S
C169 C171 1.363 . S
C170 C160 1.465 . S
C170 U166 2.847 . S
C170 O184 1.249 . S
C170 O185 1.202 . S
C171 C169 1.363 . S
C171 C173 1.408 . S
C171 C176 1.342 . S
C172 C173 1.310 . S
C172 C175 1.461 . S
C172 H192 0.932 . S
C173 C171 1.408 . S
C173 C172 1.310 . S
C173 H193 0.930 . S
C174 C175 1.474 . S
C174 C176 1.285 . S
C174 H194 0.929 . S
C175 C172 1.461 . S
C175 C174 1.474 . S
C176 C171 1.342 . S
C176 C174 1.285 . S
C176 H195 0.930 . S
C177 C180 1.424 . S
C177 C182 1.245 . S
C177 C183 1.428 . S
C178 C181 1.260 . S
C178 C182 1.477 . S
C178 H196 0.932 . S
C179 C180 1.384 . S
C179 C181 1.479 . S
C179 H197 0.929 . S
C180 C177 1.424 . S
C180 C179 1.384 . S
C180 H198 0.928 . S
C181 C178 1.260 . S
C181 C179 1.479 . S
C182 C177 1.245 . S
C182 C178 1.477 . S
C182 H199 0.932 . S
C183 U166 2.882 . S
C183 C177 1.428 . S
C183 O186 1.301 . S
C183 O187 1.282 . S
O184 U166 2.441 . S
O184 C170 1.249 . S
O185 U166 2.420 . S
O185 C170 1.202 . S
O186 U166 2.455 . S
O186 C183 1.301 . S
O187 U166 2.449 . S
O187 C183 1.282 . S
H188 C161 0.931 . S
H189 C163 0.929 . S
H190 C164 0.930 . S
H191 C165 0.931 . S
H192 C172 0.932 . S
H193 C173 0.930 . S
H194 C174 0.929 . S
H195 C176 0.930 . S
H196 C178 0.932 . S
H197 C179 0.929 . S
H198 C180 0.928 . S
H199 C182 0.932 . S
C200 C201 1.264 . S
C200 C205 1.479 . S
C200 C210 1.465 . S
C201 C200 1.264 . S
C201 C203 1.339 . S
C201 H228 0.931 . S
C202 C203 1.395 . S
C202 C204 1.320 . S
C203 C201 1.339 . S
C203 C202 1.395 . S
C203 H229 0.929 . S
C204 C202 1.320 . S
C204 C205 1.405 . S
C204 H230 0.930 . S
C205 C200 1.479 . S
C205 C204 1.405 . S
C205 H231 0.931 . S
U206 O207 2.454 . S
U206 O208 2.458 . S
U206 C209 2.984 . S
U206 C210 2.847 . S
U206 C223 2.882 . S
U206 O224 2.441 . S
U206 O225 2.420 . S
U206 O226 2.455 . S
U206 O227 2.449 . S
O207 U206 2.454 . S
O207 C209 1.353 . S
O208 U206 2.458 . S
O208 C209 1.286 . S
C209 U206 2.984 . S
C209 O207 1.353 . S
C209 O208 1.286 . S
C209 C211 1.363 . S
C210 C200 1.465 . S
C210 U206 2.847 . S
C210 O224 1.249 . S
C210 O225 1.202 . S
C211 C209 1.363 . S
C211 C213 1.408 . S
C211 C216 1.342 . S
C212 C213 1.310 . S
C212 C215 1.461 . S
C212 H232 0.932 . S
C213 C211 1.408 . S
C213 C212 1.310 . S
C213 H233 0.930 . S
C214 C215 1.474 . S
C214 C216 1.285 . S
C214 H234 0.929 . S
C215 C212 1.461 . S
C215 C214 1.474 . S
C216 C211 1.342 . S
C216 C214 1.285 . S
C216 H235 0.930 . S
C217 C220 1.424 . S
C217 C222 1.245 . S
C217 C223 1.428 . S
C218 C221 1.260 . S
C218 C222 1.477 . S
C218 H236 0.932 . S
C219 C220 1.384 . S
C219 C221 1.479 . S
C219 H237 0.929 . S
C220 C217 1.424 . S
C220 C219 1.384 . S
C220 H238 0.928 . S
C221 C218 1.260 . S
C221 C219 1.479 . S
C222 C217 1.245 . S
C222 C218 1.477 . S
C222 H239 0.932 . S
C223 U206 2.882 . S
C223 C217 1.428 . S
C223 O226 1.301 . S
C223 O227 1.282 . S
O224 U206 2.441 . S
O224 C210 1.249 . S
O225 U206 2.420 . S
O225 C210 1.202 . S
O226 U206 2.455 . S
O226 C223 1.301 . S
O227 U206 2.449 . S
O227 C223 1.282 . S
H228 C201 0.931 . S
H229 C203 0.929 . S
H230 C204 0.930 . S
H231 C205 0.931 . S
H232 C212 0.932 . S
H233 C213 0.930 . S
H234 C214 0.929 . S
H235 C216 0.930 . S
H236 C218 0.932 . S
H237 C219 0.929 . S
H238 C220 0.928 . S
H239 C222 0.932 . S
C240 C241 1.264 . S
C240 C245 1.479 . S
C240 C250 1.465 . S
C241 C240 1.264 . S
C241 C243 1.339 . S
C241 H268 0.931 . S
C242 C243 1.395 . S
C242 C244 1.320 . S
C243 C241 1.339 . S
C243 C242 1.395 . S
C243 H269 0.929 . S
C244 C242 1.320 . S
C244 C245 1.405 . S
C244 H270 0.930 . S
C245 C240 1.479 . S
C245 C244 1.405 . S
C245 H271 0.931 . S
U246 O247 2.454 . S
U246 O248 2.458 . S
U246 C249 2.984 . S
U246 C250 2.847 . S
U246 C263 2.882 . S
U246 O264 2.441 . S
U246 O265 2.420 . S
U246 O266 2.455 . S
U246 O267 2.449 . S
O247 U246 2.454 . S
O247 C249 1.353 . S
O248 U246 2.458 . S
O248 C249 1.286 . S
C249 U246 2.984 . S
C249 O247 1.353 . S
C249 O248 1.286 . S
C249 C251 1.363 . S
C250 C240 1.465 . S
C250 U246 2.847 . S
C250 O264 1.249 . S
C250 O265 1.202 . S
C251 C249 1.363 . S
C251 C253 1.408 . S
C251 C256 1.342 . S
C252 C253 1.310 . S
C252 C255 1.461 . S
C252 H272 0.932 . S
C253 C251 1.408 . S
C253 C252 1.310 . S
C253 H273 0.930 . S
C254 C255 1.474 . S
C254 C256 1.285 . S
C254 H274 0.929 . S
C255 C252 1.461 . S
C255 C254 1.474 . S
C256 C251 1.342 . S
C256 C254 1.285 . S
C256 H275 0.930 . S
C257 C260 1.424 . S
C257 C262 1.245 . S
C257 C263 1.428 . S
C258 C261 1.260 . S
C258 C262 1.477 . S
C258 H276 0.932 . S
C259 C260 1.384 . S
C259 C261 1.479 . S
C259 H277 0.929 . S
C260 C257 1.424 . S
C260 C259 1.384 . S
C260 H278 0.928 . S
C261 C258 1.260 . S
C261 C259 1.479 . S
C262 C257 1.245 . S
C262 C258 1.477 . S
C262 H279 0.932 . S
C263 U246 2.882 . S
C263 C257 1.428 . S
C263 O266 1.301 . S
C263 O267 1.282 . S
O264 U246 2.441 . S
O264 C250 1.249 . S
O265 U246 2.420 . S
O265 C250 1.202 . S
O266 U246 2.455 . S
O266 C263 1.301 . S
O267 U246 2.449 . S
O267 C263 1.282 . S
H268 C241 0.931 . S
H269 C243 0.929 . S
H270 C244 0.930 . S
H271 C245 0.931 . S
H272 C252 0.932 . S
H273 C253 0.930 . S
H274 C254 0.929 . S
H275 C256 0.930 . S
H276 C258 0.932 . S
H277 C259 0.929 . S
H278 C260 0.928 . S
H279 C262 0.932 . S
C280 C281 1.264 . S
C280 C285 1.479 . S
C280 C290 1.465 . S
C281 C280 1.264 . S
C281 C283 1.339 . S
C281 H308 0.931 . S
C282 C283 1.395 . S
C282 C284 1.320 . S
C283 C281 1.339 . S
C283 C282 1.395 . S
C283 H309 0.929 . S
C284 C282 1.320 . S
C284 C285 1.405 . S
C284 H310 0.930 . S
C285 C280 1.479 . S
C285 C284 1.405 . S
C285 H311 0.931 . S
U286 O287 2.454 . S
U286 O288 2.458 . S
U286 C289 2.984 . S
U286 C290 2.847 . S
U286 C303 2.882 . S
U286 O304 2.441 . S
U286 O305 2.420 . S
U286 O306 2.455 . S
U286 O307 2.449 . S
O287 U286 2.454 . S
O287 C289 1.353 . S
O288 U286 2.458 . S
O288 C289 1.286 . S
C289 U286 2.984 . S
C289 O287 1.353 . S
C289 O288 1.286 . S
C289 C291 1.363 . S
C290 C280 1.465 . S
C290 U286 2.847 . S
C290 O304 1.249 . S
C290 O305 1.202 . S
C291 C289 1.363 . S
C291 C293 1.408 . S
C291 C296 1.342 . S
C292 C293 1.310 . S
C292 C295 1.461 . S
C292 H312 0.932 . S
C293 C291 1.408 . S
C293 C292 1.310 . S
C293 H313 0.930 . S
C294 C295 1.474 . S
C294 C296 1.285 . S
C294 H314 0.929 . S
C295 C292 1.461 . S
C295 C294 1.474 . S
C296 C291 1.342 . S
C296 C294 1.285 . S
C296 H315 0.930 . S
C297 C300 1.424 . S
C297 C302 1.245 . S
C297 C303 1.428 . S
C298 C301 1.260 . S
C298 C302 1.477 . S
C298 H316 0.932 . S
C299 C300 1.384 . S
C299 C301 1.479 . S
C299 H317 0.929 . S
C300 C297 1.424 . S
C300 C299 1.384 . S
C300 H318 0.928 . S
C301 C298 1.260 . S
C301 C299 1.479 . S
C302 C297 1.245 . S
C302 C298 1.477 . S
C302 H319 0.932 . S
C303 U286 2.882 . S
C303 C297 1.428 . S
C303 O306 1.301 . S
C303 O307 1.282 . S
O304 U286 2.441 . S
O304 C290 1.249 . S
O305 U286 2.420 . S
O305 C290 1.202 . S
O306 U286 2.455 . S
O306 C303 1.301 . S
O307 U286 2.449 . S
O307 C303 1.282 . S
H308 C281 0.931 . S
H309 C283 0.929 . S
H310 C284 0.930 . S
H311 C285 0.931 . S
H312 C292 0.932 . S
H313 C293 0.930 . S
H314 C294 0.929 . S
H315 C296 0.930 . S
H316 C298 0.932 . S
H317 C299 0.929 . S
H318 C300 0.928 . S
H319 C302 0.932 . S
Co320 O323 2.042 . S
Co320 O330 2.264 . S
Co320 O349 2.286 . S
Co320 O350 2.069 . S
Co320 O352 2.015 . S
Co321 O323 2.122 . S
Co321 O329 2.073 . S
Co321 O330 2.327 . S
Co321 O331 1.976 . S
Co322 O323 2.087 . S
Co322 O325 2.087 1_455 S
Co322 O332 2.111 . S
Co322 O333 2.143 1_455 S
Co322 O337 2.111 1_455 S
Co322 O351 2.143 . S
O323 Co320 2.042 . S
O323 Co321 2.122 . S
O323 Co322 2.087 . S
O323 H324 0.980 . S
H324 O323 0.980 . S
O325 Co322 2.087 1_655 S
O325 Co326 2.042 . S
O325 Co327 2.122 . S
O325 H328 0.980 . S
Co326 O325 2.042 . S
Co326 O334 2.286 . S
Co326 O335 2.069 . S
Co326 O336 2.015 . S
Co326 O339 2.264 . S
Co327 O325 2.122 . S
Co327 O338 1.976 . S
Co327 O339 2.327 . S
Co327 O340 2.073 . S
H328 O325 0.980 . S
O329 Co321 2.073 . S
O329 C344 1.245 . S
O330 Co320 2.264 . S
O330 Co321 2.327 . S
O330 C344 1.257 . S
O331 Co321 1.976 . S
O331 C343 1.251 . S
O332 Co322 2.111 . S
O332 C343 1.274 . S
O333 Co322 2.143 1_655 S
O333 C346 1.246 . S
O334 Co326 2.286 . S
O334 C345 1.259 . S
O335 Co326 2.069 . S
O335 C345 1.289 . S
O336 Co326 2.015 . S
O336 C346 1.257 . S
O337 Co322 2.111 1_655 S
O337 C347 1.274 . S
O338 Co327 1.976 . S
O338 C347 1.251 . S
O339 Co326 2.264 . S
O339 Co327 2.327 . S
O339 C348 1.257 . S
O340 Co327 2.073 . S
O340 C348 1.245 . S
C341 O349 1.259 . S
C341 O350 1.289 . S
C342 O351 1.246 . S
C342 O352 1.257 . S
C343 O331 1.251 . S
C343 O332 1.274 . S
C344 O329 1.245 . S
C344 O330 1.257 . S
C345 O334 1.259 . S
C345 O335 1.289 . S
C346 O333 1.246 . S
C346 O336 1.257 . S
C347 O337 1.274 . S
C347 O338 1.251 . S
C348 O339 1.257 . S
C348 O340 1.245 . S
O349 Co320 2.286 . S
O349 C341 1.259 . S
O350 Co320 2.069 . S
O350 C341 1.289 . S
O351 Co322 2.143 . S
O351 C342 1.246 . S
O352 Co320 2.015 . S
O352 C342 1.257 . S
Co353 O356 2.042 . S
Co353 O363 2.264 . S
Co353 O382 2.286 . S
Co353 O383 2.069 . S
Co353 O385 2.015 . S
Co354 O356 2.122 . S
Co354 O362 2.073 . S
Co354 O363 2.327 . S
Co354 O364 1.976 . S
Co355 O356 2.087 1_545 S
Co355 O358 2.087 . S
Co355 O365 2.111 1_545 S
Co355 O366 2.143 . S
Co355 O370 2.111 . S
Co355 O384 2.143 1_545 S
O356 Co353 2.042 . S
O356 Co354 2.122 . S
O356 Co355 2.087 1_565 S
O356 H357 0.980 . S
H357 O356 0.980 . S
O358 Co355 2.087 . S
O358 Co359 2.042 . S
O358 Co360 2.122 . S
O358 H361 0.980 . S
Co359 O358 2.042 . S
Co359 O367 2.286 . S
Co359 O368 2.069 . S
Co359 O369 2.015 . S
Co359 O372 2.264 . S
Co360 O358 2.122 . S
Co360 O371 1.976 . S
Co360 O372 2.327 . S
Co360 O373 2.073 . S
H361 O358 0.980 . S
O362 Co354 2.073 . S
O362 C377 1.245 . S
O363 Co353 2.264 . S
O363 Co354 2.327 . S
O363 C377 1.257 . S
O364 Co354 1.976 . S
O364 C376 1.251 . S
O365 Co355 2.111 1_565 S
O365 C376 1.274 . S
O366 Co355 2.143 . S
O366 C379 1.246 . S
O367 Co359 2.286 . S
O367 C378 1.259 . S
O368 Co359 2.069 . S
O368 C378 1.289 . S
O369 Co359 2.015 . S
O369 C379 1.257 . S
O370 Co355 2.111 . S
O370 C380 1.274 . S
O371 Co360 1.976 . S
O371 C380 1.251 . S
O372 Co359 2.264 . S
O372 Co360 2.327 . S
O372 C381 1.257 . S
O373 Co360 2.073 . S
O373 C381 1.245 . S
C374 O382 1.259 . S
C374 O383 1.289 . S
C375 O384 1.246 . S
C375 O385 1.257 . S
C376 O364 1.251 . S
C376 O365 1.274 . S
C377 O362 1.245 . S
C377 O363 1.257 . S
C378 O367 1.259 . S
C378 O368 1.289 . S
C379 O366 1.246 . S
C379 O369 1.257 . S
C380 O370 1.274 . S
C380 O371 1.251 . S
C381 O372 1.257 . S
C381 O373 1.245 . S
O382 Co353 2.286 . S
O382 C374 1.259 . S
O383 Co353 2.069 . S
O383 C374 1.289 . S
O384 Co355 2.143 1_565 S
O384 C375 1.246 . S
O385 Co353 2.015 . S
O385 C375 1.257 . S
Co386 O389 2.042 . S
Co386 O396 2.264 . S
Co386 O415 2.286 . S
Co386 O416 2.069 . S
Co386 O418 2.015 . S
Co387 O389 2.122 . S
Co387 O395 2.073 . S
Co387 O396 2.327 . S
Co387 O397 1.976 . S
Co388 O389 2.087 . S
Co388 O391 2.087 1_554 S
Co388 O398 2.111 . S
Co388 O399 2.143 1_554 S
Co388 O403 2.111 1_554 S
Co388 O417 2.143 . S
O389 Co386 2.042 . S
O389 Co387 2.122 . S
O389 Co388 2.087 . S
O389 H390 0.980 . S
H390 O389 0.980 . S
O391 Co388 2.087 1_556 S
O391 Co392 2.042 . S
O391 Co393 2.122 . S
O391 H394 0.980 . S
Co392 O391 2.042 . S
Co392 O400 2.286 . S
Co392 O401 2.069 . S
Co392 O402 2.015 . S
Co392 O405 2.264 . S
Co393 O391 2.122 . S
Co393 O404 1.976 . S
Co393 O405 2.327 . S
Co393 O406 2.073 . S
H394 O391 0.980 . S
O395 Co387 2.073 . S
O395 C410 1.245 . S
O396 Co386 2.264 . S
O396 Co387 2.327 . S
O396 C410 1.257 . S
O397 Co387 1.976 . S
O397 C409 1.251 . S
O398 Co388 2.111 . S
O398 C409 1.274 . S
O399 Co388 2.143 1_556 S
O399 C412 1.246 . S
O400 Co392 2.286 . S
O400 C411 1.259 . S
O401 Co392 2.069 . S
O401 C411 1.289 . S
O402 Co392 2.015 . S
O402 C412 1.257 . S
O403 Co388 2.111 1_556 S
O403 C413 1.274 . S
O404 Co393 1.976 . S
O404 C413 1.251 . S
O405 Co392 2.264 . S
O405 Co393 2.327 . S
O405 C414 1.257 . S
O406 Co393 2.073 . S
O406 C414 1.245 . S
C407 O415 1.259 . S
C407 O416 1.289 . S
C408 O417 1.246 . S
C408 O418 1.257 . S
C409 O397 1.251 . S
C409 O398 1.274 . S
C410 O395 1.245 . S
C410 O396 1.257 . S
C411 O400 1.259 . S
C411 O401 1.289 . S
C412 O399 1.246 . S
C412 O402 1.257 . S
C413 O403 1.274 . S
C413 O404 1.251 . S
C414 O405 1.257 . S
C414 O406 1.245 . S
O415 Co386 2.286 . S
O415 C407 1.259 . S
O416 Co386 2.069 . S
O416 C407 1.289 . S
O417 Co388 2.143 . S
O417 C408 1.246 . S
O418 Co386 2.015 . S
O418 C408 1.257 . S
H419 C425 0.930 . S
H420 C428 0.930 . S
H421 C429 0.930 . S
H422 C430 0.930 . S
H423 C433 0.930 . S
H424 C434 0.930 . S
C425 H419 0.930 . S
C425 C426 1.355 . S
C425 C427 1.415 . S
C426 C425 1.355 . S
C426 C428 1.419 . S
C427 C425 1.415 . S
C427 C432 1.425 . S
C427 C434 1.409 . S
C428 H420 0.930 . S
C428 C426 1.419 . S
C428 C429 1.362 . S
C429 H421 0.930 . S
C429 C428 1.362 . S
C429 C432 1.409 . S
C430 H422 0.930 . S
C430 C431 1.355 . S
C430 C432 1.415 . S
C431 C430 1.355 . S
C431 C433 1.419 . S
C432 C427 1.425 . S
C432 C429 1.409 . S
C432 C430 1.415 . S
C433 H423 0.930 . S
C433 C431 1.419 . S
C433 C434 1.362 . S
C434 H424 0.930 . S
C434 C427 1.409 . S
C434 C433 1.362 . S
H435 C441 0.930 . S
H436 C444 0.930 . S
H437 C445 0.930 . S
H438 C446 0.930 . S
H439 C449 0.930 . S
H440 C450 0.930 . S
C441 H435 0.930 . S
C441 C442 1.355 . S
C441 C443 1.415 . S
C442 C441 1.355 . S
C442 C444 1.419 . S
C443 C441 1.415 . S
C443 C448 1.425 . S
C443 C450 1.409 . S
C444 H436 0.930 . S
C444 C442 1.419 . S
C444 C445 1.362 . S
C445 H437 0.930 . S
C445 C444 1.362 . S
C445 C448 1.409 . S
C446 H438 0.930 . S
C446 C447 1.355 . S
C446 C448 1.415 . S
C447 C446 1.355 . S
C447 C449 1.419 . S
C448 C443 1.425 . S
C448 C445 1.409 . S
C448 C446 1.415 . S
C449 H439 0.930 . S
C449 C447 1.419 . S
C449 C450 1.362 . S
C450 H440 0.930 . S
C450 C443 1.409 . S
C450 C449 1.362 . S
H451 C457 0.930 . S
H452 C460 0.930 . S
H453 C461 0.930 . S
H454 C462 0.930 . S
H455 C465 0.930 . S
H456 C466 0.930 . S
C457 H451 0.930 . S
C457 C458 1.355 . S
C457 C459 1.415 . S
C458 C457 1.355 . S
C458 C460 1.419 . S
C459 C457 1.415 . S
C459 C464 1.425 . S
C459 C466 1.409 . S
C460 H452 0.930 . S
C460 C458 1.419 . S
C460 C461 1.362 . S
C461 H453 0.930 . S
C461 C460 1.362 . S
C461 C464 1.409 . S
C462 H454 0.930 . S
C462 C463 1.355 . S
C462 C464 1.415 . S
C463 C462 1.355 . S
C463 C465 1.419 . S
C464 C459 1.425 . S
C464 C461 1.409 . S
C464 C462 1.415 . S
C465 H455 0.930 . S
C465 C463 1.419 . S
C465 C466 1.362 . S
C466 H456 0.930 . S
C466 C459 1.409 . S
C466 C465 1.362 . S
H467 C473 0.930 . S
H468 C476 0.930 . S
H469 C477 0.930 . S
H470 C478 0.930 . S
H471 C481 0.930 . S
H472 C482 0.930 . S
C473 H467 0.930 . S
C473 C474 1.355 . S
C473 C475 1.415 . S
C474 C473 1.355 . S
C474 C476 1.419 . S
C475 C473 1.415 . S
C475 C480 1.425 . S
C475 C482 1.409 . S
C476 H468 0.930 . S
C476 C474 1.419 . S
C476 C477 1.362 . S
C477 H469 0.930 . S
C477 C476 1.362 . S
C477 C480 1.409 . S
C478 H470 0.930 . S
C478 C479 1.355 . S
C478 C480 1.415 . S
C479 C478 1.355 . S
C479 C481 1.419 . S
C480 C475 1.425 . S
C480 C477 1.409 . S
C480 C478 1.415 . S
C481 H471 0.930 . S
C481 C479 1.419 . S
C481 C482 1.362 . S
C482 H472 0.930 . S
C482 C475 1.409 . S
C482 C481 1.362 . S
H483 C489 0.930 . S
H484 C492 0.930 . S
H485 C493 0.930 . S
H486 C494 0.930 . S
H487 C497 0.930 . S
H488 C498 0.930 . S
C489 H483 0.930 . S
C489 C490 1.355 . S
C489 C491 1.415 . S
C490 C489 1.355 . S
C490 C492 1.419 . S
C491 C489 1.415 . S
C491 C496 1.425 . S
C491 C498 1.409 . S
C492 H484 0.930 . S
C492 C490 1.419 . S
C492 C493 1.362 . S
C493 H485 0.930 . S
C493 C492 1.362 . S
C493 C496 1.409 . S
C494 H486 0.930 . S
C494 C495 1.355 . S
C494 C496 1.415 . S
C495 C494 1.355 . S
C495 C497 1.419 . S
C496 C491 1.425 . S
C496 C493 1.409 . S
C496 C494 1.415 . S
C497 H487 0.930 . S
C497 C495 1.419 . S
C497 C498 1.362 . S
C498 H488 0.930 . S
C498 C491 1.409 . S
C498 C497 1.362 . S
H499 C505 0.930 . S
H500 C508 0.930 . S
H501 C509 0.930 . S
H502 C510 0.930 . S
H503 C513 0.930 . S
H504 C514 0.930 . S
C505 H499 0.930 . S
C505 C506 1.355 . S
C505 C507 1.415 . S
C506 C505 1.355 . S
C506 C508 1.419 . S
C507 C505 1.415 . S
C507 C512 1.425 . S
C507 C514 1.409 . S
C508 H500 0.930 . S
C508 C506 1.419 . S
C508 C509 1.362 . S
C509 H501 0.930 . S
C509 C508 1.362 . S
C509 C512 1.409 . S
C510 H502 0.930 . S
C510 C511 1.355 . S
C510 C512 1.415 . S
C511 C510 1.355 . S
C511 C513 1.419 . S
C512 C507 1.425 . S
C512 C509 1.409 . S
C512 C510 1.415 . S
C513 H503 0.930 . S
C513 C511 1.419 . S
C513 C514 1.362 . S
C514 H504 0.930 . S
C514 C507 1.409 . S
C514 C513 1.362 . S
H515 C521 0.930 . S
H516 C524 0.930 . S
H517 C525 0.930 . S
H518 C526 0.930 . S
H519 C529 0.930 . S
H520 C530 0.930 . S
C521 H515 0.930 . S
C521 C522 1.355 . S
C521 C523 1.415 . S
C522 C521 1.355 . S
C522 C524 1.419 . S
C523 C521 1.415 . S
C523 C528 1.425 . S
C523 C530 1.409 . S
C524 H516 0.930 . S
C524 C522 1.419 . S
C524 C525 1.362 . S
C525 H517 0.930 . S
C525 C524 1.362 . S
C525 C528 1.409 . S
C526 H518 0.930 . S
C526 C527 1.355 . S
C526 C528 1.415 . S
C527 C526 1.355 . S
C527 C529 1.419 . S
C528 C523 1.425 . S
C528 C525 1.409 . S
C528 C526 1.415 . S
C529 H519 0.930 . S
C529 C527 1.419 . S
C529 C530 1.362 . S
C530 H520 0.930 . S
C530 C523 1.409 . S
C530 C529 1.362 . S
H531 C537 0.930 . S
H532 C540 0.930 . S
H533 C541 0.930 . S
H534 C542 0.930 . S
H535 C545 0.930 . S
H536 C546 0.930 . S
C537 H531 0.930 . S
C537 C538 1.355 . S
C537 C539 1.415 . S
C538 C537 1.355 . S
C538 C540 1.419 . S
C539 C537 1.415 . S
C539 C544 1.425 . S
C539 C546 1.409 . S
C540 H532 0.930 . S
C540 C538 1.419 . S
C540 C541 1.362 . S
C541 H533 0.930 . S
C541 C540 1.362 . S
C541 C544 1.409 . S
C542 H534 0.930 . S
C542 C543 1.355 . S
C542 C544 1.415 . S
C543 C542 1.355 . S
C543 C545 1.419 . S
C544 C539 1.425 . S
C544 C541 1.409 . S
C544 C542 1.415 . S
C545 H535 0.930 . S
C545 C543 1.419 . S
C545 C546 1.362 . S
C546 H536 0.930 . S
C546 C539 1.409 . S
C546 C545 1.362 . S
H547 C553 0.930 . S
H548 C556 0.930 . S
H549 C557 0.930 . S
H550 C558 0.930 . S
H551 C561 0.930 . S
H552 C562 0.930 . S
C553 H547 0.930 . S
C553 C554 1.355 . S
C553 C555 1.415 . S
C554 C553 1.355 . S
C554 C556 1.419 . S
C555 C553 1.415 . S
C555 C560 1.425 . S
C555 C562 1.409 . S
C556 H548 0.930 . S
C556 C554 1.419 . S
C556 C557 1.362 . S
C557 H549 0.930 . S
C557 C556 1.362 . S
C557 C560 1.409 . S
C558 H550 0.930 . S
C558 C559 1.355 . S
C558 C560 1.415 . S
C559 C558 1.355 . S
C559 C561 1.419 . S
C560 C555 1.425 . S
C560 C557 1.409 . S
C560 C558 1.415 . S
C561 H551 0.930 . S
C561 C559 1.419 . S
C561 C562 1.362 . S
C562 H552 0.930 . S
C562 C555 1.409 . S
C562 C561 1.362 . S
H563 C569 0.930 . S
H564 C572 0.930 . S
H565 C573 0.930 . S
H566 C574 0.930 . S
H567 C577 0.930 . S
H568 C578 0.930 . S
C569 H563 0.930 . S
C569 C570 1.355 . S
C569 C571 1.415 . S
C570 C569 1.355 . S
C570 C572 1.419 . S
C571 C569 1.415 . S
C571 C576 1.425 . S
C571 C578 1.409 . S
C572 H564 0.930 . S
C572 C570 1.419 . S
C572 C573 1.362 . S
C573 H565 0.930 . S
C573 C572 1.362 . S
C573 C576 1.409 . S
C574 H566 0.930 . S
C574 C575 1.355 . S
C574 C576 1.415 . S
C575 C574 1.355 . S
C575 C577 1.419 . S
C576 C571 1.425 . S
C576 C573 1.409 . S
C576 C574 1.415 . S
C577 H567 0.930 . S
C577 C575 1.419 . S
C577 C578 1.362 . S
C578 H568 0.930 . S
C578 C571 1.409 . S
C578 C577 1.362 . S
H579 C585 0.930 . S
H580 C588 0.930 . S
H581 C589 0.930 . S
H582 C590 0.930 . S
H583 C593 0.930 . S
H584 C594 0.930 . S
C585 H579 0.930 . S
C585 C586 1.355 . S
C585 C587 1.415 . S
C586 C585 1.355 . S
C586 C588 1.419 . S
C587 C585 1.415 . S
C587 C592 1.425 . S
C587 C594 1.409 . S
C588 H580 0.930 . S
C588 C586 1.419 . S
C588 C589 1.362 . S
C589 H581 0.930 . S
C589 C588 1.362 . S
C589 C592 1.409 . S
C590 H582 0.930 . S
C590 C591 1.355 . S
C590 C592 1.415 . S
C591 C590 1.355 . S
C591 C593 1.419 . S
C592 C587 1.425 . S
C592 C589 1.409 . S
C592 C590 1.415 . S
C593 H583 0.930 . S
C593 C591 1.419 . S
C593 C594 1.362 . S
C594 H584 0.930 . S
C594 C587 1.409 . S
C594 C593 1.362 . S
H595 C601 0.930 . S
H596 C604 0.930 . S
H597 C605 0.930 . S
H598 C606 0.930 . S
H599 C609 0.930 . S
H600 C610 0.930 . S
C601 H595 0.930 . S
C601 C602 1.355 . S
C601 C603 1.415 . S
C602 C601 1.355 . S
C602 C604 1.419 . S
C603 C601 1.415 . S
C603 C608 1.425 . S
C603 C610 1.409 . S
C604 H596 0.930 . S
C604 C602 1.419 . S
C604 C605 1.362 . S
C605 H597 0.930 . S
C605 C604 1.362 . S
C605 C608 1.409 . S
C606 H598 0.930 . S
C606 C607 1.355 . S
C606 C608 1.415 . S
C607 C606 1.355 . S
C607 C609 1.419 . S
C608 C603 1.425 . S
C608 C605 1.409 . S
C608 C606 1.415 . S
C609 H599 0.930 . S
C609 C607 1.419 . S
C609 C610 1.362 . S
C610 H600 0.930 . S
C610 C603 1.409 . S
C610 C609 1.362 . S
H611 C617 0.930 . S
H612 C620 0.930 . S
H613 C621 0.930 . S
H614 C622 0.930 . S
H615 C625 0.930 . S
H616 C626 0.930 . S
C617 H611 0.930 . S
C617 C618 1.355 . S
C617 C619 1.415 . S
C618 C617 1.355 . S
C618 C620 1.419 . S
C619 C617 1.415 . S
C619 C624 1.425 . S
C619 C626 1.409 . S
C620 H612 0.930 . S
C620 C618 1.419 . S
C620 C621 1.362 . S
C621 H613 0.930 . S
C621 C620 1.362 . S
C621 C624 1.409 . S
C622 H614 0.930 . S
C622 C623 1.355 . S
C622 C624 1.415 . S
C623 C622 1.355 . S
C623 C625 1.419 . S
C624 C619 1.425 . S
C624 C621 1.409 . S
C624 C622 1.415 . S
C625 H615 0.930 . S
C625 C623 1.419 . S
C625 C626 1.362 . S
C626 H616 0.930 . S
C626 C619 1.409 . S
C626 C625 1.362 . S
H627 C633 0.930 . S
H628 C636 0.930 . S
H629 C637 0.930 . S
H630 C638 0.930 . S
H631 C641 0.930 . S
H632 C642 0.930 . S
C633 H627 0.930 . S
C633 C634 1.355 . S
C633 C635 1.415 . S
C634 C633 1.355 . S
C634 C636 1.419 . S
C635 C633 1.415 . S
C635 C640 1.425 . S
C635 C642 1.409 . S
C636 H628 0.930 . S
C636 C634 1.419 . S
C636 C637 1.362 . S
C637 H629 0.930 . S
C637 C636 1.362 . S
C637 C640 1.409 . S
C638 H630 0.930 . S
C638 C639 1.355 . S
C638 C640 1.415 . S
C639 C638 1.355 . S
C639 C641 1.419 . S
C640 C635 1.425 . S
C640 C637 1.409 . S
C640 C638 1.415 . S
C641 H631 0.930 . S
C641 C639 1.419 . S
C641 C642 1.362 . S
C642 H632 0.930 . S
C642 C635 1.409 . S
C642 C641 1.362 . S
H643 C649 0.930 . S
H644 C652 0.930 . S
H645 C653 0.930 . S
H646 C654 0.930 . S
H647 C657 0.930 . S
H648 C658 0.930 . S
C649 H643 0.930 . S
C649 C650 1.355 . S
C649 C651 1.415 . S
C650 C649 1.355 . S
C650 C652 1.419 . S
C651 C649 1.415 . S
C651 C656 1.425 . S
C651 C658 1.409 . S
C652 H644 0.930 . S
C652 C650 1.419 . S
C652 C653 1.362 . S
C653 H645 0.930 . S
C653 C652 1.362 . S
C653 C656 1.409 . S
C654 H646 0.930 . S
C654 C655 1.355 . S
C654 C656 1.415 . S
C655 C654 1.355 . S
C655 C657 1.419 . S
C656 C651 1.425 . S
C656 C653 1.409 . S
C656 C654 1.415 . S
C657 H647 0.930 . S
C657 C655 1.419 . S
C657 C658 1.362 . S
C658 H648 0.930 . S
C658 C651 1.409 . S
C658 C657 1.362 . S
H659 C665 0.930 . S
H660 C668 0.930 . S
H661 C669 0.930 . S
H662 C670 0.930 . S
H663 C673 0.930 . S
H664 C674 0.930 . S
C665 H659 0.930 . S
C665 C666 1.355 . S
C665 C667 1.415 . S
C666 C665 1.355 . S
C666 C668 1.419 . S
C667 C665 1.415 . S
C667 C672 1.425 . S
C667 C674 1.409 . S
C668 H660 0.930 . S
C668 C666 1.419 . S
C668 C669 1.362 . S
C669 H661 0.930 . S
C669 C668 1.362 . S
C669 C672 1.409 . S
C670 H662 0.930 . S
C670 C671 1.355 . S
C670 C672 1.415 . S
C671 C670 1.355 . S
C671 C673 1.419 . S
C672 C667 1.425 . S
C672 C669 1.409 . S
C672 C670 1.415 . S
C673 H663 0.930 . S
C673 C671 1.419 . S
C673 C674 1.362 . S
C674 H664 0.930 . S
C674 C667 1.409 . S
C674 C673 1.362 . S
H675 C681 0.930 . S
H676 C684 0.930 . S
H677 C685 0.930 . S
H678 C686 0.930 . S
H679 C689 0.930 . S
H680 C690 0.930 . S
C681 H675 0.930 . S
C681 C682 1.355 . S
C681 C683 1.415 . S
C682 C681 1.355 . S
C682 C684 1.419 . S
C683 C681 1.415 . S
C683 C688 1.425 . S
C683 C690 1.409 . S
C684 H676 0.930 . S
C684 C682 1.419 . S
C684 C685 1.362 . S
C685 H677 0.930 . S
C685 C684 1.362 . S
C685 C688 1.409 . S
C686 H678 0.930 . S
C686 C687 1.355 . S
C686 C688 1.415 . S
C687 C686 1.355 . S
C687 C689 1.419 . S
C688 C683 1.425 . S
C688 C685 1.409 . S
C688 C686 1.415 . S
C689 H679 0.930 . S
C689 C687 1.419 . S
C689 C690 1.362 . S
C690 H680 0.930 . S
C690 C683 1.409 . S
C690 C689 1.362 . S
H691 C697 0.930 . S
H692 C700 0.930 . S
H693 C701 0.930 . S
H694 C702 0.930 . S
H695 C705 0.930 . S
H696 C706 0.930 . S
C697 H691 0.930 . S
C697 C698 1.355 . S
C697 C699 1.415 . S
C698 C697 1.355 . S
C698 C700 1.419 . S
C699 C697 1.415 . S
C699 C704 1.425 . S
C699 C706 1.409 . S
C700 H692 0.930 . S
C700 C698 1.419 . S
C700 C701 1.362 . S
C701 H693 0.930 . S
C701 C700 1.362 . S
C701 C704 1.409 . S
C702 H694 0.930 . S
C702 C703 1.355 . S
C702 C704 1.415 . S
C703 C702 1.355 . S
C703 C705 1.419 . S
C704 C699 1.425 . S
C704 C701 1.409 . S
C704 C702 1.415 . S
C705 H695 0.930 . S
C705 C703 1.419 . S
C705 C706 1.362 . S
C706 H696 0.930 . S
C706 C699 1.409 . S
C706 C705 1.362 . S
H707 C713 0.930 . S
H708 C716 0.930 . S
H709 C717 0.930 . S
H710 C718 0.930 . S
H711 C721 0.930 . S
H712 C722 0.930 . S
C713 H707 0.930 . S
C713 C714 1.355 . S
C713 C715 1.415 . S
C714 C713 1.355 . S
C714 C716 1.419 . S
C715 C713 1.415 . S
C715 C720 1.425 . S
C715 C722 1.409 . S
C716 H708 0.930 . S
C716 C714 1.419 . S
C716 C717 1.362 . S
C717 H709 0.930 . S
C717 C716 1.362 . S
C717 C720 1.409 . S
C718 H710 0.930 . S
C718 C719 1.355 . S
C718 C720 1.415 . S
C719 C718 1.355 . S
C719 C721 1.419 . S
C720 C715 1.425 . S
C720 C717 1.409 . S
C720 C718 1.415 . S
C721 H711 0.930 . S
C721 C719 1.419 . S
C721 C722 1.362 . S
C722 H712 0.930 . S
C722 C715 1.409 . S
C722 C721 1.362 . S
H723 C729 0.930 . S
H724 C732 0.930 . S
H725 C733 0.930 . S
H726 C734 0.930 . S
H727 C737 0.930 . S
H728 C738 0.930 . S
C729 H723 0.930 . S
C729 C730 1.355 . S
C729 C731 1.415 . S
C730 C729 1.355 . S
C730 C732 1.419 . S
C731 C729 1.415 . S
C731 C736 1.425 . S
C731 C738 1.409 . S
C732 H724 0.930 . S
C732 C730 1.419 . S
C732 C733 1.362 . S
C733 H725 0.930 . S
C733 C732 1.362 . S
C733 C736 1.409 . S
C734 H726 0.930 . S
C734 C735 1.355 . S
C734 C736 1.415 . S
C735 C734 1.355 . S
C735 C737 1.419 . S
C736 C731 1.425 . S
C736 C733 1.409 . S
C736 C734 1.415 . S
C737 H727 0.930 . S
C737 C735 1.419 . S
C737 C738 1.362 . S
C738 H728 0.930 . S
C738 C731 1.409 . S
C738 C737 1.362 . S
H739 C745 0.930 . S
H740 C748 0.930 . S
H741 C749 0.930 . S
H742 C750 0.930 . S
H743 C753 0.930 . S
H744 C754 0.930 . S
C745 H739 0.930 . S
C745 C746 1.355 . S
C745 C747 1.415 . S
C746 C745 1.355 . S
C746 C748 1.419 . S
C747 C745 1.415 . S
C747 C752 1.425 . S
C747 C754 1.409 . S
C748 H740 0.930 . S
C748 C746 1.419 . S
C748 C749 1.362 . S
C749 H741 0.930 . S
C749 C748 1.362 . S
C749 C752 1.409 . S
C750 H742 0.930 . S
C750 C751 1.355 . S
C750 C752 1.415 . S
C751 C750 1.355 . S
C751 C753 1.419 . S
C752 C747 1.425 . S
C752 C749 1.409 . S
C752 C750 1.415 . S
C753 H743 0.930 . S
C753 C751 1.419 . S
C753 C754 1.362 . S
C754 H744 0.930 . S
C754 C747 1.409 . S
C754 C753 1.362 . S
H755 C761 0.930 . S
H756 C764 0.930 . S
H757 C765 0.930 . S
H758 C766 0.930 . S
H759 C769 0.930 . S
H760 C770 0.930 . S
C761 H755 0.930 . S
C761 C762 1.355 . S
C761 C763 1.415 . S
C762 C761 1.355 . S
C762 C764 1.419 . S
C763 C761 1.415 . S
C763 C768 1.425 . S
C763 C770 1.409 . S
C764 H756 0.930 . S
C764 C762 1.419 . S
C764 C765 1.362 . S
C765 H757 0.930 . S
C765 C764 1.362 . S
C765 C768 1.409 . S
C766 H758 0.930 . S
C766 C767 1.355 . S
C766 C768 1.415 . S
C767 C766 1.355 . S
C767 C769 1.419 . S
C768 C763 1.425 . S
C768 C765 1.409 . S
C768 C766 1.415 . S
C769 H759 0.930 . S
C769 C767 1.419 . S
C769 C770 1.362 . S
C770 H760 0.930 . S
C770 C763 1.409 . S
C770 C769 1.362 . S
H771 C777 0.930 . S
H772 C780 0.930 . S
H773 C781 0.930 . S
H774 C782 0.930 . S
H775 C785 0.930 . S
H776 C786 0.930 . S
C777 H771 0.930 . S
C777 C778 1.355 . S
C777 C779 1.415 . S
C778 C777 1.355 . S
C778 C780 1.419 . S
C779 C777 1.415 . S
C779 C784 1.425 . S
C779 C786 1.409 . S
C780 H772 0.930 . S
C780 C778 1.419 . S
C780 C781 1.362 . S
C781 H773 0.930 . S
C781 C780 1.362 . S
C781 C784 1.409 . S
C782 H774 0.930 . S
C782 C783 1.355 . S
C782 C784 1.415 . S
C783 C782 1.355 . S
C783 C785 1.419 . S
C784 C779 1.425 . S
C784 C781 1.409 . S
C784 C782 1.415 . S
C785 H775 0.930 . S
C785 C783 1.419 . S
C785 C786 1.362 . S
C786 H776 0.930 . S
C786 C779 1.409 . S
C786 C785 1.362 . S
H787 C793 0.930 . S
H788 C796 0.930 . S
H789 C797 0.930 . S
H790 C798 0.930 . S
H791 C801 0.930 . S
H792 C802 0.930 . S
C793 H787 0.930 . S
C793 C794 1.355 . S
C793 C795 1.415 . S
C794 C793 1.355 . S
C794 C796 1.419 . S
C795 C793 1.415 . S
C795 C800 1.425 . S
C795 C802 1.409 . S
C796 H788 0.930 . S
C796 C794 1.419 . S
C796 C797 1.362 . S
C797 H789 0.930 . S
C797 C796 1.362 . S
C797 C800 1.409 . S
C798 H790 0.930 . S
C798 C799 1.355 . S
C798 C800 1.415 . S
C799 C798 1.355 . S
C799 C801 1.419 . S
C800 C795 1.425 . S
C800 C797 1.409 . S
C800 C798 1.415 . S
C801 H791 0.930 . S
C801 C799 1.419 . S
C801 C802 1.362 . S
C802 H792 0.930 . S
C802 C795 1.409 . S
C802 C801 1.362 . S
C431 C344 1.175 . S
C426 C15 1.160 . S
C447 C380 1.594 . S
C442 C55 1.722 . S
C463 C345 1.466 . S
C458 C101 1.500 . S
C479 C375 1.637 . S
C474 C141 1.573 . S
C495 C342 1.479 . S
C490 C162 1.557 . S
C506 C215 1.750 . S
C511 C378 1.755 . S
C522 C261 1.199 . S
C527 C347 1.213 . S
C543 C377 1.483 . S
C538 C282 1.513 . S
C559 C381 1.551 . S
C554 C2 1.540 . S
C575 C346 1.536 . S
C570 C61 1.469 . S
C591 C374 1.778 . S
C586 C95 1.722 . S
C607 C343 1.063 . S
C602 C122 1.213 . S
C623 C376 1.659 . S
C618 C181 1.792 . S
C634 C202 1.490 . S
C639 C341 1.466 . S
C650 C242 1.573 . S
C655 C379 1.579 . S
C671 C348 1.052 . S
C666 C295 1.141 . S
C687 C410 1.749 . S
C682 C21 1.815 . S
C698 C175 1.982 . S
C703 C413 1.832 . S
C719 C412 1.849 . S
C714 C221 1.885 . S
C730 C255 2.060 . S
C735 C411 2.059 . S
C751 C414 1.694 . S
C746 C301 1.725 . S
C762 C82 1.781 . S
C767 C408 1.756 . S
C783 C407 2.087 . S
C778 C135 2.073 . S
C794 C42 1.973 . S
C799 C409 1.889 . S
