# Generated by pormake.
# Topology tph, (6,8)-cn, num edge types: 1
# Building blocks:
#     Node 0, Type 0, BuildingBlock: OJICUG_clean_sbu_0, # of connection points: 6
#     Node 1, Type 0, BuildingBlock: OJICUG_clean_sbu_0, # of connection points: 6
#     Node 2, Type 0, BuildingBlock: OJICUG_clean_sbu_0, # of connection points: 6
#     Node 3, Type 0, BuildingBlock: OJICUG_clean_sbu_0, # of connection points: 6
#     Node 4, Type 0, BuildingBlock: OJICUG_clean_sbu_0, # of connection points: 6
#     Node 5, Type 0, BuildingBlock: OJICUG_clean_sbu_0, # of connection points: 6
#     Node 6, Type 0, BuildingBlock: OJICUG_clean_sbu_0, # of connection points: 6
#     Node 7, Type 0, BuildingBlock: OJICUG_clean_sbu_0, # of connection points: 6
#     Node 8, Type 0, BuildingBlock: OJICUG_clean_sbu_0, # of connection points: 6
#     Node 9, Type 0, BuildingBlock: OJICUG_clean_sbu_0, # of connection points: 6
#     Node 10, Type 0, BuildingBlock: OJICUG_clean_sbu_0, # of connection points: 6
#     Node 11, Type 0, BuildingBlock: OJICUG_clean_sbu_0, # of connection points: 6
#     Node 12, Type 0, BuildingBlock: OJICUG_clean_sbu_0, # of connection points: 6
#     Node 13, Type 0, BuildingBlock: OJICUG_clean_sbu_0, # of connection points: 6
#     Node 14, Type 0, BuildingBlock: OJICUG_clean_sbu_0, # of connection points: 6
#     Node 15, Type 0, BuildingBlock: OJICUG_clean_sbu_0, # of connection points: 6
#     Node 16, Type 1, BuildingBlock: TAGTUT_clean_sbu_1, # of connection points: 8
#     Node 17, Type 1, BuildingBlock: TAGTUT_clean_sbu_1, # of connection points: 8
#     Node 18, Type 1, BuildingBlock: TAGTUT_clean_sbu_1, # of connection points: 8
#     Node 19, Type 1, BuildingBlock: TAGTUT_clean_sbu_1, # of connection points: 8
#     Node 20, Type 1, BuildingBlock: TAGTUT_clean_sbu_1, # of connection points: 8
#     Node 21, Type 1, BuildingBlock: TAGTUT_clean_sbu_1, # of connection points: 8
#     Node 22, Type 1, BuildingBlock: TAGTUT_clean_sbu_1, # of connection points: 8
#     Node 23, Type 1, BuildingBlock: TAGTUT_clean_sbu_1, # of connection points: 8
#     Node 24, Type 1, BuildingBlock: TAGTUT_clean_sbu_1, # of connection points: 8
#     Node 25, Type 1, BuildingBlock: TAGTUT_clean_sbu_1, # of connection points: 8
#     Node 26, Type 1, BuildingBlock: TAGTUT_clean_sbu_1, # of connection points: 8
#     Node 27, Type 1, BuildingBlock: TAGTUT_clean_sbu_1, # of connection points: 8
#     Edge 28, Type (0, 1), BuildingBlock: OJICUG_clean_linker_0, # of connection points: 2
#     Edge 29, Type (0, 1), BuildingBlock: OJICUG_clean_linker_0, # of connection points: 2
#     Edge 30, Type (0, 1), BuildingBlock: OJICUG_clean_linker_0, # of connection points: 2
#     Edge 31, Type (0, 1), BuildingBlock: OJICUG_clean_linker_0, # of connection points: 2
#     Edge 32, Type (0, 1), BuildingBlock: OJICUG_clean_linker_0, # of connection points: 2
#     Edge 33, Type (0, 1), BuildingBlock: OJICUG_clean_linker_0, # of connection points: 2
#     Edge 34, Type (0, 1), BuildingBlock: OJICUG_clean_linker_0, # of connection points: 2
#     Edge 35, Type (0, 1), BuildingBlock: OJICUG_clean_linker_0, # of connection points: 2
#     Edge 36, Type (0, 1), BuildingBlock: OJICUG_clean_linker_0, # of connection points: 2
#     Edge 37, Type (0, 1), BuildingBlock: OJICUG_clean_linker_0, # of connection points: 2
#     Edge 38, Type (0, 1), BuildingBlock: OJICUG_clean_linker_0, # of connection points: 2
#     Edge 39, Type (0, 1), BuildingBlock: OJICUG_clean_linker_0, # of connection points: 2
#     Edge 40, Type (0, 1), BuildingBlock: OJICUG_clean_linker_0, # of connection points: 2
#     Edge 41, Type (0, 1), BuildingBlock: OJICUG_clean_linker_0, # of connection points: 2
#     Edge 42, Type (0, 1), BuildingBlock: OJICUG_clean_linker_0, # of connection points: 2
#     Edge 43, Type (0, 1), BuildingBlock: OJICUG_clean_linker_0, # of connection points: 2
#     Edge 44, Type (0, 1), BuildingBlock: OJICUG_clean_linker_0, # of connection points: 2
#     Edge 45, Type (0, 1), BuildingBlock: OJICUG_clean_linker_0, # of connection points: 2
#     Edge 46, Type (0, 1), BuildingBlock: OJICUG_clean_linker_0, # of connection points: 2
#     Edge 47, Type (0, 1), BuildingBlock: OJICUG_clean_linker_0, # of connection points: 2
#     Edge 48, Type (0, 1), BuildingBlock: OJICUG_clean_linker_0, # of connection points: 2
#     Edge 49, Type (0, 1), BuildingBlock: OJICUG_clean_linker_0, # of connection points: 2
#     Edge 50, Type (0, 1), BuildingBlock: OJICUG_clean_linker_0, # of connection points: 2
#     Edge 51, Type (0, 1), BuildingBlock: OJICUG_clean_linker_0, # of connection points: 2
#     Edge 52, Type (0, 1), BuildingBlock: OJICUG_clean_linker_0, # of connection points: 2
#     Edge 53, Type (0, 1), BuildingBlock: OJICUG_clean_linker_0, # of connection points: 2
#     Edge 54, Type (0, 1), BuildingBlock: OJICUG_clean_linker_0, # of connection points: 2
#     Edge 55, Type (0, 1), BuildingBlock: OJICUG_clean_linker_0, # of connection points: 2
#     Edge 56, Type (0, 1), BuildingBlock: OJICUG_clean_linker_0, # of connection points: 2
#     Edge 57, Type (0, 1), BuildingBlock: OJICUG_clean_linker_0, # of connection points: 2
#     Edge 58, Type (0, 1), BuildingBlock: OJICUG_clean_linker_0, # of connection points: 2
#     Edge 59, Type (0, 1), BuildingBlock: OJICUG_clean_linker_0, # of connection points: 2
#     Edge 60, Type (0, 1), BuildingBlock: OJICUG_clean_linker_0, # of connection points: 2
#     Edge 61, Type (0, 1), BuildingBlock: OJICUG_clean_linker_0, # of connection points: 2
#     Edge 62, Type (0, 1), BuildingBlock: OJICUG_clean_linker_0, # of connection points: 2
#     Edge 63, Type (0, 1), BuildingBlock: OJICUG_clean_linker_0, # of connection points: 2
#     Edge 64, Type (0, 1), BuildingBlock: OJICUG_clean_linker_0, # of connection points: 2
#     Edge 65, Type (0, 1), BuildingBlock: OJICUG_clean_linker_0, # of connection points: 2
#     Edge 66, Type (0, 1), BuildingBlock: OJICUG_clean_linker_0, # of connection points: 2
#     Edge 67, Type (0, 1), BuildingBlock: OJICUG_clean_linker_0, # of connection points: 2
#     Edge 68, Type (0, 1), BuildingBlock: OJICUG_clean_linker_0, # of connection points: 2
#     Edge 69, Type (0, 1), BuildingBlock: OJICUG_clean_linker_0, # of connection points: 2
#     Edge 70, Type (0, 1), BuildingBlock: OJICUG_clean_linker_0, # of connection points: 2
#     Edge 71, Type (0, 1), BuildingBlock: OJICUG_clean_linker_0, # of connection points: 2
#     Edge 72, Type (0, 1), BuildingBlock: OJICUG_clean_linker_0, # of connection points: 2
#     Edge 73, Type (0, 1), BuildingBlock: OJICUG_clean_linker_0, # of connection points: 2
#     Edge 74, Type (0, 1), BuildingBlock: OJICUG_clean_linker_0, # of connection points: 2
#     Edge 75, Type (0, 1), BuildingBlock: OJICUG_clean_linker_0, # of connection points: 2
#     Edge 76, Type (0, 1), BuildingBlock: OJICUG_clean_linker_0, # of connection points: 2
#     Edge 77, Type (0, 1), BuildingBlock: OJICUG_clean_linker_0, # of connection points: 2
#     Edge 78, Type (0, 1), BuildingBlock: OJICUG_clean_linker_0, # of connection points: 2
#     Edge 79, Type (0, 1), BuildingBlock: OJICUG_clean_linker_0, # of connection points: 2
#     Edge 80, Type (0, 1), BuildingBlock: OJICUG_clean_linker_0, # of connection points: 2
#     Edge 81, Type (0, 1), BuildingBlock: OJICUG_clean_linker_0, # of connection points: 2
#     Edge 82, Type (0, 1), BuildingBlock: OJICUG_clean_linker_0, # of connection points: 2
#     Edge 83, Type (0, 1), BuildingBlock: OJICUG_clean_linker_0, # of connection points: 2
#     Edge 84, Type (0, 1), BuildingBlock: OJICUG_clean_linker_0, # of connection points: 2
#     Edge 85, Type (0, 1), BuildingBlock: OJICUG_clean_linker_0, # of connection points: 2
#     Edge 86, Type (0, 1), BuildingBlock: OJICUG_clean_linker_0, # of connection points: 2
#     Edge 87, Type (0, 1), BuildingBlock: OJICUG_clean_linker_0, # of connection points: 2
#     Edge 88, Type (0, 1), BuildingBlock: OJICUG_clean_linker_0, # of connection points: 2
#     Edge 89, Type (0, 1), BuildingBlock: OJICUG_clean_linker_0, # of connection points: 2
#     Edge 90, Type (0, 1), BuildingBlock: OJICUG_clean_linker_0, # of connection points: 2
#     Edge 91, Type (0, 1), BuildingBlock: OJICUG_clean_linker_0, # of connection points: 2
#     Edge 92, Type (0, 1), BuildingBlock: OJICUG_clean_linker_0, # of connection points: 2
#     Edge 93, Type (0, 1), BuildingBlock: OJICUG_clean_linker_0, # of connection points: 2
#     Edge 94, Type (0, 1), BuildingBlock: OJICUG_clean_linker_0, # of connection points: 2
#     Edge 95, Type (0, 1), BuildingBlock: OJICUG_clean_linker_0, # of connection points: 2
#     Edge 96, Type (0, 1), BuildingBlock: OJICUG_clean_linker_0, # of connection points: 2
#     Edge 97, Type (0, 1), BuildingBlock: OJICUG_clean_linker_0, # of connection points: 2
#     Edge 98, Type (0, 1), BuildingBlock: OJICUG_clean_linker_0, # of connection points: 2
#     Edge 99, Type (0, 1), BuildingBlock: OJICUG_clean_linker_0, # of connection points: 2
#     Edge 100, Type (0, 1), BuildingBlock: OJICUG_clean_linker_0, # of connection points: 2
#     Edge 101, Type (0, 1), BuildingBlock: OJICUG_clean_linker_0, # of connection points: 2
#     Edge 102, Type (0, 1), BuildingBlock: OJICUG_clean_linker_0, # of connection points: 2
#     Edge 103, Type (0, 1), BuildingBlock: OJICUG_clean_linker_0, # of connection points: 2
#     Edge 104, Type (0, 1), BuildingBlock: OJICUG_clean_linker_0, # of connection points: 2
#     Edge 105, Type (0, 1), BuildingBlock: OJICUG_clean_linker_0, # of connection points: 2
#     Edge 106, Type (0, 1), BuildingBlock: OJICUG_clean_linker_0, # of connection points: 2
#     Edge 107, Type (0, 1), BuildingBlock: OJICUG_clean_linker_0, # of connection points: 2
#     Edge 108, Type (0, 1), BuildingBlock: OJICUG_clean_linker_0, # of connection points: 2
#     Edge 109, Type (0, 1), BuildingBlock: OJICUG_clean_linker_0, # of connection points: 2
#     Edge 110, Type (0, 1), BuildingBlock: OJICUG_clean_linker_0, # of connection points: 2
#     Edge 111, Type (0, 1), BuildingBlock: OJICUG_clean_linker_0, # of connection points: 2
#     Edge 112, Type (0, 1), BuildingBlock: OJICUG_clean_linker_0, # of connection points: 2
#     Edge 113, Type (0, 1), BuildingBlock: OJICUG_clean_linker_0, # of connection points: 2
#     Edge 114, Type (0, 1), BuildingBlock: OJICUG_clean_linker_0, # of connection points: 2
#     Edge 115, Type (0, 1), BuildingBlock: OJICUG_clean_linker_0, # of connection points: 2
#     Edge 116, Type (0, 1), BuildingBlock: OJICUG_clean_linker_0, # of connection points: 2
#     Edge 117, Type (0, 1), BuildingBlock: OJICUG_clean_linker_0, # of connection points: 2
#     Edge 118, Type (0, 1), BuildingBlock: OJICUG_clean_linker_0, # of connection points: 2
#     Edge 119, Type (0, 1), BuildingBlock: OJICUG_clean_linker_0, # of connection points: 2
#     Edge 120, Type (0, 1), BuildingBlock: OJICUG_clean_linker_0, # of connection points: 2
#     Edge 121, Type (0, 1), BuildingBlock: OJICUG_clean_linker_0, # of connection points: 2
#     Edge 122, Type (0, 1), BuildingBlock: OJICUG_clean_linker_0, # of connection points: 2
#     Edge 123, Type (0, 1), BuildingBlock: OJICUG_clean_linker_0, # of connection points: 2
# Relax obj value: 0.212
# Max RMSD: 0.316
# Mean RMSD: 0.273
data_MOF--net-tph--node1-OJICUG_clean_sbu_0--node2-TAGTUT_clean_sbu_1--edge1-OJICUG_clean_linker_0
_symmetry_space_group_name_H-M    P1
_symmetry_Int_Tables_number       1
_symmetry_cell_setting            triclinic
loop_
_symmetry_equiv_pos_as_xyz
'x, y, z'
_cell_length_a     36.252191
_cell_length_b     35.960749
_cell_length_c     35.811189
_cell_angle_alpha  90.320575
_cell_angle_beta   92.015801
_cell_angle_gamma 90.064969
loop_
_atom_site_label
_atom_site_type_symbol
_atom_site_fract_x
_atom_site_fract_y
_atom_site_fract_z
_atom_type_partial_charge
Sc0 Sc 0.15013 0.19132 0.17524 0.0
Sc1 Sc 0.22062 0.12812 0.18015 0.0
Sc2 Sc 0.22229 0.20064 0.11765 0.0
O3 O 0.19863 0.17402 0.1583 0.0
C4 C 0.14561 0.21582 0.08946 0.0
C5 C 0.13539 0.10991 0.17202 0.0
C6 C 0.22858 0.1141 0.09588 0.0
C7 C 0.18975 0.1586 0.24974 0.0
C8 C 0.18877 0.26469 0.17245 0.0
C9 C 0.29143 0.17775 0.16409 0.0
O10 O 0.13374 0.21933 0.12241 0.0
O11 O 0.16662 0.10423 0.1885 0.0
O12 O 0.23765 0.14795 0.08937 0.0
O13 O 0.16048 0.16802 0.23114 0.0
O14 O 0.20449 0.25499 0.14207 0.0
O15 O 0.2772 0.14663 0.17267 0.0
O16 O 0.17455 0.24124 0.19395 0.0
O17 O 0.22004 0.15233 0.23412 0.0
O18 O 0.27272 0.20417 0.14978 0.0
O19 O 0.1275 0.14025 0.15572 0.0
O20 O 0.17405 0.19705 0.08351 0.0
O21 O 0.21906 0.10283 0.12743 0.0
Sc22 Sc 0.42927 0.63613 0.04112 0.0
Sc23 Sc 0.38696 0.55187 0.05588 0.0
Sc24 Sc 0.45511 0.58372 0.11888 0.0
O25 O 0.42609 0.58952 0.0709 0.0
C26 C 0.5133 0.62247 0.0627 0.0
C27 C 0.41915 0.56673 0.98151 0.0
C28 C 0.44772 0.50019 0.10016 0.0
C29 C 0.35194 0.62456 0.02037 0.0
C30 C 0.43076 0.66843 0.12344 0.0
C31 C 0.37102 0.56957 0.139 0.0
O32 O 0.48828 0.6335 0.03947 0.0
O33 O 0.41561 0.5413 0.00599 0.0
O34 O 0.47026 0.52696 0.10605 0.0
O35 O 0.37156 0.64162 0.04439 0.0
O36 O 0.43962 0.63739 0.13752 0.0
O37 O 0.35877 0.56735 0.10518 0.0
O38 O 0.43105 0.67456 0.0885 0.0
O39 O 0.35314 0.58932 0.01959 0.0
O40 O 0.40544 0.56607 0.14812 0.0
O41 O 0.4233 0.60133 0.99024 0.0
O42 O 0.50586 0.60477 0.09276 0.0
O43 O 0.41518 0.50591 0.08628 0.0
Sc44 Sc 0.86234 0.27567 0.22018 0.0
Sc45 Sc 0.8183 0.29812 0.13684 0.0
Sc46 Sc 0.81899 0.36126 0.20848 0.0
O47 O 0.83319 0.31173 0.18937 0.0
C48 C 0.8054 0.31008 0.27774 0.0
C49 C 0.82211 0.21847 0.17255 0.0
C50 C 0.74591 0.32522 0.16605 0.0
C51 C 0.90039 0.28262 0.14045 0.0
C52 C 0.90185 0.3512 0.24328 0.0
C53 C 0.82273 0.38508 0.12916 0.0
O54 O 0.82972 0.28562 0.27008 0.0
O55 O 0.82514 0.23871 0.14402 0.0
O56 O 0.76286 0.35256 0.18275 0.0
O57 O 0.89748 0.26509 0.17151 0.0
O58 O 0.87356 0.37158 0.23584 0.0
O59 O 0.80891 0.35428 0.1187 0.0
O60 O 0.90192 0.31635 0.23782 0.0
O61 O 0.87437 0.30142 0.12519 0.0
O62 O 0.83904 0.3887 0.16063 0.0
O63 O 0.82434 0.23218 0.2051 0.0
O64 O 0.79841 0.3379 0.25725 0.0
O65 O 0.76265 0.29745 0.15224 0.0
Sc66 Sc 0.62104 0.96339 0.0845 0.0
Sc67 Sc 0.57468 0.88985 0.03926 0.0
Sc68 Sc 0.54083 0.92793 0.12146 0.0
O69 O 0.57797 0.92782 0.0812 0.0
C70 C 0.61184 0.94464 0.17094 0.0
C71 C 0.65954 0.88912 0.06374 0.0
C72 C 0.55717 0.84113 0.10782 0.0
C73 C 0.6036 0.95646 0.99488 0.0
C74 C 0.55663 0.01624 0.10709 0.0
C75 C 0.48818 0.9034 0.0551 0.0
O76 O 0.6264 0.9633 0.1452 0.0
O77 O 0.63424 0.88259 0.03894 0.0
O78 O 0.54074 0.86759 0.12436 0.0
O79 O 0.623 0.96738 0.02344 0.0
O80 O 0.53963 0.9893 0.12255 0.0
O81 O 0.51395 0.88844 0.03672 0.0
O82 O 0.58462 0.011 0.08692 0.0
O83 O 0.57751 0.93283 -0.00248 0.0
O84 O 0.49485 0.92617 0.08189 0.0
O85 O 0.65855 0.91687 0.08572 0.0
O86 O 0.58237 0.92622 0.1657 0.0
O87 O 0.57428 0.84506 0.0779 0.0
Sc88 Sc 0.19493 0.86403 0.29709 0.0
Sc89 Sc 0.14084 0.78593 0.30254 0.0
Sc90 Sc 0.21351 0.80052 0.36461 0.0
O91 O 0.18285 0.81657 0.32093 0.0
C92 C 0.27447 0.82806 0.31933 0.0
C93 C 0.17858 0.81828 0.22831 0.0
C94 C 0.19036 0.72265 0.32504 0.0
C95 C 0.1056 0.86097 0.28689 0.0
C96 C 0.21117 0.88955 0.37344 0.0
C97 C 0.13935 0.78234 0.39364 0.0
O98 O 0.25506 0.85715 0.31174 0.0
O99 O 0.15202 0.80067 0.24345 0.0
O100 O 0.20139 0.74036 0.35454 0.0
O101 O 0.13686 0.87492 0.27867 0.0
O102 O 0.22805 0.85894 0.38076 0.0
O103 O 0.12788 0.7696 0.36144 0.0
O104 O 0.186 0.89086 0.34823 0.0
O105 O 0.10343 0.83142 0.3059 0.0
O106 O 0.16675 0.80407 0.39699 0.0
O107 O 0.20286 0.8366 0.24672 0.0
O108 O 0.25981 0.79818 0.33026 0.0
O109 O 0.17657 0.73954 0.29705 0.0
Sc110 Sc 0.06829 0.62665 0.97454 0.0
Sc111 Sc 0.04962 0.58931 0.8852 0.0
Sc112 Sc 0.1185 0.55039 0.94347 0.0
O113 O 0.0782 0.58842 0.93467 0.0
C114 C 0.15151 0.61963 0.99053 0.0
C115 C 0.06411 0.67534 0.90043 0.0
C116 C 0.13347 0.57674 0.86148 0.0
C117 C 0.98681 0.61031 0.94452 0.0
C118 C 0.08733 0.55184 0.02143 0.0
C119 C 0.05708 0.50283 0.89636 0.0
O120 O 0.12502 0.64096 0.98116 0.0
O121 O 0.06181 0.64732 0.8787 0.0
O122 O 0.14555 0.5696 0.89453 0.0
O123 O 0.00988 0.61595 0.9716 0.0
O124 O 0.09395 0.53151 0.99327 0.0
O125 O 0.03674 0.53055 0.88761 0.0
O126 O 0.07771 0.58593 0.01857 0.0
O127 O 0.99692 0.60189 0.9116 0.0
O128 O 0.0888 0.50672 0.91245 0.0
O129 O 0.06216 0.67295 0.93575 0.0
O130 O 0.15334 0.58609 0.97935 0.0
O131 O 0.099 0.57878 0.85285 0.0
Sc132 Sc 0.8705 0.70028 0.285 0.0
Sc133 Sc 0.79201 0.64706 0.2772 0.0
Sc134 Sc 0.80683 0.70529 0.35318 0.0
O135 O 0.82219 0.68491 0.3047 0.0
C136 C 0.88845 0.7003 0.37103 0.0
C137 C 0.87385 0.61646 0.27488 0.0
C138 C 0.78459 0.61993 0.35829 0.0
C139 C 0.82124 0.6886 0.21111 0.0
C140 C 0.84405 0.77415 0.31074 0.0
C141 C 0.73096 0.70057 0.31432 0.0
O142 O 0.89568 0.71278 0.3391 0.0
O143 O 0.84116 0.61614 0.26014 0.0
O144 O 0.78405 0.65292 0.37145 0.0
O145 O 0.85277 0.69039 0.22767 0.0
O146 O 0.83034 0.75951 0.33973 0.0
O147 O 0.74048 0.67218 0.29514 0.0
O148 O 0.85188 0.75545 0.28194 0.0
O149 O 0.79211 0.68088 0.22822 0.0
O150 O 0.75439 0.72205 0.33047 0.0
O151 O 0.88829 0.64498 0.29028 0.0
O152 O 0.85721 0.68724 0.37821 0.0
O153 O 0.79157 0.61243 0.32466 0.0
Sc154 Sc 0.96499 0.93321 0.88176 0.0
Sc155 Sc 0.88379 0.97015 0.91701 0.0
Sc156 Sc 0.92139 0.88871 0.95428 0.0
O157 O 0.92404 0.93173 0.91858 0.0
C158 C 0.93976 0.84891 0.88009 0.0
C159 C 0.89623 0.95265 0.83058 0.0
C160 C 0.8357 0.90016 0.93278 0.0
C161 C 0.95059 0.02077 0.89658 0.0
C162 C 0.01026 0.90201 0.94836 0.0
C163 C 0.89851 0.9542 0.00621 0.0
O164 O 0.96454 0.87318 0.87424 0.0
O165 O 0.88014 0.97015 0.85643 0.0
O166 O 0.86119 0.88567 0.95327 0.0
O167 O 0.96839 0.99389 0.8823 0.0
O168 O 0.98214 0.88361 0.95881 0.0
O169 O 0.88268 0.97127 0.97857 0.0
O170 O 0.00702 0.92904 0.92566 0.0
O171 O 0.92238 0.01579 0.91627 0.0
O172 O 0.91988 0.9263 0.00173 0.0
O173 O 0.92613 0.93497 0.83569 0.0
O174 O 0.91872 0.85085 0.90757 0.0
O175 O 0.84075 0.92902 0.91361 0.0
Sc176 Sc 0.38678 0.47006 0.41723 0.0
Sc177 Sc 0.42427 0.38825 0.45385 0.0
Sc178 Sc 0.4706 0.43573 0.38615 0.0
O179 O 0.42771 0.4327 0.42037 0.0
C180 C 0.40316 0.45113 0.33182 0.0
C181 C 0.33891 0.39875 0.43011 0.0
C182 C 0.44903 0.35336 0.38045 0.0
C183 C 0.39866 0.45272 0.5064 0.0
C184 C 0.45217 0.52242 0.39818 0.0
C185 C 0.51297 0.40618 0.45375 0.0
O186 O 0.38625 0.46968 0.35648 0.0
O187 O 0.36432 0.3835 0.45007 0.0
O188 O 0.47563 0.37621 0.38315 0.0
O189 O 0.38393 0.47063 0.47866 0.0
O190 O 0.47058 0.49605 0.38399 0.0
O191 O 0.48509 0.3857 0.461 0.0
O192 O 0.42443 0.51662 0.41828 0.0
O193 O 0.41948 0.4243 0.50218 0.0
O194 O 0.50966 0.43476 0.43292 0.0
O195 O 0.34393 0.42855 0.41235 0.0
O196 O 0.43303 0.43365 0.33857 0.0
O197 O 0.42458 0.35261 0.40491 0.0
Sc198 Sc 0.36327 0.77605 0.7178 0.0
Sc199 Sc 0.32264 0.79849 0.63285 0.0
Sc200 Sc 0.32056 0.86158 0.70426 0.0
O201 O 0.33528 0.81202 0.68592 0.0
C202 C 0.30463 0.81109 0.7734 0.0
C203 C 0.32446 0.71903 0.6689 0.0
C204 C 0.24921 0.82571 0.65849 0.0
C205 C 0.40446 0.78291 0.63993 0.0
C206 C 0.40213 0.85143 0.74204 0.0
C207 C 0.32692 0.88546 0.62561 0.0
O208 O 0.32925 0.78665 0.7666 0.0
O209 O 0.32913 0.73912 0.64053 0.0
O210 O 0.26564 0.85294 0.67592 0.0
O211 O 0.40002 0.76498 0.6705 0.0
O212 O 0.37401 0.87177 0.73383 0.0
O213 O 0.31367 0.85465 0.61446 0.0
O214 O 0.40247 0.8166 0.73645 0.0
O215 O 0.37922 0.80207 0.62382 0.0
O216 O 0.3429 0.88856 0.65728 0.0
O217 O 0.32542 0.73283 0.70146 0.0
O218 O 0.29785 0.83853 0.75229 0.0
O219 O 0.26636 0.79771 0.64569 0.0
Sc220 Sc 0.12322 0.464 0.5851 0.0
Sc221 Sc 0.07668 0.39053 0.54024 0.0
Sc222 Sc 0.0427 0.42928 0.62203 0.0
O223 O 0.07996 0.42874 0.58192 0.0
C224 C 0.11366 0.44577 0.67161 0.0
C225 C 0.1613 0.38957 0.56446 0.0
C226 C 0.05906 0.34234 0.609 0.0
C227 C 0.10541 0.45673 0.49551 0.0
C228 C 0.05922 0.51751 0.60742 0.0
C229 C 0.99027 0.404 0.55612 0.0
O230 O 0.12846 0.46415 0.64582 0.0
O231 O 0.13619 0.38359 0.53935 0.0
O232 O 0.04233 0.36889 0.62511 0.0
O233 O 0.12507 0.46757 0.52395 0.0
O234 O 0.04196 0.49074 0.62292 0.0
O235 O 0.01607 0.38874 0.53808 0.0
O236 O 0.08715 0.51195 0.58725 0.0
O237 O 0.07913 0.43337 0.49838 0.0
O238 O 0.99686 0.42752 0.58227 0.0
O239 O 0.16036 0.41713 0.58667 0.0
O240 O 0.08406 0.42756 0.6664 0.0
O241 O 0.07658 0.34608 0.57929 0.0
Sc242 Sc 0.92845 0.1354 0.54138 0.0
Sc243 Sc 0.88709 0.05089 0.55679 0.0
Sc244 Sc 0.95453 0.0843 0.61989 0.0
O245 O 0.92576 0.08909 0.57165 0.0
C246 C 0.01257 0.12258 0.56304 0.0
C247 C 0.91905 0.06527 0.4824 0.0
C248 C 0.94784 1.0004 0.603 0.0
C249 C 0.85132 0.12312 0.52093 0.0
C250 C 0.92976 0.16889 0.62317 0.0
C251 C 0.87018 0.0697 0.63945 0.0
O252 O 0.98744 0.13315 0.5397 0.0
O253 O 0.91614 0.04004 0.50719 0.0
O254 O 0.97017 0.02741 0.60841 0.0
O255 O 0.87073 0.14028 0.54502 0.0
O256 O 0.93872 0.13809 0.63764 0.0
O257 O 0.85839 0.06665 0.60555 0.0
O258 O 0.93003 0.17457 0.58817 0.0
O259 O 0.8531 0.08788 0.51995 0.0
O260 O 0.90458 0.06699 0.6491 0.0
O261 O 0.92265 0.10002 0.4908 0.0
O262 O 0.00528 0.10524 0.5934 0.0
O263 O 0.91553 0.00558 0.58826 0.0
Sc264 Sc 0.72568 0.70392 0.62094 0.0
Sc265 Sc 0.65171 0.69447 0.67666 0.0
Sc266 Sc 0.7218 0.63091 0.68263 0.0
O267 O 0.70049 0.67702 0.66054 0.0
C268 C 0.73144 0.61737 0.59866 0.0
C269 C 0.64909 0.71897 0.59055 0.0
C270 C 0.63646 0.61302 0.67315 0.0
C271 C 0.6906 0.76795 0.67467 0.0
C272 C 0.79353 0.68017 0.6692 0.0
C273 C 0.69005 0.6612 0.75174 0.0
O274 O 0.74138 0.65113 0.59281 0.0
O275 O 0.63635 0.72205 0.62323 0.0
O276 O 0.6675 0.60718 0.68992 0.0
O277 O 0.70734 0.75825 0.64489 0.0
O278 O 0.77876 0.64899 0.67661 0.0
O279 O 0.6611 0.67113 0.73285 0.0
O280 O 0.7754 0.70691 0.65468 0.0
O281 O 0.67592 0.74447 0.6958 0.0
O282 O 0.72052 0.65498 0.7365 0.0
O283 O 0.67846 0.7014 0.58516 0.0
O284 O 0.72094 0.60597 0.62981 0.0
O285 O 0.62884 0.64349 0.65697 0.0
Sc286 Sc 0.69388 0.36508 0.7982 0.0
Sc287 Sc 0.64022 0.28669 0.80363 0.0
Sc288 Sc 0.71264 0.30172 0.86564 0.0
O289 O 0.68203 0.31761 0.82194 0.0
C290 C 0.77336 0.32888 0.81975 0.0
C291 C 0.67745 0.3193 0.72944 0.0
C292 C 0.68977 0.22387 0.82608 0.0
C293 C 0.6046 0.36153 0.78832 0.0
C294 C 0.7107 0.39068 0.87427 0.0
C295 C 0.63934 0.28273 0.89468 0.0
O296 O 0.754 0.35805 0.81237 0.0
O297 O 0.65099 0.30156 0.74456 0.0
O298 O 0.70035 0.24153 0.85576 0.0
O299 O 0.63578 0.37568 0.78018 0.0
O300 O 0.72755 0.36006 0.88153 0.0
O301 O 0.62792 0.26981 0.86255 0.0
O302 O 0.68518 0.39187 0.84943 0.0
O303 O 0.60247 0.33188 0.80721 0.0
O304 O 0.66564 0.30581 0.89762 0.0
O305 O 0.70163 0.33778 0.74781 0.0
O306 O 0.75883 0.29914 0.83122 0.0
O307 O 0.67658 0.2409 0.79792 0.0
Sc308 Sc 0.56648 0.12738 0.47344 0.0
Sc309 Sc 0.5486 0.08975 0.38414 0.0
Sc310 Sc 0.6181 0.05206 0.44252 0.0
O311 O 0.57722 0.08944 0.43357 0.0
C312 C 0.6498 0.12208 0.48947 0.0
C313 C 0.56007 0.176 0.39932 0.0
C314 C 0.63275 0.07845 0.36048 0.0
C315 C 0.4855 0.1093 0.44357 0.0
C316 C 0.58665 0.05304 0.52035 0.0
C317 C 0.55758 0.00346 0.39544 0.0
O318 O 0.62296 0.14302 0.48004 0.0
O319 O 0.55914 0.14801 0.37751 0.0
O320 O 0.6449 0.07155 0.39356 0.0
O321 O 0.5085 0.11502 0.47068 0.0
O322 O 0.59384 0.03275 0.49233 0.0
O323 O 0.53685 0.03085 0.38665 0.0
O324 O 0.5768 0.08701 0.51738 0.0
O325 O 0.49571 0.10137 0.41056 0.0
O326 O 0.58923 0.00781 0.41156 0.0
O327 O 0.55845 0.17338 0.43464 0.0
O328 O 0.65214 0.08855 0.47832 0.0
O329 O 0.59825 0.08015 0.35184 0.0
Sc330 Sc 0.36799 0.20334 0.78298 0.0
Sc331 Sc 0.2902 0.14874 0.77798 0.0
Sc332 Sc 0.3072 0.2069 0.85401 0.0
O333 O 0.32081 0.18694 0.80463 0.0
C334 C 0.3899 0.20292 0.8678 0.0
C335 C 0.37225 0.11923 0.77372 0.0
C336 C 0.28506 0.12134 0.85958 0.0
C337 C 0.31728 0.18998 0.7105 0.0
C338 C 0.34143 0.27655 0.81013 0.0
C339 C 0.2299 0.20158 0.81704 0.0
O340 O 0.39512 0.21618 0.83578 0.0
O341 O 0.33907 0.11797 0.76031 0.0
O342 O 0.28596 0.15416 0.87322 0.0
O343 O 0.34893 0.19306 0.72642 0.0
O344 O 0.32918 0.26158 0.83965 0.0
O345 O 0.2392 0.17388 0.7968 0.0
O346 O 0.34806 0.25811 0.78081 0.0
O347 O 0.28872 0.18184 0.72833 0.0
O348 O 0.25339 0.2226 0.83382 0.0
O349 O 0.38695 0.1484 0.78754 0.0
O350 O 0.35911 0.19 0.87689 0.0
O351 O 0.29062 0.11415 0.82556 0.0
C352 C 0.9761 0.27091 0.00784 0.0
C353 C 0.07463 0.27771 0.96083 0.0
C354 C 0.01491 0.35328 0.84927 0.0
Mg355 Mg 0.01317 0.22802 0.94342 0.0
O356 O 0.98581 0.26185 0.91527 0.0
Mg357 Mg 0.99471 0.31593 0.9289 0.0
Mg358 Mg 1.00059 0.26234 0.86204 0.0
O359 O 0.01321 0.26319 0.80967 0.0
Mg360 Mg 0.99685 0.30146 0.7788 0.0
Mg361 Mg 1.00329 0.21037 0.79474 0.0
C362 C 0.98899 0.1731 0.87764 0.0
C363 C 0.07639 0.21581 0.84794 0.0
O364 O 0.97274 0.30002 0.98705 0.0
O365 O 0.99054 0.24049 -0.00337 0.0
O366 O 0.05146 0.30449 0.95961 0.0
O367 O 0.06792 0.24757 0.94335 0.0
O368 O 1.0008 0.17846 0.91139 0.0
O369 O 0.98169 0.20037 0.85504 0.0
C370 C 0.92436 0.30934 0.86798 0.0
O371 O 0.9431 0.28493 0.85073 0.0
O372 O 0.93701 0.32494 0.8983 0.0
O373 O 0.02936 0.22538 0.73765 0.0
O374 O 0.03465 0.28803 0.73756 0.0
O375 O 0.94696 0.22491 0.76693 0.0
C376 C 0.04118 0.2559 0.72375 0.0
O377 O 0.9453 0.28536 0.75212 0.0
O378 O 0.00601 0.35057 0.81431 0.0
C379 C 0.93243 0.25236 0.74904 0.0
O380 O 0.01842 0.3242 0.87002 0.0
O381 O 0.06116 0.24007 0.86909 0.0
O382 O 0.05879 0.20028 0.82057 0.0
C383 C 0.47958 0.77141 0.50787 0.0
C384 C 0.57725 0.77838 0.4603 0.0
C385 C 0.51643 0.85364 0.34861 0.0
Mg386 Mg 0.51602 0.72884 0.44295 0.0
O387 O 0.4881 0.76255 0.41521 0.0
Mg388 Mg 0.49694 0.81658 0.42872 0.0
Mg389 Mg 0.50222 0.76294 0.36178 0.0
O390 O 0.51418 0.76356 0.30921 0.0
Mg391 Mg 0.4978 0.80168 0.27823 0.0
Mg392 Mg 0.50381 0.71072 0.29465 0.0
C393 C 0.49026 0.67414 0.37774 0.0
C394 C 0.57768 0.71596 0.34668 0.0
O395 O 0.47567 0.80057 0.48721 0.0
O396 O 0.49407 0.74114 0.49638 0.0
O397 O 0.55396 0.8051 0.4592 0.0
O398 O 0.57074 0.74848 0.44235 0.0
O399 O 0.50281 0.6794 0.41125 0.0
O400 O 0.48294 0.70136 0.35518 0.0
C401 C 0.42587 0.80977 0.36837 0.0
O402 O 0.44465 0.78548 0.35104 0.0
O403 O 0.43869 0.8255 0.39857 0.0
O404 O 0.52923 0.72518 0.23717 0.0
O405 O 0.53542 0.78774 0.23694 0.0
O406 O 0.44719 0.72535 0.26772 0.0
C407 C 0.5414 0.75548 0.22313 0.0
O408 O 0.44615 0.78549 0.25173 0.0
O409 O 0.50726 0.8508 0.31371 0.0
C410 C 0.43297 0.75256 0.24924 0.0
O411 O 0.52016 0.82468 0.36947 0.0
O412 O 0.5629 0.74039 0.368 0.0
O413 O 0.55957 0.70039 0.31968 0.0
C414 C 0.96768 0.73934 0.50496 0.0
C415 C 0.07562 0.74929 0.53395 0.0
C416 C 0.03491 0.6701 0.65775 0.0
Mg417 Mg 0.01049 0.79328 0.55798 0.0
O418 O 0.9981 0.75762 0.59234 0.0
Mg419 Mg 0.00878 0.70381 0.58051 0.0
Mg420 Mg 0.01805 0.76059 0.64445 0.0
O421 O 0.03589 0.76131 0.69666 0.0
Mg422 Mg 0.01684 0.72304 0.72574 0.0
Mg423 Mg 0.02405 0.81386 0.71059 0.0
C424 C 0.99394 0.84893 0.62515 0.0
C425 C 0.09203 0.81144 0.65411 0.0
O426 O 0.9761 0.71266 0.52708 0.0
O427 O 0.97715 0.7732 0.51132 0.0
O428 O 0.05915 0.71953 0.54397 0.0
O429 O 0.06552 0.78143 0.54468 0.0
O430 O 0.99801 0.84268 0.59021 0.0
O431 O 0.99683 0.82241 0.64977 0.0
C432 C 0.94505 0.70833 0.64284 0.0
O433 O 0.96263 0.73543 0.65851 0.0
O434 O 0.95709 0.69164 0.61396 0.0
O435 O 0.05179 0.79794 0.77035 0.0
O436 O 0.05187 0.735 0.77203 0.0
O437 O 0.96995 0.79888 0.73697 0.0
C438 C 0.06007 0.76671 0.7864 0.0
O439 O 0.96387 0.73799 0.74682 0.0
O440 O 0.02566 0.67319 0.69192 0.0
C441 C 0.95265 0.77139 0.75057 0.0
O442 O 0.03929 0.69912 0.63732 0.0
O443 O 0.07491 0.78707 0.63335 0.0
O444 O 0.07803 0.82498 0.6836 0.0
C445 C 0.00443 0.03849 0.21609 0.0
C446 C 0.97099 0.9328 0.23907 0.0
C447 C 0.84673 0.9781 0.15718 0.0
Mg448 Mg 0.95391 0.00504 0.27474 0.0
O449 O 0.91807 0.01734 0.23918 0.0
Mg450 Mg 0.92578 1.00016 0.18664 0.0
Mg451 Mg 0.86698 0.99882 0.245 0.0
O452 O 0.81574 0.98315 0.24905 0.0
Mg453 Mg 0.78068 0.99622 0.21205 0.0
Mg454 Mg 0.80589 0.99685 0.30164 0.0
C455 C 0.89166 0.02739 0.33018 0.0
C456 C 0.86329 0.92876 0.30015 0.0
O457 O 0.98029 0.02992 0.19062 0.0
O458 O 1.00015 0.03216 0.25085 0.0
O459 O 0.96147 0.94748 0.20741 0.0
O460 O 0.96207 0.9475 0.26976 0.0
O461 O 0.92581 0.02267 0.32336 0.0
O462 O 0.86558 0.02366 0.30482 0.0
C463 C 0.86443 0.06743 0.1883 0.0
O464 O 0.85108 0.05149 0.21661 0.0
O465 O 0.89239 0.05401 0.17154 0.0
O466 O 0.74707 0.96715 0.28878 0.0
O467 O 0.74625 0.95246 0.22738 0.0
O468 O 0.77815 0.05179 0.28718 0.0
C469 C 0.73239 0.95056 0.25965 0.0
O470 O 0.7479 0.04338 0.23256 0.0
O471 O 0.81297 0.9885 0.1608 0.0
C472 C 0.75168 0.05995 0.26427 0.0
O473 O 0.86859 0.97316 0.18586 0.0
O474 O 0.88123 0.94414 0.27404 0.0
O475 O 0.83473 0.94359 0.31392 0.0
C476 C 0.25828 0.99333 0.94934 0.0
C477 C 0.20918 0.96865 0.04105 0.0
C478 C 0.15899 0.84291 0.9759 0.0
Mg479 Mg 0.27737 0.94194 0.01747 0.0
O480 O 0.25676 0.9075 0.98433 0.0
Mg481 Mg 0.20611 0.91885 0.96145 0.0
Mg482 Mg 0.24841 0.85579 0.00261 0.0
O483 O 0.24054 0.80468 0.01682 0.0
Mg484 Mg 0.21247 0.77289 0.98647 0.0
Mg485 Mg 0.29111 0.79067 0.03467 0.0
C486 C 0.33441 0.87544 0.03071 0.0
C487 C 0.24724 0.84167 0.09187 0.0
O488 O 0.2328 0.97075 0.93786 0.0
O489 O 0.27798 0.98821 0.97932 0.0
O490 O 0.19187 0.96024 0.01033 0.0
O491 O 0.23365 0.94668 0.05412 0.0
O492 O 0.32579 0.90997 0.03285 0.0
O493 O 0.31128 0.8506 0.01762 0.0
C494 C 0.24491 0.85248 0.91267 0.0
O495 O 0.25799 0.83923 0.94321 0.0
O496 O 0.22398 0.88127 0.91215 0.0
O497 O 0.26488 0.73289 0.05169 0.0
O498 O 0.20573 0.7353 0.03023 0.0
O499 O 0.30405 0.76399 0.97836 0.0
C500 C 0.23162 0.72005 0.0499 0.0
O501 O 0.25102 0.74198 0.95277 0.0
O502 O 0.1636 0.8076 0.9722 0.0
C503 C 0.28635 0.74146 0.95632 0.0
O504 O 0.1858 0.86397 0.98752 0.0
O505 O 0.23687 0.86453 0.06584 0.0
O506 O 0.27162 0.81663 0.08681 0.0
C507 C 1.00057 0.52641 0.26664 0.0
C508 C 0.04076 0.4226 0.27653 0.0
C509 C 0.15974 0.48314 0.3467 0.0
Mg510 Mg 0.05887 0.48081 0.22402 0.0
O511 O 0.08999 0.50798 0.25605 0.0
Mg512 Mg 0.07991 0.50299 0.31079 0.0
Mg513 Mg 0.14303 0.49324 0.25556 0.0
O514 O 0.1953 0.48081 0.25617 0.0
Mg515 Mg 0.22808 0.49854 0.29355 0.0
Mg516 Mg 0.20634 0.49175 0.20324 0.0
C517 C 0.12136 0.50142 0.16771 0.0
C518 C 0.15816 0.4174 0.2065 0.0
O519 O 0.02283 0.52844 0.29547 0.0
O520 O 0.0089 0.50986 0.23628 0.0
O521 O 0.04689 0.44714 0.30205 0.0
O522 O 0.05449 0.42599 0.24459 0.0
O523 O 0.08888 0.48944 0.1742 0.0
O524 O 0.14485 0.51085 0.19408 0.0
C525 C 0.1395 0.57195 0.30203 0.0
O526 O 0.15481 0.55209 0.27722 0.0
O527 O 0.11083 0.56022 0.31858 0.0
O528 O 0.26612 0.46816 0.21895 0.0
O529 O 0.26665 0.45683 0.28094 0.0
O530 O 0.2263 0.55036 0.21739 0.0
C531 C 0.28081 0.45357 0.24881 0.0
O532 O 0.25814 0.54614 0.27134 0.0
O533 O 0.19385 0.4927 0.34375 0.0
C534 C 0.25343 0.56032 0.2388 0.0
O535 O 0.13863 0.47703 0.31767 0.0
O536 O 0.13707 0.4317 0.23133 0.0
O537 O 0.18462 0.43549 0.19262 0.0
C538 C 0.77482 0.51645 0.05274 0.0
C539 C 0.75156 0.53021 0.9392 0.0
C540 C 0.83558 0.65804 0.96514 0.0
Mg541 Mg 0.71616 0.56175 0.00839 0.0
O542 O 0.75199 0.59768 0.00826 0.0
Mg543 Mg 0.80434 0.58445 -0.00188 0.0
Mg544 Mg 0.74743 0.64725 0.98467 0.0
O545 O 0.74632 0.69769 0.96463 0.0
Mg546 Mg 0.78535 0.72819 0.98161 0.0
Mg547 Mg 0.69532 0.7133 0.97667 0.0
C548 C 0.66401 0.63199 0.02057 0.0
C549 C 0.69521 0.65143 0.91001 0.0
O550 O 0.79997 0.53539 0.03746 0.0
O551 O 0.74036 0.52263 0.04691 0.0
O552 O 0.78318 0.54317 0.95053 0.0
O553 O 0.72149 0.5385 0.95478 0.0
O554 O 0.67059 0.59701 0.02285 0.0
O555 O 0.68761 0.65502 0.00681 0.0
C556 C 0.80197 0.65334 0.05728 0.0
O557 O 0.77441 0.66637 0.03851 0.0
O558 O 0.81897 0.62388 0.04714 0.0
O559 O 0.71204 0.77065 0.94654 0.0
O560 O 0.77396 0.7686 0.94123 0.0
O561 O 0.71136 0.74361 0.03059 0.0
C562 C 0.74275 0.78418 0.93491 0.0
O563 O 0.77138 0.75764 0.03252 0.0
O564 O 0.83363 0.69262 0.97411 0.0
C565 C 0.73907 0.76078 0.04542 0.0
O566 O 0.80655 0.63739 0.96241 0.0
O567 O 0.71897 0.63141 0.9284 0.0
O568 O 0.68273 0.68209 0.92296 0.0
C569 C 0.27401 0.01732 0.55372 0.0
C570 C 0.25051 0.02897 0.43997 0.0
C571 C 0.33465 0.1572 0.46449 0.0
Mg572 Mg 0.21496 0.06158 0.50893 0.0
O573 O 0.25055 0.09763 0.50717 0.0
Mg574 Mg 0.30303 0.08442 0.49785 0.0
Mg575 Mg 0.24624 0.14718 0.48341 0.0
O576 O 0.24582 0.19758 0.46323 0.0
Mg577 Mg 0.28505 0.22733 0.48141 0.0
Mg578 Mg 0.19493 0.21371 0.47475 0.0
C579 C 0.16295 0.13256 0.51973 0.0
C580 C 0.19511 0.1514 0.4083 0.0
O581 O 0.29877 0.036 0.53761 0.0
O582 O 0.23945 0.02334 0.54841 0.0
O583 O 0.28208 0.04258 0.45064 0.0
O584 O 0.22053 0.03689 0.45594 0.0
O585 O 0.1697 0.09764 0.52271 0.0
O586 O 0.18625 0.1554 0.5051 0.0
C587 C 0.2997 0.15358 0.55657 0.0
O588 O 0.2724 0.16642 0.53735 0.0
O589 O 0.3171 0.12425 0.54674 0.0
O590 O 0.21284 0.27093 0.44456 0.0
O591 O 0.27504 0.26866 0.44183 0.0
O592 O 0.21068 0.24421 0.52875 0.0
C593 C 0.24412 0.2843 0.43417 0.0
O594 O 0.27114 0.25604 0.53261 0.0
O595 O 0.33308 0.19169 0.47381 0.0
C596 C 0.23859 0.26016 0.54461 0.0
O597 O 0.30545 0.13686 0.46166 0.0
O598 O 0.21843 0.13123 0.42707 0.0
O599 O 0.18275 0.18226 0.42092 0.0
C600 C 0.50566 0.5391 0.71462 0.0
C601 C 0.47091 0.43366 0.73928 0.0
C602 C 0.34715 0.47841 0.65702 0.0
Mg603 Mg 0.45483 0.50676 0.77376 0.0
O604 O 0.41906 0.51863 0.73803 0.0
Mg605 Mg 0.42666 0.50058 0.68577 0.0
Mg606 Mg 0.36793 0.50036 0.74429 0.0
O607 O 0.31671 0.48498 0.74879 0.0
Mg608 Mg 0.28123 0.49702 0.71189 0.0
Mg609 Mg 0.30705 0.49949 0.80115 0.0
C610 C 0.39286 0.53032 0.82887 0.0
C611 C 0.36383 0.4309 0.8004 0.0
O612 O 0.48159 0.5303 0.68911 0.0
O613 O 0.50117 0.53319 0.74942 0.0
O614 O 0.46168 0.44796 0.70738 0.0
O615 O 0.46233 0.44908 0.76974 0.0
O616 O 0.42701 0.52552 0.82213 0.0
O617 O 0.36679 0.52596 0.80365 0.0
C618 C 0.36564 0.56805 0.68642 0.0
O619 O 0.35224 0.55268 0.71504 0.0
O620 O 0.39354 0.55425 0.66989 0.0
O621 O 0.24817 0.46967 0.78905 0.0
O622 O 0.24789 0.45281 0.72825 0.0
O623 O 0.28002 0.55446 0.7853 0.0
C624 C 0.23381 0.45192 0.76047 0.0
O625 O 0.2477 0.54368 0.7324 0.0
O626 O 0.31339 0.48879 0.66066 0.0
C627 C 0.25216 0.56105 0.76361 0.0
O628 O 0.36921 0.4739 0.68563 0.0
O629 O 0.38181 0.4459 0.77408 0.0
O630 O 0.33553 0.44619 0.81424 0.0
C631 C 0.76237 0.49267 0.44997 0.0
C632 C 0.7146 0.47167 0.54353 0.0
C633 C 0.66115 0.3454 0.47971 0.0
Mg634 Mg 0.78182 0.44263 0.51892 0.0
O635 O 0.75965 0.40776 0.48745 0.0
Mg636 Mg 0.70922 0.4198 0.46471 0.0
Mg637 Mg 0.75063 0.35643 0.5063 0.0
O638 O 0.74189 0.30551 0.52055 0.0
Mg639 Mg 0.71361 0.27469 0.48937 0.0
Mg640 Mg 0.79225 0.29044 0.53796 0.0
C641 C 0.83727 0.37485 0.53294 0.0
C642 C 0.74936 0.34235 0.59524 0.0
O643 O 0.73632 0.47033 0.4396 0.0
O644 O 0.78265 0.48794 0.47963 0.0
O645 O 0.69697 0.46275 0.5131 0.0
O646 O 0.73947 0.45018 0.5567 0.0
O647 O 0.82954 0.40965 0.53411 0.0
O648 O 0.81338 0.35018 0.521 0.0
C649 C 0.74643 0.35205 0.4166 0.0
O650 O 0.75969 0.33924 0.44722 0.0
O651 O 0.72569 0.38098 0.41578 0.0
O652 O 0.76457 0.23297 0.55444 0.0
O653 O 0.70564 0.23705 0.5326 0.0
O654 O 0.8049 0.26341 0.48168 0.0
C655 C 0.73101 0.2209 0.55218 0.0
O656 O 0.75148 0.24301 0.45559 0.0
O657 O 0.66536 0.31013 0.47526 0.0
C658 C 0.78676 0.2416 0.45925 0.0
O659 O 0.68814 0.36592 0.4918 0.0
O660 O 0.7396 0.36562 0.56936 0.0
O661 O 0.77326 0.31684 0.59011 0.0
C662 C 0.49762 0.02721 0.76797 0.0
C663 C 0.53964 0.92388 0.77742 0.0
C664 C 0.65749 0.98531 0.84626 0.0
Mg665 Mg 0.55597 0.98223 0.72475 0.0
O666 O 0.58674 0.01016 0.75642 0.0
Mg667 Mg 0.57747 0.00482 0.81131 0.0
Mg668 Mg 0.63978 0.99595 0.75523 0.0
O669 O 0.69199 0.9843 0.75499 0.0
Mg670 Mg 0.72442 0.00261 0.7923 0.0
Mg671 Mg 0.7022 0.99579 0.70187 0.0
C672 C 0.61724 0.00408 0.66778 0.0
C673 C 0.65538 0.92048 0.70568 0.0
O674 O 0.52015 0.02979 0.79655 0.0
O675 O 0.50577 0.01036 0.73771 0.0
O676 O 0.54513 0.94869 0.80278 0.0
O677 O 0.55347 0.92739 0.74556 0.0
O678 O 0.58506 0.99143 0.67446 0.0
O679 O 0.64065 0.01405 0.69397 0.0
C680 C 0.63641 0.07421 0.80229 0.0
O681 O 0.65131 0.05461 0.77706 0.0
O682 O 0.60803 0.06228 0.81919 0.0
O683 O 0.76171 0.97234 0.7161 0.0
O684 O 0.76266 0.96145 0.77826 0.0
O685 O 0.72242 0.05442 0.71659 0.0
C686 C 0.77627 0.95768 0.74589 0.0
O687 O 0.7545 0.05006 0.77038 0.0
O688 O 0.69137 0.99555 0.84314 0.0
C689 C 0.75013 0.06374 0.7376 0.0
O690 O 0.63629 0.97927 0.81731 0.0
O691 O 0.63451 0.93432 0.73096 0.0
O692 O 0.68095 0.93929 0.6911 0.0
C693 C 0.47685 0.23633 -0.00199 0.0
C694 C 0.58173 0.24506 0.03619 0.0
C695 C 0.5282 0.16847 0.15619 0.0
Mg696 Mg 0.51647 0.29079 0.05346 0.0
O697 O 0.5001 0.25592 0.08695 0.0
Mg698 Mg 0.51037 0.2015 0.07721 0.0
Mg699 Mg 0.51496 0.25916 0.14054 0.0
O700 O 0.52692 0.25978 0.19404 0.0
Mg701 Mg 0.50292 0.22192 0.22127 0.0
Mg702 Mg 0.51178 0.31205 0.20473 0.0
C703 C 0.4939 0.34754 0.11712 0.0
C704 C 0.5878 0.30983 0.15972 0.0
O705 O 0.48238 0.20999 0.02133 0.0
O706 O 0.48707 0.26998 0.00439 0.0
O707 O 0.56343 0.21589 0.04455 0.0
O708 O 0.57267 0.27724 0.0477 0.0
O709 O 0.50124 0.34131 0.08284 0.0
O710 O 0.49469 0.32103 0.14169 0.0
C711 C 0.44178 0.20771 0.13344 0.0
O712 O 0.45843 0.23515 0.14932 0.0
O713 O 0.45572 0.19 0.10617 0.0
O714 O 0.5316 0.29617 0.26774 0.0
O715 O 0.53564 0.23335 0.26912 0.0
O716 O 0.45301 0.2914 0.21304 0.0
C717 C 0.54087 0.26536 0.28411 0.0
O718 O 0.45001 0.23891 0.24296 0.0
O719 O 0.51434 0.17182 0.1886 0.0
C720 C 0.44187 0.2733 0.24082 0.0
O721 O 0.53582 0.19729 0.13652 0.0
O722 O 0.57281 0.28573 0.13691 0.0
O723 O 0.5704 0.32381 0.18721 0.0
C724 C 0.03314 0.28185 0.62815 0.0
C725 C 0.06246 0.30724 0.62893 0.0
H726 H 0.0057 0.23964 0.65857 0.0
C727 C 0.0919 0.30293 0.65492 0.0
H728 H 0.01034 0.28475 0.60799 0.0
C729 C 0.08922 0.27718 0.68358 0.0
C730 C 0.05662 0.2566 0.68677 0.0
H731 H 0.1147 0.32247 0.65588 0.0
H732 H 0.10943 0.27827 0.7066 0.0
C733 C 0.03082 0.25568 0.65665 0.0
C734 C 0.60241 0.76313 0.56115 0.0
C735 C 0.63239 0.73877 0.5579 0.0
H736 H 0.56213 0.79688 0.53211 0.0
C737 C 0.64821 0.73448 0.52269 0.0
H738 H 0.5901 0.7677 0.58791 0.0
C739 C 0.6329 0.75177 0.49114 0.0
C740 C 0.60137 0.77388 0.49383 0.0
H741 H 0.67183 0.71657 0.51901 0.0
H742 H 0.64404 0.74557 0.46411 0.0
C743 C 0.58706 0.78065 0.52934 0.0
C744 C 0.92824 0.23449 0.64807 0.0
C745 C 0.91652 0.19744 0.64933 0.0
H746 H 0.94038 0.28347 0.68032 0.0
C747 C 0.89649 0.18553 0.68007 0.0
H748 H 0.94283 0.24463 0.62428 0.0
C749 C 0.89437 0.20783 0.71187 0.0
C750 C 0.91288 0.24206 0.71357 0.0
H751 H 0.88576 0.15741 0.68107 0.0
H752 H 0.88331 0.1959 0.73686 0.0
C753 C 0.92621 0.25692 0.68015 0.0
C754 C 0.45148 0.80925 0.60079 0.0
C755 C 0.43669 0.7774 0.61721 0.0
H756 H 0.4755 0.83249 0.55249 0.0
C757 C 0.44199 0.74257 0.60054 0.0
H758 H 0.44735 0.83646 0.61315 0.0
C759 C 0.45781 0.7403 0.56553 0.0
C760 C 0.46802 0.7729 0.54687 0.0
H761 H 0.43021 0.71776 0.61238 0.0
H762 H 0.45937 0.71341 0.5519 0.0
C763 C 0.46663 0.80711 0.56567 0.0
C764 C 0.10252 0.71512 0.86123 0.0
C765 C 0.07126 0.71158 0.88298 0.0
H766 H 0.12538 0.74042 0.81341 0.0
C767 C 0.04371 0.7389 0.88041 0.0
H768 H 0.12428 0.69449 0.86302 0.0
C769 C 0.04473 0.76577 0.85214 0.0
C770 C 0.07263 0.7646 0.82578 0.0
H771 H 0.01938 0.73679 0.897 0.0
H772 H 0.02059 0.78297 0.84704 0.0
C773 C 0.10353 0.74199 0.83326 0.0
C774 C 0.91224 0.68465 0.4339 0.0
C775 C 0.91334 0.7079 0.40278 0.0
H776 H 0.92792 0.677 0.49104 0.0
C777 C 0.93324 0.74137 0.40481 0.0
H778 H 0.89681 0.6588 0.4328 0.0
C779 C 0.95059 0.75222 0.43842 0.0
C780 C 0.94844 0.72941 0.46991 0.0
H781 H 0.93383 0.75993 0.3811 0.0
H782 H 0.96555 0.77832 0.43976 0.0
C783 C 0.92971 0.69527 0.46721 0.0
C784 C 0.91559 0.83763 0.81598 0.0
C785 C 0.93039 0.82293 0.84938 0.0
H786 H 0.90679 0.83021 0.75724 0.0
C787 C 0.94016 0.78529 0.85074 0.0
H788 H 0.90828 0.86663 0.81439 0.0
C789 C 0.94009 0.76427 0.81757 0.0
C790 C 0.93052 0.78108 0.78301 0.0
H791 H 0.95138 0.77333 0.87641 0.0
H792 H 0.95271 0.73698 0.81841 0.0
C793 C 0.91443 0.81652 0.78328 0.0
C794 C 0.09727 0.74186 0.4321 0.0
C795 C 0.12421 0.76979 0.42971 0.0
H796 H 0.06146 0.71204 0.46812 0.0
C797 C 0.13912 0.78538 0.46333 0.0
H798 H 0.08566 0.72879 0.40702 0.0
C799 C 0.1262 0.77515 0.4979 0.0
C800 C 0.09791 0.74899 0.50027 0.0
H801 H 0.16033 0.8066 0.46321 0.0
H802 H 0.13672 0.78955 0.52275 0.0
C803 C 0.08418 0.73157 0.46717 0.0
C804 C 0.65381 0.07189 0.29396 0.0
C805 C 0.66051 0.08355 0.33118 0.0
H806 H 0.67782 0.05664 0.24203 0.0
C807 C 0.69571 0.09737 0.34143 0.0
H808 H 0.6268 0.06167 0.28496 0.0
C809 C 0.72461 0.09536 0.31669 0.0
C810 C 0.71941 0.07848 0.2813 0.0
H811 H 0.70156 0.10775 0.36949 0.0
H812 H 0.75198 0.10345 0.32687 0.0
C813 C 0.68306 0.06944 0.26915 0.0
C814 C 0.28643 0.09027 0.92188 0.0
C815 C 0.27677 0.08977 0.88359 0.0
H816 H 0.28859 0.05943 0.97295 0.0
C817 C 0.26044 0.05783 0.86747 0.0
H818 H 0.29917 0.1146 0.93483 0.0
C819 C 0.25427 0.02667 0.88904 0.0
C820 C 0.26473 0.02664 0.92708 0.0
H821 H 0.25248 0.05685 0.83803 0.0
H822 H 0.24183 0.00236 0.87572 0.0
C823 C 0.28072 0.0587 0.94348 0.0
C824 C 0.37692 0.47112 0.27013 0.0
C825 C 0.38252 0.44322 0.29686 0.0
H826 H 0.33981 0.49303 0.22804 0.0
C827 C 0.36024 0.41132 0.29537 0.0
H828 H 0.39402 0.49586 0.27077 0.0
C829 C 0.32859 0.41055 0.27206 0.0
C830 C 0.31945 0.44157 0.24999 0.0
H831 H 0.36432 0.38943 0.31581 0.0
H832 H 0.30853 0.38863 0.27578 0.0
C833 C 0.34603 0.46945 0.24565 0.0
C834 C 0.70657 0.45985 0.87693 0.0
C835 C 0.72484 0.42704 0.88848 0.0
H836 H 0.70232 0.51886 0.88243 0.0
C837 C 0.75706 0.43016 0.91129 0.0
H838 H 0.68203 0.45887 0.8588 0.0
C839 C 0.76914 0.46521 0.92422 0.0
C840 C 0.74915 0.4975 0.9145 0.0
H841 H 0.7722 0.40558 0.92005 0.0
H842 H 0.79224 0.46671 0.94422 0.0
C843 C 0.71859 0.49452 0.88972 0.0
C844 C 0.65426 0.90744 0.2115 0.0
C845 C 0.63333 0.9399 0.20623 0.0
H846 H 0.7033 0.88416 0.23674 0.0
C847 C 0.6387 0.96979 0.23114 0.0
H848 H 0.65034 0.88395 0.19268 0.0
C849 C 0.66781 0.96892 0.25793 0.0
C850 C 0.6933 0.93953 0.25798 0.0
H851 H 0.62252 0.99495 0.22783 0.0
H852 H 0.67398 0.9938 0.27403 0.0
C853 C 0.68411 0.90722 0.23736 0.0
C854 C 0.19469 0.07322 0.05124 0.0
C855 C 0.22888 0.08454 0.06749 0.0
H856 H 0.16119 0.02753 0.03062 0.0
C857 C 0.25735 0.0584 0.0709 0.0
H858 H 0.17182 0.09259 0.04951 0.0
C859 C 0.25079 0.02109 0.06195 0.0
C860 C 0.21564 0.00894 0.04874 0.0
H861 H 0.28355 0.06603 0.08436 0.0
H862 H 0.27316 1.00156 0.0667 0.0
C863 C 0.18822 0.03578 0.04156 0.0
C864 C 0.30832 0.58965 0.1579 0.0
C865 C 0.34343 0.57573 0.1683 0.0
H866 H 0.25257 0.59817 0.17316 0.0
C867 C 0.3507 0.56692 0.20607 0.0
H868 H 0.30206 0.59837 0.12947 0.0
C869 C 0.32198 0.56709 0.23154 0.0
C870 C 0.28563 0.57608 0.21953 0.0
H871 H 0.37775 0.55718 0.21531 0.0
H872 H 0.32756 0.55645 0.2594 0.0
C873 C 0.27995 0.59017 0.18324 0.0
C874 C 0.83313 0.45093 0.1111 0.0
C875 C 0.81152 0.4186 0.10884 0.0
H876 H 0.83818 0.50784 0.09477 0.0
C877 C 0.77713 0.41923 0.08954 0.0
H878 H 0.85956 0.45106 0.12622 0.0
C879 C 0.76446 0.45173 0.07275 0.0
C880 C 0.78633 0.48386 0.07432 0.0
H881 H 0.75961 0.39479 0.08803 0.0
H882 H 0.73803 0.4514 0.05763 0.0
C883 C 0.82081 0.48329 0.09347 0.0
C884 C 0.30353 0.64179 0.97113 0.0
C885 C 0.33901 0.64615 0.98725 0.0
H886 H 0.25713 0.67059 0.94637 0.0
C887 C 0.36052 0.67634 0.97585 0.0
H888 H 0.28744 0.61744 0.9774 0.0
C889 C 0.34431 0.7055 0.95575 0.0
C890 C 0.30588 0.70591 0.9491 0.0
H891 H 0.38893 0.67934 0.98587 0.0
H892 H 0.36051 0.73043 0.9518 0.0
C893 C 0.28656 0.672 0.95254 0.0
C894 C 0.2787 0.37621 0.45363 0.0
C895 C 0.30354 0.37872 0.42458 0.0
H896 H 0.23463 0.34513 0.47673 0.0
C897 C 0.29722 0.35714 0.39221 0.0
H898 H 0.28285 0.39287 0.47874 0.0
C899 C 0.26981 0.32959 0.39126 0.0
C900 C 0.24851 0.32325 0.42272 0.0
H901 H 0.31594 0.35883 0.36934 0.0
H902 H 0.26922 0.3097 0.3684 0.0
C903 C 0.25057 0.34937 0.45211 0.0
C904 C 0.53539 0.3664 0.78657 0.0
C905 C 0.56949 0.3775 0.77253 0.0
H906 H 0.47677 0.37449 0.78571 0.0
C907 C 0.56925 0.40203 0.74202 0.0
H908 H 0.53433 0.34715 0.80966 0.0
C909 C 0.53589 0.41665 0.72738 0.0
C910 C 0.50211 0.40739 0.74319 0.0
H911 H 0.59488 0.41054 0.72994 0.0
H912 H 0.53686 0.43756 0.70576 0.0
C913 C 0.50222 0.38137 0.7723 0.0
C914 C 0.66155 0.15577 0.54929 0.0
C915 C 0.67566 0.13606 0.51895 0.0
H916 H 0.67265 0.19662 0.59156 0.0
C917 C 0.71396 0.13269 0.51646 0.0
H918 H 0.63208 0.15704 0.55326 0.0
C919 C 0.73723 0.1553 0.53914 0.0
C920 C 0.72172 0.1825 0.56205 0.0
H921 H 0.72536 0.1157 0.49471 0.0
H922 H 0.76627 0.15666 0.53366 0.0
C923 C 0.68502 0.1774 0.57222 0.0
C924 C 0.91791 0.5741 0.30546 0.0
C925 C 0.8982 0.58431 0.27272 0.0
H926 H 0.96594 0.54799 0.32919 0.0
C927 C 0.90949 0.57121 0.23806 0.0
H928 H 0.90962 0.58426 0.33247 0.0
C929 C 0.94215 0.55072 0.23605 0.0
C930 C 0.96379 0.54354 0.26869 0.0
H931 H 0.89495 0.57946 0.21248 0.0
H932 H 0.95154 0.54254 0.20883 0.0
C933 C 0.95045 0.55393 0.3035 0.0
C934 C 0.17563 0.32653 0.58765 0.0
C935 C 0.18818 0.35957 0.57178 0.0
H936 H 0.18396 0.26805 0.59406 0.0
C937 C 0.22386 0.36082 0.55799 0.0
H938 H 0.14825 0.32509 0.59862 0.0
C939 C 0.24474 0.32805 0.55581 0.0
C940 C 0.22963 0.29372 0.56656 0.0
H941 H 0.2341 0.38612 0.54572 0.0
H942 H 0.27021 0.32885 0.54087 0.0
C943 C 0.19635 0.29395 0.58551 0.0
C944 C 0.57427 0.58864 0.65667 0.0
C945 C 0.60553 0.58865 0.68081 0.0
H946 H 0.5178 0.57312 0.64878 0.0
C947 C 0.60461 0.57019 0.71519 0.0
H948 H 0.57449 0.60277 0.63003 0.0
C949 C 0.57201 0.55389 0.72629 0.0
C950 C 0.54024 0.55542 0.70287 0.0
H951 H 0.62836 0.57018 0.73442 0.0
H952 H 0.57157 0.5406 0.75335 0.0
C953 C 0.54187 0.57195 0.66755 0.0
C954 C 0.47086 0.84979 0.75051 0.0
C955 C 0.43725 0.86826 0.75658 0.0
H956 H 0.52998 0.85279 0.753 0.0
C957 C 0.4382 0.90254 0.77551 0.0
H958 H 0.47124 0.8233 0.73597 0.0
C959 C 0.47212 0.9187 0.78657 0.0
C960 C 0.50568 0.90128 0.7781 0.0
H961 H 0.41287 0.91728 0.78086 0.0
H962 H 0.47209 0.94622 0.79904 0.0
C963 C 0.50463 0.86634 0.76067 0.0
C964 C 0.59096 0.80218 0.15337 0.0
C965 C 0.56118 0.80607 0.12771 0.0
H966 H 0.60933 0.77803 0.205 0.0
C967 C 0.53213 0.78039 0.12741 0.0
H968 H 0.61352 0.82199 0.15401 0.0
C969 C 0.53038 0.7544 0.15614 0.0
C970 C 0.55647 0.75583 0.18599 0.0
H971 H 0.50906 0.78296 0.10752 0.0
H972 H 0.50549 0.7381 0.15848 0.0
C973 C 0.58888 0.77658 0.18222 0.0
C974 C 0.14581 0.23374 0.02231 0.0
C975 C 0.12952 0.23689 0.0574 0.0
H976 H 0.14205 0.24631 0.96404 0.0
C977 C 0.09955 0.26117 0.06112 0.0
H978 H 0.16952 0.21604 0.01836 0.0
C979 C 0.08442 0.27944 0.02968 0.0
C980 C 0.09898 0.27351 0.99415 0.0
H981 H 0.08695 0.2649 0.08785 0.0
H982 H 0.05934 0.29539 0.03264 0.0
C983 C 0.13073 0.25182 0.99114 0.0
C984 C 0.42858 0.73405 0.14831 0.0
C985 C 0.41764 0.69677 0.14989 0.0
H986 H 0.44 0.78344 0.18016 0.0
C987 C 0.39803 0.68467 0.18084 0.0
H988 H 0.44272 0.74436 0.1243 0.0
C989 C 0.39557 0.70716 0.21247 0.0
C990 C 0.41348 0.74173 0.21387 0.0
H991 H 0.38777 0.65638 0.18207 0.0
H992 H 0.38478 0.69521 0.23757 0.0
C993 C 0.42636 0.75662 0.18027 0.0
C994 C 0.9458 0.30959 0.09968 0.0
C995 C 0.93203 0.27762 0.11675 0.0
H996 H 0.9696 0.33262 0.0512 0.0
C997 C 0.93826 0.24267 0.1007 0.0
H998 H 0.94091 0.33688 0.11153 0.0
C999 C 0.95437 0.24021 0.06584 0.0
C1000 C 0.96395 0.27273 0.04666 0.0
H1001 H 0.92721 0.21776 0.11304 0.0
H1002 H 0.95681 0.21313 0.05277 0.0
C1003 C 0.96133 0.30723 0.06476 0.0
C1004 C 0.53165 0.23616 0.37969 0.0
C1005 C 0.56256 0.21274 0.38165 0.0
H1006 H 0.5015 0.27558 0.34614 0.0
C1007 C 0.59204 0.21962 0.35828 0.0
H1008 H 0.50853 0.23125 0.39739 0.0
C1009 C 0.58827 0.24562 0.32957 0.0
C1010 C 0.55451 0.26401 0.32317 0.0
H1011 H 0.6162 0.20189 0.35941 0.0
H1012 H 0.60923 0.24646 0.30873 0.0
C1013 C 0.52781 0.26198 0.3506 0.0
C1014 C 0.43742 0.24217 0.89972 0.0
C1015 C 0.41746 0.20875 0.89754 0.0
H1016 H 0.47176 0.27769 0.9342 0.0
C1017 C 0.41959 0.18338 0.92693 0.0
H1018 H 0.43571 0.26218 0.87721 0.0
C1019 C 0.43981 0.19218 0.95922 0.0
C1020 C 0.4579 0.22667 0.96266 0.0
H1021 H 0.40436 0.15742 0.92552 0.0
H1022 H 0.44001 0.17244 0.98197 0.0
C1023 C 0.45745 0.25124 0.93237 0.0
C1024 C 0.42741 0.29711 0.34301 0.0
C1025 C 0.44404 0.33242 0.34516 0.0
H1026 H 0.41441 0.24973 0.30786 0.0
C1027 C 0.45609 0.34901 0.31242 0.0
H1028 H 0.41753 0.28395 0.36789 0.0
C1029 C 0.45263 0.33065 0.27841 0.0
C1030 C 0.43865 0.29424 0.27624 0.0
H1031 H 0.46858 0.37637 0.31295 0.0
H1032 H 0.46292 0.34456 0.25412 0.0
C1033 C 0.42547 0.27772 0.30878 0.0
C1034 C 0.64355 0.28154 0.96444 0.0
C1035 C 0.62627 0.26828 0.93089 0.0
H1036 H 0.64418 0.283 0.02414 0.0
C1037 C 0.59867 0.24106 0.93332 0.0
H1038 H 0.66553 0.30195 0.96423 0.0
C1039 C 0.587 0.22954 0.96853 0.0
C1040 C 0.60283 0.24502 0.00173 0.0
H1041 H 0.58527 0.22972 0.90825 0.0
H1042 H 0.56363 0.21083 0.96968 0.0
C1043 C 0.632 0.27013 -0.00082 0.0
C1044 C 0.19657 0.59544 0.84269 0.0
C1045 C 0.16125 0.58206 0.83224 0.0
H1046 H 0.25269 0.602 0.82797 0.0
C1047 C 0.15432 0.57144 0.79474 0.0
H1048 H 0.20259 0.6051 0.87097 0.0
C1049 C 0.18342 0.56962 0.7697 0.0
C1050 C 0.21985 0.57829 0.78186 0.0
H1051 H 0.1272 0.56164 0.78559 0.0
H1052 H 0.17796 0.55772 0.7422 0.0
C1053 C 0.22529 0.5941 0.81772 0.0
C1054 C 0.7871 0.5899 0.42093 0.0
C1055 C 0.77723 0.58851 0.38271 0.0
H1056 H 0.79075 0.55983 0.47243 0.0
C1057 C 0.76235 0.55572 0.36702 0.0
H1058 H 0.79889 0.61489 0.43348 0.0
C1059 C 0.75765 0.5246 0.38904 0.0
C1060 C 0.76821 0.52555 0.42706 0.0
H1061 H 0.75441 0.55406 0.33759 0.0
H1062 H 0.74616 0.49962 0.37616 0.0
C1063 C 0.7829 0.5584 0.44298 0.0
C1064 C 0.85057 0.9147 0.79574 0.0
C1065 C 0.87457 0.94529 0.79625 0.0
H1066 H 0.79991 0.89226 0.77376 0.0
C1067 C 0.87181 0.97167 0.76769 0.0
H1068 H 0.85182 0.89446 0.81803 0.0
C1069 C 0.8419 0.97007 0.74195 0.0
C1070 C 0.814 0.94356 0.7465 0.0
H1071 H 0.89036 0.99531 0.76756 0.0
H1072 H 0.83737 0.993 0.72301 0.0
C1073 C 0.82101 0.91318 0.77002 0.0
C1074 C 0.2059 0.95856 0.37738 0.0
C1075 C 0.22474 0.92587 0.38832 0.0
H1076 H 0.20086 0.01743 0.38365 0.0
C1077 C 0.25699 0.92915 0.41107 0.0
H1078 H 0.18129 0.95748 0.35936 0.0
C1079 C 0.26864 0.96422 0.42441 0.0
C1080 C 0.24819 0.99635 0.41515 0.0
H1081 H 0.27254 0.90469 0.41939 0.0
H1082 H 0.29185 0.96581 0.44427 0.0
C1083 C 0.2175 0.99323 0.39056 0.0
C1084 C 0.15592 0.4086 0.71232 0.0
C1085 C 0.13498 0.44103 0.70698 0.0
H1086 H 0.20488 0.38537 0.73775 0.0
C1087 C 0.14013 0.47087 0.732 0.0
H1088 H 0.15212 0.38511 0.69346 0.0
C1089 C 0.16913 0.47 0.75892 0.0
C1090 C 0.19475 0.44075 0.75891 0.0
H1091 H 0.12388 0.49598 0.72869 0.0
H1092 H 0.17514 0.49479 0.77517 0.0
C1093 C 0.18564 0.40839 0.73831 0.0
C1094 C 0.76117 0.56238 0.57316 0.0
C1095 C 0.73215 0.58794 0.57012 0.0
H1096 H 0.77809 0.50588 0.5685 0.0
C1097 C 0.69804 0.57592 0.55418 0.0
H1098 H 0.78733 0.5705 0.58638 0.0
C1099 C 0.69222 0.53837 0.54448 0.0
C1100 C 0.72023 0.51209 0.55131 0.0
H1101 H 0.67477 0.5948 0.55273 0.0
H1102 H 0.66526 0.5296 0.5338 0.0
C1103 C 0.75527 0.52496 0.56413 0.0
C1104 C 0.84837 0.06769 0.70604 0.0
C1105 C 0.84198 0.07616 0.66808 0.0
H1106 H 0.82401 0.05799 0.75892 0.0
C1107 C 0.80706 0.08994 0.65671 0.0
H1108 H 0.87519 0.05793 0.71597 0.0
C1109 C 0.77811 0.09094 0.68136 0.0
C1110 C 0.783 0.0776 0.71801 0.0
H1111 H 0.80144 0.09833 0.62805 0.0
H1112 H 0.751 0.09905 0.67061 0.0
C1113 C 0.81905 0.06827 0.73083 0.0
C1114 C 0.27921 0.91955 0.58855 0.0
C1115 C 0.31418 0.91928 0.60677 0.0
H1116 H 0.23846 0.95155 0.55862 0.0
C1117 C 0.33483 0.95219 0.60967 0.0
H1118 H 0.26237 0.89464 0.58671 0.0
C1119 C 0.32112 0.98473 0.59345 0.0
C1120 C 0.28622 0.98485 0.5751 0.0
H1121 H 0.36161 0.95263 0.62408 0.0
H1122 H 0.33788 0.0097 0.59497 0.0
C1123 C 0.26517 0.9522 0.57317 0.0
C1124 C 0.80246 0.14142 0.47264 0.0
C1125 C 0.83838 0.14483 0.48789 0.0
H1126 H 0.75615 0.17141 0.44923 0.0
C1127 C 0.86017 0.17478 0.47639 0.0
H1128 H 0.78604 0.11736 0.47911 0.0
C1129 C 0.84405 0.20461 0.45721 0.0
C1130 C 0.80555 0.20578 0.45134 0.0
H1131 H 0.8888 0.17715 0.48587 0.0
H1132 H 0.86059 0.22933 0.45335 0.0
C1133 C 0.78571 0.17218 0.45477 0.0
C1134 C 0.79417 0.85902 0.89436 0.0
C1135 C 0.80065 0.87962 0.92735 0.0
H1136 H 0.76666 0.81183 0.86947 0.0
C1137 C 0.77626 0.87585 0.95663 0.0
H1138 H 0.81253 0.86174 0.87128 0.0
C1139 C 0.74842 0.84874 0.95453 0.0
C1140 C 0.74646 0.82344 0.92443 0.0
H1141 H 0.78047 0.89183 0.98217 0.0
H1142 H 0.73267 0.84359 0.97908 0.0
C1143 C 0.76723 0.83104 0.89291 0.0
C1144 C 0.03633 0.86539 0.28508 0.0
C1145 C 0.07038 0.87708 0.27133 0.0
H1146 H 0.97763 0.87284 0.28433 0.0
C1147 C 0.06992 0.90233 0.24141 0.0
H1148 H 0.03538 0.84561 0.30773 0.0
C1149 C 0.03639 0.91697 0.22708 0.0
C1150 C 1.00265 0.90695 0.24257 0.0
H1151 H 0.09548 0.91139 0.22957 0.0
H1152 H 0.03717 0.93839 0.20595 0.0
C1153 C 1.00302 0.88032 0.27111 0.0
C1154 C 0.21589 0.63081 0.01655 0.0
C1155 C 0.17763 0.63346 0.01981 0.0
H1156 H 0.26793 0.65616 0.03229 0.0
C1157 C 0.16371 0.65336 0.05012 0.0
H1158 H 0.2272 0.61382 0.99475 0.0
C1159 C 0.18708 0.6761 0.07198 0.0
C1160 C 0.22339 0.68173 0.06087 0.0
H1161 H 0.13431 0.6542 0.0546 0.0
H1162 H 0.17469 0.69553 0.09109 0.0
C1163 C 0.23906 0.6543 0.03836 0.0
C1164 C 0.40665 0.0716 0.73872 0.0
C1165 C 0.39636 0.08688 0.77281 0.0
H1166 H 0.44757 0.04054 0.71033 0.0
C1167 C 0.41647 0.07814 0.80576 0.0
H1168 H 0.39171 0.07863 0.71299 0.0
C1169 C 0.44855 0.0572 0.80434 0.0
C1170 C 0.46101 0.04464 0.76988 0.0
H1171 H 0.40886 0.08995 0.83233 0.0
H1172 H 0.46445 0.05246 0.83005 0.0
C1173 C 0.43888 0.05039 0.73726 0.0
C1174 C 0.67447 0.82626 0.08704 0.0
C1175 C 0.68675 0.85944 0.07127 0.0
H1176 H 0.68377 0.76805 0.09418 0.0
C1177 C 0.72275 0.8613 0.05834 0.0
H1178 H 0.64688 0.82437 0.09743 0.0
C1179 C 0.74424 0.82886 0.05668 0.0
C1180 C 0.72945 0.7943 0.06719 0.0
H1181 H 0.73285 0.88677 0.04631 0.0
H1182 H 0.77001 0.83007 0.0423 0.0
C1183 C 0.69587 0.79409 0.08564 0.0
C1184 C 0.10357 0.06878 0.21563 0.0
C1185 C 0.10453 0.08592 0.18056 0.0
H1186 H 0.07036 0.04096 0.25494 0.0
C1187 C 0.07323 0.08549 0.15656 0.0
H1188 H 0.1274 0.06922 0.23476 0.0
C1189 C 0.04071 0.06976 0.16818 0.0
C1190 C 0.03903 0.05448 0.20407 0.0
H1191 H 0.0735 0.09867 0.12942 0.0
H1192 H 0.01662 0.07059 0.14941 0.0
C1193 C 0.07085 0.05333 0.22745 0.0
C1194 C 0.93899 0.40214 0.27598 0.0
C1195 C 0.9374 0.36795 0.25689 0.0
H1196 H 0.97364 0.44543 0.2992 0.0
C1197 C 0.97076 0.34934 0.24999 0.0
H1198 H 0.91389 0.41701 0.28197 0.0
C1199 C 0.00483 0.36558 0.25962 0.0
C1200 C 0.0065 0.40037 0.27736 0.0
H1201 H 0.97067 0.32292 0.23529 0.0
H1202 H 0.02991 0.35186 0.25141 0.0
C1203 C 0.97323 0.418 0.28651 0.0
C1204 C 0.16659 0.1752 0.82127 0.0
C1205 C 0.19069 0.20546 0.8268 0.0
H1206 H 0.11207 0.15396 0.82625 0.0
C1207 C 0.17789 0.23733 0.84546 0.0
H1208 H 0.17571 0.14972 0.80825 0.0
C1209 C 0.14111 0.23964 0.85623 0.0
C1210 C 0.11669 0.20997 0.84876 0.0
H1211 H 0.19604 0.26082 0.85097 0.0
H1212 H 0.1313 0.26537 0.86821 0.0
C1213 C 0.13025 0.17732 0.83239 0.0
C1214 C 0.49703 0.57085 0.37695 0.0
C1215 C 0.46139 0.56128 0.38796 0.0
H1216 H 0.5341 0.6151 0.36359 0.0
C1217 C 0.43391 0.58891 0.38726 0.0
H1218 H 0.5187 0.55016 0.37669 0.0
C1219 C 0.44239 0.62565 0.37797 0.0
C1220 C 0.4786 0.6357 0.36966 0.0
H1221 H 0.40595 0.58234 0.3947 0.0
H1222 H 0.42134 0.64681 0.38045 0.0
C1223 C 0.50567 0.60782 0.36848 0.0
C1224 C 0.83026 0.35514 0.85125 0.0
C1225 C 0.81387 0.33081 0.8246 0.0
H1226 H 0.87803 0.36719 0.88664 0.0
C1227 C 0.83495 0.30171 0.81036 0.0
H1228 H 0.81418 0.3772 0.86341 0.0
C1229 C 0.87108 0.29584 0.82364 0.0
C1230 C 0.88699 0.31855 0.85209 0.0
H1231 H 0.82268 0.28211 0.79043 0.0
H1232 H 0.88585 0.2722 0.81281 0.0
C1233 C 0.86652 0.34896 0.86505 0.0
C1234 C 0.56043 0.93377 0.40407 0.0
C1235 C 0.54491 0.96497 0.38575 0.0
H1236 H 0.56286 0.87412 0.40754 0.0
C1237 C 0.51774 0.95895 0.35738 0.0
H1238 H 0.58119 0.93735 0.42629 0.0
C1239 C 0.50761 0.92279 0.34643 0.0
C1240 C 0.52379 0.89159 0.36401 0.0
H1241 H 0.50511 0.98219 0.34271 0.0
H1242 H 0.48749 0.91927 0.32359 0.0
C1243 C 0.5497 0.8975 0.39358 0.0
C1244 C 0.18691 0.85205 0.67119 0.0
C1245 C 0.20866 0.82628 0.65242 0.0
H1246 H 0.13256 0.86819 0.68552 0.0
C1247 C 0.19113 0.79957 0.62887 0.0
H1248 H 0.19949 0.87331 0.68902 0.0
C1249 C 0.15272 0.79672 0.62662 0.0
C1250 C 0.13112 0.82038 0.64806 0.0
H1251 H 0.20707 0.77978 0.61324 0.0
H1252 H 0.14019 0.77446 0.61005 0.0
C1253 C 0.14852 0.84913 0.66903 0.0
C1254 C 0.02681 0.5647 0.64715 0.0
C1255 C 0.04912 0.55695 0.61669 0.0
H1256 H 0.00504 0.60581 0.68378 0.0
C1257 C 0.06451 0.58738 0.59786 0.0
H1258 H 0.01451 0.5423 0.66255 0.0
C1259 C 0.05875 0.62425 0.60997 0.0
C1260 C 0.038 0.63167 0.64165 0.0
H1261 H 0.08184 0.5827 0.57427 0.0
H1262 H 0.07176 0.6468 0.59541 0.0
C1263 C 0.02157 0.60134 0.65954 0.0
C1264 C 0.85606 0.65591 0.65628 0.0
C1265 C 0.83395 0.68402 0.6711 0.0
H1266 H 0.90887 0.6418 0.63509 0.0
C1267 C 0.85 0.71835 0.68106 0.0
H1268 H 0.84415 0.62935 0.64798 0.0
C1269 C 0.88704 0.72528 0.67426 0.0
C1270 C 0.90836 0.69834 0.65637 0.0
H1271 H 0.83339 0.74047 0.69239 0.0
H1272 H 0.89821 0.75262 0.68072 0.0
C1273 C 0.89292 0.66317 0.64855 0.0
C1274 C 0.93337 0.93311 0.61848 0.0
C1275 C 0.95946 0.96191 0.61519 0.0
H1276 H 0.92387 0.87476 0.62686 0.0
C1277 C 0.99681 0.95336 0.62369 0.0
H1278 H 0.90433 0.93842 0.61271 0.0
C1279 C 0.00792 0.91671 0.63228 0.0
C1280 C 0.982 0.8876 0.63369 0.0
H1281 H 0.01784 0.97461 0.62176 0.0
H1282 H 0.03714 0.9106 0.6351 0.0
C1283 C 0.94448 0.89663 0.62762 0.0
C1284 C 0.80838 0.15505 0.19427 0.0
C1285 C 0.82589 0.17803 0.169 0.0
H1286 H 0.80609 0.10177 0.21929 0.0
C1287 C 0.85236 0.16285 0.14551 0.0
H1288 H 0.78784 0.1662 0.21253 0.0
C1289 C 0.86374 0.1259 0.14994 0.0
C1290 C 0.84833 0.10373 0.17755 0.0
H1291 H 0.86641 0.1803 0.12593 0.0
H1292 H 0.88596 0.11549 0.13336 0.0
C1293 C 0.81915 0.11817 0.19819 0.0
C1294 C 0.42485 0.89262 0.07889 0.0
C1295 C 0.44918 0.8902 0.04916 0.0
H1296 H 0.36953 0.88675 0.09699 0.0
C1297 C 0.43606 0.87351 0.01553 0.0
H1298 H 0.43402 0.90411 0.10566 0.0
C1299 C 0.39863 0.86293 0.01079 0.0
C1300 C 0.37388 0.86802 0.03987 0.0
H1301 H 0.45415 0.87046 0.99228 0.0
H1302 H 0.38842 0.85386 0.98344 0.0
C1303 C 0.38797 0.88153 0.07436 0.0
C1304 C 0.18007 0.33103 0.15265 0.0
C1305 C 0.18028 0.30415 0.18079 0.0
H1306 H 0.17036 0.38794 0.1384 0.0
C1307 C 0.16741 0.31419 0.2163 0.0
H1308 H 0.18864 0.32408 0.12479 0.0
C1309 C 0.15602 0.35053 0.22388 0.0
C1310 C 0.15737 0.37767 0.19617 0.0
H1311 H 0.16664 0.294 0.2386 0.0
H1312 H 0.14851 0.35788 0.252 0.0
C1313 C 0.16865 0.36732 0.16024 0.0
C1314 C 0.58164 0.62552 0.07999 0.0
C1315 C 0.55253 0.63122 0.05375 0.0
H1316 H 0.6402 0.62378 0.09029 0.0
C1317 C 0.56133 0.64542 0.01832 0.0
H1318 H 0.57619 0.61525 0.10763 0.0
C1319 C 0.59822 0.65083 0.00851 0.0
C1320 C 0.62726 0.64273 0.03405 0.0
H1321 H 0.53976 0.65059 -0.00269 0.0
H1322 H 0.60404 0.65838 0.98007 0.0
C1323 C 0.61838 0.63126 0.07027 0.0
C1324 C 0.87567 0.82816 0.28274 0.0
C1325 C 0.85479 0.81347 0.31163 0.0
H1326 H 0.8966 0.87701 0.25737 0.0
C1327 C 0.84515 0.8365 0.34141 0.0
H1328 H 0.88481 0.81079 0.26006 0.0
C1329 C 0.85264 0.87437 0.34016 0.0
C1330 C 0.86955 0.88962 0.30898 0.0
H1331 H 0.83021 0.82572 0.36468 0.0
H1332 H 0.84239 0.89212 0.36204 0.0
C1333 C 0.88322 0.866 0.28155 0.0
C1334 C 0.07939 0.9114 0.95733 0.0
C1335 C 0.04824 0.88797 0.95821 0.0
H1336 H 0.1384 0.91609 0.96264 0.0
C1337 C 0.05408 0.84986 0.96481 0.0
H1338 H 0.07602 0.94085 0.95202 0.0
C1339 C 0.0899 0.83547 0.96967 0.0
C1340 C 0.12114 0.8588 0.96889 0.0
H1341 H 0.03094 0.83078 0.96508 0.0
H1342 H 0.09304 0.8059 0.97439 0.0
C1343 C 0.11529 0.89712 0.96317 0.0
C1344 C 0.16129 0.66515 0.35031 0.0
C1345 C 0.18489 0.68177 0.32483 0.0
H1346 H 0.12769 0.61774 0.36289 0.0
C1347 C 0.19504 0.66117 0.29342 0.0
H1348 H 0.15207 0.68083 0.37416 0.0
C1349 C 0.18113 0.62531 0.28689 0.0
C1350 C 0.15586 0.60926 0.31113 0.0
H1351 H 0.21242 0.67358 0.27284 0.0
H1352 H 0.18899 0.61085 0.2618 0.0
C1353 C 0.14674 0.62932 0.34343 0.0
C1354 C 0.91815 0.60621 0.92674 0.0
C1355 C 0.94701 0.61826 0.95134 0.0
H1356 H 0.85987 0.60836 0.91244 0.0
C1357 C 0.93789 0.64089 0.98194 0.0
H1358 H 0.92405 0.5888 0.90291 0.0
C1359 C 0.9016 0.65264 0.9868 0.0
C1360 C 0.87296 0.64145 0.96183 0.0
H1361 H 0.95911 0.65098 0.00151 0.0
H1362 H 0.896 0.67113 0.00992 0.0
C1363 C 0.88139 0.61728 0.93226 0.0
C1364 C 0.1812 0.85547 0.17102 0.0
C1365 C 0.18262 0.82008 0.18789 0.0
H1366 H 0.20106 0.89075 0.1276 0.0
C1367 C 0.20211 0.79162 0.17094 0.0
H1368 H 0.16699 0.87817 0.1844 0.0
C1369 C 0.22259 0.79916 0.13969 0.0
C1370 C 0.22398 0.83538 0.1245 0.0
H1371 H 0.20446 0.76452 0.18391 0.0
H1372 H 0.23829 0.77649 0.12813 0.0
C1373 C 0.20146 0.86302 0.13926 0.0
C1374 C 0.15842 0.16555 0.31043 0.0
C1375 C 0.18784 0.15166 0.29014 0.0
H1376 H 0.13703 0.17519 0.36449 0.0
C1377 C 0.21574 0.13106 0.30885 0.0
H1378 H 0.13616 0.18086 0.29667 0.0
C1379 C 0.21581 0.12706 0.34755 0.0
C1380 C 0.18829 0.14411 0.3682 0.0
H1381 H 0.23828 0.11908 0.29378 0.0
H1382 H 0.239 0.11325 0.36141 0.0
C1383 C 0.15872 0.16193 0.34919 0.0
C1384 C 0.40209 0.52015 0.93118 0.0
C1385 C 0.40905 0.55726 0.94204 0.0
H1386 H 0.38876 0.48254 0.88601 0.0
C1387 C 0.40216 0.5856 0.9157 0.0
H1388 H 0.40632 0.49761 0.95079 0.0
C1389 C 0.39086 0.57687 0.87895 0.0
C1390 C 0.38603 0.53971 0.86776 0.0
H1391 H 0.40622 0.61458 0.92318 0.0
H1392 H 0.38877 0.59898 0.85855 0.0
C1393 C 0.39084 0.51151 0.89439 0.0
C1394 C 0.80434 0.30069 0.34696 0.0
C1395 C 0.78598 0.31008 0.31327 0.0
H1396 H 0.80607 0.30693 0.40645 0.0
C1397 C 0.7515 0.32811 0.31434 0.0
H1398 H 0.83098 0.28706 0.34697 0.0
C1399 C 0.73773 0.34041 0.34806 0.0
C1400 C 0.75774 0.33419 0.38154 0.0
H1401 H 0.73644 0.33527 0.28869 0.0
H1402 H 0.71226 0.35616 0.34772 0.0
C1403 C 0.79019 0.31254 0.38093 0.0
C1404 C 0.09625 0.45661 0.42515 0.0
C1405 C 0.11684 0.46783 0.45736 0.0
H1406 H 0.09343 0.45255 0.36542 0.0
C1407 C 0.1506 0.48639 0.45255 0.0
H1408 H 0.07021 0.44218 0.42756 0.0
C1409 C 0.16409 0.49211 0.41676 0.0
C1410 C 0.1441 0.47975 0.38464 0.0
H1411 H 0.16742 0.49537 0.47652 0.0
H1412 H 0.19061 0.50562 0.41436 0.0
C1413 C 0.10963 0.46259 0.38936 0.0
C1414 C 0.34507 0.17288 0.65052 0.0
C1415 C 0.31526 0.18796 0.66964 0.0
H1416 H 0.36341 0.14974 0.59918 0.0
C1417 C 0.2824 0.19653 0.64993 0.0
H1418 H 0.37075 0.16593 0.66523 0.0
C1419 C 0.27856 0.18798 0.61206 0.0
C1420 C 0.30721 0.16983 0.59369 0.0
H1421 H 0.2592 0.20836 0.66412 0.0
H1422 H 0.25217 0.19323 0.59793 0.0
C1423 C 0.34091 0.16346 0.61284 0.0
C1424 C 0.40739 0.44858 0.57671 0.0
C1425 C 0.38789 0.46278 0.54519 0.0
H1426 H 0.41019 0.44252 0.63632 0.0
C1427 C 0.35575 0.48372 0.55112 0.0
H1428 H 0.43218 0.43229 0.57339 0.0
C1429 C 0.34279 0.48908 0.58727 0.0
C1430 C 0.36184 0.47416 0.61868 0.0
H1431 H 0.33975 0.49489 0.52768 0.0
H1432 H 0.31755 0.50468 0.59053 0.0
C1433 C 0.39472 0.45443 0.61291 0.0
C1434 C 0.60019 1.00126 0.56523 0.0
C1435 C 0.59805 0.03947 0.55776 0.0
H1436 H 0.60988 0.95962 0.60698 0.0
C1437 C 0.6106 0.06497 0.58539 0.0
H1438 H 0.59162 0.98097 0.54419 0.0
C1439 C 0.62274 0.05266 0.62058 0.0
C1440 C 0.62183 0.01472 0.62895 0.0
H1441 H 0.61049 0.09458 0.58006 0.0
H1442 H 0.62956 0.07301 0.64218 0.0
C1443 C 0.6116 0.98901 0.60072 0.0
C1444 C 0.66737 0.67471 0.31878 0.0
C1445 C 0.69174 0.70478 0.32405 0.0
H1446 H 0.61275 0.65389 0.32437 0.0
C1447 C 0.67927 0.73684 0.34265 0.0
H1448 H 0.67621 0.64912 0.30575 0.0
C1449 C 0.64263 0.73943 0.35383 0.0
C1450 C 0.61796 0.70991 0.34678 0.0
H1451 H 0.6976 0.76023 0.34794 0.0
H1452 H 0.63313 0.76526 0.36586 0.0
C1453 C 0.63114 0.67714 0.33026 0.0
C1454 C 0.99671 0.06948 0.87785 0.0
C1455 C 0.96046 0.05961 0.88652 0.0
H1456 H 0.03426 0.11413 0.86695 0.0
C1457 C 0.93283 0.08708 0.88389 0.0
H1458 H 0.01854 0.04894 0.8791 0.0
C1459 C 0.94155 0.1239 0.87507 0.0
C1460 C 0.97818 0.13433 0.8692 0.0
H1461 H 0.90443 0.0803 0.88947 0.0
H1462 H 0.92012 0.14484 0.87605 0.0
C1463 C 0.00557 0.1066 0.86996 0.0
C1464 C 0.33114 0.85463 0.35143 0.0
C1465 C 0.315 0.83009 0.32479 0.0
H1466 H 0.37878 0.86726 0.38688 0.0
C1467 C 0.33635 0.80104 0.31089 0.0
H1468 H 0.31486 0.87667 0.36337 0.0
C1469 C 0.3725 0.79552 0.32433 0.0
C1470 C 0.38826 0.81854 0.35263 0.0
H1471 H 0.32433 0.78126 0.291 0.0
H1472 H 0.38746 0.77193 0.31365 0.0
C1473 C 0.36746 0.84881 0.36539 0.0
C1474 C 0.0591 0.43311 0.90508 0.0
C1475 C 0.04394 0.46446 0.88669 0.0
H1476 H 0.06108 0.37344 0.90853 0.0
C1477 C 0.01683 0.45864 0.85822 0.0
H1478 H 0.0798 0.43652 0.92739 0.0
C1479 C 0.00647 0.42254 0.8472 0.0
C1480 C 0.02235 0.39119 0.86483 0.0
H1481 H 0.00446 0.48199 0.84349 0.0
H1482 H 0.98645 0.41917 0.82425 0.0
C1483 C 0.04814 0.39692 0.89453 0.0
C1484 C 0.68338 0.34704 0.18483 0.0
C1485 C 0.7052 0.32548 0.16148 0.0
H1486 H 0.62894 0.35931 0.20238 0.0
C1487 C 0.6877 0.30226 0.13443 0.0
H1488 H 0.69603 0.36535 0.20574 0.0
C1489 C 0.64936 0.29893 0.13226 0.0
C1490 C 0.62757 0.31855 0.15727 0.0
H1491 H 0.70368 0.28578 0.11544 0.0
H1492 H 0.637 0.2797 0.11204 0.0
C1493 C 0.64492 0.34353 0.18283 0.0
C1494 C 0.56216 0.08613 0.09842 0.0
C1495 C 0.54592 0.05552 0.11617 0.0
H1496 H 0.56915 0.14555 0.09657 0.0
C1497 C 0.52189 0.06295 0.14532 0.0
H1498 H 0.58081 0.08172 0.07585 0.0
C1499 C 0.51562 0.09949 0.15745 0.0
C1500 C 0.53282 0.13001 0.14063 0.0
H1501 H 0.50885 0.04039 0.15984 0.0
H1502 H 0.49764 0.10372 0.18061 0.0
C1503 C 0.55551 0.12286 0.11031 0.0
C1504 C 0.34739 0.21669 0.17329 0.0
C1505 C 0.33169 0.182 0.16433 0.0
H1506 H 0.3946 0.25186 0.17064 0.0
C1507 C 0.35351 0.15429 0.14837 0.0
H1508 H 0.33091 0.23855 0.18529 0.0
C1509 C 0.38984 0.16217 0.13903 0.0
C1510 C 0.4049 0.19761 0.14622 0.0
H1511 H 0.34171 0.12751 0.14068 0.0
H1512 H 0.40571 0.14096 0.12523 0.0
C1513 C 0.38377 0.2243 0.16468 0.0
C1514 C 0.49685 0.45231 0.1177 0.0
C1515 C 0.45939 0.46124 0.11045 0.0
H1516 H 0.53719 0.4091 0.12671 0.0
C1517 C 0.43327 0.43232 0.11289 0.0
H1518 H 0.51788 0.47361 0.11627 0.0
C1519 C 0.44441 0.39546 0.12024 0.0
C1520 C 0.48197 0.38628 0.1253 0.0
H1521 H 0.40416 0.43791 0.10794 0.0
H1522 H 0.42375 0.37364 0.11916 0.0
C1523 C 0.50796 0.41534 0.12448 0.0
C1524 C 0.35468 0.66303 0.64267 0.0
C1525 C 0.32794 0.67854 0.66562 0.0
H1526 H 0.3882 0.6154 0.63144 0.0
C1527 C 0.30974 0.65582 0.69063 0.0
H1528 H 0.36921 0.68024 0.62326 0.0
C1529 C 0.3202 0.61889 0.69497 0.0
C1530 C 0.34972 0.60419 0.67501 0.0
H1531 H 0.28892 0.66721 0.70842 0.0
H1532 H 0.30664 0.60268 0.71588 0.0
C1533 C 0.36573 0.62605 0.64752 0.0
C1534 C 0.93838 0.37318 0.51722 0.0
C1535 C 0.9515 0.39013 0.55069 0.0
H1536 H 0.89081 0.35292 0.48552 0.0
C1537 C 0.92749 0.39207 0.5807 0.0
H1538 H 0.95629 0.37044 0.49379 0.0
C1539 C 0.89077 0.38035 0.57654 0.0
C1540 C 0.87655 0.36678 0.5421 0.0
H1541 H 0.93676 0.40372 0.60738 0.0
H1542 H 0.87244 0.38534 0.59931 0.0
C1543 C 0.90113 0.36202 0.51283 0.0
C1544 C 0.66777 0.81766 0.71754 0.0
C1545 C 0.68127 0.80738 0.68237 0.0
H1546 H 0.6472 0.86138 0.75221 0.0
C1547 C 0.68057 0.83378 0.65376 0.0
H1548 H 0.66732 0.7978 0.74016 0.0
C1549 C 0.66796 0.86985 0.66053 0.0
C1550 C 0.65598 0.88051 0.69612 0.0
H1551 H 0.68957 0.8266 0.62611 0.0
H1552 H 0.66924 0.89009 0.6383 0.0
C1553 C 0.65523 0.8538 0.72433 0.0
C1554 C 0.06018 0.1453 0.51808 0.0
C1555 C 0.05172 0.13147 0.55376 0.0
H1556 H 0.1025 0.15811 0.47934 0.0
C1557 C 0.08103 0.12633 0.57987 0.0
H1558 H 0.03845 0.15004 0.49713 0.0
C1559 C 0.11767 0.13225 0.56981 0.0
C1560 C 0.12623 0.14334 0.53336 0.0
H1561 H 0.07586 0.11635 0.60768 0.0
H1562 H 0.13968 0.12519 0.58978 0.0
C1563 C 0.09695 0.15089 0.50794 0.0
C1564 C 0.37376 0.33017 0.78224 0.0
C1565 C 0.35269 0.31575 0.81112 0.0
H1566 H 0.39584 0.37865 0.75722 0.0
C1567 C 0.3437 0.3388 0.84111 0.0
H1568 H 0.38245 0.31274 0.75941 0.0
C1569 C 0.3521 0.37651 0.84015 0.0
C1570 C 0.36932 0.39159 0.80905 0.0
H1571 H 0.32862 0.32818 0.86437 0.0
H1572 H 0.34234 0.39435 0.86219 0.0
C1573 C 0.38227 0.36782 0.78136 0.0
C1574 C 0.55652 0.35344 0.46835 0.0
C1575 C 0.55091 0.39185 0.46326 0.0
H1576 H 0.59505 0.30893 0.47637 0.0
C1577 C 0.58219 0.41516 0.4635 0.0
H1578 H 0.53332 0.33441 0.46776 0.0
C1579 C 0.61798 0.40042 0.46891 0.0
C1580 C 0.62352 0.36185 0.47309 0.0
H1581 H 0.57902 0.44481 0.45936 0.0
H1582 H 0.64125 0.41926 0.46931 0.0
C1583 C 0.59216 0.33869 0.4728 0.0
C1584 C 0.65956 0.16685 0.85113 0.0
C1585 C 0.6836 0.18311 0.82583 0.0
H1586 H 0.62503 0.12 0.86336 0.0
C1587 C 0.69346 0.16247 0.79436 0.0
H1588 H 0.65056 0.1826 0.87503 0.0
C1589 C 0.67881 0.12698 0.78755 0.0
C1590 C 0.65317 0.11128 0.81161 0.0
H1591 H 0.71116 0.17462 0.77392 0.0
H1592 H 0.68648 0.11253 0.76238 0.0
C1593 C 0.64434 0.13133 0.84401 0.0
C1594 C 0.43646 0.13842 0.48185 0.0
C1595 C 0.44569 0.11688 0.45051 0.0
H1596 H 0.39456 0.168 0.51046 0.0
C1597 C 0.41697 0.10586 0.42525 0.0
H1598 H 0.45756 0.14768 0.50197 0.0
C1599 C 0.38026 0.11702 0.43081 0.0
C1600 C 0.37179 0.14024 0.46111 0.0
H1601 H 0.42296 0.08932 0.40085 0.0
H1602 H 0.35885 0.10904 0.41046 0.0
C1603 C 0.40023 0.15027 0.48678 0.0
C1604 C 0.68055 0.35579 0.67191 0.0
C1605 C 0.68193 0.32058 0.68913 0.0
H1606 H 0.70146 0.39104 0.62904 0.0
C1607 C 0.70246 0.29229 0.67318 0.0
H1608 H 0.66554 0.37838 0.68455 0.0
C1609 C 0.72406 0.29992 0.64278 0.0
C1610 C 0.72547 0.33605 0.62737 0.0
H1611 H 0.70478 0.26534 0.68647 0.0
H1612 H 0.74052 0.27739 0.63207 0.0
C1613 C 0.70193 0.36343 0.64097 0.0
C1614 C 0.65839 0.66718 0.81243 0.0
C1615 C 0.6877 0.65337 0.79195 0.0
H1616 H 0.6371 0.67613 0.86665 0.0
C1617 C 0.71525 0.63201 0.81032 0.0
H1618 H 0.63636 0.68302 0.79892 0.0
C1619 C 0.71528 0.62734 0.84893 0.0
C1620 C 0.68804 0.64446 0.86988 0.0
H1621 H 0.73766 0.62 0.79508 0.0
H1622 H 0.7383 0.61303 0.86253 0.0
C1623 C 0.65862 0.66285 0.85113 0.0
C1624 C 0.90029 0.0833 0.41672 0.0
C1625 C 0.90858 0.05531 0.44309 0.0
H1626 H 0.88551 0.09603 0.3597 0.0
C1627 C 0.90269 0.01797 0.43248 0.0
H1628 H 0.90349 0.11242 0.42402 0.0
C1629 C 0.89115 0.00882 0.39588 0.0
C1630 C 0.88495 0.03673 0.36916 0.0
H1631 H 0.908 0.99566 0.45214 0.0
H1632 H 0.88995 0.97977 0.38766 0.0
C1633 C 0.88866 0.07406 0.38016 0.0
C1634 C 0.25104 0.83082 0.80989 0.0
C1635 C 0.28495 0.8117 0.80886 0.0
H1636 H 0.2121 0.85921 0.84334 0.0
C1637 C 0.30258 0.80118 0.8426 0.0
H1638 H 0.23649 0.8389 0.78425 0.0
C1639 C 0.28833 0.81276 0.87663 0.0
C1640 C 0.25643 0.83523 0.87733 0.0
H1641 H 0.32876 0.78668 0.8427 0.0
H1642 H 0.30367 0.80612 0.90222 0.0
C1643 C 0.23713 0.84276 0.8437 0.0
C1644 C 0.59457 0.95685 0.92453 0.0
C1645 C 0.615 0.96799 0.95685 0.0
H1646 H 0.59176 0.95343 0.86478 0.0
C1647 C 0.64858 0.98699 0.95222 0.0
H1648 H 0.5687 0.94208 0.92677 0.0
C1649 C 0.66199 0.9933 0.91649 0.0
C1650 C 0.6421 0.9811 0.88425 0.0
H1651 H 0.66529 0.99591 0.97629 0.0
H1652 H 0.68833 0.00718 0.91421 0.0
C1653 C 0.60787 0.9634 0.88881 0.0
C1654 C 0.84865 0.67105 0.15102 0.0
C1655 C 0.81958 0.68742 0.17021 0.0
H1656 H 0.86577 0.64703 0.09961 0.0
C1657 C 0.7872 0.69771 0.15052 0.0
H1658 H 0.87393 0.66279 0.16573 0.0
C1659 C 0.78285 0.68931 0.11266 0.0
C1660 C 0.81049 0.66967 0.09423 0.0
H1661 H 0.76459 0.71058 0.16477 0.0
H1662 H 0.7567 0.6958 0.09863 0.0
C1663 C 0.84397 0.66185 0.1133 0.0
C1664 C 0.85566 0.98478 0.05133 0.0
C1665 C 0.88793 0.96412 0.04517 0.0
H1666 H 0.81724 0.00501 0.09089 0.0
C1667 C 0.90749 0.94974 0.07658 0.0
H1668 H 0.83958 0.99609 0.02801 0.0
C1669 C 0.89469 0.95507 0.11285 0.0
C1670 C 0.86163 0.97446 0.11881 0.0
H1671 H 0.93236 0.93361 0.07313 0.0
H1672 H 0.91019 0.94298 0.13615 0.0
C1673 C 0.84259 0.98964 0.08752 0.0
C1674 C 0.10322 0.49986 0.06546 0.0
C1675 C 0.09948 0.53811 0.05867 0.0
H1676 H 0.11532 0.45781 0.10623 0.0
C1677 C 0.11159 0.56352 0.08657 0.0
H1678 H 0.09504 0.47962 0.04422 0.0
C1679 C 0.12493 0.55098 0.12132 0.0
C1680 C 0.12573 0.51285 0.12903 0.0
H1681 H 0.11027 0.5932 0.08182 0.0
H1682 H 0.13131 0.57116 0.1432 0.0
C1683 C 0.11588 0.48736 0.10048 0.0
loop_
_geom_bond_atom_site_label_1
_geom_bond_atom_site_label_2
_geom_bond_distance
_geom_bond_site_symmetry_2
_ccdc_geom_bond_type
Sc0 O3 2.025 . S
Sc0 O10 2.105 . S
Sc0 O13 2.105 . S
Sc0 O16 2.105 . S
Sc0 O19 2.105 . S
Sc1 O3 2.025 . S
Sc1 O11 2.105 . S
Sc1 O15 2.105 . S
Sc1 O17 2.105 . S
Sc1 O21 2.105 . S
Sc2 O3 2.025 . S
Sc2 O12 2.105 . S
Sc2 O14 2.105 . S
Sc2 O18 2.105 . S
Sc2 O20 2.105 . S
O3 Sc0 2.025 . S
O3 Sc1 2.025 . S
O3 Sc2 2.025 . S
C4 O10 1.268 . S
C4 O20 1.268 . S
C5 O11 1.268 . S
C5 O19 1.268 . S
C6 O12 1.268 . S
C6 O21 1.268 . S
C7 O13 1.268 . S
C7 O17 1.268 . S
C8 O14 1.268 . S
C8 O16 1.268 . S
C9 O15 1.268 . S
C9 O18 1.268 . S
O10 Sc0 2.105 . S
O10 C4 1.268 . S
O11 Sc1 2.105 . S
O11 C5 1.268 . S
O12 Sc2 2.105 . S
O12 C6 1.268 . S
O13 Sc0 2.105 . S
O13 C7 1.268 . S
O14 Sc2 2.105 . S
O14 C8 1.268 . S
O15 Sc1 2.105 . S
O15 C9 1.268 . S
O16 Sc0 2.105 . S
O16 C8 1.268 . S
O17 Sc1 2.105 . S
O17 C7 1.268 . S
O18 Sc2 2.105 . S
O18 C9 1.268 . S
O19 Sc0 2.105 . S
O19 C5 1.268 . S
O20 Sc2 2.105 . S
O20 C4 1.268 . S
O21 Sc1 2.105 . S
O21 C6 1.268 . S
Sc22 O25 2.025 . S
Sc22 O32 2.105 . S
Sc22 O35 2.105 . S
Sc22 O38 2.105 . S
Sc22 O41 2.105 1_554 S
Sc23 O25 2.025 . S
Sc23 O33 2.105 1_554 S
Sc23 O37 2.105 . S
Sc23 O39 2.105 . S
Sc23 O43 2.105 . S
Sc24 O25 2.025 . S
Sc24 O34 2.105 . S
Sc24 O36 2.105 . S
Sc24 O40 2.105 . S
Sc24 O42 2.105 . S
O25 Sc22 2.025 . S
O25 Sc23 2.025 . S
O25 Sc24 2.025 . S
C26 O32 1.268 . S
C26 O42 1.268 . S
C27 O33 1.268 . S
C27 O41 1.268 . S
C28 O34 1.268 . S
C28 O43 1.268 . S
C29 O35 1.268 . S
C29 O39 1.268 . S
C30 O36 1.268 . S
C30 O38 1.268 . S
C31 O37 1.268 . S
C31 O40 1.268 . S
O32 Sc22 2.105 . S
O32 C26 1.268 . S
O33 Sc23 2.105 1_556 S
O33 C27 1.268 . S
O34 Sc24 2.105 . S
O34 C28 1.268 . S
O35 Sc22 2.105 . S
O35 C29 1.268 . S
O36 Sc24 2.105 . S
O36 C30 1.268 . S
O37 Sc23 2.105 . S
O37 C31 1.268 . S
O38 Sc22 2.105 . S
O38 C30 1.268 . S
O39 Sc23 2.105 . S
O39 C29 1.268 . S
O40 Sc24 2.105 . S
O40 C31 1.268 . S
O41 Sc22 2.105 1_556 S
O41 C27 1.268 . S
O42 Sc24 2.105 . S
O42 C26 1.268 . S
O43 Sc23 2.105 . S
O43 C28 1.268 . S
Sc44 O47 2.025 . S
Sc44 O54 2.105 . S
Sc44 O57 2.105 . S
Sc44 O60 2.105 . S
Sc44 O63 2.105 . S
Sc45 O47 2.025 . S
Sc45 O55 2.105 . S
Sc45 O59 2.105 . S
Sc45 O61 2.105 . S
Sc45 O65 2.105 . S
Sc46 O47 2.025 . S
Sc46 O56 2.105 . S
Sc46 O58 2.105 . S
Sc46 O62 2.105 . S
Sc46 O64 2.105 . S
O47 Sc44 2.025 . S
O47 Sc45 2.025 . S
O47 Sc46 2.025 . S
C48 O54 1.268 . S
C48 O64 1.268 . S
C49 O55 1.268 . S
C49 O63 1.268 . S
C50 O56 1.268 . S
C50 O65 1.268 . S
C51 O57 1.268 . S
C51 O61 1.268 . S
C52 O58 1.268 . S
C52 O60 1.268 . S
C53 O59 1.268 . S
C53 O62 1.268 . S
O54 Sc44 2.105 . S
O54 C48 1.268 . S
O55 Sc45 2.105 . S
O55 C49 1.268 . S
O56 Sc46 2.105 . S
O56 C50 1.268 . S
O57 Sc44 2.105 . S
O57 C51 1.268 . S
O58 Sc46 2.105 . S
O58 C52 1.268 . S
O59 Sc45 2.105 . S
O59 C53 1.268 . S
O60 Sc44 2.105 . S
O60 C52 1.268 . S
O61 Sc45 2.105 . S
O61 C51 1.268 . S
O62 Sc46 2.105 . S
O62 C53 1.268 . S
O63 Sc44 2.105 . S
O63 C49 1.268 . S
O64 Sc46 2.105 . S
O64 C48 1.268 . S
O65 Sc45 2.105 . S
O65 C50 1.268 . S
Sc66 O69 2.025 . S
Sc66 O76 2.105 . S
Sc66 O79 2.101 1_554 S
Sc66 O82 2.105 . S
Sc66 O85 2.105 . S
Sc67 O69 2.025 . S
Sc67 O77 2.105 . S
Sc67 O81 2.105 . S
Sc67 O83 2.105 1_554 S
Sc67 O87 2.105 . S
Sc68 O69 2.025 . S
Sc68 O78 2.105 . S
Sc68 O80 2.105 . S
Sc68 O84 2.105 . S
Sc68 O86 2.105 . S
O69 Sc66 2.025 . S
O69 Sc67 2.025 . S
O69 Sc68 2.025 . S
C70 O76 1.268 . S
C70 O86 1.268 . S
C71 O77 1.268 . S
C71 O85 1.268 . S
C72 O78 1.268 . S
C72 O87 1.268 . S
C73 O79 1.270 . S
C73 O83 1.268 . S
C74 O80 1.268 1_545 S
C74 O82 1.268 1_545 S
C75 O81 1.268 . S
C75 O84 1.268 . S
O76 Sc66 2.105 . S
O76 C70 1.268 . S
O77 Sc67 2.105 . S
O77 C71 1.268 . S
O78 Sc68 2.105 . S
O78 C72 1.268 . S
O79 Sc66 2.101 1_556 S
O79 C73 1.270 . S
O80 Sc68 2.105 . S
O80 C74 1.268 1_565 S
O81 Sc67 2.105 . S
O81 C75 1.268 . S
O82 Sc66 2.105 . S
O82 C74 1.268 1_565 S
O83 Sc67 2.105 1_556 S
O83 C73 1.268 . S
O84 Sc68 2.105 . S
O84 C75 1.268 . S
O85 Sc66 2.105 . S
O85 C71 1.268 . S
O86 Sc68 2.105 . S
O86 C70 1.268 . S
O87 Sc67 2.105 . S
O87 C72 1.268 . S
Sc88 O91 2.025 . S
Sc88 O98 2.105 . S
Sc88 O101 2.105 . S
Sc88 O104 2.105 . S
Sc88 O107 2.105 . S
Sc89 O91 2.025 . S
Sc89 O99 2.105 . S
Sc89 O103 2.105 . S
Sc89 O105 2.105 . S
Sc89 O109 2.105 . S
Sc90 O91 2.025 . S
Sc90 O100 2.105 . S
Sc90 O102 2.105 . S
Sc90 O106 2.105 . S
Sc90 O108 2.105 . S
O91 Sc88 2.025 . S
O91 Sc89 2.025 . S
O91 Sc90 2.025 . S
C92 O98 1.268 . S
C92 O108 1.268 . S
C93 O99 1.268 . S
C93 O107 1.268 . S
C94 O100 1.268 . S
C94 O109 1.268 . S
C95 O101 1.268 . S
C95 O105 1.268 . S
C96 O102 1.268 . S
C96 O104 1.268 . S
C97 O103 1.268 . S
C97 O106 1.268 . S
O98 Sc88 2.105 . S
O98 C92 1.268 . S
O99 Sc89 2.105 . S
O99 C93 1.268 . S
O100 Sc90 2.105 . S
O100 C94 1.268 . S
O101 Sc88 2.105 . S
O101 C95 1.268 . S
O102 Sc90 2.105 . S
O102 C96 1.268 . S
O103 Sc89 2.105 . S
O103 C97 1.268 . S
O104 Sc88 2.105 . S
O104 C96 1.268 . S
O105 Sc89 2.105 . S
O105 C95 1.268 . S
O106 Sc90 2.105 . S
O106 C97 1.268 . S
O107 Sc88 2.105 . S
O107 C93 1.268 . S
O108 Sc90 2.105 . S
O108 C92 1.268 . S
O109 Sc89 2.105 . S
O109 C94 1.268 . S
Sc110 O113 2.025 . S
Sc110 O120 2.105 . S
Sc110 O123 2.105 . S
Sc110 O126 2.105 1_556 S
Sc110 O129 2.105 . S
Sc111 O113 2.025 . S
Sc111 O121 2.105 . S
Sc111 O125 2.105 . S
Sc111 O127 2.105 . S
Sc111 O131 2.105 . S
Sc112 O113 2.025 . S
Sc112 O122 2.105 . S
Sc112 O124 2.105 1_556 S
Sc112 O128 2.105 . S
Sc112 O130 2.105 . S
O113 Sc110 2.025 . S
O113 Sc111 2.025 . S
O113 Sc112 2.025 . S
C114 O120 1.268 . S
C114 O130 1.268 . S
C115 O121 1.268 . S
C115 O129 1.268 . S
C116 O122 1.268 . S
C116 O131 1.268 . S
C117 O123 1.268 1_655 S
C117 O127 1.268 1_655 S
C118 O124 1.268 . S
C118 O126 1.268 . S
C119 O125 1.268 . S
C119 O128 1.268 . S
O120 Sc110 2.105 . S
O120 C114 1.268 . S
O121 Sc111 2.105 . S
O121 C115 1.268 . S
O122 Sc112 2.105 . S
O122 C116 1.268 . S
O123 Sc110 2.105 . S
O123 C117 1.268 1_455 S
O124 Sc112 2.105 1_554 S
O124 C118 1.268 . S
O125 Sc111 2.105 . S
O125 C119 1.268 . S
O126 Sc110 2.105 1_554 S
O126 C118 1.268 . S
O127 Sc111 2.105 . S
O127 C117 1.268 1_455 S
O128 Sc112 2.105 . S
O128 C119 1.268 . S
O129 Sc110 2.105 . S
O129 C115 1.268 . S
O130 Sc112 2.105 . S
O130 C114 1.268 . S
O131 Sc111 2.105 . S
O131 C116 1.268 . S
Sc132 O135 2.025 . S
Sc132 O142 2.105 . S
Sc132 O145 2.105 . S
Sc132 O148 2.105 . S
Sc132 O151 2.105 . S
Sc133 O135 2.025 . S
Sc133 O143 2.105 . S
Sc133 O147 2.105 . S
Sc133 O149 2.105 . S
Sc133 O153 2.105 . S
Sc134 O135 2.025 . S
Sc134 O144 2.105 . S
Sc134 O146 2.105 . S
Sc134 O150 2.105 . S
Sc134 O152 2.105 . S
O135 Sc132 2.025 . S
O135 Sc133 2.025 . S
O135 Sc134 2.025 . S
C136 O142 1.268 . S
C136 O152 1.268 . S
C137 O143 1.268 . S
C137 O151 1.268 . S
C138 O144 1.268 . S
C138 O153 1.268 . S
C139 O145 1.268 . S
C139 O149 1.268 . S
C140 O146 1.268 . S
C140 O148 1.268 . S
C141 O147 1.268 . S
C141 O150 1.268 . S
O142 Sc132 2.105 . S
O142 C136 1.268 . S
O143 Sc133 2.105 . S
O143 C137 1.268 . S
O144 Sc134 2.105 . S
O144 C138 1.268 . S
O145 Sc132 2.105 . S
O145 C139 1.268 . S
O146 Sc134 2.105 . S
O146 C140 1.268 . S
O147 Sc133 2.105 . S
O147 C141 1.268 . S
O148 Sc132 2.105 . S
O148 C140 1.268 . S
O149 Sc133 2.105 . S
O149 C139 1.268 . S
O150 Sc134 2.105 . S
O150 C141 1.268 . S
O151 Sc132 2.105 . S
O151 C137 1.268 . S
O152 Sc134 2.105 . S
O152 C136 1.268 . S
O153 Sc133 2.105 . S
O153 C138 1.268 . S
Sc154 O157 2.025 . S
Sc154 O164 2.105 . S
Sc154 O167 2.105 . S
Sc154 O170 2.105 . S
Sc154 O173 2.105 . S
Sc155 O157 2.025 . S
Sc155 O165 2.105 . S
Sc155 O169 2.105 . S
Sc155 O171 2.105 . S
Sc155 O175 2.105 . S
Sc156 O157 2.025 . S
Sc156 O166 2.105 . S
Sc156 O168 2.105 . S
Sc156 O172 2.105 . S
Sc156 O174 2.105 . S
O157 Sc154 2.025 . S
O157 Sc155 2.025 . S
O157 Sc156 2.025 . S
C158 O164 1.268 . S
C158 O174 1.268 . S
C159 O165 1.268 . S
C159 O173 1.268 . S
C160 O166 1.268 . S
C160 O175 1.268 . S
C161 O167 1.268 1_545 S
C161 O171 1.268 1_545 S
C162 O168 1.268 1_455 S
C162 O170 1.268 1_455 S
C163 O169 1.268 1_554 S
C163 O172 1.268 1_554 S
O164 Sc154 2.105 . S
O164 C158 1.268 . S
O165 Sc155 2.105 . S
O165 C159 1.268 . S
O166 Sc156 2.105 . S
O166 C160 1.268 . S
O167 Sc154 2.105 . S
O167 C161 1.268 1_565 S
O168 Sc156 2.105 . S
O168 C162 1.268 1_655 S
O169 Sc155 2.105 . S
O169 C163 1.268 1_556 S
O170 Sc154 2.105 . S
O170 C162 1.268 1_655 S
O171 Sc155 2.105 . S
O171 C161 1.268 1_565 S
O172 Sc156 2.105 . S
O172 C163 1.268 1_556 S
O173 Sc154 2.105 . S
O173 C159 1.268 . S
O174 Sc156 2.105 . S
O174 C158 1.268 . S
O175 Sc155 2.105 . S
O175 C160 1.268 . S
Sc176 O179 2.025 . S
Sc176 O186 2.105 . S
Sc176 O189 2.105 . S
Sc176 O192 2.105 . S
Sc176 O195 2.105 . S
Sc177 O179 2.025 . S
Sc177 O187 2.105 . S
Sc177 O191 2.105 . S
Sc177 O193 2.105 . S
Sc177 O197 2.105 . S
Sc178 O179 2.025 . S
Sc178 O188 2.105 . S
Sc178 O190 2.105 . S
Sc178 O194 2.105 . S
Sc178 O196 2.105 . S
O179 Sc176 2.025 . S
O179 Sc177 2.025 . S
O179 Sc178 2.025 . S
C180 O186 1.268 . S
C180 O196 1.268 . S
C181 O187 1.268 . S
C181 O195 1.268 . S
C182 O188 1.268 . S
C182 O197 1.268 . S
C183 O189 1.268 . S
C183 O193 1.268 . S
C184 O190 1.268 . S
C184 O192 1.268 . S
C185 O191 1.268 . S
C185 O194 1.268 . S
O186 Sc176 2.105 . S
O186 C180 1.268 . S
O187 Sc177 2.105 . S
O187 C181 1.268 . S
O188 Sc178 2.105 . S
O188 C182 1.268 . S
O189 Sc176 2.105 . S
O189 C183 1.268 . S
O190 Sc178 2.105 . S
O190 C184 1.268 . S
O191 Sc177 2.105 . S
O191 C185 1.268 . S
O192 Sc176 2.105 . S
O192 C184 1.268 . S
O193 Sc177 2.105 . S
O193 C183 1.268 . S
O194 Sc178 2.105 . S
O194 C185 1.268 . S
O195 Sc176 2.105 . S
O195 C181 1.268 . S
O196 Sc178 2.105 . S
O196 C180 1.268 . S
O197 Sc177 2.105 . S
O197 C182 1.268 . S
Sc198 O201 2.025 . S
Sc198 O208 2.105 . S
Sc198 O211 2.105 . S
Sc198 O214 2.105 . S
Sc198 O217 2.105 . S
Sc199 O201 2.025 . S
Sc199 O209 2.105 . S
Sc199 O213 2.105 . S
Sc199 O215 2.105 . S
Sc199 O219 2.105 . S
Sc200 O201 2.025 . S
Sc200 O210 2.105 . S
Sc200 O212 2.105 . S
Sc200 O216 2.105 . S
Sc200 O218 2.105 . S
O201 Sc198 2.025 . S
O201 Sc199 2.025 . S
O201 Sc200 2.025 . S
C202 O208 1.268 . S
C202 O218 1.268 . S
C203 O209 1.268 . S
C203 O217 1.268 . S
C204 O210 1.268 . S
C204 O219 1.268 . S
C205 O211 1.268 . S
C205 O215 1.268 . S
C206 O212 1.268 . S
C206 O214 1.268 . S
C207 O213 1.268 . S
C207 O216 1.268 . S
O208 Sc198 2.105 . S
O208 C202 1.268 . S
O209 Sc199 2.105 . S
O209 C203 1.268 . S
O210 Sc200 2.105 . S
O210 C204 1.268 . S
O211 Sc198 2.105 . S
O211 C205 1.268 . S
O212 Sc200 2.105 . S
O212 C206 1.268 . S
O213 Sc199 2.105 . S
O213 C207 1.268 . S
O214 Sc198 2.105 . S
O214 C206 1.268 . S
O215 Sc199 2.105 . S
O215 C205 1.268 . S
O216 Sc200 2.105 . S
O216 C207 1.268 . S
O217 Sc198 2.105 . S
O217 C203 1.268 . S
O218 Sc200 2.105 . S
O218 C202 1.268 . S
O219 Sc199 2.105 . S
O219 C204 1.268 . S
Sc220 O223 2.025 . S
Sc220 O230 2.105 . S
Sc220 O233 2.105 . S
Sc220 O236 2.105 . S
Sc220 O239 2.105 . S
Sc221 O223 2.025 . S
Sc221 O231 2.105 . S
Sc221 O235 2.105 . S
Sc221 O237 2.105 . S
Sc221 O241 2.105 . S
Sc222 O223 2.025 . S
Sc222 O232 2.105 . S
Sc222 O234 2.105 . S
Sc222 O238 2.105 . S
Sc222 O240 2.105 . S
O223 Sc220 2.025 . S
O223 Sc221 2.025 . S
O223 Sc222 2.025 . S
C224 O230 1.268 . S
C224 O240 1.268 . S
C225 O231 1.268 . S
C225 O239 1.268 . S
C226 O232 1.268 . S
C226 O241 1.268 . S
C227 O233 1.268 . S
C227 O237 1.268 . S
C228 O234 1.268 . S
C228 O236 1.268 . S
C229 O235 1.268 1_655 S
C229 O238 1.268 1_655 S
O230 Sc220 2.105 . S
O230 C224 1.268 . S
O231 Sc221 2.105 . S
O231 C225 1.268 . S
O232 Sc222 2.105 . S
O232 C226 1.268 . S
O233 Sc220 2.105 . S
O233 C227 1.268 . S
O234 Sc222 2.105 . S
O234 C228 1.268 . S
O235 Sc221 2.105 . S
O235 C229 1.268 1_455 S
O236 Sc220 2.105 . S
O236 C228 1.268 . S
O237 Sc221 2.105 . S
O237 C227 1.268 . S
O238 Sc222 2.105 . S
O238 C229 1.268 1_455 S
O239 Sc220 2.105 . S
O239 C225 1.268 . S
O240 Sc222 2.105 . S
O240 C224 1.268 . S
O241 Sc221 2.105 . S
O241 C226 1.268 . S
Sc242 O245 2.025 . S
Sc242 O252 2.105 . S
Sc242 O255 2.105 . S
Sc242 O258 2.105 . S
Sc242 O261 2.105 . S
Sc243 O245 2.025 . S
Sc243 O253 2.105 . S
Sc243 O257 2.105 . S
Sc243 O259 2.105 . S
Sc243 O263 2.105 . S
Sc244 O245 2.025 . S
Sc244 O254 2.105 . S
Sc244 O256 2.105 . S
Sc244 O260 2.105 . S
Sc244 O262 2.105 . S
O245 Sc242 2.025 . S
O245 Sc243 2.025 . S
O245 Sc244 2.025 . S
C246 O252 1.268 1_455 S
C246 O262 1.268 1_455 S
C247 O253 1.268 . S
C247 O261 1.268 . S
C248 O254 1.268 1_565 S
C248 O263 1.268 1_565 S
C249 O255 1.268 . S
C249 O259 1.268 . S
C250 O256 1.268 . S
C250 O258 1.268 . S
C251 O257 1.268 . S
C251 O260 1.268 . S
O252 Sc242 2.105 . S
O252 C246 1.268 1_655 S
O253 Sc243 2.105 . S
O253 C247 1.268 . S
O254 Sc244 2.105 . S
O254 C248 1.268 1_545 S
O255 Sc242 2.105 . S
O255 C249 1.268 . S
O256 Sc244 2.105 . S
O256 C250 1.268 . S
O257 Sc243 2.105 . S
O257 C251 1.268 . S
O258 Sc242 2.105 . S
O258 C250 1.268 . S
O259 Sc243 2.105 . S
O259 C249 1.268 . S
O260 Sc244 2.105 . S
O260 C251 1.268 . S
O261 Sc242 2.105 . S
O261 C247 1.268 . S
O262 Sc244 2.105 . S
O262 C246 1.268 1_655 S
O263 Sc243 2.105 . S
O263 C248 1.268 1_545 S
Sc264 O267 2.025 . S
Sc264 O274 2.105 . S
Sc264 O277 2.105 . S
Sc264 O280 2.105 . S
Sc264 O283 2.105 . S
Sc265 O267 2.025 . S
Sc265 O275 2.105 . S
Sc265 O279 2.105 . S
Sc265 O281 2.105 . S
Sc265 O285 2.105 . S
Sc266 O267 2.025 . S
Sc266 O276 2.105 . S
Sc266 O278 2.105 . S
Sc266 O282 2.105 . S
Sc266 O284 2.105 . S
O267 Sc264 2.025 . S
O267 Sc265 2.025 . S
O267 Sc266 2.025 . S
C268 O274 1.268 . S
C268 O284 1.268 . S
C269 O275 1.268 . S
C269 O283 1.268 . S
C270 O276 1.268 . S
C270 O285 1.268 . S
C271 O277 1.268 . S
C271 O281 1.268 . S
C272 O278 1.268 . S
C272 O280 1.268 . S
C273 O279 1.268 . S
C273 O282 1.268 . S
O274 Sc264 2.105 . S
O274 C268 1.268 . S
O275 Sc265 2.105 . S
O275 C269 1.268 . S
O276 Sc266 2.105 . S
O276 C270 1.268 . S
O277 Sc264 2.105 . S
O277 C271 1.268 . S
O278 Sc266 2.105 . S
O278 C272 1.268 . S
O279 Sc265 2.105 . S
O279 C273 1.268 . S
O280 Sc264 2.105 . S
O280 C272 1.268 . S
O281 Sc265 2.105 . S
O281 C271 1.268 . S
O282 Sc266 2.105 . S
O282 C273 1.268 . S
O283 Sc264 2.105 . S
O283 C269 1.268 . S
O284 Sc266 2.105 . S
O284 C268 1.268 . S
O285 Sc265 2.105 . S
O285 C270 1.268 . S
Sc286 O289 2.025 . S
Sc286 O296 2.105 . S
Sc286 O299 2.105 . S
Sc286 O302 2.105 . S
Sc286 O305 2.105 . S
Sc287 O289 2.025 . S
Sc287 O297 2.105 . S
Sc287 O301 2.105 . S
Sc287 O303 2.105 . S
Sc287 O307 2.105 . S
Sc288 O289 2.025 . S
Sc288 O298 2.105 . S
Sc288 O300 2.105 . S
Sc288 O304 2.105 . S
Sc288 O306 2.105 . S
O289 Sc286 2.025 . S
O289 Sc287 2.025 . S
O289 Sc288 2.025 . S
C290 O296 1.268 . S
C290 O306 1.268 . S
C291 O297 1.268 . S
C291 O305 1.268 . S
C292 O298 1.268 . S
C292 O307 1.268 . S
C293 O299 1.268 . S
C293 O303 1.268 . S
C294 O300 1.268 . S
C294 O302 1.268 . S
C295 O301 1.268 . S
C295 O304 1.268 . S
O296 Sc286 2.105 . S
O296 C290 1.268 . S
O297 Sc287 2.105 . S
O297 C291 1.268 . S
O298 Sc288 2.105 . S
O298 C292 1.268 . S
O299 Sc286 2.105 . S
O299 C293 1.268 . S
O300 Sc288 2.105 . S
O300 C294 1.268 . S
O301 Sc287 2.105 . S
O301 C295 1.268 . S
O302 Sc286 2.105 . S
O302 C294 1.268 . S
O303 Sc287 2.105 . S
O303 C293 1.268 . S
O304 Sc288 2.105 . S
O304 C295 1.268 . S
O305 Sc286 2.105 . S
O305 C291 1.268 . S
O306 Sc288 2.105 . S
O306 C290 1.268 . S
O307 Sc287 2.105 . S
O307 C292 1.268 . S
Sc308 O311 2.025 . S
Sc308 O318 2.105 . S
Sc308 O321 2.105 . S
Sc308 O324 2.105 . S
Sc308 O327 2.105 . S
Sc309 O311 2.025 . S
Sc309 O319 2.105 . S
Sc309 O323 2.105 . S
Sc309 O325 2.105 . S
Sc309 O329 2.105 . S
Sc310 O311 2.025 . S
Sc310 O320 2.105 . S
Sc310 O322 2.105 . S
Sc310 O326 2.105 . S
Sc310 O328 2.105 . S
O311 Sc308 2.025 . S
O311 Sc309 2.025 . S
O311 Sc310 2.025 . S
C312 O318 1.268 . S
C312 O328 1.268 . S
C313 O319 1.268 . S
C313 O327 1.268 . S
C314 O320 1.268 . S
C314 O329 1.268 . S
C315 O321 1.268 . S
C315 O325 1.268 . S
C316 O322 1.268 . S
C316 O324 1.268 . S
C317 O323 1.268 1_565 S
C317 O326 1.268 1_565 S
O318 Sc308 2.105 . S
O318 C312 1.268 . S
O319 Sc309 2.105 . S
O319 C313 1.268 . S
O320 Sc310 2.105 . S
O320 C314 1.268 . S
O321 Sc308 2.105 . S
O321 C315 1.268 . S
O322 Sc310 2.105 . S
O322 C316 1.268 . S
O323 Sc309 2.105 . S
O323 C317 1.268 1_545 S
O324 Sc308 2.105 . S
O324 C316 1.268 . S
O325 Sc309 2.105 . S
O325 C315 1.268 . S
O326 Sc310 2.105 . S
O326 C317 1.268 1_545 S
O327 Sc308 2.105 . S
O327 C313 1.268 . S
O328 Sc310 2.105 . S
O328 C312 1.268 . S
O329 Sc309 2.105 . S
O329 C314 1.268 . S
Sc330 O333 2.025 . S
Sc330 O340 2.105 . S
Sc330 O343 2.105 . S
Sc330 O346 2.105 . S
Sc330 O349 2.105 . S
Sc331 O333 2.025 . S
Sc331 O341 2.105 . S
Sc331 O345 2.105 . S
Sc331 O347 2.105 . S
Sc331 O351 2.105 . S
Sc332 O333 2.025 . S
Sc332 O342 2.105 . S
Sc332 O344 2.105 . S
Sc332 O348 2.105 . S
Sc332 O350 2.105 . S
O333 Sc330 2.025 . S
O333 Sc331 2.025 . S
O333 Sc332 2.025 . S
C334 O340 1.268 . S
C334 O350 1.268 . S
C335 O341 1.268 . S
C335 O349 1.268 . S
C336 O342 1.268 . S
C336 O351 1.268 . S
C337 O343 1.268 . S
C337 O347 1.268 . S
C338 O344 1.268 . S
C338 O346 1.268 . S
C339 O345 1.268 . S
C339 O348 1.268 . S
O340 Sc330 2.105 . S
O340 C334 1.268 . S
O341 Sc331 2.105 . S
O341 C335 1.268 . S
O342 Sc332 2.105 . S
O342 C336 1.268 . S
O343 Sc330 2.105 . S
O343 C337 1.268 . S
O344 Sc332 2.105 . S
O344 C338 1.268 . S
O345 Sc331 2.105 . S
O345 C339 1.268 . S
O346 Sc330 2.105 . S
O346 C338 1.268 . S
O347 Sc331 2.105 . S
O347 C337 1.268 . S
O348 Sc332 2.105 . S
O348 C339 1.268 . S
O349 Sc330 2.105 . S
O349 C335 1.268 . S
O350 Sc332 2.105 . S
O350 C334 1.268 . S
O351 Sc331 2.105 . S
O351 C336 1.268 . S
C352 O364 1.241 1_554 S
C352 O365 1.280 1_554 S
C353 O366 1.277 . S
C353 O367 1.245 . S
C354 O378 1.254 . S
C354 O380 1.289 . S
Mg355 O356 1.926 1_455 S
Mg355 O365 1.984 1_455 S
Mg355 O367 1.988 . S
Mg355 O368 2.059 1_455 S
O356 Mg355 1.926 1_655 S
O356 Mg357 1.986 . S
O356 Mg358 1.917 1_655 S
Mg357 O356 1.986 . S
Mg357 O364 2.042 . S
Mg357 O366 2.041 1_655 S
Mg357 O372 2.038 . S
Mg357 O380 2.238 1_655 S
Mg358 O356 1.917 1_455 S
Mg358 O359 1.917 . S
Mg358 O369 2.106 1_455 S
Mg358 O371 2.079 1_455 S
Mg358 O380 2.106 . S
Mg358 O381 2.079 . S
O359 Mg358 1.917 . S
O359 Mg360 1.926 1_455 S
O359 Mg361 1.986 . S
Mg360 O359 1.926 1_655 S
Mg360 O374 1.984 1_655 S
Mg360 O377 1.988 . S
Mg360 O378 2.058 1_655 S
Mg361 O359 1.986 . S
Mg361 O369 2.238 1_455 S
Mg361 O373 2.042 . S
Mg361 O375 2.041 1_455 S
Mg361 O382 2.038 . S
C362 O368 1.252 . S
C362 O369 1.289 . S
C363 O381 1.245 . S
C363 O382 1.274 . S
O364 C352 1.241 1_556 S
O364 Mg357 2.042 . S
O365 C352 1.280 1_556 S
O365 Mg355 1.984 1_655 S
O366 C353 1.277 . S
O366 Mg357 2.041 1_455 S
O367 C353 1.245 . S
O367 Mg355 1.988 . S
O368 Mg355 2.059 1_655 S
O368 C362 1.252 . S
O369 Mg358 2.106 1_655 S
O369 Mg361 2.238 1_655 S
O369 C362 1.289 . S
C370 O371 1.245 . S
C370 O372 1.274 . S
O371 Mg358 2.079 1_655 S
O371 C370 1.245 . S
O372 Mg357 2.038 . S
O372 C370 1.274 . S
O373 Mg361 2.042 . S
O373 C376 1.241 . S
O374 Mg360 1.984 1_455 S
O374 C376 1.280 . S
O375 Mg361 2.041 1_655 S
O375 C379 1.277 . S
C376 O373 1.241 . S
C376 O374 1.280 . S
O377 Mg360 1.988 . S
O377 C379 1.245 . S
O378 C354 1.254 . S
O378 Mg360 2.058 1_455 S
C379 O375 1.277 . S
C379 O377 1.245 . S
O380 C354 1.289 . S
O380 Mg357 2.238 1_455 S
O380 Mg358 2.106 . S
O381 Mg358 2.079 . S
O381 C363 1.245 . S
O382 Mg361 2.038 . S
O382 C363 1.274 . S
C383 O395 1.241 . S
C383 O396 1.280 . S
C384 O397 1.277 . S
C384 O398 1.245 . S
C385 O409 1.247 . S
C385 O411 1.289 . S
Mg386 O387 1.926 . S
Mg386 O396 1.984 . S
Mg386 O398 1.988 . S
Mg386 O399 2.061 . S
O387 Mg386 1.926 . S
O387 Mg388 1.986 . S
O387 Mg389 1.917 . S
Mg388 O387 1.986 . S
Mg388 O395 2.042 . S
Mg388 O397 2.041 . S
Mg388 O403 2.038 . S
Mg388 O411 2.238 . S
Mg389 O387 1.917 . S
Mg389 O390 1.917 . S
Mg389 O400 2.106 . S
Mg389 O402 2.079 . S
Mg389 O411 2.106 . S
Mg389 O412 2.079 . S
O390 Mg389 1.917 . S
O390 Mg391 1.926 . S
O390 Mg392 1.986 . S
Mg391 O390 1.926 . S
Mg391 O405 1.984 . S
Mg391 O408 1.988 . S
Mg391 O409 2.061 . S
Mg392 O390 1.986 . S
Mg392 O400 2.238 . S
Mg392 O404 2.042 . S
Mg392 O406 2.041 . S
Mg392 O413 2.038 . S
C393 O399 1.247 . S
C393 O400 1.289 . S
C394 O412 1.245 . S
C394 O413 1.274 . S
O395 C383 1.241 . S
O395 Mg388 2.042 . S
O396 C383 1.280 . S
O396 Mg386 1.984 . S
O397 C384 1.277 . S
O397 Mg388 2.041 . S
O398 C384 1.245 . S
O398 Mg386 1.988 . S
O399 Mg386 2.061 . S
O399 C393 1.247 . S
O400 Mg389 2.106 . S
O400 Mg392 2.238 . S
O400 C393 1.289 . S
C401 O402 1.245 . S
C401 O403 1.274 . S
O402 Mg389 2.079 . S
O402 C401 1.245 . S
O403 Mg388 2.038 . S
O403 C401 1.274 . S
O404 Mg392 2.042 . S
O404 C407 1.241 . S
O405 Mg391 1.984 . S
O405 C407 1.280 . S
O406 Mg392 2.041 . S
O406 C410 1.277 . S
C407 O404 1.241 . S
C407 O405 1.280 . S
O408 Mg391 1.988 . S
O408 C410 1.245 . S
O409 C385 1.247 . S
O409 Mg391 2.061 . S
C410 O406 1.277 . S
C410 O408 1.245 . S
O411 C385 1.289 . S
O411 Mg388 2.238 . S
O411 Mg389 2.106 . S
O412 Mg389 2.079 . S
O412 C394 1.245 . S
O413 Mg392 2.038 . S
O413 C394 1.274 . S
C414 O426 1.241 . S
C414 O427 1.280 . S
C415 O428 1.277 . S
C415 O429 1.245 . S
C416 O440 1.247 . S
C416 O442 1.289 . S
Mg417 O418 1.926 1_455 S
Mg417 O427 1.984 1_455 S
Mg417 O429 1.988 . S
Mg417 O430 2.061 . S
O418 Mg417 1.926 1_655 S
O418 Mg419 1.986 . S
O418 Mg420 1.917 1_655 S
Mg419 O418 1.986 . S
Mg419 O426 2.042 . S
Mg419 O428 2.041 1_655 S
Mg419 O434 2.038 . S
Mg419 O442 2.238 1_655 S
Mg420 O418 1.917 1_455 S
Mg420 O421 1.917 . S
Mg420 O431 2.105 1_455 S
Mg420 O433 2.079 1_455 S
Mg420 O442 2.106 . S
Mg420 O443 2.079 . S
O421 Mg420 1.917 . S
O421 Mg422 1.926 1_455 S
O421 Mg423 1.986 . S
Mg422 O421 1.926 1_655 S
Mg422 O436 1.984 1_655 S
Mg422 O439 1.988 . S
Mg422 O440 2.061 1_655 S
Mg423 O421 1.986 . S
Mg423 O431 2.226 1_455 S
Mg423 O435 2.042 . S
Mg423 O437 2.041 1_455 S
Mg423 O444 2.038 . S
C424 O430 1.247 1_655 S
C424 O431 1.293 . S
C425 O443 1.245 . S
C425 O444 1.274 . S
O426 C414 1.241 . S
O426 Mg419 2.042 . S
O427 C414 1.280 . S
O427 Mg417 1.984 1_655 S
O428 C415 1.277 . S
O428 Mg419 2.041 1_455 S
O429 C415 1.245 . S
O429 Mg417 1.988 . S
O430 Mg417 2.061 . S
O430 C424 1.247 1_455 S
O431 Mg420 2.105 1_655 S
O431 Mg423 2.226 1_655 S
O431 C424 1.293 . S
C432 O433 1.245 . S
C432 O434 1.274 . S
O433 Mg420 2.079 1_655 S
O433 C432 1.245 . S
O434 Mg419 2.038 . S
O434 C432 1.274 . S
O435 Mg423 2.042 . S
O435 C438 1.241 . S
O436 Mg422 1.984 1_455 S
O436 C438 1.280 . S
O437 Mg423 2.041 1_655 S
O437 C441 1.277 . S
C438 O435 1.241 . S
C438 O436 1.280 . S
O439 Mg422 1.988 . S
O439 C441 1.245 . S
O440 C416 1.247 . S
O440 Mg422 2.061 1_455 S
C441 O437 1.277 . S
C441 O439 1.245 . S
O442 C416 1.289 . S
O442 Mg419 2.238 1_455 S
O442 Mg420 2.106 . S
O443 Mg420 2.079 . S
O443 C425 1.245 . S
O444 Mg423 2.038 . S
O444 C425 1.274 . S
C445 O457 1.241 . S
C445 O458 1.280 . S
C446 O459 1.277 . S
C446 O460 1.245 . S
C447 O471 1.247 . S
C447 O473 1.289 . S
Mg448 O449 1.926 1_565 S
Mg448 O458 1.984 1_565 S
Mg448 O460 1.988 . S
Mg448 O461 2.061 1_565 S
O449 Mg448 1.926 1_545 S
O449 Mg450 1.986 . S
O449 Mg451 1.920 . S
Mg450 O449 1.986 . S
Mg450 O457 2.042 . S
Mg450 O459 2.041 1_545 S
Mg450 O465 2.038 . S
Mg450 O473 2.238 1_545 S
Mg451 O449 1.920 . S
Mg451 O452 1.914 1_545 S
Mg451 O462 2.107 . S
Mg451 O464 2.092 . S
Mg451 O473 2.106 1_545 S
Mg451 O474 2.065 1_545 S
O452 Mg451 1.914 1_565 S
O452 Mg453 1.926 1_565 S
O452 Mg454 1.986 . S
Mg453 O452 1.926 1_545 S
Mg453 O467 1.984 1_545 S
Mg453 O470 1.988 . S
Mg453 O471 2.061 1_545 S
Mg454 O452 1.986 . S
Mg454 O462 2.238 1_565 S
Mg454 O466 2.042 . S
Mg454 O468 2.041 1_565 S
Mg454 O475 2.038 . S
C455 O461 1.247 . S
C455 O462 1.289 . S
C456 O474 1.245 . S
C456 O475 1.274 . S
O457 C445 1.241 . S
O457 Mg450 2.042 . S
O458 C445 1.280 . S
O458 Mg448 1.984 1_545 S
O459 C446 1.277 . S
O459 Mg450 2.041 1_565 S
O460 C446 1.245 . S
O460 Mg448 1.988 . S
O461 Mg448 2.061 1_545 S
O461 C455 1.247 . S
O462 Mg451 2.107 . S
O462 Mg454 2.238 1_545 S
O462 C455 1.289 . S
C463 O464 1.245 . S
C463 O465 1.274 . S
O464 Mg451 2.092 . S
O464 C463 1.245 . S
O465 Mg450 2.038 . S
O465 C463 1.274 . S
O466 Mg454 2.042 . S
O466 C469 1.241 . S
O467 Mg453 1.984 1_565 S
O467 C469 1.280 . S
O468 Mg454 2.041 1_545 S
O468 C472 1.277 . S
C469 O466 1.241 . S
C469 O467 1.280 . S
O470 Mg453 1.988 . S
O470 C472 1.245 . S
O471 C447 1.247 . S
O471 Mg453 2.061 1_565 S
C472 O468 1.277 . S
C472 O470 1.245 . S
O473 C447 1.289 . S
O473 Mg450 2.238 1_565 S
O473 Mg451 2.106 1_565 S
O474 Mg451 2.065 1_565 S
O474 C456 1.245 . S
O475 Mg454 2.038 . S
O475 C456 1.274 . S
C476 O488 1.241 1_545 S
C476 O489 1.280 1_545 S
C477 O490 1.277 . S
C477 O491 1.245 . S
C478 O502 1.247 . S
C478 O504 1.289 . S
Mg479 O480 1.915 1_554 S
Mg479 O489 1.984 1_554 S
Mg479 O491 1.988 . S
Mg479 O492 2.061 . S
O480 Mg479 1.915 1_556 S
O480 Mg481 1.997 . S
O480 Mg482 1.915 1_556 S
Mg481 O480 1.997 . S
Mg481 O488 2.042 . S
Mg481 O490 2.041 1_556 S
Mg481 O496 2.038 . S
Mg481 O504 2.238 . S
Mg482 O480 1.915 1_554 S
Mg482 O483 1.917 . S
Mg482 O493 2.106 . S
Mg482 O495 2.079 1_554 S
Mg482 O504 2.106 1_554 S
Mg482 O505 2.079 . S
O483 Mg482 1.917 . S
O483 Mg484 1.926 1_554 S
O483 Mg485 1.986 . S
Mg484 O483 1.926 1_556 S
Mg484 O498 1.984 1_556 S
Mg484 O501 1.988 . S
Mg484 O502 2.061 . S
Mg485 O483 1.986 . S
Mg485 O493 2.238 . S
Mg485 O497 2.042 . S
Mg485 O499 2.041 . S
Mg485 O506 2.038 . S
C486 O492 1.247 . S
C486 O493 1.289 . S
C487 O505 1.245 . S
C487 O506 1.274 . S
O488 C476 1.241 1_565 S
O488 Mg481 2.042 . S
O489 C476 1.280 1_565 S
O489 Mg479 1.984 1_556 S
O490 C477 1.277 . S
O490 Mg481 2.041 1_554 S
O491 C477 1.245 . S
O491 Mg479 1.988 . S
O492 Mg479 2.061 . S
O492 C486 1.247 . S
O493 Mg482 2.106 . S
O493 Mg485 2.238 . S
O493 C486 1.289 . S
C494 O495 1.245 . S
C494 O496 1.274 . S
O495 Mg482 2.079 1_556 S
O495 C494 1.245 . S
O496 Mg481 2.038 . S
O496 C494 1.274 . S
O497 Mg485 2.042 . S
O497 C500 1.241 . S
O498 Mg484 1.984 1_554 S
O498 C500 1.280 . S
O499 Mg485 2.041 . S
O499 C503 1.277 1_554 S
C500 O497 1.241 . S
C500 O498 1.280 . S
O501 Mg484 1.988 . S
O501 C503 1.245 . S
O502 C478 1.247 . S
O502 Mg484 2.061 . S
C503 O499 1.277 1_556 S
C503 O501 1.245 . S
O504 C478 1.289 . S
O504 Mg481 2.238 . S
O504 Mg482 2.106 1_556 S
O505 Mg482 2.079 . S
O505 C487 1.245 . S
O506 Mg485 2.038 . S
O506 C487 1.274 . S
C507 O519 1.241 . S
C507 O520 1.280 . S
C508 O521 1.277 . S
C508 O522 1.245 . S
C509 O533 1.247 . S
C509 O535 1.289 . S
Mg510 O511 1.926 . S
Mg510 O520 1.984 . S
Mg510 O522 1.988 . S
Mg510 O523 2.061 . S
O511 Mg510 1.926 . S
O511 Mg512 1.986 . S
O511 Mg513 1.917 . S
Mg512 O511 1.986 . S
Mg512 O519 2.042 . S
Mg512 O521 2.041 . S
Mg512 O527 2.038 . S
Mg512 O535 2.238 . S
Mg513 O511 1.917 . S
Mg513 O514 1.917 . S
Mg513 O524 2.106 . S
Mg513 O526 2.079 . S
Mg513 O535 2.106 . S
Mg513 O536 2.079 . S
O514 Mg513 1.917 . S
O514 Mg515 1.926 . S
O514 Mg516 1.986 . S
Mg515 O514 1.926 . S
Mg515 O529 1.984 . S
Mg515 O532 1.988 . S
Mg515 O533 2.061 . S
Mg516 O514 1.986 . S
Mg516 O524 2.238 . S
Mg516 O528 2.042 . S
Mg516 O530 2.041 . S
Mg516 O537 2.038 . S
C517 O523 1.247 . S
C517 O524 1.289 . S
C518 O536 1.245 . S
C518 O537 1.274 . S
O519 C507 1.241 . S
O519 Mg512 2.042 . S
O520 C507 1.280 . S
O520 Mg510 1.984 . S
O521 C508 1.277 . S
O521 Mg512 2.041 . S
O522 C508 1.245 . S
O522 Mg510 1.988 . S
O523 Mg510 2.061 . S
O523 C517 1.247 . S
O524 Mg513 2.106 . S
O524 Mg516 2.238 . S
O524 C517 1.289 . S
C525 O526 1.245 . S
C525 O527 1.274 . S
O526 Mg513 2.079 . S
O526 C525 1.245 . S
O527 Mg512 2.038 . S
O527 C525 1.274 . S
O528 Mg516 2.042 . S
O528 C531 1.241 . S
O529 Mg515 1.984 . S
O529 C531 1.280 . S
O530 Mg516 2.041 . S
O530 C534 1.277 . S
C531 O528 1.241 . S
C531 O529 1.280 . S
O532 Mg515 1.988 . S
O532 C534 1.245 . S
O533 C509 1.247 . S
O533 Mg515 2.061 . S
C534 O530 1.277 . S
C534 O532 1.245 . S
O535 C509 1.289 . S
O535 Mg512 2.238 . S
O535 Mg513 2.106 . S
O536 Mg513 2.079 . S
O536 C518 1.245 . S
O537 Mg516 2.038 . S
O537 C518 1.274 . S
C538 O550 1.241 . S
C538 O551 1.280 . S
C539 O552 1.277 . S
C539 O553 1.245 . S
C540 O564 1.239 1_556 S
C540 O566 1.289 . S
Mg541 O542 1.926 1_556 S
Mg541 O551 1.984 1_556 S
Mg541 O553 1.988 . S
Mg541 O554 2.065 . S
O542 Mg541 1.926 1_554 S
O542 Mg543 1.986 . S
O542 Mg544 1.917 . S
Mg543 O542 1.986 . S
Mg543 O550 2.042 . S
Mg543 O552 2.041 1_554 S
Mg543 O558 2.038 . S
Mg543 O566 2.238 1_554 S
Mg544 O542 1.917 . S
Mg544 O545 1.917 1_554 S
Mg544 O555 2.106 . S
Mg544 O557 2.079 . S
Mg544 O566 2.106 1_554 S
Mg544 O567 2.079 1_554 S
O545 Mg544 1.917 1_556 S
O545 Mg546 1.926 1_556 S
O545 Mg547 1.986 . S
Mg546 O545 1.926 1_554 S
Mg546 O560 1.984 1_554 S
Mg546 O563 1.988 . S
Mg546 O564 2.067 . S
Mg547 O545 1.986 . S
Mg547 O555 2.238 1_556 S
Mg547 O559 2.042 . S
Mg547 O561 2.041 1_556 S
Mg547 O568 2.038 . S
C548 O554 1.241 1_554 S
C548 O555 1.289 . S
C549 O567 1.245 . S
C549 O568 1.274 . S
O550 C538 1.241 . S
O550 Mg543 2.042 . S
O551 C538 1.280 . S
O551 Mg541 1.984 1_554 S
O552 C539 1.277 . S
O552 Mg543 2.041 1_556 S
O553 C539 1.245 . S
O553 Mg541 1.988 . S
O554 Mg541 2.065 . S
O554 C548 1.241 1_556 S
O555 Mg544 2.106 . S
O555 Mg547 2.238 1_554 S
O555 C548 1.289 . S
C556 O557 1.245 . S
C556 O558 1.274 . S
O557 Mg544 2.079 . S
O557 C556 1.245 . S
O558 Mg543 2.038 . S
O558 C556 1.274 . S
O559 Mg547 2.042 . S
O559 C562 1.241 . S
O560 Mg546 1.984 1_556 S
O560 C562 1.280 . S
O561 Mg547 2.041 1_554 S
O561 C565 1.277 . S
C562 O559 1.241 . S
C562 O560 1.280 . S
O563 Mg546 1.988 . S
O563 C565 1.245 . S
O564 C540 1.239 1_554 S
O564 Mg546 2.067 . S
C565 O561 1.277 . S
C565 O563 1.245 . S
O566 C540 1.289 . S
O566 Mg543 2.238 1_556 S
O566 Mg544 2.106 1_556 S
O567 Mg544 2.079 1_556 S
O567 C549 1.245 . S
O568 Mg547 2.038 . S
O568 C549 1.274 . S
C569 O581 1.241 . S
C569 O582 1.280 . S
C570 O583 1.277 . S
C570 O584 1.245 . S
C571 O595 1.247 . S
C571 O597 1.289 . S
Mg572 O573 1.926 . S
Mg572 O582 1.984 . S
Mg572 O584 1.988 . S
Mg572 O585 2.061 . S
O573 Mg572 1.926 . S
O573 Mg574 1.986 . S
O573 Mg575 1.917 . S
Mg574 O573 1.986 . S
Mg574 O581 2.042 . S
Mg574 O583 2.041 . S
Mg574 O589 2.038 . S
Mg574 O597 2.238 . S
Mg575 O573 1.917 . S
Mg575 O576 1.917 . S
Mg575 O586 2.106 . S
Mg575 O588 2.079 . S
Mg575 O597 2.106 . S
Mg575 O598 2.079 . S
O576 Mg575 1.917 . S
O576 Mg577 1.926 . S
O576 Mg578 1.986 . S
Mg577 O576 1.926 . S
Mg577 O591 1.984 . S
Mg577 O594 1.988 . S
Mg577 O595 2.061 . S
Mg578 O576 1.986 . S
Mg578 O586 2.238 . S
Mg578 O590 2.042 . S
Mg578 O592 2.041 . S
Mg578 O599 2.038 . S
C579 O585 1.247 . S
C579 O586 1.289 . S
C580 O598 1.245 . S
C580 O599 1.274 . S
O581 C569 1.241 . S
O581 Mg574 2.042 . S
O582 C569 1.280 . S
O582 Mg572 1.984 . S
O583 C570 1.277 . S
O583 Mg574 2.041 . S
O584 C570 1.245 . S
O584 Mg572 1.988 . S
O585 Mg572 2.061 . S
O585 C579 1.247 . S
O586 Mg575 2.106 . S
O586 Mg578 2.238 . S
O586 C579 1.289 . S
C587 O588 1.245 . S
C587 O589 1.274 . S
O588 Mg575 2.079 . S
O588 C587 1.245 . S
O589 Mg574 2.038 . S
O589 C587 1.274 . S
O590 Mg578 2.042 . S
O590 C593 1.241 . S
O591 Mg577 1.984 . S
O591 C593 1.280 . S
O592 Mg578 2.041 . S
O592 C596 1.277 . S
C593 O590 1.241 . S
C593 O591 1.280 . S
O594 Mg577 1.988 . S
O594 C596 1.245 . S
O595 C571 1.247 . S
O595 Mg577 2.061 . S
C596 O592 1.277 . S
C596 O594 1.245 . S
O597 C571 1.289 . S
O597 Mg574 2.238 . S
O597 Mg575 2.106 . S
O598 Mg575 2.079 . S
O598 C580 1.245 . S
O599 Mg578 2.038 . S
O599 C580 1.274 . S
C600 O612 1.241 . S
C600 O613 1.280 . S
C601 O614 1.277 . S
C601 O615 1.245 . S
C602 O626 1.247 . S
C602 O628 1.289 . S
Mg603 O604 1.926 . S
Mg603 O613 1.984 . S
Mg603 O615 1.988 . S
Mg603 O616 2.061 . S
O604 Mg603 1.926 . S
O604 Mg605 1.986 . S
O604 Mg606 1.917 . S
Mg605 O604 1.986 . S
Mg605 O612 2.042 . S
Mg605 O614 2.041 . S
Mg605 O620 2.038 . S
Mg605 O628 2.238 . S
Mg606 O604 1.917 . S
Mg606 O607 1.917 . S
Mg606 O617 2.106 . S
Mg606 O619 2.079 . S
Mg606 O628 2.106 . S
Mg606 O629 2.079 . S
O607 Mg606 1.917 . S
O607 Mg608 1.926 . S
O607 Mg609 1.986 . S
Mg608 O607 1.926 . S
Mg608 O622 1.984 . S
Mg608 O625 1.988 . S
Mg608 O626 2.061 . S
Mg609 O607 1.986 . S
Mg609 O617 2.238 . S
Mg609 O621 2.042 . S
Mg609 O623 2.041 . S
Mg609 O630 2.038 . S
C610 O616 1.247 . S
C610 O617 1.289 . S
C611 O629 1.245 . S
C611 O630 1.274 . S
O612 C600 1.241 . S
O612 Mg605 2.042 . S
O613 C600 1.280 . S
O613 Mg603 1.984 . S
O614 C601 1.277 . S
O614 Mg605 2.041 . S
O615 C601 1.245 . S
O615 Mg603 1.988 . S
O616 Mg603 2.061 . S
O616 C610 1.247 . S
O617 Mg606 2.106 . S
O617 Mg609 2.238 . S
O617 C610 1.289 . S
C618 O619 1.245 . S
C618 O620 1.274 . S
O619 Mg606 2.079 . S
O619 C618 1.245 . S
O620 Mg605 2.038 . S
O620 C618 1.274 . S
O621 Mg609 2.042 . S
O621 C624 1.241 . S
O622 Mg608 1.984 . S
O622 C624 1.280 . S
O623 Mg609 2.041 . S
O623 C627 1.277 . S
C624 O621 1.241 . S
C624 O622 1.280 . S
O625 Mg608 1.988 . S
O625 C627 1.245 . S
O626 C602 1.247 . S
O626 Mg608 2.061 . S
C627 O623 1.277 . S
C627 O625 1.245 . S
O628 C602 1.289 . S
O628 Mg605 2.238 . S
O628 Mg606 2.106 . S
O629 Mg606 2.079 . S
O629 C611 1.245 . S
O630 Mg609 2.038 . S
O630 C611 1.274 . S
C631 O643 1.241 . S
C631 O644 1.280 . S
C632 O645 1.277 . S
C632 O646 1.245 . S
C633 O657 1.247 . S
C633 O659 1.289 . S
Mg634 O635 1.926 . S
Mg634 O644 1.984 . S
Mg634 O646 1.988 . S
Mg634 O647 2.061 . S
O635 Mg634 1.926 . S
O635 Mg636 1.986 . S
O635 Mg637 1.917 . S
Mg636 O635 1.986 . S
Mg636 O643 2.042 . S
Mg636 O645 2.041 . S
Mg636 O651 2.038 . S
Mg636 O659 2.238 . S
Mg637 O635 1.917 . S
Mg637 O638 1.917 . S
Mg637 O648 2.106 . S
Mg637 O650 2.079 . S
Mg637 O659 2.106 . S
Mg637 O660 2.079 . S
O638 Mg637 1.917 . S
O638 Mg639 1.926 . S
O638 Mg640 1.986 . S
Mg639 O638 1.926 . S
Mg639 O653 1.984 . S
Mg639 O656 1.988 . S
Mg639 O657 2.061 . S
Mg640 O638 1.986 . S
Mg640 O648 2.238 . S
Mg640 O652 2.042 . S
Mg640 O654 2.041 . S
Mg640 O661 2.038 . S
C641 O647 1.247 . S
C641 O648 1.289 . S
C642 O660 1.245 . S
C642 O661 1.274 . S
O643 C631 1.241 . S
O643 Mg636 2.042 . S
O644 C631 1.280 . S
O644 Mg634 1.984 . S
O645 C632 1.277 . S
O645 Mg636 2.041 . S
O646 C632 1.245 . S
O646 Mg634 1.988 . S
O647 Mg634 2.061 . S
O647 C641 1.247 . S
O648 Mg637 2.106 . S
O648 Mg640 2.238 . S
O648 C641 1.289 . S
C649 O650 1.245 . S
C649 O651 1.274 . S
O650 Mg637 2.079 . S
O650 C649 1.245 . S
O651 Mg636 2.038 . S
O651 C649 1.274 . S
O652 Mg640 2.042 . S
O652 C655 1.241 . S
O653 Mg639 1.984 . S
O653 C655 1.280 . S
O654 Mg640 2.041 . S
O654 C658 1.277 . S
C655 O652 1.241 . S
C655 O653 1.280 . S
O656 Mg639 1.988 . S
O656 C658 1.245 . S
O657 C633 1.247 . S
O657 Mg639 2.061 . S
C658 O654 1.277 . S
C658 O656 1.245 . S
O659 C633 1.289 . S
O659 Mg636 2.238 . S
O659 Mg637 2.106 . S
O660 Mg637 2.079 . S
O660 C642 1.245 . S
O661 Mg640 2.038 . S
O661 C642 1.274 . S
C662 O674 1.241 . S
C662 O675 1.280 . S
C663 O676 1.277 . S
C663 O677 1.245 . S
C664 O688 1.247 . S
C664 O690 1.289 . S
Mg665 O666 1.926 1_565 S
Mg665 O675 1.984 1_565 S
Mg665 O677 1.988 . S
Mg665 O678 2.061 1_565 S
O666 Mg665 1.926 1_545 S
O666 Mg667 1.986 . S
O666 Mg668 1.921 . S
Mg667 O666 1.986 . S
Mg667 O674 2.042 . S
Mg667 O676 2.041 1_545 S
Mg667 O682 2.038 . S
Mg667 O690 2.238 1_545 S
Mg668 O666 1.921 . S
Mg668 O669 1.913 1_545 S
Mg668 O679 2.108 . S
Mg668 O681 2.096 . S
Mg668 O690 2.105 1_545 S
Mg668 O691 2.062 1_545 S
O669 Mg668 1.913 1_565 S
O669 Mg670 1.926 1_565 S
O669 Mg671 1.986 . S
Mg670 O669 1.926 1_545 S
Mg670 O684 1.984 1_545 S
Mg670 O687 1.988 . S
Mg670 O688 2.061 1_545 S
Mg671 O669 1.986 . S
Mg671 O679 2.238 1_565 S
Mg671 O683 2.042 . S
Mg671 O685 2.041 1_565 S
Mg671 O692 2.038 . S
C672 O678 1.247 . S
C672 O679 1.289 . S
C673 O691 1.245 . S
C673 O692 1.274 . S
O674 C662 1.241 . S
O674 Mg667 2.042 . S
O675 C662 1.280 . S
O675 Mg665 1.984 1_545 S
O676 C663 1.277 . S
O676 Mg667 2.041 1_565 S
O677 C663 1.245 . S
O677 Mg665 1.988 . S
O678 Mg665 2.061 1_545 S
O678 C672 1.247 . S
O679 Mg668 2.108 . S
O679 Mg671 2.238 1_545 S
O679 C672 1.289 . S
C680 O681 1.245 . S
C680 O682 1.274 . S
O681 Mg668 2.096 . S
O681 C680 1.245 . S
O682 Mg667 2.038 . S
O682 C680 1.274 . S
O683 Mg671 2.042 . S
O683 C686 1.241 . S
O684 Mg670 1.984 1_565 S
O684 C686 1.280 . S
O685 Mg671 2.041 1_545 S
O685 C689 1.277 . S
C686 O683 1.241 . S
C686 O684 1.280 . S
O687 Mg670 1.988 . S
O687 C689 1.245 . S
O688 C664 1.247 . S
O688 Mg670 2.061 1_565 S
C689 O685 1.277 . S
C689 O687 1.245 . S
O690 C664 1.289 . S
O690 Mg667 2.238 1_565 S
O690 Mg668 2.105 1_565 S
O691 Mg668 2.062 1_565 S
O691 C673 1.245 . S
O692 Mg671 2.038 . S
O692 C673 1.274 . S
C693 O705 1.240 1_556 S
C693 O706 1.279 1_556 S
C694 O707 1.277 . S
C694 O708 1.245 . S
C695 O719 1.247 . S
C695 O721 1.289 . S
Mg696 O697 1.926 . S
Mg696 O706 1.984 . S
Mg696 O708 1.988 . S
Mg696 O709 2.061 . S
O697 Mg696 1.926 . S
O697 Mg698 1.986 . S
O697 Mg699 1.917 . S
Mg698 O697 1.986 . S
Mg698 O705 2.042 . S
Mg698 O707 2.041 . S
Mg698 O713 2.038 . S
Mg698 O721 2.238 . S
Mg699 O697 1.917 . S
Mg699 O700 1.917 . S
Mg699 O710 2.106 . S
Mg699 O712 2.079 . S
Mg699 O721 2.106 . S
Mg699 O722 2.079 . S
O700 Mg699 1.917 . S
O700 Mg701 1.926 . S
O700 Mg702 1.986 . S
Mg701 O700 1.926 . S
Mg701 O715 1.984 . S
Mg701 O718 1.988 . S
Mg701 O719 2.061 . S
Mg702 O700 1.986 . S
Mg702 O710 2.238 . S
Mg702 O714 2.042 . S
Mg702 O716 2.041 . S
Mg702 O723 2.038 . S
C703 O709 1.247 . S
C703 O710 1.289 . S
C704 O722 1.245 . S
C704 O723 1.274 . S
O705 C693 1.240 1_554 S
O705 Mg698 2.042 . S
O706 C693 1.279 1_554 S
O706 Mg696 1.984 . S
O707 C694 1.277 . S
O707 Mg698 2.041 . S
O708 C694 1.245 . S
O708 Mg696 1.988 . S
O709 Mg696 2.061 . S
O709 C703 1.247 . S
O710 Mg699 2.106 . S
O710 Mg702 2.238 . S
O710 C703 1.289 . S
C711 O712 1.245 . S
C711 O713 1.274 . S
O712 Mg699 2.079 . S
O712 C711 1.245 . S
O713 Mg698 2.038 . S
O713 C711 1.274 . S
O714 Mg702 2.042 . S
O714 C717 1.241 . S
O715 Mg701 1.984 . S
O715 C717 1.280 . S
O716 Mg702 2.041 . S
O716 C720 1.277 . S
C717 O714 1.241 . S
C717 O715 1.280 . S
O718 Mg701 1.988 . S
O718 C720 1.245 . S
O719 C695 1.247 . S
O719 Mg701 2.061 . S
C720 O716 1.277 . S
C720 O718 1.245 . S
O721 C695 1.289 . S
O721 Mg698 2.238 . S
O721 Mg699 2.106 . S
O722 Mg699 2.079 . S
O722 C704 1.245 . S
O723 Mg702 2.038 . S
O723 C704 1.274 . S
C724 C725 1.387 . S
C724 H728 0.950 . S
C724 C733 1.390 . S
C725 C724 1.387 . S
C725 C727 1.387 . S
H726 C733 0.950 . S
C727 C725 1.387 . S
C727 C729 1.390 . S
C727 H731 0.950 . S
H728 C724 0.950 . S
C729 C727 1.390 . S
C729 C730 1.387 . S
C729 H732 0.950 . S
C730 C729 1.387 . S
C730 C733 1.387 . S
H731 C727 0.950 . S
H732 C729 0.950 . S
C733 C724 1.390 . S
C733 H726 0.950 . S
C733 C730 1.387 . S
C734 C735 1.387 . S
C734 H738 0.950 . S
C734 C743 1.390 . S
C735 C734 1.387 . S
C735 C737 1.387 . S
H736 C743 0.950 . S
C737 C735 1.387 . S
C737 C739 1.390 . S
C737 H741 0.950 . S
H738 C734 0.950 . S
C739 C737 1.390 . S
C739 C740 1.387 . S
C739 H742 0.950 . S
C740 C739 1.387 . S
C740 C743 1.387 . S
H741 C737 0.950 . S
H742 C739 0.950 . S
C743 C734 1.390 . S
C743 H736 0.950 . S
C743 C740 1.387 . S
C744 C745 1.387 . S
C744 H748 0.950 . S
C744 C753 1.390 . S
C745 C744 1.387 . S
C745 C747 1.387 . S
H746 C753 0.950 . S
C747 C745 1.387 . S
C747 C749 1.390 . S
C747 H751 0.950 . S
H748 C744 0.950 . S
C749 C747 1.390 . S
C749 C750 1.387 . S
C749 H752 0.950 . S
C750 C749 1.387 . S
C750 C753 1.387 . S
H751 C747 0.950 . S
H752 C749 0.950 . S
C753 C744 1.390 . S
C753 H746 0.950 . S
C753 C750 1.387 . S
C754 C755 1.387 . S
C754 H758 0.950 . S
C754 C763 1.390 . S
C755 C754 1.387 . S
C755 C757 1.387 . S
H756 C763 0.950 . S
C757 C755 1.387 . S
C757 C759 1.390 . S
C757 H761 0.950 . S
H758 C754 0.950 . S
C759 C757 1.390 . S
C759 C760 1.387 . S
C759 H762 0.950 . S
C760 C759 1.387 . S
C760 C763 1.387 . S
H761 C757 0.950 . S
H762 C759 0.950 . S
C763 C754 1.390 . S
C763 H756 0.950 . S
C763 C760 1.387 . S
C764 C765 1.387 . S
C764 H768 0.950 . S
C764 C773 1.390 . S
C765 C764 1.387 . S
C765 C767 1.387 . S
H766 C773 0.950 . S
C767 C765 1.387 . S
C767 C769 1.390 . S
C767 H771 0.950 . S
H768 C764 0.950 . S
C769 C767 1.390 . S
C769 C770 1.387 . S
C769 H772 0.950 . S
C770 C769 1.387 . S
C770 C773 1.387 . S
H771 C767 0.950 . S
H772 C769 0.950 . S
C773 C764 1.390 . S
C773 H766 0.950 . S
C773 C770 1.387 . S
C774 C775 1.387 . S
C774 H778 0.950 . S
C774 C783 1.390 . S
C775 C774 1.387 . S
C775 C777 1.387 . S
H776 C783 0.950 . S
C777 C775 1.387 . S
C777 C779 1.390 . S
C777 H781 0.950 . S
H778 C774 0.950 . S
C779 C777 1.390 . S
C779 C780 1.387 . S
C779 H782 0.950 . S
C780 C779 1.387 . S
C780 C783 1.387 . S
H781 C777 0.950 . S
H782 C779 0.950 . S
C783 C774 1.390 . S
C783 H776 0.950 . S
C783 C780 1.387 . S
C784 C785 1.387 . S
C784 H788 0.950 . S
C784 C793 1.390 . S
C785 C784 1.387 . S
C785 C787 1.387 . S
H786 C793 0.950 . S
C787 C785 1.387 . S
C787 C789 1.390 . S
C787 H791 0.950 . S
H788 C784 0.950 . S
C789 C787 1.390 . S
C789 C790 1.387 . S
C789 H792 0.950 . S
C790 C789 1.387 . S
C790 C793 1.387 . S
H791 C787 0.950 . S
H792 C789 0.950 . S
C793 C784 1.390 . S
C793 H786 0.950 . S
C793 C790 1.387 . S
C794 C795 1.387 . S
C794 H798 0.950 . S
C794 C803 1.390 . S
C795 C794 1.387 . S
C795 C797 1.387 . S
H796 C803 0.950 . S
C797 C795 1.387 . S
C797 C799 1.390 . S
C797 H801 0.950 . S
H798 C794 0.950 . S
C799 C797 1.390 . S
C799 C800 1.387 . S
C799 H802 0.950 . S
C800 C799 1.387 . S
C800 C803 1.387 . S
H801 C797 0.950 . S
H802 C799 0.950 . S
C803 C794 1.390 . S
C803 H796 0.950 . S
C803 C800 1.387 . S
C804 C805 1.387 . S
C804 H808 0.950 . S
C804 C813 1.390 . S
C805 C804 1.387 . S
C805 C807 1.387 . S
H806 C813 0.950 . S
C807 C805 1.387 . S
C807 C809 1.390 . S
C807 H811 0.950 . S
H808 C804 0.950 . S
C809 C807 1.390 . S
C809 C810 1.387 . S
C809 H812 0.950 . S
C810 C809 1.387 . S
C810 C813 1.387 . S
H811 C807 0.950 . S
H812 C809 0.950 . S
C813 C804 1.390 . S
C813 H806 0.950 . S
C813 C810 1.387 . S
C814 C815 1.387 . S
C814 H818 0.950 . S
C814 C823 1.390 . S
C815 C814 1.387 . S
C815 C817 1.387 . S
H816 C823 0.950 . S
C817 C815 1.387 . S
C817 C819 1.390 . S
C817 H821 0.950 . S
H818 C814 0.950 . S
C819 C817 1.390 . S
C819 C820 1.387 . S
C819 H822 0.950 . S
C820 C819 1.387 . S
C820 C823 1.387 . S
H821 C817 0.950 . S
H822 C819 0.950 . S
C823 C814 1.390 . S
C823 H816 0.950 . S
C823 C820 1.387 . S
C824 C825 1.387 . S
C824 H828 0.950 . S
C824 C833 1.390 . S
C825 C824 1.387 . S
C825 C827 1.387 . S
H826 C833 0.950 . S
C827 C825 1.387 . S
C827 C829 1.390 . S
C827 H831 0.950 . S
H828 C824 0.950 . S
C829 C827 1.390 . S
C829 C830 1.387 . S
C829 H832 0.950 . S
C830 C829 1.387 . S
C830 C833 1.387 . S
H831 C827 0.950 . S
H832 C829 0.950 . S
C833 C824 1.390 . S
C833 H826 0.950 . S
C833 C830 1.387 . S
C834 C835 1.387 . S
C834 H838 0.950 . S
C834 C843 1.390 . S
C835 C834 1.387 . S
C835 C837 1.387 . S
H836 C843 0.950 . S
C837 C835 1.387 . S
C837 C839 1.390 . S
C837 H841 0.950 . S
H838 C834 0.950 . S
C839 C837 1.390 . S
C839 C840 1.387 . S
C839 H842 0.950 . S
C840 C839 1.387 . S
C840 C843 1.387 . S
H841 C837 0.950 . S
H842 C839 0.950 . S
C843 C834 1.390 . S
C843 H836 0.950 . S
C843 C840 1.387 . S
C844 C845 1.387 . S
C844 H848 0.950 . S
C844 C853 1.390 . S
C845 C844 1.387 . S
C845 C847 1.387 . S
H846 C853 0.950 . S
C847 C845 1.387 . S
C847 C849 1.390 . S
C847 H851 0.950 . S
H848 C844 0.950 . S
C849 C847 1.390 . S
C849 C850 1.387 . S
C849 H852 0.950 . S
C850 C849 1.387 . S
C850 C853 1.387 . S
H851 C847 0.950 . S
H852 C849 0.950 . S
C853 C844 1.390 . S
C853 H846 0.950 . S
C853 C850 1.387 . S
C854 C855 1.387 . S
C854 H858 0.950 . S
C854 C863 1.390 . S
C855 C854 1.387 . S
C855 C857 1.387 . S
H856 C863 0.950 . S
C857 C855 1.387 . S
C857 C859 1.390 . S
C857 H861 0.950 . S
H858 C854 0.950 . S
C859 C857 1.390 . S
C859 C860 1.387 . S
C859 H862 0.950 . S
C860 C859 1.387 . S
C860 C863 1.387 . S
H861 C857 0.950 . S
H862 C859 0.950 . S
C863 C854 1.390 . S
C863 H856 0.950 . S
C863 C860 1.387 . S
C864 C865 1.387 . S
C864 H868 0.950 . S
C864 C873 1.390 . S
C865 C864 1.387 . S
C865 C867 1.387 . S
H866 C873 0.950 . S
C867 C865 1.387 . S
C867 C869 1.390 . S
C867 H871 0.950 . S
H868 C864 0.950 . S
C869 C867 1.390 . S
C869 C870 1.387 . S
C869 H872 0.950 . S
C870 C869 1.387 . S
C870 C873 1.387 . S
H871 C867 0.950 . S
H872 C869 0.950 . S
C873 C864 1.390 . S
C873 H866 0.950 . S
C873 C870 1.387 . S
C874 C875 1.387 . S
C874 H878 0.950 . S
C874 C883 1.390 . S
C875 C874 1.387 . S
C875 C877 1.387 . S
H876 C883 0.950 . S
C877 C875 1.387 . S
C877 C879 1.390 . S
C877 H881 0.950 . S
H878 C874 0.950 . S
C879 C877 1.390 . S
C879 C880 1.387 . S
C879 H882 0.950 . S
C880 C879 1.387 . S
C880 C883 1.387 . S
H881 C877 0.950 . S
H882 C879 0.950 . S
C883 C874 1.390 . S
C883 H876 0.950 . S
C883 C880 1.387 . S
C884 C885 1.387 . S
C884 H888 0.950 . S
C884 C893 1.390 1_554 S
C885 C884 1.387 . S
C885 C887 1.387 . S
H886 C893 0.950 . S
C887 C885 1.387 . S
C887 C889 1.390 . S
C887 H891 0.950 . S
H888 C884 0.950 . S
C889 C887 1.390 . S
C889 C890 1.387 1_554 S
C889 H892 0.950 . S
C890 C889 1.387 1_556 S
C890 C893 1.387 . S
H891 C887 0.950 . S
H892 C889 0.950 . S
C893 C884 1.390 1_556 S
C893 H886 0.950 . S
C893 C890 1.387 . S
C894 C895 1.387 . S
C894 H898 0.950 . S
C894 C903 1.390 . S
C895 C894 1.387 . S
C895 C897 1.387 . S
H896 C903 0.950 . S
C897 C895 1.387 . S
C897 C899 1.390 . S
C897 H901 0.950 . S
H898 C894 0.950 . S
C899 C897 1.390 . S
C899 C900 1.387 . S
C899 H902 0.950 . S
C900 C899 1.387 . S
C900 C903 1.387 . S
H901 C897 0.950 . S
H902 C899 0.950 . S
C903 C894 1.390 . S
C903 H896 0.950 . S
C903 C900 1.387 . S
C904 C905 1.387 . S
C904 H908 0.950 . S
C904 C913 1.390 . S
C905 C904 1.387 . S
C905 C907 1.387 . S
H906 C913 0.950 . S
C907 C905 1.387 . S
C907 C909 1.390 . S
C907 H911 0.950 . S
H908 C904 0.950 . S
C909 C907 1.390 . S
C909 C910 1.387 . S
C909 H912 0.950 . S
C910 C909 1.387 . S
C910 C913 1.387 . S
H911 C907 0.950 . S
H912 C909 0.950 . S
C913 C904 1.390 . S
C913 H906 0.950 . S
C913 C910 1.387 . S
C914 C915 1.387 . S
C914 H918 0.950 . S
C914 C923 1.390 . S
C915 C914 1.387 . S
C915 C917 1.387 . S
H916 C923 0.950 . S
C917 C915 1.387 . S
C917 C919 1.390 . S
C917 H921 0.950 . S
H918 C914 0.950 . S
C919 C917 1.390 . S
C919 C920 1.387 . S
C919 H922 0.950 . S
C920 C919 1.387 . S
C920 C923 1.387 . S
H921 C917 0.950 . S
H922 C919 0.950 . S
C923 C914 1.390 . S
C923 H916 0.950 . S
C923 C920 1.387 . S
C924 C925 1.387 . S
C924 H928 0.950 . S
C924 C933 1.390 . S
C925 C924 1.387 . S
C925 C927 1.387 . S
H926 C933 0.950 . S
C927 C925 1.387 . S
C927 C929 1.390 . S
C927 H931 0.950 . S
H928 C924 0.950 . S
C929 C927 1.390 . S
C929 C930 1.387 . S
C929 H932 0.950 . S
C930 C929 1.387 . S
C930 C933 1.387 . S
H931 C927 0.950 . S
H932 C929 0.950 . S
C933 C924 1.390 . S
C933 H926 0.950 . S
C933 C930 1.387 . S
C934 C935 1.387 . S
C934 H938 0.950 . S
C934 C943 1.390 . S
C935 C934 1.387 . S
C935 C937 1.387 . S
H936 C943 0.950 . S
C937 C935 1.387 . S
C937 C939 1.390 . S
C937 H941 0.950 . S
H938 C934 0.950 . S
C939 C937 1.390 . S
C939 C940 1.387 . S
C939 H942 0.950 . S
C940 C939 1.387 . S
C940 C943 1.387 . S
H941 C937 0.950 . S
H942 C939 0.950 . S
C943 C934 1.390 . S
C943 H936 0.950 . S
C943 C940 1.387 . S
C944 C945 1.387 . S
C944 H948 0.950 . S
C944 C953 1.390 . S
C945 C944 1.387 . S
C945 C947 1.387 . S
H946 C953 0.950 . S
C947 C945 1.387 . S
C947 C949 1.390 . S
C947 H951 0.950 . S
H948 C944 0.950 . S
C949 C947 1.390 . S
C949 C950 1.387 . S
C949 H952 0.950 . S
C950 C949 1.387 . S
C950 C953 1.387 . S
H951 C947 0.950 . S
H952 C949 0.950 . S
C953 C944 1.390 . S
C953 H946 0.950 . S
C953 C950 1.387 . S
C954 C955 1.387 . S
C954 H958 0.950 . S
C954 C963 1.390 . S
C955 C954 1.387 . S
C955 C957 1.387 . S
H956 C963 0.950 . S
C957 C955 1.387 . S
C957 C959 1.390 . S
C957 H961 0.950 . S
H958 C954 0.950 . S
C959 C957 1.390 . S
C959 C960 1.387 . S
C959 H962 0.950 . S
C960 C959 1.387 . S
C960 C963 1.387 . S
H961 C957 0.950 . S
H962 C959 0.950 . S
C963 C954 1.390 . S
C963 H956 0.950 . S
C963 C960 1.387 . S
C964 C965 1.387 . S
C964 H968 0.950 . S
C964 C973 1.390 . S
C965 C964 1.387 . S
C965 C967 1.387 . S
H966 C973 0.950 . S
C967 C965 1.387 . S
C967 C969 1.390 . S
C967 H971 0.950 . S
H968 C964 0.950 . S
C969 C967 1.390 . S
C969 C970 1.387 . S
C969 H972 0.950 . S
C970 C969 1.387 . S
C970 C973 1.387 . S
H971 C967 0.950 . S
H972 C969 0.950 . S
C973 C964 1.390 . S
C973 H966 0.950 . S
C973 C970 1.387 . S
C974 C975 1.387 . S
C974 H978 0.950 . S
C974 C983 1.390 . S
C975 C974 1.387 . S
C975 C977 1.387 . S
H976 C983 0.950 1_556 S
C977 C975 1.387 . S
C977 C979 1.390 . S
C977 H981 0.950 . S
H978 C974 0.950 . S
C979 C977 1.390 . S
C979 C980 1.387 . S
C979 H982 0.950 . S
C980 C979 1.387 . S
C980 C983 1.387 . S
H981 C977 0.950 . S
H982 C979 0.950 . S
C983 C974 1.390 . S
C983 H976 0.950 1_554 S
C983 C980 1.387 . S
C984 C985 1.387 . S
C984 H988 0.950 . S
C984 C993 1.390 . S
C985 C984 1.387 . S
C985 C987 1.387 . S
H986 C993 0.950 . S
C987 C985 1.387 . S
C987 C989 1.390 . S
C987 H991 0.950 . S
H988 C984 0.950 . S
C989 C987 1.390 . S
C989 C990 1.387 . S
C989 H992 0.950 . S
C990 C989 1.387 . S
C990 C993 1.387 . S
H991 C987 0.950 . S
H992 C989 0.950 . S
C993 C984 1.390 . S
C993 H986 0.950 . S
C993 C990 1.387 . S
C994 C995 1.387 . S
C994 H998 0.950 . S
C994 C1003 1.390 . S
C995 C994 1.387 . S
C995 C997 1.387 . S
H996 C1003 0.950 . S
C997 C995 1.387 . S
C997 C999 1.390 . S
C997 H1001 0.950 . S
H998 C994 0.950 . S
C999 C997 1.390 . S
C999 C1000 1.387 . S
C999 H1002 0.950 . S
C1000 C999 1.387 . S
C1000 C1003 1.387 . S
H1001 C997 0.950 . S
H1002 C999 0.950 . S
C1003 C994 1.390 . S
C1003 H996 0.950 . S
C1003 C1000 1.387 . S
C1004 C1005 1.387 . S
C1004 H1008 0.950 . S
C1004 C1013 1.390 . S
C1005 C1004 1.387 . S
C1005 C1007 1.387 . S
H1006 C1013 0.950 . S
C1007 C1005 1.387 . S
C1007 C1009 1.390 . S
C1007 H1011 0.950 . S
H1008 C1004 0.950 . S
C1009 C1007 1.390 . S
C1009 C1010 1.387 . S
C1009 H1012 0.950 . S
C1010 C1009 1.387 . S
C1010 C1013 1.387 . S
H1011 C1007 0.950 . S
H1012 C1009 0.950 . S
C1013 C1004 1.390 . S
C1013 H1006 0.950 . S
C1013 C1010 1.387 . S
C1014 C1015 1.387 . S
C1014 H1018 0.950 . S
C1014 C1023 1.390 . S
C1015 C1014 1.387 . S
C1015 C1017 1.387 . S
H1016 C1023 0.950 . S
C1017 C1015 1.387 . S
C1017 C1019 1.390 . S
C1017 H1021 0.950 . S
H1018 C1014 0.950 . S
C1019 C1017 1.390 . S
C1019 C1020 1.387 . S
C1019 H1022 0.950 . S
C1020 C1019 1.387 . S
C1020 C1023 1.387 . S
H1021 C1017 0.950 . S
H1022 C1019 0.950 . S
C1023 C1014 1.390 . S
C1023 H1016 0.950 . S
C1023 C1020 1.387 . S
C1024 C1025 1.387 . S
C1024 H1028 0.950 . S
C1024 C1033 1.390 . S
C1025 C1024 1.387 . S
C1025 C1027 1.387 . S
H1026 C1033 0.950 . S
C1027 C1025 1.387 . S
C1027 C1029 1.390 . S
C1027 H1031 0.950 . S
H1028 C1024 0.950 . S
C1029 C1027 1.390 . S
C1029 C1030 1.387 . S
C1029 H1032 0.950 . S
C1030 C1029 1.387 . S
C1030 C1033 1.387 . S
H1031 C1027 0.950 . S
H1032 C1029 0.950 . S
C1033 C1024 1.390 . S
C1033 H1026 0.950 . S
C1033 C1030 1.387 . S
C1034 C1035 1.387 . S
C1034 H1038 0.950 . S
C1034 C1043 1.390 . S
C1035 C1034 1.387 . S
C1035 C1037 1.387 . S
H1036 C1043 0.950 . S
C1037 C1035 1.387 . S
C1037 C1039 1.390 . S
C1037 H1041 0.950 . S
H1038 C1034 0.950 . S
C1039 C1037 1.390 . S
C1039 C1040 1.387 . S
C1039 H1042 0.950 . S
C1040 C1039 1.387 . S
C1040 C1043 1.387 . S
H1041 C1037 0.950 . S
H1042 C1039 0.950 . S
C1043 C1034 1.390 . S
C1043 H1036 0.950 . S
C1043 C1040 1.387 . S
C1044 C1045 1.387 . S
C1044 H1048 0.950 . S
C1044 C1053 1.390 . S
C1045 C1044 1.387 . S
C1045 C1047 1.387 . S
H1046 C1053 0.950 . S
C1047 C1045 1.387 . S
C1047 C1049 1.390 . S
C1047 H1051 0.950 . S
H1048 C1044 0.950 . S
C1049 C1047 1.390 . S
C1049 C1050 1.387 . S
C1049 H1052 0.950 . S
C1050 C1049 1.387 . S
C1050 C1053 1.387 . S
H1051 C1047 0.950 . S
H1052 C1049 0.950 . S
C1053 C1044 1.390 . S
C1053 H1046 0.950 . S
C1053 C1050 1.387 . S
C1054 C1055 1.387 . S
C1054 H1058 0.950 . S
C1054 C1063 1.390 . S
C1055 C1054 1.387 . S
C1055 C1057 1.387 . S
H1056 C1063 0.950 . S
C1057 C1055 1.387 . S
C1057 C1059 1.390 . S
C1057 H1061 0.950 . S
H1058 C1054 0.950 . S
C1059 C1057 1.390 . S
C1059 C1060 1.387 . S
C1059 H1062 0.950 . S
C1060 C1059 1.387 . S
C1060 C1063 1.387 . S
H1061 C1057 0.950 . S
H1062 C1059 0.950 . S
C1063 C1054 1.390 . S
C1063 H1056 0.950 . S
C1063 C1060 1.387 . S
C1064 C1065 1.387 . S
C1064 H1068 0.950 . S
C1064 C1073 1.390 . S
C1065 C1064 1.387 . S
C1065 C1067 1.387 . S
H1066 C1073 0.950 . S
C1067 C1065 1.387 . S
C1067 C1069 1.390 . S
C1067 H1071 0.950 . S
H1068 C1064 0.950 . S
C1069 C1067 1.390 . S
C1069 C1070 1.387 . S
C1069 H1072 0.950 . S
C1070 C1069 1.387 . S
C1070 C1073 1.387 . S
H1071 C1067 0.950 . S
H1072 C1069 0.950 . S
C1073 C1064 1.390 . S
C1073 H1066 0.950 . S
C1073 C1070 1.387 . S
C1074 C1075 1.387 . S
C1074 H1078 0.950 . S
C1074 C1083 1.390 . S
C1075 C1074 1.387 . S
C1075 C1077 1.387 . S
H1076 C1083 0.950 . S
C1077 C1075 1.387 . S
C1077 C1079 1.390 . S
C1077 H1081 0.950 . S
H1078 C1074 0.950 . S
C1079 C1077 1.390 . S
C1079 C1080 1.387 . S
C1079 H1082 0.950 . S
C1080 C1079 1.387 . S
C1080 C1083 1.387 . S
H1081 C1077 0.950 . S
H1082 C1079 0.950 . S
C1083 C1074 1.390 . S
C1083 H1076 0.950 . S
C1083 C1080 1.387 . S
C1084 C1085 1.387 . S
C1084 H1088 0.950 . S
C1084 C1093 1.390 . S
C1085 C1084 1.387 . S
C1085 C1087 1.387 . S
H1086 C1093 0.950 . S
C1087 C1085 1.387 . S
C1087 C1089 1.390 . S
C1087 H1091 0.950 . S
H1088 C1084 0.950 . S
C1089 C1087 1.390 . S
C1089 C1090 1.387 . S
C1089 H1092 0.950 . S
C1090 C1089 1.387 . S
C1090 C1093 1.387 . S
H1091 C1087 0.950 . S
H1092 C1089 0.950 . S
C1093 C1084 1.390 . S
C1093 H1086 0.950 . S
C1093 C1090 1.387 . S
C1094 C1095 1.387 . S
C1094 H1098 0.950 . S
C1094 C1103 1.390 . S
C1095 C1094 1.387 . S
C1095 C1097 1.387 . S
H1096 C1103 0.950 . S
C1097 C1095 1.387 . S
C1097 C1099 1.390 . S
C1097 H1101 0.950 . S
H1098 C1094 0.950 . S
C1099 C1097 1.390 . S
C1099 C1100 1.387 . S
C1099 H1102 0.950 . S
C1100 C1099 1.387 . S
C1100 C1103 1.387 . S
H1101 C1097 0.950 . S
H1102 C1099 0.950 . S
C1103 C1094 1.390 . S
C1103 H1096 0.950 . S
C1103 C1100 1.387 . S
C1104 C1105 1.387 . S
C1104 H1108 0.950 . S
C1104 C1113 1.390 . S
C1105 C1104 1.387 . S
C1105 C1107 1.387 . S
H1106 C1113 0.950 . S
C1107 C1105 1.387 . S
C1107 C1109 1.390 . S
C1107 H1111 0.950 . S
H1108 C1104 0.950 . S
C1109 C1107 1.390 . S
C1109 C1110 1.387 . S
C1109 H1112 0.950 . S
C1110 C1109 1.387 . S
C1110 C1113 1.387 . S
H1111 C1107 0.950 . S
H1112 C1109 0.950 . S
C1113 C1104 1.390 . S
C1113 H1106 0.950 . S
C1113 C1110 1.387 . S
C1114 C1115 1.387 . S
C1114 H1118 0.950 . S
C1114 C1123 1.390 . S
C1115 C1114 1.387 . S
C1115 C1117 1.387 . S
H1116 C1123 0.950 . S
C1117 C1115 1.387 . S
C1117 C1119 1.390 . S
C1117 H1121 0.950 . S
H1118 C1114 0.950 . S
C1119 C1117 1.390 . S
C1119 C1120 1.387 . S
C1119 H1122 0.950 . S
C1120 C1119 1.387 . S
C1120 C1123 1.387 . S
H1121 C1117 0.950 . S
H1122 C1119 0.950 . S
C1123 C1114 1.390 . S
C1123 H1116 0.950 . S
C1123 C1120 1.387 . S
C1124 C1125 1.387 . S
C1124 H1128 0.950 . S
C1124 C1133 1.390 . S
C1125 C1124 1.387 . S
C1125 C1127 1.387 . S
H1126 C1133 0.950 . S
C1127 C1125 1.387 . S
C1127 C1129 1.390 . S
C1127 H1131 0.950 . S
H1128 C1124 0.950 . S
C1129 C1127 1.390 . S
C1129 C1130 1.387 . S
C1129 H1132 0.950 . S
C1130 C1129 1.387 . S
C1130 C1133 1.387 . S
H1131 C1127 0.950 . S
H1132 C1129 0.950 . S
C1133 C1124 1.390 . S
C1133 H1126 0.950 . S
C1133 C1130 1.387 . S
C1134 C1135 1.387 . S
C1134 H1138 0.950 . S
C1134 C1143 1.390 . S
C1135 C1134 1.387 . S
C1135 C1137 1.387 . S
H1136 C1143 0.950 . S
C1137 C1135 1.387 . S
C1137 C1139 1.390 . S
C1137 H1141 0.950 . S
H1138 C1134 0.950 . S
C1139 C1137 1.390 . S
C1139 C1140 1.387 . S
C1139 H1142 0.950 . S
C1140 C1139 1.387 . S
C1140 C1143 1.387 . S
H1141 C1137 0.950 . S
H1142 C1139 0.950 . S
C1143 C1134 1.390 . S
C1143 H1136 0.950 . S
C1143 C1140 1.387 . S
C1144 C1145 1.387 . S
C1144 H1148 0.950 . S
C1144 C1153 1.390 . S
C1145 C1144 1.387 . S
C1145 C1147 1.387 . S
H1146 C1153 0.950 . S
C1147 C1145 1.387 . S
C1147 C1149 1.390 . S
C1147 H1151 0.950 . S
H1148 C1144 0.950 . S
C1149 C1147 1.390 . S
C1149 C1150 1.387 . S
C1149 H1152 0.950 . S
C1150 C1149 1.387 . S
C1150 C1153 1.387 . S
H1151 C1147 0.950 . S
H1152 C1149 0.950 . S
C1153 C1144 1.390 . S
C1153 H1146 0.950 . S
C1153 C1150 1.387 . S
C1154 C1155 1.387 . S
C1154 H1158 0.950 . S
C1154 C1163 1.390 1_556 S
C1155 C1154 1.387 . S
C1155 C1157 1.387 1_556 S
H1156 C1163 0.950 1_556 S
C1157 C1155 1.387 1_554 S
C1157 C1159 1.390 . S
C1157 H1161 0.950 . S
H1158 C1154 0.950 . S
C1159 C1157 1.390 . S
C1159 C1160 1.387 . S
C1159 H1162 0.950 . S
C1160 C1159 1.387 . S
C1160 C1163 1.387 . S
H1161 C1157 0.950 . S
H1162 C1159 0.950 . S
C1163 C1154 1.390 1_554 S
C1163 H1156 0.950 1_554 S
C1163 C1160 1.387 . S
C1164 C1165 1.387 . S
C1164 H1168 0.950 . S
C1164 C1173 1.390 . S
C1165 C1164 1.387 . S
C1165 C1167 1.387 . S
H1166 C1173 0.950 . S
C1167 C1165 1.387 . S
C1167 C1169 1.390 . S
C1167 H1171 0.950 . S
H1168 C1164 0.950 . S
C1169 C1167 1.390 . S
C1169 C1170 1.387 . S
C1169 H1172 0.950 . S
C1170 C1169 1.387 . S
C1170 C1173 1.387 . S
H1171 C1167 0.950 . S
H1172 C1169 0.950 . S
C1173 C1164 1.390 . S
C1173 H1166 0.950 . S
C1173 C1170 1.387 . S
C1174 C1175 1.387 . S
C1174 H1178 0.950 1_554 S
C1174 C1183 1.390 . S
C1175 C1174 1.387 . S
C1175 C1177 1.387 . S
H1176 C1183 0.950 . S
C1177 C1175 1.387 . S
C1177 C1179 1.390 . S
C1177 H1181 0.950 . S
H1178 C1174 0.950 1_556 S
C1179 C1177 1.390 . S
C1179 C1180 1.387 . S
C1179 H1182 0.950 . S
C1180 C1179 1.387 . S
C1180 C1183 1.387 . S
H1181 C1177 0.950 . S
H1182 C1179 0.950 . S
C1183 C1174 1.390 . S
C1183 H1176 0.950 . S
C1183 C1180 1.387 . S
C1184 C1185 1.387 . S
C1184 H1188 0.950 . S
C1184 C1193 1.390 . S
C1185 C1184 1.387 . S
C1185 C1187 1.387 . S
H1186 C1193 0.950 . S
C1187 C1185 1.387 . S
C1187 C1189 1.390 . S
C1187 H1191 0.950 . S
H1188 C1184 0.950 . S
C1189 C1187 1.390 . S
C1189 C1190 1.387 . S
C1189 H1192 0.950 . S
C1190 C1189 1.387 . S
C1190 C1193 1.387 . S
H1191 C1187 0.950 . S
H1192 C1189 0.950 . S
C1193 C1184 1.390 . S
C1193 H1186 0.950 . S
C1193 C1190 1.387 . S
C1194 C1195 1.387 . S
C1194 H1198 0.950 . S
C1194 C1203 1.390 . S
C1195 C1194 1.387 . S
C1195 C1197 1.387 . S
H1196 C1203 0.950 . S
C1197 C1195 1.387 . S
C1197 C1199 1.390 . S
C1197 H1201 0.950 . S
H1198 C1194 0.950 . S
C1199 C1197 1.390 . S
C1199 C1200 1.387 . S
C1199 H1202 0.950 . S
C1200 C1199 1.387 . S
C1200 C1203 1.387 . S
H1201 C1197 0.950 . S
H1202 C1199 0.950 . S
C1203 C1194 1.390 . S
C1203 H1196 0.950 . S
C1203 C1200 1.387 . S
C1204 C1205 1.387 . S
C1204 H1208 0.950 . S
C1204 C1213 1.390 . S
C1205 C1204 1.387 . S
C1205 C1207 1.387 . S
H1206 C1213 0.950 . S
C1207 C1205 1.387 . S
C1207 C1209 1.390 . S
C1207 H1211 0.950 . S
H1208 C1204 0.950 . S
C1209 C1207 1.390 . S
C1209 C1210 1.387 . S
C1209 H1212 0.950 . S
C1210 C1209 1.387 . S
C1210 C1213 1.387 . S
H1211 C1207 0.950 . S
H1212 C1209 0.950 . S
C1213 C1204 1.390 . S
C1213 H1206 0.950 . S
C1213 C1210 1.387 . S
C1214 C1215 1.387 . S
C1214 H1218 0.950 . S
C1214 C1223 1.390 . S
C1215 C1214 1.387 . S
C1215 C1217 1.387 . S
H1216 C1223 0.950 . S
C1217 C1215 1.387 . S
C1217 C1219 1.390 . S
C1217 H1221 0.950 . S
H1218 C1214 0.950 . S
C1219 C1217 1.390 . S
C1219 C1220 1.387 . S
C1219 H1222 0.950 . S
C1220 C1219 1.387 . S
C1220 C1223 1.387 . S
H1221 C1217 0.950 . S
H1222 C1219 0.950 . S
C1223 C1214 1.390 . S
C1223 H1216 0.950 . S
C1223 C1220 1.387 . S
C1224 C1225 1.387 . S
C1224 H1228 0.950 . S
C1224 C1233 1.390 . S
C1225 C1224 1.387 . S
C1225 C1227 1.387 . S
H1226 C1233 0.950 . S
C1227 C1225 1.387 . S
C1227 C1229 1.390 . S
C1227 H1231 0.950 . S
H1228 C1224 0.950 . S
C1229 C1227 1.390 . S
C1229 C1230 1.387 . S
C1229 H1232 0.950 . S
C1230 C1229 1.387 . S
C1230 C1233 1.387 . S
H1231 C1227 0.950 . S
H1232 C1229 0.950 . S
C1233 C1224 1.390 . S
C1233 H1226 0.950 . S
C1233 C1230 1.387 . S
C1234 C1235 1.387 . S
C1234 H1238 0.950 . S
C1234 C1243 1.390 . S
C1235 C1234 1.387 . S
C1235 C1237 1.387 . S
H1236 C1243 0.950 . S
C1237 C1235 1.387 . S
C1237 C1239 1.390 . S
C1237 H1241 0.950 . S
H1238 C1234 0.950 . S
C1239 C1237 1.390 . S
C1239 C1240 1.387 . S
C1239 H1242 0.950 . S
C1240 C1239 1.387 . S
C1240 C1243 1.387 . S
H1241 C1237 0.950 . S
H1242 C1239 0.950 . S
C1243 C1234 1.390 . S
C1243 H1236 0.950 . S
C1243 C1240 1.387 . S
C1244 C1245 1.387 . S
C1244 H1248 0.950 . S
C1244 C1253 1.390 . S
C1245 C1244 1.387 . S
C1245 C1247 1.387 . S
H1246 C1253 0.950 . S
C1247 C1245 1.387 . S
C1247 C1249 1.390 . S
C1247 H1251 0.950 . S
H1248 C1244 0.950 . S
C1249 C1247 1.390 . S
C1249 C1250 1.387 . S
C1249 H1252 0.950 . S
C1250 C1249 1.387 . S
C1250 C1253 1.387 . S
H1251 C1247 0.950 . S
H1252 C1249 0.950 . S
C1253 C1244 1.390 . S
C1253 H1246 0.950 . S
C1253 C1250 1.387 . S
C1254 C1255 1.387 . S
C1254 H1258 0.950 . S
C1254 C1263 1.390 . S
C1255 C1254 1.387 . S
C1255 C1257 1.387 . S
H1256 C1263 0.950 . S
C1257 C1255 1.387 . S
C1257 C1259 1.390 . S
C1257 H1261 0.950 . S
H1258 C1254 0.950 . S
C1259 C1257 1.390 . S
C1259 C1260 1.387 . S
C1259 H1262 0.950 . S
C1260 C1259 1.387 . S
C1260 C1263 1.387 . S
H1261 C1257 0.950 . S
H1262 C1259 0.950 . S
C1263 C1254 1.390 . S
C1263 H1256 0.950 . S
C1263 C1260 1.387 . S
C1264 C1265 1.387 . S
C1264 H1268 0.950 . S
C1264 C1273 1.390 . S
C1265 C1264 1.387 . S
C1265 C1267 1.387 . S
H1266 C1273 0.950 . S
C1267 C1265 1.387 . S
C1267 C1269 1.390 . S
C1267 H1271 0.950 . S
H1268 C1264 0.950 . S
C1269 C1267 1.390 . S
C1269 C1270 1.387 . S
C1269 H1272 0.950 . S
C1270 C1269 1.387 . S
C1270 C1273 1.387 . S
H1271 C1267 0.950 . S
H1272 C1269 0.950 . S
C1273 C1264 1.390 . S
C1273 H1266 0.950 . S
C1273 C1270 1.387 . S
C1274 C1275 1.387 . S
C1274 H1278 0.950 . S
C1274 C1283 1.390 . S
C1275 C1274 1.387 . S
C1275 C1277 1.387 . S
H1276 C1283 0.950 . S
C1277 C1275 1.387 . S
C1277 C1279 1.390 . S
C1277 H1281 0.950 . S
H1278 C1274 0.950 . S
C1279 C1277 1.390 . S
C1279 C1280 1.387 . S
C1279 H1282 0.950 . S
C1280 C1279 1.387 . S
C1280 C1283 1.387 . S
H1281 C1277 0.950 . S
H1282 C1279 0.950 . S
C1283 C1274 1.390 . S
C1283 H1276 0.950 . S
C1283 C1280 1.387 . S
C1284 C1285 1.387 . S
C1284 H1288 0.950 . S
C1284 C1293 1.390 . S
C1285 C1284 1.387 . S
C1285 C1287 1.387 . S
H1286 C1293 0.950 . S
C1287 C1285 1.387 . S
C1287 C1289 1.390 . S
C1287 H1291 0.950 . S
H1288 C1284 0.950 . S
C1289 C1287 1.390 . S
C1289 C1290 1.387 . S
C1289 H1292 0.950 . S
C1290 C1289 1.387 . S
C1290 C1293 1.387 . S
H1291 C1287 0.950 . S
H1292 C1289 0.950 . S
C1293 C1284 1.390 . S
C1293 H1286 0.950 . S
C1293 C1290 1.387 . S
C1294 C1295 1.387 . S
C1294 H1298 0.950 . S
C1294 C1303 1.390 . S
C1295 C1294 1.387 . S
C1295 C1297 1.387 . S
H1296 C1303 0.950 . S
C1297 C1295 1.387 . S
C1297 C1299 1.390 . S
C1297 H1301 0.950 . S
H1298 C1294 0.950 . S
C1299 C1297 1.390 . S
C1299 C1300 1.387 . S
C1299 H1302 0.950 . S
C1300 C1299 1.387 . S
C1300 C1303 1.387 . S
H1301 C1297 0.950 . S
H1302 C1299 0.950 . S
C1303 C1294 1.390 . S
C1303 H1296 0.950 . S
C1303 C1300 1.387 . S
C1304 C1305 1.387 . S
C1304 H1308 0.950 . S
C1304 C1313 1.390 . S
C1305 C1304 1.387 . S
C1305 C1307 1.387 . S
H1306 C1313 0.950 . S
C1307 C1305 1.387 . S
C1307 C1309 1.390 . S
C1307 H1311 0.950 . S
H1308 C1304 0.950 . S
C1309 C1307 1.390 . S
C1309 C1310 1.387 . S
C1309 H1312 0.950 . S
C1310 C1309 1.387 . S
C1310 C1313 1.387 . S
H1311 C1307 0.950 . S
H1312 C1309 0.950 . S
C1313 C1304 1.390 . S
C1313 H1306 0.950 . S
C1313 C1310 1.387 . S
C1314 C1315 1.387 . S
C1314 H1318 0.950 . S
C1314 C1323 1.390 . S
C1315 C1314 1.387 . S
C1315 C1317 1.387 . S
H1316 C1323 0.950 . S
C1317 C1315 1.387 . S
C1317 C1319 1.390 . S
C1317 H1321 0.950 . S
H1318 C1314 0.950 . S
C1319 C1317 1.390 . S
C1319 C1320 1.387 . S
C1319 H1322 0.950 1_554 S
C1320 C1319 1.387 . S
C1320 C1323 1.387 . S
H1321 C1317 0.950 . S
H1322 C1319 0.950 1_556 S
C1323 C1314 1.390 . S
C1323 H1316 0.950 . S
C1323 C1320 1.387 . S
C1324 C1325 1.387 . S
C1324 H1328 0.950 . S
C1324 C1333 1.390 . S
C1325 C1324 1.387 . S
C1325 C1327 1.387 . S
H1326 C1333 0.950 . S
C1327 C1325 1.387 . S
C1327 C1329 1.390 . S
C1327 H1331 0.950 . S
H1328 C1324 0.950 . S
C1329 C1327 1.390 . S
C1329 C1330 1.387 . S
C1329 H1332 0.950 . S
C1330 C1329 1.387 . S
C1330 C1333 1.387 . S
H1331 C1327 0.950 . S
H1332 C1329 0.950 . S
C1333 C1324 1.390 . S
C1333 H1326 0.950 . S
C1333 C1330 1.387 . S
C1334 C1335 1.387 . S
C1334 H1338 0.950 . S
C1334 C1343 1.390 . S
C1335 C1334 1.387 . S
C1335 C1337 1.387 . S
H1336 C1343 0.950 1_554 S
C1337 C1335 1.387 . S
C1337 C1339 1.390 . S
C1337 H1341 0.950 . S
H1338 C1334 0.950 . S
C1339 C1337 1.390 . S
C1339 C1340 1.387 . S
C1339 H1342 0.950 . S
C1340 C1339 1.387 . S
C1340 C1343 1.387 . S
H1341 C1337 0.950 . S
H1342 C1339 0.950 . S
C1343 C1334 1.390 . S
C1343 H1336 0.950 1_556 S
C1343 C1340 1.387 . S
C1344 C1345 1.387 . S
C1344 H1348 0.950 . S
C1344 C1353 1.390 . S
C1345 C1344 1.387 . S
C1345 C1347 1.387 . S
H1346 C1353 0.950 . S
C1347 C1345 1.387 . S
C1347 C1349 1.390 . S
C1347 H1351 0.950 . S
H1348 C1344 0.950 . S
C1349 C1347 1.390 . S
C1349 C1350 1.387 . S
C1349 H1352 0.950 . S
C1350 C1349 1.387 . S
C1350 C1353 1.387 . S
H1351 C1347 0.950 . S
H1352 C1349 0.950 . S
C1353 C1344 1.390 . S
C1353 H1346 0.950 . S
C1353 C1350 1.387 . S
C1354 C1355 1.387 . S
C1354 H1358 0.950 . S
C1354 C1363 1.390 . S
C1355 C1354 1.387 . S
C1355 C1357 1.387 . S
H1356 C1363 0.950 . S
C1357 C1355 1.387 . S
C1357 C1359 1.390 . S
C1357 H1361 0.950 . S
H1358 C1354 0.950 . S
C1359 C1357 1.390 . S
C1359 C1360 1.387 . S
C1359 H1362 0.950 . S
C1360 C1359 1.387 . S
C1360 C1363 1.387 . S
H1361 C1357 0.950 . S
H1362 C1359 0.950 . S
C1363 C1354 1.390 . S
C1363 H1356 0.950 . S
C1363 C1360 1.387 . S
C1364 C1365 1.387 . S
C1364 H1368 0.950 . S
C1364 C1373 1.390 . S
C1365 C1364 1.387 . S
C1365 C1367 1.387 . S
H1366 C1373 0.950 . S
C1367 C1365 1.387 . S
C1367 C1369 1.390 . S
C1367 H1371 0.950 . S
H1368 C1364 0.950 . S
C1369 C1367 1.390 . S
C1369 C1370 1.387 . S
C1369 H1372 0.950 . S
C1370 C1369 1.387 . S
C1370 C1373 1.387 . S
H1371 C1367 0.950 . S
H1372 C1369 0.950 . S
C1373 C1364 1.390 . S
C1373 H1366 0.950 . S
C1373 C1370 1.387 . S
C1374 C1375 1.387 . S
C1374 H1378 0.950 . S
C1374 C1383 1.390 . S
C1375 C1374 1.387 . S
C1375 C1377 1.387 . S
H1376 C1383 0.950 . S
C1377 C1375 1.387 . S
C1377 C1379 1.390 . S
C1377 H1381 0.950 . S
H1378 C1374 0.950 . S
C1379 C1377 1.390 . S
C1379 C1380 1.387 . S
C1379 H1382 0.950 . S
C1380 C1379 1.387 . S
C1380 C1383 1.387 . S
H1381 C1377 0.950 . S
H1382 C1379 0.950 . S
C1383 C1374 1.390 . S
C1383 H1376 0.950 . S
C1383 C1380 1.387 . S
C1384 C1385 1.387 . S
C1384 H1388 0.950 . S
C1384 C1393 1.390 . S
C1385 C1384 1.387 . S
C1385 C1387 1.387 . S
H1386 C1393 0.950 . S
C1387 C1385 1.387 . S
C1387 C1389 1.390 . S
C1387 H1391 0.950 . S
H1388 C1384 0.950 . S
C1389 C1387 1.390 . S
C1389 C1390 1.387 . S
C1389 H1392 0.950 . S
C1390 C1389 1.387 . S
C1390 C1393 1.387 . S
H1391 C1387 0.950 . S
H1392 C1389 0.950 . S
C1393 C1384 1.390 . S
C1393 H1386 0.950 . S
C1393 C1390 1.387 . S
C1394 C1395 1.387 . S
C1394 H1398 0.950 . S
C1394 C1403 1.390 . S
C1395 C1394 1.387 . S
C1395 C1397 1.387 . S
H1396 C1403 0.950 . S
C1397 C1395 1.387 . S
C1397 C1399 1.390 . S
C1397 H1401 0.950 . S
H1398 C1394 0.950 . S
C1399 C1397 1.390 . S
C1399 C1400 1.387 . S
C1399 H1402 0.950 . S
C1400 C1399 1.387 . S
C1400 C1403 1.387 . S
H1401 C1397 0.950 . S
H1402 C1399 0.950 . S
C1403 C1394 1.390 . S
C1403 H1396 0.950 . S
C1403 C1400 1.387 . S
C1404 C1405 1.387 . S
C1404 H1408 0.950 . S
C1404 C1413 1.390 . S
C1405 C1404 1.387 . S
C1405 C1407 1.387 . S
H1406 C1413 0.950 . S
C1407 C1405 1.387 . S
C1407 C1409 1.390 . S
C1407 H1411 0.950 . S
H1408 C1404 0.950 . S
C1409 C1407 1.390 . S
C1409 C1410 1.387 . S
C1409 H1412 0.950 . S
C1410 C1409 1.387 . S
C1410 C1413 1.387 . S
H1411 C1407 0.950 . S
H1412 C1409 0.950 . S
C1413 C1404 1.390 . S
C1413 H1406 0.950 . S
C1413 C1410 1.387 . S
C1414 C1415 1.387 . S
C1414 H1418 0.950 . S
C1414 C1423 1.390 . S
C1415 C1414 1.387 . S
C1415 C1417 1.387 . S
H1416 C1423 0.950 . S
C1417 C1415 1.387 . S
C1417 C1419 1.390 . S
C1417 H1421 0.950 . S
H1418 C1414 0.950 . S
C1419 C1417 1.390 . S
C1419 C1420 1.387 . S
C1419 H1422 0.950 . S
C1420 C1419 1.387 . S
C1420 C1423 1.387 . S
H1421 C1417 0.950 . S
H1422 C1419 0.950 . S
C1423 C1414 1.390 . S
C1423 H1416 0.950 . S
C1423 C1420 1.387 . S
C1424 C1425 1.387 . S
C1424 H1428 0.950 . S
C1424 C1433 1.390 . S
C1425 C1424 1.387 . S
C1425 C1427 1.387 . S
H1426 C1433 0.950 . S
C1427 C1425 1.387 . S
C1427 C1429 1.390 . S
C1427 H1431 0.950 . S
H1428 C1424 0.950 . S
C1429 C1427 1.390 . S
C1429 C1430 1.387 . S
C1429 H1432 0.950 . S
C1430 C1429 1.387 . S
C1430 C1433 1.387 . S
H1431 C1427 0.950 . S
H1432 C1429 0.950 . S
C1433 C1424 1.390 . S
C1433 H1426 0.950 . S
C1433 C1430 1.387 . S
C1434 C1435 1.387 . S
C1434 H1438 0.950 . S
C1434 C1443 1.390 . S
C1435 C1434 1.387 . S
C1435 C1437 1.387 . S
H1436 C1443 0.950 1_565 S
C1437 C1435 1.387 . S
C1437 C1439 1.390 . S
C1437 H1441 0.950 . S
H1438 C1434 0.950 . S
C1439 C1437 1.390 . S
C1439 C1440 1.387 . S
C1439 H1442 0.950 . S
C1440 C1439 1.387 . S
C1440 C1443 1.387 . S
H1441 C1437 0.950 . S
H1442 C1439 0.950 . S
C1443 C1434 1.390 . S
C1443 H1436 0.950 1_545 S
C1443 C1440 1.387 . S
C1444 C1445 1.387 . S
C1444 H1448 0.950 . S
C1444 C1453 1.390 . S
C1445 C1444 1.387 . S
C1445 C1447 1.387 . S
H1446 C1453 0.950 . S
C1447 C1445 1.387 . S
C1447 C1449 1.390 . S
C1447 H1451 0.950 . S
H1448 C1444 0.950 . S
C1449 C1447 1.390 . S
C1449 C1450 1.387 . S
C1449 H1452 0.950 . S
C1450 C1449 1.387 . S
C1450 C1453 1.387 . S
H1451 C1447 0.950 . S
H1452 C1449 0.950 . S
C1453 C1444 1.390 . S
C1453 H1446 0.950 . S
C1453 C1450 1.387 . S
C1454 C1455 1.387 . S
C1454 H1458 0.950 . S
C1454 C1463 1.390 . S
C1455 C1454 1.387 . S
C1455 C1457 1.387 . S
H1456 C1463 0.950 1_455 S
C1457 C1455 1.387 . S
C1457 C1459 1.390 . S
C1457 H1461 0.950 . S
H1458 C1454 0.950 . S
C1459 C1457 1.390 . S
C1459 C1460 1.387 . S
C1459 H1462 0.950 . S
C1460 C1459 1.387 . S
C1460 C1463 1.387 . S
H1461 C1457 0.950 . S
H1462 C1459 0.950 . S
C1463 C1454 1.390 . S
C1463 H1456 0.950 1_655 S
C1463 C1460 1.387 . S
C1464 C1465 1.387 . S
C1464 H1468 0.950 . S
C1464 C1473 1.390 . S
C1465 C1464 1.387 . S
C1465 C1467 1.387 . S
H1466 C1473 0.950 . S
C1467 C1465 1.387 . S
C1467 C1469 1.390 . S
C1467 H1471 0.950 . S
H1468 C1464 0.950 . S
C1469 C1467 1.390 . S
C1469 C1470 1.387 . S
C1469 H1472 0.950 . S
C1470 C1469 1.387 . S
C1470 C1473 1.387 . S
H1471 C1467 0.950 . S
H1472 C1469 0.950 . S
C1473 C1464 1.390 . S
C1473 H1466 0.950 . S
C1473 C1470 1.387 . S
C1474 C1475 1.387 . S
C1474 H1478 0.950 . S
C1474 C1483 1.390 . S
C1475 C1474 1.387 . S
C1475 C1477 1.387 . S
H1476 C1483 0.950 . S
C1477 C1475 1.387 . S
C1477 C1479 1.390 . S
C1477 H1481 0.950 . S
H1478 C1474 0.950 . S
C1479 C1477 1.390 . S
C1479 C1480 1.387 . S
C1479 H1482 0.950 . S
C1480 C1479 1.387 . S
C1480 C1483 1.387 . S
H1481 C1477 0.950 . S
H1482 C1479 0.950 . S
C1483 C1474 1.390 . S
C1483 H1476 0.950 . S
C1483 C1480 1.387 . S
C1484 C1485 1.387 . S
C1484 H1488 0.950 . S
C1484 C1493 1.390 . S
C1485 C1484 1.387 . S
C1485 C1487 1.387 . S
H1486 C1493 0.950 . S
C1487 C1485 1.387 . S
C1487 C1489 1.390 . S
C1487 H1491 0.950 . S
H1488 C1484 0.950 . S
C1489 C1487 1.390 . S
C1489 C1490 1.387 . S
C1489 H1492 0.950 . S
C1490 C1489 1.387 . S
C1490 C1493 1.387 . S
H1491 C1487 0.950 . S
H1492 C1489 0.950 . S
C1493 C1484 1.390 . S
C1493 H1486 0.950 . S
C1493 C1490 1.387 . S
C1494 C1495 1.387 . S
C1494 H1498 0.950 . S
C1494 C1503 1.390 . S
C1495 C1494 1.387 . S
C1495 C1497 1.387 . S
H1496 C1503 0.950 . S
C1497 C1495 1.387 . S
C1497 C1499 1.390 . S
C1497 H1501 0.950 . S
H1498 C1494 0.950 . S
C1499 C1497 1.390 . S
C1499 C1500 1.387 . S
C1499 H1502 0.950 . S
C1500 C1499 1.387 . S
C1500 C1503 1.387 . S
H1501 C1497 0.950 . S
H1502 C1499 0.950 . S
C1503 C1494 1.390 . S
C1503 H1496 0.950 . S
C1503 C1500 1.387 . S
C1504 C1505 1.387 . S
C1504 H1508 0.950 . S
C1504 C1513 1.390 . S
C1505 C1504 1.387 . S
C1505 C1507 1.387 . S
H1506 C1513 0.950 . S
C1507 C1505 1.387 . S
C1507 C1509 1.390 . S
C1507 H1511 0.950 . S
H1508 C1504 0.950 . S
C1509 C1507 1.390 . S
C1509 C1510 1.387 . S
C1509 H1512 0.950 . S
C1510 C1509 1.387 . S
C1510 C1513 1.387 . S
H1511 C1507 0.950 . S
H1512 C1509 0.950 . S
C1513 C1504 1.390 . S
C1513 H1506 0.950 . S
C1513 C1510 1.387 . S
C1514 C1515 1.387 . S
C1514 H1518 0.950 . S
C1514 C1523 1.390 . S
C1515 C1514 1.387 . S
C1515 C1517 1.387 . S
H1516 C1523 0.950 . S
C1517 C1515 1.387 . S
C1517 C1519 1.390 . S
C1517 H1521 0.950 . S
H1518 C1514 0.950 . S
C1519 C1517 1.390 . S
C1519 C1520 1.387 . S
C1519 H1522 0.950 . S
C1520 C1519 1.387 . S
C1520 C1523 1.387 . S
H1521 C1517 0.950 . S
H1522 C1519 0.950 . S
C1523 C1514 1.390 . S
C1523 H1516 0.950 . S
C1523 C1520 1.387 . S
C1524 C1525 1.387 . S
C1524 H1528 0.950 . S
C1524 C1533 1.390 . S
C1525 C1524 1.387 . S
C1525 C1527 1.387 . S
H1526 C1533 0.950 . S
C1527 C1525 1.387 . S
C1527 C1529 1.390 . S
C1527 H1531 0.950 . S
H1528 C1524 0.950 . S
C1529 C1527 1.390 . S
C1529 C1530 1.387 . S
C1529 H1532 0.950 . S
C1530 C1529 1.387 . S
C1530 C1533 1.387 . S
H1531 C1527 0.950 . S
H1532 C1529 0.950 . S
C1533 C1524 1.390 . S
C1533 H1526 0.950 . S
C1533 C1530 1.387 . S
C1534 C1535 1.387 . S
C1534 H1538 0.950 . S
C1534 C1543 1.390 . S
C1535 C1534 1.387 . S
C1535 C1537 1.387 . S
H1536 C1543 0.950 . S
C1537 C1535 1.387 . S
C1537 C1539 1.390 . S
C1537 H1541 0.950 . S
H1538 C1534 0.950 . S
C1539 C1537 1.390 . S
C1539 C1540 1.387 . S
C1539 H1542 0.950 . S
C1540 C1539 1.387 . S
C1540 C1543 1.387 . S
H1541 C1537 0.950 . S
H1542 C1539 0.950 . S
C1543 C1534 1.390 . S
C1543 H1536 0.950 . S
C1543 C1540 1.387 . S
C1544 C1545 1.387 . S
C1544 H1548 0.950 . S
C1544 C1553 1.390 . S
C1545 C1544 1.387 . S
C1545 C1547 1.387 . S
H1546 C1553 0.950 . S
C1547 C1545 1.387 . S
C1547 C1549 1.390 . S
C1547 H1551 0.950 . S
H1548 C1544 0.950 . S
C1549 C1547 1.390 . S
C1549 C1550 1.387 . S
C1549 H1552 0.950 . S
C1550 C1549 1.387 . S
C1550 C1553 1.387 . S
H1551 C1547 0.950 . S
H1552 C1549 0.950 . S
C1553 C1544 1.390 . S
C1553 H1546 0.950 . S
C1553 C1550 1.387 . S
C1554 C1555 1.387 . S
C1554 H1558 0.950 . S
C1554 C1563 1.390 . S
C1555 C1554 1.387 . S
C1555 C1557 1.387 . S
H1556 C1563 0.950 . S
C1557 C1555 1.387 . S
C1557 C1559 1.390 . S
C1557 H1561 0.950 . S
H1558 C1554 0.950 . S
C1559 C1557 1.390 . S
C1559 C1560 1.387 . S
C1559 H1562 0.950 . S
C1560 C1559 1.387 . S
C1560 C1563 1.387 . S
H1561 C1557 0.950 . S
H1562 C1559 0.950 . S
C1563 C1554 1.390 . S
C1563 H1556 0.950 . S
C1563 C1560 1.387 . S
C1564 C1565 1.387 . S
C1564 H1568 0.950 . S
C1564 C1573 1.390 . S
C1565 C1564 1.387 . S
C1565 C1567 1.387 . S
H1566 C1573 0.950 . S
C1567 C1565 1.387 . S
C1567 C1569 1.390 . S
C1567 H1571 0.950 . S
H1568 C1564 0.950 . S
C1569 C1567 1.390 . S
C1569 C1570 1.387 . S
C1569 H1572 0.950 . S
C1570 C1569 1.387 . S
C1570 C1573 1.387 . S
H1571 C1567 0.950 . S
H1572 C1569 0.950 . S
C1573 C1564 1.390 . S
C1573 H1566 0.950 . S
C1573 C1570 1.387 . S
C1574 C1575 1.387 . S
C1574 H1578 0.950 . S
C1574 C1583 1.390 . S
C1575 C1574 1.387 . S
C1575 C1577 1.387 . S
H1576 C1583 0.950 . S
C1577 C1575 1.387 . S
C1577 C1579 1.390 . S
C1577 H1581 0.950 . S
H1578 C1574 0.950 . S
C1579 C1577 1.390 . S
C1579 C1580 1.387 . S
C1579 H1582 0.950 . S
C1580 C1579 1.387 . S
C1580 C1583 1.387 . S
H1581 C1577 0.950 . S
H1582 C1579 0.950 . S
C1583 C1574 1.390 . S
C1583 H1576 0.950 . S
C1583 C1580 1.387 . S
C1584 C1585 1.387 . S
C1584 H1588 0.950 . S
C1584 C1593 1.390 . S
C1585 C1584 1.387 . S
C1585 C1587 1.387 . S
H1586 C1593 0.950 . S
C1587 C1585 1.387 . S
C1587 C1589 1.390 . S
C1587 H1591 0.950 . S
H1588 C1584 0.950 . S
C1589 C1587 1.390 . S
C1589 C1590 1.387 . S
C1589 H1592 0.950 . S
C1590 C1589 1.387 . S
C1590 C1593 1.387 . S
H1591 C1587 0.950 . S
H1592 C1589 0.950 . S
C1593 C1584 1.390 . S
C1593 H1586 0.950 . S
C1593 C1590 1.387 . S
C1594 C1595 1.387 . S
C1594 H1598 0.950 . S
C1594 C1603 1.390 . S
C1595 C1594 1.387 . S
C1595 C1597 1.387 . S
H1596 C1603 0.950 . S
C1597 C1595 1.387 . S
C1597 C1599 1.390 . S
C1597 H1601 0.950 . S
H1598 C1594 0.950 . S
C1599 C1597 1.390 . S
C1599 C1600 1.387 . S
C1599 H1602 0.950 . S
C1600 C1599 1.387 . S
C1600 C1603 1.387 . S
H1601 C1597 0.950 . S
H1602 C1599 0.950 . S
C1603 C1594 1.390 . S
C1603 H1596 0.950 . S
C1603 C1600 1.387 . S
C1604 C1605 1.387 . S
C1604 H1608 0.950 . S
C1604 C1613 1.390 . S
C1605 C1604 1.387 . S
C1605 C1607 1.387 . S
H1606 C1613 0.950 . S
C1607 C1605 1.387 . S
C1607 C1609 1.390 . S
C1607 H1611 0.950 . S
H1608 C1604 0.950 . S
C1609 C1607 1.390 . S
C1609 C1610 1.387 . S
C1609 H1612 0.950 . S
C1610 C1609 1.387 . S
C1610 C1613 1.387 . S
H1611 C1607 0.950 . S
H1612 C1609 0.950 . S
C1613 C1604 1.390 . S
C1613 H1606 0.950 . S
C1613 C1610 1.387 . S
C1614 C1615 1.387 . S
C1614 H1618 0.950 . S
C1614 C1623 1.390 . S
C1615 C1614 1.387 . S
C1615 C1617 1.387 . S
H1616 C1623 0.950 . S
C1617 C1615 1.387 . S
C1617 C1619 1.390 . S
C1617 H1621 0.950 . S
H1618 C1614 0.950 . S
C1619 C1617 1.390 . S
C1619 C1620 1.387 . S
C1619 H1622 0.950 . S
C1620 C1619 1.387 . S
C1620 C1623 1.387 . S
H1621 C1617 0.950 . S
H1622 C1619 0.950 . S
C1623 C1614 1.390 . S
C1623 H1616 0.950 . S
C1623 C1620 1.387 . S
C1624 C1625 1.387 . S
C1624 H1628 0.950 . S
C1624 C1633 1.390 . S
C1625 C1624 1.387 . S
C1625 C1627 1.387 . S
H1626 C1633 0.950 . S
C1627 C1625 1.387 . S
C1627 C1629 1.390 . S
C1627 H1631 0.950 . S
H1628 C1624 0.950 . S
C1629 C1627 1.390 . S
C1629 C1630 1.387 . S
C1629 H1632 0.950 1_545 S
C1630 C1629 1.387 . S
C1630 C1633 1.387 . S
H1631 C1627 0.950 . S
H1632 C1629 0.950 1_565 S
C1633 C1624 1.390 . S
C1633 H1626 0.950 . S
C1633 C1630 1.387 . S
C1634 C1635 1.387 . S
C1634 H1638 0.950 . S
C1634 C1643 1.390 . S
C1635 C1634 1.387 . S
C1635 C1637 1.387 . S
H1636 C1643 0.950 . S
C1637 C1635 1.387 . S
C1637 C1639 1.390 . S
C1637 H1641 0.950 . S
H1638 C1634 0.950 . S
C1639 C1637 1.390 . S
C1639 C1640 1.387 . S
C1639 H1642 0.950 . S
C1640 C1639 1.387 . S
C1640 C1643 1.387 . S
H1641 C1637 0.950 . S
H1642 C1639 0.950 . S
C1643 C1634 1.390 . S
C1643 H1636 0.950 . S
C1643 C1640 1.387 . S
C1644 C1645 1.387 . S
C1644 H1648 0.950 . S
C1644 C1653 1.390 . S
C1645 C1644 1.387 . S
C1645 C1647 1.387 . S
H1646 C1653 0.950 . S
C1647 C1645 1.387 . S
C1647 C1649 1.390 . S
C1647 H1651 0.950 . S
H1648 C1644 0.950 . S
C1649 C1647 1.390 . S
C1649 C1650 1.387 . S
C1649 H1652 0.950 1_565 S
C1650 C1649 1.387 . S
C1650 C1653 1.387 . S
H1651 C1647 0.950 . S
H1652 C1649 0.950 1_545 S
C1653 C1644 1.390 . S
C1653 H1646 0.950 . S
C1653 C1650 1.387 . S
C1654 C1655 1.387 . S
C1654 H1658 0.950 . S
C1654 C1663 1.390 . S
C1655 C1654 1.387 . S
C1655 C1657 1.387 . S
H1656 C1663 0.950 . S
C1657 C1655 1.387 . S
C1657 C1659 1.390 . S
C1657 H1661 0.950 . S
H1658 C1654 0.950 . S
C1659 C1657 1.390 . S
C1659 C1660 1.387 . S
C1659 H1662 0.950 . S
C1660 C1659 1.387 . S
C1660 C1663 1.387 . S
H1661 C1657 0.950 . S
H1662 C1659 0.950 . S
C1663 C1654 1.390 . S
C1663 H1656 0.950 . S
C1663 C1660 1.387 . S
C1664 C1665 1.387 . S
C1664 H1668 0.950 . S
C1664 C1673 1.390 . S
C1665 C1664 1.387 . S
C1665 C1667 1.387 . S
H1666 C1673 0.950 . S
C1667 C1665 1.387 . S
C1667 C1669 1.390 . S
C1667 H1671 0.950 . S
H1668 C1664 0.950 . S
C1669 C1667 1.390 . S
C1669 C1670 1.387 . S
C1669 H1672 0.950 . S
C1670 C1669 1.387 . S
C1670 C1673 1.387 . S
H1671 C1667 0.950 . S
H1672 C1669 0.950 . S
C1673 C1664 1.390 . S
C1673 H1666 0.950 . S
C1673 C1670 1.387 . S
C1674 C1675 1.387 . S
C1674 H1678 0.950 . S
C1674 C1683 1.390 . S
C1675 C1674 1.387 . S
C1675 C1677 1.387 . S
H1676 C1683 0.950 . S
C1677 C1675 1.387 . S
C1677 C1679 1.390 . S
C1677 H1681 0.950 . S
H1678 C1674 0.950 . S
C1679 C1677 1.390 . S
C1679 C1680 1.387 . S
C1679 H1682 0.950 . S
C1680 C1679 1.387 . S
C1680 C1683 1.387 . S
H1681 C1677 0.950 . S
H1682 C1679 0.950 . S
C1683 C1674 1.390 . S
C1683 H1676 0.950 . S
C1683 C1680 1.387 . S
C730 C376 1.185 . S
C725 C226 1.380 . S
C740 C384 1.278 . S
C735 C269 1.398 . S
C750 C379 1.347 . S
C745 C250 1.530 . S
C755 C205 1.649 . S
C760 C383 1.526 . S
C770 C438 1.375 . S
C765 C115 1.652 . S
C775 C136 1.336 . S
C780 C414 1.240 . S
C790 C441 1.244 . S
C785 C158 1.378 . S
C795 C97 1.738 . S
C800 C415 1.590 . S
C805 C314 1.830 . S
C810 C472 1.633 . S
C815 C336 1.523 . S
C820 C476 1.398 . S
C830 C531 1.103 . S
C825 C180 1.318 . S
C840 C539 1.616 . S
C835 C294 1.767 . S
C850 C469 1.149 . S
C845 C70 1.364 . S
C860 C477 1.542 1_545 S
C855 C6 1.675 . S
C865 C31 1.771 . S
C870 C534 1.596 . S
C875 C53 1.616 . S
C880 C538 1.502 . S
C885 C29 1.583 . S
C890 C503 1.381 . S
C900 C593 1.221 . S
C895 C181 1.464 . S
C905 C293 1.659 . S
C910 C601 1.528 . S
C920 C655 1.284 . S
C915 C312 1.574 . S
C925 C137 1.503 . S
C930 C507 1.405 1_655 S
C940 C596 1.252 . S
C935 C225 1.413 . S
C950 C600 1.473 . S
C945 C270 1.582 . S
C960 C663 1.435 . S
C955 C206 1.549 . S
C965 C72 1.381 . S
C970 C407 1.184 . S
C975 C4 1.394 . S
C980 C353 1.271 1_554 S
C990 C410 1.348 . S
C985 C30 1.531 . S
C995 C51 1.649 . S
C1000 C352 1.528 . S
C1005 C313 1.651 . S
C1010 C717 1.378 . S
C1015 C334 1.334 . S
C1020 C693 1.240 . S
C1030 C720 1.244 . S
C1025 C182 1.378 . S
C1035 C295 1.736 . S
C1040 C694 1.587 1_556 S
C1045 C116 1.829 . S
C1050 C627 1.633 . S
C1060 C631 1.400 . S
C1055 C138 1.524 . S
C1070 C686 1.102 . S
C1065 C159 1.319 . S
C1080 C570 1.617 1_565 S
C1075 C96 1.766 . S
C1090 C624 1.150 . S
C1085 C224 1.364 . S
C1095 C268 1.677 . S
C1100 C632 1.544 . S
C1105 C251 1.772 . S
C1110 C689 1.596 . S
C1120 C569 1.507 1_565 S
C1115 C207 1.617 . S
C1125 C249 1.583 . S
C1130 C658 1.381 . S
C1140 C562 1.222 . S
C1135 C160 1.464 . S
C1145 C95 1.658 . S
C1150 C446 1.528 1_455 S
C1155 C114 1.572 . S
C1160 C500 1.281 . S
C1165 C335 1.504 . S
C1170 C662 1.406 . S
C1175 C71 1.413 . S
C1180 C565 1.250 . S
C1185 C5 1.581 . S
C1190 C445 1.473 1_455 S
C1200 C508 1.436 1_655 S
C1195 C52 1.549 . S
C1210 C363 1.716 . S
C1205 C339 1.738 . S
C1220 C393 1.832 . S
C1215 C184 1.862 . S
C1230 C370 1.815 . S
C1225 C290 1.706 . S
C1240 C385 2.031 . S
C1235 C317 1.910 . S
C1250 C425 1.660 . S
C1245 C204 1.684 . S
C1255 C228 2.005 . S
C1260 C416 2.102 . S
C1265 C272 1.788 . S
C1270 C432 1.915 . S
C1275 C248 1.998 . S
C1280 C424 1.972 . S
C1290 C463 1.588 . S
C1285 C49 1.466 . S
C1300 C486 1.731 . S
C1295 C75 1.765 . S
C1305 C8 1.402 . S
C1310 C518 1.364 . S
C1320 C548 1.819 . S
C1315 C26 1.849 . S
C1325 C140 1.419 . S
C1330 C456 1.391 . S
C1340 C478 1.882 . S
C1335 C162 1.830 . S
C1350 C525 1.546 . S
C1345 C94 1.440 . S
C1355 C117 1.863 . S
C1360 C540 1.934 . S
C1370 C487 1.559 . S
C1365 C93 1.570 . S
C1375 C7 1.612 . S
C1380 C580 1.570 . S
C1385 C27 1.539 . S
C1390 C610 1.530 . S
C1395 C48 1.462 . S
C1400 C649 1.609 . S
C1410 C509 1.871 . S
C1405 C227 1.759 . S
C1420 C587 1.620 . S
C1415 C337 1.492 . S
C1425 C183 1.848 . S
C1430 C602 1.951 . S
C1440 C672 1.367 . S
C1435 C316 1.377 . S
C1450 C394 1.714 . S
C1445 C141 1.739 . S
C1455 C161 1.863 . S
C1460 C362 1.834 . S
C1465 C92 1.704 . S
C1470 C401 1.814 . S
C1475 C119 1.910 . S
C1480 C354 2.029 . S
C1490 C704 1.660 . S
C1485 C50 1.684 . S
C1500 C695 2.101 . S
C1495 C74 2.005 . S
C1505 C9 1.787 . S
C1510 C711 1.913 . S
C1515 C28 1.999 . S
C1520 C703 1.974 . S
C1525 C203 1.471 . S
C1530 C618 1.589 . S
C1540 C641 1.734 . S
C1535 C229 1.767 . S
C1550 C673 1.359 . S
C1545 C271 1.397 . S
C1555 C246 1.853 . S
C1560 C579 1.821 . S
C1570 C611 1.391 . S
C1565 C338 1.420 . S
C1575 C185 1.828 . S
C1580 C633 1.881 . S
C1590 C680 1.546 . S
C1585 C292 1.440 . S
C1595 C315 1.864 . S
C1600 C571 1.932 . S
C1605 C291 1.572 . S
C1610 C642 1.562 . S
C1615 C273 1.612 . S
C1620 C549 1.573 . S
C1630 C455 1.526 . S
C1625 C247 1.537 . S
C1635 C202 1.460 . S
C1640 C494 1.608 . S
C1645 C73 1.759 . S
C1650 C664 1.871 . S
C1655 C139 1.492 . S
C1660 C556 1.617 . S
C1670 C447 1.951 . S
C1665 C163 1.849 . S
C1675 C118 1.377 . S
C1680 C517 1.367 . S
