# Generated by pormake.
# Topology myd, (4,6)-cn, num edge types: 1
# Building blocks:
#     Node 0, Type 0, BuildingBlock: NAWXER_clean_sbu_0, # of connection points: 4
#     Node 1, Type 0, BuildingBlock: NAWXER_clean_sbu_0, # of connection points: 4
#     Node 2, Type 0, BuildingBlock: NAWXER_clean_sbu_0, # of connection points: 4
#     Node 3, Type 0, BuildingBlock: NAWXER_clean_sbu_0, # of connection points: 4
#     Node 4, Type 0, BuildingBlock: NAWXER_clean_sbu_0, # of connection points: 4
#     Node 5, Type 0, BuildingBlock: NAWXER_clean_sbu_0, # of connection points: 4
#     Node 6, Type 0, BuildingBlock: NAWXER_clean_sbu_0, # of connection points: 4
#     Node 7, Type 0, BuildingBlock: NAWXER_clean_sbu_0, # of connection points: 4
#     Node 8, Type 0, BuildingBlock: NAWXER_clean_sbu_0, # of connection points: 4
#     Node 9, Type 0, BuildingBlock: NAWXER_clean_sbu_0, # of connection points: 4
#     Node 10, Type 0, BuildingBlock: NAWXER_clean_sbu_0, # of connection points: 4
#     Node 11, Type 0, BuildingBlock: NAWXER_clean_sbu_0, # of connection points: 4
#     Node 12, Type 1, BuildingBlock: VOLQOD_clean_sbu_1, # of connection points: 6
#     Node 13, Type 1, BuildingBlock: VOLQOD_clean_sbu_1, # of connection points: 6
#     Node 14, Type 1, BuildingBlock: VOLQOD_clean_sbu_1, # of connection points: 6
#     Node 15, Type 1, BuildingBlock: VOLQOD_clean_sbu_1, # of connection points: 6
#     Node 16, Type 1, BuildingBlock: VOLQOD_clean_sbu_1, # of connection points: 6
#     Node 17, Type 1, BuildingBlock: VOLQOD_clean_sbu_1, # of connection points: 6
#     Node 18, Type 1, BuildingBlock: VOLQOD_clean_sbu_1, # of connection points: 6
#     Node 19, Type 1, BuildingBlock: VOLQOD_clean_sbu_1, # of connection points: 6
#     Edge 20, Type (0, 1), BuildingBlock: TEMPAE_clean_linker_10, # of connection points: 2
#     Edge 21, Type (0, 1), BuildingBlock: TEMPAE_clean_linker_10, # of connection points: 2
#     Edge 22, Type (0, 1), BuildingBlock: TEMPAE_clean_linker_10, # of connection points: 2
#     Edge 23, Type (0, 1), BuildingBlock: TEMPAE_clean_linker_10, # of connection points: 2
#     Edge 24, Type (0, 1), BuildingBlock: TEMPAE_clean_linker_10, # of connection points: 2
#     Edge 25, Type (0, 1), BuildingBlock: TEMPAE_clean_linker_10, # of connection points: 2
#     Edge 26, Type (0, 1), BuildingBlock: TEMPAE_clean_linker_10, # of connection points: 2
#     Edge 27, Type (0, 1), BuildingBlock: TEMPAE_clean_linker_10, # of connection points: 2
#     Edge 28, Type (0, 1), BuildingBlock: TEMPAE_clean_linker_10, # of connection points: 2
#     Edge 29, Type (0, 1), BuildingBlock: TEMPAE_clean_linker_10, # of connection points: 2
#     Edge 30, Type (0, 1), BuildingBlock: TEMPAE_clean_linker_10, # of connection points: 2
#     Edge 31, Type (0, 1), BuildingBlock: TEMPAE_clean_linker_10, # of connection points: 2
#     Edge 32, Type (0, 1), BuildingBlock: TEMPAE_clean_linker_10, # of connection points: 2
#     Edge 33, Type (0, 1), BuildingBlock: TEMPAE_clean_linker_10, # of connection points: 2
#     Edge 34, Type (0, 1), BuildingBlock: TEMPAE_clean_linker_10, # of connection points: 2
#     Edge 35, Type (0, 1), BuildingBlock: TEMPAE_clean_linker_10, # of connection points: 2
#     Edge 36, Type (0, 1), BuildingBlock: TEMPAE_clean_linker_10, # of connection points: 2
#     Edge 37, Type (0, 1), BuildingBlock: TEMPAE_clean_linker_10, # of connection points: 2
#     Edge 38, Type (0, 1), BuildingBlock: TEMPAE_clean_linker_10, # of connection points: 2
#     Edge 39, Type (0, 1), BuildingBlock: TEMPAE_clean_linker_10, # of connection points: 2
#     Edge 40, Type (0, 1), BuildingBlock: TEMPAE_clean_linker_10, # of connection points: 2
#     Edge 41, Type (0, 1), BuildingBlock: TEMPAE_clean_linker_10, # of connection points: 2
#     Edge 42, Type (0, 1), BuildingBlock: TEMPAE_clean_linker_10, # of connection points: 2
#     Edge 43, Type (0, 1), BuildingBlock: TEMPAE_clean_linker_10, # of connection points: 2
#     Edge 44, Type (0, 1), BuildingBlock: TEMPAE_clean_linker_10, # of connection points: 2
#     Edge 45, Type (0, 1), BuildingBlock: TEMPAE_clean_linker_10, # of connection points: 2
#     Edge 46, Type (0, 1), BuildingBlock: TEMPAE_clean_linker_10, # of connection points: 2
#     Edge 47, Type (0, 1), BuildingBlock: TEMPAE_clean_linker_10, # of connection points: 2
#     Edge 48, Type (0, 1), BuildingBlock: TEMPAE_clean_linker_10, # of connection points: 2
#     Edge 49, Type (0, 1), BuildingBlock: TEMPAE_clean_linker_10, # of connection points: 2
#     Edge 50, Type (0, 1), BuildingBlock: TEMPAE_clean_linker_10, # of connection points: 2
#     Edge 51, Type (0, 1), BuildingBlock: TEMPAE_clean_linker_10, # of connection points: 2
#     Edge 52, Type (0, 1), BuildingBlock: TEMPAE_clean_linker_10, # of connection points: 2
#     Edge 53, Type (0, 1), BuildingBlock: TEMPAE_clean_linker_10, # of connection points: 2
#     Edge 54, Type (0, 1), BuildingBlock: TEMPAE_clean_linker_10, # of connection points: 2
#     Edge 55, Type (0, 1), BuildingBlock: TEMPAE_clean_linker_10, # of connection points: 2
#     Edge 56, Type (0, 1), BuildingBlock: TEMPAE_clean_linker_10, # of connection points: 2
#     Edge 57, Type (0, 1), BuildingBlock: TEMPAE_clean_linker_10, # of connection points: 2
#     Edge 58, Type (0, 1), BuildingBlock: TEMPAE_clean_linker_10, # of connection points: 2
#     Edge 59, Type (0, 1), BuildingBlock: TEMPAE_clean_linker_10, # of connection points: 2
#     Edge 60, Type (0, 1), BuildingBlock: TEMPAE_clean_linker_10, # of connection points: 2
#     Edge 61, Type (0, 1), BuildingBlock: TEMPAE_clean_linker_10, # of connection points: 2
#     Edge 62, Type (0, 1), BuildingBlock: TEMPAE_clean_linker_10, # of connection points: 2
#     Edge 63, Type (0, 1), BuildingBlock: TEMPAE_clean_linker_10, # of connection points: 2
#     Edge 64, Type (0, 1), BuildingBlock: TEMPAE_clean_linker_10, # of connection points: 2
#     Edge 65, Type (0, 1), BuildingBlock: TEMPAE_clean_linker_10, # of connection points: 2
#     Edge 66, Type (0, 1), BuildingBlock: TEMPAE_clean_linker_10, # of connection points: 2
#     Edge 67, Type (0, 1), BuildingBlock: TEMPAE_clean_linker_10, # of connection points: 2
# Relax obj value: 0.200
# Max RMSD: 0.165
# Mean RMSD: 0.125
data_MOF--net-myd--node1-NAWXER_clean_sbu_0--node2-VOLQOD_clean_sbu_1--edge1-TEMPAE_clean_linker_10
_symmetry_space_group_name_H-M    P1
_symmetry_Int_Tables_number       1
_symmetry_cell_setting            triclinic
loop_
_symmetry_equiv_pos_as_xyz
'x, y, z'
_cell_length_a     47.243481
_cell_length_b     47.283768
_cell_length_c     47.318218
_cell_angle_alpha  91.13516
_cell_angle_beta   90.087733
_cell_angle_gamma 91.275893
loop_
_atom_site_label
_atom_site_type_symbol
_atom_site_fract_x
_atom_site_fract_y
_atom_site_fract_z
_atom_type_partial_charge
C0 C 0.9866 0.20714 0.28314 0.0
C1 C 0.99176 0.29229 0.34384 0.0
O2 O 0.01152 0.21762 0.28724 0.0
Zn3 Zn 0.03281 0.25183 0.30869 0.0
O4 O 0.9652 0.21948 0.29363 0.0
Zn5 Zn 0.98728 0.24943 0.31338 0.0
O6 O 0.00222 0.27324 0.27846 0.0
O7 O 0.04887 0.27288 0.27715 0.0
O8 O 0.96952 0.27796 0.33728 0.0
O9 O 0.01579 0.28427 0.33458 0.0
O10 O 0.05636 0.23071 0.33426 0.0
O11 O 0.01062 0.22453 0.34204 0.0
C12 C 0.02553 0.28063 0.26662 0.0
C13 C 0.03632 0.21854 0.34768 0.0
C14 C 0.05632 0.78473 0.20883 0.0
C15 C 0.04406 0.70137 0.14794 0.0
O16 O 0.07597 0.76961 0.19872 0.0
Zn17 Zn 0.05105 0.74276 0.17902 0.0
O18 O 0.03034 0.77765 0.20437 0.0
Zn19 Zn 0.00612 0.74561 0.18218 0.0
O20 O 0.98638 0.72667 0.21254 0.0
O21 O 0.03248 0.72057 0.21368 0.0
O22 O 0.02049 0.71167 0.15608 0.0
O23 O 0.06721 0.71301 0.15614 0.0
O24 O 0.03138 0.77001 0.14926 0.0
O25 O 0.98523 0.76876 0.15668 0.0
C26 C 0.00785 0.71615 0.22427 0.0
C27 C 0.00651 0.77853 0.14328 0.0
C28 C 0.37974 0.98267 0.21209 0.0
C29 C 0.31558 0.96405 0.29058 0.0
O30 O 0.37172 0.95873 0.22126 0.0
Zn31 Zn 0.34733 0.97209 0.25131 0.0
O32 O 0.37108 0.0053 0.22434 0.0
Zn33 Zn 0.34382 0.01684 0.25832 0.0
O34 O 0.36823 0.03611 0.28618 0.0
O35 O 0.37528 0.99019 0.28303 0.0
O36 O 0.32038 0.99034 0.28614 0.0
O37 O 0.32611 0.94527 0.27431 0.0
O38 O 0.31355 0.99107 0.22879 0.0
O39 O 0.31355 0.03667 0.23924 0.0
C40 C 0.38064 0.01432 0.29497 0.0
C41 C 0.30269 0.01544 0.22588 0.0
C42 C 0.74106 0.48844 0.2163 0.0
C43 C 0.66519 0.48698 0.28624 0.0
O44 O 0.72905 0.46717 0.22756 0.0
Zn45 Zn 0.70206 0.48723 0.25063 0.0
O46 O 0.73275 0.51336 0.22288 0.0
Zn47 Zn 0.70147 0.53212 0.24997 0.0
O48 O 0.72401 0.55498 0.27576 0.0
O49 O 0.72797 0.50896 0.28157 0.0
O50 O 0.67214 0.51207 0.27857 0.0
O51 O 0.67703 0.4658 0.27472 0.0
O52 O 0.67395 0.50473 0.22059 0.0
O53 O 0.6775 0.55133 0.22423 0.0
C54 C 0.73417 0.53452 0.28919 0.0
C55 C 0.66652 0.52926 0.21264 0.0
C56 C 0.22684 0.35425 0.97988 0.0
C57 C 0.30393 0.2876 0.9813 0.0
O58 O 0.23909 0.34303 0.95869 0.0
Zn59 Zn 0.26547 0.32098 0.97973 0.0
O60 O 0.23506 0.34856 0.00494 0.0
Zn61 Zn 0.26582 0.32311 0.02492 0.0
O62 O 0.2903 0.35028 0.04472 0.0
O63 O 0.29394 0.35191 0.99826 0.0
O64 O 0.29624 0.29582 0.00603 0.0
O65 O 0.29125 0.2966 0.95963 0.0
O66 O 0.23819 0.2909 -8e-05 0.0
O67 O 0.24246 0.29674 0.0461 0.0
C68 C 0.30172 0.36085 0.02289 0.0
C69 C 0.23127 0.28369 0.02498 0.0
C70 C 0.22751 0.71075 0.47594 0.0
C71 C 0.30343 0.64209 0.47508 0.0
O72 O 0.23972 0.70023 0.45434 0.0
Zn73 Zn 0.26522 0.67599 0.47444 0.0
O74 O 0.23506 0.70333 0.50069 0.0
Zn75 Zn 0.2649 0.67605 0.51965 0.0
O76 O 0.28873 0.70254 0.54085 0.0
O77 O 0.29312 0.70628 0.49463 0.0
O78 O 0.29517 0.64917 0.49998 0.0
O79 O 0.2915 0.65251 0.45367 0.0
O80 O 0.23676 0.64606 0.49327 0.0
O81 O 0.2406 0.65013 0.53972 0.0
C82 C 0.30021 0.71436 0.51971 0.0
C83 C 0.22924 0.63831 0.51803 0.0
C84 C 0.73233 0.8538 0.51809 0.0
C85 C 0.80707 0.78346 0.52028 0.0
O86 O 0.73974 0.84445 0.49369 0.0
Zn87 Zn 0.76899 0.81612 0.47532 0.0
O88 O 0.74531 0.84567 0.53997 0.0
Zn89 Zn 0.77106 0.81993 0.52096 0.0
O90 O 0.79971 0.84694 0.49919 0.0
O91 O 0.79432 0.84024 0.45325 0.0
O92 O 0.79733 0.79659 0.54181 0.0
O93 O 0.79803 0.78929 0.49558 0.0
O94 O 0.74317 0.78792 0.45774 0.0
O95 O 0.74231 0.78835 0.50439 0.0
C96 C 0.807 0.85276 0.47388 0.0
C97 C 0.73341 0.77799 0.4807 0.0
C98 C 0.52629 0.78837 0.78486 0.0
C99 C 0.52526 0.70587 0.84648 0.0
O100 O 0.50185 0.77724 0.78958 0.0
Zn101 Zn 0.48211 0.74363 0.81198 0.0
O102 O 0.54826 0.77749 0.79547 0.0
Zn103 Zn 0.52782 0.74759 0.81586 0.0
O104 O 0.51272 0.72194 0.78151 0.0
O105 O 0.466 0.72062 0.78085 0.0
O106 O 0.54694 0.72053 0.83942 0.0
O107 O 0.50077 0.71281 0.83767 0.0
O108 O 0.45867 0.7654 0.83796 0.0
O109 O 0.50449 0.77258 0.84492 0.0
C110 C 0.48946 0.71326 0.77003 0.0
C111 C 0.47883 0.77824 0.85116 0.0
C112 C 0.48574 0.21212 0.70903 0.0
C113 C 0.49659 0.29351 0.64728 0.0
O114 O 0.46575 0.22562 0.69775 0.0
Zn115 Zn 0.48991 0.25266 0.67804 0.0
O116 O 0.5115 0.21994 0.70482 0.0
Zn117 Zn 0.53502 0.25151 0.68242 0.0
O118 O 0.55353 0.27234 0.71303 0.0
O119 O 0.50711 0.27651 0.71294 0.0
O120 O 0.5202 0.2841 0.65606 0.0
O121 O 0.47355 0.28144 0.65475 0.0
O122 O 0.51115 0.22532 0.6489 0.0
O123 O 0.55714 0.22806 0.65752 0.0
C124 C 0.53128 0.28224 0.7242 0.0
C125 C 0.5364 0.21744 0.64346 0.0
C126 C 0.78916 0.52128 0.71781 0.0
C127 C 0.86456 0.52143 0.78887 0.0
O128 O 0.80099 0.54264 0.73003 0.0
Zn129 Zn 0.82787 0.52236 0.75266 0.0
O130 O 0.79754 0.49641 0.7235 0.0
Zn131 Zn 0.82835 0.47722 0.74985 0.0
O132 O 0.80512 0.45448 0.77441 0.0
O133 O 0.80108 0.5005 0.7817 0.0
O134 O 0.85741 0.49662 0.77958 0.0
O135 O 0.85294 0.54298 0.77862 0.0
O136 O 0.85588 0.50507 0.72178 0.0
O137 O 0.85244 0.45845 0.72304 0.0
C138 C 0.79447 0.47501 0.78816 0.0
C139 C 0.86328 0.48067 0.71249 0.0
C140 C 0.22654 0.98588 0.72319 0.0
C141 C 0.1496 0.98582 0.79317 0.0
O142 O 0.21566 0.96451 0.7354 0.0
Zn143 Zn 0.18591 0.9841 0.7561 0.0
O144 O 0.21593 0.01029 0.72764 0.0
Zn145 Zn 0.18254 0.02892 0.75185 0.0
O146 O 0.20401 0.05519 0.77614 0.0
O147 O 0.20996 0.00994 0.78515 0.0
O148 O 0.15491 0.0102 0.78271 0.0
O149 O 0.16192 0.96422 0.78299 0.0
O150 O 0.15792 0.9966 0.72348 0.0
O151 O 0.15771 0.04324 0.72328 0.0
C152 C 0.21485 0.03612 0.7911 0.0
C153 C 0.14914 0.01958 0.7129 0.0
C154 C 0.72579 0.14334 0.97 0.0
C155 C 0.7986 0.21869 0.97312 0.0
O156 O 0.73305 0.15132 0.99504 0.0
Zn157 Zn 0.76135 0.18057 0.01548 0.0
O158 O 0.73788 0.1546 0.94886 0.0
Zn159 Zn 0.76284 0.1807 0.96982 0.0
O160 O 0.79261 0.15401 0.98928 0.0
O161 O 0.78747 0.15669 0.03556 0.0
O162 O 0.78823 0.20727 0.95067 0.0
O163 O 0.79001 0.21032 0.99728 0.0
O164 O 0.73533 0.20585 0.03528 0.0
O165 O 0.73378 0.20923 0.98889 0.0
C166 C 0.80033 0.14679 0.01403 0.0
C167 C 0.72515 0.21717 0.01339 0.0
O168 O 0.10337 0.02798 0.11472 0.0
Zn169 Zn 0.06315 0.03 0.1 0.0
O170 O 0.06332 0.04568 0.06213 0.0
Zn171 Zn 0.04877 0.08385 0.06382 0.0
Zn172 Zn 0.10191 0.04687 0.04747 0.0
Zn173 Zn 0.03887 0.02244 0.03736 0.0
O174 O 0.01257 0.08677 0.04189 0.0
O175 O 0.00177 0.04208 0.03027 0.0
O176 O 0.04064 0.05417 0.12747 0.0
O177 O 0.03721 0.0937 0.10326 0.0
O178 O 0.07764 0.11333 0.05215 0.0
O179 O 0.11474 0.08728 0.04159 0.0
O180 O 0.10385 0.02639 0.00928 0.0
O181 O 0.04627 0.99044 0.09898 0.0
O182 O 0.05892 0.01414 0.00034 0.0
O183 O 0.02967 0.98496 0.05523 0.0
C184 C 0.12757 0.02831 0.10276 0.0
C185 C 0.99519 0.06808 0.03206 0.0
C186 C 0.10331 0.11131 0.04436 0.0
C187 C 0.03332 0.07986 0.12575 0.0
C188 C 0.08483 0.01576 0.99276 0.0
C189 C 0.03381 0.9754 0.07985 0.0
O190 O 0.12995 0.03273 0.07632 0.0
O191 O 0.93138 0.46288 0.09389 0.0
Zn192 Zn 0.97043 0.45667 0.07795 0.0
O193 O 0.96837 0.44508 0.0382 0.0
Zn194 Zn 0.98175 0.40638 0.03411 0.0
Zn195 Zn 0.9292 0.44694 0.02525 0.0
Zn196 Zn 0.99211 0.47046 0.01554 0.0
O197 O 0.01761 0.40579 0.01152 0.0
O198 O 0.02589 0.45034 0.99955 0.0
O199 O 0.98816 0.42681 0.10159 0.0
O200 O 0.99145 0.38995 0.07212 0.0
O201 O 0.95276 0.381 0.01429 0.0
O202 O 0.91609 0.40909 0.00959 0.0
O203 O 0.92564 0.4739 0.99305 0.0
O204 O 0.99288 0.49308 0.08275 0.0
O205 O 0.97004 0.48647 0.98328 0.0
O206 O 0.00688 0.50326 0.03928 0.0
C207 C 0.90656 0.46273 0.0833 0.0
C208 C 0.0329 0.42448 0.99947 0.0
C209 C 0.92752 0.38515 0.00604 0.0
C210 C 0.99429 0.40107 0.09677 0.0
C211 C 0.94366 0.48695 0.97776 0.0
C212 C 0.00586 0.50924 0.0656 0.0
O213 O 0.90253 0.45753 0.05704 0.0
O214 O 0.1191 0.90472 0.47153 0.0
Zn215 Zn 0.11299 0.94576 0.4642 0.0
O216 O 0.07877 0.95103 0.44203 0.0
Zn217 Zn 0.08872 0.96816 0.40612 0.0
Zn218 Zn 0.0609 0.91411 0.435 0.0
Zn219 Zn 0.05273 0.9758 0.46237 0.0
O220 O 0.07451 0.00766 0.40354 0.0
O221 O 0.05189 0.01442 0.44419 0.0
O222 O 0.14821 0.95707 0.44301 0.0
O223 O 0.13065 0.97029 0.40195 0.0
O224 O 0.07567 0.94443 0.37272 0.0
O225 O 0.05959 0.90569 0.39355 0.0
O226 O 0.0208 0.91365 0.44841 0.0
O227 O 0.11038 0.96643 0.50147 0.0
O228 O 0.01285 0.95795 0.46255 0.0
O229 O 0.06656 0.98271 0.50261 0.0
C230 C 0.10597 0.88175 0.46495 0.0
C231 C 0.06108 0.02354 0.42064 0.0
C232 C 0.06556 0.91928 0.37133 0.0
C233 C 0.15164 0.96542 0.41783 0.0
C234 C 0.0041 0.9326 0.45737 0.0
C235 C 0.09047 0.97902 0.51441 0.0
O236 O 0.08264 0.88197 0.45146 0.0
O237 O 0.98673 0.61068 0.42434 0.0
Zn238 Zn 0.98095 0.59495 0.46366 0.0
O239 O 0.96276 0.5575 0.46179 0.0
Zn240 Zn 0.92565 0.55917 0.47946 0.0
Zn241 Zn 0.95895 0.54595 0.42242 0.0
Zn242 Zn 0.9851 0.52931 0.48086 0.0
O243 O 0.92193 0.53135 0.51063 0.0
O244 O 0.96563 0.51603 0.51604 0.0
O245 O 0.95775 0.62312 0.48628 0.0
O246 O 0.91965 0.59737 0.49711 0.0
O247 O 0.89422 0.55299 0.45119 0.0
O248 O 0.91838 0.54535 0.41174 0.0
O249 O 0.97246 0.50662 0.41494 0.0
O250 O 0.01913 0.59154 0.48179 0.0
O251 O 0.98947 0.49406 0.45643 0.0
O252 O 0.02323 0.546 0.49181 0.0
C253 C 0.98547 0.59923 0.39972 0.0
C254 C 0.93993 0.51704 0.52397 0.0
C255 C 0.89503 0.54822 0.42465 0.0
C256 C 0.93368 0.62065 0.49824 0.0
C257 C 0.98337 0.48827 0.43069 0.0
C258 C 0.03332 0.57123 0.49149 0.0
O259 O 0.97728 0.57358 0.39621 0.0
O260 O 0.42691 0.97265 0.61409 0.0
Zn261 Zn 0.46741 0.9683 0.60049 0.0
O262 O 0.4675 0.9518 0.56212 0.0
Zn263 Zn 0.4822 0.91372 0.56328 0.0
Zn264 Zn 0.42907 0.95055 0.5468 0.0
Zn265 Zn 0.49192 0.97404 0.53745 0.0
O266 O 0.51914 0.91038 0.5428 0.0
O267 O 0.52874 0.95432 0.52965 0.0
O268 O 0.48728 0.94322 0.6286 0.0
O269 O 0.49184 0.90391 0.60284 0.0
O270 O 0.45393 0.88441 0.54943 0.0
O271 O 0.41666 0.91014 0.5394 0.0
O272 O 0.42704 0.97072 0.50924 0.0
O273 O 0.48681 0.00689 0.60056 0.0
O274 O 0.47195 0.98274 0.50076 0.0
O275 O 0.50255 0.01083 0.55653 0.0
C276 C 0.40281 0.97139 0.60182 0.0
C277 C 0.53598 0.92871 0.53229 0.0
C278 C 0.42837 0.88625 0.54128 0.0
C279 C 0.49437 0.91742 0.62623 0.0
C280 C 0.44603 0.98125 0.49311 0.0
C281 C 0.49968 0.02087 0.58148 0.0
O282 O 0.4007 0.96509 0.57553 0.0
O283 O 0.59789 0.53789 0.59542 0.0
Zn284 Zn 0.55861 0.54028 0.57889 0.0
O285 O 0.56021 0.55147 0.53953 0.0
Zn286 Zn 0.54591 0.58981 0.53627 0.0
Zn287 Zn 0.59944 0.55076 0.52677 0.0
Zn288 Zn 0.53705 0.52486 0.51651 0.0
O289 O 0.51119 0.58916 0.51179 0.0
O290 O 0.50237 0.54384 0.50125 0.0
O291 O 0.53749 0.56854 0.60256 0.0
O292 O 0.53301 0.60508 0.57429 0.0
O293 O 0.57517 0.61684 0.51966 0.0
O294 O 0.61184 0.58901 0.51302 0.0
O295 O 0.60366 0.52408 0.49342 0.0
O296 O 0.53948 0.50211 0.58252 0.0
O297 O 0.55948 0.5103 0.48332 0.0
O298 O 0.52453 0.49093 0.53915 0.0
C299 C 0.62266 0.53815 0.58481 0.0
C300 C 0.49569 0.56978 0.50026 0.0
C301 C 0.6005 0.61308 0.51132 0.0
C302 C 0.52961 0.59369 0.59829 0.0
C303 C 0.58583 0.51075 0.47757 0.0
C304 C 0.52703 0.48502 0.56519 0.0
O305 O 0.62642 0.54156 0.55841 0.0
O306 O 0.61396 0.40827 0.99507 0.0
Zn307 Zn 0.60508 0.44635 0.97948 0.0
O308 O 0.56714 0.44636 0.96321 0.0
Zn309 Zn 0.56938 0.45715 0.92401 0.0
Zn310 Zn 0.55041 0.40834 0.96543 0.0
Zn311 Zn 0.54384 0.47416 0.98281 0.0
O312 O 0.55433 0.49568 0.91723 0.0
O313 O 0.53712 0.50858 0.95893 0.0
O314 O 0.63528 0.45391 0.95038 0.0
O315 O 0.60946 0.45857 0.9117 0.0
O316 O 0.55088 0.42848 0.89835 0.0
O317 O 0.54378 0.39175 0.92614 0.0
O318 O 0.51262 0.41045 0.98488 0.0
O319 O 0.60812 0.47475 0.01135 0.0
O320 O 0.50665 0.45614 0.99477 0.0
O321 O 0.56409 0.48939 0.01721 0.0
C322 C 0.60082 0.38451 0.99615 0.0
C323 C 0.54269 0.51393 0.93322 0.0
C324 C 0.54372 0.40269 0.90173 0.0
C325 C 0.63338 0.45741 0.92385 0.0
C326 C 0.49769 0.43048 0.99482 0.0
C327 C 0.58993 0.48923 0.02482 0.0
O328 O 0.57592 0.38133 0.98597 0.0
O329 O 0.47425 0.0969 0.89684 0.0
Zn330 Zn 0.47271 0.08745 0.93788 0.0
O331 O 0.45382 0.05108 0.94296 0.0
Zn332 Zn 0.41932 0.05652 0.96458 0.0
Zn333 Zn 0.44495 0.03458 0.90581 0.0
Zn334 Zn 0.47825 0.02578 0.96339 0.0
O335 O 0.42027 0.03581 0.00121 0.0
O336 O 0.46429 0.0204 0.00356 0.0
O337 O 0.45209 0.11966 0.95648 0.0
O338 O 0.41438 0.09749 0.97385 0.0
O339 O 0.38457 0.04612 0.94181 0.0
O340 O 0.40316 0.03409 0.90036 0.0
O341 O 0.45701 0.99412 0.90277 0.0
O342 O 0.51271 0.08605 0.95128 0.0
O343 O 0.47649 0.9869 0.94478 0.0
O344 O 0.51882 0.04141 0.96373 0.0
C345 C 0.46934 0.0835 0.87372 0.0
C346 C 0.43997 0.02388 0.01465 0.0
C347 C 0.38179 0.03873 0.91594 0.0
C348 C 0.42847 0.12017 0.96936 0.0
C349 C 0.46798 0.97777 0.92063 0.0
C350 C 0.52859 0.06637 0.95944 0.0
O351 O 0.45985 0.05807 0.87357 0.0
C352 C 0.01841 0.17806 0.37602 0.0
C353 C 0.04158 0.19408 0.36602 0.0
C354 C 0.02206 0.15154 0.38801 0.0
C355 C 0.04965 0.14093 0.39075 0.0
C356 C 0.07333 0.15796 0.38293 0.0
C357 C 0.06902 0.18427 0.37038 0.0
C358 C 0.99617 0.13398 0.39565 0.0
C359 C 0.10314 0.14769 0.38629 0.0
C360 C 0.05639 0.07465 0.43448 0.0
C361 C 0.05736 0.0535 0.4133 0.0
C362 C 0.05477 0.10335 0.42751 0.0
C363 C 0.05328 0.11092 0.39875 0.0
C364 C 0.05385 0.08957 0.37734 0.0
C365 C 0.05627 0.06119 0.38488 0.0
C366 C 0.05485 0.12556 0.45087 0.0
C367 C 0.05155 0.09665 0.34642 0.0
H368 H 0.99707 0.18541 0.37295 0.0
H369 H 0.08706 0.19653 0.36289 0.0
H370 H 0.99409 0.11557 0.38082 0.0
H371 H 0.99827 0.12556 0.41724 0.0
H372 H 0.97642 0.14623 0.39463 0.0
H373 H 0.11916 0.16495 0.38343 0.0
H374 H 0.10605 0.13853 0.40748 0.0
H375 H 0.10711 0.13073 0.37034 0.0
H376 H 0.05765 0.06881 0.45648 0.0
H377 H 0.05696 0.0449 0.36846 0.0
H378 H 0.03478 0.13729 0.45053 0.0
H379 H 0.07233 0.14119 0.44751 0.0
H380 H 0.05738 0.11629 0.47209 0.0
H381 H 0.03151 0.10777 0.34254 0.0
H382 H 0.05203 0.07753 0.33242 0.0
H383 H 0.0692 0.11116 0.34041 0.0
C384 C 0.01542 0.33509 0.36567 0.0
C385 C 0.9904 0.31925 0.36032 0.0
C386 C 0.01479 0.36194 0.37867 0.0
C387 C 0.98852 0.37326 0.3868 0.0
C388 C 0.96325 0.357 0.38252 0.0
C389 C 0.96447 0.33018 0.36922 0.0
C390 C 0.0422 0.37862 0.38272 0.0
C391 C 0.93487 0.36831 0.3912 0.0
C392 C 0.99016 0.43645 0.43784 0.0
C393 C 0.98654 0.45902 0.41944 0.0
C394 C 0.99051 0.40837 0.42759 0.0
C395 C 0.9875 0.40276 0.39823 0.0
C396 C 0.98438 0.42548 0.37951 0.0
C397 C 0.9838 0.45328 0.39034 0.0
C398 C 0.99374 0.38467 0.44819 0.0
C399 C 0.98155 0.4204 0.348 0.0
H400 H 0.03562 0.32687 0.35899 0.0
H401 H 0.94507 0.31808 0.36524 0.0
H402 H 0.04188 0.39792 0.36977 0.0
H403 H 0.04463 0.38564 0.40512 0.0
H404 H 0.06099 0.3662 0.37659 0.0
H405 H 0.91751 0.35225 0.38843 0.0
H406 H 0.93547 0.37552 0.41366 0.0
H407 H 0.9299 0.38693 0.37835 0.0
H408 H 0.99201 0.44063 0.46038 0.0
H409 H 0.98102 0.47057 0.37595 0.0
H410 H 0.01286 0.37243 0.44294 0.0
H411 H 0.97527 0.36982 0.44651 0.0
H412 H 0.99555 0.39254 0.47041 0.0
H413 H 0.00038 0.40928 0.33983 0.0
H414 H 0.97936 0.44038 0.33631 0.0
H415 H 0.96277 0.40656 0.34339 0.0
C416 C 0.02729 0.81219 0.10884 0.0
C417 C 0.00394 0.80332 0.12494 0.0
C418 C 0.02879 0.8394 0.09768 0.0
C419 C 0.00634 0.85816 0.10268 0.0
C420 C 0.98149 0.84837 0.11643 0.0
C421 C 0.98055 0.82097 0.12741 0.0
C422 C 0.05555 0.84886 0.08286 0.0
C423 C 0.95692 0.8676 0.12179 0.0
C424 C 0.03038 0.93468 0.11274 0.0
C425 C 0.02479 0.94592 0.08615 0.0
C426 C 0.02359 0.90638 0.11858 0.0
C427 C 0.01081 0.88883 0.09734 0.0
C428 C 0.0042 0.90021 0.07077 0.0
C429 C 0.01134 0.92863 0.06545 0.0
C430 C 0.03095 0.89505 0.14727 0.0
C431 C 0.99038 0.88219 0.04772 0.0
H432 H 0.04531 0.79852 0.10653 0.0
H433 H 0.96238 0.81426 0.13974 0.0
H434 H 0.05049 0.86024 0.06328 0.0
H435 H 0.06774 0.86377 0.0969 0.0
H436 H 0.06926 0.8308 0.0773 0.0
H437 H 0.93747 0.85555 0.12783 0.0
H438 H 0.96246 0.88274 0.13926 0.0
H439 H 0.95229 0.88014 0.10283 0.0
H440 H 0.04061 0.94783 0.12894 0.0
H441 H 0.00677 0.93712 0.04488 0.0
H442 H 0.04684 0.87824 0.14487 0.0
H443 H 0.0119 0.88536 0.15716 0.0
H444 H 0.0397 0.91176 0.16185 0.0
H445 H 0.00531 0.8659 0.04025 0.0
H446 H 0.98399 0.89489 0.02936 0.0
H447 H 0.9714 0.87089 0.056 0.0
C448 C 0.01836 0.66535 0.11812 0.0
C449 C 0.0437 0.67487 0.13089 0.0
C450 C 0.01608 0.6385 0.10529 0.0
C451 C 0.03972 0.62065 0.10531 0.0
C452 C 0.06587 0.6307 0.11669 0.0
C453 C 0.06759 0.65782 0.12936 0.0
C454 C 0.98787 0.62869 0.09309 0.0
C455 C 0.09155 0.61229 0.1169 0.0
C456 C 0.01714 0.54353 0.10513 0.0
C457 C 0.01843 0.53639 0.07625 0.0
C458 C 0.02576 0.57045 0.11511 0.0
C459 C 0.03591 0.59073 0.09576 0.0
C460 C 0.03896 0.58314 0.06688 0.0
C461 C 0.03015 0.55603 0.05744 0.0
C462 C 0.02235 0.5777 0.14614 0.0
C463 C 0.04992 0.60415 0.04569 0.0
H464 H -8e-05 0.67859 0.11891 0.0
H465 H 0.08725 0.66509 0.13918 0.0
H466 H 0.99058 0.62039 0.07119 0.0
H467 H 0.97899 0.61117 0.10585 0.0
H468 H 0.97227 0.64592 0.09279 0.0
H469 H 0.11113 0.62449 0.12276 0.0
H470 H 0.08834 0.59521 0.13239 0.0
H471 H 0.09464 0.60201 0.09588 0.0
H472 H 0.00844 0.52841 0.11989 0.0
H473 H 0.0315 0.55065 0.03512 0.0
H474 H 0.00526 0.59324 0.14887 0.0
H475 H 0.04211 0.58767 0.15474 0.0
H476 H 0.01693 0.5588 0.1588 0.0
H477 H 0.03363 0.62023 0.04202 0.0
H478 H 0.05503 0.59382 0.02508 0.0
H479 H 0.06914 0.61548 0.05387 0.0
C480 C 0.40772 0.01129 0.17781 0.0
C481 C 0.3961 0.98499 0.18551 0.0
C482 C 0.41858 0.01551 0.15063 0.0
C483 C 0.41767 0.99292 0.13055 0.0
C484 C 0.40785 0.96578 0.13879 0.0
C485 C 0.39724 0.9621 0.16625 0.0
C486 C 0.42915 0.0447 0.14284 0.0
C487 C 0.40663 0.94113 0.11803 0.0
C488 C 0.4069 0.01571 0.05502 0.0
C489 C 0.43437 0.01438 0.04388 0.0
C490 C 0.40116 0.00799 0.08291 0.0
C491 C 0.42343 0.99876 0.10027 0.0
C492 C 0.4511 0.99672 0.08907 0.0
C493 C 0.45625 0.00451 0.06096 0.0
C494 C 0.3713 0.01036 0.09398 0.0
C495 C 0.47536 0.98701 0.10697 0.0
H496 H 0.40723 0.02902 0.19268 0.0
H497 H 0.38833 0.9417 0.17203 0.0
H498 H 0.44974 0.04352 0.13169 0.0
H499 H 0.41386 0.05426 0.1282 0.0
H500 H 0.43176 0.05896 0.16166 0.0
H501 H 0.40248 0.92072 0.12866 0.0
H502 H 0.38942 0.94436 0.10251 0.0
H503 H 0.42672 0.93972 0.10604 0.0
H504 H 0.38977 0.02307 0.04201 0.0
H505 H 0.47753 0.00335 0.05257 0.0
H506 H 0.37081 0.02632 0.11147 0.0
H507 H 0.36395 0.98986 0.10268 0.0
H508 H 0.35615 0.01662 0.07738 0.0
H509 H 0.47948 0.00255 0.12444 0.0
H510 H 0.49513 0.9846 0.09456 0.0
H511 H 0.46983 0.96648 0.11674 0.0
C512 C 0.64735 0.55564 0.17184 0.0
C513 C 0.6474 0.53126 0.18823 0.0
C514 C 0.63412 0.55523 0.14526 0.0
C515 C 0.62087 0.52986 0.13516 0.0
C516 C 0.61839 0.50623 0.15294 0.0
C517 C 0.63171 0.50724 0.17931 0.0
C518 C 0.63651 0.58105 0.12713 0.0
C519 C 0.60405 0.47888 0.14311 0.0
C520 C 0.57865 0.51809 0.06811 0.0
C521 C 0.5987 0.50455 0.05099 0.0
C522 C 0.58608 0.52892 0.09497 0.0
C523 C 0.61408 0.52586 0.10482 0.0
C524 C 0.6349 0.51441 0.0867 0.0
C525 C 0.62695 0.50394 0.05996 0.0
C526 C 0.56351 0.54165 0.11348 0.0
C527 C 0.66513 0.51104 0.09636 0.0
H528 H 0.65922 0.57438 0.17883 0.0
H529 H 0.63118 0.48857 0.19225 0.0
H530 H 0.65412 0.57838 0.11189 0.0
H531 H 0.61684 0.58393 0.11477 0.0
H532 H 0.64098 0.60052 0.14006 0.0
H533 H 0.60118 0.46373 0.16059 0.0
H534 H 0.58303 0.483 0.13381 0.0
H535 H 0.61706 0.46871 0.12642 0.0
H536 H 0.55683 0.51911 0.06114 0.0
H537 H 0.64271 0.49404 0.04665 0.0
H538 H 0.57209 0.55998 0.12602 0.0
H539 H 0.55572 0.5256 0.12856 0.0
H540 H 0.54519 0.54862 0.10083 0.0
H541 H 0.67362 0.53115 0.10578 0.0
H542 H 0.67925 0.50445 0.07878 0.0
H543 H 0.66582 0.49478 0.11294 0.0
C544 C 0.41143 0.99091 0.33007 0.0
C545 C 0.39698 0.01507 0.32188 0.0
C546 C 0.42149 0.98816 0.35778 0.0
C547 C 0.4172 0.01017 0.37793 0.0
C548 C 0.40445 0.03547 0.36933 0.0
C549 C 0.39446 0.03762 0.34139 0.0
C550 C 0.4351 0.96087 0.36591 0.0
C551 C 0.39978 0.05957 0.39005 0.0
C552 C 0.41057 0.98569 0.45383 0.0
C553 C 0.43803 0.99085 0.4644 0.0
C554 C 0.40331 0.99275 0.42606 0.0
C555 C 0.42391 0.00549 0.40834 0.0
C556 C 0.45135 0.01173 0.41918 0.0
C557 C 0.45811 0.00425 0.44699 0.0
C558 C 0.3738 0.98565 0.41534 0.0
C559 C 0.47382 0.02554 0.40112 0.0
H560 H 0.41365 0.9734 0.31516 0.0
H561 H 0.38324 0.05633 0.33537 0.0
H562 H 0.45553 0.9653 0.37688 0.0
H563 H 0.42112 0.94936 0.38083 0.0
H564 H 0.439 0.94681 0.3473 0.0
H565 H 0.39327 0.07909 0.37933 0.0
H566 H 0.38296 0.05342 0.40521 0.0
H567 H 0.41931 0.06435 0.40246 0.0
H568 H 0.39485 0.97542 0.46702 0.0
H569 H 0.47933 0.00856 0.45492 0.0
H570 H 0.37485 0.96968 0.39789 0.0
H571 H 0.36401 0.00474 0.40666 0.0
H572 H 0.35981 0.97712 0.43215 0.0
H573 H 0.47971 0.01087 0.38362 0.0
H574 H 0.49323 0.03136 0.41339 0.0
H575 H 0.46556 0.04487 0.39141 0.0
C576 C 0.63186 0.50696 0.3216 0.0
C577 C 0.64648 0.48355 0.31103 0.0
C578 C 0.61908 0.50648 0.34825 0.0
C579 C 0.62084 0.48191 0.36472 0.0
C580 C 0.63341 0.45736 0.3532 0.0
C581 C 0.64616 0.45847 0.3264 0.0
C582 C 0.60562 0.53306 0.35962 0.0
C583 C 0.63524 0.43062 0.36992 0.0
C584 C 0.62413 0.50104 0.44254 0.0
C585 C 0.59559 0.49826 0.45039 0.0
C586 C 0.63295 0.49391 0.41511 0.0
C587 C 0.61279 0.48357 0.39505 0.0
C588 C 0.58442 0.47856 0.40342 0.0
C589 C 0.57611 0.48605 0.43101 0.0
C590 C 0.66349 0.49943 0.40707 0.0
C591 C 0.56244 0.46708 0.38278 0.0
H592 H 0.63166 0.5263 0.30967 0.0
H593 H 0.65732 0.44024 0.31832 0.0
H594 H 0.58428 0.52816 0.36821 0.0
H595 H 0.6187 0.54215 0.37722 0.0
H596 H 0.60361 0.54937 0.3432 0.0
H597 H 0.64054 0.41212 0.35626 0.0
H598 H 0.65197 0.43339 0.38629 0.0
H599 H 0.615 0.42603 0.38095 0.0
H600 H 0.63943 0.51013 0.4574 0.0
H601 H 0.55406 0.48349 0.43692 0.0
H602 H 0.66478 0.51724 0.39216 0.0
H603 H 0.67226 0.48061 0.39613 0.0
H604 H 0.677 0.50488 0.42572 0.0
H605 H 0.55653 0.484 0.36812 0.0
H606 H 0.54297 0.45951 0.39368 0.0
H607 H 0.57098 0.44942 0.36984 0.0
C608 C 0.18653 0.37124 0.95058 0.0
C609 C 0.20127 0.37133 0.97635 0.0
C610 C 0.15952 0.38299 0.94883 0.0
C611 C 0.14713 0.39489 0.97342 0.0
C612 C 0.16291 0.39699 0.99885 0.0
C613 C 0.18979 0.38526 -3e-05 0.0
C614 C 0.14355 0.38089 0.9212 0.0
C615 C 0.15058 0.40968 0.02556 0.0
C616 C 0.07977 0.43673 0.97738 0.0
C617 C 0.06063 0.41626 0.98765 0.0
C618 C 0.10768 0.42969 0.97044 0.0
C619 C 0.11659 0.40163 0.97409 0.0
C620 C 0.09678 0.3805 0.98241 0.0
C621 C 0.06904 0.38805 0.98898 0.0
C622 C 0.12805 0.45266 0.96104 0.0
C623 C 0.10539 0.35025 0.98648 0.0
H624 H 0.19535 0.36067 0.93218 0.0
H625 H 0.20125 0.38582 0.01985 0.0
H626 H 0.12745 0.3635 0.92222 0.0
H627 H 0.13221 0.40072 0.91719 0.0
H628 H 0.15783 0.37641 0.90311 0.0
H629 H 0.16651 0.41204 0.04278 0.0
H630 H 0.1418 0.43075 0.02139 0.0
H631 H 0.13291 0.3959 0.03305 0.0
H632 H 0.0734 0.45854 0.97594 0.0
H633 H 0.05434 0.37197 0.99649 0.0
H634 H 0.14163 0.4449 0.94355 0.0
H635 H 0.14217 0.45905 0.97892 0.0
H636 H 0.11682 0.47168 0.95399 0.0
H637 H 0.11689 0.34227 0.96763 0.0
H638 H 0.08692 0.33591 0.99036 0.0
H639 H 0.11999 0.34928 0.00482 0.0
C640 C 0.18838 0.61848 0.54534 0.0
C641 C 0.20477 0.61862 0.52067 0.0
C642 C 0.16123 0.60579 0.54528 0.0
C643 C 0.1505 0.59313 0.51999 0.0
C644 C 0.16828 0.59043 0.4961 0.0
C645 C 0.19526 0.6032 0.49676 0.0
C646 C 0.1431 0.60843 0.57138 0.0
C647 C 0.15779 0.5768 0.4688 0.0
C648 C 0.079 0.55554 0.51268 0.0
C649 C 0.06257 0.5771 0.50159 0.0
C650 C 0.10742 0.56068 0.52031 0.0
C651 C 0.11963 0.5879 0.51642 0.0
C652 C 0.10282 0.61 0.50636 0.0
C653 C 0.07452 0.60435 0.49918 0.0
C654 C 0.1246 0.53674 0.53138 0.0
C655 C 0.11506 0.6394 0.50191 0.0
H656 H 0.19576 0.63012 0.564 0.0
H657 H 0.20813 0.60274 0.47781 0.0
H658 H 0.12823 0.62603 0.56878 0.0
H659 H 0.13028 0.58881 0.57461 0.0
H660 H 0.1561 0.61297 0.5906 0.0
H661 H 0.17534 0.57271 0.45376 0.0
H662 H 0.14643 0.55652 0.47286 0.0
H663 H 0.14262 0.591 0.45857 0.0
H664 H 0.06987 0.53446 0.51488 0.0
H665 H 0.06199 0.62123 0.49086 0.0
H666 H 0.13799 0.54405 0.5495 0.0
H667 H 0.13895 0.52901 0.51453 0.0
H668 H 0.11093 0.5187 0.53817 0.0
H669 H 0.12523 0.64769 0.52162 0.0
H670 H 0.09875 0.65452 0.49533 0.0
H671 H 0.13165 0.63862 0.48534 0.0
C672 C 0.84578 0.88422 0.49319 0.0
C673 C 0.8322 0.87151 0.46958 0.0
C674 C 0.87232 0.89778 0.49081 0.0
C675 C 0.88559 0.89902 0.46409 0.0
C676 C 0.87109 0.88819 0.4398 0.0
C677 C 0.84457 0.87441 0.44284 0.0
C678 C 0.88704 0.90886 0.51729 0.0
C679 C 0.88435 0.88956 0.41086 0.0
C680 C 0.95262 0.94501 0.45826 0.0
C681 C 0.97373 0.92476 0.46046 0.0
C682 C 0.92375 0.937 0.45888 0.0
C683 C 0.91591 0.90816 0.4623 0.0
C684 C 0.93719 0.88778 0.46507 0.0
C685 C 0.96575 0.89628 0.46389 0.0
C686 C 0.90165 0.95925 0.45551 0.0
C687 C 0.92981 0.85689 0.46936 0.0
H688 H 0.83632 0.88241 0.51395 0.0
H689 H 0.8342 0.86483 0.42446 0.0
H690 H 0.90514 0.8952 0.52215 0.0
H691 H 0.89569 0.93056 0.51417 0.0
H692 H 0.87266 0.90919 0.53584 0.0
H693 H 0.86885 0.88416 0.3938 0.0
H694 H 0.89344 0.91101 0.40718 0.0
H695 H 0.90194 0.87445 0.40944 0.0
H696 H 0.95866 0.967 0.45529 0.0
H697 H 0.98194 0.88052 0.46573 0.0
H698 H 0.8876 0.95973 0.47426 0.0
H699 H 0.88813 0.9539 0.43687 0.0
H700 H 0.91119 0.9807 0.45277 0.0
H701 H 0.91682 0.85451 0.48873 0.0
H702 H 0.9489 0.84378 0.47139 0.0
H703 H 0.91697 0.84848 0.45131 0.0
C704 C 0.33914 0.61082 0.49602 0.0
C705 C 0.3286 0.62419 0.47213 0.0
C706 C 0.36576 0.59845 0.4957 0.0
C707 C 0.38225 0.59926 0.47078 0.0
C708 C 0.37073 0.61048 0.44583 0.0
C709 C 0.34398 0.62295 0.4468 0.0
C710 C 0.37712 0.58658 0.52278 0.0
C711 C 0.38742 0.61112 0.41868 0.0
C712 C 0.45998 0.60595 0.48871 0.0
C713 C 0.46818 0.57761 0.48781 0.0
C714 C 0.4325 0.61348 0.4813 0.0
C715 C 0.4127 0.59218 0.47246 0.0
C716 C 0.42141 0.56385 0.46931 0.0
C717 C 0.44906 0.55683 0.47718 0.0
C718 C 0.42411 0.64399 0.48496 0.0
C719 C 0.40109 0.54067 0.45934 0.0
H720 H 0.32718 0.61125 0.51555 0.0
H721 H 0.33588 0.63305 0.42818 0.0
H722 H 0.38564 0.5652 0.51888 0.0
H723 H 0.3948 0.60036 0.53084 0.0
H724 H 0.36068 0.58515 0.53948 0.0
H725 H 0.37366 0.61501 0.40016 0.0
H726 H 0.40374 0.62832 0.42009 0.0
H727 H 0.39853 0.59094 0.41511 0.0
H728 H 0.47464 0.62226 0.49652 0.0
H729 H 0.45526 0.53491 0.47606 0.0
H730 H 0.40888 0.64588 0.50271 0.0
H731 H 0.41339 0.65132 0.46566 0.0
H732 H 0.44259 0.6583 0.48954 0.0
H733 H 0.38647 0.53511 0.47679 0.0
H734 H 0.41234 0.52127 0.45264 0.0
H735 H 0.38804 0.54783 0.44144 0.0
C736 C 0.50338 0.66324 0.86875 0.0
C737 C 0.52777 0.67969 0.86304 0.0
C738 C 0.50512 0.63704 0.88189 0.0
C739 C 0.53189 0.62698 0.88979 0.0
C740 C 0.55653 0.64391 0.88516 0.0
C741 C 0.5542 0.67006 0.87173 0.0
C742 C 0.47835 0.61961 0.88629 0.0
C743 C 0.58544 0.63399 0.89357 0.0
C744 C 0.53363 0.56567 0.9407 0.0
C745 C 0.53794 0.5426 0.92218 0.0
C746 C 0.53188 0.59332 0.93053 0.0
C747 C 0.53415 0.59796 0.90114 0.0
C748 C 0.5379 0.5747 0.88232 0.0
C749 C 0.53987 0.54738 0.89306 0.0
C750 C 0.528 0.61761 0.95125 0.0
C751 C 0.53997 0.57869 0.85078 0.0
H752 H 0.4828 0.67046 0.86224 0.0
H753 H 0.57313 0.68262 0.8675 0.0
H754 H 0.47909 0.59987 0.87326 0.0
H755 H 0.47656 0.61334 0.90869 0.0
H756 H 0.45903 0.63116 0.88047 0.0
H757 H 0.60218 0.65054 0.89063 0.0
H758 H 0.58539 0.62767 0.91602 0.0
H759 H 0.59092 0.61506 0.88065 0.0
H760 H 0.53238 0.56224 0.96325 0.0
H761 H 0.54314 0.52971 0.87857 0.0
H762 H 0.50841 0.62898 0.94618 0.0
H763 H 0.54595 0.63301 0.9495 0.0
H764 H 0.5267 0.61048 0.97345 0.0
H765 H 0.5206 0.58883 0.84293 0.0
H766 H 0.54266 0.55838 0.83899 0.0
H767 H 0.55817 0.593 0.84594 0.0
C768 C 0.44724 0.81569 0.87123 0.0
C769 C 0.47383 0.80315 0.86986 0.0
C770 C 0.4443 0.84294 0.88323 0.0
C771 C 0.46858 0.85799 0.89357 0.0
C772 C 0.49497 0.84451 0.89421 0.0
C773 C 0.49717 0.81716 0.88272 0.0
C774 C 0.4156 0.85632 0.88306 0.0
C775 C 0.52147 0.85982 0.90475 0.0
C776 C 0.47169 0.93771 0.88583 0.0
C777 C 0.46882 0.94717 0.91388 0.0
C778 C 0.47144 0.90871 0.87897 0.0
C779 C 0.46734 0.88873 0.90061 0.0
C780 C 0.46384 0.8982 0.92892 0.0
C781 C 0.46506 0.92734 0.93529 0.0
C782 C 0.47602 0.89946 0.8486 0.0
C783 C 0.45866 0.87757 0.95241 0.0
H784 H 0.42906 0.80499 0.86153 0.0
H785 H 0.51778 0.80753 0.88213 0.0
H786 H 0.41158 0.86742 0.9035 0.0
H787 H 0.41495 0.87229 0.86623 0.0
H788 H 0.39831 0.84043 0.87905 0.0
H789 H 0.53974 0.84553 0.90625 0.0
H790 H 0.52716 0.87705 0.89006 0.0
H791 H 0.51788 0.86973 0.92583 0.0
H792 H 0.47455 0.95303 0.86926 0.0
H793 H 0.46232 0.93465 0.95696 0.0
H794 H 0.45762 0.88651 0.84091 0.0
H795 H 0.49494 0.886 0.8471 0.0
H796 H 0.47908 0.91768 0.83436 0.0
H797 H 0.44014 0.86359 0.94716 0.0
H798 H 0.45475 0.88842 0.97303 0.0
H799 H 0.47718 0.8638 0.95471 0.0
C800 C 0.52227 0.32956 0.61874 0.0
C801 C 0.49673 0.31949 0.63029 0.0
C802 C 0.52407 0.35591 0.60579 0.0
C803 C 0.49974 0.37276 0.6044 0.0
C804 C 0.47351 0.36212 0.61465 0.0
C805 C 0.47229 0.33552 0.62746 0.0
C806 C 0.55241 0.36632 0.5949 0.0
C807 C 0.4471 0.37943 0.61342 0.0
C808 C 0.51778 0.45119 0.60429 0.0
C809 C 0.51672 0.45714 0.57537 0.0
C810 C 0.51085 0.42413 0.61412 0.0
C811 C 0.50269 0.40239 0.59458 0.0
C812 C 0.50023 0.40853 0.56554 0.0
C813 C 0.50725 0.43586 0.55626 0.0
C814 C 0.51361 0.41851 0.64531 0.0
C815 C 0.49152 0.38592 0.54409 0.0
H816 H 0.5412 0.31717 0.62054 0.0
H817 H 0.45247 0.32787 0.63631 0.0
H818 H 0.55036 0.37352 0.57284 0.0
H819 H 0.55999 0.38474 0.60793 0.0
H820 H 0.56869 0.34975 0.59549 0.0
H821 H 0.42783 0.36687 0.619 0.0
H822 H 0.44916 0.3977 0.62842 0.0
H823 H 0.44429 0.38806 0.59199 0.0
H824 H 0.52477 0.46751 0.61929 0.0
H825 H 0.50622 0.44024 0.53389 0.0
H826 H 0.53127 0.40387 0.64878 0.0
H827 H 0.49401 0.40809 0.6533 0.0
H828 H 0.5178 0.43819 0.65798 0.0
H829 H 0.50866 0.37037 0.54183 0.0
H830 H 0.48723 0.39482 0.523 0.0
H831 H 0.47231 0.37423 0.55128 0.0
C832 C 0.56177 0.17349 0.63011 0.0
C833 C 0.53989 0.19228 0.625 0.0
C834 C 0.56011 0.14553 0.61957 0.0
C835 C 0.53609 0.13649 0.60359 0.0
C836 C 0.51572 0.15635 0.59568 0.0
C837 C 0.51791 0.18407 0.60648 0.0
C838 C 0.58257 0.12509 0.62793 0.0
C839 C 0.48999 0.14768 0.57833 0.0
C840 C 0.52794 0.06407 0.56836 0.0
C841 C 0.51106 0.04967 0.5881 0.0
C842 C 0.53748 0.09199 0.57361 0.0
C843 C 0.52969 0.10589 0.59904 0.0
C844 C 0.51352 0.09116 0.61949 0.0
C845 C 0.50449 0.0632 0.6138 0.0
C846 C 0.555 0.1069 0.55153 0.0
C847 C 0.50481 0.1053 0.64695 0.0
H848 H 0.57888 0.17976 0.64436 0.0
H849 H 0.50116 0.19871 0.60216 0.0
H850 H 0.57458 0.11207 0.6456 0.0
H851 H 0.58764 0.11048 0.61011 0.0
H852 H 0.60233 0.13629 0.63503 0.0
H853 H 0.47838 0.16627 0.57076 0.0
H854 H 0.49608 0.13448 0.55978 0.0
H855 H 0.47536 0.13476 0.59142 0.0
H856 H 0.53342 0.05368 0.54855 0.0
H857 H 0.4916 0.05222 0.62922 0.0
H858 H 0.57367 0.11782 0.5614 0.0
H859 H 0.54217 0.1233 0.54145 0.0
H860 H 0.56245 0.09207 0.53477 0.0
H861 H 0.52369 0.11418 0.65825 0.0
H862 H 0.49346 0.09049 0.66118 0.0
H863 H 0.49072 0.12316 0.64251 0.0
C864 C 0.89711 0.50337 0.67942 0.0
C865 C 0.88208 0.47905 0.6877 0.0
C866 C 0.91024 0.5045 0.65302 0.0
C867 C 0.90829 0.48068 0.63449 0.0
C868 C 0.89549 0.45516 0.64376 0.0
C869 C 0.88245 0.45463 0.6704 0.0
C870 C 0.924 0.53204 0.64406 0.0
C871 C 0.89352 0.42919 0.62476 0.0
C872 C 0.90288 0.50423 0.55919 0.0
C873 C 0.93116 0.50316 0.55038 0.0
C874 C 0.89481 0.49501 0.58595 0.0
C875 C 0.91552 0.48434 0.60432 0.0
C876 C 0.94364 0.48111 0.59479 0.0
C877 C 0.95119 0.49066 0.56788 0.0
C878 C 0.8645 0.49862 0.59527 0.0
C879 C 0.96615 0.46936 0.61363 0.0
H880 H 0.89734 0.52213 0.69298 0.0
H881 H 0.87104 0.43568 0.67682 0.0
H882 H 0.94511 0.52828 0.63469 0.0
H883 H 0.91077 0.54176 0.62762 0.0
H884 H 0.92655 0.54741 0.662 0.0
H885 H 0.88859 0.40982 0.63689 0.0
H886 H 0.87644 0.43185 0.60898 0.0
H887 H 0.91356 0.42616 0.613 0.0
H888 H 0.88716 0.51343 0.54565 0.0
H889 H 0.97304 0.48941 0.56111 0.0
H890 H 0.86364 0.51533 0.61204 0.0
H891 H 0.85596 0.47875 0.60435 0.0
H892 H 0.85052 0.5047 0.5776 0.0
H893 H 0.97293 0.48578 0.62944 0.0
H894 H 0.98506 0.46286 0.6014 0.0
H895 H 0.9578 0.4509 0.62537 0.0
C896 C 0.11951 0.99213 0.67797 0.0
C897 C 0.13202 0.01803 0.6867 0.0
C898 C 0.10832 0.98837 0.65069 0.0
C899 C 0.10985 0.01103 0.63162 0.0
C900 C 0.12024 0.03791 0.64107 0.0
C901 C 0.13116 0.04113 0.66861 0.0
C902 C 0.09706 0.95946 0.64159 0.0
C903 C 0.12203 0.06264 0.62142 0.0
C904 C 0.12248 0.98758 0.55587 0.0
C905 C 0.09536 0.98905 0.54395 0.0
C906 C 0.12752 0.99556 0.5841 0.0
C907 C 0.10486 0.00523 0.601 0.0
C908 C 0.07758 0.00757 0.589 0.0
C909 C 0.07313 0.99946 0.56055 0.0
C910 C 0.15701 0.99289 0.59605 0.0
C911 C 0.05296 0.01782 0.6064 0.0
H912 H 0.11972 0.97428 0.69201 0.0
H913 H 0.14069 0.06125 0.67525 0.0
H914 H 0.07681 0.96118 0.62994 0.0
H915 H 0.11243 0.94937 0.62705 0.0
H916 H 0.09361 0.94538 0.65985 0.0
H917 H 0.12587 0.08299 0.6331 0.0
H918 H 0.13972 0.0595 0.60636 0.0
H919 H 0.10231 0.06414 0.60884 0.0
H920 H 0.13988 0.97983 0.54321 0.0
H921 H 0.05211 0.00075 0.55152 0.0
H922 H 0.1568 0.97701 0.613 0.0
H923 H 0.16436 0.01336 0.60565 0.0
H924 H 0.17256 0.98634 0.57972 0.0
H925 H 0.04762 0.0021 0.62276 0.0
H926 H 0.03382 0.02107 0.59329 0.0
H927 H 0.0587 0.03798 0.61757 0.0
C928 C 0.89876 0.50033 0.82189 0.0
C929 C 0.88333 0.52388 0.8139 0.0
C930 C 0.91149 0.49927 0.84855 0.0
C931 C 0.90887 0.52242 0.86772 0.0
C932 C 0.89552 0.54729 0.85889 0.0
C933 C 0.88282 0.54773 0.83199 0.0
C934 C 0.92574 0.4724 0.85698 0.0
C935 C 0.89281 0.57261 0.87852 0.0
C936 C 0.90553 0.49761 0.9431 0.0
C937 C 0.93392 0.50058 0.9516 0.0
C938 C 0.89675 0.50639 0.91643 0.0
C939 C 0.91677 0.51871 0.89784 0.0
C940 C 0.94496 0.52377 0.90707 0.0
C941 C 0.95327 0.5145 0.93381 0.0
C942 C 0.86642 0.50065 0.90744 0.0
C943 C 0.96677 0.53736 0.88809 0.0
H944 H 0.8996 0.48198 0.80784 0.0
H945 H 0.871 0.56605 0.82592 0.0
H946 H 0.94689 0.47728 0.86627 0.0
H947 H 0.91287 0.46165 0.87335 0.0
H948 H 0.92833 0.45746 0.83879 0.0
H949 H 0.88709 0.59187 0.86693 0.0
H950 H 0.87604 0.5682 0.89431 0.0
H951 H 0.91285 0.57692 0.89025 0.0
H952 H 0.89033 0.48714 0.95673 0.0
H953 H 0.97519 0.51724 0.94029 0.0
H954 H 0.86578 0.48411 0.89046 0.0
H955 H 0.85715 0.51998 0.89871 0.0
H956 H 0.85295 0.49332 0.9252 0.0
H957 H 0.97322 0.52184 0.87156 0.0
H958 H 0.98598 0.54453 0.90002 0.0
H959 H 0.95783 0.55572 0.87721 0.0
C960 C 0.11865 0.00831 0.82952 0.0
C961 C 0.1333 0.98445 0.81997 0.0
C962 C 0.10857 0.01044 0.85733 0.0
C963 C 0.11308 0.98811 0.8762 0.0
C964 C 0.12601 0.96308 0.86616 0.0
C965 C 0.13599 0.96154 0.83814 0.0
C966 C 0.09474 0.03745 0.86702 0.0
C967 C 0.1309 0.93865 0.88547 0.0
C968 C 0.12011 0.01168 0.95327 0.0
C969 C 0.09273 0.0063 0.96365 0.0
C970 C 0.12724 0.00492 0.92514 0.0
C971 C 0.10658 0.99227 0.90687 0.0
C972 C 0.07926 0.98573 0.91748 0.0
C973 C 0.07263 0.99291 0.94567 0.0
C974 C 0.15664 0.01231 0.91469 0.0
C975 C 0.05674 0.97199 0.89881 0.0
H976 H 0.11627 0.02606 0.81562 0.0
H977 H 0.14735 0.94305 0.83104 0.0
H978 H 0.07441 0.03264 0.87779 0.0
H979 H 0.1087 0.04884 0.88254 0.0
H980 H 0.09061 0.05176 0.84921 0.0
H981 H 0.13738 0.91935 0.87361 0.0
H982 H 0.14784 0.94459 0.90088 0.0
H983 H 0.11149 0.9336 0.89771 0.0
H984 H 0.13586 0.02192 0.9669 0.0
H985 H 0.05147 0.98843 0.95345 0.0
H986 H 0.15538 0.02855 0.89815 0.0
H987 H 0.16644 0.99341 0.9049 0.0
H988 H 0.17072 0.02063 0.9319 0.0
H989 H 0.05047 0.98691 0.88224 0.0
H990 H 0.03755 0.96571 0.91091 0.0
H991 H 0.06511 0.95296 0.88789 0.0
C992 C 0.69307 0.87953 0.49539 0.0
C993 C 0.70667 0.87123 0.52022 0.0
C994 C 0.66631 0.89171 0.49623 0.0
C995 C 0.65284 0.89597 0.52257 0.0
C996 C 0.66719 0.8894 0.54786 0.0
C997 C 0.69396 0.87701 0.5464 0.0
C998 C 0.65176 0.89837 0.46877 0.0
C999 C 0.65363 0.89404 0.57639 0.0
C1000 C 0.58736 0.94135 0.52601 0.0
C1001 C 0.56558 0.92066 0.52652 0.0
C1002 C 0.61591 0.9337 0.52466 0.0
C1003 C 0.62279 0.90472 0.52342 0.0
C1004 C 0.60086 0.8838 0.52286 0.0
C1005 C 0.57257 0.89202 0.52457 0.0
C1006 C 0.63872 0.95658 0.52544 0.0
C1007 C 0.60729 0.85266 0.521 0.0
H1008 H 0.70278 0.87541 0.47502 0.0
H1009 H 0.70433 0.87077 0.56567 0.0
H1010 H 0.63344 0.88358 0.46541 0.0
H1011 H 0.64343 0.92011 0.46958 0.0
H1012 H 0.66615 0.89643 0.45032 0.0
H1013 H 0.6687 0.89087 0.59403 0.0
H1014 H 0.64528 0.91574 0.5782 0.0
H1015 H 0.63544 0.87902 0.57874 0.0
H1016 H 0.58217 0.96352 0.5278 0.0
H1017 H 0.55588 0.87591 0.52488 0.0
H1018 H 0.65303 0.95418 0.50703 0.0
H1019 H 0.65182 0.95455 0.54475 0.0
H1020 H 0.62985 0.97814 0.52536 0.0
H1021 H 0.62031 0.84817 0.502 0.0
H1022 H 0.58779 0.83912 0.51991 0.0
H1023 H 0.61979 0.84662 0.53972 0.0
C1024 C 0.68753 0.11995 0.94032 0.0
C1025 C 0.70123 0.12354 0.96648 0.0
C1026 C 0.66107 0.10584 0.93833 0.0
C1027 C 0.6481 0.09529 0.9631 0.0
C1028 C 0.66298 0.09676 0.98905 0.0
C1029 C 0.68939 0.11076 0.99039 0.0
C1030 C 0.64605 0.10422 0.91016 0.0
C1031 C 0.64997 0.08581 0.01596 0.0
C1032 C 0.56842 0.10095 0.96702 0.0
C1033 C 0.55923 0.07284 0.96242 0.0
C1034 C 0.59726 0.10832 0.96751 0.0
C1035 C 0.61753 0.08712 0.96291 0.0
C1036 C 0.60849 0.05859 0.95864 0.0
C1037 C 0.57935 0.05172 0.95866 0.0
C1038 C 0.60601 0.13893 0.97274 0.0
C1039 C 0.62952 0.03552 0.9534 0.0
H1040 H 0.69664 0.12953 0.9217 0.0
H1041 H 0.70003 0.11303 0.01066 0.0
H1042 H 0.63625 0.08292 0.90652 0.0
H1043 H 0.62879 0.11976 0.91009 0.0
H1044 H 0.66061 0.10899 0.89238 0.0
H1045 H 0.66577 0.0847 0.0333 0.0
H1046 H 0.63292 0.10011 0.02294 0.0
H1047 H 0.64024 0.06447 0.01241 0.0
H1048 H 0.55296 0.11733 0.97012 0.0
H1049 H 0.57231 0.03001 0.95481 0.0
H1050 H 0.61794 0.147 0.95429 0.0
H1051 H 0.62027 0.14078 0.99137 0.0
H1052 H 0.58758 0.1527 0.97651 0.0
H1053 H 0.64129 0.03968 0.93359 0.0
H1054 H 0.61913 0.01424 0.95158 0.0
H1055 H 0.64531 0.03537 0.97077 0.0
C1056 C 0.33616 0.39429 0.00103 0.0
C1057 C 0.32668 0.38019 0.02515 0.0
C1058 C 0.36328 0.40676 4e-05 0.0
C1059 C 0.38133 0.40516 0.02381 0.0
C1060 C 0.37086 0.39353 0.0492 0.0
C1061 C 0.34355 0.3811 0.04959 0.0
C1062 C 0.37347 0.41918 0.9726 0.0
C1063 C 0.38929 0.39197 0.07516 0.0
C1064 C 0.45783 0.396 0.00289 0.0
C1065 C 0.46879 0.42376 0.00531 0.0
C1066 C 0.42974 0.38953 0.01014 0.0
C1067 C 0.4121 0.41132 0.02029 0.0
C1068 C 0.42336 0.4391 0.02422 0.0
C1069 C 0.45157 0.44505 0.01654 0.0
C1070 C 0.41856 0.35957 0.00561 0.0
C1071 C 0.40532 0.46276 0.03539 0.0
H1072 H 0.32302 0.39406 0.98221 0.0
H1073 H 0.33631 0.37037 0.06836 0.0
H1074 H 0.38432 0.43993 0.97648 0.0
H1075 H 0.38904 0.40486 0.96264 0.0
H1076 H 0.35585 0.42206 0.95742 0.0
H1077 H 0.37659 0.38777 0.09443 0.0
H1078 H 0.40447 0.37457 0.07227 0.0
H1079 H 0.4018 0.41189 0.07849 0.0
H1080 H 0.47095 0.37932 0.99446 0.0
H1081 H 0.45989 0.46652 0.01875 0.0
H1082 H 0.40203 0.35912 0.9889 0.0
H1083 H 0.40856 0.35173 0.02523 0.0
H1084 H 0.43545 0.3448 0.99917 0.0
H1085 H 0.38994 0.46869 0.01891 0.0
H1086 H 0.41823 0.48186 0.04144 0.0
H1087 H 0.39297 0.45581 0.05404 0.0
C1088 C 0.83863 0.12544 0.04327 0.0
C1089 C 0.82599 0.12946 0.01686 0.0
C1090 C 0.86515 0.11264 0.04533 0.0
C1091 C 0.87935 0.1038 0.02041 0.0
C1092 C 0.866 0.10647 0.99386 0.0
C1093 C 0.83951 0.11915 0.99243 0.0
C1094 C 0.87858 0.10983 0.07407 0.0
C1095 C 0.88038 0.09739 0.96678 0.0
C1096 C 0.95972 0.10528 0.02284 0.0
C1097 C 0.96581 0.07659 0.0259 0.0
C1098 C 0.93172 0.11427 0.02063 0.0
C1099 C 0.90913 0.09414 0.02179 0.0
C1100 C 0.91509 0.06506 0.02416 0.0
C1101 C 0.94338 0.0566 0.02601 0.0
C1102 C 0.92632 0.14544 0.01758 0.0
C1103 C 0.89157 0.043 0.02559 0.0
H1104 H 0.82836 0.13326 0.06225 0.0
H1105 H 0.82988 0.12193 0.97189 0.0
H1106 H 0.88614 0.088 0.0768 0.0
H1107 H 0.8973 0.12435 0.07589 0.0
H1108 H 0.8637 0.11496 0.09149 0.0
H1109 H 0.86613 0.09852 0.94815 0.0
H1110 H 0.89922 0.11127 0.96313 0.0
H1111 H 0.88792 0.07543 0.96834 0.0
H1112 H 0.9769 0.12086 0.02265 0.0
H1113 H 0.94785 0.03443 0.02865 0.0
H1114 H 0.91399 0.1533 0.03595 0.0
H1115 H 0.9135 0.1489 0.99834 0.0
H1116 H 0.94624 0.15826 0.01617 0.0
H1117 H 0.87848 0.04695 0.04465 0.0
H1118 H 0.89973 0.02118 0.02641 0.0
H1119 H 0.87743 0.04443 0.00696 0.0
C1120 C 0.00682 0.16223 0.2665 0.0
C1121 C 0.98417 0.18086 0.26597 0.0
C1122 C 0.00983 0.14126 0.24559 0.0
C1123 C 0.98945 0.13868 0.22372 0.0
C1124 C 0.96469 0.15509 0.22507 0.0
C1125 C 0.96235 0.17627 0.24625 0.0
C1126 C 0.03651 0.12422 0.2452 0.0
C1127 C 0.94194 0.15204 0.20276 0.0
C1128 C 0.02327 0.12401 0.15284 0.0
C1129 C 0.02043 0.09452 0.15025 0.0
C1130 C 0.01219 0.13864 0.17614 0.0
C1131 C 0.99724 0.12351 0.19714 0.0
C1132 C 0.99304 0.09386 0.19398 0.0
C1133 C 0.00515 0.07958 0.17075 0.0
C1134 C 0.01771 0.17021 0.17886 0.0
C1135 C 0.97649 0.07708 0.21542 0.0
H1136 H 0.02338 0.16535 0.28224 0.0
H1137 H 0.94467 0.19048 0.24601 0.0
H1138 H 0.03154 0.10153 0.24093 0.0
H1139 H 0.05055 0.13175 0.22799 0.0
H1140 H 0.04835 0.12622 0.26549 0.0
H1141 H 0.92168 0.16112 0.21011 0.0
H1142 H 0.9488 0.16337 0.18355 0.0
H1143 H 0.93824 0.12946 0.19671 0.0
H1144 H 0.03504 0.13565 0.13703 0.0
H1145 H 0.00253 0.05681 0.16857 0.0
H1146 H 0.03067 0.17502 0.19802 0.0
H1147 H 0.99747 0.1814 0.18134 0.0
H1148 H 0.02903 0.17885 0.16025 0.0
H1149 H 0.99021 0.07302 0.23387 0.0
H1150 H 0.96899 0.05633 0.2065 0.0
H1151 H 0.95796 0.08897 0.22318 0.0
C1152 C 0.99796 0.30429 0.22921 0.0
C1153 C 0.02441 0.29789 0.24076 0.0
C1154 C 0.99576 0.32076 0.20508 0.0
C1155 C 0.02062 0.33128 0.19198 0.0
C1156 C 0.04747 0.32476 0.20326 0.0
C1157 C 0.04906 0.30809 0.22755 0.0
C1158 C 0.96669 0.32714 0.19378 0.0
C1159 C 0.07442 0.33564 0.18983 0.0
C1160 C 0.00871 0.35457 0.11658 0.0
C1161 C 0.00398 0.38359 0.12056 0.0
C1162 C 0.01569 0.33749 0.13943 0.0
C1163 C 0.01802 0.34968 0.16694 0.0
C1164 C 0.01457 0.37916 0.17088 0.0
C1165 C 0.00757 0.39572 0.1477 0.0
C1166 C 0.01921 0.30614 0.13434 0.0
C1167 C 0.01688 0.39302 0.19985 0.0
H1168 H 0.97872 0.29646 0.23909 0.0
H1169 H 0.06957 0.30323 0.23628 0.0
H1170 H 0.9635 0.35032 0.1943 0.0
H1171 H 0.96479 0.31983 0.17142 0.0
H1172 H 0.94946 0.31685 0.20611 0.0
H1173 H 0.09362 0.32802 0.20062 0.0
H1174 H 0.07512 0.32885 0.16726 0.0
H1175 H 0.07496 0.35911 0.19045 0.0
H1176 H 0.00619 0.34497 0.09571 0.0
H1177 H 0.00424 0.41815 0.15104 0.0
H1178 H 0.00124 0.29435 0.14402 0.0
H1179 H 0.0389 0.29898 0.14452 0.0
H1180 H 0.01992 0.30047 0.11146 0.0
H1181 H 0.99894 0.38572 0.21315 0.0
H1182 H 0.01657 0.41647 0.19895 0.0
H1183 H 0.03669 0.38681 0.21046 0.0
C1184 C 0.04267 0.83177 0.22736 0.0
C1185 C 0.06247 0.81013 0.22638 0.0
C1186 C 0.04484 0.85367 0.24758 0.0
C1187 C 0.06719 0.85364 0.26746 0.0
C1188 C 0.08862 0.83322 0.265 0.0
C1189 C 0.08608 0.81165 0.24427 0.0
C1190 C 0.02184 0.87532 0.24914 0.0
C1191 C 0.11289 0.83269 0.28575 0.0
C1192 C 0.07721 0.91499 0.3198 0.0
C1193 C 0.06343 0.90426 0.34371 0.0
C1194 C 0.07839 0.89896 0.29455 0.0
C1195 C 0.06546 0.8717 0.29331 0.0
C1196 C 0.05065 0.86124 0.31704 0.0
C1197 C 0.04981 0.87765 0.34191 0.0
C1198 C 0.09417 0.91079 0.26954 0.0
C1199 C 0.03624 0.83236 0.31643 0.0
H1200 H 0.02468 0.8309 0.21307 0.0
H1201 H 0.10146 0.79499 0.24337 0.0
H1202 H 0.00742 0.87029 0.26692 0.0
H1203 H 0.03095 0.89684 0.25322 0.0
H1204 H 0.00912 0.87553 0.22938 0.0
H1205 H 0.12983 0.81833 0.2785 0.0
H1206 H 0.12219 0.85423 0.28918 0.0
H1207 H 0.10493 0.82529 0.30645 0.0
H1208 H 0.08791 0.9355 0.32107 0.0
H1209 H 0.03896 0.86928 0.36021 0.0
H1210 H 0.08075 0.90932 0.25028 0.0
H1211 H 0.11323 0.8981 0.26532 0.0
H1212 H 0.10097 0.93322 0.27313 0.0
H1213 H 0.02042 0.83098 0.29907 0.0
H1214 H 0.02532 0.82756 0.33661 0.0
H1215 H 0.05207 0.81581 0.31222 0.0
C1216 C 0.97842 0.69455 0.26279 0.0
C1217 C 0.00495 0.69923 0.25024 0.0
C1218 C 0.97575 0.6787 0.28751 0.0
C1219 C 0.00016 0.66726 0.29995 0.0
C1220 C 0.02698 0.67199 0.28744 0.0
C1221 C 0.02905 0.68789 0.26278 0.0
C1222 C 0.94677 0.67407 0.30025 0.0
C1223 C 0.0535 0.6601 0.3 0.0
C1224 C 0.99654 0.64577 0.37698 0.0
C1225 C 0.99137 0.61648 0.3744 0.0
C1226 C -0.00035 0.66255 0.35294 0.0
C1227 C 0.99761 0.64975 0.32568 0.0
C1228 C 0.99303 0.62015 0.32293 0.0
C1229 C 0.98998 0.6039 0.34727 0.0
C1230 C 0.00462 0.69406 0.35671 0.0
C1231 C 0.9909 0.60567 0.29423 0.0
H1232 H 0.95971 0.70326 0.25331 0.0
H1233 H 0.04967 0.69139 0.25331 0.0
H1234 H 0.94151 0.65109 0.30067 0.0
H1235 H 0.94664 0.68209 0.32244 0.0
H1236 H 0.92997 0.68478 0.2883 0.0
H1237 H 0.07281 0.66609 0.28795 0.0
H1238 H 0.05614 0.66776 0.32218 0.0
H1239 H 0.05169 0.63668 0.30041 0.0
H1240 H 0.99759 0.65573 0.39779 0.0
H1241 H 0.98603 0.58131 0.34495 0.0
H1242 H 0.98699 0.70553 0.34694 0.0
H1243 H 0.02436 0.70068 0.34576 0.0
H1244 H 0.00631 0.70067 0.37932 0.0
H1245 H 0.97287 0.61418 0.28226 0.0
H1246 H 0.98785 0.58239 0.29572 0.0
H1247 H 0.01037 0.61008 0.28184 0.0
C1248 C 0.26575 0.99394 0.19355 0.0
C1249 C 0.27744 0.0181 0.20731 0.0
C1250 C 0.24166 0.99549 0.17629 0.0
C1251 C 0.22878 0.02188 0.1725 0.0
C1252 C 0.24052 0.04644 0.18612 0.0
C1253 C 0.26469 0.04427 0.20339 0.0
C1254 C 0.22987 0.96877 0.16224 0.0
C1255 C 0.22744 0.07498 0.18257 0.0
C1256 C 0.18058 0.02897 0.10841 0.0
C1257 C 0.15354 0.02548 0.12034 0.0
C1258 C 0.20519 0.02811 0.12514 0.0
C1259 C 0.20282 0.02355 0.15455 0.0
C1260 C 0.17565 0.01976 0.16669 0.0
C1261 C 0.1514 0.02078 0.14949 0.0
C1262 C 0.23375 0.03217 0.11134 0.0
C1263 C 0.17217 0.01466 0.19791 0.0
H1264 H 0.27534 0.97357 0.19637 0.0
H1265 H 0.27352 0.06305 0.21387 0.0
H1266 H 0.20778 0.9648 0.1693 0.0
H1267 H 0.2293 0.97123 0.13898 0.0
H1268 H 0.24253 0.94994 0.16709 0.0
H1269 H 0.23932 0.09211 0.19418 0.0
H1270 H 0.22672 0.08026 0.15984 0.0
H1271 H 0.20529 0.07438 0.19033 0.0
H1272 H 0.18258 0.03275 0.08598 0.0
H1273 H 0.1307 0.0181 0.15903 0.0
H1274 H 0.24675 0.01324 0.11452 0.0
H1275 H 0.24526 0.05047 0.12136 0.0
H1276 H 0.232 0.03585 0.08829 0.0
H1277 H 0.18328 0.99518 0.20375 0.0
H1278 H 0.14959 0.01237 0.20415 0.0
H1279 H 0.18198 0.03246 0.21033 0.0
C1280 C 0.77719 0.50837 0.18298 0.0
C1281 C 0.76466 0.48475 0.19594 0.0
C1282 C 0.79985 0.5054 0.16405 0.0
C1283 C 0.81035 0.47816 0.15791 0.0
C1284 C 0.79767 0.4542 0.17071 0.0
C1285 C 0.77498 0.45777 0.18954 0.0
C1286 C 0.81273 0.53147 0.15081 0.0
C1287 C 0.80829 0.4248 0.16474 0.0
C1288 C 0.8542 0.46684 0.09134 0.0
C1289 C 0.88191 0.46766 0.10215 0.0
C1290 C 0.83072 0.47037 0.10919 0.0
C1291 C 0.835 0.4748 0.13859 0.0
C1292 C 0.86289 0.47593 0.14961 0.0
C1293 C 0.88596 0.47238 0.1313 0.0
C1294 C 0.80131 0.46913 0.09663 0.0
C1295 C 0.86836 0.48067 0.18082 0.0
H1296 H 0.76937 0.52931 0.18769 0.0
H1297 H 0.76546 0.4394 0.19941 0.0
H1298 H 0.83535 0.53382 0.15696 0.0
H1299 H 0.81196 0.52931 0.12743 0.0
H1300 H 0.80169 0.55106 0.15726 0.0
H1301 H 0.79581 0.40831 0.17596 0.0
H1302 H 0.80736 0.41998 0.14171 0.0
H1303 H 0.83077 0.42357 0.17132 0.0
H1304 H 0.85077 0.46321 0.0689 0.0
H1305 H 0.90723 0.47306 0.13995 0.0
H1306 H 0.79019 0.48901 0.10167 0.0
H1307 H 0.7888 0.45158 0.10606 0.0
H1308 H 0.80157 0.46592 0.07331 0.0
H1309 H 0.8591 0.50091 0.18803 0.0
H1310 H 0.89132 0.48124 0.18601 0.0
H1311 H 0.85792 0.46354 0.19297 0.0
C1312 C 0.27637 0.93623 0.31296 0.0
C1313 C 0.29801 0.9568 0.31507 0.0
C1314 C 0.25528 0.93471 0.33383 0.0
C1315 C 0.25627 0.9541 0.35711 0.0
C1316 C 0.27986 0.97273 0.36069 0.0
C1317 C 0.30039 0.97394 0.33951 0.0
C1318 C 0.23063 0.91423 0.32958 0.0
C1319 C 0.28204 0.99343 0.38537 0.0
C1320 C 0.18512 0.98097 0.38051 0.0
C1321 C 0.18013 0.96568 0.40511 0.0
C1322 C 0.21015 0.97777 0.36515 0.0
C1323 C 0.23061 0.95858 0.37449 0.0
C1324 C 0.22627 0.94392 0.39995 0.0
C1325 C 0.20105 0.94775 0.41509 0.0
C1326 C 0.21426 0.9943 0.33839 0.0
C1327 C 0.24761 0.9233 0.4105 0.0
H1328 H 0.27466 0.92296 0.29406 0.0
H1329 H 0.31753 0.98955 0.34128 0.0
H1330 H 0.22502 0.90387 0.34971 0.0
H1331 H 0.21185 0.92595 0.32258 0.0
H1332 H 0.23523 0.89765 0.31338 0.0
H1333 H 0.30386 0.0024 0.3879 0.0
H1334 H 0.26748 0.01112 0.38186 0.0
H1335 H 0.27567 0.98322 0.40535 0.0
H1336 H 0.16904 0.99492 0.37281 0.0
H1337 H 0.19713 0.93562 0.43395 0.0
H1338 H 0.21571 0.97951 0.31997 0.0
H1339 H 0.23439 0.00681 0.33952 0.0
H1340 H 0.19668 0.00898 0.33457 0.0
H1341 H 0.24791 0.90452 0.39608 0.0
H1342 H 0.24261 0.91607 0.43217 0.0
H1343 H 0.26922 0.93297 0.41052 0.0
C1344 C 0.76712 0.56571 0.3178 0.0
C1345 C 0.75307 0.53958 0.31359 0.0
C1346 C 0.78755 0.56931 0.33917 0.0
C1347 C 0.79374 0.54625 0.35662 0.0
C1348 C 0.77804 0.52056 0.3538 0.0
C1349 C 0.75794 0.51751 0.33221 0.0
C1350 C 0.80388 0.59705 0.34173 0.0
C1351 C 0.78387 0.49557 0.37218 0.0
C1352 C 0.86956 0.53847 0.37944 0.0
C1353 C 0.86865 0.54708 0.40794 0.0
C1354 C 0.84531 0.53843 0.36257 0.0
C1355 C 0.81944 0.54724 0.37447 0.0
C1356 C 0.81819 0.55586 0.40323 0.0
C1357 C 0.8429 0.55562 0.41973 0.0
C1358 C 0.8474 0.52885 0.33198 0.0
C1359 C 0.79086 0.56536 0.41646 0.0
H1360 H 0.76316 0.58291 0.3036 0.0
H1361 H 0.74662 0.49744 0.32942 0.0
H1362 H 0.8059 0.60393 0.3642 0.0
H1363 H 0.8256 0.59427 0.33337 0.0
H1364 H 0.7937 0.61405 0.32974 0.0
H1365 H 0.76715 0.47876 0.37006 0.0
H1366 H 0.80443 0.48638 0.36603 0.0
H1367 H 0.78552 0.50229 0.39472 0.0
H1368 H 0.88934 0.53174 0.37017 0.0
H1369 H 0.84211 0.56246 0.44171 0.0
H1370 H 0.84037 0.54586 0.31794 0.0
H1371 H 0.83322 0.51016 0.32803 0.0
H1372 H 0.86929 0.52311 0.32594 0.0
H1373 H 0.78259 0.5836 0.40486 0.0
H1374 H 0.79353 0.57163 0.43908 0.0
H1375 H 0.77461 0.5481 0.41484 0.0
C1376 C 0.20602 0.2481 0.05527 0.0
C1377 C 0.21071 0.25991 0.02869 0.0
C1378 C 0.18763 0.22456 0.05833 0.0
C1379 C 0.17352 0.21274 0.03427 0.0
C1380 C 0.17763 0.22504 0.00755 0.0
C1381 C 0.19618 0.24839 0.00508 0.0
C1382 C 0.18379 0.21194 0.08716 0.0
C1383 C 0.16285 0.21318 0.98142 0.0
C1384 C 0.14992 0.13547 0.03468 0.0
C1385 C 0.12087 0.13737 0.04046 0.0
C1386 C 0.16727 0.15982 0.03282 0.0
C1387 C 0.15533 0.18681 0.0367 0.0
C1388 C 0.126 0.18896 0.04221 0.0
C1389 C 0.10913 0.16422 0.04406 0.0
C1390 C 0.19846 0.15665 0.02685 0.0
C1391 C 0.11249 0.21739 0.04625 0.0
H1392 H 0.21715 0.25687 0.0736 0.0
H1393 H 0.19947 0.25748 0.98446 0.0
H1394 H 0.16099 0.21089 0.09272 0.0
H1395 H 0.19153 0.18996 0.0869 0.0
H1396 H 0.19535 0.2243 0.10392 0.0
H1397 H 0.16733 0.22601 0.96245 0.0
H1398 H 0.16977 0.19125 0.9771 0.0
H1399 H 0.13963 0.2122 0.98481 0.0
H1400 H 0.15928 0.11487 0.03196 0.0
H1401 H 0.08675 0.16597 0.04859 0.0
H1402 H 0.21117 0.16678 0.04416 0.0
H1403 H 0.20418 0.16759 0.00707 0.0
H1404 H 0.2045 0.13414 0.02468 0.0
H1405 H 0.12267 0.22912 0.06423 0.0
H1406 H 0.08939 0.21545 0.0504 0.0
H1407 H 0.11579 0.23028 0.02715 0.0
C1408 C 0.20319 0.74814 0.4486 0.0
C1409 C 0.20551 0.73236 0.47322 0.0
C1410 C 0.18456 0.77086 0.44735 0.0
C1411 C 0.16765 0.77767 0.47116 0.0
C1412 C 0.16883 0.76082 0.49548 0.0
C1413 C 0.18785 0.73851 0.49628 0.0
C1414 C 0.18398 0.78844 0.42107 0.0
C1415 C 0.15089 0.7671 0.52114 0.0
C1416 C 0.14776 0.85455 0.48068 0.0
C1417 C 0.1201 0.85451 0.46975 0.0
C1418 C 0.16322 0.82962 0.48157 0.0
C1419 C 0.1507 0.80385 0.47158 0.0
C1420 C 0.1224 0.80334 0.46166 0.0
C1421 C 0.10746 0.8287 0.46075 0.0
C1422 C 0.19336 0.83108 0.49235 0.0
C1423 C 0.10821 0.77617 0.45125 0.0
H1424 H 0.21677 0.7435 0.43074 0.0
H1425 H 0.18927 0.72617 0.51528 0.0
H1426 H 0.16191 0.79062 0.41356 0.0
H1427 H 0.19247 0.81004 0.42606 0.0
H1428 H 0.19675 0.77914 0.40367 0.0
H1429 H 0.15207 0.75025 0.53711 0.0
H1430 H 0.15814 0.78741 0.53117 0.0
H1431 H 0.12844 0.7695 0.51492 0.0
H1432 H 0.15781 0.8743 0.48768 0.0
H1433 H 0.08612 0.82839 0.45227 0.0
H1434 H 0.20802 0.82449 0.47527 0.0
H1435 H 0.19594 0.81625 0.50999 0.0
H1436 H 0.19979 0.85269 0.49988 0.0
H1437 H 0.11917 0.76825 0.43204 0.0
H1438 H 0.08552 0.77897 0.44605 0.0
H1439 H 0.1098 0.75963 0.46745 0.0
C1440 C 0.83273 0.74295 0.49927 0.0
C1441 C 0.8281 0.76084 0.52274 0.0
C1442 C 0.85236 0.72132 0.50018 0.0
C1443 C 0.86813 0.71742 0.52517 0.0
C1444 C 0.86383 0.73545 0.54901 0.0
C1445 C 0.84366 0.75692 0.54759 0.0
C1446 C 0.85593 0.70242 0.47431 0.0
C1447 C 0.88051 0.73202 0.57589 0.0
C1448 C 0.89404 0.64266 0.52514 0.0
C1449 C 0.92013 0.64578 0.51123 0.0
C1450 C 0.87797 0.66625 0.53253 0.0
C1451 C 0.88825 0.69366 0.52593 0.0
C1452 C 0.9158 0.69712 0.51453 0.0
C1453 C 0.93143 0.67311 0.50725 0.0
C1454 C 0.84878 0.66153 0.54475 0.0
C1455 C 0.92771 0.72602 0.50754 0.0
H1456 H 0.82071 0.7456 0.48001 0.0
H1457 H 0.84027 0.77075 0.56575 0.0
H1458 H 0.87823 0.70344 0.46702 0.0
H1459 H 0.85093 0.68011 0.47963 0.0
H1460 H 0.84205 0.70841 0.45653 0.0
H1461 H 0.87511 0.7481 0.59233 0.0
H1462 H 0.8764 0.71066 0.58447 0.0
H1463 H 0.90351 0.73379 0.57139 0.0
H1464 H 0.88531 0.62167 0.52884 0.0
H1465 H 0.95172 0.67579 0.49686 0.0
H1466 H 0.83271 0.66427 0.52794 0.0
H1467 H 0.84452 0.67722 0.56186 0.0
H1468 H 0.84598 0.63992 0.55328 0.0
H1469 H 0.91773 0.73331 0.4878 0.0
H1470 H 0.95099 0.72573 0.5043 0.0
H1471 H 0.92292 0.74166 0.52455 0.0
C1472 C 0.3257 0.7509 0.54992 0.0
C1473 C 0.32123 0.73776 0.52344 0.0
C1474 C 0.34436 0.7743 0.55296 0.0
C1475 C 0.35892 0.78457 0.52897 0.0
C1476 C 0.35514 0.77083 0.50239 0.0
C1477 C 0.33631 0.74764 0.49993 0.0
C1478 C 0.3479 0.78852 0.58164 0.0
C1479 C 0.37046 0.78106 0.47637 0.0
C1480 C 0.38234 0.86171 0.52937 0.0
C1481 C 0.41117 0.86007 0.53621 0.0
C1482 C 0.36514 0.83727 0.52692 0.0
C1483 C 0.37706 0.81052 0.53131 0.0
C1484 C 0.40622 0.80859 0.53762 0.0
C1485 C 0.42295 0.83341 0.54001 0.0
C1486 C 0.33411 0.8401 0.52002 0.0
C1487 C 0.41965 0.78036 0.54221 0.0
H1488 H 0.31414 0.74335 0.56815 0.0
H1489 H 0.33318 0.73744 0.47942 0.0
H1490 H 0.37063 0.78986 0.58754 0.0
H1491 H 0.34018 0.81048 0.58089 0.0
H1492 H 0.33613 0.77711 0.5984 0.0
H1493 H 0.36637 0.76705 0.45762 0.0
H1494 H 0.36362 0.80269 0.47137 0.0
H1495 H 0.39361 0.78229 0.48031 0.0
H1496 H 0.37301 0.88218 0.52642 0.0
H1497 H 0.44518 0.83191 0.54532 0.0
H1498 H 0.321 0.83113 0.53724 0.0
H1499 H 0.32878 0.8279 0.50039 0.0
H1500 H 0.32818 0.86247 0.51713 0.0
H1501 H 0.40941 0.76971 0.56034 0.0
H1502 H 0.44274 0.78247 0.54647 0.0
H1503 H 0.41634 0.76637 0.52334 0.0
C1504 C 0.46652 0.68411 0.7306 0.0
C1505 C 0.49091 0.69528 0.74404 0.0
C1506 C 0.46861 0.66711 0.70591 0.0
C1507 C 0.49566 0.66132 0.69452 0.0
C1508 C 0.52023 0.67271 0.70795 0.0
C1509 C 0.51755 0.68944 0.73244 0.0
C1510 C 0.44198 0.65524 0.69209 0.0
C1511 C 0.54951 0.66713 0.69655 0.0
C1512 C 0.51303 0.59778 0.64845 0.0
C1513 C 0.51721 0.61023 0.62203 0.0
C1514 C 0.50393 0.61378 0.67187 0.0
C1515 C 0.49893 0.64297 0.66887 0.0
C1516 C 0.50143 0.65528 0.64193 0.0
C1517 C 0.51054 0.63877 0.61882 0.0
C1518 C 0.50146 0.59982 0.70021 0.0
C1519 C 0.49625 0.68633 0.63785 0.0
H1520 H 0.44588 0.68854 0.73938 0.0
H1521 H 0.53659 0.698 0.74251 0.0
H1522 H 0.44092 0.66198 0.6698 0.0
H1523 H 0.44231 0.63178 0.69178 0.0
H1524 H 0.42255 0.66214 0.70322 0.0
H1525 H 0.56644 0.67792 0.70934 0.0
H1526 H 0.55337 0.64407 0.69622 0.0
H1527 H 0.55123 0.67446 0.67448 0.0
H1528 H 0.51775 0.57567 0.65113 0.0
H1529 H 0.51338 0.64855 0.59847 0.0
H1530 H 0.48144 0.60564 0.71082 0.0
H1531 H 0.51917 0.60735 0.71406 0.0
H1532 H 0.50222 0.57639 0.6983 0.0
H1533 H 0.47631 0.69262 0.64834 0.0
H1534 H 0.49506 0.69172 0.61514 0.0
H1535 H 0.51375 0.69906 0.64777 0.0
C1536 C 0.5028 0.82833 0.76201 0.0
C1537 C 0.52771 0.81341 0.76657 0.0
C1538 C 0.50136 0.84891 0.74131 0.0
C1539 C 0.52558 0.85513 0.72486 0.0
C1540 C 0.55156 0.84205 0.73105 0.0
C1541 C 0.55232 0.82115 0.75186 0.0
C1542 C 0.47318 0.86219 0.7355 0.0
C1543 C 0.57803 0.84878 0.7145 0.0
C1544 C 0.50565 0.87245 0.64995 0.0
C1545 C 0.50502 0.90211 0.65102 0.0
C1546 C 0.51381 0.85704 0.67344 0.0
C1547 C 0.52206 0.87159 0.69865 0.0
C1548 C 0.52302 0.90157 0.69947 0.0
C1549 C 0.51414 0.91653 0.67571 0.0
C1550 C 0.51198 0.82509 0.67171 0.0
C1551 C 0.53238 0.91782 0.72574 0.0
H1552 H 0.48382 0.82298 0.7738 0.0
H1553 H 0.5717 0.80993 0.75552 0.0
H1554 H 0.4756 0.88551 0.73446 0.0
H1555 H 0.46498 0.85442 0.71469 0.0
H1556 H 0.45714 0.85706 0.75188 0.0
H1557 H 0.59732 0.84156 0.72543 0.0
H1558 H 0.57674 0.83802 0.69348 0.0
H1559 H 0.58017 0.87186 0.71094 0.0
H1560 H 0.49873 0.86105 0.63097 0.0
H1561 H 0.51411 0.93945 0.67658 0.0
H1562 H 0.49533 0.81728 0.68633 0.0
H1563 H 0.53229 0.81596 0.67837 0.0
H1564 H 0.50683 0.81704 0.65005 0.0
H1565 H 0.51541 0.91673 0.74188 0.0
H1566 H 0.53703 0.94045 0.72138 0.0
H1567 H 0.55152 0.90838 0.73495 0.0
C1568 C 0.55859 0.30691 0.76332 0.0
C1569 C 0.53259 0.2996 0.75053 0.0
C1570 C 0.55963 0.32313 0.78849 0.0
C1571 C 0.53409 0.33212 0.8011 0.0
C1572 C 0.50783 0.32464 0.78839 0.0
C1573 C 0.5074 0.30853 0.76326 0.0
C1574 C 0.58805 0.33086 0.80149 0.0
C1575 C 0.48017 0.33384 0.80123 0.0
C1576 C 0.53586 0.35512 0.8784 0.0
C1577 C 0.53824 0.38464 0.87632 0.0
C1578 C 0.53418 0.33771 0.85406 0.0
C1579 C 0.53483 0.35015 0.8271 0.0
C1580 C 0.5363 0.37992 0.82487 0.0
C1581 C 0.53794 0.3968 0.84949 0.0
C1582 C 0.53242 0.30599 0.85716 0.0
C1583 C 0.53681 0.39395 0.79645 0.0
H1584 H 0.57811 0.30004 0.75365 0.0
H1585 H 0.48717 0.30289 0.75362 0.0
H1586 H 0.59097 0.35421 0.80245 0.0
H1587 H 0.58896 0.32328 0.82351 0.0
H1588 H 0.60589 0.32171 0.78939 0.0
H1589 H 0.46151 0.32561 0.78906 0.0
H1590 H 0.47843 0.32638 0.82326 0.0
H1591 H 0.47947 0.35727 0.80213 0.0
H1592 H 0.53614 0.34553 0.89901 0.0
H1593 H 0.53967 0.41958 0.84763 0.0
H1594 H 0.55135 0.29626 0.84752 0.0
H1595 H 0.5136 0.29714 0.84573 0.0
H1596 H 0.5311 0.29971 0.87963 0.0
H1597 H 0.55572 0.38726 0.78439 0.0
H1598 H 0.53729 0.41741 0.79841 0.0
H1599 H 0.5179 0.38721 0.7839 0.0
C1600 C 0.5018 0.16911 0.73323 0.0
C1601 C 0.48016 0.18823 0.72808 0.0
C1602 C 0.4991 0.1489 0.75434 0.0
C1603 C 0.47422 0.14788 0.77088 0.0
C1604 C 0.45152 0.16585 0.76456 0.0
C1605 C 0.45472 0.1858 0.74307 0.0
C1606 C 0.52368 0.12995 0.76014 0.0
C1607 C 0.42461 0.16529 0.7817 0.0
C1608 C 0.46274 0.08674 0.82112 0.0
C1609 C 0.47242 0.09885 0.8468 0.0
C1610 C 0.46318 0.10235 0.79612 0.0
C1611 C 0.47352 0.13069 0.79688 0.0
C1612 C 0.48383 0.14281 0.82259 0.0
C1613 C 0.4832 0.12676 0.84715 0.0
C1614 C 0.45222 0.08871 0.76903 0.0
C1615 C 0.49526 0.17291 0.82426 0.0
H1616 H 0.52137 0.17058 0.72135 0.0
H1617 H 0.43793 0.20048 0.73911 0.0
H1618 H 0.53402 0.1367 0.78031 0.0
H1619 H 0.51622 0.10771 0.76248 0.0
H1620 H 0.53981 0.13071 0.74308 0.0
H1621 H 0.40775 0.17794 0.77198 0.0
H1622 H 0.41659 0.14324 0.78406 0.0
H1623 H 0.42905 0.17404 0.80323 0.0
H1624 H 0.45426 0.06525 0.82063 0.0
H1625 H 0.49078 0.13636 0.86681 0.0
H1626 H 0.46876 0.0897 0.75244 0.0
H1627 H 0.43382 0.10048 0.76121 0.0
H1628 H 0.44561 0.06624 0.7718 0.0
H1629 H 0.51343 0.17547 0.80964 0.0
H1630 H 0.50236 0.17919 0.84593 0.0
H1631 H 0.47872 0.18768 0.81754 0.0
C1632 C 0.75492 0.5513 0.69162 0.0
C1633 C 0.76561 0.52457 0.69739 0.0
C1634 C 0.73211 0.55423 0.67282 0.0
C1635 C 0.71973 0.52987 0.65946 0.0
C1636 C 0.73066 0.5029 0.66494 0.0
C1637 C 0.7534 0.50059 0.68379 0.0
C1638 C 0.72104 0.58335 0.66748 0.0
C1639 C 0.71811 0.4764 0.65113 0.0
C1640 C 0.64381 0.53216 0.63295 0.0
C1641 C 0.64758 0.53556 0.60377 0.0
C1642 C 0.66709 0.53055 0.6513 0.0
C1643 C 0.6949 0.53237 0.64027 0.0
C1644 C 0.69891 0.53577 0.61087 0.0
C1645 C 0.67523 0.5373 0.59298 0.0
C1646 C 0.66191 0.52683 0.68251 0.0
C1647 C 0.72823 0.53772 0.59831 0.0
H1648 H 0.7642 0.56995 0.70198 0.0
H1649 H 0.7615 0.47982 0.688 0.0
H1650 H 0.72164 0.5877 0.64454 0.0
H1651 H 0.69861 0.58442 0.67426 0.0
H1652 H 0.73344 0.60023 0.67893 0.0
H1653 H 0.72949 0.45709 0.65712 0.0
H1654 H 0.69556 0.47381 0.65728 0.0
H1655 H 0.71872 0.47816 0.62779 0.0
H1656 H 0.6226 0.53084 0.64158 0.0
H1657 H 0.67844 0.54002 0.57052 0.0
H1658 H 0.67232 0.5444 0.69476 0.0
H1659 H 0.67138 0.50687 0.6895 0.0
H1660 H 0.639 0.52623 0.68779 0.0
H1661 H 0.74038 0.55559 0.60834 0.0
H1662 H 0.72777 0.5408 0.5751 0.0
H1663 H 0.73985 0.51813 0.60263 0.0
C1664 C 0.263 0.00737 0.69117 0.0
C1665 C 0.25169 0.9833 0.70441 0.0
C1666 C 0.2872 0.00588 0.67404 0.0
C1667 C 0.30061 0.97966 0.66991 0.0
C1668 C 0.28919 0.95518 0.68293 0.0
C1669 C 0.26488 0.95728 0.70002 0.0
C1670 C 0.29858 0.03249 0.66057 0.0
C1671 C 0.30282 0.9268 0.67903 0.0
C1672 C 0.34972 0.97116 0.60651 0.0
C1673 C 0.3766 0.9751 0.61893 0.0
C1674 C 0.32487 0.97253 0.62281 0.0
C1675 C 0.32681 0.97803 0.6523 0.0
C1676 C 0.35381 0.98242 0.66491 0.0
C1677 C 0.37831 0.98091 0.64813 0.0
C1678 C 0.29652 0.96783 0.6085 0.0
C1679 C 0.35684 0.9885 0.69623 0.0
H1680 H 0.25303 0.02762 0.69432 0.0
H1681 H 0.25637 0.93856 0.71011 0.0
H1682 H 0.32049 0.03713 0.66808 0.0
H1683 H 0.29955 0.02946 0.63728 0.0
H1684 H 0.28542 0.05114 0.66545 0.0
H1685 H 0.29109 0.90969 0.6901 0.0
H1686 H 0.30395 0.9211 0.65621 0.0
H1687 H 0.32486 0.92795 0.68718 0.0
H1688 H 0.34804 0.96656 0.58404 0.0
H1689 H 0.39888 0.98394 0.65804 0.0
H1690 H 0.28315 0.98657 0.612 0.0
H1691 H 0.28523 0.94947 0.61788 0.0
H1692 H 0.29858 0.96388 0.58537 0.0
H1693 H 0.3452 0.00785 0.70214 0.0
H1694 H 0.37931 0.99151 0.7028 0.0
H1695 H 0.34734 0.97081 0.7083 0.0
C1696 C 0.76613 0.49316 0.82854 0.0
C1697 C 0.77442 0.47017 0.81153 0.0
C1698 C 0.7455 0.48985 0.84941 0.0
C1699 C 0.73281 0.46287 0.85335 0.0
C1700 C 0.7421 0.43924 0.83733 0.0
C1701 C 0.76289 0.44317 0.81653 0.0
C1702 C 0.73616 0.51556 0.86611 0.0
C1703 C 0.72906 0.41014 0.84114 0.0
C1704 C 0.68599 0.45441 0.91786 0.0
C1705 C 0.65916 0.459 0.90628 0.0
C1706 C 0.71028 0.45497 0.9008 0.0
C1707 C 0.70752 0.46032 0.87162 0.0
C1708 C 0.68052 0.46485 0.85983 0.0
C1709 C 0.65671 0.46414 0.87729 0.0
C1710 C 0.73884 0.45007 0.91396 0.0
C1711 C 0.67678 0.47082 0.82879 0.0
H1712 H 0.77527 0.51405 0.82513 0.0
H1713 H 0.76941 0.42529 0.80361 0.0
H1714 H 0.71429 0.52085 0.85984 0.0
H1715 H 0.73584 0.51116 0.88905 0.0
H1716 H 0.75017 0.53434 0.86258 0.0
H1717 H 0.74101 0.3935 0.82971 0.0
H1718 H 0.72813 0.40493 0.86388 0.0
H1719 H 0.707 0.40971 0.83304 0.0
H1720 H 0.68803 0.45024 0.94021 0.0
H1721 H 0.6361 0.46768 0.86809 0.0
H1722 H 0.75261 0.46921 0.91178 0.0
H1723 H 0.74945 0.43244 0.90271 0.0
H1724 H 0.73722 0.445 0.93673 0.0
H1725 H 0.68837 0.49067 0.82346 0.0
H1726 H 0.65418 0.473 0.82284 0.0
H1727 H 0.68584 0.45354 0.81572 0.0
C1728 C 0.25235 0.06588 0.8153 0.0
C1729 C 0.2331 0.04299 0.81554 0.0
C1730 C 0.27391 0.06826 0.83575 0.0
C1731 C 0.27586 0.04732 0.85668 0.0
C1732 C 0.2546 0.02597 0.85862 0.0
C1733 C 0.2335 0.02404 0.83794 0.0
C1734 C 0.29602 0.09159 0.83337 0.0
C1735 C 0.25566 0.00342 0.88075 0.0
C1736 C 0.3497 0.0255 0.87597 0.0
C1737 C 0.35357 0.03858 0.90255 0.0
C1738 C 0.32441 0.02818 0.861 0.0
C1739 C 0.30245 0.04446 0.87287 0.0
C1740 C 0.30585 0.05713 0.90003 0.0
C1741 C 0.33142 0.05395 0.91466 0.0
C1742 C 0.32141 0.0139 0.83224 0.0
C1743 C 0.28283 0.07463 0.91323 0.0
H1744 H 0.25186 0.08063 0.79807 0.0
H1745 H 0.21812 0.00666 0.83845 0.0
H1746 H 0.30142 0.10076 0.8545 0.0
H1747 H 0.31565 0.08276 0.82426 0.0
H1748 H 0.28887 0.10877 0.81954 0.0
H1749 H 0.23513 0.99166 0.88255 0.0
H1750 H 0.27222 0.98808 0.87494 0.0
H1751 H 0.26132 0.01274 0.90175 0.0
H1752 H 0.3667 0.01351 0.86657 0.0
H1753 H 0.33443 0.06436 0.93509 0.0
H1754 H 0.31769 0.02996 0.81594 0.0
H1755 H 0.30284 0.99911 0.83204 0.0
H1756 H 0.34047 0.00186 0.82618 0.0
H1757 H 0.27937 0.0936 0.90034 0.0
H1758 H 0.28816 0.08168 0.93518 0.0
H1759 H 0.26254 0.06236 0.91353 0.0
C1760 C 0.69927 0.74354 0.45629 0.0
C1761 C 0.71228 0.75427 0.48106 0.0
C1762 C 0.67935 0.72092 0.45732 0.0
C1763 C 0.67257 0.70872 0.48367 0.0
C1764 C 0.68558 0.7196 0.50865 0.0
C1765 C 0.7051 0.74218 0.50704 0.0
C1766 C 0.66572 0.70996 0.43029 0.0
C1767 C 0.67921 0.70712 0.53718 0.0
C1768 C 0.60667 0.66455 0.49965 0.0
C1769 C 0.61773 0.63726 0.50058 0.0
C1770 C 0.62382 0.6879 0.49216 0.0
C1771 C 0.65273 0.6839 0.48559 0.0
C1772 C 0.66356 0.65623 0.48494 0.0
C1773 C 0.64595 0.63329 0.49238 0.0
C1774 C 0.61142 0.71704 0.49288 0.0
C1775 C 0.69426 0.651 0.47818 0.0
H1776 H 0.7046 0.75281 0.43617 0.0
H1777 H 0.71501 0.75017 0.52636 0.0
H1778 H 0.6714 0.68757 0.42647 0.0
H1779 H 0.64233 0.71048 0.43217 0.0
H1780 H 0.67235 0.72246 0.41171 0.0
H1781 H 0.69089 0.7183 0.55463 0.0
H1782 H 0.6562 0.70809 0.54166 0.0
H1783 H 0.68498 0.6845 0.53714 0.0
H1784 H 0.58485 0.66786 0.50565 0.0
H1785 H 0.6547 0.61231 0.4927 0.0
H1786 H 0.61766 0.72887 0.47377 0.0
H1787 H 0.61982 0.72914 0.51151 0.0
H1788 H 0.58794 0.71621 0.49427 0.0
H1789 H 0.7007 0.66221 0.45877 0.0
H1790 H 0.69852 0.62813 0.47519 0.0
H1791 H 0.70777 0.65946 0.49574 0.0
C1792 C 0.69643 0.25399 0.99054 0.0
C1793 C 0.70431 0.24025 0.0153 0.0
C1794 C 0.67792 0.2767 0.99128 0.0
C1795 C 0.66658 0.28598 0.01743 0.0
C1796 C 0.67382 0.27187 0.04251 0.0
C1797 C 0.69276 0.24923 0.04119 0.0
C1798 C 0.67103 0.29122 0.964 0.0
C1799 C 0.66189 0.28096 0.07073 0.0
C1800 C 0.6447 0.36246 0.01472 0.0
C1801 C 0.6161 0.35963 0.00675 0.0
C1802 C 0.66094 0.33868 0.02028 0.0
C1803 C 0.64828 0.31131 0.01809 0.0
C1804 C 0.61893 0.3084 0.01223 0.0
C1805 C 0.60321 0.33257 0.0065 0.0
C1806 C 0.69217 0.34282 0.02633 0.0
C1807 C 0.60451 0.27963 0.0101 0.0
H1808 H 0.70515 0.24734 0.97037 0.0
H1809 H 0.69863 0.23871 0.06041 0.0
H1810 H 0.64781 0.29088 0.96049 0.0
H1811 H 0.67818 0.31372 0.96532 0.0
H1812 H 0.68125 0.28109 0.94537 0.0
H1813 H 0.66794 0.26661 0.08793 0.0
H1814 H 0.66965 0.30268 0.07628 0.0
H1815 H 0.63845 0.28158 0.06957 0.0
H1816 H 0.65492 0.38322 0.01526 0.0
H1817 H 0.58108 0.33009 0.00066 0.0
H1818 H 0.7045 0.33551 0.00772 0.0
H1819 H 0.69857 0.33001 0.04455 0.0
H1820 H 0.698 0.36534 0.03089 0.0
H1821 H 0.61099 0.26882 0.99019 0.0
H1822 H 0.58107 0.2811 0.01011 0.0
H1823 H 0.61099 0.26623 0.02786 0.0
C1824 C 0.34551 0.26358 0.00147 0.0
C1825 C 0.32693 0.26708 0.9787 0.0
C1826 C 0.36557 0.24222 0.00092 0.0
C1827 C 0.36679 0.22367 0.97718 0.0
C1828 C 0.34905 0.22795 0.95354 0.0
C1829 C 0.3294 0.2498 0.9545 0.0
C1830 C 0.38444 0.23863 0.02634 0.0
C1831 C 0.34972 0.2085 0.92787 0.0
C1832 C 0.42727 0.17303 0.96614 0.0
C1833 C 0.415 0.14759 0.97554 0.0
C1834 C 0.41225 0.19833 0.96746 0.0
C1835 C 0.38433 0.19806 0.97827 0.0
C1836 C 0.37245 0.1728 0.98916 0.0
C1837 C 0.38798 0.14795 0.9878 0.0
C1838 C 0.42575 0.22502 0.95613 0.0
C1839 C 0.34277 0.17168 0.00102 0.0
H1840 H 0.34397 0.27721 0.02009 0.0
H1841 H 0.31512 0.25248 0.93685 0.0
H1842 H 0.37785 0.21922 0.03761 0.0
H1843 H 0.40675 0.23601 0.01967 0.0
H1844 H 0.38345 0.25691 0.04139 0.0
H1845 H 0.3363 0.21606 0.91039 0.0
H1846 H 0.37172 0.20648 0.92007 0.0
H1847 H 0.34203 0.18705 0.93371 0.0
H1848 H 0.44815 0.17301 0.95669 0.0
H1849 H 0.37834 0.12848 0.9953 0.0
H1850 H 0.42348 0.24284 0.97151 0.0
H1851 H 0.4148 0.23093 0.93642 0.0
H1852 H 0.44858 0.22246 0.95139 0.0
H1853 H 0.3405 0.18792 0.01805 0.0
H1854 H 0.33711 0.15064 0.00969 0.0
H1855 H 0.32734 0.1765 0.98417 0.0
C1856 C 0.83179 0.2521 0.9981 0.0
C1857 C 0.82013 0.24193 0.97244 0.0
C1858 C 0.85075 0.27516 0.99904 0.0
C1859 C 0.85862 0.28845 0.97364 0.0
C1860 C 0.84783 0.27779 0.94747 0.0
C1861 C 0.82854 0.25461 0.94716 0.0
C1862 C 0.8617 0.28581 0.02746 0.0
C1863 C 0.85609 0.29127 0.91997 0.0
C1864 C 0.88138 0.36413 0.98907 0.0
C1865 C 0.9106 0.36141 0.99325 0.0
C1866 C 0.86438 0.34091 0.98031 0.0
C1867 C 0.87694 0.31437 0.97535 0.0
C1868 C 0.90669 0.31204 0.97728 0.0
C1869 C 0.92318 0.33556 0.98641 0.0
C1870 C 0.83271 0.34428 0.97868 0.0
C1871 C 0.92092 0.28422 0.97168 0.0
H1872 H 0.82572 0.24234 0.01778 0.0
H1873 H 0.81973 0.2468 0.92727 0.0
H1874 H 0.88518 0.28597 0.02771 0.0
H1875 H 0.85496 0.30788 0.03133 0.0
H1876 H 0.85392 0.27266 0.04516 0.0
H1877 H 0.84854 0.27856 0.90134 0.0
H1878 H 0.84693 0.31262 0.91895 0.0
H1879 H 0.87944 0.29403 0.91867 0.0
H1880 H 0.87146 0.38409 0.99398 0.0
H1881 H 0.94582 0.33338 0.98907 0.0
H1882 H 0.82255 0.33358 0.99684 0.0
H1883 H 0.82406 0.33414 0.95908 0.0
H1884 H 0.82668 0.36686 0.97927 0.0
H1885 H 0.91714 0.27007 0.98978 0.0
H1886 H 0.94415 0.28705 0.96888 0.0
H1887 H 0.91191 0.27346 0.95254 0.0
loop_
_geom_bond_atom_site_label_1
_geom_bond_atom_site_label_2
_geom_bond_distance
_geom_bond_site_symmetry_2
_ccdc_geom_bond_type
C0 O2 1.247 . S
C0 O4 1.258 1_455 S
C1 O8 1.247 . S
C1 O9 1.258 1_655 S
O2 C0 1.247 . S
O2 Zn3 2.028 . S
Zn3 O2 2.028 . S
Zn3 O7 2.035 . S
Zn3 O9 2.035 . S
Zn3 O10 2.028 . S
O4 C0 1.258 1_655 S
O4 Zn5 2.035 . S
Zn5 O4 2.035 . S
Zn5 O6 2.028 . S
Zn5 O8 2.028 . S
Zn5 O11 2.035 . S
O6 Zn5 2.028 . S
O6 C12 1.247 . S
O7 Zn3 2.035 . S
O7 C12 1.258 1_455 S
O8 C1 1.247 . S
O8 Zn5 2.028 . S
O9 C1 1.258 1_455 S
O9 Zn3 2.035 . S
O10 Zn3 2.028 . S
O10 C13 1.247 . S
O11 Zn5 2.035 . S
O11 C13 1.258 1_655 S
C12 O6 1.247 . S
C12 O7 1.258 1_655 S
C13 O10 1.247 . S
C13 O11 1.258 1_455 S
C14 O16 1.247 . S
C14 O18 1.258 . S
C15 O22 1.273 . S
C15 O23 1.258 . S
O16 C14 1.247 . S
O16 Zn17 2.028 . S
Zn17 O16 2.028 . S
Zn17 O21 2.035 . S
Zn17 O23 2.035 . S
Zn17 O24 2.028 . S
O18 C14 1.258 . S
O18 Zn19 2.031 1_455 S
Zn19 O18 2.031 1_655 S
Zn19 O20 2.027 1_655 S
Zn19 O22 2.026 1_655 S
Zn19 O25 2.031 1_655 S
O20 Zn19 2.027 1_455 S
O20 C26 1.247 . S
O21 Zn17 2.035 . S
O21 C26 1.258 . S
O22 C15 1.273 . S
O22 Zn19 2.026 1_455 S
O23 C15 1.258 . S
O23 Zn17 2.035 . S
O24 Zn17 2.028 . S
O24 C27 1.247 . S
O25 Zn19 2.031 1_455 S
O25 C27 1.258 . S
C26 O20 1.247 . S
C26 O21 1.258 . S
C27 O24 1.247 . S
C27 O25 1.258 . S
C28 O30 1.247 1_545 S
C28 O32 1.258 . S
C29 O36 1.247 1_565 S
C29 O37 1.258 . S
O30 C28 1.247 1_565 S
O30 Zn31 2.028 . S
Zn31 O30 2.028 . S
Zn31 O35 2.035 . S
Zn31 O37 2.035 . S
Zn31 O38 2.028 . S
O32 C28 1.258 . S
O32 Zn33 2.035 . S
Zn33 O32 2.035 . S
Zn33 O34 2.028 . S
Zn33 O36 2.028 . S
Zn33 O39 2.035 . S
O34 Zn33 2.028 . S
O34 C40 1.247 1_545 S
O35 Zn31 2.035 . S
O35 C40 1.258 . S
O36 C29 1.247 1_545 S
O36 Zn33 2.028 . S
O37 C29 1.258 . S
O37 Zn31 2.035 . S
O38 Zn31 2.028 . S
O38 C41 1.247 1_565 S
O39 Zn33 2.035 . S
O39 C41 1.258 . S
C40 O34 1.247 1_565 S
C40 O35 1.258 . S
C41 O38 1.247 1_545 S
C41 O39 1.258 . S
C42 O44 1.247 . S
C42 O46 1.258 . S
C43 O50 1.247 . S
C43 O51 1.258 . S
O44 C42 1.247 . S
O44 Zn45 2.028 . S
Zn45 O44 2.028 . S
Zn45 O49 2.035 . S
Zn45 O51 2.035 . S
Zn45 O52 2.028 . S
O46 C42 1.258 . S
O46 Zn47 2.035 . S
Zn47 O46 2.035 . S
Zn47 O48 2.028 . S
Zn47 O50 2.028 . S
Zn47 O53 2.035 . S
O48 Zn47 2.028 . S
O48 C54 1.247 . S
O49 Zn45 2.035 . S
O49 C54 1.258 . S
O50 C43 1.247 . S
O50 Zn47 2.028 . S
O51 C43 1.258 . S
O51 Zn45 2.035 . S
O52 Zn45 2.028 . S
O52 C55 1.247 . S
O53 Zn47 2.035 . S
O53 C55 1.258 . S
C54 O48 1.247 . S
C54 O49 1.258 . S
C55 O52 1.247 . S
C55 O53 1.258 . S
C56 O58 1.268 . S
C56 O60 1.258 . S
C57 O64 1.247 . S
C57 O65 1.258 1_554 S
O58 C56 1.268 . S
O58 Zn59 2.021 1_554 S
Zn59 O58 2.021 1_556 S
Zn59 O63 2.035 . S
Zn59 O65 2.035 . S
Zn59 O66 2.017 1_556 S
O60 C56 1.258 . S
O60 Zn61 2.035 . S
Zn61 O60 2.035 . S
Zn61 O62 2.028 . S
Zn61 O64 2.028 . S
Zn61 O67 2.035 . S
O62 Zn61 2.028 . S
O62 C68 1.247 . S
O63 Zn59 2.035 . S
O63 C68 1.258 1_556 S
O64 C57 1.247 . S
O64 Zn61 2.028 . S
O65 C57 1.258 1_556 S
O65 Zn59 2.035 . S
O66 Zn59 2.017 1_554 S
O66 C69 1.277 . S
O67 Zn61 2.035 . S
O67 C69 1.258 . S
C68 O62 1.247 . S
C68 O63 1.258 1_554 S
C69 O66 1.277 . S
C69 O67 1.258 . S
C70 O72 1.247 . S
C70 O74 1.258 . S
C71 O78 1.247 . S
C71 O79 1.258 . S
O72 C70 1.247 . S
O72 Zn73 2.028 . S
Zn73 O72 2.028 . S
Zn73 O77 2.035 . S
Zn73 O79 2.035 . S
Zn73 O80 2.028 . S
O74 C70 1.258 . S
O74 Zn75 2.035 . S
Zn75 O74 2.035 . S
Zn75 O76 2.028 . S
Zn75 O78 2.028 . S
Zn75 O81 2.035 . S
O76 Zn75 2.028 . S
O76 C82 1.247 . S
O77 Zn73 2.035 . S
O77 C82 1.258 . S
O78 C71 1.247 . S
O78 Zn75 2.028 . S
O79 C71 1.258 . S
O79 Zn73 2.035 . S
O80 Zn73 2.028 . S
O80 C83 1.247 . S
O81 Zn75 2.035 . S
O81 C83 1.258 . S
C82 O76 1.247 . S
C82 O77 1.258 . S
C83 O80 1.247 . S
C83 O81 1.258 . S
C84 O86 1.247 . S
C84 O88 1.258 . S
C85 O92 1.247 . S
C85 O93 1.258 . S
O86 C84 1.247 . S
O86 Zn87 2.028 . S
Zn87 O86 2.028 . S
Zn87 O91 2.035 . S
Zn87 O93 2.035 . S
Zn87 O94 2.028 . S
O88 C84 1.258 . S
O88 Zn89 2.035 . S
Zn89 O88 2.035 . S
Zn89 O90 2.028 . S
Zn89 O92 2.028 . S
Zn89 O95 2.035 . S
O90 Zn89 2.028 . S
O90 C96 1.247 . S
O91 Zn87 2.035 . S
O91 C96 1.258 . S
O92 C85 1.247 . S
O92 Zn89 2.028 . S
O93 C85 1.258 . S
O93 Zn87 2.035 . S
O94 Zn87 2.028 . S
O94 C97 1.247 . S
O95 Zn89 2.035 . S
O95 C97 1.258 . S
C96 O90 1.247 . S
C96 O91 1.258 . S
C97 O94 1.247 . S
C97 O95 1.258 . S
C98 O100 1.247 . S
C98 O102 1.258 . S
C99 O106 1.247 . S
C99 O107 1.258 . S
O100 C98 1.247 . S
O100 Zn101 2.028 . S
Zn101 O100 2.028 . S
Zn101 O105 2.035 . S
Zn101 O107 2.035 . S
Zn101 O108 2.028 . S
O102 C98 1.258 . S
O102 Zn103 2.035 . S
Zn103 O102 2.035 . S
Zn103 O104 2.028 . S
Zn103 O106 2.028 . S
Zn103 O109 2.035 . S
O104 Zn103 2.028 . S
O104 C110 1.247 . S
O105 Zn101 2.035 . S
O105 C110 1.258 . S
O106 C99 1.247 . S
O106 Zn103 2.028 . S
O107 C99 1.258 . S
O107 Zn101 2.035 . S
O108 Zn101 2.028 . S
O108 C111 1.247 . S
O109 Zn103 2.035 . S
O109 C111 1.258 . S
C110 O104 1.247 . S
C110 O105 1.258 . S
C111 O108 1.247 . S
C111 O109 1.258 . S
C112 O114 1.247 . S
C112 O116 1.258 . S
C113 O120 1.247 . S
C113 O121 1.258 . S
O114 C112 1.247 . S
O114 Zn115 2.028 . S
Zn115 O114 2.028 . S
Zn115 O119 2.035 . S
Zn115 O121 2.035 . S
Zn115 O122 2.028 . S
O116 C112 1.258 . S
O116 Zn117 2.035 . S
Zn117 O116 2.035 . S
Zn117 O118 2.028 . S
Zn117 O120 2.028 . S
Zn117 O123 2.035 . S
O118 Zn117 2.028 . S
O118 C124 1.247 . S
O119 Zn115 2.035 . S
O119 C124 1.258 . S
O120 C113 1.247 . S
O120 Zn117 2.028 . S
O121 C113 1.258 . S
O121 Zn115 2.035 . S
O122 Zn115 2.028 . S
O122 C125 1.247 . S
O123 Zn117 2.035 . S
O123 C125 1.258 . S
C124 O118 1.247 . S
C124 O119 1.258 . S
C125 O122 1.247 . S
C125 O123 1.258 . S
C126 O128 1.247 . S
C126 O130 1.258 . S
C127 O134 1.247 . S
C127 O135 1.258 . S
O128 C126 1.247 . S
O128 Zn129 2.028 . S
Zn129 O128 2.028 . S
Zn129 O133 2.035 . S
Zn129 O135 2.035 . S
Zn129 O136 2.028 . S
O130 C126 1.258 . S
O130 Zn131 2.035 . S
Zn131 O130 2.035 . S
Zn131 O132 2.028 . S
Zn131 O134 2.028 . S
Zn131 O137 2.035 . S
O132 Zn131 2.028 . S
O132 C138 1.247 . S
O133 Zn129 2.035 . S
O133 C138 1.258 . S
O134 C127 1.247 . S
O134 Zn131 2.028 . S
O135 C127 1.258 . S
O135 Zn129 2.035 . S
O136 Zn129 2.028 . S
O136 C139 1.247 . S
O137 Zn131 2.035 . S
O137 C139 1.258 . S
C138 O132 1.247 . S
C138 O133 1.258 . S
C139 O136 1.247 . S
C139 O137 1.258 . S
C140 O142 1.247 1_545 S
C140 O144 1.258 . S
C141 O148 1.247 . S
C141 O149 1.258 1_545 S
O142 C140 1.247 1_565 S
O142 Zn143 2.028 . S
Zn143 O142 2.028 . S
Zn143 O147 2.035 . S
Zn143 O149 2.035 . S
Zn143 O150 2.028 . S
O144 C140 1.258 . S
O144 Zn145 2.035 . S
Zn145 O144 2.035 . S
Zn145 O146 2.028 . S
Zn145 O148 2.028 . S
Zn145 O151 2.035 . S
O146 Zn145 2.028 . S
O146 C152 1.247 . S
O147 Zn143 2.035 . S
O147 C152 1.258 1_565 S
O148 C141 1.247 . S
O148 Zn145 2.028 . S
O149 C141 1.258 1_565 S
O149 Zn143 2.035 . S
O150 Zn143 2.028 . S
O150 C153 1.247 1_565 S
O151 Zn145 2.035 . S
O151 C153 1.258 . S
C152 O146 1.247 . S
C152 O147 1.258 1_545 S
C153 O150 1.247 1_545 S
C153 O151 1.258 . S
C154 O156 1.247 1_556 S
C154 O158 1.258 . S
C155 O162 1.247 1_554 S
C155 O163 1.258 . S
O156 C154 1.247 1_554 S
O156 Zn157 2.028 . S
Zn157 O156 2.028 . S
Zn157 O161 2.035 . S
Zn157 O163 2.035 . S
Zn157 O164 2.028 . S
O158 C154 1.258 . S
O158 Zn159 2.035 . S
Zn159 O158 2.035 . S
Zn159 O160 2.028 . S
Zn159 O162 2.028 . S
Zn159 O165 2.035 . S
O160 Zn159 2.028 . S
O160 C166 1.247 1_556 S
O161 Zn157 2.035 . S
O161 C166 1.258 . S
O162 C155 1.247 1_556 S
O162 Zn159 2.028 . S
O163 C155 1.258 . S
O163 Zn157 2.035 . S
O164 Zn157 2.028 . S
O164 C167 1.247 1_554 S
O165 Zn159 2.035 . S
O165 C167 1.258 . S
C166 O160 1.247 1_554 S
C166 O161 1.258 . S
C167 O164 1.247 1_556 S
C167 O165 1.258 . S
O168 Zn169 1.953 . S
O168 C184 1.225 . S
Zn169 O168 1.953 . S
Zn169 O170 1.949 . S
Zn169 O176 1.919 . S
Zn169 O181 1.924 1_545 S
O170 Zn169 1.949 . S
O170 Zn171 1.923 . S
O170 Zn172 1.950 . S
O170 Zn173 1.945 . S
Zn171 O170 1.923 . S
Zn171 O174 1.933 . S
Zn171 O177 1.941 . S
Zn171 O178 1.965 . S
Zn172 O170 1.950 . S
Zn172 O179 1.938 . S
Zn172 O180 1.906 1_554 S
Zn172 O190 1.953 . S
Zn173 O170 1.945 . S
Zn173 O175 1.932 . S
Zn173 O182 1.977 1_554 S
Zn173 O183 1.910 1_545 S
O174 Zn171 1.933 . S
O174 C185 1.226 1_455 S
O175 Zn173 1.932 . S
O175 C185 1.307 1_455 S
O176 Zn169 1.919 . S
O176 C187 1.253 . S
O177 Zn171 1.941 . S
O177 C187 1.283 . S
O178 Zn171 1.965 . S
O178 C186 1.303 . S
O179 Zn172 1.938 . S
O179 C186 1.247 . S
O180 Zn172 1.906 1_556 S
O180 C188 1.304 . S
O181 Zn169 1.924 1_565 S
O181 C189 1.311 . S
O182 Zn173 1.977 1_556 S
O182 C188 1.272 . S
O183 Zn173 1.910 1_565 S
O183 C189 1.231 . S
C184 O168 1.225 . S
C184 O190 1.298 . S
C185 O174 1.226 1_655 S
C185 O175 1.307 1_655 S
C186 O178 1.303 . S
C186 O179 1.247 . S
C187 O176 1.253 . S
C187 O177 1.283 . S
C188 O180 1.304 . S
C188 O182 1.272 . S
C189 O181 1.311 . S
C189 O183 1.231 . S
O190 Zn172 1.953 . S
O190 C184 1.298 . S
O191 Zn192 1.953 . S
O191 C207 1.225 . S
Zn192 O191 1.953 . S
Zn192 O193 1.949 . S
Zn192 O199 1.919 . S
Zn192 O204 1.924 . S
O193 Zn192 1.949 . S
O193 Zn194 1.923 . S
O193 Zn195 1.950 . S
O193 Zn196 1.945 . S
Zn194 O193 1.923 . S
Zn194 O197 1.933 1_655 S
Zn194 O200 1.941 . S
Zn194 O201 1.965 . S
Zn195 O193 1.950 . S
Zn195 O202 1.938 . S
Zn195 O203 1.906 1_554 S
Zn195 O213 1.953 . S
Zn196 O193 1.945 . S
Zn196 O198 1.932 1_655 S
Zn196 O205 1.977 1_554 S
Zn196 O206 1.910 1_655 S
O197 Zn194 1.933 1_455 S
O197 C208 1.226 . S
O198 Zn196 1.932 1_455 S
O198 C208 1.307 . S
O199 Zn192 1.919 . S
O199 C210 1.253 . S
O200 Zn194 1.941 . S
O200 C210 1.283 . S
O201 Zn194 1.965 . S
O201 C209 1.303 . S
O202 Zn195 1.938 . S
O202 C209 1.247 . S
O203 Zn195 1.906 1_556 S
O203 C211 1.304 . S
O204 Zn192 1.924 . S
O204 C212 1.311 . S
O205 Zn196 1.977 1_556 S
O205 C211 1.272 . S
O206 Zn196 1.910 1_455 S
O206 C212 1.231 1_455 S
C207 O191 1.225 . S
C207 O213 1.298 . S
C208 O197 1.226 . S
C208 O198 1.307 . S
C209 O201 1.303 . S
C209 O202 1.247 . S
C210 O199 1.253 . S
C210 O200 1.283 . S
C211 O203 1.304 . S
C211 O205 1.272 . S
C212 O204 1.311 . S
C212 O206 1.231 1_655 S
O213 Zn195 1.953 . S
O213 C207 1.298 . S
O214 Zn215 1.953 . S
O214 C230 1.225 . S
Zn215 O214 1.953 . S
Zn215 O216 1.949 . S
Zn215 O222 1.919 . S
Zn215 O227 1.924 . S
O216 Zn215 1.949 . S
O216 Zn217 1.923 . S
O216 Zn218 1.950 . S
O216 Zn219 1.945 . S
Zn217 O216 1.923 . S
Zn217 O220 1.959 . S
Zn217 O223 1.941 . S
Zn217 O224 1.965 . S
Zn218 O216 1.950 . S
Zn218 O225 1.938 . S
Zn218 O226 1.906 . S
Zn218 O236 1.953 . S
Zn219 O216 1.945 . S
Zn219 O221 1.932 1_565 S
Zn219 O228 1.977 . S
Zn219 O229 1.910 . S
O220 Zn217 1.959 . S
O220 C231 1.209 1_565 S
O221 Zn219 1.932 1_545 S
O221 C231 1.307 . S
O222 Zn215 1.919 . S
O222 C233 1.253 . S
O223 Zn217 1.941 . S
O223 C233 1.283 . S
O224 Zn217 1.965 . S
O224 C232 1.303 . S
O225 Zn218 1.938 . S
O225 C232 1.247 . S
O226 Zn218 1.906 . S
O226 C234 1.304 1_455 S
O227 Zn215 1.924 . S
O227 C235 1.311 . S
O228 Zn219 1.977 . S
O228 C234 1.271 1_455 S
O229 Zn219 1.910 . S
O229 C235 1.231 . S
C230 O214 1.225 . S
C230 O236 1.298 . S
C231 O220 1.209 1_545 S
C231 O221 1.307 . S
C232 O224 1.303 . S
C232 O225 1.247 . S
C233 O222 1.253 . S
C233 O223 1.283 . S
C234 O226 1.304 1_655 S
C234 O228 1.271 1_655 S
C235 O227 1.311 . S
C235 O229 1.231 . S
O236 Zn218 1.953 . S
O236 C230 1.298 . S
O237 Zn238 1.953 . S
O237 C253 1.225 . S
Zn238 O237 1.953 . S
Zn238 O239 1.949 . S
Zn238 O245 1.919 . S
Zn238 O250 1.924 1_655 S
O239 Zn238 1.949 . S
O239 Zn240 1.923 . S
O239 Zn241 1.950 . S
O239 Zn242 1.945 . S
Zn240 O239 1.923 . S
Zn240 O243 1.933 . S
Zn240 O246 1.941 . S
Zn240 O247 1.965 . S
Zn241 O239 1.950 . S
Zn241 O248 1.938 . S
Zn241 O249 1.906 . S
Zn241 O259 1.953 . S
Zn242 O239 1.945 . S
Zn242 O244 1.932 . S
Zn242 O251 1.970 1_655 S
Zn242 O252 1.910 1_655 S
O243 Zn240 1.933 . S
O243 C254 1.226 . S
O244 Zn242 1.932 . S
O244 C254 1.307 . S
O245 Zn238 1.919 . S
O245 C256 1.253 . S
O246 Zn240 1.941 . S
O246 C256 1.283 . S
O247 Zn240 1.965 . S
O247 C255 1.303 . S
O248 Zn241 1.938 . S
O248 C255 1.247 . S
O249 Zn241 1.906 . S
O249 C257 1.304 . S
O250 Zn238 1.924 1_455 S
O250 C258 1.311 . S
O251 Zn242 1.970 1_455 S
O251 C257 1.265 1_455 S
O252 Zn242 1.910 1_455 S
O252 C258 1.231 . S
C253 O237 1.225 . S
C253 O259 1.298 . S
C254 O243 1.226 . S
C254 O244 1.307 . S
C255 O247 1.303 . S
C255 O248 1.247 . S
C256 O245 1.253 . S
C256 O246 1.283 . S
C257 O249 1.304 . S
C257 O251 1.265 1_655 S
C258 O250 1.311 . S
C258 O252 1.231 . S
O259 Zn241 1.953 . S
O259 C253 1.298 . S
O260 Zn261 1.953 . S
O260 C276 1.225 . S
Zn261 O260 1.953 . S
Zn261 O262 1.949 . S
Zn261 O268 1.919 . S
Zn261 O273 1.924 . S
O262 Zn261 1.949 . S
O262 Zn263 1.923 . S
O262 Zn264 1.950 . S
O262 Zn265 1.945 . S
Zn263 O262 1.923 . S
Zn263 O266 1.933 . S
Zn263 O269 1.941 . S
Zn263 O270 1.965 . S
Zn264 O262 1.950 . S
Zn264 O271 1.938 . S
Zn264 O272 1.906 . S
Zn264 O282 1.953 . S
Zn265 O262 1.945 . S
Zn265 O267 1.932 . S
Zn265 O274 1.977 . S
Zn265 O275 1.910 1_565 S
O266 Zn263 1.933 . S
O266 C277 1.226 . S
O267 Zn265 1.932 . S
O267 C277 1.307 . S
O268 Zn261 1.919 . S
O268 C279 1.253 . S
O269 Zn263 1.941 . S
O269 C279 1.283 . S
O270 Zn263 1.965 . S
O270 C278 1.303 . S
O271 Zn264 1.938 . S
O271 C278 1.247 . S
O272 Zn264 1.906 . S
O272 C280 1.304 . S
O273 Zn261 1.924 . S
O273 C281 1.311 1_565 S
O274 Zn265 1.977 . S
O274 C280 1.272 . S
O275 Zn265 1.910 1_545 S
O275 C281 1.231 . S
C276 O260 1.225 . S
C276 O282 1.298 . S
C277 O266 1.226 . S
C277 O267 1.307 . S
C278 O270 1.303 . S
C278 O271 1.247 . S
C279 O268 1.253 . S
C279 O269 1.283 . S
C280 O272 1.304 . S
C280 O274 1.272 . S
C281 O273 1.311 1_545 S
C281 O275 1.231 . S
O282 Zn264 1.953 . S
O282 C276 1.298 . S
O283 Zn284 1.953 . S
O283 C299 1.225 . S
Zn284 O283 1.953 . S
Zn284 O285 1.949 . S
Zn284 O291 1.919 . S
Zn284 O296 1.924 . S
O285 Zn284 1.949 . S
O285 Zn286 1.923 . S
O285 Zn287 1.950 . S
O285 Zn288 1.945 . S
Zn286 O285 1.923 . S
Zn286 O289 1.933 . S
Zn286 O292 1.941 . S
Zn286 O293 1.965 . S
Zn287 O285 1.950 . S
Zn287 O294 1.938 . S
Zn287 O295 1.906 . S
Zn287 O305 1.953 . S
Zn288 O285 1.945 . S
Zn288 O290 1.932 . S
Zn288 O297 1.977 . S
Zn288 O298 1.910 . S
O289 Zn286 1.933 . S
O289 C300 1.226 . S
O290 Zn288 1.932 . S
O290 C300 1.307 . S
O291 Zn284 1.919 . S
O291 C302 1.253 . S
O292 Zn286 1.941 . S
O292 C302 1.283 . S
O293 Zn286 1.965 . S
O293 C301 1.303 . S
O294 Zn287 1.938 . S
O294 C301 1.247 . S
O295 Zn287 1.906 . S
O295 C303 1.304 . S
O296 Zn284 1.924 . S
O296 C304 1.311 . S
O297 Zn288 1.977 . S
O297 C303 1.272 . S
O298 Zn288 1.910 . S
O298 C304 1.231 . S
C299 O283 1.225 . S
C299 O305 1.298 . S
C300 O289 1.226 . S
C300 O290 1.307 . S
C301 O293 1.303 . S
C301 O294 1.247 . S
C302 O291 1.253 . S
C302 O292 1.283 . S
C303 O295 1.304 . S
C303 O297 1.272 . S
C304 O296 1.311 . S
C304 O298 1.231 . S
O305 Zn287 1.953 . S
O305 C299 1.298 . S
O306 Zn307 1.953 . S
O306 C322 1.225 . S
Zn307 O306 1.953 . S
Zn307 O308 1.949 . S
Zn307 O314 1.919 . S
Zn307 O319 1.924 . S
O308 Zn307 1.949 . S
O308 Zn309 1.923 . S
O308 Zn310 1.950 . S
O308 Zn311 1.945 . S
Zn309 O308 1.923 . S
Zn309 O312 1.933 . S
Zn309 O315 1.941 . S
Zn309 O316 1.965 . S
Zn310 O308 1.950 . S
Zn310 O317 1.938 . S
Zn310 O318 1.906 . S
Zn310 O328 1.953 . S
Zn311 O308 1.945 . S
Zn311 O313 1.932 . S
Zn311 O320 1.977 . S
Zn311 O321 1.910 1_556 S
O312 Zn309 1.933 . S
O312 C323 1.226 . S
O313 Zn311 1.932 . S
O313 C323 1.307 . S
O314 Zn307 1.919 . S
O314 C325 1.253 . S
O315 Zn309 1.941 . S
O315 C325 1.283 . S
O316 Zn309 1.965 . S
O316 C324 1.303 . S
O317 Zn310 1.938 . S
O317 C324 1.247 . S
O318 Zn310 1.906 . S
O318 C326 1.304 . S
O319 Zn307 1.924 . S
O319 C327 1.311 1_556 S
O320 Zn311 1.977 . S
O320 C326 1.272 . S
O321 Zn311 1.910 1_554 S
O321 C327 1.231 . S
C322 O306 1.225 . S
C322 O328 1.298 . S
C323 O312 1.226 . S
C323 O313 1.307 . S
C324 O316 1.303 . S
C324 O317 1.247 . S
C325 O314 1.253 . S
C325 O315 1.283 . S
C326 O318 1.304 . S
C326 O320 1.272 . S
C327 O319 1.311 1_554 S
C327 O321 1.231 . S
O328 Zn310 1.953 . S
O328 C322 1.298 . S
O329 Zn330 1.953 . S
O329 C345 1.225 . S
Zn330 O329 1.953 . S
Zn330 O331 1.949 . S
Zn330 O337 1.919 . S
Zn330 O342 1.924 . S
O331 Zn330 1.949 . S
O331 Zn332 1.923 . S
O331 Zn333 1.950 . S
O331 Zn334 1.945 . S
Zn332 O331 1.923 . S
Zn332 O335 1.946 . S
Zn332 O338 1.941 . S
Zn332 O339 1.965 . S
Zn333 O331 1.950 . S
Zn333 O340 1.938 . S
Zn333 O341 1.906 1_545 S
Zn333 O351 1.953 . S
Zn334 O331 1.945 . S
Zn334 O336 1.932 1_556 S
Zn334 O343 1.977 1_545 S
Zn334 O344 1.910 . S
O335 Zn332 1.946 . S
O335 C346 1.218 1_556 S
O336 Zn334 1.932 1_554 S
O336 C346 1.307 . S
O337 Zn330 1.919 . S
O337 C348 1.253 . S
O338 Zn332 1.941 . S
O338 C348 1.283 . S
O339 Zn332 1.965 . S
O339 C347 1.303 . S
O340 Zn333 1.938 . S
O340 C347 1.247 . S
O341 Zn333 1.906 1_565 S
O341 C349 1.304 . S
O342 Zn330 1.924 . S
O342 C350 1.311 . S
O343 Zn334 1.977 1_565 S
O343 C349 1.272 . S
O344 Zn334 1.910 . S
O344 C350 1.231 . S
C345 O329 1.225 . S
C345 O351 1.298 . S
C346 O335 1.218 1_554 S
C346 O336 1.307 . S
C347 O339 1.303 . S
C347 O340 1.247 . S
C348 O337 1.253 . S
C348 O338 1.283 . S
C349 O341 1.304 . S
C349 O343 1.272 . S
C350 O342 1.311 . S
C350 O344 1.231 . S
O351 Zn333 1.953 . S
O351 C345 1.298 . S
C352 C353 1.392 1_655 S
C352 C354 1.394 1_655 S
C352 H368 0.929 . S
C353 C352 1.392 1_455 S
C353 C357 1.376 . S
C354 C352 1.394 1_455 S
C354 C355 1.369 . S
C354 C358 1.531 1_455 S
C355 C354 1.369 . S
C355 C356 1.410 . S
C355 C363 1.503 . S
C356 C355 1.410 . S
C356 C357 1.392 . S
C356 C359 1.511 . S
C357 C353 1.376 . S
C357 C356 1.392 . S
C357 H369 0.929 . S
C358 C354 1.531 1_655 S
C358 H370 0.965 . S
C358 H371 0.962 . S
C358 H372 0.960 . S
C359 C356 1.511 . S
C359 H373 0.961 . S
C359 H374 0.961 . S
C359 H375 0.961 . S
C360 C361 1.370 . S
C360 C362 1.363 . S
C360 H376 0.931 1_455 S
C361 C360 1.370 . S
C361 C365 1.408 . S
C362 C360 1.363 . S
C362 C363 1.370 . S
C362 C366 1.524 1_455 S
C363 C355 1.503 . S
C363 C362 1.370 . S
C363 C364 1.403 . S
C364 C363 1.403 . S
C364 C365 1.404 . S
C364 C367 1.539 . S
C365 C361 1.408 . S
C365 C364 1.404 . S
C365 H377 0.930 . S
C366 C362 1.524 1_655 S
C366 H378 0.956 . S
C366 H379 0.961 . S
C366 H380 0.961 . S
C367 C364 1.539 . S
C367 H381 0.958 . S
C367 H382 0.961 . S
C367 H383 0.960 . S
H368 C352 0.929 . S
H369 C357 0.929 . S
H370 C358 0.965 . S
H371 C358 0.962 . S
H372 C358 0.960 . S
H373 C359 0.961 . S
H374 C359 0.961 . S
H375 C359 0.961 . S
H376 C360 0.931 1_655 S
H377 C365 0.930 . S
H378 C366 0.956 . S
H379 C366 0.961 . S
H380 C366 0.961 . S
H381 C367 0.958 . S
H382 C367 0.961 . S
H383 C367 0.960 . S
C384 C385 1.391 1_455 S
C384 C386 1.394 . S
C384 H400 0.931 . S
C385 C384 1.391 1_655 S
C385 C389 1.376 . S
C386 C384 1.394 . S
C386 C387 1.369 1_455 S
C386 C390 1.531 . S
C387 C386 1.369 1_655 S
C387 C388 1.410 . S
C387 C395 1.503 . S
C388 C387 1.410 . S
C388 C389 1.392 . S
C388 C391 1.511 . S
C389 C385 1.376 . S
C389 C388 1.392 . S
C389 H401 0.929 . S
C390 C386 1.531 . S
C390 H402 0.960 . S
C390 H403 0.962 . S
C390 H404 0.960 . S
C391 C388 1.511 . S
C391 H405 0.961 . S
C391 H406 0.961 . S
C391 H407 0.961 . S
C392 C393 1.370 . S
C392 C394 1.363 . S
C392 H408 0.931 . S
C393 C392 1.370 . S
C393 C397 1.408 . S
C394 C392 1.363 . S
C394 C395 1.370 . S
C394 C398 1.524 . S
C395 C387 1.503 . S
C395 C394 1.370 . S
C395 C396 1.403 . S
C396 C395 1.403 . S
C396 C397 1.404 . S
C396 C399 1.539 . S
C397 C393 1.408 . S
C397 C396 1.404 . S
C397 H409 0.930 . S
C398 C394 1.524 . S
C398 H410 0.956 1_655 S
C398 H411 0.961 . S
C398 H412 0.961 . S
C399 C396 1.539 . S
C399 H413 0.958 1_655 S
C399 H414 0.961 . S
C399 H415 0.960 . S
H400 C384 0.931 . S
H401 C389 0.929 . S
H402 C390 0.960 . S
H403 C390 0.962 . S
H404 C390 0.960 . S
H405 C391 0.961 . S
H406 C391 0.961 . S
H407 C391 0.961 . S
H408 C392 0.931 . S
H409 C397 0.930 . S
H410 C398 0.956 1_455 S
H411 C398 0.961 . S
H412 C398 0.961 . S
H413 C399 0.958 1_455 S
H414 C399 0.961 . S
H415 C399 0.960 . S
C416 C417 1.391 . S
C416 C418 1.394 . S
C416 H432 0.931 . S
C417 C416 1.391 . S
C417 C421 1.376 . S
C418 C416 1.394 . S
C418 C419 1.369 . S
C418 C422 1.531 . S
C419 C418 1.369 . S
C419 C420 1.410 . S
C419 C427 1.503 . S
C420 C419 1.410 . S
C420 C421 1.392 . S
C420 C423 1.511 . S
C421 C417 1.376 . S
C421 C420 1.392 . S
C421 H433 0.929 . S
C422 C418 1.531 . S
C422 H434 0.960 . S
C422 H435 0.962 . S
C422 H436 0.960 . S
C423 C420 1.511 . S
C423 H437 0.961 . S
C423 H438 0.961 . S
C423 H439 0.987 . S
C424 C425 1.370 . S
C424 C426 1.363 . S
C424 H440 0.931 . S
C425 C424 1.370 . S
C425 C429 1.408 . S
C426 C424 1.363 . S
C426 C427 1.370 . S
C426 C430 1.524 . S
C427 C419 1.503 . S
C427 C426 1.370 . S
C427 C428 1.403 . S
C428 C427 1.403 . S
C428 C429 1.404 . S
C428 C431 1.539 1_455 S
C429 C425 1.408 . S
C429 C428 1.404 . S
C429 H441 0.930 1_455 S
C430 C426 1.524 . S
C430 H442 0.956 . S
C430 H443 0.961 . S
C430 H444 0.961 . S
C431 C428 1.539 1_655 S
C431 H445 0.958 . S
C431 H446 0.961 . S
C431 H447 0.960 . S
H432 C416 0.931 . S
H433 C421 0.929 . S
H434 C422 0.960 . S
H435 C422 0.962 . S
H436 C422 0.960 . S
H437 C423 0.961 . S
H438 C423 0.961 . S
H439 C423 0.987 . S
H440 C424 0.931 . S
H441 C429 0.930 1_655 S
H442 C430 0.956 . S
H443 C430 0.961 . S
H444 C430 0.961 . S
H445 C431 0.958 . S
H446 C431 0.961 . S
H447 C431 0.960 . S
C448 C449 1.391 . S
C448 C450 1.394 . S
C448 H464 0.931 . S
C449 C448 1.391 . S
C449 C453 1.376 . S
C450 C448 1.394 . S
C450 C451 1.369 . S
C450 C454 1.531 . S
C451 C450 1.369 . S
C451 C452 1.410 . S
C451 C459 1.503 . S
C452 C451 1.410 . S
C452 C453 1.392 . S
C452 C455 1.511 . S
C453 C449 1.376 . S
C453 C452 1.392 . S
C453 H465 0.929 . S
C454 C450 1.531 . S
C454 H466 0.960 . S
C454 H467 0.962 . S
C454 H468 0.960 . S
C455 C452 1.511 . S
C455 H469 0.961 1_455 S
C455 H470 0.961 1_455 S
C455 H471 0.961 . S
C456 C457 1.370 . S
C456 C458 1.363 . S
C456 H472 0.931 . S
C457 C456 1.370 . S
C457 C461 1.408 1_655 S
C458 C456 1.363 . S
C458 C459 1.370 1_655 S
C458 C462 1.524 . S
C459 C451 1.503 . S
C459 C458 1.370 1_455 S
C459 C460 1.403 . S
C460 C459 1.403 . S
C460 C461 1.404 . S
C460 C463 1.539 . S
C461 C457 1.408 1_455 S
C461 C460 1.404 . S
C461 H473 0.930 . S
C462 C458 1.524 . S
C462 H474 0.956 . S
C462 H475 0.961 . S
C462 H476 0.961 . S
C463 C460 1.539 . S
C463 H477 0.958 . S
C463 H478 0.961 . S
C463 H479 0.960 . S
H464 C448 0.931 . S
H465 C453 0.929 . S
H466 C454 0.960 . S
H467 C454 0.962 . S
H468 C454 0.960 . S
H469 C455 0.961 1_655 S
H470 C455 0.961 1_655 S
H471 C455 0.961 . S
H472 C456 0.931 . S
H473 C461 0.930 . S
H474 C462 0.956 . S
H475 C462 0.961 . S
H476 C462 0.961 . S
H477 C463 0.958 . S
H478 C463 0.961 . S
H479 C463 0.960 . S
C480 C481 1.391 . S
C480 C482 1.394 . S
C480 H496 0.931 . S
C481 C480 1.391 . S
C481 C485 1.378 . S
C482 C480 1.394 . S
C482 C483 1.369 . S
C482 C486 1.531 . S
C483 C482 1.369 . S
C483 C484 1.410 . S
C483 C491 1.503 . S
C484 C483 1.410 . S
C484 C485 1.393 . S
C484 C487 1.511 1_545 S
C485 C481 1.378 . S
C485 C484 1.393 . S
C485 H497 0.926 1_545 S
C486 C482 1.531 . S
C486 H498 0.960 . S
C486 H499 0.962 . S
C486 H500 0.960 . S
C487 C484 1.511 1_565 S
C487 H501 0.961 . S
C487 H502 0.961 . S
C487 H503 0.961 . S
C488 C489 1.370 1_565 S
C488 C490 1.363 . S
C488 H504 0.931 . S
C489 C488 1.370 1_545 S
C489 C493 1.408 . S
C490 C488 1.363 . S
C490 C491 1.370 1_565 S
C490 C494 1.524 . S
C491 C483 1.503 . S
C491 C490 1.370 1_545 S
C491 C492 1.403 . S
C492 C491 1.403 . S
C492 C493 1.404 . S
C492 C495 1.539 . S
C493 C489 1.408 . S
C493 C492 1.404 . S
C493 H505 0.930 . S
C494 C490 1.524 . S
C494 H506 0.956 . S
C494 H507 0.961 . S
C494 H508 0.961 . S
C495 C492 1.539 . S
C495 H509 0.958 . S
C495 H510 0.961 . S
C495 H511 0.960 . S
H496 C480 0.931 . S
H497 C485 0.926 1_565 S
H498 C486 0.960 . S
H499 C486 0.962 . S
H500 C486 0.960 . S
H501 C487 0.961 . S
H502 C487 0.961 . S
H503 C487 0.961 . S
H504 C488 0.931 . S
H505 C493 0.930 . S
H506 C494 0.956 . S
H507 C494 0.961 . S
H508 C494 0.961 . S
H509 C495 0.958 . S
H510 C495 0.961 . S
H511 C495 0.960 . S
C512 C513 1.391 . S
C512 C514 1.394 . S
C512 H528 0.931 . S
C513 C512 1.391 . S
C513 C517 1.376 . S
C514 C512 1.394 . S
C514 C515 1.369 . S
C514 C518 1.531 . S
C515 C514 1.369 . S
C515 C516 1.410 . S
C515 C523 1.503 . S
C516 C515 1.410 . S
C516 C517 1.392 . S
C516 C519 1.511 . S
C517 C513 1.376 . S
C517 C516 1.392 . S
C517 H529 0.929 . S
C518 C514 1.531 . S
C518 H530 0.960 . S
C518 H531 0.962 . S
C518 H532 0.960 . S
C519 C516 1.511 . S
C519 H533 0.961 . S
C519 H534 0.961 . S
C519 H535 0.961 . S
C520 C521 1.370 . S
C520 C522 1.363 . S
C520 H536 0.931 . S
C521 C520 1.370 . S
C521 C525 1.408 . S
C522 C520 1.363 . S
C522 C523 1.370 . S
C522 C526 1.524 . S
C523 C515 1.503 . S
C523 C522 1.370 . S
C523 C524 1.403 . S
C524 C523 1.403 . S
C524 C525 1.404 . S
C524 C527 1.539 . S
C525 C521 1.408 . S
C525 C524 1.404 . S
C525 H537 0.930 . S
C526 C522 1.524 . S
C526 H538 0.956 . S
C526 H539 0.961 . S
C526 H540 0.961 . S
C527 C524 1.539 . S
C527 H541 0.958 . S
C527 H542 0.961 . S
C527 H543 0.960 . S
H528 C512 0.931 . S
H529 C517 0.929 . S
H530 C518 0.960 . S
H531 C518 0.962 . S
H532 C518 0.960 . S
H533 C519 0.961 . S
H534 C519 0.961 . S
H535 C519 0.961 . S
H536 C520 0.931 . S
H537 C525 0.930 . S
H538 C526 0.956 . S
H539 C526 0.961 . S
H540 C526 0.961 . S
H541 C527 0.958 . S
H542 C527 0.961 . S
H543 C527 0.960 . S
C544 C545 1.391 . S
C544 C546 1.394 . S
C544 H560 0.931 . S
C545 C544 1.391 . S
C545 C549 1.376 1_565 S
C546 C544 1.394 . S
C546 C547 1.369 . S
C546 C550 1.531 . S
C547 C546 1.369 . S
C547 C548 1.410 1_565 S
C547 C555 1.503 . S
C548 C547 1.410 1_545 S
C548 C549 1.392 . S
C548 C551 1.511 . S
C549 C545 1.376 1_545 S
C549 C548 1.392 . S
C549 H561 0.929 . S
C550 C546 1.531 . S
C550 H562 0.960 . S
C550 H563 0.962 . S
C550 H564 0.960 . S
C551 C548 1.511 . S
C551 H565 0.961 . S
C551 H566 0.961 . S
C551 H567 0.961 . S
C552 C553 1.370 . S
C552 C554 1.363 . S
C552 H568 0.931 . S
C553 C552 1.370 . S
C553 C557 1.408 . S
C554 C552 1.363 . S
C554 C555 1.370 . S
C554 C558 1.524 . S
C555 C547 1.503 . S
C555 C554 1.370 . S
C555 C556 1.403 . S
C556 C555 1.403 . S
C556 C557 1.404 . S
C556 C559 1.539 1_565 S
C557 C553 1.408 . S
C557 C556 1.404 . S
C557 H569 0.930 1_565 S
C558 C554 1.524 . S
C558 H570 0.956 . S
C558 H571 0.961 . S
C558 H572 0.961 . S
C559 C556 1.539 1_545 S
C559 H573 0.958 . S
C559 H574 0.961 . S
C559 H575 0.960 . S
H560 C544 0.931 . S
H561 C549 0.929 . S
H562 C550 0.960 . S
H563 C550 0.962 . S
H564 C550 0.960 . S
H565 C551 0.961 . S
H566 C551 0.961 . S
H567 C551 0.961 . S
H568 C552 0.931 . S
H569 C557 0.930 1_545 S
H570 C558 0.956 . S
H571 C558 0.961 . S
H572 C558 0.961 . S
H573 C559 0.958 . S
H574 C559 0.961 . S
H575 C559 0.960 . S
C576 C577 1.391 . S
C576 C578 1.394 . S
C576 H592 0.931 . S
C577 C576 1.391 . S
C577 C581 1.376 . S
C578 C576 1.394 . S
C578 C579 1.369 . S
C578 C582 1.531 . S
C579 C578 1.369 . S
C579 C580 1.410 . S
C579 C587 1.503 . S
C580 C579 1.410 . S
C580 C581 1.392 . S
C580 C583 1.511 . S
C581 C577 1.376 . S
C581 C580 1.392 . S
C581 H593 0.929 . S
C582 C578 1.531 . S
C582 H594 0.960 . S
C582 H595 0.962 . S
C582 H596 0.960 . S
C583 C580 1.511 . S
C583 H597 0.961 . S
C583 H598 0.961 . S
C583 H599 0.961 . S
C584 C585 1.370 . S
C584 C586 1.363 . S
C584 H600 0.931 . S
C585 C584 1.370 . S
C585 C589 1.408 . S
C586 C584 1.363 . S
C586 C587 1.370 . S
C586 C590 1.524 . S
C587 C579 1.503 . S
C587 C586 1.370 . S
C587 C588 1.403 . S
C588 C587 1.403 . S
C588 C589 1.404 . S
C588 C591 1.539 . S
C589 C585 1.408 . S
C589 C588 1.404 . S
C589 H601 0.930 . S
C590 C586 1.524 . S
C590 H602 0.956 . S
C590 H603 0.961 . S
C590 H604 0.961 . S
C591 C588 1.539 . S
C591 H605 0.958 . S
C591 H606 0.961 . S
C591 H607 0.960 . S
H592 C576 0.931 . S
H593 C581 0.929 . S
H594 C582 0.960 . S
H595 C582 0.962 . S
H596 C582 0.960 . S
H597 C583 0.961 . S
H598 C583 0.961 . S
H599 C583 0.961 . S
H600 C584 0.931 . S
H601 C589 0.930 . S
H602 C590 0.956 . S
H603 C590 0.961 . S
H604 C590 0.961 . S
H605 C591 0.958 . S
H606 C591 0.961 . S
H607 C591 0.960 . S
C608 C609 1.391 . S
C608 C610 1.394 . S
C608 H624 0.931 1_554 S
C609 C608 1.391 . S
C609 C613 1.376 . S
C610 C608 1.394 . S
C610 C611 1.369 . S
C610 C614 1.531 1_554 S
C611 C610 1.369 . S
C611 C612 1.410 . S
C611 C619 1.503 . S
C612 C611 1.410 . S
C612 C613 1.392 . S
C612 C615 1.511 . S
C613 C609 1.376 . S
C613 C612 1.392 . S
C613 H625 0.929 . S
C614 C610 1.531 1_556 S
C614 H626 0.960 . S
C614 H627 0.962 . S
C614 H628 0.960 . S
C615 C612 1.511 . S
C615 H629 0.961 . S
C615 H630 0.961 . S
C615 H631 0.961 . S
C616 C617 1.370 . S
C616 C618 1.363 . S
C616 H632 0.931 . S
C617 C616 1.370 . S
C617 C621 1.408 . S
C618 C616 1.363 . S
C618 C619 1.370 . S
C618 C622 1.524 . S
C619 C611 1.503 . S
C619 C618 1.370 . S
C619 C620 1.403 . S
C620 C619 1.403 . S
C620 C621 1.404 . S
C620 C623 1.539 . S
C621 C617 1.408 . S
C621 C620 1.404 . S
C621 H633 0.930 . S
C622 C618 1.524 . S
C622 H634 0.956 1_554 S
C622 H635 0.961 . S
C622 H636 0.961 1_554 S
C623 C620 1.539 . S
C623 H637 0.958 . S
C623 H638 0.961 . S
C623 H639 0.960 . S
H624 C608 0.931 1_556 S
H625 C613 0.929 . S
H626 C614 0.960 . S
H627 C614 0.962 . S
H628 C614 0.960 . S
H629 C615 0.961 . S
H630 C615 0.961 . S
H631 C615 0.961 . S
H632 C616 0.931 . S
H633 C621 0.930 . S
H634 C622 0.956 1_556 S
H635 C622 0.961 . S
H636 C622 0.961 1_556 S
H637 C623 0.958 . S
H638 C623 0.961 . S
H639 C623 0.960 . S
C640 C641 1.391 . S
C640 C642 1.394 . S
C640 H656 0.931 . S
C641 C640 1.391 . S
C641 C645 1.376 . S
C642 C640 1.394 . S
C642 C643 1.369 . S
C642 C646 1.531 . S
C643 C642 1.369 . S
C643 C644 1.410 . S
C643 C651 1.503 . S
C644 C643 1.410 . S
C644 C645 1.392 . S
C644 C647 1.511 . S
C645 C641 1.376 . S
C645 C644 1.392 . S
C645 H657 0.929 . S
C646 C642 1.531 . S
C646 H658 0.960 . S
C646 H659 0.962 . S
C646 H660 0.960 . S
C647 C644 1.511 . S
C647 H661 0.961 . S
C647 H662 0.961 . S
C647 H663 0.961 . S
C648 C649 1.370 . S
C648 C650 1.363 . S
C648 H664 0.931 . S
C649 C648 1.370 . S
C649 C653 1.408 . S
C650 C648 1.363 . S
C650 C651 1.370 . S
C650 C654 1.524 . S
C651 C643 1.503 . S
C651 C650 1.370 . S
C651 C652 1.403 . S
C652 C651 1.403 . S
C652 C653 1.404 . S
C652 C655 1.539 . S
C653 C649 1.408 . S
C653 C652 1.404 . S
C653 H665 0.930 . S
C654 C650 1.524 . S
C654 H666 0.956 . S
C654 H667 0.961 . S
C654 H668 0.961 . S
C655 C652 1.539 . S
C655 H669 0.958 . S
C655 H670 0.961 . S
C655 H671 0.960 . S
H656 C640 0.931 . S
H657 C645 0.929 . S
H658 C646 0.960 . S
H659 C646 0.962 . S
H660 C646 0.960 . S
H661 C647 0.961 . S
H662 C647 0.961 . S
H663 C647 0.961 . S
H664 C648 0.931 . S
H665 C653 0.930 . S
H666 C654 0.956 . S
H667 C654 0.961 . S
H668 C654 0.961 . S
H669 C655 0.958 . S
H670 C655 0.961 . S
H671 C655 0.960 . S
C672 C673 1.391 . S
C672 C674 1.394 . S
C672 H688 0.931 . S
C673 C672 1.391 . S
C673 C677 1.376 . S
C674 C672 1.394 . S
C674 C675 1.369 . S
C674 C678 1.531 . S
C675 C674 1.369 . S
C675 C676 1.410 . S
C675 C683 1.503 . S
C676 C675 1.410 . S
C676 C677 1.392 . S
C676 C679 1.511 . S
C677 C673 1.376 . S
C677 C676 1.392 . S
C677 H689 0.929 . S
C678 C674 1.531 . S
C678 H690 0.960 . S
C678 H691 0.962 . S
C678 H692 0.960 . S
C679 C676 1.511 . S
C679 H693 0.961 . S
C679 H694 0.961 . S
C679 H695 0.961 . S
C680 C681 1.370 . S
C680 C682 1.363 . S
C680 H696 0.931 . S
C681 C680 1.370 . S
C681 C685 1.408 . S
C682 C680 1.363 . S
C682 C683 1.370 . S
C682 C686 1.524 . S
C683 C675 1.503 . S
C683 C682 1.370 . S
C683 C684 1.403 . S
C684 C683 1.403 . S
C684 C685 1.404 . S
C684 C687 1.539 . S
C685 C681 1.408 . S
C685 C684 1.404 . S
C685 H697 0.930 . S
C686 C682 1.524 . S
C686 H698 0.956 . S
C686 H699 0.961 . S
C686 H700 0.961 . S
C687 C684 1.539 . S
C687 H701 0.958 . S
C687 H702 0.961 . S
C687 H703 0.960 . S
H688 C672 0.931 . S
H689 C677 0.929 . S
H690 C678 0.960 . S
H691 C678 0.962 . S
H692 C678 0.960 . S
H693 C679 0.961 . S
H694 C679 0.961 . S
H695 C679 0.961 . S
H696 C680 0.931 . S
H697 C685 0.930 . S
H698 C686 0.956 . S
H699 C686 0.961 . S
H700 C686 0.961 . S
H701 C687 0.958 . S
H702 C687 0.961 . S
H703 C687 0.960 . S
C704 C705 1.391 . S
C704 C706 1.394 . S
C704 H720 0.931 . S
C705 C704 1.391 . S
C705 C709 1.376 . S
C706 C704 1.394 . S
C706 C707 1.369 . S
C706 C710 1.531 . S
C707 C706 1.369 . S
C707 C708 1.410 . S
C707 C715 1.503 . S
C708 C707 1.410 . S
C708 C709 1.392 . S
C708 C711 1.511 . S
C709 C705 1.376 . S
C709 C708 1.392 . S
C709 H721 0.929 . S
C710 C706 1.531 . S
C710 H722 0.960 . S
C710 H723 0.962 . S
C710 H724 0.960 . S
C711 C708 1.511 . S
C711 H725 0.961 . S
C711 H726 0.961 . S
C711 H727 0.961 . S
C712 C713 1.370 . S
C712 C714 1.363 . S
C712 H728 0.931 . S
C713 C712 1.370 . S
C713 C717 1.408 . S
C714 C712 1.363 . S
C714 C715 1.370 . S
C714 C718 1.524 . S
C715 C707 1.503 . S
C715 C714 1.370 . S
C715 C716 1.403 . S
C716 C715 1.403 . S
C716 C717 1.404 . S
C716 C719 1.539 . S
C717 C713 1.408 . S
C717 C716 1.404 . S
C717 H729 0.930 . S
C718 C714 1.524 . S
C718 H730 0.956 . S
C718 H731 0.961 . S
C718 H732 0.961 . S
C719 C716 1.539 . S
C719 H733 0.958 . S
C719 H734 0.961 . S
C719 H735 0.960 . S
H720 C704 0.931 . S
H721 C709 0.929 . S
H722 C710 0.960 . S
H723 C710 0.962 . S
H724 C710 0.960 . S
H725 C711 0.961 . S
H726 C711 0.961 . S
H727 C711 0.961 . S
H728 C712 0.931 . S
H729 C717 0.930 . S
H730 C718 0.956 . S
H731 C718 0.961 . S
H732 C718 0.961 . S
H733 C719 0.958 . S
H734 C719 0.961 . S
H735 C719 0.960 . S
C736 C737 1.391 . S
C736 C738 1.394 . S
C736 H752 0.931 . S
C737 C736 1.391 . S
C737 C741 1.376 . S
C738 C736 1.394 . S
C738 C739 1.369 . S
C738 C742 1.531 . S
C739 C738 1.369 . S
C739 C740 1.410 . S
C739 C747 1.503 . S
C740 C739 1.410 . S
C740 C741 1.392 . S
C740 C743 1.511 . S
C741 C737 1.376 . S
C741 C740 1.392 . S
C741 H753 0.929 . S
C742 C738 1.531 . S
C742 H754 0.960 . S
C742 H755 0.962 . S
C742 H756 0.960 . S
C743 C740 1.511 . S
C743 H757 0.961 . S
C743 H758 0.961 . S
C743 H759 0.961 . S
C744 C745 1.370 . S
C744 C746 1.363 . S
C744 H760 0.931 . S
C745 C744 1.370 . S
C745 C749 1.408 . S
C746 C744 1.363 . S
C746 C747 1.370 . S
C746 C750 1.524 . S
C747 C739 1.503 . S
C747 C746 1.370 . S
C747 C748 1.403 . S
C748 C747 1.403 . S
C748 C749 1.404 . S
C748 C751 1.539 . S
C749 C745 1.408 . S
C749 C748 1.404 . S
C749 H761 0.930 . S
C750 C746 1.524 . S
C750 H762 0.956 . S
C750 H763 0.961 . S
C750 H764 0.961 . S
C751 C748 1.539 . S
C751 H765 0.958 . S
C751 H766 0.961 . S
C751 H767 0.960 . S
H752 C736 0.931 . S
H753 C741 0.929 . S
H754 C742 0.960 . S
H755 C742 0.962 . S
H756 C742 0.960 . S
H757 C743 0.961 . S
H758 C743 0.961 . S
H759 C743 0.961 . S
H760 C744 0.931 . S
H761 C749 0.930 . S
H762 C750 0.956 . S
H763 C750 0.961 . S
H764 C750 0.961 . S
H765 C751 0.958 . S
H766 C751 0.961 . S
H767 C751 0.960 . S
C768 C769 1.391 . S
C768 C770 1.394 . S
C768 H784 0.931 . S
C769 C768 1.391 . S
C769 C773 1.376 . S
C770 C768 1.394 . S
C770 C771 1.369 . S
C770 C774 1.531 . S
C771 C770 1.369 . S
C771 C772 1.410 . S
C771 C779 1.503 . S
C772 C771 1.410 . S
C772 C773 1.392 . S
C772 C775 1.511 . S
C773 C769 1.376 . S
C773 C772 1.392 . S
C773 H785 0.929 . S
C774 C770 1.531 . S
C774 H786 0.960 . S
C774 H787 0.962 . S
C774 H788 0.960 . S
C775 C772 1.511 . S
C775 H789 0.961 . S
C775 H790 0.961 . S
C775 H791 0.961 . S
C776 C777 1.370 . S
C776 C778 1.363 . S
C776 H792 0.931 . S
C777 C776 1.370 . S
C777 C781 1.408 . S
C778 C776 1.363 . S
C778 C779 1.370 . S
C778 C782 1.524 . S
C779 C771 1.503 . S
C779 C778 1.370 . S
C779 C780 1.403 . S
C780 C779 1.403 . S
C780 C781 1.404 . S
C780 C783 1.539 . S
C781 C777 1.408 . S
C781 C780 1.404 . S
C781 H793 0.930 . S
C782 C778 1.524 . S
C782 H794 0.956 . S
C782 H795 0.961 . S
C782 H796 0.961 . S
C783 C780 1.539 . S
C783 H797 0.958 . S
C783 H798 0.961 . S
C783 H799 0.960 . S
H784 C768 0.931 . S
H785 C773 0.929 . S
H786 C774 0.960 . S
H787 C774 0.962 . S
H788 C774 0.960 . S
H789 C775 0.961 . S
H790 C775 0.961 . S
H791 C775 0.961 . S
H792 C776 0.931 . S
H793 C781 0.930 . S
H794 C782 0.956 . S
H795 C782 0.961 . S
H796 C782 0.961 . S
H797 C783 0.958 . S
H798 C783 0.961 . S
H799 C783 0.960 . S
C800 C801 1.391 . S
C800 C802 1.394 . S
C800 H816 0.931 . S
C801 C800 1.391 . S
C801 C805 1.376 . S
C802 C800 1.394 . S
C802 C803 1.369 . S
C802 C806 1.531 . S
C803 C802 1.369 . S
C803 C804 1.410 . S
C803 C811 1.503 . S
C804 C803 1.410 . S
C804 C805 1.392 . S
C804 C807 1.511 . S
C805 C801 1.376 . S
C805 C804 1.392 . S
C805 H817 0.929 . S
C806 C802 1.531 . S
C806 H818 0.960 . S
C806 H819 0.962 . S
C806 H820 0.960 . S
C807 C804 1.511 . S
C807 H821 0.961 . S
C807 H822 0.961 . S
C807 H823 0.961 . S
C808 C809 1.370 . S
C808 C810 1.363 . S
C808 H824 0.931 . S
C809 C808 1.370 . S
C809 C813 1.408 . S
C810 C808 1.363 . S
C810 C811 1.370 . S
C810 C814 1.524 . S
C811 C803 1.503 . S
C811 C810 1.370 . S
C811 C812 1.403 . S
C812 C811 1.403 . S
C812 C813 1.404 . S
C812 C815 1.539 . S
C813 C809 1.408 . S
C813 C812 1.404 . S
C813 H825 0.930 . S
C814 C810 1.524 . S
C814 H826 0.956 . S
C814 H827 0.961 . S
C814 H828 0.961 . S
C815 C812 1.539 . S
C815 H829 0.958 . S
C815 H830 0.961 . S
C815 H831 0.960 . S
H816 C800 0.931 . S
H817 C805 0.929 . S
H818 C806 0.960 . S
H819 C806 0.962 . S
H820 C806 0.960 . S
H821 C807 0.961 . S
H822 C807 0.961 . S
H823 C807 0.961 . S
H824 C808 0.931 . S
H825 C813 0.930 . S
H826 C814 0.956 . S
H827 C814 0.961 . S
H828 C814 0.961 . S
H829 C815 0.958 . S
H830 C815 0.961 . S
H831 C815 0.960 . S
C832 C833 1.391 . S
C832 C834 1.394 . S
C832 H848 0.931 . S
C833 C832 1.391 . S
C833 C837 1.376 . S
C834 C832 1.394 . S
C834 C835 1.369 . S
C834 C838 1.531 . S
C835 C834 1.369 . S
C835 C836 1.410 . S
C835 C843 1.503 . S
C836 C835 1.410 . S
C836 C837 1.392 . S
C836 C839 1.511 . S
C837 C833 1.376 . S
C837 C836 1.392 . S
C837 H849 0.929 . S
C838 C834 1.531 . S
C838 H850 0.960 . S
C838 H851 0.962 . S
C838 H852 0.960 . S
C839 C836 1.511 . S
C839 H853 0.961 . S
C839 H854 0.961 . S
C839 H855 0.961 . S
C840 C841 1.370 . S
C840 C842 1.363 . S
C840 H856 0.931 . S
C841 C840 1.370 . S
C841 C845 1.408 . S
C842 C840 1.363 . S
C842 C843 1.370 . S
C842 C846 1.524 . S
C843 C835 1.503 . S
C843 C842 1.370 . S
C843 C844 1.403 . S
C844 C843 1.403 . S
C844 C845 1.404 . S
C844 C847 1.539 . S
C845 C841 1.408 . S
C845 C844 1.404 . S
C845 H857 0.930 . S
C846 C842 1.524 . S
C846 H858 0.956 . S
C846 H859 0.961 . S
C846 H860 0.961 . S
C847 C844 1.539 . S
C847 H861 0.958 . S
C847 H862 0.961 . S
C847 H863 0.960 . S
H848 C832 0.931 . S
H849 C837 0.929 . S
H850 C838 0.960 . S
H851 C838 0.962 . S
H852 C838 0.960 . S
H853 C839 0.961 . S
H854 C839 0.961 . S
H855 C839 0.961 . S
H856 C840 0.931 . S
H857 C845 0.930 . S
H858 C846 0.956 . S
H859 C846 0.961 . S
H860 C846 0.961 . S
H861 C847 0.958 . S
H862 C847 0.961 . S
H863 C847 0.960 . S
C864 C865 1.391 . S
C864 C866 1.394 . S
C864 H880 0.931 . S
C865 C864 1.391 . S
C865 C869 1.376 . S
C866 C864 1.394 . S
C866 C867 1.369 . S
C866 C870 1.531 . S
C867 C866 1.369 . S
C867 C868 1.410 . S
C867 C875 1.503 . S
C868 C867 1.410 . S
C868 C869 1.392 . S
C868 C871 1.511 . S
C869 C865 1.376 . S
C869 C868 1.392 . S
C869 H881 0.929 . S
C870 C866 1.531 . S
C870 H882 0.960 . S
C870 H883 0.962 . S
C870 H884 0.960 . S
C871 C868 1.511 . S
C871 H885 0.961 . S
C871 H886 0.961 . S
C871 H887 0.961 . S
C872 C873 1.370 . S
C872 C874 1.363 . S
C872 H888 0.931 . S
C873 C872 1.370 . S
C873 C877 1.408 . S
C874 C872 1.363 . S
C874 C875 1.370 . S
C874 C878 1.524 . S
C875 C867 1.503 . S
C875 C874 1.370 . S
C875 C876 1.403 . S
C876 C875 1.403 . S
C876 C877 1.404 . S
C876 C879 1.539 . S
C877 C873 1.408 . S
C877 C876 1.404 . S
C877 H889 0.930 . S
C878 C874 1.524 . S
C878 H890 0.956 . S
C878 H891 0.961 . S
C878 H892 0.961 . S
C879 C876 1.539 . S
C879 H893 0.958 . S
C879 H894 0.961 . S
C879 H895 0.960 . S
H880 C864 0.931 . S
H881 C869 0.929 . S
H882 C870 0.960 . S
H883 C870 0.962 . S
H884 C870 0.960 . S
H885 C871 0.961 . S
H886 C871 0.961 . S
H887 C871 0.961 . S
H888 C872 0.931 . S
H889 C877 0.930 . S
H890 C878 0.956 . S
H891 C878 0.961 . S
H892 C878 0.961 . S
H893 C879 0.958 . S
H894 C879 0.961 . S
H895 C879 0.960 . S
C896 C897 1.382 1_565 S
C896 C898 1.394 . S
C896 H912 0.931 . S
C897 C896 1.382 1_545 S
C897 C901 1.381 . S
C898 C896 1.394 . S
C898 C899 1.369 . S
C898 C902 1.531 . S
C899 C898 1.369 . S
C899 C900 1.410 1_565 S
C899 C907 1.503 . S
C900 C899 1.410 1_545 S
C900 C901 1.392 . S
C900 C903 1.511 . S
C901 C897 1.381 . S
C901 C900 1.392 . S
C901 H913 0.929 . S
C902 C898 1.531 . S
C902 H914 0.960 . S
C902 H915 0.962 . S
C902 H916 0.960 . S
C903 C900 1.511 . S
C903 H917 0.961 . S
C903 H918 0.961 . S
C903 H919 0.961 1_545 S
C904 C905 1.370 1_545 S
C904 C906 1.363 . S
C904 H920 0.931 . S
C905 C904 1.370 1_565 S
C905 C909 1.408 . S
C906 C904 1.363 . S
C906 C907 1.370 1_545 S
C906 C910 1.524 . S
C907 C899 1.503 . S
C907 C906 1.370 1_565 S
C907 C908 1.403 . S
C908 C907 1.403 . S
C908 C909 1.404 . S
C908 C911 1.539 . S
C909 C905 1.408 . S
C909 C908 1.404 . S
C909 H921 0.930 . S
C910 C906 1.524 . S
C910 H922 0.956 . S
C910 H923 0.961 . S
C910 H924 0.961 . S
C911 C908 1.539 . S
C911 H925 0.958 . S
C911 H926 0.961 . S
C911 H927 0.960 . S
H912 C896 0.931 . S
H913 C901 0.929 . S
H914 C902 0.960 . S
H915 C902 0.962 . S
H916 C902 0.960 . S
H917 C903 0.961 . S
H918 C903 0.961 . S
H919 C903 0.961 1_565 S
H920 C904 0.931 . S
H921 C909 0.930 . S
H922 C910 0.956 . S
H923 C910 0.961 . S
H924 C910 0.961 . S
H925 C911 0.958 . S
H926 C911 0.961 . S
H927 C911 0.960 . S
C928 C929 1.391 . S
C928 C930 1.394 . S
C928 H944 0.931 . S
C929 C928 1.391 . S
C929 C933 1.376 . S
C930 C928 1.394 . S
C930 C931 1.369 . S
C930 C934 1.531 . S
C931 C930 1.369 . S
C931 C932 1.410 . S
C931 C939 1.503 . S
C932 C931 1.410 . S
C932 C933 1.392 . S
C932 C935 1.511 . S
C933 C929 1.376 . S
C933 C932 1.392 . S
C933 H945 0.929 . S
C934 C930 1.531 . S
C934 H946 0.960 . S
C934 H947 0.962 . S
C934 H948 0.960 . S
C935 C932 1.511 . S
C935 H949 0.961 . S
C935 H950 0.961 . S
C935 H951 0.961 . S
C936 C937 1.370 . S
C936 C938 1.363 . S
C936 H952 0.931 . S
C937 C936 1.370 . S
C937 C941 1.408 . S
C938 C936 1.363 . S
C938 C939 1.370 . S
C938 C942 1.524 . S
C939 C931 1.503 . S
C939 C938 1.370 . S
C939 C940 1.403 . S
C940 C939 1.403 . S
C940 C941 1.404 . S
C940 C943 1.539 . S
C941 C937 1.408 . S
C941 C940 1.404 . S
C941 H953 0.930 . S
C942 C938 1.524 . S
C942 H954 0.956 . S
C942 H955 0.961 . S
C942 H956 0.961 . S
C943 C940 1.539 . S
C943 H957 0.958 . S
C943 H958 0.961 . S
C943 H959 0.960 . S
H944 C928 0.931 . S
H945 C933 0.929 . S
H946 C934 0.960 . S
H947 C934 0.962 . S
H948 C934 0.960 . S
H949 C935 0.961 . S
H950 C935 0.961 . S
H951 C935 0.961 . S
H952 C936 0.931 . S
H953 C941 0.930 . S
H954 C942 0.956 . S
H955 C942 0.961 . S
H956 C942 0.961 . S
H957 C943 0.958 . S
H958 C943 0.961 . S
H959 C943 0.960 . S
C960 C961 1.391 . S
C960 C962 1.394 . S
C960 H976 0.931 . S
C961 C960 1.391 . S
C961 C965 1.376 . S
C962 C960 1.394 . S
C962 C963 1.369 . S
C962 C966 1.531 . S
C963 C962 1.369 . S
C963 C964 1.410 . S
C963 C971 1.503 . S
C964 C963 1.410 . S
C964 C965 1.392 . S
C964 C967 1.511 . S
C965 C961 1.376 . S
C965 C964 1.392 . S
C965 H977 0.929 . S
C966 C962 1.531 . S
C966 H978 0.960 1_545 S
C966 H979 0.962 . S
C966 H980 0.960 1_545 S
C967 C964 1.511 . S
C967 H981 0.961 . S
C967 H982 0.961 . S
C967 H983 0.961 . S
C968 C969 1.370 . S
C968 C970 1.363 . S
C968 H984 0.931 . S
C969 C968 1.370 . S
C969 C973 1.408 1_545 S
C970 C968 1.363 . S
C970 C971 1.370 . S
C970 C974 1.524 . S
C971 C963 1.503 . S
C971 C970 1.370 . S
C971 C972 1.403 1_545 S
C972 C971 1.403 1_565 S
C972 C973 1.404 . S
C972 C975 1.539 . S
C973 C969 1.408 1_565 S
C973 C972 1.404 . S
C973 H985 0.930 . S
C974 C970 1.524 . S
C974 H986 0.956 . S
C974 H987 0.961 . S
C974 H988 0.961 . S
C975 C972 1.539 . S
C975 H989 0.958 . S
C975 H990 0.961 . S
C975 H991 0.960 . S
H976 C960 0.931 . S
H977 C965 0.929 . S
H978 C966 0.960 1_565 S
H979 C966 0.962 . S
H980 C966 0.960 1_565 S
H981 C967 0.961 . S
H982 C967 0.961 . S
H983 C967 0.961 . S
H984 C968 0.931 . S
H985 C973 0.930 . S
H986 C974 0.956 . S
H987 C974 0.961 . S
H988 C974 0.961 . S
H989 C975 0.958 . S
H990 C975 0.961 . S
H991 C975 0.960 . S
C992 C993 1.391 . S
C992 C994 1.394 . S
C992 H1008 0.931 . S
C993 C992 1.391 . S
C993 C997 1.376 . S
C994 C992 1.394 . S
C994 C995 1.369 . S
C994 C998 1.531 . S
C995 C994 1.369 . S
C995 C996 1.410 . S
C995 C1003 1.503 . S
C996 C995 1.410 . S
C996 C997 1.392 . S
C996 C999 1.511 . S
C997 C993 1.376 . S
C997 C996 1.392 . S
C997 H1009 0.929 . S
C998 C994 1.531 . S
C998 H1010 0.960 . S
C998 H1011 0.962 . S
C998 H1012 0.960 . S
C999 C996 1.511 . S
C999 H1013 0.961 . S
C999 H1014 0.961 . S
C999 H1015 0.961 . S
C1000 C1001 1.370 . S
C1000 C1002 1.363 . S
C1000 H1016 0.931 . S
C1001 C1000 1.370 . S
C1001 C1005 1.408 . S
C1002 C1000 1.363 . S
C1002 C1003 1.370 . S
C1002 C1006 1.524 . S
C1003 C995 1.503 . S
C1003 C1002 1.370 . S
C1003 C1004 1.403 . S
C1004 C1003 1.403 . S
C1004 C1005 1.404 . S
C1004 C1007 1.539 . S
C1005 C1001 1.408 . S
C1005 C1004 1.404 . S
C1005 H1017 0.930 . S
C1006 C1002 1.524 . S
C1006 H1018 0.956 . S
C1006 H1019 0.961 . S
C1006 H1020 0.961 . S
C1007 C1004 1.539 . S
C1007 H1021 0.958 . S
C1007 H1022 0.961 . S
C1007 H1023 0.960 . S
H1008 C992 0.931 . S
H1009 C997 0.929 . S
H1010 C998 0.960 . S
H1011 C998 0.962 . S
H1012 C998 0.960 . S
H1013 C999 0.961 . S
H1014 C999 0.961 . S
H1015 C999 0.961 . S
H1016 C1000 0.931 . S
H1017 C1005 0.930 . S
H1018 C1006 0.956 . S
H1019 C1006 0.961 . S
H1020 C1006 0.961 . S
H1021 C1007 0.958 . S
H1022 C1007 0.961 . S
H1023 C1007 0.960 . S
C1024 C1025 1.391 . S
C1024 C1026 1.394 . S
C1024 H1040 0.931 . S
C1025 C1024 1.391 . S
C1025 C1029 1.376 1_556 S
C1026 C1024 1.394 . S
C1026 C1027 1.369 . S
C1026 C1030 1.531 . S
C1027 C1026 1.369 . S
C1027 C1028 1.410 . S
C1027 C1035 1.503 . S
C1028 C1027 1.410 . S
C1028 C1029 1.392 1_556 S
C1028 C1031 1.511 1_556 S
C1029 C1025 1.376 1_554 S
C1029 C1028 1.392 1_554 S
C1029 H1041 0.929 . S
C1030 C1026 1.531 . S
C1030 H1042 0.960 . S
C1030 H1043 0.962 . S
C1030 H1044 0.960 . S
C1031 C1028 1.511 1_554 S
C1031 H1045 0.961 . S
C1031 H1046 0.961 . S
C1031 H1047 0.961 . S
C1032 C1033 1.370 . S
C1032 C1034 1.363 . S
C1032 H1048 0.931 1_556 S
C1033 C1032 1.370 . S
C1033 C1037 1.408 . S
C1034 C1032 1.363 . S
C1034 C1035 1.370 . S
C1034 C1038 1.524 1_556 S
C1035 C1027 1.503 . S
C1035 C1034 1.370 . S
C1035 C1036 1.403 . S
C1036 C1035 1.403 . S
C1036 C1037 1.404 . S
C1036 C1039 1.539 . S
C1037 C1033 1.408 . S
C1037 C1036 1.404 . S
C1037 H1049 0.930 . S
C1038 C1034 1.524 1_554 S
C1038 H1050 0.956 . S
C1038 H1051 0.961 . S
C1038 H1052 0.961 . S
C1039 C1036 1.539 . S
C1039 H1053 0.958 . S
C1039 H1054 0.961 . S
C1039 H1055 0.960 . S
H1040 C1024 0.931 . S
H1041 C1029 0.929 . S
H1042 C1030 0.960 . S
H1043 C1030 0.962 . S
H1044 C1030 0.960 . S
H1045 C1031 0.961 . S
H1046 C1031 0.961 . S
H1047 C1031 0.961 . S
H1048 C1032 0.931 1_554 S
H1049 C1037 0.930 . S
H1050 C1038 0.956 . S
H1051 C1038 0.961 . S
H1052 C1038 0.961 . S
H1053 C1039 0.958 . S
H1054 C1039 0.961 . S
H1055 C1039 0.960 . S
C1056 C1057 1.391 1_556 S
C1056 C1058 1.394 . S
C1056 H1072 0.931 . S
C1057 C1056 1.391 1_554 S
C1057 C1061 1.376 . S
C1058 C1056 1.394 . S
C1058 C1059 1.369 1_556 S
C1058 C1062 1.531 . S
C1059 C1058 1.369 1_554 S
C1059 C1060 1.410 . S
C1059 C1067 1.503 1_554 S
C1060 C1059 1.410 . S
C1060 C1061 1.392 . S
C1060 C1063 1.511 . S
C1061 C1057 1.376 . S
C1061 C1060 1.392 . S
C1061 H1073 0.929 . S
C1062 C1058 1.531 . S
C1062 H1074 0.960 . S
C1062 H1075 0.962 . S
C1062 H1076 0.960 . S
C1063 C1060 1.511 . S
C1063 H1077 0.961 . S
C1063 H1078 0.961 . S
C1063 H1079 0.961 . S
C1064 C1065 1.370 . S
C1064 C1066 1.363 . S
C1064 H1080 0.931 . S
C1065 C1064 1.370 . S
C1065 C1069 1.408 1_556 S
C1066 C1064 1.363 . S
C1066 C1067 1.370 . S
C1066 C1070 1.524 . S
C1067 C1059 1.503 1_556 S
C1067 C1066 1.370 . S
C1067 C1068 1.403 1_556 S
C1068 C1067 1.403 1_554 S
C1068 C1069 1.404 . S
C1068 C1071 1.539 . S
C1069 C1065 1.408 1_554 S
C1069 C1068 1.404 . S
C1069 H1081 0.930 . S
C1070 C1066 1.524 . S
C1070 H1082 0.956 . S
C1070 H1083 0.961 . S
C1070 H1084 0.961 . S
C1071 C1068 1.539 . S
C1071 H1085 0.958 . S
C1071 H1086 0.961 . S
C1071 H1087 0.960 . S
H1072 C1056 0.931 . S
H1073 C1061 0.929 . S
H1074 C1062 0.960 . S
H1075 C1062 0.962 . S
H1076 C1062 0.960 . S
H1077 C1063 0.961 . S
H1078 C1063 0.961 . S
H1079 C1063 0.961 . S
H1080 C1064 0.931 . S
H1081 C1069 0.930 . S
H1082 C1070 0.956 . S
H1083 C1070 0.961 . S
H1084 C1070 0.961 . S
H1085 C1071 0.958 . S
H1086 C1071 0.961 . S
H1087 C1071 0.960 . S
C1088 C1089 1.391 . S
C1088 C1090 1.394 . S
C1088 H1104 0.931 . S
C1089 C1088 1.391 . S
C1089 C1093 1.376 1_554 S
C1090 C1088 1.394 . S
C1090 C1091 1.369 . S
C1090 C1094 1.531 . S
C1091 C1090 1.369 . S
C1091 C1092 1.410 1_554 S
C1091 C1099 1.503 . S
C1092 C1091 1.410 1_556 S
C1092 C1093 1.392 . S
C1092 C1095 1.511 . S
C1093 C1089 1.376 1_556 S
C1093 C1092 1.392 . S
C1093 H1105 0.929 . S
C1094 C1090 1.531 . S
C1094 H1106 0.960 . S
C1094 H1107 0.962 . S
C1094 H1108 0.960 . S
C1095 C1092 1.511 . S
C1095 H1109 0.961 . S
C1095 H1110 0.961 . S
C1095 H1111 0.961 . S
C1096 C1097 1.370 . S
C1096 C1098 1.363 . S
C1096 H1112 0.931 . S
C1097 C1096 1.370 . S
C1097 C1101 1.408 . S
C1098 C1096 1.363 . S
C1098 C1099 1.370 . S
C1098 C1102 1.524 1_554 S
C1099 C1091 1.503 . S
C1099 C1098 1.370 . S
C1099 C1100 1.403 . S
C1100 C1099 1.403 . S
C1100 C1101 1.404 . S
C1100 C1103 1.539 . S
C1101 C1097 1.408 . S
C1101 C1100 1.404 . S
C1101 H1113 0.930 . S
C1102 C1098 1.524 1_556 S
C1102 H1114 0.956 1_556 S
C1102 H1115 0.961 . S
C1102 H1116 0.961 . S
C1103 C1100 1.539 . S
C1103 H1117 0.958 . S
C1103 H1118 0.961 . S
C1103 H1119 0.960 . S
H1104 C1088 0.931 . S
H1105 C1093 0.929 . S
H1106 C1094 0.960 . S
H1107 C1094 0.962 . S
H1108 C1094 0.960 . S
H1109 C1095 0.961 . S
H1110 C1095 0.961 . S
H1111 C1095 0.961 . S
H1112 C1096 0.931 . S
H1113 C1101 0.930 . S
H1114 C1102 0.956 1_554 S
H1115 C1102 0.961 . S
H1116 C1102 0.961 . S
H1117 C1103 0.958 . S
H1118 C1103 0.961 . S
H1119 C1103 0.960 . S
C1120 C1121 1.391 . S
C1120 C1122 1.394 . S
C1120 H1136 0.931 . S
C1121 C1120 1.391 . S
C1121 C1125 1.376 1_455 S
C1122 C1120 1.394 . S
C1122 C1123 1.369 . S
C1122 C1126 1.531 . S
C1123 C1122 1.369 . S
C1123 C1124 1.410 1_455 S
C1123 C1131 1.503 . S
C1124 C1123 1.410 1_655 S
C1124 C1125 1.392 . S
C1124 C1127 1.511 . S
C1125 C1121 1.376 1_655 S
C1125 C1124 1.392 . S
C1125 H1137 0.929 . S
C1126 C1122 1.531 . S
C1126 H1138 0.960 . S
C1126 H1139 0.962 . S
C1126 H1140 0.960 . S
C1127 C1124 1.511 . S
C1127 H1141 0.961 . S
C1127 H1142 0.961 . S
C1127 H1143 0.961 . S
C1128 C1129 1.370 . S
C1128 C1130 1.363 . S
C1128 H1144 0.931 . S
C1129 C1128 1.370 . S
C1129 C1133 1.408 . S
C1130 C1128 1.363 . S
C1130 C1131 1.370 . S
C1130 C1134 1.524 . S
C1131 C1123 1.503 . S
C1131 C1130 1.370 . S
C1131 C1132 1.403 . S
C1132 C1131 1.403 . S
C1132 C1133 1.404 . S
C1132 C1135 1.539 1_455 S
C1133 C1129 1.408 . S
C1133 C1132 1.404 . S
C1133 H1145 0.930 . S
C1134 C1130 1.524 . S
C1134 H1146 0.956 . S
C1134 H1147 0.961 . S
C1134 H1148 0.961 . S
C1135 C1132 1.539 1_655 S
C1135 H1149 0.964 . S
C1135 H1150 0.961 . S
C1135 H1151 0.960 . S
H1136 C1120 0.931 . S
H1137 C1125 0.929 . S
H1138 C1126 0.960 . S
H1139 C1126 0.962 . S
H1140 C1126 0.960 . S
H1141 C1127 0.961 . S
H1142 C1127 0.961 . S
H1143 C1127 0.961 . S
H1144 C1128 0.931 . S
H1145 C1133 0.930 . S
H1146 C1134 0.956 . S
H1147 C1134 0.961 . S
H1148 C1134 0.961 . S
H1149 C1135 0.964 . S
H1150 C1135 0.961 . S
H1151 C1135 0.960 . S
C1152 C1153 1.391 . S
C1152 C1154 1.394 . S
C1152 H1168 0.931 . S
C1153 C1152 1.391 . S
C1153 C1157 1.376 1_655 S
C1154 C1152 1.394 . S
C1154 C1155 1.369 . S
C1154 C1158 1.531 . S
C1155 C1154 1.369 . S
C1155 C1156 1.410 1_655 S
C1155 C1163 1.503 . S
C1156 C1155 1.410 1_455 S
C1156 C1157 1.392 . S
C1156 C1159 1.511 . S
C1157 C1153 1.376 1_455 S
C1157 C1156 1.392 . S
C1157 H1169 0.929 . S
C1158 C1154 1.531 . S
C1158 H1170 0.960 . S
C1158 H1171 0.962 . S
C1158 H1172 0.960 . S
C1159 C1156 1.511 . S
C1159 H1173 0.961 . S
C1159 H1174 0.961 . S
C1159 H1175 0.961 . S
C1160 C1161 1.370 1_455 S
C1160 C1162 1.363 . S
C1160 H1176 0.931 . S
C1161 C1160 1.370 1_655 S
C1161 C1165 1.408 . S
C1162 C1160 1.363 . S
C1162 C1163 1.370 1_455 S
C1162 C1166 1.524 . S
C1163 C1155 1.503 . S
C1163 C1162 1.370 1_655 S
C1163 C1164 1.403 . S
C1164 C1163 1.403 . S
C1164 C1165 1.404 . S
C1164 C1167 1.539 . S
C1165 C1161 1.408 . S
C1165 C1164 1.404 . S
C1165 H1177 0.930 . S
C1166 C1162 1.524 . S
C1166 H1178 0.956 . S
C1166 H1179 0.961 . S
C1166 H1180 0.961 . S
C1167 C1164 1.539 . S
C1167 H1181 0.958 . S
C1167 H1182 0.961 . S
C1167 H1183 0.960 . S
H1168 C1152 0.931 . S
H1169 C1157 0.929 . S
H1170 C1158 0.960 . S
H1171 C1158 0.962 . S
H1172 C1158 0.960 . S
H1173 C1159 0.961 . S
H1174 C1159 0.961 . S
H1175 C1159 0.961 . S
H1176 C1160 0.931 . S
H1177 C1165 0.930 . S
H1178 C1166 0.956 . S
H1179 C1166 0.961 . S
H1180 C1166 0.961 . S
H1181 C1167 0.958 . S
H1182 C1167 0.961 . S
H1183 C1167 0.960 . S
C1184 C1185 1.391 . S
C1184 C1186 1.394 . S
C1184 H1200 0.931 . S
C1185 C1184 1.391 . S
C1185 C1189 1.376 . S
C1186 C1184 1.394 . S
C1186 C1187 1.369 . S
C1186 C1190 1.508 1_455 S
C1187 C1186 1.369 . S
C1187 C1188 1.410 . S
C1187 C1195 1.503 . S
C1188 C1187 1.410 . S
C1188 C1189 1.392 . S
C1188 C1191 1.511 . S
C1189 C1185 1.376 . S
C1189 C1188 1.392 . S
C1189 H1201 0.929 . S
C1190 C1186 1.508 1_655 S
C1190 H1202 0.950 1_655 S
C1190 H1203 0.981 . S
C1190 H1204 0.975 . S
C1191 C1188 1.511 . S
C1191 H1205 0.961 . S
C1191 H1206 0.961 . S
C1191 H1207 0.961 . S
C1192 C1193 1.370 . S
C1192 C1194 1.363 . S
C1192 H1208 0.931 . S
C1193 C1192 1.370 . S
C1193 C1197 1.408 . S
C1194 C1192 1.363 . S
C1194 C1195 1.370 . S
C1194 C1198 1.524 . S
C1195 C1187 1.503 . S
C1195 C1194 1.370 . S
C1195 C1196 1.403 . S
C1196 C1195 1.403 . S
C1196 C1197 1.404 . S
C1196 C1199 1.539 . S
C1197 C1193 1.408 . S
C1197 C1196 1.404 . S
C1197 H1209 0.930 . S
C1198 C1194 1.524 . S
C1198 H1210 0.956 . S
C1198 H1211 0.961 . S
C1198 H1212 0.961 . S
C1199 C1196 1.539 . S
C1199 H1213 0.958 . S
C1199 H1214 0.961 . S
C1199 H1215 0.960 . S
H1200 C1184 0.931 . S
H1201 C1189 0.929 . S
H1202 C1190 0.950 1_455 S
H1203 C1190 0.981 . S
H1204 C1190 0.975 . S
H1205 C1191 0.961 . S
H1206 C1191 0.961 . S
H1207 C1191 0.961 . S
H1208 C1192 0.931 . S
H1209 C1197 0.930 . S
H1210 C1198 0.956 . S
H1211 C1198 0.961 . S
H1212 C1198 0.961 . S
H1213 C1199 0.958 . S
H1214 C1199 0.961 . S
H1215 C1199 0.960 . S
C1216 C1217 1.391 . S
C1216 C1218 1.394 . S
C1216 H1232 0.931 . S
C1217 C1216 1.391 . S
C1217 C1221 1.376 . S
C1218 C1216 1.394 . S
C1218 C1219 1.369 . S
C1218 C1222 1.531 1_455 S
C1219 C1218 1.369 . S
C1219 C1220 1.410 . S
C1219 C1227 1.503 . S
C1220 C1219 1.410 . S
C1220 C1221 1.392 . S
C1220 C1223 1.511 . S
C1221 C1217 1.376 . S
C1221 C1220 1.392 . S
C1221 H1233 0.929 . S
C1222 C1218 1.531 1_655 S
C1222 H1234 0.960 1_655 S
C1222 H1235 0.962 . S
C1222 H1236 0.960 1_655 S
C1223 C1220 1.511 . S
C1223 H1237 0.961 . S
C1223 H1238 0.961 . S
C1223 H1239 0.961 . S
C1224 C1225 1.370 . S
C1224 C1226 1.363 . S
C1224 H1240 0.931 . S
C1225 C1224 1.370 . S
C1225 C1229 1.408 1_655 S
C1226 C1224 1.363 . S
C1226 C1227 1.370 1_655 S
C1226 C1230 1.524 . S
C1227 C1219 1.503 . S
C1227 C1226 1.370 1_455 S
C1227 C1228 1.403 . S
C1228 C1227 1.403 . S
C1228 C1229 1.404 . S
C1228 C1231 1.539 . S
C1229 C1225 1.408 1_455 S
C1229 C1228 1.404 . S
C1229 H1241 0.930 . S
C1230 C1226 1.524 . S
C1230 H1242 0.956 . S
C1230 H1243 0.961 . S
C1230 H1244 0.961 . S
C1231 C1228 1.539 . S
C1231 H1245 0.958 . S
C1231 H1246 0.961 . S
C1231 H1247 0.960 . S
H1232 C1216 0.931 . S
H1233 C1221 0.929 . S
H1234 C1222 0.960 1_455 S
H1235 C1222 0.962 . S
H1236 C1222 0.960 1_455 S
H1237 C1223 0.961 . S
H1238 C1223 0.961 . S
H1239 C1223 0.961 . S
H1240 C1224 0.931 . S
H1241 C1229 0.930 . S
H1242 C1230 0.956 . S
H1243 C1230 0.961 . S
H1244 C1230 0.961 . S
H1245 C1231 0.958 . S
H1246 C1231 0.961 . S
H1247 C1231 0.960 . S
C1248 C1249 1.391 . S
C1248 C1250 1.394 . S
C1248 H1264 0.931 . S
C1249 C1248 1.391 . S
C1249 C1253 1.376 . S
C1250 C1248 1.394 . S
C1250 C1251 1.369 . S
C1250 C1254 1.531 . S
C1251 C1250 1.369 . S
C1251 C1252 1.410 . S
C1251 C1259 1.503 . S
C1252 C1251 1.410 . S
C1252 C1253 1.392 . S
C1252 C1255 1.511 . S
C1253 C1249 1.376 . S
C1253 C1252 1.392 . S
C1253 H1265 0.929 . S
C1254 C1250 1.531 . S
C1254 H1266 0.960 . S
C1254 H1267 0.962 1_545 S
C1254 H1268 0.960 . S
C1255 C1252 1.511 . S
C1255 H1269 0.961 . S
C1255 H1270 0.961 . S
C1255 H1271 0.961 . S
C1256 C1257 1.370 1_565 S
C1256 C1258 1.363 . S
C1256 H1272 0.931 . S
C1257 C1256 1.370 1_545 S
C1257 C1261 1.408 . S
C1258 C1256 1.363 . S
C1258 C1259 1.370 1_565 S
C1258 C1262 1.524 . S
C1259 C1251 1.503 . S
C1259 C1258 1.370 1_545 S
C1259 C1260 1.403 . S
C1260 C1259 1.403 . S
C1260 C1261 1.404 . S
C1260 C1263 1.539 . S
C1261 C1257 1.408 . S
C1261 C1260 1.404 . S
C1261 H1273 0.930 . S
C1262 C1258 1.524 . S
C1262 H1274 0.956 . S
C1262 H1275 0.961 . S
C1262 H1276 0.961 . S
C1263 C1260 1.539 . S
C1263 H1277 0.958 . S
C1263 H1278 0.961 . S
C1263 H1279 0.960 . S
H1264 C1248 0.931 . S
H1265 C1253 0.929 . S
H1266 C1254 0.960 . S
H1267 C1254 0.962 1_565 S
H1268 C1254 0.960 . S
H1269 C1255 0.961 . S
H1270 C1255 0.961 . S
H1271 C1255 0.961 . S
H1272 C1256 0.931 . S
H1273 C1261 0.930 . S
H1274 C1262 0.956 . S
H1275 C1262 0.961 . S
H1276 C1262 0.961 . S
H1277 C1263 0.958 . S
H1278 C1263 0.961 . S
H1279 C1263 0.960 . S
C1280 C1281 1.391 . S
C1280 C1282 1.394 . S
C1280 H1296 0.931 . S
C1281 C1280 1.391 . S
C1281 C1285 1.376 . S
C1282 C1280 1.394 . S
C1282 C1283 1.369 . S
C1282 C1286 1.531 . S
C1283 C1282 1.369 . S
C1283 C1284 1.410 . S
C1283 C1291 1.503 . S
C1284 C1283 1.410 . S
C1284 C1285 1.392 . S
C1284 C1287 1.511 . S
C1285 C1281 1.376 . S
C1285 C1284 1.392 . S
C1285 H1297 0.929 . S
C1286 C1282 1.531 . S
C1286 H1298 0.960 . S
C1286 H1299 0.962 . S
C1286 H1300 0.960 . S
C1287 C1284 1.511 . S
C1287 H1301 0.961 . S
C1287 H1302 0.961 . S
C1287 H1303 0.961 . S
C1288 C1289 1.370 . S
C1288 C1290 1.363 . S
C1288 H1304 0.931 . S
C1289 C1288 1.370 . S
C1289 C1293 1.408 . S
C1290 C1288 1.363 . S
C1290 C1291 1.370 . S
C1290 C1294 1.524 . S
C1291 C1283 1.503 . S
C1291 C1290 1.370 . S
C1291 C1292 1.403 . S
C1292 C1291 1.403 . S
C1292 C1293 1.404 . S
C1292 C1295 1.539 . S
C1293 C1289 1.408 . S
C1293 C1292 1.404 . S
C1293 H1305 0.930 . S
C1294 C1290 1.524 . S
C1294 H1306 0.956 . S
C1294 H1307 0.961 . S
C1294 H1308 0.961 . S
C1295 C1292 1.539 . S
C1295 H1309 0.958 . S
C1295 H1310 0.961 . S
C1295 H1311 0.960 . S
H1296 C1280 0.931 . S
H1297 C1285 0.929 . S
H1298 C1286 0.960 . S
H1299 C1286 0.962 . S
H1300 C1286 0.960 . S
H1301 C1287 0.961 . S
H1302 C1287 0.961 . S
H1303 C1287 0.961 . S
H1304 C1288 0.931 . S
H1305 C1293 0.930 . S
H1306 C1294 0.956 . S
H1307 C1294 0.961 . S
H1308 C1294 0.961 . S
H1309 C1295 0.958 . S
H1310 C1295 0.961 . S
H1311 C1295 0.960 . S
C1312 C1313 1.391 . S
C1312 C1314 1.394 . S
C1312 H1328 0.931 . S
C1313 C1312 1.391 . S
C1313 C1317 1.376 1_565 S
C1314 C1312 1.394 . S
C1314 C1315 1.369 . S
C1314 C1318 1.531 . S
C1315 C1314 1.369 . S
C1315 C1316 1.410 1_565 S
C1315 C1323 1.503 . S
C1316 C1315 1.410 1_545 S
C1316 C1317 1.392 . S
C1316 C1319 1.511 . S
C1317 C1313 1.376 1_545 S
C1317 C1316 1.392 . S
C1317 H1329 0.929 . S
C1318 C1314 1.531 . S
C1318 H1330 0.960 . S
C1318 H1331 0.962 . S
C1318 H1332 0.960 . S
C1319 C1316 1.511 . S
C1319 H1333 0.961 . S
C1319 H1334 0.961 . S
C1319 H1335 0.961 . S
C1320 C1321 1.370 1_545 S
C1320 C1322 1.363 . S
C1320 H1336 0.931 . S
C1321 C1320 1.370 1_565 S
C1321 C1325 1.408 . S
C1322 C1320 1.363 . S
C1322 C1323 1.370 1_545 S
C1322 C1326 1.524 . S
C1323 C1315 1.503 . S
C1323 C1322 1.370 1_565 S
C1323 C1324 1.403 . S
C1324 C1323 1.403 . S
C1324 C1325 1.404 . S
C1324 C1327 1.539 . S
C1325 C1321 1.408 . S
C1325 C1324 1.404 . S
C1325 H1337 0.930 . S
C1326 C1322 1.524 . S
C1326 H1338 0.956 . S
C1326 H1339 0.961 . S
C1326 H1340 0.961 . S
C1327 C1324 1.539 . S
C1327 H1341 0.958 . S
C1327 H1342 0.961 . S
C1327 H1343 0.960 . S
H1328 C1312 0.931 . S
H1329 C1317 0.929 . S
H1330 C1318 0.960 . S
H1331 C1318 0.962 . S
H1332 C1318 0.960 . S
H1333 C1319 0.961 . S
H1334 C1319 0.961 . S
H1335 C1319 0.961 . S
H1336 C1320 0.931 . S
H1337 C1325 0.930 . S
H1338 C1326 0.956 . S
H1339 C1326 0.961 . S
H1340 C1326 0.961 . S
H1341 C1327 0.958 . S
H1342 C1327 0.961 . S
H1343 C1327 0.960 . S
C1344 C1345 1.391 . S
C1344 C1346 1.394 . S
C1344 H1360 0.931 . S
C1345 C1344 1.391 . S
C1345 C1349 1.376 . S
C1346 C1344 1.394 . S
C1346 C1347 1.369 . S
C1346 C1350 1.531 . S
C1347 C1346 1.369 . S
C1347 C1348 1.410 . S
C1347 C1355 1.503 . S
C1348 C1347 1.410 . S
C1348 C1349 1.392 . S
C1348 C1351 1.511 . S
C1349 C1345 1.376 . S
C1349 C1348 1.392 . S
C1349 H1361 0.929 . S
C1350 C1346 1.531 . S
C1350 H1362 0.960 . S
C1350 H1363 0.962 . S
C1350 H1364 0.960 . S
C1351 C1348 1.511 . S
C1351 H1365 0.961 . S
C1351 H1366 0.961 . S
C1351 H1367 0.961 . S
C1352 C1353 1.370 . S
C1352 C1354 1.363 . S
C1352 H1368 0.931 . S
C1353 C1352 1.370 . S
C1353 C1357 1.408 . S
C1354 C1352 1.363 . S
C1354 C1355 1.370 . S
C1354 C1358 1.524 . S
C1355 C1347 1.503 . S
C1355 C1354 1.370 . S
C1355 C1356 1.403 . S
C1356 C1355 1.403 . S
C1356 C1357 1.404 . S
C1356 C1359 1.539 . S
C1357 C1353 1.408 . S
C1357 C1356 1.404 . S
C1357 H1369 0.930 . S
C1358 C1354 1.524 . S
C1358 H1370 0.956 . S
C1358 H1371 0.961 . S
C1358 H1372 0.961 . S
C1359 C1356 1.539 . S
C1359 H1373 0.958 . S
C1359 H1374 0.961 . S
C1359 H1375 0.960 . S
H1360 C1344 0.931 . S
H1361 C1349 0.929 . S
H1362 C1350 0.960 . S
H1363 C1350 0.962 . S
H1364 C1350 0.960 . S
H1365 C1351 0.961 . S
H1366 C1351 0.961 . S
H1367 C1351 0.961 . S
H1368 C1352 0.931 . S
H1369 C1357 0.930 . S
H1370 C1358 0.956 . S
H1371 C1358 0.961 . S
H1372 C1358 0.961 . S
H1373 C1359 0.958 . S
H1374 C1359 0.961 . S
H1375 C1359 0.960 . S
C1376 C1377 1.391 . S
C1376 C1378 1.394 . S
C1376 H1392 0.931 . S
C1377 C1376 1.391 . S
C1377 C1381 1.376 . S
C1378 C1376 1.394 . S
C1378 C1379 1.369 . S
C1378 C1382 1.531 . S
C1379 C1378 1.369 . S
C1379 C1380 1.410 . S
C1379 C1387 1.503 . S
C1380 C1379 1.410 . S
C1380 C1381 1.392 . S
C1380 C1383 1.511 1_554 S
C1381 C1377 1.376 . S
C1381 C1380 1.392 . S
C1381 H1393 0.929 1_554 S
C1382 C1378 1.531 . S
C1382 H1394 0.960 . S
C1382 H1395 0.962 . S
C1382 H1396 0.960 . S
C1383 C1380 1.511 1_556 S
C1383 H1397 0.961 . S
C1383 H1398 0.961 . S
C1383 H1399 0.961 . S
C1384 C1385 1.370 . S
C1384 C1386 1.363 . S
C1384 H1400 0.931 . S
C1385 C1384 1.370 . S
C1385 C1389 1.408 . S
C1386 C1384 1.363 . S
C1386 C1387 1.370 . S
C1386 C1390 1.524 . S
C1387 C1379 1.503 . S
C1387 C1386 1.370 . S
C1387 C1388 1.403 . S
C1388 C1387 1.403 . S
C1388 C1389 1.404 . S
C1388 C1391 1.539 . S
C1389 C1385 1.408 . S
C1389 C1388 1.404 . S
C1389 H1401 0.930 . S
C1390 C1386 1.524 . S
C1390 H1402 0.956 . S
C1390 H1403 0.961 . S
C1390 H1404 0.961 . S
C1391 C1388 1.539 . S
C1391 H1405 0.958 . S
C1391 H1406 0.961 . S
C1391 H1407 0.960 . S
H1392 C1376 0.931 . S
H1393 C1381 0.929 1_556 S
H1394 C1382 0.960 . S
H1395 C1382 0.962 . S
H1396 C1382 0.960 . S
H1397 C1383 0.961 . S
H1398 C1383 0.961 . S
H1399 C1383 0.961 . S
H1400 C1384 0.931 . S
H1401 C1389 0.930 . S
H1402 C1390 0.956 . S
H1403 C1390 0.961 . S
H1404 C1390 0.961 . S
H1405 C1391 0.958 . S
H1406 C1391 0.961 . S
H1407 C1391 0.960 . S
C1408 C1409 1.391 . S
C1408 C1410 1.394 . S
C1408 H1424 0.931 . S
C1409 C1408 1.391 . S
C1409 C1413 1.376 . S
C1410 C1408 1.394 . S
C1410 C1411 1.369 . S
C1410 C1414 1.531 . S
C1411 C1410 1.369 . S
C1411 C1412 1.410 . S
C1411 C1419 1.503 . S
C1412 C1411 1.410 . S
C1412 C1413 1.392 . S
C1412 C1415 1.511 . S
C1413 C1409 1.376 . S
C1413 C1412 1.392 . S
C1413 H1425 0.929 . S
C1414 C1410 1.531 . S
C1414 H1426 0.960 . S
C1414 H1427 0.962 . S
C1414 H1428 0.960 . S
C1415 C1412 1.511 . S
C1415 H1429 0.961 . S
C1415 H1430 0.961 . S
C1415 H1431 0.961 . S
C1416 C1417 1.370 . S
C1416 C1418 1.363 . S
C1416 H1432 0.931 . S
C1417 C1416 1.370 . S
C1417 C1421 1.408 . S
C1418 C1416 1.363 . S
C1418 C1419 1.370 . S
C1418 C1422 1.524 . S
C1419 C1411 1.503 . S
C1419 C1418 1.370 . S
C1419 C1420 1.403 . S
C1420 C1419 1.403 . S
C1420 C1421 1.404 . S
C1420 C1423 1.539 . S
C1421 C1417 1.408 . S
C1421 C1420 1.404 . S
C1421 H1433 0.930 . S
C1422 C1418 1.524 . S
C1422 H1434 0.956 . S
C1422 H1435 0.961 . S
C1422 H1436 0.961 . S
C1423 C1420 1.539 . S
C1423 H1437 0.958 . S
C1423 H1438 0.961 . S
C1423 H1439 0.960 . S
H1424 C1408 0.931 . S
H1425 C1413 0.929 . S
H1426 C1414 0.960 . S
H1427 C1414 0.962 . S
H1428 C1414 0.960 . S
H1429 C1415 0.961 . S
H1430 C1415 0.961 . S
H1431 C1415 0.961 . S
H1432 C1416 0.931 . S
H1433 C1421 0.930 . S
H1434 C1422 0.956 . S
H1435 C1422 0.961 . S
H1436 C1422 0.961 . S
H1437 C1423 0.958 . S
H1438 C1423 0.961 . S
H1439 C1423 0.960 . S
C1440 C1441 1.391 . S
C1440 C1442 1.394 . S
C1440 H1456 0.931 . S
C1441 C1440 1.391 . S
C1441 C1445 1.376 . S
C1442 C1440 1.394 . S
C1442 C1443 1.369 . S
C1442 C1446 1.531 . S
C1443 C1442 1.369 . S
C1443 C1444 1.410 . S
C1443 C1451 1.503 . S
C1444 C1443 1.410 . S
C1444 C1445 1.392 . S
C1444 C1447 1.511 . S
C1445 C1441 1.376 . S
C1445 C1444 1.392 . S
C1445 H1457 0.929 . S
C1446 C1442 1.531 . S
C1446 H1458 0.960 . S
C1446 H1459 0.962 . S
C1446 H1460 0.960 . S
C1447 C1444 1.511 . S
C1447 H1461 0.961 . S
C1447 H1462 0.961 . S
C1447 H1463 0.961 . S
C1448 C1449 1.370 . S
C1448 C1450 1.363 . S
C1448 H1464 0.931 . S
C1449 C1448 1.370 . S
C1449 C1453 1.408 . S
C1450 C1448 1.363 . S
C1450 C1451 1.370 . S
C1450 C1454 1.524 . S
C1451 C1443 1.503 . S
C1451 C1450 1.370 . S
C1451 C1452 1.403 . S
C1452 C1451 1.403 . S
C1452 C1453 1.404 . S
C1452 C1455 1.539 . S
C1453 C1449 1.408 . S
C1453 C1452 1.404 . S
C1453 H1465 0.930 . S
C1454 C1450 1.524 . S
C1454 H1466 0.956 . S
C1454 H1467 0.961 . S
C1454 H1468 0.961 . S
C1455 C1452 1.539 . S
C1455 H1469 0.958 . S
C1455 H1470 0.961 . S
C1455 H1471 0.960 . S
H1456 C1440 0.931 . S
H1457 C1445 0.929 . S
H1458 C1446 0.960 . S
H1459 C1446 0.962 . S
H1460 C1446 0.960 . S
H1461 C1447 0.961 . S
H1462 C1447 0.961 . S
H1463 C1447 0.961 . S
H1464 C1448 0.931 . S
H1465 C1453 0.930 . S
H1466 C1454 0.956 . S
H1467 C1454 0.961 . S
H1468 C1454 0.961 . S
H1469 C1455 0.958 . S
H1470 C1455 0.961 . S
H1471 C1455 0.960 . S
C1472 C1473 1.391 . S
C1472 C1474 1.394 . S
C1472 H1488 0.931 . S
C1473 C1472 1.391 . S
C1473 C1477 1.376 . S
C1474 C1472 1.394 . S
C1474 C1475 1.369 . S
C1474 C1478 1.531 . S
C1475 C1474 1.369 . S
C1475 C1476 1.410 . S
C1475 C1483 1.503 . S
C1476 C1475 1.410 . S
C1476 C1477 1.392 . S
C1476 C1479 1.511 . S
C1477 C1473 1.376 . S
C1477 C1476 1.392 . S
C1477 H1489 0.929 . S
C1478 C1474 1.531 . S
C1478 H1490 0.960 . S
C1478 H1491 0.962 . S
C1478 H1492 0.960 . S
C1479 C1476 1.511 . S
C1479 H1493 0.961 . S
C1479 H1494 0.961 . S
C1479 H1495 0.961 . S
C1480 C1481 1.370 . S
C1480 C1482 1.363 . S
C1480 H1496 0.931 . S
C1481 C1480 1.370 . S
C1481 C1485 1.408 . S
C1482 C1480 1.363 . S
C1482 C1483 1.370 . S
C1482 C1486 1.524 . S
C1483 C1475 1.503 . S
C1483 C1482 1.370 . S
C1483 C1484 1.403 . S
C1484 C1483 1.403 . S
C1484 C1485 1.404 . S
C1484 C1487 1.539 . S
C1485 C1481 1.408 . S
C1485 C1484 1.404 . S
C1485 H1497 0.930 . S
C1486 C1482 1.524 . S
C1486 H1498 0.956 . S
C1486 H1499 0.961 . S
C1486 H1500 0.961 . S
C1487 C1484 1.539 . S
C1487 H1501 0.958 . S
C1487 H1502 0.961 . S
C1487 H1503 0.960 . S
H1488 C1472 0.931 . S
H1489 C1477 0.929 . S
H1490 C1478 0.960 . S
H1491 C1478 0.962 . S
H1492 C1478 0.960 . S
H1493 C1479 0.961 . S
H1494 C1479 0.961 . S
H1495 C1479 0.961 . S
H1496 C1480 0.931 . S
H1497 C1485 0.930 . S
H1498 C1486 0.956 . S
H1499 C1486 0.961 . S
H1500 C1486 0.961 . S
H1501 C1487 0.958 . S
H1502 C1487 0.961 . S
H1503 C1487 0.960 . S
C1504 C1505 1.391 . S
C1504 C1506 1.394 . S
C1504 H1520 0.931 . S
C1505 C1504 1.391 . S
C1505 C1509 1.376 . S
C1506 C1504 1.394 . S
C1506 C1507 1.369 . S
C1506 C1510 1.531 . S
C1507 C1506 1.369 . S
C1507 C1508 1.410 . S
C1507 C1515 1.503 . S
C1508 C1507 1.410 . S
C1508 C1509 1.392 . S
C1508 C1511 1.511 . S
C1509 C1505 1.376 . S
C1509 C1508 1.392 . S
C1509 H1521 0.929 . S
C1510 C1506 1.531 . S
C1510 H1522 0.960 . S
C1510 H1523 0.962 . S
C1510 H1524 0.960 . S
C1511 C1508 1.511 . S
C1511 H1525 0.961 . S
C1511 H1526 0.961 . S
C1511 H1527 0.961 . S
C1512 C1513 1.370 . S
C1512 C1514 1.363 . S
C1512 H1528 0.931 . S
C1513 C1512 1.370 . S
C1513 C1517 1.408 . S
C1514 C1512 1.363 . S
C1514 C1515 1.370 . S
C1514 C1518 1.524 . S
C1515 C1507 1.503 . S
C1515 C1514 1.370 . S
C1515 C1516 1.403 . S
C1516 C1515 1.403 . S
C1516 C1517 1.404 . S
C1516 C1519 1.539 . S
C1517 C1513 1.408 . S
C1517 C1516 1.404 . S
C1517 H1529 0.930 . S
C1518 C1514 1.524 . S
C1518 H1530 0.956 . S
C1518 H1531 0.961 . S
C1518 H1532 0.961 . S
C1519 C1516 1.539 . S
C1519 H1533 0.958 . S
C1519 H1534 0.961 . S
C1519 H1535 0.960 . S
H1520 C1504 0.931 . S
H1521 C1509 0.929 . S
H1522 C1510 0.960 . S
H1523 C1510 0.962 . S
H1524 C1510 0.960 . S
H1525 C1511 0.961 . S
H1526 C1511 0.961 . S
H1527 C1511 0.961 . S
H1528 C1512 0.931 . S
H1529 C1517 0.930 . S
H1530 C1518 0.956 . S
H1531 C1518 0.961 . S
H1532 C1518 0.961 . S
H1533 C1519 0.958 . S
H1534 C1519 0.961 . S
H1535 C1519 0.960 . S
C1536 C1537 1.391 . S
C1536 C1538 1.394 . S
C1536 H1552 0.931 . S
C1537 C1536 1.391 . S
C1537 C1541 1.376 . S
C1538 C1536 1.394 . S
C1538 C1539 1.369 . S
C1538 C1542 1.531 . S
C1539 C1538 1.369 . S
C1539 C1540 1.410 . S
C1539 C1547 1.503 . S
C1540 C1539 1.410 . S
C1540 C1541 1.392 . S
C1540 C1543 1.511 . S
C1541 C1537 1.376 . S
C1541 C1540 1.392 . S
C1541 H1553 0.929 . S
C1542 C1538 1.531 . S
C1542 H1554 0.960 . S
C1542 H1555 0.962 . S
C1542 H1556 0.960 . S
C1543 C1540 1.511 . S
C1543 H1557 0.961 . S
C1543 H1558 0.961 . S
C1543 H1559 0.961 . S
C1544 C1545 1.370 . S
C1544 C1546 1.363 . S
C1544 H1560 0.931 . S
C1545 C1544 1.370 . S
C1545 C1549 1.408 . S
C1546 C1544 1.363 . S
C1546 C1547 1.370 . S
C1546 C1550 1.524 . S
C1547 C1539 1.503 . S
C1547 C1546 1.370 . S
C1547 C1548 1.403 . S
C1548 C1547 1.403 . S
C1548 C1549 1.404 . S
C1548 C1551 1.539 . S
C1549 C1545 1.408 . S
C1549 C1548 1.404 . S
C1549 H1561 0.930 . S
C1550 C1546 1.524 . S
C1550 H1562 0.956 . S
C1550 H1563 0.961 . S
C1550 H1564 0.961 . S
C1551 C1548 1.539 . S
C1551 H1565 0.958 . S
C1551 H1566 0.961 . S
C1551 H1567 0.960 . S
H1552 C1536 0.931 . S
H1553 C1541 0.929 . S
H1554 C1542 0.960 . S
H1555 C1542 0.962 . S
H1556 C1542 0.960 . S
H1557 C1543 0.961 . S
H1558 C1543 0.961 . S
H1559 C1543 0.961 . S
H1560 C1544 0.931 . S
H1561 C1549 0.930 . S
H1562 C1550 0.956 . S
H1563 C1550 0.961 . S
H1564 C1550 0.961 . S
H1565 C1551 0.958 . S
H1566 C1551 0.961 . S
H1567 C1551 0.960 . S
C1568 C1569 1.391 . S
C1568 C1570 1.394 . S
C1568 H1584 0.931 . S
C1569 C1568 1.391 . S
C1569 C1573 1.376 . S
C1570 C1568 1.394 . S
C1570 C1571 1.369 . S
C1570 C1574 1.531 . S
C1571 C1570 1.369 . S
C1571 C1572 1.410 . S
C1571 C1579 1.503 . S
C1572 C1571 1.410 . S
C1572 C1573 1.392 . S
C1572 C1575 1.511 . S
C1573 C1569 1.376 . S
C1573 C1572 1.392 . S
C1573 H1585 0.929 . S
C1574 C1570 1.531 . S
C1574 H1586 0.960 . S
C1574 H1587 0.962 . S
C1574 H1588 0.960 . S
C1575 C1572 1.511 . S
C1575 H1589 0.961 . S
C1575 H1590 0.961 . S
C1575 H1591 0.961 . S
C1576 C1577 1.370 . S
C1576 C1578 1.363 . S
C1576 H1592 0.931 . S
C1577 C1576 1.370 . S
C1577 C1581 1.408 . S
C1578 C1576 1.363 . S
C1578 C1579 1.370 . S
C1578 C1582 1.524 . S
C1579 C1571 1.503 . S
C1579 C1578 1.370 . S
C1579 C1580 1.403 . S
C1580 C1579 1.403 . S
C1580 C1581 1.404 . S
C1580 C1583 1.539 . S
C1581 C1577 1.408 . S
C1581 C1580 1.404 . S
C1581 H1593 0.930 . S
C1582 C1578 1.524 . S
C1582 H1594 0.956 . S
C1582 H1595 0.961 . S
C1582 H1596 0.961 . S
C1583 C1580 1.539 . S
C1583 H1597 0.958 . S
C1583 H1598 0.961 . S
C1583 H1599 0.960 . S
H1584 C1568 0.931 . S
H1585 C1573 0.929 . S
H1586 C1574 0.960 . S
H1587 C1574 0.962 . S
H1588 C1574 0.960 . S
H1589 C1575 0.961 . S
H1590 C1575 0.961 . S
H1591 C1575 0.961 . S
H1592 C1576 0.931 . S
H1593 C1581 0.930 . S
H1594 C1582 0.956 . S
H1595 C1582 0.961 . S
H1596 C1582 0.961 . S
H1597 C1583 0.958 . S
H1598 C1583 0.961 . S
H1599 C1583 0.960 . S
C1600 C1601 1.391 . S
C1600 C1602 1.394 . S
C1600 H1616 0.931 . S
C1601 C1600 1.391 . S
C1601 C1605 1.376 . S
C1602 C1600 1.394 . S
C1602 C1603 1.369 . S
C1602 C1606 1.531 . S
C1603 C1602 1.369 . S
C1603 C1604 1.410 . S
C1603 C1611 1.503 . S
C1604 C1603 1.410 . S
C1604 C1605 1.392 . S
C1604 C1607 1.511 . S
C1605 C1601 1.376 . S
C1605 C1604 1.392 . S
C1605 H1617 0.929 . S
C1606 C1602 1.531 . S
C1606 H1618 0.960 . S
C1606 H1619 0.962 . S
C1606 H1620 0.960 . S
C1607 C1604 1.511 . S
C1607 H1621 0.961 . S
C1607 H1622 0.961 . S
C1607 H1623 0.961 . S
C1608 C1609 1.370 . S
C1608 C1610 1.363 . S
C1608 H1624 0.931 . S
C1609 C1608 1.370 . S
C1609 C1613 1.408 . S
C1610 C1608 1.363 . S
C1610 C1611 1.370 . S
C1610 C1614 1.524 . S
C1611 C1603 1.503 . S
C1611 C1610 1.370 . S
C1611 C1612 1.403 . S
C1612 C1611 1.403 . S
C1612 C1613 1.404 . S
C1612 C1615 1.539 . S
C1613 C1609 1.408 . S
C1613 C1612 1.404 . S
C1613 H1625 0.930 . S
C1614 C1610 1.524 . S
C1614 H1626 0.956 . S
C1614 H1627 0.961 . S
C1614 H1628 0.961 . S
C1615 C1612 1.539 . S
C1615 H1629 0.958 . S
C1615 H1630 0.961 . S
C1615 H1631 0.960 . S
H1616 C1600 0.931 . S
H1617 C1605 0.929 . S
H1618 C1606 0.960 . S
H1619 C1606 0.962 . S
H1620 C1606 0.960 . S
H1621 C1607 0.961 . S
H1622 C1607 0.961 . S
H1623 C1607 0.961 . S
H1624 C1608 0.931 . S
H1625 C1613 0.930 . S
H1626 C1614 0.956 . S
H1627 C1614 0.961 . S
H1628 C1614 0.961 . S
H1629 C1615 0.958 . S
H1630 C1615 0.961 . S
H1631 C1615 0.960 . S
C1632 C1633 1.391 . S
C1632 C1634 1.394 . S
C1632 H1648 0.931 . S
C1633 C1632 1.391 . S
C1633 C1637 1.376 . S
C1634 C1632 1.394 . S
C1634 C1635 1.369 . S
C1634 C1638 1.531 . S
C1635 C1634 1.369 . S
C1635 C1636 1.410 . S
C1635 C1643 1.503 . S
C1636 C1635 1.410 . S
C1636 C1637 1.392 . S
C1636 C1639 1.511 . S
C1637 C1633 1.376 . S
C1637 C1636 1.392 . S
C1637 H1649 0.929 . S
C1638 C1634 1.531 . S
C1638 H1650 0.960 . S
C1638 H1651 0.962 . S
C1638 H1652 0.960 . S
C1639 C1636 1.511 . S
C1639 H1653 0.961 . S
C1639 H1654 0.961 . S
C1639 H1655 0.961 . S
C1640 C1641 1.370 . S
C1640 C1642 1.363 . S
C1640 H1656 0.931 . S
C1641 C1640 1.370 . S
C1641 C1645 1.408 . S
C1642 C1640 1.363 . S
C1642 C1643 1.370 . S
C1642 C1646 1.524 . S
C1643 C1635 1.503 . S
C1643 C1642 1.370 . S
C1643 C1644 1.403 . S
C1644 C1643 1.403 . S
C1644 C1645 1.404 . S
C1644 C1647 1.539 . S
C1645 C1641 1.408 . S
C1645 C1644 1.404 . S
C1645 H1657 0.930 . S
C1646 C1642 1.524 . S
C1646 H1658 0.956 . S
C1646 H1659 0.961 . S
C1646 H1660 0.961 . S
C1647 C1644 1.539 . S
C1647 H1661 0.958 . S
C1647 H1662 0.961 . S
C1647 H1663 0.960 . S
H1648 C1632 0.931 . S
H1649 C1637 0.929 . S
H1650 C1638 0.960 . S
H1651 C1638 0.962 . S
H1652 C1638 0.960 . S
H1653 C1639 0.961 . S
H1654 C1639 0.961 . S
H1655 C1639 0.961 . S
H1656 C1640 0.931 . S
H1657 C1645 0.930 . S
H1658 C1646 0.956 . S
H1659 C1646 0.961 . S
H1660 C1646 0.961 . S
H1661 C1647 0.958 . S
H1662 C1647 0.961 . S
H1663 C1647 0.960 . S
C1664 C1665 1.391 . S
C1664 C1666 1.394 . S
C1664 H1680 0.931 . S
C1665 C1664 1.391 . S
C1665 C1669 1.376 1_545 S
C1666 C1664 1.394 . S
C1666 C1667 1.369 1_545 S
C1666 C1670 1.531 . S
C1667 C1666 1.369 1_565 S
C1667 C1668 1.410 . S
C1667 C1675 1.503 . S
C1668 C1667 1.410 . S
C1668 C1669 1.392 . S
C1668 C1671 1.511 . S
C1669 C1665 1.376 1_565 S
C1669 C1668 1.392 . S
C1669 H1681 0.929 . S
C1670 C1666 1.531 . S
C1670 H1682 0.960 . S
C1670 H1683 0.962 . S
C1670 H1684 0.960 . S
C1671 C1668 1.511 . S
C1671 H1685 0.961 . S
C1671 H1686 0.961 . S
C1671 H1687 0.961 . S
C1672 C1673 1.370 . S
C1672 C1674 1.363 . S
C1672 H1688 0.931 . S
C1673 C1672 1.370 . S
C1673 C1677 1.408 . S
C1674 C1672 1.363 . S
C1674 C1675 1.370 . S
C1674 C1678 1.524 . S
C1675 C1667 1.503 . S
C1675 C1674 1.370 . S
C1675 C1676 1.403 1_565 S
C1676 C1675 1.403 1_545 S
C1676 C1677 1.404 1_545 S
C1676 C1679 1.539 . S
C1677 C1673 1.408 . S
C1677 C1676 1.404 1_565 S
C1677 H1689 0.930 1_565 S
C1678 C1674 1.524 . S
C1678 H1690 0.956 . S
C1678 H1691 0.961 . S
C1678 H1692 0.961 . S
C1679 C1676 1.539 . S
C1679 H1693 0.958 . S
C1679 H1694 0.961 . S
C1679 H1695 0.960 . S
H1680 C1664 0.931 . S
H1681 C1669 0.929 . S
H1682 C1670 0.960 . S
H1683 C1670 0.962 . S
H1684 C1670 0.960 . S
H1685 C1671 0.961 . S
H1686 C1671 0.961 . S
H1687 C1671 0.961 . S
H1688 C1672 0.931 . S
H1689 C1677 0.930 1_545 S
H1690 C1678 0.956 . S
H1691 C1678 0.961 . S
H1692 C1678 0.961 . S
H1693 C1679 0.958 . S
H1694 C1679 0.961 . S
H1695 C1679 0.960 . S
C1696 C1697 1.391 . S
C1696 C1698 1.394 . S
C1696 H1712 0.931 . S
C1697 C1696 1.391 . S
C1697 C1701 1.376 . S
C1698 C1696 1.394 . S
C1698 C1699 1.369 . S
C1698 C1702 1.531 . S
C1699 C1698 1.369 . S
C1699 C1700 1.410 . S
C1699 C1707 1.503 . S
C1700 C1699 1.410 . S
C1700 C1701 1.392 . S
C1700 C1703 1.511 . S
C1701 C1697 1.376 . S
C1701 C1700 1.392 . S
C1701 H1713 0.929 . S
C1702 C1698 1.531 . S
C1702 H1714 0.960 . S
C1702 H1715 0.962 . S
C1702 H1716 0.960 . S
C1703 C1700 1.511 . S
C1703 H1717 0.961 . S
C1703 H1718 0.961 . S
C1703 H1719 0.961 . S
C1704 C1705 1.370 . S
C1704 C1706 1.363 . S
C1704 H1720 0.931 . S
C1705 C1704 1.370 . S
C1705 C1709 1.408 . S
C1706 C1704 1.363 . S
C1706 C1707 1.370 . S
C1706 C1710 1.524 . S
C1707 C1699 1.503 . S
C1707 C1706 1.370 . S
C1707 C1708 1.403 . S
C1708 C1707 1.403 . S
C1708 C1709 1.404 . S
C1708 C1711 1.539 . S
C1709 C1705 1.408 . S
C1709 C1708 1.404 . S
C1709 H1721 0.930 . S
C1710 C1706 1.524 . S
C1710 H1722 0.956 . S
C1710 H1723 0.961 . S
C1710 H1724 0.961 . S
C1711 C1708 1.539 . S
C1711 H1725 0.958 . S
C1711 H1726 0.961 . S
C1711 H1727 0.960 . S
H1712 C1696 0.931 . S
H1713 C1701 0.929 . S
H1714 C1702 0.960 . S
H1715 C1702 0.962 . S
H1716 C1702 0.960 . S
H1717 C1703 0.961 . S
H1718 C1703 0.961 . S
H1719 C1703 0.961 . S
H1720 C1704 0.931 . S
H1721 C1709 0.930 . S
H1722 C1710 0.956 . S
H1723 C1710 0.961 . S
H1724 C1710 0.961 . S
H1725 C1711 0.958 . S
H1726 C1711 0.961 . S
H1727 C1711 0.960 . S
C1728 C1729 1.391 . S
C1728 C1730 1.394 . S
C1728 H1744 0.931 . S
C1729 C1728 1.391 . S
C1729 C1733 1.376 . S
C1730 C1728 1.394 . S
C1730 C1731 1.369 . S
C1730 C1734 1.531 . S
C1731 C1730 1.369 . S
C1731 C1732 1.410 . S
C1731 C1739 1.503 . S
C1732 C1731 1.410 . S
C1732 C1733 1.392 . S
C1732 C1735 1.511 1_545 S
C1733 C1729 1.376 . S
C1733 C1732 1.392 . S
C1733 H1745 0.929 . S
C1734 C1730 1.531 . S
C1734 H1746 0.960 . S
C1734 H1747 0.962 . S
C1734 H1748 0.960 . S
C1735 C1732 1.511 1_565 S
C1735 H1749 0.961 . S
C1735 H1750 0.961 1_565 S
C1735 H1751 0.961 . S
C1736 C1737 1.370 . S
C1736 C1738 1.363 . S
C1736 H1752 0.931 . S
C1737 C1736 1.370 . S
C1737 C1741 1.408 . S
C1738 C1736 1.363 . S
C1738 C1739 1.370 . S
C1738 C1742 1.524 . S
C1739 C1731 1.503 . S
C1739 C1738 1.370 . S
C1739 C1740 1.403 . S
C1740 C1739 1.403 . S
C1740 C1741 1.404 . S
C1740 C1743 1.539 1_545 S
C1741 C1737 1.408 . S
C1741 C1740 1.404 . S
C1741 H1753 0.930 1_545 S
C1742 C1738 1.524 . S
C1742 H1754 0.956 . S
C1742 H1755 0.961 . S
C1742 H1756 0.961 . S
C1743 C1740 1.539 1_565 S
C1743 H1757 0.958 . S
C1743 H1758 0.961 . S
C1743 H1759 0.960 . S
H1744 C1728 0.931 . S
H1745 C1733 0.929 . S
H1746 C1734 0.960 . S
H1747 C1734 0.962 . S
H1748 C1734 0.960 . S
H1749 C1735 0.961 . S
H1750 C1735 0.961 1_545 S
H1751 C1735 0.961 . S
H1752 C1736 0.931 . S
H1753 C1741 0.930 1_565 S
H1754 C1742 0.956 . S
H1755 C1742 0.961 . S
H1756 C1742 0.961 . S
H1757 C1743 0.958 . S
H1758 C1743 0.961 . S
H1759 C1743 0.960 . S
C1760 C1761 1.391 . S
C1760 C1762 1.394 . S
C1760 H1776 0.931 . S
C1761 C1760 1.391 . S
C1761 C1765 1.376 . S
C1762 C1760 1.394 . S
C1762 C1763 1.369 . S
C1762 C1766 1.531 . S
C1763 C1762 1.369 . S
C1763 C1764 1.410 . S
C1763 C1771 1.503 . S
C1764 C1763 1.410 . S
C1764 C1765 1.392 . S
C1764 C1767 1.511 . S
C1765 C1761 1.376 . S
C1765 C1764 1.392 . S
C1765 H1777 0.929 . S
C1766 C1762 1.531 . S
C1766 H1778 0.960 . S
C1766 H1779 0.962 . S
C1766 H1780 0.960 . S
C1767 C1764 1.511 . S
C1767 H1781 0.961 . S
C1767 H1782 0.961 . S
C1767 H1783 0.961 . S
C1768 C1769 1.370 . S
C1768 C1770 1.363 . S
C1768 H1784 0.931 . S
C1769 C1768 1.370 . S
C1769 C1773 1.408 . S
C1770 C1768 1.363 . S
C1770 C1771 1.370 . S
C1770 C1774 1.524 . S
C1771 C1763 1.503 . S
C1771 C1770 1.370 . S
C1771 C1772 1.403 . S
C1772 C1771 1.403 . S
C1772 C1773 1.404 . S
C1772 C1775 1.539 . S
C1773 C1769 1.408 . S
C1773 C1772 1.404 . S
C1773 H1785 0.930 . S
C1774 C1770 1.524 . S
C1774 H1786 0.956 . S
C1774 H1787 0.961 . S
C1774 H1788 0.961 . S
C1775 C1772 1.539 . S
C1775 H1789 0.958 . S
C1775 H1790 0.961 . S
C1775 H1791 0.960 . S
H1776 C1760 0.931 . S
H1777 C1765 0.929 . S
H1778 C1766 0.960 . S
H1779 C1766 0.962 . S
H1780 C1766 0.960 . S
H1781 C1767 0.961 . S
H1782 C1767 0.961 . S
H1783 C1767 0.961 . S
H1784 C1768 0.931 . S
H1785 C1773 0.930 . S
H1786 C1774 0.956 . S
H1787 C1774 0.961 . S
H1788 C1774 0.961 . S
H1789 C1775 0.958 . S
H1790 C1775 0.961 . S
H1791 C1775 0.960 . S
C1792 C1793 1.391 . S
C1792 C1794 1.394 . S
C1792 H1808 0.931 . S
C1793 C1792 1.391 . S
C1793 C1797 1.376 . S
C1794 C1792 1.394 . S
C1794 C1795 1.369 . S
C1794 C1798 1.531 . S
C1795 C1794 1.369 . S
C1795 C1796 1.410 . S
C1795 C1803 1.503 . S
C1796 C1795 1.410 . S
C1796 C1797 1.392 . S
C1796 C1799 1.511 . S
C1797 C1793 1.376 . S
C1797 C1796 1.392 . S
C1797 H1809 0.912 1_556 S
C1798 C1794 1.531 . S
C1798 H1810 0.960 . S
C1798 H1811 0.962 . S
C1798 H1812 0.960 . S
C1799 C1796 1.511 . S
C1799 H1813 0.961 1_556 S
C1799 H1814 0.961 1_556 S
C1799 H1815 0.961 . S
C1800 C1801 1.370 . S
C1800 C1802 1.364 . S
C1800 H1816 0.931 1_556 S
C1801 C1800 1.370 . S
C1801 C1805 1.408 . S
C1802 C1800 1.364 . S
C1802 C1803 1.380 . S
C1802 C1806 1.514 1_556 S
C1803 C1795 1.503 . S
C1803 C1802 1.380 . S
C1803 C1804 1.403 . S
C1804 C1803 1.403 . S
C1804 C1805 1.404 . S
C1804 C1807 1.539 . S
C1805 C1801 1.408 . S
C1805 C1804 1.404 . S
C1805 H1817 0.930 . S
C1806 C1802 1.514 1_554 S
C1806 H1818 0.956 . S
C1806 H1819 0.961 . S
C1806 H1820 0.961 . S
C1807 C1804 1.539 . S
C1807 H1821 0.958 . S
C1807 H1822 0.961 . S
C1807 H1823 0.960 . S
H1808 C1792 0.931 . S
H1809 C1797 0.912 1_554 S
H1810 C1798 0.960 . S
H1811 C1798 0.962 . S
H1812 C1798 0.960 . S
H1813 C1799 0.961 1_554 S
H1814 C1799 0.961 1_554 S
H1815 C1799 0.961 . S
H1816 C1800 0.931 1_554 S
H1817 C1805 0.930 . S
H1818 C1806 0.956 . S
H1819 C1806 0.961 . S
H1820 C1806 0.961 . S
H1821 C1807 0.958 . S
H1822 C1807 0.961 . S
H1823 C1807 0.960 . S
C1824 C1825 1.391 . S
C1824 C1826 1.394 . S
C1824 H1840 0.931 . S
C1825 C1824 1.391 . S
C1825 C1829 1.376 1_554 S
C1826 C1824 1.394 . S
C1826 C1827 1.369 . S
C1826 C1830 1.531 . S
C1827 C1826 1.369 . S
C1827 C1828 1.410 1_554 S
C1827 C1835 1.503 1_554 S
C1828 C1827 1.410 1_556 S
C1828 C1829 1.392 . S
C1828 C1831 1.511 . S
C1829 C1825 1.376 1_556 S
C1829 C1828 1.392 . S
C1829 H1841 0.929 . S
C1830 C1826 1.531 . S
C1830 H1842 0.960 . S
C1830 H1843 0.962 . S
C1830 H1844 0.960 . S
C1831 C1828 1.511 . S
C1831 H1845 0.961 . S
C1831 H1846 0.961 . S
C1831 H1847 0.961 . S
C1832 C1833 1.370 . S
C1832 C1834 1.363 . S
C1832 H1848 0.931 . S
C1833 C1832 1.370 . S
C1833 C1837 1.408 1_556 S
C1834 C1832 1.363 . S
C1834 C1835 1.370 . S
C1834 C1838 1.524 . S
C1835 C1827 1.503 1_556 S
C1835 C1834 1.370 . S
C1835 C1836 1.403 1_556 S
C1836 C1835 1.403 1_554 S
C1836 C1837 1.404 . S
C1836 C1839 1.539 . S
C1837 C1833 1.408 1_554 S
C1837 C1836 1.404 . S
C1837 H1849 0.930 . S
C1838 C1834 1.524 . S
C1838 H1850 0.956 . S
C1838 H1851 0.961 . S
C1838 H1852 0.961 . S
C1839 C1836 1.539 . S
C1839 H1853 0.958 . S
C1839 H1854 0.961 . S
C1839 H1855 0.960 . S
H1840 C1824 0.931 . S
H1841 C1829 0.929 . S
H1842 C1830 0.960 . S
H1843 C1830 0.962 . S
H1844 C1830 0.960 . S
H1845 C1831 0.961 . S
H1846 C1831 0.961 . S
H1847 C1831 0.961 . S
H1848 C1832 0.931 . S
H1849 C1837 0.930 . S
H1850 C1838 0.956 . S
H1851 C1838 0.961 . S
H1852 C1838 0.961 . S
H1853 C1839 0.958 . S
H1854 C1839 0.961 . S
H1855 C1839 0.960 . S
C1856 C1857 1.391 . S
C1856 C1858 1.394 . S
C1856 H1872 0.931 . S
C1857 C1856 1.391 . S
C1857 C1861 1.376 1_554 S
C1858 C1856 1.394 . S
C1858 C1859 1.369 . S
C1858 C1862 1.531 . S
C1859 C1858 1.369 . S
C1859 C1860 1.412 . S
C1859 C1867 1.503 . S
C1860 C1859 1.412 . S
C1860 C1861 1.392 1_554 S
C1860 C1863 1.509 1_554 S
C1861 C1857 1.376 1_556 S
C1861 C1860 1.392 1_556 S
C1861 H1873 0.929 . S
C1862 C1858 1.531 . S
C1862 H1874 0.960 . S
C1862 H1875 0.962 . S
C1862 H1876 0.960 . S
C1863 C1860 1.509 1_556 S
C1863 H1877 0.961 . S
C1863 H1878 0.961 . S
C1863 H1879 0.961 . S
C1864 C1865 1.370 . S
C1864 C1866 1.363 . S
C1864 H1880 0.931 . S
C1865 C1864 1.370 . S
C1865 C1869 1.408 . S
C1866 C1864 1.363 . S
C1866 C1867 1.370 . S
C1866 C1870 1.524 . S
C1867 C1859 1.503 . S
C1867 C1866 1.370 . S
C1867 C1868 1.407 . S
C1868 C1867 1.407 . S
C1868 C1869 1.405 . S
C1868 C1871 1.534 1_554 S
C1869 C1865 1.408 . S
C1869 C1868 1.405 . S
C1869 H1881 0.930 1_554 S
C1870 C1866 1.524 . S
C1870 H1882 0.956 . S
C1870 H1883 0.961 . S
C1870 H1884 0.961 . S
C1871 C1868 1.534 1_556 S
C1871 H1885 0.958 . S
C1871 H1886 0.961 . S
C1871 H1887 0.960 . S
H1872 C1856 0.931 . S
H1873 C1861 0.929 . S
H1874 C1862 0.960 . S
H1875 C1862 0.962 . S
H1876 C1862 0.960 . S
H1877 C1863 0.961 . S
H1878 C1863 0.961 . S
H1879 C1863 0.961 . S
H1880 C1864 0.931 . S
H1881 C1869 0.930 1_556 S
H1882 C1870 0.956 . S
H1883 C1870 0.961 . S
H1884 C1870 0.961 . S
H1885 C1871 0.958 . S
H1886 C1871 0.961 . S
H1887 C1871 0.960 . S
C353 C13 1.565 . S
C361 C231 1.561 . S
C393 C257 1.592 . S
C385 C1 1.615 . S
C425 C189 1.626 . S
C417 C27 1.602 . S
C449 C15 1.372 . S
C457 C212 1.384 . S
C481 C28 1.483 . S
C489 C346 1.458 . S
C513 C55 1.356 . S
C521 C327 1.376 . S
C553 C280 1.627 . S
C545 C40 1.657 . S
C577 C43 1.694 . S
C585 C303 1.664 . S
C617 C208 1.625 . S
C609 C56 1.631 . S
C649 C258 1.397 . S
C641 C83 1.377 . S
C673 C96 1.571 . S
C681 C234 1.544 . S
C705 C71 1.683 . S
C713 C300 1.663 . S
C745 C323 1.567 . S
C737 C99 1.558 . S
C777 C349 1.608 . S
C769 C111 1.636 . S
C801 C113 1.623 . S
C809 C304 1.628 . S
C841 C281 1.388 . S
C833 C125 1.363 . S
C865 C139 1.482 . S
C873 C254 1.467 . S
C897 C153 1.378 . S
C905 C235 1.383 . S
C937 C211 1.615 . S
C929 C127 1.645 . S
C961 C141 1.668 . S
C969 C188 1.661 . S
C1001 C277 1.623 . S
C993 C84 1.638 . S
C1033 C350 1.403 . S
C1025 C154 1.404 . S
C1057 C68 1.583 . S
C1065 C326 1.557 . S
C1089 C166 1.684 . S
C1097 C185 1.661 . S
C1129 C187 1.286 . S
C1121 C0 1.342 . S
C1153 C12 1.486 . S
C1161 C210 1.384 . S
C1193 C232 1.227 . S
C1185 C14 1.195 . S
C1225 C253 1.326 . S
C1217 C26 1.326 . S
C1249 C41 1.404 . S
C1257 C184 1.392 . S
C1281 C42 1.384 . S
C1289 C207 1.390 . S
C1321 C233 1.361 . S
C1313 C29 1.465 . S
C1345 C54 1.349 . S
C1353 C255 1.349 . S
C1377 C69 1.282 . S
C1385 C186 1.268 . S
C1417 C230 1.332 . S
C1409 C70 1.347 . S
C1441 C85 1.412 . S
C1449 C256 1.332 . S
C1473 C82 1.203 . S
C1481 C278 1.189 . S
C1513 C302 1.273 . S
C1505 C110 1.309 . S
C1537 C98 1.472 . S
C1545 C279 1.401 . S
C1569 C124 1.222 . S
C1577 C324 1.214 . S
C1601 C112 1.306 . S
C1609 C345 1.313 . S
C1633 C126 1.416 . S
C1641 C299 1.399 . S
C1673 C276 1.387 . S
C1665 C140 1.379 . S
C1697 C138 1.443 . S
C1705 C325 1.352 . S
C1737 C347 1.337 . S
C1729 C152 1.338 . S
C1769 C301 1.265 . S
C1761 C97 1.251 . S
C1801 C322 1.332 . S
C1793 C167 1.348 . S
C1833 C348 1.354 . S
C1825 C57 1.390 . S
C1857 C155 1.190 . S
C1865 C209 1.178 . S
