# Generated by pormake.
# Topology gar, (4,6)-cn, num edge types: 1
# Building blocks:
#     Node 0, Type 0, BuildingBlock: GALJAG_clean_sbu_0, # of connection points: 4
#     Node 1, Type 0, BuildingBlock: GALJAG_clean_sbu_0, # of connection points: 4
#     Node 2, Type 0, BuildingBlock: GALJAG_clean_sbu_0, # of connection points: 4
#     Node 3, Type 0, BuildingBlock: GALJAG_clean_sbu_0, # of connection points: 4
#     Node 4, Type 0, BuildingBlock: GALJAG_clean_sbu_0, # of connection points: 4
#     Node 5, Type 0, BuildingBlock: GALJAG_clean_sbu_0, # of connection points: 4
#     Node 6, Type 0, BuildingBlock: GALJAG_clean_sbu_0, # of connection points: 4
#     Node 7, Type 0, BuildingBlock: GALJAG_clean_sbu_0, # of connection points: 4
#     Node 8, Type 0, BuildingBlock: GALJAG_clean_sbu_0, # of connection points: 4
#     Node 9, Type 0, BuildingBlock: GALJAG_clean_sbu_0, # of connection points: 4
#     Node 10, Type 0, BuildingBlock: GALJAG_clean_sbu_0, # of connection points: 4
#     Node 11, Type 0, BuildingBlock: GALJAG_clean_sbu_0, # of connection points: 4
#     Node 12, Type 0, BuildingBlock: GALJAG_clean_sbu_0, # of connection points: 4
#     Node 13, Type 0, BuildingBlock: GALJAG_clean_sbu_0, # of connection points: 4
#     Node 14, Type 0, BuildingBlock: GALJAG_clean_sbu_0, # of connection points: 4
#     Node 15, Type 0, BuildingBlock: GALJAG_clean_sbu_0, # of connection points: 4
#     Node 16, Type 0, BuildingBlock: GALJAG_clean_sbu_0, # of connection points: 4
#     Node 17, Type 0, BuildingBlock: GALJAG_clean_sbu_0, # of connection points: 4
#     Node 18, Type 0, BuildingBlock: GALJAG_clean_sbu_0, # of connection points: 4
#     Node 19, Type 0, BuildingBlock: GALJAG_clean_sbu_0, # of connection points: 4
#     Node 20, Type 0, BuildingBlock: GALJAG_clean_sbu_0, # of connection points: 4
#     Node 21, Type 0, BuildingBlock: GALJAG_clean_sbu_0, # of connection points: 4
#     Node 22, Type 0, BuildingBlock: GALJAG_clean_sbu_0, # of connection points: 4
#     Node 23, Type 0, BuildingBlock: GALJAG_clean_sbu_0, # of connection points: 4
#     Node 24, Type 1, BuildingBlock: KUMBUR_clean_sbu_0, # of connection points: 6
#     Node 25, Type 1, BuildingBlock: KUMBUR_clean_sbu_0, # of connection points: 6
#     Node 26, Type 1, BuildingBlock: KUMBUR_clean_sbu_0, # of connection points: 6
#     Node 27, Type 1, BuildingBlock: KUMBUR_clean_sbu_0, # of connection points: 6
#     Node 28, Type 1, BuildingBlock: KUMBUR_clean_sbu_0, # of connection points: 6
#     Node 29, Type 1, BuildingBlock: KUMBUR_clean_sbu_0, # of connection points: 6
#     Node 30, Type 1, BuildingBlock: KUMBUR_clean_sbu_0, # of connection points: 6
#     Node 31, Type 1, BuildingBlock: KUMBUR_clean_sbu_0, # of connection points: 6
#     Node 32, Type 1, BuildingBlock: KUMBUR_clean_sbu_0, # of connection points: 6
#     Node 33, Type 1, BuildingBlock: KUMBUR_clean_sbu_0, # of connection points: 6
#     Node 34, Type 1, BuildingBlock: KUMBUR_clean_sbu_0, # of connection points: 6
#     Node 35, Type 1, BuildingBlock: KUMBUR_clean_sbu_0, # of connection points: 6
#     Node 36, Type 1, BuildingBlock: KUMBUR_clean_sbu_0, # of connection points: 6
#     Node 37, Type 1, BuildingBlock: KUMBUR_clean_sbu_0, # of connection points: 6
#     Node 38, Type 1, BuildingBlock: KUMBUR_clean_sbu_0, # of connection points: 6
#     Node 39, Type 1, BuildingBlock: KUMBUR_clean_sbu_0, # of connection points: 6
#     Edge 40, Type (0, 1), BuildingBlock: KIFKEQ_clean_linker_1, # of connection points: 2
#     Edge 41, Type (0, 1), BuildingBlock: KIFKEQ_clean_linker_1, # of connection points: 2
#     Edge 42, Type (0, 1), BuildingBlock: KIFKEQ_clean_linker_1, # of connection points: 2
#     Edge 43, Type (0, 1), BuildingBlock: KIFKEQ_clean_linker_1, # of connection points: 2
#     Edge 44, Type (0, 1), BuildingBlock: KIFKEQ_clean_linker_1, # of connection points: 2
#     Edge 45, Type (0, 1), BuildingBlock: KIFKEQ_clean_linker_1, # of connection points: 2
#     Edge 46, Type (0, 1), BuildingBlock: KIFKEQ_clean_linker_1, # of connection points: 2
#     Edge 47, Type (0, 1), BuildingBlock: KIFKEQ_clean_linker_1, # of connection points: 2
#     Edge 48, Type (0, 1), BuildingBlock: KIFKEQ_clean_linker_1, # of connection points: 2
#     Edge 49, Type (0, 1), BuildingBlock: KIFKEQ_clean_linker_1, # of connection points: 2
#     Edge 50, Type (0, 1), BuildingBlock: KIFKEQ_clean_linker_1, # of connection points: 2
#     Edge 51, Type (0, 1), BuildingBlock: KIFKEQ_clean_linker_1, # of connection points: 2
#     Edge 52, Type (0, 1), BuildingBlock: KIFKEQ_clean_linker_1, # of connection points: 2
#     Edge 53, Type (0, 1), BuildingBlock: KIFKEQ_clean_linker_1, # of connection points: 2
#     Edge 54, Type (0, 1), BuildingBlock: KIFKEQ_clean_linker_1, # of connection points: 2
#     Edge 55, Type (0, 1), BuildingBlock: KIFKEQ_clean_linker_1, # of connection points: 2
#     Edge 56, Type (0, 1), BuildingBlock: KIFKEQ_clean_linker_1, # of connection points: 2
#     Edge 57, Type (0, 1), BuildingBlock: KIFKEQ_clean_linker_1, # of connection points: 2
#     Edge 58, Type (0, 1), BuildingBlock: KIFKEQ_clean_linker_1, # of connection points: 2
#     Edge 59, Type (0, 1), BuildingBlock: KIFKEQ_clean_linker_1, # of connection points: 2
#     Edge 60, Type (0, 1), BuildingBlock: KIFKEQ_clean_linker_1, # of connection points: 2
#     Edge 61, Type (0, 1), BuildingBlock: KIFKEQ_clean_linker_1, # of connection points: 2
#     Edge 62, Type (0, 1), BuildingBlock: KIFKEQ_clean_linker_1, # of connection points: 2
#     Edge 63, Type (0, 1), BuildingBlock: KIFKEQ_clean_linker_1, # of connection points: 2
#     Edge 64, Type (0, 1), BuildingBlock: KIFKEQ_clean_linker_1, # of connection points: 2
#     Edge 65, Type (0, 1), BuildingBlock: KIFKEQ_clean_linker_1, # of connection points: 2
#     Edge 66, Type (0, 1), BuildingBlock: KIFKEQ_clean_linker_1, # of connection points: 2
#     Edge 67, Type (0, 1), BuildingBlock: KIFKEQ_clean_linker_1, # of connection points: 2
#     Edge 68, Type (0, 1), BuildingBlock: KIFKEQ_clean_linker_1, # of connection points: 2
#     Edge 69, Type (0, 1), BuildingBlock: KIFKEQ_clean_linker_1, # of connection points: 2
#     Edge 70, Type (0, 1), BuildingBlock: KIFKEQ_clean_linker_1, # of connection points: 2
#     Edge 71, Type (0, 1), BuildingBlock: KIFKEQ_clean_linker_1, # of connection points: 2
#     Edge 72, Type (0, 1), BuildingBlock: KIFKEQ_clean_linker_1, # of connection points: 2
#     Edge 73, Type (0, 1), BuildingBlock: KIFKEQ_clean_linker_1, # of connection points: 2
#     Edge 74, Type (0, 1), BuildingBlock: KIFKEQ_clean_linker_1, # of connection points: 2
#     Edge 75, Type (0, 1), BuildingBlock: KIFKEQ_clean_linker_1, # of connection points: 2
#     Edge 76, Type (0, 1), BuildingBlock: KIFKEQ_clean_linker_1, # of connection points: 2
#     Edge 77, Type (0, 1), BuildingBlock: KIFKEQ_clean_linker_1, # of connection points: 2
#     Edge 78, Type (0, 1), BuildingBlock: KIFKEQ_clean_linker_1, # of connection points: 2
#     Edge 79, Type (0, 1), BuildingBlock: KIFKEQ_clean_linker_1, # of connection points: 2
#     Edge 80, Type (0, 1), BuildingBlock: KIFKEQ_clean_linker_1, # of connection points: 2
#     Edge 81, Type (0, 1), BuildingBlock: KIFKEQ_clean_linker_1, # of connection points: 2
#     Edge 82, Type (0, 1), BuildingBlock: KIFKEQ_clean_linker_1, # of connection points: 2
#     Edge 83, Type (0, 1), BuildingBlock: KIFKEQ_clean_linker_1, # of connection points: 2
#     Edge 84, Type (0, 1), BuildingBlock: KIFKEQ_clean_linker_1, # of connection points: 2
#     Edge 85, Type (0, 1), BuildingBlock: KIFKEQ_clean_linker_1, # of connection points: 2
#     Edge 86, Type (0, 1), BuildingBlock: KIFKEQ_clean_linker_1, # of connection points: 2
#     Edge 87, Type (0, 1), BuildingBlock: KIFKEQ_clean_linker_1, # of connection points: 2
#     Edge 88, Type (0, 1), BuildingBlock: KIFKEQ_clean_linker_1, # of connection points: 2
#     Edge 89, Type (0, 1), BuildingBlock: KIFKEQ_clean_linker_1, # of connection points: 2
#     Edge 90, Type (0, 1), BuildingBlock: KIFKEQ_clean_linker_1, # of connection points: 2
#     Edge 91, Type (0, 1), BuildingBlock: KIFKEQ_clean_linker_1, # of connection points: 2
#     Edge 92, Type (0, 1), BuildingBlock: KIFKEQ_clean_linker_1, # of connection points: 2
#     Edge 93, Type (0, 1), BuildingBlock: KIFKEQ_clean_linker_1, # of connection points: 2
#     Edge 94, Type (0, 1), BuildingBlock: KIFKEQ_clean_linker_1, # of connection points: 2
#     Edge 95, Type (0, 1), BuildingBlock: KIFKEQ_clean_linker_1, # of connection points: 2
#     Edge 96, Type (0, 1), BuildingBlock: KIFKEQ_clean_linker_1, # of connection points: 2
#     Edge 97, Type (0, 1), BuildingBlock: KIFKEQ_clean_linker_1, # of connection points: 2
#     Edge 98, Type (0, 1), BuildingBlock: KIFKEQ_clean_linker_1, # of connection points: 2
#     Edge 99, Type (0, 1), BuildingBlock: KIFKEQ_clean_linker_1, # of connection points: 2
#     Edge 100, Type (0, 1), BuildingBlock: KIFKEQ_clean_linker_1, # of connection points: 2
#     Edge 101, Type (0, 1), BuildingBlock: KIFKEQ_clean_linker_1, # of connection points: 2
#     Edge 102, Type (0, 1), BuildingBlock: KIFKEQ_clean_linker_1, # of connection points: 2
#     Edge 103, Type (0, 1), BuildingBlock: KIFKEQ_clean_linker_1, # of connection points: 2
#     Edge 104, Type (0, 1), BuildingBlock: KIFKEQ_clean_linker_1, # of connection points: 2
#     Edge 105, Type (0, 1), BuildingBlock: KIFKEQ_clean_linker_1, # of connection points: 2
#     Edge 106, Type (0, 1), BuildingBlock: KIFKEQ_clean_linker_1, # of connection points: 2
#     Edge 107, Type (0, 1), BuildingBlock: KIFKEQ_clean_linker_1, # of connection points: 2
#     Edge 108, Type (0, 1), BuildingBlock: KIFKEQ_clean_linker_1, # of connection points: 2
#     Edge 109, Type (0, 1), BuildingBlock: KIFKEQ_clean_linker_1, # of connection points: 2
#     Edge 110, Type (0, 1), BuildingBlock: KIFKEQ_clean_linker_1, # of connection points: 2
#     Edge 111, Type (0, 1), BuildingBlock: KIFKEQ_clean_linker_1, # of connection points: 2
#     Edge 112, Type (0, 1), BuildingBlock: KIFKEQ_clean_linker_1, # of connection points: 2
#     Edge 113, Type (0, 1), BuildingBlock: KIFKEQ_clean_linker_1, # of connection points: 2
#     Edge 114, Type (0, 1), BuildingBlock: KIFKEQ_clean_linker_1, # of connection points: 2
#     Edge 115, Type (0, 1), BuildingBlock: KIFKEQ_clean_linker_1, # of connection points: 2
#     Edge 116, Type (0, 1), BuildingBlock: KIFKEQ_clean_linker_1, # of connection points: 2
#     Edge 117, Type (0, 1), BuildingBlock: KIFKEQ_clean_linker_1, # of connection points: 2
#     Edge 118, Type (0, 1), BuildingBlock: KIFKEQ_clean_linker_1, # of connection points: 2
#     Edge 119, Type (0, 1), BuildingBlock: KIFKEQ_clean_linker_1, # of connection points: 2
#     Edge 120, Type (0, 1), BuildingBlock: KIFKEQ_clean_linker_1, # of connection points: 2
#     Edge 121, Type (0, 1), BuildingBlock: KIFKEQ_clean_linker_1, # of connection points: 2
#     Edge 122, Type (0, 1), BuildingBlock: KIFKEQ_clean_linker_1, # of connection points: 2
#     Edge 123, Type (0, 1), BuildingBlock: KIFKEQ_clean_linker_1, # of connection points: 2
#     Edge 124, Type (0, 1), BuildingBlock: KIFKEQ_clean_linker_1, # of connection points: 2
#     Edge 125, Type (0, 1), BuildingBlock: KIFKEQ_clean_linker_1, # of connection points: 2
#     Edge 126, Type (0, 1), BuildingBlock: KIFKEQ_clean_linker_1, # of connection points: 2
#     Edge 127, Type (0, 1), BuildingBlock: KIFKEQ_clean_linker_1, # of connection points: 2
#     Edge 128, Type (0, 1), BuildingBlock: KIFKEQ_clean_linker_1, # of connection points: 2
#     Edge 129, Type (0, 1), BuildingBlock: KIFKEQ_clean_linker_1, # of connection points: 2
#     Edge 130, Type (0, 1), BuildingBlock: KIFKEQ_clean_linker_1, # of connection points: 2
#     Edge 131, Type (0, 1), BuildingBlock: KIFKEQ_clean_linker_1, # of connection points: 2
#     Edge 132, Type (0, 1), BuildingBlock: KIFKEQ_clean_linker_1, # of connection points: 2
#     Edge 133, Type (0, 1), BuildingBlock: KIFKEQ_clean_linker_1, # of connection points: 2
#     Edge 134, Type (0, 1), BuildingBlock: KIFKEQ_clean_linker_1, # of connection points: 2
#     Edge 135, Type (0, 1), BuildingBlock: KIFKEQ_clean_linker_1, # of connection points: 2
# Relax obj value: 0.136
# Max RMSD: 0.323
# Mean RMSD: 0.168
data_MOF--net-gar--node1-GALJAG_clean_sbu_0--node2-KUMBUR_clean_sbu_0--edge1-KIFKEQ_clean_linker_1
_symmetry_space_group_name_H-M    P1
_symmetry_Int_Tables_number       1
_symmetry_cell_setting            triclinic
loop_
_symmetry_equiv_pos_as_xyz
'x, y, z'
_cell_length_a     61.665793
_cell_length_b     56.395536
_cell_length_c     56.484008
_cell_angle_alpha  100.08302
_cell_angle_beta   93.493187
_cell_angle_gamma 101.16194
loop_
_atom_site_label
_atom_site_type_symbol
_atom_site_fract_x
_atom_site_fract_y
_atom_site_fract_z
_atom_type_partial_charge
In0 In 0.11148 0.33201 0.39916 0.0
O1 O 0.12806 0.32418 0.36443 0.0
O2 O 0.14845 0.33248 0.39764 0.0
C3 C 0.07101 0.3244 0.3752 0.0
C4 C 0.10428 0.30129 0.43108 0.0
C5 C 0.11904 0.38127 0.4137 0.0
O6 O 0.08683 0.31633 0.36567 0.0
O7 O 0.07539 0.33491 0.39709 0.0
O8 O 0.1275 0.36774 0.42553 0.0
O9 O 0.10761 0.37007 0.39437 0.0
C10 C 0.14733 0.32758 0.3749 0.0
O11 O 0.10687 0.32431 0.43698 0.0
O12 O 0.10561 0.29355 0.40896 0.0
In13 In 0.03588 0.79558 0.70545 0.0
O14 O 0.05866 0.81043 0.67899 0.0
O15 O 0.03411 0.83049 0.6904 0.0
C16 C 0.03604 0.75185 0.67731 0.0
C17 C 0.06446 0.80138 0.74536 0.0
C18 C 0.99387 0.79481 0.71646 0.0
O19 O 0.02668 0.76769 0.67014 0.0
O20 O 0.0453 0.75809 0.69862 0.0
O21 O 0.99994 0.77659 0.70458 0.0
O22 O 1.0091 0.81381 0.72304 0.0
C23 C 0.04991 0.8286 0.67744 0.0
O24 O 0.04573 0.78699 0.74221 0.0
O25 O 0.06818 0.81394 0.72911 0.0
In26 In 0.61444 0.83142 0.89328 0.0
O27 O 0.63314 0.82016 0.86076 0.0
O28 O 0.65205 0.8398 0.89334 0.0
C29 C 0.57437 0.8249 0.8684 0.0
C30 C 0.60797 0.7999 0.92461 0.0
C31 C 0.62031 0.88017 0.90953 0.0
O32 O 0.59096 0.81942 0.85834 0.0
O33 O 0.57784 0.83234 0.89096 0.0
O34 O 0.62744 0.86602 0.92167 0.0
O35 O 0.61093 0.86986 0.88885 0.0
C36 C 0.65209 0.83022 0.87147 0.0
O37 O 0.60944 0.82273 0.93054 0.0
O38 O 0.61006 0.79257 0.90259 0.0
In39 In 0.52699 0.29068 0.2049 0.0
O40 O 0.5146 0.26055 0.1715 0.0
O41 O 0.54465 0.25986 0.19161 0.0
C42 C 0.53248 0.32661 0.1785 0.0
C43 C 0.48814 0.28685 0.22479 0.0
C44 C 0.56024 0.29528 0.23972 0.0
O45 O 0.52363 0.30449 0.16973 0.0
O46 O 0.5382 0.33094 0.20095 0.0
O47 O 0.54067 0.28415 0.24106 0.0
O48 O 0.56282 0.30492 0.22125 0.0
C49 C 0.53062 0.24995 0.17377 0.0
O50 O 0.49599 0.26847 0.21646 0.0
O51 O 0.49987 0.30734 0.2231 0.0
In52 In 0.10192 0.82099 0.12683 0.0
O53 O 0.1055 0.78871 0.09563 0.0
O54 O 0.08586 0.78005 0.12345 0.0
C55 C 0.10086 0.86198 0.10516 0.0
C56 C 0.06705 0.82138 0.15459 0.0
C57 C 0.14251 0.82288 0.15163 0.0
O58 O 0.09256 0.84011 0.09465 0.0
O59 O 0.11044 0.86305 0.12581 0.0
O60 O 0.12617 0.82908 0.16161 0.0
O61 O 0.13893 0.81688 0.12888 0.0
C62 C 0.0938 0.77194 0.10439 0.0
O63 O 0.08703 0.825 0.16332 0.0
O64 O 0.06457 0.81793 0.13178 0.0
In65 In 0.53006 0.7797 0.43489 0.0
O66 O 0.54519 0.77727 0.39853 0.0
O67 O 0.56737 0.78211 0.42992 0.0
C68 C 0.4893 0.77719 0.41 0.0
C69 C 0.53118 0.73874 0.45663 0.0
C70 C 0.53825 0.82866 0.45772 0.0
O71 O 0.50506 0.76913 0.40043 0.0
O72 O 0.49352 0.78537 0.43246 0.0
O73 O 0.52724 0.81167 0.46681 0.0
O74 O 0.5454 0.82081 0.43805 0.0
C75 C 0.56505 0.77988 0.40721 0.0
O76 O 0.53936 0.76063 0.46715 0.0
O77 O 0.52163 0.73764 0.43596 0.0
In78 In 0.6028 0.32543 0.62893 0.0
O79 O 0.60457 0.29313 0.59701 0.0
O80 O 0.58995 0.28433 0.62811 0.0
C81 C 0.60131 0.36574 0.6063 0.0
C82 C 0.56727 0.32556 0.6558 0.0
C83 C 0.64357 0.32672 0.6531 0.0
O84 O 0.59236 0.34382 0.59654 0.0
O85 O 0.61172 0.36712 0.62657 0.0
O86 O 0.6276 0.33349 0.66343 0.0
O87 O 0.6395 0.32045 0.63042 0.0
C88 C 0.59554 0.27627 0.60763 0.0
O89 O 0.587 0.33532 0.66442 0.0
O90 O 0.56537 0.31618 0.63358 0.0
In91 In 0.02811 0.27463 0.93305 0.0
O92 O 0.03701 0.25581 0.96565 0.0
O93 O 0.02124 0.23249 0.93363 0.0
C94 C 0.03636 0.32403 0.95487 0.0
C95 C 0.06363 0.27443 0.90626 0.0
C96 C 0.98701 0.27059 0.90803 0.0
O97 O 0.02552 0.30737 0.96448 0.0
O98 O 0.04308 0.31569 0.93513 0.0
O99 O 1.00408 0.26668 0.89807 0.0
O100 O 0.99024 0.27564 0.93085 0.0
C101 C 0.02998 0.23381 0.95473 0.0
O102 O 0.04382 0.27091 0.89703 0.0
O103 O 0.0656 0.27763 0.92905 0.0
In104 In 0.44023 0.05569 0.29979 0.0
O105 O 0.47654 0.05418 0.29554 0.0
O106 O 0.45593 0.05407 0.2641 0.0
C107 C 0.45399 0.0683 0.34738 0.0
C108 C 0.41812 0.08854 0.28496 0.0
C109 C 0.41651 1.00912 0.29389 0.0
O110 O 0.46235 0.08035 0.33215 0.0
O111 O 0.43789 0.05076 0.33879 0.0
O112 O 0.40795 0.02767 0.2998 0.0
O113 O 0.43692 1.01411 0.29113 0.0
C114 C 0.47498 0.05351 0.27312 0.0
O115 O 0.41483 0.0663 0.27467 0.0
O116 O 0.43228 0.09426 0.30317 0.0
In117 In 0.30395 0.19508 0.52253 0.0
O118 O 0.31434 0.22919 0.5533 0.0
O119 O 0.29285 0.19752 0.56042 0.0
C120 C 0.30835 0.2162 0.48246 0.0
C121 C 0.33795 0.17132 0.52836 0.0
C122 C 0.26137 0.16948 0.51528 0.0
O123 O 0.30876 0.22868 0.50338 0.0
O124 O 0.30618 0.19347 0.48191 0.0
O125 O 0.27783 0.15921 0.5139 0.0
O126 O 0.26633 0.19273 0.51996 0.0
C127 C 0.30324 0.21931 0.56844 0.0
O128 O 0.31939 0.16082 0.51706 0.0
O129 O 0.33966 0.19398 0.53639 0.0
In130 In 0.188 0.02168 0.77928 0.0
O131 O 0.15497 1.01693 0.75073 0.0
O132 O 0.18519 0.02333 0.73654 0.0
C133 C 0.16577 0.02461 0.82382 0.0
C134 C 0.21078 0.97956 0.77803 0.0
C135 C 0.2132 0.07108 0.78549 0.0
O136 O 0.15684 1.01267 0.80321 0.0
O137 O 0.18567 0.03493 0.82217 0.0
O138 O 0.22183 0.05251 0.78616 0.0
O139 O 0.19224 0.06496 0.78261 0.0
C140 C 0.16444 0.02072 0.732 0.0
O141 O 0.21907 1.00029 0.77306 0.0
O142 O 0.19102 0.9796 0.78313 0.0
In143 In 0.34157 0.95482 0.04063 0.0
O144 O 0.33486 0.92322 0.0614 0.0
O145 O 0.34735 0.95932 0.0815 0.0
C146 C 0.33657 0.92551 0.99645 0.0
C147 C 0.31111 0.98375 0.04344 0.0
C148 C 0.38517 0.97368 0.04207 0.0
O149 O 0.32695 0.91866 0.01394 0.0
O150 O 0.34783 0.94722 1.00105 0.0
O151 O 0.37053 0.98463 0.03535 0.0
O152 O 0.37776 0.9532 0.0478 0.0
C153 C 0.34162 0.9367 0.08181 0.0
O154 O 0.33149 0.99196 0.04969 0.0
O155 O 0.30595 0.96084 0.03561 0.0
In156 In 0.33051 0.39892 0.04585 0.0
O157 O 0.31106 0.3835 0.07525 0.0
O158 O 0.34343 0.37691 0.07276 0.0
C159 C 0.32216 0.36891 1.00123 0.0
C160 C 0.30222 0.43056 0.04856 0.0
C161 C 0.37144 0.42798 0.04736 0.0
O162 O 0.33571 0.36569 0.01743 0.0
O163 O 0.31237 0.38614 1.008 0.0
O164 O 0.36189 0.42564 0.06624 0.0
O165 O 0.36029 0.416 0.02806 0.0
C166 C 0.32619 0.37438 0.08375 0.0
O167 O 0.32304 0.43778 0.04986 0.0
O168 O 0.29578 0.40759 0.04654 0.0
In169 In 0.80701 0.15245 0.02538 0.0
O170 O 0.83579 0.13612 0.03865 0.0
O171 O 0.81534 0.11659 1.00701 0.0
C172 C 0.76286 0.13654 0.01438 0.0
C173 C 0.80855 0.17694 0.07106 0.0
C174 C 0.81925 0.18155 0.9933 0.0
O175 O 0.77461 0.12487 0.02506 0.0
O176 O 0.77342 0.15601 1.009 0.0
O177 O 0.81664 0.19 0.01488 0.0
O178 O 0.8167 0.15846 0.98823 0.0
C179 C 0.8317 0.11748 0.02181 0.0
O180 O 0.82361 0.18244 0.05755 0.0
O181 O 0.79352 0.15848 0.06188 0.0
In182 In 0.19662 0.54696 0.26591 0.0
O183 O 0.21424 0.53534 0.29737 0.0
O184 O 0.20948 0.51121 0.26329 0.0
C185 C 0.22396 0.5897 0.26247 0.0
C186 C 0.17476 0.52802 0.22176 0.0
C187 C 0.1659 0.55948 0.29489 0.0
O188 O 0.23097 0.57307 0.27111 0.0
O189 O 0.20366 0.58423 0.25484 0.0
O190 O 0.1659 0.53743 0.28569 0.0
O191 O 0.18185 0.57504 0.29022 0.0
C192 C 0.21662 0.51513 0.28533 0.0
O193 O 0.16538 0.52911 0.24098 0.0
O194 O 0.19559 0.53567 0.22475 0.0
In195 In 0.83115 0.90435 0.54419 0.0
O196 O 0.81993 0.87174 0.56384 0.0
O197 O 0.83447 0.90648 0.58517 0.0
C198 C 0.83178 0.88013 0.49808 0.0
C199 C 0.798 0.92977 0.54059 0.0
C200 C 0.87427 0.928 0.5504 0.0
O201 O 0.82298 0.86932 0.51402 0.0
O202 O 0.83999 0.90269 0.50543 0.0
O203 O 0.85833 0.93909 0.55036 0.0
O204 O 0.8685 0.90482 0.54756 0.0
C205 C 0.82602 0.88425 0.58482 0.0
O206 O 0.8169 0.93934 0.5515 0.0
O207 O 0.79551 0.90717 0.5318 0.0
In208 In 0.94542 0.0761 0.28184 0.0
O209 O 0.97608 0.08625 0.25757 0.0
O210 O 0.94772 0.06268 0.23896 0.0
C211 C 0.97005 0.07707 0.32838 0.0
C212 C 0.92247 0.11812 0.28382 0.0
C213 C 0.92001 0.02688 0.27672 0.0
O214 O 0.97835 0.07607 0.30833 0.0
O215 O 0.9501 0.07941 0.32547 0.0
O216 O 0.91146 0.0453 0.27498 0.0
O217 O 0.94091 0.03306 0.28018 0.0
C218 C 0.96736 0.07371 0.23711 0.0
O219 O 0.91426 0.09721 0.28847 0.0
O220 O 0.94224 0.11831 0.2786 0.0
In221 In 0.3038 0.66191 0.52568 0.0
O222 O 0.31079 0.6234 0.51529 0.0
O223 O 0.33827 0.65272 0.52874 0.0
C224 C 0.2593 0.64975 0.52309 0.0
C225 C 0.3095 0.68437 0.57244 0.0
C226 C 0.3074 0.6847 0.48753 0.0
O227 O 0.27126 0.63384 0.52211 0.0
O228 O 0.2698 0.67165 0.52513 0.0
O229 O 0.3143 0.69578 0.50883 0.0
O230 O 0.29982 0.66194 0.4854 0.0
C231 C 0.33146 0.62996 0.52078 0.0
O232 O 0.31848 0.69451 0.55622 0.0
O233 O 0.29881 0.66258 0.56521 0.0
In234 In 0.4452 0.57647 0.78216 0.0
O235 O 0.41556 0.59691 0.77056 0.0
O236 O 0.43918 0.61839 0.7971 0.0
C237 C 0.42003 0.52733 0.77833 0.0
C238 C 0.46845 0.57505 0.73814 0.0
C239 C 0.46883 0.57563 0.82851 0.0
O240 O 0.41158 0.54632 0.78134 0.0
O241 O 0.44065 0.53295 0.77657 0.0
O242 O 0.47825 0.58247 0.81071 0.0
O243 O 0.44795 0.57059 0.82349 0.0
C244 C 0.42142 0.6179 0.78422 0.0
O245 O 0.47672 0.58735 0.75884 0.0
O246 O 0.44883 0.56384 0.7395 0.0
In247 In 0.6948 0.04493 0.77008 0.0
O248 O 0.718 0.03463 0.79779 0.0
O249 O 0.70599 1.00805 0.76597 0.0
C250 C 0.71915 0.09146 0.78163 0.0
C251 C 0.67946 0.03196 0.72281 0.0
C252 C 0.65685 0.04436 0.79124 0.0
O253 O 0.72551 0.07455 0.76776 0.0
O254 O 0.70063 0.08488 0.78938 0.0
O255 O 0.66167 0.05617 0.77463 0.0
O256 O 0.67148 0.03329 0.7977 0.0
C257 C 0.71755 1.01335 0.78609 0.0
O258 O 0.67025 0.0223 0.73908 0.0
O259 O 0.69736 0.04745 0.73009 0.0
In260 In 0.80349 0.69458 0.01912 0.0
O261 O 0.81467 0.65909 0.02286 0.0
O262 O 0.83911 0.68825 0.01539 0.0
C263 C 0.76089 0.6691 0.01616 0.0
C264 C 0.80978 0.72142 0.06521 0.0
C265 C 0.80692 0.71506 0.97864 0.0
O266 O 0.77666 0.65911 1.00947 0.0
O267 O 0.76654 0.69194 0.02423 0.0
O268 O 0.81516 0.72687 0.99935 0.0
O269 O 0.79735 0.69317 0.97841 0.0
C270 C 0.83467 0.66651 0.01937 0.0
O271 O 0.79824 0.72685 0.04852 0.0
O272 O 0.81847 0.70325 0.05845 0.0
In273 In 0.94725 0.54072 0.78776 0.0
O274 O 0.91829 0.55884 0.79762 0.0
O275 O 0.93901 0.5732 0.77259 0.0
C276 C 0.91907 0.49745 0.78676 0.0
C277 C 0.97332 0.53494 0.75147 0.0
C278 C 0.97483 0.55092 0.82871 0.0
O279 O 0.93336 0.50761 0.80434 0.0
O280 O 0.91874 0.5093 0.76981 0.0
O281 O 0.96237 0.56521 0.8241 0.0
O282 O 0.97332 0.53189 0.81271 0.0
C283 C 0.92205 0.57417 0.78383 0.0
O284 O 0.97857 0.55233 0.76948 0.0
O285 O 0.95476 0.52093 0.75151 0.0
In286 In 0.84122 0.45158 0.53651 0.0
O287 O 0.82637 0.41881 0.55343 0.0
O288 O 0.86101 0.43324 0.56047 0.0
C289 C 0.83862 0.42173 0.49303 0.0
C290 C 0.80996 0.47881 0.54583 0.0
C291 C 0.87865 0.48607 0.54088 0.0
O292 O 0.82227 0.4215 0.50547 0.0
O293 O 0.85589 0.43727 0.50231 0.0
O294 O 0.87099 0.47796 0.55881 0.0
O295 O 0.86681 0.47763 0.52102 0.0
C296 C 0.84471 0.41718 0.56345 0.0
O297 O 0.82302 0.47513 0.56217 0.0
O298 O 0.81254 0.46869 0.52477 0.0
In299 In 0.6881 0.52186 0.27916 0.0
O300 O 0.71913 0.50037 0.27264 0.0
O301 O 0.69106 0.4796 0.28256 0.0
C302 C 0.71312 0.57127 0.285 0.0
C303 C 0.66427 0.52096 0.23213 0.0
C304 C 0.6662 0.52537 0.32394 0.0
O305 O 0.72186 0.55283 0.28607 0.0
O306 O 0.69219 0.56501 0.2819 0.0
O307 O 0.65707 0.51345 0.3034 0.0
O308 O 0.68618 0.5353 0.32212 0.0
C309 C 0.71079 0.47954 0.27737 0.0
O310 O 0.68508 0.52404 0.23662 0.0
O311 O 0.65491 0.51663 0.25078 0.0
Tb312 Tb 0.04236 0.0276 0.01568 0.0
C313 C 0.09704 0.12146 0.07951 0.0
C314 C 0.09956 0.15212 0.05431 0.0
C315 C 0.10089 0.16461 0.09785 0.0
C316 C 0.09678 0.12731 0.05695 0.0
C317 C 0.09981 0.14007 0.10035 0.0
C318 C 0.10077 0.17064 0.07482 0.0
C319 C 0.10331 0.10934 0.12434 0.0
N320 N 0.09656 0.09769 0.08103 0.0
C321 C 0.1007 0.09162 0.10311 0.0
C322 C 0.10246 0.13361 0.12299 0.0
Tb323 Tb 0.09095 0.06935 0.04534 0.0
N324 N 0.09601 0.10888 0.03778 0.0
C325 C 0.10049 0.11458 0.01573 0.0
C326 C 0.10221 0.15767 0.03137 0.0
C327 C 0.1032 0.13886 1.0121 0.0
H328 H 0.10129 0.07293 0.10455 0.0
H329 H 0.10593 0.143 0.99439 0.0
H330 H 0.10257 0.18975 0.07313 0.0
H331 H 0.10595 0.10424 0.14173 0.0
H332 H 0.10123 0.10049 1.00043 0.0
H333 H 0.0261 0.95567 0.06859 0.0
H334 H 0.10436 0.17647 0.02854 0.0
H335 H 0.03316 0.0225 0.9562 0.0
H336 H 0.03119 0.99775 0.06142 0.0
H337 H 0.02886 0.99031 0.91968 0.0
H338 H 0.10273 0.17915 0.11362 0.0
H339 H 0.02809 0.92144 0.03538 0.0
H340 H 0.03063 0.90703 0.99113 0.0
H341 H 0.10464 0.14735 0.13944 0.0
H342 H 0.03123 0.9165 0.95021 0.0
N343 N 0.03707 0.98847 0.02434 0.0
C344 C 0.03214 0.98338 0.0465 0.0
C345 C 0.03041 0.94007 0.03204 0.0
C346 C 0.03353 0.94498 1.00895 0.0
C347 C 0.0292 0.95931 0.05078 0.0
C348 C 0.03652 0.9696 1.00564 0.0
H349 H 0.02989 0.94745 0.92331 0.0
N350 N 0.03722 0.99841 0.98061 0.0
C351 C 0.03115 0.98568 0.93734 0.0
C352 C 0.03664 0.97481 0.98284 0.0
C353 C 0.03351 1.00388 0.95817 0.0
C354 C 0.03186 0.96156 0.93945 0.0
C355 C 0.03412 0.95573 0.96242 0.0
O356 O 1.01311 0.03155 0.99672 0.0
O357 O 0.05874 0.06628 0.02649 0.0
O358 O 0.06472 0.07423 0.07089 0.0
O359 O 0.03835 0.03843 0.05567 0.0
O360 O 0.04189 0.0552 0.99294 0.0
O361 O 1.01298 0.02413 0.03278 0.0
O362 O 0.11941 0.06152 0.0623 0.0
O363 O 0.07459 0.03061 0.03419 0.0
O364 O 0.06886 0.02319 0.99029 0.0
O365 O 0.09492 0.05922 1.00535 0.0
O366 O 0.09092 0.04161 0.068 0.0
O367 O 0.12109 0.07634 0.02976 0.0
C368 C 0.05323 0.07406 1.00758 0.0
C369 C 0.97946 1.01037 1.00771 0.0
C370 C 0.93932 1.00555 1.00296 0.0
C371 C 0.96061 0.02062 1.00664 0.0
C372 C 0.93695 0.97993 0.99998 0.0
C373 C 0.97706 0.98471 1.00433 0.0
C374 C 0.95582 0.96956 1.00039 0.0
C375 C 0.0465 0.0579 0.07342 0.0
C376 C 1.00112 0.02717 0.01418 0.0
C377 C 0.03288 0.93138 0.96563 0.0
C378 C 0.03257 0.926 0.98891 0.0
C379 C 0.0798 0.02275 0.05315 0.0
C380 C 0.1541 0.08403 0.05574 0.0
C381 C 0.17242 0.073 0.0525 0.0
C382 C 0.19402 0.08621 0.061 0.0
C383 C 0.19697 0.1108 0.0731 0.0
C384 C 0.1572 0.10859 0.06766 0.0
C385 C 0.17863 0.12189 0.07633 0.0
C386 C 0.08692 0.0397 0.98766 0.0
C387 C 0.1321 0.06909 0.04648 0.0
H388 H 0.96247 0.04048 1.00954 0.0
H389 H 0.92059 0.96804 0.9973 0.0
H390 H 0.99146 0.97648 1.00516 0.0
H391 H 0.95398 0.94979 0.99799 0.0
H392 H 0.16975 0.05384 0.04361 0.0
H393 H 0.21343 0.1215 0.07981 0.0
H394 H 0.14317 0.11737 0.07026 0.0
H395 H 0.18104 0.14086 0.08556 0.0
Tb396 Tb 0.32716 0.78623 0.25258 0.0
C397 C 0.32698 0.86984 0.3305 0.0
C398 C 0.34368 0.86862 0.37015 0.0
C399 C 0.34708 0.90768 0.35678 0.0
C400 C 0.33187 0.85648 0.34774 0.0
C401 C 0.33369 0.89577 0.33539 0.0
C402 C 0.35206 0.89412 0.37415 0.0
C403 C 0.31033 0.89664 0.29995 0.0
N404 N 0.3137 0.85773 0.31016 0.0
C405 C 0.30411 0.87094 0.29588 0.0
C406 C 0.3257 0.90907 0.31937 0.0
Tb407 Tb 0.30561 0.81545 0.30548 0.0
N408 N 0.32311 0.83195 0.34348 0.0
C409 C 0.32344 0.81907 0.36191 0.0
C410 C 0.34567 0.85501 0.38833 0.0
C411 C 0.33506 0.83026 0.38437 0.0
H412 H 0.29219 0.86212 0.28074 0.0
H413 H 0.33597 0.8197 0.39853 0.0
H414 H 0.36149 0.90369 0.39108 0.0
H415 H 0.30332 0.90683 0.28797 0.0
H416 H 0.31597 0.79976 0.35891 0.0
H417 H 0.28441 0.77194 0.16317 0.0
H418 H 0.35459 0.86365 0.40579 0.0
H419 H 0.34711 0.74552 0.28151 0.0
H420 H 0.30523 0.79629 0.20118 0.0
H421 H 0.34344 0.7013 0.27628 0.0
H422 H 0.35273 0.92752 0.36058 0.0
H423 H 0.27587 0.72644 0.15676 0.0
H424 H 0.28017 0.68805 0.17175 0.0
H425 H 0.33046 0.92897 0.32246 0.0
H426 H 0.29641 0.66888 0.20251 0.0
N427 N 0.30807 0.76492 0.21649 0.0
C428 C 0.3017 0.77641 0.19852 0.0
C429 C 0.28503 0.73705 0.17347 0.0
C430 C 0.29268 0.72539 0.19124 0.0
C431 C 0.28986 0.7627 0.17698 0.0
C432 C 0.30453 0.74007 0.21268 0.0
H433 H 0.32024 0.67368 0.2413 0.0
N434 N 0.32569 0.74446 0.24972 0.0
C435 C 0.33493 0.70896 0.26306 0.0
C436 C 0.31378 0.72944 0.22982 0.0
C437 C 0.33694 0.73445 0.26586 0.0
C438 C 0.32182 0.69342 0.24333 0.0
C439 C 0.31131 0.70359 0.2262 0.0
O440 O 0.36187 0.78887 0.2553 0.0
O441 O 0.32784 0.82003 0.27771 0.0
O442 O 0.2871 0.81995 0.27238 0.0
O443 O 0.29163 0.78669 0.24376 0.0
O444 O 0.32761 0.82181 0.24188 0.0
O445 O 0.34442 0.79309 0.22281 0.0
O446 O 0.27197 0.79725 0.3022 0.0
O447 O 0.30584 0.78211 0.28074 0.0
O448 O 0.34964 0.78668 0.28494 0.0
O449 O 0.3383 0.80973 0.31892 0.0
O450 O 0.30388 0.77953 0.31627 0.0
O451 O 0.28383 0.82993 0.32866 0.0
C452 C 0.32923 0.83475 0.26322 0.0
C453 C 0.37858 0.82077 0.23552 0.0
C454 C 0.38725 0.85795 0.21821 0.0
C455 C 0.37575 0.8336 0.21675 0.0
C456 C 0.40227 0.86934 0.23854 0.0
C457 C 0.394 0.83232 0.25553 0.0
C458 C 0.40581 0.85643 0.25692 0.0
C459 C 0.2806 0.80414 0.25167 0.0
C460 C 0.36371 0.79659 0.23494 0.0
C461 C 0.2987 0.68875 0.20544 0.0
C462 C 0.28941 0.69965 0.18796 0.0
C463 C 0.30424 0.76706 0.2949 0.0
C464 C 0.25403 0.80108 0.33769 0.0
C465 C 0.2632 0.78704 0.35216 0.0
C466 C 0.25103 0.7766 0.36932 0.0
C467 C 0.22915 0.77987 0.37144 0.0
C468 C 0.23227 0.80434 0.34006 0.0
C469 C 0.21985 0.79367 0.35683 0.0
C470 C 0.35235 0.79714 0.30827 0.0
C471 C 0.26692 0.81231 0.32002 0.0
H472 H 0.36367 0.82502 0.2014 0.0
H473 H 0.41129 0.88814 0.24017 0.0
H474 H 0.39654 0.82303 0.27037 0.0
H475 H 0.41741 0.86531 0.27255 0.0
H476 H 0.2797 0.78395 0.34992 0.0
H477 H 0.2194 0.77212 0.38461 0.0
H478 H 0.22488 0.81508 0.32895 0.0
H479 H 0.20304 0.79623 0.35861 0.0
Tb480 Tb 0.59355 0.05936 0.51995 0.0
C481 C 0.52855 1.00404 0.57959 0.0
C482 C 0.50801 0.96807 0.55172 0.0
C483 C 0.51419 0.96663 0.59431 0.0
C484 C 0.52008 0.99262 0.55643 0.0
C485 C 0.52542 0.99139 0.59894 0.0
C486 C 0.50549 0.95498 0.57071 0.0
C487 C 0.54336 0.02909 0.62604 0.0
N488 N 0.53917 0.02796 0.58324 0.0
C489 C 0.54592 0.04086 0.60625 0.0
C490 C 0.53327 1.00416 0.62236 0.0
Tb491 Tb 0.54362 0.04534 0.54956 0.0
N492 N 0.52284 1.00597 0.53867 0.0
C493 C 0.51237 0.99632 0.51599 0.0
C494 C 0.49839 0.95768 0.52822 0.0
C495 C 0.50031 0.972 0.51036 0.0
H496 H 0.5539 0.06008 0.60937 0.0
H497 H 0.49259 0.9643 0.4922 0.0
H498 H 0.49646 0.93603 0.56743 0.0
H499 H 0.54919 0.03925 0.64412 0.0
H500 H 0.5137 1.00696 0.50185 0.0
H501 H 0.64267 0.14218 0.57645 0.0
H502 H 0.48905 0.93885 0.52381 0.0
H503 H 0.58642 0.04252 0.46007 0.0
H504 H 0.62221 0.09927 0.5674 0.0
H505 H 0.59284 0.06184 0.42466 0.0
H506 H 0.51176 0.9565 0.60889 0.0
H507 H 0.64662 0.16666 0.54407 0.0
H508 H 0.6405 0.168 0.49991 0.0
H509 H 0.53125 0.99511 0.63773 0.0
H510 H 0.62711 0.14599 0.45839 0.0
N511 N 0.61373 0.09912 0.53019 0.0
C512 C 0.62373 0.10946 0.55294 0.0
C513 C 0.63753 0.14772 0.53995 0.0
C514 C 0.6286 0.13658 0.51638 0.0
C515 C 0.6354 0.13394 0.55824 0.0
C516 C 0.61682 0.11192 0.51206 0.0
H517 H 0.60973 0.1062 0.43009 0.0
N518 N 0.59923 0.07563 0.48574 0.0
C519 C 0.59748 0.07276 0.44265 0.0
C520 C 0.60934 0.09968 0.48892 0.0
C521 C 0.5939 0.06185 0.46289 0.0
C522 C 0.60695 0.09781 0.44578 0.0
C523 C 0.61331 0.11154 0.46914 0.0
O524 O 0.61156 0.03504 0.50149 0.0
O525 O 0.56758 0.0309 0.52816 0.0
O526 O 0.56956 0.03143 0.56766 0.0
O527 O 0.60019 0.05819 0.55848 0.0
O528 O 0.57853 0.02478 0.49497 0.0
O529 O 0.62495 0.05792 0.53583 0.0
O530 O 0.52628 0.06934 0.5696 0.0
O531 O 0.56927 0.07388 0.54096 0.0
O532 O 0.56775 0.07234 0.50039 0.0
O533 O 0.53661 0.04751 0.51139 0.0
O534 O 0.55887 0.07985 0.57451 0.0
O535 O 0.51181 0.04721 0.53523 0.0
C536 C 0.56509 1.0151 0.50876 0.0
C537 C 0.65061 0.04553 0.5094 0.0
C538 C 0.68681 0.0339 0.50709 0.0
C539 C 0.66551 0.03102 0.51538 0.0
C540 C 0.69285 0.05172 0.49272 0.0
C541 C 0.65705 0.06324 0.49523 0.0
C542 C 0.6781 0.06628 0.48694 0.0
C543 C 0.59078 0.04249 0.57165 0.0
C544 C 0.6284 0.04156 0.51795 0.0
C545 C 0.62408 0.13645 0.47332 0.0
C546 C 0.6317 0.14898 0.49694 0.0
C547 C 0.57179 0.08972 0.56034 0.0
C548 C 0.4871 0.05972 0.56294 0.0
C549 C 0.47197 0.07389 0.55674 0.0
C550 C 0.45134 0.07205 0.56644 0.0
C551 C 0.44599 0.05553 0.58223 0.0
C552 C 0.48139 0.04321 0.57852 0.0
C553 C 0.46087 0.04112 0.58806 0.0
C554 C 0.54617 0.06251 0.49761 0.0
C555 C 0.50902 0.06334 0.55366 0.0
H556 H 0.6605 1.01764 0.52669 0.0
H557 H 0.70888 0.05422 0.48561 0.0
H558 H 0.64581 0.07458 0.49048 0.0
H559 H 0.68295 0.07988 0.47586 0.0
H560 H 0.4765 0.08681 0.54484 0.0
H561 H 0.43019 0.0536 0.58986 0.0
H562 H 0.49283 0.03215 0.58347 0.0
H563 H 0.45654 0.0284 0.60015 0.0
Tb564 Tb 0.29067 0.30685 0.77808 0.0
C565 C 0.35969 0.26408 0.8302 0.0
C566 C 0.37185 0.29388 0.86711 0.0
C567 C 0.3723 0.25077 0.86636 0.0
C568 C 0.36308 0.28788 0.84265 0.0
C569 C 0.36496 0.24531 0.8416 0.0
C570 C 0.37572 0.27507 0.87913 0.0
C571 C 0.35825 0.21818 0.8026 0.0
N572 N 0.35308 0.25982 0.80627 0.0
C573 C 0.35333 0.23749 0.79215 0.0
C574 C 0.36369 0.22197 0.82753 0.0
Tb575 Tb 0.34436 0.29218 0.79067 0.0
N576 N 0.35952 0.30545 0.83018 0.0
C577 C 0.36656 0.32979 0.84065 0.0
C578 C 0.37739 0.31867 0.8784 0.0
C579 C 0.37516 0.33672 0.86494 0.0
H580 H 0.34904 0.23426 0.77288 0.0
H581 H 0.37997 0.35601 0.87327 0.0
H582 H 0.38216 0.27925 0.89801 0.0
H583 H 0.35781 0.20039 0.79143 0.0
H584 H 0.3649 0.34412 0.83075 0.0
H585 H 0.25172 0.24265 0.69687 0.0
H586 H 0.38409 0.32408 0.89718 0.0
H587 H 0.28696 0.36512 0.79557 0.0
H588 H 0.26805 0.25478 0.73887 0.0
H589 H 0.27811 0.39893 0.777 0.0
H590 H 0.37617 0.23656 0.87556 0.0
H591 H 0.24783 0.27434 0.67262 0.0
H592 H 0.25069 0.31919 0.67127 0.0
H593 H 0.36763 0.20704 0.83557 0.0
H594 H 0.25778 0.36211 0.6933 0.0
N595 N 0.27453 0.29339 0.73888 0.0
C596 C 0.26658 0.26906 0.72887 0.0
C597 C 0.25515 0.27988 0.69119 0.0
C598 C 0.26153 0.30474 0.70206 0.0
C599 C 0.25723 0.26197 0.70485 0.0
C600 C 0.27103 0.31089 0.72628 0.0
H601 H 0.26738 0.39195 0.73301 0.0
N602 N 0.2819 0.33917 0.76235 0.0
C603 C 0.27726 0.381 0.76591 0.0
C604 C 0.27488 0.33478 0.73853 0.0
C605 C 0.2822 0.36171 0.77638 0.0
C606 C 0.27132 0.37703 0.74106 0.0
C607 C 0.26957 0.35354 0.72712 0.0
O608 O 0.26826 0.31928 0.80183 0.0
O609 O 0.31541 0.30285 0.80525 0.0
O610 O 0.31923 0.2606 0.79829 0.0
O611 O 0.28707 0.26632 0.77788 0.0
O612 O 0.3004 0.33231 0.81243 0.0
O613 O 0.26058 0.28279 0.78078 0.0
O614 O 0.36611 0.28109 0.76547 0.0
O615 O 0.31955 0.29606 0.76356 0.0
O616 O 0.31585 0.33791 0.7697 0.0
O617 O 0.348 0.33264 0.79042 0.0
O618 O 0.33499 0.26677 0.75628 0.0
O619 O 0.37572 0.31523 0.79056 0.0
C620 C 0.31444 0.3213 0.82117 0.0
C621 C 0.2302 0.30115 0.79085 0.0
C622 C 0.19186 0.29683 0.80176 0.0
C623 C 0.21434 0.29597 0.80731 0.0
C624 C 0.18571 0.30339 0.77978 0.0
C625 C 0.22353 0.30768 0.76914 0.0
C626 C 0.20144 0.30886 0.76372 0.0
C627 C 0.29814 0.2523 0.7887 0.0
C628 C 0.25344 0.29892 0.79603 0.0
C629 C 0.26168 0.34792 0.70251 0.0
C630 C 0.25766 0.3235 0.68997 0.0
C631 C 0.32066 0.27755 0.74772 0.0
C632 C 0.40455 0.29553 0.77681 0.0
C633 C 0.42065 0.30237 0.76109 0.0
C634 C 0.44224 0.29744 0.76405 0.0
C635 C 0.44706 0.28522 0.78285 0.0
C636 C 0.41012 0.28385 0.79555 0.0
C637 C 0.43121 0.27866 0.79845 0.0
C638 C 0.33692 0.34642 0.77927 0.0
C639 C 0.38191 0.30026 0.77329 0.0
H640 H 0.21937 0.29074 0.82405 0.0
H641 H 0.16869 0.3045 0.77509 0.0
H642 H 0.23534 0.31168 0.75629 0.0
H643 H 0.19646 0.31392 0.7469 0.0
H644 H 0.4164 0.31173 0.74682 0.0
H645 H 0.46308 0.28038 0.78542 0.0
H646 H 0.39816 0.27861 0.80787 0.0
H647 H 0.43527 0.26936 0.81283 0.0
Tb648 Tb 0.06086 0.07299 0.54462 0.0
C649 C 0.09594 1.01209 0.46563 0.0
C650 C 0.06765 1.00699 0.43242 0.0
C651 C 0.10604 1.00807 0.42437 0.0
C652 C 0.07408 1.01102 0.45745 0.0
C653 C 0.11198 1.00969 0.44909 0.0
C654 C 0.08388 1.00668 0.41603 0.0
C655 C 0.13745 1.00637 0.48196 0.0
N656 N 0.10093 1.01294 0.48957 0.0
C657 C 0.12092 1.00844 0.49761 0.0
C658 C 0.13315 1.0076 0.45771 0.0
Tb659 Tb 0.07294 0.01888 0.51359 0.0
N660 N 0.05876 1.01083 0.47378 0.0
C661 C 0.03664 1.00313 0.4659 0.0
C662 C 0.04501 1.00173 0.4245 0.0
C663 C 0.02945 0.99906 0.44126 0.0
H664 H 0.12444 1.00714 0.51623 0.0
H665 H 1.01188 0.99394 0.43526 0.0
H666 H 0.0793 1.00408 0.39679 0.0
H667 H 0.15347 1.0037 0.48859 0.0
H668 H 0.02423 1.00072 0.47834 0.0
H669 H 0.12677 0.103 0.61785 0.0
H670 H 0.03938 0.99849 0.40544 0.0
H671 H 1.00689 0.07316 0.54408 0.0
H672 H 0.11116 0.09059 0.57554 0.0
H673 H 0.97974 0.07872 0.57367 0.0
H674 H 0.11821 1.00662 0.41143 0.0
H675 H 0.10191 0.10513 0.65055 0.0
H676 H 0.06305 0.10198 0.66264 0.0
H677 H 0.14593 1.00572 0.44557 0.0
H678 H 0.02297 0.09554 0.65061 0.0
N679 N 0.07737 0.08481 0.58363 0.0
C680 C 0.09989 0.09138 0.58936 0.0
C681 C 0.09487 0.0996 0.63189 0.0
C682 C 0.07188 0.09429 0.62592 0.0
C683 C 0.10893 0.09848 0.61348 0.0
C684 C 0.0636 0.0871 0.60133 0.0
H685 H 0.99179 0.08728 0.61745 0.0
N686 N 0.03427 0.07812 0.57072 0.0
C687 C 0.99699 0.0801 0.57983 0.0
C688 C 0.04122 0.08366 0.59463 0.0
C689 C 1.01251 0.07703 0.56309 0.0
C690 C 1.00383 0.08485 0.60452 0.0
C691 C 0.02624 0.08702 0.61221 0.0
O692 O 0.04641 0.10156 0.53566 0.0
O693 O 0.06078 0.05193 0.50754 0.0
O694 O 0.10176 0.04659 0.50983 0.0
O695 O 0.09498 0.08119 0.53488 0.0
O696 O 0.03397 0.06665 0.51516 0.0
O697 O 0.08144 0.10782 0.54714 0.0
O698 O 0.0653 0.99177 0.53506 0.0
O699 O 0.07409 0.04065 0.55015 0.0
O700 O 0.03807 0.04218 0.55445 0.0
O701 O 0.03762 1.01484 0.51894 0.0
O702 O 0.10021 0.02459 0.54263 0.0
O703 O 0.06806 0.98147 0.49733 0.0
C704 C 0.0423 0.05502 0.49757 0.0
C705 C 0.06496 0.14261 0.55159 0.0
C706 C 0.06858 0.18543 0.54731 0.0
C707 C 0.06782 0.16065 0.53729 0.0
C708 C 0.06647 0.19194 0.57213 0.0
C709 C 0.0627 0.14918 0.57626 0.0
C710 C 0.06343 0.17385 0.58646 0.0
C711 C 0.10748 0.06985 0.52061 0.0
C712 C 0.06523 0.11739 0.53994 0.0
C713 C 0.03422 0.09306 0.6368 0.0
C714 C 0.05702 0.0967 0.64365 0.0
C715 C 0.09265 0.03768 0.56008 0.0
C716 C 0.07992 0.95637 0.52289 0.0
C717 C 0.07591 0.94456 0.54261 0.0
C718 C 0.08851 0.9275 0.54789 0.0
C719 C 0.10546 0.92266 0.53333 0.0
C720 C 0.09665 0.95086 0.50831 0.0
C721 C 0.10944 0.93428 0.51369 0.0
C722 C 0.02872 0.02186 0.53897 0.0
C723 C 0.06614 0.97383 0.51759 0.0
H724 H 0.06998 0.1554 0.5183 0.0
H725 H 0.06698 0.21091 0.58037 0.0
H726 H 0.06055 0.13541 0.58756 0.0
H727 H 0.06174 0.17897 0.60553 0.0
H728 H 0.06261 0.94827 0.55347 0.0
H729 H 0.11565 0.90989 0.53714 0.0
H730 H 0.09981 0.95919 0.49266 0.0
H731 H 0.1224 0.93028 0.50248 0.0
Tb732 Tb 0.33848 0.81726 0.77532 0.0
C733 C 0.28947 0.75636 0.84114 0.0
C734 C 0.29913 0.71653 0.83067 0.0
C735 C 0.2896 0.73027 0.87117 0.0
C736 C 0.29625 0.73903 0.82456 0.0
C737 C 0.28561 0.75202 0.86452 0.0
C738 C 0.29635 0.71254 0.85425 0.0
C739 C 0.27223 0.78981 0.87226 0.0
N740 N 0.28566 0.77704 0.8339 0.0
C741 C 0.27624 0.79326 0.84886 0.0
C742 C 0.27723 0.76928 0.88026 0.0
Tb743 Tb 0.29314 0.78109 0.79508 0.0
N744 N 0.29831 0.74341 0.80187 0.0
C745 C 0.30122 0.72495 0.78389 0.0
C746 C 0.30376 0.69834 0.81264 0.0
C747 C 0.30437 0.70241 0.78903 0.0
H748 H 0.27208 0.80923 0.84325 0.0
H749 H 0.30731 0.68821 0.77475 0.0
H750 H 0.2987 0.69549 0.85935 0.0
H751 H 0.26528 0.80302 0.88411 0.0
H752 H 0.30161 0.72765 0.76552 0.0
H753 H 0.32696 0.91096 0.79912 0.0
H754 H 0.30611 0.68083 0.81658 0.0
H755 H 0.35655 0.78861 0.7254 0.0
H756 H 0.33006 0.87019 0.80647 0.0
H757 H 0.36342 0.79592 0.68487 0.0
H758 H 0.28691 0.72669 0.88911 0.0
H759 H 0.32998 0.92043 0.75818 0.0
H760 H 0.33716 0.9069 0.71512 0.0
H761 H 0.27403 0.76663 0.89837 0.0
H762 H 0.34715 0.87555 0.68401 0.0
N763 N 0.3346 0.85585 0.77003 0.0
C764 C 0.33161 0.87379 0.78852 0.0
C765 C 0.33143 0.90236 0.76132 0.0
C766 C 0.33552 0.88443 0.74269 0.0
C767 C 0.3298 0.89712 0.78444 0.0
C768 C 0.33726 0.86119 0.74777 0.0
H769 H 0.35724 0.83427 0.67266 0.0
N770 N 0.3458 0.82234 0.73672 0.0
C771 C 0.35766 0.80956 0.69751 0.0
C772 C 0.34311 0.84382 0.73048 0.0
C773 C 0.35372 0.80554 0.72075 0.0
C774 C 0.35409 0.83117 0.69065 0.0
C775 C 0.34704 0.84881 0.70731 0.0
O776 O 0.37171 0.81353 0.77502 0.0
O777 O 0.32864 0.78332 0.79035 0.0
O778 O 0.31581 0.7969 0.8274 0.0
O779 O 0.33416 0.83066 0.81341 0.0
O780 O 0.34911 0.78198 0.76399 0.0
O781 O 0.363 0.8444 0.7978 0.0
O782 O 0.26011 0.78564 0.79213 0.0
O783 O 0.30292 0.81476 0.77951 0.0
O784 O 0.3148 0.8024 0.7437 0.0
O785 O 0.29763 0.76767 0.75699 0.0
O786 O 0.28261 0.81647 0.80587 0.0
O787 O 0.26824 0.75135 0.77662 0.0
C788 C 0.33969 0.76869 0.77819 0.0
C789 C 0.39886 0.85005 0.784 0.0
C790 C 0.43919 0.85952 0.78505 0.0
C791 C 0.41953 0.8446 0.78966 0.0
C792 C 0.43795 0.87999 0.77438 0.0
C793 C 0.39775 0.87037 0.77312 0.0
C794 C 0.41728 0.88522 0.76827 0.0
C795 C 0.32815 0.81928 0.83129 0.0
C796 C 0.37906 0.83415 0.79009 0.0
C797 C 0.34434 0.87144 0.70174 0.0
C798 C 0.33863 0.88926 0.71943 0.0
C799 C 0.29187 0.82956 0.79138 0.0
C800 C 0.23369 0.75018 0.79345 0.0
C801 C 0.21426 0.75959 0.79427 0.0
C802 C 0.19618 0.7488 0.80549 0.0
C803 C 0.19772 0.72822 0.81587 0.0
C804 C 0.23506 0.7297 0.80406 0.0
C805 C 0.21712 0.71882 0.8152 0.0
C806 C 0.30332 0.77958 0.73936 0.0
C807 C 0.25236 0.7628 0.78216 0.0
H808 H 0.42032 0.82906 0.79838 0.0
H809 H 0.45293 0.89186 0.77078 0.0
H810 H 0.38194 0.87489 0.76861 0.0
H811 H 0.4164 0.90097 0.75998 0.0
H812 H 0.21314 0.77524 0.78584 0.0
H813 H 0.18401 0.71953 0.8246 0.0
H814 H 0.24991 0.72214 0.80379 0.0
H815 H 0.21825 0.70305 0.82336 0.0
Tb816 Tb 0.59014 0.06557 0.05673 0.0
C817 C 0.50914 0.08895 1.00352 0.0
C818 C 0.4811 0.05137 0.99327 0.0
C819 C 0.47009 0.09095 0.9999 0.0
C820 C 0.50355 0.0636 0.99842 0.0
C821 C 0.49254 0.103 1.00386 0.0
C822 C 0.46438 0.06516 0.99456 0.0
C823 C 0.52161 0.13957 1.00935 0.0
N824 N 0.53099 0.09984 1.00668 0.0
C825 C 0.53744 0.12479 1.00849 0.0
C826 C 0.49906 0.12865 1.00731 0.0
Tb827 Tb 0.55566 0.07415 1.00504 0.0
N828 N 0.52021 0.05098 0.99727 0.0
C829 C 0.51549 0.026 0.98946 0.0
C830 C 0.47618 0.02572 0.98634 0.0
C831 C 0.49348 1.01302 0.98413 0.0
H832 H 0.55487 0.13332 1.01008 0.0
H833 H 0.48988 0.9932 0.97844 0.0
H834 H 0.44702 0.05609 0.9909 0.0
H835 H 0.52682 0.15935 1.01148 0.0
H836 H 0.5286 1.01582 0.98769 0.0
H837 H 0.65854 0.14454 0.07305 0.0
H838 H 0.45915 1.01561 0.98224 0.0
H839 H 0.58941 1.00814 0.06299 0.0
H840 H 0.61939 0.12329 0.06709 0.0
H841 H 0.61615 0.9814 0.06624 0.0
H842 H 0.45706 0.1014 1.00027 0.0
H843 H 0.68821 0.1206 0.07188 0.0
H844 H 0.69878 0.07941 0.06936 0.0
H845 H 0.48681 0.14011 1.00774 0.0
H846 H 0.6872 0.03471 0.0672 0.0
N847 N 0.62632 0.08721 0.06174 0.0
C848 C 0.63197 0.1124 0.06647 0.0
C849 C 0.67096 0.11108 0.06918 0.0
C850 C 0.66515 0.08542 0.06583 0.0
C851 C 0.65427 0.12464 0.06992 0.0
C852 C 0.64243 0.07398 0.06231 0.0
H853 H 0.65636 0.99798 0.06637 0.0
N854 N 0.61398 0.03945 0.05996 0.0
C855 C 0.62198 1.00039 0.06469 0.0
C856 C 0.636 0.0491 0.06132 0.0
C857 C 0.60684 1.01567 0.06281 0.0
C858 C 0.64465 1.00978 0.06467 0.0
C859 C 0.65197 0.03459 0.06355 0.0
O860 O 0.5774 0.05218 0.08664 0.0
O861 O 0.55778 0.06014 0.03775 0.0
O862 O 0.54734 0.09544 0.03809 0.0
O863 O 0.58127 0.10195 0.06104 0.0
O864 O 0.56311 0.03363 0.05634 0.0
O865 O 0.59644 0.08922 0.09067 0.0
O866 O 0.56247 0.0924 0.97614 0.0
O867 O 0.58809 0.07838 0.02309 0.0
O868 O 0.59662 0.03973 0.02601 0.0
O869 O 0.56651 0.03859 0.99759 0.0
O870 O 0.58341 0.10539 1.00506 0.0
O871 O 0.55272 0.05257 0.97028 0.0
C872 C 0.5486 0.04004 0.04289 0.0
C873 C 0.59837 0.06901 0.12386 0.0
C874 C 0.59564 0.05922 0.16398 0.0
C875 C 0.58559 0.06234 0.14213 0.0
C876 C 0.61889 0.06298 0.16749 0.0
C877 C 0.62158 0.07233 0.12725 0.0
C878 C 0.63176 0.06931 0.14906 0.0
C879 C 0.56182 0.10772 0.05645 0.0
C880 C 0.58668 0.07228 0.10166 0.0
C881 C 0.67465 0.04555 0.06566 0.0
C882 C 0.68124 0.07099 0.06689 0.0
C883 C 0.59805 0.09775 0.01721 0.0
C884 C 0.54293 0.07172 0.93858 0.0
C885 C 0.54925 0.06192 0.91627 0.0
C886 C 0.53719 0.0628 0.89472 0.0
C887 C 0.51829 0.07321 0.89562 0.0
C888 C 0.52385 0.08186 0.93945 0.0
C889 C 0.5115 0.08241 0.91799 0.0
C890 C 0.58384 0.03019 1.00547 0.0
C891 C 0.55728 0.07187 0.96028 0.0
H892 H 0.56767 0.06004 0.13946 0.0
H893 H 0.627 0.06084 0.18432 0.0
H894 H 0.63176 0.07735 0.11324 0.0
H895 H 0.64966 0.07201 0.15173 0.0
H896 H 0.56426 0.05453 0.91565 0.0
H897 H 0.50898 0.07439 0.87912 0.0
H898 H 0.51874 0.08968 0.95652 0.0
H899 H 0.49691 0.09042 0.9187 0.0
Tb900 Tb 0.32919 0.32715 0.29898 0.0
C901 C 0.23995 0.26231 0.27436 0.0
C902 C 0.23005 0.23016 0.29739 0.0
C903 C 0.20201 0.25146 0.28475 0.0
C904 C 0.24598 0.24523 0.28659 0.0
C905 C 0.21773 0.2653 0.27282 0.0
C906 C 0.20815 0.23383 0.29695 0.0
C907 C 0.22775 0.29372 0.24617 0.0
N908 N 0.25568 0.27519 0.26307 0.0
C909 C 0.24956 0.29014 0.24827 0.0
C910 C 0.21184 0.2816 0.25884 0.0
Tb911 Tb 0.29164 0.26959 0.2699 0.0
N912 N 0.26725 0.2424 0.28665 0.0
C913 C 0.27328 0.22316 0.29544 0.0
C914 C 0.23645 0.21138 0.30758 0.0
C915 C 0.25808 0.20758 0.30618 0.0
H916 H 0.26125 0.30019 0.23843 0.0
H917 H 0.26312 0.19283 0.31361 0.0
H918 H 0.19573 0.22269 0.30543 0.0
H919 H 0.2233 0.30606 0.23491 0.0
H920 H 0.29016 0.22046 0.29495 0.0
H921 H 0.35131 0.40285 0.25213 0.0
H922 H 0.22471 0.19936 0.31598 0.0
H923 H 0.36184 0.2988 0.32995 0.0
H924 H 0.32609 0.37329 0.27068 0.0
H925 H 0.40107 0.29804 0.33574 0.0
H926 H 0.18495 0.25375 0.28403 0.0
H927 H 0.39128 0.40186 0.25283 0.0
H928 H 0.42297 0.38393 0.26676 0.0
H929 H 0.19499 0.28451 0.25725 0.0
H930 H 0.43649 0.35557 0.28977 0.0
N931 N 0.35143 0.3553 0.28129 0.0
C932 C 0.34355 0.3728 0.27119 0.0
C933 C 0.38027 0.38883 0.26096 0.0
C934 C 0.38844 0.37185 0.27246 0.0
C935 C 0.35775 0.3895 0.26059 0.0
C936 C 0.37341 0.35527 0.28273 0.0
H937 H 0.42848 0.32354 0.31551 0.0
N938 N 0.36586 0.32457 0.30603 0.0
C939 C 0.39564 0.30977 0.32436 0.0
C940 C 0.38091 0.33935 0.29557 0.0
C941 C 0.37312 0.3104 0.32097 0.0
C942 C 0.41105 0.32411 0.31287 0.0
C943 C 0.40383 0.33946 0.29857 0.0
O944 O 0.33306 0.33684 0.33708 0.0
O945 O 0.29602 0.30562 0.29151 0.0
O946 O 0.29699 0.29579 0.24477 0.0
O947 O 0.32983 0.32427 0.2599 0.0
O948 O 0.29943 0.34183 0.29108 0.0
O949 O 0.32732 0.36295 0.31512 0.0
O950 O 0.28922 0.26074 0.23179 0.0
O951 O 0.32483 0.29069 0.2782 0.0
O952 O 0.32526 0.30124 0.32431 0.0
O953 O 0.29392 0.27023 0.30899 0.0
O954 O 0.32098 0.25412 0.27769 0.0
O955 O 0.29191 0.23341 0.2532 0.0
C956 C 0.28502 0.32176 0.28962 0.0
C957 C 0.30829 0.36327 0.3498 0.0
C958 C 0.2792 0.38721 0.35502 0.0
C959 C 0.2992 0.38345 0.3459 0.0
C960 C 0.26859 0.37092 0.36894 0.0
C961 C 0.29761 0.34737 0.36407 0.0
C962 C 0.27794 0.35133 0.37367 0.0
C963 C 0.31407 0.31328 0.24223 0.0
C964 C 0.3274 0.35791 0.3367 0.0
C965 C 0.41886 0.35534 0.28776 0.0
C966 C 0.41116 0.37146 0.27464 0.0
C967 C 0.33553 0.27426 0.28024 0.0
C968 C 0.31349 0.23353 0.22029 0.0
C969 C 0.32376 0.21514 0.22698 0.0
C970 C 0.3442 0.21167 0.21883 0.0
C971 C 0.35412 0.22647 0.20321 0.0
C972 C 0.32355 0.24788 0.20438 0.0
C973 C 0.34371 0.24427 0.19588 0.0
C974 C 0.30946 0.28229 0.32661 0.0
C975 C 0.29373 0.23914 0.23203 0.0
H976 H 0.30712 0.39556 0.33458 0.0
H977 H 0.25312 0.37335 0.37614 0.0
H978 H 0.30407 0.33157 0.36731 0.0
H979 H 0.26964 0.33882 0.38437 0.0
H980 H 0.31633 0.20423 0.23954 0.0
H981 H 0.36983 0.22418 0.19655 0.0
H982 H 0.31615 0.26226 0.19894 0.0
H983 H 0.35147 0.25558 0.18384 0.0
Tb984 Tb 0.55963 0.57473 0.04626 0.0
C985 C 0.59356 0.51367 0.96594 0.0
C986 C 0.56406 0.5056 0.93341 0.0
C987 C 0.60232 0.50852 0.92416 0.0
C988 C 0.57121 0.51075 0.95836 0.0
C989 C 0.60923 0.5118 0.94887 0.0
C990 C 0.57978 0.50542 0.91645 0.0
C991 C 0.63691 0.51333 0.98155 0.0
N992 N 0.59967 0.51641 0.98996 0.0
C993 C 0.62082 0.51502 0.99781 0.0
C994 C 0.6312 0.51221 0.95703 0.0
Tb995 Tb 0.57198 0.52093 0.01472 0.0
N996 N 0.55637 0.5107 0.97526 0.0
C997 C 0.53411 0.50274 0.96804 0.0
C998 C 0.54128 0.49962 0.92617 0.0
C999 C 0.52628 0.49762 0.94354 0.0
H1000 H 0.6256 0.51593 0.01667 0.0
H1001 H 0.50862 0.49217 0.93809 0.0
H1002 H 0.57458 0.5019 0.89726 0.0
H1003 H 0.65372 0.51295 0.98795 0.0
H1004 H 0.52194 0.50075 0.98075 0.0
H1005 H 0.61976 0.60244 0.12518 0.0
H1006 H 0.53513 0.49557 0.90721 0.0
H1007 H 0.5057 0.5768 0.04083 0.0
H1008 H 0.60754 0.59101 0.08201 0.0
H1009 H 0.47648 0.58278 0.06732 0.0
H1010 H 0.61417 0.50739 0.91082 0.0
H1011 H 0.5922 0.60473 0.15506 0.0
H1012 H 0.55233 0.60249 0.16322 0.0
H1013 H 0.6437 0.5108 0.94447 0.0
H1014 H 0.51326 0.59737 0.14742 0.0
N1015 N 0.57289 0.58591 0.08655 0.0
C1016 C 0.59506 0.59185 0.09446 0.0
C1017 C 0.58663 0.59961 0.13595 0.0
C1018 C 0.56409 0.59499 0.12781 0.0
C1019 C 0.60221 0.59842 0.11915 0.0
C1020 C 0.55774 0.58835 0.10271 0.0
H1021 H 0.4849 0.59047 0.11169 0.0
N1022 N 0.53104 0.58061 0.06964 0.0
C1023 C 0.49315 0.58357 0.07508 0.0
C1024 C 0.53599 0.58568 0.09393 0.0
C1025 C 0.50996 0.58021 0.06006 0.0
C1026 C 0.49794 0.58783 0.1001 0.0
C1027 C 0.51964 0.58925 0.10984 0.0
O1028 O 0.54804 0.60377 0.03429 0.0
O1029 O 0.55993 0.55377 1.00911 0.0
O1030 O 0.59832 0.55078 1.00881 0.0
O1031 O 0.5949 0.58123 0.04062 0.0
O1032 O 0.53367 0.56929 0.01589 0.0
O1033 O 0.58152 0.60911 0.05067 0.0
O1034 O 0.56001 0.49362 0.0346 0.0
O1035 O 0.57298 0.54221 0.05145 0.0
O1036 O 0.53578 0.54422 0.055 0.0
O1037 O 0.53647 0.51654 0.0198 0.0
O1038 O 0.59932 0.52672 0.04367 0.0
O1039 O 0.57404 0.48419 1.00142 0.0
C1040 C 0.54182 0.55706 0.99861 0.0
C1041 C 0.5666 0.64467 0.05047 0.0
C1042 C 0.57107 0.6867 0.04339 0.0
C1043 C 0.5706 0.66164 0.03508 0.0
C1044 C 0.56752 0.6946 0.06761 0.0
C1045 C 0.56291 0.65262 0.07451 0.0
C1046 C 0.56338 0.67759 0.08301 0.0
C1047 C 0.60589 0.57231 0.02307 0.0
C1048 C 0.56699 0.61903 0.04054 0.0
C1049 C 0.5256 0.59474 0.13489 0.0
C1050 C 0.54782 0.59762 0.14388 0.0
C1051 C 0.59153 0.53916 0.06132 0.0
C1052 C 0.58063 0.46247 0.03264 0.0
C1053 C 0.57202 0.45074 0.05105 0.0
C1054 C 0.58462 0.43742 0.06322 0.0
C1055 C 0.6061 0.43616 0.05678 0.0
C1056 C 0.60205 0.46075 0.02636 0.0
C1057 C 0.6147 0.44776 0.03847 0.0
C1058 C 0.52682 0.5239 0.03929 0.0
C1059 C 0.56707 0.4766 0.02054 0.0
H1060 H 0.5738 0.65529 0.01661 0.0
H1061 H 0.56772 0.7138 0.07455 0.0
H1062 H 0.55982 0.63966 0.08659 0.0
H1063 H 0.56057 0.6838 0.1016 0.0
H1064 H 0.55555 0.45218 0.05601 0.0
H1065 H 0.61611 0.42575 0.06551 0.0
H1066 H 0.60906 0.46935 1.0121 0.0
H1067 H 0.63118 0.4465 0.03351 0.0
Tb1068 Tb 0.83847 0.31659 0.27243 0.0
C1069 C 0.78705 0.25196 0.33388 0.0
C1070 C 0.79611 0.21205 0.32157 0.0
C1071 C 0.78511 0.22351 0.36185 0.0
C1072 C 0.79415 0.23533 0.31679 0.0
C1073 C 0.78198 0.24607 0.35645 0.0
C1074 C 0.79214 0.2065 0.34441 0.0
C1075 C 0.76898 0.28399 0.36572 0.0
N1076 N 0.78395 0.27341 0.32782 0.0
C1077 C 0.77414 0.28896 0.34308 0.0
C1078 C 0.7732 0.26263 0.37259 0.0
Tb1079 Tb 0.7927 0.27965 0.28999 0.0
N1080 N 0.7974 0.24121 0.29481 0.0
C1081 C 0.80096 0.22369 0.27622 0.0
C1082 C 0.80104 0.19465 0.30295 0.0
C1083 C 0.80305 0.20036 0.28005 0.0
H1084 H 0.77055 0.30554 0.33828 0.0
H1085 H 0.80637 0.18686 0.26533 0.0
H1086 H 0.79379 0.18883 0.3485 0.0
H1087 H 0.7617 0.29667 0.37785 0.0
H1088 H 0.80261 0.22764 0.25838 0.0
H1089 H 0.82604 0.40966 0.2994 0.0
H1090 H 0.80266 0.17656 0.30588 0.0
H1091 H 0.85975 0.29125 0.22338 0.0
H1092 H 0.82941 0.36851 0.30534 0.0
H1093 H 0.86828 0.30076 0.1839 0.0
H1094 H 0.78148 0.21874 0.37916 0.0
H1095 H 0.82969 0.42088 0.25923 0.0
H1096 H 0.83809 0.40932 0.2163 0.0
H1097 H 0.76908 0.25877 0.3901 0.0
H1098 H 0.8497 0.37963 0.1848 0.0
N1099 N 0.83445 0.35556 0.26865 0.0
C1100 C 0.83111 0.37282 0.28763 0.0
C1101 C 0.83117 0.40262 0.26169 0.0
C1102 C 0.83582 0.38547 0.24267 0.0
C1103 C 0.8292 0.39638 0.28439 0.0
C1104 C 0.83759 0.36193 0.24686 0.0
H1105 H 0.86139 0.3393 0.17271 0.0
N1106 N 0.84724 0.32378 0.23488 0.0
C1107 C 0.86144 0.31347 0.19647 0.0
C1108 C 0.8443 0.34546 0.22934 0.0
C1109 C 0.85651 0.30817 0.21906 0.0
C1110 C 0.85746 0.33519 0.19018 0.0
C1111 C 0.84915 0.35171 0.20684 0.0
O1112 O 0.87171 0.31272 0.27314 0.0
O1113 O 0.8285 0.28211 0.28668 0.0
O1114 O 0.81454 0.29426 0.32313 0.0
O1115 O 0.83352 0.32855 0.3105 0.0
O1116 O 0.84892 0.28146 0.26026 0.0
O1117 O 0.86265 0.34355 0.29553 0.0
O1118 O 0.75965 0.28415 0.28722 0.0
O1119 O 0.8027 0.31396 0.27547 0.0
O1120 O 0.81633 0.30202 0.23947 0.0
O1121 O 0.79764 0.26747 0.25194 0.0
O1122 O 0.7823 0.31493 0.30184 0.0
O1123 O 0.76811 0.25068 0.26976 0.0
C1124 C 0.83974 0.26782 0.27433 0.0
C1125 C 0.89889 0.34913 0.28279 0.0
C1126 C 0.93925 0.3585 0.28518 0.0
C1127 C 0.91934 0.34373 0.28932 0.0
C1128 C 0.93849 0.37883 0.27413 0.0
C1129 C 0.89821 0.36931 0.27155 0.0
C1130 C 0.918 0.38405 0.26718 0.0
C1131 C 0.82723 0.3165 0.3278 0.0
C1132 C 0.87883 0.33327 0.28834 0.0
C1133 C 0.84624 0.37456 0.20203 0.0
C1134 C 0.8396 0.39144 0.21995 0.0
C1135 C 0.79158 0.32845 0.28769 0.0
C1136 C 0.73322 0.24804 0.28597 0.0
C1137 C 0.71355 0.25695 0.2866 0.0
C1138 C 0.69532 0.24541 0.29711 0.0
C1139 C 0.69698 0.22451 0.30693 0.0
C1140 C 0.73463 0.22711 0.29581 0.0
C1141 C 0.71657 0.21548 0.30628 0.0
C1142 C 0.8041 0.27953 0.23468 0.0
C1143 C 0.75209 0.26173 0.27584 0.0
H1144 H 0.91976 0.32832 0.29835 0.0
H1145 H 0.95367 0.3906 0.27089 0.0
H1146 H 0.88254 0.3738 0.26639 0.0
H1147 H 0.91748 0.39968 0.25861 0.0
H1148 H 0.71242 0.27286 0.27859 0.0
H1149 H 0.68322 0.21526 0.3152 0.0
H1150 H 0.74959 0.21978 0.2955 0.0
H1151 H 0.71775 0.19941 0.31392 0.0
Tb1152 Tb 0.0868 0.55736 0.56193 0.0
C1153 C 1.00736 0.58353 0.50838 0.0
C1154 C 0.98242 0.54489 0.49148 0.0
C1155 C 0.96781 0.58208 0.50107 0.0
C1156 C 1.00389 0.55857 0.50044 0.0
C1157 C 0.98948 0.5958 0.50823 0.0
C1158 C 0.9643 0.55665 0.49249 0.0
C1159 C 0.01617 0.63434 0.51781 0.0
N1160 N 0.02861 0.59609 0.51387 0.0
C1161 C 0.03328 0.62125 0.51694 0.0
C1162 C 0.99411 0.62153 0.51386 0.0
Tb1163 Tb 0.05605 0.57367 0.5123 0.0
N1164 N 0.02189 0.54806 0.49967 0.0
C1165 C 0.01945 0.52372 0.48925 0.0
C1166 C 0.97998 0.52009 0.48085 0.0
C1167 C 0.99858 0.50948 0.47973 0.0
H1168 H 0.05029 0.63125 0.51921 0.0
H1169 H 0.99689 0.4903 0.47149 0.0
H1170 H 0.94763 0.54639 0.48603 0.0
H1171 H 0.02002 0.65426 0.52112 0.0
H1172 H 0.0334 0.51486 0.48801 0.0
H1173 H 0.06807 0.58756 0.65405 0.0
H1174 H 0.96392 0.50909 0.47304 0.0
H1175 H 0.13698 0.55926 0.5414 0.0
H1176 H 0.06096 0.56224 0.61362 0.0
H1177 H 0.17492 0.58261 0.55333 0.0
H1178 H 0.95381 0.59111 0.50104 0.0
H1179 H 0.10333 0.61793 0.66619 0.0
H1180 H 0.14136 0.63595 0.65632 0.0
H1181 H 0.98086 0.63167 0.51402 0.0
H1182 H 0.17055 0.63488 0.62862 0.0
N1183 N 0.09172 0.57838 0.60154 0.0
C1184 C 0.07655 0.57519 0.61816 0.0
C1185 C 0.10032 0.60687 0.64812 0.0
C1186 C 0.11648 0.60879 0.63186 0.0
C1187 C 0.08045 0.5897 0.64137 0.0
C1188 C 0.11171 0.59401 0.60851 0.0
H1189 H 0.18344 0.61448 0.59052 0.0
N1190 N 0.1231 0.57821 0.57104 0.0
C1191 C 0.16177 0.5864 0.56432 0.0
C1192 C 0.12794 0.59391 0.5927 0.0
C1193 C 0.13997 0.57333 0.55748 0.0
C1194 C 0.16653 0.60432 0.58535 0.0
C1195 C 0.14964 0.60786 0.60016 0.0
O1196 O 0.10852 0.53789 0.57658 0.0
O1197 O 0.0566 0.55024 0.53823 0.0
O1198 O 0.04717 0.59351 0.54601 0.0
O1199 O 0.07472 0.59087 0.57592 0.0
O1200 O 0.05383 0.54429 0.57301 0.0
O1201 O 0.07731 0.5187 0.55795 0.0
O1202 O 0.06847 0.59726 0.48895 0.0
O1203 O 0.08781 0.57698 0.53255 0.0
O1204 O 0.09959 0.54666 0.52733 0.0
O1205 O 0.06803 0.53947 0.50109 0.0
O1206 O 0.08123 0.60789 0.5226 0.0
O1207 O 0.05555 0.55885 0.47542 0.0
C1208 C 0.04283 0.54402 0.55286 0.0
C1209 C 0.09191 0.50176 0.58893 0.0
C1210 C 0.07607 0.49345 0.62583 0.0
C1211 C 0.07868 0.5074 0.60751 0.0
C1212 C 0.08674 0.47349 0.62515 0.0
C1213 C 0.10254 0.48189 0.5885 0.0
C1214 C 0.09991 0.46778 0.60654 0.0
C1215 C 0.05823 0.60036 0.56786 0.0
C1216 C 0.09507 0.51672 0.5702 0.0
C1217 C 0.15409 0.62373 0.62278 0.0
C1218 C 0.13749 0.62427 0.63858 0.0
C1219 C 0.09596 0.59945 0.53373 0.0
C1220 C 0.05235 0.58583 0.44876 0.0
C1221 C 0.06453 0.58902 0.42915 0.0
C1222 C 0.05449 0.59331 0.40779 0.0
C1223 C 0.03194 0.59455 0.40629 0.0
C1224 C 0.02988 0.58735 0.44729 0.0
C1225 C 0.01977 0.5918 0.42611 0.0
C1226 C 0.08743 0.53457 0.50731 0.0
C1227 C 0.06353 0.57997 0.46992 0.0
H1228 H 0.07019 0.52246 0.60749 0.0
H1229 H 0.08513 0.4625 0.63911 0.0
H1230 H 0.1129 0.47735 0.57425 0.0
H1231 H 0.10818 0.45247 0.60617 0.0
H1232 H 0.08177 0.58728 0.43024 0.0
H1233 H 0.02383 0.5976 0.38986 0.0
H1234 H 0.02016 0.5848 0.46225 0.0
H1235 H 1.00239 0.59281 0.42495 0.0
Tb1236 Tb 0.78947 0.80655 0.27497 0.0
C1237 C 0.85923 0.76507 0.32831 0.0
C1238 C 0.87261 0.79564 0.3644 0.0
C1239 C 0.8726 0.75261 0.36466 0.0
C1240 C 0.86306 0.78908 0.34021 0.0
C1241 C 0.86459 0.74658 0.34008 0.0
C1242 C 0.87662 0.77717 0.37683 0.0
C1243 C 0.85659 0.71845 0.30169 0.0
N1244 N 0.85207 0.76027 0.30451 0.0
C1245 C 0.85165 0.73751 0.29085 0.0
C1246 C 0.86271 0.72288 0.32652 0.0
Tb1247 Tb 0.84318 0.79219 0.28817 0.0
N1248 N 0.85935 0.80628 0.32732 0.0
C1249 C 0.86705 0.83072 0.33705 0.0
C1250 C 0.87883 0.82059 0.37496 0.0
C1251 C 0.87646 0.83821 0.36103 0.0
H1252 H 0.84677 0.73374 0.27167 0.0
H1253 H 0.88179 0.85761 0.36878 0.0
H1254 H 0.88364 0.78179 0.39552 0.0
H1255 H 0.85562 0.70036 0.29089 0.0
H1256 H 0.86537 0.8448 0.32688 0.0
H1257 H 0.75248 0.74177 0.1934 0.0
H1258 H 0.88617 0.82644 0.3935 0.0
H1259 H 0.78538 0.8648 0.29183 0.0
H1260 H 0.76786 0.75422 0.23574 0.0
H1261 H 0.77683 0.8984 0.27271 0.0
H1262 H 0.87656 0.73863 0.37414 0.0
H1263 H 0.74878 0.77325 0.16881 0.0
H1264 H 0.75127 0.81799 0.16717 0.0
H1265 H 0.86667 0.70815 0.33487 0.0
H1266 H 0.75776 0.86097 0.18897 0.0
N1267 N 0.77394 0.79279 0.23559 0.0
C1268 C 0.76643 0.76839 0.22558 0.0
C1269 C 0.75566 0.77892 0.18752 0.0
C1270 C 0.76159 0.80381 0.19836 0.0
C1271 C 0.75763 0.76112 0.20137 0.0
C1272 C 0.77055 0.81014 0.22276 0.0
H1273 H 0.76671 0.89106 0.22858 0.0
N1274 N 0.78079 0.83864 0.25879 0.0
C1275 C 0.77612 0.88041 0.2618 0.0
C1276 C 0.7741 0.83406 0.23487 0.0
C1277 C 0.78089 0.86124 0.27258 0.0
C1278 C 0.77052 0.87624 0.23688 0.0
C1279 C 0.76897 0.85268 0.22315 0.0
O1280 O 0.76697 0.81885 0.29867 0.0
O1281 O 0.81424 0.80312 0.30243 0.0
O1282 O 0.81791 0.7612 0.29662 0.0
O1283 O 0.78592 0.76617 0.27534 0.0
O1284 O 0.79861 0.83221 0.3093 0.0
O1285 O 0.7591 0.78263 0.27698 0.0
O1286 O 0.86562 0.77951 0.2646 0.0
O1287 O 0.8184 0.79555 0.2607 0.0
O1288 O 0.81468 0.83762 0.26665 0.0
O1289 O 0.84664 0.83259 0.28791 0.0
O1290 O 0.83371 0.76623 0.25411 0.0
O1291 O 0.87313 0.81627 0.28503 0.0
C1292 C 0.81293 0.82164 0.31815 0.0
C1293 C 0.72889 0.80123 0.2874 0.0
C1294 C 0.69083 0.79822 0.29897 0.0
C1295 C 0.71322 0.79683 0.30422 0.0
C1296 C 0.68461 0.80452 0.27687 0.0
C1297 C 0.72216 0.80749 0.26558 0.0
C1298 C 0.70017 0.8092 0.26042 0.0
C1299 C 0.79695 0.75253 0.28674 0.0
C1300 C 0.75203 0.79863 0.29246 0.0
C1301 C 0.76153 0.84688 0.19842 0.0
C1302 C 0.75785 0.82243 0.18601 0.0
C1303 C 0.81949 0.77684 0.24512 0.0
C1304 C 0.90364 0.79809 0.27499 0.0
C1305 C 0.91914 0.8027 0.25804 0.0
C1306 C 0.94173 0.80208 0.26332 0.0
C1307 C 0.94833 0.79636 0.28557 0.0
C1308 C 0.91075 0.79238 0.29696 0.0
C1309 C 0.93294 0.79146 0.30215 0.0
C1310 C 0.83564 0.84623 0.2765 0.0
C1311 C 0.8803 0.8 0.26997 0.0
H1312 H 0.71832 0.79181 0.32105 0.0
H1313 H 0.66768 0.80607 0.27238 0.0
H1314 H 0.73386 0.81091 0.25246 0.0
H1315 H 0.69513 0.81406 0.24352 0.0
H1316 H 0.91376 0.80728 0.2411 0.0
H1317 H 0.96543 0.79544 0.29009 0.0
H1318 H 0.89919 0.78881 0.31018 0.0
H1319 H 0.93828 0.78704 0.31917 0.0
Tb1320 Tb 0.81952 0.27431 0.75357 0.0
C1321 C 0.812 0.37381 0.81694 0.0
C1322 C 0.84897 0.39232 0.83594 0.0
C1323 C 0.82232 0.41813 0.832 0.0
C1324 C 0.83278 0.37116 0.82487 0.0
C1325 C 0.80651 0.39735 0.82043 0.0
C1326 C 0.84352 0.41562 0.83974 0.0
C1327 C 0.7699 0.37827 0.80126 0.0
N1328 N 0.79724 0.35346 0.80536 0.0
C1329 C 0.77603 0.35545 0.79837 0.0
C1330 C 0.78525 0.39938 0.81224 0.0
Tb1331 Tb 0.80709 0.31579 0.80391 0.0
N1332 N 0.83762 0.34831 0.8201 0.0
C1333 C 0.85958 0.34673 0.82407 0.0
C1334 C 0.87048 0.38974 0.84202 0.0
C1335 C 0.87588 0.36692 0.83561 0.0
H1336 H 0.76345 0.3394 0.79052 0.0
H1337 H 0.8929 0.36498 0.83869 0.0
H1338 H 0.85575 0.4319 0.84821 0.0
H1339 H 0.75322 0.37949 0.79525 0.0
H1340 H 0.86579 0.33075 0.81704 0.0
H1341 H 0.75195 0.19467 0.73735 0.0
H1342 H 0.88331 0.40548 0.85046 0.0
H1343 H 0.8737 0.27695 0.74687 0.0
H1344 H 0.7686 0.23857 0.7432 0.0
H1345 H 0.89964 0.24905 0.74557 0.0
H1346 H 0.81837 0.43627 0.83482 0.0
H1347 H 0.7756 0.16447 0.74033 0.0
H1348 H 0.81376 0.15594 0.74651 0.0
H1349 H 0.78045 0.41708 0.81456 0.0
H1350 H 0.8542 0.17093 0.74937 0.0
N1351 N 0.80182 0.23406 0.75054 0.0
C1352 C 0.77937 0.22595 0.74494 0.0
C1353 C 0.78313 0.1839 0.74333 0.0
C1354 C 0.80613 0.19208 0.74803 0.0
C1355 C 0.76974 0.20087 0.74145 0.0
C1356 C 0.81514 0.21755 0.75111 0.0
H1357 H 0.88633 0.20551 0.74843 0.0
N1358 N 0.8457 0.25021 0.75249 0.0
C1359 C 0.88236 0.24237 0.7478 0.0
C1360 C 0.83785 0.22593 0.75231 0.0
C1361 C 0.86747 0.25824 0.74877 0.0
C1362 C 0.87479 0.21782 0.74947 0.0
C1363 C 0.8522 0.20914 0.75106 0.0
O1364 O 0.82378 0.292 0.72367 0.0
O1365 O 0.82163 0.31196 0.77084 0.0
O1366 O 0.7909 0.31996 0.76893 0.0
O1367 O 0.78528 0.28023 0.74815 0.0
O1368 O 0.84935 0.30354 0.75601 0.0
O1369 O 0.81112 0.25332 0.71836 0.0
O1370 O 0.77292 0.30555 0.80684 0.0
O1371 O 0.79879 0.2785 0.78268 0.0
O1372 O 0.84295 0.27277 0.78481 0.0
O1373 O 0.83567 0.30154 0.81768 0.0
O1374 O 0.80503 0.28301 0.81988 0.0
O1375 O 0.7955 0.32521 0.83788 0.0
C1376 C 0.84123 0.32097 0.76761 0.0
C1377 C 0.83347 0.26799 0.68924 0.0
C1378 C 0.85168 0.2829 0.65608 0.0
C1379 C 0.838 0.28579 0.67483 0.0
C1380 C 0.86086 0.26184 0.65165 0.0
C1381 C 0.84304 0.24712 0.685 0.0
C1382 C 0.85668 0.24413 0.66624 0.0
C1383 C 0.77958 0.30193 0.75173 0.0
C1384 C 0.81833 0.27166 0.70805 0.0
C1385 C 0.84341 0.18404 0.75005 0.0
C1386 C 0.82039 0.17551 0.74842 0.0
C1387 C 0.79896 0.26712 0.80014 0.0
C1388 C 0.76395 0.29597 0.84414 0.0
C1389 C 0.77606 0.28579 0.86015 0.0
C1390 C 0.76534 0.26686 0.87113 0.0
C1391 C 0.74216 0.25877 0.86658 0.0
C1392 C 0.74083 0.28777 0.83991 0.0
C1393 C 0.73001 0.26934 0.85119 0.0
C1394 C 0.84733 0.28523 0.80763 0.0
C1395 C 0.77517 0.31353 0.83009 0.0
H1396 H 0.83047 0.30181 0.67792 0.0
H1397 H 0.87134 0.25923 0.6371 0.0
H1398 H 0.83991 0.23312 0.69598 0.0
H1399 H 0.86392 0.22799 0.66294 0.0
H1400 H 0.79394 0.29189 0.86338 0.0
H1401 H 0.73342 0.24443 0.87506 0.0
H1402 H 0.73122 0.29534 0.82753 0.0
H1403 H 0.71218 0.26302 0.84776 0.0
Tb1404 Tb 0.83461 0.82751 0.79709 0.0
C1405 C 0.75392 0.7729 0.73044 0.0
C1406 C 0.72302 0.78016 0.753 0.0
C1407 C 0.71929 0.77601 0.70935 0.0
C1408 C 0.74535 0.77774 0.75235 0.0
C1409 C 0.74072 0.77107 0.70863 0.0
C1410 C 0.7104 0.78046 0.73153 0.0
C1411 C 0.76907 0.75512 0.68718 0.0
N1412 N 0.77442 0.76743 0.73047 0.0
C1413 C 0.78136 0.75686 0.70928 0.0
C1414 C 0.74892 0.76287 0.68681 0.0
Tb1415 Tb 0.79405 0.77333 0.76776 0.0
N1416 N 0.75791 0.77677 0.77263 0.0
C1417 C 0.74802 0.77475 0.79346 0.0
C1418 C 0.71354 0.78036 0.77484 0.0
C1419 C 0.72591 0.77693 0.79498 0.0
H1420 H 0.79667 0.75033 0.70913 0.0
H1421 H 0.71842 0.77594 0.81171 0.0
H1422 H 0.69338 0.78281 0.73177 0.0
H1423 H 0.77509 0.74764 0.67046 0.0
H1424 H 0.75687 0.7716 0.80923 0.0
H1425 H 0.86964 0.90527 0.75764 0.0
H1426 H 0.69635 0.78177 0.77599 0.0
H1427 H 0.85854 0.78312 0.81465 0.0
H1428 H 0.83997 0.87681 0.772 0.0
H1429 H 0.89581 0.77615 0.82194 0.0
H1430 H 0.70902 0.77507 0.69281 0.0
H1431 H 0.90837 0.89942 0.76116 0.0
H1432 H 0.93565 0.87582 0.77528 0.0
H1433 H 0.7393 0.76121 0.66967 0.0
H1434 H 0.94283 0.84132 0.79374 0.0
N1435 N 0.8612 0.85365 0.78166 0.0
C1436 C 0.85668 0.87354 0.77284 0.0
C1437 C 0.8953 0.88659 0.76704 0.0
C1438 C 0.90006 0.86708 0.77723 0.0
C1439 C 0.87349 0.88991 0.76496 0.0
C1440 C 0.88242 0.85082 0.78449 0.0
H1441 H 0.92812 0.80417 0.81121 0.0
N1442 N 0.86874 0.81644 0.80117 0.0
C1443 C 0.89345 0.79204 0.81456 0.0
C1444 C 0.88639 0.83166 0.79488 0.0
C1445 C 0.8721 0.79651 0.81071 0.0
C1446 C 0.91163 0.80781 0.80841 0.0
C1447 C 0.90824 0.82782 0.79827 0.0
O1448 O 0.83779 0.83516 0.83527 0.0
O1449 O 0.80006 0.80864 0.79145 0.0
O1450 O 0.7983 0.79841 0.74164 0.0
O1451 O 0.82891 0.83013 0.75875 0.0
O1452 O 0.80665 0.84489 0.78978 0.0
O1453 O 0.83868 0.86409 0.81546 0.0
O1454 O 0.80701 0.74342 0.77589 0.0
O1455 O 0.82846 0.79075 0.77708 0.0
O1456 O 0.82921 0.80151 0.82197 0.0
O1457 O 0.79472 0.77682 0.80727 0.0
O1458 O 0.82057 0.7658 0.74506 0.0
O1459 O 0.77278 0.73851 0.7631 0.0
C1460 C 0.7908 0.82616 0.78886 0.0
C1461 C 0.81937 0.86701 0.85033 0.0
C1462 C 0.79107 0.89202 0.85461 0.0
C1463 C 0.80891 0.88494 0.84296 0.0
C1464 C 0.78383 0.88124 0.8741 0.0
C1465 C 0.81226 0.85687 0.87026 0.0
C1466 C 0.79455 0.86395 0.88201 0.0
C1467 C 0.81349 0.81843 0.74082 0.0
C1468 C 0.83675 0.85806 0.83643 0.0
C1469 C 0.92595 0.84396 0.79127 0.0
C1470 C 0.92186 0.86354 0.7807 0.0
C1471 C 0.83649 0.78121 0.75858 0.0
C1472 C 0.79075 0.70552 0.75073 0.0
C1473 C 0.80642 0.69201 0.75669 0.0
C1474 C 0.80905 0.67086 0.7408 0.0
C1475 C 0.79574 0.66337 0.71861 0.0
C1476 C 0.77752 0.69774 0.72852 0.0
C1477 C 0.78008 0.67677 0.71257 0.0
C1478 C 0.81171 0.78457 0.8242 0.0
C1479 C 0.78871 0.72761 0.76802 0.0
H1480 H 0.81415 0.89293 0.8276 0.0
H1481 H 0.77005 0.88637 0.88332 0.0
H1482 H 0.82003 0.84308 0.87641 0.0
H1483 H 0.78896 0.85579 0.89712 0.0
H1484 H 0.81682 0.69828 0.77369 0.0
H1485 H 0.7972 0.64701 0.70608 0.0
H1486 H 0.76524 0.70778 0.72343 0.0
H1487 H 0.76984 0.67084 0.6955 0.0
Tb1488 Tb 0.54344 0.53228 0.516 0.0
C1489 C 0.598 0.62276 0.58234 0.0
C1490 C 0.59901 0.65482 0.55877 0.0
C1491 C 0.60123 0.66527 0.60255 0.0
C1492 C 0.59679 0.62972 0.56014 0.0
C1493 C 0.60104 0.64058 0.60383 0.0
C1494 C 0.60025 0.6724 0.58003 0.0
C1495 C 0.60719 0.60915 0.62594 0.0
N1496 N 0.59841 0.59886 0.5828 0.0
C1497 C 0.60431 0.59221 0.60414 0.0
C1498 C 0.60504 0.63331 0.62585 0.0
Tb1499 Tb 0.59245 0.57246 0.54596 0.0
N1500 N 0.59608 0.61229 0.54006 0.0
C1501 C 0.60056 0.6193 0.51854 0.0
C1502 C 0.60136 0.6617 0.5363 0.0
C1503 C 0.60279 0.64393 0.51622 0.0
H1504 H 0.60642 0.57376 0.60462 0.0
H1505 H 0.60549 0.64916 0.49892 0.0
H1506 H 0.60157 0.69169 0.57931 0.0
H1507 H 0.61118 0.60358 0.64279 0.0
H1508 H 0.60181 0.60587 0.50282 0.0
H1509 H 0.52574 0.45991 0.56819 0.0
H1510 H 0.60314 0.68077 0.53448 0.0
H1511 H 0.53437 0.52801 0.45657 0.0
H1512 H 0.5318 0.50224 0.56145 0.0
H1513 H 0.52938 0.4961 0.41981 0.0
H1514 H 0.60323 0.67917 0.61886 0.0
H1515 H 0.52666 0.42567 0.53456 0.0
H1516 H 0.52865 0.41146 0.49015 0.0
H1517 H 0.6075 0.64645 0.64274 0.0
H1518 H 0.52952 0.42136 0.4494 0.0
N1519 N 0.5371 0.49296 0.52421 0.0
C1520 C 0.53224 0.48782 0.54636 0.0
C1521 C 0.52939 0.44438 0.53142 0.0
C1522 C 0.5325 0.44943 0.50837 0.0
C1523 C 0.52877 0.46364 0.55039 0.0
C1524 C 0.53604 0.47416 0.50532 0.0
H1525 H 0.52917 0.45285 0.42292 0.0
N1526 N 0.53768 0.50341 0.48067 0.0
C1527 C 0.53147 0.4912 0.43737 0.0
C1528 C 0.5364 0.47962 0.48262 0.0
C1529 C 0.53425 0.50926 0.45836 0.0
C1530 C 0.53147 0.46684 0.43919 0.0
C1531 C 0.53344 0.46068 0.46203 0.0
O1532 O 0.51541 0.53975 0.49785 0.0
O1533 O 0.56044 0.57082 0.527 0.0
O1534 O 0.56741 0.57653 0.5731 0.0
O1535 O 0.53895 0.54323 0.5559 0.0
O1536 O 0.54427 0.55976 0.49306 0.0
O1537 O 0.5132 0.52721 0.53162 0.0
O1538 O 0.61986 0.55601 0.55181 0.0
O1539 O 0.57537 0.53404 0.53471 0.0
O1540 O 0.56996 0.52701 0.49088 0.0
O1541 O 0.59613 0.56302 0.50578 0.0
O1542 O 0.59135 0.5449 0.56889 0.0
O1543 O 0.6244 0.59045 0.54016 0.0
C1544 C 0.55543 0.5786 0.50787 0.0
C1545 C 0.48027 0.51915 0.50543 0.0
C1546 C 0.4405 0.51803 0.50105 0.0
C1547 C 0.46232 0.5307 0.50919 0.0
C1548 C 0.43689 0.49343 0.48882 0.0
C1549 C 0.47655 0.49457 0.49342 0.0
C1550 C 0.45486 0.48178 0.48513 0.0
C1551 C 0.54814 0.56136 0.5746 0.0
C1552 C 0.50254 0.5337 0.5141 0.0
C1553 C 0.53153 0.43616 0.46496 0.0
C1554 C 0.53105 0.43053 0.48815 0.0
C1555 C 0.57985 0.52618 0.55396 0.0
C1556 C 0.65436 0.58296 0.56388 0.0
C1557 C 0.67138 0.56974 0.56159 0.0
C1558 C 0.69098 0.57706 0.57747 0.0
C1559 C 0.69328 0.59814 0.5957 0.0
C1560 C 0.65703 0.60409 0.58197 0.0
C1561 C 0.67642 0.61155 0.59784 0.0
C1562 C 0.58812 0.54336 0.48819 0.0
C1563 C 0.63415 0.5741 0.54701 0.0
H1564 H 0.46547 0.54987 0.51814 0.0
H1565 H 0.42024 0.48318 0.48234 0.0
H1566 H 0.49029 0.4854 0.4904 0.0
H1567 H 0.45197 0.46281 0.47581 0.0
H1568 H 0.66938 0.55387 0.54709 0.0
H1569 H 0.70799 0.60416 0.60846 0.0
H1570 H 0.64427 0.61483 0.58381 0.0
H1571 H 0.67837 0.62778 0.61187 0.0
Tb1572 Tb 0.09653 0.55656 0.02099 0.0
C1573 C 0.02434 0.49914 0.07217 0.0
C1574 C 1.00686 0.46228 0.04358 0.0
C1575 C 1.00849 0.462 0.08662 0.0
C1576 C 0.01844 0.48703 0.04868 0.0
C1577 C 0.01916 0.48697 0.09151 0.0
C1578 C 1.00233 0.44967 0.06266 0.0
C1579 C 0.03405 0.52544 0.11891 0.0
N1580 N 0.03443 0.52325 0.07603 0.0
C1581 C 0.03871 0.53672 0.0991 0.0
C1582 C 0.02442 0.50039 0.11513 0.0
Tb1583 Tb 0.04241 0.53993 0.04245 0.0
N1584 N 0.02302 0.49997 0.03087 0.0
C1585 C 0.01488 0.48961 1.0075 0.0
C1586 C 0.99965 0.45121 0.01953 0.0
C1587 C 1.0034 0.46507 1.00145 0.0
H1588 H 0.04634 0.55603 0.1024 0.0
H1589 H 0.99756 0.45685 0.98281 0.0
H1590 H 0.99365 0.43058 0.05911 0.0
H1591 H 0.03793 0.53609 0.1371 0.0
H1592 H 0.01773 0.49984 0.99322 0.0
H1593 H 0.13955 0.63947 0.08223 0.0
H1594 H 0.99077 0.43221 0.01481 0.0
H1595 H 0.09439 0.54119 0.96127 0.0
H1596 H 0.12028 0.59617 0.07101 0.0
H1597 H 0.10309 0.56185 0.92699 0.0
H1598 H 1.00451 0.45224 0.10121 0.0
H1599 H 0.14621 0.66486 0.05081 0.0
H1600 H 0.14384 0.66721 1.00665 0.0
H1601 H 0.02076 0.49172 0.1305 0.0
H1602 H 0.13404 0.646 0.96426 0.0
N1603 N 0.11525 0.59668 0.03341 0.0
C1604 C 0.12303 0.60676 0.05695 0.0
C1605 C 0.13769 0.64575 0.04572 0.0
C1606 C 0.13094 0.63495 0.02151 0.0
C1607 C 0.13402 0.63146 0.06347 0.0
C1608 C 0.11983 0.61004 0.01591 0.0
H1609 H 0.11912 0.60656 0.93434 0.0
N1610 N 0.10495 0.57393 0.98795 0.0
C1611 C 0.10634 0.57233 0.94528 0.0
C1612 C 0.11449 0.5982 0.99226 0.0
C1613 C 0.10152 0.56066 0.96481 0.0
C1614 C 0.11532 0.59757 0.94948 0.0
C1615 C 0.11983 0.61079 0.97324 0.0
O1616 O 0.11853 0.53563 1.00499 0.0
O1617 O 0.06951 0.52722 0.02537 0.0
O1618 O 0.06656 0.52692 0.06438 0.0
O1619 O 0.09802 0.55528 0.05972 0.0
O1620 O 0.08597 0.521 0.99566 0.0
O1621 O 0.12546 0.55506 0.04184 0.0
O1622 O 0.02117 0.56193 0.05835 0.0
O1623 O 0.06922 0.56937 0.03759 0.0
O1624 O 0.07237 0.56851 0.99829 0.0
O1625 O 0.04064 0.54064 1.00349 0.0
O1626 O 0.05355 0.57517 0.06795 0.0
O1627 O 1.01317 0.54137 0.02199 0.0
C1628 C 0.07037 0.51106 1.00703 0.0
C1629 C 0.15626 0.54843 0.02085 0.0
C1630 C 0.19373 0.54008 0.02396 0.0
C1631 C 0.17081 0.53328 0.02616 0.0
C1632 C 0.20178 0.56227 0.01624 0.0
C1633 C 0.16462 0.57038 1.01307 0.0
C1634 C 0.18729 0.57722 1.01078 0.0
C1635 C 0.0874 0.53861 0.07115 0.0
C1636 C 0.13258 0.54132 0.02428 0.0
C1637 C 0.12996 0.63591 0.9786 0.0
C1638 C 0.13552 0.64799 1.00273 0.0
C1639 C 0.06873 0.58532 0.05623 0.0
C1640 C 0.98317 0.54986 0.04369 0.0
C1641 C 0.96891 0.56541 0.03851 0.0
C1642 C 0.94615 0.55962 0.0419 0.0
C1643 C 0.93803 0.5381 0.05076 0.0
C1644 C 0.97469 0.52858 0.05253 0.0
C1645 C 0.95222 0.52278 0.05605 0.0
C1646 C 0.05178 0.55624 0.99123 0.0
C1647 C 1.00672 0.55599 0.03939 0.0
H1648 H 0.16433 0.51642 0.03242 0.0
H1649 H 0.21925 0.56791 0.01409 0.0
H1650 H 0.1537 0.58224 1.00889 0.0
H1651 H 0.19366 0.5942 1.00475 0.0
H1652 H 0.97548 0.58175 0.03146 0.0
H1653 H 0.92072 0.53325 0.0539 0.0
H1654 H 0.98539 0.51647 0.05665 0.0
H1655 H 0.94577 0.50633 0.06293 0.0
H1656 H 0.05051 0.23094 0.9992 0.0
H1657 H 0.01622 0.18517 0.93326 0.0
H1658 H 0.05695 0.19402 0.01385 0.0
H1659 H 0.02224 0.14859 0.94782 0.0
H1660 H 0.05625 0.08908 0.96515 0.0
H1661 H 0.05092 0.12744 0.95417 0.0
H1662 H 0.04137 0.1554 0.0281 0.0
H1663 H 0.04703 0.11635 0.03917 0.0
C1664 C 0.04414 0.21304 0.98787 0.0
C1665 C 0.03286 0.21131 0.96489 0.0
C1666 C 0.04779 0.19174 0.99635 0.0
C1667 C 0.04042 0.16794 0.98206 0.0
C1668 C 0.02871 0.16636 0.95934 0.0
C1669 C 0.02504 0.18752 0.95096 0.0
C1670 C 0.05323 0.10345 0.97923 0.0
C1671 C 0.05247 0.09954 1.00314 0.0
C1672 C 0.04992 0.12556 0.97284 0.0
C1673 C 0.0453 0.14484 0.99001 0.0
C1674 C 0.04492 0.14122 0.01422 0.0
C1675 C 0.04826 0.1188 0.02067 0.0
H1676 H 0.1537 0.83595 0.20057 0.0
H1677 H 0.17867 0.80539 0.13488 0.0
H1678 H 0.18652 0.8311 0.22407 0.0
H1679 H 0.21182 0.80079 0.15839 0.0
H1680 H 0.25726 0.77245 0.2111 0.0
H1681 H 0.22499 0.77747 0.18657 0.0
H1682 H 0.22542 0.84653 0.23393 0.0
H1683 H 0.25749 0.84152 0.25827 0.0
C1684 C 0.16631 0.8284 0.19107 0.0
C1685 C 0.16345 0.8212 0.16573 0.0
C1686 C 0.18529 0.82568 0.2046 0.0
C1687 C 0.2021 0.81553 0.19331 0.0
C1688 C 0.19926 0.80841 0.1679 0.0
C1689 C 0.18027 0.81126 0.15433 0.0
C1690 C 0.25073 0.78891 0.21609 0.0
C1691 C 0.26051 0.80676 0.23658 0.0
C1692 C 0.23208 0.79179 0.20198 0.0
C1693 C 0.22237 0.81249 0.20804 0.0
C1694 C 0.23207 0.83018 0.22866 0.0
C1695 C 0.25072 0.82735 0.24265 0.0
H1696 H 0.56033 0.86663 0.43892 0.0
H1697 H 0.52412 0.85242 0.49968 0.0
H1698 H 0.56488 0.91064 0.45326 0.0
H1699 H 0.52865 0.89713 0.5142 0.0
H1700 H 0.56462 0.98273 0.54104 0.0
H1701 H 0.55704 0.93736 0.53067 0.0
H1702 H 0.5414 0.94072 0.45596 0.0
H1703 H 0.54892 0.98547 0.46631 0.0
C1704 C 0.55334 0.87286 0.45545 0.0
C1705 C 0.54175 0.85573 0.46801 0.0
C1706 C 0.55584 0.89828 0.46364 0.0
C1707 C 0.5469 0.90771 0.48479 0.0
C1708 C 0.53581 0.89066 0.49786 0.0
C1709 C 0.53315 0.86499 0.4895 0.0
C1710 C 0.55903 0.97367 0.52254 0.0
C1711 C 0.55712 0.98776 0.50452 0.0
C1712 C 0.55477 0.94764 0.51654 0.0
C1713 C 0.54894 0.93517 0.49233 0.0
C1714 C 0.54628 0.94946 0.47468 0.0
C1715 C 0.55043 0.97521 0.48065 0.0
H1716 H 0.52553 0.29673 0.64401 0.0
H1717 H 0.56569 0.35067 0.70156 0.0
H1718 H 0.49511 0.29175 0.66953 0.0
H1719 H 0.53499 0.34678 0.72677 0.0
H1720 H 0.48718 0.31379 0.7761 0.0
H1721 H 0.5162 0.32126 0.74976 0.0
H1722 H 0.46669 0.30688 0.68862 0.0
H1723 H 0.43755 0.29754 0.71496 0.0
C1724 C 0.52774 0.30784 0.66202 0.0
C1725 C 0.54813 0.32399 0.67077 0.0
C1726 C 0.51017 0.30512 0.6767 0.0
C1727 C 0.51237 0.31871 0.70049 0.0
C1728 C 0.53264 0.33547 0.70887 0.0
C1729 C 0.55029 0.3379 0.69431 0.0
C1730 C 0.48236 0.3119 0.75701 0.0
C1731 C 0.45983 0.30459 0.74778 0.0
C1732 C 0.49915 0.31666 0.74181 0.0
C1733 C 0.49408 0.3147 0.7168 0.0
C1734 C 0.47147 0.30821 0.70764 0.0
C1735 C 0.45462 0.30318 0.72288 0.0
H1736 H 0.03139 0.86653 0.6673 0.0
H1737 H 0.08429 0.8283 0.64959 0.0
H1738 H 0.04138 0.89164 0.63685 0.0
H1739 H 0.09451 0.85358 0.61964 0.0
H1740 H 0.08655 0.87875 0.54772 0.0
H1741 H 0.07814 0.85649 0.58033 0.0
H1742 H 0.0705 0.92358 0.62624 0.0
H1743 H 0.07897 0.94598 0.59344 0.0
C1744 C 0.04531 0.86372 0.65713 0.0
C1745 C 0.05696 0.84535 0.66069 0.0
C1746 C 0.05109 0.87815 0.63977 0.0
C1747 C 0.0686 0.87443 0.62566 0.0
C1748 C 0.08067 0.85659 0.62987 0.0
C1749 C 0.0749 0.8422 0.64714 0.0
C1750 C 0.08335 0.88885 0.56485 0.0
C1751 C 0.08355 0.91416 0.56802 0.0
C1752 C 0.07853 0.87608 0.58356 0.0
C1753 C 0.07379 0.8883 0.60594 0.0
C1754 C 0.07387 0.91361 0.60913 0.0
C1755 C 0.07873 0.92642 0.59036 0.0
H1756 H 0.56177 0.8092 0.81988 0.0
H1757 H 0.54071 0.84505 0.88598 0.0
H1758 H 0.52977 0.81733 0.79692 0.0
H1759 H 0.5092 0.85337 0.8631 0.0
H1760 H 0.47398 0.89146 0.81265 0.0
H1761 H 0.50707 0.88147 0.83133 0.0
H1762 H 0.48584 0.80576 0.79474 0.0
H1763 H 0.45262 0.81574 0.7761 0.0
C1764 C 0.55018 0.81849 0.8295 0.0
C1765 C 0.55372 0.82651 0.8547 0.0
C1766 C 0.53197 0.82319 0.81639 0.0
C1767 C 0.51732 0.83632 0.82826 0.0
C1768 C 0.5205 0.84359 0.8535 0.0
C1769 C 0.53842 0.8386 0.86659 0.0
C1770 C 0.47665 0.87283 0.8082 0.0
C1771 C 0.46078 0.85434 0.79305 0.0
C1772 C 0.49543 0.86707 0.81903 0.0
C1773 C 0.49879 0.8428 0.81463 0.0
C1774 C 0.48359 0.82459 0.79838 0.0
C1775 C 0.46463 0.83028 0.78781 0.0
H1776 H 0.50906 0.23157 0.12866 0.0
H1777 H 0.55822 0.2192 0.18035 0.0
H1778 H 0.51589 0.19712 0.09927 0.0
H1779 H 0.56441 0.18433 0.15157 0.0
H1780 H 0.59042 0.14414 0.08758 0.0
H1781 H 0.58166 0.17819 0.11523 0.0
H1782 H 0.51203 0.15298 0.08973 0.0
H1783 H 0.52097 0.11915 0.0613 0.0
C1784 C 0.52109 0.22126 0.1338 0.0
C1785 C 0.53329 0.22813 0.15662 0.0
C1786 C 0.52494 0.20149 0.11705 0.0
C1787 C 0.5409 0.18818 0.12297 0.0
C1788 C 0.55243 0.1946 0.14619 0.0
C1789 C 0.54879 0.21447 0.16275 0.0
C1790 C 0.57324 0.14586 0.08779 0.0
C1791 C 0.55637 0.12891 0.07237 0.0
C1792 C 0.56819 0.16531 0.10378 0.0
C1793 C 0.5461 0.16809 0.10497 0.0
C1794 C 0.52923 0.15142 0.08916 0.0
C1795 C 0.53433 0.13202 0.07293 0.0
H1796 H 0.1899 0.33193 0.3937 0.0
H1797 H 0.14941 0.3221 0.32612 0.0
H1798 H 0.22276 0.33129 0.37186 0.0
H1799 H 0.18245 0.32139 0.30423 0.0
H1800 H 0.2542 0.34877 0.28071 0.0
H1801 H 0.21987 0.35052 0.30041 0.0
H1802 H 0.23506 0.29834 0.34314 0.0
H1803 H 0.26877 0.29682 0.32393 0.0
C1804 C 0.18803 0.32959 0.37418 0.0
C1805 C 0.1671 0.32687 0.36159 0.0
C1806 C 0.20681 0.32923 0.3617 0.0
C1807 C 0.20507 0.32627 0.33638 0.0
C1808 C 0.18422 0.32391 0.32376 0.0
C1809 C 0.16535 0.3241 0.33627 0.0
C1810 C 0.24995 0.33755 0.29414 0.0
C1811 C 0.26381 0.32208 0.30024 0.0
C1812 C 0.23038 0.33848 0.30532 0.0
C1813 C 0.22492 0.3246 0.32332 0.0
C1814 C 0.23892 0.30934 0.32944 0.0
C1815 C 0.25816 0.30821 0.31813 0.0
H1816 H 1.01013 0.09659 0.22785 0.0
H1817 H 0.95176 0.04635 0.19059 0.0
H1818 H 0.02842 0.0932 0.19041 0.0
H1819 H 0.9697 0.0431 0.15304 0.0
H1820 H 1.01054 0.02652 0.08784 0.0
H1821 H 0.99264 0.03011 0.12531 0.0
H1822 H 0.03715 0.0999 0.15247 0.0
H1823 H 0.05507 0.09604 0.11487 0.0
C1824 C 1.00096 0.08479 0.21172 0.0
C1825 C 0.97904 0.07182 0.21314 0.0
C1826 C 1.01161 0.08287 0.18969 0.0
C1827 C 1.00115 0.06774 0.16744 0.0
C1828 C 0.97916 0.0548 0.16902 0.0
C1829 C 0.96852 0.05679 0.19101 0.0
C1830 C 0.0167 0.04276 0.10166 0.0
C1831 C 0.03486 0.06079 0.09742 0.0
C1832 C 1.00611 0.04498 0.12366 0.0
C1833 C 1.01285 0.06541 0.1432 0.0
C1834 C 0.03103 0.0835 0.13886 0.0
C1835 C 0.04157 0.0813 0.11677 0.0
H1836 H 0.2906 0.66483 0.441 0.0
H1837 H 0.31743 0.73425 0.4891 0.0
H1838 H 0.27928 0.68674 0.41033 0.0
H1839 H 0.30576 0.75613 0.45863 0.0
H1840 H 0.29273 0.78914 0.39295 0.0
H1841 H 0.31014 0.76616 0.41864 0.0
H1842 H 0.24988 0.71008 0.40778 0.0
H1843 H 0.2328 0.73264 0.38132 0.0
C1844 C 0.29445 0.68478 0.44484 0.0
C1845 C 0.30472 0.69785 0.4675 0.0
C1846 C 0.28779 0.6973 0.42737 0.0
C1847 C 0.29129 0.72313 0.43222 0.0
C1848 C 0.3029 0.73623 0.4543 0.0
C1849 C 0.30956 0.7237 0.47178 0.0
C1850 C 0.28334 0.77171 0.39576 0.0
C1851 C 0.26142 0.76264 0.38509 0.0
C1852 C 0.29325 0.75867 0.41064 0.0
C1853 C 0.28142 0.73627 0.41518 0.0
C1854 C 0.25955 0.7271 0.40434 0.0
C1855 C 0.24964 0.74017 0.38947 0.0
H1856 H 0.69674 0.04579 0.68256 0.0
H1857 H 0.63646 1.01025 0.70783 0.0
H1858 H 0.67631 0.04468 0.64385 0.0
H1859 H 0.61577 1.01052 0.67007 0.0
H1860 H 0.58328 1.00367 0.59528 0.0
H1861 H 0.60632 0.99684 0.62907 0.0
H1862 H 0.65162 0.06576 0.62886 0.0
H1863 H 0.62937 0.07168 0.59446 0.0
C1864 C 0.67917 0.03757 0.67974 0.0
C1865 C 0.66819 0.02823 0.69822 0.0
C1866 C 0.66735 0.03716 0.65766 0.0
C1867 C 0.64421 0.0279 0.65382 0.0
C1868 C 0.63354 1.01753 0.67205 0.0
C1869 C 0.64543 1.0175 0.69386 0.0
C1870 C 0.59825 1.01724 0.60244 0.0
C1871 C 0.60449 0.03822 0.59223 0.0
C1872 C 0.61146 1.0134 0.62189 0.0
C1873 C 0.63098 0.03072 0.63185 0.0
C1874 C 0.63711 0.05166 0.62145 0.0
C1875 C 0.62416 0.05523 0.60179 0.0
H1876 H 0.34622 0.33626 0.97898 0.0
H1877 H 0.29301 0.3733 0.96515 0.0
H1878 H 0.34568 0.3213 0.93519 0.0
H1879 H 0.29263 0.35861 0.92198 0.0
H1880 H 0.32319 0.36443 0.85185 0.0
H1881 H 0.325 0.37213 0.89576 0.0
H1882 H 0.31697 0.29424 0.89488 0.0
H1883 H 0.31476 0.28641 0.85025 0.0
C1884 C 0.33413 0.34076 0.9667 0.0
C1885 C 0.31979 0.35616 0.97555 0.0
C1886 C 0.33384 0.3322 0.9417 0.0
C1887 C 0.31931 0.33908 0.92523 0.0
C1888 C 0.3042 0.35328 0.93424 0.0
C1889 C 0.30439 0.36164 0.95903 0.0
C1890 C 0.32213 0.34895 0.86101 0.0
C1891 C 0.31911 0.32489 0.8477 0.0
C1892 C 0.32309 0.35334 0.88613 0.0
C1893 C 0.3209 0.33378 0.89872 0.0
C1894 C 0.31875 0.30965 0.88558 0.0
C1895 C 0.31759 0.30518 0.86015 0.0
H1896 H 1.01276 0.06773 0.33916 0.0
H1897 H 0.95492 0.07968 0.37435 0.0
H1898 H 0.03044 0.06169 0.37723 0.0
H1899 H 0.97247 0.0744 0.41235 0.0
H1900 H 0.99943 0.04962 0.4788 0.0
H1901 H 0.98341 0.05433 0.44008 0.0
H1902 H 0.0489 0.06937 0.41618 0.0
H1903 H 0.06492 0.06394 0.45556 0.0
C1904 C 1.00368 0.06931 0.35498 0.0
C1905 C 0.98198 0.07435 0.3528 0.0
C1906 C 1.01404 0.06583 0.37732 0.0
C1907 C 1.00342 0.0671 0.39912 0.0
C1908 C 0.98178 0.07247 0.39677 0.0
C1909 C 0.97147 0.07585 0.3745 0.0
C1910 C 1.01065 0.05372 0.46534 0.0
C1911 C 0.03376 0.05589 0.47112 0.0
C1912 C 1.00127 0.05682 0.44263 0.0
C1913 C 1.01429 0.06282 0.42376 0.0
C1914 C 0.03761 0.06475 0.42938 0.0
C1915 C 0.04707 0.0615 0.45236 0.0
H1916 H 0.28418 0.66917 0.60678 0.0
H1917 H 0.33344 0.73002 0.59383 0.0
H1918 H 0.28047 0.69244 0.64623 0.0
H1919 H 0.33049 0.7531 0.63395 0.0
H1920 H 0.3048 0.79734 0.69725 0.0
H1921 H 0.30615 0.77425 0.65673 0.0
H1922 H 0.29909 0.70701 0.68506 0.0
H1923 H 0.29702 0.72985 0.72501 0.0
C1924 C 0.29453 0.68739 0.61258 0.0
C1925 C 0.30918 0.69775 0.59728 0.0
C1926 C 0.29243 0.70076 0.63525 0.0
C1927 C 0.30514 0.7247 0.64332 0.0
C1928 C 0.32013 0.73489 0.62815 0.0
C1929 C 0.32204 0.72158 0.60529 0.0
C1930 C 0.30323 0.77757 0.69468 0.0
C1931 C 0.30092 0.76546 0.71438 0.0
C1932 C 0.30423 0.76436 0.67152 0.0
C1933 C 0.30296 0.73876 0.66762 0.0
C1934 C 0.29986 0.72663 0.68725 0.0
C1935 C 0.29869 0.73978 0.71028 0.0
H1936 H 0.62132 0.06226 0.77666 0.0
H1937 H 0.64458 0.02432 0.83007 0.0
H1938 H 0.5867 0.06209 0.79547 0.0
H1939 H 0.61045 0.02483 0.84934 0.0
H1940 H 0.54595 1.01808 0.87698 0.0
H1941 H 0.57124 1.00964 0.84643 0.0
H1942 H 0.57612 0.08327 0.83214 0.0
H1943 H 0.5502 0.09115 0.862 0.0
C1944 C 0.61899 0.05386 0.79241 0.0
C1945 C 0.63568 0.0435 0.80209 0.0
C1946 C 0.59919 0.05376 0.80317 0.0
C1947 C 0.59575 0.04342 0.82388 0.0
C1948 C 0.6123 0.03251 0.83312 0.0
C1949 C 0.632 0.03246 0.82227 0.0
C1950 C 0.5518 0.03202 0.86654 0.0
C1951 C 0.54634 0.05526 0.87179 0.0
C1952 C 0.56645 0.02734 0.84929 0.0
C1953 C 0.57615 0.046 0.83732 0.0
C1954 C 0.56892 0.06845 0.84095 0.0
C1955 C 0.55404 0.073 0.85802 0.0
H1956 H 0.35788 0.3571 0.10809 0.0
H1957 H 0.29008 0.36639 0.10922 0.0
H1958 H 0.35505 0.34074 0.14538 0.0
H1959 H 0.28733 0.35052 0.14662 0.0
H1960 H 0.35009 0.3408 0.22641 0.0
H1961 H 0.35282 0.35425 0.18786 0.0
H1962 H 0.28575 0.31425 0.16397 0.0
H1963 H 0.28274 0.30153 0.20293 0.0
C1964 C 0.34233 0.35554 0.11623 0.0
C1965 C 0.32421 0.36305 0.10564 0.0
C1966 C 0.34075 0.34633 0.13774 0.0
C1967 C 0.32097 0.34433 0.14919 0.0
C1968 C 0.30274 0.35145 0.13827 0.0
C1969 C 0.30435 0.3607 0.11683 0.0
C1970 C 0.33578 0.33512 0.21311 0.0
C1971 C 0.31598 0.32056 0.21816 0.0
C1972 C 0.33747 0.34255 0.19077 0.0
C1973 C 0.31946 0.33552 0.1727 0.0
C1974 C 0.29984 0.32045 0.17755 0.0
C1975 C 0.29814 0.31303 0.19992 0.0
H1976 H 0.31843 0.03279 0.0627 0.0
H1977 H 0.26673 0.97077 0.02875 0.0
H1978 H 0.29128 0.05922 0.06626 0.0
H1979 H 0.23957 0.99714 0.03251 0.0
H1980 H 0.20154 0.05594 0.02041 0.0
H1981 H 0.23049 0.03205 0.01576 0.0
H1982 H 0.25866 0.06454 0.08882 0.0
H1983 H 0.22952 0.08838 0.09357 0.0
C1984 C 0.30126 0.02481 0.05599 0.0
C1985 C 0.29468 0.99972 0.04542 0.0
C1986 C 0.28572 0.03993 0.05815 0.0
C1987 C 0.26331 0.03029 0.04962 0.0
C1988 C 0.25677 1.00519 0.03896 0.0
C1989 C 0.27229 0.99005 0.03693 0.0
C1990 C 0.21391 0.05799 0.0355 0.0
C1991 C 0.21309 0.07385 0.05747 0.0
C1992 C 0.23046 0.04428 0.03283 0.0
C1993 C 0.24668 0.04619 0.05201 0.0
C1994 C 0.24645 0.06279 0.07366 0.0
C1995 C 0.2298 0.07648 0.07637 0.0
H1996 H 0.72434 0.68697 0.02904 0.0
H1997 H 0.74526 0.61957 1.00115 0.0
H1998 H 0.68658 0.66382 0.02892 0.0
H1999 H 0.70755 0.59626 1.00151 0.0
H2000 H 0.63226 0.56511 0.98596 0.0
H2001 H 0.6694 0.58847 0.98281 0.0
H2002 H 0.66709 0.63539 0.05142 0.0
H2003 H 0.63022 0.61235 0.05448 0.0
C2004 C 0.72086 0.66719 0.02287 0.0
C2005 C 0.7378 0.65509 0.01521 0.0
C2006 C 0.69923 0.65388 0.02291 0.0
C2007 C 0.69401 0.62812 0.01536 0.0
C2008 C 0.7109 0.61608 1.00722 0.0
C2009 C 0.73256 0.62942 1.00716 0.0
C2010 C 0.63977 0.58026 1.00046 0.0
C2011 C 0.62829 0.58657 0.02061 0.0
C2012 C 0.66106 0.59369 0.99864 0.0
C2013 C 0.67126 0.61386 0.01686 0.0
C2014 C 0.65965 0.62024 0.03686 0.0
C2015 C 0.63847 0.60685 0.03868 0.0
H2016 H 0.70051 0.43727 0.29829 0.0
H2017 H 0.74982 0.46994 0.25648 0.0
H2018 H 0.71979 0.40317 0.29932 0.0
H2019 H 0.76887 0.43529 0.25684 0.0
H2020 H 0.78824 0.35374 0.24676 0.0
H2021 H 0.77034 0.38907 0.24375 0.0
H2022 H 0.75208 0.39036 0.31615 0.0
H2023 H 0.77054 0.35648 0.31946 0.0
C2024 C 0.71542 0.43738 0.2891 0.0
C2025 C 0.72308 0.45734 0.27735 0.0
C2026 C 0.7268 0.41742 0.28975 0.0
C2027 C 0.7465 0.41542 0.27819 0.0
C2028 C 0.75395 0.43517 0.266 0.0
C2029 C 0.74284 0.45552 0.26587 0.0
C2030 C 0.78085 0.36173 0.2623 0.0
C2031 C 0.78178 0.35159 0.28368 0.0
C2032 C 0.77023 0.38232 0.26054 0.0
C2033 C 0.75906 0.39352 0.27964 0.0
C2034 C 0.75987 0.38299 0.30064 0.0
C2035 C 0.77085 0.36312 0.30259 0.0
H2036 H 0.90398 0.49026 0.50376 0.0
H2037 H 0.90503 0.51312 0.581 0.0
H2038 H 0.94376 0.50617 0.50657 0.0
H2039 H 0.94506 0.53014 0.58352 0.0
H2040 H 0.01492 0.57403 0.56912 0.0
H2041 H 0.97429 0.56349 0.56599 0.0
H2042 H 0.97559 0.48997 0.52933 0.0
H2043 H 0.01626 0.50064 0.53248 0.0
C2044 C 0.9126 0.49943 0.52122 0.0
C2045 C 0.90146 0.50042 0.54218 0.0
C2046 C 0.93541 0.50846 0.52279 0.0
C2047 C 0.94743 0.51934 0.5452 0.0
C2048 C 0.93609 0.52189 0.56601 0.0
C2049 C 0.91326 0.51221 0.56456 0.0
C2050 C 1.00649 0.55588 0.5598 0.0
C2051 C 0.0185 0.53857 0.54953 0.0
C2052 C 0.9833 0.54977 0.55834 0.0
C2053 C 0.9719 0.52612 0.54698 0.0
C2054 C 0.98403 0.50853 0.53766 0.0
C2055 C 1.00718 0.51462 0.5393 0.0
H2056 H 0.42455 0.13812 0.30213 0.0
H2057 H 0.38676 0.07965 0.24661 0.0
H2058 H 0.40691 0.16788 0.28578 0.0
H2059 H 0.36942 0.10933 0.23008 0.0
H2060 H 0.3254 0.1649 0.22358 0.0
H2061 H 0.34313 0.13557 0.24022 0.0
H2062 H 0.40613 0.1872 0.25003 0.0
H2063 H 0.38814 0.21685 0.23397 0.0
C2064 C 0.41246 0.13164 0.28647 0.0
C2065 C 0.40699 0.10655 0.27569 0.0
C2066 C 0.40248 0.1487 0.27699 0.0
C2067 C 0.38678 0.141 0.25659 0.0
C2068 C 0.38125 0.11585 0.24596 0.0
C2069 C 0.39125 0.09884 0.25539 0.0
C2070 C 0.34302 0.17003 0.22936 0.0
C2071 C 0.35537 0.19324 0.22752 0.0
C2072 C 0.35323 0.15313 0.23871 0.0
C2073 C 0.37605 0.15902 0.24648 0.0
C2074 C 0.38847 0.18218 0.24446 0.0
C2075 C 0.37824 0.19906 0.235 0.0
H2076 H 0.37491 0.18678 0.56086 0.0
H2077 H 0.34103 0.12522 0.50606 0.0
H2078 H 0.40304 0.16344 0.56973 0.0
H2079 H 0.36929 0.10205 0.51471 0.0
H2080 H 0.43763 0.07937 0.52177 0.0
H2081 H 0.41105 0.10418 0.51184 0.0
H2082 H 0.40297 0.12452 0.58758 0.0
H2083 H 0.4294 0.09962 0.59747 0.0
C2084 C 0.37359 0.16837 0.55056 0.0
C2085 C 0.35575 0.15783 0.53277 0.0
C2086 C 0.38962 0.15496 0.55573 0.0
C2087 C 0.38836 0.1309 0.54293 0.0
C2088 C 0.3708 0.12061 0.52475 0.0
C2089 C 0.35458 0.13385 0.51987 0.0
C2090 C 0.43024 0.08925 0.53628 0.0
C2091 C 0.43555 0.0875 0.56039 0.0
C2092 C 0.41495 0.10333 0.53059 0.0
C2093 C 0.40494 0.11632 0.54893 0.0
C2094 C 0.41053 0.11487 0.57307 0.0
C2095 C 0.42552 0.10047 0.57872 0.0
H2096 H 0.69672 0.61312 0.28177 0.0
H2097 H 0.75901 0.59066 0.29117 0.0
H2098 H 0.7164 0.6553 0.28302 0.0
H2099 H 0.77899 0.63298 0.29201 0.0
H2100 H 0.81051 0.71726 0.3106 0.0
H2101 H 0.79147 0.67486 0.31061 0.0
H2102 H 0.73676 0.68434 0.2644 0.0
H2103 H 0.75567 0.72644 0.26462 0.0
C2104 C 0.7147 0.61705 0.28409 0.0
C2105 C 0.72596 0.59785 0.28637 0.0
C2106 C 0.72621 0.6416 0.28461 0.0
C2107 C 0.74974 0.64847 0.28746 0.0
C2108 C 0.76102 0.62921 0.29 0.0
C2109 C 0.74944 0.60457 0.28941 0.0
C2110 C 0.79451 0.71035 0.30024 0.0
C2111 C 0.7851 0.72595 0.28742 0.0
C2112 C 0.7834 0.68565 0.30021 0.0
C2113 C 0.76213 0.67524 0.28752 0.0
C2114 C 0.75276 0.69102 0.27484 0.0
C2115 C 0.76388 0.71557 0.27481 0.0
H2116 H 0.88495 0.47344 0.7527 0.0
H2117 H 0.92188 0.46572 0.81745 0.0
H2118 H 0.86452 0.43086 0.74811 0.0
H2119 H 0.90156 0.4232 0.8127 0.0
H2120 H 0.82023 0.359 0.76434 0.0
H2121 H 0.83745 0.40283 0.77017 0.0
H2122 H 0.90217 0.38531 0.77978 0.0
H2123 H 0.88491 0.3416 0.77409 0.0
C2124 C 0.88851 0.46274 0.76607 0.0
C2125 C 0.9051 0.47278 0.78532 0.0
C2126 C 0.87678 0.43846 0.76348 0.0
C2127 C 0.88168 0.42378 0.77992 0.0
C2128 C 0.8977 0.4341 0.79963 0.0
C2129 C 0.90923 0.45843 0.80239 0.0
C2130 C 0.83809 0.36461 0.76793 0.0
C2131 C 0.85126 0.34719 0.76976 0.0
C2132 C 0.84793 0.38959 0.77102 0.0
C2133 C 0.87107 0.3974 0.77587 0.0
C2134 C 0.88425 0.37978 0.77659 0.0
C2135 C 0.87443 0.35484 0.77317 0.0
H2136 H 0.0797 0.86536 0.06123 0.0
H2137 H 0.11626 0.91049 0.12633 0.0
H2138 H 0.07402 0.90263 0.04676 0.0
H2139 H 0.11088 0.94741 0.11196 0.0
H2140 H 0.07709 1.00773 0.09559 0.0
H2141 H 0.0821 0.96916 0.10637 0.0
H2142 H 0.0909 0.94112 0.03223 0.0
H2143 H 0.08573 0.98044 0.0214 0.0
C2144 C 0.08672 0.88318 0.07241 0.0
C2145 C 0.09843 0.88465 0.0951 0.0
C2146 C 0.08352 0.90467 0.06403 0.0
C2147 C 0.09173 0.9284 0.07815 0.0
C2148 C 0.10383 0.92971 0.10058 0.0
C2149 C 0.1071 0.90836 0.10885 0.0
C2150 C 0.07991 0.99331 0.08143 0.0
C2151 C 0.08057 0.99726 0.05751 0.0
C2152 C 0.08301 0.97108 0.0877 0.0
C2153 C 0.08725 0.95171 0.07039 0.0
C2154 C 0.08761 0.95539 0.0462 0.0
C2155 C 0.08454 0.97795 0.03988 0.0
H2156 H 0.97748 0.26186 0.85879 0.0
H2157 H 0.94773 0.27967 0.92497 0.0
H2158 H 0.9436 0.26413 0.83547 0.0
H2159 H 0.91347 0.28135 0.90167 0.0
H2160 H 0.86431 0.3092 0.85391 0.0
H2161 H 0.89687 0.3047 0.87784 0.0
H2162 H 0.90613 0.24597 0.82166 0.0
H2163 H 0.87372 0.25085 0.79756 0.0
C2164 C 0.9636 0.266 0.86842 0.0
C2165 C 0.96551 0.27056 0.89388 0.0
C2166 C 0.94397 0.26718 0.85496 0.0
C2167 C 0.92544 0.27296 0.86643 0.0
C2168 C 0.9273 0.27721 0.89196 0.0
C2169 C 0.94698 0.27605 0.90544 0.0
C2170 C 0.87322 0.29529 0.84651 0.0
C2171 C 0.86642 0.28085 0.82323 0.0
C2172 C 0.89199 0.29256 0.86047 0.0
C2173 C 0.90464 0.2751 0.85185 0.0
C2174 C 0.89738 0.26008 0.8289 0.0
C2175 C 0.87862 0.26287 0.81493 0.0
H2176 H 0.60857 0.25193 0.56528 0.0
H2177 H 0.5753 0.23877 0.62819 0.0
H2178 H 0.60473 0.20719 0.5518 0.0
H2179 H 0.57125 0.19473 0.61479 0.0
H2180 H 0.58746 0.12028 0.60245 0.0
H2181 H 0.59432 0.165 0.61193 0.0
H2182 H 0.57792 0.16655 0.53689 0.0
H2183 H 0.57125 0.12121 0.52738 0.0
C2184 C 0.60031 0.23957 0.57614 0.0
C2185 C 0.59239 0.24913 0.59795 0.0
C2186 C 0.59805 0.21387 0.56838 0.0
C2187 C 0.58795 0.19711 0.58232 0.0
C2188 C 0.57961 0.20685 0.60376 0.0
C2189 C 0.5818 0.23229 0.61142 0.0
C2190 C 0.58561 0.13014 0.58787 0.0
C2191 C 0.57899 0.11711 0.56416 0.0
C2192 C 0.58936 0.15588 0.59333 0.0
C2193 C 0.58629 0.16966 0.57533 0.0
C2194 C 0.58049 0.1567 0.55128 0.0
C2195 C 0.57671 0.13068 0.54578 0.0
H2196 H 0.6091 0.78216 0.42091 0.0
H2197 H 0.56399 0.78088 0.35902 0.0
H2198 H 0.64006 0.78478 0.39571 0.0
H2199 H 0.59478 0.78439 0.33407 0.0
H2200 H 0.64933 0.76908 0.28851 0.0
H2201 H 0.61987 0.76322 0.31498 0.0
H2202 H 0.66355 0.81058 0.37457 0.0
H2203 H 0.69333 0.81573 0.34796 0.0
C2204 C 0.60579 0.78249 0.40192 0.0
C2205 C 0.58401 0.78118 0.39198 0.0
C2206 C 0.6236 0.78417 0.38746 0.0
C2207 C 0.62011 0.7847 0.36266 0.0
C2208 C 0.59824 0.78348 0.35287 0.0
C2209 C 0.58049 0.78163 0.36727 0.0
C2210 C 0.65268 0.77816 0.3073 0.0
C2211 C 0.67366 0.79305 0.31604 0.0
C2212 C 0.6357 0.77494 0.32253 0.0
C2213 C 0.639 0.78674 0.34699 0.0
C2214 C 0.66028 0.80101 0.35594 0.0
C2215 C 0.67741 0.80402 0.34069 0.0
H2216 H 0.10037 0.31448 0.47917 0.0
H2217 H 0.09695 0.25103 0.42268 0.0
H2218 H 0.09081 0.2875 0.50799 0.0
H2219 H 0.08779 0.22402 0.45161 0.0
H2220 H 0.0485 0.18242 0.5022 0.0
H2221 H 0.0571 0.21087 0.4746 0.0
H2222 H 0.10573 0.25907 0.52917 0.0
H2223 H 0.09699 0.23054 0.55689 0.0
C2224 C 0.09772 0.29475 0.47295 0.0
C2225 C 0.09937 0.28485 0.44865 0.0
C2226 C 0.09233 0.2793 0.4895 0.0
C2227 C 0.08844 0.2536 0.4821 0.0
C2228 C 0.09033 0.24373 0.45782 0.0
C2229 C 0.09574 0.25919 0.44127 0.0
C2230 C 0.061 0.19913 0.50832 0.0
C2231 C 0.0722 0.20415 0.53165 0.0
C2232 C 0.06599 0.21537 0.49247 0.0
C2233 C 0.08232 0.23708 0.49955 0.0
C2234 C 0.09297 0.24257 0.5232 0.0
C2235 C 0.08794 0.22628 0.53911 0.0
H2236 H 0.55982 0.26788 0.27506 0.0
H2237 H 0.60356 0.31794 0.24055 0.0
H2238 H 0.592 0.25816 0.29578 0.0
H2239 H 0.63562 0.30812 0.26105 0.0
H2240 H 0.69074 0.29332 0.30695 0.0
H2241 H 0.65722 0.30899 0.29962 0.0
H2242 H 0.61932 0.23441 0.27891 0.0
H2243 H 0.65281 0.21876 0.28606 0.0
C2244 C 0.57629 0.27726 0.27237 0.0
C2245 C 0.57922 0.29347 0.25601 0.0
C2246 C 0.59469 0.27157 0.28411 0.0
C2247 C 0.61631 0.28217 0.27984 0.0
C2248 C 0.61918 0.29978 0.26487 0.0
C2249 C 0.60081 0.30534 0.25303 0.0
C2250 C 0.67519 0.28029 0.30108 0.0
C2251 C 0.67446 0.2548 0.2967 0.0
C2252 C 0.65601 0.28927 0.29695 0.0
C2253 C 0.6357 0.27295 0.28849 0.0
C2254 C 0.63469 0.24746 0.28568 0.0
C2255 C 0.65389 0.23847 0.28974 0.0
H2256 H 0.64353 0.90809 0.95079 0.0
H2257 H 0.59544 0.90958 0.89246 0.0
H2258 H 0.63705 0.94705 0.97243 0.0
H2259 H 0.58823 0.94796 0.91447 0.0
H2260 H 0.58733 0.02435 0.9572 0.0
H2261 H 0.60019 0.99101 0.9317 0.0
H2262 H 0.60622 0.95599 0.99339 0.0
H2263 H 0.59369 0.98925 0.01844 0.0
C2264 C 0.63183 0.91697 0.94246 0.0
C2265 C 0.61978 0.90575 0.92015 0.0
C2266 C 0.62796 0.93914 0.95491 0.0
C2267 C 0.61172 0.95027 0.94543 0.0
C2268 C 0.60088 0.93992 0.92226 0.0
C2269 C 0.60497 0.91789 0.90967 0.0
C2270 C 0.59137 1.00939 0.96512 0.0
C2271 C 0.58993 1.00941 0.98981 0.0
C2272 C 0.59878 0.9904 0.95062 0.0
C2273 C 0.60464 0.97108 0.96061 0.0
C2274 C 0.60262 0.971 0.98526 0.0
C2275 C 0.59541 0.99002 0.99968 0.0
H2276 H 0.97403 0.83294 0.73358 0.0
H2277 H 0.96142 0.7538 0.71168 0.0
H2278 H 0.93547 0.83024 0.74263 0.0
H2279 H 0.92314 0.75108 0.72105 0.0
H2280 H 0.85884 0.81548 0.73489 0.0
H2281 H 0.89693 0.81932 0.72415 0.0
H2282 H 0.90339 0.75669 0.7565 0.0
H2283 H 0.86521 0.75292 0.767 0.0
C2284 C 0.96305 0.815 0.73087 0.0
C2285 C 0.97073 0.79358 0.72214 0.0
C2286 C 0.94097 0.81345 0.73601 0.0
C2287 C 0.92636 0.79042 0.73304 0.0
C2288 C 0.93409 0.76906 0.72404 0.0
C2289 C 0.95599 0.77064 0.71855 0.0
C2290 C 0.86856 0.80291 0.74013 0.0
C2291 C 0.85963 0.78471 0.75291 0.0
C2292 C 0.89034 0.80501 0.73387 0.0
C2293 C 0.90326 0.78846 0.73967 0.0
C2294 C 0.89387 0.76968 0.75166 0.0
C2295 C 0.87215 0.76765 0.75791 0.0
H2296 H 0.12282 1.00212 0.83297 0.0
H2297 H 0.18155 0.05153 0.87047 0.0
H2298 H 0.10461 1.00534 0.87049 0.0
H2299 H 0.16363 0.05468 0.90806 0.0
H2300 H 0.12241 0.07156 0.97304 0.0
H2301 H 0.14027 0.06814 0.9355 0.0
H2302 H 0.09656 0.9978 0.90865 0.0
H2303 H 0.07877 1.0014 0.94636 0.0
C2304 C 0.13207 1.01373 0.84916 0.0
C2305 C 0.15408 0.0265 0.84779 0.0
C2306 C 0.12148 1.01554 0.87121 0.0
C2307 C 0.13206 0.0304 0.89353 0.0
C2308 C 0.15411 0.04319 0.89201 0.0
C2309 C 0.16472 0.04125 0.87 0.0
C2310 C 0.11643 0.05522 0.95928 0.0
C2311 C 0.09852 0.03695 0.96362 0.0
C2312 C 0.12699 0.05313 0.93726 0.0
C2313 C 0.12042 0.0326 0.91779 0.0
C2314 C 0.1025 1.01427 0.92223 0.0
C2315 C 0.09202 1.01633 0.94435 0.0
H2316 H 0.81405 0.37569 0.56494 0.0
H2317 H 0.88125 0.4138 0.59116 0.0
H2318 H 0.81881 0.34221 0.58571 0.0
H2319 H 0.88593 0.38036 0.612 0.0
H2320 H 0.86833 0.33173 0.67102 0.0
H2321 H 0.86842 0.36411 0.64734 0.0
H2322 H 0.84238 0.30897 0.58358 0.0
H2323 H 0.84244 0.27652 0.60739 0.0
C2324 C 0.82979 0.37692 0.57518 0.0
C2325 C 0.84724 0.39735 0.57657 0.0
C2326 C 0.83259 0.35767 0.58683 0.0
C2327 C 0.85279 0.35869 0.60028 0.0
C2328 C 0.87019 0.37919 0.60176 0.0
C2329 C 0.86749 0.39828 0.58987 0.0
C2330 C 0.8631 0.3266 0.65183 0.0
C2331 C 0.85539 0.30178 0.64091 0.0
C2332 C 0.86317 0.34505 0.63831 0.0
C2333 C 0.85523 0.33898 0.61372 0.0
C2334 C 0.84839 0.31407 0.60258 0.0
C2335 C 0.84862 0.29556 0.61606 0.0
H2336 H 0.44589 0.03734 0.37906 0.0
H2337 H 0.48636 0.10667 0.37148 0.0
H2338 H 0.46754 0.03883 0.41669 0.0
H2339 H 0.50749 0.10903 0.41013 0.0
H2340 H 0.55843 0.08717 0.46096 0.0
H2341 H 0.53474 0.09125 0.42649 0.0
H2342 H 0.47717 0.05598 0.45689 0.0
H2343 H 0.50095 0.05001 0.48992 0.0
C2344 C 0.45904 0.0533 0.38585 0.0
C2345 C 0.46449 0.07182 0.37228 0.0
C2346 C 0.47148 0.05426 0.40758 0.0
C2347 C 0.48947 0.07402 0.41657 0.0
C2348 C 0.49411 0.09326 0.40358 0.0
C2349 C 0.48184 0.09208 0.38157 0.0
C2350 C 0.54079 0.07997 0.46007 0.0
C2351 C 0.53181 0.06746 0.47781 0.0
C2352 C 0.52706 0.0827 0.44048 0.0
C2353 C 0.50394 0.07357 0.43856 0.0
C2354 C 0.49491 0.06252 0.45721 0.0
C2355 C 0.50864 0.05925 0.47637 0.0
H2356 H 0.83489 0.71259 0.10252 0.0
H2357 H 0.78882 0.75767 0.08647 0.0
H2358 H 0.8354 0.72859 0.14542 0.0
H2359 H 0.78929 0.77378 0.13 0.0
H2360 H 0.81914 0.8095 0.21363 0.0
H2361 H 0.81614 0.79872 0.16906 0.0
H2362 H 0.80536 0.72167 0.1732 0.0
H2363 H 0.80832 0.73235 0.21705 0.0
C2364 C 0.82499 0.72611 0.10813 0.0
C2365 C 0.81166 0.73366 0.09103 0.0
C2366 C 0.82521 0.73522 0.13278 0.0
C2367 C 0.81211 0.75218 0.14115 0.0
C2368 C 0.79955 0.76073 0.12408 0.0
C2369 C 0.79926 0.75148 0.0992 0.0
C2370 C 0.81556 0.7903 0.20484 0.0
C2371 C 0.81371 0.7717 0.21868 0.0
C2372 C 0.81394 0.78413 0.17941 0.0
C2373 C 0.81089 0.75934 0.16765 0.0
C2374 C 0.80812 0.74092 0.18168 0.0
C2375 C 0.80967 0.74702 0.20679 0.0
H2376 H 0.18319 0.03382 0.69112 0.0
H2377 H 0.11871 1.01411 0.71551 0.0
H2378 H 0.16627 0.03938 0.65311 0.0
H2379 H 0.10125 0.01884 0.67678 0.0
H2380 H 0.07109 0.03638 0.60427 0.0
H2381 H 0.08714 0.03296 0.64434 0.0
H2382 H 0.15053 0.03268 0.61608 0.0
H2383 H 0.13478 0.03706 0.57731 0.0
C2384 C 0.16523 0.03032 0.68843 0.0
C2385 C 0.1528 0.02322 0.70728 0.0
C2386 C 0.15514 0.03343 0.66593 0.0
C2387 C 0.13167 0.02949 0.66025 0.0
C2388 C 0.11919 0.02241 0.6793 0.0
C2389 C 0.12938 0.01946 0.70199 0.0
C2390 C 0.08859 0.03615 0.60671 0.0
C2391 C 0.10143 0.03768 0.58675 0.0
C2392 C 0.09802 0.03381 0.63009 0.0
C2393 C 0.12082 0.03253 0.63498 0.0
C2394 C 0.13328 0.03399 0.61471 0.0
C2395 C 0.12398 0.03646 0.59171 0.0
H2396 H 0.87152 0.42076 0.4632 0.0
H2397 H 0.80438 0.3847 0.47027 0.0
H2398 H 0.87073 0.39348 0.42448 0.0
H2399 H 0.80351 0.35746 0.43123 0.0
H2400 H 0.81773 0.2993 0.3695 0.0
H2401 H 0.82098 0.32364 0.41036 0.0
H2402 H 0.85116 0.38857 0.3842 0.0
H2403 H 0.84774 0.36459 0.34364 0.0
C2404 C 0.85658 0.40699 0.45646 0.0
C2405 C 0.83794 0.40497 0.46966 0.0
C2406 C 0.85613 0.3914 0.43427 0.0
C2407 C 0.83705 0.37337 0.4248 0.0
C2408 C 0.81853 0.37102 0.43821 0.0
C2409 C 0.81895 0.38673 0.46042 0.0
C2410 C 0.82493 0.31878 0.37245 0.0
C2411 C 0.83184 0.33009 0.35311 0.0
C2412 C 0.82683 0.33269 0.39586 0.0
C2413 C 0.83611 0.35806 0.40042 0.0
C2414 C 0.84402 0.36905 0.3813 0.0
C2415 C 0.84194 0.35525 0.35796 0.0
H2416 H 0.51804 0.05512 0.2891 0.0
H2417 H 0.47445 0.04825 0.22431 0.0
H2418 H 0.54932 0.05271 0.26474 0.0
H2419 H 0.50559 0.04604 0.2001 0.0
H2420 H 0.55925 0.02239 0.1597 0.0
H2421 H 0.53101 1.01816 0.18796 0.0
H2422 H 0.57122 0.07896 0.23931 0.0
H2423 H 0.59961 0.08301 0.21097 0.0
C2424 C 0.51515 0.05304 0.26967 0.0
C2425 C 0.49385 0.05189 0.25856 0.0
C2426 C 0.53304 0.05171 0.25578 0.0
C2427 C 0.52985 0.04898 0.23054 0.0
C2428 C 0.50848 0.04768 0.21949 0.0
C2429 C 0.49068 0.04916 0.23335 0.0
C2430 C 0.56223 0.03447 0.17725 0.0
C2431 C 0.58141 0.05321 0.18311 0.0
C2432 C 0.54605 0.03215 0.19334 0.0
C2433 C 0.54873 0.04856 0.21559 0.0
C2434 C 0.56874 0.06604 0.22228 0.0
C2435 C 0.585 0.06834 0.20612 0.0
H2436 H 0.7914 0.69184 0.93249 0.0
H2437 H 0.82448 0.76259 0.97432 0.0
H2438 H 0.79243 0.70902 0.89583 0.0
H2439 H 0.82504 0.7801 0.93762 0.0
H2440 H 0.84306 0.79621 0.86331 0.0
H2441 H 0.84193 0.77998 0.9005 0.0
H2442 H 0.77652 0.73593 0.87517 0.0
H2443 H 0.7779 0.75167 0.83766 0.0
C2444 C 0.79883 0.71113 0.93388 0.0
C2445 C 0.80789 0.72582 0.95637 0.0
C2446 C 0.79927 0.72108 0.91282 0.0
C2447 C 0.80871 0.74605 0.91362 0.0
C2448 C 0.81784 0.76074 0.93617 0.0
C2449 C 0.81745 0.75074 0.95727 0.0
C2450 C 0.82837 0.78312 0.86564 0.0
C2451 C 0.81057 0.77528 0.84734 0.0
C2452 C 0.82768 0.77389 0.88713 0.0
C2453 C 0.80916 0.75654 0.89098 0.0
C2454 C 0.79123 0.74894 0.87278 0.0
C2455 C 0.79195 0.75814 0.85126 0.0
H2456 H 0.83157 0.08227 0.98218 0.0
H2457 H 0.86229 0.10979 0.05517 0.0
H2458 H 0.85508 0.05184 0.97668 0.0
H2459 H 0.88559 0.079 0.04972 0.0
H2460 H 0.90919 1.00533 0.0361 0.0
H2461 H 0.88081 0.03053 0.04081 0.0
H2462 H 0.89819 0.05764 0.9761 0.0
H2463 H 0.92675 0.03288 0.97175 0.0
C2464 C 0.8432 0.08165 0.99711 0.0
C2465 C 0.84523 0.09845 0.01907 0.0
C2466 C 0.85663 0.06428 0.99393 0.0
C2467 C 0.87204 0.0631 1.01279 0.0
C2468 C 0.87365 0.07942 0.03499 0.0
C2469 C 0.86047 0.0971 0.03804 0.0
C2470 C 0.90651 1.0163 0.02267 0.0
C2471 C 0.91989 1.01718 1.00349 0.0
C2472 C 0.8905 0.03081 0.02545 0.0
C2473 C 0.88743 0.046 1.00884 0.0
C2474 C 0.90014 0.04593 0.98903 0.0
C2475 C 0.91641 0.03182 0.98653 0.0
H2476 H 0.40143 0.4512 0.08643 0.0
H2477 H 0.39248 0.43887 1.00852 0.0
H2478 H 0.43936 0.47419 0.08589 0.0
H2479 H 0.42981 0.46234 1.00794 0.0
H2480 H 0.50401 0.48088 1.01111 0.0
H2481 H 0.46705 0.4583 0.01437 0.0
H2482 H 0.46189 0.51135 0.07789 0.0
H2483 H 0.49957 0.53345 0.07522 0.0
C2484 C 0.4075 0.45359 0.06922 0.0
C2485 C 0.39402 0.44307 0.04751 0.0
C2486 C 0.4292 0.46686 0.0689 0.0
C2487 C 0.43783 0.46996 0.04685 0.0
C2488 C 0.42402 0.45988 0.02524 0.0
C2489 C 0.40249 0.44654 0.02557 0.0
C2490 C 0.49506 0.4879 0.02575 0.0
C2491 C 0.50461 0.50955 0.04244 0.0
C2492 C 0.47371 0.47493 0.02757 0.0
C2493 C 0.46115 0.48324 0.04607 0.0
C2494 C 0.47099 0.50439 0.06334 0.0
C2495 C 0.49254 0.51729 0.06164 0.0
H2496 H 0.4263 0.66338 0.81734 0.0
H2497 H 0.38658 0.62345 0.75228 0.0
H2498 H 0.40617 0.6972 0.81769 0.0
H2499 H 0.36674 0.65716 0.75233 0.0
H2500 H 0.34729 0.73156 0.74339 0.0
H2501 H 0.36548 0.69712 0.74541 0.0
H2502 H 0.37362 0.71703 0.823 0.0
H2503 H 0.3548 0.75177 0.82079 0.0
C2504 C 0.41331 0.66154 0.80295 0.0
C2505 C 0.40864 0.63976 0.78473 0.0
C2506 C 0.40143 0.68131 0.8032 0.0
C2507 C 0.38423 0.68107 0.78499 0.0
C2508 C 0.37969 0.65923 0.7668 0.0
C2509 C 0.39127 0.63934 0.76679 0.0
C2510 C 0.35247 0.72858 0.76111 0.0
C2511 C 0.34858 0.74502 0.78183 0.0
C2512 C 0.3632 0.70833 0.7623 0.0
C2513 C 0.37163 0.70311 0.78438 0.0
C2514 C 0.36785 0.71963 0.80534 0.0
C2515 C 0.35661 0.73982 0.80414 0.0
H2516 H 0.2329 0.60401 0.51609 0.0
H2517 H 0.2309 0.68133 0.52969 0.0
H2518 H 0.19284 0.59356 0.51719 0.0
H2519 H 0.19066 0.67086 0.53068 0.0
H2520 H 0.12424 0.63918 0.56118 0.0
H2521 H 0.1638 0.65318 0.55674 0.0
H2522 H 0.15857 0.5949 0.49439 0.0
H2523 H 0.1194 0.58096 0.4992 0.0
C2524 C 0.22385 0.61875 0.51918 0.0
C2525 C 0.23497 0.64345 0.52282 0.0
C2526 C 0.20089 0.61279 0.51971 0.0
C2527 C 0.1886 0.63142 0.52405 0.0
C2528 C 0.19973 0.65615 0.52753 0.0
C2529 C 0.22271 0.66211 0.52683 0.0
C2530 C 0.13172 0.62956 0.54659 0.0
C2531 C 0.11933 0.60856 0.53109 0.0
C2532 C 0.15419 0.63763 0.54385 0.0
C2533 C 0.16434 0.62486 0.52543 0.0
C2534 C 0.15137 0.6047 0.50911 0.0
C2535 C 0.12904 0.59669 0.51187 0.0
H2536 H 0.74845 0.02309 0.82494 0.0
H2537 H 0.71168 0.96383 0.76947 0.0
H2538 H 0.76594 0.99379 0.84221 0.0
H2539 H 0.72908 0.93447 0.78695 0.0
H2540 H 0.74664 0.88864 0.84386 0.0
H2541 H 0.72873 0.91799 0.82691 0.0
H2542 H 0.79279 0.96598 0.8288 0.0
H2543 H 0.81063 0.93661 0.84552 0.0
C2544 C 0.74417 1.00381 0.81641 0.0
C2545 C 0.72876 0.99573 0.79583 0.0
C2546 C 0.75419 0.98708 0.82627 0.0
C2547 C 0.74878 0.96188 0.81595 0.0
C2548 C 0.73337 0.95377 0.79537 0.0
C2549 C 0.72357 0.97058 0.78529 0.0
C2550 C 0.75681 0.90553 0.84077 0.0
C2551 C 0.77999 0.91037 0.84591 0.0
C2552 C 0.74662 0.92221 0.83093 0.0
C2553 C 0.75941 0.9442 0.82651 0.0
C2554 C 0.78254 0.94923 0.83215 0.0
C2555 C 0.79273 0.93241 0.8416 0.0
H2556 H 0.79836 0.97712 0.56204 0.0
H2557 H 0.75866 0.91521 0.51174 0.0
H2558 H 0.77098 1.00176 0.55543 0.0
H2559 H 0.73157 0.94008 0.50435 0.0
H2560 H 0.67757 0.98492 0.51053 0.0
H2561 H 0.70347 0.95971 0.52041 0.0
H2562 H 0.75805 0.022 0.526 0.0
H2563 H 0.73208 0.04752 0.51762 0.0
C2564 C 0.78376 0.96878 0.54954 0.0
C2565 C 0.7807 0.94423 0.53739 0.0
C2566 C 0.7681 0.98297 0.54558 0.0
C2567 C 0.74905 0.97307 0.52917 0.0
C2568 C 0.74584 0.94832 0.51733 0.0
C2569 C 0.76144 0.93405 0.52147 0.0
C2570 C 0.69506 0.99337 0.51425 0.0
C2571 C 0.70264 1.01835 0.51324 0.0
C2572 C 0.70999 0.97877 0.5196 0.0
C2573 C 0.73296 0.9887 0.52399 0.0
C2574 C 0.7405 1.0137 0.52307 0.0
C2575 C 0.72558 0.02831 0.51788 0.0
H2576 H 0.43652 0.48481 0.7775 0.0
H2577 H 0.37439 0.50878 0.77792 0.0
H2578 H 0.417 0.44266 0.77724 0.0
H2579 H 0.35465 0.46645 0.77768 0.0
H2580 H 0.32253 0.38207 0.75675 0.0
H2581 H 0.34138 0.42449 0.75655 0.0
H2582 H 0.39805 0.41408 0.799 0.0
H2583 H 0.37909 0.37198 0.79943 0.0
C2584 C 0.41863 0.48122 0.77751 0.0
C2585 C 0.40733 0.50083 0.77772 0.0
C2586 C 0.40726 0.45672 0.77754 0.0
C2587 C 0.38385 0.4503 0.77752 0.0
C2588 C 0.37251 0.46994 0.77746 0.0
C2589 C 0.38396 0.49456 0.77771 0.0
C2590 C 0.33888 0.38878 0.76635 0.0
C2591 C 0.3488 0.37295 0.77838 0.0
C2592 C 0.34989 0.41346 0.76622 0.0
C2593 C 0.37163 0.42358 0.77778 0.0
C2594 C 0.38159 0.40757 0.78954 0.0
C2595 C 0.3705 0.38305 0.7899 0.0
H2596 H 0.26822 0.60691 0.27787 0.0
H2597 H 0.20992 0.62914 0.25042 0.0
H2598 H 0.28898 0.64947 0.28377 0.0
H2599 H 0.23013 0.67149 0.25721 0.0
H2600 H 0.2752 0.74373 0.25573 0.0
H2601 H 0.2579 0.70018 0.24509 0.0
H2602 H 0.29078 0.68786 0.31035 0.0
H2603 H 0.30899 0.73142 0.32014 0.0
C2604 C 0.25991 0.62084 0.27294 0.0
C2605 C 0.23745 0.61469 0.26371 0.0
C2606 C 0.27171 0.64526 0.27653 0.0
C2607 C 0.26121 0.66403 0.27117 0.0
C2608 C 0.23892 0.65759 0.26125 0.0
C2609 C 0.22725 0.63324 0.25745 0.0
C2610 C 0.27902 0.73159 0.26752 0.0
C2611 C 0.29397 0.74066 0.2883 0.0
C2612 C 0.26888 0.70666 0.26162 0.0
C2613 C 0.273 0.69035 0.27677 0.0
C2614 C 0.28763 0.69969 0.29793 0.0
C2615 C 0.2979 0.72464 0.30369 0.0
H2616 H 0.51647 0.69019 0.43519 0.0
H2617 H 0.55205 0.73543 0.50075 0.0
H2618 H 0.5223 0.65335 0.44943 0.0
H2619 H 0.55814 0.69823 0.51512 0.0
H2620 H 0.54757 0.61997 0.53973 0.0
H2621 H 0.54141 0.65907 0.52914 0.0
H2622 H 0.55191 0.63254 0.4552 0.0
H2623 H 0.55792 0.5942 0.46573 0.0
C2624 C 0.52549 0.69237 0.45276 0.0
C2625 C 0.53378 0.71608 0.46666 0.0
C2626 C 0.52902 0.67106 0.46095 0.0
C2627 C 0.54098 0.67243 0.48347 0.0
C2628 C 0.54877 0.69615 0.49777 0.0
C2629 C 0.54533 0.7176 0.48945 0.0
C2630 C 0.54885 0.62273 0.52134 0.0
C2631 C 0.55363 0.60392 0.50368 0.0
C2632 C 0.54525 0.64516 0.51517 0.0
C2633 C 0.54586 0.64921 0.4911 0.0
C2634 C 0.55081 0.63031 0.47377 0.0
C2635 C 0.55447 0.60822 0.47989 0.0
H2636 H 0.67532 0.30131 0.63688 0.0
H2637 H 0.65932 0.34672 0.7004 0.0
H2638 H 0.70829 0.29549 0.65988 0.0
H2639 H 0.69246 0.34126 0.72328 0.0
H2640 H 0.76671 0.34566 0.74867 0.0
H2641 H 0.7345 0.35209 0.7252 0.0
H2642 H 0.71746 0.27454 0.69438 0.0
H2643 H 0.74921 0.2679 0.71868 0.0
C2644 C 0.67893 0.31028 0.65569 0.0
C2645 C 0.66459 0.32457 0.66669 0.0
C2646 C 0.69779 0.30679 0.66895 0.0
C2647 C 0.70315 0.31785 0.69354 0.0
C2648 C 0.68905 0.33257 0.70438 0.0
C2649 C 0.66996 0.33568 0.69124 0.0
C2650 C 0.75589 0.32983 0.73736 0.0
C2651 C 0.76042 0.30612 0.73627 0.0
C2652 C 0.73742 0.33358 0.72368 0.0
C2653 C 0.72314 0.31385 0.70791 0.0
C2654 C 0.72805 0.29024 0.70621 0.0
C2655 C 0.7463 0.28641 0.72025 0.0
H2656 H 0.06072 0.36096 0.9365 0.0
H2657 H 0.02169 0.34916 0.99581 0.0
H2658 H 0.0671 0.40512 0.95059 0.0
H2659 H 0.02781 0.39406 1.00994 0.0
H2660 H 0.06477 0.47798 0.03854 0.0
H2661 H 0.05549 0.43267 0.02755 0.0
H2662 H 0.04775 0.43775 0.95222 0.0
H2663 H 0.05726 0.48246 0.96324 0.0
C2664 C 0.0534 0.36777 0.95261 0.0
C2665 C 0.04057 0.35124 0.96487 0.0
C2666 C 0.05694 0.39332 0.96066 0.0
C2667 C 0.04774 0.40354 0.9813 0.0
C2668 C 0.03526 0.38704 0.99401 0.0
C2669 C 0.03167 0.36124 0.98586 0.0
C2670 C 0.0606 0.46931 0.01971 0.0
C2671 C 0.0614 0.48388 1.00177 0.0
C2672 C 0.05536 0.44329 1.01335 0.0
C2673 C 0.05114 0.43123 0.98887 0.0
C2674 C 0.05134 0.44606 0.97119 0.0
C2675 C 0.0566 0.47183 0.97751 0.0
H2676 H 0.06849 0.82242 0.20317 0.0
H2677 H 0.02274 0.81725 0.14068 0.0
H2678 H 0.03778 0.81874 0.22822 0.0
H2679 H 0.99184 0.81451 0.16594 0.0
H2680 H 0.93948 0.78355 0.21456 0.0
H2681 H 0.96913 0.78904 0.18786 0.0
H2682 H 1.01188 0.83895 0.24664 0.0
H2683 H 0.98258 0.83271 0.27324 0.0
C2684 C 0.05185 0.8208 0.19481 0.0
C2685 C 0.04814 0.82018 0.16989 0.0
C2686 C 0.03414 0.81885 0.20925 0.0
C2687 C 1.0121 0.81647 0.19932 0.0
C2688 C 1.00843 0.816 0.17433 0.0
C2689 C 0.0262 0.81776 0.15982 0.0
C2690 C 0.95516 0.79589 0.22163 0.0
C2691 C 0.95872 0.80747 0.24611 0.0
C2692 C 0.97222 0.7991 0.20631 0.0
C2693 C 0.99323 0.81421 0.21502 0.0
C2694 C 0.9963 0.8266 0.23929 0.0
C2695 C 0.97939 0.82317 0.25459 0.0
H2696 H 0.55424 0.37479 0.19207 0.0
H2697 H 0.52178 0.32046 0.13012 0.0
H2698 H 0.56498 0.40425 0.16565 0.0
H2699 H 0.53285 0.34949 0.10379 0.0
H2700 H 0.54233 0.41104 0.06272 0.0
H2701 H 0.52747 0.38722 0.09229 0.0
H2702 H 0.59095 0.40907 0.13532 0.0
H2703 H 0.60551 0.43384 0.10629 0.0
C2704 C 0.54924 0.36924 0.17286 0.0
C2705 C 0.53724 0.34532 0.16315 0.0
C2706 C 0.5555 0.38603 0.15772 0.0
C2707 C 0.54985 0.37921 0.13259 0.0
C2708 C 0.53723 0.35551 0.12307 0.0
C2709 C 0.53099 0.33878 0.13817 0.0
C2710 C 0.55299 0.41119 0.07873 0.0
C2711 C 0.57517 0.42422 0.08205 0.0
C2712 C 0.54454 0.3973 0.09556 0.0
C2713 C 0.55807 0.39605 0.11608 0.0
C2714 C 0.58002 0.40977 0.11982 0.0
C2715 C 0.58846 0.4237 0.10301 0.0
H2716 H 0.05808 0.30529 0.32731 0.0
H2717 H 0.03805 0.34693 0.39097 0.0
H2718 H 0.02708 0.31334 0.30282 0.0
H2719 H 1.00735 0.35499 0.36656 0.0
H2720 H 0.97375 0.39064 0.31312 0.0
H2721 H 1.00587 0.38059 0.33371 0.0
H2722 H 0.98432 0.30437 0.2987 0.0
H2723 H 0.95225 0.31446 0.27799 0.0
C2724 C 0.04687 0.31578 0.33611 0.0
C2725 C 0.0505 0.32554 0.36102 0.0
C2726 C 0.02922 0.32045 0.3221 0.0
C2727 C 0.01515 0.33518 0.33278 0.0
C2728 C 0.01826 0.34403 0.35782 0.0
C2729 C 0.03569 0.33917 0.37182 0.0
C2730 C 0.9762 0.37188 0.3094 0.0
C2731 C 0.96054 0.3533 0.29411 0.0
C2732 C 0.99438 0.36608 0.32136 0.0
C2733 C 0.99732 0.34164 0.31803 0.0
C2734 C 0.98241 0.32332 0.30159 0.0
C2735 C 0.96408 0.32908 0.28982 0.0
H2736 H 0.05402 0.7146 0.68945 0.0
H2737 H 0.01946 0.73571 0.63018 0.0
H2738 H 0.05718 0.67651 0.66299 0.0
H2739 H 0.02243 0.6975 0.60381 0.0
H2740 H 0.06234 0.64659 0.55998 0.0
H2741 H 0.05427 0.6821 0.58655 0.0
H2742 H 0.03475 0.63676 0.63907 0.0
H2743 H 0.04228 0.60097 0.61182 0.0
C2744 C 0.04691 0.71097 0.67083 0.0
C2745 C 0.03665 0.72816 0.66179 0.0
C2746 C 0.04859 0.68911 0.65576 0.0
C2747 C 0.04013 0.68413 0.63135 0.0
C2748 C 0.02932 0.70103 0.62249 0.0
C2749 C 0.02757 0.72284 0.63759 0.0
C2750 C 0.05576 0.64414 0.5769 0.0
C2751 C 0.05267 0.62119 0.58386 0.0
C2752 C 0.05125 0.66444 0.59217 0.0
C2753 C 0.04376 0.66215 0.61481 0.0
C2754 C 0.04066 0.63906 0.62178 0.0
C2755 C 0.04504 0.61867 0.60633 0.0
H2756 H 0.69436 0.85044 0.89146 0.0
H2757 H 0.65608 0.81468 0.82364 0.0
H2758 H 0.72834 0.85386 0.87128 0.0
H2759 H 0.69014 0.81799 0.80345 0.0
H2760 H 0.755 0.84177 0.771 0.0
H2761 H 0.72146 0.84659 0.79129 0.0
H2762 H 0.74955 0.82445 0.85389 0.0
H2763 H 0.78262 0.82 0.83378 0.0
C2764 C 0.69322 0.84323 0.87225 0.0
C2765 C 0.67262 0.83195 0.85918 0.0
C2766 C 0.71268 0.84523 0.86069 0.0
C2767 C 0.71194 0.83601 0.8358 0.0
C2768 C 0.69125 0.82533 0.82261 0.0
C2769 C 0.67177 0.82322 0.83421 0.0
C2770 C 0.75384 0.83812 0.78913 0.0
C2771 C 0.77091 0.82988 0.80068 0.0
C2772 C 0.73477 0.84083 0.80072 0.0
C2773 C 0.7328 0.8357 0.82412 0.0
C2774 C 0.75055 0.82872 0.83598 0.0
C2775 C 0.76941 0.82592 0.8244 0.0
H2776 H 0.51185 0.59721 0.72963 0.0
H2777 H 0.4528 0.5493 0.69117 0.0
H2778 H 0.53032 0.59424 0.69229 0.0
H2779 H 0.47083 0.54658 0.65376 0.0
H2780 H 0.51047 0.53126 0.58757 0.0
H2781 H 0.49259 0.53432 0.62502 0.0
H2782 H 0.54052 0.60088 0.65516 0.0
H2783 H 0.55849 0.59742 0.61761 0.0
C2784 C 0.50257 0.58602 0.71326 0.0
C2785 C 0.48041 0.57355 0.71432 0.0
C2786 C 0.51333 0.58434 0.69128 0.0
C2787 C 0.50271 0.57002 0.6687 0.0
C2788 C 0.48046 0.55762 0.66995 0.0
C2789 C 0.46976 0.55932 0.6919 0.0
C2790 C 0.51739 0.54668 0.60205 0.0
C2791 C 0.5365 0.56392 0.59863 0.0
C2792 C 0.50682 0.5486 0.62407 0.0
C2793 C 0.51447 0.56798 0.64445 0.0
C2794 C 0.53361 0.58529 0.6409 0.0
C2795 C 0.54418 0.58334 0.61883 0.0
H2796 H 0.81817 0.23021 0.99896 0.0
H2797 H 0.8224 0.16702 0.94518 0.0
H2798 H 0.81 0.25209 0.96721 0.0
H2799 H 0.81486 0.18922 0.91324 0.0
H2800 H 0.76091 0.21796 0.87198 0.0
H2801 H 0.78036 0.19915 0.89998 0.0
H2802 H 0.81976 0.2707 0.9331 0.0
H2803 H 0.79948 0.28965 0.90576 0.0
C2804 C 0.8181 0.2213 0.98033 0.0
C2805 C 0.8205 0.19677 0.97452 0.0
C2806 C 0.81349 0.23389 0.96208 0.0
C2807 C 0.81134 0.2222 0.93768 0.0
C2808 C 0.81589 0.19849 0.93189 0.0
C2809 C 0.82039 0.18586 0.95017 0.0
C2810 C 0.77367 0.22967 0.8853 0.0
C2811 C 0.77839 0.2553 0.88698 0.0
C2812 C 0.78513 0.21885 0.90108 0.0
C2813 C 0.80163 0.23344 0.91881 0.0
C2814 C 0.80699 0.259 0.9198 0.0
C2815 C 0.79547 0.26982 0.90406 0.0
H2816 H 0.1905 0.52731 0.17749 0.0
H2817 H 0.1298 0.51516 0.21209 0.0
H2818 H 0.16889 0.52495 0.13916 0.0
H2819 H 0.10829 0.51354 0.17405 0.0
H2820 H 0.0745 0.50247 0.09752 0.0
H2821 H 0.09572 0.49397 0.13201 0.0
H2822 H 0.1491 0.55439 0.12669 0.0
H2823 H 0.12832 0.56268 0.09256 0.0
C2824 C 0.17254 0.5237 0.17681 0.0
C2825 C 0.16186 0.52179 0.19783 0.0
C2826 C 0.16016 0.52251 0.15492 0.0
C2827 C 0.13689 0.51955 0.15368 0.0
C2828 C 0.12615 0.51576 0.17433 0.0
C2829 C 0.13852 0.51682 0.19618 0.0
C2830 C 0.09075 0.51392 0.10378 0.0
C2831 C 0.09964 0.53331 0.0923 0.0
C2832 C 0.10293 0.509 0.12347 0.0
C2833 C 0.12423 0.5233 0.13191 0.0
C2834 C 0.13302 0.54259 0.12032 0.0
C2835 C 0.12092 0.54752 0.10081 0.0
H2836 H 0.80632 0.83609 0.47321 0.0
H2837 H 0.85813 0.89681 0.46522 0.0
H2838 H 0.80437 0.81935 0.42978 0.0
H2839 H 0.85684 0.87981 0.42241 0.0
H2840 H 0.82427 0.8665 0.34553 0.0
H2841 H 0.83064 0.87801 0.38917 0.0
H2842 H 0.82184 0.80126 0.39447 0.0
H2843 H 0.81484 0.78972 0.35006 0.0
C2844 C 0.81755 0.8456 0.46228 0.0
C2845 C 0.8321 0.868 0.47256 0.0
C2846 C 0.81654 0.83595 0.43742 0.0
C2847 C 0.83018 0.84843 0.42243 0.0
C2848 C 0.84565 0.87001 0.43319 0.0
C2849 C 0.84646 0.87974 0.45781 0.0
C2850 C 0.82405 0.85208 0.35599 0.0
C2851 C 0.81968 0.82729 0.34442 0.0
C2852 C 0.82782 0.85866 0.38107 0.0
C2853 C 0.82707 0.84063 0.3955 0.0
C2854 C 0.82255 0.81564 0.38394 0.0
C2855 C 0.81883 0.80901 0.35856 0.0
H2856 H 0.51453 0.58728 0.8464 0.0
H2857 H 0.45077 0.55642 0.86695 0.0
H2858 H 0.53245 0.58196 0.88469 0.0
H2859 H 0.46827 0.55026 0.90443 0.0
H2860 H 0.49921 0.55382 0.9807 0.0
H2861 H 0.48318 0.55846 0.94213 0.0
H2862 H 0.54773 0.56577 0.91544 0.0
H2863 H 0.564 0.562 0.95534 0.0
C2864 C 0.50413 0.57932 0.85896 0.0
C2865 C 0.48075 0.57264 0.85281 0.0
C2866 C 0.5146 0.57603 0.88135 0.0
C2867 C 0.50243 0.56572 0.89914 0.0
C2868 C 0.47904 0.55882 0.89257 0.0
C2869 C 0.46865 0.56226 0.8704 0.0
C2870 C 0.51021 0.55609 0.96665 0.0
C2871 C 0.53314 0.55684 0.97194 0.0
C2872 C 0.50076 0.55872 0.94381 0.0
C2873 C 0.51348 0.56242 0.92412 0.0
C2874 C 0.53667 0.56313 0.92932 0.0
C2875 C 0.54623 0.56057 0.95254 0.0
H2876 H 0.77579 0.17024 0.10078 0.0
H2877 H 0.83825 0.21803 0.09487 0.0
H2878 H 0.77226 0.19625 0.13891 0.0
H2879 H 0.83502 0.24384 0.13355 0.0
H2880 H 0.8125 0.297 0.19292 0.0
H2881 H 0.81316 0.27259 0.1528 0.0
H2882 H 0.78918 0.20606 0.1796 0.0
H2883 H 0.78833 0.23022 0.21925 0.0
C2884 C 0.78891 0.18618 0.10778 0.0
C2885 C 0.80739 0.19201 0.09493 0.0
C2886 C 0.78688 0.2011 0.12965 0.0
C2887 C 0.80335 0.22214 0.13928 0.0
C2888 C 0.82189 0.22796 0.12644 0.0
C2889 C 0.82387 0.21304 0.10445 0.0
C2890 C 0.80737 0.27717 0.1902 0.0
C2891 C 0.80104 0.26556 0.20952 0.0
C2892 C 0.80779 0.26319 0.16724 0.0
C2893 C 0.80155 0.23735 0.16308 0.0
C2894 C 0.79402 0.22592 0.1821 0.0
C2895 C 0.79365 0.23985 0.20497 0.0
H2896 H 0.16106 0.60594 0.31322 0.0
H2897 H 0.13029 0.52926 0.30761 0.0
H2898 H 0.13133 0.61791 0.33613 0.0
H2899 H 0.10088 0.54117 0.33098 0.0
H2900 H 0.04353 0.56678 0.36201 0.0
H2901 H 0.06898 0.56108 0.33091 0.0
H2902 H 0.12087 0.61548 0.3764 0.0
H2903 H 0.0953 0.62156 0.40696 0.0
C2904 C 0.14796 0.59165 0.31694 0.0
C2905 C 0.14806 0.56667 0.30888 0.0
C2906 C 0.13093 0.59851 0.33 0.0
C2907 C 0.11373 0.5805 0.33528 0.0
C2908 C 0.11367 0.55551 0.32682 0.0
C2909 C 0.13066 0.54866 0.31371 0.0
C2910 C 0.06014 0.57811 0.36488 0.0
C2911 C 0.06761 0.59441 0.38688 0.0
C2912 C 0.07478 0.57465 0.34727 0.0
C2913 C 0.09703 0.5875 0.35142 0.0
C2914 C 0.10384 0.60535 0.37259 0.0
C2915 C 0.08925 0.60877 0.39015 0.0
H2916 H 0.84438 0.90629 0.63033 0.0
H2917 H 0.80246 0.8392 0.59031 0.0
H2918 H 0.84107 0.89018 0.66743 0.0
H2919 H 0.79822 0.8233 0.62773 0.0
H2920 H 0.81347 0.7923 0.69544 0.0
H2921 H 0.81595 0.80759 0.65769 0.0
H2922 H 0.8176 0.88116 0.69682 0.0
H2923 H 0.81557 0.86561 0.73449 0.0
C2924 C 0.83426 0.88812 0.6295 0.0
C2925 C 0.82368 0.87404 0.60733 0.0
C2926 C 0.83219 0.8789 0.6509 0.0
C2927 C 0.81922 0.85541 0.65087 0.0
C2928 C 0.80861 0.84131 0.62859 0.0
C2929 C 0.81091 0.85047 0.60708 0.0
C2930 C 0.81394 0.81163 0.69583 0.0
C2931 C 0.81408 0.82771 0.71785 0.0
C2932 C 0.81543 0.82049 0.67416 0.0
C2933 C 0.817 0.84572 0.67394 0.0
C2934 C 0.81689 0.86172 0.69613 0.0
C2935 C 0.81563 0.85284 0.7178 0.0
H2936 H 0.80806 0.51152 0.58697 0.0
H2937 H 0.7736 0.47957 0.51631 0.0
H2938 H 0.77963 0.53591 0.59561 0.0
H2939 H 0.74501 0.50359 0.52517 0.0
H2940 H 0.68649 0.52702 0.56485 0.0
H2941 H 0.71564 0.50384 0.55719 0.0
H2942 H 0.76536 0.57101 0.57711 0.0
H2943 H 0.7362 0.59459 0.58375 0.0
C2944 C 0.79439 0.50969 0.57334 0.0
C2945 C 0.79297 0.49365 0.55099 0.0
C2946 C 0.77823 0.5237 0.57824 0.0
C2947 C 0.76017 0.52151 0.56107 0.0
C2948 C 0.75873 0.50544 0.53875 0.0
C2949 C 0.7751 0.49181 0.53367 0.0
C2950 C 0.70359 0.53698 0.56733 0.0
C2951 C 0.70892 0.56278 0.57465 0.0
C2952 C 0.72025 0.52364 0.56305 0.0
C2953 C 0.74266 0.5357 0.56642 0.0
C2954 C 0.74816 0.56131 0.5745 0.0
C2955 C 0.73145 0.57476 0.57842 0.0
H2956 H 0.22525 0.18565 0.532 0.0
H2957 H 0.24551 0.12129 0.4945 0.0
H2958 H 0.18803 0.16152 0.53218 0.0
H2959 H 0.20793 0.09731 0.49319 0.0
H2960 H 0.14671 0.05444 0.51969 0.0
H2961 H 0.18337 0.07852 0.51685 0.0
H2962 H 0.15443 0.14158 0.51109 0.0
H2963 H 0.11797 0.11754 0.51518 0.0
C2964 C 0.22157 0.16641 0.52335 0.0
C2965 C 0.23828 0.15532 0.51332 0.0
C2966 C 0.20014 0.15252 0.52329 0.0
C2967 C 0.19475 0.12727 0.51276 0.0
C2968 C 0.21143 0.11648 0.50201 0.0
C2969 C 0.23297 0.13027 0.50252 0.0
C2970 C 0.14821 0.07332 0.51744 0.0
C2971 C 0.12952 0.08405 0.51743 0.0
C2972 C 0.16927 0.08723 0.51578 0.0
C2973 C 0.1721 0.11217 0.51367 0.0
C2974 C 0.15315 0.12267 0.51318 0.0
C2975 C 0.13217 0.10885 0.51534 0.0
H2976 H 0.24971 0.96969 0.75716 0.0
H2977 H 0.20075 0.93793 0.79988 0.0
H2978 H 0.26891 0.93525 0.75818 0.0
H2979 H 0.2202 0.90408 0.80159 0.0
H2980 H 0.27164 0.85867 0.82294 0.0
H2981 H 0.25307 0.8923 0.8189 0.0
H2982 H 0.27001 0.8886 0.74582 0.0
H2983 H 0.28799 0.85349 0.74958 0.0
C2984 C 0.24284 0.95551 0.76689 0.0
C2985 C 0.22313 0.95751 0.77841 0.0
C2986 C 0.25403 0.9353 0.76741 0.0
C2987 C 0.24673 0.9159 0.78007 0.0
C2988 C 0.22709 0.91807 0.79167 0.0
C2989 C 0.21561 0.93788 0.79062 0.0
C2990 C 0.27165 0.86474 0.80578 0.0
C2991 C 0.28224 0.85262 0.7869 0.0
C2992 C 0.26061 0.88445 0.80341 0.0
C2993 C 0.25939 0.89421 0.78198 0.0
C2994 C 0.27024 0.88244 0.76292 0.0
C2995 C 0.28091 0.86199 0.76511 0.0
H2996 H 0.41906 0.95525 0.05973 0.0
H2997 H 0.40529 1.01509 0.02686 0.0
H2998 H 0.45875 0.97187 0.06149 0.0
H2999 H 0.44502 0.03142 0.02803 0.0
H3000 H 0.51698 0.06674 0.05415 0.0
H3001 H 0.47743 0.05099 0.05532 0.0
H3002 H 0.48749 0.97657 0.03524 0.0
H3003 H 0.52718 0.99258 0.03465 0.0
C3004 C 0.42455 0.9719 0.05277 0.0
C3005 C 0.40914 0.98387 0.0431 0.0
C3006 C 0.44728 0.98136 0.05366 0.0
C3007 C 0.45507 1.0029 0.04478 0.0
C3008 C 0.43958 1.01494 0.03525 0.0
C3009 C 0.41683 1.00553 0.03445 0.0
C3010 C 0.51062 0.04708 0.04968 0.0
C3011 C 0.52477 0.03082 0.04328 0.0
C3012 C 0.48801 0.03802 0.05045 0.0
C3013 C 0.47924 1.01253 0.04507 0.0
C3014 C 0.49371 0.9963 0.03962 0.0
C3015 C 0.51634 1.00539 0.03906 0.0
H3016 H 0.9272 0.60958 0.75612 0.0
H3017 H 0.88207 0.57486 0.80149 0.0
H3018 H 0.90029 0.63383 0.74639 0.0
H3019 H 0.85492 0.59841 0.7912 0.0
H3020 H 0.81884 0.66004 0.78503 0.0
H3021 H 0.84737 0.63884 0.79667 0.0
H3022 H 0.86487 0.62759 0.72318 0.0
H3023 H 0.83711 0.65008 0.71183 0.0
C3024 C 0.91157 0.60724 0.76409 0.0
C3025 C 0.90671 0.59036 0.77956 0.0
C3026 C 0.89608 0.62094 0.75835 0.0
C3027 C 0.87538 0.61793 0.76787 0.0
C3028 C 0.87079 0.60142 0.78378 0.0
C3029 C 0.88632 0.58785 0.78963 0.0
C3030 C 0.82895 0.65331 0.7714 0.0
C3031 C 0.82576 0.65686 0.74751 0.0
C3032 C 0.84514 0.6409 0.77803 0.0
C3033 C 0.85843 0.63154 0.76088 0.0
C3034 C 0.85514 0.63489 0.73693 0.0
C3035 C 0.839 0.64745 0.73032 0.0
H3036 H 0.87907 0.67772 1.01281 0.0
H3037 H 0.82843 0.62047 0.02975 0.0
H3038 H 0.90663 0.65224 0.01641 0.0
H3039 H 0.85583 0.59541 0.03397 0.0
H3040 H 0.90423 0.5457 0.01852 0.0
H3041 H 0.87811 0.57159 1.01141 0.0
H3042 H 0.92693 0.6362 0.04573 0.0
H3043 H 0.95324 0.61016 0.05251 0.0
C3044 C 0.87382 0.65971 0.01728 0.0
C3045 C 0.85153 0.6511 0.0209 0.0
C3046 C 0.88964 0.64515 0.01951 0.0
C3047 C 0.88352 0.62165 0.02541 0.0
C3048 C 0.86117 0.61315 0.02895 0.0
C3049 C 0.84542 0.62763 0.02669 0.0
C3050 C 0.9094 0.56543 0.02459 0.0
C3051 C 0.93078 0.5758 0.0363 0.0
C3052 C 0.89439 0.58032 0.02055 0.0
C3053 C 0.90023 0.60605 0.02823 0.0
C3054 C 0.92186 0.61651 0.03935 0.0
C3055 C 0.93696 0.60157 0.04328 0.0
H3056 H 0.25913 0.08999 0.79092 0.0
H3057 H 0.19708 0.11337 0.78344 0.0
H3058 H 0.27936 0.13226 0.79204 0.0
H3059 H 0.21702 0.15551 0.78501 0.0
H3060 H 0.25634 0.22698 0.76734 0.0
H3061 H 0.23717 0.18491 0.76674 0.0
H3062 H 0.29256 0.17383 0.81085 0.0
H3063 H 0.31189 0.21618 0.81115 0.0
C3064 C 0.24968 0.1041 0.78965 0.0
C3065 C 0.22618 0.09764 0.78705 0.0
C3066 C 0.2614 0.12872 0.79042 0.0
C3067 C 0.25027 0.14823 0.78851 0.0
C3068 C 0.22673 0.14162 0.7861 0.0
C3069 C 0.21506 0.11709 0.78539 0.0
C3070 C 0.26465 0.21576 0.77697 0.0
C3071 C 0.28614 0.22569 0.78908 0.0
C3072 C 0.25337 0.19121 0.77679 0.0
C3073 C 0.26283 0.17499 0.78877 0.0
C3074 C 0.28438 0.18496 0.80097 0.0
C3075 C 0.29566 0.20964 0.80119 0.0
H3076 H 0.37147 0.99345 0.29074 0.0
H3077 H 0.43272 0.96705 0.28884 0.0
H3078 H 0.3504 0.9509 0.28362 0.0
H3079 H 0.41161 0.92459 0.28196 0.0
H3080 H 0.36339 0.85528 0.29828 0.0
H3081 H 0.38493 0.89773 0.30613 0.0
H3082 H 0.34555 0.91356 0.24726 0.0
H3083 H 0.32451 0.87093 0.239 0.0
C3084 C 0.38041 0.97858 0.28891 0.0
C3085 C 0.40372 0.98354 0.29029 0.0
C3086 C 0.36837 0.95429 0.28475 0.0
C3087 C 0.37944 0.93458 0.28225 0.0
C3088 C 0.40273 0.93952 0.284 0.0
C3089 C 0.41476 0.96378 0.28782 0.0
C3090 C 0.35935 0.86794 0.28714 0.0
C3091 C 0.34199 0.86025 0.26847 0.0
C3092 C 0.37171 0.89208 0.29151 0.0
C3093 C 0.3667 0.90889 0.27743 0.0
C3094 C 0.3495 0.90101 0.25857 0.0
C3095 C 0.33756 0.87672 0.2538 0.0
H3096 H 0.61749 0.41434 0.6265 0.0
H3097 H 0.57899 0.36864 0.56278 0.0
H3098 H 0.61183 0.45106 0.61193 0.0
H3099 H 0.57311 0.40576 0.54807 0.0
H3100 H 0.58522 0.48366 0.52201 0.0
H3101 H 0.59031 0.44427 0.53277 0.0
H3102 H 0.58238 0.47255 0.6071 0.0
H3103 H 0.57735 0.51114 0.59639 0.0
C3104 C 0.60786 0.41203 0.60926 0.0
C3105 C 0.59871 0.38823 0.59599 0.0
C3106 C 0.60444 0.43327 0.60089 0.0
C3107 C 0.59174 0.43176 0.57879 0.0
C3108 C 0.58306 0.40793 0.56508 0.0
C3109 C 0.58638 0.38654 0.5736 0.0
C3110 C 0.5842 0.48121 0.54052 0.0
C3111 C 0.58053 0.50062 0.55824 0.0
C3112 C 0.58721 0.45861 0.54679 0.0
C3113 C 0.58711 0.455 0.57101 0.0
C3114 C 0.58309 0.47444 0.58839 0.0
C3115 C 0.57999 0.49668 0.58217 0.0
H3116 H 0.45643 0.80165 0.42462 0.0
H3117 H 0.47489 0.75642 0.36255 0.0
H3118 H 0.42402 0.8066 0.40045 0.0
H3119 H 0.44201 0.76031 0.33851 0.0
H3120 H 0.39276 0.78969 0.29379 0.0
H3121 H 0.42506 0.7849 0.31809 0.0
H3122 H 0.38878 0.79026 0.38121 0.0
H3123 H 0.35694 0.79572 0.35688 0.0
C3124 C 0.45339 0.79241 0.40587 0.0
C3125 C 0.46839 0.77859 0.39565 0.0
C3126 C 0.43462 0.79515 0.39189 0.0
C3127 C 0.43001 0.78396 0.36718 0.0
C3128 C 0.44491 0.76974 0.35718 0.0
C3129 C 0.46379 0.76724 0.37111 0.0
C3130 C 0.3917 0.79005 0.31289 0.0
C3131 C 0.37218 0.79385 0.32334 0.0
C3132 C 0.41031 0.78705 0.32695 0.0
C3133 C 0.41 0.78726 0.35199 0.0
C3134 C 0.39025 0.79062 0.36228 0.0
C3135 C 0.37178 0.79389 0.34824 0.0
H3136 H 0.06884 0.73449 0.12153 0.0
H3137 H 0.1112 0.74758 0.06512 0.0
H3138 H 0.0646 0.69038 0.10821 0.0
H3139 H 0.10709 0.70279 0.05173 0.0
H3140 H 0.07309 0.61735 0.02357 0.0
H3141 H 0.08014 0.6627 0.03339 0.0
H3142 H 0.08709 0.66004 0.10934 0.0
H3143 H 0.08002 0.61529 0.0995 0.0
C3144 C 0.07726 0.72798 0.10618 0.0
C3145 C 0.09045 0.74481 0.09453 0.0
C3146 C 0.07495 0.7025 0.09859 0.0
C3147 C 0.08575 0.69274 0.07904 0.0
C3148 C 0.09847 0.70951 0.06682 0.0
C3149 C 0.10087 0.73523 0.07454 0.0
C3150 C 0.07664 0.62657 0.0423 0.0
C3151 C 0.07633 0.61269 0.06077 0.0
C3152 C 0.08059 0.65259 0.04797 0.0
C3153 C 0.08388 0.66525 0.07224 0.0
C3154 C 0.08419 0.65116 0.09048 0.0
C3155 C 0.08032 0.6254 0.08485 0.0
H3156 H 0.06341 0.27426 0.85788 0.0
H3157 H 0.10765 0.27839 0.92132 0.0
H3158 H 0.09482 0.27859 0.83385 0.0
H3159 H 0.13926 0.28177 0.89707 0.0
H3160 H 0.19299 0.31418 0.85062 0.0
H3161 H 0.16261 0.30787 0.87631 0.0
H3162 H 0.12123 0.25888 0.81593 0.0
H3163 H 0.15124 0.26599 0.79034 0.0
C3164 C 0.07986 0.27578 0.86666 0.0
C3165 C 0.08295 0.27592 0.89154 0.0
C3166 C 0.09798 0.2781 0.85281 0.0
C3167 C 0.11981 0.2804 0.86332 0.0
C3168 C 0.12285 0.28036 0.88826 0.0
C3169 C 0.10467 0.27823 0.90219 0.0
C3170 C 0.17745 0.30187 0.84299 0.0
C3171 C 0.17448 0.2908 0.81837 0.0
C3172 C 0.15998 0.29818 0.85772 0.0
C3173 C 0.13914 0.2831 0.84826 0.0
C3174 C 0.13666 0.2712 0.82385 0.0
C3175 C 0.15398 0.27511 0.80914 0.0
H3176 H 0.60251 0.81284 0.97219 0.0
H3177 H 0.6029 0.74965 0.9167 0.0
H3178 H 0.5933 0.786 1.00106 0.0
H3179 H 0.59412 0.72267 0.94584 0.0
H3180 H 0.55384 0.68079 0.99652 0.0
H3181 H 0.56334 0.70802 0.96798 0.0
H3182 H 0.60857 0.7594 0.02364 0.0
H3183 H 0.5989 0.73214 0.05227 0.0
C3184 C 0.60081 0.79319 0.9662 0.0
C3185 C 0.60339 0.78334 0.94214 0.0
C3186 C 0.59564 0.7778 0.98282 0.0
C3187 C 0.59294 0.75217 0.9758 0.0
C3188 C 0.59578 0.74232 0.95176 0.0
C3189 C 0.60096 0.75776 0.9351 0.0
C3190 C 0.56584 0.6979 1.00266 0.0
C3191 C 0.57569 0.70427 0.02664 0.0
C3192 C 0.57137 0.71345 0.98626 0.0
C3193 C 0.58688 0.7358 0.99342 0.0
C3194 C 0.5964 0.74242 0.01756 0.0
C3195 C 0.59084 0.72685 0.03401 0.0
H3196 H 0.06174 0.77171 0.77893 0.0
H3197 H 0.10742 0.82658 0.75186 0.0
H3198 H 0.09281 0.76152 0.80111 0.0
H3199 H 0.13842 0.81603 0.77339 0.0
H3200 H 0.19234 0.79685 0.81642 0.0
H3201 H 0.1592 0.81341 0.80974 0.0
H3202 H 0.12055 0.73936 0.78652 0.0
H3203 H 0.15358 0.72294 0.79364 0.0
C3204 C 0.07836 0.78203 0.77821 0.0
C3205 C 0.08219 0.79971 0.76341 0.0
C3206 C 0.09618 0.77604 0.79075 0.0
C3207 C 0.11815 0.78761 0.78868 0.0
C3208 C 0.12175 0.80681 0.77555 0.0
C3209 C 0.10395 0.81283 0.76309 0.0
C3210 C 0.17665 0.78416 0.81024 0.0
C3211 C 0.17556 0.75862 0.80523 0.0
C3212 C 0.15768 0.79362 0.80641 0.0
C3213 C 0.13724 0.77775 0.79733 0.0
C3214 C 0.13592 0.75215 0.7938 0.0
C3215 C 0.15488 0.74269 0.79779 0.0
H3216 H 0.14864 0.4131 0.44849 0.0
H3217 H 0.08955 0.4077 0.40113 0.0
H3218 H 0.14536 0.45412 0.4684 0.0
H3219 H 0.08506 0.44739 0.42196 0.0
H3220 H 0.08105 0.52195 0.4582 0.0
H3221 H 0.09388 0.48904 0.43255 0.0
H3222 H 0.12439 0.47061 0.49617 0.0
H3223 H 0.11317 0.50477 0.52119 0.0
C3224 C 0.13506 0.42083 0.44227 0.0
C3225 C 0.11929 0.40727 0.42344 0.0
C3226 C 0.13298 0.44421 0.45381 0.0
C3227 C 0.11467 0.4541 0.44721 0.0
C3228 C 0.09958 0.44083 0.42747 0.0
C3229 C 0.10204 0.41785 0.41555 0.0
C3230 C 0.09075 0.51096 0.4665 0.0
C3231 C 0.09596 0.51561 0.49159 0.0
C3232 C 0.09803 0.49198 0.45188 0.0
C3233 C 0.10998 0.47674 0.46216 0.0
C3234 C 0.11564 0.48205 0.48734 0.0
C3235 C 0.10897 0.5015 0.50182 0.0
H3236 H 0.46526 0.32293 0.23794 0.0
H3237 H 0.46236 0.24521 0.23439 0.0
H3238 H 0.42844 0.3184 0.25195 0.0
H3239 H 0.42547 0.24071 0.24867 0.0
H3240 H 0.36624 0.24975 0.29514 0.0
H3241 H 0.40409 0.25186 0.283 0.0
H3242 H 0.39131 0.29917 0.2336 0.0
H3243 H 0.3542 0.29689 0.24558 0.0
C3244 C 0.45681 0.30493 0.24037 0.0
C3245 C 0.46655 0.2844 0.2349 0.0
C3246 C 0.4357 0.3023 0.24834 0.0
C3247 C 0.42396 0.27915 0.25123 0.0
C3248 C 0.43407 0.25877 0.24663 0.0
C3249 C 0.45515 0.26134 0.23837 0.0
C3250 C 0.37175 0.26066 0.2818 0.0
C3251 C 0.35786 0.27445 0.27242 0.0
C3252 C 0.39327 0.2618 0.27479 0.0
C3253 C 0.4009 0.27637 0.25794 0.0
C3254 C 0.3863 0.28868 0.2474 0.0
C3255 C 0.36502 0.28759 0.25447 0.0
H3256 H 0.62313 0.50372 0.33344 0.0
H3257 H 0.68242 0.5525 0.3704 0.0
H3258 H 0.6051 0.50767 0.37107 0.0
H3259 H 0.66466 0.55638 0.40811 0.0
H3260 H 0.62377 0.57472 0.47317 0.0
H3261 H 0.64152 0.57063 0.43553 0.0
H3262 H 0.59715 0.50056 0.40939 0.0
H3263 H 0.57952 0.50481 0.44717 0.0
C3264 C 0.63254 0.51533 0.34953 0.0
C3265 C 0.65465 0.5277 0.34799 0.0
C3266 C 0.62205 0.51757 0.37165 0.0
C3267 C 0.63285 0.5325 0.39384 0.0
C3268 C 0.655 0.54488 0.39214 0.0
C3269 C 0.6655 0.54251 0.37007 0.0
C3270 C 0.61764 0.5583 0.45954 0.0
C3271 C 0.59963 0.5403 0.4641 0.0
C3272 C 0.62811 0.55581 0.43746 0.0
C3273 C 0.62132 0.53515 0.41817 0.0
C3274 C 0.60327 0.51711 0.42282 0.0
C3275 C 0.59289 0.51955 0.445 0.0
H3276 H 0.32772 0.88953 0.08825 0.0
H3277 H 0.36507 0.96092 0.12445 0.0
H3278 H 0.33858 0.8717 0.12229 0.0
H3279 H 0.37675 0.943 0.15804 0.0
H3280 H 0.37995 0.90488 0.22325 0.0
H3281 H 0.36671 0.92457 0.19163 0.0
H3282 H 0.37135 0.8614 0.13788 0.0
H3283 H 0.38362 0.84148 0.16957 0.0
C3284 C 0.33811 0.90143 0.10358 0.0
C3285 C 0.34561 0.92656 0.10367 0.0
C3286 C 0.34456 0.89119 0.12299 0.0
C3287 C 0.35891 0.90581 0.14275 0.0
C3288 C 0.36561 0.9312 0.14324 0.0
C3289 C 0.35893 0.94148 0.12394 0.0
C3290 C 0.37818 0.8953 0.20466 0.0
C3291 C 0.38237 0.87145 0.19892 0.0
C3292 C 0.37065 0.90659 0.18651 0.0
C3293 C 0.36752 0.89438 0.16219 0.0
C3294 C 0.37282 0.87102 0.15644 0.0
C3295 C 0.38005 0.85967 0.17458 0.0
H3296 H 0.99854 0.51953 0.84346 0.0
H3297 H 0.98297 0.59115 0.86571 0.0
H3298 H 0.01872 0.52351 0.88285 0.0
H3299 H 1.00361 0.59516 0.90534 0.0
H3300 H 0.06356 0.59219 0.96448 0.0
H3301 H 0.04673 0.59369 0.92433 0.0
H3302 H 0.99979 0.52632 0.92492 0.0
H3303 H 0.01613 0.52482 0.96463 0.0
C3304 C 0.9997 0.53629 0.85664 0.0
C3305 C 0.98898 0.55493 0.85164 0.0
C3306 C 1.01124 0.53853 0.87914 0.0
C3307 C 1.01254 0.55956 0.897 0.0
C3308 C 1.00285 0.57883 0.89171 0.0
C3309 C 0.991 0.57647 0.86917 0.0
C3310 C 0.04961 0.57777 0.95602 0.0
C3311 C 0.0413 0.55826 0.96766 0.0
C3312 C 0.03997 0.57873 0.93319 0.0
C3313 C 0.02216 0.56 0.92164 0.0
C3314 C 1.01367 0.54083 0.93344 0.0
C3315 C 0.02302 0.54005 0.95625 0.0
H3316 H 0.27481 0.20447 0.60035 0.0
H3317 H 0.33038 0.26191 0.59391 0.0
H3318 H 0.27566 0.22174 0.64308 0.0
H3319 H 0.33167 0.27894 0.63718 0.0
H3320 H 0.30821 0.23286 0.7203 0.0
H3321 H 0.30191 0.22162 0.6766 0.0
H3322 H 0.31298 0.29857 0.67167 0.0
H3323 H 0.31966 0.30984 0.71613 0.0
C3324 C 0.28718 0.22089 0.60806 0.0
C3325 C 0.30275 0.2316 0.59382 0.0
C3326 C 0.28769 0.23078 0.63259 0.0
C3327 C 0.30396 0.25151 0.64369 0.0
C3328 C 0.31885 0.26304 0.6292 0.0
C3329 C 0.31822 0.2532 0.60446 0.0
C3330 C 0.3089 0.24739 0.7099 0.0
C3331 C 0.31383 0.27216 0.72154 0.0
C3332 C 0.3052 0.24096 0.68483 0.0
C3333 C 0.30668 0.25916 0.67055 0.0
C3334 C 0.3117 0.28411 0.68217 0.0
C3335 C 0.31525 0.29058 0.70754 0.0
H3336 H 0.68273 0.53532 0.19163 0.0
H3337 H 0.61845 0.51334 0.21569 0.0
H3338 H 0.66551 0.5411 0.15386 0.0
H3339 H 0.60071 0.51827 0.17717 0.0
H3340 H 0.57006 0.53706 0.10547 0.0
H3341 H 0.58631 0.5332 0.14532 0.0
H3342 H 0.64968 0.53391 0.11677 0.0
H3343 H 0.63374 0.53868 0.07823 0.0
C3344 C 0.66476 0.53135 0.18891 0.0
C3345 C 0.65246 0.52356 0.20758 0.0
C3346 C 0.6545 0.53459 0.16656 0.0
C3347 C 0.631 0.53007 0.16087 0.0
C3348 C 0.61865 0.5223 0.17974 0.0
C3349 C 0.62901 0.51923 0.20229 0.0
C3350 C 0.58759 0.5369 0.1078 0.0
C3351 C 0.60038 0.53887 0.08786 0.0
C3352 C 0.59713 0.53435 0.13104 0.0
C3353 C 0.62 0.53326 0.13577 0.0
C3354 C 0.6324 0.5351 0.11551 0.0
C3355 C 0.62298 0.53779 0.09266 0.0
H3356 H 0.36416 0.93251 0.9616 0.0
H3357 H 0.30811 0.88138 0.97826 0.0
H3358 H 0.36444 0.90562 0.9231 0.0
H3359 H 0.30754 0.8548 0.93893 0.0
H3360 H 0.32306 0.80259 0.87396 0.0
H3361 H 0.32581 0.82736 0.91451 0.0
H3362 H 0.34453 0.89352 0.88529 0.0
H3363 H 0.34266 0.86894 0.84544 0.0
C3364 C 0.35168 0.91561 0.95685 0.0
C3365 C 0.33598 0.90915 0.97282 0.0
C3366 C 0.35177 0.90018 0.93469 0.0
C3367 C 0.33587 0.87806 0.92767 0.0
C3368 C 0.32022 0.87151 0.9438 0.0
C3369 C 0.32037 0.88683 0.96623 0.0
C3370 C 0.32787 0.82243 0.87629 0.0
C3371 C 0.33222 0.83375 0.8563 0.0
C3372 C 0.32933 0.83665 0.89953 0.0
C3373 C 0.33523 0.86253 0.90328 0.0
C3374 C 0.34023 0.87368 0.88331 0.0
C3375 C 0.33897 0.85949 0.86025 0.0
H3376 H 0.9641 0.50087 0.70975 0.0
H3377 H 0.01633 0.55824 0.75088 0.0
H3378 H 0.98939 0.49128 0.67971 0.0
H3379 H 0.0419 0.54817 0.72122 0.0
H3380 H 0.07485 0.53909 0.65072 0.0
H3381 H 0.04962 0.54997 0.68037 0.0
H3382 H 0.02128 0.47274 0.67585 0.0
H3383 H 0.04567 0.46204 0.6451 0.0
C3384 C 0.981 0.51144 0.71233 0.0
C3385 C 0.98828 0.53029 0.73262 0.0
C3386 C 0.99555 0.50581 0.69525 0.0
C3387 C 0.01773 0.5188 0.69818 0.0
C3388 C 0.02487 0.53797 0.7183 0.0
C3389 C 1.01026 0.5437 0.73532 0.0
C3390 C 0.06304 0.5245 0.65588 0.0
C3391 C 0.06201 0.49976 0.64536 0.0
C3392 C 0.04879 0.53069 0.6731 0.0
C3393 C 0.03333 0.51223 0.68037 0.0
C3394 C 0.03273 0.48743 0.67032 0.0
C3395 C 0.0469 0.48126 0.65296 0.0
H3396 H 0.30063 0.19153 0.43579 0.0
H3397 H 0.31816 0.265 0.47869 0.0
H3398 H 0.30084 0.20859 0.39895 0.0
H3399 H 0.31863 0.28212 0.44159 0.0
H3400 H 0.3409 0.29737 0.36597 0.0
H3401 H 0.34089 0.28246 0.40409 0.0
H3402 H 0.27728 0.23418 0.37954 0.0
H3403 H 0.27679 0.24971 0.34198 0.0
C3404 C 0.30464 0.21134 0.43737 0.0
C3405 C 0.30935 0.22691 0.4602 0.0
C3406 C 0.30464 0.22111 0.41624 0.0
C3407 C 0.30966 0.2467 0.41734 0.0
C3408 C 0.3148 0.26232 0.44015 0.0
C3409 C 0.31447 0.25253 0.46138 0.0
C3410 C 0.32687 0.28359 0.36863 0.0
C3411 C 0.30918 0.2741 0.35034 0.0
C3412 C 0.32685 0.27514 0.39057 0.0
C3413 C 0.30926 0.25684 0.39468 0.0
C3414 C 0.29133 0.24787 0.37672 0.0
C3415 C 0.29117 0.25661 0.35501 0.0
H3416 H 0.37585 0.63919 0.53476 0.0
H3417 H 0.32081 0.58094 0.50088 0.0
H3418 H 0.40058 0.6101 0.53053 0.0
H3419 H 0.34558 0.55175 0.4968 0.0
H3420 H 0.40532 0.51775 0.46882 0.0
H3421 H 0.37772 0.54365 0.474 0.0
H3422 H 0.40649 0.57389 0.54729 0.0
H3423 H 0.43388 0.548 0.54219 0.0
C3424 C 0.36904 0.62016 0.52646 0.0
C3425 C 0.34642 0.61234 0.51817 0.0
C3426 C 0.38315 0.60346 0.52417 0.0
C3427 C 0.37498 0.5786 0.51345 0.0
C3428 C 0.35236 0.57081 0.50501 0.0
C3429 C 0.3382 0.5875 0.50744 0.0
C3430 C 0.40543 0.52957 0.48617 0.0
C3431 C 0.42193 0.53108 0.50499 0.0
C3432 C 0.38968 0.54444 0.48912 0.0
C3433 C 0.39018 0.56108 0.51094 0.0
C3434 C 0.40601 0.56166 0.5301 0.0
C3435 C 0.42166 0.5468 0.52718 0.0
H3436 H 0.91091 0.90822 0.54241 0.0
H3437 H 0.89055 0.97756 0.56204 0.0
H3438 H 0.94914 0.93029 0.54201 0.0
H3439 H 0.92873 0.99958 0.56167 0.0
H3440 H 1.00426 0.0296 0.57773 0.0
H3441 H 0.96748 1.00659 0.58283 0.0
H3442 H 0.96776 0.9573 0.51518 0.0
H3443 H 1.00412 0.98039 0.5098 0.0
C3444 C 0.91464 0.92815 0.54689 0.0
C3445 C 0.89772 0.94116 0.55214 0.0
C3446 C 0.9365 0.94079 0.54655 0.0
C3447 C 0.94192 0.96668 0.55172 0.0
C3448 C 0.92512 0.97964 0.55781 0.0
C3449 C 0.90323 0.96702 0.55788 0.0
C3450 C 0.99639 1.01403 0.56383 0.0
C3451 C 1.00698 1.00727 0.54308 0.0
C3452 C 0.97536 1.00078 0.56682 0.0
C3453 C 0.96469 0.98017 0.54937 0.0
C3454 C 0.9756 0.97296 0.52904 0.0
C3455 C 0.99643 0.98636 0.5259 0.0
H3456 H 0.93208 0.16037 0.26273 0.0
H3457 H 0.88358 0.12734 0.30519 0.0
H3458 H 0.91237 0.19416 0.2619 0.0
H3459 H 0.86413 0.1617 0.30505 0.0
H3460 H 0.84416 0.243 0.31542 0.0
H3461 H 0.86258 0.20801 0.31826 0.0
H3462 H 0.87941 0.20627 0.24532 0.0
H3463 H 0.86044 0.2398 0.24217 0.0
C3464 C 0.91727 0.16012 0.27212 0.0
C3465 C 0.90996 0.14016 0.28398 0.0
C3466 C 0.90564 0.1799 0.27158 0.0
C3467 C 0.88604 0.18171 0.28339 0.0
C3468 C 0.87895 0.16196 0.2957 0.0
C3469 C 0.8903 0.14179 0.2957 0.0
C3470 C 0.85136 0.23499 0.29974 0.0
C3471 C 0.84986 0.24487 0.27826 0.0
C3472 C 0.86227 0.2146 0.30139 0.0
C3473 C 0.87319 0.20338 0.28208 0.0
C3474 C 0.87183 0.21367 0.26098 0.0
C3475 C 0.86056 0.23333 0.25913 0.0
H3476 H 0.73431 0.15918 0.99233 0.0
H3477 H 0.73645 0.09737 0.02742 0.0
H3478 H 0.69381 0.14894 0.98874 0.0
H3479 H 0.69616 0.0874 0.02427 0.0
H3480 H 0.62376 0.06449 1.00379 0.0
H3481 H 0.66306 0.07272 0.99864 0.0
H3482 H 0.6646 0.15095 0.01417 0.0
H3483 H 0.62477 0.14234 0.01861 0.0
C3484 C 0.7261 0.14332 0.99914 0.0
C3485 C 0.73849 0.12913 1.01027 0.0
C3486 C 0.70291 0.13756 0.99724 0.0
C3487 C 0.69169 0.11752 1.00647 0.0
C3488 C 0.70419 0.10288 0.01685 0.0
C3489 C 0.72732 0.10862 0.01873 0.0
C3490 C 0.6325 0.0834 1.00631 0.0
C3491 C 0.62156 0.10284 1.01274 0.0
C3492 C 0.65506 0.08816 1.00323 0.0
C3493 C 0.66716 0.1125 1.00651 0.0
C3494 C 0.6558 0.13196 1.01141 0.0
C3495 C 0.63309 0.12711 0.01418 0.0
H3496 H 0.2144 0.46672 0.26626 0.0
H3497 H 0.23958 0.52254 0.32975 0.0
H3498 H 0.22846 0.43629 0.28545 0.0
H3499 H 0.25387 0.49212 0.34879 0.0
H3500 H 0.2994 0.43502 0.35618 0.0
H3501 H 0.28381 0.46643 0.34033 0.0
H3502 H 0.22041 0.41582 0.32257 0.0
H3503 H 0.23594 0.38446 0.33872 0.0
C3504 C 0.22304 0.4725 0.28425 0.0
C3505 C 0.22596 0.497 0.29649 0.0
C3506 C 0.2309 0.45505 0.2953 0.0
C3507 C 0.24213 0.46185 0.31865 0.0
C3508 C 0.24531 0.48642 0.33076 0.0
C3509 C 0.23713 0.50379 0.31987 0.0
C3510 C 0.28208 0.4307 0.34911 0.0
C3511 C 0.26895 0.40719 0.34842 0.0
C3512 C 0.27315 0.4487 0.34014 0.0
C3513 C 0.25099 0.44345 0.33001 0.0
C3514 C 0.23763 0.42022 0.33002 0.0
C3515 C 0.24647 0.40235 0.33939 0.0
H3516 H 0.25741 0.42005 0.05124 0.0
H3517 H 0.31137 0.4788 0.04375 0.0
H3518 H 0.23111 0.44666 0.0474 0.0
H3519 H 0.28506 0.50519 0.03891 0.0
H3520 H 0.23468 0.55404 0.04977 0.0
H3521 H 0.2606 0.52815 0.05786 0.0
H3522 H 0.214 0.4641 0.0182 0.0
H3523 H 0.18793 0.49 1.01072 0.0
C3524 C 0.26365 0.43869 0.04879 0.0
C3525 C 0.28648 0.44731 0.04779 0.0
C3526 C 0.24854 0.45392 0.04637 0.0
C3527 C 0.25582 0.47812 0.04263 0.0
C3528 C 0.27877 0.48684 0.04209 0.0
C3529 C 0.2939 0.47166 0.04475 0.0
C3530 C 0.23 0.53441 0.04278 0.0
C3531 C 0.20925 0.5241 0.02954 0.0
C3532 C 0.24491 0.51953 0.04735 0.0
C3533 C 0.23955 0.49393 0.03864 0.0
C3534 C 0.21865 0.48363 0.0256 0.0
C3535 C 0.20367 0.49849 0.02121 0.0
H3536 H 0.93619 0.9851 0.28065 0.0
H3537 H 0.87406 1.0077 0.27044 0.0
H3538 H 0.91637 0.94307 0.27977 0.0
H3539 H 0.85393 0.96553 0.27003 0.0
H3540 H 0.82212 0.88135 0.25242 0.0
H3541 H 0.84126 0.92362 0.25206 0.0
H3542 H 0.89595 0.9143 0.29843 0.0
H3543 H 0.87697 0.87231 0.29848 0.0
C3544 C 0.91821 0.98123 0.27825 0.0
C3545 C 0.90704 1.00042 0.27561 0.0
C3546 C 0.90661 0.95677 0.27794 0.0
C3547 C 0.88308 0.94999 0.275 0.0
C3548 C 0.87189 0.96923 0.27212 0.0
C3549 C 0.88356 0.99379 0.27247 0.0
C3550 C 0.83814 0.88828 0.26274 0.0
C3551 C 0.84753 0.87275 0.27569 0.0
C3552 C 0.84932 0.9129 0.26257 0.0
C3553 C 0.87061 0.92332 0.27519 0.0
C3554 C 0.87994 0.90762 0.28802 0.0
C3555 C 0.86878 0.88313 0.28822 0.0
H3556 H 0.70603 0.13127 0.80655 0.0
H3557 H 0.76131 0.10951 0.77146 0.0
H3558 H 0.72613 0.17399 0.81536 0.0
H3559 H 0.78153 0.15225 0.78036 0.0
H3560 H 0.81813 0.23026 0.81035 0.0
H3561 H 0.7996 0.18766 0.81045 0.0
H3562 H 0.73626 0.20553 0.79234 0.0
H3563 H 0.75496 0.24795 0.7926 0.0
C3564 C 0.72254 0.13562 0.8008 0.0
C3565 C 0.73198 0.1171 0.78801 0.0
C3566 C 0.73403 0.16012 0.80578 0.0
C3567 C 0.7553 0.16667 0.79822 0.0
C3568 C 0.76514 0.14793 0.78638 0.0
C3569 C 0.75353 0.12343 0.78115 0.0
C3570 C 0.80025 0.22485 0.8064 0.0
C3571 C 0.78793 0.24172 0.80031 0.0
C3572 C 0.78964 0.20058 0.80647 0.0
C3573 C 0.76647 0.19303 0.80103 0.0
C3574 C 0.7541 0.21064 0.79667 0.0
C3575 C 0.76475 0.23481 0.79643 0.0
loop_
_geom_bond_atom_site_label_1
_geom_bond_atom_site_label_2
_geom_bond_distance
_geom_bond_site_symmetry_2
_ccdc_geom_bond_type
In0 O1 2.294 . S
In0 O2 2.326 . S
In0 O6 2.266 . S
In0 O7 2.326 . S
In0 O8 2.266 . S
In0 O9 2.326 . S
In0 O11 2.294 . S
In0 O12 2.326 . S
O1 In0 2.294 . S
O1 C10 1.240 . S
O2 In0 2.326 . S
O2 C10 1.252 . S
C3 O6 1.252 . S
C3 O7 1.260 . S
C4 O11 1.240 . S
C4 O12 1.252 . S
C5 O8 1.252 . S
C5 O9 1.260 . S
O6 In0 2.266 . S
O6 C3 1.252 . S
O7 In0 2.326 . S
O7 C3 1.260 . S
O8 In0 2.266 . S
O8 C5 1.252 . S
O9 In0 2.326 . S
O9 C5 1.260 . S
C10 O1 1.240 . S
C10 O2 1.252 . S
O11 In0 2.294 . S
O11 C4 1.240 . S
O12 In0 2.326 . S
O12 C4 1.252 . S
In13 O14 2.294 . S
In13 O15 2.326 . S
In13 O19 2.266 1_455 S
In13 O20 2.326 1_455 S
In13 O21 2.261 1_455 S
In13 O22 2.318 1_455 S
In13 O24 2.298 . S
In13 O25 2.333 . S
O14 In13 2.294 . S
O14 C23 1.240 . S
O15 In13 2.326 . S
O15 C23 1.252 . S
C16 O19 1.252 . S
C16 O20 1.260 . S
C17 O24 1.240 . S
C17 O25 1.252 . S
C18 O21 1.252 . S
C18 O22 1.260 . S
O19 In13 2.266 1_655 S
O19 C16 1.252 . S
O20 In13 2.326 1_655 S
O20 C16 1.260 . S
O21 In13 2.261 1_655 S
O21 C18 1.252 . S
O22 In13 2.318 1_655 S
O22 C18 1.260 . S
C23 O14 1.240 . S
C23 O15 1.252 . S
O24 In13 2.298 . S
O24 C17 1.240 . S
O25 In13 2.333 . S
O25 C17 1.252 . S
In26 O27 2.294 . S
In26 O28 2.326 . S
In26 O32 2.266 . S
In26 O33 2.326 . S
In26 O34 2.266 . S
In26 O35 2.326 . S
In26 O37 2.294 . S
In26 O38 2.326 . S
O27 In26 2.294 . S
O27 C36 1.240 . S
O28 In26 2.326 . S
O28 C36 1.252 . S
C29 O32 1.252 . S
C29 O33 1.260 . S
C30 O37 1.240 . S
C30 O38 1.252 . S
C31 O34 1.252 . S
C31 O35 1.260 . S
O32 In26 2.266 . S
O32 C29 1.252 . S
O33 In26 2.326 . S
O33 C29 1.260 . S
O34 In26 2.266 . S
O34 C31 1.252 . S
O35 In26 2.326 . S
O35 C31 1.260 . S
C36 O27 1.240 . S
C36 O28 1.252 . S
O37 In26 2.294 . S
O37 C30 1.240 . S
O38 In26 2.326 . S
O38 C30 1.252 . S
In39 O40 2.294 . S
In39 O41 2.326 . S
In39 O45 2.266 . S
In39 O46 2.326 . S
In39 O47 2.266 . S
In39 O48 2.326 . S
In39 O50 2.294 . S
In39 O51 2.326 . S
O40 In39 2.294 . S
O40 C49 1.240 . S
O41 In39 2.326 . S
O41 C49 1.252 . S
C42 O45 1.252 . S
C42 O46 1.260 . S
C43 O50 1.240 . S
C43 O51 1.252 . S
C44 O47 1.252 . S
C44 O48 1.260 . S
O45 In39 2.266 . S
O45 C42 1.252 . S
O46 In39 2.326 . S
O46 C42 1.260 . S
O47 In39 2.266 . S
O47 C44 1.252 . S
O48 In39 2.326 . S
O48 C44 1.260 . S
C49 O40 1.240 . S
C49 O41 1.252 . S
O50 In39 2.294 . S
O50 C43 1.240 . S
O51 In39 2.326 . S
O51 C43 1.252 . S
In52 O53 2.294 . S
In52 O54 2.326 . S
In52 O58 2.266 . S
In52 O59 2.326 . S
In52 O60 2.266 . S
In52 O61 2.326 . S
In52 O63 2.294 . S
In52 O64 2.326 . S
O53 In52 2.294 . S
O53 C62 1.240 . S
O54 In52 2.326 . S
O54 C62 1.252 . S
C55 O58 1.252 . S
C55 O59 1.260 . S
C56 O63 1.240 . S
C56 O64 1.252 . S
C57 O60 1.252 . S
C57 O61 1.260 . S
O58 In52 2.266 . S
O58 C55 1.252 . S
O59 In52 2.326 . S
O59 C55 1.260 . S
O60 In52 2.266 . S
O60 C57 1.252 . S
O61 In52 2.326 . S
O61 C57 1.260 . S
C62 O53 1.240 . S
C62 O54 1.252 . S
O63 In52 2.294 . S
O63 C56 1.240 . S
O64 In52 2.326 . S
O64 C56 1.252 . S
In65 O66 2.294 . S
In65 O67 2.326 . S
In65 O71 2.266 . S
In65 O72 2.326 . S
In65 O73 2.266 . S
In65 O74 2.326 . S
In65 O76 2.294 . S
In65 O77 2.326 . S
O66 In65 2.294 . S
O66 C75 1.240 . S
O67 In65 2.326 . S
O67 C75 1.252 . S
C68 O71 1.252 . S
C68 O72 1.260 . S
C69 O76 1.240 . S
C69 O77 1.252 . S
C70 O73 1.252 . S
C70 O74 1.260 . S
O71 In65 2.266 . S
O71 C68 1.252 . S
O72 In65 2.326 . S
O72 C68 1.260 . S
O73 In65 2.266 . S
O73 C70 1.252 . S
O74 In65 2.326 . S
O74 C70 1.260 . S
C75 O66 1.240 . S
C75 O67 1.252 . S
O76 In65 2.294 . S
O76 C69 1.240 . S
O77 In65 2.326 . S
O77 C69 1.252 . S
In78 O79 2.294 . S
In78 O80 2.326 . S
In78 O84 2.266 . S
In78 O85 2.326 . S
In78 O86 2.266 . S
In78 O87 2.326 . S
In78 O89 2.294 . S
In78 O90 2.326 . S
O79 In78 2.294 . S
O79 C88 1.240 . S
O80 In78 2.326 . S
O80 C88 1.252 . S
C81 O84 1.252 . S
C81 O85 1.260 . S
C82 O89 1.240 . S
C82 O90 1.252 . S
C83 O86 1.252 . S
C83 O87 1.260 . S
O84 In78 2.266 . S
O84 C81 1.252 . S
O85 In78 2.326 . S
O85 C81 1.260 . S
O86 In78 2.266 . S
O86 C83 1.252 . S
O87 In78 2.326 . S
O87 C83 1.260 . S
C88 O79 1.240 . S
C88 O80 1.252 . S
O89 In78 2.294 . S
O89 C82 1.240 . S
O90 In78 2.326 . S
O90 C82 1.252 . S
In91 O92 2.294 . S
In91 O93 2.326 . S
In91 O97 2.266 . S
In91 O98 2.326 . S
In91 O99 2.266 1_455 S
In91 O100 2.326 1_455 S
In91 O102 2.294 . S
In91 O103 2.326 . S
O92 In91 2.294 . S
O92 C101 1.240 . S
O93 In91 2.326 . S
O93 C101 1.252 . S
C94 O97 1.252 . S
C94 O98 1.260 . S
C95 O102 1.240 . S
C95 O103 1.252 . S
C96 O99 1.252 . S
C96 O100 1.260 . S
O97 In91 2.266 . S
O97 C94 1.252 . S
O98 In91 2.326 . S
O98 C94 1.260 . S
O99 In91 2.266 1_655 S
O99 C96 1.252 . S
O100 In91 2.326 1_655 S
O100 C96 1.260 . S
C101 O92 1.240 . S
C101 O93 1.252 . S
O102 In91 2.294 . S
O102 C95 1.240 . S
O103 In91 2.326 . S
O103 C95 1.252 . S
In104 O105 2.294 . S
In104 O106 2.326 . S
In104 O110 2.266 . S
In104 O111 2.326 . S
In104 O112 2.266 1_545 S
In104 O113 2.326 1_545 S
In104 O115 2.294 . S
In104 O116 2.326 . S
O105 In104 2.294 . S
O105 C114 1.240 . S
O106 In104 2.326 . S
O106 C114 1.252 . S
C107 O110 1.252 . S
C107 O111 1.260 . S
C108 O115 1.240 . S
C108 O116 1.252 . S
C109 O112 1.252 . S
C109 O113 1.260 . S
O110 In104 2.266 . S
O110 C107 1.252 . S
O111 In104 2.326 . S
O111 C107 1.260 . S
O112 In104 2.266 1_565 S
O112 C109 1.252 . S
O113 In104 2.326 1_565 S
O113 C109 1.260 . S
C114 O105 1.240 . S
C114 O106 1.252 . S
O115 In104 2.294 . S
O115 C108 1.240 . S
O116 In104 2.326 . S
O116 C108 1.252 . S
In117 O118 2.294 . S
In117 O119 2.326 . S
In117 O123 2.266 . S
In117 O124 2.326 . S
In117 O125 2.266 . S
In117 O126 2.326 . S
In117 O128 2.294 . S
In117 O129 2.326 . S
O118 In117 2.294 . S
O118 C127 1.240 . S
O119 In117 2.326 . S
O119 C127 1.252 . S
C120 O123 1.252 . S
C120 O124 1.260 . S
C121 O128 1.240 . S
C121 O129 1.252 . S
C122 O125 1.252 . S
C122 O126 1.260 . S
O123 In117 2.266 . S
O123 C120 1.252 . S
O124 In117 2.326 . S
O124 C120 1.260 . S
O125 In117 2.266 . S
O125 C122 1.252 . S
O126 In117 2.326 . S
O126 C122 1.260 . S
C127 O118 1.240 . S
C127 O119 1.252 . S
O128 In117 2.294 . S
O128 C121 1.240 . S
O129 In117 2.326 . S
O129 C121 1.252 . S
In130 O131 2.294 1_545 S
In130 O132 2.326 1_545 S
In130 O136 2.266 . S
In130 O137 2.326 . S
In130 O138 2.264 . S
In130 O139 2.322 . S
In130 O141 2.296 1_545 S
In130 O142 2.330 1_545 S
O131 In130 2.294 1_565 S
O131 C140 1.240 . S
O132 In130 2.326 1_565 S
O132 C140 1.252 . S
C133 O136 1.252 . S
C133 O137 1.260 . S
C134 O141 1.240 . S
C134 O142 1.252 . S
C135 O138 1.252 . S
C135 O139 1.260 . S
O136 In130 2.266 . S
O136 C133 1.252 . S
O137 In130 2.326 . S
O137 C133 1.260 . S
O138 In130 2.264 . S
O138 C135 1.252 . S
O139 In130 2.322 . S
O139 C135 1.260 . S
C140 O131 1.240 . S
C140 O132 1.252 . S
O141 In130 2.296 1_565 S
O141 C134 1.240 . S
O142 In130 2.330 1_565 S
O142 C134 1.252 . S
In143 O144 2.294 . S
In143 O145 2.326 . S
In143 O149 2.266 1_554 S
In143 O150 2.326 1_554 S
In143 O151 2.266 . S
In143 O152 2.326 . S
In143 O154 2.294 . S
In143 O155 2.326 . S
O144 In143 2.294 . S
O144 C153 1.240 . S
O145 In143 2.326 . S
O145 C153 1.252 . S
C146 O149 1.252 . S
C146 O150 1.260 . S
C147 O154 1.240 . S
C147 O155 1.252 . S
C148 O151 1.252 . S
C148 O152 1.260 . S
O149 In143 2.266 1_556 S
O149 C146 1.252 . S
O150 In143 2.326 1_556 S
O150 C146 1.260 . S
O151 In143 2.266 . S
O151 C148 1.252 . S
O152 In143 2.326 . S
O152 C148 1.260 . S
C153 O144 1.240 . S
C153 O145 1.252 . S
O154 In143 2.294 . S
O154 C147 1.240 . S
O155 In143 2.326 . S
O155 C147 1.252 . S
In156 O157 2.294 . S
In156 O158 2.326 . S
In156 O162 2.266 . S
In156 O163 2.326 1_554 S
In156 O164 2.266 . S
In156 O165 2.326 . S
In156 O167 2.294 . S
In156 O168 2.326 . S
O157 In156 2.294 . S
O157 C166 1.240 . S
O158 In156 2.326 . S
O158 C166 1.252 . S
C159 O162 1.252 1_556 S
C159 O163 1.260 . S
C160 O167 1.240 . S
C160 O168 1.252 . S
C161 O164 1.252 . S
C161 O165 1.260 . S
O162 In156 2.266 . S
O162 C159 1.252 1_554 S
O163 In156 2.326 1_556 S
O163 C159 1.260 . S
O164 In156 2.266 . S
O164 C161 1.252 . S
O165 In156 2.326 . S
O165 C161 1.260 . S
C166 O157 1.240 . S
C166 O158 1.252 . S
O167 In156 2.294 . S
O167 C160 1.240 . S
O168 In156 2.326 . S
O168 C160 1.252 . S
In169 O170 2.294 . S
In169 O171 2.326 . S
In169 O175 2.266 . S
In169 O176 2.326 . S
In169 O177 2.266 . S
In169 O178 2.326 1_554 S
In169 O180 2.294 . S
In169 O181 2.326 . S
O170 In169 2.294 . S
O170 C179 1.240 . S
O171 In169 2.326 . S
O171 C179 1.252 . S
C172 O175 1.252 . S
C172 O176 1.260 . S
C173 O180 1.240 . S
C173 O181 1.252 . S
C174 O177 1.252 1_556 S
C174 O178 1.260 . S
O175 In169 2.266 . S
O175 C172 1.252 . S
O176 In169 2.326 . S
O176 C172 1.260 . S
O177 In169 2.266 . S
O177 C174 1.252 1_554 S
O178 In169 2.326 1_556 S
O178 C174 1.260 . S
C179 O170 1.240 . S
C179 O171 1.252 . S
O180 In169 2.294 . S
O180 C173 1.240 . S
O181 In169 2.326 . S
O181 C173 1.252 . S
In182 O183 2.294 . S
In182 O184 2.326 . S
In182 O188 2.266 . S
In182 O189 2.326 . S
In182 O190 2.266 . S
In182 O191 2.326 . S
In182 O193 2.294 . S
In182 O194 2.326 . S
O183 In182 2.294 . S
O183 C192 1.240 . S
O184 In182 2.326 . S
O184 C192 1.252 . S
C185 O188 1.252 . S
C185 O189 1.260 . S
C186 O193 1.240 . S
C186 O194 1.252 . S
C187 O190 1.252 . S
C187 O191 1.260 . S
O188 In182 2.266 . S
O188 C185 1.252 . S
O189 In182 2.326 . S
O189 C185 1.260 . S
O190 In182 2.266 . S
O190 C187 1.252 . S
O191 In182 2.326 . S
O191 C187 1.260 . S
C192 O183 1.240 . S
C192 O184 1.252 . S
O193 In182 2.294 . S
O193 C186 1.240 . S
O194 In182 2.326 . S
O194 C186 1.252 . S
In195 O196 2.294 . S
In195 O197 2.326 . S
In195 O201 2.266 . S
In195 O202 2.326 . S
In195 O203 2.266 . S
In195 O204 2.326 . S
In195 O206 2.294 . S
In195 O207 2.326 . S
O196 In195 2.294 . S
O196 C205 1.240 . S
O197 In195 2.326 . S
O197 C205 1.252 . S
C198 O201 1.252 . S
C198 O202 1.260 . S
C199 O206 1.240 . S
C199 O207 1.252 . S
C200 O203 1.252 . S
C200 O204 1.260 . S
O201 In195 2.266 . S
O201 C198 1.252 . S
O202 In195 2.326 . S
O202 C198 1.260 . S
O203 In195 2.266 . S
O203 C200 1.252 . S
O204 In195 2.326 . S
O204 C200 1.260 . S
C205 O196 1.240 . S
C205 O197 1.252 . S
O206 In195 2.294 . S
O206 C199 1.240 . S
O207 In195 2.326 . S
O207 C199 1.252 . S
In208 O209 2.294 . S
In208 O210 2.326 . S
In208 O214 2.266 . S
In208 O215 2.326 . S
In208 O216 2.266 . S
In208 O217 2.326 . S
In208 O219 2.294 . S
In208 O220 2.326 . S
O209 In208 2.294 . S
O209 C218 1.240 . S
O210 In208 2.326 . S
O210 C218 1.252 . S
C211 O214 1.252 . S
C211 O215 1.260 . S
C212 O219 1.240 . S
C212 O220 1.252 . S
C213 O216 1.252 . S
C213 O217 1.260 . S
O214 In208 2.266 . S
O214 C211 1.252 . S
O215 In208 2.326 . S
O215 C211 1.260 . S
O216 In208 2.266 . S
O216 C213 1.252 . S
O217 In208 2.326 . S
O217 C213 1.260 . S
C218 O209 1.240 . S
C218 O210 1.252 . S
O219 In208 2.294 . S
O219 C212 1.240 . S
O220 In208 2.326 . S
O220 C212 1.252 . S
In221 O222 2.294 . S
In221 O223 2.326 . S
In221 O227 2.266 . S
In221 O228 2.326 . S
In221 O229 2.266 . S
In221 O230 2.326 . S
In221 O232 2.294 . S
In221 O233 2.326 . S
O222 In221 2.294 . S
O222 C231 1.240 . S
O223 In221 2.326 . S
O223 C231 1.252 . S
C224 O227 1.252 . S
C224 O228 1.260 . S
C225 O232 1.240 . S
C225 O233 1.252 . S
C226 O229 1.252 . S
C226 O230 1.260 . S
O227 In221 2.266 . S
O227 C224 1.252 . S
O228 In221 2.326 . S
O228 C224 1.260 . S
O229 In221 2.266 . S
O229 C226 1.252 . S
O230 In221 2.326 . S
O230 C226 1.260 . S
C231 O222 1.240 . S
C231 O223 1.252 . S
O232 In221 2.294 . S
O232 C225 1.240 . S
O233 In221 2.326 . S
O233 C225 1.252 . S
In234 O235 2.294 . S
In234 O236 2.326 . S
In234 O240 2.266 . S
In234 O241 2.326 . S
In234 O242 2.266 . S
In234 O243 2.326 . S
In234 O245 2.294 . S
In234 O246 2.326 . S
O235 In234 2.294 . S
O235 C244 1.240 . S
O236 In234 2.326 . S
O236 C244 1.252 . S
C237 O240 1.252 . S
C237 O241 1.260 . S
C238 O245 1.240 . S
C238 O246 1.252 . S
C239 O242 1.252 . S
C239 O243 1.260 . S
O240 In234 2.266 . S
O240 C237 1.252 . S
O241 In234 2.326 . S
O241 C237 1.260 . S
O242 In234 2.266 . S
O242 C239 1.252 . S
O243 In234 2.326 . S
O243 C239 1.260 . S
C244 O235 1.240 . S
C244 O236 1.252 . S
O245 In234 2.294 . S
O245 C238 1.240 . S
O246 In234 2.326 . S
O246 C238 1.252 . S
In247 O248 2.294 . S
In247 O249 2.326 . S
In247 O253 2.266 . S
In247 O254 2.326 . S
In247 O255 2.266 . S
In247 O256 2.326 . S
In247 O258 2.294 . S
In247 O259 2.326 . S
O248 In247 2.294 . S
O248 C257 1.240 . S
O249 In247 2.326 . S
O249 C257 1.252 . S
C250 O253 1.252 . S
C250 O254 1.260 . S
C251 O258 1.240 . S
C251 O259 1.252 . S
C252 O255 1.252 . S
C252 O256 1.260 . S
O253 In247 2.266 . S
O253 C250 1.252 . S
O254 In247 2.326 . S
O254 C250 1.260 . S
O255 In247 2.266 . S
O255 C252 1.252 . S
O256 In247 2.326 . S
O256 C252 1.260 . S
C257 O248 1.240 . S
C257 O249 1.252 . S
O258 In247 2.294 . S
O258 C251 1.240 . S
O259 In247 2.326 . S
O259 C251 1.252 . S
In260 O261 2.297 . S
In260 O262 2.327 . S
In260 O266 2.265 1_554 S
In260 O267 2.325 1_554 S
In260 O268 2.255 1_554 S
In260 O269 2.310 1_554 S
In260 O271 2.303 . S
In260 O272 2.342 . S
O261 In260 2.297 . S
O261 C270 1.240 . S
O262 In260 2.327 . S
O262 C270 1.252 . S
C263 O266 1.252 . S
C263 O267 1.260 . S
C264 O271 1.240 . S
C264 O272 1.252 . S
C265 O268 1.252 . S
C265 O269 1.260 . S
O266 In260 2.265 1_556 S
O266 C263 1.252 . S
O267 In260 2.325 1_556 S
O267 C263 1.260 . S
O268 In260 2.255 1_556 S
O268 C265 1.252 . S
O269 In260 2.310 1_556 S
O269 C265 1.260 . S
C270 O261 1.240 . S
C270 O262 1.252 . S
O271 In260 2.303 . S
O271 C264 1.240 . S
O272 In260 2.342 . S
O272 C264 1.252 . S
In273 O274 2.294 . S
In273 O275 2.326 . S
In273 O279 2.266 . S
In273 O280 2.326 . S
In273 O281 2.266 . S
In273 O282 2.326 . S
In273 O284 2.294 . S
In273 O285 2.326 . S
O274 In273 2.294 . S
O274 C283 1.240 . S
O275 In273 2.326 . S
O275 C283 1.252 . S
C276 O279 1.252 . S
C276 O280 1.260 . S
C277 O284 1.240 . S
C277 O285 1.252 . S
C278 O281 1.252 . S
C278 O282 1.260 . S
O279 In273 2.266 . S
O279 C276 1.252 . S
O280 In273 2.326 . S
O280 C276 1.260 . S
O281 In273 2.266 . S
O281 C278 1.252 . S
O282 In273 2.326 . S
O282 C278 1.260 . S
C283 O274 1.240 . S
C283 O275 1.252 . S
O284 In273 2.294 . S
O284 C277 1.240 . S
O285 In273 2.326 . S
O285 C277 1.252 . S
In286 O287 2.294 . S
In286 O288 2.326 . S
In286 O292 2.266 . S
In286 O293 2.326 . S
In286 O294 2.266 . S
In286 O295 2.326 . S
In286 O297 2.294 . S
In286 O298 2.326 . S
O287 In286 2.294 . S
O287 C296 1.240 . S
O288 In286 2.326 . S
O288 C296 1.252 . S
C289 O292 1.252 . S
C289 O293 1.260 . S
C290 O297 1.240 . S
C290 O298 1.252 . S
C291 O294 1.252 . S
C291 O295 1.260 . S
O292 In286 2.266 . S
O292 C289 1.252 . S
O293 In286 2.326 . S
O293 C289 1.260 . S
O294 In286 2.266 . S
O294 C291 1.252 . S
O295 In286 2.326 . S
O295 C291 1.260 . S
C296 O287 1.240 . S
C296 O288 1.252 . S
O297 In286 2.294 . S
O297 C290 1.240 . S
O298 In286 2.326 . S
O298 C290 1.252 . S
In299 O300 2.294 . S
In299 O301 2.326 . S
In299 O305 2.266 . S
In299 O306 2.326 . S
In299 O307 2.266 . S
In299 O308 2.326 . S
In299 O310 2.294 . S
In299 O311 2.326 . S
O300 In299 2.294 . S
O300 C309 1.240 . S
O301 In299 2.326 . S
O301 C309 1.252 . S
C302 O305 1.252 . S
C302 O306 1.260 . S
C303 O310 1.240 . S
C303 O311 1.252 . S
C304 O307 1.252 . S
C304 O308 1.260 . S
O305 In299 2.266 . S
O305 C302 1.252 . S
O306 In299 2.326 . S
O306 C302 1.260 . S
O307 In299 2.266 . S
O307 C304 1.252 . S
O308 In299 2.326 . S
O308 C304 1.260 . S
C309 O300 1.240 . S
C309 O301 1.252 . S
O310 In299 2.294 . S
O310 C303 1.240 . S
O311 In299 2.326 . S
O311 C303 1.252 . S
Tb312 N343 2.660 1_545 S
Tb312 N350 2.600 1_544 S
Tb312 O356 2.546 1_554 S
Tb312 O357 2.610 . S
Tb312 O359 2.320 . S
Tb312 O360 2.552 . S
Tb312 O361 2.413 1_455 S
Tb312 O363 2.362 . S
Tb312 O364 2.421 1_554 S
Tb312 C376 2.833 1_455 S
C313 C316 1.432 . S
C313 C317 1.414 . S
C313 N320 1.359 . S
C314 C316 1.417 . S
C314 C318 1.432 . S
C314 C326 1.410 . S
C315 C317 1.444 . S
C315 C318 1.317 . S
C315 H338 0.929 . S
C316 C313 1.432 . S
C316 C314 1.417 . S
C316 N324 1.360 . S
C317 C313 1.414 . S
C317 C315 1.444 . S
C317 C322 1.385 . S
C318 C314 1.432 . S
C318 C315 1.317 . S
C318 H330 0.930 . S
C319 C321 1.392 . S
C319 C322 1.370 . S
C319 H331 0.931 . S
N320 C313 1.359 . S
N320 C321 1.327 . S
N320 Tb323 2.600 . S
C321 C319 1.392 . S
C321 N320 1.327 . S
C321 H328 0.930 . S
C322 C317 1.385 . S
C322 C319 1.370 . S
C322 H341 0.930 . S
Tb323 N320 2.600 . S
Tb323 N324 2.660 . S
Tb323 O357 2.362 . S
Tb323 O358 2.421 . S
Tb323 O362 2.546 . S
Tb323 O363 2.610 . S
Tb323 O365 2.320 . S
Tb323 O366 2.552 . S
Tb323 O367 2.413 . S
Tb323 C387 2.833 . S
N324 C316 1.360 . S
N324 Tb323 2.660 . S
N324 C325 1.305 . S
C325 N324 1.305 . S
C325 C327 1.407 1_554 S
C325 H332 0.930 1_554 S
C326 C314 1.410 . S
C326 C327 1.345 1_554 S
C326 H334 0.930 . S
C327 C325 1.407 1_556 S
C327 C326 1.345 1_556 S
C327 H329 0.930 . S
H328 C321 0.930 . S
H329 C327 0.930 . S
H330 C318 0.930 . S
H331 C319 0.931 . S
H332 C325 0.930 1_556 S
H333 C347 0.930 . S
H334 C326 0.930 . S
H335 C353 0.930 1_545 S
H336 C344 0.930 1_545 S
H337 C351 0.931 . S
H338 C315 0.929 . S
H339 C345 0.922 1_655 S
H340 C378 0.930 . S
H341 C322 0.930 . S
H342 C377 0.929 . S
N343 Tb312 2.660 1_565 S
N343 C344 1.305 . S
N343 C348 1.360 . S
C344 H336 0.930 1_565 S
C344 N343 1.305 . S
C344 C347 1.407 . S
C345 H339 0.922 1_455 S
C345 C346 1.412 1_455 S
C345 C347 1.354 . S
C346 C345 1.412 1_655 S
C346 C348 1.411 1_655 S
C346 C378 1.437 . S
C347 H333 0.930 . S
C347 C344 1.407 . S
C347 C345 1.354 . S
C348 N343 1.360 . S
C348 C346 1.411 1_455 S
C348 C352 1.432 1_554 S
H349 C354 0.930 . S
N350 Tb312 2.600 1_566 S
N350 C352 1.359 . S
N350 C353 1.327 . S
C351 H337 0.931 . S
C351 C353 1.392 . S
C351 C354 1.370 1_455 S
C352 C348 1.432 1_556 S
C352 N350 1.359 . S
C352 C355 1.414 1_455 S
C353 H335 0.930 1_565 S
C353 N350 1.327 . S
C353 C351 1.392 . S
C354 H349 0.930 . S
C354 C351 1.370 1_655 S
C354 C355 1.385 . S
C355 C352 1.414 1_655 S
C355 C354 1.385 . S
C355 C377 1.444 . S
O356 Tb312 2.546 1_556 S
O356 C376 1.251 1_456 S
O357 Tb312 2.610 . S
O357 Tb323 2.362 . S
O357 C368 1.283 . S
O358 Tb323 2.421 . S
O358 C375 1.262 . S
O359 Tb312 2.320 . S
O359 C375 1.260 . S
O360 Tb312 2.552 . S
O360 C368 1.243 . S
O361 Tb312 2.413 1_655 S
O361 C376 1.256 . S
O362 Tb323 2.546 . S
O362 C387 1.251 . S
O363 Tb312 2.362 . S
O363 Tb323 2.610 . S
O363 C379 1.283 . S
O364 Tb312 2.421 1_556 S
O364 C386 1.262 . S
O365 Tb323 2.320 . S
O365 C386 1.260 1_554 S
O366 Tb323 2.552 . S
O366 C379 1.243 . S
O367 Tb323 2.413 . S
O367 C387 1.256 . S
C368 O357 1.283 . S
C368 O360 1.243 . S
C369 C371 1.381 1_556 S
C369 C373 1.394 . S
C369 C376 1.500 1_556 S
C370 C371 1.400 . S
C370 C372 1.384 1_554 S
C371 C369 1.381 1_554 S
C371 C370 1.400 . S
C371 H388 0.930 . S
C372 C370 1.384 1_556 S
C372 C374 1.392 . S
C372 H389 0.931 . S
C373 C369 1.394 . S
C373 C374 1.401 . S
C373 H390 0.930 . S
C374 C372 1.392 . S
C374 C373 1.401 . S
C374 H391 0.930 . S
C375 O358 1.262 . S
C375 O359 1.260 . S
C376 Tb312 2.833 1_655 S
C376 O356 1.251 1_654 S
C376 O361 1.256 . S
C376 C369 1.500 1_554 S
C377 H342 0.929 . S
C377 C355 1.444 . S
C377 C378 1.317 1_556 S
C378 H340 0.930 . S
C378 C346 1.437 . S
C378 C377 1.317 1_554 S
C379 O363 1.283 . S
C379 O366 1.243 . S
C380 C381 1.382 . S
C380 C384 1.393 . S
C380 C387 1.500 . S
C381 C380 1.382 . S
C381 C382 1.400 . S
C381 H392 0.930 . S
C382 C381 1.400 . S
C382 C383 1.384 . S
C383 C382 1.384 . S
C383 C385 1.392 . S
C383 H393 0.931 . S
C384 C380 1.393 . S
C384 C385 1.401 . S
C384 H394 0.930 . S
C385 C383 1.392 . S
C385 C384 1.401 . S
C385 H395 0.930 . S
C386 O364 1.262 . S
C386 O365 1.260 1_556 S
C387 Tb323 2.833 . S
C387 O362 1.251 . S
C387 O367 1.256 . S
C387 C380 1.500 . S
H388 C371 0.930 . S
H389 C372 0.931 . S
H390 C373 0.930 . S
H391 C374 0.930 . S
H392 C381 0.930 . S
H393 C383 0.931 . S
H394 C384 0.930 . S
H395 C385 0.930 . S
Tb396 N427 2.660 . S
Tb396 N434 2.600 . S
Tb396 O440 2.546 . S
Tb396 O441 2.610 . S
Tb396 O443 2.320 . S
Tb396 O444 2.552 . S
Tb396 O445 2.413 . S
Tb396 O447 2.362 . S
Tb396 O448 2.421 . S
Tb396 C460 2.833 . S
C397 C400 1.432 . S
C397 C401 1.414 . S
C397 N404 1.359 . S
C398 C400 1.417 . S
C398 C402 1.432 . S
C398 C410 1.410 . S
C399 C401 1.444 . S
C399 C402 1.317 . S
C399 H422 0.929 . S
C400 C397 1.432 . S
C400 C398 1.417 . S
C400 N408 1.360 . S
C401 C397 1.414 . S
C401 C399 1.444 . S
C401 C406 1.385 . S
C402 C398 1.432 . S
C402 C399 1.317 . S
C402 H414 0.930 . S
C403 C405 1.392 . S
C403 C406 1.370 . S
C403 H415 0.931 . S
N404 C397 1.359 . S
N404 C405 1.327 . S
N404 Tb407 2.600 . S
C405 C403 1.392 . S
C405 N404 1.327 . S
C405 H412 0.930 . S
C406 C401 1.385 . S
C406 C403 1.370 . S
C406 H425 0.930 . S
Tb407 N404 2.600 . S
Tb407 N408 2.660 . S
Tb407 O441 2.362 . S
Tb407 O442 2.421 . S
Tb407 O446 2.546 . S
Tb407 O447 2.610 . S
Tb407 O449 2.320 . S
Tb407 O450 2.552 . S
Tb407 O451 2.413 . S
Tb407 C471 2.833 . S
N408 C400 1.360 . S
N408 Tb407 2.660 . S
N408 C409 1.305 . S
C409 N408 1.305 . S
C409 C411 1.407 . S
C409 H416 0.930 . S
C410 C398 1.410 . S
C410 C411 1.345 . S
C410 H418 0.930 . S
C411 C409 1.407 . S
C411 C410 1.345 . S
C411 H413 0.930 . S
H412 C405 0.930 . S
H413 C411 0.930 . S
H414 C402 0.930 . S
H415 C403 0.931 . S
H416 C409 0.930 . S
H417 C431 0.930 . S
H418 C410 0.930 . S
H419 C437 0.930 . S
H420 C428 0.930 . S
H421 C435 0.931 . S
H422 C399 0.929 . S
H423 C429 0.930 . S
H424 C462 0.930 . S
H425 C406 0.930 . S
H426 C461 0.929 . S
N427 Tb396 2.660 . S
N427 C428 1.305 . S
N427 C432 1.360 . S
C428 H420 0.930 . S
C428 N427 1.305 . S
C428 C431 1.407 . S
C429 H423 0.930 . S
C429 C430 1.410 . S
C429 C431 1.345 . S
C430 C429 1.410 . S
C430 C432 1.417 . S
C430 C462 1.432 . S
C431 H417 0.930 . S
C431 C428 1.407 . S
C431 C429 1.345 . S
C432 N427 1.360 . S
C432 C430 1.417 . S
C432 C436 1.432 . S
H433 C438 0.930 . S
N434 Tb396 2.600 . S
N434 C436 1.359 . S
N434 C437 1.327 . S
C435 H421 0.931 . S
C435 C437 1.392 . S
C435 C438 1.370 . S
C436 C432 1.432 . S
C436 N434 1.359 . S
C436 C439 1.414 . S
C437 H419 0.930 . S
C437 N434 1.327 . S
C437 C435 1.392 . S
C438 H433 0.930 . S
C438 C435 1.370 . S
C438 C439 1.385 . S
C439 C436 1.414 . S
C439 C438 1.385 . S
C439 C461 1.444 . S
O440 Tb396 2.546 . S
O440 C460 1.251 . S
O441 Tb396 2.610 . S
O441 Tb407 2.362 . S
O441 C452 1.283 . S
O442 Tb407 2.421 . S
O442 C459 1.262 . S
O443 Tb396 2.320 . S
O443 C459 1.260 . S
O444 Tb396 2.552 . S
O444 C452 1.243 . S
O445 Tb396 2.413 . S
O445 C460 1.256 . S
O446 Tb407 2.546 . S
O446 C471 1.251 . S
O447 Tb396 2.362 . S
O447 Tb407 2.610 . S
O447 C463 1.283 . S
O448 Tb396 2.421 . S
O448 C470 1.262 . S
O449 Tb407 2.320 . S
O449 C470 1.260 . S
O450 Tb407 2.552 . S
O450 C463 1.243 . S
O451 Tb407 2.413 . S
O451 C471 1.256 . S
C452 O441 1.283 . S
C452 O444 1.243 . S
C453 C455 1.382 . S
C453 C457 1.393 . S
C453 C460 1.500 . S
C454 C455 1.400 . S
C454 C456 1.384 . S
C455 C453 1.382 . S
C455 C454 1.400 . S
C455 H472 0.930 . S
C456 C454 1.384 . S
C456 C458 1.392 . S
C456 H473 0.931 . S
C457 C453 1.393 . S
C457 C458 1.401 . S
C457 H474 0.930 . S
C458 C456 1.392 . S
C458 C457 1.401 . S
C458 H475 0.930 . S
C459 O442 1.262 . S
C459 O443 1.260 . S
C460 Tb396 2.833 . S
C460 O440 1.251 . S
C460 O445 1.256 . S
C460 C453 1.500 . S
C461 H426 0.929 . S
C461 C439 1.444 . S
C461 C462 1.317 . S
C462 H424 0.930 . S
C462 C430 1.432 . S
C462 C461 1.317 . S
C463 O447 1.283 . S
C463 O450 1.243 . S
C464 C465 1.382 . S
C464 C468 1.393 . S
C464 C471 1.500 . S
C465 C464 1.382 . S
C465 C466 1.400 . S
C465 H476 0.930 . S
C466 C465 1.400 . S
C466 C467 1.384 . S
C467 C466 1.384 . S
C467 C469 1.392 . S
C467 H477 0.931 . S
C468 C464 1.393 . S
C468 C469 1.401 . S
C468 H478 0.930 . S
C469 C467 1.392 . S
C469 C468 1.401 . S
C469 H479 0.930 . S
C470 O448 1.262 . S
C470 O449 1.260 . S
C471 Tb407 2.833 . S
C471 O446 1.251 . S
C471 O451 1.256 . S
C471 C464 1.500 . S
H472 C455 0.930 . S
H473 C456 0.931 . S
H474 C457 0.930 . S
H475 C458 0.930 . S
H476 C465 0.930 . S
H477 C467 0.931 . S
H478 C468 0.930 . S
H479 C469 0.930 . S
Tb480 N511 2.660 . S
Tb480 N518 2.600 . S
Tb480 O524 2.546 . S
Tb480 O525 2.610 1_545 S
Tb480 O527 2.320 . S
Tb480 O528 2.552 1_545 S
Tb480 O529 2.413 . S
Tb480 O531 2.362 . S
Tb480 O532 2.421 . S
Tb480 C544 2.833 . S
C481 C484 1.432 . S
C481 C485 1.414 . S
C481 N488 1.359 . S
C482 C484 1.417 . S
C482 C486 1.432 . S
C482 C494 1.410 . S
C483 C485 1.444 . S
C483 C486 1.317 . S
C483 H506 0.929 . S
C484 C481 1.432 . S
C484 C482 1.417 . S
C484 N492 1.360 . S
C485 C481 1.414 . S
C485 C483 1.444 . S
C485 C490 1.385 . S
C486 C482 1.432 . S
C486 C483 1.317 . S
C486 H498 0.930 . S
C487 C489 1.392 1_565 S
C487 C490 1.370 . S
C487 H499 0.931 . S
N488 C481 1.359 . S
N488 C489 1.327 1_565 S
N488 Tb491 2.600 1_565 S
C489 C487 1.392 1_545 S
C489 N488 1.327 1_545 S
C489 H496 0.930 . S
C490 C485 1.385 . S
C490 C487 1.370 . S
C490 H509 0.930 . S
Tb491 N488 2.600 1_545 S
Tb491 N492 2.660 1_545 S
Tb491 O525 2.362 1_545 S
Tb491 O526 2.421 . S
Tb491 O530 2.546 . S
Tb491 O531 2.610 . S
Tb491 O533 2.320 . S
Tb491 O534 2.552 . S
Tb491 O535 2.413 . S
Tb491 C555 2.833 . S
N492 C484 1.360 . S
N492 Tb491 2.660 1_565 S
N492 C493 1.305 . S
C493 N492 1.305 . S
C493 C495 1.407 . S
C493 H500 0.930 . S
C494 C482 1.410 . S
C494 C495 1.345 . S
C494 H502 0.930 . S
C495 C493 1.407 . S
C495 C494 1.345 . S
C495 H497 0.930 . S
H496 C489 0.930 . S
H497 C495 0.930 . S
H498 C486 0.930 . S
H499 C487 0.931 . S
H500 C493 0.930 . S
H501 C515 0.930 . S
H502 C494 0.930 . S
H503 C521 0.930 . S
H504 C512 0.930 . S
H505 C519 0.931 . S
H506 C483 0.929 . S
H507 C513 0.930 . S
H508 C546 0.930 . S
H509 C490 0.930 . S
H510 C545 0.929 . S
N511 Tb480 2.660 . S
N511 C512 1.305 . S
N511 C516 1.360 . S
C512 H504 0.930 . S
C512 N511 1.305 . S
C512 C515 1.407 . S
C513 H507 0.930 . S
C513 C514 1.410 . S
C513 C515 1.345 . S
C514 C513 1.410 . S
C514 C516 1.417 . S
C514 C546 1.432 . S
C515 H501 0.930 . S
C515 C512 1.407 . S
C515 C513 1.345 . S
C516 N511 1.360 . S
C516 C514 1.417 . S
C516 C520 1.432 . S
H517 C522 0.930 . S
N518 Tb480 2.600 . S
N518 C520 1.359 . S
N518 C521 1.327 . S
C519 H505 0.931 . S
C519 C521 1.392 . S
C519 C522 1.370 . S
C520 C516 1.432 . S
C520 N518 1.359 . S
C520 C523 1.414 . S
C521 H503 0.930 . S
C521 N518 1.327 . S
C521 C519 1.392 . S
C522 H517 0.930 . S
C522 C519 1.370 . S
C522 C523 1.385 . S
C523 C520 1.414 . S
C523 C522 1.385 . S
C523 C545 1.444 . S
O524 Tb480 2.546 . S
O524 C544 1.251 . S
O525 Tb480 2.610 1_565 S
O525 Tb491 2.362 1_565 S
O525 C536 1.283 . S
O526 Tb491 2.421 . S
O526 C543 1.262 . S
O527 Tb480 2.320 . S
O527 C543 1.260 . S
O528 Tb480 2.552 1_565 S
O528 C536 1.243 . S
O529 Tb480 2.413 . S
O529 C544 1.256 . S
O530 Tb491 2.546 . S
O530 C555 1.251 . S
O531 Tb480 2.362 . S
O531 Tb491 2.610 . S
O531 C547 1.283 . S
O532 Tb480 2.421 . S
O532 C554 1.262 . S
O533 Tb491 2.320 . S
O533 C554 1.260 . S
O534 Tb491 2.552 . S
O534 C547 1.243 . S
O535 Tb491 2.413 . S
O535 C555 1.256 . S
C536 O525 1.283 . S
C536 O528 1.243 . S
C537 C539 1.382 . S
C537 C541 1.393 . S
C537 C544 1.500 1_565 S
C538 C539 1.400 . S
C538 C540 1.384 . S
C539 C537 1.382 . S
C539 C538 1.400 . S
C539 H556 0.930 . S
C540 C538 1.384 . S
C540 C542 1.392 . S
C540 H557 0.931 . S
C541 C537 1.393 . S
C541 C542 1.401 . S
C541 H558 0.911 1_565 S
C542 C540 1.392 . S
C542 C541 1.401 . S
C542 H559 0.930 . S
C543 O526 1.262 . S
C543 O527 1.260 . S
C544 Tb480 2.833 . S
C544 O524 1.251 . S
C544 O529 1.256 . S
C544 C537 1.500 1_545 S
C545 H510 0.929 . S
C545 C523 1.444 . S
C545 C546 1.317 . S
C546 H508 0.930 . S
C546 C514 1.432 . S
C546 C545 1.317 . S
C547 O531 1.283 . S
C547 O534 1.243 . S
C548 C549 1.382 . S
C548 C552 1.393 . S
C548 C555 1.500 . S
C549 C548 1.382 . S
C549 C550 1.400 . S
C549 H560 0.930 . S
C550 C549 1.400 . S
C550 C551 1.384 . S
C551 C550 1.384 . S
C551 C553 1.392 . S
C551 H561 0.931 . S
C552 C548 1.393 . S
C552 C553 1.401 . S
C552 H562 0.930 . S
C553 C551 1.392 . S
C553 C552 1.401 . S
C553 H563 0.930 . S
C554 O532 1.262 . S
C554 O533 1.260 . S
C555 Tb491 2.833 . S
C555 O530 1.251 . S
C555 O535 1.256 . S
C555 C548 1.500 . S
H556 C539 0.930 . S
H557 C540 0.931 . S
H558 C541 0.911 1_545 S
H559 C542 0.930 . S
H560 C549 0.930 . S
H561 C551 0.931 . S
H562 C552 0.930 . S
H563 C553 0.930 . S
Tb564 N595 2.660 . S
Tb564 N602 2.600 . S
Tb564 O608 2.546 . S
Tb564 O609 2.610 . S
Tb564 O611 2.320 . S
Tb564 O612 2.552 . S
Tb564 O613 2.413 . S
Tb564 O615 2.362 . S
Tb564 O616 2.421 . S
Tb564 C628 2.833 . S
C565 C568 1.432 . S
C565 C569 1.414 . S
C565 N572 1.359 . S
C566 C568 1.417 . S
C566 C570 1.432 . S
C566 C578 1.410 . S
C567 C569 1.444 . S
C567 C570 1.317 . S
C567 H590 0.929 . S
C568 C565 1.432 . S
C568 C566 1.417 . S
C568 N576 1.360 . S
C569 C565 1.414 . S
C569 C567 1.444 . S
C569 C574 1.385 . S
C570 C566 1.432 . S
C570 C567 1.317 . S
C570 H582 0.930 . S
C571 C573 1.392 . S
C571 C574 1.370 . S
C571 H583 0.931 . S
N572 C565 1.359 . S
N572 C573 1.327 . S
N572 Tb575 2.600 . S
C573 C571 1.392 . S
C573 N572 1.327 . S
C573 H580 0.930 . S
C574 C569 1.385 . S
C574 C571 1.370 . S
C574 H593 0.930 . S
Tb575 N572 2.600 . S
Tb575 N576 2.660 . S
Tb575 O609 2.362 . S
Tb575 O610 2.421 . S
Tb575 O614 2.546 . S
Tb575 O615 2.610 . S
Tb575 O617 2.320 . S
Tb575 O618 2.552 . S
Tb575 O619 2.413 . S
Tb575 C639 2.833 . S
N576 C568 1.360 . S
N576 Tb575 2.660 . S
N576 C577 1.305 . S
C577 N576 1.305 . S
C577 C579 1.407 . S
C577 H584 0.930 . S
C578 C566 1.410 . S
C578 C579 1.345 . S
C578 H586 0.930 . S
C579 C577 1.407 . S
C579 C578 1.345 . S
C579 H581 0.930 . S
H580 C573 0.930 . S
H581 C579 0.930 . S
H582 C570 0.930 . S
H583 C571 0.931 . S
H584 C577 0.930 . S
H585 C599 0.930 . S
H586 C578 0.930 . S
H587 C605 0.930 . S
H588 C596 0.930 . S
H589 C603 0.931 . S
H590 C567 0.929 . S
H591 C597 0.930 . S
H592 C630 0.930 . S
H593 C574 0.930 . S
H594 C629 0.929 . S
N595 Tb564 2.660 . S
N595 C596 1.305 . S
N595 C600 1.360 . S
C596 H588 0.930 . S
C596 N595 1.305 . S
C596 C599 1.407 . S
C597 H591 0.930 . S
C597 C598 1.410 . S
C597 C599 1.345 . S
C598 C597 1.410 . S
C598 C600 1.417 . S
C598 C630 1.432 . S
C599 H585 0.930 . S
C599 C596 1.407 . S
C599 C597 1.345 . S
C600 N595 1.360 . S
C600 C598 1.417 . S
C600 C604 1.432 . S
H601 C606 0.930 . S
N602 Tb564 2.600 . S
N602 C604 1.359 . S
N602 C605 1.327 . S
C603 H589 0.931 . S
C603 C605 1.392 . S
C603 C606 1.370 . S
C604 C600 1.432 . S
C604 N602 1.359 . S
C604 C607 1.414 . S
C605 H587 0.930 . S
C605 N602 1.327 . S
C605 C603 1.392 . S
C606 H601 0.930 . S
C606 C603 1.370 . S
C606 C607 1.385 . S
C607 C604 1.414 . S
C607 C606 1.385 . S
C607 C629 1.444 . S
O608 Tb564 2.546 . S
O608 C628 1.251 . S
O609 Tb564 2.610 . S
O609 Tb575 2.362 . S
O609 C620 1.283 . S
O610 Tb575 2.421 . S
O610 C627 1.262 . S
O611 Tb564 2.320 . S
O611 C627 1.260 . S
O612 Tb564 2.552 . S
O612 C620 1.243 . S
O613 Tb564 2.413 . S
O613 C628 1.256 . S
O614 Tb575 2.546 . S
O614 C639 1.251 . S
O615 Tb564 2.362 . S
O615 Tb575 2.610 . S
O615 C631 1.283 . S
O616 Tb564 2.421 . S
O616 C638 1.262 . S
O617 Tb575 2.320 . S
O617 C638 1.260 . S
O618 Tb575 2.552 . S
O618 C631 1.243 . S
O619 Tb575 2.413 . S
O619 C639 1.256 . S
C620 O609 1.283 . S
C620 O612 1.243 . S
C621 C623 1.382 . S
C621 C625 1.393 . S
C621 C628 1.500 . S
C622 C623 1.400 . S
C622 C624 1.384 . S
C623 C621 1.382 . S
C623 C622 1.400 . S
C623 H640 0.930 . S
C624 C622 1.384 . S
C624 C626 1.392 . S
C624 H641 0.931 . S
C625 C621 1.393 . S
C625 C626 1.401 . S
C625 H642 0.930 . S
C626 C624 1.392 . S
C626 C625 1.401 . S
C626 H643 0.930 . S
C627 O610 1.262 . S
C627 O611 1.260 . S
C628 Tb564 2.833 . S
C628 O608 1.251 . S
C628 O613 1.256 . S
C628 C621 1.500 . S
C629 H594 0.929 . S
C629 C607 1.444 . S
C629 C630 1.317 . S
C630 H592 0.930 . S
C630 C598 1.432 . S
C630 C629 1.317 . S
C631 O615 1.283 . S
C631 O618 1.243 . S
C632 C633 1.382 . S
C632 C636 1.393 . S
C632 C639 1.500 . S
C633 C632 1.382 . S
C633 C634 1.400 . S
C633 H644 0.930 . S
C634 C633 1.400 . S
C634 C635 1.384 . S
C635 C634 1.384 . S
C635 C637 1.392 . S
C635 H645 0.931 . S
C636 C632 1.393 . S
C636 C637 1.401 . S
C636 H646 0.930 . S
C637 C635 1.392 . S
C637 C636 1.401 . S
C637 H647 0.930 . S
C638 O616 1.262 . S
C638 O617 1.260 . S
C639 Tb575 2.833 . S
C639 O614 1.251 . S
C639 O619 1.256 . S
C639 C632 1.500 . S
H640 C623 0.930 . S
H641 C624 0.931 . S
H642 C625 0.930 . S
H643 C626 0.930 . S
H644 C633 0.930 . S
H645 C635 0.931 . S
H646 C636 0.930 . S
H647 C637 0.930 . S
Tb648 N679 2.660 . S
Tb648 N686 2.600 . S
Tb648 O692 2.546 . S
Tb648 O693 2.610 . S
Tb648 O695 2.320 . S
Tb648 O696 2.552 . S
Tb648 O697 2.413 . S
Tb648 O699 2.362 . S
Tb648 O700 2.421 . S
Tb648 C712 2.833 . S
C649 C652 1.432 . S
C649 C653 1.414 . S
C649 N656 1.359 . S
C650 C652 1.417 . S
C650 C654 1.432 . S
C650 C662 1.410 . S
C651 C653 1.444 . S
C651 C654 1.317 . S
C651 H674 0.929 . S
C652 C649 1.432 . S
C652 C650 1.417 . S
C652 N660 1.360 . S
C653 C649 1.414 . S
C653 C651 1.444 . S
C653 C658 1.385 . S
C654 C650 1.432 . S
C654 C651 1.317 . S
C654 H666 0.930 . S
C655 C657 1.392 . S
C655 C658 1.370 . S
C655 H667 0.931 . S
N656 C649 1.359 . S
N656 C657 1.327 . S
N656 Tb659 2.600 . S
C657 C655 1.392 . S
C657 N656 1.327 . S
C657 H664 0.930 . S
C658 C653 1.385 . S
C658 C655 1.370 . S
C658 H677 0.930 . S
Tb659 N656 2.600 . S
Tb659 N660 2.660 . S
Tb659 O693 2.362 1_565 S
Tb659 O694 2.421 1_565 S
Tb659 O698 2.546 . S
Tb659 O699 2.610 1_565 S
Tb659 O701 2.320 . S
Tb659 O702 2.552 . S
Tb659 O703 2.413 . S
Tb659 C723 2.833 . S
N660 C652 1.360 . S
N660 Tb659 2.660 . S
N660 C661 1.305 . S
C661 N660 1.305 . S
C661 C663 1.407 . S
C661 H668 0.930 . S
C662 C650 1.410 . S
C662 C663 1.345 . S
C662 H670 0.930 . S
C663 C661 1.407 . S
C663 C662 1.345 . S
C663 H665 0.930 1_455 S
H664 C657 0.930 . S
H665 C663 0.930 1_655 S
H666 C654 0.930 . S
H667 C655 0.931 . S
H668 C661 0.930 . S
H669 C683 0.930 . S
H670 C662 0.930 . S
H671 C689 0.930 . S
H672 C680 0.930 . S
H673 C687 0.931 1_655 S
H674 C651 0.929 . S
H675 C681 0.930 . S
H676 C714 0.930 . S
H677 C658 0.930 . S
H678 C713 0.929 . S
N679 Tb648 2.660 . S
N679 C680 1.305 . S
N679 C684 1.360 . S
C680 H672 0.930 . S
C680 N679 1.305 . S
C680 C683 1.407 . S
C681 H675 0.930 . S
C681 C682 1.410 . S
C681 C683 1.345 . S
C682 C681 1.410 . S
C682 C684 1.417 . S
C682 C714 1.432 . S
C683 H669 0.930 . S
C683 C680 1.407 . S
C683 C681 1.345 . S
C684 N679 1.360 . S
C684 C682 1.417 . S
C684 C688 1.432 . S
H685 C690 0.930 . S
N686 Tb648 2.600 . S
N686 C688 1.359 . S
N686 C689 1.327 . S
C687 H673 0.931 1_455 S
C687 C689 1.392 . S
C687 C690 1.370 . S
C688 C684 1.432 . S
C688 N686 1.359 . S
C688 C691 1.414 . S
C689 H671 0.930 . S
C689 N686 1.327 . S
C689 C687 1.392 . S
C690 H685 0.930 . S
C690 C687 1.370 . S
C690 C691 1.385 . S
C691 C688 1.414 . S
C691 C690 1.385 . S
C691 C713 1.444 . S
O692 Tb648 2.546 . S
O692 C712 1.251 . S
O693 Tb648 2.610 . S
O693 Tb659 2.362 1_545 S
O693 C704 1.283 . S
O694 Tb659 2.421 1_545 S
O694 C711 1.262 . S
O695 Tb648 2.320 . S
O695 C711 1.260 . S
O696 Tb648 2.552 . S
O696 C704 1.243 . S
O697 Tb648 2.413 . S
O697 C712 1.256 . S
O698 Tb659 2.546 . S
O698 C723 1.251 . S
O699 Tb648 2.362 . S
O699 Tb659 2.610 1_545 S
O699 C715 1.283 . S
O700 Tb648 2.421 . S
O700 C722 1.262 . S
O701 Tb659 2.320 . S
O701 C722 1.260 1_565 S
O702 Tb659 2.552 . S
O702 C715 1.243 1_565 S
O703 Tb659 2.413 . S
O703 C723 1.256 . S
C704 O693 1.283 . S
C704 O696 1.243 . S
C705 C707 1.382 . S
C705 C709 1.393 . S
C705 C712 1.500 . S
C706 C707 1.400 . S
C706 C708 1.384 . S
C707 C705 1.382 . S
C707 C706 1.400 . S
C707 H724 0.930 . S
C708 C706 1.384 . S
C708 C710 1.392 . S
C708 H725 0.931 . S
C709 C705 1.393 . S
C709 C710 1.401 . S
C709 H726 0.930 . S
C710 C708 1.392 . S
C710 C709 1.401 . S
C710 H727 0.930 . S
C711 O694 1.262 . S
C711 O695 1.260 . S
C712 Tb648 2.833 . S
C712 O692 1.251 . S
C712 O697 1.256 . S
C712 C705 1.500 . S
C713 H678 0.929 . S
C713 C691 1.444 . S
C713 C714 1.317 . S
C714 H676 0.930 . S
C714 C682 1.432 . S
C714 C713 1.317 . S
C715 O699 1.283 . S
C715 O702 1.243 1_545 S
C716 C717 1.382 . S
C716 C720 1.393 . S
C716 C723 1.500 . S
C717 C716 1.382 . S
C717 C718 1.400 . S
C717 H728 0.930 . S
C718 C717 1.400 . S
C718 C719 1.384 . S
C719 C718 1.384 . S
C719 C721 1.392 . S
C719 H729 0.931 . S
C720 C716 1.393 . S
C720 C721 1.401 . S
C720 H730 0.930 . S
C721 C719 1.392 . S
C721 C720 1.401 . S
C721 H731 0.930 . S
C722 O700 1.262 . S
C722 O701 1.260 1_545 S
C723 Tb659 2.833 . S
C723 O698 1.251 . S
C723 O703 1.256 . S
C723 C716 1.500 . S
H724 C707 0.930 . S
H725 C708 0.931 . S
H726 C709 0.930 . S
H727 C710 0.930 . S
H728 C717 0.930 . S
H729 C719 0.931 . S
H730 C720 0.930 . S
H731 C721 0.930 . S
Tb732 N763 2.660 . S
Tb732 N770 2.600 . S
Tb732 O776 2.546 . S
Tb732 O777 2.610 . S
Tb732 O779 2.320 . S
Tb732 O780 2.552 . S
Tb732 O781 2.413 . S
Tb732 O783 2.362 . S
Tb732 O784 2.421 . S
Tb732 C796 2.833 . S
C733 C736 1.432 . S
C733 C737 1.414 . S
C733 N740 1.359 . S
C734 C736 1.417 . S
C734 C738 1.432 . S
C734 C746 1.410 . S
C735 C737 1.444 . S
C735 C738 1.317 . S
C735 H758 0.929 . S
C736 C733 1.432 . S
C736 C734 1.417 . S
C736 N744 1.360 . S
C737 C733 1.414 . S
C737 C735 1.444 . S
C737 C742 1.385 . S
C738 C734 1.432 . S
C738 C735 1.317 . S
C738 H750 0.930 . S
C739 C741 1.392 . S
C739 C742 1.370 . S
C739 H751 0.931 . S
N740 C733 1.359 . S
N740 C741 1.327 . S
N740 Tb743 2.600 . S
C741 C739 1.392 . S
C741 N740 1.327 . S
C741 H748 0.930 . S
C742 C737 1.385 . S
C742 C739 1.370 . S
C742 H761 0.930 . S
Tb743 N740 2.600 . S
Tb743 N744 2.660 . S
Tb743 O777 2.362 . S
Tb743 O778 2.421 . S
Tb743 O782 2.546 . S
Tb743 O783 2.610 . S
Tb743 O785 2.320 . S
Tb743 O786 2.552 . S
Tb743 O787 2.413 . S
Tb743 C807 2.833 . S
N744 C736 1.360 . S
N744 Tb743 2.660 . S
N744 C745 1.305 . S
C745 N744 1.305 . S
C745 C747 1.407 . S
C745 H752 0.930 . S
C746 C734 1.410 . S
C746 C747 1.345 . S
C746 H754 0.930 . S
C747 C745 1.407 . S
C747 C746 1.345 . S
C747 H749 0.930 . S
H748 C741 0.930 . S
H749 C747 0.930 . S
H750 C738 0.930 . S
H751 C739 0.931 . S
H752 C745 0.930 . S
H753 C767 0.930 . S
H754 C746 0.930 . S
H755 C773 0.930 . S
H756 C764 0.930 . S
H757 C771 0.931 . S
H758 C735 0.929 . S
H759 C765 0.930 . S
H760 C798 0.930 . S
H761 C742 0.930 . S
H762 C797 0.929 . S
N763 Tb732 2.660 . S
N763 C764 1.305 . S
N763 C768 1.360 . S
C764 H756 0.930 . S
C764 N763 1.305 . S
C764 C767 1.407 . S
C765 H759 0.930 . S
C765 C766 1.410 . S
C765 C767 1.345 . S
C766 C765 1.410 . S
C766 C768 1.417 . S
C766 C798 1.432 . S
C767 H753 0.930 . S
C767 C764 1.407 . S
C767 C765 1.345 . S
C768 N763 1.360 . S
C768 C766 1.417 . S
C768 C772 1.432 . S
H769 C774 0.930 . S
N770 Tb732 2.600 . S
N770 C772 1.359 . S
N770 C773 1.327 . S
C771 H757 0.931 . S
C771 C773 1.392 . S
C771 C774 1.370 . S
C772 C768 1.432 . S
C772 N770 1.359 . S
C772 C775 1.414 . S
C773 H755 0.930 . S
C773 N770 1.327 . S
C773 C771 1.392 . S
C774 H769 0.930 . S
C774 C771 1.370 . S
C774 C775 1.385 . S
C775 C772 1.414 . S
C775 C774 1.385 . S
C775 C797 1.444 . S
O776 Tb732 2.546 . S
O776 C796 1.251 . S
O777 Tb732 2.610 . S
O777 Tb743 2.362 . S
O777 C788 1.283 . S
O778 Tb743 2.421 . S
O778 C795 1.262 . S
O779 Tb732 2.320 . S
O779 C795 1.260 . S
O780 Tb732 2.552 . S
O780 C788 1.243 . S
O781 Tb732 2.413 . S
O781 C796 1.256 . S
O782 Tb743 2.546 . S
O782 C807 1.251 . S
O783 Tb732 2.362 . S
O783 Tb743 2.610 . S
O783 C799 1.283 . S
O784 Tb732 2.421 . S
O784 C806 1.262 . S
O785 Tb743 2.320 . S
O785 C806 1.260 . S
O786 Tb743 2.552 . S
O786 C799 1.243 . S
O787 Tb743 2.413 . S
O787 C807 1.256 . S
C788 O777 1.283 . S
C788 O780 1.243 . S
C789 C791 1.382 . S
C789 C793 1.393 . S
C789 C796 1.500 . S
C790 C791 1.400 . S
C790 C792 1.384 . S
C791 C789 1.382 . S
C791 C790 1.400 . S
C791 H808 0.930 . S
C792 C790 1.384 . S
C792 C794 1.392 . S
C792 H809 0.931 . S
C793 C789 1.393 . S
C793 C794 1.401 . S
C793 H810 0.930 . S
C794 C792 1.392 . S
C794 C793 1.401 . S
C794 H811 0.930 . S
C795 O778 1.262 . S
C795 O779 1.260 . S
C796 Tb732 2.833 . S
C796 O776 1.251 . S
C796 O781 1.256 . S
C796 C789 1.500 . S
C797 H762 0.929 . S
C797 C775 1.444 . S
C797 C798 1.317 . S
C798 H760 0.930 . S
C798 C766 1.432 . S
C798 C797 1.317 . S
C799 O783 1.283 . S
C799 O786 1.243 . S
C800 C801 1.382 . S
C800 C804 1.393 . S
C800 C807 1.500 . S
C801 C800 1.382 . S
C801 C802 1.400 . S
C801 H812 0.930 . S
C802 C801 1.400 . S
C802 C803 1.384 . S
C803 C802 1.384 . S
C803 C805 1.392 . S
C803 H813 0.931 . S
C804 C800 1.393 . S
C804 C805 1.401 . S
C804 H814 0.930 . S
C805 C803 1.392 . S
C805 C804 1.401 . S
C805 H815 0.930 . S
C806 O784 1.262 . S
C806 O785 1.260 . S
C807 Tb743 2.833 . S
C807 O782 1.251 . S
C807 O787 1.256 . S
C807 C800 1.500 . S
H808 C791 0.930 . S
H809 C792 0.931 . S
H810 C793 0.930 . S
H811 C794 0.930 . S
H812 C801 0.930 . S
H813 C803 0.931 . S
H814 C804 0.930 . S
H815 C805 0.930 . S
Tb816 N847 2.660 . S
Tb816 N854 2.600 . S
Tb816 O860 2.546 . S
Tb816 O861 2.610 . S
Tb816 O863 2.320 . S
Tb816 O864 2.552 . S
Tb816 O865 2.413 . S
Tb816 O867 2.362 . S
Tb816 O868 2.421 . S
Tb816 C880 2.833 . S
C817 C820 1.432 . S
C817 C821 1.414 . S
C817 N824 1.359 . S
C818 C820 1.417 . S
C818 C822 1.432 . S
C818 C830 1.410 1_545 S
C819 C821 1.444 . S
C819 C822 1.317 . S
C819 H842 0.929 . S
C820 C817 1.432 . S
C820 C818 1.417 . S
C820 N828 1.360 . S
C821 C817 1.414 . S
C821 C819 1.444 . S
C821 C826 1.385 . S
C822 C818 1.432 . S
C822 C819 1.317 . S
C822 H834 0.930 . S
C823 C825 1.392 . S
C823 C826 1.370 . S
C823 H835 0.931 . S
N824 C817 1.359 . S
N824 C825 1.327 . S
N824 Tb827 2.600 . S
C825 C823 1.392 . S
C825 N824 1.327 . S
C825 H832 0.930 . S
C826 C821 1.385 . S
C826 C823 1.370 . S
C826 H845 0.930 . S
Tb827 N824 2.600 . S
Tb827 N828 2.660 . S
Tb827 O861 2.362 1_556 S
Tb827 O862 2.421 1_556 S
Tb827 O866 2.546 . S
Tb827 O867 2.610 1_556 S
Tb827 O869 2.320 . S
Tb827 O870 2.552 . S
Tb827 O871 2.413 . S
Tb827 C891 2.833 . S
N828 C820 1.360 . S
N828 Tb827 2.660 . S
N828 C829 1.305 . S
C829 N828 1.305 . S
C829 C831 1.407 1_545 S
C829 H836 0.930 1_545 S
C830 C818 1.410 1_565 S
C830 C831 1.345 . S
C830 H838 0.930 . S
C831 C829 1.407 1_565 S
C831 C830 1.345 . S
C831 H833 0.930 . S
H832 C825 0.930 . S
H833 C831 0.930 . S
H834 C822 0.930 . S
H835 C823 0.931 . S
H836 C829 0.930 1_565 S
H837 C851 0.930 . S
H838 C830 0.930 . S
H839 C857 0.930 . S
H840 C848 0.930 . S
H841 C855 0.931 . S
H842 C819 0.929 . S
H843 C849 0.930 . S
H844 C882 0.930 . S
H845 C826 0.930 . S
H846 C881 0.929 . S
N847 Tb816 2.660 . S
N847 C848 1.305 . S
N847 C852 1.360 . S
C848 H840 0.930 . S
C848 N847 1.305 . S
C848 C851 1.407 . S
C849 H843 0.930 . S
C849 C850 1.410 . S
C849 C851 1.345 . S
C850 C849 1.410 . S
C850 C852 1.417 . S
C850 C882 1.432 . S
C851 H837 0.930 . S
C851 C848 1.407 . S
C851 C849 1.345 . S
C852 N847 1.360 . S
C852 C850 1.417 . S
C852 C856 1.432 . S
H853 C858 0.930 . S
N854 Tb816 2.600 . S
N854 C856 1.359 . S
N854 C857 1.327 1_545 S
C855 H841 0.931 . S
C855 C857 1.392 . S
C855 C858 1.370 . S
C856 C852 1.432 . S
C856 N854 1.359 . S
C856 C859 1.414 . S
C857 H839 0.930 . S
C857 N854 1.327 1_565 S
C857 C855 1.392 . S
C858 H853 0.930 . S
C858 C855 1.370 . S
C858 C859 1.385 1_565 S
C859 C856 1.414 . S
C859 C858 1.385 1_545 S
C859 C881 1.444 . S
O860 Tb816 2.546 . S
O860 C880 1.251 . S
O861 Tb816 2.610 . S
O861 Tb827 2.362 1_554 S
O861 C872 1.283 . S
O862 Tb827 2.421 1_554 S
O862 C879 1.262 . S
O863 Tb816 2.320 . S
O863 C879 1.260 . S
O864 Tb816 2.552 . S
O864 C872 1.243 . S
O865 Tb816 2.413 . S
O865 C880 1.256 . S
O866 Tb827 2.546 . S
O866 C891 1.251 . S
O867 Tb816 2.362 . S
O867 Tb827 2.610 1_554 S
O867 C883 1.283 . S
O868 Tb816 2.421 . S
O868 C890 1.262 1_554 S
O869 Tb827 2.320 . S
O869 C890 1.260 . S
O870 Tb827 2.552 . S
O870 C883 1.243 1_556 S
O871 Tb827 2.413 . S
O871 C891 1.256 . S
C872 O861 1.283 . S
C872 O864 1.243 . S
C873 C875 1.382 . S
C873 C877 1.393 1_545 S
C873 C880 1.500 . S
C874 C875 1.400 . S
C874 C876 1.415 . S
C875 C873 1.382 . S
C875 C874 1.400 . S
C875 H892 0.930 . S
C876 C874 1.415 . S
C876 C878 1.371 1_545 S
C876 H893 0.922 1_545 S
C877 C873 1.393 1_565 S
C877 C878 1.401 . S
C877 H894 0.930 . S
C878 C876 1.371 1_565 S
C878 C877 1.401 . S
C878 H895 0.930 . S
C879 O862 1.262 . S
C879 O863 1.260 . S
C880 Tb816 2.833 . S
C880 O860 1.251 . S
C880 O865 1.256 . S
C880 C873 1.500 . S
C881 H846 0.929 . S
C881 C859 1.444 . S
C881 C882 1.317 . S
C882 H844 0.930 . S
C882 C850 1.432 . S
C882 C881 1.317 . S
C883 O867 1.283 . S
C883 O870 1.243 1_554 S
C884 C885 1.382 . S
C884 C888 1.393 . S
C884 C891 1.500 . S
C885 C884 1.382 . S
C885 C886 1.400 . S
C885 H896 0.930 . S
C886 C885 1.400 . S
C886 C887 1.384 . S
C887 C886 1.384 . S
C887 C889 1.392 . S
C887 H897 0.931 . S
C888 C884 1.393 . S
C888 C889 1.401 . S
C888 H898 0.930 . S
C889 C887 1.392 . S
C889 C888 1.401 . S
C889 H899 0.930 . S
C890 O868 1.262 1_556 S
C890 O869 1.260 . S
C891 Tb827 2.833 . S
C891 O866 1.251 . S
C891 O871 1.256 . S
C891 C884 1.500 . S
H892 C875 0.930 . S
H893 C876 0.922 1_565 S
H894 C877 0.930 . S
H895 C878 0.930 . S
H896 C885 0.930 . S
H897 C887 0.931 . S
H898 C888 0.930 . S
H899 C889 0.930 . S
Tb900 N931 2.660 . S
Tb900 N938 2.600 . S
Tb900 O944 2.546 . S
Tb900 O945 2.610 . S
Tb900 O947 2.320 . S
Tb900 O948 2.552 . S
Tb900 O949 2.413 . S
Tb900 O951 2.362 . S
Tb900 O952 2.421 . S
Tb900 C964 2.833 . S
C901 C904 1.432 . S
C901 C905 1.414 . S
C901 N908 1.359 . S
C902 C904 1.417 . S
C902 C906 1.432 . S
C902 C914 1.410 . S
C903 C905 1.444 . S
C903 C906 1.317 . S
C903 H926 0.929 . S
C904 C901 1.432 . S
C904 C902 1.417 . S
C904 N912 1.360 . S
C905 C901 1.414 . S
C905 C903 1.444 . S
C905 C910 1.385 . S
C906 C902 1.432 . S
C906 C903 1.317 . S
C906 H918 0.930 . S
C907 C909 1.392 . S
C907 C910 1.370 . S
C907 H919 0.931 . S
N908 C901 1.359 . S
N908 C909 1.327 . S
N908 Tb911 2.600 . S
C909 C907 1.392 . S
C909 N908 1.327 . S
C909 H916 0.930 . S
C910 C905 1.385 . S
C910 C907 1.370 . S
C910 H929 0.930 . S
Tb911 N908 2.600 . S
Tb911 N912 2.660 . S
Tb911 O945 2.362 . S
Tb911 O946 2.421 . S
Tb911 O950 2.546 . S
Tb911 O951 2.610 . S
Tb911 O953 2.320 . S
Tb911 O954 2.552 . S
Tb911 O955 2.413 . S
Tb911 C975 2.833 . S
N912 C904 1.360 . S
N912 Tb911 2.660 . S
N912 C913 1.305 . S
C913 N912 1.305 . S
C913 C915 1.407 . S
C913 H920 0.930 . S
C914 C902 1.410 . S
C914 C915 1.345 . S
C914 H922 0.930 . S
C915 C913 1.407 . S
C915 C914 1.345 . S
C915 H917 0.930 . S
H916 C909 0.930 . S
H917 C915 0.930 . S
H918 C906 0.930 . S
H919 C907 0.931 . S
H920 C913 0.930 . S
H921 C935 0.930 . S
H922 C914 0.930 . S
H923 C941 0.930 . S
H924 C932 0.930 . S
H925 C939 0.931 . S
H926 C903 0.929 . S
H927 C933 0.930 . S
H928 C966 0.930 . S
H929 C910 0.930 . S
H930 C965 0.929 . S
N931 Tb900 2.660 . S
N931 C932 1.305 . S
N931 C936 1.360 . S
C932 H924 0.930 . S
C932 N931 1.305 . S
C932 C935 1.407 . S
C933 H927 0.930 . S
C933 C934 1.410 . S
C933 C935 1.345 . S
C934 C933 1.410 . S
C934 C936 1.417 . S
C934 C966 1.432 . S
C935 H921 0.930 . S
C935 C932 1.407 . S
C935 C933 1.345 . S
C936 N931 1.360 . S
C936 C934 1.417 . S
C936 C940 1.432 . S
H937 C942 0.930 . S
N938 Tb900 2.600 . S
N938 C940 1.359 . S
N938 C941 1.327 . S
C939 H925 0.931 . S
C939 C941 1.392 . S
C939 C942 1.370 . S
C940 C936 1.432 . S
C940 N938 1.359 . S
C940 C943 1.414 . S
C941 H923 0.930 . S
C941 N938 1.327 . S
C941 C939 1.392 . S
C942 H937 0.930 . S
C942 C939 1.370 . S
C942 C943 1.385 . S
C943 C940 1.414 . S
C943 C942 1.385 . S
C943 C965 1.444 . S
O944 Tb900 2.546 . S
O944 C964 1.251 . S
O945 Tb900 2.610 . S
O945 Tb911 2.362 . S
O945 C956 1.283 . S
O946 Tb911 2.421 . S
O946 C963 1.262 . S
O947 Tb900 2.320 . S
O947 C963 1.260 . S
O948 Tb900 2.552 . S
O948 C956 1.243 . S
O949 Tb900 2.413 . S
O949 C964 1.256 . S
O950 Tb911 2.546 . S
O950 C975 1.251 . S
O951 Tb900 2.362 . S
O951 Tb911 2.610 . S
O951 C967 1.283 . S
O952 Tb900 2.421 . S
O952 C974 1.262 . S
O953 Tb911 2.320 . S
O953 C974 1.260 . S
O954 Tb911 2.552 . S
O954 C967 1.243 . S
O955 Tb911 2.413 . S
O955 C975 1.256 . S
C956 O945 1.283 . S
C956 O948 1.243 . S
C957 C959 1.382 . S
C957 C961 1.393 . S
C957 C964 1.500 . S
C958 C959 1.400 . S
C958 C960 1.384 . S
C959 C957 1.382 . S
C959 C958 1.400 . S
C959 H976 0.930 . S
C960 C958 1.384 . S
C960 C962 1.392 . S
C960 H977 0.931 . S
C961 C957 1.393 . S
C961 C962 1.401 . S
C961 H978 0.930 . S
C962 C960 1.392 . S
C962 C961 1.401 . S
C962 H979 0.930 . S
C963 O946 1.262 . S
C963 O947 1.260 . S
C964 Tb900 2.833 . S
C964 O944 1.251 . S
C964 O949 1.256 . S
C964 C957 1.500 . S
C965 H930 0.929 . S
C965 C943 1.444 . S
C965 C966 1.317 . S
C966 H928 0.930 . S
C966 C934 1.432 . S
C966 C965 1.317 . S
C967 O951 1.283 . S
C967 O954 1.243 . S
C968 C969 1.382 . S
C968 C972 1.393 . S
C968 C975 1.500 . S
C969 C968 1.382 . S
C969 C970 1.400 . S
C969 H980 0.930 . S
C970 C969 1.400 . S
C970 C971 1.384 . S
C971 C970 1.384 . S
C971 C973 1.392 . S
C971 H981 0.931 . S
C972 C968 1.393 . S
C972 C973 1.401 . S
C972 H982 0.930 . S
C973 C971 1.392 . S
C973 C972 1.401 . S
C973 H983 0.930 . S
C974 O952 1.262 . S
C974 O953 1.260 . S
C975 Tb911 2.833 . S
C975 O950 1.251 . S
C975 O955 1.256 . S
C975 C968 1.500 . S
H976 C959 0.930 . S
H977 C960 0.931 . S
H978 C961 0.930 . S
H979 C962 0.930 . S
H980 C969 0.930 . S
H981 C971 0.931 . S
H982 C972 0.930 . S
H983 C973 0.930 . S
Tb984 N1015 2.660 . S
Tb984 N1022 2.600 . S
Tb984 O1028 2.546 . S
Tb984 O1029 2.610 1_554 S
Tb984 O1031 2.320 . S
Tb984 O1032 2.552 1_554 S
Tb984 O1033 2.413 . S
Tb984 O1035 2.362 . S
Tb984 O1036 2.421 . S
Tb984 C1048 2.833 . S
C985 C988 1.432 . S
C985 C989 1.414 . S
C985 N992 1.359 . S
C986 C988 1.417 . S
C986 C990 1.432 . S
C986 C998 1.410 . S
C987 C989 1.444 . S
C987 C990 1.317 . S
C987 H1010 0.929 . S
C988 C985 1.432 . S
C988 C986 1.417 . S
C988 N996 1.360 . S
C989 C985 1.414 . S
C989 C987 1.444 . S
C989 C994 1.385 . S
C990 C986 1.432 . S
C990 C987 1.317 . S
C990 H1002 0.930 . S
C991 C993 1.392 . S
C991 C994 1.370 . S
C991 H1003 0.931 . S
N992 C985 1.359 . S
N992 C993 1.327 . S
N992 Tb995 2.600 1_556 S
C993 C991 1.392 . S
C993 N992 1.327 . S
C993 H1000 0.930 . S
C994 C989 1.385 . S
C994 C991 1.370 . S
C994 H1013 0.930 . S
Tb995 N992 2.600 1_554 S
Tb995 N996 2.660 1_554 S
Tb995 O1029 2.362 1_554 S
Tb995 O1030 2.421 . S
Tb995 O1034 2.546 . S
Tb995 O1035 2.610 . S
Tb995 O1037 2.320 . S
Tb995 O1038 2.552 . S
Tb995 O1039 2.413 . S
Tb995 C1059 2.833 . S
N996 C988 1.360 . S
N996 Tb995 2.660 1_556 S
N996 C997 1.305 . S
C997 N996 1.305 . S
C997 C999 1.407 . S
C997 H1004 0.930 . S
C998 C986 1.410 . S
C998 C999 1.345 . S
C998 H1006 0.930 . S
C999 C997 1.407 . S
C999 C998 1.345 . S
C999 H1001 0.930 . S
H1000 C993 0.930 . S
H1001 C999 0.930 . S
H1002 C990 0.930 . S
H1003 C991 0.931 . S
H1004 C997 0.930 . S
H1005 C1019 0.930 . S
H1006 C998 0.930 . S
H1007 C1025 0.930 . S
H1008 C1016 0.930 . S
H1009 C1023 0.931 . S
H1010 C987 0.929 . S
H1011 C1017 0.930 . S
H1012 C1050 0.930 . S
H1013 C994 0.930 . S
H1014 C1049 0.929 . S
N1015 Tb984 2.660 . S
N1015 C1016 1.305 . S
N1015 C1020 1.360 . S
C1016 H1008 0.930 . S
C1016 N1015 1.305 . S
C1016 C1019 1.407 . S
C1017 H1011 0.930 . S
C1017 C1018 1.410 . S
C1017 C1019 1.345 . S
C1018 C1017 1.410 . S
C1018 C1020 1.417 . S
C1018 C1050 1.432 . S
C1019 H1005 0.930 . S
C1019 C1016 1.407 . S
C1019 C1017 1.345 . S
C1020 N1015 1.360 . S
C1020 C1018 1.417 . S
C1020 C1024 1.432 . S
H1021 C1026 0.930 . S
N1022 Tb984 2.600 . S
N1022 C1024 1.359 . S
N1022 C1025 1.327 . S
C1023 H1009 0.931 . S
C1023 C1025 1.392 . S
C1023 C1026 1.370 . S
C1024 C1020 1.432 . S
C1024 N1022 1.359 . S
C1024 C1027 1.414 . S
C1025 H1007 0.930 . S
C1025 N1022 1.327 . S
C1025 C1023 1.392 . S
C1026 H1021 0.930 . S
C1026 C1023 1.370 . S
C1026 C1027 1.385 . S
C1027 C1024 1.414 . S
C1027 C1026 1.385 . S
C1027 C1049 1.444 . S
O1028 Tb984 2.546 . S
O1028 C1048 1.251 . S
O1029 Tb984 2.610 1_556 S
O1029 Tb995 2.362 1_556 S
O1029 C1040 1.283 . S
O1030 Tb995 2.421 . S
O1030 C1047 1.262 . S
O1031 Tb984 2.320 . S
O1031 C1047 1.260 . S
O1032 Tb984 2.552 1_556 S
O1032 C1040 1.243 . S
O1033 Tb984 2.413 . S
O1033 C1048 1.256 . S
O1034 Tb995 2.546 . S
O1034 C1059 1.251 . S
O1035 Tb984 2.362 . S
O1035 Tb995 2.610 . S
O1035 C1051 1.283 . S
O1036 Tb984 2.421 . S
O1036 C1058 1.262 . S
O1037 Tb995 2.320 . S
O1037 C1058 1.260 . S
O1038 Tb995 2.552 . S
O1038 C1051 1.243 . S
O1039 Tb995 2.413 . S
O1039 C1059 1.256 . S
C1040 O1029 1.283 . S
C1040 O1032 1.243 . S
C1041 C1043 1.382 1_554 S
C1041 C1045 1.393 . S
C1041 C1048 1.500 . S
C1042 C1043 1.400 . S
C1042 C1044 1.384 . S
C1043 C1041 1.382 1_556 S
C1043 C1042 1.400 . S
C1043 H1060 0.930 . S
C1044 C1042 1.384 . S
C1044 C1046 1.392 1_556 S
C1044 H1061 0.931 . S
C1045 C1041 1.393 . S
C1045 C1046 1.401 . S
C1045 H1062 0.930 . S
C1046 C1044 1.392 1_554 S
C1046 C1045 1.401 . S
C1046 H1063 0.930 . S
C1047 O1030 1.262 . S
C1047 O1031 1.260 . S
C1048 Tb984 2.833 . S
C1048 O1028 1.251 . S
C1048 O1033 1.256 . S
C1048 C1041 1.500 . S
C1049 H1014 0.929 . S
C1049 C1027 1.444 . S
C1049 C1050 1.317 . S
C1050 H1012 0.930 . S
C1050 C1018 1.432 . S
C1050 C1049 1.317 . S
C1051 O1035 1.283 . S
C1051 O1038 1.243 . S
C1052 C1053 1.382 . S
C1052 C1056 1.393 . S
C1052 C1059 1.500 . S
C1053 C1052 1.382 . S
C1053 C1054 1.400 . S
C1053 H1064 0.930 . S
C1054 C1053 1.400 . S
C1054 C1055 1.384 . S
C1055 C1054 1.384 . S
C1055 C1057 1.392 . S
C1055 H1065 0.931 . S
C1056 C1052 1.393 . S
C1056 C1057 1.401 . S
C1056 H1066 0.898 1_554 S
C1057 C1055 1.392 . S
C1057 C1056 1.401 . S
C1057 H1067 0.930 . S
C1058 O1036 1.262 . S
C1058 O1037 1.260 . S
C1059 Tb995 2.833 . S
C1059 O1034 1.251 . S
C1059 O1039 1.256 . S
C1059 C1052 1.500 . S
H1060 C1043 0.930 . S
H1061 C1044 0.931 . S
H1062 C1045 0.930 . S
H1063 C1046 0.930 . S
H1064 C1053 0.930 . S
H1065 C1055 0.931 . S
H1066 C1056 0.898 1_556 S
H1067 C1057 0.930 . S
Tb1068 N1099 2.660 . S
Tb1068 N1106 2.600 . S
Tb1068 O1112 2.546 . S
Tb1068 O1113 2.610 . S
Tb1068 O1115 2.320 . S
Tb1068 O1116 2.552 . S
Tb1068 O1117 2.413 . S
Tb1068 O1119 2.362 . S
Tb1068 O1120 2.421 . S
Tb1068 C1132 2.833 . S
C1069 C1072 1.432 . S
C1069 C1073 1.414 . S
C1069 N1076 1.359 . S
C1070 C1072 1.417 . S
C1070 C1074 1.432 . S
C1070 C1082 1.410 . S
C1071 C1073 1.444 . S
C1071 C1074 1.317 . S
C1071 H1094 0.929 . S
C1072 C1069 1.432 . S
C1072 C1070 1.417 . S
C1072 N1080 1.360 . S
C1073 C1069 1.414 . S
C1073 C1071 1.444 . S
C1073 C1078 1.385 . S
C1074 C1070 1.432 . S
C1074 C1071 1.317 . S
C1074 H1086 0.930 . S
C1075 C1077 1.392 . S
C1075 C1078 1.370 . S
C1075 H1087 0.931 . S
N1076 C1069 1.359 . S
N1076 C1077 1.327 . S
N1076 Tb1079 2.600 . S
C1077 C1075 1.392 . S
C1077 N1076 1.327 . S
C1077 H1084 0.930 . S
C1078 C1073 1.385 . S
C1078 C1075 1.370 . S
C1078 H1097 0.930 . S
Tb1079 N1076 2.600 . S
Tb1079 N1080 2.660 . S
Tb1079 O1113 2.362 . S
Tb1079 O1114 2.421 . S
Tb1079 O1118 2.546 . S
Tb1079 O1119 2.610 . S
Tb1079 O1121 2.320 . S
Tb1079 O1122 2.552 . S
Tb1079 O1123 2.413 . S
Tb1079 C1143 2.833 . S
N1080 C1072 1.360 . S
N1080 Tb1079 2.660 . S
N1080 C1081 1.305 . S
C1081 N1080 1.305 . S
C1081 C1083 1.407 . S
C1081 H1088 0.930 . S
C1082 C1070 1.410 . S
C1082 C1083 1.345 . S
C1082 H1090 0.930 . S
C1083 C1081 1.407 . S
C1083 C1082 1.345 . S
C1083 H1085 0.930 . S
H1084 C1077 0.930 . S
H1085 C1083 0.930 . S
H1086 C1074 0.930 . S
H1087 C1075 0.931 . S
H1088 C1081 0.930 . S
H1089 C1103 0.930 . S
H1090 C1082 0.930 . S
H1091 C1109 0.930 . S
H1092 C1100 0.930 . S
H1093 C1107 0.931 . S
H1094 C1071 0.929 . S
H1095 C1101 0.930 . S
H1096 C1134 0.930 . S
H1097 C1078 0.930 . S
H1098 C1133 0.929 . S
N1099 Tb1068 2.660 . S
N1099 C1100 1.305 . S
N1099 C1104 1.360 . S
C1100 H1092 0.930 . S
C1100 N1099 1.305 . S
C1100 C1103 1.407 . S
C1101 H1095 0.930 . S
C1101 C1102 1.410 . S
C1101 C1103 1.345 . S
C1102 C1101 1.410 . S
C1102 C1104 1.417 . S
C1102 C1134 1.432 . S
C1103 H1089 0.930 . S
C1103 C1100 1.407 . S
C1103 C1101 1.345 . S
C1104 N1099 1.360 . S
C1104 C1102 1.417 . S
C1104 C1108 1.432 . S
H1105 C1110 0.930 . S
N1106 Tb1068 2.600 . S
N1106 C1108 1.359 . S
N1106 C1109 1.327 . S
C1107 H1093 0.931 . S
C1107 C1109 1.392 . S
C1107 C1110 1.370 . S
C1108 C1104 1.432 . S
C1108 N1106 1.359 . S
C1108 C1111 1.414 . S
C1109 H1091 0.930 . S
C1109 N1106 1.327 . S
C1109 C1107 1.392 . S
C1110 H1105 0.930 . S
C1110 C1107 1.370 . S
C1110 C1111 1.385 . S
C1111 C1108 1.414 . S
C1111 C1110 1.385 . S
C1111 C1133 1.444 . S
O1112 Tb1068 2.546 . S
O1112 C1132 1.251 . S
O1113 Tb1068 2.610 . S
O1113 Tb1079 2.362 . S
O1113 C1124 1.283 . S
O1114 Tb1079 2.421 . S
O1114 C1131 1.262 . S
O1115 Tb1068 2.320 . S
O1115 C1131 1.260 . S
O1116 Tb1068 2.552 . S
O1116 C1124 1.243 . S
O1117 Tb1068 2.413 . S
O1117 C1132 1.256 . S
O1118 Tb1079 2.546 . S
O1118 C1143 1.251 . S
O1119 Tb1068 2.362 . S
O1119 Tb1079 2.610 . S
O1119 C1135 1.283 . S
O1120 Tb1068 2.421 . S
O1120 C1142 1.262 . S
O1121 Tb1079 2.320 . S
O1121 C1142 1.260 . S
O1122 Tb1079 2.552 . S
O1122 C1135 1.243 . S
O1123 Tb1079 2.413 . S
O1123 C1143 1.256 . S
C1124 O1113 1.283 . S
C1124 O1116 1.243 . S
C1125 C1127 1.382 . S
C1125 C1129 1.393 . S
C1125 C1132 1.500 . S
C1126 C1127 1.400 . S
C1126 C1128 1.384 . S
C1127 C1125 1.382 . S
C1127 C1126 1.400 . S
C1127 H1144 0.930 . S
C1128 C1126 1.384 . S
C1128 C1130 1.392 . S
C1128 H1145 0.931 . S
C1129 C1125 1.393 . S
C1129 C1130 1.401 . S
C1129 H1146 0.930 . S
C1130 C1128 1.392 . S
C1130 C1129 1.401 . S
C1130 H1147 0.930 . S
C1131 O1114 1.262 . S
C1131 O1115 1.260 . S
C1132 Tb1068 2.833 . S
C1132 O1112 1.251 . S
C1132 O1117 1.256 . S
C1132 C1125 1.500 . S
C1133 H1098 0.929 . S
C1133 C1111 1.444 . S
C1133 C1134 1.317 . S
C1134 H1096 0.930 . S
C1134 C1102 1.432 . S
C1134 C1133 1.317 . S
C1135 O1119 1.283 . S
C1135 O1122 1.243 . S
C1136 C1137 1.382 . S
C1136 C1140 1.393 . S
C1136 C1143 1.500 . S
C1137 C1136 1.382 . S
C1137 C1138 1.400 . S
C1137 H1148 0.930 . S
C1138 C1137 1.400 . S
C1138 C1139 1.384 . S
C1139 C1138 1.384 . S
C1139 C1141 1.392 . S
C1139 H1149 0.931 . S
C1140 C1136 1.393 . S
C1140 C1141 1.401 . S
C1140 H1150 0.930 . S
C1141 C1139 1.392 . S
C1141 C1140 1.401 . S
C1141 H1151 0.930 . S
C1142 O1120 1.262 . S
C1142 O1121 1.260 . S
C1143 Tb1079 2.833 . S
C1143 O1118 1.251 . S
C1143 O1123 1.256 . S
C1143 C1136 1.500 . S
H1144 C1127 0.930 . S
H1145 C1128 0.931 . S
H1146 C1129 0.930 . S
H1147 C1130 0.930 . S
H1148 C1137 0.930 . S
H1149 C1139 0.931 . S
H1150 C1140 0.930 . S
H1151 C1141 0.930 . S
Tb1152 N1183 2.660 . S
Tb1152 N1190 2.600 . S
Tb1152 O1196 2.546 . S
Tb1152 O1197 2.610 . S
Tb1152 O1199 2.320 . S
Tb1152 O1200 2.552 . S
Tb1152 O1201 2.413 . S
Tb1152 O1203 2.362 . S
Tb1152 O1204 2.421 . S
Tb1152 C1216 2.833 . S
C1153 C1156 1.432 . S
C1153 C1157 1.414 . S
C1153 N1160 1.359 1_655 S
C1154 C1156 1.417 . S
C1154 C1158 1.432 . S
C1154 C1166 1.410 . S
C1155 C1157 1.444 . S
C1155 C1158 1.317 . S
C1155 H1178 0.929 . S
C1156 C1153 1.432 . S
C1156 C1154 1.417 . S
C1156 N1164 1.360 1_655 S
C1157 C1153 1.414 . S
C1157 C1155 1.444 . S
C1157 C1162 1.385 . S
C1158 C1154 1.432 . S
C1158 C1155 1.317 . S
C1158 H1170 0.930 . S
C1159 C1161 1.392 1_655 S
C1159 C1162 1.370 . S
C1159 H1171 0.931 . S
N1160 C1153 1.359 1_455 S
N1160 C1161 1.327 . S
N1160 Tb1163 2.600 . S
C1161 C1159 1.392 1_455 S
C1161 N1160 1.327 . S
C1161 H1168 0.930 . S
C1162 C1157 1.385 . S
C1162 C1159 1.370 . S
C1162 H1181 0.930 . S
Tb1163 N1160 2.600 . S
Tb1163 N1164 2.660 . S
Tb1163 O1197 2.362 . S
Tb1163 O1198 2.421 . S
Tb1163 O1202 2.546 . S
Tb1163 O1203 2.610 . S
Tb1163 O1205 2.320 . S
Tb1163 O1206 2.552 . S
Tb1163 O1207 2.413 . S
Tb1163 C1227 2.833 . S
N1164 C1156 1.360 1_455 S
N1164 Tb1163 2.660 . S
N1164 C1165 1.305 . S
C1165 N1164 1.305 . S
C1165 C1167 1.407 1_455 S
C1165 H1172 0.930 . S
C1166 C1154 1.410 . S
C1166 C1167 1.345 . S
C1166 H1174 0.930 . S
C1167 C1165 1.407 1_655 S
C1167 C1166 1.345 . S
C1167 H1169 0.930 . S
H1168 C1161 0.930 . S
H1169 C1167 0.930 . S
H1170 C1158 0.930 . S
H1171 C1159 0.931 . S
H1172 C1165 0.930 . S
H1173 C1187 0.930 . S
H1174 C1166 0.930 . S
H1175 C1193 0.930 . S
H1176 C1184 0.930 . S
H1177 C1191 0.931 . S
H1178 C1155 0.929 . S
H1179 C1185 0.930 . S
H1180 C1218 0.930 . S
H1181 C1162 0.930 . S
H1182 C1217 0.929 . S
N1183 Tb1152 2.660 . S
N1183 C1184 1.305 . S
N1183 C1188 1.360 . S
C1184 H1176 0.930 . S
C1184 N1183 1.305 . S
C1184 C1187 1.407 . S
C1185 H1179 0.930 . S
C1185 C1186 1.410 . S
C1185 C1187 1.345 . S
C1186 C1185 1.410 . S
C1186 C1188 1.417 . S
C1186 C1218 1.432 . S
C1187 H1173 0.930 . S
C1187 C1184 1.407 . S
C1187 C1185 1.345 . S
C1188 N1183 1.360 . S
C1188 C1186 1.417 . S
C1188 C1192 1.432 . S
H1189 C1194 0.930 . S
N1190 Tb1152 2.600 . S
N1190 C1192 1.359 . S
N1190 C1193 1.327 . S
C1191 H1177 0.931 . S
C1191 C1193 1.392 . S
C1191 C1194 1.370 . S
C1192 C1188 1.432 . S
C1192 N1190 1.359 . S
C1192 C1195 1.414 . S
C1193 H1175 0.930 . S
C1193 N1190 1.327 . S
C1193 C1191 1.392 . S
C1194 H1189 0.930 . S
C1194 C1191 1.370 . S
C1194 C1195 1.385 . S
C1195 C1192 1.414 . S
C1195 C1194 1.385 . S
C1195 C1217 1.444 . S
O1196 Tb1152 2.546 . S
O1196 C1216 1.251 . S
O1197 Tb1152 2.610 . S
O1197 Tb1163 2.362 . S
O1197 C1208 1.283 . S
O1198 Tb1163 2.421 . S
O1198 C1215 1.262 . S
O1199 Tb1152 2.320 . S
O1199 C1215 1.260 . S
O1200 Tb1152 2.552 . S
O1200 C1208 1.243 . S
O1201 Tb1152 2.413 . S
O1201 C1216 1.256 . S
O1202 Tb1163 2.546 . S
O1202 C1227 1.251 . S
O1203 Tb1152 2.362 . S
O1203 Tb1163 2.610 . S
O1203 C1219 1.283 . S
O1204 Tb1152 2.421 . S
O1204 C1226 1.262 . S
O1205 Tb1163 2.320 . S
O1205 C1226 1.260 . S
O1206 Tb1163 2.552 . S
O1206 C1219 1.243 . S
O1207 Tb1163 2.413 . S
O1207 C1227 1.256 . S
C1208 O1197 1.283 . S
C1208 O1200 1.243 . S
C1209 C1211 1.382 . S
C1209 C1213 1.393 . S
C1209 C1216 1.500 . S
C1210 C1211 1.400 1_655 S
C1210 C1212 1.384 . S
C1211 C1209 1.382 . S
C1211 C1210 1.400 1_455 S
C1211 H1228 0.930 . S
C1212 C1210 1.384 . S
C1212 C1214 1.392 1_655 S
C1212 H1229 0.931 . S
C1213 C1209 1.393 . S
C1213 C1214 1.401 . S
C1213 H1230 0.930 . S
C1214 C1212 1.392 1_455 S
C1214 C1213 1.401 . S
C1214 H1231 0.930 . S
C1215 O1198 1.262 . S
C1215 O1199 1.260 . S
C1216 Tb1152 2.833 . S
C1216 O1196 1.251 . S
C1216 O1201 1.256 . S
C1216 C1209 1.500 . S
C1217 H1182 0.929 . S
C1217 C1195 1.444 . S
C1217 C1218 1.317 . S
C1218 H1180 0.930 . S
C1218 C1186 1.432 . S
C1218 C1217 1.317 . S
C1219 O1203 1.283 . S
C1219 O1206 1.243 . S
C1220 C1221 1.382 . S
C1220 C1224 1.393 . S
C1220 C1227 1.500 . S
C1221 C1220 1.382 . S
C1221 C1222 1.400 . S
C1221 H1232 0.930 . S
C1222 C1221 1.400 . S
C1222 C1223 1.384 . S
C1223 C1222 1.384 . S
C1223 C1225 1.392 . S
C1223 H1233 0.931 . S
C1224 C1220 1.393 . S
C1224 C1225 1.401 . S
C1224 H1234 0.930 . S
C1225 C1223 1.392 . S
C1225 C1224 1.401 . S
C1225 H1235 0.930 . S
C1226 O1204 1.262 . S
C1226 O1205 1.260 . S
C1227 Tb1163 2.833 . S
C1227 O1202 1.251 . S
C1227 O1207 1.256 . S
C1227 C1220 1.500 . S
H1228 C1211 0.930 . S
H1229 C1212 0.931 . S
H1230 C1213 0.930 . S
H1231 C1214 0.930 . S
H1232 C1221 0.930 . S
H1233 C1223 0.931 . S
H1234 C1224 0.930 . S
H1235 C1225 0.930 . S
Tb1236 N1267 2.660 . S
Tb1236 N1274 2.600 . S
Tb1236 O1280 2.546 . S
Tb1236 O1281 2.610 . S
Tb1236 O1283 2.320 . S
Tb1236 O1284 2.552 . S
Tb1236 O1285 2.413 . S
Tb1236 O1287 2.362 . S
Tb1236 O1288 2.421 . S
Tb1236 C1300 2.833 . S
C1237 C1240 1.432 . S
C1237 C1241 1.414 . S
C1237 N1244 1.359 . S
C1238 C1240 1.417 . S
C1238 C1242 1.432 . S
C1238 C1250 1.410 . S
C1239 C1241 1.444 . S
C1239 C1242 1.317 . S
C1239 H1262 0.929 . S
C1240 C1237 1.432 . S
C1240 C1238 1.417 . S
C1240 N1248 1.360 . S
C1241 C1237 1.414 . S
C1241 C1239 1.444 . S
C1241 C1246 1.385 . S
C1242 C1238 1.432 . S
C1242 C1239 1.317 . S
C1242 H1254 0.930 . S
C1243 C1245 1.392 . S
C1243 C1246 1.370 . S
C1243 H1255 0.931 . S
N1244 C1237 1.359 . S
N1244 C1245 1.327 . S
N1244 Tb1247 2.600 . S
C1245 C1243 1.392 . S
C1245 N1244 1.327 . S
C1245 H1252 0.930 . S
C1246 C1241 1.385 . S
C1246 C1243 1.370 . S
C1246 H1265 0.930 . S
Tb1247 N1244 2.600 . S
Tb1247 N1248 2.660 . S
Tb1247 O1281 2.362 . S
Tb1247 O1282 2.421 . S
Tb1247 O1286 2.546 . S
Tb1247 O1287 2.610 . S
Tb1247 O1289 2.320 . S
Tb1247 O1290 2.552 . S
Tb1247 O1291 2.413 . S
Tb1247 C1311 2.833 . S
N1248 C1240 1.360 . S
N1248 Tb1247 2.660 . S
N1248 C1249 1.305 . S
C1249 N1248 1.305 . S
C1249 C1251 1.407 . S
C1249 H1256 0.930 . S
C1250 C1238 1.410 . S
C1250 C1251 1.345 . S
C1250 H1258 0.930 . S
C1251 C1249 1.407 . S
C1251 C1250 1.345 . S
C1251 H1253 0.930 . S
H1252 C1245 0.930 . S
H1253 C1251 0.930 . S
H1254 C1242 0.930 . S
H1255 C1243 0.931 . S
H1256 C1249 0.930 . S
H1257 C1271 0.930 . S
H1258 C1250 0.930 . S
H1259 C1277 0.930 . S
H1260 C1268 0.930 . S
H1261 C1275 0.931 . S
H1262 C1239 0.929 . S
H1263 C1269 0.930 . S
H1264 C1302 0.930 . S
H1265 C1246 0.930 . S
H1266 C1301 0.929 . S
N1267 Tb1236 2.660 . S
N1267 C1268 1.305 . S
N1267 C1272 1.360 . S
C1268 H1260 0.930 . S
C1268 N1267 1.305 . S
C1268 C1271 1.407 . S
C1269 H1263 0.930 . S
C1269 C1270 1.410 . S
C1269 C1271 1.345 . S
C1270 C1269 1.410 . S
C1270 C1272 1.417 . S
C1270 C1302 1.432 . S
C1271 H1257 0.930 . S
C1271 C1268 1.407 . S
C1271 C1269 1.345 . S
C1272 N1267 1.360 . S
C1272 C1270 1.417 . S
C1272 C1276 1.432 . S
H1273 C1278 0.930 . S
N1274 Tb1236 2.600 . S
N1274 C1276 1.359 . S
N1274 C1277 1.327 . S
C1275 H1261 0.931 . S
C1275 C1277 1.392 . S
C1275 C1278 1.370 . S
C1276 C1272 1.432 . S
C1276 N1274 1.359 . S
C1276 C1279 1.414 . S
C1277 H1259 0.930 . S
C1277 N1274 1.327 . S
C1277 C1275 1.392 . S
C1278 H1273 0.930 . S
C1278 C1275 1.370 . S
C1278 C1279 1.385 . S
C1279 C1276 1.414 . S
C1279 C1278 1.385 . S
C1279 C1301 1.444 . S
O1280 Tb1236 2.546 . S
O1280 C1300 1.251 . S
O1281 Tb1236 2.610 . S
O1281 Tb1247 2.362 . S
O1281 C1292 1.283 . S
O1282 Tb1247 2.421 . S
O1282 C1299 1.262 . S
O1283 Tb1236 2.320 . S
O1283 C1299 1.260 . S
O1284 Tb1236 2.552 . S
O1284 C1292 1.243 . S
O1285 Tb1236 2.413 . S
O1285 C1300 1.256 . S
O1286 Tb1247 2.546 . S
O1286 C1311 1.251 . S
O1287 Tb1236 2.362 . S
O1287 Tb1247 2.610 . S
O1287 C1303 1.283 . S
O1288 Tb1236 2.421 . S
O1288 C1310 1.262 . S
O1289 Tb1247 2.320 . S
O1289 C1310 1.260 . S
O1290 Tb1247 2.552 . S
O1290 C1303 1.243 . S
O1291 Tb1247 2.413 . S
O1291 C1311 1.256 . S
C1292 O1281 1.283 . S
C1292 O1284 1.243 . S
C1293 C1295 1.382 . S
C1293 C1297 1.393 . S
C1293 C1300 1.500 . S
C1294 C1295 1.400 . S
C1294 C1296 1.384 . S
C1295 C1293 1.382 . S
C1295 C1294 1.400 . S
C1295 H1312 0.930 . S
C1296 C1294 1.384 . S
C1296 C1298 1.392 . S
C1296 H1313 0.931 . S
C1297 C1293 1.393 . S
C1297 C1298 1.401 . S
C1297 H1314 0.930 . S
C1298 C1296 1.392 . S
C1298 C1297 1.401 . S
C1298 H1315 0.930 . S
C1299 O1282 1.262 . S
C1299 O1283 1.260 . S
C1300 Tb1236 2.833 . S
C1300 O1280 1.251 . S
C1300 O1285 1.256 . S
C1300 C1293 1.500 . S
C1301 H1266 0.929 . S
C1301 C1279 1.444 . S
C1301 C1302 1.317 . S
C1302 H1264 0.930 . S
C1302 C1270 1.432 . S
C1302 C1301 1.317 . S
C1303 O1287 1.283 . S
C1303 O1290 1.243 . S
C1304 C1305 1.382 . S
C1304 C1308 1.393 . S
C1304 C1311 1.500 . S
C1305 C1304 1.382 . S
C1305 C1306 1.400 . S
C1305 H1316 0.930 . S
C1306 C1305 1.400 . S
C1306 C1307 1.384 . S
C1307 C1306 1.384 . S
C1307 C1309 1.392 . S
C1307 H1317 0.931 . S
C1308 C1304 1.393 . S
C1308 C1309 1.401 . S
C1308 H1318 0.930 . S
C1309 C1307 1.392 . S
C1309 C1308 1.401 . S
C1309 H1319 0.930 . S
C1310 O1288 1.262 . S
C1310 O1289 1.260 . S
C1311 Tb1247 2.833 . S
C1311 O1286 1.251 . S
C1311 O1291 1.256 . S
C1311 C1304 1.500 . S
H1312 C1295 0.930 . S
H1313 C1296 0.931 . S
H1314 C1297 0.930 . S
H1315 C1298 0.930 . S
H1316 C1305 0.930 . S
H1317 C1307 0.931 . S
H1318 C1308 0.930 . S
H1319 C1309 0.930 . S
Tb1320 N1351 2.660 . S
Tb1320 N1358 2.600 . S
Tb1320 O1364 2.546 . S
Tb1320 O1365 2.610 . S
Tb1320 O1367 2.320 . S
Tb1320 O1368 2.552 . S
Tb1320 O1369 2.413 . S
Tb1320 O1371 2.362 . S
Tb1320 O1372 2.421 . S
Tb1320 C1384 2.833 . S
C1321 C1324 1.432 . S
C1321 C1325 1.414 . S
C1321 N1328 1.359 . S
C1322 C1324 1.417 . S
C1322 C1326 1.432 . S
C1322 C1334 1.410 . S
C1323 C1325 1.444 . S
C1323 C1326 1.317 . S
C1323 H1346 0.929 . S
C1324 C1321 1.432 . S
C1324 C1322 1.417 . S
C1324 N1332 1.360 . S
C1325 C1321 1.414 . S
C1325 C1323 1.444 . S
C1325 C1330 1.385 . S
C1326 C1322 1.432 . S
C1326 C1323 1.317 . S
C1326 H1338 0.930 . S
C1327 C1329 1.392 . S
C1327 C1330 1.370 . S
C1327 H1339 0.931 . S
N1328 C1321 1.359 . S
N1328 C1329 1.327 . S
N1328 Tb1331 2.600 . S
C1329 C1327 1.392 . S
C1329 N1328 1.327 . S
C1329 H1336 0.930 . S
C1330 C1325 1.385 . S
C1330 C1327 1.370 . S
C1330 H1349 0.930 . S
Tb1331 N1328 2.600 . S
Tb1331 N1332 2.660 . S
Tb1331 O1365 2.362 . S
Tb1331 O1366 2.421 . S
Tb1331 O1370 2.546 . S
Tb1331 O1371 2.610 . S
Tb1331 O1373 2.320 . S
Tb1331 O1374 2.552 . S
Tb1331 O1375 2.413 . S
Tb1331 C1395 2.833 . S
N1332 C1324 1.360 . S
N1332 Tb1331 2.660 . S
N1332 C1333 1.305 . S
C1333 N1332 1.305 . S
C1333 C1335 1.407 . S
C1333 H1340 0.930 . S
C1334 C1322 1.410 . S
C1334 C1335 1.345 . S
C1334 H1342 0.930 . S
C1335 C1333 1.407 . S
C1335 C1334 1.345 . S
C1335 H1337 0.930 . S
H1336 C1329 0.930 . S
H1337 C1335 0.930 . S
H1338 C1326 0.930 . S
H1339 C1327 0.931 . S
H1340 C1333 0.930 . S
H1341 C1355 0.930 . S
H1342 C1334 0.930 . S
H1343 C1361 0.930 . S
H1344 C1352 0.930 . S
H1345 C1359 0.931 . S
H1346 C1323 0.929 . S
H1347 C1353 0.930 . S
H1348 C1386 0.930 . S
H1349 C1330 0.930 . S
H1350 C1385 0.929 . S
N1351 Tb1320 2.660 . S
N1351 C1352 1.305 . S
N1351 C1356 1.360 . S
C1352 H1344 0.930 . S
C1352 N1351 1.305 . S
C1352 C1355 1.407 . S
C1353 H1347 0.930 . S
C1353 C1354 1.410 . S
C1353 C1355 1.345 . S
C1354 C1353 1.410 . S
C1354 C1356 1.417 . S
C1354 C1386 1.432 . S
C1355 H1341 0.930 . S
C1355 C1352 1.407 . S
C1355 C1353 1.345 . S
C1356 N1351 1.360 . S
C1356 C1354 1.417 . S
C1356 C1360 1.432 . S
H1357 C1362 0.930 . S
N1358 Tb1320 2.600 . S
N1358 C1360 1.359 . S
N1358 C1361 1.327 . S
C1359 H1345 0.931 . S
C1359 C1361 1.392 . S
C1359 C1362 1.370 . S
C1360 C1356 1.432 . S
C1360 N1358 1.359 . S
C1360 C1363 1.414 . S
C1361 H1343 0.930 . S
C1361 N1358 1.327 . S
C1361 C1359 1.392 . S
C1362 H1357 0.930 . S
C1362 C1359 1.370 . S
C1362 C1363 1.385 . S
C1363 C1360 1.414 . S
C1363 C1362 1.385 . S
C1363 C1385 1.444 . S
O1364 Tb1320 2.546 . S
O1364 C1384 1.251 . S
O1365 Tb1320 2.610 . S
O1365 Tb1331 2.362 . S
O1365 C1376 1.283 . S
O1366 Tb1331 2.421 . S
O1366 C1383 1.262 . S
O1367 Tb1320 2.320 . S
O1367 C1383 1.260 . S
O1368 Tb1320 2.552 . S
O1368 C1376 1.243 . S
O1369 Tb1320 2.413 . S
O1369 C1384 1.256 . S
O1370 Tb1331 2.546 . S
O1370 C1395 1.251 . S
O1371 Tb1320 2.362 . S
O1371 Tb1331 2.610 . S
O1371 C1387 1.283 . S
O1372 Tb1320 2.421 . S
O1372 C1394 1.262 . S
O1373 Tb1331 2.320 . S
O1373 C1394 1.260 . S
O1374 Tb1331 2.552 . S
O1374 C1387 1.243 . S
O1375 Tb1331 2.413 . S
O1375 C1395 1.256 . S
C1376 O1365 1.283 . S
C1376 O1368 1.243 . S
C1377 C1379 1.382 . S
C1377 C1381 1.393 . S
C1377 C1384 1.500 . S
C1378 C1379 1.400 . S
C1378 C1380 1.384 . S
C1379 C1377 1.382 . S
C1379 C1378 1.400 . S
C1379 H1396 0.930 . S
C1380 C1378 1.384 . S
C1380 C1382 1.392 . S
C1380 H1397 0.931 . S
C1381 C1377 1.393 . S
C1381 C1382 1.401 . S
C1381 H1398 0.930 . S
C1382 C1380 1.392 . S
C1382 C1381 1.401 . S
C1382 H1399 0.930 . S
C1383 O1366 1.262 . S
C1383 O1367 1.260 . S
C1384 Tb1320 2.833 . S
C1384 O1364 1.251 . S
C1384 O1369 1.256 . S
C1384 C1377 1.500 . S
C1385 H1350 0.929 . S
C1385 C1363 1.444 . S
C1385 C1386 1.317 . S
C1386 H1348 0.930 . S
C1386 C1354 1.432 . S
C1386 C1385 1.317 . S
C1387 O1371 1.283 . S
C1387 O1374 1.243 . S
C1388 C1389 1.382 . S
C1388 C1392 1.393 . S
C1388 C1395 1.500 . S
C1389 C1388 1.382 . S
C1389 C1390 1.400 . S
C1389 H1400 0.930 . S
C1390 C1389 1.400 . S
C1390 C1391 1.384 . S
C1391 C1390 1.384 . S
C1391 C1393 1.392 . S
C1391 H1401 0.931 . S
C1392 C1388 1.393 . S
C1392 C1393 1.401 . S
C1392 H1402 0.930 . S
C1393 C1391 1.392 . S
C1393 C1392 1.401 . S
C1393 H1403 0.930 . S
C1394 O1372 1.262 . S
C1394 O1373 1.260 . S
C1395 Tb1331 2.833 . S
C1395 O1370 1.251 . S
C1395 O1375 1.256 . S
C1395 C1388 1.500 . S
H1396 C1379 0.930 . S
H1397 C1380 0.931 . S
H1398 C1381 0.930 . S
H1399 C1382 0.930 . S
H1400 C1389 0.930 . S
H1401 C1391 0.931 . S
H1402 C1392 0.930 . S
H1403 C1393 0.930 . S
Tb1404 N1435 2.660 . S
Tb1404 N1442 2.600 . S
Tb1404 O1448 2.546 . S
Tb1404 O1449 2.610 . S
Tb1404 O1451 2.320 . S
Tb1404 O1452 2.552 . S
Tb1404 O1453 2.413 . S
Tb1404 O1455 2.362 . S
Tb1404 O1456 2.421 . S
Tb1404 C1468 2.833 . S
C1405 C1408 1.432 . S
C1405 C1409 1.414 . S
C1405 N1412 1.359 . S
C1406 C1408 1.417 . S
C1406 C1410 1.432 . S
C1406 C1418 1.410 . S
C1407 C1409 1.444 . S
C1407 C1410 1.317 . S
C1407 H1430 0.929 . S
C1408 C1405 1.432 . S
C1408 C1406 1.417 . S
C1408 N1416 1.360 . S
C1409 C1405 1.414 . S
C1409 C1407 1.444 . S
C1409 C1414 1.385 . S
C1410 C1406 1.432 . S
C1410 C1407 1.317 . S
C1410 H1422 0.930 . S
C1411 C1413 1.392 . S
C1411 C1414 1.370 . S
C1411 H1423 0.931 . S
N1412 C1405 1.359 . S
N1412 C1413 1.327 . S
N1412 Tb1415 2.600 . S
C1413 C1411 1.392 . S
C1413 N1412 1.327 . S
C1413 H1420 0.930 . S
C1414 C1409 1.385 . S
C1414 C1411 1.370 . S
C1414 H1433 0.930 . S
Tb1415 N1412 2.600 . S
Tb1415 N1416 2.660 . S
Tb1415 O1449 2.362 . S
Tb1415 O1450 2.421 . S
Tb1415 O1454 2.546 . S
Tb1415 O1455 2.610 . S
Tb1415 O1457 2.320 . S
Tb1415 O1458 2.552 . S
Tb1415 O1459 2.413 . S
Tb1415 C1479 2.833 . S
N1416 C1408 1.360 . S
N1416 Tb1415 2.660 . S
N1416 C1417 1.305 . S
C1417 N1416 1.305 . S
C1417 C1419 1.407 . S
C1417 H1424 0.930 . S
C1418 C1406 1.410 . S
C1418 C1419 1.345 . S
C1418 H1426 0.930 . S
C1419 C1417 1.407 . S
C1419 C1418 1.345 . S
C1419 H1421 0.930 . S
H1420 C1413 0.930 . S
H1421 C1419 0.930 . S
H1422 C1410 0.930 . S
H1423 C1411 0.931 . S
H1424 C1417 0.930 . S
H1425 C1439 0.930 . S
H1426 C1418 0.930 . S
H1427 C1445 0.930 . S
H1428 C1436 0.930 . S
H1429 C1443 0.931 . S
H1430 C1407 0.929 . S
H1431 C1437 0.930 . S
H1432 C1470 0.930 . S
H1433 C1414 0.930 . S
H1434 C1469 0.929 . S
N1435 Tb1404 2.660 . S
N1435 C1436 1.305 . S
N1435 C1440 1.360 . S
C1436 H1428 0.930 . S
C1436 N1435 1.305 . S
C1436 C1439 1.407 . S
C1437 H1431 0.930 . S
C1437 C1438 1.410 . S
C1437 C1439 1.345 . S
C1438 C1437 1.410 . S
C1438 C1440 1.417 . S
C1438 C1470 1.432 . S
C1439 H1425 0.930 . S
C1439 C1436 1.407 . S
C1439 C1437 1.345 . S
C1440 N1435 1.360 . S
C1440 C1438 1.417 . S
C1440 C1444 1.432 . S
H1441 C1446 0.930 . S
N1442 Tb1404 2.600 . S
N1442 C1444 1.359 . S
N1442 C1445 1.327 . S
C1443 H1429 0.931 . S
C1443 C1445 1.392 . S
C1443 C1446 1.370 . S
C1444 C1440 1.432 . S
C1444 N1442 1.359 . S
C1444 C1447 1.414 . S
C1445 H1427 0.930 . S
C1445 N1442 1.327 . S
C1445 C1443 1.392 . S
C1446 H1441 0.930 . S
C1446 C1443 1.370 . S
C1446 C1447 1.385 . S
C1447 C1444 1.414 . S
C1447 C1446 1.385 . S
C1447 C1469 1.444 . S
O1448 Tb1404 2.546 . S
O1448 C1468 1.251 . S
O1449 Tb1404 2.610 . S
O1449 Tb1415 2.362 . S
O1449 C1460 1.283 . S
O1450 Tb1415 2.421 . S
O1450 C1467 1.262 . S
O1451 Tb1404 2.320 . S
O1451 C1467 1.260 . S
O1452 Tb1404 2.552 . S
O1452 C1460 1.243 . S
O1453 Tb1404 2.413 . S
O1453 C1468 1.256 . S
O1454 Tb1415 2.546 . S
O1454 C1479 1.251 . S
O1455 Tb1404 2.362 . S
O1455 Tb1415 2.610 . S
O1455 C1471 1.283 . S
O1456 Tb1404 2.421 . S
O1456 C1478 1.262 . S
O1457 Tb1415 2.320 . S
O1457 C1478 1.260 . S
O1458 Tb1415 2.552 . S
O1458 C1471 1.243 . S
O1459 Tb1415 2.413 . S
O1459 C1479 1.256 . S
C1460 O1449 1.283 . S
C1460 O1452 1.243 . S
C1461 C1463 1.382 . S
C1461 C1465 1.393 . S
C1461 C1468 1.500 . S
C1462 C1463 1.400 . S
C1462 C1464 1.384 . S
C1463 C1461 1.382 . S
C1463 C1462 1.400 . S
C1463 H1480 0.930 . S
C1464 C1462 1.384 . S
C1464 C1466 1.392 . S
C1464 H1481 0.931 . S
C1465 C1461 1.393 . S
C1465 C1466 1.401 . S
C1465 H1482 0.930 . S
C1466 C1464 1.392 . S
C1466 C1465 1.401 . S
C1466 H1483 0.930 . S
C1467 O1450 1.262 . S
C1467 O1451 1.260 . S
C1468 Tb1404 2.833 . S
C1468 O1448 1.251 . S
C1468 O1453 1.256 . S
C1468 C1461 1.500 . S
C1469 H1434 0.929 . S
C1469 C1447 1.444 . S
C1469 C1470 1.317 . S
C1470 H1432 0.930 . S
C1470 C1438 1.432 . S
C1470 C1469 1.317 . S
C1471 O1455 1.283 . S
C1471 O1458 1.243 . S
C1472 C1473 1.382 . S
C1472 C1476 1.393 . S
C1472 C1479 1.500 . S
C1473 C1472 1.382 . S
C1473 C1474 1.400 . S
C1473 H1484 0.930 . S
C1474 C1473 1.400 . S
C1474 C1475 1.384 . S
C1475 C1474 1.384 . S
C1475 C1477 1.392 . S
C1475 H1485 0.931 . S
C1476 C1472 1.393 . S
C1476 C1477 1.401 . S
C1476 H1486 0.930 . S
C1477 C1475 1.392 . S
C1477 C1476 1.401 . S
C1477 H1487 0.930 . S
C1478 O1456 1.262 . S
C1478 O1457 1.260 . S
C1479 Tb1415 2.833 . S
C1479 O1454 1.251 . S
C1479 O1459 1.256 . S
C1479 C1472 1.500 . S
H1480 C1463 0.930 . S
H1481 C1464 0.931 . S
H1482 C1465 0.930 . S
H1483 C1466 0.930 . S
H1484 C1473 0.930 . S
H1485 C1475 0.931 . S
H1486 C1476 0.930 . S
H1487 C1477 0.930 . S
Tb1488 N1519 2.660 . S
Tb1488 N1526 2.600 . S
Tb1488 O1532 2.546 . S
Tb1488 O1533 2.610 . S
Tb1488 O1535 2.320 . S
Tb1488 O1536 2.552 . S
Tb1488 O1537 2.413 . S
Tb1488 O1539 2.362 . S
Tb1488 O1540 2.421 . S
Tb1488 C1552 2.833 . S
C1489 C1492 1.432 . S
C1489 C1493 1.414 . S
C1489 N1496 1.359 . S
C1490 C1492 1.417 . S
C1490 C1494 1.432 . S
C1490 C1502 1.410 . S
C1491 C1493 1.444 . S
C1491 C1494 1.317 . S
C1491 H1514 0.929 . S
C1492 C1489 1.432 . S
C1492 C1490 1.417 . S
C1492 N1500 1.360 . S
C1493 C1489 1.414 . S
C1493 C1491 1.444 . S
C1493 C1498 1.385 . S
C1494 C1490 1.432 . S
C1494 C1491 1.317 . S
C1494 H1506 0.930 . S
C1495 C1497 1.392 . S
C1495 C1498 1.370 . S
C1495 H1507 0.931 . S
N1496 C1489 1.359 . S
N1496 C1497 1.327 . S
N1496 Tb1499 2.600 . S
C1497 C1495 1.392 . S
C1497 N1496 1.327 . S
C1497 H1504 0.930 . S
C1498 C1493 1.385 . S
C1498 C1495 1.370 . S
C1498 H1517 0.930 . S
Tb1499 N1496 2.600 . S
Tb1499 N1500 2.660 . S
Tb1499 O1533 2.362 . S
Tb1499 O1534 2.421 . S
Tb1499 O1538 2.546 . S
Tb1499 O1539 2.610 . S
Tb1499 O1541 2.320 . S
Tb1499 O1542 2.552 . S
Tb1499 O1543 2.413 . S
Tb1499 C1563 2.833 . S
N1500 C1492 1.360 . S
N1500 Tb1499 2.660 . S
N1500 C1501 1.305 . S
C1501 N1500 1.305 . S
C1501 C1503 1.407 . S
C1501 H1508 0.930 . S
C1502 C1490 1.410 . S
C1502 C1503 1.345 . S
C1502 H1510 0.930 . S
C1503 C1501 1.407 . S
C1503 C1502 1.345 . S
C1503 H1505 0.930 . S
H1504 C1497 0.930 . S
H1505 C1503 0.930 . S
H1506 C1494 0.930 . S
H1507 C1495 0.931 . S
H1508 C1501 0.930 . S
H1509 C1523 0.930 . S
H1510 C1502 0.930 . S
H1511 C1529 0.930 . S
H1512 C1520 0.930 . S
H1513 C1527 0.931 . S
H1514 C1491 0.929 . S
H1515 C1521 0.930 . S
H1516 C1554 0.930 . S
H1517 C1498 0.930 . S
H1518 C1553 0.929 . S
N1519 Tb1488 2.660 . S
N1519 C1520 1.305 . S
N1519 C1524 1.360 . S
C1520 H1512 0.930 . S
C1520 N1519 1.305 . S
C1520 C1523 1.407 . S
C1521 H1515 0.930 . S
C1521 C1522 1.410 . S
C1521 C1523 1.345 . S
C1522 C1521 1.410 . S
C1522 C1524 1.417 . S
C1522 C1554 1.432 . S
C1523 H1509 0.930 . S
C1523 C1520 1.407 . S
C1523 C1521 1.345 . S
C1524 N1519 1.360 . S
C1524 C1522 1.417 . S
C1524 C1528 1.432 . S
H1525 C1530 0.930 . S
N1526 Tb1488 2.600 . S
N1526 C1528 1.359 . S
N1526 C1529 1.327 . S
C1527 H1513 0.931 . S
C1527 C1529 1.392 . S
C1527 C1530 1.370 . S
C1528 C1524 1.432 . S
C1528 N1526 1.359 . S
C1528 C1531 1.414 . S
C1529 H1511 0.930 . S
C1529 N1526 1.327 . S
C1529 C1527 1.392 . S
C1530 H1525 0.930 . S
C1530 C1527 1.370 . S
C1530 C1531 1.385 . S
C1531 C1528 1.414 . S
C1531 C1530 1.385 . S
C1531 C1553 1.444 . S
O1532 Tb1488 2.546 . S
O1532 C1552 1.251 . S
O1533 Tb1488 2.610 . S
O1533 Tb1499 2.362 . S
O1533 C1544 1.283 . S
O1534 Tb1499 2.421 . S
O1534 C1551 1.262 . S
O1535 Tb1488 2.320 . S
O1535 C1551 1.260 . S
O1536 Tb1488 2.552 . S
O1536 C1544 1.243 . S
O1537 Tb1488 2.413 . S
O1537 C1552 1.256 . S
O1538 Tb1499 2.546 . S
O1538 C1563 1.251 . S
O1539 Tb1488 2.362 . S
O1539 Tb1499 2.610 . S
O1539 C1555 1.283 . S
O1540 Tb1488 2.421 . S
O1540 C1562 1.262 . S
O1541 Tb1499 2.320 . S
O1541 C1562 1.260 . S
O1542 Tb1499 2.552 . S
O1542 C1555 1.243 . S
O1543 Tb1499 2.413 . S
O1543 C1563 1.256 . S
C1544 O1533 1.283 . S
C1544 O1536 1.243 . S
C1545 C1547 1.382 . S
C1545 C1549 1.393 . S
C1545 C1552 1.500 . S
C1546 C1547 1.400 . S
C1546 C1548 1.384 . S
C1547 C1545 1.382 . S
C1547 C1546 1.400 . S
C1547 H1564 0.930 . S
C1548 C1546 1.384 . S
C1548 C1550 1.392 . S
C1548 H1565 0.931 . S
C1549 C1545 1.393 . S
C1549 C1550 1.401 . S
C1549 H1566 0.930 . S
C1550 C1548 1.392 . S
C1550 C1549 1.401 . S
C1550 H1567 0.930 . S
C1551 O1534 1.262 . S
C1551 O1535 1.260 . S
C1552 Tb1488 2.833 . S
C1552 O1532 1.251 . S
C1552 O1537 1.256 . S
C1552 C1545 1.500 . S
C1553 H1518 0.929 . S
C1553 C1531 1.444 . S
C1553 C1554 1.317 . S
C1554 H1516 0.930 . S
C1554 C1522 1.432 . S
C1554 C1553 1.317 . S
C1555 O1539 1.283 . S
C1555 O1542 1.243 . S
C1556 C1557 1.382 . S
C1556 C1560 1.393 . S
C1556 C1563 1.500 . S
C1557 C1556 1.382 . S
C1557 C1558 1.400 . S
C1557 H1568 0.930 . S
C1558 C1557 1.400 . S
C1558 C1559 1.384 . S
C1559 C1558 1.384 . S
C1559 C1561 1.392 . S
C1559 H1569 0.931 . S
C1560 C1556 1.393 . S
C1560 C1561 1.401 . S
C1560 H1570 0.930 . S
C1561 C1559 1.392 . S
C1561 C1560 1.401 . S
C1561 H1571 0.930 . S
C1562 O1540 1.262 . S
C1562 O1541 1.260 . S
C1563 Tb1499 2.833 . S
C1563 O1538 1.251 . S
C1563 O1543 1.256 . S
C1563 C1556 1.500 . S
H1564 C1547 0.930 . S
H1565 C1548 0.931 . S
H1566 C1549 0.930 . S
H1567 C1550 0.930 . S
H1568 C1557 0.930 . S
H1569 C1559 0.931 . S
H1570 C1560 0.930 . S
H1571 C1561 0.930 . S
Tb1572 N1603 2.660 . S
Tb1572 N1610 2.600 1_554 S
Tb1572 O1616 2.546 1_554 S
Tb1572 O1617 2.610 . S
Tb1572 O1619 2.320 . S
Tb1572 O1620 2.552 . S
Tb1572 O1621 2.413 . S
Tb1572 O1623 2.362 . S
Tb1572 O1624 2.421 1_554 S
Tb1572 C1636 2.833 . S
C1573 C1576 1.432 . S
C1573 C1577 1.414 . S
C1573 N1580 1.350 1_655 S
C1574 C1576 1.417 . S
C1574 C1578 1.432 . S
C1574 C1586 1.410 . S
C1575 C1577 1.444 . S
C1575 C1578 1.317 . S
C1575 H1598 0.929 . S
C1576 C1573 1.432 . S
C1576 C1574 1.417 . S
C1576 N1584 1.360 . S
C1577 C1573 1.414 . S
C1577 C1575 1.444 . S
C1577 C1582 1.385 . S
C1578 C1574 1.432 . S
C1578 C1575 1.317 . S
C1578 H1590 0.930 . S
C1579 C1581 1.392 1_655 S
C1579 C1582 1.370 . S
C1579 H1591 0.931 . S
N1580 C1573 1.350 1_455 S
N1580 C1581 1.329 . S
N1580 Tb1583 2.606 . S
C1581 C1579 1.392 1_455 S
C1581 N1580 1.329 . S
C1581 H1588 0.930 . S
C1582 C1577 1.385 . S
C1582 C1579 1.370 . S
C1582 H1601 0.930 . S
Tb1583 N1580 2.606 . S
Tb1583 N1584 2.660 1_455 S
Tb1583 O1617 2.362 . S
Tb1583 O1618 2.421 . S
Tb1583 O1622 2.546 1_455 S
Tb1583 O1623 2.610 . S
Tb1583 O1625 2.320 . S
Tb1583 O1626 2.552 . S
Tb1583 O1627 2.413 1_455 S
Tb1583 C1647 2.833 1_455 S
N1584 C1576 1.360 . S
N1584 Tb1583 2.660 1_655 S
N1584 C1585 1.305 . S
C1585 N1584 1.305 . S
C1585 C1587 1.407 1_554 S
C1585 H1592 0.930 1_554 S
C1586 C1574 1.410 . S
C1586 C1587 1.345 1_554 S
C1586 H1594 0.933 . S
C1587 C1585 1.407 1_556 S
C1587 C1586 1.345 1_556 S
C1587 H1589 0.930 . S
H1588 C1581 0.930 . S
H1589 C1587 0.930 . S
H1590 C1578 0.930 . S
H1591 C1579 0.931 . S
H1592 C1585 0.930 1_556 S
H1593 C1607 0.930 . S
H1594 C1586 0.933 . S
H1595 C1613 0.930 . S
H1596 C1604 0.930 . S
H1597 C1611 0.931 . S
H1598 C1575 0.929 . S
H1599 C1605 0.930 . S
H1600 C1638 0.930 . S
H1601 C1582 0.930 . S
H1602 C1637 0.929 . S
N1603 Tb1572 2.660 . S
N1603 C1604 1.305 . S
N1603 C1608 1.360 . S
C1604 H1596 0.930 . S
C1604 N1603 1.305 . S
C1604 C1607 1.407 . S
C1605 H1599 0.930 . S
C1605 C1606 1.410 . S
C1605 C1607 1.345 . S
C1606 C1605 1.410 . S
C1606 C1608 1.417 . S
C1606 C1638 1.432 . S
C1607 H1593 0.930 . S
C1607 C1604 1.407 . S
C1607 C1605 1.345 . S
C1608 N1603 1.360 . S
C1608 C1606 1.417 . S
C1608 C1612 1.432 1_554 S
H1609 C1614 0.930 . S
N1610 Tb1572 2.600 1_556 S
N1610 C1612 1.359 . S
N1610 C1613 1.327 . S
C1611 H1597 0.931 . S
C1611 C1613 1.392 . S
C1611 C1614 1.370 . S
C1612 C1608 1.432 1_556 S
C1612 N1610 1.359 . S
C1612 C1615 1.414 . S
C1613 H1595 0.930 . S
C1613 N1610 1.327 . S
C1613 C1611 1.392 . S
C1614 H1609 0.930 . S
C1614 C1611 1.370 . S
C1614 C1615 1.385 . S
C1615 C1612 1.414 . S
C1615 C1614 1.385 . S
C1615 C1637 1.444 . S
O1616 Tb1572 2.546 1_556 S
O1616 C1636 1.251 1_556 S
O1617 Tb1572 2.610 . S
O1617 Tb1583 2.362 . S
O1617 C1628 1.283 . S
O1618 Tb1583 2.421 . S
O1618 C1635 1.262 . S
O1619 Tb1572 2.320 . S
O1619 C1635 1.260 . S
O1620 Tb1572 2.552 . S
O1620 C1628 1.243 . S
O1621 Tb1572 2.413 . S
O1621 C1636 1.256 . S
O1622 Tb1583 2.546 1_655 S
O1622 C1647 1.251 . S
O1623 Tb1572 2.362 . S
O1623 Tb1583 2.610 . S
O1623 C1639 1.283 . S
O1624 Tb1572 2.421 1_556 S
O1624 C1646 1.262 . S
O1625 Tb1583 2.320 . S
O1625 C1646 1.260 1_554 S
O1626 Tb1583 2.552 . S
O1626 C1639 1.243 . S
O1627 Tb1583 2.413 1_655 S
O1627 C1647 1.256 . S
C1628 O1617 1.283 . S
C1628 O1620 1.243 . S
C1629 C1631 1.382 1_556 S
C1629 C1633 1.393 . S
C1629 C1636 1.500 1_556 S
C1630 C1631 1.400 . S
C1630 C1632 1.384 1_554 S
C1631 C1629 1.382 1_554 S
C1631 C1630 1.400 . S
C1631 H1648 0.930 . S
C1632 C1630 1.384 1_556 S
C1632 C1634 1.392 . S
C1632 H1649 0.931 . S
C1633 C1629 1.393 . S
C1633 C1634 1.401 . S
C1633 H1650 0.930 . S
C1634 C1632 1.392 . S
C1634 C1633 1.401 . S
C1634 H1651 0.930 . S
C1635 O1618 1.262 . S
C1635 O1619 1.260 . S
C1636 Tb1572 2.833 . S
C1636 O1616 1.251 1_554 S
C1636 O1621 1.256 . S
C1636 C1629 1.500 1_554 S
C1637 H1602 0.929 . S
C1637 C1615 1.444 . S
C1637 C1638 1.317 1_556 S
C1638 H1600 0.930 . S
C1638 C1606 1.432 . S
C1638 C1637 1.317 1_554 S
C1639 O1623 1.283 . S
C1639 O1626 1.243 . S
C1640 C1641 1.382 . S
C1640 C1644 1.393 . S
C1640 C1647 1.500 . S
C1641 C1640 1.382 . S
C1641 C1642 1.400 . S
C1641 H1652 0.930 . S
C1642 C1641 1.400 . S
C1642 C1643 1.384 . S
C1643 C1642 1.384 . S
C1643 C1645 1.392 . S
C1643 H1653 0.931 . S
C1644 C1640 1.393 . S
C1644 C1645 1.401 . S
C1644 H1654 0.930 . S
C1645 C1643 1.392 . S
C1645 C1644 1.401 . S
C1645 H1655 0.930 . S
C1646 O1624 1.262 . S
C1646 O1625 1.260 1_556 S
C1647 Tb1583 2.833 1_655 S
C1647 O1622 1.251 . S
C1647 O1627 1.256 . S
C1647 C1640 1.500 . S
H1648 C1631 0.930 . S
H1649 C1632 0.931 . S
H1650 C1633 0.930 . S
H1651 C1634 0.930 . S
H1652 C1641 0.930 . S
H1653 C1643 0.931 . S
H1654 C1644 0.930 . S
H1655 C1645 0.930 . S
H1656 C1664 0.950 . S
H1657 C1669 0.950 1_655 S
H1658 C1666 0.950 . S
H1659 C1668 0.950 . S
H1660 C1670 0.950 . S
H1661 C1672 0.950 . S
H1662 C1674 0.968 . S
H1663 C1675 0.950 . S
C1664 H1656 0.950 . S
C1664 C1665 1.386 . S
C1664 C1666 1.391 . S
C1665 C1664 1.386 . S
C1665 C1669 1.393 . S
C1666 H1658 0.950 . S
C1666 C1664 1.391 . S
C1666 C1667 1.400 . S
C1667 C1666 1.400 . S
C1667 C1668 1.398 . S
C1667 C1673 1.475 1_556 S
C1668 H1659 0.950 . S
C1668 C1667 1.398 . S
C1668 C1669 1.391 . S
C1669 H1657 0.950 1_455 S
C1669 C1665 1.393 . S
C1669 C1668 1.391 . S
C1670 H1660 0.950 . S
C1670 C1671 1.386 . S
C1670 C1672 1.391 . S
C1671 C1670 1.386 . S
C1671 C1675 1.393 . S
C1672 H1661 0.950 . S
C1672 C1670 1.391 . S
C1672 C1673 1.413 . S
C1673 C1667 1.475 1_554 S
C1673 C1672 1.413 . S
C1673 C1674 1.403 . S
C1674 H1662 0.968 . S
C1674 C1673 1.403 . S
C1674 C1675 1.391 . S
C1675 H1663 0.950 . S
C1675 C1671 1.393 . S
C1675 C1674 1.391 . S
H1676 C1684 0.950 . S
H1677 C1689 0.950 . S
H1678 C1686 0.950 . S
H1679 C1688 0.950 . S
H1680 C1690 0.950 . S
H1681 C1692 0.950 . S
H1682 C1694 0.950 . S
H1683 C1695 0.950 . S
C1684 H1676 0.950 . S
C1684 C1685 1.386 . S
C1684 C1686 1.391 . S
C1685 C1684 1.386 . S
C1685 C1689 1.393 . S
C1686 H1678 0.950 . S
C1686 C1684 1.391 . S
C1686 C1687 1.400 . S
C1687 C1686 1.400 . S
C1687 C1688 1.398 . S
C1687 C1693 1.491 . S
C1688 H1679 0.950 . S
C1688 C1687 1.398 . S
C1688 C1689 1.391 . S
C1689 H1677 0.950 . S
C1689 C1685 1.393 . S
C1689 C1688 1.391 . S
C1690 H1680 0.950 . S
C1690 C1691 1.386 . S
C1690 C1692 1.391 . S
C1691 C1690 1.386 . S
C1691 C1695 1.393 . S
C1692 H1681 0.950 . S
C1692 C1690 1.391 . S
C1692 C1693 1.400 . S
C1693 C1687 1.491 . S
C1693 C1692 1.400 . S
C1693 C1694 1.398 . S
C1694 H1682 0.950 . S
C1694 C1693 1.398 . S
C1694 C1695 1.391 . S
C1695 H1683 0.950 . S
C1695 C1691 1.393 . S
C1695 C1694 1.391 . S
H1696 C1704 0.950 . S
H1697 C1709 0.950 . S
H1698 C1706 0.950 . S
H1699 C1708 0.950 . S
H1700 C1710 0.950 . S
H1701 C1712 0.950 . S
H1702 C1714 0.950 . S
H1703 C1715 0.950 . S
C1704 H1696 0.950 . S
C1704 C1705 1.386 . S
C1704 C1706 1.391 . S
C1705 C1704 1.386 . S
C1705 C1709 1.393 . S
C1706 H1698 0.950 . S
C1706 C1704 1.391 . S
C1706 C1707 1.400 . S
C1707 C1706 1.400 . S
C1707 C1708 1.398 . S
C1707 C1713 1.491 . S
C1708 H1699 0.950 . S
C1708 C1707 1.398 . S
C1708 C1709 1.391 . S
C1709 H1697 0.950 . S
C1709 C1705 1.393 . S
C1709 C1708 1.391 . S
C1710 H1700 0.950 . S
C1710 C1711 1.386 . S
C1710 C1712 1.391 . S
C1711 C1710 1.386 . S
C1711 C1715 1.393 . S
C1712 H1701 0.950 . S
C1712 C1710 1.391 . S
C1712 C1713 1.400 . S
C1713 C1707 1.491 . S
C1713 C1712 1.400 . S
C1713 C1714 1.398 . S
C1714 H1702 0.950 . S
C1714 C1713 1.398 . S
C1714 C1715 1.391 . S
C1715 H1703 0.950 . S
C1715 C1711 1.393 . S
C1715 C1714 1.391 . S
H1716 C1724 0.950 . S
H1717 C1729 0.950 . S
H1718 C1726 0.950 . S
H1719 C1728 0.950 . S
H1720 C1730 0.950 . S
H1721 C1732 0.950 . S
H1722 C1734 0.950 . S
H1723 C1735 0.950 . S
C1724 H1716 0.950 . S
C1724 C1725 1.386 . S
C1724 C1726 1.391 . S
C1725 C1724 1.386 . S
C1725 C1729 1.393 . S
C1726 H1718 0.950 . S
C1726 C1724 1.391 . S
C1726 C1727 1.400 . S
C1727 C1726 1.400 . S
C1727 C1728 1.398 . S
C1727 C1733 1.491 . S
C1728 H1719 0.950 . S
C1728 C1727 1.398 . S
C1728 C1729 1.391 . S
C1729 H1717 0.950 . S
C1729 C1725 1.393 . S
C1729 C1728 1.391 . S
C1730 H1720 0.950 . S
C1730 C1731 1.386 . S
C1730 C1732 1.391 . S
C1731 C1730 1.386 . S
C1731 C1735 1.393 . S
C1732 H1721 0.950 . S
C1732 C1730 1.391 . S
C1732 C1733 1.400 . S
C1733 C1727 1.491 . S
C1733 C1732 1.400 . S
C1733 C1734 1.398 . S
C1734 H1722 0.950 . S
C1734 C1733 1.398 . S
C1734 C1735 1.391 . S
C1735 H1723 0.950 . S
C1735 C1731 1.393 . S
C1735 C1734 1.391 . S
H1736 C1744 0.950 1_655 S
H1737 C1749 0.950 . S
H1738 C1746 0.950 . S
H1739 C1748 0.950 . S
H1740 C1750 0.950 . S
H1741 C1752 0.950 . S
H1742 C1754 0.950 . S
H1743 C1755 0.950 . S
C1744 H1736 0.950 1_455 S
C1744 C1745 1.386 . S
C1744 C1746 1.391 . S
C1745 C1744 1.386 . S
C1745 C1749 1.393 . S
C1746 H1738 0.950 . S
C1746 C1744 1.391 . S
C1746 C1747 1.400 . S
C1747 C1746 1.400 . S
C1747 C1748 1.398 . S
C1747 C1753 1.491 . S
C1748 H1739 0.950 . S
C1748 C1747 1.398 . S
C1748 C1749 1.391 . S
C1749 H1737 0.950 . S
C1749 C1745 1.393 . S
C1749 C1748 1.391 . S
C1750 H1740 0.950 . S
C1750 C1751 1.386 . S
C1750 C1752 1.391 . S
C1751 C1750 1.386 . S
C1751 C1755 1.393 . S
C1752 H1741 0.950 . S
C1752 C1750 1.391 . S
C1752 C1753 1.400 . S
C1753 C1747 1.491 . S
C1753 C1752 1.400 . S
C1753 C1754 1.398 . S
C1754 H1742 0.950 . S
C1754 C1753 1.398 . S
C1754 C1755 1.391 . S
C1755 H1743 0.950 . S
C1755 C1751 1.393 . S
C1755 C1754 1.391 . S
H1756 C1764 0.950 . S
H1757 C1769 0.950 . S
H1758 C1766 0.950 . S
H1759 C1768 0.950 . S
H1760 C1770 0.950 . S
H1761 C1772 0.950 . S
H1762 C1774 0.950 . S
H1763 C1775 0.950 . S
C1764 H1756 0.950 . S
C1764 C1765 1.386 . S
C1764 C1766 1.391 . S
C1765 C1764 1.386 . S
C1765 C1769 1.393 . S
C1766 H1758 0.950 . S
C1766 C1764 1.391 . S
C1766 C1767 1.400 . S
C1767 C1766 1.400 . S
C1767 C1768 1.398 . S
C1767 C1773 1.491 . S
C1768 H1759 0.950 . S
C1768 C1767 1.398 . S
C1768 C1769 1.391 . S
C1769 H1757 0.950 . S
C1769 C1765 1.393 . S
C1769 C1768 1.391 . S
C1770 H1760 0.950 . S
C1770 C1771 1.386 . S
C1770 C1772 1.391 . S
C1771 C1770 1.386 . S
C1771 C1775 1.393 . S
C1772 H1761 0.950 . S
C1772 C1770 1.391 . S
C1772 C1773 1.400 . S
C1773 C1767 1.491 . S
C1773 C1772 1.400 . S
C1773 C1774 1.398 . S
C1774 H1762 0.950 . S
C1774 C1773 1.398 . S
C1774 C1775 1.391 . S
C1775 H1763 0.950 . S
C1775 C1771 1.393 . S
C1775 C1774 1.391 . S
H1776 C1784 0.950 . S
H1777 C1789 0.950 . S
H1778 C1786 0.950 . S
H1779 C1788 0.950 . S
H1780 C1790 0.950 . S
H1781 C1792 0.950 . S
H1782 C1794 0.950 . S
H1783 C1795 0.950 . S
C1784 H1776 0.950 . S
C1784 C1785 1.386 . S
C1784 C1786 1.391 . S
C1785 C1784 1.386 . S
C1785 C1789 1.393 . S
C1786 H1778 0.950 . S
C1786 C1784 1.391 . S
C1786 C1787 1.400 . S
C1787 C1786 1.400 . S
C1787 C1788 1.398 . S
C1787 C1793 1.491 . S
C1788 H1779 0.950 . S
C1788 C1787 1.398 . S
C1788 C1789 1.391 . S
C1789 H1777 0.950 . S
C1789 C1785 1.393 . S
C1789 C1788 1.391 . S
C1790 H1780 0.950 . S
C1790 C1791 1.386 . S
C1790 C1792 1.391 . S
C1791 C1790 1.386 . S
C1791 C1795 1.393 . S
C1792 H1781 0.950 . S
C1792 C1790 1.391 . S
C1792 C1793 1.400 . S
C1793 C1787 1.491 . S
C1793 C1792 1.400 . S
C1793 C1794 1.398 . S
C1794 H1782 0.950 . S
C1794 C1793 1.398 . S
C1794 C1795 1.391 . S
C1795 H1783 0.950 . S
C1795 C1791 1.393 . S
C1795 C1794 1.391 . S
H1796 C1804 0.950 . S
H1797 C1809 0.950 . S
H1798 C1806 0.950 . S
H1799 C1808 0.950 . S
H1800 C1810 0.950 . S
H1801 C1812 0.950 . S
H1802 C1814 0.950 . S
H1803 C1815 0.950 . S
C1804 H1796 0.950 . S
C1804 C1805 1.386 . S
C1804 C1806 1.391 . S
C1805 C1804 1.386 . S
C1805 C1809 1.393 . S
C1806 H1798 0.950 . S
C1806 C1804 1.391 . S
C1806 C1807 1.400 . S
C1807 C1806 1.400 . S
C1807 C1808 1.398 . S
C1807 C1813 1.491 . S
C1808 H1799 0.950 . S
C1808 C1807 1.398 . S
C1808 C1809 1.391 . S
C1809 H1797 0.950 . S
C1809 C1805 1.393 . S
C1809 C1808 1.391 . S
C1810 H1800 0.950 . S
C1810 C1811 1.386 . S
C1810 C1812 1.391 . S
C1811 C1810 1.386 . S
C1811 C1815 1.393 . S
C1812 H1801 0.950 . S
C1812 C1810 1.391 . S
C1812 C1813 1.400 . S
C1813 C1807 1.491 . S
C1813 C1812 1.400 . S
C1813 C1814 1.398 . S
C1814 H1802 0.950 . S
C1814 C1813 1.398 . S
C1814 C1815 1.391 . S
C1815 H1803 0.950 . S
C1815 C1811 1.393 . S
C1815 C1814 1.391 . S
H1816 C1824 0.950 1_455 S
H1817 C1829 0.950 . S
H1818 C1826 0.950 . S
H1819 C1828 0.950 . S
H1820 C1830 0.950 . S
H1821 C1832 0.950 1_655 S
H1822 C1834 0.950 . S
H1823 C1835 0.950 . S
C1824 H1816 0.950 1_655 S
C1824 C1825 1.386 . S
C1824 C1826 1.391 1_655 S
C1825 C1824 1.386 . S
C1825 C1829 1.393 . S
C1826 H1818 0.950 . S
C1826 C1824 1.391 1_455 S
C1826 C1827 1.392 1_455 S
C1827 C1826 1.392 1_655 S
C1827 C1828 1.422 . S
C1827 C1833 1.476 1_655 S
C1828 H1819 0.950 . S
C1828 C1827 1.422 . S
C1828 C1829 1.391 . S
C1829 H1817 0.950 . S
C1829 C1825 1.393 . S
C1829 C1828 1.391 . S
C1830 H1820 0.950 . S
C1830 C1831 1.386 . S
C1830 C1832 1.391 . S
C1831 C1830 1.386 . S
C1831 C1835 1.393 . S
C1832 H1821 0.950 1_455 S
C1832 C1830 1.391 . S
C1832 C1833 1.400 . S
C1833 C1827 1.476 1_455 S
C1833 C1832 1.400 . S
C1833 C1834 1.398 . S
C1834 H1822 0.950 . S
C1834 C1833 1.398 . S
C1834 C1835 1.391 . S
C1835 H1823 0.950 . S
C1835 C1831 1.393 . S
C1835 C1834 1.391 . S
H1836 C1844 0.950 . S
H1837 C1849 0.950 . S
H1838 C1846 0.950 . S
H1839 C1848 0.950 . S
H1840 C1850 0.950 . S
H1841 C1852 0.950 . S
H1842 C1854 0.950 . S
H1843 C1855 0.950 . S
C1844 H1836 0.950 . S
C1844 C1845 1.386 . S
C1844 C1846 1.391 . S
C1845 C1844 1.386 . S
C1845 C1849 1.393 . S
C1846 H1838 0.950 . S
C1846 C1844 1.391 . S
C1846 C1847 1.400 . S
C1847 C1846 1.400 . S
C1847 C1848 1.398 . S
C1847 C1853 1.491 . S
C1848 H1839 0.950 . S
C1848 C1847 1.398 . S
C1848 C1849 1.391 . S
C1849 H1837 0.950 . S
C1849 C1845 1.393 . S
C1849 C1848 1.391 . S
C1850 H1840 0.950 . S
C1850 C1851 1.386 . S
C1850 C1852 1.391 . S
C1851 C1850 1.386 . S
C1851 C1855 1.393 . S
C1852 H1841 0.950 . S
C1852 C1850 1.391 . S
C1852 C1853 1.400 . S
C1853 C1847 1.491 . S
C1853 C1852 1.400 . S
C1853 C1854 1.398 . S
C1854 H1842 0.950 . S
C1854 C1853 1.398 . S
C1854 C1855 1.391 . S
C1855 H1843 0.950 . S
C1855 C1851 1.393 . S
C1855 C1854 1.391 . S
H1856 C1864 0.950 . S
H1857 C1869 0.950 1_565 S
H1858 C1866 0.950 . S
H1859 C1868 0.950 1_565 S
H1860 C1870 0.950 . S
H1861 C1872 0.950 1_565 S
H1862 C1874 0.950 . S
H1863 C1875 0.950 . S
C1864 H1856 0.950 . S
C1864 C1865 1.386 . S
C1864 C1866 1.391 . S
C1865 C1864 1.386 . S
C1865 C1869 1.393 . S
C1866 H1858 0.950 . S
C1866 C1864 1.391 . S
C1866 C1867 1.400 . S
C1867 C1866 1.400 . S
C1867 C1868 1.398 . S
C1867 C1873 1.491 . S
C1868 H1859 0.950 1_545 S
C1868 C1867 1.398 . S
C1868 C1869 1.391 . S
C1869 H1857 0.950 1_545 S
C1869 C1865 1.393 . S
C1869 C1868 1.391 . S
C1870 H1860 0.950 . S
C1870 C1871 1.386 1_565 S
C1870 C1872 1.391 1_565 S
C1871 C1870 1.386 1_545 S
C1871 C1875 1.393 . S
C1872 H1861 0.950 1_545 S
C1872 C1870 1.391 1_545 S
C1872 C1873 1.400 . S
C1873 C1867 1.491 . S
C1873 C1872 1.400 . S
C1873 C1874 1.398 . S
C1874 H1862 0.950 . S
C1874 C1873 1.398 . S
C1874 C1875 1.391 . S
C1875 H1863 0.950 . S
C1875 C1871 1.393 . S
C1875 C1874 1.391 . S
H1876 C1884 0.950 . S
H1877 C1889 0.950 . S
H1878 C1886 0.950 . S
H1879 C1888 0.950 . S
H1880 C1890 0.950 . S
H1881 C1892 0.950 . S
H1882 C1894 0.950 . S
H1883 C1895 0.950 . S
C1884 H1876 0.950 . S
C1884 C1885 1.386 . S
C1884 C1886 1.391 . S
C1885 C1884 1.386 . S
C1885 C1889 1.393 . S
C1886 H1878 0.950 . S
C1886 C1884 1.391 . S
C1886 C1887 1.400 . S
C1887 C1886 1.400 . S
C1887 C1888 1.398 . S
C1887 C1893 1.491 . S
C1888 H1879 0.950 . S
C1888 C1887 1.398 . S
C1888 C1889 1.391 . S
C1889 H1877 0.950 . S
C1889 C1885 1.393 . S
C1889 C1888 1.391 . S
C1890 H1880 0.950 . S
C1890 C1891 1.386 . S
C1890 C1892 1.391 . S
C1891 C1890 1.386 . S
C1891 C1895 1.393 . S
C1892 H1881 0.950 . S
C1892 C1890 1.391 . S
C1892 C1893 1.400 . S
C1893 C1887 1.491 . S
C1893 C1892 1.400 . S
C1893 C1894 1.398 . S
C1894 H1882 0.950 . S
C1894 C1893 1.398 . S
C1894 C1895 1.391 . S
C1895 H1883 0.950 . S
C1895 C1891 1.393 . S
C1895 C1894 1.391 . S
H1896 C1904 0.976 . S
H1897 C1909 0.950 . S
H1898 C1906 0.950 . S
H1899 C1908 0.950 . S
H1900 C1910 0.950 . S
H1901 C1912 0.950 1_655 S
H1902 C1914 0.950 . S
H1903 C1915 0.950 . S
C1904 H1896 0.976 . S
C1904 C1905 1.330 1_455 S
C1904 C1906 1.423 . S
C1905 C1904 1.330 1_655 S
C1905 C1909 1.393 . S
C1906 H1898 0.950 . S
C1906 C1904 1.423 . S
C1906 C1907 1.400 . S
C1907 C1906 1.400 . S
C1907 C1908 1.398 1_455 S
C1907 C1913 1.491 . S
C1908 H1899 0.950 . S
C1908 C1907 1.398 1_655 S
C1908 C1909 1.391 . S
C1909 H1897 0.950 . S
C1909 C1905 1.393 . S
C1909 C1908 1.391 . S
C1910 H1900 0.950 . S
C1910 C1911 1.386 . S
C1910 C1912 1.391 . S
C1911 C1910 1.386 . S
C1911 C1915 1.393 . S
C1912 H1901 0.950 1_455 S
C1912 C1910 1.391 . S
C1912 C1913 1.400 . S
C1913 C1907 1.491 . S
C1913 C1912 1.400 . S
C1913 C1914 1.398 . S
C1914 H1902 0.950 . S
C1914 C1913 1.398 . S
C1914 C1915 1.391 . S
C1915 H1903 0.950 . S
C1915 C1911 1.393 . S
C1915 C1914 1.391 . S
H1916 C1924 0.950 . S
H1917 C1929 0.950 . S
H1918 C1926 0.950 . S
H1919 C1928 0.950 . S
H1920 C1930 0.950 . S
H1921 C1932 0.950 . S
H1922 C1934 0.950 . S
H1923 C1935 0.950 . S
C1924 H1916 0.950 . S
C1924 C1925 1.386 . S
C1924 C1926 1.391 . S
C1925 C1924 1.386 . S
C1925 C1929 1.393 . S
C1926 H1918 0.950 . S
C1926 C1924 1.391 . S
C1926 C1927 1.400 . S
C1927 C1926 1.400 . S
C1927 C1928 1.398 . S
C1927 C1933 1.491 . S
C1928 H1919 0.950 . S
C1928 C1927 1.398 . S
C1928 C1929 1.391 . S
C1929 H1917 0.950 . S
C1929 C1925 1.393 . S
C1929 C1928 1.391 . S
C1930 H1920 0.950 . S
C1930 C1931 1.386 . S
C1930 C1932 1.391 . S
C1931 C1930 1.386 . S
C1931 C1935 1.393 . S
C1932 H1921 0.950 . S
C1932 C1930 1.391 . S
C1932 C1933 1.400 . S
C1933 C1927 1.491 . S
C1933 C1932 1.400 . S
C1933 C1934 1.398 . S
C1934 H1922 0.950 . S
C1934 C1933 1.398 . S
C1934 C1935 1.391 . S
C1935 H1923 0.950 . S
C1935 C1931 1.393 . S
C1935 C1934 1.391 . S
H1936 C1944 0.950 . S
H1937 C1949 0.950 . S
H1938 C1946 0.950 . S
H1939 C1948 0.950 . S
H1940 C1950 0.950 . S
H1941 C1952 0.950 . S
H1942 C1954 0.950 . S
H1943 C1955 0.950 . S
C1944 H1936 0.950 . S
C1944 C1945 1.386 . S
C1944 C1946 1.391 . S
C1945 C1944 1.386 . S
C1945 C1949 1.393 . S
C1946 H1938 0.950 . S
C1946 C1944 1.391 . S
C1946 C1947 1.400 . S
C1947 C1946 1.400 . S
C1947 C1948 1.398 . S
C1947 C1953 1.491 . S
C1948 H1939 0.950 . S
C1948 C1947 1.398 . S
C1948 C1949 1.391 . S
C1949 H1937 0.950 . S
C1949 C1945 1.393 . S
C1949 C1948 1.391 . S
C1950 H1940 0.950 . S
C1950 C1951 1.386 . S
C1950 C1952 1.391 . S
C1951 C1950 1.386 . S
C1951 C1955 1.393 . S
C1952 H1941 0.950 . S
C1952 C1950 1.391 . S
C1952 C1953 1.400 . S
C1953 C1947 1.491 . S
C1953 C1952 1.400 . S
C1953 C1954 1.398 . S
C1954 H1942 0.950 . S
C1954 C1953 1.398 . S
C1954 C1955 1.391 . S
C1955 H1943 0.950 . S
C1955 C1951 1.393 . S
C1955 C1954 1.391 . S
H1956 C1964 0.950 . S
H1957 C1969 0.950 . S
H1958 C1966 0.950 . S
H1959 C1968 0.950 . S
H1960 C1970 0.950 . S
H1961 C1972 0.950 . S
H1962 C1974 0.950 . S
H1963 C1975 0.950 . S
C1964 H1956 0.950 . S
C1964 C1965 1.386 . S
C1964 C1966 1.391 . S
C1965 C1964 1.386 . S
C1965 C1969 1.393 . S
C1966 H1958 0.950 . S
C1966 C1964 1.391 . S
C1966 C1967 1.400 . S
C1967 C1966 1.400 . S
C1967 C1968 1.398 . S
C1967 C1973 1.491 . S
C1968 H1959 0.950 . S
C1968 C1967 1.398 . S
C1968 C1969 1.391 . S
C1969 H1957 0.950 . S
C1969 C1965 1.393 . S
C1969 C1968 1.391 . S
C1970 H1960 0.950 . S
C1970 C1971 1.386 . S
C1970 C1972 1.391 . S
C1971 C1970 1.386 . S
C1971 C1975 1.393 . S
C1972 H1961 0.950 . S
C1972 C1970 1.391 . S
C1972 C1973 1.400 . S
C1973 C1967 1.491 . S
C1973 C1972 1.400 . S
C1973 C1974 1.398 . S
C1974 H1962 0.950 . S
C1974 C1973 1.398 . S
C1974 C1975 1.391 . S
C1975 H1963 0.950 . S
C1975 C1971 1.393 . S
C1975 C1974 1.391 . S
H1976 C1984 0.950 . S
H1977 C1989 0.950 1_556 S
H1978 C1986 0.950 . S
H1979 C1988 0.950 1_556 S
H1980 C1990 0.950 . S
H1981 C1992 0.953 1_556 S
H1982 C1994 0.950 . S
H1983 C1995 0.950 . S
C1984 H1976 0.950 . S
C1984 C1985 1.386 . S
C1984 C1986 1.391 . S
C1985 C1984 1.386 . S
C1985 C1989 1.393 . S
C1986 H1978 0.950 . S
C1986 C1984 1.391 . S
C1986 C1987 1.400 . S
C1987 C1986 1.400 . S
C1987 C1988 1.398 . S
C1987 C1993 1.491 . S
C1988 H1979 0.950 1_554 S
C1988 C1987 1.398 . S
C1988 C1989 1.391 . S
C1989 H1977 0.950 1_554 S
C1989 C1985 1.393 . S
C1989 C1988 1.391 . S
C1990 H1980 0.950 . S
C1990 C1991 1.386 . S
C1990 C1992 1.376 1_545 S
C1991 C1990 1.386 . S
C1991 C1995 1.393 . S
C1992 H1981 0.953 1_554 S
C1992 C1990 1.376 1_565 S
C1992 C1993 1.415 . S
C1993 C1987 1.491 . S
C1993 C1992 1.415 . S
C1993 C1994 1.398 . S
C1994 H1982 0.950 . S
C1994 C1993 1.398 . S
C1994 C1995 1.391 1_565 S
C1995 H1983 0.950 . S
C1995 C1991 1.393 . S
C1995 C1994 1.391 1_545 S
H1996 C2004 0.950 . S
H1997 C2009 0.950 . S
H1998 C2006 0.950 . S
H1999 C2008 0.950 . S
H2000 C2010 0.950 . S
H2001 C2012 0.950 . S
H2002 C2014 0.950 . S
H2003 C2015 0.950 . S
C2004 H1996 0.950 . S
C2004 C2005 1.386 . S
C2004 C2006 1.391 . S
C2005 C2004 1.386 . S
C2005 C2009 1.393 1_556 S
C2006 H1998 0.950 . S
C2006 C2004 1.391 . S
C2006 C2007 1.400 . S
C2007 C2006 1.400 . S
C2007 C2008 1.398 1_556 S
C2007 C2013 1.491 . S
C2008 H1999 0.950 . S
C2008 C2007 1.398 1_554 S
C2008 C2009 1.391 . S
C2009 H1997 0.950 . S
C2009 C2005 1.393 1_554 S
C2009 C2008 1.391 . S
C2010 H2000 0.950 . S
C2010 C2011 1.386 1_554 S
C2010 C2012 1.391 . S
C2011 C2010 1.386 1_556 S
C2011 C2015 1.393 . S
C2012 H2001 0.950 . S
C2012 C2010 1.391 . S
C2012 C2013 1.400 1_554 S
C2013 C2007 1.491 . S
C2013 C2012 1.400 1_556 S
C2013 C2014 1.398 . S
C2014 H2002 0.950 . S
C2014 C2013 1.398 . S
C2014 C2015 1.391 . S
C2015 H2003 0.950 . S
C2015 C2011 1.393 . S
C2015 C2014 1.391 . S
H2016 C2024 0.950 . S
H2017 C2029 0.950 . S
H2018 C2026 0.950 . S
H2019 C2028 0.950 . S
H2020 C2030 0.950 . S
H2021 C2032 0.950 . S
H2022 C2034 0.950 . S
H2023 C2035 0.950 . S
C2024 H2016 0.950 . S
C2024 C2025 1.386 . S
C2024 C2026 1.391 . S
C2025 C2024 1.386 . S
C2025 C2029 1.393 . S
C2026 H2018 0.950 . S
C2026 C2024 1.391 . S
C2026 C2027 1.400 . S
C2027 C2026 1.400 . S
C2027 C2028 1.398 . S
C2027 C2033 1.491 . S
C2028 H2019 0.950 . S
C2028 C2027 1.398 . S
C2028 C2029 1.391 . S
C2029 H2017 0.950 . S
C2029 C2025 1.393 . S
C2029 C2028 1.391 . S
C2030 H2020 0.950 . S
C2030 C2031 1.386 . S
C2030 C2032 1.391 . S
C2031 C2030 1.386 . S
C2031 C2035 1.393 . S
C2032 H2021 0.950 . S
C2032 C2030 1.391 . S
C2032 C2033 1.400 . S
C2033 C2027 1.491 . S
C2033 C2032 1.400 . S
C2033 C2034 1.398 . S
C2034 H2022 0.950 . S
C2034 C2033 1.398 . S
C2034 C2035 1.391 . S
C2035 H2023 0.950 . S
C2035 C2031 1.393 . S
C2035 C2034 1.391 . S
H2036 C2044 0.950 . S
H2037 C2049 0.950 . S
H2038 C2046 0.950 . S
H2039 C2048 0.950 . S
H2040 C2050 0.950 . S
H2041 C2052 0.950 . S
H2042 C2054 0.950 . S
H2043 C2055 0.950 1_455 S
C2044 H2036 0.950 . S
C2044 C2045 1.386 . S
C2044 C2046 1.391 . S
C2045 C2044 1.386 . S
C2045 C2049 1.393 . S
C2046 H2038 0.950 . S
C2046 C2044 1.391 . S
C2046 C2047 1.400 . S
C2047 C2046 1.400 . S
C2047 C2048 1.398 . S
C2047 C2053 1.491 . S
C2048 H2039 0.950 . S
C2048 C2047 1.398 . S
C2048 C2049 1.391 . S
C2049 H2037 0.950 . S
C2049 C2045 1.393 . S
C2049 C2048 1.391 . S
C2050 H2040 0.950 . S
C2050 C2051 1.386 . S
C2050 C2052 1.391 . S
C2051 C2050 1.386 . S
C2051 C2055 1.393 . S
C2052 H2041 0.950 . S
C2052 C2050 1.391 . S
C2052 C2053 1.400 . S
C2053 C2047 1.491 . S
C2053 C2052 1.400 . S
C2053 C2054 1.398 . S
C2054 H2042 0.950 . S
C2054 C2053 1.398 . S
C2054 C2055 1.391 . S
C2055 H2043 0.950 1_655 S
C2055 C2051 1.393 . S
C2055 C2054 1.391 . S
H2056 C2064 0.950 . S
H2057 C2069 0.950 . S
H2058 C2066 0.950 . S
H2059 C2068 0.950 . S
H2060 C2070 0.950 . S
H2061 C2072 0.950 . S
H2062 C2074 0.950 . S
H2063 C2075 0.950 . S
C2064 H2056 0.950 . S
C2064 C2065 1.386 . S
C2064 C2066 1.391 . S
C2065 C2064 1.386 . S
C2065 C2069 1.393 . S
C2066 H2058 0.950 . S
C2066 C2064 1.391 . S
C2066 C2067 1.400 . S
C2067 C2066 1.400 . S
C2067 C2068 1.398 . S
C2067 C2073 1.491 . S
C2068 H2059 0.950 . S
C2068 C2067 1.398 . S
C2068 C2069 1.391 . S
C2069 H2057 0.950 . S
C2069 C2065 1.393 . S
C2069 C2068 1.391 . S
C2070 H2060 0.950 . S
C2070 C2071 1.386 . S
C2070 C2072 1.391 . S
C2071 C2070 1.386 . S
C2071 C2075 1.393 . S
C2072 H2061 0.950 . S
C2072 C2070 1.391 . S
C2072 C2073 1.400 . S
C2073 C2067 1.491 . S
C2073 C2072 1.400 . S
C2073 C2074 1.398 . S
C2074 H2062 0.950 . S
C2074 C2073 1.398 . S
C2074 C2075 1.391 . S
C2075 H2063 0.950 . S
C2075 C2071 1.393 . S
C2075 C2074 1.391 . S
H2076 C2084 0.950 . S
H2077 C2089 0.950 . S
H2078 C2086 0.950 . S
H2079 C2088 0.950 . S
H2080 C2090 0.950 . S
H2081 C2092 0.950 . S
H2082 C2094 0.950 . S
H2083 C2095 0.950 . S
C2084 H2076 0.950 . S
C2084 C2085 1.386 . S
C2084 C2086 1.391 . S
C2085 C2084 1.386 . S
C2085 C2089 1.393 . S
C2086 H2078 0.950 . S
C2086 C2084 1.391 . S
C2086 C2087 1.400 . S
C2087 C2086 1.400 . S
C2087 C2088 1.398 . S
C2087 C2093 1.491 . S
C2088 H2079 0.950 . S
C2088 C2087 1.398 . S
C2088 C2089 1.391 . S
C2089 H2077 0.950 . S
C2089 C2085 1.393 . S
C2089 C2088 1.391 . S
C2090 H2080 0.950 . S
C2090 C2091 1.386 . S
C2090 C2092 1.391 . S
C2091 C2090 1.386 . S
C2091 C2095 1.393 . S
C2092 H2081 0.950 . S
C2092 C2090 1.391 . S
C2092 C2093 1.400 . S
C2093 C2087 1.491 . S
C2093 C2092 1.400 . S
C2093 C2094 1.398 . S
C2094 H2082 0.950 . S
C2094 C2093 1.398 . S
C2094 C2095 1.391 . S
C2095 H2083 0.950 . S
C2095 C2091 1.393 . S
C2095 C2094 1.391 . S
H2096 C2104 0.950 . S
H2097 C2109 0.950 . S
H2098 C2106 0.950 . S
H2099 C2108 0.950 . S
H2100 C2110 0.950 . S
H2101 C2112 0.950 . S
H2102 C2114 0.950 . S
H2103 C2115 0.950 . S
C2104 H2096 0.950 . S
C2104 C2105 1.386 . S
C2104 C2106 1.391 . S
C2105 C2104 1.386 . S
C2105 C2109 1.393 . S
C2106 H2098 0.950 . S
C2106 C2104 1.391 . S
C2106 C2107 1.400 . S
C2107 C2106 1.400 . S
C2107 C2108 1.398 . S
C2107 C2113 1.491 . S
C2108 H2099 0.950 . S
C2108 C2107 1.398 . S
C2108 C2109 1.391 . S
C2109 H2097 0.950 . S
C2109 C2105 1.393 . S
C2109 C2108 1.391 . S
C2110 H2100 0.950 . S
C2110 C2111 1.386 . S
C2110 C2112 1.391 . S
C2111 C2110 1.386 . S
C2111 C2115 1.393 . S
C2112 H2101 0.950 . S
C2112 C2110 1.391 . S
C2112 C2113 1.400 . S
C2113 C2107 1.491 . S
C2113 C2112 1.400 . S
C2113 C2114 1.398 . S
C2114 H2102 0.950 . S
C2114 C2113 1.398 . S
C2114 C2115 1.391 . S
C2115 H2103 0.950 . S
C2115 C2111 1.393 . S
C2115 C2114 1.391 . S
H2116 C2124 0.950 . S
H2117 C2129 0.950 . S
H2118 C2126 0.950 . S
H2119 C2128 0.950 . S
H2120 C2130 0.950 . S
H2121 C2132 0.950 . S
H2122 C2134 0.950 . S
H2123 C2135 0.950 . S
C2124 H2116 0.950 . S
C2124 C2125 1.386 . S
C2124 C2126 1.391 . S
C2125 C2124 1.386 . S
C2125 C2129 1.393 . S
C2126 H2118 0.950 . S
C2126 C2124 1.391 . S
C2126 C2127 1.400 . S
C2127 C2126 1.400 . S
C2127 C2128 1.398 . S
C2127 C2133 1.491 . S
C2128 H2119 0.950 . S
C2128 C2127 1.398 . S
C2128 C2129 1.391 . S
C2129 H2117 0.950 . S
C2129 C2125 1.393 . S
C2129 C2128 1.391 . S
C2130 H2120 0.950 . S
C2130 C2131 1.386 . S
C2130 C2132 1.391 . S
C2131 C2130 1.386 . S
C2131 C2135 1.393 . S
C2132 H2121 0.950 . S
C2132 C2130 1.391 . S
C2132 C2133 1.400 . S
C2133 C2127 1.491 . S
C2133 C2132 1.400 . S
C2133 C2134 1.398 . S
C2134 H2122 0.950 . S
C2134 C2133 1.398 . S
C2134 C2135 1.391 . S
C2135 H2123 0.950 . S
C2135 C2131 1.393 . S
C2135 C2134 1.391 . S
H2136 C2144 0.950 . S
H2137 C2149 0.950 . S
H2138 C2146 0.950 . S
H2139 C2148 0.950 . S
H2140 C2150 0.950 . S
H2141 C2152 0.950 . S
H2142 C2154 0.950 . S
H2143 C2155 0.950 . S
C2144 H2136 0.950 . S
C2144 C2145 1.386 . S
C2144 C2146 1.391 . S
C2145 C2144 1.386 . S
C2145 C2149 1.393 . S
C2146 H2138 0.950 . S
C2146 C2144 1.391 . S
C2146 C2147 1.400 . S
C2147 C2146 1.400 . S
C2147 C2148 1.398 . S
C2147 C2153 1.491 . S
C2148 H2139 0.950 . S
C2148 C2147 1.398 . S
C2148 C2149 1.391 . S
C2149 H2137 0.950 . S
C2149 C2145 1.393 . S
C2149 C2148 1.391 . S
C2150 H2140 0.950 . S
C2150 C2151 1.386 . S
C2150 C2152 1.391 . S
C2151 C2150 1.386 . S
C2151 C2155 1.393 . S
C2152 H2141 0.950 . S
C2152 C2150 1.391 . S
C2152 C2153 1.400 . S
C2153 C2147 1.491 . S
C2153 C2152 1.400 . S
C2153 C2154 1.398 . S
C2154 H2142 0.950 . S
C2154 C2153 1.398 . S
C2154 C2155 1.391 . S
C2155 H2143 0.950 . S
C2155 C2151 1.393 . S
C2155 C2154 1.391 . S
H2156 C2164 0.950 . S
H2157 C2169 0.950 . S
H2158 C2166 0.950 . S
H2159 C2168 0.950 . S
H2160 C2170 0.950 . S
H2161 C2172 0.950 . S
H2162 C2174 0.950 . S
H2163 C2175 0.950 . S
C2164 H2156 0.950 . S
C2164 C2165 1.386 . S
C2164 C2166 1.391 . S
C2165 C2164 1.386 . S
C2165 C2169 1.393 . S
C2166 H2158 0.950 . S
C2166 C2164 1.391 . S
C2166 C2167 1.400 . S
C2167 C2166 1.400 . S
C2167 C2168 1.398 . S
C2167 C2173 1.491 . S
C2168 H2159 0.950 . S
C2168 C2167 1.398 . S
C2168 C2169 1.391 . S
C2169 H2157 0.950 . S
C2169 C2165 1.393 . S
C2169 C2168 1.391 . S
C2170 H2160 0.950 . S
C2170 C2171 1.386 . S
C2170 C2172 1.391 . S
C2171 C2170 1.386 . S
C2171 C2175 1.393 . S
C2172 H2161 0.950 . S
C2172 C2170 1.391 . S
C2172 C2173 1.400 . S
C2173 C2167 1.491 . S
C2173 C2172 1.400 . S
C2173 C2174 1.398 . S
C2174 H2162 0.950 . S
C2174 C2173 1.398 . S
C2174 C2175 1.391 . S
C2175 H2163 0.950 . S
C2175 C2171 1.393 . S
C2175 C2174 1.391 . S
H2176 C2184 0.950 . S
H2177 C2189 0.950 . S
H2178 C2186 0.950 . S
H2179 C2188 0.950 . S
H2180 C2190 0.950 . S
H2181 C2192 0.950 . S
H2182 C2194 0.950 . S
H2183 C2195 0.950 . S
C2184 H2176 0.950 . S
C2184 C2185 1.386 . S
C2184 C2186 1.391 . S
C2185 C2184 1.386 . S
C2185 C2189 1.393 . S
C2186 H2178 0.950 . S
C2186 C2184 1.391 . S
C2186 C2187 1.400 . S
C2187 C2186 1.400 . S
C2187 C2188 1.398 . S
C2187 C2193 1.491 . S
C2188 H2179 0.950 . S
C2188 C2187 1.398 . S
C2188 C2189 1.391 . S
C2189 H2177 0.950 . S
C2189 C2185 1.393 . S
C2189 C2188 1.391 . S
C2190 H2180 0.950 . S
C2190 C2191 1.386 . S
C2190 C2192 1.391 . S
C2191 C2190 1.386 . S
C2191 C2195 1.393 . S
C2192 H2181 0.950 . S
C2192 C2190 1.391 . S
C2192 C2193 1.400 . S
C2193 C2187 1.491 . S
C2193 C2192 1.400 . S
C2193 C2194 1.398 . S
C2194 H2182 0.950 . S
C2194 C2193 1.398 . S
C2194 C2195 1.391 . S
C2195 H2183 0.950 . S
C2195 C2191 1.393 . S
C2195 C2194 1.391 . S
H2196 C2204 0.950 . S
H2197 C2209 0.950 . S
H2198 C2206 0.950 . S
H2199 C2208 0.950 . S
H2200 C2210 0.950 . S
H2201 C2212 0.950 . S
H2202 C2214 0.950 . S
H2203 C2215 0.950 . S
C2204 H2196 0.950 . S
C2204 C2205 1.386 . S
C2204 C2206 1.391 . S
C2205 C2204 1.386 . S
C2205 C2209 1.393 . S
C2206 H2198 0.950 . S
C2206 C2204 1.391 . S
C2206 C2207 1.400 . S
C2207 C2206 1.400 . S
C2207 C2208 1.398 . S
C2207 C2213 1.491 . S
C2208 H2199 0.950 . S
C2208 C2207 1.398 . S
C2208 C2209 1.391 . S
C2209 H2197 0.950 . S
C2209 C2205 1.393 . S
C2209 C2208 1.391 . S
C2210 H2200 0.950 . S
C2210 C2211 1.386 . S
C2210 C2212 1.391 . S
C2211 C2210 1.386 . S
C2211 C2215 1.393 . S
C2212 H2201 0.950 . S
C2212 C2210 1.391 . S
C2212 C2213 1.400 . S
C2213 C2207 1.491 . S
C2213 C2212 1.400 . S
C2213 C2214 1.398 . S
C2214 H2202 0.950 . S
C2214 C2213 1.398 . S
C2214 C2215 1.391 . S
C2215 H2203 0.950 . S
C2215 C2211 1.393 . S
C2215 C2214 1.391 . S
H2216 C2224 0.950 . S
H2217 C2229 0.950 . S
H2218 C2226 0.950 . S
H2219 C2228 0.950 . S
H2220 C2230 0.950 . S
H2221 C2232 0.950 . S
H2222 C2234 0.950 . S
H2223 C2235 0.950 . S
C2224 H2216 0.950 . S
C2224 C2225 1.386 . S
C2224 C2226 1.391 . S
C2225 C2224 1.386 . S
C2225 C2229 1.393 . S
C2226 H2218 0.950 . S
C2226 C2224 1.391 . S
C2226 C2227 1.400 . S
C2227 C2226 1.400 . S
C2227 C2228 1.398 . S
C2227 C2233 1.491 . S
C2228 H2219 0.950 . S
C2228 C2227 1.398 . S
C2228 C2229 1.391 . S
C2229 H2217 0.950 . S
C2229 C2225 1.393 . S
C2229 C2228 1.391 . S
C2230 H2220 0.950 . S
C2230 C2231 1.386 . S
C2230 C2232 1.391 . S
C2231 C2230 1.386 . S
C2231 C2235 1.393 . S
C2232 H2221 0.950 . S
C2232 C2230 1.391 . S
C2232 C2233 1.400 . S
C2233 C2227 1.491 . S
C2233 C2232 1.400 . S
C2233 C2234 1.398 . S
C2234 H2222 0.950 . S
C2234 C2233 1.398 . S
C2234 C2235 1.391 . S
C2235 H2223 0.950 . S
C2235 C2231 1.393 . S
C2235 C2234 1.391 . S
H2236 C2244 0.950 . S
H2237 C2249 0.950 . S
H2238 C2246 0.950 . S
H2239 C2248 0.950 . S
H2240 C2250 0.950 . S
H2241 C2252 0.950 . S
H2242 C2254 0.950 . S
H2243 C2255 0.950 . S
C2244 H2236 0.950 . S
C2244 C2245 1.386 . S
C2244 C2246 1.391 . S
C2245 C2244 1.386 . S
C2245 C2249 1.393 . S
C2246 H2238 0.950 . S
C2246 C2244 1.391 . S
C2246 C2247 1.400 . S
C2247 C2246 1.400 . S
C2247 C2248 1.398 . S
C2247 C2253 1.491 . S
C2248 H2239 0.950 . S
C2248 C2247 1.398 . S
C2248 C2249 1.391 . S
C2249 H2237 0.950 . S
C2249 C2245 1.393 . S
C2249 C2248 1.391 . S
C2250 H2240 0.950 . S
C2250 C2251 1.386 . S
C2250 C2252 1.391 . S
C2251 C2250 1.386 . S
C2251 C2255 1.393 . S
C2252 H2241 0.950 . S
C2252 C2250 1.391 . S
C2252 C2253 1.400 . S
C2253 C2247 1.491 . S
C2253 C2252 1.400 . S
C2253 C2254 1.398 . S
C2254 H2242 0.950 . S
C2254 C2253 1.398 . S
C2254 C2255 1.391 . S
C2255 H2243 0.950 . S
C2255 C2251 1.393 . S
C2255 C2254 1.391 . S
H2256 C2264 0.950 . S
H2257 C2269 0.950 . S
H2258 C2266 0.950 . S
H2259 C2268 0.950 . S
H2260 C2270 0.950 1_545 S
H2261 C2272 0.950 . S
H2262 C2274 0.950 . S
H2263 C2275 0.950 . S
C2264 H2256 0.950 . S
C2264 C2265 1.386 . S
C2264 C2266 1.391 . S
C2265 C2264 1.386 . S
C2265 C2269 1.393 . S
C2266 H2258 0.950 . S
C2266 C2264 1.391 . S
C2266 C2267 1.400 . S
C2267 C2266 1.400 . S
C2267 C2268 1.398 . S
C2267 C2273 1.491 . S
C2268 H2259 0.950 . S
C2268 C2267 1.398 . S
C2268 C2269 1.391 . S
C2269 H2257 0.950 . S
C2269 C2265 1.393 . S
C2269 C2268 1.391 . S
C2270 H2260 0.950 1_565 S
C2270 C2271 1.386 . S
C2270 C2272 1.391 . S
C2271 C2270 1.386 . S
C2271 C2275 1.393 . S
C2272 H2261 0.950 . S
C2272 C2270 1.391 . S
C2272 C2273 1.400 . S
C2273 C2267 1.491 . S
C2273 C2272 1.400 . S
C2273 C2274 1.398 . S
C2274 H2262 0.950 . S
C2274 C2273 1.398 . S
C2274 C2275 1.391 . S
C2275 H2263 0.950 . S
C2275 C2271 1.393 . S
C2275 C2274 1.391 . S
H2276 C2284 0.950 . S
H2277 C2289 0.950 . S
H2278 C2286 0.950 . S
H2279 C2288 0.950 . S
H2280 C2290 0.950 . S
H2281 C2292 0.950 . S
H2282 C2294 0.950 . S
H2283 C2295 0.950 . S
C2284 H2276 0.950 . S
C2284 C2285 1.386 . S
C2284 C2286 1.391 . S
C2285 C2284 1.386 . S
C2285 C2289 1.393 . S
C2286 H2278 0.950 . S
C2286 C2284 1.391 . S
C2286 C2287 1.400 . S
C2287 C2286 1.400 . S
C2287 C2288 1.398 . S
C2287 C2293 1.491 . S
C2288 H2279 0.950 . S
C2288 C2287 1.398 . S
C2288 C2289 1.391 . S
C2289 H2277 0.950 . S
C2289 C2285 1.393 . S
C2289 C2288 1.391 . S
C2290 H2280 0.950 . S
C2290 C2291 1.386 . S
C2290 C2292 1.391 . S
C2291 C2290 1.386 . S
C2291 C2295 1.393 . S
C2292 H2281 0.950 . S
C2292 C2290 1.391 . S
C2292 C2293 1.400 . S
C2293 C2287 1.491 . S
C2293 C2292 1.400 . S
C2293 C2294 1.398 . S
C2294 H2282 0.950 . S
C2294 C2293 1.398 . S
C2294 C2295 1.391 . S
C2295 H2283 0.950 . S
C2295 C2291 1.393 . S
C2295 C2294 1.391 . S
H2296 C2304 0.950 . S
H2297 C2309 0.950 . S
H2298 C2306 0.950 . S
H2299 C2308 0.950 . S
H2300 C2310 0.950 . S
H2301 C2312 0.950 . S
H2302 C2314 0.950 . S
H2303 C2315 0.975 . S
C2304 H2296 0.950 . S
C2304 C2305 1.386 1_565 S
C2304 C2306 1.391 . S
C2305 C2304 1.386 1_545 S
C2305 C2309 1.393 . S
C2306 H2298 0.950 . S
C2306 C2304 1.391 . S
C2306 C2307 1.400 1_565 S
C2307 C2306 1.400 1_545 S
C2307 C2308 1.398 . S
C2307 C2313 1.491 . S
C2308 H2299 0.950 . S
C2308 C2307 1.398 . S
C2308 C2309 1.391 . S
C2309 H2297 0.950 . S
C2309 C2305 1.393 . S
C2309 C2308 1.391 . S
C2310 H2300 0.950 . S
C2310 C2311 1.386 . S
C2310 C2312 1.391 . S
C2311 C2310 1.386 . S
C2311 C2315 1.367 1_545 S
C2312 H2301 0.950 . S
C2312 C2310 1.391 . S
C2312 C2313 1.400 . S
C2313 C2307 1.491 . S
C2313 C2312 1.400 . S
C2313 C2314 1.398 1_545 S
C2314 H2302 0.950 . S
C2314 C2313 1.398 1_565 S
C2314 C2315 1.391 . S
C2315 H2303 0.975 . S
C2315 C2311 1.367 1_565 S
C2315 C2314 1.391 . S
H2316 C2324 0.950 . S
H2317 C2329 0.950 . S
H2318 C2326 0.950 . S
H2319 C2328 0.950 . S
H2320 C2330 0.950 . S
H2321 C2332 0.950 . S
H2322 C2334 0.950 . S
H2323 C2335 0.950 . S
C2324 H2316 0.950 . S
C2324 C2325 1.386 . S
C2324 C2326 1.391 . S
C2325 C2324 1.386 . S
C2325 C2329 1.393 . S
C2326 H2318 0.950 . S
C2326 C2324 1.391 . S
C2326 C2327 1.400 . S
C2327 C2326 1.400 . S
C2327 C2328 1.398 . S
C2327 C2333 1.491 . S
C2328 H2319 0.950 . S
C2328 C2327 1.398 . S
C2328 C2329 1.391 . S
C2329 H2317 0.950 . S
C2329 C2325 1.393 . S
C2329 C2328 1.391 . S
C2330 H2320 0.950 . S
C2330 C2331 1.386 . S
C2330 C2332 1.391 . S
C2331 C2330 1.386 . S
C2331 C2335 1.393 . S
C2332 H2321 0.950 . S
C2332 C2330 1.391 . S
C2332 C2333 1.400 . S
C2333 C2327 1.491 . S
C2333 C2332 1.400 . S
C2333 C2334 1.398 . S
C2334 H2322 0.950 . S
C2334 C2333 1.398 . S
C2334 C2335 1.391 . S
C2335 H2323 0.950 . S
C2335 C2331 1.393 . S
C2335 C2334 1.391 . S
H2336 C2344 0.950 1_565 S
H2337 C2349 0.950 . S
H2338 C2346 0.950 1_565 S
H2339 C2348 0.950 . S
H2340 C2350 0.950 . S
H2341 C2352 0.950 . S
H2342 C2354 0.950 . S
H2343 C2355 0.950 . S
C2344 H2336 0.950 1_545 S
C2344 C2345 1.386 . S
C2344 C2346 1.391 . S
C2345 C2344 1.386 . S
C2345 C2349 1.393 . S
C2346 H2338 0.950 1_545 S
C2346 C2344 1.391 . S
C2346 C2347 1.400 . S
C2347 C2346 1.400 . S
C2347 C2348 1.398 . S
C2347 C2353 1.491 . S
C2348 H2339 0.950 . S
C2348 C2347 1.398 . S
C2348 C2349 1.391 . S
C2349 H2337 0.950 . S
C2349 C2345 1.393 . S
C2349 C2348 1.391 . S
C2350 H2340 0.950 . S
C2350 C2351 1.386 . S
C2350 C2352 1.391 . S
C2351 C2350 1.386 . S
C2351 C2355 1.393 . S
C2352 H2341 0.950 . S
C2352 C2350 1.391 . S
C2352 C2353 1.400 . S
C2353 C2347 1.491 . S
C2353 C2352 1.400 . S
C2353 C2354 1.398 . S
C2354 H2342 0.950 . S
C2354 C2353 1.398 . S
C2354 C2355 1.391 . S
C2355 H2343 0.950 . S
C2355 C2351 1.393 . S
C2355 C2354 1.391 . S
H2356 C2364 0.950 . S
H2357 C2369 0.950 . S
H2358 C2366 0.950 . S
H2359 C2368 0.950 . S
H2360 C2370 0.950 . S
H2361 C2372 0.950 . S
H2362 C2374 0.950 . S
H2363 C2375 0.950 . S
C2364 H2356 0.950 . S
C2364 C2365 1.386 . S
C2364 C2366 1.391 . S
C2365 C2364 1.386 . S
C2365 C2369 1.393 . S
C2366 H2358 0.950 . S
C2366 C2364 1.391 . S
C2366 C2367 1.400 . S
C2367 C2366 1.400 . S
C2367 C2368 1.398 . S
C2367 C2373 1.491 . S
C2368 H2359 0.950 . S
C2368 C2367 1.398 . S
C2368 C2369 1.391 . S
C2369 H2357 0.950 . S
C2369 C2365 1.393 . S
C2369 C2368 1.391 . S
C2370 H2360 0.950 . S
C2370 C2371 1.386 . S
C2370 C2372 1.391 . S
C2371 C2370 1.386 . S
C2371 C2375 1.393 . S
C2372 H2361 0.950 . S
C2372 C2370 1.391 . S
C2372 C2373 1.400 . S
C2373 C2367 1.491 . S
C2373 C2372 1.400 . S
C2373 C2374 1.398 . S
C2374 H2362 0.950 . S
C2374 C2373 1.398 . S
C2374 C2375 1.391 . S
C2375 H2363 0.950 . S
C2375 C2371 1.393 . S
C2375 C2374 1.391 . S
H2376 C2384 0.950 . S
H2377 C2389 0.949 1_545 S
H2378 C2386 0.950 . S
H2379 C2388 0.950 . S
H2380 C2390 0.950 . S
H2381 C2392 0.950 . S
H2382 C2394 0.950 1_565 S
H2383 C2395 0.950 . S
C2384 H2376 0.950 . S
C2384 C2385 1.386 . S
C2384 C2386 1.391 . S
C2385 C2384 1.386 . S
C2385 C2389 1.393 . S
C2386 H2378 0.950 . S
C2386 C2384 1.391 . S
C2386 C2387 1.410 . S
C2387 C2386 1.410 . S
C2387 C2388 1.398 1_565 S
C2387 C2393 1.482 1_565 S
C2388 H2379 0.950 . S
C2388 C2387 1.398 1_545 S
C2388 C2389 1.391 1_545 S
C2389 H2377 0.949 1_565 S
C2389 C2385 1.393 . S
C2389 C2388 1.391 1_565 S
C2390 H2380 0.950 . S
C2390 C2391 1.386 . S
C2390 C2392 1.391 . S
C2391 C2390 1.386 . S
C2391 C2395 1.393 . S
C2392 H2381 0.950 . S
C2392 C2390 1.391 . S
C2392 C2393 1.400 . S
C2393 C2387 1.482 1_545 S
C2393 C2392 1.400 . S
C2393 C2394 1.398 . S
C2394 H2382 0.950 1_545 S
C2394 C2393 1.398 . S
C2394 C2395 1.391 . S
C2395 H2383 0.950 . S
C2395 C2391 1.393 . S
C2395 C2394 1.391 . S
H2396 C2404 0.950 . S
H2397 C2409 0.950 . S
H2398 C2406 0.950 . S
H2399 C2408 0.950 . S
H2400 C2410 0.950 . S
H2401 C2412 0.950 . S
H2402 C2414 0.950 . S
H2403 C2415 0.950 . S
C2404 H2396 0.950 . S
C2404 C2405 1.386 . S
C2404 C2406 1.391 . S
C2405 C2404 1.386 . S
C2405 C2409 1.393 . S
C2406 H2398 0.950 . S
C2406 C2404 1.391 . S
C2406 C2407 1.400 . S
C2407 C2406 1.400 . S
C2407 C2408 1.398 . S
C2407 C2413 1.491 . S
C2408 H2399 0.950 . S
C2408 C2407 1.398 . S
C2408 C2409 1.391 . S
C2409 H2397 0.950 . S
C2409 C2405 1.393 . S
C2409 C2408 1.391 . S
C2410 H2400 0.950 . S
C2410 C2411 1.386 . S
C2410 C2412 1.391 . S
C2411 C2410 1.386 . S
C2411 C2415 1.393 . S
C2412 H2401 0.950 . S
C2412 C2410 1.391 . S
C2412 C2413 1.400 . S
C2413 C2407 1.491 . S
C2413 C2412 1.400 . S
C2413 C2414 1.398 . S
C2414 H2402 0.950 . S
C2414 C2413 1.398 . S
C2414 C2415 1.391 . S
C2415 H2403 0.950 . S
C2415 C2411 1.393 . S
C2415 C2414 1.391 . S
H2416 C2424 0.950 1_565 S
H2417 C2429 0.950 . S
H2418 C2426 0.950 1_565 S
H2419 C2428 0.950 . S
H2420 C2430 0.950 . S
H2421 C2432 0.950 . S
H2422 C2434 0.950 . S
H2423 C2435 0.950 . S
C2424 H2416 0.950 1_545 S
C2424 C2425 1.386 . S
C2424 C2426 1.391 . S
C2425 C2424 1.386 . S
C2425 C2429 1.393 . S
C2426 H2418 0.950 1_545 S
C2426 C2424 1.391 . S
C2426 C2427 1.400 . S
C2427 C2426 1.400 . S
C2427 C2428 1.398 . S
C2427 C2433 1.491 . S
C2428 H2419 0.950 . S
C2428 C2427 1.398 . S
C2428 C2429 1.391 . S
C2429 H2417 0.950 . S
C2429 C2425 1.393 . S
C2429 C2428 1.391 . S
C2430 H2420 0.950 . S
C2430 C2431 1.386 . S
C2430 C2432 1.391 . S
C2431 C2430 1.386 . S
C2431 C2435 1.393 . S
C2432 H2421 0.950 . S
C2432 C2430 1.391 . S
C2432 C2433 1.400 . S
C2433 C2427 1.491 . S
C2433 C2432 1.400 . S
C2433 C2434 1.398 . S
C2434 H2422 0.950 . S
C2434 C2433 1.398 . S
C2434 C2435 1.391 . S
C2435 H2423 0.950 . S
C2435 C2431 1.393 . S
C2435 C2434 1.391 . S
H2436 C2444 0.950 . S
H2437 C2449 0.950 . S
H2438 C2446 0.950 . S
H2439 C2448 0.950 . S
H2440 C2450 0.950 . S
H2441 C2452 0.950 . S
H2442 C2454 0.950 . S
H2443 C2455 0.950 . S
C2444 H2436 0.950 . S
C2444 C2445 1.386 . S
C2444 C2446 1.391 . S
C2445 C2444 1.386 . S
C2445 C2449 1.393 . S
C2446 H2438 0.950 . S
C2446 C2444 1.391 . S
C2446 C2447 1.400 . S
C2447 C2446 1.400 . S
C2447 C2448 1.398 . S
C2447 C2453 1.491 . S
C2448 H2439 0.950 . S
C2448 C2447 1.398 . S
C2448 C2449 1.391 . S
C2449 H2437 0.950 . S
C2449 C2445 1.393 . S
C2449 C2448 1.391 . S
C2450 H2440 0.950 . S
C2450 C2451 1.386 . S
C2450 C2452 1.391 . S
C2451 C2450 1.386 . S
C2451 C2455 1.393 . S
C2452 H2441 0.950 . S
C2452 C2450 1.391 . S
C2452 C2453 1.400 . S
C2453 C2447 1.491 . S
C2453 C2452 1.400 . S
C2453 C2454 1.398 . S
C2454 H2442 0.950 . S
C2454 C2453 1.398 . S
C2454 C2455 1.391 . S
C2455 H2443 0.950 . S
C2455 C2451 1.393 . S
C2455 C2454 1.391 . S
H2456 C2464 0.950 . S
H2457 C2469 0.950 . S
H2458 C2466 0.928 1_556 S
H2459 C2468 0.950 . S
H2460 C2470 0.950 . S
H2461 C2472 0.950 . S
H2462 C2474 0.950 1_556 S
H2463 C2475 0.950 1_556 S
C2464 H2456 0.950 . S
C2464 C2465 1.386 . S
C2464 C2466 1.391 . S
C2465 C2464 1.386 . S
C2465 C2469 1.393 . S
C2466 H2458 0.928 1_554 S
C2466 C2464 1.391 . S
C2466 C2467 1.400 . S
C2467 C2466 1.400 . S
C2467 C2468 1.398 . S
C2467 C2473 1.491 . S
C2468 H2459 0.950 . S
C2468 C2467 1.398 . S
C2468 C2469 1.391 . S
C2469 H2457 0.950 . S
C2469 C2465 1.393 . S
C2469 C2468 1.391 . S
C2470 H2460 0.950 . S
C2470 C2471 1.386 . S
C2470 C2472 1.391 . S
C2471 C2470 1.386 . S
C2471 C2475 1.393 . S
C2472 H2461 0.950 . S
C2472 C2470 1.391 . S
C2472 C2473 1.400 . S
C2473 C2467 1.491 . S
C2473 C2472 1.400 . S
C2473 C2474 1.398 . S
C2474 H2462 0.950 1_554 S
C2474 C2473 1.398 . S
C2474 C2475 1.391 . S
C2475 H2463 0.950 1_554 S
C2475 C2471 1.393 . S
C2475 C2474 1.391 . S
H2476 C2484 0.950 . S
H2477 C2489 0.950 . S
H2478 C2486 0.950 . S
H2479 C2488 0.950 . S
H2480 C2490 0.950 . S
H2481 C2492 0.950 . S
H2482 C2494 0.950 . S
H2483 C2495 0.950 . S
C2484 H2476 0.950 . S
C2484 C2485 1.386 . S
C2484 C2486 1.391 . S
C2485 C2484 1.386 . S
C2485 C2489 1.393 . S
C2486 H2478 0.950 . S
C2486 C2484 1.391 . S
C2486 C2487 1.400 . S
C2487 C2486 1.400 . S
C2487 C2488 1.398 . S
C2487 C2493 1.491 . S
C2488 H2479 0.950 . S
C2488 C2487 1.398 . S
C2488 C2489 1.391 . S
C2489 H2477 0.950 . S
C2489 C2485 1.393 . S
C2489 C2488 1.391 . S
C2490 H2480 0.950 . S
C2490 C2491 1.386 . S
C2490 C2492 1.391 . S
C2491 C2490 1.386 . S
C2491 C2495 1.393 . S
C2492 H2481 0.950 . S
C2492 C2490 1.391 . S
C2492 C2493 1.400 . S
C2493 C2487 1.491 . S
C2493 C2492 1.400 . S
C2493 C2494 1.398 . S
C2494 H2482 0.950 . S
C2494 C2493 1.398 . S
C2494 C2495 1.391 . S
C2495 H2483 0.950 . S
C2495 C2491 1.393 . S
C2495 C2494 1.391 . S
H2496 C2504 0.950 . S
H2497 C2509 0.950 . S
H2498 C2506 0.950 . S
H2499 C2508 0.950 . S
H2500 C2510 0.950 . S
H2501 C2512 0.950 . S
H2502 C2514 0.950 . S
H2503 C2515 0.950 . S
C2504 H2496 0.950 . S
C2504 C2505 1.386 . S
C2504 C2506 1.391 . S
C2505 C2504 1.386 . S
C2505 C2509 1.393 . S
C2506 H2498 0.950 . S
C2506 C2504 1.391 . S
C2506 C2507 1.400 . S
C2507 C2506 1.400 . S
C2507 C2508 1.398 . S
C2507 C2513 1.491 . S
C2508 H2499 0.950 . S
C2508 C2507 1.398 . S
C2508 C2509 1.391 . S
C2509 H2497 0.950 . S
C2509 C2505 1.393 . S
C2509 C2508 1.391 . S
C2510 H2500 0.950 . S
C2510 C2511 1.386 . S
C2510 C2512 1.391 . S
C2511 C2510 1.386 . S
C2511 C2515 1.393 . S
C2512 H2501 0.950 . S
C2512 C2510 1.391 . S
C2512 C2513 1.400 . S
C2513 C2507 1.491 . S
C2513 C2512 1.400 . S
C2513 C2514 1.398 . S
C2514 H2502 0.950 . S
C2514 C2513 1.398 . S
C2514 C2515 1.391 . S
C2515 H2503 0.950 . S
C2515 C2511 1.393 . S
C2515 C2514 1.391 . S
H2516 C2524 0.950 . S
H2517 C2529 0.950 . S
H2518 C2526 0.950 . S
H2519 C2528 0.950 . S
H2520 C2530 0.950 . S
H2521 C2532 0.950 . S
H2522 C2534 0.950 . S
H2523 C2535 0.950 . S
C2524 H2516 0.950 . S
C2524 C2525 1.386 . S
C2524 C2526 1.391 . S
C2525 C2524 1.386 . S
C2525 C2529 1.393 . S
C2526 H2518 0.950 . S
C2526 C2524 1.391 . S
C2526 C2527 1.400 . S
C2527 C2526 1.400 . S
C2527 C2528 1.398 . S
C2527 C2533 1.491 . S
C2528 H2519 0.950 . S
C2528 C2527 1.398 . S
C2528 C2529 1.391 . S
C2529 H2517 0.950 . S
C2529 C2525 1.393 . S
C2529 C2528 1.391 . S
C2530 H2520 0.950 . S
C2530 C2531 1.386 . S
C2530 C2532 1.391 . S
C2531 C2530 1.386 . S
C2531 C2535 1.393 . S
C2532 H2521 0.950 . S
C2532 C2530 1.391 . S
C2532 C2533 1.400 . S
C2533 C2527 1.491 . S
C2533 C2532 1.400 . S
C2533 C2534 1.398 . S
C2534 H2522 0.950 . S
C2534 C2533 1.398 . S
C2534 C2535 1.391 . S
C2535 H2523 0.950 . S
C2535 C2531 1.393 . S
C2535 C2534 1.391 . S
H2536 C2544 0.947 . S
H2537 C2549 0.950 . S
H2538 C2546 0.950 . S
H2539 C2548 0.950 . S
H2540 C2550 0.950 . S
H2541 C2552 0.950 . S
H2542 C2554 0.950 . S
H2543 C2555 0.950 . S
C2544 H2536 0.947 . S
C2544 C2545 1.386 1_545 S
C2544 C2546 1.393 1_545 S
C2545 C2544 1.386 1_565 S
C2545 C2549 1.393 . S
C2546 H2538 0.950 . S
C2546 C2544 1.393 1_565 S
C2546 C2547 1.400 . S
C2547 C2546 1.400 . S
C2547 C2548 1.398 . S
C2547 C2553 1.491 . S
C2548 H2539 0.950 . S
C2548 C2547 1.398 . S
C2548 C2549 1.391 . S
C2549 H2537 0.950 . S
C2549 C2545 1.393 . S
C2549 C2548 1.391 . S
C2550 H2540 0.950 . S
C2550 C2551 1.386 . S
C2550 C2552 1.391 . S
C2551 C2550 1.386 . S
C2551 C2555 1.393 . S
C2552 H2541 0.950 . S
C2552 C2550 1.391 . S
C2552 C2553 1.400 . S
C2553 C2547 1.491 . S
C2553 C2552 1.400 . S
C2553 C2554 1.398 . S
C2554 H2542 0.950 . S
C2554 C2553 1.398 . S
C2554 C2555 1.391 . S
C2555 H2543 0.950 . S
C2555 C2551 1.393 . S
C2555 C2554 1.391 . S
H2556 C2564 0.950 . S
H2557 C2569 0.950 . S
H2558 C2566 0.950 . S
H2559 C2568 0.950 . S
H2560 C2570 0.950 . S
H2561 C2572 0.950 . S
H2562 C2574 0.950 . S
H2563 C2575 0.950 . S
C2564 H2556 0.950 . S
C2564 C2565 1.386 . S
C2564 C2566 1.391 . S
C2565 C2564 1.386 . S
C2565 C2569 1.393 . S
C2566 H2558 0.950 . S
C2566 C2564 1.391 . S
C2566 C2567 1.400 . S
C2567 C2566 1.400 . S
C2567 C2568 1.398 . S
C2567 C2573 1.491 . S
C2568 H2559 0.950 . S
C2568 C2567 1.398 . S
C2568 C2569 1.391 . S
C2569 H2557 0.950 . S
C2569 C2565 1.393 . S
C2569 C2568 1.391 . S
C2570 H2560 0.950 . S
C2570 C2571 1.386 . S
C2570 C2572 1.391 . S
C2571 C2570 1.386 . S
C2571 C2575 1.393 . S
C2572 H2561 0.950 . S
C2572 C2570 1.391 . S
C2572 C2573 1.400 . S
C2573 C2567 1.491 . S
C2573 C2572 1.400 . S
C2573 C2574 1.398 . S
C2574 H2562 0.950 . S
C2574 C2573 1.398 . S
C2574 C2575 1.391 . S
C2575 H2563 0.950 . S
C2575 C2571 1.393 . S
C2575 C2574 1.391 . S
H2576 C2584 0.950 . S
H2577 C2589 0.950 . S
H2578 C2586 0.950 . S
H2579 C2588 0.950 . S
H2580 C2590 0.950 . S
H2581 C2592 0.950 . S
H2582 C2594 0.950 . S
H2583 C2595 0.950 . S
C2584 H2576 0.950 . S
C2584 C2585 1.386 . S
C2584 C2586 1.391 . S
C2585 C2584 1.386 . S
C2585 C2589 1.393 . S
C2586 H2578 0.950 . S
C2586 C2584 1.391 . S
C2586 C2587 1.400 . S
C2587 C2586 1.400 . S
C2587 C2588 1.398 . S
C2587 C2593 1.491 . S
C2588 H2579 0.950 . S
C2588 C2587 1.398 . S
C2588 C2589 1.391 . S
C2589 H2577 0.950 . S
C2589 C2585 1.393 . S
C2589 C2588 1.391 . S
C2590 H2580 0.950 . S
C2590 C2591 1.386 . S
C2590 C2592 1.391 . S
C2591 C2590 1.386 . S
C2591 C2595 1.393 . S
C2592 H2581 0.950 . S
C2592 C2590 1.391 . S
C2592 C2593 1.400 . S
C2593 C2587 1.491 . S
C2593 C2592 1.400 . S
C2593 C2594 1.398 . S
C2594 H2582 0.950 . S
C2594 C2593 1.398 . S
C2594 C2595 1.391 . S
C2595 H2583 0.950 . S
C2595 C2591 1.393 . S
C2595 C2594 1.391 . S
H2596 C2604 0.950 . S
H2597 C2609 0.950 . S
H2598 C2606 0.950 . S
H2599 C2608 0.950 . S
H2600 C2610 0.950 . S
H2601 C2612 0.950 . S
H2602 C2614 0.950 . S
H2603 C2615 0.950 . S
C2604 H2596 0.950 . S
C2604 C2605 1.386 . S
C2604 C2606 1.391 . S
C2605 C2604 1.386 . S
C2605 C2609 1.393 . S
C2606 H2598 0.950 . S
C2606 C2604 1.391 . S
C2606 C2607 1.400 . S
C2607 C2606 1.400 . S
C2607 C2608 1.398 . S
C2607 C2613 1.491 . S
C2608 H2599 0.950 . S
C2608 C2607 1.398 . S
C2608 C2609 1.391 . S
C2609 H2597 0.950 . S
C2609 C2605 1.393 . S
C2609 C2608 1.391 . S
C2610 H2600 0.950 . S
C2610 C2611 1.386 . S
C2610 C2612 1.391 . S
C2611 C2610 1.386 . S
C2611 C2615 1.393 . S
C2612 H2601 0.950 . S
C2612 C2610 1.391 . S
C2612 C2613 1.400 . S
C2613 C2607 1.491 . S
C2613 C2612 1.400 . S
C2613 C2614 1.398 . S
C2614 H2602 0.950 . S
C2614 C2613 1.398 . S
C2614 C2615 1.391 . S
C2615 H2603 0.950 . S
C2615 C2611 1.393 . S
C2615 C2614 1.391 . S
H2616 C2624 0.950 . S
H2617 C2629 0.950 . S
H2618 C2626 0.950 . S
H2619 C2628 0.950 . S
H2620 C2630 0.950 . S
H2621 C2632 0.950 . S
H2622 C2634 0.950 . S
H2623 C2635 0.950 . S
C2624 H2616 0.950 . S
C2624 C2625 1.386 . S
C2624 C2626 1.391 . S
C2625 C2624 1.386 . S
C2625 C2629 1.393 . S
C2626 H2618 0.950 . S
C2626 C2624 1.391 . S
C2626 C2627 1.400 . S
C2627 C2626 1.400 . S
C2627 C2628 1.398 . S
C2627 C2633 1.491 . S
C2628 H2619 0.950 . S
C2628 C2627 1.398 . S
C2628 C2629 1.391 . S
C2629 H2617 0.950 . S
C2629 C2625 1.393 . S
C2629 C2628 1.391 . S
C2630 H2620 0.950 . S
C2630 C2631 1.386 . S
C2630 C2632 1.391 . S
C2631 C2630 1.386 . S
C2631 C2635 1.393 . S
C2632 H2621 0.950 . S
C2632 C2630 1.391 . S
C2632 C2633 1.400 . S
C2633 C2627 1.491 . S
C2633 C2632 1.400 . S
C2633 C2634 1.398 . S
C2634 H2622 0.950 . S
C2634 C2633 1.398 . S
C2634 C2635 1.391 . S
C2635 H2623 0.950 . S
C2635 C2631 1.393 . S
C2635 C2634 1.391 . S
H2636 C2644 0.950 . S
H2637 C2649 0.950 . S
H2638 C2646 0.950 . S
H2639 C2648 0.950 . S
H2640 C2650 0.950 . S
H2641 C2652 0.950 . S
H2642 C2654 0.950 . S
H2643 C2655 0.950 . S
C2644 H2636 0.950 . S
C2644 C2645 1.386 . S
C2644 C2646 1.391 . S
C2645 C2644 1.386 . S
C2645 C2649 1.393 . S
C2646 H2638 0.950 . S
C2646 C2644 1.391 . S
C2646 C2647 1.400 . S
C2647 C2646 1.400 . S
C2647 C2648 1.398 . S
C2647 C2653 1.491 . S
C2648 H2639 0.950 . S
C2648 C2647 1.398 . S
C2648 C2649 1.391 . S
C2649 H2637 0.950 . S
C2649 C2645 1.393 . S
C2649 C2648 1.391 . S
C2650 H2640 0.950 . S
C2650 C2651 1.386 . S
C2650 C2652 1.391 . S
C2651 C2650 1.386 . S
C2651 C2655 1.393 . S
C2652 H2641 0.950 . S
C2652 C2650 1.391 . S
C2652 C2653 1.400 . S
C2653 C2647 1.491 . S
C2653 C2652 1.400 . S
C2653 C2654 1.398 . S
C2654 H2642 0.950 . S
C2654 C2653 1.398 . S
C2654 C2655 1.391 . S
C2655 H2643 0.950 . S
C2655 C2651 1.393 . S
C2655 C2654 1.391 . S
H2656 C2664 0.950 . S
H2657 C2669 0.950 1_655 S
H2658 C2666 0.950 . S
H2659 C2668 0.950 1_655 S
H2660 C2670 0.950 . S
H2661 C2672 0.972 . S
H2662 C2674 0.950 . S
H2663 C2675 0.950 . S
C2664 H2656 0.950 . S
C2664 C2665 1.386 . S
C2664 C2666 1.391 . S
C2665 C2664 1.386 . S
C2665 C2669 1.393 . S
C2666 H2658 0.950 . S
C2666 C2664 1.391 . S
C2666 C2667 1.400 . S
C2667 C2666 1.400 . S
C2667 C2668 1.398 . S
C2667 C2673 1.491 1_556 S
C2668 H2659 0.950 1_455 S
C2668 C2667 1.398 . S
C2668 C2669 1.391 . S
C2669 H2657 0.950 1_455 S
C2669 C2665 1.393 . S
C2669 C2668 1.391 . S
C2670 H2660 0.950 . S
C2670 C2671 1.386 . S
C2670 C2672 1.391 . S
C2671 C2670 1.386 . S
C2671 C2675 1.393 . S
C2672 H2661 0.972 . S
C2672 C2670 1.391 . S
C2672 C2673 1.400 . S
C2673 C2667 1.491 1_554 S
C2673 C2672 1.400 . S
C2673 C2674 1.398 . S
C2674 H2662 0.950 . S
C2674 C2673 1.398 . S
C2674 C2675 1.391 . S
C2675 H2663 0.950 . S
C2675 C2671 1.393 . S
C2675 C2674 1.391 . S
H2676 C2684 0.950 . S
H2677 C2689 0.950 . S
H2678 C2686 0.950 . S
H2679 C2688 0.950 . S
H2680 C2690 0.950 . S
H2681 C2692 0.950 . S
H2682 C2694 0.950 . S
H2683 C2695 0.950 . S
C2684 H2676 0.950 . S
C2684 C2685 1.386 . S
C2684 C2686 1.391 . S
C2685 C2684 1.386 . S
C2685 C2689 1.393 . S
C2686 H2678 0.950 . S
C2686 C2684 1.391 . S
C2686 C2687 1.400 1_455 S
C2687 C2686 1.400 1_655 S
C2687 C2688 1.398 . S
C2687 C2693 1.491 . S
C2688 H2679 0.950 . S
C2688 C2687 1.398 . S
C2688 C2689 1.391 1_655 S
C2689 H2677 0.950 . S
C2689 C2685 1.393 . S
C2689 C2688 1.391 1_455 S
C2690 H2680 0.950 . S
C2690 C2691 1.386 . S
C2690 C2692 1.391 . S
C2691 C2690 1.386 . S
C2691 C2695 1.393 . S
C2692 H2681 0.950 . S
C2692 C2690 1.391 . S
C2692 C2693 1.400 . S
C2693 C2687 1.491 . S
C2693 C2692 1.400 . S
C2693 C2694 1.398 . S
C2694 H2682 0.950 . S
C2694 C2693 1.398 . S
C2694 C2695 1.391 . S
C2695 H2683 0.950 . S
C2695 C2691 1.393 . S
C2695 C2694 1.391 . S
H2696 C2704 0.950 . S
H2697 C2709 0.950 . S
H2698 C2706 0.950 . S
H2699 C2708 0.950 . S
H2700 C2710 0.950 . S
H2701 C2712 0.950 . S
H2702 C2714 0.950 . S
H2703 C2715 0.950 . S
C2704 H2696 0.950 . S
C2704 C2705 1.386 . S
C2704 C2706 1.391 . S
C2705 C2704 1.386 . S
C2705 C2709 1.393 . S
C2706 H2698 0.950 . S
C2706 C2704 1.391 . S
C2706 C2707 1.400 . S
C2707 C2706 1.400 . S
C2707 C2708 1.398 . S
C2707 C2713 1.491 . S
C2708 H2699 0.950 . S
C2708 C2707 1.398 . S
C2708 C2709 1.391 . S
C2709 H2697 0.950 . S
C2709 C2705 1.393 . S
C2709 C2708 1.391 . S
C2710 H2700 0.950 . S
C2710 C2711 1.386 . S
C2710 C2712 1.391 . S
C2711 C2710 1.386 . S
C2711 C2715 1.393 . S
C2712 H2701 0.950 . S
C2712 C2710 1.391 . S
C2712 C2713 1.400 . S
C2713 C2707 1.491 . S
C2713 C2712 1.400 . S
C2713 C2714 1.398 . S
C2714 H2702 0.950 . S
C2714 C2713 1.398 . S
C2714 C2715 1.391 . S
C2715 H2703 0.950 . S
C2715 C2711 1.393 . S
C2715 C2714 1.391 . S
H2716 C2724 0.950 . S
H2717 C2729 0.950 . S
H2718 C2726 0.950 . S
H2719 C2728 0.950 . S
H2720 C2730 0.950 . S
H2721 C2732 0.950 . S
H2722 C2734 0.958 . S
H2723 C2735 0.950 . S
C2724 H2716 0.950 . S
C2724 C2725 1.386 . S
C2724 C2726 1.391 . S
C2725 C2724 1.386 . S
C2725 C2729 1.393 . S
C2726 H2718 0.950 . S
C2726 C2724 1.391 . S
C2726 C2727 1.400 . S
C2727 C2726 1.400 . S
C2727 C2728 1.398 . S
C2727 C2733 1.491 1_455 S
C2728 H2719 0.950 . S
C2728 C2727 1.398 . S
C2728 C2729 1.391 . S
C2729 H2717 0.950 . S
C2729 C2725 1.393 . S
C2729 C2728 1.391 . S
C2730 H2720 0.950 . S
C2730 C2731 1.386 . S
C2730 C2732 1.391 . S
C2731 C2730 1.386 . S
C2731 C2735 1.393 . S
C2732 H2721 0.950 . S
C2732 C2730 1.391 . S
C2732 C2733 1.400 . S
C2733 C2727 1.491 1_655 S
C2733 C2732 1.400 . S
C2733 C2734 1.398 . S
C2734 H2722 0.958 . S
C2734 C2733 1.398 . S
C2734 C2735 1.391 . S
C2735 H2723 0.950 . S
C2735 C2731 1.393 . S
C2735 C2734 1.391 . S
H2736 C2744 0.950 . S
H2737 C2749 0.950 . S
H2738 C2746 0.966 . S
H2739 C2748 0.950 . S
H2740 C2750 0.950 . S
H2741 C2752 0.950 . S
H2742 C2754 0.950 . S
H2743 C2755 0.950 . S
C2744 H2736 0.950 . S
C2744 C2745 1.386 . S
C2744 C2746 1.374 1_655 S
C2745 C2744 1.386 . S
C2745 C2749 1.393 . S
C2746 H2738 0.966 . S
C2746 C2744 1.374 1_455 S
C2746 C2747 1.403 . S
C2747 C2746 1.403 . S
C2747 C2748 1.398 1_455 S
C2747 C2753 1.491 . S
C2748 H2739 0.950 . S
C2748 C2747 1.398 1_655 S
C2748 C2749 1.391 . S
C2749 H2737 0.950 . S
C2749 C2745 1.393 . S
C2749 C2748 1.391 . S
C2750 H2740 0.950 . S
C2750 C2751 1.386 . S
C2750 C2752 1.391 . S
C2751 C2750 1.386 . S
C2751 C2755 1.393 . S
C2752 H2741 0.950 . S
C2752 C2750 1.391 . S
C2752 C2753 1.400 . S
C2753 C2747 1.491 . S
C2753 C2752 1.400 . S
C2753 C2754 1.398 . S
C2754 H2742 0.950 . S
C2754 C2753 1.398 . S
C2754 C2755 1.391 . S
C2755 H2743 0.950 . S
C2755 C2751 1.393 . S
C2755 C2754 1.391 . S
H2756 C2764 0.950 . S
H2757 C2769 0.950 . S
H2758 C2766 0.950 . S
H2759 C2768 0.950 . S
H2760 C2770 0.950 . S
H2761 C2772 0.950 . S
H2762 C2774 0.950 . S
H2763 C2775 0.950 . S
C2764 H2756 0.950 . S
C2764 C2765 1.386 . S
C2764 C2766 1.391 . S
C2765 C2764 1.386 . S
C2765 C2769 1.393 . S
C2766 H2758 0.950 . S
C2766 C2764 1.391 . S
C2766 C2767 1.400 . S
C2767 C2766 1.400 . S
C2767 C2768 1.398 . S
C2767 C2773 1.491 . S
C2768 H2759 0.950 . S
C2768 C2767 1.398 . S
C2768 C2769 1.391 . S
C2769 H2757 0.950 . S
C2769 C2765 1.393 . S
C2769 C2768 1.391 . S
C2770 H2760 0.950 . S
C2770 C2771 1.386 . S
C2770 C2772 1.391 . S
C2771 C2770 1.386 . S
C2771 C2775 1.393 . S
C2772 H2761 0.950 . S
C2772 C2770 1.391 . S
C2772 C2773 1.400 . S
C2773 C2767 1.491 . S
C2773 C2772 1.400 . S
C2773 C2774 1.398 . S
C2774 H2762 0.950 . S
C2774 C2773 1.398 . S
C2774 C2775 1.391 . S
C2775 H2763 0.950 . S
C2775 C2771 1.393 . S
C2775 C2774 1.391 . S
H2776 C2784 0.950 . S
H2777 C2789 0.950 . S
H2778 C2786 0.950 . S
H2779 C2788 0.950 . S
H2780 C2790 0.950 . S
H2781 C2792 0.950 . S
H2782 C2794 0.950 . S
H2783 C2795 0.950 . S
C2784 H2776 0.950 . S
C2784 C2785 1.386 . S
C2784 C2786 1.391 . S
C2785 C2784 1.386 . S
C2785 C2789 1.393 . S
C2786 H2778 0.950 . S
C2786 C2784 1.391 . S
C2786 C2787 1.400 . S
C2787 C2786 1.400 . S
C2787 C2788 1.398 . S
C2787 C2793 1.491 . S
C2788 H2779 0.950 . S
C2788 C2787 1.398 . S
C2788 C2789 1.391 . S
C2789 H2777 0.950 . S
C2789 C2785 1.393 . S
C2789 C2788 1.391 . S
C2790 H2780 0.950 . S
C2790 C2791 1.386 . S
C2790 C2792 1.391 . S
C2791 C2790 1.386 . S
C2791 C2795 1.393 . S
C2792 H2781 0.950 . S
C2792 C2790 1.391 . S
C2792 C2793 1.400 . S
C2793 C2787 1.491 . S
C2793 C2792 1.400 . S
C2793 C2794 1.398 . S
C2794 H2782 0.950 . S
C2794 C2793 1.398 . S
C2794 C2795 1.391 . S
C2795 H2783 0.950 . S
C2795 C2791 1.393 . S
C2795 C2794 1.391 . S
H2796 C2804 0.950 1_554 S
H2797 C2809 0.950 . S
H2798 C2806 0.950 . S
H2799 C2808 0.950 . S
H2800 C2810 0.950 . S
H2801 C2812 0.950 . S
H2802 C2814 0.950 . S
H2803 C2815 0.950 . S
C2804 H2796 0.950 1_556 S
C2804 C2805 1.386 . S
C2804 C2806 1.391 . S
C2805 C2804 1.386 . S
C2805 C2809 1.393 . S
C2806 H2798 0.950 . S
C2806 C2804 1.391 . S
C2806 C2807 1.400 . S
C2807 C2806 1.400 . S
C2807 C2808 1.398 . S
C2807 C2813 1.491 . S
C2808 H2799 0.950 . S
C2808 C2807 1.398 . S
C2808 C2809 1.391 . S
C2809 H2797 0.950 . S
C2809 C2805 1.393 . S
C2809 C2808 1.391 . S
C2810 H2800 0.950 . S
C2810 C2811 1.386 . S
C2810 C2812 1.391 . S
C2811 C2810 1.386 . S
C2811 C2815 1.393 . S
C2812 H2801 0.950 . S
C2812 C2810 1.391 . S
C2812 C2813 1.400 . S
C2813 C2807 1.491 . S
C2813 C2812 1.400 . S
C2813 C2814 1.398 . S
C2814 H2802 0.950 . S
C2814 C2813 1.398 . S
C2814 C2815 1.391 . S
C2815 H2803 0.950 . S
C2815 C2811 1.393 . S
C2815 C2814 1.391 . S
H2816 C2824 0.950 . S
H2817 C2829 0.950 . S
H2818 C2826 0.950 . S
H2819 C2828 0.950 . S
H2820 C2830 0.950 . S
H2821 C2832 0.950 . S
H2822 C2834 0.950 . S
H2823 C2835 0.950 . S
C2824 H2816 0.950 . S
C2824 C2825 1.386 . S
C2824 C2826 1.391 . S
C2825 C2824 1.386 . S
C2825 C2829 1.393 . S
C2826 H2818 0.950 . S
C2826 C2824 1.391 . S
C2826 C2827 1.400 . S
C2827 C2826 1.400 . S
C2827 C2828 1.398 . S
C2827 C2833 1.491 . S
C2828 H2819 0.950 . S
C2828 C2827 1.398 . S
C2828 C2829 1.391 . S
C2829 H2817 0.950 . S
C2829 C2825 1.393 . S
C2829 C2828 1.391 . S
C2830 H2820 0.950 . S
C2830 C2831 1.386 . S
C2830 C2832 1.391 . S
C2831 C2830 1.386 . S
C2831 C2835 1.393 . S
C2832 H2821 0.950 . S
C2832 C2830 1.391 . S
C2832 C2833 1.400 . S
C2833 C2827 1.491 . S
C2833 C2832 1.400 . S
C2833 C2834 1.398 . S
C2834 H2822 0.950 . S
C2834 C2833 1.398 . S
C2834 C2835 1.391 . S
C2835 H2823 0.950 . S
C2835 C2831 1.393 . S
C2835 C2834 1.391 . S
H2836 C2844 0.950 . S
H2837 C2849 0.950 . S
H2838 C2846 0.950 . S
H2839 C2848 0.950 . S
H2840 C2850 0.950 . S
H2841 C2852 0.950 . S
H2842 C2854 0.950 . S
H2843 C2855 0.950 . S
C2844 H2836 0.950 . S
C2844 C2845 1.386 . S
C2844 C2846 1.391 . S
C2845 C2844 1.386 . S
C2845 C2849 1.393 . S
C2846 H2838 0.950 . S
C2846 C2844 1.391 . S
C2846 C2847 1.400 . S
C2847 C2846 1.400 . S
C2847 C2848 1.398 . S
C2847 C2853 1.491 . S
C2848 H2839 0.950 . S
C2848 C2847 1.398 . S
C2848 C2849 1.391 . S
C2849 H2837 0.950 . S
C2849 C2845 1.393 . S
C2849 C2848 1.391 . S
C2850 H2840 0.950 . S
C2850 C2851 1.386 . S
C2850 C2852 1.391 . S
C2851 C2850 1.386 . S
C2851 C2855 1.393 . S
C2852 H2841 0.950 . S
C2852 C2850 1.391 . S
C2852 C2853 1.400 . S
C2853 C2847 1.491 . S
C2853 C2852 1.400 . S
C2853 C2854 1.398 . S
C2854 H2842 0.950 . S
C2854 C2853 1.398 . S
C2854 C2855 1.391 . S
C2855 H2843 0.950 . S
C2855 C2851 1.393 . S
C2855 C2854 1.391 . S
H2856 C2864 0.950 . S
H2857 C2869 0.950 . S
H2858 C2866 0.950 . S
H2859 C2868 0.950 . S
H2860 C2870 0.950 . S
H2861 C2872 0.950 . S
H2862 C2874 0.950 . S
H2863 C2875 0.950 . S
C2864 H2856 0.950 . S
C2864 C2865 1.386 . S
C2864 C2866 1.391 . S
C2865 C2864 1.386 . S
C2865 C2869 1.393 . S
C2866 H2858 0.950 . S
C2866 C2864 1.391 . S
C2866 C2867 1.400 . S
C2867 C2866 1.400 . S
C2867 C2868 1.398 . S
C2867 C2873 1.491 . S
C2868 H2859 0.950 . S
C2868 C2867 1.398 . S
C2868 C2869 1.391 . S
C2869 H2857 0.950 . S
C2869 C2865 1.393 . S
C2869 C2868 1.391 . S
C2870 H2860 0.950 . S
C2870 C2871 1.386 . S
C2870 C2872 1.391 . S
C2871 C2870 1.386 . S
C2871 C2875 1.393 . S
C2872 H2861 0.950 . S
C2872 C2870 1.391 . S
C2872 C2873 1.400 . S
C2873 C2867 1.491 . S
C2873 C2872 1.400 . S
C2873 C2874 1.398 . S
C2874 H2862 0.950 . S
C2874 C2873 1.398 . S
C2874 C2875 1.391 . S
C2875 H2863 0.950 . S
C2875 C2871 1.393 . S
C2875 C2874 1.391 . S
H2876 C2884 0.950 . S
H2877 C2889 0.950 . S
H2878 C2886 0.950 . S
H2879 C2888 0.950 . S
H2880 C2890 0.950 . S
H2881 C2892 0.950 . S
H2882 C2894 0.950 . S
H2883 C2895 0.950 . S
C2884 H2876 0.950 . S
C2884 C2885 1.386 . S
C2884 C2886 1.391 . S
C2885 C2884 1.386 . S
C2885 C2889 1.393 . S
C2886 H2878 0.950 . S
C2886 C2884 1.391 . S
C2886 C2887 1.400 . S
C2887 C2886 1.400 . S
C2887 C2888 1.398 . S
C2887 C2893 1.491 . S
C2888 H2879 0.950 . S
C2888 C2887 1.398 . S
C2888 C2889 1.391 . S
C2889 H2877 0.950 . S
C2889 C2885 1.393 . S
C2889 C2888 1.391 . S
C2890 H2880 0.950 . S
C2890 C2891 1.386 . S
C2890 C2892 1.391 . S
C2891 C2890 1.386 . S
C2891 C2895 1.393 . S
C2892 H2881 0.950 . S
C2892 C2890 1.391 . S
C2892 C2893 1.400 . S
C2893 C2887 1.491 . S
C2893 C2892 1.400 . S
C2893 C2894 1.398 . S
C2894 H2882 0.950 . S
C2894 C2893 1.398 . S
C2894 C2895 1.391 . S
C2895 H2883 0.950 . S
C2895 C2891 1.393 . S
C2895 C2894 1.391 . S
H2896 C2904 0.950 . S
H2897 C2909 0.950 . S
H2898 C2906 0.950 . S
H2899 C2908 0.950 . S
H2900 C2910 0.950 . S
H2901 C2912 0.950 . S
H2902 C2914 0.950 . S
H2903 C2915 0.950 . S
C2904 H2896 0.950 . S
C2904 C2905 1.386 . S
C2904 C2906 1.391 . S
C2905 C2904 1.386 . S
C2905 C2909 1.393 . S
C2906 H2898 0.950 . S
C2906 C2904 1.391 . S
C2906 C2907 1.400 . S
C2907 C2906 1.400 . S
C2907 C2908 1.398 . S
C2907 C2913 1.491 . S
C2908 H2899 0.950 . S
C2908 C2907 1.398 . S
C2908 C2909 1.391 . S
C2909 H2897 0.950 . S
C2909 C2905 1.393 . S
C2909 C2908 1.391 . S
C2910 H2900 0.950 . S
C2910 C2911 1.386 . S
C2910 C2912 1.391 . S
C2911 C2910 1.386 . S
C2911 C2915 1.393 . S
C2912 H2901 0.950 . S
C2912 C2910 1.391 . S
C2912 C2913 1.400 . S
C2913 C2907 1.491 . S
C2913 C2912 1.400 . S
C2913 C2914 1.398 . S
C2914 H2902 0.950 . S
C2914 C2913 1.398 . S
C2914 C2915 1.391 . S
C2915 H2903 0.950 . S
C2915 C2911 1.393 . S
C2915 C2914 1.391 . S
H2916 C2924 0.950 . S
H2917 C2929 0.950 . S
H2918 C2926 0.950 . S
H2919 C2928 0.950 . S
H2920 C2930 0.950 . S
H2921 C2932 0.950 . S
H2922 C2934 0.950 . S
H2923 C2935 0.950 . S
C2924 H2916 0.950 . S
C2924 C2925 1.386 . S
C2924 C2926 1.391 . S
C2925 C2924 1.386 . S
C2925 C2929 1.393 . S
C2926 H2918 0.950 . S
C2926 C2924 1.391 . S
C2926 C2927 1.400 . S
C2927 C2926 1.400 . S
C2927 C2928 1.398 . S
C2927 C2933 1.491 . S
C2928 H2919 0.950 . S
C2928 C2927 1.398 . S
C2928 C2929 1.391 . S
C2929 H2917 0.950 . S
C2929 C2925 1.393 . S
C2929 C2928 1.391 . S
C2930 H2920 0.950 . S
C2930 C2931 1.386 . S
C2930 C2932 1.391 . S
C2931 C2930 1.386 . S
C2931 C2935 1.393 . S
C2932 H2921 0.950 . S
C2932 C2930 1.391 . S
C2932 C2933 1.400 . S
C2933 C2927 1.491 . S
C2933 C2932 1.400 . S
C2933 C2934 1.398 . S
C2934 H2922 0.950 . S
C2934 C2933 1.398 . S
C2934 C2935 1.391 . S
C2935 H2923 0.950 . S
C2935 C2931 1.393 . S
C2935 C2934 1.391 . S
H2936 C2944 0.950 . S
H2937 C2949 0.950 . S
H2938 C2946 0.950 . S
H2939 C2948 0.950 . S
H2940 C2950 0.950 . S
H2941 C2952 0.950 . S
H2942 C2954 0.950 . S
H2943 C2955 0.950 . S
C2944 H2936 0.950 . S
C2944 C2945 1.386 . S
C2944 C2946 1.391 . S
C2945 C2944 1.386 . S
C2945 C2949 1.393 . S
C2946 H2938 0.950 . S
C2946 C2944 1.391 . S
C2946 C2947 1.400 . S
C2947 C2946 1.400 . S
C2947 C2948 1.398 . S
C2947 C2953 1.491 . S
C2948 H2939 0.950 . S
C2948 C2947 1.398 . S
C2948 C2949 1.391 . S
C2949 H2937 0.950 . S
C2949 C2945 1.393 . S
C2949 C2948 1.391 . S
C2950 H2940 0.950 . S
C2950 C2951 1.386 . S
C2950 C2952 1.391 . S
C2951 C2950 1.386 . S
C2951 C2955 1.393 . S
C2952 H2941 0.950 . S
C2952 C2950 1.391 . S
C2952 C2953 1.400 . S
C2953 C2947 1.491 . S
C2953 C2952 1.400 . S
C2953 C2954 1.398 . S
C2954 H2942 0.950 . S
C2954 C2953 1.398 . S
C2954 C2955 1.391 . S
C2955 H2943 0.950 . S
C2955 C2951 1.393 . S
C2955 C2954 1.391 . S
H2956 C2964 0.950 . S
H2957 C2969 0.950 . S
H2958 C2966 0.950 . S
H2959 C2968 0.950 . S
H2960 C2970 0.950 . S
H2961 C2972 0.950 . S
H2962 C2974 0.950 . S
H2963 C2975 0.950 . S
C2964 H2956 0.950 . S
C2964 C2965 1.386 . S
C2964 C2966 1.391 . S
C2965 C2964 1.386 . S
C2965 C2969 1.393 . S
C2966 H2958 0.950 . S
C2966 C2964 1.391 . S
C2966 C2967 1.400 . S
C2967 C2966 1.400 . S
C2967 C2968 1.398 . S
C2967 C2973 1.491 . S
C2968 H2959 0.950 . S
C2968 C2967 1.398 . S
C2968 C2969 1.391 . S
C2969 H2957 0.950 . S
C2969 C2965 1.393 . S
C2969 C2968 1.391 . S
C2970 H2960 0.950 . S
C2970 C2971 1.386 . S
C2970 C2972 1.391 . S
C2971 C2970 1.386 . S
C2971 C2975 1.393 . S
C2972 H2961 0.950 . S
C2972 C2970 1.391 . S
C2972 C2973 1.400 . S
C2973 C2967 1.491 . S
C2973 C2972 1.400 . S
C2973 C2974 1.398 . S
C2974 H2962 0.950 . S
C2974 C2973 1.398 . S
C2974 C2975 1.391 . S
C2975 H2963 0.950 . S
C2975 C2971 1.393 . S
C2975 C2974 1.391 . S
H2976 C2984 0.950 . S
H2977 C2989 0.950 . S
H2978 C2986 0.950 . S
H2979 C2988 0.950 . S
H2980 C2990 0.950 . S
H2981 C2992 0.950 . S
H2982 C2994 0.950 . S
H2983 C2995 0.950 . S
C2984 H2976 0.950 . S
C2984 C2985 1.386 . S
C2984 C2986 1.391 . S
C2985 C2984 1.386 . S
C2985 C2989 1.393 . S
C2986 H2978 0.950 . S
C2986 C2984 1.391 . S
C2986 C2987 1.400 . S
C2987 C2986 1.400 . S
C2987 C2988 1.398 . S
C2987 C2993 1.491 . S
C2988 H2979 0.950 . S
C2988 C2987 1.398 . S
C2988 C2989 1.391 . S
C2989 H2977 0.950 . S
C2989 C2985 1.393 . S
C2989 C2988 1.391 . S
C2990 H2980 0.950 . S
C2990 C2991 1.386 . S
C2990 C2992 1.391 . S
C2991 C2990 1.386 . S
C2991 C2995 1.393 . S
C2992 H2981 0.950 . S
C2992 C2990 1.391 . S
C2992 C2993 1.400 . S
C2993 C2987 1.491 . S
C2993 C2992 1.400 . S
C2993 C2994 1.398 . S
C2994 H2982 0.950 . S
C2994 C2993 1.398 . S
C2994 C2995 1.391 . S
C2995 H2983 0.950 . S
C2995 C2991 1.393 . S
C2995 C2994 1.391 . S
H2996 C3004 0.950 . S
H2997 C3009 0.950 . S
H2998 C3006 0.950 . S
H2999 C3008 0.950 . S
H3000 C3010 0.950 . S
H3001 C3012 0.950 . S
H3002 C3014 0.968 . S
H3003 C3015 0.950 . S
C3004 H2996 0.950 . S
C3004 C3005 1.386 1_556 S
C3004 C3006 1.391 . S
C3005 C3004 1.386 1_554 S
C3005 C3009 1.393 . S
C3006 H2998 0.950 . S
C3006 C3004 1.391 . S
C3006 C3007 1.400 1_556 S
C3007 C3006 1.400 1_554 S
C3007 C3008 1.398 . S
C3007 C3013 1.505 . S
C3008 H2999 0.950 . S
C3008 C3007 1.398 . S
C3008 C3009 1.391 . S
C3009 H2997 0.950 . S
C3009 C3005 1.393 . S
C3009 C3008 1.391 . S
C3010 H3000 0.950 . S
C3010 C3011 1.386 . S
C3010 C3012 1.391 . S
C3011 C3010 1.386 . S
C3011 C3015 1.393 1_554 S
C3012 H3001 0.950 . S
C3012 C3010 1.391 . S
C3012 C3013 1.388 1_545 S
C3013 C3007 1.505 . S
C3013 C3012 1.388 1_565 S
C3013 C3014 1.399 1_554 S
C3014 H3002 0.968 . S
C3014 C3013 1.399 1_556 S
C3014 C3015 1.371 1_565 S
C3015 H3003 0.950 . S
C3015 C3011 1.393 1_556 S
C3015 C3014 1.371 1_545 S
H3016 C3024 0.950 . S
H3017 C3029 0.950 . S
H3018 C3026 0.950 . S
H3019 C3028 0.950 . S
H3020 C3030 0.950 . S
H3021 C3032 0.950 . S
H3022 C3034 0.950 . S
H3023 C3035 0.950 . S
C3024 H3016 0.950 . S
C3024 C3025 1.386 . S
C3024 C3026 1.391 . S
C3025 C3024 1.386 . S
C3025 C3029 1.393 . S
C3026 H3018 0.950 . S
C3026 C3024 1.391 . S
C3026 C3027 1.400 . S
C3027 C3026 1.400 . S
C3027 C3028 1.398 . S
C3027 C3033 1.491 . S
C3028 H3019 0.950 . S
C3028 C3027 1.398 . S
C3028 C3029 1.391 . S
C3029 H3017 0.950 . S
C3029 C3025 1.393 . S
C3029 C3028 1.391 . S
C3030 H3020 0.950 . S
C3030 C3031 1.386 . S
C3030 C3032 1.391 . S
C3031 C3030 1.386 . S
C3031 C3035 1.393 . S
C3032 H3021 0.950 . S
C3032 C3030 1.391 . S
C3032 C3033 1.400 . S
C3033 C3027 1.491 . S
C3033 C3032 1.400 . S
C3033 C3034 1.398 . S
C3034 H3022 0.950 . S
C3034 C3033 1.398 . S
C3034 C3035 1.391 . S
C3035 H3023 0.950 . S
C3035 C3031 1.393 . S
C3035 C3034 1.391 . S
H3036 C3044 0.984 . S
H3037 C3049 0.950 . S
H3038 C3046 0.950 1_556 S
H3039 C3048 0.950 . S
H3040 C3050 0.950 . S
H3041 C3052 0.950 . S
H3042 C3054 0.950 . S
H3043 C3055 0.950 . S
C3044 H3036 0.984 . S
C3044 C3045 1.367 1_556 S
C3044 C3046 1.378 1_556 S
C3045 C3044 1.367 1_554 S
C3045 C3049 1.393 . S
C3046 H3038 0.950 1_554 S
C3046 C3044 1.378 1_554 S
C3046 C3047 1.400 . S
C3047 C3046 1.400 . S
C3047 C3048 1.398 . S
C3047 C3053 1.491 . S
C3048 H3039 0.950 . S
C3048 C3047 1.398 . S
C3048 C3049 1.391 . S
C3049 H3037 0.950 . S
C3049 C3045 1.393 . S
C3049 C3048 1.391 . S
C3050 H3040 0.950 . S
C3050 C3051 1.386 . S
C3050 C3052 1.391 . S
C3051 C3050 1.386 . S
C3051 C3055 1.393 . S
C3052 H3041 0.950 . S
C3052 C3050 1.391 . S
C3052 C3053 1.400 . S
C3053 C3047 1.491 . S
C3053 C3052 1.400 . S
C3053 C3054 1.398 . S
C3054 H3042 0.950 . S
C3054 C3053 1.398 . S
C3054 C3055 1.391 . S
C3055 H3043 0.950 . S
C3055 C3051 1.393 . S
C3055 C3054 1.391 . S
H3056 C3064 0.950 . S
H3057 C3069 0.950 . S
H3058 C3066 0.950 . S
H3059 C3068 0.950 . S
H3060 C3070 0.950 . S
H3061 C3072 0.950 . S
H3062 C3074 0.950 . S
H3063 C3075 0.950 . S
C3064 H3056 0.950 . S
C3064 C3065 1.386 . S
C3064 C3066 1.391 . S
C3065 C3064 1.386 . S
C3065 C3069 1.393 . S
C3066 H3058 0.950 . S
C3066 C3064 1.391 . S
C3066 C3067 1.400 . S
C3067 C3066 1.400 . S
C3067 C3068 1.398 . S
C3067 C3073 1.491 . S
C3068 H3059 0.950 . S
C3068 C3067 1.398 . S
C3068 C3069 1.391 . S
C3069 H3057 0.950 . S
C3069 C3065 1.393 . S
C3069 C3068 1.391 . S
C3070 H3060 0.950 . S
C3070 C3071 1.386 . S
C3070 C3072 1.391 . S
C3071 C3070 1.386 . S
C3071 C3075 1.393 . S
C3072 H3061 0.950 . S
C3072 C3070 1.391 . S
C3072 C3073 1.400 . S
C3073 C3067 1.491 . S
C3073 C3072 1.400 . S
C3073 C3074 1.398 . S
C3074 H3062 0.950 . S
C3074 C3073 1.398 . S
C3074 C3075 1.391 . S
C3075 H3063 0.950 . S
C3075 C3071 1.393 . S
C3075 C3074 1.391 . S
H3076 C3084 0.950 . S
H3077 C3089 0.950 . S
H3078 C3086 0.950 . S
H3079 C3088 0.950 . S
H3080 C3090 0.950 . S
H3081 C3092 0.950 . S
H3082 C3094 0.950 . S
H3083 C3095 0.950 . S
C3084 H3076 0.950 . S
C3084 C3085 1.386 . S
C3084 C3086 1.391 . S
C3085 C3084 1.386 . S
C3085 C3089 1.393 . S
C3086 H3078 0.950 . S
C3086 C3084 1.391 . S
C3086 C3087 1.400 . S
C3087 C3086 1.400 . S
C3087 C3088 1.398 . S
C3087 C3093 1.491 . S
C3088 H3079 0.950 . S
C3088 C3087 1.398 . S
C3088 C3089 1.391 . S
C3089 H3077 0.950 . S
C3089 C3085 1.393 . S
C3089 C3088 1.391 . S
C3090 H3080 0.950 . S
C3090 C3091 1.386 . S
C3090 C3092 1.391 . S
C3091 C3090 1.386 . S
C3091 C3095 1.393 . S
C3092 H3081 0.950 . S
C3092 C3090 1.391 . S
C3092 C3093 1.400 . S
C3093 C3087 1.491 . S
C3093 C3092 1.400 . S
C3093 C3094 1.398 . S
C3094 H3082 0.950 . S
C3094 C3093 1.398 . S
C3094 C3095 1.391 . S
C3095 H3083 0.950 . S
C3095 C3091 1.393 . S
C3095 C3094 1.391 . S
H3096 C3104 0.950 . S
H3097 C3109 0.950 . S
H3098 C3106 0.950 . S
H3099 C3108 0.950 . S
H3100 C3110 0.950 . S
H3101 C3112 0.950 . S
H3102 C3114 0.950 . S
H3103 C3115 0.950 . S
C3104 H3096 0.950 . S
C3104 C3105 1.386 . S
C3104 C3106 1.391 . S
C3105 C3104 1.386 . S
C3105 C3109 1.393 . S
C3106 H3098 0.950 . S
C3106 C3104 1.391 . S
C3106 C3107 1.400 . S
C3107 C3106 1.400 . S
C3107 C3108 1.398 . S
C3107 C3113 1.491 . S
C3108 H3099 0.950 . S
C3108 C3107 1.398 . S
C3108 C3109 1.391 . S
C3109 H3097 0.950 . S
C3109 C3105 1.393 . S
C3109 C3108 1.391 . S
C3110 H3100 0.950 . S
C3110 C3111 1.386 . S
C3110 C3112 1.391 . S
C3111 C3110 1.386 . S
C3111 C3115 1.393 . S
C3112 H3101 0.950 . S
C3112 C3110 1.391 . S
C3112 C3113 1.400 . S
C3113 C3107 1.491 . S
C3113 C3112 1.400 . S
C3113 C3114 1.398 . S
C3114 H3102 0.950 . S
C3114 C3113 1.398 . S
C3114 C3115 1.391 . S
C3115 H3103 0.950 . S
C3115 C3111 1.393 . S
C3115 C3114 1.391 . S
H3116 C3124 0.950 . S
H3117 C3129 0.950 . S
H3118 C3126 0.950 . S
H3119 C3128 0.950 . S
H3120 C3130 0.950 . S
H3121 C3132 0.950 . S
H3122 C3134 0.950 . S
H3123 C3135 0.950 . S
C3124 H3116 0.950 . S
C3124 C3125 1.386 . S
C3124 C3126 1.391 . S
C3125 C3124 1.386 . S
C3125 C3129 1.393 . S
C3126 H3118 0.950 . S
C3126 C3124 1.391 . S
C3126 C3127 1.400 . S
C3127 C3126 1.400 . S
C3127 C3128 1.398 . S
C3127 C3133 1.491 . S
C3128 H3119 0.950 . S
C3128 C3127 1.398 . S
C3128 C3129 1.391 . S
C3129 H3117 0.950 . S
C3129 C3125 1.393 . S
C3129 C3128 1.391 . S
C3130 H3120 0.950 . S
C3130 C3131 1.386 . S
C3130 C3132 1.391 . S
C3131 C3130 1.386 . S
C3131 C3135 1.393 . S
C3132 H3121 0.950 . S
C3132 C3130 1.391 . S
C3132 C3133 1.400 . S
C3133 C3127 1.491 . S
C3133 C3132 1.400 . S
C3133 C3134 1.398 . S
C3134 H3122 0.950 . S
C3134 C3133 1.398 . S
C3134 C3135 1.391 . S
C3135 H3123 0.950 . S
C3135 C3131 1.393 . S
C3135 C3134 1.391 . S
H3136 C3144 0.950 . S
H3137 C3149 0.950 . S
H3138 C3146 0.950 . S
H3139 C3148 0.950 . S
H3140 C3150 0.950 . S
H3141 C3152 0.950 . S
H3142 C3154 0.950 . S
H3143 C3155 0.950 . S
C3144 H3136 0.950 . S
C3144 C3145 1.386 . S
C3144 C3146 1.391 . S
C3145 C3144 1.386 . S
C3145 C3149 1.393 . S
C3146 H3138 0.950 . S
C3146 C3144 1.391 . S
C3146 C3147 1.400 . S
C3147 C3146 1.400 . S
C3147 C3148 1.398 . S
C3147 C3153 1.491 . S
C3148 H3139 0.950 . S
C3148 C3147 1.398 . S
C3148 C3149 1.391 . S
C3149 H3137 0.950 . S
C3149 C3145 1.393 . S
C3149 C3148 1.391 . S
C3150 H3140 0.950 . S
C3150 C3151 1.386 . S
C3150 C3152 1.391 . S
C3151 C3150 1.386 . S
C3151 C3155 1.393 . S
C3152 H3141 0.950 . S
C3152 C3150 1.391 . S
C3152 C3153 1.400 . S
C3153 C3147 1.491 . S
C3153 C3152 1.400 . S
C3153 C3154 1.398 . S
C3154 H3142 0.950 . S
C3154 C3153 1.398 . S
C3154 C3155 1.391 . S
C3155 H3143 0.950 . S
C3155 C3151 1.393 . S
C3155 C3154 1.391 . S
H3156 C3164 0.950 . S
H3157 C3169 0.950 . S
H3158 C3166 0.950 . S
H3159 C3168 0.950 . S
H3160 C3170 0.950 . S
H3161 C3172 0.950 . S
H3162 C3174 0.950 . S
H3163 C3175 0.950 . S
C3164 H3156 0.950 . S
C3164 C3165 1.386 . S
C3164 C3166 1.391 . S
C3165 C3164 1.386 . S
C3165 C3169 1.393 . S
C3166 H3158 0.950 . S
C3166 C3164 1.391 . S
C3166 C3167 1.400 . S
C3167 C3166 1.400 . S
C3167 C3168 1.398 . S
C3167 C3173 1.491 . S
C3168 H3159 0.950 . S
C3168 C3167 1.398 . S
C3168 C3169 1.391 . S
C3169 H3157 0.950 . S
C3169 C3165 1.393 . S
C3169 C3168 1.391 . S
C3170 H3160 0.950 . S
C3170 C3171 1.386 . S
C3170 C3172 1.391 . S
C3171 C3170 1.386 . S
C3171 C3175 1.393 . S
C3172 H3161 0.950 . S
C3172 C3170 1.391 . S
C3172 C3173 1.400 . S
C3173 C3167 1.491 . S
C3173 C3172 1.400 . S
C3173 C3174 1.398 . S
C3174 H3162 0.950 . S
C3174 C3173 1.398 . S
C3174 C3175 1.391 . S
C3175 H3163 0.950 . S
C3175 C3171 1.393 . S
C3175 C3174 1.391 . S
H3176 C3184 0.950 . S
H3177 C3189 0.950 . S
H3178 C3186 0.950 . S
H3179 C3188 0.950 . S
H3180 C3190 0.950 . S
H3181 C3192 0.950 . S
H3182 C3194 0.950 . S
H3183 C3195 0.950 1_554 S
C3184 H3176 0.950 . S
C3184 C3185 1.386 . S
C3184 C3186 1.391 . S
C3185 C3184 1.386 . S
C3185 C3189 1.393 . S
C3186 H3178 0.950 . S
C3186 C3184 1.391 . S
C3186 C3187 1.400 . S
C3187 C3186 1.400 . S
C3187 C3188 1.398 . S
C3187 C3193 1.491 . S
C3188 H3179 0.950 . S
C3188 C3187 1.398 . S
C3188 C3189 1.391 . S
C3189 H3177 0.950 . S
C3189 C3185 1.393 . S
C3189 C3188 1.391 . S
C3190 H3180 0.950 . S
C3190 C3191 1.386 . S
C3190 C3192 1.391 . S
C3191 C3190 1.386 . S
C3191 C3195 1.393 . S
C3192 H3181 0.950 . S
C3192 C3190 1.391 . S
C3192 C3193 1.400 . S
C3193 C3187 1.491 . S
C3193 C3192 1.400 . S
C3193 C3194 1.398 . S
C3194 H3182 0.950 . S
C3194 C3193 1.398 . S
C3194 C3195 1.391 . S
C3195 H3183 0.950 1_556 S
C3195 C3191 1.393 . S
C3195 C3194 1.391 . S
H3196 C3204 0.950 . S
H3197 C3209 0.950 . S
H3198 C3206 0.950 . S
H3199 C3208 0.950 . S
H3200 C3210 0.950 . S
H3201 C3212 0.950 . S
H3202 C3214 0.950 . S
H3203 C3215 0.950 . S
C3204 H3196 0.950 . S
C3204 C3205 1.386 . S
C3204 C3206 1.391 . S
C3205 C3204 1.386 . S
C3205 C3209 1.393 . S
C3206 H3198 0.950 . S
C3206 C3204 1.391 . S
C3206 C3207 1.400 . S
C3207 C3206 1.400 . S
C3207 C3208 1.398 . S
C3207 C3213 1.491 . S
C3208 H3199 0.950 . S
C3208 C3207 1.398 . S
C3208 C3209 1.391 . S
C3209 H3197 0.950 . S
C3209 C3205 1.393 . S
C3209 C3208 1.391 . S
C3210 H3200 0.950 . S
C3210 C3211 1.386 . S
C3210 C3212 1.391 . S
C3211 C3210 1.386 . S
C3211 C3215 1.393 . S
C3212 H3201 0.950 . S
C3212 C3210 1.391 . S
C3212 C3213 1.400 . S
C3213 C3207 1.491 . S
C3213 C3212 1.400 . S
C3213 C3214 1.398 . S
C3214 H3202 0.950 . S
C3214 C3213 1.398 . S
C3214 C3215 1.391 . S
C3215 H3203 0.950 . S
C3215 C3211 1.393 . S
C3215 C3214 1.391 . S
H3216 C3224 0.950 . S
H3217 C3229 0.950 . S
H3218 C3226 0.950 . S
H3219 C3228 0.950 . S
H3220 C3230 0.950 . S
H3221 C3232 0.950 . S
H3222 C3234 0.950 . S
H3223 C3235 0.950 . S
C3224 H3216 0.950 . S
C3224 C3225 1.386 . S
C3224 C3226 1.391 . S
C3225 C3224 1.386 . S
C3225 C3229 1.393 . S
C3226 H3218 0.950 . S
C3226 C3224 1.391 . S
C3226 C3227 1.400 . S
C3227 C3226 1.400 . S
C3227 C3228 1.398 . S
C3227 C3233 1.491 . S
C3228 H3219 0.950 . S
C3228 C3227 1.398 . S
C3228 C3229 1.391 . S
C3229 H3217 0.950 . S
C3229 C3225 1.393 . S
C3229 C3228 1.391 . S
C3230 H3220 0.950 . S
C3230 C3231 1.386 . S
C3230 C3232 1.391 . S
C3231 C3230 1.386 . S
C3231 C3235 1.393 . S
C3232 H3221 0.950 . S
C3232 C3230 1.391 . S
C3232 C3233 1.400 . S
C3233 C3227 1.491 . S
C3233 C3232 1.400 . S
C3233 C3234 1.398 . S
C3234 H3222 0.950 . S
C3234 C3233 1.398 . S
C3234 C3235 1.391 . S
C3235 H3223 0.950 . S
C3235 C3231 1.393 . S
C3235 C3234 1.391 . S
H3236 C3244 0.950 . S
H3237 C3249 0.950 . S
H3238 C3246 0.950 . S
H3239 C3248 0.950 . S
H3240 C3250 0.950 . S
H3241 C3252 0.950 . S
H3242 C3254 0.950 . S
H3243 C3255 0.950 . S
C3244 H3236 0.950 . S
C3244 C3245 1.386 . S
C3244 C3246 1.391 . S
C3245 C3244 1.386 . S
C3245 C3249 1.393 . S
C3246 H3238 0.950 . S
C3246 C3244 1.391 . S
C3246 C3247 1.400 . S
C3247 C3246 1.400 . S
C3247 C3248 1.398 . S
C3247 C3253 1.491 . S
C3248 H3239 0.950 . S
C3248 C3247 1.398 . S
C3248 C3249 1.391 . S
C3249 H3237 0.950 . S
C3249 C3245 1.393 . S
C3249 C3248 1.391 . S
C3250 H3240 0.950 . S
C3250 C3251 1.386 . S
C3250 C3252 1.391 . S
C3251 C3250 1.386 . S
C3251 C3255 1.393 . S
C3252 H3241 0.950 . S
C3252 C3250 1.391 . S
C3252 C3253 1.400 . S
C3253 C3247 1.491 . S
C3253 C3252 1.400 . S
C3253 C3254 1.398 . S
C3254 H3242 0.950 . S
C3254 C3253 1.398 . S
C3254 C3255 1.391 . S
C3255 H3243 0.950 . S
C3255 C3251 1.393 . S
C3255 C3254 1.391 . S
H3256 C3264 0.950 . S
H3257 C3269 0.950 . S
H3258 C3266 0.950 . S
H3259 C3268 0.950 . S
H3260 C3270 0.950 . S
H3261 C3272 0.950 . S
H3262 C3274 0.950 . S
H3263 C3275 0.950 . S
C3264 H3256 0.950 . S
C3264 C3265 1.386 . S
C3264 C3266 1.391 . S
C3265 C3264 1.386 . S
C3265 C3269 1.393 . S
C3266 H3258 0.950 . S
C3266 C3264 1.391 . S
C3266 C3267 1.400 . S
C3267 C3266 1.400 . S
C3267 C3268 1.398 . S
C3267 C3273 1.491 . S
C3268 H3259 0.950 . S
C3268 C3267 1.398 . S
C3268 C3269 1.391 . S
C3269 H3257 0.950 . S
C3269 C3265 1.393 . S
C3269 C3268 1.391 . S
C3270 H3260 0.950 . S
C3270 C3271 1.386 . S
C3270 C3272 1.391 . S
C3271 C3270 1.386 . S
C3271 C3275 1.393 . S
C3272 H3261 0.950 . S
C3272 C3270 1.391 . S
C3272 C3273 1.400 . S
C3273 C3267 1.491 . S
C3273 C3272 1.400 . S
C3273 C3274 1.398 . S
C3274 H3262 0.950 . S
C3274 C3273 1.398 . S
C3274 C3275 1.391 . S
C3275 H3263 0.950 . S
C3275 C3271 1.393 . S
C3275 C3274 1.391 . S
H3276 C3284 0.950 . S
H3277 C3289 0.950 . S
H3278 C3286 0.950 . S
H3279 C3288 0.950 . S
H3280 C3290 0.950 . S
H3281 C3292 0.950 . S
H3282 C3294 0.950 . S
H3283 C3295 0.950 . S
C3284 H3276 0.950 . S
C3284 C3285 1.386 . S
C3284 C3286 1.391 . S
C3285 C3284 1.386 . S
C3285 C3289 1.393 . S
C3286 H3278 0.950 . S
C3286 C3284 1.391 . S
C3286 C3287 1.400 . S
C3287 C3286 1.400 . S
C3287 C3288 1.398 . S
C3287 C3293 1.491 . S
C3288 H3279 0.950 . S
C3288 C3287 1.398 . S
C3288 C3289 1.391 . S
C3289 H3277 0.950 . S
C3289 C3285 1.393 . S
C3289 C3288 1.391 . S
C3290 H3280 0.950 . S
C3290 C3291 1.386 . S
C3290 C3292 1.391 . S
C3291 C3290 1.386 . S
C3291 C3295 1.393 . S
C3292 H3281 0.950 . S
C3292 C3290 1.391 . S
C3292 C3293 1.400 . S
C3293 C3287 1.491 . S
C3293 C3292 1.400 . S
C3293 C3294 1.398 . S
C3294 H3282 0.950 . S
C3294 C3293 1.398 . S
C3294 C3295 1.391 . S
C3295 H3283 0.950 . S
C3295 C3291 1.393 . S
C3295 C3294 1.391 . S
H3296 C3304 0.950 . S
H3297 C3309 0.950 . S
H3298 C3306 0.950 . S
H3299 C3308 0.950 . S
H3300 C3310 0.950 . S
H3301 C3312 0.950 . S
H3302 C3314 0.950 . S
H3303 C3315 0.950 . S
C3304 H3296 0.950 . S
C3304 C3305 1.386 . S
C3304 C3306 1.391 . S
C3305 C3304 1.386 . S
C3305 C3309 1.393 . S
C3306 H3298 0.950 . S
C3306 C3304 1.391 . S
C3306 C3307 1.400 . S
C3307 C3306 1.400 . S
C3307 C3308 1.398 . S
C3307 C3313 1.491 . S
C3308 H3299 0.950 . S
C3308 C3307 1.398 . S
C3308 C3309 1.391 . S
C3309 H3297 0.950 . S
C3309 C3305 1.393 . S
C3309 C3308 1.391 . S
C3310 H3300 0.950 . S
C3310 C3311 1.386 . S
C3310 C3312 1.391 . S
C3311 C3310 1.386 . S
C3311 C3315 1.393 1_455 S
C3312 H3301 0.950 . S
C3312 C3310 1.391 . S
C3312 C3313 1.400 1_455 S
C3313 C3307 1.491 . S
C3313 C3312 1.400 1_655 S
C3313 C3314 1.398 . S
C3314 H3302 0.950 . S
C3314 C3313 1.398 . S
C3314 C3315 1.391 . S
C3315 H3303 0.950 . S
C3315 C3311 1.393 1_655 S
C3315 C3314 1.391 . S
H3316 C3324 0.950 . S
H3317 C3329 0.950 . S
H3318 C3326 0.950 . S
H3319 C3328 0.950 . S
H3320 C3330 0.950 . S
H3321 C3332 0.950 . S
H3322 C3334 0.950 . S
H3323 C3335 0.950 . S
C3324 H3316 0.950 . S
C3324 C3325 1.386 . S
C3324 C3326 1.391 . S
C3325 C3324 1.386 . S
C3325 C3329 1.393 . S
C3326 H3318 0.950 . S
C3326 C3324 1.391 . S
C3326 C3327 1.400 . S
C3327 C3326 1.400 . S
C3327 C3328 1.398 . S
C3327 C3333 1.491 . S
C3328 H3319 0.950 . S
C3328 C3327 1.398 . S
C3328 C3329 1.391 . S
C3329 H3317 0.950 . S
C3329 C3325 1.393 . S
C3329 C3328 1.391 . S
C3330 H3320 0.950 . S
C3330 C3331 1.386 . S
C3330 C3332 1.391 . S
C3331 C3330 1.386 . S
C3331 C3335 1.393 . S
C3332 H3321 0.950 . S
C3332 C3330 1.391 . S
C3332 C3333 1.400 . S
C3333 C3327 1.491 . S
C3333 C3332 1.400 . S
C3333 C3334 1.398 . S
C3334 H3322 0.950 . S
C3334 C3333 1.398 . S
C3334 C3335 1.391 . S
C3335 H3323 0.950 . S
C3335 C3331 1.393 . S
C3335 C3334 1.391 . S
H3336 C3344 0.950 . S
H3337 C3349 0.950 . S
H3338 C3346 0.950 . S
H3339 C3348 0.950 . S
H3340 C3350 0.950 . S
H3341 C3352 0.950 . S
H3342 C3354 0.950 . S
H3343 C3355 0.950 . S
C3344 H3336 0.950 . S
C3344 C3345 1.386 . S
C3344 C3346 1.391 . S
C3345 C3344 1.386 . S
C3345 C3349 1.393 . S
C3346 H3338 0.950 . S
C3346 C3344 1.391 . S
C3346 C3347 1.400 . S
C3347 C3346 1.400 . S
C3347 C3348 1.398 . S
C3347 C3353 1.491 . S
C3348 H3339 0.950 . S
C3348 C3347 1.398 . S
C3348 C3349 1.391 . S
C3349 H3337 0.950 . S
C3349 C3345 1.393 . S
C3349 C3348 1.391 . S
C3350 H3340 0.950 . S
C3350 C3351 1.386 . S
C3350 C3352 1.391 . S
C3351 C3350 1.386 . S
C3351 C3355 1.393 . S
C3352 H3341 0.950 . S
C3352 C3350 1.391 . S
C3352 C3353 1.400 . S
C3353 C3347 1.491 . S
C3353 C3352 1.400 . S
C3353 C3354 1.398 . S
C3354 H3342 0.950 . S
C3354 C3353 1.398 . S
C3354 C3355 1.391 . S
C3355 H3343 0.950 . S
C3355 C3351 1.393 . S
C3355 C3354 1.391 . S
H3356 C3364 0.950 . S
H3357 C3369 0.950 . S
H3358 C3366 0.950 . S
H3359 C3368 0.950 . S
H3360 C3370 0.950 . S
H3361 C3372 0.950 . S
H3362 C3374 0.950 . S
H3363 C3375 0.950 . S
C3364 H3356 0.950 . S
C3364 C3365 1.386 . S
C3364 C3366 1.391 . S
C3365 C3364 1.386 . S
C3365 C3369 1.393 . S
C3366 H3358 0.950 . S
C3366 C3364 1.391 . S
C3366 C3367 1.400 . S
C3367 C3366 1.400 . S
C3367 C3368 1.398 . S
C3367 C3373 1.491 . S
C3368 H3359 0.950 . S
C3368 C3367 1.398 . S
C3368 C3369 1.391 . S
C3369 H3357 0.950 . S
C3369 C3365 1.393 . S
C3369 C3368 1.391 . S
C3370 H3360 0.950 . S
C3370 C3371 1.386 . S
C3370 C3372 1.391 . S
C3371 C3370 1.386 . S
C3371 C3375 1.393 . S
C3372 H3361 0.950 . S
C3372 C3370 1.391 . S
C3372 C3373 1.400 . S
C3373 C3367 1.491 . S
C3373 C3372 1.400 . S
C3373 C3374 1.398 . S
C3374 H3362 0.950 . S
C3374 C3373 1.398 . S
C3374 C3375 1.391 . S
C3375 H3363 0.950 . S
C3375 C3371 1.393 . S
C3375 C3374 1.391 . S
H3376 C3384 0.950 . S
H3377 C3389 0.950 . S
H3378 C3386 0.950 . S
H3379 C3388 0.950 . S
H3380 C3390 0.950 1_455 S
H3381 C3392 0.950 . S
H3382 C3394 0.950 . S
H3383 C3395 0.950 . S
C3384 H3376 0.950 . S
C3384 C3385 1.386 . S
C3384 C3386 1.391 . S
C3385 C3384 1.386 . S
C3385 C3389 1.393 . S
C3386 H3378 0.950 . S
C3386 C3384 1.391 . S
C3386 C3387 1.400 . S
C3387 C3386 1.400 . S
C3387 C3388 1.398 . S
C3387 C3393 1.491 . S
C3388 H3379 0.950 . S
C3388 C3387 1.398 . S
C3388 C3389 1.391 . S
C3389 H3377 0.950 . S
C3389 C3385 1.393 . S
C3389 C3388 1.391 . S
C3390 H3380 0.950 1_655 S
C3390 C3391 1.386 . S
C3390 C3392 1.391 . S
C3391 C3390 1.386 . S
C3391 C3395 1.393 . S
C3392 H3381 0.950 . S
C3392 C3390 1.391 . S
C3392 C3393 1.400 . S
C3393 C3387 1.491 . S
C3393 C3392 1.400 . S
C3393 C3394 1.398 . S
C3394 H3382 0.950 . S
C3394 C3393 1.398 . S
C3394 C3395 1.391 . S
C3395 H3383 0.950 . S
C3395 C3391 1.393 . S
C3395 C3394 1.391 . S
H3396 C3404 0.950 . S
H3397 C3409 0.950 . S
H3398 C3406 0.950 . S
H3399 C3408 0.950 . S
H3400 C3410 0.950 . S
H3401 C3412 0.950 . S
H3402 C3414 0.950 . S
H3403 C3415 0.950 . S
C3404 H3396 0.950 . S
C3404 C3405 1.386 . S
C3404 C3406 1.391 . S
C3405 C3404 1.386 . S
C3405 C3409 1.393 . S
C3406 H3398 0.950 . S
C3406 C3404 1.391 . S
C3406 C3407 1.400 . S
C3407 C3406 1.400 . S
C3407 C3408 1.398 . S
C3407 C3413 1.491 . S
C3408 H3399 0.950 . S
C3408 C3407 1.398 . S
C3408 C3409 1.391 . S
C3409 H3397 0.950 . S
C3409 C3405 1.393 . S
C3409 C3408 1.391 . S
C3410 H3400 0.950 . S
C3410 C3411 1.386 . S
C3410 C3412 1.391 . S
C3411 C3410 1.386 . S
C3411 C3415 1.393 . S
C3412 H3401 0.950 . S
C3412 C3410 1.391 . S
C3412 C3413 1.400 . S
C3413 C3407 1.491 . S
C3413 C3412 1.400 . S
C3413 C3414 1.398 . S
C3414 H3402 0.950 . S
C3414 C3413 1.398 . S
C3414 C3415 1.391 . S
C3415 H3403 0.950 . S
C3415 C3411 1.393 . S
C3415 C3414 1.391 . S
H3416 C3424 0.950 . S
H3417 C3429 0.950 . S
H3418 C3426 0.950 . S
H3419 C3428 0.950 . S
H3420 C3430 0.950 . S
H3421 C3432 0.950 . S
H3422 C3434 0.950 . S
H3423 C3435 0.950 . S
C3424 H3416 0.950 . S
C3424 C3425 1.386 . S
C3424 C3426 1.391 . S
C3425 C3424 1.386 . S
C3425 C3429 1.393 . S
C3426 H3418 0.950 . S
C3426 C3424 1.391 . S
C3426 C3427 1.400 . S
C3427 C3426 1.400 . S
C3427 C3428 1.398 . S
C3427 C3433 1.491 . S
C3428 H3419 0.950 . S
C3428 C3427 1.398 . S
C3428 C3429 1.391 . S
C3429 H3417 0.950 . S
C3429 C3425 1.393 . S
C3429 C3428 1.391 . S
C3430 H3420 0.950 . S
C3430 C3431 1.386 . S
C3430 C3432 1.391 . S
C3431 C3430 1.386 . S
C3431 C3435 1.393 . S
C3432 H3421 0.950 . S
C3432 C3430 1.391 . S
C3432 C3433 1.400 . S
C3433 C3427 1.491 . S
C3433 C3432 1.400 . S
C3433 C3434 1.398 . S
C3434 H3422 0.950 . S
C3434 C3433 1.398 . S
C3434 C3435 1.391 . S
C3435 H3423 0.950 . S
C3435 C3431 1.393 . S
C3435 C3434 1.391 . S
H3436 C3444 0.950 . S
H3437 C3449 0.950 . S
H3438 C3446 0.950 . S
H3439 C3448 0.950 . S
H3440 C3450 0.950 1_545 S
H3441 C3452 0.950 . S
H3442 C3454 0.950 . S
H3443 C3455 0.950 1_455 S
C3444 H3436 0.950 . S
C3444 C3445 1.386 . S
C3444 C3446 1.391 . S
C3445 C3444 1.386 . S
C3445 C3449 1.393 . S
C3446 H3438 0.950 . S
C3446 C3444 1.391 . S
C3446 C3447 1.400 . S
C3447 C3446 1.400 . S
C3447 C3448 1.398 . S
C3447 C3453 1.491 . S
C3448 H3439 0.950 . S
C3448 C3447 1.398 . S
C3448 C3449 1.391 . S
C3449 H3437 0.950 . S
C3449 C3445 1.393 . S
C3449 C3448 1.391 . S
C3450 H3440 0.950 1_565 S
C3450 C3451 1.386 . S
C3450 C3452 1.391 . S
C3451 C3450 1.386 . S
C3451 C3455 1.393 . S
C3452 H3441 0.950 . S
C3452 C3450 1.391 . S
C3452 C3453 1.400 . S
C3453 C3447 1.491 . S
C3453 C3452 1.400 . S
C3453 C3454 1.398 . S
C3454 H3442 0.950 . S
C3454 C3453 1.398 . S
C3454 C3455 1.391 . S
C3455 H3443 0.950 1_655 S
C3455 C3451 1.393 . S
C3455 C3454 1.391 . S
H3456 C3464 0.950 . S
H3457 C3469 0.950 . S
H3458 C3466 0.950 . S
H3459 C3468 0.950 . S
H3460 C3470 0.950 . S
H3461 C3472 0.950 . S
H3462 C3474 0.950 . S
H3463 C3475 0.950 . S
C3464 H3456 0.950 . S
C3464 C3465 1.386 . S
C3464 C3466 1.391 . S
C3465 C3464 1.386 . S
C3465 C3469 1.393 . S
C3466 H3458 0.950 . S
C3466 C3464 1.391 . S
C3466 C3467 1.400 . S
C3467 C3466 1.400 . S
C3467 C3468 1.398 . S
C3467 C3473 1.491 . S
C3468 H3459 0.950 . S
C3468 C3467 1.398 . S
C3468 C3469 1.391 . S
C3469 H3457 0.950 . S
C3469 C3465 1.393 . S
C3469 C3468 1.391 . S
C3470 H3460 0.950 . S
C3470 C3471 1.386 . S
C3470 C3472 1.391 . S
C3471 C3470 1.386 . S
C3471 C3475 1.393 . S
C3472 H3461 0.950 . S
C3472 C3470 1.391 . S
C3472 C3473 1.400 . S
C3473 C3467 1.491 . S
C3473 C3472 1.400 . S
C3473 C3474 1.398 . S
C3474 H3462 0.950 . S
C3474 C3473 1.398 . S
C3474 C3475 1.391 . S
C3475 H3463 0.950 . S
C3475 C3471 1.393 . S
C3475 C3474 1.391 . S
H3476 C3484 0.950 1_556 S
H3477 C3489 0.950 . S
H3478 C3486 0.950 1_556 S
H3479 C3488 0.950 . S
H3480 C3490 0.950 . S
H3481 C3492 0.950 . S
H3482 C3494 0.928 1_556 S
H3483 C3495 0.950 . S
C3484 H3476 0.950 1_554 S
C3484 C3485 1.386 . S
C3484 C3486 1.391 . S
C3485 C3484 1.386 . S
C3485 C3489 1.393 . S
C3486 H3478 0.950 1_554 S
C3486 C3484 1.391 . S
C3486 C3487 1.400 . S
C3487 C3486 1.400 . S
C3487 C3488 1.398 . S
C3487 C3493 1.491 . S
C3488 H3479 0.950 . S
C3488 C3487 1.398 . S
C3488 C3489 1.391 . S
C3489 H3477 0.950 . S
C3489 C3485 1.393 . S
C3489 C3488 1.391 . S
C3490 H3480 0.950 . S
C3490 C3491 1.386 . S
C3490 C3492 1.391 . S
C3491 C3490 1.386 . S
C3491 C3495 1.393 1_554 S
C3492 H3481 0.950 . S
C3492 C3490 1.391 . S
C3492 C3493 1.400 . S
C3493 C3487 1.491 . S
C3493 C3492 1.400 . S
C3493 C3494 1.420 . S
C3494 H3482 0.928 1_554 S
C3494 C3493 1.420 . S
C3494 C3495 1.392 1_554 S
C3495 H3483 0.950 . S
C3495 C3491 1.393 1_556 S
C3495 C3494 1.392 1_556 S
H3496 C3504 0.950 . S
H3497 C3509 0.950 . S
H3498 C3506 0.950 . S
H3499 C3508 0.950 . S
H3500 C3510 0.950 . S
H3501 C3512 0.950 . S
H3502 C3514 0.950 . S
H3503 C3515 0.950 . S
C3504 H3496 0.950 . S
C3504 C3505 1.386 . S
C3504 C3506 1.391 . S
C3505 C3504 1.386 . S
C3505 C3509 1.393 . S
C3506 H3498 0.950 . S
C3506 C3504 1.391 . S
C3506 C3507 1.400 . S
C3507 C3506 1.400 . S
C3507 C3508 1.398 . S
C3507 C3513 1.491 . S
C3508 H3499 0.950 . S
C3508 C3507 1.398 . S
C3508 C3509 1.391 . S
C3509 H3497 0.950 . S
C3509 C3505 1.393 . S
C3509 C3508 1.391 . S
C3510 H3500 0.950 . S
C3510 C3511 1.386 . S
C3510 C3512 1.391 . S
C3511 C3510 1.386 . S
C3511 C3515 1.393 . S
C3512 H3501 0.950 . S
C3512 C3510 1.391 . S
C3512 C3513 1.400 . S
C3513 C3507 1.491 . S
C3513 C3512 1.400 . S
C3513 C3514 1.398 . S
C3514 H3502 0.950 . S
C3514 C3513 1.398 . S
C3514 C3515 1.391 . S
C3515 H3503 0.950 . S
C3515 C3511 1.393 . S
C3515 C3514 1.391 . S
H3516 C3524 0.950 . S
H3517 C3529 0.950 . S
H3518 C3526 0.950 . S
H3519 C3528 0.950 . S
H3520 C3530 0.934 1_556 S
H3521 C3532 0.950 . S
H3522 C3534 0.950 . S
H3523 C3535 0.950 . S
C3524 H3516 0.950 . S
C3524 C3525 1.386 . S
C3524 C3526 1.391 . S
C3525 C3524 1.386 . S
C3525 C3529 1.393 . S
C3526 H3518 0.950 . S
C3526 C3524 1.391 . S
C3526 C3527 1.400 . S
C3527 C3526 1.400 . S
C3527 C3528 1.398 . S
C3527 C3533 1.491 . S
C3528 H3519 0.950 . S
C3528 C3527 1.398 . S
C3528 C3529 1.391 . S
C3529 H3517 0.950 . S
C3529 C3525 1.393 . S
C3529 C3528 1.391 . S
C3530 H3520 0.934 1_554 S
C3530 C3531 1.386 . S
C3530 C3532 1.391 . S
C3531 C3530 1.386 . S
C3531 C3535 1.393 . S
C3532 H3521 0.950 . S
C3532 C3530 1.391 . S
C3532 C3533 1.400 . S
C3533 C3527 1.491 . S
C3533 C3532 1.400 . S
C3533 C3534 1.398 . S
C3534 H3522 0.950 . S
C3534 C3533 1.398 . S
C3534 C3535 1.391 . S
C3535 H3523 0.950 . S
C3535 C3531 1.393 . S
C3535 C3534 1.391 . S
H3536 C3544 0.950 . S
H3537 C3549 0.950 . S
H3538 C3546 0.950 . S
H3539 C3548 0.950 . S
H3540 C3550 0.950 . S
H3541 C3552 0.950 . S
H3542 C3554 0.950 . S
H3543 C3555 0.950 . S
C3544 H3536 0.950 . S
C3544 C3545 1.386 . S
C3544 C3546 1.391 . S
C3545 C3544 1.386 . S
C3545 C3549 1.393 . S
C3546 H3538 0.950 . S
C3546 C3544 1.391 . S
C3546 C3547 1.400 . S
C3547 C3546 1.400 . S
C3547 C3548 1.398 . S
C3547 C3553 1.491 . S
C3548 H3539 0.950 . S
C3548 C3547 1.398 . S
C3548 C3549 1.391 . S
C3549 H3537 0.950 . S
C3549 C3545 1.393 . S
C3549 C3548 1.391 . S
C3550 H3540 0.950 . S
C3550 C3551 1.386 . S
C3550 C3552 1.391 . S
C3551 C3550 1.386 . S
C3551 C3555 1.393 . S
C3552 H3541 0.950 . S
C3552 C3550 1.391 . S
C3552 C3553 1.400 . S
C3553 C3547 1.491 . S
C3553 C3552 1.400 . S
C3553 C3554 1.398 . S
C3554 H3542 0.950 . S
C3554 C3553 1.398 . S
C3554 C3555 1.391 . S
C3555 H3543 0.950 . S
C3555 C3551 1.393 . S
C3555 C3554 1.391 . S
H3556 C3564 0.950 . S
H3557 C3569 0.950 . S
H3558 C3566 0.950 . S
H3559 C3568 0.950 . S
H3560 C3570 0.950 . S
H3561 C3572 0.950 . S
H3562 C3574 0.950 . S
H3563 C3575 0.950 . S
C3564 H3556 0.950 . S
C3564 C3565 1.386 . S
C3564 C3566 1.391 . S
C3565 C3564 1.386 . S
C3565 C3569 1.393 . S
C3566 H3558 0.950 . S
C3566 C3564 1.391 . S
C3566 C3567 1.400 . S
C3567 C3566 1.400 . S
C3567 C3568 1.398 . S
C3567 C3573 1.491 . S
C3568 H3559 0.950 . S
C3568 C3567 1.398 . S
C3568 C3569 1.391 . S
C3569 H3557 0.950 . S
C3569 C3565 1.393 . S
C3569 C3568 1.391 . S
C3570 H3560 0.950 . S
C3570 C3571 1.386 . S
C3570 C3572 1.391 . S
C3571 C3570 1.386 . S
C3571 C3575 1.393 . S
C3572 H3561 0.950 . S
C3572 C3570 1.391 . S
C3572 C3573 1.400 . S
C3573 C3567 1.491 . S
C3573 C3572 1.400 . S
C3573 C3574 1.398 . S
C3574 H3562 0.950 . S
C3574 C3573 1.398 . S
C3574 C3575 1.391 . S
C3575 H3563 0.950 . S
C3575 C3571 1.393 . S
C3575 C3574 1.391 . S
C1665 C101 1.724 . S
C1671 C368 1.546 . S
C1685 C57 2.174 . S
C1691 C459 2.136 . S
C1705 C70 1.391 . S
C1711 C536 1.284 . S
C1731 C634 1.466 . S
C1725 C82 1.551 . S
C1745 C23 1.600 . S
C1751 C718 1.591 . S
C1771 C790 0.850 . S
C1765 C29 0.913 . S
C1791 C879 0.818 . S
C1785 C49 0.787 . S
C1805 C10 1.539 . S
C1811 C956 1.305 . S
C1831 C375 1.948 . S
C1825 C218 2.032 . S
C1845 C226 0.719 . S
C1851 C466 0.755 . S
C1871 C543 1.221 . S
C1865 C251 1.267 . S
C1891 C620 1.411 . S
C1885 C159 1.536 . S
C1905 C211 2.091 . S
C1911 C704 1.898 . S
C1931 C806 1.141 . S
C1925 C225 1.227 . S
C1951 C886 0.786 . S
C1945 C252 0.770 . S
C1971 C963 1.458 . S
C1965 C166 1.609 . S
C1991 C382 1.429 . S
C1985 C147 1.487 . S
C2005 C263 1.883 . S
C2011 C1047 1.823 1_556 S
C2031 C1135 2.155 . S
C2025 C309 2.371 . S
C2051 C1208 0.527 1_655 S
C2045 C291 0.316 . S
C2065 C108 1.077 . S
C2071 C970 1.138 . S
C2085 C121 1.486 . S
C2091 C550 1.488 . S
C2105 C302 2.186 . S
C2111 C1299 2.095 . S
C2131 C1376 0.738 . S
C2125 C276 0.690 . S
C2151 C379 1.804 1_565 S
C2145 C55 1.925 . S
C2171 C1394 2.348 . S
C2165 C96 2.399 . S
C2185 C88 1.750 . S
C2191 C547 1.663 . S
C2205 C75 1.787 . S
C2211 C1294 1.618 . S
C2231 C706 1.608 . S
C2225 C4 1.658 . S
C2245 C44 1.148 . S
C2251 C1138 1.038 . S
C2271 C890 1.212 1_565 S
C2265 C31 1.212 . S
C2291 C1471 1.532 . S
C2285 C18 1.645 . S
C2311 C386 2.201 . S
C2305 C133 2.304 . S
C2331 C1378 0.869 . S
C2325 C296 0.870 . S
C2345 C107 1.413 . S
C2351 C554 1.376 . S
C2365 C264 1.867 . S
C2371 C1303 1.756 . S
C2385 C140 2.290 . S
C2391 C715 2.143 . S
C2411 C1131 1.245 . S
C2405 C289 1.353 . S
C2425 C114 0.993 . S
C2431 C874 0.914 . S
C2445 C265 1.854 . S
C2451 C1478 1.744 . S
C2465 C179 1.591 . S
C2471 C370 1.461 . S
C2485 C161 2.141 . S
C2491 C1058 2.049 . S
C2505 C244 2.612 . S
C2511 C788 2.454 . S
C2525 C224 0.832 . S
C2531 C1219 0.807 . S
C2551 C1462 0.936 . S
C2545 C257 0.938 1_565 S
C2565 C199 1.581 . S
C2571 C538 1.526 . S
C2591 C638 2.349 . S
C2585 C237 2.445 . S
C2611 C463 0.942 . S
C2605 C185 0.983 . S
C2625 C69 1.721 . S
C2631 C1544 1.541 . S
C2651 C1383 2.126 . S
C2645 C83 2.165 . S
C2665 C94 1.390 . S
C2671 C1628 1.298 . S
C2685 C56 1.562 . S
C2691 C1306 1.436 . S
C2705 C42 1.606 . S
C2711 C1054 1.604 . S
C2731 C1126 0.862 . S
C2725 C3 0.916 . S
C2751 C1215 0.788 . S
C2745 C16 0.822 . S
C2771 C1460 1.313 . S
C2765 C36 1.543 . S
C2791 C1551 1.948 . S
C2785 C238 2.032 . S
C2805 C174 0.715 . S
C2811 C1390 0.705 . S
C2831 C1635 1.197 . S
C2825 C186 1.249 . S
C2851 C1292 1.434 . S
C2845 C198 1.535 . S
C2871 C1040 1.902 . S
C2865 C239 2.093 . S
C2885 C173 1.227 . S
C2891 C1142 1.138 . S
C2911 C1222 0.798 . S
C2905 C187 0.772 . S
C2925 C205 1.607 . S
C2931 C1467 1.448 . S
C2951 C1558 1.404 . S
C2945 C290 1.493 . S
C2965 C122 1.890 . S
C2971 C711 1.817 . S
C2991 C799 2.163 . S
C2985 C134 2.376 . S
C3011 C872 0.535 . S
C3005 C148 0.313 . S
C3031 C1474 1.137 . S
C3025 C283 1.074 . S
C3045 C270 1.494 . S
C3051 C1642 1.485 . S
C3071 C627 2.111 . S
C3065 C135 2.173 . S
C3091 C452 0.708 . S
C3085 C109 0.660 . S
C3105 C81 1.937 . S
C3111 C1555 1.829 . S
C3131 C470 2.359 . S
C3125 C68 2.395 . S
C3145 C62 1.751 . S
C3151 C1639 1.675 . S
C3165 C95 1.784 . S
C3171 C622 1.644 . S
C3185 C30 1.655 . S
C3191 C1042 1.613 . S
C3211 C802 1.021 . S
C3205 C17 1.143 . S
C3225 C5 1.211 . S
C3231 C1226 1.214 . S
C3245 C43 1.644 . S
C3251 C967 1.526 . S
C3271 C1562 2.190 . S
C3265 C304 2.304 . S
C3285 C153 0.867 . S
C3291 C454 0.865 . S
C3311 C1646 1.377 . S
C3305 C278 1.414 . S
C3325 C127 1.861 . S
C3331 C631 1.773 . S
C3345 C303 2.276 . S
C3351 C1051 2.123 . S
C3371 C795 1.250 . S
C3365 C146 1.357 . S
C3385 C277 0.987 . S
C3391 C1210 0.886 . S
C3411 C974 1.739 . S
C3405 C120 1.850 . S
C3431 C1546 1.485 . S
C3425 C231 1.591 . S
C3451 C722 2.066 1_665 S
C3445 C200 2.137 . S
C3465 C212 2.610 . S
C3471 C1124 2.444 . S
C3491 C883 0.823 . S
C3485 C172 0.840 . S
C3505 C192 0.959 . S
C3511 C958 0.908 . S
C3525 C160 1.588 . S
C3531 C1630 1.507 . S
C3551 C1310 2.356 . S
C3545 C213 2.447 1_565 S
C3571 C1387 0.948 . S
C3565 C250 0.985 . S
