# Generated by pormake.
# Topology apo, (3,6)-cn, num edge types: 1
# Building blocks:
#     Node 0, Type 0, BuildingBlock: OLANEW_clean_sbu_2, # of connection points: 3
#     Node 1, Type 0, BuildingBlock: OLANEW_clean_sbu_2, # of connection points: 3
#     Node 2, Type 0, BuildingBlock: OLANEW_clean_sbu_2, # of connection points: 3
#     Node 3, Type 0, BuildingBlock: OLANEW_clean_sbu_2, # of connection points: 3
#     Node 4, Type 0, BuildingBlock: OLANEW_clean_sbu_2, # of connection points: 3
#     Node 5, Type 0, BuildingBlock: OLANEW_clean_sbu_2, # of connection points: 3
#     Node 6, Type 0, BuildingBlock: OLANEW_clean_sbu_2, # of connection points: 3
#     Node 7, Type 0, BuildingBlock: OLANEW_clean_sbu_2, # of connection points: 3
#     Node 8, Type 1, BuildingBlock: MIDCAF_clean_sbu_0, # of connection points: 6
#     Node 9, Type 1, BuildingBlock: MIDCAF_clean_sbu_0, # of connection points: 6
#     Node 10, Type 1, BuildingBlock: MIDCAF_clean_sbu_0, # of connection points: 6
#     Node 11, Type 1, BuildingBlock: MIDCAF_clean_sbu_0, # of connection points: 6
#     Edge 12, Type (0, 1), BuildingBlock: TEMPAE_clean_linker_10, # of connection points: 2
#     Edge 13, Type (0, 1), BuildingBlock: TEMPAE_clean_linker_10, # of connection points: 2
#     Edge 14, Type (0, 1), BuildingBlock: TEMPAE_clean_linker_10, # of connection points: 2
#     Edge 15, Type (0, 1), BuildingBlock: TEMPAE_clean_linker_10, # of connection points: 2
#     Edge 16, Type (0, 1), BuildingBlock: TEMPAE_clean_linker_10, # of connection points: 2
#     Edge 17, Type (0, 1), BuildingBlock: TEMPAE_clean_linker_10, # of connection points: 2
#     Edge 18, Type (0, 1), BuildingBlock: TEMPAE_clean_linker_10, # of connection points: 2
#     Edge 19, Type (0, 1), BuildingBlock: TEMPAE_clean_linker_10, # of connection points: 2
#     Edge 20, Type (0, 1), BuildingBlock: TEMPAE_clean_linker_10, # of connection points: 2
#     Edge 21, Type (0, 1), BuildingBlock: TEMPAE_clean_linker_10, # of connection points: 2
#     Edge 22, Type (0, 1), BuildingBlock: TEMPAE_clean_linker_10, # of connection points: 2
#     Edge 23, Type (0, 1), BuildingBlock: TEMPAE_clean_linker_10, # of connection points: 2
#     Edge 24, Type (0, 1), BuildingBlock: TEMPAE_clean_linker_10, # of connection points: 2
#     Edge 25, Type (0, 1), BuildingBlock: TEMPAE_clean_linker_10, # of connection points: 2
#     Edge 26, Type (0, 1), BuildingBlock: TEMPAE_clean_linker_10, # of connection points: 2
#     Edge 27, Type (0, 1), BuildingBlock: TEMPAE_clean_linker_10, # of connection points: 2
#     Edge 28, Type (0, 1), BuildingBlock: TEMPAE_clean_linker_10, # of connection points: 2
#     Edge 29, Type (0, 1), BuildingBlock: TEMPAE_clean_linker_10, # of connection points: 2
#     Edge 30, Type (0, 1), BuildingBlock: TEMPAE_clean_linker_10, # of connection points: 2
#     Edge 31, Type (0, 1), BuildingBlock: TEMPAE_clean_linker_10, # of connection points: 2
#     Edge 32, Type (0, 1), BuildingBlock: TEMPAE_clean_linker_10, # of connection points: 2
#     Edge 33, Type (0, 1), BuildingBlock: TEMPAE_clean_linker_10, # of connection points: 2
#     Edge 34, Type (0, 1), BuildingBlock: TEMPAE_clean_linker_10, # of connection points: 2
#     Edge 35, Type (0, 1), BuildingBlock: TEMPAE_clean_linker_10, # of connection points: 2
# Relax obj value: 0.030
# Max RMSD: 0.082
# Mean RMSD: 0.069
data_MOF--net-apo--node1-OLANEW_clean_sbu_2--node2-MIDCAF_clean_sbu_0--edge1-TEMPAE_clean_linker_10
_symmetry_space_group_name_H-M    P1
_symmetry_Int_Tables_number       1
_symmetry_cell_setting            triclinic
loop_
_symmetry_equiv_pos_as_xyz
'x, y, z'
_cell_length_a     39.419585
_cell_length_b     43.957934
_cell_length_c     38.430948
_cell_angle_alpha  88.510725
_cell_angle_beta   90.034636
_cell_angle_gamma 90.19302
loop_
_atom_site_label
_atom_site_type_symbol
_atom_site_fract_x
_atom_site_fract_y
_atom_site_fract_z
_atom_type_partial_charge
O0 O 0.38443 0.31238 0.34021 0.0
Cd1 Cd 0.34873 0.27272 0.36709 0.0
O2 O 0.36523 0.3456 0.37749 0.0
Cd3 Cd 0.34393 0.3147 0.41775 0.0
O4 O 0.34462 0.30995 0.47497 0.0
C5 C 0.37136 0.29919 0.48907 0.0
O6 O 0.39525 0.28876 0.46879 0.0
C7 C 0.38225 0.3396 0.35037 0.0
C8 C 0.30062 0.2482 0.32174 0.0
O9 O 0.29529 0.27344 0.33672 0.0
O10 O 0.32893 0.23475 0.32765 0.0
O11 O 0.18183 0.27373 0.97192 0.0
Cd12 Cd 0.17985 0.30541 0.91811 0.0
O13 O 0.15734 0.24036 0.93919 0.0
Cd14 Cd 0.1344 0.19736 0.92393 0.0
O15 O 0.11752 0.1578 0.89521 0.0
C16 C 0.09483 0.16055 0.87181 0.0
O17 O 0.08102 0.18734 0.86579 0.0
C18 C 0.16765 0.24792 0.96915 0.0
C19 C 0.23901 0.31224 0.87854 0.0
O20 O 0.23215 0.33011 0.90341 0.0
O21 O 0.21834 0.29031 0.87297 0.0
O22 O 0.86091 0.1751 0.649 0.0
Cd23 Cd 0.8309 0.21803 0.62215 0.0
O24 O 0.90622 0.1784 0.61529 0.0
Cd25 Cd 0.88476 0.20707 0.57306 0.0
O26 O 0.88297 0.20944 0.51567 0.0
C27 C 0.91175 0.20778 0.50091 0.0
O28 O 0.939 0.20721 0.52064 0.0
C29 C 0.89086 0.16679 0.64158 0.0
C30 C 0.78068 0.24075 0.66602 0.0
O31 O 0.77391 0.22017 0.644 0.0
O32 O 0.81133 0.25044 0.66759 0.0
O33 O 0.70768 0.28575 0.0277 0.0
Cd34 Cd 0.70504 0.2738 0.09071 0.0
O35 O 0.69187 0.33247 0.03856 0.0
Cd36 Cd 0.68758 0.32901 0.09529 0.0
O37 O 0.66751 0.35129 0.14111 0.0
C38 C 0.63658 0.34803 0.14989 0.0
O39 O 0.61765 0.32856 0.13315 0.0
C40 C 0.70001 0.31244 0.01678 0.0
C41 C 0.76185 0.24624 0.12153 0.0
O42 O 0.7383 0.23037 0.10771 0.0
O43 O 0.75896 0.27529 0.12005 0.0
O44 O 0.62543 0.70178 0.74702 0.0
Cd45 Cd 0.64109 0.75542 0.75016 0.0
O46 O 0.62927 0.70331 0.69004 0.0
Cd47 Cd 0.62893 0.68726 0.63605 0.0
O48 O 0.62313 0.67491 0.58117 0.0
C49 C 0.63306 0.69216 0.55602 0.0
O50 O 0.64795 0.7181 0.56293 0.0
C51 C 0.62249 0.68846 0.71816 0.0
C52 C 0.70846 0.76655 0.76855 0.0
O53 O 0.68522 0.76561 0.79187 0.0
O54 O 0.69984 0.76152 0.73704 0.0
O55 O 0.87758 0.82137 0.23882 0.0
Cd56 Cd 0.85231 0.7702 0.24123 0.0
O57 O 0.86723 0.82451 0.18267 0.0
Cd58 Cd 0.87312 0.8433 0.1294 0.0
O59 O 0.88348 0.85215 0.07378 0.0
C60 C 0.87266 0.83432 0.05061 0.0
O61 O 0.85422 0.81061 0.06026 0.0
C62 C 0.88013 0.83583 0.20983 0.0
C63 C 0.7862 0.76077 0.26601 0.0
O64 O 0.81169 0.75805 0.28658 0.0
O65 O 0.79195 0.76948 0.23444 0.0
O66 O 0.13937 0.80574 0.25787 0.0
Cd67 Cd 0.15143 0.75122 0.25743 0.0
O68 O 0.12648 0.80132 0.31337 0.0
Cd69 Cd 0.11231 0.81786 0.36493 0.0
O70 O 0.10216 0.82849 0.41963 0.0
C71 C 0.11127 0.81053 0.44442 0.0
O72 O 0.12712 0.78527 0.43697 0.0
C73 C 0.12896 0.8177 0.28567 0.0
C74 C 0.21844 0.7356 0.24281 0.0
O75 O 0.19618 0.73675 0.21848 0.0
O76 O 0.2091 0.74255 0.27355 0.0
O77 O 0.30655 0.62293 0.7856 0.0
Cd78 Cd 0.24524 0.63109 0.77823 0.0
O79 O 0.30404 0.62666 0.84246 0.0
Cd80 Cd 0.32393 0.62502 0.89606 0.0
O81 O 0.33949 0.63192 0.95037 0.0
C82 C 0.35779 0.61228 0.96628 0.0
O83 O 0.36698 0.58783 0.94977 0.0
C84 C 0.32087 0.62062 0.81524 0.0
C85 C 0.21892 0.68775 0.75794 0.0
O86 O 0.22297 0.68014 0.79012 0.0
O87 O 0.22906 0.66915 0.73502 0.0
Zn88 Zn 0.04543 0.09493 0.28766 0.0
Zn89 Zn 0.01986 0.09087 0.16439 0.0
Zn90 Zn 0.03136 0.09908 0.22723 0.0
C91 C 0.08087 0.11827 0.16275 0.0
C92 C 0.00446 0.03602 0.19126 0.0
O93 O 0.99074 0.1232 0.25684 0.0
O94 O 0.00038 0.10132 0.30809 0.0
C95 C 0.09169 0.13626 0.25927 0.0
O96 O 0.07111 0.1226 0.19432 0.0
O97 O 0.0649 0.09984 0.14412 0.0
O98 O 0.00141 0.04925 0.16196 0.0
O99 O 0.01789 0.05034 0.2169 0.0
O100 O 0.07774 0.12932 0.28797 0.0
O101 O 0.07986 0.1249 0.23115 0.0
O102 O 0.04203 0.05017 0.24365 0.0
O103 O 0.06594 0.05474 0.29501 0.0
C104 C 0.0581 0.03821 0.26996 0.0
O105 O 0.98433 0.12493 0.21994 0.0
O106 O 0.98574 0.12447 0.16257 0.0
C107 C 0.98213 0.11822 0.28887 0.0
C108 C 0.97258 0.13401 0.19023 0.0
Zn109 Zn 0.54388 0.41137 0.69577 0.0
Zn110 Zn 0.50672 0.4061 0.81918 0.0
Zn111 Zn 0.52335 0.4052 0.75576 0.0
C112 C 0.49744 0.46469 0.79877 0.0
C113 C 0.45959 0.36899 0.7843 0.0
O114 O 0.57217 0.37956 0.75316 0.0
O115 O 0.57855 0.37949 0.69613 0.0
C116 C 0.55081 0.468 0.71897 0.0
O117 O 0.50991 0.45266 0.77122 0.0
O118 O 0.49337 0.44875 0.82617 0.0
O119 O 0.4697 0.37586 0.81427 0.0
O120 O 0.47515 0.37949 0.7571 0.0
O121 O 0.56221 0.45283 0.69425 0.0
O122 O 0.53269 0.45469 0.74292 0.0
O123 O 0.48441 0.38343 0.72174 0.0
O124 O 0.50098 0.40349 0.67137 0.0
C125 C 0.47955 0.38814 0.68884 0.0
O126 O 0.56333 0.38083 0.78839 0.0
O127 O 0.54725 0.39055 0.84206 0.0
C128 C 0.58839 0.37089 0.72601 0.0
C129 C 0.56801 0.37856 0.82165 0.0
Zn130 Zn 0.04447 0.89842 0.7952 0.0
Zn131 Zn 0.95654 0.90133 0.69361 0.0
Zn132 Zn -0.00084 0.89992 0.7447 0.0
C133 C 0.97411 0.96117 0.7034 0.0
C134 C 0.92169 0.87594 0.74974 0.0
O135 O 0.04355 0.87233 0.72873 0.0
O136 O 0.0817 0.87819 0.77031 0.0
C137 C 0.03086 0.95944 0.78123 0.0
O138 O 0.99006 0.94832 0.72912 0.0
O139 O 0.95846 0.9452 0.68178 0.0
O140 O 0.91641 0.8862 0.71927 0.0
O141 O 0.95143 0.878 0.76346 0.0
O142 O 0.04703 0.9427 0.80255 0.0
O143 O 0.01262 0.94763 0.75717 0.0
O144 O 0.97457 0.87875 0.79133 0.0
O145 O 0.01667 0.87413 0.82916 0.0
C146 C 0.98581 0.87021 0.82155 0.0
O147 O 0.02137 0.87503 0.69989 0.0
O148 O 0.97937 0.87357 0.66187 0.0
C149 C 0.07329 0.86713 0.74157 0.0
C150 C 0.00931 0.86661 0.67039 0.0
Zn151 Zn 0.54868 0.60629 0.20526 0.0
Zn152 Zn 0.47219 0.59472 0.31605 0.0
Zn153 Zn 0.51082 0.60019 0.26057 0.0
C154 C 0.52673 0.6305 0.33546 0.0
C155 C 0.48934 0.53607 0.29925 0.0
O156 O 0.48018 0.62032 0.21657 0.0
O157 O 0.51659 0.62718 0.17338 0.0
C158 C 0.58279 0.63666 0.25699 0.0
O159 O 0.53591 0.62468 0.30408 0.0
O160 O 0.4986 0.62091 0.347 0.0
O161 O 0.47491 0.55009 0.32332 0.0
O162 O 0.50367 0.55096 0.27387 0.0
O163 O 0.5861 0.62949 0.22561 0.0
O164 O 0.55617 0.62827 0.27431 0.0
O165 O 0.52687 0.55387 0.24625 0.0
O166 O 0.55637 0.56244 0.19807 0.0
C167 C 0.54444 0.54399 0.22064 0.0
O168 O 0.46121 0.62123 0.24767 0.0
O169 O 0.43039 0.61164 0.29481 0.0
C170 C 0.48671 0.62897 0.18489 0.0
C171 C 0.43294 0.62287 0.26437 0.0
C172 C 0.13938 0.87172 0.26764 0.0
C173 C 0.11916 0.85002 0.28511 0.0
C174 C 0.12956 0.90237 0.26535 0.0
C175 C 0.09795 0.91118 0.27939 0.0
C176 C 0.07713 0.88909 0.29654 0.0
C177 C 0.08842 0.85889 0.29989 0.0
C178 C 0.15311 0.92528 0.24804 0.0
C179 C 0.04291 0.89688 0.3115 0.0
C180 C 0.08176 0.99321 0.30269 0.0
C181 C 0.06752 0.00547 0.27188 0.0
C182 C 0.09222 0.96278 0.30519 0.0
C183 C 0.08714 0.94359 0.27667 0.0
C184 C 0.0724 0.95564 0.24559 0.0
C185 C 0.06373 0.98662 0.2433 0.0
C186 C 0.10925 0.95138 0.33822 0.0
C187 C 0.06622 0.93641 0.21422 0.0
H188 H 0.16314 0.86474 0.25615 0.0
H189 H 0.07255 0.84196 0.31299 0.0
H190 H 0.14204 0.93327 0.22292 0.0
H191 H 0.1563 0.94542 0.26459 0.0
H192 H 0.17853 0.91554 0.24283 0.0
H193 H 0.02499 0.87746 0.30926 0.0
H194 H 0.04583 0.90136 0.33961 0.0
H195 H 0.03143 0.91724 0.29861 0.0
H196 H 0.08532 0.00754 0.32494 0.0
H197 H 0.05452 0.99603 0.21887 0.0
H198 H 0.13309 0.93929 0.33201 0.0
H199 H 0.09234 0.93494 0.35212 0.0
H200 H 0.11531 0.97011 0.35609 0.0
H201 H 0.08707 0.94031 0.19523 0.0
H202 H 0.04228 0.94325 0.20104 0.0
H203 H 0.06483 0.91174 0.22085 0.0
C204 C 0.3607 0.58294 0.84177 0.0
C205 C 0.35492 0.60676 0.81762 0.0
C206 C 0.3891 0.56397 0.83879 0.0
C207 C 0.41283 0.56957 0.81161 0.0
C208 C 0.4087 0.59545 0.78928 0.0
C209 C 0.3794 0.61339 0.7921 0.0
C210 C 0.39198 0.53636 0.86282 0.0
C211 C 0.43449 0.60347 0.76154 0.0
C212 C 0.48995 0.51784 0.81924 0.0
C213 C 0.48077 0.4946 0.79681 0.0
C214 C 0.4696 0.54394 0.82212 0.0
C215 C 0.43852 0.54585 0.8036 0.0
C216 C 0.43003 0.52283 0.77987 0.0
C217 C 0.45157 0.49776 0.77638 0.0
C218 C 0.48067 0.56866 0.84617 0.0
C219 C 0.39693 0.52347 0.76003 0.0
H220 H 0.34153 0.57749 0.86119 0.0
H221 H 0.37501 0.63197 0.77355 0.0
H222 H 0.38884 0.51542 0.84759 0.0
H223 H 0.41744 0.53545 0.87503 0.0
H224 H 0.37256 0.53621 0.88377 0.0
H225 H 0.42786 0.62467 0.74673 0.0
H226 H 0.45969 0.60661 0.77382 0.0
H227 H 0.43674 0.58469 0.74298 0.0
H228 H 0.51254 0.51526 0.83513 0.0
H229 H 0.44433 0.47949 0.75942 0.0
H230 H 0.46771 0.5655 0.87162 0.0
H231 H 0.47382 0.59148 0.83539 0.0
H232 H 0.50848 0.56799 0.85083 0.0
H233 H 0.37539 0.5224 0.77863 0.0
H234 H 0.39452 0.50418 0.74206 0.0
H235 H 0.3946 0.54503 0.74462 0.0
C236 C 0.61681 0.63754 0.74778 0.0
C237 C 0.61131 0.65626 0.71818 0.0
C238 C 0.60568 0.60719 0.74907 0.0
C239 C 0.58863 0.59521 0.72003 0.0
C240 C 0.58253 0.61409 0.69026 0.0
C241 C 0.59374 0.64447 0.68981 0.0
C242 C 0.61251 0.58783 0.78134 0.0
C243 C 0.56423 0.60215 0.65887 0.0
C244 C 0.59215 0.50994 0.70826 0.0
C245 C 0.56015 0.5005 0.72036 0.0
C246 C 0.60168 0.54067 0.70805 0.0
C247 C 0.57861 0.56256 0.72021 0.0
C248 C 0.54622 0.55316 0.7324 0.0
C249 C 0.53732 0.52219 0.73209 0.0
C250 C 0.63642 0.54971 0.69472 0.0
C251 C 0.52093 0.57574 0.74569 0.0
H252 H 0.6301 0.64659 0.76997 0.0
H253 H 0.58796 0.6591 0.66756 0.0
H254 H 0.5884 0.57818 0.7917 0.0
H255 H 0.62901 0.56841 0.77475 0.0
H256 H 0.62504 0.60088 0.80215 0.0
H257 H 0.5612 0.61983 0.63792 0.0
H258 H 0.57844 0.58273 0.64823 0.0
H259 H 0.53875 0.59355 0.66655 0.0
H260 H 0.60988 0.49316 0.699 0.0
H261 H 0.51217 0.51509 0.73985 0.0
H262 H 0.65086 0.56123 0.7154 0.0
H263 H 0.63395 0.56615 0.67247 0.0
H264 H 0.65132 0.52986 0.6861 0.0
H265 H 0.53087 0.58614 0.76965 0.0
H266 H 0.49614 0.56484 0.75181 0.0
H267 H 0.51687 0.59439 0.72615 0.0
C268 C 0.93292 0.86518 0.22102 0.0
C269 C 0.89989 0.86434 0.20763 0.0
C270 C 0.95234 0.89202 0.21909 0.0
C271 C 0.93786 0.91892 0.20452 0.0
C272 C 0.90415 0.91822 0.19156 0.0
C273 C 0.88582 0.89072 0.19258 0.0
C274 C 0.98871 0.89111 0.23135 0.0
C275 C 0.88731 0.9466 0.17699 0.0
C276 C 0.97558 0.99569 0.22761 0.0
C277 C 0.99083 0.0048 0.1961 0.0
C278 C 0.9586 0.96758 0.23092 0.0
C279 C 0.95786 0.94778 0.20239 0.0
C280 C 0.97502 0.95618 0.17124 0.0
C281 C 0.99072 0.98485 0.16823 0.0
C282 C 0.94047 0.95953 0.2645 0.0
C283 C 0.97657 0.93501 0.14098 0.0
H284 H 0.94387 0.84456 0.23225 0.0
H285 H 0.86017 0.88999 0.18244 0.0
H286 H 0.00558 0.89015 0.20831 0.0
H287 H 0.99553 0.91183 0.24565 0.0
H288 H 0.99387 0.87081 0.24833 0.0
H289 H 0.86034 0.94263 0.16999 0.0
H290 H 0.88849 0.96489 0.19634 0.0
H291 H 0.90099 0.95496 0.15341 0.0
H292 H 0.97558 0.01114 0.24914 0.0
H293 H 0.00292 0.9917 0.14399 0.0
H294 H 0.95067 0.93798 0.27584 0.0
H295 H 0.91308 0.95583 0.25927 0.0
H296 H 0.9431 0.97757 0.28405 0.0
H297 H 0.986 0.91237 0.14994 0.0
H298 H 0.99335 0.94387 0.11981 0.0
H299 H 0.95079 0.93164 0.13015 0.0
C300 C 0.88608 0.11662 0.67267 0.0
C301 C 0.90647 0.1409 0.66085 0.0
C302 C 0.90061 0.08928 0.68485 0.0
C303 C 0.93639 0.08659 0.68632 0.0
C304 C 0.95699 0.11213 0.67777 0.0
C305 C 0.94182 0.13882 0.66429 0.0
C306 C 0.87771 0.06256 0.6936 0.0
C307 C 0.99511 0.11075 0.68098 0.0
C308 C 0.96646 0.01238 0.72902 0.0
C309 C 0.97125 0.99453 0.6998 0.0
C310 C 0.95703 0.0431 0.72528 0.0
C311 C 0.95189 0.05598 0.69148 0.0
C312 C 0.95835 0.0383 0.66192 0.0
C313 C 0.96806 0.00786 0.66649 0.0
C314 C 0.9503 0.06068 0.75769 0.0
C315 C 0.95265 0.05081 0.62539 0.0
H316 H 0.85874 0.11819 0.67007 0.0
H317 H 0.95764 0.15778 0.65567 0.0
H318 H 0.88238 0.04404 0.67511 0.0
H319 H 0.8834 0.05344 0.72012 0.0
H320 H 0.85042 0.06872 0.69235 0.0
H321 H 0.00648 0.13386 0.6822 0.0
H322 H 0.00274 0.09731 0.70454 0.0
H323 H 0.00579 0.0994 0.65801 0.0
H324 H 0.96786 0.00192 0.75481 0.0
H325 H 0.97168 0.99399 0.64386 0.0
H326 H 0.92428 0.05545 0.7671 0.0
H327 H 0.9524 0.08562 0.75302 0.0
H328 H 0.96812 0.05362 0.77876 0.0
H329 H 0.92555 0.05698 0.62194 0.0
H330 H 0.95952 0.03423 0.60525 0.0
H331 H 0.96787 0.07179 0.62087 0.0
C332 C 0.58535 0.3705 0.17803 0.0
C333 C 0.62065 0.37034 0.17311 0.0
C334 C 0.56922 0.39537 0.19316 0.0
C335 C 0.58887 0.42067 0.2032 0.0
C336 C 0.62471 0.41913 0.20173 0.0
C337 C 0.64018 0.39394 0.18678 0.0
C338 C 0.531 0.3956 0.19531 0.0
C339 C 0.64665 0.44541 0.21273 0.0
C340 C 0.55686 0.50013 0.18352 0.0
C341 C 0.55134 0.51123 0.21686 0.0
C342 C 0.56752 0.47022 0.17883 0.0
C343 C 0.57249 0.45067 0.20825 0.0
C344 C 0.56489 0.46112 0.24192 0.0
C345 C 0.55507 0.49157 0.2459 0.0
C346 C 0.57501 0.46003 0.14237 0.0
C347 C 0.56851 0.44073 0.27387 0.0
H348 H 0.57001 0.35212 0.16817 0.0
H349 H 0.66752 0.39378 0.18376 0.0
H350 H 0.52199 0.4091 0.21745 0.0
H351 H 0.52057 0.40606 0.171 0.0
H352 H 0.52066 0.37212 0.19804 0.0
H353 H 0.67392 0.4392 0.21413 0.0
H354 H 0.64376 0.46467 0.19371 0.0
H355 H 0.63856 0.45349 0.23853 0.0
H356 H 0.55375 0.51521 0.16096 0.0
H357 H 0.55161 0.50023 0.27177 0.0
H358 H 0.56051 0.43904 0.13684 0.0
H359 H 0.60238 0.45461 0.13998 0.0
H360 H 0.56852 0.47767 0.12225 0.0
H361 H 0.56109 0.41695 0.26838 0.0
H362 H 0.55278 0.44888 0.29571 0.0
H363 H 0.59541 0.44062 0.28236 0.0
C364 C 0.38711 0.3939 0.33158 0.0
C365 C 0.4009 0.3646 0.33233 0.0
C366 C 0.40613 0.41902 0.31964 0.0
C367 C 0.44019 0.41488 0.30901 0.0
C368 C 0.45367 0.38509 0.30781 0.0
C369 C 0.43368 0.36016 0.31924 0.0
C370 C 0.39034 0.45027 0.32048 0.0
C371 C 0.48986 0.37964 0.29692 0.0
C372 C 0.47553 0.48794 0.26916 0.0
C373 C 0.48603 0.50266 0.29924 0.0
C374 C 0.46364 0.45774 0.27106 0.0
C375 C 0.4622 0.44224 0.30382 0.0
C376 C 0.47638 0.45601 0.33342 0.0
C377 C 0.48776 0.4862 0.33084 0.0
C378 C 0.44963 0.44369 0.23867 0.0
C379 C 0.47654 0.43994 0.36862 0.0
H380 H 0.36162 0.3973 0.34133 0.0
H381 H 0.44446 0.3375 0.31994 0.0
H382 H 0.40253 0.46362 0.34121 0.0
H383 H 0.39455 0.46272 0.29536 0.0
H384 H 0.36264 0.44922 0.32567 0.0
H385 H 0.49361 0.35591 0.28849 0.0
H386 H 0.49764 0.39554 0.2755 0.0
H387 H 0.50691 0.38361 0.31935 0.0
H388 H 0.47421 0.50069 0.24466 0.0
H389 H 0.49624 0.49754 0.35404 0.0
H390 H 0.42167 0.44653 0.2382 0.0
H391 H 0.45509 0.41896 0.23827 0.0
H392 H 0.46027 0.45478 0.21475 0.0
H393 H 0.49317 0.45161 0.38747 0.0
H394 H 0.48522 0.4161 0.36633 0.0
H395 H 0.45037 0.43929 0.37926 0.0
C396 C 0.10232 0.10665 0.85409 0.0
C397 C 0.08378 0.13379 0.852 0.0
C398 C 0.09132 0.08065 0.83689 0.0
C399 C 0.06075 0.08163 0.81746 0.0
C400 C 0.04264 0.1093 0.81413 0.0
C401 C 0.05441 0.13508 0.83138 0.0
C402 C 0.11182 0.05177 0.84061 0.0
C403 C 0.00999 0.11145 0.79383 0.0
C404 C 0.04776 0.01207 0.76218 0.0
C405 C 0.03176 0.99243 0.78629 0.0
C406 C 0.05534 0.04227 0.77085 0.0
C407 C 0.04636 0.05276 0.80421 0.0
C408 C 0.02742 0.03361 0.82719 0.0
C409 C 0.02079 0.00353 0.81812 0.0
C410 C 0.07527 0.06202 0.74548 0.0
C411 C 0.01626 0.04414 0.86246 0.0
H412 H 0.1253 0.10557 0.86957 0.0
H413 H 0.04 0.15602 0.82949 0.0
H414 H 0.09733 0.03453 0.85616 0.0
H415 H 0.11659 0.04214 0.81467 0.0
H416 H 0.13658 0.05556 0.85365 0.0
H417 H 0.00294 0.13543 0.7876 0.0
H418 H 0.01196 0.09901 0.76921 0.0
H419 H 0.98927 0.10087 0.80952 0.0
H420 H 0.05624 0.00329 0.73757 0.0
H421 H 0.00821 0.9882 0.83658 0.0
H422 H 0.102 0.06339 0.7544 0.0
H423 H 0.0651 0.08551 0.7443 0.0
H424 H 0.07498 0.05273 0.71887 0.0
H425 H 0.03872 0.04627 0.87966 0.0
H426 H -0.00197 0.02804 0.87514 0.0
H427 H 0.00424 0.06688 0.86009 0.0
C428 C 0.18385 0.22839 0.02889 0.0
C429 C 0.1615 0.22821 0.00043 0.0
C430 C 0.17692 0.21111 0.05948 0.0
C431 C 0.14651 0.19394 0.06192 0.0
C432 C 0.12383 0.1939 0.03327 0.0
C433 C 0.13172 0.21084 0.00288 0.0
C434 C 0.20203 0.21123 0.08914 0.0
C435 C 0.0908 0.17637 0.03489 0.0
C436 C 0.12838 0.12571 0.12096 0.0
C437 C 0.10607 0.13816 0.14508 0.0
C438 C 0.14477 0.14423 0.0958 0.0
C439 C 0.13784 0.17583 0.09413 0.0
C440 C 0.11772 0.18883 0.12045 0.0
C441 C 0.10224 0.1698 0.14583 0.0
C442 C 0.16688 0.1295 0.06903 0.0
C443 C 0.10949 0.22234 0.11969 0.0
H444 H 0.20682 0.24197 0.02716 0.0
H445 H 0.11383 0.2114 0.98147 0.0
H446 H 0.18995 0.2204 0.11271 0.0
H447 H 0.21003 0.18761 0.0958 0.0
H448 H 0.22494 0.22508 0.08281 0.0
H449 H 0.07562 0.17927 0.01067 0.0
H450 H 0.09591 0.15177 0.03926 0.0
H451 H 0.07535 0.18403 0.05713 0.0
H452 H 0.13128 0.10121 0.12033 0.0
H453 H 0.08468 0.17941 0.16424 0.0
H454 H 0.18982 0.14351 0.06354 0.0
H455 H 0.15256 0.12767 0.0443 0.0
H456 H 0.17491 0.10629 0.07761 0.0
H457 H 0.13238 0.23622 0.11369 0.0
H458 H 0.0987 0.22966 0.14481 0.0
H459 H 0.09061 0.22715 0.09884 0.0
C460 C 0.35418 0.31659 0.54851 0.0
C461 C 0.37847 0.30374 0.5266 0.0
C462 C 0.36309 0.32636 0.58193 0.0
C463 C 0.39719 0.32391 0.59325 0.0
C464 C 0.4209 0.30836 0.57255 0.0
C465 C 0.41118 0.29826 0.53967 0.0
C466 C 0.33659 0.34135 0.60394 0.0
C467 C 0.45751 0.30496 0.58358 0.0
C468 C 0.44129 0.38828 0.6378 0.0
C469 C 0.45091 0.37455 0.66962 0.0
C470 C 0.42137 0.37281 0.61386 0.0
C471 C 0.41008 0.34288 0.62212 0.0
C472 C 0.4163 0.33024 0.65589 0.0
C473 C 0.43703 0.34615 0.67926 0.0
C474 C 0.41531 0.38751 0.57841 0.0
C475 C 0.40332 0.29909 0.66655 0.0
H476 H 0.32861 0.32036 0.53899 0.0
H477 H 0.43003 0.28788 0.52329 0.0
H478 H 0.34044 0.33563 0.63197 0.0
H479 H 0.3386 0.36642 0.6005 0.0
H480 H 0.31056 0.3344 0.59632 0.0
H481 H 0.47192 0.28984 0.56624 0.0
H482 H 0.46998 0.32765 0.58311 0.0
H483 H 0.4591 0.29558 0.61059 0.0
H484 H 0.45134 0.41055 0.63054 0.0
H485 H 0.44416 0.33547 0.70392 0.0
H486 H 0.388 0.38672 0.57165 0.0
H487 H 0.42928 0.3748 0.55838 0.0
H488 H 0.42384 0.41163 0.57703 0.0
H489 H 0.37891 0.29385 0.65358 0.0
H490 H 0.3998 0.29713 0.69522 0.0
H491 H 0.42213 0.28173 0.65903 0.0
C492 C 0.69619 0.29702 0.95399 0.0
C493 C 0.69604 0.3198 0.97896 0.0
C494 C 0.68436 0.3031 0.91987 0.0
C495 C 0.67137 0.33231 0.91101 0.0
C496 C 0.67506 0.35612 0.93487 0.0
C497 C 0.68758 0.34962 0.96836 0.0
C498 C 0.68305 0.27758 0.89443 0.0
C499 C 0.6621 0.3878 0.9266 0.0
C500 C 0.62955 0.36394 0.82866 0.0
C501 C 0.59537 0.36017 0.83778 0.0
C502 C 0.65534 0.35163 0.85023 0.0
C503 C 0.64646 0.33641 0.88201 0.0
C504 C 0.61186 0.33025 0.8893 0.0
C505 C 0.58691 0.34195 0.86693 0.0
C506 C 0.69186 0.35679 0.84008 0.0
C507 C 0.60079 0.31401 0.92259 0.0
H508 H 0.70346 0.27403 0.96156 0.0
H509 H 0.68831 0.36764 0.98707 0.0
H510 H 0.65825 0.2657 0.89672 0.0
H511 H 0.68577 0.28631 0.8672 0.0
H512 H 0.70329 0.26062 0.90002 0.0
H513 H 0.66977 0.40433 0.94655 0.0
H514 H 0.67169 0.39606 0.90094 0.0
H515 H 0.63397 0.38737 0.92521 0.0
H516 H 0.63617 0.37787 0.80596 0.0
H517 H 0.5604 0.33862 0.87363 0.0
H518 H 0.70843 0.33838 0.85061 0.0
H519 H 0.70077 0.37869 0.85055 0.0
H520 H 0.6946 0.35817 0.8113 0.0
H521 H 0.61392 0.29186 0.92566 0.0
H522 H 0.573 0.30977 0.92335 0.0
H523 H 0.60767 0.32793 0.94525 0.0
C524 C 0.94669 0.19548 0.44907 0.0
C525 C 0.91483 0.20238 0.46298 0.0
C526 C 0.95011 0.18595 0.41474 0.0
C527 C 0.92101 0.18373 0.39324 0.0
C528 C 0.88909 0.19295 0.40619 0.0
C529 C 0.88629 0.20182 0.44108 0.0
C530 C 0.98475 0.17633 0.40229 0.0
C531 C 0.85757 0.19205 0.38398 0.0
C532 C 0.9524 0.16643 0.30308 0.0
C533 C 0.95448 0.13466 0.30613 0.0
C534 C 0.93698 0.18322 0.3295 0.0
C535 C 0.92412 0.16774 0.35957 0.0
C536 C 0.92188 0.13558 0.36 0.0
C537 C 0.93697 0.11947 0.33315 0.0
C538 C 0.93794 0.21748 0.327 0.0
C539 C 0.9078 0.11796 0.39103 0.0
H540 H 0.96899 0.19611 0.46554 0.0
H541 H 0.86158 0.20747 0.4514 0.0
H542 H 0.98448 0.15166 0.39679 0.0
H543 H 0.99141 0.18876 0.37776 0.0
H544 H 0.00497 0.18058 0.42174 0.0
H545 H 0.83868 0.20901 0.39251 0.0
H546 H 0.86344 0.19647 0.35606 0.0
H547 H 0.8457 0.1692 0.38661 0.0
H548 H 0.96574 0.1783 0.28209 0.0
H549 H 0.93823 0.09484 0.33527 0.0
H550 H 0.96055 0.22587 0.34108 0.0
H551 H 0.91509 0.22739 0.33913 0.0
H552 H 0.93965 0.22572 0.29948 0.0
H553 H 0.92581 0.11946 0.41314 0.0
H554 H 0.90379 0.09354 0.38539 0.0
H555 H 0.88334 0.12774 0.39938 0.0
C556 C 0.90284 0.86404 0.00343 0.0
C557 C 0.88271 0.83899 0.01357 0.0
C558 C 0.91495 0.86746 0.96921 0.0
C559 C 0.90684 0.84526 0.9444 0.0
C560 C 0.88523 0.82067 0.95397 0.0
C561 C 0.87347 0.81779 0.98846 0.0
C562 C 0.93761 0.89424 0.95997 0.0
C563 C 0.87573 0.79672 0.9282 0.0
C564 C 0.92956 0.87001 0.85184 0.0
C565 C 0.96266 0.85873 0.84923 0.0
C566 C 0.90977 0.86378 0.88163 0.0
C567 C 0.92382 0.84654 0.90974 0.0
C568 C 0.95639 0.83347 0.90618 0.0
C569 C 0.97538 0.83975 0.876 0.0
C570 C 0.87484 0.87751 0.88387 0.0
C571 C 0.97219 0.81456 0.93524 0.0
H572 H 0.90988 0.88069 0.02247 0.0
H573 H 0.85772 0.79844 0.99592 0.0
H574 H 0.96346 0.88604 0.95378 0.0
H575 H 0.92783 0.9065 0.93647 0.0
H576 H 0.9396 0.91057 0.98147 0.0
H577 H 0.8548 0.78183 0.93797 0.0
H578 H 0.86795 0.80741 0.90297 0.0
H579 H 0.89812 0.78229 0.92308 0.0
H580 H 0.91984 0.88519 0.83157 0.0
H581 H 0.00093 0.8309 0.87403 0.0
H582 H 0.87605 0.89812 0.8999 0.0
H583 H 0.85672 0.86137 0.89655 0.0
H584 H 0.86487 0.8842 0.85772 0.0
H585 H 0.97806 0.82931 0.95748 0.0
H586 H 0.99602 0.80341 0.92699 0.0
H587 H 0.95421 0.79674 0.94471 0.0
C588 C 0.63213 0.70494 0.49182 0.0
C589 C 0.62556 0.68416 0.51944 0.0
C590 C 0.62189 0.69878 0.45761 0.0
C591 C 0.60467 0.67125 0.4509 0.0
C592 C 0.59986 0.64945 0.47828 0.0
C593 C 0.61027 0.65619 0.51216 0.0
C594 C 0.62801 0.72234 0.42899 0.0
C595 C 0.58207 0.61958 0.47217 0.0
C596 C 0.53442 0.66525 0.38458 0.0
C597 C 0.54913 0.64664 0.35974 0.0
C598 C 0.55315 0.67542 0.41301 0.0
C599 C 0.58751 0.66666 0.41682 0.0
C600 C 0.60334 0.65008 0.39017 0.0
C601 C 0.5838 0.63996 0.36202 0.0
C602 C 0.53531 0.69353 0.44037 0.0
C603 C 0.64011 0.64092 0.39254 0.0
H604 H 0.64426 0.7265 0.49705 0.0
H605 H 0.60549 0.6398 0.53316 0.0
H606 H 0.63855 0.71155 0.40558 0.0
H607 H 0.60357 0.73299 0.42128 0.0
H608 H 0.64567 0.74053 0.43725 0.0
H609 H 0.58302 0.604 0.49538 0.0
H610 H 0.55508 0.62387 0.4655 0.0
H611 H 0.59377 0.608 0.44986 0.0
H612 H 0.50763 0.67059 0.38272 0.0
H613 H 0.59517 0.62528 0.34305 0.0
H614 H 0.55066 0.7137 0.44724 0.0
H615 H 0.53215 0.67922 0.46438 0.0
H616 H 0.50984 0.70137 0.43164 0.0
H617 H 0.65567 0.65857 0.40519 0.0
H618 H 0.65082 0.63671 0.36636 0.0
H619 H 0.64217 0.61958 0.40845 0.0
C620 C 0.39371 0.59749 0.0176 0.0
C621 C 0.37003 0.61744 0.00227 0.0
C622 C 0.40742 0.60286 0.05058 0.0
C623 C 0.39704 0.62873 0.06904 0.0
C624 C 0.37201 0.64827 0.05447 0.0
C625 C 0.35898 0.64253 0.02112 0.0
C626 C 0.43401 0.58135 0.06512 0.0
C627 C 0.35979 0.67575 0.07353 0.0
C628 C 0.42747 0.62234 0.16248 0.0
C629 C 0.45934 0.63646 0.15966 0.0
C630 C 0.40488 0.62249 0.13411 0.0
C631 C 0.41493 0.63627 0.10198 0.0
C632 C 0.44564 0.65303 0.10016 0.0
C633 C 0.46736 0.65303 0.12907 0.0
C634 C 0.37173 0.60549 0.13773 0.0
C635 C 0.45727 0.66841 0.06664 0.0
H636 H 0.4023 0.57796 0.00342 0.0
H637 H 0.34046 0.65796 0.00966 0.0
H638 H 0.45841 0.59368 0.06813 0.0
H639 H 0.42632 0.5726 0.09128 0.0
H640 H 0.43832 0.56165 0.04814 0.0
H641 H 0.33597 0.68506 0.06213 0.0
H642 H 0.35544 0.67005 0.10147 0.0
H643 H 0.37947 0.69383 0.07208 0.0
H644 H 0.42119 0.60914 0.18579 0.0
H645 H 0.49184 0.66424 0.12682 0.0
H646 H 0.37457 0.58249 0.1269 0.0
H647 H 0.35121 0.61735 0.12305 0.0
H648 H 0.36398 0.60283 0.16545 0.0
H649 H 0.46483 0.65085 0.04794 0.0
H650 H 0.47927 0.68377 0.07071 0.0
H651 H 0.43637 0.6818 0.05456 0.0
C652 C 0.08755 0.84498 0.48925 0.0
C653 C 0.10277 0.81727 0.4811 0.0
C654 C 0.07721 0.85087 0.52336 0.0
C655 C 0.08199 0.82847 0.55009 0.0
C656 C 0.09866 0.80098 0.54241 0.0
C657 C 0.10886 0.79571 0.508 0.0
C658 C 0.05984 0.88064 0.53049 0.0
C659 C 0.10442 0.77663 0.57019 0.0
C660 C 0.06507 0.85769 0.64081 0.0
C661 C 0.03041 0.85114 0.64439 0.0
C662 C 0.08319 0.8484 0.61136 0.0
C663 C 0.06599 0.83268 0.5848 0.0
C664 C 0.03166 0.82407 0.58971 0.0
C665 C 0.01437 0.83335 0.61942 0.0
C666 C 0.11996 0.85745 0.60761 0.0
C667 C 0.01235 0.80702 0.56235 0.0
H668 H 0.08306 0.86193 0.46878 0.0
H669 H 0.1208 0.77428 0.50207 0.0
H670 H 0.03296 0.87628 0.53765 0.0
H671 H 0.07211 0.89183 0.5528 0.0
H672 H 0.06045 0.8966 0.5076 0.0
H673 H 0.12138 0.75832 0.56113 0.0
H674 H 0.11561 0.78661 0.59383 0.0
H675 H 0.07975 0.76626 0.57788 0.0
H676 H 0.0775 0.87178 0.65972 0.0
H677 H 0.98762 0.828 0.62222 0.0
H678 H 0.12191 0.87778 0.58999 0.0
H679 H 0.13497 0.839 0.59595 0.0
H680 H 0.13138 0.86313 0.63309 0.0
H681 H 0.00874 0.82202 0.53898 0.0
H682 H 0.98701 0.79931 0.57171 0.0
H683 H 0.0269 0.78687 0.55418 0.0
C684 C 0.27318 0.2022 0.29697 0.0
C685 C 0.27372 0.23384 0.30069 0.0
C686 C 0.24484 0.18759 0.28271 0.0
C687 C 0.21669 0.20511 0.27119 0.0
C688 C 0.21865 0.23728 0.27161 0.0
C689 C 0.2469 0.25126 0.2869 0.0
C690 C 0.24377 0.15325 0.28306 0.0
C691 C 0.18984 0.25684 0.25824 0.0
C692 C 0.14348 0.16073 0.23105 0.0
C693 C 0.12219 0.15627 0.25997 0.0
C694 C 0.17361 0.17796 0.23348 0.0
C695 C 0.18325 0.1899 0.266 0.0
C696 C 0.16149 0.18589 0.29503 0.0
C697 C 0.13121 0.16963 0.2915 0.0
C698 C 0.19545 0.18249 0.20152 0.0
C699 C 0.17071 0.19783 0.33039 0.0
H700 H 0.29391 0.18861 0.30738 0.0
H701 H 0.24746 0.2758 0.28909 0.0
H702 H 0.22548 0.14499 0.30315 0.0
H703 H 0.23488 0.14498 0.25761 0.0
H704 H 0.26896 0.14308 0.28894 0.0
H705 H 0.19789 0.28087 0.25377 0.0
H706 H 0.17963 0.24794 0.23356 0.0
H707 H 0.16892 0.2564 0.27755 0.0
H708 H 0.1372 0.15011 0.20688 0.0
H709 H 0.11497 0.16663 0.31409 0.0
H710 H 0.21671 0.16603 0.20254 0.0
H711 H 0.20652 0.20574 0.20029 0.0
H712 H 0.18084 0.17872 0.17725 0.0
H713 H 0.19513 0.18781 0.3393 0.0
H714 H 0.1511 0.19245 0.35038 0.0
H715 H 0.17411 0.22287 0.32876 0.0
C716 C 0.27709 0.29817 0.82893 0.0
C717 C 0.26969 0.31721 0.85672 0.0
C718 C 0.30647 0.30273 0.80861 0.0
C719 C 0.32905 0.32669 0.8165 0.0
C720 C 0.32114 0.34645 0.8439 0.0
C721 C 0.29164 0.34147 0.86358 0.0
C722 C 0.31382 0.28134 0.77948 0.0
C723 C 0.34445 0.37237 0.85325 0.0
C724 C 0.42372 0.32686 0.80658 0.0
C725 C 0.42826 0.35082 0.78229 0.0
C726 C 0.39125 0.31607 0.81508 0.0
C727 C 0.36265 0.32981 0.799 0.0
C728 C 0.36743 0.35124 0.77116 0.0
C729 C 0.40041 0.3616 0.76309 0.0
C730 C 0.38755 0.29275 0.84439 0.0
C731 C 0.33769 0.36576 0.75258 0.0
H732 H 0.26011 0.2795 0.82324 0.0
H733 H 0.28604 0.35647 0.88476 0.0
H734 H 0.32307 0.29405 0.75602 0.0
H735 H 0.33411 0.26529 0.78775 0.0
H736 H 0.29108 0.26787 0.77236 0.0
H737 H 0.33377 0.38655 0.87407 0.0
H738 H 0.36921 0.36319 0.86233 0.0
H739 H 0.3494 0.3872 0.83 0.0
H740 H 0.44542 0.31838 0.82121 0.0
H741 H 0.40393 0.38017 0.74429 0.0
H742 H 0.36784 0.27567 0.8382 0.0
H743 H 0.37948 0.30429 0.86835 0.0
H744 H 0.41177 0.28072 0.84997 0.0
H745 H 0.31691 0.34906 0.74891 0.0
H746 H 0.34522 0.37558 0.72678 0.0
H747 H 0.32765 0.38439 0.76852 0.0
C748 C 0.761 0.27655 0.7117 0.0
C749 C 0.7534 0.25453 0.687 0.0
C750 C 0.73509 0.29323 0.72748 0.0
C751 C 0.70092 0.28813 0.71785 0.0
C752 C 0.693 0.26402 0.69544 0.0
C753 C 0.71932 0.24746 0.68039 0.0
C754 C 0.74442 0.31789 0.75238 0.0
C755 C 0.65689 0.25758 0.68473 0.0
C756 C 0.62362 0.32895 0.75373 0.0
C757 C 0.61932 0.35198 0.72823 0.0
C758 C 0.65153 0.309 0.7524 0.0
C759 C 0.67477 0.31173 0.72429 0.0
C760 C 0.67117 0.33588 0.69949 0.0
C761 C 0.64373 0.35571 0.70196 0.0
C762 C 0.655 0.28428 0.7801 0.0
C763 C 0.69526 0.3399 0.66909 0.0
H764 H 0.78726 0.28172 0.71759 0.0
H765 H 0.71314 0.23015 0.6618 0.0
H766 H 0.7416 0.34048 0.73918 0.0
H767 H 0.72712 0.31728 0.77517 0.0
H768 H 0.77098 0.31564 0.76173 0.0
H769 H 0.65452 0.23577 0.67094 0.0
H770 H 0.64001 0.25672 0.7078 0.0
H771 H 0.6478 0.27623 0.6671 0.0
H772 H 0.60456 0.32569 0.77378 0.0
H773 H 0.64075 0.37375 0.68242 0.0
H774 H 0.68203 0.27951 0.78608 0.0
H775 H 0.64331 0.26303 0.77068 0.0
H776 H 0.64188 0.29049 0.80449 0.0
H777 H 0.72178 0.34155 0.67852 0.0
H778 H 0.68959 0.36057 0.65292 0.0
H779 H 0.69365 0.3198 0.65226 0.0
C780 C 0.81645 0.24871 0.15509 0.0
C781 C 0.7916 0.23139 0.13837 0.0
C782 C 0.84558 0.23493 0.16947 0.0
C783 C 0.85012 0.20315 0.16675 0.0
C784 C 0.8244 0.18541 0.15129 0.0
C785 C 0.79547 0.19972 0.13738 0.0
C786 C 0.87219 0.25456 0.18617 0.0
C787 C 0.82824 0.15145 0.1478 0.0
C788 C 0.9379 0.17059 0.15518 0.0
C789 C 0.94325 0.1549 0.18696 0.0
C790 C 0.90837 0.18744 0.14901 0.0
C791 C 0.88345 0.18894 0.17537 0.0
C792 C 0.8895 0.17468 0.20832 0.0
C793 C 0.91932 0.15759 0.21366 0.0
C794 C 0.90315 0.20237 0.11353 0.0
C795 C 0.86387 0.17617 0.23734 0.0
H796 H 0.81348 0.27316 0.1564 0.0
H797 H 0.77628 0.18609 0.12483 0.0
H798 H 0.88045 0.24423 0.21141 0.0
H799 H 0.89484 0.25616 0.16909 0.0
H800 H 0.86285 0.27796 0.19064 0.0
H801 H 0.80477 0.14058 0.13795 0.0
H802 H 0.84925 0.14675 0.12952 0.0
H803 H 0.83489 0.14065 0.17329 0.0
H804 H 0.95648 0.16899 0.13453 0.0
H805 H 0.92309 0.14528 0.23809 0.0
H806 H 0.8969 0.22678 0.11613 0.0
H807 H 0.88143 0.19143 0.1003 0.0
H808 H 0.92588 0.20059 0.09664 0.0
H809 H 0.85354 0.19952 0.23927 0.0
H810 H 0.87499 0.16916 0.26288 0.0
H811 H 0.84232 0.16075 0.23176 0.0
C812 C 0.75158 0.78897 0.80879 0.0
C813 C 0.7437 0.7757 0.77691 0.0
C814 C 0.78337 0.80275 0.81415 0.0
C815 C 0.80755 0.80331 0.78694 0.0
C816 C 0.8008 0.78738 0.75609 0.0
C817 C 0.76896 0.77385 0.75144 0.0
C818 C 0.78995 0.81871 0.8478 0.0
C819 C 0.82613 0.78686 0.72662 0.0
C820 C 0.86045 0.87174 0.76245 0.0
C821 C 0.89329 0.86067 0.76804 0.0
C822 C 0.83203 0.85431 0.77187 0.0
C823 C 0.83662 0.82496 0.78718 0.0
C824 C 0.8697 0.81508 0.79639 0.0
C825 C 0.89785 0.83302 0.78637 0.0
C826 C 0.79725 0.86616 0.76223 0.0
C827 C 0.87568 0.78455 0.81405 0.0
H828 H 0.73233 0.79015 0.82884 0.0
H829 H 0.76333 0.76309 0.72703 0.0
H830 H 0.81685 0.81637 0.85594 0.0
H831 H 0.78464 0.84335 0.84405 0.0
H832 H 0.77338 0.8097 0.86908 0.0
H833 H 0.81862 0.77072 0.70619 0.0
H834 H 0.82828 0.80996 0.71444 0.0
H835 H 0.85158 0.78037 0.73656 0.0
H836 H 0.85698 0.89338 0.74872 0.0
H837 H 0.9233 0.82448 0.79081 0.0
H838 H 0.77948 0.86311 0.7844 0.0
H839 H 0.78702 0.85308 0.74021 0.0
H840 H 0.79782 0.89065 0.7543 0.0
H841 H 0.85474 0.77836 0.83219 0.0
H842 H 0.9 0.78435 0.82872 0.0
H843 H 0.87706 0.76685 0.79404 0.0
C844 C 0.74688 0.73367 0.30803 0.0
C845 C 0.75175 0.75055 0.27686 0.0
C846 C 0.71629 0.71789 0.3145 0.0
C847 C 0.69027 0.7189 0.28911 0.0
C848 C 0.69369 0.7387 0.25963 0.0
C849 C 0.72439 0.75422 0.25383 0.0
C850 C 0.71304 0.69803 0.34695 0.0
C851 C 0.66619 0.74115 0.23235 0.0
C852 C 0.6438 0.64801 0.26311 0.0
C853 C 0.6104 0.65448 0.27265 0.0
C854 C 0.67044 0.66777 0.27089 0.0
C855 C 0.66355 0.69483 0.28879 0.0
C856 C 0.6303 0.70011 0.30136 0.0
C857 C 0.60389 0.67996 0.29273 0.0
C858 C 0.7055 0.66077 0.25741 0.0
C859 C 0.62193 0.72792 0.32176 0.0
H860 H 0.76766 0.73109 0.32633 0.0
H861 H 0.72763 0.76773 0.23005 0.0
H862 H 0.68699 0.69919 0.35777 0.0
H863 H 0.71792 0.674 0.34041 0.0
H864 H 0.73148 0.7047 0.36727 0.0
H865 H 0.67076 0.76034 0.21354 0.0
H866 H 0.66507 0.71973 0.21769 0.0
H867 H 0.6411 0.74432 0.24476 0.0
H868 H 0.64887 0.62808 0.2479 0.0
H869 H 0.57801 0.68508 0.30003 0.0
H870 H 0.72454 0.66257 0.27851 0.0
H871 H 0.71248 0.6776 0.23657 0.0
H872 H 0.7071 0.63763 0.24659 0.0
H873 H 0.64398 0.73584 0.33705 0.0
H874 H 0.60035 0.7233 0.33977 0.0
H875 H 0.61432 0.7466 0.30343 0.0
C876 C 0.26091 0.70825 0.20644 0.0
C877 C 0.25325 0.72442 0.23648 0.0
C878 C 0.29222 0.69335 0.20308 0.0
C879 C 0.31629 0.6948 0.23035 0.0
C880 C 0.30968 0.71314 0.25932 0.0
C881 C 0.27821 0.72759 0.2621 0.0
C882 C 0.29844 0.67429 0.17162 0.0
C883 C 0.33489 0.71575 0.28873 0.0
C884 C 0.37068 0.62821 0.25836 0.0
C885 C 0.40317 0.63854 0.24919 0.0
C886 C 0.34187 0.6453 0.24978 0.0
C887 C 0.34567 0.67365 0.23184 0.0
C888 C 0.3782 0.68306 0.22006 0.0
C889 C 0.40673 0.66537 0.22901 0.0
C890 C 0.30761 0.63402 0.26224 0.0
C891 C 0.38326 0.71278 0.20023 0.0
H892 H 0.24181 0.70585 0.18639 0.0
H893 H 0.27269 0.74044 0.28511 0.0
H894 H 0.32514 0.67635 0.16272 0.0
H895 H 0.29375 0.64999 0.1786 0.0
H896 H 0.28136 0.68083 0.14969 0.0
H897 H 0.32767 0.7336 0.30725 0.0
H898 H 0.33646 0.69365 0.30329 0.0
H899 H 0.36055 0.72107 0.27836 0.0
H900 H 0.36789 0.60721 0.27356 0.0
H901 H 0.43189 0.67339 0.2219 0.0
H902 H 0.28881 0.6354 0.24078 0.0
H903 H 0.2984 0.64866 0.28333 0.0
H904 H 0.30856 0.61015 0.27241 0.0
H905 H 0.36265 0.71668 0.18097 0.0
H906 H 0.40803 0.71351 0.18644 0.0
H907 H 0.38264 0.73175 0.21871 0.0
C908 C 0.18324 0.73217 0.7732 0.0
C909 C 0.20073 0.71614 0.74783 0.0
C910 C 0.16342 0.75758 0.76423 0.0
C911 C 0.16146 0.76774 0.72898 0.0
C912 C 0.17975 0.7522 0.70323 0.0
C913 C 0.19892 0.72634 0.71292 0.0
C914 C 0.14417 0.77332 0.79259 0.0
C915 C 0.17877 0.76265 0.66551 0.0
C916 C 0.0834 0.81636 0.71656 0.0
C917 C 0.09622 0.84463 0.72636 0.0
C918 C 0.10508 0.79124 0.71357 0.0
C919 C 0.14027 0.79484 0.71998 0.0
C920 C 0.15365 0.82431 0.72511 0.0
C921 C 0.13137 0.84881 0.72879 0.0
C922 C 0.08967 0.76032 0.70783 0.0
C923 C 0.19112 0.82943 0.73058 0.0
H924 H 0.18429 0.72439 0.80018 0.0
H925 H 0.21234 0.71404 0.69312 0.0
H926 H 0.1529 0.79725 0.79432 0.0
H927 H 0.11668 0.77378 0.78633 0.0
H928 H 0.14753 0.76193 0.81851 0.0
H929 H 0.19767 0.75058 0.64953 0.0
H930 H 0.15317 0.75842 0.65462 0.0
H931 H 0.18363 0.78749 0.66308 0.0
H932 H 0.05619 0.81312 0.71468 0.0
H933 H 0.1413 0.87082 0.73597 0.0
H934 H 0.08801 0.74767 0.73315 0.0
H935 H 0.10568 0.74683 0.69028 0.0
H936 H 0.06374 0.76208 0.69663 0.0
H937 H 0.19804 0.82222 0.75755 0.0
H938 H 0.19814 0.85379 0.72678 0.0
H939 H 0.2063 0.81567 0.71251 0.0
loop_
_geom_bond_atom_site_label_1
_geom_bond_atom_site_label_2
_geom_bond_distance
_geom_bond_site_symmetry_2
_ccdc_geom_bond_type
O0 Cd1 2.300 . S
O0 C7 1.275 . S
Cd1 O0 2.300 . S
Cd1 O9 2.381 . S
Cd1 O10 2.378 . S
O2 Cd3 2.385 . S
O2 C7 1.255 . S
Cd3 O2 2.385 . S
Cd3 O4 2.317 . S
O4 Cd3 2.317 . S
O4 C5 1.232 . S
C5 O4 1.232 . S
C5 O6 1.218 . S
O6 C5 1.218 . S
C7 O0 1.275 . S
C7 O2 1.255 . S
C8 O9 1.258 . S
C8 O10 1.256 . S
O9 Cd1 2.381 . S
O9 C8 1.258 . S
O10 Cd1 2.378 . S
O10 C8 1.256 . S
O11 Cd12 2.300 . S
O11 C18 1.275 . S
Cd12 O11 2.300 . S
Cd12 O20 2.381 . S
Cd12 O21 2.378 . S
O13 Cd14 2.385 . S
O13 C18 1.255 . S
Cd14 O13 2.385 . S
Cd14 O15 2.317 . S
O15 Cd14 2.317 . S
O15 C16 1.232 . S
C16 O15 1.232 . S
C16 O17 1.218 . S
O17 C16 1.218 . S
C18 O11 1.275 . S
C18 O13 1.255 . S
C19 O20 1.258 . S
C19 O21 1.256 . S
O20 Cd12 2.381 . S
O20 C19 1.258 . S
O21 Cd12 2.378 . S
O21 C19 1.256 . S
O22 Cd23 2.300 . S
O22 C29 1.275 . S
Cd23 O22 2.300 . S
Cd23 O31 2.381 . S
Cd23 O32 2.378 . S
O24 Cd25 2.385 . S
O24 C29 1.255 . S
Cd25 O24 2.385 . S
Cd25 O26 2.317 . S
O26 Cd25 2.317 . S
O26 C27 1.232 . S
C27 O26 1.232 . S
C27 O28 1.218 . S
O28 C27 1.218 . S
C29 O22 1.275 . S
C29 O24 1.255 . S
C30 O31 1.258 . S
C30 O32 1.256 . S
O31 Cd23 2.381 . S
O31 C30 1.258 . S
O32 Cd23 2.378 . S
O32 C30 1.256 . S
O33 Cd34 2.300 . S
O33 C40 1.275 . S
Cd34 O33 2.300 . S
Cd34 O42 2.381 . S
Cd34 O43 2.378 . S
O35 Cd36 2.385 . S
O35 C40 1.255 . S
Cd36 O35 2.385 . S
Cd36 O37 2.317 . S
O37 Cd36 2.317 . S
O37 C38 1.232 . S
C38 O37 1.232 . S
C38 O39 1.218 . S
O39 C38 1.218 . S
C40 O33 1.275 . S
C40 O35 1.255 . S
C41 O42 1.258 . S
C41 O43 1.256 . S
O42 Cd34 2.381 . S
O42 C41 1.258 . S
O43 Cd34 2.378 . S
O43 C41 1.256 . S
O44 Cd45 2.300 . S
O44 C51 1.275 . S
Cd45 O44 2.300 . S
Cd45 O53 2.381 . S
Cd45 O54 2.378 . S
O46 Cd47 2.385 . S
O46 C51 1.255 . S
Cd47 O46 2.385 . S
Cd47 O48 2.317 . S
O48 Cd47 2.317 . S
O48 C49 1.232 . S
C49 O48 1.232 . S
C49 O50 1.218 . S
O50 C49 1.218 . S
C51 O44 1.275 . S
C51 O46 1.255 . S
C52 O53 1.258 . S
C52 O54 1.256 . S
O53 Cd45 2.381 . S
O53 C52 1.258 . S
O54 Cd45 2.378 . S
O54 C52 1.256 . S
O55 Cd56 2.300 . S
O55 C62 1.275 . S
Cd56 O55 2.300 . S
Cd56 O64 2.381 . S
Cd56 O65 2.378 . S
O57 Cd58 2.385 . S
O57 C62 1.255 . S
Cd58 O57 2.385 . S
Cd58 O59 2.317 . S
O59 Cd58 2.317 . S
O59 C60 1.232 . S
C60 O59 1.232 . S
C60 O61 1.218 . S
O61 C60 1.218 . S
C62 O55 1.275 . S
C62 O57 1.255 . S
C63 O64 1.258 . S
C63 O65 1.256 . S
O64 Cd56 2.381 . S
O64 C63 1.258 . S
O65 Cd56 2.378 . S
O65 C63 1.256 . S
O66 Cd67 2.300 . S
O66 C73 1.275 . S
Cd67 O66 2.300 . S
Cd67 O75 2.381 . S
Cd67 O76 2.378 . S
O68 Cd69 2.385 . S
O68 C73 1.255 . S
Cd69 O68 2.385 . S
Cd69 O70 2.317 . S
O70 Cd69 2.317 . S
O70 C71 1.232 . S
C71 O70 1.232 . S
C71 O72 1.218 . S
O72 C71 1.218 . S
C73 O66 1.275 . S
C73 O68 1.255 . S
C74 O75 1.258 . S
C74 O76 1.256 . S
O75 Cd67 2.381 . S
O75 C74 1.258 . S
O76 Cd67 2.378 . S
O76 C74 1.256 . S
O77 Cd78 2.300 . S
O77 C84 1.275 . S
Cd78 O77 2.300 . S
Cd78 O86 2.381 . S
Cd78 O87 2.378 . S
O79 Cd80 2.385 . S
O79 C84 1.255 . S
Cd80 O79 2.385 . S
Cd80 O81 2.317 . S
O81 Cd80 2.317 . S
O81 C82 1.232 . S
C82 O81 1.232 . S
C82 O83 1.218 . S
O83 C82 1.218 . S
C84 O77 1.275 . S
C84 O79 1.255 . S
C85 O86 1.258 . S
C85 O87 1.256 . S
O86 Cd78 2.381 . S
O86 C85 1.258 . S
O87 Cd78 2.378 . S
O87 C85 1.256 . S
Zn88 O94 1.920 . S
Zn88 O100 1.898 . S
Zn88 O103 1.905 . S
Zn89 O97 1.905 1_655 S
Zn89 O98 1.898 . S
Zn89 O106 1.920 . S
Zn90 O93 2.080 1_455 S
Zn90 O96 2.114 . S
Zn90 O99 2.120 1_455 S
Zn90 O101 2.120 . S
Zn90 O102 2.114 . S
Zn90 O105 2.080 1_455 S
C91 O96 1.166 . S
C91 O97 1.182 . S
C92 O98 1.167 . S
C92 O99 1.299 . S
O93 Zn90 2.080 1_655 S
O93 C107 1.305 . S
O94 Zn88 1.920 . S
O94 C107 1.234 1_455 S
C95 O100 1.167 . S
C95 O101 1.299 . S
O96 Zn90 2.114 . S
O96 C91 1.166 . S
O97 Zn89 1.905 1_455 S
O97 C91 1.182 . S
O98 Zn89 1.898 . S
O98 C92 1.167 . S
O99 Zn90 2.120 1_655 S
O99 C92 1.299 . S
O100 Zn88 1.898 . S
O100 C95 1.167 . S
O101 Zn90 2.120 . S
O101 C95 1.299 . S
O102 Zn90 2.114 . S
O102 C104 1.166 . S
O103 Zn88 1.905 . S
O103 C104 1.182 . S
C104 O102 1.166 . S
C104 O103 1.182 . S
O105 Zn90 2.080 1_655 S
O105 C108 1.305 . S
O106 Zn89 1.920 . S
O106 C108 1.234 . S
C107 O93 1.305 . S
C107 O94 1.234 1_655 S
C108 O105 1.305 . S
C108 O106 1.234 . S
Zn109 O115 1.920 . S
Zn109 O121 1.898 . S
Zn109 O124 1.905 . S
Zn110 O118 1.905 . S
Zn110 O119 1.898 . S
Zn110 O127 1.920 . S
Zn111 O114 2.080 . S
Zn111 O117 2.114 . S
Zn111 O120 2.120 . S
Zn111 O122 2.120 . S
Zn111 O123 2.114 . S
Zn111 O126 2.080 . S
C112 O117 1.166 . S
C112 O118 1.182 . S
C113 O119 1.167 . S
C113 O120 1.299 . S
O114 Zn111 2.080 . S
O114 C128 1.305 . S
O115 Zn109 1.920 . S
O115 C128 1.234 . S
C116 O121 1.167 . S
C116 O122 1.299 . S
O117 Zn111 2.114 . S
O117 C112 1.166 . S
O118 Zn110 1.905 . S
O118 C112 1.182 . S
O119 Zn110 1.898 . S
O119 C113 1.167 . S
O120 Zn111 2.120 . S
O120 C113 1.299 . S
O121 Zn109 1.898 . S
O121 C116 1.167 . S
O122 Zn111 2.120 . S
O122 C116 1.299 . S
O123 Zn111 2.114 . S
O123 C125 1.166 . S
O124 Zn109 1.905 . S
O124 C125 1.182 . S
C125 O123 1.166 . S
C125 O124 1.182 . S
O126 Zn111 2.080 . S
O126 C129 1.305 . S
O127 Zn110 1.920 . S
O127 C129 1.234 . S
C128 O114 1.305 . S
C128 O115 1.234 . S
C129 O126 1.305 . S
C129 O127 1.234 . S
Zn130 O136 1.920 . S
Zn130 O142 1.898 . S
Zn130 O145 1.905 1_455 S
Zn131 O139 1.905 . S
Zn131 O140 1.898 . S
Zn131 O148 1.920 1_655 S
Zn132 O135 2.080 . S
Zn132 O138 2.114 1_455 S
Zn132 O141 2.120 1_455 S
Zn132 O143 2.120 . S
Zn132 O144 2.114 1_455 S
Zn132 O147 2.080 . S
C133 O138 1.166 . S
C133 O139 1.182 . S
C134 O140 1.167 . S
C134 O141 1.299 . S
O135 Zn132 2.080 . S
O135 C149 1.305 . S
O136 Zn130 1.920 . S
O136 C149 1.234 . S
C137 O142 1.167 . S
C137 O143 1.299 . S
O138 Zn132 2.114 1_655 S
O138 C133 1.166 . S
O139 Zn131 1.905 . S
O139 C133 1.182 . S
O140 Zn131 1.898 . S
O140 C134 1.167 . S
O141 Zn132 2.120 1_655 S
O141 C134 1.299 . S
O142 Zn130 1.898 . S
O142 C137 1.167 . S
O143 Zn132 2.120 . S
O143 C137 1.299 . S
O144 Zn132 2.114 1_655 S
O144 C146 1.166 . S
O145 Zn130 1.905 1_655 S
O145 C146 1.182 . S
C146 O144 1.166 . S
C146 O145 1.182 . S
O147 Zn132 2.080 . S
O147 C150 1.305 . S
O148 Zn131 1.920 1_455 S
O148 C150 1.234 . S
C149 O135 1.305 . S
C149 O136 1.234 . S
C150 O147 1.305 . S
C150 O148 1.234 . S
Zn151 O157 1.920 . S
Zn151 O163 1.898 . S
Zn151 O166 1.905 . S
Zn152 O160 1.905 . S
Zn152 O161 1.898 . S
Zn152 O169 1.920 . S
Zn153 O156 2.080 . S
Zn153 O159 2.114 . S
Zn153 O162 2.120 . S
Zn153 O164 2.120 . S
Zn153 O165 2.114 . S
Zn153 O168 2.080 . S
C154 O159 1.166 . S
C154 O160 1.182 . S
C155 O161 1.167 . S
C155 O162 1.299 . S
O156 Zn153 2.080 . S
O156 C170 1.305 . S
O157 Zn151 1.920 . S
O157 C170 1.234 . S
C158 O163 1.167 . S
C158 O164 1.299 . S
O159 Zn153 2.114 . S
O159 C154 1.166 . S
O160 Zn152 1.905 . S
O160 C154 1.182 . S
O161 Zn152 1.898 . S
O161 C155 1.167 . S
O162 Zn153 2.120 . S
O162 C155 1.299 . S
O163 Zn151 1.898 . S
O163 C158 1.167 . S
O164 Zn153 2.120 . S
O164 C158 1.299 . S
O165 Zn153 2.114 . S
O165 C167 1.166 . S
O166 Zn151 1.905 . S
O166 C167 1.182 . S
C167 O165 1.166 . S
C167 O166 1.182 . S
O168 Zn153 2.080 . S
O168 C171 1.305 . S
O169 Zn152 1.920 . S
O169 C171 1.234 . S
C170 O156 1.305 . S
C170 O157 1.234 . S
C171 O168 1.305 . S
C171 O169 1.234 . S
C172 C173 1.391 . S
C172 C174 1.394 . S
C172 H188 0.931 . S
C173 C172 1.391 . S
C173 C177 1.376 . S
C174 C172 1.394 . S
C174 C175 1.369 . S
C174 C178 1.531 . S
C175 C174 1.369 . S
C175 C176 1.410 . S
C175 C183 1.503 . S
C176 C175 1.410 . S
C176 C177 1.392 . S
C176 C179 1.511 . S
C177 C173 1.376 . S
C177 C176 1.392 . S
C177 H189 0.929 . S
C178 C174 1.531 . S
C178 H190 0.960 . S
C178 H191 0.962 . S
C178 H192 0.960 . S
C179 C176 1.511 . S
C179 H193 0.961 . S
C179 H194 0.961 . S
C179 H195 0.961 . S
C180 C181 1.370 . S
C180 C182 1.363 . S
C180 H196 0.931 . S
C181 C180 1.370 . S
C181 C185 1.408 . S
C182 C180 1.363 . S
C182 C183 1.370 1_545 S
C182 C186 1.524 . S
C183 C175 1.503 . S
C183 C182 1.370 1_565 S
C183 C184 1.403 . S
C184 C183 1.403 . S
C184 C185 1.404 1_565 S
C184 C187 1.539 . S
C185 C181 1.408 . S
C185 C184 1.404 1_545 S
C185 H197 0.930 . S
C186 C182 1.524 . S
C186 H198 0.956 1_545 S
C186 H199 0.961 1_545 S
C186 H200 0.961 . S
C187 C184 1.539 . S
C187 H201 0.958 . S
C187 H202 0.961 . S
C187 H203 0.960 . S
H188 C172 0.931 . S
H189 C177 0.929 . S
H190 C178 0.960 . S
H191 C178 0.962 . S
H192 C178 0.960 . S
H193 C179 0.961 . S
H194 C179 0.961 . S
H195 C179 0.961 . S
H196 C180 0.931 . S
H197 C185 0.930 . S
H198 C186 0.956 1_565 S
H199 C186 0.961 1_565 S
H200 C186 0.961 . S
H201 C187 0.958 . S
H202 C187 0.961 . S
H203 C187 0.960 . S
C204 C205 1.391 . S
C204 C206 1.394 . S
C204 H220 0.931 . S
C205 C204 1.391 . S
C205 C209 1.376 . S
C206 C204 1.394 . S
C206 C207 1.369 . S
C206 C210 1.531 . S
C207 C206 1.369 . S
C207 C208 1.410 . S
C207 C215 1.503 . S
C208 C207 1.410 . S
C208 C209 1.392 . S
C208 C211 1.511 . S
C209 C205 1.376 . S
C209 C208 1.392 . S
C209 H221 0.929 . S
C210 C206 1.531 . S
C210 H222 0.960 . S
C210 H223 0.962 . S
C210 H224 0.960 . S
C211 C208 1.511 . S
C211 H225 0.961 . S
C211 H226 0.961 . S
C211 H227 0.961 . S
C212 C213 1.370 . S
C212 C214 1.363 . S
C212 H228 0.931 . S
C213 C212 1.370 . S
C213 C217 1.408 . S
C214 C212 1.363 . S
C214 C215 1.370 . S
C214 C218 1.524 . S
C215 C207 1.503 . S
C215 C214 1.370 . S
C215 C216 1.403 . S
C216 C215 1.403 . S
C216 C217 1.404 . S
C216 C219 1.539 . S
C217 C213 1.408 . S
C217 C216 1.404 . S
C217 H229 0.930 . S
C218 C214 1.524 . S
C218 H230 0.956 . S
C218 H231 0.961 . S
C218 H232 0.961 . S
C219 C216 1.539 . S
C219 H233 0.958 . S
C219 H234 0.961 . S
C219 H235 0.960 . S
H220 C204 0.931 . S
H221 C209 0.929 . S
H222 C210 0.960 . S
H223 C210 0.962 . S
H224 C210 0.960 . S
H225 C211 0.961 . S
H226 C211 0.961 . S
H227 C211 0.961 . S
H228 C212 0.931 . S
H229 C217 0.930 . S
H230 C218 0.956 . S
H231 C218 0.961 . S
H232 C218 0.961 . S
H233 C219 0.958 . S
H234 C219 0.961 . S
H235 C219 0.960 . S
C236 C237 1.391 . S
C236 C238 1.394 . S
C236 H252 0.931 . S
C237 C236 1.391 . S
C237 C241 1.376 . S
C238 C236 1.394 . S
C238 C239 1.369 . S
C238 C242 1.531 . S
C239 C238 1.369 . S
C239 C240 1.410 . S
C239 C247 1.503 . S
C240 C239 1.410 . S
C240 C241 1.392 . S
C240 C243 1.511 . S
C241 C237 1.376 . S
C241 C240 1.392 . S
C241 H253 0.929 . S
C242 C238 1.531 . S
C242 H254 0.960 . S
C242 H255 0.962 . S
C242 H256 0.960 . S
C243 C240 1.511 . S
C243 H257 0.961 . S
C243 H258 0.961 . S
C243 H259 0.961 . S
C244 C245 1.370 . S
C244 C246 1.363 . S
C244 H260 0.931 . S
C245 C244 1.370 . S
C245 C249 1.408 . S
C246 C244 1.363 . S
C246 C247 1.370 . S
C246 C250 1.524 . S
C247 C239 1.503 . S
C247 C246 1.370 . S
C247 C248 1.403 . S
C248 C247 1.403 . S
C248 C249 1.404 . S
C248 C251 1.539 . S
C249 C245 1.408 . S
C249 C248 1.404 . S
C249 H261 0.930 . S
C250 C246 1.524 . S
C250 H262 0.956 . S
C250 H263 0.961 . S
C250 H264 0.961 . S
C251 C248 1.539 . S
C251 H265 0.958 . S
C251 H266 0.961 . S
C251 H267 0.960 . S
H252 C236 0.931 . S
H253 C241 0.929 . S
H254 C242 0.960 . S
H255 C242 0.962 . S
H256 C242 0.960 . S
H257 C243 0.961 . S
H258 C243 0.961 . S
H259 C243 0.961 . S
H260 C244 0.931 . S
H261 C249 0.930 . S
H262 C250 0.956 . S
H263 C250 0.961 . S
H264 C250 0.961 . S
H265 C251 0.958 . S
H266 C251 0.961 . S
H267 C251 0.960 . S
C268 C269 1.391 . S
C268 C270 1.394 . S
C268 H284 0.931 . S
C269 C268 1.391 . S
C269 C273 1.376 . S
C270 C268 1.394 . S
C270 C271 1.369 . S
C270 C274 1.531 . S
C271 C270 1.369 . S
C271 C272 1.410 . S
C271 C279 1.503 . S
C272 C271 1.410 . S
C272 C273 1.392 . S
C272 C275 1.511 . S
C273 C269 1.376 . S
C273 C272 1.392 . S
C273 H285 0.929 . S
C274 C270 1.531 . S
C274 H286 0.960 . S
C274 H287 0.962 . S
C274 H288 0.960 . S
C275 C272 1.511 . S
C275 H289 0.961 . S
C275 H290 0.961 1_565 S
C275 H291 0.961 . S
C276 C277 1.370 . S
C276 C278 1.363 . S
C276 H292 0.931 . S
C277 C276 1.370 . S
C277 C281 1.408 . S
C278 C276 1.363 . S
C278 C279 1.370 1_545 S
C278 C282 1.524 1_545 S
C279 C271 1.503 . S
C279 C278 1.370 1_565 S
C279 C280 1.403 . S
C280 C279 1.403 . S
C280 C281 1.404 1_565 S
C280 C283 1.539 . S
C281 C277 1.408 . S
C281 C280 1.404 1_545 S
C281 H293 0.930 1_655 S
C282 C278 1.524 1_565 S
C282 H294 0.956 . S
C282 H295 0.961 . S
C282 H296 0.961 1_565 S
C283 C280 1.539 . S
C283 H297 0.958 . S
C283 H298 0.950 1_655 S
C283 H299 0.960 . S
H284 C268 0.931 . S
H285 C273 0.929 . S
H286 C274 0.960 . S
H287 C274 0.962 . S
H288 C274 0.960 . S
H289 C275 0.961 . S
H290 C275 0.961 1_545 S
H291 C275 0.961 . S
H292 C276 0.931 . S
H293 C281 0.930 1_455 S
H294 C282 0.956 . S
H295 C282 0.961 . S
H296 C282 0.961 1_545 S
H297 C283 0.958 . S
H298 C283 0.950 1_455 S
H299 C283 0.960 . S
C300 C301 1.391 . S
C300 C302 1.394 . S
C300 H316 0.931 . S
C301 C300 1.391 . S
C301 C305 1.376 . S
C302 C300 1.394 . S
C302 C303 1.369 . S
C302 C306 1.531 . S
C303 C302 1.369 . S
C303 C304 1.410 . S
C303 C311 1.503 . S
C304 C303 1.410 . S
C304 C305 1.392 . S
C304 C307 1.511 . S
C305 C301 1.376 . S
C305 C304 1.392 . S
C305 H317 0.929 . S
C306 C302 1.531 . S
C306 H318 0.960 . S
C306 H319 0.962 . S
C306 H320 0.960 . S
C307 C304 1.511 . S
C307 H321 0.961 . S
C307 H322 0.961 . S
C307 H323 0.961 . S
C308 C309 1.370 . S
C308 C310 1.363 1_565 S
C308 H324 0.933 . S
C309 C308 1.370 . S
C309 C313 1.408 . S
C310 C308 1.363 1_545 S
C310 C311 1.370 . S
C310 C314 1.524 . S
C311 C303 1.503 . S
C311 C310 1.370 . S
C311 C312 1.403 1_545 S
C312 C311 1.403 1_565 S
C312 C313 1.404 . S
C312 C315 1.539 . S
C313 C309 1.408 . S
C313 C312 1.404 . S
C313 H325 0.930 . S
C314 C310 1.524 . S
C314 H326 0.956 . S
C314 H327 0.961 . S
C314 H328 0.961 . S
C315 C312 1.539 . S
C315 H329 0.958 . S
C315 H330 0.961 . S
C315 H331 0.960 1_565 S
H316 C300 0.931 . S
H317 C305 0.929 . S
H318 C306 0.960 . S
H319 C306 0.962 . S
H320 C306 0.960 . S
H321 C307 0.961 . S
H322 C307 0.961 . S
H323 C307 0.961 . S
H324 C308 0.933 . S
H325 C313 0.930 . S
H326 C314 0.956 . S
H327 C314 0.961 . S
H328 C314 0.961 . S
H329 C315 0.958 . S
H330 C315 0.961 . S
H331 C315 0.960 1_545 S
C332 C333 1.391 . S
C332 C334 1.394 . S
C332 H348 0.931 . S
C333 C332 1.391 . S
C333 C337 1.376 . S
C334 C332 1.394 . S
C334 C335 1.369 . S
C334 C338 1.531 . S
C335 C334 1.369 . S
C335 C336 1.410 . S
C335 C343 1.503 . S
C336 C335 1.410 . S
C336 C337 1.392 . S
C336 C339 1.511 . S
C337 C333 1.376 . S
C337 C336 1.392 . S
C337 H349 0.929 . S
C338 C334 1.531 . S
C338 H350 0.960 . S
C338 H351 0.962 . S
C338 H352 0.960 . S
C339 C336 1.511 . S
C339 H353 0.961 . S
C339 H354 0.961 . S
C339 H355 0.961 . S
C340 C341 1.370 . S
C340 C342 1.363 . S
C340 H356 0.931 . S
C341 C340 1.370 . S
C341 C345 1.408 . S
C342 C340 1.363 . S
C342 C343 1.370 . S
C342 C346 1.524 . S
C343 C335 1.503 . S
C343 C342 1.370 . S
C343 C344 1.403 . S
C344 C343 1.403 . S
C344 C345 1.404 . S
C344 C347 1.539 . S
C345 C341 1.408 . S
C345 C344 1.404 . S
C345 H357 0.930 . S
C346 C342 1.524 . S
C346 H358 0.956 . S
C346 H359 0.961 . S
C346 H360 0.961 . S
C347 C344 1.539 . S
C347 H361 0.958 . S
C347 H362 0.961 . S
C347 H363 0.960 . S
H348 C332 0.931 . S
H349 C337 0.929 . S
H350 C338 0.960 . S
H351 C338 0.962 . S
H352 C338 0.960 . S
H353 C339 0.961 . S
H354 C339 0.961 . S
H355 C339 0.961 . S
H356 C340 0.931 . S
H357 C345 0.930 . S
H358 C346 0.956 . S
H359 C346 0.961 . S
H360 C346 0.961 . S
H361 C347 0.958 . S
H362 C347 0.961 . S
H363 C347 0.960 . S
C364 C365 1.391 . S
C364 C366 1.394 . S
C364 H380 0.931 . S
C365 C364 1.391 . S
C365 C369 1.376 . S
C366 C364 1.394 . S
C366 C367 1.369 . S
C366 C370 1.531 . S
C367 C366 1.369 . S
C367 C368 1.410 . S
C367 C375 1.503 . S
C368 C367 1.410 . S
C368 C369 1.392 . S
C368 C371 1.511 . S
C369 C365 1.376 . S
C369 C368 1.392 . S
C369 H381 0.929 . S
C370 C366 1.531 . S
C370 H382 0.960 . S
C370 H383 0.962 . S
C370 H384 0.960 . S
C371 C368 1.511 . S
C371 H385 0.961 . S
C371 H386 0.961 . S
C371 H387 0.961 . S
C372 C373 1.370 . S
C372 C374 1.363 . S
C372 H388 0.931 . S
C373 C372 1.370 . S
C373 C377 1.408 . S
C374 C372 1.363 . S
C374 C375 1.370 . S
C374 C378 1.524 . S
C375 C367 1.503 . S
C375 C374 1.370 . S
C375 C376 1.403 . S
C376 C375 1.403 . S
C376 C377 1.404 . S
C376 C379 1.539 . S
C377 C373 1.408 . S
C377 C376 1.404 . S
C377 H389 0.930 . S
C378 C374 1.524 . S
C378 H390 0.956 . S
C378 H391 0.961 . S
C378 H392 0.961 . S
C379 C376 1.539 . S
C379 H393 0.958 . S
C379 H394 0.961 . S
C379 H395 0.960 . S
H380 C364 0.931 . S
H381 C369 0.929 . S
H382 C370 0.960 . S
H383 C370 0.962 . S
H384 C370 0.960 . S
H385 C371 0.961 . S
H386 C371 0.961 . S
H387 C371 0.961 . S
H388 C372 0.931 . S
H389 C377 0.930 . S
H390 C378 0.956 . S
H391 C378 0.961 . S
H392 C378 0.961 . S
H393 C379 0.958 . S
H394 C379 0.961 . S
H395 C379 0.960 . S
C396 C397 1.391 . S
C396 C398 1.394 . S
C396 H412 0.931 . S
C397 C396 1.391 . S
C397 C401 1.376 . S
C398 C396 1.394 . S
C398 C399 1.369 . S
C398 C402 1.531 . S
C399 C398 1.369 . S
C399 C400 1.410 . S
C399 C407 1.503 . S
C400 C399 1.410 . S
C400 C401 1.392 . S
C400 C403 1.511 . S
C401 C397 1.376 . S
C401 C400 1.392 . S
C401 H413 0.929 . S
C402 C398 1.531 . S
C402 H414 0.960 1_545 S
C402 H415 0.962 . S
C402 H416 0.960 . S
C403 C400 1.511 . S
C403 H417 0.961 . S
C403 H418 0.961 . S
C403 H419 0.961 . S
C404 C405 1.370 . S
C404 C406 1.363 1_565 S
C404 H420 0.931 . S
C405 C404 1.370 . S
C405 C409 1.408 . S
C406 C404 1.363 1_545 S
C406 C407 1.370 . S
C406 C410 1.524 . S
C407 C399 1.503 . S
C407 C406 1.370 . S
C407 C408 1.403 1_545 S
C408 C407 1.403 1_565 S
C408 C409 1.404 . S
C408 C411 1.539 . S
C409 C405 1.408 . S
C409 C408 1.404 . S
C409 H421 0.930 . S
C410 C406 1.524 . S
C410 H422 0.956 . S
C410 H423 0.961 . S
C410 H424 0.961 . S
C411 C408 1.539 . S
C411 H425 0.958 . S
C411 H426 0.961 . S
C411 H427 0.960 1_565 S
H412 C396 0.931 . S
H413 C401 0.929 . S
H414 C402 0.960 1_565 S
H415 C402 0.962 . S
H416 C402 0.960 . S
H417 C403 0.961 . S
H418 C403 0.961 . S
H419 C403 0.961 . S
H420 C404 0.931 . S
H421 C409 0.930 . S
H422 C410 0.956 . S
H423 C410 0.961 . S
H424 C410 0.961 . S
H425 C411 0.958 . S
H426 C411 0.961 . S
H427 C411 0.960 1_545 S
C428 C429 1.391 1_554 S
C428 C430 1.394 . S
C428 H444 0.931 . S
C429 C428 1.391 1_556 S
C429 C433 1.376 . S
C430 C428 1.394 . S
C430 C431 1.369 . S
C430 C434 1.531 . S
C431 C430 1.369 . S
C431 C432 1.410 . S
C431 C439 1.503 . S
C432 C431 1.410 . S
C432 C433 1.392 1_554 S
C432 C435 1.511 . S
C433 C429 1.376 . S
C433 C432 1.392 1_556 S
C433 H445 0.929 . S
C434 C430 1.531 . S
C434 H446 0.960 . S
C434 H447 0.962 . S
C434 H448 0.960 . S
C435 C432 1.511 . S
C435 H449 0.961 1_554 S
C435 H450 0.961 . S
C435 H451 0.961 . S
C436 C437 1.370 . S
C436 C438 1.363 . S
C436 H452 0.931 . S
C437 C436 1.370 . S
C437 C441 1.408 . S
C438 C436 1.363 . S
C438 C439 1.370 . S
C438 C442 1.524 . S
C439 C431 1.503 . S
C439 C438 1.370 . S
C439 C440 1.403 . S
C440 C439 1.403 . S
C440 C441 1.404 . S
C440 C443 1.539 . S
C441 C437 1.408 . S
C441 C440 1.404 . S
C441 H453 0.930 . S
C442 C438 1.524 . S
C442 H454 0.956 . S
C442 H455 0.961 . S
C442 H456 0.961 . S
C443 C440 1.539 . S
C443 H457 0.958 . S
C443 H458 0.961 . S
C443 H459 0.960 . S
H444 C428 0.931 . S
H445 C433 0.929 . S
H446 C434 0.960 . S
H447 C434 0.962 . S
H448 C434 0.960 . S
H449 C435 0.961 1_556 S
H450 C435 0.961 . S
H451 C435 0.961 . S
H452 C436 0.931 . S
H453 C441 0.930 . S
H454 C442 0.956 . S
H455 C442 0.961 . S
H456 C442 0.961 . S
H457 C443 0.958 . S
H458 C443 0.961 . S
H459 C443 0.960 . S
C460 C461 1.391 . S
C460 C462 1.394 . S
C460 H476 0.931 . S
C461 C460 1.391 . S
C461 C465 1.376 . S
C462 C460 1.394 . S
C462 C463 1.369 . S
C462 C466 1.531 . S
C463 C462 1.369 . S
C463 C464 1.410 . S
C463 C471 1.503 . S
C464 C463 1.410 . S
C464 C465 1.392 . S
C464 C467 1.511 . S
C465 C461 1.376 . S
C465 C464 1.392 . S
C465 H477 0.929 . S
C466 C462 1.531 . S
C466 H478 0.960 . S
C466 H479 0.962 . S
C466 H480 0.960 . S
C467 C464 1.511 . S
C467 H481 0.961 . S
C467 H482 0.961 . S
C467 H483 0.961 . S
C468 C469 1.370 . S
C468 C470 1.363 . S
C468 H484 0.931 . S
C469 C468 1.370 . S
C469 C473 1.408 . S
C470 C468 1.363 . S
C470 C471 1.370 . S
C470 C474 1.524 . S
C471 C463 1.503 . S
C471 C470 1.370 . S
C471 C472 1.403 . S
C472 C471 1.403 . S
C472 C473 1.404 . S
C472 C475 1.539 . S
C473 C469 1.408 . S
C473 C472 1.404 . S
C473 H485 0.930 . S
C474 C470 1.524 . S
C474 H486 0.956 . S
C474 H487 0.961 . S
C474 H488 0.961 . S
C475 C472 1.539 . S
C475 H489 0.958 . S
C475 H490 0.961 . S
C475 H491 0.960 . S
H476 C460 0.931 . S
H477 C465 0.929 . S
H478 C466 0.960 . S
H479 C466 0.962 . S
H480 C466 0.960 . S
H481 C467 0.961 . S
H482 C467 0.961 . S
H483 C467 0.961 . S
H484 C468 0.931 . S
H485 C473 0.930 . S
H486 C474 0.956 . S
H487 C474 0.961 . S
H488 C474 0.961 . S
H489 C475 0.958 . S
H490 C475 0.961 . S
H491 C475 0.960 . S
C492 C493 1.391 1_556 S
C492 C494 1.394 . S
C492 H508 0.931 1_556 S
C493 C492 1.391 1_554 S
C493 C497 1.376 . S
C494 C492 1.394 . S
C494 C495 1.369 . S
C494 C498 1.531 . S
C495 C494 1.369 . S
C495 C496 1.410 . S
C495 C503 1.503 . S
C496 C495 1.410 . S
C496 C497 1.392 1_556 S
C496 C499 1.511 . S
C497 C493 1.376 . S
C497 C496 1.392 1_554 S
C497 H509 0.929 . S
C498 C494 1.531 . S
C498 H510 0.960 . S
C498 H511 0.962 . S
C498 H512 0.960 . S
C499 C496 1.511 . S
C499 H513 0.965 . S
C499 H514 0.961 . S
C499 H515 0.961 . S
C500 C501 1.370 . S
C500 C502 1.363 . S
C500 H516 0.931 . S
C501 C500 1.370 . S
C501 C505 1.408 . S
C502 C500 1.363 . S
C502 C503 1.370 . S
C502 C506 1.524 . S
C503 C495 1.503 . S
C503 C502 1.370 . S
C503 C504 1.403 . S
C504 C503 1.403 . S
C504 C505 1.404 . S
C504 C507 1.539 . S
C505 C501 1.408 . S
C505 C504 1.404 . S
C505 H517 0.930 . S
C506 C502 1.524 . S
C506 H518 0.956 . S
C506 H519 0.961 . S
C506 H520 0.961 . S
C507 C504 1.539 . S
C507 H521 0.958 . S
C507 H522 0.961 . S
C507 H523 0.960 . S
H508 C492 0.931 1_554 S
H509 C497 0.929 . S
H510 C498 0.960 . S
H511 C498 0.962 . S
H512 C498 0.960 . S
H513 C499 0.965 . S
H514 C499 0.961 . S
H515 C499 0.961 . S
H516 C500 0.931 . S
H517 C505 0.930 . S
H518 C506 0.956 . S
H519 C506 0.961 . S
H520 C506 0.961 . S
H521 C507 0.958 . S
H522 C507 0.961 . S
H523 C507 0.960 . S
C524 C525 1.391 . S
C524 C526 1.394 . S
C524 H540 0.931 . S
C525 C524 1.391 . S
C525 C529 1.376 . S
C526 C524 1.394 . S
C526 C527 1.369 . S
C526 C530 1.531 . S
C527 C526 1.369 . S
C527 C528 1.410 . S
C527 C535 1.503 . S
C528 C527 1.410 . S
C528 C529 1.392 . S
C528 C531 1.511 . S
C529 C525 1.376 . S
C529 C528 1.392 . S
C529 H541 0.929 . S
C530 C526 1.531 . S
C530 H542 0.960 . S
C530 H543 0.962 . S
C530 H544 0.960 . S
C531 C528 1.511 . S
C531 H545 0.961 . S
C531 H546 0.961 . S
C531 H547 0.961 . S
C532 C533 1.370 . S
C532 C534 1.363 . S
C532 H548 0.931 . S
C533 C532 1.370 . S
C533 C537 1.408 . S
C534 C532 1.363 . S
C534 C535 1.370 . S
C534 C538 1.524 . S
C535 C527 1.503 . S
C535 C534 1.370 . S
C535 C536 1.403 . S
C536 C535 1.403 . S
C536 C537 1.404 . S
C536 C539 1.539 . S
C537 C533 1.408 . S
C537 C536 1.404 . S
C537 H549 0.930 . S
C538 C534 1.524 . S
C538 H550 0.956 . S
C538 H551 0.961 . S
C538 H552 0.961 . S
C539 C536 1.539 . S
C539 H553 0.958 . S
C539 H554 0.961 . S
C539 H555 0.960 . S
H540 C524 0.931 . S
H541 C529 0.929 . S
H542 C530 0.960 . S
H543 C530 0.962 . S
H544 C530 0.960 . S
H545 C531 0.961 . S
H546 C531 0.961 . S
H547 C531 0.961 . S
H548 C532 0.931 . S
H549 C537 0.930 . S
H550 C538 0.956 . S
H551 C538 0.961 . S
H552 C538 0.961 . S
H553 C539 0.958 . S
H554 C539 0.961 . S
H555 C539 0.960 . S
C556 C557 1.391 1_556 S
C556 C558 1.394 . S
C556 H572 0.931 . S
C557 C556 1.391 1_554 S
C557 C561 1.376 1_554 S
C558 C556 1.394 . S
C558 C559 1.369 . S
C558 C562 1.531 . S
C559 C558 1.369 . S
C559 C560 1.410 . S
C559 C567 1.503 . S
C560 C559 1.410 . S
C560 C561 1.392 . S
C560 C563 1.511 . S
C561 C557 1.376 1_556 S
C561 C560 1.392 . S
C561 H573 0.929 1_556 S
C562 C558 1.531 . S
C562 H574 0.960 . S
C562 H575 0.962 . S
C562 H576 0.960 . S
C563 C560 1.511 . S
C563 H577 0.961 . S
C563 H578 0.961 . S
C563 H579 0.961 . S
C564 C565 1.370 . S
C564 C566 1.363 . S
C564 H580 0.931 . S
C565 C564 1.370 . S
C565 C569 1.408 . S
C566 C564 1.363 . S
C566 C567 1.370 . S
C566 C570 1.524 . S
C567 C559 1.503 . S
C567 C566 1.370 . S
C567 C568 1.403 . S
C568 C567 1.403 . S
C568 C569 1.404 . S
C568 C571 1.539 . S
C569 C565 1.408 . S
C569 C568 1.404 . S
C569 H581 0.930 . S
C570 C566 1.524 . S
C570 H582 0.956 . S
C570 H583 0.961 . S
C570 H584 0.961 . S
C571 C568 1.539 . S
C571 H585 0.958 . S
C571 H586 0.961 . S
C571 H587 0.960 . S
H572 C556 0.931 . S
H573 C561 0.929 1_554 S
H574 C562 0.960 . S
H575 C562 0.962 . S
H576 C562 0.960 . S
H577 C563 0.961 . S
H578 C563 0.961 . S
H579 C563 0.961 . S
H580 C564 0.931 . S
H581 C569 0.930 . S
H582 C570 0.956 . S
H583 C570 0.961 . S
H584 C570 0.961 . S
H585 C571 0.958 . S
H586 C571 0.961 . S
H587 C571 0.960 . S
C588 C589 1.391 . S
C588 C590 1.394 . S
C588 H604 0.931 . S
C589 C588 1.391 . S
C589 C593 1.376 . S
C590 C588 1.394 . S
C590 C591 1.369 . S
C590 C594 1.531 . S
C591 C590 1.369 . S
C591 C592 1.410 . S
C591 C599 1.503 . S
C592 C591 1.410 . S
C592 C593 1.392 . S
C592 C595 1.511 . S
C593 C589 1.376 . S
C593 C592 1.392 . S
C593 H605 0.929 . S
C594 C590 1.531 . S
C594 H606 0.960 . S
C594 H607 0.962 . S
C594 H608 0.960 . S
C595 C592 1.511 . S
C595 H609 0.961 . S
C595 H610 0.961 . S
C595 H611 0.961 . S
C596 C597 1.370 . S
C596 C598 1.363 . S
C596 H612 0.931 . S
C597 C596 1.370 . S
C597 C601 1.408 . S
C598 C596 1.363 . S
C598 C599 1.370 . S
C598 C602 1.524 . S
C599 C591 1.503 . S
C599 C598 1.370 . S
C599 C600 1.403 . S
C600 C599 1.403 . S
C600 C601 1.404 . S
C600 C603 1.539 . S
C601 C597 1.408 . S
C601 C600 1.404 . S
C601 H613 0.930 . S
C602 C598 1.524 . S
C602 H614 0.956 . S
C602 H615 0.961 . S
C602 H616 0.961 . S
C603 C600 1.539 . S
C603 H617 0.958 . S
C603 H618 0.961 . S
C603 H619 0.960 . S
H604 C588 0.931 . S
H605 C593 0.929 . S
H606 C594 0.960 . S
H607 C594 0.962 . S
H608 C594 0.960 . S
H609 C595 0.961 . S
H610 C595 0.961 . S
H611 C595 0.961 . S
H612 C596 0.931 . S
H613 C601 0.930 . S
H614 C602 0.956 . S
H615 C602 0.961 . S
H616 C602 0.961 . S
H617 C603 0.958 . S
H618 C603 0.961 . S
H619 C603 0.960 . S
C620 C621 1.391 . S
C620 C622 1.394 1_556 S
C620 H636 0.931 . S
C621 C620 1.391 . S
C621 C625 1.376 1_556 S
C622 C620 1.394 1_554 S
C622 C623 1.369 . S
C622 C626 1.531 . S
C623 C622 1.369 . S
C623 C624 1.410 . S
C623 C631 1.503 . S
C624 C623 1.410 . S
C624 C625 1.392 . S
C624 C627 1.511 . S
C625 C621 1.376 1_554 S
C625 C624 1.392 . S
C625 H637 0.929 . S
C626 C622 1.531 . S
C626 H638 0.960 . S
C626 H639 0.962 . S
C626 H640 0.960 . S
C627 C624 1.511 . S
C627 H641 0.961 . S
C627 H642 0.961 . S
C627 H643 0.961 . S
C628 C629 1.370 . S
C628 C630 1.363 . S
C628 H644 0.931 . S
C629 C628 1.370 . S
C629 C633 1.408 . S
C630 C628 1.363 . S
C630 C631 1.370 . S
C630 C634 1.524 . S
C631 C623 1.503 . S
C631 C630 1.370 . S
C631 C632 1.403 . S
C632 C631 1.403 . S
C632 C633 1.404 . S
C632 C635 1.539 . S
C633 C629 1.408 . S
C633 C632 1.404 . S
C633 H645 0.930 . S
C634 C630 1.524 . S
C634 H646 0.956 . S
C634 H647 0.961 . S
C634 H648 0.961 . S
C635 C632 1.539 . S
C635 H649 0.958 . S
C635 H650 0.961 . S
C635 H651 0.960 . S
H636 C620 0.931 . S
H637 C625 0.929 . S
H638 C626 0.960 . S
H639 C626 0.962 . S
H640 C626 0.960 . S
H641 C627 0.961 . S
H642 C627 0.961 . S
H643 C627 0.961 . S
H644 C628 0.931 . S
H645 C633 0.930 . S
H646 C634 0.956 . S
H647 C634 0.961 . S
H648 C634 0.961 . S
H649 C635 0.958 . S
H650 C635 0.961 . S
H651 C635 0.960 . S
C652 C653 1.391 . S
C652 C654 1.394 . S
C652 H668 0.931 . S
C653 C652 1.391 . S
C653 C657 1.376 . S
C654 C652 1.394 . S
C654 C655 1.369 . S
C654 C658 1.531 . S
C655 C654 1.369 . S
C655 C656 1.410 . S
C655 C663 1.503 . S
C656 C655 1.410 . S
C656 C657 1.392 . S
C656 C659 1.511 . S
C657 C653 1.376 . S
C657 C656 1.392 . S
C657 H669 0.929 . S
C658 C654 1.531 . S
C658 H670 0.960 . S
C658 H671 0.962 . S
C658 H672 0.960 . S
C659 C656 1.511 . S
C659 H673 0.961 . S
C659 H674 0.961 . S
C659 H675 0.961 . S
C660 C661 1.370 . S
C660 C662 1.363 . S
C660 H676 0.931 . S
C661 C660 1.370 . S
C661 C665 1.408 . S
C662 C660 1.363 . S
C662 C663 1.370 . S
C662 C666 1.524 . S
C663 C655 1.503 . S
C663 C662 1.370 . S
C663 C664 1.403 . S
C664 C663 1.403 . S
C664 C665 1.404 . S
C664 C667 1.539 . S
C665 C661 1.408 . S
C665 C664 1.404 . S
C665 H677 0.930 . S
C666 C662 1.524 . S
C666 H678 0.956 . S
C666 H679 0.961 . S
C666 H680 0.961 . S
C667 C664 1.539 . S
C667 H681 0.958 . S
C667 H682 0.961 . S
C667 H683 0.960 . S
H668 C652 0.931 . S
H669 C657 0.929 . S
H670 C658 0.960 . S
H671 C658 0.962 . S
H672 C658 0.960 . S
H673 C659 0.961 . S
H674 C659 0.961 . S
H675 C659 0.961 . S
H676 C660 0.931 . S
H677 C665 0.930 . S
H678 C666 0.956 . S
H679 C666 0.961 . S
H680 C666 0.961 . S
H681 C667 0.958 . S
H682 C667 0.961 . S
H683 C667 0.960 . S
C684 C685 1.391 . S
C684 C686 1.394 . S
C684 H700 0.931 . S
C685 C684 1.391 . S
C685 C689 1.376 . S
C686 C684 1.394 . S
C686 C687 1.369 . S
C686 C690 1.531 . S
C687 C686 1.369 . S
C687 C688 1.410 . S
C687 C695 1.503 . S
C688 C687 1.410 . S
C688 C689 1.392 . S
C688 C691 1.511 . S
C689 C685 1.376 . S
C689 C688 1.392 . S
C689 H701 0.929 . S
C690 C686 1.531 . S
C690 H702 0.960 . S
C690 H703 0.962 . S
C690 H704 0.960 . S
C691 C688 1.511 . S
C691 H705 0.961 . S
C691 H706 0.961 . S
C691 H707 0.961 . S
C692 C693 1.370 . S
C692 C694 1.363 . S
C692 H708 0.931 . S
C693 C692 1.370 . S
C693 C697 1.408 . S
C694 C692 1.363 . S
C694 C695 1.370 . S
C694 C698 1.524 . S
C695 C687 1.503 . S
C695 C694 1.370 . S
C695 C696 1.403 . S
C696 C695 1.403 . S
C696 C697 1.404 . S
C696 C699 1.539 . S
C697 C693 1.408 . S
C697 C696 1.404 . S
C697 H709 0.930 . S
C698 C694 1.524 . S
C698 H710 0.956 . S
C698 H711 0.961 . S
C698 H712 0.961 . S
C699 C696 1.539 . S
C699 H713 0.958 . S
C699 H714 0.961 . S
C699 H715 0.960 . S
H700 C684 0.931 . S
H701 C689 0.929 . S
H702 C690 0.960 . S
H703 C690 0.962 . S
H704 C690 0.960 . S
H705 C691 0.961 . S
H706 C691 0.961 . S
H707 C691 0.961 . S
H708 C692 0.931 . S
H709 C697 0.930 . S
H710 C698 0.956 . S
H711 C698 0.961 . S
H712 C698 0.961 . S
H713 C699 0.958 . S
H714 C699 0.961 . S
H715 C699 0.960 . S
C716 C717 1.391 . S
C716 C718 1.394 . S
C716 H732 0.931 . S
C717 C716 1.391 . S
C717 C721 1.376 . S
C718 C716 1.394 . S
C718 C719 1.369 . S
C718 C722 1.531 . S
C719 C718 1.369 . S
C719 C720 1.410 . S
C719 C727 1.503 . S
C720 C719 1.410 . S
C720 C721 1.392 . S
C720 C723 1.511 . S
C721 C717 1.376 . S
C721 C720 1.392 . S
C721 H733 0.929 . S
C722 C718 1.531 . S
C722 H734 0.960 . S
C722 H735 0.962 . S
C722 H736 0.960 . S
C723 C720 1.511 . S
C723 H737 0.961 . S
C723 H738 0.961 . S
C723 H739 0.961 . S
C724 C725 1.370 . S
C724 C726 1.363 . S
C724 H740 0.931 . S
C725 C724 1.370 . S
C725 C729 1.408 . S
C726 C724 1.363 . S
C726 C727 1.370 . S
C726 C730 1.524 . S
C727 C719 1.503 . S
C727 C726 1.370 . S
C727 C728 1.403 . S
C728 C727 1.403 . S
C728 C729 1.404 . S
C728 C731 1.539 . S
C729 C725 1.408 . S
C729 C728 1.404 . S
C729 H741 0.930 . S
C730 C726 1.524 . S
C730 H742 0.956 . S
C730 H743 0.961 . S
C730 H744 0.961 . S
C731 C728 1.539 . S
C731 H745 0.958 . S
C731 H746 0.961 . S
C731 H747 0.960 . S
H732 C716 0.931 . S
H733 C721 0.929 . S
H734 C722 0.960 . S
H735 C722 0.962 . S
H736 C722 0.960 . S
H737 C723 0.961 . S
H738 C723 0.961 . S
H739 C723 0.961 . S
H740 C724 0.931 . S
H741 C729 0.930 . S
H742 C730 0.956 . S
H743 C730 0.961 . S
H744 C730 0.961 . S
H745 C731 0.958 . S
H746 C731 0.961 . S
H747 C731 0.960 . S
C748 C749 1.391 . S
C748 C750 1.394 . S
C748 H764 0.931 . S
C749 C748 1.391 . S
C749 C753 1.376 . S
C750 C748 1.394 . S
C750 C751 1.369 . S
C750 C754 1.531 . S
C751 C750 1.369 . S
C751 C752 1.410 . S
C751 C759 1.503 . S
C752 C751 1.410 . S
C752 C753 1.392 . S
C752 C755 1.511 . S
C753 C749 1.376 . S
C753 C752 1.392 . S
C753 H765 0.929 . S
C754 C750 1.531 . S
C754 H766 0.960 . S
C754 H767 0.962 . S
C754 H768 0.960 . S
C755 C752 1.511 . S
C755 H769 0.961 . S
C755 H770 0.961 . S
C755 H771 0.961 . S
C756 C757 1.370 . S
C756 C758 1.363 . S
C756 H772 0.931 . S
C757 C756 1.370 . S
C757 C761 1.408 . S
C758 C756 1.363 . S
C758 C759 1.370 . S
C758 C762 1.524 . S
C759 C751 1.503 . S
C759 C758 1.370 . S
C759 C760 1.403 . S
C760 C759 1.403 . S
C760 C761 1.404 . S
C760 C763 1.539 . S
C761 C757 1.408 . S
C761 C760 1.404 . S
C761 H773 0.930 . S
C762 C758 1.524 . S
C762 H774 0.956 . S
C762 H775 0.961 . S
C762 H776 0.961 . S
C763 C760 1.539 . S
C763 H777 0.958 . S
C763 H778 0.961 . S
C763 H779 0.960 . S
H764 C748 0.931 . S
H765 C753 0.929 . S
H766 C754 0.960 . S
H767 C754 0.962 . S
H768 C754 0.960 . S
H769 C755 0.961 . S
H770 C755 0.961 . S
H771 C755 0.961 . S
H772 C756 0.931 . S
H773 C761 0.930 . S
H774 C762 0.956 . S
H775 C762 0.961 . S
H776 C762 0.961 . S
H777 C763 0.958 . S
H778 C763 0.961 . S
H779 C763 0.960 . S
C780 C781 1.391 . S
C780 C782 1.394 . S
C780 H796 0.931 . S
C781 C780 1.391 . S
C781 C785 1.376 . S
C782 C780 1.394 . S
C782 C783 1.369 . S
C782 C786 1.531 . S
C783 C782 1.369 . S
C783 C784 1.410 . S
C783 C791 1.503 . S
C784 C783 1.410 . S
C784 C785 1.392 . S
C784 C787 1.511 . S
C785 C781 1.376 . S
C785 C784 1.392 . S
C785 H797 0.929 . S
C786 C782 1.531 . S
C786 H798 0.960 . S
C786 H799 0.962 . S
C786 H800 0.960 . S
C787 C784 1.511 . S
C787 H801 0.961 . S
C787 H802 0.961 . S
C787 H803 0.961 . S
C788 C789 1.370 . S
C788 C790 1.363 . S
C788 H804 0.931 . S
C789 C788 1.370 . S
C789 C793 1.408 . S
C790 C788 1.363 . S
C790 C791 1.370 . S
C790 C794 1.524 . S
C791 C783 1.503 . S
C791 C790 1.370 . S
C791 C792 1.403 . S
C792 C791 1.403 . S
C792 C793 1.404 . S
C792 C795 1.539 . S
C793 C789 1.408 . S
C793 C792 1.404 . S
C793 H805 0.930 . S
C794 C790 1.524 . S
C794 H806 0.956 . S
C794 H807 0.961 . S
C794 H808 0.961 . S
C795 C792 1.539 . S
C795 H809 0.958 . S
C795 H810 0.961 . S
C795 H811 0.960 . S
H796 C780 0.931 . S
H797 C785 0.929 . S
H798 C786 0.960 . S
H799 C786 0.962 . S
H800 C786 0.960 . S
H801 C787 0.961 . S
H802 C787 0.961 . S
H803 C787 0.961 . S
H804 C788 0.931 . S
H805 C793 0.930 . S
H806 C794 0.956 . S
H807 C794 0.961 . S
H808 C794 0.961 . S
H809 C795 0.958 . S
H810 C795 0.961 . S
H811 C795 0.960 . S
C812 C813 1.391 . S
C812 C814 1.394 . S
C812 H828 0.931 . S
C813 C812 1.391 . S
C813 C817 1.376 . S
C814 C812 1.394 . S
C814 C815 1.369 . S
C814 C818 1.531 . S
C815 C814 1.369 . S
C815 C816 1.410 . S
C815 C823 1.503 . S
C816 C815 1.410 . S
C816 C817 1.392 . S
C816 C819 1.511 . S
C817 C813 1.376 . S
C817 C816 1.392 . S
C817 H829 0.929 . S
C818 C814 1.531 . S
C818 H830 0.960 . S
C818 H831 0.962 . S
C818 H832 0.960 . S
C819 C816 1.511 . S
C819 H833 0.961 . S
C819 H834 0.961 . S
C819 H835 0.961 . S
C820 C821 1.370 . S
C820 C822 1.363 . S
C820 H836 0.931 . S
C821 C820 1.370 . S
C821 C825 1.408 . S
C822 C820 1.363 . S
C822 C823 1.370 . S
C822 C826 1.524 . S
C823 C815 1.503 . S
C823 C822 1.370 . S
C823 C824 1.403 . S
C824 C823 1.403 . S
C824 C825 1.404 . S
C824 C827 1.539 . S
C825 C821 1.408 . S
C825 C824 1.404 . S
C825 H837 0.930 . S
C826 C822 1.524 . S
C826 H838 0.956 . S
C826 H839 0.961 . S
C826 H840 0.961 . S
C827 C824 1.539 . S
C827 H841 0.958 . S
C827 H842 0.961 . S
C827 H843 0.960 . S
H828 C812 0.931 . S
H829 C817 0.929 . S
H830 C818 0.960 . S
H831 C818 0.962 . S
H832 C818 0.960 . S
H833 C819 0.961 . S
H834 C819 0.961 . S
H835 C819 0.961 . S
H836 C820 0.931 . S
H837 C825 0.930 . S
H838 C826 0.956 . S
H839 C826 0.961 . S
H840 C826 0.961 . S
H841 C827 0.958 . S
H842 C827 0.961 . S
H843 C827 0.960 . S
C844 C845 1.391 . S
C844 C846 1.394 . S
C844 H860 0.931 . S
C845 C844 1.391 . S
C845 C849 1.376 . S
C846 C844 1.394 . S
C846 C847 1.369 . S
C846 C850 1.531 . S
C847 C846 1.369 . S
C847 C848 1.410 . S
C847 C855 1.503 . S
C848 C847 1.410 . S
C848 C849 1.392 . S
C848 C851 1.511 . S
C849 C845 1.376 . S
C849 C848 1.392 . S
C849 H861 0.929 . S
C850 C846 1.531 . S
C850 H862 0.960 . S
C850 H863 0.962 . S
C850 H864 0.960 . S
C851 C848 1.511 . S
C851 H865 0.961 . S
C851 H866 0.961 . S
C851 H867 0.961 . S
C852 C853 1.370 . S
C852 C854 1.363 . S
C852 H868 0.931 . S
C853 C852 1.370 . S
C853 C857 1.408 . S
C854 C852 1.363 . S
C854 C855 1.370 . S
C854 C858 1.524 . S
C855 C847 1.503 . S
C855 C854 1.370 . S
C855 C856 1.403 . S
C856 C855 1.403 . S
C856 C857 1.404 . S
C856 C859 1.539 . S
C857 C853 1.408 . S
C857 C856 1.404 . S
C857 H869 0.930 . S
C858 C854 1.524 . S
C858 H870 0.956 . S
C858 H871 0.961 . S
C858 H872 0.961 . S
C859 C856 1.539 . S
C859 H873 0.958 . S
C859 H874 0.961 . S
C859 H875 0.960 . S
H860 C844 0.931 . S
H861 C849 0.929 . S
H862 C850 0.960 . S
H863 C850 0.962 . S
H864 C850 0.960 . S
H865 C851 0.961 . S
H866 C851 0.961 . S
H867 C851 0.961 . S
H868 C852 0.931 . S
H869 C857 0.930 . S
H870 C858 0.956 . S
H871 C858 0.961 . S
H872 C858 0.961 . S
H873 C859 0.958 . S
H874 C859 0.961 . S
H875 C859 0.960 . S
C876 C877 1.391 . S
C876 C878 1.394 . S
C876 H892 0.931 . S
C877 C876 1.391 . S
C877 C881 1.376 . S
C878 C876 1.394 . S
C878 C879 1.369 . S
C878 C882 1.531 . S
C879 C878 1.369 . S
C879 C880 1.410 . S
C879 C887 1.503 . S
C880 C879 1.410 . S
C880 C881 1.392 . S
C880 C883 1.511 . S
C881 C877 1.376 . S
C881 C880 1.392 . S
C881 H893 0.929 . S
C882 C878 1.531 . S
C882 H894 0.960 . S
C882 H895 0.962 . S
C882 H896 0.960 . S
C883 C880 1.511 . S
C883 H897 0.961 . S
C883 H898 0.961 . S
C883 H899 0.961 . S
C884 C885 1.370 . S
C884 C886 1.363 . S
C884 H900 0.931 . S
C885 C884 1.370 . S
C885 C889 1.408 . S
C886 C884 1.363 . S
C886 C887 1.370 . S
C886 C890 1.524 . S
C887 C879 1.503 . S
C887 C886 1.370 . S
C887 C888 1.403 . S
C888 C887 1.403 . S
C888 C889 1.404 . S
C888 C891 1.539 . S
C889 C885 1.408 . S
C889 C888 1.404 . S
C889 H901 0.930 . S
C890 C886 1.524 . S
C890 H902 0.956 . S
C890 H903 0.961 . S
C890 H904 0.961 . S
C891 C888 1.539 . S
C891 H905 0.958 . S
C891 H906 0.961 . S
C891 H907 0.960 . S
H892 C876 0.931 . S
H893 C881 0.929 . S
H894 C882 0.960 . S
H895 C882 0.962 . S
H896 C882 0.960 . S
H897 C883 0.961 . S
H898 C883 0.961 . S
H899 C883 0.961 . S
H900 C884 0.931 . S
H901 C889 0.930 . S
H902 C890 0.956 . S
H903 C890 0.961 . S
H904 C890 0.961 . S
H905 C891 0.958 . S
H906 C891 0.961 . S
H907 C891 0.960 . S
C908 C909 1.391 . S
C908 C910 1.394 . S
C908 H924 0.931 . S
C909 C908 1.391 . S
C909 C913 1.376 . S
C910 C908 1.394 . S
C910 C911 1.369 . S
C910 C914 1.531 . S
C911 C910 1.369 . S
C911 C912 1.410 . S
C911 C919 1.503 . S
C912 C911 1.410 . S
C912 C913 1.392 . S
C912 C915 1.511 . S
C913 C909 1.376 . S
C913 C912 1.392 . S
C913 H925 0.929 . S
C914 C910 1.531 . S
C914 H926 0.960 . S
C914 H927 0.962 . S
C914 H928 0.960 . S
C915 C912 1.511 . S
C915 H929 0.961 . S
C915 H930 0.961 . S
C915 H931 0.961 . S
C916 C917 1.370 . S
C916 C918 1.363 . S
C916 H932 0.931 . S
C917 C916 1.370 . S
C917 C921 1.408 . S
C918 C916 1.363 . S
C918 C919 1.370 . S
C918 C922 1.524 . S
C919 C911 1.503 . S
C919 C918 1.370 . S
C919 C920 1.403 . S
C920 C919 1.403 . S
C920 C921 1.404 . S
C920 C923 1.539 . S
C921 C917 1.408 . S
C921 C920 1.404 . S
C921 H933 0.930 . S
C922 C918 1.524 . S
C922 H934 0.956 . S
C922 H935 0.961 . S
C922 H936 0.961 . S
C923 C920 1.539 . S
C923 H937 0.958 . S
C923 H938 0.961 . S
C923 H939 0.960 . S
H924 C908 0.931 . S
H925 C913 0.929 . S
H926 C914 0.960 . S
H927 C914 0.962 . S
H928 C914 0.960 . S
H929 C915 0.961 . S
H930 C915 0.961 . S
H931 C915 0.961 . S
H932 C916 0.931 . S
H933 C921 0.930 . S
H934 C922 0.956 . S
H935 C922 0.961 . S
H936 C922 0.961 . S
H937 C923 0.958 . S
H938 C923 0.961 . S
H939 C923 0.960 . S
C173 C73 1.423 . S
C181 C104 1.365 . S
C213 C112 1.464 . S
C205 C84 1.519 . S
C245 C116 1.343 . S
C237 C51 1.423 . S
C269 C62 1.537 . S
C277 C92 1.443 . S
C309 C133 1.402 . S
C301 C29 1.512 . S
C341 C167 1.179 . S
C333 C38 1.140 . S
C365 C7 1.484 . S
C373 C155 1.425 . S
C397 C16 1.003 . S
C405 C137 1.130 . S
C437 C91 1.445 . S
C429 C18 1.550 . S
C469 C125 1.382 . S
C461 C5 1.350 . S
C501 C129 1.426 . S
C493 C40 1.573 . S
C533 C107 1.391 . S
C525 C27 1.406 . S
C565 C146 1.181 . S
C557 C60 1.123 . S
C589 C49 1.123 . S
C597 C154 1.284 . S
C629 C170 1.193 . S
C621 C82 1.217 . S
C653 C71 1.175 . S
C661 C150 1.235 . S
C693 C95 1.424 . S
C685 C8 1.632 . S
C725 C113 1.317 . S
C717 C19 1.501 . S
C749 C30 1.624 . S
C757 C128 1.426 . S
C789 C108 1.344 . S
C781 C41 1.479 . S
C821 C134 1.272 . S
C813 C52 1.380 . S
C845 C63 1.530 . S
C853 C158 1.408 . S
C877 C74 1.378 . S
C885 C171 1.286 . S
C909 C85 1.557 . S
C917 C149 1.426 . S
