# Generated by pormake.
# Topology pth, (4,4)-cn, num edge types: 1
# Building blocks:
#     Node 0, Type 0, BuildingBlock: GALJAG_clean_sbu_0, # of connection points: 4
#     Node 1, Type 0, BuildingBlock: GALJAG_clean_sbu_0, # of connection points: 4
#     Node 2, Type 0, BuildingBlock: GALJAG_clean_sbu_0, # of connection points: 4
#     Node 3, Type 1, BuildingBlock: MUDLON_clean_sbu_0, # of connection points: 4
#     Node 4, Type 1, BuildingBlock: MUDLON_clean_sbu_0, # of connection points: 4
#     Node 5, Type 1, BuildingBlock: MUDLON_clean_sbu_0, # of connection points: 4
#     Edge 6, Type (0, 1), BuildingBlock: KIFKEQ_clean_linker_1, # of connection points: 2
#     Edge 7, Type (0, 1), BuildingBlock: KIFKEQ_clean_linker_1, # of connection points: 2
#     Edge 8, Type (0, 1), BuildingBlock: KIFKEQ_clean_linker_1, # of connection points: 2
#     Edge 9, Type (0, 1), BuildingBlock: KIFKEQ_clean_linker_1, # of connection points: 2
#     Edge 10, Type (0, 1), BuildingBlock: KIFKEQ_clean_linker_1, # of connection points: 2
#     Edge 11, Type (0, 1), BuildingBlock: KIFKEQ_clean_linker_1, # of connection points: 2
#     Edge 12, Type (0, 1), BuildingBlock: KIFKEQ_clean_linker_1, # of connection points: 2
#     Edge 13, Type (0, 1), BuildingBlock: KIFKEQ_clean_linker_1, # of connection points: 2
#     Edge 14, Type (0, 1), BuildingBlock: KIFKEQ_clean_linker_1, # of connection points: 2
#     Edge 15, Type (0, 1), BuildingBlock: KIFKEQ_clean_linker_1, # of connection points: 2
#     Edge 16, Type (0, 1), BuildingBlock: KIFKEQ_clean_linker_1, # of connection points: 2
#     Edge 17, Type (0, 1), BuildingBlock: KIFKEQ_clean_linker_1, # of connection points: 2
# Relax obj value: 0.043
# Max RMSD: 0.088
# Mean RMSD: 0.080
data_MOF--net-pth--node1-GALJAG_clean_sbu_0--node2-MUDLON_clean_sbu_0--edge1-KIFKEQ_clean_linker_1
_symmetry_space_group_name_H-M    P1
_symmetry_Int_Tables_number       1
_symmetry_cell_setting            triclinic
loop_
_symmetry_equiv_pos_as_xyz
'x, y, z'
_cell_length_a     23.410214
_cell_length_b     23.37992
_cell_length_c     58.543078
_cell_angle_alpha  89.75904
_cell_angle_beta   90.267328
_cell_angle_gamma 120.08819
loop_
_atom_site_label
_atom_site_type_symbol
_atom_site_fract_x
_atom_site_fract_y
_atom_site_fract_z
_atom_type_partial_charge
In0 In 1.00993 0.01885 0.09561 0.0
O1 O 0.98432 0.09779 0.10514 0.0
O2 O 0.05536 0.09007 0.1257 0.0
C3 C 0.90943 0.94869 0.06577 0.0
C4 C 0.11744 0.08906 0.0689 0.0
C5 C 0.99109 0.92526 0.12698 0.0
O6 O 0.90452 0.98089 0.08212 0.0
O7 O 0.96495 0.95258 0.06433 0.0
O8 O 0.04103 0.95161 0.11409 0.0
O9 O 0.95135 0.94614 0.12401 0.0
C10 C 0.0233 0.11945 0.12201 0.0
O11 O 0.10554 0.03555 0.07841 0.0
O12 O 0.07539 0.10639 0.07283 0.0
In13 In 0.02069 0.02095 0.43284 0.0
O14 O 0.04396 0.1249 0.42174 0.0
O15 O 0.9688 0.04241 0.40385 0.0
C16 C 0.12777 0.04743 0.45833 0.0
C17 C 0.92233 0.98344 0.46391 0.0
C18 C 0.03932 0.94465 0.40268 0.0
O19 O 0.1221 0.09292 0.44871 0.0
O20 O 0.07955 0.98996 0.4553 0.0
O21 O 0.99471 0.92069 0.41776 0.0
O22 O 0.07321 1.00701 0.40247 0.0
C23 C 1.00105 0.10437 0.40603 0.0
O24 O 0.91497 0.9509 0.4459 0.0
O25 O 0.97863 0.03387 0.46613 0.0
In26 In 0.01674 1.00032 0.76311 0.0
O27 O 1.00417 0.91562 0.78676 0.0
O28 O 0.92791 0.9393 0.78613 0.0
C29 C 0.08533 0.97469 0.73137 0.0
C30 C 0.93816 0.02494 0.73535 0.0
C31 C 0.09611 0.1008 0.79158 0.0
O32 O 0.02923 0.93085 0.73831 0.0
O33 O 0.10588 0.03077 0.74014 0.0
O34 O 0.03917 0.08934 0.78601 0.0
O35 O 0.11202 0.06129 0.78314 0.0
C36 C 0.94845 0.90281 0.79416 0.0
O37 O 0.99547 0.06951 0.74102 0.0
O38 O 0.92133 0.96858 0.74337 0.0
Mg39 Mg 0.02881 0.53814 0.26667 0.0
C40 C 0.95128 0.40552 0.29385 0.0
O41 O 0.92234 0.37854 0.2744 0.0
C42 C 0.96125 0.61376 0.25126 0.0
O43 O 0.98338 0.64296 0.27107 0.0
C44 C 0.01809 0.45453 0.22862 0.0
O45 O 0.95978 0.44899 0.23108 0.0
O46 O 0.0647 0.49401 0.24178 0.0
O47 O 0.9897 0.46772 0.29494 0.0
O48 O 0.09655 0.63276 0.28261 0.0
C49 C 0.10797 0.63391 0.30392 0.0
O50 O 0.09458 0.57843 0.31412 0.0
O51 O 0.96504 0.56262 0.24669 0.0
Mg52 Mg 0.52036 0.01161 0.59602 0.0
C53 C 0.49346 0.06407 0.55266 0.0
O54 O 0.52239 0.033 0.54431 0.0
C55 C 0.60142 0.06153 0.63918 0.0
O56 O 0.54168 0.03346 0.64779 0.0
C57 C 0.37902 0.945 0.61353 0.0
O58 O 0.3678 0.95686 0.59252 0.0
O59 O 0.43667 0.95674 0.61889 0.0
O60 O 0.49149 0.06917 0.57424 0.0
O61 O 0.54648 0.95369 0.57367 0.0
C62 C 0.59061 0.94048 0.58008 0.0
O63 O 0.61097 0.95209 0.6014 0.0
O64 O 0.60794 0.06653 0.61757 0.0
Mg65 Mg 0.52096 0.50639 0.93069 0.0
C66 C 0.43824 0.4701 0.88776 0.0
O67 O 0.49757 0.50389 0.87891 0.0
C68 C 0.54802 0.6011 0.96999 0.0
O69 O 0.51337 0.54521 0.98113 0.0
C70 C 0.45491 0.37061 0.95283 0.0
O71 O 0.43438 0.35265 0.93175 0.0
O72 O 0.49678 0.43095 0.95682 0.0
O73 O 0.43235 0.46811 0.90939 0.0
O74 O 0.6033 0.5296 0.90788 0.0
C75 C 0.66131 0.57566 0.91283 0.0
O76 O 0.67322 0.6003 0.93358 0.0
O77 O 0.55279 0.59955 0.94839 0.0
H78 H 0.97198 0.19951 0.11401 0.0
H79 H 0.0909 0.16431 0.16235 0.0
H80 H 0.97899 0.28719 0.1382 0.0
H81 H 0.09616 0.25086 0.18709 0.0
H82 H 0.1284 0.44415 0.21952 0.0
H83 H 0.13642 0.36856 0.19245 0.0
H84 H 0.93213 0.29147 0.17352 0.0
H85 H 0.92478 0.36711 0.19965 0.0
C86 C 0.99956 0.21048 0.12985 0.0
C87 C 0.03027 0.17454 0.13639 0.0
C88 C 1.00342 0.26063 0.14379 0.0
C89 C 0.03747 0.27568 0.16478 0.0
C90 C 0.06997 0.24103 0.17099 0.0
C91 C 0.06653 0.19107 0.1569 0.0
C92 C 0.08558 0.41143 0.20937 0.0
C93 C 0.02606 0.41188 0.21174 0.0
C94 C 0.08998 0.36785 0.19398 0.0
C95 C 0.03499 0.32407 0.18067 0.0
C96 C 0.97593 0.32526 0.18305 0.0
C97 C 0.97161 0.36856 0.19826 0.0
H98 H 0.79009 0.89236 0.46007 0.0
H99 H 0.93543 0.03466 0.50641 0.0
H100 H 0.70315 0.86816 0.48814 0.0
H101 H 0.84936 0.01062 0.53424 0.0
H102 H 0.69483 0.92113 0.58778 0.0
H103 H 0.77068 0.92032 0.55963 0.0
H104 H 0.65056 0.92996 0.50527 0.0
H105 H 0.57409 0.93042 0.53346 0.0
C106 C 0.8035 0.91799 0.47629 0.0
C107 C 0.86954 0.96548 0.48103 0.0
C108 C 0.75377 0.90434 0.4923 0.0
C109 C 0.76941 0.93719 0.51346 0.0
C110 C 0.83571 0.98366 0.51827 0.0
C111 C 0.88504 0.99781 0.50223 0.0
C112 C 0.6837 0.92176 0.56983 0.0
C113 C 0.62873 0.92671 0.56292 0.0
C114 C 0.72747 0.92167 0.5537 0.0
C115 C 0.71723 0.92618 0.53024 0.0
C116 C 0.65976 0.92632 0.52322 0.0
C117 C 0.61601 0.92672 0.5394 0.0
H118 H 0.99062 0.83584 0.82166 0.0
H119 H 0.81796 0.84825 0.80384 0.0
H120 H 0.92513 0.74857 0.84953 0.0
H121 H 0.75277 0.76087 0.83126 0.0
H122 H 0.64005 0.56344 0.86662 0.0
H123 H 0.71272 0.63734 0.83693 0.0
H124 H 0.86441 0.74393 0.88733 0.0
H125 H 0.79157 0.67049 0.9172 0.0
C126 C 0.93869 0.81963 0.82359 0.0
C127 C 0.90942 0.84897 0.81063 0.0
C128 C 0.90134 0.76986 0.83954 0.0
C129 C 0.83378 0.74763 0.84244 0.0
C130 C 0.8045 0.77635 0.82919 0.0
C131 C 0.84196 0.82674 0.81361 0.0
C132 C 0.68936 0.60167 0.87137 0.0
C133 C 0.70972 0.61138 0.89436 0.0
C134 C 0.7308 0.64426 0.85435 0.0
C135 C 0.7939 0.69683 0.85986 0.0
C136 C 0.81609 0.70374 0.88257 0.0
C137 C 0.77427 0.66172 0.89967 0.0
H138 H 0.89798 0.87721 0.16051 0.0
H139 H 0.05879 0.85891 0.13288 0.0
H140 H 0.88046 0.79549 0.18989 0.0
H141 H 0.04099 0.77683 0.16225 0.0
H142 H 0.95369 0.58955 0.20528 0.0
H143 H 0.95503 0.66097 0.17449 0.0
H144 H 0.9445 0.79147 0.22407 0.0
H145 H 0.94348 0.72039 0.25493 0.0
C146 C 0.92941 0.85551 0.16065 0.0
C147 C 0.97993 0.87463 0.14442 0.0
C148 C 0.91944 0.80885 0.17752 0.0
C149 C 0.95919 0.77961 0.17835 0.0
C150 C 1.00904 0.79794 0.16188 0.0
C151 C 0.01956 0.84525 0.14517 0.0
C152 C 0.95026 0.63271 0.20964 0.0
C153 C 0.9488 0.6494 0.23262 0.0
C154 C 0.95169 0.67394 0.19198 0.0
C155 C 0.95071 0.73223 0.19687 0.0
C156 C 0.94516 0.74681 0.21975 0.0
C157 C 0.94458 0.70604 0.23744 0.0
H158 H 0.22367 0.16302 0.47791 0.0
H159 H 0.16465 0.95753 0.46852 0.0
H160 H 0.32018 0.1791 0.50018 0.0
H161 H 0.26091 0.97397 0.49011 0.0
H162 H 0.47313 0.04128 0.50691 0.0
H163 H 0.38969 0.04621 0.48337 0.0
H164 H 0.33528 0.1261 0.54005 0.0
H165 H 0.41851 0.12038 0.56401 0.0
C166 C 0.23152 0.12156 0.4805 0.0
C167 C 0.18669 0.05902 0.47152 0.0
C168 C 0.28645 0.13072 0.49325 0.0
C169 C 0.29809 0.07786 0.49667 0.0
C170 C 0.25347 0.0157 0.48751 0.0
C171 C 0.19818 1.00626 0.47526 0.0
C172 C 0.44442 0.06112 0.51435 0.0
C173 C 0.45206 0.07967 0.53748 0.0
C174 C 0.39651 0.06374 0.50082 0.0
C175 C 0.35572 0.08588 0.50998 0.0
C176 C 0.36629 0.10899 0.53259 0.0
C177 C 0.41384 0.10558 0.54628 0.0
H178 H 0.06961 0.18246 0.81753 0.0
H179 H 0.22696 0.14708 0.79806 0.0
H180 H 0.14815 0.27735 0.84064 0.0
H181 H 0.3048 0.24155 0.82075 0.0
H182 H 0.4391 0.4527 0.84177 0.0
H183 H 0.35266 0.36643 0.8185 0.0
H184 H 0.22271 0.29771 0.87675 0.0
H185 H 0.30968 0.38415 0.90033 0.0
C186 C 0.12083 0.19494 0.81818 0.0
C187 C 0.14215 0.15738 0.80598 0.0
C188 C 0.16562 0.24903 0.83142 0.0
C189 C 0.23266 0.26715 0.83231 0.0
C190 C 0.25365 0.22936 0.82014 0.0
C191 C 0.20892 0.17496 0.80726 0.0
C192 C 0.39187 0.42001 0.84963 0.0
C193 C 0.38168 0.42503 0.87302 0.0
C194 C 0.34244 0.37034 0.83628 0.0
C195 C 0.28131 0.32482 0.84589 0.0
C196 C 0.26938 0.3322 0.8689 0.0
C197 C 0.31923 0.38166 0.88238 0.0
H198 H 0.96726 0.13509 0.70979 0.0
H199 H 0.80665 0.94283 0.72895 0.0
H200 H 0.8904 0.15454 0.68683 0.0
H201 H 0.73043 0.96255 0.70642 0.0
H202 H 0.60001 0.04342 0.68526 0.0
H203 H 0.68528 0.04169 0.70869 0.0
H204 H 0.81581 0.1026 0.65062 0.0
H205 H 0.73002 0.10394 0.62688 0.0
C206 C 0.91566 0.09713 0.70912 0.0
C207 C 0.89295 0.03744 0.72117 0.0
C208 C 0.87182 0.10821 0.69597 0.0
C209 C 0.80437 0.06031 0.69502 0.0
C210 C 0.78195 1.00076 0.70708 0.0
C211 C 0.82573 0.98931 0.71987 0.0
C212 C 0.64717 0.05758 0.67748 0.0
C213 C 0.65778 0.07312 0.65408 0.0
C214 C 0.69592 0.05624 0.69092 0.0
C215 C 0.75679 0.07105 0.6814 0.0
C216 C 0.76932 0.09099 0.65841 0.0
C217 C 0.72015 0.09173 0.64483 0.0
H218 H 0.91402 0.88915 0.02648 0.0
H219 H 0.77943 0.9135 0.07005 0.0
H220 H 0.82191 0.81369 1.00228 0.0
H221 H 0.68688 0.83764 0.04577 0.0
H222 H 0.54658 0.62401 1.01569 0.0
H223 H 0.63143 0.716 0.03774 0.0
H224 H 0.73593 0.80829 0.97551 0.0
H225 H 0.65122 0.71627 0.9534 0.0
C226 C 0.86479 0.8789 0.03075 0.0
C227 C 0.85394 0.90706 0.05021 0.0
C228 C 0.81203 0.836 1.01679 0.0
C229 C 0.74706 0.81972 0.02209 0.0
C230 C 0.73633 0.84895 0.04132 0.0
C231 C 0.78931 0.89254 0.05516 0.0
C232 C 0.58691 0.66456 1.00665 0.0
C233 C 0.5923 0.66243 0.98279 0.0
C234 C 0.63546 0.71742 1.0193 0.0
C235 C 0.69078 0.76906 1.00839 0.0
C236 C 0.69432 0.76875 0.98442 0.0
C237 C 0.64545 0.71622 0.97175 0.0
H238 H 0.98532 0.81069 0.40398 0.0
H239 H 0.12603 0.98465 0.36695 0.0
H240 H 1.01249 0.74251 0.38005 0.0
H241 H 0.15338 0.91623 0.34298 0.0
H242 H 0.11291 0.74846 0.28952 0.0
H243 H 0.10092 0.82752 0.31324 0.0
H244 H 0.1079 0.72546 0.37387 0.0
H245 H 0.11946 0.64631 0.35031 0.0
C246 C 0.0219 0.83434 0.39068 0.0
C247 C 0.0535 0.90302 0.38736 0.0
C248 C 0.03794 0.79537 0.3771 0.0
C249 C 0.08563 0.82407 0.35976 0.0
C250 C 0.11638 0.89266 0.35615 0.0
C251 C 0.10075 0.93179 0.3699 0.0
C252 C 0.11341 0.74371 0.30792 0.0
C253 C 0.11629 0.6904 0.31797 0.0
C254 C 0.10645 0.78905 0.32151 0.0
C255 C 0.10206 0.78189 0.34541 0.0
C256 C 0.10957 0.73137 0.35548 0.0
C257 C 0.11682 0.68634 0.34194 0.0
H258 H 0.21602 0.0525 0.72238 0.0
H259 H 0.04458 0.86815 0.70284 0.0
H260 H 0.2827 0.03342 0.69495 0.0
H261 H 0.11166 0.84947 0.67496 0.0
H262 H 0.24922 0.91027 0.60829 0.0
H263 H 0.17462 0.90864 0.63773 0.0
H264 H 0.32336 0.9511 0.6891 0.0
H265 H 0.39778 0.95217 0.65985 0.0
C266 C 0.19257 1.00782 0.71221 0.0
C267 C 0.12504 0.96186 0.71473 0.0
C268 C 0.23091 0.99667 0.69662 0.0
C269 C 0.20248 0.93976 0.68292 0.0
C270 C 0.1348 0.89377 0.68531 0.0
C271 C 0.09654 0.90439 0.70127 0.0
C272 C 0.26553 0.91786 0.62593 0.0
C273 C 0.32975 0.93194 0.63166 0.0
C274 C 0.22269 0.91676 0.64278 0.0
C275 C 0.24351 0.93054 0.66565 0.0
C276 C 0.30633 0.94109 0.67155 0.0
C277 C 0.34879 0.9413 0.65478 0.0
H278 H 0.16861 0.21759 0.05665 0.0
H279 H 0.19646 0.05001 0.04754 0.0
H280 H 0.25992 0.28267 0.03072 0.0
H281 H 0.28791 0.11539 0.02111 0.0
H282 H 0.36855 0.23727 0.95087 0.0
H283 H 0.29459 0.16687 0.98106 0.0
H284 H 0.38472 0.33034 0.02819 0.0
H285 H 0.45903 0.40072 0.99817 0.0
C286 C 0.19457 0.19478 0.04919 0.0
C287 C 0.17531 0.12866 0.05408 0.0
C288 C 0.24718 0.23223 0.03446 0.0
C289 C 0.28124 0.20422 0.02396 0.0
C290 C 0.26246 0.13818 0.02896 0.0
C291 C 0.21036 0.10092 0.0441 0.0
C292 C 0.37364 0.25783 0.96781 0.0
C293 C 0.4193 0.32485 0.97202 0.0
C294 C 0.33139 0.21738 0.98511 0.0
C295 C 0.3334 0.24335 1.00689 0.0
C296 C 0.38161 0.30923 1.01147 0.0
C297 C 0.42441 0.34942 0.99428 0.0
H298 H 0.03748 0.23368 0.41351 0.0
H299 H 0.93779 0.07513 0.36499 0.0
H300 H 0.01718 0.30618 0.38896 0.0
H301 H 0.92103 0.14808 0.3397 0.0
H302 H 0.85973 0.27603 0.30264 0.0
H303 H 0.86572 0.20401 0.33165 0.0
H304 H 0.05051 0.36716 0.35592 0.0
H305 H 0.04185 0.43928 0.32806 0.0
C306 C 1.01172 0.21458 0.39746 0.0
C307 C 0.98938 0.14886 0.39114 0.0
C308 C 1.00031 0.25622 0.38326 0.0
C309 C 0.96748 0.23355 0.36212 0.0
C310 C 0.94513 0.16743 0.35595 0.0
C311 C 0.95536 0.12555 0.37037 0.0
C312 C 0.90091 0.29655 0.31449 0.0
C313 C 0.95022 0.36333 0.31302 0.0
C314 C 0.90489 0.25511 0.33101 0.0
C315 C 0.95916 0.27907 0.34612 0.0
C316 C 1.00734 0.34658 0.34499 0.0
C317 C 1.00255 0.38819 0.32884 0.0
loop_
_geom_bond_atom_site_label_1
_geom_bond_atom_site_label_2
_geom_bond_distance
_geom_bond_site_symmetry_2
_ccdc_geom_bond_type
In0 O1 2.294 1_455 S
In0 O2 2.326 . S
In0 O6 2.266 1_445 S
In0 O7 2.326 1_445 S
In0 O8 2.266 1_545 S
In0 O9 2.326 1_445 S
In0 O11 2.294 . S
In0 O12 2.326 . S
O1 In0 2.294 1_655 S
O1 C10 1.240 1_655 S
O2 In0 2.326 . S
O2 C10 1.252 . S
C3 O6 1.252 . S
C3 O7 1.260 . S
C4 O11 1.240 . S
C4 O12 1.252 . S
C5 O8 1.245 1_655 S
C5 O9 1.271 . S
O6 In0 2.266 1_665 S
O6 C3 1.252 . S
O7 In0 2.326 1_665 S
O7 C3 1.260 . S
O8 In0 2.266 1_565 S
O8 C5 1.245 1_455 S
O9 In0 2.326 1_665 S
O9 C5 1.271 . S
C10 O1 1.240 1_455 S
C10 O2 1.252 . S
O11 In0 2.294 . S
O11 C4 1.240 . S
O12 In0 2.326 . S
O12 C4 1.252 . S
In13 O14 2.294 . S
In13 O15 2.326 1_455 S
In13 O19 2.266 . S
In13 O20 2.326 1_545 S
In13 O21 2.266 1_445 S
In13 O22 2.326 1_545 S
In13 O24 2.294 1_445 S
In13 O25 2.326 1_455 S
O14 In13 2.294 . S
O14 C23 1.240 1_455 S
O15 In13 2.326 1_655 S
O15 C23 1.252 . S
C16 O19 1.252 1_565 S
C16 O20 1.260 . S
C17 O24 1.240 1_545 S
C17 O25 1.252 . S
C18 O21 1.252 1_455 S
C18 O22 1.260 . S
O19 In13 2.266 . S
O19 C16 1.252 1_545 S
O20 In13 2.326 1_565 S
O20 C16 1.260 . S
O21 In13 2.266 1_665 S
O21 C18 1.252 1_655 S
O22 In13 2.326 1_565 S
O22 C18 1.260 . S
C23 O14 1.240 1_655 S
C23 O15 1.252 . S
O24 In13 2.294 1_665 S
O24 C17 1.240 1_565 S
O25 In13 2.326 1_655 S
O25 C17 1.252 . S
In26 O27 2.294 1_445 S
In26 O28 2.326 1_445 S
In26 O32 2.266 1_545 S
In26 O33 2.326 . S
In26 O34 2.266 . S
In26 O35 2.326 . S
In26 O37 2.294 1_455 S
In26 O38 2.326 1_445 S
O27 In26 2.294 1_665 S
O27 C36 1.240 . S
O28 In26 2.326 1_665 S
O28 C36 1.252 . S
C29 O32 1.252 1_545 S
C29 O33 1.260 . S
C30 O37 1.240 1_565 S
C30 O38 1.252 . S
C31 O34 1.252 . S
C31 O35 1.260 . S
O32 In26 2.266 1_565 S
O32 C29 1.252 1_565 S
O33 In26 2.326 . S
O33 C29 1.260 . S
O34 In26 2.266 . S
O34 C31 1.252 . S
O35 In26 2.326 . S
O35 C31 1.260 . S
C36 O27 1.240 . S
C36 O28 1.252 . S
O37 In26 2.294 1_655 S
O37 C30 1.240 1_545 S
O38 In26 2.326 1_665 S
O38 C30 1.252 . S
Mg39 O46 2.141 . S
Mg39 O47 2.048 . S
Mg39 O48 2.048 . S
Mg39 O51 2.141 . S
C40 O41 1.313 . S
C40 O47 1.195 1_655 S
O41 C40 1.313 . S
C42 O43 1.245 . S
C42 O51 1.289 1_655 S
O43 C42 1.245 . S
C44 O45 1.245 . S
C44 O46 1.289 1_655 S
O45 C44 1.245 . S
O46 Mg39 2.141 . S
O46 C44 1.289 1_455 S
O47 Mg39 2.048 . S
O47 C40 1.195 1_455 S
O48 Mg39 2.048 . S
O48 C49 1.195 1_455 S
C49 O48 1.195 1_655 S
C49 O50 1.313 . S
O50 C49 1.313 . S
O51 Mg39 2.141 . S
O51 C42 1.289 1_455 S
Mg52 O59 2.141 . S
Mg52 O60 2.048 . S
Mg52 O61 2.048 . S
Mg52 O64 2.141 . S
C53 O54 1.313 . S
C53 O60 1.195 1_565 S
O54 C53 1.313 . S
C55 O56 1.245 . S
C55 O64 1.289 1_565 S
O56 C55 1.245 . S
C57 O58 1.245 . S
C57 O59 1.289 1_565 S
O58 C57 1.245 . S
O59 Mg52 2.141 . S
O59 C57 1.289 1_545 S
O60 Mg52 2.048 . S
O60 C53 1.195 1_545 S
O61 Mg52 2.048 . S
O61 C62 1.195 1_545 S
C62 O61 1.195 1_565 S
C62 O63 1.313 . S
O63 C62 1.313 . S
O64 Mg52 2.141 . S
O64 C55 1.289 1_545 S
Mg65 O72 2.141 . S
Mg65 O73 2.048 . S
Mg65 O74 2.048 . S
Mg65 O77 2.141 . S
C66 O67 1.313 . S
C66 O73 1.195 . S
O67 C66 1.313 . S
C68 O69 1.245 . S
C68 O77 1.289 . S
O69 C68 1.245 . S
C70 O71 1.245 . S
C70 O72 1.289 . S
O71 C70 1.245 . S
O72 Mg65 2.141 . S
O72 C70 1.289 . S
O73 Mg65 2.048 . S
O73 C66 1.195 . S
O74 Mg65 2.048 . S
O74 C75 1.195 . S
C75 O74 1.195 . S
C75 O76 1.313 . S
O76 C75 1.313 . S
O77 Mg65 2.141 . S
O77 C68 1.289 . S
H78 C86 0.950 . S
H79 C91 0.950 . S
H80 C88 0.950 . S
H81 C90 0.950 . S
H82 C92 0.950 . S
H83 C94 0.950 . S
H84 C96 0.950 . S
H85 C97 0.950 . S
C86 H78 0.950 . S
C86 C87 1.386 1_655 S
C86 C88 1.391 . S
C87 C86 1.386 1_455 S
C87 C91 1.393 . S
C88 H80 0.950 . S
C88 C86 1.391 . S
C88 C89 1.400 1_655 S
C89 C88 1.400 1_455 S
C89 C90 1.398 . S
C89 C95 1.491 . S
C90 H81 0.950 . S
C90 C89 1.398 . S
C90 C91 1.391 . S
C91 H79 0.950 . S
C91 C87 1.393 . S
C91 C90 1.391 . S
C92 H82 0.950 . S
C92 C93 1.386 . S
C92 C94 1.391 . S
C93 C92 1.386 . S
C93 C97 1.393 1_455 S
C94 H83 0.950 . S
C94 C92 1.391 . S
C94 C95 1.400 . S
C95 C89 1.491 . S
C95 C94 1.400 . S
C95 C96 1.398 1_455 S
C96 H84 0.950 . S
C96 C95 1.398 1_655 S
C96 C97 1.391 . S
C97 H85 0.950 . S
C97 C93 1.393 1_655 S
C97 C96 1.391 . S
H98 C106 0.950 . S
H99 C111 0.950 . S
H100 C108 0.950 . S
H101 C110 0.950 . S
H102 C112 0.950 . S
H103 C114 0.950 . S
H104 C116 0.950 . S
H105 C117 0.950 . S
C106 H98 0.950 . S
C106 C107 1.386 . S
C106 C108 1.391 . S
C107 C106 1.386 . S
C107 C111 1.393 1_545 S
C108 H100 0.950 . S
C108 C106 1.391 . S
C108 C109 1.400 . S
C109 C108 1.400 . S
C109 C110 1.398 1_545 S
C109 C115 1.491 . S
C110 H101 0.950 . S
C110 C109 1.398 1_565 S
C110 C111 1.391 . S
C111 H99 0.950 . S
C111 C107 1.393 1_565 S
C111 C110 1.391 . S
C112 H102 0.950 . S
C112 C113 1.386 1_565 S
C112 C114 1.391 . S
C113 C112 1.386 1_545 S
C113 C117 1.393 . S
C114 H103 0.950 . S
C114 C112 1.391 . S
C114 C115 1.400 1_565 S
C115 C109 1.491 . S
C115 C114 1.400 1_545 S
C115 C116 1.398 . S
C116 H104 0.950 . S
C116 C115 1.398 . S
C116 C117 1.391 . S
C117 H105 0.950 . S
C117 C113 1.393 . S
C117 C116 1.391 . S
H118 C126 0.950 . S
H119 C131 0.950 . S
H120 C128 0.950 . S
H121 C130 0.950 . S
H122 C132 0.950 . S
H123 C134 0.950 . S
H124 C136 0.950 . S
H125 C137 0.950 . S
C126 H118 0.950 . S
C126 C127 1.386 . S
C126 C128 1.391 . S
C127 C126 1.386 . S
C127 C131 1.393 . S
C128 H120 0.950 . S
C128 C126 1.391 . S
C128 C129 1.400 . S
C129 C128 1.400 . S
C129 C130 1.398 . S
C129 C135 1.491 . S
C130 H121 0.950 . S
C130 C129 1.398 . S
C130 C131 1.391 . S
C131 H119 0.950 . S
C131 C127 1.393 . S
C131 C130 1.391 . S
C132 H122 0.950 . S
C132 C133 1.386 . S
C132 C134 1.391 . S
C133 C132 1.386 . S
C133 C137 1.393 . S
C134 H123 0.950 . S
C134 C132 1.391 . S
C134 C135 1.400 . S
C135 C129 1.491 . S
C135 C134 1.400 . S
C135 C136 1.398 . S
C136 H124 0.950 . S
C136 C135 1.398 . S
C136 C137 1.391 . S
C137 H125 0.950 . S
C137 C133 1.393 . S
C137 C136 1.391 . S
H138 C146 0.950 . S
H139 C151 0.950 . S
H140 C148 0.950 . S
H141 C150 0.950 . S
H142 C152 0.950 . S
H143 C154 0.950 . S
H144 C156 0.950 . S
H145 C157 0.950 . S
C146 H138 0.950 . S
C146 C147 1.386 . S
C146 C148 1.391 . S
C147 C146 1.386 . S
C147 C151 1.393 1_655 S
C148 H140 0.950 . S
C148 C146 1.391 . S
C148 C149 1.389 1_655 S
C149 C148 1.389 1_455 S
C149 C150 1.404 . S
C149 C155 1.496 . S
C150 H141 0.950 . S
C150 C149 1.404 . S
C150 C151 1.391 . S
C151 H139 0.950 . S
C151 C147 1.393 1_455 S
C151 C150 1.391 . S
C152 H142 0.950 . S
C152 C153 1.386 . S
C152 C154 1.391 . S
C153 C152 1.386 . S
C153 C157 1.393 1_455 S
C154 H143 0.950 . S
C154 C152 1.391 . S
C154 C155 1.400 . S
C155 C149 1.496 . S
C155 C154 1.400 . S
C155 C156 1.398 1_455 S
C156 H144 0.950 . S
C156 C155 1.398 1_655 S
C156 C157 1.391 . S
C157 H145 0.950 . S
C157 C153 1.393 1_655 S
C157 C156 1.391 . S
H158 C166 0.950 . S
H159 C171 0.950 . S
H160 C168 0.950 . S
H161 C170 0.950 . S
H162 C172 0.950 . S
H163 C174 0.950 . S
H164 C176 0.950 . S
H165 C177 0.950 . S
C166 H158 0.950 . S
C166 C167 1.381 1_545 S
C166 C168 1.391 . S
C167 C166 1.381 1_565 S
C167 C171 1.401 . S
C168 H160 0.950 . S
C168 C166 1.391 . S
C168 C169 1.400 . S
C169 C168 1.400 . S
C169 C170 1.398 1_545 S
C169 C175 1.491 . S
C170 H161 0.950 . S
C170 C169 1.398 1_565 S
C170 C171 1.391 . S
C171 H159 0.950 . S
C171 C167 1.401 . S
C171 C170 1.391 . S
C172 H162 0.950 . S
C172 C173 1.386 1_565 S
C172 C174 1.391 . S
C173 C172 1.386 1_545 S
C173 C177 1.393 . S
C174 H163 0.950 . S
C174 C172 1.391 . S
C174 C175 1.400 1_565 S
C175 C169 1.491 . S
C175 C174 1.400 1_545 S
C175 C176 1.398 . S
C176 H164 0.950 . S
C176 C175 1.398 . S
C176 C177 1.391 . S
C177 H165 0.950 . S
C177 C173 1.393 . S
C177 C176 1.391 . S
H178 C186 0.950 . S
H179 C191 0.950 . S
H180 C188 0.950 . S
H181 C190 0.950 . S
H182 C192 0.950 . S
H183 C194 0.950 . S
H184 C196 0.950 . S
H185 C197 0.950 . S
C186 H178 0.950 . S
C186 C187 1.386 . S
C186 C188 1.391 . S
C187 C186 1.386 . S
C187 C191 1.393 . S
C188 H180 0.950 . S
C188 C186 1.391 . S
C188 C189 1.400 . S
C189 C188 1.400 . S
C189 C190 1.398 . S
C189 C195 1.491 . S
C190 H181 0.950 . S
C190 C189 1.398 . S
C190 C191 1.391 . S
C191 H179 0.950 . S
C191 C187 1.393 . S
C191 C190 1.391 . S
C192 H182 0.950 . S
C192 C193 1.386 . S
C192 C194 1.391 . S
C193 C192 1.386 . S
C193 C197 1.393 . S
C194 H183 0.950 . S
C194 C192 1.391 . S
C194 C195 1.400 . S
C195 C189 1.491 . S
C195 C194 1.400 . S
C195 C196 1.398 . S
C196 H184 0.950 . S
C196 C195 1.398 . S
C196 C197 1.391 . S
C197 H185 0.950 . S
C197 C193 1.393 . S
C197 C196 1.391 . S
H198 C206 0.950 . S
H199 C211 0.950 . S
H200 C208 0.950 . S
H201 C210 0.950 . S
H202 C212 0.950 . S
H203 C214 0.950 . S
H204 C216 0.950 . S
H205 C217 0.950 . S
C206 H198 0.950 . S
C206 C207 1.386 1_545 S
C206 C208 1.391 . S
C207 C206 1.386 1_565 S
C207 C211 1.393 . S
C208 H200 0.950 . S
C208 C206 1.391 . S
C208 C209 1.400 1_545 S
C209 C208 1.400 1_565 S
C209 C210 1.398 . S
C209 C215 1.483 1_565 S
C210 H201 0.950 . S
C210 C209 1.398 . S
C210 C211 1.391 . S
C211 H199 0.950 . S
C211 C207 1.393 . S
C211 C210 1.391 . S
C212 H202 0.950 . S
C212 C213 1.386 1_565 S
C212 C214 1.391 . S
C213 C212 1.386 1_545 S
C213 C217 1.393 . S
C214 H203 0.950 . S
C214 C212 1.391 . S
C214 C215 1.400 1_565 S
C215 C209 1.483 1_545 S
C215 C214 1.400 1_545 S
C215 C216 1.407 . S
C216 H204 0.950 . S
C216 C215 1.407 . S
C216 C217 1.391 . S
C217 H205 0.950 . S
C217 C213 1.393 . S
C217 C216 1.391 . S
H218 C226 0.950 . S
H219 C231 0.950 . S
H220 C228 0.911 1_556 S
H221 C230 0.950 . S
H222 C232 0.950 . S
H223 C234 0.950 1_554 S
H224 C236 0.950 . S
H225 C237 0.950 . S
C226 H218 0.950 . S
C226 C227 1.386 . S
C226 C228 1.417 . S
C227 C226 1.386 . S
C227 C231 1.393 . S
C228 H220 0.911 1_554 S
C228 C226 1.417 . S
C228 C229 1.413 . S
C229 C228 1.413 . S
C229 C230 1.398 . S
C229 C235 1.491 1_554 S
C230 H221 0.950 . S
C230 C229 1.398 . S
C230 C231 1.391 . S
C231 H219 0.950 . S
C231 C227 1.393 . S
C231 C230 1.391 . S
C232 H222 0.950 . S
C232 C233 1.386 . S
C232 C234 1.391 . S
C233 C232 1.386 . S
C233 C237 1.393 . S
C234 H223 0.950 1_556 S
C234 C232 1.391 . S
C234 C235 1.400 . S
C235 C229 1.491 1_556 S
C235 C234 1.400 . S
C235 C236 1.398 . S
C236 H224 0.950 . S
C236 C235 1.398 . S
C236 C237 1.391 . S
C237 H225 0.950 . S
C237 C233 1.393 . S
C237 C236 1.391 . S
H238 C246 0.950 . S
H239 C251 0.950 . S
H240 C248 0.950 . S
H241 C250 0.950 . S
H242 C252 0.950 . S
H243 C254 0.950 . S
H244 C256 0.950 . S
H245 C257 0.950 . S
C246 H238 0.950 . S
C246 C247 1.386 . S
C246 C248 1.391 . S
C247 C246 1.386 . S
C247 C251 1.393 1_455 S
C248 H240 0.950 . S
C248 C246 1.391 . S
C248 C249 1.400 . S
C249 C248 1.400 . S
C249 C250 1.398 1_455 S
C249 C255 1.491 . S
C250 H241 0.950 . S
C250 C249 1.398 1_655 S
C250 C251 1.391 . S
C251 H239 0.950 . S
C251 C247 1.393 1_655 S
C251 C250 1.391 . S
C252 H242 0.950 . S
C252 C253 1.386 1_655 S
C252 C254 1.391 . S
C253 C252 1.386 1_455 S
C253 C257 1.393 . S
C254 H243 0.950 . S
C254 C252 1.391 . S
C254 C255 1.400 1_655 S
C255 C249 1.491 . S
C255 C254 1.400 1_455 S
C255 C256 1.398 . S
C256 H244 0.950 . S
C256 C255 1.398 . S
C256 C257 1.391 . S
C257 H245 0.950 . S
C257 C253 1.393 . S
C257 C256 1.391 . S
H258 C266 0.950 . S
H259 C271 0.950 . S
H260 C268 0.950 . S
H261 C270 0.950 . S
H262 C272 0.950 . S
H263 C274 0.950 . S
H264 C276 0.950 . S
H265 C277 0.950 . S
C266 H258 0.950 . S
C266 C267 1.386 . S
C266 C268 1.391 . S
C267 C266 1.386 . S
C267 C271 1.393 1_545 S
C268 H260 0.950 . S
C268 C266 1.391 . S
C268 C269 1.400 . S
C269 C268 1.400 . S
C269 C270 1.398 1_545 S
C269 C275 1.491 . S
C270 H261 0.950 . S
C270 C269 1.398 1_565 S
C270 C271 1.391 . S
C271 H259 0.950 . S
C271 C267 1.393 1_565 S
C271 C270 1.391 . S
C272 H262 0.950 . S
C272 C273 1.386 1_565 S
C272 C274 1.391 . S
C273 C272 1.386 1_545 S
C273 C277 1.393 . S
C274 H263 0.950 . S
C274 C272 1.391 . S
C274 C275 1.400 1_565 S
C275 C269 1.491 . S
C275 C274 1.400 1_545 S
C275 C276 1.398 . S
C276 H264 0.950 . S
C276 C275 1.398 . S
C276 C277 1.391 . S
C277 H265 0.950 . S
C277 C273 1.393 . S
C277 C276 1.391 . S
H278 C286 0.950 . S
H279 C291 0.950 . S
H280 C288 0.950 . S
H281 C290 0.950 . S
H282 C292 0.950 . S
H283 C294 0.950 . S
H284 C296 0.950 . S
H285 C297 0.950 . S
C286 H278 0.950 . S
C286 C287 1.386 . S
C286 C288 1.391 . S
C287 C286 1.386 . S
C287 C291 1.393 . S
C288 H280 0.950 . S
C288 C286 1.391 . S
C288 C289 1.400 . S
C289 C288 1.400 . S
C289 C290 1.398 . S
C289 C295 1.491 1_554 S
C290 H281 0.950 . S
C290 C289 1.398 . S
C290 C291 1.391 . S
C291 H279 0.950 . S
C291 C287 1.393 . S
C291 C290 1.391 . S
C292 H282 0.950 . S
C292 C293 1.386 . S
C292 C294 1.391 . S
C293 C292 1.386 . S
C293 C297 1.393 . S
C294 H283 0.950 . S
C294 C292 1.391 . S
C294 C295 1.400 . S
C295 C289 1.491 1_556 S
C295 C294 1.400 . S
C295 C296 1.398 . S
C296 H284 0.950 . S
C296 C295 1.398 . S
C296 C297 1.391 . S
C297 H285 0.950 . S
C297 C293 1.393 . S
C297 C296 1.391 . S
H298 C306 0.950 . S
H299 C311 0.950 . S
H300 C308 0.950 . S
H301 C310 0.950 . S
H302 C312 0.950 . S
H303 C314 0.950 . S
H304 C316 0.950 . S
H305 C317 0.950 . S
C306 H298 0.950 . S
C306 C307 1.386 1_455 S
C306 C308 1.391 . S
C307 C306 1.386 1_655 S
C307 C311 1.393 . S
C308 H300 0.950 . S
C308 C306 1.391 . S
C308 C309 1.401 1_455 S
C309 C308 1.401 1_655 S
C309 C310 1.398 . S
C309 C315 1.490 1_655 S
C310 H301 0.950 . S
C310 C309 1.398 . S
C310 C311 1.391 . S
C311 H299 0.950 . S
C311 C307 1.393 . S
C311 C310 1.391 . S
C312 H302 0.950 . S
C312 C313 1.386 1_655 S
C312 C314 1.391 . S
C313 C312 1.386 1_455 S
C313 C317 1.393 . S
C314 H303 0.950 . S
C314 C312 1.391 . S
C314 C315 1.401 1_655 S
C315 C309 1.490 1_455 S
C315 C314 1.401 1_455 S
C315 C316 1.398 . S
C316 H304 0.950 . S
C316 C315 1.398 . S
C316 C317 1.391 . S
C317 H305 0.950 . S
C317 C313 1.393 . S
C317 C316 1.391 . S
C93 C44 1.442 1_455 S
C87 C10 1.451 . S
C107 C17 1.518 . S
C113 C62 1.517 1_545 S
C127 C36 1.524 . S
C133 C75 1.517 . S
C147 C5 1.450 . S
C153 C42 1.448 1_455 S
C173 C53 1.514 1_545 S
C167 C16 1.515 . S
C187 C31 1.524 . S
C193 C66 1.520 . S
C213 C55 1.442 1_545 S
C207 C30 1.447 . S
C227 C3 1.455 . S
C233 C68 1.451 . S
C253 C49 1.521 1_455 S
C247 C18 1.521 . S
C273 C57 1.436 1_545 S
C267 C29 1.450 . S
C293 C70 1.444 . S
C287 C4 1.454 . S
C307 C23 1.518 . S
C313 C40 1.510 1_455 S
