# Generated by pormake.
# Topology gar, (4,6)-cn, num edge types: 1
# Building blocks:
#     Node 0, Type 0, BuildingBlock: QUQFOY_clean_sbu_3, # of connection points: 4
#     Node 1, Type 0, BuildingBlock: QUQFOY_clean_sbu_3, # of connection points: 4
#     Node 2, Type 0, BuildingBlock: QUQFOY_clean_sbu_3, # of connection points: 4
#     Node 3, Type 0, BuildingBlock: QUQFOY_clean_sbu_3, # of connection points: 4
#     Node 4, Type 0, BuildingBlock: QUQFOY_clean_sbu_3, # of connection points: 4
#     Node 5, Type 0, BuildingBlock: QUQFOY_clean_sbu_3, # of connection points: 4
#     Node 6, Type 0, BuildingBlock: QUQFOY_clean_sbu_3, # of connection points: 4
#     Node 7, Type 0, BuildingBlock: QUQFOY_clean_sbu_3, # of connection points: 4
#     Node 8, Type 0, BuildingBlock: QUQFOY_clean_sbu_3, # of connection points: 4
#     Node 9, Type 0, BuildingBlock: QUQFOY_clean_sbu_3, # of connection points: 4
#     Node 10, Type 0, BuildingBlock: QUQFOY_clean_sbu_3, # of connection points: 4
#     Node 11, Type 0, BuildingBlock: QUQFOY_clean_sbu_3, # of connection points: 4
#     Node 12, Type 0, BuildingBlock: QUQFOY_clean_sbu_3, # of connection points: 4
#     Node 13, Type 0, BuildingBlock: QUQFOY_clean_sbu_3, # of connection points: 4
#     Node 14, Type 0, BuildingBlock: QUQFOY_clean_sbu_3, # of connection points: 4
#     Node 15, Type 0, BuildingBlock: QUQFOY_clean_sbu_3, # of connection points: 4
#     Node 16, Type 0, BuildingBlock: QUQFOY_clean_sbu_3, # of connection points: 4
#     Node 17, Type 0, BuildingBlock: QUQFOY_clean_sbu_3, # of connection points: 4
#     Node 18, Type 0, BuildingBlock: QUQFOY_clean_sbu_3, # of connection points: 4
#     Node 19, Type 0, BuildingBlock: QUQFOY_clean_sbu_3, # of connection points: 4
#     Node 20, Type 0, BuildingBlock: QUQFOY_clean_sbu_3, # of connection points: 4
#     Node 21, Type 0, BuildingBlock: QUQFOY_clean_sbu_3, # of connection points: 4
#     Node 22, Type 0, BuildingBlock: QUQFOY_clean_sbu_3, # of connection points: 4
#     Node 23, Type 0, BuildingBlock: QUQFOY_clean_sbu_3, # of connection points: 4
#     Node 24, Type 1, BuildingBlock: BETDEL_clean_sbu_0, # of connection points: 6
#     Node 25, Type 1, BuildingBlock: BETDEL_clean_sbu_0, # of connection points: 6
#     Node 26, Type 1, BuildingBlock: BETDEL_clean_sbu_0, # of connection points: 6
#     Node 27, Type 1, BuildingBlock: BETDEL_clean_sbu_0, # of connection points: 6
#     Node 28, Type 1, BuildingBlock: BETDEL_clean_sbu_0, # of connection points: 6
#     Node 29, Type 1, BuildingBlock: BETDEL_clean_sbu_0, # of connection points: 6
#     Node 30, Type 1, BuildingBlock: BETDEL_clean_sbu_0, # of connection points: 6
#     Node 31, Type 1, BuildingBlock: BETDEL_clean_sbu_0, # of connection points: 6
#     Node 32, Type 1, BuildingBlock: BETDEL_clean_sbu_0, # of connection points: 6
#     Node 33, Type 1, BuildingBlock: BETDEL_clean_sbu_0, # of connection points: 6
#     Node 34, Type 1, BuildingBlock: BETDEL_clean_sbu_0, # of connection points: 6
#     Node 35, Type 1, BuildingBlock: BETDEL_clean_sbu_0, # of connection points: 6
#     Node 36, Type 1, BuildingBlock: BETDEL_clean_sbu_0, # of connection points: 6
#     Node 37, Type 1, BuildingBlock: BETDEL_clean_sbu_0, # of connection points: 6
#     Node 38, Type 1, BuildingBlock: BETDEL_clean_sbu_0, # of connection points: 6
#     Node 39, Type 1, BuildingBlock: BETDEL_clean_sbu_0, # of connection points: 6
#     Edge 40, Type (0, 1), BuildingBlock: XIVTED_clean_linker_0, # of connection points: 2
#     Edge 41, Type (0, 1), BuildingBlock: XIVTED_clean_linker_0, # of connection points: 2
#     Edge 42, Type (0, 1), BuildingBlock: XIVTED_clean_linker_0, # of connection points: 2
#     Edge 43, Type (0, 1), BuildingBlock: XIVTED_clean_linker_0, # of connection points: 2
#     Edge 44, Type (0, 1), BuildingBlock: XIVTED_clean_linker_0, # of connection points: 2
#     Edge 45, Type (0, 1), BuildingBlock: XIVTED_clean_linker_0, # of connection points: 2
#     Edge 46, Type (0, 1), BuildingBlock: XIVTED_clean_linker_0, # of connection points: 2
#     Edge 47, Type (0, 1), BuildingBlock: XIVTED_clean_linker_0, # of connection points: 2
#     Edge 48, Type (0, 1), BuildingBlock: XIVTED_clean_linker_0, # of connection points: 2
#     Edge 49, Type (0, 1), BuildingBlock: XIVTED_clean_linker_0, # of connection points: 2
#     Edge 50, Type (0, 1), BuildingBlock: XIVTED_clean_linker_0, # of connection points: 2
#     Edge 51, Type (0, 1), BuildingBlock: XIVTED_clean_linker_0, # of connection points: 2
#     Edge 52, Type (0, 1), BuildingBlock: XIVTED_clean_linker_0, # of connection points: 2
#     Edge 53, Type (0, 1), BuildingBlock: XIVTED_clean_linker_0, # of connection points: 2
#     Edge 54, Type (0, 1), BuildingBlock: XIVTED_clean_linker_0, # of connection points: 2
#     Edge 55, Type (0, 1), BuildingBlock: XIVTED_clean_linker_0, # of connection points: 2
#     Edge 56, Type (0, 1), BuildingBlock: XIVTED_clean_linker_0, # of connection points: 2
#     Edge 57, Type (0, 1), BuildingBlock: XIVTED_clean_linker_0, # of connection points: 2
#     Edge 58, Type (0, 1), BuildingBlock: XIVTED_clean_linker_0, # of connection points: 2
#     Edge 59, Type (0, 1), BuildingBlock: XIVTED_clean_linker_0, # of connection points: 2
#     Edge 60, Type (0, 1), BuildingBlock: XIVTED_clean_linker_0, # of connection points: 2
#     Edge 61, Type (0, 1), BuildingBlock: XIVTED_clean_linker_0, # of connection points: 2
#     Edge 62, Type (0, 1), BuildingBlock: XIVTED_clean_linker_0, # of connection points: 2
#     Edge 63, Type (0, 1), BuildingBlock: XIVTED_clean_linker_0, # of connection points: 2
#     Edge 64, Type (0, 1), BuildingBlock: XIVTED_clean_linker_0, # of connection points: 2
#     Edge 65, Type (0, 1), BuildingBlock: XIVTED_clean_linker_0, # of connection points: 2
#     Edge 66, Type (0, 1), BuildingBlock: XIVTED_clean_linker_0, # of connection points: 2
#     Edge 67, Type (0, 1), BuildingBlock: XIVTED_clean_linker_0, # of connection points: 2
#     Edge 68, Type (0, 1), BuildingBlock: XIVTED_clean_linker_0, # of connection points: 2
#     Edge 69, Type (0, 1), BuildingBlock: XIVTED_clean_linker_0, # of connection points: 2
#     Edge 70, Type (0, 1), BuildingBlock: XIVTED_clean_linker_0, # of connection points: 2
#     Edge 71, Type (0, 1), BuildingBlock: XIVTED_clean_linker_0, # of connection points: 2
#     Edge 72, Type (0, 1), BuildingBlock: XIVTED_clean_linker_0, # of connection points: 2
#     Edge 73, Type (0, 1), BuildingBlock: XIVTED_clean_linker_0, # of connection points: 2
#     Edge 74, Type (0, 1), BuildingBlock: XIVTED_clean_linker_0, # of connection points: 2
#     Edge 75, Type (0, 1), BuildingBlock: XIVTED_clean_linker_0, # of connection points: 2
#     Edge 76, Type (0, 1), BuildingBlock: XIVTED_clean_linker_0, # of connection points: 2
#     Edge 77, Type (0, 1), BuildingBlock: XIVTED_clean_linker_0, # of connection points: 2
#     Edge 78, Type (0, 1), BuildingBlock: XIVTED_clean_linker_0, # of connection points: 2
#     Edge 79, Type (0, 1), BuildingBlock: XIVTED_clean_linker_0, # of connection points: 2
#     Edge 80, Type (0, 1), BuildingBlock: XIVTED_clean_linker_0, # of connection points: 2
#     Edge 81, Type (0, 1), BuildingBlock: XIVTED_clean_linker_0, # of connection points: 2
#     Edge 82, Type (0, 1), BuildingBlock: XIVTED_clean_linker_0, # of connection points: 2
#     Edge 83, Type (0, 1), BuildingBlock: XIVTED_clean_linker_0, # of connection points: 2
#     Edge 84, Type (0, 1), BuildingBlock: XIVTED_clean_linker_0, # of connection points: 2
#     Edge 85, Type (0, 1), BuildingBlock: XIVTED_clean_linker_0, # of connection points: 2
#     Edge 86, Type (0, 1), BuildingBlock: XIVTED_clean_linker_0, # of connection points: 2
#     Edge 87, Type (0, 1), BuildingBlock: XIVTED_clean_linker_0, # of connection points: 2
#     Edge 88, Type (0, 1), BuildingBlock: XIVTED_clean_linker_0, # of connection points: 2
#     Edge 89, Type (0, 1), BuildingBlock: XIVTED_clean_linker_0, # of connection points: 2
#     Edge 90, Type (0, 1), BuildingBlock: XIVTED_clean_linker_0, # of connection points: 2
#     Edge 91, Type (0, 1), BuildingBlock: XIVTED_clean_linker_0, # of connection points: 2
#     Edge 92, Type (0, 1), BuildingBlock: XIVTED_clean_linker_0, # of connection points: 2
#     Edge 93, Type (0, 1), BuildingBlock: XIVTED_clean_linker_0, # of connection points: 2
#     Edge 94, Type (0, 1), BuildingBlock: XIVTED_clean_linker_0, # of connection points: 2
#     Edge 95, Type (0, 1), BuildingBlock: XIVTED_clean_linker_0, # of connection points: 2
#     Edge 96, Type (0, 1), BuildingBlock: XIVTED_clean_linker_0, # of connection points: 2
#     Edge 97, Type (0, 1), BuildingBlock: XIVTED_clean_linker_0, # of connection points: 2
#     Edge 98, Type (0, 1), BuildingBlock: XIVTED_clean_linker_0, # of connection points: 2
#     Edge 99, Type (0, 1), BuildingBlock: XIVTED_clean_linker_0, # of connection points: 2
#     Edge 100, Type (0, 1), BuildingBlock: XIVTED_clean_linker_0, # of connection points: 2
#     Edge 101, Type (0, 1), BuildingBlock: XIVTED_clean_linker_0, # of connection points: 2
#     Edge 102, Type (0, 1), BuildingBlock: XIVTED_clean_linker_0, # of connection points: 2
#     Edge 103, Type (0, 1), BuildingBlock: XIVTED_clean_linker_0, # of connection points: 2
#     Edge 104, Type (0, 1), BuildingBlock: XIVTED_clean_linker_0, # of connection points: 2
#     Edge 105, Type (0, 1), BuildingBlock: XIVTED_clean_linker_0, # of connection points: 2
#     Edge 106, Type (0, 1), BuildingBlock: XIVTED_clean_linker_0, # of connection points: 2
#     Edge 107, Type (0, 1), BuildingBlock: XIVTED_clean_linker_0, # of connection points: 2
#     Edge 108, Type (0, 1), BuildingBlock: XIVTED_clean_linker_0, # of connection points: 2
#     Edge 109, Type (0, 1), BuildingBlock: XIVTED_clean_linker_0, # of connection points: 2
#     Edge 110, Type (0, 1), BuildingBlock: XIVTED_clean_linker_0, # of connection points: 2
#     Edge 111, Type (0, 1), BuildingBlock: XIVTED_clean_linker_0, # of connection points: 2
#     Edge 112, Type (0, 1), BuildingBlock: XIVTED_clean_linker_0, # of connection points: 2
#     Edge 113, Type (0, 1), BuildingBlock: XIVTED_clean_linker_0, # of connection points: 2
#     Edge 114, Type (0, 1), BuildingBlock: XIVTED_clean_linker_0, # of connection points: 2
#     Edge 115, Type (0, 1), BuildingBlock: XIVTED_clean_linker_0, # of connection points: 2
#     Edge 116, Type (0, 1), BuildingBlock: XIVTED_clean_linker_0, # of connection points: 2
#     Edge 117, Type (0, 1), BuildingBlock: XIVTED_clean_linker_0, # of connection points: 2
#     Edge 118, Type (0, 1), BuildingBlock: XIVTED_clean_linker_0, # of connection points: 2
#     Edge 119, Type (0, 1), BuildingBlock: XIVTED_clean_linker_0, # of connection points: 2
#     Edge 120, Type (0, 1), BuildingBlock: XIVTED_clean_linker_0, # of connection points: 2
#     Edge 121, Type (0, 1), BuildingBlock: XIVTED_clean_linker_0, # of connection points: 2
#     Edge 122, Type (0, 1), BuildingBlock: XIVTED_clean_linker_0, # of connection points: 2
#     Edge 123, Type (0, 1), BuildingBlock: XIVTED_clean_linker_0, # of connection points: 2
#     Edge 124, Type (0, 1), BuildingBlock: XIVTED_clean_linker_0, # of connection points: 2
#     Edge 125, Type (0, 1), BuildingBlock: XIVTED_clean_linker_0, # of connection points: 2
#     Edge 126, Type (0, 1), BuildingBlock: XIVTED_clean_linker_0, # of connection points: 2
#     Edge 127, Type (0, 1), BuildingBlock: XIVTED_clean_linker_0, # of connection points: 2
#     Edge 128, Type (0, 1), BuildingBlock: XIVTED_clean_linker_0, # of connection points: 2
#     Edge 129, Type (0, 1), BuildingBlock: XIVTED_clean_linker_0, # of connection points: 2
#     Edge 130, Type (0, 1), BuildingBlock: XIVTED_clean_linker_0, # of connection points: 2
#     Edge 131, Type (0, 1), BuildingBlock: XIVTED_clean_linker_0, # of connection points: 2
#     Edge 132, Type (0, 1), BuildingBlock: XIVTED_clean_linker_0, # of connection points: 2
#     Edge 133, Type (0, 1), BuildingBlock: XIVTED_clean_linker_0, # of connection points: 2
#     Edge 134, Type (0, 1), BuildingBlock: XIVTED_clean_linker_0, # of connection points: 2
#     Edge 135, Type (0, 1), BuildingBlock: XIVTED_clean_linker_0, # of connection points: 2
# Relax obj value: 0.139
# Max RMSD: 0.272
# Mean RMSD: 0.140
data_MOF--net-gar--node1-QUQFOY_clean_sbu_3--node2-BETDEL_clean_sbu_0--edge1-XIVTED_clean_linker_0
_symmetry_space_group_name_H-M    P1
_symmetry_Int_Tables_number       1
_symmetry_cell_setting            triclinic
loop_
_symmetry_equiv_pos_as_xyz
'x, y, z'
_cell_length_a     56.648842
_cell_length_b     54.742734
_cell_length_c     55.754203
_cell_angle_alpha  96.490238
_cell_angle_beta   92.332835
_cell_angle_gamma 101.10399
loop_
_atom_site_label
_atom_site_type_symbol
_atom_site_fract_x
_atom_site_fract_y
_atom_site_fract_z
_atom_type_partial_charge
C0 C 0.98649 0.28449 0.35438 0.0
O1 O 0.00274 0.29296 0.34076 0.0
Cd2 Cd 0.04456 0.29579 0.3492 0.0
O3 O -0.00828 0.27462 0.37307 0.0
Cd4 Cd 0.02804 0.26459 0.39369 0.0
C5 C 0.04608 0.32721 0.40678 0.0
O6 O 0.04862 0.25517 0.35786 0.0
O7 O 0.07119 0.26332 0.39082 0.0
O8 O 0.00505 0.22329 0.39909 0.0
C9 C 0.06916 0.25649 0.36821 0.0
O10 O 0.05117 0.32741 0.38474 0.0
C11 C 0.01134 0.22457 0.4214 0.0
O12 O 0.03689 0.30687 0.41483 0.0
O13 O 0.02512 0.24474 0.431 0.0
C14 C 0.96133 0.76358 0.67347 0.0
O15 O 0.97447 0.75003 0.6823 0.0
Cd16 Cd 0.00962 0.73845 0.66752 0.0
O17 O 0.96627 0.77303 0.65387 0.0
Cd18 Cd -0.00166 0.77354 0.62378 0.0
C19 C 0.98626 0.71011 0.61015 0.0
O20 O 0.02909 0.77597 0.65459 0.0
O21 O 0.04147 0.76988 0.61905 0.0
O22 O 0.00078 0.81784 0.62058 0.0
C23 C 0.04622 0.7725 0.64173 0.0
O24 O -0.00465 0.70947 0.63131 0.0
C25 C -0.00371 0.8154 0.59785 0.0
O26 O 0.98389 0.73084 0.60286 0.0
O27 O -0.00782 0.7932 0.58692 0.0
C28 C 0.48853 0.79178 0.86048 0.0
O29 O 0.50586 0.80211 0.849 0.0
Cd30 Cd 0.54717 0.80028 0.85596 0.0
O31 O 0.49223 0.77848 0.87711 0.0
Cd32 Cd 0.52792 0.76575 0.89608 0.0
C33 C 0.5523 0.82685 0.91479 0.0
O34 O 0.54741 0.75721 0.85917 0.0
O35 O 0.57037 0.76199 0.89163 0.0
O36 O 0.5043 0.72429 0.90086 0.0
C37 C 0.56768 0.75623 0.86887 0.0
O38 O 0.55929 0.82857 0.89351 0.0
C39 C 0.51101 0.72505 0.92301 0.0
O40 O 0.53936 0.80664 0.91993 0.0
O41 O 0.52511 0.74495 0.93269 0.0
C42 C 0.46154 0.26396 0.166 0.0
O43 O 0.47277 0.24969 0.17636 0.0
Cd44 Cd 0.50641 0.23346 0.16252 0.0
O45 O 0.46827 0.27221 0.14632 0.0
Cd46 Cd 0.50255 0.27138 0.11931 0.0
C47 C 0.48749 0.20833 0.10305 0.0
O48 O 0.53062 0.26988 0.15165 0.0
O49 O 0.54489 0.26514 0.11676 0.0
O50 O 0.50937 0.31622 0.11704 0.0
C51 C 0.54806 0.2658 0.13948 0.0
O52 O 0.49337 0.20568 0.12479 0.0
C53 C 0.50513 0.3145 0.09432 0.0
O54 O 0.48813 0.23001 0.09649 0.0
O55 O 0.49937 0.29251 0.08298 0.0
C56 C 0.00376 0.7874 0.17917 0.0
O57 O 0.02022 0.78018 0.19104 0.0
Cd58 Cd 0.06021 0.78104 0.17841 0.0
O59 O 0.00772 0.79574 0.15895 0.0
Cd60 Cd 0.04083 0.8039 0.13131 0.0
C61 C 0.04584 0.74268 0.12445 0.0
O62 O 0.07054 0.8208 0.16383 0.0
O63 O 0.08511 0.81569 0.12919 0.0
O64 O 0.02196 0.83795 0.12095 0.0
C65 C 0.089 0.82278 0.15168 0.0
O66 O 0.05625 0.74635 0.14561 0.0
C67 C 0.02466 0.83418 0.09842 0.0
O68 O 0.03719 0.7599 0.11582 0.0
O69 O 0.03492 0.81627 0.09116 0.0
C70 C 0.44866 0.75099 0.32202 0.0
O71 O 0.46398 0.76748 0.31366 0.0
Cd72 Cd 0.50491 0.78185 0.32803 0.0
O73 O 0.45406 0.74115 0.34062 0.0
Cd74 Cd 0.49045 0.74817 0.36846 0.0
C75 C 0.49427 0.81034 0.38257 0.0
O76 O 0.51817 0.74504 0.33709 0.0
O77 O 0.53494 0.75953 0.37252 0.0
O78 O 0.48414 0.70465 0.37565 0.0
C79 C 0.53719 0.75094 0.35082 0.0
O80 O 0.5049 0.81281 0.36307 0.0
C81 C 0.4844 0.70913 0.3985 0.0
O82 O 0.485 0.78875 0.38795 0.0
O83 O 0.48617 0.73183 0.40744 0.0
C84 C 0.49825 0.2812 0.67934 0.0
O85 O 0.51443 0.27341 0.69109 0.0
Cd86 Cd 0.55502 0.27617 0.67934 0.0
O87 O 0.50278 0.29068 0.65977 0.0
Cd88 Cd 0.53652 0.30041 0.63347 0.0
C89 C 0.54405 0.24002 0.6242 0.0
O90 O 0.56463 0.31744 0.66748 0.0
O91 O 0.58046 0.31577 0.63321 0.0
O92 O 0.5161 0.33333 0.6232 0.0
C93 C 0.58337 0.32188 0.6559 0.0
O94 O 0.55371 0.24288 0.64563 0.0
C95 C 0.52021 0.33078 0.60093 0.0
O96 O 0.53504 0.25733 0.61624 0.0
O97 O 0.5318 0.31394 0.59378 0.0
C98 C 0.94485 0.25786 0.81933 0.0
O99 O 0.96003 0.27561 0.81253 0.0
Cd100 Cd 0.00094 0.28984 0.82749 0.0
O101 O 0.95012 0.24655 0.83697 0.0
Cd102 Cd 0.98586 0.25147 0.86544 0.0
C103 C -0.00892 0.31361 0.88421 0.0
O104 O 0.01287 0.25156 0.8331 0.0
O105 O 0.03039 0.25763 0.86889 0.0
O106 O 0.97723 0.20702 0.86961 0.0
C107 C 0.03201 0.25368 0.84623 0.0
O108 O 0.00114 0.31777 0.86469 0.0
C109 C 0.9777 0.20999 0.89254 0.0
O110 O 0.98196 0.29141 0.8881 0.0
O111 O 0.98068 0.23233 0.90289 0.0
C112 C 0.43732 0.04033 0.30645 0.0
O113 O 0.44871 0.0305 0.29005 0.0
Cd114 Cd 0.4337 0.01682 0.24932 0.0
O115 O 0.41596 0.04363 0.30208 0.0
Cd116 Cd 0.38736 0.03655 0.26599 0.0
C117 C 0.38358 0.97424 0.25926 0.0
O118 O 0.41792 0.05217 0.23973 0.0
O119 O 0.38439 0.03291 0.22138 0.0
O120 O 0.37128 0.07228 0.28303 0.0
C121 C 0.40524 0.04594 0.22009 0.0
O122 O 0.40328 0.97772 0.24873 0.0
C123 C 0.34956 0.06254 0.27592 0.0
O124 O 0.3753 0.99265 0.26902 0.0
O125 O 0.34547 0.04052 0.26474 0.0
C126 C 0.28338 0.09555 0.49446 0.0
O127 O 0.26507 0.08338 0.50331 0.0
Cd128 Cd 0.22649 0.09431 0.5054 0.0
O129 O 0.2824 0.11583 0.48553 0.0
Cd130 Cd 0.25202 0.14227 0.4789 0.0
C131 C 0.24323 0.15282 0.53875 0.0
O132 O 0.21938 0.10736 0.46725 0.0
O133 O 0.20831 0.14261 0.47486 0.0
O134 O 0.26461 0.14874 0.43856 0.0
C135 C 0.20237 0.11926 0.46795 0.0
O136 O 0.23148 0.13027 0.53654 0.0
C137 C 0.26901 0.17253 0.4421 0.0
O138 O 0.25425 0.1617 0.52116 0.0
O139 O 0.26636 0.18257 0.46326 0.0
C140 C 0.08827 0.00328 0.8092 0.0
O141 O 0.07917 0.01675 0.79576 0.0
Cd142 Cd 0.09084 0.02895 0.75777 0.0
O143 O 0.10665 0.99412 0.80334 0.0
Cd144 Cd 0.13373 -0.00436 0.76843 0.0
C145 C 0.14917 0.05953 0.77718 0.0
O146 O 0.10268 0.99391 0.73723 0.0
O147 O 0.13869 0.00224 0.72558 0.0
O148 O 0.13636 0.95149 0.76555 0.0
C149 C 0.11626 -0.00079 0.72032 0.0
O150 O 0.12784 0.05936 0.76883 0.0
C151 C 0.15915 0.95526 0.76885 0.0
O152 O 0.15603 0.03914 0.78032 0.0
O153 O 0.17022 0.97798 0.773 0.0
C154 C 0.27718 0.93144 -0.00538 0.0
O155 O 0.26565 0.94475 0.98324 0.0
Cd156 Cd 0.22294 0.93917 0.97934 0.0
O157 O 0.26622 0.91335 0.00499 0.0
Cd158 Cd 0.22441 0.89272 0.01024 0.0
C159 C 0.2133 0.87986 0.9494 0.0
O160 O 0.21217 0.93186 0.01952 0.0
O161 O 0.18327 0.89967 0.01637 0.0
O162 O 0.24017 0.88016 0.04698 0.0
C163 C 0.19004 0.92325 0.02096 0.0
O164 O 0.21286 0.90284 0.94808 0.0
C165 C 0.22902 0.8575 0.04242 0.0
O166 O 0.21777 0.87233 0.96948 0.0
O167 O 0.21519 0.85166 0.02331 0.0
C168 C 0.29078 0.43169 0.02215 0.0
O169 O 0.27735 0.44346 0.01116 0.0
Cd170 Cd 0.23765 0.42524 -0.00322 0.0
O171 O 0.28257 0.40984 0.02791 0.0
Cd172 Cd 0.24257 0.38015 0.02694 0.0
C173 C 0.2479 0.36934 0.96693 0.0
O174 O 0.221 0.41351 0.0333 0.0
O175 O 0.19817 0.37805 0.02039 0.0
O176 O 0.25414 0.37611 0.06866 0.0
C177 C 0.19991 0.40087 0.02885 0.0
O178 O 0.24377 0.39133 0.96635 0.0
C179 C 0.24547 0.35281 0.06754 0.0
O180 O 0.24854 0.36004 0.98682 0.0
O181 O 0.23594 0.34179 0.04717 0.0
C182 C 0.77903 0.09863 0.00699 0.0
O183 O 0.75859 0.08773 0.01276 0.0
Cd184 Cd 0.72739 0.11005 0.02141 0.0
O185 O 0.78313 0.12181 0.00407 0.0
Cd186 Cd 0.76053 0.15639 0.00313 0.0
C187 C 0.75654 0.16046 0.06237 0.0
O188 O 0.72328 0.13038 0.98637 0.0
O189 O 0.71966 0.16627 0.00398 0.0
O190 O 0.78005 0.16544 0.96655 0.0
C191 C 0.70991 0.14603 0.99105 0.0
O192 O 0.74072 0.14026 0.05781 0.0
C193 C 0.78286 0.18909 0.97103 0.0
O194 O 0.76829 0.16994 0.0456 0.0
O195 O 0.77641 0.19776 0.99127 0.0
C196 C 0.06506 0.48241 0.26119 0.0
O197 O 0.05299 0.48881 0.24407 0.0
Cd198 Cd 0.06499 0.49285 0.20419 0.0
O199 O 0.08591 0.47733 0.25819 0.0
Cd200 Cd 0.11434 0.47531 0.22562 0.0
C201 C 0.11639 0.53724 0.21913 0.0
O202 O 0.0819 0.45596 0.19746 0.0
O203 O 0.11598 0.46147 0.18168 0.0
O204 O 0.13241 0.44628 0.2471 0.0
C205 C 0.09338 0.45377 0.17871 0.0
O206 O 0.0948 0.53267 0.20996 0.0
C207 C 0.15389 0.45662 0.24354 0.0
O208 O 0.12605 0.51991 0.22598 0.0
O209 O 0.15662 0.47523 0.23158 0.0
C210 C 0.79219 0.92545 0.51833 0.0
O211 O 0.77921 0.93608 0.50546 0.0
Cd212 Cd 0.73825 0.92049 0.49437 0.0
O213 O 0.78327 0.90537 0.52713 0.0
Cd214 Cd 0.74285 0.87679 0.52727 0.0
C215 C 0.74691 0.86316 0.46697 0.0
O216 O 0.72305 0.91155 0.53229 0.0
O217 O 0.69859 0.87654 0.52169 0.0
O218 O 0.75523 0.87422 0.5691 0.0
C219 C 0.70154 0.89982 0.52889 0.0
O220 O 0.74247 0.8849 0.46549 0.0
C221 C 0.74611 0.85115 0.56901 0.0
O222 O 0.74827 0.85498 0.48739 0.0
O223 O 0.73574 0.83954 0.54919 0.0
C224 C 0.91655 0.01471 0.26894 0.0
O225 O 0.92987 0.00854 0.25245 0.0
Cd226 Cd 0.91908 0.00625 0.21045 0.0
O227 O 0.89742 0.02258 0.2637 0.0
Cd228 Cd 0.87494 0.03188 0.22754 0.0
C229 C 0.86295 0.96891 0.21268 0.0
O230 O 0.90892 0.04555 0.20401 0.0
O231 O 0.87455 0.03559 0.18384 0.0
O232 O 0.86974 0.07126 0.24995 0.0
C233 C 0.89701 0.04424 0.18404 0.0
O234 O 0.88463 0.97104 0.20665 0.0
C235 C 0.84704 0.0674 0.24567 0.0
O236 O 0.85483 0.98803 0.22118 0.0
O237 O 0.83725 0.0469 0.233 0.0
C238 C 0.29041 0.5975 0.50842 0.0
O239 O 0.27203 0.58774 0.5188 0.0
Cd240 Cd 0.23902 0.60726 0.52673 0.0
O241 O 0.29274 0.6197 0.5026 0.0
Cd242 Cd 0.26933 0.65392 0.50551 0.0
C243 C 0.26675 0.65937 0.56528 0.0
O244 O 0.23338 0.62493 0.49034 0.0
O245 O 0.22708 0.66051 0.50584 0.0
O246 O 0.28845 0.66596 0.46937 0.0
C247 C 0.21857 0.63915 0.49426 0.0
O248 O 0.25105 0.63906 0.56163 0.0
C249 C 0.28864 0.6892 0.47432 0.0
O250 O 0.27828 0.66803 0.548 0.0
O251 O 0.28086 0.69621 0.49444 0.0
C252 C 0.41153 0.5146 0.77245 0.0
O253 O 0.42436 0.50845 0.75551 0.0
Cd254 Cd 0.41255 0.50606 0.71382 0.0
O255 O 0.39222 0.52242 0.76781 0.0
Cd256 Cd 0.36916 0.5316 0.73166 0.0
C257 C 0.35647 0.46878 0.71675 0.0
O258 O 0.40274 0.54551 0.70768 0.0
O259 O 0.36837 0.53464 0.68761 0.0
O260 O 0.36485 0.57139 0.75396 0.0
C261 C 0.39069 0.54395 0.68776 0.0
O262 O 0.37802 0.47102 0.7103 0.0
C263 C 0.34219 0.56819 0.74969 0.0
O264 O 0.34848 0.48783 0.72566 0.0
O265 O 0.33193 0.54773 0.73723 0.0
C266 C 0.55797 0.98261 0.75759 0.0
O267 O 0.54718 0.99015 0.74027 0.0
Cd268 Cd 0.56293 -0.00372 0.70181 0.0
O269 O 0.57933 0.97858 0.75592 0.0
Cd270 Cd 0.61071 0.98152 0.72637 0.0
C271 C 0.6108 0.04312 0.72165 0.0
O272 O 0.58167 0.96067 0.6949 0.0
O273 O 0.61684 0.97245 0.68264 0.0
O274 O 0.62844 0.95218 0.74765 0.0
C275 C 0.59513 0.96151 0.67744 0.0
O276 O 0.59135 0.037 0.7082 0.0
C277 C 0.65001 0.96311 0.74528 0.0
O278 O 0.61975 0.02667 0.73119 0.0
O279 O 0.65302 0.98242 0.7343 0.0
C280 C 0.78175 0.60126 -0.00217 0.0
O281 O 0.763 0.58977 0.00653 0.0
Cd282 Cd 0.72461 0.60121 0.00665 0.0
O283 O 0.78146 0.62125 0.98811 0.0
Cd284 Cd 0.75167 0.64796 0.97997 0.0
C285 C 0.74133 0.65982 0.03931 0.0
O286 O 0.7193 0.61301 0.96757 0.0
O287 O 0.70798 0.64821 0.97406 0.0
O288 O 0.76626 0.65478 0.94032 0.0
C289 C 0.70228 0.62484 0.96717 0.0
O290 O 0.72895 0.63756 0.03731 0.0
C291 C 0.7701 0.67856 0.94395 0.0
O292 O 0.7531 0.66794 0.02185 0.0
O293 O 0.76627 0.68835 0.96483 0.0
C294 C 0.93554 0.53976 0.8126 0.0
O295 O 0.9479 0.53115 0.79638 0.0
Cd296 Cd 0.93526 0.51965 0.75479 0.0
O297 O 0.91451 0.54359 0.80748 0.0
Cd298 Cd 0.88785 0.54078 0.77041 0.0
C299 C 0.88241 0.47787 0.75838 0.0
O300 O 0.92029 0.55581 0.74594 0.0
O301 O 0.88587 0.54299 0.72654 0.0
O302 O 0.87301 0.57698 0.78843 0.0
C303 C 0.90799 0.55264 0.72606 0.0
O304 O 0.9041 0.48106 0.75227 0.0
C305 C 0.85101 0.56751 0.78228 0.0
O306 O 0.87323 0.49634 0.76639 0.0
O307 O 0.84627 0.54544 0.77117 0.0
C308 C 0.77659 0.44532 0.48863 0.0
O309 O 0.76393 0.45474 0.47408 0.0
Cd310 Cd 0.72091 0.44617 0.46396 0.0
O311 O 0.76717 0.42789 0.50072 0.0
Cd312 Cd 0.72751 0.40248 0.50597 0.0
C313 C 0.71468 0.3839 0.44365 0.0
O314 O 0.70791 0.43499 0.50106 0.0
O315 O 0.70033 0.42127 0.53475 0.0
O316 O 0.74986 0.38668 0.53634 0.0
C317 C 0.69761 0.4371 0.52048 0.0
O318 O 0.7149 0.40614 0.43876 0.0
C319 C 0.73464 0.36619 0.53592 0.0
O320 O 0.71813 0.37933 0.46529 0.0
O321 O 0.71586 0.36284 0.52166 0.0
C322 C 0.59576 0.50588 0.31619 0.0
O323 O 0.58615 0.51948 0.30331 0.0
Cd324 Cd 0.59481 0.52943 0.26375 0.0
O325 O 0.61286 0.49543 0.30868 0.0
Cd326 Cd 0.63683 0.49514 0.27154 0.0
C327 C 0.65429 0.55887 0.27814 0.0
O328 O 0.60373 0.49319 0.24211 0.0
O329 O 0.63887 0.50051 0.22824 0.0
O330 O 0.63822 0.45063 0.26941 0.0
C331 C 0.61626 0.49759 0.22423 0.0
O332 O 0.63265 0.5591 0.27116 0.0
C333 C 0.66105 0.45369 0.27126 0.0
O334 O 0.66082 0.53834 0.28139 0.0
O335 O 0.67278 0.47618 0.27405 0.0
Dy336 Dy 0.96474 0.0114 0.99104 0.0
C337 C 0.06772 0.02577 0.00061 0.0
C338 C 0.91767 0.01344 -0.004 0.0
Dy339 Dy 0.02006 0.02679 0.00208 0.0
O340 O 0.92576 0.00306 0.97667 0.0
O341 O 0.93516 0.02212 0.01222 0.0
O342 O 0.97061 0.9884 0.95615 0.0
O343 O -0.0043 0.02079 0.97029 0.0
C344 C -0.00823 0.00224 0.9542 0.0
C345 C -0.00661 0.03651 0.03888 0.0
O346 O 0.01448 0.061 0.98636 0.0
O347 O 0.97271 0.05303 0.98816 0.0
O348 O 0.05783 0.03517 0.0192 0.0
O349 O 0.05163 0.01772 0.98283 0.0
O350 O 0.01436 0.05032 0.03629 0.0
O351 O 0.98913 0.01754 0.02314 0.0
O352 O 0.9703 0.97682 0.00595 0.0
O353 O 0.01201 0.98497 0.00387 0.0
C354 C -0.0066 0.06805 0.98475 0.0
C355 C -0.00862 0.96979 0.00718 0.0
Dy356 Dy 0.25191 0.7529 0.22092 0.0
C357 C 0.26119 0.75339 0.32289 0.0
C358 C 0.2493 0.7564 0.17277 0.0
Dy359 Dy 0.24843 0.76004 0.27714 0.0
O360 O 0.26911 0.76133 0.18649 0.0
O361 O 0.23099 0.74936 0.18534 0.0
O362 O 0.27843 0.72747 0.22537 0.0
O363 O 0.27611 0.75663 0.25229 0.0
C364 C 0.2856 0.73797 0.24724 0.0
C365 C 0.21598 0.77776 0.2524 0.0
O366 O 0.27412 0.79514 0.27196 0.0
O367 O 0.26455 0.7945 0.23086 0.0
O368 O 0.24729 0.76869 0.31757 0.0
O369 O 0.26709 0.74135 0.3034 0.0
O370 O 0.22272 0.78632 0.27497 0.0
O371 O 0.22435 0.75847 0.24587 0.0
O372 O 0.22853 0.71631 0.22464 0.0
O373 O 0.22723 0.72052 0.26684 0.0
C374 C 0.27509 0.8061 0.25189 0.0
C375 C 0.22183 0.7075 0.245 0.0
Dy376 Dy 0.53727 0.02186 0.50347 0.0
C377 C 0.43804 0.03311 0.49895 0.0
C378 C 0.58009 0.00636 0.50589 0.0
Dy379 Dy 0.48201 0.02116 0.50596 0.0
O380 O 0.56568 0.00341 0.48666 0.0
O381 O 0.5717 0.01896 0.5236 0.0
O382 O 0.53875 0.04536 0.47275 0.0
O383 O 0.50705 0.01973 0.47778 0.0
C384 C 0.51605 0.03712 0.46601 0.0
C385 C 0.50314 0.00613 0.54365 0.0
O386 O 0.4812 0.98423 0.48384 0.0
O387 O 0.51894 0.98133 0.49941 0.0
O388 O 0.44238 0.01595 0.51188 0.0
O389 O 0.4576 0.04352 0.4898 0.0
O390 O 0.48038 -0.00195 0.53724 0.0
O391 O 0.51196 0.02309 0.5314 0.0
O392 O 0.54052 0.06006 0.52331 0.0
O393 O 0.49961 0.06159 0.51854 0.0
C394 C 0.49813 0.97105 0.48733 0.0
C395 C 0.52246 0.07227 0.52531 0.0
Dy396 Dy 0.23359 0.26077 0.75631 0.0
C397 C 0.33531 0.27295 0.74439 0.0
C398 C 0.18737 0.25008 0.76933 0.0
Dy399 Dy 0.28832 0.26343 0.75536 0.0
O400 O 0.19436 0.26251 0.75151 0.0
O401 O 0.2055 0.24317 0.77965 0.0
O402 O 0.23582 0.29492 0.73709 0.0
O403 O 0.2653 0.29098 0.75936 0.0
C404 C 0.25833 0.30366 0.74397 0.0
C405 C 0.26245 0.22037 0.76681 0.0
O406 O 0.28711 0.2849 0.79191 0.0
O407 O 0.24643 0.26967 0.79559 0.0
O408 O 0.32683 0.25934 0.76089 0.0
O409 O 0.31821 0.2816 0.73413 0.0
O410 O 0.2847 0.22882 0.77486 0.0
O411 O 0.25662 0.23371 0.75164 0.0
O412 O 0.2346 0.23984 0.7197 0.0
O413 O 0.27549 0.25399 0.71583 0.0
C414 C 0.26807 0.28114 0.80514 0.0
C415 C 0.25356 0.24311 0.70633 0.0
Dy416 Dy 0.98905 0.00693 0.48141 0.0
C417 C 0.04582 0.04743 0.57158 0.0
C418 C 0.96196 0.99364 0.43876 0.0
Dy419 Dy 0.01186 0.03258 0.53436 0.0
O420 O 0.982 0.98653 0.44379 0.0
O421 O 0.95633 0.00739 0.45736 0.0
O422 O 0.02647 0.00436 0.47072 0.0
O423 O 0.02147 0.03292 0.49691 0.0
C424 C 0.03708 0.02294 0.48648 0.0
C425 C 0.96507 0.01036 0.53457 0.0
O426 O 0.0057 0.06687 0.5186 0.0
O427 O 0.98433 0.04703 0.48238 0.0
O428 O 0.0247 0.05357 0.57092 0.0
O429 O 0.04859 0.03406 0.55146 0.0
O430 O 0.97733 0.02222 0.55411 0.0
O431 O 0.97873 0.01208 0.51759 0.0
O432 O 0.98766 0.97324 0.50105 0.0
O433 O 0.0174 0.99277 0.531 0.0
C434 C -0.0069 0.0674 0.49801 0.0
C435 C 0.00325 0.97232 0.51926 0.0
Dy436 Dy 0.27992 0.77738 0.77455 0.0
C437 C 0.18912 0.73208 0.72476 0.0
C438 C 0.3216 0.79555 0.80223 0.0
Dy439 Dy 0.22868 0.74839 0.75594 0.0
O440 O 0.31783 0.79948 0.77997 0.0
O441 O 0.30235 0.78218 0.80955 0.0
O442 O 0.29037 0.77943 0.73596 0.0
O443 O 0.26481 0.74947 0.74479 0.0
C444 C 0.27453 0.75947 0.72761 0.0
C445 C 0.23361 0.76608 0.80305 0.0
O446 O 0.24513 0.71541 0.76173 0.0
O447 O 0.27946 0.73816 0.78429 0.0
O448 O 0.18961 0.7303 0.74786 0.0
O449 O 0.21039 0.74207 0.71876 0.0
O450 O 0.21786 0.74613 0.79422 0.0
O451 O 0.24371 0.77617 0.78602 0.0
O452 O 0.26247 0.81026 0.77043 0.0
O453 O 0.22901 0.78766 0.74671 0.0
C454 C 0.26504 0.71647 0.77557 0.0
C455 C 0.24279 0.80934 0.75628 0.0
Dy456 Dy 0.50402 0.01767 0.02571 0.0
C457 C 0.50151 0.99295 0.92236 0.0
C458 C 0.49585 0.02605 0.07317 0.0
Dy459 Dy 0.49965 0.01161 0.96908 0.0
O460 O 0.49484 0.00409 0.06112 0.0
O461 O 0.50215 0.04358 0.05946 0.0
O462 O 0.53403 -0.00434 0.02421 0.0
O463 O 0.50635 0.98872 -0.00315 0.0
C464 C 0.52603 0.98335 0.00321 0.0
C465 C 0.48983 0.05411 0.99133 0.0
O466 O 0.46467 0.98771 0.97534 0.0
O467 O 0.46572 -0.00316 0.01742 0.0
O468 O 0.48624 0.00663 0.93002 0.0
O469 O 0.51561 0.98967 0.94015 0.0
O470 O 0.49852 0.0529 0.97005 0.0
O471 O 0.4853 0.03268 -0.00198 0.0
O472 O 0.53414 0.04786 0.01748 0.0
O473 O 0.53798 0.02996 0.9784 0.0
C474 C 0.45468 0.98587 -0.00367 0.0
C475 C 0.54606 0.04649 -0.00245 0.0
Dy476 Dy 0.2679 0.29983 0.26792 0.0
C477 C 0.26161 0.19536 0.2607 0.0
C478 C 0.26634 0.34951 0.27215 0.0
Dy479 Dy 0.25649 0.24212 0.25338 0.0
O480 O 0.26642 0.33632 0.29006 0.0
O481 O 0.2676 0.33562 0.25196 0.0
O482 O 0.28951 0.29452 0.30118 0.0
O483 O 0.25948 0.26727 0.28668 0.0
C484 C 0.27668 0.27231 0.30258 0.0
C485 C 0.24655 0.26835 0.21813 0.0
O486 O 0.22184 0.24635 0.26888 0.0
O487 O 0.22737 0.28961 0.26877 0.0
O488 O 0.24788 0.20003 0.24312 0.0
O489 O 0.2727 0.21599 0.27331 0.0
O490 O 0.23564 0.24516 0.21904 0.0
O491 O 0.26363 0.27459 0.23425 0.0
O492 O 0.30331 0.29647 0.25305 0.0
O493 O 0.2954 0.25271 0.24487 0.0
C494 C 0.21372 0.26754 0.27143 0.0
C495 C 0.30987 0.27504 0.2455 0.0
Dy496 Dy 0.49108 0.50793 0.98368 0.0
C497 C 0.53974 0.5437 0.07606 0.0
C498 C 0.46407 0.49444 0.9409 0.0
Dy499 Dy 0.51131 0.5317 0.03405 0.0
O500 O 0.48542 0.48992 0.94513 0.0
O501 O 0.4571 0.50561 0.96038 0.0
O502 O 0.52851 0.50607 0.97269 0.0
O503 O 0.52313 0.53534 -0.0021 0.0
C504 C 0.53886 0.52553 0.98751 0.0
C505 C 0.4636 0.51537 0.02978 0.0
O506 O 0.50871 0.56709 0.01868 0.0
O507 O 0.48334 0.5471 0.98558 0.0
O508 O 0.5169 0.54409 0.07405 0.0
O509 O 0.54723 0.5378 0.05488 0.0
O510 O 0.47408 0.535 0.0444 0.0
O511 O 0.47903 0.50467 0.01983 0.0
O512 O 0.49252 0.47261 -0.00021 0.0
O513 O 0.51911 0.49264 0.03177 0.0
C514 C 0.49399 0.56781 -0.00026 0.0
C515 C 0.50775 0.47186 0.01826 0.0
Dy516 Dy 0.77621 0.2713 0.27571 0.0
C517 C 0.68537 0.22314 0.22825 0.0
C518 C 0.81857 0.29051 0.30185 0.0
Dy519 Dy 0.72498 0.24087 0.25899 0.0
O520 O 0.81374 0.29433 0.27975 0.0
O521 O 0.8 0.27668 0.30985 0.0
O522 O 0.7848 0.27397 0.23673 0.0
O523 O 0.7607 0.24316 0.24622 0.0
C524 C 0.76934 0.25358 0.22877 0.0
C525 C 0.73155 0.25825 0.30611 0.0
O526 O 0.74281 0.20865 0.26404 0.0
O527 O 0.77763 0.23237 0.28504 0.0
O528 O 0.68601 0.22201 0.25148 0.0
O529 O 0.70644 0.23338 0.222 0.0
O530 O 0.71578 0.23811 0.29774 0.0
O531 O 0.74051 0.26868 0.28872 0.0
O532 O 0.75754 0.30348 0.27269 0.0
O533 O 0.72337 0.2801 0.25056 0.0
C534 C 0.76347 0.21037 0.27688 0.0
C535 C 0.73712 0.30204 0.25955 0.0
Dy536 Dy 0.00617 0.51929 0.53137 0.0
C537 C 0.01194 0.50257 0.42853 0.0
C538 C -0.00342 0.52703 0.57864 0.0
Dy539 Dy 0.0036 0.51616 0.47519 0.0
O540 O 0.00722 0.54432 0.56641 0.0
O541 O -0.00812 0.5055 0.56524 0.0
O542 O 0.02715 0.48839 0.52959 0.0
O543 O 0.00146 0.48946 0.50142 0.0
C544 C 0.01779 0.47853 0.50815 0.0
C545 C -0.0062 0.55817 0.49847 0.0
O546 O 0.96729 0.49486 0.48058 0.0
O547 O 0.96663 0.51314 0.5201 0.0
O548 O -0.00396 0.51578 0.43525 0.0
O549 O 0.02327 0.49707 0.4472 0.0
O550 O 0.98531 0.54975 0.47642 0.0
O551 O 0.00861 0.54554 0.50496 0.0
O552 O 0.04349 0.53999 0.52726 0.0
O553 O 0.04302 0.52998 0.48536 0.0
C554 C 0.95552 0.50038 0.49979 0.0
C555 C 0.05437 0.53975 0.5066 0.0
Dy556 Dy 0.73955 0.76423 0.25921 0.0
C557 C 0.84026 0.77344 0.24413 0.0
C558 C 0.69409 0.76118 0.27401 0.0
Dy559 Dy 0.79356 0.76388 0.25613 0.0
O560 O 0.70117 0.74363 0.26011 0.0
O561 O 0.71161 0.78036 0.27926 0.0
O562 O 0.74331 0.79736 0.23858 0.0
O563 O 0.77241 0.79301 0.26139 0.0
C564 C 0.76582 0.80567 0.24572 0.0
C565 C 0.76672 0.72104 0.26691 0.0
O566 O 0.79266 0.78379 0.29338 0.0
O567 O 0.75353 0.76388 0.29735 0.0
O568 O 0.83226 0.76006 0.26099 0.0
O569 O 0.82282 0.7817 0.23402 0.0
O570 O 0.78945 0.72807 0.2738 0.0
O571 O 0.76088 0.73556 0.2529 0.0
O572 O 0.73778 0.74737 0.22077 0.0
O573 O 0.77933 0.75529 0.21696 0.0
C574 C 0.77447 0.77703 0.30701 0.0
C575 C 0.75676 0.74803 0.20749 0.0
Dy576 Dy 0.74987 0.25796 0.71636 0.0
C577 C 0.76073 0.25307 0.81792 0.0
C578 C 0.74917 0.26493 0.66879 0.0
Dy579 Dy 0.74849 0.26272 0.773 0.0
O580 O 0.73042 0.25594 0.68 0.0
O581 O 0.76827 0.2698 0.68349 0.0
O582 O 0.77505 0.23052 0.71859 0.0
O583 O 0.77471 0.25891 0.74672 0.0
C584 C 0.78316 0.23984 0.74055 0.0
C585 C 0.7162 0.28321 0.75091 0.0
O586 O 0.77645 0.296 0.76762 0.0
O587 O 0.76255 0.29924 0.72857 0.0
O588 O 0.76357 0.23973 0.7979 0.0
O589 O 0.75025 0.27148 0.81362 0.0
O590 O 0.72351 0.29018 0.77361 0.0
O591 O 0.72384 0.26389 0.74298 0.0
O592 O 0.72278 0.22328 0.71924 0.0
O593 O 0.72616 0.22403 0.7613 0.0
C594 C 0.77573 0.30881 0.74889 0.0
C595 C 0.7175 0.21305 0.73931 0.0
Dy596 Dy 0.7659 0.80535 0.76994 0.0
C597 C 0.76412 0.70156 0.76988 0.0
C598 C 0.76244 0.85425 0.77032 0.0
Dy599 Dy 0.75797 0.74732 0.75989 0.0
O600 O 0.76504 0.84329 0.78943 0.0
O601 O 0.76208 0.83854 0.75097 0.0
O602 O 0.78672 0.80359 0.805 0.0
O603 O 0.75795 0.77451 0.7911 0.0
C604 C 0.77444 0.78147 0.8076 0.0
C605 C 0.74902 0.76978 0.72141 0.0
O606 O 0.72219 0.75071 0.77326 0.0
O607 O 0.72543 0.79313 0.76951 0.0
O608 O 0.75089 0.70507 0.75136 0.0
O609 O 0.77414 0.72281 0.78207 0.0
O610 O 0.73892 0.74665 0.72352 0.0
O611 O 0.76506 0.77796 0.73826 0.0
O612 O 0.802 0.80292 0.75654 0.0
O613 O 0.79788 0.75966 0.75637 0.0
C614 C 0.7127 0.77101 0.77339 0.0
C615 C 0.81093 0.78216 0.75418 0.0
Dy616 Dy 0.47346 0.5143 0.49548 0.0
C617 C 0.57306 0.53579 0.52854 0.0
C618 C 0.42558 0.5106 0.4846 0.0
Dy619 Dy 0.52526 0.53133 0.51656 0.0
O620 O 0.44259 0.51818 0.47069 0.0
O621 O 0.43476 0.50445 0.50421 0.0
O622 O 0.48557 0.49025 0.46469 0.0
O623 O 0.50825 0.52365 0.48023 0.0
C624 C 0.50694 0.50433 0.4653 0.0
C625 C 0.49205 0.54229 0.54648 0.0
O626 O 0.5216 0.56524 0.49947 0.0
O627 O 0.47983 0.55641 0.49801 0.0
O628 O 0.55594 0.53075 0.54304 0.0
O629 O 0.56405 0.53879 0.50754 0.0
O630 O 0.51345 0.55618 0.54657 0.0
O631 O 0.49039 0.52249 0.53201 0.0
O632 O 0.47695 0.4798 0.51136 0.0
O633 O 0.51877 0.48921 0.51439 0.0
C634 C 0.50057 0.57185 0.49605 0.0
C635 C 0.49798 0.47338 0.51516 0.0
Dy636 Dy 0.03138 0.51947 0.01157 0.0
C637 C 0.9331 0.53302 0.00604 0.0
C638 C 0.07406 0.50376 0.014 0.0
Dy639 Dy 0.97643 0.51987 0.01363 0.0
O640 O 0.05967 0.50088 -0.00523 0.0
O641 O 0.06568 0.51629 0.03176 0.0
O642 O 0.03365 0.5431 0.981 0.0
O643 O 0.00153 0.51787 0.98553 0.0
C644 C 0.011 0.53521 0.9739 0.0
C645 C -0.00312 0.50449 0.05156 0.0
O646 O 0.97503 0.4827 0.9917 0.0
O647 O 0.0125 0.47909 0.00739 0.0
O648 O 0.93696 0.51637 0.01983 0.0
O649 O 0.95277 0.54219 -0.00366 0.0
O650 O 0.97416 0.49658 0.04482 0.0
O651 O 0.00603 0.52138 0.03938 0.0
O652 O 0.03523 0.55786 0.03114 0.0
O653 O -0.00543 0.56016 0.02607 0.0
C654 C -0.00836 0.46915 -0.00477 0.0
C655 C 0.01747 0.5705 0.03287 0.0
H656 H 0.98946 0.16523 0.87738 0.0
H657 H 0.96008 0.09779 0.99245 0.0
H658 H 0.96645 0.20677 0.93962 0.0
H659 H 0.02339 0.09103 0.95369 0.0
H660 H 0.95536 0.13351 0.97081 0.0
H661 H -0.00593 0.13199 0.90199 0.0
C662 C 0.98501 0.16717 0.89613 0.0
C663 C 0.97759 0.18874 0.90654 0.0
C664 C 0.97041 0.12431 0.96738 0.0
C665 C 0.98278 0.15088 0.93459 0.0
C666 C 0.97313 0.10405 0.97965 0.0
C667 C -0.0078 0.09159 0.97485 0.0
C668 C 0.98642 0.13145 0.94975 0.0
C669 C 0.00858 0.10029 0.95807 0.0
C670 C 0.98788 0.14836 0.91016 0.0
C671 C 0.97228 0.19041 0.93098 0.0
N672 N 0.00508 0.11945 0.94579 0.0
N673 N 0.97484 0.17158 0.94425 0.0
H674 H 0.12765 0.80545 0.13353 0.0
H675 H 0.20019 0.82179 0.26201 0.0
H676 H 0.10418 0.84281 0.19797 0.0
H677 H 0.19564 0.75813 0.20773 0.0
H678 H 0.17345 0.83904 0.23554 0.0
H679 H 0.16268 0.79884 0.15725 0.0
C680 C 0.13021 0.81288 0.1525 0.0
C681 C 0.11284 0.82432 0.16395 0.0
C682 C 0.17871 0.8215 0.22935 0.0
C683 C 0.15263 0.81674 0.19101 0.0
C684 C 0.1938 0.81162 0.24442 0.0
C685 C 0.20031 0.78867 0.2368 0.0
C686 C 0.17047 0.80843 0.2065 0.0
C687 C 0.1916 0.77619 0.21392 0.0
C688 C 0.15007 0.80892 0.16603 0.0
C689 C 0.11704 0.83358 0.18858 0.0
N690 N 0.17713 0.78624 0.19953 0.0
N691 N 0.13643 0.82935 0.20142 0.0
H692 H 0.45835 0.81812 0.41229 0.0
H693 H 0.5334 0.94386 0.48215 0.0
H694 H 0.52775 0.85356 0.39084 0.0
H695 H 0.45754 0.93934 0.46451 0.0
H696 H 0.53107 0.90359 0.45792 0.0
H697 H 0.45735 0.8564 0.43989 0.0
C698 C 0.47337 0.8339 0.4135 0.0
C699 C 0.49317 0.83283 0.39932 0.0
C700 C 0.5149 0.91134 0.45958 0.0
C701 C 0.49231 0.87587 0.4309 0.0
C702 C 0.51611 0.93428 0.47351 0.0
C703 C 0.49562 0.94517 0.4752 0.0
C704 C 0.49302 0.89888 0.44756 0.0
C705 C 0.47378 0.93169 0.46351 0.0
C706 C 0.4727 0.85562 0.42907 0.0
C707 C 0.51212 0.85372 0.40137 0.0
N708 N 0.47301 0.90911 0.45008 0.0
N709 N 0.51135 0.8743 0.41708 0.0
H710 H 0.46027 0.29894 0.66079 0.0
H711 H 0.37249 0.25443 0.76312 0.0
H712 H 0.48137 0.26124 0.71977 0.0
H713 H 0.35405 0.29775 0.7077 0.0
H714 H 0.4126 0.25677 0.74768 0.0
H715 H 0.42108 0.29817 0.67751 0.0
C716 C 0.45666 0.29043 0.67722 0.0
C717 C 0.47416 0.28012 0.68889 0.0
C718 C 0.39983 0.26588 0.73897 0.0
C719 C 0.42929 0.27928 0.70818 0.0
C720 C 0.377 0.2646 0.74781 0.0
C721 C 0.36005 0.27589 0.7366 0.0
C722 C 0.40562 0.27845 0.71872 0.0
C723 C 0.36667 0.28879 0.71683 0.0
C724 C 0.43428 0.29008 0.68681 0.0
C725 C 0.46844 0.26941 0.71016 0.0
N726 N 0.38894 0.28962 0.70843 0.0
N727 N 0.44648 0.26925 0.71911 0.0
H728 H 0.981 0.81697 0.55062 0.0
H729 H 0.0307 0.96439 0.55788 0.0
H730 H 0.01295 0.86439 0.61549 0.0
H731 H 0.97704 0.92505 0.50233 0.0
H732 H 0.0291 0.92575 0.57575 0.0
H733 H 0.9833 0.85451 0.52969 0.0
C734 C 0.98846 0.83523 0.56044 0.0
C735 C -0.00323 0.83758 0.58485 0.0
C736 C 0.0177 0.9255 0.55961 0.0
C737 C -0.00027 0.88031 0.56101 0.0
C738 C 0.01867 0.94759 0.54925 0.0
C739 C 0.00384 0.94811 0.52858 0.0
C740 C 0.00192 0.90354 0.54924 0.0
C741 C 0.98873 0.92557 0.51831 0.0
C742 C 0.98973 0.85659 0.54851 0.0
C743 C 0.00625 0.86167 0.59672 0.0
N744 N 0.98811 0.90414 0.52878 0.0
N745 N 0.00759 0.88202 0.58466 0.0
H746 H 0.47487 0.82022 0.82725 0.0
H747 H 0.33403 0.78025 0.8451 0.0
H748 H 0.44614 0.77235 0.88002 0.0
H749 H 0.36352 0.82177 0.78823 0.0
H750 H 0.37502 0.78247 0.86222 0.0
H751 H 0.43432 0.82562 0.81648 0.0
C752 C 0.46004 0.81084 0.83663 0.0
C753 C 0.46393 0.79557 0.85441 0.0
C754 C 0.3725 0.79137 0.84618 0.0
C755 C 0.41729 0.80178 0.84213 0.0
C756 C 0.34914 0.79025 0.8365 0.0
C757 C 0.34551 0.80068 0.81515 0.0
C758 C 0.39226 0.803 0.83436 0.0
C759 C 0.36561 0.81337 0.80466 0.0
C760 C 0.43685 0.81401 0.83049 0.0
C761 C 0.44397 0.78413 0.86607 0.0
N762 N 0.38815 0.81397 0.81425 0.0
N763 N 0.42147 0.78735 0.85961 0.0
H764 H 0.48924 0.20636 0.05379 0.0
H765 H 0.46684 0.0566 0.03295 0.0
H766 H 0.4747 0.15925 0.1107 0.0
H767 H 0.50292 0.10311 0.98265 0.0
H768 H 0.46234 0.09418 0.05887 0.0
H769 H 0.4866 0.16871 0.0247 0.0
C770 C 0.48508 0.18811 0.06011 0.0
C771 C 0.48237 0.18593 0.08475 0.0
C772 C 0.47116 0.09622 0.04213 0.0
C773 C 0.47942 0.14296 0.05164 0.0
C774 C 0.47384 0.07479 0.02739 0.0
C775 C 0.48568 0.07686 0.00591 0.0
C776 C 0.48017 0.11994 0.03523 0.0
C777 C 0.49385 0.10081 -0.00079 0.0
C778 C 0.48376 0.16668 0.04352 0.0
C779 C 0.47712 0.16182 0.09192 0.0
N780 N 0.49104 0.12152 0.01392 0.0
N781 N 0.47591 0.1413 0.07546 0.0
H782 H 0.11533 0.28139 0.38082 0.0
H783 H 0.17461 0.22896 0.26586 0.0
H784 H 0.07103 0.23307 0.32274 0.0
H785 H 0.19971 0.30444 0.30108 0.0
H786 H 0.13832 0.22596 0.28884 0.0
H787 H 0.14941 0.28521 0.35487 0.0
C788 C 0.11289 0.27133 0.36273 0.0
C789 C 0.09042 0.25686 0.35385 0.0
C790 C 0.15167 0.24326 0.29122 0.0
C791 C 0.12912 0.26117 0.32428 0.0
C792 C 0.17227 0.24501 0.27813 0.0
C793 C 0.19008 0.267 0.28158 0.0
C794 C 0.14932 0.26336 0.3083 0.0
C795 C 0.1863 0.28723 0.29774 0.0
C796 C 0.13221 0.27375 0.3479 0.0
C797 C 0.08811 0.24442 0.33019 0.0
N798 N 0.16649 0.28478 0.31086 0.0
N799 N 0.10732 0.24671 0.31621 0.0
H800 H 0.87954 0.02515 0.13788 0.0
H801 H 0.00045 0.07572 0.07516 0.0
H802 H 0.9428 0.06912 0.17887 0.0
H803 H 0.95279 0.00523 0.04986 0.0
H804 H 0.97567 0.08062 0.10991 0.0
H805 H 0.90223 0.0255 0.10139 0.0
C806 C 0.89808 0.03519 0.13913 0.0
C807 C 0.90941 0.04695 0.16144 0.0
C808 C 0.97059 0.06424 0.09656 0.0
C809 C 0.93529 0.04749 0.11988 0.0
C810 C 0.98467 0.06142 0.0768 0.0
C811 C 0.97846 0.04018 0.05952 0.0
C812 C 0.95005 0.04585 0.09875 0.0
C813 C 0.95794 0.02213 0.06252 0.0
C814 C 0.91102 0.03525 0.11837 0.0
C815 C 0.93349 0.05965 0.16204 0.0
N816 N 0.94437 0.02543 0.0817 0.0
N817 N 0.94568 0.05957 0.14154 0.0
H818 H 0.31456 0.68334 0.43478 0.0
H819 H 0.24785 0.77247 0.36689 0.0
H820 H 0.2738 0.73343 0.47158 0.0
H821 H 0.29575 0.72804 0.33382 0.0
H822 H 0.26189 0.76389 0.40681 0.0
H823 H 0.31393 0.70564 0.39944 0.0
C824 C 0.30593 0.69941 0.43556 0.0
C825 C 0.29383 0.70629 0.45585 0.0
C826 C 0.26954 0.75633 0.39081 0.0
C827 C 0.29232 0.73143 0.4153 0.0
C828 C 0.26144 0.76111 0.3681 0.0
C829 C 0.27027 0.75042 0.34718 0.0
C830 C 0.28649 0.74076 0.39234 0.0
C831 C 0.28808 0.73615 0.34956 0.0
C832 C 0.30548 0.71212 0.41536 0.0
C833 C 0.28315 0.72741 0.45612 0.0
N834 N 0.29542 0.73153 0.37171 0.0
N835 N 0.28212 0.73891 0.43586 0.0
H836 H 0.5502 0.93639 0.66076 0.0
H837 H 0.54862 0.02569 0.56164 0.0
H838 H 0.61501 0.98072 0.63798 0.0
H839 H 0.49028 0.96275 0.56433 0.0
H840 H 0.57365 0.00761 0.58837 0.0
H841 H 0.52852 0.94225 0.62376 0.0
C842 C 0.56001 0.9468 0.64764 0.0
C843 C 0.58425 0.95863 0.65264 0.0
C844 C 0.55551 -0.00251 0.58289 0.0
C845 C 0.55953 0.96578 0.6107 0.0
C846 C 0.54124 0.00781 0.56763 0.0
C847 C 0.51757 -0.00453 0.5606 0.0
C848 C 0.54578 0.975 0.59181 0.0
C849 C 0.5085 0.97282 0.56948 0.0
C850 C 0.54761 0.95016 0.62656 0.0
C851 C 0.59622 0.97161 0.63497 0.0
N852 N 0.52259 0.96337 0.58492 0.0
N853 N 0.58357 0.97536 0.615 0.0
H854 H 0.24245 0.31831 0.95602 0.0
H855 H 0.2972 0.32468 0.82648 0.0
H856 H 0.26555 0.38792 0.92644 0.0
H857 H 0.24223 0.26301 0.84155 0.0
H858 H 0.29475 0.34561 0.86745 0.0
H859 H 0.25077 0.29536 0.91783 0.0
C860 C 0.24937 0.32875 0.94156 0.0
C861 C 0.25306 0.35503 0.94428 0.0
C862 C 0.28349 0.32734 0.86182 0.0
C863 C 0.2631 0.32902 0.90099 0.0
C864 C 0.28503 0.31533 0.83859 0.0
C865 C 0.2698 0.29219 0.83068 0.0
C866 C 0.26698 0.31583 0.87727 0.0
C867 C 0.25415 0.28096 0.84696 0.0
C868 C 0.25409 0.31567 0.91984 0.0
C869 C 0.26214 0.36764 0.92499 0.0
N870 N 0.25312 0.29289 0.8695 0.0
N871 N 0.26693 0.35453 0.90419 0.0
H872 H 0.95271 0.99313 0.28547 0.0
H873 H 0.9236 0.01314 0.42428 0.0
H874 H 0.89345 0.02669 0.30977 0.0
H875 H 0.97584 0.97082 0.39729 0.0
H876 H 0.91075 0.01678 0.38257 0.0
H877 H 0.96086 0.98449 0.32651 0.0
C878 C 0.94147 -0.00116 0.29946 0.0
C879 C 0.92242 0.01079 0.29414 0.0
C880 C 0.9248 0.00641 0.38576 0.0
C881 C 0.93159 0.0007 0.34132 0.0
C882 C 0.93202 0.0042 0.40954 0.0
C883 C 0.95089 0.99179 0.41414 0.0
C884 C 0.9367 -0.00371 0.36658 0.0
C885 C 0.96128 0.98062 0.39448 0.0
C886 C 0.94604 0.99371 0.32291 0.0
C887 C 0.90838 0.01753 0.31305 0.0
N888 N 0.95423 0.98337 0.37155 0.0
N889 N 0.91331 0.01246 0.33584 0.0
H890 H 0.29591 0.70541 0.57941 0.0
H891 H 0.2461 0.71466 0.71134 0.0
H892 H 0.24511 0.64686 0.60623 0.0
H893 H 0.29989 0.77318 0.68859 0.0
H894 H 0.24526 0.69034 0.67212 0.0
H895 H 0.29818 0.73077 0.61881 0.0
C896 C 0.2854 0.69778 0.59362 0.0
C897 C 0.2702 0.67399 0.58949 0.0
C898 C 0.25725 0.7085 0.67555 0.0
C899 C 0.27258 0.70298 0.63437 0.0
C900 C 0.25763 0.7225 0.69795 0.0
C901 C 0.27306 0.74598 0.70314 0.0
C902 C 0.27247 0.71796 0.65811 0.0
C903 C 0.28771 0.75513 0.68519 0.0
C904 C 0.28665 0.71232 0.61604 0.0
C905 C 0.257 0.6651 0.60852 0.0
N906 N 0.28711 0.74103 0.66336 0.0
N907 N 0.25843 0.67964 0.63006 0.0
H908 H 0.51481 0.99436 0.76992 0.0
H909 H 0.53151 0.96307 0.90509 0.0
H910 H 0.57345 0.96274 0.79676 0.0
H911 H 0.4792 0.00485 0.88213 0.0
H912 H 0.54173 0.95522 0.86323 0.0
H913 H 0.49671 0.99127 0.80875 0.0
C914 C 0.52379 0.98659 0.78389 0.0
C915 C 0.54587 0.97914 0.78022 0.0
C916 C 0.52782 0.96587 0.86726 0.0
C917 C 0.52521 0.9755 0.82457 0.0
C918 C 0.52196 0.97031 0.89112 0.0
C919 C 0.50479 0.98494 0.89695 0.0
C920 C 0.51652 0.97631 0.84919 0.0
C921 C 0.49272 0.99366 0.87827 0.0
C922 C 0.51343 0.98482 0.80603 0.0
C923 C 0.55659 0.96903 0.79889 0.0
N924 N 0.49905 0.98948 0.85516 0.0
N925 N 0.54623 0.96768 0.82032 0.0
H926 H 0.22233 0.30504 0.07302 0.0
H927 H 0.27471 0.31237 0.20957 0.0
H928 H 0.26886 0.37063 0.11167 0.0
H929 H 0.21602 0.25402 0.1774 0.0
H930 H 0.2742 0.3329 0.173 0.0
H931 H 0.22161 0.28457 0.10997 0.0
C932 C 0.23249 0.31507 0.08922 0.0
C933 C 0.24569 0.33957 0.08925 0.0
C934 C 0.26129 0.31571 0.17395 0.0
C935 C 0.24489 0.31632 0.13154 0.0
C936 C 0.26146 0.30407 0.19492 0.0
C937 C 0.2452 0.28162 0.19662 0.0
C938 C 0.24492 0.30468 0.15434 0.0
C939 C 0.2288 0.27139 0.17685 0.0
C940 C 0.23197 0.30344 0.11033 0.0
C941 C 0.25843 0.35174 0.1108 0.0
N942 N 0.22915 0.28294 0.15645 0.0
N943 N 0.25775 0.33998 0.13102 0.0
H944 H 0.19643 0.97164 0.04199 0.0
H945 H 0.08579 -0.00222 0.96552 0.0
H946 H 0.14519 0.91329 -0.00157 0.0
H947 H 0.10146 0.03426 0.03878 0.0
H948 H 0.1176 0.97424 0.9714 0.0
H949 H 0.1695 0.00119 0.03643 0.0
C950 C 0.1794 0.96505 0.03151 0.0
C951 C 0.17283 0.94008 0.02073 0.0
C952 C 0.11431 0.98775 0.986 0.0
C953 C 0.14292 0.97364 0.0136 0.0
C954 C 0.09639 0.00135 0.98262 0.0
C955 C 0.09085 0.01763 0.00186 0.0
C956 C 0.12693 0.9908 0.0086 0.0
C957 C 0.10516 0.02168 0.02361 0.0
C958 C 0.16424 0.98186 0.0283 0.0
C959 C 0.15076 0.93235 0.00721 0.0
N960 N 0.12255 0.00807 0.02654 0.0
N961 N 0.1367 0.94921 0.00373 0.0
H962 H 0.68501 0.57597 0.94958 0.0
H963 H 0.55903 0.57253 0.00877 0.0
H964 H 0.66265 0.64207 0.98317 0.0
H965 H 0.57383 0.51102 0.96005 0.0
H966 H 0.598 0.59756 0.0014 0.0
H967 H 0.64489 0.55144 0.95383 0.0
C968 C 0.67152 0.58538 0.95756 0.0
C969 C 0.67715 0.61104 0.96617 0.0
C970 C 0.59274 0.5786 0.9923 0.0
C971 C 0.63143 0.58303 0.97147 0.0
C972 C 0.57059 0.56424 -0.00336 0.0
C973 C 0.56325 0.53971 0.98494 0.0
C974 C 0.60775 0.56828 0.97632 0.0
C975 C 0.57888 0.52988 0.96941 0.0
C976 C 0.64867 0.57135 0.96003 0.0
C977 C 0.65904 0.62232 0.97629 0.0
N978 N 0.60045 0.54421 0.96555 0.0
N979 N 0.63703 0.60816 0.97892 0.0
H980 H 0.70928 0.45372 0.27902 0.0
H981 H 0.69329 0.30595 0.23939 0.0
H982 H 0.64071 0.40423 0.25847 0.0
H983 H 0.75831 0.3508 0.27669 0.0
H984 H 0.67546 0.34319 0.24139 0.0
H985 H 0.72896 0.41743 0.27425 0.0
C986 C 0.69836 0.43524 0.27356 0.0
C987 C 0.67329 0.432 0.26924 0.0
C988 C 0.69368 0.34492 0.24903 0.0
C989 C 0.69571 0.3905 0.26344 0.0
C990 C 0.70397 0.32366 0.24778 0.0
C991 C 0.72735 0.32513 0.25802 0.0
C992 C 0.70683 0.36797 0.26049 0.0
C993 C 0.74021 0.34871 0.26863 0.0
C994 C 0.70961 0.41455 0.27082 0.0
C995 C 0.66005 0.40762 0.26212 0.0
N996 N 0.72976 0.36918 0.26966 0.0
N997 N 0.67142 0.38787 0.25938 0.0
H998 H 0.8077 0.44141 0.5261 0.0
H999 H 0.92537 0.48867 0.4591 0.0
H1000 H 0.80518 0.46979 0.45704 0.0
H1001 H 0.92579 0.4945 0.53703 0.0
H1002 H 0.88148 0.47612 0.45682 0.0
H1003 H 0.85154 0.45557 0.52939 0.0
C1004 C 0.81637 0.45063 0.51165 0.0
C1005 C 0.80286 0.45443 0.49124 0.0
C1006 C 0.89122 0.48021 0.4744 0.0
C1007 C 0.85275 0.47032 0.49481 0.0
C1008 C 0.91622 0.4872 0.47573 0.0
C1009 C 0.92915 0.49257 0.4983 0.0
C1010 C 0.87915 0.47817 0.49576 0.0
C1011 C 0.91643 0.49059 0.51927 0.0
C1012 C 0.84131 0.45878 0.51361 0.0
C1013 C 0.81494 0.46658 0.47311 0.0
N1014 N 0.89205 0.48334 0.5175 0.0
N1015 N 0.83929 0.47392 0.47522 0.0
H1016 H 0.34845 0.10267 0.30907 0.0
H1017 H 0.25352 0.15089 0.23033 0.0
H1018 H 0.30734 0.05553 0.24834 0.0
H1019 H 0.27926 0.18437 0.30275 0.0
H1020 H 0.26889 0.1132 0.2379 0.0
H1021 H 0.31973 0.13055 0.30899 0.0
C1022 C 0.33314 0.09805 0.29594 0.0
C1023 C 0.33036 0.07706 0.27851 0.0
C1024 C 0.27064 0.1286 0.25229 0.0
C1025 C 0.2977 0.10905 0.27789 0.0
C1026 C 0.26188 0.15001 0.24795 0.0
C1027 C 0.26573 0.17079 0.26576 0.0
C1028 C 0.28332 0.12834 0.27448 0.0
C1029 C 0.27649 0.16887 0.28835 0.0
C1030 C 0.31668 0.11389 0.29591 0.0
C1031 C 0.31012 0.07169 0.26201 0.0
N1032 N 0.28524 0.14819 0.29195 0.0
N1033 N 0.29478 0.08793 0.26174 0.0
H1034 H 0.29221 0.05429 0.51389 0.0
H1035 H 0.42772 0.06996 0.47383 0.0
H1036 H 0.32589 0.11424 0.47493 0.0
H1037 H 0.39587 0.01453 0.51843 0.0
H1038 H 0.38974 0.08482 0.47173 0.0
H1039 H 0.32932 0.03808 0.51368 0.0
C1040 C 0.30741 0.06408 0.50527 0.0
C1041 C 0.30592 0.08573 0.49445 0.0
C1042 C 0.39101 0.06936 0.48191 0.0
C1043 C 0.34854 0.06714 0.49413 0.0
C1044 C 0.41264 0.06085 0.48307 0.0
C1045 C 0.41484 0.04108 0.49639 0.0
C1046 C 0.37148 0.05797 0.49416 0.0
C1047 C 0.39485 0.02986 0.508 0.0
C1048 C 0.32861 0.05477 0.50517 0.0
C1049 C 0.32623 0.09755 0.48355 0.0
N1050 N 0.37398 0.03852 0.50667 0.0
N1051 N 0.34672 0.08808 0.48367 0.0
H1052 H 0.70379 0.56752 0.28764 0.0
H1053 H 0.72021 0.70478 0.25061 0.0
H1054 H 0.64497 0.60535 0.27518 0.0
H1055 H 0.77725 0.68342 0.292 0.0
H1056 H 0.69343 0.66606 0.25681 0.0
H1057 H 0.73223 0.60772 0.28764 0.0
C1058 C 0.69684 0.58422 0.28518 0.0
C1059 C 0.67195 0.58295 0.28107 0.0
C1060 C 0.71172 0.66984 0.26479 0.0
C1061 C 0.70421 0.62857 0.28083 0.0
C1062 C 0.72701 0.69203 0.2613 0.0
C1063 C 0.75082 0.69748 0.27114 0.0
C1064 C 0.72036 0.65257 0.27784 0.0
C1065 C 0.75889 0.67991 0.28427 0.0
C1066 C 0.71305 0.60709 0.2852 0.0
C1067 C 0.66395 0.60521 0.27808 0.0
N1068 N 0.74369 0.65802 0.28713 0.0
N1069 N 0.68001 0.62694 0.27777 0.0
H1070 H 0.83399 0.46579 0.74861 0.0
H1071 H 0.81814 0.32577 0.77573 0.0
H1072 H 0.89592 0.43282 0.76169 0.0
H1073 H 0.76966 0.34785 0.72434 0.0
H1074 H 0.84507 0.36669 0.77664 0.0
H1075 H 0.80812 0.42413 0.74519 0.0
C1076 C 0.84212 0.44974 0.75077 0.0
C1077 C 0.86708 0.45265 0.75551 0.0
C1078 C 0.82856 0.36249 0.76515 0.0
C1079 C 0.83761 0.40522 0.75194 0.0
C1080 C 0.8131 0.33931 0.76477 0.0
C1081 C 0.79163 0.33358 0.75001 0.0
C1082 C 0.82218 0.38016 0.7511 0.0
C1083 C 0.78608 0.35161 0.73593 0.0
C1084 C 0.82738 0.42604 0.74868 0.0
C1085 C 0.87675 0.43128 0.75796 0.0
N1086 N 0.80118 0.37428 0.73701 0.0
N1087 N 0.86191 0.40838 0.75645 0.0
H1088 H 0.03993 0.84101 0.05334 0.0
H1089 H 0.9583 0.94133 0.03219 0.0
H1090 H -0.00835 0.86415 0.1053 0.0
H1091 H 0.02742 0.94317 0.00176 0.0
H1092 H 0.96364 0.90459 0.05147 0.0
H1093 H 0.02886 0.87062 0.02706 0.0
C1094 C 0.0268 0.8521 0.05907 0.0
C1095 C 0.01684 0.85039 0.08159 0.0
C1096 C 0.97745 0.91289 0.0403 0.0
C1097 C 0.00395 0.8838 0.05162 0.0
C1098 C 0.97437 0.93372 0.02917 0.0
C1099 C -0.00742 0.94545 0.01558 0.0
C1100 C -0.0013 0.90357 0.03752 0.0
C1101 C 0.01307 0.93485 0.01233 0.0
C1102 C 0.02056 0.86897 0.04413 0.0
C1103 C -7e-05 0.86515 0.08818 0.0
N1104 N 0.01565 0.91453 0.02334 0.0
N1105 N -0.00599 0.88127 0.07325 0.0
H1106 H 0.92401 0.28508 0.78991 0.0
H1107 H 0.81167 0.20565 0.72687 0.0
H1108 H 0.9108 0.21466 0.81998 0.0
H1109 H 0.80407 0.26414 0.78315 0.0
H1110 H 0.85155 0.20474 0.74622 0.0
H1111 H 0.88335 0.2744 0.77045 0.0
C1112 C 0.91271 0.26724 0.79219 0.0
C1113 C 0.9207 0.2508 0.80673 0.0
C1114 C 0.8406 0.21715 0.75449 0.0
C1115 C 0.87463 0.23847 0.78412 0.0
C1116 C 0.81805 0.21774 0.74352 0.0
C1117 C 0.80469 0.23508 0.75338 0.0
C1118 C 0.84946 0.23409 0.7751 0.0
C1119 C 0.81372 0.25048 0.77492 0.0
C1120 C 0.88965 0.2612 0.78103 0.0
C1121 C 0.90518 0.22794 0.80909 0.0
N1122 N 0.83575 0.24995 0.78481 0.0
N1123 N 0.88263 0.22241 0.79793 0.0
H1124 H 0.56835 0.20226 0.63073 0.0
H1125 H 0.49452 0.1075 0.52288 0.0
H1126 H 0.51694 0.22339 0.58171 0.0
H1127 H 0.56146 0.09623 0.55541 0.0
H1128 H 0.50129 0.14933 0.54561 0.0
H1129 H 0.56491 0.16237 0.60483 0.0
C1130 C 0.55638 0.19854 0.61452 0.0
C1131 C 0.54283 0.21614 0.60844 0.0
C1132 C 0.5146 0.13779 0.54761 0.0
C1133 C 0.53875 0.17057 0.57887 0.0
C1134 C 0.51072 0.11389 0.5347 0.0
C1135 C 0.52742 0.09834 0.53733 0.0
C1136 C 0.53512 0.14606 0.56358 0.0
C1137 C 0.54816 0.10764 0.55279 0.0
C1138 C 0.55453 0.17584 0.5997 0.0
C1139 C 0.52772 0.21039 0.58713 0.0
N1140 N 0.55131 0.13082 0.56556 0.0
N1141 N 0.52594 0.18801 0.57323 0.0
H1142 H 0.58155 0.77561 0.37079 0.0
H1143 H 0.65403 0.7242 0.26267 0.0
H1144 H 0.54645 0.72643 0.30817 0.0
H1145 H 0.68134 0.79277 0.30992 0.0
H1146 H 0.61573 0.72032 0.28239 0.0
H1147 H 0.6202 0.77732 0.35218 0.0
C1148 C 0.58203 0.76505 0.35323 0.0
C1149 C 0.56084 0.75102 0.34088 0.0
C1150 C 0.63012 0.73623 0.28834 0.0
C1151 C 0.60472 0.7528 0.31965 0.0
C1152 C 0.65187 0.73845 0.27711 0.0
C1153 C 0.67064 0.7589 0.28464 0.0
C1154 C 0.62745 0.7544 0.30741 0.0
C1155 C 0.66716 0.77681 0.3035 0.0
C1156 C 0.604 0.76612 0.34259 0.0
C1157 C 0.56239 0.73766 0.31818 0.0
N1158 N 0.64598 0.77408 0.31435 0.0
N1159 N 0.58399 0.73886 0.30827 0.0
H1160 H 0.98021 0.1803 0.40617 0.0
H1161 H 0.01454 0.11452 0.51981 0.0
H1162 H 0.02617 0.21962 0.46772 0.0
H1163 H 0.9671 0.07654 0.45868 0.0
H1164 H 0.01527 0.15428 0.50354 0.0
H1165 H 0.97163 0.14331 0.42744 0.0
C1166 C 0.98834 0.18123 0.42426 0.0
C1167 C 0.00413 0.203 0.43509 0.0
C1168 C 0.00449 0.13727 0.49384 0.0
C1169 C -0.00548 0.1606 0.45953 0.0
C1170 C 0.004 0.11454 0.50317 0.0
C1171 C -0.009 0.09204 0.49046 0.0
C1172 C -0.00805 0.1375 0.47163 0.0
C1173 C 0.97765 0.09331 0.469 0.0
C1174 C 0.98343 0.16008 0.43642 0.0
C1175 C 0.014 0.20317 0.45863 0.0
N1176 N 0.97867 0.11558 0.46016 0.0
N1177 N 0.00923 0.18219 0.46997 0.0
H1178 H 0.58799 0.25353 0.1185 0.0
H1179 H 0.63885 0.21345 0.24108 0.0
H1180 H 0.55287 0.25552 0.1858 0.0
H1181 H 0.68192 0.22717 0.18013 0.0
H1182 H 0.60364 0.21942 0.21729 0.0
H1183 H 0.61981 0.23627 0.13781 0.0
C1184 C 0.58699 0.25037 0.13729 0.0
C1185 C 0.56792 0.25619 0.15063 0.0
C1186 C 0.62072 0.22074 0.20899 0.0
C1187 C 0.6038 0.23611 0.17258 0.0
C1188 C 0.64073 0.2171 0.22249 0.0
C1189 C 0.66328 0.22021 0.21261 0.0
C1190 C 0.6234 0.22757 0.18553 0.0
C1191 C 0.66482 0.22491 0.18845 0.0
C1192 C 0.60504 0.24041 0.14824 0.0
C1193 C 0.56736 0.25154 0.17487 0.0
N1194 N 0.64518 0.22882 0.17579 0.0
N1195 N 0.58503 0.24181 0.18505 0.0
H1196 H 0.58209 0.87244 0.91251 0.0
H1197 H 0.50147 0.94793 0.96875 0.0
H1198 H 0.5307 0.83344 0.95729 0.0
H1199 H 0.56922 0.96857 0.01145 0.0
H1200 H 0.51362 0.90978 0.95101 0.0
H1201 H 0.58075 0.91206 0.93754 0.0
C1202 C 0.57104 0.87207 0.92792 0.0
C1203 C 0.55617 0.84964 0.93258 0.0
C1204 C 0.5258 0.9228 0.96419 0.0
C1205 C 0.5547 0.89456 0.96088 0.0
C1206 C 0.51901 0.94455 0.97424 0.0
C1207 C 0.53439 0.96132 0.99165 0.0
C1208 C 0.54823 0.91796 0.97126 0.0
C1209 C 0.55689 0.95595 -0.00186 0.0
C1210 C 0.57045 0.89461 0.94219 0.0
C1211 C 0.5423 0.85026 0.95287 0.0
N1212 N 0.5633 0.93458 0.98781 0.0
N1213 N 0.54137 0.87251 0.96587 0.0
H1214 H 0.94364 0.74187 0.71228 0.0
H1215 H 0.83684 0.81725 0.72895 0.0
H1216 H 0.93103 0.79608 0.66508 0.0
H1217 H 0.84021 0.74897 0.75967 0.0
H1218 H 0.87496 0.81485 0.71029 0.0
H1219 H 0.90917 0.74926 0.73431 0.0
C1220 C 0.93364 0.75539 0.7065 0.0
C1221 C 0.9402 0.76827 0.68664 0.0
C1222 C 0.8674 0.80057 0.7213 0.0
C1223 C 0.90051 0.77685 0.71205 0.0
C1224 C 0.84581 0.80203 0.73212 0.0
C1225 C 0.83536 0.7832 0.74577 0.0
C1226 C 0.87862 0.78032 0.72446 0.0
C1227 C 0.84756 0.76377 0.74913 0.0
C1228 C 0.9139 0.75957 0.71915 0.0
C1229 C 0.92649 0.7856 0.68016 0.0
N1230 N 0.8685 0.76281 0.73849 0.0
N1231 N 0.90721 0.78939 0.69285 0.0
H1232 H 0.08695 0.04092 0.84395 0.0
H1233 H 0.98961 0.96226 0.91865 0.0
H1234 H 0.06636 0.9606 0.82759 0.0
H1235 H 0.03019 0.03637 0.94424 0.0
H1236 H 0.01626 0.96019 0.88484 0.0
H1237 H 0.0654 0.03886 0.88081 0.0
C1238 C 0.07816 0.02277 0.84847 0.0
C1239 C 0.07851 0.0009 0.83301 0.0
C1240 C 0.0194 0.97673 0.89807 0.0
C1241 C 0.05313 -0.00168 0.8748 0.0
C1242 C 0.00416 0.97796 0.91722 0.0
C1243 C 0.00768 -0.00046 0.93416 0.0
C1244 C 0.03795 -0.00264 0.89587 0.0
C1245 C 0.02681 0.01935 0.93162 0.0
C1246 C 0.0658 0.02155 0.86946 0.0
C1247 C 0.06665 0.97782 0.83936 0.0
N1248 N 0.04105 0.01784 0.9128 0.0
N1249 N 0.05408 0.97712 0.85972 0.0
H1250 H 0.7754 0.36503 0.56321 0.0
H1251 H 0.70989 0.25916 0.63722 0.0
H1252 H 0.70258 0.32441 0.54456 0.0
H1253 H 0.78622 0.28993 0.64605 0.0
H1254 H 0.70749 0.27983 0.60077 0.0
H1255 H 0.78048 0.33532 0.59153 0.0
C1256 C 0.76052 0.34976 0.56499 0.0
C1257 C 0.73843 0.34734 0.55178 0.0
C1258 C 0.72484 0.28171 0.61044 0.0
C1259 C 0.74407 0.31332 0.58419 0.0
C1260 C 0.72621 0.26988 0.63118 0.0
C1261 C 0.74822 0.27315 0.64469 0.0
C1262 C 0.7456 0.29711 0.60345 0.0
C1263 C 0.76886 0.28715 0.63618 0.0
C1264 C 0.76346 0.33272 0.58108 0.0
C1265 C 0.71984 0.32705 0.55456 0.0
N1266 N 0.76699 0.29895 0.61627 0.0
N1267 N 0.72298 0.31097 0.57071 0.0
H1268 H 0.48536 0.05263 0.31953 0.0
H1269 H 0.46922 0.02004 0.45023 0.0
H1270 H 0.41544 0.04286 0.34919 0.0
H1271 H 0.53463 0.06784 0.43302 0.0
H1272 H 0.44913 0.02779 0.41321 0.0
H1273 H 0.50426 0.05821 0.36051 0.0
C1274 C 0.47402 0.05194 0.33472 0.0
C1275 C 0.44882 0.04693 0.33105 0.0
C1276 C 0.46774 0.03699 0.41774 0.0
C1277 C 0.47024 0.053 0.37772 0.0
C1278 C 0.47922 0.0326 0.43888 0.0
C1279 C 0.50355 0.04349 0.4447 0.0
C1280 C 0.48092 0.05169 0.40195 0.0
C1281 C 0.51583 0.05912 0.42909 0.0
C1282 C 0.48481 0.0553 0.35805 0.0
C1283 C 0.43493 0.04654 0.35129 0.0
N1284 N 0.50447 0.06243 0.40811 0.0
N1285 N 0.44583 0.04902 0.37382 0.0
H1286 H 0.77451 0.70253 0.05617 0.0
H1287 H 0.71518 0.72134 0.18308 0.0
H1288 H 0.71047 0.65397 0.07549 0.0
H1289 H 0.78942 0.75291 0.17253 0.0
H1290 H 0.71009 0.70264 0.14083 0.0
H1291 H 0.7771 0.7271 0.09615 0.0
C1292 C 0.76089 0.69718 0.06871 0.0
C1293 C 0.74238 0.67603 0.06258 0.0
C1294 C 0.72745 0.7138 0.14775 0.0
C1295 C 0.74516 0.70407 0.10812 0.0
C1296 C 0.73036 0.72457 0.17185 0.0
C1297 C 0.75284 0.73851 0.18145 0.0
C1298 C 0.74709 0.71716 0.13307 0.0
C1299 C 0.77184 0.74207 0.16597 0.0
C1300 C 0.76243 0.71114 0.09151 0.0
C1301 C 0.72521 0.66995 0.07953 0.0
N1302 N 0.76856 0.73138 0.14254 0.0
N1303 N 0.72703 0.68387 0.10151 0.0
H1304 H 0.07167 0.0093 0.71126 0.0
H1305 H 0.08995 0.03489 0.57602 0.0
H1306 H 0.14013 0.00988 0.67979 0.0
H1307 H 0.03498 0.06035 0.61786 0.0
H1308 H 0.10928 0.02582 0.6132 0.0
H1309 H 0.05749 0.0265 0.67615 0.0
C1310 C 0.08369 0.01291 0.69689 0.0
C1311 C 0.1071 0.00806 0.69839 0.0
C1312 C 0.09327 0.03386 0.6143 0.0
C1313 C 0.09098 0.0279 0.65818 0.0
C1314 C 0.08232 0.03916 0.59314 0.0
C1315 C 0.06078 0.04819 0.59394 0.0
C1316 C 0.08229 0.03721 0.63623 0.0
C1317 C 0.05155 0.05334 0.61648 0.0
C1318 C 0.07566 0.02299 0.67696 0.0
C1319 C 0.12193 0.01329 0.67929 0.0
N1320 N 0.06212 0.04733 0.63671 0.0
N1321 N 0.11356 0.02278 0.65985 0.0
H1322 H 0.72189 0.3887 0.3963 0.0
H1323 H 0.70193 0.24672 0.34298 0.0
H1324 H 0.70579 0.33296 0.44544 0.0
H1325 H 0.75901 0.3035 0.32258 0.0
H1326 H 0.69612 0.27622 0.37808 0.0
H1327 H 0.72638 0.35575 0.3646 0.0
C1328 C 0.7189 0.36949 0.40035 0.0
C1329 C 0.71366 0.36359 0.42362 0.0
C1330 C 0.71007 0.28191 0.36598 0.0
C1331 C 0.71887 0.32591 0.38741 0.0
C1332 C 0.71348 0.26515 0.34613 0.0
C1333 C 0.73073 0.27289 0.32974 0.0
C1334 C 0.7237 0.30646 0.36889 0.0
C1335 C 0.74525 0.29692 0.33456 0.0
C1336 C 0.7217 0.35077 0.38231 0.0
C1337 C 0.71004 0.3383 0.42777 0.0
N1338 N 0.74111 0.31301 0.35344 0.0
N1339 N 0.71273 0.32026 0.40977 0.0
H1340 H 0.44455 0.07937 0.20989 0.0
H1341 H 0.47116 0.99037 0.09759 0.0
H1342 H 0.39315 0.01352 0.17868 0.0
H1343 H 0.49608 0.07043 0.10122 0.0
H1344 H 0.44796 -0.00283 0.13284 0.0
H1345 H 0.46809 0.07581 0.1741 0.0
C1346 C 0.43806 0.06443 0.19531 0.0
C1347 C 0.41696 0.04668 0.19713 0.0
C1348 C 0.45863 0.01321 0.12597 0.0
C1349 C 0.44399 0.04212 0.15694 0.0
C1350 C 0.47208 0.00936 0.1061 0.0
C1351 C 0.48546 0.02991 0.0966 0.0
C1352 C 0.45892 0.03773 0.13658 0.0
C1353 C 0.48595 0.05414 0.10815 0.0
C1354 C 0.45148 0.06241 0.17504 0.0
C1355 C 0.40926 0.02764 0.17789 0.0
N1356 N 0.47282 0.05744 0.12769 0.0
N1357 N 0.42303 0.0256 0.15871 0.0
H1358 H 0.76781 0.66227 0.89576 0.0
H1359 H 0.80747 0.79369 0.84692 0.0
H1360 H 0.78596 0.72962 0.94667 0.0
H1361 H 0.74654 0.73747 0.8157 0.0
H1362 H 0.81041 0.76886 0.8809 0.0
H1363 H 0.77216 0.68804 0.86255 0.0
C1364 C 0.77313 0.68245 0.89998 0.0
C1365 C 0.77625 0.69385 0.92403 0.0
C1366 C 0.79661 0.76203 0.86639 0.0
C1367 C 0.7814 0.72329 0.88611 0.0
C1368 C 0.79491 0.7761 0.8471 0.0
C1369 C 0.77701 0.76737 0.82829 0.0
C1370 C 0.78063 0.73898 0.86638 0.0
C1371 C 0.76097 0.74463 0.82951 0.0
C1372 C 0.77549 0.69709 0.88102 0.0
C1373 C 0.78316 0.72012 0.92837 0.0
N1374 N 0.76333 0.7311 0.84805 0.0
N1375 N 0.78544 0.73405 0.90953 0.0
H1376 H 0.82692 0.11588 0.01766 0.0
H1377 H 0.87924 0.00312 0.96204 0.0
H1378 H 0.77491 0.04911 0.98997 0.0
H1379 H 0.90237 0.03913 0.03438 0.0
H1380 H 0.843 0.02197 0.96418 0.0
H1381 H 0.8588 0.09132 0.01506 0.0
C1382 C 0.8223 0.09612 0.01082 0.0
C1383 C 0.79838 0.08437 0.00418 0.0
C1384 C 0.85594 0.02525 0.97961 0.0
C1385 C 0.83451 0.05654 0.00084 0.0
C1386 C 0.87644 0.01452 0.97846 0.0
C1387 C 0.8938 0.01985 -0.00203 0.0
C1388 C 0.85343 0.04168 0.00014 0.0
C1389 C 0.88951 0.03477 0.01884 0.0
C1390 C 0.84037 0.08216 0.00948 0.0
C1391 C 0.79322 0.05868 -0.00452 0.0
N1392 N 0.86998 0.04561 0.01919 0.0
N1393 N 0.81126 0.04552 0.99385 0.0
H1394 H 0.32927 0.40863 0.0268 0.0
H1395 H 0.42704 0.53649 0.04735 0.0
H1396 H 0.31036 0.48151 0.02883 0.0
H1397 H 0.44259 0.467 0.01344 0.0
H1398 H 0.38477 0.51569 0.04864 0.0
H1399 H 0.37207 0.42905 0.0306 0.0
C1400 C 0.33414 0.4289 0.02841 0.0
C1401 C 0.31637 0.44344 0.02731 0.0
C1402 C 0.39749 0.50505 0.04096 0.0
C1403 C 0.36488 0.46673 0.0317 0.0
C1404 C 0.42151 0.51687 0.0402 0.0
C1405 C 0.43813 0.50342 0.03017 0.0
C1406 C 0.39029 0.47955 0.03198 0.0
C1407 C 0.43021 0.47804 0.02118 0.0
C1408 C 0.35847 0.44049 0.03039 0.0
C1409 C 0.32356 0.46963 0.02936 0.0
N1410 N 0.4068 0.46685 0.02239 0.0
N1411 N 0.34729 0.48046 0.03144 0.0
H1412 H 0.29429 0.56827 0.74044 0.0
H1413 H 0.30655 0.71067 0.79945 0.0
H1414 H 0.35935 0.61308 0.77753 0.0
H1415 H 0.24356 0.66845 0.75663 0.0
H1416 H 0.32369 0.67292 0.79714 0.0
H1417 H 0.2733 0.60265 0.75133 0.0
C1418 C 0.30411 0.58525 0.75106 0.0
C1419 C 0.32868 0.58789 0.75788 0.0
C1420 C 0.306 0.67184 0.78847 0.0
C1421 C 0.30477 0.62733 0.77039 0.0
C1422 C 0.29612 0.6934 0.78986 0.0
C1423 C 0.27367 0.69289 0.77795 0.0
C1424 C 0.29339 0.64956 0.77503 0.0
C1425 C 0.26101 0.66986 0.76593 0.0
C1426 C 0.29211 0.60488 0.75726 0.0
C1427 C 0.34046 0.61028 0.77171 0.0
N1428 N 0.27116 0.6492 0.76456 0.0
N1429 N 0.32844 0.62918 0.77736 0.0
H1430 H 0.19507 0.60003 0.46288 0.0
H1431 H 0.07918 0.57744 0.54008 0.0
H1432 H 0.18404 0.65236 0.52327 0.0
H1433 H 0.08558 0.53448 0.4716 0.0
H1434 H 0.11833 0.60421 0.53558 0.0
H1435 H 0.15468 0.57586 0.46591 0.0
C1436 C 0.18388 0.60665 0.4765 0.0
C1437 C 0.19278 0.62809 0.49288 0.0
C1438 C 0.11113 0.58887 0.5216 0.0
C1439 C 0.14689 0.60025 0.49694 0.0
C1440 C 0.08898 0.57342 0.52431 0.0
C1441 C 0.07919 0.55376 0.50618 0.0
C1442 C 0.12349 0.58441 0.50072 0.0
C1443 C 0.09244 0.54952 0.48596 0.0
C1444 C 0.16091 0.5928 0.47834 0.0
C1445 C 0.1777 0.63595 0.51023 0.0
N1446 N 0.1139 0.56475 0.48378 0.0
N1447 N 0.1555 0.62178 0.51204 0.0
H1448 H 0.65178 0.93217 0.78016 0.0
H1449 H 0.761 0.88216 0.73307 0.0
H1450 H 0.69524 0.97123 0.72918 0.0
H1451 H 0.74443 0.87962 0.80769 0.0
H1452 H 0.73798 0.91549 0.73088 0.0
H1453 H 0.68546 0.91241 0.79062 0.0
C1454 C 0.6685 0.93675 0.77138 0.0
C1455 C 0.67074 0.95307 0.75363 0.0
C1456 C 0.73994 0.90809 0.7479 0.0
C1457 C 0.70899 0.93048 0.76523 0.0
C1458 C 0.75305 0.88913 0.74914 0.0
C1459 C 0.75431 0.87809 0.7705 0.0
C1460 C 0.72755 0.91535 0.76794 0.0
C1461 C 0.74372 0.88765 0.79086 0.0
C1462 C 0.68773 0.92568 0.77748 0.0
C1463 C 0.69281 0.95862 0.7429 0.0
N1464 N 0.73019 0.90535 0.78892 0.0
N1465 N 0.71098 0.94691 0.7485 0.0
H1466 H 0.70019 0.94449 0.55455 0.0
H1467 H 0.59083 0.96947 0.47385 0.0
H1468 H 0.65897 0.88769 0.50088 0.0
H1469 H 0.61203 0.00999 0.5448 0.0
H1470 H 0.61912 0.94203 0.48083 0.0
H1471 H 0.67059 0.97092 0.54941 0.0
C1472 C 0.68471 0.9375 0.54187 0.0
C1473 C 0.68195 0.91393 0.5281 0.0
C1474 C 0.61764 0.95699 0.49482 0.0
C1475 C 0.64843 0.94425 0.52173 0.0
C1476 C 0.60175 0.97283 0.49075 0.0
C1477 C 0.59932 0.99211 0.50873 0.0
C1478 C 0.6314 0.9607 0.51689 0.0
C1479 C 0.61358 -0.00456 0.53043 0.0
C1480 C 0.66788 0.95258 0.53894 0.0
C1481 C 0.66163 0.9057 0.51193 0.0
N1482 N 0.62912 0.97991 0.53389 0.0
N1483 N 0.64575 0.92102 0.50894 0.0
H1484 H 0.37182 0.42441 0.71545 0.0
H1485 H 0.24239 0.33789 0.71883 0.0
H1486 H 0.30732 0.45548 0.71792 0.0
H1487 H 0.30605 0.32336 0.75513 0.0
H1488 H 0.26598 0.37773 0.70925 0.0
H1489 H 0.34765 0.38331 0.72008 0.0
C1490 C 0.35252 0.42252 0.71656 0.0
C1491 C 0.34156 0.44343 0.71643 0.0
C1492 C 0.27473 0.36569 0.71919 0.0
C1493 C 0.31394 0.39649 0.72164 0.0
C1494 C 0.26136 0.34301 0.72462 0.0
C1495 C 0.27238 0.32736 0.73771 0.0
C1496 C 0.29934 0.37239 0.72648 0.0
C1497 C 0.29696 0.33483 0.74484 0.0
C1498 C 0.33882 0.39912 0.71939 0.0
C1499 C 0.31649 0.43988 0.7181 0.0
N1500 N 0.30969 0.35679 0.739 0.0
N1501 N 0.30347 0.4168 0.72062 0.0
H1502 H 0.10133 0.58178 0.22989 0.0
H1503 H 0.22746 0.66735 0.21451 0.0
H1504 H 0.16453 0.55069 0.21564 0.0
H1505 H 0.18221 0.69049 0.26954 0.0
H1506 H 0.20103 0.62591 0.20802 0.0
H1507 H 0.12726 0.62392 0.23772 0.0
C1508 C 0.12057 0.58389 0.22816 0.0
C1509 C 0.1309 0.56287 0.22211 0.0
C1510 C 0.19697 0.64003 0.22159 0.0
C1511 C 0.16025 0.61047 0.23078 0.0
C1512 C 0.21197 0.66359 0.22529 0.0
C1513 C 0.20698 0.68213 0.24268 0.0
C1514 C 0.17648 0.63523 0.23491 0.0
C1515 C 0.18671 0.67646 0.25617 0.0
C1516 C 0.13529 0.60777 0.23284 0.0
C1517 C 0.15591 0.56645 0.22033 0.0
N1518 N 0.17192 0.65347 0.25181 0.0
N1519 N 0.16973 0.58983 0.22446 0.0
H1520 H 0.49985 0.66569 0.38679 0.0
H1521 H 0.46569 0.60006 0.5008 0.0
H1522 H 0.47176 0.70773 0.44539 0.0
H1523 H 0.53325 0.59694 0.46864 0.0
H1524 H 0.46167 0.63552 0.47855 0.0
H1525 H 0.5053 0.63456 0.41358 0.0
C1526 C 0.49452 0.66818 0.40521 0.0
C1527 C 0.48532 0.68923 0.41395 0.0
C1528 C 0.47751 0.62724 0.47678 0.0
C1529 C 0.49146 0.65378 0.44447 0.0
C1530 C 0.47983 0.60712 0.4894 0.0
C1531 C 0.49982 0.59564 0.48649 0.0
C1532 C 0.49493 0.63522 0.4607 0.0
C1533 C 0.51764 0.60537 0.47149 0.0
C1534 C 0.49789 0.65059 0.42049 0.0
C1535 C 0.47894 0.6917 0.43805 0.0
N1536 N 0.51453 0.62432 0.45874 0.0
N1537 N 0.48193 0.67399 0.45253 0.0
H1538 H 0.62583 0.31546 0.63696 0.0
H1539 H 0.69629 0.32393 0.76545 0.0
H1540 H 0.59541 0.33768 0.70381 0.0
H1541 H 0.69877 0.26869 0.70459 0.0
H1542 H 0.66778 0.34156 0.74127 0.0
H1543 H 0.66265 0.31261 0.66 0.0
C1544 C 0.62712 0.32038 0.65641 0.0
C1545 C 0.60738 0.32621 0.6686 0.0
C1546 C 0.67508 0.3259 0.73317 0.0
C1547 C 0.64927 0.32301 0.69486 0.0
C1548 C 0.69117 0.3158 0.74691 0.0
C1549 C 0.70001 0.29498 0.73679 0.0
C1550 C 0.66834 0.3153 0.70917 0.0
C1551 C 0.69285 0.28507 0.71279 0.0
C1552 C 0.64807 0.31864 0.66951 0.0
C1553 C 0.61011 0.33262 0.69381 0.0
N1554 N 0.67745 0.29533 0.69976 0.0
N1555 N 0.63059 0.33049 0.70622 0.0
H1556 H 0.02566 0.35545 0.89597 0.0
H1557 H 0.9512 0.43881 0.97075 0.0
H1558 H 0.95483 0.32018 0.91392 0.0
H1559 H 0.02607 0.44077 0.99097 0.0
H1560 H 0.94976 0.39844 0.94561 0.0
H1561 H 0.02427 0.39133 0.92595 0.0
C1562 C 0.00981 0.35533 0.90623 0.0
C1563 C 0.99037 0.33492 0.90261 0.0
C1564 C 0.9663 0.4077 0.95593 0.0
C1565 C 0.98848 0.37593 0.93644 0.0
C1566 C 0.96717 0.43066 0.9702 0.0
C1567 C 0.98882 0.44332 0.98283 0.0
C1568 C 0.98737 0.39788 0.95394 0.0
C1569 C 0.00898 0.43186 0.9815 0.0
C1570 C 0.00908 0.37567 0.92336 0.0
C1571 C 0.97024 0.33558 0.9164 0.0
N1572 N 0.00788 0.41006 0.96696 0.0
N1573 N 0.96963 0.35601 0.93258 0.0
H1574 H 0.96505 0.80414 0.1607 0.0
H1575 H 0.87842 0.7564 0.26284 0.0
H1576 H 0.98786 0.76823 0.22025 0.0
H1577 H 0.85806 0.79862 0.20732 0.0
H1578 H 0.91878 0.76065 0.24765 0.0
H1579 H 0.92567 0.8021 0.17742 0.0
C1580 C 0.9618 0.79581 0.17728 0.0
C1581 C 0.97981 0.7863 0.18906 0.0
C1582 C 0.90553 0.7691 0.23886 0.0
C1583 C 0.93473 0.78393 0.20831 0.0
C1584 C 0.88254 0.76669 0.24754 0.0
C1585 C 0.86499 0.77713 0.23624 0.0
C1586 C 0.91087 0.78193 0.21868 0.0
C1587 C 0.87114 0.79027 0.2165 0.0
C1588 C 0.93931 0.79471 0.18686 0.0
C1589 C 0.97455 0.7758 0.21054 0.0
N1590 N 0.89356 0.7922 0.20826 0.0
N1591 N 0.95247 0.77484 0.21943 0.0
H1592 H 0.52466 0.36273 0.11269 0.0
H1593 H 0.48464 0.42431 -0.00122 0.0
H1594 H 0.49002 0.31785 0.04753 0.0
H1595 H 0.53571 0.46385 0.05649 0.0
H1596 H 0.48541 0.38507 0.01587 0.0
H1597 H 0.52737 0.40018 0.09235 0.0
C1598 C 0.51761 0.36075 0.09407 0.0
C1599 C 0.50703 0.33714 0.08181 0.0
C1600 C 0.4966 0.40234 0.02459 0.0
C1601 C 0.51002 0.38007 0.05834 0.0
C1602 C 0.49621 0.42474 0.01484 0.0
C1603 C 0.50997 0.44749 0.0263 0.0
C1604 C 0.51067 0.40281 0.04604 0.0
C1605 C 0.52463 0.44687 0.04707 0.0
C1606 C 0.51927 0.38215 0.08241 0.0
C1607 C 0.49832 0.33572 0.05764 0.0
N1608 N 0.5244 0.42498 0.05636 0.0
N1609 N 0.49985 0.35694 0.04671 0.0
H1610 H 0.94607 0.26865 0.37859 0.0
H1611 H 0.85927 0.31734 0.28616 0.0
H1612 H 0.97002 0.30743 0.31795 0.0
H1613 H 0.8333 0.27501 0.34377 0.0
H1614 H 0.9006 0.31888 0.3014 0.0
H1615 H 0.9051 0.27456 0.36915 0.0
C1616 C 0.94274 0.27837 0.36331 0.0
C1617 C 0.96149 0.28735 0.34892 0.0
C1618 C 0.88589 0.3095 0.31092 0.0
C1619 C 0.91481 0.2944 0.33822 0.0
C1620 C 0.86232 0.30877 0.3023 0.0
C1621 C 0.84298 0.29584 0.31363 0.0
C1622 C 0.8901 0.29702 0.33088 0.0
C1623 C 0.84781 0.28508 0.33449 0.0
C1624 C 0.91938 0.28183 0.358 0.0
C1625 C 0.95615 0.29998 0.32945 0.0
N1626 N 0.87096 0.28562 0.3423 0.0
N1627 N 0.93333 0.30305 0.32466 0.0
H1628 H 0.98704 0.66302 0.62096 0.0
H1629 H 0.96109 0.58804 0.48937 0.0
H1630 H 0.97276 0.70311 0.56123 0.0
H1631 H 0.01721 0.57998 0.54077 0.0
H1632 H 0.95428 0.62492 0.51625 0.0
H1633 H 0.98491 0.62536 0.59269 0.0
C1634 C 0.98313 0.66389 0.60193 0.0
C1635 C 0.98062 0.68648 0.59341 0.0
C1636 C 0.96789 0.61478 0.52153 0.0
C1637 C 0.97809 0.64321 0.561 0.0
C1638 C 0.97179 0.59389 0.50631 0.0
C1639 C 0.98933 0.58065 0.51324 0.0
C1640 C 0.98133 0.62182 0.5438 0.0
C1641 C 0.00292 0.58905 0.53517 0.0
C1642 C 0.98195 0.64235 0.58583 0.0
C1643 C 0.97512 0.68618 0.56853 0.0
N1644 N -0.00152 0.60889 0.54976 0.0
N1645 N 0.9743 0.66486 0.55303 0.0
H1646 H 0.56842 0.73141 0.82381 0.0
H1647 H 0.69594 0.80878 0.79893 0.0
H1648 H 0.61372 0.78188 0.87971 0.0
H1649 H 0.6754 0.73057 0.77014 0.0
H1650 H 0.65951 0.8045 0.82153 0.0
H1651 H 0.60252 0.73531 0.79755 0.0
C1652 C 0.58562 0.74314 0.83058 0.0
C1653 C 0.58847 0.75622 0.85397 0.0
C1654 C 0.66289 0.78842 0.80997 0.0
C1655 C 0.62675 0.76143 0.82395 0.0
C1656 C 0.68345 0.79089 0.79686 0.0
C1657 C 0.68865 0.76994 0.78274 0.0
C1658 C 0.64725 0.76503 0.80849 0.0
C1659 C 0.67202 0.74711 0.78095 0.0
C1660 C 0.60488 0.74537 0.81561 0.0
C1661 C 0.61093 0.7713 0.86194 0.0
N1662 N 0.65196 0.74522 0.79373 0.0
N1663 N 0.62918 0.77375 0.84679 0.0
H1664 H 0.37381 0.52513 0.64121 0.0
H1665 H 0.49744 0.57968 0.58412 0.0
H1666 H 0.43574 0.57065 0.68309 0.0
H1667 H 0.44804 0.51298 0.5516 0.0
H1668 H 0.47072 0.58333 0.61719 0.0
H1669 H 0.39672 0.52742 0.60482 0.0
C1670 C 0.39208 0.53591 0.64268 0.0
C1671 C 0.403 0.54756 0.6652 0.0
C1672 C 0.46563 0.56803 0.60269 0.0
C1673 C 0.42912 0.55032 0.62379 0.0
C1674 C 0.48083 0.56596 0.58381 0.0
C1675 C 0.47497 0.5459 0.56521 0.0
C1676 C 0.44432 0.55006 0.60282 0.0
C1677 C 0.45319 0.52872 0.56561 0.0
C1678 C 0.40515 0.53708 0.62196 0.0
C1679 C 0.42673 0.56122 0.66611 0.0
N1680 N 0.43865 0.53113 0.58419 0.0
N1681 N 0.43902 0.56218 0.64571 0.0
H1682 H 0.77554 0.23675 0.96861 0.0
H1683 H 0.78971 0.22086 0.82672 0.0
H1684 H 0.80426 0.17751 0.92958 0.0
H1685 H 0.75287 0.27513 0.86284 0.0
H1686 H 0.80332 0.21116 0.86584 0.0
H1687 H 0.77615 0.25769 0.93203 0.0
C1688 C 0.78263 0.22853 0.95255 0.0
C1689 C 0.78939 0.20512 0.95189 0.0
C1690 C 0.79239 0.22532 0.86531 0.0
C1691 C 0.78983 0.2287 0.91013 0.0
C1692 C 0.78449 0.23075 0.84298 0.0
C1693 C 0.76973 0.24841 0.84168 0.0
C1694 C 0.78525 0.23741 0.88655 0.0
C1695 C 0.76395 0.2611 0.8632 0.0
C1696 C 0.78279 0.24038 0.93165 0.0
C1697 C 0.79847 0.19532 0.9307 0.0
N1698 N 0.77147 0.2551 0.88487 0.0
N1699 N 0.79808 0.20697 0.91054 0.0
H1700 H 0.04638 0.43259 0.16624 0.0
H1701 H 0.04245 0.52316 0.06964 0.0
H1702 H 0.11097 0.47062 0.13734 0.0
H1703 H 0.98358 0.46049 0.0713 0.0
H1704 H 0.06761 0.50354 0.09479 0.0
H1705 H 0.02273 0.44009 0.13112 0.0
C1706 C 0.05564 0.4419 0.15214 0.0
C1707 C 0.08055 0.45148 0.15486 0.0
C1708 C 0.04931 0.49385 0.08942 0.0
C1709 C 0.05367 0.46056 0.11517 0.0
C1710 C 0.03495 0.50505 0.07509 0.0
C1711 C 0.01114 0.49316 0.06811 0.0
C1712 C 0.03951 0.47095 0.09753 0.0
C1713 C 0.00192 0.4702 0.07637 0.0
C1714 C 0.04214 0.44619 0.13216 0.0
C1715 C 0.09175 0.46319 0.13606 0.0
N1716 N 0.01611 0.45988 0.09095 0.0
N1717 N 0.07812 0.46798 0.11724 0.0
H1718 H 0.74291 0.812 0.45703 0.0
H1719 H 0.8023 0.82056 0.32977 0.0
H1720 H 0.76495 0.88132 0.42667 0.0
H1721 H 0.74891 0.75657 0.34278 0.0
H1722 H 0.79806 0.84046 0.37063 0.0
H1723 H 0.75338 0.789 0.41967 0.0
C1724 C 0.74998 0.82235 0.44257 0.0
C1725 C 0.75277 0.84856 0.4448 0.0
C1726 C 0.78758 0.82189 0.36461 0.0
C1727 C 0.76537 0.8226 0.40263 0.0
C1728 C 0.79015 0.81044 0.34143 0.0
C1729 C 0.77581 0.78699 0.33287 0.0
C1730 C 0.77085 0.80959 0.3794 0.0
C1731 C 0.76016 0.77479 0.34865 0.0
C1732 C 0.75596 0.80926 0.42136 0.0
C1733 C 0.76215 0.86109 0.42558 0.0
N1734 N 0.758 0.78628 0.37116 0.0
N1735 N 0.76821 0.84802 0.40538 0.0
H1736 H 0.44953 0.49506 0.78776 0.0
H1737 H 0.42342 0.51108 0.9278 0.0
H1738 H 0.38906 0.52513 0.81421 0.0
H1739 H 0.47893 0.47474 0.89855 0.0
H1740 H 0.40897 0.5147 0.88653 0.0
H1741 H 0.45975 0.48693 0.82845 0.0
C1742 C 0.43842 0.50009 0.80215 0.0
C1743 C 0.41843 0.51092 0.7975 0.0
C1744 C 0.42412 0.50566 0.88914 0.0
C1745 C 0.43003 0.50142 0.84439 0.0
C1746 C 0.43226 0.50345 0.91266 0.0
C1747 C 0.45244 0.4927 0.9165 0.0
C1748 C 0.43638 0.49717 0.86946 0.0
C1749 C 0.46335 0.48323 0.89635 0.0
C1750 C 0.44421 0.49528 0.82543 0.0
C1751 C 0.40468 0.51685 0.81695 0.0
N1752 N 0.45532 0.48589 0.87371 0.0
N1753 N 0.41078 0.51208 0.83958 0.0
H1754 H 0.78629 0.20563 0.07822 0.0
H1755 H 0.74299 0.20744 0.21285 0.0
H1756 H 0.73496 0.14608 0.10291 0.0
H1757 H 0.79116 0.26971 0.18875 0.0
H1758 H 0.7407 0.18458 0.17261 0.0
H1759 H 0.78975 0.22888 0.11869 0.0
C1760 C 0.77587 0.19735 0.09217 0.0
C1761 C 0.76023 0.17388 0.08713 0.0
C1762 C 0.75173 0.20326 0.17599 0.0
C1763 C 0.76403 0.20049 0.13337 0.0
C1764 C 0.75296 0.2164 0.19897 0.0
C1765 C 0.76718 0.24055 0.20403 0.0
C1766 C 0.76493 0.21428 0.15788 0.0
C1767 C 0.77992 0.25113 0.18547 0.0
C1768 C 0.7778 0.2107 0.11523 0.0
C1769 C 0.74718 0.16412 0.10591 0.0
N1770 N 0.77854 0.23787 0.16313 0.0
N1771 N 0.74934 0.1775 0.12816 0.0
H1772 H 0.02247 0.49448 0.27461 0.0
H1773 H 0.04525 0.47581 0.41301 0.0
H1774 H 0.08447 0.46862 0.30221 0.0
H1775 H -0.00909 0.51381 0.38741 0.0
H1776 H 0.05627 0.46718 0.37144 0.0
H1777 H 0.00719 0.49582 0.31483 0.0
C1778 C 0.03283 0.48894 0.28909 0.0
C1779 C 0.05494 0.48168 0.2851 0.0
C1780 C 0.04186 0.47729 0.37489 0.0
C1781 C 0.03749 0.4832 0.33116 0.0
C1782 C 0.03557 0.48221 0.39856 0.0
C1783 C 0.01736 0.49577 0.4035 0.0
C1784 C 0.02981 0.48601 0.35612 0.0
C1785 C 0.00519 0.50346 0.38426 0.0
C1786 C 0.02408 0.48974 0.31205 0.0
C1787 C 0.06746 0.47455 0.30452 0.0
N1788 N 0.01174 0.49858 0.36134 0.0
N1789 N 0.0586 0.47562 0.32678 0.0
H1790 H 0.77064 0.87057 0.61223 0.0
H1791 H 0.71902 0.75246 0.68077 0.0
H1792 H 0.72333 0.80384 0.5766 0.0
H1793 H 0.77579 0.81385 0.71107 0.0
H1794 H 0.71818 0.77185 0.64322 0.0
H1795 H 0.7708 0.85088 0.64933 0.0
C1796 C 0.76033 0.85171 0.61218 0.0
C1797 C 0.74697 0.83882 0.59125 0.0
C1798 C 0.73076 0.7811 0.65813 0.0
C1799 C 0.74694 0.81616 0.63385 0.0
C1800 C 0.73118 0.77009 0.67956 0.0
C1801 C 0.74738 0.78168 0.69908 0.0
C1802 C 0.74659 0.80389 0.65631 0.0
C1803 C 0.76281 0.80444 0.69657 0.0
C1804 C 0.76043 0.84047 0.63341 0.0
C1805 C 0.73394 0.81443 0.5923 0.0
N1806 N 0.76202 0.8148 0.67561 0.0
N1807 N 0.73418 0.80391 0.61328 0.0
H1808 H 0.67188 0.44545 0.56018 0.0
H1809 H 0.61029 0.54314 0.49913 0.0
H1810 H 0.69292 0.47464 0.4938 0.0
H1811 H 0.59095 0.51773 0.56748 0.0
H1812 H 0.64633 0.52505 0.50142 0.0
H1813 H 0.64715 0.47735 0.56721 0.0
C1814 C 0.67143 0.45869 0.54721 0.0
C1815 C 0.68402 0.45714 0.52616 0.0
C1816 C 0.63449 0.52383 0.51619 0.0
C1817 C 0.65602 0.49361 0.53406 0.0
C1818 C 0.614 0.53429 0.51492 0.0
C1819 C 0.59751 0.53142 0.5329 0.0
C1820 C 0.63818 0.5101 0.53537 0.0
C1821 C 0.60314 0.52 0.55308 0.0
C1822 C 0.65743 0.47696 0.55127 0.0
C1823 C 0.68313 0.47491 0.51007 0.0
N1824 N 0.62279 0.50922 0.55353 0.0
N1825 N 0.66914 0.49223 0.51423 0.0
H1826 H 0.18449 0.07036 0.45083 0.0
H1827 H 0.05845 0.06868 0.50994 0.0
H1828 H 0.16342 0.13679 0.48538 0.0
H1829 H 0.07216 0.00765 0.45987 0.0
H1830 H 0.09836 0.09275 0.504 0.0
H1831 H 0.14432 0.04626 0.45563 0.0
C1832 C 0.1713 0.07993 0.45919 0.0
C1833 C 0.17728 0.10558 0.46779 0.0
C1834 C 0.09267 0.07408 0.49435 0.0
C1835 C 0.13149 0.07806 0.47371 0.0
C1836 C 0.07 0.06026 0.49788 0.0
C1837 C 0.06207 0.03621 0.48528 0.0
C1838 C 0.10755 0.06367 0.47827 0.0
C1839 C 0.07766 0.02617 0.46988 0.0
C1840 C 0.14841 0.06615 0.46198 0.0
C1841 C 0.15953 0.11705 0.47845 0.0
N1842 N 0.0997 0.03998 0.46676 0.0
N1843 N 0.13746 0.10313 0.48133 0.0
H1844 H 0.14065 0.90601 0.75308 0.0
H1845 H 0.26254 0.85753 0.77671 0.0
H1846 H 0.20728 0.9565 0.77918 0.0
H1847 H 0.20078 0.81401 0.73291 0.0
H1848 H 0.24305 0.89391 0.77895 0.0
H1849 H 0.16238 0.87161 0.74773 0.0
C1850 C 0.15986 0.90985 0.75781 0.0
C1851 C 0.17215 0.93418 0.76666 0.0
C1852 C 0.23393 0.87645 0.76865 0.0
C1853 C 0.19723 0.89478 0.76047 0.0
C1854 C 0.24508 0.85568 0.76727 0.0
C1855 C 0.23325 0.83256 0.75473 0.0
C1856 C 0.21071 0.87399 0.75763 0.0
C1857 C 0.2106 0.83134 0.74291 0.0
C1858 C 0.1723 0.89021 0.75459 0.0
C1859 C 0.19709 0.93803 0.77234 0.0
N1860 N 0.19999 0.85164 0.74488 0.0
N1861 N 0.20881 0.9185 0.76925 0.0
H1862 H 0.30882 0.9203 0.02821 0.0
H1863 H 0.4235 0.96955 0.9567 0.0
H1864 H 0.3055 0.95424 0.96222 0.0
H1865 H 0.42798 0.97291 0.03463 0.0
H1866 H 0.3804 0.95308 0.95622 0.0
H1867 H 0.35306 0.92995 0.02863 0.0
C1868 C 0.31741 0.92965 0.01379 0.0
C1869 C 0.30362 0.93668 -0.00478 0.0
C1870 C 0.3909 0.95725 0.97339 0.0
C1871 C 0.35367 0.94717 -0.0046 0.0
C1872 C 0.41552 0.96654 0.97371 0.0
C1873 C 0.42931 0.97295 -0.0042 0.0
C1874 C 0.38002 0.9541 -0.00476 0.0
C1875 C 0.41793 0.9685 0.01724 0.0
C1876 C 0.34252 0.93515 0.01409 0.0
C1877 C 0.3155 0.94875 0.97698 0.0
N1878 N 0.39381 0.95941 0.01645 0.0
N1879 N 0.33988 0.95353 0.97747 0.0
H1880 H 0.80645 0.55885 0.75871 0.0
H1881 H 0.78441 0.69316 0.81196 0.0
H1882 H 0.85279 0.61002 0.81343 0.0
H1883 H 0.75499 0.65577 0.74179 0.0
H1884 H 0.79949 0.65589 0.81992 0.0
H1885 H 0.77832 0.58776 0.7597 0.0
C1886 C 0.81043 0.57591 0.7713 0.0
C1887 C 0.83212 0.58236 0.78574 0.0
C1888 C 0.78944 0.65568 0.80292 0.0
C1889 C 0.80012 0.61514 0.78702 0.0
C1890 C 0.78084 0.6769 0.79834 0.0
C1891 C 0.769 0.67759 0.77594 0.0
C1892 C 0.78631 0.6351 0.78489 0.0
C1893 C 0.76437 0.65596 0.75914 0.0
C1894 C 0.79443 0.59236 0.77177 0.0
C1895 C 0.83643 0.60458 0.80175 0.0
N1896 N 0.77345 0.63559 0.76378 0.0
N1897 N 0.82064 0.62031 0.80181 0.0
H1898 H 0.78931 0.56101 0.01977 0.0
H1899 H 0.92404 0.56903 0.97917 0.0
H1900 H 0.82473 0.61765 0.97805 0.0
H1901 H 0.89081 0.51735 0.02666 0.0
H1902 H 0.887 0.58552 0.97651 0.0
H1903 H 0.82566 0.54351 0.02076 0.0
C1904 C 0.80474 0.56981 0.01081 0.0
C1905 C 0.80395 0.59088 -0.00119 0.0
C1906 C 0.88776 0.57054 0.98746 0.0
C1907 C 0.84569 0.57079 -0.00015 0.0
C1908 C 0.90885 0.56108 0.98893 0.0
C1909 C 0.91039 0.54188 0.0032 0.0
C1910 C 0.8681 0.56066 0.00035 0.0
C1911 C 0.89028 0.53219 0.01547 0.0
C1912 C 0.82551 0.55977 0.0114 0.0
C1913 C 0.82454 0.60144 0.98755 0.0
N1914 N 0.86994 0.54174 0.01381 0.0
N1915 N 0.84458 0.59125 0.98833 0.0
H1916 H 0.1387 0.10597 0.77718 0.0
H1917 H 0.27375 0.18408 0.79321 0.0
H1918 H 0.19858 0.06893 0.78703 0.0
H1919 H 0.21556 0.20364 0.7519 0.0
H1920 H 0.2465 0.14485 0.8001 0.0
H1921 H 0.16685 0.14565 0.77847 0.0
C1922 C 0.15779 0.10616 0.77983 0.0
C1923 C 0.16629 0.08393 0.78155 0.0
C1924 C 0.23981 0.15793 0.78971 0.0
C1925 C 0.1987 0.12959 0.78298 0.0
C1926 C 0.25525 0.18023 0.78582 0.0
C1927 C 0.24678 0.19711 0.77211 0.0
C1928 C 0.2158 0.15298 0.78018 0.0
C1929 C 0.22277 0.19128 0.76278 0.0
C1930 C 0.17385 0.12888 0.78052 0.0
C1931 C 0.19126 0.08558 0.7854 0.0
N1932 N 0.20813 0.1698 0.76708 0.0
N1933 N 0.2067 0.10806 0.78576 0.0
H1934 H 0.3518 0.95826 0.29211 0.0
H1935 H 0.29545 0.82827 0.21409 0.0
H1936 H 0.3823 0.93262 0.22649 0.0
H1937 H 0.28981 0.84091 0.29132 0.0
H1938 H 0.32321 0.86884 0.21627 0.0
H1939 H 0.32525 0.91718 0.29039 0.0
C1940 C 0.353 0.94389 0.27741 0.0
C1941 C 0.36925 0.94878 0.2594 0.0
C1942 C 0.31585 0.86267 0.23269 0.0
C1943 C 0.33866 0.902 0.25712 0.0
C1944 C 0.29985 0.83968 0.23145 0.0
C1945 C 0.29031 0.83127 0.25258 0.0
C1946 C 0.32197 0.87747 0.25512 0.0
C1947 C 0.29681 0.84668 0.27462 0.0
C1948 C 0.33788 0.92049 0.27647 0.0
C1949 C 0.37012 0.92952 0.2408 0.0
N1950 N 0.31216 0.86912 0.27531 0.0
N1951 N 0.35479 0.90698 0.23997 0.0
H1952 H 0.48585 0.35925 0.60686 0.0
H1953 H 0.53476 0.44768 0.51169 0.0
H1954 H 0.53849 0.34068 0.55775 0.0
H1955 H 0.46244 0.4425 0.53511 0.0
H1956 H 0.53711 0.40884 0.52864 0.0
H1957 H 0.47722 0.39041 0.58135 0.0
C1958 C 0.49541 0.36159 0.59058 0.0
C1959 C 0.51304 0.3476 0.58446 0.0
C1960 C 0.52059 0.41601 0.52969 0.0
C1961 C 0.50352 0.38327 0.55549 0.0
C1962 C 0.51928 0.43819 0.52014 0.0
C1963 C 0.49846 0.44838 0.52223 0.0
C1964 C 0.50116 0.40434 0.54187 0.0
C1965 C 0.47885 0.43528 0.53317 0.0
C1966 C 0.4904 0.37924 0.57598 0.0
C1967 C 0.5248 0.35117 0.5631 0.0
N1968 N 0.48083 0.41412 0.543 0.0
N1969 N 0.52013 0.36901 0.54956 0.0
H1970 H 0.41443 0.7081 0.32341 0.0
H1971 H 0.30813 0.76751 0.28689 0.0
H1972 H 0.4267 0.77965 0.2955 0.0
H1973 H 0.31228 0.70116 0.23862 0.0
H1974 H 0.34706 0.76615 0.30623 0.0
H1975 H 0.37242 0.69984 0.30598 0.0
C1976 C 0.40834 0.72194 0.31356 0.0
C1977 C 0.42394 0.74461 0.31087 0.0
C1978 C 0.33912 0.75162 0.29173 0.0
C1979 C 0.37661 0.73544 0.29161 0.0
C1980 C 0.31696 0.7523 0.28068 0.0
C1981 C 0.30714 0.73452 0.26096 0.0
C1982 C 0.35145 0.73297 0.28317 0.0
C1983 C 0.31946 0.71529 0.25366 0.0
C1984 C 0.38459 0.71713 0.30361 0.0
C1985 C 0.41531 0.76191 0.29792 0.0
N1986 N 0.34133 0.71513 0.26467 0.0
N1987 N 0.39208 0.75713 0.28907 0.0
H1988 H 0.06923 0.70457 0.13215 0.0
H1989 H 0.98996 0.6061 0.03019 0.0
H1990 H 0.01668 0.72438 0.08349 0.0
H1991 H 0.05729 0.59473 0.06174 0.0
H1992 H -0.00193 0.64874 0.05127 0.0
H1993 H 0.06373 0.66328 0.10834 0.0
C1994 C 0.05657 0.70027 0.11645 0.0
C1995 C 0.04333 0.71793 0.10985 0.0
C1996 C 0.01114 0.63697 0.05344 0.0
C1997 C 0.03689 0.67073 0.08266 0.0
C1998 C 0.0065 0.6126 0.04148 0.0
C1999 C 0.02294 0.59681 0.04428 0.0
C2000 C 0.03221 0.64551 0.06859 0.0
C2001 C 0.04415 0.60629 0.05902 0.0
C2002 C 0.05353 0.67675 0.10282 0.0
C2003 C 0.02728 0.71137 0.08925 0.0
N2004 N 0.04807 0.62997 0.07083 0.0
N2005 N 0.02437 0.68822 0.0765 0.0
H2006 H 0.0749 0.24945 0.8684 0.0
H2007 H 0.14715 0.26224 0.74927 0.0
H2008 H 0.04126 0.25519 0.79891 0.0
H2009 H 0.1736 0.23298 0.81152 0.0
H2010 H 0.10877 0.26224 0.76794 0.0
H2011 H 0.11246 0.24651 0.84888 0.0
C2012 C 0.07546 0.25017 0.84909 0.0
C2013 C 0.05502 0.25257 0.83523 0.0
C2014 C 0.12291 0.25561 0.77741 0.0
C2015 C 0.09765 0.24925 0.8129 0.0
C2016 C 0.14473 0.25557 0.76675 0.0
C2017 C 0.16342 0.24761 0.77893 0.0
C2018 C 0.12 0.24797 0.80052 0.0
C2019 C 0.15953 0.23922 0.80156 0.0
C2020 C 0.09679 0.24835 0.83795 0.0
C2021 C 0.05661 0.2533 0.81026 0.0
N2022 N 0.13828 0.23984 0.81177 0.0
N2023 N 0.0776 0.25175 0.79991 0.0
H2024 H 0.48046 0.68037 0.90738 0.0
H2025 H 0.51629 0.6149 0.02066 0.0
H2026 H 0.52578 0.71999 0.96923 0.0
H2027 H 0.46721 0.57673 0.96083 0.0
H2028 H 0.51684 0.65449 0.00416 0.0
H2029 H 0.47238 0.64317 0.92849 0.0
C2030 C 0.48853 0.68132 0.92549 0.0
C2031 C 0.504 0.70326 0.93646 0.0
C2032 C 0.50574 0.63748 -0.00521 0.0
C2033 C 0.49496 0.66067 0.96071 0.0
C2034 C 0.50537 0.61485 0.00424 0.0
C2035 C 0.4919 0.59236 0.992 0.0
C2036 C 0.49264 0.63762 0.97286 0.0
C2037 C 0.47806 0.59352 0.97082 0.0
C2038 C 0.48391 0.66007 0.93756 0.0
C2039 C 0.51386 0.70344 0.96002 0.0
N2040 N 0.47899 0.6157 0.96181 0.0
N2041 N 0.50936 0.6824 0.97126 0.0
H2042 H 0.05445 0.7664 0.68877 0.0
H2043 H 0.18552 0.73846 0.67703 0.0
H2044 H 0.0858 0.7603 0.61955 0.0
H2045 H 0.14273 0.72248 0.73771 0.0
H2046 H 0.14971 0.74539 0.65471 0.0
H2047 H 0.08758 0.75099 0.70667 0.0
C2048 C 0.06839 0.76191 0.6773 0.0
C2049 C 0.06737 0.76471 0.65259 0.0
C2050 C 0.14807 0.73989 0.67272 0.0
C2051 C 0.10552 0.74686 0.67313 0.0
C2052 C 0.16844 0.73582 0.68541 0.0
C2053 C 0.16703 0.73016 0.7093 0.0
C2054 C 0.12636 0.73859 0.6842 0.0
C2055 C 0.14458 0.72696 0.71937 0.0
C2056 C 0.08724 0.75287 0.68754 0.0
C2057 C 0.08596 0.75849 0.63869 0.0
N2058 N 0.12519 0.73162 0.7069 0.0
N2059 N 0.10443 0.74998 0.64921 0.0
H2060 H 0.04568 0.37294 0.39219 0.0
H2061 H 0.0503 0.45072 0.5214 0.0
H2062 H 0.04936 0.33605 0.45635 0.0
H2063 H 6e-05 0.4567 0.46309 0.0
H2064 H 0.06115 0.41459 0.49704 0.0
H2065 H 0.04136 0.41109 0.41755 0.0
C2066 C 0.04612 0.37301 0.41164 0.0
C2067 C 0.04768 0.35125 0.42221 0.0
C2068 C 0.04793 0.42408 0.48965 0.0
C2069 C 0.04291 0.39476 0.45111 0.0
C2070 C 0.04173 0.44457 0.50343 0.0
C2071 C 0.02452 0.45685 0.49402 0.0
C2072 C 0.03723 0.41639 0.46622 0.0
C2073 C 0.01378 0.44808 0.47078 0.0
C2074 C 0.04348 0.3947 0.42601 0.0
C2075 C 0.048 0.3524 0.44752 0.0
N2076 N 0.0205 0.42852 0.45753 0.0
N2077 N 0.04558 0.37386 0.46119 0.0
H2078 H 0.45676 0.27649 0.21378 0.0
H2079 H 0.31744 0.24628 0.20499 0.0
H2080 H 0.41829 0.26643 0.14389 0.0
H2081 H 0.35368 0.30612 0.25873 0.0
H2082 H 0.35493 0.24804 0.18439 0.0
H2083 H 0.41991 0.28311 0.23301 0.0
C2084 C 0.44057 0.27595 0.20252 0.0
C2085 C 0.44037 0.27084 0.17727 0.0
C2086 C 0.3546 0.26083 0.20063 0.0
C2087 C 0.39841 0.27774 0.19907 0.0
C2088 C 0.33339 0.25967 0.21253 0.0
C2089 C 0.33268 0.27592 0.23368 0.0
C2090 C 0.37538 0.27788 0.21032 0.0
C2091 C 0.35365 0.29323 0.2425 0.0
C2092 C 0.41971 0.27983 0.21347 0.0
C2093 C 0.41908 0.2704 0.16341 0.0
N2094 N 0.37441 0.2935 0.23096 0.0
N2095 N 0.39871 0.27327 0.17454 0.0
H2096 H 0.58357 0.4634 0.33875 0.0
H2097 H 0.54592 0.53933 0.45731 0.0
H2098 H 0.58871 0.54354 0.34888 0.0
H2099 H 0.50725 0.46476 0.43043 0.0
H2100 H 0.57167 0.53799 0.42328 0.0
H2101 H 0.56487 0.46089 0.37793 0.0
C2102 C 0.58117 0.48044 0.34945 0.0
C2103 C 0.58749 0.5037 0.34069 0.0
C2104 C 0.55772 0.52181 0.42499 0.0
C2105 C 0.56672 0.50104 0.38513 0.0
C2106 C 0.54306 0.52252 0.44441 0.0
C2107 C 0.52423 0.50224 0.44644 0.0
C2108 C 0.55372 0.50057 0.4076 0.0
C2109 C 0.52142 0.48088 0.42929 0.0
C2110 C 0.57043 0.47899 0.3716 0.0
C2111 C 0.5839 0.52525 0.355 0.0
N2112 N 0.53596 0.48062 0.41042 0.0
N2113 N 0.5738 0.52342 0.37652 0.0
H2114 H 0.20335 0.80958 0.04052 0.0
H2115 H 0.20894 0.74816 0.14255 0.0
H2116 H 0.2627 0.86219 0.07985 0.0
H2117 H 0.28473 0.78159 0.14825 0.0
H2118 H 0.20394 0.76851 0.10646 0.0
H2119 H 0.20905 0.7786 0.06742 0.0
C2120 C 0.21751 0.81462 0.05487 0.0
C2121 C 0.23232 0.8386 0.0583 0.0
C2122 C 0.22182 0.7707 0.11506 0.0
C2123 C 0.23881 0.80344 0.08904 0.0
C2124 C 0.22465 0.75918 0.13572 0.0
C2125 C 0.24722 0.76344 0.14835 0.0
C2126 C 0.24173 0.78671 0.10728 0.0
C2127 C 0.26701 0.77796 0.13898 0.0
C2128 C 0.22068 0.79698 0.07024 0.0
C2129 C 0.25064 0.84406 0.07687 0.0
N2130 N 0.2637 0.78957 0.11923 0.0
N2131 N 0.25336 0.82658 0.09159 0.0
H2132 H 0.91137 0.53964 0.85408 0.0
H2133 H 0.03096 0.56602 0.94168 0.0
H2134 H 0.98296 0.55163 0.82814 0.0
H2135 H 0.96454 0.51828 0.9565 0.0
H2136 H 0.01169 0.57269 0.90334 0.0
H2137 H 0.9292 0.54395 0.89559 0.0
C2138 C 0.93081 0.54354 0.85717 0.0
C2139 C 0.94576 0.5449 0.83775 0.0
C2140 C 0.00131 0.56111 0.91527 0.0
C2141 C 0.96607 0.55016 0.88481 0.0
C2142 C 0.01224 0.55732 0.93705 0.0
C2143 C -0.00073 0.54158 0.95215 0.0
C2144 C 0.97724 0.54935 0.9089 0.0
C2145 C 0.97509 0.5307 0.94542 0.0
C2146 C 0.94092 0.54593 0.88076 0.0
C2147 C 0.97083 0.55004 0.84265 0.0
N2148 N 0.96483 0.53475 0.92422 0.0
N2149 N 0.98024 0.55241 0.86574 0.0
H2150 H 0.27465 0.19691 0.55564 0.0
H2151 H 0.21417 0.21163 0.68238 0.0
H2152 H 0.21349 0.14455 0.57547 0.0
H2153 H 0.28634 0.24987 0.67156 0.0
H2154 H 0.21067 0.19175 0.64062 0.0
H2155 H 0.27629 0.22119 0.59569 0.0
C2156 C 0.2615 0.19061 0.56832 0.0
C2157 C 0.24404 0.16856 0.56227 0.0
C2158 C 0.22724 0.20457 0.64736 0.0
C2159 C 0.24571 0.19627 0.60788 0.0
C2160 C 0.22923 0.21601 0.6712 0.0
C2161 C 0.25067 0.2323 0.68058 0.0
C2162 C 0.24674 0.20956 0.63268 0.0
C2163 C 0.26956 0.23726 0.66515 0.0
C2164 C 0.2625 0.20442 0.59117 0.0
C2165 C 0.22743 0.16128 0.57941 0.0
N2166 N 0.26718 0.22589 0.64196 0.0
N2167 N 0.22868 0.17509 0.60139 0.0
H2168 H 0.63868 0.50849 0.18302 0.0
H2169 H 0.52345 0.54739 0.12137 0.0
H2170 H 0.57031 0.50442 0.21536 0.0
H2171 H 0.58601 0.5371 0.08285 0.0
H2172 H 0.54294 0.5377 0.15809 0.0
H2173 H 0.62168 0.52356 0.14774 0.0
C2174 C 0.62007 0.51065 0.18265 0.0
C2175 C 0.60585 0.50508 0.20211 0.0
C2176 C 0.55252 0.53781 0.14167 0.0
C2177 C 0.58643 0.52267 0.16201 0.0
C2178 C 0.5415 0.54357 0.12078 0.0
C2179 C 0.55313 0.54292 0.09908 0.0
C2180 C 0.57535 0.53139 0.14084 0.0
C2181 C 0.57644 0.53776 0.09925 0.0
C2182 C 0.61041 0.51933 0.16255 0.0
C2183 C 0.58188 0.50833 0.20071 0.0
N2184 N 0.58674 0.53199 0.11978 0.0
N2185 N 0.57296 0.51697 0.18105 0.0
H2186 H 0.20077 0.82874 0.94488 0.0
H2187 H 0.25821 0.81301 0.81904 0.0
H2188 H 0.22304 0.89057 0.90379 0.0
H2189 H 0.2043 0.75321 0.8396 0.0
H2190 H 0.25045 0.84038 0.85412 0.0
H2191 H 0.20515 0.79947 0.90944 0.0
C2192 C 0.20623 0.83612 0.92829 0.0
C2193 C 0.21166 0.8621 0.92723 0.0
C2194 C 0.24034 0.82126 0.85097 0.0
C2195 C 0.21725 0.8289 0.88715 0.0
C2196 C 0.24488 0.80555 0.83109 0.0
C2197 C 0.23164 0.78091 0.8263 0.0
C2198 C 0.22275 0.81216 0.86645 0.0
C2199 C 0.2148 0.77215 0.84266 0.0
C2200 C 0.20873 0.81943 0.90817 0.0
C2201 C 0.2186 0.8707 0.90535 0.0
N2202 N 0.21078 0.78783 0.86214 0.0
N2203 N 0.22158 0.85412 0.88625 0.0
H2204 H 0.89028 0.52812 0.68181 0.0
H2205 H 0.0061 0.57016 0.61036 0.0
H2206 H 0.95316 0.57748 0.71864 0.0
H2207 H 0.9627 0.49534 0.59892 0.0
H2208 H 0.98396 0.57927 0.64633 0.0
H2209 H 0.91305 0.52317 0.64587 0.0
C2210 C 0.90872 0.53829 0.68217 0.0
C2211 C 0.92 0.55303 0.70322 0.0
C2212 C 0.97954 0.56085 0.63596 0.0
C2213 C 0.94595 0.54741 0.6624 0.0
C2214 C -0.00784 0.55561 0.61563 0.0
C2215 C 0.98621 0.53195 0.60189 0.0
C2216 C 0.96057 0.54246 0.64194 0.0
C2217 C 0.96791 0.51376 0.60918 0.0
C2218 C 0.92172 0.53527 0.66179 0.0
C2219 C 0.94395 0.56577 0.70275 0.0
N2220 N 0.9555 0.5195 0.62859 0.0
N2221 N 0.95625 0.56263 0.6826 0.0
H2222 H 0.28682 0.22325 0.44425 0.0
H2223 H 0.24735 0.22848 0.30919 0.0
H2224 H 0.26384 0.15603 0.39392 0.0
H2225 H 0.3085 0.28291 0.3428 0.0
H2226 H 0.24919 0.20389 0.34273 0.0
H2227 H 0.2918 0.24791 0.40985 0.0
C2228 C 0.28308 0.21367 0.42601 0.0
C2229 C 0.27478 0.18757 0.42192 0.0
C2230 C 0.26236 0.22109 0.34267 0.0
C2231 C 0.27998 0.21558 0.38286 0.0
C2232 C 0.2614 0.23512 0.3235 0.0
C2233 C 0.27818 0.25748 0.32293 0.0
C2234 C 0.27969 0.22985 0.36193 0.0
C2235 C 0.29544 0.26558 0.34243 0.0
C2236 C 0.28599 0.22772 0.40647 0.0
C2237 C 0.27024 0.17609 0.39794 0.0
N2238 N 0.29563 0.25186 0.36136 0.0
N2239 N 0.27253 0.1902 0.37935 0.0
H2240 H 0.32709 0.60715 0.47817 0.0
H2241 H 0.38831 0.4969 0.51267 0.0
H2242 H 0.29468 0.5529 0.52383 0.0
H2243 H 0.40815 0.53705 0.45191 0.0
H2244 H 0.35226 0.51513 0.51533 0.0
H2245 H 0.35642 0.58097 0.4675 0.0
C2246 C 0.32617 0.58978 0.48598 0.0
C2247 C 0.30859 0.58231 0.5021 0.0
C2248 C 0.36422 0.51956 0.50109 0.0
C2249 C 0.34186 0.55224 0.48983 0.0
C2250 C 0.3847 0.50905 0.4995 0.0
C2251 C 0.40123 0.51577 0.48224 0.0
C2252 C 0.36062 0.53719 0.48557 0.0
C2253 C 0.39583 0.53156 0.46558 0.0
C2254 C 0.34275 0.57472 0.4797 0.0
C2255 C 0.30803 0.55946 0.51144 0.0
N2256 N 0.37617 0.54218 0.46796 0.0
N2257 N 0.32457 0.54533 0.50533 0.0
H2258 H 0.8236 0.92365 0.55677 0.0
H2259 H 0.9385 0.98793 0.49381 0.0
H2260 H 0.81962 0.95152 0.48762 0.0
H2261 H 0.93533 0.00047 0.57123 0.0
H2262 H 0.89667 0.96548 0.49043 0.0
H2263 H 0.86679 0.94337 0.56175 0.0
C2264 C 0.83185 0.93376 0.54265 0.0
C2265 C 0.81813 0.93616 0.52184 0.0
C2266 C 0.90513 0.97317 0.50816 0.0
C2267 C 0.86697 0.95807 0.52719 0.0
C2268 C 0.92892 0.98603 0.51007 0.0
C2269 C 0.94008 -0.00356 0.53274 0.0
C2270 C 0.89259 0.97031 0.52915 0.0
C2271 C 0.92711 0.99294 0.55339 0.0
C2272 C 0.85631 0.94504 0.54555 0.0
C2273 C 0.82952 0.94946 0.50405 0.0
N2274 N 0.9039 0.98007 0.55114 0.0
N2275 N 0.85331 0.95978 0.50706 0.0
H2276 H 0.79873 0.06567 0.23709 0.0
H2277 H 0.80605 0.20601 0.29963 0.0
H2278 H 0.86303 0.11222 0.27401 0.0
H2279 H 0.74342 0.16213 0.25741 0.0
H2280 H 0.82496 0.16945 0.29585 0.0
H2281 H 0.77632 0.09854 0.24928 0.0
C2282 C 0.8081 0.08273 0.24791 0.0
C2283 C 0.83285 0.08631 0.25434 0.0
C2284 C 0.80696 0.16773 0.28764 0.0
C2285 C 0.80731 0.124 0.26837 0.0
C2286 C 0.79608 0.1886 0.28987 0.0
C2287 C 0.77318 0.1873 0.27854 0.0
C2288 C 0.79494 0.14535 0.27393 0.0
C2289 C 0.76115 0.16412 0.26629 0.0
C2290 C 0.79529 0.10148 0.25487 0.0
C2291 C 0.84402 0.10873 0.26848 0.0
N2292 N 0.77229 0.14416 0.26407 0.0
N2293 N 0.83121 0.12677 0.27488 0.0
H2294 H 0.68469 0.11253 0.95544 0.0
H2295 H 0.56866 0.08577 0.03105 0.0
H2296 H 0.67596 0.15939 0.02073 0.0
H2297 H 0.57506 0.04829 0.9598 0.0
H2298 H 0.60664 0.11484 0.02703 0.0
H2299 H 0.64273 0.09145 0.95527 0.0
C2300 C 0.67371 0.11867 0.96948 0.0
C2301 C 0.68369 0.1375 0.98819 0.0
C2302 C 0.59955 0.10034 0.01225 0.0
C2303 C 0.63591 0.11305 0.98862 0.0
C2304 C 0.578 0.08364 0.01461 0.0
C2305 C 0.56882 0.06436 -0.00412 0.0
C2306 C 0.61191 0.09759 0.99108 0.0
C2307 C 0.5815 0.06267 0.97485 0.0
C2308 C 0.64978 0.10659 0.96947 0.0
C2309 C 0.6688 0.1449 0.00597 0.0
N2310 N 0.60242 0.07895 0.97311 0.0
N2311 N 0.64566 0.1323 0.00602 0.0
H2312 H 0.19935 0.46574 0.22794 0.0
H2313 H 0.24567 0.37192 0.30954 0.0
H2314 H 0.15614 0.42598 0.27869 0.0
H2315 H 0.268 0.38091 0.23746 0.0
H2316 H 0.22212 0.40474 0.30683 0.0
H2317 H 0.23308 0.44667 0.23974 0.0
C2318 C 0.19707 0.45327 0.24181 0.0
C2319 C 0.17484 0.44704 0.2521 0.0
C2320 C 0.23271 0.39994 0.2919 0.0
C2321 C 0.21335 0.42574 0.26589 0.0
C2322 C 0.24627 0.38141 0.29348 0.0
C2323 C 0.2584 0.37355 0.27351 0.0
C2324 C 0.23167 0.41077 0.27036 0.0
C2325 C 0.25861 0.38634 0.25311 0.0
C2326 C 0.21631 0.44249 0.24851 0.0
C2327 C 0.17288 0.43092 0.27005 0.0
N2328 N 0.24512 0.40419 0.25191 0.0
N2329 N 0.1919 0.42069 0.27632 0.0
H2330 H 0.15692 0.38694 0.00165 0.0
H2331 H 0.10616 0.5076 0.0528 0.0
H2332 H 0.19668 0.4444 0.05568 0.0
H2333 H 0.08546 0.46771 0.9815 0.0
H2334 H 0.13572 0.48092 0.05809 0.0
H2335 H 0.12572 0.41219 -0.00145 0.0
C2336 C 0.15886 0.40465 0.01311 0.0
C2337 C 0.17938 0.41374 0.02883 0.0
C2338 C 0.12479 0.47817 0.04125 0.0
C2339 C 0.14408 0.44254 0.02538 0.0
C2340 C 0.10808 0.49344 0.03819 0.0
C2341 C 0.09366 0.48997 0.01659 0.0
C2342 C 0.12667 0.4591 0.02274 0.0
C2343 C 0.09649 0.47114 -0.00168 0.0
C2344 C 0.14123 0.41912 0.01119 0.0
C2345 C 0.18117 0.43686 0.0432 0.0
N2346 N 0.11259 0.45626 0.00186 0.0
N2347 N 0.16375 0.4505 0.04113 0.0
H2348 H 0.81375 0.9558 0.21205 0.0
H2349 H 0.81376 0.82456 0.25704 0.0
H2350 H 0.8782 0.92474 0.21408 0.0
H2351 H 0.75123 0.83894 0.21852 0.0
H2352 H 0.83764 0.86311 0.24515 0.0
H2353 H 0.78994 0.91465 0.21758 0.0
C2354 C 0.82283 0.94026 0.21336 0.0
C2355 C 0.84797 0.94366 0.21264 0.0
C2356 C 0.81873 0.85766 0.23915 0.0
C2357 C 0.82101 0.89693 0.21952 0.0
C2358 C 0.80513 0.83575 0.24594 0.0
C2359 C 0.78058 0.82857 0.23861 0.0
C2360 C 0.8075 0.87274 0.22548 0.0
C2361 C 0.77015 0.84385 0.22451 0.0
C2362 C 0.80926 0.91683 0.21649 0.0
C2363 C 0.85885 0.9229 0.21444 0.0
N2364 N 0.78361 0.86541 0.2186 0.0
N2365 N 0.84534 0.90049 0.21818 0.0
H2366 H 0.64385 0.06454 0.75849 0.0
H2367 H 0.68764 0.18993 0.70007 0.0
H2368 H 0.6079 0.08142 0.69444 0.0
H2369 H 0.70772 0.18117 0.77371 0.0
H2370 H 0.65938 0.14975 0.6968 0.0
H2371 H 0.6682 0.10683 0.76373 0.0
C2372 C 0.64099 0.07722 0.74558 0.0
C2373 C 0.62394 0.06941 0.72589 0.0
C2374 C 0.66988 0.15671 0.7137 0.0
C2375 C 0.65195 0.11784 0.7317 0.0
C2376 C 0.68615 0.17956 0.71555 0.0
C2377 C 0.70021 0.18886 0.73717 0.0
C2378 C 0.66786 0.1429 0.73349 0.0
C2379 C 0.6973 0.17472 0.75669 0.0
C2380 C 0.65486 0.1014 0.74864 0.0
C2381 C 0.62085 0.0867 0.70986 0.0
N2382 N 0.68157 0.15235 0.75432 0.0
N2383 N 0.63495 0.11008 0.71296 0.0
loop_
_geom_bond_atom_site_label_1
_geom_bond_atom_site_label_2
_geom_bond_distance
_geom_bond_site_symmetry_2
_ccdc_geom_bond_type
C0 O1 1.306 . S
C0 O3 1.160 . S
O1 C0 1.306 . S
O1 Cd2 2.228 1_655 S
Cd2 O1 2.228 1_455 S
Cd2 O6 2.273 . S
Cd2 O10 2.277 . S
O3 C0 1.160 . S
O3 Cd4 2.203 1_655 S
Cd4 O3 2.203 1_455 S
Cd4 O6 2.411 . S
Cd4 O7 2.333 . S
Cd4 O8 2.352 . S
Cd4 O12 2.277 . S
Cd4 O13 2.356 . S
C5 O10 1.209 . S
C5 O12 1.226 . S
O6 Cd2 2.273 . S
O6 Cd4 2.411 . S
O6 C9 1.320 . S
O7 Cd4 2.333 . S
O7 C9 1.214 . S
O8 Cd4 2.352 . S
O8 C11 1.258 . S
C9 O6 1.320 . S
C9 O7 1.214 . S
O10 Cd2 2.277 . S
O10 C5 1.209 . S
C11 O8 1.258 . S
C11 O13 1.282 . S
O12 Cd4 2.277 . S
O12 C5 1.226 . S
O13 Cd4 2.356 . S
O13 C11 1.282 . S
C14 O15 1.306 . S
C14 O17 1.160 . S
O15 C14 1.306 . S
O15 Cd16 2.228 1_655 S
Cd16 O15 2.228 1_455 S
Cd16 O20 2.273 . S
Cd16 O24 2.277 . S
O17 C14 1.160 . S
O17 Cd18 2.203 1_655 S
Cd18 O17 2.203 1_455 S
Cd18 O20 2.411 . S
Cd18 O21 2.333 . S
Cd18 O22 2.352 . S
Cd18 O26 2.277 . S
Cd18 O27 2.356 . S
C19 O24 1.209 . S
C19 O26 1.226 . S
O20 Cd16 2.273 . S
O20 Cd18 2.411 . S
O20 C23 1.320 . S
O21 Cd18 2.333 . S
O21 C23 1.214 . S
O22 Cd18 2.352 . S
O22 C25 1.258 . S
C23 O20 1.320 . S
C23 O21 1.214 . S
O24 Cd16 2.277 . S
O24 C19 1.209 . S
C25 O22 1.258 . S
C25 O27 1.282 . S
O26 Cd18 2.277 . S
O26 C19 1.226 . S
O27 Cd18 2.356 . S
O27 C25 1.282 . S
C28 O29 1.306 . S
C28 O31 1.160 . S
O29 C28 1.306 . S
O29 Cd30 2.228 . S
Cd30 O29 2.228 . S
Cd30 O34 2.273 . S
Cd30 O38 2.277 . S
O31 C28 1.160 . S
O31 Cd32 2.203 . S
Cd32 O31 2.203 . S
Cd32 O34 2.411 . S
Cd32 O35 2.333 . S
Cd32 O36 2.352 . S
Cd32 O40 2.277 . S
Cd32 O41 2.356 . S
C33 O38 1.209 . S
C33 O40 1.226 . S
O34 Cd30 2.273 . S
O34 Cd32 2.411 . S
O34 C37 1.320 . S
O35 Cd32 2.333 . S
O35 C37 1.214 . S
O36 Cd32 2.352 . S
O36 C39 1.258 . S
C37 O34 1.320 . S
C37 O35 1.214 . S
O38 Cd30 2.277 . S
O38 C33 1.209 . S
C39 O36 1.258 . S
C39 O41 1.282 . S
O40 Cd32 2.277 . S
O40 C33 1.226 . S
O41 Cd32 2.356 . S
O41 C39 1.282 . S
C42 O43 1.306 . S
C42 O45 1.160 . S
O43 C42 1.306 . S
O43 Cd44 2.228 . S
Cd44 O43 2.228 . S
Cd44 O48 2.273 . S
Cd44 O52 2.277 . S
O45 C42 1.160 . S
O45 Cd46 2.203 . S
Cd46 O45 2.203 . S
Cd46 O48 2.411 . S
Cd46 O49 2.333 . S
Cd46 O50 2.352 . S
Cd46 O54 2.277 . S
Cd46 O55 2.356 . S
C47 O52 1.209 . S
C47 O54 1.226 . S
O48 Cd44 2.273 . S
O48 Cd46 2.411 . S
O48 C51 1.320 . S
O49 Cd46 2.333 . S
O49 C51 1.214 . S
O50 Cd46 2.352 . S
O50 C53 1.258 . S
C51 O48 1.320 . S
C51 O49 1.214 . S
O52 Cd44 2.277 . S
O52 C47 1.209 . S
C53 O50 1.258 . S
C53 O55 1.282 . S
O54 Cd46 2.277 . S
O54 C47 1.226 . S
O55 Cd46 2.356 . S
O55 C53 1.282 . S
C56 O57 1.306 . S
C56 O59 1.160 . S
O57 C56 1.306 . S
O57 Cd58 2.228 1_655 S
Cd58 O57 2.228 1_455 S
Cd58 O62 2.273 . S
Cd58 O66 2.277 . S
O59 C56 1.160 . S
O59 Cd60 2.203 1_655 S
Cd60 O59 2.203 1_455 S
Cd60 O62 2.411 . S
Cd60 O63 2.333 . S
Cd60 O64 2.352 . S
Cd60 O68 2.277 . S
Cd60 O69 2.356 . S
C61 O66 1.209 . S
C61 O68 1.226 . S
O62 Cd58 2.273 . S
O62 Cd60 2.411 . S
O62 C65 1.320 . S
O63 Cd60 2.333 . S
O63 C65 1.214 . S
O64 Cd60 2.352 . S
O64 C67 1.258 . S
C65 O62 1.320 . S
C65 O63 1.214 . S
O66 Cd58 2.277 . S
O66 C61 1.209 . S
C67 O64 1.258 . S
C67 O69 1.282 . S
O68 Cd60 2.277 . S
O68 C61 1.226 . S
O69 Cd60 2.356 . S
O69 C67 1.282 . S
C70 O71 1.306 . S
C70 O73 1.160 . S
O71 C70 1.306 . S
O71 Cd72 2.228 . S
Cd72 O71 2.228 . S
Cd72 O76 2.273 . S
Cd72 O80 2.277 . S
O73 C70 1.160 . S
O73 Cd74 2.203 . S
Cd74 O73 2.203 . S
Cd74 O76 2.411 . S
Cd74 O77 2.333 . S
Cd74 O78 2.352 . S
Cd74 O82 2.277 . S
Cd74 O83 2.356 . S
C75 O80 1.209 . S
C75 O82 1.226 . S
O76 Cd72 2.273 . S
O76 Cd74 2.411 . S
O76 C79 1.320 . S
O77 Cd74 2.333 . S
O77 C79 1.214 . S
O78 Cd74 2.352 . S
O78 C81 1.258 . S
C79 O76 1.320 . S
C79 O77 1.214 . S
O80 Cd72 2.277 . S
O80 C75 1.209 . S
C81 O78 1.258 . S
C81 O83 1.282 . S
O82 Cd74 2.277 . S
O82 C75 1.226 . S
O83 Cd74 2.356 . S
O83 C81 1.282 . S
C84 O85 1.306 . S
C84 O87 1.160 . S
O85 C84 1.306 . S
O85 Cd86 2.228 . S
Cd86 O85 2.228 . S
Cd86 O90 2.273 . S
Cd86 O94 2.277 . S
O87 C84 1.160 . S
O87 Cd88 2.203 . S
Cd88 O87 2.203 . S
Cd88 O90 2.411 . S
Cd88 O91 2.333 . S
Cd88 O92 2.352 . S
Cd88 O96 2.277 . S
Cd88 O97 2.356 . S
C89 O94 1.209 . S
C89 O96 1.226 . S
O90 Cd86 2.273 . S
O90 Cd88 2.411 . S
O90 C93 1.320 . S
O91 Cd88 2.333 . S
O91 C93 1.214 . S
O92 Cd88 2.352 . S
O92 C95 1.258 . S
C93 O90 1.320 . S
C93 O91 1.214 . S
O94 Cd86 2.277 . S
O94 C89 1.209 . S
C95 O92 1.258 . S
C95 O97 1.282 . S
O96 Cd88 2.277 . S
O96 C89 1.226 . S
O97 Cd88 2.356 . S
O97 C95 1.282 . S
C98 O99 1.306 . S
C98 O101 1.160 . S
O99 C98 1.306 . S
O99 Cd100 2.228 1_655 S
Cd100 O99 2.228 1_455 S
Cd100 O104 2.273 . S
Cd100 O108 2.277 . S
O101 C98 1.160 . S
O101 Cd102 2.203 1_655 S
Cd102 O101 2.203 1_455 S
Cd102 O104 2.411 . S
Cd102 O105 2.333 . S
Cd102 O106 2.352 1_455 S
Cd102 O110 2.277 . S
Cd102 O111 2.356 . S
C103 O108 1.209 . S
C103 O110 1.226 . S
O104 Cd100 2.273 . S
O104 Cd102 2.411 . S
O104 C107 1.320 . S
O105 Cd102 2.333 . S
O105 C107 1.214 . S
O106 Cd102 2.352 1_655 S
O106 C109 1.258 . S
C107 O104 1.320 . S
C107 O105 1.214 . S
O108 Cd100 2.277 . S
O108 C103 1.209 . S
C109 O106 1.258 . S
C109 O111 1.282 1_655 S
O110 Cd102 2.277 . S
O110 C103 1.226 . S
O111 Cd102 2.356 . S
O111 C109 1.282 1_455 S
C112 O113 1.306 . S
C112 O115 1.160 . S
O113 C112 1.306 . S
O113 Cd114 2.228 1_545 S
Cd114 O113 2.228 1_565 S
Cd114 O118 2.273 1_565 S
Cd114 O122 2.277 . S
O115 C112 1.160 . S
O115 Cd116 2.203 . S
Cd116 O115 2.203 . S
Cd116 O118 2.411 . S
Cd116 O119 2.333 . S
Cd116 O120 2.352 . S
Cd116 O124 2.277 1_545 S
Cd116 O125 2.356 . S
C117 O122 1.209 . S
C117 O124 1.226 . S
O118 Cd114 2.273 1_545 S
O118 Cd116 2.411 . S
O118 C121 1.320 . S
O119 Cd116 2.333 . S
O119 C121 1.214 . S
O120 Cd116 2.352 . S
O120 C123 1.258 . S
C121 O118 1.320 . S
C121 O119 1.214 . S
O122 Cd114 2.277 . S
O122 C117 1.209 . S
C123 O120 1.258 . S
C123 O125 1.282 . S
O124 Cd116 2.277 1_565 S
O124 C117 1.226 . S
O125 Cd116 2.356 . S
O125 C123 1.282 . S
C126 O127 1.306 . S
C126 O129 1.160 . S
O127 C126 1.306 . S
O127 Cd128 2.228 . S
Cd128 O127 2.228 . S
Cd128 O132 2.273 . S
Cd128 O136 2.277 . S
O129 C126 1.160 . S
O129 Cd130 2.203 . S
Cd130 O129 2.203 . S
Cd130 O132 2.411 . S
Cd130 O133 2.333 . S
Cd130 O134 2.352 . S
Cd130 O138 2.277 . S
Cd130 O139 2.356 . S
C131 O136 1.209 . S
C131 O138 1.226 . S
O132 Cd128 2.273 . S
O132 Cd130 2.411 . S
O132 C135 1.320 . S
O133 Cd130 2.333 . S
O133 C135 1.214 . S
O134 Cd130 2.352 . S
O134 C137 1.258 . S
C135 O132 1.320 . S
C135 O133 1.214 . S
O136 Cd128 2.277 . S
O136 C131 1.209 . S
C137 O134 1.258 . S
C137 O139 1.282 . S
O138 Cd130 2.277 . S
O138 C131 1.226 . S
O139 Cd130 2.356 . S
O139 C137 1.282 . S
C140 O141 1.306 . S
C140 O143 1.151 1_545 S
O141 C140 1.306 . S
O141 Cd142 2.228 . S
Cd142 O141 2.228 . S
Cd142 O146 2.273 1_545 S
Cd142 O150 2.277 . S
O143 C140 1.151 1_565 S
O143 Cd144 2.203 . S
Cd144 O143 2.203 . S
Cd144 O146 2.411 . S
Cd144 O147 2.333 . S
Cd144 O148 2.352 . S
Cd144 O152 2.277 1_565 S
Cd144 O153 2.356 . S
C145 O150 1.209 . S
C145 O152 1.226 . S
O146 Cd142 2.273 1_565 S
O146 Cd144 2.411 . S
O146 C149 1.320 . S
O147 Cd144 2.333 . S
O147 C149 1.214 . S
O148 Cd144 2.352 . S
O148 C151 1.258 . S
C149 O146 1.320 . S
C149 O147 1.214 . S
O150 Cd142 2.277 . S
O150 C145 1.209 . S
C151 O148 1.258 . S
C151 O153 1.282 . S
O152 Cd144 2.277 1_545 S
O152 C145 1.226 . S
O153 Cd144 2.356 . S
O153 C151 1.282 . S
C154 O155 1.306 . S
C154 O157 1.160 . S
O155 C154 1.306 . S
O155 Cd156 2.228 1_554 S
Cd156 O155 2.228 1_556 S
Cd156 O160 2.273 1_556 S
Cd156 O164 2.277 . S
O157 C154 1.160 . S
O157 Cd158 2.203 . S
Cd158 O157 2.203 . S
Cd158 O160 2.411 . S
Cd158 O161 2.333 . S
Cd158 O162 2.352 . S
Cd158 O166 2.277 1_554 S
Cd158 O167 2.356 . S
C159 O164 1.209 . S
C159 O166 1.226 . S
O160 Cd156 2.273 1_554 S
O160 Cd158 2.411 . S
O160 C163 1.320 . S
O161 Cd158 2.333 . S
O161 C163 1.214 . S
O162 Cd158 2.352 . S
O162 C165 1.258 . S
C163 O160 1.320 . S
C163 O161 1.214 . S
O164 Cd156 2.277 . S
O164 C159 1.209 . S
C165 O162 1.258 . S
C165 O167 1.282 . S
O166 Cd158 2.277 1_556 S
O166 C159 1.226 . S
O167 Cd158 2.356 . S
O167 C165 1.282 . S
C168 O169 1.306 . S
C168 O171 1.160 . S
O169 C168 1.306 . S
O169 Cd170 2.228 1_554 S
Cd170 O169 2.228 1_556 S
Cd170 O174 2.273 1_556 S
Cd170 O178 2.277 . S
O171 C168 1.160 . S
O171 Cd172 2.203 . S
Cd172 O171 2.203 . S
Cd172 O174 2.411 . S
Cd172 O175 2.333 . S
Cd172 O176 2.352 . S
Cd172 O180 2.277 1_554 S
Cd172 O181 2.356 . S
C173 O178 1.209 . S
C173 O180 1.226 . S
O174 Cd170 2.273 1_554 S
O174 Cd172 2.411 . S
O174 C177 1.320 . S
O175 Cd172 2.333 . S
O175 C177 1.214 . S
O176 Cd172 2.352 . S
O176 C179 1.258 . S
C177 O174 1.320 . S
C177 O175 1.214 . S
O178 Cd170 2.277 . S
O178 C173 1.209 . S
C179 O176 1.258 . S
C179 O181 1.282 . S
O180 Cd172 2.277 1_556 S
O180 C173 1.226 . S
O181 Cd172 2.356 . S
O181 C179 1.282 . S
C182 O183 1.306 . S
C182 O185 1.160 1_554 S
O183 C182 1.306 . S
O183 Cd184 2.228 . S
Cd184 O183 2.228 . S
Cd184 O188 2.273 1_554 S
Cd184 O192 2.277 . S
O185 C182 1.160 1_556 S
O185 Cd186 2.203 . S
Cd186 O185 2.203 . S
Cd186 O188 2.411 . S
Cd186 O189 2.333 . S
Cd186 O190 2.352 . S
Cd186 O194 2.277 1_556 S
Cd186 O195 2.356 . S
C187 O192 1.209 . S
C187 O194 1.226 . S
O188 Cd184 2.273 1_556 S
O188 Cd186 2.411 . S
O188 C191 1.320 . S
O189 Cd186 2.333 . S
O189 C191 1.214 . S
O190 Cd186 2.352 . S
O190 C193 1.258 . S
C191 O188 1.320 . S
C191 O189 1.214 . S
O192 Cd184 2.277 . S
O192 C187 1.209 . S
C193 O190 1.258 . S
C193 O195 1.282 . S
O194 Cd186 2.277 1_554 S
O194 C187 1.226 . S
O195 Cd186 2.356 . S
O195 C193 1.282 . S
C196 O197 1.306 . S
C196 O199 1.160 . S
O197 C196 1.306 . S
O197 Cd198 2.228 . S
Cd198 O197 2.228 . S
Cd198 O202 2.273 . S
Cd198 O206 2.277 . S
O199 C196 1.160 . S
O199 Cd200 2.203 . S
Cd200 O199 2.203 . S
Cd200 O202 2.411 . S
Cd200 O203 2.333 . S
Cd200 O204 2.352 . S
Cd200 O208 2.277 . S
Cd200 O209 2.356 . S
C201 O206 1.209 . S
C201 O208 1.226 . S
O202 Cd198 2.273 . S
O202 Cd200 2.411 . S
O202 C205 1.320 . S
O203 Cd200 2.333 . S
O203 C205 1.214 . S
O204 Cd200 2.352 . S
O204 C207 1.258 . S
C205 O202 1.320 . S
C205 O203 1.214 . S
O206 Cd198 2.277 . S
O206 C201 1.209 . S
C207 O204 1.258 . S
C207 O209 1.282 . S
O208 Cd200 2.277 . S
O208 C201 1.226 . S
O209 Cd200 2.356 . S
O209 C207 1.282 . S
C210 O211 1.306 . S
C210 O213 1.160 . S
O211 C210 1.306 . S
O211 Cd212 2.228 . S
Cd212 O211 2.228 . S
Cd212 O216 2.273 . S
Cd212 O220 2.277 . S
O213 C210 1.160 . S
O213 Cd214 2.203 . S
Cd214 O213 2.203 . S
Cd214 O216 2.411 . S
Cd214 O217 2.333 . S
Cd214 O218 2.352 . S
Cd214 O222 2.277 . S
Cd214 O223 2.356 . S
C215 O220 1.209 . S
C215 O222 1.226 . S
O216 Cd212 2.273 . S
O216 Cd214 2.411 . S
O216 C219 1.320 . S
O217 Cd214 2.333 . S
O217 C219 1.214 . S
O218 Cd214 2.352 . S
O218 C221 1.258 . S
C219 O216 1.320 . S
C219 O217 1.214 . S
O220 Cd212 2.277 . S
O220 C215 1.209 . S
C221 O218 1.258 . S
C221 O223 1.282 . S
O222 Cd214 2.277 . S
O222 C215 1.226 . S
O223 Cd214 2.356 . S
O223 C221 1.282 . S
C224 O225 1.306 . S
C224 O227 1.160 . S
O225 C224 1.306 . S
O225 Cd226 2.228 . S
Cd226 O225 2.228 . S
Cd226 O230 2.273 . S
Cd226 O234 2.277 1_545 S
O227 C224 1.160 . S
O227 Cd228 2.203 . S
Cd228 O227 2.203 . S
Cd228 O230 2.411 . S
Cd228 O231 2.333 . S
Cd228 O232 2.352 . S
Cd228 O236 2.277 . S
Cd228 O237 2.356 . S
C229 O234 1.209 . S
C229 O236 1.226 1_565 S
O230 Cd226 2.273 . S
O230 Cd228 2.411 . S
O230 C233 1.320 . S
O231 Cd228 2.333 . S
O231 C233 1.214 . S
O232 Cd228 2.352 . S
O232 C235 1.258 . S
C233 O230 1.320 . S
C233 O231 1.214 . S
O234 Cd226 2.277 1_565 S
O234 C229 1.209 . S
C235 O232 1.258 . S
C235 O237 1.282 . S
O236 Cd228 2.277 . S
O236 C229 1.226 1_545 S
O237 Cd228 2.356 . S
O237 C235 1.282 . S
C238 O239 1.306 . S
C238 O241 1.160 . S
O239 C238 1.306 . S
O239 Cd240 2.228 . S
Cd240 O239 2.228 . S
Cd240 O244 2.273 . S
Cd240 O248 2.277 . S
O241 C238 1.160 . S
O241 Cd242 2.203 . S
Cd242 O241 2.203 . S
Cd242 O244 2.411 . S
Cd242 O245 2.333 . S
Cd242 O246 2.352 . S
Cd242 O250 2.277 . S
Cd242 O251 2.356 . S
C243 O248 1.209 . S
C243 O250 1.226 . S
O244 Cd240 2.273 . S
O244 Cd242 2.411 . S
O244 C247 1.320 . S
O245 Cd242 2.333 . S
O245 C247 1.214 . S
O246 Cd242 2.352 . S
O246 C249 1.258 . S
C247 O244 1.320 . S
C247 O245 1.214 . S
O248 Cd240 2.277 . S
O248 C243 1.209 . S
C249 O246 1.258 . S
C249 O251 1.282 . S
O250 Cd242 2.277 . S
O250 C243 1.226 . S
O251 Cd242 2.356 . S
O251 C249 1.282 . S
C252 O253 1.306 . S
C252 O255 1.160 . S
O253 C252 1.306 . S
O253 Cd254 2.228 . S
Cd254 O253 2.228 . S
Cd254 O258 2.273 . S
Cd254 O262 2.277 . S
O255 C252 1.160 . S
O255 Cd256 2.203 . S
Cd256 O255 2.203 . S
Cd256 O258 2.411 . S
Cd256 O259 2.333 . S
Cd256 O260 2.352 . S
Cd256 O264 2.277 . S
Cd256 O265 2.356 . S
C257 O262 1.209 . S
C257 O264 1.226 . S
O258 Cd254 2.273 . S
O258 Cd256 2.411 . S
O258 C261 1.320 . S
O259 Cd256 2.333 . S
O259 C261 1.214 . S
O260 Cd256 2.352 . S
O260 C263 1.258 . S
C261 O258 1.320 . S
C261 O259 1.214 . S
O262 Cd254 2.277 . S
O262 C257 1.209 . S
C263 O260 1.258 . S
C263 O265 1.282 . S
O264 Cd256 2.277 . S
O264 C257 1.226 . S
O265 Cd256 2.356 . S
O265 C263 1.282 . S
C266 O267 1.306 . S
C266 O269 1.160 . S
O267 C266 1.306 . S
O267 Cd268 2.228 . S
Cd268 O267 2.228 . S
Cd268 O272 2.273 . S
Cd268 O276 2.277 . S
O269 C266 1.160 . S
O269 Cd270 2.203 . S
Cd270 O269 2.203 . S
Cd270 O272 2.411 . S
Cd270 O273 2.333 . S
Cd270 O274 2.352 1_545 S
Cd270 O278 2.277 . S
Cd270 O279 2.356 1_545 S
C271 O276 1.209 . S
C271 O278 1.226 . S
O272 Cd268 2.273 . S
O272 Cd270 2.411 . S
O272 C275 1.320 . S
O273 Cd270 2.333 . S
O273 C275 1.214 . S
O274 Cd270 2.352 1_565 S
O274 C277 1.258 . S
C275 O272 1.320 . S
C275 O273 1.214 . S
O276 Cd268 2.277 . S
O276 C271 1.209 . S
C277 O274 1.258 . S
C277 O279 1.282 . S
O278 Cd270 2.277 . S
O278 C271 1.226 . S
O279 Cd270 2.356 1_565 S
O279 C277 1.282 . S
C280 O281 1.306 . S
C280 O283 1.160 . S
O281 C280 1.306 . S
O281 Cd282 2.228 . S
Cd282 O281 2.228 . S
Cd282 O286 2.273 . S
Cd282 O290 2.277 . S
O283 C280 1.160 . S
O283 Cd284 2.203 . S
Cd284 O283 2.203 . S
Cd284 O286 2.411 . S
Cd284 O287 2.333 . S
Cd284 O288 2.352 1_554 S
Cd284 O292 2.277 . S
Cd284 O293 2.356 1_554 S
C285 O290 1.209 . S
C285 O292 1.226 . S
O286 Cd282 2.273 . S
O286 Cd284 2.411 . S
O286 C289 1.320 . S
O287 Cd284 2.333 . S
O287 C289 1.214 . S
O288 Cd284 2.352 1_556 S
O288 C291 1.258 . S
C289 O286 1.320 . S
C289 O287 1.214 . S
O290 Cd282 2.277 . S
O290 C285 1.209 . S
C291 O288 1.258 . S
C291 O293 1.282 . S
O292 Cd284 2.277 . S
O292 C285 1.226 . S
O293 Cd284 2.356 1_556 S
O293 C291 1.282 . S
C294 O295 1.306 . S
C294 O297 1.160 . S
O295 C294 1.306 . S
O295 Cd296 2.228 . S
Cd296 O295 2.228 . S
Cd296 O300 2.273 . S
Cd296 O304 2.277 . S
O297 C294 1.160 . S
O297 Cd298 2.203 . S
Cd298 O297 2.203 . S
Cd298 O300 2.411 . S
Cd298 O301 2.333 . S
Cd298 O302 2.352 . S
Cd298 O306 2.277 . S
Cd298 O307 2.356 . S
C299 O304 1.209 . S
C299 O306 1.226 . S
O300 Cd296 2.273 . S
O300 Cd298 2.411 . S
O300 C303 1.320 . S
O301 Cd298 2.333 . S
O301 C303 1.214 . S
O302 Cd298 2.352 . S
O302 C305 1.258 . S
C303 O300 1.320 . S
C303 O301 1.214 . S
O304 Cd296 2.277 . S
O304 C299 1.209 . S
C305 O302 1.258 . S
C305 O307 1.282 . S
O306 Cd298 2.277 . S
O306 C299 1.226 . S
O307 Cd298 2.356 . S
O307 C305 1.282 . S
C308 O309 1.306 . S
C308 O311 1.160 . S
O309 C308 1.306 . S
O309 Cd310 2.228 . S
Cd310 O309 2.228 . S
Cd310 O314 2.273 . S
Cd310 O318 2.277 . S
O311 C308 1.160 . S
O311 Cd312 2.203 . S
Cd312 O311 2.203 . S
Cd312 O314 2.411 . S
Cd312 O315 2.333 . S
Cd312 O316 2.352 . S
Cd312 O320 2.277 . S
Cd312 O321 2.356 . S
C313 O318 1.209 . S
C313 O320 1.226 . S
O314 Cd310 2.273 . S
O314 Cd312 2.411 . S
O314 C317 1.320 . S
O315 Cd312 2.333 . S
O315 C317 1.214 . S
O316 Cd312 2.352 . S
O316 C319 1.258 . S
C317 O314 1.320 . S
C317 O315 1.214 . S
O318 Cd310 2.277 . S
O318 C313 1.209 . S
C319 O316 1.258 . S
C319 O321 1.282 . S
O320 Cd312 2.277 . S
O320 C313 1.226 . S
O321 Cd312 2.356 . S
O321 C319 1.282 . S
C322 O323 1.306 . S
C322 O325 1.160 . S
O323 C322 1.306 . S
O323 Cd324 2.228 . S
Cd324 O323 2.228 . S
Cd324 O328 2.273 . S
Cd324 O332 2.277 . S
O325 C322 1.160 . S
O325 Cd326 2.203 . S
Cd326 O325 2.203 . S
Cd326 O328 2.411 . S
Cd326 O329 2.333 . S
Cd326 O330 2.352 . S
Cd326 O334 2.277 . S
Cd326 O335 2.356 . S
C327 O332 1.209 . S
C327 O334 1.226 . S
O328 Cd324 2.273 . S
O328 Cd326 2.411 . S
O328 C331 1.320 . S
O329 Cd326 2.333 . S
O329 C331 1.214 . S
O330 Cd326 2.352 . S
O330 C333 1.258 . S
C331 O328 1.320 . S
C331 O329 1.214 . S
O332 Cd324 2.277 . S
O332 C327 1.209 . S
C333 O330 1.258 . S
C333 O335 1.282 . S
O334 Cd326 2.277 . S
O334 C327 1.226 . S
O335 Cd326 2.356 . S
O335 C333 1.282 . S
Dy336 O340 2.398 . S
Dy336 O341 2.491 1_556 S
Dy336 O342 2.403 . S
Dy336 O343 2.664 1_655 S
Dy336 O347 2.326 . S
Dy336 O351 2.310 1_656 S
Dy336 O352 2.351 1_546 S
C337 O348 1.185 . S
C337 O349 1.355 . S
C338 O340 1.185 . S
C338 O341 1.355 1_556 S
Dy339 O343 2.310 1_554 S
Dy339 O346 2.351 . S
Dy339 O348 2.398 . S
Dy339 O349 2.491 . S
Dy339 O350 2.403 . S
Dy339 O351 2.664 . S
Dy339 O353 2.326 1_545 S
O340 Dy336 2.398 . S
O340 C338 1.185 . S
O341 Dy336 2.491 1_554 S
O341 C338 1.355 1_554 S
O342 Dy336 2.403 . S
O342 C344 1.254 1_655 S
O343 Dy336 2.664 1_455 S
O343 Dy339 2.310 1_556 S
O343 C344 1.268 . S
C344 O342 1.254 1_455 S
C344 O343 1.268 . S
C345 O350 1.254 . S
C345 O351 1.268 . S
O346 Dy339 2.351 . S
O346 C354 1.249 . S
O347 Dy336 2.326 . S
O347 C354 1.267 1_656 S
O348 C337 1.185 . S
O348 Dy339 2.398 . S
O349 C337 1.355 . S
O349 Dy339 2.491 . S
O350 Dy339 2.403 . S
O350 C345 1.254 . S
O351 Dy336 2.310 1_454 S
O351 Dy339 2.664 . S
O351 C345 1.268 . S
O352 Dy336 2.351 1_564 S
O352 C355 1.249 1_655 S
O353 Dy339 2.326 1_565 S
O353 C355 1.267 . S
C354 O346 1.249 . S
C354 O347 1.267 1_454 S
C355 O352 1.249 1_455 S
C355 O353 1.267 . S
Dy356 O360 2.398 . S
Dy356 O361 2.491 . S
Dy356 O362 2.403 . S
Dy356 O363 2.664 . S
Dy356 O367 2.326 . S
Dy356 O371 2.310 . S
Dy356 O372 2.351 . S
C357 O368 1.185 . S
C357 O369 1.355 . S
C358 O360 1.185 . S
C358 O361 1.355 . S
Dy359 O363 2.310 . S
Dy359 O366 2.351 . S
Dy359 O368 2.398 . S
Dy359 O369 2.491 . S
Dy359 O370 2.403 . S
Dy359 O371 2.664 . S
Dy359 O373 2.326 . S
O360 Dy356 2.398 . S
O360 C358 1.185 . S
O361 Dy356 2.491 . S
O361 C358 1.355 . S
O362 Dy356 2.403 . S
O362 C364 1.254 . S
O363 Dy356 2.664 . S
O363 Dy359 2.310 . S
O363 C364 1.268 . S
C364 O362 1.254 . S
C364 O363 1.268 . S
C365 O370 1.254 . S
C365 O371 1.268 . S
O366 Dy359 2.351 . S
O366 C374 1.249 . S
O367 Dy356 2.326 . S
O367 C374 1.267 . S
O368 C357 1.185 . S
O368 Dy359 2.398 . S
O369 C357 1.355 . S
O369 Dy359 2.491 . S
O370 Dy359 2.403 . S
O370 C365 1.254 . S
O371 Dy356 2.310 . S
O371 Dy359 2.664 . S
O371 C365 1.268 . S
O372 Dy356 2.351 . S
O372 C375 1.249 . S
O373 Dy359 2.326 . S
O373 C375 1.267 . S
C374 O366 1.249 . S
C374 O367 1.267 . S
C375 O372 1.249 . S
C375 O373 1.267 . S
Dy376 O380 2.398 . S
Dy376 O381 2.491 1_545 S
Dy376 O382 2.403 . S
Dy376 O383 2.664 . S
Dy376 O387 2.326 1_545 S
Dy376 O391 2.310 . S
Dy376 O392 2.351 . S
C377 O388 1.185 . S
C377 O389 1.355 . S
C378 O380 1.185 1_565 S
C378 O381 1.355 . S
Dy379 O383 2.310 . S
Dy379 O386 2.351 1_545 S
Dy379 O388 2.398 . S
Dy379 O389 2.491 . S
Dy379 O390 2.403 . S
Dy379 O391 2.664 . S
Dy379 O393 2.326 . S
O380 Dy376 2.398 . S
O380 C378 1.185 1_545 S
O381 Dy376 2.491 1_565 S
O381 C378 1.355 . S
O382 Dy376 2.403 . S
O382 C384 1.254 . S
O383 Dy376 2.664 . S
O383 Dy379 2.310 . S
O383 C384 1.268 . S
C384 O382 1.254 . S
C384 O383 1.268 . S
C385 O390 1.254 . S
C385 O391 1.268 . S
O386 Dy379 2.351 1_565 S
O386 C394 1.249 . S
O387 Dy376 2.326 1_565 S
O387 C394 1.267 . S
O388 C377 1.185 . S
O388 Dy379 2.398 . S
O389 C377 1.355 . S
O389 Dy379 2.491 . S
O390 Dy379 2.403 . S
O390 C385 1.254 . S
O391 Dy376 2.310 . S
O391 Dy379 2.664 . S
O391 C385 1.268 . S
O392 Dy376 2.351 . S
O392 C395 1.249 . S
O393 Dy379 2.326 . S
O393 C395 1.267 . S
C394 O386 1.249 . S
C394 O387 1.267 . S
C395 O392 1.249 . S
C395 O393 1.267 . S
Dy396 O400 2.398 . S
Dy396 O401 2.491 . S
Dy396 O402 2.403 . S
Dy396 O403 2.664 . S
Dy396 O407 2.326 . S
Dy396 O411 2.310 . S
Dy396 O412 2.351 . S
C397 O408 1.185 . S
C397 O409 1.355 . S
C398 O400 1.185 . S
C398 O401 1.355 . S
Dy399 O403 2.310 . S
Dy399 O406 2.351 . S
Dy399 O408 2.398 . S
Dy399 O409 2.491 . S
Dy399 O410 2.403 . S
Dy399 O411 2.664 . S
Dy399 O413 2.326 . S
O400 Dy396 2.398 . S
O400 C398 1.185 . S
O401 Dy396 2.491 . S
O401 C398 1.355 . S
O402 Dy396 2.403 . S
O402 C404 1.254 . S
O403 Dy396 2.664 . S
O403 Dy399 2.310 . S
O403 C404 1.268 . S
C404 O402 1.254 . S
C404 O403 1.268 . S
C405 O410 1.254 . S
C405 O411 1.268 . S
O406 Dy399 2.351 . S
O406 C414 1.249 . S
O407 Dy396 2.326 . S
O407 C414 1.267 . S
O408 C397 1.185 . S
O408 Dy399 2.398 . S
O409 C397 1.355 . S
O409 Dy399 2.491 . S
O410 Dy399 2.403 . S
O410 C405 1.254 . S
O411 Dy396 2.310 . S
O411 Dy399 2.664 . S
O411 C405 1.268 . S
O412 Dy396 2.351 . S
O412 C415 1.249 . S
O413 Dy399 2.326 . S
O413 C415 1.267 . S
C414 O406 1.249 . S
C414 O407 1.267 . S
C415 O412 1.249 . S
C415 O413 1.267 . S
Dy416 O420 2.398 . S
Dy416 O421 2.491 1_455 S
Dy416 O422 2.403 . S
Dy416 O423 2.664 . S
Dy416 O427 2.326 . S
Dy416 O431 2.310 1_455 S
Dy416 O432 2.351 1_545 S
C417 O428 1.185 . S
C417 O429 1.355 . S
C418 O420 1.185 1_655 S
C418 O421 1.355 . S
Dy419 O423 2.310 . S
Dy419 O426 2.351 . S
Dy419 O428 2.398 . S
Dy419 O429 2.491 . S
Dy419 O430 2.403 1_455 S
Dy419 O431 2.664 1_455 S
Dy419 O433 2.326 1_545 S
O420 Dy416 2.398 . S
O420 C418 1.185 1_455 S
O421 Dy416 2.491 1_655 S
O421 C418 1.355 . S
O422 Dy416 2.403 . S
O422 C424 1.254 . S
O423 Dy416 2.664 . S
O423 Dy419 2.310 . S
O423 C424 1.268 . S
C424 O422 1.254 . S
C424 O423 1.268 . S
C425 O430 1.254 . S
C425 O431 1.268 . S
O426 Dy419 2.351 . S
O426 C434 1.249 . S
O427 Dy416 2.326 . S
O427 C434 1.267 . S
O428 C417 1.185 . S
O428 Dy419 2.398 . S
O429 C417 1.355 . S
O429 Dy419 2.491 . S
O430 Dy419 2.403 1_655 S
O430 C425 1.254 . S
O431 Dy416 2.310 1_655 S
O431 Dy419 2.664 1_655 S
O431 C425 1.268 . S
O432 Dy416 2.351 1_565 S
O432 C435 1.249 . S
O433 Dy419 2.326 1_565 S
O433 C435 1.267 . S
C434 O426 1.249 . S
C434 O427 1.267 . S
C435 O432 1.249 . S
C435 O433 1.267 . S
Dy436 O440 2.398 . S
Dy436 O441 2.491 . S
Dy436 O442 2.403 . S
Dy436 O443 2.664 . S
Dy436 O447 2.326 . S
Dy436 O451 2.310 . S
Dy436 O452 2.351 . S
C437 O448 1.185 . S
C437 O449 1.355 . S
C438 O440 1.185 . S
C438 O441 1.355 . S
Dy439 O443 2.310 . S
Dy439 O446 2.351 . S
Dy439 O448 2.398 . S
Dy439 O449 2.491 . S
Dy439 O450 2.403 . S
Dy439 O451 2.664 . S
Dy439 O453 2.326 . S
O440 Dy436 2.398 . S
O440 C438 1.185 . S
O441 Dy436 2.491 . S
O441 C438 1.355 . S
O442 Dy436 2.403 . S
O442 C444 1.254 . S
O443 Dy436 2.664 . S
O443 Dy439 2.310 . S
O443 C444 1.268 . S
C444 O442 1.254 . S
C444 O443 1.268 . S
C445 O450 1.254 . S
C445 O451 1.268 . S
O446 Dy439 2.351 . S
O446 C454 1.249 . S
O447 Dy436 2.326 . S
O447 C454 1.267 . S
O448 C437 1.185 . S
O448 Dy439 2.398 . S
O449 C437 1.355 . S
O449 Dy439 2.491 . S
O450 Dy439 2.403 . S
O450 C445 1.254 . S
O451 Dy436 2.310 . S
O451 Dy439 2.664 . S
O451 C445 1.268 . S
O452 Dy436 2.351 . S
O452 C455 1.249 . S
O453 Dy439 2.326 . S
O453 C455 1.267 . S
C454 O446 1.249 . S
C454 O447 1.267 . S
C455 O452 1.249 . S
C455 O453 1.267 . S
Dy456 O460 2.398 1_545 S
Dy456 O461 2.491 . S
Dy456 O462 2.403 1_545 S
Dy456 O463 2.657 1_544 S
Dy456 O467 2.326 1_545 S
Dy456 O471 2.310 . S
Dy456 O472 2.351 . S
C457 O468 1.185 . S
C457 O469 1.355 . S
C458 O460 1.185 1_545 S
C458 O461 1.355 . S
Dy459 O463 2.281 1_545 S
Dy459 O466 2.351 . S
Dy459 O468 2.398 . S
Dy459 O469 2.491 . S
Dy459 O470 2.403 . S
Dy459 O471 2.664 1_556 S
Dy459 O473 2.326 . S
O460 Dy456 2.398 1_565 S
O460 C458 1.185 1_565 S
O461 Dy456 2.491 . S
O461 C458 1.355 . S
O462 Dy456 2.403 1_565 S
O462 C464 1.254 . S
O463 Dy456 2.657 1_566 S
O463 Dy459 2.281 1_565 S
O463 C464 1.301 1_556 S
C464 O462 1.254 . S
C464 O463 1.301 1_554 S
C465 O470 1.254 1_554 S
C465 O471 1.268 . S
O466 Dy459 2.351 . S
O466 C474 1.249 1_556 S
O467 Dy456 2.326 1_565 S
O467 C474 1.267 1_565 S
O468 C457 1.185 . S
O468 Dy459 2.398 . S
O469 C457 1.355 . S
O469 Dy459 2.491 . S
O470 Dy459 2.403 . S
O470 C465 1.254 1_556 S
O471 Dy456 2.310 . S
O471 Dy459 2.664 1_554 S
O471 C465 1.268 . S
O472 Dy456 2.351 . S
O472 C475 1.249 . S
O473 Dy459 2.326 . S
O473 C475 1.267 1_556 S
C474 O466 1.249 1_554 S
C474 O467 1.267 1_545 S
C475 O472 1.249 . S
C475 O473 1.267 1_554 S
Dy476 O480 2.398 . S
Dy476 O481 2.491 . S
Dy476 O482 2.403 . S
Dy476 O483 2.664 . S
Dy476 O487 2.326 . S
Dy476 O491 2.310 . S
Dy476 O492 2.351 . S
C477 O488 1.185 . S
C477 O489 1.355 . S
C478 O480 1.185 . S
C478 O481 1.355 . S
Dy479 O483 2.310 . S
Dy479 O486 2.351 . S
Dy479 O488 2.398 . S
Dy479 O489 2.491 . S
Dy479 O490 2.403 . S
Dy479 O491 2.664 . S
Dy479 O493 2.326 . S
O480 Dy476 2.398 . S
O480 C478 1.185 . S
O481 Dy476 2.491 . S
O481 C478 1.355 . S
O482 Dy476 2.403 . S
O482 C484 1.254 . S
O483 Dy476 2.664 . S
O483 Dy479 2.310 . S
O483 C484 1.268 . S
C484 O482 1.254 . S
C484 O483 1.268 . S
C485 O490 1.254 . S
C485 O491 1.268 . S
O486 Dy479 2.351 . S
O486 C494 1.249 . S
O487 Dy476 2.326 . S
O487 C494 1.267 . S
O488 C477 1.185 . S
O488 Dy479 2.398 . S
O489 C477 1.355 . S
O489 Dy479 2.491 . S
O490 Dy479 2.403 . S
O490 C485 1.254 . S
O491 Dy476 2.310 . S
O491 Dy479 2.664 . S
O491 C485 1.268 . S
O492 Dy476 2.351 . S
O492 C495 1.249 . S
O493 Dy479 2.326 . S
O493 C495 1.267 . S
C494 O486 1.249 . S
C494 O487 1.267 . S
C495 O492 1.249 . S
C495 O493 1.267 . S
Dy496 O500 2.398 . S
Dy496 O501 2.491 . S
Dy496 O502 2.403 . S
Dy496 O503 2.664 1_556 S
Dy496 O507 2.326 . S
Dy496 O511 2.310 1_556 S
Dy496 O512 2.351 1_556 S
C497 O508 1.185 . S
C497 O509 1.355 . S
C498 O500 1.185 . S
C498 O501 1.355 . S
Dy499 O503 2.310 . S
Dy499 O506 2.351 . S
Dy499 O508 2.398 . S
Dy499 O509 2.491 . S
Dy499 O510 2.403 . S
Dy499 O511 2.664 . S
Dy499 O513 2.326 . S
O500 Dy496 2.398 . S
O500 C498 1.185 . S
O501 Dy496 2.491 . S
O501 C498 1.355 . S
O502 Dy496 2.403 . S
O502 C504 1.266 . S
O503 Dy496 2.664 1_554 S
O503 Dy499 2.310 . S
O503 C504 1.260 1_554 S
C504 O502 1.266 . S
C504 O503 1.260 1_556 S
C505 O510 1.254 . S
C505 O511 1.268 . S
O506 Dy499 2.351 . S
O506 C514 1.249 1_554 S
O507 Dy496 2.326 . S
O507 C514 1.267 . S
O508 C497 1.185 . S
O508 Dy499 2.398 . S
O509 C497 1.355 . S
O509 Dy499 2.491 . S
O510 Dy499 2.403 . S
O510 C505 1.254 . S
O511 Dy496 2.310 1_554 S
O511 Dy499 2.664 . S
O511 C505 1.268 . S
O512 Dy496 2.351 1_554 S
O512 C515 1.249 . S
O513 Dy499 2.326 . S
O513 C515 1.267 . S
C514 O506 1.249 1_556 S
C514 O507 1.267 . S
C515 O512 1.249 . S
C515 O513 1.267 . S
Dy516 O520 2.398 . S
Dy516 O521 2.491 . S
Dy516 O522 2.403 . S
Dy516 O523 2.664 . S
Dy516 O527 2.326 . S
Dy516 O531 2.310 . S
Dy516 O532 2.351 . S
C517 O528 1.185 . S
C517 O529 1.355 . S
C518 O520 1.185 . S
C518 O521 1.355 . S
Dy519 O523 2.310 . S
Dy519 O526 2.351 . S
Dy519 O528 2.398 . S
Dy519 O529 2.491 . S
Dy519 O530 2.403 . S
Dy519 O531 2.664 . S
Dy519 O533 2.326 . S
O520 Dy516 2.398 . S
O520 C518 1.185 . S
O521 Dy516 2.491 . S
O521 C518 1.355 . S
O522 Dy516 2.403 . S
O522 C524 1.254 . S
O523 Dy516 2.664 . S
O523 Dy519 2.310 . S
O523 C524 1.268 . S
C524 O522 1.254 . S
C524 O523 1.268 . S
C525 O530 1.254 . S
C525 O531 1.268 . S
O526 Dy519 2.351 . S
O526 C534 1.249 . S
O527 Dy516 2.326 . S
O527 C534 1.267 . S
O528 C517 1.185 . S
O528 Dy519 2.398 . S
O529 C517 1.355 . S
O529 Dy519 2.491 . S
O530 Dy519 2.403 . S
O530 C525 1.254 . S
O531 Dy516 2.310 . S
O531 Dy519 2.664 . S
O531 C525 1.268 . S
O532 Dy516 2.351 . S
O532 C535 1.249 . S
O533 Dy519 2.326 . S
O533 C535 1.267 . S
C534 O526 1.249 . S
C534 O527 1.267 . S
C535 O532 1.249 . S
C535 O533 1.267 . S
Dy536 O540 2.398 1_455 S
Dy536 O541 2.491 1_455 S
Dy536 O542 2.403 . S
Dy536 O543 2.664 . S
Dy536 O547 2.326 1_455 S
Dy536 O551 2.310 . S
Dy536 O552 2.351 . S
C537 O548 1.185 . S
C537 O549 1.355 . S
C538 O540 1.185 . S
C538 O541 1.355 . S
Dy539 O543 2.310 . S
Dy539 O546 2.351 1_455 S
Dy539 O548 2.398 . S
Dy539 O549 2.491 . S
Dy539 O550 2.403 . S
Dy539 O551 2.664 . S
Dy539 O553 2.326 . S
O540 Dy536 2.398 1_655 S
O540 C538 1.185 . S
O541 Dy536 2.491 1_655 S
O541 C538 1.355 . S
O542 Dy536 2.403 . S
O542 C544 1.254 . S
O543 Dy536 2.664 . S
O543 Dy539 2.310 . S
O543 C544 1.268 . S
C544 O542 1.254 . S
C544 O543 1.268 . S
C545 O550 1.254 . S
C545 O551 1.268 . S
O546 Dy539 2.351 1_655 S
O546 C554 1.249 . S
O547 Dy536 2.326 1_655 S
O547 C554 1.267 . S
O548 C537 1.185 . S
O548 Dy539 2.398 . S
O549 C537 1.355 . S
O549 Dy539 2.491 . S
O550 Dy539 2.403 . S
O550 C545 1.254 . S
O551 Dy536 2.310 . S
O551 Dy539 2.664 . S
O551 C545 1.268 . S
O552 Dy536 2.351 . S
O552 C555 1.249 . S
O553 Dy539 2.326 . S
O553 C555 1.267 . S
C554 O546 1.249 . S
C554 O547 1.267 . S
C555 O552 1.249 . S
C555 O553 1.267 . S
Dy556 O560 2.398 . S
Dy556 O561 2.491 . S
Dy556 O562 2.403 . S
Dy556 O563 2.664 . S
Dy556 O567 2.326 . S
Dy556 O571 2.310 . S
Dy556 O572 2.351 . S
C557 O568 1.185 . S
C557 O569 1.355 . S
C558 O560 1.185 . S
C558 O561 1.355 . S
Dy559 O563 2.310 . S
Dy559 O566 2.351 . S
Dy559 O568 2.398 . S
Dy559 O569 2.491 . S
Dy559 O570 2.403 . S
Dy559 O571 2.664 . S
Dy559 O573 2.326 . S
O560 Dy556 2.398 . S
O560 C558 1.185 . S
O561 Dy556 2.491 . S
O561 C558 1.355 . S
O562 Dy556 2.403 . S
O562 C564 1.254 . S
O563 Dy556 2.664 . S
O563 Dy559 2.310 . S
O563 C564 1.268 . S
C564 O562 1.254 . S
C564 O563 1.268 . S
C565 O570 1.254 . S
C565 O571 1.268 . S
O566 Dy559 2.351 . S
O566 C574 1.249 . S
O567 Dy556 2.326 . S
O567 C574 1.267 . S
O568 C557 1.185 . S
O568 Dy559 2.398 . S
O569 C557 1.355 . S
O569 Dy559 2.491 . S
O570 Dy559 2.403 . S
O570 C565 1.254 . S
O571 Dy556 2.310 . S
O571 Dy559 2.664 . S
O571 C565 1.268 . S
O572 Dy556 2.351 . S
O572 C575 1.249 . S
O573 Dy559 2.326 . S
O573 C575 1.267 . S
C574 O566 1.249 . S
C574 O567 1.267 . S
C575 O572 1.249 . S
C575 O573 1.267 . S
Dy576 O580 2.398 . S
Dy576 O581 2.491 . S
Dy576 O582 2.403 . S
Dy576 O583 2.664 . S
Dy576 O587 2.326 . S
Dy576 O591 2.310 . S
Dy576 O592 2.351 . S
C577 O588 1.185 . S
C577 O589 1.355 . S
C578 O580 1.185 . S
C578 O581 1.355 . S
Dy579 O583 2.310 . S
Dy579 O586 2.351 . S
Dy579 O588 2.398 . S
Dy579 O589 2.491 . S
Dy579 O590 2.403 . S
Dy579 O591 2.664 . S
Dy579 O593 2.326 . S
O580 Dy576 2.398 . S
O580 C578 1.185 . S
O581 Dy576 2.491 . S
O581 C578 1.355 . S
O582 Dy576 2.403 . S
O582 C584 1.254 . S
O583 Dy576 2.664 . S
O583 Dy579 2.310 . S
O583 C584 1.268 . S
C584 O582 1.254 . S
C584 O583 1.268 . S
C585 O590 1.254 . S
C585 O591 1.268 . S
O586 Dy579 2.351 . S
O586 C594 1.249 . S
O587 Dy576 2.326 . S
O587 C594 1.267 . S
O588 C577 1.185 . S
O588 Dy579 2.398 . S
O589 C577 1.355 . S
O589 Dy579 2.491 . S
O590 Dy579 2.403 . S
O590 C585 1.254 . S
O591 Dy576 2.310 . S
O591 Dy579 2.664 . S
O591 C585 1.268 . S
O592 Dy576 2.351 . S
O592 C595 1.249 . S
O593 Dy579 2.326 . S
O593 C595 1.267 . S
C594 O586 1.249 . S
C594 O587 1.267 . S
C595 O592 1.249 . S
C595 O593 1.267 . S
Dy596 O600 2.398 . S
Dy596 O601 2.491 . S
Dy596 O602 2.403 . S
Dy596 O603 2.664 . S
Dy596 O607 2.326 . S
Dy596 O611 2.310 . S
Dy596 O612 2.351 . S
C597 O608 1.185 . S
C597 O609 1.355 . S
C598 O600 1.185 . S
C598 O601 1.355 . S
Dy599 O603 2.310 . S
Dy599 O606 2.351 . S
Dy599 O608 2.398 . S
Dy599 O609 2.491 . S
Dy599 O610 2.403 . S
Dy599 O611 2.664 . S
Dy599 O613 2.326 . S
O600 Dy596 2.398 . S
O600 C598 1.185 . S
O601 Dy596 2.491 . S
O601 C598 1.355 . S
O602 Dy596 2.403 . S
O602 C604 1.254 . S
O603 Dy596 2.664 . S
O603 Dy599 2.310 . S
O603 C604 1.268 . S
C604 O602 1.254 . S
C604 O603 1.268 . S
C605 O610 1.254 . S
C605 O611 1.268 . S
O606 Dy599 2.351 . S
O606 C614 1.249 . S
O607 Dy596 2.326 . S
O607 C614 1.267 . S
O608 C597 1.185 . S
O608 Dy599 2.398 . S
O609 C597 1.355 . S
O609 Dy599 2.491 . S
O610 Dy599 2.403 . S
O610 C605 1.254 . S
O611 Dy596 2.310 . S
O611 Dy599 2.664 . S
O611 C605 1.268 . S
O612 Dy596 2.351 . S
O612 C615 1.249 . S
O613 Dy599 2.326 . S
O613 C615 1.267 . S
C614 O606 1.249 . S
C614 O607 1.267 . S
C615 O612 1.249 . S
C615 O613 1.267 . S
Dy616 O620 2.398 . S
Dy616 O621 2.491 . S
Dy616 O622 2.403 . S
Dy616 O623 2.664 . S
Dy616 O627 2.326 . S
Dy616 O631 2.310 . S
Dy616 O632 2.351 . S
C617 O628 1.185 . S
C617 O629 1.355 . S
C618 O620 1.185 . S
C618 O621 1.355 . S
Dy619 O623 2.310 . S
Dy619 O626 2.351 . S
Dy619 O628 2.398 . S
Dy619 O629 2.491 . S
Dy619 O630 2.403 . S
Dy619 O631 2.664 . S
Dy619 O633 2.326 . S
O620 Dy616 2.398 . S
O620 C618 1.185 . S
O621 Dy616 2.491 . S
O621 C618 1.355 . S
O622 Dy616 2.403 . S
O622 C624 1.254 . S
O623 Dy616 2.664 . S
O623 Dy619 2.310 . S
O623 C624 1.268 . S
C624 O622 1.254 . S
C624 O623 1.268 . S
C625 O630 1.254 . S
C625 O631 1.268 . S
O626 Dy619 2.351 . S
O626 C634 1.249 . S
O627 Dy616 2.326 . S
O627 C634 1.267 . S
O628 C617 1.185 . S
O628 Dy619 2.398 . S
O629 C617 1.355 . S
O629 Dy619 2.491 . S
O630 Dy619 2.403 . S
O630 C625 1.254 . S
O631 Dy616 2.310 . S
O631 Dy619 2.664 . S
O631 C625 1.268 . S
O632 Dy616 2.351 . S
O632 C635 1.249 . S
O633 Dy619 2.326 . S
O633 C635 1.267 . S
C634 O626 1.249 . S
C634 O627 1.267 . S
C635 O632 1.249 . S
C635 O633 1.267 . S
Dy636 O640 2.398 1_554 S
Dy636 O641 2.491 . S
Dy636 O642 2.403 1_554 S
Dy636 O643 2.664 1_554 S
Dy636 O647 2.326 1_554 S
Dy636 O651 2.310 . S
Dy636 O652 2.351 . S
C637 O648 1.185 . S
C637 O649 1.355 . S
C638 O640 1.185 . S
C638 O641 1.355 1_556 S
Dy639 O643 2.310 1_654 S
Dy639 O646 2.351 . S
Dy639 O648 2.398 . S
Dy639 O649 2.491 . S
Dy639 O650 2.403 . S
Dy639 O651 2.664 1_655 S
Dy639 O653 2.326 1_655 S
O640 Dy636 2.398 1_556 S
O640 C638 1.185 . S
O641 Dy636 2.491 . S
O641 C638 1.355 1_554 S
O642 Dy636 2.403 1_556 S
O642 C644 1.254 . S
O643 Dy636 2.664 1_556 S
O643 Dy639 2.310 1_456 S
O643 C644 1.268 . S
C644 O642 1.254 . S
C644 O643 1.268 . S
C645 O650 1.254 1_455 S
C645 O651 1.268 . S
O646 Dy639 2.351 . S
O646 C654 1.249 1_654 S
O647 Dy636 2.326 1_556 S
O647 C654 1.267 . S
O648 C637 1.185 . S
O648 Dy639 2.398 . S
O649 C637 1.355 . S
O649 Dy639 2.491 . S
O650 Dy639 2.403 . S
O650 C645 1.254 1_655 S
O651 Dy636 2.310 . S
O651 Dy639 2.664 1_455 S
O651 C645 1.268 . S
O652 Dy636 2.351 . S
O652 C655 1.249 . S
O653 Dy639 2.326 1_455 S
O653 C655 1.267 . S
C654 O646 1.249 1_456 S
C654 O647 1.267 . S
C655 O652 1.249 . S
C655 O653 1.267 . S
H656 C662 0.930 . S
H657 C666 0.930 1_554 S
H658 C671 0.929 . S
H659 C669 0.929 . S
H660 C664 0.929 . S
H661 C670 0.929 . S
C662 H656 0.930 . S
C662 C663 1.326 1_455 S
C662 C670 1.378 . S
C663 C662 1.326 1_655 S
C663 C671 1.465 . S
C664 H660 0.929 . S
C664 C666 1.378 . S
C664 C668 1.350 1_655 S
C665 C668 1.463 . S
C665 C670 1.350 . S
C665 N673 1.427 1_455 S
C666 H657 0.930 1_556 S
C666 C664 1.378 . S
C666 C667 1.367 1_655 S
C667 C666 1.367 1_455 S
C667 C669 1.433 . S
C668 C664 1.350 1_455 S
C668 C665 1.463 . S
C668 N672 1.427 . S
C669 H659 0.929 . S
C669 C667 1.433 . S
C669 N672 1.384 . S
C670 H661 0.929 . S
C670 C662 1.378 . S
C670 C665 1.350 . S
C671 H658 0.929 . S
C671 C663 1.465 . S
C671 N673 1.384 . S
N672 C668 1.427 . S
N672 C669 1.384 . S
N673 C665 1.427 1_655 S
N673 C671 1.384 . S
H674 C680 0.930 . S
H675 C684 0.930 . S
H676 C689 0.929 . S
H677 C687 0.929 . S
H678 C682 0.929 . S
H679 C688 0.929 . S
C680 H674 0.930 . S
C680 C681 1.367 . S
C680 C688 1.378 . S
C681 C680 1.367 . S
C681 C689 1.433 . S
C682 H678 0.929 . S
C682 C684 1.378 . S
C682 C686 1.350 . S
C683 C686 1.463 . S
C683 C688 1.350 . S
C683 N691 1.427 . S
C684 H675 0.930 . S
C684 C682 1.378 . S
C684 C685 1.367 . S
C685 C684 1.367 . S
C685 C687 1.433 . S
C686 C682 1.350 . S
C686 C683 1.463 . S
C686 N690 1.427 . S
C687 H677 0.929 . S
C687 C685 1.433 . S
C687 N690 1.384 . S
C688 H679 0.929 . S
C688 C680 1.378 . S
C688 C683 1.350 . S
C689 H676 0.929 . S
C689 C681 1.433 . S
C689 N691 1.384 . S
N690 C686 1.427 . S
N690 C687 1.384 . S
N691 C683 1.427 . S
N691 C689 1.384 . S
H692 C698 0.930 . S
H693 C702 0.930 . S
H694 C707 0.929 . S
H695 C705 0.929 . S
H696 C700 0.929 . S
H697 C706 0.929 . S
C698 H692 0.930 . S
C698 C699 1.367 . S
C698 C706 1.378 . S
C699 C698 1.367 . S
C699 C707 1.433 . S
C700 H696 0.929 . S
C700 C702 1.378 . S
C700 C704 1.350 . S
C701 C704 1.463 . S
C701 C706 1.350 . S
C701 N709 1.427 . S
C702 H693 0.930 . S
C702 C700 1.378 . S
C702 C703 1.367 . S
C703 C702 1.367 . S
C703 C705 1.433 . S
C704 C700 1.350 . S
C704 C701 1.463 . S
C704 N708 1.427 . S
C705 H695 0.929 . S
C705 C703 1.433 . S
C705 N708 1.384 . S
C706 H697 0.929 . S
C706 C698 1.378 . S
C706 C701 1.350 . S
C707 H694 0.929 . S
C707 C699 1.433 . S
C707 N709 1.384 . S
N708 C704 1.427 . S
N708 C705 1.384 . S
N709 C701 1.427 . S
N709 C707 1.384 . S
H710 C716 0.930 . S
H711 C720 0.930 . S
H712 C725 0.929 . S
H713 C723 0.929 . S
H714 C718 0.929 . S
H715 C724 0.929 . S
C716 H710 0.930 . S
C716 C717 1.367 . S
C716 C724 1.378 . S
C717 C716 1.367 . S
C717 C725 1.433 . S
C718 H714 0.929 . S
C718 C720 1.378 . S
C718 C722 1.350 . S
C719 C722 1.463 . S
C719 C724 1.350 . S
C719 N727 1.427 . S
C720 H711 0.930 . S
C720 C718 1.378 . S
C720 C721 1.367 . S
C721 C720 1.367 . S
C721 C723 1.433 . S
C722 C718 1.350 . S
C722 C719 1.463 . S
C722 N726 1.427 . S
C723 H713 0.929 . S
C723 C721 1.433 . S
C723 N726 1.384 . S
C724 H715 0.929 . S
C724 C716 1.378 . S
C724 C719 1.350 . S
C725 H712 0.929 . S
C725 C717 1.433 . S
C725 N727 1.384 . S
N726 C722 1.427 . S
N726 C723 1.384 . S
N727 C719 1.427 . S
N727 C725 1.384 . S
H728 C734 0.930 . S
H729 C738 0.930 . S
H730 C743 0.929 . S
H731 C741 0.929 1_655 S
H732 C736 0.929 . S
H733 C742 0.929 . S
C734 H728 0.930 . S
C734 C735 1.367 1_655 S
C734 C742 1.378 . S
C735 C734 1.367 1_455 S
C735 C743 1.433 . S
C736 H732 0.929 . S
C736 C738 1.378 . S
C736 C740 1.350 . S
C737 C740 1.463 . S
C737 C742 1.350 1_455 S
C737 N745 1.427 . S
C738 H729 0.930 . S
C738 C736 1.378 . S
C738 C739 1.367 . S
C739 C738 1.367 . S
C739 C741 1.433 . S
C740 C736 1.350 . S
C740 C737 1.463 . S
C740 N744 1.427 . S
C741 H731 0.929 1_455 S
C741 C739 1.433 . S
C741 N744 1.384 . S
C742 H733 0.929 . S
C742 C734 1.378 . S
C742 C737 1.350 1_655 S
C743 H730 0.929 . S
C743 C735 1.433 . S
C743 N745 1.384 . S
N744 C740 1.427 . S
N744 C741 1.384 . S
N745 C737 1.427 . S
N745 C743 1.384 . S
H746 C752 0.930 . S
H747 C756 0.930 . S
H748 C761 0.929 . S
H749 C759 0.929 . S
H750 C754 0.929 . S
H751 C760 0.929 . S
C752 H746 0.930 . S
C752 C753 1.367 . S
C752 C760 1.378 . S
C753 C752 1.367 . S
C753 C761 1.433 . S
C754 H750 0.929 . S
C754 C756 1.378 . S
C754 C758 1.350 . S
C755 C758 1.463 . S
C755 C760 1.350 . S
C755 N763 1.427 . S
C756 H747 0.930 . S
C756 C754 1.378 . S
C756 C757 1.367 . S
C757 C756 1.367 . S
C757 C759 1.433 . S
C758 C754 1.350 . S
C758 C755 1.463 . S
C758 N762 1.427 . S
C759 H749 0.929 . S
C759 C757 1.433 . S
C759 N762 1.384 . S
C760 H751 0.929 . S
C760 C752 1.378 . S
C760 C755 1.350 . S
C761 H748 0.929 . S
C761 C753 1.433 . S
C761 N763 1.384 . S
N762 C758 1.427 . S
N762 C759 1.384 . S
N763 C755 1.427 . S
N763 C761 1.384 . S
H764 C770 0.930 . S
H765 C774 0.930 . S
H766 C779 0.929 . S
H767 C777 0.929 . S
H768 C772 0.929 . S
H769 C778 0.929 . S
C770 H764 0.930 . S
C770 C771 1.367 . S
C770 C778 1.378 . S
C771 C770 1.367 . S
C771 C779 1.433 . S
C772 H768 0.929 . S
C772 C774 1.378 . S
C772 C776 1.350 . S
C773 C776 1.463 . S
C773 C778 1.350 . S
C773 N781 1.427 . S
C774 H765 0.930 . S
C774 C772 1.378 . S
C774 C775 1.367 . S
C775 C774 1.367 . S
C775 C777 1.433 . S
C776 C772 1.350 . S
C776 C773 1.463 . S
C776 N780 1.427 . S
C777 H767 0.929 . S
C777 C775 1.433 . S
C777 N780 1.384 . S
C778 H769 0.929 . S
C778 C770 1.378 . S
C778 C773 1.350 . S
C779 H766 0.929 . S
C779 C771 1.433 . S
C779 N781 1.384 . S
N780 C776 1.427 . S
N780 C777 1.384 . S
N781 C773 1.427 . S
N781 C779 1.384 . S
H782 C788 0.930 . S
H783 C792 0.930 . S
H784 C797 0.929 . S
H785 C795 0.929 . S
H786 C790 0.929 . S
H787 C796 0.929 . S
C788 H782 0.930 . S
C788 C789 1.367 . S
C788 C796 1.378 . S
C789 C788 1.367 . S
C789 C797 1.433 . S
C790 H786 0.929 . S
C790 C792 1.378 . S
C790 C794 1.350 . S
C791 C794 1.463 . S
C791 C796 1.350 . S
C791 N799 1.427 . S
C792 H783 0.930 . S
C792 C790 1.378 . S
C792 C793 1.367 . S
C793 C792 1.367 . S
C793 C795 1.433 . S
C794 C790 1.350 . S
C794 C791 1.463 . S
C794 N798 1.427 . S
C795 H785 0.929 . S
C795 C793 1.433 . S
C795 N798 1.384 . S
C796 H787 0.929 . S
C796 C788 1.378 . S
C796 C791 1.350 . S
C797 H784 0.929 . S
C797 C789 1.433 . S
C797 N799 1.384 . S
N798 C794 1.427 . S
N798 C795 1.384 . S
N799 C791 1.427 . S
N799 C797 1.384 . S
H800 C806 0.930 . S
H801 C810 0.930 1_455 S
H802 C815 0.929 . S
H803 C813 0.929 . S
H804 C808 0.929 . S
H805 C814 0.929 . S
C806 H800 0.930 . S
C806 C807 1.367 . S
C806 C814 1.378 . S
C807 C806 1.367 . S
C807 C815 1.433 . S
C808 H804 0.929 . S
C808 C810 1.378 . S
C808 C812 1.350 . S
C809 C812 1.463 . S
C809 C814 1.350 . S
C809 N817 1.427 . S
C810 H801 0.930 1_655 S
C810 C808 1.378 . S
C810 C811 1.367 . S
C811 C810 1.367 . S
C811 C813 1.433 . S
C812 C808 1.350 . S
C812 C809 1.463 . S
C812 N816 1.427 . S
C813 H803 0.929 . S
C813 C811 1.433 . S
C813 N816 1.384 . S
C814 H805 0.929 . S
C814 C806 1.378 . S
C814 C809 1.350 . S
C815 H802 0.929 . S
C815 C807 1.433 . S
C815 N817 1.384 . S
N816 C812 1.427 . S
N816 C813 1.384 . S
N817 C809 1.427 . S
N817 C815 1.384 . S
H818 C824 0.930 . S
H819 C828 0.930 . S
H820 C833 0.929 . S
H821 C831 0.929 . S
H822 C826 0.929 . S
H823 C832 0.929 . S
C824 H818 0.930 . S
C824 C825 1.367 . S
C824 C832 1.378 . S
C825 C824 1.367 . S
C825 C833 1.433 . S
C826 H822 0.929 . S
C826 C828 1.378 . S
C826 C830 1.350 . S
C827 C830 1.463 . S
C827 C832 1.350 . S
C827 N835 1.427 . S
C828 H819 0.930 . S
C828 C826 1.378 . S
C828 C829 1.367 . S
C829 C828 1.367 . S
C829 C831 1.433 . S
C830 C826 1.350 . S
C830 C827 1.463 . S
C830 N834 1.427 . S
C831 H821 0.929 . S
C831 C829 1.433 . S
C831 N834 1.384 . S
C832 H823 0.929 . S
C832 C824 1.378 . S
C832 C827 1.350 . S
C833 H820 0.929 . S
C833 C825 1.433 . S
C833 N835 1.384 . S
N834 C830 1.427 . S
N834 C831 1.384 . S
N835 C827 1.427 . S
N835 C833 1.384 . S
H836 C842 0.930 . S
H837 C846 0.930 . S
H838 C851 0.929 . S
H839 C849 0.929 . S
H840 C844 0.929 . S
H841 C850 0.929 . S
C842 H836 0.930 . S
C842 C843 1.367 . S
C842 C850 1.378 . S
C843 C842 1.367 . S
C843 C851 1.433 1_545 S
C844 H840 0.929 . S
C844 C846 1.378 . S
C844 C848 1.350 1_565 S
C845 C848 1.463 . S
C845 C850 1.350 . S
C845 N853 1.427 1_545 S
C846 H837 0.930 . S
C846 C844 1.378 . S
C846 C847 1.367 1_565 S
C847 C846 1.367 1_545 S
C847 C849 1.433 . S
C848 C844 1.350 1_545 S
C848 C845 1.463 . S
C848 N852 1.427 . S
C849 H839 0.929 . S
C849 C847 1.433 . S
C849 N852 1.384 . S
C850 H841 0.929 . S
C850 C842 1.378 . S
C850 C845 1.350 . S
C851 H838 0.929 . S
C851 C843 1.433 1_565 S
C851 N853 1.384 . S
N852 C848 1.427 . S
N852 C849 1.384 . S
N853 C845 1.427 1_565 S
N853 C851 1.384 . S
H854 C860 0.930 . S
H855 C864 0.930 . S
H856 C869 0.929 . S
H857 C867 0.929 . S
H858 C862 0.929 . S
H859 C868 0.929 . S
C860 H854 0.930 . S
C860 C861 1.367 . S
C860 C868 1.378 . S
C861 C860 1.367 . S
C861 C869 1.433 . S
C862 H858 0.929 . S
C862 C864 1.378 . S
C862 C866 1.350 . S
C863 C866 1.463 . S
C863 C868 1.350 . S
C863 N871 1.427 . S
C864 H855 0.930 . S
C864 C862 1.378 . S
C864 C865 1.367 . S
C865 C864 1.367 . S
C865 C867 1.433 . S
C866 C862 1.350 . S
C866 C863 1.463 . S
C866 N870 1.427 . S
C867 H857 0.929 . S
C867 C865 1.433 . S
C867 N870 1.384 . S
C868 H859 0.929 . S
C868 C860 1.378 . S
C868 C863 1.350 . S
C869 H856 0.929 . S
C869 C861 1.433 . S
C869 N871 1.384 . S
N870 C866 1.427 . S
N870 C867 1.384 . S
N871 C863 1.427 . S
N871 C869 1.384 . S
H872 C878 0.930 . S
H873 C882 0.930 . S
H874 C887 0.929 . S
H875 C885 0.929 . S
H876 C880 0.929 . S
H877 C886 0.929 . S
C878 H872 0.930 . S
C878 C879 1.367 . S
C878 C886 1.378 . S
C879 C878 1.367 . S
C879 C887 1.433 . S
C880 H876 0.929 . S
C880 C882 1.378 . S
C880 C884 1.350 . S
C881 C884 1.463 . S
C881 C886 1.350 . S
C881 N889 1.427 . S
C882 H873 0.930 . S
C882 C880 1.378 . S
C882 C883 1.367 . S
C883 C882 1.367 . S
C883 C885 1.433 1_655 S
C884 C880 1.350 . S
C884 C881 1.463 . S
C884 N888 1.427 . S
C885 H875 0.929 . S
C885 C883 1.433 1_455 S
C885 N888 1.384 1_455 S
C886 H877 0.929 . S
C886 C878 1.378 . S
C886 C881 1.350 . S
C887 H874 0.929 . S
C887 C879 1.433 . S
C887 N889 1.384 . S
N888 C884 1.427 . S
N888 C885 1.384 1_655 S
N889 C881 1.427 . S
N889 C887 1.384 . S
H890 C896 0.930 . S
H891 C900 0.930 . S
H892 C905 0.929 . S
H893 C903 0.929 . S
H894 C898 0.929 . S
H895 C904 0.929 . S
C896 H890 0.930 . S
C896 C897 1.367 . S
C896 C904 1.378 . S
C897 C896 1.367 . S
C897 C905 1.433 . S
C898 H894 0.929 . S
C898 C900 1.378 . S
C898 C902 1.350 . S
C899 C902 1.463 . S
C899 C904 1.350 . S
C899 N907 1.427 . S
C900 H891 0.930 . S
C900 C898 1.378 . S
C900 C901 1.367 . S
C901 C900 1.367 . S
C901 C903 1.433 . S
C902 C898 1.350 . S
C902 C899 1.463 . S
C902 N906 1.427 . S
C903 H893 0.929 . S
C903 C901 1.433 . S
C903 N906 1.384 . S
C904 H895 0.929 . S
C904 C896 1.378 . S
C904 C899 1.350 . S
C905 H892 0.929 . S
C905 C897 1.433 . S
C905 N907 1.384 . S
N906 C902 1.427 . S
N906 C903 1.384 . S
N907 C899 1.427 . S
N907 C905 1.384 . S
H908 C914 0.930 . S
H909 C918 0.930 . S
H910 C923 0.929 1_565 S
H911 C921 0.929 . S
H912 C916 0.929 . S
H913 C922 0.929 . S
C914 H908 0.930 . S
C914 C915 1.367 . S
C914 C922 1.378 . S
C915 C914 1.367 . S
C915 C923 1.433 . S
C916 H912 0.929 . S
C916 C918 1.378 . S
C916 C920 1.350 . S
C917 C920 1.463 . S
C917 C922 1.350 . S
C917 N925 1.427 . S
C918 H909 0.930 . S
C918 C916 1.378 . S
C918 C919 1.367 . S
C919 C918 1.367 . S
C919 C921 1.433 . S
C920 C916 1.350 . S
C920 C917 1.463 . S
C920 N924 1.427 . S
C921 H911 0.929 . S
C921 C919 1.433 . S
C921 N924 1.384 . S
C922 H913 0.929 . S
C922 C914 1.378 . S
C922 C917 1.350 . S
C923 H910 0.929 1_545 S
C923 C915 1.433 . S
C923 N925 1.384 . S
N924 C920 1.427 . S
N924 C921 1.384 . S
N925 C917 1.427 . S
N925 C923 1.384 . S
H926 C932 0.930 . S
H927 C936 0.930 . S
H928 C941 0.929 . S
H929 C939 0.929 . S
H930 C934 0.929 . S
H931 C940 0.929 . S
C932 H926 0.930 . S
C932 C933 1.367 . S
C932 C940 1.378 . S
C933 C932 1.367 . S
C933 C941 1.433 . S
C934 H930 0.929 . S
C934 C936 1.378 . S
C934 C938 1.350 . S
C935 C938 1.463 . S
C935 C940 1.350 . S
C935 N943 1.427 . S
C936 H927 0.930 . S
C936 C934 1.378 . S
C936 C937 1.367 . S
C937 C936 1.367 . S
C937 C939 1.433 . S
C938 C934 1.350 . S
C938 C935 1.463 . S
C938 N942 1.427 . S
C939 H929 0.929 . S
C939 C937 1.433 . S
C939 N942 1.384 . S
C940 H931 0.929 . S
C940 C932 1.378 . S
C940 C935 1.350 . S
C941 H928 0.929 . S
C941 C933 1.433 . S
C941 N943 1.384 . S
N942 C938 1.427 . S
N942 C939 1.384 . S
N943 C935 1.427 . S
N943 C941 1.384 . S
H944 C950 0.930 . S
H945 C954 0.925 1_556 S
H946 C959 0.912 1_556 S
H947 C957 0.929 . S
H948 C952 0.929 1_556 S
H949 C958 0.929 . S
C950 H944 0.930 . S
C950 C951 1.367 . S
C950 C958 1.378 . S
C951 C950 1.367 . S
C951 C959 1.449 . S
C952 H948 0.929 1_554 S
C952 C954 1.378 . S
C952 C956 1.350 . S
C953 C956 1.463 . S
C953 C958 1.350 . S
C953 N961 1.427 . S
C954 H945 0.925 1_554 S
C954 C952 1.378 . S
C954 C955 1.367 . S
C955 C954 1.367 . S
C955 C957 1.433 . S
C956 C952 1.350 . S
C956 C953 1.463 . S
C956 N960 1.427 . S
C957 H947 0.929 . S
C957 C955 1.433 . S
C957 N960 1.384 . S
C958 H949 0.929 . S
C958 C950 1.378 . S
C958 C953 1.350 . S
C959 H946 0.912 1_554 S
C959 C951 1.449 . S
C959 N961 1.386 . S
N960 C956 1.427 . S
N960 C957 1.384 . S
N961 C953 1.427 . S
N961 C959 1.386 . S
H962 C968 0.930 . S
H963 C972 0.930 . S
H964 C977 0.929 . S
H965 C975 0.929 . S
H966 C970 0.929 . S
H967 C976 0.929 . S
C968 H962 0.930 . S
C968 C969 1.367 1_556 S
C968 C976 1.378 . S
C969 C968 1.367 1_554 S
C969 C977 1.433 . S
C970 H966 0.929 . S
C970 C972 1.378 . S
C970 C974 1.350 . S
C971 C974 1.463 . S
C971 C976 1.350 1_554 S
C971 N979 1.427 . S
C972 H963 0.930 . S
C972 C970 1.378 . S
C972 C973 1.367 . S
C973 C972 1.367 . S
C973 C975 1.433 1_554 S
C974 C970 1.350 . S
C974 C971 1.463 . S
C974 N978 1.427 1_554 S
C975 H965 0.929 . S
C975 C973 1.433 1_556 S
C975 N978 1.384 . S
C976 H967 0.929 . S
C976 C968 1.378 . S
C976 C971 1.350 1_556 S
C977 H964 0.929 . S
C977 C969 1.433 . S
C977 N979 1.384 . S
N978 C974 1.427 1_556 S
N978 C975 1.384 . S
N979 C971 1.427 . S
N979 C977 1.384 . S
H980 C986 0.930 . S
H981 C990 0.930 . S
H982 C995 0.929 . S
H983 C993 0.929 . S
H984 C988 0.929 . S
H985 C994 0.929 . S
C986 H980 0.930 . S
C986 C987 1.367 . S
C986 C994 1.378 . S
C987 C986 1.367 . S
C987 C995 1.433 . S
C988 H984 0.929 . S
C988 C990 1.378 . S
C988 C992 1.350 . S
C989 C992 1.463 . S
C989 C994 1.350 . S
C989 N997 1.427 . S
C990 H981 0.930 . S
C990 C988 1.378 . S
C990 C991 1.367 . S
C991 C990 1.367 . S
C991 C993 1.433 . S
C992 C988 1.350 . S
C992 C989 1.463 . S
C992 N996 1.427 . S
C993 H983 0.929 . S
C993 C991 1.433 . S
C993 N996 1.384 . S
C994 H985 0.929 . S
C994 C986 1.378 . S
C994 C989 1.350 . S
C995 H982 0.929 . S
C995 C987 1.433 . S
C995 N997 1.384 . S
N996 C992 1.427 . S
N996 C993 1.384 . S
N997 C989 1.427 . S
N997 C995 1.384 . S
H998 C1004 0.930 . S
H999 C1008 0.930 . S
H1000 C1013 0.929 . S
H1001 C1011 0.929 . S
H1002 C1006 0.929 . S
H1003 C1012 0.929 . S
C1004 H998 0.930 . S
C1004 C1005 1.367 . S
C1004 C1012 1.378 . S
C1005 C1004 1.367 . S
C1005 C1013 1.433 . S
C1006 H1002 0.929 . S
C1006 C1008 1.378 . S
C1006 C1010 1.350 . S
C1007 C1010 1.463 . S
C1007 C1012 1.350 . S
C1007 N1015 1.427 . S
C1008 H999 0.930 . S
C1008 C1006 1.378 . S
C1008 C1009 1.367 . S
C1009 C1008 1.367 . S
C1009 C1011 1.433 . S
C1010 C1006 1.350 . S
C1010 C1007 1.463 . S
C1010 N1014 1.427 . S
C1011 H1001 0.929 . S
C1011 C1009 1.433 . S
C1011 N1014 1.384 . S
C1012 H1003 0.929 . S
C1012 C1004 1.378 . S
C1012 C1007 1.350 . S
C1013 H1000 0.929 . S
C1013 C1005 1.433 . S
C1013 N1015 1.384 . S
N1014 C1010 1.427 . S
N1014 C1011 1.384 . S
N1015 C1007 1.427 . S
N1015 C1013 1.384 . S
H1016 C1022 0.930 . S
H1017 C1026 0.930 . S
H1018 C1031 0.929 . S
H1019 C1029 0.929 . S
H1020 C1024 0.929 . S
H1021 C1030 0.929 . S
C1022 H1016 0.930 . S
C1022 C1023 1.367 . S
C1022 C1030 1.378 . S
C1023 C1022 1.367 . S
C1023 C1031 1.433 . S
C1024 H1020 0.929 . S
C1024 C1026 1.378 . S
C1024 C1028 1.350 . S
C1025 C1028 1.463 . S
C1025 C1030 1.350 . S
C1025 N1033 1.427 . S
C1026 H1017 0.930 . S
C1026 C1024 1.378 . S
C1026 C1027 1.367 . S
C1027 C1026 1.367 . S
C1027 C1029 1.433 . S
C1028 C1024 1.350 . S
C1028 C1025 1.463 . S
C1028 N1032 1.427 . S
C1029 H1019 0.929 . S
C1029 C1027 1.433 . S
C1029 N1032 1.384 . S
C1030 H1021 0.929 . S
C1030 C1022 1.378 . S
C1030 C1025 1.350 . S
C1031 H1018 0.929 . S
C1031 C1023 1.433 . S
C1031 N1033 1.384 . S
N1032 C1028 1.427 . S
N1032 C1029 1.384 . S
N1033 C1025 1.427 . S
N1033 C1031 1.384 . S
H1034 C1040 0.930 . S
H1035 C1044 0.930 . S
H1036 C1049 0.929 . S
H1037 C1047 0.929 . S
H1038 C1042 0.929 . S
H1039 C1048 0.929 . S
C1040 H1034 0.930 . S
C1040 C1041 1.367 . S
C1040 C1048 1.378 . S
C1041 C1040 1.367 . S
C1041 C1049 1.433 . S
C1042 H1038 0.929 . S
C1042 C1044 1.378 . S
C1042 C1046 1.350 . S
C1043 C1046 1.463 . S
C1043 C1048 1.350 . S
C1043 N1051 1.427 . S
C1044 H1035 0.930 . S
C1044 C1042 1.378 . S
C1044 C1045 1.367 . S
C1045 C1044 1.367 . S
C1045 C1047 1.433 . S
C1046 C1042 1.350 . S
C1046 C1043 1.463 . S
C1046 N1050 1.427 . S
C1047 H1037 0.929 . S
C1047 C1045 1.433 . S
C1047 N1050 1.384 . S
C1048 H1039 0.929 . S
C1048 C1040 1.378 . S
C1048 C1043 1.350 . S
C1049 H1036 0.929 . S
C1049 C1041 1.433 . S
C1049 N1051 1.384 . S
N1050 C1046 1.427 . S
N1050 C1047 1.384 . S
N1051 C1043 1.427 . S
N1051 C1049 1.384 . S
H1052 C1058 0.930 . S
H1053 C1062 0.930 . S
H1054 C1067 0.929 . S
H1055 C1065 0.929 . S
H1056 C1060 0.929 . S
H1057 C1066 0.929 . S
C1058 H1052 0.930 . S
C1058 C1059 1.367 . S
C1058 C1066 1.378 . S
C1059 C1058 1.367 . S
C1059 C1067 1.433 . S
C1060 H1056 0.929 . S
C1060 C1062 1.378 . S
C1060 C1064 1.350 . S
C1061 C1064 1.463 . S
C1061 C1066 1.350 . S
C1061 N1069 1.427 . S
C1062 H1053 0.930 . S
C1062 C1060 1.378 . S
C1062 C1063 1.367 . S
C1063 C1062 1.367 . S
C1063 C1065 1.433 . S
C1064 C1060 1.350 . S
C1064 C1061 1.463 . S
C1064 N1068 1.427 . S
C1065 H1055 0.929 . S
C1065 C1063 1.433 . S
C1065 N1068 1.384 . S
C1066 H1057 0.929 . S
C1066 C1058 1.378 . S
C1066 C1061 1.350 . S
C1067 H1054 0.929 . S
C1067 C1059 1.433 . S
C1067 N1069 1.384 . S
N1068 C1064 1.427 . S
N1068 C1065 1.384 . S
N1069 C1061 1.427 . S
N1069 C1067 1.384 . S
H1070 C1076 0.930 . S
H1071 C1080 0.930 . S
H1072 C1085 0.929 . S
H1073 C1083 0.929 . S
H1074 C1078 0.929 . S
H1075 C1084 0.929 . S
C1076 H1070 0.930 . S
C1076 C1077 1.367 . S
C1076 C1084 1.378 . S
C1077 C1076 1.367 . S
C1077 C1085 1.433 . S
C1078 H1074 0.929 . S
C1078 C1080 1.378 . S
C1078 C1082 1.350 . S
C1079 C1082 1.463 . S
C1079 C1084 1.350 . S
C1079 N1087 1.427 . S
C1080 H1071 0.930 . S
C1080 C1078 1.378 . S
C1080 C1081 1.367 . S
C1081 C1080 1.367 . S
C1081 C1083 1.433 . S
C1082 C1078 1.350 . S
C1082 C1079 1.463 . S
C1082 N1086 1.427 . S
C1083 H1073 0.929 . S
C1083 C1081 1.433 . S
C1083 N1086 1.384 . S
C1084 H1075 0.929 . S
C1084 C1076 1.378 . S
C1084 C1079 1.350 . S
C1085 H1072 0.929 . S
C1085 C1077 1.433 . S
C1085 N1087 1.384 . S
N1086 C1082 1.427 . S
N1086 C1083 1.384 . S
N1087 C1079 1.427 . S
N1087 C1085 1.384 . S
H1088 C1094 0.930 . S
H1089 C1098 0.930 . S
H1090 C1103 0.929 1_655 S
H1091 C1101 0.929 . S
H1092 C1096 0.950 . S
H1093 C1102 0.929 . S
C1094 H1088 0.930 . S
C1094 C1095 1.367 . S
C1094 C1102 1.378 . S
C1095 C1094 1.367 . S
C1095 C1103 1.433 . S
C1096 H1092 0.950 . S
C1096 C1098 1.385 . S
C1096 C1100 1.322 1_655 S
C1097 C1100 1.463 . S
C1097 C1102 1.350 . S
C1097 N1105 1.427 . S
C1098 H1089 0.930 . S
C1098 C1096 1.385 . S
C1098 C1099 1.367 1_655 S
C1099 C1098 1.367 1_455 S
C1099 C1101 1.433 . S
C1100 C1096 1.322 1_455 S
C1100 C1097 1.463 . S
C1100 N1104 1.427 . S
C1101 H1091 0.929 . S
C1101 C1099 1.433 . S
C1101 N1104 1.384 . S
C1102 H1093 0.929 . S
C1102 C1094 1.378 . S
C1102 C1097 1.350 . S
C1103 H1090 0.929 1_455 S
C1103 C1095 1.433 . S
C1103 N1105 1.384 . S
N1104 C1100 1.427 . S
N1104 C1101 1.384 . S
N1105 C1097 1.427 . S
N1105 C1103 1.384 . S
H1106 C1112 0.930 . S
H1107 C1116 0.930 . S
H1108 C1121 0.929 . S
H1109 C1119 0.929 . S
H1110 C1114 0.929 . S
H1111 C1120 0.929 . S
C1112 H1106 0.930 . S
C1112 C1113 1.367 . S
C1112 C1120 1.378 . S
C1113 C1112 1.367 . S
C1113 C1121 1.433 . S
C1114 H1110 0.929 . S
C1114 C1116 1.378 . S
C1114 C1118 1.350 . S
C1115 C1118 1.463 . S
C1115 C1120 1.350 . S
C1115 N1123 1.427 . S
C1116 H1107 0.930 . S
C1116 C1114 1.378 . S
C1116 C1117 1.367 . S
C1117 C1116 1.367 . S
C1117 C1119 1.433 . S
C1118 C1114 1.350 . S
C1118 C1115 1.463 . S
C1118 N1122 1.427 . S
C1119 H1109 0.929 . S
C1119 C1117 1.433 . S
C1119 N1122 1.384 . S
C1120 H1111 0.929 . S
C1120 C1112 1.378 . S
C1120 C1115 1.350 . S
C1121 H1108 0.929 . S
C1121 C1113 1.433 . S
C1121 N1123 1.384 . S
N1122 C1118 1.427 . S
N1122 C1119 1.384 . S
N1123 C1115 1.427 . S
N1123 C1121 1.384 . S
H1124 C1130 0.930 . S
H1125 C1134 0.930 . S
H1126 C1139 0.929 . S
H1127 C1137 0.929 . S
H1128 C1132 0.929 . S
H1129 C1138 0.929 . S
C1130 H1124 0.930 . S
C1130 C1131 1.367 . S
C1130 C1138 1.378 . S
C1131 C1130 1.367 . S
C1131 C1139 1.433 . S
C1132 H1128 0.929 . S
C1132 C1134 1.378 . S
C1132 C1136 1.350 . S
C1133 C1136 1.463 . S
C1133 C1138 1.350 . S
C1133 N1141 1.427 . S
C1134 H1125 0.930 . S
C1134 C1132 1.378 . S
C1134 C1135 1.367 . S
C1135 C1134 1.367 . S
C1135 C1137 1.433 . S
C1136 C1132 1.350 . S
C1136 C1133 1.463 . S
C1136 N1140 1.427 . S
C1137 H1127 0.929 . S
C1137 C1135 1.433 . S
C1137 N1140 1.384 . S
C1138 H1129 0.929 . S
C1138 C1130 1.378 . S
C1138 C1133 1.350 . S
C1139 H1126 0.929 . S
C1139 C1131 1.433 . S
C1139 N1141 1.384 . S
N1140 C1136 1.427 . S
N1140 C1137 1.384 . S
N1141 C1133 1.427 . S
N1141 C1139 1.384 . S
H1142 C1148 0.930 . S
H1143 C1152 0.930 . S
H1144 C1157 0.929 . S
H1145 C1155 0.929 . S
H1146 C1150 0.929 . S
H1147 C1156 0.929 . S
C1148 H1142 0.930 . S
C1148 C1149 1.367 . S
C1148 C1156 1.378 . S
C1149 C1148 1.367 . S
C1149 C1157 1.433 . S
C1150 H1146 0.929 . S
C1150 C1152 1.378 . S
C1150 C1154 1.350 . S
C1151 C1154 1.463 . S
C1151 C1156 1.350 . S
C1151 N1159 1.427 . S
C1152 H1143 0.930 . S
C1152 C1150 1.378 . S
C1152 C1153 1.367 . S
C1153 C1152 1.367 . S
C1153 C1155 1.433 . S
C1154 C1150 1.350 . S
C1154 C1151 1.463 . S
C1154 N1158 1.427 . S
C1155 H1145 0.929 . S
C1155 C1153 1.433 . S
C1155 N1158 1.384 . S
C1156 H1147 0.929 . S
C1156 C1148 1.378 . S
C1156 C1151 1.350 . S
C1157 H1144 0.929 . S
C1157 C1149 1.433 . S
C1157 N1159 1.384 . S
N1158 C1154 1.427 . S
N1158 C1155 1.384 . S
N1159 C1151 1.427 . S
N1159 C1157 1.384 . S
H1160 C1166 0.930 . S
H1161 C1170 0.930 . S
H1162 C1175 0.932 1_655 S
H1163 C1173 0.929 . S
H1164 C1168 0.929 . S
H1165 C1174 0.929 . S
C1166 H1160 0.930 . S
C1166 C1167 1.367 . S
C1166 C1174 1.378 . S
C1167 C1166 1.367 . S
C1167 C1175 1.431 . S
C1168 H1164 0.929 . S
C1168 C1170 1.378 . S
C1168 C1172 1.350 1_655 S
C1169 C1172 1.463 . S
C1169 C1174 1.350 . S
C1169 N1177 1.427 1_455 S
C1170 H1161 0.930 . S
C1170 C1168 1.378 . S
C1170 C1171 1.367 1_655 S
C1171 C1170 1.367 1_455 S
C1171 C1173 1.433 . S
C1172 C1168 1.350 1_455 S
C1172 C1169 1.463 . S
C1172 N1176 1.427 . S
C1173 H1163 0.929 . S
C1173 C1171 1.433 . S
C1173 N1176 1.384 . S
C1174 H1165 0.929 . S
C1174 C1166 1.378 . S
C1174 C1169 1.350 . S
C1175 H1162 0.932 1_455 S
C1175 C1167 1.431 . S
C1175 N1177 1.383 1_455 S
N1176 C1172 1.427 . S
N1176 C1173 1.384 . S
N1177 C1169 1.427 1_655 S
N1177 C1175 1.383 1_655 S
H1178 C1184 0.930 . S
H1179 C1188 0.930 . S
H1180 C1193 0.929 . S
H1181 C1191 0.929 . S
H1182 C1186 0.929 . S
H1183 C1192 0.929 . S
C1184 H1178 0.930 . S
C1184 C1185 1.367 . S
C1184 C1192 1.378 . S
C1185 C1184 1.367 . S
C1185 C1193 1.433 . S
C1186 H1182 0.929 . S
C1186 C1188 1.378 . S
C1186 C1190 1.350 . S
C1187 C1190 1.463 . S
C1187 C1192 1.350 . S
C1187 N1195 1.427 . S
C1188 H1179 0.930 . S
C1188 C1186 1.378 . S
C1188 C1189 1.367 . S
C1189 C1188 1.367 . S
C1189 C1191 1.433 . S
C1190 C1186 1.350 . S
C1190 C1187 1.463 . S
C1190 N1194 1.427 . S
C1191 H1181 0.929 . S
C1191 C1189 1.433 . S
C1191 N1194 1.384 . S
C1192 H1183 0.929 . S
C1192 C1184 1.378 . S
C1192 C1187 1.350 . S
C1193 H1180 0.929 . S
C1193 C1185 1.433 . S
C1193 N1195 1.384 . S
N1194 C1190 1.427 . S
N1194 C1191 1.384 . S
N1195 C1187 1.427 . S
N1195 C1193 1.384 . S
H1196 C1202 0.930 . S
H1197 C1206 0.930 . S
H1198 C1211 0.929 . S
H1199 C1209 0.929 . S
H1200 C1204 0.929 . S
H1201 C1210 0.929 . S
C1202 H1196 0.930 . S
C1202 C1203 1.367 . S
C1202 C1210 1.378 . S
C1203 C1202 1.367 . S
C1203 C1211 1.433 . S
C1204 H1200 0.929 . S
C1204 C1206 1.378 . S
C1204 C1208 1.350 . S
C1205 C1208 1.463 . S
C1205 C1210 1.350 . S
C1205 N1213 1.427 . S
C1206 H1197 0.930 . S
C1206 C1204 1.378 . S
C1206 C1207 1.367 . S
C1207 C1206 1.367 . S
C1207 C1209 1.433 . S
C1208 C1204 1.350 . S
C1208 C1205 1.463 . S
C1208 N1212 1.427 . S
C1209 H1199 0.929 . S
C1209 C1207 1.433 . S
C1209 N1212 1.384 . S
C1210 H1201 0.929 . S
C1210 C1202 1.378 . S
C1210 C1205 1.350 . S
C1211 H1198 0.929 . S
C1211 C1203 1.433 . S
C1211 N1213 1.384 . S
N1212 C1208 1.427 . S
N1212 C1209 1.384 . S
N1213 C1205 1.427 . S
N1213 C1211 1.384 . S
H1214 C1220 0.930 . S
H1215 C1224 0.930 . S
H1216 C1229 0.929 . S
H1217 C1227 0.929 . S
H1218 C1222 0.929 . S
H1219 C1228 0.929 . S
C1220 H1214 0.930 . S
C1220 C1221 1.367 . S
C1220 C1228 1.378 . S
C1221 C1220 1.367 . S
C1221 C1229 1.433 . S
C1222 H1218 0.929 . S
C1222 C1224 1.378 . S
C1222 C1226 1.350 . S
C1223 C1226 1.463 . S
C1223 C1228 1.350 . S
C1223 N1231 1.427 . S
C1224 H1215 0.930 . S
C1224 C1222 1.378 . S
C1224 C1225 1.367 . S
C1225 C1224 1.367 . S
C1225 C1227 1.433 . S
C1226 C1222 1.350 . S
C1226 C1223 1.463 . S
C1226 N1230 1.427 . S
C1227 H1217 0.929 . S
C1227 C1225 1.433 . S
C1227 N1230 1.384 . S
C1228 H1219 0.929 . S
C1228 C1220 1.378 . S
C1228 C1223 1.350 . S
C1229 H1216 0.929 . S
C1229 C1221 1.433 . S
C1229 N1231 1.384 . S
N1230 C1226 1.427 . S
N1230 C1227 1.384 . S
N1231 C1223 1.427 . S
N1231 C1229 1.384 . S
H1232 C1238 0.930 . S
H1233 C1242 0.930 . S
H1234 C1247 0.929 . S
H1235 C1245 0.929 . S
H1236 C1240 0.929 . S
H1237 C1246 0.929 . S
C1238 H1232 0.930 . S
C1238 C1239 1.367 . S
C1238 C1246 1.378 . S
C1239 C1238 1.367 . S
C1239 C1247 1.433 1_545 S
C1240 H1236 0.929 . S
C1240 C1242 1.378 . S
C1240 C1244 1.350 1_565 S
C1241 C1244 1.463 . S
C1241 C1246 1.350 . S
C1241 N1249 1.427 1_545 S
C1242 H1233 0.930 . S
C1242 C1240 1.378 . S
C1242 C1243 1.367 1_565 S
C1243 C1242 1.367 1_545 S
C1243 C1245 1.433 . S
C1244 C1240 1.350 1_545 S
C1244 C1241 1.463 . S
C1244 N1248 1.427 . S
C1245 H1235 0.929 . S
C1245 C1243 1.433 . S
C1245 N1248 1.384 . S
C1246 H1237 0.929 . S
C1246 C1238 1.378 . S
C1246 C1241 1.350 . S
C1247 H1234 0.929 . S
C1247 C1239 1.433 1_565 S
C1247 N1249 1.384 . S
N1248 C1244 1.427 . S
N1248 C1245 1.384 . S
N1249 C1241 1.427 1_565 S
N1249 C1247 1.384 . S
H1250 C1256 0.930 . S
H1251 C1260 0.930 . S
H1252 C1265 0.929 . S
H1253 C1263 0.929 . S
H1254 C1258 0.929 . S
H1255 C1264 0.929 . S
C1256 H1250 0.930 . S
C1256 C1257 1.367 . S
C1256 C1264 1.378 . S
C1257 C1256 1.367 . S
C1257 C1265 1.433 . S
C1258 H1254 0.929 . S
C1258 C1260 1.378 . S
C1258 C1262 1.350 . S
C1259 C1262 1.463 . S
C1259 C1264 1.350 . S
C1259 N1267 1.427 . S
C1260 H1251 0.930 . S
C1260 C1258 1.378 . S
C1260 C1261 1.367 . S
C1261 C1260 1.367 . S
C1261 C1263 1.433 . S
C1262 C1258 1.350 . S
C1262 C1259 1.463 . S
C1262 N1266 1.427 . S
C1263 H1253 0.929 . S
C1263 C1261 1.433 . S
C1263 N1266 1.384 . S
C1264 H1255 0.929 . S
C1264 C1256 1.378 . S
C1264 C1259 1.350 . S
C1265 H1252 0.929 . S
C1265 C1257 1.433 . S
C1265 N1267 1.384 . S
N1266 C1262 1.427 . S
N1266 C1263 1.384 . S
N1267 C1259 1.427 . S
N1267 C1265 1.384 . S
H1268 C1274 0.930 . S
H1269 C1278 0.930 1_565 S
H1270 C1283 0.929 1_565 S
H1271 C1281 0.929 . S
H1272 C1276 0.929 1_565 S
H1273 C1282 0.929 . S
C1274 H1268 0.930 . S
C1274 C1275 1.367 . S
C1274 C1282 1.378 . S
C1275 C1274 1.367 . S
C1275 C1283 1.433 . S
C1276 H1272 0.929 1_545 S
C1276 C1278 1.378 . S
C1276 C1280 1.350 . S
C1277 C1280 1.463 . S
C1277 C1282 1.350 . S
C1277 N1285 1.427 . S
C1278 H1269 0.930 1_545 S
C1278 C1276 1.378 . S
C1278 C1279 1.367 . S
C1279 C1278 1.367 . S
C1279 C1281 1.433 . S
C1280 C1276 1.350 . S
C1280 C1277 1.463 . S
C1280 N1284 1.427 . S
C1281 H1271 0.929 . S
C1281 C1279 1.433 . S
C1281 N1284 1.384 . S
C1282 H1273 0.929 . S
C1282 C1274 1.378 . S
C1282 C1277 1.350 . S
C1283 H1270 0.929 1_545 S
C1283 C1275 1.433 . S
C1283 N1285 1.384 . S
N1284 C1280 1.427 . S
N1284 C1281 1.384 . S
N1285 C1277 1.427 . S
N1285 C1283 1.384 . S
H1286 C1292 0.930 . S
H1287 C1296 0.930 . S
H1288 C1301 0.929 . S
H1289 C1299 0.929 . S
H1290 C1294 0.929 . S
H1291 C1300 0.929 . S
C1292 H1286 0.930 . S
C1292 C1293 1.367 . S
C1292 C1300 1.378 . S
C1293 C1292 1.367 . S
C1293 C1301 1.433 . S
C1294 H1290 0.929 . S
C1294 C1296 1.378 . S
C1294 C1298 1.350 . S
C1295 C1298 1.463 . S
C1295 C1300 1.350 . S
C1295 N1303 1.427 . S
C1296 H1287 0.930 . S
C1296 C1294 1.378 . S
C1296 C1297 1.367 . S
C1297 C1296 1.367 . S
C1297 C1299 1.433 . S
C1298 C1294 1.350 . S
C1298 C1295 1.463 . S
C1298 N1302 1.427 . S
C1299 H1289 0.929 . S
C1299 C1297 1.433 . S
C1299 N1302 1.384 . S
C1300 H1291 0.929 . S
C1300 C1292 1.378 . S
C1300 C1295 1.350 . S
C1301 H1288 0.929 . S
C1301 C1293 1.433 . S
C1301 N1303 1.384 . S
N1302 C1298 1.427 . S
N1302 C1299 1.384 . S
N1303 C1295 1.427 . S
N1303 C1301 1.384 . S
H1304 C1310 0.930 . S
H1305 C1314 0.930 . S
H1306 C1319 0.929 . S
H1307 C1317 0.917 1_565 S
H1308 C1312 0.929 . S
H1309 C1318 0.929 . S
C1310 H1304 0.930 . S
C1310 C1311 1.367 . S
C1310 C1318 1.378 . S
C1311 C1310 1.367 . S
C1311 C1319 1.433 1_565 S
C1312 H1308 0.929 . S
C1312 C1314 1.378 . S
C1312 C1316 1.350 . S
C1313 C1316 1.463 . S
C1313 C1318 1.350 1_545 S
C1313 N1321 1.427 . S
C1314 H1305 0.930 . S
C1314 C1312 1.378 . S
C1314 C1315 1.367 . S
C1315 C1314 1.367 . S
C1315 C1317 1.465 . S
C1316 C1312 1.350 . S
C1316 C1313 1.463 . S
C1316 N1320 1.427 1_545 S
C1317 H1307 0.917 1_545 S
C1317 C1315 1.465 . S
C1317 N1320 1.368 1_545 S
C1318 H1309 0.929 . S
C1318 C1310 1.378 . S
C1318 C1313 1.350 1_565 S
C1319 H1306 0.929 . S
C1319 C1311 1.433 1_545 S
C1319 N1321 1.384 . S
N1320 C1316 1.427 1_565 S
N1320 C1317 1.368 1_565 S
N1321 C1313 1.427 . S
N1321 C1319 1.384 . S
H1322 C1328 0.930 . S
H1323 C1332 0.930 . S
H1324 C1337 0.929 . S
H1325 C1335 0.929 . S
H1326 C1330 0.929 . S
H1327 C1336 0.929 . S
C1328 H1322 0.930 . S
C1328 C1329 1.367 . S
C1328 C1336 1.378 . S
C1329 C1328 1.367 . S
C1329 C1337 1.433 . S
C1330 H1326 0.929 . S
C1330 C1332 1.378 . S
C1330 C1334 1.350 . S
C1331 C1334 1.463 . S
C1331 C1336 1.350 . S
C1331 N1339 1.427 . S
C1332 H1323 0.930 . S
C1332 C1330 1.378 . S
C1332 C1333 1.367 . S
C1333 C1332 1.367 . S
C1333 C1335 1.433 . S
C1334 C1330 1.350 . S
C1334 C1331 1.463 . S
C1334 N1338 1.427 . S
C1335 H1325 0.929 . S
C1335 C1333 1.433 . S
C1335 N1338 1.384 . S
C1336 H1327 0.929 . S
C1336 C1328 1.378 . S
C1336 C1331 1.350 . S
C1337 H1324 0.929 . S
C1337 C1329 1.433 . S
C1337 N1339 1.384 . S
N1338 C1334 1.427 . S
N1338 C1335 1.384 . S
N1339 C1331 1.427 . S
N1339 C1337 1.384 . S
H1340 C1346 0.930 . S
H1341 C1350 0.930 . S
H1342 C1355 0.929 . S
H1343 C1353 0.929 . S
H1344 C1348 0.929 . S
H1345 C1354 0.929 . S
C1346 H1340 0.930 . S
C1346 C1347 1.367 . S
C1346 C1354 1.378 . S
C1347 C1346 1.367 . S
C1347 C1355 1.433 1_545 S
C1348 H1344 0.929 . S
C1348 C1350 1.378 . S
C1348 C1352 1.350 1_565 S
C1349 C1352 1.463 . S
C1349 C1354 1.350 . S
C1349 N1357 1.427 1_545 S
C1350 H1341 0.930 . S
C1350 C1348 1.378 . S
C1350 C1351 1.367 1_565 S
C1351 C1350 1.367 1_545 S
C1351 C1353 1.433 . S
C1352 C1348 1.350 1_545 S
C1352 C1349 1.463 . S
C1352 N1356 1.427 . S
C1353 H1343 0.929 . S
C1353 C1351 1.433 . S
C1353 N1356 1.384 . S
C1354 H1345 0.929 . S
C1354 C1346 1.378 . S
C1354 C1349 1.350 . S
C1355 H1342 0.929 . S
C1355 C1347 1.433 1_565 S
C1355 N1357 1.384 . S
N1356 C1352 1.427 . S
N1356 C1353 1.384 . S
N1357 C1349 1.427 1_565 S
N1357 C1355 1.384 . S
H1358 C1364 0.930 . S
H1359 C1368 0.930 . S
H1360 C1373 0.929 . S
H1361 C1371 0.929 . S
H1362 C1366 0.929 . S
H1363 C1372 0.929 . S
C1364 H1358 0.930 . S
C1364 C1365 1.367 . S
C1364 C1372 1.378 . S
C1365 C1364 1.367 . S
C1365 C1373 1.433 . S
C1366 H1362 0.929 . S
C1366 C1368 1.378 . S
C1366 C1370 1.350 . S
C1367 C1370 1.463 . S
C1367 C1372 1.350 . S
C1367 N1375 1.427 . S
C1368 H1359 0.930 . S
C1368 C1366 1.378 . S
C1368 C1369 1.367 . S
C1369 C1368 1.367 . S
C1369 C1371 1.433 . S
C1370 C1366 1.350 . S
C1370 C1367 1.463 . S
C1370 N1374 1.427 . S
C1371 H1361 0.929 . S
C1371 C1369 1.433 . S
C1371 N1374 1.384 . S
C1372 H1363 0.929 . S
C1372 C1364 1.378 . S
C1372 C1367 1.350 . S
C1373 H1360 0.929 . S
C1373 C1365 1.433 . S
C1373 N1375 1.384 . S
N1374 C1370 1.427 . S
N1374 C1371 1.384 . S
N1375 C1367 1.427 . S
N1375 C1373 1.384 . S
H1376 C1382 0.930 . S
H1377 C1386 0.930 . S
H1378 C1391 0.929 . S
H1379 C1389 0.929 . S
H1380 C1384 0.929 . S
H1381 C1390 0.929 . S
C1382 H1376 0.930 . S
C1382 C1383 1.378 . S
C1382 C1390 1.378 . S
C1383 C1382 1.378 . S
C1383 C1391 1.420 1_554 S
C1384 H1380 0.929 . S
C1384 C1386 1.378 . S
C1384 C1388 1.350 . S
C1385 C1388 1.463 . S
C1385 C1390 1.350 1_556 S
C1385 N1393 1.427 . S
C1386 H1377 0.930 . S
C1386 C1384 1.378 . S
C1386 C1387 1.367 . S
C1387 C1386 1.367 . S
C1387 C1389 1.433 1_556 S
C1388 C1384 1.350 . S
C1388 C1385 1.463 . S
C1388 N1392 1.427 1_556 S
C1389 H1379 0.929 . S
C1389 C1387 1.433 1_554 S
C1389 N1392 1.384 . S
C1390 H1381 0.929 . S
C1390 C1382 1.378 . S
C1390 C1385 1.350 1_554 S
C1391 H1378 0.929 . S
C1391 C1383 1.420 1_556 S
C1391 N1393 1.384 . S
N1392 C1388 1.427 1_554 S
N1392 C1389 1.384 . S
N1393 C1385 1.427 . S
N1393 C1391 1.384 . S
H1394 C1400 0.930 . S
H1395 C1404 0.930 . S
H1396 C1409 0.929 . S
H1397 C1407 0.929 . S
H1398 C1402 0.929 . S
H1399 C1408 0.929 . S
C1400 H1394 0.930 . S
C1400 C1401 1.367 . S
C1400 C1408 1.378 . S
C1401 C1400 1.367 . S
C1401 C1409 1.433 1_554 S
C1402 H1398 0.929 . S
C1402 C1404 1.378 . S
C1402 C1406 1.350 1_556 S
C1403 C1406 1.463 . S
C1403 C1408 1.350 . S
C1403 N1411 1.427 1_554 S
C1404 H1395 0.930 . S
C1404 C1402 1.378 . S
C1404 C1405 1.367 1_556 S
C1405 C1404 1.367 1_554 S
C1405 C1407 1.433 . S
C1406 C1402 1.350 1_554 S
C1406 C1403 1.463 . S
C1406 N1410 1.427 . S
C1407 H1397 0.929 . S
C1407 C1405 1.433 . S
C1407 N1410 1.384 . S
C1408 H1399 0.929 . S
C1408 C1400 1.378 . S
C1408 C1403 1.350 . S
C1409 H1396 0.929 . S
C1409 C1401 1.433 1_556 S
C1409 N1411 1.384 . S
N1410 C1406 1.427 . S
N1410 C1407 1.384 . S
N1411 C1403 1.427 1_556 S
N1411 C1409 1.384 . S
H1412 C1418 0.930 . S
H1413 C1422 0.930 . S
H1414 C1427 0.929 . S
H1415 C1425 0.929 . S
H1416 C1420 0.929 . S
H1417 C1426 0.929 . S
C1418 H1412 0.930 . S
C1418 C1419 1.367 . S
C1418 C1426 1.378 . S
C1419 C1418 1.367 . S
C1419 C1427 1.433 . S
C1420 H1416 0.929 . S
C1420 C1422 1.378 . S
C1420 C1424 1.350 . S
C1421 C1424 1.463 . S
C1421 C1426 1.350 . S
C1421 N1429 1.427 . S
C1422 H1413 0.930 . S
C1422 C1420 1.378 . S
C1422 C1423 1.367 . S
C1423 C1422 1.367 . S
C1423 C1425 1.433 . S
C1424 C1420 1.350 . S
C1424 C1421 1.463 . S
C1424 N1428 1.427 . S
C1425 H1415 0.929 . S
C1425 C1423 1.433 . S
C1425 N1428 1.384 . S
C1426 H1417 0.929 . S
C1426 C1418 1.378 . S
C1426 C1421 1.350 . S
C1427 H1414 0.929 . S
C1427 C1419 1.433 . S
C1427 N1429 1.384 . S
N1428 C1424 1.427 . S
N1428 C1425 1.384 . S
N1429 C1421 1.427 . S
N1429 C1427 1.384 . S
H1430 C1436 0.930 . S
H1431 C1440 0.930 . S
H1432 C1445 0.929 . S
H1433 C1443 0.929 . S
H1434 C1438 0.929 . S
H1435 C1444 0.929 . S
C1436 H1430 0.930 . S
C1436 C1437 1.367 . S
C1436 C1444 1.378 . S
C1437 C1436 1.367 . S
C1437 C1445 1.433 . S
C1438 H1434 0.929 . S
C1438 C1440 1.378 . S
C1438 C1442 1.350 . S
C1439 C1442 1.463 . S
C1439 C1444 1.350 . S
C1439 N1447 1.427 . S
C1440 H1431 0.930 . S
C1440 C1438 1.378 . S
C1440 C1441 1.367 . S
C1441 C1440 1.367 . S
C1441 C1443 1.433 . S
C1442 C1438 1.350 . S
C1442 C1439 1.463 . S
C1442 N1446 1.427 . S
C1443 H1433 0.929 . S
C1443 C1441 1.433 . S
C1443 N1446 1.384 . S
C1444 H1435 0.929 . S
C1444 C1436 1.378 . S
C1444 C1439 1.350 . S
C1445 H1432 0.929 . S
C1445 C1437 1.433 . S
C1445 N1447 1.384 . S
N1446 C1442 1.427 . S
N1446 C1443 1.384 . S
N1447 C1439 1.427 . S
N1447 C1445 1.384 . S
H1448 C1454 0.930 . S
H1449 C1458 0.930 . S
H1450 C1463 0.929 . S
H1451 C1461 0.929 . S
H1452 C1456 0.929 . S
H1453 C1462 0.929 . S
C1454 H1448 0.930 . S
C1454 C1455 1.367 . S
C1454 C1462 1.378 . S
C1455 C1454 1.367 . S
C1455 C1463 1.433 . S
C1456 H1452 0.929 . S
C1456 C1458 1.378 . S
C1456 C1460 1.350 . S
C1457 C1460 1.463 . S
C1457 C1462 1.350 . S
C1457 N1465 1.427 . S
C1458 H1449 0.930 . S
C1458 C1456 1.378 . S
C1458 C1459 1.367 . S
C1459 C1458 1.367 . S
C1459 C1461 1.433 . S
C1460 C1456 1.350 . S
C1460 C1457 1.463 . S
C1460 N1464 1.427 . S
C1461 H1451 0.929 . S
C1461 C1459 1.433 . S
C1461 N1464 1.384 . S
C1462 H1453 0.929 . S
C1462 C1454 1.378 . S
C1462 C1457 1.350 . S
C1463 H1450 0.929 . S
C1463 C1455 1.433 . S
C1463 N1465 1.384 . S
N1464 C1460 1.427 . S
N1464 C1461 1.384 . S
N1465 C1457 1.427 . S
N1465 C1463 1.384 . S
H1466 C1472 0.930 . S
H1467 C1476 0.930 . S
H1468 C1481 0.929 . S
H1469 C1479 0.929 1_545 S
H1470 C1474 0.929 . S
H1471 C1480 0.929 . S
C1472 H1466 0.930 . S
C1472 C1473 1.367 . S
C1472 C1480 1.378 . S
C1473 C1472 1.367 . S
C1473 C1481 1.433 . S
C1474 H1470 0.929 . S
C1474 C1476 1.378 . S
C1474 C1478 1.350 . S
C1475 C1478 1.463 . S
C1475 C1480 1.350 . S
C1475 N1483 1.427 . S
C1476 H1467 0.930 . S
C1476 C1474 1.378 . S
C1476 C1477 1.367 . S
C1477 C1476 1.367 . S
C1477 C1479 1.433 . S
C1478 C1474 1.350 . S
C1478 C1475 1.463 . S
C1478 N1482 1.427 . S
C1479 H1469 0.929 1_565 S
C1479 C1477 1.433 . S
C1479 N1482 1.384 . S
C1480 H1471 0.929 . S
C1480 C1472 1.378 . S
C1480 C1475 1.350 . S
C1481 H1468 0.929 . S
C1481 C1473 1.433 . S
C1481 N1483 1.384 . S
N1482 C1478 1.427 . S
N1482 C1479 1.384 . S
N1483 C1475 1.427 . S
N1483 C1481 1.384 . S
H1484 C1490 0.930 . S
H1485 C1494 0.930 . S
H1486 C1499 0.929 . S
H1487 C1497 0.929 . S
H1488 C1492 0.929 . S
H1489 C1498 0.929 . S
C1490 H1484 0.930 . S
C1490 C1491 1.367 . S
C1490 C1498 1.378 . S
C1491 C1490 1.367 . S
C1491 C1499 1.433 . S
C1492 H1488 0.929 . S
C1492 C1494 1.378 . S
C1492 C1496 1.350 . S
C1493 C1496 1.463 . S
C1493 C1498 1.350 . S
C1493 N1501 1.427 . S
C1494 H1485 0.930 . S
C1494 C1492 1.378 . S
C1494 C1495 1.367 . S
C1495 C1494 1.367 . S
C1495 C1497 1.433 . S
C1496 C1492 1.350 . S
C1496 C1493 1.463 . S
C1496 N1500 1.427 . S
C1497 H1487 0.929 . S
C1497 C1495 1.433 . S
C1497 N1500 1.384 . S
C1498 H1489 0.929 . S
C1498 C1490 1.378 . S
C1498 C1493 1.350 . S
C1499 H1486 0.929 . S
C1499 C1491 1.433 . S
C1499 N1501 1.384 . S
N1500 C1496 1.427 . S
N1500 C1497 1.384 . S
N1501 C1493 1.427 . S
N1501 C1499 1.384 . S
H1502 C1508 0.930 . S
H1503 C1512 0.930 . S
H1504 C1517 0.929 . S
H1505 C1515 0.929 . S
H1506 C1510 0.929 . S
H1507 C1516 0.929 . S
C1508 H1502 0.930 . S
C1508 C1509 1.367 . S
C1508 C1516 1.378 . S
C1509 C1508 1.367 . S
C1509 C1517 1.433 . S
C1510 H1506 0.929 . S
C1510 C1512 1.378 . S
C1510 C1514 1.350 . S
C1511 C1514 1.463 . S
C1511 C1516 1.350 . S
C1511 N1519 1.427 . S
C1512 H1503 0.930 . S
C1512 C1510 1.378 . S
C1512 C1513 1.367 . S
C1513 C1512 1.367 . S
C1513 C1515 1.433 . S
C1514 C1510 1.350 . S
C1514 C1511 1.463 . S
C1514 N1518 1.427 . S
C1515 H1505 0.929 . S
C1515 C1513 1.433 . S
C1515 N1518 1.384 . S
C1516 H1507 0.929 . S
C1516 C1508 1.378 . S
C1516 C1511 1.350 . S
C1517 H1504 0.929 . S
C1517 C1509 1.433 . S
C1517 N1519 1.384 . S
N1518 C1514 1.427 . S
N1518 C1515 1.384 . S
N1519 C1511 1.427 . S
N1519 C1517 1.384 . S
H1520 C1526 0.930 . S
H1521 C1530 0.930 . S
H1522 C1535 0.929 . S
H1523 C1533 0.929 . S
H1524 C1528 0.929 . S
H1525 C1534 0.929 . S
C1526 H1520 0.930 . S
C1526 C1527 1.367 . S
C1526 C1534 1.378 . S
C1527 C1526 1.367 . S
C1527 C1535 1.433 . S
C1528 H1524 0.929 . S
C1528 C1530 1.378 . S
C1528 C1532 1.350 . S
C1529 C1532 1.463 . S
C1529 C1534 1.350 . S
C1529 N1537 1.427 . S
C1530 H1521 0.930 . S
C1530 C1528 1.378 . S
C1530 C1531 1.367 . S
C1531 C1530 1.367 . S
C1531 C1533 1.433 . S
C1532 C1528 1.350 . S
C1532 C1529 1.463 . S
C1532 N1536 1.427 . S
C1533 H1523 0.929 . S
C1533 C1531 1.433 . S
C1533 N1536 1.384 . S
C1534 H1525 0.929 . S
C1534 C1526 1.378 . S
C1534 C1529 1.350 . S
C1535 H1522 0.929 . S
C1535 C1527 1.433 . S
C1535 N1537 1.384 . S
N1536 C1532 1.427 . S
N1536 C1533 1.384 . S
N1537 C1529 1.427 . S
N1537 C1535 1.384 . S
H1538 C1544 0.930 . S
H1539 C1548 0.930 . S
H1540 C1553 0.929 . S
H1541 C1551 0.929 . S
H1542 C1546 0.929 . S
H1543 C1552 0.929 . S
C1544 H1538 0.930 . S
C1544 C1545 1.367 . S
C1544 C1552 1.378 . S
C1545 C1544 1.367 . S
C1545 C1553 1.433 . S
C1546 H1542 0.929 . S
C1546 C1548 1.378 . S
C1546 C1550 1.350 . S
C1547 C1550 1.463 . S
C1547 C1552 1.350 . S
C1547 N1555 1.427 . S
C1548 H1539 0.930 . S
C1548 C1546 1.378 . S
C1548 C1549 1.367 . S
C1549 C1548 1.367 . S
C1549 C1551 1.433 . S
C1550 C1546 1.350 . S
C1550 C1547 1.463 . S
C1550 N1554 1.427 . S
C1551 H1541 0.929 . S
C1551 C1549 1.433 . S
C1551 N1554 1.384 . S
C1552 H1543 0.929 . S
C1552 C1544 1.378 . S
C1552 C1547 1.350 . S
C1553 H1540 0.929 . S
C1553 C1545 1.433 . S
C1553 N1555 1.384 . S
N1554 C1550 1.427 . S
N1554 C1551 1.384 . S
N1555 C1547 1.427 . S
N1555 C1553 1.384 . S
H1556 C1562 0.930 . S
H1557 C1566 0.930 . S
H1558 C1571 0.929 . S
H1559 C1569 0.929 . S
H1560 C1564 0.929 . S
H1561 C1570 0.929 . S
C1562 H1556 0.930 . S
C1562 C1563 1.367 . S
C1562 C1570 1.378 . S
C1563 C1562 1.367 . S
C1563 C1571 1.433 1_455 S
C1564 H1560 0.929 . S
C1564 C1566 1.378 1_556 S
C1564 C1568 1.350 1_655 S
C1565 C1568 1.463 . S
C1565 C1570 1.350 . S
C1565 N1573 1.427 1_455 S
C1566 H1557 0.930 . S
C1566 C1564 1.378 1_554 S
C1566 C1567 1.367 1_654 S
C1567 C1566 1.367 1_456 S
C1567 C1569 1.433 . S
C1568 C1564 1.350 1_455 S
C1568 C1565 1.463 . S
C1568 N1572 1.427 . S
C1569 H1559 0.929 . S
C1569 C1567 1.433 . S
C1569 N1572 1.384 . S
C1570 H1561 0.929 . S
C1570 C1562 1.378 . S
C1570 C1565 1.350 . S
C1571 H1558 0.929 . S
C1571 C1563 1.433 1_655 S
C1571 N1573 1.384 . S
N1572 C1568 1.427 . S
N1572 C1569 1.384 . S
N1573 C1565 1.427 1_655 S
N1573 C1571 1.384 . S
H1574 C1580 0.930 . S
H1575 C1584 0.930 . S
H1576 C1589 0.929 . S
H1577 C1587 0.929 . S
H1578 C1582 0.929 . S
H1579 C1588 0.929 . S
C1580 H1574 0.930 . S
C1580 C1581 1.367 . S
C1580 C1588 1.378 . S
C1581 C1580 1.367 . S
C1581 C1589 1.433 . S
C1582 H1578 0.929 . S
C1582 C1584 1.378 . S
C1582 C1586 1.350 . S
C1583 C1586 1.463 . S
C1583 C1588 1.350 . S
C1583 N1591 1.427 . S
C1584 H1575 0.930 . S
C1584 C1582 1.378 . S
C1584 C1585 1.367 . S
C1585 C1584 1.367 . S
C1585 C1587 1.433 . S
C1586 C1582 1.350 . S
C1586 C1583 1.463 . S
C1586 N1590 1.427 . S
C1587 H1577 0.929 . S
C1587 C1585 1.433 . S
C1587 N1590 1.384 . S
C1588 H1579 0.929 . S
C1588 C1580 1.378 . S
C1588 C1583 1.350 . S
C1589 H1576 0.929 . S
C1589 C1581 1.433 . S
C1589 N1591 1.384 . S
N1590 C1586 1.427 . S
N1590 C1587 1.384 . S
N1591 C1583 1.427 . S
N1591 C1589 1.384 . S
H1592 C1598 0.930 . S
H1593 C1602 0.930 . S
H1594 C1607 0.929 . S
H1595 C1605 0.929 . S
H1596 C1600 0.929 . S
H1597 C1606 0.929 . S
C1598 H1592 0.930 . S
C1598 C1599 1.367 . S
C1598 C1606 1.378 . S
C1599 C1598 1.367 . S
C1599 C1607 1.433 . S
C1600 H1596 0.929 . S
C1600 C1602 1.378 . S
C1600 C1604 1.350 . S
C1601 C1604 1.463 . S
C1601 C1606 1.350 . S
C1601 N1609 1.427 . S
C1602 H1593 0.930 . S
C1602 C1600 1.378 . S
C1602 C1603 1.367 . S
C1603 C1602 1.367 . S
C1603 C1605 1.433 . S
C1604 C1600 1.350 . S
C1604 C1601 1.463 . S
C1604 N1608 1.427 . S
C1605 H1595 0.929 . S
C1605 C1603 1.433 . S
C1605 N1608 1.384 . S
C1606 H1597 0.929 . S
C1606 C1598 1.378 . S
C1606 C1601 1.350 . S
C1607 H1594 0.929 . S
C1607 C1599 1.433 . S
C1607 N1609 1.384 . S
N1608 C1604 1.427 . S
N1608 C1605 1.384 . S
N1609 C1601 1.427 . S
N1609 C1607 1.384 . S
H1610 C1616 0.930 . S
H1611 C1620 0.930 . S
H1612 C1625 0.929 . S
H1613 C1623 0.929 . S
H1614 C1618 0.929 . S
H1615 C1624 0.929 . S
C1616 H1610 0.930 . S
C1616 C1617 1.367 . S
C1616 C1624 1.378 . S
C1617 C1616 1.367 . S
C1617 C1625 1.433 . S
C1618 H1614 0.929 . S
C1618 C1620 1.378 . S
C1618 C1622 1.350 . S
C1619 C1622 1.463 . S
C1619 C1624 1.350 . S
C1619 N1627 1.427 . S
C1620 H1611 0.930 . S
C1620 C1618 1.378 . S
C1620 C1621 1.367 . S
C1621 C1620 1.367 . S
C1621 C1623 1.433 . S
C1622 C1618 1.350 . S
C1622 C1619 1.463 . S
C1622 N1626 1.427 . S
C1623 H1613 0.929 . S
C1623 C1621 1.433 . S
C1623 N1626 1.384 . S
C1624 H1615 0.929 . S
C1624 C1616 1.378 . S
C1624 C1619 1.350 . S
C1625 H1612 0.929 . S
C1625 C1617 1.433 . S
C1625 N1627 1.384 . S
N1626 C1622 1.427 . S
N1626 C1623 1.384 . S
N1627 C1619 1.427 . S
N1627 C1625 1.384 . S
H1628 C1634 0.930 . S
H1629 C1638 0.930 . S
H1630 C1643 0.929 . S
H1631 C1641 0.927 . S
H1632 C1636 0.929 . S
H1633 C1642 0.927 . S
C1634 H1628 0.930 . S
C1634 C1635 1.368 1_655 S
C1634 C1642 1.384 . S
C1635 C1634 1.368 1_455 S
C1635 C1643 1.438 . S
C1636 H1632 0.929 . S
C1636 C1638 1.378 . S
C1636 C1640 1.350 . S
C1637 C1640 1.463 . S
C1637 C1642 1.346 1_455 S
C1637 N1645 1.427 . S
C1638 H1629 0.930 . S
C1638 C1636 1.378 . S
C1638 C1639 1.367 . S
C1639 C1638 1.367 . S
C1639 C1641 1.433 . S
C1640 C1636 1.350 . S
C1640 C1637 1.463 . S
C1640 N1644 1.427 . S
C1641 H1631 0.927 . S
C1641 C1639 1.433 . S
C1641 N1644 1.384 . S
C1642 H1633 0.927 . S
C1642 C1634 1.384 . S
C1642 C1637 1.346 1_655 S
C1643 H1630 0.929 . S
C1643 C1635 1.438 . S
C1643 N1645 1.384 . S
N1644 C1640 1.427 . S
N1644 C1641 1.384 . S
N1645 C1637 1.427 . S
N1645 C1643 1.384 . S
H1646 C1652 0.930 . S
H1647 C1656 0.930 . S
H1648 C1661 0.929 . S
H1649 C1659 0.929 . S
H1650 C1654 0.929 . S
H1651 C1660 0.929 . S
C1652 H1646 0.930 . S
C1652 C1653 1.367 . S
C1652 C1660 1.378 . S
C1653 C1652 1.367 . S
C1653 C1661 1.433 . S
C1654 H1650 0.929 . S
C1654 C1656 1.378 . S
C1654 C1658 1.350 . S
C1655 C1658 1.463 . S
C1655 C1660 1.350 . S
C1655 N1663 1.427 . S
C1656 H1647 0.930 . S
C1656 C1654 1.378 . S
C1656 C1657 1.367 . S
C1657 C1656 1.367 . S
C1657 C1659 1.433 . S
C1658 C1654 1.350 . S
C1658 C1655 1.463 . S
C1658 N1662 1.427 . S
C1659 H1649 0.929 . S
C1659 C1657 1.433 . S
C1659 N1662 1.384 . S
C1660 H1651 0.929 . S
C1660 C1652 1.378 . S
C1660 C1655 1.350 . S
C1661 H1648 0.929 . S
C1661 C1653 1.433 . S
C1661 N1663 1.384 . S
N1662 C1658 1.427 . S
N1662 C1659 1.384 . S
N1663 C1655 1.427 . S
N1663 C1661 1.384 . S
H1664 C1670 0.930 . S
H1665 C1674 0.930 . S
H1666 C1679 0.929 . S
H1667 C1677 0.929 . S
H1668 C1672 0.929 . S
H1669 C1678 0.929 . S
C1670 H1664 0.930 . S
C1670 C1671 1.367 . S
C1670 C1678 1.378 . S
C1671 C1670 1.367 . S
C1671 C1679 1.433 . S
C1672 H1668 0.929 . S
C1672 C1674 1.378 . S
C1672 C1676 1.350 . S
C1673 C1676 1.463 . S
C1673 C1678 1.350 . S
C1673 N1681 1.427 . S
C1674 H1665 0.930 . S
C1674 C1672 1.378 . S
C1674 C1675 1.367 . S
C1675 C1674 1.367 . S
C1675 C1677 1.433 . S
C1676 C1672 1.350 . S
C1676 C1673 1.463 . S
C1676 N1680 1.427 . S
C1677 H1667 0.929 . S
C1677 C1675 1.433 . S
C1677 N1680 1.384 . S
C1678 H1669 0.929 . S
C1678 C1670 1.378 . S
C1678 C1673 1.350 . S
C1679 H1666 0.929 . S
C1679 C1671 1.433 . S
C1679 N1681 1.384 . S
N1680 C1676 1.427 . S
N1680 C1677 1.384 . S
N1681 C1673 1.427 . S
N1681 C1679 1.384 . S
H1682 C1688 0.930 . S
H1683 C1692 0.930 . S
H1684 C1697 0.929 . S
H1685 C1695 0.929 . S
H1686 C1690 0.929 . S
H1687 C1696 0.929 . S
C1688 H1682 0.930 . S
C1688 C1689 1.367 . S
C1688 C1696 1.378 . S
C1689 C1688 1.367 . S
C1689 C1697 1.433 . S
C1690 H1686 0.929 . S
C1690 C1692 1.378 . S
C1690 C1694 1.350 . S
C1691 C1694 1.463 . S
C1691 C1696 1.350 . S
C1691 N1699 1.427 . S
C1692 H1683 0.930 . S
C1692 C1690 1.378 . S
C1692 C1693 1.367 . S
C1693 C1692 1.367 . S
C1693 C1695 1.433 . S
C1694 C1690 1.350 . S
C1694 C1691 1.463 . S
C1694 N1698 1.427 . S
C1695 H1685 0.929 . S
C1695 C1693 1.433 . S
C1695 N1698 1.384 . S
C1696 H1687 0.929 . S
C1696 C1688 1.378 . S
C1696 C1691 1.350 . S
C1697 H1684 0.929 . S
C1697 C1689 1.433 . S
C1697 N1699 1.384 . S
N1698 C1694 1.427 . S
N1698 C1695 1.384 . S
N1699 C1691 1.427 . S
N1699 C1697 1.384 . S
H1700 C1706 0.930 . S
H1701 C1710 0.930 . S
H1702 C1715 0.929 . S
H1703 C1713 0.929 . S
H1704 C1708 0.929 . S
H1705 C1714 0.929 . S
C1706 H1700 0.930 . S
C1706 C1707 1.367 . S
C1706 C1714 1.378 . S
C1707 C1706 1.367 . S
C1707 C1715 1.433 . S
C1708 H1704 0.929 . S
C1708 C1710 1.378 . S
C1708 C1712 1.350 . S
C1709 C1712 1.463 . S
C1709 C1714 1.350 . S
C1709 N1717 1.427 . S
C1710 H1701 0.930 . S
C1710 C1708 1.378 . S
C1710 C1711 1.367 . S
C1711 C1710 1.367 . S
C1711 C1713 1.433 . S
C1712 C1708 1.350 . S
C1712 C1709 1.463 . S
C1712 N1716 1.427 . S
C1713 H1703 0.929 . S
C1713 C1711 1.433 . S
C1713 N1716 1.384 . S
C1714 H1705 0.929 . S
C1714 C1706 1.378 . S
C1714 C1709 1.350 . S
C1715 H1702 0.929 . S
C1715 C1707 1.433 . S
C1715 N1717 1.384 . S
N1716 C1712 1.427 . S
N1716 C1713 1.384 . S
N1717 C1709 1.427 . S
N1717 C1715 1.384 . S
H1718 C1724 0.930 . S
H1719 C1728 0.930 . S
H1720 C1733 0.929 . S
H1721 C1731 0.929 . S
H1722 C1726 0.929 . S
H1723 C1732 0.929 . S
C1724 H1718 0.930 . S
C1724 C1725 1.367 . S
C1724 C1732 1.378 . S
C1725 C1724 1.367 . S
C1725 C1733 1.433 . S
C1726 H1722 0.929 . S
C1726 C1728 1.378 . S
C1726 C1730 1.350 . S
C1727 C1730 1.463 . S
C1727 C1732 1.350 . S
C1727 N1735 1.427 . S
C1728 H1719 0.930 . S
C1728 C1726 1.378 . S
C1728 C1729 1.367 . S
C1729 C1728 1.367 . S
C1729 C1731 1.433 . S
C1730 C1726 1.350 . S
C1730 C1727 1.463 . S
C1730 N1734 1.427 . S
C1731 H1721 0.929 . S
C1731 C1729 1.433 . S
C1731 N1734 1.384 . S
C1732 H1723 0.929 . S
C1732 C1724 1.378 . S
C1732 C1727 1.350 . S
C1733 H1720 0.929 . S
C1733 C1725 1.433 . S
C1733 N1735 1.384 . S
N1734 C1730 1.427 . S
N1734 C1731 1.384 . S
N1735 C1727 1.427 . S
N1735 C1733 1.384 . S
H1736 C1742 0.930 . S
H1737 C1746 0.930 . S
H1738 C1751 0.929 . S
H1739 C1749 0.929 . S
H1740 C1744 0.929 . S
H1741 C1750 0.929 . S
C1742 H1736 0.930 . S
C1742 C1743 1.367 . S
C1742 C1750 1.378 . S
C1743 C1742 1.367 . S
C1743 C1751 1.433 . S
C1744 H1740 0.929 . S
C1744 C1746 1.378 . S
C1744 C1748 1.350 . S
C1745 C1748 1.463 . S
C1745 C1750 1.350 . S
C1745 N1753 1.427 . S
C1746 H1737 0.930 . S
C1746 C1744 1.378 . S
C1746 C1747 1.367 . S
C1747 C1746 1.367 . S
C1747 C1749 1.433 . S
C1748 C1744 1.350 . S
C1748 C1745 1.463 . S
C1748 N1752 1.427 . S
C1749 H1739 0.929 . S
C1749 C1747 1.433 . S
C1749 N1752 1.384 . S
C1750 H1741 0.929 . S
C1750 C1742 1.378 . S
C1750 C1745 1.350 . S
C1751 H1738 0.929 . S
C1751 C1743 1.433 . S
C1751 N1753 1.384 . S
N1752 C1748 1.427 . S
N1752 C1749 1.384 . S
N1753 C1745 1.427 . S
N1753 C1751 1.384 . S
H1754 C1760 0.930 . S
H1755 C1764 0.930 . S
H1756 C1769 0.929 . S
H1757 C1767 0.929 . S
H1758 C1762 0.929 . S
H1759 C1768 0.929 . S
C1760 H1754 0.930 . S
C1760 C1761 1.367 . S
C1760 C1768 1.378 . S
C1761 C1760 1.367 . S
C1761 C1769 1.433 . S
C1762 H1758 0.929 . S
C1762 C1764 1.378 . S
C1762 C1766 1.350 . S
C1763 C1766 1.463 . S
C1763 C1768 1.350 . S
C1763 N1771 1.427 . S
C1764 H1755 0.930 . S
C1764 C1762 1.378 . S
C1764 C1765 1.367 . S
C1765 C1764 1.367 . S
C1765 C1767 1.433 . S
C1766 C1762 1.350 . S
C1766 C1763 1.463 . S
C1766 N1770 1.427 . S
C1767 H1757 0.929 . S
C1767 C1765 1.433 . S
C1767 N1770 1.384 . S
C1768 H1759 0.929 . S
C1768 C1760 1.378 . S
C1768 C1763 1.350 . S
C1769 H1756 0.929 . S
C1769 C1761 1.433 . S
C1769 N1771 1.384 . S
N1770 C1766 1.427 . S
N1770 C1767 1.384 . S
N1771 C1763 1.427 . S
N1771 C1769 1.384 . S
H1772 C1778 0.930 . S
H1773 C1782 0.930 . S
H1774 C1787 0.929 . S
H1775 C1785 0.929 . S
H1776 C1780 0.929 . S
H1777 C1786 0.929 . S
C1778 H1772 0.930 . S
C1778 C1779 1.367 . S
C1778 C1786 1.378 . S
C1779 C1778 1.367 . S
C1779 C1787 1.433 . S
C1780 H1776 0.929 . S
C1780 C1782 1.378 . S
C1780 C1784 1.350 . S
C1781 C1784 1.463 . S
C1781 C1786 1.350 . S
C1781 N1789 1.427 . S
C1782 H1773 0.930 . S
C1782 C1780 1.378 . S
C1782 C1783 1.367 . S
C1783 C1782 1.367 . S
C1783 C1785 1.433 . S
C1784 C1780 1.350 . S
C1784 C1781 1.463 . S
C1784 N1788 1.427 . S
C1785 H1775 0.929 . S
C1785 C1783 1.433 . S
C1785 N1788 1.384 . S
C1786 H1777 0.929 . S
C1786 C1778 1.378 . S
C1786 C1781 1.350 . S
C1787 H1774 0.929 . S
C1787 C1779 1.433 . S
C1787 N1789 1.384 . S
N1788 C1784 1.427 . S
N1788 C1785 1.384 . S
N1789 C1781 1.427 . S
N1789 C1787 1.384 . S
H1790 C1796 0.930 . S
H1791 C1800 0.930 . S
H1792 C1805 0.929 . S
H1793 C1803 0.929 . S
H1794 C1798 0.929 . S
H1795 C1804 0.929 . S
C1796 H1790 0.930 . S
C1796 C1797 1.367 . S
C1796 C1804 1.378 . S
C1797 C1796 1.367 . S
C1797 C1805 1.433 . S
C1798 H1794 0.929 . S
C1798 C1800 1.378 . S
C1798 C1802 1.350 . S
C1799 C1802 1.463 . S
C1799 C1804 1.350 . S
C1799 N1807 1.427 . S
C1800 H1791 0.930 . S
C1800 C1798 1.378 . S
C1800 C1801 1.367 . S
C1801 C1800 1.367 . S
C1801 C1803 1.433 . S
C1802 C1798 1.350 . S
C1802 C1799 1.463 . S
C1802 N1806 1.427 . S
C1803 H1793 0.929 . S
C1803 C1801 1.433 . S
C1803 N1806 1.384 . S
C1804 H1795 0.929 . S
C1804 C1796 1.378 . S
C1804 C1799 1.350 . S
C1805 H1792 0.929 . S
C1805 C1797 1.433 . S
C1805 N1807 1.384 . S
N1806 C1802 1.427 . S
N1806 C1803 1.384 . S
N1807 C1799 1.427 . S
N1807 C1805 1.384 . S
H1808 C1814 0.930 . S
H1809 C1818 0.930 . S
H1810 C1823 0.929 . S
H1811 C1821 0.929 . S
H1812 C1816 0.929 . S
H1813 C1822 0.929 . S
C1814 H1808 0.930 . S
C1814 C1815 1.367 . S
C1814 C1822 1.378 . S
C1815 C1814 1.367 . S
C1815 C1823 1.433 . S
C1816 H1812 0.929 . S
C1816 C1818 1.378 . S
C1816 C1820 1.350 . S
C1817 C1820 1.463 . S
C1817 C1822 1.350 . S
C1817 N1825 1.427 . S
C1818 H1809 0.930 . S
C1818 C1816 1.378 . S
C1818 C1819 1.367 . S
C1819 C1818 1.367 . S
C1819 C1821 1.433 . S
C1820 C1816 1.350 . S
C1820 C1817 1.463 . S
C1820 N1824 1.427 . S
C1821 H1811 0.929 . S
C1821 C1819 1.433 . S
C1821 N1824 1.384 . S
C1822 H1813 0.929 . S
C1822 C1814 1.378 . S
C1822 C1817 1.350 . S
C1823 H1810 0.929 . S
C1823 C1815 1.433 . S
C1823 N1825 1.384 . S
N1824 C1820 1.427 . S
N1824 C1821 1.384 . S
N1825 C1817 1.427 . S
N1825 C1823 1.384 . S
H1826 C1832 0.930 . S
H1827 C1836 0.930 . S
H1828 C1841 0.929 . S
H1829 C1839 0.929 . S
H1830 C1834 0.929 . S
H1831 C1840 0.929 . S
C1832 H1826 0.930 . S
C1832 C1833 1.367 . S
C1832 C1840 1.378 . S
C1833 C1832 1.367 . S
C1833 C1841 1.433 . S
C1834 H1830 0.929 . S
C1834 C1836 1.378 . S
C1834 C1838 1.350 . S
C1835 C1838 1.463 . S
C1835 C1840 1.350 . S
C1835 N1843 1.427 . S
C1836 H1827 0.930 . S
C1836 C1834 1.378 . S
C1836 C1837 1.367 . S
C1837 C1836 1.367 . S
C1837 C1839 1.433 . S
C1838 C1834 1.350 . S
C1838 C1835 1.463 . S
C1838 N1842 1.427 . S
C1839 H1829 0.929 . S
C1839 C1837 1.433 . S
C1839 N1842 1.384 . S
C1840 H1831 0.929 . S
C1840 C1832 1.378 . S
C1840 C1835 1.350 . S
C1841 H1828 0.929 . S
C1841 C1833 1.433 . S
C1841 N1843 1.384 . S
N1842 C1838 1.427 . S
N1842 C1839 1.384 . S
N1843 C1835 1.427 . S
N1843 C1841 1.384 . S
H1844 C1850 0.930 . S
H1845 C1854 0.930 . S
H1846 C1859 0.929 . S
H1847 C1857 0.929 . S
H1848 C1852 0.929 . S
H1849 C1858 0.929 . S
C1850 H1844 0.930 . S
C1850 C1851 1.367 . S
C1850 C1858 1.378 . S
C1851 C1850 1.367 . S
C1851 C1859 1.433 . S
C1852 H1848 0.929 . S
C1852 C1854 1.378 . S
C1852 C1856 1.350 . S
C1853 C1856 1.463 . S
C1853 C1858 1.350 . S
C1853 N1861 1.427 . S
C1854 H1845 0.930 . S
C1854 C1852 1.378 . S
C1854 C1855 1.367 . S
C1855 C1854 1.367 . S
C1855 C1857 1.433 . S
C1856 C1852 1.350 . S
C1856 C1853 1.463 . S
C1856 N1860 1.427 . S
C1857 H1847 0.929 . S
C1857 C1855 1.433 . S
C1857 N1860 1.384 . S
C1858 H1849 0.929 . S
C1858 C1850 1.378 . S
C1858 C1853 1.350 . S
C1859 H1846 0.929 . S
C1859 C1851 1.433 . S
C1859 N1861 1.384 . S
N1860 C1856 1.427 . S
N1860 C1857 1.384 . S
N1861 C1853 1.427 . S
N1861 C1859 1.384 . S
H1862 C1868 0.930 . S
H1863 C1872 0.930 1_545 S
H1864 C1877 0.929 . S
H1865 C1875 0.928 1_545 S
H1866 C1870 0.929 . S
H1867 C1876 0.929 . S
C1868 H1862 0.930 . S
C1868 C1869 1.367 . S
C1868 C1876 1.378 . S
C1869 C1868 1.367 . S
C1869 C1877 1.433 1_554 S
C1870 H1866 0.929 . S
C1870 C1872 1.378 . S
C1870 C1874 1.350 1_556 S
C1871 C1874 1.463 . S
C1871 C1876 1.350 . S
C1871 N1879 1.427 1_554 S
C1872 H1863 0.930 1_565 S
C1872 C1870 1.378 . S
C1872 C1873 1.367 1_566 S
C1873 C1872 1.367 1_544 S
C1873 C1875 1.433 1_545 S
C1874 C1870 1.350 1_554 S
C1874 C1871 1.463 . S
C1874 N1878 1.427 . S
C1875 H1865 0.928 1_565 S
C1875 C1873 1.433 1_565 S
C1875 N1878 1.384 . S
C1876 H1867 0.929 . S
C1876 C1868 1.378 . S
C1876 C1871 1.350 . S
C1877 H1864 0.929 . S
C1877 C1869 1.433 1_556 S
C1877 N1879 1.384 . S
N1878 C1874 1.427 . S
N1878 C1875 1.384 . S
N1879 C1871 1.427 1_556 S
N1879 C1877 1.384 . S
H1880 C1886 0.930 . S
H1881 C1890 0.930 . S
H1882 C1895 0.929 . S
H1883 C1893 0.929 . S
H1884 C1888 0.929 . S
H1885 C1894 0.929 . S
C1886 H1880 0.930 . S
C1886 C1887 1.367 . S
C1886 C1894 1.378 . S
C1887 C1886 1.367 . S
C1887 C1895 1.433 . S
C1888 H1884 0.929 . S
C1888 C1890 1.378 . S
C1888 C1892 1.350 . S
C1889 C1892 1.463 . S
C1889 C1894 1.350 . S
C1889 N1897 1.427 . S
C1890 H1881 0.930 . S
C1890 C1888 1.378 . S
C1890 C1891 1.367 . S
C1891 C1890 1.367 . S
C1891 C1893 1.433 . S
C1892 C1888 1.350 . S
C1892 C1889 1.463 . S
C1892 N1896 1.427 . S
C1893 H1883 0.929 . S
C1893 C1891 1.433 . S
C1893 N1896 1.384 . S
C1894 H1885 0.929 . S
C1894 C1886 1.378 . S
C1894 C1889 1.350 . S
C1895 H1882 0.929 . S
C1895 C1887 1.433 . S
C1895 N1897 1.384 . S
N1896 C1892 1.427 . S
N1896 C1893 1.384 . S
N1897 C1889 1.427 . S
N1897 C1895 1.384 . S
H1898 C1904 0.930 . S
H1899 C1908 0.922 1_556 S
H1900 C1913 0.929 . S
H1901 C1911 0.929 . S
H1902 C1906 0.929 1_556 S
H1903 C1912 0.929 . S
C1904 H1898 0.930 . S
C1904 C1905 1.367 . S
C1904 C1912 1.378 . S
C1905 C1904 1.367 . S
C1905 C1913 1.433 1_554 S
C1906 H1902 0.929 1_554 S
C1906 C1908 1.378 . S
C1906 C1910 1.350 . S
C1907 C1910 1.463 . S
C1907 C1912 1.350 . S
C1907 N1915 1.411 1_554 S
C1908 H1899 0.922 1_554 S
C1908 C1906 1.378 . S
C1908 C1909 1.367 . S
C1909 C1908 1.367 . S
C1909 C1911 1.433 . S
C1910 C1906 1.350 . S
C1910 C1907 1.463 . S
C1910 N1914 1.427 . S
C1911 H1901 0.929 . S
C1911 C1909 1.433 . S
C1911 N1914 1.384 . S
C1912 H1903 0.929 . S
C1912 C1904 1.378 . S
C1912 C1907 1.350 . S
C1913 H1900 0.929 . S
C1913 C1905 1.433 1_556 S
C1913 N1915 1.388 . S
N1914 C1910 1.427 . S
N1914 C1911 1.384 . S
N1915 C1907 1.411 1_556 S
N1915 C1913 1.388 . S
H1916 C1922 0.930 . S
H1917 C1926 0.930 . S
H1918 C1931 0.929 . S
H1919 C1929 0.929 . S
H1920 C1924 0.929 . S
H1921 C1930 0.929 . S
C1922 H1916 0.930 . S
C1922 C1923 1.367 . S
C1922 C1930 1.378 . S
C1923 C1922 1.367 . S
C1923 C1931 1.433 . S
C1924 H1920 0.929 . S
C1924 C1926 1.378 . S
C1924 C1928 1.350 . S
C1925 C1928 1.463 . S
C1925 C1930 1.350 . S
C1925 N1933 1.427 . S
C1926 H1917 0.930 . S
C1926 C1924 1.378 . S
C1926 C1927 1.367 . S
C1927 C1926 1.367 . S
C1927 C1929 1.433 . S
C1928 C1924 1.350 . S
C1928 C1925 1.463 . S
C1928 N1932 1.427 . S
C1929 H1919 0.929 . S
C1929 C1927 1.433 . S
C1929 N1932 1.384 . S
C1930 H1921 0.929 . S
C1930 C1922 1.378 . S
C1930 C1925 1.350 . S
C1931 H1918 0.929 . S
C1931 C1923 1.433 . S
C1931 N1933 1.384 . S
N1932 C1928 1.427 . S
N1932 C1929 1.384 . S
N1933 C1925 1.427 . S
N1933 C1931 1.384 . S
H1934 C1940 0.930 . S
H1935 C1944 0.930 . S
H1936 C1949 0.929 . S
H1937 C1947 0.929 . S
H1938 C1942 0.929 . S
H1939 C1948 0.929 . S
C1940 H1934 0.930 . S
C1940 C1941 1.367 . S
C1940 C1948 1.378 . S
C1941 C1940 1.367 . S
C1941 C1949 1.433 . S
C1942 H1938 0.929 . S
C1942 C1944 1.378 . S
C1942 C1946 1.350 . S
C1943 C1946 1.463 . S
C1943 C1948 1.350 . S
C1943 N1951 1.427 . S
C1944 H1935 0.930 . S
C1944 C1942 1.378 . S
C1944 C1945 1.367 . S
C1945 C1944 1.367 . S
C1945 C1947 1.433 . S
C1946 C1942 1.350 . S
C1946 C1943 1.463 . S
C1946 N1950 1.427 . S
C1947 H1937 0.929 . S
C1947 C1945 1.433 . S
C1947 N1950 1.384 . S
C1948 H1939 0.929 . S
C1948 C1940 1.378 . S
C1948 C1943 1.350 . S
C1949 H1936 0.929 . S
C1949 C1941 1.433 . S
C1949 N1951 1.384 . S
N1950 C1946 1.427 . S
N1950 C1947 1.384 . S
N1951 C1943 1.427 . S
N1951 C1949 1.384 . S
H1952 C1958 0.930 . S
H1953 C1962 0.930 . S
H1954 C1967 0.929 . S
H1955 C1965 0.929 . S
H1956 C1960 0.929 . S
H1957 C1966 0.929 . S
C1958 H1952 0.930 . S
C1958 C1959 1.367 . S
C1958 C1966 1.378 . S
C1959 C1958 1.367 . S
C1959 C1967 1.433 . S
C1960 H1956 0.929 . S
C1960 C1962 1.378 . S
C1960 C1964 1.350 . S
C1961 C1964 1.463 . S
C1961 C1966 1.350 . S
C1961 N1969 1.427 . S
C1962 H1953 0.930 . S
C1962 C1960 1.378 . S
C1962 C1963 1.367 . S
C1963 C1962 1.367 . S
C1963 C1965 1.433 . S
C1964 C1960 1.350 . S
C1964 C1961 1.463 . S
C1964 N1968 1.427 . S
C1965 H1955 0.929 . S
C1965 C1963 1.433 . S
C1965 N1968 1.384 . S
C1966 H1957 0.929 . S
C1966 C1958 1.378 . S
C1966 C1961 1.350 . S
C1967 H1954 0.929 . S
C1967 C1959 1.433 . S
C1967 N1969 1.384 . S
N1968 C1964 1.427 . S
N1968 C1965 1.384 . S
N1969 C1961 1.427 . S
N1969 C1967 1.384 . S
H1970 C1976 0.930 . S
H1971 C1980 0.930 . S
H1972 C1985 0.929 . S
H1973 C1983 0.929 . S
H1974 C1978 0.929 . S
H1975 C1984 0.929 . S
C1976 H1970 0.930 . S
C1976 C1977 1.367 . S
C1976 C1984 1.378 . S
C1977 C1976 1.367 . S
C1977 C1985 1.433 . S
C1978 H1974 0.929 . S
C1978 C1980 1.378 . S
C1978 C1982 1.350 . S
C1979 C1982 1.463 . S
C1979 C1984 1.350 . S
C1979 N1987 1.427 . S
C1980 H1971 0.930 . S
C1980 C1978 1.378 . S
C1980 C1981 1.367 . S
C1981 C1980 1.367 . S
C1981 C1983 1.433 . S
C1982 C1978 1.350 . S
C1982 C1979 1.463 . S
C1982 N1986 1.427 . S
C1983 H1973 0.929 . S
C1983 C1981 1.433 . S
C1983 N1986 1.384 . S
C1984 H1975 0.929 . S
C1984 C1976 1.378 . S
C1984 C1979 1.350 . S
C1985 H1972 0.929 . S
C1985 C1977 1.433 . S
C1985 N1987 1.384 . S
N1986 C1982 1.427 . S
N1986 C1983 1.384 . S
N1987 C1979 1.427 . S
N1987 C1985 1.384 . S
H1988 C1994 0.930 . S
H1989 C1998 0.930 1_655 S
H1990 C2003 0.929 1_655 S
H1991 C2001 0.929 . S
H1992 C1996 0.929 1_655 S
H1993 C2002 0.929 . S
C1994 H1988 0.930 . S
C1994 C1995 1.367 . S
C1994 C2002 1.378 . S
C1995 C1994 1.367 . S
C1995 C2003 1.433 . S
C1996 H1992 0.929 1_455 S
C1996 C1998 1.378 . S
C1996 C2000 1.350 . S
C1997 C2000 1.463 . S
C1997 C2002 1.350 . S
C1997 N2005 1.427 . S
C1998 H1989 0.930 1_455 S
C1998 C1996 1.378 . S
C1998 C1999 1.367 . S
C1999 C1998 1.367 . S
C1999 C2001 1.433 . S
C2000 C1996 1.350 . S
C2000 C1997 1.463 . S
C2000 N2004 1.427 . S
C2001 H1991 0.929 . S
C2001 C1999 1.433 . S
C2001 N2004 1.384 . S
C2002 H1993 0.929 . S
C2002 C1994 1.378 . S
C2002 C1997 1.350 . S
C2003 H1990 0.929 1_455 S
C2003 C1995 1.433 . S
C2003 N2005 1.384 . S
N2004 C2000 1.427 . S
N2004 C2001 1.384 . S
N2005 C1997 1.427 . S
N2005 C2003 1.384 . S
H2006 C2012 0.930 . S
H2007 C2016 0.930 . S
H2008 C2021 0.929 . S
H2009 C2019 0.929 . S
H2010 C2014 0.929 . S
H2011 C2020 0.929 . S
C2012 H2006 0.930 . S
C2012 C2013 1.367 . S
C2012 C2020 1.378 . S
C2013 C2012 1.367 . S
C2013 C2021 1.433 . S
C2014 H2010 0.929 . S
C2014 C2016 1.378 . S
C2014 C2018 1.350 . S
C2015 C2018 1.463 . S
C2015 C2020 1.350 . S
C2015 N2023 1.427 . S
C2016 H2007 0.930 . S
C2016 C2014 1.378 . S
C2016 C2017 1.367 . S
C2017 C2016 1.367 . S
C2017 C2019 1.433 . S
C2018 C2014 1.350 . S
C2018 C2015 1.463 . S
C2018 N2022 1.427 . S
C2019 H2009 0.929 . S
C2019 C2017 1.433 . S
C2019 N2022 1.384 . S
C2020 H2011 0.929 . S
C2020 C2012 1.378 . S
C2020 C2015 1.350 . S
C2021 H2008 0.929 . S
C2021 C2013 1.433 . S
C2021 N2023 1.384 . S
N2022 C2018 1.427 . S
N2022 C2019 1.384 . S
N2023 C2015 1.427 . S
N2023 C2021 1.384 . S
H2024 C2030 0.930 . S
H2025 C2034 0.930 1_554 S
H2026 C2039 0.929 . S
H2027 C2037 0.929 . S
H2028 C2032 0.929 . S
H2029 C2038 0.929 . S
C2030 H2024 0.930 . S
C2030 C2031 1.367 . S
C2030 C2038 1.378 . S
C2031 C2030 1.367 . S
C2031 C2039 1.433 . S
C2032 H2028 0.929 . S
C2032 C2034 1.378 . S
C2032 C2036 1.350 . S
C2033 C2036 1.463 . S
C2033 C2038 1.350 . S
C2033 N2041 1.427 . S
C2034 H2025 0.930 1_556 S
C2034 C2032 1.378 . S
C2034 C2035 1.367 . S
C2035 C2034 1.367 . S
C2035 C2037 1.433 . S
C2036 C2032 1.350 . S
C2036 C2033 1.463 . S
C2036 N2040 1.427 . S
C2037 H2027 0.929 . S
C2037 C2035 1.433 . S
C2037 N2040 1.384 . S
C2038 H2029 0.929 . S
C2038 C2030 1.378 . S
C2038 C2033 1.350 . S
C2039 H2026 0.929 . S
C2039 C2031 1.433 . S
C2039 N2041 1.384 . S
N2040 C2036 1.427 . S
N2040 C2037 1.384 . S
N2041 C2033 1.427 . S
N2041 C2039 1.384 . S
H2042 C2048 0.930 . S
H2043 C2052 0.930 . S
H2044 C2057 0.929 . S
H2045 C2055 0.929 . S
H2046 C2050 0.929 . S
H2047 C2056 0.929 . S
C2048 H2042 0.930 . S
C2048 C2049 1.367 . S
C2048 C2056 1.378 . S
C2049 C2048 1.367 . S
C2049 C2057 1.433 . S
C2050 H2046 0.929 . S
C2050 C2052 1.378 . S
C2050 C2054 1.350 . S
C2051 C2054 1.463 . S
C2051 C2056 1.350 . S
C2051 N2059 1.427 . S
C2052 H2043 0.930 . S
C2052 C2050 1.378 . S
C2052 C2053 1.367 . S
C2053 C2052 1.367 . S
C2053 C2055 1.433 . S
C2054 C2050 1.350 . S
C2054 C2051 1.463 . S
C2054 N2058 1.427 . S
C2055 H2045 0.929 . S
C2055 C2053 1.433 . S
C2055 N2058 1.384 . S
C2056 H2047 0.929 . S
C2056 C2048 1.378 . S
C2056 C2051 1.350 . S
C2057 H2044 0.929 . S
C2057 C2049 1.433 . S
C2057 N2059 1.384 . S
N2058 C2054 1.427 . S
N2058 C2055 1.384 . S
N2059 C2051 1.427 . S
N2059 C2057 1.384 . S
H2060 C2066 0.930 . S
H2061 C2070 0.930 . S
H2062 C2075 0.929 . S
H2063 C2073 0.929 . S
H2064 C2068 0.929 . S
H2065 C2074 0.929 . S
C2066 H2060 0.930 . S
C2066 C2067 1.367 . S
C2066 C2074 1.378 . S
C2067 C2066 1.367 . S
C2067 C2075 1.433 . S
C2068 H2064 0.929 . S
C2068 C2070 1.378 . S
C2068 C2072 1.350 . S
C2069 C2072 1.463 . S
C2069 C2074 1.350 . S
C2069 N2077 1.427 . S
C2070 H2061 0.930 . S
C2070 C2068 1.378 . S
C2070 C2071 1.367 . S
C2071 C2070 1.367 . S
C2071 C2073 1.433 . S
C2072 C2068 1.350 . S
C2072 C2069 1.463 . S
C2072 N2076 1.427 . S
C2073 H2063 0.929 . S
C2073 C2071 1.433 . S
C2073 N2076 1.384 . S
C2074 H2065 0.929 . S
C2074 C2066 1.378 . S
C2074 C2069 1.350 . S
C2075 H2062 0.929 . S
C2075 C2067 1.433 . S
C2075 N2077 1.384 . S
N2076 C2072 1.427 . S
N2076 C2073 1.384 . S
N2077 C2069 1.427 . S
N2077 C2075 1.384 . S
H2078 C2084 0.930 . S
H2079 C2088 0.930 . S
H2080 C2093 0.929 . S
H2081 C2091 0.929 . S
H2082 C2086 0.929 . S
H2083 C2092 0.929 . S
C2084 H2078 0.930 . S
C2084 C2085 1.367 . S
C2084 C2092 1.378 . S
C2085 C2084 1.367 . S
C2085 C2093 1.433 . S
C2086 H2082 0.929 . S
C2086 C2088 1.378 . S
C2086 C2090 1.350 . S
C2087 C2090 1.463 . S
C2087 C2092 1.350 . S
C2087 N2095 1.427 . S
C2088 H2079 0.930 . S
C2088 C2086 1.378 . S
C2088 C2089 1.367 . S
C2089 C2088 1.367 . S
C2089 C2091 1.433 . S
C2090 C2086 1.350 . S
C2090 C2087 1.463 . S
C2090 N2094 1.427 . S
C2091 H2081 0.929 . S
C2091 C2089 1.433 . S
C2091 N2094 1.384 . S
C2092 H2083 0.929 . S
C2092 C2084 1.378 . S
C2092 C2087 1.350 . S
C2093 H2080 0.929 . S
C2093 C2085 1.433 . S
C2093 N2095 1.384 . S
N2094 C2090 1.427 . S
N2094 C2091 1.384 . S
N2095 C2087 1.427 . S
N2095 C2093 1.384 . S
H2096 C2102 0.930 . S
H2097 C2106 0.930 . S
H2098 C2111 0.929 . S
H2099 C2109 0.929 . S
H2100 C2104 0.929 . S
H2101 C2110 0.929 . S
C2102 H2096 0.930 . S
C2102 C2103 1.367 . S
C2102 C2110 1.378 . S
C2103 C2102 1.367 . S
C2103 C2111 1.433 . S
C2104 H2100 0.929 . S
C2104 C2106 1.378 . S
C2104 C2108 1.350 . S
C2105 C2108 1.463 . S
C2105 C2110 1.350 . S
C2105 N2113 1.427 . S
C2106 H2097 0.930 . S
C2106 C2104 1.378 . S
C2106 C2107 1.367 . S
C2107 C2106 1.367 . S
C2107 C2109 1.433 . S
C2108 C2104 1.350 . S
C2108 C2105 1.463 . S
C2108 N2112 1.427 . S
C2109 H2099 0.929 . S
C2109 C2107 1.433 . S
C2109 N2112 1.384 . S
C2110 H2101 0.929 . S
C2110 C2102 1.378 . S
C2110 C2105 1.350 . S
C2111 H2098 0.929 . S
C2111 C2103 1.433 . S
C2111 N2113 1.384 . S
N2112 C2108 1.427 . S
N2112 C2109 1.384 . S
N2113 C2105 1.427 . S
N2113 C2111 1.384 . S
H2114 C2120 0.930 . S
H2115 C2124 0.930 . S
H2116 C2129 0.929 . S
H2117 C2127 0.929 . S
H2118 C2122 0.929 . S
H2119 C2128 0.929 . S
C2120 H2114 0.930 . S
C2120 C2121 1.367 . S
C2120 C2128 1.378 . S
C2121 C2120 1.367 . S
C2121 C2129 1.433 . S
C2122 H2118 0.929 . S
C2122 C2124 1.378 . S
C2122 C2126 1.350 . S
C2123 C2126 1.463 . S
C2123 C2128 1.350 . S
C2123 N2131 1.427 . S
C2124 H2115 0.930 . S
C2124 C2122 1.378 . S
C2124 C2125 1.367 . S
C2125 C2124 1.367 . S
C2125 C2127 1.433 . S
C2126 C2122 1.350 . S
C2126 C2123 1.463 . S
C2126 N2130 1.427 . S
C2127 H2117 0.929 . S
C2127 C2125 1.433 . S
C2127 N2130 1.384 . S
C2128 H2119 0.929 . S
C2128 C2120 1.378 . S
C2128 C2123 1.350 . S
C2129 H2116 0.929 . S
C2129 C2121 1.433 . S
C2129 N2131 1.384 . S
N2130 C2126 1.427 . S
N2130 C2127 1.384 . S
N2131 C2123 1.427 . S
N2131 C2129 1.384 . S
H2132 C2138 0.930 . S
H2133 C2142 0.930 . S
H2134 C2147 0.929 . S
H2135 C2145 0.929 . S
H2136 C2140 0.929 . S
H2137 C2146 0.929 . S
C2138 H2132 0.930 . S
C2138 C2139 1.367 . S
C2138 C2146 1.378 . S
C2139 C2138 1.367 . S
C2139 C2147 1.433 . S
C2140 H2136 0.929 . S
C2140 C2142 1.378 . S
C2140 C2144 1.350 . S
C2141 C2144 1.463 . S
C2141 C2146 1.350 . S
C2141 N2149 1.427 . S
C2142 H2133 0.930 . S
C2142 C2140 1.378 . S
C2142 C2143 1.367 . S
C2143 C2142 1.367 . S
C2143 C2145 1.433 . S
C2144 C2140 1.350 . S
C2144 C2141 1.463 . S
C2144 N2148 1.427 . S
C2145 H2135 0.929 . S
C2145 C2143 1.433 . S
C2145 N2148 1.384 . S
C2146 H2137 0.929 . S
C2146 C2138 1.378 . S
C2146 C2141 1.350 . S
C2147 H2134 0.929 . S
C2147 C2139 1.433 . S
C2147 N2149 1.384 . S
N2148 C2144 1.427 . S
N2148 C2145 1.384 . S
N2149 C2141 1.427 . S
N2149 C2147 1.384 . S
H2150 C2156 0.930 . S
H2151 C2160 0.930 . S
H2152 C2165 0.929 . S
H2153 C2163 0.929 . S
H2154 C2158 0.929 . S
H2155 C2164 0.929 . S
C2156 H2150 0.930 . S
C2156 C2157 1.367 . S
C2156 C2164 1.378 . S
C2157 C2156 1.367 . S
C2157 C2165 1.433 . S
C2158 H2154 0.929 . S
C2158 C2160 1.378 . S
C2158 C2162 1.350 . S
C2159 C2162 1.463 . S
C2159 C2164 1.350 . S
C2159 N2167 1.427 . S
C2160 H2151 0.930 . S
C2160 C2158 1.378 . S
C2160 C2161 1.367 . S
C2161 C2160 1.367 . S
C2161 C2163 1.433 . S
C2162 C2158 1.350 . S
C2162 C2159 1.463 . S
C2162 N2166 1.427 . S
C2163 H2153 0.929 . S
C2163 C2161 1.433 . S
C2163 N2166 1.384 . S
C2164 H2155 0.929 . S
C2164 C2156 1.378 . S
C2164 C2159 1.350 . S
C2165 H2152 0.929 . S
C2165 C2157 1.433 . S
C2165 N2167 1.384 . S
N2166 C2162 1.427 . S
N2166 C2163 1.384 . S
N2167 C2159 1.427 . S
N2167 C2165 1.384 . S
H2168 C2174 0.930 . S
H2169 C2178 0.930 . S
H2170 C2183 0.929 . S
H2171 C2181 0.929 . S
H2172 C2176 0.929 . S
H2173 C2182 0.929 . S
C2174 H2168 0.930 . S
C2174 C2175 1.367 . S
C2174 C2182 1.378 . S
C2175 C2174 1.367 . S
C2175 C2183 1.433 . S
C2176 H2172 0.929 . S
C2176 C2178 1.378 . S
C2176 C2180 1.350 . S
C2177 C2180 1.463 . S
C2177 C2182 1.350 . S
C2177 N2185 1.427 . S
C2178 H2169 0.930 . S
C2178 C2176 1.378 . S
C2178 C2179 1.367 . S
C2179 C2178 1.367 . S
C2179 C2181 1.433 . S
C2180 C2176 1.350 . S
C2180 C2177 1.463 . S
C2180 N2184 1.427 . S
C2181 H2171 0.929 . S
C2181 C2179 1.433 . S
C2181 N2184 1.384 . S
C2182 H2173 0.929 . S
C2182 C2174 1.378 . S
C2182 C2177 1.350 . S
C2183 H2170 0.929 . S
C2183 C2175 1.433 . S
C2183 N2185 1.384 . S
N2184 C2180 1.427 . S
N2184 C2181 1.384 . S
N2185 C2177 1.427 . S
N2185 C2183 1.384 . S
H2186 C2192 0.930 . S
H2187 C2196 0.930 . S
H2188 C2201 0.929 . S
H2189 C2199 0.929 . S
H2190 C2194 0.929 . S
H2191 C2200 0.929 . S
C2192 H2186 0.930 . S
C2192 C2193 1.367 . S
C2192 C2200 1.378 . S
C2193 C2192 1.367 . S
C2193 C2201 1.433 . S
C2194 H2190 0.929 . S
C2194 C2196 1.378 . S
C2194 C2198 1.350 . S
C2195 C2198 1.463 . S
C2195 C2200 1.350 . S
C2195 N2203 1.427 . S
C2196 H2187 0.930 . S
C2196 C2194 1.378 . S
C2196 C2197 1.367 . S
C2197 C2196 1.367 . S
C2197 C2199 1.433 . S
C2198 C2194 1.350 . S
C2198 C2195 1.463 . S
C2198 N2202 1.427 . S
C2199 H2189 0.929 . S
C2199 C2197 1.433 . S
C2199 N2202 1.384 . S
C2200 H2191 0.929 . S
C2200 C2192 1.378 . S
C2200 C2195 1.350 . S
C2201 H2188 0.929 . S
C2201 C2193 1.433 . S
C2201 N2203 1.384 . S
N2202 C2198 1.427 . S
N2202 C2199 1.384 . S
N2203 C2195 1.427 . S
N2203 C2201 1.384 . S
H2204 C2210 0.930 . S
H2205 C2214 0.930 . S
H2206 C2219 0.929 . S
H2207 C2217 0.929 . S
H2208 C2212 0.929 . S
H2209 C2218 0.929 . S
C2210 H2204 0.930 . S
C2210 C2211 1.367 . S
C2210 C2218 1.378 . S
C2211 C2210 1.367 . S
C2211 C2219 1.433 . S
C2212 H2208 0.929 . S
C2212 C2214 1.378 . S
C2212 C2216 1.350 . S
C2213 C2216 1.463 . S
C2213 C2218 1.350 . S
C2213 N2221 1.427 . S
C2214 H2205 0.930 . S
C2214 C2212 1.378 . S
C2214 C2215 1.367 . S
C2215 C2214 1.367 . S
C2215 C2217 1.433 . S
C2216 C2212 1.350 . S
C2216 C2213 1.463 . S
C2216 N2220 1.427 . S
C2217 H2207 0.929 . S
C2217 C2215 1.433 . S
C2217 N2220 1.384 . S
C2218 H2209 0.929 . S
C2218 C2210 1.378 . S
C2218 C2213 1.350 . S
C2219 H2206 0.929 . S
C2219 C2211 1.433 . S
C2219 N2221 1.384 . S
N2220 C2216 1.427 . S
N2220 C2217 1.384 . S
N2221 C2213 1.427 . S
N2221 C2219 1.384 . S
H2222 C2228 0.930 . S
H2223 C2232 0.930 . S
H2224 C2237 0.929 . S
H2225 C2235 0.929 . S
H2226 C2230 0.929 . S
H2227 C2236 0.929 . S
C2228 H2222 0.930 . S
C2228 C2229 1.367 . S
C2228 C2236 1.378 . S
C2229 C2228 1.367 . S
C2229 C2237 1.433 . S
C2230 H2226 0.929 . S
C2230 C2232 1.378 . S
C2230 C2234 1.350 . S
C2231 C2234 1.463 . S
C2231 C2236 1.350 . S
C2231 N2239 1.427 . S
C2232 H2223 0.930 . S
C2232 C2230 1.378 . S
C2232 C2233 1.367 . S
C2233 C2232 1.367 . S
C2233 C2235 1.433 . S
C2234 C2230 1.350 . S
C2234 C2231 1.463 . S
C2234 N2238 1.427 . S
C2235 H2225 0.929 . S
C2235 C2233 1.433 . S
C2235 N2238 1.384 . S
C2236 H2227 0.929 . S
C2236 C2228 1.378 . S
C2236 C2231 1.350 . S
C2237 H2224 0.929 . S
C2237 C2229 1.433 . S
C2237 N2239 1.384 . S
N2238 C2234 1.427 . S
N2238 C2235 1.384 . S
N2239 C2231 1.427 . S
N2239 C2237 1.384 . S
H2240 C2246 0.930 . S
H2241 C2250 0.930 . S
H2242 C2255 0.929 . S
H2243 C2253 0.929 . S
H2244 C2248 0.929 . S
H2245 C2254 0.929 . S
C2246 H2240 0.930 . S
C2246 C2247 1.367 . S
C2246 C2254 1.378 . S
C2247 C2246 1.367 . S
C2247 C2255 1.433 . S
C2248 H2244 0.929 . S
C2248 C2250 1.378 . S
C2248 C2252 1.350 . S
C2249 C2252 1.463 . S
C2249 C2254 1.350 . S
C2249 N2257 1.427 . S
C2250 H2241 0.930 . S
C2250 C2248 1.378 . S
C2250 C2251 1.367 . S
C2251 C2250 1.367 . S
C2251 C2253 1.433 . S
C2252 C2248 1.350 . S
C2252 C2249 1.463 . S
C2252 N2256 1.427 . S
C2253 H2243 0.929 . S
C2253 C2251 1.433 . S
C2253 N2256 1.384 . S
C2254 H2245 0.929 . S
C2254 C2246 1.378 . S
C2254 C2249 1.350 . S
C2255 H2242 0.929 . S
C2255 C2247 1.433 . S
C2255 N2257 1.384 . S
N2256 C2252 1.427 . S
N2256 C2253 1.384 . S
N2257 C2249 1.427 . S
N2257 C2255 1.384 . S
H2258 C2264 0.930 . S
H2259 C2268 0.930 . S
H2260 C2273 0.929 . S
H2261 C2271 0.929 . S
H2262 C2266 0.929 . S
H2263 C2272 0.929 . S
C2264 H2258 0.930 . S
C2264 C2265 1.367 . S
C2264 C2272 1.378 . S
C2265 C2264 1.367 . S
C2265 C2273 1.433 . S
C2266 H2262 0.929 . S
C2266 C2268 1.378 . S
C2266 C2270 1.350 . S
C2267 C2270 1.463 . S
C2267 C2272 1.350 . S
C2267 N2275 1.427 . S
C2268 H2259 0.930 . S
C2268 C2266 1.378 . S
C2268 C2269 1.367 . S
C2269 C2268 1.367 . S
C2269 C2271 1.433 . S
C2270 C2266 1.350 . S
C2270 C2267 1.463 . S
C2270 N2274 1.427 . S
C2271 H2261 0.929 . S
C2271 C2269 1.433 . S
C2271 N2274 1.384 . S
C2272 H2263 0.929 . S
C2272 C2264 1.378 . S
C2272 C2267 1.350 . S
C2273 H2260 0.929 . S
C2273 C2265 1.433 . S
C2273 N2275 1.384 . S
N2274 C2270 1.427 . S
N2274 C2271 1.384 . S
N2275 C2267 1.427 . S
N2275 C2273 1.384 . S
H2276 C2282 0.930 . S
H2277 C2286 0.930 . S
H2278 C2291 0.929 . S
H2279 C2289 0.929 . S
H2280 C2284 0.929 . S
H2281 C2290 0.929 . S
C2282 H2276 0.930 . S
C2282 C2283 1.367 . S
C2282 C2290 1.378 . S
C2283 C2282 1.367 . S
C2283 C2291 1.433 . S
C2284 H2280 0.929 . S
C2284 C2286 1.378 . S
C2284 C2288 1.350 . S
C2285 C2288 1.463 . S
C2285 C2290 1.350 . S
C2285 N2293 1.427 . S
C2286 H2277 0.930 . S
C2286 C2284 1.378 . S
C2286 C2287 1.367 . S
C2287 C2286 1.367 . S
C2287 C2289 1.433 . S
C2288 C2284 1.350 . S
C2288 C2285 1.463 . S
C2288 N2292 1.427 . S
C2289 H2279 0.929 . S
C2289 C2287 1.433 . S
C2289 N2292 1.384 . S
C2290 H2281 0.929 . S
C2290 C2282 1.378 . S
C2290 C2285 1.350 . S
C2291 H2278 0.929 . S
C2291 C2283 1.433 . S
C2291 N2293 1.384 . S
N2292 C2288 1.427 . S
N2292 C2289 1.384 . S
N2293 C2285 1.427 . S
N2293 C2291 1.384 . S
H2294 C2300 0.930 . S
H2295 C2304 0.930 . S
H2296 C2309 0.929 . S
H2297 C2307 0.929 . S
H2298 C2302 0.929 . S
H2299 C2308 0.929 . S
C2300 H2294 0.930 . S
C2300 C2301 1.367 . S
C2300 C2308 1.378 . S
C2301 C2300 1.367 . S
C2301 C2309 1.433 1_556 S
C2302 H2298 0.929 . S
C2302 C2304 1.378 . S
C2302 C2306 1.350 . S
C2303 C2306 1.466 . S
C2303 C2308 1.335 1_554 S
C2303 N2311 1.440 . S
C2304 H2295 0.930 . S
C2304 C2302 1.378 . S
C2304 C2305 1.367 . S
C2305 C2304 1.367 . S
C2305 C2307 1.433 1_554 S
C2306 C2302 1.350 . S
C2306 C2303 1.466 . S
C2306 N2310 1.427 1_554 S
C2307 H2297 0.929 . S
C2307 C2305 1.433 1_556 S
C2307 N2310 1.384 . S
C2308 H2299 0.929 . S
C2308 C2300 1.378 . S
C2308 C2303 1.335 1_556 S
C2309 H2296 0.929 . S
C2309 C2301 1.433 1_554 S
C2309 N2311 1.384 . S
N2310 C2306 1.427 1_556 S
N2310 C2307 1.384 . S
N2311 C2303 1.440 . S
N2311 C2309 1.384 . S
H2312 C2318 0.930 . S
H2313 C2322 0.930 . S
H2314 C2327 0.929 . S
H2315 C2325 0.929 . S
H2316 C2320 0.929 . S
H2317 C2326 0.929 . S
C2318 H2312 0.930 . S
C2318 C2319 1.367 . S
C2318 C2326 1.378 . S
C2319 C2318 1.367 . S
C2319 C2327 1.433 . S
C2320 H2316 0.929 . S
C2320 C2322 1.378 . S
C2320 C2324 1.350 . S
C2321 C2324 1.463 . S
C2321 C2326 1.350 . S
C2321 N2329 1.427 . S
C2322 H2313 0.930 . S
C2322 C2320 1.378 . S
C2322 C2323 1.367 . S
C2323 C2322 1.367 . S
C2323 C2325 1.433 . S
C2324 C2320 1.350 . S
C2324 C2321 1.463 . S
C2324 N2328 1.427 . S
C2325 H2315 0.929 . S
C2325 C2323 1.433 . S
C2325 N2328 1.384 . S
C2326 H2317 0.929 . S
C2326 C2318 1.378 . S
C2326 C2321 1.350 . S
C2327 H2314 0.929 . S
C2327 C2319 1.433 . S
C2327 N2329 1.384 . S
N2328 C2324 1.427 . S
N2328 C2325 1.384 . S
N2329 C2321 1.427 . S
N2329 C2327 1.384 . S
H2330 C2336 0.930 . S
H2331 C2340 0.930 . S
H2332 C2345 0.929 . S
H2333 C2343 0.929 . S
H2334 C2338 0.929 . S
H2335 C2344 0.929 . S
C2336 H2330 0.930 . S
C2336 C2337 1.367 1_556 S
C2336 C2344 1.378 . S
C2337 C2336 1.367 1_554 S
C2337 C2345 1.433 . S
C2338 H2334 0.929 . S
C2338 C2340 1.378 . S
C2338 C2342 1.372 . S
C2339 C2342 1.466 . S
C2339 C2344 1.350 1_554 S
C2339 N2347 1.427 . S
C2340 H2331 0.930 . S
C2340 C2338 1.378 . S
C2340 C2341 1.367 1_554 S
C2341 C2340 1.367 1_556 S
C2341 C2343 1.433 . S
C2342 C2338 1.372 . S
C2342 C2339 1.466 . S
C2342 N2346 1.400 1_554 S
C2343 H2333 0.929 . S
C2343 C2341 1.433 . S
C2343 N2346 1.384 . S
C2344 H2335 0.929 . S
C2344 C2336 1.378 . S
C2344 C2339 1.350 1_556 S
C2345 H2332 0.929 . S
C2345 C2337 1.433 . S
C2345 N2347 1.384 . S
N2346 C2342 1.400 1_556 S
N2346 C2343 1.384 . S
N2347 C2339 1.427 . S
N2347 C2345 1.384 . S
H2348 C2354 0.930 . S
H2349 C2358 0.930 . S
H2350 C2363 0.929 . S
H2351 C2361 0.929 . S
H2352 C2356 0.929 . S
H2353 C2362 0.929 . S
C2354 H2348 0.930 . S
C2354 C2355 1.367 . S
C2354 C2362 1.378 . S
C2355 C2354 1.367 . S
C2355 C2363 1.433 . S
C2356 H2352 0.929 . S
C2356 C2358 1.378 . S
C2356 C2360 1.350 . S
C2357 C2360 1.463 . S
C2357 C2362 1.350 . S
C2357 N2365 1.427 . S
C2358 H2349 0.930 . S
C2358 C2356 1.378 . S
C2358 C2359 1.367 . S
C2359 C2358 1.367 . S
C2359 C2361 1.433 . S
C2360 C2356 1.350 . S
C2360 C2357 1.463 . S
C2360 N2364 1.427 . S
C2361 H2351 0.929 . S
C2361 C2359 1.433 . S
C2361 N2364 1.384 . S
C2362 H2353 0.929 . S
C2362 C2354 1.378 . S
C2362 C2357 1.350 . S
C2363 H2350 0.929 . S
C2363 C2355 1.433 . S
C2363 N2365 1.384 . S
N2364 C2360 1.427 . S
N2364 C2361 1.384 . S
N2365 C2357 1.427 . S
N2365 C2363 1.384 . S
H2366 C2372 0.930 . S
H2367 C2376 0.930 . S
H2368 C2381 0.929 . S
H2369 C2379 0.929 . S
H2370 C2374 0.929 . S
H2371 C2380 0.929 . S
C2372 H2366 0.930 . S
C2372 C2373 1.367 . S
C2372 C2380 1.378 . S
C2373 C2372 1.367 . S
C2373 C2381 1.433 . S
C2374 H2370 0.929 . S
C2374 C2376 1.378 . S
C2374 C2378 1.350 . S
C2375 C2378 1.463 . S
C2375 C2380 1.350 . S
C2375 N2383 1.427 . S
C2376 H2367 0.930 . S
C2376 C2374 1.378 . S
C2376 C2377 1.367 . S
C2377 C2376 1.367 . S
C2377 C2379 1.433 . S
C2378 C2374 1.350 . S
C2378 C2375 1.463 . S
C2378 N2382 1.427 . S
C2379 H2369 0.929 . S
C2379 C2377 1.433 . S
C2379 N2382 1.384 . S
C2380 H2371 0.929 . S
C2380 C2372 1.378 . S
C2380 C2375 1.350 . S
C2381 H2368 0.929 . S
C2381 C2373 1.433 . S
C2381 N2383 1.384 . S
N2382 C2378 1.427 . S
N2382 C2379 1.384 . S
N2383 C2375 1.427 . S
N2383 C2381 1.384 . S
C663 C109 1.545 . S
C667 C354 1.504 1_556 S
C681 C65 1.619 . S
C685 C365 1.618 . S
C699 C75 1.040 . S
C703 C394 1.014 . S
C721 C397 1.468 . S
C717 C84 1.469 . S
C735 C25 1.605 . S
C739 C435 1.559 . S
C757 C438 0.970 . S
C753 C28 0.949 . S
C775 C465 1.496 . S
C771 C47 1.492 . S
C789 C9 1.693 . S
C793 C494 1.624 . S
C811 C345 1.619 1_655 S
C807 C233 1.627 . S
C825 C249 0.872 . S
C829 C357 0.871 . S
C847 C385 1.610 . S
C843 C275 1.618 . S
C865 C414 1.105 . S
C861 C173 1.131 . S
C879 C224 1.045 . S
C883 C418 1.068 . S
C901 C444 1.610 . S
C897 C243 1.629 . S
C919 C457 0.756 . S
C915 C266 0.752 . S
C937 C485 1.547 . S
C933 C179 1.549 . S
C955 C337 1.540 1_565 S
C951 C163 1.557 . S
C969 C289 1.729 . S
C973 C504 1.703 1_554 S
C991 C535 1.488 . S
C987 C333 1.542 . S
C1009 C554 0.900 . S
C1005 C308 0.912 . S
C1023 C123 1.372 . S
C1027 C477 1.369 . S
C1041 C126 1.502 . S
C1045 C377 1.521 . S
C1059 C327 1.608 . S
C1063 C565 1.601 . S
C1081 C594 0.971 . S
C1077 C299 1.006 . S
C1099 C355 1.515 . S
C1095 C67 1.560 . S
C1117 C584 1.632 . S
C1113 C98 1.608 . S
C1131 C89 1.065 . S
C1135 C395 1.044 . S
C1149 C79 1.513 . S
C1153 C558 1.499 . S
C1171 C434 1.581 . S
C1167 C11 1.630 . S
C1185 C51 0.987 . S
C1189 C517 0.991 . S
C1207 C464 1.531 1_556 S
C1203 C33 1.537 . S
C1225 C615 1.612 . S
C1221 C14 1.676 . S
C1243 C344 1.600 . S
C1239 C140 1.591 . S
C1261 C578 0.874 . S
C1257 C319 0.882 . S
C1275 C112 1.620 . S
C1279 C384 1.621 . S
C1293 C285 1.151 . S
C1297 C575 1.131 . S
C1311 C149 1.093 . S
C1315 C417 1.087 . S
C1333 C525 1.634 . S
C1329 C313 1.660 . S
C1347 C121 0.818 . S
C1351 C458 0.822 . S
C1365 C291 1.578 . S
C1369 C604 1.569 . S
C1383 C182 1.562 . S
C1387 C338 1.539 . S
C1401 C168 1.727 . S
C1405 C505 1.715 . S
C1419 C263 1.580 . S
C1423 C454 1.530 . S
C1437 C247 0.962 . S
C1441 C555 0.940 . S
C1459 C598 1.358 . S
C1455 C277 1.370 . S
C1473 C219 1.554 . S
C1477 C378 1.540 . S
C1495 C404 1.632 . S
C1491 C257 1.646 . S
C1513 C375 0.989 . S
C1509 C201 1.013 . S
C1527 C81 1.538 . S
C1531 C634 1.505 . S
C1549 C585 1.616 . S
C1545 C93 1.619 . S
C1563 C103 1.044 . S
C1567 C654 1.021 . S
C1581 C56 1.469 . S
C1585 C557 1.467 . S
C1599 C53 1.608 . S
C1603 C515 1.553 . S
C1621 C518 0.974 . S
C1617 C0 0.952 . S
C1639 C545 1.491 . S
C1635 C19 1.493 . S
C1657 C614 1.616 . S
C1653 C37 1.690 . S
C1675 C625 1.620 . S
C1671 C261 1.628 . S
C1689 C193 0.866 . S
C1693 C577 0.874 . S
C1711 C645 1.610 . S
C1707 C205 1.617 . S
C1729 C574 1.103 . S
C1725 C215 1.130 . S
C1747 C498 1.068 . S
C1743 C252 1.046 . S
C1761 C187 1.627 . S
C1765 C524 1.601 . S
C1783 C537 0.757 . S
C1779 C196 0.753 . S
C1797 C221 1.552 . S
C1801 C605 1.541 . S
C1819 C617 1.540 . S
C1815 C317 1.557 . S
C1833 C135 1.729 . S
C1837 C424 1.703 . S
C1855 C455 1.503 . S
C1851 C151 1.555 . S
C1873 C474 0.896 . S
C1869 C154 0.912 . S
C1891 C597 1.363 . S
C1887 C305 1.362 . S
C1905 C280 1.507 . S
C1909 C637 1.517 . S
C1927 C405 1.595 . S
C1923 C145 1.602 . S
C1945 C374 0.983 . S
C1941 C117 1.007 . S
C1959 C95 1.561 . S
C1963 C635 1.522 . S
C1981 C364 1.632 . S
C1977 C70 1.613 . S
C1995 C61 1.062 . S
C1999 C655 1.044 . S
C2013 C107 1.513 . S
C2017 C398 1.499 . S
C2031 C39 1.630 . S
C2035 C514 1.579 . S
C2053 C437 0.983 . S
C2049 C23 0.991 . S
C2067 C5 1.536 . S
C2071 C544 1.529 . S
C2085 C42 1.677 . S
C2089 C495 1.613 . S
C2107 C624 1.597 . S
C2103 C322 1.597 . S
C2121 C165 0.868 . S
C2125 C358 0.868 . S
C2143 C644 1.621 1_655 S
C2139 C294 1.616 . S
C2157 C131 1.151 . S
C2161 C415 1.130 . S
C2175 C331 1.091 . S
C2179 C497 1.095 . S
C2197 C445 1.638 . S
C2193 C159 1.660 . S
C2211 C303 0.815 . S
C2215 C538 0.803 . S
C2233 C484 1.571 . S
C2229 C137 1.577 . S
C2251 C618 1.534 . S
C2247 C238 1.559 . S
C2269 C425 1.715 1_565 S
C2265 C210 1.726 . S
C2283 C235 1.581 . S
C2287 C534 1.521 . S
C2305 C475 0.942 . S
C2301 C191 0.962 . S
C2319 C207 1.370 . S
C2323 C478 1.367 . S
C2337 C177 1.555 . S
C2341 C638 1.533 . S
C2359 C564 1.636 . S
C2355 C229 1.644 . S
C2377 C595 0.975 . S
C2373 C271 1.006 . S
