# Generated by pormake.
# Topology myd, (4,6)-cn, num edge types: 1
# Building blocks:
#     Node 0, Type 0, BuildingBlock: NAWXER_clean_sbu_0, # of connection points: 4
#     Node 1, Type 0, BuildingBlock: NAWXER_clean_sbu_0, # of connection points: 4
#     Node 2, Type 0, BuildingBlock: NAWXER_clean_sbu_0, # of connection points: 4
#     Node 3, Type 0, BuildingBlock: NAWXER_clean_sbu_0, # of connection points: 4
#     Node 4, Type 0, BuildingBlock: NAWXER_clean_sbu_0, # of connection points: 4
#     Node 5, Type 0, BuildingBlock: NAWXER_clean_sbu_0, # of connection points: 4
#     Node 6, Type 0, BuildingBlock: NAWXER_clean_sbu_0, # of connection points: 4
#     Node 7, Type 0, BuildingBlock: NAWXER_clean_sbu_0, # of connection points: 4
#     Node 8, Type 0, BuildingBlock: NAWXER_clean_sbu_0, # of connection points: 4
#     Node 9, Type 0, BuildingBlock: NAWXER_clean_sbu_0, # of connection points: 4
#     Node 10, Type 0, BuildingBlock: NAWXER_clean_sbu_0, # of connection points: 4
#     Node 11, Type 0, BuildingBlock: NAWXER_clean_sbu_0, # of connection points: 4
#     Node 12, Type 1, BuildingBlock: VOLQOD_clean_sbu_1, # of connection points: 6
#     Node 13, Type 1, BuildingBlock: VOLQOD_clean_sbu_1, # of connection points: 6
#     Node 14, Type 1, BuildingBlock: VOLQOD_clean_sbu_1, # of connection points: 6
#     Node 15, Type 1, BuildingBlock: VOLQOD_clean_sbu_1, # of connection points: 6
#     Node 16, Type 1, BuildingBlock: VOLQOD_clean_sbu_1, # of connection points: 6
#     Node 17, Type 1, BuildingBlock: VOLQOD_clean_sbu_1, # of connection points: 6
#     Node 18, Type 1, BuildingBlock: VOLQOD_clean_sbu_1, # of connection points: 6
#     Node 19, Type 1, BuildingBlock: VOLQOD_clean_sbu_1, # of connection points: 6
#     Edge 20, Type (0, 1), BuildingBlock: OJICUG_clean_linker_0, # of connection points: 2
#     Edge 21, Type (0, 1), BuildingBlock: OJICUG_clean_linker_0, # of connection points: 2
#     Edge 22, Type (0, 1), BuildingBlock: OJICUG_clean_linker_0, # of connection points: 2
#     Edge 23, Type (0, 1), BuildingBlock: OJICUG_clean_linker_0, # of connection points: 2
#     Edge 24, Type (0, 1), BuildingBlock: OJICUG_clean_linker_0, # of connection points: 2
#     Edge 25, Type (0, 1), BuildingBlock: OJICUG_clean_linker_0, # of connection points: 2
#     Edge 26, Type (0, 1), BuildingBlock: OJICUG_clean_linker_0, # of connection points: 2
#     Edge 27, Type (0, 1), BuildingBlock: OJICUG_clean_linker_0, # of connection points: 2
#     Edge 28, Type (0, 1), BuildingBlock: OJICUG_clean_linker_0, # of connection points: 2
#     Edge 29, Type (0, 1), BuildingBlock: OJICUG_clean_linker_0, # of connection points: 2
#     Edge 30, Type (0, 1), BuildingBlock: OJICUG_clean_linker_0, # of connection points: 2
#     Edge 31, Type (0, 1), BuildingBlock: OJICUG_clean_linker_0, # of connection points: 2
#     Edge 32, Type (0, 1), BuildingBlock: OJICUG_clean_linker_0, # of connection points: 2
#     Edge 33, Type (0, 1), BuildingBlock: OJICUG_clean_linker_0, # of connection points: 2
#     Edge 34, Type (0, 1), BuildingBlock: OJICUG_clean_linker_0, # of connection points: 2
#     Edge 35, Type (0, 1), BuildingBlock: OJICUG_clean_linker_0, # of connection points: 2
#     Edge 36, Type (0, 1), BuildingBlock: OJICUG_clean_linker_0, # of connection points: 2
#     Edge 37, Type (0, 1), BuildingBlock: OJICUG_clean_linker_0, # of connection points: 2
#     Edge 38, Type (0, 1), BuildingBlock: OJICUG_clean_linker_0, # of connection points: 2
#     Edge 39, Type (0, 1), BuildingBlock: OJICUG_clean_linker_0, # of connection points: 2
#     Edge 40, Type (0, 1), BuildingBlock: OJICUG_clean_linker_0, # of connection points: 2
#     Edge 41, Type (0, 1), BuildingBlock: OJICUG_clean_linker_0, # of connection points: 2
#     Edge 42, Type (0, 1), BuildingBlock: OJICUG_clean_linker_0, # of connection points: 2
#     Edge 43, Type (0, 1), BuildingBlock: OJICUG_clean_linker_0, # of connection points: 2
#     Edge 44, Type (0, 1), BuildingBlock: OJICUG_clean_linker_0, # of connection points: 2
#     Edge 45, Type (0, 1), BuildingBlock: OJICUG_clean_linker_0, # of connection points: 2
#     Edge 46, Type (0, 1), BuildingBlock: OJICUG_clean_linker_0, # of connection points: 2
#     Edge 47, Type (0, 1), BuildingBlock: OJICUG_clean_linker_0, # of connection points: 2
#     Edge 48, Type (0, 1), BuildingBlock: OJICUG_clean_linker_0, # of connection points: 2
#     Edge 49, Type (0, 1), BuildingBlock: OJICUG_clean_linker_0, # of connection points: 2
#     Edge 50, Type (0, 1), BuildingBlock: OJICUG_clean_linker_0, # of connection points: 2
#     Edge 51, Type (0, 1), BuildingBlock: OJICUG_clean_linker_0, # of connection points: 2
#     Edge 52, Type (0, 1), BuildingBlock: OJICUG_clean_linker_0, # of connection points: 2
#     Edge 53, Type (0, 1), BuildingBlock: OJICUG_clean_linker_0, # of connection points: 2
#     Edge 54, Type (0, 1), BuildingBlock: OJICUG_clean_linker_0, # of connection points: 2
#     Edge 55, Type (0, 1), BuildingBlock: OJICUG_clean_linker_0, # of connection points: 2
#     Edge 56, Type (0, 1), BuildingBlock: OJICUG_clean_linker_0, # of connection points: 2
#     Edge 57, Type (0, 1), BuildingBlock: OJICUG_clean_linker_0, # of connection points: 2
#     Edge 58, Type (0, 1), BuildingBlock: OJICUG_clean_linker_0, # of connection points: 2
#     Edge 59, Type (0, 1), BuildingBlock: OJICUG_clean_linker_0, # of connection points: 2
#     Edge 60, Type (0, 1), BuildingBlock: OJICUG_clean_linker_0, # of connection points: 2
#     Edge 61, Type (0, 1), BuildingBlock: OJICUG_clean_linker_0, # of connection points: 2
#     Edge 62, Type (0, 1), BuildingBlock: OJICUG_clean_linker_0, # of connection points: 2
#     Edge 63, Type (0, 1), BuildingBlock: OJICUG_clean_linker_0, # of connection points: 2
#     Edge 64, Type (0, 1), BuildingBlock: OJICUG_clean_linker_0, # of connection points: 2
#     Edge 65, Type (0, 1), BuildingBlock: OJICUG_clean_linker_0, # of connection points: 2
#     Edge 66, Type (0, 1), BuildingBlock: OJICUG_clean_linker_0, # of connection points: 2
#     Edge 67, Type (0, 1), BuildingBlock: OJICUG_clean_linker_0, # of connection points: 2
# Relax obj value: 0.200
# Max RMSD: 0.165
# Mean RMSD: 0.125
data_MOF--net-myd--node1-NAWXER_clean_sbu_0--node2-VOLQOD_clean_sbu_1--edge1-OJICUG_clean_linker_0
_symmetry_space_group_name_H-M    P1
_symmetry_Int_Tables_number       1
_symmetry_cell_setting            triclinic
loop_
_symmetry_equiv_pos_as_xyz
'x, y, z'
_cell_length_a     34.496777
_cell_length_b     34.604219
_cell_length_c     34.527181
_cell_angle_alpha  90.708075
_cell_angle_beta   90.097983
_cell_angle_gamma 91.021441
loop_
_atom_site_label
_atom_site_type_symbol
_atom_site_fract_x
_atom_site_fract_y
_atom_site_fract_z
_atom_type_partial_charge
C0 C 0.04547 0.20359 0.27256 0.0
C1 C 0.05134 0.30697 0.37141 0.0
O2 O 0.07675 0.21574 0.28873 0.0
Zn3 Zn 0.05206 0.25219 0.32466 0.0
O4 O 0.01284 0.21642 0.28387 0.0
Zn5 Zn 0.98903 0.25514 0.32483 0.0
O6 O 0.96402 0.29098 0.28906 0.0
O7 O 0.02787 0.29022 0.28388 0.0
O8 O 0.01702 0.29574 0.36215 0.0
O9 O 0.08047 0.28969 0.35728 0.0
O10 O 0.02467 0.21248 0.36238 0.0
O11 O 0.96119 0.2182 0.35779 0.0
C12 C 0.99515 0.30288 0.27278 0.0
C13 C 0.99047 0.20138 0.37187 0.0
C14 C 0.05316 0.80485 0.23521 0.0
C15 C 0.05149 0.69988 0.13848 0.0
O16 O 0.08328 0.78976 0.22046 0.0
Zn17 Zn 0.05565 0.75452 0.18502 0.0
O18 O 0.01938 0.79328 0.22458 0.0
Zn19 Zn 0.99266 0.75274 0.18594 0.0
O20 O 0.96696 0.71781 0.22315 0.0
O21 O 0.03085 0.71766 0.22669 0.0
O22 O 0.01787 0.71155 0.1482 0.0
O23 O 0.08167 0.71668 0.15229 0.0
O24 O 0.02903 0.79439 0.14724 0.0
O25 O 0.96536 0.78872 0.15283 0.0
C26 C 0.9979 0.70566 0.23881 0.0
C27 C 0.995 0.80535 0.13812 0.0
C28 C 0.38752 0.97834 0.20718 0.0
C29 C 0.28412 0.97958 0.30455 0.0
O30 O 0.37234 0.94856 0.22277 0.0
Zn31 Zn 0.33824 0.97526 0.25901 0.0
O32 O 0.37787 0.01208 0.21871 0.0
Zn33 Zn 0.33869 0.03831 0.25743 0.0
O34 O 0.37059 0.06545 0.29682 0.0
O35 O 0.37439 1.00203 0.30137 0.0
O36 O 0.29602 0.01273 0.29323 0.0
O37 O 0.30087 0.94902 0.29281 0.0
O38 O 0.299 0.99963 0.21937 0.0
O39 O 0.30419 0.06337 0.21988 0.0
C40 C 0.38385 0.0359 0.31364 0.0
C41 C 0.28827 0.03228 0.20671 0.0
C42 C 0.75121 0.47668 0.2072 0.0
C43 C 0.65264 0.47277 0.31069 0.0
O44 O 0.73426 0.44578 0.21863 0.0
Zn45 Zn 0.69941 0.47095 0.25606 0.0
O46 O 0.74093 0.5094 0.2209 0.0
Zn47 Zn 0.70101 0.53378 0.26053 0.0
O48 O 0.73775 0.55864 0.29664 0.0
O49 O 0.74145 0.49488 0.29441 0.0
O50 O 0.66296 0.50678 0.30035 0.0
O51 O 0.66602 0.44343 0.29294 0.0
O52 O 0.66207 0.49887 0.21719 0.0
O53 O 0.66864 0.56216 0.22465 0.0
C54 C 0.75358 0.52757 0.30761 0.0
C55 C 0.65342 0.53309 0.2071 0.0
C56 C 0.21727 0.3717 0.97377 0.0
C57 C 0.32188 0.27686 0.98193 0.0
O58 O 0.23474 0.35698 0.94481 0.0
Zn59 Zn 0.27254 0.32673 0.97352 0.0
O60 O 0.22839 0.36414 0.00813 0.0
Zn61 Zn 0.26879 0.32938 0.03679 0.0
O62 O 0.30563 0.36465 0.06326 0.0
O63 O 0.31167 0.36684 0.99966 0.0
O64 O 0.30829 0.28927 0.01404 0.0
O65 O 0.30993 0.29088 0.95011 0.0
O66 O 0.23447 0.28586 0.99887 0.0
O67 O 0.23256 0.2931 0.06253 0.0
C68 C 0.32261 0.37806 0.03342 0.0
C69 C 0.22127 0.27542 0.03173 0.0
C70 C 0.22081 0.74265 0.48298 0.0
C71 C 0.31957 0.64229 0.4723 0.0
O72 O 0.23144 0.72655 0.4514 0.0
Zn73 Zn 0.26826 0.69107 0.47449 0.0
O74 O 0.23487 0.73161 0.51522 0.0
Zn75 Zn 0.27395 0.69021 0.5371 0.0
O76 O 0.3125 0.72446 0.56199 0.0
O77 O 0.30904 0.73109 0.49846 0.0
O78 O 0.31068 0.65157 0.5071 0.0
O79 O 0.30234 0.65791 0.44405 0.0
O80 O 0.22896 0.65336 0.50275 0.0
O81 O 0.23797 0.65749 0.56609 0.0
C82 C 0.32361 0.74125 0.53118 0.0
C83 C 0.21951 0.64349 0.53707 0.0
C84 C 0.71766 0.86163 0.46802 0.0
C85 C 0.81877 0.76454 0.47907 0.0
O86 O 0.73455 0.84494 0.43987 0.0
Zn87 Zn 0.76961 0.81377 0.47049 0.0
O88 O 0.7272 0.85401 0.50287 0.0
Zn89 Zn 0.76498 0.81741 0.53306 0.0
O90 O 0.80101 0.85201 0.56091 0.0
O91 O 0.80901 0.85346 0.49744 0.0
O92 O 0.8049 0.77658 0.51126 0.0
O93 O 0.80694 0.7786 0.44727 0.0
O94 O 0.7304 0.77325 0.4957 0.0
O95 O 0.72776 0.78302 0.55902 0.0
C96 C 0.81894 0.86492 0.53144 0.0
C97 C 0.71672 0.76423 0.52886 0.0
C98 C 0.54596 0.80283 0.75984 0.0
C99 C 0.54504 0.70026 0.85648 0.0
O100 O 0.51198 0.79293 0.77133 0.0
Zn101 Zn 0.48515 0.75239 0.80962 0.0
O102 O 0.57547 0.78567 0.77289 0.0
Zn103 Zn 0.54704 0.75241 0.80883 0.0
O104 O 0.51912 0.71247 0.76985 0.0
O105 O 0.45565 0.7196 0.77338 0.0
O106 O 0.57436 0.71744 0.84186 0.0
O107 O 0.51085 0.71093 0.84731 0.0
O108 O 0.45857 0.78712 0.84401 0.0
O109 O 0.52224 0.79378 0.84799 0.0
C110 C 0.48481 0.70278 0.75889 0.0
C111 C 0.48829 0.80443 0.85815 0.0
C112 C 0.49824 0.19985 0.73776 0.0
C113 C 0.48902 0.30082 0.63924 0.0
O114 O 0.46703 0.20927 0.72068 0.0
Zn115 Zn 0.49051 0.24773 0.68632 0.0
O116 O 0.53051 0.21548 0.7278 0.0
Zn117 Zn 0.55293 0.25624 0.6878 0.0
O118 O 0.57506 0.2946 0.72373 0.0
O119 O 0.5113 0.28839 0.72805 0.0
O120 O 0.52367 0.29311 0.6494 0.0
O121 O 0.4606 0.2816 0.65314 0.0
O122 O 0.5216 0.21109 0.64849 0.0
O123 O 0.58447 0.22278 0.65533 0.0
C124 C 0.54318 0.304 0.73961 0.0
C125 C 0.55669 0.20355 0.6397 0.0
C126 C 0.77221 0.52048 0.71317 0.0
C127 C 0.87863 0.52434 0.80824 0.0
O128 O 0.7855 0.55013 0.73125 0.0
Zn129 Zn 0.82792 0.52512 0.75851 0.0
O130 O 0.78788 0.48768 0.71823 0.0
Zn131 Zn 0.83349 0.46374 0.75171 0.0
O132 O 0.80434 0.42904 0.7856 0.0
O133 O 0.79665 0.49115 0.79863 0.0
O134 O 0.87225 0.49069 0.79336 0.0
O135 O 0.86026 0.55325 0.7957 0.0
O136 O 0.86643 0.50743 0.71328 0.0
O137 O 0.86657 0.44349 0.71155 0.0
C138 C 0.79022 0.45572 0.80671 0.0
C139 C 0.87816 0.4757 0.69811 0.0
C140 C 0.26654 0.98797 0.71254 0.0
C141 C 0.15804 0.98211 0.80444 0.0
O142 O 0.24961 0.9576 0.72493 0.0
Zn143 Zn 0.20895 0.98255 0.75521 0.0
O144 O 0.25311 0.02114 0.72149 0.0
Zn145 Zn 0.20575 0.04427 0.75355 0.0
O146 O 0.23384 0.07653 0.79089 0.0
O147 O 0.24101 0.01363 0.79865 0.0
O148 O 0.16563 0.0163 0.79236 0.0
O149 O 0.17557 0.95334 0.78979 0.0
O150 O 0.17139 0.00343 0.71165 0.0
O151 O 0.17437 0.06724 0.71356 0.0
C152 C 0.24758 0.04852 0.80986 0.0
C153 C 0.16123 0.03609 0.69831 0.0
C154 C 0.71673 0.12929 0.03357 0.0
C155 C 0.81835 0.23086 0.03272 0.0
O156 O 0.7336 0.14339 0.06354 0.0
Zn157 Zn 0.77044 0.1778 0.03725 0.0
O158 O 0.72768 0.13973 0.99988 0.0
Zn159 Zn 0.76684 0.17903 0.97397 0.0
O160 O 0.80468 0.14787 0.94548 0.0
O161 O 0.81072 0.14198 0.00881 0.0
O162 O 0.80513 0.21986 0.99975 0.0
O163 O 0.8069 0.214 0.06345 0.0
O164 O 0.7314 0.21817 0.01452 0.0
O165 O 0.72976 0.21494 0.9506 0.0
C166 C 0.82195 0.1336 0.97451 0.0
C167 C 0.71805 0.23004 0.98233 0.0
O168 O 0.12662 0.01835 0.11555 0.0
Zn169 Zn 0.07113 0.02764 0.10111 0.0
O170 O 0.06716 0.05034 0.04965 0.0
Zn171 Zn 0.04417 0.10162 0.05393 0.0
Zn172 Zn 0.11931 0.05536 0.02763 0.0
Zn173 Zn 0.03435 0.01695 0.0164 0.0
O174 O 0.99477 0.10481 0.02181 0.0
O175 O 0.98425 0.04393 1.00231 0.0
O176 O 0.05583 0.06567 0.14253 0.0
O177 O 0.03279 0.11488 0.10947 0.0
O178 O 0.08301 0.14379 0.04059 0.0
O179 O 0.13316 0.11106 0.01825 0.0
O180 O 0.12338 0.0246 0.97732 0.0
O181 O 0.0399 0.97757 0.10447 0.0
O182 O 0.06262 0.00418 0.96635 0.0
O183 O 0.02057 0.96654 0.04367 0.0
C184 C 0.15897 0.02736 0.10015 0.0
C185 C 0.97376 0.07907 0.00465 0.0
C186 C 0.11725 0.14289 0.027 0.0
C187 C 0.04129 0.09914 0.14143 0.0
C188 C 0.09798 0.0075 0.95594 0.0
C189 C 0.02306 0.95619 0.07893 0.0
O190 O 0.16074 0.04138 0.0663 0.0
O191 O 0.91411 0.48838 0.118 0.0
Zn192 Zn 0.9695 0.47784 0.10339 0.0
O193 O 0.97293 0.45456 0.05156 0.0
Zn194 Zn 0.99611 0.40342 0.05535 0.0
Zn195 Zn 0.92067 0.4496 0.02974 0.0
Zn196 Zn 0.00508 0.48714 0.01792 0.0
O197 O 0.04516 0.39969 0.02294 0.0
O198 O 0.05463 0.45995 1.00268 0.0
O199 O 0.98428 0.43983 0.1445 0.0
O200 O 0.0076 0.39047 0.11076 0.0
O201 O 0.95726 0.36139 0.04137 0.0
O202 O 0.90689 0.39395 0.01983 0.0
O203 O 0.91562 0.47979 0.97996 0.0
O204 O 1.00179 0.52743 0.10681 0.0
O205 O 0.97615 0.49996 0.96848 0.0
O206 O 0.01999 0.53725 0.04573 0.0
C207 C 0.88168 0.4791 0.10254 0.0
C208 C 0.06551 0.42503 0.00515 0.0
C209 C 0.92292 0.36224 0.02798 0.0
C210 C 0.99884 0.40633 0.14295 0.0
C211 C 0.94061 0.4967 0.95852 0.0
C212 C 0.01846 0.54811 0.08113 0.0
O213 O 0.87979 0.46425 0.06869 0.0
O214 O 0.13082 0.90255 0.49224 0.0
Zn215 Zn 0.11491 0.95665 0.47993 0.0
O216 O 0.06254 0.9581 0.45851 0.0
Zn217 Zn 0.06372 0.97982 0.40625 0.0
Zn218 Zn 0.042 0.90523 0.45619 0.0
Zn219 Zn 0.03006 0.99039 0.49164 0.0
O220 O 0.03314 0.02936 0.40317 0.0
O221 O 0.01571 0.04012 0.46437 0.0
O222 O 0.15428 0.97125 0.44012 0.0
O223 O 0.11906 0.98999 0.39009 0.0
O224 O 0.04669 0.94069 0.36551 0.0
O225 O 0.03681 0.88826 0.40084 0.0
O226 O 0.99093 0.90097 0.48508 0.0
O227 O 0.11989 0.98978 0.5281 0.0
O228 O 0.9805 0.96126 0.50561 0.0
O229 O 0.05876 0.00502 0.54126 0.0
C230 C 0.11476 0.86954 0.48707 0.0
C231 C 0.01728 0.05045 0.42904 0.0
C232 C 0.03991 0.90455 0.36815 0.0
C233 C 0.15173 0.98327 0.40561 0.0
C234 C 0.96989 0.92585 0.50229 0.0
C235 C 0.09466 0.00503 0.55016 0.0
O236 O 0.08015 0.86618 0.47465 0.0
O237 O 0.01145 0.61703 0.40017 0.0
Zn238 Zn 1.00036 0.60287 0.45539 0.0
O239 O 0.97765 0.55085 0.45867 0.0
Zn240 Zn 0.92598 0.5542 0.48117 0.0
Zn241 Zn 0.97381 0.52798 0.40665 0.0
Zn242 Zn 0.00965 0.51871 0.49175 0.0
O243 O 0.92071 0.523 0.52968 0.0
O244 O 0.98112 0.50451 0.54112 0.0
O245 O 0.96172 0.64336 0.47026 0.0
O246 O 0.91222 0.60884 0.49308 0.0
O247 O 0.88509 0.53919 0.44257 0.0
O248 O 0.9182 0.51603 0.39264 0.0
O249 O 0.00567 0.47912 0.40252 0.0
O250 O 0.04915 0.60768 0.48798 0.0
O251 O 0.02427 0.46936 0.46343 0.0
O252 O 0.05891 0.54745 0.5074 0.0
C253 C 1.00248 0.60126 0.36781 0.0
C254 C 0.94559 0.50657 0.55086 0.0
C255 C 0.88623 0.52459 0.40867 0.0
C256 C 0.92795 0.64118 0.48485 0.0
C257 C 0.02238 0.45867 0.42797 0.0
C258 C 0.06948 0.58286 0.50554 0.0
O259 O 0.98813 0.56714 0.36586 0.0
O260 O 0.43446 0.988 0.6268 0.0
Zn261 Zn 0.4889 0.98049 0.60527 0.0
O262 O 0.48684 0.95986 0.55209 0.0
Zn263 Zn 0.50817 0.90783 0.55141 0.0
Zn264 Zn 0.43302 0.95768 0.53417 0.0
Zn265 Zn 0.51713 0.9925 0.51684 0.0
O266 O 0.55131 0.90318 0.51231 0.0
O267 O 0.56485 0.96443 0.49772 0.0
O268 O 0.51446 0.94296 0.64166 0.0
O269 O 0.53041 0.89396 0.60323 0.0
O270 O 0.46617 0.86761 0.54201 0.0
O271 O 0.41635 0.90278 0.52344 0.0
O272 O 0.42515 0.98918 0.48544 0.0
O273 O 0.51858 0.03152 0.6062 0.0
O274 O 0.48522 0.00731 0.46977 0.0
O275 O 0.53431 0.04185 0.54453 0.0
C276 C 0.40073 0.98316 0.61213 0.0
C277 C 0.5726 0.92855 0.49579 0.0
C278 C 0.43132 0.87023 0.53035 0.0
C279 C 0.52971 0.90999 0.63656 0.0
C280 C 0.44898 0.00559 0.46233 0.0
C281 C 0.534 0.05247 0.58002 0.0
O282 O 0.39616 0.97297 0.57683 0.0
O283 O 0.60367 0.52542 0.62794 0.0
Zn284 Zn 0.54958 0.52742 0.60468 0.0
O285 O 0.55245 0.54545 0.55144 0.0
Zn286 Zn 0.53215 0.59778 0.5494 0.0
Zn287 Zn 0.6066 0.54494 0.53461 0.0
Zn288 Zn 0.52149 0.51193 0.51699 0.0
O289 O 0.48882 0.60122 0.50999 0.0
O290 O 0.4725 0.53928 0.50039 0.0
O291 O 0.52015 0.56412 0.63904 0.0
O292 O 0.50882 0.6135 0.60059 0.0
O293 O 0.57532 0.63689 0.54029 0.0
O294 O 0.62563 0.59983 0.52661 0.0
O295 O 0.61272 0.51458 0.48419 0.0
O296 O 0.52365 0.47436 0.60584 0.0
O297 O 0.55198 0.49819 0.46843 0.0
O298 O 0.5071 0.46202 0.5444 0.0
C299 C 0.63742 0.52342 0.61313 0.0
C300 C 0.4657 0.57517 0.49649 0.0
C301 C 0.6109 0.63306 0.53146 0.0
C302 C 0.50628 0.59745 0.63348 0.0
C303 C 0.58811 0.49941 0.4606 0.0
C304 C 0.50892 0.45203 0.57981 0.0
O305 O 0.64256 0.52585 0.57667 0.0
O306 O 0.63312 0.39198 1.00081 0.0
Zn307 Zn 0.62387 0.44796 0.98872 0.0
O308 O 0.57347 0.45279 0.96297 0.0
Zn309 Zn 0.58366 0.47015 0.91132 0.0
Zn310 Zn 0.54674 0.40307 0.95925 0.0
Zn311 Zn 0.54131 0.49067 0.98951 0.0
O312 O 0.57485 0.52667 0.90686 0.0
O313 O 0.53857 0.54076 0.95821 0.0
O314 O 0.66981 0.45879 0.95317 0.0
O315 O 0.63765 0.45934 0.89761 0.0
O316 O 0.55575 0.44006 0.87037 0.0
O317 O 0.53441 0.38951 0.90351 0.0
O318 O 0.49698 0.40404 0.99087 0.0
O319 O 0.62584 0.48129 0.03735 0.0
O320 O 0.48777 0.46713 1.00077 0.0
O321 O 0.56623 0.50509 0.04124 0.0
C322 C 0.61617 0.36056 0.9902 0.0
C323 C 0.55565 0.55073 0.92694 0.0
C324 C 0.5401 0.40661 0.87153 0.0
C325 C 0.66907 0.45693 0.91632 0.0
C326 C 0.47613 0.43193 1.00288 0.0
C327 C 0.60022 0.50096 0.05506 0.0
O328 O 0.58297 0.36044 0.97401 0.0
O329 O 0.50503 0.11621 0.90176 0.0
Zn330 Zn 0.49307 0.10413 0.95776 0.0
O331 O 0.46553 0.05504 0.96254 0.0
Zn332 Zn 0.41653 0.06115 0.99057 0.0
Zn333 Zn 0.45304 0.03691 0.91107 0.0
Zn334 Zn 0.49793 0.01757 0.98856 0.0
O335 O 0.41596 0.02979 0.03968 0.0
O336 O 0.47485 0.00429 0.04098 0.0
O337 O 0.45767 0.14745 0.97275 0.0
O338 O 0.40852 0.11753 1.00213 0.0
O339 O 0.36896 0.0491 0.95745 0.0
O340 O 0.39807 0.04605 0.90032 0.0
O341 O 0.46245 0.98039 0.90616 0.0
O342 O 0.54286 0.10355 0.98933 0.0
O343 O 0.4992 0.96706 0.95723 0.0
O344 O 0.55176 0.04061 0.99888 0.0
C345 C 0.49631 0.09948 0.86977 0.0
C346 C 0.44173 0.00974 0.05621 0.0
C347 C 0.36773 0.04889 0.92062 0.0
C348 C 0.42525 0.14828 0.99025 0.0
C349 C 0.48165 0.95662 0.9261 0.0
C350 C 0.56356 0.07577 1.00117 0.0
O351 O 0.4783 0.06715 0.86891 0.0
C352 C 1.00355 0.15879 0.42802 0.0
C353 C 0.98674 0.16386 0.3914 0.0
H354 H 0.0252 0.11851 0.46928 0.0
C355 C 0.97612 0.13109 0.36917 0.0
H356 H 0.01302 0.18366 0.44515 0.0
C357 C 0.98463 0.09398 0.38211 0.0
C358 C 1.00292 0.08892 0.41803 0.0
H359 H 0.96423 0.13431 0.34033 0.0
H360 H 0.97824 0.06932 0.36339 0.0
C361 C 0.01081 0.12157 0.4416 0.0
C362 C 0.06259 0.37733 0.36664 0.0
C363 C 0.05527 0.34522 0.39018 0.0
H364 H 0.05716 0.43856 0.35992 0.0
C365 C 0.04105 0.35117 0.42778 0.0
H366 H 0.07238 0.37329 0.33707 0.0
C367 C 0.03298 0.38858 0.44115 0.0
C368 C 0.03747 0.42041 0.41648 0.0
H369 H 0.03405 0.32672 0.44595 0.0
H370 H 0.02058 0.39225 0.46973 0.0
C371 C 0.05333 0.41455 0.37948 0.0
C372 C 0.98139 0.87529 0.13972 0.0
C373 C 0.99205 0.84254 0.11811 0.0
H374 H 0.98365 0.9372 0.14447 0.0
C375 C 0.00908 0.84753 0.08156 0.0
H376 H 0.9693 0.87216 0.16849 0.0
C377 C 0.01647 0.88475 0.06739 0.0
C378 C 0.00849 0.91749 0.09034 0.0
H379 H 0.01851 0.82269 0.0649 0.0
H380 H 0.03101 0.88785 0.03979 0.0
C381 C 0.99005 0.91244 0.12622 0.0
C382 C 0.06247 0.62969 0.14142 0.0
C383 C 0.05345 0.66194 0.11906 0.0
H384 H 0.05761 0.56812 0.14717 0.0
C385 C 0.03666 0.6562 0.08235 0.0
H386 H 0.07436 0.63354 0.17031 0.0
C387 C 0.02782 0.61875 0.06874 0.0
C388 C 0.03412 0.58667 0.0924 0.0
H389 H 0.02847 0.68073 0.06515 0.0
H390 H 0.01352 0.61512 0.04094 0.0
C391 C 0.0524 0.59239 0.12844 0.0
C392 C 0.44179 0.99936 0.16464 0.0
C393 C 0.40868 0.97588 0.17028 0.0
H394 H 0.47895 0.0276 0.12348 0.0
C395 C 0.38971 0.95941 0.13788 0.0
H396 H 0.45627 0.01315 0.18917 0.0
C397 C 0.4016 0.96906 0.10042 0.0
C398 C 0.4334 0.99423 0.09489 0.0
H399 H 0.36348 0.94214 0.14146 0.0
H400 H 0.38492 0.95829 0.07582 0.0
C401 C 0.45449 0.00791 0.12717 0.0
C402 C 0.65753 0.54657 0.13738 0.0
C403 C 0.63434 0.53685 0.16931 0.0
H404 H 0.66512 0.54179 0.07584 0.0
C405 C 0.59764 0.51976 0.16291 0.0
H406 H 0.68644 0.55864 0.1417 0.0
C407 C 0.58507 0.51089 0.12517 0.0
C408 C 0.6098 0.51748 0.09356 0.0
H409 H 0.57983 0.51097 0.18719 0.0
H410 H 0.55742 0.49608 0.12101 0.0
C411 C 0.64561 0.53642 0.09982 0.0
C412 C 0.44246 0.02858 0.35523 0.0
C413 C 0.40344 0.03876 0.35156 0.0
H414 H 0.48785 0.0111 0.39347 0.0
C415 C 0.38057 0.04159 0.38504 0.0
H416 H 0.46029 0.02505 0.32967 0.0
C417 C 0.3958 0.0323 0.42132 0.0
C418 C 0.43444 0.02057 0.42494 0.0
H419 H 0.35007 0.04824 0.38276 0.0
H420 H 0.3769 0.03294 0.44635 0.0
C421 C 0.45804 0.02026 0.3917 0.0
C422 C 0.65376 0.46155 0.3813 0.0
C423 C 0.63211 0.46928 0.3479 0.0
H424 H 0.65699 0.46561 0.4433 0.0
C425 C 0.59439 0.48331 0.35195 0.0
H426 H 0.68335 0.45183 0.37884 0.0
C427 C 0.57899 0.49057 0.38885 0.0
C428 C 0.60169 0.4854 0.42224 0.0
H429 H 0.57764 0.49056 0.32657 0.0
H430 H 0.55035 0.50273 0.39111 0.0
C431 C 0.63887 0.46993 0.41812 0.0
C432 C 0.14661 0.36456 0.96427 0.0
C433 C 0.17892 0.38925 0.96996 0.0
H434 H 0.08528 0.35633 0.9717 0.0
C435 C 0.17312 0.42719 0.98324 0.0
H436 H 0.15052 0.33476 0.95528 0.0
C437 C 0.13569 0.4398 0.99203 0.0
C438 C 0.10372 0.41409 0.98924 0.0
H439 H 0.19772 0.4463 0.98904 0.0
H440 H 0.13219 0.46872 1.00372 0.0
C441 C 0.1094 0.3767 0.97425 0.0
C442 C 0.17685 0.58565 0.52735 0.0
C443 C 0.18193 0.62361 0.54141 0.0
H444 H 0.1366 0.54246 0.50594 0.0
C445 C 0.14927 0.64633 0.54813 0.0
H446 H 0.20178 0.56813 0.52084 0.0
C447 C 0.11229 0.6324 0.53807 0.0
C448 C 0.10733 0.59517 0.522 0.0
H449 H 0.1527 0.67611 0.55781 0.0
H450 H 0.0878 0.65134 0.54124 0.0
C451 C 0.13966 0.57122 0.51845 0.0
C452 C 0.86171 0.92245 0.52044 0.0
C453 C 0.85663 0.88506 0.53508 0.0
H454 H 0.90212 0.96527 0.49961 0.0
C455 C 0.88937 0.86285 0.5427 0.0
H456 H 0.83677 0.93955 0.51322 0.0
C457 C 0.92646 0.87674 0.53337 0.0
C458 C 0.93151 0.91348 0.51714 0.0
H459 H 0.88601 0.83346 0.55283 0.0
H460 H 0.95105 0.85818 0.5375 0.0
C461 C 0.899 0.93691 0.5123 0.0
C462 C 0.38856 0.63798 0.45348 0.0
C463 C 0.3547 0.61939 0.46673 0.0
H464 H 0.45077 0.63862 0.45306 0.0
C465 C 0.3575 0.58323 0.4844 0.0
H466 H 0.38715 0.66637 0.44069 0.0
C467 C 0.3938 0.56692 0.49071 0.0
C468 C 0.42791 0.58729 0.48082 0.0
H469 H 0.33181 0.56885 0.49565 0.0
H470 H 0.39524 0.54005 0.50638 0.0
C471 C 0.42493 0.62232 0.46094 0.0
C472 C 0.51898 0.6502 0.9022 0.0
C473 C 0.54975 0.66489 0.87965 0.0
H474 H 0.49691 0.60266 0.93562 0.0
C475 C 0.58346 0.64307 0.87576 0.0
H476 H 0.4926 0.66639 0.90571 0.0
C477 C 0.58548 0.60642 0.89204 0.0
C478 C 0.5542 0.59106 0.91332 0.0
H479 H 0.60757 0.65341 0.85845 0.0
H480 H 0.61136 0.58973 0.88733 0.0
C481 C 0.52138 0.61377 0.91931 0.0
C482 C 0.45115 0.8629 0.87679 0.0
C483 C 0.48431 0.84044 0.88115 0.0
H484 H 0.42477 0.91749 0.88713 0.0
C485 C 0.51558 0.85531 0.90332 0.0
H486 H 0.42672 0.8524 0.85968 0.0
C487 C 0.51428 0.89258 0.91952 0.0
C488 C 0.48209 0.91586 0.91294 0.0
H489 H 0.54155 0.83861 0.9071 0.0
H490 H 0.53911 0.90378 0.9356 0.0
C491 C 0.45024 0.90035 0.89216 0.0
C492 C 0.46989 0.36927 0.63956 0.0
C493 C 0.48338 0.33722 0.6186 0.0
H494 H 0.46821 0.43114 0.64393 0.0
C495 C 0.50113 0.34304 0.58252 0.0
H496 H 0.45716 0.36553 0.66798 0.0
C497 C 0.5067 0.3805 0.56835 0.0
C498 C 0.49607 0.41271 0.59086 0.0
H499 H 0.51273 0.3188 0.56642 0.0
H500 H 0.52197 0.38437 0.54124 0.0
C501 C 0.47668 0.40675 0.62607 0.0
C502 C 0.57529 0.13519 0.64022 0.0
C503 C 0.56322 0.16705 0.61885 0.0
H504 H 0.57465 0.07342 0.64483 0.0
C505 C 0.5466 0.16091 0.58212 0.0
H506 H 0.58714 0.13926 0.6691 0.0
C507 C 0.54017 0.12329 0.56787 0.0
C508 C 0.54883 0.09138 0.59091 0.0
H509 H 0.53614 0.18509 0.56567 0.0
H510 H 0.52544 0.11923 0.54034 0.0
C511 C 0.56764 0.09759 0.6266 0.0
C512 C 0.88651 0.45807 0.6287 0.0
C513 C 0.90059 0.47739 0.66198 0.0
H514 H 0.88952 0.453 0.56671 0.0
C515 C 0.93232 0.5031 0.65884 0.0
H516 H 0.86158 0.43867 0.63042 0.0
C517 C 0.94903 0.51029 0.62269 0.0
C518 C 0.93323 0.49297 0.58912 0.0
H519 H 0.94326 0.51863 0.68413 0.0
H520 H 0.9726 0.53128 0.62066 0.0
C521 C 0.90228 0.46636 0.59238 0.0
C522 C 0.15709 0.05093 0.62845 0.0
C523 C 0.13929 0.03633 0.66185 0.0
H524 H 0.157 0.05165 0.56631 0.0
C525 C 0.10426 0.01531 0.65846 0.0
H526 H 0.18456 0.06651 0.63044 0.0
C527 C 0.08793 0.00779 0.62196 0.0
C528 C 0.10732 0.01986 0.58837 0.0
H529 H 0.0905 0.00325 0.6839 0.0
H530 H 0.06171 0.99017 0.61988 0.0
C531 C 0.14154 0.0422 0.59189 0.0
C532 C 0.93527 0.50845 0.84989 0.0
C533 C 0.8994 0.52647 0.84558 0.0
H534 H 0.97716 0.48612 0.88948 0.0
C535 C 0.87914 0.53823 0.87883 0.0
H536 H 0.95093 0.49832 0.82467 0.0
C537 C 0.89319 0.52969 0.91576 0.0
C538 C 0.92839 0.51044 0.92008 0.0
H539 H 0.85091 0.5512 0.87625 0.0
H540 H 0.87594 0.53702 0.94091 0.0
C541 C 0.95008 0.50126 0.88689 0.0
C542 C 0.15794 0.96637 0.87416 0.0
C543 C 0.13736 0.9788 0.84158 0.0
H544 H 0.16196 0.96673 0.93623 0.0
C545 C 0.10163 0.99688 0.84693 0.0
H546 H 0.1861 0.95337 0.87079 0.0
C547 C 0.08734 0.0036 0.88434 0.0
C548 C 0.10943 0.99388 0.91694 0.0
H549 H 0.08578 0.00758 0.82228 0.0
H550 H 0.06041 0.0189 0.88779 0.0
C551 C 0.14441 0.97444 0.91154 0.0
C552 C 0.64807 0.864 0.45166 0.0
C553 C 0.68228 0.88389 0.46245 0.0
H554 H 0.58594 0.8626 0.45433 0.0
C555 C 0.67994 0.92127 0.47841 0.0
H556 H 0.64921 0.83473 0.44025 0.0
C557 C 0.6438 0.93759 0.4857 0.0
C558 C 0.60955 0.91607 0.47852 0.0
H559 H 0.70599 0.93668 0.48779 0.0
H560 H 0.64277 0.9655 0.5002 0.0
C561 C 0.61194 0.87976 0.46011 0.0
C562 C 0.64712 0.12918 0.05024 0.0
C563 C 0.67903 0.10887 0.03594 0.0
H564 H 0.5853 0.13506 0.04947 0.0
C565 C 0.67245 0.07493 0.01398 0.0
H566 H 0.65147 0.15606 0.06623 0.0
C567 C 0.63458 0.06248 0.005 0.0
C568 C 0.60282 0.08472 0.01647 0.0
H569 H 0.69663 0.05942 1.00175 0.0
H570 H 0.6303 0.03713 0.98665 0.0
C571 C 0.60934 0.11754 0.04011 0.0
C572 C 0.39236 0.3786 0.05041 0.0
C573 C 0.36039 0.39855 0.03605 0.0
H574 H 0.45425 0.37308 0.05028 0.0
C575 C 0.367 0.43223 0.01452 0.0
H576 H 0.38804 0.35191 0.06605 0.0
C577 C 0.40491 0.44482 0.00616 0.0
C578 C 0.43676 0.42298 0.01778 0.0
H579 H 0.34282 0.44747 1.00222 0.0
H580 H 0.40916 0.46996 0.98816 0.0
C581 C 0.43018 0.39037 0.04088 0.0
C582 C 0.89268 0.1391 0.964 0.0
C583 C 0.86006 0.11532 0.97089 0.0
H584 H 0.95431 0.14652 0.97003 0.0
C585 C 0.86554 0.07795 0.98505 0.0
H586 H 0.8891 0.16849 0.95429 0.0
C587 C 0.90294 0.06506 0.99341 0.0
C588 C 0.93531 0.08998 0.98931 0.0
H589 H 0.84076 0.05957 0.99176 0.0
H590 H 0.90621 0.03666 0.00573 0.0
C591 C 0.9299 0.12675 0.97357 0.0
C592 C 0.07182 0.14617 0.23654 0.0
C593 C 0.04515 0.17614 0.23956 0.0
H594 H 0.09046 0.097 0.20349 0.0
C595 C 0.01583 0.179 0.21141 0.0
H596 H 0.09437 0.14315 0.2581 0.0
C597 C 0.01368 0.15304 0.18029 0.0
C598 C 0.04025 0.12304 0.17707 0.0
H599 H 0.99484 0.20189 0.21304 0.0
H600 H 0.99149 0.15673 0.15846 0.0
C601 C 0.0691 0.11949 0.20571 0.0
C602 C 0.96851 0.35992 0.23741 0.0
C603 C 0.99521 0.32997 0.24004 0.0
H604 H 0.94974 0.40881 0.20509 0.0
C605 C 0.02439 0.32688 0.21179 0.0
H606 H 0.94605 0.36317 0.25903 0.0
C607 C 0.0264 0.35257 0.18103 0.0
C608 C 0.99985 0.38258 0.17824 0.0
H609 H 0.04543 0.30404 0.21308 0.0
H610 H 0.04853 0.34869 0.15916 0.0
C611 C 0.97109 0.38633 0.20695 0.0
C612 C 0.06887 0.82126 0.30339 0.0
C613 C 0.0554 0.83298 0.26723 0.0
H614 H 0.07314 0.83437 0.36395 0.0
C615 C 0.03663 0.86853 0.26407 0.0
H616 H 0.08241 0.79345 0.30657 0.0
C617 C 0.03155 0.89222 0.29677 0.0
C618 C 0.04367 0.8798 0.3333 0.0
H619 H 0.02517 0.87753 0.23642 0.0
H620 H 0.01729 0.91965 0.29371 0.0
C621 C 0.06271 0.84429 0.33622 0.0
C622 C 0.02701 0.68274 0.29995 0.0
C623 C 0.99767 0.67882 0.27175 0.0
H624 H 0.05167 0.66122 0.35219 0.0
C625 C 0.97103 0.64785 0.27416 0.0
H626 H 0.04804 0.70634 0.29874 0.0
C627 C 0.97394 0.62117 0.3043 0.0
C628 C 1.00297 0.62562 0.33289 0.0
H629 H 0.9485 0.64392 0.25251 0.0
H630 H 0.9527 0.59781 0.30595 0.0
C631 C 0.02935 0.65676 0.3304 0.0
C632 C 0.22722 1.00263 0.18125 0.0
C633 C 0.25575 0.03207 0.17874 0.0
H634 H 0.17456 0.97794 0.15831 0.0
C635 C 0.25349 0.05881 0.14864 0.0
H636 H 0.22817 0.98157 0.20419 0.0
C637 C 0.22313 0.05595 0.1215 0.0
C638 C 0.19418 0.02687 0.12467 0.0
H639 H 0.2753 0.08151 0.14585 0.0
H640 H 0.22154 0.07731 0.0989 0.0
C641 C 0.19661 1.00032 0.15485 0.0
C642 C 0.78625 0.44951 0.14917 0.0
C643 C 0.78406 0.47644 0.17976 0.0
H644 H 0.81841 0.4302 0.0996 0.0
C645 C 0.81307 0.50539 0.18334 0.0
H646 H 0.76409 0.42718 0.14556 0.0
C647 C 0.84409 0.50699 0.15751 0.0
C648 C 0.84641 0.48024 0.12684 0.0
H649 H 0.81217 0.52658 0.20669 0.0
H650 H 0.86647 0.52901 0.16175 0.0
C651 C 0.81697 0.45168 0.12262 0.0
C652 C 0.24802 0.95471 0.36229 0.0
C653 C 0.2499 0.97853 0.32983 0.0
H654 H 0.21579 0.93866 0.41278 0.0
C655 C 0.22 0.00474 0.32313 0.0
H656 H 0.27102 0.9347 0.36824 0.0
C657 C 0.18848 0.00692 0.3482 0.0
C658 C 0.18669 0.98361 0.38106 0.0
H659 H 0.22094 0.02351 0.29824 0.0
H660 H 0.16552 0.02688 0.3419 0.0
C661 C 0.21682 0.95755 0.388 0.0
C662 C 0.81532 0.49908 0.32892 0.0
C663 C 0.78718 0.52764 0.33391 0.0
H664 H 0.86871 0.47564 0.34876 0.0
C665 C 0.79077 0.55402 0.36486 0.0
H666 H 0.8132 0.47837 0.30517 0.0
C667 C 0.82206 0.55165 0.39056 0.0
C668 C 0.85061 0.52347 0.38503 0.0
H669 H 0.76923 0.576 0.36945 0.0
H670 H 0.8246 0.57268 0.41397 0.0
C671 C 0.84695 0.4973 0.35393 0.0
C672 C 0.19884 0.21264 1.00363 0.0
C673 C 0.19437 0.24172 0.03204 0.0
H674 H 0.17786 0.15899 0.97957 0.0
C675 C 0.16299 0.23915 0.05772 0.0
H676 H 0.22277 0.21388 0.98336 0.0
C677 C 0.13646 0.20797 0.05477 0.0
C678 C 0.14146 0.17859 0.02663 0.0
H679 H 0.15866 0.26141 0.07954 0.0
H680 H 0.11277 0.20622 0.07527 0.0
C681 C 0.17298 0.18131 1.00121 0.0
C682 C 0.19688 0.8037 0.51239 0.0
C683 C 0.19298 0.77456 0.48381 0.0
H684 H 0.17513 0.85669 0.53586 0.0
C685 C 0.16161 0.77551 0.45797 0.0
H686 H 0.22081 0.8036 0.53276 0.0
C687 C 0.13464 0.80524 0.4607 0.0
C688 C 0.13923 0.83499 0.48866 0.0
H689 H 0.15774 0.75316 0.436 0.0
H690 H 0.11109 0.8058 0.43993 0.0
C691 C 0.17063 0.83392 0.51442 0.0
C692 C 0.87759 0.73145 0.45287 0.0
C693 C 0.84783 0.73389 0.48037 0.0
H694 H 0.92768 0.70071 0.43379 0.0
C695 C 0.84668 0.70753 0.51104 0.0
H696 H 0.87933 0.75173 0.42927 0.0
C697 C 0.87392 0.67843 0.51353 0.0
C698 C 0.9035 0.67563 0.48594 0.0
H699 H 0.82405 0.70882 0.53273 0.0
H700 H 0.87143 0.65763 0.53664 0.0
C701 C 0.90554 0.70275 0.45591 0.0
C702 C 0.34818 0.80295 0.50414 0.0
C703 C 0.35179 0.77374 0.53179 0.0
H704 H 0.37059 0.8563 0.48204 0.0
C705 C 0.38296 0.7754 0.55793 0.0
H706 H 0.32435 0.80238 0.48364 0.0
C707 C 0.41019 0.80589 0.55622 0.0
C708 C 0.40597 0.83551 0.52899 0.0
H709 H 0.3865 0.75301 0.57923 0.0
H710 H 0.43378 0.80698 0.57697 0.0
C711 C 0.37469 0.83372 0.50306 0.0
C712 C 0.49885 0.63682 0.73536 0.0
C713 C 0.48066 0.67215 0.72931 0.0
H714 H 0.52007 0.58477 0.70994 0.0
C715 C 0.46563 0.68028 0.69262 0.0
H716 H 0.51093 0.63024 0.76348 0.0
C717 C 0.47166 0.65464 0.66155 0.0
C718 C 0.49224 0.62032 0.66703 0.0
H719 H 0.45199 0.70767 0.68731 0.0
H720 H 0.46203 0.66266 0.63292 0.0
C721 C 0.5041 0.61086 0.70465 0.0
C722 C 0.56973 0.82873 0.69663 0.0
C723 C 0.54941 0.83406 0.73137 0.0
H724 H 0.57929 0.84884 0.6388 0.0
C725 C 0.52726 0.86737 0.73649 0.0
H726 H 0.58671 0.80305 0.69197 0.0
C727 C 0.52366 0.89392 0.70663 0.0
C728 C 0.54125 0.88709 0.67058 0.0
H729 H 0.5113 0.872 0.76312 0.0
H730 H 0.50481 0.9183 0.71093 0.0
C731 C 0.56532 0.85484 0.66625 0.0
C732 C 0.56785 0.36298 0.77514 0.0
C733 C 0.54169 0.33167 0.77226 0.0
H734 H 0.58661 0.41247 0.80835 0.0
C735 C 0.51268 0.3272 0.80055 0.0
H736 H 0.59016 0.36721 0.75348 0.0
C737 C 0.5108 0.3527 0.83208 0.0
C738 C 0.5372 0.3838 0.8353 0.0
H739 H 0.49208 0.30323 0.79892 0.0
H740 H 0.48927 0.34763 0.85435 0.0
C741 C 0.56531 0.38915 0.80617 0.0
C742 C 0.52769 0.17581 0.79862 0.0
C743 C 0.49842 0.17243 0.77023 0.0
H744 H 0.55009 0.15531 0.85239 0.0
C745 C 0.47046 0.14274 0.77321 0.0
H746 H 0.54968 0.19849 0.79708 0.0
C747 C 0.4715 0.11722 0.80437 0.0
C748 C 0.49994 0.12159 0.83355 0.0
H749 H 0.44783 0.13929 0.75159 0.0
H750 H 0.44891 0.09521 0.80653 0.0
C751 C 0.52814 0.151 0.83019 0.0
C752 C 0.73732 0.50097 0.65228 0.0
C753 C 0.73833 0.5227 0.68697 0.0
H754 H 0.70485 0.48472 0.60129 0.0
C755 C 0.7058 0.54424 0.69742 0.0
H756 H 0.76202 0.484 0.64364 0.0
C757 C 0.67256 0.5434 0.67396 0.0
C758 C 0.6717 0.52202 0.639 0.0
H759 H 0.70569 0.56087 0.72421 0.0
H760 H 0.64776 0.56013 0.68278 0.0
C761 C 0.70462 0.50122 0.62815 0.0
C762 C 0.33164 0.01336 0.69207 0.0
C763 C 0.30133 0.98589 0.68761 0.0
H764 H 0.38734 0.0336 0.67219 0.0
C765 C 0.30381 0.95793 0.65799 0.0
H766 H 0.33039 0.03527 0.7147 0.0
C767 C 0.33563 0.95793 0.63281 0.0
C768 C 0.3662 0.98511 0.63754 0.0
H769 H 0.28072 0.93666 0.65373 0.0
H770 H 0.33671 0.93612 0.61007 0.0
C771 C 0.36413 0.01251 0.66775 0.0
C772 C 0.76817 0.47103 0.87329 0.0
C773 C 0.76482 0.44765 0.83973 0.0
H774 H 0.74032 0.49172 0.92495 0.0
C775 C 0.73267 0.42285 0.83514 0.0
H776 H 0.7929 0.49045 0.87722 0.0
C777 C 0.7024 0.42435 0.86183 0.0
C778 C 0.70437 0.44999 0.8938 0.0
H779 H 0.72938 0.40495 0.80933 0.0
H780 H 0.67648 0.40693 0.8564 0.0
C781 C 0.73825 0.47184 0.90051 0.0
C782 C 0.30022 0.0846 0.84485 0.0
C783 C 0.27235 0.05474 0.84405 0.0
H784 H 0.35304 0.10576 0.87069 0.0
C785 C 0.27213 0.02692 0.87352 0.0
H786 H 0.30098 0.10621 0.8224 0.0
C787 C 0.30139 0.02705 0.90151 0.0
C788 C 0.33138 0.05465 0.89982 0.0
H789 H 0.25056 0.00376 0.87355 0.0
H790 H 0.3023 0.00388 0.9223 0.0
C791 C 0.32988 0.08426 0.87235 0.0
C792 C 0.65757 0.7306 0.55583 0.0
C793 C 0.68963 0.7308 0.53087 0.0
H794 H 0.6065 0.69977 0.57459 0.0
C795 C 0.69496 0.6992 0.50557 0.0
H796 H 0.65268 0.75478 0.57532 0.0
C797 C 0.66914 0.6677 0.50552 0.0
C798 C 0.63674 0.66757 0.52998 0.0
H799 H 0.71949 0.69863 0.48601 0.0
H800 H 0.67442 0.64349 0.48615 0.0
C801 C 0.63099 0.69941 0.555 0.0
C802 C 0.69355 0.2892 0.01493 0.0
C803 C 0.69079 0.26258 0.98382 0.0
H804 H 0.67203 0.34076 0.04149 0.0
C805 C 0.66133 0.26689 0.95623 0.0
H806 H 0.716 0.28668 0.0367 0.0
C807 C 0.63527 0.29746 0.95974 0.0
C808 C 0.63886 0.32465 0.99037 0.0
H809 H 0.65832 0.24661 0.93222 0.0
H810 H 0.61333 0.30073 0.93759 0.0
C811 C 0.66823 0.32006 0.01792 0.0
C812 C 0.37822 0.23953 0.95516 0.0
C813 C 0.34988 0.24509 0.98366 0.0
H814 H 0.42571 0.20504 0.93581 0.0
C815 C 0.34884 0.22045 0.01582 0.0
H816 H 0.37988 0.2583 0.93033 0.0
C817 C 0.37468 0.19016 0.01893 0.0
C818 C 0.40276 0.18418 0.99036 0.0
H819 H 0.3273 0.22395 0.03834 0.0
H820 H 0.37214 0.17087 0.04331 0.0
C821 C 0.40477 0.20951 0.95871 0.0
C822 C 0.8772 0.26692 0.05839 0.0
C823 C 0.84534 0.26433 0.03317 0.0
H824 H 0.92801 0.29965 0.07548 0.0
C825 C 0.84057 0.29296 0.00508 0.0
H826 H 0.88173 0.24493 0.0799 0.0
C827 C 0.86667 0.32392 1.00249 0.0
C828 C 0.89865 0.3267 0.02748 0.0
H829 H 0.81623 0.29162 0.98517 0.0
H830 H 0.8616 0.34595 0.98113 0.0
C831 C 0.90394 0.29777 0.05531 0.0
loop_
_geom_bond_atom_site_label_1
_geom_bond_atom_site_label_2
_geom_bond_distance
_geom_bond_site_symmetry_2
_ccdc_geom_bond_type
C0 O2 1.247 . S
C0 O4 1.258 1_455 S
C1 O8 1.247 . S
C1 O9 1.258 1_655 S
O2 C0 1.247 . S
O2 Zn3 2.028 . S
Zn3 O2 2.028 . S
Zn3 O7 2.035 . S
Zn3 O9 2.035 . S
Zn3 O10 2.028 . S
O4 C0 1.258 1_655 S
O4 Zn5 2.035 . S
Zn5 O4 2.035 . S
Zn5 O6 2.028 . S
Zn5 O8 2.028 . S
Zn5 O11 2.035 . S
O6 Zn5 2.028 . S
O6 C12 1.247 . S
O7 Zn3 2.035 . S
O7 C12 1.258 1_455 S
O8 C1 1.247 . S
O8 Zn5 2.028 . S
O9 C1 1.258 1_455 S
O9 Zn3 2.035 . S
O10 Zn3 2.028 . S
O10 C13 1.247 . S
O11 Zn5 2.035 . S
O11 C13 1.258 1_655 S
C12 O6 1.247 . S
C12 O7 1.258 1_655 S
C13 O10 1.247 . S
C13 O11 1.258 1_455 S
C14 O16 1.247 . S
C14 O18 1.258 . S
C15 O22 1.247 1_455 S
C15 O23 1.258 . S
O16 C14 1.247 . S
O16 Zn17 2.028 . S
Zn17 O16 2.028 . S
Zn17 O21 2.035 . S
Zn17 O23 2.035 . S
Zn17 O24 2.028 . S
O18 C14 1.258 . S
O18 Zn19 2.035 1_455 S
Zn19 O18 2.035 1_655 S
Zn19 O20 2.028 . S
Zn19 O22 2.028 . S
Zn19 O25 2.035 1_655 S
O20 Zn19 2.028 . S
O20 C26 1.247 1_655 S
O21 Zn17 2.035 . S
O21 C26 1.258 . S
O22 C15 1.247 1_655 S
O22 Zn19 2.028 . S
O23 C15 1.258 . S
O23 Zn17 2.035 . S
O24 Zn17 2.028 . S
O24 C27 1.247 . S
O25 Zn19 2.035 1_455 S
O25 C27 1.258 . S
C26 O20 1.247 1_455 S
C26 O21 1.258 . S
C27 O24 1.247 . S
C27 O25 1.258 . S
C28 O30 1.247 1_545 S
C28 O32 1.258 . S
C29 O36 1.247 1_565 S
C29 O37 1.258 . S
O30 C28 1.247 1_565 S
O30 Zn31 2.028 . S
Zn31 O30 2.028 . S
Zn31 O35 2.035 . S
Zn31 O37 2.035 . S
Zn31 O38 2.028 . S
O32 C28 1.258 . S
O32 Zn33 2.035 . S
Zn33 O32 2.035 . S
Zn33 O34 2.028 . S
Zn33 O36 2.028 . S
Zn33 O39 2.035 . S
O34 Zn33 2.028 . S
O34 C40 1.247 1_545 S
O35 Zn31 2.035 . S
O35 C40 1.258 . S
O36 C29 1.247 1_545 S
O36 Zn33 2.028 . S
O37 C29 1.258 . S
O37 Zn31 2.035 . S
O38 Zn31 2.028 . S
O38 C41 1.247 1_565 S
O39 Zn33 2.035 . S
O39 C41 1.258 . S
C40 O34 1.247 1_565 S
C40 O35 1.258 . S
C41 O38 1.247 1_545 S
C41 O39 1.258 . S
C42 O44 1.247 . S
C42 O46 1.258 . S
C43 O50 1.247 . S
C43 O51 1.258 . S
O44 C42 1.247 . S
O44 Zn45 2.028 . S
Zn45 O44 2.028 . S
Zn45 O49 2.035 . S
Zn45 O51 2.035 . S
Zn45 O52 2.028 . S
O46 C42 1.258 . S
O46 Zn47 2.035 . S
Zn47 O46 2.035 . S
Zn47 O48 2.028 . S
Zn47 O50 2.028 . S
Zn47 O53 2.035 . S
O48 Zn47 2.028 . S
O48 C54 1.247 . S
O49 Zn45 2.035 . S
O49 C54 1.258 . S
O50 C43 1.247 . S
O50 Zn47 2.028 . S
O51 C43 1.258 . S
O51 Zn45 2.035 . S
O52 Zn45 2.028 . S
O52 C55 1.247 . S
O53 Zn47 2.035 . S
O53 C55 1.258 . S
C54 O48 1.247 . S
C54 O49 1.258 . S
C55 O52 1.247 . S
C55 O53 1.258 . S
C56 O58 1.247 1_554 S
C56 O60 1.258 . S
C57 O64 1.247 . S
C57 O65 1.258 1_554 S
O58 C56 1.247 1_556 S
O58 Zn59 2.028 . S
Zn59 O58 2.028 . S
Zn59 O63 2.035 . S
Zn59 O65 2.035 . S
Zn59 O66 2.028 . S
O60 C56 1.258 . S
O60 Zn61 2.035 . S
Zn61 O60 2.035 . S
Zn61 O62 2.028 . S
Zn61 O64 2.028 . S
Zn61 O67 2.035 . S
O62 Zn61 2.028 . S
O62 C68 1.247 . S
O63 Zn59 2.035 . S
O63 C68 1.258 1_556 S
O64 C57 1.247 . S
O64 Zn61 2.028 . S
O65 C57 1.258 1_556 S
O65 Zn59 2.035 . S
O66 Zn59 2.028 . S
O66 C69 1.247 1_556 S
O67 Zn61 2.035 . S
O67 C69 1.258 . S
C68 O62 1.247 . S
C68 O63 1.258 1_554 S
C69 O66 1.247 1_554 S
C69 O67 1.258 . S
C70 O72 1.247 . S
C70 O74 1.258 . S
C71 O78 1.247 . S
C71 O79 1.258 . S
O72 C70 1.247 . S
O72 Zn73 2.028 . S
Zn73 O72 2.028 . S
Zn73 O77 2.035 . S
Zn73 O79 2.035 . S
Zn73 O80 2.028 . S
O74 C70 1.258 . S
O74 Zn75 2.035 . S
Zn75 O74 2.035 . S
Zn75 O76 2.028 . S
Zn75 O78 2.028 . S
Zn75 O81 2.035 . S
O76 Zn75 2.028 . S
O76 C82 1.247 . S
O77 Zn73 2.035 . S
O77 C82 1.258 . S
O78 C71 1.247 . S
O78 Zn75 2.028 . S
O79 C71 1.258 . S
O79 Zn73 2.035 . S
O80 Zn73 2.028 . S
O80 C83 1.247 . S
O81 Zn75 2.035 . S
O81 C83 1.258 . S
C82 O76 1.247 . S
C82 O77 1.258 . S
C83 O80 1.247 . S
C83 O81 1.258 . S
C84 O86 1.247 . S
C84 O88 1.258 . S
C85 O92 1.247 . S
C85 O93 1.258 . S
O86 C84 1.247 . S
O86 Zn87 2.028 . S
Zn87 O86 2.028 . S
Zn87 O91 2.035 . S
Zn87 O93 2.035 . S
Zn87 O94 2.028 . S
O88 C84 1.258 . S
O88 Zn89 2.035 . S
Zn89 O88 2.035 . S
Zn89 O90 2.028 . S
Zn89 O92 2.028 . S
Zn89 O95 2.035 . S
O90 Zn89 2.028 . S
O90 C96 1.247 . S
O91 Zn87 2.035 . S
O91 C96 1.258 . S
O92 C85 1.247 . S
O92 Zn89 2.028 . S
O93 C85 1.258 . S
O93 Zn87 2.035 . S
O94 Zn87 2.028 . S
O94 C97 1.247 . S
O95 Zn89 2.035 . S
O95 C97 1.258 . S
C96 O90 1.247 . S
C96 O91 1.258 . S
C97 O94 1.247 . S
C97 O95 1.258 . S
C98 O100 1.247 . S
C98 O102 1.258 . S
C99 O106 1.247 . S
C99 O107 1.258 . S
O100 C98 1.247 . S
O100 Zn101 2.028 . S
Zn101 O100 2.028 . S
Zn101 O105 2.035 . S
Zn101 O107 2.035 . S
Zn101 O108 2.028 . S
O102 C98 1.258 . S
O102 Zn103 2.035 . S
Zn103 O102 2.035 . S
Zn103 O104 2.028 . S
Zn103 O106 2.028 . S
Zn103 O109 2.035 . S
O104 Zn103 2.028 . S
O104 C110 1.247 . S
O105 Zn101 2.035 . S
O105 C110 1.258 . S
O106 C99 1.247 . S
O106 Zn103 2.028 . S
O107 C99 1.258 . S
O107 Zn101 2.035 . S
O108 Zn101 2.028 . S
O108 C111 1.247 . S
O109 Zn103 2.035 . S
O109 C111 1.258 . S
C110 O104 1.247 . S
C110 O105 1.258 . S
C111 O108 1.247 . S
C111 O109 1.258 . S
C112 O114 1.247 . S
C112 O116 1.258 . S
C113 O120 1.247 . S
C113 O121 1.258 . S
O114 C112 1.247 . S
O114 Zn115 2.028 . S
Zn115 O114 2.028 . S
Zn115 O119 2.035 . S
Zn115 O121 2.035 . S
Zn115 O122 2.028 . S
O116 C112 1.258 . S
O116 Zn117 2.035 . S
Zn117 O116 2.035 . S
Zn117 O118 2.028 . S
Zn117 O120 2.028 . S
Zn117 O123 2.035 . S
O118 Zn117 2.028 . S
O118 C124 1.247 . S
O119 Zn115 2.035 . S
O119 C124 1.258 . S
O120 C113 1.247 . S
O120 Zn117 2.028 . S
O121 C113 1.258 . S
O121 Zn115 2.035 . S
O122 Zn115 2.028 . S
O122 C125 1.247 . S
O123 Zn117 2.035 . S
O123 C125 1.258 . S
C124 O118 1.247 . S
C124 O119 1.258 . S
C125 O122 1.247 . S
C125 O123 1.258 . S
C126 O128 1.247 . S
C126 O130 1.258 . S
C127 O134 1.247 . S
C127 O135 1.258 . S
O128 C126 1.247 . S
O128 Zn129 2.028 . S
Zn129 O128 2.028 . S
Zn129 O133 2.035 . S
Zn129 O135 2.035 . S
Zn129 O136 2.028 . S
O130 C126 1.258 . S
O130 Zn131 2.035 . S
Zn131 O130 2.035 . S
Zn131 O132 2.028 . S
Zn131 O134 2.028 . S
Zn131 O137 2.035 . S
O132 Zn131 2.028 . S
O132 C138 1.247 . S
O133 Zn129 2.035 . S
O133 C138 1.258 . S
O134 C127 1.247 . S
O134 Zn131 2.028 . S
O135 C127 1.258 . S
O135 Zn129 2.035 . S
O136 Zn129 2.028 . S
O136 C139 1.247 . S
O137 Zn131 2.035 . S
O137 C139 1.258 . S
C138 O132 1.247 . S
C138 O133 1.258 . S
C139 O136 1.247 . S
C139 O137 1.258 . S
C140 O142 1.247 1_545 S
C140 O144 1.258 . S
C141 O148 1.247 . S
C141 O149 1.258 1_545 S
O142 C140 1.247 1_565 S
O142 Zn143 2.028 . S
Zn143 O142 2.028 . S
Zn143 O147 2.035 . S
Zn143 O149 2.035 . S
Zn143 O150 2.028 . S
O144 C140 1.258 . S
O144 Zn145 2.035 . S
Zn145 O144 2.035 . S
Zn145 O146 2.028 . S
Zn145 O148 2.028 . S
Zn145 O151 2.035 . S
O146 Zn145 2.028 . S
O146 C152 1.247 . S
O147 Zn143 2.035 . S
O147 C152 1.258 1_565 S
O148 C141 1.247 . S
O148 Zn145 2.028 . S
O149 C141 1.258 1_565 S
O149 Zn143 2.035 . S
O150 Zn143 2.028 . S
O150 C153 1.247 1_565 S
O151 Zn145 2.035 . S
O151 C153 1.258 . S
C152 O146 1.247 . S
C152 O147 1.258 1_545 S
C153 O150 1.247 1_545 S
C153 O151 1.258 . S
C154 O156 1.247 1_556 S
C154 O158 1.258 . S
C155 O162 1.247 1_554 S
C155 O163 1.258 . S
O156 C154 1.247 1_554 S
O156 Zn157 2.028 . S
Zn157 O156 2.028 . S
Zn157 O161 2.035 . S
Zn157 O163 2.035 . S
Zn157 O164 2.028 . S
O158 C154 1.258 . S
O158 Zn159 2.035 . S
Zn159 O158 2.035 . S
Zn159 O160 2.028 . S
Zn159 O162 2.028 . S
Zn159 O165 2.035 . S
O160 Zn159 2.028 . S
O160 C166 1.247 1_556 S
O161 Zn157 2.035 . S
O161 C166 1.258 . S
O162 C155 1.247 1_556 S
O162 Zn159 2.028 . S
O163 C155 1.258 . S
O163 Zn157 2.035 . S
O164 Zn157 2.028 . S
O164 C167 1.247 1_554 S
O165 Zn159 2.035 . S
O165 C167 1.258 . S
C166 O160 1.247 1_554 S
C166 O161 1.258 . S
C167 O164 1.247 1_556 S
C167 O165 1.258 . S
O168 Zn169 1.953 . S
O168 C184 1.225 . S
Zn169 O168 1.953 . S
Zn169 O170 1.949 . S
Zn169 O176 1.919 . S
Zn169 O181 1.924 1_545 S
O170 Zn169 1.949 . S
O170 Zn171 1.923 . S
O170 Zn172 1.950 . S
O170 Zn173 1.945 . S
Zn171 O170 1.923 . S
Zn171 O174 1.933 1_455 S
Zn171 O177 1.941 . S
Zn171 O178 1.965 . S
Zn172 O170 1.950 . S
Zn172 O179 1.938 . S
Zn172 O180 1.906 1_554 S
Zn172 O190 1.953 . S
Zn173 O170 1.945 . S
Zn173 O175 1.932 1_455 S
Zn173 O182 1.977 1_544 S
Zn173 O183 1.910 1_545 S
O174 Zn171 1.933 1_655 S
O174 C185 1.226 . S
O175 Zn173 1.932 1_655 S
O175 C185 1.307 . S
O176 Zn169 1.919 . S
O176 C187 1.253 . S
O177 Zn171 1.941 . S
O177 C187 1.283 . S
O178 Zn171 1.965 . S
O178 C186 1.303 . S
O179 Zn172 1.938 . S
O179 C186 1.247 . S
O180 Zn172 1.906 1_556 S
O180 C188 1.304 . S
O181 Zn169 1.924 1_565 S
O181 C189 1.311 . S
O182 Zn173 1.977 1_566 S
O182 C188 1.272 1_565 S
O183 Zn173 1.910 1_565 S
O183 C189 1.231 . S
C184 O168 1.225 . S
C184 O190 1.298 . S
C185 O174 1.226 . S
C185 O175 1.307 . S
C186 O178 1.303 . S
C186 O179 1.247 . S
C187 O176 1.253 . S
C187 O177 1.283 . S
C188 O180 1.304 . S
C188 O182 1.272 1_545 S
C189 O181 1.311 . S
C189 O183 1.231 . S
O190 Zn172 1.953 . S
O190 C184 1.298 . S
O191 Zn192 1.953 . S
O191 C207 1.225 . S
Zn192 O191 1.953 . S
Zn192 O193 1.949 . S
Zn192 O199 1.919 . S
Zn192 O204 1.924 . S
O193 Zn192 1.949 . S
O193 Zn194 1.923 . S
O193 Zn195 1.950 . S
O193 Zn196 1.945 1_655 S
Zn194 O193 1.923 . S
Zn194 O197 1.933 1_655 S
Zn194 O200 1.941 . S
Zn194 O201 1.965 . S
Zn195 O193 1.950 . S
Zn195 O202 1.938 . S
Zn195 O203 1.906 1_554 S
Zn195 O213 1.953 . S
Zn196 O193 1.945 1_455 S
Zn196 O198 1.932 . S
Zn196 O205 1.977 1_454 S
Zn196 O206 1.910 . S
O197 Zn194 1.933 1_455 S
O197 C208 1.226 . S
O198 Zn196 1.932 . S
O198 C208 1.307 . S
O199 Zn192 1.919 . S
O199 C210 1.253 . S
O200 Zn194 1.941 . S
O200 C210 1.283 . S
O201 Zn194 1.965 . S
O201 C209 1.303 . S
O202 Zn195 1.938 . S
O202 C209 1.247 . S
O203 Zn195 1.906 1_556 S
O203 C211 1.304 . S
O204 Zn192 1.924 . S
O204 C212 1.311 1_655 S
O205 Zn196 1.977 1_656 S
O205 C211 1.272 . S
O206 Zn196 1.910 . S
O206 C212 1.231 . S
C207 O191 1.225 . S
C207 O213 1.298 . S
C208 O197 1.226 . S
C208 O198 1.307 . S
C209 O201 1.303 . S
C209 O202 1.247 . S
C210 O199 1.253 . S
C210 O200 1.283 . S
C211 O203 1.304 . S
C211 O205 1.272 . S
C212 O204 1.311 1_455 S
C212 O206 1.231 . S
O213 Zn195 1.953 . S
O213 C207 1.298 . S
O214 Zn215 1.953 . S
O214 C230 1.225 . S
Zn215 O214 1.953 . S
Zn215 O216 1.949 . S
Zn215 O222 1.919 . S
Zn215 O227 1.924 . S
O216 Zn215 1.949 . S
O216 Zn217 1.923 . S
O216 Zn218 1.950 . S
O216 Zn219 1.945 . S
Zn217 O216 1.923 . S
Zn217 O220 1.933 1_565 S
Zn217 O223 1.941 . S
Zn217 O224 1.965 . S
Zn218 O216 1.950 . S
Zn218 O225 1.938 . S
Zn218 O226 1.906 1_455 S
Zn218 O236 1.953 . S
Zn219 O216 1.945 . S
Zn219 O221 1.932 1_565 S
Zn219 O228 1.977 1_455 S
Zn219 O229 1.910 1_565 S
O220 Zn217 1.933 1_545 S
O220 C231 1.226 . S
O221 Zn219 1.932 1_545 S
O221 C231 1.307 . S
O222 Zn215 1.919 . S
O222 C233 1.253 . S
O223 Zn217 1.941 . S
O223 C233 1.283 . S
O224 Zn217 1.965 . S
O224 C232 1.303 . S
O225 Zn218 1.938 . S
O225 C232 1.247 . S
O226 Zn218 1.906 1_655 S
O226 C234 1.304 . S
O227 Zn215 1.924 . S
O227 C235 1.311 . S
O228 Zn219 1.977 1_655 S
O228 C234 1.272 . S
O229 Zn219 1.910 1_545 S
O229 C235 1.231 1_545 S
C230 O214 1.225 . S
C230 O236 1.298 . S
C231 O220 1.226 . S
C231 O221 1.307 . S
C232 O224 1.303 . S
C232 O225 1.247 . S
C233 O222 1.253 . S
C233 O223 1.283 . S
C234 O226 1.304 . S
C234 O228 1.272 . S
C235 O227 1.311 . S
C235 O229 1.231 1_565 S
O236 Zn218 1.953 . S
O236 C230 1.298 . S
O237 Zn238 1.953 . S
O237 C253 1.225 . S
Zn238 O237 1.953 . S
Zn238 O239 1.949 . S
Zn238 O245 1.919 . S
Zn238 O250 1.924 1_655 S
O239 Zn238 1.949 . S
O239 Zn240 1.923 . S
O239 Zn241 1.950 . S
O239 Zn242 1.945 . S
Zn240 O239 1.923 . S
Zn240 O243 1.933 . S
Zn240 O246 1.941 . S
Zn240 O247 1.965 . S
Zn241 O239 1.950 . S
Zn241 O248 1.938 . S
Zn241 O249 1.906 . S
Zn241 O259 1.953 . S
Zn242 O239 1.945 . S
Zn242 O244 1.932 . S
Zn242 O251 1.977 1_655 S
Zn242 O252 1.910 1_655 S
O243 Zn240 1.933 . S
O243 C254 1.226 . S
O244 Zn242 1.932 . S
O244 C254 1.307 . S
O245 Zn238 1.919 . S
O245 C256 1.253 . S
O246 Zn240 1.941 . S
O246 C256 1.283 . S
O247 Zn240 1.965 . S
O247 C255 1.303 . S
O248 Zn241 1.938 . S
O248 C255 1.247 . S
O249 Zn241 1.906 . S
O249 C257 1.304 1_655 S
O250 Zn238 1.924 1_455 S
O250 C258 1.311 . S
O251 Zn242 1.977 1_455 S
O251 C257 1.272 . S
O252 Zn242 1.910 1_455 S
O252 C258 1.231 . S
C253 O237 1.225 . S
C253 O259 1.298 . S
C254 O243 1.226 . S
C254 O244 1.307 . S
C255 O247 1.303 . S
C255 O248 1.247 . S
C256 O245 1.253 . S
C256 O246 1.283 . S
C257 O249 1.304 1_455 S
C257 O251 1.272 . S
C258 O250 1.311 . S
C258 O252 1.231 . S
O259 Zn241 1.953 . S
O259 C253 1.298 . S
O260 Zn261 1.953 . S
O260 C276 1.225 . S
Zn261 O260 1.953 . S
Zn261 O262 1.949 . S
Zn261 O268 1.919 . S
Zn261 O273 1.924 1_565 S
O262 Zn261 1.949 . S
O262 Zn263 1.923 . S
O262 Zn264 1.950 . S
O262 Zn265 1.945 . S
Zn263 O262 1.923 . S
Zn263 O266 1.933 . S
Zn263 O269 1.941 . S
Zn263 O270 1.965 . S
Zn264 O262 1.950 . S
Zn264 O271 1.938 . S
Zn264 O272 1.906 . S
Zn264 O282 1.953 . S
Zn265 O262 1.945 . S
Zn265 O267 1.932 . S
Zn265 O274 1.980 . S
Zn265 O275 1.910 1_565 S
O266 Zn263 1.933 . S
O266 C277 1.226 . S
O267 Zn265 1.932 . S
O267 C277 1.307 . S
O268 Zn261 1.919 . S
O268 C279 1.253 . S
O269 Zn263 1.941 . S
O269 C279 1.283 . S
O270 Zn263 1.965 . S
O270 C278 1.303 . S
O271 Zn264 1.938 . S
O271 C278 1.247 . S
O272 Zn264 1.906 . S
O272 C280 1.304 . S
O273 Zn261 1.924 1_545 S
O273 C281 1.311 . S
O274 Zn265 1.980 . S
O274 C280 1.274 . S
O275 Zn265 1.910 1_545 S
O275 C281 1.231 . S
C276 O260 1.225 . S
C276 O282 1.298 . S
C277 O266 1.226 . S
C277 O267 1.307 . S
C278 O270 1.303 . S
C278 O271 1.247 . S
C279 O268 1.253 . S
C279 O269 1.283 . S
C280 O272 1.304 . S
C280 O274 1.274 . S
C281 O273 1.311 . S
C281 O275 1.231 . S
O282 Zn264 1.953 . S
O282 C276 1.298 . S
O283 Zn284 1.953 . S
O283 C299 1.225 . S
Zn284 O283 1.953 . S
Zn284 O285 1.949 . S
Zn284 O291 1.919 . S
Zn284 O296 1.924 . S
O285 Zn284 1.949 . S
O285 Zn286 1.923 . S
O285 Zn287 1.950 . S
O285 Zn288 1.945 . S
Zn286 O285 1.923 . S
Zn286 O289 1.933 . S
Zn286 O292 1.941 . S
Zn286 O293 1.965 . S
Zn287 O285 1.950 . S
Zn287 O294 1.938 . S
Zn287 O295 1.906 . S
Zn287 O305 1.953 . S
Zn288 O285 1.945 . S
Zn288 O290 1.932 . S
Zn288 O297 1.977 . S
Zn288 O298 1.910 . S
O289 Zn286 1.933 . S
O289 C300 1.226 . S
O290 Zn288 1.932 . S
O290 C300 1.307 . S
O291 Zn284 1.919 . S
O291 C302 1.253 . S
O292 Zn286 1.941 . S
O292 C302 1.283 . S
O293 Zn286 1.965 . S
O293 C301 1.303 . S
O294 Zn287 1.938 . S
O294 C301 1.247 . S
O295 Zn287 1.906 . S
O295 C303 1.304 . S
O296 Zn284 1.924 . S
O296 C304 1.311 . S
O297 Zn288 1.977 . S
O297 C303 1.272 . S
O298 Zn288 1.910 . S
O298 C304 1.231 . S
C299 O283 1.225 . S
C299 O305 1.298 . S
C300 O289 1.226 . S
C300 O290 1.307 . S
C301 O293 1.303 . S
C301 O294 1.247 . S
C302 O291 1.253 . S
C302 O292 1.283 . S
C303 O295 1.304 . S
C303 O297 1.272 . S
C304 O296 1.311 . S
C304 O298 1.231 . S
O305 Zn287 1.953 . S
O305 C299 1.298 . S
O306 Zn307 1.953 . S
O306 C322 1.225 . S
Zn307 O306 1.953 . S
Zn307 O308 1.949 . S
Zn307 O314 1.919 . S
Zn307 O319 1.924 1_556 S
O308 Zn307 1.949 . S
O308 Zn309 1.923 . S
O308 Zn310 1.950 . S
O308 Zn311 1.945 . S
Zn309 O308 1.923 . S
Zn309 O312 1.933 . S
Zn309 O315 1.941 . S
Zn309 O316 1.965 . S
Zn310 O308 1.950 . S
Zn310 O317 1.938 . S
Zn310 O318 1.906 . S
Zn310 O328 1.953 . S
Zn311 O308 1.945 . S
Zn311 O313 1.932 . S
Zn311 O320 1.977 1_556 S
Zn311 O321 1.910 1_556 S
O312 Zn309 1.933 . S
O312 C323 1.226 . S
O313 Zn311 1.932 . S
O313 C323 1.307 . S
O314 Zn307 1.919 . S
O314 C325 1.253 . S
O315 Zn309 1.941 . S
O315 C325 1.283 . S
O316 Zn309 1.965 . S
O316 C324 1.303 . S
O317 Zn310 1.938 . S
O317 C324 1.247 . S
O318 Zn310 1.906 . S
O318 C326 1.304 . S
O319 Zn307 1.924 1_554 S
O319 C327 1.311 . S
O320 Zn311 1.977 1_554 S
O320 C326 1.272 1_554 S
O321 Zn311 1.910 1_554 S
O321 C327 1.231 . S
C322 O306 1.225 . S
C322 O328 1.298 . S
C323 O312 1.226 . S
C323 O313 1.307 . S
C324 O316 1.303 . S
C324 O317 1.247 . S
C325 O314 1.253 . S
C325 O315 1.283 . S
C326 O318 1.304 . S
C326 O320 1.272 1_556 S
C327 O319 1.311 . S
C327 O321 1.231 . S
O328 Zn310 1.953 . S
O328 C322 1.298 . S
O329 Zn330 1.953 . S
O329 C345 1.225 . S
Zn330 O329 1.953 . S
Zn330 O331 1.949 . S
Zn330 O337 1.919 . S
Zn330 O342 1.924 . S
O331 Zn330 1.949 . S
O331 Zn332 1.923 . S
O331 Zn333 1.950 . S
O331 Zn334 1.945 . S
Zn332 O331 1.923 . S
Zn332 O335 1.933 1_556 S
Zn332 O338 1.941 . S
Zn332 O339 1.965 . S
Zn333 O331 1.950 . S
Zn333 O340 1.938 . S
Zn333 O341 1.906 1_545 S
Zn333 O351 1.953 . S
Zn334 O331 1.945 . S
Zn334 O336 1.932 1_556 S
Zn334 O343 1.977 1_545 S
Zn334 O344 1.910 . S
O335 Zn332 1.933 1_554 S
O335 C346 1.226 . S
O336 Zn334 1.932 1_554 S
O336 C346 1.307 . S
O337 Zn330 1.919 . S
O337 C348 1.253 . S
O338 Zn332 1.941 . S
O338 C348 1.283 . S
O339 Zn332 1.965 . S
O339 C347 1.303 . S
O340 Zn333 1.938 . S
O340 C347 1.247 . S
O341 Zn333 1.906 1_565 S
O341 C349 1.304 . S
O342 Zn330 1.924 . S
O342 C350 1.311 . S
O343 Zn334 1.977 1_565 S
O343 C349 1.272 . S
O344 Zn334 1.910 . S
O344 C350 1.231 . S
C345 O329 1.225 . S
C345 O351 1.298 . S
C346 O335 1.226 . S
C346 O336 1.307 . S
C347 O339 1.303 . S
C347 O340 1.247 . S
C348 O337 1.253 . S
C348 O338 1.283 . S
C349 O341 1.304 . S
C349 O343 1.272 . S
C350 O342 1.311 . S
C350 O344 1.231 . S
O351 Zn333 1.953 . S
O351 C345 1.298 . S
C352 C353 1.387 . S
C352 H356 0.950 . S
C352 C361 1.390 . S
C353 C352 1.387 . S
C353 C355 1.387 1_455 S
H354 C361 0.950 . S
C355 C353 1.387 1_655 S
C355 C357 1.390 . S
C355 H359 0.950 . S
H356 C352 0.950 . S
C357 C355 1.390 . S
C357 C358 1.387 1_655 S
C357 H360 0.950 . S
C358 C357 1.387 1_455 S
C358 C361 1.387 . S
H359 C355 0.950 . S
H360 C357 0.950 . S
C361 C352 1.390 . S
C361 H354 0.950 . S
C361 C358 1.387 . S
C362 C363 1.387 1_455 S
C362 H366 0.950 . S
C362 C371 1.390 . S
C363 C362 1.387 1_655 S
C363 C365 1.387 . S
H364 C371 0.950 . S
C365 C363 1.387 . S
C365 C367 1.390 . S
C365 H369 0.950 . S
H366 C362 0.950 . S
C367 C365 1.390 . S
C367 C368 1.388 . S
C367 H370 0.950 . S
C368 C367 1.388 . S
C368 C371 1.387 1_655 S
H369 C365 0.950 . S
H370 C367 0.950 . S
C371 C362 1.390 . S
C371 H364 0.950 . S
C371 C368 1.387 1_455 S
C372 C373 1.387 . S
C372 H376 0.950 . S
C372 C381 1.390 . S
C373 C372 1.387 . S
C373 C375 1.387 . S
H374 C381 0.950 1_655 S
C375 C373 1.387 . S
C375 C377 1.390 . S
C375 H379 0.950 . S
H376 C372 0.950 . S
C377 C375 1.390 . S
C377 C378 1.387 . S
C377 H380 0.950 . S
C378 C377 1.387 . S
C378 C381 1.387 . S
H379 C375 0.950 . S
H380 C377 0.950 . S
C381 C372 1.390 . S
C381 H374 0.950 1_455 S
C381 C378 1.387 . S
C382 C383 1.387 1_655 S
C382 H386 0.950 . S
C382 C391 1.390 . S
C383 C382 1.387 1_455 S
C383 C385 1.387 . S
H384 C391 0.950 . S
C385 C383 1.387 . S
C385 C387 1.390 . S
C385 H389 0.950 . S
H386 C382 0.950 . S
C387 C385 1.390 . S
C387 C388 1.387 . S
C387 H390 0.950 . S
C388 C387 1.387 . S
C388 C391 1.387 1_455 S
H389 C385 0.950 . S
H390 C387 0.950 . S
C391 C382 1.390 . S
C391 H384 0.950 . S
C391 C388 1.387 1_655 S
C392 C393 1.387 . S
C392 H396 0.950 . S
C392 C401 1.390 . S
C393 C392 1.387 . S
C393 C395 1.387 1_545 S
H394 C401 0.950 . S
C395 C393 1.387 1_565 S
C395 C397 1.390 . S
C395 H399 0.950 . S
H396 C392 0.950 . S
C397 C395 1.390 . S
C397 C398 1.387 1_565 S
C397 H400 0.950 . S
C398 C397 1.387 1_545 S
C398 C401 1.387 . S
H399 C395 0.950 . S
H400 C397 0.950 . S
C401 C392 1.390 . S
C401 H394 0.950 . S
C401 C398 1.387 . S
C402 C403 1.387 . S
C402 H406 0.950 . S
C402 C411 1.390 . S
C403 C402 1.387 . S
C403 C405 1.387 . S
H404 C411 0.950 . S
C405 C403 1.387 . S
C405 C407 1.390 . S
C405 H409 0.950 . S
H406 C402 0.950 . S
C407 C405 1.390 . S
C407 C408 1.387 . S
C407 H410 0.950 . S
C408 C407 1.387 . S
C408 C411 1.387 . S
H409 C405 0.950 . S
H410 C407 0.950 . S
C411 C402 1.390 . S
C411 H404 0.950 . S
C411 C408 1.387 . S
C412 C413 1.387 . S
C412 H416 0.950 . S
C412 C421 1.390 . S
C413 C412 1.387 . S
C413 C415 1.387 1_565 S
H414 C421 0.950 . S
C415 C413 1.387 1_545 S
C415 C417 1.390 . S
C415 H419 0.950 . S
H416 C412 0.950 . S
C417 C415 1.390 . S
C417 C418 1.387 1_545 S
C417 H420 0.950 . S
C418 C417 1.387 1_565 S
C418 C421 1.387 . S
H419 C415 0.950 . S
H420 C417 0.950 . S
C421 C412 1.390 . S
C421 H414 0.950 . S
C421 C418 1.387 . S
C422 C423 1.387 . S
C422 H426 0.950 . S
C422 C431 1.390 . S
C423 C422 1.387 . S
C423 C425 1.387 . S
H424 C431 0.950 . S
C425 C423 1.387 . S
C425 C427 1.390 . S
C425 H429 0.950 . S
H426 C422 0.950 . S
C427 C425 1.390 . S
C427 C428 1.387 . S
C427 H430 0.950 . S
C428 C427 1.387 . S
C428 C431 1.387 . S
H429 C425 0.950 . S
H430 C427 0.950 . S
C431 C422 1.390 . S
C431 H424 0.950 . S
C431 C428 1.387 . S
C432 C433 1.387 1_556 S
C432 H436 0.950 . S
C432 C441 1.390 . S
C433 C432 1.387 1_554 S
C433 C435 1.387 . S
H434 C441 0.950 . S
C435 C433 1.387 . S
C435 C437 1.390 . S
C435 H439 0.950 . S
H436 C432 0.950 . S
C437 C435 1.390 . S
C437 C438 1.387 . S
C437 H440 0.950 . S
C438 C437 1.387 . S
C438 C441 1.387 1_554 S
H439 C435 0.950 . S
H440 C437 0.950 . S
C441 C432 1.390 . S
C441 H434 0.950 . S
C441 C438 1.387 1_556 S
C442 C443 1.387 . S
C442 H446 0.950 . S
C442 C451 1.390 . S
C443 C442 1.387 . S
C443 C445 1.387 . S
H444 C451 0.950 . S
C445 C443 1.387 . S
C445 C447 1.390 . S
C445 H449 0.950 . S
H446 C442 0.950 . S
C447 C445 1.390 . S
C447 C448 1.387 . S
C447 H450 0.950 . S
C448 C447 1.387 . S
C448 C451 1.387 . S
H449 C445 0.950 . S
H450 C447 0.950 . S
C451 C442 1.390 . S
C451 H444 0.950 . S
C451 C448 1.387 . S
C452 C453 1.387 . S
C452 H456 0.950 . S
C452 C461 1.390 . S
C453 C452 1.387 . S
C453 C455 1.387 . S
H454 C461 0.950 . S
C455 C453 1.387 . S
C455 C457 1.390 . S
C455 H459 0.950 . S
H456 C452 0.950 . S
C457 C455 1.390 . S
C457 C458 1.387 . S
C457 H460 0.950 . S
C458 C457 1.387 . S
C458 C461 1.387 . S
H459 C455 0.950 . S
H460 C457 0.950 . S
C461 C452 1.390 . S
C461 H454 0.950 . S
C461 C458 1.387 . S
C462 C463 1.387 . S
C462 H466 0.950 . S
C462 C471 1.390 . S
C463 C462 1.387 . S
C463 C465 1.387 . S
H464 C471 0.950 . S
C465 C463 1.387 . S
C465 C467 1.390 . S
C465 H469 0.950 . S
H466 C462 0.950 . S
C467 C465 1.390 . S
C467 C468 1.387 . S
C467 H470 0.950 . S
C468 C467 1.387 . S
C468 C471 1.387 . S
H469 C465 0.950 . S
H470 C467 0.950 . S
C471 C462 1.390 . S
C471 H464 0.950 . S
C471 C468 1.387 . S
C472 C473 1.387 . S
C472 H476 0.950 . S
C472 C481 1.390 . S
C473 C472 1.387 . S
C473 C475 1.387 . S
H474 C481 0.950 . S
C475 C473 1.387 . S
C475 C477 1.390 . S
C475 H479 0.950 . S
H476 C472 0.950 . S
C477 C475 1.390 . S
C477 C478 1.387 . S
C477 H480 0.950 . S
C478 C477 1.387 . S
C478 C481 1.387 . S
H479 C475 0.950 . S
H480 C477 0.950 . S
C481 C472 1.390 . S
C481 H474 0.950 . S
C481 C478 1.387 . S
C482 C483 1.387 . S
C482 H486 0.950 . S
C482 C491 1.390 . S
C483 C482 1.387 . S
C483 C485 1.387 . S
H484 C491 0.950 . S
C485 C483 1.387 . S
C485 C487 1.390 . S
C485 H489 0.950 . S
H486 C482 0.950 . S
C487 C485 1.390 . S
C487 C488 1.387 . S
C487 H490 0.950 . S
C488 C487 1.387 . S
C488 C491 1.387 . S
H489 C485 0.950 . S
H490 C487 0.950 . S
C491 C482 1.390 . S
C491 H484 0.950 . S
C491 C488 1.387 . S
C492 C493 1.387 . S
C492 H496 0.950 . S
C492 C501 1.390 . S
C493 C492 1.387 . S
C493 C495 1.387 . S
H494 C501 0.950 . S
C495 C493 1.387 . S
C495 C497 1.390 . S
C495 H499 0.950 . S
H496 C492 0.950 . S
C497 C495 1.390 . S
C497 C498 1.387 . S
C497 H500 0.950 . S
C498 C497 1.387 . S
C498 C501 1.387 . S
H499 C495 0.950 . S
H500 C497 0.950 . S
C501 C492 1.390 . S
C501 H494 0.950 . S
C501 C498 1.387 . S
C502 C503 1.387 . S
C502 H506 0.950 . S
C502 C511 1.390 . S
C503 C502 1.387 . S
C503 C505 1.387 . S
H504 C511 0.950 . S
C505 C503 1.387 . S
C505 C507 1.390 . S
C505 H509 0.950 . S
H506 C502 0.950 . S
C507 C505 1.390 . S
C507 C508 1.387 . S
C507 H510 0.950 . S
C508 C507 1.387 . S
C508 C511 1.387 . S
H509 C505 0.950 . S
H510 C507 0.950 . S
C511 C502 1.390 . S
C511 H504 0.950 . S
C511 C508 1.387 . S
C512 C513 1.387 . S
C512 H516 0.950 . S
C512 C521 1.390 . S
C513 C512 1.387 . S
C513 C515 1.387 . S
H514 C521 0.950 . S
C515 C513 1.387 . S
C515 C517 1.390 . S
C515 H519 0.950 . S
H516 C512 0.950 . S
C517 C515 1.390 . S
C517 C518 1.387 . S
C517 H520 0.950 . S
C518 C517 1.387 . S
C518 C521 1.387 . S
H519 C515 0.950 . S
H520 C517 0.950 . S
C521 C512 1.390 . S
C521 H514 0.950 . S
C521 C518 1.387 . S
C522 C523 1.387 1_545 S
C522 H526 0.950 . S
C522 C531 1.390 . S
C523 C522 1.387 1_565 S
C523 C525 1.387 . S
H524 C531 0.950 . S
C525 C523 1.387 . S
C525 C527 1.390 . S
C525 H529 0.950 . S
H526 C522 0.950 . S
C527 C525 1.390 . S
C527 C528 1.387 . S
C527 H530 0.950 . S
C528 C527 1.387 . S
C528 C531 1.387 1_565 S
H529 C525 0.950 . S
H530 C527 0.950 . S
C531 C522 1.390 . S
C531 H524 0.950 . S
C531 C528 1.387 1_545 S
C532 C533 1.387 . S
C532 H536 0.950 . S
C532 C541 1.390 . S
C533 C532 1.387 . S
C533 C535 1.387 . S
H534 C541 0.950 . S
C535 C533 1.387 . S
C535 C537 1.390 . S
C535 H539 0.950 . S
H536 C532 0.950 . S
C537 C535 1.390 . S
C537 C538 1.387 . S
C537 H540 0.950 . S
C538 C537 1.387 . S
C538 C541 1.387 . S
H539 C535 0.950 . S
H540 C537 0.950 . S
C541 C532 1.390 . S
C541 H534 0.950 . S
C541 C538 1.387 . S
C542 C543 1.387 1_565 S
C542 H546 0.950 . S
C542 C551 1.390 . S
C543 C542 1.387 1_545 S
C543 C545 1.387 . S
H544 C551 0.950 . S
C545 C543 1.387 . S
C545 C547 1.390 . S
C545 H549 0.950 . S
H546 C542 0.950 . S
C547 C545 1.390 . S
C547 C548 1.387 . S
C547 H550 0.950 . S
C548 C547 1.387 . S
C548 C551 1.387 1_545 S
H549 C545 0.950 . S
H550 C547 0.950 . S
C551 C542 1.390 . S
C551 H544 0.950 . S
C551 C548 1.387 1_565 S
C552 C553 1.387 . S
C552 H556 0.950 . S
C552 C561 1.390 . S
C553 C552 1.387 . S
C553 C555 1.387 . S
H554 C561 0.950 . S
C555 C553 1.387 . S
C555 C557 1.390 . S
C555 H559 0.950 . S
H556 C552 0.950 . S
C557 C555 1.390 . S
C557 C558 1.387 . S
C557 H560 0.950 . S
C558 C557 1.387 . S
C558 C561 1.387 . S
H559 C555 0.950 . S
H560 C557 0.950 . S
C561 C552 1.390 . S
C561 H554 0.950 . S
C561 C558 1.387 . S
C562 C563 1.387 1_554 S
C562 H566 0.950 . S
C562 C571 1.390 . S
C563 C562 1.387 1_556 S
C563 C565 1.387 . S
H564 C571 0.950 . S
C565 C563 1.387 . S
C565 C567 1.390 . S
C565 H569 0.950 . S
H566 C562 0.950 . S
C567 C565 1.390 . S
C567 C568 1.387 . S
C567 H570 0.950 . S
C568 C567 1.387 . S
C568 C571 1.387 1_556 S
H569 C565 0.950 . S
H570 C567 0.950 . S
C571 C562 1.390 . S
C571 H564 0.950 . S
C571 C568 1.387 1_554 S
C572 C573 1.387 . S
C572 H576 0.950 . S
C572 C581 1.390 . S
C573 C572 1.387 . S
C573 C575 1.387 1_554 S
H574 C581 0.950 . S
C575 C573 1.387 1_556 S
C575 C577 1.390 . S
C575 H579 0.950 . S
H576 C572 0.950 . S
C577 C575 1.390 . S
C577 C578 1.387 . S
C577 H580 0.950 . S
C578 C577 1.387 . S
C578 C581 1.387 1_556 S
H579 C575 0.950 . S
H580 C577 0.950 . S
C581 C572 1.390 . S
C581 H574 0.950 . S
C581 C578 1.387 1_554 S
C582 C583 1.387 1_556 S
C582 H586 0.950 . S
C582 C591 1.390 . S
C583 C582 1.387 1_554 S
C583 C585 1.387 . S
H584 C591 0.950 . S
C585 C583 1.387 . S
C585 C587 1.390 . S
C585 H589 0.950 . S
H586 C582 0.950 . S
C587 C585 1.390 . S
C587 C588 1.387 . S
C587 H590 0.950 . S
C588 C587 1.387 . S
C588 C591 1.387 1_554 S
H589 C585 0.950 . S
H590 C587 0.950 . S
C591 C582 1.390 . S
C591 H584 0.950 . S
C591 C588 1.387 1_556 S
C592 C593 1.387 . S
C592 H596 0.950 . S
C592 C601 1.390 . S
C593 C592 1.387 . S
C593 C595 1.387 1_455 S
H594 C601 0.950 . S
C595 C593 1.387 1_655 S
C595 C597 1.390 . S
C595 H599 0.950 . S
H596 C592 0.950 . S
C597 C595 1.390 . S
C597 C598 1.387 1_655 S
C597 H600 0.950 . S
C598 C597 1.387 1_455 S
C598 C601 1.387 . S
H599 C595 0.950 . S
H600 C597 0.950 . S
C601 C592 1.390 . S
C601 H594 0.950 . S
C601 C598 1.387 . S
C602 C603 1.387 . S
C602 H606 0.950 . S
C602 C611 1.390 . S
C603 C602 1.387 . S
C603 C605 1.387 1_655 S
H604 C611 0.950 . S
C605 C603 1.387 1_455 S
C605 C607 1.390 . S
C605 H609 0.950 . S
H606 C602 0.950 . S
C607 C605 1.390 . S
C607 C608 1.387 . S
C607 H610 0.950 . S
C608 C607 1.387 . S
C608 C611 1.387 1_455 S
H609 C605 0.950 . S
H610 C607 0.950 . S
C611 C602 1.390 . S
C611 H604 0.950 . S
C611 C608 1.387 1_655 S
C612 C613 1.387 . S
C612 H616 0.950 . S
C612 C621 1.390 . S
C613 C612 1.387 . S
C613 C615 1.387 . S
H614 C621 0.950 . S
C615 C613 1.387 . S
C615 C617 1.390 . S
C615 H619 0.950 1_455 S
H616 C612 0.950 . S
C617 C615 1.390 . S
C617 C618 1.387 . S
C617 H620 0.950 1_455 S
C618 C617 1.387 . S
C618 C621 1.387 . S
H619 C615 0.950 1_655 S
H620 C617 0.950 1_655 S
C621 C612 1.390 . S
C621 H614 0.950 . S
C621 C618 1.387 . S
C622 C623 1.387 . S
C622 H626 0.950 . S
C622 C631 1.390 . S
C623 C622 1.387 . S
C623 C625 1.387 1_455 S
H624 C631 0.950 . S
C625 C623 1.387 1_655 S
C625 C627 1.390 . S
C625 H629 0.950 . S
H626 C622 0.950 . S
C627 C625 1.390 . S
C627 C628 1.387 1_655 S
C627 H630 0.950 . S
C628 C627 1.387 1_455 S
C628 C631 1.387 . S
H629 C625 0.950 . S
H630 C627 0.950 . S
C631 C622 1.390 . S
C631 H624 0.950 . S
C631 C628 1.387 . S
C632 C633 1.387 1_565 S
C632 H636 0.950 . S
C632 C641 1.390 . S
C633 C632 1.387 1_545 S
C633 C635 1.387 . S
H634 C641 0.950 . S
C635 C633 1.387 . S
C635 C637 1.390 . S
C635 H639 0.950 . S
H636 C632 0.950 . S
C637 C635 1.390 . S
C637 C638 1.387 . S
C637 H640 0.950 . S
C638 C637 1.387 . S
C638 C641 1.387 1_545 S
H639 C635 0.950 . S
H640 C637 0.950 . S
C641 C632 1.390 . S
C641 H634 0.950 . S
C641 C638 1.387 1_565 S
C642 C643 1.387 . S
C642 H646 0.950 . S
C642 C651 1.390 . S
C643 C642 1.387 . S
C643 C645 1.387 . S
H644 C651 0.950 . S
C645 C643 1.387 . S
C645 C647 1.390 . S
C645 H649 0.950 . S
H646 C642 0.950 . S
C647 C645 1.390 . S
C647 C648 1.387 . S
C647 H650 0.950 . S
C648 C647 1.387 . S
C648 C651 1.387 . S
H649 C645 0.950 . S
H650 C647 0.950 . S
C651 C642 1.390 . S
C651 H644 0.950 . S
C651 C648 1.387 . S
C652 C653 1.387 . S
C652 H656 0.950 . S
C652 C661 1.390 . S
C653 C652 1.387 . S
C653 C655 1.387 1_565 S
H654 C661 0.950 . S
C655 C653 1.387 1_545 S
C655 C657 1.390 . S
C655 H659 0.950 . S
H656 C652 0.950 . S
C657 C655 1.390 . S
C657 C658 1.387 1_545 S
C657 H660 0.950 . S
C658 C657 1.387 1_565 S
C658 C661 1.387 . S
H659 C655 0.950 . S
H660 C657 0.950 . S
C661 C652 1.390 . S
C661 H654 0.950 . S
C661 C658 1.387 . S
C662 C663 1.387 . S
C662 H666 0.950 . S
C662 C671 1.390 . S
C663 C662 1.387 . S
C663 C665 1.387 . S
H664 C671 0.950 . S
C665 C663 1.387 . S
C665 C667 1.390 . S
C665 H669 0.950 . S
H666 C662 0.950 . S
C667 C665 1.390 . S
C667 C668 1.387 . S
C667 H670 0.950 . S
C668 C667 1.387 . S
C668 C671 1.387 . S
H669 C665 0.950 . S
H670 C667 0.950 . S
C671 C662 1.390 . S
C671 H664 0.950 . S
C671 C668 1.387 . S
C672 C673 1.387 1_556 S
C672 H676 0.950 . S
C672 C681 1.391 . S
C673 C672 1.387 1_554 S
C673 C675 1.387 . S
H674 C681 0.973 . S
C675 C673 1.387 . S
C675 C677 1.390 . S
C675 H679 0.950 . S
H676 C672 0.950 . S
C677 C675 1.390 . S
C677 C678 1.387 . S
C677 H680 0.950 . S
C678 C677 1.387 . S
C678 C681 1.363 1_554 S
H679 C675 0.950 . S
H680 C677 0.950 . S
C681 C672 1.391 . S
C681 H674 0.973 . S
C681 C678 1.363 1_556 S
C682 C683 1.387 . S
C682 H686 0.950 . S
C682 C691 1.390 . S
C683 C682 1.387 . S
C683 C685 1.387 . S
H684 C691 0.950 . S
C685 C683 1.387 . S
C685 C687 1.390 . S
C685 H689 0.950 . S
H686 C682 0.950 . S
C687 C685 1.390 . S
C687 C688 1.387 . S
C687 H690 0.950 . S
C688 C687 1.387 . S
C688 C691 1.387 . S
H689 C685 0.950 . S
H690 C687 0.950 . S
C691 C682 1.390 . S
C691 H684 0.950 . S
C691 C688 1.387 . S
C692 C693 1.387 . S
C692 H696 0.950 . S
C692 C701 1.390 . S
C693 C692 1.387 . S
C693 C695 1.387 . S
H694 C701 0.950 . S
C695 C693 1.387 . S
C695 C697 1.390 . S
C695 H699 0.950 . S
H696 C692 0.950 . S
C697 C695 1.390 . S
C697 C698 1.387 . S
C697 H700 0.950 . S
C698 C697 1.387 . S
C698 C701 1.387 . S
H699 C695 0.950 . S
H700 C697 0.950 . S
C701 C692 1.390 . S
C701 H694 0.950 . S
C701 C698 1.387 . S
C702 C703 1.387 . S
C702 H706 0.950 . S
C702 C711 1.390 . S
C703 C702 1.387 . S
C703 C705 1.387 . S
H704 C711 0.950 . S
C705 C703 1.387 . S
C705 C707 1.390 . S
C705 H709 0.950 . S
H706 C702 0.950 . S
C707 C705 1.390 . S
C707 C708 1.387 . S
C707 H710 0.950 . S
C708 C707 1.387 . S
C708 C711 1.387 . S
H709 C705 0.950 . S
H710 C707 0.950 . S
C711 C702 1.390 . S
C711 H704 0.950 . S
C711 C708 1.387 . S
C712 C713 1.387 . S
C712 H716 0.950 . S
C712 C721 1.390 . S
C713 C712 1.387 . S
C713 C715 1.387 . S
H714 C721 0.950 . S
C715 C713 1.387 . S
C715 C717 1.390 . S
C715 H719 0.950 . S
H716 C712 0.950 . S
C717 C715 1.390 . S
C717 C718 1.387 . S
C717 H720 0.950 . S
C718 C717 1.387 . S
C718 C721 1.387 . S
H719 C715 0.950 . S
H720 C717 0.950 . S
C721 C712 1.390 . S
C721 H714 0.950 . S
C721 C718 1.387 . S
C722 C723 1.387 . S
C722 H726 0.950 . S
C722 C731 1.390 . S
C723 C722 1.387 . S
C723 C725 1.387 . S
H724 C731 0.950 . S
C725 C723 1.387 . S
C725 C727 1.390 . S
C725 H729 0.950 . S
H726 C722 0.950 . S
C727 C725 1.390 . S
C727 C728 1.387 . S
C727 H730 0.950 . S
C728 C727 1.387 . S
C728 C731 1.387 . S
H729 C725 0.950 . S
H730 C727 0.950 . S
C731 C722 1.390 . S
C731 H724 0.950 . S
C731 C728 1.387 . S
C732 C733 1.387 . S
C732 H736 0.950 . S
C732 C741 1.390 . S
C733 C732 1.387 . S
C733 C735 1.387 . S
H734 C741 0.950 . S
C735 C733 1.387 . S
C735 C737 1.390 . S
C735 H739 0.950 . S
H736 C732 0.950 . S
C737 C735 1.390 . S
C737 C738 1.387 . S
C737 H740 0.950 . S
C738 C737 1.387 . S
C738 C741 1.387 . S
H739 C735 0.950 . S
H740 C737 0.950 . S
C741 C732 1.390 . S
C741 H734 0.950 . S
C741 C738 1.387 . S
C742 C743 1.387 . S
C742 H746 0.950 . S
C742 C751 1.390 . S
C743 C742 1.387 . S
C743 C745 1.387 . S
H744 C751 0.950 . S
C745 C743 1.387 . S
C745 C747 1.390 . S
C745 H749 0.950 . S
H746 C742 0.950 . S
C747 C745 1.390 . S
C747 C748 1.387 . S
C747 H750 0.950 . S
C748 C747 1.387 . S
C748 C751 1.387 . S
H749 C745 0.950 . S
H750 C747 0.950 . S
C751 C742 1.390 . S
C751 H744 0.950 . S
C751 C748 1.387 . S
C752 C753 1.387 . S
C752 H756 0.950 . S
C752 C761 1.390 . S
C753 C752 1.387 . S
C753 C755 1.387 . S
H754 C761 0.950 . S
C755 C753 1.387 . S
C755 C757 1.390 . S
C755 H759 0.950 . S
H756 C752 0.950 . S
C757 C755 1.390 . S
C757 C758 1.387 . S
C757 H760 0.950 . S
C758 C757 1.387 . S
C758 C761 1.387 . S
H759 C755 0.950 . S
H760 C757 0.950 . S
C761 C752 1.390 . S
C761 H754 0.950 . S
C761 C758 1.387 . S
C762 C763 1.387 1_545 S
C762 H766 0.950 . S
C762 C771 1.390 . S
C763 C762 1.387 1_565 S
C763 C765 1.387 . S
H764 C771 0.950 . S
C765 C763 1.387 . S
C765 C767 1.390 . S
C765 H769 0.950 . S
H766 C762 0.950 . S
C767 C765 1.390 . S
C767 C768 1.387 . S
C767 H770 0.950 . S
C768 C767 1.387 . S
C768 C771 1.387 1_565 S
H769 C765 0.950 . S
H770 C767 0.950 . S
C771 C762 1.390 . S
C771 H764 0.950 . S
C771 C768 1.387 1_545 S
C772 C773 1.387 . S
C772 H776 0.950 . S
C772 C781 1.390 . S
C773 C772 1.387 . S
C773 C775 1.387 . S
H774 C781 0.950 . S
C775 C773 1.387 . S
C775 C777 1.390 . S
C775 H779 0.950 . S
H776 C772 0.950 . S
C777 C775 1.390 . S
C777 C778 1.387 . S
C777 H780 0.950 . S
C778 C777 1.387 . S
C778 C781 1.387 . S
H779 C775 0.950 . S
H780 C777 0.950 . S
C781 C772 1.390 . S
C781 H774 0.950 . S
C781 C778 1.387 . S
C782 C783 1.387 . S
C782 H786 0.950 . S
C782 C791 1.390 . S
C783 C782 1.387 . S
C783 C785 1.387 1_545 S
H784 C791 0.950 . S
C785 C783 1.387 1_565 S
C785 C787 1.390 . S
C785 H789 0.950 . S
H786 C782 0.950 . S
C787 C785 1.390 . S
C787 C788 1.387 1_565 S
C787 H790 0.950 . S
C788 C787 1.387 1_545 S
C788 C791 1.387 . S
H789 C785 0.950 . S
H790 C787 0.950 . S
C791 C782 1.390 . S
C791 H784 0.950 . S
C791 C788 1.387 . S
C792 C793 1.387 . S
C792 H796 0.950 . S
C792 C801 1.390 . S
C793 C792 1.387 . S
C793 C795 1.387 . S
H794 C801 0.950 . S
C795 C793 1.387 . S
C795 C797 1.390 . S
C795 H799 0.950 . S
H796 C792 0.950 . S
C797 C795 1.390 . S
C797 C798 1.387 . S
C797 H800 0.950 . S
C798 C797 1.387 . S
C798 C801 1.387 . S
H799 C795 0.950 . S
H800 C797 0.950 . S
C801 C792 1.390 . S
C801 H794 0.950 . S
C801 C798 1.387 . S
C802 C803 1.387 1_554 S
C802 H806 0.950 . S
C802 C811 1.390 . S
C803 C802 1.387 1_556 S
C803 C805 1.387 . S
H804 C811 0.950 . S
C805 C803 1.387 . S
C805 C807 1.390 . S
C805 H809 0.950 . S
H806 C802 0.950 . S
C807 C805 1.390 . S
C807 C808 1.387 . S
C807 H810 0.950 . S
C808 C807 1.387 . S
C808 C811 1.387 1_556 S
H809 C805 0.950 . S
H810 C807 0.950 . S
C811 C802 1.390 . S
C811 H804 0.950 . S
C811 C808 1.387 1_554 S
C812 C813 1.387 1_556 S
C812 H816 0.950 . S
C812 C821 1.390 . S
C813 C812 1.387 1_554 S
C813 C815 1.387 . S
H814 C821 0.950 . S
C815 C813 1.387 . S
C815 C817 1.390 . S
C815 H819 0.950 . S
H816 C812 0.950 . S
C817 C815 1.390 . S
C817 C818 1.387 . S
C817 H820 0.950 . S
C818 C817 1.387 . S
C818 C821 1.387 1_554 S
H819 C815 0.950 . S
H820 C817 0.950 . S
C821 C812 1.390 . S
C821 H814 0.950 . S
C821 C818 1.387 1_556 S
C822 C823 1.387 . S
C822 H826 0.950 . S
C822 C831 1.390 . S
C823 C822 1.387 . S
C823 C825 1.387 1_554 S
H824 C831 0.950 . S
C825 C823 1.387 1_556 S
C825 C827 1.390 . S
C825 H829 0.950 . S
H826 C822 0.950 . S
C827 C825 1.390 . S
C827 C828 1.387 1_556 S
C827 H830 0.950 . S
C828 C827 1.387 1_554 S
C828 C831 1.387 . S
H829 C825 0.950 . S
H830 C827 0.950 . S
C831 C822 1.390 . S
C831 H824 0.950 . S
C831 C828 1.387 . S
C353 C13 1.605 . S
C358 C231 1.598 . S
C368 C257 1.644 1_655 S
C363 C1 1.673 . S
C378 C189 1.660 . S
C373 C27 1.633 . S
C383 C15 1.444 . S
C388 C212 1.463 . S
C393 C28 1.552 . S
C398 C346 1.544 . S
C403 C55 1.441 . S
C408 C327 1.462 . S
C418 C280 1.648 . S
C413 C40 1.693 . S
C423 C43 1.730 . S
C428 C303 1.704 . S
C438 C208 1.678 . S
C433 C56 1.695 . S
C448 C258 1.476 . S
C443 C83 1.456 . S
C453 C96 1.618 . S
C458 C234 1.583 . S
C463 C71 1.701 . S
C468 C300 1.677 . S
C478 C323 1.597 . S
C473 C99 1.606 . S
C488 C349 1.647 . S
C483 C111 1.673 . S
C493 C113 1.634 . S
C498 C304 1.660 . S
C508 C281 1.463 . S
C503 C125 1.446 . S
C513 C139 1.554 . S
C518 C254 1.543 . S
C523 C153 1.441 1_565 S
C528 C235 1.462 . S
C538 C211 1.648 . S
C533 C127 1.694 . S
C543 C141 1.731 . S
C548 C188 1.705 . S
C558 C277 1.677 . S
C553 C84 1.694 . S
C568 C350 1.476 . S
C563 C154 1.457 . S
C573 C68 1.619 . S
C578 C326 1.580 . S
C583 C166 1.699 . S
C588 C185 1.677 . S
C598 C187 1.339 . S
C593 C0 1.420 . S
C603 C12 1.545 . S
C608 C210 1.431 1_455 S
C618 C232 1.318 . S
C613 C14 1.300 . S
C628 C253 1.382 1_455 S
C623 C26 1.392 . S
C633 C41 1.459 . S
C638 C184 1.445 . S
C643 C42 1.449 . S
C648 C207 1.438 . S
C658 C233 1.417 . S
C653 C29 1.524 . S
C663 C54 1.393 . S
C668 C255 1.410 . S
C673 C69 1.339 . S
C678 C186 1.351 . S
C688 C230 1.396 . S
C683 C70 1.408 . S
C693 C85 1.478 . S
C698 C256 1.395 . S
C703 C82 1.278 . S
C708 C278 1.288 . S
C718 C302 1.339 . S
C713 C110 1.420 . S
C723 C98 1.546 . S
C728 C279 1.428 . S
C733 C124 1.300 . S
C738 C324 1.318 . S
C743 C112 1.392 . S
C748 C345 1.382 . S
C753 C126 1.460 . S
C758 C299 1.445 . S
C768 C276 1.436 . S
C763 C140 1.451 1_565 S
C773 C138 1.527 . S
C778 C325 1.417 . S
C788 C347 1.409 . S
C783 C152 1.390 . S
C798 C301 1.351 . S
C793 C97 1.336 . S
C808 C322 1.396 . S
C803 C167 1.408 . S
C818 C348 1.395 1_554 S
C813 C57 1.478 . S
C823 C155 1.275 . S
C828 C209 1.287 . S
