# Generated by pormake.
# Topology tph, (6,8)-cn, num edge types: 1
# Building blocks:
#     Node 0, Type 0, BuildingBlock: IZENUY_clean_sbu_0, # of connection points: 6
#     Node 1, Type 0, BuildingBlock: IZENUY_clean_sbu_0, # of connection points: 6
#     Node 2, Type 0, BuildingBlock: IZENUY_clean_sbu_0, # of connection points: 6
#     Node 3, Type 0, BuildingBlock: IZENUY_clean_sbu_0, # of connection points: 6
#     Node 4, Type 0, BuildingBlock: IZENUY_clean_sbu_0, # of connection points: 6
#     Node 5, Type 0, BuildingBlock: IZENUY_clean_sbu_0, # of connection points: 6
#     Node 6, Type 0, BuildingBlock: IZENUY_clean_sbu_0, # of connection points: 6
#     Node 7, Type 0, BuildingBlock: IZENUY_clean_sbu_0, # of connection points: 6
#     Node 8, Type 0, BuildingBlock: IZENUY_clean_sbu_0, # of connection points: 6
#     Node 9, Type 0, BuildingBlock: IZENUY_clean_sbu_0, # of connection points: 6
#     Node 10, Type 0, BuildingBlock: IZENUY_clean_sbu_0, # of connection points: 6
#     Node 11, Type 0, BuildingBlock: IZENUY_clean_sbu_0, # of connection points: 6
#     Node 12, Type 0, BuildingBlock: IZENUY_clean_sbu_0, # of connection points: 6
#     Node 13, Type 0, BuildingBlock: IZENUY_clean_sbu_0, # of connection points: 6
#     Node 14, Type 0, BuildingBlock: IZENUY_clean_sbu_0, # of connection points: 6
#     Node 15, Type 0, BuildingBlock: IZENUY_clean_sbu_0, # of connection points: 6
#     Node 16, Type 1, BuildingBlock: TAGTUT_clean_sbu_3, # of connection points: 8
#     Node 17, Type 1, BuildingBlock: TAGTUT_clean_sbu_3, # of connection points: 8
#     Node 18, Type 1, BuildingBlock: TAGTUT_clean_sbu_3, # of connection points: 8
#     Node 19, Type 1, BuildingBlock: TAGTUT_clean_sbu_3, # of connection points: 8
#     Node 20, Type 1, BuildingBlock: TAGTUT_clean_sbu_3, # of connection points: 8
#     Node 21, Type 1, BuildingBlock: TAGTUT_clean_sbu_3, # of connection points: 8
#     Node 22, Type 1, BuildingBlock: TAGTUT_clean_sbu_3, # of connection points: 8
#     Node 23, Type 1, BuildingBlock: TAGTUT_clean_sbu_3, # of connection points: 8
#     Node 24, Type 1, BuildingBlock: TAGTUT_clean_sbu_3, # of connection points: 8
#     Node 25, Type 1, BuildingBlock: TAGTUT_clean_sbu_3, # of connection points: 8
#     Node 26, Type 1, BuildingBlock: TAGTUT_clean_sbu_3, # of connection points: 8
#     Node 27, Type 1, BuildingBlock: TAGTUT_clean_sbu_3, # of connection points: 8
#     Edge 28, Type (0, 1), None
#     Edge 29, Type (0, 1), None
#     Edge 30, Type (0, 1), None
#     Edge 31, Type (0, 1), None
#     Edge 32, Type (0, 1), None
#     Edge 33, Type (0, 1), None
#     Edge 34, Type (0, 1), None
#     Edge 35, Type (0, 1), None
#     Edge 36, Type (0, 1), None
#     Edge 37, Type (0, 1), None
#     Edge 38, Type (0, 1), None
#     Edge 39, Type (0, 1), None
#     Edge 40, Type (0, 1), None
#     Edge 41, Type (0, 1), None
#     Edge 42, Type (0, 1), None
#     Edge 43, Type (0, 1), None
#     Edge 44, Type (0, 1), None
#     Edge 45, Type (0, 1), None
#     Edge 46, Type (0, 1), None
#     Edge 47, Type (0, 1), None
#     Edge 48, Type (0, 1), None
#     Edge 49, Type (0, 1), None
#     Edge 50, Type (0, 1), None
#     Edge 51, Type (0, 1), None
#     Edge 52, Type (0, 1), None
#     Edge 53, Type (0, 1), None
#     Edge 54, Type (0, 1), None
#     Edge 55, Type (0, 1), None
#     Edge 56, Type (0, 1), None
#     Edge 57, Type (0, 1), None
#     Edge 58, Type (0, 1), None
#     Edge 59, Type (0, 1), None
#     Edge 60, Type (0, 1), None
#     Edge 61, Type (0, 1), None
#     Edge 62, Type (0, 1), None
#     Edge 63, Type (0, 1), None
#     Edge 64, Type (0, 1), None
#     Edge 65, Type (0, 1), None
#     Edge 66, Type (0, 1), None
#     Edge 67, Type (0, 1), None
#     Edge 68, Type (0, 1), None
#     Edge 69, Type (0, 1), None
#     Edge 70, Type (0, 1), None
#     Edge 71, Type (0, 1), None
#     Edge 72, Type (0, 1), None
#     Edge 73, Type (0, 1), None
#     Edge 74, Type (0, 1), None
#     Edge 75, Type (0, 1), None
#     Edge 76, Type (0, 1), None
#     Edge 77, Type (0, 1), None
#     Edge 78, Type (0, 1), None
#     Edge 79, Type (0, 1), None
#     Edge 80, Type (0, 1), None
#     Edge 81, Type (0, 1), None
#     Edge 82, Type (0, 1), None
#     Edge 83, Type (0, 1), None
#     Edge 84, Type (0, 1), None
#     Edge 85, Type (0, 1), None
#     Edge 86, Type (0, 1), None
#     Edge 87, Type (0, 1), None
#     Edge 88, Type (0, 1), None
#     Edge 89, Type (0, 1), None
#     Edge 90, Type (0, 1), None
#     Edge 91, Type (0, 1), None
#     Edge 92, Type (0, 1), None
#     Edge 93, Type (0, 1), None
#     Edge 94, Type (0, 1), None
#     Edge 95, Type (0, 1), None
#     Edge 96, Type (0, 1), None
#     Edge 97, Type (0, 1), None
#     Edge 98, Type (0, 1), None
#     Edge 99, Type (0, 1), None
#     Edge 100, Type (0, 1), None
#     Edge 101, Type (0, 1), None
#     Edge 102, Type (0, 1), None
#     Edge 103, Type (0, 1), None
#     Edge 104, Type (0, 1), None
#     Edge 105, Type (0, 1), None
#     Edge 106, Type (0, 1), None
#     Edge 107, Type (0, 1), None
#     Edge 108, Type (0, 1), None
#     Edge 109, Type (0, 1), None
#     Edge 110, Type (0, 1), None
#     Edge 111, Type (0, 1), None
#     Edge 112, Type (0, 1), None
#     Edge 113, Type (0, 1), None
#     Edge 114, Type (0, 1), None
#     Edge 115, Type (0, 1), None
#     Edge 116, Type (0, 1), None
#     Edge 117, Type (0, 1), None
#     Edge 118, Type (0, 1), None
#     Edge 119, Type (0, 1), None
#     Edge 120, Type (0, 1), None
#     Edge 121, Type (0, 1), None
#     Edge 122, Type (0, 1), None
#     Edge 123, Type (0, 1), None
# Relax obj value: 0.200
# Max RMSD: 0.263
# Mean RMSD: 0.257
data_MOF--net-tph--node1-IZENUY_clean_sbu_0--node2-TAGTUT_clean_sbu_3--edge1-none
_symmetry_space_group_name_H-M    P1
_symmetry_Int_Tables_number       1
_symmetry_cell_setting            triclinic
loop_
_symmetry_equiv_pos_as_xyz
'x, y, z'
_cell_length_a     23.556073
_cell_length_b     23.605345
_cell_length_c     23.405512
_cell_angle_alpha  88.202995
_cell_angle_beta   90.777136
_cell_angle_gamma 87.543047
loop_
_atom_site_label
_atom_site_type_symbol
_atom_site_fract_x
_atom_site_fract_y
_atom_site_fract_z
_atom_type_partial_charge
Fe0 Fe 0.21662 0.23982 0.15168 0.0
Fe1 Fe 0.12837 0.24153 0.24726 0.0
O2 O 0.19049 0.21114 0.21671 0.0
Fe3 Fe 0.22361 0.14947 0.24879 0.0
O4 O 0.21076 0.10957 0.18649 0.0
O5 O 0.24456 0.17151 0.1252 0.0
O6 O 0.15287 0.2247 0.11656 0.0
C7 C 0.10449 0.24314 0.12924 0.0
C8 C 0.31606 0.21033 0.20073 0.0
O9 O 0.09413 0.26388 0.17756 0.0
C10 C 0.19715 0.20033 0.34552 0.0
O11 O 0.18926 0.31426 0.16476 0.0
O12 O 0.16088 0.30843 0.25391 0.0
O13 O 0.29487 0.16723 0.22474 0.0
O14 O 0.28519 0.25269 0.18273 0.0
C15 C 0.10769 0.13097 0.25838 0.0
O16 O 0.15013 0.21969 0.323 0.0
O17 O 0.23747 0.18573 0.31379 0.0
C18 C 0.16826 0.33758 0.20868 0.0
O19 O 0.09195 0.17875 0.23898 0.0
O20 O 0.15779 0.12001 0.27666 0.0
C21 C 0.22992 0.12194 0.13832 0.0
Fe22 Fe 0.50839 0.56137 0.13866 0.0
Fe23 Fe 0.47295 0.636 0.03043 0.0
O24 O 0.45964 0.58006 0.08016 0.0
Fe25 Fe 0.39281 0.55013 0.08242 0.0
O26 O 0.3871 0.58068 0.15081 0.0
O27 O 0.4554 0.53339 0.18986 0.0
O28 O 0.49453 0.62952 0.16693 0.0
C29 C 0.48931 0.67659 0.14008 0.0
C30 C 0.47796 0.4562 0.11437 0.0
O31 O 0.49982 0.68177 0.08684 0.0
C32 C 0.40881 0.55416 0.96561 0.0
O33 O 0.57209 0.58887 0.10218 0.0
O34 O 0.54242 0.60639 0.01459 0.0
O35 O 0.42659 0.47763 0.10694 0.0
O36 O 0.51977 0.48931 0.11338 0.0
C37 C 0.36392 0.66455 0.0621 0.0
O38 O 0.44138 0.59658 0.97012 0.0
O39 O 0.39378 0.52585 0.00945 0.0
C40 C 0.58125 0.60793 0.05192 0.0
O41 O 0.41026 0.67625 0.0421 0.0
O42 O 0.34861 0.61403 0.06275 0.0
C43 C 0.40578 0.55438 0.19318 0.0
Fe44 Fe 0.76747 0.2727 0.12109 0.0
Fe45 Fe 0.86486 0.27149 0.2076 0.0
O46 O 0.80225 0.30477 0.17802 0.0
Fe47 Fe 0.77443 0.36976 0.20559 0.0
O48 O 0.78302 0.40589 0.13922 0.0
O49 O 0.74388 0.34278 0.08515 0.0
O50 O 0.82766 0.27527 0.07657 0.0
C51 C 0.8723 0.24618 0.08713 0.0
C52 C 0.67503 0.31351 0.1685 0.0
O53 O 0.8895 0.23775 0.13894 0.0
C54 C 0.81025 0.32253 0.30532 0.0
O55 O 0.78882 0.19744 0.1465 0.0
O56 O 0.82718 0.21068 0.2301 0.0
O57 O 0.6984 0.35751 0.18606 0.0
O58 O 0.70426 0.26873 0.16178 0.0
C59 C 0.8941 0.37877 0.20936 0.0
O60 O 0.85247 0.29849 0.28067 0.0
O61 O 0.76622 0.33926 0.27683 0.0
C62 C 0.80989 0.17731 0.19411 0.0
O63 O 0.90491 0.33146 0.18801 0.0
O64 O 0.84485 0.39399 0.22564 0.0
C65 C 0.75753 0.39371 0.09455 0.0
Fe66 Fe 0.53515 0.93794 0.14844 0.0
Fe67 Fe 0.58029 0.86798 0.04877 0.0
O68 O 0.58466 0.92837 0.09242 0.0
Fe69 Fe 0.64081 0.97597 0.08345 0.0
O70 O 0.64787 0.98652 0.15994 0.0
O71 O 0.59074 0.92901 0.20279 0.0
O72 O 0.52591 0.86281 0.15834 0.0
C73 C 0.5652 0.82521 0.15615 0.0
C74 C 0.55622 0.05292 0.11403 0.0
O75 O 0.59091 0.81884 0.1102 0.0
C76 C 0.61007 0.94904 0.96779 0.0
O77 O 0.47712 0.94286 0.09614 0.0
O78 O 0.50033 0.86535 0.04923 0.0
O79 O 0.59004 0.03613 0.07535 0.0
O80 O 0.53617 0.01719 0.14924 0.0
C81 C 0.69426 0.87143 0.076 0.0
O82 O 0.57411 0.91377 0.98537 0.0
O83 O 0.64334 0.97186 1.00313 0.0
C84 C 0.46309 0.90289 0.06364 0.0
O85 O 0.65649 0.86 0.04017 0.0
O86 O 0.6952 0.91998 0.09575 0.0
C87 C 0.6383 0.9507 0.19955 0.0
Fe88 Fe 0.21014 0.88027 0.25862 0.0
Fe89 Fe 0.20909 0.80076 0.36282 0.0
O90 O 0.18282 0.82153 0.29458 0.0
Fe91 Fe 0.12779 0.78351 0.26195 0.0
O92 O 0.08051 0.84258 0.26365 0.0
O93 O 0.1385 0.9045 0.22657 0.0
O94 O 0.1921 0.92791 0.31267 0.0
C95 C 0.21127 0.92084 0.36203 0.0
C96 C 0.19258 0.82526 0.16793 0.0
O97 O 0.22591 0.87248 0.38333 0.0
C98 C 0.18629 0.69659 0.30939 0.0
O99 O 0.28445 0.86664 0.28767 0.0
O100 O 0.28039 0.7874 0.3399 0.0
O101 O 0.14712 0.8045 0.18644 0.0
O102 O 0.23042 0.83526 0.20277 0.0
C103 C 0.09935 0.78444 0.3781 0.0
O104 O 0.19677 0.72496 0.35328 0.0
O105 O 0.17246 0.72031 0.26169 0.0
C106 C 0.30876 0.82603 0.31787 0.0
O107 O 0.14021 0.81446 0.38961 0.0
O108 O 0.09572 0.76031 0.33064 0.0
C109 C 0.0885 0.88928 0.23955 0.0
Fe110 Fe 0.13346 0.50492 0.95681 0.0
Fe111 Fe 0.03649 0.54851 0.87202 0.0
O112 O 0.07929 0.55722 0.93381 0.0
Fe113 Fe 0.07877 0.62357 0.96511 0.0
O114 O 0.14793 0.62754 0.93611 0.0
O115 O 0.18535 0.55656 0.98312 0.0
O116 O 0.1679 0.51176 0.89034 0.0
C117 C 0.1464 0.52335 0.84201 0.0
C118 C 0.10872 0.54078 0.06194 0.0
O119 O 0.09444 0.5141 0.83216 0.0
C120 C 0.96447 0.61106 0.95232 0.0
O121 O 0.09154 0.44437 0.93143 0.0
O122 O 0.01051 0.4839 0.90023 0.0
O123 O 0.10244 0.59152 0.03911 0.0
O124 O 0.10498 0.49873 0.02915 0.0
C125 C 0.07102 0.6547 0.84929 0.0
O126 O 0.97476 0.5872 0.90448 0.0
O127 O 0.00461 0.62106 0.98717 0.0
C128 C 0.04261 0.44053 0.90747 0.0
O129 O 0.05991 0.60732 0.83407 0.0
O130 O 0.06019 0.66834 0.90012 0.0
C131 C 0.18978 0.6057 0.96114 0.0
Fe132 Fe 0.7763 0.64252 0.28791 0.0
Fe133 Fe 0.87028 0.72977 0.30042 0.0
O134 O 0.80564 0.70024 0.32461 0.0
Fe135 Fe 0.77112 0.72729 0.38602 0.0
O136 O 0.70476 0.7416 0.34831 0.0
O137 O 0.69951 0.66001 0.3076 0.0
O138 O 0.76949 0.68321 0.22136 0.0
C139 C 0.81457 0.69596 0.19592 0.0
C140 C 0.75663 0.60608 0.39447 0.0
O141 O 0.85617 0.71484 0.22397 0.0
C142 C 0.87659 0.74292 0.42322 0.0
O143 O 0.84667 0.61139 0.2654 0.0
O144 O 0.90928 0.66218 0.30925 0.0
O145 O 0.74757 0.65616 0.41246 0.0
O146 O 0.78329 0.59754 0.3495 0.0
C147 C 0.81938 0.82684 0.33042 0.0
O148 O 0.89612 0.75064 0.37314 0.0
O149 O 0.83312 0.7149 0.43017 0.0
C150 C 0.89802 0.62098 0.27838 0.0
O151 O 0.83743 0.7992 0.28888 0.0
O152 O 0.79146 0.80247 0.37025 0.0
C153 C 0.67557 0.70059 0.33478 0.0
Fe154 Fe 0.87749 0.98744 0.96956 0.0
Fe155 Fe 0.96517 0.93306 0.89153 0.0
O156 O 0.93586 0.93913 0.95902 0.0
Fe157 Fe 0.95788 0.88437 0.01209 0.0
O158 O 0.89187 0.8527 1.00366 0.0
O159 O 0.83327 0.92882 0.9988 0.0
O160 O 0.83808 0.97331 0.90787 0.0
C161 C 0.85002 0.94941 0.86325 0.0
C162 C 0.90674 0.97256 0.07936 0.0
O163 O 0.90074 0.94724 0.84692 0.0
C164 C 0.06143 0.90795 0.97544 0.0
O165 O 0.9153 0.0487 0.93383 0.0
O166 O 0.98617 0.00647 0.88545 0.0
O167 O 0.92898 0.92319 0.07397 0.0
O168 O 0.90553 0.00703 0.03748 0.0
C169 C 0.96525 0.82432 0.91384 0.0
O170 O 0.03896 0.91248 0.92441 0.0
O171 O 0.02881 0.91212 0.01864 0.0
C172 C 0.95866 0.05129 0.90025 0.0
O173 O 0.93629 0.86448 0.89421 0.0
O174 O 0.98754 0.8311 0.96188 0.0
C175 C 0.84341 0.87523 0.99295 0.0
Fe176 Fe 0.37747 0.48743 0.46954 0.0
Fe177 Fe 0.46515 0.43303 0.39152 0.0
O178 O 0.43584 0.43911 0.45901 0.0
Fe179 Fe 0.45785 0.38435 0.51208 0.0
O180 O 0.39184 0.35268 0.50364 0.0
O181 O 0.33324 0.4288 0.49876 0.0
O182 O 0.33807 0.47333 0.40783 0.0
C183 C 0.35 0.44939 0.36324 0.0
C184 C 0.40668 0.47252 0.57935 0.0
O185 O 0.40072 0.44718 0.34691 0.0
C186 C 0.5614 0.40794 0.47544 0.0
O187 O 0.4153 0.54869 0.43383 0.0
O188 O 0.48614 0.50644 0.38542 0.0
O189 O 0.42894 0.42316 0.57395 0.0
O190 O 0.40548 0.507 0.53748 0.0
C191 C 0.46523 0.32429 0.41384 0.0
O192 O 0.53894 0.41246 0.42441 0.0
O193 O 0.52878 0.4121 0.51864 0.0
C194 C 0.45864 0.55127 0.40024 0.0
O195 O 0.43627 0.36445 0.39421 0.0
O196 O 0.48752 0.33108 0.46188 0.0
C197 C 0.34338 0.37522 0.49291 0.0
Fe198 Fe 0.26746 0.77268 0.62105 0.0
Fe199 Fe 0.27447 0.86974 0.70554 0.0
O200 O 0.30226 0.80474 0.67798 0.0
Fe201 Fe 0.36485 0.77142 0.70758 0.0
O202 O 0.32712 0.71063 0.73007 0.0
O203 O 0.28879 0.69741 0.64645 0.0
O204 O 0.20425 0.76872 0.66175 0.0
C205 C 0.17503 0.81352 0.66849 0.0
C206 C 0.37229 0.74614 0.58711 0.0
O207 O 0.19843 0.85752 0.68602 0.0
C208 C 0.39415 0.8787 0.70931 0.0
O209 O 0.24387 0.84276 0.58511 0.0
O210 O 0.28307 0.90585 0.63916 0.0
O211 O 0.38947 0.73767 0.63891 0.0
O212 O 0.32765 0.77523 0.57653 0.0
C213 C 0.31026 0.82252 0.80529 0.0
O214 O 0.3449 0.89395 0.72557 0.0
O215 O 0.40495 0.83136 0.68799 0.0
C216 C 0.25757 0.89368 0.59449 0.0
O217 O 0.26625 0.83928 0.77679 0.0
O218 O 0.35246 0.79844 0.78064 0.0
C219 C 0.30981 0.67726 0.69408 0.0
Fe220 Fe 0.0803 0.368 0.54877 0.0
Fe221 Fe 0.14081 0.47599 0.58345 0.0
O222 O 0.08466 0.42838 0.59242 0.0
Fe223 Fe 0.03515 0.43795 0.64845 0.0
O224 O 0.02594 0.36282 0.65835 0.0
O225 O 0.09092 0.31885 0.6102 0.0
O226 O 0.1565 0.36003 0.54016 0.0
C227 C 0.19426 0.37146 0.57599 0.0
C228 C 0.96309 0.40288 0.56366 0.0
O229 O 0.1952 0.41999 0.59575 0.0
C230 C 0.05621 0.55294 0.61402 0.0
O231 O 0.07411 0.41379 0.48538 0.0
O232 O 0.14334 0.47187 0.50313 0.0
O233 O 0.97712 0.44285 0.59615 0.0
O234 O 1.00033 0.36535 0.54924 0.0
C235 C 0.1383 0.45076 0.69955 0.0
O236 O 0.09003 0.53615 0.57534 0.0
O237 O 0.03616 0.51721 0.64923 0.0
C238 C 0.11007 0.44905 0.4678 0.0
O239 O 0.14787 0.48656 0.65994 0.0
O240 O 0.09075 0.42905 0.70279 0.0
C241 C 0.06523 0.32522 0.65616 0.0
Fe242 Fe 0.00839 0.06139 0.63864 0.0
Fe243 Fe 0.97294 0.13603 0.53042 0.0
O244 O 0.95963 0.08008 0.58014 0.0
Fe245 Fe 0.8928 0.05016 0.58241 0.0
O246 O 0.8871 0.08072 0.65079 0.0
O247 O 0.9554 0.03342 0.68984 0.0
O248 O 0.99454 0.12954 0.66691 0.0
C249 C 0.98932 0.17662 0.64007 0.0
C250 C 0.97795 0.95622 0.61436 0.0
O251 O 0.99982 0.18179 0.58682 0.0
C252 C 0.90879 0.05419 0.4656 0.0
O253 O 0.07208 0.08888 0.60215 0.0
O254 O 0.0424 0.10642 0.51457 0.0
O255 O 0.92657 0.97766 0.60694 0.0
O256 O 0.01976 0.98933 0.61336 0.0
C257 C 0.86391 0.16458 0.56211 0.0
O258 O 0.94135 0.09662 0.47011 0.0
O259 O 0.89377 0.02587 0.50944 0.0
C260 C 0.08123 0.10794 0.55189 0.0
O261 O 0.91024 0.17628 0.54212 0.0
O262 O 0.8486 0.11405 0.56273 0.0
C263 C 0.90578 0.05442 0.69317 0.0
Fe264 Fe 0.71659 0.73981 0.65171 0.0
Fe265 Fe 0.7236 0.64948 0.74885 0.0
O266 O 0.69046 0.71113 0.71675 0.0
Fe267 Fe 0.62834 0.74151 0.7473 0.0
O268 O 0.66083 0.80842 0.75394 0.0
O269 O 0.68921 0.81425 0.66479 0.0
O270 O 0.78516 0.75269 0.68275 0.0
C271 C 0.81604 0.71034 0.70076 0.0
C272 C 0.60446 0.74312 0.62927 0.0
O273 O 0.79485 0.66724 0.72478 0.0
C274 C 0.60769 0.63096 0.75845 0.0
O275 O 0.74453 0.67149 0.62525 0.0
O276 O 0.71075 0.60955 0.68656 0.0
O277 O 0.59409 0.76385 0.67759 0.0
O278 O 0.65283 0.72467 0.6166 0.0
C279 C 0.69714 0.70037 0.84555 0.0
O280 O 0.65779 0.62001 0.77673 0.0
O281 O 0.59194 0.67873 0.73903 0.0
C282 C 0.7299 0.62192 0.63839 0.0
O283 O 0.73746 0.68577 0.81383 0.0
O284 O 0.65011 0.71969 0.82304 0.0
C285 C 0.66821 0.83755 0.70871 0.0
Fe286 Fe 0.71015 0.38028 0.75865 0.0
Fe287 Fe 0.70912 0.30075 0.86283 0.0
O288 O 0.68284 0.32153 0.7946 0.0
Fe289 Fe 0.6278 0.28352 0.76198 0.0
O290 O 0.58052 0.34259 0.76369 0.0
O291 O 0.63851 0.40452 0.72662 0.0
O292 O 0.69211 0.4279 0.81272 0.0
C293 C 0.7113 0.42082 0.86207 0.0
C294 C 0.69257 0.3253 0.66795 0.0
O295 O 0.72595 0.37246 0.88336 0.0
C296 C 0.6863 0.19659 0.8094 0.0
O297 O 0.78446 0.36665 0.78769 0.0
O298 O 0.78042 0.2874 0.83989 0.0
O299 O 0.64712 0.30452 0.68646 0.0
O300 O 0.73042 0.3353 0.70278 0.0
C301 C 0.59939 0.28443 0.87813 0.0
O302 O 0.69679 0.22496 0.85328 0.0
O303 O 0.67246 0.22031 0.7617 0.0
C304 C 0.80878 0.32603 0.81787 0.0
O305 O 0.64025 0.31444 0.88964 0.0
O306 O 0.59574 0.26031 0.83066 0.0
C307 C 0.58851 0.38929 0.7396 0.0
Fe308 Fe 0.63342 0.0049 0.45683 0.0
Fe309 Fe 0.53646 0.04849 0.37203 0.0
O310 O 0.57925 0.0572 0.43382 0.0
Fe311 Fe 0.57873 0.12354 0.46513 0.0
O312 O 0.64789 0.12752 0.43616 0.0
O313 O 0.6853 0.05654 0.48316 0.0
O314 O 0.66787 0.01175 0.39036 0.0
C315 C 0.64637 0.02331 0.34202 0.0
C316 C 0.60863 0.04074 0.56196 0.0
O317 O 0.59441 0.01405 0.33219 0.0
C318 C 0.46443 0.11106 0.45231 0.0
O319 O 0.5915 0.94435 0.43143 0.0
O320 O 0.51046 0.98389 0.40025 0.0
O321 O 0.60237 0.09149 0.53914 0.0
O322 O 0.60491 0.9987 0.52916 0.0
C323 C 0.57101 0.15468 0.34931 0.0
O324 O 0.47474 0.0872 0.40447 0.0
O325 O 0.50456 0.12104 0.48718 0.0
C326 C 0.54256 0.94052 0.40749 0.0
O327 O 0.55991 0.1073 0.33409 0.0
O328 O 0.56016 0.16832 0.40013 0.0
C329 C 0.68973 0.10568 0.4612 0.0
Fe330 Fe 0.27631 0.1425 0.78791 0.0
Fe331 Fe 0.37031 0.22974 0.80043 0.0
O332 O 0.30566 0.20021 0.82462 0.0
Fe333 Fe 0.27115 0.22725 0.88604 0.0
O334 O 0.20479 0.24157 0.84834 0.0
O335 O 0.19953 0.15999 0.80761 0.0
O336 O 0.2695 0.1832 0.72137 0.0
C337 C 0.31458 0.19595 0.69593 0.0
C338 C 0.25665 0.10603 0.89447 0.0
O339 O 0.35619 0.21482 0.72398 0.0
C340 C 0.37662 0.24287 0.92322 0.0
O341 O 0.34668 0.11136 0.76539 0.0
O342 O 0.4093 0.16214 0.80925 0.0
O343 O 0.2476 0.15611 0.91247 0.0
O344 O 0.28332 0.09751 0.84949 0.0
C345 C 0.31941 0.3268 0.83044 0.0
O346 O 0.39615 0.2506 0.87314 0.0
O347 O 0.33315 0.21485 0.93018 0.0
C348 C 0.39803 0.12094 0.77838 0.0
O349 O 0.33746 0.29917 0.7889 0.0
O350 O 0.29149 0.30243 0.87028 0.0
C351 C 0.17559 0.20057 0.8348 0.0
C352 C 0.11826 0.19526 0.86288 0.0
C353 C 0.06339 0.24217 0.08359 0.0
C354 C 0.90524 0.22972 0.03645 0.0
Mg355 Mg 0.04605 0.17138 0.76347 0.0
Mg356 Mg 0.96805 0.3081 0.73834 0.0
O357 O 0.97115 0.23193 0.77935 0.0
Mg358 Mg 0.99038 0.2503 0.86401 0.0
O359 O 0.01927 0.2573 0.94525 0.0
Mg360 Mg 0.02456 0.17604 0.97231 0.0
Mg361 Mg 0.97902 0.29961 0.99752 0.0
C362 C 0.87119 0.32111 0.82379 0.0
O363 O 0.01865 0.3496 0.86775 0.0
O364 O 0.96558 0.21454 0.72847 0.0
O365 O 0.99217 0.37624 0.95698 0.0
O366 O 0.08812 0.2377 0.70301 0.0
O367 O 0.95183 0.27222 0.65401 0.0
O368 O 0.05692 0.30936 0.75318 0.0
O369 O 0.96833 0.15512 0.89408 0.0
O370 O 1.00214 0.10406 0.82361 0.0
C371 C 0.97589 0.10675 0.87122 0.0
C372 C 0.96554 0.22267 0.67372 0.0
O373 O 0.8952 0.28595 0.86164 0.0
O374 O 0.07289 0.20396 0.04699 0.0
O375 O 0.89859 0.34515 0.78376 0.0
O376 O 0.94614 0.19176 0.03784 0.0
O377 O 0.02541 0.28203 0.07667 0.0
O378 O 0.90069 0.26506 0.99495 0.0
O379 O 0.0765 0.22033 0.83795 0.0
O380 O 0.1114 0.17289 0.91338 0.0
C381 C 0.07958 0.29111 0.70808 0.0
C382 C 0.01553 0.38586 0.9092 0.0
C383 C 0.61825 0.69527 0.36287 0.0
C384 C 0.56336 0.74215 0.58361 0.0
C385 C 0.40522 0.72966 0.53642 0.0
Mg386 Mg 0.54603 0.67138 0.26347 0.0
Mg387 Mg 0.46802 0.80808 0.23834 0.0
O388 O 0.47113 0.73192 0.27936 0.0
Mg389 Mg 0.49035 0.75029 0.36402 0.0
O390 O 0.51926 0.75729 0.44526 0.0
Mg391 Mg 0.52456 0.67602 0.47231 0.0
Mg392 Mg 0.47898 0.79958 0.49753 0.0
C393 C 0.37117 0.82109 0.32379 0.0
O394 O 0.51862 0.84959 0.36776 0.0
O395 O 0.46556 0.71453 0.22847 0.0
O396 O 0.49212 0.87622 0.45699 0.0
O397 O 0.5881 0.73769 0.20301 0.0
O398 O 0.45181 0.7722 0.15401 0.0
O399 O 0.55689 0.80935 0.25317 0.0
O400 O 0.46832 0.6551 0.39409 0.0
O401 O 0.50213 0.60405 0.32361 0.0
C402 C 0.47589 0.60673 0.37122 0.0
C403 C 0.46552 0.72264 0.17373 0.0
O404 O 0.39518 0.78593 0.36164 0.0
O405 O 0.57288 0.70395 0.547 0.0
O406 O 0.39857 0.84514 0.28377 0.0
O407 O 0.44614 0.69171 0.53783 0.0
O408 O 0.52537 0.782 0.57669 0.0
O409 O 0.40067 0.76498 0.49491 0.0
O410 O 0.57648 0.72033 0.33795 0.0
O411 O 0.61139 0.67289 0.41338 0.0
C412 C 0.57955 0.7911 0.20808 0.0
C413 C 0.51548 0.88585 0.40921 0.0
C414 C 0.98712 0.8982 0.64504 0.0
C415 C 0.99473 0.79731 0.86903 0.0
C416 C 0.08428 0.69283 0.80101 0.0
Mg417 Mg 0.01659 0.8306 0.53978 0.0
Mg418 Mg 0.99916 0.70028 0.51184 0.0
O419 O 0.02442 0.74908 0.56619 0.0
Mg420 Mg 0.99723 0.75528 0.64735 0.0
O421 O 0.97993 0.77575 0.73056 0.0
Mg422 Mg 0.0546 0.81527 0.74885 0.0
Mg423 Mg 0.98136 0.70898 0.77434 0.0
C424 C 0.03121 0.61211 0.60722 0.0
O425 O 0.90152 0.73385 0.65171 0.0
O426 O 0.06275 0.81083 0.46293 0.0
O427 O 0.90521 0.68397 0.73639 0.0
O428 O 0.93706 0.80353 0.47816 0.0
O429 O 0.039 0.72601 0.43233 0.0
O430 O 0.91413 0.71874 0.51198 0.0
O431 O 0.08516 0.7804 0.66684 0.0
O432 O 0.10322 0.84069 0.59551 0.0
C433 C 0.11722 0.8151 0.64366 0.0
C434 C 0.06279 0.77328 0.42531 0.0
O435 O 0.0246 0.64884 0.64833 0.0
O436 O 0.0166 0.83191 0.83261 0.0
O437 O 0.0225 0.62535 0.55468 0.0
O438 O 0.09275 0.7442 0.80921 0.0
O439 O 0.97873 0.74812 0.85635 0.0
O440 O 0.06312 0.68007 0.75351 0.0
O441 O 0.97188 0.85223 0.62203 0.0
O442 O 0.01557 0.89494 0.69263 0.0
C443 C 0.90754 0.75855 0.47523 0.0
C444 C 0.8776 0.70883 0.69464 0.0
C445 C 0.86872 0.98365 0.12871 0.0
C446 C 0.68448 0.93208 0.23922 0.0
C447 C 0.68518 0.0517 0.3022 0.0
Mg448 Mg 0.95929 0.03942 0.19217 0.0
Mg449 Mg 0.99413 1.00081 0.31733 0.0
O450 O 0.93623 0.03815 0.27539 0.0
Mg451 Mg 0.8607 1.00021 0.27009 0.0
O452 O 0.78214 0.96778 0.2502 0.0
Mg453 Mg 0.7472 0.03414 0.18591 0.0
Mg454 Mg 0.74529 0.95813 0.32606 0.0
C455 C 0.90772 0.0263 0.40941 0.0
O456 O 0.87738 0.90579 0.30397 0.0
O457 O 0.0278 0.095 0.21852 0.0
O458 O 0.81305 0.91664 0.37126 0.0
O459 O 0.0317 0.96842 0.20198 0.0
O460 O 0.06398 0.05298 0.29972 0.0
O461 O 0.0068 0.92328 0.28125 0.0
O462 O 0.81815 0.08259 0.23179 0.0
O463 O 0.89022 0.11447 0.18159 0.0
C464 C 0.83878 0.12022 0.19885 0.0
C465 C 0.06536 0.08954 0.25857 0.0
O466 O 0.86444 0.02912 0.37286 0.0
O467 O 0.73528 0.94841 0.22978 0.0
O468 O 0.95705 0.00679 0.39689 0.0
O469 O 0.67371 0.06051 0.24932 0.0
O470 O 0.67434 0.9137 0.2896 0.0
O471 O 0.73669 0.04733 0.31768 0.0
O472 O 0.8897 0.97867 0.17869 0.0
O473 O 0.81722 1.00242 0.12069 0.0
C474 C 0.03894 0.92775 0.23867 0.0
C475 C 0.84141 0.88432 0.33903 0.0
C476 C 0.19484 0.85976 0.11474 0.0
C477 C 0.23914 0.07682 0.09933 0.0
C478 C 0.25154 0.05669 0.93172 0.0
Mg479 Mg 0.20247 0.76783 0.0482 0.0
Mg480 Mg 0.3086 0.74183 0.97035 0.0
O481 O 0.24347 0.78911 0.97329 0.0
Mg482 Mg 0.26286 0.87052 0.99533 0.0
O483 O 0.26367 0.94726 0.03104 0.0
Mg484 Mg 0.18146 0.97468 0.03069 0.0
Mg485 Mg 0.31281 0.00433 0.02069 0.0
C486 C 0.3122 0.82544 0.86824 0.0
O487 O 0.36962 0.86776 0.02556 0.0
O488 O 0.18607 0.68662 0.01051 0.0
O489 O 0.38822 0.96065 0.03514 0.0
O490 O 0.27522 0.70786 0.08487 0.0
O491 O 0.26886 0.66027 0.9697 0.0
O492 O 0.34094 0.76004 0.05045 0.0
O493 O 0.16564 0.90046 0.97254 0.0
O494 O 0.12202 0.82641 0.00959 0.0
C495 C 0.11928 0.87591 0.98393 0.0
C496 C 0.21945 0.64924 0.988 0.0
O497 O 0.28757 0.86705 0.89551 0.0
O498 O 0.19892 0.04332 0.09216 0.0
O499 O 0.33437 0.78073 0.89326 0.0
O500 O 0.20565 0.04505 0.95855 0.0
O501 O 0.28686 0.07137 0.07479 0.0
O502 O 0.2977 0.02838 0.93934 0.0
O503 O 0.23461 0.84528 0.08244 0.0
O504 O 0.16745 0.90777 0.10704 0.0
C505 C 0.32705 0.71421 0.07438 0.0
C506 C 0.40419 0.90866 0.03763 0.0
C507 C 0.14206 0.39585 0.2058 0.0
C508 C 0.94084 0.41035 0.22772 0.0
C509 C 0.9422 0.57662 0.26867 0.0
Mg510 Mg 0.24453 0.46169 0.20451 0.0
Mg511 Mg 0.26771 0.53569 0.31362 0.0
O512 O 0.22356 0.53369 0.24734 0.0
Mg513 Mg 0.14094 0.51747 0.26551 0.0
O514 O 0.05851 0.49965 0.26688 0.0
Mg515 Mg 0.0354 0.49683 0.18464 0.0
Mg516 Mg 0.00465 0.47121 0.31504 0.0
C517 C 0.18258 0.63586 0.3164 0.0
O518 O 0.14267 0.48725 0.37196 0.0
O519 O 0.32621 0.50258 0.18748 0.0
O520 O 0.05294 0.45992 0.38879 0.0
O521 O 0.30574 0.42372 0.27662 0.0
O522 O 0.34878 0.54105 0.27176 0.0
O523 O 0.25311 0.45424 0.34529 0.0
O524 O 0.11567 0.54458 0.1676 0.0
O525 O 0.18766 0.50197 0.12353 0.0
C526 C 0.13978 0.53099 0.12057 0.0
C527 C 0.36144 0.5257 0.22139 0.0
O528 O 0.14275 0.61086 0.28966 0.0
O529 O 0.9608 0.4445 0.19177 0.0
O530 O 0.22525 0.61015 0.34149 0.0
O531 O 0.96922 0.57189 0.22027 0.0
O532 O 0.95894 0.40509 0.27908 0.0
O533 O 0.94962 0.54164 0.31071 0.0
O534 O 0.16319 0.42916 0.2399 0.0
O535 O 0.09581 0.41024 0.17752 0.0
C536 C 0.3002 0.43336 0.32917 0.0
C537 C 0.10327 0.46801 0.40607 0.0
C538 C 0.62994 0.64639 0.04301 0.0
C539 C 0.73598 0.82679 0.09459 0.0
C540 C 0.80292 0.83294 0.9729 0.0
Mg541 Mg 0.68548 0.55513 0.98837 0.0
Mg542 Mg 0.81335 0.51327 0.96539 0.0
O543 O 0.76777 0.5714 0.99204 0.0
Mg544 Mg 0.76956 0.65014 0.02416 0.0
O545 O 0.75307 0.73166 0.05376 0.0
Mg546 Mg 0.68788 0.76672 0.98971 0.0
Mg547 Mg 0.82662 0.76929 0.06834 0.0
C548 C 0.90512 0.60608 0.97251 0.0
O549 O 0.79843 0.63179 0.11874 0.0
O550 O 0.69065 0.48887 0.92568 0.0
O551 O 0.86364 0.69541 0.10843 0.0
O552 O 0.71017 0.4768 0.05235 0.0
O553 O 0.77773 0.48426 0.88975 0.0
O554 O 0.79693 0.44661 0.02299 0.0
O555 O 0.73363 0.69272 0.94073 0.0
O556 O 0.67586 0.6261 0.91338 0.0
C557 C 0.69934 0.67377 0.90415 0.0
C558 C 0.72649 0.46959 0.89115 0.0
O559 O 0.87176 0.64759 0.99118 0.0
O560 O 0.73022 0.77615 0.07647 0.0
O561 O 0.8885 0.55632 0.96399 0.0
O562 O 0.74972 0.84251 0.96455 0.0
O563 O 0.78475 0.83833 0.11394 0.0
O564 O 0.82099 0.78192 0.97901 0.0
O565 O 0.6796 0.62502 0.05052 0.0
O566 O 0.62244 0.69693 0.02133 0.0
C567 C 0.75201 0.43919 0.05139 0.0
C568 C 0.82861 0.67035 0.1401 0.0
C569 C 0.12992 0.1464 0.54299 0.0
C570 C 0.23599 0.3268 0.59456 0.0
C571 C 0.30289 0.33293 0.47285 0.0
Mg572 Mg 0.18546 0.05512 0.48838 0.0
Mg573 Mg 0.3133 0.01328 0.46531 0.0
O574 O 0.26774 0.07139 0.49207 0.0
Mg575 Mg 0.26953 0.15014 0.52415 0.0
O576 O 0.25305 0.23167 0.55373 0.0
Mg577 Mg 0.18787 0.26672 0.48968 0.0
Mg578 Mg 0.32661 0.26929 0.5683 0.0
C579 C 0.40507 0.10608 0.47247 0.0
O580 O 0.2984 0.13182 0.61873 0.0
O581 O 0.19062 0.98884 0.42569 0.0
O582 O 0.36363 0.19543 0.60843 0.0
O583 O 0.21018 0.97679 0.55235 0.0
O584 O 0.27764 0.98435 0.38966 0.0
O585 O 0.29689 0.94658 0.52289 0.0
O586 O 0.23361 0.19271 0.44071 0.0
O587 O 0.17585 0.12608 0.41337 0.0
C588 C 0.19933 0.17375 0.40413 0.0
C589 C 0.22643 0.96962 0.39111 0.0
O590 O 0.37173 0.14759 0.49117 0.0
O591 O 0.23021 0.27617 0.57644 0.0
O592 O 0.38844 0.05633 0.46392 0.0
O593 O 0.24969 0.3425 0.4645 0.0
O594 O 0.28476 0.33834 0.61391 0.0
O595 O 0.32096 0.2819 0.47897 0.0
O596 O 0.17958 0.12503 0.5505 0.0
O597 O 0.12243 0.19694 0.52131 0.0
C598 C 0.25201 0.93916 0.55134 0.0
C599 C 0.32859 0.17037 0.64009 0.0
C600 C 0.33876 0.62018 0.69882 0.0
C601 C 0.56537 0.58952 0.75863 0.0
C602 C 0.53894 0.42776 0.73868 0.0
Mg603 Mg 0.24724 0.53423 0.68593 0.0
Mg604 Mg 0.24531 0.45816 0.82606 0.0
O605 O 0.28215 0.46783 0.75019 0.0
Mg606 Mg 0.36073 0.5002 0.7701 0.0
O607 O 0.43625 0.53814 0.77543 0.0
Mg608 Mg 0.45931 0.53945 0.69222 0.0
Mg609 Mg 0.49414 0.50077 0.81735 0.0
C610 C 0.3414 0.3843 0.83903 0.0
O611 O 0.36446 0.52909 0.87288 0.0
O612 O 0.23528 0.4485 0.72978 0.0
O613 O 0.45706 0.50673 0.89692 0.0
O614 O 0.17375 0.56062 0.74933 0.0
O615 O 0.17435 0.41375 0.7896 0.0
O616 O 0.23673 0.54736 0.81768 0.0
O617 O 0.38978 0.47869 0.67867 0.0
O618 O 0.31723 0.50244 0.62074 0.0
C619 C 0.36871 0.48361 0.62872 0.0
C620 C 0.18448 0.43215 0.73922 0.0
O621 O 0.37737 0.40577 0.80397 0.0
O622 O 0.52778 0.59502 0.7186 0.0
O623 O 0.31304 0.41661 0.87126 0.0
O624 O 0.53174 0.46847 0.70203 0.0
O625 O 0.564 0.55293 0.79976 0.0
O626 O 0.50675 0.42325 0.78122 0.0
O627 O 0.31826 0.58256 0.73186 0.0
O628 O 0.3902 0.61449 0.68154 0.0
C629 C 0.18522 0.55176 0.8022 0.0
C630 C 0.40774 0.52626 0.90943 0.0
C631 C 0.69482 0.35978 0.61475 0.0
C632 C 0.73915 0.57679 0.59941 0.0
C633 C 0.75157 0.55677 0.43177 0.0
Mg634 Mg 0.70245 0.26782 0.54823 0.0
Mg635 Mg 0.80858 0.2418 0.47037 0.0
O636 O 0.74345 0.28909 0.47332 0.0
Mg637 Mg 0.76284 0.3705 0.49535 0.0
O638 O 0.76365 0.44727 0.53099 0.0
Mg639 Mg 0.68145 0.47469 0.53067 0.0
Mg640 Mg 0.81282 0.50433 0.52079 0.0
C641 C 0.81218 0.32543 0.36827 0.0
O642 O 0.86962 0.36775 0.52558 0.0
O643 O 0.68604 0.18661 0.51056 0.0
O644 O 0.88821 0.46064 0.5352 0.0
O645 O 0.7752 0.20786 0.5849 0.0
O646 O 0.76882 0.16025 0.46975 0.0
O647 O 0.84091 0.26006 0.55047 0.0
O648 O 0.66562 0.40045 0.47255 0.0
O649 O 0.622 0.32641 0.50961 0.0
C650 C 0.61926 0.3759 0.48394 0.0
C651 C 0.71942 0.14922 0.48805 0.0
O652 O 0.78756 0.36705 0.39554 0.0
O653 O 0.6989 0.54335 0.59214 0.0
O654 O 0.83433 0.28071 0.39328 0.0
O655 O 0.70565 0.54504 0.45853 0.0
O656 O 0.7869 0.57131 0.57496 0.0
O657 O 0.79779 0.52859 0.4395 0.0
O658 O 0.73459 0.34529 0.58245 0.0
O659 O 0.66744 0.4078 0.60705 0.0
C660 C 0.82703 0.21422 0.5744 0.0
C661 C 0.90418 0.40865 0.53767 0.0
C662 C 0.63973 0.03092 0.62057 0.0
C663 C 0.86144 0.02575 0.72137 0.0
C664 C 0.80023 0.9334 0.82917 0.0
Mg665 Mg 0.53542 0.99684 0.68461 0.0
Mg666 Mg 0.50467 0.97115 0.81499 0.0
O667 O 0.55851 0.99966 0.76686 0.0
Mg668 Mg 0.64095 0.01748 0.76551 0.0
O669 O 0.72355 0.03372 0.74734 0.0
Mg670 Mg 0.74456 0.96173 0.7045 0.0
Mg671 Mg 0.76771 0.03571 0.81361 0.0
C672 C 0.60328 0.96799 0.90605 0.0
O673 O 0.64274 0.11086 0.78967 0.0
O674 O 0.46079 0.94451 0.69171 0.0
O675 O 0.72524 0.11015 0.8415 0.0
O676 O 0.46925 0.0719 0.72026 0.0
O677 O 0.45906 0.90499 0.77898 0.0
O678 O 0.4496 0.04155 0.81065 0.0
O679 O 0.66327 0.92915 0.73987 0.0
O680 O 0.59577 0.91025 0.67758 0.0
C681 C 0.64201 0.89582 0.70586 0.0
C682 C 0.4409 0.91029 0.72764 0.0
O683 O 0.64267 0.98724 0.87196 0.0
O684 O 0.82621 1.00265 0.68745 0.0
O685 O 0.55296 0.95987 0.88876 0.0
O686 O 0.80579 0.9238 0.77661 0.0
O687 O 0.84879 0.04108 0.77175 0.0
O688 O 0.75314 0.95426 0.84529 0.0
O689 O 0.61575 0.04461 0.66764 0.0
O690 O 0.68762 1.00192 0.62348 0.0
C691 C 0.4422 0.07658 0.76864 0.0
C692 C 0.68258 0.13586 0.8164 0.0
C693 C 0.48713 0.39818 0.14506 0.0
C694 C 0.49472 0.29729 0.36904 0.0
C695 C 0.58428 0.1928 0.30103 0.0
Mg696 Mg 0.5166 0.33058 0.0398 0.0
Mg697 Mg 0.49918 0.20027 0.01185 0.0
O698 O 0.52445 0.24907 0.0662 0.0
Mg699 Mg 0.49725 0.25526 0.14736 0.0
O700 O 0.47994 0.27573 0.23056 0.0
Mg701 Mg 0.5546 0.31525 0.24887 0.0
Mg702 Mg 0.48137 0.20895 0.27434 0.0
C703 C 0.53123 0.11209 0.10724 0.0
O704 O 0.40154 0.23383 0.1517 0.0
O705 O 0.56277 0.31082 0.96295 0.0
O706 O 0.40522 0.18394 0.23637 0.0
O707 O 0.43707 0.3035 0.97817 0.0
O708 O 0.53903 0.226 0.93235 0.0
O709 O 0.41415 0.21871 0.012 0.0
O710 O 0.58517 0.28037 0.16685 0.0
O711 O 0.60321 0.34068 0.09552 0.0
C712 C 0.61722 0.31508 0.14368 0.0
C713 C 0.56281 0.27328 0.92534 0.0
O714 O 0.52461 0.14882 0.14834 0.0
O715 O 0.5166 0.33189 0.33262 0.0
O716 O 0.52252 0.12533 0.05469 0.0
O717 O 0.59275 0.24418 0.30923 0.0
O718 O 0.47873 0.2481 0.35635 0.0
O719 O 0.56313 0.18004 0.25353 0.0
O720 O 0.47189 0.35221 0.12204 0.0
O721 O 0.51558 0.39491 0.19264 0.0
C722 C 0.40757 0.25851 0.97524 0.0
C723 C 0.37762 0.20881 0.19463 0.0
loop_
_geom_bond_atom_site_label_1
_geom_bond_atom_site_label_2
_geom_bond_distance
_geom_bond_site_symmetry_2
_ccdc_geom_bond_type
Fe0 O2 1.918 . S
Fe0 O5 1.997 . S
Fe0 O6 2.002 . S
Fe0 O11 1.976 . S
Fe0 O14 1.996 . S
Fe1 O2 1.918 . S
Fe1 O9 1.997 . S
Fe1 O12 1.996 . S
Fe1 O16 1.976 . S
Fe1 O19 2.002 . S
O2 Fe0 1.918 . S
O2 Fe1 1.918 . S
O2 Fe3 1.918 . S
Fe3 O2 1.918 . S
Fe3 O4 2.002 . S
Fe3 O13 1.976 . S
Fe3 O17 1.996 . S
Fe3 O20 1.997 . S
O4 Fe3 2.002 . S
O4 C21 1.295 . S
O5 Fe0 1.997 . S
O5 C21 1.235 . S
O6 Fe0 2.002 . S
O6 C7 1.295 . S
C7 O6 1.295 . S
C7 O9 1.235 . S
C8 O13 1.287 . S
C8 O14 1.255 . S
O9 Fe1 1.997 . S
O9 C7 1.235 . S
C10 O16 1.287 . S
C10 O17 1.255 . S
O11 Fe0 1.976 . S
O11 C18 1.287 . S
O12 Fe1 1.996 . S
O12 C18 1.255 . S
O13 Fe3 1.976 . S
O13 C8 1.287 . S
O14 Fe0 1.996 . S
O14 C8 1.255 . S
C15 O19 1.295 . S
C15 O20 1.235 . S
O16 Fe1 1.976 . S
O16 C10 1.287 . S
O17 Fe3 1.996 . S
O17 C10 1.255 . S
C18 O11 1.287 . S
C18 O12 1.255 . S
O19 Fe1 2.002 . S
O19 C15 1.295 . S
O20 Fe3 1.997 . S
O20 C15 1.235 . S
C21 O4 1.295 . S
C21 O5 1.235 . S
Fe22 O24 1.918 . S
Fe22 O27 1.997 . S
Fe22 O28 2.002 . S
Fe22 O33 1.976 . S
Fe22 O36 1.996 . S
Fe23 O24 1.918 . S
Fe23 O31 1.997 . S
Fe23 O34 1.996 . S
Fe23 O38 1.976 1_554 S
Fe23 O41 2.002 . S
O24 Fe22 1.918 . S
O24 Fe23 1.918 . S
O24 Fe25 1.918 . S
Fe25 O24 1.918 . S
Fe25 O26 2.002 . S
Fe25 O35 1.976 . S
Fe25 O39 1.996 1_554 S
Fe25 O42 1.997 . S
O26 Fe25 2.002 . S
O26 C43 1.295 . S
O27 Fe22 1.997 . S
O27 C43 1.235 . S
O28 Fe22 2.002 . S
O28 C29 1.295 . S
C29 O28 1.295 . S
C29 O31 1.235 . S
C30 O35 1.287 . S
C30 O36 1.255 . S
O31 Fe23 1.997 . S
O31 C29 1.235 . S
C32 O38 1.287 . S
C32 O39 1.255 . S
O33 Fe22 1.976 . S
O33 C40 1.287 . S
O34 Fe23 1.996 . S
O34 C40 1.255 . S
O35 Fe25 1.976 . S
O35 C30 1.287 . S
O36 Fe22 1.996 . S
O36 C30 1.255 . S
C37 O41 1.295 . S
C37 O42 1.235 . S
O38 Fe23 1.976 1_556 S
O38 C32 1.287 . S
O39 Fe25 1.996 1_556 S
O39 C32 1.255 . S
C40 O33 1.287 . S
C40 O34 1.255 . S
O41 Fe23 2.002 . S
O41 C37 1.295 . S
O42 Fe25 1.997 . S
O42 C37 1.235 . S
C43 O26 1.295 . S
C43 O27 1.235 . S
Fe44 O46 1.918 . S
Fe44 O49 1.997 . S
Fe44 O50 2.002 . S
Fe44 O55 1.976 . S
Fe44 O58 1.996 . S
Fe45 O46 1.918 . S
Fe45 O53 1.997 . S
Fe45 O56 1.996 . S
Fe45 O60 1.976 . S
Fe45 O63 2.002 . S
O46 Fe44 1.918 . S
O46 Fe45 1.918 . S
O46 Fe47 1.918 . S
Fe47 O46 1.918 . S
Fe47 O48 2.002 . S
Fe47 O57 1.976 . S
Fe47 O61 1.996 . S
Fe47 O64 1.997 . S
O48 Fe47 2.002 . S
O48 C65 1.295 . S
O49 Fe44 1.997 . S
O49 C65 1.235 . S
O50 Fe44 2.002 . S
O50 C51 1.295 . S
C51 O50 1.295 . S
C51 O53 1.235 . S
C52 O57 1.287 . S
C52 O58 1.255 . S
O53 Fe45 1.997 . S
O53 C51 1.235 . S
C54 O60 1.287 . S
C54 O61 1.255 . S
O55 Fe44 1.976 . S
O55 C62 1.287 . S
O56 Fe45 1.996 . S
O56 C62 1.255 . S
O57 Fe47 1.976 . S
O57 C52 1.287 . S
O58 Fe44 1.996 . S
O58 C52 1.255 . S
C59 O63 1.295 . S
C59 O64 1.235 . S
O60 Fe45 1.976 . S
O60 C54 1.287 . S
O61 Fe47 1.996 . S
O61 C54 1.255 . S
C62 O55 1.287 . S
C62 O56 1.255 . S
O63 Fe45 2.002 . S
O63 C59 1.295 . S
O64 Fe47 1.997 . S
O64 C59 1.235 . S
C65 O48 1.295 . S
C65 O49 1.235 . S
Fe66 O68 1.918 . S
Fe66 O71 1.997 . S
Fe66 O72 2.002 . S
Fe66 O77 1.976 . S
Fe66 O80 1.996 1_565 S
Fe67 O68 1.918 . S
Fe67 O75 1.997 . S
Fe67 O78 1.996 . S
Fe67 O82 1.976 1_554 S
Fe67 O85 2.002 . S
O68 Fe66 1.918 . S
O68 Fe67 1.918 . S
O68 Fe69 1.918 . S
Fe69 O68 1.918 . S
Fe69 O70 2.002 . S
Fe69 O79 1.976 1_565 S
Fe69 O83 1.996 1_554 S
Fe69 O86 1.997 . S
O70 Fe69 2.002 . S
O70 C87 1.295 . S
O71 Fe66 1.997 . S
O71 C87 1.235 . S
O72 Fe66 2.002 . S
O72 C73 1.295 . S
C73 O72 1.295 . S
C73 O75 1.235 . S
C74 O79 1.287 . S
C74 O80 1.255 . S
O75 Fe67 1.997 . S
O75 C73 1.235 . S
C76 O82 1.287 . S
C76 O83 1.255 . S
O77 Fe66 1.976 . S
O77 C84 1.287 . S
O78 Fe67 1.996 . S
O78 C84 1.255 . S
O79 Fe69 1.976 1_545 S
O79 C74 1.287 . S
O80 Fe66 1.996 1_545 S
O80 C74 1.255 . S
C81 O85 1.295 . S
C81 O86 1.235 . S
O82 Fe67 1.976 1_556 S
O82 C76 1.287 . S
O83 Fe69 1.996 1_556 S
O83 C76 1.255 . S
C84 O77 1.287 . S
C84 O78 1.255 . S
O85 Fe67 2.002 . S
O85 C81 1.295 . S
O86 Fe69 1.997 . S
O86 C81 1.235 . S
C87 O70 1.295 . S
C87 O71 1.235 . S
Fe88 O90 1.918 . S
Fe88 O93 1.997 . S
Fe88 O94 2.002 . S
Fe88 O99 1.976 . S
Fe88 O102 1.996 . S
Fe89 O90 1.918 . S
Fe89 O97 1.997 . S
Fe89 O100 1.996 . S
Fe89 O104 1.976 . S
Fe89 O107 2.002 . S
O90 Fe88 1.918 . S
O90 Fe89 1.918 . S
O90 Fe91 1.918 . S
Fe91 O90 1.918 . S
Fe91 O92 2.002 . S
Fe91 O101 1.976 . S
Fe91 O105 1.996 . S
Fe91 O108 1.997 . S
O92 Fe91 2.002 . S
O92 C109 1.295 . S
O93 Fe88 1.997 . S
O93 C109 1.235 . S
O94 Fe88 2.002 . S
O94 C95 1.295 . S
C95 O94 1.295 . S
C95 O97 1.235 . S
C96 O101 1.287 . S
C96 O102 1.255 . S
O97 Fe89 1.997 . S
O97 C95 1.235 . S
C98 O104 1.287 . S
C98 O105 1.255 . S
O99 Fe88 1.976 . S
O99 C106 1.287 . S
O100 Fe89 1.996 . S
O100 C106 1.255 . S
O101 Fe91 1.976 . S
O101 C96 1.287 . S
O102 Fe88 1.996 . S
O102 C96 1.255 . S
C103 O107 1.295 . S
C103 O108 1.235 . S
O104 Fe89 1.976 . S
O104 C98 1.287 . S
O105 Fe91 1.996 . S
O105 C98 1.255 . S
C106 O99 1.287 . S
C106 O100 1.255 . S
O107 Fe89 2.002 . S
O107 C103 1.295 . S
O108 Fe91 1.997 . S
O108 C103 1.235 . S
C109 O92 1.295 . S
C109 O93 1.235 . S
Fe110 O112 1.918 . S
Fe110 O115 1.997 . S
Fe110 O116 2.002 . S
Fe110 O121 1.976 . S
Fe110 O124 1.996 1_556 S
Fe111 O112 1.918 . S
Fe111 O119 1.997 . S
Fe111 O122 1.996 . S
Fe111 O126 1.976 1_455 S
Fe111 O129 2.002 . S
O112 Fe110 1.918 . S
O112 Fe111 1.918 . S
O112 Fe113 1.918 . S
Fe113 O112 1.918 . S
Fe113 O114 2.002 . S
Fe113 O123 1.976 1_556 S
Fe113 O127 1.996 1_455 S
Fe113 O130 1.997 . S
O114 Fe113 2.002 . S
O114 C131 1.295 . S
O115 Fe110 1.997 . S
O115 C131 1.235 . S
O116 Fe110 2.002 . S
O116 C117 1.295 . S
C117 O116 1.295 . S
C117 O119 1.235 . S
C118 O123 1.287 . S
C118 O124 1.255 . S
O119 Fe111 1.997 . S
O119 C117 1.235 . S
C120 O126 1.287 . S
C120 O127 1.255 . S
O121 Fe110 1.976 . S
O121 C128 1.287 . S
O122 Fe111 1.996 . S
O122 C128 1.255 . S
O123 Fe113 1.976 1_554 S
O123 C118 1.287 . S
O124 Fe110 1.996 1_554 S
O124 C118 1.255 . S
C125 O129 1.295 . S
C125 O130 1.235 . S
O126 Fe111 1.976 1_655 S
O126 C120 1.287 . S
O127 Fe113 1.996 1_655 S
O127 C120 1.255 . S
C128 O121 1.287 . S
C128 O122 1.255 . S
O129 Fe111 2.002 . S
O129 C125 1.295 . S
O130 Fe113 1.997 . S
O130 C125 1.235 . S
C131 O114 1.295 . S
C131 O115 1.235 . S
Fe132 O134 1.918 . S
Fe132 O137 1.997 . S
Fe132 O138 2.002 . S
Fe132 O143 1.976 . S
Fe132 O146 1.996 . S
Fe133 O134 1.918 . S
Fe133 O141 1.997 . S
Fe133 O144 1.996 . S
Fe133 O148 1.976 . S
Fe133 O151 2.002 . S
O134 Fe132 1.918 . S
O134 Fe133 1.918 . S
O134 Fe135 1.918 . S
Fe135 O134 1.918 . S
Fe135 O136 2.002 . S
Fe135 O145 1.976 . S
Fe135 O149 1.996 . S
Fe135 O152 1.997 . S
O136 Fe135 2.002 . S
O136 C153 1.295 . S
O137 Fe132 1.997 . S
O137 C153 1.235 . S
O138 Fe132 2.002 . S
O138 C139 1.295 . S
C139 O138 1.295 . S
C139 O141 1.235 . S
C140 O145 1.287 . S
C140 O146 1.255 . S
O141 Fe133 1.997 . S
O141 C139 1.235 . S
C142 O148 1.287 . S
C142 O149 1.255 . S
O143 Fe132 1.976 . S
O143 C150 1.287 . S
O144 Fe133 1.996 . S
O144 C150 1.255 . S
O145 Fe135 1.976 . S
O145 C140 1.287 . S
O146 Fe132 1.996 . S
O146 C140 1.255 . S
C147 O151 1.295 . S
C147 O152 1.235 . S
O148 Fe133 1.976 . S
O148 C142 1.287 . S
O149 Fe135 1.996 . S
O149 C142 1.255 . S
C150 O143 1.287 . S
C150 O144 1.255 . S
O151 Fe133 2.002 . S
O151 C147 1.295 . S
O152 Fe135 1.997 . S
O152 C147 1.235 . S
C153 O136 1.295 . S
C153 O137 1.235 . S
Fe154 O156 1.918 . S
Fe154 O159 1.997 . S
Fe154 O160 2.002 . S
Fe154 O165 1.976 1_565 S
Fe154 O168 1.996 1_556 S
Fe155 O156 1.918 . S
Fe155 O163 1.997 . S
Fe155 O166 1.996 1_565 S
Fe155 O170 1.976 1_655 S
Fe155 O173 2.002 . S
O156 Fe154 1.918 . S
O156 Fe155 1.918 . S
O156 Fe157 1.918 . S
Fe157 O156 1.918 . S
Fe157 O158 2.002 . S
Fe157 O167 1.976 1_556 S
Fe157 O171 1.996 1_655 S
Fe157 O174 1.997 . S
O158 Fe157 2.002 . S
O158 C175 1.295 . S
O159 Fe154 1.997 . S
O159 C175 1.235 . S
O160 Fe154 2.002 . S
O160 C161 1.295 . S
C161 O160 1.295 . S
C161 O163 1.235 . S
C162 O167 1.287 . S
C162 O168 1.255 . S
O163 Fe155 1.997 . S
O163 C161 1.235 . S
C164 O170 1.287 . S
C164 O171 1.255 . S
O165 Fe154 1.976 1_545 S
O165 C172 1.287 . S
O166 Fe155 1.996 1_545 S
O166 C172 1.255 . S
O167 Fe157 1.976 1_554 S
O167 C162 1.287 . S
O168 Fe154 1.996 1_554 S
O168 C162 1.255 . S
C169 O173 1.295 . S
C169 O174 1.235 . S
O170 Fe155 1.976 1_455 S
O170 C164 1.287 . S
O171 Fe157 1.996 1_455 S
O171 C164 1.255 . S
C172 O165 1.287 . S
C172 O166 1.255 . S
O173 Fe155 2.002 . S
O173 C169 1.295 . S
O174 Fe157 1.997 . S
O174 C169 1.235 . S
C175 O158 1.295 . S
C175 O159 1.235 . S
Fe176 O178 1.918 . S
Fe176 O181 1.997 . S
Fe176 O182 2.002 . S
Fe176 O187 1.976 . S
Fe176 O190 1.996 . S
Fe177 O178 1.918 . S
Fe177 O185 1.997 . S
Fe177 O188 1.996 . S
Fe177 O192 1.976 . S
Fe177 O195 2.002 . S
O178 Fe176 1.918 . S
O178 Fe177 1.918 . S
O178 Fe179 1.918 . S
Fe179 O178 1.918 . S
Fe179 O180 2.002 . S
Fe179 O189 1.976 . S
Fe179 O193 1.996 . S
Fe179 O196 1.997 . S
O180 Fe179 2.002 . S
O180 C197 1.295 . S
O181 Fe176 1.997 . S
O181 C197 1.235 . S
O182 Fe176 2.002 . S
O182 C183 1.295 . S
C183 O182 1.295 . S
C183 O185 1.235 . S
C184 O189 1.287 . S
C184 O190 1.255 . S
O185 Fe177 1.997 . S
O185 C183 1.235 . S
C186 O192 1.287 . S
C186 O193 1.255 . S
O187 Fe176 1.976 . S
O187 C194 1.287 . S
O188 Fe177 1.996 . S
O188 C194 1.255 . S
O189 Fe179 1.976 . S
O189 C184 1.287 . S
O190 Fe176 1.996 . S
O190 C184 1.255 . S
C191 O195 1.295 . S
C191 O196 1.235 . S
O192 Fe177 1.976 . S
O192 C186 1.287 . S
O193 Fe179 1.996 . S
O193 C186 1.255 . S
C194 O187 1.287 . S
C194 O188 1.255 . S
O195 Fe177 2.002 . S
O195 C191 1.295 . S
O196 Fe179 1.997 . S
O196 C191 1.235 . S
C197 O180 1.295 . S
C197 O181 1.235 . S
Fe198 O200 1.918 . S
Fe198 O203 1.997 . S
Fe198 O204 2.002 . S
Fe198 O209 1.976 . S
Fe198 O212 1.996 . S
Fe199 O200 1.918 . S
Fe199 O207 1.997 . S
Fe199 O210 1.996 . S
Fe199 O214 1.976 . S
Fe199 O217 2.002 . S
O200 Fe198 1.918 . S
O200 Fe199 1.918 . S
O200 Fe201 1.918 . S
Fe201 O200 1.918 . S
Fe201 O202 2.002 . S
Fe201 O211 1.976 . S
Fe201 O215 1.996 . S
Fe201 O218 1.997 . S
O202 Fe201 2.002 . S
O202 C219 1.295 . S
O203 Fe198 1.997 . S
O203 C219 1.235 . S
O204 Fe198 2.002 . S
O204 C205 1.295 . S
C205 O204 1.295 . S
C205 O207 1.235 . S
C206 O211 1.287 . S
C206 O212 1.255 . S
O207 Fe199 1.997 . S
O207 C205 1.235 . S
C208 O214 1.287 . S
C208 O215 1.255 . S
O209 Fe198 1.976 . S
O209 C216 1.287 . S
O210 Fe199 1.996 . S
O210 C216 1.255 . S
O211 Fe201 1.976 . S
O211 C206 1.287 . S
O212 Fe198 1.996 . S
O212 C206 1.255 . S
C213 O217 1.295 . S
C213 O218 1.235 . S
O214 Fe199 1.976 . S
O214 C208 1.287 . S
O215 Fe201 1.996 . S
O215 C208 1.255 . S
C216 O209 1.287 . S
C216 O210 1.255 . S
O217 Fe199 2.002 . S
O217 C213 1.295 . S
O218 Fe201 1.997 . S
O218 C213 1.235 . S
C219 O202 1.295 . S
C219 O203 1.235 . S
Fe220 O222 1.918 . S
Fe220 O225 1.997 . S
Fe220 O226 2.002 . S
Fe220 O231 1.976 . S
Fe220 O234 1.996 1_455 S
Fe221 O222 1.918 . S
Fe221 O229 1.997 . S
Fe221 O232 1.996 . S
Fe221 O236 1.976 . S
Fe221 O239 2.002 . S
O222 Fe220 1.918 . S
O222 Fe221 1.918 . S
O222 Fe223 1.918 . S
Fe223 O222 1.918 . S
Fe223 O224 2.002 . S
Fe223 O233 1.976 1_455 S
Fe223 O237 1.996 . S
Fe223 O240 1.997 . S
O224 Fe223 2.002 . S
O224 C241 1.295 . S
O225 Fe220 1.997 . S
O225 C241 1.235 . S
O226 Fe220 2.002 . S
O226 C227 1.295 . S
C227 O226 1.295 . S
C227 O229 1.235 . S
C228 O233 1.287 . S
C228 O234 1.255 . S
O229 Fe221 1.997 . S
O229 C227 1.235 . S
C230 O236 1.287 . S
C230 O237 1.255 . S
O231 Fe220 1.976 . S
O231 C238 1.287 . S
O232 Fe221 1.996 . S
O232 C238 1.255 . S
O233 Fe223 1.976 1_655 S
O233 C228 1.287 . S
O234 Fe220 1.996 1_655 S
O234 C228 1.255 . S
C235 O239 1.295 . S
C235 O240 1.235 . S
O236 Fe221 1.976 . S
O236 C230 1.287 . S
O237 Fe223 1.996 . S
O237 C230 1.255 . S
C238 O231 1.287 . S
C238 O232 1.255 . S
O239 Fe221 2.002 . S
O239 C235 1.295 . S
O240 Fe223 1.997 . S
O240 C235 1.235 . S
C241 O224 1.295 . S
C241 O225 1.235 . S
Fe242 O244 1.918 . S
Fe242 O247 1.997 . S
Fe242 O248 2.002 . S
Fe242 O253 1.976 1_655 S
Fe242 O256 1.996 1_545 S
Fe243 O244 1.918 . S
Fe243 O251 1.997 . S
Fe243 O254 1.996 1_655 S
Fe243 O258 1.976 . S
Fe243 O261 2.002 . S
O244 Fe242 1.918 . S
O244 Fe243 1.918 . S
O244 Fe245 1.918 . S
Fe245 O244 1.918 . S
Fe245 O246 2.002 . S
Fe245 O255 1.976 1_545 S
Fe245 O259 1.996 . S
Fe245 O262 1.997 . S
O246 Fe245 2.002 . S
O246 C263 1.295 . S
O247 Fe242 1.997 . S
O247 C263 1.235 . S
O248 Fe242 2.002 . S
O248 C249 1.295 . S
C249 O248 1.295 . S
C249 O251 1.235 . S
C250 O255 1.287 . S
C250 O256 1.255 . S
O251 Fe243 1.997 . S
O251 C249 1.235 . S
C252 O258 1.287 . S
C252 O259 1.255 . S
O253 Fe242 1.976 1_455 S
O253 C260 1.287 . S
O254 Fe243 1.996 1_455 S
O254 C260 1.255 . S
O255 Fe245 1.976 1_565 S
O255 C250 1.287 . S
O256 Fe242 1.996 1_565 S
O256 C250 1.255 . S
C257 O261 1.295 . S
C257 O262 1.235 . S
O258 Fe243 1.976 . S
O258 C252 1.287 . S
O259 Fe245 1.996 . S
O259 C252 1.255 . S
C260 O253 1.287 . S
C260 O254 1.255 . S
O261 Fe243 2.002 . S
O261 C257 1.295 . S
O262 Fe245 1.997 . S
O262 C257 1.235 . S
C263 O246 1.295 . S
C263 O247 1.235 . S
Fe264 O266 1.918 . S
Fe264 O269 1.997 . S
Fe264 O270 2.002 . S
Fe264 O275 1.976 . S
Fe264 O278 1.996 . S
Fe265 O266 1.918 . S
Fe265 O273 1.997 . S
Fe265 O276 1.996 . S
Fe265 O280 1.976 . S
Fe265 O283 2.002 . S
O266 Fe264 1.918 . S
O266 Fe265 1.918 . S
O266 Fe267 1.918 . S
Fe267 O266 1.918 . S
Fe267 O268 2.002 . S
Fe267 O277 1.976 . S
Fe267 O281 1.996 . S
Fe267 O284 1.997 . S
O268 Fe267 2.002 . S
O268 C285 1.295 . S
O269 Fe264 1.997 . S
O269 C285 1.235 . S
O270 Fe264 2.002 . S
O270 C271 1.295 . S
C271 O270 1.295 . S
C271 O273 1.235 . S
C272 O277 1.287 . S
C272 O278 1.255 . S
O273 Fe265 1.997 . S
O273 C271 1.235 . S
C274 O280 1.287 . S
C274 O281 1.255 . S
O275 Fe264 1.976 . S
O275 C282 1.287 . S
O276 Fe265 1.996 . S
O276 C282 1.255 . S
O277 Fe267 1.976 . S
O277 C272 1.287 . S
O278 Fe264 1.996 . S
O278 C272 1.255 . S
C279 O283 1.295 . S
C279 O284 1.235 . S
O280 Fe265 1.976 . S
O280 C274 1.287 . S
O281 Fe267 1.996 . S
O281 C274 1.255 . S
C282 O275 1.287 . S
C282 O276 1.255 . S
O283 Fe265 2.002 . S
O283 C279 1.295 . S
O284 Fe267 1.997 . S
O284 C279 1.235 . S
C285 O268 1.295 . S
C285 O269 1.235 . S
Fe286 O288 1.918 . S
Fe286 O291 1.997 . S
Fe286 O292 2.002 . S
Fe286 O297 1.976 . S
Fe286 O300 1.996 . S
Fe287 O288 1.918 . S
Fe287 O295 1.997 . S
Fe287 O298 1.996 . S
Fe287 O302 1.976 . S
Fe287 O305 2.002 . S
O288 Fe286 1.918 . S
O288 Fe287 1.918 . S
O288 Fe289 1.918 . S
Fe289 O288 1.918 . S
Fe289 O290 2.002 . S
Fe289 O299 1.976 . S
Fe289 O303 1.996 . S
Fe289 O306 1.997 . S
O290 Fe289 2.002 . S
O290 C307 1.295 . S
O291 Fe286 1.997 . S
O291 C307 1.235 . S
O292 Fe286 2.002 . S
O292 C293 1.295 . S
C293 O292 1.295 . S
C293 O295 1.235 . S
C294 O299 1.287 . S
C294 O300 1.255 . S
O295 Fe287 1.997 . S
O295 C293 1.235 . S
C296 O302 1.287 . S
C296 O303 1.255 . S
O297 Fe286 1.976 . S
O297 C304 1.287 . S
O298 Fe287 1.996 . S
O298 C304 1.255 . S
O299 Fe289 1.976 . S
O299 C294 1.287 . S
O300 Fe286 1.996 . S
O300 C294 1.255 . S
C301 O305 1.295 . S
C301 O306 1.235 . S
O302 Fe287 1.976 . S
O302 C296 1.287 . S
O303 Fe289 1.996 . S
O303 C296 1.255 . S
C304 O297 1.287 . S
C304 O298 1.255 . S
O305 Fe287 2.002 . S
O305 C301 1.295 . S
O306 Fe289 1.997 . S
O306 C301 1.235 . S
C307 O290 1.295 . S
C307 O291 1.235 . S
Fe308 O310 1.918 . S
Fe308 O313 1.997 . S
Fe308 O314 2.002 . S
Fe308 O319 1.976 1_545 S
Fe308 O322 1.996 . S
Fe309 O310 1.918 . S
Fe309 O317 1.997 . S
Fe309 O320 1.996 1_545 S
Fe309 O324 1.976 . S
Fe309 O327 2.002 . S
O310 Fe308 1.918 . S
O310 Fe309 1.918 . S
O310 Fe311 1.918 . S
Fe311 O310 1.918 . S
Fe311 O312 2.002 . S
Fe311 O321 1.976 . S
Fe311 O325 1.996 . S
Fe311 O328 1.997 . S
O312 Fe311 2.002 . S
O312 C329 1.295 . S
O313 Fe308 1.997 . S
O313 C329 1.235 . S
O314 Fe308 2.002 . S
O314 C315 1.295 . S
C315 O314 1.295 . S
C315 O317 1.235 . S
C316 O321 1.287 . S
C316 O322 1.255 . S
O317 Fe309 1.997 . S
O317 C315 1.235 . S
C318 O324 1.287 . S
C318 O325 1.255 . S
O319 Fe308 1.976 1_565 S
O319 C326 1.287 . S
O320 Fe309 1.996 1_565 S
O320 C326 1.255 . S
O321 Fe311 1.976 . S
O321 C316 1.287 . S
O322 Fe308 1.996 . S
O322 C316 1.255 . S
C323 O327 1.295 . S
C323 O328 1.235 . S
O324 Fe309 1.976 . S
O324 C318 1.287 . S
O325 Fe311 1.996 . S
O325 C318 1.255 . S
C326 O319 1.287 . S
C326 O320 1.255 . S
O327 Fe309 2.002 . S
O327 C323 1.295 . S
O328 Fe311 1.997 . S
O328 C323 1.235 . S
C329 O312 1.295 . S
C329 O313 1.235 . S
Fe330 O332 1.918 . S
Fe330 O335 1.997 . S
Fe330 O336 2.002 . S
Fe330 O341 1.976 . S
Fe330 O344 1.996 . S
Fe331 O332 1.918 . S
Fe331 O339 1.997 . S
Fe331 O342 1.996 . S
Fe331 O346 1.976 . S
Fe331 O349 2.002 . S
O332 Fe330 1.918 . S
O332 Fe331 1.918 . S
O332 Fe333 1.918 . S
Fe333 O332 1.918 . S
Fe333 O334 2.002 . S
Fe333 O343 1.976 . S
Fe333 O347 1.996 . S
Fe333 O350 1.997 . S
O334 Fe333 2.002 . S
O334 C351 1.295 . S
O335 Fe330 1.997 . S
O335 C351 1.235 . S
O336 Fe330 2.002 . S
O336 C337 1.295 . S
C337 O336 1.295 . S
C337 O339 1.235 . S
C338 O343 1.287 . S
C338 O344 1.255 . S
O339 Fe331 1.997 . S
O339 C337 1.235 . S
C340 O346 1.287 . S
C340 O347 1.255 . S
O341 Fe330 1.976 . S
O341 C348 1.287 . S
O342 Fe331 1.996 . S
O342 C348 1.255 . S
O343 Fe333 1.976 . S
O343 C338 1.287 . S
O344 Fe330 1.996 . S
O344 C338 1.255 . S
C345 O349 1.295 . S
C345 O350 1.235 . S
O346 Fe331 1.976 . S
O346 C340 1.287 . S
O347 Fe333 1.996 . S
O347 C340 1.255 . S
C348 O341 1.287 . S
C348 O342 1.255 . S
O349 Fe331 2.002 . S
O349 C345 1.295 . S
O350 Fe333 1.997 . S
O350 C345 1.235 . S
C351 O334 1.295 . S
C351 O335 1.235 . S
C352 O379 1.312 . S
C352 O380 1.208 . S
C353 O374 1.331 . S
C353 O377 1.244 . S
C354 O376 1.264 . S
C354 O378 1.273 . S
Mg355 O357 1.936 1_455 S
Mg355 O364 2.081 1_455 S
Mg355 O366 2.023 . S
Mg355 O370 2.031 . S
Mg355 O379 2.291 . S
Mg356 O357 1.963 . S
Mg356 O367 1.942 . S
Mg356 O368 1.955 1_655 S
Mg356 O375 1.986 . S
O357 Mg355 1.936 1_655 S
O357 Mg356 1.963 . S
O357 Mg358 1.915 . S
Mg358 O357 1.915 . S
Mg358 O359 1.915 1_655 S
Mg358 O363 2.013 1_655 S
Mg358 O369 2.114 . S
Mg358 O373 2.013 . S
Mg358 O379 2.114 1_655 S
O359 Mg358 1.915 1_455 S
O359 Mg360 1.936 . S
O359 Mg361 1.963 1_456 S
Mg360 O359 1.936 . S
Mg360 O369 2.291 1_455 S
Mg360 O374 2.081 1_556 S
Mg360 O376 2.023 1_456 S
Mg360 O380 2.031 . S
Mg361 O359 1.963 1_654 S
Mg361 O365 1.986 1_654 S
Mg361 O377 1.942 1_655 S
Mg361 O378 1.955 . S
C362 O373 1.191 . S
C362 O375 1.307 . S
O363 Mg358 2.013 1_455 S
O363 C382 1.191 . S
O364 Mg355 2.081 1_655 S
O364 C372 1.331 . S
O365 Mg361 1.986 1_456 S
O365 C382 1.307 . S
O366 Mg355 2.023 . S
O366 C381 1.264 . S
O367 Mg356 1.942 . S
O367 C372 1.244 . S
O368 Mg356 1.955 1_455 S
O368 C381 1.273 . S
O369 Mg358 2.114 . S
O369 Mg360 2.291 1_655 S
O369 C371 1.312 . S
O370 Mg355 2.031 . S
O370 C371 1.208 1_455 S
C371 O369 1.312 . S
C371 O370 1.208 1_655 S
C372 O364 1.331 . S
C372 O367 1.244 . S
O373 Mg358 2.013 . S
O373 C362 1.191 . S
O374 C353 1.331 . S
O374 Mg360 2.081 1_554 S
O375 Mg356 1.986 . S
O375 C362 1.307 . S
O376 C354 1.264 . S
O376 Mg360 2.023 1_654 S
O377 C353 1.244 . S
O377 Mg361 1.942 1_455 S
O378 C354 1.273 . S
O378 Mg361 1.955 . S
O379 C352 1.312 . S
O379 Mg355 2.291 . S
O379 Mg358 2.114 1_455 S
O380 C352 1.208 . S
O380 Mg360 2.031 . S
C381 O366 1.264 . S
C381 O368 1.273 . S
C382 O363 1.191 . S
C382 O365 1.307 . S
C383 O410 1.312 . S
C383 O411 1.208 . S
C384 O405 1.331 . S
C384 O408 1.244 . S
C385 O407 1.264 . S
C385 O409 1.273 . S
Mg386 O388 1.936 . S
Mg386 O395 2.081 . S
Mg386 O397 2.023 . S
Mg386 O401 2.031 . S
Mg386 O410 2.291 . S
Mg387 O388 1.963 . S
Mg387 O398 1.942 . S
Mg387 O399 1.955 . S
Mg387 O406 1.986 . S
O388 Mg386 1.936 . S
O388 Mg387 1.963 . S
O388 Mg389 1.915 . S
Mg389 O388 1.915 . S
Mg389 O390 1.915 . S
Mg389 O394 2.013 . S
Mg389 O400 2.114 . S
Mg389 O404 2.013 . S
Mg389 O410 2.114 . S
O390 Mg389 1.915 . S
O390 Mg391 1.936 . S
O390 Mg392 1.963 . S
Mg391 O390 1.936 . S
Mg391 O400 2.291 . S
Mg391 O405 2.081 . S
Mg391 O407 2.023 . S
Mg391 O411 2.031 . S
Mg392 O390 1.963 . S
Mg392 O396 1.986 . S
Mg392 O408 1.942 . S
Mg392 O409 1.955 . S
C393 O404 1.191 . S
C393 O406 1.307 . S
O394 Mg389 2.013 . S
O394 C413 1.191 . S
O395 Mg386 2.081 . S
O395 C403 1.331 . S
O396 Mg392 1.986 . S
O396 C413 1.307 . S
O397 Mg386 2.023 . S
O397 C412 1.264 . S
O398 Mg387 1.942 . S
O398 C403 1.244 . S
O399 Mg387 1.955 . S
O399 C412 1.273 . S
O400 Mg389 2.114 . S
O400 Mg391 2.291 . S
O400 C402 1.312 . S
O401 Mg386 2.031 . S
O401 C402 1.208 . S
C402 O400 1.312 . S
C402 O401 1.208 . S
C403 O395 1.331 . S
C403 O398 1.244 . S
O404 Mg389 2.013 . S
O404 C393 1.191 . S
O405 C384 1.331 . S
O405 Mg391 2.081 . S
O406 Mg387 1.986 . S
O406 C393 1.307 . S
O407 C385 1.264 . S
O407 Mg391 2.023 . S
O408 C384 1.244 . S
O408 Mg392 1.942 . S
O409 C385 1.273 . S
O409 Mg392 1.955 . S
O410 C383 1.312 . S
O410 Mg386 2.291 . S
O410 Mg389 2.114 . S
O411 C383 1.208 . S
O411 Mg391 2.031 . S
C412 O397 1.264 . S
C412 O399 1.273 . S
C413 O394 1.191 . S
C413 O396 1.307 . S
C414 O441 1.312 . S
C414 O442 1.208 1_655 S
C415 O436 1.331 . S
C415 O439 1.244 . S
C416 O438 1.264 . S
C416 O440 1.273 . S
Mg417 O419 1.936 . S
Mg417 O426 2.081 . S
Mg417 O428 2.023 1_455 S
Mg417 O432 2.031 . S
Mg417 O441 2.291 1_455 S
Mg418 O419 1.963 1_655 S
Mg418 O429 1.942 1_655 S
Mg418 O430 1.955 . S
Mg418 O437 1.986 1_655 S
O419 Mg417 1.936 . S
O419 Mg418 1.963 1_455 S
O419 Mg420 1.915 1_455 S
Mg420 O419 1.915 1_655 S
Mg420 O421 1.915 . S
Mg420 O425 2.013 . S
Mg420 O431 2.114 1_655 S
Mg420 O435 2.013 1_655 S
Mg420 O441 2.114 . S
O421 Mg420 1.915 . S
O421 Mg422 1.936 1_655 S
O421 Mg423 1.963 . S
Mg422 O421 1.936 1_455 S
Mg422 O431 2.291 . S
Mg422 O436 2.081 1_455 S
Mg422 O438 2.023 . S
Mg422 O442 2.031 . S
Mg423 O421 1.963 . S
Mg423 O427 1.986 . S
Mg423 O439 1.942 . S
Mg423 O440 1.955 1_655 S
C424 O435 1.191 . S
C424 O437 1.307 . S
O425 Mg420 2.013 . S
O425 C444 1.191 . S
O426 Mg417 2.081 . S
O426 C434 1.331 . S
O427 Mg423 1.986 . S
O427 C444 1.307 . S
O428 Mg417 2.023 1_655 S
O428 C443 1.264 . S
O429 Mg418 1.942 1_455 S
O429 C434 1.244 . S
O430 Mg418 1.955 . S
O430 C443 1.273 . S
O431 Mg420 2.114 1_455 S
O431 Mg422 2.291 . S
O431 C433 1.312 . S
O432 Mg417 2.031 . S
O432 C433 1.208 . S
C433 O431 1.312 . S
C433 O432 1.208 . S
C434 O426 1.331 . S
C434 O429 1.244 . S
O435 Mg420 2.013 1_455 S
O435 C424 1.191 . S
O436 C415 1.331 . S
O436 Mg422 2.081 1_655 S
O437 Mg418 1.986 1_455 S
O437 C424 1.307 . S
O438 C416 1.264 . S
O438 Mg422 2.023 . S
O439 C415 1.244 . S
O439 Mg423 1.942 . S
O440 C416 1.273 . S
O440 Mg423 1.955 1_455 S
O441 C414 1.312 . S
O441 Mg417 2.291 1_655 S
O441 Mg420 2.114 . S
O442 C414 1.208 1_455 S
O442 Mg422 2.031 . S
C443 O428 1.264 . S
C443 O430 1.273 . S
C444 O425 1.191 . S
C444 O427 1.307 . S
C445 O472 1.312 . S
C445 O473 1.208 1_565 S
C446 O467 1.331 . S
C446 O470 1.244 . S
C447 O469 1.264 . S
C447 O471 1.273 . S
Mg448 O450 1.936 . S
Mg448 O457 2.081 1_655 S
Mg448 O459 2.023 1_645 S
Mg448 O463 2.031 . S
Mg448 O472 2.291 1_545 S
Mg449 O450 1.963 1_465 S
Mg449 O460 1.942 1_565 S
Mg449 O461 1.955 . S
Mg449 O468 1.986 1_465 S
O450 Mg448 1.936 . S
O450 Mg449 1.963 1_645 S
O450 Mg451 1.915 1_545 S
Mg451 O450 1.915 1_565 S
Mg451 O452 1.915 . S
Mg451 O456 2.013 . S
Mg451 O462 2.114 1_565 S
Mg451 O466 2.013 1_565 S
Mg451 O472 2.114 . S
O452 Mg451 1.915 . S
O452 Mg453 1.936 1_565 S
O452 Mg454 1.963 . S
Mg453 O452 1.936 1_545 S
Mg453 O462 2.291 . S
Mg453 O467 2.081 1_545 S
Mg453 O469 2.023 . S
Mg453 O473 2.031 . S
Mg454 O452 1.963 . S
Mg454 O458 1.986 . S
Mg454 O470 1.942 . S
Mg454 O471 1.955 1_565 S
C455 O466 1.191 . S
C455 O468 1.307 . S
O456 Mg451 2.013 . S
O456 C475 1.191 . S
O457 Mg448 2.081 1_455 S
O457 C465 1.331 . S
O458 Mg454 1.986 . S
O458 C475 1.307 . S
O459 Mg448 2.023 1_465 S
O459 C474 1.264 . S
O460 Mg449 1.942 1_545 S
O460 C465 1.244 . S
O461 Mg449 1.955 . S
O461 C474 1.273 . S
O462 Mg451 2.114 1_545 S
O462 Mg453 2.291 . S
O462 C464 1.312 . S
O463 Mg448 2.031 . S
O463 C464 1.208 . S
C464 O462 1.312 . S
C464 O463 1.208 . S
C465 O457 1.331 . S
C465 O460 1.244 . S
O466 Mg451 2.013 1_545 S
O466 C455 1.191 . S
O467 C446 1.331 . S
O467 Mg453 2.081 1_565 S
O468 Mg449 1.986 1_645 S
O468 C455 1.307 . S
O469 C447 1.264 . S
O469 Mg453 2.023 . S
O470 C446 1.244 . S
O470 Mg454 1.942 . S
O471 C447 1.273 . S
O471 Mg454 1.955 1_545 S
O472 C445 1.312 . S
O472 Mg448 2.291 1_565 S
O472 Mg451 2.114 . S
O473 C445 1.208 1_545 S
O473 Mg453 2.031 . S
C474 O459 1.264 . S
C474 O461 1.273 . S
C475 O456 1.191 . S
C475 O458 1.307 . S
C476 O503 1.312 . S
C476 O504 1.208 . S
C477 O498 1.331 . S
C477 O501 1.244 . S
C478 O500 1.264 . S
C478 O502 1.273 . S
Mg479 O481 1.936 1_554 S
Mg479 O488 2.081 1_554 S
Mg479 O490 2.023 . S
Mg479 O494 2.031 . S
Mg479 O503 2.291 . S
Mg480 O481 1.963 . S
Mg480 O491 1.942 . S
Mg480 O492 1.955 1_556 S
Mg480 O499 1.986 . S
O481 Mg479 1.936 1_556 S
O481 Mg480 1.963 . S
O481 Mg482 1.915 . S
Mg482 O481 1.915 . S
Mg482 O483 1.915 1_556 S
Mg482 O487 2.013 1_556 S
Mg482 O493 2.114 . S
Mg482 O497 2.013 . S
Mg482 O503 2.114 1_556 S
O483 Mg482 1.915 1_554 S
O483 Mg484 1.936 . S
O483 Mg485 1.963 1_564 S
Mg484 O483 1.936 . S
Mg484 O493 2.291 1_554 S
Mg484 O498 2.081 1_565 S
Mg484 O500 2.023 1_564 S
Mg484 O504 2.031 . S
Mg485 O483 1.963 1_546 S
Mg485 O489 1.986 1_546 S
Mg485 O501 1.942 1_556 S
Mg485 O502 1.955 . S
C486 O497 1.191 . S
C486 O499 1.307 . S
O487 Mg482 2.013 1_554 S
O487 C506 1.191 . S
O488 Mg479 2.081 1_556 S
O488 C496 1.331 . S
O489 Mg485 1.986 1_564 S
O489 C506 1.307 . S
O490 Mg479 2.023 . S
O490 C505 1.264 . S
O491 Mg480 1.942 . S
O491 C496 1.244 . S
O492 Mg480 1.955 1_554 S
O492 C505 1.273 . S
O493 Mg482 2.114 . S
O493 Mg484 2.291 1_556 S
O493 C495 1.312 . S
O494 Mg479 2.031 . S
O494 C495 1.208 1_554 S
C495 O493 1.312 . S
C495 O494 1.208 1_556 S
C496 O488 1.331 . S
C496 O491 1.244 . S
O497 Mg482 2.013 . S
O497 C486 1.191 . S
O498 C477 1.331 . S
O498 Mg484 2.081 1_545 S
O499 Mg480 1.986 . S
O499 C486 1.307 . S
O500 C478 1.264 . S
O500 Mg484 2.023 1_546 S
O501 C477 1.244 . S
O501 Mg485 1.942 1_554 S
O502 C478 1.273 . S
O502 Mg485 1.955 . S
O503 C476 1.312 . S
O503 Mg479 2.291 . S
O503 Mg482 2.114 1_554 S
O504 C476 1.208 . S
O504 Mg484 2.031 . S
C505 O490 1.264 . S
C505 O492 1.273 . S
C506 O487 1.191 . S
C506 O489 1.307 . S
C507 O534 1.312 . S
C507 O535 1.208 . S
C508 O529 1.331 . S
C508 O532 1.244 . S
C509 O531 1.264 . S
C509 O533 1.273 . S
Mg510 O512 1.936 . S
Mg510 O519 2.081 . S
Mg510 O521 2.023 . S
Mg510 O525 2.031 . S
Mg510 O534 2.291 . S
Mg511 O512 1.963 . S
Mg511 O522 1.942 . S
Mg511 O523 1.955 . S
Mg511 O530 1.986 . S
O512 Mg510 1.936 . S
O512 Mg511 1.963 . S
O512 Mg513 1.915 . S
Mg513 O512 1.915 . S
Mg513 O514 1.915 . S
Mg513 O518 2.013 . S
Mg513 O524 2.114 . S
Mg513 O528 2.013 . S
Mg513 O534 2.114 . S
O514 Mg513 1.915 . S
O514 Mg515 1.936 . S
O514 Mg516 1.963 1_455 S
Mg515 O514 1.936 . S
Mg515 O524 2.291 . S
Mg515 O529 2.081 1_455 S
Mg515 O531 2.023 1_455 S
Mg515 O535 2.031 . S
Mg516 O514 1.963 1_655 S
Mg516 O520 1.986 1_655 S
Mg516 O532 1.942 . S
Mg516 O533 1.955 . S
C517 O528 1.191 . S
C517 O530 1.307 . S
O518 Mg513 2.013 . S
O518 C537 1.191 . S
O519 Mg510 2.081 . S
O519 C527 1.331 . S
O520 Mg516 1.986 1_455 S
O520 C537 1.307 . S
O521 Mg510 2.023 . S
O521 C536 1.264 . S
O522 Mg511 1.942 . S
O522 C527 1.244 . S
O523 Mg511 1.955 . S
O523 C536 1.273 . S
O524 Mg513 2.114 . S
O524 Mg515 2.291 . S
O524 C526 1.312 . S
O525 Mg510 2.031 . S
O525 C526 1.208 . S
C526 O524 1.312 . S
C526 O525 1.208 . S
C527 O519 1.331 . S
C527 O522 1.244 . S
O528 Mg513 2.013 . S
O528 C517 1.191 . S
O529 C508 1.331 . S
O529 Mg515 2.081 1_655 S
O530 Mg511 1.986 . S
O530 C517 1.307 . S
O531 C509 1.264 . S
O531 Mg515 2.023 1_655 S
O532 C508 1.244 . S
O532 Mg516 1.942 . S
O533 C509 1.273 . S
O533 Mg516 1.955 . S
O534 C507 1.312 . S
O534 Mg510 2.291 . S
O534 Mg513 2.114 . S
O535 C507 1.208 . S
O535 Mg515 2.031 . S
C536 O521 1.264 . S
C536 O523 1.273 . S
C537 O518 1.191 . S
C537 O520 1.307 . S
C538 O565 1.312 . S
C538 O566 1.216 . S
C539 O560 1.331 . S
C539 O563 1.244 . S
C540 O562 1.264 . S
C540 O564 1.273 . S
Mg541 O543 1.936 . S
Mg541 O550 2.081 . S
Mg541 O552 2.023 1_556 S
Mg541 O556 2.031 . S
Mg541 O565 2.291 1_556 S
Mg542 O543 1.963 1_554 S
Mg542 O553 1.942 1_554 S
Mg542 O554 1.955 . S
Mg542 O561 1.988 . S
O543 Mg541 1.936 . S
O543 Mg542 1.963 1_556 S
O543 Mg544 1.915 1_556 S
Mg544 O543 1.915 1_554 S
Mg544 O545 1.915 . S
Mg544 O549 2.013 . S
Mg544 O555 2.114 1_554 S
Mg544 O559 2.013 1_554 S
Mg544 O565 2.114 . S
O545 Mg544 1.915 . S
O545 Mg546 1.936 1_554 S
O545 Mg547 1.963 . S
Mg546 O545 1.936 1_556 S
Mg546 O555 2.291 . S
Mg546 O560 2.081 1_556 S
Mg546 O562 2.023 . S
Mg546 O566 2.024 1_556 S
Mg547 O545 1.963 . S
Mg547 O551 1.986 . S
Mg547 O563 1.942 . S
Mg547 O564 1.955 1_554 S
C548 O559 1.191 . S
C548 O561 1.304 1_556 S
O549 Mg544 2.013 . S
O549 C568 1.191 . S
O550 Mg541 2.081 . S
O550 C558 1.331 . S
O551 Mg547 1.986 . S
O551 C568 1.307 . S
O552 Mg541 2.023 1_554 S
O552 C567 1.264 . S
O553 Mg542 1.942 1_556 S
O553 C558 1.244 . S
O554 Mg542 1.955 . S
O554 C567 1.273 . S
O555 Mg544 2.114 1_556 S
O555 Mg546 2.291 . S
O555 C557 1.312 . S
O556 Mg541 2.031 . S
O556 C557 1.208 . S
C557 O555 1.312 . S
C557 O556 1.208 . S
C558 O550 1.331 . S
C558 O553 1.244 . S
O559 Mg544 2.013 1_556 S
O559 C548 1.191 . S
O560 C539 1.331 . S
O560 Mg546 2.081 1_554 S
O561 Mg542 1.988 . S
O561 C548 1.304 1_554 S
O562 C540 1.264 . S
O562 Mg546 2.023 . S
O563 C539 1.244 . S
O563 Mg547 1.942 . S
O564 C540 1.273 . S
O564 Mg547 1.955 1_556 S
O565 C538 1.312 . S
O565 Mg541 2.291 1_554 S
O565 Mg544 2.114 . S
O566 C538 1.216 . S
O566 Mg546 2.024 1_554 S
C567 O552 1.264 . S
C567 O554 1.273 . S
C568 O549 1.191 . S
C568 O551 1.307 . S
C569 O596 1.312 . S
C569 O597 1.208 . S
C570 O591 1.331 . S
C570 O594 1.244 . S
C571 O593 1.264 . S
C571 O595 1.273 . S
Mg572 O574 1.936 . S
Mg572 O581 2.081 1_545 S
Mg572 O583 2.023 1_545 S
Mg572 O587 2.031 . S
Mg572 O596 2.291 . S
Mg573 O574 1.963 1_565 S
Mg573 O584 1.942 . S
Mg573 O585 1.955 . S
Mg573 O592 1.986 1_565 S
O574 Mg572 1.936 . S
O574 Mg573 1.963 1_545 S
O574 Mg575 1.915 . S
Mg575 O574 1.915 . S
Mg575 O576 1.915 . S
Mg575 O580 2.013 . S
Mg575 O586 2.114 . S
Mg575 O590 2.013 . S
Mg575 O596 2.114 . S
O576 Mg575 1.915 . S
O576 Mg577 1.936 . S
O576 Mg578 1.963 . S
Mg577 O576 1.936 . S
Mg577 O586 2.291 . S
Mg577 O591 2.081 . S
Mg577 O593 2.023 . S
Mg577 O597 2.031 . S
Mg578 O576 1.963 . S
Mg578 O582 1.986 . S
Mg578 O594 1.942 . S
Mg578 O595 1.955 . S
C579 O590 1.191 . S
C579 O592 1.307 . S
O580 Mg575 2.013 . S
O580 C599 1.191 . S
O581 Mg572 2.081 1_565 S
O581 C589 1.331 . S
O582 Mg578 1.986 . S
O582 C599 1.307 . S
O583 Mg572 2.023 1_565 S
O583 C598 1.264 . S
O584 Mg573 1.942 . S
O584 C589 1.244 . S
O585 Mg573 1.955 . S
O585 C598 1.273 . S
O586 Mg575 2.114 . S
O586 Mg577 2.291 . S
O586 C588 1.312 . S
O587 Mg572 2.031 . S
O587 C588 1.208 . S
C588 O586 1.312 . S
C588 O587 1.208 . S
C589 O581 1.331 . S
C589 O584 1.244 . S
O590 Mg575 2.013 . S
O590 C579 1.191 . S
O591 C570 1.331 . S
O591 Mg577 2.081 . S
O592 Mg573 1.986 1_545 S
O592 C579 1.307 . S
O593 C571 1.264 . S
O593 Mg577 2.023 . S
O594 C570 1.244 . S
O594 Mg578 1.942 . S
O595 C571 1.273 . S
O595 Mg578 1.955 . S
O596 C569 1.312 . S
O596 Mg572 2.291 . S
O596 Mg575 2.114 . S
O597 C569 1.208 . S
O597 Mg577 2.031 . S
C598 O583 1.264 . S
C598 O585 1.273 . S
C599 O580 1.191 . S
C599 O582 1.307 . S
C600 O627 1.312 . S
C600 O628 1.208 . S
C601 O622 1.331 . S
C601 O625 1.244 . S
C602 O624 1.264 . S
C602 O626 1.273 . S
Mg603 O605 1.936 . S
Mg603 O612 2.081 . S
Mg603 O614 2.023 . S
Mg603 O618 2.031 . S
Mg603 O627 2.291 . S
Mg604 O605 1.963 . S
Mg604 O615 1.942 . S
Mg604 O616 1.955 . S
Mg604 O623 1.986 . S
O605 Mg603 1.936 . S
O605 Mg604 1.963 . S
O605 Mg606 1.915 . S
Mg606 O605 1.915 . S
Mg606 O607 1.915 . S
Mg606 O611 2.013 . S
Mg606 O617 2.114 . S
Mg606 O621 2.013 . S
Mg606 O627 2.114 . S
O607 Mg606 1.915 . S
O607 Mg608 1.936 . S
O607 Mg609 1.963 . S
Mg608 O607 1.936 . S
Mg608 O617 2.291 . S
Mg608 O622 2.081 . S
Mg608 O624 2.023 . S
Mg608 O628 2.031 . S
Mg609 O607 1.963 . S
Mg609 O613 1.986 . S
Mg609 O625 1.942 . S
Mg609 O626 1.955 . S
C610 O621 1.191 . S
C610 O623 1.307 . S
O611 Mg606 2.013 . S
O611 C630 1.191 . S
O612 Mg603 2.081 . S
O612 C620 1.331 . S
O613 Mg609 1.986 . S
O613 C630 1.307 . S
O614 Mg603 2.023 . S
O614 C629 1.264 . S
O615 Mg604 1.942 . S
O615 C620 1.244 . S
O616 Mg604 1.955 . S
O616 C629 1.273 . S
O617 Mg606 2.114 . S
O617 Mg608 2.291 . S
O617 C619 1.312 . S
O618 Mg603 2.031 . S
O618 C619 1.208 . S
C619 O617 1.312 . S
C619 O618 1.208 . S
C620 O612 1.331 . S
C620 O615 1.244 . S
O621 Mg606 2.013 . S
O621 C610 1.191 . S
O622 C601 1.331 . S
O622 Mg608 2.081 . S
O623 Mg604 1.986 . S
O623 C610 1.307 . S
O624 C602 1.264 . S
O624 Mg608 2.023 . S
O625 C601 1.244 . S
O625 Mg609 1.942 . S
O626 C602 1.273 . S
O626 Mg609 1.955 . S
O627 C600 1.312 . S
O627 Mg603 2.291 . S
O627 Mg606 2.114 . S
O628 C600 1.208 . S
O628 Mg608 2.031 . S
C629 O614 1.264 . S
C629 O616 1.273 . S
C630 O611 1.191 . S
C630 O613 1.307 . S
C631 O658 1.312 . S
C631 O659 1.208 . S
C632 O653 1.331 . S
C632 O656 1.244 . S
C633 O655 1.264 . S
C633 O657 1.273 . S
Mg634 O636 1.936 . S
Mg634 O643 2.081 . S
Mg634 O645 2.023 . S
Mg634 O649 2.031 . S
Mg634 O658 2.291 . S
Mg635 O636 1.963 . S
Mg635 O646 1.942 . S
Mg635 O647 1.955 . S
Mg635 O654 1.986 . S
O636 Mg634 1.936 . S
O636 Mg635 1.963 . S
O636 Mg637 1.915 . S
Mg637 O636 1.915 . S
Mg637 O638 1.915 . S
Mg637 O642 2.013 . S
Mg637 O648 2.114 . S
Mg637 O652 2.013 . S
Mg637 O658 2.114 . S
O638 Mg637 1.915 . S
O638 Mg639 1.936 . S
O638 Mg640 1.963 . S
Mg639 O638 1.936 . S
Mg639 O648 2.291 . S
Mg639 O653 2.081 . S
Mg639 O655 2.023 . S
Mg639 O659 2.031 . S
Mg640 O638 1.963 . S
Mg640 O644 1.986 . S
Mg640 O656 1.942 . S
Mg640 O657 1.955 . S
C641 O652 1.191 . S
C641 O654 1.307 . S
O642 Mg637 2.013 . S
O642 C661 1.191 . S
O643 Mg634 2.081 . S
O643 C651 1.331 . S
O644 Mg640 1.986 . S
O644 C661 1.307 . S
O645 Mg634 2.023 . S
O645 C660 1.264 . S
O646 Mg635 1.942 . S
O646 C651 1.244 . S
O647 Mg635 1.955 . S
O647 C660 1.273 . S
O648 Mg637 2.114 . S
O648 Mg639 2.291 . S
O648 C650 1.312 . S
O649 Mg634 2.031 . S
O649 C650 1.208 . S
C650 O648 1.312 . S
C650 O649 1.208 . S
C651 O643 1.331 . S
C651 O646 1.244 . S
O652 Mg637 2.013 . S
O652 C641 1.191 . S
O653 C632 1.331 . S
O653 Mg639 2.081 . S
O654 Mg635 1.986 . S
O654 C641 1.307 . S
O655 C633 1.264 . S
O655 Mg639 2.023 . S
O656 C632 1.244 . S
O656 Mg640 1.942 . S
O657 C633 1.273 . S
O657 Mg640 1.955 . S
O658 C631 1.312 . S
O658 Mg634 2.291 . S
O658 Mg637 2.114 . S
O659 C631 1.208 . S
O659 Mg639 2.031 . S
C660 O645 1.264 . S
C660 O647 1.273 . S
C661 O642 1.191 . S
C661 O644 1.307 . S
C662 O689 1.312 . S
C662 O690 1.204 1_545 S
C663 O684 1.331 . S
C663 O687 1.244 . S
C664 O686 1.264 . S
C664 O688 1.273 . S
Mg665 O667 1.936 . S
Mg665 O674 2.081 . S
Mg665 O676 2.023 1_565 S
Mg665 O680 2.031 . S
Mg665 O689 2.291 1_565 S
Mg666 O667 1.963 1_545 S
Mg666 O677 1.942 1_545 S
Mg666 O678 1.955 . S
Mg666 O685 1.986 1_545 S
O667 Mg665 1.936 . S
O667 Mg666 1.963 1_565 S
O667 Mg668 1.915 1_565 S
Mg668 O667 1.915 1_545 S
Mg668 O669 1.915 . S
Mg668 O673 2.013 . S
Mg668 O679 2.114 1_545 S
Mg668 O683 2.013 1_545 S
Mg668 O689 2.114 . S
O669 Mg668 1.915 . S
O669 Mg670 1.936 1_545 S
O669 Mg671 1.963 . S
Mg670 O669 1.936 1_565 S
Mg670 O679 2.291 . S
Mg670 O684 2.081 1_565 S
Mg670 O686 2.023 . S
Mg670 O690 2.035 . S
Mg671 O669 1.963 . S
Mg671 O675 1.986 . S
Mg671 O687 1.942 . S
Mg671 O688 1.955 1_545 S
C672 O683 1.191 . S
C672 O685 1.307 . S
O673 Mg668 2.013 . S
O673 C692 1.191 . S
O674 Mg665 2.081 . S
O674 C682 1.331 . S
O675 Mg671 1.986 . S
O675 C692 1.307 . S
O676 Mg665 2.023 1_545 S
O676 C691 1.264 . S
O677 Mg666 1.942 1_565 S
O677 C682 1.244 . S
O678 Mg666 1.955 . S
O678 C691 1.273 . S
O679 Mg668 2.114 1_565 S
O679 Mg670 2.291 . S
O679 C681 1.312 . S
O680 Mg665 2.031 . S
O680 C681 1.208 . S
C681 O679 1.312 . S
C681 O680 1.208 . S
C682 O674 1.331 . S
C682 O677 1.244 . S
O683 Mg668 2.013 1_565 S
O683 C672 1.191 . S
O684 C663 1.331 . S
O684 Mg670 2.081 1_545 S
O685 Mg666 1.986 1_565 S
O685 C672 1.307 . S
O686 C664 1.264 . S
O686 Mg670 2.023 . S
O687 C663 1.244 . S
O687 Mg671 1.942 . S
O688 C664 1.273 . S
O688 Mg671 1.955 1_565 S
O689 C662 1.312 . S
O689 Mg665 2.291 1_545 S
O689 Mg668 2.114 . S
O690 C662 1.204 1_565 S
O690 Mg670 2.035 . S
C691 O676 1.264 . S
C691 O678 1.273 . S
C692 O673 1.191 . S
C692 O675 1.307 . S
C693 O720 1.312 . S
C693 O721 1.208 . S
C694 O715 1.331 . S
C694 O718 1.244 . S
C695 O717 1.264 . S
C695 O719 1.273 . S
Mg696 O698 1.936 . S
Mg696 O705 2.081 1_554 S
Mg696 O707 2.023 1_554 S
Mg696 O711 2.031 . S
Mg696 O720 2.291 . S
Mg697 O698 1.963 . S
Mg697 O708 1.942 1_554 S
Mg697 O709 1.955 1_554 S
Mg697 O716 1.986 . S
O698 Mg696 1.936 . S
O698 Mg697 1.963 . S
O698 Mg699 1.915 . S
Mg699 O698 1.915 . S
Mg699 O700 1.915 . S
Mg699 O704 2.013 . S
Mg699 O710 2.114 . S
Mg699 O714 2.013 . S
Mg699 O720 2.114 . S
O700 Mg699 1.915 . S
O700 Mg701 1.936 . S
O700 Mg702 1.963 . S
Mg701 O700 1.936 . S
Mg701 O710 2.291 . S
Mg701 O715 2.081 . S
Mg701 O717 2.023 . S
Mg701 O721 2.031 . S
Mg702 O700 1.963 . S
Mg702 O706 1.986 . S
Mg702 O718 1.942 . S
Mg702 O719 1.955 . S
C703 O714 1.191 . S
C703 O716 1.307 . S
O704 Mg699 2.013 . S
O704 C723 1.191 . S
O705 Mg696 2.081 1_556 S
O705 C713 1.331 . S
O706 Mg702 1.986 . S
O706 C723 1.307 . S
O707 Mg696 2.023 1_556 S
O707 C722 1.264 . S
O708 Mg697 1.942 1_556 S
O708 C713 1.244 . S
O709 Mg697 1.955 1_556 S
O709 C722 1.273 . S
O710 Mg699 2.114 . S
O710 Mg701 2.291 . S
O710 C712 1.312 . S
O711 Mg696 2.031 . S
O711 C712 1.208 . S
C712 O710 1.312 . S
C712 O711 1.208 . S
C713 O705 1.331 . S
C713 O708 1.244 . S
O714 Mg699 2.013 . S
O714 C703 1.191 . S
O715 C694 1.331 . S
O715 Mg701 2.081 . S
O716 Mg697 1.986 . S
O716 C703 1.307 . S
O717 C695 1.264 . S
O717 Mg701 2.023 . S
O718 C694 1.244 . S
O718 Mg702 1.942 . S
O719 C695 1.273 . S
O719 Mg702 1.955 . S
O720 C693 1.312 . S
O720 Mg696 2.291 . S
O720 Mg699 2.114 . S
O721 C693 1.208 . S
O721 Mg701 2.031 . S
C722 O707 1.264 . S
C722 O709 1.273 . S
C723 O704 1.191 . S
C723 O706 1.307 . S
C381 C241 1.562 . S
C384 C272 1.593 . S
C372 C249 1.457 . S
C206 C385 1.852 . S
C416 C125 1.495 . S
C142 C443 1.931 . S
C415 C169 1.363 . S
C103 C434 1.739 . S
C315 C447 1.527 . S
C338 C478 1.821 . S
C536 C183 1.553 . S
C558 C293 1.850 . S
C446 C87 1.407 . S
C477 C21 1.747 . S
C43 C527 1.420 . S
C65 C567 1.812 . S
C37 C505 1.584 . S
C571 C197 1.580 . S
C307 C602 1.842 . S
C651 C329 1.352 . S
C150 C509 1.893 . S
C570 C227 1.381 . S
C601 C274 1.615 . S
C682 C208 1.779 . S
C73 C412 1.548 . S
C7 C353 1.641 . S
C403 C29 1.445 . S
C51 C354 1.899 . S
C323 C695 1.500 . S
C340 C722 1.915 . S
C694 C191 1.369 . S
C301 C713 1.725 . S
C117 C629 1.516 . S
C633 C140 1.818 . S
C664 C161 1.543 . S
C589 C95 1.849 . S
C620 C235 1.400 . S
C282 C632 1.684 . S
C263 C663 1.412 . S
C598 C216 1.747 . S
C257 C660 1.580 . S
C540 C175 1.583 . S
C109 C474 1.823 . S
C131 C496 1.356 . S
C348 C691 1.908 . S
C81 C539 1.384 . S
C15 C465 1.662 . S
C508 C59 1.826 . S
C352 C351 2.346 . S
C402 C194 2.561 . S
C362 C304 1.916 . S
C413 C326 2.160 . S
C433 C205 2.276 . S
C230 C424 2.031 . S
C271 C444 1.893 . S
C250 C414 2.409 . S
C464 C62 2.267 . S
C506 C84 2.147 . S
C18 C507 2.270 . S
C538 C40 2.394 . S
C147 C475 1.927 . S
C495 C164 2.419 . S
C517 C98 1.890 . S
C120 C548 2.180 . S
C476 C96 2.168 . S
C10 C588 2.199 . S
C32 C630 2.152 . S
C54 C641 1.970 . S
C537 C238 2.173 . S
C599 C337 1.996 . S
C184 C619 2.418 . S
C662 C316 2.434 . S
C383 C153 2.330 . S
C172 C371 2.550 . S
C106 C393 1.900 . S
C128 C382 2.150 . S
C712 C52 2.236 . S
C703 C74 2.035 . S
C8 C723 1.851 . S
C30 C693 2.410 . S
C219 C600 2.300 . S
C661 C228 2.132 . S
C681 C285 2.299 . S
C260 C569 2.379 . S
C610 C345 1.920 . S
C186 C650 2.446 . S
C692 C296 1.884 . S
C318 C579 2.210 . S
C294 C631 2.160 . S
C279 C557 2.244 . S
C455 C252 2.171 . S
C213 C486 2.021 . S
C76 C672 2.153 . S
C139 C568 2.005 . S
C445 C162 2.393 . S
C118 C526 2.408 . S
