# Generated by pormake.
# Topology gar, (4,6)-cn, num edge types: 1
# Building blocks:
#     Node 0, Type 0, BuildingBlock: UXUYUI_clean_sbu_0, # of connection points: 4
#     Node 1, Type 0, BuildingBlock: UXUYUI_clean_sbu_0, # of connection points: 4
#     Node 2, Type 0, BuildingBlock: UXUYUI_clean_sbu_0, # of connection points: 4
#     Node 3, Type 0, BuildingBlock: UXUYUI_clean_sbu_0, # of connection points: 4
#     Node 4, Type 0, BuildingBlock: UXUYUI_clean_sbu_0, # of connection points: 4
#     Node 5, Type 0, BuildingBlock: UXUYUI_clean_sbu_0, # of connection points: 4
#     Node 6, Type 0, BuildingBlock: UXUYUI_clean_sbu_0, # of connection points: 4
#     Node 7, Type 0, BuildingBlock: UXUYUI_clean_sbu_0, # of connection points: 4
#     Node 8, Type 0, BuildingBlock: UXUYUI_clean_sbu_0, # of connection points: 4
#     Node 9, Type 0, BuildingBlock: UXUYUI_clean_sbu_0, # of connection points: 4
#     Node 10, Type 0, BuildingBlock: UXUYUI_clean_sbu_0, # of connection points: 4
#     Node 11, Type 0, BuildingBlock: UXUYUI_clean_sbu_0, # of connection points: 4
#     Node 12, Type 0, BuildingBlock: UXUYUI_clean_sbu_0, # of connection points: 4
#     Node 13, Type 0, BuildingBlock: UXUYUI_clean_sbu_0, # of connection points: 4
#     Node 14, Type 0, BuildingBlock: UXUYUI_clean_sbu_0, # of connection points: 4
#     Node 15, Type 0, BuildingBlock: UXUYUI_clean_sbu_0, # of connection points: 4
#     Node 16, Type 0, BuildingBlock: UXUYUI_clean_sbu_0, # of connection points: 4
#     Node 17, Type 0, BuildingBlock: UXUYUI_clean_sbu_0, # of connection points: 4
#     Node 18, Type 0, BuildingBlock: UXUYUI_clean_sbu_0, # of connection points: 4
#     Node 19, Type 0, BuildingBlock: UXUYUI_clean_sbu_0, # of connection points: 4
#     Node 20, Type 0, BuildingBlock: UXUYUI_clean_sbu_0, # of connection points: 4
#     Node 21, Type 0, BuildingBlock: UXUYUI_clean_sbu_0, # of connection points: 4
#     Node 22, Type 0, BuildingBlock: UXUYUI_clean_sbu_0, # of connection points: 4
#     Node 23, Type 0, BuildingBlock: UXUYUI_clean_sbu_0, # of connection points: 4
#     Node 24, Type 1, BuildingBlock: KUMBOL_clean_sbu_0, # of connection points: 6
#     Node 25, Type 1, BuildingBlock: KUMBOL_clean_sbu_0, # of connection points: 6
#     Node 26, Type 1, BuildingBlock: KUMBOL_clean_sbu_0, # of connection points: 6
#     Node 27, Type 1, BuildingBlock: KUMBOL_clean_sbu_0, # of connection points: 6
#     Node 28, Type 1, BuildingBlock: KUMBOL_clean_sbu_0, # of connection points: 6
#     Node 29, Type 1, BuildingBlock: KUMBOL_clean_sbu_0, # of connection points: 6
#     Node 30, Type 1, BuildingBlock: KUMBOL_clean_sbu_0, # of connection points: 6
#     Node 31, Type 1, BuildingBlock: KUMBOL_clean_sbu_0, # of connection points: 6
#     Node 32, Type 1, BuildingBlock: KUMBOL_clean_sbu_0, # of connection points: 6
#     Node 33, Type 1, BuildingBlock: KUMBOL_clean_sbu_0, # of connection points: 6
#     Node 34, Type 1, BuildingBlock: KUMBOL_clean_sbu_0, # of connection points: 6
#     Node 35, Type 1, BuildingBlock: KUMBOL_clean_sbu_0, # of connection points: 6
#     Node 36, Type 1, BuildingBlock: KUMBOL_clean_sbu_0, # of connection points: 6
#     Node 37, Type 1, BuildingBlock: KUMBOL_clean_sbu_0, # of connection points: 6
#     Node 38, Type 1, BuildingBlock: KUMBOL_clean_sbu_0, # of connection points: 6
#     Node 39, Type 1, BuildingBlock: KUMBOL_clean_sbu_0, # of connection points: 6
#     Edge 40, Type (0, 1), BuildingBlock: CIFDUS_clean_linker_0, # of connection points: 2
#     Edge 41, Type (0, 1), BuildingBlock: CIFDUS_clean_linker_0, # of connection points: 2
#     Edge 42, Type (0, 1), BuildingBlock: CIFDUS_clean_linker_0, # of connection points: 2
#     Edge 43, Type (0, 1), BuildingBlock: CIFDUS_clean_linker_0, # of connection points: 2
#     Edge 44, Type (0, 1), BuildingBlock: CIFDUS_clean_linker_0, # of connection points: 2
#     Edge 45, Type (0, 1), BuildingBlock: CIFDUS_clean_linker_0, # of connection points: 2
#     Edge 46, Type (0, 1), BuildingBlock: CIFDUS_clean_linker_0, # of connection points: 2
#     Edge 47, Type (0, 1), BuildingBlock: CIFDUS_clean_linker_0, # of connection points: 2
#     Edge 48, Type (0, 1), BuildingBlock: CIFDUS_clean_linker_0, # of connection points: 2
#     Edge 49, Type (0, 1), BuildingBlock: CIFDUS_clean_linker_0, # of connection points: 2
#     Edge 50, Type (0, 1), BuildingBlock: CIFDUS_clean_linker_0, # of connection points: 2
#     Edge 51, Type (0, 1), BuildingBlock: CIFDUS_clean_linker_0, # of connection points: 2
#     Edge 52, Type (0, 1), BuildingBlock: CIFDUS_clean_linker_0, # of connection points: 2
#     Edge 53, Type (0, 1), BuildingBlock: CIFDUS_clean_linker_0, # of connection points: 2
#     Edge 54, Type (0, 1), BuildingBlock: CIFDUS_clean_linker_0, # of connection points: 2
#     Edge 55, Type (0, 1), BuildingBlock: CIFDUS_clean_linker_0, # of connection points: 2
#     Edge 56, Type (0, 1), BuildingBlock: CIFDUS_clean_linker_0, # of connection points: 2
#     Edge 57, Type (0, 1), BuildingBlock: CIFDUS_clean_linker_0, # of connection points: 2
#     Edge 58, Type (0, 1), BuildingBlock: CIFDUS_clean_linker_0, # of connection points: 2
#     Edge 59, Type (0, 1), BuildingBlock: CIFDUS_clean_linker_0, # of connection points: 2
#     Edge 60, Type (0, 1), BuildingBlock: CIFDUS_clean_linker_0, # of connection points: 2
#     Edge 61, Type (0, 1), BuildingBlock: CIFDUS_clean_linker_0, # of connection points: 2
#     Edge 62, Type (0, 1), BuildingBlock: CIFDUS_clean_linker_0, # of connection points: 2
#     Edge 63, Type (0, 1), BuildingBlock: CIFDUS_clean_linker_0, # of connection points: 2
#     Edge 64, Type (0, 1), BuildingBlock: CIFDUS_clean_linker_0, # of connection points: 2
#     Edge 65, Type (0, 1), BuildingBlock: CIFDUS_clean_linker_0, # of connection points: 2
#     Edge 66, Type (0, 1), BuildingBlock: CIFDUS_clean_linker_0, # of connection points: 2
#     Edge 67, Type (0, 1), BuildingBlock: CIFDUS_clean_linker_0, # of connection points: 2
#     Edge 68, Type (0, 1), BuildingBlock: CIFDUS_clean_linker_0, # of connection points: 2
#     Edge 69, Type (0, 1), BuildingBlock: CIFDUS_clean_linker_0, # of connection points: 2
#     Edge 70, Type (0, 1), BuildingBlock: CIFDUS_clean_linker_0, # of connection points: 2
#     Edge 71, Type (0, 1), BuildingBlock: CIFDUS_clean_linker_0, # of connection points: 2
#     Edge 72, Type (0, 1), BuildingBlock: CIFDUS_clean_linker_0, # of connection points: 2
#     Edge 73, Type (0, 1), BuildingBlock: CIFDUS_clean_linker_0, # of connection points: 2
#     Edge 74, Type (0, 1), BuildingBlock: CIFDUS_clean_linker_0, # of connection points: 2
#     Edge 75, Type (0, 1), BuildingBlock: CIFDUS_clean_linker_0, # of connection points: 2
#     Edge 76, Type (0, 1), BuildingBlock: CIFDUS_clean_linker_0, # of connection points: 2
#     Edge 77, Type (0, 1), BuildingBlock: CIFDUS_clean_linker_0, # of connection points: 2
#     Edge 78, Type (0, 1), BuildingBlock: CIFDUS_clean_linker_0, # of connection points: 2
#     Edge 79, Type (0, 1), BuildingBlock: CIFDUS_clean_linker_0, # of connection points: 2
#     Edge 80, Type (0, 1), BuildingBlock: CIFDUS_clean_linker_0, # of connection points: 2
#     Edge 81, Type (0, 1), BuildingBlock: CIFDUS_clean_linker_0, # of connection points: 2
#     Edge 82, Type (0, 1), BuildingBlock: CIFDUS_clean_linker_0, # of connection points: 2
#     Edge 83, Type (0, 1), BuildingBlock: CIFDUS_clean_linker_0, # of connection points: 2
#     Edge 84, Type (0, 1), BuildingBlock: CIFDUS_clean_linker_0, # of connection points: 2
#     Edge 85, Type (0, 1), BuildingBlock: CIFDUS_clean_linker_0, # of connection points: 2
#     Edge 86, Type (0, 1), BuildingBlock: CIFDUS_clean_linker_0, # of connection points: 2
#     Edge 87, Type (0, 1), BuildingBlock: CIFDUS_clean_linker_0, # of connection points: 2
#     Edge 88, Type (0, 1), BuildingBlock: CIFDUS_clean_linker_0, # of connection points: 2
#     Edge 89, Type (0, 1), BuildingBlock: CIFDUS_clean_linker_0, # of connection points: 2
#     Edge 90, Type (0, 1), BuildingBlock: CIFDUS_clean_linker_0, # of connection points: 2
#     Edge 91, Type (0, 1), BuildingBlock: CIFDUS_clean_linker_0, # of connection points: 2
#     Edge 92, Type (0, 1), BuildingBlock: CIFDUS_clean_linker_0, # of connection points: 2
#     Edge 93, Type (0, 1), BuildingBlock: CIFDUS_clean_linker_0, # of connection points: 2
#     Edge 94, Type (0, 1), BuildingBlock: CIFDUS_clean_linker_0, # of connection points: 2
#     Edge 95, Type (0, 1), BuildingBlock: CIFDUS_clean_linker_0, # of connection points: 2
#     Edge 96, Type (0, 1), BuildingBlock: CIFDUS_clean_linker_0, # of connection points: 2
#     Edge 97, Type (0, 1), BuildingBlock: CIFDUS_clean_linker_0, # of connection points: 2
#     Edge 98, Type (0, 1), BuildingBlock: CIFDUS_clean_linker_0, # of connection points: 2
#     Edge 99, Type (0, 1), BuildingBlock: CIFDUS_clean_linker_0, # of connection points: 2
#     Edge 100, Type (0, 1), BuildingBlock: CIFDUS_clean_linker_0, # of connection points: 2
#     Edge 101, Type (0, 1), BuildingBlock: CIFDUS_clean_linker_0, # of connection points: 2
#     Edge 102, Type (0, 1), BuildingBlock: CIFDUS_clean_linker_0, # of connection points: 2
#     Edge 103, Type (0, 1), BuildingBlock: CIFDUS_clean_linker_0, # of connection points: 2
#     Edge 104, Type (0, 1), BuildingBlock: CIFDUS_clean_linker_0, # of connection points: 2
#     Edge 105, Type (0, 1), BuildingBlock: CIFDUS_clean_linker_0, # of connection points: 2
#     Edge 106, Type (0, 1), BuildingBlock: CIFDUS_clean_linker_0, # of connection points: 2
#     Edge 107, Type (0, 1), BuildingBlock: CIFDUS_clean_linker_0, # of connection points: 2
#     Edge 108, Type (0, 1), BuildingBlock: CIFDUS_clean_linker_0, # of connection points: 2
#     Edge 109, Type (0, 1), BuildingBlock: CIFDUS_clean_linker_0, # of connection points: 2
#     Edge 110, Type (0, 1), BuildingBlock: CIFDUS_clean_linker_0, # of connection points: 2
#     Edge 111, Type (0, 1), BuildingBlock: CIFDUS_clean_linker_0, # of connection points: 2
#     Edge 112, Type (0, 1), BuildingBlock: CIFDUS_clean_linker_0, # of connection points: 2
#     Edge 113, Type (0, 1), BuildingBlock: CIFDUS_clean_linker_0, # of connection points: 2
#     Edge 114, Type (0, 1), BuildingBlock: CIFDUS_clean_linker_0, # of connection points: 2
#     Edge 115, Type (0, 1), BuildingBlock: CIFDUS_clean_linker_0, # of connection points: 2
#     Edge 116, Type (0, 1), BuildingBlock: CIFDUS_clean_linker_0, # of connection points: 2
#     Edge 117, Type (0, 1), BuildingBlock: CIFDUS_clean_linker_0, # of connection points: 2
#     Edge 118, Type (0, 1), BuildingBlock: CIFDUS_clean_linker_0, # of connection points: 2
#     Edge 119, Type (0, 1), BuildingBlock: CIFDUS_clean_linker_0, # of connection points: 2
#     Edge 120, Type (0, 1), BuildingBlock: CIFDUS_clean_linker_0, # of connection points: 2
#     Edge 121, Type (0, 1), BuildingBlock: CIFDUS_clean_linker_0, # of connection points: 2
#     Edge 122, Type (0, 1), BuildingBlock: CIFDUS_clean_linker_0, # of connection points: 2
#     Edge 123, Type (0, 1), BuildingBlock: CIFDUS_clean_linker_0, # of connection points: 2
#     Edge 124, Type (0, 1), BuildingBlock: CIFDUS_clean_linker_0, # of connection points: 2
#     Edge 125, Type (0, 1), BuildingBlock: CIFDUS_clean_linker_0, # of connection points: 2
#     Edge 126, Type (0, 1), BuildingBlock: CIFDUS_clean_linker_0, # of connection points: 2
#     Edge 127, Type (0, 1), BuildingBlock: CIFDUS_clean_linker_0, # of connection points: 2
#     Edge 128, Type (0, 1), BuildingBlock: CIFDUS_clean_linker_0, # of connection points: 2
#     Edge 129, Type (0, 1), BuildingBlock: CIFDUS_clean_linker_0, # of connection points: 2
#     Edge 130, Type (0, 1), BuildingBlock: CIFDUS_clean_linker_0, # of connection points: 2
#     Edge 131, Type (0, 1), BuildingBlock: CIFDUS_clean_linker_0, # of connection points: 2
#     Edge 132, Type (0, 1), BuildingBlock: CIFDUS_clean_linker_0, # of connection points: 2
#     Edge 133, Type (0, 1), BuildingBlock: CIFDUS_clean_linker_0, # of connection points: 2
#     Edge 134, Type (0, 1), BuildingBlock: CIFDUS_clean_linker_0, # of connection points: 2
#     Edge 135, Type (0, 1), BuildingBlock: CIFDUS_clean_linker_0, # of connection points: 2
# Relax obj value: 0.144
# Max RMSD: 0.315
# Mean RMSD: 0.196
data_MOF--net-gar--node1-UXUYUI_clean_sbu_0--node2-KUMBOL_clean_sbu_0--edge1-CIFDUS_clean_linker_0
_symmetry_space_group_name_H-M    P1
_symmetry_Int_Tables_number       1
_symmetry_cell_setting            triclinic
loop_
_symmetry_equiv_pos_as_xyz
'x, y, z'
_cell_length_a     66.847773
_cell_length_b     62.523076
_cell_length_c     62.489025
_cell_angle_alpha  100.3342
_cell_angle_beta   93.196148
_cell_angle_gamma 102.31214
loop_
_atom_site_label
_atom_site_type_symbol
_atom_site_fract_x
_atom_site_fract_y
_atom_site_fract_z
_atom_type_partial_charge
Li0 Li 0.09577 0.32718 0.3776 0.0
Li1 Li 0.12075 0.34673 0.40892 0.0
Li2 Li 0.13149 0.32423 0.37749 0.0
Li3 Li 0.11029 0.30647 0.40372 0.0
C4 C 0.12026 0.36462 0.36407 0.0
N5 N 0.11979 0.3924 0.33439 0.0
C6 C 0.11988 0.38701 0.37127 0.0
C7 C 0.12062 0.35642 0.34182 0.0
C8 C 0.11957 0.40077 0.356 0.0
C9 C 0.12032 0.37071 0.32706 0.0
C10 C 0.08046 0.33072 0.42521 0.0
C11 C 0.0743 0.33262 0.46307 0.0
N12 N 0.05553 0.33681 0.45853 0.0
C13 C 0.06107 0.33492 0.42088 0.0
C14 C 0.08712 0.32945 0.44643 0.0
C15 C 0.0487 0.33799 0.43795 0.0
C16 C 0.0598 0.31167 0.34807 0.0
N17 N 0.0723 0.32968 0.36137 0.0
C18 C 0.05087 0.35348 0.35263 0.0
C19 C 0.0681 0.35025 0.36404 0.0
C20 C 0.03783 0.33531 0.33838 0.0
C21 C 0.04242 0.31414 0.33621 0.0
H22 H 0.06331 0.29541 0.34669 0.0
H23 H 0.07804 0.36409 0.37528 0.0
C24 C 0.14432 0.38654 0.43897 0.0
N25 N 0.12597 0.37433 0.42834 0.0
C26 C 0.1456 0.40784 0.45131 0.0
C27 C 0.10939 0.40368 0.44064 0.0
C28 C 0.10879 0.38259 0.42882 0.0
C29 C 0.12799 0.41656 0.45187 0.0
H30 H 0.15805 0.38024 0.4374 0.0
H31 H 0.09474 0.3731 0.41924 0.0
C32 C 0.10548 0.28374 0.3529 0.0
N33 N 0.10424 0.25139 0.31612 0.0
C34 C 0.10823 0.26266 0.35501 0.0
C35 C 0.1019 0.28833 0.33214 0.0
C36 C 0.10761 0.24654 0.33619 0.0
C37 C 0.10138 0.27177 0.31373 0.0
C38 C 0.1548 0.33498 0.42481 0.0
C39 C 0.17421 0.34391 0.41883 0.0
C40 C 0.15184 0.33634 0.44695 0.0
C41 C 0.19024 0.35441 0.4351 0.0
C42 C 0.16826 0.34699 0.46274 0.0
N43 N 0.18695 0.35576 0.45654 0.0
C44 C 0.16546 0.34346 0.35926 0.0
C45 C 0.15697 0.30391 0.34903 0.0
C46 C 0.18318 0.34464 0.34848 0.0
N47 N 0.15303 0.3233 0.35966 0.0
C48 C 0.17435 0.30434 0.33764 0.0
C49 C 0.18782 0.32488 0.33783 0.0
H50 H 0.1621 0.35855 0.36821 0.0
H51 H 0.14715 0.2881 0.35006 0.0
C52 C 0.08449 0.26915 0.41368 0.0
N53 N 0.10387 0.28213 0.41757 0.0
C54 C 0.07892 0.25128 0.4243 0.0
C55 C 0.11343 0.26059 0.44259 0.0
C56 C 0.11837 0.27816 0.43149 0.0
C57 C 0.09345 0.24698 0.43911 0.0
H58 H 0.07335 0.27289 0.40253 0.0
H59 H 0.1337 0.28871 0.43406 0.0
O60 O 0.12079 0.35101 0.37886 0.0
O61 O 0.09286 0.32813 0.4087 0.0
O62 O 0.10585 0.2996 0.37116 0.0
O63 O 0.1389 0.32468 0.40909 0.0
H64 H 0.11985 0.39373 0.38846 0.0
H65 H 0.12139 0.33929 0.33603 0.0
H66 H 0.11922 0.41812 0.36134 0.0
H67 H 0.1206 0.36457 0.30978 0.0
H68 H 0.07928 0.33175 0.4796 0.0
H69 H 0.05566 0.33591 0.40452 0.0
H70 H 0.10199 0.32607 0.45001 0.0
H71 H 0.0337 0.34134 0.43485 0.0
H72 H 0.04764 0.36995 0.35521 0.0
H73 H 0.03283 0.2997 0.32534 0.0
H74 H 0.1602 0.41761 0.45969 0.0
H75 H 0.09549 0.40999 0.44078 0.0
H76 H 0.11087 0.25883 0.37101 0.0
H77 H 0.09934 0.3044 0.33025 0.0
H78 H 0.10979 0.23016 0.33755 0.0
H79 H 0.09863 0.27509 0.29755 0.0
H80 H 0.17691 0.34276 0.40184 0.0
H81 H 0.13703 0.32937 0.45193 0.0
H82 H 0.2053 0.3615 0.43069 0.0
H83 H 0.16613 0.34832 0.47992 0.0
H84 H 0.19349 0.3607 0.34906 0.0
H85 H 0.17783 0.28882 0.32984 0.0
H86 H 0.06328 0.24133 0.42142 0.0
H87 H 0.12508 0.25769 0.45378 0.0
Li88 Li 0.0087 0.78458 0.64258 0.0
Li89 Li 0.02613 0.76823 0.66983 0.0
Li90 Li 1.00106 0.74447 0.63946 0.0
Li91 Li 0.98924 0.76604 0.67021 0.0
C92 C 0.04026 0.7615 0.62202 0.0
N93 N 0.06558 0.7549 0.58919 0.0
C94 C 0.06122 0.7632 0.62722 0.0
C95 C 0.03215 0.75641 0.60015 0.0
C96 C 0.07377 0.75983 0.61038 0.0
C97 C 0.04521 0.75312 0.58378 0.0
C98 C 0.01878 0.80835 0.69421 0.0
C99 C 0.02272 0.81753 0.73357 0.0
N100 N 0.0324 0.83879 0.73273 0.0
C101 C 0.02871 0.83028 0.69369 0.0
C102 C 0.01572 0.80189 0.71426 0.0
C103 C 0.03552 0.84543 0.71337 0.0
C104 C 0.99779 0.81794 0.62243 0.0
N105 N 0.0131 0.80782 0.6272 0.0
C106 C 0.03648 0.8304 0.60849 0.0
C107 C 0.03224 0.81393 0.62087 0.0
C108 C 0.02099 0.84103 0.60317 0.0
C109 C 1.00151 0.83498 0.61045 0.0
H110 H 0.98274 0.8127 0.62785 0.0
H111 H 0.04424 0.80599 0.62542 0.0
C112 C 0.05577 0.74937 0.68596 0.0
N113 N 0.05095 0.7694 0.68604 0.0
C114 C 0.07413 0.7483 0.69688 0.0
C115 C 0.08239 0.78858 0.70751 0.0
C116 C 0.06382 0.78887 0.69633 0.0
C117 C 0.08774 0.76809 0.70778 0.0
H118 H 0.04537 0.73422 0.67723 0.0
H119 H 0.05987 0.8046 0.6956 0.0
C120 C 0.96553 0.75351 0.62254 0.0
N121 N 0.93429 0.73174 0.59015 0.0
C122 C 0.94659 0.74248 0.62802 0.0
C123 C 0.96843 0.75387 0.60062 0.0
C124 C 0.93101 0.73152 0.61141 0.0
C125 C 0.95249 0.74261 0.58447 0.0
C126 C 1.00111 0.72711 0.68348 0.0
C127 C 0.99114 0.7049 0.67503 0.0
C128 C 0.00873 0.73351 0.7055 0.0
C129 C 0.98889 0.68945 0.68883 0.0
C130 C 1.00614 0.71758 0.71878 0.0
N131 N 0.99637 0.69606 0.71025 0.0
C132 C 0.01476 0.70927 0.62154 0.0
C133 C 0.97926 0.70353 0.61004 0.0
C134 C 0.01521 0.68831 0.61018 0.0
N135 N 0.99709 0.71657 0.62108 0.0
C136 C 0.97896 0.6822 0.59841 0.0
C137 C 0.9971 0.67442 0.59871 0.0
H138 H 0.02845 0.71962 0.63121 0.0
H139 H 0.96518 0.70921 0.61067 0.0
C140 C 0.96373 0.78458 0.69888 0.0
N141 N 0.96786 0.76537 0.68809 0.0
C142 C 0.94658 0.78373 0.71064 0.0
C143 C 0.93845 0.7434 0.69983 0.0
C144 C 0.9559 0.74502 0.6886 0.0
C145 C 0.93358 0.76295 0.71071 0.0
H146 H 0.97336 0.80052 0.69776 0.0
H147 H 0.95937 0.73011 0.67943 0.0
O148 O 0.02783 0.76483 0.63839 0.0
O149 O 0.01185 0.79345 0.6751 0.0
O150 O 0.98101 0.76412 0.63857 0.0
O151 O 1.00405 0.74225 0.67 0.0
H152 H 0.06774 0.76716 0.64409 0.0
H153 H 0.01596 0.75492 0.59588 0.0
H154 H 0.09003 0.76115 0.61416 0.0
H155 H 0.03915 0.74914 0.56676 0.0
H156 H 0.02041 0.81279 0.74923 0.0
H157 H 0.03113 0.83551 0.67825 0.0
H158 H 0.00782 0.78506 0.7149 0.0
H159 H 0.04325 0.86246 0.71324 0.0
H160 H 0.05174 0.83495 0.60326 0.0
H161 H 0.9893 0.843 0.60654 0.0
H162 H 0.07759 0.73214 0.69685 0.0
H163 H 0.09264 0.80422 0.71543 0.0
H164 H 0.94397 0.74226 0.64488 0.0
H165 H 0.98284 0.76268 0.59613 0.0
H166 H 0.91635 0.72277 0.61541 0.0
H167 H 0.9546 0.74253 0.56742 0.0
H168 H 0.98523 0.69962 0.658 0.0
H169 H 0.01683 0.75052 0.7122 0.0
H170 H 0.98124 0.6722 0.68251 0.0
H171 H 0.01201 0.7223 0.73586 0.0
H172 H 0.02959 0.68295 0.61052 0.0
H173 H 0.96472 0.67173 0.58984 0.0
H174 H 0.94291 0.79909 0.71863 0.0
H175 H 0.92852 0.72717 0.69947 0.0
Li176 Li 0.59715 0.8273 0.87876 0.0
Li177 Li 0.62356 0.84986 0.9066 0.0
Li178 Li 0.63313 0.82683 0.87499 0.0
Li179 Li 0.61567 0.80983 0.90432 0.0
C180 C 0.6171 0.86608 0.86218 0.0
N181 N 0.61206 0.89498 0.83469 0.0
C182 C 0.61199 0.88635 0.87038 0.0
C183 C 0.61968 0.86055 0.83998 0.0
C184 C 0.60948 0.9007 0.85623 0.0
C185 C 0.61706 0.87538 0.82636 0.0
C186 C 0.58257 0.83668 0.92258 0.0
C187 C 0.55958 0.83174 0.9506 0.0
N188 N 0.55231 0.84958 0.94679 0.0
C189 C 0.57503 0.85508 0.91906 0.0
C190 C 0.57489 0.82497 0.93854 0.0
C191 C 0.55966 0.86128 0.93141 0.0
C192 C 0.55851 0.80463 0.85605 0.0
N193 N 0.57116 0.82503 0.86383 0.0
C194 C 0.54657 0.84319 0.85044 0.0
C195 C 0.56545 0.84409 0.86143 0.0
C196 C 0.53317 0.82242 0.84213 0.0
C197 C 0.53932 0.80291 0.84497 0.0
H198 H 0.56326 0.78971 0.85856 0.0
H199 H 0.5754 0.86007 0.86824 0.0
C200 C 0.64102 0.89561 0.91879 0.0
N201 N 0.63047 0.87763 0.92602 0.0
C202 C 0.64167 0.91708 0.93022 0.0
C203 C 0.62297 0.90083 0.95769 0.0
C204 C 0.62239 0.87972 0.94556 0.0
C205 C 0.63192 0.91964 0.94944 0.0
H206 H 0.64748 0.89329 0.90328 0.0
H207 H 0.61441 0.86506 0.95106 0.0
C208 C 0.60521 0.78601 0.85278 0.0
N209 N 0.59808 0.75604 0.81343 0.0
C210 C 0.60525 0.76359 0.85226 0.0
C211 C 0.60139 0.79319 0.83335 0.0
C212 C 0.60165 0.74869 0.83218 0.0
C213 C 0.59785 0.77778 0.8136 0.0
C214 C 0.65836 0.84359 0.92144 0.0
C215 C 0.6764 0.8553 0.91478 0.0
C216 C 0.65545 0.84637 0.94367 0.0
C217 C 0.69125 0.86966 0.9305 0.0
C218 C 0.67063 0.86096 0.95887 0.0
N219 N 0.68808 0.87219 0.95203 0.0
C220 C 0.66454 0.84442 0.85184 0.0
C221 C 0.65522 0.80479 0.84415 0.0
C222 C 0.67991 0.84431 0.83772 0.0
N223 N 0.65269 0.82485 0.85482 0.0
C224 C 0.67019 0.80391 0.82957 0.0
C225 C 0.68279 0.82387 0.82651 0.0
H226 H 0.6623 0.86007 0.86082 0.0
H227 H 0.64601 0.78949 0.84733 0.0
C228 C 0.59353 0.77288 0.91761 0.0
N229 N 0.61223 0.7872 0.92012 0.0
C230 C 0.58914 0.75778 0.93149 0.0
C231 C 0.62367 0.77202 0.94958 0.0
C232 C 0.62741 0.78677 0.93528 0.0
C233 C 0.60419 0.75766 0.94804 0.0
H234 H 0.58179 0.77393 0.90545 0.0
H235 H 0.64217 0.79832 0.93667 0.0
O236 O 0.62027 0.85213 0.87596 0.0
O237 O 0.59761 0.83022 0.91075 0.0
O238 O 0.60905 0.8008 0.87227 0.0
O239 O 0.64359 0.82956 0.90627 0.0
H240 H 0.60952 0.89075 0.8874 0.0
H241 H 0.62384 0.84508 0.83334 0.0
H242 H 0.60541 0.91637 0.86236 0.0
H243 H 0.61907 0.87133 0.80916 0.0
H244 H 0.5535 0.82283 0.96301 0.0
H245 H 0.58117 0.86463 0.90715 0.0
H246 H 0.58076 0.81087 0.94167 0.0
H247 H 0.55363 0.87546 0.92884 0.0
H248 H 0.54258 0.85866 0.84841 0.0
H249 H 0.52931 0.78658 0.83904 0.0
H250 H 0.64852 0.93142 0.92347 0.0
H251 H 0.61516 0.90244 0.97243 0.0
H252 H 0.60817 0.75781 0.86722 0.0
H253 H 0.60108 0.81043 0.83355 0.0
H254 H 0.60172 0.7313 0.83151 0.0
H255 H 0.59492 0.7831 0.79841 0.0
H256 H 0.67894 0.85328 0.89767 0.0
H257 H 0.64145 0.83766 0.94908 0.0
H258 H 0.70531 0.87881 0.92558 0.0
H259 H 0.66851 0.8634 0.97611 0.0
H260 H 0.68976 0.85995 0.83593 0.0
H261 H 0.67253 0.7879 0.82155 0.0
H262 H 0.57387 0.74708 0.92996 0.0
H263 H 0.63572 0.77214 0.96197 0.0
Li264 Li 0.50929 0.28109 0.14144 0.0
Li265 Li 0.52481 0.26338 0.16865 0.0
Li266 Li 0.49947 0.24056 0.13865 0.0
Li267 Li 0.48881 0.26445 0.16943 0.0
C268 C 0.54063 0.25736 0.12224 0.0
N269 N 0.56891 0.25392 0.09197 0.0
C270 C 0.56167 0.26488 0.12882 0.0
C271 C 0.53394 0.24811 0.10027 0.0
C272 C 0.57573 0.263 0.11326 0.0
C273 C 0.5485 0.2465 0.08523 0.0
C274 C 0.51874 0.30537 0.193 0.0
C275 C 0.51939 0.31543 0.23216 0.0
N276 N 0.53008 0.33638 0.23152 0.0
C277 C 0.52965 0.327 0.1927 0.0
C278 C 0.51347 0.29952 0.21284 0.0
C279 C 0.53527 0.34244 0.21236 0.0
C280 C 0.50243 0.32032 0.12987 0.0
N281 N 0.51387 0.3047 0.12621 0.0
C282 C 0.53193 0.32311 0.10046 0.0
C283 C 0.52856 0.30595 0.11205 0.0
C284 C 0.52023 0.33931 0.10365 0.0
C285 C 0.50547 0.33807 0.11873 0.0
H286 H 0.49096 0.31893 0.1414 0.0
H287 H 0.53778 0.29378 0.10968 0.0
C288 C 0.55461 0.2423 0.1785 0.0
N289 N 0.54897 0.26197 0.18442 0.0
C290 C 0.57205 0.23853 0.18896 0.0
C291 C 0.57767 0.27549 0.21141 0.0
C292 C 0.56011 0.27859 0.20037 0.0
C293 C 0.58374 0.25517 0.20579 0.0
H294 H 0.54544 0.2295 0.16563 0.0
H295 H 0.55537 0.29415 0.20463 0.0
C296 C 0.46502 0.25116 0.12221 0.0
N297 N 0.43268 0.22938 0.09117 0.0
C298 C 0.44612 0.24129 0.12867 0.0
C299 C 0.46747 0.25014 0.10002 0.0
C300 C 0.42994 0.23033 0.11271 0.0
C301 C 0.45093 0.23897 0.08456 0.0
C302 C 0.50268 0.22431 0.18295 0.0
C303 C 0.4962 0.20132 0.175 0.0
C304 C 0.51078 0.2322 0.20473 0.0
C305 C 0.49807 0.18659 0.18896 0.0
C306 C 0.51244 0.21693 0.21817 0.0
N307 N 0.5061 0.19464 0.21007 0.0
C308 C 0.51209 0.20454 0.12118 0.0
C309 C 0.47645 0.19906 0.11056 0.0
C310 C 0.51204 0.1831 0.11073 0.0
N311 N 0.49458 0.21216 0.12081 0.0
C312 C 0.47566 0.17723 0.09982 0.0
C313 C 0.49362 0.16904 0.10018 0.0
H314 H 0.52607 0.21502 0.1301 0.0
H315 H 0.46254 0.20514 0.11119 0.0
C316 C 0.46108 0.28558 0.19115 0.0
N317 N 0.46773 0.26632 0.18717 0.0
C318 C 0.44379 0.28648 0.20237 0.0
C319 C 0.4412 0.24801 0.20586 0.0
C320 C 0.45844 0.2478 0.19444 0.0
C321 C 0.43361 0.2674 0.20947 0.0
H322 H 0.46881 0.29989 0.1849 0.0
H323 H 0.46391 0.23263 0.1906 0.0
O324 O 0.52666 0.25926 0.13724 0.0
O325 O 0.51288 0.29024 0.17384 0.0
O326 O 0.48098 0.26201 0.13758 0.0
O327 O 0.50094 0.23891 0.16944 0.0
H328 H 0.56708 0.27225 0.14573 0.0
H329 H 0.51768 0.24237 0.09491 0.0
H330 H 0.59207 0.26879 0.1181 0.0
H331 H 0.54357 0.2394 0.06817 0.0
H332 H 0.51543 0.31114 0.24765 0.0
H333 H 0.5337 0.33179 0.17741 0.0
H334 H 0.50477 0.28297 0.21333 0.0
H335 H 0.54373 0.35925 0.21239 0.0
H336 H 0.54373 0.32383 0.08923 0.0
H337 H 0.49624 0.35039 0.12157 0.0
H338 H 0.57639 0.2228 0.18383 0.0
H339 H 0.58618 0.2887 0.22441 0.0
H340 H 0.44399 0.24201 0.14581 0.0
H341 H 0.48202 0.25777 0.09483 0.0
H342 H 0.41525 0.22252 0.11743 0.0
H343 H 0.4526 0.23791 0.06731 0.0
H344 H 0.4896 0.19488 0.15829 0.0
H345 H 0.51596 0.2499 0.21115 0.0
H346 H 0.4931 0.16877 0.18301 0.0
H347 H 0.51879 0.22281 0.23503 0.0
H348 H 0.52633 0.17757 0.11101 0.0
H349 H 0.46118 0.16674 0.09186 0.0
H350 H 0.43795 0.30155 0.20479 0.0
H351 H 0.43329 0.23296 0.21085 0.0
Li352 Li 0.09896 0.83571 0.10066 0.0
Li353 Li 0.1198 0.81968 0.12978 0.0
Li354 Li 0.0956 0.79261 0.09741 0.0
Li355 Li 0.07982 0.81419 0.1279 0.0
C356 C 0.13287 0.81788 0.07993 0.0
N357 N 0.15692 0.81921 0.04548 0.0
C358 C 0.15406 0.82676 0.08389 0.0
C359 C 0.12389 0.80958 0.0585 0.0
C360 C 0.16596 0.8273 0.06624 0.0
C361 C 0.13632 0.81044 0.04128 0.0
C362 C 0.10611 0.86109 0.14992 0.0
C363 C 0.10587 0.87851 0.18754 0.0
N364 N 0.1128 0.89886 0.18237 0.0
C365 C 0.11341 0.88214 0.145 0.0
C366 C 0.10247 0.85918 0.17137 0.0
C367 C 0.11666 0.90105 0.16163 0.0
C368 C 0.08192 0.87356 0.09343 0.0
N369 N 0.09632 0.86203 0.08639 0.0
C370 C 0.10493 0.88644 0.06064 0.0
C371 C 0.1078 0.86832 0.07024 0.0
C372 C 0.09003 0.89864 0.06743 0.0
C373 C 0.0786 0.89182 0.08432 0.0
H374 H 0.07278 0.86851 0.10619 0.0
H375 H 0.11922 0.85925 0.06465 0.0
C376 C 0.15029 0.80099 0.15036 0.0
N377 N 0.14587 0.82096 0.1485 0.0
C378 C 0.16816 0.79994 0.16291 0.0
C379 C 0.17722 0.84005 0.1714 0.0
C380 C 0.15902 0.84035 0.15888 0.0
C381 C 0.18218 0.81962 0.17365 0.0
H382 H 0.13993 0.78566 0.14196 0.0
H383 H 0.15549 0.85616 0.1574 0.0
C384 C 0.05895 0.804 0.0786 0.0
N385 N 0.02846 0.79197 0.04417 0.0
C386 C 0.0395 0.7916 0.08111 0.0
C387 C 0.0629 0.81034 0.05864 0.0
C388 C 0.02428 0.78568 0.06349 0.0
C389 C 0.04729 0.80405 0.04141 0.0
C390 C 0.09162 0.77766 0.14252 0.0
C391 C 0.0778 0.75732 0.13411 0.0
C392 C 0.09953 0.78262 0.16445 0.0
C393 C 0.07217 0.74216 0.14782 0.0
C394 C 0.09358 0.76698 0.17762 0.0
N395 N 0.08014 0.74724 0.1691 0.0
C396 C 0.10314 0.74844 0.08899 0.0
C397 C 0.07962 0.75326 0.06179 0.0
C398 C 0.10012 0.72558 0.07975 0.0
N399 N 0.09271 0.76183 0.08025 0.0
C400 C 0.0762 0.73051 0.05192 0.0
C401 C 0.08617 0.71571 0.06092 0.0
H402 H 0.11346 0.75537 0.10373 0.0
H403 H 0.07134 0.76393 0.05492 0.0
C404 C 0.05099 0.83263 0.15356 0.0
N405 N 0.05542 0.81302 0.14417 0.0
C406 C 0.03373 0.8328 0.16529 0.0
C407 C 0.025 0.79259 0.15665 0.0
C408 C 0.04252 0.79319 0.14513 0.0
C409 C 0.02055 0.81259 0.16731 0.0
H410 H 0.06085 0.84826 0.15192 0.0
H411 H 0.04571 0.77776 0.13688 0.0
O412 O 0.12105 0.81708 0.09702 0.0
O413 O 0.10204 0.84252 0.13366 0.0
O414 O 0.07386 0.81048 0.09582 0.0
O415 O 0.09774 0.79246 0.12923 0.0
H416 H 0.1612 0.83315 0.10045 0.0
H417 H 0.10754 0.80244 0.05522 0.0
H418 H 0.18239 0.83413 0.06904 0.0
H419 H 0.12961 0.80409 0.02459 0.0
H420 H 0.10292 0.87734 0.20418 0.0
H421 H 0.11645 0.88386 0.12849 0.0
H422 H 0.09682 0.84297 0.17539 0.0
H423 H 0.12219 0.91746 0.15804 0.0
H424 H 0.11454 0.89092 0.04803 0.0
H425 H 0.06678 0.90017 0.0902 0.0
H426 H 0.17118 0.78375 0.16372 0.0
H427 H 0.18727 0.85577 0.17941 0.0
H428 H 0.03618 0.78669 0.09651 0.0
H429 H 0.07782 0.82013 0.05652 0.0
H430 H 0.00913 0.77613 0.06519 0.0
H431 H 0.05012 0.80884 0.02586 0.0
H432 H 0.07131 0.75336 0.11724 0.0
H433 H 0.11021 0.79834 0.17118 0.0
H434 H 0.06146 0.72636 0.14155 0.0
H435 H 0.09965 0.77053 0.1946 0.0
H436 H 0.10872 0.71604 0.0878 0.0
H437 H 0.06533 0.725 0.0376 0.0
H438 H 0.03075 0.84869 0.17276 0.0
H439 H 0.01536 0.77659 0.15768 0.0
Li440 Li 0.52885 0.79946 0.45141 0.0
Li441 Li 0.50416 0.77304 0.41997 0.0
Li442 Li 0.52596 0.75638 0.44836 0.0
Li443 Li 0.54387 0.7763 0.42016 0.0
C444 C 0.49283 0.77988 0.47001 0.0
N445 N 0.47016 0.78943 0.50463 0.0
C446 C 0.47507 0.78777 0.46685 0.0
C447 C 0.49906 0.77674 0.49071 0.0
C448 C 0.46382 0.79253 0.48457 0.0
C449 C 0.4874 0.78172 0.50803 0.0
C450 C 0.52851 0.81165 0.40377 0.0
C451 C 0.53221 0.81498 0.36631 0.0
N452 N 0.53228 0.83707 0.37177 0.0
C453 C 0.52867 0.83437 0.40904 0.0
C454 C 0.53024 0.80181 0.38226 0.0
C455 C 0.53052 0.84693 0.39261 0.0
C456 C 0.55112 0.84329 0.47696 0.0
N457 N 0.53224 0.83073 0.46806 0.0
C458 C 0.51821 0.8636 0.47522 0.0
C459 C 0.51586 0.84051 0.46739 0.0
C460 C 0.53756 0.87706 0.48423 0.0
C461 C 0.55405 0.86637 0.48537 0.0
H462 H 0.56418 0.83563 0.47683 0.0
H463 H 0.50106 0.83059 0.45978 0.0
C464 C 0.46486 0.75452 0.38977 0.0
N465 N 0.47779 0.77288 0.40248 0.0
C466 C 0.44672 0.75636 0.3781 0.0
C467 C 0.45519 0.79579 0.39277 0.0
C468 C 0.47313 0.79325 0.40398 0.0
C469 C 0.44142 0.77724 0.37954 0.0
H470 H 0.46845 0.73832 0.38875 0.0
H471 H 0.48339 0.80774 0.41408 0.0
C472 C 0.56575 0.78426 0.46909 0.0
N473 N 0.59567 0.78894 0.50295 0.0
C474 C 0.58443 0.77855 0.46479 0.0
C475 C 0.56226 0.79238 0.49056 0.0
C476 C 0.59937 0.78102 0.48216 0.0
C477 C 0.57759 0.79462 0.50746 0.0
C478 C 0.52135 0.73042 0.40028 0.0
C479 C 0.533 0.71571 0.40565 0.0
C480 C 0.51069 0.72616 0.37953 0.0
C481 C 0.53354 0.69672 0.39022 0.0
C482 C 0.51165 0.70702 0.36453 0.0
N483 N 0.52293 0.69281 0.37016 0.0
C484 C 0.51303 0.70991 0.45429 0.0
C485 C 0.54372 0.72872 0.47622 0.0
C486 C 0.51491 0.6895 0.45996 0.0
N487 N 0.52754 0.72916 0.46198 0.0
C488 C 0.5461 0.70861 0.48245 0.0
C489 C 0.53188 0.68831 0.47388 0.0
H490 H 0.50032 0.71012 0.44288 0.0
H491 H 0.55538 0.74377 0.48226 0.0
C492 C 0.58422 0.79493 0.40756 0.0
N493 N 0.56759 0.77732 0.40247 0.0
C494 C 0.60132 0.79594 0.39521 0.0
C495 C 0.58421 0.76044 0.373 0.0
C496 C 0.5675 0.76022 0.38556 0.0
C497 C 0.6014 0.77863 0.37737 0.0
H498 H 0.58418 0.80837 0.42113 0.0
H499 H 0.55441 0.74633 0.38151 0.0
O500 O 0.50369 0.77451 0.45275 0.0
O501 O 0.52711 0.79919 0.4197 0.0
O502 O 0.55103 0.78211 0.45232 0.0
O503 O 0.52035 0.74892 0.41522 0.0
H504 H 0.46997 0.79008 0.45085 0.0
H505 H 0.51266 0.77038 0.49332 0.0
H506 H 0.45001 0.79862 0.48238 0.0
H507 H 0.492 0.77936 0.52416 0.0
H508 H 0.53369 0.80765 0.3496 0.0
H509 H 0.52745 0.84226 0.42562 0.0
H510 H 0.53021 0.78424 0.37798 0.0
H511 H 0.53063 0.86453 0.39644 0.0
H512 H 0.50499 0.8709 0.474 0.0
H513 H 0.56933 0.87594 0.49189 0.0
H514 H 0.43672 0.74142 0.36841 0.0
H515 H 0.4523 0.81237 0.39435 0.0
H516 H 0.58732 0.77225 0.44823 0.0
H517 H 0.54789 0.79696 0.49409 0.0
H518 H 0.6139 0.77666 0.4791 0.0
H519 H 0.57513 0.80089 0.52417 0.0
H520 H 0.54168 0.71899 0.42148 0.0
H521 H 0.50191 0.73761 0.375 0.0
H522 H 0.54244 0.68515 0.39417 0.0
H523 H 0.50347 0.7035 0.34841 0.0
H524 H 0.50329 0.67457 0.45298 0.0
H525 H 0.55954 0.70881 0.49306 0.0
H526 H 0.61405 0.81041 0.39923 0.0
H527 H 0.58354 0.74641 0.35979 0.0
Li528 Li 0.5977 0.33609 0.60022 0.0
Li529 Li 0.61944 0.32002 0.62886 0.0
Li530 Li 0.59424 0.29314 0.59718 0.0
Li531 Li 0.57932 0.31495 0.62829 0.0
C532 C 0.63203 0.31794 0.57948 0.0
N533 N 0.65743 0.31884 0.54615 0.0
C534 C 0.65303 0.32764 0.58415 0.0
C535 C 0.62393 0.30859 0.55792 0.0
C536 C 0.66563 0.32795 0.56705 0.0
C537 C 0.63703 0.30925 0.54128 0.0
C538 C 0.60348 0.36133 0.64962 0.0
C539 C 0.59755 0.37779 0.68595 0.0
N540 N 0.6056 0.39842 0.68193 0.0
C541 C 0.61178 0.38266 0.64588 0.0
C542 C 0.5964 0.35881 0.66984 0.0
C543 C 0.61271 0.40121 0.66242 0.0
C544 C 0.57605 0.36489 0.57961 0.0
N545 N 0.59525 0.36255 0.58603 0.0
C546 C 0.60968 0.39883 0.57796 0.0
C547 C 0.61198 0.37904 0.58482 0.0
C548 C 0.59002 0.40183 0.57163 0.0
C549 C 0.57313 0.38418 0.57212 0.0
H550 H 0.56274 0.35212 0.58103 0.0
H551 H 0.62715 0.37736 0.59013 0.0
C552 C 0.64868 0.29949 0.64774 0.0
N553 N 0.64575 0.3202 0.64654 0.0
C554 C 0.6656 0.29674 0.66054 0.0
C555 C 0.67757 0.33665 0.66972 0.0
C556 C 0.66004 0.33869 0.65708 0.0
C557 C 0.68038 0.3154 0.67197 0.0
H558 H 0.63758 0.28489 0.63902 0.0
H559 H 0.65777 0.3551 0.65596 0.0
C560 C 0.55785 0.30309 0.57864 0.0
N561 N 0.52817 0.28798 0.54348 0.0
C562 C 0.53829 0.29116 0.58141 0.0
C563 C 0.56236 0.30731 0.55801 0.0
C564 C 0.52348 0.28367 0.56342 0.0
C565 C 0.54713 0.29952 0.54043 0.0
C566 C 0.59169 0.27729 0.64129 0.0
C567 C 0.57735 0.25745 0.63243 0.0
C568 C 0.60063 0.28073 0.66274 0.0
C569 C 0.57243 0.24116 0.64512 0.0
C570 C 0.59525 0.26407 0.67492 0.0
N571 N 0.58141 0.24477 0.66591 0.0
C572 C 0.60585 0.25159 0.58664 0.0
C573 C 0.57532 0.25097 0.56538 0.0
C574 C 0.60407 0.22871 0.57852 0.0
N575 N 0.59147 0.26231 0.58029 0.0
C576 C 0.57303 0.22804 0.5567 0.0
C577 C 0.58732 0.21635 0.56351 0.0
H578 H 0.61844 0.26068 0.59869 0.0
H579 H 0.56376 0.25941 0.56068 0.0
C580 C 0.5407 0.32429 0.6385 0.0
N581 N 0.55522 0.31399 0.64525 0.0
C582 C 0.52223 0.32323 0.64834 0.0
C583 C 0.53393 0.30142 0.67245 0.0
C584 C 0.55221 0.30289 0.66212 0.0
C585 C 0.5184 0.31142 0.66544 0.0
H586 H 0.5433 0.33306 0.62511 0.0
H587 H 0.56378 0.29481 0.66744 0.0
O588 O 0.61955 0.3173 0.59604 0.0
O589 O 0.60187 0.34307 0.63338 0.0
O590 O 0.57237 0.31105 0.59615 0.0
O591 O 0.59716 0.29319 0.62897 0.0
H592 H 0.65951 0.33483 0.60082 0.0
H593 H 0.60775 0.30075 0.55411 0.0
H594 H 0.68192 0.33541 0.57041 0.0
H595 H 0.631 0.30208 0.5245 0.0
H596 H 0.59201 0.37613 0.70165 0.0
H597 H 0.61747 0.38487 0.63039 0.0
H598 H 0.58999 0.34239 0.673 0.0
H599 H 0.61906 0.41783 0.65972 0.0
H600 H 0.6232 0.412 0.57818 0.0
H601 H 0.55765 0.38577 0.56791 0.0
H602 H 0.66704 0.28001 0.66158 0.0
H603 H 0.68845 0.35156 0.67828 0.0
H604 H 0.53458 0.2878 0.5973 0.0
H605 H 0.57738 0.31671 0.55566 0.0
H606 H 0.50825 0.27447 0.56532 0.0
H607 H 0.55037 0.30273 0.52439 0.0
H608 H 0.57011 0.25464 0.61593 0.0
H609 H 0.61152 0.29616 0.66993 0.0
H610 H 0.56146 0.22564 0.63843 0.0
H611 H 0.60207 0.26648 0.69153 0.0
H612 H 0.61568 0.22076 0.58417 0.0
H613 H 0.55971 0.21938 0.5454 0.0
H614 H 0.51099 0.33153 0.64247 0.0
H615 H 0.53174 0.29192 0.68535 0.0
Li616 Li 0.02589 0.29527 0.94782 0.0
Li617 Li 1.00206 0.26827 0.91673 0.0
Li618 Li 0.02467 0.25279 0.94571 0.0
Li619 Li 0.04205 0.27294 0.91711 0.0
C620 C 0.9908 0.27554 0.96709 0.0
N621 N 0.9692 0.28669 1.00222 0.0
C622 C 0.97357 0.28441 0.96426 0.0
C623 C 0.99697 0.27214 0.98771 0.0
C624 C 0.96286 0.28997 0.98224 0.0
C625 C 0.98588 0.27797 1.0053 0.0
C626 C 0.02349 0.30991 0.90314 0.0
C627 C 0.03267 0.32513 0.8713 0.0
N628 N 0.02342 0.34217 0.87823 0.0
C629 C 0.01394 0.32746 0.90987 0.0
C630 C 0.03283 0.30862 0.88365 0.0
C631 C 0.01411 0.34364 0.89708 0.0
C632 C 0.04333 0.34214 0.95632 0.0
N633 N 0.02966 0.32666 0.96423 0.0
C634 C 0.02011 0.35637 0.989 0.0
C635 C 0.01832 0.33345 0.98057 0.0
C636 C 0.0334 0.37265 0.98032 0.0
C637 C 0.04525 0.36513 0.96391 0.0
H638 H 0.05227 0.33663 0.94339 0.0
H639 H 0.00748 0.32121 0.98681 0.0
C640 C 0.96679 0.24838 0.8823 0.0
N641 N 0.97574 0.26655 0.89806 0.0
C642 C 0.9494 0.24846 0.86841 0.0
C643 C 0.94986 0.28557 0.88743 0.0
C644 C 0.96734 0.28485 0.90084 0.0
C645 C 0.94066 0.26734 0.87056 0.0
H646 H 0.97325 0.23378 0.88024 0.0
H647 H 0.97438 0.29922 0.91335 0.0
C648 C 0.06351 0.28397 0.9665 0.0
N649 N 0.09351 0.29407 1.00125 0.0
C650 C 0.08353 0.28194 0.96295 0.0
C651 C 0.05874 0.29127 0.98766 0.0
C652 C 0.09848 0.28707 0.98076 0.0
C653 C 0.07414 0.29627 1.00504 0.0
C654 C 0.02189 0.22811 0.89602 0.0
C655 C 0.0305 0.21082 0.90083 0.0
C656 C 0.01566 0.22827 0.87435 0.0
C657 C 0.03272 0.1939 0.88384 0.0
C658 C 0.01803 0.21098 0.85781 0.0
N659 N 0.02646 0.19431 0.86286 0.0
C660 C 0.01419 0.2121 0.9671 0.0
C661 C 0.04899 0.2244 0.96139 0.0
C662 C 0.01863 0.19329 0.97457 0.0
N663 N 0.02928 0.22722 0.96035 0.0
C664 C 0.05399 0.20582 0.96845 0.0
C665 C 0.03876 0.18967 0.97499 0.0
H666 H 0.99851 0.2141 0.96601 0.0
H667 H 0.06086 0.23604 0.95564 0.0
C668 C 0.08001 0.29594 0.90555 0.0
N669 N 0.06665 0.27561 0.90093 0.0
C670 C 0.09875 0.29948 0.89619 0.0
C671 C 0.08992 0.26112 0.87726 0.0
C672 C 0.07129 0.25832 0.88698 0.0
C673 C 0.10417 0.28191 0.8819 0.0
H674 H 0.0762 0.30945 0.91679 0.0
H675 H 0.06082 0.24216 0.88361 0.0
O676 O 1.00132 0.26972 0.94966 0.0
O677 O 0.02445 0.29454 0.91595 0.0
O678 O 0.04873 0.27917 0.94925 0.0
O679 O 0.01934 0.24463 0.91248 0.0
H680 H 0.96849 0.28694 0.94837 0.0
H681 H 0.01015 0.26503 0.99008 0.0
H682 H 0.94949 0.29688 0.98031 0.0
H683 H 0.99051 0.27551 0.02138 0.0
H684 H 0.03995 0.32442 0.85624 0.0
H685 H 1.00662 0.3287 0.92493 0.0
H686 H 0.04023 0.29509 0.87818 0.0
H687 H 1.00691 0.35742 0.90217 0.0
H688 H 0.01065 0.3613 1.00166 0.0
H689 H 0.05589 0.37695 0.95688 0.0
H690 H 0.94286 0.23375 0.85603 0.0
H691 H 0.94403 0.30062 0.88987 0.0
H692 H 0.08744 0.27635 0.94662 0.0
H693 H 0.04336 0.29317 0.99061 0.0
H694 H 0.11403 0.2855 0.97828 0.0
H695 H 0.07069 0.30195 0.02152 0.0
H696 H 0.03541 0.21042 0.91747 0.0
H697 H 0.00915 0.24166 0.87034 0.0
H698 H 0.03939 0.18044 0.88734 0.0
H699 H 0.01321 0.21082 0.84096 0.0
H700 H 1.00623 0.18114 0.97899 0.0
H701 H 0.06965 0.20374 0.96813 0.0
H702 H 0.10882 0.31597 0.90012 0.0
H703 H 0.09328 0.2469 0.86665 0.0
Li704 Li 0.43162 0.04455 0.32262 0.0
Li705 Li 0.39895 0.02403 0.30137 0.0
Li706 Li 0.42624 0.04586 0.2841 0.0
Li707 Li 0.40568 0.0634 0.31067 0.0
C708 C 0.43845 1.00438 0.29811 0.0
N709 N 0.46206 0.9734 0.3003 0.0
C710 C 0.42949 0.98327 0.30203 0.0
C711 C 0.45939 0.00966 0.29516 0.0
C712 C 0.4417 0.96785 0.30308 0.0
C713 C 0.47108 0.9938 0.2964 0.0
C714 C 0.39036 0.04534 0.34659 0.0
C715 C 0.35626 0.04609 0.35688 0.0
N716 N 0.36339 0.04888 0.37825 0.0
C717 C 0.39739 0.04831 0.36863 0.0
C718 C 0.36966 0.04423 0.34063 0.0
C719 C 0.3835 0.05002 0.3844 0.0
C720 C 0.46104 0.06697 0.35586 0.0
N721 N 0.45179 0.04607 0.34493 0.0
C722 C 0.47426 0.03006 0.36465 0.0
C723 C 0.45762 0.0277 0.34938 0.0
C724 C 0.48444 0.05149 0.3757 0.0
C725 C 0.47758 0.07011 0.37144 0.0
H726 H 0.4557 0.0812 0.35224 0.0
H727 H 0.44942 0.01124 0.34119 0.0
C728 C 0.3754 0.98432 0.27701 0.0
N729 N 0.37903 0.99735 0.29732 0.0
C730 C 0.36115 0.96404 0.27317 0.0
C731 C 0.35555 0.97029 0.31153 0.0
C732 C 0.36959 0.99074 0.31453 0.0
C733 C 0.35133 0.95688 0.29064 0.0
H734 H 0.38401 0.98941 0.26395 0.0
H735 H 0.37363 1.00078 0.33074 0.0
C736 C 0.45366 0.08514 0.30625 0.0
N737 N 0.48974 0.11359 0.30022 0.0
C738 C 0.45337 0.10625 0.30193 0.0
C739 C 0.47232 0.07852 0.30754 0.0
C740 C 0.47177 0.12038 0.29889 0.0
C741 C 0.49039 0.09315 0.30446 0.0
C742 C 0.38175 0.03332 0.26438 0.0
C743 C 0.38741 0.02717 0.24334 0.0
C744 C 0.36107 0.02742 0.26826 0.0
C745 C 0.37238 0.01492 0.22665 0.0
C746 C 0.3465 0.01518 0.25113 0.0
N747 N 0.35241 0.00922 0.23086 0.0
C748 C 0.44408 0.02599 0.25015 0.0
C749 C 0.44987 0.06521 0.25269 0.0
C750 C 0.45811 0.0245 0.23475 0.0
N751 N 0.44096 0.04621 0.25945 0.0
C752 C 0.46391 0.06445 0.237 0.0
C753 C 0.46854 0.04397 0.22857 0.0
H754 H 0.4362 0.01109 0.25529 0.0
H755 H 0.44664 0.08097 0.25994 0.0
C756 C 0.40551 0.10784 0.32825 0.0
N757 N 0.39398 0.08772 0.31772 0.0
C758 C 0.39806 0.12704 0.32817 0.0
C759 C 0.36639 0.1038 0.30843 0.0
C760 C 0.37455 0.08523 0.30863 0.0
C761 C 0.3786 0.1251 0.31735 0.0
H762 H 0.421 0.10915 0.33522 0.0
H763 H 0.36597 0.06906 0.3001 0.0
O764 O 0.42669 0.01963 0.2969 0.0
O765 O 0.40354 0.0423 0.33094 0.0
O766 O 0.43576 0.0712 0.30945 0.0
O767 O 0.39631 0.04533 0.28094 0.0
H768 H 0.41331 0.97887 0.30431 0.0
H769 H 0.46654 0.02579 0.29188 0.0
H770 H 0.43498 0.95147 0.30613 0.0
H771 H 0.4873 0.9977 0.29421 0.0
H772 H 0.34016 0.04512 0.3525 0.0
H773 H 0.41335 0.04892 0.37346 0.0
H774 H 0.36391 0.04145 0.32362 0.0
H775 H 0.38867 0.05213 0.40152 0.0
H776 H 0.47878 0.01533 0.36822 0.0
H777 H 0.48493 0.08683 0.38006 0.0
H778 H 0.35884 0.95339 0.2571 0.0
H779 H 0.34887 0.9645 0.32545 0.0
H780 H 0.43905 0.11159 0.30066 0.0
H781 H 0.47289 0.06235 0.31103 0.0
H782 H 0.47174 0.13672 0.29545 0.0
H783 H 0.50494 0.08825 0.30546 0.0
H784 H 0.40321 0.03179 0.23984 0.0
H785 H 0.35633 0.03169 0.28442 0.0
H786 H 0.37659 0.00998 0.21033 0.0
H787 H 0.3305 0.01031 0.254 0.0
H788 H 0.46114 1.00839 0.22807 0.0
H789 H 0.47161 0.07967 0.23217 0.0
H790 H 0.40788 0.14324 0.33513 0.0
H791 H 0.35149 0.1016 0.29951 0.0
Li792 Li 0.30247 0.21561 0.5352 0.0
Li793 Li 0.31892 0.18588 0.51365 0.0
Li794 Li 0.30363 0.21171 0.49433 0.0
Li795 Li 0.28017 0.18097 0.50812 0.0
C796 C 0.34369 0.2362 0.51941 0.0
N797 N 0.37769 0.27073 0.52108 0.0
C798 C 0.36346 0.23211 0.52022 0.0
C799 C 0.34122 0.25784 0.51946 0.0
C800 C 0.38045 0.2498 0.5211 0.0
C801 C 0.3586 0.27507 0.52027 0.0
C802 C 0.29827 0.16721 0.54774 0.0
C803 C 0.29307 0.12866 0.55101 0.0
N804 N 0.29882 0.13523 0.57285 0.0
C805 C 0.30404 0.17361 0.5702 0.0
C806 C 0.29269 0.14459 0.53801 0.0
C807 C 0.30427 0.15718 0.58262 0.0
C808 C 0.28625 0.23984 0.57142 0.0
N809 N 0.30343 0.23366 0.56419 0.0
C810 C 0.32115 0.24681 0.60016 0.0
C811 C 0.32086 0.23742 0.57797 0.0
C812 C 0.30348 0.25278 0.6082 0.0
C813 C 0.28602 0.2497 0.59343 0.0
H814 H 0.27243 0.23628 0.56032 0.0
H815 H 0.33422 0.23206 0.57197 0.0
C816 C 0.35022 0.1641 0.49698 0.0
N817 N 0.34149 0.17124 0.51534 0.0
C818 C 0.3671 0.15423 0.49835 0.0
C819 C 0.36613 0.15986 0.5375 0.0
C820 C 0.34917 0.16937 0.53537 0.0
C821 C 0.37528 0.15218 0.51885 0.0
H822 H 0.34422 0.16631 0.48128 0.0
H823 H 0.34235 0.17561 0.54978 0.0
C824 C 0.26926 0.22905 0.50813 0.0
N825 N 0.24815 0.26073 0.50031 0.0
C826 C 0.25021 0.22252 0.49564 0.0
C827 C 0.27749 0.25162 0.51686 0.0
C828 C 0.2398 0.23882 0.4918 0.0
C829 C 0.2666 0.2674 0.51267 0.0
C830 C 0.29707 0.16215 0.468 0.0
C831 C 0.28974 0.16581 0.4479 0.0
C832 C 0.30135 0.14149 0.4694 0.0
C833 C 0.28696 0.14877 0.42944 0.0
C834 C 0.29843 0.12489 0.45055 0.0
N835 N 0.29137 0.12885 0.43113 0.0
C836 C 0.32641 0.23461 0.4642 0.0
C837 C 0.29027 0.22767 0.45676 0.0
C838 C 0.32931 0.24379 0.44541 0.0
N839 N 0.30711 0.22685 0.46962 0.0
C840 C 0.29247 0.23639 0.43764 0.0
C841 C 0.31221 0.24455 0.43167 0.0
H842 H 0.33963 0.23315 0.4741 0.0
H843 H 0.27507 0.22083 0.46089 0.0
C844 C 0.24099 0.16372 0.52076 0.0
N845 N 0.25346 0.15996 0.50469 0.0
C846 C 0.2215 0.14961 0.52007 0.0
C847 C 0.22783 0.12782 0.48626 0.0
C848 C 0.24723 0.14239 0.48759 0.0
C849 C 0.21454 0.13129 0.50263 0.0
H850 H 0.24624 0.17771 0.53425 0.0
H851 H 0.25724 0.13962 0.4749 0.0
O852 O 0.32691 0.21897 0.51823 0.0
O853 O 0.29803 0.18306 0.53536 0.0
O854 O 0.27949 0.21333 0.51233 0.0
O855 O 0.30062 0.17892 0.48606 0.0
H856 H 0.36566 0.21545 0.52016 0.0
H857 H 0.32605 0.26125 0.51857 0.0
H858 H 0.39583 0.24688 0.52176 0.0
H859 H 0.3569 0.29188 0.52019 0.0
H860 H 0.2888 0.11107 0.54374 0.0
H861 H 0.30834 0.19106 0.57795 0.0
H862 H 0.28813 0.13943 0.52063 0.0
H863 H 0.30876 0.16189 0.60002 0.0
H864 H 0.33488 0.2488 0.61107 0.0
H865 H 0.27201 0.25379 0.59908 0.0
H866 H 0.37394 0.14868 0.48365 0.0
H867 H 0.37209 0.15855 0.55358 0.0
H868 H 0.24359 0.20506 0.48895 0.0
H869 H 0.29199 0.25685 0.52697 0.0
H870 H 0.22507 0.23404 0.48209 0.0
H871 H 0.27278 0.28495 0.51931 0.0
H872 H 0.28629 0.18164 0.44653 0.0
H873 H 0.307 0.13837 0.48485 0.0
H874 H 0.28136 0.15142 0.41377 0.0
H875 H 0.30182 0.10887 0.45135 0.0
H876 H 0.34481 0.24953 0.44128 0.0
H877 H 0.27883 0.23664 0.42757 0.0
H878 H 0.21213 0.15291 0.53331 0.0
H879 H 0.22319 0.11416 0.47234 0.0
Li880 Li 0.19805 0.04022 0.77394 0.0
Li881 Li 0.16748 0.01603 0.79254 0.0
Li882 Li 0.1942 0.99364 0.76871 0.0
Li883 Li 0.16602 0.01356 0.74702 0.0
C884 C 0.21212 0.02564 0.81474 0.0
N885 N 0.23811 0.03758 0.85293 0.0
C886 C 0.20824 0.04106 0.83222 0.0
C887 C 0.22927 0.01642 0.81656 0.0
C888 C 0.22153 0.04682 0.85145 0.0
C889 C 0.24224 0.02267 0.83602 0.0
C890 C 0.15343 0.05226 0.77531 0.0
C891 C 0.11874 0.05661 0.76911 0.0
N892 N 0.12473 0.0782 0.77991 0.0
C893 C 0.15927 0.07446 0.78635 0.0
C894 C 0.13305 0.04322 0.76658 0.0
C895 C 0.14451 0.08731 0.78849 0.0
C896 C 0.21089 0.08577 0.7633 0.0
N897 N 0.2168 0.07223 0.77621 0.0
C898 C 0.2463 0.10255 0.79155 0.0
C899 C 0.2343 0.08052 0.79026 0.0
C900 C 0.24065 0.117 0.77836 0.0
C901 C 0.2224 0.10791 0.76413 0.0
H902 H 0.19703 0.07945 0.75218 0.0
H903 H 0.23907 0.07011 0.80072 0.0
C904 C 0.16027 0.00964 0.8397 0.0
N905 N 0.15213 0.01732 0.82273 0.0
C906 C 0.15213 0.01116 0.86049 0.0
C907 C 0.12642 0.02787 0.84696 0.0
C908 C 0.1352 0.02625 0.82637 0.0
C909 C 0.13489 0.0206 0.865 0.0
H910 H 0.17351 1.00241 0.8374 0.0
H911 H 0.12841 0.03255 0.81338 0.0
C912 C 0.20835 0.01431 0.72905 0.0
N913 N 0.23057 0.01132 0.69314 0.0
C914 C 0.19902 1.00138 0.70896 0.0
C915 C 0.22895 0.0257 0.73094 0.0
C916 C 0.21052 1.00011 0.69097 0.0
C917 C 0.23994 0.02396 0.71257 0.0
C918 C 0.14541 0.97065 0.76293 0.0
C919 C 0.14807 0.94906 0.75563 0.0
C920 C 0.12584 0.97401 0.76689 0.0
C921 C 0.13098 0.93109 0.75234 0.0
C922 C 0.10915 0.9556 0.76339 0.0
N923 N 0.11204 0.93471 0.75625 0.0
C924 C 0.20906 0.95584 0.78698 0.0
C925 C 0.22146 0.95737 0.75299 0.0
C926 C 0.21885 0.93796 0.78927 0.0
N927 N 0.21019 0.96568 0.76903 0.0
C928 C 0.23144 0.93922 0.75461 0.0
C929 C 0.23043 0.92854 0.77299 0.0
H930 H 0.20054 0.96195 0.80006 0.0
H931 H 0.22289 0.96472 0.73857 0.0
C932 C 0.15688 0.03284 0.70586 0.0
N933 N 0.1493 0.01574 0.7164 0.0
C934 C 0.14671 0.03577 0.68606 0.0
C935 C 0.12067 1.00353 0.68722 0.0
C936 C 0.1313 1.00119 0.70699 0.0
C937 C 0.12797 0.02116 0.67594 0.0
H938 H 0.17102 0.04467 0.71284 0.0
H939 H 0.12486 0.98749 0.71478 0.0
O940 O 0.19893 0.01916 0.79609 0.0
O941 O 0.16759 0.0394 0.77289 0.0
O942 O 0.19731 0.01584 0.74676 0.0
O943 O 0.16197 0.98838 0.76641 0.0
H944 H 0.195 0.04833 0.83101 0.0
H945 H 0.23248 1.0045 0.80311 0.0
H946 H 0.21865 0.05861 0.8652 0.0
H947 H 0.25555 0.01563 0.8377 0.0
H948 H 0.1029 0.04984 0.76245 0.0
H949 H 0.17502 0.08165 0.79318 0.0
H950 H 0.12835 0.02606 0.75791 0.0
H951 H 0.14879 0.10454 0.79698 0.0
H952 H 0.25982 0.10824 0.80319 0.0
H953 H 0.21706 0.11765 0.7533 0.0
H954 H 0.15948 1.00474 0.87301 0.0
H955 H 0.11332 0.03542 0.84884 0.0
H956 H 0.18307 0.99246 0.7073 0.0
H957 H 0.23634 0.03578 0.74643 0.0
H958 H 0.2035 0.99021 0.67529 0.0
H959 H 0.25591 0.03266 0.71376 0.0
H960 H 0.16317 0.94623 0.75257 0.0
H961 H 0.1236 0.99063 0.77271 0.0
H962 H 0.13279 0.91427 0.7467 0.0
H963 H 0.09389 0.95792 0.7664 0.0
H964 H 0.21727 0.93197 0.80436 0.0
H965 H 0.23985 0.93359 0.74124 0.0
H966 H 0.15357 0.04985 0.679 0.0
H967 H 0.10673 0.99115 0.6808 0.0
Li968 Li 0.31295 0.95449 0.01578 0.0
Li969 Li 0.32924 0.93147 0.0363 0.0
Li970 Li 0.34949 0.96294 0.0238 0.0
Li971 Li 0.33415 0.9287 0.99811 0.0
C972 C 0.33844 0.98008 0.06164 0.0
N973 N 0.35935 0.01429 0.09478 0.0
C974 C 0.34533 0.97537 0.08144 0.0
C975 C 0.34201 1.0022 0.05877 0.0
C976 C 0.35589 0.99291 0.09799 0.0
C977 C 0.35269 0.01925 0.07569 0.0
C978 C 0.29383 0.90291 0.0135 0.0
C979 C 0.28401 0.86322 0.01189 0.0
N980 N 0.26513 0.86536 0.01775 0.0
C981 C 0.27432 0.90474 0.01942 0.0
C982 C 0.29873 0.88201 0.00964 0.0
C983 C 0.26004 0.88555 0.02154 0.0
C984 C 0.27637 0.96095 0.99496 0.0
N985 N 0.29018 0.96663 0.01297 0.0
C986 C 0.27156 0.99163 0.03113 0.0
C987 C 0.28809 0.98156 0.03083 0.0
C988 C 0.25695 0.98625 0.01286 0.0
C989 C 0.25934 0.9706 0.99459 0.0
H990 H 0.27849 0.94883 0.98108 0.0
H991 H 0.29911 0.9854 0.04503 0.0
C992 C 0.34418 0.91017 0.06626 0.0
N993 N 0.32684 0.91559 0.0588 0.0
C994 C 0.34375 0.89854 0.0832 0.0
C995 C 0.30783 0.89937 0.08531 0.0
C996 C 0.30889 0.91073 0.06799 0.0
C997 C 0.32541 0.89306 0.09281 0.0
H998 H 0.35847 0.91528 0.0594 0.0
H999 H 0.29557 0.91599 0.06213 0.0
C1000 C 0.33806 0.9747 0.98217 0.0
N1001 N 0.34662 1.00557 0.95551 0.0
C1002 C 0.34915 0.97051 0.96418 0.0
C1003 C 0.33117 0.99448 0.98655 0.0
C1004 C 0.35333 0.98634 0.9509 0.0
C1005 C 0.33573 0.00993 0.9729 0.0
C1006 C 0.3693 0.92083 0.0181 0.0
C1007 C 0.38934 0.93114 0.01492 0.0
C1008 C 0.364 0.89772 0.01665 0.0
C1009 C 0.40378 0.91814 0.0105 0.0
C1010 C 0.37886 0.8853 0.01213 0.0
N1011 N 0.39828 0.89568 0.00921 0.0
C1012 C 0.3863 0.9818 0.04774 0.0
C1013 C 0.38091 0.99966 0.01815 0.0
C1014 C 0.40706 0.99218 0.05061 0.0
N1015 N 0.37403 0.98482 0.03099 0.0
C1016 C 0.4016 0.01035 0.02038 0.0
C1017 C 0.41502 1.00549 0.0359 0.0
H1018 H 0.38039 0.96963 0.05748 0.0
H1019 H 0.37093 1.00193 1.00507 0.0
C1020 C 0.31973 0.89559 0.96141 0.0
N1021 N 0.337 0.9096 0.97245 0.0
C1022 C 0.32102 0.8811 0.94213 0.0
C1023 C 0.35788 0.89576 0.94609 0.0
C1024 C 0.35581 0.91019 0.96511 0.0
C1025 C 0.3403 0.88108 0.93427 0.0
H1026 H 0.30492 0.89596 0.96739 0.0
H1027 H 0.36917 0.92209 0.9738 0.0
O1028 O 0.32812 0.96314 0.0452 0.0
O1029 O 0.30775 0.92142 0.01071 0.0
O1030 O 0.33374 0.95932 0.99522 0.0
O1031 O 0.35509 0.93338 0.02307 0.0
H1032 H 0.3426 0.95838 0.08399 0.0
H1033 H 0.33681 1.0061 0.04351 0.0
H1034 H 0.36136 0.98952 0.11337 0.0
H1035 H 0.3557 0.03642 0.07363 0.0
H1036 H 0.28757 0.84691 0.0089 0.0
H1037 H 0.27027 0.92081 0.02231 0.0
H1038 H 0.31364 0.88029 1.00473 0.0
H1039 H 0.24488 0.88669 0.02612 0.0
H1040 H 0.26997 1.0031 0.0458 0.0
H1041 H 0.24824 0.96595 0.98031 0.0
H1042 H 0.35771 0.89439 0.08913 0.0
H1043 H 0.29358 0.89559 0.09276 0.0
H1044 H 0.35449 0.95522 0.96054 0.0
H1045 H 0.32261 0.99797 1.00046 0.0
H1046 H 0.36193 0.98334 0.93693 0.0
H1047 H 0.33064 0.02539 0.97615 0.0
H1048 H 0.39371 0.94892 0.01561 0.0
H1049 H 0.34862 0.88948 0.01917 0.0
H1050 H 0.41934 0.92592 0.00805 0.0
H1051 H 0.37497 0.8674 0.01103 0.0
H1052 H 0.41707 0.98828 0.06287 0.0
H1053 H 0.40731 0.02049 0.0087 0.0
H1054 H 0.307 0.87054 0.93318 0.0
H1055 H 0.37303 0.89629 0.94058 0.0
Li1056 Li 0.30354 0.40252 0.03605 0.0
Li1057 Li 0.3168 0.37537 0.05371 0.0
Li1058 Li 0.34204 0.40571 0.03879 0.0
Li1059 Li 0.3174 0.37266 0.0129 0.0
C1060 C 0.32115 0.42295 0.08077 0.0
N1061 N 0.31627 0.45207 0.11786 0.0
C1062 C 0.30625 0.41611 0.09447 0.0
C1063 C 0.33359 0.44453 0.0859 0.0
C1064 C 0.30405 0.43109 0.11319 0.0
C1065 C 0.33084 0.45904 0.1047 0.0
C1066 C 0.27624 0.35372 0.03073 0.0
C1067 C 0.25713 0.31549 0.02056 0.0
N1068 N 0.24129 0.3211 0.03134 0.0
C1069 C 0.25978 0.35915 0.04167 0.0
C1070 C 0.27492 0.33176 0.02001 0.0
C1071 C 0.24223 0.3424 0.04179 0.0
C1072 C 0.26621 0.411 0.01944 0.0
N1073 N 0.28217 0.41893 0.03537 0.0
C1074 C 0.26828 0.45046 0.04872 0.0
C1075 C 0.2833 0.43816 0.05 0.0
C1076 C 0.25196 0.44313 0.03204 0.0
C1077 C 0.25083 0.42287 0.01748 0.0
H1078 H 0.26566 0.39568 0.00794 0.0
H1079 H 0.2961 0.4444 0.06239 0.0
C1080 C 0.32865 0.36854 0.09579 0.0
N1081 N 0.31396 0.36039 0.07859 0.0
C1082 C 0.32703 0.36004 0.11508 0.0
C1083 C 0.29524 0.3347 0.0987 0.0
C1084 C 0.2975 0.34364 0.07972 0.0
C1085 C 0.31006 0.34294 0.11686 0.0
H1086 H 0.34155 0.38193 0.09465 0.0
H1087 H 0.28589 0.33733 0.06609 0.0
C1088 C 0.32037 0.42047 1.00079 0.0
N1089 N 0.31487 0.4515 0.97598 0.0
C1090 C 0.3179 0.41453 0.978 0.0
C1091 C 0.32018 0.44221 0.01099 0.0
C1092 C 0.31516 0.43046 0.96573 0.0
C1093 C 0.31728 0.45764 0.99816 0.0
C1094 C 0.34949 0.35516 0.03178 0.0
C1095 C 0.36995 0.35855 0.02697 0.0
C1096 C 0.33865 0.33385 0.03324 0.0
C1097 C 0.37929 0.34042 0.02368 0.0
C1098 C 0.34855 0.31615 0.02987 0.0
N1099 N 0.36849 0.31977 0.0252 0.0
C1100 C 0.38441 0.42041 0.05528 0.0
C1101 C 0.37423 0.44048 0.0295 0.0
C1102 C 0.40491 0.43217 0.05632 0.0
N1103 N 0.36957 0.42453 0.04182 0.0
C1104 C 0.3945 0.45277 0.03018 0.0
C1105 C 0.41028 0.44848 0.04347 0.0
H1106 H 0.3804 0.40757 0.06484 0.0
H1107 H 0.36234 0.44332 0.01867 0.0
C1108 C 0.2966 0.35395 0.97129 0.0
N1109 N 0.31459 0.35562 0.98345 0.0
C1110 C 0.29496 0.34726 0.94853 0.0
C1111 C 0.32981 0.34234 0.95125 0.0
C1112 C 0.33092 0.34949 0.97399 0.0
C1113 C 0.3119 0.34198 0.93819 0.0
H1114 H 0.28402 0.35941 0.9791 0.0
H1115 H 0.34525 0.35153 0.98386 0.0
O1116 O 0.32375 0.40856 0.0625 0.0
O1117 O 0.29345 0.36988 0.03023 0.0
O1118 O 0.32325 0.40514 0.01302 0.0
O1119 O 0.3403 0.37279 0.03545 0.0
H1120 H 0.2965 0.39944 0.09067 0.0
H1121 H 0.34517 0.45002 0.07539 0.0
H1122 H 0.29263 0.42605 0.124 0.0
H1123 H 0.34029 0.47584 0.10885 0.0
H1124 H 0.2559 0.2984 0.01241 0.0
H1125 H 0.26058 0.3761 0.05001 0.0
H1126 H 0.28754 0.32735 0.01144 0.0
H1127 H 0.22936 0.34633 0.0502 0.0
H1128 H 0.26967 0.46582 0.06049 0.0
H1129 H 0.23865 0.41668 1.00424 0.0
H1130 H 0.33903 0.36677 0.12843 0.0
H1131 H 0.28174 0.32177 0.09927 0.0
H1132 H 0.31837 0.39789 0.96983 0.0
H1133 H 0.32231 0.4471 0.02864 0.0
H1134 H 0.31331 0.42612 0.94807 0.0
H1135 H 0.31702 0.47451 0.00582 0.0
H1136 H 0.3785 0.375 0.02579 0.0
H1137 H 0.3228 0.33105 0.03704 0.0
H1138 H 0.39513 0.34277 0.01995 0.0
H1139 H 0.34039 0.29953 0.031 0.0
H1140 H 0.41649 0.42841 0.06696 0.0
H1141 H 0.39789 0.46494 0.01979 0.0
H1142 H 0.28095 0.34734 0.93899 0.0
H1143 H 0.34329 0.33874 0.94383 0.0
Li1144 Li 0.78796 0.16236 0.05036 0.0
Li1145 Li 0.80479 0.13336 0.03286 0.0
Li1146 Li 0.78727 0.15473 0.01087 0.0
Li1147 Li 0.76815 0.12638 0.02922 0.0
C1148 C 0.82632 0.18481 0.03531 0.0
N1149 N 0.85635 0.22388 0.04154 0.0
C1150 C 0.84665 0.18492 0.04198 0.0
C1151 C 0.82126 0.20451 0.03168 0.0
C1152 C 0.86161 0.20485 0.04506 0.0
C1153 C 0.83666 0.22411 0.03497 0.0
C1154 C 0.78466 0.11644 0.0691 0.0
C1155 C 0.77949 0.07789 0.0724 0.0
N1156 N 0.77976 0.08415 0.09444 0.0
C1157 C 0.78483 0.12251 0.09174 0.0
C1158 C 0.78191 0.09398 0.05929 0.0
C1159 C 0.78235 0.10593 0.10429 0.0
C1160 C 0.7706 0.18844 0.08146 0.0
N1161 N 0.7887 0.18503 0.07436 0.0
C1162 C 0.80773 0.21536 0.10145 0.0
C1163 C 0.80708 0.19779 0.08409 0.0
C1164 C 0.78926 0.21963 0.10883 0.0
C1165 C 0.77049 0.20597 0.09859 0.0
H1166 H 0.75624 0.17751 0.07389 0.0
H1167 H 0.82124 0.19415 0.07863 0.0
C1168 C 0.83591 0.11884 0.0147 0.0
N1169 N 0.82677 0.12033 0.03356 0.0
C1170 C 0.85123 0.10707 0.01187 0.0
C1171 C 0.84757 0.09894 0.04817 0.0
C1172 C 0.83249 0.11123 0.05043 0.0
C1173 C 0.85686 0.09665 0.0286 0.0
H1174 H 0.83078 0.12629 1.00167 0.0
H1175 H 0.82505 0.11303 0.06533 0.0
C1176 C 0.7496 0.16868 0.02947 0.0
N1177 N 0.72006 0.19371 0.03143 0.0
C1178 C 0.7288 0.1583 0.02879 0.0
C1179 C 0.75535 0.1918 0.03106 0.0
C1180 C 0.71411 0.17123 0.0298 0.0
C1181 C 0.7402 0.20416 0.03208 0.0
C1182 C 0.7787 0.10523 0.98832 0.0
C1183 C 0.76986 0.10926 0.96904 0.0
C1184 C 0.77967 0.08346 0.9899 0.0
C1185 C 0.76169 0.09133 0.95184 0.0
C1186 C 0.77127 0.06597 0.97235 0.0
N1187 N 0.76251 0.07023 0.95386 0.0
C1188 C 0.80528 0.17614 0.97885 0.0
C1189 C 0.76925 0.17208 0.98006 0.0
C1190 C 0.80525 0.18903 0.96285 0.0
N1191 N 0.78747 0.16845 0.98726 0.0
C1192 C 0.76856 0.18524 0.96459 0.0
C1193 C 0.78675 0.19412 0.95592 0.0
H1194 H 0.8195 0.17278 0.98503 0.0
H1195 H 0.75532 0.16527 0.98679 0.0
C1196 C 0.73508 0.10482 0.04738 0.0
N1197 N 0.74325 0.10581 0.02806 0.0
C1198 C 0.71472 0.09394 0.0476 0.0
C1199 C 0.71185 0.08457 0.00806 0.0
C1200 C 0.73224 0.09572 0.00861 0.0
C1201 C 0.70279 0.08439 0.02772 0.0
H1202 H 0.74382 0.11394 0.06252 0.0
H1203 H 0.73859 0.09779 0.99348 0.0
O1204 O 0.81153 0.16543 0.0324 0.0
O1205 O 0.78662 0.13249 0.05666 0.0
O1206 O 0.76416 0.15619 0.02844 0.0
O1207 O 0.78662 0.12256 1.0054 0.0
H1208 H 0.85079 0.16977 0.04481 0.0
H1209 H 0.80567 0.20466 0.02632 0.0
H1210 H 0.87741 0.2052 0.05025 0.0
H1211 H 0.83297 0.2395 0.03227 0.0
H1212 H 0.77734 0.06042 0.06505 0.0
H1213 H 0.78679 0.13987 0.0995 0.0
H1214 H 0.78155 0.08906 0.04177 0.0
H1215 H 0.78244 0.11038 0.12185 0.0
H1216 H 0.82253 0.22501 0.10943 0.0
H1217 H 0.75592 0.20861 0.10393 0.0
H1218 H 0.85807 0.10541 0.99651 0.0
H1219 H 0.85181 0.09118 0.06138 0.0
H1220 H 0.72399 0.14044 0.02743 0.0
H1221 H 0.77134 0.20012 0.03167 0.0
H1222 H 0.69796 0.16338 0.02928 0.0
H1223 H 0.74445 0.22207 0.03341 0.0
H1224 H 0.76908 0.12597 0.96742 0.0
H1225 H 0.78681 0.08009 1.00451 0.0
H1226 H 0.75466 0.09419 0.93691 0.0
H1227 H 0.77175 0.04901 0.97342 0.0
H1228 H 0.81955 0.19527 0.95636 0.0
H1229 H 0.754 0.18904 0.96017 0.0
H1230 H 0.70798 0.09427 0.063 0.0
H1231 H 0.70281 0.07787 0.99242 0.0
Li1232 Li 0.22194 0.56181 0.23931 0.0
Li1233 Li 0.19443 0.54471 0.25986 0.0
Li1234 Li 0.21331 0.52183 0.23517 0.0
Li1235 Li 0.18883 0.54123 0.22056 0.0
C1236 C 0.23783 0.55432 0.27994 0.0
N1237 N 0.26605 0.57545 0.31536 0.0
C1238 C 0.23283 0.57016 0.29632 0.0
C1239 C 0.25711 0.54914 0.2816 0.0
C1240 C 0.24732 0.58065 0.31412 0.0
C1241 C 0.2712 0.56007 0.29961 0.0
C1242 C 0.18337 0.58403 0.2444 0.0
C1243 C 0.15033 0.59373 0.24361 0.0
N1244 N 0.15996 0.6157 0.24681 0.0
C1245 C 0.19293 0.60669 0.24773 0.0
C1246 C 0.16189 0.57747 0.24237 0.0
C1247 C 0.18083 0.62245 0.24888 0.0
C1248 C 0.23877 0.59659 0.22059 0.0
N1249 N 0.24176 0.5878 0.23855 0.0
C1250 C 0.26569 0.6211 0.25606 0.0
C1251 C 0.25557 0.59916 0.25571 0.0
C1252 C 0.26152 0.63123 0.23852 0.0
C1253 C 0.24879 0.61835 0.22008 0.0
H1254 H 0.22741 0.58726 0.20735 0.0
H1255 H 0.25772 0.592 0.26982 0.0
C1256 C 0.1752 0.52697 0.29301 0.0
N1257 N 0.18063 0.5459 0.28483 0.0
C1258 C 0.16164 0.52605 0.30914 0.0
C1259 C 0.16017 0.56429 0.30825 0.0
C1260 C 0.17394 0.56457 0.29249 0.0
C1261 C 0.15362 0.54473 0.31632 0.0
H1262 H 0.18074 0.51236 0.28632 0.0
H1263 H 0.17887 0.57949 0.28599 0.0
C1264 C 0.23101 0.54162 0.19763 0.0
N1265 N 0.26094 0.54724 0.16914 0.0
C1266 C 0.22543 0.53996 0.17542 0.0
C1267 C 0.25178 0.54635 0.20543 0.0
C1268 C 0.24079 0.54276 0.16125 0.0
C1269 C 0.2667 0.5491 0.19075 0.0
C1270 C 0.16453 0.50301 0.23526 0.0
C1271 C 0.16196 0.48109 0.22373 0.0
C1272 C 0.14759 0.51015 0.24366 0.0
C1273 C 0.14249 0.46672 0.22079 0.0
C1274 C 0.12837 0.49527 0.24037 0.0
N1275 N 0.12623 0.47405 0.2291 0.0
C1276 C 0.21259 0.48229 0.24562 0.0
C1277 C 0.24201 0.49501 0.22772 0.0
C1278 C 0.22154 0.4665 0.25274 0.0
N1279 N 0.22315 0.49648 0.23397 0.0
C1280 C 0.25177 0.47966 0.23489 0.0
C1281 C 0.24182 0.46612 0.24855 0.0
H1282 H 0.19813 0.4847 0.25129 0.0
H1283 H 0.25024 0.50704 0.21908 0.0
C1284 C 0.16957 0.56091 0.19198 0.0
N1285 N 0.16908 0.54133 0.19868 0.0
C1286 C 0.15365 0.56278 0.17766 0.0
C1287 C 0.13749 0.52411 0.17715 0.0
C1288 C 0.15383 0.52293 0.19112 0.0
C1289 C 0.13733 0.54419 0.17022 0.0
H1290 H 0.18219 0.57513 0.19804 0.0
H1291 H 0.15422 0.50735 0.19586 0.0
O1292 O 0.22391 0.54375 0.26242 0.0
O1293 O 0.19507 0.56844 0.24323 0.0
O1294 O 0.2161 0.539 0.21163 0.0
O1295 O 0.18349 0.51736 0.238 0.0
H1296 H 0.2181 0.57457 0.29517 0.0
H1297 H 0.26116 0.5369 0.26903 0.0
H1298 H 0.24371 0.59299 0.32688 0.0
H1299 H 0.28623 0.55634 0.30106 0.0
H1300 H 0.13371 0.58889 0.24199 0.0
H1301 H 0.20953 0.61209 0.24952 0.0
H1302 H 0.15424 0.56003 0.23966 0.0
H1303 H 0.18803 0.64005 0.25145 0.0
H1304 H 0.2752 0.63053 0.27073 0.0
H1305 H 0.2454 0.62554 0.20616 0.0
H1306 H 0.15695 0.51086 0.31538 0.0
H1307 H 0.15455 0.57913 0.31401 0.0
H1308 H 0.20938 0.53646 0.16921 0.0
H1309 H 0.25633 0.54798 0.22266 0.0
H1310 H 0.23671 0.5414 0.14398 0.0
H1311 H 0.28285 0.55275 0.19653 0.0
H1312 H 0.1748 0.47535 0.21679 0.0
H1313 H 0.1492 0.52698 0.25262 0.0
H1314 H 0.14028 0.44977 0.21182 0.0
H1315 H 0.11514 0.5006 0.24677 0.0
H1316 H 0.21349 0.45622 0.26322 0.0
H1317 H 0.26757 0.47996 0.23165 0.0
H1318 H 0.1543 0.57836 0.17214 0.0
H1319 H 0.12521 0.50936 0.17164 0.0
Li1320 Li 0.80182 0.90516 0.53725 0.0
Li1321 Li 0.81569 0.87821 0.55516 0.0
Li1322 Li 0.84033 0.90893 0.54011 0.0
Li1323 Li 0.81701 0.87523 0.5145 0.0
C1324 C 0.81822 0.92713 0.58078 0.0
N1325 N 0.81184 0.95865 0.61519 0.0
C1326 C 0.80805 0.92042 0.59825 0.0
C1327 C 0.82522 0.94985 0.58085 0.0
C1328 C 0.80493 0.93661 0.61547 0.0
C1329 C 0.82182 0.96554 0.59839 0.0
C1330 C 0.7759 0.85516 0.5315 0.0
C1331 C 0.75981 0.81589 0.52421 0.0
N1332 N 0.74222 0.82078 0.53157 0.0
C1333 C 0.75761 0.85984 0.53878 0.0
C1334 C 0.777 0.83305 0.52399 0.0
C1335 C 0.74078 0.84221 0.53878 0.0
C1336 C 0.77374 0.92512 0.51674 0.0
N1337 N 0.78002 0.92101 0.53638 0.0
C1338 C 0.75423 0.93768 0.55334 0.0
C1339 C 0.77048 0.92688 0.5545 0.0
C1340 C 0.74765 0.94246 0.53333 0.0
C1341 C 0.75766 0.93597 0.51487 0.0
H1342 H 0.78105 0.91969 0.50239 0.0
H1343 H 0.77522 0.92289 0.56981 0.0
C1344 C 0.82947 0.86179 0.59185 0.0
N1345 N 0.81234 0.86269 0.57954 0.0
C1346 C 0.82777 0.85279 0.61086 0.0
C1347 C 0.79083 0.84542 0.6041 0.0
C1348 C 0.79325 0.85468 0.58533 0.0
C1349 C 0.80823 0.84459 0.61737 0.0
H1350 H 0.84451 0.86852 0.58717 0.0
H1351 H 0.7798 0.85615 0.57588 0.0
C1352 C 0.8242 0.92347 0.50183 0.0
N1353 N 0.82905 0.95555 0.47627 0.0
C1354 C 0.82564 0.91747 0.47943 0.0
C1355 C 0.82527 0.94573 0.51128 0.0
C1356 C 0.8281 0.93396 0.46678 0.0
C1357 C 0.8277 0.96172 0.49806 0.0
C1358 C 0.84928 0.85893 0.53312 0.0
C1359 C 0.86935 0.86269 0.52711 0.0
C1360 C 0.83912 0.8375 0.53504 0.0
C1361 C 0.87894 0.8448 0.52294 0.0
C1362 C 0.84923 0.82004 0.53073 0.0
N1363 N 0.86876 0.82402 0.52481 0.0
C1364 C 0.87603 0.94272 0.5621 0.0
C1365 C 0.87725 0.92965 0.52437 0.0
C1366 C 0.89552 0.95715 0.56344 0.0
N1367 N 0.86727 0.92933 0.54275 0.0
C1368 C 0.89676 0.9437 0.52499 0.0
C1369 C 0.9063 0.95776 0.54473 0.0
H1370 H 0.86796 0.94212 0.57659 0.0
H1371 H 0.87004 0.91889 0.50914 0.0
C1372 C 0.79611 0.85288 0.4733 0.0
N1373 N 0.81476 0.8575 0.48513 0.0
C1374 C 0.79412 0.84467 0.45072 0.0
C1375 C 0.83026 0.84468 0.45288 0.0
C1376 C 0.83163 0.85312 0.47547 0.0
C1377 C 0.81146 0.8411 0.44007 0.0
H1378 H 0.783 0.85686 0.48118 0.0
H1379 H 0.84643 0.85746 0.48497 0.0
O1380 O 0.82185 0.91151 0.56406 0.0
O1381 O 0.79252 0.87221 0.53141 0.0
O1382 O 0.82121 0.90746 0.51431 0.0
O1383 O 0.83981 0.8763 0.53752 0.0
H1384 H 0.80259 0.90291 0.5985 0.0
H1385 H 0.83331 0.95531 0.56758 0.0
H1386 H 0.79706 0.93166 0.62908 0.0
H1387 H 0.82719 0.98319 0.59869 0.0
H1388 H 0.76045 0.79868 0.5185 0.0
H1389 H 0.75649 0.87688 0.54455 0.0
H1390 H 0.79094 0.82919 0.51797 0.0
H1391 H 0.72656 0.84555 0.54451 0.0
H1392 H 0.74696 0.94234 0.56799 0.0
H1393 H 0.75282 0.9388 0.49898 0.0
H1394 H 0.84165 0.85237 0.62041 0.0
H1395 H 0.77546 0.83974 0.60859 0.0
H1396 H 0.82475 0.90026 0.47189 0.0
H1397 H 0.82397 0.95053 0.52857 0.0
H1398 H 0.82919 0.92957 0.4494 0.0
H1399 H 0.82845 0.97902 0.50511 0.0
H1400 H 0.87742 0.87927 0.52569 0.0
H1401 H 0.82366 0.83443 0.53996 0.0
H1402 H 0.89447 0.84743 0.51824 0.0
H1403 H 0.84157 0.80334 0.53214 0.0
H1404 H 0.90223 0.9674 0.57909 0.0
H1405 H 0.90419 0.9437 0.51004 0.0
H1406 H 0.77935 0.84223 0.44146 0.0
H1407 H 0.84407 0.84255 0.4453 0.0
Li1408 Li 0.95538 0.07388 0.29897 0.0
Li1409 Li 0.92366 0.04737 0.27277 0.0
Li1410 Li 0.95462 0.07188 0.25367 0.0
Li1411 Li 0.92739 0.09372 0.27607 0.0
C1412 C 0.96886 0.03618 0.27413 0.0
N1413 N 0.99864 0.01187 0.27606 0.0
C1414 C 0.96415 0.01546 0.28039 0.0
C1415 C 0.98871 0.04463 0.269 0.0
C1416 C 0.97943 1.0034 0.28123 0.0
C1417 C 1.00355 0.03206 0.27003 0.0
C1418 C 0.9115 0.06909 0.31509 0.0
C1419 C 0.88165 0.07474 0.33328 0.0
N1420 N 0.88653 0.06283 0.34821 0.0
C1421 C 0.91615 0.05675 0.33048 0.0
C1422 C 0.89408 0.07807 0.31639 0.0
C1423 C 0.90336 0.05384 0.34716 0.0
C1424 C 0.96771 0.08478 0.34931 0.0
N1425 N 0.97167 0.07258 0.33014 0.0
C1426 C 0.99347 0.05596 0.3526 0.0
C1427 C 0.98471 0.05849 0.33189 0.0
C1428 C 0.98909 0.0678 0.37269 0.0
C1429 C 0.9761 0.08272 0.37023 0.0
H1430 H 0.9575 0.09599 0.34862 0.0
H1431 H 0.98823 0.04855 0.31722 0.0
C1432 C 0.90966 0.99701 0.25819 0.0
N1433 N 0.90489 0.01521 0.2708 0.0
C1434 C 0.89835 0.97483 0.25778 0.0
C1435 C 0.8769 0.98977 0.28308 0.0
C1436 C 0.88865 0.01163 0.28312 0.0
C1437 C 0.88147 0.97056 0.27032 0.0
H1438 H 0.92255 0.99953 0.24848 0.0
H1439 H 0.88478 0.02574 0.29337 0.0
C1440 C 0.97599 0.11637 0.27864 0.0
N1441 N 0.00873 0.15097 0.27634 0.0
C1442 C 0.97264 0.13479 0.2704 0.0
C1443 C 0.99594 0.11548 0.28569 0.0
C1444 C 0.98941 0.15214 0.26938 0.0
C1445 C 0.01231 0.13316 0.28438 0.0
C1446 C 0.91029 0.06698 0.23148 0.0
C1447 C 0.91787 0.0782 0.21516 0.0
C1448 C 0.88966 0.05571 0.2295 0.0
C1449 C 0.90457 0.07799 0.19704 0.0
C1450 C 0.87685 0.05588 0.21111 0.0
N1451 N 0.88451 0.06693 0.1954 0.0
C1452 C 0.97458 0.04909 0.21485 0.0
C1453 C 0.97836 0.08701 0.21405 0.0
C1454 C 0.98495 0.04589 0.19548 0.0
N1455 N 0.97134 0.06948 0.2243 0.0
C1456 C 0.98865 0.08442 0.19442 0.0
C1457 C 0.99248 0.06356 0.18447 0.0
H1458 H 0.96902 0.03486 0.22225 0.0
H1459 H 0.97597 0.10332 0.22096 0.0
C1460 C 0.90438 0.13361 0.29352 0.0
N1461 N 0.91083 0.12149 0.27555 0.0
C1462 C 0.89382 0.15137 0.29207 0.0
C1463 C 0.89602 0.14461 0.25375 0.0
C1464 C 0.90649 0.12718 0.25587 0.0
C1465 C 0.88935 0.15779 0.2719 0.0
H1466 H 0.90742 0.12978 0.30943 0.0
H1467 H 0.91117 0.11817 0.2413 0.0
O1468 O 0.95415 0.0482 0.27299 0.0
O1469 O 0.92417 0.07281 0.2991 0.0
O1470 O 0.95976 0.09941 0.28008 0.0
O1471 O 0.92304 0.06709 0.24936 0.0
H1472 H 0.94892 1.00885 0.28468 0.0
H1473 H 0.99258 0.06073 0.26426 0.0
H1474 H 0.97603 0.98733 0.28602 0.0
H1475 H 0.01897 0.03835 0.26604 0.0
H1476 H 0.86815 0.08166 0.33455 0.0
H1477 H 0.92952 0.04956 0.32958 0.0
H1478 H 0.89024 0.08755 0.3045 0.0
H1479 H 0.90683 0.04444 0.35928 0.0
H1480 H 1.00314 0.04412 0.35274 0.0
H1481 H 0.97218 0.09296 0.38453 0.0
H1482 H 0.90279 0.96114 0.24741 0.0
H1483 H 0.86447 0.98805 0.29347 0.0
H1484 H 0.95723 0.13569 0.26493 0.0
H1485 H 0.99873 0.10132 0.29217 0.0
H1486 H 0.98707 0.16655 0.2631 0.0
H1487 H 0.02786 0.13274 0.2898 0.0
H1488 H 0.9338 0.0871 0.21658 0.0
H1489 H 0.88362 0.04695 0.24205 0.0
H1490 H 0.91019 0.08665 0.18429 0.0
H1491 H 0.86083 0.04725 0.20933 0.0
H1492 H 0.98672 0.02922 0.18903 0.0
H1493 H 0.9939 0.09895 0.18732 0.0
H1494 H 0.88949 0.16023 0.30696 0.0
H1495 H 0.89304 0.14736 0.23741 0.0
Li1496 Li 0.28474 0.66222 0.54546 0.0
Li1497 Li 0.30652 0.63727 0.52967 0.0
Li1498 Li 0.29243 0.66129 0.5088 0.0
Li1499 Li 0.27006 0.62837 0.51807 0.0
C1500 C 0.32714 0.68825 0.53304 0.0
N1501 N 0.35727 0.72516 0.52995 0.0
C1502 C 0.34781 0.6871 0.53388 0.0
C1503 C 0.32182 0.70825 0.5308 0.0
C1504 C 0.36281 0.70592 0.53224 0.0
C1505 C 0.33726 0.72669 0.5292 0.0
C1506 C 0.28368 0.61747 0.56239 0.0
C1507 C 0.28031 0.58092 0.5711 0.0
N1508 N 0.28289 0.59029 0.59275 0.0
C1509 C 0.28641 0.62676 0.5847 0.0
C1510 C 0.28071 0.59439 0.55547 0.0
C1511 C 0.28594 0.61273 0.59981 0.0
C1512 C 0.26343 0.67762 0.58141 0.0
N1513 N 0.28076 0.68111 0.57088 0.0
C1514 C 0.29589 0.71383 0.59719 0.0
C1515 C 0.29676 0.69875 0.57838 0.0
C1516 C 0.27864 0.71033 0.60895 0.0
C1517 C 0.26201 0.69223 0.60072 0.0
H1518 H 0.25101 0.66327 0.5751 0.0
H1519 H 0.31049 0.70089 0.5701 0.0
C1520 C 0.34092 0.6269 0.5155 0.0
N1521 N 0.3292 0.62503 0.53239 0.0
C1522 C 0.35778 0.61729 0.51397 0.0
C1523 C 0.35021 0.60401 0.5474 0.0
C1524 C 0.33362 0.61428 0.54847 0.0
C1525 C 0.3623 0.60519 0.52976 0.0
H1526 H 0.33695 0.63574 0.50308 0.0
H1527 H 0.32411 0.61324 0.56181 0.0
C1528 C 0.25053 0.66967 0.52679 0.0
N1529 N 0.22105 0.6921 0.54172 0.0
C1530 C 0.23115 0.65776 0.53019 0.0
C1531 C 0.25483 0.69298 0.53076 0.0
C1532 C 0.21646 0.6694 0.53776 0.0
C1533 C 0.23976 0.70402 0.53842 0.0
C1534 C 0.28879 0.61291 0.48191 0.0
C1535 C 0.28401 0.61727 0.4613 0.0
C1536 C 0.28894 0.59114 0.48422 0.0
C1537 C 0.27918 0.59963 0.44328 0.0
C1538 C 0.28404 0.57395 0.46579 0.0
N1539 N 0.27928 0.57851 0.44589 0.0
C1540 C 0.31492 0.68446 0.4794 0.0
C1541 C 0.27882 0.68156 0.47804 0.0
C1542 C 0.31635 0.69637 0.46248 0.0
N1543 N 0.29636 0.67762 0.48684 0.0
C1544 C 0.27947 0.693 0.461 0.0
C1545 C 0.29838 0.7004 0.45304 0.0
H1546 H 0.32851 0.68057 0.48649 0.0
H1547 H 0.26426 0.67549 0.48405 0.0
C1548 C 0.23633 0.59765 0.52517 0.0
N1549 N 0.24627 0.6059 0.50905 0.0
C1550 C 0.21584 0.58639 0.52112 0.0
C1551 C 0.21668 0.5907 0.48343 0.0
C1552 C 0.23722 0.60205 0.48828 0.0
C1553 C 0.20547 0.58395 0.50033 0.0
H1554 H 0.24349 0.60196 0.54173 0.0
H1555 H 0.24524 0.60955 0.476 0.0
O1556 O 0.31235 0.67025 0.53558 0.0
O1557 O 0.28297 0.63085 0.54746 0.0
O1558 O 0.26507 0.65858 0.51918 0.0
O1559 O 0.29354 0.62996 0.4997 0.0
H1560 H 0.35229 0.67199 0.53617 0.0
H1561 H 0.30594 0.70953 0.53039 0.0
H1562 H 0.37887 0.70528 0.53295 0.0
H1563 H 0.33334 0.74224 0.52744 0.0
H1564 H 0.27787 0.56301 0.56601 0.0
H1565 H 0.28867 0.6446 0.5903 0.0
H1566 H 0.27849 0.58696 0.53823 0.0
H1567 H 0.28791 0.61968 0.61715 0.0
H1568 H 0.30893 0.72775 0.60285 0.0
H1569 H 0.24854 0.68892 0.60951 0.0
H1570 H 0.36697 0.61899 0.50038 0.0
H1571 H 0.35311 0.59466 0.55979 0.0
H1572 H 0.22742 0.63974 0.52698 0.0
H1573 H 0.26966 0.70245 0.528 0.0
H1574 H 0.2014 0.66039 0.54047 0.0
H1575 H 0.24294 0.72207 0.54168 0.0
H1576 H 0.2839 0.63407 0.45925 0.0
H1577 H 0.29275 0.58758 0.50008 0.0
H1578 H 0.27534 0.60272 0.42724 0.0
H1579 H 0.28402 0.55698 0.46731 0.0
H1580 H 0.3311 0.70183 0.45648 0.0
H1581 H 0.26534 0.69596 0.45401 0.0
H1582 H 0.20774 0.58203 0.53482 0.0
H1583 H 0.20921 0.58907 0.4672 0.0
Li1584 Li 0.42441 0.54757 0.77364 0.0
Li1585 Li 0.4561 0.57447 0.79993 0.0
Li1586 Li 0.42758 0.59387 0.77693 0.0
Li1587 Li 0.4547 0.5726 0.75446 0.0
C1588 C 0.41122 0.56961 0.81545 0.0
N1589 N 0.38456 0.56425 0.8473 0.0
C1590 C 0.41463 0.55713 0.83116 0.0
C1591 C 0.39422 0.57933 0.81588 0.0
C1592 C 0.40098 0.55459 0.84712 0.0
C1593 C 0.38093 0.57645 0.83214 0.0
C1594 C 0.46983 0.5371 0.77355 0.0
C1595 C 0.50427 0.53335 0.76726 0.0
N1596 N 0.49989 0.51286 0.77271 0.0
C1597 C 0.46564 0.51603 0.77907 0.0
C1598 C 0.48926 0.54587 0.76757 0.0
C1599 C 0.48105 0.50403 0.77856 0.0
C1600 C 0.39516 0.50149 0.75422 0.0
N1601 N 0.40692 0.51498 0.7723 0.0
C1602 C 0.39956 0.48376 0.7912 0.0
C1603 C 0.40894 0.50619 0.7906 0.0
C1604 C 0.38769 0.46916 0.77276 0.0
C1605 C 0.38541 0.47879 0.75416 0.0
H1606 H 0.39364 0.50804 0.73947 0.0
H1607 H 0.4185 0.51637 0.80482 0.0
C1608 C 0.4661 0.57829 0.85084 0.0
N1609 N 0.47302 0.57262 0.83072 0.0
C1610 C 0.47581 0.57487 0.87068 0.0
C1611 C 0.50058 0.5606 0.84997 0.0
C1612 C 0.49024 0.56392 0.83049 0.0
C1613 C 0.49357 0.56582 0.87094 0.0
H1614 H 0.45267 0.58534 0.85179 0.0
H1615 H 0.49614 0.55913 0.81503 0.0
C1616 C 0.41066 0.56661 0.73209 0.0
N1617 N 0.3854 0.56549 0.69524 0.0
C1618 C 0.41851 0.57727 0.71551 0.0
C1619 C 0.38999 0.5554 0.72998 0.0
C1620 C 0.40548 0.57652 0.69699 0.0
C1621 C 0.37746 0.55501 0.7112 0.0
C1622 C 0.47608 0.61685 0.77887 0.0
C1623 C 0.4725 0.63506 0.77041 0.0
C1624 C 0.49616 0.61599 0.78545 0.0
C1625 C 0.48918 0.65224 0.7687 0.0
C1626 C 0.51243 0.63349 0.78345 0.0
N1627 N 0.50863 0.6511 0.7752 0.0
C1628 C 0.40743 0.636 0.79427 0.0
C1629 C 0.40317 0.62434 0.75635 0.0
C1630 C 0.39675 0.65362 0.79272 0.0
N1631 N 0.4108 0.62137 0.7762 0.0
C1632 C 0.39251 0.6416 0.75413 0.0
C1633 C 0.389 0.65729 0.77231 0.0
H1634 H 0.41311 0.63431 0.81029 0.0
H1635 H 0.40531 0.61327 0.74171 0.0
C1636 C 0.46647 0.55006 0.7107 0.0
N1637 N 0.47056 0.57038 0.72464 0.0
C1638 C 0.47533 0.54655 0.69042 0.0
C1639 C 0.49312 0.58477 0.69795 0.0
C1640 C 0.48377 0.58765 0.7182 0.0
C1641 C 0.48928 0.56383 0.68317 0.0
H1642 H 0.45597 0.53618 0.71514 0.0
H1643 H 0.48723 0.60399 0.72871 0.0
O1644 O 0.42477 0.57298 0.80014 0.0
O1645 O 0.45496 0.54908 0.77371 0.0
O1646 O 0.42315 0.56721 0.75033 0.0
O1647 O 0.45996 0.60005 0.78094 0.0
H1648 H 0.42779 0.54963 0.83114 0.0
H1649 H 0.39141 0.58911 0.80385 0.0
H1650 H 0.40348 0.54502 0.85942 0.0
H1651 H 0.36777 0.58396 0.83274 0.0
H1652 H 0.51939 0.53992 0.76267 0.0
H1653 H 0.45067 0.509 0.78368 0.0
H1654 H 0.49271 0.56218 0.76324 0.0
H1655 H 0.47804 0.48768 0.78279 0.0
H1656 H 0.40183 0.47794 0.80626 0.0
H1657 H 0.3767 0.46869 0.73931 0.0
H1658 H 0.46942 0.57967 0.88588 0.0
H1659 H 0.5139 0.55341 0.84835 0.0
H1660 H 0.43446 0.58615 0.71702 0.0
H1661 H 0.38371 0.54714 0.74275 0.0
H1662 H 0.41133 0.58473 0.68404 0.0
H1663 H 0.36143 0.5464 0.70931 0.0
H1664 H 0.45699 0.63593 0.76529 0.0
H1665 H 0.49912 0.60198 0.79208 0.0
H1666 H 0.48666 0.66648 0.76224 0.0
H1667 H 0.52807 0.63309 0.78848 0.0
H1668 H 0.39498 0.66461 0.80762 0.0
H1669 H 0.38687 0.6423 0.73778 0.0
H1670 H 0.47067 0.53003 0.68043 0.0
H1671 H 0.50347 0.59909 0.69411 0.0
Li1672 Li 0.69522 0.04849 0.76291 0.0
Li1673 Li 0.72166 0.06542 0.74159 0.0
Li1674 Li 0.68798 0.04277 0.72368 0.0
Li1675 Li 0.71411 0.02565 0.73781 0.0
C1676 C 0.68191 0.08605 0.74978 0.0
N1677 N 0.65726 0.11619 0.75876 0.0
C1678 C 0.69066 0.10896 0.75466 0.0
C1679 C 0.66065 0.07846 0.7495 0.0
C1680 C 0.67793 0.12393 0.75918 0.0
C1681 C 0.64844 0.09396 0.75405 0.0
C1682 C 0.74086 0.05684 0.78041 0.0
C1683 C 0.77699 0.06375 0.79239 0.0
N1684 N 0.77368 0.07551 0.81187 0.0
C1685 C 0.73778 0.06864 0.80073 0.0
C1686 C 0.76057 0.05403 0.77634 0.0
C1687 C 0.75457 0.07807 0.81636 0.0
C1688 C 0.67705 0.03196 0.79711 0.0
N1689 N 0.68345 0.05081 0.78909 0.0
C1690 C 0.67392 0.0732 0.81996 0.0
C1691 C 0.68208 0.07119 0.79997 0.0
C1692 C 0.66716 0.05404 0.82868 0.0
C1693 C 0.66859 0.03316 0.81703 0.0
H1694 H 0.67864 0.01605 0.78807 0.0
H1695 H 0.68774 0.08591 0.79337 0.0
C1696 C 0.74827 0.09722 0.72343 0.0
N1697 N 0.74226 0.09116 0.74233 0.0
C1698 C 0.76198 0.11755 0.72406 0.0
C1699 C 0.7635 0.12457 0.76356 0.0
C1700 C 0.74949 0.10438 0.76213 0.0
C1701 C 0.76942 0.1315 0.74433 0.0
H1702 H 0.74159 0.08688 0.70786 0.0
H1703 H 0.74343 0.09999 0.77674 0.0
C1704 C 0.66708 1.00403 0.73974 0.0
N1705 N 0.63148 0.9709 0.73468 0.0
C1706 C 0.66728 0.982 0.73047 0.0
C1707 C 0.64884 0.00916 0.74664 0.0
C1708 C 0.64911 0.9655 0.72802 0.0
C1709 C 0.63098 0.9922 0.74386 0.0
C1710 C 0.73056 0.04038 0.70014 0.0
C1711 C 0.72543 0.03499 0.67755 0.0
C1712 C 0.75105 0.044 0.70859 0.0
C1713 C 0.74096 0.03325 0.66371 0.0
C1714 C 0.76614 0.04208 0.69423 0.0
N1715 N 0.76083 0.0368 0.67227 0.0
C1716 C 0.66026 0.05635 0.69694 0.0
C1717 C 0.65764 0.01723 0.69171 0.0
C1718 C 0.64367 0.05313 0.68138 0.0
N1719 N 0.66662 0.03847 0.70195 0.0
C1720 C 0.641 0.01323 0.67605 0.0
C1721 C 0.63392 0.03135 0.67097 0.0
H1722 H 0.66825 0.07307 0.70476 0.0
H1723 H 0.66365 1.00345 0.69538 0.0
C1724 C 0.7215 0.99196 0.75419 0.0
N1725 N 0.72398 1.00022 0.73567 0.0
C1726 C 0.72788 0.97272 0.7562 0.0
C1727 C 0.73944 0.97093 0.71995 0.0
C1728 C 0.73245 0.99016 0.7185 0.0
C1729 C 0.73703 0.96208 0.73899 0.0
H1730 H 0.71463 1.00053 0.76744 0.0
H1731 H 0.73392 0.99703 0.70385 0.0
O1732 O 0.69419 0.07126 0.74498 0.0
O1733 O 0.72461 0.04783 0.76477 0.0
O1734 O 0.6848 0.02032 0.74237 0.0
O1735 O 0.71554 0.04255 0.71379 0.0
H1736 H 0.7071 0.1151 0.75488 0.0
H1737 H 0.65363 0.06083 0.74549 0.0
H1738 H 0.68448 0.14171 0.76296 0.0
H1739 H 0.63195 0.08832 0.75376 0.0
H1740 H 0.79237 0.0619 0.78937 0.0
H1741 H 0.7227 0.07088 0.80433 0.0
H1742 H 0.76321 0.04442 0.76101 0.0
H1743 H 0.7524 0.08748 0.83202 0.0
H1744 H 0.67269 0.08952 0.8284 0.0
H1745 H 0.66343 0.01809 0.82335 0.0
H1746 H 0.76574 0.12295 0.70895 0.0
H1747 H 0.76823 0.1355 0.77938 0.0
H1748 H 0.68128 0.97772 0.72509 0.0
H1749 H 0.64848 0.026 0.75422 0.0
H1750 H 0.64902 0.9484 0.72081 0.0
H1751 H 0.61674 0.99595 0.74908 0.0
H1752 H 0.70962 0.03227 0.67079 0.0
H1753 H 0.75524 0.04844 0.726 0.0
H1754 H 0.73723 0.02913 0.64618 0.0
H1755 H 0.78208 0.04487 0.70053 0.0
H1756 H 0.63896 0.06742 0.67692 0.0
H1757 H 0.6342 0.99634 0.66746 0.0
H1758 H 0.72631 0.96664 0.77135 0.0
H1759 H 0.7467 0.96315 0.70655 0.0
Li1760 Li 0.802 0.71542 0.03526 0.0
Li1761 Li 0.81744 0.6851 0.0132 0.0
Li1762 Li 0.80096 0.71058 0.99407 0.0
Li1763 Li 0.77818 0.68061 0.01013 0.0
C1764 C 0.84201 0.73554 0.01773 0.0
N1765 N 0.87588 0.77019 0.01935 0.0
C1766 C 0.86172 0.73284 0.02336 0.0
C1767 C 0.8395 0.75584 0.0129 0.0
C1768 C 0.87866 0.75055 0.02408 0.0
C1769 C 0.85683 0.77317 0.01384 0.0
C1770 C 0.79837 0.66789 0.0494 0.0
C1771 C 0.79276 0.6298 0.05438 0.0
N1772 N 0.80015 0.63722 0.07577 0.0
C1773 C 0.80585 0.67515 0.07142 0.0
C1774 C 0.79175 0.64505 0.04076 0.0
C1775 C 0.80666 0.65937 0.08448 0.0
C1776 C 0.78665 0.7398 0.07194 0.0
N1777 N 0.80391 0.7343 0.06413 0.0
C1778 C 0.82265 0.74911 0.09944 0.0
C1779 C 0.82185 0.73923 0.0773 0.0
C1780 C 0.80491 0.75434 0.10813 0.0
C1781 C 0.78688 0.75009 0.09391 0.0
H1782 H 0.77241 0.73529 0.06138 0.0
H1783 H 0.83529 0.7344 0.07091 0.0
C1784 C 0.85329 0.67273 0.99692 0.0
N1785 N 0.84016 0.67005 0.01266 0.0
C1786 C 0.87049 0.66316 0.99638 0.0
C1787 C 0.85999 0.64752 0.02767 0.0
C1788 C 0.84336 0.6578 0.02795 0.0
C1789 C 0.87389 0.65031 0.01189 0.0
H1790 H 0.85063 0.68269 0.98502 0.0
H1791 H 0.83336 0.65626 0.04073 0.0
C1792 C 0.7679 0.72936 0.01131 0.0
N1793 N 0.74739 0.76247 0.00687 0.0
C1794 C 0.74753 0.72373 1.00198 0.0
C1795 C 0.77781 0.75177 0.01855 0.0
C1796 C 0.73744 0.74073 0.99981 0.0
C1797 C 0.76718 0.76828 0.01613 0.0
C1798 C 0.79487 0.66191 0.96816 0.0
C1799 C 0.7864 0.66585 0.94868 0.0
C1800 C 0.80161 0.64224 0.96818 0.0
C1801 C 0.78497 0.65006 0.92943 0.0
C1802 C 0.79989 0.62685 0.94858 0.0
N1803 N 0.79171 0.63106 0.92978 0.0
C1804 C 0.82058 0.7268 0.95842 0.0
C1805 C 0.78573 0.72897 0.95914 0.0
C1806 C 0.82146 0.73381 0.93828 0.0
N1807 N 0.80282 0.72428 0.96834 0.0
C1808 C 0.78594 0.73605 0.93913 0.0
C1809 C 0.80382 0.73812 0.92808 0.0
H1810 H 0.83391 0.72261 0.96576 0.0
H1811 H 0.77162 0.72641 0.96686 0.0
C1812 C 0.74505 0.65376 0.02679 0.0
N1813 N 0.75143 0.65992 0.00802 0.0
C1814 C 0.72614 0.63885 0.02663 0.0
C1815 C 0.71979 0.63776 0.98803 0.0
C1816 C 0.73914 0.65235 0.98882 0.0
C1817 C 0.71319 0.63059 0.00709 0.0
H1818 H 0.75464 0.66049 0.04202 0.0
H1819 H 0.74432 0.65769 0.97413 0.0
O1820 O 0.82536 0.71814 0.01637 0.0
O1821 O 0.79773 0.68308 0.03634 0.0
O1822 O 0.77796 0.71294 0.01355 0.0
O1823 O 0.79729 0.6776 0.98697 0.0
H1824 H 0.86393 0.7172 0.0271 0.0
H1825 H 0.8244 0.7581 0.0082 0.0
H1826 H 0.89401 0.74868 0.02837 0.0
H1827 H 0.85513 0.78896 0.01009 0.0
H1828 H 0.78775 0.61207 0.04794 0.0
H1829 H 0.81107 0.69276 0.07831 0.0
H1830 H 0.78608 0.6392 0.02367 0.0
H1831 H 0.81248 0.66474 0.10154 0.0
H1832 H 0.83685 0.752 0.10987 0.0
H1833 H 0.7728 0.7535 0.1 0.0
H1834 H 0.88107 0.66586 0.9841 0.0
H1835 H 0.86238 0.63809 0.04016 0.0
H1836 H 0.73967 0.7064 0.99637 0.0
H1837 H 0.79347 0.75634 0.02611 0.0
H1838 H 0.7217 0.73665 0.99252 0.0
H1839 H 0.77464 0.78572 0.02167 0.0
H1840 H 0.78107 0.68095 0.94839 0.0
H1841 H 0.80822 0.63896 0.98313 0.0
H1842 H 0.77855 0.65294 0.91421 0.0
H1843 H 0.80513 0.61159 0.94832 0.0
H1844 H 0.83555 0.73492 0.93038 0.0
H1845 H 0.77202 0.73946 0.93219 0.0
H1846 H 0.72154 0.63407 0.04177 0.0
H1847 H 0.71026 0.63185 0.97263 0.0
Li1848 Li 0.90127 0.52684 0.80698 0.0
Li1849 Li 0.93433 0.54835 0.82537 0.0
Li1850 Li 0.90884 0.56658 0.81094 0.0
Li1851 Li 0.92827 0.54457 0.78618 0.0
C1852 C 0.89323 0.54803 0.84996 0.0
N1853 N 0.86548 0.5438 0.88092 0.0
C1854 C 0.89966 0.54555 0.87085 0.0
C1855 C 0.8727 0.54835 0.84479 0.0
C1856 C 0.88539 0.5434 0.88628 0.0
C1857 C 0.85891 0.54624 0.86069 0.0
C1858 C 0.93974 0.50501 0.80145 0.0
C1859 C 0.97103 0.49279 0.79439 0.0
N1860 N 0.96244 0.4727 0.79928 0.0
C1861 C 0.93118 0.4842 0.80629 0.0
C1862 C 0.95977 0.5093 0.7953 0.0
C1863 C 0.94291 0.4681 0.80512 0.0
C1864 C 0.87493 0.48687 0.78646 0.0
N1865 N 0.88147 0.50059 0.80618 0.0
C1866 C 0.86711 0.47192 0.82499 0.0
C1867 C 0.87738 0.49374 0.82525 0.0
C1868 C 0.86136 0.45718 0.80492 0.0
C1869 C 0.86446 0.46493 0.78544 0.0
H1870 H 0.87944 0.49224 0.77163 0.0
H1871 H 0.88374 0.50439 0.84068 0.0
C1872 C 0.96416 0.57242 0.85771 0.0
N1873 N 0.95475 0.55137 0.84737 0.0
C1874 C 0.98115 0.57587 0.87276 0.0
C1875 C 0.97777 0.5358 0.86669 0.0
C1876 C 0.96079 0.53315 0.85188 0.0
C1877 C 0.98822 0.55738 0.87705 0.0
H1878 H 0.95864 0.5865 0.85393 0.0
H1879 H 0.95249 0.51661 0.84401 0.0
C1880 C 0.8819 0.53579 0.76902 0.0
N1881 N 0.84777 0.51794 0.7391 0.0
C1882 C 0.88422 0.52644 0.74749 0.0
C1883 C 0.86224 0.53639 0.77522 0.0
C1884 C 0.86678 0.51744 0.73263 0.0
C1885 C 0.84517 0.52716 0.7599 0.0
C1886 C 0.95738 0.58608 0.80736 0.0
C1887 C 0.95861 0.60828 0.80561 0.0
C1888 C 0.97534 0.57809 0.80841 0.0
C1889 C 0.97784 0.62214 0.80486 0.0
C1890 C 0.99428 0.5925 0.80772 0.0
N1891 N 0.99513 0.61404 0.80595 0.0
C1892 C 0.88803 0.59874 0.83059 0.0
C1893 C 0.89471 0.5963 0.79331 0.0
C1894 C 0.8745 0.61247 0.82818 0.0
N1895 N 0.89704 0.59044 0.81298 0.0
C1896 C 0.88153 0.60999 0.79022 0.0
C1897 C 0.8708 0.61742 0.80758 0.0
H1898 H 0.89033 0.59362 0.84599 0.0
H1899 H 0.90205 0.58906 0.77971 0.0
C1900 C 0.93906 0.52068 0.74883 0.0
N1901 N 0.94038 0.54168 0.76017 0.0
C1902 C 0.94847 0.51749 0.72961 0.0
C1903 C 0.96024 0.55762 0.73417 0.0
C1904 C 0.95034 0.56004 0.75315 0.0
C1905 C 0.95938 0.53612 0.72232 0.0
H1906 H 0.9308 0.50647 0.75484 0.0
H1907 H 0.95074 0.57652 0.76234 0.0
O1908 O 0.90696 0.5496 0.83459 0.0
O1909 O 0.92844 0.52096 0.8026 0.0
O1910 O 0.89883 0.54448 0.78381 0.0
O1911 O 0.93865 0.57246 0.80837 0.0
H1912 H 0.91549 0.54511 0.87503 0.0
H1913 H 0.86749 0.55022 0.82873 0.0
H1914 H 0.89012 0.54137 0.90249 0.0
H1915 H 0.84299 0.5465 0.85693 0.0
H1916 H 0.98657 0.49591 0.78973 0.0
H1917 H 0.91568 0.48054 0.811 0.0
H1918 H 0.96652 0.52511 0.7911 0.0
H1919 H 0.93649 0.45194 0.80887 0.0
H1920 H 0.86533 0.46609 0.84024 0.0
H1921 H 0.86076 0.45361 0.76973 0.0
H1922 H 0.98872 0.5927 0.8809 0.0
H1923 H 0.98241 0.52117 0.87037 0.0
H1924 H 0.89929 0.52609 0.74228 0.0
H1925 H 0.86016 0.54385 0.79167 0.0
H1926 H 0.86836 0.51007 0.71595 0.0
H1927 H 0.82985 0.52736 0.76453 0.0
H1928 H 0.94483 0.61471 0.80483 0.0
H1929 H 0.97471 0.5611 0.81012 0.0
H1930 H 0.97903 0.63935 0.80347 0.0
H1931 H 0.00831 0.58658 0.80866 0.0
H1932 H 0.86626 0.61812 0.84173 0.0
H1933 H 0.87879 0.61367 0.77415 0.0
H1934 H 0.94776 0.50067 0.72091 0.0
H1935 H 0.96855 0.5723 0.72885 0.0
Li1936 Li 0.82645 0.43138 0.53612 0.0
Li1937 Li 0.81276 0.45632 0.51585 0.0
Li1938 Li 0.83197 0.42894 0.49771 0.0
Li1939 Li 0.84862 0.46171 0.52458 0.0
C1940 C 0.79199 0.4035 0.51103 0.0
N1941 N 0.76477 0.36368 0.51164 0.0
C1942 C 0.77152 0.40325 0.51466 0.0
C1943 C 0.79863 0.38354 0.50764 0.0
C1944 C 0.75799 0.38293 0.51496 0.0
C1945 C 0.78462 0.36356 0.50801 0.0
C1946 C 0.83726 0.47983 0.56243 0.0
C1947 C 0.85357 0.51846 0.57682 0.0
N1948 N 0.85753 0.51325 0.59661 0.0
C1949 C 0.84138 0.47489 0.58294 0.0
C1950 C 0.84329 0.50181 0.55935 0.0
C1951 C 0.85169 0.49201 0.6 0.0
C1952 C 0.84195 0.41356 0.5672 0.0
N1953 N 0.82361 0.41513 0.55802 0.0
C1954 C 0.80527 0.39227 0.5804 0.0
C1955 C 0.8054 0.40538 0.56455 0.0
C1956 C 0.82405 0.38947 0.5892 0.0
C1957 C 0.84255 0.4006 0.58284 0.0
H1958 H 0.85614 0.42226 0.56221 0.0
H1959 H 0.7911 0.40757 0.55734 0.0
C1960 C 0.77593 0.46233 0.49627 0.0
N1961 N 0.79109 0.46958 0.51302 0.0
C1962 C 0.75884 0.47185 0.49654 0.0
C1963 C 0.77407 0.49628 0.53082 0.0
C1964 C 0.79058 0.48627 0.52995 0.0
C1965 C 0.75771 0.48869 0.5143 0.0
H1966 H 0.77687 0.4488 0.48315 0.0
H1967 H 0.80274 0.49143 0.54309 0.0
C1968 C 0.86686 0.41962 0.51851 0.0
N1969 N 0.89734 0.39623 0.51101 0.0
C1970 C 0.88617 0.43034 0.5136 0.0
C1971 C 0.86307 0.39698 0.51956 0.0
C1972 C 0.90139 0.41825 0.50995 0.0
C1973 C 0.87866 0.38544 0.51566 0.0
C1974 C 0.84337 0.47511 0.48367 0.0
C1975 C 0.85766 0.46929 0.46955 0.0
C1976 C 0.83847 0.49594 0.48527 0.0
C1977 C 0.86704 0.48461 0.45734 0.0
C1978 C 0.84822 0.5108 0.47282 0.0
N1979 N 0.86218 0.50487 0.45923 0.0
C1980 C 0.8141 0.39827 0.46093 0.0
C1981 C 0.85036 0.4032 0.46558 0.0
C1982 C 0.81264 0.38094 0.44314 0.0
N1983 N 0.83268 0.40858 0.47202 0.0
C1984 C 0.84962 0.38582 0.44798 0.0
C1985 C 0.83052 0.37428 0.43673 0.0
H1986 H 0.80036 0.4033 0.46615 0.0
H1987 H 0.865 0.41215 0.47415 0.0
C1988 C 0.88389 0.47598 0.55152 0.0
N1989 N 0.87419 0.48114 0.5341 0.0
C1990 C 0.905 0.48365 0.55632 0.0
C1991 C 0.9053 0.50332 0.52628 0.0
C1992 C 0.88411 0.49572 0.52244 0.0
C1993 C 0.91611 0.49605 0.54251 0.0
H1994 H 0.87554 0.46415 0.56036 0.0
H1995 H 0.87609 0.49994 0.50898 0.0
O1996 O 0.80535 0.42323 0.51054 0.0
O1997 O 0.82708 0.46328 0.54555 0.0
O1998 O 0.85188 0.43129 0.52268 0.0
O1999 O 0.83384 0.4603 0.49551 0.0
H2000 H 0.76617 0.4186 0.51728 0.0
H2001 H 0.81441 0.38347 0.50469 0.0
H2002 H 0.74211 0.38247 0.51781 0.0
H2003 H 0.78953 0.34797 0.50538 0.0
H2004 H 0.85842 0.53551 0.57464 0.0
H2005 H 0.83664 0.45803 0.58569 0.0
H2006 H 0.84026 0.50591 0.54355 0.0
H2007 H 0.85503 0.48842 0.61595 0.0
H2008 H 0.7908 0.384 0.58531 0.0
H2009 H 0.8573 0.39914 0.58981 0.0
H2010 H 0.74645 0.46567 0.48353 0.0
H2011 H 0.77395 0.50959 0.54453 0.0
H2012 H 0.88935 0.44771 0.51228 0.0
H2013 H 0.84828 0.38843 0.52342 0.0
H2014 H 0.91639 0.42635 0.50616 0.0
H2015 H 0.87592 0.36791 0.51639 0.0
H2016 H 0.86152 0.45317 0.46811 0.0
H2017 H 0.82735 0.50059 0.49611 0.0
H2018 H 0.87818 0.48039 0.44638 0.0
H2019 H 0.84469 0.52704 0.47395 0.0
H2020 H 0.79769 0.37299 0.43441 0.0
H2021 H 0.86379 0.38132 0.44341 0.0
H2022 H 0.9127 0.47822 0.56937 0.0
H2023 H 0.91314 0.51286 0.51514 0.0
Li2024 Li 0.66583 0.51567 0.29309 0.0
Li2025 Li 0.69651 0.54036 0.27467 0.0
Li2026 Li 0.66505 0.51316 0.24755 0.0
Li2027 Li 0.69347 0.49387 0.2698 0.0
C2028 C 0.65218 0.55212 0.27518 0.0
N2029 N 0.62425 0.579 0.27904 0.0
C2030 C 0.65869 0.57472 0.28479 0.0
C2031 C 0.63153 0.54316 0.2675 0.0
C2032 C 0.64431 0.58805 0.28659 0.0
C2033 C 0.61762 0.55703 0.26962 0.0
C2034 C 0.71112 0.52592 0.31543 0.0
C2035 C 0.74392 0.52646 0.33384 0.0
N2036 N 0.73845 0.53751 0.3526 0.0
C2037 C 0.70583 0.53736 0.33484 0.0
C2038 C 0.73031 0.52045 0.31485 0.0
C2039 C 0.71986 0.54304 0.35348 0.0
C2040 C 0.64955 0.50068 0.33502 0.0
N2041 N 0.64956 0.51674 0.32267 0.0
C2042 C 0.63052 0.53477 0.35064 0.0
C2043 C 0.63998 0.5336 0.33045 0.0
C2044 C 0.63068 0.51867 0.36401 0.0
C2045 C 0.64042 0.50134 0.35527 0.0
H2046 H 0.65696 0.48719 0.32941 0.0
H2047 H 0.63983 0.54665 0.32123 0.0
C2048 C 0.71093 0.582 0.25827 0.0
N2049 N 0.71405 0.57282 0.2761 0.0
C2050 C 0.7204 0.60444 0.25766 0.0
C2051 C 0.73692 0.60843 0.29359 0.0
C2052 C 0.72701 0.58579 0.29359 0.0
C2053 C 0.73357 0.61853 0.27554 0.0
H2054 H 0.70068 0.57197 0.24439 0.0
H2055 H 0.72947 0.57883 0.30792 0.0
C2056 C 0.64479 0.47002 0.26327 0.0
N2057 N 0.61183 0.43362 0.25621 0.0
C2058 C 0.64776 0.44861 0.25571 0.0
C2059 C 0.62511 0.47296 0.2673 0.0
C2060 C 0.63089 0.4304 0.25223 0.0
C2061 C 0.60862 0.45433 0.26361 0.0
C2062 C 0.70738 0.51476 0.22995 0.0
C2063 C 0.69837 0.501 0.21012 0.0
C2064 C 0.72753 0.52738 0.23146 0.0
C2065 C 0.70971 0.50013 0.192 0.0
C2066 C 0.73838 0.52599 0.21297 0.0
N2067 N 0.72932 0.51253 0.1938 0.0
C2068 C 0.65748 0.53074 0.20493 0.0
C2069 C 0.62922 0.50287 0.20888 0.0
C2070 C 0.64743 0.53386 0.18515 0.0
N2071 N 0.64853 0.5154 0.21684 0.0
C2072 C 0.61865 0.50551 0.1892 0.0
C2073 C 0.62738 0.52135 0.17653 0.0
H2074 H 0.67264 0.54102 0.21078 0.0
H2075 H 0.62166 0.49065 0.21782 0.0
C2076 C 0.71312 0.45982 0.29004 0.0
N2077 N 0.71026 0.46638 0.2705 0.0
C2078 C 0.72371 0.44257 0.29253 0.0
C2079 C 0.72898 0.43775 0.25488 0.0
C2080 C 0.71812 0.45518 0.25301 0.0
C2081 C 0.73244 0.43077 0.27502 0.0
H2082 H 0.7071 0.46799 0.3042 0.0
H2083 H 0.71615 0.45967 0.23721 0.0
O2084 O 0.66595 0.53878 0.27329 0.0
O2085 O 0.69736 0.51954 0.29723 0.0
O2086 O 0.66114 0.48799 0.267 0.0
O2087 O 0.69644 0.51598 0.24776 0.0
H2088 H 0.67466 0.58186 0.29083 0.0
H2089 H 0.62632 0.52568 0.25996 0.0
H2090 H 0.64909 0.60558 0.29399 0.0
H2091 H 0.60157 0.55033 0.26376 0.0
H2092 H 0.75881 0.52227 0.33368 0.0
H2093 H 0.69101 0.54168 0.33551 0.0
H2094 H 0.73457 0.51155 0.29992 0.0
H2095 H 0.71596 0.5518 0.36866 0.0
H2096 H 0.62361 0.54873 0.35598 0.0
H2097 H 0.64105 0.48801 0.364 0.0
H2098 H 0.71728 0.61064 0.24302 0.0
H2099 H 0.74666 0.61811 0.30799 0.0
H2100 H 0.66296 0.44611 0.25261 0.0
H2101 H 0.62262 0.48944 0.27333 0.0
H2102 H 0.63294 0.41372 0.24638 0.0
H2103 H 0.59329 0.45632 0.26666 0.0
H2104 H 0.68275 0.49116 0.20875 0.0
H2105 H 0.73467 0.53811 0.24673 0.0
H2106 H 0.70292 0.48961 0.17652 0.0
H2107 H 0.75401 0.53563 0.21387 0.0
H2108 H 0.65542 0.54651 0.17695 0.0
H2109 H 0.60358 0.49477 0.18397 0.0
H2110 H 0.72463 0.43856 0.30859 0.0
H2111 H 0.7348 0.42996 0.24039 0.0
Gd2112 Gd 0.08719 0.05628 0.03619 0.0
Gd2113 Gd 0.03712 0.03276 0.01191 0.0
C2114 C 0.01785 0.95749 0.00876 0.0
C2115 C 0.01156 0.943 0.96964 0.0
C2116 C 0.02275 0.98298 0.98359 0.0
C2117 C 0.0236 0.97934 1.00469 0.0
C2118 C 0.01594 0.96492 0.96583 0.0
C2119 C 0.01255 0.93929 0.9911 0.0
C2120 C 0.01645 0.95471 0.03039 0.0
C2121 C 0.0197 0.97348 0.04716 0.0
N2122 N 0.02803 0.99733 0.02127 0.0
C2123 C 0.02523 0.99479 0.04223 0.0
H2124 H 0.02764 0.00915 0.0553 0.0
C2125 C 0.02129 1.00891 0.96069 0.0
N2126 N 0.02636 1.00435 0.98063 0.0
C2127 C 0.01486 0.99162 0.94248 0.0
C2128 C 0.01255 0.9695 0.94498 0.0
H2129 H 0.02279 0.02603 0.95881 0.0
H2130 H 0.00829 0.92237 0.99388 0.0
H2131 H 0.10691 0.07502 0.99001 0.0
H2132 H 0.01205 0.93822 0.03422 0.0
H2133 H 0.01801 0.97158 0.06389 0.0
H2134 H 1.00653 0.92889 0.9562 0.0
H2135 H 0.0924 0.0733 0.09166 0.0
H2136 H 0.11415 0.14503 1.00107 0.0
H2137 H 0.11484 0.10944 0.97701 0.0
H2138 H 0.10563 0.16518 0.07654 0.0
H2139 H 0.01151 0.99536 0.92659 0.0
H2140 H 0.00727 0.9561 0.93091 0.0
H2141 H 0.11057 0.16554 0.03802 0.0
H2142 H 0.09659 0.10779 0.11854 0.0
N2143 N 0.09892 0.08922 0.02156 0.0
C2144 C 0.10999 0.12958 0.00702 0.0
C2145 C 0.11037 0.10955 0.99341 0.0
C2146 C 0.10524 0.12957 0.02846 0.0
C2147 C 0.09973 0.10894 0.03545 0.0
C2148 C 0.10527 0.08961 1.00104 0.0
N2149 N 0.09208 0.08892 0.06378 0.0
C2150 C 0.0963 0.10877 0.05711 0.0
C2151 C 0.0961 0.10832 0.1013 0.0
C2152 C 0.09848 0.12864 0.09453 0.0
C2153 C 0.09341 0.08866 0.08575 0.0
C2154 C 0.09915 0.12914 0.07231 0.0
H2155 H 0.1008 0.14392 0.10665 0.0
O2156 O 0.10425 0.04758 0.06269 0.0
O2157 O 0.06219 0.02563 0.03289 0.0
O2158 O 0.03361 0.04901 0.04728 0.0
O2159 O 0.06576 0.05277 0.06472 0.0
O2160 O 0.08986 0.02114 0.02233 0.0
O2161 O 0.1205 0.06245 0.03731 0.0
O2162 O 0.01374 0.04722 0.99834 0.0
O2163 O 0.05889 0.06594 0.0241 0.0
O2164 O 0.09099 0.04364 0.99943 0.0
O2165 O 0.0578 0.02691 0.98355 0.0
O2166 O 0.04592 0.05918 0.99194 0.0
O2167 O 1.00686 0.02799 0.02351 0.0
C2168 C 0.07223 0.01075 0.02666 0.0
C2169 C 0.10365 0.14947 0.06513 0.0
C2170 C 0.10654 0.14967 0.04322 0.0
C2171 C 0.12171 0.0546 0.05518 0.0
C2172 C 0.14132 0.05365 0.066 0.0
C2173 C 0.14441 0.05764 0.08888 0.0
C2174 C 0.157 0.04853 0.05347 0.0
C2175 C 0.17584 0.04766 0.06378 0.0
C2176 C 0.16325 0.05692 0.09918 0.0
C2177 C 0.17897 0.05203 0.08671 0.0
C2178 C 0.04585 0.05291 0.06567 0.0
C2179 C 0.05694 0.0745 0.00717 0.0
C2180 C 0.99995 0.03904 0.01023 0.0
C2181 C 0.97933 0.0297 0.99947 0.0
C2182 C 0.97347 1.00827 0.98637 0.0
C2183 C 0.96511 0.04292 1.00293 0.0
C2184 C 0.94487 0.03502 0.99348 0.0
C2185 C 0.95322 1.00027 0.97676 0.0
C2186 C 0.93887 0.01354 0.98038 0.0
C2187 C 0.07794 0.03338 0.98176 0.0
H2188 H 0.13235 0.06152 0.09874 0.0
H2189 H 0.15454 0.04511 0.03576 0.0
H2190 H 0.16565 0.06007 0.11684 0.0
H2191 H 0.19343 0.05124 0.09492 0.0
H2192 H 0.98435 0.99774 0.98376 0.0
H2193 H 0.96973 0.05932 0.01347 0.0
H2194 H 0.94862 0.98375 0.96664 0.0
H2195 H 0.92319 1.00714 0.97296 0.0
Gd2196 Gd 0.30095 0.80449 0.29897 0.0
Gd2197 Gd 0.32207 0.78305 0.24838 0.0
C2198 C 0.29588 0.71137 0.20955 0.0
C2199 C 0.32469 0.69412 0.21359 0.0
C2200 C 0.32719 0.73282 0.23129 0.0
C2201 C 0.30733 0.73159 0.22281 0.0
C2202 C 0.33622 0.71422 0.22624 0.0
C2203 C 0.30456 0.6927 0.20526 0.0
C2204 C 0.27591 0.71028 0.20102 0.0
C2205 C 0.26758 0.72884 0.20598 0.0
N2206 N 0.29919 0.74995 0.22736 0.0
C2207 C 0.27932 0.74842 0.21914 0.0
H2208 H 0.27161 0.76165 0.22247 0.0
C2209 C 0.35879 0.75507 0.24887 0.0
N2210 N 0.33807 0.75238 0.24365 0.0
C2211 C 0.36832 0.73719 0.24434 0.0
C2212 C 0.35688 0.71651 0.23337 0.0
H2213 H 0.36827 0.77101 0.25698 0.0
H2214 H 0.29586 0.67709 0.19536 0.0
H2215 H 0.35263 0.825 0.31931 0.0
H2216 H 0.26668 0.69508 0.19089 0.0
H2217 H 0.25194 0.72809 0.19978 0.0
H2218 H 0.33134 0.67969 0.20979 0.0
H2219 H 0.25691 0.82081 0.28396 0.0
H2220 H 0.36 0.89193 0.35188 0.0
H2221 H 0.37346 0.85802 0.34269 0.0
H2222 H 0.29782 0.91111 0.3301 0.0
H2223 H 0.38455 0.73947 0.24919 0.0
H2224 H 0.36432 0.70266 0.22975 0.0
H2225 H 0.33212 0.91163 0.34654 0.0
H2226 H 0.24413 0.85445 0.28737 0.0
N2227 N 0.32534 0.83758 0.31699 0.0
C2228 C 0.35018 0.87686 0.34215 0.0
C2229 C 0.35778 0.85776 0.33709 0.0
C2230 C 0.33038 0.87664 0.33367 0.0
C2231 C 0.31811 0.85654 0.32102 0.0
C2232 C 0.34533 0.83844 0.32418 0.0
N2233 N 0.28746 0.83698 0.2991 0.0
C2234 C 0.29882 0.85631 0.31157 0.0
C2235 C 0.25972 0.85539 0.29386 0.0
C2236 C 0.2717 0.87547 0.30546 0.0
C2237 C 0.26757 0.83623 0.29135 0.0
C2238 C 0.29129 0.87608 0.31484 0.0
H2239 H 0.26546 0.89027 0.3076 0.0
O2240 O 0.26982 0.79687 0.30747 0.0
O2241 O 0.29938 0.77597 0.27172 0.0
O2242 O 0.29416 0.79451 0.23587 0.0
O2243 O 0.27852 0.8004 0.26834 0.0
O2244 O 0.29763 0.76873 0.30297 0.0
O2245 O 0.29522 0.80594 0.33308 0.0
O2246 O 0.35327 0.79908 0.24477 0.0
O2247 O 0.32401 0.81176 0.27585 0.0
O2248 O 0.3282 0.79252 0.31201 0.0
O2249 O 0.34097 0.77895 0.27926 0.0
O2250 O 0.32168 0.81771 0.2439 0.0
O2251 O 0.33196 0.78284 0.21588 0.0
C2252 C 0.29754 0.76065 0.2825 0.0
C2253 C 0.30338 0.89587 0.32753 0.0
C2254 C 0.32285 0.89614 0.33697 0.0
C2255 C 0.27528 0.79976 0.32827 0.0
C2256 C 0.26328 0.78343 0.33943 0.0
C2257 C 0.24202 0.78191 0.33928 0.0
C2258 C 0.27235 0.76929 0.34985 0.0
C2259 C 0.26009 0.7536 0.35991 0.0
C2260 C 0.22985 0.76634 0.34931 0.0
C2261 C 0.23881 0.75221 0.35958 0.0
C2262 C 0.27872 0.79946 0.2469 0.0
C2263 C 0.32357 0.82638 0.26444 0.0
C2264 C 0.35042 0.79474 0.22347 0.0
C2265 C 0.35979 0.81289 0.21265 0.0
C2266 C 0.37992 0.82515 0.22014 0.0
C2267 C 0.34952 0.81749 0.19441 0.0
C2268 C 0.3593 0.83428 0.184 0.0
C2269 C 0.38956 0.84196 0.20974 0.0
C2270 C 0.37928 0.84656 0.19171 0.0
C2271 C 0.34182 0.78333 0.30112 0.0
H2272 H 0.23481 0.79277 0.33132 0.0
H2273 H 0.28876 0.77033 0.35002 0.0
H2274 H 0.21347 0.7653 0.3492 0.0
H2275 H 0.22917 0.74047 0.36763 0.0
H2276 H 0.38826 0.82161 0.23397 0.0
H2277 H 0.33407 0.80809 0.18824 0.0
H2278 H 0.40506 0.85131 0.21558 0.0
H2279 H 0.38694 0.85955 0.18364 0.0
Gd2280 Gd 0.53648 0.04399 0.53533 0.0
Gd2281 Gd 0.58649 0.0489 0.51301 0.0
C2282 C 0.6248 0.11725 0.50912 0.0
C2283 C 0.6248 0.11507 0.46992 0.0
C2284 C 0.60749 0.08301 0.4842 0.0
C2285 C 0.61276 0.09521 0.50541 0.0
C2286 C 0.61389 0.09271 0.46628 0.0
C2287 C 0.63023 0.12732 0.49128 0.0
C2288 C 0.63183 0.12818 0.53064 0.0
C2289 C 0.62785 0.11669 0.54768 0.0
N2290 N 0.60755 0.085 0.5224 0.0
C2291 C 0.61598 0.09481 0.54319 0.0
H2292 H 0.61319 0.08613 0.55655 0.0
C2293 C 0.59372 0.04807 0.46071 0.0
N2294 N 0.59702 0.06133 0.48113 0.0
C2295 C 0.59976 0.057 0.44251 0.0
C2296 C 0.60964 0.07948 0.44526 0.0
H2297 H 0.58574 0.03078 0.45822 0.0
H2298 H 0.63924 0.14432 0.49384 0.0
H2299 H 0.50986 0.01149 0.48933 0.0
H2300 H 0.64108 0.14512 0.53416 0.0
H2301 H 0.63387 0.12469 0.5643 0.0
H2302 H 0.62964 0.12286 0.45633 0.0
H2303 H 0.53762 0.05637 0.58952 0.0
H2304 H 0.47609 0.95127 0.5053 0.0
H2305 H 0.48628 0.97464 0.47798 0.0
H2306 H 0.48725 0.96504 0.58346 0.0
H2307 H 0.59668 0.04655 0.42635 0.0
H2308 H 0.61433 0.08633 0.4311 0.0
H2309 H 0.47685 0.94767 0.54475 0.0
H2310 H 0.52519 0.03799 0.61972 0.0
N2311 N 0.51361 0.00907 0.52284 0.0
C2312 C 0.48652 0.96749 0.51042 0.0
C2313 C 0.49216 0.98066 0.49498 0.0
C2314 C 0.49369 0.97584 0.53244 0.0
C2315 C 0.50722 0.99707 0.53822 0.0
C2316 C 0.50562 1.00161 0.50153 0.0
N2317 N 0.52488 0.02783 0.56477 0.0
C2318 C 0.513 1.00681 0.55992 0.0
C2319 C 0.52174 0.02898 0.60297 0.0
C2320 C 0.51035 1.0069 0.59833 0.0
C2321 C 0.52873 0.03934 0.58587 0.0
C2322 C 0.50554 0.99565 0.57656 0.0
H2323 H 0.50489 0.99893 0.6116 0.0
O2324 O 0.52258 0.07017 0.55126 0.0
O2325 O 0.56457 0.0681 0.52908 0.0
O2326 O 0.58791 0.0517 0.54925 0.0
O2327 O 0.55715 0.03025 0.55644 0.0
O2328 O 0.55343 0.07481 0.55923 0.0
O2329 O 0.50823 0.04964 0.52036 0.0
O2330 O 0.59791 0.01916 0.5154 0.0
O2331 O 0.55804 0.02525 0.51835 0.0
O2332 O 0.53402 0.04679 0.50001 0.0
O2333 O 0.56661 0.05942 0.48889 0.0
O2334 O 0.56981 0.01798 0.48877 0.0
O2335 O 0.61943 0.05028 0.51693 0.0
C2336 C 0.56688 0.08243 0.54684 0.0
C2337 C 0.49298 0.97399 0.57091 0.0
C2338 C 0.48707 0.96409 0.54887 0.0
C2339 C 0.50718 0.06589 0.53625 0.0
C2340 C 0.48683 0.06654 0.54395 0.0
C2341 C 0.48068 0.05714 0.56197 0.0
C2342 C 0.47383 0.07771 0.5339 0.0
C2343 C 0.45479 0.0793 0.54184 0.0
C2344 C 0.46191 0.05895 0.56998 0.0
C2345 C 0.44902 0.06991 0.55998 0.0
C2346 C 0.57733 0.03775 0.56018 0.0
C2347 C 0.55534 0.01102 0.50049 0.0
C2348 C 0.61716 0.02905 0.51644 0.0
C2349 C 0.62997 0.01743 0.50221 0.0
C2350 C 0.62462 0.01175 0.47959 0.0
C2351 C 0.64765 0.01197 0.51114 0.0
C2352 C 0.66015 1.00145 0.49728 0.0
C2353 C 0.6369 1.00131 0.46587 0.0
C2354 C 0.65458 0.99629 0.47461 0.0
C2355 C 0.54639 0.05547 0.48651 0.0
H2356 H 0.49045 0.04862 0.56999 0.0
H2357 H 0.47847 0.08507 0.51999 0.0
H2358 H 0.45734 0.05183 0.58401 0.0
H2359 H 0.43449 0.07108 0.56641 0.0
H2360 H 0.61088 0.01527 0.47254 0.0
H2361 H 0.65184 0.01619 0.52865 0.0
H2362 H 0.63268 0.99708 0.4484 0.0
H2363 H 0.66387 0.98811 0.46362 0.0
Gd2364 Gd 0.33668 0.2889 0.77648 0.0
Gd2365 Gd 0.28527 0.29939 0.76934 0.0
C2366 C 0.2529 0.29251 0.70147 0.0
C2367 C 0.24996 0.33054 0.70126 0.0
C2368 C 0.26621 0.32165 0.73331 0.0
C2369 C 0.26303 0.29955 0.72281 0.0
C2370 C 0.25923 0.33726 0.72284 0.0
C2371 C 0.24685 0.30822 0.69058 0.0
C2372 C 0.24847 0.26977 0.69201 0.0
C2373 C 0.25334 0.25457 0.70412 0.0
N2374 N 0.2687 0.28469 0.73392 0.0
C2375 C 0.26315 0.26231 0.72529 0.0
H2376 H 0.26672 0.25024 0.73432 0.0
C2377 C 0.27579 0.34841 0.76625 0.0
N2378 N 0.27496 0.32759 0.75425 0.0
C2379 C 0.26919 0.36449 0.75653 0.0
C2380 C 0.26113 0.35899 0.73463 0.0
H2381 H 0.28188 0.35266 0.78324 0.0
H2382 H 0.23919 0.30314 0.67413 0.0
H2383 H 0.35305 0.33958 0.81162 0.0
H2384 H 0.24078 0.26372 0.67563 0.0
H2385 H 0.24957 0.23689 0.69716 0.0
H2386 H 0.24465 0.34233 0.69288 0.0
H2387 H 0.34183 0.23558 0.76466 0.0
H2388 H 0.37907 0.32806 0.87092 0.0
H2389 H 0.36939 0.35379 0.84865 0.0
H2390 H 0.37809 0.25023 0.85579 0.0
H2391 H 0.27026 0.38108 0.76593 0.0
H2392 H 0.2559 0.37144 0.72717 0.0
H2393 H 0.38206 0.28948 0.87346 0.0
H2394 H 0.35447 0.20893 0.78339 0.0
N2395 N 0.35226 0.30526 0.81224 0.0
C2396 C 0.37173 0.3215 0.85445 0.0
C2397 C 0.36634 0.33608 0.84193 0.0
C2398 C 0.36823 0.29876 0.84535 0.0
C2399 C 0.35851 0.29098 0.82384 0.0
C2400 C 0.35699 0.32774 0.82066 0.0
N2401 N 0.34789 0.26182 0.79276 0.0
C2402 C 0.35619 0.26871 0.81387 0.0
C2403 C 0.355 0.22565 0.79218 0.0
C2404 C 0.36261 0.23208 0.81415 0.0
C2405 C 0.34801 0.2409 0.78158 0.0
C2406 C 0.36363 0.25389 0.82517 0.0
H2407 H 0.36815 0.22025 0.82229 0.0
O2408 O 0.3533 0.29497 0.74803 0.0
O2409 O 0.31126 0.28907 0.75177 0.0
O2410 O 0.28236 0.26259 0.77074 0.0
O2411 O 0.3142 0.25616 0.78137 0.0
O2412 O 0.32525 0.26187 0.74742 0.0
O2413 O 0.37023 0.29546 0.77814 0.0
O2414 O 0.26783 0.30737 0.79698 0.0
O2415 O 0.31014 0.29694 0.79343 0.0
O2416 O 0.33878 0.32648 0.77626 0.0
O2417 O 0.30738 0.32905 0.75999 0.0
O2418 O 0.2976 0.32464 0.80012 0.0
O2419 O 0.25323 0.28159 0.76991 0.0
C2420 C 0.31165 0.27075 0.73899 0.0
C2421 C 0.37246 0.26144 0.84685 0.0
C2422 C 0.37473 0.28379 0.85691 0.0
C2423 C 0.37143 0.29688 0.75779 0.0
C2424 C 0.38556 0.28465 0.74589 0.0
C2425 C 0.38043 0.26127 0.74102 0.0
C2426 C 0.4045 0.29608 0.73986 0.0
C2427 C 0.41799 0.28394 0.72919 0.0
C2428 C 0.39389 0.24933 0.73094 0.0
C2429 C 0.4125 0.26054 0.72507 0.0
C2430 C 0.29375 0.24922 0.77667 0.0
C2431 C 0.31013 0.31408 0.80772 0.0
C2432 C 0.251 0.29282 0.78894 0.0
C2433 C 0.23158 0.30054 0.79193 0.0
C2434 C 0.22844 0.31883 0.78318 0.0
C2435 C 0.21674 0.29086 0.80492 0.0
C2436 C 0.19933 0.29991 0.80932 0.0
C2437 C 0.21148 0.32792 0.78775 0.0
C2438 C 0.1971 0.31864 0.80079 0.0
C2439 C 0.3271 0.33793 0.76711 0.0
H2440 H 0.36597 0.25221 0.74499 0.0
H2441 H 0.40867 0.31416 0.74341 0.0
H2442 H 0.38982 0.23126 0.72756 0.0
H2443 H 0.42267 0.25088 0.71719 0.0
H2444 H 0.2392 0.32627 0.77295 0.0
H2445 H 0.21881 0.2766 0.81169 0.0
H2446 H 0.20944 0.34224 0.7811 0.0
H2447 H 0.18395 0.3259 0.80395 0.0
Gd2448 Gd 0.06739 0.0196 0.51171 0.0
Gd2449 Gd 0.05373 0.06907 0.53528 0.0
C2450 C 0.06517 0.09789 0.60879 0.0
C2451 C 0.03065 0.09881 0.61845 0.0
C2452 C 0.03638 0.08499 0.58088 0.0
C2453 C 0.05717 0.08855 0.58691 0.0
C2454 C 0.02292 0.09058 0.59647 0.0
C2455 C 0.05175 0.10245 0.6246 0.0
C2456 C 0.08649 0.1033 0.61396 0.0
C2457 C 0.09927 0.10032 0.59736 0.0
N2458 N 0.06973 0.08449 0.57111 0.0
C2459 C 0.09063 0.0912 0.57592 0.0
H2460 H 0.10098 0.08924 0.56352 0.0
C2461 C 0.00959 0.07664 0.55227 0.0
N2462 N 0.02951 0.07753 0.55946 0.0
C2463 C 0.99562 0.08178 0.56712 0.0
C2464 C 1.00225 0.08852 0.58937 0.0
H2465 H 1.00437 0.07141 0.53507 0.0
H2466 H 0.05761 0.10946 0.64149 0.0
H2467 H 0.02056 1.00282 0.48181 0.0
H2468 H 0.09324 0.1105 0.63054 0.0
H2469 H 0.11582 0.10504 0.60103 0.0
H2470 H 0.02053 0.10305 0.63069 0.0
H2471 H 0.11673 0.01682 0.51324 0.0
H2472 H 0.02966 0.97978 0.41556 0.0
H2473 H 1.00653 0.98748 0.44402 0.0
H2474 H 0.10203 0.98377 0.41776 0.0
H2475 H 0.97976 0.08056 0.56139 0.0
H2476 H 0.99144 0.09266 0.60083 0.0
H2477 H 0.06532 0.97861 0.40592 0.0
H2478 H 0.1416 1.00673 0.48771 0.0
N2479 N 0.05201 1.00503 0.4755 0.0
C2480 C 0.03607 0.98675 0.4323 0.0
C2481 C 0.02298 0.99102 0.44829 0.0
C2482 C 0.05723 0.99089 0.4382 0.0
C2483 C 0.06483 1.00005 0.46023 0.0
C2484 C 0.03117 0.99984 0.46991 0.0
N2485 N 0.09205 0.01082 0.48831 0.0
C2486 C 0.08547 1.00303 0.46685 0.0
C2487 C 0.1259 1.00575 0.48159 0.0
C2488 C 0.1196 0.99862 0.45931 0.0
C2489 C 0.11178 0.01151 0.496 0.0
C2490 C 0.09911 0.99685 0.45171 0.0
H2491 H 0.13053 0.99401 0.44819 0.0
O2492 O 0.07879 0.99692 0.52899 0.0
O2493 O 0.06598 0.04067 0.54518 0.0
O2494 O 0.08705 0.07585 0.52754 0.0
O2495 O 0.09235 0.04606 0.5024 0.0
O2496 O 0.09313 0.03111 0.5392 0.0
O2497 O 0.04995 0.98532 0.50854 0.0
O2498 O 0.03998 0.09254 0.5213 0.0
O2499 O 0.05558 0.04826 0.5022 0.0
O2500 O 0.03391 0.01303 0.51827 0.0
O2501 O 0.02872 0.04217 0.54406 0.0
O2502 O 0.02854 0.05802 0.50703 0.0
O2503 O 0.07199 0.10195 0.53433 0.0
C2504 C 0.08393 0.04086 0.55431 0.0
C2505 C 0.09176 0.98849 0.42964 0.0
C2506 C 0.07087 0.98554 0.4229 0.0
C2507 C 0.06337 0.98025 0.52145 0.0
C2508 C 0.06828 0.95842 0.5155 0.0
C2509 C 0.08401 0.95515 0.50225 0.0
C2510 C 0.05832 0.94119 0.52528 0.0
C2511 C 0.06462 0.9209 0.52287 0.0
C2512 C 0.09022 0.935 0.49948 0.0
C2513 C 0.08083 0.91808 0.50993 0.0
C2514 C 0.09824 0.06692 0.51318 0.0
C2515 C 0.03824 0.04861 0.49219 0.0
C2516 C 0.05691 0.10793 0.52474 0.0
C2517 C 0.05512 0.13092 0.53164 0.0
C2518 C 0.04514 0.13751 0.54998 0.0
C2519 C 0.06338 0.14646 0.51909 0.0
C2520 C 0.06187 0.16872 0.5248 0.0
C2521 C 0.04351 0.15968 0.55571 0.0
C2522 C 0.05186 0.17526 0.54325 0.0
C2523 C 0.02261 0.02161 0.53263 0.0
H2524 H 0.09178 0.96824 0.49449 0.0
H2525 H 0.04589 0.9439 0.53509 0.0
H2526 H 0.10265 0.93266 0.48958 0.0
H2527 H 0.0866 0.90301 0.50817 0.0
H2528 H 0.03861 0.12559 0.55974 0.0
H2529 H 0.07117 0.14123 0.50495 0.0
H2530 H 0.03571 0.16479 0.56981 0.0
H2531 H 0.0503 0.19232 0.54785 0.0
Gd2532 Gd 0.28663 0.77662 0.77689 0.0
Gd2533 Gd 0.33416 0.80994 0.76898 0.0
C2534 C 0.33837 0.88128 0.75884 0.0
C2535 C 0.35051 0.87964 0.72279 0.0
C2536 C 0.34411 0.84646 0.7389 0.0
C2537 C 0.33809 0.85841 0.75733 0.0
C2538 C 0.35095 0.85712 0.72171 0.0
C2539 C 0.34421 0.89168 0.74131 0.0
C2540 C 0.33328 0.89319 0.77813 0.0
C2541 C 0.32857 0.88246 0.79552 0.0
N2542 N 0.33294 0.848 0.7742 0.0
C2543 C 0.32871 0.85987 0.79338 0.0
H2544 H 0.32494 0.8521 0.80711 0.0
C2545 C 0.35436 0.81382 0.7227 0.0
N2546 N 0.34507 0.82496 0.73865 0.0
C2547 C 0.36096 0.8235 0.70509 0.0
C2548 C 0.35897 0.84516 0.70442 0.0
H2549 H 0.35656 0.7974 0.7236 0.0
H2550 H 0.34442 0.90919 0.74216 0.0
H2551 H 0.29547 0.73111 0.74384 0.0
H2552 H 0.33328 0.91075 0.77989 0.0
H2553 H 0.32484 0.89157 0.81062 0.0
H2554 H 0.35559 0.88807 0.70969 0.0
H2555 H 0.26157 0.79354 0.81936 0.0
H2556 H 0.29034 0.67856 0.77976 0.0
H2557 H 0.29751 0.69284 0.7459 0.0
H2558 H 0.26522 0.70844 0.8463 0.0
H2559 H 0.36784 0.81439 0.69223 0.0
H2560 H 0.36441 0.85278 0.69093 0.0
H2561 H 0.27861 0.68468 0.81739 0.0
H2562 H 0.24887 0.78026 0.85207 0.0
N2563 N 0.28805 0.73923 0.77666 0.0
C2564 C 0.28954 0.69555 0.77904 0.0
C2565 C 0.29352 0.70351 0.75988 0.0
C2566 C 0.28377 0.70931 0.79672 0.0
C2567 C 0.28304 0.73132 0.79497 0.0
C2568 C 0.29237 0.72536 0.75884 0.0
N2569 N 0.27391 0.76524 0.80835 0.0
C2570 C 0.27565 0.74471 0.81131 0.0
C2571 C 0.25652 0.77018 0.84083 0.0
C2572 C 0.25927 0.74966 0.84478 0.0
C2573 C 0.26375 0.77766 0.82229 0.0
C2574 C 0.26861 0.73646 0.82975 0.0
H2575 H 0.25359 0.74387 0.85912 0.0
O2576 O 0.25606 0.78286 0.77297 0.0
O2577 O 0.30003 0.80999 0.76742 0.0
O2578 O 0.32841 0.81545 0.80436 0.0
O2579 O 0.3034 0.78591 0.81034 0.0
O2580 O 0.27967 0.8103 0.79066 0.0
O2581 O 0.26296 0.75368 0.75338 0.0
O2582 O 0.36474 0.80364 0.76778 0.0
O2583 O 0.3208 0.77663 0.77816 0.0
O2584 O 0.29433 0.7686 0.74225 0.0
O2585 O 0.31666 0.80007 0.736 0.0
O2586 O 0.34103 0.77624 0.75477 0.0
O2587 O 0.35926 0.83021 0.79253 0.0
C2588 C 0.28992 0.82278 0.77883 0.0
C2589 C 0.27033 0.71499 0.83212 0.0
C2590 C 0.27794 0.70146 0.81566 0.0
C2591 C 0.24887 0.7646 0.75867 0.0
C2592 C 0.22874 0.75164 0.76215 0.0
C2593 C 0.22674 0.73708 0.77697 0.0
C2594 C 0.2111 0.75474 0.7511 0.0
C2595 C 0.19157 0.74359 0.75503 0.0
C2596 C 0.20724 0.7261 0.78104 0.0
C2597 C 0.18966 0.7294 0.77016 0.0
C2598 C 0.31829 0.80369 0.81745 0.0
C2599 C 0.33078 0.76378 0.76667 0.0
C2600 C 0.3728 0.81992 0.78399 0.0
C2601 C 0.3928 0.83357 0.78116 0.0
C2602 C 0.39486 0.84835 0.76656 0.0
C2603 C 0.41033 0.83093 0.79274 0.0
C2604 C 0.4298 0.84297 0.78977 0.0
C2605 C 0.41433 0.86022 0.76343 0.0
C2606 C 0.43181 0.85758 0.77503 0.0
C2607 C 0.30333 0.78101 0.72909 0.0
H2608 H 0.24013 0.73422 0.78541 0.0
H2609 H 0.21254 0.76594 0.73958 0.0
H2610 H 0.20577 0.71502 0.79261 0.0
H2611 H 0.17461 0.72074 0.77335 0.0
H2612 H 0.38159 0.85074 0.75758 0.0
H2613 H 0.40885 0.81954 0.80408 0.0
H2614 H 0.41586 0.87152 0.75206 0.0
H2615 H 0.44685 0.86697 0.77263 0.0
Gd2616 Gd 0.54837 0.05225 0.99766 0.0
Gd2617 Gd 0.56725 0.03139 0.04584 0.0
C2618 C 0.63081 0.06705 0.08053 0.0
C2619 C 0.6502 0.03832 0.07256 0.0
C2620 C 0.61396 0.03063 0.05939 0.0
C2621 C 0.61318 0.05222 0.06859 0.0
C2622 C 0.63231 0.02322 0.06187 0.0
C2623 C 0.64945 0.0602 0.0819 0.0
C2624 C 0.62908 0.08813 0.09124 0.0
C2625 C 0.61006 0.09386 0.09013 0.0
N2626 N 0.59495 0.05835 0.06685 0.0
C2627 C 0.59309 0.07874 0.07782 0.0
H2628 H 0.57876 0.08385 0.07698 0.0
C2629 C 0.59554 0.99402 0.04352 0.0
N2630 N 0.59642 0.01641 0.04931 0.0
C2631 C 0.61333 0.98588 0.04555 0.0
C2632 C 0.63191 1.00064 0.05434 0.0
H2633 H 0.5812 0.98261 0.03646 0.0
H2634 H 0.66322 0.07149 0.09068 0.0
H2635 H 0.53191 0.99762 0.97269 0.0
H2636 H 0.64223 0.09995 0.10064 0.0
H2637 H 0.60849 0.11005 0.09852 0.0
H2638 H 0.66452 0.03304 0.07433 0.0
H2639 H 0.53843 0.1028 0.00614 0.0
H2640 H 0.4701 0.98724 0.94501 0.0
H2641 H 0.50098 0.97281 0.95208 0.0
H2642 H 0.4555 0.0598 0.96174 0.0
H2643 H 0.61272 0.96829 0.04021 0.0
H2644 H 0.64568 0.9943 0.05593 0.0
H2645 H 0.45325 0.01973 0.94879 0.0
H2646 H 0.50974 0.12062 0.999 0.0
N2647 N 0.51914 0.02649 0.97787 0.0
C2648 C 0.48377 0.9984 0.95415 0.0
C2649 C 0.50116 0.99021 0.95807 0.0
C2650 C 0.48428 0.02095 0.96185 0.0
C2651 C 0.50244 0.03476 0.97372 0.0
C2652 C 0.51884 1.00456 0.96978 0.0
N2653 N 0.52124 0.06991 0.99256 0.0
C2654 C 0.50354 0.05717 0.98131 0.0
C2655 C 0.50772 0.10274 0.99406 0.0
C2656 C 0.48897 0.08963 0.98361 0.0
C2657 C 0.52389 0.0926 0.99809 0.0
C2658 C 0.48677 0.0666 0.97681 0.0
H2659 H 0.47646 0.09752 0.98045 0.0
O2660 O 0.56116 0.07962 0.98262 0.0
O2661 O 0.57349 0.05316 0.02204 0.0
O2662 O 0.55031 0.05859 0.05682 0.0
O2663 O 0.5346 0.06806 0.02635 0.0
O2664 O 0.5729 0.0831 0.0136 0.0
O2665 O 0.55763 0.04511 0.96446 0.0
O2666 O 0.55624 1.00244 0.05992 0.0
O2667 O 0.54167 0.03086 0.02204 0.0
O2668 O 0.56285 0.02284 0.98677 0.0
O2669 O 0.58257 0.01836 0.01718 0.0
O2670 O 0.54316 1.00063 0.02938 0.0
O2671 O 0.55833 0.03638 0.07898 0.0
C2672 C 0.58298 0.07317 0.02525 0.0
C2673 C 0.46858 0.05289 0.96527 0.0
C2674 C 0.46732 0.03009 0.95785 0.0
C2675 C 0.56317 0.06651 0.96462 0.0
C2676 C 0.57098 0.07598 0.94625 0.0
C2677 C 0.56842 0.09723 0.94399 0.0
C2678 C 0.58185 0.06447 0.93152 0.0
C2679 C 0.59071 0.07455 0.91505 0.0
C2680 C 0.57695 0.10704 0.92727 0.0
C2681 C 0.58823 0.09583 0.91291 0.0
C2682 C 0.53801 0.06916 0.04761 0.0
C2683 C 0.5321 0.01084 0.01909 0.0
C2684 C 0.5535 0.01482 0.07815 0.0
C2685 C 0.54577 1.00503 0.09643 0.0
C2686 C 0.54758 0.9834 0.09804 0.0
C2687 C 0.5361 0.01704 0.11212 0.0
C2688 C 0.52833 1.00756 0.12944 0.0
C2689 C 0.53994 0.97396 0.11535 0.0
C2690 C 0.53037 0.98596 0.13104 0.0
C2691 C 0.57684 0.01429 0.996 0.0
H2692 H 0.55997 0.10631 0.95525 0.0
H2693 H 0.58416 0.04822 0.9334 0.0
H2694 H 0.57506 0.12345 0.92562 0.0
H2695 H 0.59513 0.10377 0.90021 0.0
H2696 H 0.55495 0.97384 0.08597 0.0
H2697 H 0.53456 0.03371 0.11084 0.0
H2698 H 0.54134 0.95728 0.11656 0.0
H2699 H 0.52427 0.97826 0.14423 0.0
Gd2700 Gd 0.29255 0.26781 0.26088 0.0
Gd2701 Gd 0.32927 0.31907 0.28694 0.0
C2702 C 0.3962 0.32643 0.27065 0.0
C2703 C 0.41429 0.33104 0.30648 0.0
C2704 C 0.37679 0.32306 0.30199 0.0
C2705 C 0.37715 0.32312 0.27984 0.0
C2706 C 0.39544 0.32742 0.31556 0.0
C2707 C 0.41466 0.33046 0.28407 0.0
C2708 C 0.39624 0.32533 0.24816 0.0
C2709 C 0.37765 0.32045 0.23526 0.0
N2710 N 0.35901 0.31949 0.26722 0.0
C2711 C 0.35921 0.31735 0.24497 0.0
H2712 H 0.34546 0.31224 0.23404 0.0
C2713 C 0.3579 0.32299 0.33271 0.0
N2714 N 0.35836 0.31965 0.31048 0.0
C2715 C 0.37585 0.3269 0.3467 0.0
C2716 C 0.39473 0.32885 0.33807 0.0
H2717 H 0.34375 0.32379 0.33995 0.0
H2718 H 0.42934 0.33316 0.27726 0.0
H2719 H 0.27571 0.27962 0.31296 0.0
H2720 H 0.41051 0.32759 0.24053 0.0
H2721 H 0.37745 0.31867 0.21769 0.0
H2722 H 0.42869 0.33449 0.31669 0.0
H2723 H 0.27777 0.26335 0.20772 0.0
H2724 H 0.21098 0.25574 0.30686 0.0
H2725 H 0.24393 0.27135 0.32977 0.0
H2726 H 0.19249 0.24137 0.22993 0.0
H2727 H 0.37514 0.32919 0.36421 0.0
H2728 H 0.4087 0.33235 0.34899 0.0
H2729 H 0.19199 0.24468 0.26964 0.0
H2730 H 0.24619 0.25372 0.18307 0.0
N2731 N 0.26232 0.2661 0.28008 0.0
C2732 C 0.22521 0.25861 0.29921 0.0
C2733 C 0.24376 0.26728 0.31217 0.0
C2734 C 0.22514 0.25505 0.27651 0.0
C2735 C 0.24412 0.25932 0.26732 0.0
C2736 C 0.2621 0.27129 0.30235 0.0
N2737 N 0.2627 0.26385 0.23692 0.0
C2738 C 0.24433 0.25829 0.24508 0.0
C2739 C 0.24536 0.25538 0.20052 0.0
C2740 C 0.22639 0.25057 0.20883 0.0
C2741 C 0.26336 0.26157 0.21477 0.0
C2742 C 0.22567 0.2518 0.2313 0.0
H2743 H 0.21244 0.24551 0.19773 0.0
O2744 O 0.29889 0.2477 0.23127 0.0
O2745 O 0.32523 0.28669 0.26486 0.0
O2746 O 0.3208 0.32577 0.2539 0.0
O2747 O 0.29782 0.2922 0.23694 0.0
O2748 O 0.31983 0.25434 0.27004 0.0
O2749 O 0.28023 0.23202 0.2542 0.0
O2750 O 0.32511 0.34176 0.31606 0.0
O2751 O 0.29666 0.30039 0.28284 0.0
O2752 O 0.29965 0.26164 0.29437 0.0
O2753 O 0.32262 0.29511 0.31147 0.0
O2754 O 0.30191 0.33349 0.28024 0.0
O2755 O 0.34584 0.35354 0.2927 0.0
C2756 C 0.33383 0.27186 0.26962 0.0
C2757 C 0.2069 0.24652 0.24028 0.0
C2758 C 0.20663 0.24824 0.26286 0.0
C2759 C 0.28948 0.22901 0.23634 0.0
C2760 C 0.3009 0.21129 0.23339 0.0
C2761 C 0.30555 0.20299 0.21232 0.0
C2762 C 0.30838 0.20364 0.25133 0.0
C2763 C 0.32096 0.18833 0.24824 0.0
C2764 C 0.31787 0.18749 0.20922 0.0
C2765 C 0.3257 0.18029 0.22712 0.0
C2766 C 0.30852 0.31283 0.23692 0.0
C2767 C 0.28794 0.31552 0.27915 0.0
C2768 C 0.33835 0.35847 0.31137 0.0
C2769 C 0.33394 0.38047 0.31685 0.0
C2770 C 0.3428 0.39434 0.33676 0.0
C2771 C 0.32166 0.38805 0.3024 0.0
C2772 C 0.31827 0.40962 0.3078 0.0
C2773 C 0.33958 0.41587 0.34214 0.0
C2774 C 0.32745 0.42356 0.32772 0.0
C2775 C 0.31159 0.27458 0.31156 0.0
H2776 H 0.29991 0.20878 0.19832 0.0
H2777 H 0.30498 0.21 0.26771 0.0
H2778 H 0.32149 0.18119 0.19296 0.0
H2779 H 0.33531 0.1683 0.22449 0.0
H2780 H 0.35237 0.38857 0.34802 0.0
H2781 H 0.31465 0.37713 0.28715 0.0
H2782 H 0.34654 0.42663 0.35746 0.0
H2783 H 0.32532 0.44044 0.33212 0.0
Gd2784 Gd 0.56403 0.51901 0.01271 0.0
Gd2785 Gd 0.55571 0.5712 0.03636 0.0
C2786 C 0.57801 0.59689 0.10898 0.0
C2787 C 0.5461 0.59957 0.12487 0.0
C2788 C 0.54608 0.58767 0.08561 0.0
C2789 C 0.56699 0.58923 0.0881 0.0
C2790 C 0.53548 0.59351 0.10387 0.0
C2791 C 0.56736 0.60128 0.12741 0.0
C2792 C 0.59949 0.60106 0.1106 0.0
C2793 C 0.60944 0.59853 0.09163 0.0
N2794 N 0.57679 0.58522 0.06989 0.0
C2795 C 0.59785 0.59071 0.07133 0.0
H2796 H 0.6061 0.5886 0.05711 0.0
C2797 C 0.51669 0.58457 0.0615 0.0
N2798 N 0.53645 0.58234 0.06509 0.0
C2799 C 0.50542 0.58997 0.07906 0.0
C2800 C 0.51475 0.59406 0.10039 0.0
H2801 H 0.50942 0.58145 0.045 0.0
H2802 H 0.57554 0.60687 0.1436 0.0
H2803 H 0.51531 0.50294 0.9875 0.0
H2804 H 0.60852 0.60704 0.12631 0.0
H2805 H 0.62608 0.60231 0.09261 0.0
H2806 H 0.53817 0.60383 0.13913 0.0
H2807 H 0.61163 0.51047 0.00895 0.0
H2808 H 0.51863 0.48509 0.91894 0.0
H2809 H 0.49817 0.49039 0.95041 0.0
H2810 H 0.58999 0.48653 0.91334 0.0
H2811 H 0.48958 0.59101 0.07612 0.0
H2812 H 0.50605 0.59844 0.11399 0.0
H2813 H 0.55303 0.48405 0.90523 0.0
H2814 H 0.63382 0.50049 0.98019 0.0
N2815 N 0.54574 0.50571 0.97767 0.0
C2816 C 0.52637 0.49071 0.93532 0.0
C2817 C 0.51477 0.49358 0.95303 0.0
C2818 C 0.54774 0.49414 0.93907 0.0
C2819 C 0.55707 0.50152 0.96073 0.0
C2820 C 0.5247 0.50075 0.9742 0.0
N2821 N 0.5859 0.50852 0.98643 0.0
C2822 C 0.57781 0.50289 0.96527 0.0
C2823 C 0.61814 0.50125 0.97575 0.0
C2824 C 0.61037 0.49662 0.9538 0.0
C2825 C 0.60554 0.50683 0.99198 0.0
C2826 C 0.58987 0.49699 0.94833 0.0
H2827 H 0.62013 0.49215 0.94126 0.0
O2828 O 0.57608 0.49496 0.02737 0.0
O2829 O 0.56557 0.54141 0.04613 0.0
O2830 O 0.58697 0.5761 0.02344 0.0
O2831 O 0.59039 0.54284 1.00237 0.0
O2832 O 0.59106 0.52895 0.03872 0.0
O2833 O 0.54492 0.48592 0.01178 0.0
O2834 O 0.54124 0.59554 0.02521 0.0
O2835 O 0.55379 0.54867 1.00304 0.0
O2836 O 0.53164 0.51438 0.02311 0.0
O2837 O 0.5289 0.54716 0.04555 0.0
O2838 O 0.52847 0.56125 0.0107 0.0
O2839 O 0.5744 0.60309 0.03281 0.0
C2840 C 0.58334 0.53995 0.05434 0.0
C2841 C 0.58092 0.49089 0.9266 0.0
C2842 C 0.55989 0.48949 0.92198 0.0
C2843 C 0.5593 0.4795 0.0221 0.0
C2844 C 0.56179 0.45685 0.01462 0.0
C2845 C 0.57449 0.45181 0.99825 0.0
C2846 C 0.55237 0.44032 0.02551 0.0
C2847 C 0.55609 0.4188 0.02076 0.0
C2848 C 0.57818 0.43043 0.99328 0.0
C2849 C 0.56923 0.41404 1.00458 0.0
C2850 C 0.59712 0.56434 0.0103 0.0
C2851 C 0.53602 0.55022 0.99493 0.0
C2852 C 0.55857 0.60986 0.02591 0.0
C2853 C 0.55852 0.63331 0.03245 0.0
C2854 C 0.55109 0.64197 0.05188 0.0
C2855 C 0.56499 0.64695 0.01767 0.0
C2856 C 0.56361 0.66928 0.02167 0.0
C2857 C 0.55009 0.66443 0.05629 0.0
C2858 C 0.55625 0.67806 0.04124 0.0
C2859 C 0.52151 0.52601 0.03647 0.0
H2860 H 0.58177 0.46438 0.9896 0.0
H2861 H 0.54229 0.4444 0.03787 0.0
H2862 H 0.58826 0.42663 0.98088 0.0
H2863 H 0.57286 0.3978 1.00086 0.0
H2864 H 0.54592 0.63141 0.06338 0.0
H2865 H 0.57092 0.64 1.00281 0.0
H2866 H 0.54427 0.67121 0.07122 0.0
H2867 H 0.55489 0.69527 0.0447 0.0
Gd2868 Gd 0.78714 0.27898 0.28146 0.0
Gd2869 Gd 0.83303 0.30872 0.26631 0.0
C2870 C 0.83515 0.37862 0.25327 0.0
C2871 C 0.84329 0.37463 0.21556 0.0
C2872 C 0.83965 0.34299 0.23385 0.0
C2873 C 0.83532 0.35598 0.25267 0.0
C2874 C 0.84431 0.35238 0.21533 0.0
C2875 C 0.83864 0.38769 0.23447 0.0
C2876 C 0.83222 0.39172 0.27296 0.0
C2877 C 0.83039 0.38246 0.29164 0.0
N2878 N 0.83261 0.34693 0.27077 0.0
C2879 C 0.83094 0.36007 0.29035 0.0
H2880 H 0.82939 0.35342 0.30506 0.0
C2881 C 0.84817 0.30937 0.21735 0.0
N2882 N 0.84078 0.32164 0.23417 0.0
C2883 C 0.85295 0.31795 0.19862 0.0
C2884 C 0.85068 0.33942 0.19745 0.0
H2885 H 0.84985 0.29272 0.21824 0.0
H2886 H 0.83844 0.40499 0.2346 0.0
H2887 H 0.79224 0.23323 0.24503 0.0
H2888 H 0.83194 0.40914 0.27406 0.0
H2889 H 0.82853 0.39255 0.30707 0.0
H2890 H 0.84663 0.38207 0.20142 0.0
H2891 H 0.76877 0.29691 0.32799 0.0
H2892 H 0.78485 0.17818 0.27751 0.0
H2893 H 0.79142 0.19397 0.24438 0.0
H2894 H 0.76697 0.20772 0.34804 0.0
H2895 H 0.85832 0.308 0.18509 0.0
H2896 H 0.85446 0.34607 0.18295 0.0
H2897 H 0.77599 0.18354 0.31622 0.0
H2898 H 0.7579 0.28289 0.36109 0.0
N2899 N 0.787 0.24075 0.27876 0.0
C2900 C 0.78536 0.19571 0.27803 0.0
C2901 C 0.78901 0.20452 0.2593 0.0
C2902 C 0.78178 0.20944 0.29702 0.0
C2903 C 0.78268 0.23218 0.29688 0.0
C2904 C 0.78946 0.22704 0.25983 0.0
N2905 N 0.7776 0.26724 0.31372 0.0
C2906 C 0.77787 0.24585 0.31492 0.0
C2907 C 0.76362 0.27235 0.3483 0.0
C2908 C 0.76485 0.25079 0.35037 0.0
C2909 C 0.76978 0.28023 0.32958 0.0
C2910 C 0.77166 0.23708 0.3334 0.0
H2911 H 0.7599 0.24465 0.3648 0.0
O2912 O 0.75738 0.28731 0.2837 0.0
O2913 O 0.79965 0.31063 0.26895 0.0
O2914 O 0.83215 0.31652 0.30264 0.0
O2915 O 0.80743 0.2893 0.31296 0.0
O2916 O 0.78323 0.31417 0.29547 0.0
O2917 O 0.76037 0.25816 0.26064 0.0
O2918 O 0.86259 0.30063 0.26182 0.0
O2919 O 0.82065 0.27696 0.27878 0.0
O2920 O 0.78938 0.2697 0.24552 0.0
O2921 O 0.8119 0.29868 0.23532 0.0
O2922 O 0.83712 0.27381 0.25214 0.0
O2923 O 0.86059 0.32955 0.2859 0.0
C2924 C 0.79169 0.32491 0.28126 0.0
C2925 C 0.77155 0.21471 0.33393 0.0
C2926 C 0.77665 0.20093 0.3158 0.0
C2927 C 0.74798 0.27017 0.26895 0.0
C2928 C 0.72782 0.25845 0.27362 0.0
C2929 C 0.72565 0.24499 0.28939 0.0
C2930 C 0.71035 0.26194 0.26267 0.0
C2931 C 0.69058 0.25249 0.26767 0.0
C2932 C 0.70607 0.23541 0.29441 0.0
C2933 C 0.68861 0.23919 0.28372 0.0
C2934 C 0.82346 0.30632 0.31757 0.0
C2935 C 0.82885 0.26291 0.26635 0.0
C2936 C 0.87255 0.31757 0.2765 0.0
C2937 C 0.8925 0.32915 0.27118 0.0
C2938 C 0.89436 0.34043 0.25369 0.0
C2939 C 0.91015 0.32696 0.28287 0.0
C2940 C 0.9298 0.33514 0.27673 0.0
C2941 C 0.91381 0.34894 0.24764 0.0
C2942 C 0.93144 0.34615 0.2589 0.0
C2943 C 0.79677 0.28077 0.23064 0.0
H2944 H 0.73894 0.24202 0.29791 0.0
H2945 H 0.71223 0.27208 0.25023 0.0
H2946 H 0.70443 0.22519 0.30675 0.0
H2947 H 0.67362 0.23196 0.28825 0.0
H2948 H 0.88092 0.34238 0.24455 0.0
H2949 H 0.90843 0.31858 0.29664 0.0
H2950 H 0.91522 0.35738 0.23393 0.0
H2951 H 0.94625 0.35226 0.25336 0.0
Gd2952 Gd 0.0569 0.55661 0.49964 0.0
Gd2953 Gd 0.06561 0.53254 0.54863 0.0
C2954 C 0.12144 0.5594 0.59947 0.0
C2955 C 0.13321 0.52565 0.60182 0.0
C2956 C 0.10421 0.52435 0.57595 0.0
C2957 C 0.10577 0.54696 0.58314 0.0
C2958 C 0.11791 0.51344 0.58521 0.0
C2959 C 0.135 0.54859 0.6089 0.0
C2960 C 0.12321 0.5824 0.60567 0.0
C2961 C 0.10974 0.59249 0.59546 0.0
N2962 N 0.09251 0.55692 0.5735 0.0
C2963 C 0.09442 0.57951 0.57941 0.0
H2964 H 0.08449 0.588 0.57176 0.0
C2965 C 0.0868 0.49055 0.5527 0.0
N2966 N 0.08943 0.51307 0.55972 0.0
C2967 C 0.1001 0.47903 0.56124 0.0
C2968 C 0.11576 0.49053 0.57756 0.0
H2969 H 0.07427 0.48149 0.54056 0.0
H2970 H 0.14702 0.55785 0.62157 0.0
H2971 H 0.04378 0.5012 0.47552 0.0
H2972 H 0.13506 0.59253 0.61811 0.0
H2973 H 0.11112 0.61033 0.59995 0.0
H2974 H 0.14381 0.51753 0.60921 0.0
H2975 H 0.04459 0.60621 0.50522 0.0
H2976 H 0.98762 0.48927 0.43506 0.0
H2977 H 0.01657 0.47571 0.44986 0.0
H2978 H 0.9706 0.5607 0.44478 0.0
H2979 H 0.0981 0.46125 0.55544 0.0
H2980 H 0.12597 0.48154 0.58427 0.0
H2981 H 0.97062 0.52099 0.43329 0.0
H2982 H 0.01708 0.62259 0.49164 0.0
N2983 N 0.03095 0.52979 0.47571 0.0
C2984 C 0.99969 0.50077 0.44637 0.0
C2985 C 0.016 0.49307 0.45465 0.0
C2986 C 0.99915 0.52323 0.45272 0.0
C2987 C 0.01522 0.53754 0.46755 0.0
C2988 C 0.03162 0.50785 0.46921 0.0
N2989 N 0.03043 0.57306 0.48885 0.0
C2990 C 0.01503 0.55985 0.47423 0.0
C2991 C 0.01621 0.60489 0.48674 0.0
C2992 C 0.99969 0.59129 0.47258 0.0
C2993 C 0.03169 0.59552 0.49446 0.0
C2994 C 0.99903 0.56853 0.46597 0.0
H2995 H 0.9877 0.59859 0.46658 0.0
O2996 O 0.07214 0.58607 0.48864 0.0
O2997 O 0.07864 0.55291 0.52547 0.0
O2998 O 0.05344 0.56351 0.55776 0.0
O2999 O 0.04122 0.57367 0.52602 0.0
O3000 O 0.08227 0.58416 0.51935 0.0
O3001 O 0.06961 0.55263 0.46823 0.0
O3002 O 0.048 0.50519 0.56148 0.0
O3003 O 0.04389 0.53592 0.52258 0.0
O3004 O 0.07315 0.5284 0.49083 0.0
O3005 O 0.08263 0.51639 0.5227 0.0
O3006 O 0.04147 0.50433 0.52814 0.0
O3007 O 0.04958 0.53959 0.57724 0.0
C3008 C 0.09094 0.57156 0.52924 0.0
C3009 C 0.98303 0.55434 0.45125 0.0
C3010 C 0.98306 0.53174 0.44469 0.0
C3011 C 0.07592 0.5743 0.47055 0.0
C3012 C 0.0866 0.58505 0.45423 0.0
C3013 C 0.08717 0.60761 0.45402 0.0
C3014 C 0.09567 0.57265 0.43832 0.0
C3015 C 0.10479 0.58255 0.42191 0.0
C3016 C 0.09642 0.61752 0.43767 0.0
C3017 C 0.10508 0.60499 0.42151 0.0
C3018 C 0.04317 0.57515 0.54742 0.0
C3019 C 0.03258 0.51667 0.51812 0.0
C3020 C 0.04372 0.51854 0.57827 0.0
C3021 C 0.04745 0.5133 0.59983 0.0
C3022 C 0.06232 0.50146 0.60431 0.0
C3023 C 0.03633 0.52123 0.61654 0.0
C3024 C 0.04029 0.51783 0.63772 0.0
C3025 C 0.0664 0.49819 0.62548 0.0
C3026 C 0.05551 0.50648 0.64224 0.0
C3027 C 0.08257 0.51614 0.50144 0.0
H3028 H 0.08018 0.61746 0.46623 0.0
H3029 H 0.09531 0.55522 0.43838 0.0
H3030 H 0.0967 0.63484 0.4374 0.0
H3031 H 0.11207 0.61278 0.40876 0.0
H3032 H 0.07079 0.49473 0.59162 0.0
H3033 H 0.02473 0.53028 0.61312 0.0
H3034 H 0.07795 0.48915 0.62887 0.0
H3035 H 0.0586 0.50359 0.65856 0.0
Gd3036 Gd 0.83788 0.78748 0.27664 0.0
Gd3037 Gd 0.78688 0.7985 0.27156 0.0
C3038 C 0.75362 0.79024 0.20355 0.0
C3039 C 0.74937 0.82781 0.2032 0.0
C3040 C 0.76637 0.81963 0.23521 0.0
C3041 C 0.76382 0.79768 0.22484 0.0
C3042 C 0.75858 0.83481 0.2248 0.0
C3043 C 0.74694 0.80556 0.19257 0.0
C3044 C 0.74974 0.7675 0.19426 0.0
C3045 C 0.75518 0.75269 0.20651 0.0
N3046 N 0.77004 0.78326 0.23613 0.0
C3047 C 0.765 0.76083 0.22765 0.0
H3048 H 0.769 0.74901 0.23673 0.0
C3049 C 0.77425 0.84596 0.26843 0.0
N3050 N 0.7748 0.82564 0.25622 0.0
C3051 C 0.76702 0.86172 0.25878 0.0
C3052 C 0.75942 0.85624 0.23674 0.0
H3053 H 0.78002 0.8502 0.28553 0.0
H3054 H 0.73924 0.8002 0.17615 0.0
H3055 H 0.85266 0.83923 0.30961 0.0
H3056 H 0.74201 0.76114 0.17793 0.0
H3057 H 0.75182 0.73498 0.1997 0.0
H3058 H 0.74347 0.83927 0.19485 0.0
H3059 H 0.84319 0.73519 0.26746 0.0
H3060 H 0.88803 0.83396 0.36636 0.0
H3061 H 0.87251 0.85662 0.34455 0.0
H3062 H 0.89104 0.75698 0.35396 0.0
H3063 H 0.7672 0.87801 0.26835 0.0
H3064 H 0.75359 0.86837 0.22934 0.0
H3065 H 0.8948 0.79677 0.36975 0.0
H3066 H 0.85919 0.71034 0.2859 0.0
N3067 N 0.85609 0.80619 0.3109 0.0
C3068 C 0.87917 0.82603 0.35085 0.0
C3069 C 0.8705 0.83887 0.33857 0.0
C3070 C 0.8766 0.80317 0.3428 0.0
C3071 C 0.86485 0.79363 0.32254 0.0
C3072 C 0.85923 0.82874 0.31847 0.0
N3073 N 0.85185 0.7629 0.29402 0.0
C3074 C 0.86252 0.77124 0.31388 0.0
C3075 C 0.86016 0.7274 0.29403 0.0
C3076 C 0.87062 0.73551 0.31483 0.0
C3077 C 0.8511 0.74149 0.28367 0.0
C3078 C 0.87216 0.75776 0.3249 0.0
H3079 H 0.87782 0.72464 0.32275 0.0
O3080 O 0.85595 0.77302 0.25225 0.0
O3081 O 0.81244 0.78949 0.25234 0.0
O3082 O 0.78409 0.76107 0.27311 0.0
O3083 O 0.81627 0.75744 0.28634 0.0
O3084 O 0.82345 0.76053 0.24872 0.0
O3085 O 0.8655 0.80774 0.26717 0.0
O3086 O 0.76867 0.80951 0.2976 0.0
O3087 O 0.81191 0.79512 0.29501 0.0
O3088 O 0.84072 0.82395 0.27344 0.0
O3089 O 0.80853 0.83077 0.2653 0.0
O3090 O 0.80033 0.82341 0.30195 0.0
O3091 O 0.75699 0.77813 0.27582 0.0
C3092 C 0.81177 0.77089 0.23956 0.0
C3093 C 0.88355 0.76706 0.34523 0.0
C3094 C 0.88573 0.78972 0.35419 0.0
C3095 C 0.86981 0.79138 0.25353 0.0
C3096 C 0.89156 0.78949 0.25456 0.0
C3097 C 0.9006 0.78486 0.27347 0.0
C3098 C 0.90351 0.79248 0.23681 0.0
C3099 C 0.92445 0.79126 0.23839 0.0
C3100 C 0.92106 0.78321 0.27489 0.0
C3101 C 0.93292 0.78646 0.25759 0.0
C3102 C 0.79614 0.74908 0.28079 0.0
C3103 C 0.8124 0.81237 0.30944 0.0
C3104 C 0.7533 0.79235 0.29221 0.0
C3105 C 0.73245 0.79709 0.29171 0.0
C3106 C 0.7254 0.80578 0.27432 0.0
C3107 C 0.71951 0.79321 0.30857 0.0
C3108 C 0.69958 0.79776 0.30767 0.0
C3109 C 0.70609 0.81079 0.27363 0.0
C3110 C 0.69332 0.80686 0.29007 0.0
C3111 C 0.82902 0.83747 0.26857 0.0
H3112 H 0.89187 0.78263 0.28722 0.0
H3113 H 0.89672 0.79617 0.22214 0.0
H3114 H 0.92783 0.77953 0.28956 0.0
H3115 H 0.94881 0.78516 0.25919 0.0
H3116 H 0.73483 0.80869 0.2612 0.0
H3117 H 0.72476 0.78633 0.32201 0.0
H3118 H 0.70093 0.81769 0.26019 0.0
H3119 H 0.67844 0.81106 0.28902 0.0
Gd3120 Gd 0.79556 0.30032 0.79437 0.0
Gd3121 Gd 0.82602 0.28568 0.7481 0.0
C3122 C 0.80371 0.2149 0.70674 0.0
C3123 C 0.83151 0.19749 0.71528 0.0
C3124 C 0.83328 0.23643 0.73129 0.0
C3125 C 0.81424 0.23509 0.72062 0.0
C3126 C 0.84249 0.2179 0.72794 0.0
C3127 C 0.81213 0.19599 0.70471 0.0
C3128 C 0.7852 0.21436 0.69494 0.0
C3129 C 0.77785 0.23373 0.69666 0.0
N3130 N 0.80638 0.25364 0.72313 0.0
C3131 C 0.78867 0.25327 0.71069 0.0
H3132 H 0.78231 0.26766 0.71119 0.0
C3133 C 0.8642 0.25972 0.74946 0.0
N3134 N 0.84355 0.25632 0.74346 0.0
C3135 C 0.87398 0.24192 0.7467 0.0
C3136 C 0.86288 0.22072 0.73645 0.0
H3137 H 0.87305 0.27615 0.75721 0.0
H3138 H 0.80404 0.1803 0.69448 0.0
H3139 H 0.84158 0.32783 0.82449 0.0
H3140 H 0.77668 0.19921 0.68417 0.0
H3141 H 0.76371 0.23363 0.68726 0.0
H3142 H 0.83818 0.183 0.7129 0.0
H3143 H 0.74623 0.301 0.78527 0.0
H3144 H 0.83675 0.39278 0.8542 0.0
H3145 H 0.85649 0.36345 0.84812 0.0
H3146 H 0.76775 0.39491 0.832 0.0
H3147 H 0.89007 0.24461 0.75242 0.0
H3148 H 0.8705 0.20693 0.73419 0.0
H3149 H 0.80384 0.40453 0.84765 0.0
H3150 H 0.72345 0.32734 0.79164 0.0
N3151 N 0.81237 0.33522 0.81711 0.0
C3152 C 0.82973 0.37671 0.84395 0.0
C3153 C 0.84086 0.36018 0.84065 0.0
C3154 C 0.8096 0.37223 0.83416 0.0
C3155 C 0.80119 0.35103 0.82086 0.0
C3156 C 0.83197 0.33954 0.82723 0.0
N3157 N 0.77328 0.325 0.80001 0.0
C3158 C 0.78104 0.34578 0.81189 0.0
C3159 C 0.73966 0.33286 0.79723 0.0
C3160 C 0.74772 0.35473 0.80833 0.0
C3161 C 0.75263 0.31804 0.79357 0.0
C3162 C 0.76855 0.36134 0.81617 0.0
H3163 H 0.73762 0.36617 0.81132 0.0
O3164 O 0.76984 0.2807 0.80684 0.0
O3165 O 0.80435 0.27362 0.77094 0.0
O3166 O 0.79819 0.2985 0.73577 0.0
O3167 O 0.77864 0.30739 0.76483 0.0
O3168 O 0.77307 0.2707 0.77459 0.0
O3169 O 0.79979 0.29059 0.82561 0.0
O3170 O 0.85536 0.30114 0.73901 0.0
O3171 O 0.81616 0.31171 0.77067 0.0
O3172 O 0.82569 0.29285 0.80711 0.0
O3173 O 0.84201 0.27766 0.77802 0.0
O3174 O 0.84687 0.31829 0.76556 0.0
O3175 O 0.8279 0.29281 0.71518 0.0
C3176 C 0.7866 0.26149 0.76516 0.0
C3177 C 0.77704 0.38269 0.8287 0.0
C3178 C 0.79756 0.38814 0.83765 0.0
C3179 C 0.78045 0.28082 0.82491 0.0
C3180 C 0.77055 0.28508 0.84487 0.0
C3181 C 0.75951 0.30189 0.84917 0.0
C3182 C 0.77142 0.27088 0.85943 0.0
C3183 C 0.76095 0.27288 0.87805 0.0
C3184 C 0.74908 0.30398 0.86797 0.0
C3185 C 0.74963 0.28934 0.88239 0.0
C3186 C 0.78171 0.3048 0.74381 0.0
C3187 C 0.83265 0.32611 0.77506 0.0
C3188 C 0.84779 0.30063 0.71927 0.0
C3189 C 0.86108 0.309 0.70341 0.0
C3190 C 0.88243 0.31095 0.70639 0.0
C3191 C 0.85249 0.31483 0.68506 0.0
C3192 C 0.86508 0.32284 0.66976 0.0
C3193 C 0.89501 0.3187 0.69104 0.0
C3194 C 0.88641 0.32466 0.67276 0.0
C3195 C 0.84076 0.28384 0.79927 0.0
H3196 H 0.75875 0.31311 0.83803 0.0
H3197 H 0.77993 0.25785 0.85604 0.0
H3198 H 0.74043 0.3168 0.87127 0.0
H3199 H 0.74141 0.29088 0.89683 0.0
H3200 H 0.88937 0.30636 0.72047 0.0
H3201 H 0.83599 0.31323 0.68272 0.0
H3202 H 0.91146 0.32021 0.69337 0.0
H3203 H 0.89645 0.33111 0.66124 0.0
Gd3204 Gd 0.79444 0.77289 0.76435 0.0
Gd3205 Gd 0.83216 0.82404 0.78825 0.0
C3206 C 0.89868 0.83468 0.77051 0.0
C3207 C 0.91784 0.84514 0.80635 0.0
C3208 C 0.88043 0.83347 0.80283 0.0
C3209 C 0.88003 0.83118 0.78038 0.0
C3210 C 0.89939 0.84053 0.81606 0.0
C3211 C 0.91749 0.84211 0.78361 0.0
C3212 C 0.89796 0.82978 0.74774 0.0
C3213 C 0.8791 0.82066 0.73544 0.0
N3214 N 0.86155 0.82396 0.76815 0.0
C3215 C 0.86108 0.81755 0.74591 0.0
H3216 H 0.84709 0.80911 0.73592 0.0
C3217 C 0.86229 0.83165 0.83402 0.0
N3218 N 0.86235 0.82847 0.81174 0.0
C3219 C 0.88064 0.83849 0.84772 0.0
C3220 C 0.89929 0.84291 0.83872 0.0
H3221 H 0.84804 0.82961 0.84157 0.0
H3222 H 0.9319 0.84513 0.77629 0.0
H3223 H 0.77892 0.78391 0.81697 0.0
H3224 H 0.91193 0.83201 0.73959 0.0
H3225 H 0.87843 0.81565 0.71786 0.0
H3226 H 0.93249 0.85073 0.81627 0.0
H3227 H 0.77916 0.76755 0.71112 0.0
H3228 H 0.7138 0.76449 0.81177 0.0
H3229 H 0.74723 0.77713 0.83422 0.0
H3230 H 0.69432 0.75284 0.73525 0.0
H3231 H 0.88032 0.8408 0.86528 0.0
H3232 H 0.91351 0.84842 0.8494 0.0
H3233 H 0.69429 0.75564 0.77494 0.0
H3234 H 0.74737 0.76022 0.68714 0.0
N3235 N 0.76474 0.77256 0.78412 0.0
C3236 C 0.72792 0.76674 0.80388 0.0
C3237 C 0.74673 0.77374 0.81657 0.0
C3238 C 0.72753 0.76388 0.78118 0.0
C3239 C 0.74638 0.76731 0.77167 0.0
C3240 C 0.76496 0.77691 0.80647 0.0
N3241 N 0.76469 0.77058 0.74081 0.0
C3242 C 0.74638 0.76651 0.74942 0.0
C3243 C 0.74681 0.76243 0.70466 0.0
C3244 C 0.72798 0.75952 0.71344 0.0
C3245 C 0.76496 0.76735 0.71854 0.0
C3246 C 0.72755 0.76116 0.73599 0.0
H3247 H 0.71388 0.75534 0.70262 0.0
O3248 O 0.79919 0.75144 0.73484 0.0
O3249 O 0.82723 0.79087 0.76722 0.0
O3250 O 0.82447 0.82936 0.75477 0.0
O3251 O 0.79995 0.79653 0.73939 0.0
O3252 O 0.82137 0.75831 0.772 0.0
O3253 O 0.78003 0.73762 0.75848 0.0
O3254 O 0.82778 0.84595 0.81762 0.0
O3255 O 0.79952 0.8056 0.78613 0.0
O3256 O 0.80277 0.76759 0.79833 0.0
O3257 O 0.82792 0.80042 0.81278 0.0
O3258 O 0.80444 0.8375 0.78049 0.0
O3259 O 0.84529 0.85954 0.79277 0.0
C3260 C 0.83558 0.77571 0.77168 0.0
C3261 C 0.70886 0.75704 0.74533 0.0
C3262 C 0.70884 0.75844 0.76788 0.0
C3263 C 0.78802 0.73359 0.73992 0.0
C3264 C 0.79627 0.71365 0.73532 0.0
C3265 C 0.79495 0.70229 0.71361 0.0
C3266 C 0.80568 0.70603 0.75208 0.0
C3267 C 0.8135 0.68692 0.74716 0.0
C3268 C 0.80285 0.68326 0.70868 0.0
C3269 C 0.81205 0.67551 0.7254 0.0
C3270 C 0.8116 0.81648 0.73832 0.0
C3271 C 0.7905 0.82035 0.78208 0.0
C3272 C 0.83725 0.86389 0.81124 0.0
C3273 C 0.82668 0.88226 0.8142 0.0
C3274 C 0.82407 0.89234 0.83549 0.0
C3275 C 0.8181 0.88897 0.79623 0.0
C3276 C 0.8066 0.90525 0.79964 0.0
C3277 C 0.81275 0.90878 0.83883 0.0
C3278 C 0.80389 0.91514 0.82096 0.0
C3279 C 0.81634 0.78063 0.8143 0.0
H3280 H 0.78783 0.70819 0.70049 0.0
H3281 H 0.8067 0.7147 0.76891 0.0
H3282 H 0.80185 0.67453 0.69192 0.0
H3283 H 0.81822 0.66076 0.72136 0.0
H3284 H 0.83055 0.88724 0.84952 0.0
H3285 H 0.81984 0.88121 0.77967 0.0
H3286 H 0.81066 0.91643 0.85527 0.0
H3287 H 0.79494 0.92776 0.82371 0.0
Gd3288 Gd 0.58384 0.5595 0.535 0.0
Gd3289 Gd 0.5342 0.52953 0.51113 0.0
C3290 C 0.51037 0.4545 0.50817 0.0
C3291 C 0.50141 0.44048 0.46926 0.0
C3292 C 0.51653 0.47994 0.48301 0.0
C3293 C 0.51756 0.47621 0.5041 0.0
C3294 C 0.50792 0.4622 0.46538 0.0
C3295 C 0.50266 0.43663 0.49062 0.0
C3296 C 0.51052 0.45146 0.52979 0.0
C3297 C 0.51718 0.46987 0.54674 0.0
N3298 N 0.52461 0.49395 0.52074 0.0
C3299 C 0.52387 0.49106 0.54193 0.0
H3300 H 0.529 0.50478 0.55548 0.0
C3301 C 0.5183 0.50612 0.45984 0.0
N3302 N 0.52218 0.50123 0.47994 0.0
C3303 C 0.5102 0.4891 0.4418 0.0
C3304 C 0.50519 0.46699 0.44453 0.0
H3305 H 0.52174 0.52326 0.4577 0.0
H3306 H 0.49712 0.41987 0.49345 0.0
H3307 H 0.5907 0.5846 0.49122 0.0
H3308 H 0.50517 0.43508 0.53358 0.0
H3309 H 0.51713 0.4678 0.56357 0.0
H3310 H 0.49482 0.42665 0.45592 0.0
H3311 H 0.59507 0.56462 0.58856 0.0
H3312 H 0.61279 0.65453 0.51444 0.0
H3313 H 0.60226 0.62211 0.48388 0.0
H3314 H 0.62119 0.66168 0.59211 0.0
H3315 H 0.50759 0.49307 0.42587 0.0
H3316 H 0.49859 0.45384 0.4306 0.0
H3317 H 0.61961 0.66914 0.55481 0.0
H3318 H 0.60847 0.59446 0.62093 0.0
N3319 N 0.5937 0.59513 0.52596 0.0
C3320 C 0.60754 0.63797 0.51787 0.0
C3321 C 0.60169 0.61973 0.50059 0.0
C3322 C 0.60715 0.63455 0.53936 0.0
C3323 C 0.6001 0.61265 0.54295 0.0
C3324 C 0.59514 0.59832 0.50494 0.0
N3325 N 0.59518 0.58709 0.56669 0.0
C3326 C 0.60075 0.60852 0.56397 0.0
C3327 C 0.60619 0.59868 0.60505 0.0
C3328 C 0.6111 0.62092 0.6027 0.0
C3329 C 0.59857 0.58185 0.58672 0.0
C3330 C 0.60878 0.62606 0.58193 0.0
H3331 H 0.61728 0.63392 0.61688 0.0
O3332 O 0.608 0.54675 0.54919 0.0
O3333 O 0.56448 0.52467 0.52369 0.0
O3334 O 0.53313 0.54048 0.54889 0.0
O3335 O 0.56247 0.56822 0.56173 0.0
O3336 O 0.57887 0.53285 0.55517 0.0
O3337 O 0.61338 0.56324 0.5216 0.0
O3338 O 0.50971 0.54186 0.49687 0.0
O3339 O 0.55379 0.56411 0.52209 0.0
O3340 O 0.58581 0.5482 0.49756 0.0
O3341 O 0.55493 0.52356 0.48293 0.0
O3342 O 0.5389 0.55631 0.49094 0.0
O3343 O 0.50533 0.52765 0.52581 0.0
C3344 C 0.56826 0.51663 0.54051 0.0
C3345 C 0.61508 0.64798 0.57851 0.0
C3346 C 0.61422 0.65222 0.55726 0.0
C3347 C 0.62105 0.55362 0.53588 0.0
C3348 C 0.642 0.56351 0.54559 0.0
C3349 C 0.64746 0.58432 0.55988 0.0
C3350 C 0.65648 0.55063 0.54165 0.0
C3351 C 0.67628 0.55804 0.55236 0.0
C3352 C 0.66735 0.59185 0.57054 0.0
C3353 C 0.68173 0.57863 0.56699 0.0
C3354 C 0.54412 0.55641 0.56496 0.0
C3355 C 0.55015 0.5723 0.50536 0.0
C3356 C 0.49711 0.5362 0.51099 0.0
C3357 C 0.47597 0.52557 0.50207 0.0
C3358 C 0.47039 0.50345 0.49054 0.0
C3359 C 0.4613 0.53848 0.50428 0.0
C3360 C 0.44106 0.52953 0.49487 0.0
C3361 C 0.45027 0.49447 0.48097 0.0
C3362 C 0.43563 0.50746 0.48302 0.0
C3363 C 0.57415 0.53398 0.4807 0.0
H3364 H 0.63645 0.59453 0.56302 0.0
H3365 H 0.65214 0.53443 0.53075 0.0
H3366 H 0.67154 0.60781 0.58173 0.0
H3367 H 0.69706 0.58448 0.57545 0.0
H3368 H 0.48148 0.49319 0.48884 0.0
H3369 H 0.46575 0.55568 0.51303 0.0
H3370 H 0.44602 0.47742 0.47196 0.0
H3371 H 0.42003 0.50021 0.47568 0.0
Gd3372 Gd 0.03294 0.54143 0.0322 0.0
Gd3373 Gd 0.08301 0.54158 0.01316 0.0
C3374 C 0.1316 0.60685 0.02782 0.0
C3375 C 0.1365 0.61465 0.9915 0.0
C3376 C 0.11166 0.58161 0.99615 0.0
C3377 C 0.11622 0.58764 0.01861 0.0
C3378 C 0.12214 0.59475 0.98232 0.0
C3379 C 0.14127 0.62065 0.0142 0.0
C3380 C 0.13755 0.61099 0.05028 0.0
C3381 C 0.12869 0.59576 0.06283 0.0
N3382 N 0.10692 0.57372 0.03128 0.0
C3383 C 0.1134 0.57702 0.05296 0.0
H3384 H 0.10682 0.56523 0.06269 0.0
C3385 C 0.09628 0.55326 0.96579 0.0
N3386 N 0.09838 0.56184 0.98776 0.0
C3387 C 0.10589 0.56593 0.95139 0.0
C3388 C 0.11866 0.58693 0.95968 0.0
H3389 H 0.08671 0.53681 0.95942 0.0
H3390 H 0.15299 0.63558 0.02101 0.0
H3391 H 1.00368 0.51532 0.98441 0.0
H3392 H 0.14943 0.62545 0.05794 0.0
H3393 H 0.13361 0.59845 0.08008 0.0
H3394 H 0.1446 0.62504 0.98114 0.0
H3395 H 0.03315 0.54266 0.08727 0.0
H3396 H 0.97893 0.44776 0.98893 0.0
H3397 H 0.98385 0.47789 0.96767 0.0
H3398 H 0.99567 0.4463 0.0639 0.0
H3399 H 0.10363 0.55938 0.93397 0.0
H3400 H 0.12638 0.59657 0.94851 0.0
H3401 H 0.98383 0.43602 0.02472 0.0
H3402 H 0.02589 0.51599 0.11169 0.0
N3403 N 0.0114 0.50671 0.01496 0.0
C3404 C 0.98787 0.46426 0.99645 0.0
C3405 C 0.99062 0.48121 0.98441 0.0
C3406 C 0.996 0.46902 0.01832 0.0
C3407 C 0.00766 0.49077 0.02734 0.0
C3408 C 1.00219 0.50251 0.99403 0.0
N3409 N 0.02431 0.51794 0.05785 0.0
C3410 C 0.01449 0.49649 0.04937 0.0
C3411 C 0.02289 0.51017 0.09418 0.0
C3412 C 0.01453 0.48768 0.08554 0.0
C3413 C 0.02717 0.52521 0.08011 0.0
C3414 C 0.00964 0.48069 0.06296 0.0
H3415 H 0.01103 0.47607 0.09649 0.0
O3416 O 0.01779 0.55889 0.05717 0.0
O3417 O 0.06527 0.56301 0.03405 0.0
O3418 O 0.07854 0.52762 0.04355 0.0
O3419 O 0.05701 0.54789 0.0605 0.0
O3420 O 0.04053 0.57697 0.02782 0.0
O3421 O 1.00334 0.54906 0.02339 0.0
O3422 O 0.09706 0.51686 0.99453 0.0
O3423 O 0.05305 0.51899 0.01725 0.0
O3424 O 0.03202 0.54448 0.99713 0.0
O3425 O 0.06614 0.5573 0.99063 0.0
O3426 O 0.064 0.51507 0.98658 0.0
O3427 O 0.10951 0.53223 0.02763 0.0
C3428 C 0.06025 0.58091 0.03081 0.0
C3429 C 0.99922 0.45871 0.05377 0.0
C3430 C 0.99242 0.45288 0.03148 0.0
C3431 C 1.00237 0.55888 0.04344 0.0
C3432 C 0.98505 0.56881 0.05059 0.0
C3433 C 0.98203 0.57231 0.07291 0.0
C3434 C 0.97188 0.57547 0.0358 0.0
C3435 C 0.9562 0.58587 0.04364 0.0
C3436 C 0.96642 0.58237 0.08051 0.0
C3437 C 0.95365 0.58919 0.06603 0.0
C3438 C 0.07065 0.53564 0.06113 0.0
C3439 C 0.05023 0.50656 0.99826 0.0
C3440 C 0.11144 0.51847 0.01003 0.0
C3441 C 0.13242 0.51956 1.00357 0.0
C3442 C 0.14098 0.53482 0.9908 0.0
C3443 C 0.14399 0.50502 0.01006 0.0
C3444 C 0.16405 0.50581 1.00385 0.0
C3445 C 0.16069 0.53549 0.98439 0.0
C3446 C 0.17215 0.52112 0.9908 0.0
C3447 C 0.04618 0.55407 0.98588 0.0
H3448 H 0.9918 0.56727 0.08457 0.0
H3449 H 0.97399 0.57295 0.01853 0.0
H3450 H 0.96424 0.58495 0.09774 0.0
H3451 H 0.94162 0.59703 0.0723 0.0
H3452 H 0.13245 0.54613 0.98567 0.0
H3453 H 0.13748 0.49336 0.02012 0.0
H3454 H 0.16711 0.54719 0.97437 0.0
H3455 H 0.18734 0.52186 0.98536 0.0
H3456 H 0.03737 0.17139 0.01295 0.0
H3457 H 0.05158 0.15904 0.94604 0.0
H3458 H 0.05969 0.12373 0.95053 0.0
H3459 H 0.06153 0.09524 0.97268 0.0
H3460 H 0.04931 0.10723 0.04014 0.0
H3461 H 0.0421 0.1435 0.03646 0.0
C3462 C 0.04223 0.16094 0.99938 0.0
C3463 C 0.04359 0.16798 0.97899 0.0
C3464 C 0.04744 0.14052 1.00225 0.0
C3465 C 0.05025 0.1542 0.96179 0.0
C3466 C 0.05494 0.13392 0.96438 0.0
C3467 C 0.05762 0.10595 0.98673 0.0
C3468 C 0.0562 0.0984 0.00673 0.0
C3469 C 0.0535 0.1268 0.98443 0.0
C3470 C 0.0509 0.11257 0.02464 0.0
C3471 C 0.04656 0.1333 0.02243 0.0
H3472 H 0.18877 0.79087 0.20107 0.0
H3473 H 0.22079 0.84673 0.17526 0.0
H3474 H 0.25307 0.84542 0.19481 0.0
H3475 H 0.27294 0.82799 0.21912 0.0
H3476 H 0.24038 0.774 0.24691 0.0
H3477 H 0.20815 0.77475 0.22669 0.0
C3478 C 0.20279 0.80274 0.19958 0.0
C3479 C 0.20201 0.81886 0.18641 0.0
C3480 C 0.2215 0.80211 0.21125 0.0
C3481 C 0.22055 0.83423 0.18525 0.0
C3482 C 0.23919 0.83341 0.1964 0.0
C3483 C 0.25878 0.81638 0.22068 0.0
C3484 C 0.25922 0.80076 0.23441 0.0
C3485 C 0.23997 0.81737 0.20941 0.0
C3486 C 0.24058 0.78616 0.2365 0.0
C3487 C 0.22208 0.78657 0.22488 0.0
H3488 H 0.52409 0.90717 0.46314 0.0
H3489 H 0.55856 0.90358 0.52222 0.0
H3490 H 0.56466 0.94418 0.53412 0.0
H3491 H 0.56186 0.98153 0.52683 0.0
H3492 H 0.53151 0.98482 0.46531 0.0
H3493 H 0.52171 0.94407 0.45568 0.0
C3494 C 0.53273 0.9152 0.47876 0.0
C3495 C 0.5407 0.90204 0.49177 0.0
C3496 C 0.53673 0.93878 0.48524 0.0
C3497 C 0.55224 0.91307 0.51176 0.0
C3498 C 0.55568 0.93639 0.51864 0.0
C3499 C 0.5526 0.97327 0.51161 0.0
C3500 C 0.54657 0.98637 0.49725 0.0
C3501 C 0.54815 0.94955 0.50547 0.0
C3502 C 0.53569 0.97527 0.47701 0.0
C3503 C 0.53026 0.95188 0.47138 0.0
H3504 H 0.5104 0.31157 0.70843 0.0
H3505 H 0.48006 0.30469 0.64394 0.0
H3506 H 0.44668 0.29853 0.65843 0.0
H3507 H 0.42557 0.29199 0.68884 0.0
H3508 H 0.45535 0.29802 0.75316 0.0
H3509 H 0.4892 0.30759 0.73948 0.0
C3510 C 0.49651 0.30874 0.69752 0.0
C3511 C 0.498 0.30863 0.675 0.0
C3512 C 0.47711 0.30508 0.706 0.0
C3513 C 0.47965 0.30519 0.66131 0.0
C3514 C 0.46043 0.30152 0.66959 0.0
C3515 C 0.4395 0.29605 0.69994 0.0
C3516 C 0.43796 0.29477 0.72208 0.0
C3517 C 0.45891 0.30115 0.69183 0.0
C3518 C 0.45613 0.29944 0.73619 0.0
C3519 C 0.47549 0.30465 0.72828 0.0
H3520 H 0.03177 0.83537 0.56224 0.0
H3521 H 0.02057 0.8849 0.61478 0.0
H3522 H 0.03275 0.91438 0.59428 0.0
H3523 H 0.0493 0.92589 0.56286 0.0
H3524 H 0.05764 0.87561 0.5089 0.0
H3525 H 0.04435 0.84651 0.52889 0.0
C3526 C 0.03177 0.85263 0.56897 0.0
C3527 C 0.02548 0.85822 0.58985 0.0
C3528 C 0.03863 0.86926 0.55709 0.0
C3529 C 0.02534 0.88044 0.5986 0.0
C3530 C 0.03241 0.89721 0.58697 0.0
C3531 C 0.04778 0.90859 0.55511 0.0
C3532 C 0.05485 0.90311 0.53442 0.0
C3533 C 0.03945 0.89182 0.56636 0.0
C3534 C 0.05298 0.88049 0.52503 0.0
C3535 C 0.04515 0.86376 0.53634 0.0
H3536 H 0.50711 0.84913 0.85386 0.0
H3537 H 0.51372 0.79349 0.80496 0.0
H3538 H 0.48144 0.7941 0.78486 0.0
H3539 H 0.45244 0.81223 0.78008 0.0
H3540 H 0.44723 0.86897 0.82814 0.0
H3541 H 0.47818 0.86653 0.84962 0.0
C3542 C 0.50157 0.83722 0.83872 0.0
C3543 C 0.51289 0.82147 0.83076 0.0
C3544 C 0.4834 0.83805 0.82705 0.0
C3545 C 0.50522 0.80572 0.81147 0.0
C3546 C 0.48687 0.80618 0.79989 0.0
C3547 C 0.45819 0.82393 0.7953 0.0
C3548 C 0.44798 0.84085 0.80266 0.0
C3549 C 0.47602 0.82251 0.80735 0.0
C3550 C 0.45517 0.85597 0.82233 0.0
C3551 C 0.47274 0.85453 0.83454 0.0
H3552 H 0.51162 0.14022 0.11679 0.0
H3553 H 0.47633 0.14692 0.05941 0.0
H3554 H 0.48436 0.11317 0.03876 0.0
H3555 H 0.50598 0.0861 0.03579 0.0
H3556 H 0.54515 0.08302 0.09199 0.0
H3557 H 0.53085 0.11098 0.11456 0.0
C3558 C 0.5055 0.13409 0.09982 0.0
C3559 C 0.49386 0.14617 0.0894 0.0
C3560 C 0.51116 0.11565 0.08785 0.0
C3561 C 0.48541 0.13785 0.06768 0.0
C3562 C 0.49018 0.11875 0.05585 0.0
C3563 C 0.51156 0.09165 0.05291 0.0
C3564 C 0.52732 0.08333 0.06196 0.0
C3565 C 0.50387 0.10827 0.06553 0.0
C3566 C 0.53345 0.08966 0.08447 0.0
C3567 C 0.52527 0.10561 0.0974 0.0
H3568 H 0.19558 0.31193 0.29592 0.0
H3569 H 0.2246 0.33922 0.36135 0.0
H3570 H 0.25844 0.33892 0.34859 0.0
H3571 H 0.27949 0.32975 0.31921 0.0
H3572 H 0.25172 0.30594 0.25307 0.0
H3573 H 0.21741 0.30595 0.26549 0.0
C3574 C 0.20941 0.3179 0.30721 0.0
C3575 C 0.2079 0.32553 0.32944 0.0
C3576 C 0.2288 0.31819 0.29965 0.0
C3577 C 0.22567 0.33338 0.34413 0.0
C3578 C 0.24492 0.33317 0.33688 0.0
C3579 C 0.26585 0.32473 0.30759 0.0
C3580 C 0.26762 0.31698 0.28554 0.0
C3581 C 0.24661 0.32549 0.31476 0.0
C3582 C 0.25027 0.31117 0.27028 0.0
C3583 C 0.23082 0.31133 0.27736 0.0
H3584 H 0.99544 0.08499 0.14736 0.0
H3585 H 0.01757 0.03383 0.17308 0.0
H3586 H 0.03597 0.02666 0.14094 0.0
H3587 H 0.04631 0.03403 0.10413 0.0
H3588 H 0.02276 0.08367 0.07749 0.0
H3589 H 1.00545 0.09211 0.11048 0.0
C3590 C 1.00432 0.07229 0.14621 0.0
C3591 C 1.00444 0.06001 0.16357 0.0
C3592 C 0.01514 0.06787 0.12696 0.0
C3593 C 0.01633 0.04358 0.16062 0.0
C3594 C 0.02722 0.03947 0.14195 0.0
C3595 C 0.0376 0.0469 0.10553 0.0
C3596 C 0.03643 0.05833 0.08772 0.0
C3597 C 0.02683 0.05137 0.1248 0.0
C3598 C 0.02439 0.07452 0.09041 0.0
C3599 C 0.01429 0.07938 0.10953 0.0
H3600 H 0.2771 0.68399 0.41409 0.0
H3601 H 0.31986 0.7421 0.45114 0.0
H3602 H 0.31401 0.76346 0.42296 0.0
H3603 H 0.2924 0.7667 0.39093 0.0
H3604 H 0.24816 0.70872 0.3555 0.0
H3605 H 0.25894 0.68592 0.37985 0.0
C3606 C 0.28544 0.7012 0.41564 0.0
C3607 C 0.29868 0.7117 0.43446 0.0
C3608 C 0.28152 0.71333 0.39986 0.0
C3609 C 0.30962 0.73386 0.43658 0.0
C3610 C 0.30614 0.74604 0.42062 0.0
C3611 C 0.28558 0.74895 0.38826 0.0
C3612 C 0.26938 0.73932 0.37177 0.0
C3613 C 0.29151 0.73614 0.40263 0.0
C3614 C 0.26047 0.71639 0.36838 0.0
C3615 C 0.26662 0.70342 0.38224 0.0
H3616 H 0.64339 0.02956 0.6305 0.0
H3617 H 0.59231 0.02644 0.66967 0.0
H3618 H 0.56888 0.02502 0.63734 0.0
H3619 H 0.56424 0.02832 0.59871 0.0
H3620 H 0.61681 0.03484 0.56134 0.0
H3621 H 0.63847 0.0308 0.59204 0.0
C3622 C 0.62704 0.0282 0.63173 0.0
C3623 C 0.61928 0.02803 0.65194 0.0
C3624 C 0.6141 0.02803 0.61349 0.0
C3625 C 0.59829 0.02652 0.65392 0.0
C3626 C 0.58504 0.02576 0.63556 0.0
C3627 C 0.5803 0.02851 0.59727 0.0
C3628 C 0.58896 0.03205 0.57796 0.0
C3629 C 0.5929 0.02702 0.61534 0.0
C3630 C 0.60985 0.03227 0.57616 0.0
C3631 C 0.62229 0.03002 0.5937 0.0
H3632 H 0.31782 0.30652 0.90796 0.0
H3633 H 0.30596 0.3724 0.91443 0.0
H3634 H 0.3061 0.37011 0.87504 0.0
H3635 H 0.30897 0.34944 0.83874 0.0
H3636 H 0.31616 0.2817 0.83071 0.0
H3637 H 0.31906 0.28473 0.87055 0.0
C3638 C 0.31531 0.32031 0.90065 0.0
C3639 C 0.31186 0.33961 0.91406 0.0
C3640 C 0.31486 0.31864 0.87774 0.0
C3641 C 0.30849 0.35734 0.90442 0.0
C3642 C 0.30865 0.35608 0.88192 0.0
C3643 C 0.3113 0.33535 0.8457 0.0
C3644 C 0.31308 0.31565 0.8318 0.0
C3645 C 0.31175 0.33682 0.86842 0.0
C3646 C 0.31552 0.29736 0.84107 0.0
C3647 C 0.31691 0.29901 0.86385 0.0
H3648 H 0.02575 0.0554 0.38873 0.0
H3649 H 0.96937 0.07106 0.41042 0.0
H3650 H 0.97926 0.06635 0.44687 0.0
H3651 H 1.00326 0.05777 0.47388 0.0
H3652 H 0.06076 0.04385 0.45481 0.0
H3653 H 0.05092 0.04716 0.41709 0.0
C3654 C 0.01548 0.05777 0.4013 0.0
C3655 C 0.99656 0.06409 0.3958 0.0
C3656 C 0.02142 0.05501 0.42324 0.0
C3657 C 0.98406 0.06688 0.4132 0.0
C3658 C 0.98969 0.06393 0.43445 0.0
C3659 C 0.01384 0.05535 0.46161 0.0
C3660 C 0.03281 0.04999 0.46792 0.0
C3661 C 0.00828 0.05805 0.43984 0.0
C3662 C 0.04596 0.04742 0.45112 0.0
C3663 C 0.04028 0.04954 0.42928 0.0
H3664 H 0.31061 0.72281 0.63966 0.0
H3665 H 0.24811 0.72876 0.62707 0.0
H3666 H 0.25047 0.75257 0.66337 0.0
H3667 H 0.27064 0.77121 0.69888 0.0
H3668 H 0.33307 0.76474 0.70992 0.0
H3669 H 0.33078 0.7422 0.67347 0.0
C3670 C 0.29759 0.72965 0.64463 0.0
C3671 C 0.27932 0.72436 0.63071 0.0
C3672 C 0.29923 0.74349 0.66501 0.0
C3673 C 0.26233 0.73263 0.63765 0.0
C3674 C 0.26373 0.74632 0.65826 0.0
C3675 C 0.28378 0.76521 0.69292 0.0
C3676 C 0.3023 0.77027 0.70637 0.0
C3677 C 0.28215 0.75187 0.67205 0.0
C3678 C 0.31912 0.76196 0.6992 0.0
C3679 C 0.31766 0.74873 0.67858 0.0
H3680 H 0.63091 0.02975 0.83688 0.0
H3681 H 0.68247 0.08314 0.86649 0.0
H3682 H 0.66383 0.09215 0.89813 0.0
H3683 H 0.63108 0.08866 0.91416 0.0
H3684 H 0.57896 0.03634 0.88437 0.0
H3685 H 0.59968 0.02258 0.85603 0.0
C3686 C 0.63821 0.0429 0.85058 0.0
C3687 C 0.65778 0.05607 0.84939 0.0
C3688 C 0.62724 0.04827 0.86842 0.0
C3689 C 0.66721 0.07312 0.86708 0.0
C3690 C 0.6566 0.07826 0.88509 0.0
C3691 C 0.6245 0.074 0.90163 0.0
C3692 C 0.60368 0.06367 0.90077 0.0
C3693 C 0.63632 0.06659 0.88543 0.0
C3694 C 0.59505 0.04451 0.88494 0.0
C3695 C 0.60683 0.03677 0.8688 0.0
H3696 H 0.31932 0.36573 0.15924 0.0
H3697 H 0.29545 0.29946 0.12099 0.0
H3698 H 0.29183 0.28447 0.15441 0.0
H3699 H 0.2972 0.28989 0.19449 0.0
H3700 H 0.32052 0.35624 0.23266 0.0
H3701 H 0.3233 0.37124 0.19931 0.0
C3702 C 0.31348 0.34797 0.15813 0.0
C3703 C 0.30777 0.33382 0.13744 0.0
C3704 C 0.31148 0.33938 0.17748 0.0
C3705 C 0.29983 0.31088 0.13656 0.0
C3706 C 0.29785 0.30223 0.15572 0.0
C3707 C 0.30224 0.30766 0.19567 0.0
C3708 C 0.30823 0.32181 0.21631 0.0
C3709 C 0.3037 0.3163 0.1763 0.0
C3710 C 0.31566 0.34482 0.21714 0.0
C3711 C 0.31729 0.35348 0.19801 0.0
H3712 H 0.25685 0.0294 0.02743 0.0
H3713 H 0.21655 0.96513 1.00149 0.0
H3714 H 0.18674 0.97995 0.01221 0.0
H3715 H 0.17321 0.0094 0.03465 0.0
H3716 H 0.21456 0.07196 0.06422 0.0
H3717 H 0.24306 0.05965 0.04665 0.0
C3718 C 0.24148 0.01876 0.02384 0.0
C3719 C 0.23883 0.99618 0.01406 0.0
C3720 C 0.22473 0.02702 0.0311 0.0
C3721 C 0.2189 0.9826 0.009 0.0
C3722 C 0.20192 0.991 0.01537 0.0
C3723 C 0.18842 0.02041 0.03681 0.0
C3724 C 0.19205 0.0414 0.05075 0.0
C3725 C 0.20479 0.01289 0.0273 0.0
C3726 C 0.21167 0.05564 0.05367 0.0
C3727 C 0.22787 0.04862 0.04364 0.0
H3728 H 0.67494 0.63327 0.99133 0.0
H3729 H 0.70619 0.59201 0.02285 0.0
H3730 H 0.67328 0.56644 0.02457 0.0
H3731 H 0.63515 0.55679 0.01895 0.0
H3732 H 0.60386 0.60008 0.9907 0.0
H3733 H 0.63691 0.62356 0.98558 0.0
C3734 C 0.67452 0.61853 0.99832 0.0
C3735 C 0.69304 0.61453 0.00687 0.0
C3736 C 0.65542 0.60417 0.99979 0.0
C3737 C 0.69219 0.59553 0.01622 0.0
C3738 C 0.67335 0.58086 0.01717 0.0
C3739 C 0.63566 0.57111 0.01126 0.0
C3740 C 0.61714 0.57646 1.00474 0.0
C3741 C 0.65481 0.5851 0.00922 0.0
C3742 C 0.61795 0.59547 0.99549 0.0
C3743 C 0.63685 0.60896 0.99269 0.0
H3744 H 0.74664 0.39702 0.24433 0.0
H3745 H 0.74846 0.4213 0.3139 0.0
H3746 H 0.76561 0.39283 0.32103 0.0
H3747 H 0.78018 0.35957 0.30903 0.0
H3748 H 0.78199 0.33587 0.24035 0.0
H3749 H 0.76427 0.3647 0.23205 0.0
C3750 C 0.75069 0.3964 0.26117 0.0
C3751 C 0.74479 0.41215 0.27834 0.0
C3752 C 0.76172 0.37951 0.26565 0.0
C3753 C 0.75118 0.40995 0.29979 0.0
C3754 C 0.76156 0.39336 0.30413 0.0
C3755 C 0.77699 0.36068 0.29212 0.0
C3756 C 0.78295 0.34487 0.2755 0.0
C3757 C 0.76683 0.37782 0.28737 0.0
C3758 C 0.77821 0.34736 0.25381 0.0
C3759 C 0.76778 0.36406 0.24902 0.0
H3760 H 0.94457 0.53051 0.534 0.0
H3761 H 0.93763 0.46473 0.54917 0.0
H3762 H 0.97276 0.46439 0.54114 0.0
H3763 H 1.00479 0.48187 0.52756 0.0
H3764 H 0.01032 0.54687 0.51159 0.0
H3765 H 0.97586 0.54745 0.52001 0.0
C3766 C 0.95066 0.51602 0.53544 0.0
C3767 C 0.93841 0.4977 0.54201 0.0
C3768 C 0.97031 0.51526 0.52954 0.0
C3769 C 0.9468 0.47933 0.54448 0.0
C3770 C 0.96676 0.47885 0.53942 0.0
C3771 C 0.99827 0.4959 0.52543 0.0
C3772 C 0.01016 0.51415 0.51827 0.0
C3773 C 0.97846 0.49649 0.53137 0.0
C3774 C 1.00152 0.53234 0.51615 0.0
C3775 C 0.98182 0.53291 0.52154 0.0
H3776 H 0.34124 0.13532 0.31895 0.0
H3777 H 0.40233 0.1577 0.30056 0.0
H3778 H 0.38996 0.18226 0.27946 0.0
H3779 H 0.36076 0.1917 0.26079 0.0
H3780 H 0.29936 0.1679 0.27737 0.0
H3781 H 0.31274 0.14945 0.30461 0.0
C3782 C 0.3519 0.14611 0.31083 0.0
C3783 C 0.37256 0.14462 0.31111 0.0
C3784 C 0.34452 0.15946 0.29799 0.0
C3785 C 0.38637 0.15873 0.30074 0.0
C3786 C 0.37925 0.17252 0.28838 0.0
C3787 C 0.35045 0.18275 0.27068 0.0
C3788 C 0.3292 0.18061 0.26698 0.0
C3789 C 0.35822 0.17211 0.28602 0.0
C3790 C 0.31581 0.16947 0.28 0.0
C3791 C 0.32343 0.15894 0.29547 0.0
H3792 H 0.37763 0.10911 0.50533 0.0
H3793 H 0.41346 0.17362 0.53789 0.0
H3794 H 0.44273 0.15725 0.54529 0.0
H3795 H 0.45679 0.12375 0.54589 0.0
H3796 H 0.41995 0.05898 0.51557 0.0
H3797 H 0.39256 0.07603 0.50373 0.0
C3798 C 0.392 0.11954 0.51373 0.0
C3799 C 0.39349 0.14247 0.52111 0.0
C3800 C 0.40853 0.10988 0.51843 0.0
C3801 C 0.41203 0.15589 0.53218 0.0
C3802 C 0.42873 0.14653 0.53641 0.0
C3803 C 0.44294 0.11353 0.53623 0.0
C3804 C 0.44036 0.09021 0.53137 0.0
C3805 C 0.427 0.12345 0.53009 0.0
C3806 C 0.42226 0.07699 0.51924 0.0
C3807 C 0.40657 0.08672 0.51261 0.0
H3808 H 0.77159 0.64696 0.2948 0.0
H3809 H 0.71634 0.64763 0.25601 0.0
H3810 H 0.73004 0.68652 0.25426 0.0
H3811 H 0.75781 0.72136 0.26337 0.0
H3812 H 0.81321 0.72103 0.30194 0.0
H3813 H 0.79943 0.68205 0.30412 0.0
C3814 C 0.76238 0.6555 0.28602 0.0
C3815 C 0.74272 0.64343 0.27534 0.0
C3816 C 0.77049 0.6785 0.28498 0.0
C3817 C 0.73154 0.65556 0.26406 0.0
C3818 C 0.73938 0.6782 0.26316 0.0
C3819 C 0.76695 0.7129 0.27236 0.0
C3820 C 0.78683 0.72478 0.28244 0.0
C3821 C 0.75888 0.68997 0.27347 0.0
C3822 C 0.79807 0.71286 0.29382 0.0
C3823 C 0.79009 0.69031 0.29513 0.0
H3824 H 0.82677 0.42633 0.78762 0.0
H3825 H 0.88745 0.43505 0.81994 0.0
H3826 H 0.88399 0.39469 0.81329 0.0
H3827 H 0.86476 0.35731 0.79582 0.0
H3828 H 0.80306 0.34798 0.76596 0.0
H3829 H 0.80578 0.38823 0.77382 0.0
C3830 C 0.83895 0.4192 0.79352 0.0
C3831 C 0.85724 0.43322 0.80424 0.0
C3832 C 0.83681 0.39608 0.78975 0.0
C3833 C 0.87314 0.42423 0.81187 0.0
C3834 C 0.87128 0.4013 0.80787 0.0
C3835 C 0.85195 0.36421 0.79118 0.0
C3836 C 0.83377 0.35001 0.78058 0.0
C3837 C 0.8534 0.38714 0.79638 0.0
C3838 C 0.81713 0.35878 0.77446 0.0
C3839 C 0.81867 0.38173 0.77892 0.0
H3840 H 0.07773 0.93771 0.08528 0.0
H3841 H 0.09323 0.90304 0.02449 0.0
H3842 H 0.08822 0.93336 0.00672 0.0
H3843 H 0.08026 0.9706 0.00804 0.0
H3844 H 0.06546 1.00578 0.06866 0.0
H3845 H 0.0688 0.97459 0.08635 0.0
C3846 C 0.07984 0.93653 0.06808 0.0
C3847 C 0.0862 0.91771 0.05658 0.0
C3848 C 0.07679 0.95428 0.05765 0.0
C3849 C 0.08891 0.91717 0.03425 0.0
C3850 C 0.08582 0.93457 0.02386 0.0
C3851 C 0.07741 0.97127 0.02504 0.0
C3852 C 0.07183 0.99038 0.03667 0.0
C3853 C 0.07989 0.95332 0.03535 0.0
C3854 C 0.06899 0.99111 0.05895 0.0
C3855 C 0.07114 0.97327 0.06919 0.0
H3856 H 0.90708 0.2865 0.87862 0.0
H3857 H 0.93373 0.25048 0.82638 0.0
H3858 H 0.90561 0.25174 0.80039 0.0
H3859 H 0.87341 0.26315 0.79204 0.0
H3860 H 0.84632 0.29884 0.84397 0.0
H3861 H 0.87429 0.29749 0.8701 0.0
C3862 C 0.90686 0.27897 0.86155 0.0
C3863 C 0.9228 0.26826 0.85479 0.0
C3864 C 0.89038 0.27969 0.84641 0.0
C3865 C 0.92177 0.2585 0.83245 0.0
C3866 C 0.90564 0.25934 0.81741 0.0
C3867 C 0.87355 0.27082 0.80894 0.0
C3868 C 0.85757 0.28147 0.8155 0.0
C3869 C 0.88982 0.26988 0.82413 0.0
C3870 C 0.85823 0.29071 0.83795 0.0
C3871 C 0.87436 0.28995 0.85309 0.0
H3872 H 0.59472 0.18528 0.58707 0.0
H3873 H 0.57313 0.19078 0.52241 0.0
H3874 H 0.5672 0.15023 0.51041 0.0
H3875 H 0.56615 0.11235 0.51895 0.0
H3876 H 0.58597 0.10784 0.58446 0.0
H3877 H 0.5951 0.14845 0.5951 0.0
C3878 C 0.58904 0.17777 0.57022 0.0
C3879 C 0.58444 0.19142 0.55577 0.0
C3880 C 0.58546 0.15432 0.56345 0.0
C3881 C 0.57664 0.18093 0.53411 0.0
C3882 C 0.57334 0.15763 0.52715 0.0
C3883 C 0.57297 0.12034 0.53536 0.0
C3884 C 0.57581 0.10698 0.55079 0.0
C3885 C 0.57747 0.14402 0.54172 0.0
C3886 C 0.58394 0.11766 0.5722 0.0
C3887 C 0.58904 0.14094 0.57836 0.0
H3888 H 0.64379 0.79463 0.38727 0.0
H3889 H 0.59717 0.76574 0.33307 0.0
H3890 H 0.62335 0.76701 0.30773 0.0
H3891 H 0.65905 0.77753 0.30013 0.0
H3892 H 0.70652 0.80774 0.35289 0.0
H3893 H 0.68069 0.80443 0.3794 0.0
C3894 C 0.63936 0.78867 0.36992 0.0
C3895 C 0.61829 0.77987 0.36232 0.0
C3896 C 0.65471 0.78961 0.35505 0.0
C3897 C 0.61308 0.77214 0.33968 0.0
C3898 C 0.6281 0.77299 0.32503 0.0
C3899 C 0.66383 0.78338 0.31744 0.0
C3900 C 0.68475 0.79309 0.32439 0.0
C3901 C 0.6489 0.78178 0.33245 0.0
C3902 C 0.69059 0.80011 0.34699 0.0
C3903 C 0.67575 0.7984 0.36216 0.0
H3904 H 0.10189 0.24966 0.48243 0.0
H3905 H 0.07146 0.20427 0.42376 0.0
H3906 H 0.0598 0.17545 0.445 0.0
H3907 H 0.05688 0.16397 0.48063 0.0
H3908 H 0.08672 0.2099 0.53923 0.0
H3909 H 0.10025 0.2377 0.5176 0.0
C3910 C 0.09297 0.23334 0.47426 0.0
C3911 C 0.0875 0.22905 0.45162 0.0
C3912 C 0.08615 0.21704 0.48657 0.0
C3913 C 0.07566 0.20798 0.44125 0.0
C3914 C 0.06906 0.19151 0.45336 0.0
C3915 C 0.06649 0.18002 0.48859 0.0
C3916 C 0.07066 0.18506 0.51147 0.0
C3917 C 0.07397 0.19598 0.47608 0.0
C3918 C 0.08305 0.20587 0.52166 0.0
C3919 C 0.09084 0.22169 0.50931 0.0
H3920 H 0.62054 0.28444 0.2188 0.0
H3921 H 0.58807 0.21689 0.21885 0.0
H3922 H 0.61843 0.20997 0.23738 0.0
H3923 H 0.65408 0.22305 0.25357 0.0
H3924 H 0.68578 0.2914 0.2559 0.0
H3925 H 0.65581 0.29798 0.23631 0.0
C3926 C 0.62002 0.26829 0.22311 0.0
C3927 C 0.6021 0.25121 0.21741 0.0
C3928 C 0.6374 0.26452 0.23409 0.0
C3929 C 0.60179 0.23024 0.22275 0.0
C3930 C 0.61909 0.22629 0.23347 0.0
C3931 C 0.65436 0.23948 0.2501 0.0
C3932 C 0.67218 0.25665 0.2562 0.0
C3933 C 0.63695 0.24332 0.23924 0.0
C3934 C 0.67239 0.27773 0.25111 0.0
C3935 C 0.65521 0.28159 0.24004 0.0
H3936 H 0.60302 0.93729 0.93313 0.0
H3937 H 0.6501 0.94876 0.98651 0.0
H3938 H 0.63862 0.98176 1.00427 0.0
H3939 H 0.61322 1.00461 0.00593 0.0
H3940 H 0.56366 0.99062 0.95453 0.0
H3941 H 0.57845 0.96159 0.93405 0.0
C3942 C 0.61096 0.9474 0.94843 0.0
C3943 C 0.62743 0.94111 0.95857 0.0
C3944 C 0.60375 0.96561 0.95879 0.0
C3945 C 0.63752 0.95373 0.97852 0.0
C3946 C 0.63089 0.97239 0.98863 0.0
C3947 C 0.60554 0.99512 0.99033 0.0
C3948 C 0.58704 0.99921 0.98206 0.0
C3949 C 0.61367 0.97805 0.97917 0.0
C3950 C 0.57779 0.98755 0.96135 0.0
C3951 C 0.58618 0.97091 0.94971 0.0
H3952 H 0.92701 0.77774 0.75262 0.0
H3953 H 0.89618 0.74574 0.68885 0.0
H3954 H 0.86276 0.7462 0.70262 0.0
H3955 H 0.84265 0.75776 0.73212 0.0
H3956 H 0.87234 0.78628 0.79687 0.0
H3957 H 0.90618 0.78522 0.78361 0.0
C3958 C 0.91289 0.77073 0.74193 0.0
C3959 C 0.91378 0.76183 0.71985 0.0
C3960 C 0.89378 0.77062 0.75008 0.0
C3961 C 0.89561 0.7526 0.70595 0.0
C3962 C 0.8766 0.75291 0.71377 0.0
C3963 C 0.8566 0.76354 0.74327 0.0
C3964 C 0.85554 0.77308 0.76504 0.0
C3965 C 0.87556 0.76216 0.73567 0.0
C3966 C 0.87327 0.77979 0.77978 0.0
C3967 C 0.89245 0.779 0.77224 0.0
H3968 H 0.09439 0.01981 0.87851 0.0
H3969 H 0.15692 0.02827 0.9058 0.0
H3970 H 0.14585 0.03253 0.94251 0.0
H3971 H 0.11839 0.03446 0.96847 0.0
H3972 H 0.05584 0.02522 0.9412 0.0
H3973 H 0.06681 0.0209 0.90443 0.0
C3974 C 0.10578 0.02263 0.89235 0.0
C3975 C 0.12685 0.02343 0.88831 0.0
C3976 C 0.09916 0.02499 0.91422 0.0
C3977 C 0.1407 0.02704 0.90734 0.0
C3978 C 0.13431 0.02968 0.9288 0.0
C3979 C 0.107 0.03137 0.95458 0.0
C3980 C 0.08587 0.02996 0.95856 0.0
C3981 C 0.11356 0.0287 0.93269 0.0
C3982 C 0.07196 0.02602 0.93957 0.0
C3983 C 0.07836 0.02369 0.91812 0.0
H3984 H 0.84224 0.35518 0.58455 0.0
H3985 H 0.80834 0.39173 0.62853 0.0
H3986 H 0.81657 0.37219 0.6574 0.0
H3987 H 0.83743 0.34872 0.67107 0.0
H3988 H 0.87247 0.3134 0.62716 0.0
H3989 H 0.85999 0.32875 0.59706 0.0
C3990 C 0.83637 0.35845 0.60037 0.0
C3991 C 0.82493 0.37478 0.60475 0.0
C3992 C 0.84169 0.34777 0.61682 0.0
C3993 C 0.81713 0.37904 0.62503 0.0
C3994 C 0.82201 0.36808 0.64149 0.0
C3995 C 0.84197 0.34403 0.65479 0.0
C3996 C 0.85601 0.33024 0.65123 0.0
C3997 C 0.83487 0.35301 0.63774 0.0
C3998 C 0.86197 0.32438 0.63022 0.0
C3999 C 0.85476 0.33301 0.61306 0.0
H4000 H 0.48572 0.07341 0.41669 0.0
H4001 H 0.5189 0.03478 0.37375 0.0
H4002 H 0.54344 0.03527 0.40461 0.0
H4003 H 0.55255 0.04297 0.44434 0.0
H4004 H 0.51733 0.07904 0.48711 0.0
H4005 H 0.49634 0.08351 0.45569 0.0
C4006 C 0.49863 0.06559 0.41407 0.0
C4007 C 0.50071 0.05413 0.39325 0.0
C4008 C 0.51209 0.06537 0.43181 0.0
C4009 C 0.51714 0.04361 0.38987 0.0
C4010 C 0.53108 0.04388 0.40742 0.0
C4011 C 0.54071 0.05238 0.44659 0.0
C4012 C 0.53641 0.06086 0.46765 0.0
C4013 C 0.52834 0.05421 0.42854 0.0
C4014 C 0.5207 0.07245 0.47078 0.0
C4015 C 0.50874 0.07496 0.45293 0.0
H4016 H 0.81491 0.73305 0.13944 0.0
H4017 H 0.79352 0.79143 0.13086 0.0
H4018 H 0.79375 0.80274 0.1708 0.0
H4019 H 0.80184 0.7963 0.20884 0.0
H4020 H 0.81704 0.73355 0.21446 0.0
H4021 H 0.81837 0.72442 0.17557 0.0
C4022 C 0.81041 0.74834 0.1463 0.0
C4023 C 0.8047 0.76162 0.13225 0.0
C4024 C 0.80976 0.75417 0.16901 0.0
C4025 C 0.7983 0.78106 0.14138 0.0
C4026 C 0.79844 0.78751 0.16423 0.0
C4027 C 0.80478 0.78037 0.2015 0.0
C4028 C 0.80926 0.76574 0.215 0.0
C4029 C 0.80428 0.77422 0.17836 0.0
C4030 C 0.81356 0.74536 0.20488 0.0
C4031 C 0.81432 0.73995 0.18244 0.0
H4032 H 0.14171 0.04493 0.64227 0.0
H4033 H 0.08633 1.0047 0.65942 0.0
H4034 H 0.06763 1.0082 0.62613 0.0
H4035 H 0.06627 0.02169 0.59001 0.0
H4036 H 0.12218 0.06082 0.5731 0.0
H4037 H 0.14021 0.05916 0.60752 0.0
C4038 C 0.1255 0.03697 0.63917 0.0
C4039 C 0.11614 0.02422 0.65444 0.0
C4040 C 0.11431 0.03913 0.6194 0.0
C4041 C 0.09486 0.01424 0.64873 0.0
C4042 C 0.08379 0.01642 0.62934 0.0
C4043 C 0.08222 0.03048 0.59404 0.0
C4044 C 0.09227 0.04236 0.57851 0.0
C4045 C 0.0932 0.02877 0.61427 0.0
C4046 C 0.11343 0.05226 0.5844 0.0
C4047 C 0.12401 0.05109 0.60429 0.0
H4048 H 0.85606 0.37338 0.40471 0.0
H4049 H 0.80192 0.33474 0.42588 0.0
H4050 H 0.79679 0.30769 0.39149 0.0
H4051 H 0.80559 0.29771 0.35414 0.0
H4052 H 0.85869 0.33776 0.33265 0.0
H4053 H 0.8671 0.36081 0.36904 0.0
C4054 C 0.84347 0.35873 0.40208 0.0
C4055 C 0.82922 0.35621 0.41761 0.0
C4056 C 0.84049 0.34346 0.38229 0.0
C4057 C 0.81284 0.33726 0.41389 0.0
C4058 C 0.80996 0.32174 0.39433 0.0
C4059 C 0.819 0.31136 0.3574 0.0
C4060 C 0.83092 0.31652 0.34049 0.0
C4061 C 0.82332 0.32511 0.37814 0.0
C4062 C 0.84886 0.33376 0.34525 0.0
C4063 C 0.85369 0.34703 0.36605 0.0
H4064 H 0.46746 0.04997 0.18694 0.0
H4065 H 0.50475 0.03364 0.23739 0.0
H4066 H 0.52847 0.02338 0.21106 0.0
H4067 H 0.53573 0.01437 0.17308 0.0
H4068 H 0.4975 0.02849 0.12195 0.0
H4069 H 0.47707 0.04467 0.14909 0.0
C4070 C 0.48112 0.04472 0.19211 0.0
C4071 C 0.48458 0.04246 0.2138 0.0
C4072 C 0.49424 0.0382 0.17676 0.0
C4073 C 0.50203 0.03544 0.22061 0.0
C4074 C 0.51545 0.02948 0.20561 0.0
C4075 C 0.52302 0.02118 0.16798 0.0
C4076 C 0.51778 0.01994 0.14572 0.0
C4077 C 0.51124 0.03001 0.18353 0.0
C4078 C 0.50165 0.02922 0.13912 0.0
C4079 C 0.48996 0.03837 0.15458 0.0
H4080 H 0.83428 0.76462 0.9103 0.0
H4081 H 0.77273 0.7234 0.89489 0.0
H4082 H 0.77145 0.73222 0.85851 0.0
H4083 H 0.78748 0.75178 0.83094 0.0
H4084 H 0.84929 0.79205 0.84557 0.0
H4085 H 0.85085 0.78326 0.88201 0.0
C4086 C 0.82064 0.7574 0.89895 0.0
C4087 C 0.80355 0.74352 0.90563 0.0
C4088 C 0.82001 0.7624 0.87779 0.0
C4089 C 0.78598 0.73453 0.89057 0.0
C4090 C 0.78527 0.7394 0.8696 0.0
C4091 C 0.80133 0.75863 0.84203 0.0
C4092 C 0.81801 0.77324 0.83562 0.0
C4093 C 0.80214 0.75337 0.86303 0.0
C4094 C 0.8359 0.78159 0.85026 0.0
C4095 C 0.83688 0.77633 0.8711 0.0
H4096 H 0.89447 0.10864 0.01571 0.0
H4097 H 0.85211 0.05355 0.03304 0.0
H4098 H 0.87558 0.02905 0.02291 0.0
H4099 H 0.9077 0.02331 0.00808 0.0
H4100 H 0.94991 0.07865 0.9908 0.0
H4101 H 0.92687 0.10323 1.00191 0.0
C4102 C 0.89053 0.09128 0.01734 0.0
C4103 C 0.8718 0.08271 0.02498 0.0
C4104 C 0.90389 0.07741 0.0113 0.0
C4105 C 0.86668 0.06036 0.02734 0.0
C4106 C 0.87995 0.04638 0.02138 0.0
C4107 C 0.9116 0.04066 0.00643 0.0
C4108 C 0.93015 0.04917 0.99836 0.0
C4109 C 0.89845 0.05468 0.01305 0.0
C4110 C 0.93551 0.0718 0.99684 0.0
C4111 C 0.92245 0.08583 1.00324 0.0
H4112 H 0.42613 0.49286 0.04409 0.0
H4113 H 0.44401 0.43023 0.04196 0.0
H4114 H 0.47983 0.44857 0.04015 0.0
H4115 H 0.50618 0.48229 0.03805 0.0
H4116 H 0.48839 0.54497 0.04099 0.0
H4117 H 0.45271 0.52686 0.04352 0.0
C4118 C 0.43786 0.48321 0.0432 0.0
C4119 C 0.43227 0.46013 0.04315 0.0
C4120 C 0.45856 0.49393 0.04233 0.0
C4121 C 0.4478 0.44802 0.04226 0.0
C4122 C 0.46833 0.45848 0.0411 0.0
C4123 C 0.4945 0.492 0.03945 0.0
C4124 C 0.5001 0.5151 0.03968 0.0
C4125 C 0.47391 0.48142 0.04102 0.0
C4126 C 0.48473 0.52738 0.04139 0.0
C4127 C 0.4642 0.51694 0.0426 0.0
H4128 H 0.36601 0.68356 0.80089 0.0
H4129 H 0.38758 0.67808 0.73665 0.0
H4130 H 0.37142 0.70757 0.72959 0.0
H4131 H 0.35152 0.73648 0.74067 0.0
H4132 H 0.32986 0.74411 0.80451 0.0
H4133 H 0.34519 0.71333 0.81215 0.0
C4134 C 0.36732 0.68865 0.78526 0.0
C4135 C 0.37833 0.67715 0.76931 0.0
C4136 C 0.35768 0.70661 0.78098 0.0
C4137 C 0.37921 0.68509 0.74939 0.0
C4138 C 0.36993 0.70254 0.74525 0.0
C4139 C 0.3499 0.73148 0.75633 0.0
C4140 C 0.3389 0.7432 0.77175 0.0
C4141 C 0.35908 0.71355 0.76075 0.0
C4142 C 0.33764 0.73585 0.79191 0.0
C4143 C 0.34669 0.71804 0.79636 0.0
H4144 H 0.17887 0.5535 0.51706 0.0
H4145 H 0.18124 0.60549 0.47956 0.0
H4146 H 0.14602 0.60707 0.48625 0.0
H4147 H 0.1165 0.5974 0.50687 0.0
H4148 H 0.11362 0.54421 0.54248 0.0
H4149 H 0.14772 0.54081 0.5342 0.0
C4150 C 0.17157 0.56497 0.51013 0.0
C4151 C 0.18279 0.57964 0.49828 0.0
C4152 C 0.15176 0.56667 0.51495 0.0
C4153 C 0.17297 0.59395 0.48877 0.0
C4154 C 0.15297 0.59525 0.49299 0.0
C4155 C 0.12346 0.58539 0.51326 0.0
C4156 C 0.11287 0.57206 0.52678 0.0
C4157 C 0.14264 0.58249 0.50697 0.0
C4158 C 0.12187 0.55585 0.53375 0.0
C4159 C 0.14121 0.55338 0.52829 0.0
H4160 H 0.77623 0.95898 0.73549 0.0
H4161 H 0.71775 0.92426 0.75144 0.0
H4162 H 0.73465 0.90003 0.76899 0.0
H4163 H 0.76647 0.89452 0.78625 0.0
H4164 H 0.8251 0.93056 0.77223 0.0
H4165 H 0.80787 0.94837 0.74704 0.0
C4166 C 0.76719 0.94546 0.74198 0.0
C4167 C 0.74594 0.94337 0.74249 0.0
C4168 C 0.7771 0.93224 0.75273 0.0
C4169 C 0.73421 0.92607 0.7511 0.0
C4170 C 0.74386 0.91239 0.76125 0.0
C4171 C 0.77534 0.90584 0.77715 0.0
C4172 C 0.79678 0.91171 0.78108 0.0
C4173 C 0.76535 0.91621 0.76321 0.0
C4174 C 0.80846 0.92612 0.76933 0.0
C4175 C 0.79864 0.93629 0.75507 0.0
H4176 H 0.74506 0.97534 0.51082 0.0
H4177 H 0.71102 0.93491 0.55169 0.0
H4178 H 0.68157 0.95154 0.54637 0.0
H4179 H 0.66434 0.97536 0.5273 0.0
H4180 H 0.69851 0.01458 0.48563 0.0
H4181 H 0.72897 1.0008 0.49411 0.0
C4182 C 0.7312 0.97014 0.51857 0.0
C4183 C 0.73023 0.95372 0.53145 0.0
C4184 C 0.71427 0.9796 0.51527 0.0
C4185 C 0.71227 0.94757 0.54175 0.0
C4186 C 0.69536 0.95701 0.53863 0.0
C4187 C 0.67862 0.98118 0.52049 0.0
C4188 C 0.6792 0.99588 0.50578 0.0
C4189 C 0.69603 0.97278 0.52511 0.0
C4190 C 0.69771 1.00319 0.4969 0.0
C4191 C 0.71509 0.99525 0.50167 0.0
H4192 H 0.35121 0.43936 0.75118 0.0
H4193 H 0.40422 0.44138 0.79486 0.0
H4194 H 0.39088 0.40256 0.79703 0.0
H4195 H 0.36406 0.36705 0.78696 0.0
H4196 H 0.31123 0.36447 0.74296 0.0
H4197 H 0.32451 0.40345 0.7406 0.0
C4198 C 0.36001 0.43142 0.76113 0.0
C4199 C 0.37887 0.44424 0.77308 0.0
C4200 C 0.35215 0.40844 0.76236 0.0
C4201 C 0.38956 0.43288 0.78581 0.0
C4202 C 0.38195 0.41028 0.78697 0.0
C4203 C 0.35536 0.37488 0.77679 0.0
C4204 C 0.33627 0.36222 0.76537 0.0
C4205 C 0.36321 0.39777 0.77542 0.0
C4206 C 0.32564 0.37331 0.75232 0.0
C4207 C 0.33337 0.39585 0.75084 0.0
H4208 H 0.29781 0.65929 0.25661 0.0
H4209 H 0.23724 0.65806 0.2277 0.0
H4210 H 0.24359 0.69841 0.23828 0.0
H4211 H 0.26509 0.73368 0.25832 0.0
H4212 H 0.3248 0.73535 0.28895 0.0
H4213 H 0.32 0.69507 0.27561 0.0
C4214 C 0.28613 0.66793 0.25244 0.0
C4215 C 0.26715 0.65574 0.24135 0.0
C4216 C 0.2896 0.69109 0.25919 0.0
C4217 C 0.25215 0.66708 0.23587 0.0
C4218 C 0.25559 0.69012 0.24225 0.0
C4219 C 0.27711 0.72513 0.26168 0.0
C4220 C 0.2955 0.73713 0.27374 0.0
C4221 C 0.27406 0.70218 0.25426 0.0
C4222 C 0.31076 0.7262 0.27906 0.0
C4223 C 0.30798 0.70328 0.27152 0.0
H4224 H 0.54568 0.67537 0.51209 0.0
H4225 H 0.52642 0.64998 0.44345 0.0
H4226 H 0.53127 0.6134 0.4473 0.0
H4227 H 0.54056 0.58794 0.46949 0.0
H4228 H 0.55696 0.61055 0.53872 0.0
H4229 H 0.55433 0.64854 0.53522 0.0
C4230 C 0.5426 0.66187 0.49796 0.0
C4231 C 0.53541 0.66583 0.47742 0.0
C4232 C 0.54518 0.64022 0.50033 0.0
C4233 C 0.53153 0.64777 0.45949 0.0
C4234 C 0.53446 0.62669 0.46164 0.0
C4235 C 0.54363 0.60112 0.48393 0.0
C4236 C 0.5495 0.5962 0.50429 0.0
C4237 C 0.54118 0.62264 0.4819 0.0
C4238 C 0.55301 0.61371 0.52272 0.0
C4239 C 0.55128 0.63549 0.52071 0.0
H4240 H 0.72277 0.33105 0.67321 0.0
H4241 H 0.67659 0.29235 0.70507 0.0
H4242 H 0.70331 0.28627 0.73011 0.0
H4243 H 0.73998 0.29161 0.7432 0.0
H4244 H 0.7867 0.32716 0.70964 0.0
H4245 H 0.75997 0.33474 0.6853 0.0
C4246 C 0.71858 0.32139 0.68571 0.0
C4247 C 0.69749 0.31236 0.68725 0.0
C4248 C 0.73426 0.31734 0.69984 0.0
C4249 C 0.69253 0.29956 0.70341 0.0
C4250 C 0.70788 0.29606 0.7178 0.0
C4251 C 0.74434 0.30112 0.73062 0.0
C4252 C 0.76545 0.30904 0.7285 0.0
C4253 C 0.72881 0.30484 0.71623 0.0
C4254 C 0.77067 0.32088 0.71173 0.0
C4255 C 0.75532 0.32526 0.6978 0.0
H4256 H 0.03083 0.40386 0.95539 0.0
H4257 H 0.03879 0.39695 0.02247 0.0
H4258 H 0.04329 0.43745 0.03463 0.0
H4259 H 0.04767 0.47566 0.02578 0.0
H4260 H 0.03728 0.4813 0.95852 0.0
H4261 H 0.03116 0.44089 0.94698 0.0
C4262 C 0.0335 0.41119 0.97269 0.0
C4263 C 0.03478 0.39727 0.98793 0.0
C4264 C 0.03571 0.43447 0.97959 0.0
C4265 C 0.03783 0.40715 0.01032 0.0
C4266 C 0.04047 0.43039 0.01729 0.0
C4267 C 0.04349 0.46797 0.00869 0.0
C4268 C 0.04267 0.48166 0.99306 0.0
C4269 C 0.03974 0.44436 1.00205 0.0
C4270 C 0.03779 0.47128 0.97092 0.0
C4271 C 0.03438 0.4481 0.96427 0.0
H4272 H 0.98085 0.78624 0.16001 0.0
H4273 H 0.02125 0.83881 0.20722 0.0
H4274 H 0.99446 0.83837 0.23201 0.0
H4275 H 0.96055 0.82148 0.24178 0.0
H4276 H 0.91942 0.7691 0.19549 0.0
H4277 H 0.94521 0.77117 0.16889 0.0
C4278 C 0.98376 0.79762 0.1757 0.0
C4279 C 1.00323 0.81255 0.18163 0.0
C4280 C 0.96809 0.79734 0.1901 0.0
C4281 C 1.0065 0.82732 0.20199 0.0
C4282 C 0.99117 0.82702 0.2163 0.0
C4283 C 0.95711 0.81075 0.22572 0.0
C4284 C 0.93812 0.79512 0.22066 0.0
C4285 C 0.97204 0.81194 0.21069 0.0
C4286 C 0.93384 0.78139 0.19975 0.0
C4287 C 0.9487 0.78245 0.18462 0.0
H4288 H 0.52073 0.33428 0.06017 0.0
H4289 H 0.52787 0.38424 0.11906 0.0
H4290 H 0.53886 0.41376 0.09829 0.0
H4291 H 0.54962 0.4246 0.06406 0.0
H4292 H 0.54122 0.37424 1.00501 0.0
H4293 H 0.52808 0.34541 0.02543 0.0
C4294 C 0.52452 0.35168 0.06836 0.0
C4295 C 0.52376 0.35723 0.09101 0.0
C4296 C 0.53097 0.36833 0.05643 0.0
C4297 C 0.52835 0.37973 0.10156 0.0
C4298 C 0.53477 0.39651 0.08974 0.0
C4299 C 0.54452 0.4074 0.0555 0.0
C4300 C 0.54672 0.40159 0.03302 0.0
C4301 C 0.5366 0.39093 0.06724 0.0
C4302 C 0.54025 0.37914 0.02237 0.0
C4303 C 0.53254 0.36265 0.03398 0.0
H4304 H 0.99981 0.30751 0.33035 0.0
H4305 H 0.0346 0.37026 0.31872 0.0
H4306 H 1.00414 0.37602 0.29927 0.0
H4307 H 0.9677 0.36344 0.28589 0.0
H4308 H 0.93385 0.29895 0.29448 0.0
H4309 H 0.96388 0.29388 0.31504 0.0
C4310 C 1.00082 0.3223 0.3233 0.0
C4311 C 0.01944 0.33845 0.32607 0.0
C4312 C 0.98339 0.32533 0.31177 0.0
C4313 C 0.02036 0.35773 0.31716 0.0
C4314 C 1.003 0.36098 0.30592 0.0
C4315 C 0.96691 0.34808 0.2919 0.0
C4316 C 0.94839 0.33174 0.28869 0.0
C4317 C 0.98443 0.3449 0.30315 0.0
C4318 C 0.94768 0.31214 0.29707 0.0
C4319 C 0.96494 0.30907 0.30867 0.0
H4320 H 0.01356 0.6448 0.61529 0.0
H4321 H 0.98231 0.65424 0.55665 0.0
H4322 H 0.99178 0.62145 0.53564 0.0
H4323 H 0.01354 0.59437 0.53337 0.0
H4324 H 0.04854 0.58886 0.59163 0.0
H4325 H 0.03302 0.616 0.61352 0.0
C4326 C 0.00861 0.63944 0.59795 0.0
C4327 C 0.99776 0.65199 0.5873 0.0
C4328 C 0.01514 0.62168 0.58594 0.0
C4329 C 0.99081 0.64474 0.56505 0.0
C4330 C 0.99642 0.62624 0.55305 0.0
C4331 C 0.01792 0.59925 0.5508 0.0
C4332 C 0.03268 0.59025 0.56074 0.0
C4333 C 0.00945 0.61534 0.56318 0.0
C4334 C 0.03748 0.59588 0.58351 0.0
C4335 C 0.02859 0.61135 0.59606 0.0
H4336 H 0.72184 0.83529 0.84318 0.0
H4337 H 0.68327 0.81065 0.7825 0.0
H4338 H 0.71382 0.80951 0.76247 0.0
H4339 H 0.75171 0.81438 0.76291 0.0
H4340 H 0.78903 0.83483 0.8247 0.0
H4341 H 0.75894 0.83939 0.84377 0.0
C4342 C 0.72025 0.82986 0.82554 0.0
C4343 C 0.70068 0.82335 0.81412 0.0
C4344 C 0.73764 0.82863 0.81447 0.0
C4345 C 0.69843 0.81589 0.7914 0.0
C4346 C 0.71581 0.8153 0.78004 0.0
C4347 C 0.75306 0.81982 0.78051 0.0
C4348 C 0.77225 0.824 0.79256 0.0
C4349 C 0.73551 0.82146 0.79146 0.0
C4350 C 0.77423 0.83143 0.81528 0.0
C4351 C 0.75707 0.83393 0.82616 0.0
H4352 H 0.51111 0.5941 0.6577 0.0
H4353 H 0.492 0.52333 0.65674 0.0
H4354 H 0.50532 0.51527 0.62186 0.0
H4355 H 0.52253 0.52713 0.58993 0.0
H4356 H 0.54556 0.59726 0.59194 0.0
H4357 H 0.531 0.60607 0.62685 0.0
C4358 C 0.50975 0.5768 0.65016 0.0
C4359 C 0.49933 0.5596 0.66089 0.0
C4360 C 0.51837 0.57184 0.62947 0.0
C4361 C 0.49864 0.53748 0.64974 0.0
C4362 C 0.50667 0.53261 0.62934 0.0
C4363 C 0.52443 0.54442 0.59785 0.0
C4364 C 0.53525 0.56141 0.58741 0.0
C4365 C 0.51645 0.54951 0.61875 0.0
C4366 C 0.5375 0.58359 0.5989 0.0
C4367 C 0.52904 0.58869 0.61916 0.0
H4368 H 0.75637 0.19209 0.92459 0.0
H4369 H 0.81618 0.23132 0.95349 0.0
H4370 H 0.81343 0.25924 0.93153 0.0
H4371 H 0.79297 0.27363 0.90589 0.0
H4372 H 0.73184 0.23642 0.88034 0.0
H4373 H 0.73561 0.2069 0.90029 0.0
C4374 C 0.76871 0.20688 0.92638 0.0
C4375 C 0.78633 0.2097 0.94085 0.0
C4376 C 0.7665 0.22346 0.91484 0.0
C4377 C 0.80253 0.22855 0.94228 0.0
C4378 C 0.80085 0.24472 0.93 0.0
C4379 C 0.78041 0.25922 0.90518 0.0
C4380 C 0.76197 0.25716 0.89243 0.0
C4381 C 0.78271 0.24257 0.91666 0.0
C4382 C 0.74587 0.23834 0.89076 0.0
C4383 C 0.74815 0.22147 0.90186 0.0
H4384 H 0.12263 0.51269 0.13472 0.0
H4385 H 0.11678 0.57743 0.16809 0.0
H4386 H 0.09272 0.57933 0.13777 0.0
H4387 H 0.07632 0.5638 0.10024 0.0
H4388 H 0.08347 0.49929 0.0676 0.0
H4389 H 0.10358 0.4956 0.09984 0.0
C4390 C 0.11564 0.52694 0.13573 0.0
C4391 C 0.12134 0.54486 0.15348 0.0
C4392 C 0.10207 0.52788 0.11848 0.0
C4393 C 0.11267 0.56354 0.15432 0.0
C4394 C 0.0989 0.56457 0.13713 0.0
C4395 C 0.08186 0.54875 0.10055 0.0
C4396 C 0.07879 0.53193 0.0818 0.0
C4397 C 0.09387 0.54701 0.11891 0.0
C4398 C 0.08601 0.5125 0.08198 0.0
C4399 C 0.0975 0.51041 0.10029 0.0
H4400 H 0.82361 0.80833 0.41088 0.0
H4401 H 0.79734 0.86608 0.41449 0.0
H4402 H 0.79694 0.86292 0.37509 0.0
H4403 H 0.80446 0.84472 0.33989 0.0
H4404 H 0.82492 0.78324 0.33369 0.0
H4405 H 0.82814 0.78736 0.37374 0.0
C4406 C 0.81779 0.82014 0.40295 0.0
C4407 C 0.81056 0.83751 0.41571 0.0
C4408 C 0.81708 0.81788 0.3799 0.0
C4409 C 0.80287 0.85253 0.40515 0.0
C4410 C 0.80276 0.85083 0.38259 0.0
C4411 C 0.80971 0.83214 0.34716 0.0
C4412 C 0.81534 0.81419 0.33368 0.0
C4413 C 0.80993 0.83373 0.36986 0.0
C4414 C 0.82148 0.79782 0.34361 0.0
C4415 C 0.82295 0.8 0.36653 0.0
H4416 H 0.47804 0.55553 0.91033 0.0
H4417 H 0.53538 0.56778 0.88144 0.0
H4418 H 0.55356 0.56274 0.9146 0.0
H4419 H 0.55414 0.55622 0.95396 0.0
H4420 H 0.49602 0.54337 0.98142 0.0
H4421 H 0.47821 0.54706 0.94778 0.0
C4422 C 0.49454 0.55722 0.91103 0.0
C4423 C 0.50482 0.56224 0.89241 0.0
C4424 C 0.50526 0.55405 0.9306 0.0
C4425 C 0.52639 0.56382 0.89466 0.0
C4426 C 0.53706 0.56098 0.91403 0.0
C4427 C 0.53755 0.5538 0.95257 0.0
C4428 C 0.52677 0.54928 0.97113 0.0
C4429 C 0.52682 0.55614 0.93242 0.0
C4430 C 0.50516 0.54674 0.96811 0.0
C4431 C 0.49475 0.54898 0.94859 0.0
H4432 H 0.76574 0.21553 0.14212 0.0
H4433 H 0.81417 0.26159 0.12001 0.0
H4434 H 0.8187 0.28685 0.15556 0.0
H4435 H 0.8113 0.29344 0.19384 0.0
H4436 H 0.76434 0.24563 0.21586 0.0
H4437 H 0.7559 0.22412 0.1789 0.0
C4438 C 0.77686 0.2314 0.14479 0.0
C4439 C 0.78972 0.23664 0.12861 0.0
C4440 C 0.7796 0.24553 0.16521 0.0
C4441 C 0.80431 0.25709 0.13244 0.0
C4442 C 0.80686 0.27154 0.15268 0.0
C4443 C 0.79931 0.27834 0.19059 0.0
C4444 C 0.78919 0.27067 0.20775 0.0
C4445 C 0.79504 0.26552 0.1694 0.0
C4446 C 0.77286 0.25162 0.20306 0.0
C4447 C 0.768 0.23924 0.18191 0.0
H4448 H 0.16002 0.53988 0.35779 0.0
H4449 H 0.11481 0.55014 0.31112 0.0
H4450 H 0.09365 0.55995 0.34039 0.0
H4451 H 0.09143 0.57197 0.37948 0.0
H4452 H 0.13732 0.56366 0.42651 0.0
H4453 H 0.15497 0.54654 0.39696 0.0
C4454 C 0.1452 0.54357 0.35411 0.0
C4455 C 0.13885 0.54456 0.33267 0.0
C4456 C 0.13361 0.54997 0.37106 0.0
C4457 C 0.11982 0.54947 0.32774 0.0
C4458 C 0.10786 0.5552 0.3444 0.0
C4459 C 0.10512 0.56604 0.3831 0.0
C4460 C 0.11351 0.56934 0.40474 0.0
C4461 C 0.11514 0.55657 0.36616 0.0
C4462 C 0.13094 0.56137 0.40971 0.0
C4463 C 0.14096 0.55166 0.3929 0.0
H4464 H 0.83114 0.86163 0.65657 0.0
H4465 H 0.77994 0.80861 0.62539 0.0
H4466 H 0.77574 0.79556 0.65989 0.0
H4467 H 0.7867 0.79944 0.69909 0.0
H4468 H 0.83856 0.8523 0.72935 0.0
H4469 H 0.84219 0.86508 0.69519 0.0
C4470 C 0.81921 0.84703 0.65717 0.0
C4471 C 0.80597 0.83613 0.63826 0.0
C4472 C 0.81687 0.8396 0.67704 0.0
C4473 C 0.7903 0.81751 0.63966 0.0
C4474 C 0.78791 0.80997 0.6594 0.0
C4475 C 0.79889 0.81355 0.6983 0.0
C4476 C 0.81234 0.82453 0.71711 0.0
C4477 C 0.80111 0.82092 0.67827 0.0
C4478 C 0.82778 0.8433 0.71545 0.0
C4479 C 0.83001 0.85069 0.69576 0.0
H4480 H 0.73846 0.49614 0.55047 0.0
H4481 H 0.73645 0.50263 0.48284 0.0
H4482 H 0.70968 0.52387 0.48851 0.0
H4483 H 0.68956 0.54361 0.51379 0.0
H4484 H 0.6945 0.53993 0.58205 0.0
H4485 H 0.71805 0.51488 0.57529 0.0
C4486 C 0.73216 0.50225 0.53698 0.0
C4487 C 0.73954 0.49829 0.5164 0.0
C4488 C 0.71772 0.51523 0.54063 0.0
C4489 C 0.7309 0.50556 0.49883 0.0
C4490 C 0.71582 0.51786 0.50213 0.0
C4491 C 0.69592 0.53729 0.5271 0.0
C4492 C 0.69085 0.54371 0.54841 0.0
C4493 C 0.70961 0.52333 0.52312 0.0
C4494 C 0.69876 0.53544 0.56565 0.0
C4495 C 0.71199 0.52106 0.56175 0.0
H4496 H 0.17871 0.14231 0.5147 0.0
H4497 H 0.20303 0.08557 0.48831 0.0
H4498 H 0.16926 0.06073 0.48776 0.0
H4499 H 0.13277 0.05488 0.49623 0.0
H4500 H 0.10972 0.11218 0.52396 0.0
H4501 H 0.1428 0.13665 0.52261 0.0
C4502 C 0.17678 0.12449 0.50899 0.0
C4503 C 0.19365 0.116 0.50168 0.0
C4504 C 0.15736 0.11021 0.50897 0.0
C4505 C 0.19044 0.0928 0.49386 0.0
C4506 C 0.17108 0.07849 0.49366 0.0
C4507 C 0.13491 0.07268 0.50185 0.0
C4508 C 0.11851 0.0814 0.51035 0.0
C4509 C 0.15438 0.08696 0.50133 0.0
C4510 C 0.12186 0.10469 0.51752 0.0
C4511 C 0.1409 0.11886 0.51676 0.0
H4512 H 0.26004 0.90798 0.74846 0.0
H4513 H 0.22415 0.90005 0.80324 0.0
H4514 H 0.23953 0.87019 0.80971 0.0
H4515 H 0.26304 0.84479 0.8011 0.0
H4516 H 0.2964 0.8476 0.74441 0.0
H4517 H 0.28276 0.87989 0.73815 0.0
C4518 C 0.25539 0.89995 0.76192 0.0
C4519 C 0.24069 0.90818 0.77558 0.0
C4520 C 0.26425 0.88124 0.76559 0.0
C4521 C 0.2355 0.89612 0.79252 0.0
C4522 C 0.24435 0.87828 0.7963 0.0
C4523 C 0.26761 0.85235 0.7873 0.0
C4524 C 0.28181 0.84344 0.77387 0.0
C4525 C 0.25882 0.87062 0.78317 0.0
C4526 C 0.28648 0.8539 0.75584 0.0
C4527 C 0.27827 0.87251 0.75205 0.0
H4528 H 0.43953 0.97639 0.03347 0.0
H4529 H 0.43943 0.04515 0.03197 0.0
H4530 H 0.47541 0.0519 0.02411 0.0
H4531 H 0.50613 0.03834 0.01887 0.0
H4532 H 0.50743 0.97013 0.02021 0.0
H4533 H 0.471 0.96268 0.02697 0.0
C4534 C 0.44757 0.99297 0.03189 0.0
C4535 C 0.43717 0.01045 0.03373 0.0
C4536 C 0.46802 0.99658 0.02712 0.0
C4537 C 0.44735 0.03164 0.03088 0.0
C4538 C 0.46777 0.03541 0.0263 0.0
C4539 C 0.49863 0.02182 0.02027 0.0
C4540 C 0.50953 1.00489 0.01883 0.0
C4541 C 0.47813 0.01798 0.0244 0.0
C4542 C 0.49927 0.98342 0.02092 0.0
C4543 C 0.47858 0.97925 0.02499 0.0
H4544 H 0.87337 0.6614 0.81313 0.0
H4545 H 0.83261 0.59697 0.78994 0.0
H4546 H 0.80902 0.61388 0.7709 0.0
H4547 H 0.80352 0.64584 0.75591 0.0
H4548 H 0.84507 0.71017 0.7774 0.0
H4549 H 0.8648 0.69472 0.80257 0.0
C4550 C 0.85886 0.65139 0.80465 0.0
C4551 C 0.85436 0.62825 0.80289 0.0
C4552 C 0.84586 0.66113 0.79321 0.0
C4553 C 0.83593 0.61497 0.79159 0.0
C4554 C 0.82265 0.62456 0.78055 0.0
C4555 C 0.81673 0.65645 0.7664 0.0
C4556 C 0.82328 0.67879 0.76466 0.0
C4557 C 0.828 0.64743 0.78043 0.0
C4558 C 0.84004 0.69276 0.77849 0.0
C4559 C 0.85129 0.68396 0.79277 0.0
H4560 H 0.87609 0.6067 1.00499 0.0
H4561 H 0.91337 0.67371 0.02193 0.0
H4562 H 0.9437 0.6593 0.03002 0.0
H4563 H 0.95831 0.62782 0.03709 0.0
H4564 H 0.92123 0.5608 0.01981 0.0
H4565 H 0.8923 0.57476 0.00636 0.0
C4566 C 0.89099 0.61803 0.00998 0.0
C4567 C 0.89259 0.6412 0.01297 0.0
C4568 C 0.90837 0.60958 0.01447 0.0
C4569 C 0.91189 0.65582 0.01944 0.0
C4570 C 0.92918 0.64758 0.02415 0.0
C4571 C 0.94412 0.61628 0.02959 0.0
C4572 C 0.94186 0.59333 0.02923 0.0
C4573 C 0.92748 0.62453 0.02231 0.0
C4574 C 0.92334 0.57848 0.01991 0.0
C4575 C 0.90674 0.58651 0.01251 0.0
H4576 H 0.22862 0.15539 0.76989 0.0
H4577 H 0.28293 0.13375 0.78885 0.0
H4578 H 0.30383 0.17126 0.79058 0.0
H4579 H 0.30744 0.21129 0.78632 0.0
H4580 H 0.25244 0.2317 0.76701 0.0
H4581 H 0.23205 0.1945 0.76566 0.0
C4582 C 0.24504 0.15856 0.77424 0.0
C4583 C 0.25369 0.1409 0.77929 0.0
C4584 C 0.25732 0.18056 0.77514 0.0
C4585 C 0.27522 0.14641 0.78518 0.0
C4586 C 0.28744 0.16814 0.78604 0.0
C4587 C 0.29103 0.20772 0.78182 0.0
C4588 C 0.28199 0.22515 0.77674 0.0
C4589 C 0.27877 0.18556 0.78106 0.0
C4590 C 0.26042 0.21938 0.77104 0.0
C4591 C 0.24845 0.19775 0.77023 0.0
H4592 H 0.36857 0.9254 0.30058 0.0
H4593 H 0.31206 0.93671 0.27332 0.0
H4594 H 0.29782 0.89619 0.26308 0.0
H4595 H 0.30296 0.85779 0.25967 0.0
H4596 H 0.36086 0.84741 0.28433 0.0
H4597 H 0.37366 0.88761 0.29732 0.0
C4598 C 0.353 0.91884 0.29277 0.0
C4599 C 0.34109 0.93347 0.28789 0.0
C4600 C 0.34553 0.89594 0.28611 0.0
C4601 C 0.32116 0.92533 0.27739 0.0
C4602 C 0.31321 0.90234 0.27135 0.0
C4603 C 0.31827 0.86454 0.26807 0.0
C4604 C 0.33076 0.85014 0.27218 0.0
C4605 C 0.32548 0.88754 0.27522 0.0
C4606 C 0.35086 0.85855 0.28211 0.0
C4607 C 0.35816 0.88137 0.28935 0.0
H4608 H 0.57179 0.41328 0.53489 0.0
H4609 H 0.60177 0.44143 0.59982 0.0
H4610 H 0.59675 0.47814 0.59606 0.0
H4611 H 0.58358 0.5025 0.57513 0.0
H4612 H 0.55894 0.47741 0.50799 0.0
H4613 H 0.56148 0.43954 0.51192 0.0
C4614 C 0.57723 0.42748 0.54819 0.0
C4615 C 0.58709 0.42432 0.5678 0.0
C4616 C 0.57489 0.44914 0.54562 0.0
C4617 C 0.5942 0.44313 0.58463 0.0
C4618 C 0.59126 0.46423 0.5825 0.0
C4619 C 0.57869 0.48884 0.5612 0.0
C4620 C 0.57006 0.49297 0.54153 0.0
C4621 C 0.58157 0.46746 0.56318 0.0
C4622 C 0.56462 0.47486 0.52366 0.0
C4623 C 0.5664 0.45314 0.52587 0.0
H4624 H 0.42125 0.75495 0.33886 0.0
H4625 H 0.41636 0.80545 0.39404 0.0
H4626 H 0.38549 0.81128 0.37554 0.0
H4627 H 0.35962 0.8026 0.34343 0.0
H4628 H 0.36348 0.75101 0.28915 0.0
H4629 H 0.39438 0.74508 0.3074 0.0
C4630 C 0.41341 0.76712 0.34701 0.0
C4631 C 0.42169 0.77988 0.36795 0.0
C4632 C 0.3953 0.77042 0.33623 0.0
C4633 C 0.41099 0.79563 0.37785 0.0
C4634 C 0.39307 0.79891 0.36729 0.0
C4635 C 0.36723 0.79015 0.33541 0.0
C4636 C 0.35954 0.77818 0.31402 0.0
C4637 C 0.38509 0.78654 0.34638 0.0
C4638 C 0.36952 0.76159 0.30469 0.0
C4639 C 0.38714 0.75787 0.31544 0.0
H4640 H 0.10033 0.68088 0.07614 0.0
H4641 H 0.0613 0.69134 0.02285 0.0
H4642 H 0.053 0.65211 0.00831 0.0
H4643 H 0.05491 0.61386 0.01056 0.0
H4644 H 0.08833 0.60224 0.06639 0.0
H4645 H 0.10197 0.64247 0.07864 0.0
C4646 C 0.09019 0.67517 0.06121 0.0
C4647 C 0.08175 0.69053 0.05117 0.0
C4648 C 0.08502 0.65182 0.05256 0.0
C4649 C 0.06841 0.68124 0.03176 0.0
C4650 C 0.06355 0.65828 0.02302 0.0
C4651 C 0.06572 0.62012 0.02508 0.0
C4652 C 0.07207 0.60472 0.03644 0.0
C4653 C 0.07164 0.64339 0.03327 0.0
C4654 C 0.08498 0.61332 0.05598 0.0
C4655 C 0.09205 0.63653 0.06348 0.0
H4656 H 0.11344 0.26263 0.84133 0.0
H4657 H 0.14147 0.30869 0.90069 0.0
H4658 H 0.17384 0.31668 0.88444 0.0
H4659 H 0.19378 0.31291 0.85223 0.0
H4660 H 0.16635 0.266 0.79353 0.0
H4661 H 0.13457 0.25564 0.81077 0.0
C4662 C 0.12665 0.27413 0.85095 0.0
C4663 C 0.12455 0.28534 0.8722 0.0
C4664 C 0.14555 0.27845 0.84159 0.0
C4665 C 0.14212 0.30028 0.88411 0.0
C4666 C 0.16084 0.30474 0.87488 0.0
C4667 C 0.18104 0.29992 0.84351 0.0
C4668 C 0.18255 0.28991 0.82175 0.0
C4669 C 0.16268 0.29425 0.8535 0.0
C4670 C 0.16573 0.27353 0.81043 0.0
C4671 C 0.14746 0.26782 0.82023 0.0
H4672 H 0.58376 0.71432 0.94061 0.0
H4673 H 0.61319 0.76973 0.99212 0.0
H4674 H 0.60342 0.74712 0.01952 0.0
H4675 H 0.58589 0.71193 0.02883 0.0
H4676 H 0.55515 0.65706 0.97734 0.0
H4677 H 0.56616 0.67912 0.94991 0.0
C4678 C 0.58797 0.72141 0.95785 0.0
C4679 C 0.59917 0.74356 0.96439 0.0
C4680 C 0.58206 0.70847 0.97348 0.0
C4681 C 0.60479 0.75256 0.98672 0.0
C4682 C 0.59909 0.73973 1.00238 0.0
C4683 C 0.58139 0.70493 0.01163 0.0
C4684 C 0.56969 0.683 1.00515 0.0
C4685 C 0.58757 0.71774 0.99595 0.0
C4686 C 0.56432 0.67391 0.98275 0.0
C4687 C 0.57052 0.6865 0.96705 0.0
H4688 H 0.11417 0.74276 0.69305 0.0
H4689 H 0.1056 0.79164 0.74789 0.0
H4690 H 0.13753 0.78895 0.7672 0.0
H4691 H 0.16717 0.77134 0.76906 0.0
H4692 H 0.1754 0.72238 0.71433 0.0
H4693 H 0.14408 0.72611 0.69439 0.0
C4694 C 0.11922 0.7527 0.70929 0.0
C4695 C 0.10748 0.76721 0.71913 0.0
C4696 C 0.13742 0.75092 0.72031 0.0
C4697 C 0.11445 0.78042 0.73995 0.0
C4698 C 0.13262 0.77879 0.75104 0.0
C4699 C 0.16199 0.7616 0.75275 0.0
C4700 C 0.17319 0.74651 0.74305 0.0
C4701 C 0.1441 0.76392 0.74147 0.0
C4702 C 0.16674 0.734 0.72193 0.0
C4703 C 0.14893 0.73614 0.71061 0.0
H4704 H 0.11664 0.44906 0.43518 0.0
H4705 H 0.13934 0.43358 0.49512 0.0
H4706 H 0.12972 0.46626 0.5162 0.0
H4707 H 0.10962 0.49476 0.51738 0.0
H4708 H 0.08329 0.50696 0.4572 0.0
H4709 H 0.09997 0.48026 0.43623 0.0
C4710 C 0.11995 0.45329 0.45283 0.0
C4711 C 0.12834 0.43907 0.46377 0.0
C4712 C 0.1134 0.47117 0.4647 0.0
C4713 C 0.13288 0.44451 0.48653 0.0
C4714 C 0.12716 0.46296 0.49851 0.0
C4715 C 0.1074 0.49151 0.4997 0.0
C4716 C 0.09454 0.5021 0.48888 0.0
C4717 C 0.11645 0.47564 0.48778 0.0
C4718 C 0.09271 0.49859 0.46594 0.0
C4719 C 0.10226 0.48337 0.45392 0.0
H4720 H 0.42499 0.27028 0.25154 0.0
H4721 H 0.39794 0.26264 0.1856 0.0
H4722 H 0.36396 0.26149 0.19858 0.0
H4723 H 0.34252 0.26455 0.22868 0.0
H4724 H 0.36875 0.27283 0.29493 0.0
H4725 H 0.40273 0.27171 0.28206 0.0
C4726 C 0.41154 0.2683 0.24019 0.0
C4727 C 0.4136 0.26672 0.21781 0.0
C4728 C 0.39216 0.26776 0.24781 0.0
C4729 C 0.39639 0.2641 0.20295 0.0
C4730 C 0.37708 0.26333 0.21032 0.0
C4731 C 0.35573 0.26592 0.24019 0.0
C4732 C 0.3537 0.26942 0.26258 0.0
C4733 C 0.37487 0.26538 0.23268 0.0
C4734 C 0.37043 0.27057 0.27758 0.0
C4735 C 0.38971 0.26994 0.27023 0.0
H4736 H 0.59688 0.53608 0.3807 0.0
H4737 H 0.64433 0.50465 0.40087 0.0
H4738 H 0.63194 0.50624 0.4369 0.0
H4739 H 0.6079 0.51712 0.46447 0.0
H4740 H 0.55905 0.54624 0.44401 0.0
H4741 H 0.57168 0.54528 0.40778 0.0
C4742 C 0.60469 0.52956 0.39285 0.0
C4743 C 0.62192 0.52011 0.38697 0.0
C4744 C 0.59713 0.53023 0.41426 0.0
C4745 C 0.63109 0.51177 0.40379 0.0
C4746 C 0.62399 0.5128 0.42489 0.0
C4747 C 0.59985 0.52317 0.45212 0.0
C4748 C 0.58218 0.53177 0.45767 0.0
C4749 C 0.60703 0.52202 0.43056 0.0
C4750 C 0.57238 0.53934 0.4408 0.0
C4751 C 0.57975 0.53885 0.4198 0.0
H4752 H 0.33381 0.85306 0.09302 0.0
H4753 H 0.31775 0.9088 0.13401 0.0
H4754 H 0.32471 0.89377 0.16656 0.0
H4755 H 0.33978 0.86735 0.18329 0.0
H4756 H 0.35637 0.81199 0.14232 0.0
H4757 H 0.34452 0.82397 0.10951 0.0
C4758 C 0.33139 0.86151 0.1091 0.0
C4759 C 0.32537 0.88187 0.11143 0.0
C4760 C 0.33566 0.85294 0.12755 0.0
C4761 C 0.32223 0.89295 0.13209 0.0
C4762 C 0.32636 0.88448 0.15061 0.0
C4763 C 0.34032 0.85776 0.16712 0.0
C4764 C 0.34893 0.83906 0.16484 0.0
C4765 C 0.33371 0.86489 0.14855 0.0
C4766 C 0.34972 0.8265 0.14409 0.0
C4767 C 0.34306 0.83338 0.12547 0.0
H4768 H 0.99149 0.58102 0.91763 0.0
H4769 H 0.02179 0.53932 0.8742 0.0
H4770 H 0.04587 0.53815 0.90472 0.0
H4771 H 0.05407 0.5439 0.94432 0.0
H4772 H 0.02115 0.58238 0.98768 0.0
H4773 H 1.00241 0.59048 0.95655 0.0
C4774 C 1.00382 0.57233 0.9148 0.0
C4775 C 1.00504 0.56024 0.89399 0.0
C4776 C 0.01693 0.57109 0.93238 0.0
C4777 C 0.02069 0.5486 0.89033 0.0
C4778 C 0.03435 0.54792 0.90768 0.0
C4779 C 0.04334 0.5547 0.94676 0.0
C4780 C 0.03881 0.56266 0.96781 0.0
C4781 C 0.03206 0.55837 0.92887 0.0
C4782 C 0.02462 0.57619 0.97129 0.0
C4783 C 0.01393 0.58071 0.95361 0.0
H4784 H 0.30715 0.22864 0.63912 0.0
H4785 H 0.29745 0.29262 0.63088 0.0
H4786 H 0.29793 0.30432 0.67077 0.0
H4787 H 0.30383 0.29678 0.7086 0.0
H4788 H 0.30923 0.23052 0.7148 0.0
H4789 H 0.30808 0.21951 0.67545 0.0
C4790 C 0.30511 0.24514 0.64609 0.0
C4791 C 0.30271 0.2599 0.63218 0.0
C4792 C 0.3048 0.25142 0.66881 0.0
C4793 C 0.29961 0.28107 0.64133 0.0
C4794 C 0.29989 0.28774 0.66414 0.0
C4795 C 0.30412 0.27979 0.70127 0.0
C4796 C 0.30658 0.2645 0.71481 0.0
C4797 C 0.30278 0.27313 0.67817 0.0
C4798 C 0.30732 0.24265 0.7049 0.0
C4799 C 0.30672 0.23628 0.68232 0.0
H4800 H 0.64229 0.54012 0.14026 0.0
H4801 H 0.58492 0.51091 0.16297 0.0
H4802 H 0.56625 0.51523 0.12997 0.0
H4803 H 0.56531 0.52638 0.09262 0.0
H4804 H 0.62317 0.55405 0.07014 0.0
H4805 H 0.64143 0.55184 0.10421 0.0
C4806 C 0.62568 0.53477 0.13842 0.0
C4807 C 0.61567 0.52483 0.15517 0.0
C4808 C 0.61455 0.53736 0.11882 0.0
C4809 C 0.59386 0.51815 0.15109 0.0
C4810 C 0.58285 0.52084 0.13188 0.0
C4811 C 0.58186 0.5325 0.09529 0.0
C4812 C 0.59244 0.5413 0.07825 0.0
C4813 C 0.59287 0.53037 0.11534 0.0
C4814 C 0.61413 0.54784 0.08252 0.0
C4815 C 0.62481 0.54638 0.10224 0.0
H4816 H 0.31931 0.83838 0.91816 0.0
H4817 H 0.36442 0.89252 0.9025 0.0
H4818 H 0.36355 0.87148 0.86562 0.0
H4819 H 0.34709 0.84024 0.83695 0.0
H4820 H 0.30049 0.78669 0.85127 0.0
H4821 H 0.30468 0.80521 0.88968 0.0
C4822 C 0.32897 0.84553 0.90667 0.0
C4823 C 0.34172 0.86706 0.91298 0.0
C4824 C 0.3279 0.83367 0.88526 0.0
C4825 C 0.35458 0.87591 0.89814 0.0
C4826 C 0.35396 0.86399 0.87697 0.0
C4827 C 0.33789 0.83242 0.8484 0.0
C4828 C 0.32292 0.81249 0.8411 0.0
C4829 C 0.34023 0.84321 0.87023 0.0
C4830 C 0.31162 0.80238 0.85635 0.0
C4831 C 0.31409 0.81291 0.87832 0.0
H4832 H 0.9995 0.55325 0.72073 0.0
H4833 H 0.94523 0.51148 0.68184 0.0
H4834 H 0.96557 0.50344 0.65122 0.0
H4835 H 0.9992 0.50636 0.63673 0.0
H4836 H 0.05379 0.54599 0.67658 0.0
H4837 H 0.03292 0.55714 0.70581 0.0
C4838 C 0.99216 0.54271 0.70538 0.0
C4839 C 0.97105 0.53299 0.70328 0.0
C4840 C 1.004 0.53772 0.68825 0.0
C4841 C 0.96156 0.51904 0.68361 0.0
C4842 C 0.97314 0.51446 0.66621 0.0
C4843 C 1.0064 0.51758 0.65179 0.0
C4844 C 0.02783 0.52533 0.65482 0.0
C4845 C 0.99442 0.52339 0.66853 0.0
C4846 C 0.03725 0.53974 0.67425 0.0
C4847 C 0.02536 0.54612 0.69082 0.0
H4848 H 0.29202 0.22601 0.39133 0.0
H4849 H 0.33877 0.28237 0.42539 0.0
H4850 H 0.34329 0.29646 0.39143 0.0
H4851 H 0.3336 0.29279 0.35213 0.0
H4852 H 0.28702 0.23599 0.31832 0.0
H4853 H 0.28299 0.22209 0.35198 0.0
C4854 C 0.3031 0.24147 0.39137 0.0
C4855 C 0.31493 0.25316 0.41096 0.0
C4856 C 0.30575 0.24938 0.37175 0.0
C4857 C 0.32951 0.27295 0.41056 0.0
C4858 C 0.33207 0.28106 0.39114 0.0
C4859 C 0.32257 0.27748 0.35196 0.0
C4860 C 0.31062 0.26581 0.33238 0.0
C4861 C 0.32024 0.26941 0.3716 0.0
C4862 C 0.29656 0.2456 0.33289 0.0
C4863 C 0.29412 0.23756 0.35226 0.0
H4864 H 0.37069 0.58151 0.49215 0.0
H4865 H 0.39051 0.60083 0.5612 0.0
H4866 H 0.41692 0.57915 0.55637 0.0
H4867 H 0.4338 0.55422 0.53251 0.0
H4868 H 0.41428 0.53572 0.46342 0.0
H4869 H 0.38841 0.55812 0.4682 0.0
C4870 C 0.38102 0.58133 0.5061 0.0
C4871 C 0.37875 0.59281 0.52698 0.0
C4872 C 0.39613 0.56902 0.50318 0.0
C4873 C 0.39188 0.59194 0.545 0.0
C4874 C 0.40701 0.57966 0.54222 0.0
C4875 C 0.42395 0.55525 0.51851 0.0
C4876 C 0.4257 0.54327 0.49768 0.0
C4877 C 0.40917 0.56806 0.5214 0.0
C4878 C 0.41286 0.54455 0.47964 0.0
C4879 C 0.3982 0.5574 0.48236 0.0
H4880 H 0.93927 0.94835 0.52409 0.0
H4881 H 0.92106 1.00089 0.56779 0.0
H4882 H 0.95526 0.02518 0.56878 0.0
H4883 H 0.99058 0.03182 0.55647 0.0
H4884 H 0.00744 0.97843 0.51226 0.0
H4885 H 0.97385 0.95463 0.5123 0.0
C4886 C 0.94263 0.96518 0.53371 0.0
C4887 C 0.92737 0.97266 0.54572 0.0
C4888 C 0.96231 0.97911 0.53416 0.0
C4889 C 0.93242 0.99445 0.55847 0.0
C4890 C 0.95201 1.00846 0.55897 0.0
C4891 C 0.98693 0.01502 0.54685 0.0
C4892 C 1.00183 1.00729 0.53426 0.0
C4893 C 0.96715 1.00102 0.54679 0.0
C4894 C 0.99658 0.98523 0.52208 0.0
C4895 C 0.97721 0.9714 0.52203 0.0
H4896 H 0.86334 0.18133 0.29923 0.0
H4897 H 0.89127 0.18224 0.23855 0.0
H4898 H 0.87505 0.21165 0.23179 0.0
H4899 H 0.85294 0.23843 0.24187 0.0
H4900 H 0.8266 0.24148 0.30328 0.0
H4901 H 0.84157 0.21029 0.31034 0.0
C4902 C 0.86604 0.18777 0.28443 0.0
C4903 C 0.87873 0.17784 0.26925 0.0
C4904 C 0.85657 0.20599 0.28047 0.0
C4905 C 0.88146 0.18772 0.25052 0.0
C4906 C 0.87215 0.20522 0.24658 0.0
C4907 C 0.85023 0.23241 0.2569 0.0
C4908 C 0.83777 0.2428 0.27163 0.0
C4909 C 0.85957 0.21455 0.26122 0.0
C4910 C 0.83534 0.23419 0.29107 0.0
C4911 C 0.84424 0.21615 0.29523 0.0
H4912 H 0.67836 0.10948 0.0468 0.0
H4913 H 0.67753 0.04566 0.00617 0.0
H4914 H 0.63996 0.0372 1.00142 0.0
H4915 H 0.60821 0.04888 0.00743 0.0
H4916 H 0.60794 0.11238 0.04742 0.0
H4917 H 0.64577 0.12089 0.05317 0.0
C4918 C 0.66984 0.09351 0.03736 0.0
C4919 C 0.6804 0.07795 0.02713 0.0
C4920 C 0.64842 0.08906 0.03435 0.0
C4921 C 0.6695 0.05763 0.01433 0.0
C4922 C 0.64814 0.05289 0.01156 0.0
C4923 C 0.61627 0.06411 0.01816 0.0
C4924 C 0.60544 0.07936 0.02822 0.0
C4925 C 0.63757 0.06856 0.02137 0.0
C4926 C 0.61616 0.10018 0.04014 0.0
C4927 C 0.63764 0.10494 0.04344 0.0
H4928 H 0.26787 0.43972 0.2349 0.0
H4929 H 0.24286 0.46933 0.29219 0.0
H4930 H 0.26373 0.4535 0.31535 0.0
H4931 H 0.28941 0.43216 0.31951 0.0
H4932 H 0.31636 0.40391 0.2631 0.0
H4933 H 0.29402 0.41788 0.23925 0.0
C4934 C 0.26698 0.44249 0.25243 0.0
C4935 C 0.25366 0.45519 0.26184 0.0
C4936 C 0.27926 0.43362 0.26575 0.0
C4937 C 0.25262 0.45899 0.28457 0.0
C4938 C 0.26465 0.45015 0.29784 0.0
C4939 C 0.29059 0.42929 0.30203 0.0
C4940 C 0.30466 0.4174 0.29309 0.0
C4941 C 0.27808 0.43759 0.28861 0.0
C4942 C 0.30558 0.41311 0.27033 0.0
C4943 C 0.29292 0.42115 0.25672 0.0
H4944 H 0.20996 0.43077 0.02152 0.0
H4945 H 0.2612 0.48812 0.0353 0.0
H4946 H 0.23828 0.5124 0.02965 0.0
H4947 H 0.20424 0.51752 0.01933 0.0
H4948 H 0.1526 0.46085 1.00413 0.0
H4949 H 0.17497 0.43627 0.01215 0.0
C4950 C 0.21607 0.44857 0.02325 0.0
C4951 C 0.23733 0.45756 0.02897 0.0
C4952 C 0.20274 0.46261 0.01978 0.0
C4953 C 0.24493 0.48072 0.03131 0.0
C4954 C 0.23184 0.49467 0.02795 0.0
C4955 C 0.19785 0.49977 0.0177 0.0
C4956 C 0.17686 0.49101 0.01082 0.0
C4957 C 0.2108 0.4858 0.02199 0.0
C4958 C 0.16873 0.46805 0.0094 0.0
C4959 C 0.18155 0.45397 0.01383 0.0
H4960 H 0.89322 0.92932 0.26417 0.0
H4961 H 0.83991 0.95675 0.27557 0.0
H4962 H 0.81919 0.91955 0.27559 0.0
H4963 H 0.81552 0.87814 0.27258 0.0
H4964 H 0.8693 0.85144 0.26157 0.0
H4965 H 0.88962 0.88846 0.26098 0.0
C4966 C 0.87704 0.92737 0.26649 0.0
C4967 C 0.86862 0.94669 0.26997 0.0
C4968 C 0.86486 0.90547 0.2665 0.0
C4969 C 0.84743 0.94292 0.27321 0.0
C4970 C 0.83532 0.92132 0.27306 0.0
C4971 C 0.83161 0.88027 0.26981 0.0
C4972 C 0.84045 0.86122 0.267 0.0
C4973 C 0.84375 0.90228 0.26974 0.0
C4974 C 0.86162 0.86515 0.26383 0.0
C4975 C 0.87348 0.88662 0.26347 0.0
H4976 H 0.75124 0.15998 0.72892 0.0
H4977 H 0.80701 0.15551 0.76405 0.0
H4978 H 0.81825 0.19644 0.77245 0.0
H4979 H 0.81012 0.23311 0.77279 0.0
H4980 H 0.75245 0.2367 0.74075 0.0
H4981 H 0.74354 0.19616 0.72847 0.0
C4982 C 0.76612 0.16804 0.73787 0.0
C4983 C 0.77857 0.15513 0.74553 0.0
C4984 C 0.77173 0.19122 0.74363 0.0
C4985 C 0.79748 0.16543 0.75776 0.0
C4986 C 0.80371 0.18868 0.76276 0.0
C4987 C 0.79578 0.22491 0.76284 0.0
C4988 C 0.78213 0.23753 0.757 0.0
C4989 C 0.79066 0.20169 0.75628 0.0
C4990 C 0.76322 0.22702 0.74495 0.0
C4991 C 0.75818 0.20399 0.73794 0.0
loop_
_geom_bond_atom_site_label_1
_geom_bond_atom_site_label_2
_geom_bond_distance
_geom_bond_site_symmetry_2
_ccdc_geom_bond_type
Li0 N17 1.990 . S
Li0 O60 1.956 . S
Li0 O61 1.970 . S
Li0 O62 1.961 . S
Li1 N25 1.990 . S
Li1 O60 1.970 . S
Li1 O61 1.956 . S
Li1 O63 1.961 . S
Li2 N47 1.990 . S
Li2 O60 1.961 . S
Li2 O62 1.956 . S
Li2 O63 1.970 . S
Li3 N53 1.990 . S
Li3 O61 1.961 . S
Li3 O62 1.970 . S
Li3 O63 1.956 . S
C4 C6 1.348 . S
C4 C7 1.356 . S
C4 O60 1.325 . S
N5 C8 1.314 . S
N5 C9 1.279 . S
C6 C4 1.348 . S
C6 C8 1.353 . S
C6 H64 0.929 . S
C7 C4 1.356 . S
C7 C9 1.358 . S
C7 H65 0.930 . S
C8 N5 1.314 . S
C8 C6 1.353 . S
C8 H66 0.930 . S
C9 N5 1.279 . S
C9 C7 1.358 . S
C9 H67 0.930 . S
C10 C13 1.348 . S
C10 C14 1.356 . S
C10 O61 1.325 . S
C11 N12 1.279 . S
C11 C14 1.358 . S
C11 H68 0.930 . S
N12 C11 1.279 . S
N12 C15 1.314 . S
C13 C10 1.348 . S
C13 C15 1.353 . S
C13 H69 0.929 . S
C14 C10 1.356 . S
C14 C11 1.358 . S
C14 H70 0.930 . S
C15 N12 1.314 . S
C15 C13 1.353 . S
C15 H71 0.930 . S
C16 N17 1.314 . S
C16 C21 1.353 . S
C16 H22 0.930 . S
N17 Li0 1.990 . S
N17 C16 1.314 . S
N17 C19 1.279 . S
C18 C19 1.358 . S
C18 C20 1.356 . S
C18 H72 0.930 . S
C19 N17 1.279 . S
C19 C18 1.358 . S
C19 H23 0.930 . S
C20 C18 1.356 . S
C20 C21 1.348 . S
C21 C16 1.353 . S
C21 C20 1.348 . S
C21 H73 0.929 . S
H22 C16 0.930 . S
H23 C19 0.930 . S
C24 N25 1.314 . S
C24 C26 1.353 . S
C24 H30 0.930 . S
N25 Li1 1.990 . S
N25 C24 1.314 . S
N25 C28 1.279 . S
C26 C24 1.353 . S
C26 C29 1.348 . S
C26 H74 0.929 . S
C27 C28 1.358 . S
C27 C29 1.356 . S
C27 H75 0.930 . S
C28 N25 1.279 . S
C28 C27 1.358 . S
C28 H31 0.930 . S
C29 C26 1.348 . S
C29 C27 1.356 . S
H30 C24 0.930 . S
H31 C28 0.930 . S
C32 C34 1.348 . S
C32 C35 1.356 . S
C32 O62 1.325 . S
N33 C36 1.314 . S
N33 C37 1.279 . S
C34 C32 1.348 . S
C34 C36 1.353 . S
C34 H76 0.929 . S
C35 C32 1.356 . S
C35 C37 1.358 . S
C35 H77 0.930 . S
C36 N33 1.314 . S
C36 C34 1.353 . S
C36 H78 0.930 . S
C37 N33 1.279 . S
C37 C35 1.358 . S
C37 H79 0.930 . S
C38 C39 1.348 . S
C38 C40 1.356 . S
C38 O63 1.325 . S
C39 C38 1.348 . S
C39 C41 1.353 . S
C39 H80 0.929 . S
C40 C38 1.356 . S
C40 C42 1.358 . S
C40 H81 0.930 . S
C41 C39 1.353 . S
C41 N43 1.314 . S
C41 H82 0.930 . S
C42 C40 1.358 . S
C42 N43 1.279 . S
C42 H83 0.930 . S
N43 C41 1.314 . S
N43 C42 1.279 . S
C44 C46 1.353 . S
C44 N47 1.314 . S
C44 H50 0.930 . S
C45 N47 1.279 . S
C45 C48 1.358 . S
C45 H51 0.930 . S
C46 C44 1.353 . S
C46 C49 1.348 . S
C46 H84 0.929 . S
N47 Li2 1.990 . S
N47 C44 1.314 . S
N47 C45 1.279 . S
C48 C45 1.358 . S
C48 C49 1.356 . S
C48 H85 0.930 . S
C49 C46 1.348 . S
C49 C48 1.356 . S
H50 C44 0.930 . S
H51 C45 0.930 . S
C52 N53 1.314 . S
C52 C54 1.353 . S
C52 H58 0.930 . S
N53 Li3 1.990 . S
N53 C52 1.314 . S
N53 C56 1.279 . S
C54 C52 1.353 . S
C54 C57 1.348 . S
C54 H86 0.929 . S
C55 C56 1.358 . S
C55 C57 1.356 . S
C55 H87 0.930 . S
C56 N53 1.279 . S
C56 C55 1.358 . S
C56 H59 0.930 . S
C57 C54 1.348 . S
C57 C55 1.356 . S
H58 C52 0.930 . S
H59 C56 0.930 . S
O60 Li0 1.956 . S
O60 Li1 1.970 . S
O60 Li2 1.961 . S
O60 C4 1.325 . S
O61 Li0 1.970 . S
O61 Li1 1.956 . S
O61 Li3 1.961 . S
O61 C10 1.325 . S
O62 Li0 1.961 . S
O62 Li2 1.956 . S
O62 Li3 1.970 . S
O62 C32 1.325 . S
O63 Li1 1.961 . S
O63 Li2 1.970 . S
O63 Li3 1.956 . S
O63 C38 1.325 . S
H64 C6 0.929 . S
H65 C7 0.930 . S
H66 C8 0.930 . S
H67 C9 0.930 . S
H68 C11 0.930 . S
H69 C13 0.929 . S
H70 C14 0.930 . S
H71 C15 0.930 . S
H72 C18 0.930 . S
H73 C21 0.929 . S
H74 C26 0.929 . S
H75 C27 0.930 . S
H76 C34 0.929 . S
H77 C35 0.930 . S
H78 C36 0.930 . S
H79 C37 0.930 . S
H80 C39 0.929 . S
H81 C40 0.930 . S
H82 C41 0.930 . S
H83 C42 0.930 . S
H84 C46 0.929 . S
H85 C48 0.930 . S
H86 C54 0.929 . S
H87 C55 0.930 . S
Li88 N105 1.990 . S
Li88 O148 1.956 . S
Li88 O149 1.970 . S
Li88 O150 1.961 1_455 S
Li89 N113 1.990 . S
Li89 O148 1.970 . S
Li89 O149 1.956 . S
Li89 O151 1.934 1_455 S
Li90 N135 1.990 . S
Li90 O148 1.961 1_655 S
Li90 O150 1.956 . S
Li90 O151 1.972 . S
Li91 N141 1.990 . S
Li91 O149 1.961 1_655 S
Li91 O150 1.970 . S
Li91 O151 1.994 . S
C92 C94 1.348 . S
C92 C95 1.356 . S
C92 O148 1.325 . S
N93 C96 1.314 . S
N93 C97 1.279 . S
C94 C92 1.348 . S
C94 C96 1.353 . S
C94 H152 0.929 . S
C95 C92 1.356 . S
C95 C97 1.358 . S
C95 H153 0.930 . S
C96 N93 1.314 . S
C96 C94 1.353 . S
C96 H154 0.930 . S
C97 N93 1.279 . S
C97 C95 1.358 . S
C97 H155 0.930 . S
C98 C101 1.348 . S
C98 C102 1.356 . S
C98 O149 1.325 . S
C99 N100 1.279 . S
C99 C102 1.358 . S
C99 H156 0.930 . S
N100 C99 1.279 . S
N100 C103 1.314 . S
C101 C98 1.348 . S
C101 C103 1.353 . S
C101 H157 0.929 . S
C102 C98 1.356 . S
C102 C99 1.358 . S
C102 H158 0.928 1_455 S
C103 N100 1.314 . S
C103 C101 1.353 . S
C103 H159 0.930 . S
C104 N105 1.314 1_655 S
C104 C109 1.353 . S
C104 H110 0.930 . S
N105 Li88 1.990 . S
N105 C104 1.314 1_455 S
N105 C107 1.279 . S
C106 C107 1.358 . S
C106 C108 1.356 . S
C106 H160 0.930 . S
C107 N105 1.279 . S
C107 C106 1.358 . S
C107 H111 0.930 . S
C108 C106 1.356 . S
C108 C109 1.348 1_455 S
C109 C104 1.353 . S
C109 C108 1.348 1_655 S
C109 H161 0.929 . S
H110 C104 0.930 . S
H111 C107 0.930 . S
C112 N113 1.314 . S
C112 C114 1.353 . S
C112 H118 0.930 . S
N113 Li89 1.990 . S
N113 C112 1.314 . S
N113 C116 1.279 . S
C114 C112 1.353 . S
C114 C117 1.348 . S
C114 H162 0.929 . S
C115 C116 1.358 . S
C115 C117 1.356 . S
C115 H163 0.930 . S
C116 N113 1.279 . S
C116 C115 1.358 . S
C116 H119 0.930 . S
C117 C114 1.348 . S
C117 C115 1.356 . S
H118 C112 0.930 . S
H119 C116 0.930 . S
C120 C122 1.348 . S
C120 C123 1.356 . S
C120 O150 1.325 . S
N121 C124 1.314 . S
N121 C125 1.279 . S
C122 C120 1.348 . S
C122 C124 1.353 . S
C122 H164 0.929 . S
C123 C120 1.356 . S
C123 C125 1.358 . S
C123 H165 0.930 . S
C124 N121 1.314 . S
C124 C122 1.353 . S
C124 H166 0.930 . S
C125 N121 1.279 . S
C125 C123 1.358 . S
C125 H167 0.930 . S
C126 C127 1.348 . S
C126 C128 1.356 1_655 S
C126 O151 1.323 . S
C127 C126 1.348 . S
C127 C129 1.353 . S
C127 H168 0.929 . S
C128 C126 1.356 1_455 S
C128 C130 1.358 . S
C128 H169 0.930 . S
C129 C127 1.353 . S
C129 N131 1.314 . S
C129 H170 0.930 . S
C130 C128 1.358 . S
C130 N131 1.278 1_455 S
C130 H171 0.933 . S
N131 C129 1.314 . S
N131 C130 1.278 1_655 S
C132 C134 1.353 . S
C132 N135 1.314 1_455 S
C132 H138 0.930 . S
C133 N135 1.279 . S
C133 C136 1.358 . S
C133 H139 0.930 . S
C134 C132 1.353 . S
C134 C137 1.348 1_455 S
C134 H172 0.929 . S
N135 Li90 1.990 . S
N135 C132 1.314 1_655 S
N135 C133 1.279 . S
C136 C133 1.358 . S
C136 C137 1.356 . S
C136 H173 0.930 . S
C137 C134 1.348 1_655 S
C137 C136 1.356 . S
H138 C132 0.930 . S
H139 C133 0.930 . S
C140 N141 1.314 . S
C140 C142 1.353 . S
C140 H146 0.930 . S
N141 Li91 1.990 . S
N141 C140 1.314 . S
N141 C144 1.279 . S
C142 C140 1.353 . S
C142 C145 1.348 . S
C142 H174 0.929 . S
C143 C144 1.358 . S
C143 C145 1.356 . S
C143 H175 0.930 . S
C144 N141 1.279 . S
C144 C143 1.358 . S
C144 H147 0.930 . S
C145 C142 1.348 . S
C145 C143 1.356 . S
H146 C140 0.930 . S
H147 C144 0.930 . S
O148 Li88 1.956 . S
O148 Li89 1.970 . S
O148 Li90 1.961 1_455 S
O148 C92 1.325 . S
O149 Li88 1.970 . S
O149 Li89 1.956 . S
O149 Li91 1.961 1_455 S
O149 C98 1.325 . S
O150 Li88 1.961 1_655 S
O150 Li90 1.956 . S
O150 Li91 1.970 . S
O150 C120 1.325 . S
O151 Li89 1.934 1_655 S
O151 Li90 1.972 . S
O151 Li91 1.994 . S
O151 C126 1.323 . S
H152 C94 0.929 . S
H153 C95 0.930 . S
H154 C96 0.930 . S
H155 C97 0.930 . S
H156 C99 0.930 . S
H157 C101 0.929 . S
H158 C102 0.928 1_655 S
H159 C103 0.930 . S
H160 C106 0.930 . S
H161 C109 0.929 . S
H162 C114 0.929 . S
H163 C115 0.930 . S
H164 C122 0.929 . S
H165 C123 0.930 . S
H166 C124 0.930 . S
H167 C125 0.930 . S
H168 C127 0.929 . S
H169 C128 0.930 . S
H170 C129 0.930 . S
H171 C130 0.933 . S
H172 C134 0.929 . S
H173 C136 0.930 . S
H174 C142 0.929 . S
H175 C143 0.930 . S
Li176 N193 1.990 . S
Li176 O236 1.956 . S
Li176 O237 1.970 . S
Li176 O238 1.961 . S
Li177 N201 1.990 . S
Li177 O236 1.970 . S
Li177 O237 1.956 . S
Li177 O239 1.961 . S
Li178 N223 1.990 . S
Li178 O236 1.961 . S
Li178 O238 1.956 . S
Li178 O239 1.970 . S
Li179 N229 1.990 . S
Li179 O237 1.961 . S
Li179 O238 1.970 . S
Li179 O239 1.956 . S
C180 C182 1.348 . S
C180 C183 1.356 . S
C180 O236 1.325 . S
N181 C184 1.314 . S
N181 C185 1.279 . S
C182 C180 1.348 . S
C182 C184 1.353 . S
C182 H240 0.929 . S
C183 C180 1.356 . S
C183 C185 1.358 . S
C183 H241 0.930 . S
C184 N181 1.314 . S
C184 C182 1.353 . S
C184 H242 0.930 . S
C185 N181 1.279 . S
C185 C183 1.358 . S
C185 H243 0.930 . S
C186 C189 1.348 . S
C186 C190 1.356 . S
C186 O237 1.325 . S
C187 N188 1.279 . S
C187 C190 1.358 . S
C187 H244 0.930 . S
N188 C187 1.279 . S
N188 C191 1.314 . S
C189 C186 1.348 . S
C189 C191 1.353 . S
C189 H245 0.929 . S
C190 C186 1.356 . S
C190 C187 1.358 . S
C190 H246 0.930 . S
C191 N188 1.314 . S
C191 C189 1.353 . S
C191 H247 0.930 . S
C192 N193 1.314 . S
C192 C197 1.353 . S
C192 H198 0.930 . S
N193 Li176 1.990 . S
N193 C192 1.314 . S
N193 C195 1.279 . S
C194 C195 1.358 . S
C194 C196 1.356 . S
C194 H248 0.930 . S
C195 N193 1.279 . S
C195 C194 1.358 . S
C195 H199 0.930 . S
C196 C194 1.356 . S
C196 C197 1.348 . S
C197 C192 1.353 . S
C197 C196 1.348 . S
C197 H249 0.929 . S
H198 C192 0.930 . S
H199 C195 0.930 . S
C200 N201 1.314 . S
C200 C202 1.353 . S
C200 H206 0.930 . S
N201 Li177 1.990 . S
N201 C200 1.314 . S
N201 C204 1.279 . S
C202 C200 1.353 . S
C202 C205 1.348 . S
C202 H250 0.929 . S
C203 C204 1.358 . S
C203 C205 1.356 . S
C203 H251 0.930 . S
C204 N201 1.279 . S
C204 C203 1.358 . S
C204 H207 0.930 . S
C205 C202 1.348 . S
C205 C203 1.356 . S
H206 C200 0.930 . S
H207 C204 0.930 . S
C208 C210 1.348 . S
C208 C211 1.356 . S
C208 O238 1.325 . S
N209 C212 1.314 . S
N209 C213 1.279 . S
C210 C208 1.348 . S
C210 C212 1.353 . S
C210 H252 0.929 . S
C211 C208 1.356 . S
C211 C213 1.358 . S
C211 H253 0.930 . S
C212 N209 1.314 . S
C212 C210 1.353 . S
C212 H254 0.930 . S
C213 N209 1.279 . S
C213 C211 1.358 . S
C213 H255 0.930 . S
C214 C215 1.348 . S
C214 C216 1.356 . S
C214 O239 1.325 . S
C215 C214 1.348 . S
C215 C217 1.353 . S
C215 H256 0.929 . S
C216 C214 1.356 . S
C216 C218 1.358 . S
C216 H257 0.930 . S
C217 C215 1.353 . S
C217 N219 1.314 . S
C217 H258 0.930 . S
C218 C216 1.358 . S
C218 N219 1.279 . S
C218 H259 0.930 . S
N219 C217 1.314 . S
N219 C218 1.279 . S
C220 C222 1.353 . S
C220 N223 1.314 . S
C220 H226 0.930 . S
C221 N223 1.279 . S
C221 C224 1.358 . S
C221 H227 0.930 . S
C222 C220 1.353 . S
C222 C225 1.348 . S
C222 H260 0.929 . S
N223 Li178 1.990 . S
N223 C220 1.314 . S
N223 C221 1.279 . S
C224 C221 1.358 . S
C224 C225 1.356 . S
C224 H261 0.930 . S
C225 C222 1.348 . S
C225 C224 1.356 . S
H226 C220 0.930 . S
H227 C221 0.930 . S
C228 N229 1.314 . S
C228 C230 1.353 . S
C228 H234 0.930 . S
N229 Li179 1.990 . S
N229 C228 1.314 . S
N229 C232 1.279 . S
C230 C228 1.353 . S
C230 C233 1.348 . S
C230 H262 0.929 . S
C231 C232 1.358 . S
C231 C233 1.356 . S
C231 H263 0.930 . S
C232 N229 1.279 . S
C232 C231 1.358 . S
C232 H235 0.930 . S
C233 C230 1.348 . S
C233 C231 1.356 . S
H234 C228 0.930 . S
H235 C232 0.930 . S
O236 Li176 1.956 . S
O236 Li177 1.970 . S
O236 Li178 1.961 . S
O236 C180 1.325 . S
O237 Li176 1.970 . S
O237 Li177 1.956 . S
O237 Li179 1.961 . S
O237 C186 1.325 . S
O238 Li176 1.961 . S
O238 Li178 1.956 . S
O238 Li179 1.970 . S
O238 C208 1.325 . S
O239 Li177 1.961 . S
O239 Li178 1.970 . S
O239 Li179 1.956 . S
O239 C214 1.325 . S
H240 C182 0.929 . S
H241 C183 0.930 . S
H242 C184 0.930 . S
H243 C185 0.930 . S
H244 C187 0.930 . S
H245 C189 0.929 . S
H246 C190 0.930 . S
H247 C191 0.930 . S
H248 C194 0.930 . S
H249 C197 0.929 . S
H250 C202 0.929 . S
H251 C203 0.930 . S
H252 C210 0.929 . S
H253 C211 0.930 . S
H254 C212 0.930 . S
H255 C213 0.930 . S
H256 C215 0.929 . S
H257 C216 0.930 . S
H258 C217 0.930 . S
H259 C218 0.930 . S
H260 C222 0.929 . S
H261 C224 0.930 . S
H262 C230 0.929 . S
H263 C231 0.930 . S
Li264 N281 1.990 . S
Li264 O324 1.956 . S
Li264 O325 1.970 . S
Li264 O326 1.961 . S
Li265 N289 1.990 . S
Li265 O324 1.970 . S
Li265 O325 1.956 . S
Li265 O327 1.961 . S
Li266 N311 1.990 . S
Li266 O324 1.961 . S
Li266 O326 1.956 . S
Li266 O327 1.970 . S
Li267 N317 1.990 . S
Li267 O325 1.961 . S
Li267 O326 1.970 . S
Li267 O327 1.956 . S
C268 C270 1.348 . S
C268 C271 1.356 . S
C268 O324 1.325 . S
N269 C272 1.314 . S
N269 C273 1.279 . S
C270 C268 1.348 . S
C270 C272 1.353 . S
C270 H328 0.929 . S
C271 C268 1.356 . S
C271 C273 1.358 . S
C271 H329 0.930 . S
C272 N269 1.314 . S
C272 C270 1.353 . S
C272 H330 0.930 . S
C273 N269 1.279 . S
C273 C271 1.358 . S
C273 H331 0.930 . S
C274 C277 1.348 . S
C274 C278 1.356 . S
C274 O325 1.325 . S
C275 N276 1.279 . S
C275 C278 1.358 . S
C275 H332 0.930 . S
N276 C275 1.279 . S
N276 C279 1.314 . S
C277 C274 1.348 . S
C277 C279 1.353 . S
C277 H333 0.929 . S
C278 C274 1.356 . S
C278 C275 1.358 . S
C278 H334 0.930 . S
C279 N276 1.314 . S
C279 C277 1.353 . S
C279 H335 0.930 . S
C280 N281 1.314 . S
C280 C285 1.353 . S
C280 H286 0.930 . S
N281 Li264 1.990 . S
N281 C280 1.314 . S
N281 C283 1.279 . S
C282 C283 1.358 . S
C282 C284 1.356 . S
C282 H336 0.930 . S
C283 N281 1.279 . S
C283 C282 1.358 . S
C283 H287 0.930 . S
C284 C282 1.356 . S
C284 C285 1.348 . S
C285 C280 1.353 . S
C285 C284 1.348 . S
C285 H337 0.929 . S
H286 C280 0.930 . S
H287 C283 0.930 . S
C288 N289 1.314 . S
C288 C290 1.353 . S
C288 H294 0.930 . S
N289 Li265 1.990 . S
N289 C288 1.314 . S
N289 C292 1.279 . S
C290 C288 1.353 . S
C290 C293 1.348 . S
C290 H338 0.929 . S
C291 C292 1.358 . S
C291 C293 1.356 . S
C291 H339 0.930 . S
C292 N289 1.279 . S
C292 C291 1.358 . S
C292 H295 0.930 . S
C293 C290 1.348 . S
C293 C291 1.356 . S
H294 C288 0.930 . S
H295 C292 0.930 . S
C296 C298 1.348 . S
C296 C299 1.356 . S
C296 O326 1.325 . S
N297 C300 1.314 . S
N297 C301 1.279 . S
C298 C296 1.348 . S
C298 C300 1.353 . S
C298 H340 0.929 . S
C299 C296 1.356 . S
C299 C301 1.358 . S
C299 H341 0.930 . S
C300 N297 1.314 . S
C300 C298 1.353 . S
C300 H342 0.930 . S
C301 N297 1.279 . S
C301 C299 1.358 . S
C301 H343 0.930 . S
C302 C303 1.348 . S
C302 C304 1.356 . S
C302 O327 1.325 . S
C303 C302 1.348 . S
C303 C305 1.353 . S
C303 H344 0.929 . S
C304 C302 1.356 . S
C304 C306 1.358 . S
C304 H345 0.930 . S
C305 C303 1.353 . S
C305 N307 1.314 . S
C305 H346 0.930 . S
C306 C304 1.358 . S
C306 N307 1.279 . S
C306 H347 0.930 . S
N307 C305 1.314 . S
N307 C306 1.279 . S
C308 C310 1.353 . S
C308 N311 1.314 . S
C308 H314 0.930 . S
C309 N311 1.279 . S
C309 C312 1.358 . S
C309 H315 0.930 . S
C310 C308 1.353 . S
C310 C313 1.348 . S
C310 H348 0.929 . S
N311 Li266 1.990 . S
N311 C308 1.314 . S
N311 C309 1.279 . S
C312 C309 1.358 . S
C312 C313 1.356 . S
C312 H349 0.930 . S
C313 C310 1.348 . S
C313 C312 1.356 . S
H314 C308 0.930 . S
H315 C309 0.930 . S
C316 N317 1.314 . S
C316 C318 1.353 . S
C316 H322 0.930 . S
N317 Li267 1.990 . S
N317 C316 1.314 . S
N317 C320 1.279 . S
C318 C316 1.353 . S
C318 C321 1.348 . S
C318 H350 0.929 . S
C319 C320 1.358 . S
C319 C321 1.356 . S
C319 H351 0.930 . S
C320 N317 1.279 . S
C320 C319 1.358 . S
C320 H323 0.930 . S
C321 C318 1.348 . S
C321 C319 1.356 . S
H322 C316 0.930 . S
H323 C320 0.930 . S
O324 Li264 1.956 . S
O324 Li265 1.970 . S
O324 Li266 1.961 . S
O324 C268 1.325 . S
O325 Li264 1.970 . S
O325 Li265 1.956 . S
O325 Li267 1.961 . S
O325 C274 1.325 . S
O326 Li264 1.961 . S
O326 Li266 1.956 . S
O326 Li267 1.970 . S
O326 C296 1.325 . S
O327 Li265 1.961 . S
O327 Li266 1.970 . S
O327 Li267 1.956 . S
O327 C302 1.325 . S
H328 C270 0.929 . S
H329 C271 0.930 . S
H330 C272 0.930 . S
H331 C273 0.930 . S
H332 C275 0.930 . S
H333 C277 0.929 . S
H334 C278 0.930 . S
H335 C279 0.930 . S
H336 C282 0.930 . S
H337 C285 0.929 . S
H338 C290 0.929 . S
H339 C291 0.930 . S
H340 C298 0.929 . S
H341 C299 0.930 . S
H342 C300 0.930 . S
H343 C301 0.930 . S
H344 C303 0.929 . S
H345 C304 0.930 . S
H346 C305 0.930 . S
H347 C306 0.930 . S
H348 C310 0.929 . S
H349 C312 0.930 . S
H350 C318 0.929 . S
H351 C319 0.930 . S
Li352 N369 1.990 . S
Li352 O412 1.956 . S
Li352 O413 1.970 . S
Li352 O414 1.961 . S
Li353 N377 1.990 . S
Li353 O412 1.970 . S
Li353 O413 1.956 . S
Li353 O415 1.961 . S
Li354 N399 1.990 . S
Li354 O412 1.961 . S
Li354 O414 1.956 . S
Li354 O415 1.970 . S
Li355 N405 1.990 . S
Li355 O413 1.961 . S
Li355 O414 1.970 . S
Li355 O415 1.956 . S
C356 C358 1.348 . S
C356 C359 1.356 . S
C356 O412 1.325 . S
N357 C360 1.314 . S
N357 C361 1.279 . S
C358 C356 1.348 . S
C358 C360 1.353 . S
C358 H416 0.929 . S
C359 C356 1.356 . S
C359 C361 1.358 . S
C359 H417 0.930 . S
C360 N357 1.314 . S
C360 C358 1.353 . S
C360 H418 0.930 . S
C361 N357 1.279 . S
C361 C359 1.358 . S
C361 H419 0.930 . S
C362 C365 1.348 . S
C362 C366 1.356 . S
C362 O413 1.325 . S
C363 N364 1.279 . S
C363 C366 1.358 . S
C363 H420 0.930 . S
N364 C363 1.279 . S
N364 C367 1.314 . S
C365 C362 1.348 . S
C365 C367 1.353 . S
C365 H421 0.929 . S
C366 C362 1.356 . S
C366 C363 1.358 . S
C366 H422 0.930 . S
C367 N364 1.314 . S
C367 C365 1.353 . S
C367 H423 0.930 . S
C368 N369 1.314 . S
C368 C373 1.353 . S
C368 H374 0.930 . S
N369 Li352 1.990 . S
N369 C368 1.314 . S
N369 C371 1.279 . S
C370 C371 1.358 . S
C370 C372 1.356 . S
C370 H424 0.930 . S
C371 N369 1.279 . S
C371 C370 1.358 . S
C371 H375 0.930 . S
C372 C370 1.356 . S
C372 C373 1.348 . S
C373 C368 1.353 . S
C373 C372 1.348 . S
C373 H425 0.929 . S
H374 C368 0.930 . S
H375 C371 0.930 . S
C376 N377 1.314 . S
C376 C378 1.353 . S
C376 H382 0.930 . S
N377 Li353 1.990 . S
N377 C376 1.314 . S
N377 C380 1.279 . S
C378 C376 1.353 . S
C378 C381 1.348 . S
C378 H426 0.929 . S
C379 C380 1.358 . S
C379 C381 1.356 . S
C379 H427 0.930 . S
C380 N377 1.279 . S
C380 C379 1.358 . S
C380 H383 0.930 . S
C381 C378 1.348 . S
C381 C379 1.356 . S
H382 C376 0.930 . S
H383 C380 0.930 . S
C384 C386 1.348 . S
C384 C387 1.356 . S
C384 O414 1.325 . S
N385 C388 1.314 . S
N385 C389 1.279 . S
C386 C384 1.348 . S
C386 C388 1.353 . S
C386 H428 0.929 . S
C387 C384 1.356 . S
C387 C389 1.358 . S
C387 H429 0.930 . S
C388 N385 1.314 . S
C388 C386 1.353 . S
C388 H430 0.879 1_455 S
C389 N385 1.279 . S
C389 C387 1.358 . S
C389 H431 0.930 . S
C390 C391 1.348 . S
C390 C392 1.356 . S
C390 O415 1.325 . S
C391 C390 1.348 . S
C391 C393 1.353 . S
C391 H432 0.929 . S
C392 C390 1.356 . S
C392 C394 1.358 . S
C392 H433 0.930 . S
C393 C391 1.353 . S
C393 N395 1.314 . S
C393 H434 0.930 . S
C394 C392 1.358 . S
C394 N395 1.279 . S
C394 H435 0.930 . S
N395 C393 1.314 . S
N395 C394 1.279 . S
C396 C398 1.353 . S
C396 N399 1.314 . S
C396 H402 0.930 . S
C397 N399 1.279 . S
C397 C400 1.358 . S
C397 H403 0.930 . S
C398 C396 1.353 . S
C398 C401 1.348 . S
C398 H436 0.929 . S
N399 Li354 1.990 . S
N399 C396 1.314 . S
N399 C397 1.279 . S
C400 C397 1.358 . S
C400 C401 1.356 . S
C400 H437 0.930 . S
C401 C398 1.348 . S
C401 C400 1.356 . S
H402 C396 0.930 . S
H403 C397 0.930 . S
C404 N405 1.314 . S
C404 C406 1.353 . S
C404 H410 0.930 . S
N405 Li355 1.990 . S
N405 C404 1.314 . S
N405 C408 1.279 . S
C406 C404 1.353 . S
C406 C409 1.348 . S
C406 H438 0.929 . S
C407 C408 1.358 . S
C407 C409 1.356 . S
C407 H439 0.930 . S
C408 N405 1.279 . S
C408 C407 1.358 . S
C408 H411 0.930 . S
C409 C406 1.348 . S
C409 C407 1.356 . S
H410 C404 0.930 . S
H411 C408 0.930 . S
O412 Li352 1.956 . S
O412 Li353 1.970 . S
O412 Li354 1.961 . S
O412 C356 1.325 . S
O413 Li352 1.970 . S
O413 Li353 1.956 . S
O413 Li355 1.961 . S
O413 C362 1.325 . S
O414 Li352 1.961 . S
O414 Li354 1.956 . S
O414 Li355 1.970 . S
O414 C384 1.325 . S
O415 Li353 1.961 . S
O415 Li354 1.970 . S
O415 Li355 1.956 . S
O415 C390 1.325 . S
H416 C358 0.929 . S
H417 C359 0.930 . S
H418 C360 0.930 . S
H419 C361 0.930 . S
H420 C363 0.930 . S
H421 C365 0.929 . S
H422 C366 0.930 . S
H423 C367 0.930 . S
H424 C370 0.930 . S
H425 C373 0.929 . S
H426 C378 0.929 . S
H427 C379 0.930 . S
H428 C386 0.929 . S
H429 C387 0.930 . S
H430 C388 0.879 1_655 S
H431 C389 0.930 . S
H432 C391 0.929 . S
H433 C392 0.930 . S
H434 C393 0.930 . S
H435 C394 0.930 . S
H436 C398 0.929 . S
H437 C400 0.930 . S
H438 C406 0.929 . S
H439 C407 0.930 . S
Li440 N457 1.990 . S
Li440 O500 1.956 . S
Li440 O501 1.970 . S
Li440 O502 1.961 . S
Li441 N465 1.990 . S
Li441 O500 1.970 . S
Li441 O501 1.956 . S
Li441 O503 1.961 . S
Li442 N487 1.990 . S
Li442 O500 1.961 . S
Li442 O502 1.956 . S
Li442 O503 1.970 . S
Li443 N493 1.990 . S
Li443 O501 1.961 . S
Li443 O502 1.970 . S
Li443 O503 1.956 . S
C444 C446 1.348 . S
C444 C447 1.356 . S
C444 O500 1.325 . S
N445 C448 1.314 . S
N445 C449 1.279 . S
C446 C444 1.348 . S
C446 C448 1.353 . S
C446 H504 0.929 . S
C447 C444 1.356 . S
C447 C449 1.358 . S
C447 H505 0.930 . S
C448 N445 1.314 . S
C448 C446 1.353 . S
C448 H506 0.930 . S
C449 N445 1.279 . S
C449 C447 1.358 . S
C449 H507 0.930 . S
C450 C453 1.348 . S
C450 C454 1.356 . S
C450 O501 1.325 . S
C451 N452 1.279 . S
C451 C454 1.358 . S
C451 H508 0.930 . S
N452 C451 1.279 . S
N452 C455 1.314 . S
C453 C450 1.348 . S
C453 C455 1.353 . S
C453 H509 0.929 . S
C454 C450 1.356 . S
C454 C451 1.358 . S
C454 H510 0.930 . S
C455 N452 1.314 . S
C455 C453 1.353 . S
C455 H511 0.930 . S
C456 N457 1.314 . S
C456 C461 1.353 . S
C456 H462 0.930 . S
N457 Li440 1.990 . S
N457 C456 1.314 . S
N457 C459 1.279 . S
C458 C459 1.358 . S
C458 C460 1.356 . S
C458 H512 0.930 . S
C459 N457 1.279 . S
C459 C458 1.358 . S
C459 H463 0.930 . S
C460 C458 1.356 . S
C460 C461 1.348 . S
C461 C456 1.353 . S
C461 C460 1.348 . S
C461 H513 0.929 . S
H462 C456 0.930 . S
H463 C459 0.930 . S
C464 N465 1.314 . S
C464 C466 1.353 . S
C464 H470 0.930 . S
N465 Li441 1.990 . S
N465 C464 1.314 . S
N465 C468 1.279 . S
C466 C464 1.353 . S
C466 C469 1.348 . S
C466 H514 0.929 . S
C467 C468 1.358 . S
C467 C469 1.356 . S
C467 H515 0.930 . S
C468 N465 1.279 . S
C468 C467 1.358 . S
C468 H471 0.930 . S
C469 C466 1.348 . S
C469 C467 1.356 . S
H470 C464 0.930 . S
H471 C468 0.930 . S
C472 C474 1.348 . S
C472 C475 1.356 . S
C472 O502 1.325 . S
N473 C476 1.314 . S
N473 C477 1.279 . S
C474 C472 1.348 . S
C474 C476 1.353 . S
C474 H516 0.929 . S
C475 C472 1.356 . S
C475 C477 1.358 . S
C475 H517 0.930 . S
C476 N473 1.314 . S
C476 C474 1.353 . S
C476 H518 0.930 . S
C477 N473 1.279 . S
C477 C475 1.358 . S
C477 H519 0.930 . S
C478 C479 1.348 . S
C478 C480 1.356 . S
C478 O503 1.325 . S
C479 C478 1.348 . S
C479 C481 1.353 . S
C479 H520 0.929 . S
C480 C478 1.356 . S
C480 C482 1.358 . S
C480 H521 0.930 . S
C481 C479 1.353 . S
C481 N483 1.314 . S
C481 H522 0.930 . S
C482 C480 1.358 . S
C482 N483 1.279 . S
C482 H523 0.930 . S
N483 C481 1.314 . S
N483 C482 1.279 . S
C484 C486 1.353 . S
C484 N487 1.314 . S
C484 H490 0.930 . S
C485 N487 1.279 . S
C485 C488 1.358 . S
C485 H491 0.930 . S
C486 C484 1.353 . S
C486 C489 1.348 . S
C486 H524 0.929 . S
N487 Li442 1.990 . S
N487 C484 1.314 . S
N487 C485 1.279 . S
C488 C485 1.358 . S
C488 C489 1.356 . S
C488 H525 0.930 . S
C489 C486 1.348 . S
C489 C488 1.356 . S
H490 C484 0.930 . S
H491 C485 0.930 . S
C492 N493 1.314 . S
C492 C494 1.353 . S
C492 H498 0.930 . S
N493 Li443 1.990 . S
N493 C492 1.314 . S
N493 C496 1.279 . S
C494 C492 1.353 . S
C494 C497 1.348 . S
C494 H526 0.929 . S
C495 C496 1.358 . S
C495 C497 1.356 . S
C495 H527 0.930 . S
C496 N493 1.279 . S
C496 C495 1.358 . S
C496 H499 0.930 . S
C497 C494 1.348 . S
C497 C495 1.356 . S
H498 C492 0.930 . S
H499 C496 0.930 . S
O500 Li440 1.956 . S
O500 Li441 1.970 . S
O500 Li442 1.961 . S
O500 C444 1.325 . S
O501 Li440 1.970 . S
O501 Li441 1.956 . S
O501 Li443 1.961 . S
O501 C450 1.325 . S
O502 Li440 1.961 . S
O502 Li442 1.956 . S
O502 Li443 1.970 . S
O502 C472 1.325 . S
O503 Li441 1.961 . S
O503 Li442 1.970 . S
O503 Li443 1.956 . S
O503 C478 1.325 . S
H504 C446 0.929 . S
H505 C447 0.930 . S
H506 C448 0.930 . S
H507 C449 0.930 . S
H508 C451 0.930 . S
H509 C453 0.929 . S
H510 C454 0.930 . S
H511 C455 0.930 . S
H512 C458 0.930 . S
H513 C461 0.929 . S
H514 C466 0.929 . S
H515 C467 0.930 . S
H516 C474 0.929 . S
H517 C475 0.930 . S
H518 C476 0.930 . S
H519 C477 0.930 . S
H520 C479 0.929 . S
H521 C480 0.930 . S
H522 C481 0.930 . S
H523 C482 0.930 . S
H524 C486 0.929 . S
H525 C488 0.930 . S
H526 C494 0.929 . S
H527 C495 0.930 . S
Li528 N545 1.990 . S
Li528 O588 1.956 . S
Li528 O589 1.970 . S
Li528 O590 1.961 . S
Li529 N553 1.990 . S
Li529 O588 1.970 . S
Li529 O589 1.956 . S
Li529 O591 1.961 . S
Li530 N575 1.990 . S
Li530 O588 1.961 . S
Li530 O590 1.956 . S
Li530 O591 1.970 . S
Li531 N581 1.990 . S
Li531 O589 1.961 . S
Li531 O590 1.970 . S
Li531 O591 1.956 . S
C532 C534 1.348 . S
C532 C535 1.356 . S
C532 O588 1.325 . S
N533 C536 1.314 . S
N533 C537 1.279 . S
C534 C532 1.348 . S
C534 C536 1.353 . S
C534 H592 0.929 . S
C535 C532 1.356 . S
C535 C537 1.358 . S
C535 H593 0.930 . S
C536 N533 1.314 . S
C536 C534 1.353 . S
C536 H594 0.930 . S
C537 N533 1.279 . S
C537 C535 1.358 . S
C537 H595 0.930 . S
C538 C541 1.348 . S
C538 C542 1.356 . S
C538 O589 1.325 . S
C539 N540 1.279 . S
C539 C542 1.358 . S
C539 H596 0.930 . S
N540 C539 1.279 . S
N540 C543 1.314 . S
C541 C538 1.348 . S
C541 C543 1.353 . S
C541 H597 0.929 . S
C542 C538 1.356 . S
C542 C539 1.358 . S
C542 H598 0.930 . S
C543 N540 1.314 . S
C543 C541 1.353 . S
C543 H599 0.930 . S
C544 N545 1.314 . S
C544 C549 1.353 . S
C544 H550 0.930 . S
N545 Li528 1.990 . S
N545 C544 1.314 . S
N545 C547 1.279 . S
C546 C547 1.358 . S
C546 C548 1.356 . S
C546 H600 0.930 . S
C547 N545 1.279 . S
C547 C546 1.358 . S
C547 H551 0.930 . S
C548 C546 1.356 . S
C548 C549 1.348 . S
C549 C544 1.353 . S
C549 C548 1.348 . S
C549 H601 0.929 . S
H550 C544 0.930 . S
H551 C547 0.930 . S
C552 N553 1.314 . S
C552 C554 1.353 . S
C552 H558 0.930 . S
N553 Li529 1.990 . S
N553 C552 1.314 . S
N553 C556 1.279 . S
C554 C552 1.353 . S
C554 C557 1.348 . S
C554 H602 0.929 . S
C555 C556 1.358 . S
C555 C557 1.356 . S
C555 H603 0.930 . S
C556 N553 1.279 . S
C556 C555 1.358 . S
C556 H559 0.930 . S
C557 C554 1.348 . S
C557 C555 1.356 . S
H558 C552 0.930 . S
H559 C556 0.930 . S
C560 C562 1.348 . S
C560 C563 1.356 . S
C560 O590 1.325 . S
N561 C564 1.314 . S
N561 C565 1.279 . S
C562 C560 1.348 . S
C562 C564 1.353 . S
C562 H604 0.929 . S
C563 C560 1.356 . S
C563 C565 1.358 . S
C563 H605 0.930 . S
C564 N561 1.314 . S
C564 C562 1.353 . S
C564 H606 0.930 . S
C565 N561 1.279 . S
C565 C563 1.358 . S
C565 H607 0.930 . S
C566 C567 1.348 . S
C566 C568 1.356 . S
C566 O591 1.325 . S
C567 C566 1.348 . S
C567 C569 1.353 . S
C567 H608 0.929 . S
C568 C566 1.356 . S
C568 C570 1.358 . S
C568 H609 0.930 . S
C569 C567 1.353 . S
C569 N571 1.314 . S
C569 H610 0.930 . S
C570 C568 1.358 . S
C570 N571 1.279 . S
C570 H611 0.930 . S
N571 C569 1.314 . S
N571 C570 1.279 . S
C572 C574 1.353 . S
C572 N575 1.314 . S
C572 H578 0.930 . S
C573 N575 1.279 . S
C573 C576 1.358 . S
C573 H579 0.930 . S
C574 C572 1.353 . S
C574 C577 1.348 . S
C574 H612 0.929 . S
N575 Li530 1.990 . S
N575 C572 1.314 . S
N575 C573 1.279 . S
C576 C573 1.358 . S
C576 C577 1.356 . S
C576 H613 0.930 . S
C577 C574 1.348 . S
C577 C576 1.356 . S
H578 C572 0.930 . S
H579 C573 0.930 . S
C580 N581 1.314 . S
C580 C582 1.353 . S
C580 H586 0.930 . S
N581 Li531 1.990 . S
N581 C580 1.314 . S
N581 C584 1.279 . S
C582 C580 1.353 . S
C582 C585 1.348 . S
C582 H614 0.929 . S
C583 C584 1.358 . S
C583 C585 1.356 . S
C583 H615 0.930 . S
C584 N581 1.279 . S
C584 C583 1.358 . S
C584 H587 0.930 . S
C585 C582 1.348 . S
C585 C583 1.356 . S
H586 C580 0.930 . S
H587 C584 0.930 . S
O588 Li528 1.956 . S
O588 Li529 1.970 . S
O588 Li530 1.961 . S
O588 C532 1.325 . S
O589 Li528 1.970 . S
O589 Li529 1.956 . S
O589 Li531 1.961 . S
O589 C538 1.325 . S
O590 Li528 1.961 . S
O590 Li530 1.956 . S
O590 Li531 1.970 . S
O590 C560 1.325 . S
O591 Li529 1.961 . S
O591 Li530 1.970 . S
O591 Li531 1.956 . S
O591 C566 1.325 . S
H592 C534 0.929 . S
H593 C535 0.930 . S
H594 C536 0.930 . S
H595 C537 0.930 . S
H596 C539 0.930 . S
H597 C541 0.929 . S
H598 C542 0.930 . S
H599 C543 0.930 . S
H600 C546 0.930 . S
H601 C549 0.929 . S
H602 C554 0.929 . S
H603 C555 0.930 . S
H604 C562 0.929 . S
H605 C563 0.930 . S
H606 C564 0.930 . S
H607 C565 0.930 . S
H608 C567 0.929 . S
H609 C568 0.930 . S
H610 C569 0.930 . S
H611 C570 0.930 . S
H612 C574 0.929 . S
H613 C576 0.930 . S
H614 C582 0.929 . S
H615 C583 0.930 . S
Li616 N633 1.990 . S
Li616 O676 1.944 1_455 S
Li616 O677 1.970 . S
Li616 O678 1.961 . S
Li617 N641 1.972 1_455 S
Li617 O676 1.967 1_455 S
Li617 O677 1.970 . S
Li617 O679 1.978 . S
Li618 N663 1.990 . S
Li618 O676 1.946 1_455 S
Li618 O678 1.956 . S
Li618 O679 1.970 . S
Li619 N669 1.990 . S
Li619 O677 1.961 . S
Li619 O678 1.970 . S
Li619 O679 1.956 . S
C620 C622 1.348 . S
C620 C623 1.356 . S
C620 O676 1.340 . S
N621 C624 1.314 . S
N621 C625 1.297 . S
C622 C620 1.348 . S
C622 C624 1.353 . S
C622 H680 0.929 . S
C623 C620 1.356 . S
C623 C625 1.393 . S
C623 H681 0.930 . S
C624 N621 1.314 . S
C624 C622 1.353 . S
C624 H682 0.930 . S
C625 N621 1.297 . S
C625 C623 1.393 . S
C625 H683 0.875 1_556 S
C626 C629 1.348 . S
C626 C630 1.356 . S
C626 O677 1.325 . S
C627 N628 1.279 . S
C627 C630 1.358 . S
C627 H684 0.930 . S
N628 C627 1.279 . S
N628 C631 1.314 . S
C629 C626 1.348 . S
C629 C631 1.353 . S
C629 H685 0.929 . S
C630 C626 1.356 . S
C630 C627 1.358 . S
C630 H686 0.930 . S
C631 N628 1.314 . S
C631 C629 1.353 . S
C631 H687 0.930 . S
C632 N633 1.314 . S
C632 C637 1.353 . S
C632 H638 0.930 . S
N633 Li616 1.990 . S
N633 C632 1.314 . S
N633 C635 1.279 . S
C634 C635 1.358 1_554 S
C634 C636 1.356 . S
C634 H688 0.930 . S
C635 N633 1.279 . S
C635 C634 1.358 1_556 S
C635 H639 0.934 . S
C636 C634 1.356 . S
C636 C637 1.348 1_554 S
C637 C632 1.353 . S
C637 C636 1.348 1_556 S
C637 H689 0.929 . S
H638 C632 0.930 . S
H639 C635 0.934 . S
C640 N641 1.314 . S
C640 C642 1.353 . S
C640 H646 0.930 . S
N641 Li617 1.972 1_655 S
N641 C640 1.314 . S
N641 C644 1.279 . S
C642 C640 1.353 . S
C642 C645 1.348 . S
C642 H690 0.929 . S
C643 C644 1.358 . S
C643 C645 1.356 . S
C643 H691 0.930 . S
C644 N641 1.279 . S
C644 C643 1.358 . S
C644 H647 0.930 . S
C645 C642 1.348 . S
C645 C643 1.356 . S
H646 C640 0.930 . S
H647 C644 0.930 . S
C648 C650 1.348 . S
C648 C651 1.356 . S
C648 O678 1.325 . S
N649 C652 1.314 . S
N649 C653 1.279 1_556 S
C650 C648 1.348 . S
C650 C652 1.353 . S
C650 H692 0.929 . S
C651 C648 1.356 . S
C651 C653 1.358 1_556 S
C651 H693 0.930 . S
C652 N649 1.314 . S
C652 C650 1.353 . S
C652 H694 0.930 . S
C653 N649 1.279 1_554 S
C653 C651 1.358 1_554 S
C653 H695 0.930 . S
C654 C655 1.348 . S
C654 C656 1.356 . S
C654 O679 1.325 . S
C655 C654 1.348 . S
C655 C657 1.353 . S
C655 H696 0.929 . S
C656 C654 1.356 . S
C656 C658 1.358 . S
C656 H697 0.930 . S
C657 C655 1.353 . S
C657 N659 1.314 . S
C657 H698 0.930 . S
C658 C656 1.358 . S
C658 N659 1.279 . S
C658 H699 0.930 . S
N659 C657 1.314 . S
N659 C658 1.279 . S
C660 C662 1.353 1_455 S
C660 N663 1.314 . S
C660 H666 0.930 1_455 S
C661 N663 1.279 . S
C661 C664 1.358 . S
C661 H667 0.930 . S
C662 C660 1.353 1_655 S
C662 C665 1.348 1_655 S
C662 H700 0.929 . S
N663 Li618 1.990 . S
N663 C660 1.314 . S
N663 C661 1.279 . S
C664 C661 1.358 . S
C664 C665 1.356 . S
C664 H701 0.952 . S
C665 C662 1.348 1_455 S
C665 C664 1.356 . S
H666 C660 0.930 1_655 S
H667 C661 0.930 . S
C668 N669 1.314 . S
C668 C670 1.353 . S
C668 H674 0.930 . S
N669 Li619 1.990 . S
N669 C668 1.314 . S
N669 C672 1.279 . S
C670 C668 1.353 . S
C670 C673 1.348 . S
C670 H702 0.929 . S
C671 C672 1.358 . S
C671 C673 1.356 . S
C671 H703 0.930 . S
C672 N669 1.279 . S
C672 C671 1.358 . S
C672 H675 0.930 . S
C673 C670 1.348 . S
C673 C671 1.356 . S
H674 C668 0.930 . S
H675 C672 0.930 . S
O676 Li616 1.944 1_655 S
O676 Li617 1.967 1_655 S
O676 Li618 1.946 1_655 S
O676 C620 1.340 . S
O677 Li616 1.970 . S
O677 Li617 1.970 . S
O677 Li619 1.961 . S
O677 C626 1.325 . S
O678 Li616 1.961 . S
O678 Li618 1.956 . S
O678 Li619 1.970 . S
O678 C648 1.325 . S
O679 Li617 1.978 . S
O679 Li618 1.970 . S
O679 Li619 1.956 . S
O679 C654 1.325 . S
H680 C622 0.929 . S
H681 C623 0.930 . S
H682 C624 0.930 . S
H683 C625 0.875 1_554 S
H684 C627 0.930 . S
H685 C629 0.929 . S
H686 C630 0.930 . S
H687 C631 0.930 . S
H688 C634 0.930 . S
H689 C637 0.929 . S
H690 C642 0.929 . S
H691 C643 0.930 . S
H692 C650 0.929 . S
H693 C651 0.930 . S
H694 C652 0.930 . S
H695 C653 0.930 . S
H696 C655 0.929 . S
H697 C656 0.930 . S
H698 C657 0.930 . S
H699 C658 0.930 . S
H700 C662 0.929 . S
H701 C664 0.952 . S
H702 C670 0.929 . S
H703 C671 0.930 . S
Li704 N721 1.990 . S
Li704 O764 1.956 . S
Li704 O765 1.970 . S
Li704 O766 1.961 . S
Li705 N729 1.995 . S
Li705 O764 1.971 1_565 S
Li705 O765 1.952 1_565 S
Li705 O767 1.956 1_565 S
Li706 N751 1.990 . S
Li706 O764 1.961 . S
Li706 O766 1.956 . S
Li706 O767 1.970 . S
Li707 N757 1.990 . S
Li707 O765 1.961 . S
Li707 O766 1.970 . S
Li707 O767 1.956 . S
C708 C710 1.348 . S
C708 C711 1.356 . S
C708 O764 1.325 1_565 S
N709 C712 1.314 . S
N709 C713 1.279 . S
C710 C708 1.348 . S
C710 C712 1.353 . S
C710 H768 0.929 . S
C711 C708 1.356 . S
C711 C713 1.358 . S
C711 H769 0.930 1_565 S
C712 N709 1.314 . S
C712 C710 1.353 . S
C712 H770 0.930 . S
C713 N709 1.279 . S
C713 C711 1.358 . S
C713 H771 0.930 . S
C714 C717 1.348 . S
C714 C718 1.356 . S
C714 O765 1.325 . S
C715 N716 1.279 . S
C715 C718 1.358 . S
C715 H772 0.930 . S
N716 C715 1.279 . S
N716 C719 1.314 . S
C717 C714 1.348 . S
C717 C719 1.353 . S
C717 H773 0.929 . S
C718 C714 1.356 . S
C718 C715 1.358 . S
C718 H774 0.930 . S
C719 N716 1.314 . S
C719 C717 1.353 . S
C719 H775 0.930 . S
C720 N721 1.314 . S
C720 C725 1.353 . S
C720 H726 0.930 . S
N721 Li704 1.990 . S
N721 C720 1.314 . S
N721 C723 1.279 . S
C722 C723 1.358 . S
C722 C724 1.356 . S
C722 H776 0.930 . S
C723 N721 1.279 . S
C723 C722 1.358 . S
C723 H727 0.930 . S
C724 C722 1.356 . S
C724 C725 1.348 . S
C725 C720 1.353 . S
C725 C724 1.348 . S
C725 H777 0.929 . S
H726 C720 0.930 . S
H727 C723 0.930 . S
C728 N729 1.314 . S
C728 C730 1.353 . S
C728 H734 0.930 . S
N729 Li705 1.995 . S
N729 C728 1.314 . S
N729 C732 1.279 . S
C730 C728 1.353 . S
C730 C733 1.348 . S
C730 H778 0.929 . S
C731 C732 1.358 . S
C731 C733 1.356 . S
C731 H779 0.930 . S
C732 N729 1.279 . S
C732 C731 1.358 . S
C732 H735 0.930 . S
C733 C730 1.348 . S
C733 C731 1.356 . S
H734 C728 0.930 . S
H735 C732 0.930 . S
C736 C738 1.348 . S
C736 C739 1.356 . S
C736 O766 1.325 . S
N737 C740 1.314 . S
N737 C741 1.279 . S
C738 C736 1.348 . S
C738 C740 1.353 . S
C738 H780 0.929 . S
C739 C736 1.356 . S
C739 C741 1.358 . S
C739 H781 0.930 . S
C740 N737 1.314 . S
C740 C738 1.353 . S
C740 H782 0.930 . S
C741 N737 1.279 . S
C741 C739 1.358 . S
C741 H783 0.930 . S
C742 C743 1.348 . S
C742 C744 1.356 . S
C742 O767 1.325 . S
C743 C742 1.348 . S
C743 C745 1.353 . S
C743 H784 0.929 . S
C744 C742 1.356 . S
C744 C746 1.358 . S
C744 H785 0.930 . S
C745 C743 1.353 . S
C745 N747 1.314 . S
C745 H786 0.930 . S
C746 C744 1.358 . S
C746 N747 1.279 . S
C746 H787 0.924 1_545 S
N747 C745 1.314 . S
N747 C746 1.279 . S
C748 C750 1.353 . S
C748 N751 1.314 . S
C748 H754 0.930 1_545 S
C749 N751 1.279 . S
C749 C752 1.358 . S
C749 H755 0.930 . S
C750 C748 1.353 . S
C750 C753 1.348 . S
C750 H788 0.929 1_545 S
N751 Li706 1.990 . S
N751 C748 1.314 . S
N751 C749 1.279 . S
C752 C749 1.358 . S
C752 C753 1.356 . S
C752 H789 0.930 . S
C753 C750 1.348 . S
C753 C752 1.356 . S
H754 C748 0.930 1_565 S
H755 C749 0.930 . S
C756 N757 1.314 . S
C756 C758 1.353 . S
C756 H762 0.930 . S
N757 Li707 1.990 . S
N757 C756 1.314 . S
N757 C760 1.279 . S
C758 C756 1.353 . S
C758 C761 1.348 . S
C758 H790 0.929 . S
C759 C760 1.358 . S
C759 C761 1.356 . S
C759 H791 0.930 . S
C760 N757 1.279 . S
C760 C759 1.358 . S
C760 H763 0.930 . S
C761 C758 1.348 . S
C761 C759 1.356 . S
H762 C756 0.930 . S
H763 C760 0.930 . S
O764 Li704 1.956 . S
O764 Li705 1.971 1_545 S
O764 Li706 1.961 . S
O764 C708 1.325 1_545 S
O765 Li704 1.970 . S
O765 Li705 1.952 1_545 S
O765 Li707 1.961 . S
O765 C714 1.325 . S
O766 Li704 1.961 . S
O766 Li706 1.956 . S
O766 Li707 1.970 . S
O766 C736 1.325 . S
O767 Li705 1.956 1_545 S
O767 Li706 1.970 . S
O767 Li707 1.956 . S
O767 C742 1.325 . S
H768 C710 0.929 . S
H769 C711 0.930 1_545 S
H770 C712 0.930 . S
H771 C713 0.930 . S
H772 C715 0.930 . S
H773 C717 0.929 . S
H774 C718 0.930 . S
H775 C719 0.930 . S
H776 C722 0.930 . S
H777 C725 0.929 . S
H778 C730 0.929 . S
H779 C731 0.930 . S
H780 C738 0.929 . S
H781 C739 0.930 . S
H782 C740 0.930 . S
H783 C741 0.930 . S
H784 C743 0.929 . S
H785 C744 0.930 . S
H786 C745 0.930 . S
H787 C746 0.924 1_565 S
H788 C750 0.929 1_565 S
H789 C752 0.930 . S
H790 C758 0.929 . S
H791 C759 0.930 . S
Li792 N809 1.990 . S
Li792 O852 1.956 . S
Li792 O853 1.970 . S
Li792 O854 1.961 . S
Li793 N817 1.990 . S
Li793 O852 1.970 . S
Li793 O853 1.956 . S
Li793 O855 1.961 . S
Li794 N839 1.990 . S
Li794 O852 1.961 . S
Li794 O854 1.956 . S
Li794 O855 1.970 . S
Li795 N845 1.990 . S
Li795 O853 1.961 . S
Li795 O854 1.970 . S
Li795 O855 1.956 . S
C796 C798 1.348 . S
C796 C799 1.356 . S
C796 O852 1.325 . S
N797 C800 1.314 . S
N797 C801 1.279 . S
C798 C796 1.348 . S
C798 C800 1.353 . S
C798 H856 0.929 . S
C799 C796 1.356 . S
C799 C801 1.358 . S
C799 H857 0.930 . S
C800 N797 1.314 . S
C800 C798 1.353 . S
C800 H858 0.930 . S
C801 N797 1.279 . S
C801 C799 1.358 . S
C801 H859 0.930 . S
C802 C805 1.348 . S
C802 C806 1.356 . S
C802 O853 1.325 . S
C803 N804 1.279 . S
C803 C806 1.358 . S
C803 H860 0.930 . S
N804 C803 1.279 . S
N804 C807 1.314 . S
C805 C802 1.348 . S
C805 C807 1.353 . S
C805 H861 0.929 . S
C806 C802 1.356 . S
C806 C803 1.358 . S
C806 H862 0.930 . S
C807 N804 1.314 . S
C807 C805 1.353 . S
C807 H863 0.930 . S
C808 N809 1.314 . S
C808 C813 1.353 . S
C808 H814 0.930 . S
N809 Li792 1.990 . S
N809 C808 1.314 . S
N809 C811 1.279 . S
C810 C811 1.358 . S
C810 C812 1.356 . S
C810 H864 0.930 . S
C811 N809 1.279 . S
C811 C810 1.358 . S
C811 H815 0.930 . S
C812 C810 1.356 . S
C812 C813 1.348 . S
C813 C808 1.353 . S
C813 C812 1.348 . S
C813 H865 0.929 . S
H814 C808 0.930 . S
H815 C811 0.930 . S
C816 N817 1.314 . S
C816 C818 1.353 . S
C816 H822 0.930 . S
N817 Li793 1.990 . S
N817 C816 1.314 . S
N817 C820 1.279 . S
C818 C816 1.353 . S
C818 C821 1.348 . S
C818 H866 0.929 . S
C819 C820 1.358 . S
C819 C821 1.356 . S
C819 H867 0.930 . S
C820 N817 1.279 . S
C820 C819 1.358 . S
C820 H823 0.930 . S
C821 C818 1.348 . S
C821 C819 1.356 . S
H822 C816 0.930 . S
H823 C820 0.930 . S
C824 C826 1.348 . S
C824 C827 1.356 . S
C824 O854 1.325 . S
N825 C828 1.314 . S
N825 C829 1.279 . S
C826 C824 1.348 . S
C826 C828 1.353 . S
C826 H868 0.929 . S
C827 C824 1.356 . S
C827 C829 1.358 . S
C827 H869 0.930 . S
C828 N825 1.314 . S
C828 C826 1.353 . S
C828 H870 0.930 . S
C829 N825 1.279 . S
C829 C827 1.358 . S
C829 H871 0.930 . S
C830 C831 1.348 . S
C830 C832 1.356 . S
C830 O855 1.325 . S
C831 C830 1.348 . S
C831 C833 1.353 . S
C831 H872 0.929 . S
C832 C830 1.356 . S
C832 C834 1.358 . S
C832 H873 0.930 . S
C833 C831 1.353 . S
C833 N835 1.314 . S
C833 H874 0.930 . S
C834 C832 1.358 . S
C834 N835 1.279 . S
C834 H875 0.930 . S
N835 C833 1.314 . S
N835 C834 1.279 . S
C836 C838 1.353 . S
C836 N839 1.314 . S
C836 H842 0.930 . S
C837 N839 1.279 . S
C837 C840 1.358 . S
C837 H843 0.930 . S
C838 C836 1.353 . S
C838 C841 1.348 . S
C838 H876 0.929 . S
N839 Li794 1.990 . S
N839 C836 1.314 . S
N839 C837 1.279 . S
C840 C837 1.358 . S
C840 C841 1.356 . S
C840 H877 0.930 . S
C841 C838 1.348 . S
C841 C840 1.356 . S
H842 C836 0.930 . S
H843 C837 0.930 . S
C844 N845 1.314 . S
C844 C846 1.353 . S
C844 H850 0.930 . S
N845 Li795 1.990 . S
N845 C844 1.314 . S
N845 C848 1.279 . S
C846 C844 1.353 . S
C846 C849 1.348 . S
C846 H878 0.929 . S
C847 C848 1.358 . S
C847 C849 1.356 . S
C847 H879 0.930 . S
C848 N845 1.279 . S
C848 C847 1.358 . S
C848 H851 0.930 . S
C849 C846 1.348 . S
C849 C847 1.356 . S
H850 C844 0.930 . S
H851 C848 0.930 . S
O852 Li792 1.956 . S
O852 Li793 1.970 . S
O852 Li794 1.961 . S
O852 C796 1.325 . S
O853 Li792 1.970 . S
O853 Li793 1.956 . S
O853 Li795 1.961 . S
O853 C802 1.325 . S
O854 Li792 1.961 . S
O854 Li794 1.956 . S
O854 Li795 1.970 . S
O854 C824 1.325 . S
O855 Li793 1.961 . S
O855 Li794 1.970 . S
O855 Li795 1.956 . S
O855 C830 1.325 . S
H856 C798 0.929 . S
H857 C799 0.930 . S
H858 C800 0.930 . S
H859 C801 0.930 . S
H860 C803 0.930 . S
H861 C805 0.929 . S
H862 C806 0.930 . S
H863 C807 0.930 . S
H864 C810 0.930 . S
H865 C813 0.929 . S
H866 C818 0.929 . S
H867 C819 0.930 . S
H868 C826 0.929 . S
H869 C827 0.930 . S
H870 C828 0.930 . S
H871 C829 0.930 . S
H872 C831 0.929 . S
H873 C832 0.930 . S
H874 C833 0.930 . S
H875 C834 0.930 . S
H876 C838 0.929 . S
H877 C840 0.930 . S
H878 C846 0.929 . S
H879 C847 0.930 . S
Li880 N897 1.990 . S
Li880 O940 1.956 . S
Li880 O941 1.970 . S
Li880 O942 1.979 . S
Li881 N905 1.990 . S
Li881 O940 1.967 . S
Li881 O941 1.980 . S
Li881 O943 1.940 1_545 S
Li882 N927 1.990 . S
Li882 O940 1.961 1_565 S
Li882 O942 1.932 1_565 S
Li882 O943 1.970 . S
Li883 N933 1.990 . S
Li883 O941 1.961 1_565 S
Li883 O942 1.972 1_565 S
Li883 O943 1.956 . S
C884 C886 1.348 . S
C884 C887 1.356 . S
C884 O940 1.325 . S
N885 C888 1.314 . S
N885 C889 1.279 . S
C886 C884 1.348 . S
C886 C888 1.353 . S
C886 H944 0.929 . S
C887 C884 1.356 . S
C887 C889 1.358 . S
C887 H945 0.930 . S
C888 N885 1.314 . S
C888 C886 1.353 . S
C888 H946 0.930 . S
C889 N885 1.279 . S
C889 C887 1.358 . S
C889 H947 0.930 . S
C890 C893 1.348 . S
C890 C894 1.356 . S
C890 O941 1.325 . S
C891 N892 1.279 . S
C891 C894 1.358 . S
C891 H948 0.930 . S
N892 C891 1.279 . S
N892 C895 1.314 . S
C893 C890 1.348 . S
C893 C895 1.353 . S
C893 H949 0.929 . S
C894 C890 1.356 . S
C894 C891 1.358 . S
C894 H950 0.930 . S
C895 N892 1.314 . S
C895 C893 1.353 . S
C895 H951 0.930 . S
C896 N897 1.314 . S
C896 C901 1.353 . S
C896 H902 0.930 . S
N897 Li880 1.990 . S
N897 C896 1.314 . S
N897 C899 1.279 . S
C898 C899 1.358 . S
C898 C900 1.356 . S
C898 H952 0.930 . S
C899 N897 1.279 . S
C899 C898 1.358 . S
C899 H903 0.930 . S
C900 C898 1.356 . S
C900 C901 1.348 . S
C901 C896 1.353 . S
C901 C900 1.348 . S
C901 H953 0.929 . S
H902 C896 0.930 . S
H903 C899 0.930 . S
C904 N905 1.286 1_565 S
C904 C906 1.353 . S
C904 H910 0.930 . S
N905 Li881 1.990 . S
N905 C904 1.286 1_545 S
N905 C908 1.306 . S
C906 C904 1.353 . S
C906 C909 1.344 1_565 S
C906 H954 0.929 . S
C907 C908 1.358 . S
C907 C909 1.360 . S
C907 H955 0.930 . S
C908 N905 1.306 . S
C908 C907 1.358 . S
C908 H911 0.930 . S
C909 C906 1.344 1_545 S
C909 C907 1.360 . S
H910 C904 0.930 . S
H911 C908 0.930 . S
C912 C914 1.347 1_545 S
C912 C915 1.356 . S
C912 O942 1.325 . S
N913 C916 1.314 . S
N913 C917 1.279 1_565 S
C914 C912 1.347 1_565 S
C914 C916 1.353 . S
C914 H956 0.929 . S
C915 C912 1.356 . S
C915 C917 1.358 . S
C915 H957 0.930 . S
C916 N913 1.314 . S
C916 C914 1.353 . S
C916 H958 0.930 . S
C917 N913 1.279 1_545 S
C917 C915 1.358 . S
C917 H959 0.930 . S
C918 C919 1.348 . S
C918 C920 1.356 . S
C918 O943 1.325 . S
C919 C918 1.348 . S
C919 C921 1.353 . S
C919 H960 0.929 . S
C920 C918 1.356 . S
C920 C922 1.358 . S
C920 H961 0.930 . S
C921 C919 1.353 . S
C921 N923 1.314 . S
C921 H962 0.930 . S
C922 C920 1.358 . S
C922 N923 1.279 . S
C922 H963 0.930 . S
N923 C921 1.314 . S
N923 C922 1.279 . S
C924 C926 1.353 . S
C924 N927 1.314 . S
C924 H930 0.930 . S
C925 N927 1.279 . S
C925 C928 1.358 . S
C925 H931 0.930 . S
C926 C924 1.353 . S
C926 C929 1.348 . S
C926 H964 0.929 . S
N927 Li882 1.990 . S
N927 C924 1.314 . S
N927 C925 1.279 . S
C928 C925 1.358 . S
C928 C929 1.356 . S
C928 H965 0.930 . S
C929 C926 1.348 . S
C929 C928 1.356 . S
H930 C924 0.930 . S
H931 C925 0.930 . S
C932 N933 1.314 1_545 S
C932 C934 1.353 . S
C932 H938 0.930 . S
N933 Li883 1.990 . S
N933 C932 1.314 1_565 S
N933 C936 1.279 . S
C934 C932 1.353 . S
C934 C937 1.348 1_545 S
C934 H966 0.929 . S
C935 C936 1.358 . S
C935 C937 1.356 . S
C935 H967 0.930 . S
C936 N933 1.279 . S
C936 C935 1.358 . S
C936 H939 0.930 . S
C937 C934 1.348 1_565 S
C937 C935 1.356 . S
H938 C932 0.930 . S
H939 C936 0.930 . S
O940 Li880 1.956 . S
O940 Li881 1.967 . S
O940 Li882 1.961 1_545 S
O940 C884 1.325 . S
O941 Li880 1.970 . S
O941 Li881 1.980 . S
O941 Li883 1.961 1_545 S
O941 C890 1.325 . S
O942 Li880 1.979 . S
O942 Li882 1.932 1_545 S
O942 Li883 1.972 1_545 S
O942 C912 1.325 . S
O943 Li881 1.940 1_565 S
O943 Li882 1.970 . S
O943 Li883 1.956 . S
O943 C918 1.325 . S
H944 C886 0.929 . S
H945 C887 0.930 . S
H946 C888 0.930 . S
H947 C889 0.930 . S
H948 C891 0.930 . S
H949 C893 0.929 . S
H950 C894 0.930 . S
H951 C895 0.930 . S
H952 C898 0.930 . S
H953 C901 0.929 . S
H954 C906 0.929 . S
H955 C907 0.930 . S
H956 C914 0.929 . S
H957 C915 0.930 . S
H958 C916 0.930 . S
H959 C917 0.930 . S
H960 C919 0.929 . S
H961 C920 0.930 . S
H962 C921 0.930 . S
H963 C922 0.930 . S
H964 C926 0.929 . S
H965 C928 0.930 . S
H966 C934 0.929 . S
H967 C935 0.930 . S
Li968 N985 1.990 . S
Li968 O1028 1.956 . S
Li968 O1029 1.970 . S
Li968 O1030 1.961 1_554 S
Li969 N993 1.990 . S
Li969 O1028 1.970 . S
Li969 O1029 1.956 . S
Li969 O1031 1.961 . S
Li970 N1015 1.990 . S
Li970 O1028 1.961 . S
Li970 O1030 1.956 1_554 S
Li970 O1031 1.970 . S
Li971 N1021 1.990 . S
Li971 O1029 1.961 1_556 S
Li971 O1030 1.970 . S
Li971 O1031 1.956 1_556 S
C972 C974 1.348 . S
C972 C975 1.356 . S
C972 O1028 1.325 . S
N973 C976 1.314 . S
N973 C977 1.298 . S
C974 C972 1.348 . S
C974 C976 1.353 . S
C974 H1032 0.929 . S
C975 C972 1.356 . S
C975 C977 1.382 . S
C975 H1033 0.930 . S
C976 N973 1.314 . S
C976 C974 1.353 . S
C976 H1034 0.930 . S
C977 N973 1.298 . S
C977 C975 1.382 . S
C977 H1035 0.885 1_565 S
C978 C981 1.348 . S
C978 C982 1.351 1_554 S
C978 O1029 1.325 . S
C979 N980 1.279 1_556 S
C979 C982 1.355 . S
C979 H1036 0.930 . S
N980 C979 1.279 1_554 S
N980 C983 1.314 . S
C981 C978 1.348 . S
C981 C983 1.353 . S
C981 H1037 0.929 . S
C982 C978 1.351 1_556 S
C982 C979 1.355 . S
C982 H1038 0.942 . S
C983 N980 1.314 . S
C983 C981 1.353 . S
C983 H1039 0.930 . S
C984 N985 1.314 1_556 S
C984 C989 1.353 . S
C984 H990 0.930 . S
N985 Li968 1.990 . S
N985 C984 1.314 1_554 S
N985 C987 1.279 . S
C986 C987 1.358 . S
C986 C988 1.356 . S
C986 H1040 0.930 . S
C987 N985 1.279 . S
C987 C986 1.358 . S
C987 H991 0.930 . S
C988 C986 1.356 . S
C988 C989 1.348 1_554 S
C989 C984 1.353 . S
C989 C988 1.348 1_556 S
C989 H1041 0.929 . S
H990 C984 0.930 . S
H991 C987 0.930 . S
C992 N993 1.314 . S
C992 C994 1.353 . S
C992 H998 0.930 . S
N993 Li969 1.990 . S
N993 C992 1.314 . S
N993 C996 1.279 . S
C994 C992 1.353 . S
C994 C997 1.348 . S
C994 H1042 0.929 . S
C995 C996 1.358 . S
C995 C997 1.356 . S
C995 H1043 0.930 . S
C996 N993 1.279 . S
C996 C995 1.358 . S
C996 H999 0.930 . S
C997 C994 1.348 . S
C997 C995 1.356 . S
H998 C992 0.930 . S
H999 C996 0.930 . S
C1000 C1002 1.348 . S
C1000 C1003 1.356 . S
C1000 O1030 1.325 . S
N1001 C1004 1.314 . S
N1001 C1005 1.279 . S
C1002 C1000 1.348 . S
C1002 C1004 1.353 . S
C1002 H1044 0.929 . S
C1003 C1000 1.356 . S
C1003 C1005 1.358 . S
C1003 H1045 0.930 . S
C1004 N1001 1.314 . S
C1004 C1002 1.353 . S
C1004 H1046 0.930 . S
C1005 N1001 1.279 . S
C1005 C1003 1.358 . S
C1005 H1047 0.930 1_565 S
C1006 C1007 1.348 . S
C1006 C1008 1.356 . S
C1006 O1031 1.325 . S
C1007 C1006 1.348 . S
C1007 C1009 1.353 . S
C1007 H1048 0.929 . S
C1008 C1006 1.356 . S
C1008 C1010 1.358 . S
C1008 H1049 0.930 . S
C1009 C1007 1.353 . S
C1009 N1011 1.314 . S
C1009 H1050 0.930 . S
C1010 C1008 1.358 . S
C1010 N1011 1.279 . S
C1010 H1051 0.930 . S
N1011 C1009 1.314 . S
N1011 C1010 1.279 . S
C1012 C1014 1.353 . S
C1012 N1015 1.314 . S
C1012 H1018 0.930 . S
C1013 N1015 1.279 . S
C1013 C1016 1.358 . S
C1013 H1019 0.930 1_554 S
C1014 C1012 1.353 . S
C1014 C1017 1.348 . S
C1014 H1052 0.929 . S
N1015 Li970 1.990 . S
N1015 C1012 1.314 . S
N1015 C1013 1.279 . S
C1016 C1013 1.358 . S
C1016 C1017 1.356 . S
C1016 H1053 0.930 1_564 S
C1017 C1014 1.348 . S
C1017 C1016 1.356 . S
H1018 C1012 0.930 . S
H1019 C1013 0.930 1_556 S
C1020 N1021 1.314 . S
C1020 C1022 1.353 . S
C1020 H1026 0.930 . S
N1021 Li971 1.990 . S
N1021 C1020 1.314 . S
N1021 C1024 1.279 . S
C1022 C1020 1.353 . S
C1022 C1025 1.348 . S
C1022 H1054 0.929 . S
C1023 C1024 1.358 . S
C1023 C1025 1.356 . S
C1023 H1055 0.930 . S
C1024 N1021 1.279 . S
C1024 C1023 1.358 . S
C1024 H1027 0.930 . S
C1025 C1022 1.348 . S
C1025 C1023 1.356 . S
H1026 C1020 0.930 . S
H1027 C1024 0.930 . S
O1028 Li968 1.956 . S
O1028 Li969 1.970 . S
O1028 Li970 1.961 . S
O1028 C972 1.325 . S
O1029 Li968 1.970 . S
O1029 Li969 1.956 . S
O1029 Li971 1.961 1_554 S
O1029 C978 1.325 . S
O1030 Li968 1.961 1_556 S
O1030 Li970 1.956 1_556 S
O1030 Li971 1.970 . S
O1030 C1000 1.325 . S
O1031 Li969 1.961 . S
O1031 Li970 1.970 . S
O1031 Li971 1.956 1_554 S
O1031 C1006 1.325 . S
H1032 C974 0.929 . S
H1033 C975 0.930 . S
H1034 C976 0.930 . S
H1035 C977 0.885 1_545 S
H1036 C979 0.930 . S
H1037 C981 0.929 . S
H1038 C982 0.942 . S
H1039 C983 0.930 . S
H1040 C986 0.930 . S
H1041 C989 0.929 . S
H1042 C994 0.929 . S
H1043 C995 0.930 . S
H1044 C1002 0.929 . S
H1045 C1003 0.930 . S
H1046 C1004 0.930 . S
H1047 C1005 0.930 1_545 S
H1048 C1007 0.929 . S
H1049 C1008 0.930 . S
H1050 C1009 0.930 . S
H1051 C1010 0.930 . S
H1052 C1014 0.929 . S
H1053 C1016 0.930 1_546 S
H1054 C1022 0.929 . S
H1055 C1023 0.930 . S
Li1056 N1073 1.990 . S
Li1056 O1116 1.956 . S
Li1056 O1117 1.970 . S
Li1056 O1118 1.961 . S
Li1057 N1081 1.990 . S
Li1057 O1116 1.970 . S
Li1057 O1117 1.956 . S
Li1057 O1119 1.961 . S
Li1058 N1103 1.990 . S
Li1058 O1116 1.961 . S
Li1058 O1118 1.956 . S
Li1058 O1119 1.970 . S
Li1059 N1109 1.990 1_554 S
Li1059 O1117 1.961 . S
Li1059 O1118 1.970 . S
Li1059 O1119 1.956 . S
C1060 C1062 1.348 . S
C1060 C1063 1.356 . S
C1060 O1116 1.325 . S
N1061 C1064 1.314 . S
N1061 C1065 1.279 . S
C1062 C1060 1.348 . S
C1062 C1064 1.353 . S
C1062 H1120 0.929 . S
C1063 C1060 1.356 . S
C1063 C1065 1.358 . S
C1063 H1121 0.930 . S
C1064 N1061 1.314 . S
C1064 C1062 1.353 . S
C1064 H1122 0.930 . S
C1065 N1061 1.279 . S
C1065 C1063 1.358 . S
C1065 H1123 0.930 . S
C1066 C1069 1.348 . S
C1066 C1070 1.356 . S
C1066 O1117 1.325 . S
C1067 N1068 1.279 . S
C1067 C1070 1.358 . S
C1067 H1124 0.930 . S
N1068 C1067 1.279 . S
N1068 C1071 1.314 . S
C1069 C1066 1.348 . S
C1069 C1071 1.353 . S
C1069 H1125 0.929 . S
C1070 C1066 1.356 . S
C1070 C1067 1.358 . S
C1070 H1126 0.930 . S
C1071 N1068 1.314 . S
C1071 C1069 1.353 . S
C1071 H1127 0.930 . S
C1072 N1073 1.314 . S
C1072 C1077 1.353 . S
C1072 H1078 0.930 . S
N1073 Li1056 1.990 . S
N1073 C1072 1.314 . S
N1073 C1075 1.279 . S
C1074 C1075 1.358 . S
C1074 C1076 1.356 . S
C1074 H1128 0.930 . S
C1075 N1073 1.279 . S
C1075 C1074 1.358 . S
C1075 H1079 0.930 . S
C1076 C1074 1.356 . S
C1076 C1077 1.348 . S
C1077 C1072 1.353 . S
C1077 C1076 1.348 . S
C1077 H1129 0.929 . S
H1078 C1072 0.930 . S
H1079 C1075 0.930 . S
C1080 N1081 1.314 . S
C1080 C1082 1.353 . S
C1080 H1086 0.930 . S
N1081 Li1057 1.990 . S
N1081 C1080 1.314 . S
N1081 C1084 1.279 . S
C1082 C1080 1.353 . S
C1082 C1085 1.348 . S
C1082 H1130 0.929 . S
C1083 C1084 1.358 . S
C1083 C1085 1.356 . S
C1083 H1131 0.930 . S
C1084 N1081 1.279 . S
C1084 C1083 1.358 . S
C1084 H1087 0.930 . S
C1085 C1082 1.348 . S
C1085 C1083 1.356 . S
H1086 C1080 0.930 . S
H1087 C1084 0.930 . S
C1088 C1090 1.387 . S
C1088 C1091 1.357 1_556 S
C1088 O1118 1.288 1_556 S
N1089 C1092 1.314 . S
N1089 C1093 1.279 . S
C1090 C1088 1.387 . S
C1090 C1092 1.353 . S
C1090 H1132 0.929 . S
C1091 C1088 1.357 1_554 S
C1091 C1093 1.358 1_554 S
C1091 H1133 0.930 . S
C1092 N1089 1.314 . S
C1092 C1090 1.353 . S
C1092 H1134 0.930 . S
C1093 N1089 1.279 . S
C1093 C1091 1.358 1_556 S
C1093 H1135 0.930 . S
C1094 C1095 1.348 . S
C1094 C1096 1.356 . S
C1094 O1119 1.325 . S
C1095 C1094 1.348 . S
C1095 C1097 1.353 . S
C1095 H1136 0.929 . S
C1096 C1094 1.356 . S
C1096 C1098 1.358 . S
C1096 H1137 0.930 . S
C1097 C1095 1.353 . S
C1097 N1099 1.314 . S
C1097 H1138 0.930 . S
C1098 C1096 1.358 . S
C1098 N1099 1.279 . S
C1098 H1139 0.930 . S
N1099 C1097 1.314 . S
N1099 C1098 1.279 . S
C1100 C1102 1.353 . S
C1100 N1103 1.314 . S
C1100 H1106 0.930 . S
C1101 N1103 1.279 . S
C1101 C1104 1.358 . S
C1101 H1107 0.930 . S
C1102 C1100 1.353 . S
C1102 C1105 1.348 . S
C1102 H1140 0.929 . S
N1103 Li1058 1.990 . S
N1103 C1100 1.314 . S
N1103 C1101 1.279 . S
C1104 C1101 1.358 . S
C1104 C1105 1.356 . S
C1104 H1141 0.930 . S
C1105 C1102 1.348 . S
C1105 C1104 1.356 . S
H1106 C1100 0.930 . S
H1107 C1101 0.930 . S
C1108 N1109 1.314 . S
C1108 C1110 1.353 . S
C1108 H1114 0.930 . S
N1109 Li1059 1.990 1_556 S
N1109 C1108 1.314 . S
N1109 C1112 1.279 . S
C1110 C1108 1.353 . S
C1110 C1113 1.348 . S
C1110 H1142 0.929 . S
C1111 C1112 1.358 . S
C1111 C1113 1.356 . S
C1111 H1143 0.930 . S
C1112 N1109 1.279 . S
C1112 C1111 1.358 . S
C1112 H1115 0.930 . S
C1113 C1110 1.348 . S
C1113 C1111 1.356 . S
H1114 C1108 0.930 . S
H1115 C1112 0.930 . S
O1116 Li1056 1.956 . S
O1116 Li1057 1.970 . S
O1116 Li1058 1.961 . S
O1116 C1060 1.325 . S
O1117 Li1056 1.970 . S
O1117 Li1057 1.956 . S
O1117 Li1059 1.961 . S
O1117 C1066 1.325 . S
O1118 Li1056 1.961 . S
O1118 Li1058 1.956 . S
O1118 Li1059 1.970 . S
O1118 C1088 1.288 1_554 S
O1119 Li1057 1.961 . S
O1119 Li1058 1.970 . S
O1119 Li1059 1.956 . S
O1119 C1094 1.325 . S
H1120 C1062 0.929 . S
H1121 C1063 0.930 . S
H1122 C1064 0.930 . S
H1123 C1065 0.930 . S
H1124 C1067 0.930 . S
H1125 C1069 0.929 . S
H1126 C1070 0.930 . S
H1127 C1071 0.930 . S
H1128 C1074 0.930 . S
H1129 C1077 0.929 . S
H1130 C1082 0.929 . S
H1131 C1083 0.930 . S
H1132 C1090 0.929 . S
H1133 C1091 0.930 . S
H1134 C1092 0.930 . S
H1135 C1093 0.930 . S
H1136 C1095 0.929 . S
H1137 C1096 0.930 . S
H1138 C1097 0.930 . S
H1139 C1098 0.930 . S
H1140 C1102 0.929 . S
H1141 C1104 0.930 . S
H1142 C1110 0.929 . S
H1143 C1111 0.930 . S
Li1144 N1161 1.990 . S
Li1144 O1204 1.956 . S
Li1144 O1205 1.970 . S
Li1144 O1206 1.961 . S
Li1145 N1169 1.990 . S
Li1145 O1204 1.970 . S
Li1145 O1205 1.956 . S
Li1145 O1207 1.961 1_554 S
Li1146 N1191 1.990 1_554 S
Li1146 O1204 1.961 . S
Li1146 O1206 1.956 . S
Li1146 O1207 1.970 1_554 S
Li1147 N1197 1.990 . S
Li1147 O1205 1.961 . S
Li1147 O1206 1.970 . S
Li1147 O1207 1.956 1_554 S
C1148 C1150 1.348 . S
C1148 C1151 1.356 . S
C1148 O1204 1.325 . S
N1149 C1152 1.314 . S
N1149 C1153 1.279 . S
C1150 C1148 1.348 . S
C1150 C1152 1.353 . S
C1150 H1208 0.929 . S
C1151 C1148 1.356 . S
C1151 C1153 1.358 . S
C1151 H1209 0.930 . S
C1152 N1149 1.314 . S
C1152 C1150 1.353 . S
C1152 H1210 0.930 . S
C1153 N1149 1.279 . S
C1153 C1151 1.358 . S
C1153 H1211 0.930 . S
C1154 C1157 1.348 . S
C1154 C1158 1.356 . S
C1154 O1205 1.325 . S
C1155 N1156 1.279 . S
C1155 C1158 1.358 . S
C1155 H1212 0.930 . S
N1156 C1155 1.279 . S
N1156 C1159 1.314 . S
C1157 C1154 1.348 . S
C1157 C1159 1.353 . S
C1157 H1213 0.929 . S
C1158 C1154 1.356 . S
C1158 C1155 1.358 . S
C1158 H1214 0.930 . S
C1159 N1156 1.314 . S
C1159 C1157 1.353 . S
C1159 H1215 0.930 . S
C1160 N1161 1.314 . S
C1160 C1165 1.353 . S
C1160 H1166 0.930 . S
N1161 Li1144 1.990 . S
N1161 C1160 1.314 . S
N1161 C1163 1.279 . S
C1162 C1163 1.358 . S
C1162 C1164 1.356 . S
C1162 H1216 0.930 . S
C1163 N1161 1.279 . S
C1163 C1162 1.358 . S
C1163 H1167 0.930 . S
C1164 C1162 1.356 . S
C1164 C1165 1.348 . S
C1165 C1160 1.353 . S
C1165 C1164 1.348 . S
C1165 H1217 0.929 . S
H1166 C1160 0.930 . S
H1167 C1163 0.930 . S
C1168 N1169 1.314 . S
C1168 C1170 1.353 . S
C1168 H1174 0.930 1_554 S
N1169 Li1145 1.990 . S
N1169 C1168 1.314 . S
N1169 C1172 1.279 . S
C1170 C1168 1.353 . S
C1170 C1173 1.348 . S
C1170 H1218 0.929 1_554 S
C1171 C1172 1.358 . S
C1171 C1173 1.356 . S
C1171 H1219 0.930 . S
C1172 N1169 1.279 . S
C1172 C1171 1.358 . S
C1172 H1175 0.930 . S
C1173 C1170 1.348 . S
C1173 C1171 1.356 . S
H1174 C1168 0.930 1_556 S
H1175 C1172 0.930 . S
C1176 C1178 1.348 . S
C1176 C1179 1.356 . S
C1176 O1206 1.325 . S
N1177 C1180 1.314 . S
N1177 C1181 1.279 . S
C1178 C1176 1.348 . S
C1178 C1180 1.353 . S
C1178 H1220 0.929 . S
C1179 C1176 1.356 . S
C1179 C1181 1.358 . S
C1179 H1221 0.930 . S
C1180 N1177 1.314 . S
C1180 C1178 1.353 . S
C1180 H1222 0.930 . S
C1181 N1177 1.279 . S
C1181 C1179 1.358 . S
C1181 H1223 0.930 . S
C1182 C1183 1.348 . S
C1182 C1184 1.356 . S
C1182 O1207 1.325 . S
C1183 C1182 1.348 . S
C1183 C1185 1.353 . S
C1183 H1224 0.929 . S
C1184 C1182 1.356 . S
C1184 C1186 1.358 . S
C1184 H1225 0.930 . S
C1185 C1183 1.353 . S
C1185 N1187 1.314 . S
C1185 H1226 0.930 . S
C1186 C1184 1.358 . S
C1186 N1187 1.279 . S
C1186 H1227 0.930 . S
N1187 C1185 1.314 . S
N1187 C1186 1.279 . S
C1188 C1190 1.353 . S
C1188 N1191 1.314 . S
C1188 H1194 0.930 . S
C1189 N1191 1.279 . S
C1189 C1192 1.358 . S
C1189 H1195 0.930 . S
C1190 C1188 1.353 . S
C1190 C1193 1.348 . S
C1190 H1228 0.929 . S
N1191 Li1146 1.990 1_556 S
N1191 C1188 1.314 . S
N1191 C1189 1.279 . S
C1192 C1189 1.358 . S
C1192 C1193 1.356 . S
C1192 H1229 0.930 . S
C1193 C1190 1.348 . S
C1193 C1192 1.356 . S
H1194 C1188 0.930 . S
H1195 C1189 0.930 . S
C1196 N1197 1.314 . S
C1196 C1198 1.353 . S
C1196 H1202 0.930 . S
N1197 Li1147 1.990 . S
N1197 C1196 1.314 . S
N1197 C1200 1.279 1_554 S
C1198 C1196 1.353 . S
C1198 C1201 1.348 . S
C1198 H1230 0.929 . S
C1199 C1200 1.358 . S
C1199 C1201 1.356 1_556 S
C1199 H1231 0.930 . S
C1200 N1197 1.279 1_556 S
C1200 C1199 1.358 . S
C1200 H1203 0.930 . S
C1201 C1198 1.348 . S
C1201 C1199 1.356 1_554 S
H1202 C1196 0.930 . S
H1203 C1200 0.930 . S
O1204 Li1144 1.956 . S
O1204 Li1145 1.970 . S
O1204 Li1146 1.961 . S
O1204 C1148 1.325 . S
O1205 Li1144 1.970 . S
O1205 Li1145 1.956 . S
O1205 Li1147 1.961 . S
O1205 C1154 1.325 . S
O1206 Li1144 1.961 . S
O1206 Li1146 1.956 . S
O1206 Li1147 1.970 . S
O1206 C1176 1.325 . S
O1207 Li1145 1.961 1_556 S
O1207 Li1146 1.970 1_556 S
O1207 Li1147 1.956 1_556 S
O1207 C1182 1.325 . S
H1208 C1150 0.929 . S
H1209 C1151 0.930 . S
H1210 C1152 0.930 . S
H1211 C1153 0.930 . S
H1212 C1155 0.930 . S
H1213 C1157 0.929 . S
H1214 C1158 0.930 . S
H1215 C1159 0.930 . S
H1216 C1162 0.930 . S
H1217 C1165 0.929 . S
H1218 C1170 0.929 1_556 S
H1219 C1171 0.930 . S
H1220 C1178 0.929 . S
H1221 C1179 0.930 . S
H1222 C1180 0.930 . S
H1223 C1181 0.930 . S
H1224 C1183 0.929 . S
H1225 C1184 0.930 . S
H1226 C1185 0.930 . S
H1227 C1186 0.930 . S
H1228 C1190 0.929 . S
H1229 C1192 0.930 . S
H1230 C1198 0.929 . S
H1231 C1199 0.930 . S
Li1232 N1249 1.990 . S
Li1232 O1292 1.956 . S
Li1232 O1293 1.970 . S
Li1232 O1294 1.961 . S
Li1233 N1257 1.990 . S
Li1233 O1292 1.970 . S
Li1233 O1293 1.956 . S
Li1233 O1295 1.961 . S
Li1234 N1279 1.990 . S
Li1234 O1292 1.961 . S
Li1234 O1294 1.956 . S
Li1234 O1295 1.970 . S
Li1235 N1285 1.990 . S
Li1235 O1293 1.961 . S
Li1235 O1294 1.970 . S
Li1235 O1295 1.956 . S
C1236 C1238 1.348 . S
C1236 C1239 1.356 . S
C1236 O1292 1.325 . S
N1237 C1240 1.314 . S
N1237 C1241 1.279 . S
C1238 C1236 1.348 . S
C1238 C1240 1.353 . S
C1238 H1296 0.929 . S
C1239 C1236 1.356 . S
C1239 C1241 1.358 . S
C1239 H1297 0.930 . S
C1240 N1237 1.314 . S
C1240 C1238 1.353 . S
C1240 H1298 0.930 . S
C1241 N1237 1.279 . S
C1241 C1239 1.358 . S
C1241 H1299 0.930 . S
C1242 C1245 1.348 . S
C1242 C1246 1.356 . S
C1242 O1293 1.325 . S
C1243 N1244 1.279 . S
C1243 C1246 1.358 . S
C1243 H1300 0.930 . S
N1244 C1243 1.279 . S
N1244 C1247 1.314 . S
C1245 C1242 1.348 . S
C1245 C1247 1.353 . S
C1245 H1301 0.929 . S
C1246 C1242 1.356 . S
C1246 C1243 1.358 . S
C1246 H1302 0.930 . S
C1247 N1244 1.314 . S
C1247 C1245 1.353 . S
C1247 H1303 0.930 . S
C1248 N1249 1.314 . S
C1248 C1253 1.353 . S
C1248 H1254 0.930 . S
N1249 Li1232 1.990 . S
N1249 C1248 1.314 . S
N1249 C1251 1.279 . S
C1250 C1251 1.358 . S
C1250 C1252 1.356 . S
C1250 H1304 0.930 . S
C1251 N1249 1.279 . S
C1251 C1250 1.358 . S
C1251 H1255 0.930 . S
C1252 C1250 1.356 . S
C1252 C1253 1.348 . S
C1253 C1248 1.353 . S
C1253 C1252 1.348 . S
C1253 H1305 0.929 . S
H1254 C1248 0.930 . S
H1255 C1251 0.930 . S
C1256 N1257 1.314 . S
C1256 C1258 1.353 . S
C1256 H1262 0.930 . S
N1257 Li1233 1.990 . S
N1257 C1256 1.314 . S
N1257 C1260 1.279 . S
C1258 C1256 1.353 . S
C1258 C1261 1.348 . S
C1258 H1306 0.929 . S
C1259 C1260 1.358 . S
C1259 C1261 1.356 . S
C1259 H1307 0.930 . S
C1260 N1257 1.279 . S
C1260 C1259 1.358 . S
C1260 H1263 0.930 . S
C1261 C1258 1.348 . S
C1261 C1259 1.356 . S
H1262 C1256 0.930 . S
H1263 C1260 0.930 . S
C1264 C1266 1.348 . S
C1264 C1267 1.356 . S
C1264 O1294 1.325 . S
N1265 C1268 1.314 . S
N1265 C1269 1.279 . S
C1266 C1264 1.348 . S
C1266 C1268 1.353 . S
C1266 H1308 0.929 . S
C1267 C1264 1.356 . S
C1267 C1269 1.358 . S
C1267 H1309 0.930 . S
C1268 N1265 1.314 . S
C1268 C1266 1.353 . S
C1268 H1310 0.930 . S
C1269 N1265 1.279 . S
C1269 C1267 1.358 . S
C1269 H1311 0.930 . S
C1270 C1271 1.348 . S
C1270 C1272 1.356 . S
C1270 O1295 1.325 . S
C1271 C1270 1.348 . S
C1271 C1273 1.353 . S
C1271 H1312 0.929 . S
C1272 C1270 1.356 . S
C1272 C1274 1.358 . S
C1272 H1313 0.930 . S
C1273 C1271 1.353 . S
C1273 N1275 1.314 . S
C1273 H1314 0.930 . S
C1274 C1272 1.358 . S
C1274 N1275 1.279 . S
C1274 H1315 0.930 . S
N1275 C1273 1.314 . S
N1275 C1274 1.279 . S
C1276 C1278 1.353 . S
C1276 N1279 1.314 . S
C1276 H1282 0.930 . S
C1277 N1279 1.279 . S
C1277 C1280 1.358 . S
C1277 H1283 0.930 . S
C1278 C1276 1.353 . S
C1278 C1281 1.348 . S
C1278 H1316 0.929 . S
N1279 Li1234 1.990 . S
N1279 C1276 1.314 . S
N1279 C1277 1.279 . S
C1280 C1277 1.358 . S
C1280 C1281 1.356 . S
C1280 H1317 0.930 . S
C1281 C1278 1.348 . S
C1281 C1280 1.356 . S
H1282 C1276 0.930 . S
H1283 C1277 0.930 . S
C1284 N1285 1.314 . S
C1284 C1286 1.353 . S
C1284 H1290 0.930 . S
N1285 Li1235 1.990 . S
N1285 C1284 1.314 . S
N1285 C1288 1.279 . S
C1286 C1284 1.353 . S
C1286 C1289 1.348 . S
C1286 H1318 0.929 . S
C1287 C1288 1.358 . S
C1287 C1289 1.356 . S
C1287 H1319 0.930 . S
C1288 N1285 1.279 . S
C1288 C1287 1.358 . S
C1288 H1291 0.930 . S
C1289 C1286 1.348 . S
C1289 C1287 1.356 . S
H1290 C1284 0.930 . S
H1291 C1288 0.930 . S
O1292 Li1232 1.956 . S
O1292 Li1233 1.970 . S
O1292 Li1234 1.961 . S
O1292 C1236 1.325 . S
O1293 Li1232 1.970 . S
O1293 Li1233 1.956 . S
O1293 Li1235 1.961 . S
O1293 C1242 1.325 . S
O1294 Li1232 1.961 . S
O1294 Li1234 1.956 . S
O1294 Li1235 1.970 . S
O1294 C1264 1.325 . S
O1295 Li1233 1.961 . S
O1295 Li1234 1.970 . S
O1295 Li1235 1.956 . S
O1295 C1270 1.325 . S
H1296 C1238 0.929 . S
H1297 C1239 0.930 . S
H1298 C1240 0.930 . S
H1299 C1241 0.930 . S
H1300 C1243 0.930 . S
H1301 C1245 0.929 . S
H1302 C1246 0.930 . S
H1303 C1247 0.930 . S
H1304 C1250 0.930 . S
H1305 C1253 0.929 . S
H1306 C1258 0.929 . S
H1307 C1259 0.930 . S
H1308 C1266 0.929 . S
H1309 C1267 0.930 . S
H1310 C1268 0.930 . S
H1311 C1269 0.930 . S
H1312 C1271 0.929 . S
H1313 C1272 0.930 . S
H1314 C1273 0.930 . S
H1315 C1274 0.930 . S
H1316 C1278 0.929 . S
H1317 C1280 0.930 . S
H1318 C1286 0.929 . S
H1319 C1287 0.930 . S
Li1320 N1337 1.990 . S
Li1320 O1380 1.956 . S
Li1320 O1381 1.970 . S
Li1320 O1382 1.961 . S
Li1321 N1345 1.990 . S
Li1321 O1380 1.970 . S
Li1321 O1381 1.956 . S
Li1321 O1383 1.961 . S
Li1322 N1367 1.990 . S
Li1322 O1380 1.961 . S
Li1322 O1382 1.956 . S
Li1322 O1383 1.970 . S
Li1323 N1373 1.990 . S
Li1323 O1381 1.961 . S
Li1323 O1382 1.970 . S
Li1323 O1383 1.956 . S
C1324 C1326 1.348 . S
C1324 C1327 1.356 . S
C1324 O1380 1.325 . S
N1325 C1328 1.314 . S
N1325 C1329 1.279 . S
C1326 C1324 1.348 . S
C1326 C1328 1.353 . S
C1326 H1384 0.929 . S
C1327 C1324 1.356 . S
C1327 C1329 1.358 . S
C1327 H1385 0.930 . S
C1328 N1325 1.314 . S
C1328 C1326 1.353 . S
C1328 H1386 0.930 . S
C1329 N1325 1.279 . S
C1329 C1327 1.358 . S
C1329 H1387 0.930 . S
C1330 C1333 1.348 . S
C1330 C1334 1.356 . S
C1330 O1381 1.325 . S
C1331 N1332 1.279 . S
C1331 C1334 1.358 . S
C1331 H1388 0.930 . S
N1332 C1331 1.279 . S
N1332 C1335 1.314 . S
C1333 C1330 1.348 . S
C1333 C1335 1.353 . S
C1333 H1389 0.929 . S
C1334 C1330 1.356 . S
C1334 C1331 1.358 . S
C1334 H1390 0.930 . S
C1335 N1332 1.314 . S
C1335 C1333 1.353 . S
C1335 H1391 0.930 . S
C1336 N1337 1.314 . S
C1336 C1341 1.353 . S
C1336 H1342 0.930 . S
N1337 Li1320 1.990 . S
N1337 C1336 1.314 . S
N1337 C1339 1.279 . S
C1338 C1339 1.358 . S
C1338 C1340 1.356 . S
C1338 H1392 0.930 . S
C1339 N1337 1.279 . S
C1339 C1338 1.358 . S
C1339 H1343 0.930 . S
C1340 C1338 1.356 . S
C1340 C1341 1.348 . S
C1341 C1336 1.353 . S
C1341 C1340 1.348 . S
C1341 H1393 0.929 . S
H1342 C1336 0.930 . S
H1343 C1339 0.930 . S
C1344 N1345 1.314 . S
C1344 C1346 1.353 . S
C1344 H1350 0.930 . S
N1345 Li1321 1.990 . S
N1345 C1344 1.314 . S
N1345 C1348 1.279 . S
C1346 C1344 1.353 . S
C1346 C1349 1.348 . S
C1346 H1394 0.929 . S
C1347 C1348 1.358 . S
C1347 C1349 1.356 . S
C1347 H1395 0.930 . S
C1348 N1345 1.279 . S
C1348 C1347 1.358 . S
C1348 H1351 0.930 . S
C1349 C1346 1.348 . S
C1349 C1347 1.356 . S
H1350 C1344 0.930 . S
H1351 C1348 0.930 . S
C1352 C1354 1.348 . S
C1352 C1355 1.356 . S
C1352 O1382 1.325 . S
N1353 C1356 1.314 . S
N1353 C1357 1.279 . S
C1354 C1352 1.348 . S
C1354 C1356 1.353 . S
C1354 H1396 0.929 . S
C1355 C1352 1.356 . S
C1355 C1357 1.358 . S
C1355 H1397 0.930 . S
C1356 N1353 1.314 . S
C1356 C1354 1.353 . S
C1356 H1398 0.930 . S
C1357 N1353 1.279 . S
C1357 C1355 1.358 . S
C1357 H1399 0.930 . S
C1358 C1359 1.348 . S
C1358 C1360 1.356 . S
C1358 O1383 1.325 . S
C1359 C1358 1.348 . S
C1359 C1361 1.353 . S
C1359 H1400 0.929 . S
C1360 C1358 1.356 . S
C1360 C1362 1.358 . S
C1360 H1401 0.930 . S
C1361 C1359 1.353 . S
C1361 N1363 1.314 . S
C1361 H1402 0.930 . S
C1362 C1360 1.358 . S
C1362 N1363 1.279 . S
C1362 H1403 0.930 . S
N1363 C1361 1.314 . S
N1363 C1362 1.279 . S
C1364 C1366 1.353 . S
C1364 N1367 1.314 . S
C1364 H1370 0.930 . S
C1365 N1367 1.279 . S
C1365 C1368 1.358 . S
C1365 H1371 0.930 . S
C1366 C1364 1.353 . S
C1366 C1369 1.348 . S
C1366 H1404 0.929 . S
N1367 Li1322 1.990 . S
N1367 C1364 1.314 . S
N1367 C1365 1.279 . S
C1368 C1365 1.358 . S
C1368 C1369 1.356 . S
C1368 H1405 0.930 . S
C1369 C1366 1.348 . S
C1369 C1368 1.356 . S
H1370 C1364 0.930 . S
H1371 C1365 0.930 . S
C1372 N1373 1.314 . S
C1372 C1374 1.353 . S
C1372 H1378 0.930 . S
N1373 Li1323 1.990 . S
N1373 C1372 1.314 . S
N1373 C1376 1.279 . S
C1374 C1372 1.353 . S
C1374 C1377 1.348 . S
C1374 H1406 0.929 . S
C1375 C1376 1.358 . S
C1375 C1377 1.356 . S
C1375 H1407 0.930 . S
C1376 N1373 1.279 . S
C1376 C1375 1.358 . S
C1376 H1379 0.930 . S
C1377 C1374 1.348 . S
C1377 C1375 1.356 . S
H1378 C1372 0.930 . S
H1379 C1376 0.930 . S
O1380 Li1320 1.956 . S
O1380 Li1321 1.970 . S
O1380 Li1322 1.961 . S
O1380 C1324 1.325 . S
O1381 Li1320 1.970 . S
O1381 Li1321 1.956 . S
O1381 Li1323 1.961 . S
O1381 C1330 1.325 . S
O1382 Li1320 1.961 . S
O1382 Li1322 1.956 . S
O1382 Li1323 1.970 . S
O1382 C1352 1.325 . S
O1383 Li1321 1.961 . S
O1383 Li1322 1.970 . S
O1383 Li1323 1.956 . S
O1383 C1358 1.325 . S
H1384 C1326 0.929 . S
H1385 C1327 0.930 . S
H1386 C1328 0.930 . S
H1387 C1329 0.930 . S
H1388 C1331 0.930 . S
H1389 C1333 0.929 . S
H1390 C1334 0.930 . S
H1391 C1335 0.930 . S
H1392 C1338 0.930 . S
H1393 C1341 0.929 . S
H1394 C1346 0.929 . S
H1395 C1347 0.930 . S
H1396 C1354 0.929 . S
H1397 C1355 0.930 . S
H1398 C1356 0.930 . S
H1399 C1357 0.930 . S
H1400 C1359 0.929 . S
H1401 C1360 0.930 . S
H1402 C1361 0.930 . S
H1403 C1362 0.930 . S
H1404 C1366 0.929 . S
H1405 C1368 0.930 . S
H1406 C1374 0.929 . S
H1407 C1375 0.930 . S
Li1408 N1425 1.990 . S
Li1408 O1468 1.956 . S
Li1408 O1469 1.970 . S
Li1408 O1470 1.961 . S
Li1409 N1433 1.990 . S
Li1409 O1468 1.970 . S
Li1409 O1469 1.956 . S
Li1409 O1471 1.961 . S
Li1410 N1455 1.990 . S
Li1410 O1468 1.961 . S
Li1410 O1470 1.956 . S
Li1410 O1471 1.970 . S
Li1411 N1461 1.990 . S
Li1411 O1469 1.961 . S
Li1411 O1470 1.970 . S
Li1411 O1471 1.956 . S
C1412 C1414 1.348 . S
C1412 C1415 1.356 . S
C1412 O1468 1.325 . S
N1413 C1416 1.316 1_545 S
N1413 C1417 1.279 . S
C1414 C1412 1.348 . S
C1414 C1416 1.333 1_545 S
C1414 H1472 0.929 . S
C1415 C1412 1.356 . S
C1415 C1417 1.358 . S
C1415 H1473 0.930 . S
C1416 N1413 1.316 1_565 S
C1416 C1414 1.333 1_565 S
C1416 H1474 0.951 . S
C1417 N1413 1.279 . S
C1417 C1415 1.358 . S
C1417 H1475 0.930 1_655 S
C1418 C1421 1.348 . S
C1418 C1422 1.356 . S
C1418 O1469 1.325 . S
C1419 N1420 1.279 . S
C1419 C1422 1.358 . S
C1419 H1476 0.930 . S
N1420 C1419 1.279 . S
N1420 C1423 1.314 . S
C1421 C1418 1.348 . S
C1421 C1423 1.353 . S
C1421 H1477 0.929 . S
C1422 C1418 1.356 . S
C1422 C1419 1.358 . S
C1422 H1478 0.930 . S
C1423 N1420 1.314 . S
C1423 C1421 1.353 . S
C1423 H1479 0.930 . S
C1424 N1425 1.314 . S
C1424 C1429 1.353 . S
C1424 H1430 0.930 . S
N1425 Li1408 1.990 . S
N1425 C1424 1.314 . S
N1425 C1427 1.279 . S
C1426 C1427 1.361 1_455 S
C1426 C1428 1.356 . S
C1426 H1480 0.927 . S
C1427 N1425 1.279 . S
C1427 C1426 1.361 1_655 S
C1427 H1431 0.930 . S
C1428 C1426 1.356 . S
C1428 C1429 1.348 1_455 S
C1429 C1424 1.353 . S
C1429 C1428 1.348 1_655 S
C1429 H1481 0.929 . S
H1430 C1424 0.930 . S
H1431 C1427 0.930 . S
C1432 N1433 1.314 . S
C1432 C1434 1.353 1_545 S
C1432 H1438 0.930 . S
N1433 Li1409 1.990 . S
N1433 C1432 1.314 . S
N1433 C1436 1.279 . S
C1434 C1432 1.353 1_565 S
C1434 C1437 1.348 . S
C1434 H1482 0.929 . S
C1435 C1436 1.358 1_565 S
C1435 C1437 1.356 . S
C1435 H1483 0.930 . S
C1436 N1433 1.279 . S
C1436 C1435 1.358 1_545 S
C1436 H1439 0.930 . S
C1437 C1434 1.348 . S
C1437 C1435 1.356 . S
H1438 C1432 0.930 . S
H1439 C1436 0.930 . S
C1440 C1442 1.348 . S
C1440 C1443 1.356 . S
C1440 O1470 1.325 . S
N1441 C1444 1.314 1_455 S
N1441 C1445 1.279 . S
C1442 C1440 1.348 . S
C1442 C1444 1.353 . S
C1442 H1484 0.929 . S
C1443 C1440 1.356 . S
C1443 C1445 1.358 1_655 S
C1443 H1485 0.929 1_655 S
C1444 N1441 1.314 1_655 S
C1444 C1442 1.353 . S
C1444 H1486 0.930 . S
C1445 N1441 1.279 . S
C1445 C1443 1.358 1_455 S
C1445 H1487 0.930 . S
C1446 C1447 1.348 . S
C1446 C1448 1.356 . S
C1446 O1471 1.325 . S
C1447 C1446 1.348 . S
C1447 C1449 1.353 . S
C1447 H1488 0.929 . S
C1448 C1446 1.356 . S
C1448 C1450 1.358 . S
C1448 H1489 0.930 . S
C1449 C1447 1.353 . S
C1449 N1451 1.314 . S
C1449 H1490 0.930 . S
C1450 C1448 1.358 . S
C1450 N1451 1.279 . S
C1450 H1491 0.930 . S
N1451 C1449 1.314 . S
N1451 C1450 1.279 . S
C1452 C1454 1.353 . S
C1452 N1455 1.314 . S
C1452 H1458 0.930 . S
C1453 N1455 1.279 . S
C1453 C1456 1.358 . S
C1453 H1459 0.930 . S
C1454 C1452 1.353 . S
C1454 C1457 1.348 . S
C1454 H1492 0.929 . S
N1455 Li1410 1.990 . S
N1455 C1452 1.314 . S
N1455 C1453 1.279 . S
C1456 C1453 1.358 . S
C1456 C1457 1.356 . S
C1456 H1493 0.930 1_655 S
C1457 C1454 1.348 . S
C1457 C1456 1.356 . S
H1458 C1452 0.930 . S
H1459 C1453 0.930 . S
C1460 N1461 1.314 . S
C1460 C1462 1.353 . S
C1460 H1466 0.930 . S
N1461 Li1411 1.990 . S
N1461 C1460 1.314 . S
N1461 C1464 1.279 . S
C1462 C1460 1.353 . S
C1462 C1465 1.348 . S
C1462 H1494 0.929 . S
C1463 C1464 1.358 . S
C1463 C1465 1.356 . S
C1463 H1495 0.930 . S
C1464 N1461 1.279 . S
C1464 C1463 1.358 . S
C1464 H1467 0.930 . S
C1465 C1462 1.348 . S
C1465 C1463 1.356 . S
H1466 C1460 0.930 . S
H1467 C1464 0.930 . S
O1468 Li1408 1.956 . S
O1468 Li1409 1.970 . S
O1468 Li1410 1.961 . S
O1468 C1412 1.325 . S
O1469 Li1408 1.970 . S
O1469 Li1409 1.956 . S
O1469 Li1411 1.961 . S
O1469 C1418 1.325 . S
O1470 Li1408 1.961 . S
O1470 Li1410 1.956 . S
O1470 Li1411 1.970 . S
O1470 C1440 1.325 . S
O1471 Li1409 1.961 . S
O1471 Li1410 1.970 . S
O1471 Li1411 1.956 . S
O1471 C1446 1.325 . S
H1472 C1414 0.929 . S
H1473 C1415 0.930 . S
H1474 C1416 0.951 . S
H1475 C1417 0.930 1_455 S
H1476 C1419 0.930 . S
H1477 C1421 0.929 . S
H1478 C1422 0.930 . S
H1479 C1423 0.930 . S
H1480 C1426 0.927 . S
H1481 C1429 0.929 . S
H1482 C1434 0.929 . S
H1483 C1435 0.930 . S
H1484 C1442 0.929 . S
H1485 C1443 0.929 1_455 S
H1486 C1444 0.930 . S
H1487 C1445 0.930 . S
H1488 C1447 0.929 . S
H1489 C1448 0.930 . S
H1490 C1449 0.930 . S
H1491 C1450 0.930 . S
H1492 C1454 0.929 . S
H1493 C1456 0.930 1_455 S
H1494 C1462 0.929 . S
H1495 C1463 0.930 . S
Li1496 N1513 1.990 . S
Li1496 O1556 1.956 . S
Li1496 O1557 1.970 . S
Li1496 O1558 1.961 . S
Li1497 N1521 1.990 . S
Li1497 O1556 1.970 . S
Li1497 O1557 1.956 . S
Li1497 O1559 1.961 . S
Li1498 N1543 1.990 . S
Li1498 O1556 1.961 . S
Li1498 O1558 1.956 . S
Li1498 O1559 1.970 . S
Li1499 N1549 1.990 . S
Li1499 O1557 1.961 . S
Li1499 O1558 1.970 . S
Li1499 O1559 1.956 . S
C1500 C1502 1.348 . S
C1500 C1503 1.356 . S
C1500 O1556 1.325 . S
N1501 C1504 1.314 . S
N1501 C1505 1.279 . S
C1502 C1500 1.348 . S
C1502 C1504 1.353 . S
C1502 H1560 0.929 . S
C1503 C1500 1.356 . S
C1503 C1505 1.358 . S
C1503 H1561 0.930 . S
C1504 N1501 1.314 . S
C1504 C1502 1.353 . S
C1504 H1562 0.930 . S
C1505 N1501 1.279 . S
C1505 C1503 1.358 . S
C1505 H1563 0.930 . S
C1506 C1509 1.348 . S
C1506 C1510 1.356 . S
C1506 O1557 1.325 . S
C1507 N1508 1.279 . S
C1507 C1510 1.358 . S
C1507 H1564 0.930 . S
N1508 C1507 1.279 . S
N1508 C1511 1.314 . S
C1509 C1506 1.348 . S
C1509 C1511 1.353 . S
C1509 H1565 0.929 . S
C1510 C1506 1.356 . S
C1510 C1507 1.358 . S
C1510 H1566 0.930 . S
C1511 N1508 1.314 . S
C1511 C1509 1.353 . S
C1511 H1567 0.930 . S
C1512 N1513 1.314 . S
C1512 C1517 1.353 . S
C1512 H1518 0.930 . S
N1513 Li1496 1.990 . S
N1513 C1512 1.314 . S
N1513 C1515 1.279 . S
C1514 C1515 1.358 . S
C1514 C1516 1.356 . S
C1514 H1568 0.930 . S
C1515 N1513 1.279 . S
C1515 C1514 1.358 . S
C1515 H1519 0.930 . S
C1516 C1514 1.356 . S
C1516 C1517 1.348 . S
C1517 C1512 1.353 . S
C1517 C1516 1.348 . S
C1517 H1569 0.929 . S
H1518 C1512 0.930 . S
H1519 C1515 0.930 . S
C1520 N1521 1.314 . S
C1520 C1522 1.353 . S
C1520 H1526 0.930 . S
N1521 Li1497 1.990 . S
N1521 C1520 1.314 . S
N1521 C1524 1.279 . S
C1522 C1520 1.353 . S
C1522 C1525 1.348 . S
C1522 H1570 0.929 . S
C1523 C1524 1.358 . S
C1523 C1525 1.356 . S
C1523 H1571 0.930 . S
C1524 N1521 1.279 . S
C1524 C1523 1.358 . S
C1524 H1527 0.930 . S
C1525 C1522 1.348 . S
C1525 C1523 1.356 . S
H1526 C1520 0.930 . S
H1527 C1524 0.930 . S
C1528 C1530 1.348 . S
C1528 C1531 1.356 . S
C1528 O1558 1.325 . S
N1529 C1532 1.314 . S
N1529 C1533 1.279 . S
C1530 C1528 1.348 . S
C1530 C1532 1.353 . S
C1530 H1572 0.929 . S
C1531 C1528 1.356 . S
C1531 C1533 1.358 . S
C1531 H1573 0.930 . S
C1532 N1529 1.314 . S
C1532 C1530 1.353 . S
C1532 H1574 0.930 . S
C1533 N1529 1.279 . S
C1533 C1531 1.358 . S
C1533 H1575 0.930 . S
C1534 C1535 1.348 . S
C1534 C1536 1.356 . S
C1534 O1559 1.325 . S
C1535 C1534 1.348 . S
C1535 C1537 1.353 . S
C1535 H1576 0.929 . S
C1536 C1534 1.356 . S
C1536 C1538 1.358 . S
C1536 H1577 0.930 . S
C1537 C1535 1.353 . S
C1537 N1539 1.314 . S
C1537 H1578 0.930 . S
C1538 C1536 1.358 . S
C1538 N1539 1.279 . S
C1538 H1579 0.930 . S
N1539 C1537 1.314 . S
N1539 C1538 1.279 . S
C1540 C1542 1.353 . S
C1540 N1543 1.314 . S
C1540 H1546 0.930 . S
C1541 N1543 1.279 . S
C1541 C1544 1.358 . S
C1541 H1547 0.930 . S
C1542 C1540 1.353 . S
C1542 C1545 1.348 . S
C1542 H1580 0.929 . S
N1543 Li1498 1.990 . S
N1543 C1540 1.314 . S
N1543 C1541 1.279 . S
C1544 C1541 1.358 . S
C1544 C1545 1.356 . S
C1544 H1581 0.930 . S
C1545 C1542 1.348 . S
C1545 C1544 1.356 . S
H1546 C1540 0.930 . S
H1547 C1541 0.930 . S
C1548 N1549 1.314 . S
C1548 C1550 1.353 . S
C1548 H1554 0.930 . S
N1549 Li1499 1.990 . S
N1549 C1548 1.314 . S
N1549 C1552 1.279 . S
C1550 C1548 1.353 . S
C1550 C1553 1.348 . S
C1550 H1582 0.929 . S
C1551 C1552 1.358 . S
C1551 C1553 1.356 . S
C1551 H1583 0.930 . S
C1552 N1549 1.279 . S
C1552 C1551 1.358 . S
C1552 H1555 0.930 . S
C1553 C1550 1.348 . S
C1553 C1551 1.356 . S
H1554 C1548 0.930 . S
H1555 C1552 0.930 . S
O1556 Li1496 1.956 . S
O1556 Li1497 1.970 . S
O1556 Li1498 1.961 . S
O1556 C1500 1.325 . S
O1557 Li1496 1.970 . S
O1557 Li1497 1.956 . S
O1557 Li1499 1.961 . S
O1557 C1506 1.325 . S
O1558 Li1496 1.961 . S
O1558 Li1498 1.956 . S
O1558 Li1499 1.970 . S
O1558 C1528 1.325 . S
O1559 Li1497 1.961 . S
O1559 Li1498 1.970 . S
O1559 Li1499 1.956 . S
O1559 C1534 1.325 . S
H1560 C1502 0.929 . S
H1561 C1503 0.930 . S
H1562 C1504 0.930 . S
H1563 C1505 0.930 . S
H1564 C1507 0.930 . S
H1565 C1509 0.929 . S
H1566 C1510 0.930 . S
H1567 C1511 0.930 . S
H1568 C1514 0.930 . S
H1569 C1517 0.929 . S
H1570 C1522 0.929 . S
H1571 C1523 0.930 . S
H1572 C1530 0.929 . S
H1573 C1531 0.930 . S
H1574 C1532 0.930 . S
H1575 C1533 0.930 . S
H1576 C1535 0.929 . S
H1577 C1536 0.930 . S
H1578 C1537 0.930 . S
H1579 C1538 0.930 . S
H1580 C1542 0.929 . S
H1581 C1544 0.930 . S
H1582 C1550 0.929 . S
H1583 C1551 0.930 . S
Li1584 N1601 1.990 . S
Li1584 O1644 1.956 . S
Li1584 O1645 1.970 . S
Li1584 O1646 1.961 . S
Li1585 N1609 1.990 . S
Li1585 O1644 1.970 . S
Li1585 O1645 1.956 . S
Li1585 O1647 1.961 . S
Li1586 N1631 1.990 . S
Li1586 O1644 1.961 . S
Li1586 O1646 1.956 . S
Li1586 O1647 1.970 . S
Li1587 N1637 1.990 . S
Li1587 O1645 1.961 . S
Li1587 O1646 1.970 . S
Li1587 O1647 1.956 . S
C1588 C1590 1.348 . S
C1588 C1591 1.356 . S
C1588 O1644 1.325 . S
N1589 C1592 1.314 . S
N1589 C1593 1.279 . S
C1590 C1588 1.348 . S
C1590 C1592 1.353 . S
C1590 H1648 0.929 . S
C1591 C1588 1.356 . S
C1591 C1593 1.358 . S
C1591 H1649 0.930 . S
C1592 N1589 1.314 . S
C1592 C1590 1.353 . S
C1592 H1650 0.930 . S
C1593 N1589 1.279 . S
C1593 C1591 1.358 . S
C1593 H1651 0.930 . S
C1594 C1597 1.348 . S
C1594 C1598 1.356 . S
C1594 O1645 1.325 . S
C1595 N1596 1.279 . S
C1595 C1598 1.358 . S
C1595 H1652 0.930 . S
N1596 C1595 1.279 . S
N1596 C1599 1.314 . S
C1597 C1594 1.348 . S
C1597 C1599 1.353 . S
C1597 H1653 0.929 . S
C1598 C1594 1.356 . S
C1598 C1595 1.358 . S
C1598 H1654 0.930 . S
C1599 N1596 1.314 . S
C1599 C1597 1.353 . S
C1599 H1655 0.930 . S
C1600 N1601 1.314 . S
C1600 C1605 1.353 . S
C1600 H1606 0.930 . S
N1601 Li1584 1.990 . S
N1601 C1600 1.314 . S
N1601 C1603 1.279 . S
C1602 C1603 1.358 . S
C1602 C1604 1.356 . S
C1602 H1656 0.930 . S
C1603 N1601 1.279 . S
C1603 C1602 1.358 . S
C1603 H1607 0.930 . S
C1604 C1602 1.356 . S
C1604 C1605 1.348 . S
C1605 C1600 1.353 . S
C1605 C1604 1.348 . S
C1605 H1657 0.929 . S
H1606 C1600 0.930 . S
H1607 C1603 0.930 . S
C1608 N1609 1.314 . S
C1608 C1610 1.353 . S
C1608 H1614 0.930 . S
N1609 Li1585 1.990 . S
N1609 C1608 1.314 . S
N1609 C1612 1.279 . S
C1610 C1608 1.353 . S
C1610 C1613 1.348 . S
C1610 H1658 0.929 . S
C1611 C1612 1.358 . S
C1611 C1613 1.356 . S
C1611 H1659 0.930 . S
C1612 N1609 1.279 . S
C1612 C1611 1.358 . S
C1612 H1615 0.930 . S
C1613 C1610 1.348 . S
C1613 C1611 1.356 . S
H1614 C1608 0.930 . S
H1615 C1612 0.930 . S
C1616 C1618 1.348 . S
C1616 C1619 1.356 . S
C1616 O1646 1.325 . S
N1617 C1620 1.314 . S
N1617 C1621 1.279 . S
C1618 C1616 1.348 . S
C1618 C1620 1.353 . S
C1618 H1660 0.929 . S
C1619 C1616 1.356 . S
C1619 C1621 1.358 . S
C1619 H1661 0.930 . S
C1620 N1617 1.314 . S
C1620 C1618 1.353 . S
C1620 H1662 0.930 . S
C1621 N1617 1.279 . S
C1621 C1619 1.358 . S
C1621 H1663 0.930 . S
C1622 C1623 1.348 . S
C1622 C1624 1.356 . S
C1622 O1647 1.325 . S
C1623 C1622 1.348 . S
C1623 C1625 1.353 . S
C1623 H1664 0.929 . S
C1624 C1622 1.356 . S
C1624 C1626 1.358 . S
C1624 H1665 0.930 . S
C1625 C1623 1.353 . S
C1625 N1627 1.314 . S
C1625 H1666 0.930 . S
C1626 C1624 1.358 . S
C1626 N1627 1.279 . S
C1626 H1667 0.930 . S
N1627 C1625 1.314 . S
N1627 C1626 1.279 . S
C1628 C1630 1.353 . S
C1628 N1631 1.314 . S
C1628 H1634 0.930 . S
C1629 N1631 1.279 . S
C1629 C1632 1.358 . S
C1629 H1635 0.930 . S
C1630 C1628 1.353 . S
C1630 C1633 1.348 . S
C1630 H1668 0.929 . S
N1631 Li1586 1.990 . S
N1631 C1628 1.314 . S
N1631 C1629 1.279 . S
C1632 C1629 1.358 . S
C1632 C1633 1.356 . S
C1632 H1669 0.930 . S
C1633 C1630 1.348 . S
C1633 C1632 1.356 . S
H1634 C1628 0.930 . S
H1635 C1629 0.930 . S
C1636 N1637 1.314 . S
C1636 C1638 1.353 . S
C1636 H1642 0.930 . S
N1637 Li1587 1.990 . S
N1637 C1636 1.314 . S
N1637 C1640 1.279 . S
C1638 C1636 1.353 . S
C1638 C1641 1.348 . S
C1638 H1670 0.929 . S
C1639 C1640 1.358 . S
C1639 C1641 1.356 . S
C1639 H1671 0.930 . S
C1640 N1637 1.279 . S
C1640 C1639 1.358 . S
C1640 H1643 0.930 . S
C1641 C1638 1.348 . S
C1641 C1639 1.356 . S
H1642 C1636 0.930 . S
H1643 C1640 0.930 . S
O1644 Li1584 1.956 . S
O1644 Li1585 1.970 . S
O1644 Li1586 1.961 . S
O1644 C1588 1.325 . S
O1645 Li1584 1.970 . S
O1645 Li1585 1.956 . S
O1645 Li1587 1.961 . S
O1645 C1594 1.325 . S
O1646 Li1584 1.961 . S
O1646 Li1586 1.956 . S
O1646 Li1587 1.970 . S
O1646 C1616 1.325 . S
O1647 Li1585 1.961 . S
O1647 Li1586 1.970 . S
O1647 Li1587 1.956 . S
O1647 C1622 1.325 . S
H1648 C1590 0.929 . S
H1649 C1591 0.930 . S
H1650 C1592 0.930 . S
H1651 C1593 0.930 . S
H1652 C1595 0.930 . S
H1653 C1597 0.929 . S
H1654 C1598 0.930 . S
H1655 C1599 0.930 . S
H1656 C1602 0.930 . S
H1657 C1605 0.929 . S
H1658 C1610 0.929 . S
H1659 C1611 0.930 . S
H1660 C1618 0.929 . S
H1661 C1619 0.930 . S
H1662 C1620 0.930 . S
H1663 C1621 0.930 . S
H1664 C1623 0.929 . S
H1665 C1624 0.930 . S
H1666 C1625 0.930 . S
H1667 C1626 0.930 . S
H1668 C1630 0.929 . S
H1669 C1632 0.930 . S
H1670 C1638 0.929 . S
H1671 C1639 0.930 . S
Li1672 N1689 1.990 . S
Li1672 O1732 1.956 . S
Li1672 O1733 1.970 . S
Li1672 O1734 1.961 . S
Li1673 N1697 1.990 . S
Li1673 O1732 1.970 . S
Li1673 O1733 1.956 . S
Li1673 O1735 1.961 . S
Li1674 N1719 1.990 . S
Li1674 O1732 1.961 . S
Li1674 O1734 1.956 . S
Li1674 O1735 1.970 . S
Li1675 N1725 1.990 . S
Li1675 O1733 1.961 . S
Li1675 O1734 1.970 . S
Li1675 O1735 1.956 . S
C1676 C1678 1.348 . S
C1676 C1679 1.356 . S
C1676 O1732 1.325 . S
N1677 C1680 1.314 . S
N1677 C1681 1.279 . S
C1678 C1676 1.348 . S
C1678 C1680 1.353 . S
C1678 H1736 0.929 . S
C1679 C1676 1.356 . S
C1679 C1681 1.358 . S
C1679 H1737 0.930 . S
C1680 N1677 1.314 . S
C1680 C1678 1.353 . S
C1680 H1738 0.930 . S
C1681 N1677 1.279 . S
C1681 C1679 1.358 . S
C1681 H1739 0.930 . S
C1682 C1685 1.348 . S
C1682 C1686 1.356 . S
C1682 O1733 1.325 . S
C1683 N1684 1.279 . S
C1683 C1686 1.358 . S
C1683 H1740 0.930 . S
N1684 C1683 1.279 . S
N1684 C1687 1.314 . S
C1685 C1682 1.348 . S
C1685 C1687 1.353 . S
C1685 H1741 0.929 . S
C1686 C1682 1.356 . S
C1686 C1683 1.358 . S
C1686 H1742 0.930 . S
C1687 N1684 1.314 . S
C1687 C1685 1.353 . S
C1687 H1743 0.930 . S
C1688 N1689 1.314 . S
C1688 C1693 1.353 . S
C1688 H1694 0.930 . S
N1689 Li1672 1.990 . S
N1689 C1688 1.314 . S
N1689 C1691 1.279 . S
C1690 C1691 1.358 . S
C1690 C1692 1.356 . S
C1690 H1744 0.930 . S
C1691 N1689 1.279 . S
C1691 C1690 1.358 . S
C1691 H1695 0.930 . S
C1692 C1690 1.356 . S
C1692 C1693 1.348 . S
C1693 C1688 1.353 . S
C1693 C1692 1.348 . S
C1693 H1745 0.929 . S
H1694 C1688 0.930 . S
H1695 C1691 0.930 . S
C1696 N1697 1.314 . S
C1696 C1698 1.353 . S
C1696 H1702 0.930 . S
N1697 Li1673 1.990 . S
N1697 C1696 1.314 . S
N1697 C1700 1.279 . S
C1698 C1696 1.353 . S
C1698 C1701 1.348 . S
C1698 H1746 0.929 . S
C1699 C1700 1.358 . S
C1699 C1701 1.356 . S
C1699 H1747 0.930 . S
C1700 N1697 1.279 . S
C1700 C1699 1.358 . S
C1700 H1703 0.930 . S
C1701 C1698 1.348 . S
C1701 C1699 1.356 . S
H1702 C1696 0.930 . S
H1703 C1700 0.930 . S
C1704 C1706 1.348 1_545 S
C1704 C1707 1.350 . S
C1704 O1734 1.325 . S
N1705 C1708 1.314 . S
N1705 C1709 1.279 . S
C1706 C1704 1.348 1_565 S
C1706 C1708 1.353 . S
C1706 H1748 0.929 . S
C1707 C1704 1.350 . S
C1707 C1709 1.317 1_545 S
C1707 H1749 0.979 . S
C1708 N1705 1.314 . S
C1708 C1706 1.353 . S
C1708 H1750 0.930 . S
C1709 N1705 1.279 . S
C1709 C1707 1.317 1_565 S
C1709 H1751 0.930 . S
C1710 C1711 1.348 . S
C1710 C1712 1.356 . S
C1710 O1735 1.325 . S
C1711 C1710 1.348 . S
C1711 C1713 1.353 . S
C1711 H1752 0.929 . S
C1712 C1710 1.356 . S
C1712 C1714 1.358 . S
C1712 H1753 0.930 . S
C1713 C1711 1.353 . S
C1713 N1715 1.314 . S
C1713 H1754 0.930 . S
C1714 C1712 1.358 . S
C1714 N1715 1.279 . S
C1714 H1755 0.930 . S
N1715 C1713 1.314 . S
N1715 C1714 1.279 . S
C1716 C1718 1.353 . S
C1716 N1719 1.314 . S
C1716 H1722 0.930 . S
C1717 N1719 1.279 . S
C1717 C1720 1.358 . S
C1717 H1723 0.930 . S
C1718 C1716 1.353 . S
C1718 C1721 1.348 . S
C1718 H1756 0.929 . S
N1719 Li1674 1.990 . S
N1719 C1716 1.314 . S
N1719 C1717 1.279 . S
C1720 C1717 1.358 . S
C1720 C1721 1.356 . S
C1720 H1757 0.913 1_545 S
C1721 C1718 1.348 . S
C1721 C1720 1.356 . S
H1722 C1716 0.930 . S
H1723 C1717 0.930 . S
C1724 N1725 1.314 1_565 S
C1724 C1726 1.353 . S
C1724 H1730 0.930 1_565 S
N1725 Li1675 1.990 . S
N1725 C1724 1.314 1_545 S
N1725 C1728 1.279 1_545 S
C1726 C1724 1.353 . S
C1726 C1729 1.348 . S
C1726 H1758 0.929 . S
C1727 C1728 1.358 . S
C1727 C1729 1.356 . S
C1727 H1759 0.930 . S
C1728 N1725 1.279 1_565 S
C1728 C1727 1.358 . S
C1728 H1731 0.930 1_565 S
C1729 C1726 1.348 . S
C1729 C1727 1.356 . S
H1730 C1724 0.930 1_545 S
H1731 C1728 0.930 1_545 S
O1732 Li1672 1.956 . S
O1732 Li1673 1.970 . S
O1732 Li1674 1.961 . S
O1732 C1676 1.325 . S
O1733 Li1672 1.970 . S
O1733 Li1673 1.956 . S
O1733 Li1675 1.961 . S
O1733 C1682 1.325 . S
O1734 Li1672 1.961 . S
O1734 Li1674 1.956 . S
O1734 Li1675 1.970 . S
O1734 C1704 1.325 . S
O1735 Li1673 1.961 . S
O1735 Li1674 1.970 . S
O1735 Li1675 1.956 . S
O1735 C1710 1.325 . S
H1736 C1678 0.929 . S
H1737 C1679 0.930 . S
H1738 C1680 0.930 . S
H1739 C1681 0.930 . S
H1740 C1683 0.930 . S
H1741 C1685 0.929 . S
H1742 C1686 0.930 . S
H1743 C1687 0.930 . S
H1744 C1690 0.930 . S
H1745 C1693 0.929 . S
H1746 C1698 0.929 . S
H1747 C1699 0.930 . S
H1748 C1706 0.929 . S
H1749 C1707 0.979 . S
H1750 C1708 0.930 . S
H1751 C1709 0.930 . S
H1752 C1711 0.929 . S
H1753 C1712 0.930 . S
H1754 C1713 0.930 . S
H1755 C1714 0.930 . S
H1756 C1718 0.929 . S
H1757 C1720 0.913 1_565 S
H1758 C1726 0.929 . S
H1759 C1727 0.930 . S
Li1760 N1777 1.990 . S
Li1760 O1820 1.956 . S
Li1760 O1821 1.970 . S
Li1760 O1822 1.961 . S
Li1761 N1785 1.989 . S
Li1761 O1820 1.974 1_556 S
Li1761 O1821 1.934 1_556 S
Li1761 O1823 1.983 . S
Li1762 N1807 1.990 . S
Li1762 O1820 1.961 1_556 S
Li1762 O1822 1.956 1_556 S
Li1762 O1823 1.970 . S
Li1763 N1813 1.990 . S
Li1763 O1821 1.961 1_556 S
Li1763 O1822 1.970 1_556 S
Li1763 O1823 1.956 . S
C1764 C1766 1.348 . S
C1764 C1767 1.356 . S
C1764 O1820 1.325 . S
N1765 C1768 1.314 . S
N1765 C1769 1.279 . S
C1766 C1764 1.348 . S
C1766 C1768 1.353 . S
C1766 H1824 0.929 . S
C1767 C1764 1.356 . S
C1767 C1769 1.358 . S
C1767 H1825 0.930 . S
C1768 N1765 1.314 . S
C1768 C1766 1.353 . S
C1768 H1826 0.930 . S
C1769 N1765 1.279 . S
C1769 C1767 1.358 . S
C1769 H1827 0.930 . S
C1770 C1773 1.348 . S
C1770 C1774 1.356 . S
C1770 O1821 1.325 . S
C1771 N1772 1.279 . S
C1771 C1774 1.358 . S
C1771 H1828 0.930 . S
N1772 C1771 1.279 . S
N1772 C1775 1.314 . S
C1773 C1770 1.348 . S
C1773 C1775 1.353 . S
C1773 H1829 0.929 . S
C1774 C1770 1.356 . S
C1774 C1771 1.358 . S
C1774 H1830 0.930 . S
C1775 N1772 1.314 . S
C1775 C1773 1.353 . S
C1775 H1831 0.930 . S
C1776 N1777 1.314 . S
C1776 C1781 1.353 . S
C1776 H1782 0.930 . S
N1777 Li1760 1.990 . S
N1777 C1776 1.314 . S
N1777 C1779 1.279 . S
C1778 C1779 1.358 . S
C1778 C1780 1.356 . S
C1778 H1832 0.930 . S
C1779 N1777 1.279 . S
C1779 C1778 1.358 . S
C1779 H1783 0.930 . S
C1780 C1778 1.356 . S
C1780 C1781 1.348 . S
C1781 C1776 1.353 . S
C1781 C1780 1.348 . S
C1781 H1833 0.929 . S
H1782 C1776 0.930 . S
H1783 C1779 0.930 . S
C1784 N1785 1.314 . S
C1784 C1786 1.353 . S
C1784 H1790 0.930 . S
N1785 Li1761 1.989 . S
N1785 C1784 1.314 . S
N1785 C1788 1.279 1_556 S
C1786 C1784 1.353 . S
C1786 C1789 1.348 . S
C1786 H1834 0.929 . S
C1787 C1788 1.358 . S
C1787 C1789 1.356 1_554 S
C1787 H1835 0.930 . S
C1788 N1785 1.279 1_554 S
C1788 C1787 1.358 . S
C1788 H1791 0.930 . S
C1789 C1786 1.348 . S
C1789 C1787 1.356 1_556 S
H1790 C1784 0.930 . S
H1791 C1788 0.930 . S
C1792 C1794 1.348 1_554 S
C1792 C1795 1.356 . S
C1792 O1822 1.325 . S
N1793 C1796 1.314 1_554 S
N1793 C1797 1.279 . S
C1794 C1792 1.348 1_556 S
C1794 C1796 1.353 . S
C1794 H1836 0.929 . S
C1795 C1792 1.356 . S
C1795 C1797 1.358 . S
C1795 H1837 0.930 . S
C1796 N1793 1.314 1_556 S
C1796 C1794 1.353 . S
C1796 H1838 0.930 . S
C1797 N1793 1.279 . S
C1797 C1795 1.358 . S
C1797 H1839 0.930 . S
C1798 C1799 1.348 . S
C1798 C1800 1.356 . S
C1798 O1823 1.325 . S
C1799 C1798 1.348 . S
C1799 C1801 1.353 . S
C1799 H1840 0.929 . S
C1800 C1798 1.356 . S
C1800 C1802 1.358 . S
C1800 H1841 0.930 . S
C1801 C1799 1.353 . S
C1801 N1803 1.314 . S
C1801 H1842 0.930 . S
C1802 C1800 1.358 . S
C1802 N1803 1.279 . S
C1802 H1843 0.930 . S
N1803 C1801 1.314 . S
N1803 C1802 1.279 . S
C1804 C1806 1.353 . S
C1804 N1807 1.314 . S
C1804 H1810 0.930 . S
C1805 N1807 1.279 . S
C1805 C1808 1.358 . S
C1805 H1811 0.930 . S
C1806 C1804 1.353 . S
C1806 C1809 1.348 . S
C1806 H1844 0.929 . S
N1807 Li1762 1.990 . S
N1807 C1804 1.314 . S
N1807 C1805 1.279 . S
C1808 C1805 1.358 . S
C1808 C1809 1.356 . S
C1808 H1845 0.930 . S
C1809 C1806 1.348 . S
C1809 C1808 1.356 . S
H1810 C1804 0.930 . S
H1811 C1805 0.930 . S
C1812 N1813 1.314 1_554 S
C1812 C1814 1.353 . S
C1812 H1818 0.930 . S
N1813 Li1763 1.990 . S
N1813 C1812 1.314 1_556 S
N1813 C1816 1.279 . S
C1814 C1812 1.353 . S
C1814 C1817 1.348 1_554 S
C1814 H1846 0.929 . S
C1815 C1816 1.358 . S
C1815 C1817 1.356 . S
C1815 H1847 0.930 . S
C1816 N1813 1.279 . S
C1816 C1815 1.358 . S
C1816 H1819 0.930 . S
C1817 C1814 1.348 1_556 S
C1817 C1815 1.356 . S
H1818 C1812 0.930 . S
H1819 C1816 0.930 . S
O1820 Li1760 1.956 . S
O1820 Li1761 1.974 1_554 S
O1820 Li1762 1.961 1_554 S
O1820 C1764 1.325 . S
O1821 Li1760 1.970 . S
O1821 Li1761 1.934 1_554 S
O1821 Li1763 1.961 1_554 S
O1821 C1770 1.325 . S
O1822 Li1760 1.961 . S
O1822 Li1762 1.956 1_554 S
O1822 Li1763 1.970 1_554 S
O1822 C1792 1.325 . S
O1823 Li1761 1.983 . S
O1823 Li1762 1.970 . S
O1823 Li1763 1.956 . S
O1823 C1798 1.325 . S
H1824 C1766 0.929 . S
H1825 C1767 0.930 . S
H1826 C1768 0.930 . S
H1827 C1769 0.930 . S
H1828 C1771 0.930 . S
H1829 C1773 0.929 . S
H1830 C1774 0.930 . S
H1831 C1775 0.930 . S
H1832 C1778 0.930 . S
H1833 C1781 0.929 . S
H1834 C1786 0.929 . S
H1835 C1787 0.930 . S
H1836 C1794 0.929 . S
H1837 C1795 0.930 . S
H1838 C1796 0.930 . S
H1839 C1797 0.930 . S
H1840 C1799 0.929 . S
H1841 C1800 0.930 . S
H1842 C1801 0.930 . S
H1843 C1802 0.930 . S
H1844 C1806 0.929 . S
H1845 C1808 0.930 . S
H1846 C1814 0.929 . S
H1847 C1815 0.930 . S
Li1848 N1865 1.990 . S
Li1848 O1908 1.956 . S
Li1848 O1909 1.970 . S
Li1848 O1910 1.961 . S
Li1849 N1873 1.990 . S
Li1849 O1908 1.970 . S
Li1849 O1909 1.956 . S
Li1849 O1911 1.961 . S
Li1850 N1895 1.990 . S
Li1850 O1908 1.961 . S
Li1850 O1910 1.956 . S
Li1850 O1911 1.970 . S
Li1851 N1901 1.990 . S
Li1851 O1909 1.961 . S
Li1851 O1910 1.970 . S
Li1851 O1911 1.956 . S
C1852 C1854 1.348 . S
C1852 C1855 1.356 . S
C1852 O1908 1.325 . S
N1853 C1856 1.314 . S
N1853 C1857 1.279 . S
C1854 C1852 1.348 . S
C1854 C1856 1.353 . S
C1854 H1912 0.929 . S
C1855 C1852 1.356 . S
C1855 C1857 1.358 . S
C1855 H1913 0.930 . S
C1856 N1853 1.314 . S
C1856 C1854 1.353 . S
C1856 H1914 0.930 . S
C1857 N1853 1.279 . S
C1857 C1855 1.358 . S
C1857 H1915 0.930 . S
C1858 C1861 1.348 . S
C1858 C1862 1.356 . S
C1858 O1909 1.325 . S
C1859 N1860 1.279 . S
C1859 C1862 1.358 . S
C1859 H1916 0.930 . S
N1860 C1859 1.279 . S
N1860 C1863 1.314 . S
C1861 C1858 1.348 . S
C1861 C1863 1.353 . S
C1861 H1917 0.929 . S
C1862 C1858 1.356 . S
C1862 C1859 1.358 . S
C1862 H1918 0.930 . S
C1863 N1860 1.314 . S
C1863 C1861 1.353 . S
C1863 H1919 0.930 . S
C1864 N1865 1.314 . S
C1864 C1869 1.353 . S
C1864 H1870 0.930 . S
N1865 Li1848 1.990 . S
N1865 C1864 1.314 . S
N1865 C1867 1.279 . S
C1866 C1867 1.358 . S
C1866 C1868 1.356 . S
C1866 H1920 0.930 . S
C1867 N1865 1.279 . S
C1867 C1866 1.358 . S
C1867 H1871 0.930 . S
C1868 C1866 1.356 . S
C1868 C1869 1.348 . S
C1869 C1864 1.353 . S
C1869 C1868 1.348 . S
C1869 H1921 0.929 . S
H1870 C1864 0.930 . S
H1871 C1867 0.930 . S
C1872 N1873 1.314 . S
C1872 C1874 1.353 . S
C1872 H1878 0.930 . S
N1873 Li1849 1.990 . S
N1873 C1872 1.314 . S
N1873 C1876 1.279 . S
C1874 C1872 1.353 . S
C1874 C1877 1.348 . S
C1874 H1922 0.929 . S
C1875 C1876 1.358 . S
C1875 C1877 1.356 . S
C1875 H1923 0.930 . S
C1876 N1873 1.279 . S
C1876 C1875 1.358 . S
C1876 H1879 0.930 . S
C1877 C1874 1.348 . S
C1877 C1875 1.356 . S
H1878 C1872 0.930 . S
H1879 C1876 0.930 . S
C1880 C1882 1.348 . S
C1880 C1883 1.356 . S
C1880 O1910 1.325 . S
N1881 C1884 1.314 . S
N1881 C1885 1.279 . S
C1882 C1880 1.348 . S
C1882 C1884 1.353 . S
C1882 H1924 0.929 . S
C1883 C1880 1.356 . S
C1883 C1885 1.358 . S
C1883 H1925 0.930 . S
C1884 N1881 1.314 . S
C1884 C1882 1.353 . S
C1884 H1926 0.930 . S
C1885 N1881 1.279 . S
C1885 C1883 1.358 . S
C1885 H1927 0.930 . S
C1886 C1887 1.348 . S
C1886 C1888 1.356 . S
C1886 O1911 1.325 . S
C1887 C1886 1.348 . S
C1887 C1889 1.353 . S
C1887 H1928 0.929 . S
C1888 C1886 1.356 . S
C1888 C1890 1.358 . S
C1888 H1929 0.930 . S
C1889 C1887 1.353 . S
C1889 N1891 1.314 . S
C1889 H1930 0.930 . S
C1890 C1888 1.358 . S
C1890 N1891 1.279 . S
C1890 H1931 0.930 . S
N1891 C1889 1.314 . S
N1891 C1890 1.279 . S
C1892 C1894 1.353 . S
C1892 N1895 1.314 . S
C1892 H1898 0.930 . S
C1893 N1895 1.279 . S
C1893 C1896 1.358 . S
C1893 H1899 0.930 . S
C1894 C1892 1.353 . S
C1894 C1897 1.348 . S
C1894 H1932 0.929 . S
N1895 Li1850 1.990 . S
N1895 C1892 1.314 . S
N1895 C1893 1.279 . S
C1896 C1893 1.358 . S
C1896 C1897 1.356 . S
C1896 H1933 0.930 . S
C1897 C1894 1.348 . S
C1897 C1896 1.356 . S
H1898 C1892 0.930 . S
H1899 C1893 0.930 . S
C1900 N1901 1.314 . S
C1900 C1902 1.353 . S
C1900 H1906 0.930 . S
N1901 Li1851 1.990 . S
N1901 C1900 1.314 . S
N1901 C1904 1.279 . S
C1902 C1900 1.353 . S
C1902 C1905 1.348 . S
C1902 H1934 0.929 . S
C1903 C1904 1.358 . S
C1903 C1905 1.356 . S
C1903 H1935 0.930 . S
C1904 N1901 1.279 . S
C1904 C1903 1.358 . S
C1904 H1907 0.930 . S
C1905 C1902 1.348 . S
C1905 C1903 1.356 . S
H1906 C1900 0.930 . S
H1907 C1904 0.930 . S
O1908 Li1848 1.956 . S
O1908 Li1849 1.970 . S
O1908 Li1850 1.961 . S
O1908 C1852 1.325 . S
O1909 Li1848 1.970 . S
O1909 Li1849 1.956 . S
O1909 Li1851 1.961 . S
O1909 C1858 1.325 . S
O1910 Li1848 1.961 . S
O1910 Li1850 1.956 . S
O1910 Li1851 1.970 . S
O1910 C1880 1.325 . S
O1911 Li1849 1.961 . S
O1911 Li1850 1.970 . S
O1911 Li1851 1.956 . S
O1911 C1886 1.325 . S
H1912 C1854 0.929 . S
H1913 C1855 0.930 . S
H1914 C1856 0.930 . S
H1915 C1857 0.930 . S
H1916 C1859 0.930 . S
H1917 C1861 0.929 . S
H1918 C1862 0.930 . S
H1919 C1863 0.930 . S
H1920 C1866 0.930 . S
H1921 C1869 0.929 . S
H1922 C1874 0.929 . S
H1923 C1875 0.930 . S
H1924 C1882 0.929 . S
H1925 C1883 0.930 . S
H1926 C1884 0.930 . S
H1927 C1885 0.930 . S
H1928 C1887 0.929 . S
H1929 C1888 0.930 . S
H1930 C1889 0.930 . S
H1931 C1890 0.930 . S
H1932 C1894 0.929 . S
H1933 C1896 0.930 . S
H1934 C1902 0.929 . S
H1935 C1903 0.930 . S
Li1936 N1953 1.990 . S
Li1936 O1996 1.956 . S
Li1936 O1997 1.970 . S
Li1936 O1998 1.961 . S
Li1937 N1961 1.990 . S
Li1937 O1996 1.970 . S
Li1937 O1997 1.956 . S
Li1937 O1999 1.961 . S
Li1938 N1983 1.990 . S
Li1938 O1996 1.961 . S
Li1938 O1998 1.956 . S
Li1938 O1999 1.970 . S
Li1939 N1989 1.990 . S
Li1939 O1997 1.961 . S
Li1939 O1998 1.970 . S
Li1939 O1999 1.956 . S
C1940 C1942 1.348 . S
C1940 C1943 1.356 . S
C1940 O1996 1.325 . S
N1941 C1944 1.314 . S
N1941 C1945 1.279 . S
C1942 C1940 1.348 . S
C1942 C1944 1.353 . S
C1942 H2000 0.929 . S
C1943 C1940 1.356 . S
C1943 C1945 1.358 . S
C1943 H2001 0.930 . S
C1944 N1941 1.314 . S
C1944 C1942 1.353 . S
C1944 H2002 0.930 . S
C1945 N1941 1.279 . S
C1945 C1943 1.358 . S
C1945 H2003 0.930 . S
C1946 C1949 1.348 . S
C1946 C1950 1.356 . S
C1946 O1997 1.325 . S
C1947 N1948 1.279 . S
C1947 C1950 1.358 . S
C1947 H2004 0.930 . S
N1948 C1947 1.279 . S
N1948 C1951 1.314 . S
C1949 C1946 1.348 . S
C1949 C1951 1.353 . S
C1949 H2005 0.929 . S
C1950 C1946 1.356 . S
C1950 C1947 1.358 . S
C1950 H2006 0.930 . S
C1951 N1948 1.314 . S
C1951 C1949 1.353 . S
C1951 H2007 0.930 . S
C1952 N1953 1.314 . S
C1952 C1957 1.353 . S
C1952 H1958 0.930 . S
N1953 Li1936 1.990 . S
N1953 C1952 1.314 . S
N1953 C1955 1.279 . S
C1954 C1955 1.358 . S
C1954 C1956 1.356 . S
C1954 H2008 0.930 . S
C1955 N1953 1.279 . S
C1955 C1954 1.358 . S
C1955 H1959 0.930 . S
C1956 C1954 1.356 . S
C1956 C1957 1.348 . S
C1957 C1952 1.353 . S
C1957 C1956 1.348 . S
C1957 H2009 0.929 . S
H1958 C1952 0.930 . S
H1959 C1955 0.930 . S
C1960 N1961 1.314 . S
C1960 C1962 1.353 . S
C1960 H1966 0.930 . S
N1961 Li1937 1.990 . S
N1961 C1960 1.314 . S
N1961 C1964 1.279 . S
C1962 C1960 1.353 . S
C1962 C1965 1.348 . S
C1962 H2010 0.929 . S
C1963 C1964 1.358 . S
C1963 C1965 1.356 . S
C1963 H2011 0.930 . S
C1964 N1961 1.279 . S
C1964 C1963 1.358 . S
C1964 H1967 0.930 . S
C1965 C1962 1.348 . S
C1965 C1963 1.356 . S
H1966 C1960 0.930 . S
H1967 C1964 0.930 . S
C1968 C1970 1.348 . S
C1968 C1971 1.356 . S
C1968 O1998 1.325 . S
N1969 C1972 1.314 . S
N1969 C1973 1.279 . S
C1970 C1968 1.348 . S
C1970 C1972 1.353 . S
C1970 H2012 0.929 . S
C1971 C1968 1.356 . S
C1971 C1973 1.358 . S
C1971 H2013 0.930 . S
C1972 N1969 1.314 . S
C1972 C1970 1.353 . S
C1972 H2014 0.930 . S
C1973 N1969 1.279 . S
C1973 C1971 1.358 . S
C1973 H2015 0.930 . S
C1974 C1975 1.348 . S
C1974 C1976 1.356 . S
C1974 O1999 1.325 . S
C1975 C1974 1.348 . S
C1975 C1977 1.353 . S
C1975 H2016 0.929 . S
C1976 C1974 1.356 . S
C1976 C1978 1.358 . S
C1976 H2017 0.930 . S
C1977 C1975 1.353 . S
C1977 N1979 1.314 . S
C1977 H2018 0.930 . S
C1978 C1976 1.358 . S
C1978 N1979 1.279 . S
C1978 H2019 0.930 . S
N1979 C1977 1.314 . S
N1979 C1978 1.279 . S
C1980 C1982 1.353 . S
C1980 N1983 1.314 . S
C1980 H1986 0.930 . S
C1981 N1983 1.279 . S
C1981 C1984 1.358 . S
C1981 H1987 0.930 . S
C1982 C1980 1.353 . S
C1982 C1985 1.348 . S
C1982 H2020 0.929 . S
N1983 Li1938 1.990 . S
N1983 C1980 1.314 . S
N1983 C1981 1.279 . S
C1984 C1981 1.358 . S
C1984 C1985 1.356 . S
C1984 H2021 0.930 . S
C1985 C1982 1.348 . S
C1985 C1984 1.356 . S
H1986 C1980 0.930 . S
H1987 C1981 0.930 . S
C1988 N1989 1.314 . S
C1988 C1990 1.353 . S
C1988 H1994 0.930 . S
N1989 Li1939 1.990 . S
N1989 C1988 1.314 . S
N1989 C1992 1.279 . S
C1990 C1988 1.353 . S
C1990 C1993 1.348 . S
C1990 H2022 0.929 . S
C1991 C1992 1.358 . S
C1991 C1993 1.356 . S
C1991 H2023 0.930 . S
C1992 N1989 1.279 . S
C1992 C1991 1.358 . S
C1992 H1995 0.930 . S
C1993 C1990 1.348 . S
C1993 C1991 1.356 . S
H1994 C1988 0.930 . S
H1995 C1992 0.930 . S
O1996 Li1936 1.956 . S
O1996 Li1937 1.970 . S
O1996 Li1938 1.961 . S
O1996 C1940 1.325 . S
O1997 Li1936 1.970 . S
O1997 Li1937 1.956 . S
O1997 Li1939 1.961 . S
O1997 C1946 1.325 . S
O1998 Li1936 1.961 . S
O1998 Li1938 1.956 . S
O1998 Li1939 1.970 . S
O1998 C1968 1.325 . S
O1999 Li1937 1.961 . S
O1999 Li1938 1.970 . S
O1999 Li1939 1.956 . S
O1999 C1974 1.325 . S
H2000 C1942 0.929 . S
H2001 C1943 0.930 . S
H2002 C1944 0.930 . S
H2003 C1945 0.930 . S
H2004 C1947 0.930 . S
H2005 C1949 0.929 . S
H2006 C1950 0.930 . S
H2007 C1951 0.930 . S
H2008 C1954 0.930 . S
H2009 C1957 0.929 . S
H2010 C1962 0.929 . S
H2011 C1963 0.930 . S
H2012 C1970 0.929 . S
H2013 C1971 0.930 . S
H2014 C1972 0.930 . S
H2015 C1973 0.930 . S
H2016 C1975 0.929 . S
H2017 C1976 0.930 . S
H2018 C1977 0.930 . S
H2019 C1978 0.930 . S
H2020 C1982 0.929 . S
H2021 C1984 0.930 . S
H2022 C1990 0.929 . S
H2023 C1991 0.930 . S
Li2024 N2041 1.990 . S
Li2024 O2084 1.956 . S
Li2024 O2085 1.970 . S
Li2024 O2086 1.961 . S
Li2025 N2049 1.990 . S
Li2025 O2084 1.970 . S
Li2025 O2085 1.956 . S
Li2025 O2087 1.961 . S
Li2026 N2071 1.990 . S
Li2026 O2084 1.961 . S
Li2026 O2086 1.956 . S
Li2026 O2087 1.970 . S
Li2027 N2077 1.990 . S
Li2027 O2085 1.961 . S
Li2027 O2086 1.970 . S
Li2027 O2087 1.956 . S
C2028 C2030 1.348 . S
C2028 C2031 1.356 . S
C2028 O2084 1.325 . S
N2029 C2032 1.314 . S
N2029 C2033 1.279 . S
C2030 C2028 1.348 . S
C2030 C2032 1.353 . S
C2030 H2088 0.929 . S
C2031 C2028 1.356 . S
C2031 C2033 1.358 . S
C2031 H2089 0.930 . S
C2032 N2029 1.314 . S
C2032 C2030 1.353 . S
C2032 H2090 0.930 . S
C2033 N2029 1.279 . S
C2033 C2031 1.358 . S
C2033 H2091 0.930 . S
C2034 C2037 1.348 . S
C2034 C2038 1.356 . S
C2034 O2085 1.325 . S
C2035 N2036 1.279 . S
C2035 C2038 1.358 . S
C2035 H2092 0.930 . S
N2036 C2035 1.279 . S
N2036 C2039 1.314 . S
C2037 C2034 1.348 . S
C2037 C2039 1.353 . S
C2037 H2093 0.929 . S
C2038 C2034 1.356 . S
C2038 C2035 1.358 . S
C2038 H2094 0.930 . S
C2039 N2036 1.314 . S
C2039 C2037 1.353 . S
C2039 H2095 0.930 . S
C2040 N2041 1.314 . S
C2040 C2045 1.353 . S
C2040 H2046 0.930 . S
N2041 Li2024 1.990 . S
N2041 C2040 1.314 . S
N2041 C2043 1.279 . S
C2042 C2043 1.358 . S
C2042 C2044 1.356 . S
C2042 H2096 0.930 . S
C2043 N2041 1.279 . S
C2043 C2042 1.358 . S
C2043 H2047 0.930 . S
C2044 C2042 1.356 . S
C2044 C2045 1.348 . S
C2045 C2040 1.353 . S
C2045 C2044 1.348 . S
C2045 H2097 0.929 . S
H2046 C2040 0.930 . S
H2047 C2043 0.930 . S
C2048 N2049 1.314 . S
C2048 C2050 1.353 . S
C2048 H2054 0.930 . S
N2049 Li2025 1.990 . S
N2049 C2048 1.314 . S
N2049 C2052 1.279 . S
C2050 C2048 1.353 . S
C2050 C2053 1.348 . S
C2050 H2098 0.929 . S
C2051 C2052 1.358 . S
C2051 C2053 1.356 . S
C2051 H2099 0.930 . S
C2052 N2049 1.279 . S
C2052 C2051 1.358 . S
C2052 H2055 0.930 . S
C2053 C2050 1.348 . S
C2053 C2051 1.356 . S
H2054 C2048 0.930 . S
H2055 C2052 0.930 . S
C2056 C2058 1.348 . S
C2056 C2059 1.356 . S
C2056 O2086 1.325 . S
N2057 C2060 1.314 . S
N2057 C2061 1.279 . S
C2058 C2056 1.348 . S
C2058 C2060 1.353 . S
C2058 H2100 0.929 . S
C2059 C2056 1.356 . S
C2059 C2061 1.358 . S
C2059 H2101 0.930 . S
C2060 N2057 1.314 . S
C2060 C2058 1.353 . S
C2060 H2102 0.930 . S
C2061 N2057 1.279 . S
C2061 C2059 1.358 . S
C2061 H2103 0.930 . S
C2062 C2063 1.348 . S
C2062 C2064 1.356 . S
C2062 O2087 1.325 . S
C2063 C2062 1.348 . S
C2063 C2065 1.353 . S
C2063 H2104 0.929 . S
C2064 C2062 1.356 . S
C2064 C2066 1.358 . S
C2064 H2105 0.930 . S
C2065 C2063 1.353 . S
C2065 N2067 1.314 . S
C2065 H2106 0.930 . S
C2066 C2064 1.358 . S
C2066 N2067 1.279 . S
C2066 H2107 0.930 . S
N2067 C2065 1.314 . S
N2067 C2066 1.279 . S
C2068 C2070 1.353 . S
C2068 N2071 1.314 . S
C2068 H2074 0.930 . S
C2069 N2071 1.279 . S
C2069 C2072 1.358 . S
C2069 H2075 0.930 . S
C2070 C2068 1.353 . S
C2070 C2073 1.348 . S
C2070 H2108 0.929 . S
N2071 Li2026 1.990 . S
N2071 C2068 1.314 . S
N2071 C2069 1.279 . S
C2072 C2069 1.358 . S
C2072 C2073 1.356 . S
C2072 H2109 0.930 . S
C2073 C2070 1.348 . S
C2073 C2072 1.356 . S
H2074 C2068 0.930 . S
H2075 C2069 0.930 . S
C2076 N2077 1.314 . S
C2076 C2078 1.353 . S
C2076 H2082 0.930 . S
N2077 Li2027 1.990 . S
N2077 C2076 1.314 . S
N2077 C2080 1.279 . S
C2078 C2076 1.353 . S
C2078 C2081 1.348 . S
C2078 H2110 0.929 . S
C2079 C2080 1.358 . S
C2079 C2081 1.356 . S
C2079 H2111 0.930 . S
C2080 N2077 1.279 . S
C2080 C2079 1.358 . S
C2080 H2083 0.930 . S
C2081 C2078 1.348 . S
C2081 C2079 1.356 . S
H2082 C2076 0.930 . S
H2083 C2080 0.930 . S
O2084 Li2024 1.956 . S
O2084 Li2025 1.970 . S
O2084 Li2026 1.961 . S
O2084 C2028 1.325 . S
O2085 Li2024 1.970 . S
O2085 Li2025 1.956 . S
O2085 Li2027 1.961 . S
O2085 C2034 1.325 . S
O2086 Li2024 1.961 . S
O2086 Li2026 1.956 . S
O2086 Li2027 1.970 . S
O2086 C2056 1.325 . S
O2087 Li2025 1.961 . S
O2087 Li2026 1.970 . S
O2087 Li2027 1.956 . S
O2087 C2062 1.325 . S
H2088 C2030 0.929 . S
H2089 C2031 0.930 . S
H2090 C2032 0.930 . S
H2091 C2033 0.930 . S
H2092 C2035 0.930 . S
H2093 C2037 0.929 . S
H2094 C2038 0.930 . S
H2095 C2039 0.930 . S
H2096 C2042 0.930 . S
H2097 C2045 0.929 . S
H2098 C2050 0.929 . S
H2099 C2051 0.930 . S
H2100 C2058 0.929 . S
H2101 C2059 0.930 . S
H2102 C2060 0.930 . S
H2103 C2061 0.930 . S
H2104 C2063 0.929 . S
H2105 C2064 0.930 . S
H2106 C2065 0.930 . S
H2107 C2066 0.930 . S
H2108 C2070 0.929 . S
H2109 C2072 0.930 . S
H2110 C2078 0.929 . S
H2111 C2079 0.930 . S
Gd2112 N2143 2.661 . S
Gd2112 N2149 2.601 . S
Gd2112 O2156 2.545 . S
Gd2112 O2157 2.606 . S
Gd2112 O2159 2.429 . S
Gd2112 O2160 2.545 . S
Gd2112 O2161 2.412 . S
Gd2112 O2163 2.362 . S
Gd2112 O2164 2.324 1_554 S
Gd2112 C2171 2.828 . S
Gd2113 N2122 2.661 1_545 S
Gd2113 N2126 2.601 1_544 S
Gd2113 O2157 2.362 . S
Gd2113 O2158 2.324 . S
Gd2113 O2162 2.545 1_454 S
Gd2113 O2163 2.606 . S
Gd2113 O2165 2.429 1_554 S
Gd2113 O2166 2.545 . S
Gd2113 O2167 2.412 1_455 S
Gd2113 C2180 2.828 1_454 S
C2114 C2117 1.410 1_655 S
C2114 C2119 1.431 1_554 S
C2114 C2120 1.412 . S
C2115 C2118 1.437 . S
C2115 C2119 1.317 . S
C2115 H2134 0.929 . S
C2116 C2117 1.428 1_556 S
C2116 C2118 1.413 1_455 S
C2116 N2126 1.360 . S
C2117 C2114 1.410 1_455 S
C2117 C2116 1.428 1_554 S
C2117 N2122 1.357 . S
C2118 C2115 1.437 . S
C2118 C2116 1.413 1_655 S
C2118 C2128 1.391 . S
C2119 C2114 1.431 1_556 S
C2119 C2115 1.317 . S
C2119 H2130 0.930 1_556 S
C2120 C2114 1.412 . S
C2120 C2121 1.355 1_655 S
C2120 H2132 0.930 . S
C2121 C2120 1.355 1_455 S
C2121 C2123 1.402 . S
C2121 H2133 0.930 . S
N2122 Gd2113 2.661 1_565 S
N2122 C2117 1.357 . S
N2122 C2123 1.307 . S
C2123 C2121 1.402 . S
C2123 N2122 1.307 . S
C2123 H2124 0.930 1_565 S
H2124 C2123 0.930 1_545 S
C2125 N2126 1.334 . S
C2125 C2127 1.380 1_455 S
C2125 H2129 0.930 . S
N2126 Gd2113 2.601 1_566 S
N2126 C2116 1.360 . S
N2126 C2125 1.334 . S
C2127 C2125 1.380 1_655 S
C2127 C2128 1.375 . S
C2127 H2139 0.932 . S
C2128 C2118 1.391 . S
C2128 C2127 1.375 . S
C2128 H2140 0.929 . S
H2129 C2125 0.930 . S
H2130 C2119 0.930 1_554 S
H2131 C2148 0.930 . S
H2132 C2120 0.930 . S
H2133 C2121 0.930 . S
H2134 C2115 0.929 . S
H2135 C2153 0.930 . S
H2136 C2144 0.930 . S
H2137 C2145 0.930 . S
H2138 C2169 0.929 . S
H2139 C2127 0.932 . S
H2140 C2128 0.929 . S
H2141 C2170 0.930 . S
H2142 C2151 0.930 . S
N2143 Gd2112 2.661 . S
N2143 C2147 1.350 . S
N2143 C2148 1.307 1_554 S
C2144 H2136 0.930 . S
C2144 C2145 1.355 . S
C2144 C2146 1.412 1_556 S
C2145 H2137 0.930 . S
C2145 C2144 1.355 . S
C2145 C2148 1.402 . S
C2146 C2144 1.412 1_554 S
C2146 C2147 1.417 . S
C2146 C2170 1.431 . S
C2147 N2143 1.350 . S
C2147 C2146 1.417 . S
C2147 C2150 1.426 . S
C2148 H2131 0.930 . S
C2148 N2143 1.307 1_556 S
C2148 C2145 1.402 . S
N2149 Gd2112 2.601 . S
N2149 C2150 1.359 . S
N2149 C2153 1.334 . S
C2150 C2147 1.426 . S
C2150 N2149 1.359 . S
C2150 C2154 1.413 . S
C2151 H2142 0.930 . S
C2151 C2152 1.359 . S
C2151 C2153 1.394 . S
C2152 C2151 1.359 . S
C2152 C2154 1.391 . S
C2152 H2155 0.929 . S
C2153 H2135 0.930 . S
C2153 N2149 1.334 . S
C2153 C2151 1.394 . S
C2154 C2150 1.413 . S
C2154 C2152 1.391 . S
C2154 C2169 1.437 . S
H2155 C2152 0.929 . S
O2156 Gd2112 2.545 . S
O2156 C2171 1.258 . S
O2157 Gd2112 2.606 . S
O2157 Gd2113 2.362 . S
O2157 C2168 1.256 1_545 S
O2158 Gd2113 2.324 . S
O2158 C2178 1.254 . S
O2159 Gd2112 2.429 . S
O2159 C2178 1.268 . S
O2160 Gd2112 2.545 . S
O2160 C2168 1.247 1_545 S
O2161 Gd2112 2.412 . S
O2161 C2171 1.252 . S
O2162 Gd2113 2.545 1_656 S
O2162 C2180 1.258 . S
O2163 Gd2112 2.362 . S
O2163 Gd2113 2.606 . S
O2163 C2179 1.284 . S
O2164 Gd2112 2.324 1_556 S
O2164 C2187 1.254 . S
O2165 Gd2113 2.429 1_556 S
O2165 C2187 1.268 . S
O2166 Gd2113 2.545 . S
O2166 C2179 1.250 . S
O2167 Gd2113 2.412 1_655 S
O2167 C2180 1.252 1_554 S
C2168 O2157 1.256 1_565 S
C2168 O2160 1.247 1_565 S
C2169 H2138 0.929 . S
C2169 C2154 1.437 . S
C2169 C2170 1.317 . S
C2170 H2141 0.930 . S
C2170 C2146 1.431 . S
C2170 C2169 1.317 . S
C2171 Gd2112 2.828 . S
C2171 O2156 1.258 . S
C2171 O2161 1.252 . S
C2171 C2172 1.497 . S
C2172 C2171 1.497 . S
C2172 C2173 1.395 . S
C2172 C2174 1.380 . S
C2173 C2172 1.395 . S
C2173 C2176 1.398 . S
C2173 H2188 0.930 . S
C2174 C2172 1.380 . S
C2174 C2175 1.391 . S
C2174 H2189 0.930 . S
C2175 C2174 1.391 . S
C2175 C2177 1.387 . S
C2176 C2173 1.398 . S
C2176 C2177 1.380 . S
C2176 H2190 0.930 . S
C2177 C2175 1.387 . S
C2177 C2176 1.380 . S
C2177 H2191 0.930 . S
C2178 O2158 1.254 . S
C2178 O2159 1.268 . S
C2179 O2163 1.284 . S
C2179 O2166 1.250 . S
C2180 Gd2113 2.828 1_656 S
C2180 O2162 1.258 . S
C2180 O2167 1.252 1_556 S
C2180 C2181 1.497 . S
C2181 C2180 1.497 . S
C2181 C2182 1.395 . S
C2181 C2183 1.380 1_556 S
C2182 C2181 1.395 . S
C2182 C2185 1.398 . S
C2182 H2192 0.930 . S
C2183 C2181 1.380 1_554 S
C2183 C2184 1.385 1_554 S
C2183 H2193 0.930 . S
C2184 C2183 1.385 1_556 S
C2184 C2186 1.415 . S
C2185 C2182 1.398 . S
C2185 C2186 1.380 . S
C2185 H2194 0.930 . S
C2186 C2184 1.415 . S
C2186 C2185 1.380 . S
C2186 H2195 0.930 . S
C2187 O2164 1.254 . S
C2187 O2165 1.268 . S
H2188 C2173 0.930 . S
H2189 C2174 0.930 . S
H2190 C2176 0.930 . S
H2191 C2177 0.930 . S
H2192 C2182 0.930 . S
H2193 C2183 0.930 . S
H2194 C2185 0.930 . S
H2195 C2186 0.930 . S
Gd2196 N2227 2.661 . S
Gd2196 N2233 2.601 . S
Gd2196 O2240 2.545 . S
Gd2196 O2241 2.606 . S
Gd2196 O2243 2.429 . S
Gd2196 O2244 2.545 . S
Gd2196 O2245 2.412 . S
Gd2196 O2247 2.362 . S
Gd2196 O2248 2.324 . S
Gd2196 C2255 2.828 . S
Gd2197 N2206 2.661 . S
Gd2197 N2210 2.601 . S
Gd2197 O2241 2.362 . S
Gd2197 O2242 2.324 . S
Gd2197 O2246 2.545 . S
Gd2197 O2247 2.606 . S
Gd2197 O2249 2.429 . S
Gd2197 O2250 2.545 . S
Gd2197 O2251 2.412 . S
Gd2197 C2264 2.828 . S
C2198 C2201 1.417 . S
C2198 C2203 1.431 . S
C2198 C2204 1.412 . S
C2199 C2202 1.437 . S
C2199 C2203 1.317 . S
C2199 H2218 0.929 . S
C2200 C2201 1.426 . S
C2200 C2202 1.413 . S
C2200 N2210 1.359 . S
C2201 C2198 1.417 . S
C2201 C2200 1.426 . S
C2201 N2206 1.350 . S
C2202 C2199 1.437 . S
C2202 C2200 1.413 . S
C2202 C2212 1.391 . S
C2203 C2198 1.431 . S
C2203 C2199 1.317 . S
C2203 H2214 0.930 . S
C2204 C2198 1.412 . S
C2204 C2205 1.355 . S
C2204 H2216 0.930 . S
C2205 C2204 1.355 . S
C2205 C2207 1.402 . S
C2205 H2217 0.930 . S
N2206 Gd2197 2.661 . S
N2206 C2201 1.350 . S
N2206 C2207 1.307 . S
C2207 C2205 1.402 . S
C2207 N2206 1.307 . S
C2207 H2208 0.930 . S
H2208 C2207 0.930 . S
C2209 N2210 1.334 . S
C2209 C2211 1.394 . S
C2209 H2213 0.930 . S
N2210 Gd2197 2.601 . S
N2210 C2200 1.359 . S
N2210 C2209 1.334 . S
C2211 C2209 1.394 . S
C2211 C2212 1.359 . S
C2211 H2223 0.930 . S
C2212 C2202 1.391 . S
C2212 C2211 1.359 . S
C2212 H2224 0.929 . S
H2213 C2209 0.930 . S
H2214 C2203 0.930 . S
H2215 C2232 0.930 . S
H2216 C2204 0.930 . S
H2217 C2205 0.930 . S
H2218 C2199 0.929 . S
H2219 C2237 0.930 . S
H2220 C2228 0.930 . S
H2221 C2229 0.930 . S
H2222 C2253 0.929 . S
H2223 C2211 0.930 . S
H2224 C2212 0.929 . S
H2225 C2254 0.930 . S
H2226 C2235 0.930 . S
N2227 Gd2196 2.661 . S
N2227 C2231 1.350 . S
N2227 C2232 1.307 . S
C2228 H2220 0.930 . S
C2228 C2229 1.355 . S
C2228 C2230 1.412 . S
C2229 H2221 0.930 . S
C2229 C2228 1.355 . S
C2229 C2232 1.402 . S
C2230 C2228 1.412 . S
C2230 C2231 1.417 . S
C2230 C2254 1.431 . S
C2231 N2227 1.350 . S
C2231 C2230 1.417 . S
C2231 C2234 1.426 . S
C2232 H2215 0.930 . S
C2232 N2227 1.307 . S
C2232 C2229 1.402 . S
N2233 Gd2196 2.601 . S
N2233 C2234 1.359 . S
N2233 C2237 1.334 . S
C2234 C2231 1.426 . S
C2234 N2233 1.359 . S
C2234 C2238 1.413 . S
C2235 H2226 0.930 . S
C2235 C2236 1.359 . S
C2235 C2237 1.394 . S
C2236 C2235 1.359 . S
C2236 C2238 1.391 . S
C2236 H2239 0.929 . S
C2237 H2219 0.930 . S
C2237 N2233 1.334 . S
C2237 C2235 1.394 . S
C2238 C2234 1.413 . S
C2238 C2236 1.391 . S
C2238 C2253 1.437 . S
H2239 C2236 0.929 . S
O2240 Gd2196 2.545 . S
O2240 C2255 1.258 . S
O2241 Gd2196 2.606 . S
O2241 Gd2197 2.362 . S
O2241 C2252 1.284 . S
O2242 Gd2197 2.324 . S
O2242 C2262 1.254 . S
O2243 Gd2196 2.429 . S
O2243 C2262 1.268 . S
O2244 Gd2196 2.545 . S
O2244 C2252 1.250 . S
O2245 Gd2196 2.412 . S
O2245 C2255 1.252 . S
O2246 Gd2197 2.545 . S
O2246 C2264 1.258 . S
O2247 Gd2196 2.362 . S
O2247 Gd2197 2.606 . S
O2247 C2263 1.284 . S
O2248 Gd2196 2.324 . S
O2248 C2271 1.254 . S
O2249 Gd2197 2.429 . S
O2249 C2271 1.268 . S
O2250 Gd2197 2.545 . S
O2250 C2263 1.250 . S
O2251 Gd2197 2.412 . S
O2251 C2264 1.252 . S
C2252 O2241 1.284 . S
C2252 O2244 1.250 . S
C2253 H2222 0.929 . S
C2253 C2238 1.437 . S
C2253 C2254 1.317 . S
C2254 H2225 0.930 . S
C2254 C2230 1.431 . S
C2254 C2253 1.317 . S
C2255 Gd2196 2.828 . S
C2255 O2240 1.258 . S
C2255 O2245 1.252 . S
C2255 C2256 1.497 . S
C2256 C2255 1.497 . S
C2256 C2257 1.395 . S
C2256 C2258 1.380 . S
C2257 C2256 1.395 . S
C2257 C2260 1.398 . S
C2257 H2272 0.930 . S
C2258 C2256 1.380 . S
C2258 C2259 1.391 . S
C2258 H2273 0.930 . S
C2259 C2258 1.391 . S
C2259 C2261 1.387 . S
C2260 C2257 1.398 . S
C2260 C2261 1.380 . S
C2260 H2274 0.930 . S
C2261 C2259 1.387 . S
C2261 C2260 1.380 . S
C2261 H2275 0.930 . S
C2262 O2242 1.254 . S
C2262 O2243 1.268 . S
C2263 O2247 1.284 . S
C2263 O2250 1.250 . S
C2264 Gd2197 2.828 . S
C2264 O2246 1.258 . S
C2264 O2251 1.252 . S
C2264 C2265 1.497 . S
C2265 C2264 1.497 . S
C2265 C2266 1.395 . S
C2265 C2267 1.380 . S
C2266 C2265 1.395 . S
C2266 C2269 1.398 . S
C2266 H2276 0.930 . S
C2267 C2265 1.380 . S
C2267 C2268 1.391 . S
C2267 H2277 0.930 . S
C2268 C2267 1.391 . S
C2268 C2270 1.387 . S
C2269 C2266 1.398 . S
C2269 C2270 1.380 . S
C2269 H2278 0.930 . S
C2270 C2268 1.387 . S
C2270 C2269 1.380 . S
C2270 H2279 0.930 . S
C2271 O2248 1.254 . S
C2271 O2249 1.268 . S
H2272 C2257 0.930 . S
H2273 C2258 0.930 . S
H2274 C2260 0.930 . S
H2275 C2261 0.930 . S
H2276 C2266 0.930 . S
H2277 C2267 0.930 . S
H2278 C2269 0.930 . S
H2279 C2270 0.930 . S
Gd2280 N2311 2.661 1_545 S
Gd2280 N2317 2.601 . S
Gd2280 O2324 2.545 . S
Gd2280 O2325 2.606 . S
Gd2280 O2327 2.429 . S
Gd2280 O2328 2.545 . S
Gd2280 O2329 2.412 . S
Gd2280 O2331 2.362 . S
Gd2280 O2332 2.324 . S
Gd2280 C2339 2.828 . S
Gd2281 N2290 2.661 . S
Gd2281 N2294 2.601 . S
Gd2281 O2325 2.362 . S
Gd2281 O2326 2.324 . S
Gd2281 O2330 2.545 . S
Gd2281 O2331 2.606 . S
Gd2281 O2333 2.429 . S
Gd2281 O2334 2.545 1_545 S
Gd2281 O2335 2.412 . S
Gd2281 C2348 2.828 . S
C2282 C2285 1.417 . S
C2282 C2287 1.431 . S
C2282 C2288 1.412 . S
C2283 C2286 1.437 . S
C2283 C2287 1.317 . S
C2283 H2302 0.929 . S
C2284 C2285 1.426 . S
C2284 C2286 1.413 . S
C2284 N2294 1.359 . S
C2285 C2282 1.417 . S
C2285 C2284 1.426 . S
C2285 N2290 1.350 . S
C2286 C2283 1.437 . S
C2286 C2284 1.413 . S
C2286 C2296 1.391 . S
C2287 C2282 1.431 . S
C2287 C2283 1.317 . S
C2287 H2298 0.930 . S
C2288 C2282 1.412 . S
C2288 C2289 1.355 . S
C2288 H2300 0.930 . S
C2289 C2288 1.355 . S
C2289 C2291 1.402 . S
C2289 H2301 0.930 . S
N2290 Gd2281 2.661 . S
N2290 C2285 1.350 . S
N2290 C2291 1.307 . S
C2291 C2289 1.402 . S
C2291 N2290 1.307 . S
C2291 H2292 0.930 . S
H2292 C2291 0.930 . S
C2293 N2294 1.334 . S
C2293 C2295 1.394 . S
C2293 H2297 0.930 . S
N2294 Gd2281 2.601 . S
N2294 C2284 1.359 . S
N2294 C2293 1.334 . S
C2295 C2293 1.394 . S
C2295 C2296 1.359 . S
C2295 H2307 0.930 . S
C2296 C2286 1.391 . S
C2296 C2295 1.359 . S
C2296 H2308 0.929 . S
H2297 C2293 0.930 . S
H2298 C2287 0.930 . S
H2299 C2316 0.930 . S
H2300 C2288 0.930 . S
H2301 C2289 0.930 . S
H2302 C2283 0.929 . S
H2303 C2321 0.930 . S
H2304 C2312 0.930 . S
H2305 C2313 0.930 . S
H2306 C2337 0.929 . S
H2307 C2295 0.930 . S
H2308 C2296 0.929 . S
H2309 C2338 0.930 . S
H2310 C2319 0.930 . S
N2311 Gd2280 2.661 1_565 S
N2311 C2315 1.350 . S
N2311 C2316 1.307 . S
C2312 H2304 0.930 . S
C2312 C2313 1.355 . S
C2312 C2314 1.412 . S
C2313 H2305 0.930 . S
C2313 C2312 1.355 . S
C2313 C2316 1.402 . S
C2314 C2312 1.412 . S
C2314 C2315 1.417 . S
C2314 C2338 1.431 . S
C2315 N2311 1.350 . S
C2315 C2314 1.417 . S
C2315 C2318 1.426 . S
C2316 H2299 0.930 . S
C2316 N2311 1.307 . S
C2316 C2313 1.402 . S
N2317 Gd2280 2.601 . S
N2317 C2318 1.359 1_545 S
N2317 C2321 1.334 . S
C2318 C2315 1.426 . S
C2318 N2317 1.359 1_565 S
C2318 C2322 1.413 . S
C2319 H2310 0.930 . S
C2319 C2320 1.359 1_545 S
C2319 C2321 1.394 . S
C2320 C2319 1.359 1_565 S
C2320 C2322 1.391 . S
C2320 H2323 0.929 . S
C2321 H2303 0.930 . S
C2321 N2317 1.334 . S
C2321 C2319 1.394 . S
C2322 C2318 1.413 . S
C2322 C2320 1.391 . S
C2322 C2337 1.437 . S
H2323 C2320 0.929 . S
O2324 Gd2280 2.545 . S
O2324 C2339 1.258 . S
O2325 Gd2280 2.606 . S
O2325 Gd2281 2.362 . S
O2325 C2336 1.284 . S
O2326 Gd2281 2.324 . S
O2326 C2346 1.254 . S
O2327 Gd2280 2.429 . S
O2327 C2346 1.268 . S
O2328 Gd2280 2.545 . S
O2328 C2336 1.250 . S
O2329 Gd2280 2.412 . S
O2329 C2339 1.252 . S
O2330 Gd2281 2.545 . S
O2330 C2348 1.258 . S
O2331 Gd2280 2.362 . S
O2331 Gd2281 2.606 . S
O2331 C2347 1.284 1_545 S
O2332 Gd2280 2.324 . S
O2332 C2355 1.254 . S
O2333 Gd2281 2.429 . S
O2333 C2355 1.268 . S
O2334 Gd2281 2.545 1_565 S
O2334 C2347 1.250 . S
O2335 Gd2281 2.412 . S
O2335 C2348 1.252 . S
C2336 O2325 1.284 . S
C2336 O2328 1.250 . S
C2337 H2306 0.929 . S
C2337 C2322 1.437 . S
C2337 C2338 1.317 . S
C2338 H2309 0.930 . S
C2338 C2314 1.431 . S
C2338 C2337 1.317 . S
C2339 Gd2280 2.828 . S
C2339 O2324 1.258 . S
C2339 O2329 1.252 . S
C2339 C2340 1.497 . S
C2340 C2339 1.497 . S
C2340 C2341 1.395 . S
C2340 C2342 1.380 . S
C2341 C2340 1.395 . S
C2341 C2344 1.398 . S
C2341 H2356 0.930 . S
C2342 C2340 1.380 . S
C2342 C2343 1.391 . S
C2342 H2357 0.930 . S
C2343 C2342 1.391 . S
C2343 C2345 1.387 . S
C2344 C2341 1.398 . S
C2344 C2345 1.380 . S
C2344 H2358 0.930 . S
C2345 C2343 1.387 . S
C2345 C2344 1.380 . S
C2345 H2359 0.930 . S
C2346 O2326 1.254 . S
C2346 O2327 1.268 . S
C2347 O2331 1.284 1_565 S
C2347 O2334 1.250 . S
C2348 Gd2281 2.828 . S
C2348 O2330 1.258 . S
C2348 O2335 1.252 . S
C2348 C2349 1.497 . S
C2349 C2348 1.497 . S
C2349 C2350 1.395 . S
C2349 C2351 1.380 1_545 S
C2350 C2349 1.395 . S
C2350 C2353 1.398 1_545 S
C2350 H2360 0.930 . S
C2351 C2349 1.380 1_565 S
C2351 C2352 1.391 . S
C2351 H2361 0.929 . S
C2352 C2351 1.391 . S
C2352 C2354 1.387 . S
C2353 C2350 1.398 1_565 S
C2353 C2354 1.380 . S
C2353 H2362 0.930 . S
C2354 C2352 1.387 . S
C2354 C2353 1.380 . S
C2354 H2363 0.930 . S
C2355 O2332 1.254 . S
C2355 O2333 1.268 . S
H2356 C2341 0.930 . S
H2357 C2342 0.930 . S
H2358 C2344 0.930 . S
H2359 C2345 0.930 . S
H2360 C2350 0.930 . S
H2361 C2351 0.929 . S
H2362 C2353 0.930 . S
H2363 C2354 0.930 . S
Gd2364 N2395 2.661 . S
Gd2364 N2401 2.601 . S
Gd2364 O2408 2.545 . S
Gd2364 O2409 2.606 . S
Gd2364 O2411 2.429 . S
Gd2364 O2412 2.545 . S
Gd2364 O2413 2.412 . S
Gd2364 O2415 2.362 . S
Gd2364 O2416 2.324 . S
Gd2364 C2423 2.828 . S
Gd2365 N2374 2.661 . S
Gd2365 N2378 2.601 . S
Gd2365 O2409 2.362 . S
Gd2365 O2410 2.324 . S
Gd2365 O2414 2.545 . S
Gd2365 O2415 2.606 . S
Gd2365 O2417 2.429 . S
Gd2365 O2418 2.545 . S
Gd2365 O2419 2.412 . S
Gd2365 C2432 2.828 . S
C2366 C2369 1.417 . S
C2366 C2371 1.431 . S
C2366 C2372 1.412 . S
C2367 C2370 1.437 . S
C2367 C2371 1.317 . S
C2367 H2386 0.929 . S
C2368 C2369 1.426 . S
C2368 C2370 1.413 . S
C2368 N2378 1.359 . S
C2369 C2366 1.417 . S
C2369 C2368 1.426 . S
C2369 N2374 1.350 . S
C2370 C2367 1.437 . S
C2370 C2368 1.413 . S
C2370 C2380 1.391 . S
C2371 C2366 1.431 . S
C2371 C2367 1.317 . S
C2371 H2382 0.930 . S
C2372 C2366 1.412 . S
C2372 C2373 1.355 . S
C2372 H2384 0.930 . S
C2373 C2372 1.355 . S
C2373 C2375 1.402 . S
C2373 H2385 0.930 . S
N2374 Gd2365 2.661 . S
N2374 C2369 1.350 . S
N2374 C2375 1.307 . S
C2375 C2373 1.402 . S
C2375 N2374 1.307 . S
C2375 H2376 0.930 . S
H2376 C2375 0.930 . S
C2377 N2378 1.334 . S
C2377 C2379 1.394 . S
C2377 H2381 0.930 . S
N2378 Gd2365 2.601 . S
N2378 C2368 1.359 . S
N2378 C2377 1.334 . S
C2379 C2377 1.394 . S
C2379 C2380 1.359 . S
C2379 H2391 0.930 . S
C2380 C2370 1.391 . S
C2380 C2379 1.359 . S
C2380 H2392 0.929 . S
H2381 C2377 0.930 . S
H2382 C2371 0.930 . S
H2383 C2400 0.930 . S
H2384 C2372 0.930 . S
H2385 C2373 0.930 . S
H2386 C2367 0.929 . S
H2387 C2405 0.930 . S
H2388 C2396 0.930 . S
H2389 C2397 0.930 . S
H2390 C2421 0.929 . S
H2391 C2379 0.930 . S
H2392 C2380 0.929 . S
H2393 C2422 0.930 . S
H2394 C2403 0.930 . S
N2395 Gd2364 2.661 . S
N2395 C2399 1.350 . S
N2395 C2400 1.307 . S
C2396 H2388 0.930 . S
C2396 C2397 1.355 . S
C2396 C2398 1.412 . S
C2397 H2389 0.930 . S
C2397 C2396 1.355 . S
C2397 C2400 1.402 . S
C2398 C2396 1.412 . S
C2398 C2399 1.417 . S
C2398 C2422 1.431 . S
C2399 N2395 1.350 . S
C2399 C2398 1.417 . S
C2399 C2402 1.426 . S
C2400 H2383 0.930 . S
C2400 N2395 1.307 . S
C2400 C2397 1.402 . S
N2401 Gd2364 2.601 . S
N2401 C2402 1.359 . S
N2401 C2405 1.334 . S
C2402 C2399 1.426 . S
C2402 N2401 1.359 . S
C2402 C2406 1.413 . S
C2403 H2394 0.930 . S
C2403 C2404 1.359 . S
C2403 C2405 1.394 . S
C2404 C2403 1.359 . S
C2404 C2406 1.391 . S
C2404 H2407 0.929 . S
C2405 H2387 0.930 . S
C2405 N2401 1.334 . S
C2405 C2403 1.394 . S
C2406 C2402 1.413 . S
C2406 C2404 1.391 . S
C2406 C2421 1.437 . S
H2407 C2404 0.929 . S
O2408 Gd2364 2.545 . S
O2408 C2423 1.258 . S
O2409 Gd2364 2.606 . S
O2409 Gd2365 2.362 . S
O2409 C2420 1.284 . S
O2410 Gd2365 2.324 . S
O2410 C2430 1.254 . S
O2411 Gd2364 2.429 . S
O2411 C2430 1.268 . S
O2412 Gd2364 2.545 . S
O2412 C2420 1.250 . S
O2413 Gd2364 2.412 . S
O2413 C2423 1.252 . S
O2414 Gd2365 2.545 . S
O2414 C2432 1.258 . S
O2415 Gd2364 2.362 . S
O2415 Gd2365 2.606 . S
O2415 C2431 1.284 . S
O2416 Gd2364 2.324 . S
O2416 C2439 1.254 . S
O2417 Gd2365 2.429 . S
O2417 C2439 1.268 . S
O2418 Gd2365 2.545 . S
O2418 C2431 1.250 . S
O2419 Gd2365 2.412 . S
O2419 C2432 1.252 . S
C2420 O2409 1.284 . S
C2420 O2412 1.250 . S
C2421 H2390 0.929 . S
C2421 C2406 1.437 . S
C2421 C2422 1.317 . S
C2422 H2393 0.930 . S
C2422 C2398 1.431 . S
C2422 C2421 1.317 . S
C2423 Gd2364 2.828 . S
C2423 O2408 1.258 . S
C2423 O2413 1.252 . S
C2423 C2424 1.497 . S
C2424 C2423 1.497 . S
C2424 C2425 1.395 . S
C2424 C2426 1.380 . S
C2425 C2424 1.395 . S
C2425 C2428 1.398 . S
C2425 H2440 0.930 . S
C2426 C2424 1.380 . S
C2426 C2427 1.391 . S
C2426 H2441 0.930 . S
C2427 C2426 1.391 . S
C2427 C2429 1.387 . S
C2428 C2425 1.398 . S
C2428 C2429 1.380 . S
C2428 H2442 0.930 . S
C2429 C2427 1.387 . S
C2429 C2428 1.380 . S
C2429 H2443 0.930 . S
C2430 O2410 1.254 . S
C2430 O2411 1.268 . S
C2431 O2415 1.284 . S
C2431 O2418 1.250 . S
C2432 Gd2365 2.828 . S
C2432 O2414 1.258 . S
C2432 O2419 1.252 . S
C2432 C2433 1.497 . S
C2433 C2432 1.497 . S
C2433 C2434 1.395 . S
C2433 C2435 1.380 . S
C2434 C2433 1.395 . S
C2434 C2437 1.398 . S
C2434 H2444 0.930 . S
C2435 C2433 1.380 . S
C2435 C2436 1.391 . S
C2435 H2445 0.930 . S
C2436 C2435 1.391 . S
C2436 C2438 1.387 . S
C2437 C2434 1.398 . S
C2437 C2438 1.380 . S
C2437 H2446 0.930 . S
C2438 C2436 1.387 . S
C2438 C2437 1.380 . S
C2438 H2447 0.930 . S
C2439 O2416 1.254 . S
C2439 O2417 1.268 . S
H2440 C2425 0.930 . S
H2441 C2426 0.930 . S
H2442 C2428 0.930 . S
H2443 C2429 0.930 . S
H2444 C2434 0.930 . S
H2445 C2435 0.930 . S
H2446 C2437 0.930 . S
H2447 C2438 0.930 . S
Gd2448 N2479 2.661 1_545 S
Gd2448 N2485 2.601 1_545 S
Gd2448 O2492 2.545 1_545 S
Gd2448 O2493 2.606 . S
Gd2448 O2495 2.429 . S
Gd2448 O2496 2.545 . S
Gd2448 O2497 2.412 1_545 S
Gd2448 O2499 2.362 . S
Gd2448 O2500 2.324 . S
Gd2448 C2507 2.828 1_545 S
Gd2449 N2458 2.661 . S
Gd2449 N2462 2.601 . S
Gd2449 O2493 2.362 . S
Gd2449 O2494 2.324 . S
Gd2449 O2498 2.545 . S
Gd2449 O2499 2.606 . S
Gd2449 O2501 2.429 . S
Gd2449 O2502 2.545 . S
Gd2449 O2503 2.412 . S
Gd2449 C2516 2.828 . S
C2450 C2453 1.417 . S
C2450 C2455 1.431 . S
C2450 C2456 1.412 . S
C2451 C2454 1.437 . S
C2451 C2455 1.317 . S
C2451 H2470 0.929 . S
C2452 C2453 1.426 . S
C2452 C2454 1.413 . S
C2452 N2462 1.359 . S
C2453 C2450 1.417 . S
C2453 C2452 1.426 . S
C2453 N2458 1.350 . S
C2454 C2451 1.437 . S
C2454 C2452 1.413 . S
C2454 C2464 1.391 . S
C2455 C2450 1.431 . S
C2455 C2451 1.317 . S
C2455 H2466 0.930 . S
C2456 C2450 1.412 . S
C2456 C2457 1.355 . S
C2456 H2468 0.930 . S
C2457 C2456 1.355 . S
C2457 C2459 1.402 . S
C2457 H2469 0.930 . S
N2458 Gd2449 2.661 . S
N2458 C2453 1.350 . S
N2458 C2459 1.307 . S
C2459 C2457 1.402 . S
C2459 N2458 1.307 . S
C2459 H2460 0.930 . S
H2460 C2459 0.930 . S
C2461 N2462 1.334 . S
C2461 C2463 1.425 . S
C2461 H2465 0.930 . S
N2462 Gd2449 2.601 . S
N2462 C2452 1.359 . S
N2462 C2461 1.334 . S
C2463 C2461 1.425 . S
C2463 C2464 1.379 . S
C2463 H2475 0.881 1_455 S
C2464 C2454 1.391 . S
C2464 C2463 1.379 . S
C2464 H2476 0.929 . S
H2465 C2461 0.930 . S
H2466 C2455 0.930 . S
H2467 C2484 0.930 . S
H2468 C2456 0.930 . S
H2469 C2457 0.930 . S
H2470 C2451 0.929 . S
H2471 C2489 0.930 1_545 S
H2472 C2480 0.930 . S
H2473 C2481 0.930 1_655 S
H2474 C2505 0.929 . S
H2475 C2463 0.881 1_655 S
H2476 C2464 0.929 . S
H2477 C2506 0.930 . S
H2478 C2487 0.930 . S
N2479 Gd2448 2.661 1_565 S
N2479 C2483 1.350 . S
N2479 C2484 1.307 . S
C2480 H2472 0.930 . S
C2480 C2481 1.355 . S
C2480 C2482 1.412 . S
C2481 H2473 0.930 1_455 S
C2481 C2480 1.355 . S
C2481 C2484 1.402 . S
C2482 C2480 1.412 . S
C2482 C2483 1.417 . S
C2482 C2506 1.431 . S
C2483 N2479 1.350 . S
C2483 C2482 1.417 . S
C2483 C2486 1.426 . S
C2484 H2467 0.930 . S
C2484 N2479 1.307 . S
C2484 C2481 1.402 . S
N2485 Gd2448 2.601 1_565 S
N2485 C2486 1.359 . S
N2485 C2489 1.334 . S
C2486 C2483 1.426 . S
C2486 N2485 1.359 . S
C2486 C2490 1.413 . S
C2487 H2478 0.930 . S
C2487 C2488 1.359 . S
C2487 C2489 1.394 . S
C2488 C2487 1.359 . S
C2488 C2490 1.391 . S
C2488 H2491 0.929 . S
C2489 H2471 0.930 1_565 S
C2489 N2485 1.334 . S
C2489 C2487 1.394 . S
C2490 C2486 1.413 . S
C2490 C2488 1.391 . S
C2490 C2505 1.437 . S
H2491 C2488 0.929 . S
O2492 Gd2448 2.545 1_565 S
O2492 C2507 1.258 . S
O2493 Gd2448 2.606 . S
O2493 Gd2449 2.362 . S
O2493 C2504 1.284 . S
O2494 Gd2449 2.324 . S
O2494 C2514 1.254 . S
O2495 Gd2448 2.429 . S
O2495 C2514 1.268 . S
O2496 Gd2448 2.545 . S
O2496 C2504 1.250 . S
O2497 Gd2448 2.412 1_565 S
O2497 C2507 1.252 . S
O2498 Gd2449 2.545 . S
O2498 C2516 1.258 . S
O2499 Gd2448 2.362 . S
O2499 Gd2449 2.606 . S
O2499 C2515 1.284 . S
O2500 Gd2448 2.324 . S
O2500 C2523 1.254 . S
O2501 Gd2449 2.429 . S
O2501 C2523 1.268 . S
O2502 Gd2449 2.545 . S
O2502 C2515 1.250 . S
O2503 Gd2449 2.412 . S
O2503 C2516 1.252 . S
C2504 O2493 1.284 . S
C2504 O2496 1.250 . S
C2505 H2474 0.929 . S
C2505 C2490 1.437 . S
C2505 C2506 1.317 . S
C2506 H2477 0.930 . S
C2506 C2482 1.431 . S
C2506 C2505 1.317 . S
C2507 Gd2448 2.828 1_565 S
C2507 O2492 1.258 . S
C2507 O2497 1.252 . S
C2507 C2508 1.497 . S
C2508 C2507 1.497 . S
C2508 C2509 1.395 . S
C2508 C2510 1.380 . S
C2509 C2508 1.395 . S
C2509 C2512 1.398 . S
C2509 H2524 0.930 . S
C2510 C2508 1.380 . S
C2510 C2511 1.391 . S
C2510 H2525 0.930 . S
C2511 C2510 1.391 . S
C2511 C2513 1.387 . S
C2512 C2509 1.398 . S
C2512 C2513 1.380 . S
C2512 H2526 0.930 . S
C2513 C2511 1.387 . S
C2513 C2512 1.380 . S
C2513 H2527 0.930 . S
C2514 O2494 1.254 . S
C2514 O2495 1.268 . S
C2515 O2499 1.284 . S
C2515 O2502 1.250 . S
C2516 Gd2449 2.828 . S
C2516 O2498 1.258 . S
C2516 O2503 1.252 . S
C2516 C2517 1.497 . S
C2517 C2516 1.497 . S
C2517 C2518 1.395 . S
C2517 C2519 1.380 . S
C2518 C2517 1.395 . S
C2518 C2521 1.398 . S
C2518 H2528 0.930 . S
C2519 C2517 1.380 . S
C2519 C2520 1.391 . S
C2519 H2529 0.930 . S
C2520 C2519 1.391 . S
C2520 C2522 1.387 . S
C2521 C2518 1.398 . S
C2521 C2522 1.380 . S
C2521 H2530 0.930 . S
C2522 C2520 1.387 . S
C2522 C2521 1.380 . S
C2522 H2531 0.930 . S
C2523 O2500 1.254 . S
C2523 O2501 1.268 . S
H2524 C2509 0.930 . S
H2525 C2510 0.930 . S
H2526 C2512 0.930 . S
H2527 C2513 0.930 . S
H2528 C2518 0.930 . S
H2529 C2519 0.930 . S
H2530 C2521 0.930 . S
H2531 C2522 0.930 . S
Gd2532 N2563 2.661 . S
Gd2532 N2569 2.601 . S
Gd2532 O2576 2.545 . S
Gd2532 O2577 2.606 . S
Gd2532 O2579 2.429 . S
Gd2532 O2580 2.545 . S
Gd2532 O2581 2.412 . S
Gd2532 O2583 2.362 . S
Gd2532 O2584 2.324 . S
Gd2532 C2591 2.828 . S
Gd2533 N2542 2.661 . S
Gd2533 N2546 2.601 . S
Gd2533 O2577 2.362 . S
Gd2533 O2578 2.324 . S
Gd2533 O2582 2.545 . S
Gd2533 O2583 2.606 . S
Gd2533 O2585 2.429 . S
Gd2533 O2586 2.545 . S
Gd2533 O2587 2.412 . S
Gd2533 C2600 2.828 . S
C2534 C2537 1.417 . S
C2534 C2539 1.431 . S
C2534 C2540 1.412 . S
C2535 C2538 1.437 . S
C2535 C2539 1.317 . S
C2535 H2554 0.929 . S
C2536 C2537 1.426 . S
C2536 C2538 1.413 . S
C2536 N2546 1.359 . S
C2537 C2534 1.417 . S
C2537 C2536 1.426 . S
C2537 N2542 1.350 . S
C2538 C2535 1.437 . S
C2538 C2536 1.413 . S
C2538 C2548 1.391 . S
C2539 C2534 1.431 . S
C2539 C2535 1.317 . S
C2539 H2550 0.930 . S
C2540 C2534 1.412 . S
C2540 C2541 1.355 . S
C2540 H2552 0.930 . S
C2541 C2540 1.355 . S
C2541 C2543 1.402 . S
C2541 H2553 0.930 . S
N2542 Gd2533 2.661 . S
N2542 C2537 1.350 . S
N2542 C2543 1.307 . S
C2543 C2541 1.402 . S
C2543 N2542 1.307 . S
C2543 H2544 0.930 . S
H2544 C2543 0.930 . S
C2545 N2546 1.334 . S
C2545 C2547 1.394 . S
C2545 H2549 0.930 . S
N2546 Gd2533 2.601 . S
N2546 C2536 1.359 . S
N2546 C2545 1.334 . S
C2547 C2545 1.394 . S
C2547 C2548 1.359 . S
C2547 H2559 0.930 . S
C2548 C2538 1.391 . S
C2548 C2547 1.359 . S
C2548 H2560 0.929 . S
H2549 C2545 0.930 . S
H2550 C2539 0.930 . S
H2551 C2568 0.930 . S
H2552 C2540 0.930 . S
H2553 C2541 0.930 . S
H2554 C2535 0.929 . S
H2555 C2573 0.930 . S
H2556 C2564 0.930 . S
H2557 C2565 0.930 . S
H2558 C2589 0.929 . S
H2559 C2547 0.930 . S
H2560 C2548 0.929 . S
H2561 C2590 0.930 . S
H2562 C2571 0.930 . S
N2563 Gd2532 2.661 . S
N2563 C2567 1.350 . S
N2563 C2568 1.307 . S
C2564 H2556 0.930 . S
C2564 C2565 1.355 . S
C2564 C2566 1.412 . S
C2565 H2557 0.930 . S
C2565 C2564 1.355 . S
C2565 C2568 1.402 . S
C2566 C2564 1.412 . S
C2566 C2567 1.417 . S
C2566 C2590 1.431 . S
C2567 N2563 1.350 . S
C2567 C2566 1.417 . S
C2567 C2570 1.426 . S
C2568 H2551 0.930 . S
C2568 N2563 1.307 . S
C2568 C2565 1.402 . S
N2569 Gd2532 2.601 . S
N2569 C2570 1.359 . S
N2569 C2573 1.334 . S
C2570 C2567 1.426 . S
C2570 N2569 1.359 . S
C2570 C2574 1.413 . S
C2571 H2562 0.930 . S
C2571 C2572 1.359 . S
C2571 C2573 1.394 . S
C2572 C2571 1.359 . S
C2572 C2574 1.391 . S
C2572 H2575 0.929 . S
C2573 H2555 0.930 . S
C2573 N2569 1.334 . S
C2573 C2571 1.394 . S
C2574 C2570 1.413 . S
C2574 C2572 1.391 . S
C2574 C2589 1.437 . S
H2575 C2572 0.929 . S
O2576 Gd2532 2.545 . S
O2576 C2591 1.258 . S
O2577 Gd2532 2.606 . S
O2577 Gd2533 2.362 . S
O2577 C2588 1.284 . S
O2578 Gd2533 2.324 . S
O2578 C2598 1.254 . S
O2579 Gd2532 2.429 . S
O2579 C2598 1.268 . S
O2580 Gd2532 2.545 . S
O2580 C2588 1.250 . S
O2581 Gd2532 2.412 . S
O2581 C2591 1.252 . S
O2582 Gd2533 2.545 . S
O2582 C2600 1.258 . S
O2583 Gd2532 2.362 . S
O2583 Gd2533 2.606 . S
O2583 C2599 1.284 . S
O2584 Gd2532 2.324 . S
O2584 C2607 1.254 . S
O2585 Gd2533 2.429 . S
O2585 C2607 1.268 . S
O2586 Gd2533 2.545 . S
O2586 C2599 1.250 . S
O2587 Gd2533 2.412 . S
O2587 C2600 1.252 . S
C2588 O2577 1.284 . S
C2588 O2580 1.250 . S
C2589 H2558 0.929 . S
C2589 C2574 1.437 . S
C2589 C2590 1.317 . S
C2590 H2561 0.930 . S
C2590 C2566 1.431 . S
C2590 C2589 1.317 . S
C2591 Gd2532 2.828 . S
C2591 O2576 1.258 . S
C2591 O2581 1.252 . S
C2591 C2592 1.497 . S
C2592 C2591 1.497 . S
C2592 C2593 1.395 . S
C2592 C2594 1.380 . S
C2593 C2592 1.395 . S
C2593 C2596 1.398 . S
C2593 H2608 0.930 . S
C2594 C2592 1.380 . S
C2594 C2595 1.391 . S
C2594 H2609 0.930 . S
C2595 C2594 1.391 . S
C2595 C2597 1.387 . S
C2596 C2593 1.398 . S
C2596 C2597 1.380 . S
C2596 H2610 0.930 . S
C2597 C2595 1.387 . S
C2597 C2596 1.380 . S
C2597 H2611 0.930 . S
C2598 O2578 1.254 . S
C2598 O2579 1.268 . S
C2599 O2583 1.284 . S
C2599 O2586 1.250 . S
C2600 Gd2533 2.828 . S
C2600 O2582 1.258 . S
C2600 O2587 1.252 . S
C2600 C2601 1.497 . S
C2601 C2600 1.497 . S
C2601 C2602 1.395 . S
C2601 C2603 1.380 . S
C2602 C2601 1.395 . S
C2602 C2605 1.398 . S
C2602 H2612 0.930 . S
C2603 C2601 1.380 . S
C2603 C2604 1.391 . S
C2603 H2613 0.930 . S
C2604 C2603 1.391 . S
C2604 C2606 1.387 . S
C2605 C2602 1.398 . S
C2605 C2606 1.380 . S
C2605 H2614 0.930 . S
C2606 C2604 1.387 . S
C2606 C2605 1.380 . S
C2606 H2615 0.930 . S
C2607 O2584 1.254 . S
C2607 O2585 1.268 . S
H2608 C2593 0.930 . S
H2609 C2594 0.930 . S
H2610 C2596 0.930 . S
H2611 C2597 0.930 . S
H2612 C2602 0.930 . S
H2613 C2603 0.930 . S
H2614 C2605 0.930 . S
H2615 C2606 0.930 . S
Gd2616 N2647 2.661 . S
Gd2616 N2653 2.601 . S
Gd2616 O2660 2.545 . S
Gd2616 O2661 2.606 1_556 S
Gd2616 O2663 2.429 1_556 S
Gd2616 O2664 2.545 . S
Gd2616 O2665 2.412 . S
Gd2616 O2667 2.362 1_556 S
Gd2616 O2668 2.324 . S
Gd2616 C2675 2.828 . S
Gd2617 N2626 2.661 . S
Gd2617 N2630 2.601 . S
Gd2617 O2661 2.362 . S
Gd2617 O2662 2.324 . S
Gd2617 O2666 2.545 1_545 S
Gd2617 O2667 2.606 . S
Gd2617 O2669 2.429 1_545 S
Gd2617 O2670 2.545 . S
Gd2617 O2671 2.412 . S
Gd2617 C2684 2.828 . S
C2618 C2621 1.417 . S
C2618 C2623 1.431 . S
C2618 C2624 1.412 . S
C2619 C2622 1.437 . S
C2619 C2623 1.317 . S
C2619 H2638 0.929 . S
C2620 C2621 1.426 . S
C2620 C2622 1.413 . S
C2620 N2630 1.359 . S
C2621 C2618 1.417 . S
C2621 C2620 1.426 . S
C2621 N2626 1.350 . S
C2622 C2619 1.437 . S
C2622 C2620 1.413 . S
C2622 C2632 1.391 1_545 S
C2623 C2618 1.431 . S
C2623 C2619 1.317 . S
C2623 H2634 0.930 . S
C2624 C2618 1.412 . S
C2624 C2625 1.355 . S
C2624 H2636 0.930 . S
C2625 C2624 1.355 . S
C2625 C2627 1.402 . S
C2625 H2637 0.930 . S
N2626 Gd2617 2.661 . S
N2626 C2621 1.350 . S
N2626 C2627 1.307 . S
C2627 C2625 1.402 . S
C2627 N2626 1.307 . S
C2627 H2628 0.930 . S
H2628 C2627 0.930 . S
C2629 N2630 1.334 1_565 S
C2629 C2631 1.394 . S
C2629 H2633 0.930 . S
N2630 Gd2617 2.601 . S
N2630 C2620 1.359 . S
N2630 C2629 1.334 1_545 S
C2631 C2629 1.394 . S
C2631 C2632 1.359 . S
C2631 H2643 0.930 . S
C2632 C2622 1.391 1_565 S
C2632 C2631 1.359 . S
C2632 H2644 0.929 . S
H2633 C2629 0.930 . S
H2634 C2623 0.930 . S
H2635 C2652 0.930 . S
H2636 C2624 0.930 . S
H2637 C2625 0.930 . S
H2638 C2619 0.929 . S
H2639 C2657 0.930 . S
H2640 C2648 0.930 . S
H2641 C2649 0.930 . S
H2642 C2673 0.929 . S
H2643 C2631 0.930 . S
H2644 C2632 0.929 . S
H2645 C2674 0.930 . S
H2646 C2655 0.930 . S
N2647 Gd2616 2.661 . S
N2647 C2651 1.350 . S
N2647 C2652 1.307 1_545 S
C2648 H2640 0.930 . S
C2648 C2649 1.355 . S
C2648 C2650 1.412 1_565 S
C2649 H2641 0.930 . S
C2649 C2648 1.355 . S
C2649 C2652 1.402 . S
C2650 C2648 1.412 1_545 S
C2650 C2651 1.417 . S
C2650 C2674 1.431 . S
C2651 N2647 1.350 . S
C2651 C2650 1.417 . S
C2651 C2654 1.426 . S
C2652 H2635 0.930 . S
C2652 N2647 1.307 1_565 S
C2652 C2649 1.402 . S
N2653 Gd2616 2.601 . S
N2653 C2654 1.359 . S
N2653 C2657 1.334 . S
C2654 C2651 1.426 . S
C2654 N2653 1.359 . S
C2654 C2658 1.413 . S
C2655 H2646 0.930 . S
C2655 C2656 1.359 . S
C2655 C2657 1.394 . S
C2656 C2655 1.359 . S
C2656 C2658 1.391 . S
C2656 H2659 0.929 . S
C2657 H2639 0.930 . S
C2657 N2653 1.334 . S
C2657 C2655 1.394 . S
C2658 C2654 1.413 . S
C2658 C2656 1.391 . S
C2658 C2673 1.437 . S
H2659 C2656 0.929 . S
O2660 Gd2616 2.545 . S
O2660 C2675 1.258 . S
O2661 Gd2616 2.606 1_554 S
O2661 Gd2617 2.362 . S
O2661 C2672 1.284 . S
O2662 Gd2617 2.324 . S
O2662 C2682 1.254 . S
O2663 Gd2616 2.429 1_554 S
O2663 C2682 1.268 . S
O2664 Gd2616 2.545 . S
O2664 C2672 1.250 1_556 S
O2665 Gd2616 2.412 . S
O2665 C2675 1.252 . S
O2666 Gd2617 2.545 1_565 S
O2666 C2684 1.258 1_565 S
O2667 Gd2616 2.362 1_554 S
O2667 Gd2617 2.606 . S
O2667 C2683 1.284 . S
O2668 Gd2616 2.324 . S
O2668 C2691 1.254 1_545 S
O2669 Gd2617 2.429 1_565 S
O2669 C2691 1.268 1_554 S
O2670 Gd2617 2.545 . S
O2670 C2683 1.250 . S
O2671 Gd2617 2.412 . S
O2671 C2684 1.252 . S
C2672 O2661 1.284 . S
C2672 O2664 1.250 1_554 S
C2673 H2642 0.929 . S
C2673 C2658 1.437 . S
C2673 C2674 1.317 . S
C2674 H2645 0.930 . S
C2674 C2650 1.431 . S
C2674 C2673 1.317 . S
C2675 Gd2616 2.828 . S
C2675 O2660 1.258 . S
C2675 O2665 1.252 . S
C2675 C2676 1.497 . S
C2676 C2675 1.497 . S
C2676 C2677 1.395 . S
C2676 C2678 1.380 . S
C2677 C2676 1.395 . S
C2677 C2680 1.398 . S
C2677 H2692 0.930 . S
C2678 C2676 1.380 . S
C2678 C2679 1.391 . S
C2678 H2693 0.930 . S
C2679 C2678 1.391 . S
C2679 C2681 1.387 . S
C2680 C2677 1.398 . S
C2680 C2681 1.380 . S
C2680 H2694 0.930 . S
C2681 C2679 1.387 . S
C2681 C2680 1.380 . S
C2681 H2695 0.930 . S
C2682 O2662 1.254 . S
C2682 O2663 1.268 . S
C2683 O2667 1.284 . S
C2683 O2670 1.250 . S
C2684 Gd2617 2.828 . S
C2684 O2666 1.258 1_545 S
C2684 O2671 1.252 . S
C2684 C2685 1.497 . S
C2685 C2684 1.497 . S
C2685 C2686 1.395 1_545 S
C2685 C2687 1.380 . S
C2686 C2685 1.395 1_565 S
C2686 C2689 1.398 . S
C2686 H2696 0.930 . S
C2687 C2685 1.380 . S
C2687 C2688 1.391 . S
C2687 H2697 0.930 . S
C2688 C2687 1.391 . S
C2688 C2690 1.387 1_545 S
C2689 C2686 1.398 . S
C2689 C2690 1.380 . S
C2689 H2698 0.930 . S
C2690 C2688 1.387 1_565 S
C2690 C2689 1.380 . S
C2690 H2699 0.930 . S
C2691 O2668 1.254 1_565 S
C2691 O2669 1.268 1_556 S
H2692 C2677 0.930 . S
H2693 C2678 0.930 . S
H2694 C2680 0.930 . S
H2695 C2681 0.930 . S
H2696 C2686 0.930 . S
H2697 C2687 0.930 . S
H2698 C2689 0.930 . S
H2699 C2690 0.930 . S
Gd2700 N2731 2.661 . S
Gd2700 N2737 2.601 . S
Gd2700 O2744 2.545 . S
Gd2700 O2745 2.606 . S
Gd2700 O2747 2.429 . S
Gd2700 O2748 2.545 . S
Gd2700 O2749 2.412 . S
Gd2700 O2751 2.362 . S
Gd2700 O2752 2.324 . S
Gd2700 C2759 2.828 . S
Gd2701 N2710 2.661 . S
Gd2701 N2714 2.601 . S
Gd2701 O2745 2.362 . S
Gd2701 O2746 2.324 . S
Gd2701 O2750 2.545 . S
Gd2701 O2751 2.606 . S
Gd2701 O2753 2.429 . S
Gd2701 O2754 2.545 . S
Gd2701 O2755 2.412 . S
Gd2701 C2768 2.828 . S
C2702 C2705 1.417 . S
C2702 C2707 1.431 . S
C2702 C2708 1.412 . S
C2703 C2706 1.437 . S
C2703 C2707 1.317 . S
C2703 H2722 0.929 . S
C2704 C2705 1.426 . S
C2704 C2706 1.413 . S
C2704 N2714 1.359 . S
C2705 C2702 1.417 . S
C2705 C2704 1.426 . S
C2705 N2710 1.350 . S
C2706 C2703 1.437 . S
C2706 C2704 1.413 . S
C2706 C2716 1.391 . S
C2707 C2702 1.431 . S
C2707 C2703 1.317 . S
C2707 H2718 0.930 . S
C2708 C2702 1.412 . S
C2708 C2709 1.355 . S
C2708 H2720 0.930 . S
C2709 C2708 1.355 . S
C2709 C2711 1.402 . S
C2709 H2721 0.930 . S
N2710 Gd2701 2.661 . S
N2710 C2705 1.350 . S
N2710 C2711 1.307 . S
C2711 C2709 1.402 . S
C2711 N2710 1.307 . S
C2711 H2712 0.930 . S
H2712 C2711 0.930 . S
C2713 N2714 1.334 . S
C2713 C2715 1.394 . S
C2713 H2717 0.930 . S
N2714 Gd2701 2.601 . S
N2714 C2704 1.359 . S
N2714 C2713 1.334 . S
C2715 C2713 1.394 . S
C2715 C2716 1.359 . S
C2715 H2727 0.930 . S
C2716 C2706 1.391 . S
C2716 C2715 1.359 . S
C2716 H2728 0.929 . S
H2717 C2713 0.930 . S
H2718 C2707 0.930 . S
H2719 C2736 0.930 . S
H2720 C2708 0.930 . S
H2721 C2709 0.930 . S
H2722 C2703 0.929 . S
H2723 C2741 0.930 . S
H2724 C2732 0.930 . S
H2725 C2733 0.930 . S
H2726 C2757 0.929 . S
H2727 C2715 0.930 . S
H2728 C2716 0.929 . S
H2729 C2758 0.930 . S
H2730 C2739 0.930 . S
N2731 Gd2700 2.661 . S
N2731 C2735 1.350 . S
N2731 C2736 1.307 . S
C2732 H2724 0.930 . S
C2732 C2733 1.355 . S
C2732 C2734 1.412 . S
C2733 H2725 0.930 . S
C2733 C2732 1.355 . S
C2733 C2736 1.402 . S
C2734 C2732 1.412 . S
C2734 C2735 1.417 . S
C2734 C2758 1.431 . S
C2735 N2731 1.350 . S
C2735 C2734 1.417 . S
C2735 C2738 1.426 . S
C2736 H2719 0.930 . S
C2736 N2731 1.307 . S
C2736 C2733 1.402 . S
N2737 Gd2700 2.601 . S
N2737 C2738 1.359 . S
N2737 C2741 1.334 . S
C2738 C2735 1.426 . S
C2738 N2737 1.359 . S
C2738 C2742 1.413 . S
C2739 H2730 0.930 . S
C2739 C2740 1.359 . S
C2739 C2741 1.394 . S
C2740 C2739 1.359 . S
C2740 C2742 1.391 . S
C2740 H2743 0.929 . S
C2741 H2723 0.930 . S
C2741 N2737 1.334 . S
C2741 C2739 1.394 . S
C2742 C2738 1.413 . S
C2742 C2740 1.391 . S
C2742 C2757 1.437 . S
H2743 C2740 0.929 . S
O2744 Gd2700 2.545 . S
O2744 C2759 1.258 . S
O2745 Gd2700 2.606 . S
O2745 Gd2701 2.362 . S
O2745 C2756 1.284 . S
O2746 Gd2701 2.324 . S
O2746 C2766 1.254 . S
O2747 Gd2700 2.429 . S
O2747 C2766 1.268 . S
O2748 Gd2700 2.545 . S
O2748 C2756 1.250 . S
O2749 Gd2700 2.412 . S
O2749 C2759 1.252 . S
O2750 Gd2701 2.545 . S
O2750 C2768 1.258 . S
O2751 Gd2700 2.362 . S
O2751 Gd2701 2.606 . S
O2751 C2767 1.284 . S
O2752 Gd2700 2.324 . S
O2752 C2775 1.254 . S
O2753 Gd2701 2.429 . S
O2753 C2775 1.268 . S
O2754 Gd2701 2.545 . S
O2754 C2767 1.250 . S
O2755 Gd2701 2.412 . S
O2755 C2768 1.252 . S
C2756 O2745 1.284 . S
C2756 O2748 1.250 . S
C2757 H2726 0.929 . S
C2757 C2742 1.437 . S
C2757 C2758 1.317 . S
C2758 H2729 0.930 . S
C2758 C2734 1.431 . S
C2758 C2757 1.317 . S
C2759 Gd2700 2.828 . S
C2759 O2744 1.258 . S
C2759 O2749 1.252 . S
C2759 C2760 1.497 . S
C2760 C2759 1.497 . S
C2760 C2761 1.395 . S
C2760 C2762 1.380 . S
C2761 C2760 1.395 . S
C2761 C2764 1.398 . S
C2761 H2776 0.930 . S
C2762 C2760 1.380 . S
C2762 C2763 1.391 . S
C2762 H2777 0.930 . S
C2763 C2762 1.391 . S
C2763 C2765 1.387 . S
C2764 C2761 1.398 . S
C2764 C2765 1.380 . S
C2764 H2778 0.930 . S
C2765 C2763 1.387 . S
C2765 C2764 1.380 . S
C2765 H2779 0.930 . S
C2766 O2746 1.254 . S
C2766 O2747 1.268 . S
C2767 O2751 1.284 . S
C2767 O2754 1.250 . S
C2768 Gd2701 2.828 . S
C2768 O2750 1.258 . S
C2768 O2755 1.252 . S
C2768 C2769 1.497 . S
C2769 C2768 1.497 . S
C2769 C2770 1.395 . S
C2769 C2771 1.380 . S
C2770 C2769 1.395 . S
C2770 C2773 1.398 . S
C2770 H2780 0.930 . S
C2771 C2769 1.380 . S
C2771 C2772 1.391 . S
C2771 H2781 0.930 . S
C2772 C2771 1.391 . S
C2772 C2774 1.387 . S
C2773 C2770 1.398 . S
C2773 C2774 1.380 . S
C2773 H2782 0.930 . S
C2774 C2772 1.387 . S
C2774 C2773 1.380 . S
C2774 H2783 0.930 . S
C2775 O2752 1.254 . S
C2775 O2753 1.268 . S
H2776 C2761 0.930 . S
H2777 C2762 0.930 . S
H2778 C2764 0.930 . S
H2779 C2765 0.930 . S
H2780 C2770 0.930 . S
H2781 C2771 0.930 . S
H2782 C2773 0.930 . S
H2783 C2774 0.930 . S
Gd2784 N2815 2.661 1_554 S
Gd2784 N2821 2.601 1_554 S
Gd2784 O2828 2.545 . S
Gd2784 O2829 2.606 . S
Gd2784 O2831 2.429 . S
Gd2784 O2832 2.545 . S
Gd2784 O2833 2.412 . S
Gd2784 O2835 2.362 1_554 S
Gd2784 O2836 2.324 . S
Gd2784 C2843 2.828 . S
Gd2785 N2794 2.661 . S
Gd2785 N2798 2.601 . S
Gd2785 O2829 2.362 . S
Gd2785 O2830 2.324 . S
Gd2785 O2834 2.545 . S
Gd2785 O2835 2.606 1_554 S
Gd2785 O2837 2.429 . S
Gd2785 O2838 2.545 1_554 S
Gd2785 O2839 2.412 . S
Gd2785 C2852 2.828 . S
C2786 C2789 1.417 . S
C2786 C2791 1.431 . S
C2786 C2792 1.412 . S
C2787 C2790 1.437 . S
C2787 C2791 1.317 . S
C2787 H2806 0.929 . S
C2788 C2789 1.426 . S
C2788 C2790 1.413 . S
C2788 N2798 1.359 . S
C2789 C2786 1.417 . S
C2789 C2788 1.426 . S
C2789 N2794 1.350 . S
C2790 C2787 1.437 . S
C2790 C2788 1.413 . S
C2790 C2800 1.391 . S
C2791 C2786 1.431 . S
C2791 C2787 1.317 . S
C2791 H2802 0.930 . S
C2792 C2786 1.412 . S
C2792 C2793 1.355 . S
C2792 H2804 0.930 . S
C2793 C2792 1.355 . S
C2793 C2795 1.402 . S
C2793 H2805 0.930 . S
N2794 Gd2785 2.661 . S
N2794 C2789 1.350 . S
N2794 C2795 1.307 . S
C2795 C2793 1.402 . S
C2795 N2794 1.307 . S
C2795 H2796 0.930 . S
H2796 C2795 0.930 . S
C2797 N2798 1.334 . S
C2797 C2799 1.394 . S
C2797 H2801 0.930 . S
N2798 Gd2785 2.601 . S
N2798 C2788 1.359 . S
N2798 C2797 1.334 . S
C2799 C2797 1.394 . S
C2799 C2800 1.359 . S
C2799 H2811 0.930 . S
C2800 C2790 1.391 . S
C2800 C2799 1.359 . S
C2800 H2812 0.929 . S
H2801 C2797 0.930 . S
H2802 C2791 0.930 . S
H2803 C2820 0.930 . S
H2804 C2792 0.930 . S
H2805 C2793 0.930 . S
H2806 C2787 0.929 . S
H2807 C2825 0.930 . S
H2808 C2816 0.930 . S
H2809 C2817 0.930 . S
H2810 C2841 0.929 . S
H2811 C2799 0.930 . S
H2812 C2800 0.929 . S
H2813 C2842 0.930 . S
H2814 C2823 0.930 . S
N2815 Gd2784 2.661 1_556 S
N2815 C2819 1.350 . S
N2815 C2820 1.307 . S
C2816 H2808 0.930 . S
C2816 C2817 1.355 . S
C2816 C2818 1.412 . S
C2817 H2809 0.930 . S
C2817 C2816 1.355 . S
C2817 C2820 1.402 . S
C2818 C2816 1.412 . S
C2818 C2819 1.417 . S
C2818 C2842 1.431 . S
C2819 N2815 1.350 . S
C2819 C2818 1.417 . S
C2819 C2822 1.426 . S
C2820 H2803 0.930 . S
C2820 N2815 1.307 . S
C2820 C2817 1.402 . S
N2821 Gd2784 2.601 1_556 S
N2821 C2822 1.359 . S
N2821 C2825 1.334 . S
C2822 C2819 1.426 . S
C2822 N2821 1.359 . S
C2822 C2826 1.413 . S
C2823 H2814 0.930 . S
C2823 C2824 1.359 . S
C2823 C2825 1.394 . S
C2824 C2823 1.359 . S
C2824 C2826 1.391 . S
C2824 H2827 0.929 . S
C2825 H2807 0.930 . S
C2825 N2821 1.334 . S
C2825 C2823 1.394 . S
C2826 C2822 1.413 . S
C2826 C2824 1.391 . S
C2826 C2841 1.437 . S
H2827 C2824 0.929 . S
O2828 Gd2784 2.545 . S
O2828 C2843 1.258 . S
O2829 Gd2784 2.606 . S
O2829 Gd2785 2.362 . S
O2829 C2840 1.284 . S
O2830 Gd2785 2.324 . S
O2830 C2850 1.254 . S
O2831 Gd2784 2.429 . S
O2831 C2850 1.268 . S
O2832 Gd2784 2.545 . S
O2832 C2840 1.250 . S
O2833 Gd2784 2.412 . S
O2833 C2843 1.252 . S
O2834 Gd2785 2.545 . S
O2834 C2852 1.258 . S
O2835 Gd2784 2.362 1_556 S
O2835 Gd2785 2.606 1_556 S
O2835 C2851 1.284 . S
O2836 Gd2784 2.324 . S
O2836 C2859 1.254 . S
O2837 Gd2785 2.429 . S
O2837 C2859 1.268 . S
O2838 Gd2785 2.545 1_556 S
O2838 C2851 1.250 . S
O2839 Gd2785 2.412 . S
O2839 C2852 1.252 . S
C2840 O2829 1.284 . S
C2840 O2832 1.250 . S
C2841 H2810 0.929 . S
C2841 C2826 1.437 . S
C2841 C2842 1.317 . S
C2842 H2813 0.930 . S
C2842 C2818 1.431 . S
C2842 C2841 1.317 . S
C2843 Gd2784 2.828 . S
C2843 O2828 1.258 . S
C2843 O2833 1.252 . S
C2843 C2844 1.497 . S
C2844 C2843 1.497 . S
C2844 C2845 1.395 . S
C2844 C2846 1.380 . S
C2845 C2844 1.395 . S
C2845 C2848 1.398 . S
C2845 H2860 0.930 . S
C2846 C2844 1.380 . S
C2846 C2847 1.391 . S
C2846 H2861 0.930 . S
C2847 C2846 1.391 . S
C2847 C2849 1.387 . S
C2848 C2845 1.398 . S
C2848 C2849 1.380 . S
C2848 H2862 0.930 . S
C2849 C2847 1.387 . S
C2849 C2848 1.380 . S
C2849 H2863 0.930 . S
C2850 O2830 1.254 . S
C2850 O2831 1.268 . S
C2851 O2835 1.284 . S
C2851 O2838 1.250 . S
C2852 Gd2785 2.828 . S
C2852 O2834 1.258 . S
C2852 O2839 1.252 . S
C2852 C2853 1.497 . S
C2853 C2852 1.497 . S
C2853 C2854 1.395 . S
C2853 C2855 1.380 . S
C2854 C2853 1.395 . S
C2854 C2857 1.398 . S
C2854 H2864 0.930 . S
C2855 C2853 1.380 . S
C2855 C2856 1.391 1_554 S
C2855 H2865 0.919 1_554 S
C2856 C2855 1.391 1_556 S
C2856 C2858 1.387 1_556 S
C2857 C2854 1.398 . S
C2857 C2858 1.380 . S
C2857 H2866 0.930 . S
C2858 C2856 1.387 1_554 S
C2858 C2857 1.380 . S
C2858 H2867 0.947 . S
C2859 O2836 1.254 . S
C2859 O2837 1.268 . S
H2860 C2845 0.930 . S
H2861 C2846 0.930 . S
H2862 C2848 0.930 . S
H2863 C2849 0.930 . S
H2864 C2854 0.930 . S
H2865 C2855 0.919 1_556 S
H2866 C2857 0.930 . S
H2867 C2858 0.947 . S
Gd2868 N2899 2.661 . S
Gd2868 N2905 2.601 . S
Gd2868 O2912 2.545 . S
Gd2868 O2913 2.606 . S
Gd2868 O2915 2.429 . S
Gd2868 O2916 2.545 . S
Gd2868 O2917 2.412 . S
Gd2868 O2919 2.362 . S
Gd2868 O2920 2.324 . S
Gd2868 C2927 2.828 . S
Gd2869 N2878 2.661 . S
Gd2869 N2882 2.601 . S
Gd2869 O2913 2.362 . S
Gd2869 O2914 2.324 . S
Gd2869 O2918 2.545 . S
Gd2869 O2919 2.606 . S
Gd2869 O2921 2.429 . S
Gd2869 O2922 2.545 . S
Gd2869 O2923 2.412 . S
Gd2869 C2936 2.828 . S
C2870 C2873 1.417 . S
C2870 C2875 1.431 . S
C2870 C2876 1.412 . S
C2871 C2874 1.437 . S
C2871 C2875 1.317 . S
C2871 H2890 0.929 . S
C2872 C2873 1.426 . S
C2872 C2874 1.413 . S
C2872 N2882 1.359 . S
C2873 C2870 1.417 . S
C2873 C2872 1.426 . S
C2873 N2878 1.350 . S
C2874 C2871 1.437 . S
C2874 C2872 1.413 . S
C2874 C2884 1.391 . S
C2875 C2870 1.431 . S
C2875 C2871 1.317 . S
C2875 H2886 0.930 . S
C2876 C2870 1.412 . S
C2876 C2877 1.355 . S
C2876 H2888 0.930 . S
C2877 C2876 1.355 . S
C2877 C2879 1.402 . S
C2877 H2889 0.930 . S
N2878 Gd2869 2.661 . S
N2878 C2873 1.350 . S
N2878 C2879 1.307 . S
C2879 C2877 1.402 . S
C2879 N2878 1.307 . S
C2879 H2880 0.930 . S
H2880 C2879 0.930 . S
C2881 N2882 1.334 . S
C2881 C2883 1.394 . S
C2881 H2885 0.930 . S
N2882 Gd2869 2.601 . S
N2882 C2872 1.359 . S
N2882 C2881 1.334 . S
C2883 C2881 1.394 . S
C2883 C2884 1.359 . S
C2883 H2895 0.930 . S
C2884 C2874 1.391 . S
C2884 C2883 1.359 . S
C2884 H2896 0.929 . S
H2885 C2881 0.930 . S
H2886 C2875 0.930 . S
H2887 C2904 0.930 . S
H2888 C2876 0.930 . S
H2889 C2877 0.930 . S
H2890 C2871 0.929 . S
H2891 C2909 0.930 . S
H2892 C2900 0.930 . S
H2893 C2901 0.930 . S
H2894 C2925 0.929 . S
H2895 C2883 0.930 . S
H2896 C2884 0.929 . S
H2897 C2926 0.930 . S
H2898 C2907 0.930 . S
N2899 Gd2868 2.661 . S
N2899 C2903 1.350 . S
N2899 C2904 1.307 . S
C2900 H2892 0.930 . S
C2900 C2901 1.355 . S
C2900 C2902 1.412 . S
C2901 H2893 0.930 . S
C2901 C2900 1.355 . S
C2901 C2904 1.402 . S
C2902 C2900 1.412 . S
C2902 C2903 1.417 . S
C2902 C2926 1.431 . S
C2903 N2899 1.350 . S
C2903 C2902 1.417 . S
C2903 C2906 1.426 . S
C2904 H2887 0.930 . S
C2904 N2899 1.307 . S
C2904 C2901 1.402 . S
N2905 Gd2868 2.601 . S
N2905 C2906 1.359 . S
N2905 C2909 1.334 . S
C2906 C2903 1.426 . S
C2906 N2905 1.359 . S
C2906 C2910 1.413 . S
C2907 H2898 0.930 . S
C2907 C2908 1.359 . S
C2907 C2909 1.394 . S
C2908 C2907 1.359 . S
C2908 C2910 1.391 . S
C2908 H2911 0.929 . S
C2909 H2891 0.930 . S
C2909 N2905 1.334 . S
C2909 C2907 1.394 . S
C2910 C2906 1.413 . S
C2910 C2908 1.391 . S
C2910 C2925 1.437 . S
H2911 C2908 0.929 . S
O2912 Gd2868 2.545 . S
O2912 C2927 1.258 . S
O2913 Gd2868 2.606 . S
O2913 Gd2869 2.362 . S
O2913 C2924 1.284 . S
O2914 Gd2869 2.324 . S
O2914 C2934 1.254 . S
O2915 Gd2868 2.429 . S
O2915 C2934 1.268 . S
O2916 Gd2868 2.545 . S
O2916 C2924 1.250 . S
O2917 Gd2868 2.412 . S
O2917 C2927 1.252 . S
O2918 Gd2869 2.545 . S
O2918 C2936 1.258 . S
O2919 Gd2868 2.362 . S
O2919 Gd2869 2.606 . S
O2919 C2935 1.284 . S
O2920 Gd2868 2.324 . S
O2920 C2943 1.254 . S
O2921 Gd2869 2.429 . S
O2921 C2943 1.268 . S
O2922 Gd2869 2.545 . S
O2922 C2935 1.250 . S
O2923 Gd2869 2.412 . S
O2923 C2936 1.252 . S
C2924 O2913 1.284 . S
C2924 O2916 1.250 . S
C2925 H2894 0.929 . S
C2925 C2910 1.437 . S
C2925 C2926 1.317 . S
C2926 H2897 0.930 . S
C2926 C2902 1.431 . S
C2926 C2925 1.317 . S
C2927 Gd2868 2.828 . S
C2927 O2912 1.258 . S
C2927 O2917 1.252 . S
C2927 C2928 1.497 . S
C2928 C2927 1.497 . S
C2928 C2929 1.395 . S
C2928 C2930 1.380 . S
C2929 C2928 1.395 . S
C2929 C2932 1.398 . S
C2929 H2944 0.930 . S
C2930 C2928 1.380 . S
C2930 C2931 1.391 . S
C2930 H2945 0.930 . S
C2931 C2930 1.391 . S
C2931 C2933 1.387 . S
C2932 C2929 1.398 . S
C2932 C2933 1.380 . S
C2932 H2946 0.930 . S
C2933 C2931 1.387 . S
C2933 C2932 1.380 . S
C2933 H2947 0.930 . S
C2934 O2914 1.254 . S
C2934 O2915 1.268 . S
C2935 O2919 1.284 . S
C2935 O2922 1.250 . S
C2936 Gd2869 2.828 . S
C2936 O2918 1.258 . S
C2936 O2923 1.252 . S
C2936 C2937 1.497 . S
C2937 C2936 1.497 . S
C2937 C2938 1.395 . S
C2937 C2939 1.380 . S
C2938 C2937 1.395 . S
C2938 C2941 1.398 . S
C2938 H2948 0.930 . S
C2939 C2937 1.380 . S
C2939 C2940 1.391 . S
C2939 H2949 0.930 . S
C2940 C2939 1.391 . S
C2940 C2942 1.387 . S
C2941 C2938 1.398 . S
C2941 C2942 1.380 . S
C2941 H2950 0.930 . S
C2942 C2940 1.387 . S
C2942 C2941 1.380 . S
C2942 H2951 0.930 . S
C2943 O2920 1.254 . S
C2943 O2921 1.268 . S
H2944 C2929 0.930 . S
H2945 C2930 0.930 . S
H2946 C2932 0.930 . S
H2947 C2933 0.930 . S
H2948 C2938 0.930 . S
H2949 C2939 0.930 . S
H2950 C2941 0.930 . S
H2951 C2942 0.930 . S
Gd2952 N2983 2.661 . S
Gd2952 N2989 2.601 . S
Gd2952 O2996 2.545 . S
Gd2952 O2997 2.606 . S
Gd2952 O2999 2.429 . S
Gd2952 O3000 2.545 . S
Gd2952 O3001 2.412 . S
Gd2952 O3003 2.362 . S
Gd2952 O3004 2.324 . S
Gd2952 C3011 2.828 . S
Gd2953 N2962 2.661 . S
Gd2953 N2966 2.601 . S
Gd2953 O2997 2.362 . S
Gd2953 O2998 2.324 . S
Gd2953 O3002 2.545 . S
Gd2953 O3003 2.606 . S
Gd2953 O3005 2.429 . S
Gd2953 O3006 2.545 . S
Gd2953 O3007 2.412 . S
Gd2953 C3020 2.828 . S
C2954 C2957 1.417 . S
C2954 C2959 1.431 . S
C2954 C2960 1.412 . S
C2955 C2958 1.437 . S
C2955 C2959 1.317 . S
C2955 H2974 0.929 . S
C2956 C2957 1.426 . S
C2956 C2958 1.413 . S
C2956 N2966 1.359 . S
C2957 C2954 1.417 . S
C2957 C2956 1.426 . S
C2957 N2962 1.350 . S
C2958 C2955 1.437 . S
C2958 C2956 1.413 . S
C2958 C2968 1.391 . S
C2959 C2954 1.431 . S
C2959 C2955 1.317 . S
C2959 H2970 0.930 . S
C2960 C2954 1.412 . S
C2960 C2961 1.355 . S
C2960 H2972 0.930 . S
C2961 C2960 1.355 . S
C2961 C2963 1.402 . S
C2961 H2973 0.930 . S
N2962 Gd2953 2.661 . S
N2962 C2957 1.350 . S
N2962 C2963 1.307 . S
C2963 C2961 1.402 . S
C2963 N2962 1.307 . S
C2963 H2964 0.930 . S
H2964 C2963 0.930 . S
C2965 N2966 1.334 . S
C2965 C2967 1.394 . S
C2965 H2969 0.930 . S
N2966 Gd2953 2.601 . S
N2966 C2956 1.359 . S
N2966 C2965 1.334 . S
C2967 C2965 1.394 . S
C2967 C2968 1.359 . S
C2967 H2979 0.930 . S
C2968 C2958 1.391 . S
C2968 C2967 1.359 . S
C2968 H2980 0.929 . S
H2969 C2965 0.930 . S
H2970 C2959 0.930 . S
H2971 C2988 0.930 . S
H2972 C2960 0.930 . S
H2973 C2961 0.930 . S
H2974 C2955 0.929 . S
H2975 C2993 0.930 . S
H2976 C2984 0.930 . S
H2977 C2985 0.930 . S
H2978 C3009 0.929 . S
H2979 C2967 0.930 . S
H2980 C2968 0.929 . S
H2981 C3010 0.930 . S
H2982 C2991 0.930 . S
N2983 Gd2952 2.661 . S
N2983 C2987 1.350 . S
N2983 C2988 1.307 . S
C2984 H2976 0.930 . S
C2984 C2985 1.355 . S
C2984 C2986 1.412 . S
C2985 H2977 0.930 . S
C2985 C2984 1.355 . S
C2985 C2988 1.402 1_655 S
C2986 C2984 1.412 . S
C2986 C2987 1.417 1_655 S
C2986 C3010 1.431 . S
C2987 N2983 1.350 . S
C2987 C2986 1.417 1_455 S
C2987 C2990 1.426 . S
C2988 H2971 0.930 . S
C2988 N2983 1.307 . S
C2988 C2985 1.402 1_455 S
N2989 Gd2952 2.601 . S
N2989 C2990 1.359 . S
N2989 C2993 1.334 . S
C2990 C2987 1.426 . S
C2990 N2989 1.359 . S
C2990 C2994 1.413 1_455 S
C2991 H2982 0.930 . S
C2991 C2992 1.359 1_455 S
C2991 C2993 1.394 . S
C2992 C2991 1.359 1_655 S
C2992 C2994 1.391 . S
C2992 H2995 0.929 . S
C2993 H2975 0.930 . S
C2993 N2989 1.334 . S
C2993 C2991 1.394 . S
C2994 C2990 1.413 1_655 S
C2994 C2992 1.391 . S
C2994 C3009 1.437 . S
H2995 C2992 0.929 . S
O2996 Gd2952 2.545 . S
O2996 C3011 1.258 . S
O2997 Gd2952 2.606 . S
O2997 Gd2953 2.362 . S
O2997 C3008 1.284 . S
O2998 Gd2953 2.324 . S
O2998 C3018 1.254 . S
O2999 Gd2952 2.429 . S
O2999 C3018 1.268 . S
O3000 Gd2952 2.545 . S
O3000 C3008 1.250 . S
O3001 Gd2952 2.412 . S
O3001 C3011 1.252 . S
O3002 Gd2953 2.545 . S
O3002 C3020 1.258 . S
O3003 Gd2952 2.362 . S
O3003 Gd2953 2.606 . S
O3003 C3019 1.284 . S
O3004 Gd2952 2.324 . S
O3004 C3027 1.254 . S
O3005 Gd2953 2.429 . S
O3005 C3027 1.268 . S
O3006 Gd2953 2.545 . S
O3006 C3019 1.250 . S
O3007 Gd2953 2.412 . S
O3007 C3020 1.252 . S
C3008 O2997 1.284 . S
C3008 O3000 1.250 . S
C3009 H2978 0.929 . S
C3009 C2994 1.437 . S
C3009 C3010 1.317 . S
C3010 H2981 0.930 . S
C3010 C2986 1.431 . S
C3010 C3009 1.317 . S
C3011 Gd2952 2.828 . S
C3011 O2996 1.258 . S
C3011 O3001 1.252 . S
C3011 C3012 1.497 . S
C3012 C3011 1.497 . S
C3012 C3013 1.395 . S
C3012 C3014 1.380 . S
C3013 C3012 1.395 . S
C3013 C3016 1.398 . S
C3013 H3028 0.930 . S
C3014 C3012 1.380 . S
C3014 C3015 1.391 . S
C3014 H3029 0.930 . S
C3015 C3014 1.391 . S
C3015 C3017 1.387 . S
C3016 C3013 1.398 . S
C3016 C3017 1.380 . S
C3016 H3030 0.930 . S
C3017 C3015 1.387 . S
C3017 C3016 1.380 . S
C3017 H3031 0.930 . S
C3018 O2998 1.254 . S
C3018 O2999 1.268 . S
C3019 O3003 1.284 . S
C3019 O3006 1.250 . S
C3020 Gd2953 2.828 . S
C3020 O3002 1.258 . S
C3020 O3007 1.252 . S
C3020 C3021 1.497 . S
C3021 C3020 1.497 . S
C3021 C3022 1.395 . S
C3021 C3023 1.380 . S
C3022 C3021 1.395 . S
C3022 C3025 1.398 . S
C3022 H3032 0.930 . S
C3023 C3021 1.380 . S
C3023 C3024 1.391 . S
C3023 H3033 0.930 . S
C3024 C3023 1.391 . S
C3024 C3026 1.387 . S
C3025 C3022 1.398 . S
C3025 C3026 1.380 . S
C3025 H3034 0.930 . S
C3026 C3024 1.387 . S
C3026 C3025 1.380 . S
C3026 H3035 0.930 . S
C3027 O3004 1.254 . S
C3027 O3005 1.268 . S
H3028 C3013 0.930 . S
H3029 C3014 0.930 . S
H3030 C3016 0.930 . S
H3031 C3017 0.930 . S
H3032 C3022 0.930 . S
H3033 C3023 0.930 . S
H3034 C3025 0.930 . S
H3035 C3026 0.930 . S
Gd3036 N3067 2.661 . S
Gd3036 N3073 2.601 . S
Gd3036 O3080 2.545 . S
Gd3036 O3081 2.606 . S
Gd3036 O3083 2.429 . S
Gd3036 O3084 2.545 . S
Gd3036 O3085 2.412 . S
Gd3036 O3087 2.362 . S
Gd3036 O3088 2.324 . S
Gd3036 C3095 2.828 . S
Gd3037 N3046 2.661 . S
Gd3037 N3050 2.601 . S
Gd3037 O3081 2.362 . S
Gd3037 O3082 2.324 . S
Gd3037 O3086 2.545 . S
Gd3037 O3087 2.606 . S
Gd3037 O3089 2.429 . S
Gd3037 O3090 2.545 . S
Gd3037 O3091 2.412 . S
Gd3037 C3104 2.828 . S
C3038 C3041 1.417 . S
C3038 C3043 1.431 . S
C3038 C3044 1.412 . S
C3039 C3042 1.437 . S
C3039 C3043 1.317 . S
C3039 H3058 0.929 . S
C3040 C3041 1.426 . S
C3040 C3042 1.413 . S
C3040 N3050 1.359 . S
C3041 C3038 1.417 . S
C3041 C3040 1.426 . S
C3041 N3046 1.350 . S
C3042 C3039 1.437 . S
C3042 C3040 1.413 . S
C3042 C3052 1.391 . S
C3043 C3038 1.431 . S
C3043 C3039 1.317 . S
C3043 H3054 0.930 . S
C3044 C3038 1.412 . S
C3044 C3045 1.355 . S
C3044 H3056 0.930 . S
C3045 C3044 1.355 . S
C3045 C3047 1.402 . S
C3045 H3057 0.930 . S
N3046 Gd3037 2.661 . S
N3046 C3041 1.350 . S
N3046 C3047 1.307 . S
C3047 C3045 1.402 . S
C3047 N3046 1.307 . S
C3047 H3048 0.930 . S
H3048 C3047 0.930 . S
C3049 N3050 1.334 . S
C3049 C3051 1.394 . S
C3049 H3053 0.930 . S
N3050 Gd3037 2.601 . S
N3050 C3040 1.359 . S
N3050 C3049 1.334 . S
C3051 C3049 1.394 . S
C3051 C3052 1.359 . S
C3051 H3063 0.930 . S
C3052 C3042 1.391 . S
C3052 C3051 1.359 . S
C3052 H3064 0.929 . S
H3053 C3049 0.930 . S
H3054 C3043 0.930 . S
H3055 C3072 0.930 . S
H3056 C3044 0.930 . S
H3057 C3045 0.930 . S
H3058 C3039 0.929 . S
H3059 C3077 0.930 . S
H3060 C3068 0.930 . S
H3061 C3069 0.930 . S
H3062 C3093 0.929 . S
H3063 C3051 0.930 . S
H3064 C3052 0.929 . S
H3065 C3094 0.930 . S
H3066 C3075 0.930 . S
N3067 Gd3036 2.661 . S
N3067 C3071 1.350 . S
N3067 C3072 1.307 . S
C3068 H3060 0.930 . S
C3068 C3069 1.355 . S
C3068 C3070 1.412 . S
C3069 H3061 0.930 . S
C3069 C3068 1.355 . S
C3069 C3072 1.402 . S
C3070 C3068 1.412 . S
C3070 C3071 1.417 . S
C3070 C3094 1.431 . S
C3071 N3067 1.350 . S
C3071 C3070 1.417 . S
C3071 C3074 1.426 . S
C3072 H3055 0.930 . S
C3072 N3067 1.307 . S
C3072 C3069 1.402 . S
N3073 Gd3036 2.601 . S
N3073 C3074 1.359 . S
N3073 C3077 1.334 . S
C3074 C3071 1.426 . S
C3074 N3073 1.359 . S
C3074 C3078 1.413 . S
C3075 H3066 0.930 . S
C3075 C3076 1.359 . S
C3075 C3077 1.394 . S
C3076 C3075 1.359 . S
C3076 C3078 1.391 . S
C3076 H3079 0.929 . S
C3077 H3059 0.930 . S
C3077 N3073 1.334 . S
C3077 C3075 1.394 . S
C3078 C3074 1.413 . S
C3078 C3076 1.391 . S
C3078 C3093 1.437 . S
H3079 C3076 0.929 . S
O3080 Gd3036 2.545 . S
O3080 C3095 1.258 . S
O3081 Gd3036 2.606 . S
O3081 Gd3037 2.362 . S
O3081 C3092 1.284 . S
O3082 Gd3037 2.324 . S
O3082 C3102 1.254 . S
O3083 Gd3036 2.429 . S
O3083 C3102 1.268 . S
O3084 Gd3036 2.545 . S
O3084 C3092 1.250 . S
O3085 Gd3036 2.412 . S
O3085 C3095 1.252 . S
O3086 Gd3037 2.545 . S
O3086 C3104 1.258 . S
O3087 Gd3036 2.362 . S
O3087 Gd3037 2.606 . S
O3087 C3103 1.284 . S
O3088 Gd3036 2.324 . S
O3088 C3111 1.254 . S
O3089 Gd3037 2.429 . S
O3089 C3111 1.268 . S
O3090 Gd3037 2.545 . S
O3090 C3103 1.250 . S
O3091 Gd3037 2.412 . S
O3091 C3104 1.252 . S
C3092 O3081 1.284 . S
C3092 O3084 1.250 . S
C3093 H3062 0.929 . S
C3093 C3078 1.437 . S
C3093 C3094 1.317 . S
C3094 H3065 0.930 . S
C3094 C3070 1.431 . S
C3094 C3093 1.317 . S
C3095 Gd3036 2.828 . S
C3095 O3080 1.258 . S
C3095 O3085 1.252 . S
C3095 C3096 1.497 . S
C3096 C3095 1.497 . S
C3096 C3097 1.395 . S
C3096 C3098 1.380 . S
C3097 C3096 1.395 . S
C3097 C3100 1.398 . S
C3097 H3112 0.930 . S
C3098 C3096 1.380 . S
C3098 C3099 1.391 . S
C3098 H3113 0.930 . S
C3099 C3098 1.391 . S
C3099 C3101 1.387 . S
C3100 C3097 1.398 . S
C3100 C3101 1.380 . S
C3100 H3114 0.930 . S
C3101 C3099 1.387 . S
C3101 C3100 1.380 . S
C3101 H3115 0.930 . S
C3102 O3082 1.254 . S
C3102 O3083 1.268 . S
C3103 O3087 1.284 . S
C3103 O3090 1.250 . S
C3104 Gd3037 2.828 . S
C3104 O3086 1.258 . S
C3104 O3091 1.252 . S
C3104 C3105 1.497 . S
C3105 C3104 1.497 . S
C3105 C3106 1.395 . S
C3105 C3107 1.380 . S
C3106 C3105 1.395 . S
C3106 C3109 1.398 . S
C3106 H3116 0.930 . S
C3107 C3105 1.380 . S
C3107 C3108 1.391 . S
C3107 H3117 0.930 . S
C3108 C3107 1.391 . S
C3108 C3110 1.387 . S
C3109 C3106 1.398 . S
C3109 C3110 1.380 . S
C3109 H3118 0.930 . S
C3110 C3108 1.387 . S
C3110 C3109 1.380 . S
C3110 H3119 0.930 . S
C3111 O3088 1.254 . S
C3111 O3089 1.268 . S
H3112 C3097 0.930 . S
H3113 C3098 0.930 . S
H3114 C3100 0.930 . S
H3115 C3101 0.930 . S
H3116 C3106 0.930 . S
H3117 C3107 0.930 . S
H3118 C3109 0.930 . S
H3119 C3110 0.930 . S
Gd3120 N3151 2.661 . S
Gd3120 N3157 2.601 . S
Gd3120 O3164 2.545 . S
Gd3120 O3165 2.606 . S
Gd3120 O3167 2.429 . S
Gd3120 O3168 2.545 . S
Gd3120 O3169 2.412 . S
Gd3120 O3171 2.362 . S
Gd3120 O3172 2.324 . S
Gd3120 C3179 2.828 . S
Gd3121 N3130 2.661 . S
Gd3121 N3134 2.601 . S
Gd3121 O3165 2.362 . S
Gd3121 O3166 2.324 . S
Gd3121 O3170 2.545 . S
Gd3121 O3171 2.606 . S
Gd3121 O3173 2.429 . S
Gd3121 O3174 2.545 . S
Gd3121 O3175 2.412 . S
Gd3121 C3188 2.828 . S
C3122 C3125 1.417 . S
C3122 C3127 1.431 . S
C3122 C3128 1.412 . S
C3123 C3126 1.437 . S
C3123 C3127 1.317 . S
C3123 H3142 0.929 . S
C3124 C3125 1.426 . S
C3124 C3126 1.413 . S
C3124 N3134 1.359 . S
C3125 C3122 1.417 . S
C3125 C3124 1.426 . S
C3125 N3130 1.350 . S
C3126 C3123 1.437 . S
C3126 C3124 1.413 . S
C3126 C3136 1.391 . S
C3127 C3122 1.431 . S
C3127 C3123 1.317 . S
C3127 H3138 0.930 . S
C3128 C3122 1.412 . S
C3128 C3129 1.355 . S
C3128 H3140 0.930 . S
C3129 C3128 1.355 . S
C3129 C3131 1.402 . S
C3129 H3141 0.930 . S
N3130 Gd3121 2.661 . S
N3130 C3125 1.350 . S
N3130 C3131 1.307 . S
C3131 C3129 1.402 . S
C3131 N3130 1.307 . S
C3131 H3132 0.930 . S
H3132 C3131 0.930 . S
C3133 N3134 1.334 . S
C3133 C3135 1.394 . S
C3133 H3137 0.930 . S
N3134 Gd3121 2.601 . S
N3134 C3124 1.359 . S
N3134 C3133 1.334 . S
C3135 C3133 1.394 . S
C3135 C3136 1.359 . S
C3135 H3147 0.930 . S
C3136 C3126 1.391 . S
C3136 C3135 1.359 . S
C3136 H3148 0.929 . S
H3137 C3133 0.930 . S
H3138 C3127 0.930 . S
H3139 C3156 0.930 . S
H3140 C3128 0.930 . S
H3141 C3129 0.930 . S
H3142 C3123 0.929 . S
H3143 C3161 0.930 . S
H3144 C3152 0.930 . S
H3145 C3153 0.930 . S
H3146 C3177 0.929 . S
H3147 C3135 0.930 . S
H3148 C3136 0.929 . S
H3149 C3178 0.930 . S
H3150 C3159 0.930 . S
N3151 Gd3120 2.661 . S
N3151 C3155 1.350 . S
N3151 C3156 1.307 . S
C3152 H3144 0.930 . S
C3152 C3153 1.355 . S
C3152 C3154 1.412 . S
C3153 H3145 0.930 . S
C3153 C3152 1.355 . S
C3153 C3156 1.402 . S
C3154 C3152 1.412 . S
C3154 C3155 1.417 . S
C3154 C3178 1.431 . S
C3155 N3151 1.350 . S
C3155 C3154 1.417 . S
C3155 C3158 1.426 . S
C3156 H3139 0.930 . S
C3156 N3151 1.307 . S
C3156 C3153 1.402 . S
N3157 Gd3120 2.601 . S
N3157 C3158 1.359 . S
N3157 C3161 1.334 . S
C3158 C3155 1.426 . S
C3158 N3157 1.359 . S
C3158 C3162 1.413 . S
C3159 H3150 0.930 . S
C3159 C3160 1.359 . S
C3159 C3161 1.394 . S
C3160 C3159 1.359 . S
C3160 C3162 1.391 . S
C3160 H3163 0.929 . S
C3161 H3143 0.930 . S
C3161 N3157 1.334 . S
C3161 C3159 1.394 . S
C3162 C3158 1.413 . S
C3162 C3160 1.391 . S
C3162 C3177 1.437 . S
H3163 C3160 0.929 . S
O3164 Gd3120 2.545 . S
O3164 C3179 1.258 . S
O3165 Gd3120 2.606 . S
O3165 Gd3121 2.362 . S
O3165 C3176 1.284 . S
O3166 Gd3121 2.324 . S
O3166 C3186 1.254 . S
O3167 Gd3120 2.429 . S
O3167 C3186 1.268 . S
O3168 Gd3120 2.545 . S
O3168 C3176 1.250 . S
O3169 Gd3120 2.412 . S
O3169 C3179 1.252 . S
O3170 Gd3121 2.545 . S
O3170 C3188 1.258 . S
O3171 Gd3120 2.362 . S
O3171 Gd3121 2.606 . S
O3171 C3187 1.284 . S
O3172 Gd3120 2.324 . S
O3172 C3195 1.254 . S
O3173 Gd3121 2.429 . S
O3173 C3195 1.268 . S
O3174 Gd3121 2.545 . S
O3174 C3187 1.250 . S
O3175 Gd3121 2.412 . S
O3175 C3188 1.252 . S
C3176 O3165 1.284 . S
C3176 O3168 1.250 . S
C3177 H3146 0.929 . S
C3177 C3162 1.437 . S
C3177 C3178 1.317 . S
C3178 H3149 0.930 . S
C3178 C3154 1.431 . S
C3178 C3177 1.317 . S
C3179 Gd3120 2.828 . S
C3179 O3164 1.258 . S
C3179 O3169 1.252 . S
C3179 C3180 1.497 . S
C3180 C3179 1.497 . S
C3180 C3181 1.395 . S
C3180 C3182 1.380 . S
C3181 C3180 1.395 . S
C3181 C3184 1.398 . S
C3181 H3196 0.930 . S
C3182 C3180 1.380 . S
C3182 C3183 1.391 . S
C3182 H3197 0.930 . S
C3183 C3182 1.391 . S
C3183 C3185 1.387 . S
C3184 C3181 1.398 . S
C3184 C3185 1.380 . S
C3184 H3198 0.930 . S
C3185 C3183 1.387 . S
C3185 C3184 1.380 . S
C3185 H3199 0.930 . S
C3186 O3166 1.254 . S
C3186 O3167 1.268 . S
C3187 O3171 1.284 . S
C3187 O3174 1.250 . S
C3188 Gd3121 2.828 . S
C3188 O3170 1.258 . S
C3188 O3175 1.252 . S
C3188 C3189 1.497 . S
C3189 C3188 1.497 . S
C3189 C3190 1.395 . S
C3189 C3191 1.380 . S
C3190 C3189 1.395 . S
C3190 C3193 1.398 . S
C3190 H3200 0.930 . S
C3191 C3189 1.380 . S
C3191 C3192 1.391 . S
C3191 H3201 0.930 . S
C3192 C3191 1.391 . S
C3192 C3194 1.387 . S
C3193 C3190 1.398 . S
C3193 C3194 1.380 . S
C3193 H3202 0.930 . S
C3194 C3192 1.387 . S
C3194 C3193 1.380 . S
C3194 H3203 0.930 . S
C3195 O3172 1.254 . S
C3195 O3173 1.268 . S
H3196 C3181 0.930 . S
H3197 C3182 0.930 . S
H3198 C3184 0.930 . S
H3199 C3185 0.930 . S
H3200 C3190 0.930 . S
H3201 C3191 0.930 . S
H3202 C3193 0.930 . S
H3203 C3194 0.930 . S
Gd3204 N3235 2.661 . S
Gd3204 N3241 2.601 . S
Gd3204 O3248 2.545 . S
Gd3204 O3249 2.606 . S
Gd3204 O3251 2.429 . S
Gd3204 O3252 2.545 . S
Gd3204 O3253 2.412 . S
Gd3204 O3255 2.362 . S
Gd3204 O3256 2.324 . S
Gd3204 C3263 2.828 . S
Gd3205 N3214 2.661 . S
Gd3205 N3218 2.601 . S
Gd3205 O3249 2.362 . S
Gd3205 O3250 2.324 . S
Gd3205 O3254 2.545 . S
Gd3205 O3255 2.606 . S
Gd3205 O3257 2.429 . S
Gd3205 O3258 2.545 . S
Gd3205 O3259 2.412 . S
Gd3205 C3272 2.828 . S
C3206 C3209 1.417 . S
C3206 C3211 1.431 . S
C3206 C3212 1.412 . S
C3207 C3210 1.437 . S
C3207 C3211 1.317 . S
C3207 H3226 0.929 . S
C3208 C3209 1.426 . S
C3208 C3210 1.413 . S
C3208 N3218 1.359 . S
C3209 C3206 1.417 . S
C3209 C3208 1.426 . S
C3209 N3214 1.350 . S
C3210 C3207 1.437 . S
C3210 C3208 1.413 . S
C3210 C3220 1.391 . S
C3211 C3206 1.431 . S
C3211 C3207 1.317 . S
C3211 H3222 0.930 . S
C3212 C3206 1.412 . S
C3212 C3213 1.355 . S
C3212 H3224 0.930 . S
C3213 C3212 1.355 . S
C3213 C3215 1.402 . S
C3213 H3225 0.930 . S
N3214 Gd3205 2.661 . S
N3214 C3209 1.350 . S
N3214 C3215 1.307 . S
C3215 C3213 1.402 . S
C3215 N3214 1.307 . S
C3215 H3216 0.930 . S
H3216 C3215 0.930 . S
C3217 N3218 1.334 . S
C3217 C3219 1.394 . S
C3217 H3221 0.930 . S
N3218 Gd3205 2.601 . S
N3218 C3208 1.359 . S
N3218 C3217 1.334 . S
C3219 C3217 1.394 . S
C3219 C3220 1.359 . S
C3219 H3231 0.930 . S
C3220 C3210 1.391 . S
C3220 C3219 1.359 . S
C3220 H3232 0.929 . S
H3221 C3217 0.930 . S
H3222 C3211 0.930 . S
H3223 C3240 0.930 . S
H3224 C3212 0.930 . S
H3225 C3213 0.930 . S
H3226 C3207 0.929 . S
H3227 C3245 0.930 . S
H3228 C3236 0.930 . S
H3229 C3237 0.930 . S
H3230 C3261 0.929 . S
H3231 C3219 0.930 . S
H3232 C3220 0.929 . S
H3233 C3262 0.930 . S
H3234 C3243 0.930 . S
N3235 Gd3204 2.661 . S
N3235 C3239 1.350 . S
N3235 C3240 1.307 . S
C3236 H3228 0.930 . S
C3236 C3237 1.355 . S
C3236 C3238 1.412 . S
C3237 H3229 0.930 . S
C3237 C3236 1.355 . S
C3237 C3240 1.402 . S
C3238 C3236 1.412 . S
C3238 C3239 1.417 . S
C3238 C3262 1.431 . S
C3239 N3235 1.350 . S
C3239 C3238 1.417 . S
C3239 C3242 1.426 . S
C3240 H3223 0.930 . S
C3240 N3235 1.307 . S
C3240 C3237 1.402 . S
N3241 Gd3204 2.601 . S
N3241 C3242 1.359 . S
N3241 C3245 1.334 . S
C3242 C3239 1.426 . S
C3242 N3241 1.359 . S
C3242 C3246 1.413 . S
C3243 H3234 0.930 . S
C3243 C3244 1.359 . S
C3243 C3245 1.394 . S
C3244 C3243 1.359 . S
C3244 C3246 1.391 . S
C3244 H3247 0.929 . S
C3245 H3227 0.930 . S
C3245 N3241 1.334 . S
C3245 C3243 1.394 . S
C3246 C3242 1.413 . S
C3246 C3244 1.391 . S
C3246 C3261 1.437 . S
H3247 C3244 0.929 . S
O3248 Gd3204 2.545 . S
O3248 C3263 1.258 . S
O3249 Gd3204 2.606 . S
O3249 Gd3205 2.362 . S
O3249 C3260 1.284 . S
O3250 Gd3205 2.324 . S
O3250 C3270 1.254 . S
O3251 Gd3204 2.429 . S
O3251 C3270 1.268 . S
O3252 Gd3204 2.545 . S
O3252 C3260 1.250 . S
O3253 Gd3204 2.412 . S
O3253 C3263 1.252 . S
O3254 Gd3205 2.545 . S
O3254 C3272 1.258 . S
O3255 Gd3204 2.362 . S
O3255 Gd3205 2.606 . S
O3255 C3271 1.284 . S
O3256 Gd3204 2.324 . S
O3256 C3279 1.254 . S
O3257 Gd3205 2.429 . S
O3257 C3279 1.268 . S
O3258 Gd3205 2.545 . S
O3258 C3271 1.250 . S
O3259 Gd3205 2.412 . S
O3259 C3272 1.252 . S
C3260 O3249 1.284 . S
C3260 O3252 1.250 . S
C3261 H3230 0.929 . S
C3261 C3246 1.437 . S
C3261 C3262 1.317 . S
C3262 H3233 0.930 . S
C3262 C3238 1.431 . S
C3262 C3261 1.317 . S
C3263 Gd3204 2.828 . S
C3263 O3248 1.258 . S
C3263 O3253 1.252 . S
C3263 C3264 1.497 . S
C3264 C3263 1.497 . S
C3264 C3265 1.395 . S
C3264 C3266 1.380 . S
C3265 C3264 1.395 . S
C3265 C3268 1.398 . S
C3265 H3280 0.930 . S
C3266 C3264 1.380 . S
C3266 C3267 1.391 . S
C3266 H3281 0.930 . S
C3267 C3266 1.391 . S
C3267 C3269 1.387 . S
C3268 C3265 1.398 . S
C3268 C3269 1.380 . S
C3268 H3282 0.930 . S
C3269 C3267 1.387 . S
C3269 C3268 1.380 . S
C3269 H3283 0.930 . S
C3270 O3250 1.254 . S
C3270 O3251 1.268 . S
C3271 O3255 1.284 . S
C3271 O3258 1.250 . S
C3272 Gd3205 2.828 . S
C3272 O3254 1.258 . S
C3272 O3259 1.252 . S
C3272 C3273 1.497 . S
C3273 C3272 1.497 . S
C3273 C3274 1.395 . S
C3273 C3275 1.380 . S
C3274 C3273 1.395 . S
C3274 C3277 1.398 . S
C3274 H3284 0.930 . S
C3275 C3273 1.380 . S
C3275 C3276 1.391 . S
C3275 H3285 0.930 . S
C3276 C3275 1.391 . S
C3276 C3278 1.387 . S
C3277 C3274 1.398 . S
C3277 C3278 1.380 . S
C3277 H3286 0.930 . S
C3278 C3276 1.387 . S
C3278 C3277 1.380 . S
C3278 H3287 0.930 . S
C3279 O3256 1.254 . S
C3279 O3257 1.268 . S
H3280 C3265 0.930 . S
H3281 C3266 0.930 . S
H3282 C3268 0.930 . S
H3283 C3269 0.930 . S
H3284 C3274 0.930 . S
H3285 C3275 0.930 . S
H3286 C3277 0.930 . S
H3287 C3278 0.930 . S
Gd3288 N3319 2.661 . S
Gd3288 N3325 2.601 . S
Gd3288 O3332 2.545 . S
Gd3288 O3333 2.606 . S
Gd3288 O3335 2.429 . S
Gd3288 O3336 2.545 . S
Gd3288 O3337 2.412 . S
Gd3288 O3339 2.362 . S
Gd3288 O3340 2.324 . S
Gd3288 C3347 2.828 . S
Gd3289 N3298 2.661 . S
Gd3289 N3302 2.601 . S
Gd3289 O3333 2.362 . S
Gd3289 O3334 2.324 . S
Gd3289 O3338 2.545 . S
Gd3289 O3339 2.606 . S
Gd3289 O3341 2.429 . S
Gd3289 O3342 2.545 . S
Gd3289 O3343 2.412 . S
Gd3289 C3356 2.828 . S
C3290 C3293 1.417 . S
C3290 C3295 1.431 . S
C3290 C3296 1.412 . S
C3291 C3294 1.437 . S
C3291 C3295 1.317 . S
C3291 H3310 0.929 . S
C3292 C3293 1.426 . S
C3292 C3294 1.413 . S
C3292 N3302 1.359 . S
C3293 C3290 1.417 . S
C3293 C3292 1.426 . S
C3293 N3298 1.350 . S
C3294 C3291 1.437 . S
C3294 C3292 1.413 . S
C3294 C3304 1.391 . S
C3295 C3290 1.431 . S
C3295 C3291 1.317 . S
C3295 H3306 0.930 . S
C3296 C3290 1.412 . S
C3296 C3297 1.355 . S
C3296 H3308 0.930 . S
C3297 C3296 1.355 . S
C3297 C3299 1.402 . S
C3297 H3309 0.930 . S
N3298 Gd3289 2.661 . S
N3298 C3293 1.350 . S
N3298 C3299 1.307 . S
C3299 C3297 1.402 . S
C3299 N3298 1.307 . S
C3299 H3300 0.930 . S
H3300 C3299 0.930 . S
C3301 N3302 1.334 . S
C3301 C3303 1.394 . S
C3301 H3305 0.930 . S
N3302 Gd3289 2.601 . S
N3302 C3292 1.359 . S
N3302 C3301 1.334 . S
C3303 C3301 1.394 . S
C3303 C3304 1.359 . S
C3303 H3315 0.930 . S
C3304 C3294 1.391 . S
C3304 C3303 1.359 . S
C3304 H3316 0.929 . S
H3305 C3301 0.930 . S
H3306 C3295 0.930 . S
H3307 C3324 0.930 . S
H3308 C3296 0.930 . S
H3309 C3297 0.930 . S
H3310 C3291 0.929 . S
H3311 C3329 0.930 . S
H3312 C3320 0.930 . S
H3313 C3321 0.930 . S
H3314 C3345 0.929 . S
H3315 C3303 0.930 . S
H3316 C3304 0.929 . S
H3317 C3346 0.930 . S
H3318 C3327 0.930 . S
N3319 Gd3288 2.661 . S
N3319 C3323 1.350 . S
N3319 C3324 1.307 . S
C3320 H3312 0.930 . S
C3320 C3321 1.355 . S
C3320 C3322 1.412 . S
C3321 H3313 0.930 . S
C3321 C3320 1.355 . S
C3321 C3324 1.402 . S
C3322 C3320 1.412 . S
C3322 C3323 1.417 . S
C3322 C3346 1.431 . S
C3323 N3319 1.350 . S
C3323 C3322 1.417 . S
C3323 C3326 1.426 . S
C3324 H3307 0.930 . S
C3324 N3319 1.307 . S
C3324 C3321 1.402 . S
N3325 Gd3288 2.601 . S
N3325 C3326 1.359 . S
N3325 C3329 1.334 . S
C3326 C3323 1.426 . S
C3326 N3325 1.359 . S
C3326 C3330 1.413 . S
C3327 H3318 0.930 . S
C3327 C3328 1.359 . S
C3327 C3329 1.394 . S
C3328 C3327 1.359 . S
C3328 C3330 1.391 . S
C3328 H3331 0.929 . S
C3329 H3311 0.930 . S
C3329 N3325 1.334 . S
C3329 C3327 1.394 . S
C3330 C3326 1.413 . S
C3330 C3328 1.391 . S
C3330 C3345 1.437 . S
H3331 C3328 0.929 . S
O3332 Gd3288 2.545 . S
O3332 C3347 1.258 . S
O3333 Gd3288 2.606 . S
O3333 Gd3289 2.362 . S
O3333 C3344 1.284 . S
O3334 Gd3289 2.324 . S
O3334 C3354 1.254 . S
O3335 Gd3288 2.429 . S
O3335 C3354 1.268 . S
O3336 Gd3288 2.545 . S
O3336 C3344 1.250 . S
O3337 Gd3288 2.412 . S
O3337 C3347 1.252 . S
O3338 Gd3289 2.545 . S
O3338 C3356 1.258 . S
O3339 Gd3288 2.362 . S
O3339 Gd3289 2.606 . S
O3339 C3355 1.284 . S
O3340 Gd3288 2.324 . S
O3340 C3363 1.254 . S
O3341 Gd3289 2.429 . S
O3341 C3363 1.268 . S
O3342 Gd3289 2.545 . S
O3342 C3355 1.250 . S
O3343 Gd3289 2.412 . S
O3343 C3356 1.252 . S
C3344 O3333 1.284 . S
C3344 O3336 1.250 . S
C3345 H3314 0.929 . S
C3345 C3330 1.437 . S
C3345 C3346 1.317 . S
C3346 H3317 0.930 . S
C3346 C3322 1.431 . S
C3346 C3345 1.317 . S
C3347 Gd3288 2.828 . S
C3347 O3332 1.258 . S
C3347 O3337 1.252 . S
C3347 C3348 1.497 . S
C3348 C3347 1.497 . S
C3348 C3349 1.395 . S
C3348 C3350 1.380 . S
C3349 C3348 1.395 . S
C3349 C3352 1.398 . S
C3349 H3364 0.930 . S
C3350 C3348 1.380 . S
C3350 C3351 1.391 . S
C3350 H3365 0.930 . S
C3351 C3350 1.391 . S
C3351 C3353 1.387 . S
C3352 C3349 1.398 . S
C3352 C3353 1.380 . S
C3352 H3366 0.930 . S
C3353 C3351 1.387 . S
C3353 C3352 1.380 . S
C3353 H3367 0.930 . S
C3354 O3334 1.254 . S
C3354 O3335 1.268 . S
C3355 O3339 1.284 . S
C3355 O3342 1.250 . S
C3356 Gd3289 2.828 . S
C3356 O3338 1.258 . S
C3356 O3343 1.252 . S
C3356 C3357 1.497 . S
C3357 C3356 1.497 . S
C3357 C3358 1.395 . S
C3357 C3359 1.380 . S
C3358 C3357 1.395 . S
C3358 C3361 1.398 . S
C3358 H3368 0.930 . S
C3359 C3357 1.380 . S
C3359 C3360 1.391 . S
C3359 H3369 0.930 . S
C3360 C3359 1.391 . S
C3360 C3362 1.387 . S
C3361 C3358 1.398 . S
C3361 C3362 1.380 . S
C3361 H3370 0.930 . S
C3362 C3360 1.387 . S
C3362 C3361 1.380 . S
C3362 H3371 0.930 . S
C3363 O3340 1.254 . S
C3363 O3341 1.268 . S
H3364 C3349 0.930 . S
H3365 C3350 0.930 . S
H3366 C3352 0.930 . S
H3367 C3353 0.930 . S
H3368 C3358 0.930 . S
H3369 C3359 0.930 . S
H3370 C3361 0.930 . S
H3371 C3362 0.930 . S
Gd3372 N3403 2.661 . S
Gd3372 N3409 2.601 . S
Gd3372 O3416 2.545 . S
Gd3372 O3417 2.606 . S
Gd3372 O3419 2.429 . S
Gd3372 O3420 2.545 . S
Gd3372 O3421 2.412 1_455 S
Gd3372 O3423 2.362 . S
Gd3372 O3424 2.324 1_554 S
Gd3372 C3431 2.828 1_455 S
Gd3373 N3382 2.661 . S
Gd3373 N3386 2.601 1_554 S
Gd3373 O3417 2.362 . S
Gd3373 O3418 2.324 . S
Gd3373 O3422 2.545 1_554 S
Gd3373 O3423 2.606 . S
Gd3373 O3425 2.429 1_554 S
Gd3373 O3426 2.545 1_554 S
Gd3373 O3427 2.412 . S
Gd3373 C3440 2.828 1_554 S
C3374 C3377 1.417 . S
C3374 C3379 1.431 . S
C3374 C3380 1.412 . S
C3375 C3378 1.437 . S
C3375 C3379 1.317 1_556 S
C3375 H3394 0.929 . S
C3376 C3377 1.426 1_556 S
C3376 C3378 1.413 . S
C3376 N3386 1.359 . S
C3377 C3374 1.417 . S
C3377 C3376 1.426 1_554 S
C3377 N3382 1.350 . S
C3378 C3375 1.437 . S
C3378 C3376 1.413 . S
C3378 C3388 1.391 . S
C3379 C3374 1.431 . S
C3379 C3375 1.317 1_554 S
C3379 H3390 0.930 . S
C3380 C3374 1.412 . S
C3380 C3381 1.355 . S
C3380 H3392 0.930 . S
C3381 C3380 1.355 . S
C3381 C3383 1.402 . S
C3381 H3393 0.930 . S
N3382 Gd3373 2.661 . S
N3382 C3377 1.350 . S
N3382 C3383 1.307 . S
C3383 C3381 1.402 . S
C3383 N3382 1.307 . S
C3383 H3384 0.930 . S
H3384 C3383 0.930 . S
C3385 N3386 1.334 . S
C3385 C3387 1.394 . S
C3385 H3389 0.930 . S
N3386 Gd3373 2.601 1_556 S
N3386 C3376 1.359 . S
N3386 C3385 1.334 . S
C3387 C3385 1.394 . S
C3387 C3388 1.359 . S
C3387 H3399 0.930 . S
C3388 C3378 1.391 . S
C3388 C3387 1.359 . S
C3388 H3400 0.929 . S
H3389 C3385 0.930 . S
H3390 C3379 0.930 . S
H3391 C3408 0.930 1_455 S
H3392 C3380 0.930 . S
H3393 C3381 0.930 . S
H3394 C3375 0.929 . S
H3395 C3413 0.930 . S
H3396 C3404 0.930 . S
H3397 C3405 0.930 . S
H3398 C3429 0.929 . S
H3399 C3387 0.930 . S
H3400 C3388 0.929 . S
H3401 C3430 0.930 . S
H3402 C3411 0.930 . S
N3403 Gd3372 2.661 . S
N3403 C3407 1.350 1_455 S
N3403 C3408 1.307 1_454 S
C3404 H3396 0.930 . S
C3404 C3405 1.355 . S
C3404 C3406 1.412 1_556 S
C3405 H3397 0.930 . S
C3405 C3404 1.355 . S
C3405 C3408 1.402 . S
C3406 C3404 1.412 1_554 S
C3406 C3407 1.417 . S
C3406 C3430 1.431 . S
C3407 N3403 1.350 1_655 S
C3407 C3406 1.417 . S
C3407 C3410 1.426 . S
C3408 H3391 0.930 1_655 S
C3408 N3403 1.307 1_656 S
C3408 C3405 1.402 . S
N3409 Gd3372 2.601 . S
N3409 C3410 1.359 1_455 S
N3409 C3413 1.334 . S
C3410 C3407 1.426 . S
C3410 N3409 1.359 1_655 S
C3410 C3414 1.413 . S
C3411 H3402 0.930 . S
C3411 C3412 1.359 1_455 S
C3411 C3413 1.394 . S
C3412 C3411 1.359 1_655 S
C3412 C3414 1.391 . S
C3412 H3415 0.929 . S
C3413 H3395 0.930 . S
C3413 N3409 1.334 . S
C3413 C3411 1.394 . S
C3414 C3410 1.413 . S
C3414 C3412 1.391 . S
C3414 C3429 1.437 . S
H3415 C3412 0.929 . S
O3416 Gd3372 2.545 . S
O3416 C3431 1.258 1_455 S
O3417 Gd3372 2.606 . S
O3417 Gd3373 2.362 . S
O3417 C3428 1.284 . S
O3418 Gd3373 2.324 . S
O3418 C3438 1.254 . S
O3419 Gd3372 2.429 . S
O3419 C3438 1.268 . S
O3420 Gd3372 2.545 . S
O3420 C3428 1.250 . S
O3421 Gd3372 2.412 1_655 S
O3421 C3431 1.252 . S
O3422 Gd3373 2.545 1_556 S
O3422 C3440 1.258 . S
O3423 Gd3372 2.362 . S
O3423 Gd3373 2.606 . S
O3423 C3439 1.284 . S
O3424 Gd3372 2.324 1_556 S
O3424 C3447 1.254 . S
O3425 Gd3373 2.429 1_556 S
O3425 C3447 1.268 . S
O3426 Gd3373 2.545 1_556 S
O3426 C3439 1.250 1_556 S
O3427 Gd3373 2.412 . S
O3427 C3440 1.252 1_554 S
C3428 O3417 1.284 . S
C3428 O3420 1.250 . S
C3429 H3398 0.929 . S
C3429 C3414 1.437 . S
C3429 C3430 1.317 . S
C3430 H3401 0.930 . S
C3430 C3406 1.431 . S
C3430 C3429 1.317 . S
C3431 Gd3372 2.828 1_655 S
C3431 O3416 1.258 1_655 S
C3431 O3421 1.252 . S
C3431 C3432 1.497 . S
C3432 C3431 1.497 . S
C3432 C3433 1.395 . S
C3432 C3434 1.380 . S
C3433 C3432 1.395 . S
C3433 C3436 1.398 . S
C3433 H3448 0.930 . S
C3434 C3432 1.380 . S
C3434 C3435 1.391 . S
C3434 H3449 0.930 . S
C3435 C3434 1.391 . S
C3435 C3437 1.387 . S
C3436 C3433 1.398 . S
C3436 C3437 1.380 . S
C3436 H3450 0.930 . S
C3437 C3435 1.387 . S
C3437 C3436 1.380 . S
C3437 H3451 0.930 . S
C3438 O3418 1.254 . S
C3438 O3419 1.268 . S
C3439 O3423 1.284 . S
C3439 O3426 1.250 1_554 S
C3440 Gd3373 2.828 1_556 S
C3440 O3422 1.258 . S
C3440 O3427 1.252 1_556 S
C3440 C3441 1.497 . S
C3441 C3440 1.497 . S
C3441 C3442 1.395 . S
C3441 C3443 1.380 1_556 S
C3442 C3441 1.395 . S
C3442 C3445 1.398 . S
C3442 H3452 0.930 . S
C3443 C3441 1.380 1_554 S
C3443 C3444 1.391 1_554 S
C3443 H3453 0.930 . S
C3444 C3443 1.391 1_556 S
C3444 C3446 1.387 . S
C3445 C3442 1.398 . S
C3445 C3446 1.380 . S
C3445 H3454 0.930 . S
C3446 C3444 1.387 . S
C3446 C3445 1.380 . S
C3446 H3455 0.930 . S
C3447 O3424 1.254 . S
C3447 O3425 1.268 . S
H3448 C3433 0.930 . S
H3449 C3434 0.930 . S
H3450 C3436 0.930 . S
H3451 C3437 0.930 . S
H3452 C3442 0.930 . S
H3453 C3443 0.930 . S
H3454 C3445 0.930 . S
H3455 C3446 0.930 . S
H3456 C3462 0.930 . S
H3457 C3465 0.930 . S
H3458 C3466 0.930 . S
H3459 C3467 0.930 1_556 S
H3460 C3470 0.930 . S
H3461 C3471 0.930 . S
C3462 H3456 0.930 . S
C3462 C3463 1.353 1_554 S
C3462 C3464 1.415 . S
C3463 C3462 1.353 1_556 S
C3463 C3465 1.421 . S
C3464 C3462 1.415 . S
C3464 C3469 1.440 . S
C3464 C3471 1.409 . S
C3465 H3457 0.930 . S
C3465 C3463 1.421 . S
C3465 C3466 1.362 . S
C3466 H3458 0.930 . S
C3466 C3465 1.362 . S
C3466 C3469 1.391 1_556 S
C3467 H3459 0.930 1_554 S
C3467 C3468 1.355 . S
C3467 C3469 1.419 . S
C3468 C3467 1.355 . S
C3468 C3470 1.419 . S
C3469 C3464 1.440 . S
C3469 C3466 1.391 1_554 S
C3469 C3467 1.419 . S
C3470 H3460 0.930 . S
C3470 C3468 1.419 . S
C3470 C3471 1.362 . S
C3471 H3461 0.930 . S
C3471 C3464 1.409 . S
C3471 C3470 1.362 . S
H3472 C3478 0.930 . S
H3473 C3481 0.930 . S
H3474 C3482 0.930 . S
H3475 C3483 0.930 . S
H3476 C3486 0.930 . S
H3477 C3487 0.930 . S
C3478 H3472 0.930 . S
C3478 C3479 1.355 . S
C3478 C3480 1.415 . S
C3479 C3478 1.355 . S
C3479 C3481 1.419 . S
C3480 C3478 1.415 . S
C3480 C3485 1.425 . S
C3480 C3487 1.409 . S
C3481 H3473 0.930 . S
C3481 C3479 1.419 . S
C3481 C3482 1.362 . S
C3482 H3474 0.930 . S
C3482 C3481 1.362 . S
C3482 C3485 1.409 . S
C3483 H3475 0.930 . S
C3483 C3484 1.355 . S
C3483 C3485 1.415 . S
C3484 C3483 1.355 . S
C3484 C3486 1.419 . S
C3485 C3480 1.425 . S
C3485 C3482 1.409 . S
C3485 C3483 1.415 . S
C3486 H3476 0.930 . S
C3486 C3484 1.419 . S
C3486 C3487 1.362 . S
C3487 H3477 0.930 . S
C3487 C3480 1.409 . S
C3487 C3486 1.362 . S
H3488 C3494 0.930 . S
H3489 C3497 0.930 . S
H3490 C3498 0.930 . S
H3491 C3499 0.930 . S
H3492 C3502 0.930 . S
H3493 C3503 0.930 . S
C3494 H3488 0.930 . S
C3494 C3495 1.355 . S
C3494 C3496 1.415 . S
C3495 C3494 1.355 . S
C3495 C3497 1.419 . S
C3496 C3494 1.415 . S
C3496 C3501 1.425 . S
C3496 C3503 1.409 . S
C3497 H3489 0.930 . S
C3497 C3495 1.419 . S
C3497 C3498 1.362 . S
C3498 H3490 0.930 . S
C3498 C3497 1.362 . S
C3498 C3501 1.409 . S
C3499 H3491 0.930 . S
C3499 C3500 1.355 . S
C3499 C3501 1.415 . S
C3500 C3499 1.355 . S
C3500 C3502 1.419 . S
C3501 C3496 1.425 . S
C3501 C3498 1.409 . S
C3501 C3499 1.415 . S
C3502 H3492 0.930 . S
C3502 C3500 1.419 . S
C3502 C3503 1.362 . S
C3503 H3493 0.930 . S
C3503 C3496 1.409 . S
C3503 C3502 1.362 . S
H3504 C3510 0.930 . S
H3505 C3513 0.930 . S
H3506 C3514 0.930 . S
H3507 C3515 0.930 . S
H3508 C3518 0.930 . S
H3509 C3519 0.930 . S
C3510 H3504 0.930 . S
C3510 C3511 1.355 . S
C3510 C3512 1.415 . S
C3511 C3510 1.355 . S
C3511 C3513 1.419 . S
C3512 C3510 1.415 . S
C3512 C3517 1.425 . S
C3512 C3519 1.409 . S
C3513 H3505 0.930 . S
C3513 C3511 1.419 . S
C3513 C3514 1.362 . S
C3514 H3506 0.930 . S
C3514 C3513 1.362 . S
C3514 C3517 1.409 . S
C3515 H3507 0.930 . S
C3515 C3516 1.355 . S
C3515 C3517 1.415 . S
C3516 C3515 1.355 . S
C3516 C3518 1.419 . S
C3517 C3512 1.425 . S
C3517 C3514 1.409 . S
C3517 C3515 1.415 . S
C3518 H3508 0.930 . S
C3518 C3516 1.419 . S
C3518 C3519 1.362 . S
C3519 H3509 0.930 . S
C3519 C3512 1.409 . S
C3519 C3518 1.362 . S
H3520 C3526 0.930 . S
H3521 C3529 0.930 1_655 S
H3522 C3530 0.920 1_655 S
H3523 C3531 0.930 . S
H3524 C3534 0.930 . S
H3525 C3535 0.930 . S
C3526 H3520 0.930 . S
C3526 C3527 1.355 . S
C3526 C3528 1.415 . S
C3527 C3526 1.355 . S
C3527 C3529 1.419 . S
C3528 C3526 1.415 . S
C3528 C3533 1.425 . S
C3528 C3535 1.409 . S
C3529 H3521 0.930 1_455 S
C3529 C3527 1.419 . S
C3529 C3530 1.362 . S
C3530 H3522 0.920 1_455 S
C3530 C3529 1.362 . S
C3530 C3533 1.409 . S
C3531 H3523 0.930 . S
C3531 C3532 1.355 . S
C3531 C3533 1.415 . S
C3532 C3531 1.355 . S
C3532 C3534 1.419 . S
C3533 C3528 1.425 . S
C3533 C3530 1.409 . S
C3533 C3531 1.415 . S
C3534 H3524 0.930 . S
C3534 C3532 1.419 . S
C3534 C3535 1.362 . S
C3535 H3525 0.930 . S
C3535 C3528 1.409 . S
C3535 C3534 1.362 . S
H3536 C3542 0.930 . S
H3537 C3545 0.930 . S
H3538 C3546 0.930 . S
H3539 C3547 0.930 . S
H3540 C3550 0.930 . S
H3541 C3551 0.930 . S
C3542 H3536 0.930 . S
C3542 C3543 1.355 . S
C3542 C3544 1.415 . S
C3543 C3542 1.355 . S
C3543 C3545 1.419 . S
C3544 C3542 1.415 . S
C3544 C3549 1.425 . S
C3544 C3551 1.409 . S
C3545 H3537 0.930 . S
C3545 C3543 1.419 . S
C3545 C3546 1.362 . S
C3546 H3538 0.930 . S
C3546 C3545 1.362 . S
C3546 C3549 1.409 . S
C3547 H3539 0.930 . S
C3547 C3548 1.355 . S
C3547 C3549 1.415 . S
C3548 C3547 1.355 . S
C3548 C3550 1.419 . S
C3549 C3544 1.425 . S
C3549 C3546 1.409 . S
C3549 C3547 1.415 . S
C3550 H3540 0.930 . S
C3550 C3548 1.419 . S
C3550 C3551 1.362 . S
C3551 H3541 0.930 . S
C3551 C3544 1.409 . S
C3551 C3550 1.362 . S
H3552 C3558 0.930 . S
H3553 C3561 0.930 . S
H3554 C3562 0.930 . S
H3555 C3563 0.930 . S
H3556 C3566 0.930 . S
H3557 C3567 0.930 . S
C3558 H3552 0.930 . S
C3558 C3559 1.355 . S
C3558 C3560 1.415 . S
C3559 C3558 1.355 . S
C3559 C3561 1.419 . S
C3560 C3558 1.415 . S
C3560 C3565 1.425 . S
C3560 C3567 1.409 . S
C3561 H3553 0.930 . S
C3561 C3559 1.419 . S
C3561 C3562 1.362 . S
C3562 H3554 0.930 . S
C3562 C3561 1.362 . S
C3562 C3565 1.409 . S
C3563 H3555 0.930 . S
C3563 C3564 1.355 . S
C3563 C3565 1.415 . S
C3564 C3563 1.355 . S
C3564 C3566 1.419 . S
C3565 C3560 1.425 . S
C3565 C3562 1.409 . S
C3565 C3563 1.415 . S
C3566 H3556 0.930 . S
C3566 C3564 1.419 . S
C3566 C3567 1.362 . S
C3567 H3557 0.930 . S
C3567 C3560 1.409 . S
C3567 C3566 1.362 . S
H3568 C3574 0.930 . S
H3569 C3577 0.930 . S
H3570 C3578 0.930 . S
H3571 C3579 0.930 . S
H3572 C3582 0.930 . S
H3573 C3583 0.930 . S
C3574 H3568 0.930 . S
C3574 C3575 1.355 . S
C3574 C3576 1.415 . S
C3575 C3574 1.355 . S
C3575 C3577 1.419 . S
C3576 C3574 1.415 . S
C3576 C3581 1.425 . S
C3576 C3583 1.409 . S
C3577 H3569 0.930 . S
C3577 C3575 1.419 . S
C3577 C3578 1.362 . S
C3578 H3570 0.930 . S
C3578 C3577 1.362 . S
C3578 C3581 1.409 . S
C3579 H3571 0.930 . S
C3579 C3580 1.355 . S
C3579 C3581 1.415 . S
C3580 C3579 1.355 . S
C3580 C3582 1.419 . S
C3581 C3576 1.425 . S
C3581 C3578 1.409 . S
C3581 C3579 1.415 . S
C3582 H3572 0.930 . S
C3582 C3580 1.419 . S
C3582 C3583 1.362 . S
C3583 H3573 0.930 . S
C3583 C3576 1.409 . S
C3583 C3582 1.362 . S
H3584 C3590 0.930 . S
H3585 C3593 0.930 . S
H3586 C3594 0.930 . S
H3587 C3595 0.930 . S
H3588 C3598 0.930 . S
H3589 C3599 0.930 . S
C3590 H3584 0.930 . S
C3590 C3591 1.355 . S
C3590 C3592 1.415 . S
C3591 C3590 1.355 . S
C3591 C3593 1.419 . S
C3592 C3590 1.415 . S
C3592 C3597 1.425 . S
C3592 C3599 1.409 . S
C3593 H3585 0.930 . S
C3593 C3591 1.419 . S
C3593 C3594 1.362 . S
C3594 H3586 0.930 . S
C3594 C3593 1.362 . S
C3594 C3597 1.409 . S
C3595 H3587 0.930 . S
C3595 C3596 1.355 . S
C3595 C3597 1.415 . S
C3596 C3595 1.355 . S
C3596 C3598 1.419 . S
C3597 C3592 1.425 . S
C3597 C3594 1.409 . S
C3597 C3595 1.415 . S
C3598 H3588 0.930 . S
C3598 C3596 1.419 . S
C3598 C3599 1.362 . S
C3599 H3589 0.930 . S
C3599 C3592 1.409 . S
C3599 C3598 1.362 . S
H3600 C3606 0.930 . S
H3601 C3609 0.930 . S
H3602 C3610 0.930 . S
H3603 C3611 0.930 . S
H3604 C3614 0.930 . S
H3605 C3615 0.930 . S
C3606 H3600 0.930 . S
C3606 C3607 1.355 . S
C3606 C3608 1.415 . S
C3607 C3606 1.355 . S
C3607 C3609 1.419 . S
C3608 C3606 1.415 . S
C3608 C3613 1.425 . S
C3608 C3615 1.409 . S
C3609 H3601 0.930 . S
C3609 C3607 1.419 . S
C3609 C3610 1.362 . S
C3610 H3602 0.930 . S
C3610 C3609 1.362 . S
C3610 C3613 1.409 . S
C3611 H3603 0.930 . S
C3611 C3612 1.355 . S
C3611 C3613 1.415 . S
C3612 C3611 1.355 . S
C3612 C3614 1.419 . S
C3613 C3608 1.425 . S
C3613 C3610 1.409 . S
C3613 C3611 1.415 . S
C3614 H3604 0.930 . S
C3614 C3612 1.419 . S
C3614 C3615 1.362 . S
C3615 H3605 0.930 . S
C3615 C3608 1.409 . S
C3615 C3614 1.362 . S
H3616 C3622 0.930 . S
H3617 C3625 0.930 . S
H3618 C3626 0.930 . S
H3619 C3627 0.930 . S
H3620 C3630 0.930 . S
H3621 C3631 0.930 . S
C3622 H3616 0.930 . S
C3622 C3623 1.355 . S
C3622 C3624 1.415 . S
C3623 C3622 1.355 . S
C3623 C3625 1.419 . S
C3624 C3622 1.415 . S
C3624 C3629 1.425 . S
C3624 C3631 1.409 . S
C3625 H3617 0.930 . S
C3625 C3623 1.419 . S
C3625 C3626 1.362 . S
C3626 H3618 0.930 . S
C3626 C3625 1.362 . S
C3626 C3629 1.409 . S
C3627 H3619 0.930 . S
C3627 C3628 1.355 . S
C3627 C3629 1.415 . S
C3628 C3627 1.355 . S
C3628 C3630 1.419 . S
C3629 C3624 1.425 . S
C3629 C3626 1.409 . S
C3629 C3627 1.415 . S
C3630 H3620 0.930 . S
C3630 C3628 1.419 . S
C3630 C3631 1.362 . S
C3631 H3621 0.930 . S
C3631 C3624 1.409 . S
C3631 C3630 1.362 . S
H3632 C3638 0.930 . S
H3633 C3641 0.930 . S
H3634 C3642 0.930 . S
H3635 C3643 0.930 . S
H3636 C3646 0.930 . S
H3637 C3647 0.930 . S
C3638 H3632 0.930 . S
C3638 C3639 1.355 . S
C3638 C3640 1.415 . S
C3639 C3638 1.355 . S
C3639 C3641 1.419 . S
C3640 C3638 1.415 . S
C3640 C3645 1.425 . S
C3640 C3647 1.409 . S
C3641 H3633 0.930 . S
C3641 C3639 1.419 . S
C3641 C3642 1.362 . S
C3642 H3634 0.930 . S
C3642 C3641 1.362 . S
C3642 C3645 1.409 . S
C3643 H3635 0.930 . S
C3643 C3644 1.355 . S
C3643 C3645 1.415 . S
C3644 C3643 1.355 . S
C3644 C3646 1.419 . S
C3645 C3640 1.425 . S
C3645 C3642 1.409 . S
C3645 C3643 1.415 . S
C3646 H3636 0.930 . S
C3646 C3644 1.419 . S
C3646 C3647 1.362 . S
C3647 H3637 0.930 . S
C3647 C3640 1.409 . S
C3647 C3646 1.362 . S
H3648 C3654 0.930 . S
H3649 C3657 0.932 1_655 S
H3650 C3658 0.930 1_655 S
H3651 C3659 0.930 . S
H3652 C3662 0.930 . S
H3653 C3663 0.930 . S
C3654 H3648 0.930 . S
C3654 C3655 1.355 . S
C3654 C3656 1.415 . S
C3655 C3654 1.355 . S
C3655 C3657 1.417 . S
C3656 C3654 1.415 . S
C3656 C3661 1.425 . S
C3656 C3663 1.409 . S
C3657 H3649 0.932 1_455 S
C3657 C3655 1.417 . S
C3657 C3658 1.362 . S
C3658 H3650 0.930 1_455 S
C3658 C3657 1.362 . S
C3658 C3661 1.409 . S
C3659 H3651 0.930 . S
C3659 C3660 1.355 . S
C3659 C3661 1.415 . S
C3660 C3659 1.355 . S
C3660 C3662 1.419 . S
C3661 C3656 1.425 . S
C3661 C3658 1.409 . S
C3661 C3659 1.415 . S
C3662 H3652 0.930 . S
C3662 C3660 1.419 . S
C3662 C3663 1.362 . S
C3663 H3653 0.930 . S
C3663 C3656 1.409 . S
C3663 C3662 1.362 . S
H3664 C3670 0.930 . S
H3665 C3673 0.930 . S
H3666 C3674 0.930 . S
H3667 C3675 0.930 . S
H3668 C3678 0.930 . S
H3669 C3679 0.930 . S
C3670 H3664 0.930 . S
C3670 C3671 1.355 . S
C3670 C3672 1.415 . S
C3671 C3670 1.355 . S
C3671 C3673 1.419 . S
C3672 C3670 1.415 . S
C3672 C3677 1.425 . S
C3672 C3679 1.409 . S
C3673 H3665 0.930 . S
C3673 C3671 1.419 . S
C3673 C3674 1.362 . S
C3674 H3666 0.930 . S
C3674 C3673 1.362 . S
C3674 C3677 1.409 . S
C3675 H3667 0.930 . S
C3675 C3676 1.355 . S
C3675 C3677 1.415 . S
C3676 C3675 1.355 . S
C3676 C3678 1.419 . S
C3677 C3672 1.425 . S
C3677 C3674 1.409 . S
C3677 C3675 1.415 . S
C3678 H3668 0.930 . S
C3678 C3676 1.419 . S
C3678 C3679 1.362 . S
C3679 H3669 0.930 . S
C3679 C3672 1.409 . S
C3679 C3678 1.362 . S
H3680 C3686 0.930 . S
H3681 C3689 0.930 . S
H3682 C3690 0.930 . S
H3683 C3691 0.930 . S
H3684 C3694 0.930 . S
H3685 C3695 0.930 . S
C3686 H3680 0.930 . S
C3686 C3687 1.355 . S
C3686 C3688 1.415 . S
C3687 C3686 1.355 . S
C3687 C3689 1.419 . S
C3688 C3686 1.415 . S
C3688 C3693 1.425 . S
C3688 C3695 1.409 . S
C3689 H3681 0.930 . S
C3689 C3687 1.419 . S
C3689 C3690 1.362 . S
C3690 H3682 0.930 . S
C3690 C3689 1.362 . S
C3690 C3693 1.409 . S
C3691 H3683 0.930 . S
C3691 C3692 1.355 . S
C3691 C3693 1.415 . S
C3692 C3691 1.355 . S
C3692 C3694 1.419 . S
C3693 C3688 1.425 . S
C3693 C3690 1.409 . S
C3693 C3691 1.415 . S
C3694 H3684 0.930 . S
C3694 C3692 1.419 . S
C3694 C3695 1.362 . S
C3695 H3685 0.930 . S
C3695 C3688 1.409 . S
C3695 C3694 1.362 . S
H3696 C3702 0.930 . S
H3697 C3705 0.930 . S
H3698 C3706 0.930 . S
H3699 C3707 0.930 . S
H3700 C3710 0.930 . S
H3701 C3711 0.930 . S
C3702 H3696 0.930 . S
C3702 C3703 1.355 . S
C3702 C3704 1.415 . S
C3703 C3702 1.355 . S
C3703 C3705 1.419 . S
C3704 C3702 1.415 . S
C3704 C3709 1.425 . S
C3704 C3711 1.409 . S
C3705 H3697 0.930 . S
C3705 C3703 1.419 . S
C3705 C3706 1.362 . S
C3706 H3698 0.930 . S
C3706 C3705 1.362 . S
C3706 C3709 1.409 . S
C3707 H3699 0.930 . S
C3707 C3708 1.355 . S
C3707 C3709 1.415 . S
C3708 C3707 1.355 . S
C3708 C3710 1.419 . S
C3709 C3704 1.425 . S
C3709 C3706 1.409 . S
C3709 C3707 1.415 . S
C3710 H3700 0.930 . S
C3710 C3708 1.419 . S
C3710 C3711 1.362 . S
C3711 H3701 0.930 . S
C3711 C3704 1.409 . S
C3711 C3710 1.362 . S
H3712 C3718 0.930 . S
H3713 C3721 0.930 . S
H3714 C3722 0.930 . S
H3715 C3723 0.930 . S
H3716 C3726 0.930 . S
H3717 C3727 0.930 . S
C3718 H3712 0.930 . S
C3718 C3719 1.355 1_545 S
C3718 C3720 1.415 . S
C3719 C3718 1.355 1_565 S
C3719 C3721 1.419 . S
C3720 C3718 1.415 . S
C3720 C3725 1.425 1_545 S
C3720 C3727 1.409 . S
C3721 H3713 0.930 . S
C3721 C3719 1.419 . S
C3721 C3722 1.362 . S
C3722 H3714 0.930 . S
C3722 C3721 1.362 . S
C3722 C3725 1.409 . S
C3723 H3715 0.930 . S
C3723 C3724 1.355 1_565 S
C3723 C3725 1.415 . S
C3724 C3723 1.355 1_545 S
C3724 C3726 1.419 . S
C3725 C3720 1.425 1_565 S
C3725 C3722 1.409 . S
C3725 C3723 1.415 . S
C3726 H3716 0.930 . S
C3726 C3724 1.419 . S
C3726 C3727 1.362 . S
C3727 H3717 0.930 . S
C3727 C3720 1.409 . S
C3727 C3726 1.362 . S
H3728 C3734 0.930 . S
H3729 C3737 0.930 . S
H3730 C3738 0.930 . S
H3731 C3739 0.930 . S
H3732 C3742 0.930 . S
H3733 C3743 0.930 . S
C3734 H3728 0.930 . S
C3734 C3735 1.355 . S
C3734 C3736 1.415 . S
C3735 C3734 1.355 . S
C3735 C3737 1.419 1_556 S
C3736 C3734 1.415 . S
C3736 C3741 1.427 . S
C3736 C3743 1.409 . S
C3737 H3729 0.930 . S
C3737 C3735 1.419 1_554 S
C3737 C3738 1.362 . S
C3738 H3730 0.930 . S
C3738 C3737 1.362 . S
C3738 C3741 1.408 1_554 S
C3739 H3731 0.930 . S
C3739 C3740 1.355 1_554 S
C3739 C3741 1.414 1_554 S
C3740 C3739 1.355 1_556 S
C3740 C3742 1.419 . S
C3741 C3736 1.427 . S
C3741 C3738 1.408 1_556 S
C3741 C3739 1.414 1_556 S
C3742 H3732 0.930 . S
C3742 C3740 1.419 . S
C3742 C3743 1.362 . S
C3743 H3733 0.930 . S
C3743 C3736 1.409 . S
C3743 C3742 1.362 . S
H3744 C3750 0.930 . S
H3745 C3753 0.930 . S
H3746 C3754 0.930 . S
H3747 C3755 0.930 . S
H3748 C3758 0.930 . S
H3749 C3759 0.930 . S
C3750 H3744 0.930 . S
C3750 C3751 1.355 . S
C3750 C3752 1.415 . S
C3751 C3750 1.355 . S
C3751 C3753 1.419 . S
C3752 C3750 1.415 . S
C3752 C3757 1.425 . S
C3752 C3759 1.409 . S
C3753 H3745 0.930 . S
C3753 C3751 1.419 . S
C3753 C3754 1.362 . S
C3754 H3746 0.930 . S
C3754 C3753 1.362 . S
C3754 C3757 1.409 . S
C3755 H3747 0.930 . S
C3755 C3756 1.355 . S
C3755 C3757 1.415 . S
C3756 C3755 1.355 . S
C3756 C3758 1.419 . S
C3757 C3752 1.425 . S
C3757 C3754 1.409 . S
C3757 C3755 1.415 . S
C3758 H3748 0.930 . S
C3758 C3756 1.419 . S
C3758 C3759 1.362 . S
C3759 H3749 0.930 . S
C3759 C3752 1.409 . S
C3759 C3758 1.362 . S
H3760 C3766 0.930 . S
H3761 C3769 0.930 . S
H3762 C3770 0.930 . S
H3763 C3771 0.930 1_455 S
H3764 C3774 0.943 . S
H3765 C3775 0.930 . S
C3766 H3760 0.930 . S
C3766 C3767 1.355 . S
C3766 C3768 1.415 . S
C3767 C3766 1.355 . S
C3767 C3769 1.419 . S
C3768 C3766 1.415 . S
C3768 C3773 1.425 . S
C3768 C3775 1.409 . S
C3769 H3761 0.930 . S
C3769 C3767 1.419 . S
C3769 C3770 1.362 . S
C3770 H3762 0.930 . S
C3770 C3769 1.362 . S
C3770 C3773 1.409 . S
C3771 H3763 0.930 1_655 S
C3771 C3772 1.355 1_655 S
C3771 C3773 1.415 . S
C3772 C3771 1.355 1_455 S
C3772 C3774 1.432 . S
C3773 C3768 1.425 . S
C3773 C3770 1.409 . S
C3773 C3771 1.415 . S
C3774 H3764 0.943 . S
C3774 C3772 1.432 . S
C3774 C3775 1.337 1_455 S
C3775 H3765 0.930 . S
C3775 C3768 1.409 . S
C3775 C3774 1.337 1_655 S
H3776 C3782 0.930 . S
H3777 C3785 0.930 . S
H3778 C3786 0.930 . S
H3779 C3787 0.930 . S
H3780 C3790 0.930 . S
H3781 C3791 0.930 . S
C3782 H3776 0.930 . S
C3782 C3783 1.355 . S
C3782 C3784 1.415 . S
C3783 C3782 1.355 . S
C3783 C3785 1.419 . S
C3784 C3782 1.415 . S
C3784 C3789 1.425 . S
C3784 C3791 1.409 . S
C3785 H3777 0.930 . S
C3785 C3783 1.419 . S
C3785 C3786 1.362 . S
C3786 H3778 0.930 . S
C3786 C3785 1.362 . S
C3786 C3789 1.409 . S
C3787 H3779 0.930 . S
C3787 C3788 1.355 . S
C3787 C3789 1.415 . S
C3788 C3787 1.355 . S
C3788 C3790 1.419 . S
C3789 C3784 1.425 . S
C3789 C3786 1.409 . S
C3789 C3787 1.415 . S
C3790 H3780 0.930 . S
C3790 C3788 1.419 . S
C3790 C3791 1.362 . S
C3791 H3781 0.930 . S
C3791 C3784 1.409 . S
C3791 C3790 1.362 . S
H3792 C3798 0.930 . S
H3793 C3801 0.930 . S
H3794 C3802 0.930 . S
H3795 C3803 0.930 . S
H3796 C3806 0.930 . S
H3797 C3807 0.930 . S
C3798 H3792 0.930 . S
C3798 C3799 1.355 . S
C3798 C3800 1.415 . S
C3799 C3798 1.355 . S
C3799 C3801 1.419 . S
C3800 C3798 1.415 . S
C3800 C3805 1.425 . S
C3800 C3807 1.409 . S
C3801 H3793 0.930 . S
C3801 C3799 1.419 . S
C3801 C3802 1.362 . S
C3802 H3794 0.930 . S
C3802 C3801 1.362 . S
C3802 C3805 1.409 . S
C3803 H3795 0.930 . S
C3803 C3804 1.355 . S
C3803 C3805 1.415 . S
C3804 C3803 1.355 . S
C3804 C3806 1.419 . S
C3805 C3800 1.425 . S
C3805 C3802 1.409 . S
C3805 C3803 1.415 . S
C3806 H3796 0.930 . S
C3806 C3804 1.419 . S
C3806 C3807 1.362 . S
C3807 H3797 0.930 . S
C3807 C3800 1.409 . S
C3807 C3806 1.362 . S
H3808 C3814 0.930 . S
H3809 C3817 0.930 . S
H3810 C3818 0.930 . S
H3811 C3819 0.930 . S
H3812 C3822 0.930 . S
H3813 C3823 0.930 . S
C3814 H3808 0.930 . S
C3814 C3815 1.355 . S
C3814 C3816 1.415 . S
C3815 C3814 1.355 . S
C3815 C3817 1.419 . S
C3816 C3814 1.415 . S
C3816 C3821 1.425 . S
C3816 C3823 1.409 . S
C3817 H3809 0.930 . S
C3817 C3815 1.419 . S
C3817 C3818 1.362 . S
C3818 H3810 0.930 . S
C3818 C3817 1.362 . S
C3818 C3821 1.409 . S
C3819 H3811 0.930 . S
C3819 C3820 1.355 . S
C3819 C3821 1.415 . S
C3820 C3819 1.355 . S
C3820 C3822 1.419 . S
C3821 C3816 1.425 . S
C3821 C3818 1.409 . S
C3821 C3819 1.415 . S
C3822 H3812 0.930 . S
C3822 C3820 1.419 . S
C3822 C3823 1.362 . S
C3823 H3813 0.930 . S
C3823 C3816 1.409 . S
C3823 C3822 1.362 . S
H3824 C3830 0.930 . S
H3825 C3833 0.930 . S
H3826 C3834 0.930 . S
H3827 C3835 0.930 . S
H3828 C3838 0.930 . S
H3829 C3839 0.930 . S
C3830 H3824 0.930 . S
C3830 C3831 1.355 . S
C3830 C3832 1.415 . S
C3831 C3830 1.355 . S
C3831 C3833 1.419 . S
C3832 C3830 1.415 . S
C3832 C3837 1.425 . S
C3832 C3839 1.409 . S
C3833 H3825 0.930 . S
C3833 C3831 1.419 . S
C3833 C3834 1.362 . S
C3834 H3826 0.930 . S
C3834 C3833 1.362 . S
C3834 C3837 1.409 . S
C3835 H3827 0.930 . S
C3835 C3836 1.355 . S
C3835 C3837 1.415 . S
C3836 C3835 1.355 . S
C3836 C3838 1.419 . S
C3837 C3832 1.425 . S
C3837 C3834 1.409 . S
C3837 C3835 1.415 . S
C3838 H3828 0.930 . S
C3838 C3836 1.419 . S
C3838 C3839 1.362 . S
C3839 H3829 0.930 . S
C3839 C3832 1.409 . S
C3839 C3838 1.362 . S
H3840 C3846 0.930 . S
H3841 C3849 0.930 . S
H3842 C3850 0.930 1_556 S
H3843 C3851 0.930 1_556 S
H3844 C3854 0.930 . S
H3845 C3855 0.930 . S
C3846 H3840 0.930 . S
C3846 C3847 1.355 . S
C3846 C3848 1.415 . S
C3847 C3846 1.355 . S
C3847 C3849 1.419 . S
C3848 C3846 1.415 . S
C3848 C3853 1.425 . S
C3848 C3855 1.409 . S
C3849 H3841 0.930 . S
C3849 C3847 1.419 . S
C3849 C3850 1.362 . S
C3850 H3842 0.930 1_554 S
C3850 C3849 1.362 . S
C3850 C3853 1.409 . S
C3851 H3843 0.930 1_554 S
C3851 C3852 1.355 . S
C3851 C3853 1.415 . S
C3852 C3851 1.355 . S
C3852 C3854 1.419 . S
C3853 C3848 1.425 . S
C3853 C3850 1.409 . S
C3853 C3851 1.415 . S
C3854 H3844 0.930 . S
C3854 C3852 1.419 . S
C3854 C3855 1.362 . S
C3855 H3845 0.930 . S
C3855 C3848 1.409 . S
C3855 C3854 1.362 . S
H3856 C3862 0.930 . S
H3857 C3865 0.930 . S
H3858 C3866 0.930 . S
H3859 C3867 0.930 . S
H3860 C3870 0.930 . S
H3861 C3871 0.930 . S
C3862 H3856 0.930 . S
C3862 C3863 1.355 . S
C3862 C3864 1.415 . S
C3863 C3862 1.355 . S
C3863 C3865 1.419 . S
C3864 C3862 1.415 . S
C3864 C3869 1.425 . S
C3864 C3871 1.409 . S
C3865 H3857 0.930 . S
C3865 C3863 1.419 . S
C3865 C3866 1.362 . S
C3866 H3858 0.930 . S
C3866 C3865 1.362 . S
C3866 C3869 1.409 . S
C3867 H3859 0.930 . S
C3867 C3868 1.355 . S
C3867 C3869 1.415 . S
C3868 C3867 1.355 . S
C3868 C3870 1.419 . S
C3869 C3864 1.425 . S
C3869 C3866 1.409 . S
C3869 C3867 1.415 . S
C3870 H3860 0.930 . S
C3870 C3868 1.419 . S
C3870 C3871 1.362 . S
C3871 H3861 0.930 . S
C3871 C3864 1.409 . S
C3871 C3870 1.362 . S
H3872 C3878 0.930 . S
H3873 C3881 0.930 . S
H3874 C3882 0.930 . S
H3875 C3883 0.930 . S
H3876 C3886 0.930 . S
H3877 C3887 0.930 . S
C3878 H3872 0.930 . S
C3878 C3879 1.355 . S
C3878 C3880 1.415 . S
C3879 C3878 1.355 . S
C3879 C3881 1.419 . S
C3880 C3878 1.415 . S
C3880 C3885 1.425 . S
C3880 C3887 1.409 . S
C3881 H3873 0.930 . S
C3881 C3879 1.419 . S
C3881 C3882 1.362 . S
C3882 H3874 0.930 . S
C3882 C3881 1.362 . S
C3882 C3885 1.409 . S
C3883 H3875 0.930 . S
C3883 C3884 1.355 . S
C3883 C3885 1.415 . S
C3884 C3883 1.355 . S
C3884 C3886 1.419 . S
C3885 C3880 1.425 . S
C3885 C3882 1.409 . S
C3885 C3883 1.415 . S
C3886 H3876 0.930 . S
C3886 C3884 1.419 . S
C3886 C3887 1.362 . S
C3887 H3877 0.930 . S
C3887 C3880 1.409 . S
C3887 C3886 1.362 . S
H3888 C3894 0.930 . S
H3889 C3897 0.930 . S
H3890 C3898 0.930 . S
H3891 C3899 0.930 . S
H3892 C3902 0.930 . S
H3893 C3903 0.930 . S
C3894 H3888 0.930 . S
C3894 C3895 1.355 . S
C3894 C3896 1.415 . S
C3895 C3894 1.355 . S
C3895 C3897 1.419 . S
C3896 C3894 1.415 . S
C3896 C3901 1.425 . S
C3896 C3903 1.409 . S
C3897 H3889 0.930 . S
C3897 C3895 1.419 . S
C3897 C3898 1.362 . S
C3898 H3890 0.930 . S
C3898 C3897 1.362 . S
C3898 C3901 1.409 . S
C3899 H3891 0.930 . S
C3899 C3900 1.355 . S
C3899 C3901 1.415 . S
C3900 C3899 1.355 . S
C3900 C3902 1.419 . S
C3901 C3896 1.425 . S
C3901 C3898 1.409 . S
C3901 C3899 1.415 . S
C3902 H3892 0.930 . S
C3902 C3900 1.419 . S
C3902 C3903 1.362 . S
C3903 H3893 0.930 . S
C3903 C3896 1.409 . S
C3903 C3902 1.362 . S
H3904 C3910 0.930 . S
H3905 C3913 0.930 . S
H3906 C3914 0.930 . S
H3907 C3915 0.930 . S
H3908 C3918 0.930 . S
H3909 C3919 0.930 . S
C3910 H3904 0.930 . S
C3910 C3911 1.355 . S
C3910 C3912 1.415 . S
C3911 C3910 1.355 . S
C3911 C3913 1.419 . S
C3912 C3910 1.415 . S
C3912 C3917 1.425 . S
C3912 C3919 1.409 . S
C3913 H3905 0.930 . S
C3913 C3911 1.419 . S
C3913 C3914 1.362 . S
C3914 H3906 0.930 . S
C3914 C3913 1.362 . S
C3914 C3917 1.409 . S
C3915 H3907 0.930 . S
C3915 C3916 1.355 . S
C3915 C3917 1.415 . S
C3916 C3915 1.355 . S
C3916 C3918 1.419 . S
C3917 C3912 1.425 . S
C3917 C3914 1.409 . S
C3917 C3915 1.415 . S
C3918 H3908 0.930 . S
C3918 C3916 1.419 . S
C3918 C3919 1.362 . S
C3919 H3909 0.930 . S
C3919 C3912 1.409 . S
C3919 C3918 1.362 . S
H3920 C3926 0.930 . S
H3921 C3929 0.930 . S
H3922 C3930 0.930 . S
H3923 C3931 0.930 . S
H3924 C3934 0.930 . S
H3925 C3935 0.930 . S
C3926 H3920 0.930 . S
C3926 C3927 1.355 . S
C3926 C3928 1.415 . S
C3927 C3926 1.355 . S
C3927 C3929 1.419 . S
C3928 C3926 1.415 . S
C3928 C3933 1.425 . S
C3928 C3935 1.409 . S
C3929 H3921 0.930 . S
C3929 C3927 1.419 . S
C3929 C3930 1.362 . S
C3930 H3922 0.930 . S
C3930 C3929 1.362 . S
C3930 C3933 1.409 . S
C3931 H3923 0.930 . S
C3931 C3932 1.355 . S
C3931 C3933 1.415 . S
C3932 C3931 1.355 . S
C3932 C3934 1.419 . S
C3933 C3928 1.425 . S
C3933 C3930 1.409 . S
C3933 C3931 1.415 . S
C3934 H3924 0.930 . S
C3934 C3932 1.419 . S
C3934 C3935 1.362 . S
C3935 H3925 0.930 . S
C3935 C3928 1.409 . S
C3935 C3934 1.362 . S
H3936 C3942 0.930 . S
H3937 C3945 0.930 . S
H3938 C3946 0.930 . S
H3939 C3947 0.931 1_544 S
H3940 C3950 0.930 . S
H3941 C3951 0.930 . S
C3942 H3936 0.930 . S
C3942 C3943 1.355 . S
C3942 C3944 1.415 . S
C3943 C3942 1.355 . S
C3943 C3945 1.419 . S
C3944 C3942 1.415 . S
C3944 C3949 1.425 . S
C3944 C3951 1.409 . S
C3945 H3937 0.930 . S
C3945 C3943 1.419 . S
C3945 C3946 1.362 . S
C3946 H3938 0.930 . S
C3946 C3945 1.362 . S
C3946 C3949 1.409 . S
C3947 H3939 0.931 1_566 S
C3947 C3948 1.355 . S
C3947 C3949 1.415 . S
C3948 C3947 1.355 . S
C3948 C3950 1.419 . S
C3949 C3944 1.425 . S
C3949 C3946 1.409 . S
C3949 C3947 1.415 . S
C3950 H3940 0.930 . S
C3950 C3948 1.419 . S
C3950 C3951 1.362 . S
C3951 H3941 0.930 . S
C3951 C3944 1.409 . S
C3951 C3950 1.362 . S
H3952 C3958 0.930 . S
H3953 C3961 0.930 . S
H3954 C3962 0.930 . S
H3955 C3963 0.930 . S
H3956 C3966 0.930 . S
H3957 C3967 0.930 . S
C3958 H3952 0.930 . S
C3958 C3959 1.355 . S
C3958 C3960 1.415 . S
C3959 C3958 1.355 . S
C3959 C3961 1.419 . S
C3960 C3958 1.415 . S
C3960 C3965 1.425 . S
C3960 C3967 1.409 . S
C3961 H3953 0.930 . S
C3961 C3959 1.419 . S
C3961 C3962 1.362 . S
C3962 H3954 0.930 . S
C3962 C3961 1.362 . S
C3962 C3965 1.409 . S
C3963 H3955 0.930 . S
C3963 C3964 1.355 . S
C3963 C3965 1.415 . S
C3964 C3963 1.355 . S
C3964 C3966 1.419 . S
C3965 C3960 1.425 . S
C3965 C3962 1.409 . S
C3965 C3963 1.415 . S
C3966 H3956 0.930 . S
C3966 C3964 1.419 . S
C3966 C3967 1.362 . S
C3967 H3957 0.930 . S
C3967 C3960 1.409 . S
C3967 C3966 1.362 . S
H3968 C3974 0.936 1_565 S
H3969 C3977 0.930 . S
H3970 C3978 0.930 . S
H3971 C3979 0.930 . S
H3972 C3982 0.930 . S
H3973 C3983 0.930 1_565 S
C3974 H3968 0.936 1_545 S
C3974 C3975 1.355 . S
C3974 C3976 1.415 . S
C3975 C3974 1.355 . S
C3975 C3977 1.419 . S
C3976 C3974 1.415 . S
C3976 C3981 1.425 . S
C3976 C3983 1.409 . S
C3977 H3969 0.930 . S
C3977 C3975 1.419 . S
C3977 C3978 1.362 . S
C3978 H3970 0.930 . S
C3978 C3977 1.362 . S
C3978 C3981 1.409 . S
C3979 H3971 0.930 . S
C3979 C3980 1.355 . S
C3979 C3981 1.415 . S
C3980 C3979 1.355 . S
C3980 C3982 1.419 . S
C3981 C3976 1.425 . S
C3981 C3978 1.409 . S
C3981 C3979 1.415 . S
C3982 H3972 0.930 . S
C3982 C3980 1.419 . S
C3982 C3983 1.362 . S
C3983 H3973 0.930 1_545 S
C3983 C3976 1.409 . S
C3983 C3982 1.362 . S
H3984 C3990 0.930 . S
H3985 C3993 0.930 . S
H3986 C3994 0.930 . S
H3987 C3995 0.930 . S
H3988 C3998 0.930 . S
H3989 C3999 0.930 . S
C3990 H3984 0.930 . S
C3990 C3991 1.355 . S
C3990 C3992 1.415 . S
C3991 C3990 1.355 . S
C3991 C3993 1.419 . S
C3992 C3990 1.415 . S
C3992 C3997 1.425 . S
C3992 C3999 1.409 . S
C3993 H3985 0.930 . S
C3993 C3991 1.419 . S
C3993 C3994 1.362 . S
C3994 H3986 0.930 . S
C3994 C3993 1.362 . S
C3994 C3997 1.409 . S
C3995 H3987 0.930 . S
C3995 C3996 1.355 . S
C3995 C3997 1.415 . S
C3996 C3995 1.355 . S
C3996 C3998 1.419 . S
C3997 C3992 1.425 . S
C3997 C3994 1.409 . S
C3997 C3995 1.415 . S
C3998 H3988 0.930 . S
C3998 C3996 1.419 . S
C3998 C3999 1.362 . S
C3999 H3989 0.930 . S
C3999 C3992 1.409 . S
C3999 C3998 1.362 . S
H4000 C4006 0.930 . S
H4001 C4009 0.930 . S
H4002 C4010 0.930 . S
H4003 C4011 0.930 . S
H4004 C4014 0.930 . S
H4005 C4015 0.930 . S
C4006 H4000 0.930 . S
C4006 C4007 1.355 . S
C4006 C4008 1.415 . S
C4007 C4006 1.355 . S
C4007 C4009 1.419 . S
C4008 C4006 1.415 . S
C4008 C4013 1.425 . S
C4008 C4015 1.409 . S
C4009 H4001 0.930 . S
C4009 C4007 1.419 . S
C4009 C4010 1.362 . S
C4010 H4002 0.930 . S
C4010 C4009 1.362 . S
C4010 C4013 1.409 . S
C4011 H4003 0.930 . S
C4011 C4012 1.355 . S
C4011 C4013 1.415 . S
C4012 C4011 1.355 . S
C4012 C4014 1.419 . S
C4013 C4008 1.425 . S
C4013 C4010 1.409 . S
C4013 C4011 1.415 . S
C4014 H4004 0.930 . S
C4014 C4012 1.419 . S
C4014 C4015 1.362 . S
C4015 H4005 0.930 . S
C4015 C4008 1.409 . S
C4015 C4014 1.362 . S
H4016 C4022 0.930 . S
H4017 C4025 0.930 . S
H4018 C4026 0.930 . S
H4019 C4027 0.930 . S
H4020 C4030 0.930 . S
H4021 C4031 0.930 . S
C4022 H4016 0.930 . S
C4022 C4023 1.355 . S
C4022 C4024 1.415 . S
C4023 C4022 1.355 . S
C4023 C4025 1.419 . S
C4024 C4022 1.415 . S
C4024 C4029 1.425 . S
C4024 C4031 1.409 . S
C4025 H4017 0.930 . S
C4025 C4023 1.419 . S
C4025 C4026 1.362 . S
C4026 H4018 0.930 . S
C4026 C4025 1.362 . S
C4026 C4029 1.409 . S
C4027 H4019 0.930 . S
C4027 C4028 1.355 . S
C4027 C4029 1.415 . S
C4028 C4027 1.355 . S
C4028 C4030 1.419 . S
C4029 C4024 1.425 . S
C4029 C4026 1.409 . S
C4029 C4027 1.415 . S
C4030 H4020 0.930 . S
C4030 C4028 1.419 . S
C4030 C4031 1.362 . S
C4031 H4021 0.930 . S
C4031 C4024 1.409 . S
C4031 C4030 1.362 . S
H4032 C4038 0.930 . S
H4033 C4041 0.930 . S
H4034 C4042 0.930 . S
H4035 C4043 0.930 . S
H4036 C4046 0.930 . S
H4037 C4047 0.930 . S
C4038 H4032 0.930 . S
C4038 C4039 1.355 1_545 S
C4038 C4040 1.415 . S
C4039 C4038 1.355 1_565 S
C4039 C4041 1.419 . S
C4040 C4038 1.415 . S
C4040 C4045 1.425 . S
C4040 C4047 1.409 . S
C4041 H4033 0.930 . S
C4041 C4039 1.419 . S
C4041 C4042 1.362 . S
C4042 H4034 0.930 . S
C4042 C4041 1.362 . S
C4042 C4045 1.409 1_565 S
C4043 H4035 0.930 . S
C4043 C4044 1.355 . S
C4043 C4045 1.415 . S
C4044 C4043 1.355 . S
C4044 C4046 1.419 . S
C4045 C4040 1.425 . S
C4045 C4042 1.409 1_545 S
C4045 C4043 1.415 . S
C4046 H4036 0.930 . S
C4046 C4044 1.419 . S
C4046 C4047 1.362 . S
C4047 H4037 0.930 . S
C4047 C4040 1.409 . S
C4047 C4046 1.362 . S
H4048 C4054 0.930 . S
H4049 C4057 0.930 . S
H4050 C4058 0.930 . S
H4051 C4059 0.930 . S
H4052 C4062 0.930 . S
H4053 C4063 0.930 . S
C4054 H4048 0.930 . S
C4054 C4055 1.355 . S
C4054 C4056 1.415 . S
C4055 C4054 1.355 . S
C4055 C4057 1.419 . S
C4056 C4054 1.415 . S
C4056 C4061 1.425 . S
C4056 C4063 1.409 . S
C4057 H4049 0.930 . S
C4057 C4055 1.419 . S
C4057 C4058 1.362 . S
C4058 H4050 0.930 . S
C4058 C4057 1.362 . S
C4058 C4061 1.409 . S
C4059 H4051 0.930 . S
C4059 C4060 1.355 . S
C4059 C4061 1.415 . S
C4060 C4059 1.355 . S
C4060 C4062 1.419 . S
C4061 C4056 1.425 . S
C4061 C4058 1.409 . S
C4061 C4059 1.415 . S
C4062 H4052 0.930 . S
C4062 C4060 1.419 . S
C4062 C4063 1.362 . S
C4063 H4053 0.930 . S
C4063 C4056 1.409 . S
C4063 C4062 1.362 . S
H4064 C4070 0.930 . S
H4065 C4073 0.930 . S
H4066 C4074 0.930 . S
H4067 C4075 0.930 . S
H4068 C4078 0.930 . S
H4069 C4079 0.930 . S
C4070 H4064 0.930 . S
C4070 C4071 1.355 . S
C4070 C4072 1.415 . S
C4071 C4070 1.355 . S
C4071 C4073 1.419 . S
C4072 C4070 1.415 . S
C4072 C4077 1.425 . S
C4072 C4079 1.409 . S
C4073 H4065 0.930 . S
C4073 C4071 1.419 . S
C4073 C4074 1.362 . S
C4074 H4066 0.930 . S
C4074 C4073 1.362 . S
C4074 C4077 1.409 . S
C4075 H4067 0.930 . S
C4075 C4076 1.355 . S
C4075 C4077 1.415 . S
C4076 C4075 1.355 . S
C4076 C4078 1.419 . S
C4077 C4072 1.425 . S
C4077 C4074 1.409 . S
C4077 C4075 1.415 . S
C4078 H4068 0.930 . S
C4078 C4076 1.419 . S
C4078 C4079 1.362 . S
C4079 H4069 0.930 . S
C4079 C4072 1.409 . S
C4079 C4078 1.362 . S
H4080 C4086 0.930 . S
H4081 C4089 0.930 . S
H4082 C4090 0.930 . S
H4083 C4091 0.930 . S
H4084 C4094 0.930 . S
H4085 C4095 0.930 . S
C4086 H4080 0.930 . S
C4086 C4087 1.355 . S
C4086 C4088 1.415 . S
C4087 C4086 1.355 . S
C4087 C4089 1.419 . S
C4088 C4086 1.415 . S
C4088 C4093 1.425 . S
C4088 C4095 1.409 . S
C4089 H4081 0.930 . S
C4089 C4087 1.419 . S
C4089 C4090 1.362 . S
C4090 H4082 0.930 . S
C4090 C4089 1.362 . S
C4090 C4093 1.409 . S
C4091 H4083 0.930 . S
C4091 C4092 1.355 . S
C4091 C4093 1.415 . S
C4092 C4091 1.355 . S
C4092 C4094 1.419 . S
C4093 C4088 1.425 . S
C4093 C4090 1.409 . S
C4093 C4091 1.415 . S
C4094 H4084 0.930 . S
C4094 C4092 1.419 . S
C4094 C4095 1.362 . S
C4095 H4085 0.930 . S
C4095 C4088 1.409 . S
C4095 C4094 1.362 . S
H4096 C4102 0.930 . S
H4097 C4105 0.930 . S
H4098 C4106 0.930 . S
H4099 C4107 0.930 . S
H4100 C4110 0.930 . S
H4101 C4111 0.930 . S
C4102 H4096 0.930 . S
C4102 C4103 1.355 . S
C4102 C4104 1.415 . S
C4103 C4102 1.355 . S
C4103 C4105 1.419 . S
C4104 C4102 1.415 . S
C4104 C4109 1.425 . S
C4104 C4111 1.409 . S
C4105 H4097 0.930 . S
C4105 C4103 1.419 . S
C4105 C4106 1.362 . S
C4106 H4098 0.930 . S
C4106 C4105 1.362 . S
C4106 C4109 1.409 . S
C4107 H4099 0.930 . S
C4107 C4108 1.355 . S
C4107 C4109 1.415 . S
C4108 C4107 1.355 . S
C4108 C4110 1.419 . S
C4109 C4104 1.425 . S
C4109 C4106 1.409 . S
C4109 C4107 1.415 . S
C4110 H4100 0.930 . S
C4110 C4108 1.419 . S
C4110 C4111 1.362 . S
C4111 H4101 0.930 . S
C4111 C4104 1.409 . S
C4111 C4110 1.362 . S
H4112 C4118 0.930 . S
H4113 C4121 0.930 . S
H4114 C4122 0.930 . S
H4115 C4123 0.930 . S
H4116 C4126 0.930 . S
H4117 C4127 0.930 . S
C4118 H4112 0.930 . S
C4118 C4119 1.355 . S
C4118 C4120 1.415 . S
C4119 C4118 1.355 . S
C4119 C4121 1.419 . S
C4120 C4118 1.415 . S
C4120 C4125 1.425 . S
C4120 C4127 1.409 . S
C4121 H4113 0.930 . S
C4121 C4119 1.419 . S
C4121 C4122 1.362 . S
C4122 H4114 0.930 . S
C4122 C4121 1.362 . S
C4122 C4125 1.409 . S
C4123 H4115 0.930 . S
C4123 C4124 1.355 . S
C4123 C4125 1.415 . S
C4124 C4123 1.355 . S
C4124 C4126 1.419 . S
C4125 C4120 1.425 . S
C4125 C4122 1.409 . S
C4125 C4123 1.415 . S
C4126 H4116 0.930 . S
C4126 C4124 1.419 . S
C4126 C4127 1.362 . S
C4127 H4117 0.930 . S
C4127 C4120 1.409 . S
C4127 C4126 1.362 . S
H4128 C4134 0.930 . S
H4129 C4137 0.930 . S
H4130 C4138 0.930 . S
H4131 C4139 0.930 . S
H4132 C4142 0.930 . S
H4133 C4143 0.930 . S
C4134 H4128 0.930 . S
C4134 C4135 1.355 . S
C4134 C4136 1.415 . S
C4135 C4134 1.355 . S
C4135 C4137 1.419 . S
C4136 C4134 1.415 . S
C4136 C4141 1.425 . S
C4136 C4143 1.409 . S
C4137 H4129 0.930 . S
C4137 C4135 1.419 . S
C4137 C4138 1.362 . S
C4138 H4130 0.930 . S
C4138 C4137 1.362 . S
C4138 C4141 1.409 . S
C4139 H4131 0.930 . S
C4139 C4140 1.355 . S
C4139 C4141 1.415 . S
C4140 C4139 1.355 . S
C4140 C4142 1.419 . S
C4141 C4136 1.425 . S
C4141 C4138 1.409 . S
C4141 C4139 1.415 . S
C4142 H4132 0.930 . S
C4142 C4140 1.419 . S
C4142 C4143 1.362 . S
C4143 H4133 0.930 . S
C4143 C4136 1.409 . S
C4143 C4142 1.362 . S
H4144 C4150 0.930 . S
H4145 C4153 0.930 . S
H4146 C4154 0.930 . S
H4147 C4155 0.930 . S
H4148 C4158 0.930 . S
H4149 C4159 0.930 . S
C4150 H4144 0.930 . S
C4150 C4151 1.355 . S
C4150 C4152 1.415 . S
C4151 C4150 1.355 . S
C4151 C4153 1.419 . S
C4152 C4150 1.415 . S
C4152 C4157 1.425 . S
C4152 C4159 1.409 . S
C4153 H4145 0.930 . S
C4153 C4151 1.419 . S
C4153 C4154 1.362 . S
C4154 H4146 0.930 . S
C4154 C4153 1.362 . S
C4154 C4157 1.409 . S
C4155 H4147 0.930 . S
C4155 C4156 1.355 . S
C4155 C4157 1.415 . S
C4156 C4155 1.355 . S
C4156 C4158 1.419 . S
C4157 C4152 1.425 . S
C4157 C4154 1.409 . S
C4157 C4155 1.415 . S
C4158 H4148 0.930 . S
C4158 C4156 1.419 . S
C4158 C4159 1.362 . S
C4159 H4149 0.930 . S
C4159 C4152 1.409 . S
C4159 C4158 1.362 . S
H4160 C4166 0.930 . S
H4161 C4169 0.930 . S
H4162 C4170 0.930 . S
H4163 C4171 0.930 . S
H4164 C4174 0.930 . S
H4165 C4175 0.930 . S
C4166 H4160 0.930 . S
C4166 C4167 1.355 . S
C4166 C4168 1.415 . S
C4167 C4166 1.355 . S
C4167 C4169 1.419 . S
C4168 C4166 1.415 . S
C4168 C4173 1.425 . S
C4168 C4175 1.409 . S
C4169 H4161 0.930 . S
C4169 C4167 1.419 . S
C4169 C4170 1.362 . S
C4170 H4162 0.930 . S
C4170 C4169 1.362 . S
C4170 C4173 1.409 . S
C4171 H4163 0.930 . S
C4171 C4172 1.355 . S
C4171 C4173 1.415 . S
C4172 C4171 1.355 . S
C4172 C4174 1.419 . S
C4173 C4168 1.425 . S
C4173 C4170 1.409 . S
C4173 C4171 1.415 . S
C4174 H4164 0.930 . S
C4174 C4172 1.419 . S
C4174 C4175 1.362 . S
C4175 H4165 0.930 . S
C4175 C4168 1.409 . S
C4175 C4174 1.362 . S
H4176 C4182 0.930 . S
H4177 C4185 0.930 . S
H4178 C4186 0.930 . S
H4179 C4187 0.930 . S
H4180 C4190 0.930 . S
H4181 C4191 0.930 . S
C4182 H4176 0.930 . S
C4182 C4183 1.355 . S
C4182 C4184 1.415 . S
C4183 C4182 1.355 . S
C4183 C4185 1.419 . S
C4184 C4182 1.415 . S
C4184 C4189 1.425 . S
C4184 C4191 1.409 . S
C4185 H4177 0.930 . S
C4185 C4183 1.419 . S
C4185 C4186 1.362 . S
C4186 H4178 0.930 . S
C4186 C4185 1.362 . S
C4186 C4189 1.409 . S
C4187 H4179 0.930 . S
C4187 C4188 1.355 . S
C4187 C4189 1.415 . S
C4188 C4187 1.355 . S
C4188 C4190 1.419 . S
C4189 C4184 1.425 . S
C4189 C4186 1.409 . S
C4189 C4187 1.415 . S
C4190 H4180 0.930 . S
C4190 C4188 1.419 . S
C4190 C4191 1.362 . S
C4191 H4181 0.930 . S
C4191 C4184 1.409 . S
C4191 C4190 1.362 . S
H4192 C4198 0.930 . S
H4193 C4201 0.930 . S
H4194 C4202 0.930 . S
H4195 C4203 0.930 . S
H4196 C4206 0.930 . S
H4197 C4207 0.930 . S
C4198 H4192 0.930 . S
C4198 C4199 1.355 . S
C4198 C4200 1.415 . S
C4199 C4198 1.355 . S
C4199 C4201 1.419 . S
C4200 C4198 1.415 . S
C4200 C4205 1.425 . S
C4200 C4207 1.409 . S
C4201 H4193 0.930 . S
C4201 C4199 1.419 . S
C4201 C4202 1.362 . S
C4202 H4194 0.930 . S
C4202 C4201 1.362 . S
C4202 C4205 1.409 . S
C4203 H4195 0.930 . S
C4203 C4204 1.355 . S
C4203 C4205 1.415 . S
C4204 C4203 1.355 . S
C4204 C4206 1.419 . S
C4205 C4200 1.425 . S
C4205 C4202 1.409 . S
C4205 C4203 1.415 . S
C4206 H4196 0.930 . S
C4206 C4204 1.419 . S
C4206 C4207 1.362 . S
C4207 H4197 0.930 . S
C4207 C4200 1.409 . S
C4207 C4206 1.362 . S
H4208 C4214 0.930 . S
H4209 C4217 0.930 . S
H4210 C4218 0.930 . S
H4211 C4219 0.930 . S
H4212 C4222 0.930 . S
H4213 C4223 0.930 . S
C4214 H4208 0.930 . S
C4214 C4215 1.355 . S
C4214 C4216 1.415 . S
C4215 C4214 1.355 . S
C4215 C4217 1.419 . S
C4216 C4214 1.415 . S
C4216 C4221 1.425 . S
C4216 C4223 1.409 . S
C4217 H4209 0.930 . S
C4217 C4215 1.419 . S
C4217 C4218 1.362 . S
C4218 H4210 0.930 . S
C4218 C4217 1.362 . S
C4218 C4221 1.409 . S
C4219 H4211 0.930 . S
C4219 C4220 1.355 . S
C4219 C4221 1.415 . S
C4220 C4219 1.355 . S
C4220 C4222 1.419 . S
C4221 C4216 1.425 . S
C4221 C4218 1.409 . S
C4221 C4219 1.415 . S
C4222 H4212 0.930 . S
C4222 C4220 1.419 . S
C4222 C4223 1.362 . S
C4223 H4213 0.930 . S
C4223 C4216 1.409 . S
C4223 C4222 1.362 . S
H4224 C4230 0.930 . S
H4225 C4233 0.930 . S
H4226 C4234 0.930 . S
H4227 C4235 0.930 . S
H4228 C4238 0.930 . S
H4229 C4239 0.930 . S
C4230 H4224 0.930 . S
C4230 C4231 1.355 . S
C4230 C4232 1.415 . S
C4231 C4230 1.355 . S
C4231 C4233 1.419 . S
C4232 C4230 1.415 . S
C4232 C4237 1.425 . S
C4232 C4239 1.409 . S
C4233 H4225 0.930 . S
C4233 C4231 1.419 . S
C4233 C4234 1.362 . S
C4234 H4226 0.930 . S
C4234 C4233 1.362 . S
C4234 C4237 1.409 . S
C4235 H4227 0.930 . S
C4235 C4236 1.355 . S
C4235 C4237 1.415 . S
C4236 C4235 1.355 . S
C4236 C4238 1.419 . S
C4237 C4232 1.425 . S
C4237 C4234 1.409 . S
C4237 C4235 1.415 . S
C4238 H4228 0.930 . S
C4238 C4236 1.419 . S
C4238 C4239 1.362 . S
C4239 H4229 0.930 . S
C4239 C4232 1.409 . S
C4239 C4238 1.362 . S
H4240 C4246 0.930 . S
H4241 C4249 0.930 . S
H4242 C4250 0.930 . S
H4243 C4251 0.930 . S
H4244 C4254 0.930 . S
H4245 C4255 0.930 . S
C4246 H4240 0.930 . S
C4246 C4247 1.355 . S
C4246 C4248 1.415 . S
C4247 C4246 1.355 . S
C4247 C4249 1.419 . S
C4248 C4246 1.415 . S
C4248 C4253 1.425 . S
C4248 C4255 1.409 . S
C4249 H4241 0.930 . S
C4249 C4247 1.419 . S
C4249 C4250 1.362 . S
C4250 H4242 0.930 . S
C4250 C4249 1.362 . S
C4250 C4253 1.409 . S
C4251 H4243 0.930 . S
C4251 C4252 1.355 . S
C4251 C4253 1.415 . S
C4252 C4251 1.355 . S
C4252 C4254 1.419 . S
C4253 C4248 1.425 . S
C4253 C4250 1.409 . S
C4253 C4251 1.415 . S
C4254 H4244 0.930 . S
C4254 C4252 1.419 . S
C4254 C4255 1.362 . S
C4255 H4245 0.930 . S
C4255 C4248 1.409 . S
C4255 C4254 1.362 . S
H4256 C4262 0.930 . S
H4257 C4265 0.930 . S
H4258 C4266 0.930 . S
H4259 C4267 0.930 . S
H4260 C4270 0.930 . S
H4261 C4271 0.930 . S
C4262 H4256 0.930 . S
C4262 C4263 1.355 1_556 S
C4262 C4264 1.415 1_556 S
C4263 C4262 1.355 1_554 S
C4263 C4265 1.419 . S
C4264 C4262 1.415 1_554 S
C4264 C4269 1.425 . S
C4264 C4271 1.409 1_554 S
C4265 H4257 0.930 . S
C4265 C4263 1.419 . S
C4265 C4266 1.362 . S
C4266 H4258 0.930 . S
C4266 C4265 1.362 . S
C4266 C4269 1.409 . S
C4267 H4259 0.930 . S
C4267 C4268 1.355 . S
C4267 C4269 1.415 . S
C4268 C4267 1.355 . S
C4268 C4270 1.419 1_554 S
C4269 C4264 1.425 . S
C4269 C4266 1.409 . S
C4269 C4267 1.415 . S
C4270 H4260 0.930 . S
C4270 C4268 1.419 1_556 S
C4270 C4271 1.362 . S
C4271 H4261 0.930 . S
C4271 C4264 1.409 1_556 S
C4271 C4270 1.362 . S
H4272 C4278 0.930 . S
H4273 C4281 0.930 1_455 S
H4274 C4282 0.930 . S
H4275 C4283 0.930 . S
H4276 C4286 0.930 . S
H4277 C4287 0.930 . S
C4278 H4272 0.930 . S
C4278 C4279 1.355 . S
C4278 C4280 1.415 . S
C4279 C4278 1.355 . S
C4279 C4281 1.419 . S
C4280 C4278 1.415 . S
C4280 C4285 1.425 . S
C4280 C4287 1.409 . S
C4281 H4273 0.930 1_655 S
C4281 C4279 1.419 . S
C4281 C4282 1.362 . S
C4282 H4274 0.930 . S
C4282 C4281 1.362 . S
C4282 C4285 1.409 . S
C4283 H4275 0.930 . S
C4283 C4284 1.355 . S
C4283 C4285 1.415 . S
C4284 C4283 1.355 . S
C4284 C4286 1.419 . S
C4285 C4280 1.425 . S
C4285 C4282 1.409 . S
C4285 C4283 1.415 . S
C4286 H4276 0.930 . S
C4286 C4284 1.419 . S
C4286 C4287 1.362 . S
C4287 H4277 0.930 . S
C4287 C4280 1.409 . S
C4287 C4286 1.362 . S
H4288 C4294 0.930 . S
H4289 C4297 0.930 . S
H4290 C4298 0.930 . S
H4291 C4299 0.930 . S
H4292 C4302 0.930 . S
H4293 C4303 0.930 . S
C4294 H4288 0.930 . S
C4294 C4295 1.355 . S
C4294 C4296 1.415 . S
C4295 C4294 1.355 . S
C4295 C4297 1.419 . S
C4296 C4294 1.415 . S
C4296 C4301 1.425 . S
C4296 C4303 1.409 . S
C4297 H4289 0.930 . S
C4297 C4295 1.419 . S
C4297 C4298 1.362 . S
C4298 H4290 0.930 . S
C4298 C4297 1.362 . S
C4298 C4301 1.409 . S
C4299 H4291 0.930 . S
C4299 C4300 1.355 . S
C4299 C4301 1.415 . S
C4300 C4299 1.355 . S
C4300 C4302 1.419 . S
C4301 C4296 1.425 . S
C4301 C4298 1.409 . S
C4301 C4299 1.415 . S
C4302 H4292 0.930 . S
C4302 C4300 1.419 . S
C4302 C4303 1.362 . S
C4303 H4293 0.930 . S
C4303 C4296 1.409 . S
C4303 C4302 1.362 . S
H4304 C4310 0.930 . S
H4305 C4313 0.930 . S
H4306 C4314 0.930 . S
H4307 C4315 0.930 . S
H4308 C4318 0.930 . S
H4309 C4319 0.930 . S
C4310 H4304 0.930 . S
C4310 C4311 1.355 1_655 S
C4310 C4312 1.415 . S
C4311 C4310 1.355 1_455 S
C4311 C4313 1.419 . S
C4312 C4310 1.415 . S
C4312 C4317 1.425 . S
C4312 C4319 1.409 . S
C4313 H4305 0.930 . S
C4313 C4311 1.419 . S
C4313 C4314 1.362 1_455 S
C4314 H4306 0.930 . S
C4314 C4313 1.362 1_655 S
C4314 C4317 1.409 . S
C4315 H4307 0.930 . S
C4315 C4316 1.355 . S
C4315 C4317 1.415 . S
C4316 C4315 1.355 . S
C4316 C4318 1.419 . S
C4317 C4312 1.425 . S
C4317 C4314 1.409 . S
C4317 C4315 1.415 . S
C4318 H4308 0.930 . S
C4318 C4316 1.419 . S
C4318 C4319 1.362 . S
C4319 H4309 0.930 . S
C4319 C4312 1.409 . S
C4319 C4318 1.362 . S
H4320 C4326 0.930 . S
H4321 C4329 0.930 . S
H4322 C4330 0.930 . S
H4323 C4331 0.930 . S
H4324 C4334 0.930 . S
H4325 C4335 0.930 . S
C4326 H4320 0.930 . S
C4326 C4327 1.355 1_455 S
C4326 C4328 1.415 . S
C4327 C4326 1.355 1_655 S
C4327 C4329 1.419 . S
C4328 C4326 1.415 . S
C4328 C4333 1.425 . S
C4328 C4335 1.409 . S
C4329 H4321 0.930 . S
C4329 C4327 1.419 . S
C4329 C4330 1.362 . S
C4330 H4322 0.930 . S
C4330 C4329 1.362 . S
C4330 C4333 1.409 1_655 S
C4331 H4323 0.930 . S
C4331 C4332 1.355 . S
C4331 C4333 1.415 . S
C4332 C4331 1.355 . S
C4332 C4334 1.419 . S
C4333 C4328 1.425 . S
C4333 C4330 1.409 1_455 S
C4333 C4331 1.415 . S
C4334 H4324 0.930 . S
C4334 C4332 1.419 . S
C4334 C4335 1.362 . S
C4335 H4325 0.930 . S
C4335 C4328 1.409 . S
C4335 C4334 1.362 . S
H4336 C4342 0.930 . S
H4337 C4345 0.930 . S
H4338 C4346 0.930 . S
H4339 C4347 0.930 . S
H4340 C4350 0.930 . S
H4341 C4351 0.930 . S
C4342 H4336 0.930 . S
C4342 C4343 1.355 . S
C4342 C4344 1.415 . S
C4343 C4342 1.355 . S
C4343 C4345 1.419 . S
C4344 C4342 1.415 . S
C4344 C4349 1.425 . S
C4344 C4351 1.409 . S
C4345 H4337 0.930 . S
C4345 C4343 1.419 . S
C4345 C4346 1.362 . S
C4346 H4338 0.930 . S
C4346 C4345 1.362 . S
C4346 C4349 1.409 . S
C4347 H4339 0.930 . S
C4347 C4348 1.355 . S
C4347 C4349 1.415 . S
C4348 C4347 1.355 . S
C4348 C4350 1.419 . S
C4349 C4344 1.425 . S
C4349 C4346 1.409 . S
C4349 C4347 1.415 . S
C4350 H4340 0.930 . S
C4350 C4348 1.419 . S
C4350 C4351 1.362 . S
C4351 H4341 0.930 . S
C4351 C4344 1.409 . S
C4351 C4350 1.362 . S
H4352 C4358 0.930 . S
H4353 C4361 0.930 . S
H4354 C4362 0.930 . S
H4355 C4363 0.930 . S
H4356 C4366 0.930 . S
H4357 C4367 0.930 . S
C4358 H4352 0.930 . S
C4358 C4359 1.355 . S
C4358 C4360 1.415 . S
C4359 C4358 1.355 . S
C4359 C4361 1.419 . S
C4360 C4358 1.415 . S
C4360 C4365 1.425 . S
C4360 C4367 1.409 . S
C4361 H4353 0.930 . S
C4361 C4359 1.419 . S
C4361 C4362 1.362 . S
C4362 H4354 0.930 . S
C4362 C4361 1.362 . S
C4362 C4365 1.409 . S
C4363 H4355 0.930 . S
C4363 C4364 1.355 . S
C4363 C4365 1.415 . S
C4364 C4363 1.355 . S
C4364 C4366 1.419 . S
C4365 C4360 1.425 . S
C4365 C4362 1.409 . S
C4365 C4363 1.415 . S
C4366 H4356 0.930 . S
C4366 C4364 1.419 . S
C4366 C4367 1.362 . S
C4367 H4357 0.930 . S
C4367 C4360 1.409 . S
C4367 C4366 1.362 . S
H4368 C4374 0.930 . S
H4369 C4377 0.930 . S
H4370 C4378 0.930 . S
H4371 C4379 0.930 . S
H4372 C4382 0.930 . S
H4373 C4383 0.930 . S
C4374 H4368 0.930 . S
C4374 C4375 1.355 . S
C4374 C4376 1.415 . S
C4375 C4374 1.355 . S
C4375 C4377 1.419 . S
C4376 C4374 1.415 . S
C4376 C4381 1.425 . S
C4376 C4383 1.409 . S
C4377 H4369 0.930 . S
C4377 C4375 1.419 . S
C4377 C4378 1.362 . S
C4378 H4370 0.930 . S
C4378 C4377 1.362 . S
C4378 C4381 1.409 . S
C4379 H4371 0.930 . S
C4379 C4380 1.355 . S
C4379 C4381 1.415 . S
C4380 C4379 1.355 . S
C4380 C4382 1.419 . S
C4381 C4376 1.425 . S
C4381 C4378 1.409 . S
C4381 C4379 1.415 . S
C4382 H4372 0.930 . S
C4382 C4380 1.419 . S
C4382 C4383 1.362 . S
C4383 H4373 0.930 . S
C4383 C4376 1.409 . S
C4383 C4382 1.362 . S
H4384 C4390 0.930 . S
H4385 C4393 0.930 . S
H4386 C4394 0.930 . S
H4387 C4395 0.930 . S
H4388 C4398 0.930 . S
H4389 C4399 0.930 . S
C4390 H4384 0.930 . S
C4390 C4391 1.355 . S
C4390 C4392 1.415 . S
C4391 C4390 1.355 . S
C4391 C4393 1.419 . S
C4392 C4390 1.415 . S
C4392 C4397 1.425 . S
C4392 C4399 1.409 . S
C4393 H4385 0.930 . S
C4393 C4391 1.419 . S
C4393 C4394 1.362 . S
C4394 H4386 0.930 . S
C4394 C4393 1.362 . S
C4394 C4397 1.409 . S
C4395 H4387 0.930 . S
C4395 C4396 1.355 . S
C4395 C4397 1.415 . S
C4396 C4395 1.355 . S
C4396 C4398 1.419 . S
C4397 C4392 1.425 . S
C4397 C4394 1.409 . S
C4397 C4395 1.415 . S
C4398 H4388 0.930 . S
C4398 C4396 1.419 . S
C4398 C4399 1.362 . S
C4399 H4389 0.930 . S
C4399 C4392 1.409 . S
C4399 C4398 1.362 . S
H4400 C4406 0.930 . S
H4401 C4409 0.930 . S
H4402 C4410 0.930 . S
H4403 C4411 0.930 . S
H4404 C4414 0.930 . S
H4405 C4415 0.930 . S
C4406 H4400 0.930 . S
C4406 C4407 1.355 . S
C4406 C4408 1.415 . S
C4407 C4406 1.355 . S
C4407 C4409 1.419 . S
C4408 C4406 1.415 . S
C4408 C4413 1.425 . S
C4408 C4415 1.409 . S
C4409 H4401 0.930 . S
C4409 C4407 1.419 . S
C4409 C4410 1.362 . S
C4410 H4402 0.930 . S
C4410 C4409 1.362 . S
C4410 C4413 1.409 . S
C4411 H4403 0.930 . S
C4411 C4412 1.355 . S
C4411 C4413 1.415 . S
C4412 C4411 1.355 . S
C4412 C4414 1.419 . S
C4413 C4408 1.425 . S
C4413 C4410 1.409 . S
C4413 C4411 1.415 . S
C4414 H4404 0.930 . S
C4414 C4412 1.419 . S
C4414 C4415 1.362 . S
C4415 H4405 0.930 . S
C4415 C4408 1.409 . S
C4415 C4414 1.362 . S
H4416 C4422 0.930 . S
H4417 C4425 0.930 . S
H4418 C4426 0.930 . S
H4419 C4427 0.930 . S
H4420 C4430 0.930 . S
H4421 C4431 0.930 . S
C4422 H4416 0.930 . S
C4422 C4423 1.355 . S
C4422 C4424 1.415 . S
C4423 C4422 1.355 . S
C4423 C4425 1.419 . S
C4424 C4422 1.415 . S
C4424 C4429 1.425 . S
C4424 C4431 1.409 . S
C4425 H4417 0.930 . S
C4425 C4423 1.419 . S
C4425 C4426 1.362 . S
C4426 H4418 0.930 . S
C4426 C4425 1.362 . S
C4426 C4429 1.409 . S
C4427 H4419 0.930 . S
C4427 C4428 1.355 . S
C4427 C4429 1.415 . S
C4428 C4427 1.355 . S
C4428 C4430 1.419 . S
C4429 C4424 1.425 . S
C4429 C4426 1.409 . S
C4429 C4427 1.415 . S
C4430 H4420 0.930 . S
C4430 C4428 1.419 . S
C4430 C4431 1.362 . S
C4431 H4421 0.930 . S
C4431 C4424 1.409 . S
C4431 C4430 1.362 . S
H4432 C4438 0.930 . S
H4433 C4441 0.930 . S
H4434 C4442 0.930 . S
H4435 C4443 0.930 . S
H4436 C4446 0.930 . S
H4437 C4447 0.930 . S
C4438 H4432 0.930 . S
C4438 C4439 1.355 . S
C4438 C4440 1.415 . S
C4439 C4438 1.355 . S
C4439 C4441 1.419 . S
C4440 C4438 1.415 . S
C4440 C4445 1.425 . S
C4440 C4447 1.409 . S
C4441 H4433 0.930 . S
C4441 C4439 1.419 . S
C4441 C4442 1.362 . S
C4442 H4434 0.930 . S
C4442 C4441 1.362 . S
C4442 C4445 1.409 . S
C4443 H4435 0.930 . S
C4443 C4444 1.355 . S
C4443 C4445 1.415 . S
C4444 C4443 1.355 . S
C4444 C4446 1.419 . S
C4445 C4440 1.425 . S
C4445 C4442 1.409 . S
C4445 C4443 1.415 . S
C4446 H4436 0.930 . S
C4446 C4444 1.419 . S
C4446 C4447 1.362 . S
C4447 H4437 0.930 . S
C4447 C4440 1.409 . S
C4447 C4446 1.362 . S
H4448 C4454 0.930 . S
H4449 C4457 0.930 . S
H4450 C4458 0.930 . S
H4451 C4459 0.930 . S
H4452 C4462 0.930 . S
H4453 C4463 0.930 . S
C4454 H4448 0.930 . S
C4454 C4455 1.355 . S
C4454 C4456 1.415 . S
C4455 C4454 1.355 . S
C4455 C4457 1.419 . S
C4456 C4454 1.415 . S
C4456 C4461 1.425 . S
C4456 C4463 1.409 . S
C4457 H4449 0.930 . S
C4457 C4455 1.419 . S
C4457 C4458 1.362 . S
C4458 H4450 0.930 . S
C4458 C4457 1.362 . S
C4458 C4461 1.409 . S
C4459 H4451 0.930 . S
C4459 C4460 1.355 . S
C4459 C4461 1.415 . S
C4460 C4459 1.355 . S
C4460 C4462 1.419 . S
C4461 C4456 1.425 . S
C4461 C4458 1.409 . S
C4461 C4459 1.415 . S
C4462 H4452 0.930 . S
C4462 C4460 1.419 . S
C4462 C4463 1.362 . S
C4463 H4453 0.930 . S
C4463 C4456 1.409 . S
C4463 C4462 1.362 . S
H4464 C4470 0.930 . S
H4465 C4473 0.930 . S
H4466 C4474 0.930 . S
H4467 C4475 0.930 . S
H4468 C4478 0.930 . S
H4469 C4479 0.930 . S
C4470 H4464 0.930 . S
C4470 C4471 1.355 . S
C4470 C4472 1.415 . S
C4471 C4470 1.355 . S
C4471 C4473 1.419 . S
C4472 C4470 1.415 . S
C4472 C4477 1.425 . S
C4472 C4479 1.409 . S
C4473 H4465 0.930 . S
C4473 C4471 1.419 . S
C4473 C4474 1.362 . S
C4474 H4466 0.930 . S
C4474 C4473 1.362 . S
C4474 C4477 1.409 . S
C4475 H4467 0.930 . S
C4475 C4476 1.355 . S
C4475 C4477 1.415 . S
C4476 C4475 1.355 . S
C4476 C4478 1.419 . S
C4477 C4472 1.425 . S
C4477 C4474 1.409 . S
C4477 C4475 1.415 . S
C4478 H4468 0.930 . S
C4478 C4476 1.419 . S
C4478 C4479 1.362 . S
C4479 H4469 0.930 . S
C4479 C4472 1.409 . S
C4479 C4478 1.362 . S
H4480 C4486 0.930 . S
H4481 C4489 0.930 . S
H4482 C4490 0.930 . S
H4483 C4491 0.930 . S
H4484 C4494 0.930 . S
H4485 C4495 0.930 . S
C4486 H4480 0.930 . S
C4486 C4487 1.355 . S
C4486 C4488 1.415 . S
C4487 C4486 1.355 . S
C4487 C4489 1.419 . S
C4488 C4486 1.415 . S
C4488 C4493 1.425 . S
C4488 C4495 1.409 . S
C4489 H4481 0.930 . S
C4489 C4487 1.419 . S
C4489 C4490 1.362 . S
C4490 H4482 0.930 . S
C4490 C4489 1.362 . S
C4490 C4493 1.409 . S
C4491 H4483 0.930 . S
C4491 C4492 1.355 . S
C4491 C4493 1.415 . S
C4492 C4491 1.355 . S
C4492 C4494 1.419 . S
C4493 C4488 1.425 . S
C4493 C4490 1.409 . S
C4493 C4491 1.415 . S
C4494 H4484 0.930 . S
C4494 C4492 1.419 . S
C4494 C4495 1.362 . S
C4495 H4485 0.930 . S
C4495 C4488 1.409 . S
C4495 C4494 1.362 . S
H4496 C4502 0.930 . S
H4497 C4505 0.930 . S
H4498 C4506 0.930 . S
H4499 C4507 0.930 . S
H4500 C4510 0.930 . S
H4501 C4511 0.930 . S
C4502 H4496 0.930 . S
C4502 C4503 1.355 . S
C4502 C4504 1.415 . S
C4503 C4502 1.355 . S
C4503 C4505 1.419 . S
C4504 C4502 1.415 . S
C4504 C4509 1.425 . S
C4504 C4511 1.409 . S
C4505 H4497 0.930 . S
C4505 C4503 1.419 . S
C4505 C4506 1.362 . S
C4506 H4498 0.930 . S
C4506 C4505 1.362 . S
C4506 C4509 1.409 . S
C4507 H4499 0.930 . S
C4507 C4508 1.355 . S
C4507 C4509 1.415 . S
C4508 C4507 1.355 . S
C4508 C4510 1.419 . S
C4509 C4504 1.425 . S
C4509 C4506 1.409 . S
C4509 C4507 1.415 . S
C4510 H4500 0.930 . S
C4510 C4508 1.419 . S
C4510 C4511 1.362 . S
C4511 H4501 0.930 . S
C4511 C4504 1.409 . S
C4511 C4510 1.362 . S
H4512 C4518 0.930 . S
H4513 C4521 0.930 . S
H4514 C4522 0.930 . S
H4515 C4523 0.930 . S
H4516 C4526 0.930 . S
H4517 C4527 0.930 . S
C4518 H4512 0.930 . S
C4518 C4519 1.355 . S
C4518 C4520 1.415 . S
C4519 C4518 1.355 . S
C4519 C4521 1.419 . S
C4520 C4518 1.415 . S
C4520 C4525 1.425 . S
C4520 C4527 1.409 . S
C4521 H4513 0.930 . S
C4521 C4519 1.419 . S
C4521 C4522 1.362 . S
C4522 H4514 0.930 . S
C4522 C4521 1.362 . S
C4522 C4525 1.409 . S
C4523 H4515 0.930 . S
C4523 C4524 1.355 . S
C4523 C4525 1.415 . S
C4524 C4523 1.355 . S
C4524 C4526 1.419 . S
C4525 C4520 1.425 . S
C4525 C4522 1.409 . S
C4525 C4523 1.415 . S
C4526 H4516 0.930 . S
C4526 C4524 1.419 . S
C4526 C4527 1.362 . S
C4527 H4517 0.930 . S
C4527 C4520 1.409 . S
C4527 C4526 1.362 . S
H4528 C4534 0.930 1_565 S
H4529 C4537 0.930 1_556 S
H4530 C4538 0.945 . S
H4531 C4539 0.930 1_556 S
H4532 C4542 0.930 . S
H4533 C4543 0.930 1_565 S
C4534 H4528 0.930 1_545 S
C4534 C4535 1.355 . S
C4534 C4536 1.415 . S
C4535 C4534 1.355 . S
C4535 C4537 1.419 . S
C4536 C4534 1.415 . S
C4536 C4541 1.425 . S
C4536 C4543 1.409 . S
C4537 H4529 0.930 1_554 S
C4537 C4535 1.419 . S
C4537 C4538 1.357 1_554 S
C4538 H4530 0.945 . S
C4538 C4537 1.357 1_556 S
C4538 C4541 1.400 1_556 S
C4539 H4531 0.930 1_554 S
C4539 C4540 1.355 . S
C4539 C4541 1.415 . S
C4540 C4539 1.355 . S
C4540 C4542 1.419 . S
C4541 C4536 1.425 . S
C4541 C4538 1.400 1_554 S
C4541 C4539 1.415 . S
C4542 H4532 0.930 . S
C4542 C4540 1.419 . S
C4542 C4543 1.362 . S
C4543 H4533 0.930 1_545 S
C4543 C4536 1.409 . S
C4543 C4542 1.362 . S
H4544 C4550 0.930 . S
H4545 C4553 0.930 . S
H4546 C4554 0.930 . S
H4547 C4555 0.930 . S
H4548 C4558 0.930 . S
H4549 C4559 0.930 . S
C4550 H4544 0.930 . S
C4550 C4551 1.355 . S
C4550 C4552 1.415 . S
C4551 C4550 1.355 . S
C4551 C4553 1.419 . S
C4552 C4550 1.415 . S
C4552 C4557 1.425 . S
C4552 C4559 1.409 . S
C4553 H4545 0.930 . S
C4553 C4551 1.419 . S
C4553 C4554 1.362 . S
C4554 H4546 0.930 . S
C4554 C4553 1.362 . S
C4554 C4557 1.409 . S
C4555 H4547 0.930 . S
C4555 C4556 1.355 . S
C4555 C4557 1.415 . S
C4556 C4555 1.355 . S
C4556 C4558 1.419 . S
C4557 C4552 1.425 . S
C4557 C4554 1.409 . S
C4557 C4555 1.415 . S
C4558 H4548 0.930 . S
C4558 C4556 1.419 . S
C4558 C4559 1.362 . S
C4559 H4549 0.930 . S
C4559 C4552 1.409 . S
C4559 C4558 1.362 . S
H4560 C4566 0.930 1_556 S
H4561 C4569 0.930 . S
H4562 C4570 0.930 . S
H4563 C4571 0.930 . S
H4564 C4574 0.930 . S
H4565 C4575 0.930 . S
C4566 H4560 0.930 1_554 S
C4566 C4567 1.354 1_554 S
C4566 C4568 1.415 . S
C4567 C4566 1.354 1_556 S
C4567 C4569 1.419 1_556 S
C4568 C4566 1.415 . S
C4568 C4573 1.425 . S
C4568 C4575 1.409 . S
C4569 H4561 0.930 . S
C4569 C4567 1.419 1_554 S
C4569 C4570 1.362 . S
C4570 H4562 0.930 . S
C4570 C4569 1.362 . S
C4570 C4573 1.409 . S
C4571 H4563 0.930 . S
C4571 C4572 1.355 . S
C4571 C4573 1.415 . S
C4572 C4571 1.355 . S
C4572 C4574 1.419 . S
C4573 C4568 1.425 . S
C4573 C4570 1.409 . S
C4573 C4571 1.415 . S
C4574 H4564 0.930 . S
C4574 C4572 1.419 . S
C4574 C4575 1.362 . S
C4575 H4565 0.930 . S
C4575 C4568 1.409 . S
C4575 C4574 1.362 . S
H4576 C4582 0.930 . S
H4577 C4585 0.930 . S
H4578 C4586 0.930 . S
H4579 C4587 0.930 . S
H4580 C4590 0.930 . S
H4581 C4591 0.930 . S
C4582 H4576 0.930 . S
C4582 C4583 1.355 . S
C4582 C4584 1.415 . S
C4583 C4582 1.355 . S
C4583 C4585 1.419 . S
C4584 C4582 1.415 . S
C4584 C4589 1.425 . S
C4584 C4591 1.409 . S
C4585 H4577 0.930 . S
C4585 C4583 1.419 . S
C4585 C4586 1.362 . S
C4586 H4578 0.930 . S
C4586 C4585 1.362 . S
C4586 C4589 1.409 . S
C4587 H4579 0.930 . S
C4587 C4588 1.355 . S
C4587 C4589 1.415 . S
C4588 C4587 1.355 . S
C4588 C4590 1.419 . S
C4589 C4584 1.425 . S
C4589 C4586 1.409 . S
C4589 C4587 1.415 . S
C4590 H4580 0.930 . S
C4590 C4588 1.419 . S
C4590 C4591 1.362 . S
C4591 H4581 0.930 . S
C4591 C4584 1.409 . S
C4591 C4590 1.362 . S
H4592 C4598 0.930 . S
H4593 C4601 0.930 . S
H4594 C4602 0.930 . S
H4595 C4603 0.930 . S
H4596 C4606 0.930 . S
H4597 C4607 0.930 . S
C4598 H4592 0.930 . S
C4598 C4599 1.355 . S
C4598 C4600 1.415 . S
C4599 C4598 1.355 . S
C4599 C4601 1.419 . S
C4600 C4598 1.415 . S
C4600 C4605 1.425 . S
C4600 C4607 1.409 . S
C4601 H4593 0.930 . S
C4601 C4599 1.419 . S
C4601 C4602 1.362 . S
C4602 H4594 0.930 . S
C4602 C4601 1.362 . S
C4602 C4605 1.409 . S
C4603 H4595 0.930 . S
C4603 C4604 1.355 . S
C4603 C4605 1.415 . S
C4604 C4603 1.355 . S
C4604 C4606 1.419 . S
C4605 C4600 1.425 . S
C4605 C4602 1.409 . S
C4605 C4603 1.415 . S
C4606 H4596 0.930 . S
C4606 C4604 1.419 . S
C4606 C4607 1.362 . S
C4607 H4597 0.930 . S
C4607 C4600 1.409 . S
C4607 C4606 1.362 . S
H4608 C4614 0.930 . S
H4609 C4617 0.930 . S
H4610 C4618 0.930 . S
H4611 C4619 0.930 . S
H4612 C4622 0.930 . S
H4613 C4623 0.930 . S
C4614 H4608 0.930 . S
C4614 C4615 1.355 . S
C4614 C4616 1.415 . S
C4615 C4614 1.355 . S
C4615 C4617 1.419 . S
C4616 C4614 1.415 . S
C4616 C4621 1.425 . S
C4616 C4623 1.409 . S
C4617 H4609 0.930 . S
C4617 C4615 1.419 . S
C4617 C4618 1.362 . S
C4618 H4610 0.930 . S
C4618 C4617 1.362 . S
C4618 C4621 1.409 . S
C4619 H4611 0.930 . S
C4619 C4620 1.355 . S
C4619 C4621 1.415 . S
C4620 C4619 1.355 . S
C4620 C4622 1.419 . S
C4621 C4616 1.425 . S
C4621 C4618 1.409 . S
C4621 C4619 1.415 . S
C4622 H4612 0.930 . S
C4622 C4620 1.419 . S
C4622 C4623 1.362 . S
C4623 H4613 0.930 . S
C4623 C4616 1.409 . S
C4623 C4622 1.362 . S
H4624 C4630 0.930 . S
H4625 C4633 0.930 . S
H4626 C4634 0.930 . S
H4627 C4635 0.930 . S
H4628 C4638 0.930 . S
H4629 C4639 0.930 . S
C4630 H4624 0.930 . S
C4630 C4631 1.355 . S
C4630 C4632 1.415 . S
C4631 C4630 1.355 . S
C4631 C4633 1.419 . S
C4632 C4630 1.415 . S
C4632 C4637 1.425 . S
C4632 C4639 1.409 . S
C4633 H4625 0.930 . S
C4633 C4631 1.419 . S
C4633 C4634 1.362 . S
C4634 H4626 0.930 . S
C4634 C4633 1.362 . S
C4634 C4637 1.409 . S
C4635 H4627 0.930 . S
C4635 C4636 1.355 . S
C4635 C4637 1.415 . S
C4636 C4635 1.355 . S
C4636 C4638 1.419 . S
C4637 C4632 1.425 . S
C4637 C4634 1.409 . S
C4637 C4635 1.415 . S
C4638 H4628 0.930 . S
C4638 C4636 1.419 . S
C4638 C4639 1.362 . S
C4639 H4629 0.930 . S
C4639 C4632 1.409 . S
C4639 C4638 1.362 . S
H4640 C4646 0.930 . S
H4641 C4649 0.930 . S
H4642 C4650 0.930 . S
H4643 C4651 0.930 . S
H4644 C4654 0.930 . S
H4645 C4655 0.930 . S
C4646 H4640 0.930 . S
C4646 C4647 1.355 . S
C4646 C4648 1.415 . S
C4647 C4646 1.355 . S
C4647 C4649 1.419 . S
C4648 C4646 1.415 . S
C4648 C4653 1.425 . S
C4648 C4655 1.409 . S
C4649 H4641 0.930 . S
C4649 C4647 1.419 . S
C4649 C4650 1.362 . S
C4650 H4642 0.930 . S
C4650 C4649 1.362 . S
C4650 C4653 1.409 . S
C4651 H4643 0.930 . S
C4651 C4652 1.355 . S
C4651 C4653 1.415 . S
C4652 C4651 1.355 . S
C4652 C4654 1.419 . S
C4653 C4648 1.425 . S
C4653 C4650 1.409 . S
C4653 C4651 1.415 . S
C4654 H4644 0.930 . S
C4654 C4652 1.419 . S
C4654 C4655 1.362 . S
C4655 H4645 0.930 . S
C4655 C4648 1.409 . S
C4655 C4654 1.362 . S
H4656 C4662 0.930 . S
H4657 C4665 0.930 . S
H4658 C4666 0.930 . S
H4659 C4667 0.930 . S
H4660 C4670 0.930 . S
H4661 C4671 0.930 . S
C4662 H4656 0.930 . S
C4662 C4663 1.355 . S
C4662 C4664 1.415 . S
C4663 C4662 1.355 . S
C4663 C4665 1.419 . S
C4664 C4662 1.415 . S
C4664 C4669 1.425 . S
C4664 C4671 1.409 . S
C4665 H4657 0.930 . S
C4665 C4663 1.419 . S
C4665 C4666 1.362 . S
C4666 H4658 0.930 . S
C4666 C4665 1.362 . S
C4666 C4669 1.409 . S
C4667 H4659 0.930 . S
C4667 C4668 1.355 . S
C4667 C4669 1.415 . S
C4668 C4667 1.355 . S
C4668 C4670 1.419 . S
C4669 C4664 1.425 . S
C4669 C4666 1.409 . S
C4669 C4667 1.415 . S
C4670 H4660 0.930 . S
C4670 C4668 1.419 . S
C4670 C4671 1.362 . S
C4671 H4661 0.930 . S
C4671 C4664 1.409 . S
C4671 C4670 1.362 . S
H4672 C4678 0.930 . S
H4673 C4681 0.930 . S
H4674 C4682 0.890 1_554 S
H4675 C4683 0.930 1_554 S
H4676 C4686 0.930 . S
H4677 C4687 0.930 . S
C4678 H4672 0.930 . S
C4678 C4679 1.355 . S
C4678 C4680 1.415 . S
C4679 C4678 1.355 . S
C4679 C4681 1.419 . S
C4680 C4678 1.415 . S
C4680 C4685 1.425 . S
C4680 C4687 1.409 . S
C4681 H4673 0.930 . S
C4681 C4679 1.419 . S
C4681 C4682 1.362 . S
C4682 H4674 0.890 1_556 S
C4682 C4681 1.362 . S
C4682 C4685 1.409 . S
C4683 H4675 0.930 1_556 S
C4683 C4684 1.355 . S
C4683 C4685 1.415 . S
C4684 C4683 1.355 . S
C4684 C4686 1.419 . S
C4685 C4680 1.425 . S
C4685 C4682 1.409 . S
C4685 C4683 1.415 . S
C4686 H4676 0.930 . S
C4686 C4684 1.419 . S
C4686 C4687 1.362 . S
C4687 H4677 0.930 . S
C4687 C4680 1.409 . S
C4687 C4686 1.362 . S
H4688 C4694 0.930 . S
H4689 C4697 0.930 . S
H4690 C4698 0.930 . S
H4691 C4699 0.930 . S
H4692 C4702 0.930 . S
H4693 C4703 0.930 . S
C4694 H4688 0.930 . S
C4694 C4695 1.355 . S
C4694 C4696 1.415 . S
C4695 C4694 1.355 . S
C4695 C4697 1.419 . S
C4696 C4694 1.415 . S
C4696 C4701 1.425 . S
C4696 C4703 1.409 . S
C4697 H4689 0.930 . S
C4697 C4695 1.419 . S
C4697 C4698 1.362 . S
C4698 H4690 0.930 . S
C4698 C4697 1.362 . S
C4698 C4701 1.409 . S
C4699 H4691 0.930 . S
C4699 C4700 1.355 . S
C4699 C4701 1.415 . S
C4700 C4699 1.355 . S
C4700 C4702 1.419 . S
C4701 C4696 1.425 . S
C4701 C4698 1.409 . S
C4701 C4699 1.415 . S
C4702 H4692 0.930 . S
C4702 C4700 1.419 . S
C4702 C4703 1.362 . S
C4703 H4693 0.930 . S
C4703 C4696 1.409 . S
C4703 C4702 1.362 . S
H4704 C4710 0.930 . S
H4705 C4713 0.930 . S
H4706 C4714 0.930 . S
H4707 C4715 0.930 . S
H4708 C4718 0.930 . S
H4709 C4719 0.930 . S
C4710 H4704 0.930 . S
C4710 C4711 1.355 . S
C4710 C4712 1.415 . S
C4711 C4710 1.355 . S
C4711 C4713 1.419 . S
C4712 C4710 1.415 . S
C4712 C4717 1.425 . S
C4712 C4719 1.409 . S
C4713 H4705 0.930 . S
C4713 C4711 1.419 . S
C4713 C4714 1.362 . S
C4714 H4706 0.930 . S
C4714 C4713 1.362 . S
C4714 C4717 1.409 . S
C4715 H4707 0.930 . S
C4715 C4716 1.355 . S
C4715 C4717 1.415 . S
C4716 C4715 1.355 . S
C4716 C4718 1.419 . S
C4717 C4712 1.425 . S
C4717 C4714 1.409 . S
C4717 C4715 1.415 . S
C4718 H4708 0.930 . S
C4718 C4716 1.419 . S
C4718 C4719 1.362 . S
C4719 H4709 0.930 . S
C4719 C4712 1.409 . S
C4719 C4718 1.362 . S
H4720 C4726 0.930 . S
H4721 C4729 0.930 . S
H4722 C4730 0.930 . S
H4723 C4731 0.930 . S
H4724 C4734 0.930 . S
H4725 C4735 0.930 . S
C4726 H4720 0.930 . S
C4726 C4727 1.355 . S
C4726 C4728 1.415 . S
C4727 C4726 1.355 . S
C4727 C4729 1.419 . S
C4728 C4726 1.415 . S
C4728 C4733 1.425 . S
C4728 C4735 1.409 . S
C4729 H4721 0.930 . S
C4729 C4727 1.419 . S
C4729 C4730 1.362 . S
C4730 H4722 0.930 . S
C4730 C4729 1.362 . S
C4730 C4733 1.409 . S
C4731 H4723 0.930 . S
C4731 C4732 1.355 . S
C4731 C4733 1.415 . S
C4732 C4731 1.355 . S
C4732 C4734 1.419 . S
C4733 C4728 1.425 . S
C4733 C4730 1.409 . S
C4733 C4731 1.415 . S
C4734 H4724 0.930 . S
C4734 C4732 1.419 . S
C4734 C4735 1.362 . S
C4735 H4725 0.930 . S
C4735 C4728 1.409 . S
C4735 C4734 1.362 . S
H4736 C4742 0.930 . S
H4737 C4745 0.930 . S
H4738 C4746 0.930 . S
H4739 C4747 0.930 . S
H4740 C4750 0.930 . S
H4741 C4751 0.930 . S
C4742 H4736 0.930 . S
C4742 C4743 1.355 . S
C4742 C4744 1.415 . S
C4743 C4742 1.355 . S
C4743 C4745 1.419 . S
C4744 C4742 1.415 . S
C4744 C4749 1.425 . S
C4744 C4751 1.409 . S
C4745 H4737 0.930 . S
C4745 C4743 1.419 . S
C4745 C4746 1.362 . S
C4746 H4738 0.930 . S
C4746 C4745 1.362 . S
C4746 C4749 1.409 . S
C4747 H4739 0.930 . S
C4747 C4748 1.355 . S
C4747 C4749 1.415 . S
C4748 C4747 1.355 . S
C4748 C4750 1.419 . S
C4749 C4744 1.425 . S
C4749 C4746 1.409 . S
C4749 C4747 1.415 . S
C4750 H4740 0.930 . S
C4750 C4748 1.419 . S
C4750 C4751 1.362 . S
C4751 H4741 0.930 . S
C4751 C4744 1.409 . S
C4751 C4750 1.362 . S
H4752 C4758 0.930 . S
H4753 C4761 0.930 . S
H4754 C4762 0.930 . S
H4755 C4763 0.930 . S
H4756 C4766 0.930 . S
H4757 C4767 0.930 . S
C4758 H4752 0.930 . S
C4758 C4759 1.355 . S
C4758 C4760 1.415 . S
C4759 C4758 1.355 . S
C4759 C4761 1.419 . S
C4760 C4758 1.415 . S
C4760 C4765 1.425 . S
C4760 C4767 1.409 . S
C4761 H4753 0.930 . S
C4761 C4759 1.419 . S
C4761 C4762 1.362 . S
C4762 H4754 0.930 . S
C4762 C4761 1.362 . S
C4762 C4765 1.409 . S
C4763 H4755 0.930 . S
C4763 C4764 1.355 . S
C4763 C4765 1.415 . S
C4764 C4763 1.355 . S
C4764 C4766 1.419 . S
C4765 C4760 1.425 . S
C4765 C4762 1.409 . S
C4765 C4763 1.415 . S
C4766 H4756 0.930 . S
C4766 C4764 1.419 . S
C4766 C4767 1.362 . S
C4767 H4757 0.930 . S
C4767 C4760 1.409 . S
C4767 C4766 1.362 . S
H4768 C4774 0.930 . S
H4769 C4777 0.930 . S
H4770 C4778 0.930 . S
H4771 C4779 0.930 . S
H4772 C4782 0.930 . S
H4773 C4783 0.930 . S
C4774 H4768 0.930 . S
C4774 C4775 1.355 . S
C4774 C4776 1.415 . S
C4775 C4774 1.355 . S
C4775 C4777 1.419 1_655 S
C4776 C4774 1.415 . S
C4776 C4781 1.425 1_655 S
C4776 C4783 1.409 . S
C4777 H4769 0.930 . S
C4777 C4775 1.419 1_455 S
C4777 C4778 1.362 . S
C4778 H4770 0.930 . S
C4778 C4777 1.362 . S
C4778 C4781 1.409 . S
C4779 H4771 0.930 . S
C4779 C4780 1.355 . S
C4779 C4781 1.415 . S
C4780 C4779 1.355 . S
C4780 C4782 1.419 . S
C4781 C4776 1.425 1_455 S
C4781 C4778 1.409 . S
C4781 C4779 1.415 . S
C4782 H4772 0.930 . S
C4782 C4780 1.419 . S
C4782 C4783 1.362 1_455 S
C4783 H4773 0.930 . S
C4783 C4776 1.409 . S
C4783 C4782 1.362 1_655 S
H4784 C4790 0.930 . S
H4785 C4793 0.930 . S
H4786 C4794 0.930 . S
H4787 C4795 0.930 . S
H4788 C4798 0.930 . S
H4789 C4799 0.930 . S
C4790 H4784 0.930 . S
C4790 C4791 1.355 . S
C4790 C4792 1.415 . S
C4791 C4790 1.355 . S
C4791 C4793 1.419 . S
C4792 C4790 1.415 . S
C4792 C4797 1.425 . S
C4792 C4799 1.409 . S
C4793 H4785 0.930 . S
C4793 C4791 1.419 . S
C4793 C4794 1.362 . S
C4794 H4786 0.930 . S
C4794 C4793 1.362 . S
C4794 C4797 1.409 . S
C4795 H4787 0.930 . S
C4795 C4796 1.355 . S
C4795 C4797 1.415 . S
C4796 C4795 1.355 . S
C4796 C4798 1.419 . S
C4797 C4792 1.425 . S
C4797 C4794 1.409 . S
C4797 C4795 1.415 . S
C4798 H4788 0.930 . S
C4798 C4796 1.419 . S
C4798 C4799 1.362 . S
C4799 H4789 0.930 . S
C4799 C4792 1.409 . S
C4799 C4798 1.362 . S
H4800 C4806 0.930 . S
H4801 C4809 0.930 . S
H4802 C4810 0.930 . S
H4803 C4811 0.930 . S
H4804 C4814 0.930 . S
H4805 C4815 0.930 . S
C4806 H4800 0.930 . S
C4806 C4807 1.355 . S
C4806 C4808 1.415 . S
C4807 C4806 1.355 . S
C4807 C4809 1.419 . S
C4808 C4806 1.415 . S
C4808 C4813 1.425 . S
C4808 C4815 1.409 . S
C4809 H4801 0.930 . S
C4809 C4807 1.419 . S
C4809 C4810 1.362 . S
C4810 H4802 0.930 . S
C4810 C4809 1.362 . S
C4810 C4813 1.409 . S
C4811 H4803 0.930 . S
C4811 C4812 1.355 . S
C4811 C4813 1.415 . S
C4812 C4811 1.355 . S
C4812 C4814 1.419 . S
C4813 C4808 1.425 . S
C4813 C4810 1.409 . S
C4813 C4811 1.415 . S
C4814 H4804 0.930 . S
C4814 C4812 1.419 . S
C4814 C4815 1.362 . S
C4815 H4805 0.930 . S
C4815 C4808 1.409 . S
C4815 C4814 1.362 . S
H4816 C4822 0.930 . S
H4817 C4825 0.930 . S
H4818 C4826 0.930 . S
H4819 C4827 0.930 . S
H4820 C4830 0.930 . S
H4821 C4831 0.930 . S
C4822 H4816 0.930 . S
C4822 C4823 1.355 . S
C4822 C4824 1.415 . S
C4823 C4822 1.355 . S
C4823 C4825 1.419 . S
C4824 C4822 1.415 . S
C4824 C4829 1.425 . S
C4824 C4831 1.409 . S
C4825 H4817 0.930 . S
C4825 C4823 1.419 . S
C4825 C4826 1.362 . S
C4826 H4818 0.930 . S
C4826 C4825 1.362 . S
C4826 C4829 1.409 . S
C4827 H4819 0.930 . S
C4827 C4828 1.355 . S
C4827 C4829 1.415 . S
C4828 C4827 1.355 . S
C4828 C4830 1.419 . S
C4829 C4824 1.425 . S
C4829 C4826 1.409 . S
C4829 C4827 1.415 . S
C4830 H4820 0.930 . S
C4830 C4828 1.419 . S
C4830 C4831 1.362 . S
C4831 H4821 0.930 . S
C4831 C4824 1.409 . S
C4831 C4830 1.362 . S
H4832 C4838 0.930 . S
H4833 C4841 0.930 . S
H4834 C4842 0.930 . S
H4835 C4843 0.930 . S
H4836 C4846 0.930 . S
H4837 C4847 0.930 . S
C4838 H4832 0.930 . S
C4838 C4839 1.355 . S
C4838 C4840 1.415 . S
C4839 C4838 1.355 . S
C4839 C4841 1.419 . S
C4840 C4838 1.415 . S
C4840 C4845 1.425 . S
C4840 C4847 1.409 1_655 S
C4841 H4833 0.930 . S
C4841 C4839 1.419 . S
C4841 C4842 1.362 . S
C4842 H4834 0.930 . S
C4842 C4841 1.362 . S
C4842 C4845 1.409 . S
C4843 H4835 0.930 . S
C4843 C4844 1.355 1_655 S
C4843 C4845 1.415 . S
C4844 C4843 1.355 1_455 S
C4844 C4846 1.419 . S
C4845 C4840 1.425 . S
C4845 C4842 1.409 . S
C4845 C4843 1.415 . S
C4846 H4836 0.930 . S
C4846 C4844 1.419 . S
C4846 C4847 1.362 . S
C4847 H4837 0.930 . S
C4847 C4840 1.409 1_455 S
C4847 C4846 1.362 . S
H4848 C4854 0.930 . S
H4849 C4857 0.930 . S
H4850 C4858 0.930 . S
H4851 C4859 0.930 . S
H4852 C4862 0.930 . S
H4853 C4863 0.930 . S
C4854 H4848 0.930 . S
C4854 C4855 1.355 . S
C4854 C4856 1.415 . S
C4855 C4854 1.355 . S
C4855 C4857 1.419 . S
C4856 C4854 1.415 . S
C4856 C4861 1.425 . S
C4856 C4863 1.409 . S
C4857 H4849 0.930 . S
C4857 C4855 1.419 . S
C4857 C4858 1.362 . S
C4858 H4850 0.930 . S
C4858 C4857 1.362 . S
C4858 C4861 1.409 . S
C4859 H4851 0.930 . S
C4859 C4860 1.355 . S
C4859 C4861 1.415 . S
C4860 C4859 1.355 . S
C4860 C4862 1.419 . S
C4861 C4856 1.425 . S
C4861 C4858 1.409 . S
C4861 C4859 1.415 . S
C4862 H4852 0.930 . S
C4862 C4860 1.419 . S
C4862 C4863 1.362 . S
C4863 H4853 0.930 . S
C4863 C4856 1.409 . S
C4863 C4862 1.362 . S
H4864 C4870 0.930 . S
H4865 C4873 0.930 . S
H4866 C4874 0.930 . S
H4867 C4875 0.930 . S
H4868 C4878 0.930 . S
H4869 C4879 0.930 . S
C4870 H4864 0.930 . S
C4870 C4871 1.355 . S
C4870 C4872 1.415 . S
C4871 C4870 1.355 . S
C4871 C4873 1.419 . S
C4872 C4870 1.415 . S
C4872 C4877 1.425 . S
C4872 C4879 1.409 . S
C4873 H4865 0.930 . S
C4873 C4871 1.419 . S
C4873 C4874 1.362 . S
C4874 H4866 0.930 . S
C4874 C4873 1.362 . S
C4874 C4877 1.409 . S
C4875 H4867 0.930 . S
C4875 C4876 1.355 . S
C4875 C4877 1.415 . S
C4876 C4875 1.355 . S
C4876 C4878 1.419 . S
C4877 C4872 1.425 . S
C4877 C4874 1.409 . S
C4877 C4875 1.415 . S
C4878 H4868 0.930 . S
C4878 C4876 1.419 . S
C4878 C4879 1.362 . S
C4879 H4869 0.930 . S
C4879 C4872 1.409 . S
C4879 C4878 1.362 . S
H4880 C4886 0.930 . S
H4881 C4889 0.930 . S
H4882 C4890 0.885 1_545 S
H4883 C4891 0.930 . S
H4884 C4894 0.930 . S
H4885 C4895 0.930 . S
C4886 H4880 0.930 . S
C4886 C4887 1.355 . S
C4886 C4888 1.415 . S
C4887 C4886 1.355 . S
C4887 C4889 1.419 . S
C4888 C4886 1.415 . S
C4888 C4893 1.425 . S
C4888 C4895 1.409 . S
C4889 H4881 0.930 . S
C4889 C4887 1.419 . S
C4889 C4890 1.389 . S
C4890 H4882 0.885 1_565 S
C4890 C4889 1.389 . S
C4890 C4893 1.429 . S
C4891 H4883 0.930 . S
C4891 C4892 1.355 . S
C4891 C4893 1.415 1_545 S
C4892 C4891 1.355 . S
C4892 C4894 1.418 1_545 S
C4893 C4888 1.425 . S
C4893 C4890 1.429 . S
C4893 C4891 1.415 1_565 S
C4894 H4884 0.930 . S
C4894 C4892 1.418 1_565 S
C4894 C4895 1.362 . S
C4895 H4885 0.930 . S
C4895 C4888 1.409 . S
C4895 C4894 1.362 . S
H4896 C4902 0.930 . S
H4897 C4905 0.930 . S
H4898 C4906 0.930 . S
H4899 C4907 0.930 . S
H4900 C4910 0.930 . S
H4901 C4911 0.930 . S
C4902 H4896 0.930 . S
C4902 C4903 1.355 . S
C4902 C4904 1.415 . S
C4903 C4902 1.355 . S
C4903 C4905 1.419 . S
C4904 C4902 1.415 . S
C4904 C4909 1.425 . S
C4904 C4911 1.409 . S
C4905 H4897 0.930 . S
C4905 C4903 1.419 . S
C4905 C4906 1.362 . S
C4906 H4898 0.930 . S
C4906 C4905 1.362 . S
C4906 C4909 1.409 . S
C4907 H4899 0.930 . S
C4907 C4908 1.355 . S
C4907 C4909 1.415 . S
C4908 C4907 1.355 . S
C4908 C4910 1.419 . S
C4909 C4904 1.425 . S
C4909 C4906 1.409 . S
C4909 C4907 1.415 . S
C4910 H4900 0.930 . S
C4910 C4908 1.419 . S
C4910 C4911 1.362 . S
C4911 H4901 0.930 . S
C4911 C4904 1.409 . S
C4911 C4910 1.362 . S
H4912 C4918 0.930 . S
H4913 C4921 0.930 . S
H4914 C4922 0.930 . S
H4915 C4923 0.930 1_556 S
H4916 C4926 0.930 . S
H4917 C4927 0.930 . S
C4918 H4912 0.930 . S
C4918 C4919 1.355 . S
C4918 C4920 1.415 . S
C4919 C4918 1.355 . S
C4919 C4921 1.419 1_554 S
C4920 C4918 1.415 . S
C4920 C4925 1.425 . S
C4920 C4927 1.409 . S
C4921 H4913 0.930 . S
C4921 C4919 1.419 1_556 S
C4921 C4922 1.362 . S
C4922 H4914 0.930 . S
C4922 C4921 1.362 . S
C4922 C4925 1.409 1_556 S
C4923 H4915 0.930 1_554 S
C4923 C4924 1.355 . S
C4923 C4925 1.415 . S
C4924 C4923 1.355 . S
C4924 C4926 1.419 . S
C4925 C4920 1.425 . S
C4925 C4922 1.409 1_554 S
C4925 C4923 1.415 . S
C4926 H4916 0.930 . S
C4926 C4924 1.419 . S
C4926 C4927 1.362 . S
C4927 H4917 0.930 . S
C4927 C4920 1.409 . S
C4927 C4926 1.362 . S
H4928 C4934 0.930 . S
H4929 C4937 0.930 . S
H4930 C4938 0.930 . S
H4931 C4939 0.930 . S
H4932 C4942 0.930 . S
H4933 C4943 0.930 . S
C4934 H4928 0.930 . S
C4934 C4935 1.355 . S
C4934 C4936 1.415 . S
C4935 C4934 1.355 . S
C4935 C4937 1.419 . S
C4936 C4934 1.415 . S
C4936 C4941 1.425 . S
C4936 C4943 1.409 . S
C4937 H4929 0.930 . S
C4937 C4935 1.419 . S
C4937 C4938 1.362 . S
C4938 H4930 0.930 . S
C4938 C4937 1.362 . S
C4938 C4941 1.409 . S
C4939 H4931 0.930 . S
C4939 C4940 1.355 . S
C4939 C4941 1.415 . S
C4940 C4939 1.355 . S
C4940 C4942 1.419 . S
C4941 C4936 1.425 . S
C4941 C4938 1.409 . S
C4941 C4939 1.415 . S
C4942 H4932 0.930 . S
C4942 C4940 1.419 . S
C4942 C4943 1.362 . S
C4943 H4933 0.930 . S
C4943 C4936 1.409 . S
C4943 C4942 1.362 . S
H4944 C4950 0.930 . S
H4945 C4953 0.930 . S
H4946 C4954 0.930 . S
H4947 C4955 0.930 . S
H4948 C4958 0.930 . S
H4949 C4959 0.930 . S
C4950 H4944 0.930 . S
C4950 C4951 1.355 . S
C4950 C4952 1.415 . S
C4951 C4950 1.355 . S
C4951 C4953 1.419 . S
C4952 C4950 1.415 . S
C4952 C4957 1.425 . S
C4952 C4959 1.409 . S
C4953 H4945 0.930 . S
C4953 C4951 1.419 . S
C4953 C4954 1.362 . S
C4954 H4946 0.930 . S
C4954 C4953 1.362 . S
C4954 C4957 1.409 . S
C4955 H4947 0.930 . S
C4955 C4956 1.355 . S
C4955 C4957 1.415 . S
C4956 C4955 1.355 . S
C4956 C4958 1.419 . S
C4957 C4952 1.425 . S
C4957 C4954 1.409 . S
C4957 C4955 1.415 . S
C4958 H4948 0.930 . S
C4958 C4956 1.419 . S
C4958 C4959 1.362 . S
C4959 H4949 0.930 . S
C4959 C4952 1.409 . S
C4959 C4958 1.362 . S
H4960 C4966 0.930 . S
H4961 C4969 0.930 . S
H4962 C4970 0.930 . S
H4963 C4971 0.930 . S
H4964 C4974 0.930 . S
H4965 C4975 0.930 . S
C4966 H4960 0.930 . S
C4966 C4967 1.355 . S
C4966 C4968 1.415 . S
C4967 C4966 1.355 . S
C4967 C4969 1.419 . S
C4968 C4966 1.415 . S
C4968 C4973 1.425 . S
C4968 C4975 1.409 . S
C4969 H4961 0.930 . S
C4969 C4967 1.419 . S
C4969 C4970 1.362 . S
C4970 H4962 0.930 . S
C4970 C4969 1.362 . S
C4970 C4973 1.409 . S
C4971 H4963 0.930 . S
C4971 C4972 1.355 . S
C4971 C4973 1.415 . S
C4972 C4971 1.355 . S
C4972 C4974 1.419 . S
C4973 C4968 1.425 . S
C4973 C4970 1.409 . S
C4973 C4971 1.415 . S
C4974 H4964 0.930 . S
C4974 C4972 1.419 . S
C4974 C4975 1.362 . S
C4975 H4965 0.930 . S
C4975 C4968 1.409 . S
C4975 C4974 1.362 . S
H4976 C4982 0.930 . S
H4977 C4985 0.930 . S
H4978 C4986 0.930 . S
H4979 C4987 0.930 . S
H4980 C4990 0.930 . S
H4981 C4991 0.930 . S
C4982 H4976 0.930 . S
C4982 C4983 1.355 . S
C4982 C4984 1.415 . S
C4983 C4982 1.355 . S
C4983 C4985 1.419 . S
C4984 C4982 1.415 . S
C4984 C4989 1.425 . S
C4984 C4991 1.409 . S
C4985 H4977 0.930 . S
C4985 C4983 1.419 . S
C4985 C4986 1.362 . S
C4986 H4978 0.930 . S
C4986 C4985 1.362 . S
C4986 C4989 1.409 . S
C4987 H4979 0.930 . S
C4987 C4988 1.355 . S
C4987 C4989 1.415 . S
C4988 C4987 1.355 . S
C4988 C4990 1.419 . S
C4989 C4984 1.425 . S
C4989 C4986 1.409 . S
C4989 C4987 1.415 . S
C4990 H4980 0.930 . S
C4990 C4988 1.419 . S
C4990 C4991 1.362 . S
C4991 H4981 0.930 . S
C4991 C4984 1.409 . S
C4991 C4990 1.362 . S
C3463 C665 1.762 . S
C3468 C2179 1.682 . S
C3479 C381 2.203 . S
C3484 C2262 2.161 . S
C3495 C460 1.701 . S
C3500 C2347 1.754 . S
C3516 C2427 1.436 . S
C3511 C585 1.604 . S
C3527 C108 1.572 . S
C3532 C2511 1.494 . S
C3548 C2604 1.013 . S
C3543 C196 1.126 . S
C3564 C2682 1.047 . S
C3559 C313 1.031 . S
C3575 C49 1.383 . S
C3580 C2767 1.292 . S
C3596 C2178 2.010 . S
C3591 C1457 2.068 1_455 S
C3607 C1545 0.583 . S
C3612 C2259 0.593 . S
C3628 C2346 1.137 . S
C3623 C1721 1.173 . S
C3644 C2431 1.781 . S
C3639 C1113 1.745 . S
C3655 C1428 2.181 . S
C3660 C2515 2.076 . S
C3676 C2607 1.021 . S
C3671 C1516 1.128 . S
C3692 C2679 0.744 . S
C3687 C1692 0.698 . S
C3708 C2766 1.466 . S
C3703 C1085 1.598 . S
C3724 C2175 1.344 . S
C3719 C988 1.464 . S
C3735 C1817 1.944 . S
C3740 C2850 1.915 1_556 S
C3756 C2924 2.117 . S
C3751 C2081 2.298 . S
C3772 C3019 0.620 . S
C3767 C1993 0.464 . S
C3783 C761 0.820 . S
C3788 C2763 0.906 . S
C3799 C821 1.445 . S
C3804 C2343 1.433 . S
C3815 C2053 2.299 . S
C3820 C3102 2.245 . S
C3836 C3187 0.679 . S
C3831 C1868 0.704 . S
C3852 C2168 1.700 . S
C3847 C372 1.795 . S
C3868 C3195 2.165 . S
C3863 C645 2.191 . S
C3879 C577 1.722 . S
C3884 C2336 1.696 . S
C3895 C497 1.603 . S
C3900 C3108 1.491 . S
C3916 C2520 1.502 . S
C3911 C57 1.562 . S
C3927 C293 1.053 . S
C3932 C2931 0.948 . S
C3948 C2691 1.027 . S
C3943 C205 1.044 . S
C3964 C3260 1.312 . S
C3959 C145 1.409 . S
C3980 C2187 1.978 . S
C3975 C909 2.055 . S
C3996 C3192 0.523 . S
C3991 C1956 0.570 . S
C4007 C724 1.173 . S
C4012 C2355 1.129 . S
C4023 C1780 1.767 . S
C4028 C3092 1.707 . S
C4039 C937 2.206 . S
C4044 C2504 2.029 . S
C4060 C2934 1.098 . S
C4055 C1985 1.123 . S
C4071 C753 0.722 . S
C4076 C2688 0.828 . S
C4087 C1809 1.580 . S
C4092 C3279 1.508 . S
C4103 C1173 1.498 . S
C4108 C2184 1.410 1_554 S
C4119 C1105 1.934 . S
C4124 C2859 1.891 . S
C4135 C1633 2.294 . S
C4140 C2599 2.120 . S
C4151 C1553 0.556 . S
C4156 C3008 0.619 . S
C4172 C3276 0.877 . S
C4167 C1729 0.856 . S
C4183 C1340 1.483 . S
C4188 C2352 1.401 . S
C4204 C2439 2.254 . S
C4199 C1604 2.296 . S
C4220 C2252 0.731 . S
C4215 C1252 0.671 . S
C4231 C489 1.767 . S
C4236 C3355 1.730 . S
C4252 C3186 2.198 . S
C4247 C557 2.173 . S
C4263 C636 1.735 . S
C4268 C3439 1.719 . S
C4279 C409 1.610 1_655 S
C4284 C3099 1.437 . S
C4295 C284 1.556 . S
C4300 C2847 1.511 . S
C4316 C2940 1.062 . S
C4311 C20 1.123 . S
C4332 C3018 1.042 . S
C4327 C137 1.047 . S
C4348 C3271 1.200 . S
C4343 C225 1.394 . S
C4364 C3354 2.009 . S
C4359 C1641 2.068 . S
C4375 C1193 0.581 . S
C4380 C3183 0.553 . S
C4396 C3438 1.185 . S
C4391 C1289 1.162 . S
C4412 C3103 1.788 . S
C4407 C1377 1.764 . S
C4428 C2851 2.038 . S
C4423 C1613 2.204 . S
C4439 C1164 1.130 . S
C4444 C2943 1.026 . S
C4460 C3015 0.803 . S
C4455 C1261 0.730 . S
C4471 C1349 1.586 . S
C4476 C3270 1.430 . S
C4492 C3351 1.325 . S
C4487 C1965 1.480 . S
C4503 C849 1.953 . S
C4508 C2514 1.903 . S
C4524 C2588 2.134 . S
C4519 C929 2.308 . S
C4540 C2683 0.439 . S
C4535 C1017 0.566 1_545 S
C4556 C3267 0.938 . S
C4551 C1897 0.835 . S
C4567 C1789 1.448 . S
C4572 C3435 1.426 . S
C4588 C2430 2.253 . S
C4583 C900 2.318 . S
C4604 C2263 0.732 . S
C4599 C733 0.736 . S
C4615 C548 1.808 . S
C4620 C3344 1.742 . S
C4636 C2271 2.190 . S
C4631 C469 2.177 . S
C4647 C401 1.703 . S
C4652 C3428 1.745 . S
C4663 C673 1.603 . S
C4668 C2436 1.421 . S
C4679 C233 1.558 . S
C4684 C2856 1.554 . S
C4700 C2595 1.041 . S
C4695 C117 1.131 . S
C4711 C29 0.976 . S
C4716 C3027 1.049 . S
C4727 C321 1.394 . S
C4732 C2756 1.300 . S
C4748 C3363 1.949 . S
C4743 C2044 2.064 . S
C4759 C997 0.569 . S
C4764 C2268 0.518 . S
C4780 C3447 1.139 . S
C4775 C1877 1.169 . S
C4791 C812 1.767 . S
C4796 C2420 1.713 . S
C4807 C2073 2.193 . S
C4812 C2840 2.017 . S
C4828 C2598 1.039 . S
C4823 C1025 1.120 . S
C4839 C1905 0.691 . S
C4844 C3024 0.673 . S
C4860 C2775 1.421 . S
C4855 C841 1.583 . S
C4876 C3360 1.335 . S
C4871 C1525 1.488 . S
C4892 C2523 1.876 1_655 S
C4887 C1369 1.956 . S
C4903 C1465 2.299 . S
C4908 C2935 2.154 . S
C4924 C2672 0.566 . S
C4919 C1201 0.594 . S
C4935 C1281 0.826 . S
C4940 C2772 0.904 . S
C4951 C1076 1.442 . S
C4956 C3444 1.464 1_554 S
C4972 C3111 2.235 . S
C4967 C1437 2.321 . S
C4988 C3176 0.720 . S
C4983 C1701 0.731 . S
