# Generated by pormake.
# Topology ocu, (6,8)-cn, num edge types: 1
# Building blocks:
#     Node 0, Type 0, BuildingBlock: KUMJIN_clean_sbu_0, # of connection points: 6
#     Node 1, Type 0, BuildingBlock: KUMJIN_clean_sbu_0, # of connection points: 6
#     Node 2, Type 0, BuildingBlock: KUMJIN_clean_sbu_0, # of connection points: 6
#     Node 3, Type 0, BuildingBlock: KUMJIN_clean_sbu_0, # of connection points: 6
#     Node 4, Type 0, BuildingBlock: KUMJIN_clean_sbu_0, # of connection points: 6
#     Node 5, Type 0, BuildingBlock: KUMJIN_clean_sbu_0, # of connection points: 6
#     Node 6, Type 0, BuildingBlock: KUMJIN_clean_sbu_0, # of connection points: 6
#     Node 7, Type 0, BuildingBlock: KUMJIN_clean_sbu_0, # of connection points: 6
#     Node 8, Type 1, BuildingBlock: VETTIZ_charged_sbu_0, # of connection points: 8
#     Node 9, Type 1, BuildingBlock: VETTIZ_charged_sbu_0, # of connection points: 8
#     Node 10, Type 1, BuildingBlock: VETTIZ_charged_sbu_0, # of connection points: 8
#     Node 11, Type 1, BuildingBlock: VETTIZ_charged_sbu_0, # of connection points: 8
#     Node 12, Type 1, BuildingBlock: VETTIZ_charged_sbu_0, # of connection points: 8
#     Node 13, Type 1, BuildingBlock: VETTIZ_charged_sbu_0, # of connection points: 8
#     Edge 14, Type (0, 1), BuildingBlock: OJICUG_clean_linker_0, # of connection points: 2
#     Edge 15, Type (0, 1), BuildingBlock: OJICUG_clean_linker_0, # of connection points: 2
#     Edge 16, Type (0, 1), BuildingBlock: OJICUG_clean_linker_0, # of connection points: 2
#     Edge 17, Type (0, 1), BuildingBlock: OJICUG_clean_linker_0, # of connection points: 2
#     Edge 18, Type (0, 1), BuildingBlock: OJICUG_clean_linker_0, # of connection points: 2
#     Edge 19, Type (0, 1), BuildingBlock: OJICUG_clean_linker_0, # of connection points: 2
#     Edge 20, Type (0, 1), BuildingBlock: OJICUG_clean_linker_0, # of connection points: 2
#     Edge 21, Type (0, 1), BuildingBlock: OJICUG_clean_linker_0, # of connection points: 2
#     Edge 22, Type (0, 1), BuildingBlock: OJICUG_clean_linker_0, # of connection points: 2
#     Edge 23, Type (0, 1), BuildingBlock: OJICUG_clean_linker_0, # of connection points: 2
#     Edge 24, Type (0, 1), BuildingBlock: OJICUG_clean_linker_0, # of connection points: 2
#     Edge 25, Type (0, 1), BuildingBlock: OJICUG_clean_linker_0, # of connection points: 2
#     Edge 26, Type (0, 1), BuildingBlock: OJICUG_clean_linker_0, # of connection points: 2
#     Edge 27, Type (0, 1), BuildingBlock: OJICUG_clean_linker_0, # of connection points: 2
#     Edge 28, Type (0, 1), BuildingBlock: OJICUG_clean_linker_0, # of connection points: 2
#     Edge 29, Type (0, 1), BuildingBlock: OJICUG_clean_linker_0, # of connection points: 2
#     Edge 30, Type (0, 1), BuildingBlock: OJICUG_clean_linker_0, # of connection points: 2
#     Edge 31, Type (0, 1), BuildingBlock: OJICUG_clean_linker_0, # of connection points: 2
#     Edge 32, Type (0, 1), BuildingBlock: OJICUG_clean_linker_0, # of connection points: 2
#     Edge 33, Type (0, 1), BuildingBlock: OJICUG_clean_linker_0, # of connection points: 2
#     Edge 34, Type (0, 1), BuildingBlock: OJICUG_clean_linker_0, # of connection points: 2
#     Edge 35, Type (0, 1), BuildingBlock: OJICUG_clean_linker_0, # of connection points: 2
#     Edge 36, Type (0, 1), BuildingBlock: OJICUG_clean_linker_0, # of connection points: 2
#     Edge 37, Type (0, 1), BuildingBlock: OJICUG_clean_linker_0, # of connection points: 2
#     Edge 38, Type (0, 1), BuildingBlock: OJICUG_clean_linker_0, # of connection points: 2
#     Edge 39, Type (0, 1), BuildingBlock: OJICUG_clean_linker_0, # of connection points: 2
#     Edge 40, Type (0, 1), BuildingBlock: OJICUG_clean_linker_0, # of connection points: 2
#     Edge 41, Type (0, 1), BuildingBlock: OJICUG_clean_linker_0, # of connection points: 2
#     Edge 42, Type (0, 1), BuildingBlock: OJICUG_clean_linker_0, # of connection points: 2
#     Edge 43, Type (0, 1), BuildingBlock: OJICUG_clean_linker_0, # of connection points: 2
#     Edge 44, Type (0, 1), BuildingBlock: OJICUG_clean_linker_0, # of connection points: 2
#     Edge 45, Type (0, 1), BuildingBlock: OJICUG_clean_linker_0, # of connection points: 2
#     Edge 46, Type (0, 1), BuildingBlock: OJICUG_clean_linker_0, # of connection points: 2
#     Edge 47, Type (0, 1), BuildingBlock: OJICUG_clean_linker_0, # of connection points: 2
#     Edge 48, Type (0, 1), BuildingBlock: OJICUG_clean_linker_0, # of connection points: 2
#     Edge 49, Type (0, 1), BuildingBlock: OJICUG_clean_linker_0, # of connection points: 2
#     Edge 50, Type (0, 1), BuildingBlock: OJICUG_clean_linker_0, # of connection points: 2
#     Edge 51, Type (0, 1), BuildingBlock: OJICUG_clean_linker_0, # of connection points: 2
#     Edge 52, Type (0, 1), BuildingBlock: OJICUG_clean_linker_0, # of connection points: 2
#     Edge 53, Type (0, 1), BuildingBlock: OJICUG_clean_linker_0, # of connection points: 2
#     Edge 54, Type (0, 1), BuildingBlock: OJICUG_clean_linker_0, # of connection points: 2
#     Edge 55, Type (0, 1), BuildingBlock: OJICUG_clean_linker_0, # of connection points: 2
#     Edge 56, Type (0, 1), BuildingBlock: OJICUG_clean_linker_0, # of connection points: 2
#     Edge 57, Type (0, 1), BuildingBlock: OJICUG_clean_linker_0, # of connection points: 2
#     Edge 58, Type (0, 1), BuildingBlock: OJICUG_clean_linker_0, # of connection points: 2
#     Edge 59, Type (0, 1), BuildingBlock: OJICUG_clean_linker_0, # of connection points: 2
#     Edge 60, Type (0, 1), BuildingBlock: OJICUG_clean_linker_0, # of connection points: 2
#     Edge 61, Type (0, 1), BuildingBlock: OJICUG_clean_linker_0, # of connection points: 2
# Relax obj value: 0.133
# Max RMSD: 0.244
# Mean RMSD: 0.168
data_MOF--net-ocu--node1-KUMJIN_clean_sbu_0--node2-VETTIZ_charged_sbu_0--edge1-OJICUG_clean_linker_0
_symmetry_space_group_name_H-M    P1
_symmetry_Int_Tables_number       1
_symmetry_cell_setting            triclinic
loop_
_symmetry_equiv_pos_as_xyz
'x, y, z'
_cell_length_a     30.062965
_cell_length_b     30.354945
_cell_length_c     32.346081
_cell_angle_alpha  76.918639
_cell_angle_beta   100.6934
_cell_angle_gamma 107.86149
loop_
_atom_site_label
_atom_site_type_symbol
_atom_site_fract_x
_atom_site_fract_y
_atom_site_fract_z
_atom_type_partial_charge
Eu0 Eu 0.27151 0.21876 0.23701 0.0
C1 C 0.40775 0.37716 0.32703 0.0
C2 C 0.44644 0.33852 0.39141 0.0
C3 C 0.48637 0.41714 0.35713 0.0
C4 C 0.40764 0.33811 0.3592 0.0
C5 C 0.44715 0.41713 0.32583 0.0
C6 C 0.48598 0.37798 0.38987 0.0
C7 C 0.40611 0.45467 0.26307 0.0
N8 N 0.36935 0.37603 0.29688 0.0
C9 C 0.36782 0.41442 0.26545 0.0
C10 C 0.44603 0.45599 0.29321 0.0
Eu11 Eu 0.30669 0.3054 0.30431 0.0
N12 N 0.369 0.30036 0.35992 0.0
C13 C 0.36549 0.26331 0.39332 0.0
C14 C 0.44392 0.29966 0.42476 0.0
C15 C 0.40297 0.26219 0.42604 0.0
H16 H 0.33803 0.41397 0.24109 0.0
H17 H 0.40024 0.23246 0.4522 0.0
H18 H 0.51622 0.3788 0.41416 0.0
H19 H 0.40503 0.48426 0.23745 0.0
H20 H 0.33351 0.23472 0.39487 0.0
H21 H 0.22093 0.31981 0.08133 0.0
H22 H 0.47294 0.2987 0.45012 0.0
H23 H 0.21775 0.10633 0.27715 0.0
H24 H 0.27542 0.29871 0.14392 0.0
H25 H 0.13857 0.05003 0.27007 0.0
H26 H 0.517 0.44748 0.35655 0.0
H27 H 0.13704 0.27436 0.07521 0.0
H28 H 0.07326 0.20503 0.10424 0.0
H29 H 0.4759 0.48701 0.29097 0.0
H30 H 0.05065 0.13149 0.15595 0.0
N31 N 0.22286 0.24249 0.17458 0.0
C32 C 0.23903 0.27843 0.14221 0.0
C33 C 0.16082 0.26484 0.10302 0.0
C34 C 0.14519 0.22594 0.13472 0.0
C35 C 0.20818 0.29051 0.10632 0.0
C36 C 0.17765 0.21492 0.17025 0.0
H37 H 0.07508 0.07278 0.21714 0.0
N38 N 0.19827 0.16103 0.23042 0.0
C39 C 0.1454 0.08466 0.2502 0.0
C40 C 0.16493 0.17311 0.19915 0.0
C41 C 0.19012 0.11658 0.25416 0.0
C42 C 0.1096 0.09772 0.22039 0.0
C43 C 0.11943 0.14188 0.1936 0.0
O44 O 0.26642 0.17082 0.19368 0.0
O45 O 0.32298 0.2382 0.29605 0.0
O46 O 0.36659 0.32085 0.26548 0.0
O47 O 0.32447 0.28529 0.20847 0.0
O48 O 0.29079 0.16807 0.29723 0.0
O49 O 0.33444 0.20849 0.22054 0.0
O50 O 0.24976 0.33147 0.31446 0.0
O51 O 0.26083 0.28772 0.24226 0.0
O52 O 0.21658 0.19997 0.28236 0.0
O53 O 0.26097 0.23745 0.33741 0.0
O54 O 0.26907 0.35299 0.25314 0.0
O55 O 0.3029 0.31971 0.36674 0.0
C56 C 0.32265 0.19682 0.31864 0.0
C57 C 0.3283 0.13512 0.20427 0.0
C58 C 0.37142 0.09119 0.18039 0.0
C59 C 0.35294 0.12992 0.17368 0.0
C60 C 0.36515 0.05784 0.21839 0.0
C61 C 0.32141 0.10094 0.24157 0.0
C62 C 0.33998 0.06259 0.24859 0.0
C63 C 0.36363 0.31125 0.2272 0.0
C64 C 0.31155 0.1772 0.19714 0.0
C65 C 0.08598 0.1547 0.16031 0.0
C66 C 0.09886 0.1966 0.13087 0.0
C67 C 0.24647 0.32525 0.22662 0.0
C68 C 0.26989 0.38162 0.36503 0.0
C69 C 0.23043 0.38852 0.37748 0.0
C70 C 0.23363 0.43101 0.38999 0.0
C71 C 0.27638 0.46671 0.38917 0.0
C72 C 0.31213 0.41801 0.36398 0.0
C73 C 0.3152 0.46037 0.37584 0.0
C74 C 0.22261 0.20846 0.32149 0.0
C75 C 0.26669 0.33632 0.35362 0.0
H76 H 0.35812 0.15629 0.1448 0.0
H77 H 0.37881 0.0276 0.22433 0.0
H78 H 0.30193 0.10387 0.26526 0.0
H79 H 0.33472 0.03637 0.27747 0.0
H80 H 0.19772 0.36056 0.37839 0.0
H81 H 0.27967 0.49958 0.39869 0.0
H82 H 0.34285 0.41361 0.35441 0.0
H83 H 0.3479 0.48825 0.37504 0.0
Eu84 Eu 0.80755 0.21699 0.26869 0.0
C85 C 0.68823 0.31919 0.32357 0.0
C86 C 0.60904 0.26961 0.30924 0.0
C87 C 0.62598 0.31934 0.36237 0.0
C88 C 0.6565 0.28706 0.30065 0.0
C89 C 0.67311 0.33602 0.35444 0.0
C90 C 0.59402 0.28612 0.33988 0.0
C91 C 0.75177 0.38626 0.36667 0.0
N92 N 0.73376 0.33431 0.31571 0.0
C93 C 0.76508 0.36875 0.33593 0.0
C94 C 0.70565 0.3696 0.37623 0.0
Eu95 Eu 0.75375 0.30728 0.25942 0.0
N96 N 0.67215 0.27151 0.27127 0.0
C97 C 0.6422 0.23503 0.25274 0.0
C98 C 0.57805 0.23522 0.28751 0.0
C99 C 0.59493 0.21742 0.25957 0.0
H100 H 0.80113 0.38261 0.32926 0.0
H101 H 0.57194 0.18886 0.24432 0.0
H102 H 0.5578 0.27314 0.34666 0.0
H103 H 0.77721 0.41274 0.38293 0.0
H104 H 0.6544 0.21641 0.23484 0.0
H105 H 0.98371 0.34144 0.30152 0.0
H106 H 0.54155 0.22093 0.29331 0.0
H107 H 0.77163 0.15764 0.18502 0.0
H108 H 0.89937 0.31151 0.30061 0.0
H109 H 0.80419 0.13966 0.12964 0.0
H110 H 0.6139 0.33186 0.38592 0.0
H111 H 1.02423 0.31441 0.25662 0.0
H112 H 1.018 0.26909 0.19966 0.0
H113 H 0.69537 0.3833 0.40005 0.0
H114 H 0.96862 0.2173 0.15058 0.0
N115 N 0.89031 0.25816 0.26399 0.0
C116 C 0.91583 0.29434 0.28504 0.0
C117 C 0.98686 0.29865 0.25826 0.0
C118 C 0.96024 0.26624 0.23251 0.0
C119 C 0.96425 0.31362 0.28388 0.0
C120 C 0.91143 0.24671 0.23579 0.0
H121 H 0.88917 0.17061 0.12335 0.0
N122 N 0.83666 0.20251 0.20997 0.0
C123 C 0.82704 0.16221 0.1511 0.0
C124 C 0.88365 0.21852 0.20761 0.0
C125 C 0.80864 0.17338 0.18272 0.0
C126 C 0.87492 0.17952 0.14778 0.0
C127 C 0.90396 0.20775 0.17629 0.0
O128 O 0.75985 0.15015 0.25768 0.0
O129 O 0.74297 0.23009 0.28383 0.0
O130 O 0.80367 0.30285 0.32288 0.0
O131 O 0.84244 0.2448 0.33106 0.0
O132 O 0.77874 0.19231 0.33306 0.0
O133 O 0.82882 0.15228 0.29435 0.0
O134 O 0.80373 0.37657 0.25754 0.0
O135 O 0.81823 0.29329 0.24419 0.0
O136 O 0.75412 0.2195 0.20766 0.0
O137 O 0.71259 0.27446 0.2013 0.0
O138 O 0.7788 0.32455 0.19362 0.0
O139 O 0.73146 0.3701 0.2281 0.0
C140 C 0.74208 0.20821 0.3228 0.0
C141 C 0.76517 0.08318 0.30919 0.0
C142 C 0.77611 0.01923 0.36639 0.0
C143 C 0.79331 0.05564 0.33335 0.0
C144 C 0.72871 1.00726 0.37266 0.0
C145 C 0.71704 0.0703 0.31433 0.0
C146 C 0.69883 0.03195 0.34566 0.0
C147 C 0.83435 0.27977 0.34468 0.0
C148 C 0.78774 0.12574 0.28022 0.0
C149 C 0.95256 0.22544 0.17422 0.0
C150 C 0.98067 0.25465 0.2023 0.0
C151 C 0.81723 0.31202 0.20457 0.0
C152 C 0.79382 0.42325 0.19035 0.0
C153 C 0.76505 0.41765 0.15168 0.0
C154 C 0.78391 0.42996 0.11265 0.0
C155 C 0.8326 0.45103 0.11263 0.0
C156 C 0.84223 0.44547 0.18963 0.0
C157 C 0.86133 0.4596 0.15087 0.0
C158 C 0.72047 0.23944 0.18793 0.0
C159 C 0.77498 0.39737 0.23085 0.0
H160 H 0.83051 0.06599 0.32961 0.0
H161 H 0.71561 0.98054 0.39923 0.0
H162 H 0.69385 0.09024 0.29498 0.0
H163 H 0.66214 0.02286 0.35036 0.0
H164 H 0.72749 0.40286 0.15236 0.0
H165 H 0.84827 0.4618 0.0831 0.0
H166 H 0.86556 0.45004 0.21912 0.0
H167 H 0.8987 0.47629 0.15058 0.0
Eu168 Eu 0.73812 0.73799 0.30252 0.0
C169 C 0.88709 0.89409 0.20958 0.0
C170 C 0.84087 0.92946 0.14913 0.0
C171 C 0.91466 0.97752 0.18004 0.0
C172 C 0.84672 0.89017 0.18044 0.0
C173 C 0.9222 0.93751 0.20881 0.0
C174 C 0.87408 0.97349 0.15017 0.0
C175 C 0.97244 0.89732 0.26045 0.0
N176 N 0.89401 0.85448 0.23598 0.0
C177 C 0.93685 0.85504 0.25965 0.0
C178 C 0.96479 0.93893 0.2355 0.0
Eu179 Eu 0.83015 0.78516 0.23556 0.0
N180 N 0.8158 0.84694 0.17973 0.0
C181 C 0.78195 0.83959 0.14551 0.0
C182 C 0.80345 0.92276 0.11617 0.0
C183 C 0.77469 0.87737 0.11369 0.0
H184 H 0.94316 0.82316 0.27919 0.0
H185 H 0.74674 0.87146 0.08742 0.0
H186 H 0.86977 1.00416 0.1268 0.0
H187 H 1.00575 0.89776 0.28027 0.0
H188 H 0.75956 0.80486 0.14284 0.0
H189 H 0.82932 0.66414 0.45348 0.0
H190 H 0.79782 0.95194 0.09144 0.0
H191 H 0.62818 0.68946 0.25566 0.0
H192 H 0.81339 0.72665 0.39561 0.0
H193 H 0.57084 0.61158 0.25781 0.0
H194 H 0.94095 0.01128 0.17935 0.0
H195 H 0.78093 0.58199 0.45428 0.0
H196 H 0.71134 0.52497 0.42205 0.0
H197 H 0.9926 0.97158 0.23584 0.0
H198 H 0.64095 0.51067 0.36903 0.0
N199 N 0.75665 0.68102 0.36171 0.0
C200 C 0.79152 0.69134 0.39474 0.0
C201 C 0.77357 0.60944 0.42835 0.0
C202 C 0.73591 0.59938 0.39614 0.0
C203 C 0.80084 0.65577 0.42809 0.0
C204 C 0.72775 0.63644 0.36305 0.0
H205 H 0.58789 0.54279 0.30846 0.0
N206 N 0.67878 0.66518 0.30358 0.0
C207 C 0.60372 0.61571 0.27895 0.0
C208 C 0.68773 0.62831 0.33324 0.0
C209 C 0.63652 0.65992 0.27782 0.0
C210 C 0.61353 0.57696 0.30751 0.0
C211 C 0.65545 0.58306 0.33567 0.0
O212 O 0.68712 0.72703 0.34667 0.0
O213 O 0.75988 0.79708 0.24469 0.0
O214 O 0.85205 0.82695 0.29037 0.0
O215 O 0.79882 0.7844 0.33881 0.0
O216 O 0.68963 0.76077 0.24326 0.0
O217 O 0.72069 0.7975 0.31695 0.0
O218 O 0.87828 0.79223 0.18938 0.0
O219 O 0.81129 0.73394 0.29692 0.0
O220 O 0.72689 0.68851 0.25635 0.0
O221 O 0.76398 0.74206 0.20185 0.0
O222 O 0.87932 0.74981 0.28568 0.0
O223 O 0.83248 0.72432 0.2108 0.0
C224 C 0.71857 0.79569 0.22237 0.0
C225 C 0.69795 0.78819 0.38514 0.0
C226 C 0.68014 0.83869 0.42564 0.0
C227 C 0.67735 0.82352 0.38678 0.0
C228 C 0.70491 0.81809 0.46259 0.0
C229 C 0.72273 0.76876 0.42231 0.0
C230 C 0.72627 0.78383 0.46074 0.0
C231 C 0.83614 0.81871 0.32782 0.0
C232 C 0.69253 0.77163 0.34453 0.0
C233 C 0.6651 0.54571 0.367 0.0
C234 C 0.70521 0.55385 0.39717 0.0
C235 C 0.85072 0.723 0.31196 0.0
C236 C 0.90516 0.72524 0.192 0.0
C237 C 0.90446 0.6954 0.16365 0.0
C238 C 0.94112 0.6735 0.16856 0.0
C239 C 0.97689 0.68061 0.20338 0.0
C240 C 0.94272 0.733 0.22488 0.0
C241 C 0.97782 0.71031 0.23085 0.0
C242 C 0.73474 0.70136 0.21614 0.0
C243 C 0.86649 0.74746 0.18803 0.0
H244 H 0.65919 0.83899 0.35764 0.0
H245 H 0.70709 0.82754 0.49335 0.0
H246 H 0.73906 0.74177 0.42171 0.0
H247 H 0.74511 0.76839 0.48942 0.0
H248 H 0.87616 0.69016 0.13754 0.0
H249 H 1.00468 0.66334 0.20946 0.0
H250 H 0.94505 0.75658 0.24618 0.0
H251 H 1.00614 0.71594 0.25687 0.0
Eu252 Eu 0.30936 0.71361 0.27382 0.0
C253 C 0.2282 0.87395 0.16234 0.0
C254 C 0.29795 0.93584 0.14299 0.0
C255 C 0.22418 0.93017 0.09587 0.0
C256 C 0.27553 0.89589 0.1713 0.0
C257 C 0.20173 0.89125 0.12485 0.0
C258 C 0.27226 0.95237 0.10488 0.0
C259 C 0.13242 0.83188 0.14854 0.0
N260 N 0.20763 0.8366 0.19106 0.0
C261 C 0.16014 0.81614 0.1853 0.0
C262 C 0.15336 0.86937 0.11799 0.0
Eu263 Eu 0.25722 0.81037 0.25141 0.0
N264 N 0.29933 0.8792 0.20844 0.0
C265 C 0.34447 0.90343 0.22105 0.0
C266 C 0.34534 0.9584 0.15417 0.0
C267 C 0.36848 0.94271 0.19373 0.0
H268 H 0.14377 0.78694 0.20866 0.0
H269 H 0.4049 0.96059 0.20306 0.0
H270 H 0.28903 0.98284 0.08263 0.0
H271 H 0.09495 0.81506 0.14379 0.0
H272 H 0.36293 0.89154 0.25139 0.0
H273 H 0.16942 0.561 0.33373 0.0
H274 H 0.3641 0.98818 0.13275 0.0
H275 H 0.4254 0.738 0.30931 0.0
H276 H 0.20765 0.62685 0.28013 0.0
H277 H 0.47771 0.71605 0.37418 0.0
H278 H 0.20453 0.94379 0.06675 0.0
H279 H 0.21216 0.5438 0.40574 0.0
H280 H 0.28831 0.55837 0.45494 0.0
H281 H 0.1318 0.88159 0.08958 0.0
H282 H 0.37276 0.59983 0.46567 0.0
N283 N 0.27109 0.64716 0.32167 0.0
C284 C 0.22689 0.61935 0.31128 0.0
C285 C 0.22931 0.57228 0.3822 0.0
C286 C 0.27606 0.5983 0.39136 0.0
C287 C 0.20508 0.58193 0.34156 0.0
C288 C 0.29641 0.63578 0.35982 0.0
H289 H 0.44394 0.65784 0.43528 0.0
N290 N 0.36262 0.69367 0.33404 0.0
C291 C 0.44004 0.70017 0.37247 0.0
C292 C 0.34376 0.6594 0.36608 0.0
C293 C 0.41035 0.71254 0.33578 0.0
C294 C 0.42083 0.66737 0.40693 0.0
C295 C 0.37223 0.64589 0.40375 0.0
O296 O 0.35597 0.70453 0.23385 0.0
O297 O 0.30723 0.78212 0.22837 0.0
O298 O 0.2302 0.77175 0.19462 0.0
O299 O 0.23972 0.69874 0.22922 0.0
O300 O 0.37282 0.77258 0.25009 0.0
O301 O 0.29584 0.64723 0.25093 0.0
O302 O 0.20656 0.83346 0.27618 0.0
O303 O 0.25606 0.74029 0.29504 0.0
O304 O 0.3379 0.75068 0.33071 0.0
O305 O 0.32397 0.82294 0.29999 0.0
O306 O 0.19207 0.75416 0.27382 0.0
O307 O 0.28156 0.8618 0.2937 0.0
C308 C 0.35093 0.80058 0.22439 0.0
C309 C 0.3638 0.62867 0.2404 0.0
C310 C 0.41115 0.59115 0.21354 0.0
C311 C 0.37725 0.61639 0.206 0.0
C312 C 0.43157 0.57881 0.25564 0.0
C313 C 0.38264 0.61337 0.28234 0.0
C314 C 0.41661 0.58892 0.28985 0.0
C315 C 0.22106 0.72575 0.19679 0.0
C316 C 0.33372 0.66085 0.2321 0.0
C317 C 0.35159 0.61032 0.43626 0.0
C318 C 0.3035 0.58676 0.43017 0.0
C319 C 0.21179 0.72366 0.29806 0.0
C320 C 0.23273 0.90696 0.30062 0.0
C321 C 0.2284 0.91454 0.34073 0.0
C322 C 0.21891 0.95592 0.3452 0.0
C323 C 0.21727 0.99104 0.30845 0.0
C324 C 0.23094 0.9423 0.2646 0.0
C325 C 0.22375 0.98441 0.26872 0.0
C326 C 0.34297 0.79521 0.33141 0.0
C327 C 0.23937 0.86168 0.29808 0.0
H328 H 0.36241 0.62746 0.1735 0.0
H329 H 0.45845 0.56041 0.26209 0.0
H330 H 0.37179 0.62096 0.30926 0.0
H331 H 0.43167 0.57812 0.32227 0.0
H332 H 0.23194 0.88742 0.36833 0.0
H333 H 0.2095 0.02309 0.30982 0.0
H334 H 0.23496 0.93727 0.23353 0.0
H335 H 0.22215 0.01168 0.24082 0.0
Eu336 Eu 0.31259 0.71229 0.77217 0.0
C337 C 0.15253 0.7892 0.77555 0.0
C338 C 0.11193 0.81234 0.70576 0.0
C339 C 0.06809 0.77996 0.76681 0.0
C340 C 0.15372 0.80742 0.73241 0.0
C341 C 0.10992 0.77664 0.79345 0.0
C342 C 0.06908 0.79768 0.72302 0.0
C343 C 0.15394 0.76403 0.86332 0.0
N344 N 0.19352 0.78674 0.80058 0.0
C345 C 0.19519 0.77707 0.84409 0.0
C346 C 0.11091 0.76282 0.83782 0.0
Eu347 Eu 0.26174 0.80525 0.766 0.0
N348 N 0.19596 0.82192 0.71682 0.0
C349 C 0.1986 0.84405 0.67498 0.0
C350 C 0.11445 0.83255 0.66265 0.0
C351 C 0.15798 0.84862 0.64731 0.0
H352 H 0.2283 0.77899 0.86425 0.0
H353 H 0.16032 0.86467 0.61404 0.0
H354 H 0.03669 0.80095 0.70295 0.0
H355 H 0.15544 0.7551 0.8978 0.0
H356 H 0.23155 0.8578 0.66194 0.0
H357 H 0.49843 0.80131 0.75329 0.0
H358 H 0.08315 0.8367 0.64114 0.0
H359 H 0.24154 0.62209 0.72663 0.0
H360 H 0.42735 0.77633 0.78859 0.0
H361 H 0.2382 0.58264 0.6667 0.0
H362 H 1.03501 0.77005 0.77994 0.0
H363 H 0.49799 0.77402 0.68678 0.0
H364 H 0.45479 0.72293 0.63284 0.0
H365 H 0.07899 0.75291 0.85278 0.0
H366 H 0.3841 0.66299 0.60943 0.0
N367 N 0.38499 0.73548 0.74232 0.0
C368 C 0.42572 0.76381 0.75967 0.0
C369 C 0.46623 0.76281 0.70214 0.0
C370 C 0.42534 0.73181 0.68573 0.0
C371 C 0.46664 0.77815 0.73973 0.0
C372 C 0.3849 0.71837 0.70697 0.0
H373 H 0.30365 0.60974 0.62242 0.0
N374 N 0.30799 0.67139 0.71607 0.0
C375 C 0.26845 0.61149 0.67379 0.0
C376 C 0.34522 0.685 0.69359 0.0
C377 C 0.27057 0.63376 0.70779 0.0
C378 C 0.30536 0.62702 0.64878 0.0
C379 C 0.34472 0.66368 0.65892 0.0
O380 O 0.30365 0.63742 0.7967 0.0
O381 O 0.26177 0.73344 0.80236 0.0
O382 O 0.29619 0.78157 0.833 0.0
O383 O 0.3582 0.76367 0.81684 0.0
O384 O 0.23638 0.67015 0.78364 0.0
O385 O 0.35433 0.68788 0.83102 0.0
O386 O 0.3197 0.86966 0.76953 0.0
O387 O 0.32451 0.78967 0.74913 0.0
O388 O 0.26861 0.72148 0.70707 0.0
O389 O 0.21546 0.75836 0.71748 0.0
O390 O 0.29344 0.83355 0.70312 0.0
O391 O 0.25744 0.86054 0.79695 0.0
C392 C 0.22655 0.69725 0.80383 0.0
C393 C 0.30429 0.62306 0.87137 0.0
C394 C 0.30639 0.61325 0.94883 0.0
C395 C 0.32778 0.63306 0.91099 0.0
C396 C 0.25863 0.58701 0.94507 0.0
C397 C 0.25767 0.59409 0.86889 0.0
C398 C 0.23485 0.57692 0.90547 0.0
C399 C 0.34098 0.78208 0.84153 0.0
C400 C 0.32861 0.64447 0.83297 0.0
C401 C 0.384 0.67855 0.63643 0.0
C402 C 0.42423 0.71266 0.64976 0.0
C403 C 0.32667 0.8132 0.71094 0.0
C404 C 0.29996 0.93735 0.77228 0.0
C405 C 0.27339 0.94743 0.73336 0.0
C406 C 0.26888 0.99277 0.71756 0.0
C407 C 0.2926 0.02903 0.74063 0.0
C408 C 0.32448 0.97344 0.79527 0.0
C409 C 0.32107 0.0194 0.77917 0.0
C410 C 0.22854 0.73307 0.69565 0.0
C411 C 0.29861 0.88834 0.78944 0.0
H412 H 0.36422 0.65385 0.91203 0.0
H413 H 0.24033 0.572 0.97301 0.0
H414 H 0.23841 0.58543 0.83868 0.0
H415 H 0.19866 0.55538 0.9032 0.0
H416 H 0.25367 0.91891 0.71657 0.0
H417 H 0.28858 0.06419 0.72921 0.0
H418 H 0.34529 0.96594 0.82578 0.0
H419 H 0.33947 0.04723 0.79707 0.0
Eu420 Eu 0.2378 0.23489 0.79323 0.0
C421 C 0.37867 0.39059 0.69423 0.0
C422 C 0.32916 0.41748 0.63138 0.0
C423 C 0.39999 0.4726 0.65863 0.0
C424 C 0.33821 0.3813 0.66507 0.0
C425 C 0.41056 0.43608 0.69048 0.0
C426 C 0.3594 0.46332 0.62916 0.0
C427 C 0.46373 0.40521 0.74697 0.0
N428 N 0.38851 0.35457 0.72447 0.0
C429 C 0.43123 0.36076 0.74949 0.0
C430 C 0.45302 0.44323 0.71788 0.0
Eu431 Eu 0.3291 0.28183 0.72888 0.0
N432 N 0.30976 0.33641 0.66758 0.0
C433 C 0.27474 0.32488 0.63492 0.0
C434 C 0.29111 0.40623 0.5998 0.0
C435 C 0.26447 0.35958 0.6011 0.0
H436 H 0.44017 0.33177 0.77208 0.0
H437 H 0.23579 0.35026 0.57612 0.0
H438 H 0.35256 0.49154 0.60384 0.0
H439 H 0.497 0.41013 0.76754 0.0
H440 H 0.25331 0.2893 0.63471 0.0
H441 H 0.32906 0.16358 0.94577 0.0
H442 H 0.28305 0.43299 0.57347 0.0
H443 H 0.12468 0.18739 0.75444 0.0
H444 H 0.3118 0.22535 0.88761 0.0
H445 H 0.0677 0.10906 0.75667 0.0
H446 H 0.4238 0.50783 0.65563 0.0
H447 H 0.28323 0.08066 0.94608 0.0
H448 H 0.21492 0.02239 0.91353 0.0
H449 H 0.47837 0.47762 0.71592 0.0
H450 H 0.14351 1.00737 0.86167 0.0
N451 N 0.25685 0.1787 0.85334 0.0
C452 C 0.29095 0.18975 0.88673 0.0
C453 C 0.27525 0.10782 0.92015 0.0
C454 C 0.23795 0.097 0.88782 0.0
C455 C 0.30102 0.15458 0.92019 0.0
C456 C 0.22892 0.13378 0.85483 0.0
H457 H 0.08772 0.03961 0.80381 0.0
N458 N 0.17803 0.16231 0.79762 0.0
C459 C 0.10171 0.113 0.77597 0.0
C460 C 0.18838 0.1253 0.82593 0.0
C461 C 0.13428 0.15736 0.77463 0.0
C462 C 0.11321 0.07389 0.80251 0.0
C463 C 0.15637 0.07992 0.82886 0.0
O464 O 0.18609 0.22646 0.83624 0.0
O465 O 0.25877 0.29387 0.73606 0.0
O466 O 0.34168 0.33232 0.77422 0.0
O467 O 0.29996 0.28199 0.82763 0.0
O468 O 0.18956 0.25411 0.7327 0.0
O469 O 0.22207 0.29586 0.80701 0.0
O470 O 0.38224 0.29132 0.6872 0.0
O471 O 0.30817 0.22279 0.78624 0.0
O472 O 0.22042 0.18845 0.74278 0.0
O473 O 0.27007 0.23419 0.69277 0.0
O474 O 0.37724 0.26279 0.7898 0.0
O475 O 0.34621 0.22134 0.71617 0.0
C476 C 0.218 0.29025 0.71262 0.0
C477 C 0.19882 0.28808 0.87486 0.0
C478 C 0.18506 0.33937 0.91715 0.0
C479 C 0.17716 0.32222 0.87847 0.0
C480 C 0.21424 0.32154 0.95194 0.0
C481 C 0.22726 0.27074 0.91039 0.0
C482 C 0.23493 0.28742 0.94858 0.0
C483 C 0.33044 0.32177 0.81336 0.0
C484 C 0.19271 0.2713 0.834 0.0
C485 C 0.16733 0.04257 0.85937 0.0
C486 C 0.20802 0.05112 0.88887 0.0
C487 C 0.34894 0.22644 0.80977 0.0
C488 C 0.37172 0.22955 0.64945 0.0
C489 C 0.39256 0.19407 0.64863 0.0
C490 C 0.38938 0.17769 0.61031 0.0
C491 C 0.36442 0.19742 0.57303 0.0
C492 C 0.34689 0.24824 0.61191 0.0
C493 C 0.3432 0.23209 0.57401 0.0
C494 C 0.23566 0.1973 0.7051 0.0
C495 C 0.37602 0.24647 0.68972 0.0
H496 H 0.15516 0.33596 0.85123 0.0
H497 H 0.22081 0.33391 0.98202 0.0
H498 H 0.24382 0.24441 0.90855 0.0
H499 H 0.25719 0.27394 0.97569 0.0
H500 H 0.41104 0.17925 0.67792 0.0
H501 H 0.36204 0.18691 0.54269 0.0
H502 H 0.33041 0.27531 0.61188 0.0
H503 H 0.3242 0.24688 0.54509 0.0
Eu504 Eu 0.80974 0.21225 0.78 0.0
C505 C 0.72952 0.36694 0.66194 0.0
C506 C 0.79876 0.42792 0.63996 0.0
C507 C 0.72531 0.41736 0.59204 0.0
C508 C 0.77668 0.39001 0.67028 0.0
C509 C 0.70295 0.3811 0.62319 0.0
C510 C 0.77323 0.44059 0.60034 0.0
C511 C 0.63351 0.3252 0.65035 0.0
N512 N 0.70907 0.33205 0.69268 0.0
C513 C 0.66138 0.31234 0.6882 0.0
C514 C 0.65449 0.35924 0.61742 0.0
Eu515 Eu 0.75903 0.31048 0.75497 0.0
N516 N 0.8002 0.37729 0.70905 0.0
C517 C 0.84426 0.40425 0.72119 0.0
C518 C 0.84541 0.45291 0.65091 0.0
C519 C 0.86783 0.44193 0.69212 0.0
H520 H 0.64511 0.28561 0.71341 0.0
H521 H 0.90348 0.462 0.70132 0.0
H522 H 0.78982 0.46926 0.57647 0.0
H523 H 0.59594 0.30868 0.64653 0.0
H524 H 0.86225 0.39582 0.75271 0.0
H525 H 0.66879 0.06147 0.84054 0.0
H526 H 0.86392 0.48131 0.62814 0.0
H527 H 0.92567 0.23868 0.81712 0.0
H528 H 0.70729 0.12712 0.78685 0.0
H529 H 0.97726 0.21841 0.8828 0.0
H530 H 0.70564 0.42842 0.56187 0.0
H531 H 0.71211 0.04331 0.91243 0.0
H532 H 0.788 0.05819 0.96178 0.0
H533 H 0.63283 0.36915 0.58814 0.0
H534 H 0.87238 0.09982 0.97279 0.0
N535 N 0.7717 0.14547 0.82767 0.0
C536 C 0.7269 0.11872 0.81766 0.0
C537 C 0.72937 0.07129 0.88851 0.0
C538 C 0.77638 0.09667 0.8974 0.0
C539 C 0.70489 0.08153 0.84805 0.0
C540 C 0.79706 0.13344 0.86556 0.0
H541 H 0.94349 0.15882 0.94313 0.0
N542 N 0.86304 0.19099 0.83976 0.0
C543 C 0.93987 0.20092 0.88019 0.0
C544 C 0.84428 0.15686 0.87179 0.0
C545 C 0.91048 0.21215 0.84287 0.0
C546 C 0.92067 0.16732 0.91419 0.0
C547 C 0.8724 0.14447 0.91013 0.0
O548 O 0.85828 0.19086 0.7508 0.0
O549 O 0.81076 0.28161 0.73454 0.0
O550 O 0.7332 0.27181 0.69873 0.0
O551 O 0.74065 0.19859 0.73446 0.0
O552 O 0.87459 0.26754 0.75621 0.0
O553 O 0.78355 0.15554 0.74315 0.0
O554 O 0.77931 0.36826 0.79075 0.0
O555 O 0.75973 0.24233 0.80091 0.0
O556 O 0.83615 0.25131 0.83635 0.0
O557 O 0.8278 0.32451 0.80098 0.0
O558 O 0.69505 0.25382 0.78119 0.0
O559 O 0.70574 0.3329 0.77597 0.0
C560 C 0.85494 0.29777 0.73151 0.0
C561 C 0.83459 0.11496 0.73134 0.0
C562 C 0.85177 0.06751 0.68729 0.0
C563 C 0.8401 0.10789 0.69135 0.0
C564 C 0.85534 0.03315 0.72427 0.0
C565 C 0.83837 0.08042 0.76763 0.0
C566 C 0.84837 0.03955 0.76389 0.0
C567 C 0.72486 0.22615 0.70064 0.0
C568 C 0.8248 0.15883 0.73365 0.0
C569 C 0.85154 0.10943 0.94286 0.0
C570 C 0.8035 0.0858 0.93662 0.0
C571 C 0.71635 0.22498 0.80611 0.0
C572 C 0.72834 0.36026 0.84112 0.0
C573 C 0.70655 0.39101 0.85079 0.0
C574 C 0.69569 0.38573 0.89251 0.0
C575 C 0.70771 0.34982 0.92446 0.0
C576 C 0.74011 0.32475 0.87349 0.0
C577 C 0.72999 0.31977 0.91498 0.0
C578 C 0.84576 0.29735 0.83383 0.0
C579 C 0.73629 0.36355 0.79684 0.0
H580 H 0.83576 0.13449 0.66346 0.0
H581 H 0.86517 1.00204 0.72312 0.0
H582 H 0.83383 0.08516 0.79865 0.0
H583 H 0.85188 0.01316 0.79197 0.0
H584 H 0.69684 0.41803 0.82568 0.0
H585 H 0.70001 0.34514 0.95685 0.0
H586 H 0.75662 0.3006 0.86655 0.0
H587 H 0.73905 0.29222 0.93979 0.0
Eu588 Eu 0.76995 0.71513 0.73339 0.0
C589 C 0.90134 0.80424 0.85737 0.0
C590 C 0.88509 0.74697 0.92254 0.0
C591 C 0.96577 0.79081 0.91234 0.0
C592 C 0.86912 0.77049 0.88211 0.0
C593 C 0.94996 0.81527 0.8729 0.0
C594 C 0.93344 0.75687 0.93713 0.0
C595 C 0.964 0.87798 0.81203 0.0
N596 N 0.88531 0.82782 0.81931 0.0
C597 C 0.91568 0.86644 0.79829 0.0
C598 C 0.98137 0.85167 0.84904 0.0
Eu599 Eu 0.80221 0.80337 0.79819 0.0
N600 N 0.82239 0.76064 0.86706 0.0
C601 C 0.78998 0.72943 0.89201 0.0
C602 C 0.85206 0.71391 0.94723 0.0
C603 C 0.80432 0.70543 0.93203 0.0
H604 H 0.90311 0.88967 0.77134 0.0
H605 H 0.77841 0.68039 0.9512 0.0
H606 H 0.94618 0.7387 0.96777 0.0
H607 H 0.98769 0.90786 0.79451 0.0
H608 H 0.7528 0.72241 0.88185 0.0
H609 H 0.74338 0.83229 0.58125 0.0
H610 H 0.86301 0.69507 0.97823 0.0
H611 H 0.70749 0.6045 0.76634 0.0
H612 H 0.78706 0.80468 0.64962 0.0
H613 H 0.63059 0.54953 0.74585 0.0
H614 H 1.00295 0.79859 0.92439 0.0
H615 H 0.66186 0.78671 0.55995 0.0
H616 H 0.59472 0.71431 0.5751 0.0
H617 H 1.01883 0.86105 0.85989 0.0
H618 H 0.56392 0.63738 0.61996 0.0
N619 N 0.73057 0.74485 0.66761 0.0
C620 C 0.75158 0.78453 0.64081 0.0
C621 C 0.68089 0.77449 0.59007 0.0
C622 C 0.66051 0.73245 0.61659 0.0
C623 C 0.72692 0.80025 0.60194 0.0
C624 C 0.68675 0.71814 0.65555 0.0
H625 H 0.57739 0.57527 0.68319 0.0
N626 N 0.69683 0.66086 0.71659 0.0
C627 C 0.6409 0.58477 0.72746 0.0
C628 C 0.66933 0.67486 0.68081 0.0
C629 C 0.68433 0.61586 0.73894 0.0
C630 C 0.61092 0.5995 0.69214 0.0
C631 C 0.62533 0.6447 0.66783 0.0
O632 O 0.79066 0.65185 0.73437 0.0
O633 O 0.82313 0.73826 0.79104 0.0
O634 O 0.84076 0.83603 0.74003 0.0
O635 O 0.83713 0.7692 0.71522 0.0
O636 O 0.78426 0.66833 0.79737 0.0
O637 O 0.80369 0.70964 0.68105 0.0
O638 O 0.8253 0.87468 0.81188 0.0
O639 O 0.75671 0.78409 0.73699 0.0
O640 O 0.70666 0.69809 0.76851 0.0
O641 O 0.73061 0.7545 0.81228 0.0
O642 O 0.76071 0.8482 0.74934 0.0
O643 O 0.76548 0.82257 0.84117 0.0
C644 C 0.81935 0.69729 0.81568 0.0
C645 C 0.79865 0.63397 0.66915 0.0
C646 C 0.83014 0.59083 0.63179 0.0
C647 C 0.83711 0.62316 0.65904 0.0
C648 C 0.78379 0.56913 0.61519 0.0
C649 C 0.75283 0.61232 0.65202 0.0
C650 C 0.74552 0.57988 0.62527 0.0
C651 C 0.85516 0.81427 0.7164 0.0
C652 C 0.80759 0.66759 0.69798 0.0
C653 C 0.59802 0.65986 0.63023 0.0
C654 C 0.61557 0.70366 0.60467 0.0
C655 C 0.73949 0.8202 0.72278 0.0
C656 C 0.78777 0.90157 0.8581 0.0
C657 C 0.74515 0.89716 0.87316 0.0
C658 C 0.74104 0.93287 0.89211 0.0
C659 C 0.77969 0.97232 0.89639 0.0
C660 C 0.82594 0.94148 0.86273 0.0
C661 C 0.82179 0.9767 0.88167 0.0
C662 C 0.69962 0.71792 0.79814 0.0
C663 C 0.79256 0.86575 0.83646 0.0
H664 H 0.87253 0.64062 0.67186 0.0
H665 H 0.77703 0.54366 0.59455 0.0
H666 H 0.72285 0.62036 0.6593 0.0
H667 H 0.71007 0.56302 0.61226 0.0
H668 H 0.71549 0.8664 0.87013 0.0
H669 H 0.77747 0.99922 0.91208 0.0
H670 H 0.8591 0.94546 0.85171 0.0
H671 H 0.85139 1.00733 0.88523 0.0
Fe672 Fe 1.02746 0.11386 0.5059 0.0
O673 O 1.03092 0.04838 0.5308 0.0
Fe674 Fe 0.08887 0.03051 0.519 0.0
Fe675 Fe 0.98179 0.99235 0.51296 0.0
O676 O 1.03508 0.05088 0.52843 0.0
O677 O 0.03977 0.97433 0.50164 0.0
O678 O 0.03558 0.97216 0.50318 0.0
Fe679 Fe 0.04438 0.90952 0.52675 0.0
C680 C 0.93907 0.0572 0.54732 0.0
O681 O 0.97133 0.09438 0.45963 0.0
O682 O 0.98193 0.02878 0.45223 0.0
O683 O 0.09557 0.93029 0.48736 0.0
O684 O 0.13969 1.00217 0.50457 0.0
O685 O 0.08851 0.0652 0.45687 0.0
O686 O 0.07609 0.13182 0.46297 0.0
O687 O 0.93681 0.93234 0.48812 0.0
O688 O 0.98801 0.89184 0.48098 0.0
C689 C 0.09227 0.10871 0.44398 0.0
O690 O 0.09969 0.93015 0.57371 0.0
O691 O 0.08905 0.99657 0.58052 0.0
O692 O 0.97628 0.09304 0.5455 0.0
O693 O 0.9317 0.02072 0.52901 0.0
C694 C 0.9584 0.0582 0.44209 0.0
C695 C 0.94841 0.90288 0.47092 0.0
C696 C 0.97995 0.91433 0.58892 0.0
O697 O 0.98216 0.95728 0.57482 0.0
O698 O 0.99582 0.89097 0.56995 0.0
C699 C 0.13274 0.96604 0.48603 0.0
O700 O 0.13434 0.09034 0.54256 0.0
O701 O 0.0839 0.13047 0.55162 0.0
C702 C 0.10859 0.96406 0.59373 0.0
C703 C 0.12324 0.11904 0.56085 0.0
Fe704 Fe 0.53224 0.95469 0.02566 0.0
O705 O 0.57301 0.01537 0.04408 0.0
Fe706 Fe 0.42572 0.98688 0.9841 0.0
Fe707 Fe 0.64294 0.03556 0.04579 0.0
O708 O 0.49517 0.99915 0.98855 0.0
O709 O 0.49563 1.0063 0.98503 0.0
O710 O 0.57366 0.02242 0.04031 0.0
Fe711 Fe 0.5363 0.06671 1.00376 0.0
C712 C 0.62007 0.9326 0.09727 0.0
O713 O 0.57199 0.96538 0.9762 0.0
O714 O 0.64416 0.98764 1.01089 0.0
O715 O 0.48662 0.10397 0.96024 0.0
O716 O 0.42893 0.04467 0.93232 0.0
O717 O 0.42707 0.93518 0.95254 0.0
O718 O 0.48235 0.89933 0.99518 0.0
O719 O 0.64917 0.08804 0.98995 0.0
O720 O 0.57789 0.08448 0.95303 0.0
C721 C 0.44705 0.90104 0.9642 0.0
O722 O 0.49787 0.05393 0.05404 0.0
O723 O 0.4252 0.03439 0.02028 0.0
O724 O 0.58176 0.91778 0.07013 0.0
O725 O 0.63947 0.97755 0.09777 0.0
C726 C 0.61583 0.96846 0.98157 0.0
C727 C 0.62314 0.09896 0.95525 0.0
C728 C 0.62058 0.12163 0.06452 0.0
O729 O 0.6409 0.08775 0.07673 0.0
O730 O 0.58519 0.12246 0.03371 0.0
C731 C 0.44839 0.08946 0.93302 0.0
O732 O 0.41923 0.93407 0.03946 0.0
O733 O 0.49044 0.93805 0.07632 0.0
C734 C 0.45414 0.04998 0.05107 0.0
C735 C 0.4452 0.92384 0.07433 0.0
Fe736 Fe 0.03914 0.5663 1.00426 0.0
O737 O 0.99543 0.50609 0.98801 0.0
Fe738 Fe 0.14451 0.53284 0.04198 0.0
Fe739 Fe 0.92627 0.48902 0.99109 0.0
O740 O 0.0758 0.52052 0.03914 0.0
O741 O 0.07498 0.51298 0.04419 0.0
O742 O 0.99505 0.49841 0.9924 0.0
Fe743 Fe 1.03167 0.45224 0.02792 0.0
C744 C 0.96315 0.55746 0.05558 0.0
O745 O 0.98942 0.60548 0.96288 0.0
O746 O 0.92835 0.54599 0.93947 0.0
O747 O 0.06819 0.46006 0.97666 0.0
O748 O 0.14282 0.48589 1.0046 0.0
O749 O 0.14901 0.58652 0.98729 0.0
O750 O 0.07718 0.58126 0.95141 0.0
O751 O 0.9248 0.43761 0.95803 0.0
O752 O 0.97913 0.3986 0.99801 0.0
C753 C 0.12227 0.59588 0.95268 0.0
O754 O 0.08179 0.41418 0.07054 0.0
O755 O 0.14277 0.47475 0.09324 0.0
O756 O 1.00493 0.55585 0.05634 0.0
O757 O 0.92983 0.53795 0.02924 0.0
C758 C 0.94904 0.59071 0.93825 0.0
C759 C 0.94482 0.40348 0.96678 0.0
C760 C 0.94662 0.42228 0.07823 0.0
O761 O 0.921 0.43561 0.04454 0.0
O762 O 0.99195 0.43611 0.08055 0.0
C763 C 0.11197 0.46401 0.97819 0.0
O764 O 0.14417 0.58292 0.0755 0.0
O765 O 0.09074 0.62107 0.03337 0.0
C766 C 0.12232 0.4297 0.0949 0.0
C767 C 0.12401 0.61685 0.06561 0.0
Fe768 Fe 0.51757 0.51977 0.96577 0.0
O769 O 0.56683 0.55285 1.00708 0.0
Fe770 Fe 0.43871 0.44025 0.03197 0.0
Fe771 Fe 0.63196 0.58207 0.99642 0.0
O772 O 0.50271 0.46987 1.01746 0.0
O773 O 0.50424 0.46872 0.02172 0.0
O774 O 0.56811 0.55197 1.01146 0.0
Fe775 Fe 0.5536 0.50169 0.06317 0.0
C776 C 0.60332 0.50398 0.94263 0.0
O777 O 0.5421 0.57643 0.91613 0.0
O778 O 0.60206 0.62768 0.95136 0.0
O779 O 0.50924 0.53471 0.07693 0.0
O780 O 0.44351 0.47543 0.0817 0.0
O781 O 0.41361 0.49081 0.9908 0.0
O782 O 0.47354 0.55401 0.9791 0.0
O783 O 0.63678 0.61108 0.04913 0.0
O784 O 0.60793 0.54542 0.09931 0.0
C785 C 0.43261 0.53432 0.99031 0.0
O786 O 0.52834 0.44403 0.11249 0.0
O787 O 0.46882 0.3942 0.07546 0.0
O788 O 0.56216 0.48596 0.95377 0.0
O789 O 0.62767 0.54545 0.94776 0.0
C790 C 0.57398 0.61673 0.91742 0.0
C791 C 0.63144 0.58946 0.08829 0.0
C792 C 0.64062 0.48874 0.04059 0.0
O793 O 0.65788 0.53275 0.03836 0.0
O794 O 0.59904 0.46833 0.05025 0.0
C795 C 0.46943 0.51502 0.09052 0.0
O796 O 0.43302 0.41155 0.97915 0.0
O797 O 0.46277 0.47681 0.9293 0.0
C798 C 0.49561 0.40423 0.11021 0.0
C799 C 0.43779 0.43335 0.9401 0.0
Fe800 Fe 1.03021 0.45316 0.52551 0.0
O801 O 0.06571 0.51052 0.55071 0.0
Fe802 Fe 0.99325 0.5083 0.41942 0.0
Fe803 Fe 0.07419 0.50988 0.61202 0.0
O804 O 1.00015 0.50092 0.48362 0.0
O805 O 1.00332 0.50846 0.48042 0.0
O806 O 0.06872 0.51833 0.54752 0.0
Fe807 Fe 0.03778 0.56581 0.50589 0.0
C808 C 0.98289 0.42671 0.60748 0.0
O809 O 0.07331 0.41289 0.57413 0.0
O810 O 0.11958 0.46694 0.61544 0.0
O811 O 0.09185 0.58837 0.46443 0.0
O812 O 0.04569 0.57098 0.40476 0.0
O813 O 0.04258 0.47197 0.42135 0.0
O814 O 0.08243 0.46923 0.48718 0.0
O815 O 0.12081 0.57635 0.5989 0.0
O816 O 0.07935 0.61786 0.54427 0.0
C817 C 0.07878 0.46696 0.44781 0.0
O818 O 0.99397 0.60579 0.45782 0.0
O819 O 0.94844 0.55178 0.41623 0.0
O820 O 0.9759 0.4325 0.56635 0.0
O821 O 1.02292 0.44657 0.62607 0.0
C822 C 0.10939 0.42597 0.6038 0.0
C823 C 0.11191 0.6152 0.57758 0.0
C824 C 0.98778 0.54991 0.58281 0.0
O825 O 1.02358 0.54502 0.60991 0.0
O826 O 0.98519 0.54773 0.54365 0.0
C827 C 0.08495 0.59304 0.42325 0.0
O828 O 0.94581 0.44222 0.43377 0.0
O829 O 0.98709 0.40067 0.48853 0.0
C830 C 0.95803 0.59251 0.42813 0.0
C831 C 0.95353 0.4032 0.45616 0.0
Fe832 Fe 0.5301 0.9522 0.52539 0.0
O833 O 0.56546 1.00808 0.55237 0.0
Fe834 Fe 0.49575 0.01059 0.42036 0.0
Fe835 Fe 0.574 1.00666 0.61366 0.0
O836 O 0.50125 1.00176 0.48466 0.0
O837 O 0.50373 1.00944 0.48168 0.0
O838 O 0.56803 0.01581 0.54932 0.0
Fe839 Fe 0.53903 0.06536 0.50872 0.0
C840 C 0.48086 0.92434 0.60676 0.0
O841 O 0.57164 0.90921 0.57304 0.0
O842 O 0.61645 0.96119 0.61669 0.0
O843 O 0.5934 0.08756 0.46845 0.0
O844 O 0.5508 0.07133 0.40701 0.0
O845 O 0.54136 0.96989 0.42273 0.0
O846 O 0.58274 0.96962 0.4874 0.0
O847 O 0.62353 0.07038 0.59997 0.0
O848 O 0.58283 0.11522 0.54785 0.0
C849 C 0.57639 0.96204 0.44941 0.0
O850 O 0.49714 0.10795 0.46083 0.0
O851 O 0.45322 0.05598 0.41677 0.0
O852 O 0.47584 0.93031 0.56564 0.0
O853 O 0.51906 0.94575 0.62708 0.0
C854 C 0.6068 0.92114 0.60373 0.0
C855 C 0.61661 0.11035 0.57953 0.0
C856 C 0.49322 0.05522 0.58536 0.0
O857 O 0.52838 0.04718 0.61176 0.0
O858 O 0.48656 0.04811 0.54712 0.0
C859 C 0.58872 0.09316 0.42737 0.0
O860 O 0.446 0.94717 0.43389 0.0
O861 O 0.48634 0.90227 0.48625 0.0
C862 C 0.46235 0.09587 0.42982 0.0
C863 C 0.45268 0.90719 0.45448 0.0
C864 C 0.17278 0.20742 0.37514 0.0
C865 C 0.18638 0.18286 0.35002 0.0
H866 H 0.13143 0.20354 0.42362 0.0
C867 C 0.16667 0.13403 0.35402 0.0
H868 H 0.18756 0.24514 0.37261 0.0
C869 C 0.13469 0.10996 0.38346 0.0
C870 C 0.12155 0.13443 0.4092 0.0
H871 H 0.1775 0.11411 0.33593 0.0
H872 H 0.12114 0.07206 0.38678 0.0
C873 C 0.14036 0.18358 0.4041 0.0
C874 C 0.82692 0.03599 0.43081 0.0
C875 C 0.81219 1.00696 0.39998 0.0
H876 H 0.88539 0.07937 0.46451 0.0
C877 C 0.84462 0.98815 0.38885 0.0
H878 H 0.80241 0.05102 0.43964 0.0
C879 C 0.89246 1.00451 0.40299 0.0
C880 C 0.908 0.03973 0.42821 0.0
H881 H 0.83384 0.96592 0.36482 0.0
H882 H 0.91746 0.99183 0.3921 0.0
C883 C 0.87467 0.05367 0.44362 0.0
C884 C 0.91327 0.85686 0.36667 0.0
C885 C 0.86409 0.84513 0.36184 0.0
H886 H 0.97777 0.88383 0.40456 0.0
C887 C 0.84195 0.85441 0.39255 0.0
H888 H 0.93139 0.84927 0.34441 0.0
C889 C 0.8687 0.87435 0.42775 0.0
C890 C 0.918 0.88418 0.43334 0.0
H891 H 0.80392 0.84575 0.38956 0.0
H892 H 0.85087 0.88075 0.45105 0.0
C893 C 0.93978 0.87592 0.40187 0.0
C894 C 0.21075 1.00408 0.39748 0.0
C895 C 0.20611 0.96004 0.38675 0.0
H896 H 0.19173 0.041 0.43805 0.0
C897 C 0.18491 0.91913 0.41465 0.0
H898 H 0.22803 0.0366 0.37788 0.0
C899 C 0.16617 0.92191 0.44989 0.0
C900 C 0.16641 0.96554 0.45798 0.0
H901 H 0.17946 0.88436 0.40813 0.0
H902 H 0.14809 0.88933 0.46904 0.0
C903 C 0.19081 1.00679 0.43261 0.0
C904 C 0.23339 0.97876 0.64491 0.0
C905 C 0.23342 0.99805 0.68051 0.0
H906 H 0.19274 0.95113 0.5902 0.0
C907 C 0.19313 1.00916 0.68574 0.0
H908 H 0.26427 0.96989 0.64049 0.0
C909 C 0.15206 0.99748 0.65757 0.0
C910 C 0.15093 0.97419 0.62432 0.0
H911 H 0.19231 0.0235 0.71329 0.0
H912 H 0.12078 1.00524 0.66252 0.0
C913 C 0.19228 0.96665 0.61711 0.0
C914 C 0.15875 0.15842 0.66756 0.0
C915 C 0.20789 0.17044 0.67172 0.0
H916 H 0.09403 0.13321 0.62935 0.0
C917 C 0.22986 0.16277 0.64011 0.0
H918 H 0.14085 0.16491 0.69061 0.0
C919 C 0.20287 0.14469 0.60422 0.0
C920 C 0.15366 0.13529 0.59909 0.0
H921 H 0.26787 0.17172 0.64275 0.0
H922 H 0.22044 0.13979 0.57994 0.0
C923 C 0.13201 0.14121 0.63173 0.0
C924 C 0.85926 0.01987 0.63451 0.0
C925 C 0.86497 0.06378 0.64592 0.0
H926 H 0.87702 0.98297 0.59314 0.0
C927 C 0.88756 0.10477 0.619 0.0
H928 H 0.84091 0.98744 0.65356 0.0
C929 C 0.90692 0.10206 0.58409 0.0
C930 C 0.9055 0.05833 0.57525 0.0
H931 H 0.89344 0.13934 0.62627 0.0
H932 H 0.92613 0.13463 0.56573 0.0
C933 C 0.87934 0.01719 0.59945 0.0
C934 C 0.9031 0.89032 0.67694 0.0
C935 C 0.89159 0.84103 0.68788 0.0
H936 H 0.94108 0.95231 0.63789 0.0
C937 C 0.91334 0.8167 0.66919 0.0
H938 H 0.88708 0.91019 0.69071 0.0
C939 C 0.94385 0.84071 0.63863 0.0
C940 C 0.95339 0.88973 0.62587 0.0
H941 H 0.90588 0.77873 0.67733 0.0
H942 H 0.95859 0.82053 0.62395 0.0
C943 C 0.93384 0.91442 0.64639 0.0
C944 C 0.43794 0.07223 0.15741 0.0
C945 C 0.39516 0.08443 0.14693 0.0
H946 H 0.49074 0.05243 0.13504 0.0
C947 C 0.37368 0.0879 0.10435 0.0
H948 H 0.45533 0.06957 0.18999 0.0
C949 C 0.39349 0.07756 0.07321 0.0
C950 C 0.43564 0.06423 0.08378 0.0
H951 H 0.34054 0.09685 0.09542 0.0
H952 H 0.37537 0.07941 0.04088 0.0
C953 C 0.45826 0.06264 0.12599 0.0
C954 C 0.9011 0.36247 0.18849 0.0
C955 C 0.85672 0.33179 0.17628 0.0
H956 H 0.96501 0.414 0.16846 0.0
C957 C 0.84553 0.32887 0.13259 0.0
H958 H 0.91008 0.36868 0.22099 0.0
C959 C 0.87615 0.35602 0.10227 0.0
C960 C 0.91987 0.38784 0.1138 0.0
H961 H 0.81149 0.30708 0.12128 0.0
H962 H 0.86443 0.35334 0.06895 0.0
C963 C 0.93252 0.38941 0.15793 0.0
C964 C 0.65506 0.81672 0.16075 0.0
C965 C 0.69768 0.83256 0.18798 0.0
H966 H 0.59849 0.83245 0.11255 0.0
C967 C 0.71356 0.88219 0.18487 0.0
H968 H 0.64006 0.77923 0.1618 0.0
C969 C 0.68875 0.91338 0.15622 0.0
C970 C 0.64597 0.8974 0.12893 0.0
H971 H 0.745 0.89722 0.20512 0.0
H972 H 0.70347 0.95078 0.15577 0.0
C973 C 0.63039 0.84777 0.13213 0.0
C974 C 0.18517 0.7241 0.11891 0.0
C975 C 0.18843 0.70205 0.16237 0.0
H976 H 0.16172 0.71461 0.05326 0.0
C977 C 0.1634 0.65447 0.17274 0.0
H978 H 0.20401 0.76077 0.1098 0.0
C979 C 0.13884 0.62868 0.14081 0.0
C980 C 0.13855 0.64929 0.09723 0.0
H981 H 0.16427 0.63641 0.20572 0.0
H982 H 0.12215 0.59144 0.15023 0.0
C983 C 0.16067 0.69781 0.08651 0.0
C984 C 0.42047 0.82054 0.88173 0.0
C985 C 0.37075 0.80467 0.87819 0.0
H986 H 0.48438 0.86301 0.91235 0.0
C987 C 0.34861 0.81481 0.90822 0.0
H988 H 0.43889 0.81372 0.85914 0.0
C989 C 0.37456 0.84233 0.93873 0.0
C990 C 0.42381 0.86079 0.94075 0.0
H991 H 0.31062 0.80314 0.90708 0.0
H992 H 0.35559 0.85153 0.95942 0.0
C993 C 0.4467 0.84848 0.91255 0.0
C994 C 0.19475 0.41732 0.93617 0.0
C995 C 0.16455 0.37639 0.92251 0.0
H996 H 0.20185 0.47742 0.96321 0.0
C997 C 0.11563 0.36827 0.92096 0.0
H998 H 0.23257 0.42458 0.93761 0.0
C999 C 0.09764 0.39872 0.93599 0.0
C1000 C 0.12836 0.43779 0.9528 0.0
H1001 H 0.09156 0.33676 0.9109 0.0
H1002 H 0.06007 0.38989 0.93704 0.0
C1003 C 0.17698 0.44761 0.95092 0.0
C1004 C 0.71925 0.18326 0.8855 0.0
C1005 C 0.69404 0.19117 0.8444 0.0
H1006 H 0.71776 0.1485 0.95145 0.0
C1007 C 0.64496 0.16898 0.84057 0.0
H1008 H 0.75663 0.20043 0.89058 0.0
C1009 C 0.62221 0.13938 0.87576 0.0
C1010 C 0.64738 0.13064 0.91679 0.0
H1011 H 0.6238 0.17454 0.80991 0.0
H1012 H 0.58461 0.12329 0.87067 0.0
C1013 C 0.69653 0.15341 0.92075 0.0
C1014 C 0.90648 0.69328 0.85283 0.0
C1015 C 0.85621 0.67641 0.84954 0.0
H1016 H 0.97498 0.68269 0.8825 0.0
C1017 C 0.83941 0.63307 0.87714 0.0
H1018 H 0.9223 0.72544 0.83198 0.0
C1019 C 0.86958 0.60806 0.90549 0.0
C1020 C 0.91959 0.62404 0.90918 0.0
H1021 H 0.80175 0.61741 0.8764 0.0
H1022 H 0.85297 0.57489 0.9247 0.0
C1023 C 0.93727 0.66819 0.88223 0.0
C1024 C 0.23086 0.38877 0.16254 0.0
C1025 C 0.21337 0.34338 0.18689 0.0
H1026 H 0.21867 0.44876 0.11669 0.0
C1027 C 0.16326 0.32503 0.1792 0.0
H1028 H 0.26822 0.40617 0.1675 0.0
C1029 C 0.13341 0.35039 0.14869 0.0
C1030 C 0.15161 0.39658 0.12514 0.0
H1031 H 0.1466 0.29161 0.19799 0.0
H1032 H 0.09573 0.33446 0.14517 0.0
C1033 C 0.20152 0.41404 0.13305 0.0
C1034 C 0.2167 0.68144 0.88345 0.0
C1035 C 0.19731 0.67585 0.84111 0.0
H1036 H 0.20866 0.66233 0.95047 0.0
C1037 C 0.1514 0.64501 0.83569 0.0
H1038 H 0.25224 0.70346 0.88967 0.0
C1039 C 0.12603 0.6208 0.87107 0.0
C1040 C 0.14601 0.62557 0.91353 0.0
H1041 H 0.13527 0.63891 0.80391 0.0
H1042 H 0.09143 0.59684 0.86522 0.0
C1043 C 0.19153 0.65725 0.91869 0.0
C1044 C 0.41376 0.20542 0.86986 0.0
C1045 C 0.37098 0.18958 0.84288 0.0
H1046 H 0.4705 0.18957 0.91775 0.0
C1047 C 0.35487 0.13998 0.84597 0.0
H1048 H 0.42873 0.24289 0.86895 0.0
C1049 C 0.37972 0.10876 0.87439 0.0
C1050 C 0.42264 0.12473 0.9015 0.0
H1051 H 0.32314 0.125 0.82601 0.0
H1052 H 0.36485 0.07137 0.87493 0.0
C1053 C 0.43847 0.17432 0.89828 0.0
C1054 C 0.90269 0.36849 0.85879 0.0
C1055 C 0.87804 0.32073 0.86856 0.0
H1056 H 0.94437 0.43084 0.88214 0.0
C1057 C 0.88196 0.29781 0.91174 0.0
H1058 H 0.90132 0.38724 0.82606 0.0
C1059 C 0.90705 0.32331 0.94451 0.0
C1060 C 0.9291 0.3719 0.93443 0.0
H1061 H 0.86342 0.26098 0.9204 0.0
H1062 H 0.90667 0.30579 0.97762 0.0
C1063 C 0.92783 0.39348 0.89106 0.0
C1064 C 0.66515 0.95237 0.88879 0.0
C1065 C 0.69852 0.9287 0.91102 0.0
H1066 H 0.61101 0.98298 0.89399 0.0
C1067 C 0.69745 0.91061 0.95477 0.0
H1068 H 0.6661 0.96734 0.85511 0.0
C1069 C 0.6666 0.91985 0.97684 0.0
C1070 C 0.63606 0.94714 0.95554 0.0
H1071 H 0.72326 0.89286 0.97257 0.0
H1072 H 0.6691 0.90867 1.01128 0.0
C1073 C 0.63369 0.96126 0.91094 0.0
C1074 C 0.90484 0.61305 0.11896 0.0
C1075 C 0.94447 0.64467 0.13753 0.0
H1076 H 0.87914 0.56035 0.07866 0.0
C1077 C 0.98907 0.6476 0.1276 0.0
H1078 H 0.8699 0.60964 0.12579 0.0
C1079 C 0.99439 0.6189 0.10178 0.0
C1080 C 0.95526 0.58657 0.08385 0.0
H1081 H 1.02046 0.67237 0.13983 0.0
H1082 H 1.02964 0.62268 0.0955 0.0
C1083 C 0.91016 0.58446 0.09222 0.0
C1084 C 0.42313 0.85381 0.18913 0.0
C1085 C 0.37361 0.83402 0.18595 0.0
H1086 H 0.48407 0.89669 0.15835 0.0
C1087 C 0.34813 0.84425 0.14539 0.0
H1088 H 0.44451 0.84672 0.21937 0.0
C1089 C 0.3711 0.87349 0.11002 0.0
C1090 C 0.42077 0.89332 0.11319 0.0
H1091 H 0.31031 0.82927 0.14077 0.0
H1092 H 0.34959 0.88011 0.07976 0.0
C1093 C 0.44612 0.88274 0.15378 0.0
C1094 C 0.71624 0.21054 0.12024 0.0
C1095 C 0.69245 0.22103 0.1487 0.0
H1096 H 0.71218 0.1717 0.07131 0.0
C1097 C 0.64269 0.20567 0.14307 0.0
H1098 H 0.75427 0.22276 0.12261 0.0
C1099 C 0.61808 0.17656 0.11274 0.0
C1100 C 0.64273 0.16257 0.08724 0.0
H1101 H 0.62284 0.21319 0.16397 0.0
H1102 H 0.58023 0.16223 0.11156 0.0
C1103 C 0.69196 0.18155 0.0904 0.0
C1104 C 0.6282 0.65043 0.81604 0.0
C1105 C 0.65642 0.69621 0.81977 0.0
H1106 H 0.57774 0.58907 0.84384 0.0
C1107 C 0.64635 0.71907 0.84873 0.0
H1108 H 0.63426 0.63197 0.79372 0.0
C1109 C 0.61334 0.6947 0.87704 0.0
C1110 C 0.58972 0.64693 0.87709 0.0
H1111 H 0.66643 0.75475 0.85186 0.0
H1112 H 0.60984 0.71187 0.90174 0.0
C1113 C 0.59506 0.62596 0.84445 0.0
C1114 C 0.38485 0.63475 0.99155 0.0
C1115 C 0.33716 0.60821 0.9906 0.0
H1116 H 0.45329 0.63086 0.98466 0.0
C1117 C 0.32851 0.56213 1.01412 0.0
H1118 H 0.39386 0.67236 0.9797 0.0
C1119 C 0.36159 0.53784 1.01669 0.0
C1120 C 0.40483 0.56165 1.00081 0.0
H1121 H 0.29339 0.54161 0.02087 0.0
H1122 H 0.3515 0.50001 0.02713 0.0
C1123 C 0.41862 0.61104 0.99327 0.0
C1124 C 0.35087 0.33677 0.88778 0.0
C1125 C 0.35702 0.35235 0.84446 0.0
H1126 H 0.37097 0.34949 0.95123 0.0
C1127 C 0.38938 0.39611 0.83209 0.0
H1128 H 0.32618 0.30358 0.89868 0.0
C1129 C 0.41591 0.42304 0.86285 0.0
C1130 C 0.41031 0.40654 0.90637 0.0
H1131 H 0.39427 0.40951 0.7988 0.0
H1132 H 0.4409 0.4564 0.85262 0.0
C1133 C 0.37706 0.36331 0.9182 0.0
C1134 C 0.68725 0.46579 0.89249 0.0
C1135 C 0.67072 0.4165 0.90283 0.0
H1136 H 0.6792 0.5323 0.89722 0.0
C1137 C 0.63074 0.39646 0.92443 0.0
H1138 H 0.71817 0.48214 0.87607 0.0
C1139 C 0.60802 0.42497 0.93588 0.0
C1140 C 0.62518 0.47431 0.92666 0.0
H1141 H 0.61708 0.35858 0.93261 0.0
H1142 H 0.57777 0.40822 0.95313 0.0
C1143 C 0.66499 0.49443 0.90469 0.0
C1144 C 0.70511 0.39705 0.07377 0.0
C1145 C 0.75071 0.42857 0.07252 0.0
H1146 H 0.63181 0.39346 0.06767 0.0
C1147 C 0.75643 0.47016 0.04204 0.0
H1148 H 0.69991 0.3627 0.0942 0.0
C1149 C 0.71745 0.48687 0.02527 0.0
C1150 C 0.67342 0.46193 0.03928 0.0
H1151 H 0.79097 0.49407 0.03753 0.0
H1152 H 0.72326 0.52229 1.00686 0.0
C1153 C 0.66606 0.41463 0.05891 0.0
C1154 C 0.70819 0.69067 0.14086 0.0
C1155 C 0.70713 0.67182 0.18455 0.0
H1156 H 0.68526 0.68028 0.07691 0.0
C1157 C 0.6799 0.62531 0.19694 0.0
H1158 H 0.72858 0.72629 0.12995 0.0
C1159 C 0.65454 0.59821 0.16592 0.0
C1160 C 0.65613 0.61731 0.12212 0.0
H1161 H 0.67872 0.60967 0.23044 0.0
H1162 H 0.63417 0.56237 0.17624 0.0
C1163 C 0.68303 0.664 0.11019 0.0
C1164 C 0.47251 0.58938 0.17153 0.0
C1165 C 0.42501 0.57637 0.17824 0.0
H1166 H 0.52365 0.581 0.13798 0.0
C1167 C 0.39172 0.54493 0.15434 0.0
H1168 H 0.49887 0.61329 0.18986 0.0
C1169 C 0.406 0.52528 0.12555 0.0
C1170 C 0.45368 0.53777 0.11914 0.0
H1171 H 0.355 0.5338 0.15948 0.0
H1172 H 0.37976 0.49976 0.10882 0.0
C1173 C 0.48662 0.5708 0.14188 0.0
C1174 C 0.44016 0.37242 0.21131 0.0
C1175 C 0.40525 0.331 0.20348 0.0
H1176 H 0.49792 0.42893 0.18768 0.0
C1177 C 0.40999 0.30842 0.17188 0.0
H1178 H 0.43875 0.38959 0.2366 0.0
C1179 C 0.44583 0.32907 0.14593 0.0
C1180 C 0.47639 0.37409 0.14937 0.0
H1181 H 0.38483 0.27564 0.16586 0.0
H1182 H 0.44627 0.31208 0.11998 0.0
C1183 C 0.47507 0.39431 0.18402 0.0
C1184 C 0.87117 0.57628 0.57753 0.0
C1185 C 0.871 0.58061 0.61981 0.0
H1186 H 0.90748 0.56325 0.53292 0.0
C1187 C 0.90995 0.57498 0.6502 0.0
H1188 H 0.84221 0.58115 0.55313 0.0
C1189 C 0.9479 0.56475 0.63857 0.0
C1190 C 0.94779 0.56013 0.59624 0.0
H1191 H 0.91071 0.5776 0.68317 0.0
H1192 H 0.97717 0.56033 0.66273 0.0
C1193 C 0.90891 0.56618 0.56593 0.0
C1194 C 0.41214 0.8607 0.70401 0.0
C1195 C 0.36875 0.83415 0.68588 0.0
H1196 H 0.48042 0.90835 0.69445 0.0
C1197 C 0.36261 0.83716 0.64094 0.0
H1198 H 0.41784 0.86144 0.73794 0.0
C1199 C 0.39849 0.86515 0.61526 0.0
C1200 C 0.44195 0.89205 0.63339 0.0
H1201 H 0.32917 0.81872 0.62531 0.0
H1202 H 0.39167 0.86647 0.581 0.0
C1203 C 0.44803 0.88848 0.67853 0.0
C1204 C 0.21017 0.37674 0.68072 0.0
C1205 C 0.19576 0.32762 0.68083 0.0
H1206 H 0.19606 0.44469 0.65791 0.0
C1207 C 0.15345 0.31222 0.65321 0.0
H1208 H 0.24152 0.3912 0.70136 0.0
C1209 C 0.12701 0.34324 0.62761 0.0
C1210 C 0.14038 0.39213 0.62829 0.0
H1211 H 0.13983 0.27506 0.65194 0.0
H1212 H 0.09487 0.32825 0.60813 0.0
C1213 C 0.18327 0.40782 0.65545 0.0
C1214 C 0.65315 0.20699 0.6454 0.0
C1215 C 0.69903 0.2045 0.66297 0.0
H1216 H 0.59061 0.17957 0.6037 0.0
C1217 C 0.71972 0.17804 0.64598 0.0
H1218 H 0.63609 0.22672 0.65809 0.0
C1219 C 0.69421 0.15195 0.61448 0.0
C1220 C 0.647 0.15112 0.5992 0.0
H1221 H 0.75526 0.17614 0.65815 0.0
H1222 H 0.71042 0.12954 0.60425 0.0
C1223 C 0.62723 0.18036 0.61384 0.0
C1224 C 0.8446 0.32139 0.40646 0.0
C1225 C 0.86366 0.29884 0.3834 0.0
H1226 H 0.85779 0.37171 0.44761 0.0
C1227 C 0.91238 0.30288 0.39299 0.0
H1228 H 0.80714 0.31746 0.40172 0.0
C1229 C 0.94163 0.33315 0.42077 0.0
C1230 C 0.92282 0.35972 0.43993 0.0
H1231 H 0.92859 0.28566 0.37659 0.0
H1232 H 0.9794 0.33876 0.42431 0.0
C1233 C 0.87364 0.3519 0.43359 0.0
C1234 C 0.61357 0.8773 0.40208 0.0
C1235 C 0.65601 0.87434 0.42829 0.0
H1236 H 0.5557 0.90782 0.38753 0.0
C1237 C 0.67398 0.9043 0.45862 0.0
H1238 H 0.59787 0.85451 0.37883 0.0
C1239 C 0.6492 0.93437 0.46404 0.0
C1240 C 0.60605 0.93595 0.4389 0.0
H1241 H 0.70718 0.90452 0.47855 0.0
H1242 H 0.66347 0.95575 0.48862 0.0
C1243 C 0.58914 0.90796 0.4071 0.0
C1244 C 0.19993 0.67871 0.37659 0.0
C1245 C 0.18443 0.68669 0.332 0.0
H1246 H 0.18214 0.64395 0.44047 0.0
C1247 C 0.13719 0.66345 0.31926 0.0
H1248 H 0.23561 0.69653 0.38829 0.0
C1249 C 0.1068 0.63371 0.34878 0.0
C1250 C 0.12116 0.6257 0.39345 0.0
H1251 H 0.12314 0.66881 0.28571 0.0
H1252 H 0.07103 0.61746 0.33603 0.0
C1253 C 0.16885 0.64875 0.40677 0.0
C1254 C 0.34686 0.12988 0.37391 0.0
C1255 C 0.3607 0.17705 0.35166 0.0
H1256 H 0.36537 0.06939 0.41437 0.0
C1257 C 0.41016 0.199 0.35821 0.0
H1258 H 0.31004 0.11024 0.37008 0.0
C1259 C 0.44297 0.17494 0.38545 0.0
C1260 C 0.42847 0.12715 0.4069 0.0
H1261 H 0.42393 0.23447 0.34139 0.0
H1262 H 0.48017 0.19329 0.38792 0.0
C1263 C 0.37926 0.1059 0.40001 0.0
C1264 C 0.6567 0.81588 0.67404 0.0
C1265 C 0.70581 0.83778 0.68356 0.0
H1266 H 0.58779 0.82235 0.64161 0.0
C1267 C 0.72052 0.88548 0.66276 0.0
H1268 H 0.64208 0.78027 0.69016 0.0
C1269 C 0.68915 0.9101 0.63573 0.0
C1270 C 0.64011 0.88918 0.62665 0.0
H1271 H 0.75696 0.90526 0.66933 0.0
H1272 H 0.70356 0.94701 0.62293 0.0
C1273 C 0.62493 0.84064 0.64595 0.0
C1274 C 0.65883 0.15432 0.33068 0.0
C1275 C 0.69999 0.1851 0.34781 0.0
H1276 H 0.59273 0.10283 0.34098 0.0
C1277 C 0.70459 0.185 0.39223 0.0
H1278 H 0.65486 0.15044 0.29767 0.0
C1279 C 0.66912 0.15615 0.41812 0.0
C1280 C 0.62763 0.12556 0.40075 0.0
H1281 H 0.73646 0.20664 0.40733 0.0
H1282 H 0.67459 0.15739 0.45192 0.0
C1283 C 0.62332 0.12587 0.35625 0.0
C1284 C 0.8558 0.63874 0.35127 0.0
C1285 C 0.86929 0.6881 0.34974 0.0
H1286 H 0.87091 0.57156 0.37573 0.0
C1287 C 0.91181 0.70489 0.37664 0.0
H1288 H 0.82518 0.62337 0.33033 0.0
C1289 C 0.93885 0.67479 0.4032 0.0
C1290 C 0.92616 0.62559 0.40381 0.0
H1291 H 0.92562 0.74245 0.37582 0.0
H1292 H 0.97123 0.69077 0.42184 0.0
C1293 C 0.88314 0.60865 0.37741 0.0
C1294 C 0.41544 0.81301 0.38619 0.0
C1295 C 0.36932 0.81552 0.36966 0.0
H1296 H 0.47856 0.83966 0.42759 0.0
C1297 C 0.34877 0.8406 0.38847 0.0
H1298 H 0.43236 0.79428 0.37217 0.0
C1299 C 0.37464 0.86549 0.42067 0.0
C1300 C 0.42209 0.86655 0.43482 0.0
H1301 H 0.31304 0.84245 0.37717 0.0
H1302 H 0.35855 0.88708 0.43223 0.0
C1303 C 0.44175 0.83854 0.41839 0.0
C1304 C 0.15017 0.43583 0.37842 0.0
C1305 C 0.1931 0.43812 0.40503 0.0
H1306 H 0.08048 0.44387 0.37064 0.0
C1307 C 0.198 0.44919 0.44576 0.0
H1308 H 0.14572 0.42754 0.34678 0.0
C1309 C 0.16083 0.45823 0.45958 0.0
C1310 C 0.11795 0.45694 0.43277 0.0
H1311 H 0.23082 0.45115 0.46684 0.0
H1312 H 0.16603 0.46687 0.49116 0.0
C1313 C 0.11303 0.44549 0.39202 0.0
C1314 C 0.45737 0.14109 0.63245 0.0
C1315 C 0.41335 0.1417 0.60833 0.0
H1316 H 0.51673 0.11285 0.64465 0.0
C1317 C 0.3938 0.10946 0.58013 0.0
H1318 H 0.47399 0.16554 0.65415 0.0
C1319 C 0.41882 0.07986 0.5741 0.0
C1320 C 0.46366 0.08087 0.59677 0.0
H1321 H 0.35946 0.10771 0.56186 0.0
H1322 H 0.40347 0.05692 0.55086 0.0
C1323 C 0.48205 0.11083 0.62695 0.0
C1324 C 0.86706 0.34287 0.65328 0.0
C1325 C 0.88242 0.33467 0.69786 0.0
H1326 H 0.88541 0.37747 0.58956 0.0
C1327 C 0.92967 0.35742 0.71091 0.0
H1328 H 0.83132 0.32539 0.64145 0.0
C1329 C 0.96035 0.38682 0.68162 0.0
C1330 C 0.94622 0.39486 0.63694 0.0
H1331 H 0.94349 0.35191 0.74451 0.0
H1332 H 0.99614 0.40272 0.69457 0.0
C1333 C 0.89846 0.37251 0.62331 0.0
C1334 C 0.21697 0.70021 0.62811 0.0
C1335 C 0.19713 0.71371 0.65791 0.0
H1336 H 0.20572 0.65921 0.57904 0.0
C1337 C 0.14758 0.70227 0.65408 0.0
H1338 H 0.25486 0.70888 0.6293 0.0
C1339 C 0.11911 0.67448 0.62399 0.0
C1340 C 0.13938 0.65776 0.59674 0.0
H1341 H 0.13083 0.71178 0.67634 0.0
H1342 H 0.08132 0.66286 0.62449 0.0
C1343 C 0.18871 0.67222 0.59858 0.0
loop_
_geom_bond_atom_site_label_1
_geom_bond_atom_site_label_2
_geom_bond_distance
_geom_bond_site_symmetry_2
_ccdc_geom_bond_type
Eu0 N31 2.657 . S
Eu0 N38 2.609 . S
Eu0 O44 2.558 . S
Eu0 O45 2.612 . S
Eu0 O47 2.339 . S
Eu0 O48 2.563 . S
Eu0 O49 2.419 . S
Eu0 O51 2.380 . S
Eu0 O52 2.432 . S
Eu0 C64 2.848 . S
C1 C4 1.429 . S
C1 C5 1.411 . S
C1 N8 1.377 . S
C2 C4 1.420 . S
C2 C6 1.423 . S
C2 C14 1.392 . S
C3 C5 1.420 . S
C3 C6 1.351 . S
C3 H26 0.931 . S
C4 C1 1.429 . S
C4 C2 1.420 . S
C4 N12 1.362 . S
C5 C1 1.411 . S
C5 C3 1.420 . S
C5 C10 1.395 . S
C6 C2 1.423 . S
C6 C3 1.351 . S
C6 H18 0.930 . S
C7 C9 1.400 . S
C7 C10 1.386 . S
C7 H19 0.930 . S
N8 C1 1.377 . S
N8 C9 1.321 . S
N8 Eu11 2.609 . S
C9 C7 1.400 . S
C9 N8 1.321 . S
C9 H16 0.930 . S
C10 C5 1.395 . S
C10 C7 1.386 . S
C10 H29 0.930 . S
Eu11 N8 2.609 . S
Eu11 N12 2.657 . S
Eu11 O45 2.380 . S
Eu11 O46 2.432 . S
Eu11 O50 2.558 . S
Eu11 O51 2.612 . S
Eu11 O53 2.339 . S
Eu11 O54 2.563 . S
Eu11 O55 2.419 . S
Eu11 C75 2.848 . S
N12 C4 1.362 . S
N12 Eu11 2.657 . S
N12 C13 1.334 . S
C13 N12 1.334 . S
C13 C15 1.413 . S
C13 H20 0.929 . S
C14 C2 1.392 . S
C14 C15 1.367 . S
C14 H22 0.930 . S
C15 C13 1.413 . S
C15 C14 1.367 . S
C15 H17 0.930 . S
H16 C9 0.930 . S
H17 C15 0.930 . S
H18 C6 0.930 . S
H19 C7 0.930 . S
H20 C13 0.929 . S
H21 C35 0.930 . S
H22 C14 0.930 . S
H23 C41 0.930 . S
H24 C32 0.929 . S
H25 C39 0.930 . S
H26 C3 0.931 . S
H27 C33 0.930 . S
H28 C66 0.930 . S
H29 C10 0.930 . S
H30 C65 0.931 . S
N31 Eu0 2.657 . S
N31 C32 1.334 . S
N31 C36 1.362 . S
C32 H24 0.929 . S
C32 N31 1.334 . S
C32 C35 1.413 . S
C33 H27 0.930 . S
C33 C34 1.392 . S
C33 C35 1.367 . S
C34 C33 1.392 . S
C34 C36 1.420 . S
C34 C66 1.423 . S
C35 H21 0.930 . S
C35 C32 1.413 . S
C35 C33 1.367 . S
C36 N31 1.362 . S
C36 C34 1.420 . S
C36 C40 1.429 . S
H37 C42 0.930 . S
N38 Eu0 2.609 . S
N38 C40 1.377 . S
N38 C41 1.321 . S
C39 H25 0.930 . S
C39 C41 1.400 . S
C39 C42 1.386 . S
C40 C36 1.429 . S
C40 N38 1.377 . S
C40 C43 1.411 . S
C41 H23 0.930 . S
C41 N38 1.321 . S
C41 C39 1.400 . S
C42 H37 0.930 . S
C42 C39 1.386 . S
C42 C43 1.395 . S
C43 C40 1.411 . S
C43 C42 1.395 . S
C43 C65 1.420 . S
O44 Eu0 2.558 . S
O44 C64 1.257 . S
O45 Eu0 2.612 . S
O45 Eu11 2.380 . S
O45 C56 1.276 . S
O46 Eu11 2.432 . S
O46 C63 1.264 . S
O47 Eu0 2.339 . S
O47 C63 1.254 . S
O48 Eu0 2.563 . S
O48 C56 1.235 . S
O49 Eu0 2.419 . S
O49 C64 1.249 . S
O50 Eu11 2.558 . S
O50 C75 1.257 . S
O51 Eu0 2.380 . S
O51 Eu11 2.612 . S
O51 C67 1.276 . S
O52 Eu0 2.432 . S
O52 C74 1.264 . S
O53 Eu11 2.339 . S
O53 C74 1.254 . S
O54 Eu11 2.563 . S
O54 C67 1.235 . S
O55 Eu11 2.419 . S
O55 C75 1.249 . S
C56 O45 1.276 . S
C56 O48 1.235 . S
C57 C59 1.393 . S
C57 C61 1.395 . S
C57 C64 1.492 . S
C58 C59 1.392 . S
C58 C60 1.386 . S
C59 C57 1.393 . S
C59 C58 1.392 . S
C59 H76 0.930 . S
C60 C58 1.386 . S
C60 C62 1.395 . S
C60 H77 0.930 . S
C61 C57 1.395 . S
C61 C62 1.379 . S
C61 H78 0.930 . S
C62 C60 1.395 . S
C62 C61 1.379 . S
C62 H79 0.930 . S
C63 O46 1.264 . S
C63 O47 1.254 . S
C64 Eu0 2.848 . S
C64 O44 1.257 . S
C64 O49 1.249 . S
C64 C57 1.492 . S
C65 H30 0.931 . S
C65 C43 1.420 . S
C65 C66 1.351 . S
C66 H28 0.930 . S
C66 C34 1.423 . S
C66 C65 1.351 . S
C67 O51 1.276 . S
C67 O54 1.235 . S
C68 C69 1.393 . S
C68 C72 1.395 . S
C68 C75 1.492 . S
C69 C68 1.393 . S
C69 C70 1.392 . S
C69 H80 0.930 . S
C70 C69 1.392 . S
C70 C71 1.386 . S
C71 C70 1.386 . S
C71 C73 1.395 . S
C71 H81 0.930 . S
C72 C68 1.395 . S
C72 C73 1.379 . S
C72 H82 0.930 . S
C73 C71 1.395 . S
C73 C72 1.379 . S
C73 H83 0.930 . S
C74 O52 1.264 . S
C74 O53 1.254 . S
C75 Eu11 2.848 . S
C75 O50 1.257 . S
C75 O55 1.249 . S
C75 C68 1.492 . S
H76 C59 0.930 . S
H77 C60 0.930 . S
H78 C61 0.930 . S
H79 C62 0.930 . S
H80 C69 0.930 . S
H81 C71 0.930 . S
H82 C72 0.930 . S
H83 C73 0.930 . S
Eu84 N115 2.657 . S
Eu84 N122 2.609 . S
Eu84 O128 2.558 . S
Eu84 O129 2.612 . S
Eu84 O131 2.339 . S
Eu84 O132 2.563 . S
Eu84 O133 2.419 . S
Eu84 O135 2.380 . S
Eu84 O136 2.432 . S
Eu84 C148 2.848 . S
C85 C88 1.429 . S
C85 C89 1.411 . S
C85 N92 1.377 . S
C86 C88 1.420 . S
C86 C90 1.423 . S
C86 C98 1.392 . S
C87 C89 1.420 . S
C87 C90 1.351 . S
C87 H110 0.931 . S
C88 C85 1.429 . S
C88 C86 1.420 . S
C88 N96 1.362 . S
C89 C85 1.411 . S
C89 C87 1.420 . S
C89 C94 1.395 . S
C90 C86 1.423 . S
C90 C87 1.351 . S
C90 H102 0.930 . S
C91 C93 1.400 . S
C91 C94 1.386 . S
C91 H103 0.930 . S
N92 C85 1.377 . S
N92 C93 1.321 . S
N92 Eu95 2.609 . S
C93 C91 1.400 . S
C93 N92 1.321 . S
C93 H100 0.930 . S
C94 C89 1.395 . S
C94 C91 1.386 . S
C94 H113 0.930 . S
Eu95 N92 2.609 . S
Eu95 N96 2.657 . S
Eu95 O129 2.380 . S
Eu95 O130 2.432 . S
Eu95 O134 2.558 . S
Eu95 O135 2.612 . S
Eu95 O137 2.339 . S
Eu95 O138 2.563 . S
Eu95 O139 2.419 . S
Eu95 C159 2.848 . S
N96 C88 1.362 . S
N96 Eu95 2.657 . S
N96 C97 1.334 . S
C97 N96 1.334 . S
C97 C99 1.413 . S
C97 H104 0.929 . S
C98 C86 1.392 . S
C98 C99 1.367 . S
C98 H106 0.930 . S
C99 C97 1.413 . S
C99 C98 1.367 . S
C99 H101 0.930 . S
H100 C93 0.930 . S
H101 C99 0.930 . S
H102 C90 0.930 . S
H103 C91 0.930 . S
H104 C97 0.929 . S
H105 C119 0.930 . S
H106 C98 0.930 . S
H107 C125 0.930 . S
H108 C116 0.929 . S
H109 C123 0.930 . S
H110 C87 0.931 . S
H111 C117 0.930 . S
H112 C150 0.930 . S
H113 C94 0.930 . S
H114 C149 0.931 . S
N115 Eu84 2.657 . S
N115 C116 1.334 . S
N115 C120 1.362 . S
C116 H108 0.929 . S
C116 N115 1.334 . S
C116 C119 1.413 . S
C117 H111 0.930 . S
C117 C118 1.392 . S
C117 C119 1.367 . S
C118 C117 1.392 . S
C118 C120 1.420 . S
C118 C150 1.423 . S
C119 H105 0.930 . S
C119 C116 1.413 . S
C119 C117 1.367 . S
C120 N115 1.362 . S
C120 C118 1.420 . S
C120 C124 1.429 . S
H121 C126 0.930 . S
N122 Eu84 2.609 . S
N122 C124 1.377 . S
N122 C125 1.321 . S
C123 H109 0.930 . S
C123 C125 1.400 . S
C123 C126 1.386 . S
C124 C120 1.429 . S
C124 N122 1.377 . S
C124 C127 1.411 . S
C125 H107 0.930 . S
C125 N122 1.321 . S
C125 C123 1.400 . S
C126 H121 0.930 . S
C126 C123 1.386 . S
C126 C127 1.395 . S
C127 C124 1.411 . S
C127 C126 1.395 . S
C127 C149 1.420 . S
O128 Eu84 2.558 . S
O128 C148 1.257 . S
O129 Eu84 2.612 . S
O129 Eu95 2.380 . S
O129 C140 1.276 . S
O130 Eu95 2.432 . S
O130 C147 1.264 . S
O131 Eu84 2.339 . S
O131 C147 1.254 . S
O132 Eu84 2.563 . S
O132 C140 1.235 . S
O133 Eu84 2.419 . S
O133 C148 1.249 . S
O134 Eu95 2.558 . S
O134 C159 1.257 . S
O135 Eu84 2.380 . S
O135 Eu95 2.612 . S
O135 C151 1.276 . S
O136 Eu84 2.432 . S
O136 C158 1.264 . S
O137 Eu95 2.339 . S
O137 C158 1.254 . S
O138 Eu95 2.563 . S
O138 C151 1.235 . S
O139 Eu95 2.419 . S
O139 C159 1.249 . S
C140 O129 1.276 . S
C140 O132 1.235 . S
C141 C143 1.393 . S
C141 C145 1.395 . S
C141 C148 1.492 . S
C142 C143 1.392 . S
C142 C144 1.386 . S
C143 C141 1.393 . S
C143 C142 1.392 . S
C143 H160 0.930 . S
C144 C142 1.386 . S
C144 C146 1.395 . S
C144 H161 0.930 . S
C145 C141 1.395 . S
C145 C146 1.379 . S
C145 H162 0.930 . S
C146 C144 1.395 . S
C146 C145 1.379 . S
C146 H163 0.930 . S
C147 O130 1.264 . S
C147 O131 1.254 . S
C148 Eu84 2.848 . S
C148 O128 1.257 . S
C148 O133 1.249 . S
C148 C141 1.492 . S
C149 H114 0.931 . S
C149 C127 1.420 . S
C149 C150 1.351 . S
C150 H112 0.930 . S
C150 C118 1.423 . S
C150 C149 1.351 . S
C151 O135 1.276 . S
C151 O138 1.235 . S
C152 C153 1.393 . S
C152 C156 1.395 . S
C152 C159 1.492 . S
C153 C152 1.393 . S
C153 C154 1.392 . S
C153 H164 0.930 . S
C154 C153 1.392 . S
C154 C155 1.386 . S
C155 C154 1.386 . S
C155 C157 1.395 . S
C155 H165 0.930 . S
C156 C152 1.395 . S
C156 C157 1.379 . S
C156 H166 0.930 . S
C157 C155 1.395 . S
C157 C156 1.379 . S
C157 H167 0.930 . S
C158 O136 1.264 . S
C158 O137 1.254 . S
C159 Eu95 2.848 . S
C159 O134 1.257 . S
C159 O139 1.249 . S
C159 C152 1.492 . S
H160 C143 0.930 . S
H161 C144 0.930 . S
H162 C145 0.930 . S
H163 C146 0.930 . S
H164 C153 0.930 . S
H165 C155 0.930 . S
H166 C156 0.930 . S
H167 C157 0.930 . S
Eu168 N199 2.657 . S
Eu168 N206 2.609 . S
Eu168 O212 2.558 . S
Eu168 O213 2.612 . S
Eu168 O215 2.339 . S
Eu168 O216 2.563 . S
Eu168 O217 2.419 . S
Eu168 O219 2.380 . S
Eu168 O220 2.432 . S
Eu168 C232 2.848 . S
C169 C172 1.429 . S
C169 C173 1.411 . S
C169 N176 1.377 . S
C170 C172 1.420 . S
C170 C174 1.423 . S
C170 C182 1.392 . S
C171 C173 1.420 . S
C171 C174 1.351 . S
C171 H194 0.931 . S
C172 C169 1.429 . S
C172 C170 1.420 . S
C172 N180 1.362 . S
C173 C169 1.411 . S
C173 C171 1.420 . S
C173 C178 1.395 . S
C174 C170 1.423 . S
C174 C171 1.351 . S
C174 H186 0.930 . S
C175 C177 1.400 . S
C175 C178 1.386 . S
C175 H187 0.930 . S
N176 C169 1.377 . S
N176 C177 1.321 . S
N176 Eu179 2.609 . S
C177 C175 1.400 . S
C177 N176 1.321 . S
C177 H184 0.930 . S
C178 C173 1.395 . S
C178 C175 1.386 . S
C178 H197 0.930 . S
Eu179 N176 2.609 . S
Eu179 N180 2.657 . S
Eu179 O213 2.380 . S
Eu179 O214 2.432 . S
Eu179 O218 2.558 . S
Eu179 O219 2.612 . S
Eu179 O221 2.339 . S
Eu179 O222 2.563 . S
Eu179 O223 2.419 . S
Eu179 C243 2.848 . S
N180 C172 1.362 . S
N180 Eu179 2.657 . S
N180 C181 1.334 . S
C181 N180 1.334 . S
C181 C183 1.413 . S
C181 H188 0.929 . S
C182 C170 1.392 . S
C182 C183 1.367 . S
C182 H190 0.930 . S
C183 C181 1.413 . S
C183 C182 1.367 . S
C183 H185 0.930 . S
H184 C177 0.930 . S
H185 C183 0.930 . S
H186 C174 0.930 . S
H187 C175 0.930 . S
H188 C181 0.929 . S
H189 C203 0.930 . S
H190 C182 0.930 . S
H191 C209 0.930 . S
H192 C200 0.929 . S
H193 C207 0.930 . S
H194 C171 0.931 . S
H195 C201 0.930 . S
H196 C234 0.930 . S
H197 C178 0.930 . S
H198 C233 0.931 . S
N199 Eu168 2.657 . S
N199 C200 1.334 . S
N199 C204 1.362 . S
C200 H192 0.929 . S
C200 N199 1.334 . S
C200 C203 1.413 . S
C201 H195 0.930 . S
C201 C202 1.392 . S
C201 C203 1.367 . S
C202 C201 1.392 . S
C202 C204 1.420 . S
C202 C234 1.423 . S
C203 H189 0.930 . S
C203 C200 1.413 . S
C203 C201 1.367 . S
C204 N199 1.362 . S
C204 C202 1.420 . S
C204 C208 1.429 . S
H205 C210 0.930 . S
N206 Eu168 2.609 . S
N206 C208 1.377 . S
N206 C209 1.321 . S
C207 H193 0.930 . S
C207 C209 1.400 . S
C207 C210 1.386 . S
C208 C204 1.429 . S
C208 N206 1.377 . S
C208 C211 1.411 . S
C209 H191 0.930 . S
C209 N206 1.321 . S
C209 C207 1.400 . S
C210 H205 0.930 . S
C210 C207 1.386 . S
C210 C211 1.395 . S
C211 C208 1.411 . S
C211 C210 1.395 . S
C211 C233 1.420 . S
O212 Eu168 2.558 . S
O212 C232 1.257 . S
O213 Eu168 2.612 . S
O213 Eu179 2.380 . S
O213 C224 1.276 . S
O214 Eu179 2.432 . S
O214 C231 1.264 . S
O215 Eu168 2.339 . S
O215 C231 1.254 . S
O216 Eu168 2.563 . S
O216 C224 1.235 . S
O217 Eu168 2.419 . S
O217 C232 1.249 . S
O218 Eu179 2.558 . S
O218 C243 1.257 . S
O219 Eu168 2.380 . S
O219 Eu179 2.612 . S
O219 C235 1.276 . S
O220 Eu168 2.432 . S
O220 C242 1.264 . S
O221 Eu179 2.339 . S
O221 C242 1.254 . S
O222 Eu179 2.563 . S
O222 C235 1.235 . S
O223 Eu179 2.419 . S
O223 C243 1.249 . S
C224 O213 1.276 . S
C224 O216 1.235 . S
C225 C227 1.393 . S
C225 C229 1.395 . S
C225 C232 1.492 . S
C226 C227 1.392 . S
C226 C228 1.386 . S
C227 C225 1.393 . S
C227 C226 1.392 . S
C227 H244 0.930 . S
C228 C226 1.386 . S
C228 C230 1.395 . S
C228 H245 0.930 . S
C229 C225 1.395 . S
C229 C230 1.379 . S
C229 H246 0.930 . S
C230 C228 1.395 . S
C230 C229 1.379 . S
C230 H247 0.930 . S
C231 O214 1.264 . S
C231 O215 1.254 . S
C232 Eu168 2.848 . S
C232 O212 1.257 . S
C232 O217 1.249 . S
C232 C225 1.492 . S
C233 H198 0.931 . S
C233 C211 1.420 . S
C233 C234 1.351 . S
C234 H196 0.930 . S
C234 C202 1.423 . S
C234 C233 1.351 . S
C235 O219 1.276 . S
C235 O222 1.235 . S
C236 C237 1.393 . S
C236 C240 1.395 . S
C236 C243 1.492 . S
C237 C236 1.393 . S
C237 C238 1.392 . S
C237 H248 0.930 . S
C238 C237 1.392 . S
C238 C239 1.386 . S
C239 C238 1.386 . S
C239 C241 1.395 . S
C239 H249 0.930 . S
C240 C236 1.395 . S
C240 C241 1.379 . S
C240 H250 0.930 . S
C241 C239 1.395 . S
C241 C240 1.379 . S
C241 H251 0.930 . S
C242 O220 1.264 . S
C242 O221 1.254 . S
C243 Eu179 2.848 . S
C243 O218 1.257 . S
C243 O223 1.249 . S
C243 C236 1.492 . S
H244 C227 0.930 . S
H245 C228 0.930 . S
H246 C229 0.930 . S
H247 C230 0.930 . S
H248 C237 0.930 . S
H249 C239 0.930 . S
H250 C240 0.930 . S
H251 C241 0.930 . S
Eu252 N283 2.657 . S
Eu252 N290 2.609 . S
Eu252 O296 2.558 . S
Eu252 O297 2.612 . S
Eu252 O299 2.339 . S
Eu252 O300 2.563 . S
Eu252 O301 2.419 . S
Eu252 O303 2.380 . S
Eu252 O304 2.432 . S
Eu252 C316 2.848 . S
C253 C256 1.429 . S
C253 C257 1.411 . S
C253 N260 1.377 . S
C254 C256 1.420 . S
C254 C258 1.423 . S
C254 C266 1.392 . S
C255 C257 1.420 . S
C255 C258 1.351 . S
C255 H278 0.931 . S
C256 C253 1.429 . S
C256 C254 1.420 . S
C256 N264 1.362 . S
C257 C253 1.411 . S
C257 C255 1.420 . S
C257 C262 1.395 . S
C258 C254 1.423 . S
C258 C255 1.351 . S
C258 H270 0.930 . S
C259 C261 1.400 . S
C259 C262 1.386 . S
C259 H271 0.930 . S
N260 C253 1.377 . S
N260 C261 1.321 . S
N260 Eu263 2.609 . S
C261 C259 1.400 . S
C261 N260 1.321 . S
C261 H268 0.930 . S
C262 C257 1.395 . S
C262 C259 1.386 . S
C262 H281 0.930 . S
Eu263 N260 2.609 . S
Eu263 N264 2.657 . S
Eu263 O297 2.380 . S
Eu263 O298 2.432 . S
Eu263 O302 2.558 . S
Eu263 O303 2.612 . S
Eu263 O305 2.339 . S
Eu263 O306 2.563 . S
Eu263 O307 2.419 . S
Eu263 C327 2.848 . S
N264 C256 1.362 . S
N264 Eu263 2.657 . S
N264 C265 1.334 . S
C265 N264 1.334 . S
C265 C267 1.413 . S
C265 H272 0.929 . S
C266 C254 1.392 . S
C266 C267 1.367 . S
C266 H274 0.930 . S
C267 C265 1.413 . S
C267 C266 1.367 . S
C267 H269 0.930 . S
H268 C261 0.930 . S
H269 C267 0.930 . S
H270 C258 0.930 . S
H271 C259 0.930 . S
H272 C265 0.929 . S
H273 C287 0.930 . S
H274 C266 0.930 . S
H275 C293 0.930 . S
H276 C284 0.929 . S
H277 C291 0.930 . S
H278 C255 0.931 . S
H279 C285 0.930 . S
H280 C318 0.930 . S
H281 C262 0.930 . S
H282 C317 0.931 . S
N283 Eu252 2.657 . S
N283 C284 1.334 . S
N283 C288 1.362 . S
C284 H276 0.929 . S
C284 N283 1.334 . S
C284 C287 1.413 . S
C285 H279 0.930 . S
C285 C286 1.392 . S
C285 C287 1.367 . S
C286 C285 1.392 . S
C286 C288 1.420 . S
C286 C318 1.423 . S
C287 H273 0.930 . S
C287 C284 1.413 . S
C287 C285 1.367 . S
C288 N283 1.362 . S
C288 C286 1.420 . S
C288 C292 1.429 . S
H289 C294 0.930 . S
N290 Eu252 2.609 . S
N290 C292 1.377 . S
N290 C293 1.321 . S
C291 H277 0.930 . S
C291 C293 1.400 . S
C291 C294 1.386 . S
C292 C288 1.429 . S
C292 N290 1.377 . S
C292 C295 1.411 . S
C293 H275 0.930 . S
C293 N290 1.321 . S
C293 C291 1.400 . S
C294 H289 0.930 . S
C294 C291 1.386 . S
C294 C295 1.395 . S
C295 C292 1.411 . S
C295 C294 1.395 . S
C295 C317 1.420 . S
O296 Eu252 2.558 . S
O296 C316 1.257 . S
O297 Eu252 2.612 . S
O297 Eu263 2.380 . S
O297 C308 1.276 . S
O298 Eu263 2.432 . S
O298 C315 1.264 . S
O299 Eu252 2.339 . S
O299 C315 1.254 . S
O300 Eu252 2.563 . S
O300 C308 1.235 . S
O301 Eu252 2.419 . S
O301 C316 1.249 . S
O302 Eu263 2.558 . S
O302 C327 1.257 . S
O303 Eu252 2.380 . S
O303 Eu263 2.612 . S
O303 C319 1.276 . S
O304 Eu252 2.432 . S
O304 C326 1.264 . S
O305 Eu263 2.339 . S
O305 C326 1.254 . S
O306 Eu263 2.563 . S
O306 C319 1.235 . S
O307 Eu263 2.419 . S
O307 C327 1.249 . S
C308 O297 1.276 . S
C308 O300 1.235 . S
C309 C311 1.393 . S
C309 C313 1.395 . S
C309 C316 1.492 . S
C310 C311 1.392 . S
C310 C312 1.386 . S
C311 C309 1.393 . S
C311 C310 1.392 . S
C311 H328 0.930 . S
C312 C310 1.386 . S
C312 C314 1.395 . S
C312 H329 0.930 . S
C313 C309 1.395 . S
C313 C314 1.379 . S
C313 H330 0.930 . S
C314 C312 1.395 . S
C314 C313 1.379 . S
C314 H331 0.930 . S
C315 O298 1.264 . S
C315 O299 1.254 . S
C316 Eu252 2.848 . S
C316 O296 1.257 . S
C316 O301 1.249 . S
C316 C309 1.492 . S
C317 H282 0.931 . S
C317 C295 1.420 . S
C317 C318 1.351 . S
C318 H280 0.930 . S
C318 C286 1.423 . S
C318 C317 1.351 . S
C319 O303 1.276 . S
C319 O306 1.235 . S
C320 C321 1.393 . S
C320 C324 1.395 . S
C320 C327 1.492 . S
C321 C320 1.393 . S
C321 C322 1.392 . S
C321 H332 0.930 . S
C322 C321 1.392 . S
C322 C323 1.386 . S
C323 C322 1.386 . S
C323 C325 1.395 . S
C323 H333 0.930 . S
C324 C320 1.395 . S
C324 C325 1.379 . S
C324 H334 0.930 . S
C325 C323 1.395 . S
C325 C324 1.379 . S
C325 H335 0.930 . S
C326 O304 1.264 . S
C326 O305 1.254 . S
C327 Eu263 2.848 . S
C327 O302 1.257 . S
C327 O307 1.249 . S
C327 C320 1.492 . S
H328 C311 0.930 . S
H329 C312 0.930 . S
H330 C313 0.930 . S
H331 C314 0.930 . S
H332 C321 0.930 . S
H333 C323 0.930 . S
H334 C324 0.930 . S
H335 C325 0.930 . S
Eu336 N367 2.657 . S
Eu336 N374 2.609 . S
Eu336 O380 2.558 . S
Eu336 O381 2.612 . S
Eu336 O383 2.339 . S
Eu336 O384 2.563 . S
Eu336 O385 2.419 . S
Eu336 O387 2.380 . S
Eu336 O388 2.432 . S
Eu336 C400 2.848 . S
C337 C340 1.429 . S
C337 C341 1.411 . S
C337 N344 1.377 . S
C338 C340 1.420 . S
C338 C342 1.423 . S
C338 C350 1.392 . S
C339 C341 1.420 . S
C339 C342 1.351 . S
C339 H362 0.931 . S
C340 C337 1.429 . S
C340 C338 1.420 . S
C340 N348 1.362 . S
C341 C337 1.411 . S
C341 C339 1.420 . S
C341 C346 1.395 . S
C342 C338 1.423 . S
C342 C339 1.351 . S
C342 H354 0.930 . S
C343 C345 1.400 . S
C343 C346 1.386 . S
C343 H355 0.930 . S
N344 C337 1.377 . S
N344 C345 1.321 . S
N344 Eu347 2.609 . S
C345 C343 1.400 . S
C345 N344 1.321 . S
C345 H352 0.930 . S
C346 C341 1.395 . S
C346 C343 1.386 . S
C346 H365 0.930 . S
Eu347 N344 2.609 . S
Eu347 N348 2.657 . S
Eu347 O381 2.380 . S
Eu347 O382 2.432 . S
Eu347 O386 2.558 . S
Eu347 O387 2.612 . S
Eu347 O389 2.339 . S
Eu347 O390 2.563 . S
Eu347 O391 2.419 . S
Eu347 C411 2.848 . S
N348 C340 1.362 . S
N348 Eu347 2.657 . S
N348 C349 1.334 . S
C349 N348 1.334 . S
C349 C351 1.413 . S
C349 H356 0.929 . S
C350 C338 1.392 . S
C350 C351 1.367 . S
C350 H358 0.930 . S
C351 C349 1.413 . S
C351 C350 1.367 . S
C351 H353 0.930 . S
H352 C345 0.930 . S
H353 C351 0.930 . S
H354 C342 0.930 . S
H355 C343 0.930 . S
H356 C349 0.929 . S
H357 C371 0.930 . S
H358 C350 0.930 . S
H359 C377 0.930 . S
H360 C368 0.929 . S
H361 C375 0.930 . S
H362 C339 0.931 . S
H363 C369 0.930 . S
H364 C402 0.930 . S
H365 C346 0.930 . S
H366 C401 0.931 . S
N367 Eu336 2.657 . S
N367 C368 1.334 . S
N367 C372 1.362 . S
C368 H360 0.929 . S
C368 N367 1.334 . S
C368 C371 1.413 . S
C369 H363 0.930 . S
C369 C370 1.392 . S
C369 C371 1.367 . S
C370 C369 1.392 . S
C370 C372 1.420 . S
C370 C402 1.423 . S
C371 H357 0.930 . S
C371 C368 1.413 . S
C371 C369 1.367 . S
C372 N367 1.362 . S
C372 C370 1.420 . S
C372 C376 1.429 . S
H373 C378 0.930 . S
N374 Eu336 2.609 . S
N374 C376 1.377 . S
N374 C377 1.321 . S
C375 H361 0.930 . S
C375 C377 1.400 . S
C375 C378 1.386 . S
C376 C372 1.429 . S
C376 N374 1.377 . S
C376 C379 1.411 . S
C377 H359 0.930 . S
C377 N374 1.321 . S
C377 C375 1.400 . S
C378 H373 0.930 . S
C378 C375 1.386 . S
C378 C379 1.395 . S
C379 C376 1.411 . S
C379 C378 1.395 . S
C379 C401 1.420 . S
O380 Eu336 2.558 . S
O380 C400 1.257 . S
O381 Eu336 2.612 . S
O381 Eu347 2.380 . S
O381 C392 1.276 . S
O382 Eu347 2.432 . S
O382 C399 1.264 . S
O383 Eu336 2.339 . S
O383 C399 1.254 . S
O384 Eu336 2.563 . S
O384 C392 1.235 . S
O385 Eu336 2.419 . S
O385 C400 1.249 . S
O386 Eu347 2.558 . S
O386 C411 1.257 . S
O387 Eu336 2.380 . S
O387 Eu347 2.612 . S
O387 C403 1.276 . S
O388 Eu336 2.432 . S
O388 C410 1.264 . S
O389 Eu347 2.339 . S
O389 C410 1.254 . S
O390 Eu347 2.563 . S
O390 C403 1.235 . S
O391 Eu347 2.419 . S
O391 C411 1.249 . S
C392 O381 1.276 . S
C392 O384 1.235 . S
C393 C395 1.393 . S
C393 C397 1.395 . S
C393 C400 1.492 . S
C394 C395 1.392 . S
C394 C396 1.386 . S
C395 C393 1.393 . S
C395 C394 1.392 . S
C395 H412 0.930 . S
C396 C394 1.386 . S
C396 C398 1.395 . S
C396 H413 0.930 . S
C397 C393 1.395 . S
C397 C398 1.379 . S
C397 H414 0.930 . S
C398 C396 1.395 . S
C398 C397 1.379 . S
C398 H415 0.930 . S
C399 O382 1.264 . S
C399 O383 1.254 . S
C400 Eu336 2.848 . S
C400 O380 1.257 . S
C400 O385 1.249 . S
C400 C393 1.492 . S
C401 H366 0.931 . S
C401 C379 1.420 . S
C401 C402 1.351 . S
C402 H364 0.930 . S
C402 C370 1.423 . S
C402 C401 1.351 . S
C403 O387 1.276 . S
C403 O390 1.235 . S
C404 C405 1.393 . S
C404 C408 1.395 . S
C404 C411 1.492 . S
C405 C404 1.393 . S
C405 C406 1.392 . S
C405 H416 0.930 . S
C406 C405 1.392 . S
C406 C407 1.386 . S
C407 C406 1.386 . S
C407 C409 1.395 . S
C407 H417 0.930 . S
C408 C404 1.395 . S
C408 C409 1.379 . S
C408 H418 0.930 . S
C409 C407 1.395 . S
C409 C408 1.379 . S
C409 H419 0.930 . S
C410 O388 1.264 . S
C410 O389 1.254 . S
C411 Eu347 2.848 . S
C411 O386 1.257 . S
C411 O391 1.249 . S
C411 C404 1.492 . S
H412 C395 0.930 . S
H413 C396 0.930 . S
H414 C397 0.930 . S
H415 C398 0.930 . S
H416 C405 0.930 . S
H417 C407 0.930 . S
H418 C408 0.930 . S
H419 C409 0.930 . S
Eu420 N451 2.657 . S
Eu420 N458 2.609 . S
Eu420 O464 2.558 . S
Eu420 O465 2.612 . S
Eu420 O467 2.339 . S
Eu420 O468 2.563 . S
Eu420 O469 2.419 . S
Eu420 O471 2.380 . S
Eu420 O472 2.432 . S
Eu420 C484 2.848 . S
C421 C424 1.429 . S
C421 C425 1.411 . S
C421 N428 1.377 . S
C422 C424 1.420 . S
C422 C426 1.423 . S
C422 C434 1.392 . S
C423 C425 1.420 . S
C423 C426 1.351 . S
C423 H446 0.931 . S
C424 C421 1.429 . S
C424 C422 1.420 . S
C424 N432 1.362 . S
C425 C421 1.411 . S
C425 C423 1.420 . S
C425 C430 1.395 . S
C426 C422 1.423 . S
C426 C423 1.351 . S
C426 H438 0.930 . S
C427 C429 1.400 . S
C427 C430 1.386 . S
C427 H439 0.930 . S
N428 C421 1.377 . S
N428 C429 1.321 . S
N428 Eu431 2.609 . S
C429 C427 1.400 . S
C429 N428 1.321 . S
C429 H436 0.930 . S
C430 C425 1.395 . S
C430 C427 1.386 . S
C430 H449 0.930 . S
Eu431 N428 2.609 . S
Eu431 N432 2.657 . S
Eu431 O465 2.380 . S
Eu431 O466 2.432 . S
Eu431 O470 2.558 . S
Eu431 O471 2.612 . S
Eu431 O473 2.339 . S
Eu431 O474 2.563 . S
Eu431 O475 2.419 . S
Eu431 C495 2.848 . S
N432 C424 1.362 . S
N432 Eu431 2.657 . S
N432 C433 1.334 . S
C433 N432 1.334 . S
C433 C435 1.413 . S
C433 H440 0.929 . S
C434 C422 1.392 . S
C434 C435 1.367 . S
C434 H442 0.930 . S
C435 C433 1.413 . S
C435 C434 1.367 . S
C435 H437 0.930 . S
H436 C429 0.930 . S
H437 C435 0.930 . S
H438 C426 0.930 . S
H439 C427 0.930 . S
H440 C433 0.929 . S
H441 C455 0.930 . S
H442 C434 0.930 . S
H443 C461 0.930 . S
H444 C452 0.929 . S
H445 C459 0.930 . S
H446 C423 0.931 . S
H447 C453 0.930 . S
H448 C486 0.930 . S
H449 C430 0.930 . S
H450 C485 0.931 . S
N451 Eu420 2.657 . S
N451 C452 1.334 . S
N451 C456 1.362 . S
C452 H444 0.929 . S
C452 N451 1.334 . S
C452 C455 1.413 . S
C453 H447 0.930 . S
C453 C454 1.392 . S
C453 C455 1.367 . S
C454 C453 1.392 . S
C454 C456 1.420 . S
C454 C486 1.423 . S
C455 H441 0.930 . S
C455 C452 1.413 . S
C455 C453 1.367 . S
C456 N451 1.362 . S
C456 C454 1.420 . S
C456 C460 1.429 . S
H457 C462 0.930 . S
N458 Eu420 2.609 . S
N458 C460 1.377 . S
N458 C461 1.321 . S
C459 H445 0.930 . S
C459 C461 1.400 . S
C459 C462 1.386 . S
C460 C456 1.429 . S
C460 N458 1.377 . S
C460 C463 1.411 . S
C461 H443 0.930 . S
C461 N458 1.321 . S
C461 C459 1.400 . S
C462 H457 0.930 . S
C462 C459 1.386 . S
C462 C463 1.395 . S
C463 C460 1.411 . S
C463 C462 1.395 . S
C463 C485 1.420 . S
O464 Eu420 2.558 . S
O464 C484 1.257 . S
O465 Eu420 2.612 . S
O465 Eu431 2.380 . S
O465 C476 1.276 . S
O466 Eu431 2.432 . S
O466 C483 1.264 . S
O467 Eu420 2.339 . S
O467 C483 1.254 . S
O468 Eu420 2.563 . S
O468 C476 1.235 . S
O469 Eu420 2.419 . S
O469 C484 1.249 . S
O470 Eu431 2.558 . S
O470 C495 1.257 . S
O471 Eu420 2.380 . S
O471 Eu431 2.612 . S
O471 C487 1.276 . S
O472 Eu420 2.432 . S
O472 C494 1.264 . S
O473 Eu431 2.339 . S
O473 C494 1.254 . S
O474 Eu431 2.563 . S
O474 C487 1.235 . S
O475 Eu431 2.419 . S
O475 C495 1.249 . S
C476 O465 1.276 . S
C476 O468 1.235 . S
C477 C479 1.393 . S
C477 C481 1.395 . S
C477 C484 1.492 . S
C478 C479 1.392 . S
C478 C480 1.386 . S
C479 C477 1.393 . S
C479 C478 1.392 . S
C479 H496 0.930 . S
C480 C478 1.386 . S
C480 C482 1.395 . S
C480 H497 0.930 . S
C481 C477 1.395 . S
C481 C482 1.379 . S
C481 H498 0.930 . S
C482 C480 1.395 . S
C482 C481 1.379 . S
C482 H499 0.930 . S
C483 O466 1.264 . S
C483 O467 1.254 . S
C484 Eu420 2.848 . S
C484 O464 1.257 . S
C484 O469 1.249 . S
C484 C477 1.492 . S
C485 H450 0.931 . S
C485 C463 1.420 . S
C485 C486 1.351 . S
C486 H448 0.930 . S
C486 C454 1.423 . S
C486 C485 1.351 . S
C487 O471 1.276 . S
C487 O474 1.235 . S
C488 C489 1.393 . S
C488 C492 1.395 . S
C488 C495 1.492 . S
C489 C488 1.393 . S
C489 C490 1.392 . S
C489 H500 0.930 . S
C490 C489 1.392 . S
C490 C491 1.386 . S
C491 C490 1.386 . S
C491 C493 1.395 . S
C491 H501 0.930 . S
C492 C488 1.395 . S
C492 C493 1.379 . S
C492 H502 0.930 . S
C493 C491 1.395 . S
C493 C492 1.379 . S
C493 H503 0.930 . S
C494 O472 1.264 . S
C494 O473 1.254 . S
C495 Eu431 2.848 . S
C495 O470 1.257 . S
C495 O475 1.249 . S
C495 C488 1.492 . S
H496 C479 0.930 . S
H497 C480 0.930 . S
H498 C481 0.930 . S
H499 C482 0.930 . S
H500 C489 0.930 . S
H501 C491 0.930 . S
H502 C492 0.930 . S
H503 C493 0.930 . S
Eu504 N535 2.657 . S
Eu504 N542 2.609 . S
Eu504 O548 2.558 . S
Eu504 O549 2.612 . S
Eu504 O551 2.339 . S
Eu504 O552 2.563 . S
Eu504 O553 2.419 . S
Eu504 O555 2.380 . S
Eu504 O556 2.432 . S
Eu504 C568 2.848 . S
C505 C508 1.429 . S
C505 C509 1.411 . S
C505 N512 1.377 . S
C506 C508 1.420 . S
C506 C510 1.423 . S
C506 C518 1.392 . S
C507 C509 1.420 . S
C507 C510 1.351 . S
C507 H530 0.931 . S
C508 C505 1.429 . S
C508 C506 1.420 . S
C508 N516 1.362 . S
C509 C505 1.411 . S
C509 C507 1.420 . S
C509 C514 1.395 . S
C510 C506 1.423 . S
C510 C507 1.351 . S
C510 H522 0.930 . S
C511 C513 1.400 . S
C511 C514 1.386 . S
C511 H523 0.930 . S
N512 C505 1.377 . S
N512 C513 1.321 . S
N512 Eu515 2.609 . S
C513 C511 1.400 . S
C513 N512 1.321 . S
C513 H520 0.930 . S
C514 C509 1.395 . S
C514 C511 1.386 . S
C514 H533 0.930 . S
Eu515 N512 2.609 . S
Eu515 N516 2.657 . S
Eu515 O549 2.380 . S
Eu515 O550 2.432 . S
Eu515 O554 2.558 . S
Eu515 O555 2.612 . S
Eu515 O557 2.339 . S
Eu515 O558 2.563 . S
Eu515 O559 2.419 . S
Eu515 C579 2.848 . S
N516 C508 1.362 . S
N516 Eu515 2.657 . S
N516 C517 1.334 . S
C517 N516 1.334 . S
C517 C519 1.413 . S
C517 H524 0.929 . S
C518 C506 1.392 . S
C518 C519 1.367 . S
C518 H526 0.930 . S
C519 C517 1.413 . S
C519 C518 1.367 . S
C519 H521 0.930 . S
H520 C513 0.930 . S
H521 C519 0.930 . S
H522 C510 0.930 . S
H523 C511 0.930 . S
H524 C517 0.929 . S
H525 C539 0.930 . S
H526 C518 0.930 . S
H527 C545 0.930 . S
H528 C536 0.929 . S
H529 C543 0.930 . S
H530 C507 0.931 . S
H531 C537 0.930 . S
H532 C570 0.930 . S
H533 C514 0.930 . S
H534 C569 0.931 . S
N535 Eu504 2.657 . S
N535 C536 1.334 . S
N535 C540 1.362 . S
C536 H528 0.929 . S
C536 N535 1.334 . S
C536 C539 1.413 . S
C537 H531 0.930 . S
C537 C538 1.392 . S
C537 C539 1.367 . S
C538 C537 1.392 . S
C538 C540 1.420 . S
C538 C570 1.423 . S
C539 H525 0.930 . S
C539 C536 1.413 . S
C539 C537 1.367 . S
C540 N535 1.362 . S
C540 C538 1.420 . S
C540 C544 1.429 . S
H541 C546 0.930 . S
N542 Eu504 2.609 . S
N542 C544 1.377 . S
N542 C545 1.321 . S
C543 H529 0.930 . S
C543 C545 1.400 . S
C543 C546 1.386 . S
C544 C540 1.429 . S
C544 N542 1.377 . S
C544 C547 1.411 . S
C545 H527 0.930 . S
C545 N542 1.321 . S
C545 C543 1.400 . S
C546 H541 0.930 . S
C546 C543 1.386 . S
C546 C547 1.395 . S
C547 C544 1.411 . S
C547 C546 1.395 . S
C547 C569 1.420 . S
O548 Eu504 2.558 . S
O548 C568 1.257 . S
O549 Eu504 2.612 . S
O549 Eu515 2.380 . S
O549 C560 1.276 . S
O550 Eu515 2.432 . S
O550 C567 1.264 . S
O551 Eu504 2.339 . S
O551 C567 1.254 . S
O552 Eu504 2.563 . S
O552 C560 1.235 . S
O553 Eu504 2.419 . S
O553 C568 1.249 . S
O554 Eu515 2.558 . S
O554 C579 1.257 . S
O555 Eu504 2.380 . S
O555 Eu515 2.612 . S
O555 C571 1.276 . S
O556 Eu504 2.432 . S
O556 C578 1.264 . S
O557 Eu515 2.339 . S
O557 C578 1.254 . S
O558 Eu515 2.563 . S
O558 C571 1.235 . S
O559 Eu515 2.419 . S
O559 C579 1.249 . S
C560 O549 1.276 . S
C560 O552 1.235 . S
C561 C563 1.393 . S
C561 C565 1.395 . S
C561 C568 1.492 . S
C562 C563 1.392 . S
C562 C564 1.386 . S
C563 C561 1.393 . S
C563 C562 1.392 . S
C563 H580 0.930 . S
C564 C562 1.386 . S
C564 C566 1.395 . S
C564 H581 0.930 . S
C565 C561 1.395 . S
C565 C566 1.379 . S
C565 H582 0.930 . S
C566 C564 1.395 . S
C566 C565 1.379 . S
C566 H583 0.930 . S
C567 O550 1.264 . S
C567 O551 1.254 . S
C568 Eu504 2.848 . S
C568 O548 1.257 . S
C568 O553 1.249 . S
C568 C561 1.492 . S
C569 H534 0.931 . S
C569 C547 1.420 . S
C569 C570 1.351 . S
C570 H532 0.930 . S
C570 C538 1.423 . S
C570 C569 1.351 . S
C571 O555 1.276 . S
C571 O558 1.235 . S
C572 C573 1.393 . S
C572 C576 1.395 . S
C572 C579 1.492 . S
C573 C572 1.393 . S
C573 C574 1.392 . S
C573 H584 0.930 . S
C574 C573 1.392 . S
C574 C575 1.386 . S
C575 C574 1.386 . S
C575 C577 1.395 . S
C575 H585 0.930 . S
C576 C572 1.395 . S
C576 C577 1.379 . S
C576 H586 0.930 . S
C577 C575 1.395 . S
C577 C576 1.379 . S
C577 H587 0.930 . S
C578 O556 1.264 . S
C578 O557 1.254 . S
C579 Eu515 2.848 . S
C579 O554 1.257 . S
C579 O559 1.249 . S
C579 C572 1.492 . S
H580 C563 0.930 . S
H581 C564 0.930 . S
H582 C565 0.930 . S
H583 C566 0.930 . S
H584 C573 0.930 . S
H585 C575 0.930 . S
H586 C576 0.930 . S
H587 C577 0.930 . S
Eu588 N619 2.657 . S
Eu588 N626 2.609 . S
Eu588 O632 2.558 . S
Eu588 O633 2.612 . S
Eu588 O635 2.339 . S
Eu588 O636 2.563 . S
Eu588 O637 2.419 . S
Eu588 O639 2.380 . S
Eu588 O640 2.432 . S
Eu588 C652 2.848 . S
C589 C592 1.429 . S
C589 C593 1.411 . S
C589 N596 1.377 . S
C590 C592 1.420 . S
C590 C594 1.423 . S
C590 C602 1.392 . S
C591 C593 1.420 . S
C591 C594 1.351 . S
C591 H614 0.931 . S
C592 C589 1.429 . S
C592 C590 1.420 . S
C592 N600 1.362 . S
C593 C589 1.411 . S
C593 C591 1.420 . S
C593 C598 1.395 . S
C594 C590 1.423 . S
C594 C591 1.351 . S
C594 H606 0.930 . S
C595 C597 1.400 . S
C595 C598 1.386 . S
C595 H607 0.930 . S
N596 C589 1.377 . S
N596 C597 1.321 . S
N596 Eu599 2.609 . S
C597 C595 1.400 . S
C597 N596 1.321 . S
C597 H604 0.930 . S
C598 C593 1.395 . S
C598 C595 1.386 . S
C598 H617 0.930 . S
Eu599 N596 2.609 . S
Eu599 N600 2.657 . S
Eu599 O633 2.380 . S
Eu599 O634 2.432 . S
Eu599 O638 2.558 . S
Eu599 O639 2.612 . S
Eu599 O641 2.339 . S
Eu599 O642 2.563 . S
Eu599 O643 2.419 . S
Eu599 C663 2.848 . S
N600 C592 1.362 . S
N600 Eu599 2.657 . S
N600 C601 1.334 . S
C601 N600 1.334 . S
C601 C603 1.413 . S
C601 H608 0.929 . S
C602 C590 1.392 . S
C602 C603 1.367 . S
C602 H610 0.930 . S
C603 C601 1.413 . S
C603 C602 1.367 . S
C603 H605 0.930 . S
H604 C597 0.930 . S
H605 C603 0.930 . S
H606 C594 0.930 . S
H607 C595 0.930 . S
H608 C601 0.929 . S
H609 C623 0.930 . S
H610 C602 0.930 . S
H611 C629 0.930 . S
H612 C620 0.929 . S
H613 C627 0.930 . S
H614 C591 0.931 . S
H615 C621 0.930 . S
H616 C654 0.930 . S
H617 C598 0.930 . S
H618 C653 0.931 . S
N619 Eu588 2.657 . S
N619 C620 1.334 . S
N619 C624 1.362 . S
C620 H612 0.929 . S
C620 N619 1.334 . S
C620 C623 1.413 . S
C621 H615 0.930 . S
C621 C622 1.392 . S
C621 C623 1.367 . S
C622 C621 1.392 . S
C622 C624 1.420 . S
C622 C654 1.423 . S
C623 H609 0.930 . S
C623 C620 1.413 . S
C623 C621 1.367 . S
C624 N619 1.362 . S
C624 C622 1.420 . S
C624 C628 1.429 . S
H625 C630 0.930 . S
N626 Eu588 2.609 . S
N626 C628 1.377 . S
N626 C629 1.321 . S
C627 H613 0.930 . S
C627 C629 1.400 . S
C627 C630 1.386 . S
C628 C624 1.429 . S
C628 N626 1.377 . S
C628 C631 1.411 . S
C629 H611 0.930 . S
C629 N626 1.321 . S
C629 C627 1.400 . S
C630 H625 0.930 . S
C630 C627 1.386 . S
C630 C631 1.395 . S
C631 C628 1.411 . S
C631 C630 1.395 . S
C631 C653 1.420 . S
O632 Eu588 2.558 . S
O632 C652 1.257 . S
O633 Eu588 2.612 . S
O633 Eu599 2.380 . S
O633 C644 1.276 . S
O634 Eu599 2.432 . S
O634 C651 1.264 . S
O635 Eu588 2.339 . S
O635 C651 1.254 . S
O636 Eu588 2.563 . S
O636 C644 1.235 . S
O637 Eu588 2.419 . S
O637 C652 1.249 . S
O638 Eu599 2.558 . S
O638 C663 1.257 . S
O639 Eu588 2.380 . S
O639 Eu599 2.612 . S
O639 C655 1.276 . S
O640 Eu588 2.432 . S
O640 C662 1.264 . S
O641 Eu599 2.339 . S
O641 C662 1.254 . S
O642 Eu599 2.563 . S
O642 C655 1.235 . S
O643 Eu599 2.419 . S
O643 C663 1.249 . S
C644 O633 1.276 . S
C644 O636 1.235 . S
C645 C647 1.393 . S
C645 C649 1.395 . S
C645 C652 1.492 . S
C646 C647 1.392 . S
C646 C648 1.386 . S
C647 C645 1.393 . S
C647 C646 1.392 . S
C647 H664 0.930 . S
C648 C646 1.386 . S
C648 C650 1.395 . S
C648 H665 0.930 . S
C649 C645 1.395 . S
C649 C650 1.379 . S
C649 H666 0.930 . S
C650 C648 1.395 . S
C650 C649 1.379 . S
C650 H667 0.930 . S
C651 O634 1.264 . S
C651 O635 1.254 . S
C652 Eu588 2.848 . S
C652 O632 1.257 . S
C652 O637 1.249 . S
C652 C645 1.492 . S
C653 H618 0.931 . S
C653 C631 1.420 . S
C653 C654 1.351 . S
C654 H616 0.930 . S
C654 C622 1.423 . S
C654 C653 1.351 . S
C655 O639 1.276 . S
C655 O642 1.235 . S
C656 C657 1.393 . S
C656 C660 1.395 . S
C656 C663 1.492 . S
C657 C656 1.393 . S
C657 C658 1.392 . S
C657 H668 0.930 . S
C658 C657 1.392 . S
C658 C659 1.386 . S
C659 C658 1.386 . S
C659 C661 1.395 . S
C659 H669 0.930 . S
C660 C656 1.395 . S
C660 C661 1.379 . S
C660 H670 0.930 . S
C661 C659 1.395 . S
C661 C660 1.379 . S
C661 H671 0.930 . S
C662 O640 1.264 . S
C662 O641 1.254 . S
C663 Eu599 2.848 . S
C663 O638 1.257 . S
C663 O643 1.249 . S
C663 C656 1.492 . S
H664 C647 0.930 . S
H665 C648 0.930 . S
H666 C649 0.930 . S
H667 C650 0.930 . S
H668 C657 0.930 . S
H669 C659 0.930 . S
H670 C660 0.930 . S
H671 C661 0.930 . S
Fe672 O673 1.886 1_455 S
Fe672 O676 1.715 . S
Fe672 O681 2.077 1_455 S
Fe672 O686 1.935 . S
Fe672 O692 2.077 1_455 S
Fe672 O701 1.935 . S
O673 Fe672 1.886 1_655 S
O673 Fe675 1.715 1_545 S
Fe674 O676 1.886 . S
Fe674 O677 1.715 1_545 S
Fe674 O684 1.935 1_545 S
Fe674 O685 2.077 . S
Fe674 O691 1.935 1_545 S
Fe674 O700 2.077 . S
Fe675 O673 1.715 1_565 S
Fe675 O678 1.886 . S
Fe675 O682 1.935 1_565 S
Fe675 O687 2.077 . S
Fe675 O693 1.935 1_565 S
Fe675 O697 2.077 . S
O676 Fe672 1.715 . S
O676 Fe674 1.886 . S
O677 Fe674 1.715 1_565 S
O677 Fe679 1.886 1_455 S
O678 Fe675 1.886 . S
O678 Fe679 1.715 . S
Fe679 O677 1.886 1_655 S
Fe679 O678 1.715 . S
Fe679 O683 2.077 1_655 S
Fe679 O688 1.935 . S
Fe679 O690 2.077 1_655 S
Fe679 O698 1.935 . S
C680 O692 1.381 . S
C680 O693 1.421 . S
O681 Fe672 2.077 1_655 S
O681 C694 1.381 . S
O682 Fe675 1.935 1_545 S
O682 C694 1.421 . S
O683 Fe679 2.077 1_455 S
O683 C699 1.381 . S
O684 Fe674 1.935 1_565 S
O684 C699 1.421 . S
O685 Fe674 2.077 . S
O685 C689 1.381 . S
O686 Fe672 1.935 . S
O686 C689 1.421 . S
O687 Fe675 2.077 . S
O687 C695 1.381 . S
O688 Fe679 1.935 . S
O688 C695 1.421 . S
C689 O685 1.381 . S
C689 O686 1.421 . S
O690 Fe679 2.077 1_455 S
O690 C702 1.381 . S
O691 Fe674 1.935 1_565 S
O691 C702 1.421 . S
O692 Fe672 2.077 1_655 S
O692 C680 1.381 . S
O693 Fe675 1.935 1_545 S
O693 C680 1.421 . S
C694 O681 1.381 . S
C694 O682 1.421 . S
C695 O687 1.381 . S
C695 O688 1.421 . S
C696 O697 1.381 . S
C696 O698 1.421 . S
O697 Fe675 2.077 . S
O697 C696 1.381 . S
O698 Fe679 1.935 . S
O698 C696 1.421 . S
C699 O683 1.381 . S
C699 O684 1.421 . S
O700 Fe674 2.077 . S
O700 C703 1.381 . S
O701 Fe672 1.935 . S
O701 C703 1.421 . S
C702 O690 1.381 . S
C702 O691 1.421 . S
C703 O700 1.381 . S
C703 O701 1.421 . S
Fe704 O705 1.886 . S
Fe704 O708 1.713 . S
Fe704 O713 2.077 1_554 S
Fe704 O718 1.935 1_554 S
Fe704 O724 2.077 . S
Fe704 O733 1.935 . S
O705 Fe704 1.886 . S
O705 Fe707 1.715 1_565 S
Fe706 O708 1.888 1_556 S
Fe706 O709 1.715 1_565 S
Fe706 O716 1.935 1_565 S
Fe706 O717 2.077 . S
Fe706 O723 1.935 1_566 S
Fe706 O732 2.077 1_556 S
Fe707 O705 1.715 1_545 S
Fe707 O710 1.886 1_554 S
Fe707 O714 1.935 1_544 S
Fe707 O719 2.077 1_554 S
Fe707 O725 1.935 1_545 S
Fe707 O729 2.077 . S
O708 Fe704 1.713 . S
O708 Fe706 1.888 1_554 S
O709 Fe706 1.715 1_545 S
O709 Fe711 1.886 . S
O710 Fe707 1.886 1_556 S
O710 Fe711 1.715 . S
Fe711 O709 1.886 . S
Fe711 O710 1.715 . S
Fe711 O715 2.077 . S
Fe711 O720 1.935 . S
Fe711 O722 2.077 1_556 S
Fe711 O730 1.935 1_556 S
C712 O724 1.381 . S
C712 O725 1.421 . S
O713 Fe704 2.077 1_556 S
O713 C726 1.381 . S
O714 Fe707 1.935 1_566 S
O714 C726 1.421 . S
O715 Fe711 2.077 . S
O715 C731 1.381 . S
O716 Fe706 1.935 1_545 S
O716 C731 1.421 . S
O717 Fe706 2.077 . S
O717 C721 1.381 . S
O718 Fe704 1.935 1_556 S
O718 C721 1.421 . S
O719 Fe707 2.077 1_556 S
O719 C727 1.381 . S
O720 Fe711 1.935 . S
O720 C727 1.421 . S
C721 O717 1.381 . S
C721 O718 1.421 . S
O722 Fe711 2.077 1_554 S
O722 C734 1.381 . S
O723 Fe706 1.935 1_544 S
O723 C734 1.421 . S
O724 Fe704 2.077 . S
O724 C712 1.381 . S
O725 Fe707 1.935 1_565 S
O725 C712 1.421 . S
C726 O713 1.381 . S
C726 O714 1.421 . S
C727 O719 1.381 . S
C727 O720 1.421 . S
C728 O729 1.381 . S
C728 O730 1.421 . S
O729 Fe707 2.077 . S
O729 C728 1.381 . S
O730 Fe711 1.935 1_554 S
O730 C728 1.421 . S
C731 O715 1.381 . S
C731 O716 1.421 . S
O732 Fe706 2.077 1_554 S
O732 C735 1.381 . S
O733 Fe704 1.935 . S
O733 C735 1.421 . S
C734 O722 1.381 . S
C734 O723 1.421 . S
C735 O732 1.381 . S
C735 O733 1.421 . S
Fe736 O737 1.886 1_455 S
Fe736 O740 1.715 . S
Fe736 O745 2.077 1_455 S
Fe736 O750 1.935 . S
Fe736 O756 2.077 1_456 S
Fe736 O765 1.935 1_556 S
O737 Fe736 1.886 1_655 S
O737 Fe739 1.715 . S
Fe738 O740 1.886 1_554 S
Fe738 O741 1.715 . S
Fe738 O748 1.935 1_554 S
Fe738 O749 2.077 1_554 S
Fe738 O755 1.935 . S
Fe738 O764 2.077 . S
Fe739 O737 1.715 . S
Fe739 O742 1.887 1_556 S
Fe739 O746 1.935 . S
Fe739 O751 2.077 . S
Fe739 O757 1.935 1_556 S
Fe739 O761 2.077 1_556 S
O740 Fe736 1.715 . S
O740 Fe738 1.886 1_556 S
O741 Fe738 1.715 . S
O741 Fe743 1.886 1_455 S
O742 Fe739 1.887 1_554 S
O742 Fe743 1.713 . S
Fe743 O741 1.886 1_655 S
Fe743 O742 1.713 . S
Fe743 O747 2.077 1_654 S
Fe743 O752 1.935 1_554 S
Fe743 O754 2.077 1_655 S
Fe743 O762 1.935 . S
C744 O756 1.381 . S
C744 O757 1.421 . S
O745 Fe736 2.077 1_655 S
O745 C758 1.381 . S
O746 Fe739 1.935 . S
O746 C758 1.421 . S
O747 Fe743 2.077 1_456 S
O747 C763 1.381 . S
O748 Fe738 1.935 1_556 S
O748 C763 1.421 . S
O749 Fe738 2.077 1_556 S
O749 C753 1.381 . S
O750 Fe736 1.935 . S
O750 C753 1.421 . S
O751 Fe739 2.077 . S
O751 C759 1.381 . S
O752 Fe743 1.935 1_556 S
O752 C759 1.421 . S
C753 O749 1.381 . S
C753 O750 1.421 . S
O754 Fe743 2.077 1_455 S
O754 C766 1.381 . S
O755 Fe738 1.935 . S
O755 C766 1.421 . S
O756 Fe736 2.077 1_654 S
O756 C744 1.381 . S
O757 Fe739 1.935 1_554 S
O757 C744 1.421 . S
C758 O745 1.381 . S
C758 O746 1.421 . S
C759 O751 1.381 . S
C759 O752 1.421 . S
C760 O761 1.381 . S
C760 O762 1.421 . S
O761 Fe739 2.077 1_554 S
O761 C760 1.381 . S
O762 Fe743 1.935 . S
O762 C760 1.421 . S
C763 O747 1.381 . S
C763 O748 1.421 . S
O764 Fe738 2.077 . S
O764 C767 1.381 . S
O765 Fe736 1.935 1_554 S
O765 C767 1.421 . S
C766 O754 1.381 . S
C766 O755 1.421 . S
C767 O764 1.381 . S
C767 O765 1.421 . S
Fe768 O769 1.886 . S
Fe768 O772 1.715 . S
Fe768 O777 2.077 . S
Fe768 O782 1.935 . S
Fe768 O788 2.077 . S
Fe768 O797 1.935 . S
O769 Fe768 1.886 . S
O769 Fe771 1.715 1_556 S
Fe770 O772 1.886 . S
Fe770 O773 1.715 1_556 S
Fe770 O780 1.935 1_556 S
Fe770 O781 2.077 . S
Fe770 O787 1.935 1_556 S
Fe770 O796 2.077 . S
Fe771 O769 1.715 1_554 S
Fe771 O774 1.886 . S
Fe771 O778 1.935 1_554 S
Fe771 O783 2.077 . S
Fe771 O789 1.935 1_554 S
Fe771 O793 2.077 . S
O772 Fe768 1.715 . S
O772 Fe770 1.886 . S
O773 Fe770 1.715 1_554 S
O773 Fe775 1.886 . S
O774 Fe771 1.886 . S
O774 Fe775 1.715 . S
Fe775 O773 1.886 . S
Fe775 O774 1.715 . S
Fe775 O779 2.077 . S
Fe775 O784 1.935 . S
Fe775 O786 2.077 . S
Fe775 O794 1.935 . S
C776 O788 1.381 . S
C776 O789 1.421 . S
O777 Fe768 2.077 . S
O777 C790 1.381 . S
O778 Fe771 1.935 1_556 S
O778 C790 1.421 . S
O779 Fe775 2.077 . S
O779 C795 1.381 . S
O780 Fe770 1.935 1_554 S
O780 C795 1.421 . S
O781 Fe770 2.077 . S
O781 C785 1.381 . S
O782 Fe768 1.935 . S
O782 C785 1.421 . S
O783 Fe771 2.077 . S
O783 C791 1.381 . S
O784 Fe775 1.935 . S
O784 C791 1.421 . S
C785 O781 1.381 . S
C785 O782 1.421 . S
O786 Fe775 2.077 . S
O786 C798 1.381 . S
O787 Fe770 1.935 1_554 S
O787 C798 1.421 . S
O788 Fe768 2.077 . S
O788 C776 1.381 . S
O789 Fe771 1.935 1_556 S
O789 C776 1.421 . S
C790 O777 1.381 . S
C790 O778 1.421 . S
C791 O783 1.381 . S
C791 O784 1.421 . S
C792 O793 1.381 . S
C792 O794 1.421 . S
O793 Fe771 2.077 . S
O793 C792 1.381 . S
O794 Fe775 1.935 . S
O794 C792 1.421 . S
C795 O779 1.381 . S
C795 O780 1.421 . S
O796 Fe770 2.077 . S
O796 C799 1.381 . S
O797 Fe768 1.935 . S
O797 C799 1.421 . S
C798 O786 1.381 . S
C798 O787 1.421 . S
C799 O796 1.381 . S
C799 O797 1.421 . S
Fe800 O801 1.886 . S
Fe800 O804 1.715 . S
Fe800 O809 2.077 1_655 S
Fe800 O814 1.935 1_655 S
Fe800 O820 2.077 . S
Fe800 O829 1.935 . S
O801 Fe800 1.886 . S
O801 Fe803 1.715 1_655 S
Fe802 O804 1.886 . S
Fe802 O805 1.715 1_655 S
Fe802 O812 1.935 1_655 S
Fe802 O813 2.077 1_655 S
Fe802 O819 1.935 . S
Fe802 O828 2.077 . S
Fe803 O801 1.715 1_455 S
Fe803 O806 1.886 . S
Fe803 O810 1.935 . S
Fe803 O815 2.077 . S
Fe803 O821 1.935 1_455 S
Fe803 O825 2.077 1_455 S
O804 Fe800 1.715 . S
O804 Fe802 1.886 . S
O805 Fe802 1.715 1_455 S
O805 Fe807 1.886 . S
O806 Fe803 1.886 . S
O806 Fe807 1.715 . S
Fe807 O805 1.886 . S
Fe807 O806 1.715 . S
Fe807 O811 2.077 . S
Fe807 O816 1.935 . S
Fe807 O818 2.077 1_455 S
Fe807 O826 1.935 1_455 S
C808 O820 1.381 . S
C808 O821 1.421 . S
O809 Fe800 2.077 1_455 S
O809 C822 1.381 . S
O810 Fe803 1.935 . S
O810 C822 1.421 . S
O811 Fe807 2.077 . S
O811 C827 1.381 . S
O812 Fe802 1.935 1_455 S
O812 C827 1.421 . S
O813 Fe802 2.077 1_455 S
O813 C817 1.381 . S
O814 Fe800 1.935 1_455 S
O814 C817 1.421 . S
O815 Fe803 2.077 . S
O815 C823 1.381 . S
O816 Fe807 1.935 . S
O816 C823 1.421 . S
C817 O813 1.381 . S
C817 O814 1.421 . S
O818 Fe807 2.077 1_655 S
O818 C830 1.381 . S
O819 Fe802 1.935 . S
O819 C830 1.421 . S
O820 Fe800 2.077 . S
O820 C808 1.381 . S
O821 Fe803 1.935 1_655 S
O821 C808 1.421 . S
C822 O809 1.381 . S
C822 O810 1.421 . S
C823 O815 1.381 . S
C823 O816 1.421 . S
C824 O825 1.381 . S
C824 O826 1.421 . S
O825 Fe803 2.077 1_655 S
O825 C824 1.381 . S
O826 Fe807 1.935 1_655 S
O826 C824 1.421 . S
C827 O811 1.381 . S
C827 O812 1.421 . S
O828 Fe802 2.077 . S
O828 C831 1.381 . S
O829 Fe800 1.935 . S
O829 C831 1.421 . S
C830 O818 1.381 . S
C830 O819 1.421 . S
C831 O828 1.381 . S
C831 O829 1.421 . S
Fe832 O833 1.886 . S
Fe832 O836 1.715 . S
Fe832 O841 2.077 . S
Fe832 O846 1.935 . S
Fe832 O852 2.077 . S
Fe832 O861 1.935 . S
O833 Fe832 1.886 . S
O833 Fe835 1.715 . S
Fe834 O836 1.886 1_545 S
Fe834 O837 1.715 . S
Fe834 O844 1.935 . S
Fe834 O845 2.077 1_545 S
Fe834 O851 1.935 . S
Fe834 O860 2.077 1_545 S
Fe835 O833 1.715 . S
Fe835 O838 1.886 1_565 S
Fe835 O842 1.935 . S
Fe835 O847 2.077 1_565 S
Fe835 O853 1.935 . S
Fe835 O857 2.077 1_565 S
O836 Fe832 1.715 . S
O836 Fe834 1.886 1_565 S
O837 Fe834 1.715 . S
O837 Fe839 1.886 . S
O838 Fe835 1.886 1_545 S
O838 Fe839 1.715 . S
Fe839 O837 1.886 . S
Fe839 O838 1.715 . S
Fe839 O843 2.077 . S
Fe839 O848 1.935 . S
Fe839 O850 2.077 . S
Fe839 O858 1.935 . S
C840 O852 1.381 . S
C840 O853 1.421 . S
O841 Fe832 2.077 . S
O841 C854 1.381 . S
O842 Fe835 1.935 . S
O842 C854 1.421 . S
O843 Fe839 2.077 . S
O843 C859 1.381 . S
O844 Fe834 1.935 . S
O844 C859 1.421 . S
O845 Fe834 2.077 1_565 S
O845 C849 1.381 . S
O846 Fe832 1.935 . S
O846 C849 1.421 . S
O847 Fe835 2.077 1_545 S
O847 C855 1.381 . S
O848 Fe839 1.935 . S
O848 C855 1.421 . S
C849 O845 1.381 . S
C849 O846 1.421 . S
O850 Fe839 2.077 . S
O850 C862 1.381 . S
O851 Fe834 1.935 . S
O851 C862 1.421 . S
O852 Fe832 2.077 . S
O852 C840 1.381 . S
O853 Fe835 1.935 . S
O853 C840 1.421 . S
C854 O841 1.381 . S
C854 O842 1.421 . S
C855 O847 1.381 . S
C855 O848 1.421 . S
C856 O857 1.381 . S
C856 O858 1.421 . S
O857 Fe835 2.077 1_545 S
O857 C856 1.381 . S
O858 Fe839 1.935 . S
O858 C856 1.421 . S
C859 O843 1.381 . S
C859 O844 1.421 . S
O860 Fe834 2.077 1_565 S
O860 C863 1.381 . S
O861 Fe832 1.935 . S
O861 C863 1.421 . S
C862 O850 1.381 . S
C862 O851 1.421 . S
C863 O860 1.381 . S
C863 O861 1.421 . S
C864 C865 1.387 . S
C864 H868 0.950 . S
C864 C873 1.390 . S
C865 C864 1.387 . S
C865 C867 1.387 . S
H866 C873 0.950 . S
C867 C865 1.387 . S
C867 C869 1.390 . S
C867 H871 0.950 . S
H868 C864 0.950 . S
C869 C867 1.390 . S
C869 C870 1.387 . S
C869 H872 0.950 . S
C870 C869 1.387 . S
C870 C873 1.387 . S
H871 C867 0.950 . S
H872 C869 0.950 . S
C873 C864 1.390 . S
C873 H866 0.950 . S
C873 C870 1.387 . S
C874 C875 1.387 . S
C874 H878 0.950 . S
C874 C883 1.390 . S
C875 C874 1.387 . S
C875 C877 1.387 . S
H876 C883 0.950 . S
C877 C875 1.387 . S
C877 C879 1.390 . S
C877 H881 0.950 . S
H878 C874 0.950 . S
C879 C877 1.390 . S
C879 C880 1.387 . S
C879 H882 0.950 . S
C880 C879 1.387 . S
C880 C883 1.387 . S
H881 C877 0.950 . S
H882 C879 0.950 . S
C883 C874 1.390 . S
C883 H876 0.950 . S
C883 C880 1.387 . S
C884 C885 1.387 . S
C884 H888 0.950 . S
C884 C893 1.390 . S
C885 C884 1.387 . S
C885 C887 1.387 . S
H886 C893 0.950 . S
C887 C885 1.387 . S
C887 C889 1.390 . S
C887 H891 0.950 . S
H888 C884 0.950 . S
C889 C887 1.390 . S
C889 C890 1.387 . S
C889 H892 0.950 . S
C890 C889 1.387 . S
C890 C893 1.387 . S
H891 C887 0.950 . S
H892 C889 0.950 . S
C893 C884 1.390 . S
C893 H886 0.950 . S
C893 C890 1.387 . S
C894 C895 1.387 . S
C894 H898 0.950 . S
C894 C903 1.390 . S
C895 C894 1.387 . S
C895 C897 1.387 . S
H896 C903 0.950 . S
C897 C895 1.387 . S
C897 C899 1.390 . S
C897 H901 0.950 . S
H898 C894 0.950 . S
C899 C897 1.390 . S
C899 C900 1.387 . S
C899 H902 0.950 . S
C900 C899 1.387 . S
C900 C903 1.387 . S
H901 C897 0.950 . S
H902 C899 0.950 . S
C903 C894 1.390 . S
C903 H896 0.950 . S
C903 C900 1.387 . S
C904 C905 1.387 . S
C904 H908 0.950 . S
C904 C913 1.390 . S
C905 C904 1.387 . S
C905 C907 1.387 . S
H906 C913 0.950 . S
C907 C905 1.387 . S
C907 C909 1.390 . S
C907 H911 0.950 . S
H908 C904 0.950 . S
C909 C907 1.390 . S
C909 C910 1.387 . S
C909 H912 0.950 . S
C910 C909 1.387 . S
C910 C913 1.387 . S
H911 C907 0.950 . S
H912 C909 0.950 . S
C913 C904 1.390 . S
C913 H906 0.950 . S
C913 C910 1.387 . S
C914 C915 1.387 . S
C914 H918 0.950 . S
C914 C923 1.390 . S
C915 C914 1.387 . S
C915 C917 1.387 . S
H916 C923 0.950 . S
C917 C915 1.387 . S
C917 C919 1.390 . S
C917 H921 0.950 . S
H918 C914 0.950 . S
C919 C917 1.390 . S
C919 C920 1.387 . S
C919 H922 0.950 . S
C920 C919 1.387 . S
C920 C923 1.387 . S
H921 C917 0.950 . S
H922 C919 0.950 . S
C923 C914 1.390 . S
C923 H916 0.950 . S
C923 C920 1.387 . S
C924 C925 1.387 . S
C924 H928 0.950 . S
C924 C933 1.390 . S
C925 C924 1.387 . S
C925 C927 1.387 . S
H926 C933 0.950 . S
C927 C925 1.387 . S
C927 C929 1.390 . S
C927 H931 0.950 . S
H928 C924 0.950 . S
C929 C927 1.390 . S
C929 C930 1.387 . S
C929 H932 0.950 . S
C930 C929 1.387 . S
C930 C933 1.387 . S
H931 C927 0.950 . S
H932 C929 0.950 . S
C933 C924 1.390 . S
C933 H926 0.950 . S
C933 C930 1.387 . S
C934 C935 1.387 . S
C934 H938 0.950 . S
C934 C943 1.390 . S
C935 C934 1.387 . S
C935 C937 1.387 . S
H936 C943 0.950 . S
C937 C935 1.387 . S
C937 C939 1.390 . S
C937 H941 0.950 . S
H938 C934 0.950 . S
C939 C937 1.390 . S
C939 C940 1.387 . S
C939 H942 0.950 . S
C940 C939 1.387 . S
C940 C943 1.387 . S
H941 C937 0.950 . S
H942 C939 0.950 . S
C943 C934 1.390 . S
C943 H936 0.950 . S
C943 C940 1.387 . S
C944 C945 1.387 . S
C944 H948 0.950 . S
C944 C953 1.390 . S
C945 C944 1.387 . S
C945 C947 1.387 . S
H946 C953 0.950 . S
C947 C945 1.387 . S
C947 C949 1.390 . S
C947 H951 0.950 . S
H948 C944 0.950 . S
C949 C947 1.390 . S
C949 C950 1.387 . S
C949 H952 0.950 . S
C950 C949 1.387 . S
C950 C953 1.387 . S
H951 C947 0.950 . S
H952 C949 0.950 . S
C953 C944 1.390 . S
C953 H946 0.950 . S
C953 C950 1.387 . S
C954 C955 1.387 . S
C954 H958 0.950 . S
C954 C963 1.390 . S
C955 C954 1.387 . S
C955 C957 1.387 . S
H956 C963 0.950 . S
C957 C955 1.387 . S
C957 C959 1.390 . S
C957 H961 0.950 . S
H958 C954 0.950 . S
C959 C957 1.390 . S
C959 C960 1.387 . S
C959 H962 0.950 . S
C960 C959 1.387 . S
C960 C963 1.387 . S
H961 C957 0.950 . S
H962 C959 0.950 . S
C963 C954 1.390 . S
C963 H956 0.950 . S
C963 C960 1.387 . S
C964 C965 1.387 . S
C964 H968 0.950 . S
C964 C973 1.390 . S
C965 C964 1.387 . S
C965 C967 1.387 . S
H966 C973 0.950 . S
C967 C965 1.387 . S
C967 C969 1.390 . S
C967 H971 0.950 . S
H968 C964 0.950 . S
C969 C967 1.390 . S
C969 C970 1.387 . S
C969 H972 0.950 . S
C970 C969 1.387 . S
C970 C973 1.387 . S
H971 C967 0.950 . S
H972 C969 0.950 . S
C973 C964 1.390 . S
C973 H966 0.950 . S
C973 C970 1.387 . S
C974 C975 1.387 . S
C974 H978 0.950 . S
C974 C983 1.390 . S
C975 C974 1.387 . S
C975 C977 1.387 . S
H976 C983 0.950 . S
C977 C975 1.387 . S
C977 C979 1.390 . S
C977 H981 0.950 . S
H978 C974 0.950 . S
C979 C977 1.390 . S
C979 C980 1.387 . S
C979 H982 0.950 . S
C980 C979 1.387 . S
C980 C983 1.387 . S
H981 C977 0.950 . S
H982 C979 0.950 . S
C983 C974 1.390 . S
C983 H976 0.950 . S
C983 C980 1.387 . S
C984 C985 1.387 . S
C984 H988 0.950 . S
C984 C993 1.390 . S
C985 C984 1.387 . S
C985 C987 1.387 . S
H986 C993 0.950 . S
C987 C985 1.387 . S
C987 C989 1.390 . S
C987 H991 0.950 . S
H988 C984 0.950 . S
C989 C987 1.390 . S
C989 C990 1.387 . S
C989 H992 0.950 . S
C990 C989 1.387 . S
C990 C993 1.387 . S
H991 C987 0.950 . S
H992 C989 0.950 . S
C993 C984 1.390 . S
C993 H986 0.950 . S
C993 C990 1.387 . S
C994 C995 1.387 . S
C994 H998 0.950 . S
C994 C1003 1.390 . S
C995 C994 1.387 . S
C995 C997 1.387 . S
H996 C1003 0.950 . S
C997 C995 1.387 . S
C997 C999 1.390 . S
C997 H1001 0.950 . S
H998 C994 0.950 . S
C999 C997 1.390 . S
C999 C1000 1.387 . S
C999 H1002 0.950 . S
C1000 C999 1.387 . S
C1000 C1003 1.387 . S
H1001 C997 0.950 . S
H1002 C999 0.950 . S
C1003 C994 1.390 . S
C1003 H996 0.950 . S
C1003 C1000 1.387 . S
C1004 C1005 1.387 . S
C1004 H1008 0.950 . S
C1004 C1013 1.390 . S
C1005 C1004 1.387 . S
C1005 C1007 1.387 . S
H1006 C1013 0.950 . S
C1007 C1005 1.387 . S
C1007 C1009 1.390 . S
C1007 H1011 0.950 . S
H1008 C1004 0.950 . S
C1009 C1007 1.390 . S
C1009 C1010 1.387 . S
C1009 H1012 0.950 . S
C1010 C1009 1.387 . S
C1010 C1013 1.387 . S
H1011 C1007 0.950 . S
H1012 C1009 0.950 . S
C1013 C1004 1.390 . S
C1013 H1006 0.950 . S
C1013 C1010 1.387 . S
C1014 C1015 1.387 . S
C1014 H1018 0.950 . S
C1014 C1023 1.390 . S
C1015 C1014 1.387 . S
C1015 C1017 1.387 . S
H1016 C1023 0.950 . S
C1017 C1015 1.387 . S
C1017 C1019 1.390 . S
C1017 H1021 0.950 . S
H1018 C1014 0.950 . S
C1019 C1017 1.390 . S
C1019 C1020 1.387 . S
C1019 H1022 0.950 . S
C1020 C1019 1.387 . S
C1020 C1023 1.387 . S
H1021 C1017 0.950 . S
H1022 C1019 0.950 . S
C1023 C1014 1.390 . S
C1023 H1016 0.950 . S
C1023 C1020 1.387 . S
C1024 C1025 1.387 . S
C1024 H1028 0.950 . S
C1024 C1033 1.390 . S
C1025 C1024 1.387 . S
C1025 C1027 1.387 . S
H1026 C1033 0.950 . S
C1027 C1025 1.387 . S
C1027 C1029 1.390 . S
C1027 H1031 0.950 . S
H1028 C1024 0.950 . S
C1029 C1027 1.390 . S
C1029 C1030 1.387 . S
C1029 H1032 0.950 . S
C1030 C1029 1.387 . S
C1030 C1033 1.387 . S
H1031 C1027 0.950 . S
H1032 C1029 0.950 . S
C1033 C1024 1.390 . S
C1033 H1026 0.950 . S
C1033 C1030 1.387 . S
C1034 C1035 1.387 . S
C1034 H1038 0.950 . S
C1034 C1043 1.390 . S
C1035 C1034 1.387 . S
C1035 C1037 1.387 . S
H1036 C1043 0.950 . S
C1037 C1035 1.387 . S
C1037 C1039 1.390 . S
C1037 H1041 0.950 . S
H1038 C1034 0.950 . S
C1039 C1037 1.390 . S
C1039 C1040 1.387 . S
C1039 H1042 0.950 . S
C1040 C1039 1.387 . S
C1040 C1043 1.387 . S
H1041 C1037 0.950 . S
H1042 C1039 0.950 . S
C1043 C1034 1.390 . S
C1043 H1036 0.950 . S
C1043 C1040 1.387 . S
C1044 C1045 1.387 . S
C1044 H1048 0.950 . S
C1044 C1053 1.390 . S
C1045 C1044 1.387 . S
C1045 C1047 1.387 . S
H1046 C1053 0.950 . S
C1047 C1045 1.387 . S
C1047 C1049 1.390 . S
C1047 H1051 0.950 . S
H1048 C1044 0.950 . S
C1049 C1047 1.390 . S
C1049 C1050 1.387 . S
C1049 H1052 0.950 . S
C1050 C1049 1.387 . S
C1050 C1053 1.387 . S
H1051 C1047 0.950 . S
H1052 C1049 0.950 . S
C1053 C1044 1.390 . S
C1053 H1046 0.950 . S
C1053 C1050 1.387 . S
C1054 C1055 1.387 . S
C1054 H1058 0.950 . S
C1054 C1063 1.390 . S
C1055 C1054 1.387 . S
C1055 C1057 1.387 . S
H1056 C1063 0.950 . S
C1057 C1055 1.387 . S
C1057 C1059 1.390 . S
C1057 H1061 0.950 . S
H1058 C1054 0.950 . S
C1059 C1057 1.390 . S
C1059 C1060 1.387 . S
C1059 H1062 0.950 . S
C1060 C1059 1.387 . S
C1060 C1063 1.387 . S
H1061 C1057 0.950 . S
H1062 C1059 0.950 . S
C1063 C1054 1.390 . S
C1063 H1056 0.950 . S
C1063 C1060 1.387 . S
C1064 C1065 1.387 . S
C1064 H1068 0.950 . S
C1064 C1073 1.390 . S
C1065 C1064 1.387 . S
C1065 C1067 1.387 . S
H1066 C1073 0.950 . S
C1067 C1065 1.387 . S
C1067 C1069 1.390 . S
C1067 H1071 0.950 . S
H1068 C1064 0.950 . S
C1069 C1067 1.390 . S
C1069 C1070 1.387 . S
C1069 H1072 0.950 . S
C1070 C1069 1.387 . S
C1070 C1073 1.387 . S
H1071 C1067 0.950 . S
H1072 C1069 0.950 . S
C1073 C1064 1.390 . S
C1073 H1066 0.950 . S
C1073 C1070 1.387 . S
C1074 C1075 1.387 . S
C1074 H1078 0.950 . S
C1074 C1083 1.390 . S
C1075 C1074 1.387 . S
C1075 C1077 1.387 . S
H1076 C1083 0.950 . S
C1077 C1075 1.387 . S
C1077 C1079 1.390 . S
C1077 H1081 0.950 . S
H1078 C1074 0.950 . S
C1079 C1077 1.390 . S
C1079 C1080 1.387 . S
C1079 H1082 0.950 . S
C1080 C1079 1.387 . S
C1080 C1083 1.387 . S
H1081 C1077 0.950 . S
H1082 C1079 0.950 . S
C1083 C1074 1.390 . S
C1083 H1076 0.950 . S
C1083 C1080 1.387 . S
C1084 C1085 1.387 . S
C1084 H1088 0.950 . S
C1084 C1093 1.390 . S
C1085 C1084 1.387 . S
C1085 C1087 1.387 . S
H1086 C1093 0.950 . S
C1087 C1085 1.387 . S
C1087 C1089 1.390 . S
C1087 H1091 0.950 . S
H1088 C1084 0.950 . S
C1089 C1087 1.390 . S
C1089 C1090 1.387 . S
C1089 H1092 0.950 . S
C1090 C1089 1.387 . S
C1090 C1093 1.387 . S
H1091 C1087 0.950 . S
H1092 C1089 0.950 . S
C1093 C1084 1.390 . S
C1093 H1086 0.950 . S
C1093 C1090 1.387 . S
C1094 C1095 1.387 . S
C1094 H1098 0.950 . S
C1094 C1103 1.390 . S
C1095 C1094 1.387 . S
C1095 C1097 1.387 . S
H1096 C1103 0.950 . S
C1097 C1095 1.387 . S
C1097 C1099 1.390 . S
C1097 H1101 0.950 . S
H1098 C1094 0.950 . S
C1099 C1097 1.390 . S
C1099 C1100 1.387 . S
C1099 H1102 0.950 . S
C1100 C1099 1.387 . S
C1100 C1103 1.387 . S
H1101 C1097 0.950 . S
H1102 C1099 0.950 . S
C1103 C1094 1.390 . S
C1103 H1096 0.950 . S
C1103 C1100 1.387 . S
C1104 C1105 1.387 . S
C1104 H1108 0.950 . S
C1104 C1113 1.390 . S
C1105 C1104 1.387 . S
C1105 C1107 1.387 . S
H1106 C1113 0.950 . S
C1107 C1105 1.387 . S
C1107 C1109 1.390 . S
C1107 H1111 0.950 . S
H1108 C1104 0.950 . S
C1109 C1107 1.390 . S
C1109 C1110 1.387 . S
C1109 H1112 0.950 . S
C1110 C1109 1.387 . S
C1110 C1113 1.387 . S
H1111 C1107 0.950 . S
H1112 C1109 0.950 . S
C1113 C1104 1.390 . S
C1113 H1106 0.950 . S
C1113 C1110 1.387 . S
C1114 C1115 1.387 . S
C1114 H1118 0.950 . S
C1114 C1123 1.390 . S
C1115 C1114 1.387 . S
C1115 C1117 1.387 . S
H1116 C1123 0.950 . S
C1117 C1115 1.387 . S
C1117 C1119 1.390 . S
C1117 H1121 0.950 . S
H1118 C1114 0.950 . S
C1119 C1117 1.390 . S
C1119 C1120 1.387 . S
C1119 H1122 0.950 . S
C1120 C1119 1.387 . S
C1120 C1123 1.387 . S
H1121 C1117 0.950 . S
H1122 C1119 0.950 . S
C1123 C1114 1.390 . S
C1123 H1116 0.950 . S
C1123 C1120 1.387 . S
C1124 C1125 1.387 . S
C1124 H1128 0.950 . S
C1124 C1133 1.390 . S
C1125 C1124 1.387 . S
C1125 C1127 1.387 . S
H1126 C1133 0.950 . S
C1127 C1125 1.387 . S
C1127 C1129 1.390 . S
C1127 H1131 0.950 . S
H1128 C1124 0.950 . S
C1129 C1127 1.390 . S
C1129 C1130 1.387 . S
C1129 H1132 0.950 . S
C1130 C1129 1.387 . S
C1130 C1133 1.387 . S
H1131 C1127 0.950 . S
H1132 C1129 0.950 . S
C1133 C1124 1.390 . S
C1133 H1126 0.950 . S
C1133 C1130 1.387 . S
C1134 C1135 1.387 . S
C1134 H1138 0.950 . S
C1134 C1143 1.390 . S
C1135 C1134 1.387 . S
C1135 C1137 1.387 . S
H1136 C1143 0.950 . S
C1137 C1135 1.387 . S
C1137 C1139 1.390 . S
C1137 H1141 0.950 . S
H1138 C1134 0.950 . S
C1139 C1137 1.390 . S
C1139 C1140 1.387 . S
C1139 H1142 0.950 . S
C1140 C1139 1.387 . S
C1140 C1143 1.387 . S
H1141 C1137 0.950 . S
H1142 C1139 0.950 . S
C1143 C1134 1.390 . S
C1143 H1136 0.950 . S
C1143 C1140 1.387 . S
C1144 C1145 1.387 . S
C1144 H1148 0.950 . S
C1144 C1153 1.390 . S
C1145 C1144 1.387 . S
C1145 C1147 1.387 . S
H1146 C1153 0.950 . S
C1147 C1145 1.387 . S
C1147 C1149 1.390 . S
C1147 H1151 0.950 . S
H1148 C1144 0.950 . S
C1149 C1147 1.390 . S
C1149 C1150 1.387 . S
C1149 H1152 0.950 . S
C1150 C1149 1.387 . S
C1150 C1153 1.387 . S
H1151 C1147 0.950 . S
H1152 C1149 0.950 . S
C1153 C1144 1.390 . S
C1153 H1146 0.950 . S
C1153 C1150 1.387 . S
C1154 C1155 1.387 . S
C1154 H1158 0.950 . S
C1154 C1163 1.390 . S
C1155 C1154 1.387 . S
C1155 C1157 1.387 . S
H1156 C1163 0.950 . S
C1157 C1155 1.387 . S
C1157 C1159 1.390 . S
C1157 H1161 0.950 . S
H1158 C1154 0.950 . S
C1159 C1157 1.390 . S
C1159 C1160 1.387 . S
C1159 H1162 0.950 . S
C1160 C1159 1.387 . S
C1160 C1163 1.387 . S
H1161 C1157 0.950 . S
H1162 C1159 0.950 . S
C1163 C1154 1.390 . S
C1163 H1156 0.950 . S
C1163 C1160 1.387 . S
C1164 C1165 1.387 . S
C1164 H1168 0.950 . S
C1164 C1173 1.390 . S
C1165 C1164 1.387 . S
C1165 C1167 1.387 . S
H1166 C1173 0.950 . S
C1167 C1165 1.387 . S
C1167 C1169 1.390 . S
C1167 H1171 0.950 . S
H1168 C1164 0.950 . S
C1169 C1167 1.390 . S
C1169 C1170 1.387 . S
C1169 H1172 0.950 . S
C1170 C1169 1.387 . S
C1170 C1173 1.387 . S
H1171 C1167 0.950 . S
H1172 C1169 0.950 . S
C1173 C1164 1.390 . S
C1173 H1166 0.950 . S
C1173 C1170 1.387 . S
C1174 C1175 1.387 . S
C1174 H1178 0.950 . S
C1174 C1183 1.390 . S
C1175 C1174 1.387 . S
C1175 C1177 1.387 . S
H1176 C1183 0.950 . S
C1177 C1175 1.387 . S
C1177 C1179 1.390 . S
C1177 H1181 0.950 . S
H1178 C1174 0.950 . S
C1179 C1177 1.390 . S
C1179 C1180 1.387 . S
C1179 H1182 0.950 . S
C1180 C1179 1.387 . S
C1180 C1183 1.387 . S
H1181 C1177 0.950 . S
H1182 C1179 0.950 . S
C1183 C1174 1.390 . S
C1183 H1176 0.950 . S
C1183 C1180 1.387 . S
C1184 C1185 1.387 . S
C1184 H1188 0.950 . S
C1184 C1193 1.390 . S
C1185 C1184 1.387 . S
C1185 C1187 1.387 . S
H1186 C1193 0.950 . S
C1187 C1185 1.387 . S
C1187 C1189 1.390 . S
C1187 H1191 0.950 . S
H1188 C1184 0.950 . S
C1189 C1187 1.390 . S
C1189 C1190 1.387 . S
C1189 H1192 0.950 . S
C1190 C1189 1.387 . S
C1190 C1193 1.387 . S
H1191 C1187 0.950 . S
H1192 C1189 0.950 . S
C1193 C1184 1.390 . S
C1193 H1186 0.950 . S
C1193 C1190 1.387 . S
C1194 C1195 1.387 . S
C1194 H1198 0.950 . S
C1194 C1203 1.390 . S
C1195 C1194 1.387 . S
C1195 C1197 1.387 . S
H1196 C1203 0.950 . S
C1197 C1195 1.387 . S
C1197 C1199 1.390 . S
C1197 H1201 0.950 . S
H1198 C1194 0.950 . S
C1199 C1197 1.390 . S
C1199 C1200 1.387 . S
C1199 H1202 0.950 . S
C1200 C1199 1.387 . S
C1200 C1203 1.387 . S
H1201 C1197 0.950 . S
H1202 C1199 0.950 . S
C1203 C1194 1.390 . S
C1203 H1196 0.950 . S
C1203 C1200 1.387 . S
C1204 C1205 1.387 . S
C1204 H1208 0.950 . S
C1204 C1213 1.390 . S
C1205 C1204 1.387 . S
C1205 C1207 1.387 . S
H1206 C1213 0.950 . S
C1207 C1205 1.387 . S
C1207 C1209 1.390 . S
C1207 H1211 0.950 . S
H1208 C1204 0.950 . S
C1209 C1207 1.390 . S
C1209 C1210 1.387 . S
C1209 H1212 0.950 . S
C1210 C1209 1.387 . S
C1210 C1213 1.387 . S
H1211 C1207 0.950 . S
H1212 C1209 0.950 . S
C1213 C1204 1.390 . S
C1213 H1206 0.950 . S
C1213 C1210 1.387 . S
C1214 C1215 1.387 . S
C1214 H1218 0.950 . S
C1214 C1223 1.390 . S
C1215 C1214 1.387 . S
C1215 C1217 1.387 . S
H1216 C1223 0.950 . S
C1217 C1215 1.387 . S
C1217 C1219 1.390 . S
C1217 H1221 0.950 . S
H1218 C1214 0.950 . S
C1219 C1217 1.390 . S
C1219 C1220 1.387 . S
C1219 H1222 0.950 . S
C1220 C1219 1.387 . S
C1220 C1223 1.387 . S
H1221 C1217 0.950 . S
H1222 C1219 0.950 . S
C1223 C1214 1.390 . S
C1223 H1216 0.950 . S
C1223 C1220 1.387 . S
C1224 C1225 1.387 . S
C1224 H1228 0.950 . S
C1224 C1233 1.390 . S
C1225 C1224 1.387 . S
C1225 C1227 1.387 . S
H1226 C1233 0.950 . S
C1227 C1225 1.387 . S
C1227 C1229 1.390 . S
C1227 H1231 0.950 . S
H1228 C1224 0.950 . S
C1229 C1227 1.390 . S
C1229 C1230 1.387 . S
C1229 H1232 0.950 . S
C1230 C1229 1.387 . S
C1230 C1233 1.387 . S
H1231 C1227 0.950 . S
H1232 C1229 0.950 . S
C1233 C1224 1.390 . S
C1233 H1226 0.950 . S
C1233 C1230 1.387 . S
C1234 C1235 1.387 . S
C1234 H1238 0.950 . S
C1234 C1243 1.390 . S
C1235 C1234 1.387 . S
C1235 C1237 1.387 . S
H1236 C1243 0.950 . S
C1237 C1235 1.387 . S
C1237 C1239 1.390 . S
C1237 H1241 0.950 . S
H1238 C1234 0.950 . S
C1239 C1237 1.390 . S
C1239 C1240 1.387 . S
C1239 H1242 0.950 . S
C1240 C1239 1.387 . S
C1240 C1243 1.387 . S
H1241 C1237 0.950 . S
H1242 C1239 0.950 . S
C1243 C1234 1.390 . S
C1243 H1236 0.950 . S
C1243 C1240 1.387 . S
C1244 C1245 1.387 . S
C1244 H1248 0.950 . S
C1244 C1253 1.390 . S
C1245 C1244 1.387 . S
C1245 C1247 1.387 . S
H1246 C1253 0.950 . S
C1247 C1245 1.387 . S
C1247 C1249 1.390 . S
C1247 H1251 0.950 . S
H1248 C1244 0.950 . S
C1249 C1247 1.390 . S
C1249 C1250 1.387 . S
C1249 H1252 0.950 . S
C1250 C1249 1.387 . S
C1250 C1253 1.387 . S
H1251 C1247 0.950 . S
H1252 C1249 0.950 . S
C1253 C1244 1.390 . S
C1253 H1246 0.950 . S
C1253 C1250 1.387 . S
C1254 C1255 1.387 . S
C1254 H1258 0.950 . S
C1254 C1263 1.390 . S
C1255 C1254 1.387 . S
C1255 C1257 1.387 . S
H1256 C1263 0.950 . S
C1257 C1255 1.387 . S
C1257 C1259 1.390 . S
C1257 H1261 0.950 . S
H1258 C1254 0.950 . S
C1259 C1257 1.390 . S
C1259 C1260 1.387 . S
C1259 H1262 0.950 . S
C1260 C1259 1.387 . S
C1260 C1263 1.387 . S
H1261 C1257 0.950 . S
H1262 C1259 0.950 . S
C1263 C1254 1.390 . S
C1263 H1256 0.950 . S
C1263 C1260 1.387 . S
C1264 C1265 1.387 . S
C1264 H1268 0.950 . S
C1264 C1273 1.390 . S
C1265 C1264 1.387 . S
C1265 C1267 1.387 . S
H1266 C1273 0.950 . S
C1267 C1265 1.387 . S
C1267 C1269 1.390 . S
C1267 H1271 0.950 . S
H1268 C1264 0.950 . S
C1269 C1267 1.390 . S
C1269 C1270 1.387 . S
C1269 H1272 0.950 . S
C1270 C1269 1.387 . S
C1270 C1273 1.387 . S
H1271 C1267 0.950 . S
H1272 C1269 0.950 . S
C1273 C1264 1.390 . S
C1273 H1266 0.950 . S
C1273 C1270 1.387 . S
C1274 C1275 1.387 . S
C1274 H1278 0.950 . S
C1274 C1283 1.390 . S
C1275 C1274 1.387 . S
C1275 C1277 1.387 . S
H1276 C1283 0.950 . S
C1277 C1275 1.387 . S
C1277 C1279 1.390 . S
C1277 H1281 0.950 . S
H1278 C1274 0.950 . S
C1279 C1277 1.390 . S
C1279 C1280 1.387 . S
C1279 H1282 0.950 . S
C1280 C1279 1.387 . S
C1280 C1283 1.387 . S
H1281 C1277 0.950 . S
H1282 C1279 0.950 . S
C1283 C1274 1.390 . S
C1283 H1276 0.950 . S
C1283 C1280 1.387 . S
C1284 C1285 1.387 . S
C1284 H1288 0.950 . S
C1284 C1293 1.390 . S
C1285 C1284 1.387 . S
C1285 C1287 1.387 . S
H1286 C1293 0.950 . S
C1287 C1285 1.387 . S
C1287 C1289 1.390 . S
C1287 H1291 0.950 . S
H1288 C1284 0.950 . S
C1289 C1287 1.390 . S
C1289 C1290 1.387 . S
C1289 H1292 0.950 . S
C1290 C1289 1.387 . S
C1290 C1293 1.387 . S
H1291 C1287 0.950 . S
H1292 C1289 0.950 . S
C1293 C1284 1.390 . S
C1293 H1286 0.950 . S
C1293 C1290 1.387 . S
C1294 C1295 1.387 . S
C1294 H1298 0.950 . S
C1294 C1303 1.390 . S
C1295 C1294 1.387 . S
C1295 C1297 1.387 . S
H1296 C1303 0.950 . S
C1297 C1295 1.387 . S
C1297 C1299 1.390 . S
C1297 H1301 0.950 . S
H1298 C1294 0.950 . S
C1299 C1297 1.390 . S
C1299 C1300 1.387 . S
C1299 H1302 0.950 . S
C1300 C1299 1.387 . S
C1300 C1303 1.387 . S
H1301 C1297 0.950 . S
H1302 C1299 0.950 . S
C1303 C1294 1.390 . S
C1303 H1296 0.950 . S
C1303 C1300 1.387 . S
C1304 C1305 1.387 . S
C1304 H1308 0.950 . S
C1304 C1313 1.390 . S
C1305 C1304 1.387 . S
C1305 C1307 1.387 . S
H1306 C1313 0.950 . S
C1307 C1305 1.387 . S
C1307 C1309 1.390 . S
C1307 H1311 0.950 . S
H1308 C1304 0.950 . S
C1309 C1307 1.390 . S
C1309 C1310 1.387 . S
C1309 H1312 0.950 . S
C1310 C1309 1.387 . S
C1310 C1313 1.387 . S
H1311 C1307 0.950 . S
H1312 C1309 0.950 . S
C1313 C1304 1.390 . S
C1313 H1306 0.950 . S
C1313 C1310 1.387 . S
C1314 C1315 1.387 . S
C1314 H1318 0.950 . S
C1314 C1323 1.390 . S
C1315 C1314 1.387 . S
C1315 C1317 1.387 . S
H1316 C1323 0.950 . S
C1317 C1315 1.387 . S
C1317 C1319 1.390 . S
C1317 H1321 0.950 . S
H1318 C1314 0.950 . S
C1319 C1317 1.390 . S
C1319 C1320 1.387 . S
C1319 H1322 0.950 . S
C1320 C1319 1.387 . S
C1320 C1323 1.387 . S
H1321 C1317 0.950 . S
H1322 C1319 0.950 . S
C1323 C1314 1.390 . S
C1323 H1316 0.950 . S
C1323 C1320 1.387 . S
C1324 C1325 1.387 . S
C1324 H1328 0.950 . S
C1324 C1333 1.390 . S
C1325 C1324 1.387 . S
C1325 C1327 1.387 . S
H1326 C1333 0.950 . S
C1327 C1325 1.387 . S
C1327 C1329 1.390 . S
C1327 H1331 0.950 . S
H1328 C1324 0.950 . S
C1329 C1327 1.390 . S
C1329 C1330 1.387 . S
C1329 H1332 0.950 . S
C1330 C1329 1.387 . S
C1330 C1333 1.387 . S
H1331 C1327 0.950 . S
H1332 C1329 0.950 . S
C1333 C1324 1.390 . S
C1333 H1326 0.950 . S
C1333 C1330 1.387 . S
C1334 C1335 1.387 . S
C1334 H1338 0.950 . S
C1334 C1343 1.390 . S
C1335 C1334 1.387 . S
C1335 C1337 1.387 . S
H1336 C1343 0.950 . S
C1337 C1335 1.387 . S
C1337 C1339 1.390 . S
C1337 H1341 0.950 . S
H1338 C1334 0.950 . S
C1339 C1337 1.390 . S
C1339 C1340 1.387 . S
C1339 H1342 0.950 . S
C1340 C1339 1.387 . S
C1340 C1343 1.387 . S
H1341 C1337 0.950 . S
H1342 C1339 0.950 . S
C1343 C1334 1.390 . S
C1343 H1336 0.950 . S
C1343 C1340 1.387 . S
C870 C689 1.672 . S
C865 C74 1.518 . S
C880 C694 0.923 . S
C875 C142 1.078 . S
C890 C695 1.689 . S
C885 C231 1.538 . S
C895 C322 1.223 . S
C900 C699 1.300 . S
C905 C406 1.073 . S
C910 C702 0.920 . S
C920 C703 1.689 . S
C915 C494 1.538 . S
C925 C562 1.221 . S
C930 C680 1.299 . S
C935 C651 1.518 . S
C940 C696 1.672 . S
C950 C734 1.297 . S
C945 C58 1.298 . S
C955 C151 1.610 . S
C960 C760 1.623 . S
C970 C712 2.469 . S
C965 C224 2.390 . S
C980 C767 1.516 . S
C975 C315 1.497 . S
C985 C399 1.500 . S
C990 C721 1.529 . S
C1000 C763 1.308 . S
C995 C478 1.289 . S
C1005 C571 1.544 . S
C1010 C727 1.617 . S
C1015 C644 2.379 . S
C1020 C758 2.472 . S
C1025 C67 2.379 . S
C1030 C766 2.472 . S
C1035 C392 1.612 . S
C1040 C753 1.623 . S
C1050 C731 2.467 . S
C1045 C487 2.387 . S
C1060 C759 1.516 . S
C1055 C578 1.498 . S
C1065 C658 1.294 . S
C1070 C726 1.299 . S
C1075 C238 1.290 . S
C1080 C744 1.306 . S
C1090 C735 1.619 . S
C1085 C308 1.545 . S
C1095 C158 1.501 . S
C1100 C728 1.530 . S
C1105 C662 1.498 . S
C1110 C790 1.548 . S
C1115 C394 1.075 . S
C1120 C785 0.582 . S
C1130 C799 1.526 . S
C1125 C483 1.513 . S
C1140 C776 1.269 . S
C1135 C574 1.202 . S
C1145 C154 1.080 . S
C1150 C792 0.578 . S
C1160 C791 1.524 . S
C1155 C242 1.511 . S
C1165 C310 1.205 . S
C1170 C795 1.270 . S
C1175 C63 1.496 . S
C1180 C798 1.548 . S
C1185 C646 1.302 . S
C1190 C824 1.361 . S
C1200 C840 1.618 . S
C1195 C403 1.620 . S
C1205 C476 2.393 . S
C1210 C822 2.557 . S
C1215 C567 1.492 . S
C1220 C855 1.458 . S
C1230 C831 1.450 . S
C1225 C147 1.475 . S
C1235 C226 1.308 . S
C1240 C849 1.294 . S
C1250 C827 1.581 . S
C1245 C319 1.522 . S
C1260 C862 2.509 . S
C1255 C56 2.404 . S
C1270 C854 2.509 . S
C1265 C655 2.405 . S
C1275 C140 1.621 . S
C1280 C859 1.619 . S
C1285 C235 2.396 . S
C1290 C830 2.556 . S
C1300 C863 1.457 . S
C1295 C326 1.495 . S
C1305 C70 1.302 . S
C1310 C817 1.361 . S
C1315 C490 1.304 . S
C1320 C856 1.298 . S
C1330 C808 1.583 . S
C1325 C560 1.519 . S
C1340 C823 1.452 . S
C1335 C410 1.477 . S
