# Generated by pormake.
# Topology pts, (4,4)-cn, num edge types: 1
# Building blocks:
#     Node 0, Type 0, BuildingBlock: MUDLON_clean_sbu_0, # of connection points: 4
#     Node 1, Type 0, BuildingBlock: MUDLON_clean_sbu_0, # of connection points: 4
#     Node 2, Type 1, BuildingBlock: UXUYUI_clean_sbu_0, # of connection points: 4
#     Node 3, Type 1, BuildingBlock: UXUYUI_clean_sbu_0, # of connection points: 4
#     Edge 4, Type (0, 1), BuildingBlock: FUNLAD_clean_linker_1, # of connection points: 2
#     Edge 5, Type (0, 1), BuildingBlock: FUNLAD_clean_linker_1, # of connection points: 2
#     Edge 6, Type (0, 1), BuildingBlock: FUNLAD_clean_linker_1, # of connection points: 2
#     Edge 7, Type (0, 1), BuildingBlock: FUNLAD_clean_linker_1, # of connection points: 2
#     Edge 8, Type (0, 1), BuildingBlock: FUNLAD_clean_linker_1, # of connection points: 2
#     Edge 9, Type (0, 1), BuildingBlock: FUNLAD_clean_linker_1, # of connection points: 2
#     Edge 10, Type (0, 1), BuildingBlock: FUNLAD_clean_linker_1, # of connection points: 2
#     Edge 11, Type (0, 1), BuildingBlock: FUNLAD_clean_linker_1, # of connection points: 2
# Relax obj value: 0.040
# Max RMSD: 0.092
# Mean RMSD: 0.080
data_MOF--net-pts--node1-MUDLON_clean_sbu_0--node2-UXUYUI_clean_sbu_0--edge1-FUNLAD_clean_linker_1
_symmetry_space_group_name_H-M    P1
_symmetry_Int_Tables_number       1
_symmetry_cell_setting            triclinic
loop_
_symmetry_equiv_pos_as_xyz
'x, y, z'
_cell_length_a     29.209055
_cell_length_b     29.30211
_cell_length_c     49.527375
_cell_angle_alpha  89.953994
_cell_angle_beta   89.951562
_cell_angle_gamma 90.315187
loop_
_atom_site_label
_atom_site_type_symbol
_atom_site_fract_x
_atom_site_fract_y
_atom_site_fract_z
_atom_type_partial_charge
Mg0 Mg 0.51539 0.01613 0.06116 0.0
C1 C 0.44413 0.99753 0.02207 0.0
O2 O 0.44672 0.04222 0.02392 0.0
C3 C 0.59492 0.9587 0.08179 0.0
O4 O 0.60114 0.9511 0.05595 0.0
C5 C 0.44124 0.03001 0.09925 0.0
O6 O 0.44793 0.98568 0.0988 0.0
O7 O 0.46703 0.05545 0.08496 0.0
O8 O 0.47149 0.97357 0.03605 0.0
O9 O 0.56049 0.0553 0.03471 0.0
C10 C 0.5736 0.03499 1.01341 0.0
O11 O 0.55655 0.99448 1.00787 0.0
O12 O 0.56031 0.98144 0.08948 0.0
Mg13 Mg 0.02249 0.5207 0.55291 0.0
C14 C 0.02356 0.58192 0.59867 0.0
O15 O 0.0659 0.56793 0.59578 0.0
C16 C 0.99813 0.44672 0.5169 0.0
O17 O 0.04218 0.44249 0.52157 0.0
C18 C 0.08846 0.55782 0.50788 0.0
O19 O 0.10746 0.51735 0.50751 0.0
O20 O 0.05677 0.56636 0.52471 0.0
O21 O 0.99294 0.56636 0.58282 0.0
O22 O 0.06326 0.47167 0.57548 0.0
C23 C 0.03982 0.45234 0.59392 0.0
O24 O 0.99725 0.46529 0.5976 0.0
O25 O 0.97661 0.47887 0.52848 0.0
Li26 Li 0.99948 0.04811 0.32796 0.0
Li27 Li 0.01366 0.96633 0.32819 0.0
Li28 Li 0.04415 0.01682 0.29215 0.0
Li29 Li 0.96268 0.99866 0.2939 0.0
C30 C 0.07992 0.03714 0.35247 0.0
N31 N 0.11964 0.08041 0.39623 0.0
C32 C 0.07706 0.01765 0.37819 0.0
C33 C 0.10364 0.07828 0.34896 0.0
C34 C 0.09721 0.04012 0.40007 0.0
C35 C 0.12328 0.09974 0.37134 0.0
C36 C 0.91293 0.01488 0.34165 0.0
C37 C 0.84406 0.0113 0.36851 0.0
N38 N 0.82926 0.05045 0.3567 0.0
C39 C 0.89699 0.05511 0.32977 0.0
C40 C 0.88627 0.99281 0.36119 0.0
C41 C 0.85463 0.07253 0.33767 0.0
C42 C 0.98768 0.14237 0.3421 0.0
N43 N 0.99071 0.099 0.35172 0.0
C44 C 0.98229 0.12555 0.39708 0.0
C45 C 0.98717 0.09 0.37857 0.0
C46 C 0.97958 0.17069 0.38785 0.0
C47 C 0.98206 0.17898 0.3599 0.0
H48 H 0.98982 0.14863 0.32065 0.0
H49 H 0.98856 0.05511 0.38564 0.0
C50 C 0.05815 0.8838 0.34326 0.0
N51 N 0.02528 0.91428 0.35025 0.0
C52 C 0.06726 0.84624 0.35987 0.0
C53 C 1.00833 0.87222 0.39039 0.0
C54 C 1.00039 0.90911 0.37322 0.0
C55 C 0.04226 0.8402 0.38398 0.0
H56 H 0.07741 0.88879 0.32482 0.0
H57 H 0.97479 0.93411 0.37841 0.0
C58 C 1.00582 0.09073 0.27008 0.0
N59 N 0.03612 0.15239 0.23166 0.0
C60 C 0.98361 0.09387 0.24516 0.0
C61 C 0.04292 0.11953 0.2756 0.0
C62 C 0.99956 0.12512 0.22597 0.0
C63 C 0.05789 0.15029 0.25588 0.0
C64 C 0.99733 0.91325 0.28277 0.0
C65 C 0.0167 0.88714 0.26217 0.0
C66 C 0.9605 0.89569 0.29763 0.0
C67 C 0.99895 0.84372 0.2568 0.0
C68 C 0.94373 0.85213 0.29163 0.0
N69 N 0.96314 0.82726 0.27152 0.0
C70 C 0.13763 0.02865 0.27895 0.0
C71 C 0.088 0.02758 0.24112 0.0
C72 C 0.17572 0.0336 0.2621 0.0
N73 N 0.09487 0.02578 0.26826 0.0
C74 C 0.1251 0.03319 0.22353 0.0
C75 C 0.16973 0.03623 0.23404 0.0
H76 H 0.14224 0.02638 0.30056 0.0
H77 H 0.05372 0.02412 0.23311 0.0
C78 C 0.86813 0.97684 0.28115 0.0
N79 N 0.91081 0.98533 0.27126 0.0
C80 C 0.83166 0.96836 0.26359 0.0
C81 C 0.88396 0.97478 0.226 0.0
C82 C 0.91938 0.98334 0.24431 0.0
C83 C 0.83899 0.96795 0.23556 0.0
H84 H 0.86208 0.9765 0.30261 0.0
H85 H 0.95393 0.9886 0.23701 0.0
O86 O 0.05981 0.01595 0.33086 0.0
O87 O 0.9546 0.99734 0.33456 0.0
O88 O 0.99112 0.05984 0.28899 0.0
O89 O 0.01427 0.95591 0.28811 0.0
H90 H 0.05906 0.98579 0.38133 0.0
H91 H 0.10696 0.0935 0.32918 0.0
H92 H 0.09492 0.02559 0.42011 0.0
H93 H 0.14149 0.13173 0.36891 0.0
H94 H 0.82307 0.99452 0.38358 0.0
H95 H 0.91691 0.07277 0.3146 0.0
H96 H 0.89794 0.96161 0.37055 0.0
H97 H 0.84191 0.10361 0.32865 0.0
H98 H 0.98058 0.11782 0.41845 0.0
H99 H 0.98106 0.21331 0.35185 0.0
H100 H 0.09353 0.82268 0.35365 0.0
H101 H 0.98827 0.86898 0.40871 0.0
H102 H 0.95426 0.0726 0.2407 0.0
H103 H 0.06016 0.1179 0.29484 0.0
H104 H 0.98281 0.12774 0.20656 0.0
H105 H 0.08683 0.17249 0.25984 0.0
H106 H 0.04515 0.90035 0.25046 0.0
H107 H 0.94492 0.91541 0.31359 0.0
H108 H 0.01362 0.82311 0.24091 0.0
H109 H 0.91526 0.83812 0.30296 0.0
H110 H 0.20962 0.03518 0.27091 0.0
H111 H 0.11886 0.03355 0.20199 0.0
H112 H 0.7978 0.96252 0.2719 0.0
H113 H 0.89233 0.97369 0.20478 0.0
Li114 Li 0.97424 0.02557 0.82247 0.0
Li115 Li 0.05603 1.00549 0.82389 0.0
Li116 Li 0.02386 0.05701 0.78788 0.0
Li117 Li 1.00839 0.97473 0.7864 0.0
C118 C 0.01539 0.09444 0.84856 0.0
N119 N 0.98877 0.14854 0.89141 0.0
C120 C 0.03576 0.08901 0.87388 0.0
C121 C 0.98187 0.12776 0.84496 0.0
C122 C 0.02175 0.11662 0.89531 0.0
C123 C 0.96875 0.15464 0.8669 0.0
C124 C 1.00706 0.9245 0.84037 0.0
C125 C 0.03573 0.84772 0.84437 0.0
N126 N 0.0167 0.84446 0.86937 0.0
C127 C 0.98722 0.92011 0.86595 0.0
C128 C 0.03104 0.8878 0.82935 0.0
C129 C 0.99271 0.8795 0.88035 0.0
C130 C 0.87973 0.03959 0.83245 0.0
N131 N 0.92125 0.03505 0.84451 0.0
C132 C 0.88691 0.04098 0.88824 0.0
C133 C 0.92543 0.03548 0.87185 0.0
C134 C 0.84348 0.04577 0.87634 0.0
C135 C 0.84023 0.04482 0.84808 0.0
H136 H 0.87716 0.0384 0.81069 0.0
H137 H 0.95864 0.03075 0.881 0.0
C138 C 0.14889 0.01092 0.83907 0.0
N139 N 0.1073 0.99499 0.84719 0.0
C140 C 0.18707 1.00659 0.85584 0.0
C141 C 0.13907 0.96954 0.88909 0.0
C142 C 0.10179 0.97471 0.8717 0.0
C143 C 0.18255 0.98566 0.88121 0.0
H144 H 0.15223 0.02766 0.81969 0.0
H145 H 0.0682 0.96388 0.8782 0.0
C146 C 0.94471 0.05006 0.76229 0.0
N147 N 0.9087 0.10098 0.72049 0.0
C148 C 0.94532 0.0331 0.73593 0.0
C149 C 0.92525 0.09264 0.76745 0.0
C150 C 0.92704 0.05942 0.71505 0.0
C151 C 0.9074 0.11795 0.74603 0.0
C152 C 0.10242 0.98163 0.77193 0.0
C153 C 0.11904 0.99451 0.74654 0.0
C154 C 0.12107 0.94372 0.78494 0.0
C155 C 0.15327 0.96856 0.73433 0.0
C156 C 0.15531 0.91868 0.77209 0.0
N157 N 0.17052 0.93146 0.74723 0.0
C158 C 0.03795 0.15131 0.77632 0.0
C159 C 0.0396 0.10255 0.73823 0.0
C160 C 0.04363 0.18961 0.75979 0.0
N161 N 0.03556 0.1089 0.76532 0.0
C162 C 0.04537 0.13985 0.72094 0.0
C163 C 0.04738 0.18427 0.73171 0.0
H164 H 0.03485 0.15551 0.79791 0.0
H165 H 0.03714 0.0685 0.72996 0.0
C166 C 0.96674 0.89096 0.77172 0.0
N167 N 0.99676 0.92364 0.76331 0.0
C168 C 0.95674 0.85351 0.75524 0.0
C169 C 1.00774 0.8846 0.72141 0.0
C170 C 0.01676 0.9214 0.73856 0.0
C171 C 0.9777 0.84963 0.72984 0.0
H172 H 0.95044 0.89406 0.79124 0.0
H173 H 0.03901 0.94868 0.73185 0.0
O174 O 0.02837 0.0674 0.82741 0.0
O175 O 1.00181 0.96405 0.82597 0.0
O176 O 0.96335 0.02523 0.7829 0.0
O177 O 0.06886 1.00673 0.78414 0.0
H178 H 0.06197 0.06367 0.87701 0.0
H179 H 0.96588 0.13255 0.82551 0.0
H180 H 0.03707 0.11263 0.91504 0.0
H181 H 0.94261 0.18032 0.86444 0.0
H182 H 0.05431 0.81912 0.83608 0.0
H183 H 0.96804 0.94785 0.87469 0.0
H184 H 0.04536 0.88987 0.80928 0.0
H185 H 0.97784 0.87582 0.90025 0.0
H186 H 0.89122 0.03984 0.90992 0.0
H187 H 0.80733 0.04775 0.83815 0.0
H188 H 0.2198 0.02001 0.84915 0.0
H189 H 0.13318 0.95465 0.90878 0.0
H190 H 0.96008 1.00017 0.73158 0.0
H191 H 0.9242 0.10611 0.78774 0.0
H192 H 0.92756 0.04685 0.69453 0.0
H193 H 0.89254 0.1511 0.74971 0.0
H194 H 0.10552 0.0241 0.7363 0.0
H195 H 0.10975 0.93404 0.80489 0.0
H196 H 0.16618 0.97797 0.7146 0.0
H197 H 0.16994 0.88921 0.78194 0.0
H198 H 0.04469 0.22323 0.76887 0.0
H199 H 0.04667 0.13366 0.69944 0.0
H200 H 0.93295 0.82767 0.76235 0.0
H201 H 0.02347 0.88444 0.70165 0.0
H202 H 0.39604 0.0856 0.11371 0.0
C203 C 0.40268 0.0492 0.11484 0.0
H204 H 0.38075 0.9853 0.12984 0.0
H205 H 0.26802 0.11223 0.21658 0.0
H206 H 0.34186 0.14083 0.23163 0.0
H207 H 0.41252 0.12158 0.20691 0.0
H208 H 0.4097 0.07454 0.1667 0.0
C209 C 0.375 0.02191 0.12951 0.0
C210 C 0.33274 0.03828 0.14318 0.0
C211 C 0.3353 0.06485 0.16705 0.0
C212 C 0.2948 0.07417 0.18205 0.0
C213 C 0.29796 0.10247 0.20514 0.0
C214 C 0.34007 0.11939 0.21387 0.0
C215 C 0.37984 0.10868 0.19989 0.0
C216 C 0.37771 0.08171 0.17677 0.0
H217 H 0.24241 0.02415 0.2241 0.0
C218 C 0.21081 0.03867 0.21638 0.0
H219 H 0.18024 0.07338 0.18365 0.0
H220 H 0.31513 0.99209 0.09632 0.0
H221 H 0.24129 0.96374 0.08121 0.0
H222 H 0.17167 0.97663 0.10831 0.0
H223 H 0.17535 0.01798 0.15059 0.0
C224 C 0.21105 0.05794 0.19169 0.0
C225 C 0.25222 0.05509 0.17387 0.0
C226 C 0.24932 0.03091 0.14912 0.0
C227 C 0.28958 0.02275 0.13372 0.0
C228 C 0.28574 0.99851 0.10906 0.0
C229 C 0.24355 0.98223 0.10008 0.0
C230 C 0.20435 0.98953 0.11532 0.0
C231 C 0.20699 0.01343 0.13959 0.0
H232 H 0.0918 0.40012 0.60426 0.0
C233 C 0.05822 0.41334 0.60939 0.0
H234 H 0.99856 0.40501 0.63299 0.0
H235 H 1.00465 0.19723 0.65519 0.0
H236 H 0.94836 0.19967 0.61928 0.0
H237 H 0.93664 0.26997 0.59279 0.0
H238 H 0.98098 0.33836 0.60218 0.0
C239 C 0.03274 0.39261 0.6285 0.0
C240 C 0.04599 0.34883 0.6415 0.0
C241 C 0.02055 0.30879 0.63539 0.0
C242 C 0.0278 0.26806 0.65038 0.0
C243 C 1.00096 0.22898 0.64426 0.0
C244 C 0.96846 0.2299 0.62371 0.0
C245 C 0.96181 0.26949 0.60882 0.0
C246 C 0.9874 0.30856 0.6145 0.0
H247 H 0.03917 0.25791 0.72316 0.0
C248 C 0.05022 0.22576 0.71439 0.0
H249 H 0.07654 0.19469 0.67901 0.0
H250 H 0.10149 0.41908 0.658 0.0
H251 H 0.16055 0.41549 0.69234 0.0
H252 H 0.17555 0.3438 0.71688 0.0
H253 H 0.13109 0.27537 0.70746 0.0
C254 C 0.0648 0.22577 0.68859 0.0
C255 C 0.06062 0.26736 0.67144 0.0
C256 C 0.08794 0.30661 0.67652 0.0
C257 C 0.08023 0.3476 0.66177 0.0
C258 C 0.10657 0.38681 0.66813 0.0
C259 C 0.14052 0.38524 0.68786 0.0
C260 C 0.1489 0.3449 0.70172 0.0
C261 C 0.12301 0.30594 0.69621 0.0
H262 H 0.66165 0.92948 0.09328 0.0
C263 C 0.63198 0.94758 0.10096 0.0
H264 H 0.60442 0.98461 0.13364 0.0
H265 H 0.77919 0.8792 0.19283 0.0
H266 H 0.73489 0.8096 0.18703 0.0
H267 H 0.66253 0.80988 0.16137 0.0
H268 H 0.63425 0.87972 0.14107 0.0
C269 C 0.63277 0.96425 0.12625 0.0
C270 C 0.67548 0.96366 0.14267 0.0
C271 C 0.69103 0.92279 0.15485 0.0
C272 C 0.73214 0.92292 0.17031 0.0
C273 C 0.74762 0.88132 0.18152 0.0
C274 C 0.72262 0.84107 0.17823 0.0
C275 C 0.68193 0.8412 0.16373 0.0
C276 C 0.66615 0.88148 0.15212 0.0
H277 H 0.76575 0.95435 0.22688 0.0
C278 C 0.79874 0.96109 0.21742 0.0
H279 H 0.83125 0.97405 0.17983 0.0
H280 H 0.65575 0.0478 0.1216 0.0
H281 H 0.69927 0.11758 0.12802 0.0
H282 H 0.76941 0.11823 0.15572 0.0
H283 H 0.79656 0.04905 0.17706 0.0
C284 C 0.79992 0.96515 0.19034 0.0
C285 C 0.75708 0.96416 0.174 0.0
C286 C 0.74146 1.005 0.1618 0.0
C287 C 0.70068 1.00476 0.14614 0.0
C288 C 0.68619 0.04604 0.13398 0.0
C289 C 0.7109 0.08639 0.13745 0.0
C290 C 0.75041 0.08674 0.15301 0.0
C291 C 0.76566 0.04669 0.16511 0.0
H292 H 0.04272 0.62744 0.63186 0.0
C293 C 0.01409 0.61695 0.61922 0.0
H294 H 0.94522 0.62992 0.60889 0.0
H295 H 1.00155 0.72944 0.72771 0.0
H296 H 1.00394 0.65246 0.7455 0.0
H297 H 0.98887 0.5862 0.71604 0.0
H298 H 0.97211 0.5967 0.6684 0.0
C299 C 0.97379 0.63825 0.62205 0.0
C300 C 0.97022 0.67764 0.64104 0.0
C301 C 0.97741 0.6712 0.66912 0.0
C302 C 0.98413 0.70953 0.68632 0.0
C303 C 0.99454 0.70179 0.71387 0.0
C304 C 0.99625 0.65769 0.72434 0.0
C305 C 0.98791 0.62038 0.70774 0.0
C306 C 0.97863 0.62684 0.68043 0.0
H307 H 0.93575 0.78997 0.71728 0.0
C308 C 0.96657 0.80944 0.7126 0.0
H309 H 0.02509 0.81268 0.68734 0.0
H310 H 0.95124 0.70206 0.58888 0.0
H311 H 0.94372 0.7791 0.57155 0.0
H312 H 0.95261 0.8456 0.60165 0.0
H313 H 0.96939 0.83546 0.64927 0.0
C314 C 0.99371 0.79472 0.69247 0.0
C315 C 0.9816 0.75437 0.67558 0.0
C316 C 0.97075 0.76077 0.64794 0.0
C317 C 0.96506 0.72239 0.63064 0.0
C318 C 0.95559 0.72993 0.60296 0.0
C319 C 0.95116 0.774 0.59275 0.0
C320 C 0.9562 0.81144 0.60969 0.0
C321 C 0.96593 0.80513 0.63696 0.0
H322 H 0.40703 0.93903 1.00355 0.0
C323 C 0.40903 0.97602 1.00467 0.0
H324 H 0.38008 0.03871 0.99266 0.0
H325 H 0.2935 0.92339 0.89221 0.0
H326 H 0.37184 0.91275 0.87709 0.0
H327 H 0.43686 0.93462 0.90619 0.0
H328 H 0.42402 0.96656 0.95071 0.0
C329 C 0.37911 1.00177 0.99082 0.0
C330 C 0.34095 0.98225 0.97458 0.0
C331 C 0.34918 0.96415 0.9485 0.0
C332 C 0.31168 0.95297 0.93134 0.0
C333 C 0.32076 0.93386 0.90566 0.0
C334 C 0.36553 0.92731 0.89682 0.0
C335 C 0.40214 0.93953 0.91323 0.0
C336 C 0.39428 0.9578 0.93877 0.0
H337 H 0.2508 1.00829 0.89528 0.0
C338 C 0.22297 0.98449 0.89948 0.0
H339 H 0.20035 0.93178 0.92574 0.0
H340 H 0.31355 0.01079 0.02456 0.0
H341 H 0.23525 0.02084 0.03983 0.0
H342 H 0.17025 1.00352 1.00969 0.0
H343 H 0.18304 0.97618 0.96412 0.0
C344 C 0.22698 0.95639 0.92088 0.0
C345 C 0.26614 0.96123 0.94001 0.0
C346 C 0.25794 0.97662 0.96671 0.0
C347 C 0.2954 0.98709 0.984 0.0
C348 C 0.28631 1.00292 1.01048 0.0
C349 C 0.24156 1.00864 0.01954 0.0
C350 C 0.20496 0.99888 1.00257 0.0
C351 C 0.21282 0.98315 0.97644 0.0
H352 H 0.93912 0.42037 0.49307 0.0
C353 C 0.97522 0.41577 0.4975 0.0
H354 H 0.03565 0.37949 0.48859 0.0
H355 H 0.90385 0.21909 0.44158 0.0
H356 H 0.87649 0.20938 0.48757 0.0
H357 H 0.89693 0.26505 0.52299 0.0
H358 H 0.94404 0.33124 0.51253 0.0
C359 C 0.99921 0.38309 0.48477 0.0
C360 C 0.97989 0.35357 0.46315 0.0
C361 C 0.95281 0.31487 0.46972 0.0
C362 C 0.94249 0.28183 0.44953 0.0
C363 C 0.91418 0.24422 0.4564 0.0
C364 C 0.89797 0.23844 0.48265 0.0
C365 C 0.90939 0.26986 0.50258 0.0
C366 C 0.93647 0.3077 0.49631 0.0
H367 H 0.9924 0.20219 0.42765 0.0
C368 C 0.97722 0.20823 0.40792 0.0
H369 H 0.94124 0.25549 0.38376 0.0
H370 H 0.02648 0.42728 0.44314 0.0
H371 H 0.05294 0.43771 0.39705 0.0
H372 H 0.03771 0.37915 0.36239 0.0
H373 H 0.99579 0.31006 0.37349 0.0
C374 C 0.95734 0.24877 0.40309 0.0
C375 C 0.96071 0.28677 0.42308 0.0
C376 C 0.98491 0.32719 0.41608 0.0
C377 C 0.99434 0.36064 0.43614 0.0
C378 C 0.019 0.4005 0.42874 0.0
C379 C 0.03424 0.40699 0.40235 0.0
C380 C 0.0256 0.37405 0.38284 0.0
C381 C 1.00139 0.33451 0.3895 0.0
H382 H 0.62721 0.08599 1.0031 0.0
C383 C 0.61186 0.05364 0.99719 0.0
H384 H 0.61647 0.99607 0.97172 0.0
H385 H 0.7485 0.12581 0.89707 0.0
H386 H 0.67905 0.16671 0.88567 0.0
H387 H 0.60669 0.15081 0.90974 0.0
H388 H 0.60345 0.09428 0.9456 0.0
C389 C 0.63046 0.02933 0.97698 0.0
C390 C 0.6745 0.04253 0.96399 0.0
C391 C 0.67565 0.07526 0.94293 0.0
C392 C 0.71712 0.08354 0.92856 0.0
C393 C 0.71762 0.11723 0.90807 0.0
C394 C 0.67807 0.14113 0.90144 0.0
C395 C 0.63734 0.13224 0.91503 0.0
C396 C 0.63594 0.09973 0.93557 0.0
H397 H 0.76912 0.0368 0.88326 0.0
C398 C 0.80081 0.04822 0.89267 0.0
H399 H 0.83022 0.07528 0.92834 0.0
H400 H 0.68479 0.98062 1.00491 0.0
H401 H 0.75423 0.94015 1.01661 0.0
H402 H 0.82569 0.95308 0.99107 0.0
H403 H 0.82822 1.00661 0.95377 0.0
C404 C 0.79945 0.06304 0.91838 0.0
C405 C 0.75703 0.0583 0.93493 0.0
C406 C 0.75631 0.02707 0.95682 0.0
C407 C 0.715 0.0192 0.97135 0.0
C408 C 0.71513 0.98756 0.993 0.0
C409 C 0.75477 0.96416 0.99998 0.0
C410 C 0.79501 0.97148 0.98563 0.0
C411 C 0.79597 1.00242 0.96426 0.0
H412 H 0.12801 0.58439 0.47293 0.0
C413 C 0.1004 0.5919 0.48694 0.0
H414 H 0.04838 0.63812 0.49791 0.0
H415 H 0.11898 0.81452 0.44081 0.0
H416 H 0.14001 0.83138 0.48715 0.0
H417 H 0.13594 0.77175 0.52229 0.0
H418 H 0.11107 0.69483 0.51126 0.0
C419 C 0.07559 0.63012 0.48374 0.0
C420 C 0.08401 0.66377 0.46169 0.0
C421 C 0.09859 0.70857 0.46842 0.0
C422 C 0.10044 0.74309 0.44824 0.0
C423 C 0.11588 0.78731 0.45549 0.0
C424 C 0.12835 0.79737 0.48197 0.0
C425 C 0.12608 0.76379 0.50175 0.0
C426 C 0.11155 0.71983 0.49517 0.0
H427 H 0.02708 0.79927 0.42046 0.0
C428 C 0.04994 0.80168 0.40314 0.0
H429 H 0.10667 0.76989 0.38403 0.0
H430 H 0.05421 0.58145 0.44154 0.0
H431 H 0.0355 0.56445 0.39503 0.0
H432 H 0.04075 0.62398 0.35991 0.0
H433 H 0.06443 0.70112 0.37124 0.0
C434 C 0.08319 0.77019 0.40095 0.0
C435 C 0.08709 0.73296 0.42137 0.0
C436 C 0.07496 0.68762 0.41428 0.0
C437 C 0.07283 0.65306 0.4345 0.0
C438 C 0.05782 0.60877 0.42703 0.0
C439 C 0.04665 0.59857 0.40036 0.0
C440 C 0.04955 0.63209 0.3806 0.0
C441 C 0.06325 0.67621 0.38737 0.0
loop_
_geom_bond_atom_site_label_1
_geom_bond_atom_site_label_2
_geom_bond_distance
_geom_bond_site_symmetry_2
_ccdc_geom_bond_type
Mg0 O7 2.141 . S
Mg0 O8 2.048 . S
Mg0 O9 2.048 . S
Mg0 O12 2.141 . S
C1 O2 1.313 . S
C1 O8 1.195 1_566 S
O2 C1 1.313 . S
C3 O4 1.245 . S
C3 O12 1.289 1_565 S
O4 C3 1.245 . S
C5 O6 1.245 . S
C5 O7 1.289 1_565 S
O6 C5 1.245 . S
O7 Mg0 2.141 . S
O7 C5 1.289 1_545 S
O8 Mg0 2.048 . S
O8 C1 1.195 1_544 S
O9 Mg0 2.048 . S
O9 C10 1.195 1_544 S
C10 O9 1.195 1_566 S
C10 O11 1.313 . S
O11 C10 1.313 . S
O12 Mg0 2.141 . S
O12 C3 1.289 1_545 S
Mg13 O20 2.141 . S
Mg13 O21 2.048 . S
Mg13 O22 2.048 . S
Mg13 O25 2.141 . S
C14 O15 1.313 . S
C14 O21 1.195 1_455 S
O15 C14 1.313 . S
C16 O17 1.245 . S
C16 O25 1.289 1_455 S
O17 C16 1.245 . S
C18 O19 1.245 . S
C18 O20 1.289 1_455 S
O19 C18 1.245 . S
O20 Mg13 2.141 . S
O20 C18 1.289 1_655 S
O21 Mg13 2.048 . S
O21 C14 1.195 1_655 S
O22 Mg13 2.048 . S
O22 C23 1.195 1_655 S
C23 O22 1.195 1_455 S
C23 O24 1.313 . S
O24 C23 1.313 . S
O25 Mg13 2.141 . S
O25 C16 1.289 1_655 S
Li26 N43 1.990 . S
Li26 O86 1.956 1_545 S
Li26 O87 1.970 1_455 S
Li26 O88 1.961 1_455 S
Li27 N51 1.990 . S
Li27 O86 1.970 1_655 S
Li27 O87 1.956 1_565 S
Li27 O89 1.961 1_655 S
Li28 N73 1.990 . S
Li28 O86 1.961 1_545 S
Li28 O88 1.956 1_455 S
Li28 O89 1.970 1_545 S
Li29 N79 1.990 . S
Li29 O87 1.961 1_565 S
Li29 O88 1.970 1_565 S
Li29 O89 1.956 1_655 S
C30 C32 1.348 1_545 S
C30 C33 1.356 . S
C30 O86 1.325 1_545 S
N31 C34 1.314 1_545 S
N31 C35 1.279 . S
C32 C30 1.348 1_565 S
C32 C34 1.353 . S
C32 H90 0.929 . S
C33 C30 1.356 . S
C33 C35 1.358 . S
C33 H91 0.930 . S
C34 N31 1.314 1_565 S
C34 C32 1.353 . S
C34 H92 0.930 . S
C35 N31 1.279 . S
C35 C33 1.358 . S
C35 H93 0.930 . S
C36 C39 1.348 . S
C36 C40 1.356 1_545 S
C36 O87 1.325 . S
C37 N38 1.279 . S
C37 C40 1.358 . S
C37 H94 0.930 . S
N38 C37 1.279 . S
N38 C41 1.314 1_565 S
C39 C36 1.348 . S
C39 C41 1.353 . S
C39 H95 0.929 . S
C40 C36 1.356 1_565 S
C40 C37 1.358 . S
C40 H96 0.930 . S
C41 N38 1.314 1_545 S
C41 C39 1.353 . S
C41 H97 0.930 . S
C42 N43 1.314 1_655 S
C42 C47 1.353 . S
C42 H48 0.930 . S
N43 Li26 1.990 . S
N43 C42 1.314 1_455 S
N43 C45 1.279 . S
C44 C45 1.358 . S
C44 C46 1.356 . S
C44 H98 0.930 . S
C45 N43 1.279 . S
C45 C44 1.358 . S
C45 H49 0.930 . S
C46 C44 1.356 . S
C46 C47 1.348 1_455 S
C47 C42 1.353 . S
C47 C46 1.348 1_655 S
C47 H99 0.929 . S
H48 C42 0.930 . S
H49 C45 0.930 . S
C50 N51 1.314 1_455 S
C50 C52 1.353 . S
C50 H56 0.930 . S
N51 Li27 1.990 . S
N51 C50 1.314 1_655 S
N51 C54 1.279 . S
C52 C50 1.353 . S
C52 C55 1.348 . S
C52 H100 0.929 . S
C53 C54 1.358 . S
C53 C55 1.356 1_655 S
C53 H101 0.930 . S
C54 N51 1.279 . S
C54 C53 1.358 . S
C54 H57 0.930 . S
C55 C52 1.348 . S
C55 C53 1.356 1_455 S
H56 C50 0.930 . S
H57 C54 0.930 . S
C58 C60 1.348 1_455 S
C58 C61 1.356 . S
C58 O88 1.325 1_455 S
N59 C62 1.314 1_455 S
N59 C63 1.279 . S
C60 C58 1.348 1_655 S
C60 C62 1.353 . S
C60 H102 0.929 . S
C61 C58 1.356 . S
C61 C63 1.358 . S
C61 H103 0.930 . S
C62 N59 1.314 1_655 S
C62 C60 1.353 . S
C62 H104 0.930 . S
C63 N59 1.279 . S
C63 C61 1.358 . S
C63 H105 0.930 . S
C64 C65 1.348 . S
C64 C66 1.356 1_455 S
C64 O89 1.325 . S
C65 C64 1.348 . S
C65 C67 1.353 . S
C65 H106 0.929 . S
C66 C64 1.356 1_655 S
C66 C68 1.358 . S
C66 H107 0.930 . S
C67 C65 1.353 . S
C67 N69 1.314 1_455 S
C67 H108 0.930 . S
C68 C66 1.358 . S
C68 N69 1.279 . S
C68 H109 0.930 . S
N69 C67 1.314 1_655 S
N69 C68 1.279 . S
C70 C72 1.353 . S
C70 N73 1.314 1_565 S
C70 H76 0.930 . S
C71 N73 1.279 . S
C71 C74 1.358 . S
C71 H77 0.930 . S
C72 C70 1.353 . S
C72 C75 1.348 1_565 S
C72 H110 0.929 . S
N73 Li28 1.990 . S
N73 C70 1.314 1_545 S
N73 C71 1.279 . S
C74 C71 1.358 . S
C74 C75 1.356 . S
C74 H111 0.930 . S
C75 C72 1.348 1_545 S
C75 C74 1.356 . S
H76 C70 0.930 . S
H77 C71 0.930 . S
C78 N79 1.314 1_545 S
C78 C80 1.353 . S
C78 H84 0.930 . S
N79 Li29 1.990 . S
N79 C78 1.314 1_565 S
N79 C82 1.279 . S
C80 C78 1.353 . S
C80 C83 1.348 . S
C80 H112 0.929 . S
C81 C82 1.358 . S
C81 C83 1.356 1_565 S
C81 H113 0.930 . S
C82 N79 1.279 . S
C82 C81 1.358 . S
C82 H85 0.930 . S
C83 C80 1.348 . S
C83 C81 1.356 1_545 S
H84 C78 0.930 . S
H85 C82 0.930 . S
O86 Li26 1.956 1_565 S
O86 Li27 1.970 1_455 S
O86 Li28 1.961 1_565 S
O86 C30 1.325 1_565 S
O87 Li26 1.970 1_655 S
O87 Li27 1.956 1_545 S
O87 Li29 1.961 1_545 S
O87 C36 1.325 . S
O88 Li26 1.961 1_655 S
O88 Li28 1.956 1_655 S
O88 Li29 1.970 1_545 S
O88 C58 1.325 1_655 S
O89 Li27 1.961 1_455 S
O89 Li28 1.970 1_565 S
O89 Li29 1.956 1_455 S
O89 C64 1.325 . S
H90 C32 0.929 . S
H91 C33 0.930 . S
H92 C34 0.930 . S
H93 C35 0.930 . S
H94 C37 0.930 . S
H95 C39 0.929 . S
H96 C40 0.930 . S
H97 C41 0.930 . S
H98 C44 0.930 . S
H99 C47 0.929 . S
H100 C52 0.929 . S
H101 C53 0.930 . S
H102 C60 0.929 . S
H103 C61 0.930 . S
H104 C62 0.930 . S
H105 C63 0.930 . S
H106 C65 0.929 . S
H107 C66 0.930 . S
H108 C67 0.930 . S
H109 C68 0.930 . S
H110 C72 0.929 . S
H111 C74 0.930 . S
H112 C80 0.929 . S
H113 C81 0.930 . S
Li114 N131 1.990 . S
Li114 O174 1.956 1_655 S
Li114 O175 1.970 1_545 S
Li114 O176 1.961 1_545 S
Li115 N139 1.990 . S
Li115 O174 1.970 1_565 S
Li115 O175 1.956 1_455 S
Li115 O177 1.961 1_565 S
Li116 N161 1.990 . S
Li116 O174 1.961 1_655 S
Li116 O176 1.956 1_545 S
Li116 O177 1.970 1_655 S
Li117 N167 1.990 . S
Li117 O175 1.961 1_455 S
Li117 O176 1.970 1_455 S
Li117 O177 1.956 1_565 S
C118 C120 1.348 . S
C118 C121 1.355 1_455 S
C118 O174 1.325 . S
N119 C122 1.314 1_655 S
N119 C123 1.279 . S
C120 C118 1.348 . S
C120 C122 1.353 . S
C120 H178 0.929 . S
C121 C118 1.355 1_655 S
C121 C123 1.358 . S
C121 H179 0.930 . S
C122 N119 1.314 1_455 S
C122 C120 1.353 . S
C122 H180 0.930 . S
C123 N119 1.279 . S
C123 C121 1.358 . S
C123 H181 0.930 . S
C124 C127 1.348 1_455 S
C124 C128 1.355 . S
C124 O175 1.325 1_455 S
C125 N126 1.279 . S
C125 C128 1.358 . S
C125 H182 0.930 . S
N126 C125 1.279 . S
N126 C129 1.314 1_455 S
C127 C124 1.348 1_655 S
C127 C129 1.353 . S
C127 H183 0.929 . S
C128 C124 1.355 . S
C128 C125 1.358 . S
C128 H184 0.930 . S
C129 N126 1.314 1_655 S
C129 C127 1.353 . S
C129 H185 0.930 . S
C130 N131 1.314 1_565 S
C130 C135 1.353 . S
C130 H136 0.930 . S
N131 Li114 1.990 . S
N131 C130 1.314 1_545 S
N131 C133 1.279 . S
C132 C133 1.358 . S
C132 C134 1.355 . S
C132 H186 0.930 . S
C133 N131 1.279 . S
C133 C132 1.358 . S
C133 H137 0.930 . S
C134 C132 1.355 . S
C134 C135 1.348 1_545 S
C135 C130 1.353 . S
C135 C134 1.348 1_565 S
C135 H187 0.929 . S
H136 C130 0.930 . S
H137 C133 0.930 . S
C138 N139 1.314 1_545 S
C138 C140 1.353 . S
C138 H144 0.930 . S
N139 Li115 1.990 . S
N139 C138 1.314 1_565 S
N139 C142 1.279 . S
C140 C138 1.353 . S
C140 C143 1.348 . S
C140 H188 0.929 . S
C141 C142 1.358 . S
C141 C143 1.355 1_565 S
C141 H189 0.930 . S
C142 N139 1.279 . S
C142 C141 1.358 . S
C142 H145 0.930 . S
C143 C140 1.348 . S
C143 C141 1.355 1_545 S
H144 C138 0.930 . S
H145 C142 0.930 . S
C146 C148 1.348 1_545 S
C146 C149 1.355 . S
C146 O176 1.325 1_545 S
N147 C150 1.314 1_545 S
N147 C151 1.279 . S
C148 C146 1.348 1_565 S
C148 C150 1.353 . S
C148 H190 0.929 . S
C149 C146 1.355 . S
C149 C151 1.358 . S
C149 H191 0.930 . S
C150 N147 1.314 1_565 S
C150 C148 1.353 . S
C150 H192 0.930 . S
C151 N147 1.279 . S
C151 C149 1.358 . S
C151 H193 0.930 . S
C152 C153 1.348 . S
C152 C154 1.355 1_545 S
C152 O177 1.325 . S
C153 C152 1.348 . S
C153 C155 1.353 . S
C153 H194 0.929 . S
C154 C152 1.355 1_565 S
C154 C156 1.358 . S
C154 H195 0.930 . S
C155 C153 1.353 . S
C155 N157 1.314 1_545 S
C155 H196 0.930 . S
C156 C154 1.358 . S
C156 N157 1.279 . S
C156 H197 0.930 . S
N157 C155 1.314 1_565 S
N157 C156 1.279 . S
C158 C160 1.353 . S
C158 N161 1.314 1_455 S
C158 H164 0.930 . S
C159 N161 1.279 . S
C159 C162 1.358 . S
C159 H165 0.930 . S
C160 C158 1.353 . S
C160 C163 1.348 . S
C160 H198 0.929 . S
N161 Li116 1.990 . S
N161 C158 1.314 1_655 S
N161 C159 1.279 . S
C162 C159 1.358 . S
C162 C163 1.355 1_655 S
C162 H199 0.930 . S
C163 C160 1.348 . S
C163 C162 1.355 1_455 S
H164 C158 0.930 . S
H165 C159 0.930 . S
C166 N167 1.314 1_655 S
C166 C168 1.353 . S
C166 H172 0.930 . S
N167 Li117 1.990 . S
N167 C166 1.314 1_455 S
N167 C170 1.279 . S
C168 C166 1.353 . S
C168 C171 1.348 1_655 S
C168 H200 0.929 . S
C169 C170 1.358 . S
C169 C171 1.355 . S
C169 H201 0.930 . S
C170 N167 1.279 . S
C170 C169 1.358 . S
C170 H173 0.930 . S
C171 C168 1.348 1_455 S
C171 C169 1.355 . S
H172 C166 0.930 . S
H173 C170 0.930 . S
O174 Li114 1.956 1_455 S
O174 Li115 1.970 1_545 S
O174 Li116 1.961 1_455 S
O174 C118 1.325 . S
O175 Li114 1.970 1_565 S
O175 Li115 1.956 1_655 S
O175 Li117 1.961 1_655 S
O175 C124 1.325 1_655 S
O176 Li114 1.961 1_565 S
O176 Li116 1.956 1_565 S
O176 Li117 1.970 1_655 S
O176 C146 1.325 1_565 S
O177 Li115 1.961 1_545 S
O177 Li116 1.970 1_455 S
O177 Li117 1.956 1_545 S
O177 C152 1.325 . S
H178 C120 0.929 . S
H179 C121 0.930 . S
H180 C122 0.930 . S
H181 C123 0.930 . S
H182 C125 0.930 . S
H183 C127 0.929 . S
H184 C128 0.930 . S
H185 C129 0.930 . S
H186 C132 0.930 . S
H187 C135 0.929 . S
H188 C140 0.929 . S
H189 C141 0.930 . S
H190 C148 0.929 . S
H191 C149 0.930 . S
H192 C150 0.930 . S
H193 C151 0.930 . S
H194 C153 0.929 . S
H195 C154 0.930 . S
H196 C155 0.930 . S
H197 C156 0.930 . S
H198 C160 0.929 . S
H199 C162 0.930 . S
H200 C168 0.929 . S
H201 C169 0.930 . S
H202 C203 0.950 1_565 S
C203 H202 0.950 1_545 S
C203 C209 1.265 . S
H204 C209 0.950 . S
H205 C213 0.949 . S
H206 C214 0.950 . S
H207 C215 0.951 . S
H208 C216 0.951 . S
C209 C203 1.265 . S
C209 H204 0.950 . S
C209 C210 1.478 . S
C210 C209 1.478 . S
C210 C211 1.401 . S
C210 C227 1.390 1_545 S
C211 C210 1.401 . S
C211 C212 1.438 . S
C211 C216 1.429 . S
C212 C211 1.438 . S
C212 C213 1.428 . S
C212 C225 1.394 1_545 S
C213 H205 0.949 . S
C213 C212 1.428 . S
C213 C214 1.345 . S
C214 H206 0.950 . S
C214 C213 1.345 . S
C214 C215 1.424 . S
C215 H207 0.951 . S
C215 C214 1.424 . S
C215 C216 1.347 . S
C216 H208 0.951 . S
C216 C211 1.429 . S
C216 C215 1.347 . S
H217 C218 0.950 . S
C218 H217 0.950 . S
C218 C224 1.266 . S
H219 C224 0.950 . S
H220 C228 0.949 . S
H221 C229 0.950 . S
H222 C230 0.951 . S
H223 C231 0.951 . S
C224 C218 1.266 . S
C224 H219 0.950 . S
C224 C225 1.478 . S
C225 C212 1.394 1_565 S
C225 C224 1.478 . S
C225 C226 1.397 . S
C226 C225 1.397 . S
C226 C227 1.438 . S
C226 C231 1.429 . S
C227 C210 1.390 1_565 S
C227 C226 1.438 . S
C227 C228 1.428 . S
C228 H220 0.949 . S
C228 C227 1.428 . S
C228 C229 1.345 . S
C229 H221 0.950 . S
C229 C228 1.345 . S
C229 C230 1.424 . S
C230 H222 0.951 . S
C230 C229 1.424 . S
C230 C231 1.347 . S
C231 H223 0.951 . S
C231 C226 1.429 . S
C231 C230 1.347 . S
H232 C233 0.951 . S
C233 H232 0.951 . S
C233 C239 1.265 1_655 S
H234 C239 0.950 . S
H235 C243 0.949 . S
H236 C244 0.950 . S
H237 C245 0.951 . S
H238 C246 0.951 . S
C239 C233 1.265 1_455 S
C239 H234 0.950 . S
C239 C240 1.478 . S
C240 C239 1.478 . S
C240 C241 1.397 1_455 S
C240 C257 1.394 . S
C241 C240 1.397 1_655 S
C241 C242 1.438 . S
C241 C246 1.429 . S
C242 C241 1.438 . S
C242 C243 1.428 . S
C242 C255 1.394 . S
C243 H235 0.949 . S
C243 C242 1.428 . S
C243 C244 1.345 . S
C244 H236 0.950 . S
C244 C243 1.345 . S
C244 C245 1.424 . S
C245 H237 0.951 . S
C245 C244 1.424 . S
C245 C246 1.347 . S
C246 H238 0.951 . S
C246 C241 1.429 . S
C246 C245 1.347 . S
H247 C248 0.951 . S
C248 H247 0.951 . S
C248 C254 1.265 1_455 S
H249 C254 0.950 . S
H250 C258 0.949 . S
H251 C259 0.950 . S
H252 C260 0.951 . S
H253 C261 0.951 . S
C254 C248 1.265 1_655 S
C254 H249 0.950 . S
C254 C255 1.478 . S
C255 C242 1.394 . S
C255 C254 1.478 . S
C255 C256 1.397 1_655 S
C256 C255 1.397 1_455 S
C256 C257 1.438 . S
C256 C261 1.429 . S
C257 C240 1.394 . S
C257 C256 1.438 . S
C257 C258 1.428 . S
C258 H250 0.949 . S
C258 C257 1.428 . S
C258 C259 1.345 . S
C259 H251 0.950 . S
C259 C258 1.345 . S
C259 C260 1.424 . S
C260 H252 0.951 . S
C260 C259 1.424 . S
C260 C261 1.347 . S
C261 H253 0.951 . S
C261 C256 1.429 . S
C261 C260 1.347 . S
H262 C263 0.951 . S
C263 H262 0.951 . S
C263 C269 1.265 1_545 S
H264 C269 0.950 . S
H265 C273 0.949 . S
H266 C274 0.950 . S
H267 C275 0.951 . S
H268 C276 0.951 . S
C269 C263 1.265 1_565 S
C269 H264 0.950 . S
C269 C270 1.479 . S
C270 C269 1.479 . S
C270 C271 1.407 . S
C270 C287 1.384 1_565 S
C271 C270 1.407 . S
C271 C272 1.438 . S
C271 C276 1.429 . S
C272 C271 1.438 . S
C272 C273 1.428 . S
C272 C285 1.394 1_565 S
C273 H265 0.949 . S
C273 C272 1.428 . S
C273 C274 1.345 . S
C274 H266 0.950 . S
C274 C273 1.345 . S
C274 C275 1.424 . S
C275 H267 0.951 . S
C275 C274 1.424 . S
C275 C276 1.347 . S
C276 H268 0.951 . S
C276 C271 1.429 . S
C276 C275 1.347 . S
H277 C278 0.949 1_565 S
C278 H277 0.949 1_545 S
C278 C284 1.267 . S
H279 C284 0.950 . S
H280 C288 0.949 . S
H281 C289 0.950 . S
H282 C290 0.951 . S
H283 C291 0.951 . S
C284 C278 1.267 . S
C284 H279 0.950 . S
C284 C285 1.478 . S
C285 C272 1.394 1_545 S
C285 C284 1.478 . S
C285 C286 1.397 . S
C286 C285 1.397 . S
C286 C287 1.438 . S
C286 C291 1.429 . S
C287 C270 1.384 1_545 S
C287 C286 1.438 . S
C287 C288 1.428 . S
C288 H280 0.949 . S
C288 C287 1.428 . S
C288 C289 1.345 . S
C289 H281 0.950 . S
C289 C288 1.345 . S
C289 C290 1.424 . S
C290 H282 0.951 . S
C290 C289 1.424 . S
C290 C291 1.347 . S
C291 H283 0.951 . S
C291 C286 1.429 . S
C291 C290 1.347 . S
H292 C293 0.951 . S
C293 H292 0.951 . S
C293 C299 1.265 1_455 S
H294 C299 0.950 . S
H295 C303 0.949 . S
H296 C304 0.950 . S
H297 C305 0.951 . S
H298 C306 0.951 . S
C299 C293 1.265 1_655 S
C299 H294 0.950 . S
C299 C300 1.478 . S
C300 C299 1.478 . S
C300 C301 1.397 1_655 S
C300 C317 1.394 . S
C301 C300 1.397 1_455 S
C301 C302 1.438 . S
C301 C306 1.429 . S
C302 C301 1.438 . S
C302 C303 1.428 . S
C302 C315 1.394 . S
C303 H295 0.949 . S
C303 C302 1.428 . S
C303 C304 1.345 . S
C304 H296 0.950 . S
C304 C303 1.345 . S
C304 C305 1.424 . S
C305 H297 0.951 . S
C305 C304 1.424 . S
C305 C306 1.347 . S
C306 H298 0.951 . S
C306 C301 1.429 . S
C306 C305 1.347 . S
H307 C308 0.951 . S
C308 H307 0.951 . S
C308 C314 1.265 1_655 S
H309 C314 0.950 . S
H310 C318 0.949 . S
H311 C319 0.950 . S
H312 C320 0.951 . S
H313 C321 0.951 . S
C314 C308 1.265 1_455 S
C314 H309 0.950 . S
C314 C315 1.478 . S
C315 C302 1.394 . S
C315 C314 1.478 . S
C315 C316 1.397 1_455 S
C316 C315 1.397 1_655 S
C316 C317 1.438 . S
C316 C321 1.429 . S
C317 C300 1.394 . S
C317 C316 1.438 . S
C317 C318 1.428 . S
C318 H310 0.949 . S
C318 C317 1.428 . S
C318 C319 1.345 . S
C319 H311 0.950 . S
C319 C318 1.345 . S
C319 C320 1.424 . S
C320 H312 0.951 . S
C320 C319 1.424 . S
C320 C321 1.347 . S
C321 H313 0.951 . S
C321 C316 1.429 . S
C321 C320 1.347 . S
H322 C323 0.952 . S
C323 H322 0.952 . S
C323 C329 1.264 1_545 S
H324 C329 0.950 . S
H325 C333 0.949 . S
H326 C334 0.950 . S
H327 C335 0.951 . S
H328 C336 0.951 . S
C329 C323 1.264 1_565 S
C329 H324 0.950 . S
C329 C330 1.479 . S
C330 C329 1.479 . S
C330 C331 1.414 . S
C330 C347 1.377 1_565 S
C331 C330 1.414 . S
C331 C332 1.438 . S
C331 C336 1.429 . S
C332 C331 1.438 . S
C332 C333 1.428 . S
C332 C345 1.394 1_565 S
C333 H325 0.949 . S
C333 C332 1.428 . S
C333 C334 1.345 . S
C334 H326 0.950 . S
C334 C333 1.345 . S
C334 C335 1.424 . S
C335 H327 0.951 . S
C335 C334 1.424 . S
C335 C336 1.347 . S
C336 H328 0.951 . S
C336 C331 1.429 . S
C336 C335 1.347 . S
H337 C338 0.949 1_565 S
C338 H337 0.949 1_545 S
C338 C344 1.267 . S
H339 C344 0.950 . S
H340 C348 0.949 . S
H341 C349 0.950 . S
H342 C350 0.951 . S
H343 C351 0.951 . S
C344 C338 1.267 . S
C344 H339 0.950 . S
C344 C345 1.478 . S
C345 C332 1.394 1_545 S
C345 C344 1.478 . S
C345 C346 1.397 . S
C346 C345 1.397 . S
C346 C347 1.438 . S
C346 C351 1.429 . S
C347 C330 1.377 1_545 S
C347 C346 1.438 . S
C347 C348 1.428 . S
C348 H340 0.949 . S
C348 C347 1.428 . S
C348 C349 1.345 . S
C349 H341 0.950 . S
C349 C348 1.345 . S
C349 C350 1.424 . S
C350 H342 0.951 . S
C350 C349 1.424 . S
C350 C351 1.347 . S
C351 H343 0.951 . S
C351 C346 1.429 . S
C351 C350 1.347 . S
H352 C353 0.951 . S
C353 H352 0.951 . S
C353 C359 1.265 1_655 S
H354 C359 0.950 . S
H355 C363 0.954 . S
H356 C364 0.950 . S
H357 C365 0.951 . S
H358 C366 0.951 . S
C359 C353 1.265 1_455 S
C359 H354 0.950 . S
C359 C360 1.478 . S
C360 C359 1.478 . S
C360 C361 1.397 . S
C360 C377 1.394 1_455 S
C361 C360 1.397 . S
C361 C362 1.438 . S
C361 C366 1.429 . S
C362 C361 1.438 . S
C362 C363 1.428 . S
C362 C375 1.394 1_455 S
C363 H355 0.954 . S
C363 C362 1.428 . S
C363 C364 1.345 . S
C364 H356 0.950 . S
C364 C363 1.345 . S
C364 C365 1.424 . S
C365 H357 0.951 . S
C365 C364 1.424 . S
C365 C366 1.347 . S
C366 H358 0.951 . S
C366 C361 1.429 . S
C366 C365 1.347 . S
H367 C368 0.951 . S
C368 H367 0.951 . S
C368 C374 1.265 1_455 S
H369 C374 0.950 . S
H370 C378 0.949 . S
H371 C379 0.950 . S
H372 C380 0.951 . S
H373 C381 0.951 . S
C374 C368 1.265 1_655 S
C374 H369 0.950 . S
C374 C375 1.478 . S
C375 C362 1.394 1_655 S
C375 C374 1.478 . S
C375 C376 1.397 . S
C376 C375 1.397 . S
C376 C377 1.438 . S
C376 C381 1.429 . S
C377 C360 1.394 1_655 S
C377 C376 1.438 . S
C377 C378 1.428 . S
C378 H370 0.949 . S
C378 C377 1.428 . S
C378 C379 1.345 . S
C379 H371 0.950 . S
C379 C378 1.345 . S
C379 C380 1.424 . S
C380 H372 0.951 . S
C380 C379 1.424 . S
C380 C381 1.347 . S
C381 H373 0.951 . S
C381 C376 1.429 . S
C381 C380 1.347 . S
H382 C383 0.954 . S
C383 H382 0.954 . S
C383 C389 1.264 1_545 S
H384 C389 0.950 . S
H385 C393 0.949 . S
H386 C394 0.950 . S
H387 C395 0.951 . S
H388 C396 0.951 . S
C389 C383 1.264 1_565 S
C389 H384 0.950 . S
C389 C390 1.478 . S
C390 C389 1.478 . S
C390 C391 1.397 1_565 S
C390 C407 1.394 . S
C391 C390 1.397 1_545 S
C391 C392 1.438 . S
C391 C396 1.429 . S
C392 C391 1.438 . S
C392 C393 1.428 . S
C392 C405 1.398 . S
C393 H385 0.949 . S
C393 C392 1.428 . S
C393 C394 1.345 . S
C394 H386 0.950 . S
C394 C393 1.345 . S
C394 C395 1.424 . S
C395 H387 0.951 . S
C395 C394 1.424 . S
C395 C396 1.347 . S
C396 H388 0.951 . S
C396 C391 1.429 . S
C396 C395 1.347 . S
H397 C398 0.951 . S
C398 H397 0.951 . S
C398 C404 1.264 1_565 S
H399 C404 0.951 . S
H400 C408 0.949 . S
H401 C409 0.950 . S
H402 C410 0.951 . S
H403 C411 0.951 . S
C404 C398 1.264 1_545 S
C404 H399 0.951 . S
C404 C405 1.478 . S
C405 C392 1.398 . S
C405 C404 1.478 . S
C405 C406 1.393 1_545 S
C406 C405 1.393 1_565 S
C406 C407 1.438 . S
C406 C411 1.429 . S
C407 C390 1.394 . S
C407 C406 1.438 . S
C407 C408 1.428 . S
C408 H400 0.949 . S
C408 C407 1.428 . S
C408 C409 1.345 . S
C409 H401 0.950 . S
C409 C408 1.345 . S
C409 C410 1.424 . S
C410 H402 0.951 . S
C410 C409 1.424 . S
C410 C411 1.347 . S
C411 H403 0.951 . S
C411 C406 1.429 . S
C411 C410 1.347 . S
H412 C413 0.951 . S
C413 H412 0.951 . S
C413 C419 1.265 1_455 S
H414 C419 0.950 . S
H415 C423 0.949 . S
H416 C424 0.950 . S
H417 C425 0.951 . S
H418 C426 0.951 . S
C419 C413 1.265 1_655 S
C419 H414 0.950 . S
C419 C420 1.478 . S
C420 C419 1.478 . S
C420 C421 1.397 . S
C420 C437 1.394 1_655 S
C421 C420 1.397 . S
C421 C422 1.438 . S
C421 C426 1.429 . S
C422 C421 1.438 . S
C422 C423 1.428 . S
C422 C435 1.394 1_655 S
C423 H415 0.949 . S
C423 C422 1.428 . S
C423 C424 1.345 . S
C424 H416 0.950 . S
C424 C423 1.345 . S
C424 C425 1.424 . S
C425 H417 0.951 . S
C425 C424 1.424 . S
C425 C426 1.347 . S
C426 H418 0.951 . S
C426 C421 1.429 . S
C426 C425 1.347 . S
H427 C428 0.951 . S
C428 H427 0.951 . S
C428 C434 1.265 1_655 S
H429 C434 0.950 . S
H430 C438 0.949 . S
H431 C439 0.950 . S
H432 C440 0.951 . S
H433 C441 0.951 . S
C434 C428 1.265 1_455 S
C434 H429 0.950 . S
C434 C435 1.478 . S
C435 C422 1.394 1_455 S
C435 C434 1.478 . S
C435 C436 1.397 . S
C436 C435 1.397 . S
C436 C437 1.438 . S
C436 C441 1.429 . S
C437 C420 1.394 1_455 S
C437 C436 1.438 . S
C437 C438 1.428 . S
C438 H430 0.949 . S
C438 C437 1.428 . S
C438 C439 1.345 . S
C439 H431 0.950 . S
C439 C438 1.345 . S
C439 C440 1.424 . S
C440 H432 0.951 . S
C440 C439 1.424 . S
C440 C441 1.347 . S
C441 H433 0.951 . S
C441 C436 1.429 . S
C441 C440 1.347 . S
C218 C75 1.404 1_565 S
C203 C5 1.386 1_545 S
C248 C163 1.477 . S
C233 C23 1.474 1_655 S
C278 C83 1.404 . S
C263 C3 1.391 1_545 S
C308 C171 1.477 1_655 S
C293 C14 1.456 . S
C338 C143 1.477 . S
C323 C1 1.463 1_545 S
C368 C46 1.385 . S
C353 C16 1.405 1_655 S
C398 C134 1.478 1_565 S
C383 C10 1.468 1_545 S
C413 C18 1.362 . S
C428 C55 1.388 1_655 S
