# Generated by pormake.
# Topology fgl, (4,4)-cn, num edge types: 1
# Building blocks:
#     Node 0, Type 0, BuildingBlock: ESEHIV_clean_sbu_0, # of connection points: 4
#     Node 1, Type 0, BuildingBlock: ESEHIV_clean_sbu_0, # of connection points: 4
#     Node 2, Type 0, BuildingBlock: ESEHIV_clean_sbu_0, # of connection points: 4
#     Node 3, Type 0, BuildingBlock: ESEHIV_clean_sbu_0, # of connection points: 4
#     Node 4, Type 0, BuildingBlock: ESEHIV_clean_sbu_0, # of connection points: 4
#     Node 5, Type 0, BuildingBlock: ESEHIV_clean_sbu_0, # of connection points: 4
#     Node 6, Type 0, BuildingBlock: ESEHIV_clean_sbu_0, # of connection points: 4
#     Node 7, Type 0, BuildingBlock: ESEHIV_clean_sbu_0, # of connection points: 4
#     Node 8, Type 0, BuildingBlock: ESEHIV_clean_sbu_0, # of connection points: 4
#     Node 9, Type 0, BuildingBlock: ESEHIV_clean_sbu_0, # of connection points: 4
#     Node 10, Type 0, BuildingBlock: ESEHIV_clean_sbu_0, # of connection points: 4
#     Node 11, Type 0, BuildingBlock: ESEHIV_clean_sbu_0, # of connection points: 4
#     Node 12, Type 0, BuildingBlock: ESEHIV_clean_sbu_0, # of connection points: 4
#     Node 13, Type 0, BuildingBlock: ESEHIV_clean_sbu_0, # of connection points: 4
#     Node 14, Type 0, BuildingBlock: ESEHIV_clean_sbu_0, # of connection points: 4
#     Node 15, Type 0, BuildingBlock: ESEHIV_clean_sbu_0, # of connection points: 4
#     Node 16, Type 0, BuildingBlock: ESEHIV_clean_sbu_0, # of connection points: 4
#     Node 17, Type 0, BuildingBlock: ESEHIV_clean_sbu_0, # of connection points: 4
#     Node 18, Type 1, BuildingBlock: QUQFOY_clean_sbu_3, # of connection points: 4
#     Node 19, Type 1, BuildingBlock: QUQFOY_clean_sbu_3, # of connection points: 4
#     Node 20, Type 1, BuildingBlock: QUQFOY_clean_sbu_3, # of connection points: 4
#     Node 21, Type 1, BuildingBlock: QUQFOY_clean_sbu_3, # of connection points: 4
#     Node 22, Type 1, BuildingBlock: QUQFOY_clean_sbu_3, # of connection points: 4
#     Node 23, Type 1, BuildingBlock: QUQFOY_clean_sbu_3, # of connection points: 4
#     Node 24, Type 1, BuildingBlock: QUQFOY_clean_sbu_3, # of connection points: 4
#     Node 25, Type 1, BuildingBlock: QUQFOY_clean_sbu_3, # of connection points: 4
#     Node 26, Type 1, BuildingBlock: QUQFOY_clean_sbu_3, # of connection points: 4
#     Node 27, Type 1, BuildingBlock: QUQFOY_clean_sbu_3, # of connection points: 4
#     Node 28, Type 1, BuildingBlock: QUQFOY_clean_sbu_3, # of connection points: 4
#     Node 29, Type 1, BuildingBlock: QUQFOY_clean_sbu_3, # of connection points: 4
#     Node 30, Type 1, BuildingBlock: QUQFOY_clean_sbu_3, # of connection points: 4
#     Node 31, Type 1, BuildingBlock: QUQFOY_clean_sbu_3, # of connection points: 4
#     Node 32, Type 1, BuildingBlock: QUQFOY_clean_sbu_3, # of connection points: 4
#     Node 33, Type 1, BuildingBlock: QUQFOY_clean_sbu_3, # of connection points: 4
#     Node 34, Type 1, BuildingBlock: QUQFOY_clean_sbu_3, # of connection points: 4
#     Node 35, Type 1, BuildingBlock: QUQFOY_clean_sbu_3, # of connection points: 4
#     Edge 36, Type (0, 1), BuildingBlock: EZIPEK_clean_linker_0, # of connection points: 2
#     Edge 37, Type (0, 1), BuildingBlock: EZIPEK_clean_linker_0, # of connection points: 2
#     Edge 38, Type (0, 1), BuildingBlock: EZIPEK_clean_linker_0, # of connection points: 2
#     Edge 39, Type (0, 1), BuildingBlock: EZIPEK_clean_linker_0, # of connection points: 2
#     Edge 40, Type (0, 1), BuildingBlock: EZIPEK_clean_linker_0, # of connection points: 2
#     Edge 41, Type (0, 1), BuildingBlock: EZIPEK_clean_linker_0, # of connection points: 2
#     Edge 42, Type (0, 1), BuildingBlock: EZIPEK_clean_linker_0, # of connection points: 2
#     Edge 43, Type (0, 1), BuildingBlock: EZIPEK_clean_linker_0, # of connection points: 2
#     Edge 44, Type (0, 1), BuildingBlock: EZIPEK_clean_linker_0, # of connection points: 2
#     Edge 45, Type (0, 1), BuildingBlock: EZIPEK_clean_linker_0, # of connection points: 2
#     Edge 46, Type (0, 1), BuildingBlock: EZIPEK_clean_linker_0, # of connection points: 2
#     Edge 47, Type (0, 1), BuildingBlock: EZIPEK_clean_linker_0, # of connection points: 2
#     Edge 48, Type (0, 1), BuildingBlock: EZIPEK_clean_linker_0, # of connection points: 2
#     Edge 49, Type (0, 1), BuildingBlock: EZIPEK_clean_linker_0, # of connection points: 2
#     Edge 50, Type (0, 1), BuildingBlock: EZIPEK_clean_linker_0, # of connection points: 2
#     Edge 51, Type (0, 1), BuildingBlock: EZIPEK_clean_linker_0, # of connection points: 2
#     Edge 52, Type (0, 1), BuildingBlock: EZIPEK_clean_linker_0, # of connection points: 2
#     Edge 53, Type (0, 1), BuildingBlock: EZIPEK_clean_linker_0, # of connection points: 2
#     Edge 54, Type (0, 1), BuildingBlock: EZIPEK_clean_linker_0, # of connection points: 2
#     Edge 55, Type (0, 1), BuildingBlock: EZIPEK_clean_linker_0, # of connection points: 2
#     Edge 56, Type (0, 1), BuildingBlock: EZIPEK_clean_linker_0, # of connection points: 2
#     Edge 57, Type (0, 1), BuildingBlock: EZIPEK_clean_linker_0, # of connection points: 2
#     Edge 58, Type (0, 1), BuildingBlock: EZIPEK_clean_linker_0, # of connection points: 2
#     Edge 59, Type (0, 1), BuildingBlock: EZIPEK_clean_linker_0, # of connection points: 2
#     Edge 60, Type (0, 1), BuildingBlock: EZIPEK_clean_linker_0, # of connection points: 2
#     Edge 61, Type (0, 1), BuildingBlock: EZIPEK_clean_linker_0, # of connection points: 2
#     Edge 62, Type (0, 1), BuildingBlock: EZIPEK_clean_linker_0, # of connection points: 2
#     Edge 63, Type (0, 1), BuildingBlock: EZIPEK_clean_linker_0, # of connection points: 2
#     Edge 64, Type (0, 1), BuildingBlock: EZIPEK_clean_linker_0, # of connection points: 2
#     Edge 65, Type (0, 1), BuildingBlock: EZIPEK_clean_linker_0, # of connection points: 2
#     Edge 66, Type (0, 1), BuildingBlock: EZIPEK_clean_linker_0, # of connection points: 2
#     Edge 67, Type (0, 1), BuildingBlock: EZIPEK_clean_linker_0, # of connection points: 2
#     Edge 68, Type (0, 1), BuildingBlock: EZIPEK_clean_linker_0, # of connection points: 2
#     Edge 69, Type (0, 1), BuildingBlock: EZIPEK_clean_linker_0, # of connection points: 2
#     Edge 70, Type (0, 1), BuildingBlock: EZIPEK_clean_linker_0, # of connection points: 2
#     Edge 71, Type (0, 1), BuildingBlock: EZIPEK_clean_linker_0, # of connection points: 2
#     Edge 72, Type (0, 1), BuildingBlock: EZIPEK_clean_linker_0, # of connection points: 2
#     Edge 73, Type (0, 1), BuildingBlock: EZIPEK_clean_linker_0, # of connection points: 2
#     Edge 74, Type (0, 1), BuildingBlock: EZIPEK_clean_linker_0, # of connection points: 2
#     Edge 75, Type (0, 1), BuildingBlock: EZIPEK_clean_linker_0, # of connection points: 2
#     Edge 76, Type (0, 1), BuildingBlock: EZIPEK_clean_linker_0, # of connection points: 2
#     Edge 77, Type (0, 1), BuildingBlock: EZIPEK_clean_linker_0, # of connection points: 2
#     Edge 78, Type (0, 1), BuildingBlock: EZIPEK_clean_linker_0, # of connection points: 2
#     Edge 79, Type (0, 1), BuildingBlock: EZIPEK_clean_linker_0, # of connection points: 2
#     Edge 80, Type (0, 1), BuildingBlock: EZIPEK_clean_linker_0, # of connection points: 2
#     Edge 81, Type (0, 1), BuildingBlock: EZIPEK_clean_linker_0, # of connection points: 2
#     Edge 82, Type (0, 1), BuildingBlock: EZIPEK_clean_linker_0, # of connection points: 2
#     Edge 83, Type (0, 1), BuildingBlock: EZIPEK_clean_linker_0, # of connection points: 2
#     Edge 84, Type (0, 1), BuildingBlock: EZIPEK_clean_linker_0, # of connection points: 2
#     Edge 85, Type (0, 1), BuildingBlock: EZIPEK_clean_linker_0, # of connection points: 2
#     Edge 86, Type (0, 1), BuildingBlock: EZIPEK_clean_linker_0, # of connection points: 2
#     Edge 87, Type (0, 1), BuildingBlock: EZIPEK_clean_linker_0, # of connection points: 2
#     Edge 88, Type (0, 1), BuildingBlock: EZIPEK_clean_linker_0, # of connection points: 2
#     Edge 89, Type (0, 1), BuildingBlock: EZIPEK_clean_linker_0, # of connection points: 2
#     Edge 90, Type (0, 1), BuildingBlock: EZIPEK_clean_linker_0, # of connection points: 2
#     Edge 91, Type (0, 1), BuildingBlock: EZIPEK_clean_linker_0, # of connection points: 2
#     Edge 92, Type (0, 1), BuildingBlock: EZIPEK_clean_linker_0, # of connection points: 2
#     Edge 93, Type (0, 1), BuildingBlock: EZIPEK_clean_linker_0, # of connection points: 2
#     Edge 94, Type (0, 1), BuildingBlock: EZIPEK_clean_linker_0, # of connection points: 2
#     Edge 95, Type (0, 1), BuildingBlock: EZIPEK_clean_linker_0, # of connection points: 2
#     Edge 96, Type (0, 1), BuildingBlock: EZIPEK_clean_linker_0, # of connection points: 2
#     Edge 97, Type (0, 1), BuildingBlock: EZIPEK_clean_linker_0, # of connection points: 2
#     Edge 98, Type (0, 1), BuildingBlock: EZIPEK_clean_linker_0, # of connection points: 2
#     Edge 99, Type (0, 1), BuildingBlock: EZIPEK_clean_linker_0, # of connection points: 2
#     Edge 100, Type (0, 1), BuildingBlock: EZIPEK_clean_linker_0, # of connection points: 2
#     Edge 101, Type (0, 1), BuildingBlock: EZIPEK_clean_linker_0, # of connection points: 2
#     Edge 102, Type (0, 1), BuildingBlock: EZIPEK_clean_linker_0, # of connection points: 2
#     Edge 103, Type (0, 1), BuildingBlock: EZIPEK_clean_linker_0, # of connection points: 2
#     Edge 104, Type (0, 1), BuildingBlock: EZIPEK_clean_linker_0, # of connection points: 2
#     Edge 105, Type (0, 1), BuildingBlock: EZIPEK_clean_linker_0, # of connection points: 2
#     Edge 106, Type (0, 1), BuildingBlock: EZIPEK_clean_linker_0, # of connection points: 2
#     Edge 107, Type (0, 1), BuildingBlock: EZIPEK_clean_linker_0, # of connection points: 2
# Relax obj value: 0.022
# Max RMSD: 0.137
# Mean RMSD: 0.075
data_MOF--net-fgl--node1-ESEHIV_clean_sbu_0--node2-QUQFOY_clean_sbu_3--edge1-EZIPEK_clean_linker_0
_symmetry_space_group_name_H-M    P1
_symmetry_Int_Tables_number       1
_symmetry_cell_setting            triclinic
loop_
_symmetry_equiv_pos_as_xyz
'x, y, z'
_cell_length_a     57.038008
_cell_length_b     57.206687
_cell_length_c     39.245516
_cell_angle_alpha  88.726217
_cell_angle_beta   91.106515
_cell_angle_gamma 119.91174
loop_
_atom_site_label
_atom_site_type_symbol
_atom_site_fract_x
_atom_site_fract_y
_atom_site_fract_z
_atom_type_partial_charge
Cu0 Cu 0.02959 0.5419 1.00226 0.0
N1 N 0.04994 0.5711 0.03145 0.0
N2 N 0.05705 0.60078 0.07236 0.0
C3 C 0.03872 0.58172 0.05154 0.0
C4 C 0.08086 0.60242 0.06512 0.0
C5 C 0.07641 0.58405 0.03982 0.0
O6 O 0.99904 0.54675 0.98945 0.0
C7 C 0.01406 0.50498 0.05888 0.0
O8 O 0.00921 0.52193 0.07512 0.0
H9 H 0.01728 0.57491 0.05176 0.0
H10 H 0.09124 0.57986 0.0291 0.0
N11 N 0.04768 0.54072 0.96305 0.0
N12 N 0.05379 0.52278 0.9159 0.0
C13 C 0.04207 0.51781 0.9469 0.0
C14 C 0.06418 0.56092 0.9419 0.0
C15 C 0.06774 0.54994 0.91277 0.0
C16 C 0.99555 0.55312 0.95925 0.0
O17 O 0.00673 0.54803 0.93372 0.0
H18 H 0.02838 0.49781 0.95685 0.0
H19 H 0.07191 0.5821 0.94642 0.0
O20 O 0.0205 0.50907 0.02762 0.0
H21 H 0.09988 0.61535 0.07791 0.0
H22 H 0.07906 0.56104 0.89049 0.0
Cu23 Cu 0.5012 0.56054 0.02623 0.0
N24 N 0.50965 0.56453 0.97757 0.0
N25 N 0.53242 0.5783 0.92884 0.0
C26 C 0.534 0.57437 0.96271 0.0
C27 C 0.50637 0.5708 0.92222 0.0
C28 C 0.49242 0.56254 0.9524 0.0
O29 O 0.53212 0.60028 0.03253 0.0
C30 C 0.47339 0.50157 0.01061 0.0
O31 O 0.49815 0.50585 0.00791 0.0
H32 H 0.55262 0.57989 0.97652 0.0
H33 H 0.47149 0.55684 0.95609 0.0
N34 N 0.49165 0.55725 0.07488 0.0
N35 N 0.47296 0.5403 0.12559 0.0
C36 C 0.47913 0.53479 0.09476 0.0
C37 C 0.49295 0.57722 0.09384 0.0
C38 C 0.48173 0.56692 0.12514 0.0
C39 C 0.55143 0.60836 0.05442 0.0
O40 O 0.55218 0.59065 0.07566 0.0
H41 H 0.47338 0.51473 0.08638 0.0
H42 H 0.50016 0.5976 0.085 0.0
O43 O 0.46987 0.52126 0.01827 0.0
H44 H 0.49837 0.57241 0.89759 0.0
H45 H 0.47871 0.57775 0.14529 0.0
Cu46 Cu 0.48947 0.98734 0.00706 0.0
N47 N 0.47092 0.9665 0.96968 0.0
N48 N 0.45385 0.96195 0.91718 0.0
C49 C 0.45787 0.97414 0.94739 0.0
C50 C 0.46394 0.94514 0.92094 0.0
C51 C 0.4741 0.94765 0.95377 0.0
O52 O 0.46513 0.9958 0.03106 0.0
C53 C 0.53718 0.01593 0.96814 0.0
O54 O 0.52458 0.99525 0.94796 0.0
H55 H 0.45438 0.99075 0.95176 0.0
H56 H 0.4859 0.93894 0.96376 0.0
N57 N 0.49817 0.96828 0.03833 0.0
N58 N 0.52162 0.96759 0.08378 0.0
C59 C 0.52243 0.97978 0.05387 0.0
C60 C 0.48141 0.94771 0.05886 0.0
C61 C 0.49597 0.94722 0.08716 0.0
C62 C 0.45836 0.01337 0.0236 0.0
O63 O 0.46951 0.03003 0.99768 0.0
H64 H 0.53942 0.99885 0.04581 0.0
H65 H 0.45969 0.93608 0.05553 0.0
O66 O 0.52461 0.0181 0.99339 0.0
H67 H 0.46594 0.93375 0.90066 0.0
H68 H 0.48788 0.93476 0.10982 0.0
Cu69 Cu 0.5113 0.03721 0.51274 0.0
N70 N 0.50631 0.02337 0.46911 0.0
N71 N 0.51622 0.01987 0.41565 0.0
C72 C 0.52559 0.03286 0.44524 0.0
C73 C 0.48998 0.00157 0.42073 0.0
C74 C 0.48385 0.00384 0.45394 0.0
O75 O 0.54812 0.04514 0.52756 0.0
C76 C 0.47652 0.05773 0.50249 0.0
O77 O 0.45982 0.0316 0.50178 0.0
H78 H 0.54613 0.04897 0.44949 0.0
H79 H 0.46442 0.99218 0.46608 0.0
N80 N 0.48657 0.01142 0.54283 0.0
N81 N 0.45666 0.9947 0.58473 0.0
C82 C 0.47619 0.01718 0.5697 0.0
C83 C 0.47329 0.9843 0.54107 0.0
C84 C 0.45466 0.97385 0.56708 0.0
C85 C 0.55292 0.0255 0.52584 0.0
O86 O 0.53364 0.00222 0.51461 0.0
H87 H 0.48202 0.03748 0.57723 0.0
H88 H 0.47629 0.97297 0.52162 0.0
O89 O 0.50173 0.0662 0.50819 0.0
H90 H 0.47646 0.98752 0.40193 0.0
H91 H 0.44032 0.9528 0.57212 0.0
Cu92 Cu 0.04383 0.56762 0.5143 0.0
N93 N 0.06431 0.55931 0.54625 0.0
N94 N 0.06946 0.535 0.58896 0.0
C95 C 0.0576 0.53432 0.55837 0.0
C96 C 0.08456 0.56144 0.59605 0.0
C97 C 0.0814 0.57623 0.56995 0.0
O98 O 0.01161 0.53357 0.50403 0.0
C99 C 0.05739 0.6187 0.53416 0.0
O100 O 0.08051 0.62309 0.52183 0.0
H101 H 0.04242 0.51586 0.54673 0.0
H102 H 0.08909 0.59771 0.57013 0.0
N103 N 0.05893 0.58267 0.47129 0.0
N104 N 0.06091 0.60187 0.42006 0.0
C105 C 0.04616 0.59055 0.44836 0.0
C106 C 0.08258 0.58891 0.45671 0.0
C107 C 0.0838 0.60069 0.42497 0.0
C108 C 0.01698 0.51832 0.48663 0.0
O109 O 0.04207 0.5274 0.47715 0.0
H110 H 0.0266 0.58864 0.45275 0.0
H111 H 0.09795 0.58551 0.46845 0.0
O112 O 0.03721 0.59472 0.53435 0.0
H113 H 0.09572 0.56944 0.61957 0.0
H114 H 0.10039 0.60829 0.40722 0.0
Cu115 Cu 0.50505 0.57431 0.53707 0.0
N116 N 0.52314 0.60403 0.50801 0.0
N117 N 0.55772 0.6343 0.47715 0.0
C118 C 0.54949 0.61494 0.50127 0.0
C119 C 0.53562 0.63566 0.46757 0.0
C120 C 0.5141 0.61681 0.48688 0.0
O121 O 0.52738 0.58018 0.57841 0.0
C122 C 0.50339 0.54087 0.48217 0.0
O123 O 0.52861 0.55895 0.47569 0.0
H124 H 0.56215 0.60764 0.51208 0.0
H125 H 0.49325 0.61198 0.48453 0.0
N126 N 0.47231 0.57004 0.55117 0.0
N127 N 0.42876 0.54514 0.56389 0.0
C128 C 0.45225 0.54552 0.56017 0.0
C129 C 0.46119 0.58603 0.54945 0.0
C130 C 0.43398 0.57051 0.55732 0.0
C131 C 0.55017 0.58117 0.58133 0.0
O132 O 0.55979 0.57432 0.55565 0.0
H133 H 0.45444 0.52777 0.56175 0.0
H134 H 0.47163 0.60695 0.54128 0.0
O135 O 0.49293 0.54182 0.5101 0.0
H136 H 0.53498 0.64868 0.44758 0.0
H137 H 0.41903 0.5769 0.55655 0.0
Cu138 Cu 0.67662 0.87518 0.34753 0.0
N139 N 0.64517 0.87649 0.34241 0.0
N140 N 0.62443 0.89971 0.33006 0.0
C141 C 0.64718 0.90078 0.34133 0.0
C142 C 0.607 0.87354 0.32341 0.0
C143 C 0.62003 0.85905 0.33116 0.0
O144 O 0.69679 0.90546 0.38022 0.0
C145 C 0.70425 0.86827 0.28802 0.0
O146 O 0.72399 0.87098 0.30834 0.0
H147 H 0.66597 0.9194 0.34555 0.0
H148 H 0.61265 0.83801 0.32598 0.0
N149 N 0.67095 0.84357 0.36844 0.0
N150 N 0.68217 0.81399 0.38869 0.0
C151 C 0.69117 0.83858 0.37487 0.0
C152 C 0.64821 0.82142 0.37894 0.0
C153 C 0.65518 0.80296 0.39174 0.0
C154 C 0.68854 0.90078 0.41131 0.0
O155 O 0.67172 0.87579 0.4207 0.0
H156 H 0.71216 0.85263 0.36935 0.0
H157 H 0.6281 0.8188 0.3771 0.0
O158 O 0.68629 0.87322 0.29937 0.0
H159 H 0.58749 0.86599 0.31101 0.0
H160 H 0.64162 0.78293 0.4017 0.0
Cu161 Cu 0.18725 0.8991 0.36144 0.0
N162 N 0.15579 0.88295 0.33469 0.0
N163 N 0.12222 0.84879 0.30642 0.0
C164 C 0.14002 0.85599 0.33258 0.0
C165 C 0.12673 0.87214 0.29152 0.0
C166 C 0.14742 0.89324 0.30915 0.0
O167 O 0.17817 0.87393 0.40065 0.0
C168 C 0.22171 0.92231 0.30735 0.0
O169 O 0.20895 0.93607 0.30714 0.0
H170 H 0.1427 0.84181 0.34857 0.0
H171 H 0.1566 0.91443 0.30258 0.0
N172 N 0.19654 0.93355 0.37658 0.0
N173 N 0.22287 0.97567 0.39457 0.0
C174 C 0.22192 0.95285 0.38453 0.0
C175 C 0.18085 0.94456 0.38179 0.0
C176 C 0.19712 0.97066 0.39299 0.0
C177 C 0.17491 0.88014 0.43058 0.0
O178 O 0.18398 0.90556 0.43764 0.0
H179 H 0.23943 0.95031 0.38275 0.0
H180 H 0.1592 0.93436 0.37765 0.0
O181 O 0.21614 0.90414 0.33041 0.0
H182 H 0.11644 0.87372 0.26887 0.0
H183 H 0.19069 0.98495 0.3991 0.0
Cu184 Cu 0.16766 0.36203 0.36506 0.0
N185 N 0.15226 0.34639 0.32329 0.0
N186 N 0.1317 0.34111 0.27294 0.0
C187 C 0.14428 0.35788 0.29892 0.0
C188 C 0.13197 0.31818 0.28072 0.0
C189 C 0.14469 0.32149 0.31203 0.0
O190 O 0.14223 0.37072 0.38666 0.0
C191 C 0.21975 0.38222 0.34127 0.0
O192 O 0.20677 0.35971 0.32419 0.0
H193 H 0.14689 0.37785 0.30043 0.0
H194 H 0.14754 0.30658 0.32602 0.0
N195 N 0.16963 0.33754 0.39509 0.0
N196 N 0.18585 0.32541 0.43988 0.0
C197 C 0.19003 0.34525 0.41765 0.0
C198 C 0.15153 0.31184 0.40359 0.0
C199 C 0.1616 0.30423 0.43148 0.0
C200 C 0.13346 0.38611 0.37571 0.0
O201 O 0.14552 0.40291 0.35023 0.0
H202 H 0.20723 0.36549 0.41871 0.0
H203 H 0.13198 0.29998 0.39145 0.0
O204 O 0.206 0.38956 0.35905 0.0
H205 H 0.12266 0.30011 0.26557 0.0
H206 H 0.1516 0.28515 0.44522 0.0
Cu207 Cu 0.17012 0.36079 0.86858 0.0
N208 N 0.18032 0.37625 0.8254 0.0
N209 N 0.20064 0.38575 0.77506 0.0
C210 C 0.19357 0.36974 0.80299 0.0
C211 C 0.19153 0.40311 0.77984 0.0
C212 C 0.17882 0.39709 0.81108 0.0
O213 O 0.19763 0.35234 0.88567 0.0
C214 C 0.11127 0.32379 0.85493 0.0
O215 O 0.09021 0.29971 0.85981 0.0
H216 H 0.19898 0.35432 0.80753 0.0
H217 H 0.16989 0.40763 0.82298 0.0
N218 N 0.17129 0.38513 0.90016 0.0
N219 N 0.1545 0.39526 0.94475 0.0
C220 C 0.1497 0.38527 0.91297 0.0
C221 C 0.1909 0.3967 0.92399 0.0
C222 C 0.18056 0.40286 0.9516 0.0
C223 C 0.20218 0.33375 0.87659 0.0
O224 O 0.18644 0.31627 0.85371 0.0
H225 H 0.13004 0.37507 0.90134 0.0
H226 H 0.21022 0.39747 0.92317 0.0
O227 O 0.13399 0.32877 0.86814 0.0
H228 H 0.19461 0.41937 0.76253 0.0
H229 H 0.19057 0.40996 0.97599 0.0
Cu230 Cu 0.70059 0.88961 0.84073 0.0
N231 N 0.7152 0.86998 0.82163 0.0
N232 N 0.7152 0.83204 0.80861 0.0
C233 C 0.7 0.84338 0.81537 0.0
C234 C 0.74107 0.85235 0.8103 0.0
C235 C 0.74102 0.87579 0.81835 0.0
O236 O 0.68051 0.86623 0.88047 0.0
C237 C 0.67319 0.89115 0.77507 0.0
O238 O 0.66387 0.86534 0.77027 0.0
H239 H 0.67825 0.83211 0.81825 0.0
H240 H 0.75856 0.89519 0.82346 0.0
N241 N 0.72579 0.92347 0.85783 0.0
N242 N 0.73886 0.96515 0.87537 0.0
C243 C 0.71893 0.94268 0.86118 0.0
C244 C 0.75126 0.93433 0.8702 0.0
C245 C 0.75944 0.96026 0.88106 0.0
C246 C 0.68454 0.8746 0.91123 0.0
O247 O 0.69519 0.90052 0.91659 0.0
H248 H 0.69932 0.93999 0.854 0.0
H249 H 0.76282 0.92405 0.87192 0.0
O250 O 0.6847 0.90141 0.80347 0.0
H251 H 0.75869 0.85008 0.8077 0.0
H252 H 0.77868 0.97419 0.89266 0.0
Cu253 Cu 0.1725 0.8806 0.87356 0.0
N254 N 0.15239 0.88119 0.83563 0.0
N255 N 0.13179 0.86781 0.785 0.0
C256 C 0.14314 0.86192 0.81176 0.0
C257 C 0.13386 0.89173 0.79208 0.0
C258 C 0.14664 0.9 0.82349 0.0
O259 O 0.15279 0.84322 0.88951 0.0
C260 C 0.22078 0.91757 0.84722 0.0
O261 O 0.2083 0.93152 0.84974 0.0
H262 H 0.14557 0.84433 0.81343 0.0
H263 H 0.15219 0.91877 0.83591 0.0
N264 N 0.17693 0.90417 0.90889 0.0
N265 N 0.19538 0.92907 0.95527 0.0
C266 C 0.1966 0.91222 0.93287 0.0
C267 C 0.16278 0.91645 0.91642 0.0
C268 C 0.17415 0.93185 0.94521 0.0
C269 C 0.13656 0.83617 0.91447 0.0
O270 O 0.13695 0.85471 0.93392 0.0
H271 H 0.2115 0.90577 0.93397 0.0
H272 H 0.14539 0.91424 0.90217 0.0
O273 O 0.20851 0.89281 0.85646 0.0
H274 H 0.12729 0.9027 0.77535 0.0
H275 H 0.16742 0.94409 0.95778 0.0
Cu276 Cu 0.377 0.23258 0.7185 0.0
N277 N 0.39492 0.26748 0.70029 0.0
N278 N 0.39303 0.30242 0.67682 0.0
C279 C 0.38269 0.28238 0.70028 0.0
C280 C 0.41313 0.30059 0.66185 0.0
C281 C 0.41434 0.27898 0.67653 0.0
O282 O 0.35823 0.23649 0.7584 0.0
C283 C 0.37088 0.20654 0.65722 0.0
O284 O 0.39717 0.21868 0.66181 0.0
H285 H 0.36425 0.27651 0.71403 0.0
H286 H 0.42659 0.27072 0.66799 0.0
N287 N 0.39946 0.21924 0.73319 0.0
N288 N 0.41019 0.18773 0.74709 0.0
C289 C 0.39022 0.19275 0.73825 0.0
C290 C 0.42636 0.2315 0.7388 0.0
C291 C 0.43305 0.21197 0.74769 0.0
C292 C 0.37222 0.246 0.78578 0.0
O293 O 0.39607 0.24781 0.78801 0.0
H294 H 0.36921 0.17737 0.73525 0.0
H295 H 0.44006 0.25298 0.73636 0.0
O296 O 0.35634 0.20932 0.67962 0.0
H297 H 0.42431 0.31235 0.63986 0.0
H298 H 0.45302 0.21521 0.75384 0.0
Cu299 Cu 0.84547 0.21547 0.66774 0.0
N300 N 0.84185 0.22944 0.62606 0.0
N301 N 0.8552 0.25108 0.57622 0.0
C302 C 0.86201 0.24096 0.60337 0.0
C303 C 0.8298 0.24594 0.58184 0.0
C304 C 0.82155 0.23249 0.61288 0.0
O305 O 0.88333 0.24109 0.67981 0.0
C306 C 0.82604 0.16453 0.63406 0.0
O307 O 0.8373 0.17898 0.60649 0.0
H308 H 0.88158 0.24248 0.60706 0.0
H309 H 0.80243 0.22593 0.62526 0.0
N310 N 0.8235 0.21792 0.70029 0.0
N311 N 0.79434 0.20483 0.74314 0.0
C312 C 0.80499 0.19689 0.71872 0.0
C313 C 0.82461 0.23998 0.71353 0.0
C314 C 0.80655 0.23191 0.74018 0.0
C315 C 0.89556 0.24653 0.70856 0.0
O316 O 0.88426 0.22985 0.73443 0.0
H317 H 0.80032 0.17627 0.71542 0.0
H318 H 0.83839 0.26048 0.70534 0.0
O319 O 0.8312 0.17627 0.66282 0.0
H320 H 0.81841 0.252 0.56511 0.0
H321 H 0.8034 0.24487 0.75691 0.0
Cu322 Cu 0.85673 0.70545 0.67901 0.0
N323 N 0.84526 0.71988 0.64423 0.0
N324 N 0.82103 0.71793 0.59843 0.0
C325 C 0.82623 0.70374 0.6219 0.0
C326 C 0.83733 0.74413 0.606 0.0
C327 C 0.85241 0.74531 0.63463 0.0
O328 O 0.82345 0.67843 0.70087 0.0
C329 C 0.89419 0.70532 0.63282 0.0
O330 O 0.8843 0.71606 0.61122 0.0
H331 H 0.81676 0.68197 0.62247 0.0
H332 H 0.86775 0.76328 0.64702 0.0
N333 N 0.87714 0.72904 0.71326 0.0
N334 N 0.90459 0.74071 0.75835 0.0
C335 C 0.89014 0.72146 0.73571 0.0
C336 C 0.88347 0.75419 0.72206 0.0
C337 C 0.90063 0.76152 0.75025 0.0
C338 C 0.80979 0.68913 0.71082 0.0
O339 O 0.8197 0.71518 0.70617 0.0
H340 H 0.88911 0.70204 0.73533 0.0
H341 H 0.87627 0.76629 0.70904 0.0
O342 O 0.88193 0.69505 0.66082 0.0
H343 H 0.8386 0.76102 0.59145 0.0
H344 H 0.90942 0.78041 0.76369 0.0
Cu345 Cu 0.83176 0.69273 0.1591 0.0
N346 N 0.83084 0.67673 0.11804 0.0
N347 N 0.84759 0.66938 0.07143 0.0
C348 C 0.85221 0.68617 0.09729 0.0
C349 C 0.82229 0.64854 0.0757 0.0
C350 C 0.8119 0.65316 0.10473 0.0
O351 O 0.86782 0.70383 0.17955 0.0
C352 C 0.79697 0.71147 0.13772 0.0
O353 O 0.782 0.68551 0.13205 0.0
H354 H 0.87133 0.7043 0.10206 0.0
H355 H 0.7925 0.6398 0.11613 0.0
N356 N 0.80687 0.6684 0.1902 0.0
N357 N 0.78442 0.65782 0.23921 0.0
C358 C 0.79554 0.67616 0.21379 0.0
C359 C 0.80232 0.6439 0.20062 0.0
C360 C 0.78858 0.63739 0.23113 0.0
C361 C 0.8753 0.68604 0.18044 0.0
O362 O 0.85935 0.66235 0.1671 0.0
H363 H 0.79795 0.69615 0.21422 0.0
H364 H 0.81021 0.63252 0.18847 0.0
O365 O 0.82094 0.7203 0.14982 0.0
H366 H 0.81262 0.63083 0.05992 0.0
H367 H 0.78358 0.6199 0.24715 0.0
Cu368 Cu 0.37038 0.23151 0.21291 0.0
N369 N 0.38416 0.20958 0.19851 0.0
N370 N 0.38364 0.1722 0.18177 0.0
C371 C 0.36886 0.18419 0.18712 0.0
C372 C 0.4094 0.19087 0.1891 0.0
C373 C 0.40972 0.21405 0.1991 0.0
O374 O 0.35209 0.21732 0.25741 0.0
C375 C 0.34009 0.24941 0.16692 0.0
O376 O 0.33121 0.25633 0.19329 0.0
H377 H 0.34707 0.17418 0.18435 0.0
H378 H 0.42723 0.23244 0.20748 0.0
N379 N 0.39768 0.26612 0.22526 0.0
N380 N 0.4118 0.30701 0.24657 0.0
C381 C 0.39356 0.28732 0.22656 0.0
C382 C 0.41958 0.27289 0.24528 0.0
C383 C 0.42844 0.29825 0.25836 0.0
C384 C 0.34438 0.19372 0.26973 0.0
O385 O 0.33938 0.17416 0.24892 0.0
H386 H 0.37598 0.28735 0.2161 0.0
H387 H 0.42683 0.25934 0.25291 0.0
O388 O 0.35278 0.23645 0.17148 0.0
H389 H 0.42648 0.18753 0.18872 0.0
H390 H 0.44418 0.30833 0.27736 0.0
Cu391 Cu 0.82674 0.23714 0.17448 0.0
N392 N 0.81185 0.2379 0.13184 0.0
N393 N 0.79257 0.22072 0.08153 0.0
C394 C 0.79532 0.21538 0.11454 0.0
C395 C 0.80751 0.24779 0.07805 0.0
C396 C 0.81915 0.25838 0.10923 0.0
O397 O 0.80088 0.20359 0.19649 0.0
C398 C 0.87416 0.24506 0.14059 0.0
O399 O 0.85993 0.23955 0.11228 0.0
H400 H 0.78716 0.19525 0.12529 0.0
H401 H 0.83332 0.27932 0.11428 0.0
N402 N 0.83394 0.26623 0.20193 0.0
N403 N 0.85679 0.29683 0.24177 0.0
C404 C 0.84943 0.27211 0.23025 0.0
C405 C 0.83133 0.28805 0.19534 0.0
C406 C 0.84551 0.30708 0.22005 0.0
C407 C 0.77852 0.20126 0.2057 0.0
O408 O 0.77502 0.22226 0.20326 0.0
H409 H 0.8567 0.25924 0.24089 0.0
H410 H 0.82135 0.29064 0.17307 0.0
O411 O 0.86235 0.24088 0.16913 0.0
H412 H 0.81071 0.25894 0.05431 0.0
H413 H 0.84835 0.32722 0.22114 0.0
C414 C 0.02254 0.64962 0.31847 0.0
O415 O 0.00658 0.65623 0.33167 0.0
Cd416 Cd 0.9892 0.68225 0.30255 0.0
O417 O 0.02908 0.65503 0.2871 0.0
Cd418 Cd 0.01835 0.6763 0.23541 0.0
C419 C 0.04839 0.73757 0.27542 0.0
O420 O 0.97123 0.66595 0.24672 0.0
O421 O 0.99129 0.69388 0.20602 0.0
O422 O 0.01247 0.63846 0.1997 0.0
C423 C 0.97075 0.68263 0.22509 0.0
O424 O 0.0281 0.72711 0.29519 0.0
C425 C 0.03139 0.65265 0.17897 0.0
O426 O 0.05097 0.72365 0.25223 0.0
O427 O 0.04414 0.67798 0.18377 0.0
C428 C 0.40597 0.46952 0.23262 0.0
O429 O 0.38279 0.45106 0.22293 0.0
Cd430 Cd 0.34883 0.41691 0.25821 0.0
O431 O 0.41322 0.47157 0.26399 0.0
Cd432 Cd 0.39291 0.44558 0.31883 0.0
C433 C 0.38637 0.38809 0.2826 0.0
O434 O 0.34821 0.44092 0.30731 0.0
O435 O 0.35031 0.42046 0.3527 0.0
O436 O 0.41881 0.48635 0.35367 0.0
C437 C 0.33634 0.42706 0.33349 0.0
O438 O 0.36605 0.38568 0.2657 0.0
C439 C 0.42961 0.47631 0.37331 0.0
O440 O 0.39978 0.40796 0.30225 0.0
O441 O 0.42346 0.45213 0.36763 0.0
C442 C 0.60941 0.01938 0.17853 0.0
O443 O 0.63152 0.02038 0.17139 0.0
Cd444 Cd 0.66353 0.02756 0.21514 0.0
O445 O 0.6056 0.02623 0.20774 0.0
Cd446 Cd 0.62964 0.043 0.26302 0.0
C447 C 0.69015 0.0939 0.23411 0.0
O448 O 0.63114 0.00235 0.25867 0.0
O449 O 0.64737 0.02299 0.30603 0.0
O450 O 0.58289 0.02993 0.27665 0.0
C451 C 0.63886 0.00175 0.28879 0.0
O452 O 0.69374 0.07572 0.22137 0.0
C453 C 0.58858 0.04057 0.30581 0.0
O454 O 0.66824 0.08795 0.24915 0.0
O455 O 0.61338 0.05405 0.31407 0.0
C456 C 0.0804 0.38641 0.76438 0.0
O457 O 0.09048 0.39448 0.73509 0.0
Cd458 Cd 0.05936 0.39869 0.69697 0.0
O459 O 0.0606 0.38949 0.77302 0.0
Cd460 Cd 0.03753 0.41567 0.75039 0.0
C461 C 0.99382 0.353 0.72126 0.0
O462 O 0.06584 0.4436 0.70017 0.0
O463 O 0.02637 0.4392 0.7051 0.0
O464 O 0.06051 0.44396 0.80076 0.0
C465 C 0.04876 0.45035 0.68963 0.0
O466 O 0.01425 0.35792 0.70343 0.0
C467 C 0.04163 0.44836 0.80892 0.0
O468 O 0.99534 0.37115 0.74108 0.0
O469 O 0.02024 0.43663 0.79078 0.0
C470 C 0.70927 0.65833 0.77587 0.0
O471 O 0.70639 0.6554 0.80793 0.0
Cd472 Cd 0.67244 0.66024 0.83639 0.0
O473 O 0.69134 0.65965 0.7572 0.0
Cd474 Cd 0.64501 0.65462 0.76499 0.0
C475 C 0.67694 0.71775 0.79853 0.0
O476 O 0.62961 0.6254 0.81628 0.0
O477 O 0.60838 0.64696 0.80398 0.0
O478 O 0.6234 0.61795 0.72316 0.0
C479 C 0.61006 0.62927 0.82223 0.0
O480 O 0.68139 0.70647 0.82427 0.0
C481 C 0.61464 0.62987 0.70354 0.0
O482 O 0.66451 0.70401 0.77231 0.0
O483 O 0.62043 0.65355 0.71174 0.0
C484 C 0.39637 0.08294 0.77876 0.0
O485 O 0.39992 0.0791 0.8099 0.0
Cd486 Cd 0.39384 0.0372 0.83097 0.0
O487 O 0.39057 0.06444 0.75711 0.0
Cd488 Cd 0.38696 0.01864 0.76042 0.0
C489 C 0.33045 0.98835 0.80502 0.0
O490 O 0.42232 0.02505 0.801 0.0
O491 O 0.38822 0.98516 0.7998 0.0
O492 O 0.41889 0.02738 0.71552 0.0
C493 C 0.41233 1.00055 0.80971 0.0
O494 O 0.34614 0.00168 0.82948 0.0
C495 C 0.40288 0.00781 0.69706 0.0
O496 O 0.33926 0.99173 0.77471 0.0
O497 O 0.37862 0.99362 0.70696 0.0
C498 C 0.6743 0.96573 0.66724 0.0
O499 O 0.66351 0.9795 0.67563 0.0
Cd500 Cd 0.66473 0.0151 0.64113 0.0
O501 O 0.68426 0.96898 0.63722 0.0
Cd502 Cd 0.68622 0.99672 0.58183 0.0
C503 C 0.73115 0.0573 0.61952 0.0
O504 O 0.64187 0.99618 0.58823 0.0
O505 O 0.66842 0.02374 0.55027 0.0
O506 O 0.67264 0.95716 0.54372 0.0
C507 C 0.64542 0.01282 0.56425 0.0
O508 O 0.71095 0.05392 0.63667 0.0
C509 C 0.69234 0.9685 0.5232 0.0
O510 O 0.72868 0.0394 0.59857 0.0
O511 O 0.70972 0.9928 0.52985 0.0
C512 C 0.09084 0.80347 0.52153 0.0
O513 O 0.06748 0.78954 0.50832 0.0
Cd514 Cd 0.02835 0.75462 0.5373 0.0
O515 O 0.09477 0.80085 0.55323 0.0
Cd516 Cd 0.06609 0.77315 0.60346 0.0
C517 C 0.0545 0.71523 0.56657 0.0
O518 O 0.02131 0.76826 0.59129 0.0
O519 O 0.02283 0.74043 0.6284 0.0
O520 O 0.08244 0.81341 0.63872 0.0
C521 C 0.00903 0.74925 0.61297 0.0
O522 O 0.03821 0.71852 0.54717 0.0
C523 C 0.0917 0.80518 0.66288 0.0
O524 O 0.06937 0.7329 0.58845 0.0
O525 O 0.09016 0.7824 0.65926 0.0
C526 C 0.27007 0.35494 0.53887 0.0
O527 O 0.29219 0.35907 0.52623 0.0
Cd528 Cd 0.33347 0.37298 0.55795 0.0
O529 O 0.26872 0.35972 0.57014 0.0
Cd530 Cd 0.30039 0.37891 0.61925 0.0
C531 C 0.34864 0.4361 0.57944 0.0
O532 O 0.31867 0.34889 0.61121 0.0
O533 O 0.33402 0.37423 0.65522 0.0
O534 O 0.25996 0.35786 0.65532 0.0
C535 C 0.33387 0.35598 0.63735 0.0
O536 O 0.35593 0.42182 0.56323 0.0
C537 C 0.26685 0.37925 0.67184 0.0
O538 O 0.32817 0.42527 0.59875 0.0
O539 O 0.28934 0.39983 0.66453 0.0
C540 C 0.73525 0.76131 0.08956 0.0
O541 O 0.73339 0.75989 0.05729 0.0
Cd542 Cd 0.70109 0.76665 0.02429 0.0
O543 O 0.72088 0.76857 0.10622 0.0
Cd544 Cd 0.68563 0.78357 0.09487 0.0
C545 C 0.64197 0.71929 0.06277 0.0
O546 O 0.70387 0.80842 0.03992 0.0
O547 O 0.66463 0.80191 0.05316 0.0
O548 O 0.71009 0.81967 0.13851 0.0
C549 C 0.68412 0.81204 0.03235 0.0
O550 O 0.65752 0.72662 0.03711 0.0
C551 C 0.68994 0.81327 0.15753 0.0
O552 O 0.64734 0.73508 0.08804 0.0
O553 O 0.6676 0.79339 0.14771 0.0
C554 C 0.373 0.0051 0.10922 0.0
O555 O 0.37863 0.00618 0.14078 0.0
Cd556 Cd 0.34891 0.0041 0.18468 0.0
O557 O 0.35023 0.00194 0.09898 0.0
Cd558 Cd 0.30761 0.99645 0.12468 0.0
C559 C 0.34361 0.05915 0.16068 0.0
O560 O 0.30388 0.96704 0.17437 0.0
O561 O 0.27625 0.98257 0.17304 0.0
O562 O 0.28059 0.96257 0.08127 0.0
C563 C 0.28401 0.96756 0.18759 0.0
O564 O 0.35255 0.04838 0.1821 0.0
C565 C 0.26931 0.97517 0.06865 0.0
O566 O 0.32776 0.04544 0.13643 0.0
O567 O 0.27559 0.99764 0.08189 0.0
C568 C 0.03009 0.42229 0.12451 0.0
O569 O 0.02948 0.41911 0.15664 0.0
Cd570 Cd 0.03521 0.38367 0.18249 0.0
O571 O 0.0355 0.40795 0.10537 0.0
Cd572 Cd 0.04811 0.37212 0.11039 0.0
C573 C 0.98636 0.32861 0.13912 0.0
O574 O 0.07607 0.3862 0.16273 0.0
O575 O 0.06194 0.3456 0.14536 0.0
O576 O 0.07793 0.39996 0.06432 0.0
C577 C 0.07681 0.3644 0.16545 0.0
O578 O 0.99473 0.34162 0.16678 0.0
C579 C 0.07941 0.38103 0.05026 0.0
O580 O 0.00089 0.33612 0.11248 0.0
O581 O 0.06505 0.35761 0.06314 0.0
C582 C 0.33382 0.30291 0.04202 0.0
O583 O 0.32266 0.31662 0.04902 0.0
Cd584 Cd 0.31684 0.34588 0.00938 0.0
O585 O 0.34271 0.30381 0.01192 0.0
Cd586 Cd 0.34382 0.32785 0.95462 0.0
C587 C 0.382 0.39266 0.98827 0.0
O588 O 0.29668 0.31946 0.95917 0.0
O589 O 0.31979 0.34485 0.91734 0.0
O590 O 0.33922 0.28682 0.92552 0.0
C591 C 0.29714 0.33203 0.93196 0.0
O592 O 0.36039 0.38782 0.00321 0.0
C593 C 0.35348 0.29937 0.89977 0.0
O594 O 0.38258 0.37446 0.97045 0.0
O595 O 0.36425 0.32487 0.90038 0.0
C596 C 0.72126 0.12807 0.8407 0.0
O597 O 0.70049 0.1077 0.82865 0.0
Cd598 Cd 0.67023 0.07014 0.86416 0.0
O599 O 0.72665 0.1295 0.8725 0.0
Cd600 Cd 0.7084 0.10182 0.92538 0.0
C601 C 0.71226 0.0478 0.89561 0.0
O602 O 0.66069 0.0876 0.91429 0.0
O603 O 0.66921 0.06941 0.95833 0.0
O604 O 0.71472 0.13706 0.96497 0.0
C605 C 0.65208 0.07275 0.94087 0.0
O606 O 0.69313 0.04417 0.87525 0.0
C607 C 0.73716 0.14125 0.97724 0.0
O608 O 0.72227 0.06743 0.91628 0.0
O609 O 0.74628 0.12685 0.96559 0.0
C610 C 0.95899 0.70532 0.85033 0.0
O611 O 0.97016 0.69356 0.83641 0.0
Cd612 Cd 0.99483 0.67649 0.86935 0.0
O613 O 0.95848 0.70649 0.8826 0.0
Cd614 Cd 0.97147 0.68981 0.93377 0.0
C615 C 0.03694 0.73373 0.91364 0.0
O616 O 0.96621 0.64713 0.91386 0.0
O617 O 0.98722 0.66198 0.96202 0.0
O618 O 0.92523 0.67181 0.95202 0.0
C619 C 0.97713 0.64329 0.94029 0.0
O620 O 0.03432 0.71708 0.89086 0.0
C621 C 0.93119 0.68464 0.97971 0.0
O622 O 0.01707 0.72977 0.93206 0.0
O623 O 0.95615 0.70033 0.98629 0.0
C624 C 0.41579 0.11048 0.45836 0.0
O625 O 0.41698 0.11596 0.42676 0.0
Cd626 Cd 0.38407 0.12367 0.39859 0.0
O627 O 0.39885 0.11293 0.47688 0.0
Cd628 Cd 0.36509 0.13087 0.46614 0.0
C629 C 0.32184 0.07354 0.42556 0.0
O630 O 0.38482 0.1636 0.41729 0.0
O631 O 0.3419 0.14382 0.42028 0.0
O632 O 0.38149 0.16446 0.51299 0.0
C633 C 0.36307 0.16145 0.40524 0.0
O634 O 0.33887 0.08353 0.40146 0.0
C635 C 0.35968 0.15358 0.52987 0.0
O636 O 0.32658 0.08553 0.454 0.0
O637 O 0.34016 0.13234 0.51735 0.0
C638 C 0.02955 0.36592 0.42618 0.0
O639 O 0.02896 0.36839 0.45828 0.0
Cd640 Cd 0.99344 0.36308 0.49649 0.0
O641 O 0.00866 0.35944 0.40733 0.0
Cd642 Cd 0.96096 0.35024 0.41671 0.0
C643 C 0.97941 0.40975 0.46188 0.0
O644 O 0.95192 0.33041 0.47285 0.0
O645 O 0.91978 0.30829 0.43756 0.0
O646 O 0.94564 0.3289 0.36114 0.0
C647 C 0.9282 0.31123 0.46802 0.0
O648 O 0.98997 0.40295 0.48623 0.0
C649 C 0.93121 0.33971 0.3544 0.0
O650 O 0.96822 0.3945 0.43633 0.0
O651 O 0.93212 0.35676 0.37543 0.0
C652 C 0.73727 0.76018 0.42818 0.0
O653 O 0.73909 0.76089 0.46049 0.0
Cd654 Cd 0.73228 0.72393 0.4953 0.0
O655 O 0.73354 0.73929 0.41252 0.0
Cd656 Cd 0.7296 0.6947 0.42281 0.0
C657 C 0.67037 0.68027 0.45823 0.0
O658 O 0.75997 0.70989 0.46901 0.0
O659 O 0.73558 0.66645 0.46776 0.0
O660 O 0.76258 0.69751 0.38259 0.0
C661 C 0.75522 0.68733 0.48089 0.0
O662 O 0.684 0.69407 0.48377 0.0
C663 C 0.7458 0.68051 0.36174 0.0
O664 O 0.6819 0.67754 0.43242 0.0
O665 O 0.72096 0.66991 0.36924 0.0
C666 C 0.99877 0.45615 0.07046 0.0
C667 C 0.01672 0.48368 0.07783 0.0
C668 C 0.04388 0.47099 0.11505 0.0
C669 C 0.02517 0.44339 0.10901 0.0
N670 N 0.98308 0.40918 0.08472 0.0
N671 N 0.05516 0.51772 0.10899 0.0
C672 C 0.00216 0.43583 0.08766 0.0
C673 C 0.03876 0.49119 0.10095 0.0
N674 N 0.97872 0.44949 0.04658 0.0
N675 N 0.06744 0.47795 0.13246 0.0
H676 H 0.05402 0.53347 0.09678 0.0
H677 H 0.06913 0.52419 0.129 0.0
H678 H 0.07211 0.46381 0.14286 0.0
H679 H 0.08343 0.49762 0.13444 0.0
H680 H 0.96709 0.43023 0.03673 0.0
H681 H 0.97452 0.46363 0.03511 0.0
H682 H 0.96434 0.40231 0.07291 0.0
H683 H 0.98521 0.39375 0.09622 0.0
C684 C 0.6014 0.64265 0.05615 0.0
C685 C 0.5742 0.6373 0.05508 0.0
C686 C 0.59147 0.68647 0.05832 0.0
C687 C 0.61821 0.69117 0.06318 0.0
N688 N 0.64796 0.6731 0.07276 0.0
N689 N 0.54331 0.6546 0.05852 0.0
C690 C 0.62291 0.66903 0.06392 0.0
C691 C 0.56922 0.65937 0.05695 0.0
N692 N 0.60696 0.62288 0.04766 0.0
N693 N 0.5874 0.70793 0.05365 0.0
H694 H 0.52644 0.63557 0.05592 0.0
H695 H 0.53847 0.66933 0.0645 0.0
H696 H 0.603 0.72791 0.05528 0.0
H697 H 0.56901 0.70605 0.04573 0.0
H698 H 0.62654 0.6263 0.04463 0.0
H699 H 0.59211 0.60383 0.03968 0.0
H700 H 0.65195 0.6574 0.07736 0.0
H701 H 0.66417 0.69205 0.07881 0.0
C702 C 0.44028 0.03462 0.06329 0.0
C703 C 0.43567 0.01278 0.04238 0.0
C704 C 0.38932 0.98615 0.06406 0.0
C705 C 0.39366 0.00826 0.08421 0.0
N706 N 0.42079 0.05542 0.09744 0.0
N707 N 0.40416 0.9704 0.0167 0.0
C708 C 0.41843 0.0331 0.08211 0.0
C709 C 0.40965 0.98933 0.04091 0.0
N710 N 0.46579 0.05627 0.0664 0.0
N711 N 0.36631 0.96172 0.06815 0.0
H712 H 0.41842 0.9722 0.99905 0.0
H713 H 0.38487 0.95427 0.01195 0.0
H714 H 0.35083 0.95861 0.08459 0.0
H715 H 0.36343 0.94403 0.05726 0.0
H716 H 0.47113 0.07135 0.08424 0.0
H717 H 0.48221 0.05823 0.05278 0.0
H718 H 0.43725 0.07473 0.09402 0.0
H719 H 0.40512 0.05507 0.11115 0.0
C720 C 0.4514 0.06908 0.45881 0.0
C721 C 0.46558 0.07553 0.49034 0.0
C722 C 0.4491 0.10732 0.50091 0.0
C723 C 0.43195 0.09779 0.47155 0.0
N724 N 0.41189 0.06358 0.42835 0.0
N725 N 0.47566 0.09881 0.54363 0.0
C726 C 0.43182 0.07703 0.45208 0.0
C727 C 0.46393 0.09424 0.51202 0.0
N728 N 0.45682 0.05543 0.43493 0.0
N729 N 0.45194 0.12931 0.51754 0.0
H730 H 0.48708 0.09011 0.55201 0.0
H731 H 0.47266 0.10981 0.56212 0.0
H732 H 0.44166 0.1394 0.51005 0.0
H733 H 0.46609 0.13879 0.53696 0.0
H734 H 0.4488 0.05229 0.41027 0.0
H735 H 0.47168 0.05003 0.43857 0.0
H736 H 0.40952 0.04668 0.41574 0.0
H737 H 0.39574 0.06706 0.42436 0.0
C738 C 0.9835 0.47027 0.50351 0.0
C739 C 0.99673 0.49022 0.47779 0.0
C740 C 0.992 0.45592 0.4378 0.0
C741 C 0.9804 0.4361 0.46414 0.0
N742 N 0.95587 0.42255 0.51691 0.0
N743 N 0.00321 0.50077 0.41803 0.0
C744 C 0.97297 0.4427 0.4953 0.0
C745 C 0.99711 0.4824 0.44397 0.0
N746 N 0.98251 0.47753 0.53612 0.0
N747 N 0.00033 0.4504 0.40814 0.0
H748 H 0.00674 0.5202 0.42246 0.0
H749 H 0.00182 0.49588 0.39238 0.0
H750 H 0.99785 0.4316 0.40254 0.0
H751 H 0.01171 0.46517 0.39002 0.0
H752 H 0.97645 0.46404 0.5567 0.0
H753 H 0.98875 0.49727 0.54292 0.0
H754 H 0.94792 0.42597 0.53869 0.0
H755 H 0.94738 0.4022 0.51099 0.0
C756 C 0.59453 0.63264 0.44856 0.0
C757 C 0.58461 0.64816 0.46363 0.0
C758 C 0.63041 0.68676 0.46521 0.0
C759 C 0.64075 0.66945 0.45739 0.0
N760 N 0.63217 0.62468 0.44433 0.0
N761 N 0.59299 0.68967 0.48855 0.0
C762 C 0.62271 0.64209 0.44921 0.0
C763 C 0.60246 0.6753 0.47216 0.0
N764 N 0.5767 0.60866 0.43412 0.0
N765 N 0.64707 0.71411 0.46498 0.0
H766 H 0.57255 0.68188 0.49372 0.0
H767 H 0.60564 0.70857 0.49895 0.0
H768 H 0.66742 0.72336 0.4583 0.0
H769 H 0.64002 0.72762 0.46766 0.0
H770 H 0.58263 0.59714 0.42034 0.0
H771 H 0.55604 0.60199 0.43291 0.0
H772 H 0.61952 0.60398 0.44167 0.0
H773 H 0.65258 0.63038 0.44615 0.0
C774 C 0.96346 0.57082 0.94834 0.0
C775 C 0.99004 0.57574 0.95493 0.0
C776 C 0.00801 0.62433 0.94685 0.0
C777 C 0.98127 0.61975 0.94372 0.0
N778 N 0.93312 0.58912 0.94568 0.0
N779 N 0.03717 0.60739 0.96644 0.0
C780 C 0.95881 0.59308 0.94541 0.0
C781 C 0.01217 0.60257 0.956 0.0
N782 N 0.94281 0.54493 0.94447 0.0
N783 N 0.02951 0.64927 0.93948 0.0
H784 H 0.04131 0.59207 0.97293 0.0
H785 H 0.05322 0.62658 0.97161 0.0
H786 H 0.02735 0.66561 0.93148 0.0
H787 H 0.04932 0.65308 0.93778 0.0
H788 H 0.9235 0.54006 0.93604 0.0
H789 H 0.94553 0.52827 0.94752 0.0
H790 H 0.91605 0.57048 0.95047 0.0
H791 H 0.92895 0.60491 0.94368 0.0
C792 C 0.43088 0.46887 0.97783 0.0
C793 C 0.44979 0.47364 0.00472 0.0
C794 C 0.42675 0.42451 0.01666 0.0
C795 C 0.40648 0.42017 0.99197 0.0
N796 N 0.38736 0.43859 0.95169 0.0
N797 N 0.46318 0.45625 0.05321 0.0
C798 C 0.408 0.44251 0.9734 0.0
C799 C 0.44711 0.45146 0.02495 0.0
N800 N 0.43551 0.48923 0.95528 0.0
N801 N 0.42659 0.40281 0.0322 0.0
H802 H 0.47786 0.47557 0.06053 0.0
H803 H 0.46043 0.44143 0.07115 0.0
H804 H 0.41164 0.38295 0.02751 0.0
H805 H 0.44231 0.40428 0.04763 0.0
H806 H 0.4243 0.48646 0.93298 0.0
H807 H 0.4522 0.5085 0.95721 0.0
H808 H 0.38546 0.4543 0.9407 0.0
H809 H 0.3711 0.41952 0.94627 0.0
C810 C 0.58082 0.05993 0.95873 0.0
C811 C 0.56717 0.03187 0.96606 0.0
C812 C 0.60878 0.03054 0.95575 0.0
C813 C 0.62298 0.05888 0.95027 0.0
N814 N 0.62393 0.10143 0.95409 0.0
N815 N 0.57001 0.99219 0.98109 0.0
C816 C 0.60941 0.07388 0.95395 0.0
C817 C 0.58178 0.01776 0.96761 0.0
N818 N 0.56641 0.07306 0.95508 0.0
N819 N 0.62039 0.01547 0.94772 0.0
H820 H 0.5504 0.98223 0.99064 0.0
H821 H 0.58064 0.98203 0.9861 0.0
H822 H 0.63969 0.02372 0.93746 0.0
H823 H 0.6098 0.99446 0.9478 0.0
H824 H 0.57473 0.0928 0.9459 0.0
H825 H 0.54559 0.06354 0.95906 0.0
H826 H 0.61558 0.11338 0.95998 0.0
H827 H 0.6449 0.11232 0.95149 0.0
C828 C 0.59293 0.02086 0.50965 0.0
C829 C 0.57983 0.02788 0.53465 0.0
C830 C 0.61351 0.03048 0.57716 0.0
C831 C 0.62384 0.01945 0.55346 0.0
N832 N 0.62132 0.00163 0.49754 0.0
N833 N 0.57627 0.03698 0.5934 0.0
C834 C 0.61318 0.01425 0.51967 0.0
C835 C 0.58992 0.03232 0.56869 0.0
N836 N 0.58624 0.02097 0.47603 0.0
N837 N 0.6268 0.04011 0.60739 0.0
H838 H 0.55932 0.03893 0.58821 0.0
H839 H 0.5806 0.03706 0.61931 0.0
H840 H 0.64454 0.03997 0.61385 0.0
H841 H 0.62194 0.05075 0.62437 0.0
H842 H 0.59674 0.01869 0.45617 0.0
H843 H 0.57187 0.0261 0.46781 0.0
H844 H 0.61205 0.99438 0.474 0.0
H845 H 0.6359 0.9963 0.50377 0.0
C846 C 0.04929 0.64618 0.57714 0.0
C847 C 0.05479 0.64236 0.5432 0.0
C848 C 0.0655 0.68836 0.52793 0.0
C849 C 0.05732 0.69128 0.56063 0.0
N850 N 0.0379 0.67187 0.61525 0.0
N851 N 0.06194 0.65755 0.48451 0.0
C852 C 0.0483 0.66991 0.58507 0.0
C853 C 0.06118 0.66284 0.51811 0.0
N854 N 0.04595 0.62766 0.60195 0.0
N855 N 0.07809 0.71023 0.50647 0.0
H856 H 0.05795 0.63877 0.47611 0.0
H857 H 0.0635 0.67075 0.46481 0.0
H858 H 0.08218 0.72949 0.5131 0.0
H859 H 0.08695 0.70987 0.48366 0.0
H860 H 0.04482 0.63074 0.62779 0.0
H861 H 0.04624 0.60998 0.59696 0.0
H862 H 0.02824 0.65583 0.63245 0.0
H863 H 0.03728 0.68907 0.62205 0.0
C864 C 0.38943 0.5055 0.5394 0.0
C865 C 0.40328 0.52086 0.56832 0.0
C866 C 0.37845 0.48148 0.6056 0.0
C867 C 0.36488 0.46585 0.57649 0.0
N868 N 0.35186 0.46424 0.51741 0.0
N869 N 0.40712 0.52622 0.62872 0.0
C870 C 0.36855 0.47833 0.54388 0.0
C871 C 0.39614 0.50968 0.60143 0.0
N872 N 0.39744 0.51655 0.50761 0.0
N873 N 0.37608 0.46918 0.63664 0.0
H874 H 0.4205 0.54687 0.6257 0.0
H875 H 0.40125 0.52011 0.6538 0.0
H876 H 0.36387 0.4485 0.6408 0.0
H877 H 0.38772 0.47911 0.6579 0.0
H878 H 0.39061 0.50551 0.48529 0.0
H879 H 0.41217 0.53669 0.50373 0.0
H880 H 0.35199 0.47293 0.49376 0.0
H881 H 0.33612 0.44438 0.52011 0.0
C882 C 0.69851 0.783 0.37409 0.0
C883 C 0.69878 0.80229 0.39633 0.0
C884 C 0.73621 0.80324 0.4288 0.0
C885 C 0.73261 0.78075 0.41025 0.0
N886 N 0.7223 0.76056 0.3549 0.0
N887 N 0.71739 0.83117 0.44475 0.0
C888 C 0.71735 0.77395 0.37958 0.0
C889 C 0.71791 0.81294 0.42333 0.0
N890 N 0.67988 0.77294 0.34826 0.0
N891 N 0.75772 0.81559 0.45068 0.0
H892 H 0.70359 0.83802 0.44178 0.0
H893 H 0.7291 0.83793 0.46686 0.0
H894 H 0.77218 0.80951 0.45292 0.0
H895 H 0.76284 0.83329 0.46345 0.0
H896 H 0.67664 0.75661 0.33363 0.0
H897 H 0.66649 0.77993 0.3427 0.0
H898 H 0.71311 0.75657 0.33092 0.0
H899 H 0.73848 0.75692 0.35679 0.0
C900 C 0.25636 0.02321 0.38122 0.0
C901 C 0.24685 1.00058 0.40347 0.0
C902 C 0.28696 0.02522 0.44011 0.0
C903 C 0.29545 0.04862 0.41918 0.0
N904 N 0.28475 0.07153 0.37432 0.0
N905 N 0.25011 0.98113 0.45691 0.0
C906 C 0.27913 0.04809 0.39099 0.0
C907 C 0.2613 0.00195 0.43381 0.0
N908 N 0.24427 0.02058 0.35008 0.0
N909 N 0.30389 0.02475 0.4649 0.0
H910 H 0.23128 0.964 0.45291 0.0
H911 H 0.25825 0.98185 0.4811 0.0
H912 H 0.32298 0.04118 0.46991 0.0
H913 H 0.3 0.00739 0.47855 0.0
H914 H 0.25205 0.03554 0.33117 0.0
H915 H 0.22783 0.00248 0.34197 0.0
H916 H 0.27202 0.07269 0.35579 0.0
H917 H 0.30064 0.09035 0.38139 0.0
C918 C 0.10453 0.40219 0.40357 0.0
C919 C 0.10667 0.38134 0.38758 0.0
C920 C 0.05802 0.35023 0.39654 0.0
C921 C 0.05558 0.37148 0.41078 0.0
N922 N 0.07524 0.41889 0.42206 0.0
N923 N 0.08434 0.33728 0.36207 0.0
C924 C 0.07851 0.39783 0.41262 0.0
C925 C 0.08308 0.35584 0.38216 0.0
N926 N 0.12746 0.4258 0.41131 0.0
N927 N 0.0367 0.32442 0.39796 0.0
H928 H 0.10208 0.3406 0.35061 0.0
H929 H 0.06733 0.31963 0.3541 0.0
H930 H 0.01794 0.31951 0.4079 0.0
H931 H 0.03822 0.30761 0.39183 0.0
H932 H 0.12758 0.44064 0.42632 0.0
H933 H 0.14677 0.42969 0.40501 0.0
H934 H 0.09051 0.43898 0.42056 0.0
H935 H 0.0565 0.41651 0.4285 0.0
C936 C 0.11197 0.34401 0.79731 0.0
C937 C 0.10754 0.34326 0.83281 0.0
C938 C 0.09016 0.37445 0.8238 0.0
C939 C 0.09082 0.37228 0.78784 0.0
N940 N 0.09541 0.34747 0.7414 0.0
N941 N 0.0834 0.35063 0.87745 0.0
C942 C 0.10013 0.35524 0.77469 0.0
C943 C 0.09393 0.35632 0.84541 0.0
N944 N 0.12627 0.33276 0.78498 0.0
N945 N 0.08692 0.39432 0.83771 0.0
H946 H 0.08544 0.3373 0.89415 0.0
H947 H 0.07106 0.3578 0.88632 0.0
H948 H 0.08651 0.40958 0.82316 0.0
H949 H 0.08824 0.39754 0.8639 0.0
H950 H 0.1319 0.33448 0.75958 0.0
H951 H 0.13445 0.32365 0.80073 0.0
H952 H 0.09977 0.33334 0.73149 0.0
H953 H 0.08374 0.35197 0.72474 0.0
C954 C 0.69203 0.78572 0.83334 0.0
C955 C 0.70579 0.80349 0.80578 0.0
C956 C 0.70237 0.7654 0.7738 0.0
C957 C 0.68598 0.7472 0.79993 0.0
N958 N 0.66006 0.74003 0.85099 0.0
N959 N 0.71997 0.80978 0.74746 0.0
C960 C 0.67934 0.75737 0.82872 0.0
C961 C 0.70978 0.79317 0.7753 0.0
N962 N 0.69201 0.79595 0.86444 0.0
N963 N 0.71201 0.75658 0.74846 0.0
H964 H 0.72529 0.83007 0.74781 0.0
H965 H 0.72083 0.80292 0.72341 0.0
H966 H 0.70788 0.73671 0.74695 0.0
H967 H 0.72622 0.7695 0.7308 0.0
H968 H 0.68449 0.78401 0.88635 0.0
H969 H 0.70213 0.8166 0.86913 0.0
H970 H 0.65264 0.7465 0.87054 0.0
H971 H 0.64929 0.71921 0.84771 0.0
C972 C 0.27048 0.93234 0.85196 0.0
C973 C 0.24849 0.93125 0.83311 0.0
C974 C 0.28014 0.96712 0.79471 0.0
C975 C 0.30212 0.96747 0.81269 0.0
N976 N 0.31761 0.94441 0.85133 0.0
N977 N 0.23236 0.94156 0.78085 0.0
C978 C 0.29711 0.94818 0.83912 0.0
C979 C 0.25336 0.94669 0.80257 0.0
N980 N 0.26636 0.91966 0.883 0.0
N981 N 0.28455 0.98712 0.77163 0.0
H982 H 0.21259 0.92618 0.78545 0.0
H983 H 0.23505 0.95048 0.75674 0.0
H984 H 0.30374 0.00308 0.7659 0.0
H985 H 0.26897 0.98929 0.76058 0.0
H986 H 0.28214 0.92258 0.89943 0.0
H987 H 0.24731 0.90801 0.8937 0.0
H988 H 0.31448 0.92888 0.86832 0.0
H989 H 0.33717 0.95483 0.84164 0.0
C990 C 0.63791 0.93582 0.28774 0.0
C991 C 0.62391 0.92324 0.31804 0.0
C992 C 0.62067 0.96311 0.33131 0.0
C993 C 0.63679 0.97653 0.30232 0.0
N994 N 0.66621 0.97796 0.25806 0.0
N995 N 0.60512 0.92531 0.37118 0.0
C996 C 0.64692 0.96348 0.28192 0.0
C997 C 0.61612 0.93702 0.34053 0.0
N998 N 0.64289 0.92124 0.26483 0.0
N999 N 0.60884 0.97466 0.34918 0.0
H1000 H 0.60055 0.90569 0.37765 0.0
H1001 H 0.60199 0.93546 0.39071 0.0
H1002 H 0.61205 0.99394 0.34393 0.0
H1003 H 0.59446 0.96445 0.36798 0.0
H1004 H 0.65084 0.92853 0.24073 0.0
H1005 H 0.63673 0.90089 0.26877 0.0
H1006 H 0.67613 0.97013 0.24439 0.0
H1007 H 0.67451 0.99874 0.25472 0.0
C1008 C 0.11447 0.80461 0.28656 0.0
C1009 C 0.10408 0.82165 0.2951 0.0
C1010 C 0.05841 0.78528 0.28153 0.0
C1011 C 0.06824 0.7669 0.27896 0.0
N1012 N 0.10592 0.75877 0.28405 0.0
N1013 N 0.06556 0.82686 0.30589 0.0
C1014 C 0.09642 0.77647 0.28254 0.0
C1015 C 0.07586 0.81167 0.29381 0.0
N1016 N 0.14155 0.81548 0.2814 0.0
N1017 N 0.03261 0.77782 0.27126 0.0
H1018 H 0.07769 0.84591 0.31618 0.0
H1019 H 0.0449 0.81946 0.30876 0.0
H1020 H 0.01959 0.75912 0.26055 0.0
H1021 H 0.02527 0.79125 0.26978 0.0
H1022 H 0.15005 0.80445 0.27216 0.0
H1023 H 0.15506 0.83616 0.28278 0.0
H1024 H 0.12593 0.76459 0.2902 0.0
H1025 H 0.09343 0.73796 0.28233 0.0
C1026 C 0.26147 0.37863 0.35134 0.0
C1027 C 0.24992 0.39528 0.34413 0.0
C1028 C 0.29585 0.43399 0.33701 0.0
C1029 C 0.30674 0.41634 0.3387 0.0
N1030 N 0.29825 0.37047 0.34036 0.0
N1031 N 0.25627 0.43868 0.32647 0.0
C1032 C 0.28915 0.38831 0.34418 0.0
C1033 C 0.26717 0.42303 0.33625 0.0
N1034 N 0.24615 0.35362 0.36578 0.0
N1035 N 0.31288 0.46126 0.33714 0.0
H1036 H 0.2355 0.43144 0.32563 0.0
H1037 H 0.26774 0.4582 0.31668 0.0
H1038 H 0.33388 0.47001 0.33848 0.0
H1039 H 0.30618 0.47509 0.33932 0.0
H1040 H 0.25431 0.34191 0.37484 0.0
H1041 H 0.22594 0.34581 0.37216 0.0
H1042 H 0.28543 0.34964 0.34055 0.0
H1043 H 0.3179 0.37623 0.33314 0.0
C1044 C 0.25221 0.35683 0.89019 0.0
C1045 C 0.22642 0.33301 0.89054 0.0
C1046 C 0.24762 0.30784 0.91453 0.0
C1047 C 0.27261 0.33232 0.91826 0.0
N1048 N 0.29649 0.38106 0.91664 0.0
N1049 N 0.19887 0.28683 0.90974 0.0
C1050 C 0.2743 0.3571 0.90805 0.0
C1051 C 0.2239 0.30875 0.90457 0.0
N1052 N 0.25607 0.37892 0.87155 0.0
N1053 N 0.24662 0.28359 0.91889 0.0
H1054 H 0.18098 0.28685 0.90382 0.0
H1055 H 0.19585 0.26961 0.92309 0.0
H1056 H 0.26359 0.28186 0.92478 0.0
H1057 H 0.22953 0.26524 0.91307 0.0
H1058 H 0.2751 0.39577 0.86771 0.0
H1059 H 0.24087 0.37927 0.85676 0.0
H1060 H 0.29751 0.39962 0.91266 0.0
H1061 H 0.31257 0.38232 0.93115 0.0
C1062 C 0.74231 0.0083 0.85716 0.0
C1063 C 0.73723 0.98883 0.88312 0.0
C1064 C 0.71871 0.01001 0.91962 0.0
C1065 C 0.72366 0.02945 0.89344 0.0
N1066 N 0.74552 0.05097 0.84072 0.0
N1067 N 0.72498 0.97307 0.94066 0.0
C1068 C 0.73717 0.02978 0.86324 0.0
C1069 C 0.72699 0.9905 0.91502 0.0
N1070 N 0.75108 0.00547 0.82621 0.0
N1071 N 0.70479 0.00932 0.94796 0.0
H1072 H 0.73031 0.95828 0.9374 0.0
H1073 H 0.71993 0.97437 0.96561 0.0
H1074 H 0.69875 0.02346 0.95229 0.0
H1075 H 0.6979 0.99403 0.96638 0.0
H1076 H 0.75215 0.01688 0.80465 0.0
H1077 H 0.75597 0.9905 0.82167 0.0
H1078 H 0.75758 0.05377 0.81974 0.0
H1079 H 0.74233 0.06715 0.84466 0.0
C1080 C 0.08897 0.80681 0.89456 0.0
C1081 C 0.11156 0.8095 0.91374 0.0
C1082 C 0.08442 0.76305 0.93549 0.0
C1083 C 0.06239 0.75997 0.91479 0.0
N1084 N 0.04429 0.77716 0.87129 0.0
N1085 N 0.13232 0.79016 0.94962 0.0
C1086 C 0.06485 0.78138 0.89339 0.0
C1087 C 0.10972 0.78758 0.93344 0.0
N1088 N 0.09029 0.82886 0.8783 0.0
N1089 N 0.08086 0.74269 0.95748 0.0
H1090 H 0.15092 0.80801 0.94891 0.0
H1091 H 0.13325 0.77431 0.96187 0.0
H1092 H 0.06272 0.7244 0.95904 0.0
H1093 H 0.09511 0.74437 0.97567 0.0
H1094 H 0.07361 0.82909 0.86749 0.0
H1095 H 0.10777 0.84773 0.87754 0.0
H1096 H 0.04612 0.7906 0.85182 0.0
H1097 H 0.02572 0.75928 0.87089 0.0
C1098 C 0.41847 0.15046 0.733 0.0
C1099 C 0.40707 0.16156 0.75466 0.0
C1100 C 0.38442 0.11905 0.78698 0.0
C1101 C 0.3987 0.10917 0.76832 0.0
N1102 N 0.43302 0.11762 0.72689 0.0
N1103 N 0.38318 0.15843 0.80586 0.0
C1104 C 0.41668 0.12538 0.74205 0.0
C1105 C 0.39114 0.14638 0.78269 0.0
N1106 N 0.43021 0.16348 0.70322 0.0
N1107 N 0.36369 0.10205 0.80784 0.0
H1108 H 0.3885 0.17869 0.80389 0.0
H1109 H 0.37372 0.14914 0.82866 0.0
H1110 H 0.35728 0.08154 0.81047 0.0
H1111 H 0.35099 0.10759 0.81957 0.0
H1112 H 0.43645 0.15507 0.68466 0.0
H1113 H 0.43138 0.18163 0.6957 0.0
H1114 H 0.44842 0.13004 0.71018 0.0
H1115 H 0.43295 0.0998 0.73326 0.0
C1116 C 0.92676 0.28854 0.74326 0.0
C1117 C 0.92136 0.27321 0.71299 0.0
C1118 C 0.96035 0.31246 0.68667 0.0
C1119 C 0.96836 0.32583 0.71855 0.0
N1120 N 0.96179 0.32146 0.77968 0.0
N1121 N 0.93881 0.26926 0.659 0.0
C1122 C 0.95238 0.31239 0.74764 0.0
C1123 C 0.93991 0.28476 0.68563 0.0
N1124 N 0.90716 0.28165 0.76711 0.0
N1125 N 0.97107 0.32634 0.65696 0.0
H1126 H 0.92565 0.24849 0.65833 0.0
H1127 H 0.95329 0.2765 0.63984 0.0
H1128 H 0.98416 0.34712 0.65595 0.0
H1129 H 0.96412 0.31778 0.63308 0.0
H1130 H 0.90983 0.29368 0.78804 0.0
H1131 H 0.88727 0.26622 0.76386 0.0
H1132 H 0.9516 0.31083 0.80154 0.0
H1133 H 0.9811 0.33753 0.78457 0.0
C1134 C 0.75959 0.65681 0.71389 0.0
C1135 C 0.78443 0.67434 0.73042 0.0
C1136 C 0.7602 0.68133 0.7761 0.0
C1137 C 0.73502 0.66276 0.76071 0.0
N1138 N 0.71107 0.62774 0.71939 0.0
N1139 N 0.80799 0.69633 0.78173 0.0
C1140 C 0.73478 0.64886 0.73093 0.0
C1141 C 0.78446 0.68397 0.76324 0.0
N1142 N 0.75965 0.6488 0.68139 0.0
N1143 N 0.7614 0.69827 0.80098 0.0
H1144 H 0.82606 0.69843 0.77272 0.0
H1145 H 0.80883 0.70176 0.8071 0.0
H1146 H 0.74462 0.69921 0.80916 0.0
H1147 H 0.77956 0.7138 0.81057 0.0
H1148 H 0.74222 0.63881 0.66644 0.0
H1149 H 0.77745 0.65355 0.66875 0.0
H1150 H 0.71008 0.61544 0.69959 0.0
H1151 H 0.69271 0.62084 0.73179 0.0
C1152 C 0.79555 0.75072 0.10747 0.0
C1153 C 0.78446 0.72893 0.1314 0.0
C1154 C 0.74183 0.73021 0.13087 0.0
C1155 C 0.75305 0.75239 0.10752 0.0
N1156 N 0.79278 0.78798 0.08052 0.0
N1157 N 0.75007 0.70353 0.17307 0.0
C1158 C 0.78066 0.764 0.09809 0.0
C1159 C 0.75859 0.72059 0.14543 0.0
N1160 N 0.8195 0.75777 0.09207 0.0
N1161 N 0.71472 0.71693 0.13744 0.0
H1162 H 0.76185 0.6963 0.1846 0.0
H1163 H 0.73272 0.69889 0.18665 0.0
H1164 H 0.70139 0.72269 0.12703 0.0
H1165 H 0.70494 0.69867 0.15086 0.0
H1166 H 0.82698 0.7712 0.07147 0.0
H1167 H 0.83107 0.74878 0.09827 0.0
H1168 H 0.81344 0.79884 0.07566 0.0
H1169 H 0.78258 0.79834 0.0738 0.0
C1170 C 0.37485 0.13503 0.14313 0.0
C1171 C 0.37326 0.1439 0.17591 0.0
C1172 C 0.34803 0.09703 0.19637 0.0
C1173 C 0.35209 0.08817 0.16461 0.0
N1174 N 0.37314 0.09926 0.10925 0.0
N1175 N 0.36299 0.1342 0.23538 0.0
C1176 C 0.36637 0.10729 0.13821 0.0
C1177 C 0.36111 0.1251 0.20301 0.0
N1178 N 0.38418 0.1532 0.11669 0.0
N1179 N 0.33095 0.07863 0.21977 0.0
H1180 H 0.37312 0.15468 0.24106 0.0
H1181 H 0.35688 0.1216 0.25685 0.0
H1182 H 0.32034 0.05793 0.21541 0.0
H1183 H 0.3252 0.08402 0.24196 0.0
H1184 H 0.38331 0.14775 0.09136 0.0
H1185 H 0.39093 0.17366 0.11997 0.0
H1186 H 0.38594 0.11268 0.09078 0.0
H1187 H 0.36784 0.07931 0.10487 0.0
C1188 C 0.90995 0.29359 0.14006 0.0
C1189 C 0.90306 0.26605 0.13911 0.0
C1190 C 0.95111 0.27941 0.13708 0.0
C1191 C 0.95784 0.30687 0.13708 0.0
N1192 N 0.94428 0.34057 0.13301 0.0
N1193 N 0.91601 0.2324 0.1317 0.0
C1194 C 0.93739 0.31407 0.13693 0.0
C1195 C 0.92336 0.25883 0.13605 0.0
N1196 N 0.89024 0.30016 0.14473 0.0
N1197 N 0.97127 0.27308 0.13933 0.0
H1198 H 0.89587 0.21692 0.13171 0.0
H1199 H 0.92956 0.22591 0.12592 0.0
H1200 H 0.99174 0.2877 0.13947 0.0
H1201 H 0.96785 0.25357 0.14308 0.0
H1202 H 0.89398 0.31959 0.1491 0.0
H1203 H 0.86986 0.28585 0.14678 0.0
H1204 H 0.93043 0.3471 0.12845 0.0
H1205 H 0.96425 0.35624 0.13175 0.0
C1206 C 0.39177 0.34478 0.66766 0.0
C1207 C 0.37958 0.31655 0.66402 0.0
C1208 C 0.33705 0.31405 0.64635 0.0
C1209 C 0.34977 0.34263 0.64701 0.0
N1210 N 0.39119 0.38555 0.65113 0.0
N1211 N 0.34331 0.27551 0.64098 0.0
C1212 C 0.37773 0.35818 0.65571 0.0
C1213 C 0.35304 0.30158 0.6505 0.0
N1214 N 0.41641 0.3586 0.68339 0.0
N1215 N 0.30953 0.29862 0.64377 0.0
H1216 H 0.35493 0.26609 0.64268 0.0
H1217 H 0.325 0.26437 0.62802 0.0
H1218 H 0.29671 0.30672 0.643 0.0
H1219 H 0.29925 0.27768 0.64641 0.0
H1220 H 0.42515 0.37878 0.69012 0.0
H1221 H 0.42713 0.34921 0.69202 0.0
H1222 H 0.41207 0.39751 0.65405 0.0
H1223 H 0.38201 0.39607 0.64112 0.0
C1224 C 0.7802 0.13253 0.60874 0.0
C1225 C 0.80225 0.13656 0.63032 0.0
C1226 C 0.77753 0.08802 0.64542 0.0
C1227 C 0.75681 0.08388 0.6215 0.0
N1228 N 0.74098 0.10133 0.57572 0.0
N1229 N 0.82344 0.11751 0.66608 0.0
C1230 C 0.75905 0.10588 0.60164 0.0
C1231 C 0.80131 0.11409 0.64789 0.0
N1232 N 0.77839 0.15423 0.59676 0.0
N1233 N 0.77418 0.06718 0.66632 0.0
H1234 H 0.841 0.13621 0.66841 0.0
H1235 H 0.82523 0.10162 0.67665 0.0
H1236 H 0.75756 0.04776 0.6643 0.0
H1237 H 0.7869 0.06943 0.68689 0.0
H1238 H 0.76143 0.15248 0.58398 0.0
H1239 H 0.7924 0.17408 0.60286 0.0
H1240 H 0.74333 0.11609 0.55789 0.0
H1241 H 0.72495 0.08218 0.57006 0.0
C1242 C 0.93298 0.69919 0.6153 0.0
C1243 C 0.92362 0.71512 0.63078 0.0
C1244 C 0.97021 0.75328 0.63479 0.0
C1245 C 0.97964 0.7373 0.61947 0.0
N1246 N 0.97112 0.69452 0.59794 0.0
N1247 N 0.93266 0.75611 0.65836 0.0
C1248 C 0.96134 0.71001 0.61075 0.0
C1249 C 0.94211 0.74183 0.64146 0.0
N1250 N 0.91457 0.67413 0.60378 0.0
N1251 N 0.98821 0.77953 0.64268 0.0
H1252 H 0.91218 0.74899 0.66228 0.0
H1253 H 0.94485 0.77447 0.67008 0.0
H1254 H 0.0091 0.78804 0.6406 0.0
H1255 H 0.98275 0.79346 0.65017 0.0
H1256 H 0.91942 0.66234 0.58892 0.0
H1257 H 0.89383 0.66543 0.60782 0.0
H1258 H 0.95954 0.6738 0.59458 0.0
H1259 H 0.99138 0.70216 0.59183 0.0
C1260 C 0.89875 0.67282 0.22553 0.0
C1261 C 0.90067 0.69028 0.19795 0.0
C1262 C 0.95002 0.70946 0.19837 0.0
C1263 C 0.94753 0.68849 0.22105 0.0
N1264 N 0.92191 0.66082 0.26894 0.0
N1265 N 0.92823 0.72458 0.15688 0.0
C1266 C 0.92252 0.67304 0.23838 0.0
C1267 C 0.92638 0.70871 0.18439 0.0
N1268 N 0.87396 0.65561 0.23911 0.0
N1269 N 0.97488 0.73148 0.19267 0.0
H1270 H 0.91161 0.72515 0.14635 0.0
H1271 H 0.94597 0.73573 0.14305 0.0
H1272 H 0.99208 0.73486 0.20642 0.0
H1273 H 0.97773 0.74834 0.17859 0.0
H1274 H 0.87019 0.63951 0.25536 0.0
H1275 H 0.85669 0.65677 0.23293 0.0
H1276 H 0.90476 0.65066 0.28395 0.0
H1277 H 0.93931 0.66436 0.28216 0.0
C1278 C 0.41947 0.3531 0.23912 0.0
C1279 C 0.4091 0.3291 0.25886 0.0
C1280 C 0.38833 0.34627 0.2981 0.0
C1281 C 0.39613 0.36894 0.27618 0.0
N1282 N 0.41874 0.39441 0.22562 0.0
N1283 N 0.38229 0.30132 0.30554 0.0
C1284 C 0.41182 0.37261 0.24672 0.0
C1285 C 0.3934 0.3254 0.28821 0.0
N1286 N 0.43668 0.35698 0.21311 0.0
N1287 N 0.37613 0.3448 0.32835 0.0
H1288 H 0.38605 0.28588 0.29924 0.0
H1289 H 0.36815 0.29591 0.32481 0.0
H1290 H 0.37164 0.3595 0.33588 0.0
H1291 H 0.37223 0.33018 0.34708 0.0
H1292 H 0.44697 0.37484 0.19905 0.0
H1293 H 0.44213 0.34265 0.2071 0.0
H1294 H 0.42772 0.39703 0.20197 0.0
H1295 H 0.4144 0.40961 0.23111 0.0
C1296 C 0.75729 0.15949 0.24283 0.0
C1297 C 0.75533 0.17436 0.21459 0.0
C1298 C 0.70856 0.13849 0.204 0.0
C1299 C 0.7116 0.12242 0.22975 0.0
N1300 N 0.73914 0.11624 0.27231 0.0
N1301 N 0.73073 0.1763 0.16473 0.0
C1302 C 0.73608 0.13254 0.24881 0.0
C1303 C 0.7313 0.16354 0.19438 0.0
N1304 N 0.77896 0.17148 0.26464 0.0
N1305 N 0.68394 0.12975 0.18852 0.0
H1306 H 0.747 0.19439 0.15614 0.0
H1307 H 0.71504 0.16779 0.14689 0.0
H1308 H 0.66704 0.11102 0.19376 0.0
H1309 H 0.67963 0.14191 0.17249 0.0
H1310 H 0.78031 0.16277 0.28763 0.0
H1311 H 0.79471 0.19124 0.2612 0.0
H1312 H 0.75752 0.12114 0.28407 0.0
H1313 H 0.72351 0.09699 0.27878 0.0
C1314 C 0.0737 0.50573 0.87392 0.0
C1315 C 0.05065 0.50341 0.89019 0.0
C1316 C 0.02234 0.46212 0.85781 0.0
C1317 C 0.04483 0.46704 0.83746 0.0
N1318 N 0.09101 0.49931 0.82152 0.0
N1319 N 0.002 0.48279 0.89016 0.0
C1320 C 0.07034 0.49043 0.84424 0.0
C1321 C 0.02462 0.48253 0.88009 0.0
N1322 N 0.09887 0.52201 0.88724 0.0
N1323 N 0.99912 0.43767 0.85721 0.0
H1324 H 0.00281 0.49846 0.90413 0.0
H1325 H 0.9827 0.4692 0.88105 0.0
H1326 H 0.99716 0.42137 0.84356 0.0
H1327 H 0.98311 0.43264 0.8737 0.0
H1328 H 0.11617 0.52264 0.87788 0.0
H1329 H 0.10196 0.53233 0.90995 0.0
H1330 H 0.10909 0.51746 0.82441 0.0
H1331 H 0.08896 0.49074 0.79774 0.0
C1332 C 0.57079 0.61927 0.90377 0.0
C1333 C 0.55412 0.59085 0.90469 0.0
C1334 C 0.57427 0.58739 0.85172 0.0
C1335 C 0.5917 0.61581 0.85144 0.0
N1336 N 0.6108 0.6581 0.88088 0.0
N1337 N 0.54274 0.54737 0.88384 0.0
C1338 C 0.59121 0.63157 0.87859 0.0
C1339 C 0.55683 0.57478 0.87994 0.0
N1340 N 0.56626 0.63451 0.92615 0.0
N1341 N 0.57344 0.57265 0.82429 0.0
H1342 H 0.52977 0.53785 0.9043 0.0
H1343 H 0.54551 0.53427 0.86867 0.0
H1344 H 0.58579 0.58116 0.8031 0.0
H1345 H 0.55918 0.55236 0.82129 0.0
H1346 H 0.57562 0.65545 0.9245 0.0
H1347 H 0.55157 0.62604 0.945 0.0
H1348 H 0.61312 0.66998 0.90179 0.0
H1349 H 0.62637 0.66763 0.86326 0.0
C1350 C 0.45951 0.99894 0.87893 0.0
C1351 C 0.44693 0.97097 0.88601 0.0
C1352 C 0.41853 0.96315 0.83553 0.0
C1353 C 0.42597 0.99096 0.83451 0.0
N1354 N 0.45028 0.03424 0.86346 0.0
N1355 N 0.41169 0.92594 0.87252 0.0
C1356 C 0.44581 0.0088 0.85816 0.0
C1357 C 0.42572 0.95279 0.8646 0.0
N1358 N 0.48439 0.0161 0.89237 0.0
N1359 N 0.40564 0.94685 0.80852 0.0
H1360 H 0.41588 0.91775 0.89419 0.0
H1361 H 0.39439 0.91235 0.85913 0.0
H1362 H 0.40242 0.95413 0.78535 0.0
H1363 H 0.40155 0.92696 0.80764 0.0
H1364 H 0.49507 0.03659 0.88602 0.0
H1365 H 0.49547 0.0091 0.90628 0.0
H1366 H 0.46347 0.04659 0.88238 0.0
H1367 H 0.43837 0.04172 0.85323 0.0
C1368 C 0.44659 0.98937 0.64594 0.0
C1369 C 0.44016 0.99385 0.6124 0.0
C1370 C 0.40684 0.00491 0.63386 0.0
C1371 C 0.41326 1.00034 0.66752 0.0
N1372 N 0.43434 0.98244 0.70564 0.0
N1373 N 0.41149 1.00091 0.5731 0.0
C1374 C 0.43163 0.99072 0.67356 0.0
C1375 C 0.41929 0.99998 0.60598 0.0
N1376 N 0.46787 0.98504 0.65131 0.0
N1377 N 0.38985 0.01509 0.62871 0.0
H1378 H 0.42049 0.9974 0.55243 0.0
H1379 H 0.39492 0.00306 0.56633 0.0
H1380 H 0.38003 0.01841 0.6486 0.0
H1381 H 0.38655 0.02163 0.60509 0.0
H1382 H 0.47574 0.98464 0.67533 0.0
H1383 H 0.47887 0.98356 0.63135 0.0
H1384 H 0.44547 0.9729 0.71116 0.0
H1385 H 0.42348 0.98296 0.72643 0.0
C1386 C 0.03763 0.49241 0.62045 0.0
C1387 C 0.06437 0.51268 0.61214 0.0
C1388 C 0.08133 0.4938 0.65686 0.0
C1389 C 0.0548 0.47131 0.66177 0.0
N1390 N 0.00941 0.44603 0.63822 0.0
N1391 N 0.11193 0.52765 0.61672 0.0
C1392 C 0.03345 0.46961 0.64051 0.0
C1393 C 0.0863 0.51174 0.62853 0.0
N1394 N 0.01614 0.4955 0.61124 0.0
N1395 N 0.10151 0.49943 0.68012 0.0
H1396 H 0.11606 0.54002 0.59514 0.0
H1397 H 0.12838 0.52612 0.62596 0.0
H1398 H 0.09857 0.48883 0.70299 0.0
H1399 H 0.12038 0.51689 0.67872 0.0
H1400 H 0.9965 0.48214 0.61926 0.0
H1401 H 0.01835 0.513 0.59954 0.0
H1402 H 0.99416 0.44357 0.62108 0.0
H1403 H 0.00612 0.42809 0.64983 0.0
C1404 C 0.55787 0.58017 0.64488 0.0
C1405 C 0.56714 0.59297 0.61261 0.0
C1406 C 0.60895 0.62801 0.63979 0.0
C1407 C 0.59847 0.61678 0.6723 0.0
N1408 N 0.56139 0.58418 0.70649 0.0
N1409 N 0.59954 0.6319 0.58028 0.0
C1410 C 0.57252 0.59331 0.67505 0.0
C1411 C 0.59222 0.6176 0.61029 0.0
N1412 N 0.53549 0.55505 0.6466 0.0
N1413 N 0.63529 0.64813 0.6369 0.0
H1414 H 0.58788 0.62535 0.55819 0.0
H1415 H 0.61589 0.65142 0.57804 0.0
H1416 H 0.64823 0.65627 0.65785 0.0
H1417 H 0.64505 0.65502 0.61362 0.0
H1418 H 0.52931 0.54336 0.66884 0.0
H1419 H 0.52434 0.54484 0.6251 0.0
H1420 H 0.54142 0.56906 0.71014 0.0
H1421 H 0.57141 0.59321 0.72911 0.0
C1422 C 0.05079 0.6062 0.13351 0.0
C1423 C 0.05153 0.61444 0.09905 0.0
C1424 C 0.03765 0.64684 0.11645 0.0
C1425 C 0.03884 0.63997 0.15128 0.0
N1426 N 0.05153 0.61666 0.19321 0.0
N1427 N 0.0493 0.64472 0.05764 0.0
C1428 C 0.04675 0.62057 0.15987 0.0
C1429 C 0.04601 0.63543 0.09055 0.0
N1430 N 0.05302 0.58395 0.14088 0.0
N1431 N 0.02739 0.6633 0.10799 0.0
H1432 H 0.05518 0.63651 0.03836 0.0
H1433 H 0.04828 0.66173 0.04995 0.0
H1434 H 0.02079 0.67175 0.1261 0.0
H1435 H 0.02334 0.66688 0.08304 0.0
H1436 H 0.04966 0.57494 0.16499 0.0
H1437 H 0.05602 0.57311 0.12212 0.0
H1438 H 0.06003 0.60493 0.20081 0.0
H1439 H 0.04939 0.62712 0.21321 0.0
C1440 C 0.42965 0.51713 0.15603 0.0
C1441 C 0.45608 0.52147 0.15152 0.0
C1442 C 0.44986 0.4911 0.19996 0.0
C1443 C 0.42436 0.48888 0.20646 0.0
N1444 N 0.39247 0.5042 0.19469 0.0
N1445 N 0.49311 0.51594 0.17126 0.0
C1446 C 0.41494 0.50314 0.18556 0.0
C1447 C 0.46669 0.50936 0.17409 0.0
N1448 N 0.41839 0.52581 0.13143 0.0
N1449 N 0.45748 0.47494 0.21731 0.0
H1450 H 0.50563 0.52895 0.15221 0.0
H1451 H 0.50306 0.51013 0.18909 0.0
H1452 H 0.44574 0.46123 0.23626 0.0
H1453 H 0.47442 0.47357 0.21109 0.0
H1454 H 0.3982 0.52098 0.13149 0.0
H1455 H 0.42855 0.53561 0.10915 0.0
H1456 H 0.38619 0.51644 0.18228 0.0
H1457 H 0.38165 0.49497 0.2168 0.0
C1458 C 0.54777 0.00416 0.12417 0.0
C1459 C 0.54185 0.97919 0.11005 0.0
C1460 C 0.57765 0.97892 0.14467 0.0
C1461 C 0.5862 0.00577 0.15484 0.0
N1462 N 0.58137 0.04533 0.15109 0.0
N1463 N 0.55261 0.94404 0.10327 0.0
C1464 C 0.57172 0.01878 0.14386 0.0
C1465 C 0.55718 0.96687 0.11936 0.0
N1466 N 0.53006 0.01347 0.11929 0.0
N1467 N 0.58801 0.96441 0.16039 0.0
H1468 H 0.53738 0.93461 0.08493 0.0
H1469 H 0.56515 0.93572 0.10621 0.0
H1470 H 0.60206 0.97186 0.18032 0.0
H1471 H 0.58054 0.94397 0.15614 0.0
H1472 H 0.53197 0.03034 0.13143 0.0
H1473 H 0.51193 0.00269 0.10577 0.0
H1474 H 0.57308 0.05657 0.14079 0.0
H1475 H 0.59917 0.05683 0.16495 0.0
C1476 C 0.5397 0.0047 0.37772 0.0
C1477 C 0.53197 0.02386 0.38573 0.0
C1478 C 0.56057 0.054 0.34012 0.0
C1479 C 0.5673 0.03421 0.33112 0.0
N1480 N 0.55914 0.98857 0.33654 0.0
N1481 N 0.53084 0.06436 0.37208 0.0
C1482 C 0.55542 0.0088 0.34829 0.0
C1483 C 0.54117 0.04785 0.36609 0.0
N1484 N 0.53336 0.98343 0.39946 0.0
N1485 N 0.57301 0.0787 0.32421 0.0
H1486 H 0.51646 0.06 0.39087 0.0
H1487 H 0.53476 0.08105 0.35691 0.0
H1488 H 0.58638 0.08333 0.30407 0.0
H1489 H 0.5712 0.095 0.332 0.0
H1490 H 0.54107 0.97044 0.39724 0.0
H1491 H 0.52222 0.98013 0.42159 0.0
H1492 H 0.54866 0.96882 0.3459 0.0
H1493 H 0.57106 0.99085 0.31556 0.0
C1494 C 0.06715 0.64212 0.38668 0.0
C1495 C 0.05366 0.6137 0.39153 0.0
C1496 C 0.02104 0.60848 0.34604 0.0
C1497 C 0.03474 0.63689 0.34088 0.0
N1498 N 0.07367 0.68041 0.35145 0.0
N1499 N 0.02174 0.56964 0.37157 0.0
C1500 C 0.05878 0.65358 0.35965 0.0
C1501 C 0.03175 0.59684 0.36984 0.0
N1502 N 0.08708 0.6582 0.40907 0.0
N1503 N 0.99741 0.5927 0.32881 0.0
H1504 H 0.02983 0.56095 0.38819 0.0
H1505 H 0.00731 0.55602 0.35474 0.0
H1506 H 0.98966 0.60045 0.31028 0.0
H1507 H 0.98475 0.57227 0.33405 0.0
H1508 H 0.0958 0.67909 0.40953 0.0
H1509 H 0.09357 0.65048 0.42908 0.0
H1510 H 0.09274 0.69327 0.36166 0.0
H1511 H 0.06791 0.68946 0.3322 0.0
C1512 C 0.48521 0.53569 0.42187 0.0
C1513 C 0.48519 0.52375 0.45409 0.0
C1514 C 0.44631 0.48123 0.43467 0.0
C1515 C 0.44898 0.49228 0.40114 0.0
N1516 N 0.47626 0.52835 0.36154 0.0
N1517 N 0.46833 0.48345 0.48899 0.0
C1518 C 0.47003 0.51899 0.39433 0.0
C1519 C 0.4665 0.49597 0.45985 0.0
N1520 N 0.49812 0.56309 0.41787 0.0
N1521 N 0.42385 0.45738 0.44317 0.0
H1522 H 0.48311 0.49344 0.50766 0.0
H1523 H 0.45693 0.46267 0.49301 0.0
H1524 H 0.40797 0.44653 0.42615 0.0
H1525 H 0.41963 0.44986 0.46807 0.0
H1526 H 0.49657 0.57257 0.39564 0.0
H1527 H 0.50735 0.57632 0.43794 0.0
H1528 H 0.49312 0.54688 0.35538 0.0
H1529 H 0.46661 0.51647 0.3404 0.0
C1530 C 0.69524 0.82731 0.25377 0.0
C1531 C 0.69987 0.85424 0.25428 0.0
C1532 C 0.69851 0.8546 0.19108 0.0
C1533 C 0.69283 0.82735 0.19078 0.0
N1534 N 0.68295 0.78674 0.2219 0.0
N1535 N 0.70297 0.89253 0.22355 0.0
C1536 C 0.69039 0.81348 0.22218 0.0
C1537 C 0.70055 0.86754 0.2229 0.0
N1538 N 0.69576 0.81485 0.28367 0.0
N1539 N 0.7023 0.86827 0.16081 0.0
H1540 H 0.70587 0.90306 0.24603 0.0
H1541 H 0.70061 0.90232 0.20223 0.0
H1542 H 0.69957 0.85915 0.13722 0.0
H1543 H 0.7095 0.8889 0.15881 0.0
H1544 H 0.69733 0.79749 0.28489 0.0
H1545 H 0.69594 0.82248 0.30756 0.0
H1546 H 0.67709 0.77431 0.24349 0.0
H1547 H 0.68105 0.77629 0.19965 0.0
C1548 C 0.22963 0.91625 0.24656 0.0
C1549 C 0.24055 0.92745 0.27887 0.0
C1550 C 0.28203 0.96255 0.25169 0.0
C1551 C 0.2707 0.952 0.2192 0.0
N1552 N 0.23683 0.9157 0.18574 0.0
N1553 N 0.27889 0.95656 0.31341 0.0
C1554 C 0.24549 0.92772 0.21671 0.0
C1555 C 0.26749 0.94899 0.28175 0.0
N1556 N 0.20355 0.89547 0.24443 0.0
N1557 N 0.30594 0.98635 0.2537 0.0
H1558 H 0.26847 0.94673 0.33555 0.0
H1559 H 0.29914 0.97069 0.31769 0.0
H1560 H 0.31717 0.99667 0.23229 0.0
H1561 H 0.31392 0.99678 0.27624 0.0
H1562 H 0.19295 0.88838 0.22162 0.0
H1563 H 0.19206 0.88583 0.26601 0.0
H1564 H 0.21983 0.89679 0.18238 0.0
H1565 H 0.24794 0.92378 0.16348 0.0
C1566 C 0.08978 0.33681 0.24808 0.0
C1567 C 0.11777 0.346 0.24525 0.0
C1568 C 0.1191 0.36759 0.19009 0.0
C1569 C 0.09134 0.35943 0.19366 0.0
N1570 N 0.05058 0.33894 0.22687 0.0
N1571 N 0.15999 0.37181 0.21639 0.0
C1572 C 0.07672 0.34471 0.2229 0.0
C1573 C 0.1327 0.3619 0.21699 0.0
N1574 N 0.07579 0.32036 0.27487 0.0
N1575 N 0.13215 0.38004 0.16057 0.0
H1576 H 0.17009 0.36684 0.2351 0.0
H1577 H 0.17285 0.38588 0.19855 0.0
H1578 H 0.12296 0.38515 0.1408 0.0
H1579 H 0.15154 0.38409 0.15471 0.0
H1580 H 0.05487 0.31067 0.27716 0.0
H1581 H 0.08507 0.31504 0.29424 0.0
H1582 H 0.03945 0.33063 0.24895 0.0
H1583 H 0.0403 0.3441 0.20867 0.0
C1584 C 0.11091 0.36712 0.97481 0.0
C1585 C 0.13471 0.39235 0.9694 0.0
C1586 C 0.1236 0.41001 0.0189 0.0
C1587 C 0.09786 0.38601 0.02114 0.0
N1588 N 0.06445 0.3456 0.99255 0.0
N1589 N 0.15976 0.43981 0.98113 0.0
C1590 C 0.09063 0.36576 0.99634 0.0
C1591 C 0.13971 0.4145 0.98972 0.0
N1592 N 0.10827 0.34406 0.96159 0.0
N1593 N 0.13384 0.4276 0.04534 0.0
H1594 H 0.17132 0.44377 0.95924 0.0
H1595 H 0.16275 0.45699 0.99366 0.0
H1596 H 0.12453 0.42406 0.06892 0.0
H1597 H 0.15344 0.44407 0.04537 0.0
H1598 H 0.0919 0.32504 0.96718 0.0
H1599 H 0.12385 0.34346 0.94897 0.0
H1600 H 0.05832 0.33162 0.973 0.0
H1601 H 0.04851 0.34499 0.00588 0.0
C1602 C 0.66046 0.83252 0.94962 0.0
C1603 C 0.6842 0.85688 0.9405 0.0
C1604 C 0.70677 0.85279 0.99272 0.0
C1605 C 0.68392 0.82733 1.0006 0.0
N1606 N 0.64111 0.79029 0.98177 0.0
N1607 N 0.73244 0.88517 0.94848 0.0
C1608 C 0.66129 0.81643 0.97771 0.0
C1609 C 0.70807 0.86551 0.96064 0.0
N1610 N 0.63688 0.8251 0.93221 0.0
N1611 N 0.72685 0.86564 0.01644 0.0
H1612 H 0.73467 0.89387 0.92428 0.0
H1613 H 0.75079 0.89042 0.96062 0.0
H1614 H 0.7263 0.85781 0.04083 0.0
H1615 H 0.74254 0.88544 0.01321 0.0
H1616 H 0.61824 0.8092 0.93994 0.0
H1617 H 0.63562 0.83619 0.91151 0.0
H1618 H 0.62554 0.78041 0.96405 0.0
H1619 H 0.64136 0.77757 1.00103 0.0
C1620 C 0.23738 0.96629 0.97974 0.0
C1621 C 0.21321 0.94133 0.98409 0.0
C1622 C 0.22443 0.93999 0.0446 0.0
C1623 C 0.24967 0.96399 0.0397 0.0
N1624 N 0.28176 0.99858 1.00199 0.0
N1625 N 0.18442 0.90283 0.01876 0.0
C1626 C 0.25651 0.97691 0.00712 0.0
C1627 C 0.20693 0.92776 0.01607 0.0
N1628 N 0.24178 0.97984 0.94931 0.0
N1629 N 0.21683 0.92944 0.07676 0.0
H1630 H 0.17094 0.89389 0.99848 0.0
H1631 H 0.17996 0.8903 0.04015 0.0
H1632 H 0.22904 0.93791 0.09822 0.0
H1633 H 0.19768 0.91359 0.0827 0.0
H1634 H 0.25754 0.99941 0.94509 0.0
H1635 H 0.2284 0.97201 0.92869 0.0
H1636 H 0.28912 0.00725 0.97818 0.0
H1637 H 0.29627 0.00688 0.02135 0.0
C1638 C 0.71626 0.93757 0.45421 0.0
C1639 C 0.69192 0.92261 0.43521 0.0
C1640 C 0.67087 0.94314 0.46903 0.0
C1641 C 0.69352 0.95455 0.49152 0.0
N1642 N 0.73758 0.96117 0.5067 0.0
N1643 N 0.64456 0.9088 0.42785 0.0
C1644 C 0.71638 0.95173 0.48413 0.0
C1645 C 0.66889 0.92488 0.44346 0.0
N1646 N 0.73915 0.93789 0.44393 0.0
N1647 N 0.65152 0.95048 0.47123 0.0
H1648 H 0.64194 0.89552 0.40857 0.0
H1649 H 0.62645 0.90704 0.43596 0.0
H1650 H 0.65257 0.96434 0.48886 0.0
H1651 H 0.63609 0.94519 0.45321 0.0
H1652 H 0.75821 0.95029 0.4545 0.0
H1653 H 0.73939 0.92732 0.42273 0.0
H1654 H 0.75351 0.95731 0.5049 0.0
H1655 H 0.73827 0.9712 0.52887 0.0
C1656 C 0.15797 0.84094 0.47285 0.0
C1657 C 0.15342 0.85931 0.45289 0.0
C1658 C 0.11001 0.84352 0.48155 0.0
C1659 C 0.11332 0.82352 0.4995 0.0
N1660 N 0.13854 0.80024 0.50813 0.0
N1661 N 0.12235 0.87372 0.43263 0.0
C1662 C 0.13686 0.82146 0.49415 0.0
C1663 C 0.12862 0.8593 0.45563 0.0
N1664 N 0.18264 0.84249 0.47199 0.0
N1665 N 0.08966 0.84825 0.49021 0.0
H1666 H 0.1351 0.88511 0.41277 0.0
H1667 H 0.10338 0.87219 0.43109 0.0
H1668 H 0.07606 0.83772 0.50975 0.0
H1669 H 0.08796 0.86445 0.48052 0.0
H1670 H 0.18836 0.83178 0.48866 0.0
H1671 H 0.19811 0.85598 0.45599 0.0
H1672 H 0.15373 0.79598 0.50228 0.0
H1673 H 0.12351 0.78552 0.52354 0.0
C1674 C 0.20693 0.3475 0.49369 0.0
C1675 C 0.20303 0.32846 0.4687 0.0
C1676 C 0.23845 0.32204 0.49561 0.0
C1677 C 0.24564 0.34461 0.51665 0.0
N1678 N 0.23869 0.38153 0.53191 0.0
N1679 N 0.21665 0.29937 0.44316 0.0
C1680 C 0.2302 0.35791 0.51509 0.0
C1681 C 0.21904 0.31597 0.46908 0.0
N1682 N 0.18834 0.35572 0.4966 0.0
N1683 N 0.24956 0.30597 0.50155 0.0
H1684 H 0.20255 0.29455 0.42341 0.0
H1685 H 0.22994 0.29209 0.43996 0.0
H1686 H 0.26299 0.3091 0.52167 0.0
H1687 H 0.24326 0.28796 0.48885 0.0
H1688 H 0.18868 0.3678 0.5163 0.0
H1689 H 0.17101 0.34807 0.48122 0.0
H1690 H 0.22956 0.3933 0.52872 0.0
H1691 H 0.25646 0.39093 0.54634 0.0
C1692 C 0.20653 0.37693 0.71537 0.0
C1693 C 0.21759 0.38602 0.74822 0.0
C1694 C 0.25973 0.38793 0.73192 0.0
C1695 C 0.24941 0.38057 0.69829 0.0
N1696 N 0.2149 0.37271 0.65612 0.0
N1697 N 0.25608 0.40556 0.78595 0.0
C1698 C 0.22327 0.37625 0.68944 0.0
C1699 C 0.24465 0.39312 0.75592 0.0
N1700 N 0.1798 0.36824 0.70935 0.0
N1701 N 0.2834 0.38888 0.74132 0.0
H1702 H 0.24562 0.41027 0.80353 0.0
H1703 H 0.27651 0.41355 0.79194 0.0
H1704 H 0.29475 0.38461 0.72465 0.0
H1705 H 0.2905 0.39142 0.76638 0.0
H1706 H 0.16957 0.35837 0.68726 0.0
H1707 H 0.16737 0.3694 0.72755 0.0
H1708 H 0.1973 0.37232 0.64767 0.0
H1709 H 0.22665 0.37238 0.6363 0.0
C1710 C 0.67535 0.90484 0.71151 0.0
C1711 C 0.67268 0.90939 0.7466 0.0
C1712 C 0.67835 0.95347 0.72894 0.0
C1713 C 0.67555 0.94663 0.69379 0.0
N1714 N 0.66483 0.91129 0.65322 0.0
N1715 N 0.66393 0.93614 0.78592 0.0
C1716 C 0.67211 0.92098 0.68546 0.0
C1717 C 0.67186 0.93313 0.75449 0.0
N1718 N 0.6827 0.88646 0.70261 0.0
N1719 N 0.68845 0.97963 0.73835 0.0
H1720 H 0.65644 0.92085 0.80442 0.0
H1721 H 0.66139 0.95244 0.79175 0.0
H1722 H 0.69611 0.99566 0.72085 0.0
H1723 H 0.69266 0.98562 0.7637 0.0
H1724 H 0.68689 0.88424 0.67753 0.0
H1725 H 0.68831 0.87624 0.72024 0.0
H1726 H 0.65984 0.8917 0.64702 0.0
H1727 H 0.66072 0.92143 0.63376 0.0
C1728 C 0.13942 0.85777 0.72661 0.0
C1729 C 0.12166 0.85249 0.75414 0.0
C1730 C 0.08495 0.81477 0.72304 0.0
C1731 C 0.10237 0.82094 0.69469 0.0
N1732 N 0.14516 0.84955 0.66764 0.0
N1733 N 0.07755 0.82804 0.77866 0.0
C1734 C 0.12936 0.84282 0.69597 0.0
C1735 C 0.09439 0.83149 0.75234 0.0
N1736 N 0.16612 0.87669 0.73035 0.0
N1737 N 0.05949 0.79275 0.72193 0.0
H1738 H 0.08429 0.83982 0.80046 0.0
H1739 H 0.0568 0.81474 0.7784 0.0
H1740 H 0.05169 0.78058 0.70057 0.0
H1741 H 0.04645 0.78553 0.74256 0.0
H1742 H 0.18101 0.87988 0.71299 0.0
H1743 H 0.17373 0.88832 0.75219 0.0
H1744 H 0.164 0.86689 0.66544 0.0
H1745 H 0.13877 0.83843 0.64528 0.0
C1746 C 0.36523 0.20587 0.59354 0.0
C1747 C 0.3599 0.19128 0.62489 0.0
C1748 C 0.35157 0.15082 0.5938 0.0
C1749 C 0.35721 0.16555 0.56239 0.0
N1750 N 0.36233 0.20472 0.53169 0.0
N1751 N 0.34229 0.14877 0.65451 0.0
C1752 C 0.36184 0.19237 0.5621 0.0
C1753 C 0.35095 0.16328 0.62477 0.0
N1754 N 0.37462 0.233 0.59396 0.0
N1755 N 0.34857 0.12557 0.59441 0.0
H1756 H 0.34193 0.15757 0.67736 0.0
H1757 H 0.33324 0.12786 0.65603 0.0
H1758 H 0.34914 0.11585 0.57256 0.0
H1759 H 0.34748 0.11492 0.61674 0.0
H1760 H 0.3823 0.24561 0.57265 0.0
H1761 H 0.37598 0.24319 0.61629 0.0
H1762 H 0.36298 0.22321 0.52968 0.0
H1763 H 0.35951 0.19531 0.5083 0.0
C1764 C 0.87655 0.25228 0.52179 0.0
C1765 C 0.87274 0.26616 0.54855 0.0
C1766 C 0.90424 0.30952 0.52188 0.0
C1767 C 0.90987 0.2957 0.49644 0.0
N1768 N 0.90429 0.25414 0.47451 0.0
N1769 N 0.88569 0.30734 0.57773 0.0
C1770 C 0.89672 0.26707 0.49693 0.0
C1771 C 0.88742 0.29462 0.54964 0.0
N1772 N 0.86048 0.22492 0.5201 0.0
N1773 N 0.9137 0.33663 0.51861 0.0
H1774 H 0.87309 0.2969 0.59815 0.0
H1775 H 0.89822 0.32787 0.58198 0.0
H1776 H 0.9254 0.34832 0.4982 0.0
H1777 H 0.90787 0.34716 0.53445 0.0
H1778 H 0.86019 0.21359 0.49955 0.0
H1779 H 0.84584 0.21376 0.53835 0.0
H1780 H 0.89737 0.23353 0.4756 0.0
H1781 H 0.91931 0.26439 0.45638 0.0
C1782 C 0.81385 0.70419 0.53853 0.0
C1783 C 0.8033 0.70682 0.56963 0.0
C1784 C 0.75812 0.6881 0.5442 0.0
C1785 C 0.76901 0.68675 0.51263 0.0
N1786 N 0.80465 0.68712 0.48071 0.0
N1787 N 0.76538 0.69657 0.605 0.0
C1788 C 0.79612 0.69263 0.51023 0.0
C1789 C 0.7753 0.69708 0.57341 0.0
N1790 N 0.84095 0.71346 0.53609 0.0
N1791 N 0.73177 0.68212 0.54566 0.0
H1792 H 0.77785 0.70405 0.62648 0.0
H1793 H 0.74487 0.68741 0.61043 0.0
H1794 H 0.71846 0.67426 0.52499 0.0
H1795 H 0.72327 0.68568 0.56674 0.0
H1796 H 0.85066 0.71454 0.51346 0.0
H1797 H 0.85418 0.7214 0.55681 0.0
H1798 H 0.82367 0.68918 0.47757 0.0
H1799 H 0.79166 0.67829 0.45995 0.0
C1800 C 0.79101 0.68657 0.28851 0.0
C1801 C 0.77507 0.66212 0.2711 0.0
C1802 C 0.74146 0.64745 0.31631 0.0
C1803 C 0.75515 0.67394 0.32999 0.0
N1804 N 0.78924 0.72087 0.32067 0.0
N1805 N 0.73218 0.62121 0.26516 0.0
C1806 C 0.77891 0.69419 0.31373 0.0
C1807 C 0.74938 0.64303 0.28402 0.0
N1808 N 0.81791 0.70218 0.28174 0.0
N1809 N 0.72203 0.62621 0.33453 0.0
H1810 H 0.73695 0.61791 0.24089 0.0
H1811 H 0.71224 0.60804 0.27226 0.0
H1812 H 0.71711 0.6278 0.35945 0.0
H1813 H 0.71325 0.60634 0.32639 0.0
H1814 H 0.83066 0.71933 0.29571 0.0
H1815 H 0.82796 0.69608 0.26533 0.0
H1816 H 0.80552 0.73614 0.30735 0.0
H1817 H 0.77945 0.72793 0.33602 0.0
C1818 C 0.37571 0.19048 0.3128 0.0
C1819 C 0.35129 0.19058 0.30599 0.0
C1820 C 0.33978 0.18019 0.36663 0.0
C1821 C 0.36132 0.17448 0.37184 0.0
N1822 N 0.39857 0.1719 0.34579 0.0
N1823 N 0.30908 0.18438 0.32626 0.0
C1824 C 0.37918 0.1793 0.34401 0.0
C1825 C 0.33306 0.18519 0.33292 0.0
N1826 N 0.39604 0.20154 0.28948 0.0
N1827 N 0.32647 0.1821 0.39407 0.0
H1828 H 0.30416 0.18897 0.30223 0.0
H1829 H 0.29354 0.17752 0.34394 0.0
H1830 H 0.33206 0.18066 0.41915 0.0
H1831 H 0.31218 0.18835 0.39211 0.0
H1832 H 0.41546 0.20484 0.29444 0.0
H1833 H 0.39438 0.21029 0.2667 0.0
H1834 H 0.40877 0.17127 0.32439 0.0
H1835 H 0.40351 0.16447 0.36731 0.0
C1836 C 0.90381 0.32251 0.26355 0.0
C1837 C 0.87563 0.31032 0.26923 0.0
C1838 C 0.88382 0.31776 0.33058 0.0
C1839 C 0.9122 0.33091 0.32484 0.0
N1840 N 0.94947 0.34995 0.28573 0.0
N1841 N 0.83867 0.29993 0.30626 0.0
C1842 C 0.92229 0.33446 0.29122 0.0
C1843 C 0.86566 0.30927 0.30222 0.0
N1844 N 0.91271 0.32207 0.23167 0.0
N1845 N 0.87415 0.31185 0.36313 0.0
H1846 H 0.82492 0.29275 0.28594 0.0
H1847 H 0.83024 0.30118 0.32895 0.0
H1848 H 0.88661 0.31713 0.38469 0.0
H1849 H 0.85377 0.29976 0.36891 0.0
H1850 H 0.93264 0.32773 0.22614 0.0
H1851 H 0.8996 0.31453 0.21083 0.0
H1852 H 0.95802 0.35548 0.26163 0.0
H1853 H 0.96348 0.35918 0.30543 0.0
C1854 C 0.38542 0.28618 0.8227 0.0
C1855 C 0.36518 0.26001 0.81243 0.0
C1856 C 0.33533 0.2612 0.85622 0.0
C1857 C 0.35733 0.2852 0.87011 0.0
N1858 N 0.40554 0.31644 0.86989 0.0
N1859 N 0.32154 0.22098 0.82287 0.0
C1860 C 0.38299 0.29658 0.85422 0.0
C1861 C 0.34025 0.24704 0.8301 0.0
N1862 N 0.40672 0.30168 0.80179 0.0
N1863 N 0.30949 0.25255 0.86648 0.0
H1864 H 0.32436 0.2101 0.80399 0.0
H1865 H 0.30432 0.20955 0.8375 0.0
H1866 H 0.30462 0.26295 0.88383 0.0
H1867 H 0.2926 0.23673 0.8549 0.0
H1868 H 0.42072 0.32179 0.80677 0.0
H1869 H 0.40845 0.29557 0.77756 0.0
H1870 H 0.42498 0.32361 0.86061 0.0
H1871 H 0.40529 0.32335 0.89417 0.0
C1872 C 0.78637 0.17654 0.79456 0.0
C1873 C 0.77655 0.18787 0.76971 0.0
C1874 C 0.73146 0.16343 0.79505 0.0
C1875 C 0.74051 0.14947 0.81716 0.0
N1876 N 0.7757 0.13952 0.8339 0.0
N1877 N 0.73958 0.19048 0.74338 0.0
C1878 C 0.76781 0.15529 0.81606 0.0
C1879 C 0.74904 0.18098 0.76926 0.0
N1880 N 0.81358 0.18649 0.79781 0.0
N1881 N 0.70643 0.16055 0.79938 0.0
H1882 H 0.75214 0.20351 0.72437 0.0
H1883 H 0.71915 0.18396 0.73935 0.0
H1884 H 0.69324 0.14824 0.81838 0.0
H1885 H 0.6997 0.17213 0.78621 0.0
H1886 H 0.82233 0.18095 0.81762 0.0
H1887 H 0.8276 0.20228 0.78252 0.0
H1888 H 0.79456 0.14109 0.83113 0.0
H1889 H 0.76263 0.12307 0.84903 0.0
C1890 C 0.90651 0.72217 0.81429 0.0
C1891 C 0.92026 0.73787 0.78546 0.0
C1892 C 0.96108 0.73672 0.80306 0.0
C1893 C 0.94599 0.71749 0.82896 0.0
N1894 N 0.90315 0.68947 0.85694 0.0
N1895 N 0.95969 0.75912 0.75042 0.0
C1896 C 0.91846 0.70984 0.8344 0.0
C1897 C 0.94744 0.74516 0.77951 0.0
N1898 N 0.88166 0.71865 0.82173 0.0
N1899 N 0.98848 0.74743 0.80151 0.0
H1900 H 0.95035 0.76632 0.73348 0.0
H1901 H 0.97832 0.76226 0.7422 0.0
H1902 H 0.99925 0.74199 0.81853 0.0
H1903 H 0.00084 0.76341 0.78534 0.0
H1904 H 0.8713 0.70943 0.84406 0.0
H1905 H 0.87258 0.72732 0.80678 0.0
H1906 H 0.88237 0.68129 0.85949 0.0
H1907 H 0.91057 0.67885 0.87102 0.0
C1908 C 0.8701 0.6853 0.01612 0.0
C1909 C 0.86747 0.67177 0.04759 0.0
C1910 C 0.90754 0.66808 0.03567 0.0
C1911 C 0.9097 0.68087 0.00348 0.0
N1912 N 0.89234 0.69994 0.96137 0.0
N1913 N 0.88106 0.64795 0.08687 0.0
C1914 C 0.89067 0.68889 0.99314 0.0
C1915 C 0.88553 0.66254 0.05725 0.0
N1916 N 0.85334 0.69548 0.00903 0.0
N1917 N 0.9265 0.66121 0.04547 0.0
H1918 H 0.86517 0.64388 0.10313 0.0
H1919 H 0.8918 0.63846 0.09462 0.0
H1920 H 0.94183 0.66322 0.02953 0.0
H1921 H 0.92794 0.65449 0.06984 0.0
H1922 H 0.85558 0.70803 0.98827 0.0
H1923 H 0.83772 0.69241 0.02522 0.0
H1924 H 0.87751 0.70343 0.95069 0.0
H1925 H 0.90823 0.70477 0.94476 0.0
C1926 C 0.31353 0.25213 0.11588 0.0
C1927 C 0.33891 0.26035 0.1321 0.0
C1928 C 0.36169 0.29441 0.08628 0.0
C1929 C 0.33632 0.28599 0.07003 0.0
N1930 N 0.28895 0.25355 0.06519 0.0
N1931 N 0.38777 0.2865 0.1299 0.0
C1932 C 0.3125 0.26381 0.08366 0.0
C1933 C 0.36318 0.28043 0.11621 0.0
N1934 N 0.29032 0.23339 0.1316 0.0
N1935 N 0.38418 0.31691 0.07433 0.0
H1936 H 0.39011 0.27849 0.15292 0.0
H1937 H 0.40602 0.29825 0.11741 0.0
H1938 H 0.38406 0.32723 0.05214 0.0
H1939 H 0.40259 0.32647 0.08737 0.0
H1940 H 0.27103 0.22882 0.12355 0.0
H1941 H 0.29036 0.22319 0.15395 0.0
H1942 H 0.27131 0.2359 0.07172 0.0
H1943 H 0.28769 0.26147 0.04146 0.0
C1944 C 0.76104 0.20367 0.03198 0.0
C1945 C 0.77927 0.20127 0.05482 0.0
C1946 C 0.76707 0.15777 0.02992 0.0
C1947 C 0.75194 0.16206 0.00378 0.0
N1948 N 0.74191 0.1942 0.97525 0.0
N1949 N 0.80568 0.17974 0.0676 0.0
C1950 C 0.75098 0.18648 0.00338 0.0
C1951 C 0.78413 0.17942 0.05146 0.0
N1952 N 0.75252 0.22162 0.03808 0.0
N1953 N 0.7643 0.13288 0.03563 0.0
H1954 H 0.81998 0.19628 0.08127 0.0
H1955 H 0.81112 0.1651 0.06367 0.0
H1956 H 0.75022 0.11569 0.02277 0.0
H1957 H 0.77353 0.12874 0.05624 0.0
H1958 H 0.73742 0.22241 0.02356 0.0
H1959 H 0.75825 0.23343 0.05983 0.0
H1960 H 0.74291 0.21288 0.97323 0.0
H1961 H 0.73679 0.18375 0.95241 0.0
loop_
_geom_bond_atom_site_label_1
_geom_bond_atom_site_label_2
_geom_bond_distance
_geom_bond_site_symmetry_2
_ccdc_geom_bond_type
Cu0 N1 1.999 . S
Cu0 O6 1.974 1_554 S
Cu0 N11 1.985 1_554 S
Cu0 O20 1.959 . S
N1 Cu0 1.999 . S
N1 C3 1.263 . S
N1 C5 1.389 . S
N2 C3 1.358 . S
N2 C4 1.400 . S
C3 N1 1.263 . S
C3 N2 1.358 . S
C3 H9 0.930 . S
C4 N2 1.400 . S
C4 C5 1.351 . S
C4 H21 0.930 . S
C5 N1 1.389 . S
C5 C4 1.351 . S
C5 H10 0.930 . S
O6 Cu0 1.974 1_556 S
O6 C16 1.282 . S
C7 O8 1.261 . S
C7 O20 1.251 . S
O8 C7 1.261 . S
H9 C3 0.930 . S
H10 C5 0.930 . S
N11 Cu0 1.985 1_556 S
N11 C13 1.335 . S
N11 C14 1.390 . S
N12 C13 1.345 . S
N12 C15 1.336 . S
C13 N11 1.335 . S
C13 N12 1.345 . S
C13 H18 0.930 . S
C14 N11 1.390 . S
C14 C15 1.346 . S
C14 H19 0.930 . S
C15 N12 1.336 . S
C15 C14 1.346 . S
C15 H22 0.929 . S
C16 O6 1.282 . S
C16 O17 1.235 . S
O17 C16 1.235 . S
H18 C13 0.930 . S
H19 C14 0.930 . S
O20 Cu0 1.959 . S
O20 C7 1.251 . S
H21 C4 0.930 . S
H22 C15 0.929 . S
Cu23 N24 1.999 1_554 S
Cu23 O29 1.974 . S
Cu23 N34 1.985 . S
Cu23 O43 1.959 1_554 S
N24 Cu23 1.999 1_556 S
N24 C26 1.263 . S
N24 C28 1.389 . S
N25 C26 1.358 . S
N25 C27 1.400 . S
C26 N24 1.263 . S
C26 N25 1.358 . S
C26 H32 0.930 . S
C27 N25 1.400 . S
C27 C28 1.351 . S
C27 H44 0.930 . S
C28 N24 1.389 . S
C28 C27 1.351 . S
C28 H33 0.930 . S
O29 Cu23 1.974 . S
O29 C39 1.282 . S
C30 O31 1.258 1_556 S
C30 O43 1.251 . S
O31 C30 1.258 1_554 S
H32 C26 0.930 . S
H33 C28 0.930 . S
N34 Cu23 1.985 . S
N34 C36 1.335 . S
N34 C37 1.390 . S
N35 C36 1.345 . S
N35 C38 1.336 . S
C36 N34 1.335 . S
C36 N35 1.345 . S
C36 H41 0.930 . S
C37 N34 1.390 . S
C37 C38 1.346 . S
C37 H42 0.930 . S
C38 N35 1.336 . S
C38 C37 1.346 . S
C38 H45 0.929 . S
C39 O29 1.282 . S
C39 O40 1.216 . S
O40 C39 1.216 . S
H41 C36 0.930 . S
H42 C37 0.930 . S
O43 Cu23 1.959 1_556 S
O43 C30 1.251 . S
H44 C27 0.930 . S
H45 C38 0.929 . S
Cu46 N47 2.004 1_544 S
Cu46 O52 1.988 1_545 S
Cu46 N57 1.987 . S
Cu46 O66 1.946 . S
N47 Cu46 2.004 1_566 S
N47 C49 1.263 1_565 S
N47 C51 1.389 . S
N48 C49 1.358 1_565 S
N48 C50 1.400 . S
C49 N47 1.263 1_545 S
C49 N48 1.358 1_545 S
C49 H55 0.930 . S
C50 N48 1.400 . S
C50 C51 1.351 . S
C50 H67 0.930 . S
C51 N47 1.389 . S
C51 C50 1.351 . S
C51 H56 0.930 . S
O52 Cu46 1.988 1_565 S
O52 C62 1.282 1_565 S
C53 O54 1.259 1_556 S
C53 O66 1.247 1_556 S
O54 C53 1.259 1_554 S
H55 C49 0.930 . S
H56 C51 0.930 . S
N57 Cu46 1.987 . S
N57 C59 1.335 . S
N57 C60 1.390 . S
N58 C59 1.345 . S
N58 C61 1.336 . S
C59 N57 1.335 . S
C59 N58 1.345 . S
C59 H64 0.930 . S
C60 N57 1.390 . S
C60 C61 1.346 . S
C60 H65 0.930 . S
C61 N58 1.336 . S
C61 C60 1.346 . S
C61 H68 0.929 . S
C62 O52 1.282 1_545 S
C62 O63 1.216 . S
O63 C62 1.216 . S
H64 C59 0.930 . S
H65 C60 0.930 . S
O66 Cu46 1.946 . S
O66 C53 1.247 1_554 S
H67 C50 0.930 . S
H68 C61 0.929 . S
Cu69 N70 1.999 . S
Cu69 O75 1.974 . S
Cu69 N80 1.985 . S
Cu69 O89 1.959 . S
N70 Cu69 1.999 . S
N70 C72 1.263 . S
N70 C74 1.389 . S
N71 C72 1.358 . S
N71 C73 1.400 . S
C72 N70 1.263 . S
C72 N71 1.358 . S
C72 H78 0.930 . S
C73 N71 1.400 . S
C73 C74 1.351 . S
C73 H90 0.930 . S
C74 N70 1.389 . S
C74 C73 1.351 . S
C74 H79 0.930 . S
O75 Cu69 1.974 . S
O75 C85 1.282 1_545 S
C76 O77 1.261 . S
C76 O89 1.251 . S
O77 C76 1.261 . S
H78 C72 0.930 . S
H79 C74 0.930 . S
N80 Cu69 1.985 . S
N80 C82 1.335 . S
N80 C83 1.390 . S
N81 C82 1.345 . S
N81 C84 1.336 . S
C82 N80 1.335 . S
C82 N81 1.345 . S
C82 H87 0.930 . S
C83 N80 1.390 . S
C83 C84 1.346 . S
C83 H88 0.930 1_545 S
C84 N81 1.336 . S
C84 C83 1.346 . S
C84 H91 0.929 1_545 S
C85 O75 1.282 1_565 S
C85 O86 1.216 . S
O86 C85 1.216 . S
H87 C82 0.930 . S
H88 C83 0.930 1_565 S
O89 Cu69 1.959 . S
O89 C76 1.251 . S
H90 C73 0.930 . S
H91 C84 0.929 1_565 S
Cu92 N93 1.999 . S
Cu92 O98 1.974 . S
Cu92 N103 1.985 . S
Cu92 O112 1.959 . S
N93 Cu92 1.999 . S
N93 C95 1.263 . S
N93 C97 1.389 . S
N94 C95 1.358 . S
N94 C96 1.400 . S
C95 N93 1.263 . S
C95 N94 1.358 . S
C95 H101 0.930 . S
C96 N94 1.400 . S
C96 C97 1.351 . S
C96 H113 0.930 . S
C97 N93 1.389 . S
C97 C96 1.351 . S
C97 H102 0.930 . S
O98 Cu92 1.974 . S
O98 C108 1.282 . S
C99 O100 1.261 . S
C99 O112 1.251 . S
O100 C99 1.261 . S
H101 C95 0.930 . S
H102 C97 0.930 . S
N103 Cu92 1.985 . S
N103 C105 1.335 . S
N103 C106 1.390 . S
N104 C105 1.345 . S
N104 C107 1.336 . S
C105 N103 1.335 . S
C105 N104 1.345 . S
C105 H110 0.930 . S
C106 N103 1.390 . S
C106 C107 1.346 . S
C106 H111 0.930 . S
C107 N104 1.336 . S
C107 C106 1.346 . S
C107 H114 0.929 . S
C108 O98 1.282 . S
C108 O109 1.216 . S
O109 C108 1.216 . S
H110 C105 0.930 . S
H111 C106 0.930 . S
O112 Cu92 1.959 . S
O112 C99 1.251 . S
H113 C96 0.930 . S
H114 C107 0.929 . S
Cu115 N116 1.999 . S
Cu115 O121 1.974 . S
Cu115 N126 1.985 . S
Cu115 O135 1.959 . S
N116 Cu115 1.999 . S
N116 C118 1.263 . S
N116 C120 1.389 . S
N117 C118 1.358 . S
N117 C119 1.400 . S
C118 N116 1.263 . S
C118 N117 1.358 . S
C118 H124 0.930 . S
C119 N117 1.400 . S
C119 C120 1.351 . S
C119 H136 0.930 . S
C120 N116 1.389 . S
C120 C119 1.351 . S
C120 H125 0.930 . S
O121 Cu115 1.974 . S
O121 C131 1.282 . S
C122 O123 1.261 . S
C122 O135 1.251 . S
O123 C122 1.261 . S
H124 C118 0.930 . S
H125 C120 0.930 . S
N126 Cu115 1.985 . S
N126 C128 1.335 . S
N126 C129 1.390 . S
N127 C128 1.345 . S
N127 C130 1.336 . S
C128 N126 1.335 . S
C128 N127 1.345 . S
C128 H133 0.930 . S
C129 N126 1.390 . S
C129 C130 1.346 . S
C129 H134 0.930 . S
C130 N127 1.336 . S
C130 C129 1.346 . S
C130 H137 0.929 . S
C131 O121 1.282 . S
C131 O132 1.216 . S
O132 C131 1.216 . S
H133 C128 0.930 . S
H134 C129 0.930 . S
O135 Cu115 1.959 . S
O135 C122 1.251 . S
H136 C119 0.930 . S
H137 C130 0.929 . S
Cu138 N139 1.999 . S
Cu138 O144 1.974 . S
Cu138 N149 1.985 . S
Cu138 O158 1.959 . S
N139 Cu138 1.999 . S
N139 C141 1.263 . S
N139 C143 1.389 . S
N140 C141 1.358 . S
N140 C142 1.400 . S
C141 N139 1.263 . S
C141 N140 1.358 . S
C141 H147 0.930 . S
C142 N140 1.400 . S
C142 C143 1.351 . S
C142 H159 0.930 . S
C143 N139 1.389 . S
C143 C142 1.351 . S
C143 H148 0.930 . S
O144 Cu138 1.974 . S
O144 C154 1.282 . S
C145 O146 1.261 . S
C145 O158 1.251 . S
O146 C145 1.261 . S
H147 C141 0.930 . S
H148 C143 0.930 . S
N149 Cu138 1.985 . S
N149 C151 1.335 . S
N149 C152 1.390 . S
N150 C151 1.345 . S
N150 C153 1.336 . S
C151 N149 1.335 . S
C151 N150 1.345 . S
C151 H156 0.930 . S
C152 N149 1.390 . S
C152 C153 1.346 . S
C152 H157 0.930 . S
C153 N150 1.336 . S
C153 C152 1.346 . S
C153 H160 0.929 . S
C154 O144 1.282 . S
C154 O155 1.216 . S
O155 C154 1.216 . S
H156 C151 0.930 . S
H157 C152 0.930 . S
O158 Cu138 1.959 . S
O158 C145 1.251 . S
H159 C142 0.930 . S
H160 C153 0.929 . S
Cu161 N162 1.999 . S
Cu161 O167 1.974 . S
Cu161 N172 1.985 . S
Cu161 O181 1.959 . S
N162 Cu161 1.999 . S
N162 C164 1.263 . S
N162 C166 1.389 . S
N163 C164 1.358 . S
N163 C165 1.400 . S
C164 N162 1.263 . S
C164 N163 1.358 . S
C164 H170 0.930 . S
C165 N163 1.400 . S
C165 C166 1.351 . S
C165 H182 0.930 . S
C166 N162 1.389 . S
C166 C165 1.351 . S
C166 H171 0.930 . S
O167 Cu161 1.974 . S
O167 C177 1.282 . S
C168 O169 1.261 . S
C168 O181 1.251 . S
O169 C168 1.261 . S
H170 C164 0.930 . S
H171 C166 0.930 . S
N172 Cu161 1.985 . S
N172 C174 1.335 . S
N172 C175 1.390 . S
N173 C174 1.345 . S
N173 C176 1.336 . S
C174 N172 1.335 . S
C174 N173 1.345 . S
C174 H179 0.930 . S
C175 N172 1.390 . S
C175 C176 1.346 . S
C175 H180 0.930 . S
C176 N173 1.336 . S
C176 C175 1.346 . S
C176 H183 0.929 . S
C177 O167 1.282 . S
C177 O178 1.216 . S
O178 C177 1.216 . S
H179 C174 0.930 . S
H180 C175 0.930 . S
O181 Cu161 1.959 . S
O181 C168 1.251 . S
H182 C165 0.930 . S
H183 C176 0.929 . S
Cu184 N185 1.999 . S
Cu184 O190 1.974 . S
Cu184 N195 1.985 . S
Cu184 O204 1.959 . S
N185 Cu184 1.999 . S
N185 C187 1.263 . S
N185 C189 1.389 . S
N186 C187 1.358 . S
N186 C188 1.400 . S
C187 N185 1.263 . S
C187 N186 1.358 . S
C187 H193 0.930 . S
C188 N186 1.400 . S
C188 C189 1.351 . S
C188 H205 0.930 . S
C189 N185 1.389 . S
C189 C188 1.351 . S
C189 H194 0.930 . S
O190 Cu184 1.974 . S
O190 C200 1.282 . S
C191 O192 1.261 . S
C191 O204 1.251 . S
O192 C191 1.261 . S
H193 C187 0.930 . S
H194 C189 0.930 . S
N195 Cu184 1.985 . S
N195 C197 1.335 . S
N195 C198 1.390 . S
N196 C197 1.345 . S
N196 C199 1.336 . S
C197 N195 1.335 . S
C197 N196 1.345 . S
C197 H202 0.930 . S
C198 N195 1.390 . S
C198 C199 1.346 . S
C198 H203 0.930 . S
C199 N196 1.336 . S
C199 C198 1.346 . S
C199 H206 0.929 . S
C200 O190 1.282 . S
C200 O201 1.216 . S
O201 C200 1.216 . S
H202 C197 0.930 . S
H203 C198 0.930 . S
O204 Cu184 1.959 . S
O204 C191 1.251 . S
H205 C188 0.930 . S
H206 C199 0.929 . S
Cu207 N208 1.999 . S
Cu207 O213 1.974 . S
Cu207 N218 1.985 . S
Cu207 O227 1.959 . S
N208 Cu207 1.999 . S
N208 C210 1.263 . S
N208 C212 1.389 . S
N209 C210 1.358 . S
N209 C211 1.400 . S
C210 N208 1.263 . S
C210 N209 1.358 . S
C210 H216 0.930 . S
C211 N209 1.400 . S
C211 C212 1.351 . S
C211 H228 0.930 . S
C212 N208 1.389 . S
C212 C211 1.351 . S
C212 H217 0.930 . S
O213 Cu207 1.974 . S
O213 C223 1.282 . S
C214 O215 1.261 . S
C214 O227 1.251 . S
O215 C214 1.261 . S
H216 C210 0.930 . S
H217 C212 0.930 . S
N218 Cu207 1.985 . S
N218 C220 1.335 . S
N218 C221 1.390 . S
N219 C220 1.345 . S
N219 C222 1.336 . S
C220 N218 1.335 . S
C220 N219 1.345 . S
C220 H225 0.930 . S
C221 N218 1.390 . S
C221 C222 1.346 . S
C221 H226 0.930 . S
C222 N219 1.336 . S
C222 C221 1.346 . S
C222 H229 0.929 . S
C223 O213 1.282 . S
C223 O224 1.216 . S
O224 C223 1.216 . S
H225 C220 0.930 . S
H226 C221 0.930 . S
O227 Cu207 1.959 . S
O227 C214 1.251 . S
H228 C211 0.930 . S
H229 C222 0.929 . S
Cu230 N231 1.999 . S
Cu230 O236 1.974 . S
Cu230 N241 1.985 . S
Cu230 O250 1.959 . S
N231 Cu230 1.999 . S
N231 C233 1.263 . S
N231 C235 1.389 . S
N232 C233 1.358 . S
N232 C234 1.400 . S
C233 N231 1.263 . S
C233 N232 1.358 . S
C233 H239 0.930 . S
C234 N232 1.400 . S
C234 C235 1.351 . S
C234 H251 0.930 . S
C235 N231 1.389 . S
C235 C234 1.351 . S
C235 H240 0.930 . S
O236 Cu230 1.974 . S
O236 C246 1.282 . S
C237 O238 1.261 . S
C237 O250 1.251 . S
O238 C237 1.261 . S
H239 C233 0.930 . S
H240 C235 0.930 . S
N241 Cu230 1.985 . S
N241 C243 1.335 . S
N241 C244 1.390 . S
N242 C243 1.345 . S
N242 C245 1.336 . S
C243 N241 1.335 . S
C243 N242 1.345 . S
C243 H248 0.930 . S
C244 N241 1.390 . S
C244 C245 1.346 . S
C244 H249 0.930 . S
C245 N242 1.336 . S
C245 C244 1.346 . S
C245 H252 0.929 . S
C246 O236 1.282 . S
C246 O247 1.216 . S
O247 C246 1.216 . S
H248 C243 0.930 . S
H249 C244 0.930 . S
O250 Cu230 1.959 . S
O250 C237 1.251 . S
H251 C234 0.930 . S
H252 C245 0.929 . S
Cu253 N254 1.999 . S
Cu253 O259 1.974 . S
Cu253 N264 1.985 . S
Cu253 O273 1.959 . S
N254 Cu253 1.999 . S
N254 C256 1.263 . S
N254 C258 1.389 . S
N255 C256 1.358 . S
N255 C257 1.400 . S
C256 N254 1.263 . S
C256 N255 1.358 . S
C256 H262 0.930 . S
C257 N255 1.400 . S
C257 C258 1.351 . S
C257 H274 0.930 . S
C258 N254 1.389 . S
C258 C257 1.351 . S
C258 H263 0.930 . S
O259 Cu253 1.974 . S
O259 C269 1.282 . S
C260 O261 1.261 . S
C260 O273 1.251 . S
O261 C260 1.261 . S
H262 C256 0.930 . S
H263 C258 0.930 . S
N264 Cu253 1.985 . S
N264 C266 1.335 . S
N264 C267 1.390 . S
N265 C266 1.345 . S
N265 C268 1.336 . S
C266 N264 1.335 . S
C266 N265 1.345 . S
C266 H271 0.930 . S
C267 N264 1.390 . S
C267 C268 1.346 . S
C267 H272 0.930 . S
C268 N265 1.336 . S
C268 C267 1.346 . S
C268 H275 0.929 . S
C269 O259 1.282 . S
C269 O270 1.216 . S
O270 C269 1.216 . S
H271 C266 0.930 . S
H272 C267 0.930 . S
O273 Cu253 1.959 . S
O273 C260 1.251 . S
H274 C257 0.930 . S
H275 C268 0.929 . S
Cu276 N277 1.999 . S
Cu276 O282 1.974 . S
Cu276 N287 1.985 . S
Cu276 O296 1.959 . S
N277 Cu276 1.999 . S
N277 C279 1.263 . S
N277 C281 1.389 . S
N278 C279 1.358 . S
N278 C280 1.400 . S
C279 N277 1.263 . S
C279 N278 1.358 . S
C279 H285 0.930 . S
C280 N278 1.400 . S
C280 C281 1.351 . S
C280 H297 0.930 . S
C281 N277 1.389 . S
C281 C280 1.351 . S
C281 H286 0.930 . S
O282 Cu276 1.974 . S
O282 C292 1.282 . S
C283 O284 1.261 . S
C283 O296 1.251 . S
O284 C283 1.261 . S
H285 C279 0.930 . S
H286 C281 0.930 . S
N287 Cu276 1.985 . S
N287 C289 1.335 . S
N287 C290 1.390 . S
N288 C289 1.345 . S
N288 C291 1.336 . S
C289 N287 1.335 . S
C289 N288 1.345 . S
C289 H294 0.930 . S
C290 N287 1.390 . S
C290 C291 1.346 . S
C290 H295 0.930 . S
C291 N288 1.336 . S
C291 C290 1.346 . S
C291 H298 0.929 . S
C292 O282 1.282 . S
C292 O293 1.216 . S
O293 C292 1.216 . S
H294 C289 0.930 . S
H295 C290 0.930 . S
O296 Cu276 1.959 . S
O296 C283 1.251 . S
H297 C280 0.930 . S
H298 C291 0.929 . S
Cu299 N300 1.999 . S
Cu299 O305 1.974 . S
Cu299 N310 1.985 . S
Cu299 O319 1.959 . S
N300 Cu299 1.999 . S
N300 C302 1.263 . S
N300 C304 1.389 . S
N301 C302 1.358 . S
N301 C303 1.400 . S
C302 N300 1.263 . S
C302 N301 1.358 . S
C302 H308 0.930 . S
C303 N301 1.400 . S
C303 C304 1.351 . S
C303 H320 0.930 . S
C304 N300 1.389 . S
C304 C303 1.351 . S
C304 H309 0.930 . S
O305 Cu299 1.974 . S
O305 C315 1.282 . S
C306 O307 1.261 . S
C306 O319 1.251 . S
O307 C306 1.261 . S
H308 C302 0.930 . S
H309 C304 0.930 . S
N310 Cu299 1.985 . S
N310 C312 1.335 . S
N310 C313 1.390 . S
N311 C312 1.345 . S
N311 C314 1.336 . S
C312 N310 1.335 . S
C312 N311 1.345 . S
C312 H317 0.930 . S
C313 N310 1.390 . S
C313 C314 1.346 . S
C313 H318 0.930 . S
C314 N311 1.336 . S
C314 C313 1.346 . S
C314 H321 0.929 . S
C315 O305 1.282 . S
C315 O316 1.216 . S
O316 C315 1.216 . S
H317 C312 0.930 . S
H318 C313 0.930 . S
O319 Cu299 1.959 . S
O319 C306 1.251 . S
H320 C303 0.930 . S
H321 C314 0.929 . S
Cu322 N323 1.999 . S
Cu322 O328 1.974 . S
Cu322 N333 1.985 . S
Cu322 O342 1.959 . S
N323 Cu322 1.999 . S
N323 C325 1.263 . S
N323 C327 1.389 . S
N324 C325 1.358 . S
N324 C326 1.400 . S
C325 N323 1.263 . S
C325 N324 1.358 . S
C325 H331 0.930 . S
C326 N324 1.400 . S
C326 C327 1.351 . S
C326 H343 0.930 . S
C327 N323 1.389 . S
C327 C326 1.351 . S
C327 H332 0.930 . S
O328 Cu322 1.974 . S
O328 C338 1.282 . S
C329 O330 1.261 . S
C329 O342 1.251 . S
O330 C329 1.261 . S
H331 C325 0.930 . S
H332 C327 0.930 . S
N333 Cu322 1.985 . S
N333 C335 1.335 . S
N333 C336 1.390 . S
N334 C335 1.345 . S
N334 C337 1.336 . S
C335 N333 1.335 . S
C335 N334 1.345 . S
C335 H340 0.930 . S
C336 N333 1.390 . S
C336 C337 1.346 . S
C336 H341 0.930 . S
C337 N334 1.336 . S
C337 C336 1.346 . S
C337 H344 0.929 . S
C338 O328 1.282 . S
C338 O339 1.216 . S
O339 C338 1.216 . S
H340 C335 0.930 . S
H341 C336 0.930 . S
O342 Cu322 1.959 . S
O342 C329 1.251 . S
H343 C326 0.930 . S
H344 C337 0.929 . S
Cu345 N346 1.999 . S
Cu345 O351 1.974 . S
Cu345 N356 1.985 . S
Cu345 O365 1.959 . S
N346 Cu345 1.999 . S
N346 C348 1.263 . S
N346 C350 1.389 . S
N347 C348 1.358 . S
N347 C349 1.400 . S
C348 N346 1.263 . S
C348 N347 1.358 . S
C348 H354 0.930 . S
C349 N347 1.400 . S
C349 C350 1.351 . S
C349 H366 0.930 . S
C350 N346 1.389 . S
C350 C349 1.351 . S
C350 H355 0.930 . S
O351 Cu345 1.974 . S
O351 C361 1.282 . S
C352 O353 1.261 . S
C352 O365 1.251 . S
O353 C352 1.261 . S
H354 C348 0.930 . S
H355 C350 0.930 . S
N356 Cu345 1.985 . S
N356 C358 1.335 . S
N356 C359 1.390 . S
N357 C358 1.345 . S
N357 C360 1.336 . S
C358 N356 1.335 . S
C358 N357 1.345 . S
C358 H363 0.930 . S
C359 N356 1.390 . S
C359 C360 1.346 . S
C359 H364 0.930 . S
C360 N357 1.336 . S
C360 C359 1.346 . S
C360 H367 0.929 . S
C361 O351 1.282 . S
C361 O362 1.216 . S
O362 C361 1.216 . S
H363 C358 0.930 . S
H364 C359 0.930 . S
O365 Cu345 1.959 . S
O365 C352 1.251 . S
H366 C349 0.930 . S
H367 C360 0.929 . S
Cu368 N369 1.999 . S
Cu368 O374 1.974 . S
Cu368 N379 1.985 . S
Cu368 O388 1.959 . S
N369 Cu368 1.999 . S
N369 C371 1.263 . S
N369 C373 1.389 . S
N370 C371 1.358 . S
N370 C372 1.400 . S
C371 N369 1.263 . S
C371 N370 1.358 . S
C371 H377 0.930 . S
C372 N370 1.400 . S
C372 C373 1.351 . S
C372 H389 0.930 . S
C373 N369 1.389 . S
C373 C372 1.351 . S
C373 H378 0.930 . S
O374 Cu368 1.974 . S
O374 C384 1.282 . S
C375 O376 1.261 . S
C375 O388 1.251 . S
O376 C375 1.261 . S
H377 C371 0.930 . S
H378 C373 0.930 . S
N379 Cu368 1.985 . S
N379 C381 1.335 . S
N379 C382 1.390 . S
N380 C381 1.345 . S
N380 C383 1.336 . S
C381 N379 1.335 . S
C381 N380 1.345 . S
C381 H386 0.930 . S
C382 N379 1.390 . S
C382 C383 1.346 . S
C382 H387 0.930 . S
C383 N380 1.336 . S
C383 C382 1.346 . S
C383 H390 0.929 . S
C384 O374 1.282 . S
C384 O385 1.216 . S
O385 C384 1.216 . S
H386 C381 0.930 . S
H387 C382 0.930 . S
O388 Cu368 1.959 . S
O388 C375 1.251 . S
H389 C372 0.930 . S
H390 C383 0.929 . S
Cu391 N392 1.999 . S
Cu391 O397 1.974 . S
Cu391 N402 1.985 . S
Cu391 O411 1.959 . S
N392 Cu391 1.999 . S
N392 C394 1.263 . S
N392 C396 1.389 . S
N393 C394 1.358 . S
N393 C395 1.400 . S
C394 N392 1.263 . S
C394 N393 1.358 . S
C394 H400 0.930 . S
C395 N393 1.400 . S
C395 C396 1.351 . S
C395 H412 0.930 . S
C396 N392 1.389 . S
C396 C395 1.351 . S
C396 H401 0.930 . S
O397 Cu391 1.974 . S
O397 C407 1.282 . S
C398 O399 1.261 . S
C398 O411 1.251 . S
O399 C398 1.261 . S
H400 C394 0.930 . S
H401 C396 0.930 . S
N402 Cu391 1.985 . S
N402 C404 1.335 . S
N402 C405 1.390 . S
N403 C404 1.345 . S
N403 C406 1.336 . S
C404 N402 1.335 . S
C404 N403 1.345 . S
C404 H409 0.930 . S
C405 N402 1.390 . S
C405 C406 1.346 . S
C405 H410 0.930 . S
C406 N403 1.336 . S
C406 C405 1.346 . S
C406 H413 0.929 . S
C407 O397 1.282 . S
C407 O408 1.216 . S
O408 C407 1.216 . S
H409 C404 0.930 . S
H410 C405 0.930 . S
O411 Cu391 1.959 . S
O411 C398 1.251 . S
H412 C395 0.930 . S
H413 C406 0.929 . S
C414 O415 1.306 1_455 S
C414 O417 1.160 . S
O415 C414 1.306 1_655 S
O415 Cd416 2.228 . S
Cd416 O415 2.228 . S
Cd416 O420 2.273 . S
Cd416 O424 2.277 1_655 S
O417 C414 1.160 . S
O417 Cd418 2.203 . S
Cd418 O417 2.203 . S
Cd418 O420 2.411 1_455 S
Cd418 O421 2.333 1_455 S
Cd418 O422 2.352 1_455 S
Cd418 O426 2.277 . S
Cd418 O427 2.356 . S
C419 O424 1.209 . S
C419 O426 1.226 . S
O420 Cd416 2.273 . S
O420 Cd418 2.411 1_655 S
O420 C423 1.320 . S
O421 Cd418 2.333 1_655 S
O421 C423 1.214 . S
O422 Cd418 2.352 1_655 S
O422 C425 1.258 1_655 S
C423 O420 1.320 . S
C423 O421 1.214 . S
O424 Cd416 2.277 1_455 S
O424 C419 1.209 . S
C425 O422 1.258 1_455 S
C425 O427 1.282 . S
O426 Cd418 2.277 . S
O426 C419 1.226 . S
O427 Cd418 2.356 . S
O427 C425 1.282 . S
C428 O429 1.306 . S
C428 O431 1.160 . S
O429 C428 1.306 . S
O429 Cd430 2.228 . S
Cd430 O429 2.228 . S
Cd430 O434 2.273 . S
Cd430 O438 2.277 . S
O431 C428 1.160 . S
O431 Cd432 2.203 . S
Cd432 O431 2.203 . S
Cd432 O434 2.411 . S
Cd432 O435 2.333 . S
Cd432 O436 2.352 . S
Cd432 O440 2.277 . S
Cd432 O441 2.356 . S
C433 O438 1.209 . S
C433 O440 1.226 . S
O434 Cd430 2.273 . S
O434 Cd432 2.411 . S
O434 C437 1.320 . S
O435 Cd432 2.333 . S
O435 C437 1.214 . S
O436 Cd432 2.352 . S
O436 C439 1.258 . S
C437 O434 1.320 . S
C437 O435 1.214 . S
O438 Cd430 2.277 . S
O438 C433 1.209 . S
C439 O436 1.258 . S
C439 O441 1.282 . S
O440 Cd432 2.277 . S
O440 C433 1.226 . S
O441 Cd432 2.356 . S
O441 C439 1.282 . S
C442 O443 1.306 . S
C442 O445 1.160 . S
O443 C442 1.306 . S
O443 Cd444 2.228 . S
Cd444 O443 2.228 . S
Cd444 O448 2.273 . S
Cd444 O452 2.277 . S
O445 C442 1.160 . S
O445 Cd446 2.203 . S
Cd446 O445 2.203 . S
Cd446 O448 2.411 . S
Cd446 O449 2.333 . S
Cd446 O450 2.352 . S
Cd446 O454 2.277 . S
Cd446 O455 2.356 . S
C447 O452 1.209 . S
C447 O454 1.226 . S
O448 Cd444 2.273 . S
O448 Cd446 2.411 . S
O448 C451 1.320 . S
O449 Cd446 2.333 . S
O449 C451 1.214 . S
O450 Cd446 2.352 . S
O450 C453 1.258 . S
C451 O448 1.320 . S
C451 O449 1.214 . S
O452 Cd444 2.277 . S
O452 C447 1.209 . S
C453 O450 1.258 . S
C453 O455 1.282 . S
O454 Cd446 2.277 . S
O454 C447 1.226 . S
O455 Cd446 2.356 . S
O455 C453 1.282 . S
C456 O457 1.306 . S
C456 O459 1.160 . S
O457 C456 1.306 . S
O457 Cd458 2.228 . S
Cd458 O457 2.228 . S
Cd458 O462 2.273 . S
Cd458 O466 2.277 1_455 S
O459 C456 1.160 . S
O459 Cd460 2.203 . S
Cd460 O459 2.203 . S
Cd460 O462 2.411 . S
Cd460 O463 2.333 . S
Cd460 O464 2.352 . S
Cd460 O468 2.277 1_455 S
Cd460 O469 2.356 1_455 S
C461 O466 1.209 . S
C461 O468 1.226 . S
O462 Cd458 2.273 . S
O462 Cd460 2.411 . S
O462 C465 1.320 . S
O463 Cd460 2.333 . S
O463 C465 1.214 . S
O464 Cd460 2.352 . S
O464 C467 1.258 . S
C465 O462 1.320 . S
C465 O463 1.214 . S
O466 Cd458 2.277 1_655 S
O466 C461 1.209 . S
C467 O464 1.258 . S
C467 O469 1.282 1_455 S
O468 Cd460 2.277 1_655 S
O468 C461 1.226 . S
O469 Cd460 2.356 1_655 S
O469 C467 1.282 1_655 S
C470 O471 1.306 . S
C470 O473 1.160 . S
O471 C470 1.306 . S
O471 Cd472 2.228 . S
Cd472 O471 2.228 . S
Cd472 O476 2.273 . S
Cd472 O480 2.277 . S
O473 C470 1.160 . S
O473 Cd474 2.203 . S
Cd474 O473 2.203 . S
Cd474 O476 2.411 . S
Cd474 O477 2.333 . S
Cd474 O478 2.352 . S
Cd474 O482 2.277 . S
Cd474 O483 2.356 . S
C475 O480 1.209 . S
C475 O482 1.226 . S
O476 Cd472 2.273 . S
O476 Cd474 2.411 . S
O476 C479 1.320 . S
O477 Cd474 2.333 . S
O477 C479 1.214 . S
O478 Cd474 2.352 . S
O478 C481 1.258 . S
C479 O476 1.320 . S
C479 O477 1.214 . S
O480 Cd472 2.277 . S
O480 C475 1.209 . S
C481 O478 1.258 . S
C481 O483 1.282 . S
O482 Cd474 2.277 . S
O482 C475 1.226 . S
O483 Cd474 2.356 . S
O483 C481 1.282 . S
C484 O485 1.306 . S
C484 O487 1.160 . S
O485 C484 1.306 . S
O485 Cd486 2.228 . S
Cd486 O485 2.228 . S
Cd486 O490 2.273 . S
Cd486 O494 2.277 . S
O487 C484 1.160 . S
O487 Cd488 2.203 . S
Cd488 O487 2.203 . S
Cd488 O490 2.411 . S
Cd488 O491 2.333 1_545 S
Cd488 O492 2.352 . S
Cd488 O496 2.277 1_545 S
Cd488 O497 2.356 1_545 S
C489 O494 1.209 1_565 S
C489 O496 1.226 . S
O490 Cd486 2.273 . S
O490 Cd488 2.411 . S
O490 C493 1.320 . S
O491 Cd488 2.333 1_565 S
O491 C493 1.214 1_565 S
O492 Cd488 2.352 . S
O492 C495 1.258 . S
C493 O490 1.320 . S
C493 O491 1.214 1_545 S
O494 Cd486 2.277 . S
O494 C489 1.209 1_545 S
C495 O492 1.258 . S
C495 O497 1.282 1_545 S
O496 Cd488 2.277 1_565 S
O496 C489 1.226 . S
O497 Cd488 2.356 1_565 S
O497 C495 1.282 1_565 S
C498 O499 1.306 . S
C498 O501 1.160 . S
O499 C498 1.306 . S
O499 Cd500 2.228 1_565 S
Cd500 O499 2.228 1_545 S
Cd500 O504 2.273 1_545 S
Cd500 O508 2.277 . S
O501 C498 1.160 . S
O501 Cd502 2.203 1_565 S
Cd502 O501 2.203 1_545 S
Cd502 O504 2.411 1_545 S
Cd502 O505 2.333 . S
Cd502 O506 2.352 1_545 S
Cd502 O510 2.277 . S
Cd502 O511 2.356 1_545 S
C503 O508 1.209 . S
C503 O510 1.226 . S
O504 Cd500 2.273 1_565 S
O504 Cd502 2.411 1_565 S
O504 C507 1.320 1_565 S
O505 Cd502 2.333 . S
O505 C507 1.214 . S
O506 Cd502 2.352 1_565 S
O506 C509 1.258 . S
C507 O504 1.320 1_545 S
C507 O505 1.214 . S
O508 Cd500 2.277 . S
O508 C503 1.209 . S
C509 O506 1.258 . S
C509 O511 1.282 . S
O510 Cd502 2.277 . S
O510 C503 1.226 . S
O511 Cd502 2.356 1_565 S
O511 C509 1.282 . S
C512 O513 1.306 . S
C512 O515 1.160 . S
O513 C512 1.306 . S
O513 Cd514 2.228 . S
Cd514 O513 2.228 . S
Cd514 O518 2.273 . S
Cd514 O522 2.277 . S
O515 C512 1.160 . S
O515 Cd516 2.203 . S
Cd516 O515 2.203 . S
Cd516 O518 2.411 . S
Cd516 O519 2.333 . S
Cd516 O520 2.352 . S
Cd516 O524 2.277 . S
Cd516 O525 2.356 . S
C517 O522 1.209 . S
C517 O524 1.226 . S
O518 Cd514 2.273 . S
O518 Cd516 2.411 . S
O518 C521 1.320 . S
O519 Cd516 2.333 . S
O519 C521 1.214 . S
O520 Cd516 2.352 . S
O520 C523 1.258 . S
C521 O518 1.320 . S
C521 O519 1.214 . S
O522 Cd514 2.277 . S
O522 C517 1.209 . S
C523 O520 1.258 . S
C523 O525 1.282 . S
O524 Cd516 2.277 . S
O524 C517 1.226 . S
O525 Cd516 2.356 . S
O525 C523 1.282 . S
C526 O527 1.306 . S
C526 O529 1.160 . S
O527 C526 1.306 . S
O527 Cd528 2.228 . S
Cd528 O527 2.228 . S
Cd528 O532 2.273 . S
Cd528 O536 2.277 . S
O529 C526 1.160 . S
O529 Cd530 2.203 . S
Cd530 O529 2.203 . S
Cd530 O532 2.411 . S
Cd530 O533 2.333 . S
Cd530 O534 2.352 . S
Cd530 O538 2.277 . S
Cd530 O539 2.356 . S
C531 O536 1.209 . S
C531 O538 1.226 . S
O532 Cd528 2.273 . S
O532 Cd530 2.411 . S
O532 C535 1.320 . S
O533 Cd530 2.333 . S
O533 C535 1.214 . S
O534 Cd530 2.352 . S
O534 C537 1.258 . S
C535 O532 1.320 . S
C535 O533 1.214 . S
O536 Cd528 2.277 . S
O536 C531 1.209 . S
C537 O534 1.258 . S
C537 O539 1.282 . S
O538 Cd530 2.277 . S
O538 C531 1.226 . S
O539 Cd530 2.356 . S
O539 C537 1.282 . S
C540 O541 1.306 . S
C540 O543 1.160 . S
O541 C540 1.306 . S
O541 Cd542 2.228 . S
Cd542 O541 2.228 . S
Cd542 O546 2.273 . S
Cd542 O550 2.277 . S
O543 C540 1.160 . S
O543 Cd544 2.203 . S
Cd544 O543 2.203 . S
Cd544 O546 2.411 . S
Cd544 O547 2.333 . S
Cd544 O548 2.352 . S
Cd544 O552 2.277 . S
Cd544 O553 2.356 . S
C545 O550 1.209 . S
C545 O552 1.226 . S
O546 Cd542 2.273 . S
O546 Cd544 2.411 . S
O546 C549 1.320 . S
O547 Cd544 2.333 . S
O547 C549 1.214 . S
O548 Cd544 2.352 . S
O548 C551 1.258 . S
C549 O546 1.320 . S
C549 O547 1.214 . S
O550 Cd542 2.277 . S
O550 C545 1.209 . S
C551 O548 1.258 . S
C551 O553 1.282 . S
O552 Cd544 2.277 . S
O552 C545 1.226 . S
O553 Cd544 2.356 . S
O553 C551 1.282 . S
C554 O555 1.315 . S
C554 O557 1.136 1_565 S
O555 C554 1.315 . S
O555 Cd556 2.242 . S
Cd556 O555 2.242 . S
Cd556 O560 2.283 . S
Cd556 O564 2.243 1_565 S
O557 C554 1.136 1_545 S
O557 Cd558 2.203 1_545 S
Cd558 O557 2.203 1_565 S
Cd558 O560 2.411 . S
Cd558 O561 2.333 . S
Cd558 O562 2.352 . S
Cd558 O566 2.277 1_565 S
Cd558 O567 2.356 . S
C559 O564 1.209 . S
C559 O566 1.226 . S
O560 Cd556 2.283 . S
O560 Cd558 2.411 . S
O560 C563 1.320 . S
O561 Cd558 2.333 . S
O561 C563 1.214 . S
O562 Cd558 2.352 . S
O562 C565 1.258 . S
C563 O560 1.320 . S
C563 O561 1.214 . S
O564 Cd556 2.243 1_545 S
O564 C559 1.209 . S
C565 O562 1.258 . S
C565 O567 1.282 . S
O566 Cd558 2.277 1_545 S
O566 C559 1.226 . S
O567 Cd558 2.356 . S
O567 C565 1.282 . S
C568 O569 1.306 . S
C568 O571 1.160 . S
O569 C568 1.306 . S
O569 Cd570 2.228 . S
Cd570 O569 2.228 . S
Cd570 O574 2.273 . S
Cd570 O578 2.277 . S
O571 C568 1.160 . S
O571 Cd572 2.203 . S
Cd572 O571 2.203 . S
Cd572 O574 2.411 . S
Cd572 O575 2.333 . S
Cd572 O576 2.352 . S
Cd572 O580 2.252 1_455 S
Cd572 O581 2.356 . S
C573 O578 1.209 1_655 S
C573 O580 1.243 . S
O574 Cd570 2.273 . S
O574 Cd572 2.411 . S
O574 C577 1.320 . S
O575 Cd572 2.333 . S
O575 C577 1.214 . S
O576 Cd572 2.352 . S
O576 C579 1.258 . S
C577 O574 1.320 . S
C577 O575 1.214 . S
O578 Cd570 2.277 . S
O578 C573 1.209 1_455 S
C579 O576 1.258 . S
C579 O581 1.282 . S
O580 Cd572 2.252 1_655 S
O580 C573 1.243 . S
O581 Cd572 2.356 . S
O581 C579 1.282 . S
C582 O583 1.306 . S
C582 O585 1.160 1_554 S
O583 C582 1.306 . S
O583 Cd584 2.228 . S
Cd584 O583 2.228 . S
Cd584 O588 2.273 1_554 S
Cd584 O592 2.277 1_554 S
O585 C582 1.160 1_556 S
O585 Cd586 2.203 . S
Cd586 O585 2.203 . S
Cd586 O588 2.411 . S
Cd586 O589 2.333 . S
Cd586 O590 2.352 . S
Cd586 O594 2.277 . S
Cd586 O595 2.356 . S
C587 O592 1.209 . S
C587 O594 1.226 . S
O588 Cd584 2.273 1_556 S
O588 Cd586 2.411 . S
O588 C591 1.320 . S
O589 Cd586 2.333 . S
O589 C591 1.214 . S
O590 Cd586 2.352 . S
O590 C593 1.258 . S
C591 O588 1.320 . S
C591 O589 1.214 . S
O592 Cd584 2.277 1_556 S
O592 C587 1.209 . S
C593 O590 1.258 . S
C593 O595 1.282 . S
O594 Cd586 2.277 . S
O594 C587 1.226 . S
O595 Cd586 2.356 . S
O595 C593 1.282 . S
C596 O597 1.306 . S
C596 O599 1.160 . S
O597 C596 1.306 . S
O597 Cd598 2.228 . S
Cd598 O597 2.228 . S
Cd598 O602 2.273 . S
Cd598 O606 2.277 . S
O599 C596 1.160 . S
O599 Cd600 2.203 . S
Cd600 O599 2.203 . S
Cd600 O602 2.411 . S
Cd600 O603 2.333 . S
Cd600 O604 2.352 . S
Cd600 O608 2.277 . S
Cd600 O609 2.356 . S
C601 O606 1.209 . S
C601 O608 1.226 . S
O602 Cd598 2.273 . S
O602 Cd600 2.411 . S
O602 C605 1.320 . S
O603 Cd600 2.333 . S
O603 C605 1.214 . S
O604 Cd600 2.352 . S
O604 C607 1.258 . S
C605 O602 1.320 . S
C605 O603 1.214 . S
O606 Cd598 2.277 . S
O606 C601 1.209 . S
C607 O604 1.258 . S
C607 O609 1.282 . S
O608 Cd600 2.277 . S
O608 C601 1.226 . S
O609 Cd600 2.356 . S
O609 C607 1.282 . S
C610 O611 1.306 . S
C610 O613 1.160 . S
O611 C610 1.306 . S
O611 Cd612 2.228 . S
Cd612 O611 2.228 . S
Cd612 O616 2.273 . S
Cd612 O620 2.277 1_655 S
O613 C610 1.160 . S
O613 Cd614 2.203 . S
Cd614 O613 2.203 . S
Cd614 O616 2.411 . S
Cd614 O617 2.333 . S
Cd614 O618 2.352 . S
Cd614 O622 2.277 1_655 S
Cd614 O623 2.356 . S
C615 O620 1.209 . S
C615 O622 1.226 . S
O616 Cd612 2.273 . S
O616 Cd614 2.411 . S
O616 C619 1.320 . S
O617 Cd614 2.333 . S
O617 C619 1.214 . S
O618 Cd614 2.352 . S
O618 C621 1.258 . S
C619 O616 1.320 . S
C619 O617 1.214 . S
O620 Cd612 2.277 1_455 S
O620 C615 1.209 . S
C621 O618 1.258 . S
C621 O623 1.282 . S
O622 Cd614 2.277 1_455 S
O622 C615 1.226 . S
O623 Cd614 2.356 . S
O623 C621 1.282 . S
C624 O625 1.306 . S
C624 O627 1.160 . S
O625 C624 1.306 . S
O625 Cd626 2.228 . S
Cd626 O625 2.228 . S
Cd626 O630 2.273 . S
Cd626 O634 2.277 . S
O627 C624 1.160 . S
O627 Cd628 2.203 . S
Cd628 O627 2.203 . S
Cd628 O630 2.411 . S
Cd628 O631 2.333 . S
Cd628 O632 2.352 . S
Cd628 O636 2.277 . S
Cd628 O637 2.356 . S
C629 O634 1.209 . S
C629 O636 1.226 . S
O630 Cd626 2.273 . S
O630 Cd628 2.411 . S
O630 C633 1.320 . S
O631 Cd628 2.333 . S
O631 C633 1.214 . S
O632 Cd628 2.352 . S
O632 C635 1.258 . S
C633 O630 1.320 . S
C633 O631 1.214 . S
O634 Cd626 2.277 . S
O634 C629 1.209 . S
C635 O632 1.258 . S
C635 O637 1.282 . S
O636 Cd628 2.277 . S
O636 C629 1.226 . S
O637 Cd628 2.356 . S
O637 C635 1.282 . S
C638 O639 1.306 . S
C638 O641 1.160 . S
O639 C638 1.306 . S
O639 Cd640 2.228 . S
Cd640 O639 2.228 . S
Cd640 O644 2.273 1_455 S
Cd640 O648 2.284 . S
O641 C638 1.160 . S
O641 Cd642 2.203 1_455 S
Cd642 O641 2.203 1_655 S
Cd642 O644 2.411 . S
Cd642 O645 2.333 . S
Cd642 O646 2.352 . S
Cd642 O650 2.277 . S
Cd642 O651 2.356 . S
C643 O648 1.202 1_655 S
C643 O650 1.226 . S
O644 Cd640 2.273 1_655 S
O644 Cd642 2.411 . S
O644 C647 1.320 . S
O645 Cd642 2.333 . S
O645 C647 1.214 . S
O646 Cd642 2.352 . S
O646 C649 1.258 . S
C647 O644 1.320 . S
C647 O645 1.214 . S
O648 Cd640 2.284 . S
O648 C643 1.202 1_455 S
C649 O646 1.258 . S
C649 O651 1.282 . S
O650 Cd642 2.277 . S
O650 C643 1.226 . S
O651 Cd642 2.356 . S
O651 C649 1.282 . S
C652 O653 1.306 . S
C652 O655 1.160 . S
O653 C652 1.306 . S
O653 Cd654 2.228 . S
Cd654 O653 2.228 . S
Cd654 O658 2.273 . S
Cd654 O662 2.277 . S
O655 C652 1.160 . S
O655 Cd656 2.203 . S
Cd656 O655 2.203 . S
Cd656 O658 2.411 . S
Cd656 O659 2.333 . S
Cd656 O660 2.352 . S
Cd656 O664 2.277 . S
Cd656 O665 2.356 . S
C657 O662 1.209 . S
C657 O664 1.226 . S
O658 Cd654 2.273 . S
O658 Cd656 2.411 . S
O658 C661 1.320 . S
O659 Cd656 2.333 . S
O659 C661 1.214 . S
O660 Cd656 2.352 . S
O660 C663 1.258 . S
C661 O658 1.320 . S
C661 O659 1.214 . S
O662 Cd654 2.277 . S
O662 C657 1.209 . S
C663 O660 1.258 . S
C663 O665 1.282 . S
O664 Cd656 2.277 . S
O664 C657 1.226 . S
O665 Cd656 2.356 . S
O665 C663 1.282 . S
C666 C667 1.363 . S
C666 C672 1.379 . S
C666 N674 1.356 . S
C667 C666 1.363 . S
C667 C673 1.363 . S
C668 C669 1.363 . S
C668 C673 1.379 . S
C668 N675 1.356 . S
C669 C668 1.363 . S
C669 C672 1.363 . S
N670 C672 1.356 . S
N670 H682 0.987 1_455 S
N670 H683 0.983 . S
N671 C673 1.356 . S
N671 H676 0.984 . S
N671 H677 0.985 . S
C672 C666 1.379 . S
C672 C669 1.363 . S
C672 N670 1.356 . S
C673 C667 1.363 . S
C673 C668 1.379 . S
C673 N671 1.356 . S
N674 C666 1.356 . S
N674 H680 0.984 1_455 S
N674 H681 0.984 . S
N675 C668 1.356 . S
N675 H678 0.984 . S
N675 H679 0.985 . S
H676 N671 0.984 . S
H677 N671 0.985 . S
H678 N675 0.984 . S
H679 N675 0.985 . S
H680 N674 0.984 1_655 S
H681 N674 0.984 . S
H682 N670 0.987 1_655 S
H683 N670 0.983 . S
C684 C685 1.363 . S
C684 C690 1.379 . S
C684 N692 1.356 . S
C685 C684 1.363 . S
C685 C691 1.363 . S
C686 C687 1.363 . S
C686 C691 1.379 . S
C686 N693 1.356 . S
C687 C686 1.363 . S
C687 C690 1.363 . S
N688 C690 1.356 . S
N688 H700 0.984 . S
N688 H701 0.985 . S
N689 C691 1.356 . S
N689 H694 0.984 . S
N689 H695 0.985 . S
C690 C684 1.379 . S
C690 C687 1.363 . S
C690 N688 1.356 . S
C691 C685 1.363 . S
C691 C686 1.379 . S
C691 N689 1.356 . S
N692 C684 1.356 . S
N692 H698 1.000 . S
N692 H699 0.984 . S
N693 C686 1.356 . S
N693 H696 0.984 . S
N693 H697 0.985 . S
H694 N689 0.984 . S
H695 N689 0.985 . S
H696 N693 0.984 . S
H697 N693 0.985 . S
H698 N692 1.000 . S
H699 N692 0.984 . S
H700 N688 0.984 . S
H701 N688 0.985 . S
C702 C703 1.363 . S
C702 C708 1.379 . S
C702 N710 1.356 . S
C703 C702 1.363 . S
C703 C709 1.363 1_545 S
C704 C705 1.352 1_565 S
C704 C709 1.379 . S
C704 N711 1.356 . S
C705 C704 1.352 1_545 S
C705 C708 1.366 . S
N706 C708 1.356 . S
N706 H718 0.984 . S
N706 H719 0.985 . S
N707 C709 1.356 . S
N707 H712 0.984 . S
N707 H713 0.985 . S
C708 C702 1.379 . S
C708 C705 1.366 . S
C708 N706 1.356 . S
C709 C703 1.363 1_565 S
C709 C704 1.379 . S
C709 N707 1.356 . S
N710 C702 1.356 . S
N710 H716 0.984 . S
N710 H717 0.984 . S
N711 C704 1.356 . S
N711 H714 0.984 . S
N711 H715 0.985 . S
H712 N707 0.984 . S
H713 N707 0.985 . S
H714 N711 0.984 . S
H715 N711 0.985 . S
H716 N710 0.984 . S
H717 N710 0.984 . S
H718 N706 0.984 . S
H719 N706 0.985 . S
C720 C721 1.363 . S
C720 C726 1.379 . S
C720 N728 1.356 . S
C721 C720 1.363 . S
C721 C727 1.363 . S
C722 C723 1.363 . S
C722 C727 1.379 . S
C722 N729 1.356 . S
C723 C722 1.363 . S
C723 C726 1.363 . S
N724 C726 1.356 . S
N724 H736 0.984 . S
N724 H737 0.985 . S
N725 C727 1.356 . S
N725 H730 0.984 . S
N725 H731 0.985 . S
C726 C720 1.379 . S
C726 C723 1.363 . S
C726 N724 1.356 . S
C727 C721 1.363 . S
C727 C722 1.379 . S
C727 N725 1.356 . S
N728 C720 1.356 . S
N728 H734 0.984 . S
N728 H735 0.984 . S
N729 C722 1.356 . S
N729 H732 0.984 . S
N729 H733 0.985 . S
H730 N725 0.984 . S
H731 N725 0.985 . S
H732 N729 0.984 . S
H733 N729 0.985 . S
H734 N728 0.984 . S
H735 N728 0.984 . S
H736 N724 0.984 . S
H737 N724 0.985 . S
C738 C739 1.363 . S
C738 C744 1.379 . S
C738 N746 1.356 . S
C739 C738 1.363 . S
C739 C745 1.363 . S
C740 C741 1.363 . S
C740 C745 1.379 . S
C740 N747 1.356 1_455 S
C741 C740 1.363 . S
C741 C744 1.363 . S
N742 C744 1.356 . S
N742 H754 0.984 . S
N742 H755 0.985 . S
N743 C745 1.356 . S
N743 H748 0.984 . S
N743 H749 0.985 . S
C744 C738 1.379 . S
C744 C741 1.363 . S
C744 N742 1.356 . S
C745 C739 1.363 . S
C745 C740 1.379 . S
C745 N743 1.356 . S
N746 C738 1.356 . S
N746 H752 0.984 . S
N746 H753 0.984 . S
N747 C740 1.356 1_655 S
N747 H750 0.984 . S
N747 H751 0.985 . S
H748 N743 0.984 . S
H749 N743 0.985 . S
H750 N747 0.984 . S
H751 N747 0.985 . S
H752 N746 0.984 . S
H753 N746 0.984 . S
H754 N742 0.984 . S
H755 N742 0.985 . S
C756 C757 1.363 . S
C756 C762 1.379 . S
C756 N764 1.356 . S
C757 C756 1.363 . S
C757 C763 1.363 . S
C758 C759 1.363 . S
C758 C763 1.379 . S
C758 N765 1.356 . S
C759 C758 1.363 . S
C759 C762 1.363 . S
N760 C762 1.356 . S
N760 H772 0.984 . S
N760 H773 0.985 . S
N761 C763 1.356 . S
N761 H766 0.984 . S
N761 H767 0.985 . S
C762 C756 1.379 . S
C762 C759 1.363 . S
C762 N760 1.356 . S
C763 C757 1.363 . S
C763 C758 1.379 . S
C763 N761 1.356 . S
N764 C756 1.356 . S
N764 H770 0.984 . S
N764 H771 0.984 . S
N765 C758 1.356 . S
N765 H768 0.984 . S
N765 H769 0.985 . S
H766 N761 0.984 . S
H767 N761 0.985 . S
H768 N765 0.984 . S
H769 N765 0.985 . S
H770 N764 0.984 . S
H771 N764 0.984 . S
H772 N760 0.984 . S
H773 N760 0.985 . S
C774 C775 1.363 1_655 S
C774 C780 1.379 . S
C774 N782 1.356 1_556 S
C775 C774 1.363 1_455 S
C775 C781 1.363 . S
C776 C777 1.363 . S
C776 C781 1.379 . S
C776 N783 1.356 . S
C777 C776 1.363 . S
C777 C780 1.363 1_455 S
N778 C780 1.356 . S
N778 H790 0.984 . S
N778 H791 0.985 . S
N779 C781 1.356 . S
N779 H784 0.984 . S
N779 H785 0.985 . S
C780 C774 1.379 . S
C780 C777 1.363 1_655 S
C780 N778 1.356 . S
C781 C775 1.363 . S
C781 C776 1.379 . S
C781 N779 1.356 . S
N782 C774 1.356 1_554 S
N782 H788 0.984 . S
N782 H789 0.984 . S
N783 C776 1.356 . S
N783 H786 0.984 . S
N783 H787 0.985 . S
H784 N779 0.984 . S
H785 N779 0.985 . S
H786 N783 0.984 . S
H787 N783 0.985 . S
H788 N782 0.984 . S
H789 N782 0.984 . S
H790 N778 0.984 . S
H791 N778 0.985 . S
C792 C793 1.363 . S
C792 C798 1.379 . S
C792 N800 1.356 . S
C793 C792 1.363 . S
C793 C799 1.363 1_556 S
C794 C795 1.363 1_554 S
C794 C799 1.379 . S
C794 N801 1.356 . S
C795 C794 1.363 1_556 S
C795 C798 1.363 . S
N796 C798 1.356 . S
N796 H808 0.984 . S
N796 H809 0.985 . S
N797 C799 1.356 . S
N797 H802 0.984 . S
N797 H803 0.985 . S
C798 C792 1.379 . S
C798 C795 1.363 . S
C798 N796 1.356 . S
C799 C793 1.363 1_554 S
C799 C794 1.379 . S
C799 N797 1.356 . S
N800 C792 1.356 . S
N800 H806 0.984 . S
N800 H807 0.984 . S
N801 C794 1.356 . S
N801 H804 0.984 . S
N801 H805 0.985 . S
H802 N797 0.984 . S
H803 N797 0.985 . S
H804 N801 0.984 . S
H805 N801 0.985 . S
H806 N800 0.984 . S
H807 N800 0.984 . S
H808 N796 0.984 . S
H809 N796 0.985 . S
C810 C811 1.363 . S
C810 C816 1.379 . S
C810 N818 1.356 1_556 S
C811 C810 1.363 . S
C811 C817 1.363 . S
C812 C813 1.363 . S
C812 C817 1.379 . S
C812 N819 1.356 . S
C813 C812 1.363 . S
C813 C816 1.363 . S
N814 C816 1.356 . S
N814 H826 0.984 . S
N814 H827 0.985 . S
N815 C817 1.356 . S
N815 H820 0.971 . S
N815 H821 0.985 1_545 S
C816 C810 1.379 . S
C816 C813 1.363 . S
C816 N814 1.356 . S
C817 C811 1.363 . S
C817 C812 1.379 . S
C817 N815 1.356 . S
N818 C810 1.356 1_554 S
N818 H824 0.984 . S
N818 H825 0.984 . S
N819 C812 1.356 . S
N819 H822 0.984 . S
N819 H823 0.985 . S
H820 N815 0.971 . S
H821 N815 0.985 1_565 S
H822 N819 0.984 . S
H823 N819 0.985 . S
H824 N818 0.984 . S
H825 N818 0.984 . S
H826 N814 0.984 . S
H827 N814 0.985 . S
C828 C829 1.363 . S
C828 C834 1.379 . S
C828 N836 1.356 . S
C829 C828 1.363 . S
C829 C835 1.363 1_565 S
C830 C831 1.363 . S
C830 C835 1.379 . S
C830 N837 1.356 . S
C831 C830 1.363 . S
C831 C834 1.363 1_545 S
N832 C834 1.356 . S
N832 H844 0.984 . S
N832 H845 0.987 1_565 S
N833 C835 1.356 . S
N833 H838 0.981 . S
N833 H839 0.985 . S
C834 C828 1.379 . S
C834 C831 1.363 1_565 S
C834 N832 1.356 . S
C835 C829 1.363 1_545 S
C835 C830 1.379 . S
C835 N833 1.356 . S
N836 C828 1.356 . S
N836 H842 0.984 . S
N836 H843 0.984 . S
N837 C830 1.356 . S
N837 H840 0.984 . S
N837 H841 0.985 . S
H838 N833 0.981 . S
H839 N833 0.985 . S
H840 N837 0.984 . S
H841 N837 0.985 . S
H842 N836 0.984 . S
H843 N836 0.984 . S
H844 N832 0.984 . S
H845 N832 0.987 1_545 S
C846 C847 1.363 . S
C846 C852 1.379 . S
C846 N854 1.356 . S
C847 C846 1.363 . S
C847 C853 1.363 . S
C848 C849 1.363 . S
C848 C853 1.379 . S
C848 N855 1.356 . S
C849 C848 1.363 . S
C849 C852 1.363 . S
N850 C852 1.356 . S
N850 H862 0.984 . S
N850 H863 0.985 . S
N851 C853 1.356 . S
N851 H856 0.984 . S
N851 H857 0.985 . S
C852 C846 1.379 . S
C852 C849 1.363 . S
C852 N850 1.356 . S
C853 C847 1.363 . S
C853 C848 1.379 . S
C853 N851 1.356 . S
N854 C846 1.356 . S
N854 H860 0.984 . S
N854 H861 0.984 . S
N855 C848 1.356 . S
N855 H858 0.984 . S
N855 H859 0.985 . S
H856 N851 0.984 . S
H857 N851 0.985 . S
H858 N855 0.984 . S
H859 N855 0.985 . S
H860 N854 0.984 . S
H861 N854 0.984 . S
H862 N850 0.984 . S
H863 N850 0.985 . S
C864 C865 1.363 . S
C864 C870 1.379 . S
C864 N872 1.356 . S
C865 C864 1.363 . S
C865 C871 1.363 . S
C866 C867 1.363 . S
C866 C871 1.379 . S
C866 N873 1.356 . S
C867 C866 1.363 . S
C867 C870 1.363 . S
N868 C870 1.356 . S
N868 H880 0.984 . S
N868 H881 0.985 . S
N869 C871 1.356 . S
N869 H874 0.984 . S
N869 H875 0.985 . S
C870 C864 1.379 . S
C870 C867 1.363 . S
C870 N868 1.356 . S
C871 C865 1.363 . S
C871 C866 1.379 . S
C871 N869 1.356 . S
N872 C864 1.356 . S
N872 H878 0.984 . S
N872 H879 0.984 . S
N873 C866 1.356 . S
N873 H876 0.984 . S
N873 H877 0.985 . S
H874 N869 0.984 . S
H875 N869 0.985 . S
H876 N873 0.984 . S
H877 N873 0.985 . S
H878 N872 0.984 . S
H879 N872 0.984 . S
H880 N868 0.984 . S
H881 N868 0.985 . S
C882 C883 1.363 . S
C882 C888 1.379 . S
C882 N890 1.356 . S
C883 C882 1.363 . S
C883 C889 1.363 . S
C884 C885 1.363 . S
C884 C889 1.379 . S
C884 N891 1.356 . S
C885 C884 1.363 . S
C885 C888 1.363 . S
N886 C888 1.356 . S
N886 H898 0.984 . S
N886 H899 0.985 . S
N887 C889 1.356 . S
N887 H892 0.984 . S
N887 H893 0.985 . S
C888 C882 1.379 . S
C888 C885 1.363 . S
C888 N886 1.356 . S
C889 C883 1.363 . S
C889 C884 1.379 . S
C889 N887 1.356 . S
N890 C882 1.356 . S
N890 H896 0.984 . S
N890 H897 0.984 . S
N891 C884 1.356 . S
N891 H894 0.984 . S
N891 H895 0.985 . S
H892 N887 0.984 . S
H893 N887 0.985 . S
H894 N891 0.984 . S
H895 N891 0.985 . S
H896 N890 0.984 . S
H897 N890 0.984 . S
H898 N886 0.984 . S
H899 N886 0.985 . S
C900 C901 1.363 1_545 S
C900 C906 1.379 . S
C900 N908 1.356 . S
C901 C900 1.363 1_565 S
C901 C907 1.363 . S
C902 C903 1.363 . S
C902 C907 1.379 1_545 S
C902 N909 1.356 . S
C903 C902 1.363 . S
C903 C906 1.363 . S
N904 C906 1.356 . S
N904 H916 0.984 . S
N904 H917 0.985 . S
N905 C907 1.356 . S
N905 H910 0.984 . S
N905 H911 0.985 . S
C906 C900 1.379 . S
C906 C903 1.363 . S
C906 N904 1.356 . S
C907 C901 1.363 . S
C907 C902 1.379 1_565 S
C907 N905 1.356 . S
N908 C900 1.356 . S
N908 H914 0.984 . S
N908 H915 0.984 1_545 S
N909 C902 1.356 . S
N909 H912 0.984 . S
N909 H913 0.985 . S
H910 N905 0.984 . S
H911 N905 0.985 . S
H912 N909 0.984 . S
H913 N909 0.985 . S
H914 N908 0.984 . S
H915 N908 0.984 1_565 S
H916 N904 0.984 . S
H917 N904 0.985 . S
C918 C919 1.363 . S
C918 C924 1.379 . S
C918 N926 1.356 . S
C919 C918 1.363 . S
C919 C925 1.363 . S
C920 C921 1.363 . S
C920 C925 1.379 . S
C920 N927 1.356 . S
C921 C920 1.363 . S
C921 C924 1.363 . S
N922 C924 1.356 . S
N922 H934 0.984 . S
N922 H935 0.985 . S
N923 C925 1.356 . S
N923 H928 0.984 . S
N923 H929 0.985 . S
C924 C918 1.379 . S
C924 C921 1.363 . S
C924 N922 1.356 . S
C925 C919 1.363 . S
C925 C920 1.379 . S
C925 N923 1.356 . S
N926 C918 1.356 . S
N926 H932 0.984 . S
N926 H933 0.984 . S
N927 C920 1.356 . S
N927 H930 0.984 . S
N927 H931 0.985 . S
H928 N923 0.984 . S
H929 N923 0.985 . S
H930 N927 0.984 . S
H931 N927 0.985 . S
H932 N926 0.984 . S
H933 N926 0.984 . S
H934 N922 0.984 . S
H935 N922 0.985 . S
C936 C937 1.363 . S
C936 C942 1.379 . S
C936 N944 1.356 . S
C937 C936 1.363 . S
C937 C943 1.363 . S
C938 C939 1.363 . S
C938 C943 1.379 . S
C938 N945 1.356 . S
C939 C938 1.363 . S
C939 C942 1.363 . S
N940 C942 1.356 . S
N940 H952 0.984 . S
N940 H953 0.985 . S
N941 C943 1.356 . S
N941 H946 0.984 . S
N941 H947 0.985 . S
C942 C936 1.379 . S
C942 C939 1.363 . S
C942 N940 1.356 . S
C943 C937 1.363 . S
C943 C938 1.379 . S
C943 N941 1.356 . S
N944 C936 1.356 . S
N944 H950 0.984 . S
N944 H951 0.984 . S
N945 C938 1.356 . S
N945 H948 0.984 . S
N945 H949 0.985 . S
H946 N941 0.984 . S
H947 N941 0.985 . S
H948 N945 0.984 . S
H949 N945 0.985 . S
H950 N944 0.984 . S
H951 N944 0.984 . S
H952 N940 0.984 . S
H953 N940 0.985 . S
C954 C955 1.363 . S
C954 C960 1.379 . S
C954 N962 1.356 . S
C955 C954 1.363 . S
C955 C961 1.363 . S
C956 C957 1.363 . S
C956 C961 1.379 . S
C956 N963 1.356 . S
C957 C956 1.363 . S
C957 C960 1.363 . S
N958 C960 1.356 . S
N958 H970 0.984 . S
N958 H971 0.985 . S
N959 C961 1.356 . S
N959 H964 0.984 . S
N959 H965 0.985 . S
C960 C954 1.379 . S
C960 C957 1.363 . S
C960 N958 1.356 . S
C961 C955 1.363 . S
C961 C956 1.379 . S
C961 N959 1.356 . S
N962 C954 1.356 . S
N962 H968 0.984 . S
N962 H969 0.984 . S
N963 C956 1.356 . S
N963 H966 0.984 . S
N963 H967 0.985 . S
H964 N959 0.984 . S
H965 N959 0.985 . S
H966 N963 0.984 . S
H967 N963 0.985 . S
H968 N962 0.984 . S
H969 N962 0.984 . S
H970 N958 0.984 . S
H971 N958 0.985 . S
C972 C973 1.363 . S
C972 C978 1.379 . S
C972 N980 1.356 . S
C973 C972 1.363 . S
C973 C979 1.363 . S
C974 C975 1.363 . S
C974 C979 1.379 . S
C974 N981 1.356 . S
C975 C974 1.363 . S
C975 C978 1.363 . S
N976 C978 1.356 . S
N976 H988 0.984 . S
N976 H989 0.985 . S
N977 C979 1.356 . S
N977 H982 0.984 . S
N977 H983 0.985 . S
C978 C972 1.379 . S
C978 C975 1.363 . S
C978 N976 1.356 . S
C979 C973 1.363 . S
C979 C974 1.379 . S
C979 N977 1.356 . S
N980 C972 1.356 . S
N980 H986 0.984 . S
N980 H987 0.984 . S
N981 C974 1.356 . S
N981 H984 0.984 . S
N981 H985 0.985 . S
H982 N977 0.984 . S
H983 N977 0.985 . S
H984 N981 0.984 . S
H985 N981 0.985 . S
H986 N980 0.984 . S
H987 N980 0.984 . S
H988 N976 0.984 . S
H989 N976 0.985 . S
C990 C991 1.363 . S
C990 C996 1.379 1_565 S
C990 N998 1.356 . S
C991 C990 1.363 . S
C991 C997 1.363 . S
C992 C993 1.381 . S
C992 C997 1.348 1_545 S
C992 N999 1.379 . S
C993 C992 1.381 . S
C993 C996 1.363 . S
N994 C996 1.356 . S
N994 H1006 0.984 . S
N994 H1007 0.985 . S
N995 C997 1.356 . S
N995 H1000 0.984 . S
N995 H1001 0.985 . S
C996 C990 1.379 1_545 S
C996 C993 1.363 . S
C996 N994 1.356 . S
C997 C991 1.363 . S
C997 C992 1.348 1_565 S
C997 N995 1.356 . S
N998 C990 1.356 . S
N998 H1004 0.984 . S
N998 H1005 0.984 . S
N999 C992 1.379 . S
N999 H1002 0.984 . S
N999 H1003 0.982 1_545 S
H1000 N995 0.984 . S
H1001 N995 0.985 . S
H1002 N999 0.984 . S
H1003 N999 0.982 1_565 S
H1004 N998 0.984 . S
H1005 N998 0.984 . S
H1006 N994 0.984 . S
H1007 N994 0.985 . S
C1008 C1009 1.363 . S
C1008 C1014 1.379 . S
C1008 N1016 1.356 . S
C1009 C1008 1.363 . S
C1009 C1015 1.363 . S
C1010 C1011 1.363 . S
C1010 C1015 1.379 . S
C1010 N1017 1.356 . S
C1011 C1010 1.363 . S
C1011 C1014 1.363 . S
N1012 C1014 1.356 . S
N1012 H1024 0.984 . S
N1012 H1025 0.985 . S
N1013 C1015 1.356 . S
N1013 H1018 0.984 . S
N1013 H1019 0.985 . S
C1014 C1008 1.379 . S
C1014 C1011 1.363 . S
C1014 N1012 1.356 . S
C1015 C1009 1.363 . S
C1015 C1010 1.379 . S
C1015 N1013 1.356 . S
N1016 C1008 1.356 . S
N1016 H1022 0.984 . S
N1016 H1023 0.984 . S
N1017 C1010 1.356 . S
N1017 H1020 0.984 . S
N1017 H1021 0.985 . S
H1018 N1013 0.984 . S
H1019 N1013 0.985 . S
H1020 N1017 0.984 . S
H1021 N1017 0.985 . S
H1022 N1016 0.984 . S
H1023 N1016 0.984 . S
H1024 N1012 0.984 . S
H1025 N1012 0.985 . S
C1026 C1027 1.363 . S
C1026 C1032 1.379 . S
C1026 N1034 1.356 . S
C1027 C1026 1.363 . S
C1027 C1033 1.363 . S
C1028 C1029 1.363 . S
C1028 C1033 1.379 . S
C1028 N1035 1.356 . S
C1029 C1028 1.363 . S
C1029 C1032 1.363 . S
N1030 C1032 1.356 . S
N1030 H1042 0.984 . S
N1030 H1043 0.985 . S
N1031 C1033 1.356 . S
N1031 H1036 0.984 . S
N1031 H1037 0.985 . S
C1032 C1026 1.379 . S
C1032 C1029 1.363 . S
C1032 N1030 1.356 . S
C1033 C1027 1.363 . S
C1033 C1028 1.379 . S
C1033 N1031 1.356 . S
N1034 C1026 1.356 . S
N1034 H1040 0.984 . S
N1034 H1041 0.984 . S
N1035 C1028 1.356 . S
N1035 H1038 0.984 . S
N1035 H1039 0.985 . S
H1036 N1031 0.984 . S
H1037 N1031 0.985 . S
H1038 N1035 0.984 . S
H1039 N1035 0.985 . S
H1040 N1034 0.984 . S
H1041 N1034 0.984 . S
H1042 N1030 0.984 . S
H1043 N1030 0.985 . S
C1044 C1045 1.363 . S
C1044 C1050 1.379 . S
C1044 N1052 1.356 . S
C1045 C1044 1.363 . S
C1045 C1051 1.363 . S
C1046 C1047 1.363 . S
C1046 C1051 1.379 . S
C1046 N1053 1.356 . S
C1047 C1046 1.363 . S
C1047 C1050 1.363 . S
N1048 C1050 1.356 . S
N1048 H1060 0.984 . S
N1048 H1061 0.985 . S
N1049 C1051 1.356 . S
N1049 H1054 0.984 . S
N1049 H1055 0.985 . S
C1050 C1044 1.379 . S
C1050 C1047 1.363 . S
C1050 N1048 1.356 . S
C1051 C1045 1.363 . S
C1051 C1046 1.379 . S
C1051 N1049 1.356 . S
N1052 C1044 1.356 . S
N1052 H1058 0.984 . S
N1052 H1059 0.984 . S
N1053 C1046 1.356 . S
N1053 H1056 0.984 . S
N1053 H1057 0.985 . S
H1054 N1049 0.984 . S
H1055 N1049 0.985 . S
H1056 N1053 0.984 . S
H1057 N1053 0.985 . S
H1058 N1052 0.984 . S
H1059 N1052 0.984 . S
H1060 N1048 0.984 . S
H1061 N1048 0.985 . S
C1062 C1063 1.363 1_545 S
C1062 C1068 1.379 . S
C1062 N1070 1.356 . S
C1063 C1062 1.363 1_565 S
C1063 C1069 1.363 . S
C1064 C1065 1.394 . S
C1064 C1069 1.346 1_545 S
C1064 N1071 1.370 . S
C1065 C1064 1.394 . S
C1065 C1068 1.363 . S
N1066 C1068 1.356 . S
N1066 H1078 0.984 . S
N1066 H1079 0.985 . S
N1067 C1069 1.356 . S
N1067 H1072 0.984 . S
N1067 H1073 0.985 . S
C1068 C1062 1.379 . S
C1068 C1065 1.363 . S
C1068 N1066 1.356 . S
C1069 C1063 1.363 . S
C1069 C1064 1.346 1_565 S
C1069 N1067 1.356 . S
N1070 C1062 1.356 . S
N1070 H1076 0.984 . S
N1070 H1077 0.984 . S
N1071 C1064 1.370 . S
N1071 H1074 0.985 . S
N1071 H1075 0.984 1_545 S
H1072 N1067 0.984 . S
H1073 N1067 0.985 . S
H1074 N1071 0.985 . S
H1075 N1071 0.984 1_565 S
H1076 N1070 0.984 . S
H1077 N1070 0.984 . S
H1078 N1066 0.984 . S
H1079 N1066 0.985 . S
C1080 C1081 1.363 . S
C1080 C1086 1.379 . S
C1080 N1088 1.356 . S
C1081 C1080 1.363 . S
C1081 C1087 1.363 . S
C1082 C1083 1.363 . S
C1082 C1087 1.379 . S
C1082 N1089 1.356 . S
C1083 C1082 1.363 . S
C1083 C1086 1.363 . S
N1084 C1086 1.356 . S
N1084 H1096 0.984 . S
N1084 H1097 0.985 . S
N1085 C1087 1.356 . S
N1085 H1090 0.984 . S
N1085 H1091 0.985 . S
C1086 C1080 1.379 . S
C1086 C1083 1.363 . S
C1086 N1084 1.356 . S
C1087 C1081 1.363 . S
C1087 C1082 1.379 . S
C1087 N1085 1.356 . S
N1088 C1080 1.356 . S
N1088 H1094 0.984 . S
N1088 H1095 0.984 . S
N1089 C1082 1.356 . S
N1089 H1092 0.984 . S
N1089 H1093 0.985 . S
H1090 N1085 0.984 . S
H1091 N1085 0.985 . S
H1092 N1089 0.984 . S
H1093 N1089 0.985 . S
H1094 N1088 0.984 . S
H1095 N1088 0.984 . S
H1096 N1084 0.984 . S
H1097 N1084 0.985 . S
C1098 C1099 1.363 . S
C1098 C1104 1.379 . S
C1098 N1106 1.356 . S
C1099 C1098 1.363 . S
C1099 C1105 1.363 . S
C1100 C1101 1.363 . S
C1100 C1105 1.379 . S
C1100 N1107 1.356 . S
C1101 C1100 1.363 . S
C1101 C1104 1.363 . S
N1102 C1104 1.356 . S
N1102 H1114 0.984 . S
N1102 H1115 0.985 . S
N1103 C1105 1.356 . S
N1103 H1108 0.984 . S
N1103 H1109 0.985 . S
C1104 C1098 1.379 . S
C1104 C1101 1.363 . S
C1104 N1102 1.356 . S
C1105 C1099 1.363 . S
C1105 C1100 1.379 . S
C1105 N1103 1.356 . S
N1106 C1098 1.356 . S
N1106 H1112 0.984 . S
N1106 H1113 0.984 . S
N1107 C1100 1.356 . S
N1107 H1110 0.984 . S
N1107 H1111 0.985 . S
H1108 N1103 0.984 . S
H1109 N1103 0.985 . S
H1110 N1107 0.984 . S
H1111 N1107 0.985 . S
H1112 N1106 0.984 . S
H1113 N1106 0.984 . S
H1114 N1102 0.984 . S
H1115 N1102 0.985 . S
C1116 C1117 1.363 . S
C1116 C1122 1.379 . S
C1116 N1124 1.356 . S
C1117 C1116 1.363 . S
C1117 C1123 1.363 . S
C1118 C1119 1.363 . S
C1118 C1123 1.379 . S
C1118 N1125 1.356 . S
C1119 C1118 1.363 . S
C1119 C1122 1.363 . S
N1120 C1122 1.356 . S
N1120 H1132 0.984 . S
N1120 H1133 0.985 . S
N1121 C1123 1.356 . S
N1121 H1126 0.984 . S
N1121 H1127 0.985 . S
C1122 C1116 1.379 . S
C1122 C1119 1.363 . S
C1122 N1120 1.356 . S
C1123 C1117 1.363 . S
C1123 C1118 1.379 . S
C1123 N1121 1.356 . S
N1124 C1116 1.356 . S
N1124 H1130 0.984 . S
N1124 H1131 0.984 . S
N1125 C1118 1.356 . S
N1125 H1128 0.984 . S
N1125 H1129 0.985 . S
H1126 N1121 0.984 . S
H1127 N1121 0.985 . S
H1128 N1125 0.984 . S
H1129 N1125 0.985 . S
H1130 N1124 0.984 . S
H1131 N1124 0.984 . S
H1132 N1120 0.984 . S
H1133 N1120 0.985 . S
C1134 C1135 1.363 . S
C1134 C1140 1.379 . S
C1134 N1142 1.356 . S
C1135 C1134 1.363 . S
C1135 C1141 1.363 . S
C1136 C1137 1.363 . S
C1136 C1141 1.379 . S
C1136 N1143 1.356 . S
C1137 C1136 1.363 . S
C1137 C1140 1.363 . S
N1138 C1140 1.356 . S
N1138 H1150 0.984 . S
N1138 H1151 0.985 . S
N1139 C1141 1.356 . S
N1139 H1144 0.984 . S
N1139 H1145 0.985 . S
C1140 C1134 1.379 . S
C1140 C1137 1.363 . S
C1140 N1138 1.356 . S
C1141 C1135 1.363 . S
C1141 C1136 1.379 . S
C1141 N1139 1.356 . S
N1142 C1134 1.356 . S
N1142 H1148 0.984 . S
N1142 H1149 0.984 . S
N1143 C1136 1.356 . S
N1143 H1146 0.984 . S
N1143 H1147 0.985 . S
H1144 N1139 0.984 . S
H1145 N1139 0.985 . S
H1146 N1143 0.984 . S
H1147 N1143 0.985 . S
H1148 N1142 0.984 . S
H1149 N1142 0.984 . S
H1150 N1138 0.984 . S
H1151 N1138 0.985 . S
C1152 C1153 1.363 . S
C1152 C1158 1.379 . S
C1152 N1160 1.356 . S
C1153 C1152 1.363 . S
C1153 C1159 1.363 . S
C1154 C1155 1.363 . S
C1154 C1159 1.379 . S
C1154 N1161 1.356 . S
C1155 C1154 1.363 . S
C1155 C1158 1.363 . S
N1156 C1158 1.356 . S
N1156 H1168 0.984 . S
N1156 H1169 0.985 . S
N1157 C1159 1.356 . S
N1157 H1162 0.984 . S
N1157 H1163 0.985 . S
C1158 C1152 1.379 . S
C1158 C1155 1.363 . S
C1158 N1156 1.356 . S
C1159 C1153 1.363 . S
C1159 C1154 1.379 . S
C1159 N1157 1.356 . S
N1160 C1152 1.356 . S
N1160 H1166 0.984 . S
N1160 H1167 0.984 . S
N1161 C1154 1.356 . S
N1161 H1164 0.984 . S
N1161 H1165 0.985 . S
H1162 N1157 0.984 . S
H1163 N1157 0.985 . S
H1164 N1161 0.984 . S
H1165 N1161 0.985 . S
H1166 N1160 0.984 . S
H1167 N1160 0.984 . S
H1168 N1156 0.984 . S
H1169 N1156 0.985 . S
C1170 C1171 1.363 . S
C1170 C1176 1.379 . S
C1170 N1178 1.356 . S
C1171 C1170 1.363 . S
C1171 C1177 1.363 . S
C1172 C1173 1.363 . S
C1172 C1177 1.379 . S
C1172 N1179 1.356 . S
C1173 C1172 1.363 . S
C1173 C1176 1.363 . S
N1174 C1176 1.356 . S
N1174 H1186 0.984 . S
N1174 H1187 0.985 . S
N1175 C1177 1.356 . S
N1175 H1180 0.984 . S
N1175 H1181 0.985 . S
C1176 C1170 1.379 . S
C1176 C1173 1.363 . S
C1176 N1174 1.356 . S
C1177 C1171 1.363 . S
C1177 C1172 1.379 . S
C1177 N1175 1.356 . S
N1178 C1170 1.356 . S
N1178 H1184 0.984 . S
N1178 H1185 0.984 . S
N1179 C1172 1.356 . S
N1179 H1182 0.984 . S
N1179 H1183 0.985 . S
H1180 N1175 0.984 . S
H1181 N1175 0.985 . S
H1182 N1179 0.984 . S
H1183 N1179 0.985 . S
H1184 N1178 0.984 . S
H1185 N1178 0.984 . S
H1186 N1174 0.984 . S
H1187 N1174 0.985 . S
C1188 C1189 1.363 . S
C1188 C1194 1.379 . S
C1188 N1196 1.356 . S
C1189 C1188 1.363 . S
C1189 C1195 1.363 . S
C1190 C1191 1.363 . S
C1190 C1195 1.379 . S
C1190 N1197 1.356 . S
C1191 C1190 1.363 . S
C1191 C1194 1.363 . S
N1192 C1194 1.356 . S
N1192 H1204 0.984 . S
N1192 H1205 0.985 . S
N1193 C1195 1.356 . S
N1193 H1198 0.984 . S
N1193 H1199 0.985 . S
C1194 C1188 1.379 . S
C1194 C1191 1.363 . S
C1194 N1192 1.356 . S
C1195 C1189 1.363 . S
C1195 C1190 1.379 . S
C1195 N1193 1.356 . S
N1196 C1188 1.356 . S
N1196 H1202 0.984 . S
N1196 H1203 0.984 . S
N1197 C1190 1.356 . S
N1197 H1200 0.984 . S
N1197 H1201 0.985 . S
H1198 N1193 0.984 . S
H1199 N1193 0.985 . S
H1200 N1197 0.984 . S
H1201 N1197 0.985 . S
H1202 N1196 0.984 . S
H1203 N1196 0.984 . S
H1204 N1192 0.984 . S
H1205 N1192 0.985 . S
C1206 C1207 1.363 . S
C1206 C1212 1.379 . S
C1206 N1214 1.356 . S
C1207 C1206 1.363 . S
C1207 C1213 1.363 . S
C1208 C1209 1.363 . S
C1208 C1213 1.379 . S
C1208 N1215 1.356 . S
C1209 C1208 1.363 . S
C1209 C1212 1.363 . S
N1210 C1212 1.356 . S
N1210 H1222 0.984 . S
N1210 H1223 0.985 . S
N1211 C1213 1.356 . S
N1211 H1216 0.984 . S
N1211 H1217 0.985 . S
C1212 C1206 1.379 . S
C1212 C1209 1.363 . S
C1212 N1210 1.356 . S
C1213 C1207 1.363 . S
C1213 C1208 1.379 . S
C1213 N1211 1.356 . S
N1214 C1206 1.356 . S
N1214 H1220 0.984 . S
N1214 H1221 0.984 . S
N1215 C1208 1.356 . S
N1215 H1218 0.984 . S
N1215 H1219 0.985 . S
H1216 N1211 0.984 . S
H1217 N1211 0.985 . S
H1218 N1215 0.984 . S
H1219 N1215 0.985 . S
H1220 N1214 0.984 . S
H1221 N1214 0.984 . S
H1222 N1210 0.984 . S
H1223 N1210 0.985 . S
C1224 C1225 1.363 . S
C1224 C1230 1.379 . S
C1224 N1232 1.356 . S
C1225 C1224 1.363 . S
C1225 C1231 1.363 . S
C1226 C1227 1.363 . S
C1226 C1231 1.379 . S
C1226 N1233 1.356 . S
C1227 C1226 1.363 . S
C1227 C1230 1.363 . S
N1228 C1230 1.356 . S
N1228 H1240 0.984 . S
N1228 H1241 0.985 . S
N1229 C1231 1.356 . S
N1229 H1234 0.984 . S
N1229 H1235 0.985 . S
C1230 C1224 1.379 . S
C1230 C1227 1.363 . S
C1230 N1228 1.356 . S
C1231 C1225 1.363 . S
C1231 C1226 1.379 . S
C1231 N1229 1.356 . S
N1232 C1224 1.356 . S
N1232 H1238 0.984 . S
N1232 H1239 0.984 . S
N1233 C1226 1.356 . S
N1233 H1236 0.984 . S
N1233 H1237 0.985 . S
H1234 N1229 0.984 . S
H1235 N1229 0.985 . S
H1236 N1233 0.984 . S
H1237 N1233 0.985 . S
H1238 N1232 0.984 . S
H1239 N1232 0.984 . S
H1240 N1228 0.984 . S
H1241 N1228 0.985 . S
C1242 C1243 1.363 . S
C1242 C1248 1.379 . S
C1242 N1250 1.356 . S
C1243 C1242 1.363 . S
C1243 C1249 1.363 . S
C1244 C1245 1.363 . S
C1244 C1249 1.379 . S
C1244 N1251 1.356 . S
C1245 C1244 1.363 . S
C1245 C1248 1.363 . S
N1246 C1248 1.356 . S
N1246 H1258 0.984 . S
N1246 H1259 0.985 . S
N1247 C1249 1.356 . S
N1247 H1252 0.984 . S
N1247 H1253 0.985 . S
C1248 C1242 1.379 . S
C1248 C1245 1.363 . S
C1248 N1246 1.356 . S
C1249 C1243 1.363 . S
C1249 C1244 1.379 . S
C1249 N1247 1.356 . S
N1250 C1242 1.356 . S
N1250 H1256 0.984 . S
N1250 H1257 0.984 . S
N1251 C1244 1.356 . S
N1251 H1254 0.984 1_655 S
N1251 H1255 0.985 . S
H1252 N1247 0.984 . S
H1253 N1247 0.985 . S
H1254 N1251 0.984 1_455 S
H1255 N1251 0.985 . S
H1256 N1250 0.984 . S
H1257 N1250 0.984 . S
H1258 N1246 0.984 . S
H1259 N1246 0.985 . S
C1260 C1261 1.363 . S
C1260 C1266 1.379 . S
C1260 N1268 1.356 . S
C1261 C1260 1.363 . S
C1261 C1267 1.363 . S
C1262 C1263 1.363 . S
C1262 C1267 1.379 . S
C1262 N1269 1.356 . S
C1263 C1262 1.363 . S
C1263 C1266 1.363 . S
N1264 C1266 1.356 . S
N1264 H1276 0.984 . S
N1264 H1277 0.985 . S
N1265 C1267 1.356 . S
N1265 H1270 0.984 . S
N1265 H1271 0.985 . S
C1266 C1260 1.379 . S
C1266 C1263 1.363 . S
C1266 N1264 1.356 . S
C1267 C1261 1.363 . S
C1267 C1262 1.379 . S
C1267 N1265 1.356 . S
N1268 C1260 1.356 . S
N1268 H1274 0.984 . S
N1268 H1275 0.984 . S
N1269 C1262 1.356 . S
N1269 H1272 0.984 . S
N1269 H1273 0.985 . S
H1270 N1265 0.984 . S
H1271 N1265 0.985 . S
H1272 N1269 0.984 . S
H1273 N1269 0.985 . S
H1274 N1268 0.984 . S
H1275 N1268 0.984 . S
H1276 N1264 0.984 . S
H1277 N1264 0.985 . S
C1278 C1279 1.363 . S
C1278 C1284 1.379 . S
C1278 N1286 1.356 . S
C1279 C1278 1.363 . S
C1279 C1285 1.363 . S
C1280 C1281 1.363 . S
C1280 C1285 1.379 . S
C1280 N1287 1.356 . S
C1281 C1280 1.363 . S
C1281 C1284 1.363 . S
N1282 C1284 1.356 . S
N1282 H1294 0.984 . S
N1282 H1295 0.985 . S
N1283 C1285 1.356 . S
N1283 H1288 0.984 . S
N1283 H1289 0.985 . S
C1284 C1278 1.379 . S
C1284 C1281 1.363 . S
C1284 N1282 1.356 . S
C1285 C1279 1.363 . S
C1285 C1280 1.379 . S
C1285 N1283 1.356 . S
N1286 C1278 1.356 . S
N1286 H1292 0.984 . S
N1286 H1293 0.984 . S
N1287 C1280 1.356 . S
N1287 H1290 0.984 . S
N1287 H1291 0.985 . S
H1288 N1283 0.984 . S
H1289 N1283 0.985 . S
H1290 N1287 0.984 . S
H1291 N1287 0.985 . S
H1292 N1286 0.984 . S
H1293 N1286 0.984 . S
H1294 N1282 0.984 . S
H1295 N1282 0.985 . S
C1296 C1297 1.363 . S
C1296 C1302 1.379 . S
C1296 N1304 1.356 . S
C1297 C1296 1.363 . S
C1297 C1303 1.363 . S
C1298 C1299 1.363 . S
C1298 C1303 1.379 . S
C1298 N1305 1.356 . S
C1299 C1298 1.363 . S
C1299 C1302 1.363 . S
N1300 C1302 1.356 . S
N1300 H1312 0.984 . S
N1300 H1313 0.985 . S
N1301 C1303 1.356 . S
N1301 H1306 0.984 . S
N1301 H1307 0.985 . S
C1302 C1296 1.379 . S
C1302 C1299 1.363 . S
C1302 N1300 1.356 . S
C1303 C1297 1.363 . S
C1303 C1298 1.379 . S
C1303 N1301 1.356 . S
N1304 C1296 1.356 . S
N1304 H1310 0.984 . S
N1304 H1311 0.984 . S
N1305 C1298 1.356 . S
N1305 H1308 0.984 . S
N1305 H1309 0.985 . S
H1306 N1301 0.984 . S
H1307 N1301 0.985 . S
H1308 N1305 0.984 . S
H1309 N1305 0.985 . S
H1310 N1304 0.984 . S
H1311 N1304 0.984 . S
H1312 N1300 0.984 . S
H1313 N1300 0.985 . S
C1314 C1315 1.363 . S
C1314 C1320 1.379 . S
C1314 N1322 1.356 . S
C1315 C1314 1.363 . S
C1315 C1321 1.363 . S
C1316 C1317 1.363 . S
C1316 C1321 1.379 . S
C1316 N1323 1.356 . S
C1317 C1316 1.363 . S
C1317 C1320 1.363 . S
N1318 C1320 1.356 . S
N1318 H1330 0.984 . S
N1318 H1331 0.985 . S
N1319 C1321 1.356 . S
N1319 H1324 0.984 . S
N1319 H1325 0.985 . S
C1320 C1314 1.379 . S
C1320 C1317 1.363 . S
C1320 N1318 1.356 . S
C1321 C1315 1.363 . S
C1321 C1316 1.379 . S
C1321 N1319 1.356 . S
N1322 C1314 1.356 . S
N1322 H1328 0.984 . S
N1322 H1329 0.984 . S
N1323 C1316 1.356 . S
N1323 H1326 0.984 . S
N1323 H1327 0.985 . S
H1324 N1319 0.984 . S
H1325 N1319 0.985 . S
H1326 N1323 0.984 . S
H1327 N1323 0.985 . S
H1328 N1322 0.984 . S
H1329 N1322 0.984 . S
H1330 N1318 0.984 . S
H1331 N1318 0.985 . S
C1332 C1333 1.363 . S
C1332 C1338 1.379 . S
C1332 N1340 1.356 . S
C1333 C1332 1.363 . S
C1333 C1339 1.363 . S
C1334 C1335 1.363 . S
C1334 C1339 1.379 . S
C1334 N1341 1.356 . S
C1335 C1334 1.363 . S
C1335 C1338 1.363 . S
N1336 C1338 1.356 . S
N1336 H1348 0.984 . S
N1336 H1349 0.985 . S
N1337 C1339 1.356 . S
N1337 H1342 0.984 . S
N1337 H1343 0.985 . S
C1338 C1332 1.379 . S
C1338 C1335 1.363 . S
C1338 N1336 1.356 . S
C1339 C1333 1.363 . S
C1339 C1334 1.379 . S
C1339 N1337 1.356 . S
N1340 C1332 1.356 . S
N1340 H1346 0.984 . S
N1340 H1347 0.984 . S
N1341 C1334 1.356 . S
N1341 H1344 0.984 . S
N1341 H1345 0.985 . S
H1342 N1337 0.984 . S
H1343 N1337 0.985 . S
H1344 N1341 0.984 . S
H1345 N1341 0.985 . S
H1346 N1340 0.984 . S
H1347 N1340 0.984 . S
H1348 N1336 0.984 . S
H1349 N1336 0.985 . S
C1350 C1351 1.363 . S
C1350 C1356 1.379 . S
C1350 N1358 1.356 . S
C1351 C1350 1.363 . S
C1351 C1357 1.363 1_545 S
C1352 C1353 1.363 1_565 S
C1352 C1357 1.379 . S
C1352 N1359 1.356 . S
C1353 C1352 1.363 1_545 S
C1353 C1356 1.363 . S
N1354 C1356 1.356 . S
N1354 H1366 0.984 . S
N1354 H1367 0.985 . S
N1355 C1357 1.356 . S
N1355 H1360 0.984 . S
N1355 H1361 0.985 . S
C1356 C1350 1.379 . S
C1356 C1353 1.363 . S
C1356 N1354 1.356 . S
C1357 C1351 1.363 1_565 S
C1357 C1352 1.379 . S
C1357 N1355 1.356 . S
N1358 C1350 1.356 . S
N1358 H1364 0.984 . S
N1358 H1365 0.984 . S
N1359 C1352 1.356 . S
N1359 H1362 0.984 . S
N1359 H1363 0.985 . S
H1360 N1355 0.984 . S
H1361 N1355 0.985 . S
H1362 N1359 0.984 . S
H1363 N1359 0.985 . S
H1364 N1358 0.984 . S
H1365 N1358 0.984 . S
H1366 N1354 0.984 . S
H1367 N1354 0.985 . S
C1368 C1369 1.363 . S
C1368 C1374 1.379 . S
C1368 N1376 1.356 . S
C1369 C1368 1.363 . S
C1369 C1375 1.368 . S
C1370 C1371 1.361 . S
C1370 C1375 1.386 . S
C1370 N1377 1.357 1_545 S
C1371 C1370 1.361 . S
C1371 C1374 1.363 . S
N1372 C1374 1.356 . S
N1372 H1384 0.984 . S
N1372 H1385 0.985 . S
N1373 C1375 1.346 1_565 S
N1373 H1378 0.984 . S
N1373 H1379 0.985 . S
C1374 C1368 1.379 . S
C1374 C1371 1.363 . S
C1374 N1372 1.356 . S
C1375 C1369 1.368 . S
C1375 C1370 1.386 . S
C1375 N1373 1.346 1_545 S
N1376 C1368 1.356 . S
N1376 H1382 0.984 . S
N1376 H1383 0.984 . S
N1377 C1370 1.357 1_565 S
N1377 H1380 0.984 . S
N1377 H1381 0.985 . S
H1378 N1373 0.984 . S
H1379 N1373 0.985 . S
H1380 N1377 0.984 . S
H1381 N1377 0.985 . S
H1382 N1376 0.984 . S
H1383 N1376 0.984 . S
H1384 N1372 0.984 . S
H1385 N1372 0.985 . S
C1386 C1387 1.363 . S
C1386 C1392 1.379 . S
C1386 N1394 1.356 . S
C1387 C1386 1.363 . S
C1387 C1393 1.363 . S
C1388 C1389 1.363 . S
C1388 C1393 1.379 . S
C1388 N1395 1.356 . S
C1389 C1388 1.363 . S
C1389 C1392 1.363 . S
N1390 C1392 1.356 1_655 S
N1390 H1402 0.984 . S
N1390 H1403 1.000 . S
N1391 C1393 1.356 . S
N1391 H1396 0.984 . S
N1391 H1397 0.985 . S
C1392 C1386 1.379 . S
C1392 C1389 1.363 . S
C1392 N1390 1.356 1_455 S
C1393 C1387 1.363 . S
C1393 C1388 1.379 . S
C1393 N1391 1.356 . S
N1394 C1386 1.356 . S
N1394 H1400 0.984 1_455 S
N1394 H1401 0.984 . S
N1395 C1388 1.356 . S
N1395 H1398 0.984 . S
N1395 H1399 0.985 . S
H1396 N1391 0.984 . S
H1397 N1391 0.985 . S
H1398 N1395 0.984 . S
H1399 N1395 0.985 . S
H1400 N1394 0.984 1_655 S
H1401 N1394 0.984 . S
H1402 N1390 0.984 . S
H1403 N1390 1.000 . S
C1404 C1405 1.363 . S
C1404 C1410 1.379 . S
C1404 N1412 1.356 . S
C1405 C1404 1.363 . S
C1405 C1411 1.363 . S
C1406 C1407 1.363 . S
C1406 C1411 1.379 . S
C1406 N1413 1.356 . S
C1407 C1406 1.363 . S
C1407 C1410 1.363 . S
N1408 C1410 1.356 . S
N1408 H1420 0.984 . S
N1408 H1421 0.985 . S
N1409 C1411 1.356 . S
N1409 H1414 0.984 . S
N1409 H1415 0.985 . S
C1410 C1404 1.379 . S
C1410 C1407 1.363 . S
C1410 N1408 1.356 . S
C1411 C1405 1.363 . S
C1411 C1406 1.379 . S
C1411 N1409 1.356 . S
N1412 C1404 1.356 . S
N1412 H1418 0.984 . S
N1412 H1419 0.984 . S
N1413 C1406 1.356 . S
N1413 H1416 0.984 . S
N1413 H1417 0.985 . S
H1414 N1409 0.984 . S
H1415 N1409 0.985 . S
H1416 N1413 0.984 . S
H1417 N1413 0.985 . S
H1418 N1412 0.984 . S
H1419 N1412 0.984 . S
H1420 N1408 0.984 . S
H1421 N1408 0.985 . S
C1422 C1423 1.363 . S
C1422 C1428 1.379 . S
C1422 N1430 1.356 . S
C1423 C1422 1.363 . S
C1423 C1429 1.363 . S
C1424 C1425 1.363 . S
C1424 C1429 1.379 . S
C1424 N1431 1.356 . S
C1425 C1424 1.363 . S
C1425 C1428 1.363 . S
N1426 C1428 1.356 . S
N1426 H1438 0.984 . S
N1426 H1439 0.985 . S
N1427 C1429 1.356 . S
N1427 H1432 0.984 . S
N1427 H1433 0.985 . S
C1428 C1422 1.379 . S
C1428 C1425 1.363 . S
C1428 N1426 1.356 . S
C1429 C1423 1.363 . S
C1429 C1424 1.379 . S
C1429 N1427 1.356 . S
N1430 C1422 1.356 . S
N1430 H1436 0.984 . S
N1430 H1437 0.984 . S
N1431 C1424 1.356 . S
N1431 H1434 0.984 . S
N1431 H1435 0.985 . S
H1432 N1427 0.984 . S
H1433 N1427 0.985 . S
H1434 N1431 0.984 . S
H1435 N1431 0.985 . S
H1436 N1430 0.984 . S
H1437 N1430 0.984 . S
H1438 N1426 0.984 . S
H1439 N1426 0.985 . S
C1440 C1441 1.363 . S
C1440 C1446 1.379 . S
C1440 N1448 1.356 . S
C1441 C1440 1.363 . S
C1441 C1447 1.363 . S
C1442 C1443 1.363 . S
C1442 C1447 1.379 . S
C1442 N1449 1.356 . S
C1443 C1442 1.363 . S
C1443 C1446 1.363 . S
N1444 C1446 1.356 . S
N1444 H1456 0.984 . S
N1444 H1457 0.985 . S
N1445 C1447 1.356 . S
N1445 H1450 0.984 . S
N1445 H1451 0.985 . S
C1446 C1440 1.379 . S
C1446 C1443 1.363 . S
C1446 N1444 1.356 . S
C1447 C1441 1.363 . S
C1447 C1442 1.379 . S
C1447 N1445 1.356 . S
N1448 C1440 1.356 . S
N1448 H1454 0.984 . S
N1448 H1455 0.984 . S
N1449 C1442 1.356 . S
N1449 H1452 0.984 . S
N1449 H1453 0.985 . S
H1450 N1445 0.984 . S
H1451 N1445 0.985 . S
H1452 N1449 0.984 . S
H1453 N1449 0.985 . S
H1454 N1448 0.984 . S
H1455 N1448 0.984 . S
H1456 N1444 0.984 . S
H1457 N1444 0.985 . S
C1458 C1459 1.363 . S
C1458 C1464 1.379 . S
C1458 N1466 1.356 . S
C1459 C1458 1.363 . S
C1459 C1465 1.363 . S
C1460 C1461 1.363 . S
C1460 C1465 1.379 . S
C1460 N1467 1.356 . S
C1461 C1460 1.363 . S
C1461 C1464 1.363 . S
N1462 C1464 1.356 . S
N1462 H1474 0.984 . S
N1462 H1475 0.985 . S
N1463 C1465 1.356 1_565 S
N1463 H1468 0.984 . S
N1463 H1469 0.985 . S
C1464 C1458 1.379 . S
C1464 C1461 1.363 . S
C1464 N1462 1.356 . S
C1465 C1459 1.363 . S
C1465 C1460 1.379 . S
C1465 N1463 1.356 1_545 S
N1466 C1458 1.356 . S
N1466 H1472 0.984 . S
N1466 H1473 0.984 . S
N1467 C1460 1.356 . S
N1467 H1470 0.984 . S
N1467 H1471 0.985 . S
H1468 N1463 0.984 . S
H1469 N1463 0.985 . S
H1470 N1467 0.984 . S
H1471 N1467 0.985 . S
H1472 N1466 0.984 . S
H1473 N1466 0.984 . S
H1474 N1462 0.984 . S
H1475 N1462 0.985 . S
C1476 C1477 1.363 . S
C1476 C1482 1.379 . S
C1476 N1484 1.356 . S
C1477 C1476 1.363 . S
C1477 C1483 1.363 . S
C1478 C1479 1.363 . S
C1478 C1483 1.379 . S
C1478 N1485 1.356 . S
C1479 C1478 1.363 . S
C1479 C1482 1.363 . S
N1480 C1482 1.356 . S
N1480 H1492 0.984 1_545 S
N1480 H1493 0.985 . S
N1481 C1483 1.356 . S
N1481 H1486 0.984 . S
N1481 H1487 0.985 . S
C1482 C1476 1.379 . S
C1482 C1479 1.363 . S
C1482 N1480 1.356 . S
C1483 C1477 1.363 . S
C1483 C1478 1.379 . S
C1483 N1481 1.356 . S
N1484 C1476 1.356 . S
N1484 H1490 0.984 1_545 S
N1484 H1491 0.984 . S
N1485 C1478 1.356 . S
N1485 H1488 0.984 . S
N1485 H1489 0.985 . S
H1486 N1481 0.984 . S
H1487 N1481 0.985 . S
H1488 N1485 0.984 . S
H1489 N1485 0.985 . S
H1490 N1484 0.984 1_565 S
H1491 N1484 0.984 . S
H1492 N1480 0.984 1_565 S
H1493 N1480 0.985 . S
C1494 C1495 1.363 . S
C1494 C1500 1.379 . S
C1494 N1502 1.356 . S
C1495 C1494 1.363 . S
C1495 C1501 1.363 . S
C1496 C1497 1.363 . S
C1496 C1501 1.379 . S
C1496 N1503 1.356 1_455 S
C1497 C1496 1.363 . S
C1497 C1500 1.363 . S
N1498 C1500 1.356 . S
N1498 H1510 0.984 . S
N1498 H1511 0.985 . S
N1499 C1501 1.356 . S
N1499 H1504 0.984 . S
N1499 H1505 0.985 1_455 S
C1500 C1494 1.379 . S
C1500 C1497 1.363 . S
C1500 N1498 1.356 . S
C1501 C1495 1.363 . S
C1501 C1496 1.379 . S
C1501 N1499 1.356 . S
N1502 C1494 1.356 . S
N1502 H1508 0.984 . S
N1502 H1509 0.984 . S
N1503 C1496 1.356 1_655 S
N1503 H1506 0.984 . S
N1503 H1507 0.985 . S
H1504 N1499 0.984 . S
H1505 N1499 0.985 1_655 S
H1506 N1503 0.984 . S
H1507 N1503 0.985 . S
H1508 N1502 0.984 . S
H1509 N1502 0.984 . S
H1510 N1498 0.984 . S
H1511 N1498 0.985 . S
C1512 C1513 1.363 . S
C1512 C1518 1.379 . S
C1512 N1520 1.356 . S
C1513 C1512 1.363 . S
C1513 C1519 1.363 . S
C1514 C1515 1.363 . S
C1514 C1519 1.379 . S
C1514 N1521 1.356 . S
C1515 C1514 1.363 . S
C1515 C1518 1.363 . S
N1516 C1518 1.356 . S
N1516 H1528 0.984 . S
N1516 H1529 0.985 . S
N1517 C1519 1.356 . S
N1517 H1522 0.984 . S
N1517 H1523 0.985 . S
C1518 C1512 1.379 . S
C1518 C1515 1.363 . S
C1518 N1516 1.356 . S
C1519 C1513 1.363 . S
C1519 C1514 1.379 . S
C1519 N1517 1.356 . S
N1520 C1512 1.356 . S
N1520 H1526 0.984 . S
N1520 H1527 0.984 . S
N1521 C1514 1.356 . S
N1521 H1524 0.984 . S
N1521 H1525 0.985 . S
H1522 N1517 0.984 . S
H1523 N1517 0.985 . S
H1524 N1521 0.984 . S
H1525 N1521 0.985 . S
H1526 N1520 0.984 . S
H1527 N1520 0.984 . S
H1528 N1516 0.984 . S
H1529 N1516 0.985 . S
C1530 C1531 1.363 . S
C1530 C1536 1.379 . S
C1530 N1538 1.356 . S
C1531 C1530 1.363 . S
C1531 C1537 1.363 . S
C1532 C1533 1.363 . S
C1532 C1537 1.379 . S
C1532 N1539 1.356 . S
C1533 C1532 1.363 . S
C1533 C1536 1.363 . S
N1534 C1536 1.356 . S
N1534 H1546 0.984 . S
N1534 H1547 0.985 . S
N1535 C1537 1.356 . S
N1535 H1540 0.984 . S
N1535 H1541 0.985 . S
C1536 C1530 1.379 . S
C1536 C1533 1.363 . S
C1536 N1534 1.356 . S
C1537 C1531 1.363 . S
C1537 C1532 1.379 . S
C1537 N1535 1.356 . S
N1538 C1530 1.356 . S
N1538 H1544 0.984 . S
N1538 H1545 0.984 . S
N1539 C1532 1.356 . S
N1539 H1542 0.984 . S
N1539 H1543 0.985 . S
H1540 N1535 0.984 . S
H1541 N1535 0.985 . S
H1542 N1539 0.984 . S
H1543 N1539 0.985 . S
H1544 N1538 0.984 . S
H1545 N1538 0.984 . S
H1546 N1534 0.984 . S
H1547 N1534 0.985 . S
C1548 C1549 1.363 . S
C1548 C1554 1.379 . S
C1548 N1556 1.356 . S
C1549 C1548 1.363 . S
C1549 C1555 1.363 . S
C1550 C1551 1.363 . S
C1550 C1555 1.379 . S
C1550 N1557 1.356 . S
C1551 C1550 1.363 . S
C1551 C1554 1.363 . S
N1552 C1554 1.356 . S
N1552 H1564 0.984 . S
N1552 H1565 0.985 . S
N1553 C1555 1.356 . S
N1553 H1558 0.984 . S
N1553 H1559 0.985 . S
C1554 C1548 1.379 . S
C1554 C1551 1.363 . S
C1554 N1552 1.356 . S
C1555 C1549 1.363 . S
C1555 C1550 1.379 . S
C1555 N1553 1.356 . S
N1556 C1548 1.356 . S
N1556 H1562 0.984 . S
N1556 H1563 0.984 . S
N1557 C1550 1.356 . S
N1557 H1560 0.984 . S
N1557 H1561 0.985 . S
H1558 N1553 0.984 . S
H1559 N1553 0.985 . S
H1560 N1557 0.984 . S
H1561 N1557 0.985 . S
H1562 N1556 0.984 . S
H1563 N1556 0.984 . S
H1564 N1552 0.984 . S
H1565 N1552 0.985 . S
C1566 C1567 1.363 . S
C1566 C1572 1.379 . S
C1566 N1574 1.356 . S
C1567 C1566 1.363 . S
C1567 C1573 1.363 . S
C1568 C1569 1.363 . S
C1568 C1573 1.379 . S
C1568 N1575 1.356 . S
C1569 C1568 1.363 . S
C1569 C1572 1.363 . S
N1570 C1572 1.356 . S
N1570 H1582 0.984 . S
N1570 H1583 0.985 . S
N1571 C1573 1.356 . S
N1571 H1576 0.984 . S
N1571 H1577 0.985 . S
C1572 C1566 1.379 . S
C1572 C1569 1.363 . S
C1572 N1570 1.356 . S
C1573 C1567 1.363 . S
C1573 C1568 1.379 . S
C1573 N1571 1.356 . S
N1574 C1566 1.356 . S
N1574 H1580 0.984 . S
N1574 H1581 0.984 . S
N1575 C1568 1.356 . S
N1575 H1578 0.984 . S
N1575 H1579 0.985 . S
H1576 N1571 0.984 . S
H1577 N1571 0.985 . S
H1578 N1575 0.984 . S
H1579 N1575 0.985 . S
H1580 N1574 0.984 . S
H1581 N1574 0.984 . S
H1582 N1570 0.984 . S
H1583 N1570 0.985 . S
C1584 C1585 1.363 . S
C1584 C1590 1.379 1_556 S
C1584 N1592 1.356 . S
C1585 C1584 1.363 . S
C1585 C1591 1.363 . S
C1586 C1587 1.363 . S
C1586 C1591 1.379 1_554 S
C1586 N1593 1.356 . S
C1587 C1586 1.363 . S
C1587 C1590 1.363 . S
N1588 C1590 1.356 . S
N1588 H1600 0.984 . S
N1588 H1601 0.985 . S
N1589 C1591 1.356 . S
N1589 H1594 0.984 . S
N1589 H1595 0.985 . S
C1590 C1584 1.379 1_554 S
C1590 C1587 1.363 . S
C1590 N1588 1.356 . S
C1591 C1585 1.363 . S
C1591 C1586 1.379 1_556 S
C1591 N1589 1.356 . S
N1592 C1584 1.356 . S
N1592 H1598 0.984 . S
N1592 H1599 0.984 . S
N1593 C1586 1.356 . S
N1593 H1596 0.984 . S
N1593 H1597 0.985 . S
H1594 N1589 0.984 . S
H1595 N1589 0.985 . S
H1596 N1593 0.984 . S
H1597 N1593 0.985 . S
H1598 N1592 0.984 . S
H1599 N1592 0.984 . S
H1600 N1588 0.984 . S
H1601 N1588 0.985 . S
C1602 C1603 1.363 . S
C1602 C1608 1.379 . S
C1602 N1610 1.356 . S
C1603 C1602 1.363 . S
C1603 C1609 1.363 . S
C1604 C1605 1.361 1_556 S
C1604 C1609 1.379 . S
C1604 N1611 1.356 1_556 S
C1605 C1604 1.361 1_554 S
C1605 C1608 1.357 1_554 S
N1606 C1608 1.356 . S
N1606 H1618 0.984 . S
N1606 H1619 0.985 1_556 S
N1607 C1609 1.356 . S
N1607 H1612 0.984 . S
N1607 H1613 0.985 . S
C1608 C1602 1.379 . S
C1608 C1605 1.357 1_556 S
C1608 N1606 1.356 . S
C1609 C1603 1.363 . S
C1609 C1604 1.379 . S
C1609 N1607 1.356 . S
N1610 C1602 1.356 . S
N1610 H1616 0.984 . S
N1610 H1617 0.984 . S
N1611 C1604 1.356 1_554 S
N1611 H1614 0.984 . S
N1611 H1615 0.985 . S
H1612 N1607 0.984 . S
H1613 N1607 0.985 . S
H1614 N1611 0.984 . S
H1615 N1611 0.985 . S
H1616 N1610 0.984 . S
H1617 N1610 0.984 . S
H1618 N1606 0.984 . S
H1619 N1606 0.985 1_554 S
C1620 C1621 1.363 . S
C1620 C1626 1.352 1_556 S
C1620 N1628 1.356 . S
C1621 C1620 1.363 . S
C1621 C1627 1.363 . S
C1622 C1623 1.363 . S
C1622 C1627 1.379 1_554 S
C1622 N1629 1.356 . S
C1623 C1622 1.363 . S
C1623 C1626 1.390 . S
N1624 C1626 1.367 . S
N1624 H1636 0.984 1_564 S
N1624 H1637 0.985 . S
N1625 C1627 1.356 . S
N1625 H1630 0.984 . S
N1625 H1631 0.985 1_556 S
C1626 C1620 1.352 1_554 S
C1626 C1623 1.390 . S
C1626 N1624 1.367 . S
C1627 C1621 1.363 . S
C1627 C1622 1.379 1_556 S
C1627 N1625 1.356 . S
N1628 C1620 1.356 . S
N1628 H1634 0.984 . S
N1628 H1635 0.984 . S
N1629 C1622 1.356 . S
N1629 H1632 0.984 . S
N1629 H1633 0.985 . S
H1630 N1625 0.984 . S
H1631 N1625 0.985 1_554 S
H1632 N1629 0.984 . S
H1633 N1629 0.985 . S
H1634 N1628 0.984 . S
H1635 N1628 0.984 . S
H1636 N1624 0.984 1_546 S
H1637 N1624 0.985 . S
C1638 C1639 1.363 . S
C1638 C1644 1.379 . S
C1638 N1646 1.356 . S
C1639 C1638 1.363 . S
C1639 C1645 1.363 . S
C1640 C1641 1.363 . S
C1640 C1645 1.379 . S
C1640 N1647 1.356 . S
C1641 C1640 1.363 . S
C1641 C1644 1.363 . S
N1642 C1644 1.356 . S
N1642 H1654 0.984 1_565 S
N1642 H1655 0.985 . S
N1643 C1645 1.356 . S
N1643 H1648 0.984 . S
N1643 H1649 0.985 . S
C1644 C1638 1.379 . S
C1644 C1641 1.363 . S
C1644 N1642 1.356 . S
C1645 C1639 1.363 . S
C1645 C1640 1.379 . S
C1645 N1643 1.356 . S
N1646 C1638 1.356 . S
N1646 H1652 0.984 . S
N1646 H1653 0.984 . S
N1647 C1640 1.356 . S
N1647 H1650 0.984 . S
N1647 H1651 0.985 . S
H1648 N1643 0.984 . S
H1649 N1643 0.985 . S
H1650 N1647 0.984 . S
H1651 N1647 0.985 . S
H1652 N1646 0.984 . S
H1653 N1646 0.984 . S
H1654 N1642 0.984 1_545 S
H1655 N1642 0.985 . S
C1656 C1657 1.363 . S
C1656 C1662 1.379 . S
C1656 N1664 1.356 . S
C1657 C1656 1.363 . S
C1657 C1663 1.363 . S
C1658 C1659 1.363 . S
C1658 C1663 1.379 . S
C1658 N1665 1.356 . S
C1659 C1658 1.363 . S
C1659 C1662 1.363 . S
N1660 C1662 1.356 . S
N1660 H1672 0.984 . S
N1660 H1673 0.985 . S
N1661 C1663 1.356 . S
N1661 H1666 0.984 . S
N1661 H1667 0.985 . S
C1662 C1656 1.379 . S
C1662 C1659 1.363 . S
C1662 N1660 1.356 . S
C1663 C1657 1.363 . S
C1663 C1658 1.379 . S
C1663 N1661 1.356 . S
N1664 C1656 1.356 . S
N1664 H1670 0.984 . S
N1664 H1671 0.984 . S
N1665 C1658 1.356 . S
N1665 H1668 0.984 . S
N1665 H1669 0.985 . S
H1666 N1661 0.984 . S
H1667 N1661 0.985 . S
H1668 N1665 0.984 . S
H1669 N1665 0.985 . S
H1670 N1664 0.984 . S
H1671 N1664 0.984 . S
H1672 N1660 0.984 . S
H1673 N1660 0.985 . S
C1674 C1675 1.363 . S
C1674 C1680 1.379 . S
C1674 N1682 1.356 . S
C1675 C1674 1.363 . S
C1675 C1681 1.363 . S
C1676 C1677 1.363 . S
C1676 C1681 1.379 . S
C1676 N1683 1.356 . S
C1677 C1676 1.363 . S
C1677 C1680 1.363 . S
N1678 C1680 1.356 . S
N1678 H1690 0.984 . S
N1678 H1691 0.985 . S
N1679 C1681 1.356 . S
N1679 H1684 0.984 . S
N1679 H1685 0.985 . S
C1680 C1674 1.379 . S
C1680 C1677 1.363 . S
C1680 N1678 1.356 . S
C1681 C1675 1.363 . S
C1681 C1676 1.379 . S
C1681 N1679 1.356 . S
N1682 C1674 1.356 . S
N1682 H1688 0.984 . S
N1682 H1689 0.984 . S
N1683 C1676 1.356 . S
N1683 H1686 0.984 . S
N1683 H1687 0.985 . S
H1684 N1679 0.984 . S
H1685 N1679 0.985 . S
H1686 N1683 0.984 . S
H1687 N1683 0.985 . S
H1688 N1682 0.984 . S
H1689 N1682 0.984 . S
H1690 N1678 0.984 . S
H1691 N1678 0.985 . S
C1692 C1693 1.363 . S
C1692 C1698 1.379 . S
C1692 N1700 1.356 . S
C1693 C1692 1.363 . S
C1693 C1699 1.363 . S
C1694 C1695 1.363 . S
C1694 C1699 1.379 . S
C1694 N1701 1.356 . S
C1695 C1694 1.363 . S
C1695 C1698 1.363 . S
N1696 C1698 1.356 . S
N1696 H1708 0.984 . S
N1696 H1709 0.985 . S
N1697 C1699 1.356 . S
N1697 H1702 0.984 . S
N1697 H1703 0.985 . S
C1698 C1692 1.379 . S
C1698 C1695 1.363 . S
C1698 N1696 1.356 . S
C1699 C1693 1.363 . S
C1699 C1694 1.379 . S
C1699 N1697 1.356 . S
N1700 C1692 1.356 . S
N1700 H1706 0.984 . S
N1700 H1707 0.984 . S
N1701 C1694 1.356 . S
N1701 H1704 0.984 . S
N1701 H1705 0.985 . S
H1702 N1697 0.984 . S
H1703 N1697 0.985 . S
H1704 N1701 0.984 . S
H1705 N1701 0.985 . S
H1706 N1700 0.984 . S
H1707 N1700 0.984 . S
H1708 N1696 0.984 . S
H1709 N1696 0.985 . S
C1710 C1711 1.363 . S
C1710 C1716 1.379 . S
C1710 N1718 1.356 . S
C1711 C1710 1.363 . S
C1711 C1717 1.363 . S
C1712 C1713 1.363 . S
C1712 C1717 1.379 . S
C1712 N1719 1.356 . S
C1713 C1712 1.363 . S
C1713 C1716 1.363 . S
N1714 C1716 1.356 . S
N1714 H1726 0.984 . S
N1714 H1727 0.985 . S
N1715 C1717 1.356 . S
N1715 H1720 0.984 . S
N1715 H1721 0.985 . S
C1716 C1710 1.379 . S
C1716 C1713 1.363 . S
C1716 N1714 1.356 . S
C1717 C1711 1.363 . S
C1717 C1712 1.379 . S
C1717 N1715 1.356 . S
N1718 C1710 1.356 . S
N1718 H1724 0.984 . S
N1718 H1725 0.984 . S
N1719 C1712 1.356 . S
N1719 H1722 0.984 . S
N1719 H1723 0.985 . S
H1720 N1715 0.984 . S
H1721 N1715 0.985 . S
H1722 N1719 0.984 . S
H1723 N1719 0.985 . S
H1724 N1718 0.984 . S
H1725 N1718 0.984 . S
H1726 N1714 0.984 . S
H1727 N1714 0.985 . S
C1728 C1729 1.363 . S
C1728 C1734 1.379 . S
C1728 N1736 1.356 . S
C1729 C1728 1.363 . S
C1729 C1735 1.363 . S
C1730 C1731 1.363 . S
C1730 C1735 1.379 . S
C1730 N1737 1.356 . S
C1731 C1730 1.363 . S
C1731 C1734 1.363 . S
N1732 C1734 1.356 . S
N1732 H1744 0.984 . S
N1732 H1745 0.985 . S
N1733 C1735 1.356 . S
N1733 H1738 0.984 . S
N1733 H1739 0.985 . S
C1734 C1728 1.379 . S
C1734 C1731 1.363 . S
C1734 N1732 1.356 . S
C1735 C1729 1.363 . S
C1735 C1730 1.379 . S
C1735 N1733 1.356 . S
N1736 C1728 1.356 . S
N1736 H1742 0.984 . S
N1736 H1743 0.984 . S
N1737 C1730 1.356 . S
N1737 H1740 0.984 . S
N1737 H1741 0.985 . S
H1738 N1733 0.984 . S
H1739 N1733 0.985 . S
H1740 N1737 0.984 . S
H1741 N1737 0.985 . S
H1742 N1736 0.984 . S
H1743 N1736 0.984 . S
H1744 N1732 0.984 . S
H1745 N1732 0.985 . S
C1746 C1747 1.363 . S
C1746 C1752 1.379 . S
C1746 N1754 1.356 . S
C1747 C1746 1.363 . S
C1747 C1753 1.363 . S
C1748 C1749 1.363 . S
C1748 C1753 1.379 . S
C1748 N1755 1.356 . S
C1749 C1748 1.363 . S
C1749 C1752 1.363 . S
N1750 C1752 1.356 . S
N1750 H1762 0.984 . S
N1750 H1763 0.985 . S
N1751 C1753 1.356 . S
N1751 H1756 0.984 . S
N1751 H1757 0.985 . S
C1752 C1746 1.379 . S
C1752 C1749 1.363 . S
C1752 N1750 1.356 . S
C1753 C1747 1.363 . S
C1753 C1748 1.379 . S
C1753 N1751 1.356 . S
N1754 C1746 1.356 . S
N1754 H1760 0.984 . S
N1754 H1761 0.984 . S
N1755 C1748 1.356 . S
N1755 H1758 0.984 . S
N1755 H1759 0.985 . S
H1756 N1751 0.984 . S
H1757 N1751 0.985 . S
H1758 N1755 0.984 . S
H1759 N1755 0.985 . S
H1760 N1754 0.984 . S
H1761 N1754 0.984 . S
H1762 N1750 0.984 . S
H1763 N1750 0.985 . S
C1764 C1765 1.363 . S
C1764 C1770 1.379 . S
C1764 N1772 1.356 . S
C1765 C1764 1.363 . S
C1765 C1771 1.363 . S
C1766 C1767 1.363 . S
C1766 C1771 1.379 . S
C1766 N1773 1.356 . S
C1767 C1766 1.363 . S
C1767 C1770 1.363 . S
N1768 C1770 1.356 . S
N1768 H1780 0.984 . S
N1768 H1781 0.985 . S
N1769 C1771 1.356 . S
N1769 H1774 0.984 . S
N1769 H1775 0.985 . S
C1770 C1764 1.379 . S
C1770 C1767 1.363 . S
C1770 N1768 1.356 . S
C1771 C1765 1.363 . S
C1771 C1766 1.379 . S
C1771 N1769 1.356 . S
N1772 C1764 1.356 . S
N1772 H1778 0.984 . S
N1772 H1779 0.984 . S
N1773 C1766 1.356 . S
N1773 H1776 0.984 . S
N1773 H1777 0.985 . S
H1774 N1769 0.984 . S
H1775 N1769 0.985 . S
H1776 N1773 0.984 . S
H1777 N1773 0.985 . S
H1778 N1772 0.984 . S
H1779 N1772 0.984 . S
H1780 N1768 0.984 . S
H1781 N1768 0.985 . S
C1782 C1783 1.363 . S
C1782 C1788 1.379 . S
C1782 N1790 1.356 . S
C1783 C1782 1.363 . S
C1783 C1789 1.363 . S
C1784 C1785 1.363 . S
C1784 C1789 1.379 . S
C1784 N1791 1.356 . S
C1785 C1784 1.363 . S
C1785 C1788 1.363 . S
N1786 C1788 1.356 . S
N1786 H1798 0.984 . S
N1786 H1799 0.985 . S
N1787 C1789 1.356 . S
N1787 H1792 0.984 . S
N1787 H1793 0.985 . S
C1788 C1782 1.379 . S
C1788 C1785 1.363 . S
C1788 N1786 1.356 . S
C1789 C1783 1.363 . S
C1789 C1784 1.379 . S
C1789 N1787 1.356 . S
N1790 C1782 1.356 . S
N1790 H1796 0.984 . S
N1790 H1797 0.984 . S
N1791 C1784 1.356 . S
N1791 H1794 0.984 . S
N1791 H1795 0.985 . S
H1792 N1787 0.984 . S
H1793 N1787 0.985 . S
H1794 N1791 0.984 . S
H1795 N1791 0.985 . S
H1796 N1790 0.984 . S
H1797 N1790 0.984 . S
H1798 N1786 0.984 . S
H1799 N1786 0.985 . S
C1800 C1801 1.363 . S
C1800 C1806 1.379 . S
C1800 N1808 1.356 . S
C1801 C1800 1.363 . S
C1801 C1807 1.363 . S
C1802 C1803 1.363 . S
C1802 C1807 1.379 . S
C1802 N1809 1.356 . S
C1803 C1802 1.363 . S
C1803 C1806 1.363 . S
N1804 C1806 1.356 . S
N1804 H1816 0.984 . S
N1804 H1817 0.985 . S
N1805 C1807 1.356 . S
N1805 H1810 0.984 . S
N1805 H1811 0.985 . S
C1806 C1800 1.379 . S
C1806 C1803 1.363 . S
C1806 N1804 1.356 . S
C1807 C1801 1.363 . S
C1807 C1802 1.379 . S
C1807 N1805 1.356 . S
N1808 C1800 1.356 . S
N1808 H1814 0.984 . S
N1808 H1815 0.984 . S
N1809 C1802 1.356 . S
N1809 H1812 0.984 . S
N1809 H1813 0.985 . S
H1810 N1805 0.984 . S
H1811 N1805 0.985 . S
H1812 N1809 0.984 . S
H1813 N1809 0.985 . S
H1814 N1808 0.984 . S
H1815 N1808 0.984 . S
H1816 N1804 0.984 . S
H1817 N1804 0.985 . S
C1818 C1819 1.363 . S
C1818 C1824 1.379 . S
C1818 N1826 1.356 . S
C1819 C1818 1.363 . S
C1819 C1825 1.363 . S
C1820 C1821 1.363 . S
C1820 C1825 1.379 . S
C1820 N1827 1.356 . S
C1821 C1820 1.363 . S
C1821 C1824 1.363 . S
N1822 C1824 1.356 . S
N1822 H1834 0.984 . S
N1822 H1835 0.985 . S
N1823 C1825 1.356 . S
N1823 H1828 0.984 . S
N1823 H1829 0.985 . S
C1824 C1818 1.379 . S
C1824 C1821 1.363 . S
C1824 N1822 1.356 . S
C1825 C1819 1.363 . S
C1825 C1820 1.379 . S
C1825 N1823 1.356 . S
N1826 C1818 1.356 . S
N1826 H1832 0.984 . S
N1826 H1833 0.984 . S
N1827 C1820 1.356 . S
N1827 H1830 0.984 . S
N1827 H1831 0.985 . S
H1828 N1823 0.984 . S
H1829 N1823 0.985 . S
H1830 N1827 0.984 . S
H1831 N1827 0.985 . S
H1832 N1826 0.984 . S
H1833 N1826 0.984 . S
H1834 N1822 0.984 . S
H1835 N1822 0.985 . S
C1836 C1837 1.363 . S
C1836 C1842 1.379 . S
C1836 N1844 1.356 . S
C1837 C1836 1.363 . S
C1837 C1843 1.363 . S
C1838 C1839 1.363 . S
C1838 C1843 1.379 . S
C1838 N1845 1.356 . S
C1839 C1838 1.363 . S
C1839 C1842 1.363 . S
N1840 C1842 1.356 . S
N1840 H1852 0.984 . S
N1840 H1853 0.985 . S
N1841 C1843 1.356 . S
N1841 H1846 0.984 . S
N1841 H1847 0.985 . S
C1842 C1836 1.379 . S
C1842 C1839 1.363 . S
C1842 N1840 1.356 . S
C1843 C1837 1.363 . S
C1843 C1838 1.379 . S
C1843 N1841 1.356 . S
N1844 C1836 1.356 . S
N1844 H1850 0.984 . S
N1844 H1851 0.984 . S
N1845 C1838 1.356 . S
N1845 H1848 0.984 . S
N1845 H1849 0.985 . S
H1846 N1841 0.984 . S
H1847 N1841 0.985 . S
H1848 N1845 0.984 . S
H1849 N1845 0.985 . S
H1850 N1844 0.984 . S
H1851 N1844 0.984 . S
H1852 N1840 0.984 . S
H1853 N1840 0.985 . S
C1854 C1855 1.363 . S
C1854 C1860 1.379 . S
C1854 N1862 1.356 . S
C1855 C1854 1.363 . S
C1855 C1861 1.363 . S
C1856 C1857 1.363 . S
C1856 C1861 1.379 . S
C1856 N1863 1.356 . S
C1857 C1856 1.363 . S
C1857 C1860 1.363 . S
N1858 C1860 1.356 . S
N1858 H1870 0.984 . S
N1858 H1871 0.985 . S
N1859 C1861 1.356 . S
N1859 H1864 0.984 . S
N1859 H1865 0.985 . S
C1860 C1854 1.379 . S
C1860 C1857 1.363 . S
C1860 N1858 1.356 . S
C1861 C1855 1.363 . S
C1861 C1856 1.379 . S
C1861 N1859 1.356 . S
N1862 C1854 1.356 . S
N1862 H1868 0.984 . S
N1862 H1869 0.984 . S
N1863 C1856 1.356 . S
N1863 H1866 0.984 . S
N1863 H1867 0.985 . S
H1864 N1859 0.984 . S
H1865 N1859 0.985 . S
H1866 N1863 0.984 . S
H1867 N1863 0.985 . S
H1868 N1862 0.984 . S
H1869 N1862 0.984 . S
H1870 N1858 0.984 . S
H1871 N1858 0.985 . S
C1872 C1873 1.363 . S
C1872 C1878 1.379 . S
C1872 N1880 1.356 . S
C1873 C1872 1.363 . S
C1873 C1879 1.363 . S
C1874 C1875 1.363 . S
C1874 C1879 1.379 . S
C1874 N1881 1.356 . S
C1875 C1874 1.363 . S
C1875 C1878 1.363 . S
N1876 C1878 1.356 . S
N1876 H1888 0.984 . S
N1876 H1889 0.985 . S
N1877 C1879 1.356 . S
N1877 H1882 0.984 . S
N1877 H1883 0.985 . S
C1878 C1872 1.379 . S
C1878 C1875 1.363 . S
C1878 N1876 1.356 . S
C1879 C1873 1.363 . S
C1879 C1874 1.379 . S
C1879 N1877 1.356 . S
N1880 C1872 1.356 . S
N1880 H1886 0.984 . S
N1880 H1887 0.984 . S
N1881 C1874 1.356 . S
N1881 H1884 0.984 . S
N1881 H1885 0.985 . S
H1882 N1877 0.984 . S
H1883 N1877 0.985 . S
H1884 N1881 0.984 . S
H1885 N1881 0.985 . S
H1886 N1880 0.984 . S
H1887 N1880 0.984 . S
H1888 N1876 0.984 . S
H1889 N1876 0.985 . S
C1890 C1891 1.363 . S
C1890 C1896 1.379 . S
C1890 N1898 1.356 . S
C1891 C1890 1.363 . S
C1891 C1897 1.363 . S
C1892 C1893 1.363 . S
C1892 C1897 1.379 . S
C1892 N1899 1.356 . S
C1893 C1892 1.363 . S
C1893 C1896 1.363 . S
N1894 C1896 1.356 . S
N1894 H1906 0.984 . S
N1894 H1907 0.985 . S
N1895 C1897 1.356 . S
N1895 H1900 0.984 . S
N1895 H1901 0.985 . S
C1896 C1890 1.379 . S
C1896 C1893 1.363 . S
C1896 N1894 1.356 . S
C1897 C1891 1.363 . S
C1897 C1892 1.379 . S
C1897 N1895 1.356 . S
N1898 C1890 1.356 . S
N1898 H1904 0.984 . S
N1898 H1905 0.984 . S
N1899 C1892 1.356 . S
N1899 H1902 0.984 . S
N1899 H1903 0.985 . S
H1900 N1895 0.984 . S
H1901 N1895 0.985 . S
H1902 N1899 0.984 . S
H1903 N1899 0.985 . S
H1904 N1898 0.984 . S
H1905 N1898 0.984 . S
H1906 N1894 0.984 . S
H1907 N1894 0.985 . S
C1908 C1909 1.363 . S
C1908 C1914 1.379 . S
C1908 N1916 1.356 . S
C1909 C1908 1.363 . S
C1909 C1915 1.363 . S
C1910 C1911 1.363 . S
C1910 C1915 1.379 . S
C1910 N1917 1.356 . S
C1911 C1910 1.363 . S
C1911 C1914 1.363 . S
N1912 C1914 1.356 1_556 S
N1912 H1924 0.984 . S
N1912 H1925 0.985 . S
N1913 C1915 1.356 . S
N1913 H1918 0.984 . S
N1913 H1919 0.985 . S
C1914 C1908 1.379 . S
C1914 C1911 1.363 . S
C1914 N1912 1.356 1_554 S
C1915 C1909 1.363 . S
C1915 C1910 1.379 . S
C1915 N1913 1.356 . S
N1916 C1908 1.356 . S
N1916 H1922 0.984 . S
N1916 H1923 0.984 . S
N1917 C1910 1.356 . S
N1917 H1920 0.984 1_554 S
N1917 H1921 0.985 . S
H1918 N1913 0.984 . S
H1919 N1913 0.985 . S
H1920 N1917 0.984 1_556 S
H1921 N1917 0.985 . S
H1922 N1916 0.984 . S
H1923 N1916 0.984 . S
H1924 N1912 0.984 . S
H1925 N1912 0.985 . S
C1926 C1927 1.363 . S
C1926 C1932 1.379 . S
C1926 N1934 1.356 . S
C1927 C1926 1.363 . S
C1927 C1933 1.363 . S
C1928 C1929 1.363 . S
C1928 C1933 1.379 . S
C1928 N1935 1.356 . S
C1929 C1928 1.363 . S
C1929 C1932 1.363 . S
N1930 C1932 1.356 . S
N1930 H1942 0.984 . S
N1930 H1943 0.985 . S
N1931 C1933 1.356 . S
N1931 H1936 0.984 . S
N1931 H1937 0.985 . S
C1932 C1926 1.379 . S
C1932 C1929 1.363 . S
C1932 N1930 1.356 . S
C1933 C1927 1.363 . S
C1933 C1928 1.379 . S
C1933 N1931 1.356 . S
N1934 C1926 1.356 . S
N1934 H1940 0.984 . S
N1934 H1941 0.984 . S
N1935 C1928 1.356 . S
N1935 H1938 0.984 . S
N1935 H1939 0.985 . S
H1936 N1931 0.984 . S
H1937 N1931 0.985 . S
H1938 N1935 0.984 . S
H1939 N1935 0.985 . S
H1940 N1934 0.984 . S
H1941 N1934 0.984 . S
H1942 N1930 0.984 . S
H1943 N1930 0.985 . S
C1944 C1945 1.363 . S
C1944 C1950 1.379 . S
C1944 N1952 1.356 . S
C1945 C1944 1.363 . S
C1945 C1951 1.363 . S
C1946 C1947 1.363 . S
C1946 C1951 1.379 . S
C1946 N1953 1.356 . S
C1947 C1946 1.363 . S
C1947 C1950 1.363 . S
N1948 C1950 1.356 1_556 S
N1948 H1960 0.984 . S
N1948 H1961 0.985 . S
N1949 C1951 1.356 . S
N1949 H1954 0.984 . S
N1949 H1955 0.985 . S
C1950 C1944 1.379 . S
C1950 C1947 1.363 . S
C1950 N1948 1.356 1_554 S
C1951 C1945 1.363 . S
C1951 C1946 1.379 . S
C1951 N1949 1.356 . S
N1952 C1944 1.356 . S
N1952 H1958 0.984 . S
N1952 H1959 0.984 . S
N1953 C1946 1.356 . S
N1953 H1956 0.984 . S
N1953 H1957 0.985 . S
H1954 N1949 0.984 . S
H1955 N1949 0.985 . S
H1956 N1953 0.984 . S
H1957 N1953 0.985 . S
H1958 N1952 0.984 . S
H1959 N1952 0.984 . S
H1960 N1948 0.984 . S
H1961 N1948 0.985 . S
C667 C7 1.441 . S
C669 C568 1.442 . S
C687 C545 1.816 . S
C685 C39 1.794 . S
C705 C554 1.642 1_545 S
C703 C62 1.586 . S
C721 C76 1.846 . S
C723 C624 1.843 . S
C739 C108 1.519 . S
C741 C643 1.516 1_455 S
C757 N117 1.424 . S
C759 C657 1.419 . S
C777 C619 1.438 1_455 S
C775 C16 1.425 . S
C793 C30 1.847 . S
C795 C587 1.849 . S
C813 C605 1.544 . S
C811 C53 1.557 . S
C829 C85 1.831 . S
C831 C507 1.828 . S
C849 C517 1.729 . S
C847 C99 1.714 . S
C865 N127 1.325 . S
C867 C531 1.394 . S
C883 N150 1.174 . S
C885 C652 1.192 . S
C903 C629 1.575 . S
C901 N173 1.557 . S
C921 C638 1.440 . S
C919 C200 1.415 . S
C937 C214 1.667 . S
C939 C456 1.682 . S
C955 N232 1.569 . S
C957 C475 1.583 . S
C973 C260 1.520 . S
C975 C489 1.537 . S
C993 C451 1.303 . S
C991 N140 1.263 . S
C1009 N163 1.310 . S
C1011 C419 1.346 . S
C1029 C437 1.639 . S
C1027 C191 1.633 . S
C1047 C591 1.936 . S
C1045 C223 1.946 . S
C1065 C601 1.577 . S
C1063 N242 1.500 . S
C1083 C615 1.543 . S
C1081 C269 1.550 . S
C1099 N288 1.354 . S
C1101 C484 1.361 . S
C1117 C315 1.539 . S
C1119 C461 1.574 . S
C1135 C338 1.658 . S
C1137 C470 1.673 . S
C1153 C352 1.852 . S
C1155 C540 1.850 . S
C1173 C559 1.628 . S
C1171 N370 1.623 . S
C1191 C573 1.615 . S
C1189 C398 1.594 . S
C1209 C535 1.245 . S
C1207 N278 1.179 . S
C1225 C306 1.741 . S
C1227 C503 1.748 . S
C1243 C329 1.649 . S
C1245 C521 1.646 1_655 S
C1263 C423 1.577 . S
C1261 C361 1.586 . S
C1279 N380 1.528 . S
C1281 C433 1.596 . S
C1299 C447 1.508 . S
C1297 C407 1.506 . S
C1317 C467 1.429 . S
C1315 N12 1.376 . S
C1333 N25 1.597 . S
C1335 C479 1.598 . S
C1353 C493 1.348 . S
C1351 N48 1.334 1_545 S
C1371 C495 1.347 . S
C1369 N81 1.329 . S
C1389 C465 1.547 . S
C1387 N94 1.507 . S
C1407 C481 1.572 . S
C1405 C131 1.555 . S
C1425 C425 1.420 . S
C1423 N2 1.434 . S
C1441 N35 1.485 . S
C1443 C428 1.523 . S
C1459 N58 1.328 . S
C1461 C442 1.363 . S
C1479 C453 1.298 . S
C1477 N71 1.258 . S
C1497 C414 1.408 . S
C1495 N104 1.383 . S
C1515 C439 1.589 . S
C1513 C122 1.598 . S
C1531 C145 2.004 . S
C1533 C551 2.022 . S
C1549 C168 1.759 . S
C1551 C563 1.760 . S
C1567 N186 1.442 . S
C1569 C577 1.439 . S
C1587 C579 1.368 . S
C1585 N219 1.366 . S
C1605 C549 1.813 . S
C1603 C246 1.780 . S
C1623 C565 1.472 . S
C1621 N265 1.449 . S
C1641 C509 1.907 . S
C1639 C154 1.934 . S
C1657 C177 1.855 . S
C1659 C512 1.841 . S
C1675 N196 1.267 . S
C1677 C526 1.298 . S
C1693 N209 1.154 . S
C1695 C537 1.220 . S
C1711 C237 1.832 . S
C1713 C498 1.816 . S
C1731 C523 1.428 . S
C1729 N255 1.385 . S
C1747 C283 1.772 . S
C1749 C635 1.772 . S
C1765 N301 1.475 . S
C1767 C647 1.470 . S
C1783 N324 1.343 . S
C1785 C661 1.338 . S
C1803 C663 1.187 . S
C1801 N357 1.162 . S
C1821 C633 1.783 . S
C1819 C384 1.776 . S
C1837 N403 1.327 . S
C1839 C649 1.341 . S
C1855 C292 1.872 . S
C1857 C593 1.849 . S
C1875 C596 1.391 . S
C1873 N311 1.358 . S
C1891 N334 1.399 . S
C1893 C610 1.445 . S
C1909 N347 1.316 . S
C1911 C621 1.343 1_554 S
C1929 C582 1.866 . S
C1927 C375 1.883 . S
C1945 N393 1.347 . S
C1947 C607 1.399 1_554 S
