# Generated by pormake.
# Topology bcu-b, (8,8)-cn, num edge types: 1
# Building blocks:
#     Node 0, Type 0, BuildingBlock: VETTIZ_charged_sbu_0, # of connection points: 8
#     Node 1, Type 1, BuildingBlock: TAGTUT_clean_sbu_3, # of connection points: 8
#     Edge 2, Type (0, 1), BuildingBlock: FUNLAD_clean_linker_1, # of connection points: 2
#     Edge 3, Type (0, 1), BuildingBlock: FUNLAD_clean_linker_1, # of connection points: 2
#     Edge 4, Type (0, 1), BuildingBlock: FUNLAD_clean_linker_1, # of connection points: 2
#     Edge 5, Type (0, 1), BuildingBlock: FUNLAD_clean_linker_1, # of connection points: 2
#     Edge 6, Type (0, 1), BuildingBlock: FUNLAD_clean_linker_1, # of connection points: 2
#     Edge 7, Type (0, 1), BuildingBlock: FUNLAD_clean_linker_1, # of connection points: 2
#     Edge 8, Type (0, 1), BuildingBlock: FUNLAD_clean_linker_1, # of connection points: 2
#     Edge 9, Type (0, 1), BuildingBlock: FUNLAD_clean_linker_1, # of connection points: 2
# Relax obj value: 0.020
# Max RMSD: 0.101
# Mean RMSD: 0.073
data_MOF--net-bcu-b--node1-VETTIZ_charged_sbu_0--node2-TAGTUT_clean_sbu_3--edge1-FUNLAD_clean_linker_1
_symmetry_space_group_name_H-M    P1
_symmetry_Int_Tables_number       1
_symmetry_cell_setting            triclinic
loop_
_symmetry_equiv_pos_as_xyz
'x, y, z'
_cell_length_a     20.295162
_cell_length_b     20.458855
_cell_length_c     21.088218
_cell_angle_alpha  90.830729
_cell_angle_beta   89.385023
_cell_angle_gamma 99.472716
loop_
_atom_site_label
_atom_site_type_symbol
_atom_site_fract_x
_atom_site_fract_y
_atom_site_fract_z
_atom_type_partial_charge
Fe0 Fe 0.01475 0.9381 0.00641 0.0
O1 O 0.97435 0.00508 0.0564 0.0
Fe2 Fe 0.05073 0.01378 0.86043 0.0
Fe3 Fe 0.97505 0.01079 0.14876 0.0
O4 O 0.05484 0.01519 0.95368 0.0
O5 O 0.05483 0.0217 0.95366 0.0
O6 O 0.97227 0.01057 0.05535 0.0
Fe7 Fe 0.0109 0.08791 1.00215 0.0
C8 C 0.92435 0.86699 0.11278 0.0
O9 O 0.09879 0.95071 0.06219 0.0
O10 O 0.05081 0.95533 0.15768 0.0
O11 O 0.06053 0.16031 0.93969 0.0
O12 O 0.11725 0.10165 0.86839 0.0
O13 O 0.11461 0.94495 0.86958 0.0
O14 O 0.06087 0.87636 0.94651 0.0
O15 O 0.04581 0.09479 0.15536 0.0
O16 O 0.09347 0.10905 0.0596 0.0
C17 C 0.10257 0.88891 0.89935 0.0
O18 O 0.92827 0.0719 0.94419 0.0
O19 O 0.9812 0.0753 0.85139 0.0
O20 O 0.96761 0.86508 0.06729 0.0
O21 O 0.9117 0.92074 0.14079 0.0
C22 C 0.09987 0.94592 0.12232 0.0
C23 C 0.09514 0.11672 0.11954 0.0
C24 C 0.91198 0.12851 0.10478 0.0
O25 O 0.90662 0.07417 0.13727 0.0
O26 O 0.95599 0.14592 0.05973 0.0
C27 C 0.10549 0.15649 0.89541 0.0
O28 O 0.97403 0.93298 0.85503 0.0
O29 O 0.93031 0.92201 0.95251 0.0
C30 C 0.93134 0.08437 0.88529 0.0
C31 C 0.92578 0.913 0.89302 0.0
C32 C 0.62932 0.61446 0.59487 0.0
C33 C 0.69269 0.37147 0.58436 0.0
C34 C 0.6309 0.37592 0.39097 0.0
Mg35 Mg 0.51194 0.67053 0.5196 0.0
Mg36 Mg 0.37567 0.57184 0.47232 0.0
O37 O 0.46913 0.58876 0.4721 0.0
Mg38 Mg 0.52239 0.52202 0.50438 0.0
O39 O 0.58157 0.46073 0.53591 0.0
Mg40 Mg 0.66941 0.50214 0.49722 0.0
Mg41 Mg 0.55583 0.3699 0.51645 0.0
C42 C 0.40894 0.43727 0.4103 0.0
O43 O 0.44062 0.46905 0.57208 0.0
O44 O 0.44934 0.7309 0.45532 0.0
O45 O 0.45485 0.36241 0.55622 0.0
O46 O 0.42821 0.66184 0.59461 0.0
O47 O 0.36257 0.65732 0.41889 0.0
O48 O 0.34057 0.58569 0.56831 0.0
O49 O 0.60816 0.56707 0.4395 0.0
O50 O 0.59603 0.67388 0.44616 0.0
C51 C 0.62656 0.62794 0.42489 0.0
C52 C 0.39689 0.71581 0.42081 0.0
O53 O 0.46961 0.44716 0.43003 0.0
O54 O 0.71556 0.4288 0.5612 0.0
O55 O 0.3665 0.47539 0.42524 0.0
O56 O 0.66593 0.42679 0.41608 0.0
O57 O 0.6335 0.34069 0.57312 0.0
O58 O 0.57747 0.34681 0.4176 0.0
O59 O 0.56852 0.60097 0.57657 0.0
O60 O 0.67361 0.58121 0.57483 0.0
C61 C 0.37056 0.62898 0.60699 0.0
C62 C 0.4224 0.40622 0.57972 0.0
H63 H 0.18187 0.19789 0.12015 0.0
C64 C 0.15346 0.15873 0.14831 0.0
H65 H 0.14012 0.11244 0.23711 0.0
H66 H 0.42263 0.33653 0.25757 0.0
H67 H 0.46986 0.26889 0.1795 0.0
H68 H 0.40114 0.16987 0.13206 0.0
H69 H 0.28424 0.13872 0.16157 0.0
C70 C 0.16845 0.15226 0.20963 0.0
C71 C 0.21362 0.20501 0.24462 0.0
C72 C 0.28242 0.22103 0.22863 0.0
C73 C 0.32285 0.2764 0.25822 0.0
C74 C 0.39028 0.29367 0.2385 0.0
C75 C 0.41795 0.25542 0.19343 0.0
C76 C 0.3792 0.19978 0.16656 0.0
C77 C 0.31213 0.18266 0.18362 0.0
H78 H 0.40848 0.33388 0.37707 0.0
C79 C 0.38528 0.37765 0.3714 0.0
H80 H 0.31015 0.42033 0.32787 0.0
H81 H 0.08429 0.18508 0.28985 0.0
H82 H 0.04033 0.24521 0.37561 0.0
H83 H 0.11243 0.3359 0.43209 0.0
H84 H 0.22872 0.3675 0.40232 0.0
C85 C 0.33274 0.37602 0.33279 0.0
C86 C 0.29489 0.31354 0.30581 0.0
C87 C 0.22745 0.29407 0.32524 0.0
C88 C 0.18653 0.24043 0.29409 0.0
C89 C 0.11844 0.22427 0.3127 0.0
C90 C 0.09231 0.25857 0.36187 0.0
C91 C 0.13281 0.30971 0.39354 0.0
C92 C 0.1995 0.32754 0.37564 0.0
H93 H 0.84581 0.20052 0.08036 0.0
C94 C 0.86182 0.17208 0.1187 0.0
H95 H 0.85064 0.14411 0.21406 0.0
H96 H 0.67663 0.39426 0.21455 0.0
H97 H 0.76878 0.46186 0.15904 0.0
H98 H 0.86709 0.41394 0.12359 0.0
H99 H 0.87269 0.29834 0.14058 0.0
C100 C 0.83366 0.17349 0.17687 0.0
C101 C 0.77393 0.20525 0.1929 0.0
C102 C 0.77428 0.27433 0.1861 0.0
C103 C 0.72038 0.30356 0.21149 0.0
C104 C 0.71853 0.37108 0.1994 0.0
C105 C 0.77071 0.41011 0.16735 0.0
C106 C 0.82587 0.38302 0.1471 0.0
C107 C 0.8281 0.3161 0.15657 0.0
H108 H 0.71462 0.36307 0.32951 0.0
C109 C 0.66119 0.34672 0.3357 0.0
H110 H 0.57676 0.28253 0.30237 0.0
H111 H 0.7483 0.0699 0.20036 0.0
H112 H 0.6551 0.0037 0.25458 0.0
H113 H 0.56817 0.0564 0.30772 0.0
H114 H 0.57328 0.17526 0.3062 0.0
C115 C 0.62991 0.29971 0.29624 0.0
C116 C 0.67043 0.26578 0.24983 0.0
C117 C 0.6665 0.196 0.2512 0.0
C118 C 0.71771 0.16573 0.2219 0.0
C119 C 0.71202 0.09576 0.22338 0.0
C120 C 0.65853 0.05706 0.254 0.0
C121 C 0.60956 0.08673 0.28386 0.0
C122 C 0.61329 0.15529 0.28276 0.0
H123 H 0.90585 0.75762 0.11724 0.0
C124 C 0.89202 0.80258 0.13775 0.0
H125 H 0.83978 0.84331 0.21126 0.0
H126 H 0.67383 0.54467 0.24236 0.0
H127 H 0.63958 0.54857 0.13223 0.0
H128 H 0.69175 0.63899 0.06264 0.0
H129 H 0.77863 0.72547 0.10221 0.0
C130 C 0.85131 0.79851 0.18845 0.0
C131 C 0.8303 0.73557 0.22252 0.0
C132 C 0.78024 0.68539 0.19772 0.0
C133 C 0.74915 0.634 0.23799 0.0
C134 C 0.69816 0.58505 0.21345 0.0
C135 C 0.67834 0.5867 0.15052 0.0
C136 C 0.70783 0.63756 0.11131 0.0
C137 C 0.75786 0.6868 0.13452 0.0
H138 H 0.70013 0.70118 0.37766 0.0
C139 C 0.68453 0.64808 0.38354 0.0
H140 H 0.69915 0.5527 0.35155 0.0
H141 H 0.93638 0.81421 0.27922 0.0
H142 H 0.97536 0.80376 0.38671 0.0
H143 H 0.92032 0.71431 0.456 0.0
H144 H 0.82528 0.63491 0.41792 0.0
C145 C 0.71563 0.6059 0.34973 0.0
C146 C 0.76674 0.63477 0.30268 0.0
C147 C 0.82361 0.67843 0.32423 0.0
C148 C 0.85518 0.7295 0.28428 0.0
C149 C 0.91006 0.77471 0.30801 0.0
C150 C 0.93304 0.76909 0.36946 0.0
C151 C 0.90211 0.71867 0.40844 0.0
C152 C 0.84777 0.67376 0.38633 0.0
H153 H 0.19258 0.90178 0.12057 0.0
C154 C 0.15671 0.92077 0.15148 0.0
H155 H 0.12464 0.93283 0.24586 0.0
H156 H 0.22151 0.68469 0.35734 0.0
H157 H 0.10263 0.64615 0.34973 0.0
H158 H 0.03033 0.71037 0.2923 0.0
H159 H 0.07602 0.81517 0.24437 0.0
C160 C 0.16142 0.91553 0.2148 0.0
C161 C 0.2073 0.87499 0.24414 0.0
C162 C 0.17983 0.81355 0.27159 0.0
C163 C 0.22204 0.7751 0.30234 0.0
C164 C 0.19251 0.71505 0.33134 0.0
C165 C 0.12408 0.6924 0.32777 0.0
C166 C 0.08329 0.72879 0.29579 0.0
C167 C 0.11036 0.78887 0.26839 0.0
H168 H 0.38005 0.81849 0.4033 0.0
C169 C 0.37209 0.7681 0.38454 0.0
H170 H 0.32839 0.70173 0.31403 0.0
H171 H 0.27518 0.99254 0.20062 0.0
H172 H 0.39526 0.02882 0.20267 0.0
H173 H 0.46974 0.95812 0.24818 0.0
H174 H 0.42461 0.85145 0.2932 0.0
C175 C 0.33521 0.75245 0.33207 0.0
C176 C 0.29221 0.79699 0.30397 0.0
C177 C 0.31985 0.85814 0.27566 0.0
C178 C 0.27711 0.89779 0.24688 0.0
C179 C 0.30554 0.95984 0.22147 0.0
C180 C 0.37433 0.98128 0.22246 0.0
C181 C 0.41625 0.94155 0.24828 0.0
C182 C 0.38964 0.88056 0.27439 0.0
H183 H 0.1185 0.78461 0.8965 0.0
C184 C 0.13312 0.83267 0.87459 0.0
H185 H 0.18495 0.88456 0.79869 0.0
H186 H 0.31083 0.60366 0.78703 0.0
H187 H 0.34984 0.62859 0.89472 0.0
H188 H 0.3185 0.72373 0.95428 0.0
H189 H 0.24699 0.7935 0.90737 0.0
C190 C 0.17252 0.8374 0.82265 0.0
C191 C 0.19029 0.77773 0.78936 0.0
C192 C 0.23385 0.7388 0.81712 0.0
C193 C 0.2547 0.6859 0.7817 0.0
C194 C 0.29587 0.64599 0.81118 0.0
C195 C 0.31818 0.6595 0.87296 0.0
C196 C 0.30032 0.71293 0.90657 0.0
C197 C 0.25885 0.7524 0.87917 0.0
H198 H 0.3637 0.69013 0.69197 0.0
C199 C 0.33598 0.65013 0.66366 0.0
H200 H 0.24128 0.5939 0.64564 0.0
H201 H 0.09822 0.83538 0.7258 0.0
H202 H 0.05947 0.80999 0.61857 0.0
H203 H 0.101 0.72294 0.55497 0.0
H204 H 0.18059 0.66018 0.59841 0.0
C205 C 0.2703 0.63193 0.67503 0.0
C206 C 0.23506 0.6743 0.7176 0.0
C207 C 0.18816 0.71042 0.69131 0.0
C208 C 0.16544 0.76178 0.72741 0.0
C209 C 0.11833 0.79685 0.70009 0.0
C210 C 0.09541 0.78263 0.63862 0.0
C211 C 0.11871 0.73356 0.60287 0.0
C212 C 0.16457 0.69784 0.62854 0.0
H213 H 0.13652 0.2658 0.895 0.0
C214 C 0.14328 0.21966 0.87158 0.0
H215 H 0.19037 0.17554 0.79612 0.0
H216 H 0.22661 0.44038 0.63582 0.0
H217 H 0.10601 0.41546 0.62158 0.0
H218 H 0.03678 0.33002 0.68606 0.0
H219 H 0.08736 0.26909 0.76524 0.0
C220 C 0.18316 0.22122 0.82009 0.0
C221 C 0.22029 0.28363 0.79344 0.0
C222 C 0.18961 0.31934 0.74827 0.0
C223 C 0.22948 0.36822 0.71068 0.0
C224 C 0.19823 0.40237 0.66497 0.0
C225 C 0.12929 0.38867 0.65655 0.0
C226 C 0.09029 0.34057 0.69291 0.0
C227 C 0.11987 0.30592 0.73813 0.0
H228 H 0.3451 0.32849 0.61704 0.0
C229 C 0.36474 0.38121 0.6206 0.0
H230 H 0.36466 0.46836 0.67616 0.0
H231 H 0.29255 0.23203 0.88299 0.0
H232 H 0.41212 0.26118 0.90047 0.0
H233 H 0.48101 0.3464 0.83558 0.0
H234 H 0.4308 0.40296 0.7527 0.0
C235 C 0.34326 0.41664 0.66838 0.0
C236 C 0.29961 0.38074 0.71817 0.0
C237 C 0.32919 0.3501 0.76785 0.0
C238 C 0.28951 0.30114 0.80529 0.0
C239 C 0.32067 0.26939 0.85303 0.0
C240 C 0.3891 0.2858 0.86364 0.0
C241 C 0.42789 0.3338 0.82711 0.0
C242 C 0.39857 0.3657 0.77963 0.0
H243 H 0.83291 0.11843 0.88181 0.0
C244 C 0.87924 0.11651 0.85608 0.0
H245 H 0.93664 0.14386 0.77352 0.0
H246 H 0.71643 0.18278 0.58317 0.0
H247 H 0.74431 0.07803 0.54572 0.0
H248 H 0.81585 0.01776 0.60896 0.0
H249 H 0.85953 0.06166 0.71022 0.0
C250 C 0.89035 0.14596 0.79932 0.0
C251 C 0.84046 0.17874 0.76646 0.0
C252 C 0.81417 0.15174 0.70793 0.0
C253 C 0.77244 0.18615 0.6718 0.0
C254 C 0.74785 0.15847 0.61296 0.0
C255 C 0.76362 0.09843 0.59074 0.0
C256 C 0.80405 0.06461 0.62624 0.0
C257 C 0.82896 0.09053 0.68424 0.0
H258 H 0.78778 0.36311 0.63191 0.0
C259 C 0.73611 0.33967 0.62583 0.0
H260 H 0.66183 0.25815 0.64913 0.0
H261 H 0.88608 0.24693 0.87466 0.0
H262 H 0.85579 0.35013 0.91336 0.0
H263 H 0.77818 0.40655 0.85357 0.0
H264 H 0.73124 0.3605 0.75415 0.0
C265 C 0.71301 0.2827 0.65588 0.0
C266 C 0.75701 0.24757 0.69423 0.0
C267 C 0.78194 0.27389 0.75351 0.0
C268 C 0.82467 0.23998 0.78922 0.0
C269 C 0.85169 0.26923 0.84657 0.0
C270 C 0.83496 0.32873 0.86924 0.0
C271 C 0.7914 0.36058 0.8355 0.0
C272 C 0.76503 0.33373 0.77831 0.0
H273 H 0.82634 0.85167 0.90354 0.0
C274 C 0.86341 0.87349 0.869 0.0
H275 H 0.88678 0.88486 0.77151 0.0
H276 H 0.67665 0.60223 0.76121 0.0
H277 H 0.75972 0.55696 0.82115 0.0
H278 H 0.85871 0.62998 0.86369 0.0
H279 H 0.87499 0.74833 0.84717 0.0
C280 C 0.85175 0.86161 0.80704 0.0
C281 C 0.7903 0.81741 0.78497 0.0
C282 C 0.78212 0.74798 0.79483 0.0
C283 C 0.72601 0.70558 0.76888 0.0
C284 C 0.71882 0.6365 0.77927 0.0
C285 C 0.76604 0.60988 0.81364 0.0
C286 C 0.82168 0.651 0.8377 0.0
C287 C 0.83012 0.71914 0.82824 0.0
H288 H 0.69999 0.70483 0.61303 0.0
C289 C 0.65394 0.67545 0.63051 0.0
H290 H 0.59205 0.65348 0.71094 0.0
H291 H 0.786 0.94847 0.76471 0.0
H292 H 0.70052 0.99294 0.70696 0.0
H293 H 0.60626 0.91855 0.65805 0.0
H294 H 0.59522 0.79885 0.66862 0.0
C295 C 0.6336 0.68652 0.68973 0.0
C296 C 0.67989 0.7322 0.73096 0.0
C297 C 0.68603 0.80163 0.72405 0.0
C298 C 0.7411 0.84439 0.75137 0.0
C299 C 0.74558 0.91369 0.74424 0.0
C300 C 0.69701 0.93984 0.71116 0.0
C301 C 0.64372 0.89792 0.68378 0.0
C302 C 0.63809 0.8295 0.68991 0.0
loop_
_geom_bond_atom_site_label_1
_geom_bond_atom_site_label_2
_geom_bond_distance
_geom_bond_site_symmetry_2
_ccdc_geom_bond_type
Fe0 O1 1.895 . S
Fe0 O4 1.705 1_554 S
Fe0 O9 2.086 1_655 S
Fe0 O14 1.928 1_654 S
Fe0 O20 2.086 . S
Fe0 O29 1.928 1_554 S
O1 Fe0 1.895 . S
O1 Fe3 1.715 1_665 S
Fe2 O4 1.886 1_445 S
Fe2 O5 1.715 . S
Fe2 O12 1.935 . S
Fe2 O13 2.077 1_545 S
Fe2 O19 1.935 1_455 S
Fe2 O28 2.077 1_445 S
Fe3 O1 1.715 1_445 S
Fe3 O6 1.886 . S
Fe3 O10 1.935 1_545 S
Fe3 O15 2.077 . S
Fe3 O21 1.935 1_445 S
Fe3 O25 2.077 1_455 S
O4 Fe0 1.705 1_556 S
O4 Fe2 1.886 1_665 S
O5 Fe2 1.715 . S
O5 Fe7 1.890 . S
O6 Fe3 1.886 . S
O6 Fe7 1.711 1_554 S
Fe7 O5 1.890 . S
Fe7 O6 1.711 1_556 S
Fe7 O11 2.081 . S
Fe7 O16 1.932 1_556 S
Fe7 O18 2.081 1_455 S
Fe7 O26 1.932 1_456 S
C8 O20 1.381 . S
C8 O21 1.421 . S
O9 Fe0 2.086 1_455 S
O9 C22 1.381 . S
O10 Fe3 1.935 1_565 S
O10 C22 1.421 . S
O11 Fe7 2.081 . S
O11 C27 1.381 . S
O12 Fe2 1.935 . S
O12 C27 1.421 . S
O13 Fe2 2.077 1_565 S
O13 C17 1.381 . S
O14 Fe0 1.928 1_456 S
O14 C17 1.421 . S
O15 Fe3 2.077 . S
O15 C23 1.381 . S
O16 Fe7 1.932 1_554 S
O16 C23 1.421 . S
C17 O13 1.381 . S
C17 O14 1.421 . S
O18 Fe7 2.081 1_655 S
O18 C30 1.381 . S
O19 Fe2 1.935 1_655 S
O19 C30 1.421 . S
O20 Fe0 2.086 . S
O20 C8 1.381 . S
O21 Fe3 1.935 1_665 S
O21 C8 1.421 . S
C22 O9 1.381 . S
C22 O10 1.421 . S
C23 O15 1.381 . S
C23 O16 1.421 . S
C24 O25 1.381 . S
C24 O26 1.421 . S
O25 Fe3 2.077 1_655 S
O25 C24 1.381 . S
O26 Fe7 1.932 1_654 S
O26 C24 1.421 . S
C27 O11 1.381 . S
C27 O12 1.421 . S
O28 Fe2 2.077 1_665 S
O28 C31 1.381 . S
O29 Fe0 1.928 1_556 S
O29 C31 1.421 . S
C30 O18 1.381 . S
C30 O19 1.421 . S
C31 O28 1.381 . S
C31 O29 1.421 . S
C32 O59 1.312 . S
C32 O60 1.208 . S
C33 O54 1.331 . S
C33 O57 1.244 . S
C34 O56 1.264 . S
C34 O58 1.273 . S
Mg35 O37 1.936 . S
Mg35 O44 2.081 . S
Mg35 O46 2.023 . S
Mg35 O50 2.031 . S
Mg35 O59 2.291 . S
Mg36 O37 1.963 . S
Mg36 O47 1.942 . S
Mg36 O48 1.955 . S
Mg36 O55 1.986 . S
O37 Mg35 1.936 . S
O37 Mg36 1.963 . S
O37 Mg38 1.915 . S
Mg38 O37 1.915 . S
Mg38 O39 1.915 . S
Mg38 O43 2.013 . S
Mg38 O49 2.114 . S
Mg38 O53 2.013 . S
Mg38 O59 2.114 . S
O39 Mg38 1.915 . S
O39 Mg40 1.936 . S
O39 Mg41 1.963 . S
Mg40 O39 1.936 . S
Mg40 O49 2.291 . S
Mg40 O54 2.081 . S
Mg40 O56 2.023 . S
Mg40 O60 2.031 . S
Mg41 O39 1.963 . S
Mg41 O45 1.986 . S
Mg41 O57 1.942 . S
Mg41 O58 1.955 . S
C42 O53 1.191 . S
C42 O55 1.307 . S
O43 Mg38 2.013 . S
O43 C62 1.191 . S
O44 Mg35 2.081 . S
O44 C52 1.331 . S
O45 Mg41 1.986 . S
O45 C62 1.307 . S
O46 Mg35 2.023 . S
O46 C61 1.264 . S
O47 Mg36 1.942 . S
O47 C52 1.244 . S
O48 Mg36 1.955 . S
O48 C61 1.273 . S
O49 Mg38 2.114 . S
O49 Mg40 2.291 . S
O49 C51 1.312 . S
O50 Mg35 2.031 . S
O50 C51 1.208 . S
C51 O49 1.312 . S
C51 O50 1.208 . S
C52 O44 1.331 . S
C52 O47 1.244 . S
O53 Mg38 2.013 . S
O53 C42 1.191 . S
O54 C33 1.331 . S
O54 Mg40 2.081 . S
O55 Mg36 1.986 . S
O55 C42 1.307 . S
O56 C34 1.264 . S
O56 Mg40 2.023 . S
O57 C33 1.244 . S
O57 Mg41 1.942 . S
O58 C34 1.273 . S
O58 Mg41 1.955 . S
O59 C32 1.312 . S
O59 Mg35 2.291 . S
O59 Mg38 2.114 . S
O60 C32 1.208 . S
O60 Mg40 2.031 . S
C61 O46 1.264 . S
C61 O48 1.273 . S
C62 O43 1.191 . S
C62 O45 1.307 . S
H63 C64 0.951 . S
C64 H63 0.951 . S
C64 C70 1.265 . S
H65 C70 0.950 . S
H66 C74 0.949 . S
H67 C75 0.950 . S
H68 C76 0.951 . S
H69 C77 0.951 . S
C70 C64 1.265 . S
C70 H65 0.950 . S
C70 C71 1.478 . S
C71 C70 1.478 . S
C71 C72 1.397 . S
C71 C88 1.394 . S
C72 C71 1.397 . S
C72 C73 1.438 . S
C72 C77 1.429 . S
C73 C72 1.438 . S
C73 C74 1.428 . S
C73 C86 1.394 . S
C74 H66 0.949 . S
C74 C73 1.428 . S
C74 C75 1.345 . S
C75 H67 0.950 . S
C75 C74 1.345 . S
C75 C76 1.424 . S
C76 H68 0.951 . S
C76 C75 1.424 . S
C76 C77 1.347 . S
C77 H69 0.951 . S
C77 C72 1.429 . S
C77 C76 1.347 . S
H78 C79 0.951 . S
C79 H78 0.951 . S
C79 C85 1.265 . S
H80 C85 0.950 . S
H81 C89 0.949 . S
H82 C90 0.950 . S
H83 C91 0.951 . S
H84 C92 0.951 . S
C85 C79 1.265 . S
C85 H80 0.950 . S
C85 C86 1.478 . S
C86 C73 1.394 . S
C86 C85 1.478 . S
C86 C87 1.397 . S
C87 C86 1.397 . S
C87 C88 1.438 . S
C87 C92 1.429 . S
C88 C71 1.394 . S
C88 C87 1.438 . S
C88 C89 1.428 . S
C89 H81 0.949 . S
C89 C88 1.428 . S
C89 C90 1.345 . S
C90 H82 0.950 . S
C90 C89 1.345 . S
C90 C91 1.424 . S
C91 H83 0.951 . S
C91 C90 1.424 . S
C91 C92 1.347 . S
C92 H84 0.951 . S
C92 C87 1.429 . S
C92 C91 1.347 . S
H93 C94 0.951 . S
C94 H93 0.951 . S
C94 C100 1.265 . S
H95 C100 0.950 . S
H96 C104 0.949 . S
H97 C105 0.950 . S
H98 C106 0.951 . S
H99 C107 0.951 . S
C100 C94 1.265 . S
C100 H95 0.950 . S
C100 C101 1.478 . S
C101 C100 1.478 . S
C101 C102 1.397 . S
C101 C118 1.394 . S
C102 C101 1.397 . S
C102 C103 1.438 . S
C102 C107 1.429 . S
C103 C102 1.438 . S
C103 C104 1.428 . S
C103 C116 1.394 . S
C104 H96 0.949 . S
C104 C103 1.428 . S
C104 C105 1.345 . S
C105 H97 0.950 . S
C105 C104 1.345 . S
C105 C106 1.424 . S
C106 H98 0.951 . S
C106 C105 1.424 . S
C106 C107 1.347 . S
C107 H99 0.951 . S
C107 C102 1.429 . S
C107 C106 1.347 . S
H108 C109 0.951 . S
C109 H108 0.951 . S
C109 C115 1.265 . S
H110 C115 0.950 . S
H111 C119 0.949 . S
H112 C120 0.950 . S
H113 C121 0.951 . S
H114 C122 0.951 . S
C115 C109 1.265 . S
C115 H110 0.950 . S
C115 C116 1.478 . S
C116 C103 1.394 . S
C116 C115 1.478 . S
C116 C117 1.397 . S
C117 C116 1.397 . S
C117 C118 1.438 . S
C117 C122 1.429 . S
C118 C101 1.394 . S
C118 C117 1.438 . S
C118 C119 1.428 . S
C119 H111 0.949 . S
C119 C118 1.428 . S
C119 C120 1.345 . S
C120 H112 0.950 . S
C120 C119 1.345 . S
C120 C121 1.424 . S
C121 H113 0.951 . S
C121 C120 1.424 . S
C121 C122 1.347 . S
C122 H114 0.951 . S
C122 C117 1.429 . S
C122 C121 1.347 . S
H123 C124 0.951 . S
C124 H123 0.951 . S
C124 C130 1.265 . S
H125 C130 0.950 . S
H126 C134 0.949 . S
H127 C135 0.950 . S
H128 C136 0.951 . S
H129 C137 0.951 . S
C130 C124 1.265 . S
C130 H125 0.950 . S
C130 C131 1.478 . S
C131 C130 1.478 . S
C131 C132 1.397 . S
C131 C148 1.394 . S
C132 C131 1.397 . S
C132 C133 1.438 . S
C132 C137 1.429 . S
C133 C132 1.438 . S
C133 C134 1.428 . S
C133 C146 1.394 . S
C134 H126 0.949 . S
C134 C133 1.428 . S
C134 C135 1.345 . S
C135 H127 0.950 . S
C135 C134 1.345 . S
C135 C136 1.424 . S
C136 H128 0.951 . S
C136 C135 1.424 . S
C136 C137 1.347 . S
C137 H129 0.951 . S
C137 C132 1.429 . S
C137 C136 1.347 . S
H138 C139 0.951 . S
C139 H138 0.951 . S
C139 C145 1.265 . S
H140 C145 0.950 . S
H141 C149 0.949 . S
H142 C150 0.950 . S
H143 C151 0.951 . S
H144 C152 0.951 . S
C145 C139 1.265 . S
C145 H140 0.950 . S
C145 C146 1.478 . S
C146 C133 1.394 . S
C146 C145 1.478 . S
C146 C147 1.397 . S
C147 C146 1.397 . S
C147 C148 1.438 . S
C147 C152 1.429 . S
C148 C131 1.394 . S
C148 C147 1.438 . S
C148 C149 1.428 . S
C149 H141 0.949 . S
C149 C148 1.428 . S
C149 C150 1.345 . S
C150 H142 0.950 . S
C150 C149 1.345 . S
C150 C151 1.424 . S
C151 H143 0.951 . S
C151 C150 1.424 . S
C151 C152 1.347 . S
C152 H144 0.951 . S
C152 C147 1.429 . S
C152 C151 1.347 . S
H153 C154 0.951 . S
C154 H153 0.951 . S
C154 C160 1.265 . S
H155 C160 0.950 . S
H156 C164 0.949 . S
H157 C165 0.950 . S
H158 C166 0.951 . S
H159 C167 0.951 . S
C160 C154 1.265 . S
C160 H155 0.950 . S
C160 C161 1.478 . S
C161 C160 1.478 . S
C161 C162 1.397 . S
C161 C178 1.394 . S
C162 C161 1.397 . S
C162 C163 1.438 . S
C162 C167 1.429 . S
C163 C162 1.438 . S
C163 C164 1.428 . S
C163 C176 1.394 . S
C164 H156 0.949 . S
C164 C163 1.428 . S
C164 C165 1.345 . S
C165 H157 0.950 . S
C165 C164 1.345 . S
C165 C166 1.424 . S
C166 H158 0.951 . S
C166 C165 1.424 . S
C166 C167 1.347 . S
C167 H159 0.951 . S
C167 C162 1.429 . S
C167 C166 1.347 . S
H168 C169 0.951 . S
C169 H168 0.951 . S
C169 C175 1.265 . S
H170 C175 0.950 . S
H171 C179 0.949 . S
H172 C180 0.950 1_545 S
H173 C181 0.951 . S
H174 C182 0.951 . S
C175 C169 1.265 . S
C175 H170 0.950 . S
C175 C176 1.478 . S
C176 C163 1.394 . S
C176 C175 1.478 . S
C176 C177 1.397 . S
C177 C176 1.397 . S
C177 C178 1.438 . S
C177 C182 1.429 . S
C178 C161 1.394 . S
C178 C177 1.438 . S
C178 C179 1.428 . S
C179 H171 0.949 . S
C179 C178 1.428 . S
C179 C180 1.345 . S
C180 H172 0.950 1_565 S
C180 C179 1.345 . S
C180 C181 1.424 . S
C181 H173 0.951 . S
C181 C180 1.424 . S
C181 C182 1.347 . S
C182 H174 0.951 . S
C182 C177 1.429 . S
C182 C181 1.347 . S
H183 C184 0.951 . S
C184 H183 0.951 . S
C184 C190 1.265 . S
H185 C190 0.950 . S
H186 C194 0.949 . S
H187 C195 0.950 . S
H188 C196 0.951 . S
H189 C197 0.951 . S
C190 C184 1.265 . S
C190 H185 0.950 . S
C190 C191 1.478 . S
C191 C190 1.478 . S
C191 C192 1.397 . S
C191 C208 1.394 . S
C192 C191 1.397 . S
C192 C193 1.438 . S
C192 C197 1.429 . S
C193 C192 1.438 . S
C193 C194 1.428 . S
C193 C206 1.394 . S
C194 H186 0.949 . S
C194 C193 1.428 . S
C194 C195 1.345 . S
C195 H187 0.950 . S
C195 C194 1.345 . S
C195 C196 1.424 . S
C196 H188 0.951 . S
C196 C195 1.424 . S
C196 C197 1.347 . S
C197 H189 0.951 . S
C197 C192 1.429 . S
C197 C196 1.347 . S
H198 C199 0.951 . S
C199 H198 0.951 . S
C199 C205 1.265 . S
H200 C205 0.950 . S
H201 C209 0.949 . S
H202 C210 0.950 . S
H203 C211 0.951 . S
H204 C212 0.951 . S
C205 C199 1.265 . S
C205 H200 0.950 . S
C205 C206 1.478 . S
C206 C193 1.394 . S
C206 C205 1.478 . S
C206 C207 1.397 . S
C207 C206 1.397 . S
C207 C208 1.438 . S
C207 C212 1.429 . S
C208 C191 1.394 . S
C208 C207 1.438 . S
C208 C209 1.428 . S
C209 H201 0.949 . S
C209 C208 1.428 . S
C209 C210 1.345 . S
C210 H202 0.950 . S
C210 C209 1.345 . S
C210 C211 1.424 . S
C211 H203 0.951 . S
C211 C210 1.424 . S
C211 C212 1.347 . S
C212 H204 0.951 . S
C212 C207 1.429 . S
C212 C211 1.347 . S
H213 C214 0.951 . S
C214 H213 0.951 . S
C214 C220 1.265 . S
H215 C220 0.950 . S
H216 C224 0.949 . S
H217 C225 0.950 . S
H218 C226 0.951 . S
H219 C227 0.951 . S
C220 C214 1.265 . S
C220 H215 0.950 . S
C220 C221 1.478 . S
C221 C220 1.478 . S
C221 C222 1.397 . S
C221 C238 1.394 . S
C222 C221 1.397 . S
C222 C223 1.438 . S
C222 C227 1.429 . S
C223 C222 1.438 . S
C223 C224 1.428 . S
C223 C236 1.394 . S
C224 H216 0.949 . S
C224 C223 1.428 . S
C224 C225 1.345 . S
C225 H217 0.950 . S
C225 C224 1.345 . S
C225 C226 1.424 . S
C226 H218 0.951 . S
C226 C225 1.424 . S
C226 C227 1.347 . S
C227 H219 0.951 . S
C227 C222 1.429 . S
C227 C226 1.347 . S
H228 C229 0.951 . S
C229 H228 0.951 . S
C229 C235 1.265 . S
H230 C235 0.950 . S
H231 C239 0.949 . S
H232 C240 0.950 . S
H233 C241 0.951 . S
H234 C242 0.951 . S
C235 C229 1.265 . S
C235 H230 0.950 . S
C235 C236 1.478 . S
C236 C223 1.394 . S
C236 C235 1.478 . S
C236 C237 1.397 . S
C237 C236 1.397 . S
C237 C238 1.438 . S
C237 C242 1.429 . S
C238 C221 1.394 . S
C238 C237 1.438 . S
C238 C239 1.428 . S
C239 H231 0.949 . S
C239 C238 1.428 . S
C239 C240 1.345 . S
C240 H232 0.950 . S
C240 C239 1.345 . S
C240 C241 1.424 . S
C241 H233 0.951 . S
C241 C240 1.424 . S
C241 C242 1.347 . S
C242 H234 0.951 . S
C242 C237 1.429 . S
C242 C241 1.347 . S
H243 C244 0.951 . S
C244 H243 0.951 . S
C244 C250 1.265 . S
H245 C250 0.950 . S
H246 C254 0.949 . S
H247 C255 0.950 . S
H248 C256 0.951 . S
H249 C257 0.951 . S
C250 C244 1.265 . S
C250 H245 0.950 . S
C250 C251 1.478 . S
C251 C250 1.478 . S
C251 C252 1.397 . S
C251 C268 1.394 . S
C252 C251 1.397 . S
C252 C253 1.438 . S
C252 C257 1.429 . S
C253 C252 1.438 . S
C253 C254 1.428 . S
C253 C266 1.394 . S
C254 H246 0.949 . S
C254 C253 1.428 . S
C254 C255 1.345 . S
C255 H247 0.950 . S
C255 C254 1.345 . S
C255 C256 1.424 . S
C256 H248 0.951 . S
C256 C255 1.424 . S
C256 C257 1.347 . S
C257 H249 0.951 . S
C257 C252 1.429 . S
C257 C256 1.347 . S
H258 C259 0.951 . S
C259 H258 0.951 . S
C259 C265 1.265 . S
H260 C265 0.950 . S
H261 C269 0.949 . S
H262 C270 0.950 . S
H263 C271 0.951 . S
H264 C272 0.951 . S
C265 C259 1.265 . S
C265 H260 0.950 . S
C265 C266 1.478 . S
C266 C253 1.394 . S
C266 C265 1.478 . S
C266 C267 1.397 . S
C267 C266 1.397 . S
C267 C268 1.438 . S
C267 C272 1.429 . S
C268 C251 1.394 . S
C268 C267 1.438 . S
C268 C269 1.428 . S
C269 H261 0.949 . S
C269 C268 1.428 . S
C269 C270 1.345 . S
C270 H262 0.950 . S
C270 C269 1.345 . S
C270 C271 1.424 . S
C271 H263 0.951 . S
C271 C270 1.424 . S
C271 C272 1.347 . S
C272 H264 0.951 . S
C272 C267 1.429 . S
C272 C271 1.347 . S
H273 C274 0.951 . S
C274 H273 0.951 . S
C274 C280 1.265 . S
H275 C280 0.950 . S
H276 C284 0.949 . S
H277 C285 0.950 . S
H278 C286 0.951 . S
H279 C287 0.951 . S
C280 C274 1.265 . S
C280 H275 0.950 . S
C280 C281 1.478 . S
C281 C280 1.478 . S
C281 C282 1.397 . S
C281 C298 1.394 . S
C282 C281 1.397 . S
C282 C283 1.438 . S
C282 C287 1.429 . S
C283 C282 1.438 . S
C283 C284 1.428 . S
C283 C296 1.394 . S
C284 H276 0.949 . S
C284 C283 1.428 . S
C284 C285 1.345 . S
C285 H277 0.950 . S
C285 C284 1.345 . S
C285 C286 1.424 . S
C286 H278 0.951 . S
C286 C285 1.424 . S
C286 C287 1.347 . S
C287 H279 0.951 . S
C287 C282 1.429 . S
C287 C286 1.347 . S
H288 C289 0.951 . S
C289 H288 0.951 . S
C289 C295 1.265 . S
H290 C295 0.950 . S
H291 C299 0.949 . S
H292 C300 0.950 . S
H293 C301 0.951 . S
H294 C302 0.951 . S
C295 C289 1.265 . S
C295 H290 0.950 . S
C295 C296 1.478 . S
C296 C283 1.394 . S
C296 C295 1.478 . S
C296 C297 1.397 . S
C297 C296 1.397 . S
C297 C298 1.438 . S
C297 C302 1.429 . S
C298 C281 1.394 . S
C298 C297 1.438 . S
C298 C299 1.428 . S
C299 H291 0.949 . S
C299 C298 1.428 . S
C299 C300 1.345 . S
C300 H292 0.950 . S
C300 C299 1.345 . S
C300 C301 1.424 . S
C301 H293 0.951 . S
C301 C300 1.424 . S
C301 C302 1.347 . S
C302 H294 0.951 . S
C302 C297 1.429 . S
C302 C301 1.347 . S
C64 C23 1.265 . S
C79 C42 1.344 . S
C94 C24 1.616 . S
C109 C34 1.585 . S
C124 C8 1.299 . S
C139 C51 1.339 . S
C154 C22 1.552 . S
C169 C52 1.488 . S
C184 C17 1.528 . S
C199 C61 1.596 . S
C229 C62 1.294 . S
C214 C27 1.350 . S
C244 C30 1.544 . S
C259 C33 1.506 . S
C289 C32 1.296 . S
C274 C31 1.406 . S
