# Generated by pormake.
# Topology ocu, (6,8)-cn, num edge types: 1
# Building blocks:
#     Node 0, Type 0, BuildingBlock: FUNLAD_clean_sbu_0, # of connection points: 6
#     Node 1, Type 0, BuildingBlock: FUNLAD_clean_sbu_0, # of connection points: 6
#     Node 2, Type 0, BuildingBlock: FUNLAD_clean_sbu_0, # of connection points: 6
#     Node 3, Type 0, BuildingBlock: FUNLAD_clean_sbu_0, # of connection points: 6
#     Node 4, Type 0, BuildingBlock: FUNLAD_clean_sbu_0, # of connection points: 6
#     Node 5, Type 0, BuildingBlock: FUNLAD_clean_sbu_0, # of connection points: 6
#     Node 6, Type 0, BuildingBlock: FUNLAD_clean_sbu_0, # of connection points: 6
#     Node 7, Type 0, BuildingBlock: FUNLAD_clean_sbu_0, # of connection points: 6
#     Node 8, Type 1, BuildingBlock: GIZVER_clean_sbu_0, # of connection points: 8
#     Node 9, Type 1, BuildingBlock: GIZVER_clean_sbu_0, # of connection points: 8
#     Node 10, Type 1, BuildingBlock: GIZVER_clean_sbu_0, # of connection points: 8
#     Node 11, Type 1, BuildingBlock: GIZVER_clean_sbu_0, # of connection points: 8
#     Node 12, Type 1, BuildingBlock: GIZVER_clean_sbu_0, # of connection points: 8
#     Node 13, Type 1, BuildingBlock: GIZVER_clean_sbu_0, # of connection points: 8
#     Edge 14, Type (0, 1), BuildingBlock: MIFKUJ_clean_linker_0, # of connection points: 2
#     Edge 15, Type (0, 1), BuildingBlock: MIFKUJ_clean_linker_0, # of connection points: 2
#     Edge 16, Type (0, 1), BuildingBlock: MIFKUJ_clean_linker_0, # of connection points: 2
#     Edge 17, Type (0, 1), BuildingBlock: MIFKUJ_clean_linker_0, # of connection points: 2
#     Edge 18, Type (0, 1), BuildingBlock: MIFKUJ_clean_linker_0, # of connection points: 2
#     Edge 19, Type (0, 1), BuildingBlock: MIFKUJ_clean_linker_0, # of connection points: 2
#     Edge 20, Type (0, 1), BuildingBlock: MIFKUJ_clean_linker_0, # of connection points: 2
#     Edge 21, Type (0, 1), BuildingBlock: MIFKUJ_clean_linker_0, # of connection points: 2
#     Edge 22, Type (0, 1), BuildingBlock: MIFKUJ_clean_linker_0, # of connection points: 2
#     Edge 23, Type (0, 1), BuildingBlock: MIFKUJ_clean_linker_0, # of connection points: 2
#     Edge 24, Type (0, 1), BuildingBlock: MIFKUJ_clean_linker_0, # of connection points: 2
#     Edge 25, Type (0, 1), BuildingBlock: MIFKUJ_clean_linker_0, # of connection points: 2
#     Edge 26, Type (0, 1), BuildingBlock: MIFKUJ_clean_linker_0, # of connection points: 2
#     Edge 27, Type (0, 1), BuildingBlock: MIFKUJ_clean_linker_0, # of connection points: 2
#     Edge 28, Type (0, 1), BuildingBlock: MIFKUJ_clean_linker_0, # of connection points: 2
#     Edge 29, Type (0, 1), BuildingBlock: MIFKUJ_clean_linker_0, # of connection points: 2
#     Edge 30, Type (0, 1), BuildingBlock: MIFKUJ_clean_linker_0, # of connection points: 2
#     Edge 31, Type (0, 1), BuildingBlock: MIFKUJ_clean_linker_0, # of connection points: 2
#     Edge 32, Type (0, 1), BuildingBlock: MIFKUJ_clean_linker_0, # of connection points: 2
#     Edge 33, Type (0, 1), BuildingBlock: MIFKUJ_clean_linker_0, # of connection points: 2
#     Edge 34, Type (0, 1), BuildingBlock: MIFKUJ_clean_linker_0, # of connection points: 2
#     Edge 35, Type (0, 1), BuildingBlock: MIFKUJ_clean_linker_0, # of connection points: 2
#     Edge 36, Type (0, 1), BuildingBlock: MIFKUJ_clean_linker_0, # of connection points: 2
#     Edge 37, Type (0, 1), BuildingBlock: MIFKUJ_clean_linker_0, # of connection points: 2
#     Edge 38, Type (0, 1), BuildingBlock: MIFKUJ_clean_linker_0, # of connection points: 2
#     Edge 39, Type (0, 1), BuildingBlock: MIFKUJ_clean_linker_0, # of connection points: 2
#     Edge 40, Type (0, 1), BuildingBlock: MIFKUJ_clean_linker_0, # of connection points: 2
#     Edge 41, Type (0, 1), BuildingBlock: MIFKUJ_clean_linker_0, # of connection points: 2
#     Edge 42, Type (0, 1), BuildingBlock: MIFKUJ_clean_linker_0, # of connection points: 2
#     Edge 43, Type (0, 1), BuildingBlock: MIFKUJ_clean_linker_0, # of connection points: 2
#     Edge 44, Type (0, 1), BuildingBlock: MIFKUJ_clean_linker_0, # of connection points: 2
#     Edge 45, Type (0, 1), BuildingBlock: MIFKUJ_clean_linker_0, # of connection points: 2
#     Edge 46, Type (0, 1), BuildingBlock: MIFKUJ_clean_linker_0, # of connection points: 2
#     Edge 47, Type (0, 1), BuildingBlock: MIFKUJ_clean_linker_0, # of connection points: 2
#     Edge 48, Type (0, 1), BuildingBlock: MIFKUJ_clean_linker_0, # of connection points: 2
#     Edge 49, Type (0, 1), BuildingBlock: MIFKUJ_clean_linker_0, # of connection points: 2
#     Edge 50, Type (0, 1), BuildingBlock: MIFKUJ_clean_linker_0, # of connection points: 2
#     Edge 51, Type (0, 1), BuildingBlock: MIFKUJ_clean_linker_0, # of connection points: 2
#     Edge 52, Type (0, 1), BuildingBlock: MIFKUJ_clean_linker_0, # of connection points: 2
#     Edge 53, Type (0, 1), BuildingBlock: MIFKUJ_clean_linker_0, # of connection points: 2
#     Edge 54, Type (0, 1), BuildingBlock: MIFKUJ_clean_linker_0, # of connection points: 2
#     Edge 55, Type (0, 1), BuildingBlock: MIFKUJ_clean_linker_0, # of connection points: 2
#     Edge 56, Type (0, 1), BuildingBlock: MIFKUJ_clean_linker_0, # of connection points: 2
#     Edge 57, Type (0, 1), BuildingBlock: MIFKUJ_clean_linker_0, # of connection points: 2
#     Edge 58, Type (0, 1), BuildingBlock: MIFKUJ_clean_linker_0, # of connection points: 2
#     Edge 59, Type (0, 1), BuildingBlock: MIFKUJ_clean_linker_0, # of connection points: 2
#     Edge 60, Type (0, 1), BuildingBlock: MIFKUJ_clean_linker_0, # of connection points: 2
#     Edge 61, Type (0, 1), BuildingBlock: MIFKUJ_clean_linker_0, # of connection points: 2
# Relax obj value: 0.230
# Max RMSD: 0.287
# Mean RMSD: 0.223
data_MOF--net-ocu--node1-FUNLAD_clean_sbu_0--node2-GIZVER_clean_sbu_0--edge1-MIFKUJ_clean_linker_0
_symmetry_space_group_name_H-M    P1
_symmetry_Int_Tables_number       1
_symmetry_cell_setting            triclinic
loop_
_symmetry_equiv_pos_as_xyz
'x, y, z'
_cell_length_a     53.03345
_cell_length_b     55.139947
_cell_length_c     39.99332
_cell_angle_alpha  84.802204
_cell_angle_beta   86.246109
_cell_angle_gamma 93.417442
loop_
_atom_site_label
_atom_site_type_symbol
_atom_site_fract_x
_atom_site_fract_y
_atom_site_fract_z
_atom_type_partial_charge
C0 C 0.23227 0.28365 0.28378 0.0
N1 N 0.21939 0.21632 0.24392 0.0
C2 C 0.21134 0.20559 0.27502 0.0
C3 C 0.19496 0.18466 0.27842 0.0
C4 C 0.18688 0.17466 0.24953 0.0
C5 C 0.19527 0.18628 0.21776 0.0
C6 C 0.21162 0.20721 0.21552 0.0
Zn7 Zn 0.2452 0.24525 0.23959 0.0
C8 C 0.23347 0.28379 0.18769 0.0
N9 N 0.30108 0.30396 0.22936 0.0
C10 C 0.30636 0.31396 0.25823 0.0
C11 C 0.3125 0.31308 0.19902 0.0
C12 C 0.33005 0.33312 0.19699 0.0
C13 C 0.33533 0.34396 0.22636 0.0
C14 C 0.32331 0.3343 0.25723 0.0
Zn15 Zn 0.27506 0.27526 0.23296 0.0
O16 O 0.22405 0.26247 0.27763 0.0
C17 C 0.28818 0.23613 0.28257 0.0
O18 O 0.25304 0.29271 0.26891 0.0
H19 H 0.30792 0.30486 0.17644 0.0
H20 H 0.21783 0.21316 0.2972 0.0
H21 H 0.29735 0.30619 0.28215 0.0
O22 O 0.26687 0.22679 0.27565 0.0
O23 O 0.29541 0.25755 0.27005 0.0
H24 H 0.21841 0.21599 0.19105 0.0
O25 O 0.29683 0.25738 0.19749 0.0
O26 O 0.26615 0.22853 0.20189 0.0
O27 O 0.25493 0.29273 0.19472 0.0
O28 O 0.22452 0.26361 0.20297 0.0
C29 C 0.28785 0.23703 0.18939 0.0
H30 H 0.1885 0.17654 0.30342 0.0
H31 H 0.18954 0.17909 0.1949 0.0
H32 H 0.33913 0.34031 0.17277 0.0
H33 H 0.32726 0.34221 0.28032 0.0
C34 C 0.72235 0.29066 0.22789 0.0
N35 N 0.74474 0.22632 0.19162 0.0
C36 C 0.71958 0.22624 0.18661 0.0
C37 C 0.70904 0.21184 0.16378 0.0
C38 C 0.72424 0.19673 0.14609 0.0
C39 C 0.75016 0.19679 0.15162 0.0
C40 C 0.76017 0.21204 0.17453 0.0
Zn41 Zn 0.75511 0.24667 0.22988 0.0
C42 C 0.79365 0.28632 0.21283 0.0
N43 N 0.76568 0.28987 0.31139 0.0
C44 C 0.75014 0.30551 0.32561 0.0
C45 C 0.79074 0.2904 0.31712 0.0
C46 C 0.80111 0.30692 0.33741 0.0
C47 C 0.78589 0.3238 0.35133 0.0
C48 C 0.76001 0.32297 0.34558 0.0
Zn49 Zn 0.75554 0.26856 0.2741 0.0
O50 O 0.73092 0.27338 0.21264 0.0
C51 C 0.71624 0.22985 0.29108 0.0
O52 O 0.72885 0.29352 0.25736 0.0
H53 H 0.80334 0.27905 0.30434 0.0
H54 H 0.70718 0.2367 0.20127 0.0
H55 H 0.73041 0.30525 0.32024 0.0
O56 O 0.72443 0.2268 0.26118 0.0
O57 O 0.72635 0.24724 0.30561 0.0
H58 H 0.78001 0.21195 0.1793 0.0
O59 O 0.78183 0.24284 0.29003 0.0
O60 O 0.77993 0.2204 0.24761 0.0
O61 O 0.78418 0.28972 0.24195 0.0
O62 O 0.78592 0.26738 0.19933 0.0
C63 C 0.78873 0.22454 0.27549 0.0
H64 H 0.68883 0.21177 0.16106 0.0
H65 H 0.76239 0.18508 0.13865 0.0
H66 H 0.82128 0.30745 0.34049 0.0
H67 H 0.74778 0.33597 0.35573 0.0
C68 C 0.77623 0.73099 0.30643 0.0
N69 N 0.80343 0.79868 0.25917 0.0
C70 C 0.8061 0.80461 0.29111 0.0
C71 C 0.82715 0.81885 0.29849 0.0
C72 C 0.84583 0.82679 0.27292 0.0
C73 C 0.84271 0.82087 0.24004 0.0
C74 C 0.82103 0.80674 0.2336 0.0
Zn75 Zn 0.77386 0.77434 0.25317 0.0
C76 C 0.78701 0.73643 0.2099 0.0
N77 N 0.71229 0.72173 0.2483 0.0
C78 C 0.69536 0.70963 0.2721 0.0
C79 C 0.71086 0.71853 0.2151 0.0
C80 C 0.69257 0.70249 0.20467 0.0
C81 C 0.6751 0.68949 0.22836 0.0
C82 C 0.67625 0.69336 0.26253 0.0
Zn83 Zn 0.74146 0.7464 0.25635 0.0
O84 O 0.78637 0.75134 0.29313 0.0
C85 C 0.72782 0.78461 0.29916 0.0
O86 O 0.75516 0.72307 0.29648 0.0
H87 H 0.72394 0.72853 0.19624 0.0
H88 H 0.79231 0.79758 0.31127 0.0
H89 H 0.69664 0.71257 0.29833 0.0
O90 O 0.75002 0.7922 0.28722 0.0
O91 O 0.71842 0.76428 0.29125 0.0
H92 H 0.81864 0.80163 0.20847 0.0
O93 O 0.72883 0.77014 0.21666 0.0
O94 O 0.76119 0.79712 0.2128 0.0
O95 O 0.76479 0.7291 0.22156 0.0
O96 O 0.797 0.75608 0.21896 0.0
C97 C 0.74 0.78987 0.20279 0.0
H98 H 0.82927 0.82297 0.3242 0.0
H99 H 0.857 0.82671 0.21987 0.0
H100 H 0.69195 0.70046 0.17802 0.0
H101 H 0.66288 0.6837 0.28147 0.0
C102 C 0.22248 0.7919 0.26203 0.0
N103 N 0.288 0.77314 0.30913 0.0
C104 C 0.289 0.7979 0.30919 0.0
C105 C 0.30214 0.80954 0.33275 0.0
C106 C 0.31519 0.79586 0.35628 0.0
C107 C 0.31453 0.77037 0.35563 0.0
C108 C 0.30047 0.75924 0.33181 0.0
Zn109 Zn 0.26847 0.76052 0.27015 0.0
C110 C 0.22739 0.72263 0.28759 0.0
N111 N 0.22814 0.74529 0.18462 0.0
C112 C 0.21318 0.75922 0.16538 0.0
C113 C 0.22958 0.72109 0.18079 0.0
C114 C 0.21567 0.70996 0.15742 0.0
C115 C 0.19941 0.72353 0.13808 0.0
C116 C 0.1984 0.74858 0.14198 0.0
Zn117 Zn 0.24679 0.75741 0.22445 0.0
O118 O 0.24154 0.7868 0.27829 0.0
C119 C 0.28754 0.79507 0.20671 0.0
O120 O 0.21797 0.78094 0.23625 0.0
H121 H 0.24065 0.70991 0.19699 0.0
H122 H 0.28005 0.80898 0.29035 0.0
H123 H 0.21198 0.77833 0.16901 0.0
O124 O 0.29184 0.78667 0.23636 0.0
O125 O 0.2679 0.78686 0.19355 0.0
H126 H 0.2999 0.73965 0.33109 0.0
O127 O 0.27649 0.73448 0.21333 0.0
O128 O 0.29488 0.73395 0.26102 0.0
O129 O 0.22587 0.72858 0.2563 0.0
O130 O 0.24444 0.73366 0.30283 0.0
C131 C 0.29357 0.72689 0.23175 0.0
H132 H 0.30269 0.82927 0.33194 0.0
H133 H 0.32466 0.75928 0.37331 0.0
H134 H 0.21658 0.6905 0.15597 0.0
H135 H 0.18594 0.75966 0.12764 0.0
C136 C 0.22211 0.79027 0.73631 0.0
N137 N 0.2435 0.7237 0.70312 0.0
C138 C 0.21815 0.72274 0.69925 0.0
C139 C 0.20701 0.70547 0.68072 0.0
C140 C 0.22174 0.68823 0.66659 0.0
C141 C 0.24808 0.69013 0.66945 0.0
C142 C 0.25866 0.70814 0.68805 0.0
Zn143 Zn 0.25468 0.74592 0.739 0.0
C144 C 0.29405 0.78511 0.71781 0.0
N145 N 0.26838 0.7913 0.8177 0.0
C146 C 0.25257 0.80473 0.83566 0.0
C147 C 0.29369 0.79231 0.82183 0.0
C148 C 0.30398 0.80668 0.8449 0.0
C149 C 0.28834 0.82083 0.86357 0.0
C150 C 0.26231 0.81999 0.85871 0.0
Zn151 Zn 0.25752 0.76982 0.78103 0.0
O152 O 0.22873 0.77157 0.72251 0.0
C153 C 0.2187 0.73064 0.80258 0.0
O154 O 0.2314 0.79507 0.76366 0.0
H155 H 0.30625 0.78235 0.80663 0.0
H156 H 0.20602 0.73445 0.71215 0.0
H157 H 0.23257 0.80395 0.8317 0.0
O158 O 0.22598 0.7258 0.77314 0.0
O159 O 0.22838 0.74958 0.81417 0.0
H160 H 0.27869 0.70887 0.69182 0.0
O161 O 0.28317 0.74418 0.79776 0.0
O162 O 0.28091 0.72086 0.75636 0.0
O163 O 0.2865 0.78944 0.74743 0.0
O164 O 0.28399 0.76656 0.70552 0.0
C165 C 0.28988 0.72554 0.78394 0.0
H166 H 0.18673 0.70507 0.67862 0.0
H167 H 0.26014 0.67714 0.65894 0.0
H168 H 0.32424 0.80737 0.84726 0.0
H169 H 0.24976 0.83098 0.87247 0.0
C170 C 0.26658 0.21069 0.81715 0.0
N171 N 0.29445 0.28084 0.77823 0.0
C172 C 0.29905 0.28052 0.81134 0.0
C173 C 0.31906 0.29479 0.82143 0.0
C174 C 0.3344 0.30995 0.79738 0.0
C175 C 0.32901 0.31065 0.76341 0.0
C176 C 0.30884 0.2956 0.75423 0.0
Zn177 Zn 0.2652 0.25738 0.76848 0.0
C178 C 0.27965 0.22205 0.72328 0.0
N179 N 0.20402 0.20622 0.75956 0.0
C180 C 0.18553 0.19582 0.7826 0.0
C181 C 0.20381 0.20221 0.72649 0.0
C182 C 0.1849 0.18713 0.71543 0.0
C183 C 0.16562 0.1763 0.73837 0.0
C184 C 0.16578 0.18071 0.77235 0.0
Zn185 Zn 0.23283 0.23011 0.76975 0.0
O186 O 0.27868 0.23013 0.80375 0.0
C187 C 0.21948 0.26595 0.81548 0.0
O188 O 0.24409 0.20575 0.80947 0.0
H189 H 0.21814 0.2111 0.70829 0.0
H190 H 0.28717 0.26905 0.83016 0.0
H191 H 0.1859 0.19949 0.80868 0.0
O192 O 0.24252 0.27208 0.80631 0.0
O193 O 0.20879 0.24754 0.80382 0.0
H194 H 0.30478 0.2956 0.72808 0.0
O195 O 0.22138 0.25455 0.73036 0.0
O196 O 0.25102 0.28366 0.73253 0.0
O197 O 0.25808 0.21319 0.73599 0.0
O198 O 0.28781 0.24289 0.73067 0.0
C199 C 0.23075 0.27591 0.72043 0.0
H200 H 0.32238 0.29418 0.84794 0.0
H201 H 0.34046 0.32234 0.74427 0.0
H202 H 0.18504 0.18429 0.68895 0.0
H203 H 0.15093 0.17265 0.79055 0.0
C204 C 0.72292 0.28935 0.76187 0.0
N205 N 0.78778 0.26569 0.80599 0.0
C206 C 0.7757 0.27267 0.83431 0.0
C207 C 0.78925 0.28515 0.85705 0.0
C208 C 0.8155 0.29022 0.85074 0.0
C209 C 0.82767 0.2812 0.82263 0.0
C210 C 0.81339 0.26905 0.80042 0.0
Zn211 Zn 0.7674 0.25653 0.76655 0.0
C212 C 0.72573 0.21885 0.78397 0.0
N213 N 0.72389 0.24296 0.68231 0.0
C214 C 0.70994 0.25739 0.66217 0.0
C215 C 0.72323 0.21839 0.68013 0.0
C216 C 0.70892 0.20752 0.65701 0.0
C217 C 0.69422 0.2217 0.63618 0.0
C218 C 0.69463 0.24699 0.63895 0.0
Zn219 Zn 0.74475 0.25381 0.72142 0.0
O220 O 0.74145 0.2828 0.77835 0.0
C221 C 0.78677 0.29175 0.70457 0.0
O222 O 0.71849 0.27976 0.73487 0.0
H223 H 0.73313 0.20673 0.69721 0.0
H224 H 0.75532 0.26994 0.83827 0.0
H225 H 0.71014 0.27677 0.66466 0.0
O226 O 0.7897 0.28426 0.73503 0.0
O227 O 0.76843 0.28213 0.68995 0.0
H228 H 0.82262 0.26382 0.7775 0.0
O229 O 0.7714 0.2283 0.70927 0.0
O230 O 0.79335 0.23034 0.75358 0.0
O231 O 0.72223 0.22629 0.75368 0.0
O232 O 0.7444 0.22839 0.7978 0.0
C233 C 0.78951 0.22129 0.72612 0.0
H234 H 0.77917 0.29163 0.8786 0.0
H235 H 0.84781 0.28496 0.81654 0.0
H236 H 0.70858 0.18789 0.65641 0.0
H237 H 0.68321 0.25848 0.62353 0.0
C238 C 0.72913 0.77645 0.78986 0.0
N239 N 0.71586 0.71036 0.74636 0.0
C240 C 0.70601 0.69839 0.77597 0.0
C241 C 0.68863 0.67841 0.77597 0.0
C242 C 0.68114 0.67102 0.74524 0.0
C243 C 0.6913 0.68383 0.71511 0.0
C244 C 0.70896 0.70342 0.71624 0.0
Zn245 Zn 0.74266 0.73817 0.74606 0.0
C246 C 0.73428 0.77819 0.69356 0.0
N247 N 0.80021 0.79501 0.74185 0.0
C248 C 0.80708 0.80171 0.77212 0.0
C249 C 0.80971 0.80745 0.71239 0.0
C250 C 0.82645 0.82788 0.71273 0.0
C251 C 0.83344 0.83524 0.74364 0.0
C252 C 0.82393 0.82189 0.77359 0.0
Zn253 Zn 0.77338 0.76731 0.74186 0.0
O254 O 0.71969 0.75645 0.78097 0.0
C255 C 0.78098 0.72757 0.79528 0.0
O256 O 0.75123 0.78424 0.77805 0.0
H257 H 0.8039 0.80181 0.6887 0.0
H258 H 0.71175 0.70425 0.79957 0.0
H259 H 0.79905 0.79171 0.79525 0.0
O260 O 0.75979 0.71926 0.78655 0.0
O261 O 0.79121 0.74733 0.7803 0.0
H262 H 0.71731 0.71298 0.69298 0.0
O263 O 0.79565 0.75009 0.70562 0.0
O264 O 0.76583 0.72045 0.7109 0.0
O265 O 0.75487 0.78728 0.70324 0.0
O266 O 0.72557 0.75729 0.70652 0.0
C267 C 0.78728 0.72939 0.69785 0.0
H268 H 0.68079 0.66908 0.79972 0.0
H269 H 0.68586 0.67855 0.69101 0.0
H270 H 0.83366 0.83799 0.68922 0.0
H271 H 0.82906 0.82731 0.79775 0.0
Co272 Co 0.04262 0.95556 0.48507 0.0
Co273 Co 0.05316 0.98172 0.53241 0.0
Co274 Co 0.00739 1.00452 0.49779 0.0
O275 O 0.04041 0.98935 0.4916 0.0
H276 H 0.05267 0.9998 0.47716 0.0
O277 O 0.97437 0.01956 0.50437 0.0
Co278 Co 0.97221 0.05284 0.51343 0.0
Co279 Co 0.96111 0.02842 0.46464 0.0
H280 H 0.96211 0.00878 0.51834 0.0
O281 O 0.08671 0.97846 0.5367 0.0
O282 O 0.05636 0.9487 0.53048 0.0
O283 O 0.03258 0.98738 0.57198 0.0
O284 O 0.99786 0.98728 0.54368 0.0
O285 O 0.02526 0.03105 0.51868 0.0
O286 O 0.96772 0.08249 0.52509 0.0
O287 O 0.94092 0.04888 0.53465 0.0
O288 O 1.00559 0.06113 0.49405 0.0
O289 O 0.01683 0.02186 0.45168 0.0
O290 O 0.98154 0.02421 0.42461 0.0
O291 O 0.95742 0.06119 0.4691 0.0
O292 O 0.92735 0.03156 0.4615 0.0
C293 C 0.06865 0.93561 0.46221 0.0
C294 C 0.9915 0.95526 0.48484 0.0
C295 C 0.00872 0.98667 0.57126 0.0
C296 C 0.07893 0.9555 0.53912 0.0
C297 C 0.94671 0.07165 0.53905 0.0
C298 C 0.02372 0.05371 0.51078 0.0
C299 C 1.00545 0.0245 0.42448 0.0
C300 C 0.93467 0.05455 0.46098 0.0
O301 O 0.0473 0.92526 0.4759 0.0
O302 O 0.0742 0.95867 0.46509 0.0
O303 O 0.98972 0.9779 0.47684 0.0
O304 O 0.00884 0.94828 0.50335 0.0
Co305 Co 0.54369 0.95702 0.98078 0.0
Co306 Co 0.54227 0.96768 0.0411 0.0
Co307 Co 0.50959 1.00543 1.00025 0.0
O308 O 0.54099 0.98702 1.00148 0.0
H309 H 0.5562 0.99772 0.99722 0.0
O310 O 0.47816 0.02354 0.99905 0.0
Co311 Co 0.47442 0.05107 0.02437 0.0
Co312 Co 0.47596 0.04536 0.96256 0.0
H313 H 0.46314 0.01251 0.00172 0.0
O314 O 0.57305 0.96452 0.05714 0.0
O315 O 0.5523 0.9395 0.02446 0.0
O316 O 0.51163 0.95956 0.06872 0.0
O317 O 0.48822 0.98322 0.03706 0.0
O318 O 0.52377 0.02624 0.03386 0.0
O319 O 0.46869 0.07514 0.04936 0.0
O320 O 0.44111 0.04477 0.03799 0.0
O321 O 0.50918 0.06114 0.01443 0.0
O322 O 0.53043 0.02806 0.96336 0.0
O323 O 0.50677 0.05441 0.93586 0.0
O324 O 0.46453 0.07149 0.98369 0.0
O325 O 0.44468 0.04887 0.94735 0.0
C326 C 0.57138 0.93953 0.95557 0.0
C327 C 0.49288 0.96125 0.97289 0.0
C328 C 0.49026 0.96688 0.06156 0.0
C329 C 0.5718 0.94479 0.04165 0.0
C330 C 0.44611 0.06435 0.05315 0.0
C331 C 0.52649 0.04941 0.02788 0.0
C332 C 0.52806 0.04587 0.94084 0.0
C333 C 0.44496 0.06679 0.96639 0.0
O334 O 0.54818 0.93038 0.96053 0.0
O335 O 0.57753 0.96037 0.96725 0.0
O336 O 0.49579 0.98443 0.96674 0.0
O337 O 0.50841 0.94964 0.99027 0.0
Co338 Co 0.03854 0.45935 0.98572 0.0
Co339 Co 0.0377 0.47396 0.0454 0.0
Co340 Co 1.00403 0.50803 1.00097 0.0
O341 O 0.03598 0.49048 0.0034 0.0
H342 H 0.05102 0.50123 0.99775 0.0
O343 O 0.97186 0.52532 0.99827 0.0
Co344 Co 0.96678 0.55407 0.02068 0.0
Co345 Co 0.97133 0.54597 0.95994 0.0
H346 H 0.95704 0.51405 1.00075 0.0
O347 O 0.06891 0.46858 0.06045 0.0
O348 O 0.04488 0.44407 0.03105 0.0
O349 O 0.00724 0.4678 0.07417 0.0
O350 O 0.98277 0.48474 0.03671 0.0
O351 O 0.01663 0.52923 0.03529 0.0
O352 O 0.96042 0.57936 0.0427 0.0
O353 O 0.93271 0.54892 0.03215 0.0
O354 O 1.00147 0.56328 0.01317 0.0
O355 O 0.02572 0.53144 0.96563 0.0
O356 O 1.00251 0.55604 0.93512 0.0
O357 O 0.95903 0.57296 0.9776 0.0
O358 O 0.94188 0.54882 0.94063 0.0
C359 C 0.06623 0.43994 0.96404 0.0
C360 C 0.98954 0.46348 0.97302 0.0
C361 C 0.98549 0.4711 0.06388 0.0
C362 C 0.06525 0.44827 0.0468 0.0
C363 C 0.9376 0.56919 0.04594 0.0
C364 C 0.01739 0.5525 0.03064 0.0
C365 C 0.02386 0.54895 0.94256 0.0
C366 C 0.94165 0.56826 0.95678 0.0
O367 O 0.04279 0.43152 0.9687 0.0
O368 O 0.0727 0.46134 0.97387 0.0
O369 O 0.99142 0.48669 0.96669 0.0
O370 O 1.00351 0.45309 0.99386 0.0
Co371 Co 0.54198 0.45889 0.97878 0.0
Co372 Co 0.55735 0.4841 0.02535 0.0
Co373 Co 0.50903 0.50791 0.99902 0.0
O374 O 0.54136 0.49281 0.98686 0.0
H375 H 0.5526 0.5034 0.97116 0.0
O376 O 0.47642 0.52211 0.01177 0.0
Co377 Co 0.47373 0.55494 0.02255 0.0
Co378 Co 0.46061 0.53113 0.97377 0.0
H379 H 0.4653 0.51071 0.02652 0.0
O380 O 0.59078 0.47645 0.0257 0.0
O381 O 0.55631 0.45073 0.02307 0.0
O382 O 0.54005 0.49062 0.0672 0.0
O383 O 0.50315 0.48829 0.04388 0.0
O384 O 0.52823 0.53335 0.02057 0.0
O385 O 0.46861 0.58442 0.03527 0.0
O386 O 0.44337 0.54982 0.04587 0.0
O387 O 0.50644 0.56385 1.00137 0.0
O388 O 0.51544 0.52779 0.95432 0.0
O389 O 0.47858 0.52826 0.93103 0.0
O390 O 0.45672 0.56351 0.97974 0.0
O391 O 0.42658 0.53332 0.97436 0.0
C392 C 0.56687 0.43857 0.95382 0.0
C393 C 0.49055 0.46015 0.98323 0.0
C394 C 0.51607 0.48921 0.06963 0.0
C395 C 0.57996 0.4545 0.02942 0.0
C396 C 0.44808 0.57285 0.04976 0.0
C397 C 0.52499 0.55611 0.01707 0.0
C398 C 0.50255 0.52987 0.92848 0.0
C399 C 0.43363 0.5564 0.97339 0.0
O400 O 0.54547 0.42859 0.96794 0.0
O401 O 0.57313 0.46143 0.95722 0.0
O402 O 0.48935 0.483 0.97719 0.0
O403 O 0.50869 0.45186 0.99903 0.0
Co404 Co 0.05826 0.46742 0.51039 0.0
Co405 Co 0.04584 0.47401 0.45183 0.0
Co406 Co 0.00995 0.50457 0.49888 0.0
O407 O 0.02652 0.47326 0.49129 0.0
H408 H 0.01464 0.45912 0.4942 0.0
O409 O 0.9931 0.53551 0.50745 0.0
Co410 Co 0.95967 0.54171 0.49318 0.0
Co411 Co 0.97813 0.53375 0.55131 0.0
H412 H 1.00474 0.54978 0.50316 0.0
O413 O 0.04647 0.44694 0.42962 0.0
O414 O 0.07469 0.45981 0.46571 0.0
O415 O 0.05585 0.50537 0.42976 0.0
O416 O 0.03235 0.52703 0.46289 0.0
O417 O 0.98463 0.49622 0.46605 0.0
O418 O 0.9299 0.54927 0.47975 0.0
O419 O 0.96307 0.57527 0.48654 0.0
O420 O 0.95155 0.50787 0.49621 0.0
O421 O 0.98744 0.48231 0.5342 0.0
O422 O 0.97171 0.50209 0.57612 0.0
O423 O 0.94666 0.54383 0.54077 0.0
O424 O 0.97481 0.56202 0.57197 0.0
C425 C 0.07499 0.4389 0.53551 0.0
C426 C 0.05909 0.51496 0.52206 0.0
C427 C 0.0494 0.5257 0.43876 0.0
C428 C 0.06789 0.44502 0.44341 0.0
C429 C 0.93969 0.57149 0.4785 0.0
C430 C 0.96077 0.49549 0.47354 0.0
C431 C 0.97453 0.48246 0.56248 0.0
C432 C 0.95273 0.56111 0.55967 0.0
O433 O 0.08616 0.46058 0.52969 0.0
O434 O 0.05283 0.4346 0.52367 0.0
O435 O 0.03549 0.51302 0.53159 0.0
O436 O 0.06808 0.50078 0.50155 0.0
Co437 Co 0.55378 0.97318 0.5144 0.0
Co438 Co 0.54298 0.98085 0.45495 0.0
Co439 Co 0.50342 0.00773 0.50176 0.0
O440 O 0.52256 0.97828 0.49373 0.0
H441 H 0.5115 0.96359 0.49524 0.0
O442 O 0.48444 0.03698 0.51003 0.0
Co443 Co 0.45299 0.04185 0.49059 0.0
Co444 Co 0.46569 0.03514 0.55028 0.0
H445 H 0.4955 0.05171 0.50759 0.0
O446 O 0.54583 0.95436 0.43185 0.0
O447 O 0.572 0.9679 0.46989 0.0
O448 O 0.55195 0.01277 0.43489 0.0
O449 O 0.52446 0.03178 0.46638 0.0
O450 O 0.4791 0.99773 0.46863 0.0
O451 O 0.42498 0.0489 0.47113 0.0
O452 O 0.45803 0.07451 0.48033 0.0
O453 O 0.44426 0.00772 0.49637 0.0
O454 O 0.48227 0.98401 0.53704 0.0
O455 O 0.45867 1.00306 0.57351 0.0
O456 O 0.43577 0.04691 0.53595 0.0
O457 O 0.46284 0.06319 0.57086 0.0
C458 C 0.57093 0.94418 0.53659 0.0
C459 C 0.55096 0.02227 0.52595 0.0
C460 C 0.54279 0.03213 0.44355 0.0
C461 C 0.56651 0.95276 0.44747 0.0
C462 C 0.43624 0.07066 0.46756 0.0
C463 C 0.45561 0.99345 0.4779 0.0
C464 C 0.46617 0.98359 0.56263 0.0
C465 C 0.44163 0.0634 0.55634 0.0
O466 O 0.58119 0.96628 0.53462 0.0
O467 O 0.54911 0.94019 0.52388 0.0
O468 O 0.52752 0.01773 0.5351 0.0
O469 O 0.56274 0.00748 0.50885 0.0
H470 H 0.14539 0.1664 0.21403 0.0
H471 H 0.11245 0.13316 0.22587 0.0
H472 H 0.15472 0.10069 0.30478 0.0
H473 H 0.18808 0.13348 0.29265 0.0
H474 H 0.12028 0.06753 0.25601 0.0
H475 H 0.11247 0.12362 0.35671 0.0
H476 H 0.11893 0.16604 0.3713 0.0
H477 H 0.08339 0.19199 0.28264 0.0
H478 H 0.07663 0.14965 0.26776 0.0
H479 H 0.05462 0.01552 0.40928 0.0
H480 H 0.08188 0.03368 0.36068 0.0
H481 H 0.01815 0.06781 0.31956 0.0
H482 H 0.99062 0.04941 0.36777 0.0
H483 H 0.05849 0.09982 0.33664 0.0
H484 H 0.04492 0.03238 0.27309 0.0
H485 H 0.04175 0.98933 0.26095 0.0
H486 H 0.1204 0.98347 0.27751 0.0
H487 H 0.12402 0.02642 0.29029 0.0
C488 C 0.14812 0.15173 0.23309 0.0
C489 C 0.16909 0.15272 0.25281 0.0
C490 C 0.12935 0.13274 0.23969 0.0
C491 C 0.13135 0.11456 0.26603 0.0
C492 C 0.1531 0.11449 0.28409 0.0
C493 C 0.17188 0.13342 0.2775 0.0
C494 C 0.10885 0.09905 0.27964 0.0
C495 C 0.10649 0.07445 0.27334 0.0
C496 C 0.09099 0.10836 0.30193 0.0
C497 C 0.09404 0.13365 0.31122 0.0
C498 C 0.10591 0.13842 0.34052 0.0
C499 C 0.10967 0.16241 0.34878 0.0
C500 C 0.10157 0.1817 0.3279 0.0
C501 C 0.08962 0.17703 0.29879 0.0
C502 C 0.08579 0.15306 0.29046 0.0
C503 C 0.0463 0.02638 0.38945 0.0
C504 C 0.02066 0.03147 0.39255 0.0
C505 C 0.06181 0.03651 0.36157 0.0
C506 C 0.05194 0.05202 0.33667 0.0
C507 C 0.02598 0.05572 0.3385 0.0
C508 C 0.01035 0.04527 0.3661 0.0
C509 C 0.06948 0.06799 0.31307 0.0
C510 C 0.07141 0.09282 0.3182 0.0
C511 C 0.0868 0.05868 0.28985 0.0
C512 C 0.08472 0.03268 0.28276 0.0
C513 C 0.06151 0.02188 0.27447 0.0
C514 C 0.05964 0.9975 0.26738 0.0
C515 C 0.08089 0.98372 0.26832 0.0
C516 C 0.104 0.99422 0.27664 0.0
C517 C 0.10597 0.0186 0.28377 0.0
H518 H 0.07944 0.96491 0.26255 0.0
H519 H 0.10456 0.20027 0.33428 0.0
H520 H 0.79514 0.17653 0.26635 0.0
H521 H 0.82063 0.14849 0.29899 0.0
H522 H 0.84669 0.2073 0.35482 0.0
H523 H 0.8211 0.23523 0.32284 0.0
H524 H 0.88545 0.17631 0.33389 0.0
H525 H 0.80167 0.17169 0.3906 0.0
H526 H 0.75509 0.16573 0.39333 0.0
H527 H 0.76074 0.09323 0.36364 0.0
H528 H 0.80738 0.09891 0.36023 0.0
H529 H 0.93806 0.1042 0.46448 0.0
H530 H 0.91308 0.13444 0.43528 0.0
H531 H 0.87027 0.07661 0.39398 0.0
H532 H 0.89421 0.04651 0.42407 0.0
H533 H 0.83985 0.10866 0.40846 0.0
H534 H 0.9221 0.11218 0.34902 0.0
H535 H 0.96876 0.11712 0.34287 0.0
H536 H 0.96654 0.18973 0.3733 0.0
H537 H 0.91986 0.18508 0.38005 0.0
C538 C 0.80656 0.18351 0.28528 0.0
C539 C 0.80602 0.20802 0.29218 0.0
C540 C 0.82102 0.16749 0.30396 0.0
C541 C 0.83537 0.17584 0.32944 0.0
C542 C 0.83573 0.20052 0.33529 0.0
C543 C 0.82102 0.21641 0.31706 0.0
C544 C 0.84905 0.15868 0.35121 0.0
C545 C 0.87554 0.16164 0.35048 0.0
C546 C 0.83606 0.13937 0.37236 0.0
C547 C 0.80802 0.13582 0.37484 0.0
C548 C 0.79298 0.15455 0.3844 0.0
C549 C 0.76657 0.15121 0.38611 0.0
C550 C 0.75496 0.12914 0.37857 0.0
C551 C 0.76975 0.11033 0.36942 0.0
C552 C 0.79618 0.11359 0.36762 0.0
C553 C 0.92312 0.09798 0.44947 0.0
C554 C 0.91826 0.07297 0.44641 0.0
C555 C 0.90895 0.11527 0.4326 0.0
C556 C 0.89012 0.10788 0.41174 0.0
C557 C 0.88468 0.08285 0.40979 0.0
C558 C 0.89846 0.06561 0.42706 0.0
C559 C 0.8765 0.12596 0.391 0.0
C560 C 0.84992 0.12327 0.39195 0.0
C561 C 0.88947 0.1453 0.36963 0.0
C562 C 0.91752 0.14819 0.36537 0.0
C563 C 0.93158 0.12914 0.3546 0.0
C564 C 0.95803 0.13189 0.35099 0.0
C565 C 0.97061 0.1537 0.35778 0.0
C566 C 0.95677 0.17283 0.3681 0.0
C567 C 0.93032 0.17016 0.37181 0.0
H568 H 0.99108 0.1558 0.35497 0.0
H569 H 0.73451 0.12659 0.3799 0.0
H570 H 0.89032 0.80778 0.28632 0.0
H571 H 0.92404 0.82684 0.31639 0.0
H572 H 0.88576 0.89383 0.31206 0.0
H573 H 0.85204 0.8747 0.28226 0.0
H574 H 0.9401 0.90081 0.3065 0.0
H575 H 0.87098 0.85333 0.3754 0.0
H576 H 0.84487 0.8152 0.39279 0.0
H577 H 0.9114 0.77899 0.4186 0.0
H578 H 0.93796 0.81686 0.40075 0.0
H579 H 0.9533 0.9646 0.44454 0.0
H580 H 0.93618 0.93893 0.40405 0.0
H581 H 0.98214 0.88103 0.4385 0.0
H582 H 0.99925 0.90663 0.47989 0.0
H583 H 0.93382 0.8643 0.42519 0.0
H584 H 1.00203 0.91364 0.36818 0.0
H585 H 0.02851 0.95171 0.35219 0.0
H586 H 0.96677 0.98338 0.30375 0.0
H587 H 0.93968 0.9457 0.32008 0.0
C588 C 0.88976 0.82686 0.29067 0.0
C589 C 0.86892 0.83998 0.28191 0.0
C590 C 0.90888 0.83766 0.30791 0.0
C591 C 0.90723 0.86165 0.31662 0.0
C592 C 0.88742 0.87535 0.30538 0.0
C593 C 0.86823 0.86449 0.28839 0.0
C594 C 0.92359 0.87132 0.34155 0.0
C595 C 0.93888 0.89283 0.33241 0.0
C596 C 0.92251 0.8604 0.37512 0.0
C597 C 0.90647 0.83781 0.38635 0.0
C598 C 0.88005 0.83719 0.38454 0.0
C599 C 0.86517 0.81563 0.39449 0.0
C600 C 0.87648 0.79466 0.40669 0.0
C601 C 0.90268 0.79523 0.40906 0.0
C602 C 0.91765 0.81673 0.39902 0.0
C603 C 0.95962 0.94631 0.44391 0.0
C604 C 0.97809 0.93787 0.46498 0.0
C605 C 0.94991 0.93172 0.42056 0.0
C606 C 0.95851 0.90841 0.41761 0.0
C607 C 0.9756 0.89916 0.44009 0.0
C608 C 0.98534 0.9138 0.4637 0.0
C609 C 0.9497 0.89425 0.3904 0.0
C610 C 0.93576 0.87193 0.39911 0.0
C611 C 0.95232 0.90428 0.35637 0.0
C612 C 0.96874 0.92682 0.34554 0.0
C613 C 0.99402 0.92876 0.35427 0.0
C614 C 0.00916 0.95028 0.34515 0.0
C615 C 0.99933 0.96996 0.32699 0.0
C616 C 0.97436 0.96812 0.31781 0.0
C617 C 0.9591 0.94666 0.32697 0.0
H618 H 0.01105 0.98664 0.32005 0.0
H619 H 0.86494 0.77799 0.41438 0.0
H620 H 0.23735 0.83459 0.28488 0.0
H621 H 0.21109 0.86172 0.3147 0.0
H622 H 0.14433 0.81648 0.29943 0.0
H623 H 0.17068 0.78991 0.26778 0.0
H624 H 0.133 0.86251 0.29787 0.0
H625 H 0.17587 0.80913 0.37298 0.0
H626 H 0.21288 0.78948 0.39463 0.0
H627 H 0.24629 0.85929 0.41371 0.0
H628 H 0.2096 0.87942 0.39175 0.0
H629 H 0.05788 0.89117 0.44016 0.0
H630 H 0.08473 0.86877 0.40362 0.0
H631 H 0.14506 0.92485 0.40288 0.0
H632 H 0.11811 0.9477 0.43934 0.0
H633 H 0.15967 0.87445 0.41232 0.0
H634 H 0.11261 0.92668 0.34026 0.0
H635 H 0.07318 0.94357 0.32235 0.0
H636 H 0.0453 0.87265 0.29969 0.0
H637 H 0.08417 0.85508 0.31886 0.0
C638 C 0.21699 0.83079 0.28723 0.0
C639 C 0.20596 0.81015 0.27433 0.0
C640 C 0.20202 0.84618 0.30447 0.0
C641 C 0.17582 0.84071 0.31027 0.0
C642 C 0.16454 0.82095 0.29549 0.0
C643 C 0.17953 0.80582 0.2774 0.0
C644 C 0.16071 0.85456 0.3337 0.0
C645 C 0.13871 0.86491 0.32298 0.0
C646 C 0.16825 0.8579 0.36648 0.0
C647 C 0.19009 0.8458 0.38044 0.0
C648 C 0.19116 0.82031 0.38166 0.0
C649 C 0.21208 0.80908 0.39398 0.0
C650 C 0.23196 0.82313 0.40545 0.0
C651 C 0.23089 0.84843 0.40478 0.0
C652 C 0.21003 0.85976 0.39243 0.0
C653 C 0.07695 0.89868 0.43257 0.0
C654 C 0.08587 0.92127 0.44254 0.0
C655 C 0.09221 0.88587 0.41159 0.0
C656 C 0.11673 0.8953 0.40037 0.0
C657 C 0.12612 0.91736 0.41127 0.0
C658 C 0.11071 0.93039 0.43198 0.0
C659 C 0.13215 0.88239 0.37637 0.0
C660 C 0.15412 0.87215 0.3871 0.0
C661 C 0.12432 0.87882 0.3439 0.0
C662 C 0.10126 0.8895 0.33132 0.0
C663 C 0.098 0.91462 0.33175 0.0
C664 C 0.07574 0.92433 0.32135 0.0
C665 C 0.05678 0.90923 0.30975 0.0
C666 C 0.06002 0.88434 0.30866 0.0
C667 C 0.08214 0.87447 0.31938 0.0
H668 H 0.03959 0.9168 0.30158 0.0
H669 H 0.24815 0.81441 0.41494 0.0
H670 H 0.19439 0.78069 0.68369 0.0
H671 H 0.1692 0.80837 0.65114 0.0
H672 H 0.18551 0.86459 0.71638 0.0
H673 H 0.21074 0.83667 0.74966 0.0
H674 H 0.13643 0.86399 0.69942 0.0
H675 H 0.21801 0.86621 0.64208 0.0
H676 H 0.25606 0.84963 0.61646 0.0
H677 H 0.2112 0.81703 0.54472 0.0
H678 H 0.17277 0.8331 0.57027 0.0
H679 H 0.11571 0.96477 0.58132 0.0
H680 H 0.13848 0.93534 0.61492 0.0
H681 H 0.10045 0.87627 0.57046 0.0
H682 H 0.07682 0.90574 0.53709 0.0
H683 H 0.16016 0.87873 0.57673 0.0
H684 H 0.07779 0.87837 0.63758 0.0
H685 H 0.04211 0.89858 0.66323 0.0
H686 H 0.09198 0.93194 0.72871 0.0
H687 H 0.12808 0.91228 0.70296 0.0
C688 C 0.19252 0.79887 0.69139 0.0
C689 C 0.2048 0.80657 0.71911 0.0
C690 C 0.17814 0.8147 0.67265 0.0
C691 C 0.17587 0.83868 0.68092 0.0
C692 C 0.18713 0.84617 0.70947 0.0
C693 C 0.20153 0.83022 0.72844 0.0
C694 C 0.16248 0.85598 0.65886 0.0
C695 C 0.14178 0.86736 0.67268 0.0
C696 C 0.16937 0.86032 0.62387 0.0
C697 C 0.19245 0.85065 0.60833 0.0
C698 C 0.2162 0.85533 0.62103 0.0
C699 C 0.23785 0.84605 0.60649 0.0
C700 C 0.23603 0.83223 0.57904 0.0
C701 C 0.21257 0.82771 0.56602 0.0
C702 C 0.19084 0.83691 0.58051 0.0
C703 C 0.11232 0.94555 0.5783 0.0
C704 C 0.09442 0.93755 0.55655 0.0
C705 C 0.1253 0.92879 0.59766 0.0
C706 C 0.12098 0.90374 0.59526 0.0
C707 C 0.10391 0.89561 0.57264 0.0
C708 C 0.09046 0.91241 0.55367 0.0
C709 C 0.13396 0.88623 0.61725 0.0
C710 C 0.15473 0.87507 0.60343 0.0
C711 C 0.12743 0.88247 0.65228 0.0
C712 C 0.1057 0.89408 0.66806 0.0
C713 C 0.08121 0.89022 0.65719 0.0
C714 C 0.06089 0.90154 0.6718 0.0
C715 C 0.06478 0.9166 0.69752 0.0
C716 C 0.089 0.92031 0.70874 0.0
C717 C 0.10939 0.90907 0.69416 0.0
H718 H 0.04903 0.92534 0.7088 0.0
H719 H 0.25281 0.82507 0.56781 0.0
H720 H 0.11835 0.18897 0.72549 0.0
H721 H 0.09078 0.16965 0.68716 0.0
H722 H 0.14132 0.11142 0.68118 0.0
H723 H 0.16899 0.13098 0.71892 0.0
H724 H 0.13472 0.13342 0.62031 0.0
H725 H 0.08108 0.10127 0.71792 0.0
H726 H 0.05483 0.10345 0.77063 0.0
H727 H 1.0053 0.14991 0.71802 0.0
H728 H 0.03148 0.14828 0.66504 0.0
H729 H 0.068 0.0451 0.53844 0.0
H730 H 0.09002 0.06975 0.57637 0.0
H731 H 0.03691 0.1254 0.56193 0.0
H732 H 0.01483 0.10087 0.52328 0.0
H733 H 0.04264 0.10977 0.63031 0.0
H734 H 0.09466 0.13894 0.5317 0.0
H735 H 0.12061 0.13576 0.47903 0.0
H736 H 0.17318 0.09434 0.53376 0.0
H737 H 0.14734 0.09693 0.58673 0.0
C738 C 0.12286 0.1715 0.71707 0.0
C739 C 0.14546 0.16117 0.72531 0.0
C740 C 0.10725 0.16057 0.69505 0.0
C741 C 0.1141 0.13917 0.68118 0.0
C742 C 0.13576 0.12797 0.69149 0.0
C743 C 0.15137 0.13894 0.7133 0.0
C744 C 0.10055 0.12995 0.65316 0.0
C745 C 0.11463 0.12798 0.62265 0.0
C746 C 0.07416 0.12388 0.65576 0.0
C747 C 0.05842 0.12489 0.68759 0.0
C748 C 0.06473 0.11214 0.71764 0.0
C749 C 0.04983 0.11324 0.74756 0.0
C750 C 0.02846 0.12688 0.7477 0.0
C751 C 0.02189 0.13939 0.71789 0.0
C752 C 0.03674 0.13838 0.68791 0.0
C753 C 0.06126 0.0628 0.54275 0.0
C754 C 0.03948 0.07091 0.52816 0.0
C755 C 0.07388 0.07687 0.56444 0.0
C756 C 0.06499 0.09931 0.57204 0.0
C757 C 0.04394 0.10804 0.55643 0.0
C758 C 0.03143 0.09406 0.53426 0.0
C759 C 0.07701 0.11262 0.59794 0.0
C760 C 0.06267 0.11546 0.62794 0.0
C761 C 0.1032 0.11948 0.59497 0.0
C762 C 0.11895 0.11801 0.56319 0.0
C763 C 0.11165 0.12899 0.53249 0.0
C764 C 0.12636 0.12733 0.50258 0.0
C765 C 0.14851 0.11482 0.50304 0.0
C766 C 0.15602 0.10401 0.53344 0.0
C767 C 0.14136 0.10561 0.56343 0.0
H768 H 0.15987 0.11354 0.47986 0.0
H769 H 0.01695 0.1277 0.77089 0.0
H770 H 0.77662 0.18767 0.6838 0.0
H771 H 0.80395 0.15983 0.65718 0.0
H772 H 0.86656 0.1861 0.71056 0.0
H773 H 0.83901 0.21395 0.73798 0.0
H774 H 0.87497 0.18685 0.63712 0.0
H775 H 0.84408 0.13203 0.73401 0.0
H776 H 0.81071 0.1107 0.77369 0.0
H777 H 0.7785 0.07642 0.69268 0.0
H778 H 0.81148 0.09782 0.65241 0.0
H779 H 0.96136 0.10731 0.57697 0.0
H780 H 0.93486 0.13026 0.61298 0.0
H781 H 0.86812 0.09049 0.58481 0.0
H782 H 0.895 0.06633 0.55006 0.0
H783 H 0.86198 0.09653 0.64759 0.0
H784 H 0.88782 0.15077 0.55029 0.0
H785 H 0.91762 0.17292 0.50647 0.0
H786 H 0.95459 0.20964 0.58185 0.0
H787 H 0.92523 0.18743 0.6262 0.0
C788 C 0.79614 0.18735 0.69023 0.0
C789 C 0.80575 0.20302 0.7129 0.0
C790 C 0.81168 0.17136 0.67508 0.0
C791 C 0.83719 0.1709 0.682 0.0
C792 C 0.84684 0.1862 0.70505 0.0
C793 C 0.83112 0.20198 0.72075 0.0
C794 C 0.85395 0.15548 0.66337 0.0
C795 C 0.87255 0.16707 0.63983 0.0
C796 C 0.84982 0.12979 0.66589 0.0
C797 C 0.83015 0.11668 0.69016 0.0
C798 C 0.82978 0.12008 0.72461 0.0
C799 C 0.81095 0.10795 0.74722 0.0
C800 C 0.79247 0.09225 0.73571 0.0
C801 C 0.79282 0.08859 0.70157 0.0
C802 C 0.8116 0.10069 0.67885 0.0
C803 C 0.94102 0.10348 0.57841 0.0
C804 C 0.93014 0.08527 0.56049 0.0
C805 C 0.92586 0.11669 0.59892 0.0
C806 C 0.8994 0.11261 0.601 0.0
C807 C 0.88848 0.09407 0.58351 0.0
C808 C 0.90378 0.08035 0.5636 0.0
C809 C 0.88331 0.12785 0.62129 0.0
C810 C 0.86467 0.11628 0.64497 0.0
C811 C 0.88691 0.15368 0.61825 0.0
C812 C 0.90446 0.16726 0.5916 0.0
C813 C 0.9024 0.16345 0.55755 0.0
C814 C 0.9192 0.17603 0.53261 0.0
C815 C 0.93802 0.19264 0.54138 0.0
C816 C 0.94002 0.19675 0.5751 0.0
C817 C 0.92329 0.18419 0.60015 0.0
H818 H 0.95102 0.20235 0.52204 0.0
H819 H 0.77789 0.08289 0.75324 0.0
H820 H 0.82025 0.88188 0.73859 0.0
H821 H 0.84915 0.91858 0.72756 0.0
H822 H 0.91305 0.87412 0.73728 0.0
H823 H 0.88406 0.83752 0.74907 0.0
H824 H 0.92283 0.92182 0.75647 0.0
H825 H 0.88973 0.88059 0.66383 0.0
H826 H 0.85517 0.86389 0.6325 0.0
H827 H 0.82504 0.9345 0.62083 0.0
H828 H 0.8593 0.95154 0.6525 0.0
H829 H 0.01713 0.95612 0.62614 0.0
H830 H 0.98605 0.94141 0.67234 0.0
H831 H 0.93377 0.99246 0.63395 0.0
H832 H 0.96437 0.00615 0.58667 0.0
H833 H 0.9135 0.94967 0.63671 0.0
H834 H 0.95593 0.99259 0.71654 0.0
H835 H 0.99232 0.00775 0.74583 0.0
H836 H 0.00709 0.93423 0.78003 0.0
H837 H 0.97096 0.91858 0.75065 0.0
C838 C 0.84046 0.88021 0.7395 0.0
C839 C 0.85022 0.8572 0.74423 0.0
C840 C 0.85688 0.90107 0.73341 0.0
C841 C 0.88317 0.89893 0.73125 0.0
C842 C 0.89281 0.8761 0.73903 0.0
C843 C 0.87636 0.85526 0.74544 0.0
C844 C 0.90022 0.91897 0.71406 0.0
C845 C 0.92086 0.92817 0.73036 0.0
C846 C 0.89726 0.9274 0.68019 0.0
C847 C 0.87683 0.91725 0.66087 0.0
C848 C 0.87562 0.8925 0.65477 0.0
C849 C 0.85611 0.88298 0.63694 0.0
C850 C 0.83786 0.8981 0.6248 0.0
C851 C 0.83914 0.9228 0.63034 0.0
C852 C 0.8586 0.9324 0.64822 0.0
C853 C 0.99927 0.96464 0.62822 0.0
C854 C 0.9928 0.98188 0.60277 0.0
C855 C 0.98158 0.95642 0.65481 0.0
C856 C 0.95752 0.96586 0.6567 0.0
C857 C 0.95214 0.98484 0.63292 0.0
C858 C 0.96953 0.99257 0.60591 0.0
C859 C 0.93665 0.9527 0.6788 0.0
C860 C 0.91524 0.94439 0.66322 0.0
C861 C 0.93916 0.94511 0.71314 0.0
C862 C 0.96073 0.95441 0.73129 0.0
C863 C 0.96699 0.97964 0.73018 0.0
C864 C 0.98757 0.98832 0.74683 0.0
C865 C 1.00201 0.97196 0.76476 0.0
C866 C 0.99586 0.94688 0.76617 0.0
C867 C 0.97528 0.9381 0.7496 0.0
H868 H 0.01796 0.97872 0.77759 0.0
H869 H 0.82276 0.8907 0.61101 0.0
H870 H 0.27377 0.20586 0.14367 0.0
H871 H 0.2993 0.17517 0.11983 0.0
H872 H 0.36272 0.19988 0.17328 0.0
H873 H 0.33787 0.23169 0.19477 0.0
H874 H 0.38027 0.1885 0.11832 0.0
H875 H 0.31723 0.14725 0.19991 0.0
H876 H 0.27412 0.13499 0.22462 0.0
H877 H 0.25656 0.10226 0.13481 0.0
H878 H 0.29956 0.11461 0.10937 0.0
H879 H 0.45219 0.08824 0.10837 0.0
H880 H 0.42279 0.11477 0.13394 0.0
H881 H 0.36673 0.09467 0.06615 0.0
H882 H 0.3959 0.067 0.04151 0.0
H883 H 0.34487 0.10262 0.12785 0.0
H884 H 0.40759 0.14259 0.04703 0.0
H885 H 0.45023 0.15524 0.0212 0.0
H886 H 0.46802 0.19058 0.10889 0.0
H887 H 0.42547 0.17791 0.13553 0.0
C888 C 0.29337 0.20503 0.14956 0.0
C889 C 0.30396 0.22121 0.17076 0.0
C890 C 0.30784 0.18724 0.13641 0.0
C891 C 0.33276 0.18454 0.14562 0.0
C892 C 0.34356 0.20138 0.16586 0.0
C893 C 0.32939 0.21968 0.17801 0.0
C894 C 0.34761 0.16417 0.13465 0.0
C895 C 0.37261 0.16968 0.12106 0.0
C896 C 0.33747 0.13958 0.13718 0.0
C897 C 0.31165 0.132 0.15265 0.0
C898 C 0.30421 0.1375 0.18538 0.0
C899 C 0.27976 0.13055 0.19952 0.0
C900 C 0.26259 0.11788 0.18129 0.0
C901 C 0.26987 0.11209 0.1489 0.0
C902 C 0.2943 0.11905 0.13463 0.0
C903 C 0.43334 0.08897 0.09953 0.0
C904 C 0.42637 0.07586 0.0727 0.0
C905 C 0.4166 0.1042 0.11408 0.0
C906 C 0.39283 0.10718 0.10138 0.0
C907 C 0.38505 0.09271 0.07623 0.0
C908 C 0.4017 0.07697 0.06212 0.0
C909 C 0.37741 0.12709 0.11205 0.0
C910 C 0.35246 0.12146 0.12553 0.0
C911 C 0.38756 0.1516 0.10947 0.0
C912 C 0.41328 0.15914 0.09344 0.0
C913 C 0.42058 0.15293 0.06097 0.0
C914 C 0.44476 0.16014 0.04613 0.0
C915 C 0.46186 0.17368 0.06341 0.0
C916 C 0.45476 0.18008 0.09554 0.0
C917 C 0.43059 0.17291 0.11051 0.0
H918 H 0.48058 0.17924 0.05188 0.0
H919 H 0.24366 0.11253 0.19227 0.0
H920 H 0.8016 0.33301 0.22803 0.0
H921 H 0.83121 0.36513 0.20099 0.0
H922 H 0.85865 0.31591 0.13103 0.0
H923 H 0.82771 0.2836 0.15744 0.0
H924 H 0.8774 0.37146 0.19779 0.0
H925 H 0.88859 0.34856 0.05975 0.0
H926 H 0.86402 0.3302 0.01711 0.0
H927 H 0.7948 0.34792 0.0684 0.0
H928 H 0.81903 0.36683 0.11098 0.0
H929 H 0.98585 0.43636 0.1173 0.0
H930 H 0.95195 0.40712 0.14095 0.0
H931 H 0.90055 0.44046 0.07418 0.0
H932 H 0.93509 0.46936 0.04903 0.0
H933 H 0.89134 0.39506 0.07523 0.0
H934 H 0.8975 0.44505 0.1647 0.0
H935 H 0.91615 0.46811 0.20809 0.0
H936 H 0.94268 0.40219 0.255 0.0
H937 H 0.92446 0.37876 0.21165 0.0
C938 C 0.81381 0.32887 0.20679 0.0
C939 C 0.81222 0.30552 0.19509 0.0
C940 C 0.83091 0.34741 0.19126 0.0
C941 C 0.8474 0.34331 0.16369 0.0
C942 C 0.84594 0.31994 0.1518 0.0
C943 C 0.82834 0.30133 0.16709 0.0
C944 C 0.86648 0.36342 0.14884 0.0
C945 C 0.88048 0.37644 0.17091 0.0
C946 C 0.87047 0.37055 0.11379 0.0
C947 C 0.85564 0.35891 0.0887 0.0
C948 C 0.86814 0.34863 0.06184 0.0
C949 C 0.85427 0.33813 0.03768 0.0
C950 C 0.82785 0.33784 0.04008 0.0
C951 C 0.81526 0.34809 0.06663 0.0
C952 C 0.82906 0.35869 0.09081 0.0
C953 C 0.96729 0.43788 0.10782 0.0
C954 C 0.96337 0.4556 0.08129 0.0
C955 C 0.9477 0.42106 0.12166 0.0
C956 C 0.92325 0.4216 0.11007 0.0
C957 C 0.91908 0.43954 0.08391 0.0
C958 C 0.93887 0.45627 0.06966 0.0
C959 C 0.90272 0.40263 0.12417 0.0
C960 C 0.88849 0.38987 0.10205 0.0
C961 C 0.898 0.39607 0.15926 0.0
C962 C 0.90986 0.4102 0.18467 0.0
C963 C 0.90758 0.43552 0.18402 0.0
C964 C 0.91801 0.44864 0.20867 0.0
C965 C 0.93067 0.43664 0.23421 0.0
C966 C 0.93296 0.41148 0.23513 0.0
C967 C 0.92257 0.39827 0.21053 0.0
H968 H 0.93864 0.44682 0.25335 0.0
H969 H 0.81714 0.3297 0.02135 0.0
H970 H 0.69847 0.77607 0.17062 0.0
H971 H 0.67392 0.80169 0.13383 0.0
H972 H 0.72743 0.86289 0.13995 0.0
H973 H 0.75214 0.83732 0.17713 0.0
H974 H 0.679 0.87338 0.15569 0.0
H975 H 0.72271 0.83572 0.06769 0.0
H976 H 0.73776 0.80105 0.03897 0.0
H977 H 0.66098 0.7755 0.02786 0.0
H978 H 0.64541 0.80963 0.0574 0.0
H979 H 0.62078 0.95659 0.05149 0.0
H980 H 0.65279 0.92917 0.06916 0.0
H981 H 0.60074 0.8671 0.06135 0.0
H982 H 0.56862 0.89472 0.04249 0.0
H983 H 0.6496 0.85701 0.0441 0.0
H984 H 0.60558 0.89017 0.13599 0.0
H985 H 0.58863 0.9223 0.1684 0.0
H986 H 0.66397 0.95385 0.17468 0.0
H987 H 0.68135 0.92211 0.14182 0.0
C988 C 0.70528 0.7949 0.16377 0.0
C989 C 0.72721 0.80471 0.177 0.0
C990 C 0.69126 0.80948 0.14252 0.0
C991 C 0.69887 0.83418 0.13396 0.0
C992 C 0.72124 0.84384 0.14617 0.0
C993 C 0.73539 0.82921 0.16733 0.0
C994 C 0.68219 0.85039 0.1151 0.0
C995 C 0.67302 0.87008 0.13096 0.0
C996 C 0.67354 0.84546 0.08345 0.0
C997 C 0.68288 0.82511 0.06517 0.0
C998 C 0.70901 0.82257 0.05947 0.0
C999 C 0.71764 0.80299 0.04307 0.0
C1000 C 0.70034 0.786 0.0318 0.0
C1001 C 0.67436 0.78862 0.03675 0.0
C1002 C 0.66562 0.80807 0.05336 0.0
C1003 C 0.61626 0.93708 0.05296 0.0
C1004 C 0.59205 0.92776 0.0463 0.0
C1005 C 0.63458 0.92143 0.06311 0.0
C1006 C 0.62893 0.89612 0.06754 0.0
C1007 C 0.60543 0.88661 0.05839 0.0
C1008 C 0.58709 0.90236 0.04766 0.0
C1009 C 0.64671 0.88008 0.08463 0.0
C1010 C 0.65587 0.8604 0.06863 0.0
C1011 C 0.65515 0.88471 0.11649 0.0
C1012 C 0.64474 0.90391 0.13612 0.0
C1013 C 0.61851 0.90408 0.14402 0.0
C1014 C 0.60883 0.92221 0.16251 0.0
C1015 C 0.6252 0.94014 0.17352 0.0
C1016 C 0.6513 0.93997 0.16608 0.0
C1017 C 0.66108 0.92192 0.14753 0.0
H1018 H 0.61768 0.95413 0.18788 0.0
H1019 H 0.70707 0.77089 0.01902 0.0
H1020 H 0.21035 0.68931 0.09469 0.0
H1021 H 0.18009 0.66129 0.07141 0.0
H1022 H 0.11836 0.69985 0.11175 0.0
H1023 H 0.14852 0.72768 0.13547 0.0
H1024 H 0.11369 0.65269 0.13396 0.0
H1025 H 0.13058 0.69879 0.02795 0.0
H1026 H 0.15281 0.71893 0.97586 0.0
H1027 H 0.17843 0.65019 0.94998 0.0
H1028 H 0.15694 0.62967 0.00239 0.0
H1029 H 0.01121 0.59348 0.06148 0.0
H1030 H 0.04411 0.6215 0.07921 0.0
H1031 H 0.10136 0.57466 0.04664 0.0
H1032 H 0.06816 0.54601 0.02972 0.0
H1033 H 0.10995 0.62383 0.02054 0.0
H1034 H 0.09188 0.57851 0.1275 0.0
H1035 H 0.06511 0.55878 0.17631 0.0
H1036 H 0.03778 0.62808 0.1967 0.0
H1037 H 0.06414 0.6482 0.14772 0.0
C1038 C 0.19034 0.69215 0.09788 0.0
C1039 C 0.1818 0.71057 0.11718 0.0
C1040 C 0.17306 0.67621 0.08438 0.0
C1041 C 0.14692 0.67837 0.08996 0.0
C1042 C 0.13845 0.69781 0.10718 0.0
C1043 C 0.15572 0.71384 0.12052 0.0
C1044 C 0.12857 0.65856 0.08217 0.0
C1045 C 0.11261 0.64673 0.10894 0.0
C1046 C 0.12777 0.6501 0.04979 0.0
C1047 C 0.14247 0.66273 0.01957 0.0
C1048 C 0.14143 0.68801 0.01162 0.0
C1049 C 0.1538 0.69949 0.98189 0.0
C1050 C 0.16713 0.68587 0.9597 0.0
C1051 C 0.16823 0.66075 0.96728 0.0
C1052 C 0.156 0.6492 0.99705 0.0
C1053 C 0.03079 0.58894 0.05874 0.0
C1054 C 0.03725 0.5676 0.0445 0.0
C1055 C 0.04954 0.60488 0.06899 0.0
C1056 C 0.07515 0.60009 0.0644 0.0
C1057 C 0.08168 0.57859 0.05053 0.0
C1058 C 0.06278 0.56223 0.04106 0.0
C1059 C 0.09491 0.61857 0.072 0.0
C1060 C 0.11117 0.62997 0.04538 0.0
C1061 C 0.09581 0.62688 0.1043 0.0
C1062 C 0.07985 0.61484 0.13374 0.0
C1063 C 0.08 0.58952 0.1422 0.0
C1064 C 0.06493 0.57827 0.16995 0.0
C1065 C 0.04972 0.59216 0.18956 0.0
C1066 C 0.04957 0.61734 0.18148 0.0
C1067 C 0.06459 0.62868 0.15375 0.0
H1068 H 0.03808 0.58342 0.21104 0.0
H1069 H 0.17649 0.69475 0.93656 0.0
H1070 H 0.31829 0.80877 0.9141 0.0
H1071 H 0.34787 0.83639 0.93883 0.0
H1072 H 0.31612 0.89811 0.88661 0.0
H1073 H 0.28657 0.87026 0.86147 0.0
H1074 H 0.36466 0.89898 0.8708 0.0
H1075 H 0.31531 0.89152 0.97334 0.0
H1076 H 0.29 0.87453 0.0249 0.0
H1077 H 0.35337 0.83643 0.05838 0.0
H1078 H 0.37895 0.85272 0.00668 0.0
H1079 H 0.45511 0.97987 0.93674 0.0
H1080 H 0.41735 0.95786 0.92004 0.0
H1081 H 0.4422 0.89041 0.96609 0.0
H1082 H 0.47979 0.91231 0.98332 0.0
H1083 H 0.39524 0.89492 0.98538 0.0
H1084 H 0.44279 0.90377 0.87866 0.0
H1085 H 0.46763 0.92579 0.82974 0.0
H1086 H 0.40445 0.96824 0.80762 0.0
H1087 H 0.37932 0.9467 0.85671 0.0
C1088 C 0.31703 0.82828 0.90893 0.0
C1089 C 0.30028 0.83745 0.88584 0.0
C1090 C 0.33388 0.84409 0.92315 0.0
C1091 C 0.33432 0.86937 0.91453 0.0
C1092 C 0.31614 0.87866 0.8936 0.0
C1093 C 0.29913 0.8628 0.87947 0.0
C1094 C 0.3562 0.88527 0.92284 0.0
C1095 C 0.37085 0.8988 0.89614 0.0
C1096 C 0.36479 0.88445 0.95566 0.0
C1097 C 0.34898 0.87313 0.98577 0.0
C1098 C 0.32374 0.87915 0.99134 0.0
C1099 C 0.30936 0.86972 0.02071 0.0
C1100 C 0.32004 0.85434 0.04484 0.0
C1101 C 0.34509 0.84827 0.0396 0.0
C1102 C 0.35953 0.85759 0.01024 0.0
C1103 C 0.45267 0.96032 0.94306 0.0
C1104 C 0.47047 0.94787 0.96144 0.0
C1105 C 0.43118 0.9477 0.93317 0.0
C1106 C 0.42708 0.92239 0.94138 0.0
C1107 C 0.44499 0.90991 0.95936 0.0
C1108 C 0.46648 0.92249 0.96923 0.0
C1109 C 0.40318 0.90927 0.93373 0.0
C1110 C 0.38847 0.89586 0.96037 0.0
C1111 C 0.39418 0.91085 0.90115 0.0
C1112 C 0.40926 0.92379 0.87158 0.0
C1113 C 0.43426 0.91794 0.86354 0.0
C1114 C 0.44838 0.93031 0.83574 0.0
C1115 C 0.43765 0.94845 0.81564 0.0
C1116 C 0.41275 0.95421 0.82324 0.0
C1117 C 0.39855 0.94191 0.85103 0.0
H1118 H 0.44861 0.958 0.79413 0.0
H1119 H 0.30894 0.8472 0.06766 0.0
H1120 H 0.23815 0.30538 0.84473 0.0
H1121 H 0.21447 0.33595 0.87104 0.0
H1122 H 0.14445 0.29483 0.85883 0.0
H1123 H 0.16811 0.26424 0.83155 0.0
H1124 H 0.14289 0.34245 0.83685 0.0
H1125 H 0.17158 0.29745 0.93476 0.0
H1126 H 0.20525 0.28004 0.9671 0.0
H1127 H 0.2387 0.35196 0.97486 0.0
H1128 H 0.20594 0.36979 0.94111 0.0
H1129 H 0.05548 0.39837 0.93509 0.0
H1130 H 0.08434 0.37115 0.91122 0.0
H1131 H 0.14803 0.41789 0.93338 0.0
H1132 H 0.11875 0.44552 0.95838 0.0
H1133 H 0.15612 0.37037 0.94924 0.0
H1134 H 0.13186 0.4164 0.85268 0.0
H1135 H 0.10417 0.43651 0.81306 0.0
H1136 H 0.06766 0.36703 0.79851 0.0
H1137 H 0.09484 0.34652 0.83845 0.0
C1138 C 0.21772 0.30255 0.84805 0.0
C1139 C 0.20503 0.28224 0.83606 0.0
C1140 C 0.2042 0.32011 0.86321 0.0
C1141 C 0.17768 0.31765 0.86722 0.0
C1142 C 0.16494 0.29708 0.85608 0.0
C1143 C 0.17848 0.2795 0.84074 0.0
C1144 C 0.1632 0.33713 0.88141 0.0
C1145 C 0.14555 0.34834 0.86158 0.0
C1146 C 0.16759 0.34564 0.91309 0.0
C1147 C 0.18646 0.33495 0.93495 0.0
C1148 C 0.18624 0.30957 0.94305 0.0
C1149 C 0.20526 0.29961 0.96148 0.0
C1150 C 0.22418 0.31488 0.97287 0.0
C1151 C 0.22409 0.34015 0.9659 0.0
C1152 C 0.20537 0.35019 0.94697 0.0
C1153 C 0.0756 0.40311 0.93493 0.0
C1154 C 0.08476 0.42433 0.94853 0.0
C1155 C 0.09214 0.38747 0.92099 0.0
C1156 C 0.11839 0.39261 0.91987 0.0
C1157 C 0.12781 0.41364 0.93372 0.0
C1158 C 0.1111 0.42948 0.94781 0.0
C1159 C 0.13549 0.37541 0.90477 0.0
C1160 C 0.15358 0.36461 0.92439 0.0
C1161 C 0.13206 0.36765 0.87243 0.0
C1162 C 0.11524 0.37994 0.8489 0.0
C1163 C 0.11773 0.40542 0.84134 0.0
C1164 C 0.10217 0.41689 0.81875 0.0
C1165 C 0.08412 0.40307 0.80335 0.0
C1166 C 0.08162 0.37773 0.8105 0.0
C1167 C 0.09711 0.36617 0.83311 0.0
H1168 H 0.07212 0.41198 0.78583 0.0
H1169 H 0.23882 0.30713 0.98728 0.0
H1170 H 0.67893 0.20368 0.76651 0.0
H1171 H 0.64895 0.17223 0.79566 0.0
H1172 H 0.7014 0.15782 0.87173 0.0
H1173 H 0.73162 0.18989 0.84285 0.0
H1174 H 0.67559 0.11375 0.84363 0.0
H1175 H 0.65728 0.1867 0.89579 0.0
H1176 H 0.6488 0.23022 0.8953 0.0
H1177 H 0.58266 0.21776 0.84118 0.0
H1178 H 0.59099 0.17422 0.84086 0.0
H1179 H 0.57844 0.04193 0.9532 0.0
H1180 H 0.61483 0.0683 0.92812 0.0
H1181 H 0.56613 0.10722 0.86306 0.0
H1182 H 0.52988 0.08098 0.88764 0.0
H1183 H 0.59344 0.13882 0.89098 0.0
H1184 H 0.61044 0.06694 0.83734 0.0
H1185 H 0.6186 0.02369 0.83388 0.0
H1186 H 0.68655 0.03349 0.88522 0.0
H1187 H 0.67869 0.07675 0.88932 0.0
C1188 C 0.68423 0.19387 0.78942 0.0
C1189 C 0.70775 0.19947 0.80234 0.0
C1190 C 0.667 0.17582 0.80606 0.0
C1191 C 0.67287 0.16257 0.83588 0.0
C1192 C 0.69649 0.16772 0.84868 0.0
C1193 C 0.71367 0.18617 0.83227 0.0
C1194 C 0.65367 0.14413 0.85392 0.0
C1195 C 0.65779 0.11915 0.85462 0.0
C1196 C 0.63018 0.15115 0.86743 0.0
C1197 C 0.62489 0.17724 0.86807 0.0
C1198 C 0.64104 0.19328 0.88356 0.0
C1199 C 0.63624 0.21794 0.88347 0.0
C1200 C 0.61524 0.22676 0.86816 0.0
C1201 C 0.59894 0.2109 0.85301 0.0
C1202 C 0.60367 0.18623 0.85299 0.0
C1203 C 0.57554 0.05579 0.9331 0.0
C1204 C 0.55106 0.05922 0.92259 0.0
C1205 C 0.59645 0.07106 0.91887 0.0
C1206 C 0.59343 0.09015 0.89385 0.0
C1207 C 0.56913 0.09292 0.88255 0.0
C1208 C 0.54833 0.07771 0.8966 0.0
C1209 C 0.61495 0.10809 0.88036 0.0
C1210 C 0.61128 0.13316 0.88045 0.0
C1211 C 0.63868 0.10102 0.86721 0.0
C1212 C 0.64361 0.07502 0.8644 0.0
C1213 C 0.62695 0.05983 0.8483 0.0
C1214 C 0.63158 0.03531 0.84609 0.0
C1215 C 0.65298 0.0258 0.85953 0.0
C1216 C 0.6699 0.04085 0.87496 0.0
C1217 C 0.66536 0.06538 0.87723 0.0
H1218 H 0.65652 0.0068 0.85783 0.0
H1219 H 0.61157 0.24586 0.86808 0.0
H1220 H 0.76037 0.69491 0.8468 0.0
H1221 H 0.78294 0.67108 0.88854 0.0
H1222 H 0.85415 0.70436 0.84256 0.0
H1223 H 0.8316 0.72919 0.80251 0.0
H1224 H 0.81084 0.6378 0.88328 0.0
H1225 H 0.9013 0.70382 0.89137 0.0
H1226 H 0.91131 0.74768 0.89507 0.0
H1227 H 0.83483 0.75575 0.93252 0.0
H1228 H 0.82442 0.71186 0.92956 0.0
H1229 H 0.9151 0.57182 0.90109 0.0
H1230 H 0.8839 0.60059 0.88639 0.0
H1231 H 0.89289 0.63341 0.97907 0.0
H1232 H 0.92595 0.60559 0.99295 0.0
H1233 H 0.88869 0.66753 0.93331 0.0
H1234 H 0.83871 0.59591 0.96748 0.0
H1235 H 0.8251 0.55212 0.97277 0.0
H1236 H 0.81344 0.55612 0.86724 0.0
H1237 H 0.82734 0.59986 0.86115 0.0
C1238 C 0.78082 0.69736 0.84607 0.0
C1239 C 0.79425 0.71391 0.82151 0.0
C1240 C 0.79373 0.68374 0.8699 0.0
C1241 C 0.82033 0.68607 0.8692 0.0
C1242 C 0.83365 0.70271 0.8446 0.0
C1243 C 0.82073 0.71676 0.82139 0.0
C1244 C 0.8344 0.66958 0.89183 0.0
C1245 C 0.82766 0.64442 0.89452 0.0
C1246 C 0.85581 0.67808 0.90796 0.0
C1247 C 0.86204 0.70451 0.91005 0.0
C1248 C 0.88664 0.71489 0.90061 0.0
C1249 C 0.89238 0.73979 0.90252 0.0
C1250 C 0.8737 0.7545 0.91395 0.0
C1251 C 0.84926 0.74434 0.92357 0.0
C1252 C 0.84342 0.71946 0.92173 0.0
C1253 C 0.91049 0.5851 0.91853 0.0
C1254 C 0.92274 0.58612 0.94853 0.0
C1255 C 0.89242 0.60146 0.91018 0.0
C1256 C 0.88544 0.61878 0.9321 0.0
C1257 C 0.89785 0.62011 0.96193 0.0
C1258 C 0.91659 0.60409 0.96993 0.0
C1259 C 0.86588 0.63589 0.92269 0.0
C1260 C 0.87153 0.66108 0.92265 0.0
C1261 C 0.84279 0.62751 0.91042 0.0
C1262 C 0.83414 0.60121 0.91386 0.0
C1263 C 0.83335 0.58744 0.94535 0.0
C1264 C 0.82558 0.56262 0.9485 0.0
C1265 C 0.81842 0.55134 0.92036 0.0
C1266 C 0.81897 0.56488 0.88902 0.0
C1267 C 0.82674 0.58972 0.88572 0.0
H1268 H 0.81243 0.53212 0.92284 0.0
H1269 H 0.87818 0.77377 0.91539 0.0
H1270 H 0.1864 0.27062 0.16839 0.0
H1271 H 0.15881 0.29629 0.13597 0.0
H1272 H 0.21786 0.3543 0.12224 0.0
H1273 H 0.24552 0.32891 0.15467 0.0
H1274 H 0.17173 0.36745 0.15051 0.0
H1275 H 0.20213 0.32122 0.06091 0.0
H1276 H 0.20832 0.28231 0.03685 0.0
H1277 H 0.12789 0.26867 0.03562 0.0
H1278 H 0.12106 0.30665 0.06198 0.0
H1279 H 0.11536 0.45593 0.05435 0.0
H1280 H 0.14523 0.42544 0.06912 0.0
H1281 H 0.0869 0.36803 0.06466 0.0
H1282 H 0.05709 0.39865 0.04831 0.0
H1283 H 0.13144 0.35272 0.04499 0.0
H1284 H 0.09862 0.39026 0.13929 0.0
H1285 H 0.08721 0.42328 0.17392 0.0
H1286 H 0.16556 0.44813 0.17276 0.0
H1287 H 0.17743 0.41549 0.13763 0.0
C1288 C 0.19367 0.2887 0.158 0.0
C1289 C 0.21809 0.29781 0.16431 0.0
C1290 C 0.1779 0.30329 0.13942 0.0
C1291 C 0.18635 0.32714 0.12675 0.0
C1292 C 0.21104 0.33591 0.13186 0.0
C1293 C 0.22682 0.32135 0.15034 0.0
C1294 C 0.16887 0.34381 0.11079 0.0
C1295 C 0.16327 0.36447 0.1271 0.0
C1296 C 0.15684 0.33906 0.08124 0.0
C1297 C 0.16107 0.31673 0.06396 0.0
C1298 C 0.18571 0.3098 0.05605 0.0
C1299 C 0.18933 0.28782 0.04211 0.0
C1300 C 0.16853 0.27305 0.03464 0.0
C1301 C 0.14401 0.28012 0.04142 0.0
C1302 C 0.14024 0.30179 0.05614 0.0
C1303 C 0.109 0.43679 0.05605 0.0
C1304 C 0.08381 0.4296 0.05101 0.0
C1305 C 0.12606 0.41939 0.0645 0.0
C1306 C 0.11807 0.39451 0.06904 0.0
C1307 C 0.0934 0.38716 0.06161 0.0
C1308 C 0.07638 0.40463 0.05242 0.0
C1309 C 0.13483 0.37668 0.08436 0.0
C1310 C 0.14011 0.35578 0.0682 0.0
C1311 C 0.14596 0.38061 0.11483 0.0
C1312 C 0.13888 0.40058 0.13548 0.0
C1313 C 0.1134 0.40292 0.1461 0.0
C1314 C 0.10685 0.42154 0.16589 0.0
C1315 C 0.12564 0.43784 0.17545 0.0
C1316 C 0.15102 0.43553 0.16526 0.0
C1317 C 0.15767 0.41697 0.14541 0.0
H1318 H 0.12054 0.4522 0.19085 0.0
H1319 H 0.17141 0.25616 0.02353 0.0
H1320 H 0.22922 0.68999 0.84144 0.0
H1321 H 0.1991 0.65784 0.86974 0.0
H1322 H 0.13693 0.6987 0.83659 0.0
H1323 H 0.16716 0.73102 0.80888 0.0
H1324 H 0.12547 0.67833 0.89874 0.0
H1325 H 0.15854 0.64999 0.79549 0.0
H1326 H 0.19219 0.63961 0.7547 0.0
H1327 H 0.21678 0.58623 0.82841 0.0
H1328 H 0.18345 0.59653 0.86978 0.0
H1329 H 0.02583 0.58829 0.89533 0.0
H1330 H 0.06152 0.61724 0.87687 0.0
H1331 H 0.11039 0.57426 0.93654 0.0
H1332 H 0.0743 0.54511 0.9561 0.0
H1333 H 0.13152 0.59381 0.86703 0.0
H1334 H 0.09243 0.61975 0.96737 0.0
H1335 H 0.05765 0.63113 0.00549 0.0
H1336 H 0.04252 0.69008 0.93358 0.0
H1337 H 0.07696 0.67884 0.89467 0.0
C1338 C 0.20909 0.69226 0.84083 0.0
C1339 C 0.20046 0.7131 0.82339 0.0
C1340 C 0.19186 0.67376 0.85672 0.0
C1341 C 0.16558 0.6755 0.855 0.0
C1342 C 0.15702 0.69679 0.8384 0.0
C1343 C 0.17427 0.71532 0.82261 0.0
C1344 C 0.147 0.65494 0.86933 0.0
C1345 C 0.12672 0.65993 0.89151 0.0
C1346 C 0.1488 0.63062 0.86075 0.0
C1347 C 0.16869 0.62422 0.83584 0.0
C1348 C 0.17123 0.63615 0.80306 0.0
C1349 C 0.19023 0.63027 0.77983 0.0
C1350 C 0.20666 0.61232 0.78899 0.0
C1351 C 0.20405 0.60014 0.82136 0.0
C1352 C 0.1851 0.60598 0.8447 0.0
C1353 C 0.04416 0.58461 0.90437 0.0
C1354 C 0.04696 0.56412 0.92736 0.0
C1355 C 0.06462 0.60138 0.89377 0.0
C1356 C 0.08868 0.59816 0.90546 0.0
C1357 C 0.09202 0.57718 0.92713 0.0
C1358 C 0.07134 0.56044 0.93821 0.0
C1359 C 0.10974 0.6174 0.89579 0.0
C1360 C 0.13044 0.61217 0.87449 0.0
C1361 C 0.10812 0.64161 0.90475 0.0
C1362 C 0.08722 0.64831 0.92799 0.0
C1363 C 0.08158 0.63502 0.95955 0.0
C1364 C 0.06194 0.64147 0.98134 0.0
C1365 C 0.04787 0.66129 0.97201 0.0
C1366 C 0.05343 0.67472 0.94081 0.0
C1367 C 0.07303 0.66832 0.91887 0.0
H1368 H 0.03269 0.66624 0.98897 0.0
H1369 H 0.22137 0.6078 0.77099 0.0
H1370 H 0.31246 0.19401 0.80255 0.0
H1371 H 0.33598 0.16587 0.83778 0.0
H1372 H 0.27504 0.16038 0.9154 0.0
H1373 H 0.25076 0.18774 0.87936 0.0
H1374 H 0.3303 0.17545 0.93135 0.0
H1375 H 0.27662 0.1167 0.88997 0.0
H1376 H 0.25373 0.09181 0.85236 0.0
H1377 H 0.32391 0.06711 0.81296 0.0
H1378 H 0.34747 0.09303 0.84878 0.0
H1379 H 0.39581 0.05055 0.97376 0.0
H1380 H 0.359 0.07389 0.9637 0.0
H1381 H 0.40756 0.1402 0.94711 0.0
H1382 H 0.44425 0.11679 0.95979 0.0
H1383 H 0.35087 0.0918 0.90858 0.0
H1384 H 0.38296 0.1868 0.94421 0.0
H1385 H 0.39351 0.20899 0.99299 0.0
H1386 H 0.35061 0.1537 0.05946 0.0
H1387 H 0.34114 0.13065 0.01143 0.0
C1388 C 0.30397 0.18656 0.82699 0.0
C1389 C 0.27987 0.19302 0.8384 0.0
C1390 C 0.31733 0.1704 0.84693 0.0
C1391 C 0.30713 0.16085 0.87897 0.0
C1392 C 0.28307 0.16735 0.89054 0.0
C1393 C 0.26927 0.18294 0.87006 0.0
C1394 C 0.3228 0.14587 0.90109 0.0
C1395 C 0.3348 0.15711 0.9264 0.0
C1396 C 0.32793 0.12162 0.89544 0.0
C1397 C 0.31396 0.10747 0.87168 0.0
C1398 C 0.28734 0.1067 0.87251 0.0
C1399 C 0.27419 0.09223 0.85159 0.0
C1400 C 0.28735 0.07797 0.83017 0.0
C1401 C 0.31372 0.07818 0.82956 0.0
C1402 C 0.327 0.09292 0.85003 0.0
C1403 C 0.39847 0.07023 0.96901 0.0
C1404 C 0.42284 0.08187 0.96712 0.0
C1405 C 0.37741 0.08361 0.96319 0.0
C1406 C 0.38028 0.10891 0.95403 0.0
C1407 C 0.40452 0.12083 0.95453 0.0
C1408 C 0.42561 0.10742 0.96149 0.0
C1409 C 0.35917 0.12158 0.93832 0.0
C1410 C 0.34636 0.11007 0.91373 0.0
C1411 C 0.35251 0.14511 0.94545 0.0
C1412 C 0.36169 0.15691 0.97441 0.0
C1413 C 0.37637 0.17915 0.96939 0.0
C1414 C 0.3822 0.19184 0.99691 0.0
C1415 C 0.37287 0.18273 0.02938 0.0
C1416 C 0.35822 0.1606 0.03447 0.0
C1417 C 0.35293 0.14753 0.00717 0.0
H1418 H 0.37695 0.19285 0.05055 0.0
H1419 H 0.27712 0.06668 0.81413 0.0
H1420 H 0.80105 0.33339 0.87186 0.0
H1421 H 0.82707 0.36397 0.8972 0.0
H1422 H 0.88853 0.31617 0.89913 0.0
H1423 H 0.86251 0.28537 0.87415 0.0
H1424 H 0.88423 0.34102 0.95608 0.0
H1425 H 0.8883 0.35819 0.8359 0.0
H1426 H 0.87001 0.36541 0.78103 0.0
H1427 H 0.83569 0.42858 0.81382 0.0
H1428 H 0.8535 0.4215 0.86916 0.0
H1429 H 0.99364 0.41713 0.95752 0.0
H1430 H 0.96105 0.38954 0.93876 0.0
H1431 H 0.90894 0.44675 0.93745 0.0
H1432 H 0.94219 0.47499 0.95508 0.0
H1433 H 0.90399 0.41918 0.88476 0.0
H1434 H 0.91171 0.40393 0.00356 0.0
H1435 H 0.93629 0.39522 0.0529 0.0
H1436 H 0.95154 0.32503 0.02109 0.0
H1437 H 0.92885 0.33396 0.9701 0.0
C1438 C 0.81987 0.32912 0.87848 0.0
C1439 C 0.82979 0.307 0.87085 0.0
C1440 C 0.83478 0.34669 0.89273 0.0
C1441 C 0.85983 0.34245 0.89966 0.0
C1442 C 0.86926 0.31983 0.89391 0.0
C1443 C 0.85444 0.30231 0.87947 0.0
C1444 C 0.87691 0.36218 0.91035 0.0
C1445 C 0.88865 0.35811 0.94056 0.0
C1446 C 0.88234 0.38456 0.89016 0.0
C1447 C 0.87195 0.38914 0.85679 0.0
C1448 C 0.8767 0.37352 0.8315 0.0
C1449 C 0.86645 0.37759 0.80032 0.0
C1450 C 0.85162 0.39737 0.79402 0.0
C1451 C 0.84713 0.41322 0.81881 0.0
C1452 C 0.8573 0.40919 0.85008 0.0
C1453 C 0.97534 0.42397 0.95286 0.0
C1454 C 0.97034 0.44813 0.95805 0.0
C1455 C 0.95669 0.40813 0.94226 0.0
C1456 C 0.93232 0.41585 0.93766 0.0
C1457 C 0.92756 0.44035 0.9412 0.0
C1458 C 0.94651 0.45645 0.95121 0.0
C1459 C 0.9118 0.39793 0.93036 0.0
C1460 C 0.8993 0.40234 0.90076 0.0
C1461 C 0.9061 0.37562 0.95091 0.0
C1462 C 0.91868 0.36976 0.98264 0.0
C1463 C 0.9205 0.38673 0.00679 0.0
C1464 C 0.93422 0.38179 0.03504 0.0
C1465 C 0.94528 0.35955 0.04028 0.0
C1466 C 0.94292 0.34226 0.01705 0.0
C1467 C 0.92982 0.34734 0.98828 0.0
H1468 H 0.9557 0.35573 0.06233 0.0
H1469 H 0.84365 0.40041 0.76993 0.0
H1470 H 0.74674 0.81526 0.82142 0.0
H1471 H 0.72211 0.84378 0.85107 0.0
H1472 H 0.65321 0.8019 0.83592 0.0
H1473 H 0.67781 0.77312 0.80614 0.0
H1474 H 0.65155 0.85151 0.81659 0.0
H1475 H 0.67549 0.80083 0.91263 0.0
H1476 H 0.70643 0.78047 0.94702 0.0
H1477 H 0.74297 0.85002 0.96111 0.0
H1478 H 0.71252 0.87081 0.92627 0.0
H1479 H 0.56127 0.90047 0.92091 0.0
H1480 H 0.59069 0.87517 0.89376 0.0
H1481 H 0.65361 0.92026 0.92198 0.0
H1482 H 0.62381 0.94588 0.95012 0.0
H1483 H 0.66159 0.87205 0.93346 0.0
H1484 H 0.63803 0.92338 0.84075 0.0
H1485 H 0.61001 0.94511 0.80321 0.0
H1486 H 0.57556 0.87675 0.78016 0.0
H1487 H 0.60304 0.85457 0.81805 0.0
C1488 C 0.72635 0.81187 0.82477 0.0
C1489 C 0.71424 0.79186 0.81138 0.0
C1490 C 0.7123 0.82821 0.84182 0.0
C1491 C 0.6858 0.82499 0.84582 0.0
C1492 C 0.67365 0.80474 0.83314 0.0
C1493 C 0.68774 0.78822 0.81631 0.0
C1494 C 0.67071 0.84343 0.86164 0.0
C1495 C 0.65346 0.85575 0.84231 0.0
C1496 C 0.67409 0.8498 0.89467 0.0
C1497 C 0.69194 0.83736 0.91643 0.0
C1498 C 0.69025 0.81178 0.92283 0.0
C1499 C 0.7077 0.80016 0.94239 0.0
C1500 C 0.7268 0.81394 0.95594 0.0
C1501 C 0.72826 0.83938 0.95038 0.0
C1502 C 0.7109 0.85109 0.93075 0.0
C1503 C 0.58134 0.90524 0.92135 0.0
C1504 C 0.59013 0.92536 0.93766 0.0
C1505 C 0.5982 0.89073 0.90555 0.0
C1506 C 0.62441 0.89593 0.9053 0.0
C1507 C 0.63344 0.91596 0.92164 0.0
C1508 C 0.61642 0.93067 0.93754 0.0
C1509 C 0.64194 0.87978 0.88863 0.0
C1510 C 0.65971 0.86792 0.90769 0.0
C1511 C 0.6393 0.87403 0.85512 0.0
C1512 C 0.62247 0.8873 0.83256 0.0
C1513 C 0.6243 0.91296 0.82797 0.0
C1514 C 0.60854 0.92537 0.80657 0.0
C1515 C 0.59095 0.91232 0.78942 0.0
C1516 C 0.58915 0.88683 0.79354 0.0
C1517 C 0.60482 0.87433 0.81497 0.0
H1518 H 0.57874 0.92195 0.7729 0.0
H1519 H 0.7404 0.8049 0.97087 0.0
H1520 H 0.76735 0.7059 0.16713 0.0
H1521 H 0.78969 0.67755 0.13421 0.0
H1522 H 0.86042 0.70303 0.17072 0.0
H1523 H 0.8382 0.73242 0.20225 0.0
H1524 H 0.8683 0.69472 0.10863 0.0
H1525 H 0.8218 0.65005 0.20496 0.0
H1526 H 0.78286 0.63681 0.24067 0.0
H1527 H 0.75209 0.60204 0.15917 0.0
H1528 H 0.79036 0.61598 0.12247 0.0
H1529 H 0.94461 0.59822 0.09562 0.0
H1530 H 0.91534 0.62562 0.11896 0.0
H1531 H 0.85689 0.59811 0.05961 0.0
H1532 H 0.88648 0.5701 0.036 0.0
H1533 H 0.83941 0.60692 0.1267 0.0
H1534 H 0.88589 0.65093 0.03118 0.0
H1535 H 0.92424 0.6653 0.9946 0.0
H1536 H 0.95504 0.70035 0.07587 0.0
H1537 H 0.91704 0.68599 0.11292 0.0
C1538 C 0.78773 0.70566 0.16776 0.0
C1539 C 0.80105 0.72125 0.1874 0.0
C1540 C 0.80046 0.68931 0.14912 0.0
C1541 C 0.82669 0.68758 0.15065 0.0
C1542 C 0.84016 0.70386 0.16923 0.0
C1543 C 0.82749 0.72068 0.18724 0.0
C1544 C 0.84006 0.66842 0.13381 0.0
C1545 C 0.86202 0.67554 0.11289 0.0
C1546 C 0.83153 0.64333 0.13838 0.0
C1547 C 0.80887 0.63429 0.16084 0.0
C1548 C 0.80668 0.6397 0.19458 0.0
C1549 C 0.78472 0.63209 0.215 0.0
C1550 C 0.76508 0.61851 0.20225 0.0
C1551 C 0.76732 0.61257 0.16901 0.0
C1552 C 0.7891 0.62041 0.14834 0.0
C1553 C 0.92542 0.59766 0.08782 0.0
C1554 C 0.91788 0.58209 0.06382 0.0
C1555 C 0.90873 0.61345 0.10111 0.0
C1556 C 0.88411 0.61431 0.09052 0.0
C1557 C 0.87589 0.59781 0.06798 0.0
C1558 C 0.89271 0.58174 0.05468 0.0
C1559 C 0.8678 0.63331 0.10232 0.0
C1560 C 0.8454 0.62617 0.12226 0.0
C1561 C 0.8759 0.65839 0.09702 0.0
C1562 C 0.89874 0.6672 0.07482 0.0
C1563 C 0.90097 0.66153 0.04124 0.0
C1564 C 0.92259 0.6697 0.02044 0.0
C1565 C 0.94208 0.68364 0.03295 0.0
C1566 C 0.93994 0.68952 0.06623 0.0
C1567 C 0.91834 0.68141 0.08711 0.0
H1568 H 0.95881 0.68993 0.01682 0.0
H1569 H 0.74811 0.61261 0.21813 0.0
H1570 H 0.33868 0.79495 0.20281 0.0
H1571 H 0.36969 0.82685 0.17737 0.0
H1572 H 0.30913 0.87073 0.14607 0.0
H1573 H 0.27801 0.83764 0.16941 0.0
H1574 H 0.34419 0.88107 0.10226 0.0
H1575 H 0.34467 0.87934 0.21977 0.0
H1576 H 0.34602 0.86202 0.27863 0.0
H1577 H 0.42139 0.84047 0.25705 0.0
H1578 H 0.42035 0.85728 0.19789 0.0
H1579 H 0.44111 0.98162 0.06836 0.0
H1580 H 0.40324 0.95751 0.09489 0.0
H1581 H 0.44902 0.89709 0.11885 0.0
H1582 H 0.48661 0.9213 0.09459 0.0
H1583 H 0.41652 0.90105 0.16957 0.0
H1584 H 0.41072 0.91307 0.0463 0.0
H1585 H 0.40426 0.94094 0.99655 0.0
H1586 H 0.32901 0.95152 0.03584 0.0
H1587 H 0.33603 0.92626 0.08793 0.0
C1588 C 0.33199 0.81129 0.19012 0.0
C1589 C 0.30592 0.81385 0.18829 0.0
C1590 C 0.34977 0.82975 0.17586 0.0
C1591 C 0.34201 0.8519 0.16077 0.0
C1592 C 0.31586 0.85408 0.15777 0.0
C1593 C 0.298 0.83515 0.17112 0.0
C1594 C 0.36125 0.87266 0.14894 0.0
C1595 C 0.35983 0.8856 0.11721 0.0
C1596 C 0.38145 0.87936 0.16858 0.0
C1597 C 0.38235 0.86943 0.20428 0.0
C1598 C 0.36149 0.87079 0.22752 0.0
C1599 C 0.36219 0.86106 0.26094 0.0
C1600 C 0.38376 0.85012 0.27156 0.0
C1601 C 0.40469 0.84894 0.24878 0.0
C1602 C 0.40406 0.85858 0.21529 0.0
C1603 C 0.44308 0.9633 0.07972 0.0
C1604 C 0.46705 0.95352 0.07935 0.0
C1605 C 0.42135 0.94943 0.09472 0.0
C1606 C 0.42294 0.92508 0.10838 0.0
C1607 C 0.44699 0.91567 0.10852 0.0
C1608 C 0.46864 0.92965 0.09453 0.0
C1609 C 0.40012 0.90878 0.12225 0.0
C1610 C 0.40082 0.89661 0.15463 0.0
C1611 C 0.37853 0.90394 0.10389 0.0
C1612 C 0.37417 0.91808 0.07155 0.0
C1613 C 0.39295 0.92167 0.04478 0.0
C1614 C 0.38924 0.93717 0.01615 0.0
C1615 C 0.36617 0.94773 0.01273 0.0
C1616 C 0.34691 0.94332 0.03842 0.0
C1617 C 0.35093 0.92878 0.06783 0.0
H1618 H 0.36327 0.95938 0.99023 0.0
H1619 H 0.38426 0.84259 0.29745 0.0
H1620 H 0.69275 0.2084 0.09709 0.0
H1621 H 0.66342 0.18034 0.0725 0.0
H1622 H 0.69737 0.11908 0.1223 0.0
H1623 H 0.72685 0.14725 0.14721 0.0
H1624 H 0.68054 0.1124 0.05421 0.0
H1625 H 0.64971 0.13677 0.16206 0.0
H1626 H 0.64133 0.16767 0.20156 0.0
H1627 H 0.59166 0.20171 0.13367 0.0
H1628 H 0.60009 0.17124 0.09349 0.0
H1629 H 0.56751 0.03078 0.05714 0.0
H1630 H 0.6053 0.0534 0.07301 0.0
H1631 H 0.57697 0.12083 0.03267 0.0
H1632 H 0.53895 0.0985 0.01721 0.0
H1633 H 0.59231 0.12187 0.09834 0.0
H1634 H 0.64348 0.1134 0.98622 0.0
H1635 H 0.65542 0.08856 0.94029 0.0
H1636 H 0.66389 0.02735 0.01226 0.0
H1637 H 0.65294 0.05237 0.05875 0.0
C1638 C 0.69445 0.18894 0.102 0.0
C1639 C 0.71188 0.17996 0.12428 0.0
C1640 C 0.67767 0.17295 0.08802 0.0
C1641 C 0.67795 0.1477 0.09614 0.0
C1642 C 0.69685 0.13854 0.11586 0.0
C1643 C 0.71373 0.15462 0.12992 0.0
C1644 C 0.6567 0.13137 0.08731 0.0
C1645 C 0.66133 0.1141 0.0644 0.0
C1646 C 0.63154 0.13405 0.09994 0.0
C1647 C 0.62566 0.15181 0.12467 0.0
C1648 C 0.63708 0.1509 0.1555 0.0
C1649 C 0.63233 0.16835 0.178 0.0
C1650 C 0.61601 0.18667 0.1701 0.0
C1651 C 0.6043 0.18751 0.13975 0.0
C1652 C 0.60903 0.17014 0.11712 0.0
C1653 C 0.56937 0.05041 0.05141 0.0
C1654 C 0.55006 0.06282 0.03612 0.0
C1655 C 0.59114 0.06329 0.0602 0.0
C1656 C 0.59412 0.08878 0.05361 0.0
C1657 C 0.57509 0.10116 0.03787 0.0
C1658 C 0.55334 0.08833 0.02911 0.0
C1659 C 0.61612 0.1028 0.06525 0.0
C1660 C 0.61159 0.11979 0.08868 0.0
C1661 C 0.64129 0.09997 0.05304 0.0
C1662 C 0.64702 0.08452 0.02571 0.0
C1663 C 0.6478 0.0946 0.99215 0.0
C1664 C 0.65458 0.08055 0.96606 0.0
C1665 C 0.66018 0.05626 0.97327 0.0
C1666 C 0.6594 0.04611 0.00669 0.0
C1667 C 0.65307 0.06027 0.03293 0.0
H1668 H 0.66524 0.04534 0.953 0.0
H1669 H 0.61241 0.20021 0.1875 0.0
H1670 H 0.68179 0.62524 0.77642 0.0
H1671 H 0.64633 0.59436 0.78529 0.0
H1672 H 0.60146 0.64056 0.72349 0.0
H1673 H 0.63712 0.67139 0.71412 0.0
H1674 H 0.5849 0.63109 0.7927 0.0
H1675 H 0.60787 0.58683 0.69996 0.0
H1676 H 0.6367 0.56621 0.66264 0.0
H1677 H 0.65022 0.51419 0.74501 0.0
H1678 H 0.6218 0.53471 0.78299 0.0
H1679 H 0.48499 0.55541 0.87396 0.0
H1680 H 0.51019 0.57312 0.82312 0.0
H1681 H 0.57549 0.53793 0.85773 0.0
H1682 H 0.55057 0.52042 0.90859 0.0
H1683 H 0.57468 0.54152 0.78758 0.0
H1684 H 0.56699 0.58948 0.88076 0.0
H1685 H 0.54633 0.61131 0.92496 0.0
H1686 H 0.51377 0.65777 0.84955 0.0
H1687 H 0.53337 0.63548 0.80499 0.0
C1688 C 0.66461 0.62841 0.76392 0.0
C1689 C 0.66191 0.65067 0.74499 0.0
C1690 C 0.64452 0.61069 0.76863 0.0
C1691 C 0.62141 0.61519 0.75483 0.0
C1692 C 0.6193 0.6367 0.73392 0.0
C1693 C 0.63957 0.65428 0.72875 0.0
C1694 C 0.59847 0.60042 0.76888 0.0
C1695 C 0.58199 0.61165 0.79055 0.0
C1696 C 0.59567 0.57493 0.76715 0.0
C1697 C 0.61271 0.5624 0.74438 0.0
C1698 C 0.61712 0.5711 0.7102 0.0
C1699 C 0.63338 0.5594 0.6889 0.0
C1700 C 0.6453 0.53891 0.70145 0.0
C1701 C 0.64095 0.53005 0.73531 0.0
C1702 C 0.62472 0.54169 0.75673 0.0
C1703 C 0.50454 0.55096 0.87027 0.0
C1704 C 0.51605 0.53702 0.89544 0.0
C1705 C 0.51884 0.56098 0.84121 0.0
C1706 C 0.54468 0.55692 0.83692 0.0
C1707 C 0.55554 0.54118 0.86059 0.0
C1708 C 0.54139 0.53146 0.8898 0.0
C1709 C 0.56143 0.57228 0.81154 0.0
C1710 C 0.57683 0.56114 0.78833 0.0
C1711 C 0.56412 0.59785 0.81273 0.0
C1712 C 0.5511 0.61039 0.83957 0.0
C1713 C 0.5549 0.60393 0.87364 0.0
C1714 C 0.54343 0.61643 0.89879 0.0
C1715 C 0.52856 0.63578 0.89013 0.0
C1716 C 0.52506 0.64262 0.85631 0.0
C1717 C 0.53622 0.62995 0.83109 0.0
H1718 H 0.51994 0.64557 0.90967 0.0
H1719 H 0.65788 0.52989 0.68492 0.0
H1720 H 0.29745 0.67772 0.77449 0.0
H1721 H 0.3214 0.64956 0.80925 0.0
H1722 H 0.34329 0.7079 0.86853 0.0
H1723 H 0.31968 0.73599 0.83407 0.0
H1724 H 0.38245 0.68045 0.85459 0.0
H1725 H 0.29611 0.66819 0.89807 0.0
H1726 H 0.25022 0.65998 0.89429 0.0
H1727 H 0.26316 0.58958 0.86113 0.0
H1728 H 0.30923 0.59752 0.86421 0.0
H1729 H 0.43219 0.60492 0.98371 0.0
H1730 H 0.40577 0.63479 0.95641 0.0
H1731 H 0.37155 0.57828 0.90277 0.0
H1732 H 0.39639 0.54837 0.93164 0.0
H1733 H 0.33746 0.60666 0.91642 0.0
H1734 H 0.42558 0.62143 0.87088 0.0
H1735 H 0.47104 0.6317 0.87519 0.0
H1736 H 0.45395 0.69969 0.91329 0.0
H1737 H 0.40833 0.68955 0.90984 0.0
C1738 C 0.3077 0.68458 0.79461 0.0
C1739 C 0.3066 0.70901 0.80165 0.0
C1740 C 0.32119 0.66846 0.81458 0.0
C1741 C 0.33381 0.67661 0.84174 0.0
C1742 C 0.33361 0.70122 0.8478 0.0
C1743 C 0.32005 0.71723 0.82809 0.0
C1744 C 0.34679 0.65949 0.86448 0.0
C1745 C 0.3726 0.6644 0.86835 0.0
C1746 C 0.33388 0.63861 0.88237 0.0
C1747 C 0.30616 0.63354 0.8811 0.0
C1748 C 0.2892 0.65101 0.88976 0.0
C1749 C 0.26315 0.64641 0.88777 0.0
C1750 C 0.2538 0.62429 0.87744 0.0
C1751 C 0.27046 0.60671 0.86913 0.0
C1752 C 0.29654 0.61124 0.87102 0.0
C1753 C 0.41871 0.59891 0.96649 0.0
C1754 C 0.41645 0.57436 0.9597 0.0
C1755 C 0.40375 0.61599 0.95066 0.0
C1756 C 0.38708 0.60899 0.9267 0.0
C1757 C 0.38422 0.58427 0.92101 0.0
C1758 C 0.39854 0.56714 0.93753 0.0
C1759 C 0.37349 0.62724 0.90611 0.0
C1760 C 0.34743 0.62264 0.90267 0.0
C1761 C 0.38614 0.64855 0.88872 0.0
C1762 C 0.41358 0.65463 0.89041 0.0
C1763 C 0.43154 0.6385 0.88033 0.0
C1764 C 0.45734 0.64431 0.88264 0.0
C1765 C 0.46539 0.66636 0.89454 0.0
C1766 C 0.44768 0.68262 0.90413 0.0
C1767 C 0.42186 0.67684 0.90204 0.0
H1768 H 0.48532 0.67094 0.8963 0.0
H1769 H 0.23363 0.62077 0.876 0.0
H1770 H 0.34292 0.35941 0.78739 0.0
H1771 H 0.3725 0.38466 0.81639 0.0
H1772 H 0.40234 0.3196 0.86256 0.0
H1773 H 0.37239 0.29446 0.83429 0.0
H1774 H 0.38947 0.34816 0.9086 0.0
H1775 H 0.43776 0.35922 0.80228 0.0
H1776 H 0.4452 0.36942 0.74098 0.0
H1777 H 0.4241 0.44248 0.75146 0.0
H1778 H 0.41621 0.43262 0.8128 0.0
H1779 H 0.49059 0.41033 0.98372 0.0
H1780 H 0.46577 0.38415 0.94997 0.0
H1781 H 0.42837 0.44655 0.90961 0.0
H1782 H 0.45292 0.4728 0.9431 0.0
H1783 H 0.44667 0.41885 0.8602 0.0
H1784 H 0.39716 0.40704 0.96623 0.0
H1785 H 0.3902 0.39684 0.02758 0.0
H1786 H 0.41427 0.32475 0.01722 0.0
H1787 H 0.42175 0.33465 0.95581 0.0
C1788 C 0.35631 0.35062 0.80301 0.0
C1789 C 0.35545 0.3251 0.80876 0.0
C1790 C 0.37317 0.365 0.8196 0.0
C1791 C 0.38963 0.354 0.8417 0.0
C1792 C 0.38971 0.32847 0.84582 0.0
C1793 C 0.37273 0.31415 0.82957 0.0
C1794 C 0.40512 0.3689 0.86281 0.0
C1795 C 0.40233 0.36335 0.89792 0.0
C1796 C 0.42138 0.3891 0.849 0.0
C1797 C 0.42618 0.39511 0.81212 0.0
C1798 C 0.43452 0.37741 0.79149 0.0
C1799 C 0.43885 0.38314 0.75674 0.0
C1800 C 0.43506 0.40656 0.74232 0.0
C1801 C 0.427 0.42433 0.76265 0.0
C1802 C 0.42262 0.41869 0.79742 0.0
C1803 C 0.47687 0.41843 0.96797 0.0
C1804 C 0.47381 0.44366 0.96602 0.0
C1805 C 0.46275 0.40347 0.94868 0.0
C1806 C 0.44535 0.41349 0.92724 0.0
C1807 C 0.44185 0.43853 0.92583 0.0
C1808 C 0.45582 0.45346 0.94517 0.0
C1809 C 0.43101 0.39801 0.90576 0.0
C1810 C 0.43395 0.40352 0.87071 0.0
C1811 C 0.41495 0.37772 0.91958 0.0
C1812 C 0.41027 0.37167 0.95647 0.0
C1813 C 0.40117 0.38908 0.97706 0.0
C1814 C 0.39709 0.38334 0.01184 0.0
C1815 C 0.40185 0.36018 0.0263 0.0
C1816 C 0.41063 0.34269 0.00599 0.0
C1817 C 0.41478 0.34835 0.97119 0.0
H1818 H 0.39869 0.35578 0.05324 0.0
H1819 H 0.43842 0.41096 0.71541 0.0
H1820 H 0.73813 0.32846 0.79334 0.0
H1821 H 0.71171 0.35585 0.82236 0.0
H1822 H 0.64467 0.31779 0.79213 0.0
H1823 H 0.67138 0.29113 0.76122 0.0
H1824 H 0.63671 0.36382 0.79219 0.0
H1825 H 0.66836 0.30555 0.8722 0.0
H1826 H 0.70136 0.28248 0.89886 0.0
H1827 H 0.737 0.34906 0.92634 0.0
H1828 H 0.7044 0.37259 0.89942 0.0
H1829 H 0.554 0.39633 0.92685 0.0
H1830 H 0.58088 0.37285 0.89166 0.0
H1831 H 0.64446 0.42382 0.90022 0.0
H1832 H 0.61749 0.4478 0.9351 0.0
H1833 H 0.65375 0.37161 0.91148 0.0
H1834 H 0.61948 0.42912 0.83103 0.0
H1835 H 0.58503 0.45024 0.80477 0.0
H1836 H 0.55174 0.38171 0.7804 0.0
H1837 H 0.58582 0.36014 0.80696 0.0
C1838 C 0.71775 0.32621 0.79242 0.0
C1839 C 0.70674 0.30761 0.77526 0.0
C1840 C 0.70264 0.34174 0.80925 0.0
C1841 C 0.67612 0.33843 0.81044 0.0
C1842 C 0.66507 0.32061 0.79185 0.0
C1843 C 0.6803 0.3054 0.77417 0.0
C1844 C 0.66013 0.35288 0.83223 0.0
C1845 C 0.64029 0.36524 0.81836 0.0
C1846 C 0.66483 0.35501 0.86643 0.0
C1847 C 0.68405 0.34085 0.88354 0.0
C1848 C 0.68328 0.31529 0.88383 0.0
C1849 C 0.70192 0.30212 0.89897 0.0
C1850 C 0.7213 0.3143 0.9142 0.0
C1851 C 0.722 0.33966 0.9145 0.0
C1852 C 0.70342 0.35292 0.89934 0.0
C1853 C 0.57373 0.40253 0.9214 0.0
C1854 C 0.58363 0.42396 0.93372 0.0
C1855 C 0.58902 0.38913 0.90117 0.0
C1856 C 0.61459 0.39669 0.8932 0.0
C1857 C 0.62474 0.41774 0.90606 0.0
C1858 C 0.60931 0.43143 0.92588 0.0
C1859 C 0.63061 0.38256 0.87129 0.0
C1860 C 0.65032 0.37017 0.88526 0.0
C1861 C 0.62548 0.38004 0.83745 0.0
C1862 C 0.60507 0.39299 0.82128 0.0
C1863 C 0.60469 0.41853 0.82034 0.0
C1864 C 0.58526 0.43059 0.80534 0.0
C1865 C 0.56617 0.41732 0.79101 0.0
C1866 C 0.56652 0.39196 0.79155 0.0
C1867 C 0.58591 0.37981 0.80654 0.0
H1868 H 0.55114 0.42668 0.77941 0.0
H1869 H 0.73576 0.30409 0.92583 0.0
H1870 H 0.69226 0.32436 0.25425 0.0
H1871 H 0.66375 0.35056 0.22367 0.0
H1872 H 0.68721 0.3209 0.13123 0.0
H1873 H 0.7147 0.29443 0.16139 0.0
H1874 H 0.67132 0.3857 0.17512 0.0
H1875 H 0.64136 0.31685 0.07976 0.0
H1876 H 0.6332 0.27238 0.07921 0.0
H1877 H 0.61655 0.26512 0.18629 0.0
H1878 H 0.62422 0.30957 0.18745 0.0
H1879 H 0.63086 0.45204 0.03428 0.0
H1880 H 0.65205 0.42231 0.06979 0.0
H1881 H 0.58009 0.38312 0.09991 0.0
H1882 H 0.55897 0.41221 0.06338 0.0
H1883 H 0.61383 0.35197 0.09522 0.0
H1884 H 0.60783 0.42455 0.14993 0.0
H1885 H 0.61242 0.46871 0.15579 0.0
H1886 H 0.69321 0.46769 0.14018 0.0
H1887 H 0.68909 0.42358 0.13375 0.0
C1888 C 0.69117 0.32342 0.22745 0.0
C1889 C 0.70551 0.30717 0.21033 0.0
C1890 C 0.67493 0.33837 0.21001 0.0
C1891 C 0.67292 0.3373 0.17527 0.0
C1892 C 0.68781 0.32155 0.15816 0.0
C1893 C 0.70368 0.3065 0.1755 0.0
C1894 C 0.65596 0.35301 0.15622 0.0
C1895 C 0.65862 0.37831 0.15783 0.0
C1896 C 0.63885 0.34332 0.1343 0.0
C1897 C 0.63355 0.31658 0.13369 0.0
C1898 C 0.63578 0.30581 0.10316 0.0
C1899 C 0.63128 0.28058 0.10276 0.0
C1900 C 0.62443 0.26593 0.13271 0.0
C1901 C 0.62194 0.27648 0.16312 0.0
C1902 C 0.62638 0.30169 0.16366 0.0
C1903 C 0.61963 0.43685 0.04804 0.0
C1904 C 0.59325 0.43458 0.04631 0.0
C1905 C 0.63172 0.41998 0.06855 0.0
C1906 C 0.61756 0.40089 0.08834 0.0
C1907 C 0.59139 0.39779 0.08512 0.0
C1908 C 0.57935 0.41442 0.06415 0.0
C1909 C 0.62994 0.38473 0.1132 0.0
C1910 C 0.62635 0.35934 0.11273 0.0
C1911 C 0.64552 0.39429 0.13701 0.0
C1912 C 0.64813 0.42079 0.14112 0.0
C1913 C 0.62657 0.43377 0.14755 0.0
C1914 C 0.62908 0.45879 0.15099 0.0
C1915 C 0.65309 0.471 0.1483 0.0
C1916 C 0.67463 0.45821 0.14224 0.0
C1917 C 0.67222 0.43319 0.13873 0.0
H1918 H 0.655 0.49037 0.15096 0.0
H1919 H 0.62102 0.2464 0.13235 0.0
H1920 H 0.62334 0.68791 0.23919 0.0
H1921 H 0.59247 0.6661 0.20722 0.0
H1922 H 0.65341 0.63219 0.15651 0.0
H1923 H 0.68398 0.65344 0.18848 0.0
H1924 H 0.6223 0.65862 0.11282 0.0
H1925 H 0.61617 0.5988 0.21075 0.0
H1926 H 0.60699 0.58512 0.27097 0.0
H1927 H 0.53056 0.60607 0.26543 0.0
H1928 H 0.53941 0.62023 0.20525 0.0
H1929 H 0.55823 0.54239 0.06317 0.0
H1930 H 0.578 0.56701 0.10283 0.0
H1931 H 0.54273 0.63032 0.06122 0.0
H1932 H 0.52231 0.60556 0.02119 0.0
H1933 H 0.55523 0.59395 0.15236 0.0
H1934 H 0.58971 0.67834 0.06476 0.0
H1935 H 0.59966 0.69071 0.00421 0.0
H1936 H 0.62118 0.61842 0.9892 0.0
H1937 H 0.61169 0.60574 0.04969 0.0
C1938 C 0.62994 0.67517 0.22201 0.0
C1939 C 0.65598 0.67243 0.21606 0.0
C1940 C 0.61238 0.66293 0.20359 0.0
C1941 C 0.62079 0.64791 0.17913 0.0
C1942 C 0.64661 0.64397 0.17494 0.0
C1943 C 0.66401 0.65599 0.19334 0.0
C1944 C 0.6033 0.63737 0.15611 0.0
C1945 C 0.60741 0.64469 0.12152 0.0
C1946 C 0.58382 0.61935 0.16748 0.0
C1947 C 0.57856 0.61092 0.20365 0.0
C1948 C 0.59749 0.60076 0.22247 0.0
C1949 C 0.59233 0.59285 0.25657 0.0
C1950 C 0.56824 0.59482 0.27206 0.0
C1951 C 0.54924 0.60463 0.25344 0.0
C1952 C 0.55432 0.61259 0.21933 0.0
C1953 C 0.55462 0.56156 0.06218 0.0
C1954 C 0.53862 0.57199 0.03889 0.0
C1955 C 0.5658 0.57555 0.08518 0.0
C1956 C 0.56161 0.60037 0.08518 0.0
C1957 C 0.54606 0.61111 0.06167 0.0
C1958 C 0.53456 0.59699 0.03873 0.0
C1959 C 0.57463 0.61486 0.1091 0.0
C1960 C 0.56966 0.60835 0.1438 0.0
C1961 C 0.59342 0.63357 0.09787 0.0
C1962 C 0.59968 0.64105 0.06161 0.0
C1963 C 0.59663 0.66513 0.04851 0.0
C1964 C 0.60219 0.67219 0.01423 0.0
C1965 C 0.61095 0.65533 0.99285 0.0
C1966 C 0.6143 0.63142 0.00575 0.0
C1967 C 0.6088 0.62429 0.04002 0.0
H1968 H 0.6152 0.66082 0.96631 0.0
H1969 H 0.56428 0.58867 0.29846 0.0
H1970 H 0.31283 0.72883 0.16754 0.0
H1971 H 0.33869 0.69959 0.14173 0.0
H1972 H 0.33991 0.65767 0.23809 0.0
H1973 H 0.31481 0.68794 0.26451 0.0
H1974 H 0.38402 0.65646 0.20394 0.0
H1975 H 0.29878 0.6411 0.17894 0.0
H1976 H 0.25685 0.6512 0.16061 0.0
H1977 H 0.28994 0.67483 0.06129 0.0
H1978 H 0.33217 0.66535 0.07917 0.0
H1979 H 0.41549 0.55424 0.103 0.0
H1980 H 0.38811 0.57718 0.13902 0.0
H1981 H 0.41298 0.64389 0.07814 0.0
H1982 H 0.44085 0.62135 0.0428 0.0
H1983 H 0.35241 0.62574 0.1004 0.0
H1984 H 0.43893 0.6482 0.13411 0.0
H1985 H 0.47975 0.63611 0.15437 0.0
H1986 H 0.44066 0.59423 0.24008 0.0
H1987 H 0.39959 0.60582 0.21997 0.0
C1988 C 0.31885 0.71352 0.18333 0.0
C1989 C 0.31163 0.71044 0.21792 0.0
C1990 C 0.33349 0.69672 0.16851 0.0
C1991 C 0.34053 0.67595 0.18771 0.0
C1992 C 0.33444 0.67341 0.22269 0.0
C1993 C 0.32017 0.69067 0.23777 0.0
C1994 C 0.35361 0.65684 0.17062 0.0
C1995 C 0.37682 0.64948 0.18167 0.0
C1996 C 0.34421 0.6474 0.14164 0.0
C1997 C 0.31871 0.65261 0.13049 0.0
C1998 C 0.29715 0.64856 0.15323 0.0
C1999 C 0.27332 0.65419 0.14292 0.0
C2000 C 0.27074 0.66367 0.10983 0.0
C2001 C 0.29197 0.66748 0.08693 0.0
C2002 C 0.31587 0.66196 0.09713 0.0
C2003 C 0.41493 0.57377 0.09722 0.0
C2004 C 0.43028 0.58606 0.07018 0.0
C2005 C 0.39942 0.5868 0.11784 0.0
C2006 C 0.39874 0.61217 0.11123 0.0
C2007 C 0.41341 0.62432 0.08364 0.0
C2008 C 0.42931 0.61143 0.06355 0.0
C2009 C 0.38296 0.62633 0.13312 0.0
C2010 C 0.35923 0.63256 0.123 0.0
C2011 C 0.39161 0.63434 0.16317 0.0
C2012 C 0.41625 0.62759 0.17533 0.0
C2013 C 0.43906 0.6362 0.15707 0.0
C2014 C 0.46223 0.6295 0.16857 0.0
C2015 C 0.4628 0.61434 0.19843 0.0
C2016 C 0.4402 0.60592 0.21691 0.0
C2017 C 0.41698 0.61255 0.20548 0.0
H2018 H 0.48076 0.60918 0.20731 0.0
H2019 H 0.25228 0.66803 0.10191 0.0
H2020 H 0.38518 0.34561 0.20692 0.0
H2021 H 0.41534 0.38141 0.20115 0.0
H2022 H 0.35637 0.4258 0.2355 0.0
H2023 H 0.32621 0.38965 0.24227 0.0
H2024 H 0.38372 0.44021 0.16869 0.0
H2025 H 0.39895 0.42374 0.2838 0.0
H2026 H 0.40646 0.3979 0.33532 0.0
H2027 H 0.47618 0.37732 0.2886 0.0
H2028 H 0.46894 0.40271 0.2366 0.0
H2029 H 0.48262 0.5179 0.09742 0.0
H2030 H 0.45271 0.50592 0.14631 0.0
H2031 H 0.48817 0.43767 0.16244 0.0
H2032 H 0.51906 0.45051 0.1152 0.0
H2033 H 0.46635 0.44784 0.21964 0.0
H2034 H 0.44135 0.44613 0.10336 0.0
H2035 H 0.43564 0.46649 0.04704 0.0
H2036 H 0.38587 0.51531 0.09133 0.0
H2037 H 0.39154 0.49534 0.14796 0.0
C2038 C 0.37885 0.36296 0.21369 0.0
C2039 C 0.35358 0.36515 0.22483 0.0
C2040 C 0.39602 0.38326 0.2107 0.0
C2041 C 0.38802 0.40605 0.21834 0.0
C2042 C 0.36283 0.40823 0.22997 0.0
C2043 C 0.34572 0.38774 0.23367 0.0
C2044 C 0.4055 0.42776 0.20968 0.0
C2045 C 0.40143 0.44262 0.18053 0.0
C2046 C 0.42869 0.4303 0.22488 0.0
C2047 C 0.43337 0.41517 0.25624 0.0
C2048 C 0.41583 0.41361 0.28443 0.0
C2049 C 0.42004 0.39904 0.31374 0.0
C2050 C 0.44178 0.38598 0.31524 0.0
C2051 C 0.45937 0.38749 0.28743 0.0
C2052 C 0.45524 0.40202 0.25805 0.0
C2053 C 0.48453 0.50082 0.11246 0.0
C2054 C 0.50266 0.48486 0.10278 0.0
C2055 C 0.46752 0.49399 0.14026 0.0
C2056 C 0.46773 0.4706 0.15732 0.0
C2057 C 0.48758 0.45578 0.1496 0.0
C2058 C 0.50511 0.46298 0.12252 0.0
C2059 C 0.44503 0.45937 0.17767 0.0
C2060 C 0.44814 0.44642 0.20883 0.0
C2061 C 0.42112 0.45792 0.16379 0.0
C2062 C 0.41703 0.46943 0.1298 0.0
C2063 C 0.42919 0.4612 0.10102 0.0
C2064 C 0.42599 0.47269 0.06909 0.0
C2065 C 0.41045 0.49223 0.06563 0.0
C2066 C 0.39795 0.50021 0.09408 0.0
C2067 C 0.40113 0.48882 0.12609 0.0
H2068 H 0.40807 0.50116 0.04091 0.0
H2069 H 0.445 0.3747 0.33794 0.0
H2070 H 0.83853 0.73476 0.68301 0.0
H2071 H 0.86509 0.70733 0.65372 0.0
H2072 H 0.79853 0.6635 0.63441 0.0
H2073 H 0.77183 0.69054 0.66435 0.0
H2074 H 0.86571 0.65707 0.67588 0.0
H2075 H 0.81599 0.63998 0.55341 0.0
H2076 H 0.79408 0.66243 0.50898 0.0
H2077 H 0.82948 0.73009 0.53316 0.0
H2078 H 0.85194 0.70803 0.57728 0.0
H2079 H 0.90155 0.56031 0.55079 0.0
H2080 H 0.87128 0.58887 0.57045 0.0
H2081 H 0.93234 0.63152 0.60779 0.0
H2082 H 0.96232 0.60296 0.58917 0.0
H2083 H 0.86476 0.63592 0.55807 0.0
H2084 H 0.915 0.65455 0.67914 0.0
H2085 H 0.94043 0.63278 0.7202 0.0
H2086 H 0.90717 0.56407 0.6965 0.0
H2087 H 0.88127 0.58543 0.65566 0.0
C2088 C 0.82949 0.71953 0.67205 0.0
C2089 C 0.80306 0.71479 0.67618 0.0
C2090 C 0.84471 0.70383 0.65537 0.0
C2091 C 0.83381 0.68339 0.64179 0.0
C2092 C 0.80735 0.67926 0.64444 0.0
C2093 C 0.79213 0.69469 0.66168 0.0
C2094 C 0.8502 0.6651 0.62802 0.0
C2095 C 0.86585 0.6528 0.64991 0.0
C2096 C 0.84966 0.65882 0.5945 0.0
C2097 C 0.83522 0.67236 0.5692 0.0
C2098 C 0.81897 0.65966 0.5494 0.0
C2099 C 0.80653 0.67232 0.52417 0.0
C2100 C 0.81026 0.69768 0.51839 0.0
C2101 C 0.82645 0.71045 0.53783 0.0
C2102 C 0.83896 0.69789 0.56306 0.0
C2103 C 0.90848 0.57579 0.56319 0.0
C2104 C 0.9343 0.57907 0.56897 0.0
C2105 C 0.89116 0.59213 0.57438 0.0
C2106 C 0.89937 0.61201 0.59152 0.0
C2107 C 0.92534 0.61592 0.59567 0.0
C2108 C 0.94252 0.59957 0.58483 0.0
C2109 C 0.88107 0.62871 0.60544 0.0
C2110 C 0.86471 0.64034 0.58392 0.0
C2111 C 0.88113 0.63463 0.63919 0.0
C2112 C 0.89635 0.62162 0.66412 0.0
C2113 C 0.91301 0.63481 0.68281 0.0
C2114 C 0.92753 0.62253 0.70603 0.0
C2115 C 0.92547 0.59706 0.71089 0.0
C2116 C 0.90881 0.5838 0.69263 0.0
C2117 C 0.89423 0.59598 0.66942 0.0
H2118 H 0.93675 0.58759 0.72884 0.0
H2119 H 0.80068 0.70744 0.49877 0.0
H2120 H 0.32177 0.82231 0.74135 0.0
H2121 H 0.35149 0.85287 0.7104 0.0
H2122 H 0.34105 0.81895 0.61891 0.0
H2123 H 0.31106 0.78772 0.65018 0.0
H2124 H 0.39114 0.83473 0.62261 0.0
H2125 H 0.31213 0.87027 0.63165 0.0
H2126 H 0.27231 0.88147 0.65981 0.0
H2127 H 0.31441 0.92468 0.72383 0.0
H2128 H 0.35452 0.91345 0.69639 0.0
H2129 H 0.45559 0.94239 0.53081 0.0
H2130 H 0.4268 0.90716 0.5514 0.0
H2131 H 0.41788 0.93554 0.64829 0.0
H2132 H 0.44506 0.97164 0.62679 0.0
H2133 H 0.37456 0.92126 0.63412 0.0
H2134 H 0.45443 0.881 0.62595 0.0
H2135 H 0.49302 0.86951 0.59494 0.0
H2136 H 0.44758 0.83566 0.52488 0.0
H2137 H 0.40875 0.84712 0.55528 0.0
C2138 C 0.32575 0.82112 0.71465 0.0
C2139 C 0.3137 0.80249 0.69833 0.0
C2140 C 0.34282 0.83878 0.69688 0.0
C2141 C 0.34833 0.83866 0.66206 0.0
C2142 C 0.3371 0.81961 0.64571 0.0
C2143 C 0.31991 0.80174 0.66363 0.0
C2144 C 0.36521 0.85898 0.64323 0.0
C2145 C 0.38736 0.85366 0.62477 0.0
C2146 C 0.36044 0.88381 0.64576 0.0
C2147 C 0.33636 0.89088 0.6621 0.0
C2148 C 0.31291 0.88204 0.65187 0.0
C2149 C 0.29028 0.88841 0.66769 0.0
C2150 C 0.29084 0.90374 0.69363 0.0
C2151 C 0.31402 0.9128 0.70374 0.0
C2152 C 0.33671 0.90646 0.68803 0.0
C2153 C 0.44781 0.94094 0.55667 0.0
C2154 C 0.45279 0.95992 0.57713 0.0
C2155 C 0.43132 0.92059 0.56859 0.0
C2156 C 0.4201 0.91815 0.6018 0.0
C2157 C 0.42597 0.93674 0.62257 0.0
C2158 C 0.4418 0.95738 0.61034 0.0
C2159 C 0.40135 0.89717 0.6148 0.0
C2160 C 0.37855 0.90238 0.63195 0.0
C2161 C 0.40543 0.87232 0.61062 0.0
C2162 C 0.42874 0.86506 0.59276 0.0
C2163 C 0.4527 0.87116 0.60388 0.0
C2164 C 0.4746 0.86465 0.58641 0.0
C2165 C 0.47275 0.8519 0.55792 0.0
C2166 C 0.44898 0.84554 0.54692 0.0
C2167 C 0.42703 0.852 0.56429 0.0
H2168 H 0.48973 0.84691 0.5444 0.0
H2169 H 0.2733 0.90864 0.70586 0.0
H2170 H 0.23687 0.32584 0.70505 0.0
H2171 H 0.20829 0.35187 0.67452 0.0
H2172 H 0.162 0.28802 0.65639 0.0
H2173 H 0.19056 0.2621 0.68593 0.0
H2174 H 0.16475 0.31782 0.60301 0.0
H2175 H 0.14554 0.32449 0.71873 0.0
H2176 H 0.15244 0.33199 0.77734 0.0
H2177 H 0.17608 0.40682 0.74558 0.0
H2178 H 0.16989 0.39963 0.68658 0.0
H2179 H 0.06175 0.3893 0.55021 0.0
H2180 H 0.08513 0.35936 0.58336 0.0
H2181 H 0.14123 0.41628 0.59917 0.0
H2182 H 0.11828 0.44586 0.56696 0.0
H2183 H 0.12933 0.38723 0.65662 0.0
H2184 H 0.14948 0.37624 0.53813 0.0
H2185 H 0.13663 0.36697 0.48257 0.0
H2186 H 0.10524 0.29625 0.52433 0.0
H2187 H 0.1174 0.30543 0.58061 0.0
C2188 C 0.22086 0.31736 0.69401 0.0
C2189 C 0.21603 0.29187 0.69805 0.0
C2190 C 0.20433 0.33227 0.6769 0.0
C2191 C 0.18262 0.32199 0.66363 0.0
C2192 C 0.17847 0.29649 0.66644 0.0
C2193 C 0.1949 0.28166 0.68342 0.0
C2194 C 0.16401 0.33761 0.64712 0.0
C2195 C 0.15683 0.33281 0.61502 0.0
C2196 C 0.15332 0.35709 0.6627 0.0
C2197 C 0.15754 0.36143 0.69811 0.0
C2198 C 0.1525 0.34248 0.72415 0.0
C2199 C 0.15623 0.3467 0.75748 0.0
C2200 C 0.16472 0.36987 0.76519 0.0
C2201 C 0.16954 0.38887 0.73956 0.0
C2202 C 0.16595 0.38473 0.70616 0.0
C2203 C 0.07902 0.39536 0.56086 0.0
C2204 C 0.08813 0.42 0.5556 0.0
C2205 C 0.0924 0.37826 0.57979 0.0
C2206 C 0.1151 0.38552 0.59372 0.0
C2207 C 0.12381 0.41015 0.58891 0.0
C2208 C 0.11062 0.42708 0.57012 0.0
C2209 C 0.13068 0.36779 0.61229 0.0
C2210 C 0.13725 0.37215 0.64482 0.0
C2211 C 0.14032 0.34753 0.59754 0.0
C2212 C 0.13403 0.34165 0.56358 0.0
C2213 C 0.13974 0.35876 0.53549 0.0
C2214 C 0.13255 0.35351 0.50385 0.0
C2215 C 0.11998 0.33105 0.49986 0.0
C2216 C 0.11486 0.31368 0.52749 0.0
C2217 C 0.12187 0.31891 0.55928 0.0
H2218 H 0.1141 0.32709 0.47545 0.0
H2219 H 0.16754 0.37314 0.79101 0.0
H2220 H 0.708 0.19086 0.58987 0.0
H2221 H 0.68016 0.1625 0.56338 0.0
H2222 H 0.61488 0.19434 0.60707 0.0
H2223 H 0.64287 0.2228 0.63378 0.0
H2224 H 0.61325 0.14549 0.62252 0.0
H2225 H 0.62955 0.19977 0.52354 0.0
H2226 H 0.65541 0.22548 0.47896 0.0
H2227 H 0.688 0.16199 0.44452 0.0
H2228 H 0.66313 0.13592 0.48978 0.0
H2229 H 0.53017 0.0602 0.55531 0.0
H2230 H 0.55131 0.0989 0.56647 0.0
H2231 H 0.62182 0.07702 0.52242 0.0
H2232 H 0.60069 0.0384 0.51054 0.0
H2233 H 0.61676 0.12435 0.50443 0.0
H2234 H 0.60825 0.07226 0.60859 0.0
H2235 H 0.58514 0.0457 0.65497 0.0
H2236 H 0.53984 0.10458 0.67908 0.0
H2237 H 0.56248 0.13141 0.63253 0.0
C2238 C 0.6877 0.19229 0.59296 0.0
C2239 C 0.67758 0.20908 0.61379 0.0
C2240 C 0.67179 0.17608 0.57779 0.0
C2241 C 0.64537 0.17624 0.58316 0.0
C2242 C 0.6352 0.19389 0.6025 0.0
C2243 C 0.65117 0.2103 0.61749 0.0
C2244 C 0.62872 0.15626 0.57185 0.0
C2245 C 0.61361 0.14124 0.59653 0.0
C2246 C 0.62975 0.15022 0.53807 0.0
C2247 C 0.64465 0.16586 0.51051 0.0
C2248 C 0.64251 0.19127 0.50686 0.0
C2249 C 0.65705 0.20594 0.48147 0.0
C2250 C 0.67346 0.1954 0.45908 0.0
C2251 C 0.67535 0.17015 0.462 0.0
C2252 C 0.66108 0.15542 0.48761 0.0
C2253 C 0.55018 0.06357 0.54795 0.0
C2254 C 0.56379 0.04597 0.53243 0.0
C2255 C 0.56226 0.08577 0.55437 0.0
C2256 C 0.58829 0.09081 0.54579 0.0
C2257 C 0.60175 0.07358 0.52939 0.0
C2258 C 0.58966 0.0514 0.52281 0.0
C2259 C 0.60172 0.11349 0.55524 0.0
C2260 C 0.61621 0.1289 0.53028 0.0
C2261 C 0.60045 0.11983 0.58882 0.0
C2262 C 0.58685 0.10375 0.61685 0.0
C2263 C 0.59323 0.07948 0.62362 0.0
C2264 C 0.58024 0.06439 0.64996 0.0
C2265 C 0.56098 0.07343 0.66989 0.0
C2266 C 0.55472 0.0976 0.66358 0.0
C2267 C 0.56763 0.11276 0.63723 0.0
H2268 H 0.55095 0.06172 0.69028 0.0
H2269 H 0.68464 0.2068 0.43939 0.0
H2270 H 0.78449 0.37299 0.33708 0.0
H2271 H 0.81253 0.40472 0.35737 0.0
H2272 H 0.84416 0.35001 0.42335 0.0
H2273 H 0.81617 0.31843 0.4033 0.0
H2274 H 0.8373 0.39145 0.45345 0.0
H2275 H 0.87265 0.36887 0.34723 0.0
H2276 H 0.87294 0.36334 0.28669 0.0
H2277 H 0.86516 0.43999 0.26393 0.0
H2278 H 0.86429 0.44593 0.32441 0.0
H2279 H 0.96473 0.4474 0.4642 0.0
H2280 H 0.93236 0.41984 0.4432 0.0
H2281 H 0.88585 0.48037 0.42379 0.0
H2282 H 0.91733 0.50757 0.44655 0.0
H2283 H 0.89923 0.43809 0.36958 0.0
H2284 H 0.86023 0.45997 0.47554 0.0
H2285 H 0.85769 0.46525 0.53611 0.0
H2286 H 0.8702 0.3895 0.55864 0.0
H2287 H 0.87434 0.38412 0.49808 0.0
C2288 C 0.79691 0.36793 0.35665 0.0
C2289 C 0.7982 0.34335 0.36874 0.0
C2290 C 0.81311 0.38597 0.36788 0.0
C2291 C 0.83073 0.37962 0.39139 0.0
C2292 C 0.83082 0.35528 0.40506 0.0
C2293 C 0.8148 0.33728 0.39371 0.0
C2294 C 0.84988 0.39795 0.40092 0.0
C2295 C 0.8509 0.40153 0.43509 0.0
C2296 C 0.86742 0.41137 0.37685 0.0
C2297 C 0.868 0.40778 0.34045 0.0
C2298 C 0.87071 0.38451 0.32937 0.0
C2299 C 0.87101 0.38131 0.29505 0.0
C2300 C 0.86887 0.40127 0.27153 0.0
C2301 C 0.86664 0.42452 0.28222 0.0
C2302 C 0.86624 0.42781 0.31651 0.0
C2303 C 0.94767 0.45475 0.45516 0.0
C2304 C 0.94332 0.47946 0.45706 0.0
C2305 C 0.92924 0.43908 0.44331 0.0
C2306 C 0.9067 0.44814 0.43237 0.0
C2307 C 0.90304 0.47308 0.43248 0.0
C2308 C 0.92099 0.48854 0.4454 0.0
C2309 C 0.8865 0.43143 0.42198 0.0
C2310 C 0.88546 0.42806 0.38776 0.0
C2311 C 0.86884 0.41825 0.44589 0.0
C2312 C 0.86828 0.42182 0.4822 0.0
C2313 C 0.86334 0.44465 0.49332 0.0
C2314 C 0.86152 0.44764 0.5277 0.0
C2315 C 0.86406 0.42779 0.55123 0.0
C2316 C 0.86863 0.40495 0.54043 0.0
C2317 C 0.87087 0.40196 0.50606 0.0
H2318 H 0.86215 0.43011 0.5778 0.0
H2319 H 0.86901 0.39876 0.245 0.0
H2320 H 0.74342 0.82835 0.32054 0.0
H2321 H 0.71837 0.85611 0.35087 0.0
H2322 H 0.65302 0.80522 0.35498 0.0
H2323 H 0.67813 0.77709 0.32472 0.0
H2324 H 0.67784 0.87891 0.3319 0.0
H2325 H 0.61492 0.81259 0.42695 0.0
H2326 H 0.61661 0.77139 0.45609 0.0
H2327 H 0.69776 0.78044 0.45196 0.0
H2328 H 0.69653 0.82191 0.42365 0.0
H2329 H 0.56596 0.92802 0.39159 0.0
H2330 H 0.59581 0.89957 0.3723 0.0
H2331 H 0.63844 0.90807 0.45909 0.0
H2332 H 0.60862 0.93725 0.47857 0.0
H2333 H 0.62875 0.85715 0.44157 0.0
H2334 H 0.66263 0.93609 0.39209 0.0
H2335 H 0.66048 0.97648 0.36079 0.0
H2336 H 0.63885 0.94227 0.27379 0.0
H2337 H 0.64042 0.90167 0.30476 0.0
C2338 C 0.72378 0.82286 0.32814 0.0
C2339 C 0.71283 0.80039 0.32013 0.0
C2340 C 0.70944 0.83886 0.34542 0.0
C2341 C 0.6838 0.83282 0.35537 0.0
C2342 C 0.67285 0.81022 0.34795 0.0
C2343 C 0.68722 0.79414 0.33059 0.0
C2344 C 0.66846 0.85063 0.37235 0.0
C2345 C 0.66722 0.87412 0.35594 0.0
C2346 C 0.65471 0.84458 0.40392 0.0
C2347 C 0.65563 0.82025 0.42277 0.0
C2348 C 0.63311 0.80587 0.43254 0.0
C2349 C 0.63399 0.78245 0.44886 0.0
C2350 C 0.65729 0.77322 0.45556 0.0
C2351 C 0.67974 0.78754 0.44649 0.0
C2352 C 0.67895 0.81102 0.4304 0.0
C2353 C 0.5816 0.9239 0.40681 0.0
C2354 C 0.58486 0.93506 0.43669 0.0
C2355 C 0.59868 0.90758 0.39564 0.0
C2356 C 0.6194 0.90174 0.41413 0.0
C2357 C 0.62254 0.91232 0.44442 0.0
C2358 C 0.60555 0.92906 0.45545 0.0
C2359 C 0.63795 0.88515 0.40079 0.0
C2360 C 0.63965 0.86193 0.41773 0.0
C2361 C 0.65217 0.89141 0.36968 0.0
C2362 C 0.65145 0.91582 0.35086 0.0
C2363 C 0.65721 0.93718 0.36638 0.0
C2364 C 0.65612 0.96011 0.34868 0.0
C2365 C 0.64948 0.96194 0.31535 0.0
C2366 C 0.64397 0.94083 0.29962 0.0
C2367 C 0.64497 0.91785 0.31723 0.0
H2368 H 0.64865 0.97971 0.3017 0.0
H2369 H 0.65793 0.75502 0.468 0.0
H2370 H 0.18876 0.69804 0.26048 0.0
H2371 H 0.15721 0.6677 0.28783 0.0
H2372 H 0.1911 0.67266 0.38231 0.0
H2373 H 0.22281 0.70386 0.35488 0.0
H2374 H 0.1596 0.62483 0.31383 0.0
H2375 H 0.14179 0.65611 0.4495 0.0
H2376 H 0.14071 0.6942 0.47729 0.0
H2377 H 0.13217 0.73489 0.38253 0.0
H2378 H 0.13176 0.69698 0.35437 0.0
H2379 H 0.09855 0.52718 0.41517 0.0
H2380 H 0.12664 0.56195 0.39293 0.0
H2381 H 0.06619 0.60981 0.40693 0.0
H2382 H 0.03791 0.57458 0.43144 0.0
H2383 H 0.1079 0.633 0.41958 0.0
H2384 H 0.0862 0.59081 0.32609 0.0
H2385 H 0.07971 0.55551 0.29317 0.0
H2386 H 0.15873 0.5427 0.29434 0.0
H2387 H 0.16566 0.57779 0.32755 0.0
C2388 C 0.18967 0.69282 0.28713 0.0
C2389 C 0.20858 0.70353 0.30533 0.0
C2390 C 0.17147 0.67528 0.30282 0.0
C2391 C 0.17144 0.66769 0.33733 0.0
C2392 C 0.19033 0.67828 0.35576 0.0
C2393 C 0.20863 0.69605 0.33998 0.0
C2394 C 0.15205 0.64819 0.35315 0.0
C2395 C 0.14844 0.62674 0.33704 0.0
C2396 C 0.13668 0.65065 0.38299 0.0
C2397 C 0.1373 0.67366 0.39965 0.0
C2398 C 0.13967 0.67316 0.43454 0.0
C2399 C 0.13926 0.69473 0.45039 0.0
C2400 C 0.13678 0.71698 0.43162 0.0
C2401 C 0.13433 0.71767 0.397 0.0
C2402 C 0.13434 0.69612 0.38109 0.0
C2403 C 0.09095 0.54502 0.41331 0.0
C2404 C 0.06559 0.54785 0.42433 0.0
C2405 C 0.10719 0.56504 0.40043 0.0
C2406 C 0.09857 0.58867 0.39697 0.0
C2407 C 0.07341 0.59182 0.40885 0.0
C2408 C 0.05714 0.57164 0.42266 0.0
C2409 C 0.11599 0.60961 0.38055 0.0
C2410 C 0.11923 0.63121 0.39648 0.0
C2411 C 0.13041 0.60782 0.34977 0.0
C2412 C 0.1264 0.58682 0.32953 0.0
C2413 C 0.10217 0.58039 0.31946 0.0
C2414 C 0.09842 0.56043 0.30073 0.0
C2415 C 0.11879 0.54684 0.29174 0.0
C2416 C 0.14297 0.55324 0.30134 0.0
C2417 C 0.14683 0.57319 0.32007 0.0
H2418 H 0.11584 0.53137 0.27728 0.0
H2419 H 0.13656 0.73365 0.44396 0.0
H2420 H 0.33907 0.24592 0.28566 0.0
H2421 H 0.36946 0.21909 0.31056 0.0
H2422 H 0.30871 0.16492 0.3428 0.0
H2423 H 0.2782 0.19139 0.31771 0.0
H2424 H 0.34148 0.18488 0.39274 0.0
H2425 H 0.34588 0.15303 0.2828 0.0
H2426 H 0.35598 0.15738 0.22138 0.0
H2427 H 0.43306 0.17969 0.23572 0.0
H2428 H 0.42344 0.17589 0.29724 0.0
H2429 H 0.38595 0.07464 0.46205 0.0
H2430 H 0.36539 0.10528 0.42731 0.0
H2431 H 0.43829 0.1413 0.39388 0.0
H2432 H 0.45906 0.11074 0.42936 0.0
H2433 H 0.4068 0.13668 0.341 0.0
H2434 H 0.40816 0.15956 0.45155 0.0
H2435 H 0.40345 0.16667 0.51797 0.0
H2436 H 0.29968 0.1679 0.49478 0.0
H2437 H 0.31858 0.159 0.43378 0.0
C2438 C 0.33214 0.22833 0.2982 0.0
C2439 C 0.30613 0.22091 0.30022 0.0
C2440 C 0.34962 0.2129 0.31182 0.0
C2441 C 0.34134 0.18991 0.32782 0.0
C2442 C 0.31545 0.18249 0.32997 0.0
C2443 C 0.29801 0.19774 0.31606 0.0
C2444 C 0.35874 0.17493 0.34684 0.0
C2445 C 0.35514 0.17347 0.38177 0.0
C2446 C 0.37817 0.16228 0.33171 0.0
C2447 C 0.38385 0.16444 0.29469 0.0
C2448 C 0.36492 0.15914 0.2729 0.0
C2449 C 0.37056 0.16143 0.23805 0.0
C2450 C 0.39507 0.16886 0.22466 0.0
C2451 C 0.41405 0.17396 0.24611 0.0
C2452 C 0.40853 0.17172 0.28098 0.0
C2453 C 0.39761 0.0892 0.44752 0.0
C2454 C 0.42408 0.09047 0.4486 0.0
C2455 C 0.38584 0.10665 0.42762 0.0
C2456 C 0.40029 0.12558 0.40806 0.0
C2457 C 0.4268 0.12678 0.40875 0.0
C2458 C 0.4386 0.10955 0.4293 0.0
C2459 C 0.38742 0.1443 0.38768 0.0
C2460 C 0.39244 0.14713 0.35245 0.0
C2461 C 0.36882 0.15813 0.40253 0.0
C2462 C 0.36361 0.15828 0.43935 0.0
C2463 C 0.38927 0.1602 0.46307 0.0
C2464 C 0.38615 0.16558 0.50452 0.0
C2465 C 0.33856 0.17013 0.52331 0.0
C2466 C 0.31989 0.16658 0.49079 0.0
C2467 C 0.33233 0.16097 0.45233 0.0
H2468 H 0.32908 0.17381 0.54727 0.0
H2469 H 0.39936 0.1706 0.19767 0.0
H2470 H 0.69152 0.76268 0.66506 0.0
H2471 H 0.66192 0.78789 0.63589 0.0
H2472 H 0.71158 0.85189 0.64227 0.0
H2473 H 0.74131 0.82681 0.67173 0.0
H2474 H 0.66229 0.85667 0.667 0.0
H2475 H 0.70448 0.82943 0.56678 0.0
H2476 H 0.71983 0.79676 0.53402 0.0
H2477 H 0.6438 0.76531 0.53389 0.0
H2478 H 0.62802 0.79775 0.56678 0.0
H2479 H 0.61599 0.94869 0.56445 0.0
H2480 H 0.64039 0.91694 0.58932 0.0
H2481 H 0.5832 0.86224 0.56931 0.0
H2482 H 0.55836 0.89441 0.54343 0.0
H2483 H 0.63121 0.84848 0.5539 0.0
H2484 H 0.58769 0.87649 0.64863 0.0
H2485 H 0.57092 0.90569 0.68623 0.0
H2486 H 0.64659 0.93243 0.70144 0.0
H2487 H 0.66386 0.90366 0.66354 0.0
C2488 C 0.69641 0.78206 0.65971 0.0
C2489 C 0.71876 0.79276 0.67084 0.0
C2490 C 0.67946 0.79643 0.64298 0.0
C2491 C 0.68453 0.82176 0.63695 0.0
C2492 C 0.7073 0.83236 0.64677 0.0
C2493 C 0.72434 0.81799 0.6634 0.0
C2494 C 0.66535 0.83744 0.62261 0.0
C2495 C 0.65574 0.85513 0.64209 0.0
C2496 C 0.65583 0.83449 0.59088 0.0
C2497 C 0.66512 0.81584 0.56951 0.0
C2498 C 0.69105 0.81552 0.55978 0.0
C2499 C 0.69983 0.79706 0.54121 0.0
C2500 C 0.68283 0.77887 0.53215 0.0
C2501 C 0.65696 0.77935 0.54109 0.0
C2502 C 0.64808 0.79782 0.55958 0.0
C2503 C 0.60836 0.92997 0.56531 0.0
C2504 C 0.58502 0.92415 0.55214 0.0
C2505 C 0.62239 0.91178 0.57973 0.0
C2506 C 0.61345 0.88724 0.58178 0.0
C2507 C 0.59035 0.88113 0.56821 0.0
C2508 C 0.57615 0.89949 0.55358 0.0
C2509 C 0.62882 0.8684 0.59786 0.0
C2510 C 0.63763 0.85 0.57888 0.0
C2511 C 0.63736 0.87042 0.6304 0.0
C2512 C 0.62707 0.88801 0.65297 0.0
C2513 C 0.60077 0.88875 0.65973 0.0
C2514 C 0.59117 0.9052 0.68116 0.0
C2515 C 0.60768 0.92095 0.69612 0.0
C2516 C 0.63383 0.92024 0.68978 0.0
C2517 C 0.64353 0.90384 0.66835 0.0
H2518 H 0.60022 0.93371 0.71264 0.0
H2519 H 0.6897 0.76444 0.51808 0.0
H2520 H 0.68524 0.19772 0.26227 0.0
H2521 H 0.65302 0.16776 0.2895 0.0
H2522 H 0.66833 0.19177 0.38622 0.0
H2523 H 0.70037 0.22252 0.35881 0.0
H2524 H 0.65656 0.13011 0.3292 0.0
H2525 H 0.61409 0.17695 0.44318 0.0
H2526 H 0.60526 0.21816 0.45824 0.0
H2527 H 0.60459 0.24351 0.35362 0.0
H2528 H 0.61265 0.20233 0.33794 0.0
H2529 H 0.59335 0.04 0.44162 0.0
H2530 H 0.61974 0.07614 0.41921 0.0
H2531 H 0.55302 0.11319 0.39471 0.0
H2532 H 0.52614 0.07691 0.41917 0.0
H2533 H 0.58782 0.14519 0.41346 0.0
H2534 H 0.58953 0.08526 0.3341 0.0
H2535 H 0.59454 0.04433 0.31525 0.0
H2536 H 0.67166 0.04717 0.34212 0.0
H2537 H 0.66702 0.088 0.36153 0.0
C2538 C 0.68169 0.19685 0.28936 0.0
C2539 C 0.69554 0.21262 0.30828 0.0
C2540 C 0.6632 0.17957 0.30499 0.0
C2541 C 0.65799 0.17731 0.3401 0.0
C2542 C 0.67158 0.19324 0.35912 0.0
C2543 C 0.69001 0.21081 0.34339 0.0
C2544 C 0.63926 0.15749 0.35646 0.0
C2545 C 0.64157 0.13358 0.34759 0.0
C2546 C 0.61929 0.16172 0.38026 0.0
C2547 C 0.61444 0.1866 0.38938 0.0
C2548 C 0.61202 0.1913 0.42338 0.0
C2549 C 0.6071 0.21465 0.43203 0.0
C2550 C 0.60458 0.23349 0.4069 0.0
C2551 C 0.60673 0.22895 0.37306 0.0
C2552 C 0.61147 0.20559 0.36428 0.0
C2553 C 0.5842 0.05586 0.43155 0.0
C2554 C 0.55765 0.05538 0.43142 0.0
C2555 C 0.59938 0.07657 0.41863 0.0
C2556 C 0.58859 0.09727 0.40407 0.0
C2557 C 0.56192 0.09739 0.40538 0.0
C2558 C 0.54654 0.07665 0.41922 0.0
C2559 C 0.60543 0.11801 0.38632 0.0
C2560 C 0.60285 0.14192 0.39501 0.0
C2561 C 0.62487 0.114 0.36169 0.0
C2562 C 0.62786 0.08962 0.34949 0.0
C2563 C 0.60753 0.07711 0.33612 0.0
C2564 C 0.6103 0.05393 0.32534 0.0
C2565 C 0.63338 0.04313 0.32755 0.0
C2566 C 0.65378 0.05554 0.34043 0.0
C2567 C 0.6511 0.07872 0.35129 0.0
H2568 H 0.63548 0.02517 0.31925 0.0
H2569 H 0.60084 0.25156 0.41366 0.0
H2570 H 0.82315 0.74255 0.32649 0.0
H2571 H 0.84944 0.71732 0.36061 0.0
H2572 H 0.78866 0.66101 0.37718 0.0
H2573 H 0.76236 0.686 0.34135 0.0
H2574 H 0.85029 0.69947 0.42057 0.0
H2575 H 0.81163 0.60504 0.38657 0.0
H2576 H 0.79247 0.58614 0.33981 0.0
H2577 H 0.82653 0.6444 0.26977 0.0
H2578 H 0.84603 0.6635 0.31604 0.0
H2579 H 0.88853 0.56927 0.48345 0.0
H2580 H 0.86052 0.59913 0.46139 0.0
H2581 H 0.92486 0.64929 0.42934 0.0
H2582 H 0.95342 0.61909 0.45196 0.0
H2583 H 0.86142 0.61431 0.39522 0.0
H2584 H 0.89882 0.71007 0.42345 0.0
H2585 H 0.92251 0.73005 0.46553 0.0
H2586 H 0.89825 0.67114 0.54026 0.0
H2587 H 0.87356 0.65108 0.49892 0.0
C2588 C 0.81516 0.72484 0.33745 0.0
C2589 C 0.7906 0.71624 0.3308 0.0
C2590 C 0.83032 0.7104 0.35719 0.0
C2591 C 0.82137 0.68698 0.37118 0.0
C2592 C 0.79635 0.67876 0.36604 0.0
C2593 C 0.7812 0.69314 0.34577 0.0
C2594 C 0.83872 0.67113 0.38996 0.0
C2595 C 0.85288 0.6809 0.41477 0.0
C2596 C 0.84216 0.64682 0.38274 0.0
C2597 C 0.83002 0.63582 0.35483 0.0
C2598 C 0.81498 0.61382 0.36118 0.0
C2599 C 0.80407 0.60307 0.33477 0.0
C2600 C 0.80823 0.61408 0.30185 0.0
C2601 C 0.82323 0.63592 0.29528 0.0
C2602 C 0.83417 0.64675 0.32161 0.0
C2603 C 0.89687 0.58673 0.47203 0.0
C2604 C 0.92332 0.59162 0.46895 0.0
C2605 C 0.88073 0.60385 0.45948 0.0
C2606 C 0.89048 0.62642 0.44342 0.0
C2607 C 0.91684 0.63203 0.44178 0.0
C2608 C 0.93316 0.61477 0.45464 0.0
C2609 C 0.87296 0.64261 0.4258 0.0
C2610 C 0.85877 0.63285 0.40112 0.0
C2611 C 0.87011 0.66711 0.43254 0.0
C2612 C 0.88463 0.67887 0.4579 0.0
C2613 C 0.8984 0.70138 0.44891 0.0
C2614 C 0.91192 0.71276 0.47266 0.0
C2615 C 0.91185 0.70181 0.50554 0.0
C2616 C 0.89817 0.67952 0.51478 0.0
C2617 C 0.88443 0.66814 0.49119 0.0
H2618 H 0.92239 0.7106 0.52389 0.0
H2619 H 0.79991 0.6056 0.28145 0.0
H2620 H 0.36624 0.7969 0.36278 0.0
H2621 H 0.39128 0.82674 0.39114 0.0
H2622 H 0.32237 0.85519 0.4301 0.0
H2623 H 0.29751 0.82583 0.40121 0.0
H2624 H 0.35166 0.89029 0.39742 0.0
H2625 H 0.36385 0.82624 0.483 0.0
H2626 H 0.37585 0.78602 0.50661 0.0
H2627 H 0.45191 0.8022 0.46336 0.0
H2628 H 0.44031 0.84245 0.43927 0.0
H2629 H 0.40572 0.97859 0.49313 0.0
H2630 H 0.38315 0.94136 0.47911 0.0
H2631 H 0.45191 0.91909 0.43074 0.0
H2632 H 0.47478 0.95631 0.44481 0.0
H2633 H 0.42362 0.88037 0.46963 0.0
H2634 H 0.41051 0.94419 0.38323 0.0
H2635 H 0.39842 0.98486 0.36161 0.0
H2636 H 0.32318 0.96868 0.40774 0.0
H2637 H 0.33494 0.92801 0.43006 0.0
C2638 C 0.35652 0.80898 0.37841 0.0
C2639 C 0.32999 0.80906 0.37996 0.0
C2640 C 0.37082 0.82607 0.39457 0.0
C2641 C 0.35875 0.84332 0.41276 0.0
C2642 C 0.33216 0.84219 0.41613 0.0
C2643 C 0.31795 0.82533 0.39981 0.0
C2644 C 0.37348 0.86436 0.42466 0.0
C2645 C 0.3671 0.888 0.4137 0.0
C2646 C 0.3942 0.86157 0.44502 0.0
C2647 C 0.40113 0.83724 0.459 0.0
C2648 C 0.38307 0.82112 0.47824 0.0
C2649 C 0.38982 0.79835 0.4918 0.0
C2650 C 0.4146 0.79153 0.48639 0.0
C2651 C 0.4327 0.80748 0.46745 0.0
C2652 C 0.42606 0.83029 0.45389 0.0
C2653 C 0.41611 0.96581 0.47952 0.0
C2654 C 0.44201 0.97065 0.46968 0.0
C2655 C 0.40316 0.94449 0.4716 0.0
C2656 C 0.41579 0.92756 0.4536 0.0
C2657 C 0.4418 0.93192 0.44462 0.0
C2658 C 0.45478 0.95331 0.45245 0.0
C2659 C 0.40148 0.90603 0.44262 0.0
C2660 C 0.40805 0.88246 0.45351 0.0
C2661 C 0.38085 0.90879 0.42222 0.0
C2662 C 0.37368 0.93316 0.40859 0.0
C2663 C 0.39145 0.94938 0.38898 0.0
C2664 C 0.38464 0.97242 0.37656 0.0
C2665 C 0.36007 0.97938 0.38337 0.0
C2666 C 0.34222 0.96327 0.40253 0.0
C2667 C 0.34893 0.94022 0.41504 0.0
H2668 H 0.35484 0.99722 0.37375 0.0
H2669 H 0.4198 0.7739 0.49694 0.0
H2670 H 0.24484 0.32977 0.29953 0.0
H2671 H 0.21861 0.35658 0.32991 0.0
H2672 H 0.15877 0.29944 0.34682 0.0
H2673 H 0.18505 0.27231 0.31638 0.0
H2674 H 0.17433 0.37377 0.31403 0.0
H2675 H 0.12463 0.30653 0.42024 0.0
H2676 H 0.13302 0.26961 0.45636 0.0
H2677 H 0.21283 0.28955 0.44426 0.0
H2678 H 0.20485 0.32681 0.40861 0.0
H2679 H 0.06334 0.4194 0.38856 0.0
H2680 H 0.09305 0.39256 0.36455 0.0
H2681 H 0.14307 0.40459 0.44296 0.0
H2682 H 0.11323 0.43171 0.4675 0.0
H2683 H 0.13413 0.35391 0.42932 0.0
H2684 H 0.15841 0.43279 0.37032 0.0
H2685 H 0.15113 0.47103 0.33642 0.0
H2686 H 0.12622 0.43019 0.25685 0.0
H2687 H 0.1329 0.39167 0.29053 0.0
C2688 C 0.22621 0.32271 0.31001 0.0
C2689 C 0.21709 0.2988 0.30545 0.0
C2690 C 0.21117 0.33817 0.32727 0.0
C2691 C 0.18669 0.33011 0.34071 0.0
C2692 C 0.1777 0.30604 0.33698 0.0
C2693 C 0.19275 0.29053 0.31955 0.0
C2694 C 0.17036 0.34727 0.3574 0.0
C2695 C 0.16568 0.36946 0.33938 0.0
C2696 C 0.1591 0.34181 0.39051 0.0
C2697 C 0.16413 0.31934 0.41157 0.0
C2698 C 0.14396 0.30304 0.42537 0.0
C2699 C 0.14864 0.28207 0.44577 0.0
C2700 C 0.17345 0.27719 0.45252 0.0
C2701 C 0.19363 0.29331 0.43893 0.0
C2702 C 0.18903 0.31435 0.41861 0.0
C2703 C 0.08057 0.41634 0.40098 0.0
C2704 C 0.08586 0.42785 0.43005 0.0
C2705 C 0.0976 0.401 0.38704 0.0
C2706 C 0.12033 0.39662 0.40183 0.0
C2707 C 0.12557 0.40765 0.43119 0.0
C2708 C 0.10856 0.42323 0.44511 0.0
C2709 C 0.13847 0.38049 0.3864 0.0
C2710 C 0.14317 0.35838 0.40437 0.0
C2711 C 0.14995 0.38614 0.35343 0.0
C2712 C 0.14592 0.40931 0.33313 0.0
C2713 C 0.15114 0.43194 0.34574 0.0
C2714 C 0.14716 0.45367 0.32653 0.0
C2715 C 0.13815 0.45304 0.29454 0.0
C2716 C 0.13315 0.43066 0.28166 0.0
C2717 C 0.13704 0.40887 0.3008 0.0
H2718 H 0.13511 0.46988 0.2797 0.0
H2719 H 0.17704 0.26095 0.46831 0.0
H2720 H 0.26971 0.17488 0.70986 0.0
H2721 H 0.2977 0.14894 0.68045 0.0
H2722 H 0.35446 0.20877 0.66172 0.0
H2723 H 0.32654 0.235 0.69125 0.0
H2724 H 0.34363 0.18215 0.60539 0.0
H2725 H 0.36981 0.16558 0.71859 0.0
H2726 H 0.35306 0.16077 0.77794 0.0
H2727 H 0.30707 0.09728 0.75931 0.0
H2728 H 0.32378 0.10166 0.69989 0.0
H2729 H 0.44978 0.11238 0.55747 0.0
H2730 H 0.42152 0.14053 0.58267 0.0
H2731 H 0.36461 0.08132 0.6074 0.0
H2732 H 0.39246 0.05339 0.58072 0.0
H2733 H 0.37512 0.10768 0.66285 0.0
H2734 H 0.35675 0.11643 0.54908 0.0
H2735 H 0.34829 0.12573 0.48307 0.0
H2736 H 0.37223 0.22316 0.50854 0.0
H2737 H 0.37851 0.20015 0.56915 0.0
C2738 C 0.28807 0.18264 0.69933 0.0
C2739 C 0.29587 0.20707 0.70291 0.0
C2740 C 0.30413 0.16769 0.68278 0.0
C2741 C 0.32831 0.17681 0.66943 0.0
C2742 C 0.33593 0.20134 0.67211 0.0
C2743 C 0.31993 0.21632 0.68888 0.0
C2744 C 0.34538 0.1608 0.65201 0.0
C2745 C 0.35163 0.16637 0.61775 0.0
C2746 C 0.35411 0.13955 0.66848 0.0
C2747 C 0.34815 0.13382 0.70502 0.0
C2748 C 0.35662 0.15022 0.72745 0.0
C2749 C 0.34702 0.14769 0.76101 0.0
C2750 C 0.32894 0.12881 0.77236 0.0
C2751 C 0.32115 0.11185 0.75053 0.0
C2752 C 0.33083 0.11423 0.71694 0.0
C2753 C 0.43097 0.10556 0.56756 0.0
C2754 C 0.42314 0.08081 0.56684 0.0
C2755 C 0.41489 0.12162 0.58205 0.0
C2756 C 0.39097 0.11305 0.59709 0.0
C2757 C 0.383 0.08834 0.59601 0.0
C2758 C 0.39878 0.07245 0.58049 0.0
C2759 C 0.3748 0.1296 0.61519 0.0
C2760 C 0.36846 0.12399 0.64997 0.0
C2761 C 0.3663 0.15127 0.59898 0.0
C2762 C 0.36899 0.15766 0.56217 0.0
C2763 C 0.36031 0.13499 0.53793 0.0
C2764 C 0.35404 0.14121 0.49678 0.0
C2765 C 0.3599 0.18823 0.47913 0.0
C2766 C 0.36909 0.20351 0.51198 0.0
C2767 C 0.37322 0.18853 0.55001 0.0
H2768 H 0.3575 0.19917 0.45546 0.0
H2769 H 0.32073 0.12762 0.79792 0.0
H2770 H 0.81737 0.32362 0.73421 0.0
H2771 H 0.84896 0.35464 0.70792 0.0
H2772 H 0.83052 0.33573 0.60978 0.0
H2773 H 0.79823 0.30453 0.63619 0.0
H2774 H 0.88392 0.34084 0.61728 0.0
H2775 H 0.8116 0.38639 0.63355 0.0
H2776 H 0.77473 0.40151 0.66406 0.0
H2777 H 0.82354 0.4334 0.73204 0.0
H2778 H 0.86068 0.41787 0.70252 0.0
H2779 H 0.9562 0.44416 0.5298 0.0
H2780 H 0.925 0.41125 0.55167 0.0
H2781 H 0.92596 0.43678 0.65048 0.0
H2782 H 0.95611 0.47055 0.62808 0.0
H2783 H 0.88042 0.42744 0.64045 0.0
H2784 H 0.95297 0.37983 0.62449 0.0
H2785 H 0.98939 0.36533 0.59215 0.0
H2786 H 0.93973 0.33852 0.52121 0.0
H2787 H 0.90306 0.35312 0.55293 0.0
C2788 C 0.81982 0.32603 0.70698 0.0
C2789 C 0.80506 0.31148 0.68738 0.0
C2790 C 0.83798 0.3439 0.69195 0.0
C2791 C 0.84225 0.34769 0.65679 0.0
C2792 C 0.82766 0.33319 0.63697 0.0
C2793 C 0.80906 0.31545 0.65208 0.0
C2794 C 0.862 0.36682 0.64127 0.0
C2795 C 0.88299 0.35985 0.62194 0.0
C2796 C 0.86123 0.39161 0.64783 0.0
C2797 C 0.83891 0.40068 0.66604 0.0
C2798 C 0.81446 0.39632 0.65529 0.0
C2799 C 0.79351 0.405 0.67239 0.0
C2800 C 0.79678 0.41831 0.70007 0.0
C2801 C 0.82103 0.423 0.71067 0.0
C2802 C 0.84204 0.41423 0.69379 0.0
C2803 C 0.95018 0.44249 0.55634 0.0
C2804 C 0.95896 0.45999 0.57718 0.0
C2805 C 0.93225 0.4235 0.56898 0.0
C2806 C 0.92307 0.42098 0.6031 0.0
C2807 C 0.93248 0.43808 0.6241 0.0
C2808 C 0.94997 0.45737 0.6113 0.0
C2809 C 0.90273 0.40158 0.61662 0.0
C2810 C 0.88158 0.40844 0.63584 0.0
C2811 C 0.90336 0.37675 0.6098 0.0
C2812 C 0.92532 0.36768 0.59098 0.0
C2813 C 0.94985 0.37092 0.60192 0.0
C2814 C 0.97053 0.36269 0.58371 0.0
C2815 C 0.96688 0.35104 0.55462 0.0
C2816 C 0.94253 0.34755 0.54374 0.0
C2817 C 0.92179 0.35576 0.56186 0.0
H2818 H 0.98292 0.3447 0.54053 0.0
H2819 H 0.78055 0.42506 0.71323 0.0
H2820 H 0.23625 0.6678 0.60838 0.0
H2821 H 0.21228 0.63632 0.58149 0.0
H2822 H 0.15393 0.63192 0.6627 0.0
H2823 H 0.17827 0.66191 0.69034 0.0
H2824 H 0.16029 0.58879 0.64635 0.0
H2825 H 0.15213 0.66726 0.58323 0.0
H2826 H 0.16907 0.70489 0.54905 0.0
H2827 H 0.20024 0.66232 0.47362 0.0
H2828 H 0.18392 0.6244 0.50767 0.0
H2829 H 0.05113 0.5413 0.57633 0.0
H2830 H 0.08151 0.57004 0.59833 0.0
H2831 H 0.1363 0.55988 0.51708 0.0
H2832 H 0.10617 0.53129 0.49494 0.0
H2833 H 0.13533 0.60808 0.53 0.0
H2834 H 0.14148 0.53006 0.59105 0.0
H2835 H 0.12526 0.49216 0.62513 0.0
H2836 H 0.09782 0.53388 0.70387 0.0
H2837 H 0.11352 0.57208 0.67002 0.0
C2838 C 0.21852 0.65977 0.62067 0.0
C2839 C 0.2089 0.66776 0.6511 0.0
C2840 C 0.2047 0.64198 0.60514 0.0
C2841 C 0.18095 0.63214 0.61964 0.0
C2842 C 0.17204 0.63932 0.65078 0.0
C2843 C 0.18588 0.65674 0.6664 0.0
C2844 C 0.16471 0.61488 0.60251 0.0
C2845 C 0.15471 0.59316 0.621 0.0
C2846 C 0.15789 0.62016 0.56905 0.0
C2847 C 0.16717 0.64299 0.54826 0.0
C2848 C 0.16279 0.66592 0.55949 0.0
C2849 C 0.17232 0.6873 0.54017 0.0
C2850 C 0.18599 0.68598 0.50938 0.0
C2851 C 0.18989 0.6633 0.49764 0.0
C2852 C 0.1805 0.64186 0.51694 0.0
C2853 C 0.06956 0.54536 0.56302 0.0
C2854 C 0.07637 0.53378 0.53419 0.0
C2855 C 0.08692 0.5617 0.57565 0.0
C2856 C 0.11128 0.56681 0.55956 0.0
C2857 C 0.11767 0.55611 0.52996 0.0
C2858 C 0.10045 0.53965 0.51749 0.0
C2859 C 0.13043 0.58254 0.57432 0.0
C2860 C 0.14103 0.60378 0.55531 0.0
C2861 C 0.1378 0.57689 0.60733 0.0
C2862 C 0.12848 0.55394 0.62785 0.0
C2863 C 0.13181 0.53117 0.61552 0.0
C2864 C 0.12273 0.50963 0.63481 0.0
C2865 C 0.11047 0.51062 0.66661 0.0
C2866 C 0.1073 0.53315 0.67922 0.0
C2867 C 0.1163 0.55475 0.65999 0.0
H2868 H 0.10346 0.49393 0.68152 0.0
H2869 H 0.1933 0.70255 0.49442 0.0
loop_
_geom_bond_atom_site_label_1
_geom_bond_atom_site_label_2
_geom_bond_distance
_geom_bond_site_symmetry_2
_ccdc_geom_bond_type
C0 O16 1.251 . S
C0 O18 1.254 . S
N1 C2 1.333 . S
N1 C6 1.307 . S
N1 Zn7 2.020 . S
C2 N1 1.333 . S
C2 C3 1.379 . S
C2 H20 0.952 . S
C3 C2 1.379 . S
C3 C4 1.390 . S
C3 H30 0.949 . S
C4 C3 1.390 . S
C4 C5 1.357 . S
C5 C4 1.357 . S
C5 C6 1.370 . S
C5 H31 0.950 . S
C6 N1 1.307 . S
C6 C5 1.370 . S
C6 H24 0.948 . S
Zn7 N1 2.020 . S
Zn7 O16 2.039 . S
Zn7 O22 2.034 . S
Zn7 O26 2.025 . S
Zn7 O28 2.024 . S
C8 O27 1.246 . S
C8 O28 1.249 . S
N9 C10 1.307 . S
N9 C11 1.333 . S
N9 Zn15 2.020 . S
C10 N9 1.307 . S
C10 C14 1.370 . S
C10 H21 0.948 . S
C11 N9 1.333 . S
C11 C12 1.379 . S
C11 H19 0.952 . S
C12 C11 1.379 . S
C12 C13 1.390 . S
C12 H32 0.949 . S
C13 C12 1.390 . S
C13 C14 1.357 . S
C14 C10 1.370 . S
C14 C13 1.357 . S
C14 H33 0.950 . S
Zn15 N9 2.020 . S
Zn15 O18 2.025 . S
Zn15 O23 2.024 . S
Zn15 O25 2.039 . S
Zn15 O27 2.034 . S
O16 C0 1.251 . S
O16 Zn7 2.039 . S
C17 O22 1.246 . S
C17 O23 1.249 . S
O18 C0 1.254 . S
O18 Zn15 2.025 . S
H19 C11 0.952 . S
H20 C2 0.952 . S
H21 C10 0.948 . S
O22 Zn7 2.034 . S
O22 C17 1.246 . S
O23 Zn15 2.024 . S
O23 C17 1.249 . S
H24 C6 0.948 . S
O25 Zn15 2.039 . S
O25 C29 1.251 . S
O26 Zn7 2.025 . S
O26 C29 1.254 . S
O27 C8 1.246 . S
O27 Zn15 2.034 . S
O28 Zn7 2.024 . S
O28 C8 1.249 . S
C29 O25 1.251 . S
C29 O26 1.254 . S
H30 C3 0.949 . S
H31 C5 0.950 . S
H32 C12 0.949 . S
H33 C14 0.950 . S
C34 O50 1.251 . S
C34 O52 1.254 . S
N35 C36 1.333 . S
N35 C40 1.307 . S
N35 Zn41 2.020 . S
C36 N35 1.333 . S
C36 C37 1.379 . S
C36 H54 0.952 . S
C37 C36 1.379 . S
C37 C38 1.390 . S
C37 H64 0.949 . S
C38 C37 1.390 . S
C38 C39 1.357 . S
C39 C38 1.357 . S
C39 C40 1.370 . S
C39 H65 0.950 . S
C40 N35 1.307 . S
C40 C39 1.370 . S
C40 H58 0.948 . S
Zn41 N35 2.020 . S
Zn41 O50 2.039 . S
Zn41 O56 2.034 . S
Zn41 O60 2.025 . S
Zn41 O62 2.024 . S
C42 O61 1.246 . S
C42 O62 1.249 . S
N43 C44 1.307 . S
N43 C45 1.333 . S
N43 Zn49 2.020 . S
C44 N43 1.307 . S
C44 C48 1.370 . S
C44 H55 0.948 . S
C45 N43 1.333 . S
C45 C46 1.379 . S
C45 H53 0.952 . S
C46 C45 1.379 . S
C46 C47 1.390 . S
C46 H66 0.949 . S
C47 C46 1.390 . S
C47 C48 1.357 . S
C48 C44 1.370 . S
C48 C47 1.357 . S
C48 H67 0.950 . S
Zn49 N43 2.020 . S
Zn49 O52 2.025 . S
Zn49 O57 2.024 . S
Zn49 O59 2.039 . S
Zn49 O61 2.034 . S
O50 C34 1.251 . S
O50 Zn41 2.039 . S
C51 O56 1.246 . S
C51 O57 1.249 . S
O52 C34 1.254 . S
O52 Zn49 2.025 . S
H53 C45 0.952 . S
H54 C36 0.952 . S
H55 C44 0.948 . S
O56 Zn41 2.034 . S
O56 C51 1.246 . S
O57 Zn49 2.024 . S
O57 C51 1.249 . S
H58 C40 0.948 . S
O59 Zn49 2.039 . S
O59 C63 1.251 . S
O60 Zn41 2.025 . S
O60 C63 1.254 . S
O61 C42 1.246 . S
O61 Zn49 2.034 . S
O62 Zn41 2.024 . S
O62 C42 1.249 . S
C63 O59 1.251 . S
C63 O60 1.254 . S
H64 C37 0.949 . S
H65 C39 0.950 . S
H66 C46 0.949 . S
H67 C48 0.950 . S
C68 O84 1.251 . S
C68 O86 1.254 . S
N69 C70 1.333 . S
N69 C74 1.307 . S
N69 Zn75 2.020 . S
C70 N69 1.333 . S
C70 C71 1.379 . S
C70 H88 0.952 . S
C71 C70 1.379 . S
C71 C72 1.390 . S
C71 H98 0.949 . S
C72 C71 1.390 . S
C72 C73 1.357 . S
C73 C72 1.357 . S
C73 C74 1.370 . S
C73 H99 0.950 . S
C74 N69 1.307 . S
C74 C73 1.370 . S
C74 H92 0.948 . S
Zn75 N69 2.020 . S
Zn75 O84 2.039 . S
Zn75 O90 2.034 . S
Zn75 O94 2.025 . S
Zn75 O96 2.024 . S
C76 O95 1.246 . S
C76 O96 1.249 . S
N77 C78 1.307 . S
N77 C79 1.333 . S
N77 Zn83 2.020 . S
C78 N77 1.307 . S
C78 C82 1.370 . S
C78 H89 0.948 . S
C79 N77 1.333 . S
C79 C80 1.379 . S
C79 H87 0.952 . S
C80 C79 1.379 . S
C80 C81 1.390 . S
C80 H100 0.949 . S
C81 C80 1.390 . S
C81 C82 1.357 . S
C82 C78 1.370 . S
C82 C81 1.357 . S
C82 H101 0.950 . S
Zn83 N77 2.020 . S
Zn83 O86 2.025 . S
Zn83 O91 2.024 . S
Zn83 O93 2.039 . S
Zn83 O95 2.034 . S
O84 C68 1.251 . S
O84 Zn75 2.039 . S
C85 O90 1.246 . S
C85 O91 1.249 . S
O86 C68 1.254 . S
O86 Zn83 2.025 . S
H87 C79 0.952 . S
H88 C70 0.952 . S
H89 C78 0.948 . S
O90 Zn75 2.034 . S
O90 C85 1.246 . S
O91 Zn83 2.024 . S
O91 C85 1.249 . S
H92 C74 0.948 . S
O93 Zn83 2.039 . S
O93 C97 1.251 . S
O94 Zn75 2.025 . S
O94 C97 1.254 . S
O95 C76 1.246 . S
O95 Zn83 2.034 . S
O96 Zn75 2.024 . S
O96 C76 1.249 . S
C97 O93 1.251 . S
C97 O94 1.254 . S
H98 C71 0.949 . S
H99 C73 0.950 . S
H100 C80 0.949 . S
H101 C82 0.950 . S
C102 O118 1.251 . S
C102 O120 1.254 . S
N103 C104 1.333 . S
N103 C108 1.307 . S
N103 Zn109 2.020 . S
C104 N103 1.333 . S
C104 C105 1.379 . S
C104 H122 0.952 . S
C105 C104 1.379 . S
C105 C106 1.390 . S
C105 H132 0.949 . S
C106 C105 1.390 . S
C106 C107 1.357 . S
C107 C106 1.357 . S
C107 C108 1.370 . S
C107 H133 0.950 . S
C108 N103 1.307 . S
C108 C107 1.370 . S
C108 H126 0.948 . S
Zn109 N103 2.020 . S
Zn109 O118 2.039 . S
Zn109 O124 2.034 . S
Zn109 O128 2.025 . S
Zn109 O130 2.024 . S
C110 O129 1.246 . S
C110 O130 1.249 . S
N111 C112 1.307 . S
N111 C113 1.333 . S
N111 Zn117 2.020 . S
C112 N111 1.307 . S
C112 C116 1.370 . S
C112 H123 0.948 . S
C113 N111 1.333 . S
C113 C114 1.379 . S
C113 H121 0.952 . S
C114 C113 1.379 . S
C114 C115 1.390 . S
C114 H134 0.949 . S
C115 C114 1.390 . S
C115 C116 1.357 . S
C116 C112 1.370 . S
C116 C115 1.357 . S
C116 H135 0.950 . S
Zn117 N111 2.020 . S
Zn117 O120 2.025 . S
Zn117 O125 2.024 . S
Zn117 O127 2.039 . S
Zn117 O129 2.034 . S
O118 C102 1.251 . S
O118 Zn109 2.039 . S
C119 O124 1.246 . S
C119 O125 1.249 . S
O120 C102 1.254 . S
O120 Zn117 2.025 . S
H121 C113 0.952 . S
H122 C104 0.952 . S
H123 C112 0.948 . S
O124 Zn109 2.034 . S
O124 C119 1.246 . S
O125 Zn117 2.024 . S
O125 C119 1.249 . S
H126 C108 0.948 . S
O127 Zn117 2.039 . S
O127 C131 1.251 . S
O128 Zn109 2.025 . S
O128 C131 1.254 . S
O129 C110 1.246 . S
O129 Zn117 2.034 . S
O130 Zn109 2.024 . S
O130 C110 1.249 . S
C131 O127 1.251 . S
C131 O128 1.254 . S
H132 C105 0.949 . S
H133 C107 0.950 . S
H134 C114 0.949 . S
H135 C116 0.950 . S
C136 O152 1.251 . S
C136 O154 1.254 . S
N137 C138 1.333 . S
N137 C142 1.307 . S
N137 Zn143 2.020 . S
C138 N137 1.333 . S
C138 C139 1.379 . S
C138 H156 0.952 . S
C139 C138 1.379 . S
C139 C140 1.390 . S
C139 H166 0.949 . S
C140 C139 1.390 . S
C140 C141 1.357 . S
C141 C140 1.357 . S
C141 C142 1.370 . S
C141 H167 0.950 . S
C142 N137 1.307 . S
C142 C141 1.370 . S
C142 H160 0.948 . S
Zn143 N137 2.020 . S
Zn143 O152 2.039 . S
Zn143 O158 2.034 . S
Zn143 O162 2.025 . S
Zn143 O164 2.024 . S
C144 O163 1.246 . S
C144 O164 1.249 . S
N145 C146 1.307 . S
N145 C147 1.333 . S
N145 Zn151 2.020 . S
C146 N145 1.307 . S
C146 C150 1.370 . S
C146 H157 0.948 . S
C147 N145 1.333 . S
C147 C148 1.379 . S
C147 H155 0.952 . S
C148 C147 1.379 . S
C148 C149 1.390 . S
C148 H168 0.949 . S
C149 C148 1.390 . S
C149 C150 1.357 . S
C150 C146 1.370 . S
C150 C149 1.357 . S
C150 H169 0.950 . S
Zn151 N145 2.020 . S
Zn151 O154 2.025 . S
Zn151 O159 2.024 . S
Zn151 O161 2.039 . S
Zn151 O163 2.034 . S
O152 C136 1.251 . S
O152 Zn143 2.039 . S
C153 O158 1.246 . S
C153 O159 1.249 . S
O154 C136 1.254 . S
O154 Zn151 2.025 . S
H155 C147 0.952 . S
H156 C138 0.952 . S
H157 C146 0.948 . S
O158 Zn143 2.034 . S
O158 C153 1.246 . S
O159 Zn151 2.024 . S
O159 C153 1.249 . S
H160 C142 0.948 . S
O161 Zn151 2.039 . S
O161 C165 1.251 . S
O162 Zn143 2.025 . S
O162 C165 1.254 . S
O163 C144 1.246 . S
O163 Zn151 2.034 . S
O164 Zn143 2.024 . S
O164 C144 1.249 . S
C165 O161 1.251 . S
C165 O162 1.254 . S
H166 C139 0.949 . S
H167 C141 0.950 . S
H168 C148 0.949 . S
H169 C150 0.950 . S
C170 O186 1.251 . S
C170 O188 1.254 . S
N171 C172 1.333 . S
N171 C176 1.307 . S
N171 Zn177 2.020 . S
C172 N171 1.333 . S
C172 C173 1.379 . S
C172 H190 0.952 . S
C173 C172 1.379 . S
C173 C174 1.390 . S
C173 H200 0.949 . S
C174 C173 1.390 . S
C174 C175 1.357 . S
C175 C174 1.357 . S
C175 C176 1.370 . S
C175 H201 0.950 . S
C176 N171 1.307 . S
C176 C175 1.370 . S
C176 H194 0.948 . S
Zn177 N171 2.020 . S
Zn177 O186 2.039 . S
Zn177 O192 2.034 . S
Zn177 O196 2.025 . S
Zn177 O198 2.024 . S
C178 O197 1.246 . S
C178 O198 1.249 . S
N179 C180 1.307 . S
N179 C181 1.333 . S
N179 Zn185 2.020 . S
C180 N179 1.307 . S
C180 C184 1.370 . S
C180 H191 0.948 . S
C181 N179 1.333 . S
C181 C182 1.379 . S
C181 H189 0.952 . S
C182 C181 1.379 . S
C182 C183 1.390 . S
C182 H202 0.949 . S
C183 C182 1.390 . S
C183 C184 1.357 . S
C184 C180 1.370 . S
C184 C183 1.357 . S
C184 H203 0.950 . S
Zn185 N179 2.020 . S
Zn185 O188 2.025 . S
Zn185 O193 2.024 . S
Zn185 O195 2.039 . S
Zn185 O197 2.034 . S
O186 C170 1.251 . S
O186 Zn177 2.039 . S
C187 O192 1.246 . S
C187 O193 1.249 . S
O188 C170 1.254 . S
O188 Zn185 2.025 . S
H189 C181 0.952 . S
H190 C172 0.952 . S
H191 C180 0.948 . S
O192 Zn177 2.034 . S
O192 C187 1.246 . S
O193 Zn185 2.024 . S
O193 C187 1.249 . S
H194 C176 0.948 . S
O195 Zn185 2.039 . S
O195 C199 1.251 . S
O196 Zn177 2.025 . S
O196 C199 1.254 . S
O197 C178 1.246 . S
O197 Zn185 2.034 . S
O198 Zn177 2.024 . S
O198 C178 1.249 . S
C199 O195 1.251 . S
C199 O196 1.254 . S
H200 C173 0.949 . S
H201 C175 0.950 . S
H202 C182 0.949 . S
H203 C184 0.950 . S
C204 O220 1.251 . S
C204 O222 1.254 . S
N205 C206 1.333 . S
N205 C210 1.307 . S
N205 Zn211 2.020 . S
C206 N205 1.333 . S
C206 C207 1.379 . S
C206 H224 0.952 . S
C207 C206 1.379 . S
C207 C208 1.390 . S
C207 H234 0.949 . S
C208 C207 1.390 . S
C208 C209 1.357 . S
C209 C208 1.357 . S
C209 C210 1.370 . S
C209 H235 0.950 . S
C210 N205 1.307 . S
C210 C209 1.370 . S
C210 H228 0.948 . S
Zn211 N205 2.020 . S
Zn211 O220 2.039 . S
Zn211 O226 2.034 . S
Zn211 O230 2.025 . S
Zn211 O232 2.024 . S
C212 O231 1.246 . S
C212 O232 1.249 . S
N213 C214 1.307 . S
N213 C215 1.333 . S
N213 Zn219 2.020 . S
C214 N213 1.307 . S
C214 C218 1.370 . S
C214 H225 0.948 . S
C215 N213 1.333 . S
C215 C216 1.379 . S
C215 H223 0.952 . S
C216 C215 1.379 . S
C216 C217 1.390 . S
C216 H236 0.949 . S
C217 C216 1.390 . S
C217 C218 1.357 . S
C218 C214 1.370 . S
C218 C217 1.357 . S
C218 H237 0.950 . S
Zn219 N213 2.020 . S
Zn219 O222 2.025 . S
Zn219 O227 2.024 . S
Zn219 O229 2.039 . S
Zn219 O231 2.034 . S
O220 C204 1.251 . S
O220 Zn211 2.039 . S
C221 O226 1.246 . S
C221 O227 1.249 . S
O222 C204 1.254 . S
O222 Zn219 2.025 . S
H223 C215 0.952 . S
H224 C206 0.952 . S
H225 C214 0.948 . S
O226 Zn211 2.034 . S
O226 C221 1.246 . S
O227 Zn219 2.024 . S
O227 C221 1.249 . S
H228 C210 0.948 . S
O229 Zn219 2.039 . S
O229 C233 1.251 . S
O230 Zn211 2.025 . S
O230 C233 1.254 . S
O231 C212 1.246 . S
O231 Zn219 2.034 . S
O232 Zn211 2.024 . S
O232 C212 1.249 . S
C233 O229 1.251 . S
C233 O230 1.254 . S
H234 C207 0.949 . S
H235 C209 0.950 . S
H236 C216 0.949 . S
H237 C218 0.950 . S
C238 O254 1.251 . S
C238 O256 1.254 . S
N239 C240 1.333 . S
N239 C244 1.307 . S
N239 Zn245 2.020 . S
C240 N239 1.333 . S
C240 C241 1.379 . S
C240 H258 0.952 . S
C241 C240 1.379 . S
C241 C242 1.390 . S
C241 H268 0.949 . S
C242 C241 1.390 . S
C242 C243 1.357 . S
C243 C242 1.357 . S
C243 C244 1.370 . S
C243 H269 0.950 . S
C244 N239 1.307 . S
C244 C243 1.370 . S
C244 H262 0.948 . S
Zn245 N239 2.020 . S
Zn245 O254 2.039 . S
Zn245 O260 2.034 . S
Zn245 O264 2.025 . S
Zn245 O266 2.024 . S
C246 O265 1.246 . S
C246 O266 1.249 . S
N247 C248 1.307 . S
N247 C249 1.333 . S
N247 Zn253 2.020 . S
C248 N247 1.307 . S
C248 C252 1.370 . S
C248 H259 0.948 . S
C249 N247 1.333 . S
C249 C250 1.379 . S
C249 H257 0.952 . S
C250 C249 1.379 . S
C250 C251 1.390 . S
C250 H270 0.949 . S
C251 C250 1.390 . S
C251 C252 1.357 . S
C252 C248 1.370 . S
C252 C251 1.357 . S
C252 H271 0.950 . S
Zn253 N247 2.020 . S
Zn253 O256 2.025 . S
Zn253 O261 2.024 . S
Zn253 O263 2.039 . S
Zn253 O265 2.034 . S
O254 C238 1.251 . S
O254 Zn245 2.039 . S
C255 O260 1.246 . S
C255 O261 1.249 . S
O256 C238 1.254 . S
O256 Zn253 2.025 . S
H257 C249 0.952 . S
H258 C240 0.952 . S
H259 C248 0.948 . S
O260 Zn245 2.034 . S
O260 C255 1.246 . S
O261 Zn253 2.024 . S
O261 C255 1.249 . S
H262 C244 0.948 . S
O263 Zn253 2.039 . S
O263 C267 1.251 . S
O264 Zn245 2.025 . S
O264 C267 1.254 . S
O265 C246 1.246 . S
O265 Zn253 2.034 . S
O266 Zn245 2.024 . S
O266 C246 1.249 . S
C267 O263 1.251 . S
C267 O264 1.254 . S
H268 C241 0.949 . S
H269 C243 0.950 . S
H270 C250 0.949 . S
H271 C252 0.950 . S
Co272 O275 2.042 . S
Co272 O282 2.264 . S
Co272 O301 2.286 . S
Co272 O302 2.069 . S
Co272 O304 2.015 1_455 S
Co273 O275 2.122 . S
Co273 O281 2.073 . S
Co273 O282 2.327 . S
Co273 O283 1.976 1_455 S
Co274 O275 2.082 1_545 S
Co274 O277 2.092 1_455 S
Co274 O284 2.109 1_445 S
Co274 O285 2.148 . S
Co274 O289 2.114 . S
Co274 O303 2.139 1_445 S
O275 Co272 2.042 . S
O275 Co273 2.122 . S
O275 Co274 2.082 1_565 S
O275 H276 0.980 . S
H276 O275 0.980 . S
O277 Co274 2.092 1_655 S
O277 Co278 2.042 . S
O277 Co279 2.122 . S
O277 H280 0.980 . S
Co278 O277 2.042 . S
Co278 O286 2.286 . S
Co278 O287 2.069 . S
Co278 O288 2.015 1_655 S
Co278 O291 2.264 . S
Co279 O277 2.122 . S
Co279 O290 1.976 1_655 S
Co279 O291 2.327 . S
Co279 O292 2.073 . S
H280 O277 0.980 . S
O281 Co273 2.073 . S
O281 C296 1.245 . S
O282 Co272 2.264 . S
O282 Co273 2.327 . S
O282 C296 1.257 . S
O283 Co273 1.976 1_655 S
O283 C295 1.251 . S
O284 Co274 2.109 1_665 S
O284 C295 1.274 . S
O285 Co274 2.148 . S
O285 C298 1.246 . S
O286 Co278 2.286 . S
O286 C297 1.259 . S
O287 Co278 2.069 . S
O287 C297 1.289 . S
O288 Co278 2.015 1_455 S
O288 C298 1.257 . S
O289 Co274 2.114 . S
O289 C299 1.274 . S
O290 Co279 1.976 1_455 S
O290 C299 1.251 . S
O291 Co278 2.264 . S
O291 Co279 2.327 . S
O291 C300 1.257 . S
O292 Co279 2.073 . S
O292 C300 1.245 . S
C293 O301 1.259 . S
C293 O302 1.289 . S
C294 O303 1.246 . S
C294 O304 1.257 . S
C295 O283 1.251 . S
C295 O284 1.274 . S
C296 O281 1.245 . S
C296 O282 1.257 . S
C297 O286 1.259 . S
C297 O287 1.289 . S
C298 O285 1.246 . S
C298 O288 1.257 . S
C299 O289 1.274 . S
C299 O290 1.251 . S
C300 O291 1.257 . S
C300 O292 1.245 . S
O301 Co272 2.286 . S
O301 C293 1.259 . S
O302 Co272 2.069 . S
O302 C293 1.289 . S
O303 Co274 2.139 1_665 S
O303 C294 1.246 . S
O304 Co272 2.015 1_655 S
O304 C294 1.257 . S
Co305 O308 2.042 1_556 S
Co305 O315 2.264 1_556 S
Co305 O334 2.286 . S
Co305 O335 2.069 . S
Co305 O337 2.015 . S
Co306 O308 2.122 . S
Co306 O314 2.073 . S
Co306 O315 2.327 . S
Co306 O316 1.976 . S
Co307 O308 2.082 1_545 S
Co307 O310 2.092 1_554 S
Co307 O317 2.109 1_545 S
Co307 O318 2.148 . S
Co307 O322 2.114 1_554 S
Co307 O336 2.139 1_544 S
O308 Co305 2.042 1_554 S
O308 Co306 2.122 . S
O308 Co307 2.082 1_565 S
O308 H309 0.980 . S
H309 O308 0.980 . S
O310 Co307 2.092 1_556 S
O310 Co311 2.042 1_556 S
O310 Co312 2.122 . S
O310 H313 0.980 . S
Co311 O310 2.042 1_554 S
Co311 O319 2.286 . S
Co311 O320 2.069 . S
Co311 O321 2.015 . S
Co311 O324 2.264 1_554 S
Co312 O310 2.122 . S
Co312 O323 1.976 . S
Co312 O324 2.327 . S
Co312 O325 2.073 . S
H313 O310 0.980 . S
O314 Co306 2.073 . S
O314 C329 1.245 . S
O315 Co305 2.264 1_554 S
O315 Co306 2.327 . S
O315 C329 1.257 . S
O316 Co306 1.976 . S
O316 C328 1.251 . S
O317 Co307 2.109 1_565 S
O317 C328 1.274 . S
O318 Co307 2.148 . S
O318 C331 1.246 . S
O319 Co311 2.286 . S
O319 C330 1.259 . S
O320 Co311 2.069 . S
O320 C330 1.289 . S
O321 Co311 2.015 . S
O321 C331 1.257 . S
O322 Co307 2.114 1_556 S
O322 C332 1.274 . S
O323 Co312 1.976 . S
O323 C332 1.251 . S
O324 Co311 2.264 1_556 S
O324 Co312 2.327 . S
O324 C333 1.257 . S
O325 Co312 2.073 . S
O325 C333 1.245 . S
C326 O334 1.259 . S
C326 O335 1.289 . S
C327 O336 1.246 . S
C327 O337 1.257 . S
C328 O316 1.251 . S
C328 O317 1.274 . S
C329 O314 1.245 . S
C329 O315 1.257 . S
C330 O319 1.259 . S
C330 O320 1.289 . S
C331 O318 1.246 . S
C331 O321 1.257 . S
C332 O322 1.274 . S
C332 O323 1.251 . S
C333 O324 1.257 . S
C333 O325 1.245 . S
O334 Co305 2.286 . S
O334 C326 1.259 . S
O335 Co305 2.069 . S
O335 C326 1.289 . S
O336 Co307 2.139 1_566 S
O336 C327 1.246 . S
O337 Co305 2.015 . S
O337 C327 1.257 . S
Co338 O341 2.042 1_556 S
Co338 O348 2.264 1_556 S
Co338 O367 2.286 . S
Co338 O368 2.069 . S
Co338 O370 2.015 1_455 S
Co339 O341 2.122 . S
Co339 O347 2.073 . S
Co339 O348 2.327 . S
Co339 O349 1.976 1_455 S
Co340 O341 2.087 . S
Co340 O343 2.087 1_454 S
Co340 O350 2.111 1_455 S
Co340 O351 2.143 . S
Co340 O355 2.111 1_554 S
Co340 O369 2.143 1_454 S
O341 Co338 2.042 1_554 S
O341 Co339 2.122 . S
O341 Co340 2.087 . S
O341 H342 0.980 . S
H342 O341 0.980 . S
O343 Co340 2.087 1_656 S
O343 Co344 2.042 1_556 S
O343 Co345 2.122 . S
O343 H346 0.980 . S
Co344 O343 2.042 1_554 S
Co344 O352 2.286 . S
Co344 O353 2.069 . S
Co344 O354 2.015 1_655 S
Co344 O357 2.264 1_554 S
Co345 O343 2.122 . S
Co345 O356 1.976 1_655 S
Co345 O357 2.327 . S
Co345 O358 2.073 . S
H346 O343 0.980 . S
O347 Co339 2.073 . S
O347 C362 1.245 . S
O348 Co338 2.264 1_554 S
O348 Co339 2.327 . S
O348 C362 1.257 . S
O349 Co339 1.976 1_655 S
O349 C361 1.251 . S
O350 Co340 2.111 1_655 S
O350 C361 1.274 . S
O351 Co340 2.143 . S
O351 C364 1.246 . S
O352 Co344 2.286 . S
O352 C363 1.259 . S
O353 Co344 2.069 . S
O353 C363 1.289 . S
O354 Co344 2.015 1_455 S
O354 C364 1.257 . S
O355 Co340 2.111 1_556 S
O355 C365 1.274 . S
O356 Co345 1.976 1_455 S
O356 C365 1.251 . S
O357 Co344 2.264 1_556 S
O357 Co345 2.327 . S
O357 C366 1.257 . S
O358 Co345 2.073 . S
O358 C366 1.245 . S
C359 O367 1.259 . S
C359 O368 1.289 . S
C360 O369 1.246 . S
C360 O370 1.257 . S
C361 O349 1.251 . S
C361 O350 1.274 . S
C362 O347 1.245 . S
C362 O348 1.257 . S
C363 O352 1.259 . S
C363 O353 1.289 . S
C364 O351 1.246 . S
C364 O354 1.257 . S
C365 O355 1.274 . S
C365 O356 1.251 . S
C366 O357 1.257 . S
C366 O358 1.245 . S
O367 Co338 2.286 . S
O367 C359 1.259 . S
O368 Co338 2.069 . S
O368 C359 1.289 . S
O369 Co340 2.143 1_656 S
O369 C360 1.246 . S
O370 Co338 2.015 1_655 S
O370 C360 1.257 . S
Co371 O374 2.042 1_556 S
Co371 O381 2.264 1_556 S
Co371 O400 2.286 . S
Co371 O401 2.069 . S
Co371 O403 2.015 . S
Co372 O374 2.122 . S
Co372 O380 2.073 . S
Co372 O381 2.327 . S
Co372 O382 1.976 . S
Co373 O374 2.087 . S
Co373 O376 2.087 1_554 S
Co373 O383 2.111 . S
Co373 O384 2.143 . S
Co373 O388 2.111 1_554 S
Co373 O402 2.143 1_554 S
O374 Co371 2.042 1_554 S
O374 Co372 2.122 . S
O374 Co373 2.087 . S
O374 H375 0.980 . S
H375 O374 0.980 . S
O376 Co373 2.087 1_556 S
O376 Co377 2.042 1_556 S
O376 Co378 2.122 . S
O376 H379 0.980 . S
Co377 O376 2.042 1_554 S
Co377 O385 2.286 . S
Co377 O386 2.069 . S
Co377 O387 2.015 . S
Co377 O390 2.264 1_554 S
Co378 O376 2.122 . S
Co378 O389 1.976 . S
Co378 O390 2.327 . S
Co378 O391 2.073 . S
H379 O376 0.980 . S
O380 Co372 2.073 . S
O380 C395 1.245 . S
O381 Co371 2.264 1_554 S
O381 Co372 2.327 . S
O381 C395 1.257 . S
O382 Co372 1.976 . S
O382 C394 1.251 . S
O383 Co373 2.111 . S
O383 C394 1.274 . S
O384 Co373 2.143 . S
O384 C397 1.246 . S
O385 Co377 2.286 . S
O385 C396 1.259 . S
O386 Co377 2.069 . S
O386 C396 1.289 . S
O387 Co377 2.015 . S
O387 C397 1.257 . S
O388 Co373 2.111 1_556 S
O388 C398 1.274 . S
O389 Co378 1.976 . S
O389 C398 1.251 . S
O390 Co377 2.264 1_556 S
O390 Co378 2.327 . S
O390 C399 1.257 . S
O391 Co378 2.073 . S
O391 C399 1.245 . S
C392 O400 1.259 . S
C392 O401 1.289 . S
C393 O402 1.246 . S
C393 O403 1.257 . S
C394 O382 1.251 . S
C394 O383 1.274 . S
C395 O380 1.245 . S
C395 O381 1.257 . S
C396 O385 1.259 . S
C396 O386 1.289 . S
C397 O384 1.246 . S
C397 O387 1.257 . S
C398 O388 1.274 . S
C398 O389 1.251 . S
C399 O390 1.257 . S
C399 O391 1.245 . S
O400 Co371 2.286 . S
O400 C392 1.259 . S
O401 Co371 2.069 . S
O401 C392 1.289 . S
O402 Co373 2.143 1_556 S
O402 C393 1.246 . S
O403 Co371 2.015 . S
O403 C393 1.257 . S
Co404 O407 2.042 . S
Co404 O414 2.264 . S
Co404 O433 2.286 . S
Co404 O434 2.069 . S
Co404 O436 2.015 . S
Co405 O407 2.122 . S
Co405 O413 2.073 . S
Co405 O414 2.327 . S
Co405 O415 1.976 . S
Co406 O407 2.087 . S
Co406 O409 2.087 1_455 S
Co406 O416 2.111 . S
Co406 O417 2.143 1_455 S
Co406 O421 2.111 1_455 S
Co406 O435 2.143 . S
O407 Co404 2.042 . S
O407 Co405 2.122 . S
O407 Co406 2.087 . S
O407 H408 0.980 . S
H408 O407 0.980 . S
O409 Co406 2.087 1_655 S
O409 Co410 2.042 . S
O409 Co411 2.122 . S
O409 H412 0.980 . S
Co410 O409 2.042 . S
Co410 O418 2.286 . S
Co410 O419 2.069 . S
Co410 O420 2.015 . S
Co410 O423 2.264 . S
Co411 O409 2.122 . S
Co411 O422 1.976 . S
Co411 O423 2.327 . S
Co411 O424 2.073 . S
H412 O409 0.980 . S
O413 Co405 2.073 . S
O413 C428 1.245 . S
O414 Co404 2.264 . S
O414 Co405 2.327 . S
O414 C428 1.257 . S
O415 Co405 1.976 . S
O415 C427 1.251 . S
O416 Co406 2.111 . S
O416 C427 1.274 . S
O417 Co406 2.143 1_655 S
O417 C430 1.246 . S
O418 Co410 2.286 . S
O418 C429 1.259 . S
O419 Co410 2.069 . S
O419 C429 1.289 . S
O420 Co410 2.015 . S
O420 C430 1.257 . S
O421 Co406 2.111 1_655 S
O421 C431 1.274 . S
O422 Co411 1.976 . S
O422 C431 1.251 . S
O423 Co410 2.264 . S
O423 Co411 2.327 . S
O423 C432 1.257 . S
O424 Co411 2.073 . S
O424 C432 1.245 . S
C425 O433 1.259 . S
C425 O434 1.289 . S
C426 O435 1.246 . S
C426 O436 1.257 . S
C427 O415 1.251 . S
C427 O416 1.274 . S
C428 O413 1.245 . S
C428 O414 1.257 . S
C429 O418 1.259 . S
C429 O419 1.289 . S
C430 O417 1.246 . S
C430 O420 1.257 . S
C431 O421 1.274 . S
C431 O422 1.251 . S
C432 O423 1.257 . S
C432 O424 1.245 . S
O433 Co404 2.286 . S
O433 C425 1.259 . S
O434 Co404 2.069 . S
O434 C425 1.289 . S
O435 Co406 2.143 . S
O435 C426 1.246 . S
O436 Co404 2.015 . S
O436 C426 1.257 . S
Co437 O440 2.042 . S
Co437 O447 2.264 . S
Co437 O466 2.286 . S
Co437 O467 2.069 . S
Co437 O469 2.015 1_565 S
Co438 O440 2.122 . S
Co438 O446 2.073 . S
Co438 O447 2.327 . S
Co438 O448 1.976 1_565 S
Co439 O440 2.082 1_545 S
Co439 O442 2.092 . S
Co439 O449 2.116 . S
Co439 O450 2.140 1_545 S
Co439 O454 2.107 1_545 S
Co439 O468 2.147 . S
O440 Co437 2.042 . S
O440 Co438 2.122 . S
O440 Co439 2.082 1_565 S
O440 H441 0.980 . S
H441 O440 0.980 . S
O442 Co439 2.092 . S
O442 Co443 2.042 . S
O442 Co444 2.122 . S
O442 H445 0.980 . S
Co443 O442 2.042 . S
Co443 O451 2.286 . S
Co443 O452 2.069 . S
Co443 O453 2.015 1_545 S
Co443 O456 2.264 . S
Co444 O442 2.122 . S
Co444 O455 1.976 1_545 S
Co444 O456 2.327 . S
Co444 O457 2.073 . S
H445 O442 0.980 . S
O446 Co438 2.073 . S
O446 C461 1.245 . S
O447 Co437 2.264 . S
O447 Co438 2.327 . S
O447 C461 1.257 . S
O448 Co438 1.976 1_545 S
O448 C460 1.251 . S
O449 Co439 2.116 . S
O449 C460 1.274 . S
O450 Co439 2.140 1_565 S
O450 C463 1.246 . S
O451 Co443 2.286 . S
O451 C462 1.259 . S
O452 Co443 2.069 . S
O452 C462 1.289 . S
O453 Co443 2.015 1_565 S
O453 C463 1.257 . S
O454 Co439 2.107 1_565 S
O454 C464 1.274 . S
O455 Co444 1.976 1_565 S
O455 C464 1.251 . S
O456 Co443 2.264 . S
O456 Co444 2.327 . S
O456 C465 1.257 . S
O457 Co444 2.073 . S
O457 C465 1.245 . S
C458 O466 1.259 . S
C458 O467 1.289 . S
C459 O468 1.246 . S
C459 O469 1.257 . S
C460 O448 1.251 . S
C460 O449 1.274 . S
C461 O446 1.245 . S
C461 O447 1.257 . S
C462 O451 1.259 . S
C462 O452 1.289 . S
C463 O450 1.246 . S
C463 O453 1.257 . S
C464 O454 1.274 . S
C464 O455 1.251 . S
C465 O456 1.257 . S
C465 O457 1.245 . S
O466 Co437 2.286 . S
O466 C458 1.259 . S
O467 Co437 2.069 . S
O467 C458 1.289 . S
O468 Co439 2.147 . S
O468 C459 1.246 . S
O469 Co437 2.015 1_545 S
O469 C459 1.257 . S
H470 C488 0.951 . S
H471 C490 0.951 . S
H472 C492 0.950 . S
H473 C493 0.950 . S
H474 C495 0.950 . S
H475 C498 0.950 . S
H476 C499 0.950 . S
H477 C501 0.950 . S
H478 C502 0.950 . S
H479 C503 0.951 . S
H480 C505 0.951 . S
H481 C507 0.950 . S
H482 C508 0.950 . S
H483 C510 0.950 . S
H484 C513 0.950 . S
H485 C514 0.950 . S
H486 C516 0.950 . S
H487 C517 0.950 . S
C488 H470 0.951 . S
C488 C489 1.366 . S
C488 C490 1.388 . S
C489 C488 1.366 . S
C489 C493 1.385 . S
C490 H471 0.951 . S
C490 C488 1.388 . S
C490 C491 1.366 . S
C491 C490 1.366 . S
C491 C492 1.414 . S
C491 C494 1.499 . S
C492 H472 0.950 . S
C492 C491 1.414 . S
C492 C493 1.374 . S
C493 H473 0.950 . S
C493 C489 1.385 . S
C493 C492 1.374 . S
C494 C491 1.499 . S
C494 C495 1.373 . S
C494 C496 1.389 . S
C495 H474 0.950 . S
C495 C494 1.373 . S
C495 C511 1.377 . S
C496 C494 1.389 . S
C496 C497 1.524 . S
C496 C510 1.377 . S
C497 C496 1.524 . S
C497 C498 1.397 . S
C497 C502 1.363 . S
C498 H475 0.950 . S
C498 C497 1.397 . S
C498 C499 1.334 . S
C499 H476 0.950 . S
C499 C498 1.334 . S
C499 C500 1.287 . S
C500 C499 1.287 . S
C500 C501 1.524 . S
C500 H519 0.913 . S
C501 H477 0.950 . S
C501 C500 1.524 . S
C501 C502 1.415 . S
C502 H478 0.950 . S
C502 C497 1.363 . S
C502 C501 1.415 . S
C503 H479 0.951 . S
C503 C504 1.366 . S
C503 C505 1.388 . S
C504 C503 1.366 . S
C504 C508 1.385 . S
C505 H480 0.951 . S
C505 C503 1.388 . S
C505 C506 1.366 . S
C506 C505 1.366 . S
C506 C507 1.414 . S
C506 C509 1.499 . S
C507 H481 0.950 . S
C507 C506 1.414 . S
C507 C508 1.374 . S
C508 H482 0.950 . S
C508 C504 1.385 . S
C508 C507 1.374 . S
C509 C506 1.499 . S
C509 C510 1.373 . S
C509 C511 1.389 . S
C510 H483 0.950 . S
C510 C496 1.377 . S
C510 C509 1.373 . S
C511 C495 1.377 . S
C511 C509 1.389 . S
C511 C512 1.524 . S
C512 C511 1.524 . S
C512 C513 1.397 . S
C512 C517 1.363 . S
C513 H484 0.950 . S
C513 C512 1.397 . S
C513 C514 1.334 . S
C514 H485 0.950 . S
C514 C513 1.334 . S
C514 C515 1.287 . S
C515 C514 1.287 . S
C515 C516 1.524 . S
C515 H518 0.999 1_545 S
C516 H486 0.950 . S
C516 C515 1.524 . S
C516 C517 1.415 . S
C517 H487 0.950 . S
C517 C512 1.363 . S
C517 C516 1.415 . S
H518 C515 0.999 1_565 S
H519 C500 0.913 . S
H520 C538 0.951 . S
H521 C540 0.951 . S
H522 C542 0.950 . S
H523 C543 0.950 . S
H524 C545 0.950 . S
H525 C548 0.950 . S
H526 C549 0.950 . S
H527 C551 0.950 . S
H528 C552 0.950 . S
H529 C553 0.951 . S
H530 C555 0.951 . S
H531 C557 0.950 . S
H532 C558 0.950 . S
H533 C560 0.950 . S
H534 C563 0.950 . S
H535 C564 0.950 . S
H536 C566 0.950 . S
H537 C567 0.950 . S
C538 H520 0.951 . S
C538 C539 1.366 . S
C538 C540 1.388 . S
C539 C538 1.366 . S
C539 C543 1.385 . S
C540 H521 0.951 . S
C540 C538 1.388 . S
C540 C541 1.366 . S
C541 C540 1.366 . S
C541 C542 1.414 . S
C541 C544 1.499 . S
C542 H522 0.950 . S
C542 C541 1.414 . S
C542 C543 1.374 . S
C543 H523 0.950 . S
C543 C539 1.385 . S
C543 C542 1.374 . S
C544 C541 1.499 . S
C544 C545 1.373 . S
C544 C546 1.389 . S
C545 H524 0.950 . S
C545 C544 1.373 . S
C545 C561 1.377 . S
C546 C544 1.389 . S
C546 C547 1.524 . S
C546 C560 1.377 . S
C547 C546 1.524 . S
C547 C548 1.397 . S
C547 C552 1.363 . S
C548 H525 0.950 . S
C548 C547 1.397 . S
C548 C549 1.334 . S
C549 H526 0.950 . S
C549 C548 1.334 . S
C549 C550 1.287 . S
C550 C549 1.287 . S
C550 C551 1.524 . S
C550 H569 0.913 . S
C551 H527 0.950 . S
C551 C550 1.524 . S
C551 C552 1.415 . S
C552 H528 0.950 . S
C552 C547 1.363 . S
C552 C551 1.415 . S
C553 H529 0.951 . S
C553 C554 1.366 . S
C553 C555 1.388 . S
C554 C553 1.366 . S
C554 C558 1.385 . S
C555 H530 0.951 . S
C555 C553 1.388 . S
C555 C556 1.366 . S
C556 C555 1.366 . S
C556 C557 1.414 . S
C556 C559 1.499 . S
C557 H531 0.950 . S
C557 C556 1.414 . S
C557 C558 1.374 . S
C558 H532 0.950 . S
C558 C554 1.385 . S
C558 C557 1.374 . S
C559 C556 1.499 . S
C559 C560 1.373 . S
C559 C561 1.389 . S
C560 H533 0.950 . S
C560 C546 1.377 . S
C560 C559 1.373 . S
C561 C545 1.377 . S
C561 C559 1.389 . S
C561 C562 1.524 . S
C562 C561 1.524 . S
C562 C563 1.397 . S
C562 C567 1.363 . S
C563 H534 0.950 . S
C563 C562 1.397 . S
C563 C564 1.334 . S
C564 H535 0.950 . S
C564 C563 1.334 . S
C564 C565 1.287 . S
C565 C564 1.287 . S
C565 C566 1.524 . S
C565 H568 0.999 . S
C566 H536 0.950 . S
C566 C565 1.524 . S
C566 C567 1.415 . S
C567 H537 0.950 . S
C567 C562 1.363 . S
C567 C566 1.415 . S
H568 C565 0.999 . S
H569 C550 0.913 . S
H570 C588 0.951 . S
H571 C590 0.951 . S
H572 C592 0.950 . S
H573 C593 0.950 . S
H574 C595 0.950 . S
H575 C598 0.950 . S
H576 C599 0.950 . S
H577 C601 0.950 . S
H578 C602 0.950 . S
H579 C603 0.951 . S
H580 C605 0.951 . S
H581 C607 0.950 . S
H582 C608 0.950 . S
H583 C610 0.950 . S
H584 C613 0.950 . S
H585 C614 0.950 . S
H586 C616 0.950 . S
H587 C617 0.950 . S
C588 H570 0.951 . S
C588 C589 1.366 . S
C588 C590 1.388 . S
C589 C588 1.366 . S
C589 C593 1.385 . S
C590 H571 0.951 . S
C590 C588 1.388 . S
C590 C591 1.366 . S
C591 C590 1.366 . S
C591 C592 1.414 . S
C591 C594 1.499 . S
C592 H572 0.950 . S
C592 C591 1.414 . S
C592 C593 1.374 . S
C593 H573 0.950 . S
C593 C589 1.385 . S
C593 C592 1.374 . S
C594 C591 1.499 . S
C594 C595 1.373 . S
C594 C596 1.389 . S
C595 H574 0.950 . S
C595 C594 1.373 . S
C595 C611 1.377 . S
C596 C594 1.389 . S
C596 C597 1.524 . S
C596 C610 1.377 . S
C597 C596 1.524 . S
C597 C598 1.397 . S
C597 C602 1.363 . S
C598 H575 0.950 . S
C598 C597 1.397 . S
C598 C599 1.334 . S
C599 H576 0.950 . S
C599 C598 1.334 . S
C599 C600 1.287 . S
C600 C599 1.287 . S
C600 C601 1.524 . S
C600 H619 0.913 . S
C601 H577 0.950 . S
C601 C600 1.524 . S
C601 C602 1.415 . S
C602 H578 0.950 . S
C602 C597 1.363 . S
C602 C601 1.415 . S
C603 H579 0.951 . S
C603 C604 1.366 . S
C603 C605 1.388 . S
C604 C603 1.366 . S
C604 C608 1.385 . S
C605 H580 0.951 . S
C605 C603 1.388 . S
C605 C606 1.366 . S
C606 C605 1.366 . S
C606 C607 1.414 . S
C606 C609 1.499 . S
C607 H581 0.950 . S
C607 C606 1.414 . S
C607 C608 1.374 . S
C608 H582 0.950 . S
C608 C604 1.385 . S
C608 C607 1.374 . S
C609 C606 1.499 . S
C609 C610 1.373 . S
C609 C611 1.389 . S
C610 H583 0.950 . S
C610 C596 1.377 . S
C610 C609 1.373 . S
C611 C595 1.377 . S
C611 C609 1.389 . S
C611 C612 1.524 . S
C612 C611 1.524 . S
C612 C613 1.397 . S
C612 C617 1.363 . S
C613 H584 0.950 . S
C613 C612 1.397 . S
C613 C614 1.334 . S
C614 H585 0.950 . S
C614 C613 1.334 . S
C614 C615 1.287 . S
C615 C614 1.287 . S
C615 C616 1.524 . S
C615 H618 0.999 . S
C616 H586 0.950 . S
C616 C615 1.524 . S
C616 C617 1.415 . S
C617 H587 0.950 . S
C617 C612 1.363 . S
C617 C616 1.415 . S
H618 C615 0.999 . S
H619 C600 0.913 . S
H620 C638 0.951 . S
H621 C640 0.951 . S
H622 C642 0.950 . S
H623 C643 0.950 . S
H624 C645 0.950 . S
H625 C648 0.950 . S
H626 C649 0.950 . S
H627 C651 0.950 . S
H628 C652 0.950 . S
H629 C653 0.951 . S
H630 C655 0.951 . S
H631 C657 0.950 . S
H632 C658 0.950 . S
H633 C660 0.950 . S
H634 C663 0.950 . S
H635 C664 0.950 . S
H636 C666 0.950 . S
H637 C667 0.950 . S
C638 H620 0.951 . S
C638 C639 1.366 . S
C638 C640 1.388 . S
C639 C638 1.366 . S
C639 C643 1.385 . S
C640 H621 0.951 . S
C640 C638 1.388 . S
C640 C641 1.366 . S
C641 C640 1.366 . S
C641 C642 1.414 . S
C641 C644 1.499 . S
C642 H622 0.950 . S
C642 C641 1.414 . S
C642 C643 1.374 . S
C643 H623 0.950 . S
C643 C639 1.385 . S
C643 C642 1.374 . S
C644 C641 1.499 . S
C644 C645 1.373 . S
C644 C646 1.389 . S
C645 H624 0.950 . S
C645 C644 1.373 . S
C645 C661 1.377 . S
C646 C644 1.389 . S
C646 C647 1.524 . S
C646 C660 1.377 . S
C647 C646 1.524 . S
C647 C648 1.397 . S
C647 C652 1.363 . S
C648 H625 0.950 . S
C648 C647 1.397 . S
C648 C649 1.334 . S
C649 H626 0.950 . S
C649 C648 1.334 . S
C649 C650 1.287 . S
C650 C649 1.287 . S
C650 C651 1.524 . S
C650 H669 0.913 . S
C651 H627 0.950 . S
C651 C650 1.524 . S
C651 C652 1.415 . S
C652 H628 0.950 . S
C652 C647 1.363 . S
C652 C651 1.415 . S
C653 H629 0.951 . S
C653 C654 1.366 . S
C653 C655 1.388 . S
C654 C653 1.366 . S
C654 C658 1.385 . S
C655 H630 0.951 . S
C655 C653 1.388 . S
C655 C656 1.366 . S
C656 C655 1.366 . S
C656 C657 1.414 . S
C656 C659 1.499 . S
C657 H631 0.950 . S
C657 C656 1.414 . S
C657 C658 1.374 . S
C658 H632 0.950 . S
C658 C654 1.385 . S
C658 C657 1.374 . S
C659 C656 1.499 . S
C659 C660 1.373 . S
C659 C661 1.389 . S
C660 H633 0.950 . S
C660 C646 1.377 . S
C660 C659 1.373 . S
C661 C645 1.377 . S
C661 C659 1.389 . S
C661 C662 1.524 . S
C662 C661 1.524 . S
C662 C663 1.397 . S
C662 C667 1.363 . S
C663 H634 0.950 . S
C663 C662 1.397 . S
C663 C664 1.334 . S
C664 H635 0.950 . S
C664 C663 1.334 . S
C664 C665 1.287 . S
C665 C664 1.287 . S
C665 C666 1.524 . S
C665 H668 0.999 . S
C666 H636 0.950 . S
C666 C665 1.524 . S
C666 C667 1.415 . S
C667 H637 0.950 . S
C667 C662 1.363 . S
C667 C666 1.415 . S
H668 C665 0.999 . S
H669 C650 0.913 . S
H670 C688 0.951 . S
H671 C690 0.951 . S
H672 C692 0.950 . S
H673 C693 0.950 . S
H674 C695 0.950 . S
H675 C698 0.950 . S
H676 C699 0.950 . S
H677 C701 0.950 . S
H678 C702 0.950 . S
H679 C703 0.951 . S
H680 C705 0.951 . S
H681 C707 0.950 . S
H682 C708 0.950 . S
H683 C710 0.950 . S
H684 C713 0.950 . S
H685 C714 0.950 . S
H686 C716 0.950 . S
H687 C717 0.950 . S
C688 H670 0.951 . S
C688 C689 1.366 . S
C688 C690 1.388 . S
C689 C688 1.366 . S
C689 C693 1.385 . S
C690 H671 0.951 . S
C690 C688 1.388 . S
C690 C691 1.366 . S
C691 C690 1.366 . S
C691 C692 1.414 . S
C691 C694 1.499 . S
C692 H672 0.950 . S
C692 C691 1.414 . S
C692 C693 1.374 . S
C693 H673 0.950 . S
C693 C689 1.385 . S
C693 C692 1.374 . S
C694 C691 1.499 . S
C694 C695 1.373 . S
C694 C696 1.389 . S
C695 H674 0.950 . S
C695 C694 1.373 . S
C695 C711 1.377 . S
C696 C694 1.389 . S
C696 C697 1.524 . S
C696 C710 1.377 . S
C697 C696 1.524 . S
C697 C698 1.397 . S
C697 C702 1.363 . S
C698 H675 0.950 . S
C698 C697 1.397 . S
C698 C699 1.334 . S
C699 H676 0.950 . S
C699 C698 1.334 . S
C699 C700 1.287 . S
C700 C699 1.287 . S
C700 C701 1.524 . S
C700 H719 0.913 . S
C701 H677 0.950 . S
C701 C700 1.524 . S
C701 C702 1.415 . S
C702 H678 0.950 . S
C702 C697 1.363 . S
C702 C701 1.415 . S
C703 H679 0.951 . S
C703 C704 1.366 . S
C703 C705 1.388 . S
C704 C703 1.366 . S
C704 C708 1.385 . S
C705 H680 0.951 . S
C705 C703 1.388 . S
C705 C706 1.366 . S
C706 C705 1.366 . S
C706 C707 1.414 . S
C706 C709 1.499 . S
C707 H681 0.950 . S
C707 C706 1.414 . S
C707 C708 1.374 . S
C708 H682 0.950 . S
C708 C704 1.385 . S
C708 C707 1.374 . S
C709 C706 1.499 . S
C709 C710 1.373 . S
C709 C711 1.389 . S
C710 H683 0.950 . S
C710 C696 1.377 . S
C710 C709 1.373 . S
C711 C695 1.377 . S
C711 C709 1.389 . S
C711 C712 1.524 . S
C712 C711 1.524 . S
C712 C713 1.397 . S
C712 C717 1.363 . S
C713 H684 0.950 . S
C713 C712 1.397 . S
C713 C714 1.334 . S
C714 H685 0.950 . S
C714 C713 1.334 . S
C714 C715 1.287 . S
C715 C714 1.287 . S
C715 C716 1.524 . S
C715 H718 0.999 . S
C716 H686 0.950 . S
C716 C715 1.524 . S
C716 C717 1.415 . S
C717 H687 0.950 . S
C717 C712 1.363 . S
C717 C716 1.415 . S
H718 C715 0.999 . S
H719 C700 0.913 . S
H720 C738 0.951 . S
H721 C740 0.951 . S
H722 C742 0.950 . S
H723 C743 0.950 . S
H724 C745 0.950 . S
H725 C748 0.950 . S
H726 C749 0.950 . S
H727 C751 0.950 . S
H728 C752 0.950 . S
H729 C753 0.951 . S
H730 C755 0.951 . S
H731 C757 0.950 . S
H732 C758 0.950 . S
H733 C760 0.950 . S
H734 C763 0.950 . S
H735 C764 0.950 . S
H736 C766 0.950 . S
H737 C767 0.950 . S
C738 H720 0.951 . S
C738 C739 1.366 . S
C738 C740 1.388 . S
C739 C738 1.366 . S
C739 C743 1.385 . S
C740 H721 0.951 . S
C740 C738 1.388 . S
C740 C741 1.366 . S
C741 C740 1.366 . S
C741 C742 1.414 . S
C741 C744 1.499 . S
C742 H722 0.950 . S
C742 C741 1.414 . S
C742 C743 1.374 . S
C743 H723 0.950 . S
C743 C739 1.385 . S
C743 C742 1.374 . S
C744 C741 1.499 . S
C744 C745 1.373 . S
C744 C746 1.389 . S
C745 H724 0.950 . S
C745 C744 1.373 . S
C745 C761 1.377 . S
C746 C744 1.389 . S
C746 C747 1.524 . S
C746 C760 1.377 . S
C747 C746 1.524 . S
C747 C748 1.397 . S
C747 C752 1.363 . S
C748 H725 0.950 . S
C748 C747 1.397 . S
C748 C749 1.334 . S
C749 H726 0.950 . S
C749 C748 1.334 . S
C749 C750 1.287 . S
C750 C749 1.287 . S
C750 C751 1.524 . S
C750 H769 0.913 . S
C751 H727 0.950 . S
C751 C750 1.524 . S
C751 C752 1.415 . S
C752 H728 0.950 . S
C752 C747 1.363 . S
C752 C751 1.415 . S
C753 H729 0.951 . S
C753 C754 1.366 . S
C753 C755 1.388 . S
C754 C753 1.366 . S
C754 C758 1.385 . S
C755 H730 0.951 . S
C755 C753 1.388 . S
C755 C756 1.366 . S
C756 C755 1.366 . S
C756 C757 1.414 . S
C756 C759 1.499 . S
C757 H731 0.950 . S
C757 C756 1.414 . S
C757 C758 1.374 . S
C758 H732 0.950 . S
C758 C754 1.385 . S
C758 C757 1.374 . S
C759 C756 1.499 . S
C759 C760 1.373 . S
C759 C761 1.389 . S
C760 H733 0.950 . S
C760 C746 1.377 . S
C760 C759 1.373 . S
C761 C745 1.377 . S
C761 C759 1.389 . S
C761 C762 1.524 . S
C762 C761 1.524 . S
C762 C763 1.397 . S
C762 C767 1.363 . S
C763 H734 0.950 . S
C763 C762 1.397 . S
C763 C764 1.334 . S
C764 H735 0.950 . S
C764 C763 1.334 . S
C764 C765 1.287 . S
C765 C764 1.287 . S
C765 C766 1.524 . S
C765 H768 0.999 . S
C766 H736 0.950 . S
C766 C765 1.524 . S
C766 C767 1.415 . S
C767 H737 0.950 . S
C767 C762 1.363 . S
C767 C766 1.415 . S
H768 C765 0.999 . S
H769 C750 0.913 . S
H770 C788 0.951 . S
H771 C790 0.951 . S
H772 C792 0.950 . S
H773 C793 0.950 . S
H774 C795 0.950 . S
H775 C798 0.950 . S
H776 C799 0.950 . S
H777 C801 0.950 . S
H778 C802 0.950 . S
H779 C803 0.951 . S
H780 C805 0.951 . S
H781 C807 0.950 . S
H782 C808 0.950 . S
H783 C810 0.950 . S
H784 C813 0.950 . S
H785 C814 0.950 . S
H786 C816 0.950 . S
H787 C817 0.950 . S
C788 H770 0.951 . S
C788 C789 1.366 . S
C788 C790 1.388 . S
C789 C788 1.366 . S
C789 C793 1.385 . S
C790 H771 0.951 . S
C790 C788 1.388 . S
C790 C791 1.366 . S
C791 C790 1.366 . S
C791 C792 1.414 . S
C791 C794 1.499 . S
C792 H772 0.950 . S
C792 C791 1.414 . S
C792 C793 1.374 . S
C793 H773 0.950 . S
C793 C789 1.385 . S
C793 C792 1.374 . S
C794 C791 1.499 . S
C794 C795 1.373 . S
C794 C796 1.389 . S
C795 H774 0.950 . S
C795 C794 1.373 . S
C795 C811 1.377 . S
C796 C794 1.389 . S
C796 C797 1.524 . S
C796 C810 1.377 . S
C797 C796 1.524 . S
C797 C798 1.397 . S
C797 C802 1.363 . S
C798 H775 0.950 . S
C798 C797 1.397 . S
C798 C799 1.334 . S
C799 H776 0.950 . S
C799 C798 1.334 . S
C799 C800 1.287 . S
C800 C799 1.287 . S
C800 C801 1.524 . S
C800 H819 0.913 . S
C801 H777 0.950 . S
C801 C800 1.524 . S
C801 C802 1.415 . S
C802 H778 0.950 . S
C802 C797 1.363 . S
C802 C801 1.415 . S
C803 H779 0.951 . S
C803 C804 1.366 . S
C803 C805 1.388 . S
C804 C803 1.366 . S
C804 C808 1.385 . S
C805 H780 0.951 . S
C805 C803 1.388 . S
C805 C806 1.366 . S
C806 C805 1.366 . S
C806 C807 1.414 . S
C806 C809 1.499 . S
C807 H781 0.950 . S
C807 C806 1.414 . S
C807 C808 1.374 . S
C808 H782 0.950 . S
C808 C804 1.385 . S
C808 C807 1.374 . S
C809 C806 1.499 . S
C809 C810 1.373 . S
C809 C811 1.389 . S
C810 H783 0.950 . S
C810 C796 1.377 . S
C810 C809 1.373 . S
C811 C795 1.377 . S
C811 C809 1.389 . S
C811 C812 1.524 . S
C812 C811 1.524 . S
C812 C813 1.397 . S
C812 C817 1.363 . S
C813 H784 0.950 . S
C813 C812 1.397 . S
C813 C814 1.334 . S
C814 H785 0.950 . S
C814 C813 1.334 . S
C814 C815 1.287 . S
C815 C814 1.287 . S
C815 C816 1.524 . S
C815 H818 0.999 . S
C816 H786 0.950 . S
C816 C815 1.524 . S
C816 C817 1.415 . S
C817 H787 0.950 . S
C817 C812 1.363 . S
C817 C816 1.415 . S
H818 C815 0.999 . S
H819 C800 0.913 . S
H820 C838 0.951 . S
H821 C840 0.951 . S
H822 C842 0.950 . S
H823 C843 0.950 . S
H824 C845 0.950 . S
H825 C848 0.950 . S
H826 C849 0.950 . S
H827 C851 0.950 . S
H828 C852 0.950 . S
H829 C853 0.951 . S
H830 C855 0.951 . S
H831 C857 0.950 . S
H832 C858 0.950 . S
H833 C860 0.950 . S
H834 C863 0.950 . S
H835 C864 0.950 . S
H836 C866 0.950 1_455 S
H837 C867 0.950 . S
C838 H820 0.951 . S
C838 C839 1.366 . S
C838 C840 1.388 . S
C839 C838 1.366 . S
C839 C843 1.385 . S
C840 H821 0.951 . S
C840 C838 1.388 . S
C840 C841 1.366 . S
C841 C840 1.366 . S
C841 C842 1.414 . S
C841 C844 1.499 . S
C842 H822 0.950 . S
C842 C841 1.414 . S
C842 C843 1.374 . S
C843 H823 0.950 . S
C843 C839 1.385 . S
C843 C842 1.374 . S
C844 C841 1.499 . S
C844 C845 1.373 . S
C844 C846 1.389 . S
C845 H824 0.950 . S
C845 C844 1.373 . S
C845 C861 1.377 . S
C846 C844 1.389 . S
C846 C847 1.524 . S
C846 C860 1.377 . S
C847 C846 1.524 . S
C847 C848 1.397 . S
C847 C852 1.363 . S
C848 H825 0.950 . S
C848 C847 1.397 . S
C848 C849 1.334 . S
C849 H826 0.950 . S
C849 C848 1.334 . S
C849 C850 1.287 . S
C850 C849 1.287 . S
C850 C851 1.524 . S
C850 H869 0.913 . S
C851 H827 0.950 . S
C851 C850 1.524 . S
C851 C852 1.415 . S
C852 H828 0.950 . S
C852 C847 1.363 . S
C852 C851 1.415 . S
C853 H829 0.951 . S
C853 C854 1.366 . S
C853 C855 1.388 . S
C854 C853 1.366 . S
C854 C858 1.385 . S
C855 H830 0.951 . S
C855 C853 1.388 . S
C855 C856 1.366 . S
C856 C855 1.366 . S
C856 C857 1.414 . S
C856 C859 1.499 . S
C857 H831 0.950 . S
C857 C856 1.414 . S
C857 C858 1.374 . S
C858 H832 0.950 . S
C858 C854 1.385 . S
C858 C857 1.374 . S
C859 C856 1.499 . S
C859 C860 1.373 . S
C859 C861 1.389 . S
C860 H833 0.950 . S
C860 C846 1.377 . S
C860 C859 1.373 . S
C861 C845 1.377 . S
C861 C859 1.389 . S
C861 C862 1.524 . S
C862 C861 1.524 . S
C862 C863 1.397 . S
C862 C867 1.363 . S
C863 H834 0.950 . S
C863 C862 1.397 . S
C863 C864 1.334 . S
C864 H835 0.950 . S
C864 C863 1.334 . S
C864 C865 1.287 . S
C865 C864 1.287 . S
C865 C866 1.524 . S
C865 H868 0.999 1_655 S
C866 H836 0.950 1_655 S
C866 C865 1.524 . S
C866 C867 1.415 . S
C867 H837 0.950 . S
C867 C862 1.363 . S
C867 C866 1.415 . S
H868 C865 0.999 1_455 S
H869 C850 0.913 . S
H870 C888 0.951 . S
H871 C890 0.951 . S
H872 C892 0.950 . S
H873 C893 0.950 . S
H874 C895 0.950 . S
H875 C898 0.950 . S
H876 C899 0.950 . S
H877 C901 0.950 . S
H878 C902 0.950 . S
H879 C903 0.951 . S
H880 C905 0.951 . S
H881 C907 0.950 . S
H882 C908 0.950 . S
H883 C910 0.950 . S
H884 C913 0.950 . S
H885 C914 0.950 . S
H886 C916 0.950 . S
H887 C917 0.950 . S
C888 H870 0.951 . S
C888 C889 1.366 . S
C888 C890 1.388 . S
C889 C888 1.366 . S
C889 C893 1.385 . S
C890 H871 0.951 . S
C890 C888 1.388 . S
C890 C891 1.366 . S
C891 C890 1.366 . S
C891 C892 1.414 . S
C891 C894 1.499 . S
C892 H872 0.950 . S
C892 C891 1.414 . S
C892 C893 1.374 . S
C893 H873 0.950 . S
C893 C889 1.385 . S
C893 C892 1.374 . S
C894 C891 1.499 . S
C894 C895 1.373 . S
C894 C896 1.389 . S
C895 H874 0.950 . S
C895 C894 1.373 . S
C895 C911 1.377 . S
C896 C894 1.389 . S
C896 C897 1.524 . S
C896 C910 1.377 . S
C897 C896 1.524 . S
C897 C898 1.397 . S
C897 C902 1.363 . S
C898 H875 0.950 . S
C898 C897 1.397 . S
C898 C899 1.334 . S
C899 H876 0.950 . S
C899 C898 1.334 . S
C899 C900 1.287 . S
C900 C899 1.287 . S
C900 C901 1.524 . S
C900 H919 0.913 . S
C901 H877 0.950 . S
C901 C900 1.524 . S
C901 C902 1.415 . S
C902 H878 0.950 . S
C902 C897 1.363 . S
C902 C901 1.415 . S
C903 H879 0.951 . S
C903 C904 1.366 . S
C903 C905 1.388 . S
C904 C903 1.366 . S
C904 C908 1.385 . S
C905 H880 0.951 . S
C905 C903 1.388 . S
C905 C906 1.366 . S
C906 C905 1.366 . S
C906 C907 1.414 . S
C906 C909 1.499 . S
C907 H881 0.950 . S
C907 C906 1.414 . S
C907 C908 1.374 . S
C908 H882 0.950 . S
C908 C904 1.385 . S
C908 C907 1.374 . S
C909 C906 1.499 . S
C909 C910 1.373 . S
C909 C911 1.389 . S
C910 H883 0.950 . S
C910 C896 1.377 . S
C910 C909 1.373 . S
C911 C895 1.377 . S
C911 C909 1.389 . S
C911 C912 1.524 . S
C912 C911 1.524 . S
C912 C913 1.397 . S
C912 C917 1.363 . S
C913 H884 0.950 . S
C913 C912 1.397 . S
C913 C914 1.334 . S
C914 H885 0.950 . S
C914 C913 1.334 . S
C914 C915 1.287 . S
C915 C914 1.287 . S
C915 C916 1.524 . S
C915 H918 0.999 . S
C916 H886 0.950 . S
C916 C915 1.524 . S
C916 C917 1.415 . S
C917 H887 0.950 . S
C917 C912 1.363 . S
C917 C916 1.415 . S
H918 C915 0.999 . S
H919 C900 0.913 . S
H920 C938 0.951 . S
H921 C940 0.951 . S
H922 C942 0.950 . S
H923 C943 0.950 . S
H924 C945 0.950 . S
H925 C948 0.950 . S
H926 C949 0.950 . S
H927 C951 0.950 . S
H928 C952 0.950 . S
H929 C953 0.951 . S
H930 C955 0.951 . S
H931 C957 0.950 . S
H932 C958 0.950 . S
H933 C960 0.950 . S
H934 C963 0.950 . S
H935 C964 0.950 . S
H936 C966 0.950 . S
H937 C967 0.950 . S
C938 H920 0.951 . S
C938 C939 1.366 . S
C938 C940 1.388 . S
C939 C938 1.366 . S
C939 C943 1.385 . S
C940 H921 0.951 . S
C940 C938 1.388 . S
C940 C941 1.366 . S
C941 C940 1.366 . S
C941 C942 1.414 . S
C941 C944 1.499 . S
C942 H922 0.950 . S
C942 C941 1.414 . S
C942 C943 1.374 . S
C943 H923 0.950 . S
C943 C939 1.385 . S
C943 C942 1.374 . S
C944 C941 1.499 . S
C944 C945 1.373 . S
C944 C946 1.389 . S
C945 H924 0.950 . S
C945 C944 1.373 . S
C945 C961 1.377 . S
C946 C944 1.389 . S
C946 C947 1.524 . S
C946 C960 1.377 . S
C947 C946 1.524 . S
C947 C948 1.397 . S
C947 C952 1.363 . S
C948 H925 0.950 . S
C948 C947 1.397 . S
C948 C949 1.334 . S
C949 H926 0.950 . S
C949 C948 1.334 . S
C949 C950 1.287 . S
C950 C949 1.287 . S
C950 C951 1.524 . S
C950 H969 0.913 . S
C951 H927 0.950 . S
C951 C950 1.524 . S
C951 C952 1.415 . S
C952 H928 0.950 . S
C952 C947 1.363 . S
C952 C951 1.415 . S
C953 H929 0.951 . S
C953 C954 1.366 . S
C953 C955 1.388 . S
C954 C953 1.366 . S
C954 C958 1.385 . S
C955 H930 0.951 . S
C955 C953 1.388 . S
C955 C956 1.366 . S
C956 C955 1.366 . S
C956 C957 1.414 . S
C956 C959 1.499 . S
C957 H931 0.950 . S
C957 C956 1.414 . S
C957 C958 1.374 . S
C958 H932 0.950 . S
C958 C954 1.385 . S
C958 C957 1.374 . S
C959 C956 1.499 . S
C959 C960 1.373 . S
C959 C961 1.389 . S
C960 H933 0.950 . S
C960 C946 1.377 . S
C960 C959 1.373 . S
C961 C945 1.377 . S
C961 C959 1.389 . S
C961 C962 1.524 . S
C962 C961 1.524 . S
C962 C963 1.397 . S
C962 C967 1.363 . S
C963 H934 0.950 . S
C963 C962 1.397 . S
C963 C964 1.334 . S
C964 H935 0.950 . S
C964 C963 1.334 . S
C964 C965 1.287 . S
C965 C964 1.287 . S
C965 C966 1.524 . S
C965 H968 0.999 . S
C966 H936 0.950 . S
C966 C965 1.524 . S
C966 C967 1.415 . S
C967 H937 0.950 . S
C967 C962 1.363 . S
C967 C966 1.415 . S
H968 C965 0.999 . S
H969 C950 0.913 . S
H970 C988 0.951 . S
H971 C990 0.951 . S
H972 C992 0.950 . S
H973 C993 0.950 . S
H974 C995 0.950 . S
H975 C998 0.950 . S
H976 C999 0.950 . S
H977 C1001 0.950 . S
H978 C1002 0.950 . S
H979 C1003 0.951 . S
H980 C1005 0.951 . S
H981 C1007 0.950 . S
H982 C1008 0.950 . S
H983 C1010 0.950 . S
H984 C1013 0.950 . S
H985 C1014 0.950 . S
H986 C1016 0.950 . S
H987 C1017 0.950 . S
C988 H970 0.951 . S
C988 C989 1.366 . S
C988 C990 1.388 . S
C989 C988 1.366 . S
C989 C993 1.385 . S
C990 H971 0.951 . S
C990 C988 1.388 . S
C990 C991 1.366 . S
C991 C990 1.366 . S
C991 C992 1.414 . S
C991 C994 1.499 . S
C992 H972 0.950 . S
C992 C991 1.414 . S
C992 C993 1.374 . S
C993 H973 0.950 . S
C993 C989 1.385 . S
C993 C992 1.374 . S
C994 C991 1.499 . S
C994 C995 1.373 . S
C994 C996 1.389 . S
C995 H974 0.950 . S
C995 C994 1.373 . S
C995 C1011 1.377 . S
C996 C994 1.389 . S
C996 C997 1.524 . S
C996 C1010 1.377 . S
C997 C996 1.524 . S
C997 C998 1.397 . S
C997 C1002 1.363 . S
C998 H975 0.950 . S
C998 C997 1.397 . S
C998 C999 1.334 . S
C999 H976 0.950 . S
C999 C998 1.334 . S
C999 C1000 1.287 . S
C1000 C999 1.287 . S
C1000 C1001 1.524 . S
C1000 H1019 0.913 . S
C1001 H977 0.950 . S
C1001 C1000 1.524 . S
C1001 C1002 1.415 . S
C1002 H978 0.950 . S
C1002 C997 1.363 . S
C1002 C1001 1.415 . S
C1003 H979 0.951 . S
C1003 C1004 1.366 . S
C1003 C1005 1.388 . S
C1004 C1003 1.366 . S
C1004 C1008 1.385 . S
C1005 H980 0.951 . S
C1005 C1003 1.388 . S
C1005 C1006 1.366 . S
C1006 C1005 1.366 . S
C1006 C1007 1.414 . S
C1006 C1009 1.499 . S
C1007 H981 0.950 . S
C1007 C1006 1.414 . S
C1007 C1008 1.374 . S
C1008 H982 0.950 . S
C1008 C1004 1.385 . S
C1008 C1007 1.374 . S
C1009 C1006 1.499 . S
C1009 C1010 1.373 . S
C1009 C1011 1.389 . S
C1010 H983 0.950 . S
C1010 C996 1.377 . S
C1010 C1009 1.373 . S
C1011 C995 1.377 . S
C1011 C1009 1.389 . S
C1011 C1012 1.524 . S
C1012 C1011 1.524 . S
C1012 C1013 1.397 . S
C1012 C1017 1.363 . S
C1013 H984 0.950 . S
C1013 C1012 1.397 . S
C1013 C1014 1.334 . S
C1014 H985 0.950 . S
C1014 C1013 1.334 . S
C1014 C1015 1.287 . S
C1015 C1014 1.287 . S
C1015 C1016 1.524 . S
C1015 H1018 0.999 . S
C1016 H986 0.950 . S
C1016 C1015 1.524 . S
C1016 C1017 1.415 . S
C1017 H987 0.950 . S
C1017 C1012 1.363 . S
C1017 C1016 1.415 . S
H1018 C1015 0.999 . S
H1019 C1000 0.913 . S
H1020 C1038 0.951 . S
H1021 C1040 0.951 . S
H1022 C1042 0.950 . S
H1023 C1043 0.950 . S
H1024 C1045 0.950 . S
H1025 C1048 0.950 . S
H1026 C1049 0.950 . S
H1027 C1051 0.950 . S
H1028 C1052 0.950 . S
H1029 C1053 0.951 . S
H1030 C1055 0.951 . S
H1031 C1057 0.950 . S
H1032 C1058 0.950 . S
H1033 C1060 0.950 . S
H1034 C1063 0.950 . S
H1035 C1064 0.950 . S
H1036 C1066 0.950 . S
H1037 C1067 0.950 . S
C1038 H1020 0.951 . S
C1038 C1039 1.366 . S
C1038 C1040 1.388 . S
C1039 C1038 1.366 . S
C1039 C1043 1.385 . S
C1040 H1021 0.951 . S
C1040 C1038 1.388 . S
C1040 C1041 1.366 . S
C1041 C1040 1.366 . S
C1041 C1042 1.414 . S
C1041 C1044 1.499 . S
C1042 H1022 0.950 . S
C1042 C1041 1.414 . S
C1042 C1043 1.374 . S
C1043 H1023 0.950 . S
C1043 C1039 1.385 . S
C1043 C1042 1.374 . S
C1044 C1041 1.499 . S
C1044 C1045 1.373 . S
C1044 C1046 1.389 . S
C1045 H1024 0.950 . S
C1045 C1044 1.373 . S
C1045 C1061 1.377 . S
C1046 C1044 1.389 . S
C1046 C1047 1.524 . S
C1046 C1060 1.377 . S
C1047 C1046 1.524 . S
C1047 C1048 1.397 . S
C1047 C1052 1.363 . S
C1048 H1025 0.950 . S
C1048 C1047 1.397 . S
C1048 C1049 1.334 1_554 S
C1049 H1026 0.950 . S
C1049 C1048 1.334 1_556 S
C1049 C1050 1.287 . S
C1050 C1049 1.287 . S
C1050 C1051 1.524 . S
C1050 H1069 0.913 . S
C1051 H1027 0.950 . S
C1051 C1050 1.524 . S
C1051 C1052 1.415 1_556 S
C1052 H1028 0.950 . S
C1052 C1047 1.363 . S
C1052 C1051 1.415 1_554 S
C1053 H1029 0.951 . S
C1053 C1054 1.366 . S
C1053 C1055 1.388 . S
C1054 C1053 1.366 . S
C1054 C1058 1.385 . S
C1055 H1030 0.951 . S
C1055 C1053 1.388 . S
C1055 C1056 1.366 . S
C1056 C1055 1.366 . S
C1056 C1057 1.414 . S
C1056 C1059 1.499 . S
C1057 H1031 0.950 . S
C1057 C1056 1.414 . S
C1057 C1058 1.374 . S
C1058 H1032 0.950 . S
C1058 C1054 1.385 . S
C1058 C1057 1.374 . S
C1059 C1056 1.499 . S
C1059 C1060 1.373 . S
C1059 C1061 1.389 . S
C1060 H1033 0.950 . S
C1060 C1046 1.377 . S
C1060 C1059 1.373 . S
C1061 C1045 1.377 . S
C1061 C1059 1.389 . S
C1061 C1062 1.524 . S
C1062 C1061 1.524 . S
C1062 C1063 1.397 . S
C1062 C1067 1.363 . S
C1063 H1034 0.950 . S
C1063 C1062 1.397 . S
C1063 C1064 1.334 . S
C1064 H1035 0.950 . S
C1064 C1063 1.334 . S
C1064 C1065 1.287 . S
C1065 C1064 1.287 . S
C1065 C1066 1.524 . S
C1065 H1068 0.999 . S
C1066 H1036 0.950 . S
C1066 C1065 1.524 . S
C1066 C1067 1.415 . S
C1067 H1037 0.950 . S
C1067 C1062 1.363 . S
C1067 C1066 1.415 . S
H1068 C1065 0.999 . S
H1069 C1050 0.913 . S
H1070 C1088 0.951 . S
H1071 C1090 0.951 . S
H1072 C1092 0.950 . S
H1073 C1093 0.950 . S
H1074 C1095 0.950 . S
H1075 C1098 0.950 . S
H1076 C1099 0.950 . S
H1077 C1101 0.950 1_554 S
H1078 C1102 0.950 . S
H1079 C1103 0.951 . S
H1080 C1105 0.951 . S
H1081 C1107 0.950 . S
H1082 C1108 0.950 . S
H1083 C1110 0.950 . S
H1084 C1113 0.950 . S
H1085 C1114 0.950 . S
H1086 C1116 0.950 . S
H1087 C1117 0.950 . S
C1088 H1070 0.951 . S
C1088 C1089 1.366 . S
C1088 C1090 1.388 . S
C1089 C1088 1.366 . S
C1089 C1093 1.385 . S
C1090 H1071 0.951 . S
C1090 C1088 1.388 . S
C1090 C1091 1.366 . S
C1091 C1090 1.366 . S
C1091 C1092 1.414 . S
C1091 C1094 1.499 . S
C1092 H1072 0.950 . S
C1092 C1091 1.414 . S
C1092 C1093 1.374 . S
C1093 H1073 0.950 . S
C1093 C1089 1.385 . S
C1093 C1092 1.374 . S
C1094 C1091 1.499 . S
C1094 C1095 1.373 . S
C1094 C1096 1.389 . S
C1095 H1074 0.950 . S
C1095 C1094 1.373 . S
C1095 C1111 1.377 . S
C1096 C1094 1.389 . S
C1096 C1097 1.524 . S
C1096 C1110 1.377 . S
C1097 C1096 1.524 . S
C1097 C1098 1.397 . S
C1097 C1102 1.363 . S
C1098 H1075 0.950 . S
C1098 C1097 1.397 . S
C1098 C1099 1.334 . S
C1099 H1076 0.950 . S
C1099 C1098 1.334 . S
C1099 C1100 1.287 . S
C1100 C1099 1.287 . S
C1100 C1101 1.524 . S
C1100 H1119 0.913 . S
C1101 H1077 0.950 1_556 S
C1101 C1100 1.524 . S
C1101 C1102 1.415 . S
C1102 H1078 0.950 . S
C1102 C1097 1.363 . S
C1102 C1101 1.415 . S
C1103 H1079 0.951 . S
C1103 C1104 1.366 . S
C1103 C1105 1.388 . S
C1104 C1103 1.366 . S
C1104 C1108 1.385 . S
C1105 H1080 0.951 . S
C1105 C1103 1.388 . S
C1105 C1106 1.366 . S
C1106 C1105 1.366 . S
C1106 C1107 1.414 . S
C1106 C1109 1.499 . S
C1107 H1081 0.950 . S
C1107 C1106 1.414 . S
C1107 C1108 1.374 . S
C1108 H1082 0.950 . S
C1108 C1104 1.385 . S
C1108 C1107 1.374 . S
C1109 C1106 1.499 . S
C1109 C1110 1.373 . S
C1109 C1111 1.389 . S
C1110 H1083 0.950 . S
C1110 C1096 1.377 . S
C1110 C1109 1.373 . S
C1111 C1095 1.377 . S
C1111 C1109 1.389 . S
C1111 C1112 1.524 . S
C1112 C1111 1.524 . S
C1112 C1113 1.397 . S
C1112 C1117 1.363 . S
C1113 H1084 0.950 . S
C1113 C1112 1.397 . S
C1113 C1114 1.334 . S
C1114 H1085 0.950 . S
C1114 C1113 1.334 . S
C1114 C1115 1.287 . S
C1115 C1114 1.287 . S
C1115 C1116 1.524 . S
C1115 H1118 0.999 . S
C1116 H1086 0.950 . S
C1116 C1115 1.524 . S
C1116 C1117 1.415 . S
C1117 H1087 0.950 . S
C1117 C1112 1.363 . S
C1117 C1116 1.415 . S
H1118 C1115 0.999 . S
H1119 C1100 0.913 . S
H1120 C1138 0.951 . S
H1121 C1140 0.951 . S
H1122 C1142 0.950 . S
H1123 C1143 0.950 . S
H1124 C1145 0.950 . S
H1125 C1148 0.950 . S
H1126 C1149 0.950 . S
H1127 C1151 0.950 . S
H1128 C1152 0.950 . S
H1129 C1153 0.951 . S
H1130 C1155 0.951 . S
H1131 C1157 0.950 . S
H1132 C1158 0.950 . S
H1133 C1160 0.950 . S
H1134 C1163 0.950 . S
H1135 C1164 0.950 . S
H1136 C1166 0.950 . S
H1137 C1167 0.950 . S
C1138 H1120 0.951 . S
C1138 C1139 1.366 . S
C1138 C1140 1.388 . S
C1139 C1138 1.366 . S
C1139 C1143 1.385 . S
C1140 H1121 0.951 . S
C1140 C1138 1.388 . S
C1140 C1141 1.366 . S
C1141 C1140 1.366 . S
C1141 C1142 1.414 . S
C1141 C1144 1.499 . S
C1142 H1122 0.950 . S
C1142 C1141 1.414 . S
C1142 C1143 1.374 . S
C1143 H1123 0.950 . S
C1143 C1139 1.385 . S
C1143 C1142 1.374 . S
C1144 C1141 1.499 . S
C1144 C1145 1.373 . S
C1144 C1146 1.389 . S
C1145 H1124 0.950 . S
C1145 C1144 1.373 . S
C1145 C1161 1.377 . S
C1146 C1144 1.389 . S
C1146 C1147 1.524 . S
C1146 C1160 1.377 . S
C1147 C1146 1.524 . S
C1147 C1148 1.397 . S
C1147 C1152 1.363 . S
C1148 H1125 0.950 . S
C1148 C1147 1.397 . S
C1148 C1149 1.334 . S
C1149 H1126 0.950 . S
C1149 C1148 1.334 . S
C1149 C1150 1.287 . S
C1150 C1149 1.287 . S
C1150 C1151 1.524 . S
C1150 H1169 0.913 . S
C1151 H1127 0.950 . S
C1151 C1150 1.524 . S
C1151 C1152 1.415 . S
C1152 H1128 0.950 . S
C1152 C1147 1.363 . S
C1152 C1151 1.415 . S
C1153 H1129 0.951 . S
C1153 C1154 1.366 . S
C1153 C1155 1.388 . S
C1154 C1153 1.366 . S
C1154 C1158 1.385 . S
C1155 H1130 0.951 . S
C1155 C1153 1.388 . S
C1155 C1156 1.366 . S
C1156 C1155 1.366 . S
C1156 C1157 1.414 . S
C1156 C1159 1.499 . S
C1157 H1131 0.950 . S
C1157 C1156 1.414 . S
C1157 C1158 1.374 . S
C1158 H1132 0.950 . S
C1158 C1154 1.385 . S
C1158 C1157 1.374 . S
C1159 C1156 1.499 . S
C1159 C1160 1.373 . S
C1159 C1161 1.389 . S
C1160 H1133 0.950 . S
C1160 C1146 1.377 . S
C1160 C1159 1.373 . S
C1161 C1145 1.377 . S
C1161 C1159 1.389 . S
C1161 C1162 1.524 . S
C1162 C1161 1.524 . S
C1162 C1163 1.397 . S
C1162 C1167 1.363 . S
C1163 H1134 0.950 . S
C1163 C1162 1.397 . S
C1163 C1164 1.334 . S
C1164 H1135 0.950 . S
C1164 C1163 1.334 . S
C1164 C1165 1.287 . S
C1165 C1164 1.287 . S
C1165 C1166 1.524 . S
C1165 H1168 0.999 . S
C1166 H1136 0.950 . S
C1166 C1165 1.524 . S
C1166 C1167 1.415 . S
C1167 H1137 0.950 . S
C1167 C1162 1.363 . S
C1167 C1166 1.415 . S
H1168 C1165 0.999 . S
H1169 C1150 0.913 . S
H1170 C1188 0.951 . S
H1171 C1190 0.951 . S
H1172 C1192 0.950 . S
H1173 C1193 0.950 . S
H1174 C1195 0.950 . S
H1175 C1198 0.950 . S
H1176 C1199 0.950 . S
H1177 C1201 0.950 . S
H1178 C1202 0.950 . S
H1179 C1203 0.951 . S
H1180 C1205 0.951 . S
H1181 C1207 0.950 . S
H1182 C1208 0.950 . S
H1183 C1210 0.950 . S
H1184 C1213 0.950 . S
H1185 C1214 0.950 . S
H1186 C1216 0.950 . S
H1187 C1217 0.950 . S
C1188 H1170 0.951 . S
C1188 C1189 1.366 . S
C1188 C1190 1.388 . S
C1189 C1188 1.366 . S
C1189 C1193 1.385 . S
C1190 H1171 0.951 . S
C1190 C1188 1.388 . S
C1190 C1191 1.366 . S
C1191 C1190 1.366 . S
C1191 C1192 1.414 . S
C1191 C1194 1.499 . S
C1192 H1172 0.950 . S
C1192 C1191 1.414 . S
C1192 C1193 1.374 . S
C1193 H1173 0.950 . S
C1193 C1189 1.385 . S
C1193 C1192 1.374 . S
C1194 C1191 1.499 . S
C1194 C1195 1.373 . S
C1194 C1196 1.389 . S
C1195 H1174 0.950 . S
C1195 C1194 1.373 . S
C1195 C1211 1.377 . S
C1196 C1194 1.389 . S
C1196 C1197 1.524 . S
C1196 C1210 1.377 . S
C1197 C1196 1.524 . S
C1197 C1198 1.397 . S
C1197 C1202 1.363 . S
C1198 H1175 0.950 . S
C1198 C1197 1.397 . S
C1198 C1199 1.334 . S
C1199 H1176 0.950 . S
C1199 C1198 1.334 . S
C1199 C1200 1.287 . S
C1200 C1199 1.287 . S
C1200 C1201 1.524 . S
C1200 H1219 0.913 . S
C1201 H1177 0.950 . S
C1201 C1200 1.524 . S
C1201 C1202 1.415 . S
C1202 H1178 0.950 . S
C1202 C1197 1.363 . S
C1202 C1201 1.415 . S
C1203 H1179 0.951 . S
C1203 C1204 1.366 . S
C1203 C1205 1.388 . S
C1204 C1203 1.366 . S
C1204 C1208 1.385 . S
C1205 H1180 0.951 . S
C1205 C1203 1.388 . S
C1205 C1206 1.366 . S
C1206 C1205 1.366 . S
C1206 C1207 1.414 . S
C1206 C1209 1.499 . S
C1207 H1181 0.950 . S
C1207 C1206 1.414 . S
C1207 C1208 1.374 . S
C1208 H1182 0.950 . S
C1208 C1204 1.385 . S
C1208 C1207 1.374 . S
C1209 C1206 1.499 . S
C1209 C1210 1.373 . S
C1209 C1211 1.389 . S
C1210 H1183 0.950 . S
C1210 C1196 1.377 . S
C1210 C1209 1.373 . S
C1211 C1195 1.377 . S
C1211 C1209 1.389 . S
C1211 C1212 1.524 . S
C1212 C1211 1.524 . S
C1212 C1213 1.397 . S
C1212 C1217 1.363 . S
C1213 H1184 0.950 . S
C1213 C1212 1.397 . S
C1213 C1214 1.334 . S
C1214 H1185 0.950 . S
C1214 C1213 1.334 . S
C1214 C1215 1.287 . S
C1215 C1214 1.287 . S
C1215 C1216 1.524 . S
C1215 H1218 0.999 . S
C1216 H1186 0.950 . S
C1216 C1215 1.524 . S
C1216 C1217 1.415 . S
C1217 H1187 0.950 . S
C1217 C1212 1.363 . S
C1217 C1216 1.415 . S
H1218 C1215 0.999 . S
H1219 C1200 0.913 . S
H1220 C1238 0.951 . S
H1221 C1240 0.951 . S
H1222 C1242 0.950 . S
H1223 C1243 0.950 . S
H1224 C1245 0.950 . S
H1225 C1248 0.950 . S
H1226 C1249 0.950 . S
H1227 C1251 0.950 . S
H1228 C1252 0.950 . S
H1229 C1253 0.951 . S
H1230 C1255 0.951 . S
H1231 C1257 0.950 . S
H1232 C1258 0.950 . S
H1233 C1260 0.950 . S
H1234 C1263 0.950 . S
H1235 C1264 0.950 . S
H1236 C1266 0.950 . S
H1237 C1267 0.950 . S
C1238 H1220 0.951 . S
C1238 C1239 1.366 . S
C1238 C1240 1.388 . S
C1239 C1238 1.366 . S
C1239 C1243 1.385 . S
C1240 H1221 0.951 . S
C1240 C1238 1.388 . S
C1240 C1241 1.366 . S
C1241 C1240 1.366 . S
C1241 C1242 1.414 . S
C1241 C1244 1.499 . S
C1242 H1222 0.950 . S
C1242 C1241 1.414 . S
C1242 C1243 1.374 . S
C1243 H1223 0.950 . S
C1243 C1239 1.385 . S
C1243 C1242 1.374 . S
C1244 C1241 1.499 . S
C1244 C1245 1.373 . S
C1244 C1246 1.389 . S
C1245 H1224 0.950 . S
C1245 C1244 1.373 . S
C1245 C1261 1.377 . S
C1246 C1244 1.389 . S
C1246 C1247 1.524 . S
C1246 C1260 1.377 . S
C1247 C1246 1.524 . S
C1247 C1248 1.397 . S
C1247 C1252 1.363 . S
C1248 H1225 0.950 . S
C1248 C1247 1.397 . S
C1248 C1249 1.334 . S
C1249 H1226 0.950 . S
C1249 C1248 1.334 . S
C1249 C1250 1.287 . S
C1250 C1249 1.287 . S
C1250 C1251 1.524 . S
C1250 H1269 0.913 . S
C1251 H1227 0.950 . S
C1251 C1250 1.524 . S
C1251 C1252 1.415 . S
C1252 H1228 0.950 . S
C1252 C1247 1.363 . S
C1252 C1251 1.415 . S
C1253 H1229 0.951 . S
C1253 C1254 1.366 . S
C1253 C1255 1.388 . S
C1254 C1253 1.366 . S
C1254 C1258 1.385 . S
C1255 H1230 0.951 . S
C1255 C1253 1.388 . S
C1255 C1256 1.366 . S
C1256 C1255 1.366 . S
C1256 C1257 1.414 . S
C1256 C1259 1.499 . S
C1257 H1231 0.950 . S
C1257 C1256 1.414 . S
C1257 C1258 1.374 . S
C1258 H1232 0.950 . S
C1258 C1254 1.385 . S
C1258 C1257 1.374 . S
C1259 C1256 1.499 . S
C1259 C1260 1.373 . S
C1259 C1261 1.389 . S
C1260 H1233 0.950 . S
C1260 C1246 1.377 . S
C1260 C1259 1.373 . S
C1261 C1245 1.377 . S
C1261 C1259 1.389 . S
C1261 C1262 1.524 . S
C1262 C1261 1.524 . S
C1262 C1263 1.397 . S
C1262 C1267 1.363 . S
C1263 H1234 0.950 . S
C1263 C1262 1.397 . S
C1263 C1264 1.334 . S
C1264 H1235 0.950 . S
C1264 C1263 1.334 . S
C1264 C1265 1.287 . S
C1265 C1264 1.287 . S
C1265 C1266 1.524 . S
C1265 H1268 0.999 . S
C1266 H1236 0.950 . S
C1266 C1265 1.524 . S
C1266 C1267 1.415 . S
C1267 H1237 0.950 . S
C1267 C1262 1.363 . S
C1267 C1266 1.415 . S
H1268 C1265 0.999 . S
H1269 C1250 0.913 . S
H1270 C1288 0.951 . S
H1271 C1290 0.951 . S
H1272 C1292 0.950 . S
H1273 C1293 0.950 . S
H1274 C1295 0.950 . S
H1275 C1298 0.950 . S
H1276 C1299 0.950 . S
H1277 C1301 0.950 . S
H1278 C1302 0.950 . S
H1279 C1303 0.951 . S
H1280 C1305 0.951 . S
H1281 C1307 0.950 . S
H1282 C1308 0.950 . S
H1283 C1310 0.950 . S
H1284 C1313 0.950 . S
H1285 C1314 0.950 . S
H1286 C1316 0.950 . S
H1287 C1317 0.950 . S
C1288 H1270 0.951 . S
C1288 C1289 1.366 . S
C1288 C1290 1.388 . S
C1289 C1288 1.366 . S
C1289 C1293 1.385 . S
C1290 H1271 0.951 . S
C1290 C1288 1.388 . S
C1290 C1291 1.366 . S
C1291 C1290 1.366 . S
C1291 C1292 1.414 . S
C1291 C1294 1.499 . S
C1292 H1272 0.950 . S
C1292 C1291 1.414 . S
C1292 C1293 1.374 . S
C1293 H1273 0.950 . S
C1293 C1289 1.385 . S
C1293 C1292 1.374 . S
C1294 C1291 1.499 . S
C1294 C1295 1.373 . S
C1294 C1296 1.389 . S
C1295 H1274 0.950 . S
C1295 C1294 1.373 . S
C1295 C1311 1.377 . S
C1296 C1294 1.389 . S
C1296 C1297 1.524 . S
C1296 C1310 1.377 . S
C1297 C1296 1.524 . S
C1297 C1298 1.397 . S
C1297 C1302 1.363 . S
C1298 H1275 0.950 . S
C1298 C1297 1.397 . S
C1298 C1299 1.334 . S
C1299 H1276 0.950 . S
C1299 C1298 1.334 . S
C1299 C1300 1.287 . S
C1300 C1299 1.287 . S
C1300 C1301 1.524 . S
C1300 H1319 0.913 . S
C1301 H1277 0.950 . S
C1301 C1300 1.524 . S
C1301 C1302 1.415 . S
C1302 H1278 0.950 . S
C1302 C1297 1.363 . S
C1302 C1301 1.415 . S
C1303 H1279 0.951 . S
C1303 C1304 1.366 . S
C1303 C1305 1.388 . S
C1304 C1303 1.366 . S
C1304 C1308 1.385 . S
C1305 H1280 0.951 . S
C1305 C1303 1.388 . S
C1305 C1306 1.366 . S
C1306 C1305 1.366 . S
C1306 C1307 1.414 . S
C1306 C1309 1.499 . S
C1307 H1281 0.950 . S
C1307 C1306 1.414 . S
C1307 C1308 1.374 . S
C1308 H1282 0.950 . S
C1308 C1304 1.385 . S
C1308 C1307 1.374 . S
C1309 C1306 1.499 . S
C1309 C1310 1.373 . S
C1309 C1311 1.389 . S
C1310 H1283 0.950 . S
C1310 C1296 1.377 . S
C1310 C1309 1.373 . S
C1311 C1295 1.377 . S
C1311 C1309 1.389 . S
C1311 C1312 1.524 . S
C1312 C1311 1.524 . S
C1312 C1313 1.397 . S
C1312 C1317 1.363 . S
C1313 H1284 0.950 . S
C1313 C1312 1.397 . S
C1313 C1314 1.334 . S
C1314 H1285 0.950 . S
C1314 C1313 1.334 . S
C1314 C1315 1.287 . S
C1315 C1314 1.287 . S
C1315 C1316 1.524 . S
C1315 H1318 0.999 . S
C1316 H1286 0.950 . S
C1316 C1315 1.524 . S
C1316 C1317 1.415 . S
C1317 H1287 0.950 . S
C1317 C1312 1.363 . S
C1317 C1316 1.415 . S
H1318 C1315 0.999 . S
H1319 C1300 0.913 . S
H1320 C1338 0.951 . S
H1321 C1340 0.951 . S
H1322 C1342 0.950 . S
H1323 C1343 0.950 . S
H1324 C1345 0.950 . S
H1325 C1348 0.950 . S
H1326 C1349 0.950 . S
H1327 C1351 0.950 . S
H1328 C1352 0.950 . S
H1329 C1353 0.951 . S
H1330 C1355 0.951 . S
H1331 C1357 0.950 . S
H1332 C1358 0.950 . S
H1333 C1360 0.950 . S
H1334 C1363 0.950 . S
H1335 C1364 0.950 1_554 S
H1336 C1366 0.950 . S
H1337 C1367 0.950 . S
C1338 H1320 0.951 . S
C1338 C1339 1.366 . S
C1338 C1340 1.388 . S
C1339 C1338 1.366 . S
C1339 C1343 1.385 . S
C1340 H1321 0.951 . S
C1340 C1338 1.388 . S
C1340 C1341 1.366 . S
C1341 C1340 1.366 . S
C1341 C1342 1.414 . S
C1341 C1344 1.499 . S
C1342 H1322 0.950 . S
C1342 C1341 1.414 . S
C1342 C1343 1.374 . S
C1343 H1323 0.950 . S
C1343 C1339 1.385 . S
C1343 C1342 1.374 . S
C1344 C1341 1.499 . S
C1344 C1345 1.373 . S
C1344 C1346 1.389 . S
C1345 H1324 0.950 . S
C1345 C1344 1.373 . S
C1345 C1361 1.377 . S
C1346 C1344 1.389 . S
C1346 C1347 1.524 . S
C1346 C1360 1.377 . S
C1347 C1346 1.524 . S
C1347 C1348 1.397 . S
C1347 C1352 1.363 . S
C1348 H1325 0.950 . S
C1348 C1347 1.397 . S
C1348 C1349 1.334 . S
C1349 H1326 0.950 . S
C1349 C1348 1.334 . S
C1349 C1350 1.287 . S
C1350 C1349 1.287 . S
C1350 C1351 1.524 . S
C1350 H1369 0.913 . S
C1351 H1327 0.950 . S
C1351 C1350 1.524 . S
C1351 C1352 1.415 . S
C1352 H1328 0.950 . S
C1352 C1347 1.363 . S
C1352 C1351 1.415 . S
C1353 H1329 0.951 . S
C1353 C1354 1.366 . S
C1353 C1355 1.388 . S
C1354 C1353 1.366 . S
C1354 C1358 1.385 . S
C1355 H1330 0.951 . S
C1355 C1353 1.388 . S
C1355 C1356 1.366 . S
C1356 C1355 1.366 . S
C1356 C1357 1.414 . S
C1356 C1359 1.499 . S
C1357 H1331 0.950 . S
C1357 C1356 1.414 . S
C1357 C1358 1.374 . S
C1358 H1332 0.950 . S
C1358 C1354 1.385 . S
C1358 C1357 1.374 . S
C1359 C1356 1.499 . S
C1359 C1360 1.373 . S
C1359 C1361 1.389 . S
C1360 H1333 0.950 . S
C1360 C1346 1.377 . S
C1360 C1359 1.373 . S
C1361 C1345 1.377 . S
C1361 C1359 1.389 . S
C1361 C1362 1.524 . S
C1362 C1361 1.524 . S
C1362 C1363 1.397 . S
C1362 C1367 1.363 . S
C1363 H1334 0.950 . S
C1363 C1362 1.397 . S
C1363 C1364 1.334 . S
C1364 H1335 0.950 1_556 S
C1364 C1363 1.334 . S
C1364 C1365 1.287 . S
C1365 C1364 1.287 . S
C1365 C1366 1.524 . S
C1365 H1368 0.999 . S
C1366 H1336 0.950 . S
C1366 C1365 1.524 . S
C1366 C1367 1.415 . S
C1367 H1337 0.950 . S
C1367 C1362 1.363 . S
C1367 C1366 1.415 . S
H1368 C1365 0.999 . S
H1369 C1350 0.913 . S
H1370 C1388 0.951 . S
H1371 C1390 0.951 . S
H1372 C1392 0.950 . S
H1373 C1393 0.950 . S
H1374 C1395 0.950 . S
H1375 C1398 0.950 . S
H1376 C1399 0.950 . S
H1377 C1401 0.950 . S
H1378 C1402 0.950 . S
H1379 C1403 0.951 . S
H1380 C1405 0.951 . S
H1381 C1407 0.950 . S
H1382 C1408 0.950 . S
H1383 C1410 0.950 . S
H1384 C1413 0.950 . S
H1385 C1414 0.950 . S
H1386 C1416 0.976 . S
H1387 C1417 0.950 . S
C1388 H1370 0.951 . S
C1388 C1389 1.366 . S
C1388 C1390 1.388 . S
C1389 C1388 1.366 . S
C1389 C1393 1.385 . S
C1390 H1371 0.951 . S
C1390 C1388 1.388 . S
C1390 C1391 1.366 . S
C1391 C1390 1.366 . S
C1391 C1392 1.414 . S
C1391 C1394 1.499 . S
C1392 H1372 0.950 . S
C1392 C1391 1.414 . S
C1392 C1393 1.374 . S
C1393 H1373 0.950 . S
C1393 C1389 1.385 . S
C1393 C1392 1.374 . S
C1394 C1391 1.499 . S
C1394 C1395 1.373 . S
C1394 C1396 1.389 . S
C1395 H1374 0.950 . S
C1395 C1394 1.373 . S
C1395 C1411 1.377 . S
C1396 C1394 1.389 . S
C1396 C1397 1.524 . S
C1396 C1410 1.377 . S
C1397 C1396 1.524 . S
C1397 C1398 1.397 . S
C1397 C1402 1.363 . S
C1398 H1375 0.950 . S
C1398 C1397 1.397 . S
C1398 C1399 1.334 . S
C1399 H1376 0.950 . S
C1399 C1398 1.334 . S
C1399 C1400 1.287 . S
C1400 C1399 1.287 . S
C1400 C1401 1.524 . S
C1400 H1419 0.913 . S
C1401 H1377 0.950 . S
C1401 C1400 1.524 . S
C1401 C1402 1.415 . S
C1402 H1378 0.950 . S
C1402 C1397 1.363 . S
C1402 C1401 1.415 . S
C1403 H1379 0.951 . S
C1403 C1404 1.366 . S
C1403 C1405 1.388 . S
C1404 C1403 1.366 . S
C1404 C1408 1.385 . S
C1405 H1380 0.951 . S
C1405 C1403 1.388 . S
C1405 C1406 1.366 . S
C1406 C1405 1.366 . S
C1406 C1407 1.414 . S
C1406 C1409 1.499 . S
C1407 H1381 0.950 . S
C1407 C1406 1.414 . S
C1407 C1408 1.374 . S
C1408 H1382 0.950 . S
C1408 C1404 1.385 . S
C1408 C1407 1.374 . S
C1409 C1406 1.499 . S
C1409 C1410 1.373 . S
C1409 C1411 1.389 . S
C1410 H1383 0.950 . S
C1410 C1396 1.377 . S
C1410 C1409 1.373 . S
C1411 C1395 1.377 . S
C1411 C1409 1.389 . S
C1411 C1412 1.524 . S
C1412 C1411 1.524 . S
C1412 C1413 1.397 . S
C1412 C1417 1.363 . S
C1413 H1384 0.950 . S
C1413 C1412 1.397 . S
C1413 C1414 1.334 . S
C1414 H1385 0.950 . S
C1414 C1413 1.334 . S
C1414 C1415 1.287 . S
C1415 C1414 1.287 . S
C1415 C1416 1.525 1_556 S
C1415 H1418 0.999 1_556 S
C1416 H1386 0.976 . S
C1416 C1415 1.525 1_554 S
C1416 C1417 1.384 1_554 S
C1417 H1387 0.950 . S
C1417 C1412 1.363 . S
C1417 C1416 1.384 1_556 S
H1418 C1415 0.999 1_554 S
H1419 C1400 0.913 . S
H1420 C1438 0.951 . S
H1421 C1440 0.951 . S
H1422 C1442 0.950 . S
H1423 C1443 0.950 . S
H1424 C1445 0.950 . S
H1425 C1448 0.950 . S
H1426 C1449 0.950 . S
H1427 C1451 0.950 . S
H1428 C1452 0.950 . S
H1429 C1453 0.951 . S
H1430 C1455 0.951 . S
H1431 C1457 0.950 . S
H1432 C1458 0.950 . S
H1433 C1460 0.950 . S
H1434 C1463 0.951 1_556 S
H1435 C1464 0.950 . S
H1436 C1466 0.950 . S
H1437 C1467 0.950 . S
C1438 H1420 0.951 . S
C1438 C1439 1.366 . S
C1438 C1440 1.388 . S
C1439 C1438 1.366 . S
C1439 C1443 1.385 . S
C1440 H1421 0.951 . S
C1440 C1438 1.388 . S
C1440 C1441 1.366 . S
C1441 C1440 1.366 . S
C1441 C1442 1.414 . S
C1441 C1444 1.499 . S
C1442 H1422 0.950 . S
C1442 C1441 1.414 . S
C1442 C1443 1.374 . S
C1443 H1423 0.950 . S
C1443 C1439 1.385 . S
C1443 C1442 1.374 . S
C1444 C1441 1.499 . S
C1444 C1445 1.373 . S
C1444 C1446 1.389 . S
C1445 H1424 0.950 . S
C1445 C1444 1.373 . S
C1445 C1461 1.377 . S
C1446 C1444 1.389 . S
C1446 C1447 1.524 . S
C1446 C1460 1.377 . S
C1447 C1446 1.524 . S
C1447 C1448 1.397 . S
C1447 C1452 1.363 . S
C1448 H1425 0.950 . S
C1448 C1447 1.397 . S
C1448 C1449 1.334 . S
C1449 H1426 0.950 . S
C1449 C1448 1.334 . S
C1449 C1450 1.287 . S
C1450 C1449 1.287 . S
C1450 C1451 1.524 . S
C1450 H1469 0.913 . S
C1451 H1427 0.950 . S
C1451 C1450 1.524 . S
C1451 C1452 1.415 . S
C1452 H1428 0.950 . S
C1452 C1447 1.363 . S
C1452 C1451 1.415 . S
C1453 H1429 0.951 . S
C1453 C1454 1.366 . S
C1453 C1455 1.388 . S
C1454 C1453 1.366 . S
C1454 C1458 1.385 . S
C1455 H1430 0.951 . S
C1455 C1453 1.388 . S
C1455 C1456 1.366 . S
C1456 C1455 1.366 . S
C1456 C1457 1.414 . S
C1456 C1459 1.499 . S
C1457 H1431 0.950 . S
C1457 C1456 1.414 . S
C1457 C1458 1.374 . S
C1458 H1432 0.950 . S
C1458 C1454 1.385 . S
C1458 C1457 1.374 . S
C1459 C1456 1.499 . S
C1459 C1460 1.373 . S
C1459 C1461 1.389 . S
C1460 H1433 0.950 . S
C1460 C1446 1.377 . S
C1460 C1459 1.373 . S
C1461 C1445 1.377 . S
C1461 C1459 1.389 . S
C1461 C1462 1.524 . S
C1462 C1461 1.524 . S
C1462 C1463 1.397 1_556 S
C1462 C1467 1.363 1_556 S
C1463 H1434 0.951 1_554 S
C1463 C1462 1.397 1_554 S
C1463 C1464 1.333 . S
C1464 H1435 0.950 . S
C1464 C1463 1.333 . S
C1464 C1465 1.287 . S
C1465 C1464 1.287 . S
C1465 C1466 1.524 . S
C1465 H1468 0.999 . S
C1466 H1436 0.950 . S
C1466 C1465 1.524 . S
C1466 C1467 1.415 . S
C1467 H1437 0.950 . S
C1467 C1462 1.363 1_554 S
C1467 C1466 1.415 . S
H1468 C1465 0.999 . S
H1469 C1450 0.913 . S
H1470 C1488 0.951 . S
H1471 C1490 0.951 . S
H1472 C1492 0.950 . S
H1473 C1493 0.950 . S
H1474 C1495 0.950 . S
H1475 C1498 0.950 . S
H1476 C1499 0.950 . S
H1477 C1501 0.950 . S
H1478 C1502 0.950 . S
H1479 C1503 0.951 . S
H1480 C1505 0.951 . S
H1481 C1507 0.950 . S
H1482 C1508 0.950 . S
H1483 C1510 0.950 . S
H1484 C1513 0.950 . S
H1485 C1514 0.950 . S
H1486 C1516 0.950 . S
H1487 C1517 0.950 . S
C1488 H1470 0.951 . S
C1488 C1489 1.366 . S
C1488 C1490 1.388 . S
C1489 C1488 1.366 . S
C1489 C1493 1.385 . S
C1490 H1471 0.951 . S
C1490 C1488 1.388 . S
C1490 C1491 1.366 . S
C1491 C1490 1.366 . S
C1491 C1492 1.414 . S
C1491 C1494 1.499 . S
C1492 H1472 0.950 . S
C1492 C1491 1.414 . S
C1492 C1493 1.374 . S
C1493 H1473 0.950 . S
C1493 C1489 1.385 . S
C1493 C1492 1.374 . S
C1494 C1491 1.499 . S
C1494 C1495 1.373 . S
C1494 C1496 1.389 . S
C1495 H1474 0.950 . S
C1495 C1494 1.373 . S
C1495 C1511 1.377 . S
C1496 C1494 1.389 . S
C1496 C1497 1.524 . S
C1496 C1510 1.377 . S
C1497 C1496 1.524 . S
C1497 C1498 1.397 . S
C1497 C1502 1.363 . S
C1498 H1475 0.950 . S
C1498 C1497 1.397 . S
C1498 C1499 1.334 . S
C1499 H1476 0.950 . S
C1499 C1498 1.334 . S
C1499 C1500 1.287 . S
C1500 C1499 1.287 . S
C1500 C1501 1.524 . S
C1500 H1519 0.913 . S
C1501 H1477 0.950 . S
C1501 C1500 1.524 . S
C1501 C1502 1.415 . S
C1502 H1478 0.950 . S
C1502 C1497 1.363 . S
C1502 C1501 1.415 . S
C1503 H1479 0.951 . S
C1503 C1504 1.366 . S
C1503 C1505 1.388 . S
C1504 C1503 1.366 . S
C1504 C1508 1.385 . S
C1505 H1480 0.951 . S
C1505 C1503 1.388 . S
C1505 C1506 1.366 . S
C1506 C1505 1.366 . S
C1506 C1507 1.414 . S
C1506 C1509 1.499 . S
C1507 H1481 0.950 . S
C1507 C1506 1.414 . S
C1507 C1508 1.374 . S
C1508 H1482 0.950 . S
C1508 C1504 1.385 . S
C1508 C1507 1.374 . S
C1509 C1506 1.499 . S
C1509 C1510 1.373 . S
C1509 C1511 1.389 . S
C1510 H1483 0.950 . S
C1510 C1496 1.377 . S
C1510 C1509 1.373 . S
C1511 C1495 1.377 . S
C1511 C1509 1.389 . S
C1511 C1512 1.524 . S
C1512 C1511 1.524 . S
C1512 C1513 1.397 . S
C1512 C1517 1.363 . S
C1513 H1484 0.950 . S
C1513 C1512 1.397 . S
C1513 C1514 1.334 . S
C1514 H1485 0.950 . S
C1514 C1513 1.334 . S
C1514 C1515 1.287 . S
C1515 C1514 1.287 . S
C1515 C1516 1.524 . S
C1515 H1518 0.999 . S
C1516 H1486 0.950 . S
C1516 C1515 1.524 . S
C1516 C1517 1.415 . S
C1517 H1487 0.950 . S
C1517 C1512 1.363 . S
C1517 C1516 1.415 . S
H1518 C1515 0.999 . S
H1519 C1500 0.913 . S
H1520 C1538 0.951 . S
H1521 C1540 0.951 . S
H1522 C1542 0.950 . S
H1523 C1543 0.950 . S
H1524 C1545 0.950 . S
H1525 C1548 0.950 . S
H1526 C1549 0.950 . S
H1527 C1551 0.950 . S
H1528 C1552 0.950 . S
H1529 C1553 0.951 . S
H1530 C1555 0.951 . S
H1531 C1557 0.950 . S
H1532 C1558 0.950 . S
H1533 C1560 0.950 . S
H1534 C1563 0.950 . S
H1535 C1564 0.950 . S
H1536 C1566 0.949 . S
H1537 C1567 0.950 . S
C1538 H1520 0.951 . S
C1538 C1539 1.366 . S
C1538 C1540 1.388 . S
C1539 C1538 1.366 . S
C1539 C1543 1.385 . S
C1540 H1521 0.951 . S
C1540 C1538 1.388 . S
C1540 C1541 1.366 . S
C1541 C1540 1.366 . S
C1541 C1542 1.414 . S
C1541 C1544 1.499 . S
C1542 H1522 0.950 . S
C1542 C1541 1.414 . S
C1542 C1543 1.374 . S
C1543 H1523 0.950 . S
C1543 C1539 1.385 . S
C1543 C1542 1.374 . S
C1544 C1541 1.499 . S
C1544 C1545 1.373 . S
C1544 C1546 1.389 . S
C1545 H1524 0.950 . S
C1545 C1544 1.373 . S
C1545 C1561 1.377 . S
C1546 C1544 1.389 . S
C1546 C1547 1.524 . S
C1546 C1560 1.377 . S
C1547 C1546 1.524 . S
C1547 C1548 1.397 . S
C1547 C1552 1.363 . S
C1548 H1525 0.950 . S
C1548 C1547 1.397 . S
C1548 C1549 1.334 . S
C1549 H1526 0.950 . S
C1549 C1548 1.334 . S
C1549 C1550 1.287 . S
C1550 C1549 1.287 . S
C1550 C1551 1.524 . S
C1550 H1569 0.913 . S
C1551 H1527 0.950 . S
C1551 C1550 1.524 . S
C1551 C1552 1.415 . S
C1552 H1528 0.950 . S
C1552 C1547 1.363 . S
C1552 C1551 1.415 . S
C1553 H1529 0.951 . S
C1553 C1554 1.366 . S
C1553 C1555 1.388 . S
C1554 C1553 1.366 . S
C1554 C1558 1.385 . S
C1555 H1530 0.951 . S
C1555 C1553 1.388 . S
C1555 C1556 1.366 . S
C1556 C1555 1.366 . S
C1556 C1557 1.414 . S
C1556 C1559 1.499 . S
C1557 H1531 0.950 . S
C1557 C1556 1.414 . S
C1557 C1558 1.374 . S
C1558 H1532 0.950 . S
C1558 C1554 1.385 . S
C1558 C1557 1.374 . S
C1559 C1556 1.499 . S
C1559 C1560 1.373 . S
C1559 C1561 1.389 . S
C1560 H1533 0.950 . S
C1560 C1546 1.377 . S
C1560 C1559 1.373 . S
C1561 C1545 1.377 . S
C1561 C1559 1.389 . S
C1561 C1562 1.524 . S
C1562 C1561 1.524 . S
C1562 C1563 1.397 . S
C1562 C1567 1.363 . S
C1563 H1534 0.950 . S
C1563 C1562 1.397 . S
C1563 C1564 1.334 1_554 S
C1564 H1535 0.950 . S
C1564 C1563 1.334 1_556 S
C1564 C1565 1.287 . S
C1565 C1564 1.287 . S
C1565 C1566 1.524 1_556 S
C1565 H1568 0.999 . S
C1566 H1536 0.949 . S
C1566 C1565 1.524 1_554 S
C1566 C1567 1.415 . S
C1567 H1537 0.950 . S
C1567 C1562 1.363 . S
C1567 C1566 1.415 . S
H1568 C1565 0.999 . S
H1569 C1550 0.913 . S
H1570 C1588 0.951 . S
H1571 C1590 0.951 . S
H1572 C1592 0.950 . S
H1573 C1593 0.950 . S
H1574 C1595 0.950 . S
H1575 C1598 0.950 . S
H1576 C1599 0.950 . S
H1577 C1601 0.950 . S
H1578 C1602 0.950 . S
H1579 C1603 0.951 . S
H1580 C1605 0.951 . S
H1581 C1607 0.950 . S
H1582 C1608 0.950 . S
H1583 C1610 0.950 . S
H1584 C1613 0.950 . S
H1585 C1614 0.950 . S
H1586 C1616 0.950 . S
H1587 C1617 0.950 . S
C1588 H1570 0.951 . S
C1588 C1589 1.366 . S
C1588 C1590 1.388 . S
C1589 C1588 1.366 . S
C1589 C1593 1.385 . S
C1590 H1571 0.951 . S
C1590 C1588 1.388 . S
C1590 C1591 1.366 . S
C1591 C1590 1.366 . S
C1591 C1592 1.414 . S
C1591 C1594 1.499 . S
C1592 H1572 0.950 . S
C1592 C1591 1.414 . S
C1592 C1593 1.374 . S
C1593 H1573 0.950 . S
C1593 C1589 1.385 . S
C1593 C1592 1.374 . S
C1594 C1591 1.499 . S
C1594 C1595 1.373 . S
C1594 C1596 1.389 . S
C1595 H1574 0.950 . S
C1595 C1594 1.373 . S
C1595 C1611 1.377 . S
C1596 C1594 1.389 . S
C1596 C1597 1.524 . S
C1596 C1610 1.377 . S
C1597 C1596 1.524 . S
C1597 C1598 1.397 . S
C1597 C1602 1.363 . S
C1598 H1575 0.950 . S
C1598 C1597 1.397 . S
C1598 C1599 1.334 . S
C1599 H1576 0.950 . S
C1599 C1598 1.334 . S
C1599 C1600 1.287 . S
C1600 C1599 1.287 . S
C1600 C1601 1.524 . S
C1600 H1619 0.913 . S
C1601 H1577 0.950 . S
C1601 C1600 1.524 . S
C1601 C1602 1.415 . S
C1602 H1578 0.950 . S
C1602 C1597 1.363 . S
C1602 C1601 1.415 . S
C1603 H1579 0.951 . S
C1603 C1604 1.366 . S
C1603 C1605 1.388 . S
C1604 C1603 1.366 . S
C1604 C1608 1.385 . S
C1605 H1580 0.951 . S
C1605 C1603 1.388 . S
C1605 C1606 1.366 . S
C1606 C1605 1.366 . S
C1606 C1607 1.414 . S
C1606 C1609 1.499 . S
C1607 H1581 0.950 . S
C1607 C1606 1.414 . S
C1607 C1608 1.374 . S
C1608 H1582 0.950 . S
C1608 C1604 1.385 . S
C1608 C1607 1.374 . S
C1609 C1606 1.499 . S
C1609 C1610 1.373 . S
C1609 C1611 1.389 . S
C1610 H1583 0.950 . S
C1610 C1596 1.377 . S
C1610 C1609 1.373 . S
C1611 C1595 1.377 . S
C1611 C1609 1.389 . S
C1611 C1612 1.524 . S
C1612 C1611 1.524 . S
C1612 C1613 1.397 . S
C1612 C1617 1.363 . S
C1613 H1584 0.950 . S
C1613 C1612 1.397 . S
C1613 C1614 1.334 1_554 S
C1614 H1585 0.950 . S
C1614 C1613 1.334 1_556 S
C1614 C1615 1.287 . S
C1615 C1614 1.287 . S
C1615 C1616 1.524 . S
C1615 H1618 0.999 . S
C1616 H1586 0.950 . S
C1616 C1615 1.524 . S
C1616 C1617 1.415 1_556 S
C1617 H1587 0.950 . S
C1617 C1612 1.363 . S
C1617 C1616 1.415 1_554 S
H1618 C1615 0.999 . S
H1619 C1600 0.913 . S
H1620 C1638 0.951 . S
H1621 C1640 0.951 . S
H1622 C1642 0.950 . S
H1623 C1643 0.950 . S
H1624 C1645 0.950 . S
H1625 C1648 0.950 . S
H1626 C1649 0.950 . S
H1627 C1651 0.950 . S
H1628 C1652 0.950 . S
H1629 C1653 0.951 . S
H1630 C1655 0.951 . S
H1631 C1657 0.950 . S
H1632 C1658 0.950 . S
H1633 C1660 0.950 . S
H1634 C1663 0.950 . S
H1635 C1664 0.950 . S
H1636 C1666 0.950 . S
H1637 C1667 0.950 . S
C1638 H1620 0.951 . S
C1638 C1639 1.366 . S
C1638 C1640 1.388 . S
C1639 C1638 1.366 . S
C1639 C1643 1.385 . S
C1640 H1621 0.951 . S
C1640 C1638 1.388 . S
C1640 C1641 1.366 . S
C1641 C1640 1.366 . S
C1641 C1642 1.414 . S
C1641 C1644 1.499 . S
C1642 H1622 0.950 . S
C1642 C1641 1.414 . S
C1642 C1643 1.374 . S
C1643 H1623 0.950 . S
C1643 C1639 1.385 . S
C1643 C1642 1.374 . S
C1644 C1641 1.499 . S
C1644 C1645 1.373 . S
C1644 C1646 1.389 . S
C1645 H1624 0.950 . S
C1645 C1644 1.373 . S
C1645 C1661 1.377 . S
C1646 C1644 1.389 . S
C1646 C1647 1.524 . S
C1646 C1660 1.377 . S
C1647 C1646 1.524 . S
C1647 C1648 1.397 . S
C1647 C1652 1.363 . S
C1648 H1625 0.950 . S
C1648 C1647 1.397 . S
C1648 C1649 1.334 . S
C1649 H1626 0.950 . S
C1649 C1648 1.334 . S
C1649 C1650 1.287 . S
C1650 C1649 1.287 . S
C1650 C1651 1.524 . S
C1650 H1669 0.913 . S
C1651 H1627 0.950 . S
C1651 C1650 1.524 . S
C1651 C1652 1.415 . S
C1652 H1628 0.950 . S
C1652 C1647 1.363 . S
C1652 C1651 1.415 . S
C1653 H1629 0.951 . S
C1653 C1654 1.366 . S
C1653 C1655 1.388 . S
C1654 C1653 1.366 . S
C1654 C1658 1.385 . S
C1655 H1630 0.951 . S
C1655 C1653 1.388 . S
C1655 C1656 1.366 . S
C1656 C1655 1.366 . S
C1656 C1657 1.414 . S
C1656 C1659 1.499 . S
C1657 H1631 0.950 . S
C1657 C1656 1.414 . S
C1657 C1658 1.374 . S
C1658 H1632 0.950 . S
C1658 C1654 1.385 . S
C1658 C1657 1.374 . S
C1659 C1656 1.499 . S
C1659 C1660 1.373 . S
C1659 C1661 1.389 . S
C1660 H1633 0.950 . S
C1660 C1646 1.377 . S
C1660 C1659 1.373 . S
C1661 C1645 1.377 . S
C1661 C1659 1.389 . S
C1661 C1662 1.524 . S
C1662 C1661 1.524 . S
C1662 C1663 1.397 . S
C1662 C1667 1.363 . S
C1663 H1634 0.950 . S
C1663 C1662 1.397 . S
C1663 C1664 1.334 1_554 S
C1664 H1635 0.950 . S
C1664 C1663 1.334 1_556 S
C1664 C1665 1.287 . S
C1665 C1664 1.287 . S
C1665 C1666 1.524 1_556 S
C1665 H1668 0.999 . S
C1666 H1636 0.950 . S
C1666 C1665 1.524 1_554 S
C1666 C1667 1.415 . S
C1667 H1637 0.950 . S
C1667 C1662 1.363 . S
C1667 C1666 1.415 . S
H1668 C1665 0.999 . S
H1669 C1650 0.913 . S
H1670 C1688 0.951 . S
H1671 C1690 0.951 . S
H1672 C1692 0.950 . S
H1673 C1693 0.950 . S
H1674 C1695 0.950 . S
H1675 C1698 0.950 . S
H1676 C1699 0.950 . S
H1677 C1701 0.950 . S
H1678 C1702 0.950 . S
H1679 C1703 0.951 . S
H1680 C1705 0.951 . S
H1681 C1707 0.950 . S
H1682 C1708 0.950 . S
H1683 C1710 0.950 . S
H1684 C1713 0.950 . S
H1685 C1714 0.950 . S
H1686 C1716 0.950 . S
H1687 C1717 0.950 . S
C1688 H1670 0.951 . S
C1688 C1689 1.366 . S
C1688 C1690 1.388 . S
C1689 C1688 1.366 . S
C1689 C1693 1.385 . S
C1690 H1671 0.951 . S
C1690 C1688 1.388 . S
C1690 C1691 1.366 . S
C1691 C1690 1.366 . S
C1691 C1692 1.414 . S
C1691 C1694 1.499 . S
C1692 H1672 0.950 . S
C1692 C1691 1.414 . S
C1692 C1693 1.374 . S
C1693 H1673 0.950 . S
C1693 C1689 1.385 . S
C1693 C1692 1.374 . S
C1694 C1691 1.499 . S
C1694 C1695 1.373 . S
C1694 C1696 1.389 . S
C1695 H1674 0.950 . S
C1695 C1694 1.373 . S
C1695 C1711 1.377 . S
C1696 C1694 1.389 . S
C1696 C1697 1.524 . S
C1696 C1710 1.377 . S
C1697 C1696 1.524 . S
C1697 C1698 1.397 . S
C1697 C1702 1.363 . S
C1698 H1675 0.950 . S
C1698 C1697 1.397 . S
C1698 C1699 1.334 . S
C1699 H1676 0.950 . S
C1699 C1698 1.334 . S
C1699 C1700 1.287 . S
C1700 C1699 1.287 . S
C1700 C1701 1.524 . S
C1700 H1719 0.913 . S
C1701 H1677 0.950 . S
C1701 C1700 1.524 . S
C1701 C1702 1.415 . S
C1702 H1678 0.950 . S
C1702 C1697 1.363 . S
C1702 C1701 1.415 . S
C1703 H1679 0.951 . S
C1703 C1704 1.366 . S
C1703 C1705 1.388 . S
C1704 C1703 1.366 . S
C1704 C1708 1.385 . S
C1705 H1680 0.951 . S
C1705 C1703 1.388 . S
C1705 C1706 1.366 . S
C1706 C1705 1.366 . S
C1706 C1707 1.414 . S
C1706 C1709 1.499 . S
C1707 H1681 0.950 . S
C1707 C1706 1.414 . S
C1707 C1708 1.374 . S
C1708 H1682 0.950 . S
C1708 C1704 1.385 . S
C1708 C1707 1.374 . S
C1709 C1706 1.499 . S
C1709 C1710 1.373 . S
C1709 C1711 1.389 . S
C1710 H1683 0.950 . S
C1710 C1696 1.377 . S
C1710 C1709 1.373 . S
C1711 C1695 1.377 . S
C1711 C1709 1.389 . S
C1711 C1712 1.524 . S
C1712 C1711 1.524 . S
C1712 C1713 1.397 . S
C1712 C1717 1.363 . S
C1713 H1684 0.950 . S
C1713 C1712 1.397 . S
C1713 C1714 1.334 1_556 S
C1714 H1685 0.950 . S
C1714 C1713 1.334 1_554 S
C1714 C1715 1.287 . S
C1715 C1714 1.287 . S
C1715 C1716 1.524 1_554 S
C1715 H1718 0.999 . S
C1716 H1686 0.950 . S
C1716 C1715 1.524 1_556 S
C1716 C1717 1.415 . S
C1717 H1687 0.950 . S
C1717 C1712 1.363 . S
C1717 C1716 1.415 . S
H1718 C1715 0.999 . S
H1719 C1700 0.913 . S
H1720 C1738 0.951 . S
H1721 C1740 0.951 . S
H1722 C1742 0.950 . S
H1723 C1743 0.950 . S
H1724 C1745 0.950 . S
H1725 C1748 0.950 . S
H1726 C1749 0.950 . S
H1727 C1751 0.950 . S
H1728 C1752 0.950 . S
H1729 C1753 0.951 . S
H1730 C1755 0.951 . S
H1731 C1757 0.950 . S
H1732 C1758 0.950 . S
H1733 C1760 0.950 . S
H1734 C1763 0.950 . S
H1735 C1764 0.950 . S
H1736 C1766 0.950 . S
H1737 C1767 0.950 . S
C1738 H1720 0.951 . S
C1738 C1739 1.366 . S
C1738 C1740 1.388 . S
C1739 C1738 1.366 . S
C1739 C1743 1.385 . S
C1740 H1721 0.951 . S
C1740 C1738 1.388 . S
C1740 C1741 1.366 . S
C1741 C1740 1.366 . S
C1741 C1742 1.414 . S
C1741 C1744 1.499 . S
C1742 H1722 0.950 . S
C1742 C1741 1.414 . S
C1742 C1743 1.374 . S
C1743 H1723 0.950 . S
C1743 C1739 1.385 . S
C1743 C1742 1.374 . S
C1744 C1741 1.499 . S
C1744 C1745 1.373 . S
C1744 C1746 1.389 . S
C1745 H1724 0.950 . S
C1745 C1744 1.373 . S
C1745 C1761 1.377 . S
C1746 C1744 1.389 . S
C1746 C1747 1.524 . S
C1746 C1760 1.377 . S
C1747 C1746 1.524 . S
C1747 C1748 1.397 . S
C1747 C1752 1.363 . S
C1748 H1725 0.950 . S
C1748 C1747 1.397 . S
C1748 C1749 1.334 . S
C1749 H1726 0.950 . S
C1749 C1748 1.334 . S
C1749 C1750 1.287 . S
C1750 C1749 1.287 . S
C1750 C1751 1.524 . S
C1750 H1769 0.913 . S
C1751 H1727 0.950 . S
C1751 C1750 1.524 . S
C1751 C1752 1.415 . S
C1752 H1728 0.950 . S
C1752 C1747 1.363 . S
C1752 C1751 1.415 . S
C1753 H1729 0.951 . S
C1753 C1754 1.366 . S
C1753 C1755 1.388 . S
C1754 C1753 1.366 . S
C1754 C1758 1.385 . S
C1755 H1730 0.951 . S
C1755 C1753 1.388 . S
C1755 C1756 1.366 . S
C1756 C1755 1.366 . S
C1756 C1757 1.414 . S
C1756 C1759 1.499 . S
C1757 H1731 0.950 . S
C1757 C1756 1.414 . S
C1757 C1758 1.374 . S
C1758 H1732 0.950 . S
C1758 C1754 1.385 . S
C1758 C1757 1.374 . S
C1759 C1756 1.499 . S
C1759 C1760 1.373 . S
C1759 C1761 1.389 . S
C1760 H1733 0.950 . S
C1760 C1746 1.377 . S
C1760 C1759 1.373 . S
C1761 C1745 1.377 . S
C1761 C1759 1.389 . S
C1761 C1762 1.524 . S
C1762 C1761 1.524 . S
C1762 C1763 1.397 . S
C1762 C1767 1.363 . S
C1763 H1734 0.950 . S
C1763 C1762 1.397 . S
C1763 C1764 1.334 . S
C1764 H1735 0.950 . S
C1764 C1763 1.334 . S
C1764 C1765 1.287 . S
C1765 C1764 1.287 . S
C1765 C1766 1.524 . S
C1765 H1768 0.999 . S
C1766 H1736 0.950 . S
C1766 C1765 1.524 . S
C1766 C1767 1.415 . S
C1767 H1737 0.950 . S
C1767 C1762 1.363 . S
C1767 C1766 1.415 . S
H1768 C1765 0.999 . S
H1769 C1750 0.913 . S
H1770 C1788 0.951 . S
H1771 C1790 0.951 . S
H1772 C1792 0.950 . S
H1773 C1793 0.950 . S
H1774 C1795 0.950 . S
H1775 C1798 0.950 . S
H1776 C1799 0.950 . S
H1777 C1801 0.950 . S
H1778 C1802 0.950 . S
H1779 C1803 0.951 . S
H1780 C1805 0.951 . S
H1781 C1807 0.950 . S
H1782 C1808 0.950 . S
H1783 C1810 0.950 . S
H1784 C1813 0.950 . S
H1785 C1814 0.950 . S
H1786 C1816 0.950 1_554 S
H1787 C1817 0.950 . S
C1788 H1770 0.951 . S
C1788 C1789 1.366 . S
C1788 C1790 1.388 . S
C1789 C1788 1.366 . S
C1789 C1793 1.385 . S
C1790 H1771 0.951 . S
C1790 C1788 1.388 . S
C1790 C1791 1.366 . S
C1791 C1790 1.366 . S
C1791 C1792 1.414 . S
C1791 C1794 1.499 . S
C1792 H1772 0.950 . S
C1792 C1791 1.414 . S
C1792 C1793 1.374 . S
C1793 H1773 0.950 . S
C1793 C1789 1.385 . S
C1793 C1792 1.374 . S
C1794 C1791 1.499 . S
C1794 C1795 1.373 . S
C1794 C1796 1.389 . S
C1795 H1774 0.950 . S
C1795 C1794 1.373 . S
C1795 C1811 1.377 . S
C1796 C1794 1.389 . S
C1796 C1797 1.524 . S
C1796 C1810 1.377 . S
C1797 C1796 1.524 . S
C1797 C1798 1.397 . S
C1797 C1802 1.363 . S
C1798 H1775 0.950 . S
C1798 C1797 1.397 . S
C1798 C1799 1.334 . S
C1799 H1776 0.950 . S
C1799 C1798 1.334 . S
C1799 C1800 1.287 . S
C1800 C1799 1.287 . S
C1800 C1801 1.524 . S
C1800 H1819 0.913 . S
C1801 H1777 0.950 . S
C1801 C1800 1.524 . S
C1801 C1802 1.415 . S
C1802 H1778 0.950 . S
C1802 C1797 1.363 . S
C1802 C1801 1.415 . S
C1803 H1779 0.951 . S
C1803 C1804 1.366 . S
C1803 C1805 1.388 . S
C1804 C1803 1.366 . S
C1804 C1808 1.385 . S
C1805 H1780 0.951 . S
C1805 C1803 1.388 . S
C1805 C1806 1.366 . S
C1806 C1805 1.366 . S
C1806 C1807 1.414 . S
C1806 C1809 1.499 . S
C1807 H1781 0.950 . S
C1807 C1806 1.414 . S
C1807 C1808 1.374 . S
C1808 H1782 0.950 . S
C1808 C1804 1.385 . S
C1808 C1807 1.374 . S
C1809 C1806 1.499 . S
C1809 C1810 1.373 . S
C1809 C1811 1.389 . S
C1810 H1783 0.950 . S
C1810 C1796 1.377 . S
C1810 C1809 1.373 . S
C1811 C1795 1.377 . S
C1811 C1809 1.389 . S
C1811 C1812 1.524 . S
C1812 C1811 1.524 . S
C1812 C1813 1.397 . S
C1812 C1817 1.363 . S
C1813 H1784 0.950 . S
C1813 C1812 1.397 . S
C1813 C1814 1.334 1_556 S
C1814 H1785 0.950 . S
C1814 C1813 1.334 1_554 S
C1814 C1815 1.287 . S
C1815 C1814 1.287 . S
C1815 C1816 1.524 1_554 S
C1815 H1818 0.999 . S
C1816 H1786 0.950 1_556 S
C1816 C1815 1.524 1_556 S
C1816 C1817 1.415 . S
C1817 H1787 0.950 . S
C1817 C1812 1.363 . S
C1817 C1816 1.415 . S
H1818 C1815 0.999 . S
H1819 C1800 0.913 . S
H1820 C1838 0.951 . S
H1821 C1840 0.951 . S
H1822 C1842 0.950 . S
H1823 C1843 0.950 . S
H1824 C1845 0.950 . S
H1825 C1848 0.950 . S
H1826 C1849 0.950 . S
H1827 C1851 0.950 . S
H1828 C1852 0.950 . S
H1829 C1853 0.951 . S
H1830 C1855 0.951 . S
H1831 C1857 0.950 . S
H1832 C1858 0.950 . S
H1833 C1860 0.950 . S
H1834 C1863 0.950 . S
H1835 C1864 0.950 . S
H1836 C1866 0.950 . S
H1837 C1867 0.950 . S
C1838 H1820 0.951 . S
C1838 C1839 1.366 . S
C1838 C1840 1.388 . S
C1839 C1838 1.366 . S
C1839 C1843 1.385 . S
C1840 H1821 0.951 . S
C1840 C1838 1.388 . S
C1840 C1841 1.366 . S
C1841 C1840 1.366 . S
C1841 C1842 1.414 . S
C1841 C1844 1.499 . S
C1842 H1822 0.950 . S
C1842 C1841 1.414 . S
C1842 C1843 1.374 . S
C1843 H1823 0.950 . S
C1843 C1839 1.385 . S
C1843 C1842 1.374 . S
C1844 C1841 1.499 . S
C1844 C1845 1.373 . S
C1844 C1846 1.389 . S
C1845 H1824 0.950 . S
C1845 C1844 1.373 . S
C1845 C1861 1.377 . S
C1846 C1844 1.389 . S
C1846 C1847 1.524 . S
C1846 C1860 1.377 . S
C1847 C1846 1.524 . S
C1847 C1848 1.397 . S
C1847 C1852 1.363 . S
C1848 H1825 0.950 . S
C1848 C1847 1.397 . S
C1848 C1849 1.334 . S
C1849 H1826 0.950 . S
C1849 C1848 1.334 . S
C1849 C1850 1.287 . S
C1850 C1849 1.287 . S
C1850 C1851 1.524 . S
C1850 H1869 0.913 . S
C1851 H1827 0.950 . S
C1851 C1850 1.524 . S
C1851 C1852 1.415 . S
C1852 H1828 0.950 . S
C1852 C1847 1.363 . S
C1852 C1851 1.415 . S
C1853 H1829 0.951 . S
C1853 C1854 1.366 . S
C1853 C1855 1.388 . S
C1854 C1853 1.366 . S
C1854 C1858 1.385 . S
C1855 H1830 0.951 . S
C1855 C1853 1.388 . S
C1855 C1856 1.366 . S
C1856 C1855 1.366 . S
C1856 C1857 1.414 . S
C1856 C1859 1.499 . S
C1857 H1831 0.950 . S
C1857 C1856 1.414 . S
C1857 C1858 1.374 . S
C1858 H1832 0.950 . S
C1858 C1854 1.385 . S
C1858 C1857 1.374 . S
C1859 C1856 1.499 . S
C1859 C1860 1.373 . S
C1859 C1861 1.389 . S
C1860 H1833 0.950 . S
C1860 C1846 1.377 . S
C1860 C1859 1.373 . S
C1861 C1845 1.377 . S
C1861 C1859 1.389 . S
C1861 C1862 1.524 . S
C1862 C1861 1.524 . S
C1862 C1863 1.397 . S
C1862 C1867 1.363 . S
C1863 H1834 0.950 . S
C1863 C1862 1.397 . S
C1863 C1864 1.334 . S
C1864 H1835 0.950 . S
C1864 C1863 1.334 . S
C1864 C1865 1.287 . S
C1865 C1864 1.287 . S
C1865 C1866 1.524 . S
C1865 H1868 0.999 . S
C1866 H1836 0.950 . S
C1866 C1865 1.524 . S
C1866 C1867 1.415 . S
C1867 H1837 0.950 . S
C1867 C1862 1.363 . S
C1867 C1866 1.415 . S
H1868 C1865 0.999 . S
H1869 C1850 0.913 . S
H1870 C1888 0.951 . S
H1871 C1890 0.951 . S
H1872 C1892 0.950 . S
H1873 C1893 0.950 . S
H1874 C1895 0.950 . S
H1875 C1898 0.950 . S
H1876 C1899 0.950 . S
H1877 C1901 0.950 . S
H1878 C1902 0.950 . S
H1879 C1903 0.951 . S
H1880 C1905 0.951 . S
H1881 C1907 0.950 . S
H1882 C1908 0.950 . S
H1883 C1910 0.950 . S
H1884 C1913 0.950 . S
H1885 C1914 0.950 . S
H1886 C1916 0.950 . S
H1887 C1917 0.950 . S
C1888 H1870 0.951 . S
C1888 C1889 1.366 . S
C1888 C1890 1.388 . S
C1889 C1888 1.366 . S
C1889 C1893 1.385 . S
C1890 H1871 0.951 . S
C1890 C1888 1.388 . S
C1890 C1891 1.366 . S
C1891 C1890 1.366 . S
C1891 C1892 1.414 . S
C1891 C1894 1.499 . S
C1892 H1872 0.950 . S
C1892 C1891 1.414 . S
C1892 C1893 1.374 . S
C1893 H1873 0.950 . S
C1893 C1889 1.385 . S
C1893 C1892 1.374 . S
C1894 C1891 1.499 . S
C1894 C1895 1.373 . S
C1894 C1896 1.389 . S
C1895 H1874 0.950 . S
C1895 C1894 1.373 . S
C1895 C1911 1.377 . S
C1896 C1894 1.389 . S
C1896 C1897 1.524 . S
C1896 C1910 1.377 . S
C1897 C1896 1.524 . S
C1897 C1898 1.397 . S
C1897 C1902 1.363 . S
C1898 H1875 0.950 . S
C1898 C1897 1.397 . S
C1898 C1899 1.334 . S
C1899 H1876 0.950 . S
C1899 C1898 1.334 . S
C1899 C1900 1.287 . S
C1900 C1899 1.287 . S
C1900 C1901 1.524 . S
C1900 H1919 0.913 . S
C1901 H1877 0.950 . S
C1901 C1900 1.524 . S
C1901 C1902 1.415 . S
C1902 H1878 0.950 . S
C1902 C1897 1.363 . S
C1902 C1901 1.415 . S
C1903 H1879 0.951 . S
C1903 C1904 1.366 . S
C1903 C1905 1.388 . S
C1904 C1903 1.366 . S
C1904 C1908 1.385 . S
C1905 H1880 0.951 . S
C1905 C1903 1.388 . S
C1905 C1906 1.366 . S
C1906 C1905 1.366 . S
C1906 C1907 1.414 . S
C1906 C1909 1.499 . S
C1907 H1881 0.950 . S
C1907 C1906 1.414 . S
C1907 C1908 1.374 . S
C1908 H1882 0.950 . S
C1908 C1904 1.385 . S
C1908 C1907 1.374 . S
C1909 C1906 1.499 . S
C1909 C1910 1.373 . S
C1909 C1911 1.389 . S
C1910 H1883 0.950 . S
C1910 C1896 1.377 . S
C1910 C1909 1.373 . S
C1911 C1895 1.377 . S
C1911 C1909 1.389 . S
C1911 C1912 1.524 . S
C1912 C1911 1.524 . S
C1912 C1913 1.397 . S
C1912 C1917 1.363 . S
C1913 H1884 0.950 . S
C1913 C1912 1.397 . S
C1913 C1914 1.334 . S
C1914 H1885 0.950 . S
C1914 C1913 1.334 . S
C1914 C1915 1.287 . S
C1915 C1914 1.287 . S
C1915 C1916 1.524 . S
C1915 H1918 0.999 . S
C1916 H1886 0.950 . S
C1916 C1915 1.524 . S
C1916 C1917 1.415 . S
C1917 H1887 0.950 . S
C1917 C1912 1.363 . S
C1917 C1916 1.415 . S
H1918 C1915 0.999 . S
H1919 C1900 0.913 . S
H1920 C1938 0.951 . S
H1921 C1940 0.951 . S
H1922 C1942 0.950 . S
H1923 C1943 0.950 . S
H1924 C1945 0.950 . S
H1925 C1948 0.950 . S
H1926 C1949 0.950 . S
H1927 C1951 0.950 . S
H1928 C1952 0.950 . S
H1929 C1953 0.951 . S
H1930 C1955 0.951 . S
H1931 C1957 0.950 . S
H1932 C1958 0.950 . S
H1933 C1960 0.950 . S
H1934 C1963 0.950 . S
H1935 C1964 0.950 1_556 S
H1936 C1966 0.950 . S
H1937 C1967 0.950 . S
C1938 H1920 0.951 . S
C1938 C1939 1.366 . S
C1938 C1940 1.388 . S
C1939 C1938 1.366 . S
C1939 C1943 1.385 . S
C1940 H1921 0.951 . S
C1940 C1938 1.388 . S
C1940 C1941 1.366 . S
C1941 C1940 1.366 . S
C1941 C1942 1.414 . S
C1941 C1944 1.499 . S
C1942 H1922 0.950 . S
C1942 C1941 1.414 . S
C1942 C1943 1.374 . S
C1943 H1923 0.950 . S
C1943 C1939 1.385 . S
C1943 C1942 1.374 . S
C1944 C1941 1.499 . S
C1944 C1945 1.373 . S
C1944 C1946 1.389 . S
C1945 H1924 0.950 . S
C1945 C1944 1.373 . S
C1945 C1961 1.377 . S
C1946 C1944 1.389 . S
C1946 C1947 1.524 . S
C1946 C1960 1.377 . S
C1947 C1946 1.524 . S
C1947 C1948 1.397 . S
C1947 C1952 1.363 . S
C1948 H1925 0.950 . S
C1948 C1947 1.397 . S
C1948 C1949 1.334 . S
C1949 H1926 0.950 . S
C1949 C1948 1.334 . S
C1949 C1950 1.287 . S
C1950 C1949 1.287 . S
C1950 C1951 1.524 . S
C1950 H1969 0.913 . S
C1951 H1927 0.950 . S
C1951 C1950 1.524 . S
C1951 C1952 1.415 . S
C1952 H1928 0.950 . S
C1952 C1947 1.363 . S
C1952 C1951 1.415 . S
C1953 H1929 0.951 . S
C1953 C1954 1.366 . S
C1953 C1955 1.388 . S
C1954 C1953 1.366 . S
C1954 C1958 1.385 . S
C1955 H1930 0.951 . S
C1955 C1953 1.388 . S
C1955 C1956 1.366 . S
C1956 C1955 1.366 . S
C1956 C1957 1.414 . S
C1956 C1959 1.499 . S
C1957 H1931 0.950 . S
C1957 C1956 1.414 . S
C1957 C1958 1.374 . S
C1958 H1932 0.950 . S
C1958 C1954 1.385 . S
C1958 C1957 1.374 . S
C1959 C1956 1.499 . S
C1959 C1960 1.373 . S
C1959 C1961 1.389 . S
C1960 H1933 0.950 . S
C1960 C1946 1.377 . S
C1960 C1959 1.373 . S
C1961 C1945 1.377 . S
C1961 C1959 1.389 . S
C1961 C1962 1.524 . S
C1962 C1961 1.524 . S
C1962 C1963 1.397 . S
C1962 C1967 1.363 . S
C1963 H1934 0.950 . S
C1963 C1962 1.397 . S
C1963 C1964 1.334 . S
C1964 H1935 0.950 1_554 S
C1964 C1963 1.334 . S
C1964 C1965 1.287 1_554 S
C1965 C1964 1.287 1_556 S
C1965 C1966 1.524 . S
C1965 H1968 0.999 . S
C1966 H1936 0.950 . S
C1966 C1965 1.524 . S
C1966 C1967 1.415 1_556 S
C1967 H1937 0.950 . S
C1967 C1962 1.363 . S
C1967 C1966 1.415 1_554 S
H1968 C1965 0.999 . S
H1969 C1950 0.913 . S
H1970 C1988 0.951 . S
H1971 C1990 0.951 . S
H1972 C1992 0.950 . S
H1973 C1993 0.950 . S
H1974 C1995 0.950 . S
H1975 C1998 0.950 . S
H1976 C1999 0.950 . S
H1977 C2001 0.950 . S
H1978 C2002 0.950 . S
H1979 C2003 0.951 . S
H1980 C2005 0.951 . S
H1981 C2007 0.950 . S
H1982 C2008 0.950 . S
H1983 C2010 0.950 . S
H1984 C2013 0.950 . S
H1985 C2014 0.950 . S
H1986 C2016 0.950 . S
H1987 C2017 0.950 . S
C1988 H1970 0.951 . S
C1988 C1989 1.366 . S
C1988 C1990 1.388 . S
C1989 C1988 1.366 . S
C1989 C1993 1.385 . S
C1990 H1971 0.951 . S
C1990 C1988 1.388 . S
C1990 C1991 1.366 . S
C1991 C1990 1.366 . S
C1991 C1992 1.414 . S
C1991 C1994 1.499 . S
C1992 H1972 0.950 . S
C1992 C1991 1.414 . S
C1992 C1993 1.374 . S
C1993 H1973 0.950 . S
C1993 C1989 1.385 . S
C1993 C1992 1.374 . S
C1994 C1991 1.499 . S
C1994 C1995 1.373 . S
C1994 C1996 1.389 . S
C1995 H1974 0.950 . S
C1995 C1994 1.373 . S
C1995 C2011 1.377 . S
C1996 C1994 1.389 . S
C1996 C1997 1.524 . S
C1996 C2010 1.377 . S
C1997 C1996 1.524 . S
C1997 C1998 1.397 . S
C1997 C2002 1.363 . S
C1998 H1975 0.950 . S
C1998 C1997 1.397 . S
C1998 C1999 1.334 . S
C1999 H1976 0.950 . S
C1999 C1998 1.334 . S
C1999 C2000 1.287 . S
C2000 C1999 1.287 . S
C2000 C2001 1.524 . S
C2000 H2019 0.913 . S
C2001 H1977 0.950 . S
C2001 C2000 1.524 . S
C2001 C2002 1.415 . S
C2002 H1978 0.950 . S
C2002 C1997 1.363 . S
C2002 C2001 1.415 . S
C2003 H1979 0.951 . S
C2003 C2004 1.366 . S
C2003 C2005 1.388 . S
C2004 C2003 1.366 . S
C2004 C2008 1.385 . S
C2005 H1980 0.951 . S
C2005 C2003 1.388 . S
C2005 C2006 1.366 . S
C2006 C2005 1.366 . S
C2006 C2007 1.414 . S
C2006 C2009 1.499 . S
C2007 H1981 0.950 . S
C2007 C2006 1.414 . S
C2007 C2008 1.374 . S
C2008 H1982 0.950 . S
C2008 C2004 1.385 . S
C2008 C2007 1.374 . S
C2009 C2006 1.499 . S
C2009 C2010 1.373 . S
C2009 C2011 1.389 . S
C2010 H1983 0.950 . S
C2010 C1996 1.377 . S
C2010 C2009 1.373 . S
C2011 C1995 1.377 . S
C2011 C2009 1.389 . S
C2011 C2012 1.524 . S
C2012 C2011 1.524 . S
C2012 C2013 1.397 . S
C2012 C2017 1.363 . S
C2013 H1984 0.950 . S
C2013 C2012 1.397 . S
C2013 C2014 1.334 . S
C2014 H1985 0.950 . S
C2014 C2013 1.334 . S
C2014 C2015 1.287 . S
C2015 C2014 1.287 . S
C2015 C2016 1.524 . S
C2015 H2018 0.999 . S
C2016 H1986 0.950 . S
C2016 C2015 1.524 . S
C2016 C2017 1.415 . S
C2017 H1987 0.950 . S
C2017 C2012 1.363 . S
C2017 C2016 1.415 . S
H2018 C2015 0.999 . S
H2019 C2000 0.913 . S
H2020 C2038 0.951 . S
H2021 C2040 0.951 . S
H2022 C2042 0.950 . S
H2023 C2043 0.950 . S
H2024 C2045 0.950 . S
H2025 C2048 0.950 . S
H2026 C2049 0.950 . S
H2027 C2051 0.950 . S
H2028 C2052 0.950 . S
H2029 C2053 0.951 . S
H2030 C2055 0.951 . S
H2031 C2057 0.950 . S
H2032 C2058 0.950 . S
H2033 C2060 0.950 . S
H2034 C2063 0.950 . S
H2035 C2064 0.950 . S
H2036 C2066 0.950 . S
H2037 C2067 0.950 . S
C2038 H2020 0.951 . S
C2038 C2039 1.366 . S
C2038 C2040 1.388 . S
C2039 C2038 1.366 . S
C2039 C2043 1.385 . S
C2040 H2021 0.951 . S
C2040 C2038 1.388 . S
C2040 C2041 1.366 . S
C2041 C2040 1.366 . S
C2041 C2042 1.414 . S
C2041 C2044 1.499 . S
C2042 H2022 0.950 . S
C2042 C2041 1.414 . S
C2042 C2043 1.374 . S
C2043 H2023 0.950 . S
C2043 C2039 1.385 . S
C2043 C2042 1.374 . S
C2044 C2041 1.499 . S
C2044 C2045 1.373 . S
C2044 C2046 1.389 . S
C2045 H2024 0.950 . S
C2045 C2044 1.373 . S
C2045 C2061 1.377 . S
C2046 C2044 1.389 . S
C2046 C2047 1.524 . S
C2046 C2060 1.377 . S
C2047 C2046 1.524 . S
C2047 C2048 1.397 . S
C2047 C2052 1.363 . S
C2048 H2025 0.950 . S
C2048 C2047 1.397 . S
C2048 C2049 1.334 . S
C2049 H2026 0.950 . S
C2049 C2048 1.334 . S
C2049 C2050 1.287 . S
C2050 C2049 1.287 . S
C2050 C2051 1.524 . S
C2050 H2069 0.913 . S
C2051 H2027 0.950 . S
C2051 C2050 1.524 . S
C2051 C2052 1.415 . S
C2052 H2028 0.950 . S
C2052 C2047 1.363 . S
C2052 C2051 1.415 . S
C2053 H2029 0.951 . S
C2053 C2054 1.366 . S
C2053 C2055 1.388 . S
C2054 C2053 1.366 . S
C2054 C2058 1.385 . S
C2055 H2030 0.951 . S
C2055 C2053 1.388 . S
C2055 C2056 1.366 . S
C2056 C2055 1.366 . S
C2056 C2057 1.414 . S
C2056 C2059 1.499 . S
C2057 H2031 0.950 . S
C2057 C2056 1.414 . S
C2057 C2058 1.374 . S
C2058 H2032 0.950 . S
C2058 C2054 1.385 . S
C2058 C2057 1.374 . S
C2059 C2056 1.499 . S
C2059 C2060 1.373 . S
C2059 C2061 1.389 . S
C2060 H2033 0.950 . S
C2060 C2046 1.377 . S
C2060 C2059 1.373 . S
C2061 C2045 1.377 . S
C2061 C2059 1.389 . S
C2061 C2062 1.524 . S
C2062 C2061 1.524 . S
C2062 C2063 1.397 . S
C2062 C2067 1.363 . S
C2063 H2034 0.950 . S
C2063 C2062 1.397 . S
C2063 C2064 1.334 . S
C2064 H2035 0.950 . S
C2064 C2063 1.334 . S
C2064 C2065 1.287 . S
C2065 C2064 1.287 . S
C2065 C2066 1.524 . S
C2065 H2068 0.999 . S
C2066 H2036 0.950 . S
C2066 C2065 1.524 . S
C2066 C2067 1.415 . S
C2067 H2037 0.950 . S
C2067 C2062 1.363 . S
C2067 C2066 1.415 . S
H2068 C2065 0.999 . S
H2069 C2050 0.913 . S
H2070 C2088 0.951 . S
H2071 C2090 0.951 . S
H2072 C2092 0.950 . S
H2073 C2093 0.950 . S
H2074 C2095 0.950 . S
H2075 C2098 0.950 . S
H2076 C2099 0.950 . S
H2077 C2101 0.950 . S
H2078 C2102 0.950 . S
H2079 C2103 0.951 . S
H2080 C2105 0.951 . S
H2081 C2107 0.950 . S
H2082 C2108 0.950 . S
H2083 C2110 0.950 . S
H2084 C2113 0.950 . S
H2085 C2114 0.950 . S
H2086 C2116 0.950 . S
H2087 C2117 0.950 . S
C2088 H2070 0.951 . S
C2088 C2089 1.366 . S
C2088 C2090 1.388 . S
C2089 C2088 1.366 . S
C2089 C2093 1.385 . S
C2090 H2071 0.951 . S
C2090 C2088 1.388 . S
C2090 C2091 1.366 . S
C2091 C2090 1.366 . S
C2091 C2092 1.414 . S
C2091 C2094 1.499 . S
C2092 H2072 0.950 . S
C2092 C2091 1.414 . S
C2092 C2093 1.374 . S
C2093 H2073 0.950 . S
C2093 C2089 1.385 . S
C2093 C2092 1.374 . S
C2094 C2091 1.499 . S
C2094 C2095 1.373 . S
C2094 C2096 1.389 . S
C2095 H2074 0.950 . S
C2095 C2094 1.373 . S
C2095 C2111 1.377 . S
C2096 C2094 1.389 . S
C2096 C2097 1.524 . S
C2096 C2110 1.377 . S
C2097 C2096 1.524 . S
C2097 C2098 1.397 . S
C2097 C2102 1.363 . S
C2098 H2075 0.950 . S
C2098 C2097 1.397 . S
C2098 C2099 1.334 . S
C2099 H2076 0.950 . S
C2099 C2098 1.334 . S
C2099 C2100 1.287 . S
C2100 C2099 1.287 . S
C2100 C2101 1.524 . S
C2100 H2119 0.913 . S
C2101 H2077 0.950 . S
C2101 C2100 1.524 . S
C2101 C2102 1.415 . S
C2102 H2078 0.950 . S
C2102 C2097 1.363 . S
C2102 C2101 1.415 . S
C2103 H2079 0.951 . S
C2103 C2104 1.366 . S
C2103 C2105 1.388 . S
C2104 C2103 1.366 . S
C2104 C2108 1.385 . S
C2105 H2080 0.951 . S
C2105 C2103 1.388 . S
C2105 C2106 1.366 . S
C2106 C2105 1.366 . S
C2106 C2107 1.414 . S
C2106 C2109 1.499 . S
C2107 H2081 0.950 . S
C2107 C2106 1.414 . S
C2107 C2108 1.374 . S
C2108 H2082 0.950 . S
C2108 C2104 1.385 . S
C2108 C2107 1.374 . S
C2109 C2106 1.499 . S
C2109 C2110 1.373 . S
C2109 C2111 1.389 . S
C2110 H2083 0.950 . S
C2110 C2096 1.377 . S
C2110 C2109 1.373 . S
C2111 C2095 1.377 . S
C2111 C2109 1.389 . S
C2111 C2112 1.524 . S
C2112 C2111 1.524 . S
C2112 C2113 1.397 . S
C2112 C2117 1.363 . S
C2113 H2084 0.950 . S
C2113 C2112 1.397 . S
C2113 C2114 1.334 . S
C2114 H2085 0.950 . S
C2114 C2113 1.334 . S
C2114 C2115 1.287 . S
C2115 C2114 1.287 . S
C2115 C2116 1.524 . S
C2115 H2118 0.999 . S
C2116 H2086 0.950 . S
C2116 C2115 1.524 . S
C2116 C2117 1.415 . S
C2117 H2087 0.950 . S
C2117 C2112 1.363 . S
C2117 C2116 1.415 . S
H2118 C2115 0.999 . S
H2119 C2100 0.913 . S
H2120 C2138 0.951 . S
H2121 C2140 0.951 . S
H2122 C2142 0.950 . S
H2123 C2143 0.950 . S
H2124 C2145 0.950 . S
H2125 C2148 0.950 . S
H2126 C2149 0.950 . S
H2127 C2151 0.950 . S
H2128 C2152 0.950 . S
H2129 C2153 0.951 . S
H2130 C2155 0.951 . S
H2131 C2157 0.950 . S
H2132 C2158 0.950 . S
H2133 C2160 0.950 . S
H2134 C2163 0.950 . S
H2135 C2164 0.950 . S
H2136 C2166 0.950 . S
H2137 C2167 0.950 . S
C2138 H2120 0.951 . S
C2138 C2139 1.366 . S
C2138 C2140 1.388 . S
C2139 C2138 1.366 . S
C2139 C2143 1.385 . S
C2140 H2121 0.951 . S
C2140 C2138 1.388 . S
C2140 C2141 1.366 . S
C2141 C2140 1.366 . S
C2141 C2142 1.414 . S
C2141 C2144 1.499 . S
C2142 H2122 0.950 . S
C2142 C2141 1.414 . S
C2142 C2143 1.374 . S
C2143 H2123 0.950 . S
C2143 C2139 1.385 . S
C2143 C2142 1.374 . S
C2144 C2141 1.499 . S
C2144 C2145 1.373 . S
C2144 C2146 1.389 . S
C2145 H2124 0.950 . S
C2145 C2144 1.373 . S
C2145 C2161 1.377 . S
C2146 C2144 1.389 . S
C2146 C2147 1.524 . S
C2146 C2160 1.377 . S
C2147 C2146 1.524 . S
C2147 C2148 1.397 . S
C2147 C2152 1.363 . S
C2148 H2125 0.950 . S
C2148 C2147 1.397 . S
C2148 C2149 1.334 . S
C2149 H2126 0.950 . S
C2149 C2148 1.334 . S
C2149 C2150 1.287 . S
C2150 C2149 1.287 . S
C2150 C2151 1.524 . S
C2150 H2169 0.913 . S
C2151 H2127 0.950 . S
C2151 C2150 1.524 . S
C2151 C2152 1.415 . S
C2152 H2128 0.950 . S
C2152 C2147 1.363 . S
C2152 C2151 1.415 . S
C2153 H2129 0.951 . S
C2153 C2154 1.366 . S
C2153 C2155 1.388 . S
C2154 C2153 1.366 . S
C2154 C2158 1.385 . S
C2155 H2130 0.951 . S
C2155 C2153 1.388 . S
C2155 C2156 1.366 . S
C2156 C2155 1.366 . S
C2156 C2157 1.414 . S
C2156 C2159 1.499 . S
C2157 H2131 0.950 . S
C2157 C2156 1.414 . S
C2157 C2158 1.374 . S
C2158 H2132 0.950 . S
C2158 C2154 1.385 . S
C2158 C2157 1.374 . S
C2159 C2156 1.499 . S
C2159 C2160 1.373 . S
C2159 C2161 1.389 . S
C2160 H2133 0.950 . S
C2160 C2146 1.377 . S
C2160 C2159 1.373 . S
C2161 C2145 1.377 . S
C2161 C2159 1.389 . S
C2161 C2162 1.524 . S
C2162 C2161 1.524 . S
C2162 C2163 1.397 . S
C2162 C2167 1.363 . S
C2163 H2134 0.950 . S
C2163 C2162 1.397 . S
C2163 C2164 1.334 . S
C2164 H2135 0.950 . S
C2164 C2163 1.334 . S
C2164 C2165 1.287 . S
C2165 C2164 1.287 . S
C2165 C2166 1.524 . S
C2165 H2168 0.999 . S
C2166 H2136 0.950 . S
C2166 C2165 1.524 . S
C2166 C2167 1.415 . S
C2167 H2137 0.950 . S
C2167 C2162 1.363 . S
C2167 C2166 1.415 . S
H2168 C2165 0.999 . S
H2169 C2150 0.913 . S
H2170 C2188 0.951 . S
H2171 C2190 0.951 . S
H2172 C2192 0.950 . S
H2173 C2193 0.950 . S
H2174 C2195 0.950 . S
H2175 C2198 0.950 . S
H2176 C2199 0.950 . S
H2177 C2201 0.950 . S
H2178 C2202 0.950 . S
H2179 C2203 0.951 . S
H2180 C2205 0.951 . S
H2181 C2207 0.950 . S
H2182 C2208 0.950 . S
H2183 C2210 0.950 . S
H2184 C2213 0.950 . S
H2185 C2214 0.950 . S
H2186 C2216 0.950 . S
H2187 C2217 0.950 . S
C2188 H2170 0.951 . S
C2188 C2189 1.366 . S
C2188 C2190 1.388 . S
C2189 C2188 1.366 . S
C2189 C2193 1.385 . S
C2190 H2171 0.951 . S
C2190 C2188 1.388 . S
C2190 C2191 1.366 . S
C2191 C2190 1.366 . S
C2191 C2192 1.414 . S
C2191 C2194 1.499 . S
C2192 H2172 0.950 . S
C2192 C2191 1.414 . S
C2192 C2193 1.374 . S
C2193 H2173 0.950 . S
C2193 C2189 1.385 . S
C2193 C2192 1.374 . S
C2194 C2191 1.499 . S
C2194 C2195 1.373 . S
C2194 C2196 1.389 . S
C2195 H2174 0.950 . S
C2195 C2194 1.373 . S
C2195 C2211 1.377 . S
C2196 C2194 1.389 . S
C2196 C2197 1.524 . S
C2196 C2210 1.377 . S
C2197 C2196 1.524 . S
C2197 C2198 1.397 . S
C2197 C2202 1.363 . S
C2198 H2175 0.950 . S
C2198 C2197 1.397 . S
C2198 C2199 1.334 . S
C2199 H2176 0.950 . S
C2199 C2198 1.334 . S
C2199 C2200 1.287 . S
C2200 C2199 1.287 . S
C2200 C2201 1.524 . S
C2200 H2219 0.913 . S
C2201 H2177 0.950 . S
C2201 C2200 1.524 . S
C2201 C2202 1.415 . S
C2202 H2178 0.950 . S
C2202 C2197 1.363 . S
C2202 C2201 1.415 . S
C2203 H2179 0.951 . S
C2203 C2204 1.366 . S
C2203 C2205 1.388 . S
C2204 C2203 1.366 . S
C2204 C2208 1.385 . S
C2205 H2180 0.951 . S
C2205 C2203 1.388 . S
C2205 C2206 1.366 . S
C2206 C2205 1.366 . S
C2206 C2207 1.414 . S
C2206 C2209 1.499 . S
C2207 H2181 0.950 . S
C2207 C2206 1.414 . S
C2207 C2208 1.374 . S
C2208 H2182 0.950 . S
C2208 C2204 1.385 . S
C2208 C2207 1.374 . S
C2209 C2206 1.499 . S
C2209 C2210 1.373 . S
C2209 C2211 1.389 . S
C2210 H2183 0.950 . S
C2210 C2196 1.377 . S
C2210 C2209 1.373 . S
C2211 C2195 1.377 . S
C2211 C2209 1.389 . S
C2211 C2212 1.524 . S
C2212 C2211 1.524 . S
C2212 C2213 1.397 . S
C2212 C2217 1.363 . S
C2213 H2184 0.950 . S
C2213 C2212 1.397 . S
C2213 C2214 1.334 . S
C2214 H2185 0.950 . S
C2214 C2213 1.334 . S
C2214 C2215 1.287 . S
C2215 C2214 1.287 . S
C2215 C2216 1.524 . S
C2215 H2218 0.999 . S
C2216 H2186 0.950 . S
C2216 C2215 1.524 . S
C2216 C2217 1.415 . S
C2217 H2187 0.950 . S
C2217 C2212 1.363 . S
C2217 C2216 1.415 . S
H2218 C2215 0.999 . S
H2219 C2200 0.913 . S
H2220 C2238 0.951 . S
H2221 C2240 0.951 . S
H2222 C2242 0.950 . S
H2223 C2243 0.950 . S
H2224 C2245 0.950 . S
H2225 C2248 0.950 . S
H2226 C2249 0.950 . S
H2227 C2251 0.950 . S
H2228 C2252 0.950 . S
H2229 C2253 0.951 . S
H2230 C2255 0.951 . S
H2231 C2257 0.950 . S
H2232 C2258 0.950 . S
H2233 C2260 0.950 . S
H2234 C2263 0.950 . S
H2235 C2264 0.950 . S
H2236 C2266 0.950 . S
H2237 C2267 0.950 . S
C2238 H2220 0.951 . S
C2238 C2239 1.366 . S
C2238 C2240 1.388 . S
C2239 C2238 1.366 . S
C2239 C2243 1.385 . S
C2240 H2221 0.951 . S
C2240 C2238 1.388 . S
C2240 C2241 1.366 . S
C2241 C2240 1.366 . S
C2241 C2242 1.414 . S
C2241 C2244 1.499 . S
C2242 H2222 0.950 . S
C2242 C2241 1.414 . S
C2242 C2243 1.374 . S
C2243 H2223 0.950 . S
C2243 C2239 1.385 . S
C2243 C2242 1.374 . S
C2244 C2241 1.499 . S
C2244 C2245 1.373 . S
C2244 C2246 1.389 . S
C2245 H2224 0.950 . S
C2245 C2244 1.373 . S
C2245 C2261 1.377 . S
C2246 C2244 1.389 . S
C2246 C2247 1.524 . S
C2246 C2260 1.377 . S
C2247 C2246 1.524 . S
C2247 C2248 1.397 . S
C2247 C2252 1.363 . S
C2248 H2225 0.950 . S
C2248 C2247 1.397 . S
C2248 C2249 1.334 . S
C2249 H2226 0.950 . S
C2249 C2248 1.334 . S
C2249 C2250 1.287 . S
C2250 C2249 1.287 . S
C2250 C2251 1.524 . S
C2250 H2269 0.913 . S
C2251 H2227 0.950 . S
C2251 C2250 1.524 . S
C2251 C2252 1.415 . S
C2252 H2228 0.950 . S
C2252 C2247 1.363 . S
C2252 C2251 1.415 . S
C2253 H2229 0.951 . S
C2253 C2254 1.366 . S
C2253 C2255 1.388 . S
C2254 C2253 1.366 . S
C2254 C2258 1.385 . S
C2255 H2230 0.951 . S
C2255 C2253 1.388 . S
C2255 C2256 1.366 . S
C2256 C2255 1.366 . S
C2256 C2257 1.414 . S
C2256 C2259 1.499 . S
C2257 H2231 0.950 . S
C2257 C2256 1.414 . S
C2257 C2258 1.374 . S
C2258 H2232 0.950 . S
C2258 C2254 1.385 . S
C2258 C2257 1.374 . S
C2259 C2256 1.499 . S
C2259 C2260 1.373 . S
C2259 C2261 1.389 . S
C2260 H2233 0.950 . S
C2260 C2246 1.377 . S
C2260 C2259 1.373 . S
C2261 C2245 1.377 . S
C2261 C2259 1.389 . S
C2261 C2262 1.524 . S
C2262 C2261 1.524 . S
C2262 C2263 1.397 . S
C2262 C2267 1.363 . S
C2263 H2234 0.950 . S
C2263 C2262 1.397 . S
C2263 C2264 1.334 . S
C2264 H2235 0.950 . S
C2264 C2263 1.334 . S
C2264 C2265 1.287 . S
C2265 C2264 1.287 . S
C2265 C2266 1.524 . S
C2265 H2268 0.999 . S
C2266 H2236 0.950 . S
C2266 C2265 1.524 . S
C2266 C2267 1.415 . S
C2267 H2237 0.950 . S
C2267 C2262 1.363 . S
C2267 C2266 1.415 . S
H2268 C2265 0.999 . S
H2269 C2250 0.913 . S
H2270 C2288 0.951 . S
H2271 C2290 0.951 . S
H2272 C2292 0.950 . S
H2273 C2293 0.950 . S
H2274 C2295 0.950 . S
H2275 C2298 0.950 . S
H2276 C2299 0.950 . S
H2277 C2301 0.950 . S
H2278 C2302 0.950 . S
H2279 C2303 0.951 . S
H2280 C2305 0.951 . S
H2281 C2307 0.950 . S
H2282 C2308 0.950 . S
H2283 C2310 0.950 . S
H2284 C2313 0.950 . S
H2285 C2314 0.950 . S
H2286 C2316 0.950 . S
H2287 C2317 0.950 . S
C2288 H2270 0.951 . S
C2288 C2289 1.366 . S
C2288 C2290 1.388 . S
C2289 C2288 1.366 . S
C2289 C2293 1.385 . S
C2290 H2271 0.951 . S
C2290 C2288 1.388 . S
C2290 C2291 1.366 . S
C2291 C2290 1.366 . S
C2291 C2292 1.414 . S
C2291 C2294 1.499 . S
C2292 H2272 0.950 . S
C2292 C2291 1.414 . S
C2292 C2293 1.374 . S
C2293 H2273 0.950 . S
C2293 C2289 1.385 . S
C2293 C2292 1.374 . S
C2294 C2291 1.499 . S
C2294 C2295 1.373 . S
C2294 C2296 1.389 . S
C2295 H2274 0.950 . S
C2295 C2294 1.373 . S
C2295 C2311 1.377 . S
C2296 C2294 1.389 . S
C2296 C2297 1.524 . S
C2296 C2310 1.377 . S
C2297 C2296 1.524 . S
C2297 C2298 1.397 . S
C2297 C2302 1.363 . S
C2298 H2275 0.950 . S
C2298 C2297 1.397 . S
C2298 C2299 1.334 . S
C2299 H2276 0.950 . S
C2299 C2298 1.334 . S
C2299 C2300 1.287 . S
C2300 C2299 1.287 . S
C2300 C2301 1.524 . S
C2300 H2319 0.913 . S
C2301 H2277 0.950 . S
C2301 C2300 1.524 . S
C2301 C2302 1.415 . S
C2302 H2278 0.950 . S
C2302 C2297 1.363 . S
C2302 C2301 1.415 . S
C2303 H2279 0.951 . S
C2303 C2304 1.366 . S
C2303 C2305 1.388 . S
C2304 C2303 1.366 . S
C2304 C2308 1.385 . S
C2305 H2280 0.951 . S
C2305 C2303 1.388 . S
C2305 C2306 1.366 . S
C2306 C2305 1.366 . S
C2306 C2307 1.414 . S
C2306 C2309 1.499 . S
C2307 H2281 0.950 . S
C2307 C2306 1.414 . S
C2307 C2308 1.374 . S
C2308 H2282 0.950 . S
C2308 C2304 1.385 . S
C2308 C2307 1.374 . S
C2309 C2306 1.499 . S
C2309 C2310 1.373 . S
C2309 C2311 1.389 . S
C2310 H2283 0.950 . S
C2310 C2296 1.377 . S
C2310 C2309 1.373 . S
C2311 C2295 1.377 . S
C2311 C2309 1.389 . S
C2311 C2312 1.524 . S
C2312 C2311 1.524 . S
C2312 C2313 1.397 . S
C2312 C2317 1.363 . S
C2313 H2284 0.950 . S
C2313 C2312 1.397 . S
C2313 C2314 1.334 . S
C2314 H2285 0.950 . S
C2314 C2313 1.334 . S
C2314 C2315 1.287 . S
C2315 C2314 1.287 . S
C2315 C2316 1.524 . S
C2315 H2318 0.999 . S
C2316 H2286 0.950 . S
C2316 C2315 1.524 . S
C2316 C2317 1.415 . S
C2317 H2287 0.950 . S
C2317 C2312 1.363 . S
C2317 C2316 1.415 . S
H2318 C2315 0.999 . S
H2319 C2300 0.913 . S
H2320 C2338 0.951 . S
H2321 C2340 0.951 . S
H2322 C2342 0.950 . S
H2323 C2343 0.950 . S
H2324 C2345 0.950 . S
H2325 C2348 0.950 . S
H2326 C2349 0.950 . S
H2327 C2351 0.950 . S
H2328 C2352 0.950 . S
H2329 C2353 0.951 . S
H2330 C2355 0.951 . S
H2331 C2357 0.950 . S
H2332 C2358 0.950 . S
H2333 C2360 0.950 . S
H2334 C2363 0.950 . S
H2335 C2364 0.950 . S
H2336 C2366 0.950 . S
H2337 C2367 0.950 . S
C2338 H2320 0.951 . S
C2338 C2339 1.366 . S
C2338 C2340 1.388 . S
C2339 C2338 1.366 . S
C2339 C2343 1.385 . S
C2340 H2321 0.951 . S
C2340 C2338 1.388 . S
C2340 C2341 1.366 . S
C2341 C2340 1.366 . S
C2341 C2342 1.414 . S
C2341 C2344 1.499 . S
C2342 H2322 0.950 . S
C2342 C2341 1.414 . S
C2342 C2343 1.374 . S
C2343 H2323 0.950 . S
C2343 C2339 1.385 . S
C2343 C2342 1.374 . S
C2344 C2341 1.499 . S
C2344 C2345 1.373 . S
C2344 C2346 1.389 . S
C2345 H2324 0.950 . S
C2345 C2344 1.373 . S
C2345 C2361 1.377 . S
C2346 C2344 1.389 . S
C2346 C2347 1.524 . S
C2346 C2360 1.377 . S
C2347 C2346 1.524 . S
C2347 C2348 1.397 . S
C2347 C2352 1.363 . S
C2348 H2325 0.950 . S
C2348 C2347 1.397 . S
C2348 C2349 1.334 . S
C2349 H2326 0.950 . S
C2349 C2348 1.334 . S
C2349 C2350 1.287 . S
C2350 C2349 1.287 . S
C2350 C2351 1.524 . S
C2350 H2369 0.913 . S
C2351 H2327 0.950 . S
C2351 C2350 1.524 . S
C2351 C2352 1.415 . S
C2352 H2328 0.950 . S
C2352 C2347 1.363 . S
C2352 C2351 1.415 . S
C2353 H2329 0.951 . S
C2353 C2354 1.366 . S
C2353 C2355 1.388 . S
C2354 C2353 1.366 . S
C2354 C2358 1.385 . S
C2355 H2330 0.951 . S
C2355 C2353 1.388 . S
C2355 C2356 1.366 . S
C2356 C2355 1.366 . S
C2356 C2357 1.414 . S
C2356 C2359 1.499 . S
C2357 H2331 0.950 . S
C2357 C2356 1.414 . S
C2357 C2358 1.374 . S
C2358 H2332 0.950 . S
C2358 C2354 1.385 . S
C2358 C2357 1.374 . S
C2359 C2356 1.499 . S
C2359 C2360 1.373 . S
C2359 C2361 1.389 . S
C2360 H2333 0.950 . S
C2360 C2346 1.377 . S
C2360 C2359 1.373 . S
C2361 C2345 1.377 . S
C2361 C2359 1.389 . S
C2361 C2362 1.524 . S
C2362 C2361 1.524 . S
C2362 C2363 1.397 . S
C2362 C2367 1.363 . S
C2363 H2334 0.950 . S
C2363 C2362 1.397 . S
C2363 C2364 1.334 . S
C2364 H2335 0.950 . S
C2364 C2363 1.334 . S
C2364 C2365 1.287 . S
C2365 C2364 1.287 . S
C2365 C2366 1.524 . S
C2365 H2368 0.999 . S
C2366 H2336 0.950 . S
C2366 C2365 1.524 . S
C2366 C2367 1.415 . S
C2367 H2337 0.950 . S
C2367 C2362 1.363 . S
C2367 C2366 1.415 . S
H2368 C2365 0.999 . S
H2369 C2350 0.913 . S
H2370 C2388 0.951 . S
H2371 C2390 0.951 . S
H2372 C2392 0.950 . S
H2373 C2393 0.950 . S
H2374 C2395 0.950 . S
H2375 C2398 0.950 . S
H2376 C2399 0.950 . S
H2377 C2401 0.950 . S
H2378 C2402 0.950 . S
H2379 C2403 0.951 . S
H2380 C2405 0.951 . S
H2381 C2407 0.950 . S
H2382 C2408 0.950 . S
H2383 C2410 0.950 . S
H2384 C2413 0.950 . S
H2385 C2414 0.950 . S
H2386 C2416 0.950 . S
H2387 C2417 0.950 . S
C2388 H2370 0.951 . S
C2388 C2389 1.366 . S
C2388 C2390 1.388 . S
C2389 C2388 1.366 . S
C2389 C2393 1.385 . S
C2390 H2371 0.951 . S
C2390 C2388 1.388 . S
C2390 C2391 1.366 . S
C2391 C2390 1.366 . S
C2391 C2392 1.414 . S
C2391 C2394 1.499 . S
C2392 H2372 0.950 . S
C2392 C2391 1.414 . S
C2392 C2393 1.374 . S
C2393 H2373 0.950 . S
C2393 C2389 1.385 . S
C2393 C2392 1.374 . S
C2394 C2391 1.499 . S
C2394 C2395 1.373 . S
C2394 C2396 1.389 . S
C2395 H2374 0.950 . S
C2395 C2394 1.373 . S
C2395 C2411 1.377 . S
C2396 C2394 1.389 . S
C2396 C2397 1.524 . S
C2396 C2410 1.377 . S
C2397 C2396 1.524 . S
C2397 C2398 1.397 . S
C2397 C2402 1.363 . S
C2398 H2375 0.950 . S
C2398 C2397 1.397 . S
C2398 C2399 1.334 . S
C2399 H2376 0.950 . S
C2399 C2398 1.334 . S
C2399 C2400 1.287 . S
C2400 C2399 1.287 . S
C2400 C2401 1.524 . S
C2400 H2419 0.913 . S
C2401 H2377 0.950 . S
C2401 C2400 1.524 . S
C2401 C2402 1.415 . S
C2402 H2378 0.950 . S
C2402 C2397 1.363 . S
C2402 C2401 1.415 . S
C2403 H2379 0.951 . S
C2403 C2404 1.366 . S
C2403 C2405 1.388 . S
C2404 C2403 1.366 . S
C2404 C2408 1.385 . S
C2405 H2380 0.951 . S
C2405 C2403 1.388 . S
C2405 C2406 1.366 . S
C2406 C2405 1.366 . S
C2406 C2407 1.414 . S
C2406 C2409 1.499 . S
C2407 H2381 0.950 . S
C2407 C2406 1.414 . S
C2407 C2408 1.374 . S
C2408 H2382 0.950 . S
C2408 C2404 1.385 . S
C2408 C2407 1.374 . S
C2409 C2406 1.499 . S
C2409 C2410 1.373 . S
C2409 C2411 1.389 . S
C2410 H2383 0.950 . S
C2410 C2396 1.377 . S
C2410 C2409 1.373 . S
C2411 C2395 1.377 . S
C2411 C2409 1.389 . S
C2411 C2412 1.524 . S
C2412 C2411 1.524 . S
C2412 C2413 1.397 . S
C2412 C2417 1.363 . S
C2413 H2384 0.950 . S
C2413 C2412 1.397 . S
C2413 C2414 1.334 . S
C2414 H2385 0.950 . S
C2414 C2413 1.334 . S
C2414 C2415 1.287 . S
C2415 C2414 1.287 . S
C2415 C2416 1.524 . S
C2415 H2418 0.999 . S
C2416 H2386 0.950 . S
C2416 C2415 1.524 . S
C2416 C2417 1.415 . S
C2417 H2387 0.950 . S
C2417 C2412 1.363 . S
C2417 C2416 1.415 . S
H2418 C2415 0.999 . S
H2419 C2400 0.913 . S
H2420 C2438 0.951 . S
H2421 C2440 0.951 . S
H2422 C2442 0.950 . S
H2423 C2443 0.950 . S
H2424 C2445 0.950 . S
H2425 C2448 0.950 . S
H2426 C2449 0.950 . S
H2427 C2451 0.950 . S
H2428 C2452 0.950 . S
H2429 C2453 0.951 . S
H2430 C2455 0.951 . S
H2431 C2457 0.950 . S
H2432 C2458 0.950 . S
H2433 C2460 0.950 . S
H2434 C2463 0.950 . S
H2435 C2464 0.950 . S
H2436 C2466 0.950 . S
H2437 C2467 0.950 . S
C2438 H2420 0.951 . S
C2438 C2439 1.366 . S
C2438 C2440 1.388 . S
C2439 C2438 1.366 . S
C2439 C2443 1.385 . S
C2440 H2421 0.951 . S
C2440 C2438 1.388 . S
C2440 C2441 1.366 . S
C2441 C2440 1.366 . S
C2441 C2442 1.414 . S
C2441 C2444 1.499 . S
C2442 H2422 0.950 . S
C2442 C2441 1.414 . S
C2442 C2443 1.374 . S
C2443 H2423 0.950 . S
C2443 C2439 1.385 . S
C2443 C2442 1.374 . S
C2444 C2441 1.499 . S
C2444 C2445 1.373 . S
C2444 C2446 1.389 . S
C2445 H2424 0.950 . S
C2445 C2444 1.373 . S
C2445 C2461 1.377 . S
C2446 C2444 1.389 . S
C2446 C2447 1.524 . S
C2446 C2460 1.377 . S
C2447 C2446 1.524 . S
C2447 C2448 1.397 . S
C2447 C2452 1.363 . S
C2448 H2425 0.950 . S
C2448 C2447 1.397 . S
C2448 C2449 1.334 . S
C2449 H2426 0.950 . S
C2449 C2448 1.334 . S
C2449 C2450 1.287 . S
C2450 C2449 1.287 . S
C2450 C2451 1.524 . S
C2450 H2469 0.913 . S
C2451 H2427 0.950 . S
C2451 C2450 1.524 . S
C2451 C2452 1.415 . S
C2452 H2428 0.950 . S
C2452 C2447 1.363 . S
C2452 C2451 1.415 . S
C2453 H2429 0.951 . S
C2453 C2454 1.366 . S
C2453 C2455 1.388 . S
C2454 C2453 1.366 . S
C2454 C2458 1.385 . S
C2455 H2430 0.951 . S
C2455 C2453 1.388 . S
C2455 C2456 1.366 . S
C2456 C2455 1.366 . S
C2456 C2457 1.414 . S
C2456 C2459 1.499 . S
C2457 H2431 0.950 . S
C2457 C2456 1.414 . S
C2457 C2458 1.374 . S
C2458 H2432 0.950 . S
C2458 C2454 1.385 . S
C2458 C2457 1.374 . S
C2459 C2456 1.499 . S
C2459 C2460 1.373 . S
C2459 C2461 1.389 . S
C2460 H2433 0.950 . S
C2460 C2446 1.377 . S
C2460 C2459 1.373 . S
C2461 C2445 1.377 . S
C2461 C2459 1.389 . S
C2461 C2462 1.524 . S
C2462 C2461 1.524 . S
C2462 C2463 1.397 . S
C2462 C2467 1.363 . S
C2463 H2434 0.950 . S
C2463 C2462 1.397 . S
C2463 C2464 1.334 . S
C2464 H2435 0.950 . S
C2464 C2463 1.334 . S
C2464 C2465 1.287 . S
C2465 C2464 1.287 . S
C2465 C2466 1.524 . S
C2465 H2468 0.999 . S
C2466 H2436 0.950 . S
C2466 C2465 1.524 . S
C2466 C2467 1.415 . S
C2467 H2437 0.950 . S
C2467 C2462 1.363 . S
C2467 C2466 1.415 . S
H2468 C2465 0.999 . S
H2469 C2450 0.913 . S
H2470 C2488 0.951 . S
H2471 C2490 0.951 . S
H2472 C2492 0.950 . S
H2473 C2493 0.950 . S
H2474 C2495 0.950 . S
H2475 C2498 0.950 . S
H2476 C2499 0.950 . S
H2477 C2501 0.950 . S
H2478 C2502 0.950 . S
H2479 C2503 0.951 . S
H2480 C2505 0.951 . S
H2481 C2507 0.950 . S
H2482 C2508 0.950 . S
H2483 C2510 0.950 . S
H2484 C2513 0.950 . S
H2485 C2514 0.950 . S
H2486 C2516 0.950 . S
H2487 C2517 0.950 . S
C2488 H2470 0.951 . S
C2488 C2489 1.366 . S
C2488 C2490 1.388 . S
C2489 C2488 1.366 . S
C2489 C2493 1.385 . S
C2490 H2471 0.951 . S
C2490 C2488 1.388 . S
C2490 C2491 1.366 . S
C2491 C2490 1.366 . S
C2491 C2492 1.414 . S
C2491 C2494 1.499 . S
C2492 H2472 0.950 . S
C2492 C2491 1.414 . S
C2492 C2493 1.374 . S
C2493 H2473 0.950 . S
C2493 C2489 1.385 . S
C2493 C2492 1.374 . S
C2494 C2491 1.499 . S
C2494 C2495 1.373 . S
C2494 C2496 1.389 . S
C2495 H2474 0.950 . S
C2495 C2494 1.373 . S
C2495 C2511 1.377 . S
C2496 C2494 1.389 . S
C2496 C2497 1.524 . S
C2496 C2510 1.377 . S
C2497 C2496 1.524 . S
C2497 C2498 1.397 . S
C2497 C2502 1.363 . S
C2498 H2475 0.950 . S
C2498 C2497 1.397 . S
C2498 C2499 1.334 . S
C2499 H2476 0.950 . S
C2499 C2498 1.334 . S
C2499 C2500 1.287 . S
C2500 C2499 1.287 . S
C2500 C2501 1.524 . S
C2500 H2519 0.913 . S
C2501 H2477 0.950 . S
C2501 C2500 1.524 . S
C2501 C2502 1.415 . S
C2502 H2478 0.950 . S
C2502 C2497 1.363 . S
C2502 C2501 1.415 . S
C2503 H2479 0.951 . S
C2503 C2504 1.366 . S
C2503 C2505 1.388 . S
C2504 C2503 1.366 . S
C2504 C2508 1.385 . S
C2505 H2480 0.951 . S
C2505 C2503 1.388 . S
C2505 C2506 1.366 . S
C2506 C2505 1.366 . S
C2506 C2507 1.414 . S
C2506 C2509 1.499 . S
C2507 H2481 0.950 . S
C2507 C2506 1.414 . S
C2507 C2508 1.374 . S
C2508 H2482 0.950 . S
C2508 C2504 1.385 . S
C2508 C2507 1.374 . S
C2509 C2506 1.499 . S
C2509 C2510 1.373 . S
C2509 C2511 1.389 . S
C2510 H2483 0.950 . S
C2510 C2496 1.377 . S
C2510 C2509 1.373 . S
C2511 C2495 1.377 . S
C2511 C2509 1.389 . S
C2511 C2512 1.524 . S
C2512 C2511 1.524 . S
C2512 C2513 1.397 . S
C2512 C2517 1.363 . S
C2513 H2484 0.950 . S
C2513 C2512 1.397 . S
C2513 C2514 1.334 . S
C2514 H2485 0.950 . S
C2514 C2513 1.334 . S
C2514 C2515 1.287 . S
C2515 C2514 1.287 . S
C2515 C2516 1.524 . S
C2515 H2518 0.999 . S
C2516 H2486 0.950 . S
C2516 C2515 1.524 . S
C2516 C2517 1.415 . S
C2517 H2487 0.950 . S
C2517 C2512 1.363 . S
C2517 C2516 1.415 . S
H2518 C2515 0.999 . S
H2519 C2500 0.913 . S
H2520 C2538 0.951 . S
H2521 C2540 0.951 . S
H2522 C2542 0.950 . S
H2523 C2543 0.950 . S
H2524 C2545 0.950 . S
H2525 C2548 0.950 . S
H2526 C2549 0.950 . S
H2527 C2551 0.950 . S
H2528 C2552 0.950 . S
H2529 C2553 0.951 . S
H2530 C2555 0.951 . S
H2531 C2557 0.950 . S
H2532 C2558 0.950 . S
H2533 C2560 0.950 . S
H2534 C2563 0.950 . S
H2535 C2564 0.950 . S
H2536 C2566 0.950 . S
H2537 C2567 0.950 . S
C2538 H2520 0.951 . S
C2538 C2539 1.366 . S
C2538 C2540 1.388 . S
C2539 C2538 1.366 . S
C2539 C2543 1.385 . S
C2540 H2521 0.951 . S
C2540 C2538 1.388 . S
C2540 C2541 1.366 . S
C2541 C2540 1.366 . S
C2541 C2542 1.414 . S
C2541 C2544 1.499 . S
C2542 H2522 0.950 . S
C2542 C2541 1.414 . S
C2542 C2543 1.374 . S
C2543 H2523 0.950 . S
C2543 C2539 1.385 . S
C2543 C2542 1.374 . S
C2544 C2541 1.499 . S
C2544 C2545 1.373 . S
C2544 C2546 1.389 . S
C2545 H2524 0.950 . S
C2545 C2544 1.373 . S
C2545 C2561 1.377 . S
C2546 C2544 1.389 . S
C2546 C2547 1.524 . S
C2546 C2560 1.377 . S
C2547 C2546 1.524 . S
C2547 C2548 1.397 . S
C2547 C2552 1.363 . S
C2548 H2525 0.950 . S
C2548 C2547 1.397 . S
C2548 C2549 1.334 . S
C2549 H2526 0.950 . S
C2549 C2548 1.334 . S
C2549 C2550 1.287 . S
C2550 C2549 1.287 . S
C2550 C2551 1.524 . S
C2550 H2569 0.913 . S
C2551 H2527 0.950 . S
C2551 C2550 1.524 . S
C2551 C2552 1.415 . S
C2552 H2528 0.950 . S
C2552 C2547 1.363 . S
C2552 C2551 1.415 . S
C2553 H2529 0.951 . S
C2553 C2554 1.366 . S
C2553 C2555 1.388 . S
C2554 C2553 1.366 . S
C2554 C2558 1.385 . S
C2555 H2530 0.951 . S
C2555 C2553 1.388 . S
C2555 C2556 1.366 . S
C2556 C2555 1.366 . S
C2556 C2557 1.414 . S
C2556 C2559 1.499 . S
C2557 H2531 0.950 . S
C2557 C2556 1.414 . S
C2557 C2558 1.374 . S
C2558 H2532 0.950 . S
C2558 C2554 1.385 . S
C2558 C2557 1.374 . S
C2559 C2556 1.499 . S
C2559 C2560 1.373 . S
C2559 C2561 1.389 . S
C2560 H2533 0.950 . S
C2560 C2546 1.377 . S
C2560 C2559 1.373 . S
C2561 C2545 1.377 . S
C2561 C2559 1.389 . S
C2561 C2562 1.524 . S
C2562 C2561 1.524 . S
C2562 C2563 1.397 . S
C2562 C2567 1.363 . S
C2563 H2534 0.950 . S
C2563 C2562 1.397 . S
C2563 C2564 1.334 . S
C2564 H2535 0.950 . S
C2564 C2563 1.334 . S
C2564 C2565 1.287 . S
C2565 C2564 1.287 . S
C2565 C2566 1.524 . S
C2565 H2568 0.999 . S
C2566 H2536 0.950 . S
C2566 C2565 1.524 . S
C2566 C2567 1.415 . S
C2567 H2537 0.950 . S
C2567 C2562 1.363 . S
C2567 C2566 1.415 . S
H2568 C2565 0.999 . S
H2569 C2550 0.913 . S
H2570 C2588 0.951 . S
H2571 C2590 0.951 . S
H2572 C2592 0.950 . S
H2573 C2593 0.950 . S
H2574 C2595 0.950 . S
H2575 C2598 0.950 . S
H2576 C2599 0.950 . S
H2577 C2601 0.950 . S
H2578 C2602 0.950 . S
H2579 C2603 0.951 . S
H2580 C2605 0.951 . S
H2581 C2607 0.950 . S
H2582 C2608 0.950 . S
H2583 C2610 0.950 . S
H2584 C2613 0.950 . S
H2585 C2614 0.950 . S
H2586 C2616 0.950 . S
H2587 C2617 0.950 . S
C2588 H2570 0.951 . S
C2588 C2589 1.366 . S
C2588 C2590 1.388 . S
C2589 C2588 1.366 . S
C2589 C2593 1.385 . S
C2590 H2571 0.951 . S
C2590 C2588 1.388 . S
C2590 C2591 1.366 . S
C2591 C2590 1.366 . S
C2591 C2592 1.414 . S
C2591 C2594 1.499 . S
C2592 H2572 0.950 . S
C2592 C2591 1.414 . S
C2592 C2593 1.374 . S
C2593 H2573 0.950 . S
C2593 C2589 1.385 . S
C2593 C2592 1.374 . S
C2594 C2591 1.499 . S
C2594 C2595 1.373 . S
C2594 C2596 1.389 . S
C2595 H2574 0.950 . S
C2595 C2594 1.373 . S
C2595 C2611 1.377 . S
C2596 C2594 1.389 . S
C2596 C2597 1.524 . S
C2596 C2610 1.377 . S
C2597 C2596 1.524 . S
C2597 C2598 1.397 . S
C2597 C2602 1.363 . S
C2598 H2575 0.950 . S
C2598 C2597 1.397 . S
C2598 C2599 1.334 . S
C2599 H2576 0.950 . S
C2599 C2598 1.334 . S
C2599 C2600 1.287 . S
C2600 C2599 1.287 . S
C2600 C2601 1.524 . S
C2600 H2619 0.913 . S
C2601 H2577 0.950 . S
C2601 C2600 1.524 . S
C2601 C2602 1.415 . S
C2602 H2578 0.950 . S
C2602 C2597 1.363 . S
C2602 C2601 1.415 . S
C2603 H2579 0.951 . S
C2603 C2604 1.366 . S
C2603 C2605 1.388 . S
C2604 C2603 1.366 . S
C2604 C2608 1.385 . S
C2605 H2580 0.951 . S
C2605 C2603 1.388 . S
C2605 C2606 1.366 . S
C2606 C2605 1.366 . S
C2606 C2607 1.414 . S
C2606 C2609 1.499 . S
C2607 H2581 0.950 . S
C2607 C2606 1.414 . S
C2607 C2608 1.374 . S
C2608 H2582 0.950 . S
C2608 C2604 1.385 . S
C2608 C2607 1.374 . S
C2609 C2606 1.499 . S
C2609 C2610 1.373 . S
C2609 C2611 1.389 . S
C2610 H2583 0.950 . S
C2610 C2596 1.377 . S
C2610 C2609 1.373 . S
C2611 C2595 1.377 . S
C2611 C2609 1.389 . S
C2611 C2612 1.524 . S
C2612 C2611 1.524 . S
C2612 C2613 1.397 . S
C2612 C2617 1.363 . S
C2613 H2584 0.950 . S
C2613 C2612 1.397 . S
C2613 C2614 1.334 . S
C2614 H2585 0.950 . S
C2614 C2613 1.334 . S
C2614 C2615 1.287 . S
C2615 C2614 1.287 . S
C2615 C2616 1.524 . S
C2615 H2618 0.999 . S
C2616 H2586 0.950 . S
C2616 C2615 1.524 . S
C2616 C2617 1.415 . S
C2617 H2587 0.950 . S
C2617 C2612 1.363 . S
C2617 C2616 1.415 . S
H2618 C2615 0.999 . S
H2619 C2600 0.913 . S
H2620 C2638 0.951 . S
H2621 C2640 0.951 . S
H2622 C2642 0.950 . S
H2623 C2643 0.950 . S
H2624 C2645 0.950 . S
H2625 C2648 0.950 . S
H2626 C2649 0.950 . S
H2627 C2651 0.950 . S
H2628 C2652 0.950 . S
H2629 C2653 0.951 . S
H2630 C2655 0.951 . S
H2631 C2657 0.950 . S
H2632 C2658 0.950 . S
H2633 C2660 0.950 . S
H2634 C2663 0.950 . S
H2635 C2664 0.950 . S
H2636 C2666 0.950 . S
H2637 C2667 0.950 . S
C2638 H2620 0.951 . S
C2638 C2639 1.366 . S
C2638 C2640 1.388 . S
C2639 C2638 1.366 . S
C2639 C2643 1.385 . S
C2640 H2621 0.951 . S
C2640 C2638 1.388 . S
C2640 C2641 1.366 . S
C2641 C2640 1.366 . S
C2641 C2642 1.414 . S
C2641 C2644 1.499 . S
C2642 H2622 0.950 . S
C2642 C2641 1.414 . S
C2642 C2643 1.374 . S
C2643 H2623 0.950 . S
C2643 C2639 1.385 . S
C2643 C2642 1.374 . S
C2644 C2641 1.499 . S
C2644 C2645 1.373 . S
C2644 C2646 1.389 . S
C2645 H2624 0.950 . S
C2645 C2644 1.373 . S
C2645 C2661 1.377 . S
C2646 C2644 1.389 . S
C2646 C2647 1.524 . S
C2646 C2660 1.377 . S
C2647 C2646 1.524 . S
C2647 C2648 1.397 . S
C2647 C2652 1.363 . S
C2648 H2625 0.950 . S
C2648 C2647 1.397 . S
C2648 C2649 1.334 . S
C2649 H2626 0.950 . S
C2649 C2648 1.334 . S
C2649 C2650 1.287 . S
C2650 C2649 1.287 . S
C2650 C2651 1.524 . S
C2650 H2669 0.913 . S
C2651 H2627 0.950 . S
C2651 C2650 1.524 . S
C2651 C2652 1.415 . S
C2652 H2628 0.950 . S
C2652 C2647 1.363 . S
C2652 C2651 1.415 . S
C2653 H2629 0.951 . S
C2653 C2654 1.366 . S
C2653 C2655 1.388 . S
C2654 C2653 1.366 . S
C2654 C2658 1.385 . S
C2655 H2630 0.951 . S
C2655 C2653 1.388 . S
C2655 C2656 1.366 . S
C2656 C2655 1.366 . S
C2656 C2657 1.414 . S
C2656 C2659 1.499 . S
C2657 H2631 0.950 . S
C2657 C2656 1.414 . S
C2657 C2658 1.374 . S
C2658 H2632 0.950 . S
C2658 C2654 1.385 . S
C2658 C2657 1.374 . S
C2659 C2656 1.499 . S
C2659 C2660 1.373 . S
C2659 C2661 1.389 . S
C2660 H2633 0.950 . S
C2660 C2646 1.377 . S
C2660 C2659 1.373 . S
C2661 C2645 1.377 . S
C2661 C2659 1.389 . S
C2661 C2662 1.524 . S
C2662 C2661 1.524 . S
C2662 C2663 1.397 . S
C2662 C2667 1.363 . S
C2663 H2634 0.950 . S
C2663 C2662 1.397 . S
C2663 C2664 1.334 . S
C2664 H2635 0.950 . S
C2664 C2663 1.334 . S
C2664 C2665 1.287 . S
C2665 C2664 1.287 . S
C2665 C2666 1.524 . S
C2665 H2668 0.999 . S
C2666 H2636 0.950 . S
C2666 C2665 1.524 . S
C2666 C2667 1.415 . S
C2667 H2637 0.950 . S
C2667 C2662 1.363 . S
C2667 C2666 1.415 . S
H2668 C2665 0.999 . S
H2669 C2650 0.913 . S
H2670 C2688 0.951 . S
H2671 C2690 0.951 . S
H2672 C2692 0.950 . S
H2673 C2693 0.950 . S
H2674 C2695 0.950 . S
H2675 C2698 0.950 . S
H2676 C2699 0.950 . S
H2677 C2701 0.950 . S
H2678 C2702 0.950 . S
H2679 C2703 0.951 . S
H2680 C2705 0.951 . S
H2681 C2707 0.950 . S
H2682 C2708 0.950 . S
H2683 C2710 0.950 . S
H2684 C2713 0.950 . S
H2685 C2714 0.950 . S
H2686 C2716 0.950 . S
H2687 C2717 0.950 . S
C2688 H2670 0.951 . S
C2688 C2689 1.366 . S
C2688 C2690 1.388 . S
C2689 C2688 1.366 . S
C2689 C2693 1.385 . S
C2690 H2671 0.951 . S
C2690 C2688 1.388 . S
C2690 C2691 1.366 . S
C2691 C2690 1.366 . S
C2691 C2692 1.414 . S
C2691 C2694 1.499 . S
C2692 H2672 0.950 . S
C2692 C2691 1.414 . S
C2692 C2693 1.374 . S
C2693 H2673 0.950 . S
C2693 C2689 1.385 . S
C2693 C2692 1.374 . S
C2694 C2691 1.499 . S
C2694 C2695 1.373 . S
C2694 C2696 1.389 . S
C2695 H2674 0.950 . S
C2695 C2694 1.373 . S
C2695 C2711 1.377 . S
C2696 C2694 1.389 . S
C2696 C2697 1.524 . S
C2696 C2710 1.377 . S
C2697 C2696 1.524 . S
C2697 C2698 1.397 . S
C2697 C2702 1.363 . S
C2698 H2675 0.950 . S
C2698 C2697 1.397 . S
C2698 C2699 1.334 . S
C2699 H2676 0.950 . S
C2699 C2698 1.334 . S
C2699 C2700 1.287 . S
C2700 C2699 1.287 . S
C2700 C2701 1.524 . S
C2700 H2719 0.913 . S
C2701 H2677 0.950 . S
C2701 C2700 1.524 . S
C2701 C2702 1.415 . S
C2702 H2678 0.950 . S
C2702 C2697 1.363 . S
C2702 C2701 1.415 . S
C2703 H2679 0.951 . S
C2703 C2704 1.366 . S
C2703 C2705 1.388 . S
C2704 C2703 1.366 . S
C2704 C2708 1.385 . S
C2705 H2680 0.951 . S
C2705 C2703 1.388 . S
C2705 C2706 1.366 . S
C2706 C2705 1.366 . S
C2706 C2707 1.414 . S
C2706 C2709 1.499 . S
C2707 H2681 0.950 . S
C2707 C2706 1.414 . S
C2707 C2708 1.374 . S
C2708 H2682 0.950 . S
C2708 C2704 1.385 . S
C2708 C2707 1.374 . S
C2709 C2706 1.499 . S
C2709 C2710 1.373 . S
C2709 C2711 1.389 . S
C2710 H2683 0.950 . S
C2710 C2696 1.377 . S
C2710 C2709 1.373 . S
C2711 C2695 1.377 . S
C2711 C2709 1.389 . S
C2711 C2712 1.524 . S
C2712 C2711 1.524 . S
C2712 C2713 1.397 . S
C2712 C2717 1.363 . S
C2713 H2684 0.950 . S
C2713 C2712 1.397 . S
C2713 C2714 1.334 . S
C2714 H2685 0.950 . S
C2714 C2713 1.334 . S
C2714 C2715 1.287 . S
C2715 C2714 1.287 . S
C2715 C2716 1.524 . S
C2715 H2718 0.999 . S
C2716 H2686 0.950 . S
C2716 C2715 1.524 . S
C2716 C2717 1.415 . S
C2717 H2687 0.950 . S
C2717 C2712 1.363 . S
C2717 C2716 1.415 . S
H2718 C2715 0.999 . S
H2719 C2700 0.913 . S
H2720 C2738 0.951 . S
H2721 C2740 0.951 . S
H2722 C2742 0.950 . S
H2723 C2743 0.950 . S
H2724 C2745 0.950 . S
H2725 C2748 0.950 . S
H2726 C2749 0.950 . S
H2727 C2751 0.950 . S
H2728 C2752 0.950 . S
H2729 C2753 0.951 . S
H2730 C2755 0.951 . S
H2731 C2757 0.950 . S
H2732 C2758 0.950 . S
H2733 C2760 0.950 . S
H2734 C2763 0.950 . S
H2735 C2764 0.950 . S
H2736 C2766 0.950 . S
H2737 C2767 0.950 . S
C2738 H2720 0.951 . S
C2738 C2739 1.366 . S
C2738 C2740 1.388 . S
C2739 C2738 1.366 . S
C2739 C2743 1.385 . S
C2740 H2721 0.951 . S
C2740 C2738 1.388 . S
C2740 C2741 1.366 . S
C2741 C2740 1.366 . S
C2741 C2742 1.414 . S
C2741 C2744 1.499 . S
C2742 H2722 0.950 . S
C2742 C2741 1.414 . S
C2742 C2743 1.374 . S
C2743 H2723 0.950 . S
C2743 C2739 1.385 . S
C2743 C2742 1.374 . S
C2744 C2741 1.499 . S
C2744 C2745 1.373 . S
C2744 C2746 1.389 . S
C2745 H2724 0.950 . S
C2745 C2744 1.373 . S
C2745 C2761 1.377 . S
C2746 C2744 1.389 . S
C2746 C2747 1.524 . S
C2746 C2760 1.377 . S
C2747 C2746 1.524 . S
C2747 C2748 1.397 . S
C2747 C2752 1.363 . S
C2748 H2725 0.950 . S
C2748 C2747 1.397 . S
C2748 C2749 1.334 . S
C2749 H2726 0.950 . S
C2749 C2748 1.334 . S
C2749 C2750 1.287 . S
C2750 C2749 1.287 . S
C2750 C2751 1.524 . S
C2750 H2769 0.913 . S
C2751 H2727 0.950 . S
C2751 C2750 1.524 . S
C2751 C2752 1.415 . S
C2752 H2728 0.950 . S
C2752 C2747 1.363 . S
C2752 C2751 1.415 . S
C2753 H2729 0.951 . S
C2753 C2754 1.366 . S
C2753 C2755 1.388 . S
C2754 C2753 1.366 . S
C2754 C2758 1.385 . S
C2755 H2730 0.951 . S
C2755 C2753 1.388 . S
C2755 C2756 1.366 . S
C2756 C2755 1.366 . S
C2756 C2757 1.414 . S
C2756 C2759 1.499 . S
C2757 H2731 0.950 . S
C2757 C2756 1.414 . S
C2757 C2758 1.374 . S
C2758 H2732 0.950 . S
C2758 C2754 1.385 . S
C2758 C2757 1.374 . S
C2759 C2756 1.499 . S
C2759 C2760 1.373 . S
C2759 C2761 1.389 . S
C2760 H2733 0.950 . S
C2760 C2746 1.377 . S
C2760 C2759 1.373 . S
C2761 C2745 1.377 . S
C2761 C2759 1.389 . S
C2761 C2762 1.524 . S
C2762 C2761 1.524 . S
C2762 C2763 1.397 . S
C2762 C2767 1.363 . S
C2763 H2734 0.950 . S
C2763 C2762 1.397 . S
C2763 C2764 1.334 . S
C2764 H2735 0.950 . S
C2764 C2763 1.334 . S
C2764 C2765 1.287 . S
C2765 C2764 1.287 . S
C2765 C2766 1.524 . S
C2765 H2768 0.999 . S
C2766 H2736 0.950 . S
C2766 C2765 1.524 . S
C2766 C2767 1.415 . S
C2767 H2737 0.950 . S
C2767 C2762 1.363 . S
C2767 C2766 1.415 . S
H2768 C2765 0.999 . S
H2769 C2750 0.913 . S
H2770 C2788 0.951 . S
H2771 C2790 0.951 . S
H2772 C2792 0.950 . S
H2773 C2793 0.950 . S
H2774 C2795 0.950 . S
H2775 C2798 0.950 . S
H2776 C2799 0.950 . S
H2777 C2801 0.950 . S
H2778 C2802 0.950 . S
H2779 C2803 0.951 . S
H2780 C2805 0.951 . S
H2781 C2807 0.950 . S
H2782 C2808 0.950 . S
H2783 C2810 0.950 . S
H2784 C2813 0.950 . S
H2785 C2814 0.950 . S
H2786 C2816 0.950 . S
H2787 C2817 0.950 . S
C2788 H2770 0.951 . S
C2788 C2789 1.366 . S
C2788 C2790 1.388 . S
C2789 C2788 1.366 . S
C2789 C2793 1.385 . S
C2790 H2771 0.951 . S
C2790 C2788 1.388 . S
C2790 C2791 1.366 . S
C2791 C2790 1.366 . S
C2791 C2792 1.414 . S
C2791 C2794 1.499 . S
C2792 H2772 0.950 . S
C2792 C2791 1.414 . S
C2792 C2793 1.374 . S
C2793 H2773 0.950 . S
C2793 C2789 1.385 . S
C2793 C2792 1.374 . S
C2794 C2791 1.499 . S
C2794 C2795 1.373 . S
C2794 C2796 1.389 . S
C2795 H2774 0.950 . S
C2795 C2794 1.373 . S
C2795 C2811 1.377 . S
C2796 C2794 1.389 . S
C2796 C2797 1.524 . S
C2796 C2810 1.377 . S
C2797 C2796 1.524 . S
C2797 C2798 1.397 . S
C2797 C2802 1.363 . S
C2798 H2775 0.950 . S
C2798 C2797 1.397 . S
C2798 C2799 1.334 . S
C2799 H2776 0.950 . S
C2799 C2798 1.334 . S
C2799 C2800 1.287 . S
C2800 C2799 1.287 . S
C2800 C2801 1.524 . S
C2800 H2819 0.913 . S
C2801 H2777 0.950 . S
C2801 C2800 1.524 . S
C2801 C2802 1.415 . S
C2802 H2778 0.950 . S
C2802 C2797 1.363 . S
C2802 C2801 1.415 . S
C2803 H2779 0.951 . S
C2803 C2804 1.366 . S
C2803 C2805 1.388 . S
C2804 C2803 1.366 . S
C2804 C2808 1.385 . S
C2805 H2780 0.951 . S
C2805 C2803 1.388 . S
C2805 C2806 1.366 . S
C2806 C2805 1.366 . S
C2806 C2807 1.414 . S
C2806 C2809 1.499 . S
C2807 H2781 0.950 . S
C2807 C2806 1.414 . S
C2807 C2808 1.374 . S
C2808 H2782 0.950 . S
C2808 C2804 1.385 . S
C2808 C2807 1.374 . S
C2809 C2806 1.499 . S
C2809 C2810 1.373 . S
C2809 C2811 1.389 . S
C2810 H2783 0.950 . S
C2810 C2796 1.377 . S
C2810 C2809 1.373 . S
C2811 C2795 1.377 . S
C2811 C2809 1.389 . S
C2811 C2812 1.524 . S
C2812 C2811 1.524 . S
C2812 C2813 1.397 . S
C2812 C2817 1.363 . S
C2813 H2784 0.950 . S
C2813 C2812 1.397 . S
C2813 C2814 1.334 . S
C2814 H2785 0.950 . S
C2814 C2813 1.334 . S
C2814 C2815 1.287 . S
C2815 C2814 1.287 . S
C2815 C2816 1.524 . S
C2815 H2818 0.999 . S
C2816 H2786 0.950 . S
C2816 C2815 1.524 . S
C2816 C2817 1.415 . S
C2817 H2787 0.950 . S
C2817 C2812 1.363 . S
C2817 C2816 1.415 . S
H2818 C2815 0.999 . S
H2819 C2800 0.913 . S
H2820 C2838 0.951 . S
H2821 C2840 0.951 . S
H2822 C2842 0.950 . S
H2823 C2843 0.950 . S
H2824 C2845 0.950 . S
H2825 C2848 0.950 . S
H2826 C2849 0.950 . S
H2827 C2851 0.950 . S
H2828 C2852 0.950 . S
H2829 C2853 0.951 . S
H2830 C2855 0.951 . S
H2831 C2857 0.950 . S
H2832 C2858 0.950 . S
H2833 C2860 0.950 . S
H2834 C2863 0.950 . S
H2835 C2864 0.950 . S
H2836 C2866 0.950 . S
H2837 C2867 0.950 . S
C2838 H2820 0.951 . S
C2838 C2839 1.366 . S
C2838 C2840 1.388 . S
C2839 C2838 1.366 . S
C2839 C2843 1.385 . S
C2840 H2821 0.951 . S
C2840 C2838 1.388 . S
C2840 C2841 1.366 . S
C2841 C2840 1.366 . S
C2841 C2842 1.414 . S
C2841 C2844 1.499 . S
C2842 H2822 0.950 . S
C2842 C2841 1.414 . S
C2842 C2843 1.374 . S
C2843 H2823 0.950 . S
C2843 C2839 1.385 . S
C2843 C2842 1.374 . S
C2844 C2841 1.499 . S
C2844 C2845 1.373 . S
C2844 C2846 1.389 . S
C2845 H2824 0.950 . S
C2845 C2844 1.373 . S
C2845 C2861 1.377 . S
C2846 C2844 1.389 . S
C2846 C2847 1.524 . S
C2846 C2860 1.377 . S
C2847 C2846 1.524 . S
C2847 C2848 1.397 . S
C2847 C2852 1.363 . S
C2848 H2825 0.950 . S
C2848 C2847 1.397 . S
C2848 C2849 1.334 . S
C2849 H2826 0.950 . S
C2849 C2848 1.334 . S
C2849 C2850 1.287 . S
C2850 C2849 1.287 . S
C2850 C2851 1.524 . S
C2850 H2869 0.913 . S
C2851 H2827 0.950 . S
C2851 C2850 1.524 . S
C2851 C2852 1.415 . S
C2852 H2828 0.950 . S
C2852 C2847 1.363 . S
C2852 C2851 1.415 . S
C2853 H2829 0.951 . S
C2853 C2854 1.366 . S
C2853 C2855 1.388 . S
C2854 C2853 1.366 . S
C2854 C2858 1.385 . S
C2855 H2830 0.951 . S
C2855 C2853 1.388 . S
C2855 C2856 1.366 . S
C2856 C2855 1.366 . S
C2856 C2857 1.414 . S
C2856 C2859 1.499 . S
C2857 H2831 0.950 . S
C2857 C2856 1.414 . S
C2857 C2858 1.374 . S
C2858 H2832 0.950 . S
C2858 C2854 1.385 . S
C2858 C2857 1.374 . S
C2859 C2856 1.499 . S
C2859 C2860 1.373 . S
C2859 C2861 1.389 . S
C2860 H2833 0.950 . S
C2860 C2846 1.377 . S
C2860 C2859 1.373 . S
C2861 C2845 1.377 . S
C2861 C2859 1.389 . S
C2861 C2862 1.524 . S
C2862 C2861 1.524 . S
C2862 C2863 1.397 . S
C2862 C2867 1.363 . S
C2863 H2834 0.950 . S
C2863 C2862 1.397 . S
C2863 C2864 1.334 . S
C2864 H2835 0.950 . S
C2864 C2863 1.334 . S
C2864 C2865 1.287 . S
C2865 C2864 1.287 . S
C2865 C2866 1.524 . S
C2865 H2868 0.999 . S
C2866 H2836 0.950 . S
C2866 C2865 1.524 . S
C2866 C2867 1.415 . S
C2867 H2837 0.950 . S
C2867 C2862 1.363 . S
C2867 C2866 1.415 . S
H2868 C2865 0.999 . S
H2869 C2850 0.913 . S
C504 C299 0.562 . S
C489 C4 0.161 . S
C554 C300 1.827 . S
C539 C63 1.941 . S
C604 C294 0.917 . S
C589 C72 0.934 . S
C639 C102 1.100 . S
C654 C293 1.091 . S
C689 C136 1.940 . S
C704 C296 1.825 . S
C754 C298 0.916 . S
C739 C183 0.930 . S
C789 C233 1.099 . S
C804 C297 1.094 . S
C839 C251 0.165 . S
C854 C295 0.566 . S
C904 C330 1.552 . S
C889 C29 1.551 . S
C939 C42 2.050 . S
C954 C361 1.974 . S
C1004 C329 1.431 . S
C989 C97 1.479 . S
C1054 C364 1.007 . S
C1039 C115 1.010 . S
C1089 C149 1.162 . S
C1104 C327 1.165 . S
C1154 C359 1.550 . S
C1139 C187 1.562 . S
C1189 C212 1.771 . S
C1204 C332 1.732 . S
C1239 C255 1.474 . S
C1254 C366 1.407 . S
C1289 C8 1.474 . S
C1304 C362 1.403 . S
C1339 C153 2.050 . S
C1354 C365 1.971 . S
C1404 C333 1.431 . S
C1389 C170 1.482 . S
C1454 C360 1.007 . S
C1439 C208 1.019 . S
C1489 C238 1.552 . S
C1504 C326 1.553 . S
C1539 C76 1.563 . S
C1554 C363 1.550 . S
C1604 C328 1.731 . S
C1589 C119 1.770 . S
C1639 C38 1.163 . S
C1654 C331 1.161 . S
C1689 C242 0.144 . S
C1704 C398 0.564 . S
C1739 C165 1.291 . S
C1754 C399 1.213 . S
C1804 C393 0.912 . S
C1789 C174 0.927 . S
C1854 C392 1.722 . S
C1839 C204 1.744 . S
C1889 C34 1.291 . S
C1904 C395 1.212 . S
C1954 C397 0.913 . S
C1939 C81 0.925 . S
C1989 C131 1.742 . S
C2004 C396 1.721 . S
C2039 C13 0.143 . S
C2054 C394 0.567 . S
C2089 C267 1.703 . S
C2104 C432 1.632 . S
C2154 C464 1.742 . S
C2139 C144 1.778 . S
C2189 C199 1.330 . S
C2204 C425 1.327 . S
C2239 C217 1.198 . S
C2254 C459 1.209 . S
C2304 C430 0.989 . S
C2289 C47 0.991 . S
C2339 C85 1.799 . S
C2354 C461 1.732 . S
C2404 C427 1.985 . S
C2389 C110 2.053 . S
C2454 C462 1.342 . S
C2439 C17 1.344 . S
C2504 C458 1.342 . S
C2489 C246 1.343 . S
C2539 C51 1.778 . S
C2554 C460 1.743 . S
C2589 C68 1.330 . S
C2604 C429 1.330 . S
C2654 C463 1.209 . S
C2639 C106 1.198 . S
C2689 C0 1.703 . S
C2704 C428 1.628 . S
C2739 C178 1.800 . S
C2754 C465 1.731 . S
C2804 C431 1.984 . S
C2789 C221 2.056 . S
C2854 C426 0.989 . S
C2839 C140 0.987 . S
