# Generated by pormake.
# Topology gar, (4,6)-cn, num edge types: 1
# Building blocks:
#     Node 0, Type 0, BuildingBlock: AZAVOO_clean_sbu_0, # of connection points: 4
#     Node 1, Type 0, BuildingBlock: AZAVOO_clean_sbu_0, # of connection points: 4
#     Node 2, Type 0, BuildingBlock: AZAVOO_clean_sbu_0, # of connection points: 4
#     Node 3, Type 0, BuildingBlock: AZAVOO_clean_sbu_0, # of connection points: 4
#     Node 4, Type 0, BuildingBlock: AZAVOO_clean_sbu_0, # of connection points: 4
#     Node 5, Type 0, BuildingBlock: AZAVOO_clean_sbu_0, # of connection points: 4
#     Node 6, Type 0, BuildingBlock: AZAVOO_clean_sbu_0, # of connection points: 4
#     Node 7, Type 0, BuildingBlock: AZAVOO_clean_sbu_0, # of connection points: 4
#     Node 8, Type 0, BuildingBlock: AZAVOO_clean_sbu_0, # of connection points: 4
#     Node 9, Type 0, BuildingBlock: AZAVOO_clean_sbu_0, # of connection points: 4
#     Node 10, Type 0, BuildingBlock: AZAVOO_clean_sbu_0, # of connection points: 4
#     Node 11, Type 0, BuildingBlock: AZAVOO_clean_sbu_0, # of connection points: 4
#     Node 12, Type 0, BuildingBlock: AZAVOO_clean_sbu_0, # of connection points: 4
#     Node 13, Type 0, BuildingBlock: AZAVOO_clean_sbu_0, # of connection points: 4
#     Node 14, Type 0, BuildingBlock: AZAVOO_clean_sbu_0, # of connection points: 4
#     Node 15, Type 0, BuildingBlock: AZAVOO_clean_sbu_0, # of connection points: 4
#     Node 16, Type 0, BuildingBlock: AZAVOO_clean_sbu_0, # of connection points: 4
#     Node 17, Type 0, BuildingBlock: AZAVOO_clean_sbu_0, # of connection points: 4
#     Node 18, Type 0, BuildingBlock: AZAVOO_clean_sbu_0, # of connection points: 4
#     Node 19, Type 0, BuildingBlock: AZAVOO_clean_sbu_0, # of connection points: 4
#     Node 20, Type 0, BuildingBlock: AZAVOO_clean_sbu_0, # of connection points: 4
#     Node 21, Type 0, BuildingBlock: AZAVOO_clean_sbu_0, # of connection points: 4
#     Node 22, Type 0, BuildingBlock: AZAVOO_clean_sbu_0, # of connection points: 4
#     Node 23, Type 0, BuildingBlock: AZAVOO_clean_sbu_0, # of connection points: 4
#     Node 24, Type 1, BuildingBlock: BETFEN_clean_sbu_0, # of connection points: 6
#     Node 25, Type 1, BuildingBlock: BETFEN_clean_sbu_0, # of connection points: 6
#     Node 26, Type 1, BuildingBlock: BETFEN_clean_sbu_0, # of connection points: 6
#     Node 27, Type 1, BuildingBlock: BETFEN_clean_sbu_0, # of connection points: 6
#     Node 28, Type 1, BuildingBlock: BETFEN_clean_sbu_0, # of connection points: 6
#     Node 29, Type 1, BuildingBlock: BETFEN_clean_sbu_0, # of connection points: 6
#     Node 30, Type 1, BuildingBlock: BETFEN_clean_sbu_0, # of connection points: 6
#     Node 31, Type 1, BuildingBlock: BETFEN_clean_sbu_0, # of connection points: 6
#     Node 32, Type 1, BuildingBlock: BETFEN_clean_sbu_0, # of connection points: 6
#     Node 33, Type 1, BuildingBlock: BETFEN_clean_sbu_0, # of connection points: 6
#     Node 34, Type 1, BuildingBlock: BETFEN_clean_sbu_0, # of connection points: 6
#     Node 35, Type 1, BuildingBlock: BETFEN_clean_sbu_0, # of connection points: 6
#     Node 36, Type 1, BuildingBlock: BETFEN_clean_sbu_0, # of connection points: 6
#     Node 37, Type 1, BuildingBlock: BETFEN_clean_sbu_0, # of connection points: 6
#     Node 38, Type 1, BuildingBlock: BETFEN_clean_sbu_0, # of connection points: 6
#     Node 39, Type 1, BuildingBlock: BETFEN_clean_sbu_0, # of connection points: 6
#     Edge 40, Type (0, 1), BuildingBlock: XIVTED_clean_linker_0, # of connection points: 2
#     Edge 41, Type (0, 1), BuildingBlock: XIVTED_clean_linker_0, # of connection points: 2
#     Edge 42, Type (0, 1), BuildingBlock: XIVTED_clean_linker_0, # of connection points: 2
#     Edge 43, Type (0, 1), BuildingBlock: XIVTED_clean_linker_0, # of connection points: 2
#     Edge 44, Type (0, 1), BuildingBlock: XIVTED_clean_linker_0, # of connection points: 2
#     Edge 45, Type (0, 1), BuildingBlock: XIVTED_clean_linker_0, # of connection points: 2
#     Edge 46, Type (0, 1), BuildingBlock: XIVTED_clean_linker_0, # of connection points: 2
#     Edge 47, Type (0, 1), BuildingBlock: XIVTED_clean_linker_0, # of connection points: 2
#     Edge 48, Type (0, 1), BuildingBlock: XIVTED_clean_linker_0, # of connection points: 2
#     Edge 49, Type (0, 1), BuildingBlock: XIVTED_clean_linker_0, # of connection points: 2
#     Edge 50, Type (0, 1), BuildingBlock: XIVTED_clean_linker_0, # of connection points: 2
#     Edge 51, Type (0, 1), BuildingBlock: XIVTED_clean_linker_0, # of connection points: 2
#     Edge 52, Type (0, 1), BuildingBlock: XIVTED_clean_linker_0, # of connection points: 2
#     Edge 53, Type (0, 1), BuildingBlock: XIVTED_clean_linker_0, # of connection points: 2
#     Edge 54, Type (0, 1), BuildingBlock: XIVTED_clean_linker_0, # of connection points: 2
#     Edge 55, Type (0, 1), BuildingBlock: XIVTED_clean_linker_0, # of connection points: 2
#     Edge 56, Type (0, 1), BuildingBlock: XIVTED_clean_linker_0, # of connection points: 2
#     Edge 57, Type (0, 1), BuildingBlock: XIVTED_clean_linker_0, # of connection points: 2
#     Edge 58, Type (0, 1), BuildingBlock: XIVTED_clean_linker_0, # of connection points: 2
#     Edge 59, Type (0, 1), BuildingBlock: XIVTED_clean_linker_0, # of connection points: 2
#     Edge 60, Type (0, 1), BuildingBlock: XIVTED_clean_linker_0, # of connection points: 2
#     Edge 61, Type (0, 1), BuildingBlock: XIVTED_clean_linker_0, # of connection points: 2
#     Edge 62, Type (0, 1), BuildingBlock: XIVTED_clean_linker_0, # of connection points: 2
#     Edge 63, Type (0, 1), BuildingBlock: XIVTED_clean_linker_0, # of connection points: 2
#     Edge 64, Type (0, 1), BuildingBlock: XIVTED_clean_linker_0, # of connection points: 2
#     Edge 65, Type (0, 1), BuildingBlock: XIVTED_clean_linker_0, # of connection points: 2
#     Edge 66, Type (0, 1), BuildingBlock: XIVTED_clean_linker_0, # of connection points: 2
#     Edge 67, Type (0, 1), BuildingBlock: XIVTED_clean_linker_0, # of connection points: 2
#     Edge 68, Type (0, 1), BuildingBlock: XIVTED_clean_linker_0, # of connection points: 2
#     Edge 69, Type (0, 1), BuildingBlock: XIVTED_clean_linker_0, # of connection points: 2
#     Edge 70, Type (0, 1), BuildingBlock: XIVTED_clean_linker_0, # of connection points: 2
#     Edge 71, Type (0, 1), BuildingBlock: XIVTED_clean_linker_0, # of connection points: 2
#     Edge 72, Type (0, 1), BuildingBlock: XIVTED_clean_linker_0, # of connection points: 2
#     Edge 73, Type (0, 1), BuildingBlock: XIVTED_clean_linker_0, # of connection points: 2
#     Edge 74, Type (0, 1), BuildingBlock: XIVTED_clean_linker_0, # of connection points: 2
#     Edge 75, Type (0, 1), BuildingBlock: XIVTED_clean_linker_0, # of connection points: 2
#     Edge 76, Type (0, 1), BuildingBlock: XIVTED_clean_linker_0, # of connection points: 2
#     Edge 77, Type (0, 1), BuildingBlock: XIVTED_clean_linker_0, # of connection points: 2
#     Edge 78, Type (0, 1), BuildingBlock: XIVTED_clean_linker_0, # of connection points: 2
#     Edge 79, Type (0, 1), BuildingBlock: XIVTED_clean_linker_0, # of connection points: 2
#     Edge 80, Type (0, 1), BuildingBlock: XIVTED_clean_linker_0, # of connection points: 2
#     Edge 81, Type (0, 1), BuildingBlock: XIVTED_clean_linker_0, # of connection points: 2
#     Edge 82, Type (0, 1), BuildingBlock: XIVTED_clean_linker_0, # of connection points: 2
#     Edge 83, Type (0, 1), BuildingBlock: XIVTED_clean_linker_0, # of connection points: 2
#     Edge 84, Type (0, 1), BuildingBlock: XIVTED_clean_linker_0, # of connection points: 2
#     Edge 85, Type (0, 1), BuildingBlock: XIVTED_clean_linker_0, # of connection points: 2
#     Edge 86, Type (0, 1), BuildingBlock: XIVTED_clean_linker_0, # of connection points: 2
#     Edge 87, Type (0, 1), BuildingBlock: XIVTED_clean_linker_0, # of connection points: 2
#     Edge 88, Type (0, 1), BuildingBlock: XIVTED_clean_linker_0, # of connection points: 2
#     Edge 89, Type (0, 1), BuildingBlock: XIVTED_clean_linker_0, # of connection points: 2
#     Edge 90, Type (0, 1), BuildingBlock: XIVTED_clean_linker_0, # of connection points: 2
#     Edge 91, Type (0, 1), BuildingBlock: XIVTED_clean_linker_0, # of connection points: 2
#     Edge 92, Type (0, 1), BuildingBlock: XIVTED_clean_linker_0, # of connection points: 2
#     Edge 93, Type (0, 1), BuildingBlock: XIVTED_clean_linker_0, # of connection points: 2
#     Edge 94, Type (0, 1), BuildingBlock: XIVTED_clean_linker_0, # of connection points: 2
#     Edge 95, Type (0, 1), BuildingBlock: XIVTED_clean_linker_0, # of connection points: 2
#     Edge 96, Type (0, 1), BuildingBlock: XIVTED_clean_linker_0, # of connection points: 2
#     Edge 97, Type (0, 1), BuildingBlock: XIVTED_clean_linker_0, # of connection points: 2
#     Edge 98, Type (0, 1), BuildingBlock: XIVTED_clean_linker_0, # of connection points: 2
#     Edge 99, Type (0, 1), BuildingBlock: XIVTED_clean_linker_0, # of connection points: 2
#     Edge 100, Type (0, 1), BuildingBlock: XIVTED_clean_linker_0, # of connection points: 2
#     Edge 101, Type (0, 1), BuildingBlock: XIVTED_clean_linker_0, # of connection points: 2
#     Edge 102, Type (0, 1), BuildingBlock: XIVTED_clean_linker_0, # of connection points: 2
#     Edge 103, Type (0, 1), BuildingBlock: XIVTED_clean_linker_0, # of connection points: 2
#     Edge 104, Type (0, 1), BuildingBlock: XIVTED_clean_linker_0, # of connection points: 2
#     Edge 105, Type (0, 1), BuildingBlock: XIVTED_clean_linker_0, # of connection points: 2
#     Edge 106, Type (0, 1), BuildingBlock: XIVTED_clean_linker_0, # of connection points: 2
#     Edge 107, Type (0, 1), BuildingBlock: XIVTED_clean_linker_0, # of connection points: 2
#     Edge 108, Type (0, 1), BuildingBlock: XIVTED_clean_linker_0, # of connection points: 2
#     Edge 109, Type (0, 1), BuildingBlock: XIVTED_clean_linker_0, # of connection points: 2
#     Edge 110, Type (0, 1), BuildingBlock: XIVTED_clean_linker_0, # of connection points: 2
#     Edge 111, Type (0, 1), BuildingBlock: XIVTED_clean_linker_0, # of connection points: 2
#     Edge 112, Type (0, 1), BuildingBlock: XIVTED_clean_linker_0, # of connection points: 2
#     Edge 113, Type (0, 1), BuildingBlock: XIVTED_clean_linker_0, # of connection points: 2
#     Edge 114, Type (0, 1), BuildingBlock: XIVTED_clean_linker_0, # of connection points: 2
#     Edge 115, Type (0, 1), BuildingBlock: XIVTED_clean_linker_0, # of connection points: 2
#     Edge 116, Type (0, 1), BuildingBlock: XIVTED_clean_linker_0, # of connection points: 2
#     Edge 117, Type (0, 1), BuildingBlock: XIVTED_clean_linker_0, # of connection points: 2
#     Edge 118, Type (0, 1), BuildingBlock: XIVTED_clean_linker_0, # of connection points: 2
#     Edge 119, Type (0, 1), BuildingBlock: XIVTED_clean_linker_0, # of connection points: 2
#     Edge 120, Type (0, 1), BuildingBlock: XIVTED_clean_linker_0, # of connection points: 2
#     Edge 121, Type (0, 1), BuildingBlock: XIVTED_clean_linker_0, # of connection points: 2
#     Edge 122, Type (0, 1), BuildingBlock: XIVTED_clean_linker_0, # of connection points: 2
#     Edge 123, Type (0, 1), BuildingBlock: XIVTED_clean_linker_0, # of connection points: 2
#     Edge 124, Type (0, 1), BuildingBlock: XIVTED_clean_linker_0, # of connection points: 2
#     Edge 125, Type (0, 1), BuildingBlock: XIVTED_clean_linker_0, # of connection points: 2
#     Edge 126, Type (0, 1), BuildingBlock: XIVTED_clean_linker_0, # of connection points: 2
#     Edge 127, Type (0, 1), BuildingBlock: XIVTED_clean_linker_0, # of connection points: 2
#     Edge 128, Type (0, 1), BuildingBlock: XIVTED_clean_linker_0, # of connection points: 2
#     Edge 129, Type (0, 1), BuildingBlock: XIVTED_clean_linker_0, # of connection points: 2
#     Edge 130, Type (0, 1), BuildingBlock: XIVTED_clean_linker_0, # of connection points: 2
#     Edge 131, Type (0, 1), BuildingBlock: XIVTED_clean_linker_0, # of connection points: 2
#     Edge 132, Type (0, 1), BuildingBlock: XIVTED_clean_linker_0, # of connection points: 2
#     Edge 133, Type (0, 1), BuildingBlock: XIVTED_clean_linker_0, # of connection points: 2
#     Edge 134, Type (0, 1), BuildingBlock: XIVTED_clean_linker_0, # of connection points: 2
#     Edge 135, Type (0, 1), BuildingBlock: XIVTED_clean_linker_0, # of connection points: 2
# Relax obj value: 0.221
# Max RMSD: 0.329
# Mean RMSD: 0.202
data_MOF--net-gar--node1-AZAVOO_clean_sbu_0--node2-BETFEN_clean_sbu_0--edge1-XIVTED_clean_linker_0
_symmetry_space_group_name_H-M    P1
_symmetry_Int_Tables_number       1
_symmetry_cell_setting            triclinic
loop_
_symmetry_equiv_pos_as_xyz
'x, y, z'
_cell_length_a     65.322001
_cell_length_b     55.947543
_cell_length_c     57.198193
_cell_angle_alpha  97.244208
_cell_angle_beta   98.955379
_cell_angle_gamma 104.03595
loop_
_atom_site_label
_atom_site_type_symbol
_atom_site_fract_x
_atom_site_fract_y
_atom_site_fract_z
_atom_type_partial_charge
Mg0 Mg 0.02003 0.31145 0.39862 0.0
O1 O 0.02757 0.34967 0.425 0.0
O2 O 0.99863 0.34685 0.44203 0.0
Mg3 Mg 0.97475 0.30801 0.42945 0.0
C4 C 0.01687 0.35923 0.43883 0.0
C5 C 0.05287 0.30969 0.36852 0.0
O6 O 0.0338 0.29838 0.3553 0.0
O7 O 0.02694 0.28857 0.4281 0.0
O8 O 0.99748 0.28483 0.44415 0.0
O9 O 0.00308 0.32708 0.36999 0.0
O10 O 0.98698 0.30698 0.39578 0.0
C11 C 0.01515 0.27931 0.44236 0.0
C12 C 0.98571 0.31905 0.37809 0.0
O13 O 0.05398 0.31865 0.39043 0.0
Mg14 Mg 0.07375 0.85591 0.65929 0.0
O15 O 0.06568 0.81719 0.63439 0.0
O16 O 0.03263 0.81112 0.61355 0.0
Mg17 Mg 0.0191 0.84385 0.62639 0.0
C18 C 0.0496 0.80381 0.61863 0.0
C19 C 0.11879 0.86591 0.68827 0.0
O20 O 0.10972 0.87982 0.70129 0.0
O21 O 0.0777 0.88035 0.62925 0.0
O22 O 0.04302 0.87337 0.61231 0.0
O23 O 0.05956 0.83766 0.6881 0.0
O24 O 0.04172 0.85397 0.66125 0.0
C25 C 0.06284 0.88491 0.61437 0.0
C26 C 0.04201 0.84311 0.67975 0.0
O27 O 0.10852 0.85443 0.66758 0.0
Mg28 Mg 0.52008 0.80945 0.89817 0.0
O29 O 0.52614 0.84677 0.92492 0.0
O30 O 0.49684 0.84167 0.94146 0.0
Mg31 Mg 0.47314 0.80304 0.92667 0.0
C32 C 0.51497 0.85508 0.93894 0.0
C33 C 0.55382 0.80391 0.87135 0.0
O34 O 0.53547 0.78782 0.86073 0.0
O35 O 0.52695 0.78648 0.92787 0.0
O36 O 0.49564 0.77945 0.94055 0.0
O37 O 0.50347 0.82509 0.86917 0.0
O38 O 0.48682 0.80421 0.8941 0.0
C39 C 0.51411 0.77555 0.94036 0.0
C40 C 0.48584 0.81658 0.87662 0.0
O41 O 0.55434 0.81796 0.89088 0.0
Mg42 Mg 0.57174 0.3531 0.15846 0.0
O43 O 0.56381 0.31497 0.13323 0.0
O44 O 0.53058 0.30767 0.11233 0.0
Mg45 Mg 0.51758 0.34147 0.12379 0.0
C46 C 0.54784 0.30102 0.11774 0.0
C47 C 0.61815 0.36447 0.18638 0.0
O48 O 0.61111 0.3818 0.19779 0.0
O49 O 0.57684 0.37704 0.12854 0.0
O50 O 0.54246 0.37135 0.11097 0.0
O51 O 0.55603 0.33548 0.18692 0.0
O52 O 0.53965 0.35188 0.15899 0.0
C53 C 0.56248 0.38224 0.11354 0.0
C54 C 0.53907 0.34175 0.17788 0.0
O55 O 0.60618 0.35046 0.16755 0.0
Mg56 Mg 0.07889 0.86146 0.15642 0.0
O57 O 0.07629 0.82454 0.13168 0.0
O58 O 0.04313 0.81157 0.10934 0.0
Mg59 Mg 0.02389 0.83921 0.11822 0.0
C60 C 0.06191 0.80888 0.11559 0.0
C61 C 0.11967 0.84999 0.18332 0.0
O62 O 0.10327 0.83431 0.18864 0.0
O63 O 0.08148 0.88569 0.12522 0.0
O64 O 0.04675 0.87139 0.10792 0.0
O65 O 0.06289 0.84029 0.18351 0.0
O66 O 0.04479 0.85203 0.15368 0.0
C67 C 0.06516 0.88659 0.10982 0.0
C68 C 0.04451 0.84095 0.1719 0.0
O69 O 0.11576 0.86506 0.16921 0.0
Mg70 Mg 0.51309 0.80457 0.39963 0.0
O71 O 0.51696 0.84085 0.42571 0.0
O72 O 0.48847 0.83489 0.44371 0.0
Mg73 Mg 0.4668 0.79532 0.4293 0.0
C74 C 0.50614 0.84852 0.44038 0.0
C75 C 0.5512 0.81981 0.3745 0.0
O76 O 0.53433 0.81378 0.35694 0.0
O77 O 0.52216 0.78369 0.43 0.0
O78 O 0.49253 0.77671 0.44575 0.0
O79 O 0.49521 0.81962 0.3712 0.0
O80 O 0.47921 0.79721 0.39555 0.0
C81 C 0.5113 0.774 0.44481 0.0
C82 C 0.47776 0.81044 0.37871 0.0
O83 O 0.54826 0.81783 0.39571 0.0
Mg84 Mg 0.58003 0.3607 0.65473 0.0
O85 O 0.57405 0.32322 0.63024 0.0
O86 O 0.54037 0.31173 0.60916 0.0
Mg87 Mg 0.5235 0.34121 0.62148 0.0
C88 C 0.55892 0.30808 0.61459 0.0
C89 C 0.62343 0.36495 0.68706 0.0
O90 O 0.61029 0.36891 0.70141 0.0
O91 O 0.58089 0.38376 0.62251 0.0
O92 O 0.54562 0.37099 0.6071 0.0
O93 O 0.56562 0.34036 0.68318 0.0
O94 O 0.54712 0.35426 0.65504 0.0
C95 C 0.56435 0.38481 0.60745 0.0
C96 C 0.54741 0.34322 0.67326 0.0
O97 O 0.61655 0.3619 0.66443 0.0
Mg98 Mg 0.01238 0.30369 0.8985 0.0
O99 O 0.01749 0.33984 0.92518 0.0
O100 O 0.99057 0.33431 0.94548 0.0
Mg101 Mg 0.96807 0.29504 0.931 0.0
C102 C 0.00783 0.34773 0.94102 0.0
C103 C 0.05268 0.33147 0.87924 0.0
O104 O 0.03782 0.34014 0.86767 0.0
O105 O 0.02217 0.28165 0.9279 0.0
O106 O 0.99386 0.27601 0.94596 0.0
O107 O 0.99309 0.31992 0.8719 0.0
O108 O 0.97864 0.29564 0.89595 0.0
C109 C 0.01212 0.27255 0.94361 0.0
C110 C 0.97623 0.30948 0.87987 0.0
O111 O 0.04744 0.31646 0.8936 0.0
Mg112 Mg 0.47629 0.19953 0.32377 0.0
O113 O 0.45208 0.16188 0.31982 0.0
O114 O 0.43745 0.15951 0.35257 0.0
Mg115 Mg 0.453 0.19657 0.37787 0.0
C116 C 0.43911 0.15021 0.33162 0.0
C117 C 0.4945 0.1889 0.28003 0.0
O118 O 0.51154 0.20032 0.29669 0.0
O119 O 0.44844 0.21615 0.31628 0.0
O120 O 0.43494 0.21392 0.34977 0.0
O121 O 0.50134 0.18362 0.33998 0.0
O122 O 0.48157 0.20148 0.36098 0.0
C123 C 0.43452 0.21952 0.32875 0.0
C124 C 0.49508 0.18807 0.36006 0.0
O125 O 0.4761 0.18893 0.28446 0.0
Mg126 Mg 0.2779 0.21666 0.50336 0.0
O127 O 0.2831 0.24344 0.53929 0.0
O128 O 0.31739 0.26613 0.54744 0.0
Mg129 Mg 0.33387 0.25648 0.51629 0.0
C130 C 0.29887 0.25988 0.55299 0.0
C131 C 0.23383 0.18121 0.50498 0.0
O132 O 0.24721 0.16711 0.50436 0.0
O133 O 0.2768 0.24741 0.47933 0.0
O134 O 0.31158 0.26879 0.4875 0.0
O135 O 0.29112 0.18923 0.52281 0.0
O136 O 0.31141 0.21894 0.5083 0.0
C137 C 0.2924 0.26467 0.4757 0.0
C138 C 0.31003 0.2006 0.51992 0.0
O139 O 0.24094 0.20431 0.50379 0.0
Mg140 Mg 0.18218 0.10329 0.87143 0.0
O141 O 0.20533 0.13467 0.85977 0.0
O142 O 0.23179 0.15254 0.89093 0.0
Mg143 Mg 0.23012 0.12273 0.9143 0.0
C144 C 0.22164 0.15235 0.87004 0.0
C145 C 0.15818 0.11434 0.82676 0.0
O146 O 0.16397 0.13641 0.84055 0.0
O147 O 0.19876 0.07602 0.85995 0.0
O148 O 0.23149 0.0933 0.88231 0.0
O149 O 0.17163 0.13208 0.89014 0.0
O150 O 0.19421 0.11285 0.90816 0.0
C151 C 0.21854 0.07717 0.86522 0.0
C152 C 0.18064 0.12622 0.90959 0.0
O153 O 0.16317 0.09602 0.83466 0.0
Mg154 Mg 0.31623 0.95197 0.04707 0.0
O155 O 0.3093 0.92611 0.00931 0.0
O156 O 0.33735 0.90967 0.00951 0.0
Mg157 Mg 0.36135 0.92402 0.04554 0.0
C158 C 0.31957 0.91243 0.99892 0.0
C159 C 0.27779 0.96735 0.06274 0.0
O160 O 0.29187 0.97116 0.08284 0.0
O161 O 0.30892 0.91988 0.06881 0.0
O162 O 0.33884 0.90702 0.07018 0.0
O163 O 0.33466 0.98388 0.03203 0.0
O164 O 0.34912 0.95722 0.04929 0.0
C165 C 0.32106 0.90677 0.07702 0.0
C166 C 0.35155 0.97632 0.03864 0.0
O167 O 0.28216 0.9575 0.04342 0.0
Mg168 Mg 0.31995 0.44859 0.04866 0.0
O169 O 0.31482 0.42104 0.0135 0.0
O170 O 0.3399 0.40014 0.0172 0.0
Mg171 Mg 0.36182 0.41564 0.05439 0.0
C172 C 0.32367 0.40479 0.00502 0.0
C173 C 0.28313 0.47389 0.04733 0.0
O174 O 0.29901 0.48895 0.06357 0.0
O175 O 0.30808 0.41844 0.07177 0.0
O176 O 0.33543 0.40083 0.07558 0.0
O177 O 0.34192 0.47689 0.03264 0.0
O178 O 0.35337 0.45185 0.0553 0.0
C179 C 0.3175 0.40305 0.08059 0.0
C180 C 0.35776 0.4691 0.04248 0.0
O181 O 0.28604 0.45381 0.03701 0.0
Mg182 Mg 0.78593 0.21119 0.00882 0.0
O183 O 0.79144 0.23398 0.04719 0.0
O184 O 0.82333 0.26191 0.054 0.0
Mg185 Mg 0.8387 0.25513 0.02063 0.0
C186 C 0.80603 0.25187 0.06078 0.0
C187 C 0.73959 0.17618 0.99939 0.0
O188 O 0.74847 0.16336 0.98503 0.0
O189 O 0.78036 0.24274 0.98838 0.0
O190 O 0.81411 0.26668 0.9937 0.0
O191 O 0.80208 0.18335 0.02305 0.0
O192 O 0.81881 0.21586 0.00873 0.0
C193 C 0.79424 0.26103 0.98363 0.0
C194 C 0.81946 0.1958 0.01723 0.0
O195 O 0.75071 0.19733 0.01124 0.0
Mg196 Mg 0.12169 0.46552 0.23592 0.0
O197 O 0.14618 0.50339 0.249 0.0
O198 O 0.15757 0.51012 0.28894 0.0
Mg199 Mg 0.14152 0.47456 0.30133 0.0
C200 C 0.15767 0.51693 0.26849 0.0
C201 C 0.10224 0.4702 0.18728 0.0
O202 O 0.08659 0.45916 0.19736 0.0
O203 O 0.15032 0.44849 0.23796 0.0
O204 O 0.16068 0.45729 0.27792 0.0
O205 O 0.09643 0.48349 0.24408 0.0
O206 O 0.11482 0.46747 0.27077 0.0
C207 C 0.16344 0.449 0.2572 0.0
C208 C 0.1022 0.4815 0.26619 0.0
O209 O 0.1215 0.47247 0.19745 0.0
Mg210 Mg 0.82071 0.94982 0.55177 0.0
O211 O 0.81365 0.92216 0.51548 0.0
O212 O 0.83826 0.90048 0.51853 0.0
Mg213 Mg 0.86133 0.91491 0.55502 0.0
C214 C 0.82215 0.90562 0.50656 0.0
C215 C 0.78177 0.96992 0.52937 0.0
O216 O 0.79571 0.9793 0.51647 0.0
O217 O 0.80948 0.91991 0.57489 0.0
O218 O 0.83578 0.90062 0.57758 0.0
O219 O 0.84238 0.97812 0.53548 0.0
O220 O 0.85357 0.95144 0.55609 0.0
C221 C 0.81835 0.9039 0.5832 0.0
C222 C 0.858 0.96914 0.54379 0.0
O223 O 0.78696 0.95667 0.54462 0.0
Mg224 Mg 0.90635 0.06176 0.1918 0.0
O225 O 0.89262 0.02109 0.19851 0.0
O226 O 0.89518 0.02309 0.23844 0.0
Mg227 Mg 0.89152 0.06148 0.25072 0.0
C228 C 0.89238 0.01076 0.21728 0.0
C229 C 0.9188 0.03513 0.15018 0.0
O230 O 0.92362 0.02223 0.1669 0.0
O231 O 0.87343 0.06914 0.18256 0.0
O232 O 0.87017 0.05288 0.21434 0.0
O233 O 0.93841 0.0606 0.21004 0.0
O234 O 0.91586 0.07521 0.22932 0.0
C235 C 0.86577 0.06847 0.20151 0.0
C236 C 0.93377 0.06939 0.22996 0.0
O237 O 0.90635 0.04889 0.15338 0.0
Mg238 Mg 0.28637 0.71081 0.50951 0.0
O239 O 0.29095 0.7326 0.54859 0.0
O240 O 0.32148 0.76272 0.55428 0.0
Mg241 Mg 0.33872 0.75547 0.52255 0.0
C242 C 0.30471 0.75177 0.56158 0.0
C243 C 0.24233 0.67257 0.50522 0.0
O244 O 0.25452 0.65768 0.50077 0.0
O245 O 0.28118 0.74271 0.48942 0.0
O246 O 0.31491 0.76653 0.49423 0.0
O247 O 0.30172 0.68223 0.52278 0.0
O248 O 0.31956 0.71579 0.51095 0.0
C249 C 0.29503 0.76069 0.48419 0.0
C250 C 0.31963 0.69499 0.51832 0.0
O251 O 0.2506 0.6961 0.50935 0.0
Mg252 Mg 0.40435 0.55882 0.69054 0.0
O253 O 0.38962 0.51521 0.68514 0.0
O254 O 0.38579 0.53271 0.71884 0.0
Mg255 Mg 0.38301 0.55575 0.75204 0.0
C256 C 0.38448 0.51265 0.70521 0.0
C257 C 0.42022 0.54093 0.64757 0.0
O258 O 0.42266 0.52482 0.66191 0.0
O259 O 0.37197 0.569 0.68373 0.0
O260 O 0.36506 0.54919 0.71303 0.0
O261 O 0.43513 0.55505 0.71109 0.0
O262 O 0.40965 0.56303 0.72973 0.0
C263 C 0.36364 0.56745 0.7024 0.0
C264 C 0.42849 0.5594 0.73095 0.0
O265 O 0.40934 0.55615 0.6526 0.0
Mg266 Mg 0.6224 0.97121 0.73688 0.0
O267 O 0.64865 0.00715 0.75149 0.0
O268 O 0.65867 0.01141 0.79141 0.0
Mg269 Mg 0.63906 0.97619 0.80221 0.0
C270 C 0.66011 0.0193 0.77156 0.0
C271 C 0.60628 0.97119 0.68504 0.0
O272 O 0.59022 0.95663 0.6921 0.0
O273 O 0.64895 0.95056 0.73941 0.0
O274 O 0.6558 0.95465 0.77937 0.0
O275 O 0.59803 0.99132 0.74376 0.0
O276 O 0.61402 0.97377 0.77108 0.0
C277 C 0.6591 0.94659 0.75887 0.0
C278 C 0.6024 0.98875 0.76594 0.0
O279 O 0.62446 0.97859 0.69913 0.0
Mg280 Mg 0.77812 0.71445 1.00228 0.0
O281 O 0.78196 0.74096 0.03849 0.0
O282 O 0.81594 0.76452 0.04757 0.0
Mg283 Mg 0.83358 0.75563 0.01716 0.0
C284 C 0.79727 0.7577 0.05262 0.0
C285 C 0.73411 0.69228 0.01877 0.0
O286 O 0.7483 0.69263 0.0379 0.0
O287 O 0.7773 0.74534 0.97752 0.0
O288 O 0.81186 0.76726 0.98774 0.0
O289 O 0.79279 0.68765 0.02241 0.0
O290 O 0.81149 0.71804 0.00745 0.0
C291 C 0.79313 0.76297 0.97478 0.0
C292 C 0.81127 0.69972 0.01879 0.0
O293 O 0.74092 0.70075 1.00084 0.0
Mg294 Mg 0.97945 0.69943 0.82066 0.0
O295 O 0.95471 0.66099 0.80822 0.0
O296 O 0.93924 0.65376 0.83999 0.0
Mg297 Mg 0.95329 0.68525 0.87148 0.0
C298 C 0.94104 0.6476 0.8183 0.0
C299 C 0.98063 0.69231 0.76193 0.0
O300 O 0.9818 0.70408 0.74352 0.0
O301 O 0.95165 0.71683 0.81732 0.0
O302 O 0.93561 0.70688 0.84794 0.0
O303 O 0.00429 0.6808 0.8345 0.0
O304 O 0.98215 0.69357 0.85564 0.0
C305 C 0.93663 0.71678 0.82911 0.0
C306 C 0.99654 0.68166 0.85404 0.0
O307 O 0.98199 0.70499 0.78242 0.0
Mg308 Mg 0.81541 0.45057 0.54632 0.0
O309 O 0.80927 0.42544 0.50812 0.0
O310 O 0.83816 0.41045 0.50932 0.0
Mg311 Mg 0.86068 0.42262 0.54624 0.0
C312 C 0.82057 0.41296 0.49795 0.0
C313 C 0.78186 0.47457 0.55881 0.0
O314 O 0.80017 0.48555 0.57372 0.0
O315 O 0.80721 0.41813 0.56713 0.0
O316 O 0.83681 0.4045 0.56901 0.0
O317 O 0.83491 0.48306 0.53277 0.0
O318 O 0.84832 0.45561 0.54993 0.0
C319 C 0.81878 0.40438 0.57517 0.0
C320 C 0.85147 0.47511 0.53991 0.0
O321 O 0.78148 0.45652 0.54259 0.0
Mg322 Mg 0.67796 0.59087 0.34611 0.0
O323 O 0.69243 0.63012 0.33929 0.0
O324 O 0.71134 0.65164 0.37501 0.0
Mg325 Mg 0.70718 0.62711 0.40399 0.0
C326 C 0.70483 0.65008 0.35247 0.0
C327 C 0.6629 0.5776 0.28898 0.0
O328 O 0.66226 0.56458 0.26799 0.0
O329 O 0.71007 0.58571 0.35053 0.0
O330 O 0.72811 0.60355 0.38755 0.0
O331 O 0.64812 0.5994 0.35218 0.0
O332 O 0.67674 0.60421 0.38061 0.0
C333 C 0.72668 0.59089 0.36685 0.0
C334 C 0.65733 0.60577 0.37467 0.0
O335 O 0.67342 0.57309 0.30756 0.0
Pr336 Pr 0.02238 0.07004 0.01064 0.0
Pr337 Pr 0.07193 0.09287 0.03918 0.0
C338 C 0.97958 0.06307 0.99838 0.0
C339 C 0.96497 0.07958 0.99708 0.0
C340 C 0.94602 0.07298 0.97955 0.0
C341 C 0.93112 0.08733 0.97981 0.0
C342 C 0.93488 0.10837 0.99781 0.0
C343 C 0.95439 0.11562 0.01455 0.0
C344 C 0.96931 0.10148 0.01412 0.0
C345 C 0.05357 0.07682 0.98322 0.0
C346 C 0.04621 0.13294 0.02217 0.0
C347 C 0.11451 0.09934 0.05329 0.0
C348 C 0.12899 0.08271 0.05592 0.0
C349 C 0.14612 0.08834 0.07563 0.0
C350 C 0.16075 0.07365 0.07739 0.0
C351 C 0.15858 0.05307 0.05936 0.0
C352 C 0.14087 0.04694 0.04013 0.0
C353 C 0.12625 0.06155 0.03843 0.0
C354 C 0.04012 0.08577 0.06618 0.0
C355 C 0.04972 0.03028 0.02579 0.0
O356 O 0.98941 0.06234 0.01999 0.0
O357 O 0.99196 0.06332 0.9824 0.0
O358 O 0.05304 0.09083 1.00182 0.0
O359 O 0.03633 0.05805 0.97652 0.0
O360 O 0.06557 0.12946 0.02794 0.0
O361 O 0.02828 0.11445 0.01906 0.0
O362 O 0.10545 0.09982 0.03131 0.0
O363 O 0.10155 0.0997 0.06859 0.0
O364 O 0.0411 0.07161 0.04791 0.0
O365 O 0.05699 0.105 0.07254 0.0
O366 O 0.03006 0.03322 0.02035 0.0
O367 O 0.06719 0.04925 0.02906 0.0
H368 H 0.94243 0.0563 0.9661 0.0
H369 H 0.91625 0.08133 0.96666 0.0
H370 H 0.9579 0.13198 0.02835 0.0
H371 H 0.98397 0.10727 0.02761 0.0
H372 H 0.14847 0.10444 0.08942 0.0
H373 H 0.17419 0.07899 0.09242 0.0
H374 H 0.13838 0.03092 0.0262 0.0
H375 H 0.113 0.05649 0.02319 0.0
Pr376 Pr 0.31026 0.86399 0.29443 0.0
Pr377 Pr 0.29164 0.80491 0.26692 0.0
C378 C 0.33785 0.90738 0.31565 0.0
C379 C 0.34386 0.93183 0.30838 0.0
C380 C 0.3283 0.94187 0.29641 0.0
C381 C 0.33458 0.96462 0.28844 0.0
C382 C 0.35647 0.97735 0.29206 0.0
C383 C 0.37195 0.96683 0.30349 0.0
C384 C 0.36567 0.94427 0.31161 0.0
C385 C 0.2679 0.85478 0.26894 0.0
C386 C 0.30973 0.84953 0.23543 0.0
C387 C 0.26583 0.76062 0.24495 0.0
C388 C 0.25911 0.7358 0.25169 0.0
C389 C 0.26982 0.71739 0.24633 0.0
C390 C 0.26224 0.69334 0.25126 0.0
C391 C 0.24382 0.68753 0.26137 0.0
C392 C 0.23391 0.70623 0.26797 0.0
C393 C 0.24143 0.73013 0.26313 0.0
C394 C 0.33442 0.81506 0.2913 0.0
C395 C 0.29148 0.81938 0.3259 0.0
O396 O 0.34366 0.88976 0.30307 0.0
O397 O 0.31846 0.90022 0.32044 0.0
O398 O 0.27913 0.83945 0.27107 0.0
O399 O 0.27889 0.8766 0.28112 0.0
O400 O 0.29967 0.82585 0.23508 0.0
O401 O 0.31632 0.86665 0.25522 0.0
O402 O 0.25878 0.77827 0.25575 0.0
O403 O 0.2858 0.7682 0.24212 0.0
O404 O 0.32247 0.82958 0.29013 0.0
O405 O 0.3241 0.79347 0.27829 0.0
O406 O 0.30202 0.84288 0.32605 0.0
O407 O 0.28458 0.80232 0.30598 0.0
H408 H 0.31136 0.93218 0.29321 0.0
H409 H 0.32236 0.97234 0.27966 0.0
H410 H 0.38892 0.97646 0.30696 0.0
H411 H 0.37786 0.93651 0.32045 0.0
H412 H 0.28357 0.7213 0.23764 0.0
H413 H 0.26995 0.67899 0.24591 0.0
H414 H 0.21967 0.70198 0.27586 0.0
H415 H 0.23291 0.7439 0.26766 0.0
Pr416 Pr 0.56849 0.08508 0.52565 0.0
Pr417 Pr 0.52112 0.07938 0.53054 0.0
C418 C 0.60804 0.08084 0.52138 0.0
C419 C 0.62113 0.06295 0.51878 0.0
C420 C 0.63652 0.06691 0.50412 0.0
C421 C 0.65063 0.05178 0.50297 0.0
C422 C 0.64965 0.03237 0.51653 0.0
C423 C 0.63345 0.02766 0.53029 0.0
C424 C 0.61927 0.0428 0.53138 0.0
C425 C 0.54441 0.1038 0.49176 0.0
C426 C 0.53258 0.03 0.50621 0.0
C427 C 0.48099 0.08386 0.53166 0.0
C428 C 0.4679 0.10184 0.53533 0.0
C429 C 0.4558 0.1004 0.55367 0.0
C430 C 0.441 0.11466 0.55546 0.0
C431 C 0.43788 0.13042 0.53877 0.0
C432 C 0.45064 0.13276 0.52112 0.0
C433 C 0.46563 0.11874 0.51949 0.0
C434 C 0.54413 0.05905 0.56393 0.0
C435 C 0.55823 0.13418 0.55185 0.0
O436 O 0.60241 0.08553 0.54215 0.0
O437 O 0.5931 0.07998 0.50297 0.0
O438 O 0.53776 0.08329 0.49856 0.0
O439 O 0.56438 0.11463 0.50123 0.0
O440 O 0.51696 0.04129 0.50557 0.0
O441 O 0.55267 0.04194 0.51615 0.0
O442 O 0.48879 0.08224 0.51193 0.0
O443 O 0.49387 0.08106 0.55043 0.0
O444 O 0.55158 0.07984 0.55769 0.0
O445 O 0.52406 0.04906 0.55401 0.0
O446 O 0.57395 0.12359 0.54974 0.0
O447 O 0.53776 0.12217 0.54395 0.0
H448 H 0.63811 0.08226 0.49413 0.0
H449 H 0.66295 0.05609 0.49232 0.0
H450 H 0.632 0.01257 0.54059 0.0
H451 H 0.60724 0.03915 0.5425 0.0
H452 H 0.45712 0.08743 0.56602 0.0
H453 H 0.43114 0.11231 0.56902 0.0
H454 H 0.44843 0.14477 0.50802 0.0
H455 H 0.47476 0.12041 0.50524 0.0
Pr456 Pr 0.27443 0.32708 0.77331 0.0
Pr457 Pr 0.32258 0.32689 0.78097 0.0
C458 C 0.23342 0.32552 0.77658 0.0
C459 C 0.22042 0.33242 0.7941 0.0
C460 C 0.214 0.35465 0.79405 0.0
C461 C 0.19977 0.36012 0.80849 0.0
C462 C 0.19136 0.34334 0.82315 0.0
C463 C 0.19863 0.32168 0.82409 0.0
C464 C 0.21297 0.31627 0.80971 0.0
C465 C 0.30218 0.36749 0.76141 0.0
C466 C 0.30579 0.34714 0.8281 0.0
C467 C 0.3641 0.32988 0.77927 0.0
C468 C 0.37831 0.32411 0.76289 0.0
C469 C 0.39236 0.30962 0.76948 0.0
C470 C 0.40804 0.30671 0.75608 0.0
C471 C 0.41002 0.31838 0.73588 0.0
C472 C 0.39489 0.33136 0.72832 0.0
C473 C 0.37921 0.33425 0.74171 0.0
C474 C 0.29522 0.28671 0.79356 0.0
C475 C 0.29109 0.30692 0.72589 0.0
O476 O 0.24153 0.30649 0.77893 0.0
O477 O 0.24627 0.3439 0.76963 0.0
O478 O 0.30602 0.35821 0.78002 0.0
O479 O 0.28315 0.35664 0.74873 0.0
O480 O 0.32302 0.34991 0.81821 0.0
O481 O 0.28627 0.33637 0.81537 0.0
O482 O 0.35532 0.34825 0.77608 0.0
O483 O 0.35141 0.31095 0.78564 0.0
O484 O 0.29095 0.29559 0.77475 0.0
O485 O 0.3144 0.29782 0.8058 0.0
O486 O 0.27357 0.30621 0.73497 0.0
O487 O 0.31066 0.31558 0.73917 0.0
H488 H 0.21945 0.36754 0.78227 0.0
H489 H 0.1949 0.37722 0.80764 0.0
H490 H 0.19239 0.3082 0.83499 0.0
H491 H 0.21759 0.29898 0.81023 0.0
H492 H 0.39185 0.30146 0.78565 0.0
H493 H 0.41944 0.29666 0.76243 0.0
H494 H 0.39571 0.34015 0.71255 0.0
H495 H 0.36836 0.34518 0.73595 0.0
Pr496 Pr 0.03706 0.06534 0.50047 0.0
Pr497 Pr 0.05083 0.09942 0.55382 0.0
C498 C 0.01318 0.03706 0.46002 0.0
C499 C 0.00953 0.04257 0.43562 0.0
C500 C 0.0261 0.0461 0.42234 0.0
C501 C 0.02311 0.05448 0.40048 0.0
C502 C 0.00367 0.05971 0.39188 0.0
C503 C 0.98712 0.05608 0.40506 0.0
C504 C 0.98996 0.04736 0.42666 0.0
C505 C 0.0801 0.09389 0.50778 0.0
C506 C 0.03461 0.12527 0.50724 0.0
C507 C 0.07245 0.12666 0.59517 0.0
C508 C 0.07597 0.117 0.61756 0.0
C509 C 0.06598 0.12391 0.63631 0.0
C510 C 0.06897 0.11436 0.65746 0.0
C511 C 0.08215 0.09812 0.66004 0.0
C512 C 0.0906 0.08949 0.64069 0.0
C513 C 0.08752 0.09886 0.61949 0.0
C514 C 0.00841 0.06886 0.54674 0.0
C515 C 0.05435 0.04015 0.54737 0.0
O516 O 0.00526 0.04989 0.4754 0.0
O517 O 0.03242 0.03503 0.46864 0.0
O518 O 0.06727 0.09382 0.52216 0.0
O519 O 0.07055 0.07771 0.48843 0.0
O520 O 0.04261 0.12843 0.53047 0.0
O521 O 0.03044 0.10355 0.4926 0.0
O522 O 0.08228 0.11907 0.5785 0.0
O523 O 0.05248 0.12651 0.58715 0.0
O524 O 0.02114 0.07057 0.53225 0.0
O525 O 0.01802 0.08383 0.56674 0.0
O526 O 0.04396 0.03642 0.52485 0.0
O527 O 0.06043 0.0625 0.56129 0.0
H528 H 0.04147 0.04283 0.42896 0.0
H529 H 0.03597 0.05705 0.39037 0.0
H530 H 0.97182 0.05953 0.39844 0.0
H531 H 0.97701 0.04491 0.43665 0.0
H532 H 0.05642 0.13719 0.63486 0.0
H533 H 0.06262 0.12136 0.67255 0.0
H534 H 0.10113 0.07728 0.64269 0.0
H535 H 0.09479 0.09246 0.60498 0.0
Pr536 Pr 0.28973 0.80151 0.78034 0.0
Pr537 Pr 0.30888 0.85976 0.77631 0.0
C538 C 0.28215 0.75193 0.77331 0.0
C539 C 0.29787 0.73706 0.77563 0.0
C540 C 0.30044 0.72493 0.7955 0.0
C541 C 0.31629 0.71216 0.7986 0.0
C542 C 0.32962 0.71095 0.78164 0.0
C543 C 0.32744 0.72387 0.76224 0.0
C544 C 0.31183 0.73682 0.75931 0.0
C545 C 0.29252 0.83154 0.82482 0.0
C546 C 0.34293 0.82917 0.79584 0.0
C547 C 0.31794 0.90954 0.78202 0.0
C548 C 0.30353 0.92586 0.78095 0.0
C549 C 0.30629 0.94441 0.76653 0.0
C550 C 0.2921 0.95938 0.76456 0.0
C551 C 0.27506 0.95606 0.77713 0.0
C552 C 0.27176 0.93661 0.79062 0.0
C553 C 0.28581 0.92154 0.79241 0.0
C554 C 0.30544 0.82938 0.73156 0.0
C555 C 0.25559 0.83348 0.76437 0.0
O556 O 0.28195 0.76449 0.75546 0.0
O557 O 0.28057 0.76467 0.79341 0.0
O558 O 0.29773 0.83909 0.80601 0.0
O559 O 0.28439 0.8075 0.82015 0.0
O560 O 0.34017 0.8514 0.79375 0.0
O561 O 0.32725 0.80817 0.7901 0.0
O562 O 0.31879 0.89758 0.80027 0.0
O563 O 0.31699 0.89566 0.76156 0.0
O564 O 0.30063 0.82204 0.75057 0.0
O565 O 0.31306 0.85345 0.73602 0.0
O566 O 0.25826 0.81077 0.7639 0.0
O567 O 0.27164 0.85408 0.77095 0.0
H568 H 0.29019 0.72532 0.80865 0.0
H569 H 0.3177 0.70268 0.81392 0.0
H570 H 0.33705 0.72303 0.7485 0.0
H571 H 0.3106 0.7464 0.74405 0.0
H572 H 0.31949 0.94739 0.75693 0.0
H573 H 0.29482 0.97403 0.7538 0.0
H574 H 0.25896 0.93376 0.80081 0.0
H575 H 0.28295 0.90676 0.80302 0.0
Pr576 Pr 0.55412 0.07491 0.05374 0.0
Pr577 Pr 0.54047 0.08598 0.00399 0.0
C578 C 0.55817 0.06657 0.09926 0.0
C579 C 0.54404 0.06607 0.11676 0.0
C580 C 0.54763 0.05474 0.1369 0.0
C581 C 0.53553 0.05659 0.15482 0.0
C582 C 0.51981 0.06993 0.15276 0.0
C583 C 0.51503 0.07926 0.13146 0.0
C584 C 0.5271 0.07739 0.11362 0.0
C585 C 0.55191 0.03627 0.01669 0.0
C586 C 0.50177 0.06773 0.03225 0.0
C587 C 0.53321 0.08224 0.9561 0.0
C588 C 0.5472 0.08649 0.93848 0.0
C589 C 0.54229 0.09978 0.92018 0.0
C590 C 0.554 0.10142 0.90175 0.0
C591 C 0.57057 0.08947 0.90125 0.0
C592 C 0.57662 0.07804 0.92079 0.0
C593 C 0.56511 0.07669 0.93932 0.0
C594 C 0.54745 0.13121 0.03555 0.0
C595 C 0.59222 0.0984 0.02704 0.0
O596 O 0.56602 0.08845 0.09361 0.0
O597 O 0.55132 0.04863 0.08071 0.0
O598 O 0.53808 0.04859 0.01794 0.0
O599 O 0.56823 0.04491 0.03442 0.0
O600 O 0.50609 0.07178 0.01117 0.0
O601 O 0.51709 0.0701 0.05107 0.0
O602 O 0.53383 0.06316 0.96698 0.0
O603 O 0.53251 0.10206 0.97033 0.0
O604 O 0.54983 0.11107 0.042 0.0
O605 O 0.54166 0.12842 0.01248 0.0
O606 O 0.58735 0.09824 0.04852 0.0
O607 O 0.57735 0.09022 0.00736 0.0
H608 H 0.56037 0.04545 0.13927 0.0
H609 H 0.53936 0.04896 0.17093 0.0
H610 H 0.50321 0.08986 0.12937 0.0
H611 H 0.52394 0.08596 0.09797 0.0
H612 H 0.52885 0.108 0.91961 0.0
H613 H 0.5493 0.11084 0.88721 0.0
H614 H 0.5892 0.06848 0.921 0.0
H615 H 0.56958 0.06689 0.95366 0.0
Pr616 Pr 0.27932 0.31693 0.27093 0.0
Pr617 Pr 0.32346 0.35144 0.28487 0.0
C618 C 0.23742 0.29358 0.26771 0.0
C619 C 0.21923 0.29876 0.27805 0.0
C620 C 0.20014 0.2984 0.26271 0.0
C621 C 0.18262 0.30285 0.27209 0.0
C622 C 0.18371 0.30758 0.29709 0.0
C623 C 0.20304 0.30838 0.31242 0.0
C624 C 0.22062 0.30412 0.30302 0.0
C625 C 0.29559 0.33293 0.23123 0.0
C626 C 0.28508 0.3767 0.28659 0.0
C627 C 0.36546 0.37542 0.28896 0.0
C628 C 0.3844 0.3696 0.28104 0.0
C629 C 0.40513 0.3831 0.29321 0.0
C630 C 0.42325 0.3784 0.28534 0.0
C631 C 0.42093 0.35992 0.2653 0.0
C632 C 0.40013 0.34594 0.25354 0.0
C633 C 0.38201 0.35078 0.2613 0.0
C634 C 0.30642 0.33583 0.32439 0.0
C635 C 0.31762 0.29152 0.26817 0.0
O636 O 0.25299 0.28897 0.28222 0.0
O637 O 0.24431 0.30753 0.2524 0.0
O638 O 0.2973 0.34665 0.25114 0.0
O639 O 0.28562 0.30985 0.23152 0.0
O640 O 0.30434 0.38103 0.28133 0.0
O641 O 0.27518 0.35441 0.29017 0.0
O642 O 0.35024 0.37737 0.27216 0.0
O643 O 0.35803 0.36339 0.30529 0.0
O644 O 0.30511 0.32195 0.30469 0.0
O645 O 0.31691 0.35875 0.32422 0.0
O646 O 0.29831 0.28717 0.27335 0.0
O647 O 0.32797 0.31407 0.26569 0.0
H648 H 0.19876 0.29455 0.24339 0.0
H649 H 0.1682 0.30257 0.25969 0.0
H650 H 0.20446 0.31165 0.33174 0.0
H651 H 0.2352 0.30476 0.31535 0.0
H652 H 0.40729 0.39752 0.30862 0.0
H653 H 0.43909 0.38932 0.29483 0.0
H654 H 0.39786 0.3318 0.23787 0.0
H655 H 0.36615 0.34009 0.25168 0.0
Pr656 Pr 0.53737 0.56489 0.00284 0.0
Pr657 Pr 0.55293 0.59818 0.05652 0.0
C658 C 0.51281 0.53768 0.96216 0.0
C659 C 0.50942 0.54313 0.93769 0.0
C660 C 0.52601 0.5461 0.92441 0.0
C661 C 0.52298 0.5536 0.90208 0.0
C662 C 0.50352 0.55854 0.89306 0.0
C663 C 0.48706 0.55572 0.90638 0.0
C664 C 0.48992 0.54787 0.92843 0.0
C665 C 0.57999 0.59455 0.00816 0.0
C666 C 0.5366 0.62516 0.01075 0.0
C667 C 0.57634 0.62563 0.09774 0.0
C668 C 0.57911 0.62263 0.12311 0.0
C669 C 0.56504 0.62881 0.1377 0.0
C670 C 0.56914 0.62804 0.16225 0.0
C671 C 0.58741 0.62134 0.17236 0.0
C672 C 0.60057 0.61347 0.15756 0.0
C673 C 0.5965 0.61418 0.13314 0.0
C674 C 0.50982 0.56954 0.05038 0.0
C675 C 0.55521 0.53841 0.04836 0.0
O676 O 0.5055 0.55124 0.97758 0.0
O677 O 0.53166 0.53456 0.97072 0.0
O678 O 0.56809 0.59339 0.02363 0.0
O679 O 0.56954 0.57932 0.98853 0.0
O680 O 0.5471 0.62833 0.03315 0.0
O681 O 0.5296 0.60293 0.99668 0.0
O682 O 0.58383 0.61093 0.08357 0.0
O683 O 0.55796 0.62908 0.08791 0.0
O684 O 0.52211 0.57029 0.03539 0.0
O685 O 0.52011 0.58484 0.06999 0.0
O686 O 0.54536 0.53508 0.02566 0.0
O687 O 0.56083 0.56038 0.06277 0.0
H688 H 0.54135 0.5429 0.93129 0.0
H689 H 0.53579 0.55557 0.8919 0.0
H690 H 0.47173 0.55897 0.89946 0.0
H691 H 0.47697 0.54586 0.93842 0.0
H692 H 0.55133 0.63507 0.13039 0.0
H693 H 0.55881 0.63405 0.17351 0.0
H694 H 0.6146 0.60787 0.16512 0.0
H695 H 0.60744 0.60895 0.1223 0.0
Pr696 Pr 0.79009 0.30333 0.28053 0.0
Pr697 Pr 0.80876 0.35992 0.27294 0.0
C698 C 0.78278 0.25397 0.27709 0.0
C699 C 0.79776 0.23926 0.2836 0.0
C700 C 0.79073 0.21728 0.29266 0.0
C701 C 0.80396 0.20128 0.29524 0.0
C702 C 0.82409 0.20708 0.28835 0.0
C703 C 0.83225 0.23072 0.28263 0.0
C704 C 0.81907 0.24675 0.28017 0.0
C705 C 0.79224 0.33533 0.32339 0.0
C706 C 0.84338 0.33137 0.29522 0.0
C707 C 0.81693 0.40942 0.27577 0.0
C708 C 0.80319 0.42576 0.28008 0.0
C709 C 0.80772 0.44949 0.27369 0.0
C710 C 0.79442 0.46499 0.27785 0.0
C711 C 0.77639 0.45674 0.28828 0.0
C712 C 0.77108 0.43218 0.29295 0.0
C713 C 0.78454 0.41689 0.28911 0.0
C714 C 0.80568 0.32764 0.22979 0.0
C715 C 0.75553 0.33327 0.26248 0.0
O716 O 0.78576 0.2654 0.25877 0.0
O717 O 0.77876 0.26772 0.29508 0.0
O718 O 0.79766 0.34211 0.30436 0.0
O719 O 0.78413 0.31132 0.31976 0.0
O720 O 0.84082 0.35276 0.28977 0.0
O721 O 0.82746 0.31087 0.29254 0.0
O722 O 0.82327 0.39904 0.29391 0.0
O723 O 0.81013 0.39389 0.25543 0.0
O724 O 0.80081 0.32118 0.2491 0.0
O725 O 0.81328 0.35165 0.23307 0.0
O726 O 0.75844 0.31073 0.26222 0.0
O727 O 0.77154 0.35388 0.26904 0.0
H728 H 0.77456 0.21169 0.29613 0.0
H729 H 0.79752 0.18312 0.29986 0.0
H730 H 0.84771 0.23554 0.2772 0.0
H731 H 0.82501 0.26408 0.27382 0.0
H732 H 0.82179 0.45624 0.26609 0.0
H733 H 0.79902 0.4839 0.27423 0.0
H734 H 0.75709 0.42521 0.30061 0.0
H735 H 0.78065 0.39836 0.29372 0.0
Pr736 Pr 0.05486 0.5798 0.55852 0.0
Pr737 Pr 0.03936 0.58723 0.50265 0.0
C738 C 0.06088 0.58421 0.60657 0.0
C739 C 0.04697 0.58377 0.62453 0.0
C740 C 0.04962 0.57016 0.64323 0.0
C741 C 0.03671 0.56969 0.66059 0.0
C742 C 0.02088 0.58288 0.65955 0.0
C743 C 0.01771 0.59567 0.64016 0.0
C744 C 0.03057 0.59603 0.62278 0.0
C745 C 0.05236 0.53639 0.52594 0.0
C746 C 0.00211 0.56453 0.53247 0.0
C747 C 0.03271 0.58273 0.45477 0.0
C748 C 0.04662 0.5822 0.43705 0.0
C749 C 0.0466 0.59818 0.42005 0.0
C750 C 0.05975 0.59796 0.40304 0.0
C751 C 0.07296 0.58153 0.40265 0.0
C752 C 0.07368 0.56644 0.42052 0.0
C753 C 0.06074 0.56688 0.43765 0.0
C754 C 0.04114 0.63048 0.53473 0.0
C755 C 0.09201 0.60204 0.52785 0.0
O756 O 0.06411 0.6036 0.59554 0.0
O757 O 0.05786 0.56297 0.59234 0.0
O758 O 0.04837 0.55642 0.52105 0.0
O759 O 0.05917 0.53914 0.54893 0.0
O760 O 0.00636 0.56842 0.51123 0.0
O761 O 0.01706 0.56901 0.55224 0.0
O762 O 0.02853 0.56337 0.46574 0.0
O763 O 0.03671 0.60418 0.46899 0.0
O764 O 0.04556 0.61081 0.54025 0.0
O765 O 0.03441 0.62725 0.51171 0.0
O766 O 0.08811 0.59809 0.54929 0.0
O767 O 0.0769 0.59777 0.50834 0.0
H768 H 0.06189 0.5601 0.64456 0.0
H769 H 0.03936 0.55938 0.67507 0.0
H770 H 0.00589 0.60631 0.63891 0.0
H771 H 0.02791 0.60626 0.60822 0.0
H772 H 0.03621 0.61062 0.41976 0.0
H773 H 0.05909 0.61012 0.38979 0.0
H774 H 0.08341 0.55328 0.42062 0.0
H775 H 0.06145 0.55484 0.45101 0.0
Pr776 Pr 0.77475 0.82745 0.27422 0.0
Pr777 Pr 0.82319 0.82951 0.28155 0.0
C778 C 0.73348 0.82133 0.27871 0.0
C779 C 0.72076 0.83112 0.29508 0.0
C780 C 0.7127 0.85158 0.29062 0.0
C781 C 0.69843 0.85886 0.30405 0.0
C782 C 0.69167 0.84566 0.32207 0.0
C783 C 0.70082 0.82624 0.32756 0.0
C784 C 0.71517 0.81901 0.31417 0.0
C785 C 0.80037 0.87006 0.26329 0.0
C786 C 0.80649 0.84918 0.32908 0.0
C787 C 0.86493 0.83434 0.27917 0.0
C788 C 0.87924 0.82645 0.26378 0.0
C789 C 0.88952 0.80802 0.26956 0.0
C790 C 0.90502 0.80253 0.25698 0.0
C791 C 0.91072 0.81548 0.23842 0.0
C792 C 0.89982 0.83326 0.23205 0.0
C793 C 0.8843 0.8387 0.24459 0.0
C794 C 0.79612 0.7862 0.29007 0.0
C795 C 0.79197 0.80897 0.2263 0.0
O796 O 0.74503 0.80675 0.28645 0.0
O797 O 0.7429 0.83658 0.26568 0.0
O798 O 0.80546 0.86 0.28114 0.0
O799 O 0.78076 0.85957 0.25204 0.0
O800 O 0.8237 0.85195 0.31919 0.0
O801 O 0.78696 0.83828 0.3164 0.0
O802 O 0.85433 0.85005 0.2721 0.0
O803 O 0.85393 0.81753 0.28967 0.0
O804 O 0.79242 0.79696 0.27251 0.0
O805 O 0.81432 0.79782 0.30425 0.0
O806 O 0.77444 0.80713 0.23562 0.0
O807 O 0.8115 0.8184 0.23958 0.0
H808 H 0.71676 0.86145 0.27614 0.0
H809 H 0.69202 0.87421 0.29964 0.0
H810 H 0.69589 0.81552 0.34118 0.0
H811 H 0.72113 0.80322 0.31815 0.0
H812 H 0.88604 0.79831 0.28431 0.0
H813 H 0.91284 0.78848 0.26215 0.0
H814 H 0.90396 0.84387 0.21808 0.0
H815 H 0.87682 0.85313 0.23973 0.0
Pr816 Pr 0.81216 0.36299 0.79344 0.0
Pr817 Pr 0.78913 0.30503 0.76595 0.0
C818 C 0.84197 0.40534 0.8134 0.0
C819 C 0.84772 0.43016 0.8067 0.0
C820 C 0.83182 0.44169 0.79828 0.0
C821 C 0.83759 0.46457 0.79042 0.0
C822 C 0.85929 0.47609 0.79063 0.0
C823 C 0.87507 0.46425 0.79878 0.0
C824 C 0.86931 0.44149 0.80674 0.0
C825 C 0.76926 0.35789 0.77123 0.0
C826 C 0.80809 0.34857 0.73384 0.0
C827 C 0.76082 0.26208 0.74435 0.0
C828 C 0.75571 0.23646 0.74967 0.0
C829 C 0.76707 0.21947 0.74214 0.0
C830 C 0.76214 0.19533 0.7475 0.0
C831 C 0.74587 0.18789 0.76053 0.0
C832 C 0.73478 0.20497 0.76835 0.0
C833 C 0.73956 0.22897 0.76285 0.0
C834 C 0.83201 0.31026 0.78827 0.0
C835 C 0.79246 0.31973 0.82553 0.0
O836 O 0.8459 0.38759 0.79892 0.0
O837 O 0.82354 0.39868 0.82053 0.0
O838 O 0.77927 0.34124 0.77132 0.0
O839 O 0.78166 0.37852 0.78441 0.0
O840 O 0.79656 0.32556 0.73376 0.0
O841 O 0.81668 0.36521 0.75373 0.0
O842 O 0.75592 0.27893 0.75901 0.0
O843 O 0.77933 0.27019 0.73782 0.0
O844 O 0.82195 0.32682 0.78789 0.0
O845 O 0.81948 0.28941 0.77572 0.0
O846 O 0.80505 0.3422 0.8255 0.0
O847 O 0.78307 0.30342 0.80551 0.0
H848 H 0.81496 0.43297 0.7976 0.0
H849 H 0.82508 0.4732 0.78414 0.0
H850 H 0.89197 0.47288 0.79961 0.0
H851 H 0.88173 0.43264 0.81285 0.0
H852 H 0.77965 0.22471 0.73199 0.0
H853 H 0.77087 0.18239 0.74127 0.0
H854 H 0.72185 0.19949 0.778 0.0
H855 H 0.73044 0.24157 0.76879 0.0
Pr856 Pr 0.77891 0.8147 0.77159 0.0
Pr857 Pr 0.82506 0.85596 0.78338 0.0
C858 C 0.73791 0.78994 0.77091 0.0
C859 C 0.71912 0.79605 0.779 0.0
C860 C 0.6986 0.78552 0.76478 0.0
C861 C 0.68046 0.79021 0.77252 0.0
C862 C 0.68244 0.80542 0.79479 0.0
C863 C 0.70318 0.81688 0.8085 0.0
C864 C 0.72136 0.8123 0.80065 0.0
C865 C 0.79475 0.83066 0.73188 0.0
C866 C 0.78349 0.87674 0.78508 0.0
C867 C 0.86428 0.88058 0.77743 0.0
C868 C 0.88368 0.87311 0.77244 0.0
C869 C 0.90385 0.88492 0.78709 0.0
C870 C 0.9224 0.87882 0.7818 0.0
C871 C 0.92115 0.86076 0.76173 0.0
C872 C 0.90081 0.84836 0.74759 0.0
C873 C 0.88232 0.85447 0.75286 0.0
C874 C 0.81509 0.83786 0.8258 0.0
C875 C 0.82173 0.79593 0.77257 0.0
O876 O 0.75403 0.78971 0.78757 0.0
O877 O 0.74398 0.8 0.75285 0.0
O878 O 0.79603 0.84437 0.75169 0.0
O879 O 0.78481 0.80747 0.73206 0.0
O880 O 0.80376 0.88338 0.78274 0.0
O881 O 0.77274 0.85338 0.78519 0.0
O882 O 0.84731 0.87357 0.76013 0.0
O883 O 0.85957 0.87879 0.79867 0.0
O884 O 0.80416 0.83169 0.80481 0.0
O885 O 0.83228 0.85529 0.82556 0.0
O886 O 0.80234 0.78947 0.77778 0.0
O887 O 0.82943 0.81793 0.76681 0.0
H888 H 0.69657 0.77333 0.74781 0.0
H889 H 0.66482 0.78156 0.7612 0.0
H890 H 0.70535 0.82861 0.82576 0.0
H891 H 0.7371 0.82102 0.81174 0.0
H892 H 0.90532 0.89916 0.80242 0.0
H893 H 0.93777 0.88849 0.79327 0.0
H894 H 0.89922 0.83458 0.73185 0.0
H895 H 0.86698 0.84482 0.74131 0.0
Pr896 Pr 0.52433 0.57243 0.5139 0.0
Pr897 Pr 0.57414 0.59557 0.53847 0.0
C898 C 0.48144 0.56578 0.50335 0.0
C899 C 0.46656 0.58182 0.49971 0.0
C900 C 0.4481 0.57368 0.48148 0.0
C901 C 0.433 0.58771 0.47916 0.0
C902 C 0.43608 0.61025 0.49503 0.0
C903 C 0.45508 0.61887 0.51259 0.0
C904 C 0.47013 0.60484 0.5149 0.0
C905 C 0.55327 0.57642 0.48351 0.0
C906 C 0.54773 0.63518 0.5227 0.0
C907 C 0.61673 0.60104 0.54919 0.0
C908 C 0.63067 0.58394 0.55319 0.0
C909 C 0.64444 0.58706 0.57544 0.0
C910 C 0.65844 0.57186 0.57898 0.0
C911 C 0.65916 0.55328 0.56026 0.0
C912 C 0.64479 0.54965 0.53826 0.0
C913 C 0.6307 0.56471 0.53479 0.0
C914 C 0.54474 0.59026 0.56849 0.0
C915 C 0.55138 0.53274 0.52953 0.0
O916 O 0.49225 0.56826 0.52524 0.0
O917 O 0.49284 0.56286 0.4868 0.0
O918 O 0.55402 0.59221 0.50144 0.0
O919 O 0.53603 0.55769 0.4794 0.0
O920 O 0.56726 0.63184 0.52693 0.0
O921 O 0.53016 0.61664 0.52112 0.0
O922 O 0.60614 0.59881 0.52724 0.0
O923 O 0.60553 0.60522 0.56566 0.0
O924 O 0.54472 0.57516 0.55044 0.0
O925 O 0.56134 0.60979 0.57286 0.0
O926 O 0.53172 0.53581 0.52468 0.0
O927 O 0.56879 0.55157 0.53162 0.0
H928 H 0.4451 0.55615 0.46937 0.0
H929 H 0.41872 0.58071 0.4652 0.0
H930 H 0.45793 0.63597 0.52527 0.0
H931 H 0.48431 0.61172 0.52902 0.0
H932 H 0.6446 0.60153 0.59002 0.0
H933 H 0.6689 0.57491 0.59635 0.0
H934 H 0.64494 0.53579 0.52331 0.0
H935 H 0.62016 0.56156 0.51745 0.0
Pr936 Pr 0.06905 0.58511 0.02399 0.0
Pr937 Pr 0.02194 0.57796 0.03064 0.0
C938 C 0.10833 0.58117 0.0181 0.0
C939 C 0.12099 0.5628 0.01526 0.0
C940 C 0.13494 0.56489 0.99879 0.0
C941 C 0.14901 0.54964 0.99777 0.0
C942 C 0.14942 0.53223 0.01337 0.0
C943 C 0.13451 0.52907 0.02874 0.0
C944 C 0.12032 0.54414 0.0296 0.0
C945 C 0.04347 0.602 0.99009 0.0
C946 C 0.03405 0.52897 0.00695 0.0
C947 C 0.98146 0.58104 0.03238 0.0
C948 C 0.9679 0.59829 0.03666 0.0
C949 C 0.95126 0.59148 0.04935 0.0
C950 C 0.93657 0.60582 0.05139 0.0
C951 C 0.93819 0.62744 0.04079 0.0
C952 C 0.95561 0.63489 0.02911 0.0
C953 C 0.97026 0.62044 0.02699 0.0
C954 C 0.04749 0.56104 0.06466 0.0
C955 C 0.05812 0.63386 0.05057 0.0
O956 O 0.10351 0.58656 0.03922 0.0
O957 O 0.09283 0.57995 1.00018 0.0
O958 O 0.03743 0.5817 0.99763 0.0
O959 O 0.06345 0.61339 0.99897 0.0
O960 O 0.01807 0.53964 0.00643 0.0
O961 O 0.05411 0.54161 0.01629 0.0
O962 O 0.98937 0.58072 0.0127 0.0
O963 O 0.99457 0.57806 0.05084 0.0
O964 O 0.05355 0.58124 0.05697 0.0
O965 O 0.02731 0.54984 0.05632 0.0
O966 O 0.07419 0.6241 0.04746 0.0
O967 O 0.03775 0.62092 0.04355 0.0
H968 H 0.13559 0.57907 0.98744 0.0
H969 H 0.16051 0.55258 0.98596 0.0
H970 H 0.13454 0.51573 0.04092 0.0
H971 H 0.10951 0.54192 0.04219 0.0
H972 H 0.94914 0.5745 0.05702 0.0
H973 H 0.92339 0.59924 0.06036 0.0
H974 H 0.9578 0.65171 0.02121 0.0
H975 H 0.9831 0.6263 0.01733 0.0
H976 H 1.00165 0.25956 0.98565 0.0
H977 H 0.06686 0.15526 0.98979 0.0
H978 H 0.0418 0.24652 0.93487 0.0
H979 H 0.02087 0.16321 0.0346 0.0
H980 H 0.06105 0.19142 0.97224 0.0
H981 H 0.0122 0.22793 0.00692 0.0
C982 C 0.01282 0.25017 0.97904 0.0
C983 C 0.02071 0.25567 0.95829 0.0
C984 C 0.0525 0.18559 0.98621 0.0
C985 C 0.03271 0.21898 0.98255 0.0
C986 C 0.05593 0.16507 0.99636 0.0
C987 C 0.04452 0.15651 0.0139 0.0
C988 C 0.03775 0.19792 0.99389 0.0
C989 C 0.03004 0.16934 0.02121 0.0
C990 C 0.01881 0.23203 0.9912 0.0
C991 C 0.03533 0.24299 0.9508 0.0
N992 N 0.02714 0.18945 0.01126 0.0
N993 N 0.04069 0.2251 0.96277 0.0
H994 H 0.13116 0.82328 0.21753 0.0
H995 H 0.25797 0.88203 0.23512 0.0
H996 H 0.15913 0.87565 0.17445 0.0
H997 H 0.22991 0.81902 0.26661 0.0
H998 H 0.22232 0.87966 0.21223 0.0
H999 H 0.16703 0.822 0.23579 0.0
C1000 C 0.14483 0.83448 0.21174 0.0
C1001 C 0.14193 0.84962 0.19427 0.0
C1002 C 0.22389 0.86619 0.22396 0.0
C1003 C 0.18353 0.84811 0.21541 0.0
C1004 C 0.24426 0.86749 0.23697 0.0
C1005 C 0.24687 0.85063 0.25267 0.0
C1006 C 0.20578 0.84831 0.22714 0.0
C1007 C 0.22861 0.83219 0.25449 0.0
C1008 C 0.16541 0.83364 0.22223 0.0
C1009 C 0.16047 0.86377 0.18784 0.0
N1010 N 0.2088 0.83174 0.24215 0.0
N1011 N 0.18043 0.86272 0.19844 0.0
H1012 H 0.53028 0.87295 0.48427 0.0
H1013 H 0.50104 0.00171 0.4687 0.0
H1014 H 0.4942 0.88431 0.41883 0.0
H1015 H 0.55355 0.99712 0.52239 0.0
H1016 H 0.49535 0.95733 0.45236 0.0
H1017 H 0.53673 0.91757 0.50076 0.0
C1018 C 0.52392 0.88497 0.47339 0.0
C1019 C 0.51183 0.87529 0.45023 0.0
C1020 C 0.50809 0.96607 0.46775 0.0
C1021 C 0.51863 0.92574 0.46888 0.0
C1022 C 0.51122 0.99129 0.47714 0.0
C1023 C 0.52783 0.00304 0.49679 0.0
C1024 C 0.5214 0.95247 0.47843 0.0
C1025 C 0.54069 0.98879 0.50703 0.0
C1026 C 0.52752 0.91032 0.48273 0.0
C1027 C 0.50369 0.89133 0.43676 0.0
N1028 N 0.53715 0.96423 0.4978 0.0
N1029 N 0.50712 0.91577 0.44632 0.0
H1030 H 0.52752 0.29947 0.68828 0.0
H1031 H 0.43398 0.35928 0.72242 0.0
H1032 H 0.52265 0.37371 0.68084 0.0
H1033 H 0.43077 0.28172 0.72511 0.0
H1034 H 0.46704 0.36374 0.70741 0.0
H1035 H 0.49292 0.29135 0.70252 0.0
C1036 C 0.51931 0.31408 0.68997 0.0
C1037 C 0.52784 0.33731 0.68353 0.0
C1038 C 0.45914 0.3456 0.71102 0.0
C1039 C 0.48877 0.32835 0.69958 0.0
C1040 C 0.44002 0.34298 0.71941 0.0
C1041 C 0.42937 0.32002 0.7248 0.0
C1042 C 0.46799 0.32516 0.70797 0.0
C1043 C 0.43851 0.29981 0.72124 0.0
C1044 C 0.49959 0.30943 0.69788 0.0
C1045 C 0.51655 0.35552 0.68555 0.0
N1046 N 0.45736 0.30283 0.71304 0.0
N1047 N 0.49775 0.35068 0.69344 0.0
H1048 H 0.04425 0.88835 0.56943 0.0
H1049 H 0.07747 0.03805 0.59186 0.0
H1050 H 0.09025 0.93193 0.63163 0.0
H1051 H 0.04123 0.99119 0.5253 0.0
H1052 H 0.0833 1.00046 0.60704 0.0
H1053 H 0.04454 0.92644 0.55278 0.0
C1054 C 0.05487 0.90592 0.57931 0.0
C1055 C 0.06743 0.90682 0.60182 0.0
C1056 C 0.07421 0.99851 0.58906 0.0
C1057 C 0.06724 0.95108 0.58323 0.0
C1058 C 0.07081 0.01997 0.58038 0.0
C1059 C 0.05879 0.01796 0.55719 0.0
C1060 C 0.06541 0.9748 0.57453 0.0
C1061 C 0.0506 0.99392 0.54324 0.0
C1062 C 0.05491 0.92779 0.5699 0.0
C1063 C 0.08061 0.93028 0.61401 0.0
N1064 N 0.05396 0.97347 0.55214 0.0
N1065 N 0.07994 0.95152 0.60474 0.0
H1066 H 0.47578 0.8267 0.83157 0.0
H1067 H 0.3575 0.83526 0.84338 0.0
H1068 H 0.4493 0.81493 0.89505 0.0
H1069 H 0.37606 0.8212 0.775 0.0
H1070 H 0.39299 0.83374 0.86368 0.0
H1071 H 0.4411 0.83061 0.81149 0.0
C1072 C 0.46273 0.82519 0.84137 0.0
C1073 C 0.46539 0.82045 0.86502 0.0
C1074 C 0.38931 0.8309 0.84424 0.0
C1075 C 0.42582 0.82498 0.84222 0.0
C1076 C 0.36915 0.83177 0.83274 0.0
C1077 C 0.36408 0.82809 0.80766 0.0
C1078 C 0.40448 0.82655 0.83048 0.0
C1079 C 0.37954 0.82392 0.79444 0.0
C1080 C 0.44294 0.82726 0.82985 0.0
C1081 C 0.44792 0.81841 0.87679 0.0
N1082 N 0.39918 0.82328 0.80604 0.0
N1083 N 0.42888 0.82078 0.86529 0.0
H1084 H 0.51559 0.25749 0.10693 0.0
H1085 H 0.57376 0.17595 0.03241 0.0
H1086 H 0.58243 0.2868 0.10422 0.0
H1087 H 0.52851 0.14193 0.07377 0.0
H1088 H 0.57545 0.21736 0.0543 0.0
H1089 H 0.51753 0.21566 0.09009 0.0
C1090 C 0.53063 0.25517 0.10262 0.0
C1091 C 0.54884 0.27574 0.10688 0.0
C1092 C 0.5654 0.20083 0.05884 0.0
C1093 C 0.55108 0.22788 0.08731 0.0
C1094 C 0.56446 0.17723 0.04642 0.0
C1095 C 0.55116 0.15552 0.05151 0.0
C1096 C 0.5523 0.20286 0.07587 0.0
C1097 C 0.53919 0.1582 0.06957 0.0
C1098 C 0.53177 0.23125 0.09321 0.0
C1099 C 0.568 0.27149 0.10122 0.0
N1100 N 0.53974 0.18146 0.0808 0.0
N1101 N 0.56854 0.24815 0.09141 0.0
H1102 H 0.05439 0.29174 0.32247 0.0
H1103 H 0.1823 0.33866 0.33802 0.0
H1104 H 0.09549 0.3316 0.38957 0.0
H1105 H 0.14118 0.28321 0.27923 0.0
H1106 H 0.15067 0.34087 0.35533 0.0
H1107 H 0.08601 0.29338 0.30454 0.0
C1108 C 0.07009 0.30088 0.33349 0.0
C1109 C 0.07226 0.3114 0.35768 0.0
C1110 C 0.14863 0.3283 0.3386 0.0
C1111 C 0.10871 0.31335 0.33707 0.0
C1112 C 0.16669 0.32692 0.32872 0.0
C1113 C 0.16454 0.31057 0.30714 0.0
C1114 C 0.12822 0.31338 0.32676 0.0
C1115 C 0.14374 0.29631 0.2957 0.0
C1116 C 0.08817 0.30178 0.32319 0.0
C1117 C 0.09306 0.32314 0.37091 0.0
N1118 N 0.12647 0.29802 0.30566 0.0
N1119 N 0.11051 0.32377 0.36044 0.0
H1120 H 0.93194 0.08023 0.13616 0.0
H1121 H 0.01453 0.03966 0.06311 0.0
H1122 H 0.9416 0.00619 0.13007 0.0
H1123 H 0.0258 0.11596 0.09818 0.0
H1124 H 0.98383 0.02725 0.08206 0.0
H1125 H 0.96224 0.09359 0.11627 0.0
C1126 C 0.94008 0.0666 0.13006 0.0
C1127 C 0.93414 0.04191 0.13441 0.0
C1128 C 0.99307 0.04667 0.08576 0.0
C1129 C 0.96878 0.05725 0.11212 0.0
C1130 C 0.01055 0.05383 0.07493 0.0
C1131 C 0.02264 0.07889 0.0792 0.0
C1132 C 0.98744 0.06472 0.10077 0.0
C1133 C 0.01686 0.09645 0.09467 0.0
C1134 C 0.95754 0.07439 0.1191 0.0
C1135 C 0.94559 0.02527 0.1268 0.0
N1136 N 0.99942 0.08903 0.10488 0.0
N1137 N 0.96238 0.03323 0.1159 0.0
H1138 H 0.26444 0.73861 0.44364 0.0
H1139 H 0.30442 0.8486 0.37054 0.0
H1140 H 0.31329 0.80708 0.47462 0.0
H1141 H 0.27162 0.77294 0.33553 0.0
H1142 H 0.30182 0.83581 0.40936 0.0
H1143 H 0.26084 0.75332 0.40492 0.0
C1144 C 0.27395 0.75706 0.44253 0.0
C1145 C 0.28914 0.77169 0.46254 0.0
C1146 C 0.29508 0.82201 0.39321 0.0
C1147 C 0.28524 0.78849 0.41811 0.0
C1148 C 0.29651 0.82929 0.37091 0.0
C1149 C 0.28835 0.81183 0.34952 0.0
C1150 C 0.28531 0.79704 0.3944 0.0
C1151 C 0.27822 0.78709 0.35144 0.0
C1152 C 0.27207 0.76528 0.42031 0.0
C1153 C 0.30136 0.79519 0.45976 0.0
N1154 N 0.27705 0.78042 0.37346 0.0
N1155 N 0.29917 0.80279 0.43803 0.0
H1156 H 0.62683 0.01754 0.67694 0.0
H1157 H 0.53404 0.00975 0.56505 0.0
H1158 H 0.57453 0.95223 0.64576 0.0
H1159 H 0.58232 0.0785 0.59672 0.0
H1160 H 0.55221 0.98763 0.59161 0.0
H1161 H 0.6143 0.03931 0.64515 0.0
C1162 C 0.61306 0.00757 0.66304 0.0
C1163 C 0.60169 0.983 0.66388 0.0
C1164 C 0.55898 0.00753 0.59285 0.0
C1165 C 0.58724 0.00778 0.62779 0.0
C1166 C 0.54855 0.0202 0.57769 0.0
C1167 C 0.55653 0.04602 0.57903 0.0
C1168 C 0.57749 0.02075 0.60979 0.0
C1169 C 0.57563 0.05856 0.59535 0.0
C1170 C 0.60583 0.02008 0.64506 0.0
C1171 C 0.58374 0.97114 0.64578 0.0
N1172 N 0.58539 0.04582 0.6104 0.0
N1173 N 0.57705 0.98367 0.62859 0.0
H1174 H 0.31108 0.35581 0.98193 0.0
H1175 H 0.33484 0.38798 0.85688 0.0
H1176 H 0.32444 0.43183 0.96914 0.0
H1177 H 0.282 0.32515 0.85865 0.0
H1178 H 0.33751 0.40178 0.9001 0.0
H1179 H 0.30566 0.34119 0.93824 0.0
C1180 C 0.31265 0.36934 0.96988 0.0
C1181 C 0.31793 0.395 0.97896 0.0
C1182 C 0.32539 0.38493 0.89096 0.0
C1183 C 0.31281 0.37862 0.92958 0.0
C1184 C 0.32394 0.37701 0.86641 0.0
C1185 C 0.30816 0.35546 0.85423 0.0
C1186 C 0.31142 0.37075 0.90351 0.0
C1187 C 0.29433 0.34195 0.86739 0.0
C1188 C 0.30962 0.36104 0.94509 0.0
C1189 C 0.32006 0.41186 0.96273 0.0
N1190 N 0.29643 0.34965 0.8914 0.0
N1191 N 0.31783 0.40342 0.93887 0.0
H1192 H 0.96032 0.03997 0.24086 0.0
H1193 H 0.98783 0.09826 0.38012 0.0
H1194 H 0.93759 0.10089 0.27136 0.0
H1195 H 0.00957 0.03638 0.35003 0.0
H1196 H 0.97371 0.10359 0.33954 0.0
H1197 H 0.98181 0.04124 0.28023 0.0
C1198 C 0.96018 0.05386 0.25582 0.0
C1199 C 0.94741 0.07046 0.25305 0.0
C1200 C 0.98185 0.08908 0.34178 0.0
C1201 C 0.97187 0.07219 0.29779 0.0
C1202 C 0.98994 0.08613 0.36486 0.0
C1203 C 0.99956 0.0667 0.36815 0.0
C1204 C 0.98329 0.07229 0.32207 0.0
C1205 C 0.00222 0.05159 0.34806 0.0
C1206 C 0.97239 0.05458 0.27823 0.0
C1207 C 0.94729 0.08776 0.27293 0.0
N1208 N 0.99379 0.05445 0.32576 0.0
N1209 N 0.95939 0.0882 0.29454 0.0
H1210 H 0.30831 0.80008 0.58073 0.0
H1211 H 0.30036 0.77806 0.71599 0.0
H1212 H 0.2946 0.72598 0.59834 0.0
H1213 H 0.30271 0.84762 0.6902 0.0
H1214 H 0.29792 0.75749 0.67421 0.0
H1215 H 0.30592 0.81689 0.62146 0.0
C1216 C 0.30474 0.78732 0.59321 0.0
C1217 C 0.30161 0.76159 0.58601 0.0
C1218 C 0.29877 0.77721 0.67777 0.0
C1219 C 0.29937 0.78085 0.63343 0.0
C1220 C 0.30009 0.78892 0.70162 0.0
C1221 C 0.30191 0.81471 0.70677 0.0
C1222 C 0.29923 0.79142 0.65901 0.0
C1223 C 0.30163 0.82782 0.68734 0.0
C1224 C 0.30337 0.79691 0.61658 0.0
C1225 C 0.29693 0.74594 0.60306 0.0
N1226 N 0.30043 0.81616 0.66463 0.0
N1227 N 0.29621 0.7558 0.62602 0.0
H1228 H 0.57055 0.01263 0.76209 0.0
H1229 H 0.61155 0.08841 0.89603 0.0
H1230 H 0.62498 0.00678 0.81219 0.0
H1231 H 0.54767 0.07845 0.8553 0.0
H1232 H 0.62096 0.06784 0.86054 0.0
H1233 H 0.56536 0.04468 0.79236 0.0
C1234 C 0.58133 0.01787 0.77942 0.0
C1235 C 0.59797 0.00641 0.78469 0.0
C1236 C 0.60501 0.07064 0.85931 0.0
C1237 C 0.59263 0.04348 0.81888 0.0
C1238 C 0.59966 0.08242 0.87952 0.0
C1239 C 0.57863 0.08456 0.87883 0.0
C1240 C 0.58921 0.06104 0.83836 0.0
C1241 C 0.56405 0.07711 0.85676 0.0
C1242 C 0.57847 0.03627 0.79655 0.0
C1243 C 0.61162 0.0142 0.80728 0.0
N1244 N 0.56949 0.06522 0.83749 0.0
N1245 N 0.60867 0.03222 0.82349 0.0
H1246 H 0.3218 0.35787 0.09087 0.0
H1247 H 0.29802 0.38075 0.22299 0.0
H1248 H 0.29639 0.41879 0.11522 0.0
H1249 H 0.2978 0.30788 0.1877 0.0
H1250 H 0.30013 0.39639 0.18495 0.0
H1251 H 0.31507 0.34012 0.12683 0.0
C1252 C 0.31443 0.36729 0.10357 0.0
C1253 C 0.30954 0.38981 0.09985 0.0
C1254 C 0.29959 0.37698 0.18552 0.0
C1255 C 0.30243 0.36993 0.14167 0.0
C1256 C 0.29858 0.36807 0.20728 0.0
C1257 C 0.29785 0.34296 0.20857 0.0
C1258 C 0.30032 0.36081 0.16492 0.0
C1259 C 0.29837 0.32736 0.18754 0.0
C1260 C 0.31067 0.35718 0.12418 0.0
C1261 C 0.30018 0.40126 0.11713 0.0
N1262 N 0.29976 0.33657 0.16669 0.0
N1263 N 0.29725 0.39143 0.13744 0.0
H1264 H 0.26229 0.98516 0.10128 0.0
H1265 H 0.17513 0.03544 0.02163 0.0
H1266 H 0.24968 0.9725 0.02378 0.0
H1267 H 0.18037 0.03851 0.09816 0.0
H1268 H 0.2027 0.01283 0.0224 0.0
H1269 H 0.23265 0.00481 0.10081 0.0
C1270 C 0.25319 0.98632 0.08413 0.0
C1271 C 0.25854 0.97713 0.0625 0.0
C1272 C 0.19775 0.01827 0.03903 0.0
C1273 C 0.22463 0.99994 0.06188 0.0
C1274 C 0.18188 0.03111 0.03859 0.0
C1275 C 0.17521 0.03881 0.05983 0.0
C1276 C 0.20724 0.01305 0.06088 0.0
C1277 C 0.18506 0.03316 0.08135 0.0
C1278 C 0.23625 0.99759 0.0839 0.0
C1279 C 0.24613 0.9792 0.04088 0.0
N1280 N 0.20057 0.02065 0.08132 0.0
N1281 N 0.22989 0.99051 0.04113 0.0
H1282 H 0.71484 0.67693 0.05565 0.0
H1283 H 0.60066 0.60706 0.97204 0.0
H1284 H 0.69998 0.68059 0.98023 0.0
H1285 H 0.60971 0.62008 0.04929 0.0
H1286 H 0.63728 0.6327 0.97482 0.0
H1287 H 0.67716 0.65516 0.05386 0.0
C1288 C 0.70366 0.67333 0.03869 0.0
C1289 C 0.71077 0.68062 0.018 0.0
C1290 C 0.63131 0.63011 0.99122 0.0
C1291 C 0.66732 0.65536 0.01587 0.0
C1292 C 0.61037 0.61537 0.98966 0.0
C1293 C 0.60205 0.6113 0.01048 0.0
C1294 C 0.64442 0.64069 0.01381 0.0
C1295 C 0.6154 0.62273 0.03278 0.0
C1296 C 0.68207 0.66089 0.03774 0.0
C1297 C 0.69536 0.67538 0.99664 0.0
N1298 N 0.63598 0.63668 0.03387 0.0
N1299 N 0.67449 0.66293 0.9961 0.0
H1300 H 0.73976 0.55655 0.39021 0.0
H1301 H 0.76491 0.49475 0.26802 0.0
H1302 H 0.74669 0.59384 0.3293 0.0
H1303 H 0.76452 0.46076 0.33176 0.0
H1304 H 0.75616 0.53046 0.28948 0.0
H1305 H 0.75025 0.52169 0.36967 0.0
C1306 C 0.74468 0.55796 0.37308 0.0
C1307 C 0.74269 0.57805 0.36148 0.0
C1308 C 0.75787 0.51508 0.29868 0.0
C1309 C 0.75335 0.53796 0.33734 0.0
C1310 C 0.76269 0.49467 0.28639 0.0
C1311 C 0.76584 0.47504 0.29828 0.0
C1312 C 0.75629 0.51575 0.32297 0.0
C1313 C 0.76227 0.47549 0.32187 0.0
C1314 C 0.75005 0.53781 0.36104 0.0
C1315 C 0.7484 0.5787 0.33888 0.0
N1316 N 0.75794 0.4957 0.33355 0.0
N1317 N 0.75309 0.55866 0.32729 0.0
H1318 H 0.88896 0.46618 0.55953 0.0
H1319 H 0.96557 0.56746 0.50344 0.0
H1320 H 0.86402 0.51414 0.51582 0.0
H1321 H 0.98744 0.5362 0.56484 0.0
H1322 H 0.92832 0.54631 0.50489 0.0
H1323 H 0.92531 0.48909 0.55809 0.0
C1324 C 0.8911 0.4814 0.5494 0.0
C1325 C 0.8734 0.48816 0.53763 0.0
C1326 C 0.9413 0.54422 0.51809 0.0
C1327 C 0.91516 0.51473 0.53617 0.0
C1328 C 0.96252 0.55621 0.51725 0.0
C1329 C 0.97957 0.55349 0.53403 0.0
C1330 C 0.93723 0.52906 0.5355 0.0
C1331 C 0.97477 0.53889 0.55164 0.0
C1332 C 0.91192 0.49463 0.54878 0.0
C1333 C 0.87724 0.50828 0.52506 0.0
N1334 N 0.95406 0.52702 0.55176 0.0
N1335 N 0.89778 0.52086 0.52459 0.0
H1336 H 0.42636 0.23066 0.28353 0.0
H1337 H 0.31453 0.2582 0.29888 0.0
H1338 H 0.40065 0.22719 0.34861 0.0
H1339 H 0.35012 0.28518 0.24563 0.0
H1340 H 0.34201 0.23735 0.31208 0.0
H1341 H 0.39494 0.24268 0.26503 0.0
C1342 C 0.41421 0.23256 0.294 0.0
C1343 C 0.41626 0.22814 0.31776 0.0
C1344 C 0.34352 0.24734 0.29713 0.0
C1345 C 0.38018 0.24143 0.29651 0.0
C1346 C 0.3277 0.2589 0.28935 0.0
C1347 C 0.33014 0.2733 0.27111 0.0
C1348 C 0.36166 0.25003 0.28637 0.0
C1349 C 0.34775 0.27418 0.25976 0.0
C1350 C 0.39625 0.23928 0.28335 0.0
C1351 C 0.39984 0.23057 0.33031 0.0
N1352 N 0.36299 0.26285 0.26771 0.0
N1353 N 0.38248 0.23708 0.31952 0.0
H1354 H 0.34948 0.22462 0.54874 0.0
H1355 H 0.40257 0.11813 0.50364 0.0
H1356 H 0.31307 0.15419 0.50503 0.0
H1357 H 0.43104 0.16731 0.57117 0.0
H1358 H 0.37126 0.13503 0.50128 0.0
H1359 H 0.38107 0.20758 0.55565 0.0
C1360 C 0.34816 0.20556 0.54076 0.0
C1361 C 0.32872 0.19064 0.52642 0.0
C1362 C 0.38432 0.14218 0.51665 0.0
C1363 C 0.36465 0.1715 0.53346 0.0
C1364 C 0.40221 0.13265 0.5179 0.0
C1365 C 0.41935 0.14146 0.53753 0.0
C1366 C 0.38363 0.16105 0.53497 0.0
C1367 C 0.41808 0.16012 0.55572 0.0
C1368 C 0.36609 0.19587 0.54471 0.0
C1369 C 0.32772 0.16613 0.51642 0.0
N1370 N 0.40056 0.16953 0.55391 0.0
N1371 N 0.34548 0.15746 0.51983 0.0
H1372 H 0.71781 0.69945 0.37248 0.0
H1373 H 0.77386 0.74073 0.26386 0.0
H1374 H 0.71254 0.64908 0.30686 0.0
H1375 H 0.78104 0.78872 0.33131 0.0
H1376 H 0.7477 0.70805 0.27692 0.0
H1377 H 0.73687 0.73393 0.35516 0.0
C1378 C 0.72044 0.69574 0.35429 0.0
C1379 C 0.71361 0.67145 0.34105 0.0
C1380 C 0.75483 0.72583 0.28877 0.0
C1381 C 0.73573 0.71063 0.32125 0.0
C1382 C 0.7697 0.74435 0.28133 0.0
C1383 C 0.7797 0.76701 0.29685 0.0
C1384 C 0.74982 0.7304 0.31168 0.0
C1385 C 0.77394 0.77114 0.31922 0.0
C1386 C 0.73133 0.7154 0.3444 0.0
C1387 C 0.71728 0.66763 0.31752 0.0
N1388 N 0.75936 0.75298 0.32601 0.0
N1389 N 0.72835 0.68699 0.30844 0.0
H1390 H 0.94837 0.61189 0.78534 0.0
H1391 H 0.84354 0.5159 0.80274 0.0
H1392 H 0.8992 0.63113 0.8203 0.0
H1393 H 0.8902 0.494 0.76501 0.0
H1394 H 0.8595 0.55922 0.80022 0.0
H1395 H 0.92386 0.57011 0.76934 0.0
C1396 C 0.93226 0.60745 0.78916 0.0
C1397 C 0.92586 0.6245 0.8046 0.0
C1398 C 0.86608 0.54496 0.79207 0.0
C1399 C 0.89797 0.57734 0.78651 0.0
C1400 C 0.85682 0.52013 0.79336 0.0
C1401 C 0.86589 0.5014 0.78457 0.0
C1402 C 0.88474 0.55115 0.78229 0.0
C1403 C 0.88318 0.50804 0.77271 0.0
C1404 C 0.91831 0.5837 0.78008 0.0
C1405 C 0.90487 0.61814 0.80894 0.0
N1406 N 0.89236 0.53248 0.77235 0.0
N1407 N 0.89177 0.59497 0.8002 0.0
H1408 H 0.03202 0.90653 0.10001 0.0
H1409 H 0.08701 0.01521 0.03424 0.0
H1410 H 0.09765 0.91634 0.09045 0.0
H1411 H 0.01919 0.99147 0.03516 0.0
H1412 H 0.09232 0.98 0.05386 0.0
H1413 H 0.02869 0.93908 0.07716 0.0
C1414 C 0.04583 0.91542 0.09289 0.0
C1415 C 0.06507 0.90812 0.09686 0.0
C1416 C 0.07627 0.98235 0.04946 0.0
C1417 C 0.06122 0.94631 0.07023 0.0
C1418 C 0.07316 0.00239 0.03815 0.0
C1419 C 0.05257 0.00645 0.03302 0.0
C1420 C 0.05872 0.96639 0.05594 0.0
C1421 C 0.03532 0.98917 0.03856 0.0
C1422 C 0.04385 0.93418 0.07974 0.0
C1423 C 0.08248 0.92117 0.08774 0.0
N1424 N 0.03884 0.97018 0.0499 0.0
N1425 N 0.08012 0.93964 0.0747 0.0
H1426 H 0.96253 0.35188 0.87615 0.0
H1427 H 0.85484 0.27622 0.78416 0.0
H1428 H 0.94141 0.27153 0.85852 0.0
H1429 H 0.85931 0.34916 0.82293 0.0
H1430 H 0.88958 0.2772 0.80755 0.0
H1431 H 0.92731 0.35396 0.85453 0.0
C1432 C 0.95041 0.33472 0.86783 0.0
C1433 C 0.95472 0.31147 0.86915 0.0
C1434 C 0.88303 0.29303 0.81106 0.0
C1435 C 0.91498 0.31371 0.84384 0.0
C1436 C 0.86318 0.29255 0.79761 0.0
C1437 C 0.85404 0.31258 0.80163 0.0
C1438 C 0.89412 0.31374 0.82883 0.0
C1439 C 0.8658 0.33334 0.81919 0.0
C1440 C 0.93039 0.33592 0.85554 0.0
C1441 C 0.93859 0.28979 0.85813 0.0
N1442 N 0.88527 0.3334 0.83221 0.0
N1443 N 0.91961 0.29145 0.8457 0.0
H1444 H 0.55957 0.28914 0.5682 0.0
H1445 H 0.5521 0.15229 0.59543 0.0
H1446 H 0.56499 0.27218 0.63995 0.0
H1447 H 0.5741 0.1752 0.5325 0.0
H1448 H 0.55505 0.19599 0.61139 0.0
H1449 H 0.56318 0.24727 0.55351 0.0
C1450 C 0.5616 0.27657 0.58078 0.0
C1451 C 0.56204 0.28385 0.60523 0.0
C1452 C 0.55959 0.19158 0.59427 0.0
C1453 C 0.56571 0.23626 0.58874 0.0
C1454 C 0.55796 0.16672 0.58526 0.0
C1455 C 0.5632 0.16048 0.56293 0.0
C1456 C 0.56593 0.21017 0.58048 0.0
C1457 C 0.57028 0.17956 0.55003 0.0
C1458 C 0.56374 0.25284 0.57248 0.0
C1459 C 0.56472 0.26713 0.62096 0.0
N1460 N 0.57121 0.20364 0.55887 0.0
N1461 N 0.56619 0.24398 0.61242 0.0
H1462 H 0.59047 0.83187 0.40556 0.0
H1463 H 0.65522 0.85494 0.29915 0.0
H1464 H 0.56173 0.82754 0.33134 0.0
H1465 H 0.68515 0.84469 0.36864 0.0
H1466 H 0.62229 0.85408 0.31403 0.0
H1467 H 0.62624 0.84424 0.39515 0.0
C1468 C 0.59165 0.83362 0.38715 0.0
C1469 C 0.57305 0.8284 0.36925 0.0
C1470 C 0.6361 0.85228 0.32616 0.0
C1471 C 0.61378 0.84268 0.35734 0.0
C1472 C 0.65509 0.85307 0.31775 0.0
C1473 C 0.67301 0.84958 0.33256 0.0
C1474 C 0.63483 0.8478 0.34956 0.0
C1475 C 0.67158 0.8469 0.35642 0.0
C1476 C 0.61205 0.84069 0.38125 0.0
C1477 C 0.57556 0.83116 0.34573 0.0
N1478 N 0.65272 0.84577 0.36413 0.0
N1479 N 0.59548 0.83798 0.34049 0.0
H1480 H 1.00072 0.26208 0.4814 0.0
H1481 H 0.03616 0.13548 0.46171 0.0
H1482 H 0.03995 0.2484 0.42976 0.0
H1483 H 0.02518 0.16606 0.53028 0.0
H1484 H 0.03263 0.1739 0.4468 0.0
H1485 H 0.0052 0.22451 0.49721 0.0
C1486 C 0.01052 0.2514 0.47359 0.0
C1487 C 0.02016 0.25867 0.45435 0.0
C1488 C 0.03095 0.17213 0.46509 0.0
C1489 C 0.02478 0.21512 0.47194 0.0
C1490 C 0.03278 0.15014 0.47354 0.0
C1491 C 0.03098 0.14754 0.49728 0.0
C1492 C 0.02682 0.19147 0.48031 0.0
C1493 C 0.0268 0.16729 0.51188 0.0
C1494 C 0.013 0.2299 0.48258 0.0
C1495 C 0.03247 0.24381 0.4448 0.0
N1496 N 0.02472 0.1883 0.50313 0.0
N1497 N 0.03421 0.22264 0.45349 0.0
H1498 H 0.6305 0.32122 0.17784 0.0
H1499 H 0.74111 0.37431 0.27293 0.0
H1500 H 0.65119 0.39531 0.22028 0.0
H1501 H 0.72062 0.29889 0.23336 0.0
H1502 H 0.7071 0.38114 0.25533 0.0
H1503 H 0.66262 0.31187 0.19858 0.0
C1504 C 0.64194 0.33562 0.19131 0.0
C1505 C 0.63826 0.35916 0.19725 0.0
C1506 C 0.70992 0.36303 0.25053 0.0
C1507 C 0.6749 0.34852 0.22114 0.0
C1508 C 0.72938 0.35911 0.26059 0.0
C1509 C 0.73383 0.33612 0.2543 0.0
C1510 C 0.69479 0.3439 0.23382 0.0
C1511 C 0.71785 0.31695 0.23859 0.0
C1512 C 0.66016 0.33019 0.20328 0.0
C1513 C 0.6534 0.37695 0.21512 0.0
N1514 N 0.69909 0.32136 0.22863 0.0
N1515 N 0.67106 0.37128 0.22636 0.0
H1516 H 0.55584 0.88761 0.95176 0.0
H1517 H 0.51358 0.0077 0.98876 0.0
H1518 H 0.48915 0.88409 0.95187 0.0
H1519 H 0.57904 0.00611 0.01312 0.0
H1520 H 0.50513 0.96384 0.9694 0.0
H1521 H 0.56545 0.93232 0.96938 0.0
C1522 C 0.54325 0.89618 0.95552 0.0
C1523 C 0.52168 0.88193 0.95054 0.0
C1524 C 0.52138 0.97312 0.97889 0.0
C1525 C 0.53248 0.93319 0.97008 0.0
C1526 C 0.52624 0.99822 0.98981 0.0
C1527 C 0.54704 0.01061 0.00265 0.0
C1528 C 0.53747 0.96029 0.98054 0.0
C1529 C 0.56278 0.9973 0.00344 0.0
C1530 C 0.54873 0.92168 0.96556 0.0
C1531 C 0.50603 0.89414 0.95571 0.0
N1532 N 0.55769 0.97291 0.99258 0.0
N1533 N 0.5117 0.91897 0.96498 0.0
H1534 H 0.03346 0.8847 0.69936 0.0
H1535 H 0.92846 0.81614 0.74343 0.0
H1536 H 0.01421 0.80464 0.69424 0.0
H1537 H 0.95907 0.89535 0.7626 0.0
H1538 H 0.95953 0.8106 0.72631 0.0
H1539 H 0.00628 0.88827 0.72335 0.0
C1540 C 0.02336 0.86783 0.70332 0.0
C1541 C 0.02579 0.84434 0.69469 0.0
C1542 C 0.95953 0.82911 0.73457 0.0
C1543 C 0.99441 0.84816 0.72197 0.0
C1544 C 0.94176 0.83233 0.74423 0.0
C1545 C 0.94099 0.85632 0.75427 0.0
C1546 C 0.97654 0.85005 0.73472 0.0
C1547 C 0.95889 0.8765 0.75519 0.0
C1548 C 0.00793 0.86986 0.71713 0.0
C1549 C 0.01264 0.82306 0.70055 0.0
N1550 N 0.97575 0.87294 0.7453 0.0
N1551 N 0.99723 0.82542 0.71361 0.0
H1552 H 0.17139 0.15377 0.94737 0.0
H1553 H 0.06238 0.04908 0.94449 0.0
H1554 H 0.15318 0.08133 0.90215 0.0
H1555 H 0.08541 0.11917 0.99396 0.0
H1556 H 0.09472 0.06083 0.92687 0.0
H1557 H 0.13928 0.14107 0.96482 0.0
C1558 C 0.16087 0.13501 0.94173 0.0
C1559 C 0.16498 0.1182 0.92416 0.0
C1560 C 0.09259 0.07348 0.9417 0.0
C1561 C 0.12807 0.10399 0.94256 0.0
C1562 C 0.07419 0.06681 0.95158 0.0
C1563 C 0.07153 0.08298 0.97087 0.0
C1564 C 0.10807 0.09633 0.95142 0.0
C1565 C 0.087 0.10592 0.97936 0.0
C1566 C 0.14247 0.12781 0.95129 0.0
C1567 C 0.15067 0.09435 0.91644 0.0
N1568 N 0.10466 0.11182 0.96968 0.0
N1569 N 0.13266 0.08796 0.92558 0.0
H1570 H 0.83142 0.36447 0.59016 0.0
H1571 H 0.81083 0.39499 0.72214 0.0
H1572 H 0.79626 0.41784 0.60881 0.0
H1573 H 0.81002 0.32002 0.69204 0.0
H1574 H 0.81167 0.40691 0.68236 0.0
H1575 H 0.82888 0.35025 0.6288 0.0
C1576 C 0.82279 0.37284 0.60213 0.0
C1577 C 0.81378 0.39216 0.59601 0.0
C1578 C 0.81136 0.38787 0.68452 0.0
C1579 C 0.81162 0.37666 0.6406 0.0
C1580 C 0.81108 0.38112 0.70722 0.0
C1581 C 0.81032 0.35646 0.71036 0.0
C1582 C 0.8114 0.37001 0.66493 0.0
C1583 C 0.81047 0.33919 0.69035 0.0
C1584 C 0.82146 0.36481 0.6242 0.0
C1585 C 0.80311 0.40261 0.61249 0.0
N1586 N 0.81117 0.34633 0.66851 0.0
N1587 N 0.80262 0.39501 0.63414 0.0
H1588 H 0.48515 0.19224 0.40515 0.0
H1589 H 0.54847 0.09419 0.44563 0.0
H1590 H 0.51744 0.15294 0.35937 0.0
H1591 H 0.51571 0.13151 0.49212 0.0
H1592 H 0.53389 0.11258 0.41241 0.0
H1593 H 0.4935 0.16799 0.43632 0.0
C1594 C 0.49393 0.17852 0.40162 0.0
C1595 C 0.50064 0.17467 0.37966 0.0
C1596 C 0.52963 0.11657 0.42976 0.0
C1597 C 0.51026 0.14697 0.41514 0.0
C1598 C 0.53786 0.10599 0.44858 0.0
C1599 C 0.53313 0.1115 0.47129 0.0
C1600 C 0.5169 0.13305 0.43394 0.0
C1601 C 0.51954 0.12693 0.47463 0.0
C1602 C 0.49866 0.16466 0.4194 0.0
C1603 C 0.51208 0.15671 0.3761 0.0
N1604 N 0.51199 0.13745 0.45612 0.0
N1605 N 0.51656 0.14359 0.39367 0.0
H1606 H 0.76794 0.78132 0.06861 0.0
H1607 H 0.8173 0.78346 0.20707 0.0
H1608 H 0.82105 0.75194 0.09327 0.0
H1609 H 0.76358 0.8135 0.18688 0.0
H1610 H 0.8174 0.77076 0.16481 0.0
H1611 H 0.76511 0.79334 0.1109 0.0
C1612 C 0.77889 0.77731 0.08291 0.0
C1613 C 0.79483 0.76574 0.07753 0.0
C1614 C 0.80551 0.7801 0.16942 0.0
C1615 C 0.79144 0.77884 0.12564 0.0
C1616 C 0.80545 0.78731 0.19363 0.0
C1617 C 0.7904 0.7995 0.20049 0.0
C1618 C 0.79065 0.78544 0.15162 0.0
C1619 C 0.77531 0.80389 0.1823 0.0
C1620 C 0.77727 0.78413 0.10699 0.0
C1621 C 0.80871 0.76109 0.09665 0.0
N1622 N 0.77592 0.79706 0.15865 0.0
N1623 N 0.80662 0.76751 0.11969 0.0
H1624 H 0.15363 0.15069 0.80096 0.0
H1625 H 0.0791 0.05887 0.68508 0.0
H1626 H 0.13782 0.0704 0.79641 0.0
H1627 H 0.1107 0.13671 0.68803 0.0
H1628 H 0.0988 0.06142 0.72628 0.0
H1629 H 0.13559 0.14507 0.75955 0.0
C1630 C 0.14624 0.13187 0.79122 0.0
C1631 C 0.14702 0.11101 0.802 0.0
C1632 C 0.10137 0.07783 0.71776 0.0
C1633 C 0.12651 0.10432 0.75466 0.0
C1634 C 0.09013 0.07637 0.69455 0.0
C1635 C 0.09305 0.09785 0.684 0.0
C1636 C 0.11539 0.10085 0.72979 0.0
C1637 C 0.10772 0.12004 0.69619 0.0
C1638 C 0.13607 0.12861 0.76754 0.0
C1639 C 0.13745 0.08697 0.78857 0.0
N1640 N 0.1183 0.121 0.71853 0.0
N1641 N 0.12741 0.08422 0.76544 0.0
H1642 H 0.8482 0.41649 0.46685 0.0
H1643 H 0.76659 0.32606 0.35579 0.0
H1644 H 0.78092 0.38909 0.46847 0.0
H1645 H 0.8232 0.37919 0.34596 0.0
H1646 H 0.77231 0.34687 0.39739 0.0
H1647 H 0.84042 0.40111 0.42351 0.0
C1648 C 0.83174 0.40715 0.45807 0.0
C1649 C 0.81519 0.40393 0.47143 0.0
C1650 C 0.78331 0.3543 0.38611 0.0
C1651 C 0.80621 0.38596 0.42156 0.0
C1652 C 0.78006 0.34246 0.36228 0.0
C1653 C 0.79428 0.35105 0.34718 0.0
C1654 C 0.8013 0.37467 0.3954 0.0
C1655 C 0.81162 0.37217 0.35678 0.0
C1656 C 0.82732 0.39854 0.43326 0.0
C1657 C 0.79416 0.39199 0.45896 0.0
N1658 N 0.81482 0.38302 0.38038 0.0
N1659 N 0.79033 0.38312 0.43483 0.0
H1660 H 0.53121 0.1839 0.26576 0.0
H1661 H 0.47921 0.07439 0.15653 0.0
H1662 H 0.46234 0.15218 0.24928 0.0
H1663 H 0.54344 0.08784 0.19766 0.0
H1664 H 0.4711 0.10203 0.18869 0.0
H1665 H 0.53509 0.15 0.2372 0.0
C1666 C 0.51687 0.16993 0.25595 0.0
C1667 C 0.49646 0.17087 0.25993 0.0
C1668 C 0.48677 0.09837 0.1908 0.0
C1669 C 0.5008 0.1317 0.2275 0.0
C1670 C 0.49138 0.08259 0.17257 0.0
C1671 C 0.51215 0.07919 0.17424 0.0
C1672 C 0.50319 0.11097 0.21045 0.0
C1673 C 0.52723 0.08991 0.1955 0.0
C1674 C 0.51911 0.1504 0.23987 0.0
C1675 C 0.4784 0.15225 0.24662 0.0
N1676 N 0.52259 0.10575 0.21253 0.0
N1677 N 0.48099 0.13332 0.23092 0.0
H1678 H 0.76328 0.75042 0.93155 0.0
H1679 H 0.83948 0.85012 0.87079 0.0
H1680 H 0.82065 0.80634 0.96945 0.0
H1681 H 0.77887 0.80212 0.83108 0.0
H1682 H 0.83189 0.83367 0.9069 0.0
H1683 H 0.76696 0.76906 0.89499 0.0
C1684 C 0.77634 0.76688 0.93242 0.0
C1685 C 0.79168 0.77666 0.95382 0.0
C1686 C 0.82008 0.82672 0.8904 0.0
C1687 C 0.79631 0.79773 0.91175 0.0
C1688 C 0.82445 0.83615 0.86966 0.0
C1689 C 0.80979 0.82761 0.84775 0.0
C1690 C 0.80081 0.80839 0.88957 0.0
C1691 C 0.79064 0.80929 0.84753 0.0
C1692 C 0.77857 0.77737 0.91143 0.0
C1693 C 0.80841 0.7979 0.95354 0.0
N1694 N 0.78672 0.80025 0.86806 0.0
N1695 N 0.81035 0.80742 0.93299 0.0
H1696 H 0.84389 0.19875 0.98277 0.0
H1697 H 0.92053 0.12077 0.03862 0.0
H1698 H 0.83556 0.1666 0.04644 0.0
H1699 H 0.91052 0.12576 0.96327 0.0
H1700 H 0.8928 0.14243 0.04358 0.0
H1701 H 0.87158 0.17699 0.97708 0.0
C1702 C 0.84821 0.18749 0.99583 0.0
C1703 C 0.83766 0.18473 0.01534 0.0
C1704 C 0.89664 0.13879 0.02595 0.0
C1705 C 0.86933 0.15985 0.00891 0.0
C1706 C 0.91257 0.12659 0.02313 0.0
C1707 C 0.91796 0.1216 1.00053 0.0
C1708 C 0.88612 0.14647 0.00613 0.0
C1709 C 0.90684 0.12921 0.981 0.0
C1710 C 0.86383 0.17487 0.9924 0.0
C1711 C 0.84344 0.16937 0.0313 0.0
N1712 N 0.89155 0.14147 0.98427 0.0
N1713 N 0.85903 0.15769 0.02786 0.0
H1714 H 0.37335 0.48845 0.00472 0.0
H1715 H 0.48589 0.56375 0.08487 0.0
H1716 H 0.39339 0.47779 0.07721 0.0
H1717 H 0.48238 0.53918 0.00949 0.0
H1718 H 0.44932 0.53788 0.08143 0.0
H1719 H 0.41078 0.51154 0.00478 0.0
C1720 C 0.38564 0.49084 0.02056 0.0
C1721 C 0.38032 0.48113 0.04098 0.0
C1722 C 0.45654 0.53805 0.06562 0.0
C1723 C 0.42275 0.50807 0.04142 0.0
C1724 C 0.47744 0.55291 0.06752 0.0
C1725 C 0.48736 0.55364 0.04745 0.0
C1726 C 0.44509 0.52396 0.04336 0.0
C1727 C 0.47542 0.53919 0.02542 0.0
C1728 C 0.40693 0.50394 0.02055 0.0
C1729 C 0.39682 0.48475 0.06101 0.0
N1730 N 0.45481 0.52505 0.02389 0.0
N1731 N 0.41714 0.49823 0.06086 0.0
H1732 H 0.3811 0.61692 0.69888 0.0
H1733 H 0.32057 0.66477 0.79473 0.0
H1734 H 0.34516 0.56991 0.74115 0.0
H1735 H 0.36875 0.71547 0.76755 0.0
H1736 H 0.33481 0.63077 0.78097 0.0
H1737 H 0.38027 0.65384 0.72655 0.0
C1738 C 0.37301 0.61438 0.7139 0.0
C1739 C 0.3629 0.59037 0.71759 0.0
C1740 C 0.34261 0.64939 0.77837 0.0
C1741 C 0.36234 0.63219 0.7494 0.0
C1742 C 0.33462 0.66903 0.78657 0.0
C1743 C 0.34288 0.69292 0.78138 0.0
C1744 C 0.3586 0.65356 0.7644 0.0
C1745 C 0.3612 0.69705 0.77082 0.0
C1746 C 0.37284 0.63539 0.72987 0.0
C1747 C 0.35301 0.58809 0.73755 0.0
N1748 N 0.36804 0.67735 0.76189 0.0
N1749 N 0.35287 0.60869 0.75258 0.0
H1750 H 0.21034 0.69648 0.50498 0.0
H1751 H 0.12757 0.58681 0.54418 0.0
H1752 H 0.22277 0.6247 0.50959 0.0
H1753 H 0.1067 0.64039 0.50505 0.0
H1754 H 0.16424 0.60339 0.53725 0.0
H1755 H 0.17344 0.67903 0.51016 0.0
C1756 C 0.2053 0.67706 0.50704 0.0
C1757 C 0.21967 0.66205 0.50699 0.0
C1758 C 0.1516 0.61152 0.53027 0.0
C1759 C 0.1777 0.64218 0.51327 0.0
C1760 C 0.13083 0.60223 0.53438 0.0
C1761 C 0.11429 0.61238 0.5252 0.0
C1762 C 0.15583 0.63148 0.5175 0.0
C1763 C 0.11911 0.63209 0.51233 0.0
C1764 C 0.18426 0.66713 0.50993 0.0
C1765 C 0.21224 0.63695 0.50957 0.0
N1766 N 0.13951 0.64119 0.50904 0.0
N1767 N 0.19182 0.62786 0.51287 0.0
H1768 H 0.6699 0.91836 0.79076 0.0
H1769 H 0.77558 0.90027 0.7475 0.0
H1770 H 0.68835 0.94749 0.72852 0.0
H1771 H 0.76079 0.89105 0.81717 0.0
H1772 H 0.74481 0.91802 0.73886 0.0
H1773 H 0.70288 0.90589 0.79812 0.0
C1774 C 0.68083 0.92176 0.77835 0.0
C1775 C 0.67647 0.93409 0.75909 0.0
C1776 C 0.74872 0.91282 0.75628 0.0
C1777 C 0.71475 0.92021 0.76771 0.0
C1778 C 0.76638 0.90308 0.76135 0.0
C1779 C 0.77064 0.89458 0.78318 0.0
C1780 C 0.73542 0.9138 0.77323 0.0
C1781 C 0.75801 0.89764 0.80025 0.0
C1782 C 0.69983 0.91489 0.78274 0.0
C1783 C 0.69113 0.93788 0.74351 0.0
N1784 N 0.74085 0.90685 0.79483 0.0
N1785 N 0.70984 0.93106 0.74825 0.0
H1786 H 0.75841 0.9785 0.48901 0.0
H1787 H 0.6702 0.01866 0.55613 0.0
H1788 H 0.75709 0.97454 0.56357 0.0
H1789 H 0.66819 0.01529 0.47999 0.0
H1790 H 0.70071 1.00043 0.55889 0.0
H1791 H 0.7244 0.99009 0.48504 0.0
C1792 C 0.75091 0.98006 0.50455 0.0
C1793 C 0.76058 0.97558 0.52663 0.0
C1794 C 0.69348 0.00343 0.54153 0.0
C1795 C 0.72176 0.98924 0.52237 0.0
C1796 C 0.67591 0.01368 0.53989 0.0
C1797 C 0.66661 0.01865 0.5178 0.0
C1798 C 0.70193 0.99812 0.52094 0.0
C1799 C 0.67503 0.01217 0.49747 0.0
C1800 C 0.73147 0.98662 0.50227 0.0
C1801 C 0.75009 0.97765 0.54615 0.0
N1802 N 0.69226 0.00242 0.49956 0.0
N1803 N 0.73137 0.98459 0.54363 0.0
H1804 H 0.36692 0.46662 0.67667 0.0
H1805 H 0.33842 0.40082 0.78817 0.0
H1806 H 0.38461 0.50394 0.75053 0.0
H1807 H 0.30253 0.37497 0.71563 0.0
H1808 H 0.36323 0.43362 0.77379 0.0
H1809 H 0.35081 0.42756 0.69021 0.0
C1810 C 0.36764 0.46646 0.69569 0.0
C1811 C 0.37669 0.48844 0.71252 0.0
C1812 C 0.35004 0.42056 0.76103 0.0
C1813 C 0.35872 0.44431 0.728 0.0
C1814 C 0.33595 0.40196 0.76921 0.0
C1815 C 0.31825 0.38579 0.75307 0.0
C1816 C 0.34643 0.42258 0.73657 0.0
C1817 C 0.31576 0.38763 0.72866 0.0
C1818 C 0.35848 0.4443 0.70339 0.0
C1819 C 0.37739 0.48739 0.73698 0.0
N1820 N 0.32965 0.40587 0.72112 0.0
N1821 N 0.36839 0.4657 0.744 0.0
H1822 H 0.19659 0.54136 0.29711 0.0
H1823 H 0.20367 0.66358 0.23857 0.0
H1824 H 0.15087 0.5472 0.23636 0.0
H1825 H 0.25877 0.65275 0.2839 0.0
H1826 H 0.1838 0.62102 0.23921 0.0
H1827 H 0.21965 0.58222 0.29417 0.0
C1828 C 0.1914 0.55135 0.28327 0.0
C1829 C 0.17176 0.54121 0.2671 0.0
C1830 C 0.20026 0.62776 0.24895 0.0
C1831 C 0.19779 0.58748 0.2637 0.0
C1832 C 0.21152 0.65206 0.24868 0.0
C1833 C 0.23266 0.66148 0.26141 0.0
C1834 C 0.21016 0.61281 0.26224 0.0
C1835 C 0.24238 0.64592 0.27397 0.0
C1836 C 0.2046 0.57445 0.28149 0.0
C1837 C 0.16588 0.55446 0.24918 0.0
N1838 N 0.23091 0.62221 0.2743 0.0
N1839 N 0.17877 0.57704 0.24811 0.0
H1840 H 0.54732 0.75672 0.44329 0.0
H1841 H 0.51407 0.65542 0.52683 0.0
H1842 H 0.49424 0.75255 0.48051 0.0
H1843 H 0.57447 0.66895 0.50252 0.0
H1844 H 0.50721 0.6918 0.51074 0.0
H1845 H 0.55823 0.72553 0.46525 0.0
C1846 C 0.53811 0.74956 0.4563 0.0
C1847 C 0.51971 0.75729 0.4599 0.0
C1848 C 0.5221 0.68704 0.50914 0.0
C1849 C 0.53209 0.72134 0.48502 0.0
C1850 C 0.52603 0.66626 0.51838 0.0
C1851 C 0.54491 0.65919 0.51615 0.0
C1852 C 0.53694 0.70065 0.49709 0.0
C1853 C 0.55981 0.6739 0.50491 0.0
C1854 C 0.54435 0.73169 0.46881 0.0
C1855 C 0.50842 0.74713 0.47693 0.0
N1856 N 0.55539 0.69373 0.49554 0.0
N1857 N 0.51468 0.72962 0.48866 0.0
H1858 H 0.64556 0.3855 0.73205 0.0
H1859 H 0.74458 0.32429 0.7307 0.0
H1860 H 0.65117 0.34076 0.66743 0.0
H1861 H 0.74356 0.38701 0.78222 0.0
H1862 H 0.70903 0.32512 0.70858 0.0
H1863 H 0.67993 0.38154 0.75187 0.0
C1864 C 0.65409 0.37489 0.72191 0.0
C1865 C 0.64541 0.36365 0.69791 0.0
C1866 C 0.71662 0.33858 0.72479 0.0
C1867 C 0.68524 0.35869 0.72091 0.0
C1868 C 0.73678 0.33797 0.73752 0.0
C1869 C 0.74703 0.3556 0.7584 0.0
C1870 C 0.70659 0.35667 0.73332 0.0
C1871 C 0.73633 0.37309 0.76625 0.0
C1872 C 0.67383 0.37262 0.73331 0.0
C1873 C 0.65736 0.35005 0.68585 0.0
N1874 N 0.71684 0.3731 0.75384 0.0
N1875 N 0.67664 0.34782 0.69752 0.0
H1876 H 0.02198 0.36948 0.98836 0.0
H1877 H 0.00575 0.50142 0.96674 0.0
H1878 H 0.00783 0.38633 0.91713 0.0
H1879 H 0.05289 0.49568 0.02605 0.0
H1880 H 1.00097 0.45714 0.95046 0.0
H1881 H 0.02911 0.41424 0.00494 0.0
C1882 C 0.02059 0.38269 0.97628 0.0
C1883 C 0.01453 0.37449 0.95142 0.0
C1884 C 0.0123 0.46562 0.96708 0.0
C1885 C 0.0217 0.42503 0.97009 0.0
C1886 C 0.01488 0.49073 0.97643 0.0
C1887 C 0.02973 0.50207 0.99768 0.0
C1888 C 0.02422 0.4517 0.97947 0.0
C1889 C 0.04136 0.48755 0.0095 0.0
C1890 C 0.02459 0.40809 0.98568 0.0
C1891 C 0.01273 0.39213 0.93641 0.0
N1892 N 0.03823 0.46302 1.00035 0.0
N1893 N 0.016 0.41656 0.94598 0.0
H1894 H 0.00377 0.83751 0.14848 0.0
H1895 H 0.94913 0.80864 0.25979 0.0
H1896 H 0.03793 0.82114 0.21275 0.0
H1897 H 0.91447 0.81481 0.19108 0.0
H1898 H 0.98075 0.80859 0.24196 0.0
H1899 H 0.97042 0.82485 0.16253 0.0
C1900 C 0.00432 0.83077 0.16536 0.0
C1901 C 0.02387 0.83033 0.17934 0.0
C1902 C 0.96615 0.80965 0.23072 0.0
C1903 C 0.98531 0.81652 0.19615 0.0
C1904 C 0.94798 0.80952 0.24084 0.0
C1905 C 0.92909 0.81208 0.22702 0.0
C1906 C 0.96553 0.81253 0.20662 0.0
C1907 C 0.92878 0.81342 0.20262 0.0
C1908 C 0.98511 0.82365 0.1735 0.0
C1909 C 0.02328 0.82179 0.20135 0.0
N1910 N 0.94676 0.81391 0.19331 0.0
N1911 N 0.00435 0.81555 0.20924 0.0
H1912 H 0.56997 0.39083 0.06867 0.0
H1913 H 0.56165 0.5325 0.0955 0.0
H1914 H 0.56471 0.42756 0.13743 0.0
H1915 H 0.55826 0.49395 0.02419 0.0
H1916 H 0.56707 0.49568 0.11174 0.0
H1917 H 0.5709 0.43005 0.05281 0.0
C1918 C 0.56952 0.40732 0.08052 0.0
C1919 C 0.5677 0.40619 0.10447 0.0
C1920 C 0.56533 0.49528 0.09255 0.0
C1921 C 0.56784 0.45065 0.08637 0.0
C1922 C 0.56227 0.51638 0.08325 0.0
C1923 C 0.55946 0.51639 0.0584 0.0
C1924 C 0.56581 0.47392 0.07699 0.0
C1925 C 0.56021 0.49476 0.04344 0.0
C1926 C 0.56981 0.4296 0.07145 0.0
C1927 C 0.56664 0.42787 0.11899 0.0
N1928 N 0.56332 0.47444 0.05294 0.0
N1929 N 0.56655 0.44907 0.1097 0.0
H1930 H 0.94894 0.3153 0.39645 0.0
H1931 H 0.87759 0.32814 0.27437 0.0
H1932 H 0.97552 0.33091 0.33377 0.0
H1933 H 0.85713 0.33326 0.34244 0.0
H1934 H 0.91306 0.32628 0.29492 0.0
H1935 H 0.91449 0.31936 0.37623 0.0
C1936 C 0.94757 0.3197 0.37849 0.0
C1937 C 0.96514 0.32289 0.36682 0.0
C1938 C 0.90087 0.32801 0.30537 0.0
C1939 C 0.92568 0.32718 0.34342 0.0
C1940 C 0.88074 0.32902 0.29367 0.0
C1941 C 0.86473 0.33077 0.30691 0.0
C1942 C 0.90479 0.32881 0.33039 0.0
C1943 C 0.86922 0.33173 0.33176 0.0
C1944 C 0.9279 0.32204 0.36695 0.0
C1945 C 0.96241 0.32853 0.3435 0.0
N1946 N 0.88888 0.33071 0.34276 0.0
N1947 N 0.94299 0.33031 0.33246 0.0
H1948 H 0.02246 0.77499 0.5784 0.0
H1949 H 0.06787 0.6533 0.57925 0.0
H1950 H 0.07703 0.77448 0.63142 0.0
H1951 H 0.01766 0.66255 0.52545 0.0
H1952 H 0.07139 0.69604 0.60053 0.0
H1953 H 0.02078 0.73283 0.56014 0.0
C1954 C 0.03419 0.76605 0.58624 0.0
C1955 C 0.04986 0.77851 0.6066 0.0
C1956 C 0.05951 0.68852 0.58416 0.0
C1957 C 0.0479 0.72932 0.58563 0.0
C1958 C 0.05735 0.66406 0.57219 0.0
C1959 C 0.04233 0.65424 0.5506 0.0
C1960 C 0.04644 0.70301 0.57448 0.0
C1961 C 0.02944 0.66922 0.542 0.0
C1962 C 0.03321 0.74178 0.57576 0.0
C1963 C 0.06467 0.7657 0.6157 0.0
N1964 N 0.0318 0.69259 0.55385 0.0
N1965 N 0.06327 0.74178 0.60526 0.0
H1966 H 0.55978 0.76846 0.83822 0.0
H1967 H 0.67508 0.84653 0.82115 0.0
H1968 H 0.59107 0.84243 0.87836 0.0
H1969 H 0.64525 0.76877 0.79101 0.0
H1970 H 0.64364 0.84759 0.83952 0.0
H1971 H 0.59016 0.77041 0.81825 0.0
C1972 C 0.5731 0.78518 0.84286 0.0
C1973 C 0.57293 0.80524 0.86013 0.0
C1974 C 0.64402 0.83038 0.82878 0.0
C1975 C 0.608 0.80772 0.83703 0.0
C1976 C 0.66196 0.82972 0.81833 0.0
C1977 C 0.66292 0.80748 0.80451 0.0
C1978 C 0.62695 0.80865 0.8254 0.0
C1979 C 0.64524 0.78644 0.80117 0.0
C1980 C 0.5905 0.78629 0.83141 0.0
C1981 C 0.59069 0.82641 0.86537 0.0
N1982 N 0.62813 0.78755 0.81157 0.0
N1983 N 0.60755 0.82714 0.85381 0.0
H1984 H 0.44272 0.51073 0.62913 0.0
H1985 H 0.52768 0.6227 0.59467 0.0
H1986 H 0.43365 0.58487 0.63126 0.0
H1987 H 0.52314 0.54457 0.57295 0.0
H1988 H 0.49536 0.61037 0.61239 0.0
H1989 H 0.47397 0.52365 0.61082 0.0
C1990 C 0.44705 0.52957 0.62525 0.0
C1991 C 0.43562 0.54673 0.63165 0.0
C1992 C 0.5016 0.59604 0.60379 0.0
C1993 C 0.47161 0.56187 0.61138 0.0
C1994 C 0.52009 0.60307 0.59405 0.0
C1995 C 0.52789 0.58458 0.5825 0.0
C1996 C 0.49132 0.57048 0.60198 0.0
C1997 C 0.51749 0.55937 0.58169 0.0
C1998 C 0.46497 0.53701 0.61499 0.0
C1999 C 0.44198 0.571 0.62642 0.0
N2000 N 0.49973 0.55306 0.59126 0.0
N2001 N 0.45979 0.57799 0.61682 0.0
H2002 H 0.76222 0.24108 0.94367 0.0
H2003 H 0.81175 0.34671 0.87016 0.0
H2004 H 0.81434 0.30674 0.97424 0.0
H2005 H 0.76697 0.27627 0.83555 0.0
H2006 H 0.80878 0.33447 0.90903 0.0
H2007 H 0.75927 0.25616 0.90511 0.0
C2008 C 0.77262 0.25902 0.94253 0.0
C2009 C 0.78857 0.27267 0.96235 0.0
C2010 C 0.79947 0.32169 0.89299 0.0
C2011 C 0.7855 0.28981 0.91805 0.0
C2012 C 0.80113 0.32869 0.87064 0.0
C2013 C 0.78964 0.31251 0.84932 0.0
C2014 C 0.78617 0.29827 0.89435 0.0
C2015 C 0.7762 0.28937 0.85141 0.0
C2016 C 0.7711 0.26745 0.92038 0.0
C2017 C 0.80183 0.29555 0.95953 0.0
N2018 N 0.77489 0.28291 0.87349 0.0
N2019 N 0.80009 0.30326 0.93785 0.0
H2020 H 0.07671 0.50103 0.19069 0.0
H2021 H 0.07775 0.53587 0.06021 0.0
H2022 H 0.11763 0.47717 0.14562 0.0
H2023 H 0.04546 0.56675 0.11167 0.0
H2024 H 0.09496 0.51659 0.09139 0.0
H2025 H 0.06736 0.52745 0.16247 0.0
C2026 C 0.08363 0.5013 0.17466 0.0
C2027 C 0.0976 0.48659 0.17014 0.0
C2028 C 0.08446 0.52798 0.096 0.0
C2029 C 0.08688 0.51678 0.13752 0.0
C2030 C 0.07479 0.53904 0.07829 0.0
C2031 C 0.06044 0.55291 0.08369 0.0
C2032 C 0.07945 0.53078 0.11904 0.0
C2033 C 0.05655 0.55618 0.10702 0.0
C2034 C 0.07841 0.51653 0.1586 0.0
C2035 C 0.10662 0.48812 0.14951 0.0
N2036 N 0.06591 0.54506 0.12384 0.0
N2037 N 0.10083 0.50271 0.13367 0.0
H2038 H 0.82264 0.85947 0.48406 0.0
H2039 H 0.81614 0.897 0.35368 0.0
H2040 H 0.80847 0.92808 0.46944 0.0
H2041 H 0.80191 0.82016 0.36375 0.0
H2042 H 0.81758 0.90993 0.39686 0.0
H2043 H 0.81816 0.84527 0.44071 0.0
C2044 C 0.81825 0.87138 0.47172 0.0
C2045 C 0.81575 0.89493 0.48045 0.0
C2046 C 0.81411 0.89023 0.3896 0.0
C2047 C 0.81142 0.87918 0.43078 0.0
C2048 C 0.81346 0.88291 0.36505 0.0
C2049 C 0.80888 0.85751 0.35523 0.0
C2050 C 0.81051 0.87203 0.40448 0.0
C2051 C 0.80539 0.83992 0.37064 0.0
C2052 C 0.81579 0.86331 0.44698 0.0
C2053 C 0.81025 0.90966 0.46355 0.0
N2054 N 0.80642 0.84748 0.3945 0.0
N2055 N 0.8086 0.90172 0.43961 0.0
H2056 H 0.45838 0.53351 0.74095 0.0
H2057 H 0.48777 0.5964 0.87934 0.0
H2058 H 0.42841 0.58656 0.77327 0.0
H2059 H 0.50869 0.53279 0.85193 0.0
H2060 H 0.47192 0.59866 0.8384 0.0
H2061 H 0.48136 0.53677 0.78013 0.0
C2062 C 0.45678 0.54591 0.75631 0.0
C2063 C 0.44166 0.55985 0.75413 0.0
C2064 C 0.48024 0.58441 0.84128 0.0
C2065 C 0.46794 0.56414 0.79833 0.0
C2066 C 0.48938 0.58327 0.86455 0.0
C2067 C 0.49916 0.56416 0.86877 0.0
C2068 C 0.48081 0.56619 0.8223 0.0
C2069 C 0.50118 0.54774 0.84921 0.0
C2070 C 0.46986 0.54782 0.77853 0.0
C2071 C 0.43986 0.57542 0.7744 0.0
N2072 N 0.49169 0.54884 0.8267 0.0
N2073 N 0.45296 0.57726 0.79569 0.0
H2074 H 0.78748 0.28861 0.07527 0.0
H2075 H 0.8101 0.27957 0.21646 0.0
H2076 H 0.81813 0.23499 0.10232 0.0
H2077 H 0.79246 0.34087 0.18764 0.0
H2078 H 0.80821 0.25882 0.17495 0.0
H2079 H 0.7843 0.30403 0.11633 0.0
C2080 C 0.79347 0.28005 0.0899 0.0
C2081 C 0.80319 0.26064 0.08545 0.0
C2082 C 0.80451 0.27669 0.17778 0.0
C2083 C 0.79967 0.27814 0.13271 0.0
C2084 C 0.80541 0.28839 0.20144 0.0
C2085 C 0.80147 0.31202 0.20552 0.0
C2086 C 0.79934 0.28858 0.15815 0.0
C2087 C 0.79574 0.32274 0.18538 0.0
C2088 C 0.79168 0.28882 0.11338 0.0
C2089 C 0.8106 0.25009 0.10507 0.0
N2090 N 0.79488 0.31105 0.16278 0.0
N2091 N 0.80877 0.25899 0.12783 0.0
H2092 H 0.0859 0.52164 0.2615 0.0
H2093 H 0.1121 0.57137 0.40232 0.0
H2094 H 0.11127 0.48269 0.31484 0.0
H2095 H 0.05727 0.58114 0.35531 0.0
H2096 H 0.12253 0.55099 0.36737 0.0
H2097 H 0.08418 0.55381 0.29382 0.0
C2098 C 0.09114 0.51982 0.27995 0.0
C2099 C 0.09899 0.49952 0.28547 0.0
C2100 C 0.1085 0.55816 0.3648 0.0
C2101 C 0.09782 0.53666 0.32217 0.0
C2102 C 0.10251 0.56974 0.38466 0.0
C2103 C 0.08332 0.57708 0.38185 0.0
C2104 C 0.09535 0.55433 0.3421 0.0
C2105 C 0.07203 0.57548 0.35844 0.0
C2106 C 0.0904 0.53834 0.29827 0.0
C2107 C 0.10568 0.49826 0.30968 0.0
N2108 N 0.078 0.56381 0.33944 0.0
N2109 N 0.10503 0.51667 0.32717 0.0
H2110 H 0.81039 0.92694 0.62429 0.0
H2111 H 0.78813 0.8046 0.68619 0.0
H2112 H 0.81077 0.85457 0.58855 0.0
H2113 H 0.80846 0.87966 0.72639 0.0
H2114 H 0.79162 0.82173 0.64911 0.0
H2115 H 0.80443 0.90909 0.66051 0.0
C2116 C 0.8086 0.90711 0.62387 0.0
C2117 C 0.8108 0.89213 0.60329 0.0
C2118 C 0.79543 0.83444 0.66606 0.0
C2119 C 0.80413 0.87155 0.64477 0.0
C2120 C 0.7935 0.82468 0.68725 0.0
C2121 C 0.79814 0.8407 0.70948 0.0
C2122 C 0.80188 0.86047 0.667 0.0
C2123 C 0.80482 0.86659 0.70969 0.0
C2124 C 0.80547 0.897 0.64464 0.0
C2125 C 0.80902 0.86671 0.60398 0.0
N2126 N 0.80641 0.87564 0.68882 0.0
N2127 N 0.80569 0.8572 0.62431 0.0
H2128 H 0.78037 0.51589 0.58852 0.0
H2129 H 0.6557 0.50405 0.54143 0.0
H2130 H 0.73982 0.45522 0.5341 0.0
H2131 H 0.70091 0.56997 0.58508 0.0
H2132 H 0.68462 0.4831 0.54248 0.0
H2133 H 0.74979 0.53289 0.59135 0.0
C2134 C 0.76498 0.50601 0.57718 0.0
C2135 C 0.76277 0.48413 0.56086 0.0
C2136 C 0.68812 0.5021 0.55194 0.0
C2137 C 0.7274 0.5037 0.56412 0.0
C2138 C 0.67163 0.51416 0.55129 0.0
C2139 C 0.6758 0.53904 0.56296 0.0
C2140 C 0.70894 0.51491 0.56444 0.0
C2141 C 0.69671 0.55079 0.57596 0.0
C2142 C 0.74748 0.51581 0.57882 0.0
C2143 C 0.74233 0.47224 0.54676 0.0
N2144 N 0.71243 0.53871 0.57621 0.0
N2145 N 0.72543 0.48221 0.54866 0.0
H2146 H 0.21442 0.13176 0.50126 0.0
H2147 H 0.10062 0.14261 0.53112 0.0
H2148 H 0.20157 0.20385 0.51461 0.0
H2149 H 0.11204 0.07694 0.49333 0.0
H2150 H 0.13847 0.16559 0.53222 0.0
H2151 H 0.17816 0.11181 0.50541 0.0
C2152 C 0.20398 0.14352 0.50504 0.0
C2153 C 0.21119 0.16964 0.50731 0.0
C2154 C 0.13265 0.14609 0.5239 0.0
C2155 C 0.16901 0.14648 0.51229 0.0
C2156 C 0.11117 0.13294 0.52347 0.0
C2157 C 0.10322 0.10781 0.51209 0.0
C2158 C 0.14623 0.13377 0.51331 0.0
C2159 C 0.11744 0.09627 0.50218 0.0
C2160 C 0.18313 0.132 0.50742 0.0
C2161 C 0.19668 0.18365 0.51242 0.0
N2162 N 0.1381 0.10924 0.5031 0.0
N2163 N 0.17626 0.17191 0.51475 0.0
H2164 H 0.25721 0.08635 0.85104 0.0
H2165 H 0.23204 0.94912 0.77774 0.0
H2166 H 0.19692 0.0303 0.84285 0.0
H2167 H 0.29113 0.00651 0.78328 0.0
H2168 H 0.21613 0.9808 0.79491 0.0
H2169 H 0.26807 0.05899 0.82131 0.0
C2170 C 0.24647 0.0681 0.84324 0.0
C2171 C 0.22641 0.06023 0.8496 0.0
C2172 C 0.23243 0.98652 0.79185 0.0
C2173 C 0.23836 0.0292 0.81549 0.0
C2174 C 0.24147 0.96847 0.78202 0.0
C2175 C 0.26311 0.97513 0.77976 0.0
C2176 C 0.24524 0.01121 0.79957 0.0
C2177 C 0.27446 1.00049 0.78493 0.0
C2178 C 0.25246 0.05268 0.82602 0.0
C2179 C 0.21267 0.03684 0.8385 0.0
N2180 N 0.26552 0.01756 0.79511 0.0
N2181 N 0.21898 0.022 0.82209 0.0
H2182 H 0.36229 0.01497 0.01363 0.0
H2183 H 0.48733 0.04356 0.06738 0.0
H2184 H 0.38997 0.96879 0.05722 0.0
H2185 H 0.46486 0.06774 1.00162 0.0
H2186 H 0.4504 0.0217 0.06808 0.0
H2187 H 0.39878 0.03921 0.01223 0.0
C2188 C 0.37599 0.00979 0.02269 0.0
C2189 C 0.3731 0.98979 0.0355 0.0
C2190 C 0.45353 0.03192 0.05357 0.0
C2191 C 0.41459 0.01763 0.03439 0.0
C2192 C 0.4746 0.04462 0.05326 0.0
C2193 C 0.4792 0.05743 0.03434 0.0
C2194 C 0.43685 0.03227 0.03503 0.0
C2195 C 0.462 0.05796 0.01647 0.0
C2196 C 0.39674 0.02363 0.02191 0.0
C2197 C 0.39139 0.98395 0.04702 0.0
N2198 N 0.44151 0.04552 0.01724 0.0
N2199 N 0.41133 0.99793 0.04635 0.0
H2200 H 0.89409 0.6988 0.82968 0.0
H2201 H 0.86344 0.80824 0.76803 0.0
H2202 H 0.9389 0.75652 0.8059 0.0
H2203 H 0.81535 0.74916 0.78604 0.0
H2204 H 0.89048 0.78752 0.77998 0.0
H2205 H 0.8645 0.71495 0.81227 0.0
C2206 C 0.89766 0.71508 0.82104 0.0
C2207 C 0.9189 0.72672 0.81952 0.0
C2208 C 0.87401 0.7787 0.78099 0.0
C2209 C 0.88537 0.74502 0.79958 0.0
C2210 C 0.85837 0.79054 0.77402 0.0
C2211 C 0.83694 0.78047 0.77603 0.0
C2212 C 0.86838 0.75642 0.79004 0.0
C2213 C 0.83166 0.75758 0.78423 0.0
C2214 C 0.88081 0.72409 0.81095 0.0
C2215 C 0.92274 0.74717 0.80756 0.0
N2216 N 0.84738 0.74632 0.79113 0.0
N2217 N 0.90614 0.7558 0.79823 0.0
H2218 H 0.84759 0.71216 1.00056 0.0
H2219 H 0.91405 0.63516 0.07556 0.0
H2220 H 0.82083 0.66988 0.0519 0.0
H2221 H 0.92247 0.65051 0.00499 0.0
H2222 H 0.88392 0.65434 0.07252 0.0
H2223 H 0.87944 0.6968 0.00791 0.0
C2224 C 0.84852 0.69989 0.01368 0.0
C2225 C 0.83138 0.69215 0.02552 0.0
C2226 C 0.89249 0.65354 0.05781 0.0
C2227 C 0.86811 0.67455 0.03412 0.0
C2228 C 0.90968 0.64252 0.05944 0.0
C2229 C 0.92097 0.64101 0.04045 0.0
C2230 C 0.88669 0.66346 0.03721 0.0
C2231 C 0.91469 0.65149 0.02031 0.0
C2232 C 0.86671 0.69102 0.01775 0.0
C2233 C 0.83356 0.67613 0.04223 0.0
N2234 N 0.89805 0.6622 0.01926 0.0
N2235 N 0.85163 0.66784 0.04607 0.0
H2236 H 0.21138 0.1547 0.82206 0.0
H2237 H 0.2944 0.28815 0.84034 0.0
H2238 H 0.24637 0.19892 0.89037 0.0
H2239 H 0.26019 0.24837 0.77018 0.0
H2240 H 0.27148 0.25826 0.85865 0.0
H2241 H 0.22429 0.19046 0.80241 0.0
C2242 C 0.22168 0.17195 0.83292 0.0
C2243 C 0.22832 0.17372 0.85781 0.0
C2244 C 0.26874 0.25597 0.83923 0.0
C2245 C 0.24269 0.21452 0.83562 0.0
C2246 C 0.28187 0.27306 0.82879 0.0
C2247 C 0.27937 0.27024 0.80382 0.0
C2248 C 0.25339 0.23539 0.82459 0.0
C2249 C 0.26268 0.25078 0.78958 0.0
C2250 C 0.22891 0.19233 0.82171 0.0
C2251 C 0.24133 0.19652 0.87108 0.0
N2252 N 0.2505 0.2336 0.80022 0.0
N2253 N 0.24817 0.21593 0.85979 0.0
H2254 H 0.44615 0.11644 0.29697 0.0
H2255 H 0.33833 0.01562 0.30151 0.0
H2256 H 0.39921 0.12872 0.33925 0.0
H2257 H 0.39041 0.99741 0.27144 0.0
H2258 H 0.35567 0.05986 0.30407 0.0
H2259 H 0.42201 0.07538 0.27835 0.0
C2260 C 0.4307 0.11053 0.3022 0.0
C2261 C 0.42477 0.12567 0.32 0.0
C2262 C 0.36311 0.04618 0.29648 0.0
C2263 C 0.39704 0.07926 0.29848 0.0
C2264 C 0.35309 0.02091 0.29475 0.0
C2265 C 0.36332 0.00294 0.28691 0.0
C2266 C 0.38351 0.0534 0.29051 0.0
C2267 C 0.3824 0.01083 0.27832 0.0
C2268 C 0.41693 0.08722 0.2915 0.0
C2269 C 0.40457 0.11732 0.32602 0.0
N2270 N 0.39218 0.03558 0.28084 0.0
N2271 N 0.39146 0.09461 0.31533 0.0
H2272 H 0.53225 0.38748 0.57214 0.0
H2273 H 0.5894 0.52128 0.54451 0.0
H2274 H 0.59745 0.42714 0.60675 0.0
H2275 H 0.52058 0.48994 0.53164 0.0
H2276 H 0.59425 0.48439 0.56118 0.0
H2277 H 0.52985 0.42195 0.55126 0.0
C2278 C 0.54632 0.40328 0.57518 0.0
C2279 C 0.56514 0.40424 0.5916 0.0
C2280 C 0.57812 0.48554 0.55455 0.0
C2281 C 0.56227 0.44431 0.56709 0.0
C2282 C 0.57526 0.50654 0.54485 0.0
C2283 C 0.55447 0.50886 0.53656 0.0
C2284 C 0.5601 0.46647 0.55582 0.0
C2285 C 0.53689 0.48906 0.53764 0.0
C2286 C 0.54479 0.42311 0.56318 0.0
C2287 C 0.58266 0.42541 0.59434 0.0
N2288 N 0.54012 0.46881 0.54711 0.0
N2289 N 0.58077 0.44467 0.58229 0.0
H2290 H 0.4408 0.80804 0.39741 0.0
H2291 H 0.36887 0.80847 0.27333 0.0
H2292 H 0.46784 0.8232 0.33495 0.0
H2293 H 0.35031 0.83289 0.33939 0.0
H2294 H 0.40463 0.81099 0.29583 0.0
H2295 H 0.40669 0.81407 0.3772 0.0
C2296 C 0.43959 0.81265 0.37952 0.0
C2297 C 0.45716 0.81493 0.36779 0.0
C2298 C 0.39289 0.81617 0.30544 0.0
C2299 C 0.41826 0.82155 0.34457 0.0
C2300 C 0.37253 0.8148 0.29258 0.0
C2301 C 0.35682 0.82081 0.30452 0.0
C2302 C 0.39739 0.82271 0.33059 0.0
C2303 C 0.36219 0.82852 0.32954 0.0
C2304 C 0.4202 0.81626 0.36808 0.0
C2305 C 0.45475 0.82122 0.3447 0.0
N2306 N 0.38196 0.82884 0.34187 0.0
N2307 N 0.43563 0.82394 0.33376 0.0
H2308 H 0.08689 0.79605 0.08389 0.0
H2309 H 0.03679 0.65064 0.08284 0.0
H2310 H 0.04396 0.76613 0.12944 0.0
H2311 H 0.08847 0.67598 0.04572 0.0
H2312 H 0.04041 0.69365 0.10036 0.0
H2313 H 0.08889 0.75323 0.06953 0.0
C2314 C 0.07816 0.78047 0.09103 0.0
C2315 C 0.06519 0.78431 0.10774 0.0
C2316 C 0.05114 0.69 0.08854 0.0
C2317 C 0.06736 0.73587 0.09168 0.0
C2318 C 0.04904 0.66539 0.07852 0.0
C2319 C 0.06232 0.65985 0.06283 0.0
C2320 C 0.06639 0.70948 0.08252 0.0
C2321 C 0.07803 0.6796 0.05792 0.0
C2322 C 0.07928 0.75615 0.0829 0.0
C2323 C 0.05403 0.76376 0.11642 0.0
N2324 N 0.07948 0.7037 0.06751 0.0
N2325 N 0.05532 0.74048 0.10827 0.0
H2326 H 0.06784 0.35942 0.84659 0.0
H2327 H 0.1839 0.33299 0.86755 0.0
H2328 H 0.08802 0.31781 0.90033 0.0
H2329 H 0.15766 0.36172 0.80639 0.0
H2330 H 0.15163 0.33383 0.88415 0.0
H2331 H 0.10338 0.3669 0.83614 0.0
C2332 C 0.07979 0.352 0.85635 0.0
C2333 C 0.07481 0.33772 0.8742 0.0
C2334 C 0.15309 0.34017 0.86721 0.0
C2335 C 0.11569 0.34624 0.86225 0.0
C2336 C 0.17147 0.33962 0.85767 0.0
C2337 C 0.17348 0.347 0.83534 0.0
C2338 C 0.13658 0.34817 0.85435 0.0
C2339 C 0.15703 0.356 0.8237 0.0
C2340 C 0.10011 0.35627 0.85034 0.0
C2341 C 0.09106 0.32872 0.88629 0.0
N2342 N 0.13926 0.35612 0.83322 0.0
N2343 N 0.11073 0.333 0.87999 0.0
H2344 H 0.49599 0.72688 0.9219 0.0
H2345 H 0.55028 0.67445 0.03295 0.0
H2346 H 0.54145 0.77493 0.98218 0.0
H2347 H 0.51524 0.62756 0.96592 0.0
H2348 H 0.54544 0.71122 0.01608 0.0
H2349 H 0.50133 0.69029 0.93889 0.0
C2350 C 0.50719 0.72964 0.93874 0.0
C2351 C 0.5184 0.75386 0.95063 0.0
C2352 C 0.53884 0.69289 0.00506 0.0
C2353 C 0.52441 0.71207 0.97046 0.0
C2354 C 0.54152 0.67179 0.0147 0.0
C2355 C 0.53318 0.64768 1.00088 0.0
C2356 C 0.52762 0.69002 0.98141 0.0
C2357 C 0.52198 0.64565 0.97732 0.0
C2358 C 0.51023 0.70877 0.94844 0.0
C2359 C 0.53264 0.75652 0.97241 0.0
N2360 N 0.51953 0.66647 0.9684 0.0
N2361 N 0.53517 0.73586 0.98172 0.0
H2362 H 0.13554 0.82742 0.67348 0.0
H2363 H 0.24034 0.87338 0.77719 0.0
H2364 H 0.1478 0.89256 0.72815 0.0
H2365 H 0.2219 0.8006 0.73238 0.0
H2366 H 0.20643 0.88064 0.75941 0.0
H2367 H 0.16757 0.81768 0.69393 0.0
C2368 C 0.1451 0.83983 0.68963 0.0
C2369 C 0.13908 0.86093 0.69907 0.0
C2370 C 0.20968 0.86299 0.75356 0.0
C2371 C 0.17558 0.84978 0.72262 0.0
C2372 C 0.22904 0.85884 0.76371 0.0
C2373 C 0.23398 0.83645 0.75605 0.0
C2374 C 0.19529 0.84481 0.73531 0.0
C2375 C 0.21868 0.81813 0.73876 0.0
C2376 C 0.16325 0.83412 0.70142 0.0
C2377 C 0.15187 0.87614 0.72023 0.0
N2378 N 0.2001 0.82284 0.7287 0.0
N2379 N 0.16955 0.87031 0.73123 0.0
H2380 H 0.05605 0.38629 0.46674 0.0
H2381 H 0.02463 0.51741 0.48192 0.0
H2382 H 0.99416 0.39376 0.43493 0.0
H2383 H 0.07254 0.50019 0.53293 0.0
H2384 H 0.01714 0.47488 0.4587 0.0
H2385 H 0.06615 0.43067 0.48577 0.0
C2386 C 0.04472 0.39735 0.46354 0.0
C2387 C 0.02421 0.38632 0.44939 0.0
C2388 C 0.02947 0.48058 0.47484 0.0
C2389 C 0.03572 0.43717 0.47065 0.0
C2390 C 0.03388 0.50493 0.48794 0.0
C2391 C 0.04931 0.51244 0.50934 0.0
C2392 C 0.04081 0.46379 0.48301 0.0
C2393 C 0.06052 0.49524 0.51653 0.0
C2394 C 0.05042 0.42264 0.47444 0.0
C2395 C 0.01007 0.40151 0.44593 0.0
N2396 N 0.0561 0.47187 0.50347 0.0
N2397 N 0.01609 0.42609 0.45635 0.0
H2398 H 0.51763 0.37723 0.17999 0.0
H2399 H 0.43133 0.316 0.25222 0.0
H2400 H 0.52186 0.30981 0.20732 0.0
H2401 H 0.45374 0.39578 0.25607 0.0
H2402 H 0.46144 0.31078 0.23282 0.0
H2403 H 0.49078 0.38181 0.20412 0.0
C2404 C 0.51262 0.36313 0.19082 0.0
C2405 C 0.52172 0.34287 0.19139 0.0
C2406 C 0.45985 0.3294 0.2382 0.0
C2407 C 0.49087 0.34805 0.2191 0.0
C2408 C 0.44267 0.33239 0.24912 0.0
C2409 C 0.44001 0.35636 0.25564 0.0
C2410 C 0.47407 0.35048 0.23324 0.0
C2411 C 0.45523 0.377 0.25142 0.0
C2412 C 0.49748 0.36594 0.2048 0.0
C2413 C 0.51505 0.32555 0.20625 0.0
N2414 N 0.4714 0.37355 0.24018 0.0
N2415 N 0.49974 0.32833 0.21934 0.0
H2416 H 0.65325 0.64183 0.40993 0.0
H2417 H 0.55788 0.5434 0.44677 0.0
H2418 H 0.63137 0.56336 0.3797 0.0
H2419 H 0.58546 0.6183 0.48654 0.0
H2420 H 0.58502 0.551 0.42171 0.0
H2421 H 0.62867 0.63452 0.43859 0.0
C2422 C 0.64325 0.62317 0.40946 0.0
C2423 C 0.64367 0.60318 0.39239 0.0
C2424 C 0.58521 0.56576 0.43601 0.0
C2425 C 0.61629 0.59461 0.42465 0.0
C2426 C 0.56969 0.56139 0.45018 0.0
C2427 C 0.56951 0.58025 0.46852 0.0
C2428 C 0.60043 0.58921 0.44018 0.0
C2429 C 0.58515 0.60327 0.47245 0.0
C2430 C 0.62939 0.61894 0.42571 0.0
C2431 C 0.63092 0.57923 0.39239 0.0
N2432 N 0.59999 0.6072 0.45827 0.0
N2433 N 0.61767 0.5756 0.40824 0.0
H2434 H 0.29007 0.90992 0.10408 0.0
H2435 H 0.33136 0.8329 0.2023 0.0
H2436 H 0.34274 0.87669 0.09915 0.0
H2437 H 0.29298 0.88394 0.21561 0.0
H2438 H 0.33322 0.84511 0.16265 0.0
H2439 H 0.28739 0.89573 0.14254 0.0
C2440 C 0.30083 0.89927 0.11079 0.0
C2441 C 0.31663 0.89451 0.09814 0.0
C2442 C 0.32438 0.85364 0.17422 0.0
C2443 C 0.31383 0.87851 0.14257 0.0
C2444 C 0.32337 0.8467 0.19681 0.0
C2445 C 0.31214 0.85761 0.21216 0.0
C2446 C 0.31355 0.87107 0.16671 0.0
C2447 C 0.30201 0.87536 0.20432 0.0
C2448 C 0.29943 0.8914 0.13293 0.0
C2449 C 0.33024 0.8808 0.10808 0.0
N2450 N 0.30278 0.88139 0.18207 0.0
N2451 N 0.32857 0.87338 0.12966 0.0
H2452 H 0.02063 0.64784 0.85308 0.0
H2453 H 0.00799 0.61944 0.98466 0.0
H2454 H 0.98537 0.68325 0.89815 0.0
H2455 H 0.05491 0.59875 0.94689 0.0
H2456 H 0.99413 0.63636 0.94969 0.0
H2457 H 0.02893 0.62392 0.88459 0.0
C2458 C 0.01459 0.65054 0.86954 0.0
C2459 C 0.00219 0.66745 0.87293 0.0
C2460 C 0.00723 0.62774 0.94891 0.0
C2461 C 0.01136 0.64002 0.9088 0.0
C2462 C 0.01494 0.61796 0.9687 0.0
C2463 C 0.03244 0.60779 0.96828 0.0
C2464 C 0.01717 0.62715 0.92879 0.0
C2465 C 0.04132 0.60652 0.94761 0.0
C2466 C 0.01923 0.63681 0.88744 0.0
C2467 C 0.9947 0.67015 0.89457 0.0
N2468 N 0.03364 0.61623 0.92863 0.0
N2469 N 0.9994 0.65658 0.9117 0.0
H2470 H 0.32322 0.2533 0.59271 0.0
H2471 H 0.26373 0.31449 0.6874 0.0
H2472 H 0.27011 0.28345 0.57004 0.0
H2473 H 0.31544 0.28069 0.70569 0.0
H2474 H 0.26483 0.30362 0.64452 0.0
H2475 H 0.31981 0.26348 0.63432 0.0
C2476 C 0.31102 0.26248 0.59663 0.0
C2477 C 0.29709 0.26781 0.57804 0.0
C2478 C 0.27572 0.29833 0.65793 0.0
C2479 C 0.29299 0.27968 0.62585 0.0
C2480 C 0.27498 0.30434 0.68233 0.0
C2481 C 0.28943 0.29828 0.70001 0.0
C2482 C 0.29088 0.28599 0.65133 0.0
C2483 C 0.30404 0.28571 0.69262 0.0
C2484 C 0.30896 0.26818 0.62041 0.0
C2485 C 0.28118 0.27912 0.58398 0.0
N2486 N 0.30436 0.27998 0.66894 0.0
N2487 N 0.27963 0.28488 0.60747 0.0
H2488 H 0.67829 0.6254 0.28375 0.0
H2489 H 0.56649 0.60066 0.20603 0.0
H2490 H 0.62184 0.57322 0.29484 0.0
H2491 H 0.62467 0.65202 0.19754 0.0
H2492 H 0.58255 0.60308 0.24835 0.0
H2493 H 0.65578 0.64962 0.26569 0.0
C2494 C 0.66118 0.61983 0.2835 0.0
C2495 C 0.65171 0.59716 0.29012 0.0
C2496 C 0.59157 0.61439 0.23742 0.0
C2497 C 0.62576 0.62328 0.26778 0.0
C2498 C 0.58243 0.61288 0.21333 0.0
C2499 C 0.59466 0.6256 0.19846 0.0
C2500 C 0.61301 0.62851 0.24628 0.0
C2501 C 0.61507 0.64144 0.20851 0.0
C2502 C 0.64822 0.63343 0.27288 0.0
C2503 C 0.62953 0.59043 0.28929 0.0
N2504 N 0.62377 0.64212 0.2317 0.0
N2505 N 0.61709 0.60298 0.27739 0.0
H2506 H 0.29044 0.86812 0.97653 0.0
H2507 H 0.3157 0.88104 0.84398 0.0
H2508 H 0.33421 0.93308 0.96208 0.0
H2509 H 0.27563 0.81528 0.86202 0.0
H2510 H 0.32099 0.9021 0.88601 0.0
H2511 H 0.28291 0.84997 0.93364 0.0
C2512 C 0.29816 0.87872 0.96422 0.0
C2513 C 0.3127 0.90226 0.97277 0.0
C2514 C 0.31092 0.8831 0.88065 0.0
C2515 C 0.30453 0.8815 0.92356 0.0
C2516 C 0.30783 0.87114 0.85661 0.0
C2517 C 0.29513 0.84634 0.84931 0.0
C2518 C 0.30119 0.87019 0.89749 0.0
C2519 C 0.28554 0.83438 0.86667 0.0
C2520 C 0.29401 0.86833 0.93972 0.0
C2521 C 0.32267 0.91499 0.9561 0.0
N2522 N 0.28878 0.84631 0.88972 0.0
N2523 N 0.31845 0.9045 0.93237 0.0
H2524 H 0.94866 0.6564 0.73225 0.0
H2525 H 0.03715 0.58969 0.70781 0.0
H2526 H 0.00893 0.66774 0.78069 0.0
H2527 H 0.97858 0.58319 0.65773 0.0
H2528 H 0.02124 0.60529 0.74034 0.0
H2529 H 0.95307 0.6173 0.71225 0.0
C2530 C 0.96239 0.65002 0.73932 0.0
C2531 C 0.97859 0.66532 0.75788 0.0
C2532 C 0.01166 0.59991 0.72233 0.0
C2533 C 0.98438 0.6214 0.73434 0.0
C2534 C 0.02071 0.59085 0.70369 0.0
C2535 C 0.00945 0.58591 0.67982 0.0
C2536 C 0.99131 0.60432 0.71704 0.0
C2537 C 0.98816 0.58767 0.67573 0.0
C2538 C 0.96504 0.62782 0.72775 0.0
C2539 C 0.99612 0.65641 0.76634 0.0
N2540 N 0.97996 0.59727 0.69405 0.0
N2541 N 0.99891 0.63535 0.75402 0.0
H2542 H 0.31286 0.31249 0.47202 0.0
H2543 H 0.28557 0.28808 0.32855 0.0
H2544 H 0.2672 0.24581 0.43082 0.0
H2545 H 0.31613 0.36113 0.37081 0.0
H2546 H 0.27918 0.27188 0.36548 0.0
H2547 H 0.31428 0.33057 0.43529 0.0
C2548 C 0.30274 0.30185 0.45531 0.0
C2549 C 0.28965 0.27769 0.45465 0.0
C2550 C 0.28712 0.2915 0.36668 0.0
C2551 C 0.29183 0.298 0.41211 0.0
C2552 C 0.29081 0.30076 0.34558 0.0
C2553 C 0.30142 0.32604 0.34653 0.0
C2554 C 0.29426 0.30753 0.38904 0.0
C2555 C 0.30789 0.34155 0.36916 0.0
C2556 C 0.30367 0.31214 0.43427 0.0
C2557 C 0.27718 0.26467 0.43232 0.0
N2558 N 0.30437 0.33203 0.38945 0.0
N2559 N 0.27881 0.27481 0.41194 0.0
H2560 H 0.31894 0.64595 0.51759 0.0
H2561 H 0.44032 0.66106 0.50105 0.0
H2562 H 0.36069 0.71702 0.51245 0.0
H2563 H 0.39251 0.59007 0.48868 0.0
H2564 H 0.41217 0.68236 0.50586 0.0
H2565 H 0.3466 0.62569 0.5087 0.0
C2566 C 0.3341 0.65742 0.51505 0.0
C2567 C 0.33758 0.68334 0.51616 0.0
C2568 C 0.40783 0.66213 0.50189 0.0
C2569 C 0.36941 0.66005 0.50564 0.0
C2570 C 0.42391 0.64994 0.49921 0.0
C2571 C 0.41888 0.62367 0.49474 0.0
C2572 C 0.38659 0.64799 0.50044 0.0
C2573 C 0.39722 0.6103 0.49207 0.0
C2574 C 0.34982 0.64575 0.50966 0.0
C2575 C 0.3574 0.69705 0.51208 0.0
N2576 N 0.38198 0.62257 0.49524 0.0
N2577 N 0.37262 0.68526 0.50712 0.0
H2578 H 0.89504 0.96519 0.57049 0.0
H2579 H 0.9774 0.05063 0.50521 0.0
H2580 H 0.87208 0.99838 0.51106 0.0
H2581 H 0.98993 0.04761 0.58085 0.0
H2582 H 0.94057 0.02384 0.50199 0.0
H2583 H 0.93195 0.98721 0.56911 0.0
C2584 C 0.89777 0.97679 0.55687 0.0
C2585 C 0.88041 0.98005 0.54095 0.0
C2586 C 0.95153 0.02892 0.5192 0.0
C2587 C 0.92277 0.00523 0.5392 0.0
C2588 C 0.97254 0.044 0.521 0.0
C2589 C 0.98674 0.05124 0.54331 0.0
C2590 C 0.94497 0.02061 0.53976 0.0
C2591 C 0.97949 0.04251 0.56332 0.0
C2592 C 0.91885 0.98947 0.5562 0.0
C2593 C 0.88499 0.99547 0.52378 0.0
N2594 N 0.95924 0.02759 0.56105 0.0
N2595 N 0.90574 0.00751 0.52333 0.0
H2596 H 0.83603 0.09137 0.18518 0.0
H2597 H 0.86535 0.20168 0.29766 0.0
H2598 H 0.88973 0.0998 0.24273 0.0
H2599 H 0.80168 0.16756 0.25542 0.0
H2600 H 0.87864 0.17016 0.27463 0.0
H2601 H 0.82824 0.12796 0.20643 0.0
C2602 C 0.84607 0.10087 0.20234 0.0
C2603 C 0.86269 0.09181 0.21297 0.0
C2604 C 0.86175 0.16963 0.27072 0.0
C2605 C 0.85407 0.13318 0.23718 0.0
C2606 C 0.8542 0.18728 0.28393 0.0
C2607 C 0.83236 0.1866 0.27876 0.0
C2608 C 0.84736 0.15207 0.25193 0.0
C2609 C 0.81851 0.16818 0.26044 0.0
C2610 C 0.84166 0.12159 0.21444 0.0
C2611 C 0.87585 0.10514 0.23477 0.0
N2612 N 0.82628 0.15177 0.24757 0.0
N2613 N 0.87109 0.1251 0.24643 0.0
H2614 H 0.71711 0.1966 0.02946 0.0
H2615 H 0.61156 0.08208 0.99188 0.0
H2616 H 0.71199 0.13078 0.97819 0.0
H2617 H 0.62342 0.1373 0.05574 0.0
H2618 H 0.64755 0.10092 0.98511 0.0
H2619 H 0.6816 0.17702 0.03719 0.0
C2620 C 0.70852 0.17806 0.01978 0.0
C2621 C 0.7176 0.16526 0.00322 0.0
C2622 C 0.64237 0.10887 1.00068 0.0
C2623 C 0.67703 0.14275 0.0121 0.0
C2624 C 0.62186 0.09812 0.00455 0.0
C2625 C 0.61463 0.10818 0.0244 0.0
C2626 C 0.65559 0.13017 0.01651 0.0
C2627 C 0.62855 0.12889 0.04034 0.0
C2628 C 0.6883 0.16686 0.02431 0.0
C2629 C 0.70566 0.14134 0.99114 0.0
N2630 N 0.64833 0.13941 0.0359 0.0
N2631 N 0.686 0.13086 0.99582 0.0
H2632 H 0.1716 0.41267 0.22542 0.0
H2633 H 0.28182 0.4201 0.31187 0.0
H2634 H 0.20137 0.47043 0.28716 0.0
H2635 H 0.25724 0.3683 0.24522 0.0
H2636 H 0.25435 0.44196 0.30062 0.0
H2637 H 0.20478 0.39888 0.22935 0.0
C2638 C 0.18522 0.42262 0.23951 0.0
C2639 C 0.18367 0.44221 0.25635 0.0
C2640 C 0.25518 0.42606 0.28824 0.0
C2641 C 0.22133 0.42681 0.26101 0.0
C2642 C 0.27084 0.41375 0.2947 0.0
C2643 C 0.27144 0.39256 0.27941 0.0
C2644 C 0.24009 0.41677 0.26654 0.0
C2645 C 0.25697 0.38465 0.25741 0.0
C2646 C 0.2041 0.4148 0.24181 0.0
C2647 C 0.20175 0.45472 0.27421 0.0
N2648 N 0.24166 0.3966 0.25169 0.0
N2649 N 0.21972 0.44664 0.27624 0.0
H2650 H 0.27029 0.51003 0.07265 0.0
H2651 H 0.16248 0.50129 0.98036 0.0
H2652 H 0.24913 0.45371 0.00869 0.0
H2653 H 0.17813 0.53818 0.05419 0.0
H2654 H 0.19454 0.48508 0.98766 0.0
H2655 H 0.23739 0.52261 0.06335 0.0
C2656 C 0.25868 0.50023 0.0566 0.0
C2657 C 0.26254 0.48072 0.0415 0.0
C2658 C 0.1908 0.49659 1.00223 0.0
C2659 C 0.22443 0.49522 0.03058 0.0
C2660 C 0.17261 0.50582 0.99807 0.0
C2661 C 0.16766 0.52084 0.01683 0.0
C2662 C 0.20424 0.50304 0.0251 0.0
C2663 C 0.18123 0.52635 0.03938 0.0
C2664 C 0.23978 0.50741 0.05131 0.0
C2665 C 0.24676 0.46877 0.02092 0.0
N2666 N 0.1989 0.51763 0.04281 0.0
N2667 N 0.22838 0.47629 0.01597 0.0
H2668 H 0.90879 0.98023 0.2434 0.0
H2669 H 0.79217 0.88739 0.22161 0.0
H2670 H 0.85685 0.9804 0.18689 0.0
H2671 H 0.84311 0.89226 0.28138 0.0
H2672 H 0.81758 0.91539 0.20363 0.0
H2673 H 0.88788 0.94022 0.25052 0.0
C2674 C 0.89326 0.97129 0.23192 0.0
C2675 C 0.88432 0.98359 0.21481 0.0
C2676 C 0.8233 0.91009 0.22051 0.0
C2677 C 0.85996 0.93872 0.22356 0.0
C2678 C 0.80878 0.8943 0.2309 0.0
C2679 C 0.81563 0.88758 0.25301 0.0
C2680 C 0.84484 0.91927 0.23236 0.0
C2681 C 0.83725 0.89695 0.26425 0.0
C2682 C 0.88122 0.94865 0.23616 0.0
C2683 C 0.86422 0.97141 0.20031 0.0
N2684 N 0.85112 0.91243 0.25382 0.0
N2685 N 0.8524 0.94987 0.20545 0.0
H2686 H 0.68157 0.05606 0.80998 0.0
H2687 H 0.73725 0.14616 0.72685 0.0
H2688 H 0.67394 0.03704 0.73294 0.0
H2689 H 0.73765 0.17048 0.80161 0.0
H2690 H 0.71925 0.10364 0.73065 0.0
H2691 H 0.7065 0.09616 0.80881 0.0
C2692 C 0.68525 0.06023 0.79287 0.0
C2693 C 0.67562 0.04325 0.77152 0.0
C2694 C 0.72351 0.11819 0.74633 0.0
C2695 C 0.70411 0.08881 0.7701 0.0
C2696 C 0.73398 0.14238 0.74422 0.0
C2697 C 0.73873 0.16174 0.76391 0.0
C2698 C 0.71779 0.11341 0.7683 0.0
C2699 C 0.73393 0.156 0.78594 0.0
C2700 C 0.69945 0.08308 0.79223 0.0
C2701 C 0.68087 0.04963 0.74984 0.0
N2702 N 0.72351 0.13231 0.78751 0.0
N2703 N 0.69473 0.07192 0.7497 0.0
loop_
_geom_bond_atom_site_label_1
_geom_bond_atom_site_label_2
_geom_bond_distance
_geom_bond_site_symmetry_2
_ccdc_geom_bond_type
Mg0 O1 2.028 . S
Mg0 O7 1.986 . S
Mg0 O9 2.114 1_455 S
Mg0 O10 2.251 1_455 S
Mg0 O13 2.010 . S
O1 Mg0 2.028 . S
O1 C4 1.250 . S
O2 Mg3 2.028 . S
O2 C4 1.248 1_655 S
Mg3 O2 2.028 . S
Mg3 O8 2.032 . S
Mg3 O10 2.079 . S
C4 O1 1.250 . S
C4 O2 1.248 1_455 S
C5 O6 1.264 . S
C5 O13 1.249 . S
O6 C5 1.264 . S
O7 Mg0 1.986 . S
O7 C11 1.246 . S
O8 Mg3 2.032 . S
O8 C11 1.259 1_655 S
O9 Mg0 2.114 1_655 S
O9 C12 1.252 . S
O10 Mg0 2.251 1_655 S
O10 Mg3 2.079 . S
O10 C12 1.273 . S
C11 O7 1.246 . S
C11 O8 1.259 1_455 S
C12 O9 1.252 . S
C12 O10 1.273 . S
O13 Mg0 2.010 . S
O13 C5 1.249 . S
Mg14 O15 2.028 . S
Mg14 O21 1.986 . S
Mg14 O23 2.114 . S
Mg14 O24 2.251 . S
Mg14 O27 2.010 . S
O15 Mg14 2.028 . S
O15 C18 1.250 . S
O16 Mg17 2.028 . S
O16 C18 1.248 . S
Mg17 O16 2.028 . S
Mg17 O22 2.032 . S
Mg17 O24 2.079 . S
C18 O15 1.250 . S
C18 O16 1.248 . S
C19 O20 1.264 . S
C19 O27 1.249 . S
O20 C19 1.264 . S
O21 Mg14 1.986 . S
O21 C25 1.246 . S
O22 Mg17 2.032 . S
O22 C25 1.259 . S
O23 Mg14 2.114 . S
O23 C26 1.252 . S
O24 Mg14 2.251 . S
O24 Mg17 2.079 . S
O24 C26 1.273 . S
C25 O21 1.246 . S
C25 O22 1.259 . S
C26 O23 1.252 . S
C26 O24 1.273 . S
O27 Mg14 2.010 . S
O27 C19 1.249 . S
Mg28 O29 2.028 . S
Mg28 O35 1.986 . S
Mg28 O37 2.114 . S
Mg28 O38 2.251 . S
Mg28 O41 2.010 . S
O29 Mg28 2.028 . S
O29 C32 1.250 . S
O30 Mg31 2.028 . S
O30 C32 1.248 . S
Mg31 O30 2.028 . S
Mg31 O36 2.032 . S
Mg31 O38 2.079 . S
C32 O29 1.250 . S
C32 O30 1.248 . S
C33 O34 1.264 . S
C33 O41 1.249 . S
O34 C33 1.264 . S
O35 Mg28 1.986 . S
O35 C39 1.246 . S
O36 Mg31 2.032 . S
O36 C39 1.259 . S
O37 Mg28 2.114 . S
O37 C40 1.252 . S
O38 Mg28 2.251 . S
O38 Mg31 2.079 . S
O38 C40 1.273 . S
C39 O35 1.246 . S
C39 O36 1.259 . S
C40 O37 1.252 . S
C40 O38 1.273 . S
O41 Mg28 2.010 . S
O41 C33 1.249 . S
Mg42 O43 2.028 . S
Mg42 O49 1.986 . S
Mg42 O51 2.114 . S
Mg42 O52 2.251 . S
Mg42 O55 2.010 . S
O43 Mg42 2.028 . S
O43 C46 1.250 . S
O44 Mg45 2.028 . S
O44 C46 1.248 . S
Mg45 O44 2.028 . S
Mg45 O50 2.032 . S
Mg45 O52 2.079 . S
C46 O43 1.250 . S
C46 O44 1.248 . S
C47 O48 1.264 . S
C47 O55 1.249 . S
O48 C47 1.264 . S
O49 Mg42 1.986 . S
O49 C53 1.246 . S
O50 Mg45 2.032 . S
O50 C53 1.259 . S
O51 Mg42 2.114 . S
O51 C54 1.252 . S
O52 Mg42 2.251 . S
O52 Mg45 2.079 . S
O52 C54 1.273 . S
C53 O49 1.246 . S
C53 O50 1.259 . S
C54 O51 1.252 . S
C54 O52 1.273 . S
O55 Mg42 2.010 . S
O55 C47 1.249 . S
Mg56 O57 2.028 . S
Mg56 O63 1.986 . S
Mg56 O65 2.114 . S
Mg56 O66 2.251 . S
Mg56 O69 2.010 . S
O57 Mg56 2.028 . S
O57 C60 1.250 . S
O58 Mg59 2.028 . S
O58 C60 1.248 . S
Mg59 O58 2.028 . S
Mg59 O64 2.032 . S
Mg59 O66 2.079 . S
C60 O57 1.250 . S
C60 O58 1.248 . S
C61 O62 1.264 . S
C61 O69 1.249 . S
O62 C61 1.264 . S
O63 Mg56 1.986 . S
O63 C67 1.246 . S
O64 Mg59 2.032 . S
O64 C67 1.259 . S
O65 Mg56 2.114 . S
O65 C68 1.252 . S
O66 Mg56 2.251 . S
O66 Mg59 2.079 . S
O66 C68 1.273 . S
C67 O63 1.246 . S
C67 O64 1.259 . S
C68 O65 1.252 . S
C68 O66 1.273 . S
O69 Mg56 2.010 . S
O69 C61 1.249 . S
Mg70 O71 2.028 . S
Mg70 O77 1.986 . S
Mg70 O79 2.114 . S
Mg70 O80 2.251 . S
Mg70 O83 2.010 . S
O71 Mg70 2.028 . S
O71 C74 1.250 . S
O72 Mg73 2.028 . S
O72 C74 1.248 . S
Mg73 O72 2.028 . S
Mg73 O78 2.032 . S
Mg73 O80 2.079 . S
C74 O71 1.250 . S
C74 O72 1.248 . S
C75 O76 1.264 . S
C75 O83 1.249 . S
O76 C75 1.264 . S
O77 Mg70 1.986 . S
O77 C81 1.246 . S
O78 Mg73 2.032 . S
O78 C81 1.259 . S
O79 Mg70 2.114 . S
O79 C82 1.252 . S
O80 Mg70 2.251 . S
O80 Mg73 2.079 . S
O80 C82 1.273 . S
C81 O77 1.246 . S
C81 O78 1.259 . S
C82 O79 1.252 . S
C82 O80 1.273 . S
O83 Mg70 2.010 . S
O83 C75 1.249 . S
Mg84 O85 2.028 . S
Mg84 O91 1.986 . S
Mg84 O93 2.114 . S
Mg84 O94 2.251 . S
Mg84 O97 2.010 . S
O85 Mg84 2.028 . S
O85 C88 1.250 . S
O86 Mg87 2.028 . S
O86 C88 1.248 . S
Mg87 O86 2.028 . S
Mg87 O92 2.032 . S
Mg87 O94 2.079 . S
C88 O85 1.250 . S
C88 O86 1.248 . S
C89 O90 1.264 . S
C89 O97 1.249 . S
O90 C89 1.264 . S
O91 Mg84 1.986 . S
O91 C95 1.246 . S
O92 Mg87 2.032 . S
O92 C95 1.259 . S
O93 Mg84 2.114 . S
O93 C96 1.252 . S
O94 Mg84 2.251 . S
O94 Mg87 2.079 . S
O94 C96 1.273 . S
C95 O91 1.246 . S
C95 O92 1.259 . S
C96 O93 1.252 . S
C96 O94 1.273 . S
O97 Mg84 2.010 . S
O97 C89 1.249 . S
Mg98 O99 2.028 . S
Mg98 O105 1.986 . S
Mg98 O107 2.114 1_455 S
Mg98 O108 2.251 1_455 S
Mg98 O111 2.010 . S
O99 Mg98 2.028 . S
O99 C102 1.250 . S
O100 Mg101 2.028 1_455 S
O100 C102 1.248 . S
Mg101 O100 2.028 1_655 S
Mg101 O106 2.032 . S
Mg101 O108 2.079 . S
C102 O99 1.250 . S
C102 O100 1.248 . S
C103 O104 1.264 . S
C103 O111 1.249 . S
O104 C103 1.264 . S
O105 Mg98 1.986 . S
O105 C109 1.246 . S
O106 Mg101 2.032 . S
O106 C109 1.259 1_655 S
O107 Mg98 2.114 1_655 S
O107 C110 1.252 . S
O108 Mg98 2.251 1_655 S
O108 Mg101 2.079 . S
O108 C110 1.273 . S
C109 O105 1.246 . S
C109 O106 1.259 1_455 S
C110 O107 1.252 . S
C110 O108 1.273 . S
O111 Mg98 2.010 . S
O111 C103 1.249 . S
Mg112 O113 2.028 . S
Mg112 O119 1.986 . S
Mg112 O121 2.114 . S
Mg112 O122 2.251 . S
Mg112 O125 2.010 . S
O113 Mg112 2.028 . S
O113 C116 1.250 . S
O114 Mg115 2.028 . S
O114 C116 1.248 . S
Mg115 O114 2.028 . S
Mg115 O120 2.032 . S
Mg115 O122 2.079 . S
C116 O113 1.250 . S
C116 O114 1.248 . S
C117 O118 1.264 . S
C117 O125 1.249 . S
O118 C117 1.264 . S
O119 Mg112 1.986 . S
O119 C123 1.246 . S
O120 Mg115 2.032 . S
O120 C123 1.259 . S
O121 Mg112 2.114 . S
O121 C124 1.252 . S
O122 Mg112 2.251 . S
O122 Mg115 2.079 . S
O122 C124 1.273 . S
C123 O119 1.246 . S
C123 O120 1.259 . S
C124 O121 1.252 . S
C124 O122 1.273 . S
O125 Mg112 2.010 . S
O125 C117 1.249 . S
Mg126 O127 2.028 . S
Mg126 O133 1.986 . S
Mg126 O135 2.114 . S
Mg126 O136 2.251 . S
Mg126 O139 2.010 . S
O127 Mg126 2.028 . S
O127 C130 1.250 . S
O128 Mg129 2.028 . S
O128 C130 1.248 . S
Mg129 O128 2.028 . S
Mg129 O134 2.032 . S
Mg129 O136 2.079 . S
C130 O127 1.250 . S
C130 O128 1.248 . S
C131 O132 1.264 . S
C131 O139 1.249 . S
O132 C131 1.264 . S
O133 Mg126 1.986 . S
O133 C137 1.246 . S
O134 Mg129 2.032 . S
O134 C137 1.259 . S
O135 Mg126 2.114 . S
O135 C138 1.252 . S
O136 Mg126 2.251 . S
O136 Mg129 2.079 . S
O136 C138 1.273 . S
C137 O133 1.246 . S
C137 O134 1.259 . S
C138 O135 1.252 . S
C138 O136 1.273 . S
O139 Mg126 2.010 . S
O139 C131 1.249 . S
Mg140 O141 2.028 . S
Mg140 O147 1.986 . S
Mg140 O149 2.114 . S
Mg140 O150 2.251 . S
Mg140 O153 2.010 . S
O141 Mg140 2.028 . S
O141 C144 1.250 . S
O142 Mg143 2.028 . S
O142 C144 1.248 . S
Mg143 O142 2.028 . S
Mg143 O148 2.032 . S
Mg143 O150 2.079 . S
C144 O141 1.250 . S
C144 O142 1.248 . S
C145 O146 1.264 . S
C145 O153 1.249 . S
O146 C145 1.264 . S
O147 Mg140 1.986 . S
O147 C151 1.246 . S
O148 Mg143 2.032 . S
O148 C151 1.259 . S
O149 Mg140 2.114 . S
O149 C152 1.252 . S
O150 Mg140 2.251 . S
O150 Mg143 2.079 . S
O150 C152 1.273 . S
C151 O147 1.246 . S
C151 O148 1.259 . S
C152 O149 1.252 . S
C152 O150 1.273 . S
O153 Mg140 2.010 . S
O153 C145 1.249 . S
Mg154 O155 2.028 . S
Mg154 O161 1.986 . S
Mg154 O163 2.114 . S
Mg154 O164 2.251 . S
Mg154 O167 2.010 . S
O155 Mg154 2.028 . S
O155 C158 1.250 . S
O156 Mg157 2.028 . S
O156 C158 1.248 . S
Mg157 O156 2.028 . S
Mg157 O162 2.032 . S
Mg157 O164 2.079 . S
C158 O155 1.250 . S
C158 O156 1.248 . S
C159 O160 1.264 . S
C159 O167 1.249 . S
O160 C159 1.264 . S
O161 Mg154 1.986 . S
O161 C165 1.246 . S
O162 Mg157 2.032 . S
O162 C165 1.259 . S
O163 Mg154 2.114 . S
O163 C166 1.252 . S
O164 Mg154 2.251 . S
O164 Mg157 2.079 . S
O164 C166 1.273 . S
C165 O161 1.246 . S
C165 O162 1.259 . S
C166 O163 1.252 . S
C166 O164 1.273 . S
O167 Mg154 2.010 . S
O167 C159 1.249 . S
Mg168 O169 2.028 . S
Mg168 O175 1.986 . S
Mg168 O177 2.114 . S
Mg168 O178 2.251 . S
Mg168 O181 2.010 . S
O169 Mg168 2.028 . S
O169 C172 1.250 1_554 S
O170 Mg171 2.028 . S
O170 C172 1.248 1_554 S
Mg171 O170 2.028 . S
Mg171 O176 2.032 . S
Mg171 O178 2.079 . S
C172 O169 1.250 1_556 S
C172 O170 1.248 1_556 S
C173 O174 1.264 . S
C173 O181 1.249 . S
O174 C173 1.264 . S
O175 Mg168 1.986 . S
O175 C179 1.246 . S
O176 Mg171 2.032 . S
O176 C179 1.259 . S
O177 Mg168 2.114 . S
O177 C180 1.252 . S
O178 Mg168 2.251 . S
O178 Mg171 2.079 . S
O178 C180 1.273 . S
C179 O175 1.246 . S
C179 O176 1.259 . S
C180 O177 1.252 . S
C180 O178 1.273 . S
O181 Mg168 2.010 . S
O181 C173 1.249 . S
Mg182 O183 2.028 1_556 S
Mg182 O189 1.986 . S
Mg182 O191 2.114 1_556 S
Mg182 O192 2.251 . S
Mg182 O195 2.010 . S
O183 Mg182 2.028 1_554 S
O183 C186 1.250 . S
O184 Mg185 2.028 . S
O184 C186 1.248 . S
Mg185 O184 2.028 . S
Mg185 O190 2.032 1_554 S
Mg185 O192 2.079 1_554 S
C186 O183 1.250 . S
C186 O184 1.248 . S
C187 O188 1.264 . S
C187 O195 1.249 . S
O188 C187 1.264 . S
O189 Mg182 1.986 . S
O189 C193 1.246 . S
O190 Mg185 2.032 1_556 S
O190 C193 1.259 . S
O191 Mg182 2.114 1_554 S
O191 C194 1.252 . S
O192 Mg182 2.251 . S
O192 Mg185 2.079 1_556 S
O192 C194 1.273 1_556 S
C193 O189 1.246 . S
C193 O190 1.259 . S
C194 O191 1.252 . S
C194 O192 1.273 1_554 S
O195 Mg182 2.010 . S
O195 C187 1.249 . S
Mg196 O197 2.028 . S
Mg196 O203 1.986 . S
Mg196 O205 2.114 . S
Mg196 O206 2.251 . S
Mg196 O209 2.010 . S
O197 Mg196 2.028 . S
O197 C200 1.250 . S
O198 Mg199 2.028 . S
O198 C200 1.248 . S
Mg199 O198 2.028 . S
Mg199 O204 2.032 . S
Mg199 O206 2.079 . S
C200 O197 1.250 . S
C200 O198 1.248 . S
C201 O202 1.264 . S
C201 O209 1.249 . S
O202 C201 1.264 . S
O203 Mg196 1.986 . S
O203 C207 1.246 . S
O204 Mg199 2.032 . S
O204 C207 1.259 . S
O205 Mg196 2.114 . S
O205 C208 1.252 . S
O206 Mg196 2.251 . S
O206 Mg199 2.079 . S
O206 C208 1.273 . S
C207 O203 1.246 . S
C207 O204 1.259 . S
C208 O205 1.252 . S
C208 O206 1.273 . S
O209 Mg196 2.010 . S
O209 C201 1.249 . S
Mg210 O211 2.028 . S
Mg210 O217 1.986 . S
Mg210 O219 2.114 . S
Mg210 O220 2.251 . S
Mg210 O223 2.010 . S
O211 Mg210 2.028 . S
O211 C214 1.250 . S
O212 Mg213 2.028 . S
O212 C214 1.248 . S
Mg213 O212 2.028 . S
Mg213 O218 2.032 . S
Mg213 O220 2.079 . S
C214 O211 1.250 . S
C214 O212 1.248 . S
C215 O216 1.264 . S
C215 O223 1.249 . S
O216 C215 1.264 . S
O217 Mg210 1.986 . S
O217 C221 1.246 . S
O218 Mg213 2.032 . S
O218 C221 1.259 . S
O219 Mg210 2.114 . S
O219 C222 1.252 . S
O220 Mg210 2.251 . S
O220 Mg213 2.079 . S
O220 C222 1.273 . S
C221 O217 1.246 . S
C221 O218 1.259 . S
C222 O219 1.252 . S
C222 O220 1.273 . S
O223 Mg210 2.010 . S
O223 C215 1.249 . S
Mg224 O225 2.028 . S
Mg224 O231 1.986 . S
Mg224 O233 2.114 . S
Mg224 O234 2.251 . S
Mg224 O237 2.010 . S
O225 Mg224 2.028 . S
O225 C228 1.250 . S
O226 Mg227 2.028 . S
O226 C228 1.248 . S
Mg227 O226 2.028 . S
Mg227 O232 2.032 . S
Mg227 O234 2.079 . S
C228 O225 1.250 . S
C228 O226 1.248 . S
C229 O230 1.264 . S
C229 O237 1.249 . S
O230 C229 1.264 . S
O231 Mg224 1.986 . S
O231 C235 1.246 . S
O232 Mg227 2.032 . S
O232 C235 1.259 . S
O233 Mg224 2.114 . S
O233 C236 1.252 . S
O234 Mg224 2.251 . S
O234 Mg227 2.079 . S
O234 C236 1.273 . S
C235 O231 1.246 . S
C235 O232 1.259 . S
C236 O233 1.252 . S
C236 O234 1.273 . S
O237 Mg224 2.010 . S
O237 C229 1.249 . S
Mg238 O239 2.028 . S
Mg238 O245 1.986 . S
Mg238 O247 2.114 . S
Mg238 O248 2.251 . S
Mg238 O251 2.010 . S
O239 Mg238 2.028 . S
O239 C242 1.250 . S
O240 Mg241 2.028 . S
O240 C242 1.248 . S
Mg241 O240 2.028 . S
Mg241 O246 2.032 . S
Mg241 O248 2.079 . S
C242 O239 1.250 . S
C242 O240 1.248 . S
C243 O244 1.264 . S
C243 O251 1.249 . S
O244 C243 1.264 . S
O245 Mg238 1.986 . S
O245 C249 1.246 . S
O246 Mg241 2.032 . S
O246 C249 1.259 . S
O247 Mg238 2.114 . S
O247 C250 1.252 . S
O248 Mg238 2.251 . S
O248 Mg241 2.079 . S
O248 C250 1.273 . S
C249 O245 1.246 . S
C249 O246 1.259 . S
C250 O247 1.252 . S
C250 O248 1.273 . S
O251 Mg238 2.010 . S
O251 C243 1.249 . S
Mg252 O253 2.028 . S
Mg252 O259 1.986 . S
Mg252 O261 2.114 . S
Mg252 O262 2.251 . S
Mg252 O265 2.010 . S
O253 Mg252 2.028 . S
O253 C256 1.250 . S
O254 Mg255 2.028 . S
O254 C256 1.248 . S
Mg255 O254 2.028 . S
Mg255 O260 2.032 . S
Mg255 O262 2.079 . S
C256 O253 1.250 . S
C256 O254 1.248 . S
C257 O258 1.264 . S
C257 O265 1.249 . S
O258 C257 1.264 . S
O259 Mg252 1.986 . S
O259 C263 1.246 . S
O260 Mg255 2.032 . S
O260 C263 1.259 . S
O261 Mg252 2.114 . S
O261 C264 1.252 . S
O262 Mg252 2.251 . S
O262 Mg255 2.079 . S
O262 C264 1.273 . S
C263 O259 1.246 . S
C263 O260 1.259 . S
C264 O261 1.252 . S
C264 O262 1.273 . S
O265 Mg252 2.010 . S
O265 C257 1.249 . S
Mg266 O267 2.028 1_565 S
Mg266 O273 1.986 . S
Mg266 O275 2.114 1_565 S
Mg266 O276 2.251 . S
Mg266 O279 2.010 . S
O267 Mg266 2.028 1_545 S
O267 C270 1.250 . S
O268 Mg269 2.028 . S
O268 C270 1.248 . S
Mg269 O268 2.028 . S
Mg269 O274 2.032 1_545 S
Mg269 O276 2.079 1_545 S
C270 O267 1.250 . S
C270 O268 1.248 . S
C271 O272 1.264 . S
C271 O279 1.249 . S
O272 C271 1.264 . S
O273 Mg266 1.986 . S
O273 C277 1.246 . S
O274 Mg269 2.032 1_565 S
O274 C277 1.259 . S
O275 Mg266 2.114 1_545 S
O275 C278 1.252 . S
O276 Mg266 2.251 . S
O276 Mg269 2.079 1_565 S
O276 C278 1.273 1_565 S
C277 O273 1.246 . S
C277 O274 1.259 . S
C278 O275 1.252 . S
C278 O276 1.273 1_545 S
O279 Mg266 2.010 . S
O279 C271 1.249 . S
Mg280 O281 2.028 . S
Mg280 O287 1.986 1_554 S
Mg280 O289 2.114 . S
Mg280 O290 2.251 . S
Mg280 O293 2.010 . S
O281 Mg280 2.028 . S
O281 C284 1.250 . S
O282 Mg283 2.028 . S
O282 C284 1.248 . S
Mg283 O282 2.028 . S
Mg283 O288 2.032 1_554 S
Mg283 O290 2.079 . S
C284 O281 1.250 . S
C284 O282 1.248 . S
C285 O286 1.264 1_554 S
C285 O293 1.249 . S
O286 C285 1.264 1_556 S
O287 Mg280 1.986 1_556 S
O287 C291 1.246 . S
O288 Mg283 2.032 1_556 S
O288 C291 1.259 . S
O289 Mg280 2.114 . S
O289 C292 1.252 . S
O290 Mg280 2.251 . S
O290 Mg283 2.079 . S
O290 C292 1.273 . S
C291 O287 1.246 . S
C291 O288 1.259 . S
C292 O289 1.252 . S
C292 O290 1.273 . S
O293 Mg280 2.010 . S
O293 C285 1.249 . S
Mg294 O295 2.028 . S
Mg294 O301 1.986 . S
Mg294 O303 2.114 . S
Mg294 O304 2.251 . S
Mg294 O307 2.010 . S
O295 Mg294 2.028 . S
O295 C298 1.250 . S
O296 Mg297 2.028 . S
O296 C298 1.248 . S
Mg297 O296 2.028 . S
Mg297 O302 2.032 . S
Mg297 O304 2.079 . S
C298 O295 1.250 . S
C298 O296 1.248 . S
C299 O300 1.264 1_655 S
C299 O307 1.249 . S
O300 C299 1.264 1_455 S
O301 Mg294 1.986 . S
O301 C305 1.246 . S
O302 Mg297 2.032 . S
O302 C305 1.259 . S
O303 Mg294 2.114 . S
O303 C306 1.252 . S
O304 Mg294 2.251 . S
O304 Mg297 2.079 . S
O304 C306 1.273 . S
C305 O301 1.246 . S
C305 O302 1.259 . S
C306 O303 1.252 . S
C306 O304 1.273 . S
O307 Mg294 2.010 . S
O307 C299 1.249 . S
Mg308 O309 2.028 . S
Mg308 O315 1.986 . S
Mg308 O317 2.114 . S
Mg308 O318 2.251 . S
Mg308 O321 2.010 . S
O309 Mg308 2.028 . S
O309 C312 1.250 . S
O310 Mg311 2.028 . S
O310 C312 1.248 . S
Mg311 O310 2.028 . S
Mg311 O316 2.032 . S
Mg311 O318 2.079 . S
C312 O309 1.250 . S
C312 O310 1.248 . S
C313 O314 1.264 . S
C313 O321 1.249 . S
O314 C313 1.264 . S
O315 Mg308 1.986 . S
O315 C319 1.246 . S
O316 Mg311 2.032 . S
O316 C319 1.259 . S
O317 Mg308 2.114 . S
O317 C320 1.252 . S
O318 Mg308 2.251 . S
O318 Mg311 2.079 . S
O318 C320 1.273 . S
C319 O315 1.246 . S
C319 O316 1.259 . S
C320 O317 1.252 . S
C320 O318 1.273 . S
O321 Mg308 2.010 . S
O321 C313 1.249 . S
Mg322 O323 2.028 . S
Mg322 O329 1.986 . S
Mg322 O331 2.114 . S
Mg322 O332 2.251 . S
Mg322 O335 2.010 . S
O323 Mg322 2.028 . S
O323 C326 1.250 . S
O324 Mg325 2.028 . S
O324 C326 1.248 . S
Mg325 O324 2.028 . S
Mg325 O330 2.032 . S
Mg325 O332 2.079 . S
C326 O323 1.250 . S
C326 O324 1.248 . S
C327 O328 1.264 . S
C327 O335 1.249 . S
O328 C327 1.264 . S
O329 Mg322 1.986 . S
O329 C333 1.246 . S
O330 Mg325 2.032 . S
O330 C333 1.259 . S
O331 Mg322 2.114 . S
O331 C334 1.252 . S
O332 Mg322 2.251 . S
O332 Mg325 2.079 . S
O332 C334 1.273 . S
C333 O329 1.246 . S
C333 O330 1.259 . S
C334 O331 1.252 . S
C334 O332 1.273 . S
O335 Mg322 2.010 . S
O335 C327 1.249 . S
Pr336 C338 2.869 1_454 S
Pr336 O356 2.572 1_455 S
Pr336 O357 2.461 1_454 S
Pr336 O358 2.687 . S
Pr336 O359 2.472 1_554 S
Pr336 O361 2.429 . S
Pr336 O364 2.475 . S
Pr336 O366 2.454 . S
Pr337 C347 2.880 . S
Pr337 O358 2.436 . S
Pr337 O360 2.438 . S
Pr337 O362 2.562 . S
Pr337 O363 2.490 . S
Pr337 O364 2.695 . S
Pr337 O365 2.512 . S
Pr337 O367 2.437 . S
C338 Pr336 2.869 1_656 S
C338 C339 1.491 . S
C338 O356 1.254 1_556 S
C338 O357 1.225 . S
C339 C338 1.491 . S
C339 C340 1.392 . S
C339 C344 1.356 . S
C340 C339 1.392 . S
C340 C341 1.368 . S
C340 H368 0.929 . S
C341 C340 1.368 . S
C341 C342 1.386 . S
C341 H369 0.929 . S
C342 C341 1.386 . S
C342 C343 1.373 . S
C343 C342 1.373 . S
C343 C344 1.409 . S
C343 H370 0.931 . S
C344 C339 1.356 . S
C344 C343 1.409 . S
C344 H371 0.930 1_556 S
C345 O358 1.270 1_556 S
C345 O359 1.248 . S
C346 O360 1.267 . S
C346 O361 1.278 . S
C347 Pr337 2.880 . S
C347 C348 1.491 . S
C347 O362 1.254 . S
C347 O363 1.225 . S
C348 C347 1.491 . S
C348 C349 1.392 . S
C348 C353 1.356 . S
C349 C348 1.392 . S
C349 C350 1.368 . S
C349 H372 0.929 . S
C350 C349 1.368 . S
C350 C351 1.386 . S
C350 H373 0.929 . S
C351 C350 1.386 . S
C351 C352 1.373 . S
C352 C351 1.373 . S
C352 C353 1.409 . S
C352 H374 0.931 . S
C353 C348 1.356 . S
C353 C352 1.409 . S
C353 H375 0.930 . S
C354 O364 1.270 . S
C354 O365 1.248 . S
C355 O366 1.267 . S
C355 O367 1.278 . S
O356 Pr336 2.572 1_655 S
O356 C338 1.254 1_554 S
O357 Pr336 2.461 1_656 S
O357 C338 1.225 . S
O358 Pr336 2.687 . S
O358 Pr337 2.436 . S
O358 C345 1.270 1_554 S
O359 Pr336 2.472 1_556 S
O359 C345 1.248 . S
O360 Pr337 2.438 . S
O360 C346 1.267 . S
O361 Pr336 2.429 . S
O361 C346 1.278 . S
O362 Pr337 2.562 . S
O362 C347 1.254 . S
O363 Pr337 2.490 . S
O363 C347 1.225 . S
O364 Pr336 2.475 . S
O364 Pr337 2.695 . S
O364 C354 1.270 . S
O365 Pr337 2.512 . S
O365 C354 1.248 . S
O366 Pr336 2.454 . S
O366 C355 1.267 . S
O367 Pr337 2.437 . S
O367 C355 1.278 . S
H368 C340 0.929 . S
H369 C341 0.929 . S
H370 C343 0.931 . S
H371 C344 0.930 1_554 S
H372 C349 0.929 . S
H373 C350 0.929 . S
H374 C352 0.931 . S
H375 C353 0.930 . S
Pr376 C378 2.880 . S
Pr376 O396 2.562 . S
Pr376 O397 2.490 . S
Pr376 O398 2.695 . S
Pr376 O399 2.512 . S
Pr376 O401 2.437 . S
Pr376 O404 2.436 . S
Pr376 O406 2.438 . S
Pr377 C387 2.880 . S
Pr377 O398 2.436 . S
Pr377 O400 2.438 . S
Pr377 O402 2.562 . S
Pr377 O403 2.490 . S
Pr377 O404 2.695 . S
Pr377 O405 2.512 . S
Pr377 O407 2.437 . S
C378 Pr376 2.880 . S
C378 C379 1.491 . S
C378 O396 1.254 . S
C378 O397 1.225 . S
C379 C378 1.491 . S
C379 C380 1.392 . S
C379 C384 1.356 . S
C380 C379 1.392 . S
C380 C381 1.368 . S
C380 H408 0.929 . S
C381 C380 1.368 . S
C381 C382 1.386 . S
C381 H409 0.929 . S
C382 C381 1.386 . S
C382 C383 1.373 . S
C383 C382 1.373 . S
C383 C384 1.409 . S
C383 H410 0.931 . S
C384 C379 1.356 . S
C384 C383 1.409 . S
C384 H411 0.930 . S
C385 O398 1.270 . S
C385 O399 1.248 . S
C386 O400 1.267 . S
C386 O401 1.278 . S
C387 Pr377 2.880 . S
C387 C388 1.491 . S
C387 O402 1.254 . S
C387 O403 1.225 . S
C388 C387 1.491 . S
C388 C389 1.392 . S
C388 C393 1.356 . S
C389 C388 1.392 . S
C389 C390 1.368 . S
C389 H412 0.929 . S
C390 C389 1.368 . S
C390 C391 1.386 . S
C390 H413 0.929 . S
C391 C390 1.386 . S
C391 C392 1.373 . S
C392 C391 1.373 . S
C392 C393 1.409 . S
C392 H414 0.931 . S
C393 C388 1.356 . S
C393 C392 1.409 . S
C393 H415 0.930 . S
C394 O404 1.270 . S
C394 O405 1.248 . S
C395 O406 1.267 . S
C395 O407 1.278 . S
O396 Pr376 2.562 . S
O396 C378 1.254 . S
O397 Pr376 2.490 . S
O397 C378 1.225 . S
O398 Pr376 2.695 . S
O398 Pr377 2.436 . S
O398 C385 1.270 . S
O399 Pr376 2.512 . S
O399 C385 1.248 . S
O400 Pr377 2.438 . S
O400 C386 1.267 . S
O401 Pr376 2.437 . S
O401 C386 1.278 . S
O402 Pr377 2.562 . S
O402 C387 1.254 . S
O403 Pr377 2.490 . S
O403 C387 1.225 . S
O404 Pr376 2.436 . S
O404 Pr377 2.695 . S
O404 C394 1.270 . S
O405 Pr377 2.512 . S
O405 C394 1.248 . S
O406 Pr376 2.438 . S
O406 C395 1.267 . S
O407 Pr377 2.437 . S
O407 C395 1.278 . S
H408 C380 0.929 . S
H409 C381 0.929 . S
H410 C383 0.931 . S
H411 C384 0.930 . S
H412 C389 0.929 . S
H413 C390 0.929 . S
H414 C392 0.931 . S
H415 C393 0.930 . S
Pr416 C418 2.880 . S
Pr416 O436 2.562 . S
Pr416 O437 2.490 . S
Pr416 O438 2.695 . S
Pr416 O439 2.512 . S
Pr416 O441 2.437 . S
Pr416 O444 2.436 . S
Pr416 O446 2.438 . S
Pr417 C427 2.880 . S
Pr417 O438 2.436 . S
Pr417 O440 2.438 . S
Pr417 O442 2.562 . S
Pr417 O443 2.490 . S
Pr417 O444 2.695 . S
Pr417 O445 2.512 . S
Pr417 O447 2.437 . S
C418 Pr416 2.880 . S
C418 C419 1.491 . S
C418 O436 1.254 . S
C418 O437 1.225 . S
C419 C418 1.491 . S
C419 C420 1.392 . S
C419 C424 1.356 . S
C420 C419 1.392 . S
C420 C421 1.368 . S
C420 H448 0.929 . S
C421 C420 1.368 . S
C421 C422 1.386 . S
C421 H449 0.929 . S
C422 C421 1.386 . S
C422 C423 1.373 . S
C423 C422 1.373 . S
C423 C424 1.409 . S
C423 H450 0.931 . S
C424 C419 1.356 . S
C424 C423 1.409 . S
C424 H451 0.930 . S
C425 O438 1.270 . S
C425 O439 1.248 . S
C426 O440 1.267 . S
C426 O441 1.278 . S
C427 Pr417 2.880 . S
C427 C428 1.491 . S
C427 O442 1.254 . S
C427 O443 1.225 . S
C428 C427 1.491 . S
C428 C429 1.392 . S
C428 C433 1.356 . S
C429 C428 1.392 . S
C429 C430 1.368 . S
C429 H452 0.929 . S
C430 C429 1.368 . S
C430 C431 1.386 . S
C430 H453 0.929 . S
C431 C430 1.386 . S
C431 C432 1.373 . S
C432 C431 1.373 . S
C432 C433 1.409 . S
C432 H454 0.931 . S
C433 C428 1.356 . S
C433 C432 1.409 . S
C433 H455 0.930 . S
C434 O444 1.270 . S
C434 O445 1.248 . S
C435 O446 1.267 . S
C435 O447 1.278 . S
O436 Pr416 2.562 . S
O436 C418 1.254 . S
O437 Pr416 2.490 . S
O437 C418 1.225 . S
O438 Pr416 2.695 . S
O438 Pr417 2.436 . S
O438 C425 1.270 . S
O439 Pr416 2.512 . S
O439 C425 1.248 . S
O440 Pr417 2.438 . S
O440 C426 1.267 . S
O441 Pr416 2.437 . S
O441 C426 1.278 . S
O442 Pr417 2.562 . S
O442 C427 1.254 . S
O443 Pr417 2.490 . S
O443 C427 1.225 . S
O444 Pr416 2.436 . S
O444 Pr417 2.695 . S
O444 C434 1.270 . S
O445 Pr417 2.512 . S
O445 C434 1.248 . S
O446 Pr416 2.438 . S
O446 C435 1.267 . S
O447 Pr417 2.437 . S
O447 C435 1.278 . S
H448 C420 0.929 . S
H449 C421 0.929 . S
H450 C423 0.931 . S
H451 C424 0.930 . S
H452 C429 0.929 . S
H453 C430 0.929 . S
H454 C432 0.931 . S
H455 C433 0.930 . S
Pr456 C458 2.880 . S
Pr456 O476 2.562 . S
Pr456 O477 2.490 . S
Pr456 O478 2.695 . S
Pr456 O479 2.512 . S
Pr456 O481 2.437 . S
Pr456 O484 2.436 . S
Pr456 O486 2.438 . S
Pr457 C467 2.880 . S
Pr457 O478 2.436 . S
Pr457 O480 2.438 . S
Pr457 O482 2.562 . S
Pr457 O483 2.490 . S
Pr457 O484 2.695 . S
Pr457 O485 2.512 . S
Pr457 O487 2.437 . S
C458 Pr456 2.880 . S
C458 C459 1.491 . S
C458 O476 1.254 . S
C458 O477 1.225 . S
C459 C458 1.491 . S
C459 C460 1.392 . S
C459 C464 1.356 . S
C460 C459 1.392 . S
C460 C461 1.368 . S
C460 H488 0.929 . S
C461 C460 1.368 . S
C461 C462 1.386 . S
C461 H489 0.929 . S
C462 C461 1.386 . S
C462 C463 1.373 . S
C463 C462 1.373 . S
C463 C464 1.409 . S
C463 H490 0.931 . S
C464 C459 1.356 . S
C464 C463 1.409 . S
C464 H491 0.930 . S
C465 O478 1.270 . S
C465 O479 1.248 . S
C466 O480 1.267 . S
C466 O481 1.278 . S
C467 Pr457 2.880 . S
C467 C468 1.491 . S
C467 O482 1.254 . S
C467 O483 1.225 . S
C468 C467 1.491 . S
C468 C469 1.392 . S
C468 C473 1.356 . S
C469 C468 1.392 . S
C469 C470 1.368 . S
C469 H492 0.929 . S
C470 C469 1.368 . S
C470 C471 1.386 . S
C470 H493 0.929 . S
C471 C470 1.386 . S
C471 C472 1.373 . S
C472 C471 1.373 . S
C472 C473 1.409 . S
C472 H494 0.931 . S
C473 C468 1.356 . S
C473 C472 1.409 . S
C473 H495 0.930 . S
C474 O484 1.270 . S
C474 O485 1.248 . S
C475 O486 1.267 . S
C475 O487 1.278 . S
O476 Pr456 2.562 . S
O476 C458 1.254 . S
O477 Pr456 2.490 . S
O477 C458 1.225 . S
O478 Pr456 2.695 . S
O478 Pr457 2.436 . S
O478 C465 1.270 . S
O479 Pr456 2.512 . S
O479 C465 1.248 . S
O480 Pr457 2.438 . S
O480 C466 1.267 . S
O481 Pr456 2.437 . S
O481 C466 1.278 . S
O482 Pr457 2.562 . S
O482 C467 1.254 . S
O483 Pr457 2.490 . S
O483 C467 1.225 . S
O484 Pr456 2.436 . S
O484 Pr457 2.695 . S
O484 C474 1.270 . S
O485 Pr457 2.512 . S
O485 C474 1.248 . S
O486 Pr456 2.438 . S
O486 C475 1.267 . S
O487 Pr457 2.437 . S
O487 C475 1.278 . S
H488 C460 0.929 . S
H489 C461 0.929 . S
H490 C463 0.931 . S
H491 C464 0.930 . S
H492 C469 0.929 . S
H493 C470 0.929 . S
H494 C472 0.931 . S
H495 C473 0.930 . S
Pr496 C498 2.880 . S
Pr496 O516 2.562 . S
Pr496 O517 2.490 . S
Pr496 O518 2.695 . S
Pr496 O519 2.512 . S
Pr496 O521 2.437 . S
Pr496 O524 2.436 . S
Pr496 O526 2.438 . S
Pr497 C507 2.880 . S
Pr497 O518 2.436 . S
Pr497 O520 2.438 . S
Pr497 O522 2.562 . S
Pr497 O523 2.490 . S
Pr497 O524 2.695 . S
Pr497 O525 2.512 . S
Pr497 O527 2.437 . S
C498 Pr496 2.880 . S
C498 C499 1.491 . S
C498 O516 1.254 . S
C498 O517 1.225 . S
C499 C498 1.491 . S
C499 C500 1.392 . S
C499 C504 1.356 1_455 S
C500 C499 1.392 . S
C500 C501 1.368 . S
C500 H528 0.929 . S
C501 C500 1.368 . S
C501 C502 1.386 1_455 S
C501 H529 0.929 . S
C502 C501 1.386 1_655 S
C502 C503 1.373 . S
C503 C502 1.373 . S
C503 C504 1.409 . S
C503 H530 0.931 . S
C504 C499 1.356 1_655 S
C504 C503 1.409 . S
C504 H531 0.930 . S
C505 O518 1.270 . S
C505 O519 1.248 . S
C506 O520 1.267 . S
C506 O521 1.278 . S
C507 Pr497 2.880 . S
C507 C508 1.491 . S
C507 O522 1.254 . S
C507 O523 1.225 . S
C508 C507 1.491 . S
C508 C509 1.392 . S
C508 C513 1.356 . S
C509 C508 1.392 . S
C509 C510 1.368 . S
C509 H532 0.929 . S
C510 C509 1.368 . S
C510 C511 1.386 . S
C510 H533 0.929 . S
C511 C510 1.386 . S
C511 C512 1.373 . S
C512 C511 1.373 . S
C512 C513 1.409 . S
C512 H534 0.931 . S
C513 C508 1.356 . S
C513 C512 1.409 . S
C513 H535 0.930 . S
C514 O524 1.270 . S
C514 O525 1.248 . S
C515 O526 1.267 . S
C515 O527 1.278 . S
O516 Pr496 2.562 . S
O516 C498 1.254 . S
O517 Pr496 2.490 . S
O517 C498 1.225 . S
O518 Pr496 2.695 . S
O518 Pr497 2.436 . S
O518 C505 1.270 . S
O519 Pr496 2.512 . S
O519 C505 1.248 . S
O520 Pr497 2.438 . S
O520 C506 1.267 . S
O521 Pr496 2.437 . S
O521 C506 1.278 . S
O522 Pr497 2.562 . S
O522 C507 1.254 . S
O523 Pr497 2.490 . S
O523 C507 1.225 . S
O524 Pr496 2.436 . S
O524 Pr497 2.695 . S
O524 C514 1.270 . S
O525 Pr497 2.512 . S
O525 C514 1.248 . S
O526 Pr496 2.438 . S
O526 C515 1.267 . S
O527 Pr497 2.437 . S
O527 C515 1.278 . S
H528 C500 0.929 . S
H529 C501 0.929 . S
H530 C503 0.931 . S
H531 C504 0.930 . S
H532 C509 0.929 . S
H533 C510 0.929 . S
H534 C512 0.931 . S
H535 C513 0.930 . S
Pr536 C538 2.880 . S
Pr536 O556 2.562 . S
Pr536 O557 2.490 . S
Pr536 O558 2.695 . S
Pr536 O559 2.512 . S
Pr536 O561 2.437 . S
Pr536 O564 2.436 . S
Pr536 O566 2.438 . S
Pr537 C547 2.880 . S
Pr537 O558 2.436 . S
Pr537 O560 2.438 . S
Pr537 O562 2.562 . S
Pr537 O563 2.490 . S
Pr537 O564 2.695 . S
Pr537 O565 2.512 . S
Pr537 O567 2.437 . S
C538 Pr536 2.880 . S
C538 C539 1.491 . S
C538 O556 1.254 . S
C538 O557 1.225 . S
C539 C538 1.491 . S
C539 C540 1.392 . S
C539 C544 1.356 . S
C540 C539 1.392 . S
C540 C541 1.368 . S
C540 H568 0.929 . S
C541 C540 1.368 . S
C541 C542 1.386 . S
C541 H569 0.929 . S
C542 C541 1.386 . S
C542 C543 1.373 . S
C543 C542 1.373 . S
C543 C544 1.409 . S
C543 H570 0.931 . S
C544 C539 1.356 . S
C544 C543 1.409 . S
C544 H571 0.930 . S
C545 O558 1.270 . S
C545 O559 1.248 . S
C546 O560 1.267 . S
C546 O561 1.278 . S
C547 Pr537 2.880 . S
C547 C548 1.491 . S
C547 O562 1.254 . S
C547 O563 1.225 . S
C548 C547 1.491 . S
C548 C549 1.392 . S
C548 C553 1.356 . S
C549 C548 1.392 . S
C549 C550 1.368 . S
C549 H572 0.929 . S
C550 C549 1.368 . S
C550 C551 1.386 . S
C550 H573 0.929 . S
C551 C550 1.386 . S
C551 C552 1.373 . S
C552 C551 1.373 . S
C552 C553 1.409 . S
C552 H574 0.931 . S
C553 C548 1.356 . S
C553 C552 1.409 . S
C553 H575 0.930 . S
C554 O564 1.270 . S
C554 O565 1.248 . S
C555 O566 1.267 . S
C555 O567 1.278 . S
O556 Pr536 2.562 . S
O556 C538 1.254 . S
O557 Pr536 2.490 . S
O557 C538 1.225 . S
O558 Pr536 2.695 . S
O558 Pr537 2.436 . S
O558 C545 1.270 . S
O559 Pr536 2.512 . S
O559 C545 1.248 . S
O560 Pr537 2.438 . S
O560 C546 1.267 . S
O561 Pr536 2.437 . S
O561 C546 1.278 . S
O562 Pr537 2.562 . S
O562 C547 1.254 . S
O563 Pr537 2.490 . S
O563 C547 1.225 . S
O564 Pr536 2.436 . S
O564 Pr537 2.695 . S
O564 C554 1.270 . S
O565 Pr537 2.512 . S
O565 C554 1.248 . S
O566 Pr536 2.438 . S
O566 C555 1.267 . S
O567 Pr537 2.437 . S
O567 C555 1.278 . S
H568 C540 0.929 . S
H569 C541 0.929 . S
H570 C543 0.931 . S
H571 C544 0.930 . S
H572 C549 0.929 . S
H573 C550 0.929 . S
H574 C552 0.931 . S
H575 C553 0.930 . S
Pr576 C578 2.880 . S
Pr576 O596 2.562 . S
Pr576 O597 2.490 . S
Pr576 O598 2.695 . S
Pr576 O599 2.512 . S
Pr576 O601 2.437 . S
Pr576 O604 2.436 . S
Pr576 O606 2.438 . S
Pr577 C587 2.880 . S
Pr577 O598 2.436 1_556 S
Pr577 O600 2.438 1_556 S
Pr577 O602 2.562 . S
Pr577 O603 2.490 . S
Pr577 O604 2.695 1_556 S
Pr577 O605 2.512 1_556 S
Pr577 O607 2.437 1_556 S
C578 Pr576 2.880 . S
C578 C579 1.491 . S
C578 O596 1.254 . S
C578 O597 1.225 . S
C579 C578 1.491 . S
C579 C580 1.392 . S
C579 C584 1.356 . S
C580 C579 1.392 . S
C580 C581 1.368 . S
C580 H608 0.929 . S
C581 C580 1.368 . S
C581 C582 1.386 . S
C581 H609 0.929 . S
C582 C581 1.386 . S
C582 C583 1.373 . S
C583 C582 1.373 . S
C583 C584 1.409 . S
C583 H610 0.931 . S
C584 C579 1.356 . S
C584 C583 1.409 . S
C584 H611 0.930 . S
C585 O598 1.270 . S
C585 O599 1.248 . S
C586 O600 1.267 . S
C586 O601 1.278 . S
C587 Pr577 2.880 . S
C587 C588 1.491 . S
C587 O602 1.254 . S
C587 O603 1.225 . S
C588 C587 1.491 . S
C588 C589 1.392 . S
C588 C593 1.356 . S
C589 C588 1.392 . S
C589 C590 1.368 . S
C589 H612 0.929 . S
C590 C589 1.368 . S
C590 C591 1.386 . S
C590 H613 0.929 . S
C591 C590 1.386 . S
C591 C592 1.373 . S
C592 C591 1.373 . S
C592 C593 1.409 . S
C592 H614 0.931 . S
C593 C588 1.356 . S
C593 C592 1.409 . S
C593 H615 0.930 . S
C594 O604 1.270 . S
C594 O605 1.248 . S
C595 O606 1.267 . S
C595 O607 1.278 . S
O596 Pr576 2.562 . S
O596 C578 1.254 . S
O597 Pr576 2.490 . S
O597 C578 1.225 . S
O598 Pr576 2.695 . S
O598 Pr577 2.436 1_554 S
O598 C585 1.270 . S
O599 Pr576 2.512 . S
O599 C585 1.248 . S
O600 Pr577 2.438 1_554 S
O600 C586 1.267 . S
O601 Pr576 2.437 . S
O601 C586 1.278 . S
O602 Pr577 2.562 . S
O602 C587 1.254 . S
O603 Pr577 2.490 . S
O603 C587 1.225 . S
O604 Pr576 2.436 . S
O604 Pr577 2.695 1_554 S
O604 C594 1.270 . S
O605 Pr577 2.512 1_554 S
O605 C594 1.248 . S
O606 Pr576 2.438 . S
O606 C595 1.267 . S
O607 Pr577 2.437 1_554 S
O607 C595 1.278 . S
H608 C580 0.929 . S
H609 C581 0.929 . S
H610 C583 0.931 . S
H611 C584 0.930 . S
H612 C589 0.929 . S
H613 C590 0.929 . S
H614 C592 0.931 . S
H615 C593 0.930 . S
Pr616 C618 2.880 . S
Pr616 O636 2.562 . S
Pr616 O637 2.490 . S
Pr616 O638 2.695 . S
Pr616 O639 2.512 . S
Pr616 O641 2.437 . S
Pr616 O644 2.436 . S
Pr616 O646 2.438 . S
Pr617 C627 2.880 . S
Pr617 O638 2.436 . S
Pr617 O640 2.438 . S
Pr617 O642 2.562 . S
Pr617 O643 2.490 . S
Pr617 O644 2.695 . S
Pr617 O645 2.512 . S
Pr617 O647 2.437 . S
C618 Pr616 2.880 . S
C618 C619 1.491 . S
C618 O636 1.254 . S
C618 O637 1.225 . S
C619 C618 1.491 . S
C619 C620 1.392 . S
C619 C624 1.356 . S
C620 C619 1.392 . S
C620 C621 1.368 . S
C620 H648 0.929 . S
C621 C620 1.368 . S
C621 C622 1.386 . S
C621 H649 0.929 . S
C622 C621 1.386 . S
C622 C623 1.373 . S
C623 C622 1.373 . S
C623 C624 1.409 . S
C623 H650 0.931 . S
C624 C619 1.356 . S
C624 C623 1.409 . S
C624 H651 0.930 . S
C625 O638 1.270 . S
C625 O639 1.248 . S
C626 O640 1.267 . S
C626 O641 1.278 . S
C627 Pr617 2.880 . S
C627 C628 1.491 . S
C627 O642 1.254 . S
C627 O643 1.225 . S
C628 C627 1.491 . S
C628 C629 1.392 . S
C628 C633 1.356 . S
C629 C628 1.392 . S
C629 C630 1.368 . S
C629 H652 0.929 . S
C630 C629 1.368 . S
C630 C631 1.386 . S
C630 H653 0.929 . S
C631 C630 1.386 . S
C631 C632 1.373 . S
C632 C631 1.373 . S
C632 C633 1.409 . S
C632 H654 0.931 . S
C633 C628 1.356 . S
C633 C632 1.409 . S
C633 H655 0.930 . S
C634 O644 1.270 . S
C634 O645 1.248 . S
C635 O646 1.267 . S
C635 O647 1.278 . S
O636 Pr616 2.562 . S
O636 C618 1.254 . S
O637 Pr616 2.490 . S
O637 C618 1.225 . S
O638 Pr616 2.695 . S
O638 Pr617 2.436 . S
O638 C625 1.270 . S
O639 Pr616 2.512 . S
O639 C625 1.248 . S
O640 Pr617 2.438 . S
O640 C626 1.267 . S
O641 Pr616 2.437 . S
O641 C626 1.278 . S
O642 Pr617 2.562 . S
O642 C627 1.254 . S
O643 Pr617 2.490 . S
O643 C627 1.225 . S
O644 Pr616 2.436 . S
O644 Pr617 2.695 . S
O644 C634 1.270 . S
O645 Pr617 2.512 . S
O645 C634 1.248 . S
O646 Pr616 2.438 . S
O646 C635 1.267 . S
O647 Pr617 2.437 . S
O647 C635 1.278 . S
H648 C620 0.929 . S
H649 C621 0.929 . S
H650 C623 0.931 . S
H651 C624 0.930 . S
H652 C629 0.929 . S
H653 C630 0.929 . S
H654 C632 0.931 . S
H655 C633 0.930 . S
Pr656 C658 2.880 . S
Pr656 O676 2.562 . S
Pr656 O677 2.490 . S
Pr656 O678 2.695 1_556 S
Pr656 O679 2.512 . S
Pr656 O681 2.437 . S
Pr656 O684 2.436 1_556 S
Pr656 O686 2.438 1_556 S
Pr657 C667 2.880 . S
Pr657 O678 2.436 . S
Pr657 O680 2.438 . S
Pr657 O682 2.562 . S
Pr657 O683 2.490 . S
Pr657 O684 2.695 . S
Pr657 O685 2.512 . S
Pr657 O687 2.437 . S
C658 Pr656 2.880 . S
C658 C659 1.491 . S
C658 O676 1.254 . S
C658 O677 1.225 . S
C659 C658 1.491 . S
C659 C660 1.392 . S
C659 C664 1.356 . S
C660 C659 1.392 . S
C660 C661 1.368 . S
C660 H688 0.929 . S
C661 C660 1.368 . S
C661 C662 1.386 . S
C661 H689 0.929 . S
C662 C661 1.386 . S
C662 C663 1.373 . S
C663 C662 1.373 . S
C663 C664 1.409 . S
C663 H690 0.931 . S
C664 C659 1.356 . S
C664 C663 1.409 . S
C664 H691 0.930 . S
C665 O678 1.270 . S
C665 O679 1.248 1_554 S
C666 O680 1.267 . S
C666 O681 1.278 1_554 S
C667 Pr657 2.880 . S
C667 C668 1.491 . S
C667 O682 1.254 . S
C667 O683 1.225 . S
C668 C667 1.491 . S
C668 C669 1.392 . S
C668 C673 1.356 . S
C669 C668 1.392 . S
C669 C670 1.368 . S
C669 H692 0.929 . S
C670 C669 1.368 . S
C670 C671 1.386 . S
C670 H693 0.929 . S
C671 C670 1.386 . S
C671 C672 1.373 . S
C672 C671 1.373 . S
C672 C673 1.409 . S
C672 H694 0.931 . S
C673 C668 1.356 . S
C673 C672 1.409 . S
C673 H695 0.930 . S
C674 O684 1.270 . S
C674 O685 1.248 . S
C675 O686 1.267 . S
C675 O687 1.278 . S
O676 Pr656 2.562 . S
O676 C658 1.254 . S
O677 Pr656 2.490 . S
O677 C658 1.225 . S
O678 Pr656 2.695 1_554 S
O678 Pr657 2.436 . S
O678 C665 1.270 . S
O679 Pr656 2.512 . S
O679 C665 1.248 1_556 S
O680 Pr657 2.438 . S
O680 C666 1.267 . S
O681 Pr656 2.437 . S
O681 C666 1.278 1_556 S
O682 Pr657 2.562 . S
O682 C667 1.254 . S
O683 Pr657 2.490 . S
O683 C667 1.225 . S
O684 Pr656 2.436 1_554 S
O684 Pr657 2.695 . S
O684 C674 1.270 . S
O685 Pr657 2.512 . S
O685 C674 1.248 . S
O686 Pr656 2.438 1_554 S
O686 C675 1.267 . S
O687 Pr657 2.437 . S
O687 C675 1.278 . S
H688 C660 0.929 . S
H689 C661 0.929 . S
H690 C663 0.931 . S
H691 C664 0.930 . S
H692 C669 0.929 . S
H693 C670 0.929 . S
H694 C672 0.931 . S
H695 C673 0.930 . S
Pr696 C698 2.880 . S
Pr696 O716 2.562 . S
Pr696 O717 2.490 . S
Pr696 O718 2.695 . S
Pr696 O719 2.512 . S
Pr696 O721 2.437 . S
Pr696 O724 2.436 . S
Pr696 O726 2.438 . S
Pr697 C707 2.880 . S
Pr697 O718 2.436 . S
Pr697 O720 2.438 . S
Pr697 O722 2.562 . S
Pr697 O723 2.490 . S
Pr697 O724 2.695 . S
Pr697 O725 2.512 . S
Pr697 O727 2.437 . S
C698 Pr696 2.880 . S
C698 C699 1.491 . S
C698 O716 1.254 . S
C698 O717 1.225 . S
C699 C698 1.491 . S
C699 C700 1.392 . S
C699 C704 1.356 . S
C700 C699 1.392 . S
C700 C701 1.368 . S
C700 H728 0.929 . S
C701 C700 1.368 . S
C701 C702 1.386 . S
C701 H729 0.929 . S
C702 C701 1.386 . S
C702 C703 1.373 . S
C703 C702 1.373 . S
C703 C704 1.409 . S
C703 H730 0.931 . S
C704 C699 1.356 . S
C704 C703 1.409 . S
C704 H731 0.930 . S
C705 O718 1.270 . S
C705 O719 1.248 . S
C706 O720 1.267 . S
C706 O721 1.278 . S
C707 Pr697 2.880 . S
C707 C708 1.491 . S
C707 O722 1.254 . S
C707 O723 1.225 . S
C708 C707 1.491 . S
C708 C709 1.392 . S
C708 C713 1.356 . S
C709 C708 1.392 . S
C709 C710 1.368 . S
C709 H732 0.929 . S
C710 C709 1.368 . S
C710 C711 1.386 . S
C710 H733 0.929 . S
C711 C710 1.386 . S
C711 C712 1.373 . S
C712 C711 1.373 . S
C712 C713 1.409 . S
C712 H734 0.931 . S
C713 C708 1.356 . S
C713 C712 1.409 . S
C713 H735 0.930 . S
C714 O724 1.270 . S
C714 O725 1.248 . S
C715 O726 1.267 . S
C715 O727 1.278 . S
O716 Pr696 2.562 . S
O716 C698 1.254 . S
O717 Pr696 2.490 . S
O717 C698 1.225 . S
O718 Pr696 2.695 . S
O718 Pr697 2.436 . S
O718 C705 1.270 . S
O719 Pr696 2.512 . S
O719 C705 1.248 . S
O720 Pr697 2.438 . S
O720 C706 1.267 . S
O721 Pr696 2.437 . S
O721 C706 1.278 . S
O722 Pr697 2.562 . S
O722 C707 1.254 . S
O723 Pr697 2.490 . S
O723 C707 1.225 . S
O724 Pr696 2.436 . S
O724 Pr697 2.695 . S
O724 C714 1.270 . S
O725 Pr697 2.512 . S
O725 C714 1.248 . S
O726 Pr696 2.438 . S
O726 C715 1.267 . S
O727 Pr697 2.437 . S
O727 C715 1.278 . S
H728 C700 0.929 . S
H729 C701 0.929 . S
H730 C703 0.931 . S
H731 C704 0.930 . S
H732 C709 0.929 . S
H733 C710 0.929 . S
H734 C712 0.931 . S
H735 C713 0.930 . S
Pr736 C738 2.880 . S
Pr736 O756 2.562 . S
Pr736 O757 2.490 . S
Pr736 O758 2.695 . S
Pr736 O759 2.512 . S
Pr736 O761 2.437 . S
Pr736 O764 2.436 . S
Pr736 O766 2.438 . S
Pr737 C747 2.880 . S
Pr737 O758 2.436 . S
Pr737 O760 2.438 . S
Pr737 O762 2.562 . S
Pr737 O763 2.490 . S
Pr737 O764 2.695 . S
Pr737 O765 2.512 . S
Pr737 O767 2.437 . S
C738 Pr736 2.880 . S
C738 C739 1.491 . S
C738 O756 1.254 . S
C738 O757 1.225 . S
C739 C738 1.491 . S
C739 C740 1.392 . S
C739 C744 1.356 . S
C740 C739 1.392 . S
C740 C741 1.368 . S
C740 H768 0.929 . S
C741 C740 1.368 . S
C741 C742 1.386 . S
C741 H769 0.929 . S
C742 C741 1.386 . S
C742 C743 1.373 . S
C743 C742 1.373 . S
C743 C744 1.409 . S
C743 H770 0.931 1_455 S
C744 C739 1.356 . S
C744 C743 1.409 . S
C744 H771 0.930 . S
C745 O758 1.270 . S
C745 O759 1.248 . S
C746 O760 1.267 . S
C746 O761 1.278 . S
C747 Pr737 2.880 . S
C747 C748 1.491 . S
C747 O762 1.254 . S
C747 O763 1.225 . S
C748 C747 1.491 . S
C748 C749 1.392 . S
C748 C753 1.356 . S
C749 C748 1.392 . S
C749 C750 1.368 . S
C749 H772 0.929 . S
C750 C749 1.368 . S
C750 C751 1.386 . S
C750 H773 0.929 . S
C751 C750 1.386 . S
C751 C752 1.373 . S
C752 C751 1.373 . S
C752 C753 1.409 . S
C752 H774 0.931 . S
C753 C748 1.356 . S
C753 C752 1.409 . S
C753 H775 0.930 . S
C754 O764 1.270 . S
C754 O765 1.248 . S
C755 O766 1.267 . S
C755 O767 1.278 . S
O756 Pr736 2.562 . S
O756 C738 1.254 . S
O757 Pr736 2.490 . S
O757 C738 1.225 . S
O758 Pr736 2.695 . S
O758 Pr737 2.436 . S
O758 C745 1.270 . S
O759 Pr736 2.512 . S
O759 C745 1.248 . S
O760 Pr737 2.438 . S
O760 C746 1.267 . S
O761 Pr736 2.437 . S
O761 C746 1.278 . S
O762 Pr737 2.562 . S
O762 C747 1.254 . S
O763 Pr737 2.490 . S
O763 C747 1.225 . S
O764 Pr736 2.436 . S
O764 Pr737 2.695 . S
O764 C754 1.270 . S
O765 Pr737 2.512 . S
O765 C754 1.248 . S
O766 Pr736 2.438 . S
O766 C755 1.267 . S
O767 Pr737 2.437 . S
O767 C755 1.278 . S
H768 C740 0.929 . S
H769 C741 0.929 . S
H770 C743 0.931 1_655 S
H771 C744 0.930 . S
H772 C749 0.929 . S
H773 C750 0.929 . S
H774 C752 0.931 . S
H775 C753 0.930 . S
Pr776 C778 2.880 . S
Pr776 O796 2.562 . S
Pr776 O797 2.490 . S
Pr776 O798 2.695 . S
Pr776 O799 2.512 . S
Pr776 O801 2.437 . S
Pr776 O804 2.436 . S
Pr776 O806 2.438 . S
Pr777 C787 2.880 . S
Pr777 O798 2.436 . S
Pr777 O800 2.438 . S
Pr777 O802 2.562 . S
Pr777 O803 2.490 . S
Pr777 O804 2.695 . S
Pr777 O805 2.512 . S
Pr777 O807 2.437 . S
C778 Pr776 2.880 . S
C778 C779 1.491 . S
C778 O796 1.254 . S
C778 O797 1.225 . S
C779 C778 1.491 . S
C779 C780 1.392 . S
C779 C784 1.356 . S
C780 C779 1.392 . S
C780 C781 1.368 . S
C780 H808 0.929 . S
C781 C780 1.368 . S
C781 C782 1.386 . S
C781 H809 0.929 . S
C782 C781 1.386 . S
C782 C783 1.373 . S
C783 C782 1.373 . S
C783 C784 1.409 . S
C783 H810 0.931 . S
C784 C779 1.356 . S
C784 C783 1.409 . S
C784 H811 0.930 . S
C785 O798 1.270 . S
C785 O799 1.248 . S
C786 O800 1.267 . S
C786 O801 1.278 . S
C787 Pr777 2.880 . S
C787 C788 1.491 . S
C787 O802 1.254 . S
C787 O803 1.225 . S
C788 C787 1.491 . S
C788 C789 1.392 . S
C788 C793 1.356 . S
C789 C788 1.392 . S
C789 C790 1.368 . S
C789 H812 0.929 . S
C790 C789 1.368 . S
C790 C791 1.386 . S
C790 H813 0.929 . S
C791 C790 1.386 . S
C791 C792 1.373 . S
C792 C791 1.373 . S
C792 C793 1.409 . S
C792 H814 0.931 . S
C793 C788 1.356 . S
C793 C792 1.409 . S
C793 H815 0.930 . S
C794 O804 1.270 . S
C794 O805 1.248 . S
C795 O806 1.267 . S
C795 O807 1.278 . S
O796 Pr776 2.562 . S
O796 C778 1.254 . S
O797 Pr776 2.490 . S
O797 C778 1.225 . S
O798 Pr776 2.695 . S
O798 Pr777 2.436 . S
O798 C785 1.270 . S
O799 Pr776 2.512 . S
O799 C785 1.248 . S
O800 Pr777 2.438 . S
O800 C786 1.267 . S
O801 Pr776 2.437 . S
O801 C786 1.278 . S
O802 Pr777 2.562 . S
O802 C787 1.254 . S
O803 Pr777 2.490 . S
O803 C787 1.225 . S
O804 Pr776 2.436 . S
O804 Pr777 2.695 . S
O804 C794 1.270 . S
O805 Pr777 2.512 . S
O805 C794 1.248 . S
O806 Pr776 2.438 . S
O806 C795 1.267 . S
O807 Pr777 2.437 . S
O807 C795 1.278 . S
H808 C780 0.929 . S
H809 C781 0.929 . S
H810 C783 0.931 . S
H811 C784 0.930 . S
H812 C789 0.929 . S
H813 C790 0.929 . S
H814 C792 0.931 . S
H815 C793 0.930 . S
Pr816 C818 2.880 . S
Pr816 O836 2.562 . S
Pr816 O837 2.490 . S
Pr816 O838 2.695 . S
Pr816 O839 2.512 . S
Pr816 O841 2.437 . S
Pr816 O844 2.436 . S
Pr816 O846 2.438 . S
Pr817 C827 2.880 . S
Pr817 O838 2.436 . S
Pr817 O840 2.438 . S
Pr817 O842 2.562 . S
Pr817 O843 2.490 . S
Pr817 O844 2.695 . S
Pr817 O845 2.512 . S
Pr817 O847 2.437 . S
C818 Pr816 2.880 . S
C818 C819 1.491 . S
C818 O836 1.254 . S
C818 O837 1.225 . S
C819 C818 1.491 . S
C819 C820 1.392 . S
C819 C824 1.356 . S
C820 C819 1.392 . S
C820 C821 1.368 . S
C820 H848 0.929 . S
C821 C820 1.368 . S
C821 C822 1.386 . S
C821 H849 0.929 . S
C822 C821 1.386 . S
C822 C823 1.373 . S
C823 C822 1.373 . S
C823 C824 1.409 . S
C823 H850 0.931 . S
C824 C819 1.356 . S
C824 C823 1.409 . S
C824 H851 0.930 . S
C825 O838 1.270 . S
C825 O839 1.248 . S
C826 O840 1.267 . S
C826 O841 1.278 . S
C827 Pr817 2.880 . S
C827 C828 1.491 . S
C827 O842 1.254 . S
C827 O843 1.225 . S
C828 C827 1.491 . S
C828 C829 1.392 . S
C828 C833 1.356 . S
C829 C828 1.392 . S
C829 C830 1.368 . S
C829 H852 0.929 . S
C830 C829 1.368 . S
C830 C831 1.386 . S
C830 H853 0.929 . S
C831 C830 1.386 . S
C831 C832 1.373 . S
C832 C831 1.373 . S
C832 C833 1.409 . S
C832 H854 0.931 . S
C833 C828 1.356 . S
C833 C832 1.409 . S
C833 H855 0.930 . S
C834 O844 1.270 . S
C834 O845 1.248 . S
C835 O846 1.267 . S
C835 O847 1.278 . S
O836 Pr816 2.562 . S
O836 C818 1.254 . S
O837 Pr816 2.490 . S
O837 C818 1.225 . S
O838 Pr816 2.695 . S
O838 Pr817 2.436 . S
O838 C825 1.270 . S
O839 Pr816 2.512 . S
O839 C825 1.248 . S
O840 Pr817 2.438 . S
O840 C826 1.267 . S
O841 Pr816 2.437 . S
O841 C826 1.278 . S
O842 Pr817 2.562 . S
O842 C827 1.254 . S
O843 Pr817 2.490 . S
O843 C827 1.225 . S
O844 Pr816 2.436 . S
O844 Pr817 2.695 . S
O844 C834 1.270 . S
O845 Pr817 2.512 . S
O845 C834 1.248 . S
O846 Pr816 2.438 . S
O846 C835 1.267 . S
O847 Pr817 2.437 . S
O847 C835 1.278 . S
H848 C820 0.929 . S
H849 C821 0.929 . S
H850 C823 0.931 . S
H851 C824 0.930 . S
H852 C829 0.929 . S
H853 C830 0.929 . S
H854 C832 0.931 . S
H855 C833 0.930 . S
Pr856 C858 2.880 . S
Pr856 O876 2.562 . S
Pr856 O877 2.490 . S
Pr856 O878 2.695 . S
Pr856 O879 2.512 . S
Pr856 O881 2.437 . S
Pr856 O884 2.436 . S
Pr856 O886 2.438 . S
Pr857 C867 2.880 . S
Pr857 O878 2.436 . S
Pr857 O880 2.438 . S
Pr857 O882 2.562 . S
Pr857 O883 2.490 . S
Pr857 O884 2.695 . S
Pr857 O885 2.512 . S
Pr857 O887 2.437 . S
C858 Pr856 2.880 . S
C858 C859 1.491 . S
C858 O876 1.254 . S
C858 O877 1.225 . S
C859 C858 1.491 . S
C859 C860 1.392 . S
C859 C864 1.356 . S
C860 C859 1.392 . S
C860 C861 1.368 . S
C860 H888 0.929 . S
C861 C860 1.368 . S
C861 C862 1.386 . S
C861 H889 0.929 . S
C862 C861 1.386 . S
C862 C863 1.373 . S
C863 C862 1.373 . S
C863 C864 1.409 . S
C863 H890 0.931 . S
C864 C859 1.356 . S
C864 C863 1.409 . S
C864 H891 0.930 . S
C865 O878 1.270 . S
C865 O879 1.248 . S
C866 O880 1.267 . S
C866 O881 1.278 . S
C867 Pr857 2.880 . S
C867 C868 1.491 . S
C867 O882 1.254 . S
C867 O883 1.225 . S
C868 C867 1.491 . S
C868 C869 1.392 . S
C868 C873 1.356 . S
C869 C868 1.392 . S
C869 C870 1.368 . S
C869 H892 0.929 . S
C870 C869 1.368 . S
C870 C871 1.386 . S
C870 H893 0.929 . S
C871 C870 1.386 . S
C871 C872 1.373 . S
C872 C871 1.373 . S
C872 C873 1.409 . S
C872 H894 0.931 . S
C873 C868 1.356 . S
C873 C872 1.409 . S
C873 H895 0.930 . S
C874 O884 1.270 . S
C874 O885 1.248 . S
C875 O886 1.267 . S
C875 O887 1.278 . S
O876 Pr856 2.562 . S
O876 C858 1.254 . S
O877 Pr856 2.490 . S
O877 C858 1.225 . S
O878 Pr856 2.695 . S
O878 Pr857 2.436 . S
O878 C865 1.270 . S
O879 Pr856 2.512 . S
O879 C865 1.248 . S
O880 Pr857 2.438 . S
O880 C866 1.267 . S
O881 Pr856 2.437 . S
O881 C866 1.278 . S
O882 Pr857 2.562 . S
O882 C867 1.254 . S
O883 Pr857 2.490 . S
O883 C867 1.225 . S
O884 Pr856 2.436 . S
O884 Pr857 2.695 . S
O884 C874 1.270 . S
O885 Pr857 2.512 . S
O885 C874 1.248 . S
O886 Pr856 2.438 . S
O886 C875 1.267 . S
O887 Pr857 2.437 . S
O887 C875 1.278 . S
H888 C860 0.929 . S
H889 C861 0.929 . S
H890 C863 0.931 . S
H891 C864 0.930 . S
H892 C869 0.929 . S
H893 C870 0.929 . S
H894 C872 0.931 . S
H895 C873 0.930 . S
Pr896 C898 2.880 . S
Pr896 O916 2.562 . S
Pr896 O917 2.490 . S
Pr896 O918 2.695 . S
Pr896 O919 2.512 . S
Pr896 O921 2.437 . S
Pr896 O924 2.436 . S
Pr896 O926 2.438 . S
Pr897 C907 2.880 . S
Pr897 O918 2.436 . S
Pr897 O920 2.438 . S
Pr897 O922 2.562 . S
Pr897 O923 2.490 . S
Pr897 O924 2.695 . S
Pr897 O925 2.512 . S
Pr897 O927 2.437 . S
C898 Pr896 2.880 . S
C898 C899 1.491 . S
C898 O916 1.254 . S
C898 O917 1.225 . S
C899 C898 1.491 . S
C899 C900 1.392 . S
C899 C904 1.356 . S
C900 C899 1.392 . S
C900 C901 1.368 . S
C900 H928 0.929 . S
C901 C900 1.368 . S
C901 C902 1.386 . S
C901 H929 0.929 . S
C902 C901 1.386 . S
C902 C903 1.373 . S
C903 C902 1.373 . S
C903 C904 1.409 . S
C903 H930 0.931 . S
C904 C899 1.356 . S
C904 C903 1.409 . S
C904 H931 0.930 . S
C905 O918 1.270 . S
C905 O919 1.248 . S
C906 O920 1.267 . S
C906 O921 1.278 . S
C907 Pr897 2.880 . S
C907 C908 1.491 . S
C907 O922 1.254 . S
C907 O923 1.225 . S
C908 C907 1.491 . S
C908 C909 1.392 . S
C908 C913 1.356 . S
C909 C908 1.392 . S
C909 C910 1.368 . S
C909 H932 0.929 . S
C910 C909 1.368 . S
C910 C911 1.386 . S
C910 H933 0.929 . S
C911 C910 1.386 . S
C911 C912 1.373 . S
C912 C911 1.373 . S
C912 C913 1.409 . S
C912 H934 0.931 . S
C913 C908 1.356 . S
C913 C912 1.409 . S
C913 H935 0.930 . S
C914 O924 1.270 . S
C914 O925 1.248 . S
C915 O926 1.267 . S
C915 O927 1.278 . S
O916 Pr896 2.562 . S
O916 C898 1.254 . S
O917 Pr896 2.490 . S
O917 C898 1.225 . S
O918 Pr896 2.695 . S
O918 Pr897 2.436 . S
O918 C905 1.270 . S
O919 Pr896 2.512 . S
O919 C905 1.248 . S
O920 Pr897 2.438 . S
O920 C906 1.267 . S
O921 Pr896 2.437 . S
O921 C906 1.278 . S
O922 Pr897 2.562 . S
O922 C907 1.254 . S
O923 Pr897 2.490 . S
O923 C907 1.225 . S
O924 Pr896 2.436 . S
O924 Pr897 2.695 . S
O924 C914 1.270 . S
O925 Pr897 2.512 . S
O925 C914 1.248 . S
O926 Pr896 2.438 . S
O926 C915 1.267 . S
O927 Pr897 2.437 . S
O927 C915 1.278 . S
H928 C900 0.929 . S
H929 C901 0.929 . S
H930 C903 0.931 . S
H931 C904 0.930 . S
H932 C909 0.929 . S
H933 C910 0.929 . S
H934 C912 0.931 . S
H935 C913 0.930 . S
Pr936 C938 2.880 . S
Pr936 O956 2.562 . S
Pr936 O957 2.490 1_554 S
Pr936 O958 2.705 . S
Pr936 O959 2.512 1_554 S
Pr936 O961 2.437 1_554 S
Pr936 O964 2.436 . S
Pr936 O966 2.438 . S
Pr937 C947 2.880 1_455 S
Pr937 O958 2.467 . S
Pr937 O960 2.438 . S
Pr937 O962 2.562 1_455 S
Pr937 O963 2.490 1_455 S
Pr937 O964 2.695 . S
Pr937 O965 2.512 . S
Pr937 O967 2.437 . S
C938 Pr936 2.880 . S
C938 C939 1.491 . S
C938 O956 1.254 . S
C938 O957 1.225 1_554 S
C939 C938 1.491 . S
C939 C940 1.392 1_554 S
C939 C944 1.356 . S
C940 C939 1.392 1_556 S
C940 C941 1.368 . S
C940 H968 0.929 . S
C941 C940 1.368 . S
C941 C942 1.386 . S
C941 H969 0.929 . S
C942 C941 1.386 . S
C942 C943 1.373 1_556 S
C943 C942 1.373 1_554 S
C943 C944 1.409 . S
C943 H970 0.931 . S
C944 C939 1.356 . S
C944 C943 1.409 . S
C944 H971 0.930 . S
C945 O958 1.233 1_556 S
C945 O959 1.248 . S
C946 O960 1.285 . S
C946 O961 1.263 1_554 S
C947 Pr937 2.880 1_655 S
C947 C948 1.491 . S
C947 O962 1.254 . S
C947 O963 1.225 . S
C948 C947 1.491 . S
C948 C949 1.392 . S
C948 C953 1.356 . S
C949 C948 1.392 . S
C949 C950 1.368 . S
C949 H972 0.929 . S
C950 C949 1.368 . S
C950 C951 1.386 . S
C950 H973 0.929 . S
C951 C950 1.386 . S
C951 C952 1.373 . S
C952 C951 1.373 . S
C952 C953 1.409 . S
C952 H974 0.931 . S
C953 C948 1.356 . S
C953 C952 1.409 . S
C953 H975 0.930 . S
C954 O964 1.270 . S
C954 O965 1.248 . S
C955 O966 1.267 . S
C955 O967 1.278 . S
O956 Pr936 2.562 . S
O956 C938 1.254 . S
O957 Pr936 2.490 1_556 S
O957 C938 1.225 1_556 S
O958 Pr936 2.705 . S
O958 Pr937 2.467 . S
O958 C945 1.233 1_554 S
O959 Pr936 2.512 1_556 S
O959 C945 1.248 . S
O960 Pr937 2.438 . S
O960 C946 1.285 . S
O961 Pr936 2.437 1_556 S
O961 C946 1.263 1_556 S
O962 Pr937 2.562 1_655 S
O962 C947 1.254 . S
O963 Pr937 2.490 1_655 S
O963 C947 1.225 . S
O964 Pr936 2.436 . S
O964 Pr937 2.695 . S
O964 C954 1.270 . S
O965 Pr937 2.512 . S
O965 C954 1.248 . S
O966 Pr936 2.438 . S
O966 C955 1.267 . S
O967 Pr937 2.437 . S
O967 C955 1.278 . S
H968 C940 0.929 . S
H969 C941 0.929 . S
H970 C943 0.931 . S
H971 C944 0.930 . S
H972 C949 0.929 . S
H973 C950 0.929 . S
H974 C952 0.931 . S
H975 C953 0.930 . S
H976 C982 0.930 . S
H977 C986 0.930 . S
H978 C991 0.929 . S
H979 C989 0.929 . S
H980 C984 0.929 . S
H981 C990 0.929 1_554 S
C982 H976 0.930 . S
C982 C983 1.367 . S
C982 C990 1.378 . S
C983 C982 1.367 . S
C983 C991 1.433 . S
C984 H980 0.929 . S
C984 C986 1.378 . S
C984 C988 1.350 . S
C985 C988 1.463 . S
C985 C990 1.350 . S
C985 N993 1.427 . S
C986 H977 0.930 . S
C986 C984 1.378 . S
C986 C987 1.367 1_556 S
C987 C986 1.367 1_554 S
C987 C989 1.433 . S
C988 C984 1.350 . S
C988 C985 1.463 . S
C988 N992 1.427 1_556 S
C989 H979 0.929 . S
C989 C987 1.433 . S
C989 N992 1.384 . S
C990 H981 0.929 1_556 S
C990 C982 1.378 . S
C990 C985 1.350 . S
C991 H978 0.929 . S
C991 C983 1.433 . S
C991 N993 1.384 . S
N992 C988 1.427 1_554 S
N992 C989 1.384 . S
N993 C985 1.427 . S
N993 C991 1.384 . S
H994 C1000 0.930 . S
H995 C1004 0.930 . S
H996 C1009 0.929 . S
H997 C1007 0.929 . S
H998 C1002 0.929 . S
H999 C1008 0.929 . S
C1000 H994 0.930 . S
C1000 C1001 1.367 . S
C1000 C1008 1.378 . S
C1001 C1000 1.367 . S
C1001 C1009 1.433 . S
C1002 H998 0.929 . S
C1002 C1004 1.378 . S
C1002 C1006 1.350 . S
C1003 C1006 1.463 . S
C1003 C1008 1.350 . S
C1003 N1011 1.427 . S
C1004 H995 0.930 . S
C1004 C1002 1.378 . S
C1004 C1005 1.367 . S
C1005 C1004 1.367 . S
C1005 C1007 1.433 . S
C1006 C1002 1.350 . S
C1006 C1003 1.463 . S
C1006 N1010 1.427 . S
C1007 H997 0.929 . S
C1007 C1005 1.433 . S
C1007 N1010 1.384 . S
C1008 H999 0.929 . S
C1008 C1000 1.378 . S
C1008 C1003 1.350 . S
C1009 H996 0.929 . S
C1009 C1001 1.433 . S
C1009 N1011 1.384 . S
N1010 C1006 1.427 . S
N1010 C1007 1.384 . S
N1011 C1003 1.427 . S
N1011 C1009 1.384 . S
H1012 C1018 0.930 . S
H1013 C1022 0.930 1_545 S
H1014 C1027 0.929 . S
H1015 C1025 0.923 1_545 S
H1016 C1020 0.929 . S
H1017 C1026 0.929 . S
C1018 H1012 0.930 . S
C1018 C1019 1.367 . S
C1018 C1026 1.378 . S
C1019 C1018 1.367 . S
C1019 C1027 1.433 . S
C1020 H1016 0.929 . S
C1020 C1022 1.378 . S
C1020 C1024 1.350 . S
C1021 C1024 1.463 . S
C1021 C1026 1.350 . S
C1021 N1029 1.427 . S
C1022 H1013 0.930 1_565 S
C1022 C1020 1.378 . S
C1022 C1023 1.367 1_565 S
C1023 C1022 1.367 1_545 S
C1023 C1025 1.433 1_545 S
C1024 C1020 1.350 . S
C1024 C1021 1.463 . S
C1024 N1028 1.427 . S
C1025 H1015 0.923 1_565 S
C1025 C1023 1.433 1_565 S
C1025 N1028 1.384 . S
C1026 H1017 0.929 . S
C1026 C1018 1.378 . S
C1026 C1021 1.350 . S
C1027 H1014 0.929 . S
C1027 C1019 1.433 . S
C1027 N1029 1.384 . S
N1028 C1024 1.427 . S
N1028 C1025 1.384 . S
N1029 C1021 1.427 . S
N1029 C1027 1.384 . S
H1030 C1036 0.930 . S
H1031 C1040 0.930 . S
H1032 C1045 0.929 . S
H1033 C1043 0.929 . S
H1034 C1038 0.929 . S
H1035 C1044 0.929 . S
C1036 H1030 0.930 . S
C1036 C1037 1.367 . S
C1036 C1044 1.378 . S
C1037 C1036 1.367 . S
C1037 C1045 1.433 . S
C1038 H1034 0.929 . S
C1038 C1040 1.378 . S
C1038 C1042 1.350 . S
C1039 C1042 1.463 . S
C1039 C1044 1.350 . S
C1039 N1047 1.427 . S
C1040 H1031 0.930 . S
C1040 C1038 1.378 . S
C1040 C1041 1.367 . S
C1041 C1040 1.367 . S
C1041 C1043 1.433 . S
C1042 C1038 1.350 . S
C1042 C1039 1.463 . S
C1042 N1046 1.427 . S
C1043 H1033 0.929 . S
C1043 C1041 1.433 . S
C1043 N1046 1.384 . S
C1044 H1035 0.929 . S
C1044 C1036 1.378 . S
C1044 C1039 1.350 . S
C1045 H1032 0.929 . S
C1045 C1037 1.433 . S
C1045 N1047 1.384 . S
N1046 C1042 1.427 . S
N1046 C1043 1.384 . S
N1047 C1039 1.427 . S
N1047 C1045 1.384 . S
H1048 C1054 0.930 . S
H1049 C1058 0.930 . S
H1050 C1063 0.929 . S
H1051 C1061 0.929 . S
H1052 C1056 0.925 . S
H1053 C1062 0.929 . S
C1054 H1048 0.930 . S
C1054 C1055 1.367 . S
C1054 C1062 1.378 . S
C1055 C1054 1.367 . S
C1055 C1063 1.433 . S
C1056 H1052 0.925 . S
C1056 C1058 1.399 . S
C1056 C1060 1.333 1_545 S
C1057 C1060 1.463 . S
C1057 C1062 1.350 . S
C1057 N1065 1.427 . S
C1058 H1049 0.930 . S
C1058 C1056 1.399 . S
C1058 C1059 1.367 . S
C1059 C1058 1.367 . S
C1059 C1061 1.433 1_545 S
C1060 C1056 1.333 1_565 S
C1060 C1057 1.463 . S
C1060 N1064 1.427 . S
C1061 H1051 0.929 . S
C1061 C1059 1.433 1_565 S
C1061 N1064 1.384 . S
C1062 H1053 0.929 . S
C1062 C1054 1.378 . S
C1062 C1057 1.350 . S
C1063 H1050 0.929 . S
C1063 C1055 1.433 . S
C1063 N1065 1.384 . S
N1064 C1060 1.427 . S
N1064 C1061 1.384 . S
N1065 C1057 1.427 . S
N1065 C1063 1.384 . S
H1066 C1072 0.930 . S
H1067 C1076 0.930 . S
H1068 C1081 0.929 . S
H1069 C1079 0.929 . S
H1070 C1074 0.929 . S
H1071 C1080 0.929 . S
C1072 H1066 0.930 . S
C1072 C1073 1.367 . S
C1072 C1080 1.378 . S
C1073 C1072 1.367 . S
C1073 C1081 1.433 . S
C1074 H1070 0.929 . S
C1074 C1076 1.378 . S
C1074 C1078 1.350 . S
C1075 C1078 1.463 . S
C1075 C1080 1.350 . S
C1075 N1083 1.427 . S
C1076 H1067 0.930 . S
C1076 C1074 1.378 . S
C1076 C1077 1.367 . S
C1077 C1076 1.367 . S
C1077 C1079 1.433 . S
C1078 C1074 1.350 . S
C1078 C1075 1.463 . S
C1078 N1082 1.427 . S
C1079 H1069 0.929 . S
C1079 C1077 1.433 . S
C1079 N1082 1.384 . S
C1080 H1071 0.929 . S
C1080 C1072 1.378 . S
C1080 C1075 1.350 . S
C1081 H1068 0.929 . S
C1081 C1073 1.433 . S
C1081 N1083 1.384 . S
N1082 C1078 1.427 . S
N1082 C1079 1.384 . S
N1083 C1075 1.427 . S
N1083 C1081 1.384 . S
H1084 C1090 0.930 . S
H1085 C1094 0.930 . S
H1086 C1099 0.929 . S
H1087 C1097 0.929 . S
H1088 C1092 0.929 . S
H1089 C1098 0.929 . S
C1090 H1084 0.930 . S
C1090 C1091 1.367 . S
C1090 C1098 1.378 . S
C1091 C1090 1.367 . S
C1091 C1099 1.433 . S
C1092 H1088 0.929 . S
C1092 C1094 1.378 . S
C1092 C1096 1.350 . S
C1093 C1096 1.463 . S
C1093 C1098 1.350 . S
C1093 N1101 1.427 . S
C1094 H1085 0.930 . S
C1094 C1092 1.378 . S
C1094 C1095 1.367 . S
C1095 C1094 1.367 . S
C1095 C1097 1.433 . S
C1096 C1092 1.350 . S
C1096 C1093 1.463 . S
C1096 N1100 1.427 . S
C1097 H1087 0.929 . S
C1097 C1095 1.433 . S
C1097 N1100 1.384 . S
C1098 H1089 0.929 . S
C1098 C1090 1.378 . S
C1098 C1093 1.350 . S
C1099 H1086 0.929 . S
C1099 C1091 1.433 . S
C1099 N1101 1.384 . S
N1100 C1096 1.427 . S
N1100 C1097 1.384 . S
N1101 C1093 1.427 . S
N1101 C1099 1.384 . S
H1102 C1108 0.930 . S
H1103 C1112 0.930 . S
H1104 C1117 0.929 . S
H1105 C1115 0.929 . S
H1106 C1110 0.929 . S
H1107 C1116 0.929 . S
C1108 H1102 0.930 . S
C1108 C1109 1.367 . S
C1108 C1116 1.378 . S
C1109 C1108 1.367 . S
C1109 C1117 1.433 . S
C1110 H1106 0.929 . S
C1110 C1112 1.378 . S
C1110 C1114 1.350 . S
C1111 C1114 1.463 . S
C1111 C1116 1.350 . S
C1111 N1119 1.427 . S
C1112 H1103 0.930 . S
C1112 C1110 1.378 . S
C1112 C1113 1.367 . S
C1113 C1112 1.367 . S
C1113 C1115 1.433 . S
C1114 C1110 1.350 . S
C1114 C1111 1.463 . S
C1114 N1118 1.427 . S
C1115 H1105 0.929 . S
C1115 C1113 1.433 . S
C1115 N1118 1.384 . S
C1116 H1107 0.929 . S
C1116 C1108 1.378 . S
C1116 C1111 1.350 . S
C1117 H1104 0.929 . S
C1117 C1109 1.433 . S
C1117 N1119 1.384 . S
N1118 C1114 1.427 . S
N1118 C1115 1.384 . S
N1119 C1111 1.427 . S
N1119 C1117 1.384 . S
H1120 C1126 0.930 . S
H1121 C1130 0.930 . S
H1122 C1135 0.929 . S
H1123 C1133 0.929 . S
H1124 C1128 0.929 . S
H1125 C1134 0.929 . S
C1126 H1120 0.930 . S
C1126 C1127 1.367 . S
C1126 C1134 1.378 . S
C1127 C1126 1.367 . S
C1127 C1135 1.433 . S
C1128 H1124 0.929 . S
C1128 C1130 1.378 1_655 S
C1128 C1132 1.350 . S
C1129 C1132 1.463 . S
C1129 C1134 1.350 . S
C1129 N1137 1.427 . S
C1130 H1121 0.930 . S
C1130 C1128 1.378 1_455 S
C1130 C1131 1.367 . S
C1131 C1130 1.367 . S
C1131 C1133 1.433 . S
C1132 C1128 1.350 . S
C1132 C1129 1.463 . S
C1132 N1136 1.420 1_655 S
C1133 H1123 0.929 . S
C1133 C1131 1.433 . S
C1133 N1136 1.411 . S
C1134 H1125 0.929 . S
C1134 C1126 1.378 . S
C1134 C1129 1.350 . S
C1135 H1122 0.929 . S
C1135 C1127 1.433 . S
C1135 N1137 1.384 . S
N1136 C1132 1.420 1_455 S
N1136 C1133 1.411 . S
N1137 C1129 1.427 . S
N1137 C1135 1.384 . S
H1138 C1144 0.930 . S
H1139 C1148 0.930 . S
H1140 C1153 0.929 . S
H1141 C1151 0.929 . S
H1142 C1146 0.929 . S
H1143 C1152 0.929 . S
C1144 H1138 0.930 . S
C1144 C1145 1.367 . S
C1144 C1152 1.378 . S
C1145 C1144 1.367 . S
C1145 C1153 1.433 . S
C1146 H1142 0.929 . S
C1146 C1148 1.378 . S
C1146 C1150 1.350 . S
C1147 C1150 1.463 . S
C1147 C1152 1.350 . S
C1147 N1155 1.427 . S
C1148 H1139 0.930 . S
C1148 C1146 1.378 . S
C1148 C1149 1.367 . S
C1149 C1148 1.367 . S
C1149 C1151 1.433 . S
C1150 C1146 1.350 . S
C1150 C1147 1.463 . S
C1150 N1154 1.427 . S
C1151 H1141 0.929 . S
C1151 C1149 1.433 . S
C1151 N1154 1.384 . S
C1152 H1143 0.929 . S
C1152 C1144 1.378 . S
C1152 C1147 1.350 . S
C1153 H1140 0.929 . S
C1153 C1145 1.433 . S
C1153 N1155 1.384 . S
N1154 C1150 1.427 . S
N1154 C1151 1.384 . S
N1155 C1147 1.427 . S
N1155 C1153 1.384 . S
H1156 C1162 0.930 . S
H1157 C1166 0.930 . S
H1158 C1171 0.929 . S
H1159 C1169 0.929 . S
H1160 C1164 0.929 . S
H1161 C1170 0.929 . S
C1162 H1156 0.930 . S
C1162 C1163 1.391 . S
C1162 C1170 1.378 . S
C1163 C1162 1.391 . S
C1163 C1171 1.426 1_545 S
C1164 H1160 0.929 . S
C1164 C1166 1.378 . S
C1164 C1168 1.350 . S
C1165 C1168 1.463 . S
C1165 C1170 1.350 . S
C1165 N1173 1.427 1_545 S
C1166 H1157 0.930 . S
C1166 C1164 1.378 . S
C1166 C1167 1.367 . S
C1167 C1166 1.367 . S
C1167 C1169 1.433 . S
C1168 C1164 1.350 . S
C1168 C1165 1.463 . S
C1168 N1172 1.427 . S
C1169 H1159 0.929 . S
C1169 C1167 1.433 . S
C1169 N1172 1.384 . S
C1170 H1161 0.929 . S
C1170 C1162 1.378 . S
C1170 C1165 1.350 . S
C1171 H1158 0.929 . S
C1171 C1163 1.426 1_565 S
C1171 N1173 1.384 . S
N1172 C1168 1.427 . S
N1172 C1169 1.384 . S
N1173 C1165 1.427 1_565 S
N1173 C1171 1.384 . S
H1174 C1180 0.930 . S
H1175 C1184 0.930 . S
H1176 C1189 0.929 . S
H1177 C1187 0.929 . S
H1178 C1182 0.929 . S
H1179 C1188 0.929 . S
C1180 H1174 0.930 . S
C1180 C1181 1.367 . S
C1180 C1188 1.378 . S
C1181 C1180 1.367 . S
C1181 C1189 1.433 . S
C1182 H1178 0.929 . S
C1182 C1184 1.378 . S
C1182 C1186 1.350 . S
C1183 C1186 1.463 . S
C1183 C1188 1.350 . S
C1183 N1191 1.427 . S
C1184 H1175 0.930 . S
C1184 C1182 1.378 . S
C1184 C1185 1.367 . S
C1185 C1184 1.367 . S
C1185 C1187 1.433 . S
C1186 C1182 1.350 . S
C1186 C1183 1.463 . S
C1186 N1190 1.427 . S
C1187 H1177 0.929 . S
C1187 C1185 1.433 . S
C1187 N1190 1.384 . S
C1188 H1179 0.929 . S
C1188 C1180 1.378 . S
C1188 C1183 1.350 . S
C1189 H1176 0.929 . S
C1189 C1181 1.433 . S
C1189 N1191 1.384 . S
N1190 C1186 1.427 . S
N1190 C1187 1.384 . S
N1191 C1183 1.427 . S
N1191 C1189 1.384 . S
H1192 C1198 0.930 . S
H1193 C1202 0.930 . S
H1194 C1207 0.929 . S
H1195 C1205 0.929 . S
H1196 C1200 0.929 . S
H1197 C1206 0.929 . S
C1198 H1192 0.930 . S
C1198 C1199 1.367 . S
C1198 C1206 1.378 . S
C1199 C1198 1.367 . S
C1199 C1207 1.433 . S
C1200 H1196 0.929 . S
C1200 C1202 1.378 . S
C1200 C1204 1.350 . S
C1201 C1204 1.463 . S
C1201 C1206 1.350 . S
C1201 N1209 1.427 . S
C1202 H1193 0.930 . S
C1202 C1200 1.378 . S
C1202 C1203 1.367 . S
C1203 C1202 1.367 . S
C1203 C1205 1.433 . S
C1204 C1200 1.350 . S
C1204 C1201 1.463 . S
C1204 N1208 1.427 . S
C1205 H1195 0.929 . S
C1205 C1203 1.433 . S
C1205 N1208 1.384 . S
C1206 H1197 0.929 . S
C1206 C1198 1.378 . S
C1206 C1201 1.350 . S
C1207 H1194 0.929 . S
C1207 C1199 1.433 . S
C1207 N1209 1.384 . S
N1208 C1204 1.427 . S
N1208 C1205 1.384 . S
N1209 C1201 1.427 . S
N1209 C1207 1.384 . S
H1210 C1216 0.930 . S
H1211 C1220 0.930 . S
H1212 C1225 0.929 . S
H1213 C1223 0.929 . S
H1214 C1218 0.929 . S
H1215 C1224 0.929 . S
C1216 H1210 0.930 . S
C1216 C1217 1.367 . S
C1216 C1224 1.378 . S
C1217 C1216 1.367 . S
C1217 C1225 1.433 . S
C1218 H1214 0.929 . S
C1218 C1220 1.378 . S
C1218 C1222 1.350 . S
C1219 C1222 1.463 . S
C1219 C1224 1.350 . S
C1219 N1227 1.427 . S
C1220 H1211 0.930 . S
C1220 C1218 1.378 . S
C1220 C1221 1.367 . S
C1221 C1220 1.367 . S
C1221 C1223 1.433 . S
C1222 C1218 1.350 . S
C1222 C1219 1.463 . S
C1222 N1226 1.427 . S
C1223 H1213 0.929 . S
C1223 C1221 1.433 . S
C1223 N1226 1.384 . S
C1224 H1215 0.929 . S
C1224 C1216 1.378 . S
C1224 C1219 1.350 . S
C1225 H1212 0.929 . S
C1225 C1217 1.433 . S
C1225 N1227 1.384 . S
N1226 C1222 1.427 . S
N1226 C1223 1.384 . S
N1227 C1219 1.427 . S
N1227 C1225 1.384 . S
H1228 C1234 0.918 1_565 S
H1229 C1238 0.930 . S
H1230 C1243 0.929 . S
H1231 C1241 0.929 . S
H1232 C1236 0.929 . S
H1233 C1242 0.929 . S
C1234 H1228 0.918 1_545 S
C1234 C1235 1.367 . S
C1234 C1242 1.378 . S
C1235 C1234 1.367 . S
C1235 C1243 1.433 . S
C1236 H1232 0.929 . S
C1236 C1238 1.378 . S
C1236 C1240 1.350 . S
C1237 C1240 1.463 . S
C1237 C1242 1.350 . S
C1237 N1245 1.427 . S
C1238 H1229 0.930 . S
C1238 C1236 1.378 . S
C1238 C1239 1.367 . S
C1239 C1238 1.367 . S
C1239 C1241 1.433 . S
C1240 C1236 1.350 . S
C1240 C1237 1.463 . S
C1240 N1244 1.427 . S
C1241 H1231 0.929 . S
C1241 C1239 1.433 . S
C1241 N1244 1.384 . S
C1242 H1233 0.929 . S
C1242 C1234 1.378 . S
C1242 C1237 1.350 . S
C1243 H1230 0.929 . S
C1243 C1235 1.433 . S
C1243 N1245 1.384 . S
N1244 C1240 1.427 . S
N1244 C1241 1.384 . S
N1245 C1237 1.427 . S
N1245 C1243 1.384 . S
H1246 C1252 0.930 . S
H1247 C1256 0.930 . S
H1248 C1261 0.929 . S
H1249 C1259 0.929 . S
H1250 C1254 0.929 . S
H1251 C1260 0.929 . S
C1252 H1246 0.930 . S
C1252 C1253 1.367 . S
C1252 C1260 1.378 . S
C1253 C1252 1.367 . S
C1253 C1261 1.433 . S
C1254 H1250 0.929 . S
C1254 C1256 1.378 . S
C1254 C1258 1.350 . S
C1255 C1258 1.463 . S
C1255 C1260 1.350 . S
C1255 N1263 1.427 . S
C1256 H1247 0.930 . S
C1256 C1254 1.378 . S
C1256 C1257 1.367 . S
C1257 C1256 1.367 . S
C1257 C1259 1.433 . S
C1258 C1254 1.350 . S
C1258 C1255 1.463 . S
C1258 N1262 1.427 . S
C1259 H1249 0.929 . S
C1259 C1257 1.433 . S
C1259 N1262 1.384 . S
C1260 H1251 0.929 . S
C1260 C1252 1.378 . S
C1260 C1255 1.350 . S
C1261 H1248 0.929 . S
C1261 C1253 1.433 . S
C1261 N1263 1.384 . S
N1262 C1258 1.427 . S
N1262 C1259 1.384 . S
N1263 C1255 1.427 . S
N1263 C1261 1.384 . S
H1264 C1270 0.930 . S
H1265 C1274 0.930 . S
H1266 C1279 0.929 . S
H1267 C1277 0.929 . S
H1268 C1272 0.929 . S
H1269 C1278 0.929 . S
C1270 H1264 0.930 . S
C1270 C1271 1.367 . S
C1270 C1278 1.378 . S
C1271 C1270 1.367 . S
C1271 C1279 1.433 . S
C1272 H1268 0.929 . S
C1272 C1274 1.378 . S
C1272 C1276 1.350 . S
C1273 C1276 1.463 . S
C1273 C1278 1.350 1_545 S
C1273 N1281 1.427 . S
C1274 H1265 0.930 . S
C1274 C1272 1.378 . S
C1274 C1275 1.367 . S
C1275 C1274 1.367 . S
C1275 C1277 1.433 . S
C1276 C1272 1.350 . S
C1276 C1273 1.463 . S
C1276 N1280 1.427 . S
C1277 H1267 0.929 . S
C1277 C1275 1.433 . S
C1277 N1280 1.384 . S
C1278 H1269 0.929 . S
C1278 C1270 1.378 . S
C1278 C1273 1.350 1_565 S
C1279 H1266 0.929 . S
C1279 C1271 1.433 . S
C1279 N1281 1.372 1_565 S
N1280 C1276 1.427 . S
N1280 C1277 1.384 . S
N1281 C1273 1.427 . S
N1281 C1279 1.372 1_545 S
H1282 C1288 0.930 . S
H1283 C1292 0.937 . S
H1284 C1297 0.929 . S
H1285 C1295 0.929 . S
H1286 C1290 0.929 . S
H1287 C1296 0.929 . S
C1288 H1282 0.930 . S
C1288 C1289 1.367 . S
C1288 C1296 1.378 . S
C1289 C1288 1.367 . S
C1289 C1297 1.433 1_554 S
C1290 H1286 0.929 . S
C1290 C1292 1.381 . S
C1290 C1294 1.350 1_556 S
C1291 C1294 1.463 . S
C1291 C1296 1.350 . S
C1291 N1299 1.427 1_554 S
C1292 H1283 0.937 . S
C1292 C1290 1.381 . S
C1292 C1293 1.357 1_556 S
C1293 C1292 1.357 1_554 S
C1293 C1295 1.433 . S
C1294 C1290 1.350 1_554 S
C1294 C1291 1.463 . S
C1294 N1298 1.427 . S
C1295 H1285 0.929 . S
C1295 C1293 1.433 . S
C1295 N1298 1.384 . S
C1296 H1287 0.929 . S
C1296 C1288 1.378 . S
C1296 C1291 1.350 . S
C1297 H1284 0.929 . S
C1297 C1289 1.433 1_556 S
C1297 N1299 1.384 . S
N1298 C1294 1.427 . S
N1298 C1295 1.384 . S
N1299 C1291 1.427 1_556 S
N1299 C1297 1.384 . S
H1300 C1306 0.930 . S
H1301 C1310 0.930 . S
H1302 C1315 0.929 . S
H1303 C1313 0.929 . S
H1304 C1308 0.929 . S
H1305 C1314 0.929 . S
C1306 H1300 0.930 . S
C1306 C1307 1.367 . S
C1306 C1314 1.378 . S
C1307 C1306 1.367 . S
C1307 C1315 1.433 . S
C1308 H1304 0.929 . S
C1308 C1310 1.378 . S
C1308 C1312 1.350 . S
C1309 C1312 1.463 . S
C1309 C1314 1.350 . S
C1309 N1317 1.427 . S
C1310 H1301 0.930 . S
C1310 C1308 1.378 . S
C1310 C1311 1.367 . S
C1311 C1310 1.367 . S
C1311 C1313 1.433 . S
C1312 C1308 1.350 . S
C1312 C1309 1.463 . S
C1312 N1316 1.427 . S
C1313 H1303 0.929 . S
C1313 C1311 1.433 . S
C1313 N1316 1.384 . S
C1314 H1305 0.929 . S
C1314 C1306 1.378 . S
C1314 C1309 1.350 . S
C1315 H1302 0.929 . S
C1315 C1307 1.433 . S
C1315 N1317 1.384 . S
N1316 C1312 1.427 . S
N1316 C1313 1.384 . S
N1317 C1309 1.427 . S
N1317 C1315 1.384 . S
H1318 C1324 0.930 . S
H1319 C1328 0.930 . S
H1320 C1333 0.929 . S
H1321 C1331 0.929 . S
H1322 C1326 0.929 . S
H1323 C1332 0.929 . S
C1324 H1318 0.930 . S
C1324 C1325 1.367 . S
C1324 C1332 1.378 . S
C1325 C1324 1.367 . S
C1325 C1333 1.433 . S
C1326 H1322 0.929 . S
C1326 C1328 1.378 . S
C1326 C1330 1.350 . S
C1327 C1330 1.463 . S
C1327 C1332 1.350 . S
C1327 N1335 1.427 . S
C1328 H1319 0.930 . S
C1328 C1326 1.378 . S
C1328 C1329 1.367 . S
C1329 C1328 1.367 . S
C1329 C1331 1.433 . S
C1330 C1326 1.350 . S
C1330 C1327 1.463 . S
C1330 N1334 1.427 . S
C1331 H1321 0.929 . S
C1331 C1329 1.433 . S
C1331 N1334 1.384 . S
C1332 H1323 0.929 . S
C1332 C1324 1.378 . S
C1332 C1327 1.350 . S
C1333 H1320 0.929 . S
C1333 C1325 1.433 . S
C1333 N1335 1.384 . S
N1334 C1330 1.427 . S
N1334 C1331 1.384 . S
N1335 C1327 1.427 . S
N1335 C1333 1.384 . S
H1336 C1342 0.930 . S
H1337 C1346 0.930 . S
H1338 C1351 0.929 . S
H1339 C1349 0.929 . S
H1340 C1344 0.929 . S
H1341 C1350 0.929 . S
C1342 H1336 0.930 . S
C1342 C1343 1.367 . S
C1342 C1350 1.378 . S
C1343 C1342 1.367 . S
C1343 C1351 1.433 . S
C1344 H1340 0.929 . S
C1344 C1346 1.378 . S
C1344 C1348 1.350 . S
C1345 C1348 1.463 . S
C1345 C1350 1.350 . S
C1345 N1353 1.427 . S
C1346 H1337 0.930 . S
C1346 C1344 1.378 . S
C1346 C1347 1.367 . S
C1347 C1346 1.367 . S
C1347 C1349 1.433 . S
C1348 C1344 1.350 . S
C1348 C1345 1.463 . S
C1348 N1352 1.427 . S
C1349 H1339 0.929 . S
C1349 C1347 1.433 . S
C1349 N1352 1.384 . S
C1350 H1341 0.929 . S
C1350 C1342 1.378 . S
C1350 C1345 1.350 . S
C1351 H1338 0.929 . S
C1351 C1343 1.433 . S
C1351 N1353 1.384 . S
N1352 C1348 1.427 . S
N1352 C1349 1.384 . S
N1353 C1345 1.427 . S
N1353 C1351 1.384 . S
H1354 C1360 0.930 . S
H1355 C1364 0.930 . S
H1356 C1369 0.929 . S
H1357 C1367 0.929 . S
H1358 C1362 0.929 . S
H1359 C1368 0.929 . S
C1360 H1354 0.930 . S
C1360 C1361 1.367 . S
C1360 C1368 1.378 . S
C1361 C1360 1.367 . S
C1361 C1369 1.433 . S
C1362 H1358 0.929 . S
C1362 C1364 1.378 . S
C1362 C1366 1.350 . S
C1363 C1366 1.463 . S
C1363 C1368 1.350 . S
C1363 N1371 1.427 . S
C1364 H1355 0.930 . S
C1364 C1362 1.378 . S
C1364 C1365 1.367 . S
C1365 C1364 1.367 . S
C1365 C1367 1.433 . S
C1366 C1362 1.350 . S
C1366 C1363 1.463 . S
C1366 N1370 1.427 . S
C1367 H1357 0.929 . S
C1367 C1365 1.433 . S
C1367 N1370 1.384 . S
C1368 H1359 0.929 . S
C1368 C1360 1.378 . S
C1368 C1363 1.350 . S
C1369 H1356 0.929 . S
C1369 C1361 1.433 . S
C1369 N1371 1.384 . S
N1370 C1366 1.427 . S
N1370 C1367 1.384 . S
N1371 C1363 1.427 . S
N1371 C1369 1.384 . S
H1372 C1378 0.930 . S
H1373 C1382 0.930 . S
H1374 C1387 0.929 . S
H1375 C1385 0.929 . S
H1376 C1380 0.929 . S
H1377 C1386 0.929 . S
C1378 H1372 0.930 . S
C1378 C1379 1.367 . S
C1378 C1386 1.378 . S
C1379 C1378 1.367 . S
C1379 C1387 1.433 . S
C1380 H1376 0.929 . S
C1380 C1382 1.378 . S
C1380 C1384 1.350 . S
C1381 C1384 1.463 . S
C1381 C1386 1.350 . S
C1381 N1389 1.427 . S
C1382 H1373 0.930 . S
C1382 C1380 1.378 . S
C1382 C1383 1.367 . S
C1383 C1382 1.367 . S
C1383 C1385 1.433 . S
C1384 C1380 1.350 . S
C1384 C1381 1.463 . S
C1384 N1388 1.427 . S
C1385 H1375 0.929 . S
C1385 C1383 1.433 . S
C1385 N1388 1.384 . S
C1386 H1377 0.929 . S
C1386 C1378 1.378 . S
C1386 C1381 1.350 . S
C1387 H1374 0.929 . S
C1387 C1379 1.433 . S
C1387 N1389 1.384 . S
N1388 C1384 1.427 . S
N1388 C1385 1.384 . S
N1389 C1381 1.427 . S
N1389 C1387 1.384 . S
H1390 C1396 0.930 . S
H1391 C1400 0.930 . S
H1392 C1405 0.929 . S
H1393 C1403 0.929 . S
H1394 C1398 0.929 . S
H1395 C1404 0.929 . S
C1396 H1390 0.930 . S
C1396 C1397 1.367 . S
C1396 C1404 1.378 . S
C1397 C1396 1.367 . S
C1397 C1405 1.433 . S
C1398 H1394 0.929 . S
C1398 C1400 1.378 . S
C1398 C1402 1.350 . S
C1399 C1402 1.463 . S
C1399 C1404 1.350 . S
C1399 N1407 1.427 . S
C1400 H1391 0.930 . S
C1400 C1398 1.378 . S
C1400 C1401 1.367 . S
C1401 C1400 1.367 . S
C1401 C1403 1.433 . S
C1402 C1398 1.350 . S
C1402 C1399 1.463 . S
C1402 N1406 1.427 . S
C1403 H1393 0.929 . S
C1403 C1401 1.433 . S
C1403 N1406 1.384 . S
C1404 H1395 0.929 . S
C1404 C1396 1.378 . S
C1404 C1399 1.350 . S
C1405 H1392 0.929 . S
C1405 C1397 1.433 . S
C1405 N1407 1.384 . S
N1406 C1402 1.427 . S
N1406 C1403 1.384 . S
N1407 C1399 1.427 . S
N1407 C1405 1.384 . S
H1408 C1414 0.930 . S
H1409 C1418 0.930 1_545 S
H1410 C1423 0.929 . S
H1411 C1421 0.929 . S
H1412 C1416 0.929 . S
H1413 C1422 0.929 . S
C1414 H1408 0.930 . S
C1414 C1415 1.367 . S
C1414 C1422 1.378 . S
C1415 C1414 1.367 . S
C1415 C1423 1.433 . S
C1416 H1412 0.929 . S
C1416 C1418 1.378 . S
C1416 C1420 1.350 . S
C1417 C1420 1.463 . S
C1417 C1422 1.350 . S
C1417 N1425 1.427 . S
C1418 H1409 0.930 1_565 S
C1418 C1416 1.378 . S
C1418 C1419 1.371 . S
C1419 C1418 1.371 . S
C1419 C1421 1.437 . S
C1420 C1416 1.350 . S
C1420 C1417 1.463 . S
C1420 N1424 1.427 . S
C1421 H1411 0.929 . S
C1421 C1419 1.437 . S
C1421 N1424 1.384 . S
C1422 H1413 0.929 . S
C1422 C1414 1.378 . S
C1422 C1417 1.350 . S
C1423 H1410 0.929 . S
C1423 C1415 1.433 . S
C1423 N1425 1.384 . S
N1424 C1420 1.427 . S
N1424 C1421 1.384 . S
N1425 C1417 1.427 . S
N1425 C1423 1.384 . S
H1426 C1432 0.930 . S
H1427 C1436 0.930 . S
H1428 C1441 0.929 . S
H1429 C1439 0.929 . S
H1430 C1434 0.929 . S
H1431 C1440 0.929 . S
C1432 H1426 0.930 . S
C1432 C1433 1.367 . S
C1432 C1440 1.378 . S
C1433 C1432 1.367 . S
C1433 C1441 1.433 . S
C1434 H1430 0.929 . S
C1434 C1436 1.378 . S
C1434 C1438 1.350 . S
C1435 C1438 1.463 . S
C1435 C1440 1.350 . S
C1435 N1443 1.427 . S
C1436 H1427 0.930 . S
C1436 C1434 1.378 . S
C1436 C1437 1.367 . S
C1437 C1436 1.367 . S
C1437 C1439 1.433 . S
C1438 C1434 1.350 . S
C1438 C1435 1.463 . S
C1438 N1442 1.427 . S
C1439 H1429 0.929 . S
C1439 C1437 1.433 . S
C1439 N1442 1.384 . S
C1440 H1431 0.929 . S
C1440 C1432 1.378 . S
C1440 C1435 1.350 . S
C1441 H1428 0.929 . S
C1441 C1433 1.433 . S
C1441 N1443 1.384 . S
N1442 C1438 1.427 . S
N1442 C1439 1.384 . S
N1443 C1435 1.427 . S
N1443 C1441 1.384 . S
H1444 C1450 0.930 . S
H1445 C1454 0.930 . S
H1446 C1459 0.929 . S
H1447 C1457 0.929 . S
H1448 C1452 0.929 . S
H1449 C1458 0.929 . S
C1450 H1444 0.930 . S
C1450 C1451 1.367 . S
C1450 C1458 1.378 . S
C1451 C1450 1.367 . S
C1451 C1459 1.433 . S
C1452 H1448 0.929 . S
C1452 C1454 1.378 . S
C1452 C1456 1.350 . S
C1453 C1456 1.463 . S
C1453 C1458 1.350 . S
C1453 N1461 1.427 . S
C1454 H1445 0.930 . S
C1454 C1452 1.378 . S
C1454 C1455 1.367 . S
C1455 C1454 1.367 . S
C1455 C1457 1.433 . S
C1456 C1452 1.350 . S
C1456 C1453 1.463 . S
C1456 N1460 1.427 . S
C1457 H1447 0.929 . S
C1457 C1455 1.433 . S
C1457 N1460 1.384 . S
C1458 H1449 0.929 . S
C1458 C1450 1.378 . S
C1458 C1453 1.350 . S
C1459 H1446 0.929 . S
C1459 C1451 1.433 . S
C1459 N1461 1.384 . S
N1460 C1456 1.427 . S
N1460 C1457 1.384 . S
N1461 C1453 1.427 . S
N1461 C1459 1.384 . S
H1462 C1468 0.930 . S
H1463 C1472 0.930 . S
H1464 C1477 0.929 . S
H1465 C1475 0.929 . S
H1466 C1470 0.929 . S
H1467 C1476 0.929 . S
C1468 H1462 0.930 . S
C1468 C1469 1.367 . S
C1468 C1476 1.378 . S
C1469 C1468 1.367 . S
C1469 C1477 1.433 . S
C1470 H1466 0.929 . S
C1470 C1472 1.378 . S
C1470 C1474 1.350 . S
C1471 C1474 1.463 . S
C1471 C1476 1.350 . S
C1471 N1479 1.427 . S
C1472 H1463 0.930 . S
C1472 C1470 1.378 . S
C1472 C1473 1.367 . S
C1473 C1472 1.367 . S
C1473 C1475 1.433 . S
C1474 C1470 1.350 . S
C1474 C1471 1.463 . S
C1474 N1478 1.427 . S
C1475 H1465 0.929 . S
C1475 C1473 1.433 . S
C1475 N1478 1.384 . S
C1476 H1467 0.929 . S
C1476 C1468 1.378 . S
C1476 C1471 1.350 . S
C1477 H1464 0.929 . S
C1477 C1469 1.433 . S
C1477 N1479 1.384 . S
N1478 C1474 1.427 . S
N1478 C1475 1.384 . S
N1479 C1471 1.427 . S
N1479 C1477 1.384 . S
H1480 C1486 0.908 1_655 S
H1481 C1490 0.930 . S
H1482 C1495 0.929 . S
H1483 C1493 0.929 . S
H1484 C1488 0.929 . S
H1485 C1494 0.929 1_655 S
C1486 H1480 0.908 1_455 S
C1486 C1487 1.381 . S
C1486 C1494 1.387 . S
C1487 C1486 1.381 . S
C1487 C1495 1.433 . S
C1488 H1484 0.929 . S
C1488 C1490 1.378 . S
C1488 C1492 1.350 . S
C1489 C1492 1.463 . S
C1489 C1494 1.350 . S
C1489 N1497 1.427 . S
C1490 H1481 0.930 . S
C1490 C1488 1.378 . S
C1490 C1491 1.367 . S
C1491 C1490 1.367 . S
C1491 C1493 1.433 . S
C1492 C1488 1.350 . S
C1492 C1489 1.463 . S
C1492 N1496 1.427 . S
C1493 H1483 0.929 . S
C1493 C1491 1.433 . S
C1493 N1496 1.384 . S
C1494 H1485 0.929 1_455 S
C1494 C1486 1.387 . S
C1494 C1489 1.350 . S
C1495 H1482 0.929 . S
C1495 C1487 1.433 . S
C1495 N1497 1.384 . S
N1496 C1492 1.427 . S
N1496 C1493 1.384 . S
N1497 C1489 1.427 . S
N1497 C1495 1.384 . S
H1498 C1504 0.930 . S
H1499 C1508 0.930 . S
H1500 C1513 0.929 . S
H1501 C1511 0.929 . S
H1502 C1506 0.929 . S
H1503 C1512 0.929 . S
C1504 H1498 0.930 . S
C1504 C1505 1.367 . S
C1504 C1512 1.378 . S
C1505 C1504 1.367 . S
C1505 C1513 1.433 . S
C1506 H1502 0.929 . S
C1506 C1508 1.378 . S
C1506 C1510 1.350 . S
C1507 C1510 1.463 . S
C1507 C1512 1.350 . S
C1507 N1515 1.427 . S
C1508 H1499 0.930 . S
C1508 C1506 1.378 . S
C1508 C1509 1.367 . S
C1509 C1508 1.367 . S
C1509 C1511 1.433 . S
C1510 C1506 1.350 . S
C1510 C1507 1.463 . S
C1510 N1514 1.427 . S
C1511 H1501 0.929 . S
C1511 C1509 1.433 . S
C1511 N1514 1.384 . S
C1512 H1503 0.929 . S
C1512 C1504 1.378 . S
C1512 C1507 1.350 . S
C1513 H1500 0.929 . S
C1513 C1505 1.433 . S
C1513 N1515 1.384 . S
N1514 C1510 1.427 . S
N1514 C1511 1.384 . S
N1515 C1507 1.427 . S
N1515 C1513 1.384 . S
H1516 C1522 0.930 . S
H1517 C1526 0.930 . S
H1518 C1531 0.929 . S
H1519 C1529 0.929 . S
H1520 C1524 0.929 . S
H1521 C1530 0.929 . S
C1522 H1516 0.930 . S
C1522 C1523 1.367 . S
C1522 C1530 1.378 . S
C1523 C1522 1.367 . S
C1523 C1531 1.433 . S
C1524 H1520 0.929 . S
C1524 C1526 1.378 . S
C1524 C1528 1.350 . S
C1525 C1528 1.463 . S
C1525 C1530 1.350 . S
C1525 N1533 1.427 . S
C1526 H1517 0.930 . S
C1526 C1524 1.378 . S
C1526 C1527 1.367 1_566 S
C1527 C1526 1.367 1_544 S
C1527 C1529 1.433 1_545 S
C1528 C1524 1.350 . S
C1528 C1525 1.463 . S
C1528 N1532 1.427 . S
C1529 H1519 0.929 . S
C1529 C1527 1.433 1_565 S
C1529 N1532 1.384 1_554 S
C1530 H1521 0.929 . S
C1530 C1522 1.378 . S
C1530 C1525 1.350 . S
C1531 H1518 0.929 . S
C1531 C1523 1.433 . S
C1531 N1533 1.384 . S
N1532 C1528 1.427 . S
N1532 C1529 1.384 1_556 S
N1533 C1525 1.427 . S
N1533 C1531 1.384 . S
H1534 C1540 0.930 . S
H1535 C1544 0.930 . S
H1536 C1549 0.929 . S
H1537 C1547 0.929 . S
H1538 C1542 0.929 . S
H1539 C1548 0.929 . S
C1540 H1534 0.930 . S
C1540 C1541 1.367 . S
C1540 C1548 1.378 . S
C1541 C1540 1.367 . S
C1541 C1549 1.433 . S
C1542 H1538 0.929 . S
C1542 C1544 1.378 . S
C1542 C1546 1.350 . S
C1543 C1546 1.463 1_455 S
C1543 C1548 1.350 . S
C1543 N1551 1.427 1_455 S
C1544 H1535 0.930 . S
C1544 C1542 1.378 . S
C1544 C1545 1.367 . S
C1545 C1544 1.367 . S
C1545 C1547 1.433 . S
C1546 C1542 1.350 . S
C1546 C1543 1.463 1_655 S
C1546 N1550 1.427 . S
C1547 H1537 0.929 . S
C1547 C1545 1.433 . S
C1547 N1550 1.384 . S
C1548 H1539 0.929 . S
C1548 C1540 1.378 . S
C1548 C1543 1.350 . S
C1549 H1536 0.929 . S
C1549 C1541 1.433 . S
C1549 N1551 1.384 1_455 S
N1550 C1546 1.427 . S
N1550 C1547 1.384 . S
N1551 C1543 1.427 1_655 S
N1551 C1549 1.384 1_655 S
H1552 C1558 0.930 . S
H1553 C1562 0.930 . S
H1554 C1567 0.929 . S
H1555 C1565 0.929 . S
H1556 C1560 0.929 . S
H1557 C1566 0.929 . S
C1558 H1552 0.930 . S
C1558 C1559 1.367 . S
C1558 C1566 1.378 . S
C1559 C1558 1.367 . S
C1559 C1567 1.433 . S
C1560 H1556 0.929 . S
C1560 C1562 1.378 . S
C1560 C1564 1.350 . S
C1561 C1564 1.463 . S
C1561 C1566 1.350 . S
C1561 N1569 1.427 . S
C1562 H1553 0.930 . S
C1562 C1560 1.378 . S
C1562 C1563 1.367 . S
C1563 C1562 1.367 . S
C1563 C1565 1.433 . S
C1564 C1560 1.350 . S
C1564 C1561 1.463 . S
C1564 N1568 1.427 . S
C1565 H1555 0.929 . S
C1565 C1563 1.433 . S
C1565 N1568 1.384 . S
C1566 H1557 0.929 . S
C1566 C1558 1.378 . S
C1566 C1561 1.350 . S
C1567 H1554 0.929 . S
C1567 C1559 1.433 . S
C1567 N1569 1.384 . S
N1568 C1564 1.427 . S
N1568 C1565 1.384 . S
N1569 C1561 1.427 . S
N1569 C1567 1.384 . S
H1570 C1576 0.930 . S
H1571 C1580 0.930 . S
H1572 C1585 0.929 . S
H1573 C1583 0.929 . S
H1574 C1578 0.929 . S
H1575 C1584 0.929 . S
C1576 H1570 0.930 . S
C1576 C1577 1.367 . S
C1576 C1584 1.378 . S
C1577 C1576 1.367 . S
C1577 C1585 1.433 . S
C1578 H1574 0.929 . S
C1578 C1580 1.378 . S
C1578 C1582 1.350 . S
C1579 C1582 1.463 . S
C1579 C1584 1.350 . S
C1579 N1587 1.427 . S
C1580 H1571 0.930 . S
C1580 C1578 1.378 . S
C1580 C1581 1.367 . S
C1581 C1580 1.367 . S
C1581 C1583 1.433 . S
C1582 C1578 1.350 . S
C1582 C1579 1.463 . S
C1582 N1586 1.427 . S
C1583 H1573 0.929 . S
C1583 C1581 1.433 . S
C1583 N1586 1.384 . S
C1584 H1575 0.929 . S
C1584 C1576 1.378 . S
C1584 C1579 1.350 . S
C1585 H1572 0.929 . S
C1585 C1577 1.433 . S
C1585 N1587 1.384 . S
N1586 C1582 1.427 . S
N1586 C1583 1.384 . S
N1587 C1579 1.427 . S
N1587 C1585 1.384 . S
H1588 C1594 0.930 . S
H1589 C1598 0.930 . S
H1590 C1603 0.929 . S
H1591 C1601 0.929 . S
H1592 C1596 0.929 . S
H1593 C1602 0.929 . S
C1594 H1588 0.930 . S
C1594 C1595 1.367 . S
C1594 C1602 1.378 . S
C1595 C1594 1.367 . S
C1595 C1603 1.433 . S
C1596 H1592 0.929 . S
C1596 C1598 1.378 . S
C1596 C1600 1.350 . S
C1597 C1600 1.463 . S
C1597 C1602 1.350 . S
C1597 N1605 1.427 . S
C1598 H1589 0.930 . S
C1598 C1596 1.378 . S
C1598 C1599 1.367 . S
C1599 C1598 1.367 . S
C1599 C1601 1.433 . S
C1600 C1596 1.350 . S
C1600 C1597 1.463 . S
C1600 N1604 1.427 . S
C1601 H1591 0.929 . S
C1601 C1599 1.433 . S
C1601 N1604 1.384 . S
C1602 H1593 0.929 . S
C1602 C1594 1.378 . S
C1602 C1597 1.350 . S
C1603 H1590 0.929 . S
C1603 C1595 1.433 . S
C1603 N1605 1.384 . S
N1604 C1600 1.427 . S
N1604 C1601 1.384 . S
N1605 C1597 1.427 . S
N1605 C1603 1.384 . S
H1606 C1612 0.930 . S
H1607 C1616 0.930 . S
H1608 C1621 0.929 . S
H1609 C1619 0.929 . S
H1610 C1614 0.929 . S
H1611 C1620 0.929 . S
C1612 H1606 0.930 . S
C1612 C1613 1.367 . S
C1612 C1620 1.378 . S
C1613 C1612 1.367 . S
C1613 C1621 1.433 . S
C1614 H1610 0.929 . S
C1614 C1616 1.378 . S
C1614 C1618 1.350 . S
C1615 C1618 1.463 . S
C1615 C1620 1.350 . S
C1615 N1623 1.427 . S
C1616 H1607 0.930 . S
C1616 C1614 1.378 . S
C1616 C1617 1.367 . S
C1617 C1616 1.367 . S
C1617 C1619 1.433 . S
C1618 C1614 1.350 . S
C1618 C1615 1.463 . S
C1618 N1622 1.427 . S
C1619 H1609 0.929 . S
C1619 C1617 1.433 . S
C1619 N1622 1.384 . S
C1620 H1611 0.929 . S
C1620 C1612 1.378 . S
C1620 C1615 1.350 . S
C1621 H1608 0.929 . S
C1621 C1613 1.433 . S
C1621 N1623 1.384 . S
N1622 C1618 1.427 . S
N1622 C1619 1.384 . S
N1623 C1615 1.427 . S
N1623 C1621 1.384 . S
H1624 C1630 0.930 . S
H1625 C1634 0.930 . S
H1626 C1639 0.929 . S
H1627 C1637 0.929 . S
H1628 C1632 0.929 . S
H1629 C1638 0.929 . S
C1630 H1624 0.930 . S
C1630 C1631 1.367 . S
C1630 C1638 1.378 . S
C1631 C1630 1.367 . S
C1631 C1639 1.433 . S
C1632 H1628 0.929 . S
C1632 C1634 1.378 . S
C1632 C1636 1.350 . S
C1633 C1636 1.463 . S
C1633 C1638 1.350 . S
C1633 N1641 1.427 . S
C1634 H1625 0.930 . S
C1634 C1632 1.378 . S
C1634 C1635 1.367 . S
C1635 C1634 1.367 . S
C1635 C1637 1.433 . S
C1636 C1632 1.350 . S
C1636 C1633 1.463 . S
C1636 N1640 1.427 . S
C1637 H1627 0.929 . S
C1637 C1635 1.433 . S
C1637 N1640 1.384 . S
C1638 H1629 0.929 . S
C1638 C1630 1.378 . S
C1638 C1633 1.350 . S
C1639 H1626 0.929 . S
C1639 C1631 1.433 . S
C1639 N1641 1.384 . S
N1640 C1636 1.427 . S
N1640 C1637 1.384 . S
N1641 C1633 1.427 . S
N1641 C1639 1.384 . S
H1642 C1648 0.930 . S
H1643 C1652 0.930 . S
H1644 C1657 0.929 . S
H1645 C1655 0.929 . S
H1646 C1650 0.929 . S
H1647 C1656 0.929 . S
C1648 H1642 0.930 . S
C1648 C1649 1.367 . S
C1648 C1656 1.378 . S
C1649 C1648 1.367 . S
C1649 C1657 1.433 . S
C1650 H1646 0.929 . S
C1650 C1652 1.378 . S
C1650 C1654 1.350 . S
C1651 C1654 1.463 . S
C1651 C1656 1.350 . S
C1651 N1659 1.427 . S
C1652 H1643 0.930 . S
C1652 C1650 1.378 . S
C1652 C1653 1.367 . S
C1653 C1652 1.367 . S
C1653 C1655 1.433 . S
C1654 C1650 1.350 . S
C1654 C1651 1.463 . S
C1654 N1658 1.427 . S
C1655 H1645 0.929 . S
C1655 C1653 1.433 . S
C1655 N1658 1.384 . S
C1656 H1647 0.929 . S
C1656 C1648 1.378 . S
C1656 C1651 1.350 . S
C1657 H1644 0.929 . S
C1657 C1649 1.433 . S
C1657 N1659 1.384 . S
N1658 C1654 1.427 . S
N1658 C1655 1.384 . S
N1659 C1651 1.427 . S
N1659 C1657 1.384 . S
H1660 C1666 0.930 . S
H1661 C1670 0.930 . S
H1662 C1675 0.929 . S
H1663 C1673 0.929 . S
H1664 C1668 0.929 . S
H1665 C1674 0.929 . S
C1666 H1660 0.930 . S
C1666 C1667 1.367 . S
C1666 C1674 1.378 . S
C1667 C1666 1.367 . S
C1667 C1675 1.433 . S
C1668 H1664 0.929 . S
C1668 C1670 1.378 . S
C1668 C1672 1.350 . S
C1669 C1672 1.463 . S
C1669 C1674 1.350 . S
C1669 N1677 1.427 . S
C1670 H1661 0.930 . S
C1670 C1668 1.378 . S
C1670 C1671 1.367 . S
C1671 C1670 1.367 . S
C1671 C1673 1.433 . S
C1672 C1668 1.350 . S
C1672 C1669 1.463 . S
C1672 N1676 1.427 . S
C1673 H1663 0.929 . S
C1673 C1671 1.433 . S
C1673 N1676 1.384 . S
C1674 H1665 0.929 . S
C1674 C1666 1.378 . S
C1674 C1669 1.350 . S
C1675 H1662 0.929 . S
C1675 C1667 1.433 . S
C1675 N1677 1.384 . S
N1676 C1672 1.427 . S
N1676 C1673 1.384 . S
N1677 C1669 1.427 . S
N1677 C1675 1.384 . S
H1678 C1684 0.930 . S
H1679 C1688 0.930 . S
H1680 C1693 0.929 . S
H1681 C1691 0.929 . S
H1682 C1686 0.929 . S
H1683 C1692 0.929 . S
C1684 H1678 0.930 . S
C1684 C1685 1.367 . S
C1684 C1692 1.378 . S
C1685 C1684 1.367 . S
C1685 C1693 1.433 . S
C1686 H1682 0.929 . S
C1686 C1688 1.378 . S
C1686 C1690 1.350 . S
C1687 C1690 1.463 . S
C1687 C1692 1.350 . S
C1687 N1695 1.427 . S
C1688 H1679 0.930 . S
C1688 C1686 1.378 . S
C1688 C1689 1.367 . S
C1689 C1688 1.367 . S
C1689 C1691 1.433 . S
C1690 C1686 1.350 . S
C1690 C1687 1.463 . S
C1690 N1694 1.427 . S
C1691 H1681 0.929 . S
C1691 C1689 1.433 . S
C1691 N1694 1.384 . S
C1692 H1683 0.929 . S
C1692 C1684 1.378 . S
C1692 C1687 1.350 . S
C1693 H1680 0.929 . S
C1693 C1685 1.433 . S
C1693 N1695 1.384 . S
N1694 C1690 1.427 . S
N1694 C1691 1.384 . S
N1695 C1687 1.427 . S
N1695 C1693 1.384 . S
H1696 C1702 0.930 . S
H1697 C1706 0.930 . S
H1698 C1711 0.929 . S
H1699 C1709 0.929 . S
H1700 C1704 0.929 1_554 S
H1701 C1710 0.929 . S
C1702 H1696 0.930 . S
C1702 C1703 1.367 . S
C1702 C1710 1.378 . S
C1703 C1702 1.367 . S
C1703 C1711 1.433 1_556 S
C1704 H1700 0.929 1_556 S
C1704 C1706 1.378 . S
C1704 C1708 1.350 . S
C1705 C1708 1.463 . S
C1705 C1710 1.350 . S
C1705 N1713 1.427 1_556 S
C1706 H1697 0.930 . S
C1706 C1704 1.378 . S
C1706 C1707 1.367 . S
C1707 C1706 1.367 . S
C1707 C1709 1.433 . S
C1708 C1704 1.350 . S
C1708 C1705 1.463 . S
C1708 N1712 1.427 . S
C1709 H1699 0.929 . S
C1709 C1707 1.433 . S
C1709 N1712 1.384 . S
C1710 H1701 0.929 . S
C1710 C1702 1.378 . S
C1710 C1705 1.350 . S
C1711 H1698 0.929 . S
C1711 C1703 1.433 1_554 S
C1711 N1713 1.384 . S
N1712 C1708 1.427 . S
N1712 C1709 1.384 . S
N1713 C1705 1.427 1_554 S
N1713 C1711 1.384 . S
H1714 C1720 0.941 . S
H1715 C1724 0.930 . S
H1716 C1729 0.929 . S
H1717 C1727 0.929 1_556 S
H1718 C1722 0.929 . S
H1719 C1728 0.929 1_556 S
C1720 H1714 0.941 . S
C1720 C1721 1.367 . S
C1720 C1728 1.378 . S
C1721 C1720 1.367 . S
C1721 C1729 1.433 . S
C1722 H1718 0.929 . S
C1722 C1724 1.378 . S
C1722 C1726 1.350 . S
C1723 C1726 1.463 . S
C1723 C1728 1.350 . S
C1723 N1731 1.427 . S
C1724 H1715 0.930 . S
C1724 C1722 1.378 . S
C1724 C1725 1.367 . S
C1725 C1724 1.367 . S
C1725 C1727 1.433 . S
C1726 C1722 1.350 . S
C1726 C1723 1.463 . S
C1726 N1730 1.427 . S
C1727 H1717 0.929 1_554 S
C1727 C1725 1.433 . S
C1727 N1730 1.384 . S
C1728 H1719 0.929 1_554 S
C1728 C1720 1.378 . S
C1728 C1723 1.350 . S
C1729 H1716 0.929 . S
C1729 C1721 1.433 . S
C1729 N1731 1.384 . S
N1730 C1726 1.427 . S
N1730 C1727 1.384 . S
N1731 C1723 1.427 . S
N1731 C1729 1.384 . S
H1732 C1738 0.930 . S
H1733 C1742 0.930 . S
H1734 C1747 0.929 . S
H1735 C1745 0.929 . S
H1736 C1740 0.929 . S
H1737 C1746 0.929 . S
C1738 H1732 0.930 . S
C1738 C1739 1.367 . S
C1738 C1746 1.378 . S
C1739 C1738 1.367 . S
C1739 C1747 1.433 . S
C1740 H1736 0.929 . S
C1740 C1742 1.378 . S
C1740 C1744 1.350 . S
C1741 C1744 1.463 . S
C1741 C1746 1.350 . S
C1741 N1749 1.427 . S
C1742 H1733 0.930 . S
C1742 C1740 1.378 . S
C1742 C1743 1.367 . S
C1743 C1742 1.367 . S
C1743 C1745 1.433 . S
C1744 C1740 1.350 . S
C1744 C1741 1.463 . S
C1744 N1748 1.427 . S
C1745 H1735 0.929 . S
C1745 C1743 1.433 . S
C1745 N1748 1.384 . S
C1746 H1737 0.929 . S
C1746 C1738 1.378 . S
C1746 C1741 1.350 . S
C1747 H1734 0.929 . S
C1747 C1739 1.433 . S
C1747 N1749 1.384 . S
N1748 C1744 1.427 . S
N1748 C1745 1.384 . S
N1749 C1741 1.427 . S
N1749 C1747 1.384 . S
H1750 C1756 0.930 . S
H1751 C1760 0.930 . S
H1752 C1765 0.929 . S
H1753 C1763 0.929 . S
H1754 C1758 0.929 . S
H1755 C1764 0.929 . S
C1756 H1750 0.930 . S
C1756 C1757 1.367 . S
C1756 C1764 1.378 . S
C1757 C1756 1.367 . S
C1757 C1765 1.433 . S
C1758 H1754 0.929 . S
C1758 C1760 1.378 . S
C1758 C1762 1.350 . S
C1759 C1762 1.463 . S
C1759 C1764 1.350 . S
C1759 N1767 1.427 . S
C1760 H1751 0.930 . S
C1760 C1758 1.378 . S
C1760 C1761 1.367 . S
C1761 C1760 1.367 . S
C1761 C1763 1.433 . S
C1762 C1758 1.350 . S
C1762 C1759 1.463 . S
C1762 N1766 1.427 . S
C1763 H1753 0.929 . S
C1763 C1761 1.433 . S
C1763 N1766 1.384 . S
C1764 H1755 0.929 . S
C1764 C1756 1.378 . S
C1764 C1759 1.350 . S
C1765 H1752 0.929 . S
C1765 C1757 1.433 . S
C1765 N1767 1.384 . S
N1766 C1762 1.427 . S
N1766 C1763 1.384 . S
N1767 C1759 1.427 . S
N1767 C1765 1.384 . S
H1768 C1774 0.930 . S
H1769 C1778 0.930 . S
H1770 C1783 0.929 . S
H1771 C1781 0.929 . S
H1772 C1776 0.929 . S
H1773 C1782 0.929 . S
C1774 H1768 0.930 . S
C1774 C1775 1.367 . S
C1774 C1782 1.378 . S
C1775 C1774 1.367 . S
C1775 C1783 1.433 . S
C1776 H1772 0.929 . S
C1776 C1778 1.378 . S
C1776 C1780 1.350 . S
C1777 C1780 1.463 . S
C1777 C1782 1.350 . S
C1777 N1785 1.427 . S
C1778 H1769 0.930 . S
C1778 C1776 1.378 . S
C1778 C1779 1.367 . S
C1779 C1778 1.367 . S
C1779 C1781 1.433 . S
C1780 C1776 1.350 . S
C1780 C1777 1.463 . S
C1780 N1784 1.427 . S
C1781 H1771 0.929 . S
C1781 C1779 1.433 . S
C1781 N1784 1.384 . S
C1782 H1773 0.929 . S
C1782 C1774 1.378 . S
C1782 C1777 1.350 . S
C1783 H1770 0.929 . S
C1783 C1775 1.433 . S
C1783 N1785 1.384 . S
N1784 C1780 1.427 . S
N1784 C1781 1.384 . S
N1785 C1777 1.427 . S
N1785 C1783 1.384 . S
H1786 C1792 0.930 . S
H1787 C1796 0.930 . S
H1788 C1801 0.929 . S
H1789 C1799 0.925 . S
H1790 C1794 0.929 . S
H1791 C1800 0.929 . S
C1792 H1786 0.930 . S
C1792 C1793 1.367 . S
C1792 C1800 1.378 . S
C1793 C1792 1.367 . S
C1793 C1801 1.433 . S
C1794 H1790 0.929 . S
C1794 C1796 1.378 . S
C1794 C1798 1.350 1_545 S
C1795 C1798 1.463 . S
C1795 C1800 1.350 . S
C1795 N1803 1.427 . S
C1796 H1787 0.930 . S
C1796 C1794 1.378 . S
C1796 C1797 1.367 . S
C1797 C1796 1.367 . S
C1797 C1799 1.433 . S
C1798 C1794 1.350 1_565 S
C1798 C1795 1.463 . S
C1798 N1802 1.427 . S
C1799 H1789 0.925 . S
C1799 C1797 1.433 . S
C1799 N1802 1.384 1_545 S
C1800 H1791 0.929 . S
C1800 C1792 1.378 . S
C1800 C1795 1.350 . S
C1801 H1788 0.929 . S
C1801 C1793 1.433 . S
C1801 N1803 1.384 . S
N1802 C1798 1.427 . S
N1802 C1799 1.384 1_565 S
N1803 C1795 1.427 . S
N1803 C1801 1.384 . S
H1804 C1810 0.930 . S
H1805 C1814 0.930 . S
H1806 C1819 0.929 . S
H1807 C1817 0.929 . S
H1808 C1812 0.929 . S
H1809 C1818 0.929 . S
C1810 H1804 0.930 . S
C1810 C1811 1.367 . S
C1810 C1818 1.378 . S
C1811 C1810 1.367 . S
C1811 C1819 1.433 . S
C1812 H1808 0.929 . S
C1812 C1814 1.378 . S
C1812 C1816 1.350 . S
C1813 C1816 1.463 . S
C1813 C1818 1.350 . S
C1813 N1821 1.427 . S
C1814 H1805 0.930 . S
C1814 C1812 1.378 . S
C1814 C1815 1.367 . S
C1815 C1814 1.367 . S
C1815 C1817 1.433 . S
C1816 C1812 1.350 . S
C1816 C1813 1.463 . S
C1816 N1820 1.427 . S
C1817 H1807 0.929 . S
C1817 C1815 1.433 . S
C1817 N1820 1.384 . S
C1818 H1809 0.929 . S
C1818 C1810 1.378 . S
C1818 C1813 1.350 . S
C1819 H1806 0.929 . S
C1819 C1811 1.433 . S
C1819 N1821 1.384 . S
N1820 C1816 1.427 . S
N1820 C1817 1.384 . S
N1821 C1813 1.427 . S
N1821 C1819 1.384 . S
H1822 C1828 0.930 . S
H1823 C1832 0.930 . S
H1824 C1837 0.929 . S
H1825 C1835 0.929 . S
H1826 C1830 0.929 . S
H1827 C1836 0.929 . S
C1828 H1822 0.930 . S
C1828 C1829 1.367 . S
C1828 C1836 1.378 . S
C1829 C1828 1.367 . S
C1829 C1837 1.433 . S
C1830 H1826 0.929 . S
C1830 C1832 1.378 . S
C1830 C1834 1.350 . S
C1831 C1834 1.463 . S
C1831 C1836 1.350 . S
C1831 N1839 1.427 . S
C1832 H1823 0.930 . S
C1832 C1830 1.378 . S
C1832 C1833 1.367 . S
C1833 C1832 1.367 . S
C1833 C1835 1.433 . S
C1834 C1830 1.350 . S
C1834 C1831 1.463 . S
C1834 N1838 1.427 . S
C1835 H1825 0.929 . S
C1835 C1833 1.433 . S
C1835 N1838 1.384 . S
C1836 H1827 0.929 . S
C1836 C1828 1.378 . S
C1836 C1831 1.350 . S
C1837 H1824 0.929 . S
C1837 C1829 1.433 . S
C1837 N1839 1.384 . S
N1838 C1834 1.427 . S
N1838 C1835 1.384 . S
N1839 C1831 1.427 . S
N1839 C1837 1.384 . S
H1840 C1846 0.930 . S
H1841 C1850 0.930 . S
H1842 C1855 0.929 . S
H1843 C1853 0.929 . S
H1844 C1848 0.929 . S
H1845 C1854 0.929 . S
C1846 H1840 0.930 . S
C1846 C1847 1.367 . S
C1846 C1854 1.378 . S
C1847 C1846 1.367 . S
C1847 C1855 1.433 . S
C1848 H1844 0.929 . S
C1848 C1850 1.378 . S
C1848 C1852 1.350 . S
C1849 C1852 1.463 . S
C1849 C1854 1.350 . S
C1849 N1857 1.427 . S
C1850 H1841 0.930 . S
C1850 C1848 1.378 . S
C1850 C1851 1.367 . S
C1851 C1850 1.367 . S
C1851 C1853 1.433 . S
C1852 C1848 1.350 . S
C1852 C1849 1.463 . S
C1852 N1856 1.427 . S
C1853 H1843 0.929 . S
C1853 C1851 1.433 . S
C1853 N1856 1.384 . S
C1854 H1845 0.929 . S
C1854 C1846 1.378 . S
C1854 C1849 1.350 . S
C1855 H1842 0.929 . S
C1855 C1847 1.433 . S
C1855 N1857 1.384 . S
N1856 C1852 1.427 . S
N1856 C1853 1.384 . S
N1857 C1849 1.427 . S
N1857 C1855 1.384 . S
H1858 C1864 0.930 . S
H1859 C1868 0.930 . S
H1860 C1873 0.929 . S
H1861 C1871 0.929 . S
H1862 C1866 0.929 . S
H1863 C1872 0.929 . S
C1864 H1858 0.930 . S
C1864 C1865 1.367 . S
C1864 C1872 1.378 . S
C1865 C1864 1.367 . S
C1865 C1873 1.433 . S
C1866 H1862 0.929 . S
C1866 C1868 1.378 . S
C1866 C1870 1.350 . S
C1867 C1870 1.463 . S
C1867 C1872 1.350 . S
C1867 N1875 1.427 . S
C1868 H1859 0.930 . S
C1868 C1866 1.378 . S
C1868 C1869 1.367 . S
C1869 C1868 1.367 . S
C1869 C1871 1.433 . S
C1870 C1866 1.350 . S
C1870 C1867 1.463 . S
C1870 N1874 1.427 . S
C1871 H1861 0.929 . S
C1871 C1869 1.433 . S
C1871 N1874 1.384 . S
C1872 H1863 0.929 . S
C1872 C1864 1.378 . S
C1872 C1867 1.350 . S
C1873 H1860 0.929 . S
C1873 C1865 1.433 . S
C1873 N1875 1.384 . S
N1874 C1870 1.427 . S
N1874 C1871 1.384 . S
N1875 C1867 1.427 . S
N1875 C1873 1.384 . S
H1876 C1882 0.930 . S
H1877 C1886 0.930 . S
H1878 C1891 0.929 . S
H1879 C1889 0.929 . S
H1880 C1884 0.929 . S
H1881 C1890 0.929 . S
C1882 H1876 0.930 . S
C1882 C1883 1.367 . S
C1882 C1890 1.378 . S
C1883 C1882 1.367 . S
C1883 C1891 1.433 . S
C1884 H1880 0.929 . S
C1884 C1886 1.378 . S
C1884 C1888 1.350 . S
C1885 C1888 1.463 . S
C1885 C1890 1.350 . S
C1885 N1893 1.427 . S
C1886 H1877 0.930 . S
C1886 C1884 1.378 . S
C1886 C1887 1.367 . S
C1887 C1886 1.367 . S
C1887 C1889 1.433 1_556 S
C1888 C1884 1.350 . S
C1888 C1885 1.463 . S
C1888 N1892 1.457 . S
C1889 H1879 0.929 . S
C1889 C1887 1.433 1_554 S
C1889 N1892 1.375 1_554 S
C1890 H1881 0.929 . S
C1890 C1882 1.378 . S
C1890 C1885 1.350 . S
C1891 H1878 0.929 . S
C1891 C1883 1.433 . S
C1891 N1893 1.384 . S
N1892 C1888 1.457 . S
N1892 C1889 1.375 1_556 S
N1893 C1885 1.427 . S
N1893 C1891 1.384 . S
H1894 C1900 0.930 . S
H1895 C1904 0.930 . S
H1896 C1909 0.929 . S
H1897 C1907 0.929 . S
H1898 C1902 0.929 . S
H1899 C1908 0.929 . S
C1900 H1894 0.930 . S
C1900 C1901 1.367 . S
C1900 C1908 1.378 1_455 S
C1901 C1900 1.367 . S
C1901 C1909 1.433 . S
C1902 H1898 0.929 . S
C1902 C1904 1.378 . S
C1902 C1906 1.350 . S
C1903 C1906 1.463 . S
C1903 C1908 1.350 . S
C1903 N1911 1.427 1_655 S
C1904 H1895 0.930 . S
C1904 C1902 1.378 . S
C1904 C1905 1.367 . S
C1905 C1904 1.367 . S
C1905 C1907 1.433 . S
C1906 C1902 1.350 . S
C1906 C1903 1.463 . S
C1906 N1910 1.427 . S
C1907 H1897 0.929 . S
C1907 C1905 1.433 . S
C1907 N1910 1.384 . S
C1908 H1899 0.929 . S
C1908 C1900 1.378 1_655 S
C1908 C1903 1.350 . S
C1909 H1896 0.929 . S
C1909 C1901 1.433 . S
C1909 N1911 1.384 . S
N1910 C1906 1.427 . S
N1910 C1907 1.384 . S
N1911 C1903 1.427 1_455 S
N1911 C1909 1.384 . S
H1912 C1918 0.930 . S
H1913 C1922 0.930 . S
H1914 C1927 0.929 . S
H1915 C1925 0.929 . S
H1916 C1920 0.929 . S
H1917 C1926 0.929 . S
C1918 H1912 0.930 . S
C1918 C1919 1.367 . S
C1918 C1926 1.378 . S
C1919 C1918 1.367 . S
C1919 C1927 1.433 . S
C1920 H1916 0.929 . S
C1920 C1922 1.378 . S
C1920 C1924 1.350 . S
C1921 C1924 1.463 . S
C1921 C1926 1.350 . S
C1921 N1929 1.427 . S
C1922 H1913 0.930 . S
C1922 C1920 1.378 . S
C1922 C1923 1.367 . S
C1923 C1922 1.367 . S
C1923 C1925 1.433 . S
C1924 C1920 1.350 . S
C1924 C1921 1.463 . S
C1924 N1928 1.427 . S
C1925 H1915 0.929 . S
C1925 C1923 1.433 . S
C1925 N1928 1.384 . S
C1926 H1917 0.929 . S
C1926 C1918 1.378 . S
C1926 C1921 1.350 . S
C1927 H1914 0.929 . S
C1927 C1919 1.433 . S
C1927 N1929 1.384 . S
N1928 C1924 1.427 . S
N1928 C1925 1.384 . S
N1929 C1921 1.427 . S
N1929 C1927 1.384 . S
H1930 C1936 0.930 . S
H1931 C1940 0.930 . S
H1932 C1945 0.929 . S
H1933 C1943 0.929 . S
H1934 C1938 0.929 . S
H1935 C1944 0.929 . S
C1936 H1930 0.930 . S
C1936 C1937 1.367 . S
C1936 C1944 1.378 . S
C1937 C1936 1.367 . S
C1937 C1945 1.433 . S
C1938 H1934 0.929 . S
C1938 C1940 1.378 . S
C1938 C1942 1.350 . S
C1939 C1942 1.463 . S
C1939 C1944 1.350 . S
C1939 N1947 1.427 . S
C1940 H1931 0.930 . S
C1940 C1938 1.378 . S
C1940 C1941 1.367 . S
C1941 C1940 1.367 . S
C1941 C1943 1.433 . S
C1942 C1938 1.350 . S
C1942 C1939 1.463 . S
C1942 N1946 1.427 . S
C1943 H1933 0.929 . S
C1943 C1941 1.433 . S
C1943 N1946 1.384 . S
C1944 H1935 0.929 . S
C1944 C1936 1.378 . S
C1944 C1939 1.350 . S
C1945 H1932 0.929 . S
C1945 C1937 1.433 . S
C1945 N1947 1.384 . S
N1946 C1942 1.427 . S
N1946 C1943 1.384 . S
N1947 C1939 1.427 . S
N1947 C1945 1.384 . S
H1948 C1954 0.930 . S
H1949 C1958 0.930 . S
H1950 C1963 0.929 . S
H1951 C1961 0.929 . S
H1952 C1956 0.929 . S
H1953 C1962 0.929 . S
C1954 H1948 0.930 . S
C1954 C1955 1.367 . S
C1954 C1962 1.378 . S
C1955 C1954 1.367 . S
C1955 C1963 1.433 . S
C1956 H1952 0.929 . S
C1956 C1958 1.378 . S
C1956 C1960 1.350 . S
C1957 C1960 1.463 . S
C1957 C1962 1.350 . S
C1957 N1965 1.427 . S
C1958 H1949 0.930 . S
C1958 C1956 1.378 . S
C1958 C1959 1.367 . S
C1959 C1958 1.367 . S
C1959 C1961 1.433 . S
C1960 C1956 1.350 . S
C1960 C1957 1.463 . S
C1960 N1964 1.427 . S
C1961 H1951 0.929 . S
C1961 C1959 1.433 . S
C1961 N1964 1.384 . S
C1962 H1953 0.929 . S
C1962 C1954 1.378 . S
C1962 C1957 1.350 . S
C1963 H1950 0.929 . S
C1963 C1955 1.433 . S
C1963 N1965 1.384 . S
N1964 C1960 1.427 . S
N1964 C1961 1.384 . S
N1965 C1957 1.427 . S
N1965 C1963 1.384 . S
H1966 C1972 0.930 . S
H1967 C1976 0.930 . S
H1968 C1981 0.929 . S
H1969 C1979 0.929 . S
H1970 C1974 0.929 . S
H1971 C1980 0.929 . S
C1972 H1966 0.930 . S
C1972 C1973 1.367 . S
C1972 C1980 1.378 . S
C1973 C1972 1.367 . S
C1973 C1981 1.433 . S
C1974 H1970 0.929 . S
C1974 C1976 1.378 . S
C1974 C1978 1.350 . S
C1975 C1978 1.463 . S
C1975 C1980 1.350 . S
C1975 N1983 1.427 . S
C1976 H1967 0.930 . S
C1976 C1974 1.378 . S
C1976 C1977 1.367 . S
C1977 C1976 1.367 . S
C1977 C1979 1.433 . S
C1978 C1974 1.350 . S
C1978 C1975 1.463 . S
C1978 N1982 1.427 . S
C1979 H1969 0.929 . S
C1979 C1977 1.433 . S
C1979 N1982 1.384 . S
C1980 H1971 0.929 . S
C1980 C1972 1.378 . S
C1980 C1975 1.350 . S
C1981 H1968 0.929 . S
C1981 C1973 1.433 . S
C1981 N1983 1.384 . S
N1982 C1978 1.427 . S
N1982 C1979 1.384 . S
N1983 C1975 1.427 . S
N1983 C1981 1.384 . S
H1984 C1990 0.930 . S
H1985 C1994 0.930 . S
H1986 C1999 0.929 . S
H1987 C1997 0.929 . S
H1988 C1992 0.929 . S
H1989 C1998 0.929 . S
C1990 H1984 0.930 . S
C1990 C1991 1.367 . S
C1990 C1998 1.378 . S
C1991 C1990 1.367 . S
C1991 C1999 1.433 . S
C1992 H1988 0.929 . S
C1992 C1994 1.378 . S
C1992 C1996 1.350 . S
C1993 C1996 1.463 . S
C1993 C1998 1.350 . S
C1993 N2001 1.427 . S
C1994 H1985 0.930 . S
C1994 C1992 1.378 . S
C1994 C1995 1.367 . S
C1995 C1994 1.367 . S
C1995 C1997 1.433 . S
C1996 C1992 1.350 . S
C1996 C1993 1.463 . S
C1996 N2000 1.427 . S
C1997 H1987 0.929 . S
C1997 C1995 1.433 . S
C1997 N2000 1.384 . S
C1998 H1989 0.929 . S
C1998 C1990 1.378 . S
C1998 C1993 1.350 . S
C1999 H1986 0.929 . S
C1999 C1991 1.433 . S
C1999 N2001 1.384 . S
N2000 C1996 1.427 . S
N2000 C1997 1.384 . S
N2001 C1993 1.427 . S
N2001 C1999 1.384 . S
H2002 C2008 0.930 . S
H2003 C2012 0.930 . S
H2004 C2017 0.929 . S
H2005 C2015 0.929 . S
H2006 C2010 0.929 . S
H2007 C2016 0.929 . S
C2008 H2002 0.930 . S
C2008 C2009 1.367 . S
C2008 C2016 1.378 . S
C2009 C2008 1.367 . S
C2009 C2017 1.433 . S
C2010 H2006 0.929 . S
C2010 C2012 1.378 . S
C2010 C2014 1.350 . S
C2011 C2014 1.463 . S
C2011 C2016 1.350 . S
C2011 N2019 1.427 . S
C2012 H2003 0.930 . S
C2012 C2010 1.378 . S
C2012 C2013 1.367 . S
C2013 C2012 1.367 . S
C2013 C2015 1.433 . S
C2014 C2010 1.350 . S
C2014 C2011 1.463 . S
C2014 N2018 1.427 . S
C2015 H2005 0.929 . S
C2015 C2013 1.433 . S
C2015 N2018 1.384 . S
C2016 H2007 0.929 . S
C2016 C2008 1.378 . S
C2016 C2011 1.350 . S
C2017 H2004 0.929 . S
C2017 C2009 1.433 . S
C2017 N2019 1.384 . S
N2018 C2014 1.427 . S
N2018 C2015 1.384 . S
N2019 C2011 1.427 . S
N2019 C2017 1.384 . S
H2020 C2026 0.930 . S
H2021 C2030 0.930 . S
H2022 C2035 0.929 . S
H2023 C2033 0.929 . S
H2024 C2028 0.929 . S
H2025 C2034 0.929 . S
C2026 H2020 0.930 . S
C2026 C2027 1.367 . S
C2026 C2034 1.378 . S
C2027 C2026 1.367 . S
C2027 C2035 1.433 . S
C2028 H2024 0.929 . S
C2028 C2030 1.378 . S
C2028 C2032 1.350 . S
C2029 C2032 1.463 . S
C2029 C2034 1.350 . S
C2029 N2037 1.427 . S
C2030 H2021 0.930 . S
C2030 C2028 1.378 . S
C2030 C2031 1.367 . S
C2031 C2030 1.367 . S
C2031 C2033 1.433 . S
C2032 C2028 1.350 . S
C2032 C2029 1.463 . S
C2032 N2036 1.427 . S
C2033 H2023 0.929 . S
C2033 C2031 1.433 . S
C2033 N2036 1.384 . S
C2034 H2025 0.929 . S
C2034 C2026 1.378 . S
C2034 C2029 1.350 . S
C2035 H2022 0.929 . S
C2035 C2027 1.433 . S
C2035 N2037 1.384 . S
N2036 C2032 1.427 . S
N2036 C2033 1.384 . S
N2037 C2029 1.427 . S
N2037 C2035 1.384 . S
H2038 C2044 0.930 . S
H2039 C2048 0.930 . S
H2040 C2053 0.929 . S
H2041 C2051 0.929 . S
H2042 C2046 0.929 . S
H2043 C2052 0.929 . S
C2044 H2038 0.930 . S
C2044 C2045 1.367 . S
C2044 C2052 1.378 . S
C2045 C2044 1.367 . S
C2045 C2053 1.433 . S
C2046 H2042 0.929 . S
C2046 C2048 1.378 . S
C2046 C2050 1.350 . S
C2047 C2050 1.463 . S
C2047 C2052 1.350 . S
C2047 N2055 1.427 . S
C2048 H2039 0.930 . S
C2048 C2046 1.378 . S
C2048 C2049 1.367 . S
C2049 C2048 1.367 . S
C2049 C2051 1.433 . S
C2050 C2046 1.350 . S
C2050 C2047 1.463 . S
C2050 N2054 1.427 . S
C2051 H2041 0.929 . S
C2051 C2049 1.433 . S
C2051 N2054 1.384 . S
C2052 H2043 0.929 . S
C2052 C2044 1.378 . S
C2052 C2047 1.350 . S
C2053 H2040 0.929 . S
C2053 C2045 1.433 . S
C2053 N2055 1.384 . S
N2054 C2050 1.427 . S
N2054 C2051 1.384 . S
N2055 C2047 1.427 . S
N2055 C2053 1.384 . S
H2056 C2062 0.930 . S
H2057 C2066 0.930 . S
H2058 C2071 0.929 . S
H2059 C2069 0.929 . S
H2060 C2064 0.929 . S
H2061 C2070 0.929 . S
C2062 H2056 0.930 . S
C2062 C2063 1.367 . S
C2062 C2070 1.378 . S
C2063 C2062 1.367 . S
C2063 C2071 1.433 . S
C2064 H2060 0.929 . S
C2064 C2066 1.378 . S
C2064 C2068 1.350 . S
C2065 C2068 1.463 . S
C2065 C2070 1.350 . S
C2065 N2073 1.427 . S
C2066 H2057 0.930 . S
C2066 C2064 1.378 . S
C2066 C2067 1.367 . S
C2067 C2066 1.367 . S
C2067 C2069 1.433 . S
C2068 C2064 1.350 . S
C2068 C2065 1.463 . S
C2068 N2072 1.427 . S
C2069 H2059 0.929 . S
C2069 C2067 1.433 . S
C2069 N2072 1.384 . S
C2070 H2061 0.929 . S
C2070 C2062 1.378 . S
C2070 C2065 1.350 . S
C2071 H2058 0.929 . S
C2071 C2063 1.433 . S
C2071 N2073 1.384 . S
N2072 C2068 1.427 . S
N2072 C2069 1.384 . S
N2073 C2065 1.427 . S
N2073 C2071 1.384 . S
H2074 C2080 0.930 . S
H2075 C2084 0.930 . S
H2076 C2089 0.929 . S
H2077 C2087 0.929 . S
H2078 C2082 0.929 . S
H2079 C2088 0.929 . S
C2080 H2074 0.930 . S
C2080 C2081 1.367 . S
C2080 C2088 1.378 . S
C2081 C2080 1.367 . S
C2081 C2089 1.433 . S
C2082 H2078 0.929 . S
C2082 C2084 1.378 . S
C2082 C2086 1.350 . S
C2083 C2086 1.463 . S
C2083 C2088 1.350 . S
C2083 N2091 1.427 . S
C2084 H2075 0.930 . S
C2084 C2082 1.378 . S
C2084 C2085 1.367 . S
C2085 C2084 1.367 . S
C2085 C2087 1.433 . S
C2086 C2082 1.350 . S
C2086 C2083 1.463 . S
C2086 N2090 1.427 . S
C2087 H2077 0.929 . S
C2087 C2085 1.433 . S
C2087 N2090 1.384 . S
C2088 H2079 0.929 . S
C2088 C2080 1.378 . S
C2088 C2083 1.350 . S
C2089 H2076 0.929 . S
C2089 C2081 1.433 . S
C2089 N2091 1.384 . S
N2090 C2086 1.427 . S
N2090 C2087 1.384 . S
N2091 C2083 1.427 . S
N2091 C2089 1.384 . S
H2092 C2098 0.930 . S
H2093 C2102 0.930 . S
H2094 C2107 0.929 . S
H2095 C2105 0.929 . S
H2096 C2100 0.929 . S
H2097 C2106 0.929 . S
C2098 H2092 0.930 . S
C2098 C2099 1.367 . S
C2098 C2106 1.378 . S
C2099 C2098 1.367 . S
C2099 C2107 1.433 . S
C2100 H2096 0.929 . S
C2100 C2102 1.378 . S
C2100 C2104 1.350 . S
C2101 C2104 1.463 . S
C2101 C2106 1.350 . S
C2101 N2109 1.427 . S
C2102 H2093 0.930 . S
C2102 C2100 1.378 . S
C2102 C2103 1.367 . S
C2103 C2102 1.367 . S
C2103 C2105 1.433 . S
C2104 C2100 1.350 . S
C2104 C2101 1.463 . S
C2104 N2108 1.427 . S
C2105 H2095 0.929 . S
C2105 C2103 1.433 . S
C2105 N2108 1.384 . S
C2106 H2097 0.929 . S
C2106 C2098 1.378 . S
C2106 C2101 1.350 . S
C2107 H2094 0.929 . S
C2107 C2099 1.433 . S
C2107 N2109 1.384 . S
N2108 C2104 1.427 . S
N2108 C2105 1.384 . S
N2109 C2101 1.427 . S
N2109 C2107 1.384 . S
H2110 C2116 0.930 . S
H2111 C2120 0.930 . S
H2112 C2125 0.929 . S
H2113 C2123 0.929 . S
H2114 C2118 0.929 . S
H2115 C2124 0.929 . S
C2116 H2110 0.930 . S
C2116 C2117 1.367 . S
C2116 C2124 1.378 . S
C2117 C2116 1.367 . S
C2117 C2125 1.433 . S
C2118 H2114 0.929 . S
C2118 C2120 1.378 . S
C2118 C2122 1.350 . S
C2119 C2122 1.463 . S
C2119 C2124 1.350 . S
C2119 N2127 1.427 . S
C2120 H2111 0.930 . S
C2120 C2118 1.378 . S
C2120 C2121 1.367 . S
C2121 C2120 1.367 . S
C2121 C2123 1.433 . S
C2122 C2118 1.350 . S
C2122 C2119 1.463 . S
C2122 N2126 1.427 . S
C2123 H2113 0.929 . S
C2123 C2121 1.433 . S
C2123 N2126 1.384 . S
C2124 H2115 0.929 . S
C2124 C2116 1.378 . S
C2124 C2119 1.350 . S
C2125 H2112 0.929 . S
C2125 C2117 1.433 . S
C2125 N2127 1.384 . S
N2126 C2122 1.427 . S
N2126 C2123 1.384 . S
N2127 C2119 1.427 . S
N2127 C2125 1.384 . S
H2128 C2134 0.930 . S
H2129 C2138 0.930 . S
H2130 C2143 0.929 . S
H2131 C2141 0.929 . S
H2132 C2136 0.929 . S
H2133 C2142 0.929 . S
C2134 H2128 0.930 . S
C2134 C2135 1.367 . S
C2134 C2142 1.378 . S
C2135 C2134 1.367 . S
C2135 C2143 1.433 . S
C2136 H2132 0.929 . S
C2136 C2138 1.378 . S
C2136 C2140 1.350 . S
C2137 C2140 1.463 . S
C2137 C2142 1.350 . S
C2137 N2145 1.427 . S
C2138 H2129 0.930 . S
C2138 C2136 1.378 . S
C2138 C2139 1.367 . S
C2139 C2138 1.367 . S
C2139 C2141 1.433 . S
C2140 C2136 1.350 . S
C2140 C2137 1.463 . S
C2140 N2144 1.427 . S
C2141 H2131 0.929 . S
C2141 C2139 1.433 . S
C2141 N2144 1.384 . S
C2142 H2133 0.929 . S
C2142 C2134 1.378 . S
C2142 C2137 1.350 . S
C2143 H2130 0.929 . S
C2143 C2135 1.433 . S
C2143 N2145 1.384 . S
N2144 C2140 1.427 . S
N2144 C2141 1.384 . S
N2145 C2137 1.427 . S
N2145 C2143 1.384 . S
H2146 C2152 0.930 . S
H2147 C2156 0.930 . S
H2148 C2161 0.929 . S
H2149 C2159 0.929 . S
H2150 C2154 0.929 . S
H2151 C2160 0.929 . S
C2152 H2146 0.930 . S
C2152 C2153 1.367 . S
C2152 C2160 1.378 . S
C2153 C2152 1.367 . S
C2153 C2161 1.433 . S
C2154 H2150 0.929 . S
C2154 C2156 1.378 . S
C2154 C2158 1.350 . S
C2155 C2158 1.463 . S
C2155 C2160 1.350 . S
C2155 N2163 1.427 . S
C2156 H2147 0.930 . S
C2156 C2154 1.378 . S
C2156 C2157 1.367 . S
C2157 C2156 1.367 . S
C2157 C2159 1.433 . S
C2158 C2154 1.350 . S
C2158 C2155 1.463 . S
C2158 N2162 1.427 . S
C2159 H2149 0.929 . S
C2159 C2157 1.433 . S
C2159 N2162 1.384 . S
C2160 H2151 0.929 . S
C2160 C2152 1.378 . S
C2160 C2155 1.350 . S
C2161 H2148 0.929 . S
C2161 C2153 1.433 . S
C2161 N2163 1.384 . S
N2162 C2158 1.427 . S
N2162 C2159 1.384 . S
N2163 C2155 1.427 . S
N2163 C2161 1.384 . S
H2164 C2170 0.930 . S
H2165 C2174 0.930 . S
H2166 C2179 0.929 . S
H2167 C2177 0.929 . S
H2168 C2172 0.929 . S
H2169 C2178 0.929 . S
C2170 H2164 0.930 . S
C2170 C2171 1.367 . S
C2170 C2178 1.378 . S
C2171 C2170 1.367 . S
C2171 C2179 1.433 . S
C2172 H2168 0.929 . S
C2172 C2174 1.378 . S
C2172 C2176 1.350 1_565 S
C2173 C2176 1.463 . S
C2173 C2178 1.350 . S
C2173 N2181 1.427 . S
C2174 H2165 0.930 . S
C2174 C2172 1.378 . S
C2174 C2175 1.367 . S
C2175 C2174 1.367 . S
C2175 C2177 1.433 1_565 S
C2176 C2172 1.350 1_545 S
C2176 C2173 1.463 . S
C2176 N2180 1.427 . S
C2177 H2167 0.929 . S
C2177 C2175 1.433 1_545 S
C2177 N2180 1.384 . S
C2178 H2169 0.929 . S
C2178 C2170 1.378 . S
C2178 C2173 1.350 . S
C2179 H2166 0.929 . S
C2179 C2171 1.433 . S
C2179 N2181 1.384 . S
N2180 C2176 1.427 . S
N2180 C2177 1.384 . S
N2181 C2173 1.427 . S
N2181 C2179 1.384 . S
H2182 C2188 0.930 . S
H2183 C2192 0.930 . S
H2184 C2197 0.929 . S
H2185 C2195 0.929 . S
H2186 C2190 0.929 . S
H2187 C2196 0.929 . S
C2188 H2182 0.930 . S
C2188 C2189 1.367 1_545 S
C2188 C2196 1.378 . S
C2189 C2188 1.367 1_565 S
C2189 C2197 1.433 . S
C2190 H2186 0.929 . S
C2190 C2192 1.378 . S
C2190 C2194 1.350 . S
C2191 C2194 1.463 . S
C2191 C2196 1.350 . S
C2191 N2199 1.393 1_545 S
C2192 H2183 0.930 . S
C2192 C2190 1.378 . S
C2192 C2193 1.367 . S
C2193 C2192 1.367 . S
C2193 C2195 1.433 . S
C2194 C2190 1.350 . S
C2194 C2191 1.463 . S
C2194 N2198 1.427 . S
C2195 H2185 0.929 . S
C2195 C2193 1.433 . S
C2195 N2198 1.384 . S
C2196 H2187 0.929 . S
C2196 C2188 1.378 . S
C2196 C2191 1.350 . S
C2197 H2184 0.929 . S
C2197 C2189 1.433 . S
C2197 N2199 1.400 . S
N2198 C2194 1.427 . S
N2198 C2195 1.384 . S
N2199 C2191 1.393 1_565 S
N2199 C2197 1.400 . S
H2200 C2206 0.930 . S
H2201 C2210 0.930 . S
H2202 C2215 0.929 . S
H2203 C2213 0.929 . S
H2204 C2208 0.929 . S
H2205 C2214 0.929 . S
C2206 H2200 0.930 . S
C2206 C2207 1.367 . S
C2206 C2214 1.378 . S
C2207 C2206 1.367 . S
C2207 C2215 1.433 . S
C2208 H2204 0.929 . S
C2208 C2210 1.378 . S
C2208 C2212 1.350 . S
C2209 C2212 1.463 . S
C2209 C2214 1.350 . S
C2209 N2217 1.427 . S
C2210 H2201 0.930 . S
C2210 C2208 1.378 . S
C2210 C2211 1.367 . S
C2211 C2210 1.367 . S
C2211 C2213 1.433 . S
C2212 C2208 1.350 . S
C2212 C2209 1.463 . S
C2212 N2216 1.427 . S
C2213 H2203 0.929 . S
C2213 C2211 1.433 . S
C2213 N2216 1.384 . S
C2214 H2205 0.929 . S
C2214 C2206 1.378 . S
C2214 C2209 1.350 . S
C2215 H2202 0.929 . S
C2215 C2207 1.433 . S
C2215 N2217 1.384 . S
N2216 C2212 1.427 . S
N2216 C2213 1.384 . S
N2217 C2209 1.427 . S
N2217 C2215 1.384 . S
H2218 C2224 0.930 1_556 S
H2219 C2228 0.930 . S
H2220 C2233 0.929 . S
H2221 C2231 0.929 . S
H2222 C2226 0.929 . S
H2223 C2232 0.929 . S
C2224 H2218 0.930 1_554 S
C2224 C2225 1.367 . S
C2224 C2232 1.378 . S
C2225 C2224 1.367 . S
C2225 C2233 1.433 . S
C2226 H2222 0.929 . S
C2226 C2228 1.378 . S
C2226 C2230 1.350 . S
C2227 C2230 1.463 . S
C2227 C2232 1.350 . S
C2227 N2235 1.427 . S
C2228 H2219 0.930 . S
C2228 C2226 1.378 . S
C2228 C2229 1.367 . S
C2229 C2228 1.367 . S
C2229 C2231 1.433 . S
C2230 C2226 1.350 . S
C2230 C2227 1.463 . S
C2230 N2234 1.427 . S
C2231 H2221 0.929 . S
C2231 C2229 1.433 . S
C2231 N2234 1.384 . S
C2232 H2223 0.929 . S
C2232 C2224 1.378 . S
C2232 C2227 1.350 . S
C2233 H2220 0.929 . S
C2233 C2225 1.433 . S
C2233 N2235 1.384 . S
N2234 C2230 1.427 . S
N2234 C2231 1.384 . S
N2235 C2227 1.427 . S
N2235 C2233 1.384 . S
H2236 C2242 0.930 . S
H2237 C2246 0.930 . S
H2238 C2251 0.929 . S
H2239 C2249 0.929 . S
H2240 C2244 0.929 . S
H2241 C2250 0.929 . S
C2242 H2236 0.930 . S
C2242 C2243 1.367 . S
C2242 C2250 1.378 . S
C2243 C2242 1.367 . S
C2243 C2251 1.433 . S
C2244 H2240 0.929 . S
C2244 C2246 1.378 . S
C2244 C2248 1.350 . S
C2245 C2248 1.463 . S
C2245 C2250 1.350 . S
C2245 N2253 1.427 . S
C2246 H2237 0.930 . S
C2246 C2244 1.378 . S
C2246 C2247 1.367 . S
C2247 C2246 1.367 . S
C2247 C2249 1.433 . S
C2248 C2244 1.350 . S
C2248 C2245 1.463 . S
C2248 N2252 1.427 . S
C2249 H2239 0.929 . S
C2249 C2247 1.433 . S
C2249 N2252 1.384 . S
C2250 H2241 0.929 . S
C2250 C2242 1.378 . S
C2250 C2245 1.350 . S
C2251 H2238 0.929 . S
C2251 C2243 1.433 . S
C2251 N2253 1.384 . S
N2252 C2248 1.427 . S
N2252 C2249 1.384 . S
N2253 C2245 1.427 . S
N2253 C2251 1.384 . S
H2254 C2260 0.930 . S
H2255 C2264 0.930 . S
H2256 C2269 0.929 . S
H2257 C2267 0.929 1_565 S
H2258 C2262 0.929 . S
H2259 C2268 0.929 . S
C2260 H2254 0.930 . S
C2260 C2261 1.367 . S
C2260 C2268 1.378 . S
C2261 C2260 1.367 . S
C2261 C2269 1.433 . S
C2262 H2258 0.929 . S
C2262 C2264 1.378 . S
C2262 C2266 1.350 . S
C2263 C2266 1.463 . S
C2263 C2268 1.350 . S
C2263 N2271 1.427 . S
C2264 H2255 0.930 . S
C2264 C2262 1.378 . S
C2264 C2265 1.367 1_545 S
C2265 C2264 1.367 1_565 S
C2265 C2267 1.433 1_565 S
C2266 C2262 1.350 . S
C2266 C2263 1.463 . S
C2266 N2270 1.427 . S
C2267 H2257 0.929 1_545 S
C2267 C2265 1.433 1_545 S
C2267 N2270 1.384 . S
C2268 H2259 0.929 . S
C2268 C2260 1.378 . S
C2268 C2263 1.350 . S
C2269 H2256 0.929 . S
C2269 C2261 1.433 . S
C2269 N2271 1.384 . S
N2270 C2266 1.427 . S
N2270 C2267 1.384 . S
N2271 C2263 1.427 . S
N2271 C2269 1.384 . S
H2272 C2278 0.930 . S
H2273 C2282 0.930 . S
H2274 C2287 0.929 . S
H2275 C2285 0.929 . S
H2276 C2280 0.929 . S
H2277 C2286 0.929 . S
C2278 H2272 0.930 . S
C2278 C2279 1.367 . S
C2278 C2286 1.378 . S
C2279 C2278 1.367 . S
C2279 C2287 1.433 . S
C2280 H2276 0.929 . S
C2280 C2282 1.378 . S
C2280 C2284 1.350 . S
C2281 C2284 1.463 . S
C2281 C2286 1.350 . S
C2281 N2289 1.427 . S
C2282 H2273 0.930 . S
C2282 C2280 1.378 . S
C2282 C2283 1.367 . S
C2283 C2282 1.367 . S
C2283 C2285 1.433 . S
C2284 C2280 1.350 . S
C2284 C2281 1.463 . S
C2284 N2288 1.427 . S
C2285 H2275 0.929 . S
C2285 C2283 1.433 . S
C2285 N2288 1.384 . S
C2286 H2277 0.929 . S
C2286 C2278 1.378 . S
C2286 C2281 1.350 . S
C2287 H2274 0.929 . S
C2287 C2279 1.433 . S
C2287 N2289 1.384 . S
N2288 C2284 1.427 . S
N2288 C2285 1.384 . S
N2289 C2281 1.427 . S
N2289 C2287 1.384 . S
H2290 C2296 0.930 . S
H2291 C2300 0.930 . S
H2292 C2305 0.929 . S
H2293 C2303 0.929 . S
H2294 C2298 0.929 . S
H2295 C2304 0.929 . S
C2296 H2290 0.930 . S
C2296 C2297 1.367 . S
C2296 C2304 1.378 . S
C2297 C2296 1.367 . S
C2297 C2305 1.433 . S
C2298 H2294 0.929 . S
C2298 C2300 1.378 . S
C2298 C2302 1.350 . S
C2299 C2302 1.463 . S
C2299 C2304 1.350 . S
C2299 N2307 1.427 . S
C2300 H2291 0.930 . S
C2300 C2298 1.378 . S
C2300 C2301 1.367 . S
C2301 C2300 1.367 . S
C2301 C2303 1.433 . S
C2302 C2298 1.350 . S
C2302 C2299 1.463 . S
C2302 N2306 1.427 . S
C2303 H2293 0.929 . S
C2303 C2301 1.433 . S
C2303 N2306 1.384 . S
C2304 H2295 0.929 . S
C2304 C2296 1.378 . S
C2304 C2299 1.350 . S
C2305 H2292 0.929 . S
C2305 C2297 1.433 . S
C2305 N2307 1.384 . S
N2306 C2302 1.427 . S
N2306 C2303 1.384 . S
N2307 C2299 1.427 . S
N2307 C2305 1.384 . S
H2308 C2314 0.930 . S
H2309 C2318 0.930 . S
H2310 C2323 0.929 . S
H2311 C2321 0.929 . S
H2312 C2316 0.929 . S
H2313 C2322 0.929 . S
C2314 H2308 0.930 . S
C2314 C2315 1.367 . S
C2314 C2322 1.378 . S
C2315 C2314 1.367 . S
C2315 C2323 1.433 . S
C2316 H2312 0.929 . S
C2316 C2318 1.378 . S
C2316 C2320 1.350 . S
C2317 C2320 1.463 . S
C2317 C2322 1.350 . S
C2317 N2325 1.427 . S
C2318 H2309 0.930 . S
C2318 C2316 1.378 . S
C2318 C2319 1.367 . S
C2319 C2318 1.367 . S
C2319 C2321 1.433 . S
C2320 C2316 1.350 . S
C2320 C2317 1.463 . S
C2320 N2324 1.427 . S
C2321 H2311 0.929 . S
C2321 C2319 1.433 . S
C2321 N2324 1.384 . S
C2322 H2313 0.929 . S
C2322 C2314 1.378 . S
C2322 C2317 1.350 . S
C2323 H2310 0.929 . S
C2323 C2315 1.433 . S
C2323 N2325 1.384 . S
N2324 C2320 1.427 . S
N2324 C2321 1.384 . S
N2325 C2317 1.427 . S
N2325 C2323 1.384 . S
H2326 C2332 0.930 . S
H2327 C2336 0.930 . S
H2328 C2341 0.929 . S
H2329 C2339 0.929 . S
H2330 C2334 0.929 . S
H2331 C2340 0.929 . S
C2332 H2326 0.930 . S
C2332 C2333 1.367 . S
C2332 C2340 1.378 . S
C2333 C2332 1.367 . S
C2333 C2341 1.433 . S
C2334 H2330 0.929 . S
C2334 C2336 1.378 . S
C2334 C2338 1.350 . S
C2335 C2338 1.463 . S
C2335 C2340 1.350 . S
C2335 N2343 1.427 . S
C2336 H2327 0.930 . S
C2336 C2334 1.378 . S
C2336 C2337 1.367 . S
C2337 C2336 1.367 . S
C2337 C2339 1.433 . S
C2338 C2334 1.350 . S
C2338 C2335 1.463 . S
C2338 N2342 1.427 . S
C2339 H2329 0.929 . S
C2339 C2337 1.433 . S
C2339 N2342 1.384 . S
C2340 H2331 0.929 . S
C2340 C2332 1.378 . S
C2340 C2335 1.350 . S
C2341 H2328 0.929 . S
C2341 C2333 1.433 . S
C2341 N2343 1.384 . S
N2342 C2338 1.427 . S
N2342 C2339 1.384 . S
N2343 C2335 1.427 . S
N2343 C2341 1.384 . S
H2344 C2350 0.930 . S
H2345 C2354 0.930 . S
H2346 C2359 0.929 . S
H2347 C2357 0.929 . S
H2348 C2352 0.929 1_554 S
H2349 C2358 0.929 . S
C2350 H2344 0.930 . S
C2350 C2351 1.367 . S
C2350 C2358 1.378 . S
C2351 C2350 1.367 . S
C2351 C2359 1.433 . S
C2352 H2348 0.929 1_556 S
C2352 C2354 1.378 1_556 S
C2352 C2356 1.350 . S
C2353 C2356 1.463 . S
C2353 C2358 1.350 . S
C2353 N2361 1.427 . S
C2354 H2345 0.930 . S
C2354 C2352 1.378 1_554 S
C2354 C2355 1.367 1_554 S
C2355 C2354 1.367 1_556 S
C2355 C2357 1.433 . S
C2356 C2352 1.350 . S
C2356 C2353 1.463 . S
C2356 N2360 1.427 . S
C2357 H2347 0.929 . S
C2357 C2355 1.433 . S
C2357 N2360 1.384 . S
C2358 H2349 0.929 . S
C2358 C2350 1.378 . S
C2358 C2353 1.350 . S
C2359 H2346 0.929 . S
C2359 C2351 1.433 . S
C2359 N2361 1.384 . S
N2360 C2356 1.427 . S
N2360 C2357 1.384 . S
N2361 C2353 1.427 . S
N2361 C2359 1.384 . S
H2362 C2368 0.930 . S
H2363 C2372 0.930 . S
H2364 C2377 0.929 . S
H2365 C2375 0.929 . S
H2366 C2370 0.929 . S
H2367 C2376 0.929 . S
C2368 H2362 0.930 . S
C2368 C2369 1.367 . S
C2368 C2376 1.378 . S
C2369 C2368 1.367 . S
C2369 C2377 1.433 . S
C2370 H2366 0.929 . S
C2370 C2372 1.378 . S
C2370 C2374 1.350 . S
C2371 C2374 1.463 . S
C2371 C2376 1.350 . S
C2371 N2379 1.427 . S
C2372 H2363 0.930 . S
C2372 C2370 1.378 . S
C2372 C2373 1.367 . S
C2373 C2372 1.367 . S
C2373 C2375 1.433 . S
C2374 C2370 1.350 . S
C2374 C2371 1.463 . S
C2374 N2378 1.427 . S
C2375 H2365 0.929 . S
C2375 C2373 1.433 . S
C2375 N2378 1.384 . S
C2376 H2367 0.929 . S
C2376 C2368 1.378 . S
C2376 C2371 1.350 . S
C2377 H2364 0.929 . S
C2377 C2369 1.433 . S
C2377 N2379 1.384 . S
N2378 C2374 1.427 . S
N2378 C2375 1.384 . S
N2379 C2371 1.427 . S
N2379 C2377 1.384 . S
H2380 C2386 0.930 . S
H2381 C2390 0.930 . S
H2382 C2395 0.929 1_655 S
H2383 C2393 0.929 . S
H2384 C2388 0.929 . S
H2385 C2394 0.929 . S
C2386 H2380 0.930 . S
C2386 C2387 1.367 . S
C2386 C2394 1.378 . S
C2387 C2386 1.367 . S
C2387 C2395 1.433 . S
C2388 H2384 0.929 . S
C2388 C2390 1.378 . S
C2388 C2392 1.350 . S
C2389 C2392 1.463 . S
C2389 C2394 1.350 . S
C2389 N2397 1.427 . S
C2390 H2381 0.930 . S
C2390 C2388 1.378 . S
C2390 C2391 1.367 . S
C2391 C2390 1.367 . S
C2391 C2393 1.433 . S
C2392 C2388 1.350 . S
C2392 C2389 1.463 . S
C2392 N2396 1.427 . S
C2393 H2383 0.929 . S
C2393 C2391 1.433 . S
C2393 N2396 1.384 . S
C2394 H2385 0.929 . S
C2394 C2386 1.378 . S
C2394 C2389 1.350 . S
C2395 H2382 0.929 1_455 S
C2395 C2387 1.433 . S
C2395 N2397 1.384 . S
N2396 C2392 1.427 . S
N2396 C2393 1.384 . S
N2397 C2389 1.427 . S
N2397 C2395 1.384 . S
H2398 C2404 0.930 . S
H2399 C2408 0.930 . S
H2400 C2413 0.929 . S
H2401 C2411 0.929 . S
H2402 C2406 0.929 . S
H2403 C2412 0.929 . S
C2404 H2398 0.930 . S
C2404 C2405 1.367 . S
C2404 C2412 1.378 . S
C2405 C2404 1.367 . S
C2405 C2413 1.433 . S
C2406 H2402 0.929 . S
C2406 C2408 1.378 . S
C2406 C2410 1.350 . S
C2407 C2410 1.463 . S
C2407 C2412 1.350 . S
C2407 N2415 1.427 . S
C2408 H2399 0.930 . S
C2408 C2406 1.378 . S
C2408 C2409 1.367 . S
C2409 C2408 1.367 . S
C2409 C2411 1.433 . S
C2410 C2406 1.350 . S
C2410 C2407 1.463 . S
C2410 N2414 1.427 . S
C2411 H2401 0.929 . S
C2411 C2409 1.433 . S
C2411 N2414 1.384 . S
C2412 H2403 0.929 . S
C2412 C2404 1.378 . S
C2412 C2407 1.350 . S
C2413 H2400 0.929 . S
C2413 C2405 1.433 . S
C2413 N2415 1.384 . S
N2414 C2410 1.427 . S
N2414 C2411 1.384 . S
N2415 C2407 1.427 . S
N2415 C2413 1.384 . S
H2416 C2422 0.930 . S
H2417 C2426 0.930 . S
H2418 C2431 0.929 . S
H2419 C2429 0.929 . S
H2420 C2424 0.929 . S
H2421 C2430 0.929 . S
C2422 H2416 0.930 . S
C2422 C2423 1.367 . S
C2422 C2430 1.378 . S
C2423 C2422 1.367 . S
C2423 C2431 1.433 . S
C2424 H2420 0.929 . S
C2424 C2426 1.378 . S
C2424 C2428 1.350 . S
C2425 C2428 1.463 . S
C2425 C2430 1.350 . S
C2425 N2433 1.427 . S
C2426 H2417 0.930 . S
C2426 C2424 1.378 . S
C2426 C2427 1.367 . S
C2427 C2426 1.367 . S
C2427 C2429 1.433 . S
C2428 C2424 1.350 . S
C2428 C2425 1.463 . S
C2428 N2432 1.427 . S
C2429 H2419 0.929 . S
C2429 C2427 1.433 . S
C2429 N2432 1.384 . S
C2430 H2421 0.929 . S
C2430 C2422 1.378 . S
C2430 C2425 1.350 . S
C2431 H2418 0.929 . S
C2431 C2423 1.433 . S
C2431 N2433 1.384 . S
N2432 C2428 1.427 . S
N2432 C2429 1.384 . S
N2433 C2425 1.427 . S
N2433 C2431 1.384 . S
H2434 C2440 0.930 . S
H2435 C2444 0.930 . S
H2436 C2449 0.929 . S
H2437 C2447 0.929 . S
H2438 C2442 0.929 . S
H2439 C2448 0.929 . S
C2440 H2434 0.930 . S
C2440 C2441 1.367 . S
C2440 C2448 1.378 . S
C2441 C2440 1.367 . S
C2441 C2449 1.433 . S
C2442 H2438 0.929 . S
C2442 C2444 1.378 . S
C2442 C2446 1.350 . S
C2443 C2446 1.463 . S
C2443 C2448 1.350 . S
C2443 N2451 1.427 . S
C2444 H2435 0.930 . S
C2444 C2442 1.378 . S
C2444 C2445 1.367 . S
C2445 C2444 1.367 . S
C2445 C2447 1.433 . S
C2446 C2442 1.350 . S
C2446 C2443 1.463 . S
C2446 N2450 1.427 . S
C2447 H2437 0.929 . S
C2447 C2445 1.433 . S
C2447 N2450 1.384 . S
C2448 H2439 0.929 . S
C2448 C2440 1.378 . S
C2448 C2443 1.350 . S
C2449 H2436 0.929 . S
C2449 C2441 1.433 . S
C2449 N2451 1.384 . S
N2450 C2446 1.427 . S
N2450 C2447 1.384 . S
N2451 C2443 1.427 . S
N2451 C2449 1.384 . S
H2452 C2458 0.930 . S
H2453 C2462 0.930 . S
H2454 C2467 0.929 . S
H2455 C2465 0.929 . S
H2456 C2460 0.929 1_655 S
H2457 C2466 0.929 . S
C2458 H2452 0.930 . S
C2458 C2459 1.367 1_455 S
C2458 C2466 1.378 . S
C2459 C2458 1.367 1_655 S
C2459 C2467 1.433 . S
C2460 H2456 0.929 1_455 S
C2460 C2462 1.378 . S
C2460 C2464 1.350 . S
C2461 C2464 1.463 . S
C2461 C2466 1.350 . S
C2461 N2469 1.427 1_455 S
C2462 H2453 0.930 . S
C2462 C2460 1.378 . S
C2462 C2463 1.367 . S
C2463 C2462 1.367 . S
C2463 C2465 1.433 . S
C2464 C2460 1.350 . S
C2464 C2461 1.463 . S
C2464 N2468 1.427 . S
C2465 H2455 0.929 . S
C2465 C2463 1.433 . S
C2465 N2468 1.384 . S
C2466 H2457 0.929 . S
C2466 C2458 1.378 . S
C2466 C2461 1.350 . S
C2467 H2454 0.929 . S
C2467 C2459 1.433 . S
C2467 N2469 1.384 . S
N2468 C2464 1.427 . S
N2468 C2465 1.384 . S
N2469 C2461 1.427 1_655 S
N2469 C2467 1.384 . S
H2470 C2476 0.930 . S
H2471 C2480 0.930 . S
H2472 C2485 0.929 . S
H2473 C2483 0.929 . S
H2474 C2478 0.929 . S
H2475 C2484 0.929 . S
C2476 H2470 0.930 . S
C2476 C2477 1.367 . S
C2476 C2484 1.378 . S
C2477 C2476 1.367 . S
C2477 C2485 1.433 . S
C2478 H2474 0.929 . S
C2478 C2480 1.378 . S
C2478 C2482 1.350 . S
C2479 C2482 1.463 . S
C2479 C2484 1.350 . S
C2479 N2487 1.427 . S
C2480 H2471 0.930 . S
C2480 C2478 1.378 . S
C2480 C2481 1.367 . S
C2481 C2480 1.367 . S
C2481 C2483 1.433 . S
C2482 C2478 1.350 . S
C2482 C2479 1.463 . S
C2482 N2486 1.427 . S
C2483 H2473 0.929 . S
C2483 C2481 1.433 . S
C2483 N2486 1.384 . S
C2484 H2475 0.929 . S
C2484 C2476 1.378 . S
C2484 C2479 1.350 . S
C2485 H2472 0.929 . S
C2485 C2477 1.433 . S
C2485 N2487 1.384 . S
N2486 C2482 1.427 . S
N2486 C2483 1.384 . S
N2487 C2479 1.427 . S
N2487 C2485 1.384 . S
H2488 C2494 0.930 . S
H2489 C2498 0.930 . S
H2490 C2503 0.929 . S
H2491 C2501 0.929 . S
H2492 C2496 0.929 . S
H2493 C2502 0.929 . S
C2494 H2488 0.930 . S
C2494 C2495 1.367 . S
C2494 C2502 1.378 . S
C2495 C2494 1.367 . S
C2495 C2503 1.433 . S
C2496 H2492 0.929 . S
C2496 C2498 1.378 . S
C2496 C2500 1.350 . S
C2497 C2500 1.463 . S
C2497 C2502 1.350 . S
C2497 N2505 1.427 . S
C2498 H2489 0.930 . S
C2498 C2496 1.378 . S
C2498 C2499 1.367 . S
C2499 C2498 1.367 . S
C2499 C2501 1.433 . S
C2500 C2496 1.350 . S
C2500 C2497 1.463 . S
C2500 N2504 1.427 . S
C2501 H2491 0.929 . S
C2501 C2499 1.433 . S
C2501 N2504 1.384 . S
C2502 H2493 0.929 . S
C2502 C2494 1.378 . S
C2502 C2497 1.350 . S
C2503 H2490 0.929 . S
C2503 C2495 1.433 . S
C2503 N2505 1.384 . S
N2504 C2500 1.427 . S
N2504 C2501 1.384 . S
N2505 C2497 1.427 . S
N2505 C2503 1.384 . S
H2506 C2512 0.930 . S
H2507 C2516 0.930 . S
H2508 C2521 0.929 . S
H2509 C2519 0.929 . S
H2510 C2514 0.929 . S
H2511 C2520 0.929 . S
C2512 H2506 0.930 . S
C2512 C2513 1.367 . S
C2512 C2520 1.378 . S
C2513 C2512 1.367 . S
C2513 C2521 1.433 . S
C2514 H2510 0.929 . S
C2514 C2516 1.378 . S
C2514 C2518 1.350 . S
C2515 C2518 1.463 . S
C2515 C2520 1.350 . S
C2515 N2523 1.427 . S
C2516 H2507 0.930 . S
C2516 C2514 1.378 . S
C2516 C2517 1.367 . S
C2517 C2516 1.367 . S
C2517 C2519 1.433 . S
C2518 C2514 1.350 . S
C2518 C2515 1.463 . S
C2518 N2522 1.427 . S
C2519 H2509 0.929 . S
C2519 C2517 1.433 . S
C2519 N2522 1.384 . S
C2520 H2511 0.929 . S
C2520 C2512 1.378 . S
C2520 C2515 1.350 . S
C2521 H2508 0.929 . S
C2521 C2513 1.433 . S
C2521 N2523 1.384 . S
N2522 C2518 1.427 . S
N2522 C2519 1.384 . S
N2523 C2515 1.427 . S
N2523 C2521 1.384 . S
H2524 C2530 0.930 . S
H2525 C2534 0.930 . S
H2526 C2539 0.934 . S
H2527 C2537 0.929 . S
H2528 C2532 0.929 . S
H2529 C2538 0.929 . S
C2530 H2524 0.930 . S
C2530 C2531 1.367 . S
C2530 C2538 1.378 . S
C2531 C2530 1.367 . S
C2531 C2539 1.423 1_655 S
C2532 H2528 0.929 . S
C2532 C2534 1.378 . S
C2532 C2536 1.350 1_455 S
C2533 C2536 1.463 . S
C2533 C2538 1.350 . S
C2533 N2541 1.427 1_655 S
C2534 H2525 0.930 . S
C2534 C2532 1.378 . S
C2534 C2535 1.383 . S
C2535 C2534 1.383 . S
C2535 C2537 1.400 1_455 S
C2536 C2532 1.350 1_655 S
C2536 C2533 1.463 . S
C2536 N2540 1.427 . S
C2537 H2527 0.929 . S
C2537 C2535 1.400 1_655 S
C2537 N2540 1.384 . S
C2538 H2529 0.929 . S
C2538 C2530 1.378 . S
C2538 C2533 1.350 . S
C2539 H2526 0.934 . S
C2539 C2531 1.423 1_455 S
C2539 N2541 1.389 . S
N2540 C2536 1.427 . S
N2540 C2537 1.384 . S
N2541 C2533 1.427 1_455 S
N2541 C2539 1.389 . S
H2542 C2548 0.930 . S
H2543 C2552 0.930 . S
H2544 C2557 0.929 . S
H2545 C2555 0.929 . S
H2546 C2550 0.929 . S
H2547 C2556 0.929 . S
C2548 H2542 0.930 . S
C2548 C2549 1.367 . S
C2548 C2556 1.378 . S
C2549 C2548 1.367 . S
C2549 C2557 1.433 . S
C2550 H2546 0.929 . S
C2550 C2552 1.378 . S
C2550 C2554 1.350 . S
C2551 C2554 1.463 . S
C2551 C2556 1.350 . S
C2551 N2559 1.427 . S
C2552 H2543 0.930 . S
C2552 C2550 1.378 . S
C2552 C2553 1.367 . S
C2553 C2552 1.367 . S
C2553 C2555 1.433 . S
C2554 C2550 1.350 . S
C2554 C2551 1.463 . S
C2554 N2558 1.427 . S
C2555 H2545 0.929 . S
C2555 C2553 1.433 . S
C2555 N2558 1.384 . S
C2556 H2547 0.929 . S
C2556 C2548 1.378 . S
C2556 C2551 1.350 . S
C2557 H2544 0.929 . S
C2557 C2549 1.433 . S
C2557 N2559 1.384 . S
N2558 C2554 1.427 . S
N2558 C2555 1.384 . S
N2559 C2551 1.427 . S
N2559 C2557 1.384 . S
H2560 C2566 0.930 . S
H2561 C2570 0.930 . S
H2562 C2575 0.929 . S
H2563 C2573 0.929 . S
H2564 C2568 0.929 . S
H2565 C2574 0.929 . S
C2566 H2560 0.930 . S
C2566 C2567 1.367 . S
C2566 C2574 1.378 . S
C2567 C2566 1.367 . S
C2567 C2575 1.433 . S
C2568 H2564 0.929 . S
C2568 C2570 1.378 . S
C2568 C2572 1.350 . S
C2569 C2572 1.463 . S
C2569 C2574 1.350 . S
C2569 N2577 1.427 . S
C2570 H2561 0.930 . S
C2570 C2568 1.378 . S
C2570 C2571 1.367 . S
C2571 C2570 1.367 . S
C2571 C2573 1.433 . S
C2572 C2568 1.350 . S
C2572 C2569 1.463 . S
C2572 N2576 1.427 . S
C2573 H2563 0.929 . S
C2573 C2571 1.433 . S
C2573 N2576 1.384 . S
C2574 H2565 0.929 . S
C2574 C2566 1.378 . S
C2574 C2569 1.350 . S
C2575 H2562 0.929 . S
C2575 C2567 1.433 . S
C2575 N2577 1.384 . S
N2576 C2572 1.427 . S
N2576 C2573 1.384 . S
N2577 C2569 1.427 . S
N2577 C2575 1.384 . S
H2578 C2584 0.930 . S
H2579 C2588 0.930 . S
H2580 C2593 0.929 . S
H2581 C2591 0.929 . S
H2582 C2586 0.929 . S
H2583 C2592 0.927 . S
C2584 H2578 0.930 . S
C2584 C2585 1.367 . S
C2584 C2592 1.373 1_565 S
C2585 C2584 1.367 . S
C2585 C2593 1.433 . S
C2586 H2582 0.929 . S
C2586 C2588 1.378 . S
C2586 C2590 1.350 . S
C2587 C2590 1.463 . S
C2587 C2592 1.356 . S
C2587 N2595 1.427 . S
C2588 H2579 0.930 . S
C2588 C2586 1.378 . S
C2588 C2589 1.367 . S
C2589 C2588 1.367 . S
C2589 C2591 1.433 . S
C2590 C2586 1.350 . S
C2590 C2587 1.463 . S
C2590 N2594 1.427 . S
C2591 H2581 0.929 . S
C2591 C2589 1.433 . S
C2591 N2594 1.384 . S
C2592 H2583 0.927 . S
C2592 C2584 1.373 1_545 S
C2592 C2587 1.356 . S
C2593 H2580 0.929 . S
C2593 C2585 1.433 . S
C2593 N2595 1.384 1_565 S
N2594 C2590 1.427 . S
N2594 C2591 1.384 . S
N2595 C2587 1.427 . S
N2595 C2593 1.384 1_545 S
H2596 C2602 0.930 . S
H2597 C2606 0.930 . S
H2598 C2611 0.929 . S
H2599 C2609 0.929 . S
H2600 C2604 0.929 . S
H2601 C2610 0.929 . S
C2602 H2596 0.930 . S
C2602 C2603 1.367 . S
C2602 C2610 1.378 . S
C2603 C2602 1.367 . S
C2603 C2611 1.433 . S
C2604 H2600 0.929 . S
C2604 C2606 1.378 . S
C2604 C2608 1.350 . S
C2605 C2608 1.463 . S
C2605 C2610 1.350 . S
C2605 N2613 1.427 . S
C2606 H2597 0.930 . S
C2606 C2604 1.378 . S
C2606 C2607 1.367 . S
C2607 C2606 1.367 . S
C2607 C2609 1.433 . S
C2608 C2604 1.350 . S
C2608 C2605 1.463 . S
C2608 N2612 1.427 . S
C2609 H2599 0.929 . S
C2609 C2607 1.433 . S
C2609 N2612 1.384 . S
C2610 H2601 0.929 . S
C2610 C2602 1.378 . S
C2610 C2605 1.350 . S
C2611 H2598 0.929 . S
C2611 C2603 1.433 . S
C2611 N2613 1.384 . S
N2612 C2608 1.427 . S
N2612 C2609 1.384 . S
N2613 C2605 1.427 . S
N2613 C2611 1.384 . S
H2614 C2620 0.930 . S
H2615 C2624 0.930 1_556 S
H2616 C2629 0.929 . S
H2617 C2627 0.929 . S
H2618 C2622 0.929 . S
H2619 C2628 0.929 . S
C2620 H2614 0.930 . S
C2620 C2621 1.367 1_554 S
C2620 C2628 1.378 . S
C2621 C2620 1.367 1_556 S
C2621 C2629 1.433 . S
C2622 H2618 0.929 . S
C2622 C2624 1.378 1_556 S
C2622 C2626 1.350 1_556 S
C2623 C2626 1.463 . S
C2623 C2628 1.350 . S
C2623 N2631 1.427 1_554 S
C2624 H2615 0.930 1_554 S
C2624 C2622 1.378 1_554 S
C2624 C2625 1.367 . S
C2625 C2624 1.367 . S
C2625 C2627 1.433 . S
C2626 C2622 1.350 1_554 S
C2626 C2623 1.463 . S
C2626 N2630 1.427 . S
C2627 H2617 0.929 . S
C2627 C2625 1.433 . S
C2627 N2630 1.384 . S
C2628 H2619 0.929 . S
C2628 C2620 1.378 . S
C2628 C2623 1.350 . S
C2629 H2616 0.929 . S
C2629 C2621 1.433 . S
C2629 N2631 1.384 . S
N2630 C2626 1.427 . S
N2630 C2627 1.384 . S
N2631 C2623 1.427 1_556 S
N2631 C2629 1.384 . S
H2632 C2638 0.930 . S
H2633 C2642 0.930 . S
H2634 C2647 0.929 . S
H2635 C2645 0.929 . S
H2636 C2640 0.929 . S
H2637 C2646 0.929 . S
C2638 H2632 0.930 . S
C2638 C2639 1.367 . S
C2638 C2646 1.378 . S
C2639 C2638 1.367 . S
C2639 C2647 1.433 . S
C2640 H2636 0.929 . S
C2640 C2642 1.378 . S
C2640 C2644 1.350 . S
C2641 C2644 1.463 . S
C2641 C2646 1.350 . S
C2641 N2649 1.427 . S
C2642 H2633 0.930 . S
C2642 C2640 1.378 . S
C2642 C2643 1.367 . S
C2643 C2642 1.367 . S
C2643 C2645 1.433 . S
C2644 C2640 1.350 . S
C2644 C2641 1.463 . S
C2644 N2648 1.427 . S
C2645 H2635 0.929 . S
C2645 C2643 1.433 . S
C2645 N2648 1.384 . S
C2646 H2637 0.929 . S
C2646 C2638 1.378 . S
C2646 C2641 1.350 . S
C2647 H2634 0.929 . S
C2647 C2639 1.433 . S
C2647 N2649 1.384 . S
N2648 C2644 1.427 . S
N2648 C2645 1.384 . S
N2649 C2641 1.427 . S
N2649 C2647 1.384 . S
H2650 C2656 0.930 . S
H2651 C2660 0.930 . S
H2652 C2665 0.929 . S
H2653 C2663 0.929 . S
H2654 C2658 0.929 . S
H2655 C2664 0.929 . S
C2656 H2650 0.930 . S
C2656 C2657 1.367 . S
C2656 C2664 1.378 . S
C2657 C2656 1.367 . S
C2657 C2665 1.433 1_554 S
C2658 H2654 0.929 . S
C2658 C2660 1.378 . S
C2658 C2662 1.350 1_556 S
C2659 C2662 1.463 . S
C2659 C2664 1.350 . S
C2659 N2667 1.427 1_554 S
C2660 H2651 0.930 . S
C2660 C2658 1.378 . S
C2660 C2661 1.367 . S
C2661 C2660 1.367 . S
C2661 C2663 1.433 1_556 S
C2662 C2658 1.350 1_554 S
C2662 C2659 1.463 . S
C2662 N2666 1.427 . S
C2663 H2653 0.929 . S
C2663 C2661 1.433 1_554 S
C2663 N2666 1.384 . S
C2664 H2655 0.929 . S
C2664 C2656 1.378 . S
C2664 C2659 1.350 . S
C2665 H2652 0.929 . S
C2665 C2657 1.433 1_556 S
C2665 N2667 1.384 . S
N2666 C2662 1.427 . S
N2666 C2663 1.384 . S
N2667 C2659 1.427 1_556 S
N2667 C2665 1.384 . S
H2668 C2674 0.930 . S
H2669 C2678 0.930 . S
H2670 C2683 0.929 . S
H2671 C2681 0.929 . S
H2672 C2676 0.929 . S
H2673 C2682 0.929 . S
C2674 H2668 0.930 . S
C2674 C2675 1.367 . S
C2674 C2682 1.378 . S
C2675 C2674 1.367 . S
C2675 C2683 1.433 . S
C2676 H2672 0.929 . S
C2676 C2678 1.378 . S
C2676 C2680 1.350 . S
C2677 C2680 1.463 . S
C2677 C2682 1.350 . S
C2677 N2685 1.427 . S
C2678 H2669 0.930 . S
C2678 C2676 1.378 . S
C2678 C2679 1.367 . S
C2679 C2678 1.367 . S
C2679 C2681 1.433 . S
C2680 C2676 1.350 . S
C2680 C2677 1.463 . S
C2680 N2684 1.427 . S
C2681 H2671 0.929 . S
C2681 C2679 1.433 . S
C2681 N2684 1.384 . S
C2682 H2673 0.929 . S
C2682 C2674 1.378 . S
C2682 C2677 1.350 . S
C2683 H2670 0.929 . S
C2683 C2675 1.433 . S
C2683 N2685 1.384 . S
N2684 C2680 1.427 . S
N2684 C2681 1.384 . S
N2685 C2677 1.427 . S
N2685 C2683 1.384 . S
H2686 C2692 0.930 . S
H2687 C2696 0.930 . S
H2688 C2701 0.929 . S
H2689 C2699 0.929 . S
H2690 C2694 0.929 . S
H2691 C2700 0.929 . S
C2692 H2686 0.930 . S
C2692 C2693 1.367 . S
C2692 C2700 1.378 . S
C2693 C2692 1.367 . S
C2693 C2701 1.433 . S
C2694 H2690 0.929 . S
C2694 C2696 1.378 . S
C2694 C2698 1.350 . S
C2695 C2698 1.463 . S
C2695 C2700 1.350 . S
C2695 N2703 1.427 . S
C2696 H2687 0.930 . S
C2696 C2694 1.378 . S
C2696 C2697 1.367 . S
C2697 C2696 1.367 . S
C2697 C2699 1.433 . S
C2698 C2694 1.350 . S
C2698 C2695 1.463 . S
C2698 N2702 1.427 . S
C2699 H2689 0.929 . S
C2699 C2697 1.433 . S
C2699 N2702 1.384 . S
C2700 H2691 0.929 . S
C2700 C2692 1.378 . S
C2700 C2695 1.350 . S
C2701 H2688 0.929 . S
C2701 C2693 1.433 . S
C2701 N2703 1.384 . S
N2702 C2698 1.427 . S
N2702 C2699 1.384 . S
N2703 C2695 1.427 . S
N2703 C2701 1.384 . S
C983 C109 2.035 . S
C987 C346 1.968 . S
C1001 C61 1.545 . S
C1005 C385 1.684 . S
C1019 C74 1.388 . S
C1023 C426 1.412 . S
C1041 C471 1.430 . S
C1037 C96 1.466 . S
C1055 C25 1.932 . S
C1059 C515 1.967 . S
C1077 C546 1.295 . S
C1073 C40 1.334 . S
C1095 C594 1.952 . S
C1091 C46 1.925 . S
C1109 C5 1.276 . S
C1113 C622 1.589 . S
C1131 C354 1.357 . S
C1127 C229 0.984 . S
C1145 C249 1.407 . S
C1149 C395 1.369 . S
C1167 C434 1.353 . S
C1163 C271 1.306 1_545 S
C1185 C466 1.606 . S
C1181 C172 1.558 . S
C1199 C236 0.201 . S
C1203 C502 0.203 . S
C1221 C554 2.367 . S
C1217 C242 2.360 . S
C1239 C591 0.961 . S
C1235 C278 0.983 . S
C1257 C625 1.958 . S
C1253 C179 1.968 . S
C1275 C351 1.819 . S
C1271 C159 1.477 . S
C1289 C285 1.691 . S
C1293 C665 1.836 . S
C1311 C711 1.113 . S
C1307 C333 1.148 . S
C1329 C746 1.487 1_655 S
C1325 C320 1.521 . S
C1343 C123 1.841 . S
C1347 C635 1.759 . S
C1361 C138 1.404 . S
C1365 C431 1.370 . S
C1379 C326 1.373 . S
C1383 C794 1.354 . S
C1401 C822 0.464 . S
C1397 C298 0.495 . S
C1419 C355 1.952 1_565 S
C1415 C67 1.968 . S
C1437 C834 1.611 . S
C1433 C110 1.656 . S
C1451 C88 1.417 . S
C1455 C435 1.423 . S
C1469 C75 1.258 . S
C1473 C782 1.369 . S
C1491 C506 1.851 . S
C1487 C11 1.888 . S
C1505 C47 1.268 . S
C1509 C715 1.350 . S
C1527 C585 1.877 . S
C1523 C32 1.861 . S
C1545 C871 1.702 . S
C1541 C26 1.769 . S
C1563 C345 1.522 . S
C1559 C152 1.502 . S
C1581 C826 1.382 . S
C1577 C319 1.427 . S
C1595 C124 1.304 . S
C1599 C425 1.325 . S
C1613 C284 1.613 . S
C1617 C795 1.621 . S
C1631 C145 0.810 . S
C1635 C511 0.202 . S
C1653 C705 2.258 . S
C1649 C312 2.243 . S
C1667 C117 0.906 . S
C1671 C582 0.897 . S
C1685 C291 1.885 . S
C1689 C874 1.900 . S
C1703 C194 1.995 1_556 S
C1707 C342 1.916 . S
C1721 C180 1.825 . S
C1725 C674 1.779 . S
C1739 C263 1.047 . S
C1743 C542 1.083 . S
C1757 C243 1.280 . S
C1761 C755 1.387 . S
C1779 C866 1.811 . S
C1775 C277 1.808 . S
C1793 C215 1.244 . S
C1797 C422 1.336 . S
C1815 C465 1.250 . S
C1811 C256 1.142 . S
C1833 C391 0.505 . S
C1829 C200 0.531 . S
C1847 C81 2.036 . S
C1851 C906 1.978 . S
C1869 C825 1.692 . S
C1865 C89 1.534 . S
C1883 C102 1.387 . S
C1887 C946 1.405 1_556 S
C1901 C68 1.466 . S
C1905 C791 1.436 . S
C1919 C53 1.939 . S
C1923 C675 1.962 . S
C1941 C706 1.311 . S
C1937 C12 1.331 . S
C1959 C754 1.955 . S
C1955 C18 1.924 . S
C1977 C862 1.593 . S
C1973 C33 1.272 . S
C1995 C914 1.362 . S
C1991 C257 1.023 . S
C2009 C193 1.409 . S
C2013 C835 1.373 . S
C2031 C954 1.358 . S
C2027 C201 1.318 . S
C2049 C786 1.606 . S
C2045 C214 1.556 . S
C2067 C662 0.203 . S
C2063 C264 0.202 . S
C2081 C186 2.360 . S
C2085 C714 2.361 . S
C2103 C751 0.951 . S
C2099 C208 0.974 . S
C2117 C221 1.967 . S
C2121 C865 1.957 . S
C2139 C911 1.821 . S
C2135 C313 1.477 . S
C2153 C131 1.674 . S
C2157 C505 1.844 . S
C2175 C551 1.096 . S
C2171 C151 1.139 . S
C2193 C586 1.477 . S
C2189 C166 1.518 . S
C2211 C875 1.764 . S
C2207 C305 1.837 . S
C2225 C292 1.410 . S
C2229 C951 1.382 . S
C2247 C474 1.348 . S
C2243 C144 1.366 . S
C2265 C382 0.469 . S
C2261 C116 0.492 . S
C2279 C95 1.967 . S
C2283 C915 1.959 . S
C2301 C394 1.616 . S
C2297 C82 1.657 . S
C2315 C60 1.418 . S
C2319 C955 1.424 . S
C2333 C103 1.252 . S
C2337 C462 1.369 . S
C2351 C39 1.888 . S
C2355 C666 1.849 1_556 S
C2373 C555 1.354 . S
C2369 C19 1.271 . S
C2387 C4 1.859 . S
C2391 C745 1.878 . S
C2405 C54 1.769 . S
C2409 C631 1.704 . S
C2427 C905 1.523 . S
C2423 C334 1.502 . S
C2441 C165 1.430 . S
C2445 C386 1.390 . S
C2463 C945 1.327 . S
C2459 C306 1.297 . S
C2477 C130 1.606 . S
C2481 C475 1.621 . S
C2495 C327 0.805 . S
C2499 C671 0.204 . S
C2517 C545 2.262 . S
C2513 C158 2.249 1_556 S
C2531 C299 0.922 . S
C2535 C742 0.912 . S
C2553 C634 1.904 . S
C2549 C137 1.881 . S
C2571 C902 1.921 . S
C2567 C250 1.999 . S
C2589 C514 1.789 1_655 S
C2585 C222 1.827 . S
C2603 C235 1.049 . S
C2607 C702 1.085 . S
C2625 C595 1.388 . S
C2621 C187 1.284 . S
C2639 C207 1.822 . S
C2643 C626 1.825 . S
C2657 C173 1.218 . S
C2661 C942 1.350 . S
C2679 C785 1.238 . S
C2675 C228 1.124 1_565 S
C2697 C831 0.508 . S
C2693 C270 0.530 . S
