# Generated by pormake.
# Topology soc, (4,6)-cn, num edge types: 1
# Building blocks:
#     Node 0, Type 0, BuildingBlock: ESEHIV_clean_sbu_0, # of connection points: 4
#     Node 1, Type 0, BuildingBlock: ESEHIV_clean_sbu_0, # of connection points: 4
#     Node 2, Type 0, BuildingBlock: ESEHIV_clean_sbu_0, # of connection points: 4
#     Node 3, Type 0, BuildingBlock: ESEHIV_clean_sbu_0, # of connection points: 4
#     Node 4, Type 0, BuildingBlock: ESEHIV_clean_sbu_0, # of connection points: 4
#     Node 5, Type 0, BuildingBlock: ESEHIV_clean_sbu_0, # of connection points: 4
#     Node 6, Type 0, BuildingBlock: ESEHIV_clean_sbu_0, # of connection points: 4
#     Node 7, Type 0, BuildingBlock: ESEHIV_clean_sbu_0, # of connection points: 4
#     Node 8, Type 0, BuildingBlock: ESEHIV_clean_sbu_0, # of connection points: 4
#     Node 9, Type 0, BuildingBlock: ESEHIV_clean_sbu_0, # of connection points: 4
#     Node 10, Type 0, BuildingBlock: ESEHIV_clean_sbu_0, # of connection points: 4
#     Node 11, Type 0, BuildingBlock: ESEHIV_clean_sbu_0, # of connection points: 4
#     Node 12, Type 1, BuildingBlock: BETGAK_clean_sbu_0, # of connection points: 6
#     Node 13, Type 1, BuildingBlock: BETGAK_clean_sbu_0, # of connection points: 6
#     Node 14, Type 1, BuildingBlock: BETGAK_clean_sbu_0, # of connection points: 6
#     Node 15, Type 1, BuildingBlock: BETGAK_clean_sbu_0, # of connection points: 6
#     Node 16, Type 1, BuildingBlock: BETGAK_clean_sbu_0, # of connection points: 6
#     Node 17, Type 1, BuildingBlock: BETGAK_clean_sbu_0, # of connection points: 6
#     Node 18, Type 1, BuildingBlock: BETGAK_clean_sbu_0, # of connection points: 6
#     Node 19, Type 1, BuildingBlock: BETGAK_clean_sbu_0, # of connection points: 6
#     Edge 20, Type (0, 1), BuildingBlock: XUDNAN_clean_linker_2, # of connection points: 2
#     Edge 21, Type (0, 1), BuildingBlock: XUDNAN_clean_linker_2, # of connection points: 2
#     Edge 22, Type (0, 1), BuildingBlock: XUDNAN_clean_linker_2, # of connection points: 2
#     Edge 23, Type (0, 1), BuildingBlock: XUDNAN_clean_linker_2, # of connection points: 2
#     Edge 24, Type (0, 1), BuildingBlock: XUDNAN_clean_linker_2, # of connection points: 2
#     Edge 25, Type (0, 1), BuildingBlock: XUDNAN_clean_linker_2, # of connection points: 2
#     Edge 26, Type (0, 1), BuildingBlock: XUDNAN_clean_linker_2, # of connection points: 2
#     Edge 27, Type (0, 1), BuildingBlock: XUDNAN_clean_linker_2, # of connection points: 2
#     Edge 28, Type (0, 1), BuildingBlock: XUDNAN_clean_linker_2, # of connection points: 2
#     Edge 29, Type (0, 1), BuildingBlock: XUDNAN_clean_linker_2, # of connection points: 2
#     Edge 30, Type (0, 1), BuildingBlock: XUDNAN_clean_linker_2, # of connection points: 2
#     Edge 31, Type (0, 1), BuildingBlock: XUDNAN_clean_linker_2, # of connection points: 2
#     Edge 32, Type (0, 1), BuildingBlock: XUDNAN_clean_linker_2, # of connection points: 2
#     Edge 33, Type (0, 1), BuildingBlock: XUDNAN_clean_linker_2, # of connection points: 2
#     Edge 34, Type (0, 1), BuildingBlock: XUDNAN_clean_linker_2, # of connection points: 2
#     Edge 35, Type (0, 1), BuildingBlock: XUDNAN_clean_linker_2, # of connection points: 2
#     Edge 36, Type (0, 1), BuildingBlock: XUDNAN_clean_linker_2, # of connection points: 2
#     Edge 37, Type (0, 1), BuildingBlock: XUDNAN_clean_linker_2, # of connection points: 2
#     Edge 38, Type (0, 1), BuildingBlock: XUDNAN_clean_linker_2, # of connection points: 2
#     Edge 39, Type (0, 1), BuildingBlock: XUDNAN_clean_linker_2, # of connection points: 2
#     Edge 40, Type (0, 1), BuildingBlock: XUDNAN_clean_linker_2, # of connection points: 2
#     Edge 41, Type (0, 1), BuildingBlock: XUDNAN_clean_linker_2, # of connection points: 2
#     Edge 42, Type (0, 1), BuildingBlock: XUDNAN_clean_linker_2, # of connection points: 2
#     Edge 43, Type (0, 1), BuildingBlock: XUDNAN_clean_linker_2, # of connection points: 2
#     Edge 44, Type (0, 1), BuildingBlock: XUDNAN_clean_linker_2, # of connection points: 2
#     Edge 45, Type (0, 1), BuildingBlock: XUDNAN_clean_linker_2, # of connection points: 2
#     Edge 46, Type (0, 1), BuildingBlock: XUDNAN_clean_linker_2, # of connection points: 2
#     Edge 47, Type (0, 1), BuildingBlock: XUDNAN_clean_linker_2, # of connection points: 2
#     Edge 48, Type (0, 1), BuildingBlock: XUDNAN_clean_linker_2, # of connection points: 2
#     Edge 49, Type (0, 1), BuildingBlock: XUDNAN_clean_linker_2, # of connection points: 2
#     Edge 50, Type (0, 1), BuildingBlock: XUDNAN_clean_linker_2, # of connection points: 2
#     Edge 51, Type (0, 1), BuildingBlock: XUDNAN_clean_linker_2, # of connection points: 2
#     Edge 52, Type (0, 1), BuildingBlock: XUDNAN_clean_linker_2, # of connection points: 2
#     Edge 53, Type (0, 1), BuildingBlock: XUDNAN_clean_linker_2, # of connection points: 2
#     Edge 54, Type (0, 1), BuildingBlock: XUDNAN_clean_linker_2, # of connection points: 2
#     Edge 55, Type (0, 1), BuildingBlock: XUDNAN_clean_linker_2, # of connection points: 2
#     Edge 56, Type (0, 1), BuildingBlock: XUDNAN_clean_linker_2, # of connection points: 2
#     Edge 57, Type (0, 1), BuildingBlock: XUDNAN_clean_linker_2, # of connection points: 2
#     Edge 58, Type (0, 1), BuildingBlock: XUDNAN_clean_linker_2, # of connection points: 2
#     Edge 59, Type (0, 1), BuildingBlock: XUDNAN_clean_linker_2, # of connection points: 2
#     Edge 60, Type (0, 1), BuildingBlock: XUDNAN_clean_linker_2, # of connection points: 2
#     Edge 61, Type (0, 1), BuildingBlock: XUDNAN_clean_linker_2, # of connection points: 2
#     Edge 62, Type (0, 1), BuildingBlock: XUDNAN_clean_linker_2, # of connection points: 2
#     Edge 63, Type (0, 1), BuildingBlock: XUDNAN_clean_linker_2, # of connection points: 2
#     Edge 64, Type (0, 1), BuildingBlock: XUDNAN_clean_linker_2, # of connection points: 2
#     Edge 65, Type (0, 1), BuildingBlock: XUDNAN_clean_linker_2, # of connection points: 2
#     Edge 66, Type (0, 1), BuildingBlock: XUDNAN_clean_linker_2, # of connection points: 2
#     Edge 67, Type (0, 1), BuildingBlock: XUDNAN_clean_linker_2, # of connection points: 2
# Relax obj value: 0.185
# Max RMSD: 0.280
# Mean RMSD: 0.174
data_MOF--net-soc--node1-ESEHIV_clean_sbu_0--node2-BETGAK_clean_sbu_0--edge1-XUDNAN_clean_linker_2
_symmetry_space_group_name_H-M    P1
_symmetry_Int_Tables_number       1
_symmetry_cell_setting            triclinic
loop_
_symmetry_equiv_pos_as_xyz
'x, y, z'
_cell_length_a     50.505804
_cell_length_b     49.799892
_cell_length_c     43.639193
_cell_angle_alpha  81.910171
_cell_angle_beta   82.943112
_cell_angle_gamma 69.578857
loop_
_atom_site_label
_atom_site_type_symbol
_atom_site_fract_x
_atom_site_fract_y
_atom_site_fract_z
_atom_type_partial_charge
Cu0 Cu 0.06138 0.04001 0.38336 0.0
N1 N 0.07234 0.06073 0.40877 0.0
N2 N 0.08943 0.09283 0.42201 0.0
C3 C 0.0893 0.07658 0.39979 0.0
C4 C 0.07196 0.08687 0.44588 0.0
C5 C 0.06138 0.06713 0.4376 0.0
O6 O 0.09446 0.01537 0.36054 0.0
C7 C 1.00862 0.08 0.3681 0.0
O8 O 1.00048 0.06945 0.39546 0.0
H9 H 0.0998 0.0776 0.3767 0.0
H10 H 0.04562 0.05923 0.45098 0.0
N11 N 0.04468 0.01513 0.40705 0.0
N12 N 1.02136 0.98383 0.41831 0.0
C13 C 1.02727 1.00372 0.39689 0.0
C14 C 0.05024 1.00183 0.43577 0.0
C15 C 0.03578 0.98256 0.44284 0.0
C16 C 0.1159 1.00116 0.37576 0.0
O17 O 0.11539 1.00564 0.40481 0.0
H18 H 1.02012 1.00905 0.37371 0.0
H19 H 0.0646 1.00515 0.45011 0.0
O20 O 1.03424 0.06903 0.35721 0.0
H21 H 0.06642 0.09685 0.46733 0.0
H22 H 0.0362 0.96844 0.46417 0.0
Cu23 Cu 0.0627 0.05422 0.74055 0.0
N24 N 0.04588 0.03809 0.71565 0.0
N25 N 1.01716 0.017 0.70241 0.0
C26 C 1.02484 0.02745 0.72549 0.0
C27 C 1.03406 0.02113 0.6771 0.0
C28 C 0.05188 0.03399 0.68537 0.0
O29 O 1.03184 0.08042 0.76481 0.0
C30 C 0.10469 1.00062 0.7523 0.0
O31 O 0.09958 0.99822 0.72422 0.0
H32 H 1.01531 0.02748 0.74911 0.0
H33 H 0.06859 0.03912 0.67053 0.0
N34 N 0.08238 0.0765 0.71685 0.0
N35 N 0.10937 0.10447 0.70701 0.0
C36 C 0.10026 0.08649 0.72829 0.0
C37 C 0.07994 0.08861 0.68729 0.0
C38 C 0.09667 0.10574 0.68111 0.0
C39 C 1.0148 0.10096 0.74846 0.0
O40 O 1.01929 0.10216 0.71809 0.0
H41 H 0.10533 0.08165 0.75227 0.0
H42 H 0.06602 0.08631 0.67168 0.0
O43 O 0.09032 0.02345 0.76499 0.0
H44 H 1.03413 0.01451 0.65449 0.0
H45 H 0.0988 0.11853 0.65937 0.0
Cu46 Cu 0.30628 0.06497 0.10382 0.0
N47 N 0.27125 0.06766 0.092 0.0
N48 N 0.2399 0.0547 0.07126 0.0
C49 C 0.2664 0.04644 0.08034 0.0
C50 C 0.22753 0.08235 0.07741 0.0
C51 C 0.24695 0.09026 0.09045 0.0
O52 O 0.3243 0.02381 0.11736 0.0
C53 C 0.31475 0.10801 0.05982 0.0
O54 O 0.29367 0.12342 0.07769 0.0
H55 H 0.28258 0.02578 0.07709 0.0
H56 H 0.24386 0.11121 0.09743 0.0
N57 N 0.30012 0.08684 0.13704 0.0
N58 N 0.3033 0.11653 0.16922 0.0
C59 C 0.31472 0.10319 0.1434 0.0
C60 C 0.27899 0.08971 0.15961 0.0
C61 C 0.28088 0.10795 0.17949 0.0
C62 C 0.33162 1.01385 0.14482 0.0
O63 O 0.33197 0.03167 0.16413 0.0
H64 H 0.33289 0.10573 0.12896 0.0
H65 H 0.26327 0.07924 0.16139 0.0
O66 O 0.3251 0.08088 0.06735 0.0
H67 H 0.20629 0.09599 0.07224 0.0
H68 H 0.2669 0.11417 0.20007 0.0
Cu69 Cu 0.09489 0.30468 0.11748 0.0
N70 N 0.10603 0.32804 0.08429 0.0
N71 N 0.12713 0.34092 0.03909 0.0
C72 C 0.126 0.31899 0.06086 0.0
C73 C 0.10694 0.36457 0.04947 0.0
C74 C 0.09405 0.35659 0.07715 0.0
O75 O 0.12609 0.28787 0.14529 0.0
C76 C 0.06045 0.29543 0.08058 0.0
O77 O 0.0529 0.32357 0.07967 0.0
H78 H 0.13911 0.29667 0.05976 0.0
H79 H 0.07647 0.37052 0.09053 0.0
N80 N 0.0635 0.32613 0.14197 0.0
N81 N 1.02088 0.339 0.16842 0.0
C82 C 0.04036 0.31878 0.15219 0.0
C83 C 0.05874 0.35159 0.15265 0.0
C84 C 1.0324 0.35968 0.16878 0.0
C85 C 0.13887 0.3049 0.14998 0.0
O86 O 0.13149 0.33089 0.13509 0.0
H87 H 0.03752 0.29938 0.14701 0.0
H88 H 0.07328 0.36356 0.14874 0.0
O89 O 0.08062 0.27997 0.09732 0.0
H90 H 0.10104 0.38611 0.03754 0.0
H91 H 1.02251 0.37928 0.17991 0.0
Cu92 Cu 0.79095 0.02038 1.01744 0.0
N93 N 0.81215 0.03875 0.98973 0.0
N94 N 0.82037 0.07674 0.96198 0.0
C95 C 0.80425 0.06762 0.98502 0.0
C96 C 0.83912 0.05256 0.95119 0.0
C97 C 0.834 0.029 0.96849 0.0
O98 O 0.77 0.04898 0.0465 0.0
C99 C 0.78421 0.98142 0.9821 0.0
O100 O 0.81033 0.96808 0.98964 0.0
H101 H 0.78607 0.08182 0.99747 0.0
H102 H 0.84483 1.00654 0.96519 0.0
N103 N 0.81169 0.98887 0.04343 0.0
N104 N 0.81607 0.95347 0.08204 0.0
C105 C 0.79863 0.9728 0.06225 0.0
C106 C 0.83862 0.97937 0.05142 0.0
C107 C 0.84134 0.95747 0.07552 0.0
C108 C 0.78737 0.05592 0.06011 0.0
O109 O 0.81462 0.04335 0.05326 0.0
H110 H 0.77626 0.97619 0.06228 0.0
H111 H 0.85473 0.9884 0.04132 0.0
O112 O 0.77025 1.00583 0.99208 0.0
H113 H 0.85512 0.05197 0.93212 0.0
H114 H 0.86022 0.9457 0.08749 0.0
Cu115 Cu 0.03925 0.7647 1.01908 0.0
N116 N 1.02491 0.74692 0.99275 0.0
N117 N 0.99777 0.7365 0.96225 0.0
C118 C 0.99929 0.7555 0.98085 0.0
C119 C 1.02345 0.71558 0.96231 0.0
C120 C 0.04001 0.72209 0.98087 0.0
O121 O 1.00785 0.78584 0.0487 0.0
C122 C 0.07743 0.79895 0.99907 0.0
O123 O 0.06857 0.81091 0.02511 0.0
H124 H 0.98204 0.77491 0.98612 0.0
H125 H 0.06172 0.7096 0.98536 0.0
N126 N 0.06347 0.73709 0.04597 0.0
N127 N 0.09261 0.72116 0.08424 0.0
C128 C 0.08054 0.74327 0.06315 0.0
C129 C 0.06473 0.70996 0.05651 0.0
C130 C 0.08271 0.70007 0.08023 0.0
C131 C 0.99299 0.77124 0.06406 0.0
O132 O 0.99765 0.74518 0.05676 0.0
H133 H 0.08255 0.76431 0.06171 0.0
H134 H 0.05241 0.69872 0.04862 0.0
O135 O 0.06554 0.78205 0.99199 0.0
H136 H 1.02996 0.69687 0.94957 0.0
H137 H 0.08744 0.67936 0.09402 0.0
Cu138 Cu 0.55635 0.53938 0.8807 0.0
N139 N 0.56375 0.56193 0.90668 0.0
N140 N 0.57812 0.59537 0.92124 0.0
C141 C 0.58149 0.57709 0.89988 0.0
C142 C 0.55781 0.59117 0.94254 0.0
C143 C 0.54898 0.57048 0.93347 0.0
O144 O 0.5919 0.52041 0.85638 0.0
C145 C 0.51922 0.59098 0.85035 0.0
O146 O 0.5401 0.60076 0.85118 0.0
H147 H 0.59477 0.5765 0.87836 0.0
H148 H 0.53187 0.56338 0.94461 0.0
N149 N 0.54531 0.51128 0.90582 0.0
N150 N 0.52389 0.479 0.9214 0.0
C151 C 0.52723 0.49918 0.89875 0.0
C152 C 0.55366 0.49849 0.93397 0.0
C153 C 0.54026 0.47857 0.94378 0.0
C154 C 0.59982 0.49392 0.85156 0.0
O155 O 0.58173 0.47998 0.8584 0.0
H156 H 0.51675 0.50509 0.87737 0.0
H157 H 0.56854 0.50321 0.94632 0.0
O158 O 0.52332 0.56429 0.85852 0.0
H159 H 0.54907 0.60311 0.96246 0.0
H160 H 0.54275 0.46451 0.96532 0.0
Cu161 Cu 0.58163 0.55028 0.2465 0.0
N162 N 0.56689 0.53052 0.22355 0.0
N163 N 0.54628 0.49996 0.21358 0.0
C164 C 0.54985 0.51519 0.23502 0.0
C165 C 0.56175 0.50581 0.1877 0.0
C166 C 0.57448 0.52461 0.19394 0.0
O167 O 0.55185 0.57716 0.2707 0.0
C168 C 0.63177 0.50626 0.26026 0.0
O169 O 0.63906 0.51377 0.23127 0.0
H170 H 0.54151 0.51404 0.25906 0.0
H171 H 0.58934 0.53225 0.17843 0.0
N172 N 0.60078 0.57201 0.22076 0.0
N173 N 0.63057 0.59648 0.20527 0.0
C174 C 0.62242 0.57909 0.22822 0.0
C175 C 0.59469 0.58571 0.19232 0.0
C176 C 0.61316 0.60065 0.18261 0.0
C177 C 0.52672 0.58764 0.26226 0.0
O178 O 0.52044 0.57888 0.23798 0.0
H179 H 0.63193 0.57157 0.25013 0.0
H180 H 0.57758 0.58542 0.17986 0.0
O181 O 0.60764 0.52046 0.27257 0.0
H182 H 0.56433 0.49651 0.16608 0.0
H183 H 0.61313 0.61424 0.16094 0.0
Cu184 Cu 0.82823 0.58187 0.58719 0.0
N185 N 0.84935 0.58984 0.55051 0.0
N186 N 0.86292 0.61139 0.50566 0.0
C187 C 0.84245 0.61322 0.52932 0.0
C188 C 0.88332 0.5858 0.51254 0.0
C189 C 0.8749 0.57267 0.53988 0.0
O190 O 0.8161 0.61528 0.61154 0.0
C191 C 0.80974 0.54728 0.55865 0.0
O192 O 0.83736 0.53673 0.55314 0.0
H193 H 0.82272 0.63101 0.53128 0.0
H194 H 0.88661 0.5518 0.55106 0.0
N195 N 0.85157 0.55085 0.61176 0.0
N196 N 0.86652 0.50982 0.64329 0.0
C197 C 0.84441 0.52925 0.62871 0.0
C198 C 0.879 0.54514 0.61586 0.0
C199 C 0.88829 0.51995 0.63504 0.0
C200 C 0.83598 0.62504 0.61378 0.0
O201 O 0.8608 0.6129 0.59924 0.0
H202 H 0.82335 0.52799 0.63009 0.0
H203 H 0.89158 0.55817 0.60532 0.0
O204 O 0.79917 0.5687 0.57466 0.0
H205 H 0.90324 0.57699 0.49911 0.0
H206 H 0.90969 0.50992 0.64186 0.0
Cu207 Cu 0.59405 0.79553 0.60277 0.0
N208 N 0.5999 0.81889 0.5659 0.0
N209 N 0.62064 0.83325 0.52072 0.0
C210 C 0.62452 0.81569 0.54779 0.0
C211 C 0.59251 0.84821 0.52223 0.0
C212 C 0.57989 0.8393 0.54979 0.0
O213 O 0.62757 0.7873 0.62606 0.0
C214 C 0.59513 0.75483 0.56207 0.0
O215 O 0.61498 0.76268 0.54501 0.0
H216 H 0.64472 0.80007 0.55391 0.0
H217 H 0.55748 0.84638 0.55702 0.0
N218 N 0.55963 0.81243 0.62715 0.0
N219 N 0.51894 0.81538 0.65721 0.0
C220 C 0.54239 0.79812 0.64174 0.0
C221 C 0.54664 0.83986 0.63348 0.0
C222 C 0.52175 0.84174 0.65188 0.0
C223 C 0.62806 0.79074 0.65447 0.0
O224 O 0.60443 0.79685 0.67257 0.0
H225 H 0.54703 0.77538 0.6406 0.0
H226 H 0.55466 0.85731 0.62529 0.0
O227 O 0.58806 0.76232 0.58946 0.0
H228 H 0.58148 0.86376 0.50409 0.0
H229 H 0.50709 0.86115 0.66078 0.0
Cu230 Cu 0.30491 0.50953 0.5454 0.0
N231 N 0.32693 0.53026 0.52238 0.0
N232 N 0.33348 0.5697 0.49539 0.0
C233 C 0.31454 0.55723 0.50911 0.0
C234 C 0.35907 0.54938 0.49996 0.0
C235 C 0.35498 0.52511 0.51673 0.0
O236 O 0.27871 0.53772 0.57108 0.0
C237 C 0.30391 0.48145 0.49611 0.0
O238 O 0.33108 0.47749 0.49551 0.0
H239 H 0.29177 0.56749 0.50988 0.0
H240 H 0.37129 0.50547 0.52466 0.0
N241 N 0.32302 0.47721 0.57288 0.0
N242 N 0.32512 0.44249 0.61247 0.0
C243 C 0.30824 0.46479 0.59454 0.0
C244 C 0.35046 0.46229 0.57715 0.0
C245 C 0.35181 0.4409 0.6016 0.0
C246 C 0.29144 0.54304 0.59169 0.0
O247 O 0.31857 0.52854 0.59364 0.0
H248 H 0.28533 0.47252 0.59733 0.0
H249 H 0.36821 0.46663 0.56365 0.0
O250 O 0.28706 0.49615 0.5166 0.0
H251 H 0.37933 0.55206 0.49259 0.0
H252 H 0.37096 0.42521 0.61033 0.0
Cu253 Cu 0.53716 0.26846 0.52834 0.0
N254 N 0.57031 0.24735 0.50594 0.0
N255 N 0.61366 0.23866 0.48135 0.0
C256 C 0.59289 0.25618 0.49917 0.0
C257 C 0.60362 0.21797 0.47628 0.0
C258 C 0.57683 0.22337 0.49157 0.0
O259 O 0.54955 0.29317 0.55056 0.0
C260 C 0.49623 0.27084 0.49001 0.0
O261 O 0.50489 0.24346 0.50064 0.0
H262 H 0.59372 0.27573 0.50651 0.0
H263 H 0.563 0.21094 0.49177 0.0
N264 N 0.5228 0.24636 0.56009 0.0
N265 N 0.50007 0.23742 0.60563 0.0
C266 C 0.50782 0.25727 0.5859 0.0
C267 C 0.52471 0.21845 0.56358 0.0
C268 C 0.51045 0.21293 0.59164 0.0
C269 C 0.56764 0.27851 0.57002 0.0
O270 O 0.57484 0.2503 0.57283 0.0
H271 H 0.50281 0.27947 0.59016 0.0
H272 H 0.53583 0.20316 0.54709 0.0
O273 O 0.50769 0.2873 0.49894 0.0
H274 H 0.61483 0.20021 0.46267 0.0
H275 H 0.5086 0.19237 0.60139 0.0
La276 La 0.29173 0.29217 0.34599 0.0
La277 La 0.32738 0.3176 0.2979 0.0
C278 C 0.25845 0.26858 0.37631 0.0
C279 C 0.23998 0.25196 0.37265 0.0
C280 C 0.2491 0.22201 0.38093 0.0
C281 C 0.23014 0.20686 0.3831 0.0
C282 C 0.20161 0.22144 0.37735 0.0
C283 C 0.19293 0.25106 0.36726 0.0
C284 C 0.21188 0.26618 0.36499 0.0
C285 C 0.33974 0.29147 0.3652 0.0
C286 C 0.32531 0.25774 0.2893 0.0
C287 C 0.36294 0.33907 0.26909 0.0
C288 C 0.38227 0.35481 0.27277 0.0
C289 C 0.37453 0.38462 0.26372 0.0
C290 C 0.39466 0.3985 0.26087 0.0
C291 C 0.42298 0.38275 0.26659 0.0
C292 C 0.43026 0.35339 0.27758 0.0
C293 C 0.41016 0.33956 0.28064 0.0
C294 C 0.27968 0.31857 0.27759 0.0
C295 C 0.29082 0.35323 0.35296 0.0
O296 O 0.28592 0.25569 0.37233 0.0
O297 O 0.2506 0.29575 0.36495 0.0
O298 O 0.31715 0.29241 0.38304 0.0
O299 O 0.33613 0.28756 0.3383 0.0
O300 O 0.30319 0.26313 0.30996 0.0
O301 O 0.34144 0.27413 0.284 0.0
O302 O 0.33556 0.35298 0.27146 0.0
O303 O 0.36945 0.31227 0.28155 0.0
O304 O 0.30229 0.31858 0.26015 0.0
O305 O 0.28311 0.32171 0.30497 0.0
O306 O 0.31376 0.3478 0.33332 0.0
O307 O 0.27547 0.3361 0.35797 0.0
H308 H 0.27054 0.21047 0.38726 0.0
H309 H 0.2374 0.18408 0.39112 0.0
H310 H 0.17115 0.26278 0.36226 0.0
H311 H 0.20409 0.28924 0.35859 0.0
H312 H 0.3533 0.39693 0.25721 0.0
H313 H 0.38848 0.42113 0.2522 0.0
H314 H 0.45188 0.34079 0.28252 0.0
H315 H 0.41693 0.31658 0.28761 0.0
La316 La 0.81465 0.31395 0.33547 0.0
La317 La 0.81407 0.26684 0.29847 0.0
C318 C 0.80222 0.35943 0.36172 0.0
C319 C 0.79747 0.37364 0.39063 0.0
C320 C 0.81893 0.38251 0.39889 0.0
C321 C 0.81345 0.40097 0.42196 0.0
C322 C 0.78631 0.41121 0.43742 0.0
C323 C 0.76514 0.40121 0.43042 0.0
C324 C 0.77058 0.38279 0.40704 0.0
C325 C 0.85837 0.26565 0.34152 0.0
C326 C 0.77869 0.27248 0.36283 0.0
C327 C 0.82504 0.22611 0.26525 0.0
C328 C 0.81197 0.20842 0.25205 0.0
C329 C 0.78422 0.21981 0.24257 0.0
C330 C 0.77426 0.20412 0.22518 0.0
C331 C 0.79198 0.17693 0.2168 0.0
C332 C 0.81914 0.16506 0.2279 0.0
C333 C 0.82899 0.18064 0.2453 0.0
C334 C 0.77084 0.31522 0.29372 0.0
C335 C 0.8495 0.30771 0.27313 0.0
O336 O 0.82811 0.34348 0.35337 0.0
O337 O 0.78324 0.34932 0.35465 0.0
O338 O 0.85933 0.29092 0.34381 0.0
O339 O 0.83318 0.26783 0.33899 0.0
O340 O 0.78581 0.29533 0.36539 0.0
O341 O 0.78888 0.25631 0.33952 0.0
O342 O 0.82778 0.22203 0.29522 0.0
O343 O 0.81762 0.25338 0.25446 0.0
O344 O 0.76883 0.29012 0.29295 0.0
O345 O 0.79628 0.31262 0.29487 0.0
O346 O 0.84999 0.28067 0.27693 0.0
O347 O 0.83068 0.32699 0.28969 0.0
H348 H 0.83974 0.37626 0.38649 0.0
H349 H 0.83035 0.40791 0.42713 0.0
H350 H 0.744 0.40879 0.44188 0.0
H351 H 0.75343 0.37675 0.40093 0.0
H352 H 0.77069 0.24127 0.24747 0.0
H353 H 0.75328 0.21389 0.21695 0.0
H354 H 0.83314 0.14397 0.22233 0.0
H355 H 0.85045 0.17143 0.25235 0.0
La356 La 0.81178 0.77467 0.29681 0.0
La357 La 0.82241 0.82593 0.31285 0.0
C358 C 0.80268 0.72756 0.30014 0.0
C359 C 0.79433 0.71061 0.28059 0.0
C360 C 0.7824 0.7231 0.25239 0.0
C361 C 0.76922 0.70875 0.2373 0.0
C362 C 0.76768 0.68175 0.25028 0.0
C363 C 0.78115 0.66868 0.2776 0.0
C364 C 0.7943 0.68303 0.29263 0.0
C365 C 0.79033 0.82048 0.2582 0.0
C366 C 0.77094 0.8138 0.347 0.0
C367 C 0.8326 0.87146 0.31685 0.0
C368 C 0.85374 0.87901 0.33098 0.0
C369 C 0.86 0.86933 0.36195 0.0
C370 C 0.88006 0.87694 0.3748 0.0
C371 C 0.89442 0.89418 0.35689 0.0
C372 C 0.88828 0.90352 0.32577 0.0
C373 C 0.86807 0.89608 0.31302 0.0
C374 C 0.84484 0.77727 0.34887 0.0
C375 C 0.8593 0.79328 0.25502 0.0
O376 O 0.828 0.72966 0.29448 0.0
O377 O 0.78328 0.75215 0.3057 0.0
O378 O 0.79674 0.7943 0.2517 0.0
O379 O 0.79179 0.82056 0.28687 0.0
O380 O 0.78539 0.78692 0.34105 0.0
O381 O 0.7786 0.83492 0.33131 0.0
O382 O 0.81446 0.86264 0.33573 0.0
O383 O 0.84221 0.85596 0.29357 0.0
O384 O 0.83517 0.80243 0.35856 0.0
O385 O 0.84347 0.78034 0.32018 0.0
O386 O 0.8502 0.81649 0.27017 0.0
O387 O 0.84907 0.77176 0.26315 0.0
H388 H 0.78198 0.74454 0.24291 0.0
H389 H 0.7589 0.7195 0.21643 0.0
H390 H 0.78075 0.64771 0.28791 0.0
H391 H 0.80328 0.67314 0.31447 0.0
H392 H 0.84934 0.85598 0.3763 0.0
H393 H 0.88399 0.86966 0.39892 0.0
H394 H 0.89929 0.91636 0.31112 0.0
H395 H 0.86369 0.90359 0.28901 0.0
La396 La 0.30407 0.78687 0.30284 0.0
La397 La 0.34307 0.80213 0.33939 0.0
C398 C 0.26694 0.78245 0.27262 0.0
C399 C 0.24527 0.77973 0.25446 0.0
C400 C 0.25231 0.77269 0.22374 0.0
C401 C 0.23322 0.76621 0.20788 0.0
C402 C 0.2067 0.76651 0.22243 0.0
C403 C 0.19923 0.77474 0.25273 0.0
C404 C 0.2183 0.78132 0.26856 0.0
C405 C 0.35606 0.74966 0.30316 0.0
C406 C 0.32998 0.83571 0.27385 0.0
C407 C 0.38053 0.80632 0.3699 0.0
C408 C 0.40383 0.79201 0.39016 0.0
C409 C 0.42188 0.80704 0.39373 0.0
C410 C 0.44327 0.79554 0.41409 0.0
C411 C 0.44725 0.76856 0.43138 0.0
C412 C 0.42923 0.75328 0.42752 0.0
C413 C 0.40766 0.76492 0.407 0.0
C414 C 0.2908 0.83937 0.33888 0.0
C415 C 0.31772 0.75301 0.36763 0.0
O416 O 0.29302 0.77862 0.26108 0.0
O417 O 0.26153 0.78976 0.30102 0.0
O418 O 0.33369 0.74315 0.30162 0.0
O419 O 0.34934 0.77666 0.30197 0.0
O420 O 0.30922 0.82506 0.27451 0.0
O421 O 0.34839 0.82721 0.29537 0.0
O422 O 0.35472 0.80877 0.38151 0.0
O423 O 0.38491 0.8011 0.3408 0.0
O424 O 0.31289 0.84581 0.34187 0.0
O425 O 0.29785 0.8124 0.33996 0.0
O426 O 0.33951 0.7623 0.36598 0.0
O427 O 0.29801 0.76346 0.34763 0.0
H428 H 0.27298 0.77118 0.21227 0.0
H429 H 0.23976 0.75976 0.18467 0.0
H430 H 0.17879 0.77562 0.26442 0.0
H431 H 0.21226 0.78669 0.29221 0.0
H432 H 0.41907 0.8281 0.38114 0.0
H433 H 0.4562 0.80827 0.41687 0.0
H434 H 0.43181 0.73238 0.44033 0.0
H435 H 0.39385 0.75302 0.40456 0.0
La436 La 0.31099 0.81438 0.84705 0.0
La437 La 0.29842 0.77163 0.81494 0.0
C438 C 0.313 0.85303 0.87723 0.0
C439 C 0.29457 0.87525 0.89639 0.0
C440 C 0.30716 0.88501 0.91725 0.0
C441 C 0.29055 0.9053 0.93687 0.0
C442 C 0.26093 0.91627 0.936 0.0
C443 C 0.24824 0.90674 0.91475 0.0
C444 C 0.26499 0.8861 0.89516 0.0
C445 C 0.34601 0.76051 0.85611 0.0
C446 C 0.25818 0.79463 0.87268 0.0
C447 C 0.30171 0.72687 0.79151 0.0
C448 C 0.29377 0.71773 0.76433 0.0
C449 C 0.26529 0.72446 0.75831 0.0
C450 C 0.25842 0.71151 0.73536 0.0
C451 C 0.2799 0.69159 0.71833 0.0
C452 C 0.30837 0.68644 0.72305 0.0
C453 C 0.3152 0.69929 0.74589 0.0
C454 C 0.26504 0.82489 0.80009 0.0
C455 C 0.34891 0.79642 0.78678 0.0
O456 O 0.31693 0.82643 0.88905 0.0
O457 O 0.30954 0.85698 0.84749 0.0
O458 O 0.35308 0.78322 0.85421 0.0
O459 O 0.31947 0.76831 0.85503 0.0
O460 O 0.26874 0.81589 0.86812 0.0
O461 O 0.27061 0.77126 0.85803 0.0
O462 O 0.28145 0.73931 0.81177 0.0
O463 O 0.32129 0.73884 0.78664 0.0
O464 O 0.25943 0.80216 0.79657 0.0
O465 O 0.29057 0.81719 0.8061 0.0
O466 O 0.3379 0.77544 0.78892 0.0
O467 O 0.33854 0.81747 0.80496 0.0
H468 H 0.32995 0.87681 0.91847 0.0
H469 H 0.30097 0.91269 0.95254 0.0
H470 H 0.22546 0.91492 0.91363 0.0
H471 H 0.25494 0.87851 0.87931 0.0
H472 H 0.24829 0.73871 0.77215 0.0
H473 H 0.23632 0.7158 0.73219 0.0
H474 H 0.32537 0.6715 0.70989 0.0
H475 H 0.33728 0.69382 0.75006 0.0
La476 La 0.31306 0.25181 0.82003 0.0
La477 La 0.33135 0.29629 0.8472 0.0
C478 C 0.30387 0.20643 0.81382 0.0
C479 C 0.28132 0.19966 0.80188 0.0
C480 C 0.25649 0.22163 0.79287 0.0
C481 C 0.23576 0.21501 0.78007 0.0
C482 C 0.23958 0.18631 0.77604 0.0
C483 C 0.26444 0.16438 0.78545 0.0
C484 C 0.28513 0.17104 0.79825 0.0
C485 C 0.29878 0.3018 0.7841 0.0
C486 C 0.26932 0.29736 0.86274 0.0
C487 C 0.34708 0.33405 0.86372 0.0
C488 C 0.36444 0.35263 0.86026 0.0
C489 C 0.39374 0.34204 0.85207 0.0
C490 C 0.41101 0.35702 0.85821 0.0
C491 C 0.3991 0.3824 0.87289 0.0
C492 C 0.36959 0.39414 0.87846 0.0
C493 C 0.35237 0.37939 0.87204 0.0
C494 C 0.33271 0.24857 0.88367 0.0
C495 C 0.37133 0.26036 0.7948 0.0
O496 O 0.31854 0.21837 0.79307 0.0
O497 O 0.29706 0.21902 0.83949 0.0
O498 O 0.29208 0.27986 0.77955 0.0
O499 O 0.31086 0.29498 0.80884 0.0
O500 O 0.27689 0.27127 0.85329 0.0
O501 O 0.28602 0.31313 0.85746 0.0
O502 O 0.35977 0.30628 0.87033 0.0
O503 O 0.32566 0.34041 0.84658 0.0
O504 O 0.32545 0.27386 0.89285 0.0
O505 O 0.33987 0.25028 0.85492 0.0
O506 O 0.364 0.2836 0.80966 0.0
O507 O 0.35667 0.2424 0.79902 0.0
H508 H 0.2533 0.24389 0.79551 0.0
H509 H 0.21671 0.23234 0.77342 0.0
H510 H 0.26823 0.14213 0.78227 0.0
H511 H 0.3043 0.15387 0.80491 0.0
H512 H 0.40345 0.32132 0.84306 0.0
H513 H 0.43378 0.34768 0.85372 0.0
H514 H 0.36002 0.41385 0.8895 0.0
H515 H 0.32983 0.38778 0.87866 0.0
La516 La 0.79432 0.30789 0.79174 0.0
La517 La 0.83923 0.30525 0.83441 0.0
C518 C 0.75385 0.32547 0.757 0.0
C519 C 0.73159 0.32048 0.74172 0.0
C520 C 0.73742 0.29728 0.72401 0.0
C521 C 0.71694 0.2961 0.70564 0.0
C522 C 0.69032 0.31819 0.70443 0.0
C523 C 0.68431 0.34072 0.72317 0.0
C524 C 0.7047 0.34185 0.74146 0.0
C525 C 0.8415 0.26379 0.78807 0.0
C526 C 0.83656 0.34327 0.77263 0.0
C527 C 0.88263 0.29031 0.86465 0.0
C528 C 0.8965 0.28112 0.89424 0.0
C529 C 0.88831 0.29846 0.91887 0.0
C530 C 0.90556 0.29268 0.94352 0.0
C531 C 0.93149 0.26956 0.94403 0.0
C532 C 0.9387 0.25124 0.92029 0.0
C533 C 0.92142 0.257 0.89569 0.0
C534 C 0.79137 0.34953 0.83854 0.0
C535 C 0.799 0.26707 0.85383 0.0
O536 O 0.7504 0.32752 0.78697 0.0
O537 O 0.78044 0.31318 0.74724 0.0
O538 O 0.81702 0.26301 0.78297 0.0
O539 O 0.83938 0.28909 0.79183 0.0
O540 O 0.81031 0.34339 0.77245 0.0
O541 O 0.85424 0.32425 0.79138 0.0
O542 O 0.86544 0.31688 0.85977 0.0
O543 O 0.87478 0.27205 0.85228 0.0
O544 O 0.81591 0.35004 0.84365 0.0
O545 O 0.79397 0.32421 0.83438 0.0
O546 O 0.82018 0.27479 0.8602 0.0
O547 O 0.78419 0.27829 0.82921 0.0
H548 H 0.75808 0.28063 0.72347 0.0
H549 H 0.7224 0.2785 0.6914 0.0
H550 H 0.66394 0.35784 0.72331 0.0
H551 H 0.69982 0.36016 0.75452 0.0
H552 H 0.86926 0.31725 0.91844 0.0
H553 H 0.89901 0.30694 0.96169 0.0
H554 H 0.95853 0.2334 0.91966 0.0
H555 H 0.92842 0.24349 0.87682 0.0
La556 La 0.78065 0.78802 0.82707 0.0
La557 La 0.82308 0.81355 0.78738 0.0
C558 C 0.73727 0.78043 0.85669 0.0
C559 C 0.71968 0.76202 0.85779 0.0
C560 C 0.72947 0.73284 0.86974 0.0
C561 C 0.71114 0.71688 0.87455 0.0
C562 C 0.68271 0.72982 0.86762 0.0
C563 C 0.67338 0.75855 0.85419 0.0
C564 C 0.69167 0.77452 0.84944 0.0
C565 C 0.83348 0.76769 0.84327 0.0
C566 C 0.81582 0.75639 0.7718 0.0
C567 C 0.86831 0.82417 0.77044 0.0
C568 C 0.87827 0.84891 0.76412 0.0
C569 C 0.86092 0.87587 0.75137 0.0
C570 C 0.8717 0.89845 0.74341 0.0
C571 C 0.89991 0.89444 0.74828 0.0
C572 C 0.91687 0.86764 0.76201 0.0
C573 C 0.90612 0.84506 0.7698 0.0
C574 C 0.77666 0.82317 0.75847 0.0
C575 C 0.78292 0.85057 0.83706 0.0
O576 O 0.76288 0.76834 0.86584 0.0
O577 O 0.73639 0.79901 0.83216 0.0
O578 O 0.81706 0.75235 0.84482 0.0
O579 O 0.81978 0.79328 0.83359 0.0
O580 O 0.79096 0.76232 0.78815 0.0
O581 O 0.83409 0.76943 0.77513 0.0
O582 O 0.8511 0.82256 0.75126 0.0
O583 O 0.86052 0.81755 0.79936 0.0
O584 O 0.799 0.82891 0.74589 0.0
O585 O 0.78012 0.81737 0.78718 0.0
O586 O 0.80005 0.85105 0.8116 0.0
O587 O 0.77495 0.82792 0.84795 0.0
H588 H 0.75094 0.72257 0.87645 0.0
H589 H 0.71889 0.69484 0.88514 0.0
H590 H 0.65171 0.76893 0.84812 0.0
H591 H 0.68361 0.79695 0.84016 0.0
H592 H 0.83924 0.8793 0.74705 0.0
H593 H 0.85806 0.91898 0.73322 0.0
H594 H 0.93876 0.86378 0.76574 0.0
H595 H 0.91977 0.82436 0.77965 0.0
H596 H 0.13952 0.09205 0.39038 0.0
H597 H 0.06795 0.14378 0.44653 0.0
H598 H 0.08861 0.18258 0.44001 0.0
H599 H 0.19245 0.11306 0.41998 0.0
H600 H 0.21289 0.11344 0.38313 0.0
H601 H 0.19238 0.08972 0.39196 0.0
H602 H 0.16644 0.11175 0.34194 0.0
H603 H 0.18677 0.13563 0.33303 0.0
H604 H 0.1486 0.15014 0.33584 0.0
H605 H 0.11599 0.21611 0.42647 0.0
H606 H 0.15042 0.24128 0.41001 0.0
H607 H 0.20523 0.16782 0.36333 0.0
C608 C 0.12825 0.11159 0.40121 0.0
C609 C 0.10215 0.11492 0.41901 0.0
C610 C 0.08811 0.14064 0.43315 0.0
C611 C 0.09957 0.16287 0.42938 0.0
C612 C 0.12522 0.15898 0.41158 0.0
C613 C 0.13958 0.13391 0.39796 0.0
C614 C 0.16717 0.13509 0.38064 0.0
C615 C 0.19273 0.11142 0.39479 0.0
C616 C 0.16723 0.13303 0.3458 0.0
C617 C 0.16594 0.1648 0.38655 0.0
C618 C 0.14142 0.17824 0.40424 0.0
C619 C 0.13527 0.20585 0.41259 0.0
C620 C 0.15486 0.22006 0.40292 0.0
C621 C 0.18039 0.20661 0.3852 0.0
C622 C 0.18591 0.1786 0.37689 0.0
H623 H 0.95073 0.10041 0.37473 0.0
H624 H 1.02326 0.12183 0.32954 0.0
H625 H 0.99167 0.17114 0.31359 0.0
H626 H 0.89944 0.1458 0.31632 0.0
H627 H 0.87071 0.15524 0.3461 0.0
H628 H 0.89852 0.12071 0.35018 0.0
H629 H 0.90767 0.13158 0.40349 0.0
H630 H 0.88025 0.16622 0.39942 0.0
H631 H 0.91561 0.16378 0.40594 0.0
H632 H 0.95359 0.22003 0.31091 0.0
H633 H 0.91086 0.26334 0.31589 0.0
H634 H 0.86229 0.20955 0.35909 0.0
C635 C 0.95983 0.11525 0.36069 0.0
C636 C 0.98943 0.10731 0.35329 0.0
C637 C 1.00062 0.12735 0.33514 0.0
C638 C 0.98284 0.15544 0.3261 0.0
C639 C 0.95386 0.1629 0.33476 0.0
C640 C 0.94231 0.14315 0.35096 0.0
C641 C 0.9107 0.15696 0.35866 0.0
C642 C 0.89385 0.1439 0.3418 0.0
C643 C 0.90314 0.15449 0.39397 0.0
C644 C 0.90649 0.18788 0.34562 0.0
C645 C 0.93165 0.19086 0.33188 0.0
C646 C 0.93366 0.21782 0.3209 0.0
C647 C 0.90938 0.2423 0.32404 0.0
C648 C 0.88339 0.2396 0.33763 0.0
C649 C 0.88185 0.21204 0.3481 0.0
H650 H 0.97701 0.99853 0.38274 0.0
H651 H 1.02801 0.9295 0.44532 0.0
H652 H 1.00046 0.89902 0.43728 0.0
H653 H 0.91062 0.9864 0.40581 0.0
H654 H 0.8992 0.99486 0.36699 0.0
H655 H 0.9225 1.01133 0.37848 0.0
H656 H 0.95858 0.9922 0.33227 0.0
H657 H 0.93545 0.97557 0.32071 0.0
H658 H 0.9715 0.95417 0.32813 0.0
H659 H 0.96851 0.87544 0.42048 0.0
H660 H 0.9337 0.86115 0.39763 0.0
H661 H 0.90308 0.9463 0.34711 0.0
C662 C 0.98245 0.97698 0.3947 0.0
C663 C 1.00468 0.96638 0.41464 0.0
C664 C 1.01086 0.93819 0.43022 0.0
C665 C 0.99544 0.92067 0.42565 0.0
C666 C 0.97383 0.93174 0.40558 0.0
C667 C 0.96723 0.9593 0.39051 0.0
C668 C 0.94314 0.96607 0.37004 0.0
C669 C 0.91734 0.99114 0.381 0.0
C670 C 0.95276 0.97236 0.33576 0.0
C671 C 0.93735 0.93789 0.37573 0.0
C672 C 0.95526 0.91834 0.39627 0.0
C673 C 0.9542 0.89066 0.40459 0.0
C674 C 0.93423 0.88281 0.39161 0.0
C675 C 0.91554 0.90259 0.37061 0.0
C676 C 0.91723 0.9305 0.36276 0.0
H677 H 0.16917 0.97824 0.39513 0.0
H678 H 0.11662 0.97038 0.32776 0.0
H679 H 0.1554 0.92707 0.31116 0.0
H680 H 0.23574 0.95637 0.34713 0.0
H681 H 0.25585 0.93776 0.37979 0.0
H682 H 0.22416 0.96833 0.38518 0.0
H683 H 0.2039 0.93707 0.42755 0.0
H684 H 0.23533 0.9063 0.42194 0.0
H685 H 0.201 0.90412 0.41822 0.0
H686 H 0.19959 0.88208 0.30489 0.0
H687 H 0.2468 0.84368 0.3051 0.0
H688 H 0.27003 0.88306 0.37513 0.0
C689 C 0.16589 0.96762 0.37663 0.0
C690 C 0.13989 0.97762 0.36275 0.0
C691 C 0.13648 0.96319 0.33854 0.0
C692 C 0.1583 0.93847 0.32914 0.0
C693 C 0.18347 0.92877 0.34391 0.0
C694 C 0.18747 0.94329 0.36675 0.0
C695 C 0.21644 0.92886 0.3789 0.0
C696 C 0.23409 0.94903 0.37234 0.0
C697 C 0.214 0.91848 0.41371 0.0
C698 C 0.22815 0.90375 0.35956 0.0
C699 C 0.2088 0.90375 0.33974 0.0
C700 C 0.21487 0.88199 0.32028 0.0
C701 C 0.24155 0.86005 0.32081 0.0
C702 C 0.26174 0.86027 0.34042 0.0
C703 C 0.25487 0.8824 0.35996 0.0
H704 H 0.12267 0.94379 0.74466 0.0
H705 H 0.14056 1.00546 0.79238 0.0
H706 H 0.1843 0.96723 0.81017 0.0
H707 H 0.14793 0.88213 0.80323 0.0
H708 H 0.16164 0.85714 0.7743 0.0
H709 H 0.13146 0.88916 0.76719 0.0
H710 H 0.15796 0.90324 0.71617 0.0
H711 H 0.1884 0.87156 0.72339 0.0
H712 H 0.19219 0.90663 0.71748 0.0
H713 H 0.22905 0.92236 0.81784 0.0
H714 H 0.26641 0.87425 0.82065 0.0
H715 H 0.21671 0.84233 0.7706 0.0
C716 C 0.13556 0.94917 0.75927 0.0
C717 C 0.12831 0.97753 0.76717 0.0
C718 C 0.14564 0.98376 0.78635 0.0
C719 C 0.17059 0.96223 0.79632 0.0
C720 C 0.17754 0.93459 0.78732 0.0
C721 C 0.16009 0.92796 0.76978 0.0
C722 C 0.17199 0.8968 0.76309 0.0
C723 C 0.15207 0.88034 0.77784 0.0
C724 C 0.17799 0.89444 0.72795 0.0
C725 C 0.19917 0.88688 0.77911 0.0
C726 C 0.20226 0.90894 0.79275 0.0
C727 C 0.22654 0.90491 0.8076 0.0
C728 C 0.24778 0.87756 0.80899 0.0
C729 C 0.24443 0.85453 0.79613 0.0
C730 C 0.21982 0.85946 0.78089 0.0
H731 H 0.14652 0.09169 0.7516 0.0
H732 H 0.11254 0.15407 0.67378 0.0
H733 H 0.14209 0.18195 0.68302 0.0
H734 H 0.14775 0.1434 0.80082 0.0
H735 H 0.18011 0.12023 0.81714 0.0
H736 H 0.15671 0.10481 0.80392 0.0
H737 H 0.19797 0.07499 0.76786 0.0
H738 H 0.22151 0.0903 0.78095 0.0
H739 H 0.21721 0.09319 0.74008 0.0
H740 H 0.17521 0.2033 0.70106 0.0
H741 H 0.21006 0.21586 0.72596 0.0
H742 H 0.22061 0.14055 0.79318 0.0
C743 C 0.14503 0.1113 0.73658 0.0
C744 C 0.12711 0.12055 0.7119 0.0
C745 C 0.12632 0.14618 0.69256 0.0
C746 C 0.14289 0.16234 0.69776 0.0
C747 C 0.1601 0.15266 0.72244 0.0
C748 C 0.16127 0.12773 0.74153 0.0
C749 C 0.18139 0.12206 0.76655 0.0
C750 C 0.16554 0.12267 0.79903 0.0
C751 C 0.20598 0.09344 0.76367 0.0
C752 C 0.19151 0.14761 0.75843 0.0
C753 C 0.17894 0.16505 0.73298 0.0
C754 C 0.1851 0.18986 0.72109 0.0
C755 C 0.20478 0.19692 0.73552 0.0
C756 C 0.21805 0.17922 0.76155 0.0
C757 C 0.2111 0.15435 0.77313 0.0
H758 H 0.98325 0.15199 0.71921 0.0
H759 H 0.99037 0.10077 0.80881 0.0
H760 H 0.94724 0.13786 0.82977 0.0
H761 H 0.95926 0.22183 0.74824 0.0
H762 H 0.93583 0.23859 0.71778 0.0
H763 H 0.96752 0.20843 0.71069 0.0
H764 H 0.93741 0.1811 0.69366 0.0
H765 H 0.90565 0.21112 0.70076 0.0
H766 H 0.90866 0.1757 0.71967 0.0
H767 H 0.90089 0.17973 0.83933 0.0
H768 H 0.85784 0.22337 0.83741 0.0
H769 H 0.88312 0.24722 0.74201 0.0
C770 C 0.97593 0.14852 0.74333 0.0
C771 C 0.99014 0.12339 0.76237 0.0
C772 C 0.97986 0.11988 0.79383 0.0
C773 C 0.95536 0.1408 0.80587 0.0
C774 C 0.94168 0.16519 0.78622 0.0
C775 C 0.95185 0.16917 0.75568 0.0
C776 C 0.93337 0.19691 0.73904 0.0
C777 C 0.94999 0.21766 0.72832 0.0
C778 C 0.92052 0.19083 0.71167 0.0
C779 C 0.91093 0.20799 0.76485 0.0
C780 C 0.91591 0.18939 0.7919 0.0
C781 C 0.89711 0.19457 0.8184 0.0
C782 C 0.87273 0.21933 0.81712 0.0
C783 C 0.86763 0.23864 0.78972 0.0
C784 C 0.88696 0.23293 0.76337 0.0
H785 H 1.0037 0.98316 0.75178 0.0
H786 H 0.98355 0.01929 0.65772 0.0
H787 H 0.94859 0.99431 0.6606 0.0
H788 H 1.001 0.91438 0.74498 0.0
H789 H 0.98568 0.90932 0.78397 0.0
H790 H 1.00737 0.93186 0.77541 0.0
H791 H 0.96647 0.97429 0.79771 0.0
H792 H 0.94464 0.95184 0.80636 0.0
H793 H 0.93213 0.98576 0.78262 0.0
H794 H 0.91729 0.96409 0.67303 0.0
H795 H 0.89367 0.92857 0.69299 0.0
H796 H 0.9346 0.91172 0.7789 0.0
C797 C 0.99154 0.98621 0.73203 0.0
C798 C 0.99613 1.00328 0.70457 0.0
C799 C 0.98038 1.00618 0.67888 0.0
C800 C 0.96039 0.99225 0.6804 0.0
C801 C 0.95651 0.97541 0.70774 0.0
C802 C 0.97172 0.97223 0.73306 0.0
C803 C 0.96479 0.95148 0.75897 0.0
C804 C 0.99129 0.92521 0.76624 0.0
C805 C 0.9512 0.96677 0.78814 0.0
C806 C 0.94359 0.94323 0.74409 0.0
C807 C 0.93885 0.95754 0.7147 0.0
C808 C 0.92064 0.95292 0.69611 0.0
C809 C 0.90721 0.93284 0.70771 0.0
C810 C 0.91222 0.91747 0.73752 0.0
C811 C 0.93043 0.92306 0.75598 0.0
H812 H 0.27091 0.15804 0.20541 0.0
H813 H 0.3564 0.12012 0.16402 0.0
H814 H 0.37188 0.15322 0.18893 0.0
H815 H 0.27094 0.23126 0.19932 0.0
H816 H 0.25044 0.23829 0.23593 0.0
H817 H 0.24602 0.21289 0.21319 0.0
H818 H 0.25715 0.17364 0.26022 0.0
H819 H 0.26156 0.19901 0.283 0.0
H820 H 0.2897 0.1652 0.27837 0.0
H821 H 0.37787 0.19061 0.22003 0.0
H822 H 0.3736 0.22764 0.25482 0.0
H823 H 0.28462 0.23809 0.27655 0.0
C824 C 0.29294 0.15647 0.20163 0.0
C825 C 0.31243 0.13631 0.18282 0.0
C826 C 0.34097 0.13553 0.17808 0.0
C827 C 0.34999 0.15419 0.19223 0.0
C828 C 0.3302 0.17353 0.21098 0.0
C829 C 0.30224 0.17477 0.21557 0.0
C830 C 0.28512 0.19688 0.23722 0.0
C831 C 0.26176 0.22127 0.22039 0.0
C832 C 0.27267 0.18283 0.26643 0.0
C833 C 0.30795 0.20743 0.24479 0.0
C834 C 0.33376 0.19415 0.22918 0.0
C835 C 0.35775 0.20105 0.23243 0.0
C836 C 0.35519 0.22202 0.25221 0.0
C837 C 0.32895 0.23534 0.26876 0.0
C838 C 0.30516 0.22789 0.26476 0.0
H839 H 1.00449 0.29285 0.19184 0.0
H840 H 0.97381 0.38603 0.17337 0.0
H841 H 0.92593 0.3873 0.19473 0.0
H842 H 0.94066 0.28128 0.17396 0.0
H843 H 0.94289 0.25271 0.20494 0.0
H844 H 0.97471 0.25868 0.18687 0.0
H845 H 0.9884 0.26367 0.24056 0.0
H846 H 0.95671 0.25758 0.25874 0.0
H847 H 0.96361 0.2896 0.26445 0.0
H848 H 0.88207 0.37908 0.21931 0.0
H849 H 0.84494 0.36213 0.24839 0.0
H850 H 0.90301 0.27394 0.25165 0.0
C851 C 0.98759 0.31346 0.192 0.0
C852 C 0.99292 0.3394 0.1809 0.0
C853 C 0.97035 0.36597 0.18202 0.0
C854 C 0.94301 0.36688 0.19388 0.0
C855 C 0.93849 0.34102 0.20467 0.0
C856 C 0.96011 0.31478 0.20407 0.0
C857 C 0.94963 0.29034 0.21859 0.0
C858 C 0.95212 0.26952 0.19465 0.0
C859 C 0.96553 0.27436 0.24729 0.0
C860 C 0.91882 0.30704 0.22765 0.0
C861 C 0.91292 0.33621 0.21913 0.0
C862 C 0.88636 0.35628 0.22594 0.0
C863 C 0.8654 0.34641 0.2425 0.0
C864 C 0.87099 0.31671 0.25216 0.0
C865 C 0.89796 0.29671 0.24412 0.0
H866 H 0.83425 0.937 0.14035 0.0
H867 H 0.77937 0.9262 0.07755 0.0
H868 H 0.76238 0.89552 0.11882 0.0
H869 H 0.85415 0.86456 0.17881 0.0
H870 H 0.85433 0.87577 0.21631 0.0
H871 H 0.86163 0.89696 0.18155 0.0
H872 H 0.82108 0.94142 0.20113 0.0
H873 H 0.8134 0.91955 0.23525 0.0
H874 H 0.78584 0.93972 0.21 0.0
H875 H 0.75382 0.86363 0.16476 0.0
H876 H 0.75567 0.83046 0.21275 0.0
H877 H 0.81295 0.86406 0.24802 0.0
C878 C 0.81881 0.92798 0.13536 0.0
C879 C 0.808 0.93402 0.10582 0.0
C880 C 0.78764 0.92207 0.10014 0.0
C881 C 0.77784 0.90468 0.12342 0.0
C882 C 0.78842 0.89961 0.15244 0.0
C883 C 0.8085 0.91076 0.15858 0.0
C884 C 0.81683 0.90114 0.19165 0.0
C885 C 0.84862 0.88355 0.19208 0.0
C886 C 0.8088 0.92701 0.21062 0.0
C887 C 0.7987 0.88241 0.20281 0.0
C888 C 0.78244 0.88196 0.17975 0.0
C889 C 0.76598 0.86422 0.18326 0.0
C890 C 0.76701 0.8456 0.21062 0.0
C891 C 0.78394 0.84523 0.23427 0.0
C892 C 0.79922 0.86454 0.23075 0.0
H893 H 0.12928 0.75062 0.08012 0.0
H894 H 0.09359 0.69426 0.14298 0.0
H895 H 0.11912 0.69955 0.18541 0.0
H896 H 0.19846 0.72531 0.11136 0.0
H897 H 0.20168 0.76062 0.10589 0.0
H898 H 0.18151 0.75128 0.0804 0.0
H899 H 0.13786 0.79557 0.09363 0.0
H900 H 0.15779 0.80494 0.11933 0.0
H901 H 0.12471 0.79971 0.13363 0.0
H902 H 0.14654 0.71332 0.22162 0.0
H903 H 0.17651 0.73144 0.24794 0.0
H904 H 0.19416 0.77898 0.16123 0.0
C905 C 0.12694 0.73929 0.10279 0.0
C906 C 0.10942 0.72203 0.10827 0.0
C907 C 0.10714 0.7073 0.13816 0.0
C908 C 0.1214 0.71036 0.16244 0.0
C909 C 0.13806 0.72801 0.15635 0.0
C910 C 0.14115 0.74196 0.12716 0.0
C911 C 0.16021 0.75975 0.12667 0.0
C912 C 0.18706 0.74856 0.10479 0.0
C913 C 0.14418 0.7919 0.1178 0.0
C914 C 0.16707 0.75398 0.1603 0.0
C915 C 0.15404 0.73567 0.17705 0.0
C916 C 0.15691 0.72759 0.20869 0.0
C917 C 0.17379 0.7382 0.2235 0.0
C918 C 0.18767 0.75669 0.2067 0.0
C919 C 0.18408 0.76468 0.17467 0.0
H920 H 0.25306 0.99706 0.07844 0.0
H921 H 0.20416 0.07493 0.02509 0.0
H922 H 0.1948 0.04557 0.98928 0.0
H923 H 0.2893 0.96337 1.01818 0.0
H924 H 0.29083 0.92737 0.0336 0.0
H925 H 0.28675 0.95367 0.05957 0.0
H926 H 0.24099 0.94554 0.08616 0.0
H927 H 0.24502 0.91892 0.06027 0.0
H928 H 0.21248 0.94907 0.06307 0.0
H929 H 0.20017 1.00861 0.95323 0.0
H930 H 0.21988 0.96806 0.92082 0.0
H931 H 0.26531 0.91435 0.99771 0.0
C932 C 0.2396 1.00786 0.05979 0.0
C933 C 0.22933 0.03818 0.05449 0.0
C934 C 0.21189 0.05169 0.02982 0.0
C935 C 0.2065 0.03515 1.00936 0.0
C936 C 0.21831 1.00519 1.01427 0.0
C937 C 0.23419 0.99168 0.03924 0.0
C938 C 0.24816 0.95971 0.03702 0.0
C939 C 0.28066 0.95053 0.03707 0.0
C940 C 0.23591 0.94229 0.06319 0.0
C941 C 0.23933 0.9576 1.00585 0.0
C942 C 0.22149 0.98383 0.99338 0.0
C943 C 0.21345 0.98779 0.96312 0.0
C944 C 0.22468 0.96466 0.94487 0.0
C945 C 0.24403 0.93818 0.95689 0.0
C946 C 0.2504 0.93438 0.9881 0.0
H947 H 0.15865 0.29302 1.00947 0.0
H948 H 0.13781 0.38594 1.00314 0.0
H949 H 0.16749 0.38462 0.95424 0.0
H950 H 0.23124 0.27786 0.98235 0.0
H951 H 0.23312 0.24883 0.96077 0.0
H952 H 0.20828 0.25689 0.99431 0.0
H953 H 0.16735 0.26262 0.96084 0.0
H954 H 0.19217 0.2547 0.92718 0.0
H955 H 0.16216 0.28762 0.92615 0.0
H956 H 0.20074 0.37387 0.9075 0.0
H957 H 0.23903 0.35364 0.8679 0.0
H958 H 0.24061 0.26732 0.90385 0.0
C959 C 0.16019 0.31315 0.9979 0.0
C960 C 0.14522 0.33969 1.01039 0.0
C961 C 0.14822 0.36538 0.99413 0.0
C962 C 0.1652 0.36489 0.96617 0.0
C963 C 0.17932 0.33855 0.9545 0.0
C964 C 0.17727 0.31308 0.96988 0.0
C965 C 0.19616 0.28756 0.95297 0.0
C966 C 0.21853 0.26655 0.97387 0.0
C967 C 0.17839 0.27222 0.94108 0.0
C968 C 0.20965 0.30269 0.92619 0.0
C969 C 0.19916 0.33217 0.92739 0.0
C970 C 0.209 0.35084 0.90618 0.0
C971 C 0.23076 0.33911 0.88372 0.0
C972 C 0.24271 0.30892 0.88258 0.0
C973 C 0.23149 0.29051 0.90368 0.0
H974 H 0.82753 0.09998 0.90229 0.0
H975 H 0.80419 0.12087 0.99727 0.0
H976 H 0.79271 0.17253 0.97924 0.0
H977 H 0.85964 0.15589 0.87722 0.0
H978 H 0.84694 0.1632 0.83907 0.0
H979 H 0.85418 0.12774 0.85969 0.0
H980 H 0.80292 0.1304 0.85325 0.0
H981 H 0.79542 0.16611 0.83319 0.0
H982 H 0.7734 0.15987 0.86726 0.0
H983 H 0.78473 0.22164 0.95152 0.0
H984 H 0.78252 0.26529 0.91536 0.0
H985 H 0.80825 0.21363 0.83796 0.0
C986 C 0.82039 0.11545 0.91923 0.0
C987 C 0.81658 0.10646 0.95118 0.0
C988 C 0.8069 0.12735 0.97267 0.0
C989 C 0.80035 0.15673 0.96267 0.0
C990 C 0.80353 0.16499 0.93101 0.0
C991 C 0.81353 0.14504 0.90957 0.0
C992 C 0.81499 0.1599 0.87687 0.0
C993 C 0.84576 0.15116 0.86237 0.0
C994 C 0.79552 0.15369 0.85645 0.0
C995 C 0.80404 0.19122 0.88337 0.0
C996 C 0.79774 0.19361 0.91481 0.0
C997 C 0.78913 0.22013 0.9268 0.0
C998 C 0.78769 0.2448 0.90618 0.0
C999 C 0.79419 0.24277 0.87399 0.0
C1000 C 0.802 0.21576 0.8624 0.0
H1001 H 0.95626 0.78328 0.93545 0.0
H1002 H 0.98515 0.69004 0.95319 0.0
H1003 H 0.94738 0.68855 0.92363 0.0
H1004 H 0.88037 0.79371 0.9409 0.0
H1005 H 0.87257 0.82258 0.90982 0.0
H1006 H 0.90166 0.81674 0.93294 0.0
H1007 H 0.93555 0.81296 0.88292 0.0
H1008 H 0.90657 0.81839 0.85974 0.0
H1009 H 0.93789 0.78694 0.85696 0.0
H1010 H 0.90742 0.69615 0.89206 0.0
H1011 H 0.8656 0.7129 0.86152 0.0
H1012 H 0.86078 0.80145 0.86289 0.0
C1013 C 0.95437 0.76264 0.93333 0.0
C1014 C 0.97397 0.73669 0.94654 0.0
C1015 C 0.97084 0.71013 0.94297 0.0
C1016 C 0.94933 0.70905 0.92626 0.0
C1017 C 0.93082 0.73475 0.91302 0.0
C1018 C 0.93287 0.76113 0.91639 0.0
C1019 C 0.90999 0.78537 0.89935 0.0
C1020 C 0.88996 0.8058 0.92212 0.0
C1021 C 0.9233 0.80189 0.8732 0.0
C1022 C 0.89484 0.76837 0.88621 0.0
C1023 C 0.90741 0.7392 0.89441 0.0
C1024 C 0.89737 0.71894 0.88547 0.0
C1025 C 0.8736 0.72866 0.86807 0.0
C1026 C 0.85998 0.75838 0.85957 0.0
C1027 C 0.87095 0.77852 0.86861 0.0
H1028 H 0.18518 0.3211 0.14398 0.0
H1029 H 0.14045 0.27407 0.20826 0.0
H1030 H 0.1715 0.27192 0.24935 0.0
H1031 H 0.25599 0.28284 0.17221 0.0
H1032 H 0.26526 0.31511 0.16533 0.0
H1033 H 0.24104 0.31018 0.1414 0.0
H1034 H 0.20398 0.35896 0.15507 0.0
H1035 H 0.22778 0.36373 0.17962 0.0
H1036 H 0.1928 0.36453 0.19522 0.0
H1037 H 0.20544 0.28053 0.28525 0.0
H1038 H 0.24178 0.29274 0.30861 0.0
H1039 H 0.26387 0.33242 0.21907 0.0
C1040 C 0.18232 0.30971 0.1665 0.0
C1041 C 0.16051 0.2976 0.17288 0.0
C1042 C 0.15733 0.28309 0.20271 0.0
C1043 C 0.17471 0.28205 0.22625 0.0
C1044 C 0.19538 0.29529 0.21941 0.0
C1045 C 0.19958 0.3082 0.18989 0.0
C1046 C 0.22268 0.32131 0.18801 0.0
C1047 C 0.24773 0.30646 0.16541 0.0
C1048 C 0.2111 0.35407 0.17895 0.0
C1049 C 0.23065 0.31439 0.2212 0.0
C1050 C 0.21468 0.29957 0.23927 0.0
C1051 C 0.21805 0.29198 0.27107 0.0
C1052 C 0.2385 0.29929 0.28432 0.0
C1053 C 0.25546 0.31377 0.26578 0.0
C1054 C 0.25122 0.32137 0.23391 0.0
H1055 H 0.11503 0.76544 0.95476 0.0
H1056 H 0.09839 0.84232 1.00046 0.0
H1057 H 0.14181 0.84887 0.97342 0.0
H1058 H 0.19081 0.73966 0.9588 0.0
H1059 H 0.19929 0.72616 0.92131 0.0
H1060 H 0.16602 0.72782 0.94279 0.0
H1061 H 0.13894 0.75855 0.89622 0.0
H1062 H 0.17215 0.7568 0.87451 0.0
H1063 H 0.14542 0.79127 0.8801 0.0
H1064 H 0.18758 0.84703 0.9428 0.0
H1065 H 0.23229 0.83755 0.91001 0.0
H1066 H 0.22213 0.76118 0.88312 0.0
C1067 C 0.12029 0.78391 0.95868 0.0
C1068 C 0.10278 0.80354 0.9798 0.0
C1069 C 0.11104 0.82702 0.98453 0.0
C1070 C 0.13583 0.83093 0.96922 0.0
C1071 C 0.15273 0.81112 0.94907 0.0
C1072 C 0.14538 0.78806 0.94362 0.0
C1073 C 0.16804 0.76963 0.92131 0.0
C1074 C 0.18186 0.739 0.93699 0.0
C1075 C 0.15538 0.76903 0.89125 0.0
C1076 C 0.18917 0.78593 0.91518 0.0
C1077 C 0.17969 0.80982 0.93151 0.0
C1078 C 0.19514 0.82839 0.9299 0.0
C1079 C 0.22074 0.82272 0.91107 0.0
C1080 C 0.23126 0.79851 0.89372 0.0
C1081 C 0.21506 0.77978 0.89607 0.0
H1082 H 0.30804 0.16486 0.04736 0.0
H1083 H 0.34192 0.08434 1.00585 0.0
H1084 H 0.35148 0.11092 0.95546 0.0
H1085 H 0.27244 0.20748 0.98489 0.0
H1086 H 0.2805 0.23908 0.98991 0.0
H1087 H 0.27853 0.21347 0.0228 0.0
H1088 H 0.32941 0.20728 0.03478 0.0
H1089 H 0.33135 0.23335 1.00227 0.0
H1090 H 0.35799 0.198 1.0048 0.0
H1091 H 0.3538 0.1485 0.90791 0.0
H1092 H 0.35158 0.19173 0.8705 0.0
H1093 H 0.31626 0.24607 0.94508 0.0
C1094 C 0.31783 0.15267 0.02781 0.0
C1095 C 0.32422 0.12251 0.03055 0.0
C1096 C 0.33706 0.10743 1.00437 0.0
C1097 C 0.34241 0.1224 0.97563 0.0
C1098 C 0.33513 0.15237 0.9736 0.0
C1099 C 0.32351 0.16714 0.9993 0.0
C1100 C 0.31704 0.19922 0.99147 0.0
C1101 C 0.28523 0.21577 0.99763 0.0
C1102 C 0.33503 0.21009 1.00939 0.0
C1103 C 0.3261 0.20052 0.95713 0.0
C1104 C 0.33663 0.17339 0.94702 0.0
C1105 C 0.34578 0.16974 0.91579 0.0
C1106 C 0.34436 0.19438 0.89466 0.0
C1107 C 0.33381 0.22222 0.90489 0.0
C1108 C 0.32454 0.22508 0.93651 0.0
H1109 H 1.01845 0.32639 0.04365 0.0
H1110 H 0.06601 0.23818 0.07646 0.0
H1111 H 0.03757 0.22105 0.04594 0.0
H1112 H 0.95108 0.31802 0.04634 0.0
H1113 H 0.94096 0.34254 1.01189 0.0
H1114 H 0.96515 0.34704 0.03616 0.0
H1115 H 1.00215 0.34474 0.98892 0.0
H1116 H 0.97802 0.34043 0.96445 0.0
H1117 H 1.01316 0.31427 0.96665 0.0
H1118 H 1.00264 0.21461 1.01029 0.0
H1119 H 0.96664 0.21931 0.97418 0.0
H1120 H 0.94373 0.31231 0.96624 0.0
C1121 C 1.02311 0.30337 0.04465 0.0
C1122 C 0.04457 0.28362 0.06259 0.0
C1123 C 0.04972 0.25374 0.06291 0.0
C1124 C 1.03362 0.24387 0.04567 0.0
C1125 C 1.01249 0.26419 0.02833 0.0
C1126 C 1.0074 0.29333 0.02782 0.0
C1127 C 0.98391 0.31118 1.0075 0.0
C1128 C 0.95879 0.33084 0.02662 0.0
C1129 C 0.99498 0.32867 0.98027 0.0
C1130 C 0.97627 0.28764 0.9964 0.0
C1131 C 0.99287 0.26062 1.00852 0.0
C1132 C 0.98961 0.23572 1.00082 0.0
C1133 C 0.96913 0.23861 0.98018 0.0
C1134 C 0.95204 0.26621 0.96745 0.0
C1135 C 0.95583 0.2909 0.97597 0.0
H1136 H 0.79155 0.92478 0.983 0.0
H1137 H 0.75397 1.00791 0.9314 0.0
H1138 H 0.74571 0.98356 0.88938 0.0
H1139 H 0.82839 0.88772 0.92153 0.0
H1140 H 0.82234 0.85435 0.93541 0.0
H1141 H 0.82211 0.87845 0.96257 0.0
H1142 H 0.77171 0.87996 0.98507 0.0
H1143 H 0.77196 0.85561 0.95806 0.0
H1144 H 0.74369 0.88978 0.9594 0.0
H1145 H 0.74994 0.94902 0.84919 0.0
H1146 H 0.75968 0.90808 0.81798 0.0
H1147 H 0.79027 0.84803 0.89817 0.0
C1148 C 0.78074 0.9379 0.96328 0.0
C1149 C 0.77313 0.96823 0.96049 0.0
C1150 C 0.75945 0.9847 0.93421 0.0
C1151 C 0.75491 0.97099 0.91016 0.0
C1152 C 0.7636 0.94088 0.91317 0.0
C1153 C 0.77556 0.92461 0.93952 0.0
C1154 C 0.78403 0.89262 0.93683 0.0
C1155 C 0.81611 0.87742 0.93922 0.0
C1156 C 0.76681 0.87867 0.96129 0.0
C1157 C 0.77588 0.89326 0.90442 0.0
C1158 C 0.76433 0.92126 0.89096 0.0
C1159 C 0.75813 0.92708 0.85988 0.0
C1160 C 0.76378 0.90376 0.84229 0.0
C1161 C 0.77495 0.87503 0.85599 0.0
C1162 C 0.78077 0.86982 0.8875 0.0
H1163 H 0.9552 0.74622 0.09545 0.0
H1164 H 0.98484 0.81801 0.09648 0.0
H1165 H 0.95441 0.83066 0.14509 0.0
H1166 H 0.8821 0.78223 0.12526 0.0
H1167 H 0.87904 0.75002 0.14768 0.0
H1168 H 0.90232 0.7474 0.11262 0.0
H1169 H 0.94414 0.71347 0.14348 0.0
H1170 H 0.92107 0.71622 0.17868 0.0
H1171 H 0.95285 0.72525 0.17695 0.0
H1172 H 0.92237 0.83382 0.19539 0.0
H1173 H 0.88948 0.82997 0.24069 0.0
H1174 H 0.87893 0.75651 0.20721 0.0
C1175 C 0.95518 0.76484 0.10564 0.0
C1176 C 0.97261 0.78117 0.09177 0.0
C1177 C 0.97172 0.80526 0.10622 0.0
C1178 C 0.95453 0.81249 0.13402 0.0
C1179 C 0.93807 0.7956 0.14722 0.0
C1180 C 0.93803 0.77243 0.13328 0.0
C1181 C 0.91844 0.7577 0.15222 0.0
C1182 C 0.89403 0.75945 0.13331 0.0
C1183 C 0.93513 0.7263 0.1635 0.0
C1184 C 0.90759 0.77597 0.17931 0.0
C1185 C 0.91931 0.79766 0.17589 0.0
C1186 C 0.913 0.81704 0.198 0.0
C1187 C 0.89408 0.8146 0.22385 0.0
C1188 C 0.88106 0.79305 0.22788 0.0
C1189 C 0.88831 0.77326 0.20517 0.0
H1190 H 0.34957 0.98495 0.20117 0.0
H1191 H 0.3197 0.97412 0.11614 0.0
H1192 H 0.3185 0.92621 0.13892 0.0
H1193 H 0.39416 0.90892 0.21852 0.0
H1194 H 0.38531 0.90958 0.25976 0.0
H1195 H 0.38593 0.94198 0.23583 0.0
H1196 H 0.33426 0.96838 0.25644 0.0
H1197 H 0.3334 0.93604 0.28022 0.0
H1198 H 0.30706 0.95356 0.25282 0.0
H1199 H 0.31527 0.88189 0.17328 0.0
H1200 H 0.31438 0.84277 0.21472 0.0
H1201 H 0.34867 0.881 0.27656 0.0
C1202 C 0.34333 0.97229 0.18705 0.0
C1203 C 0.33485 0.98339 0.15672 0.0
C1204 C 0.32656 0.96611 0.13926 0.0
C1205 C 0.3257 0.93886 0.15208 0.0
C1206 C 0.33351 0.92892 0.1823 0.0
C1207 C 0.34259 0.94493 0.1994 0.0
C1208 C 0.34898 0.92972 0.23172 0.0
C1209 C 0.38047 0.9221 0.23674 0.0
C1210 C 0.32978 0.94802 0.25677 0.0
C1211 C 0.34165 0.90287 0.23035 0.0
C1212 C 0.33261 0.90291 0.20168 0.0
C1213 C 0.32281 0.8814 0.19559 0.0
C1214 C 0.32228 0.85932 0.21931 0.0
C1215 C 0.33184 0.85858 0.24871 0.0
C1216 C 0.34185 0.8806 0.2541 0.0
H1217 H 0.82004 0.08384 0.07571 0.0
H1218 H 0.73602 0.07755 0.0954 0.0
H1219 H 0.72619 0.11042 0.1367 0.0
H1220 H 0.83472 0.08044 0.15206 0.0
H1221 H 0.85418 0.10519 0.14381 0.0
H1222 H 0.85286 0.084 0.11427 0.0
H1223 H 0.83298 0.13042 0.07697 0.0
H1224 H 0.83453 0.15181 0.1063 0.0
H1225 H 0.8016 0.15882 0.08947 0.0
H1226 H 0.72797 0.14216 0.17895 0.0
H1227 H 0.74069 0.16852 0.21593 0.0
H1228 H 0.82394 0.15159 0.16697 0.0
C1229 C 0.79935 0.08949 0.08838 0.0
C1230 C 0.7788 0.07801 0.08238 0.0
C1231 C 0.75202 0.08622 0.09948 0.0
C1232 C 0.74636 0.10479 0.12301 0.0
C1233 C 0.76763 0.11502 0.12885 0.0
C1234 C 0.7935 0.10769 0.11166 0.0
C1235 C 0.81358 0.12004 0.12277 0.0
C1236 C 0.84041 0.09598 0.13389 0.0
C1237 C 0.8211 0.14155 0.09737 0.0
C1238 C 0.79535 0.13512 0.14951 0.0
C1239 C 0.76878 0.13239 0.15269 0.0
C1240 C 0.74869 0.14443 0.17643 0.0
C1241 C 0.75606 0.1594 0.19731 0.0
C1242 C 0.78343 0.16186 0.19457 0.0
C1243 C 0.80303 0.14971 0.17009 0.0
H1244 H 0.63006 0.59394 0.89516 0.0
H1245 H 0.55227 0.64871 0.93985 0.0
H1246 H 0.57064 0.68925 0.9306 0.0
H1247 H 0.67731 0.62374 0.92436 0.0
H1248 H 0.70013 0.62079 0.88893 0.0
H1249 H 0.6812 0.59581 0.90024 0.0
H1250 H 0.65911 0.60948 0.84725 0.0
H1251 H 0.67774 0.63469 0.83589 0.0
H1252 H 0.63973 0.64669 0.83535 0.0
H1253 H 0.59631 0.72427 0.9143 0.0
H1254 H 0.62928 0.75079 0.89566 0.0
H1255 H 0.69041 0.67337 0.86113 0.0
C1256 C 0.61701 0.61444 0.90313 0.0
C1257 C 0.58981 0.61819 0.91831 0.0
C1258 C 0.57335 0.64524 0.92862 0.0
C1259 C 0.5835 0.66845 0.92324 0.0
C1260 C 0.6102 0.66415 0.90771 0.0
C1261 C 0.62689 0.63776 0.89812 0.0
C1262 C 0.65482 0.6389 0.88192 0.0
C1263 C 0.67984 0.61861 0.89995 0.0
C1264 C 0.65802 0.63204 0.8481 0.0
C1265 C 0.65105 0.67018 0.88358 0.0
C1266 C 0.62513 0.68435 0.89847 0.0
C1267 C 0.61669 0.71343 0.90263 0.0
C1268 C 0.63546 0.72836 0.89171 0.0
C1269 C 0.66235 0.71417 0.87682 0.0
C1270 C 0.67008 0.68473 0.87258 0.0
H1271 H 0.50311 0.64976 0.83989 0.0
H1272 H 0.46909 0.57978 0.85196 0.0
H1273 H 0.42041 0.61534 0.85158 0.0
H1274 H 0.45308 0.69275 0.8905 0.0
H1275 H 0.45135 0.72651 0.86805 0.0
H1276 H 0.48321 0.69576 0.86529 0.0
H1277 H 0.48115 0.70029 0.8056 0.0
H1278 H 0.44936 0.73128 0.80817 0.0
H1279 H 0.44946 0.70088 0.79006 0.0
H1280 H 0.37439 0.66003 0.85375 0.0
H1281 H 0.3373 0.7082 0.85817 0.0
H1282 H 0.40289 0.74715 0.84626 0.0
C1283 C 0.48554 0.64177 0.84174 0.0
C1284 C 0.4901 0.61184 0.84572 0.0
C1285 C 0.46628 0.60254 0.8486 0.0
C1286 C 0.43848 0.62264 0.84847 0.0
C1287 C 0.43477 0.65201 0.84537 0.0
C1288 C 0.4578 0.66145 0.84182 0.0
C1289 C 0.44848 0.69391 0.84092 0.0
C1290 C 0.45969 0.70273 0.86779 0.0
C1291 C 0.45766 0.70737 0.80931 0.0
C1292 C 0.41664 0.70135 0.84517 0.0
C1293 C 0.40889 0.6771 0.84734 0.0
C1294 C 0.38035 0.67909 0.85195 0.0
C1295 C 0.35941 0.70648 0.85452 0.0
C1296 C 0.36719 0.73137 0.85283 0.0
C1297 C 0.39619 0.72854 0.84785 0.0
H1298 H 0.5145 0.458 0.87152 0.0
H1299 H 0.49391 0.46105 0.97065 0.0
H1300 H 0.46103 0.43426 0.96936 0.0
H1301 H 0.446 0.46946 0.85113 0.0
H1302 H 0.45724 0.44508 0.82149 0.0
H1303 H 0.48058 0.46257 0.83066 0.0
H1304 H 0.51957 0.41292 0.84155 0.0
H1305 H 0.49639 0.39524 0.83224 0.0
H1306 H 0.51158 0.38576 0.8692 0.0
H1307 H 0.42744 0.41156 0.95626 0.0
H1308 H 0.39757 0.39095 0.93305 0.0
H1309 H 0.4413 0.40117 0.84259 0.0
C1310 C 0.50315 0.45287 0.89295 0.0
C1311 C 0.5065 0.46163 0.92119 0.0
C1312 C 0.49169 0.45427 0.94889 0.0
C1313 C 0.47296 0.4392 0.94831 0.0
C1314 C 0.46974 0.43137 0.91993 0.0
C1315 C 0.4847 0.4376 0.89282 0.0
C1316 C 0.47697 0.42729 0.86526 0.0
C1317 C 0.46445 0.45261 0.8407 0.0
C1318 C 0.50266 0.40391 0.85125 0.0
C1319 C 0.45475 0.41492 0.88097 0.0
C1320 C 0.45091 0.41752 0.9125 0.0
C1321 C 0.43048 0.40908 0.9317 0.0
C1322 C 0.41355 0.39761 0.91832 0.0
C1323 C 0.41729 0.3946 0.88614 0.0
C1324 C 0.43831 0.40309 0.86729 0.0
H1325 H 0.62443 0.4357 0.8475 0.0
H1326 H 0.64433 0.51466 0.83837 0.0
H1327 H 0.69535 0.48635 0.83122 0.0
H1328 H 0.68067 0.39328 0.8919 0.0
H1329 H 0.68741 0.36075 0.8741 0.0
H1330 H 0.65242 0.3873 0.87542 0.0
H1331 H 0.65265 0.39015 0.81576 0.0
H1332 H 0.68771 0.36362 0.81408 0.0
H1333 H 0.68099 0.39815 0.79132 0.0
H1334 H 0.74447 0.44897 0.82957 0.0
H1335 H 0.78765 0.40579 0.83156 0.0
H1336 H 0.73594 0.35104 0.84191 0.0
C1337 C 0.63941 0.44719 0.84337 0.0
C1338 C 0.63021 0.47756 0.84332 0.0
C1339 C 0.65071 0.49152 0.8383 0.0
C1340 C 0.67979 0.47558 0.83427 0.0
C1341 C 0.68811 0.44565 0.83521 0.0
C1342 C 0.66849 0.43161 0.83941 0.0
C1343 C 0.683 0.39916 0.84099 0.0
C1344 C 0.67542 0.38426 0.87247 0.0
C1345 C 0.67565 0.38705 0.81392 0.0
C1346 C 0.7139 0.39705 0.83757 0.0
C1347 C 0.71637 0.42414 0.83414 0.0
C1348 C 0.74274 0.42771 0.83191 0.0
C1349 C 0.76715 0.40304 0.8332 0.0
C1350 C 0.76516 0.37509 0.83662 0.0
C1351 C 0.73813 0.37214 0.83871 0.0
H1352 H 0.68899 0.48127 0.25163 0.0
H1353 H 0.61425 0.46894 0.30297 0.0
H1354 H 0.64284 0.41891 0.32093 0.0
H1355 H 0.71735 0.4154 0.22428 0.0
H1356 H 0.75396 0.41019 0.22831 0.0
H1357 H 0.72878 0.44606 0.22305 0.0
H1358 H 0.74194 0.45824 0.27374 0.0
H1359 H 0.7676 0.42247 0.27888 0.0
H1360 H 0.7404 0.43541 0.30938 0.0
H1361 H 0.67761 0.36804 0.32498 0.0
H1362 H 0.71775 0.32211 0.32129 0.0
H1363 H 0.77048 0.36888 0.27111 0.0
C1364 C 0.67886 0.46827 0.2674 0.0
C1365 C 0.64951 0.47885 0.27601 0.0
C1366 C 0.63682 0.46128 0.29644 0.0
C1367 C 0.65286 0.43282 0.30662 0.0
C1368 C 0.6816 0.42266 0.29673 0.0
C1369 C 0.69466 0.44012 0.27827 0.0
C1370 C 0.72551 0.4237 0.2697 0.0
C1371 C 0.73174 0.42386 0.23424 0.0
C1372 C 0.74501 0.43567 0.28378 0.0
C1373 C 0.7275 0.39398 0.28506 0.0
C1374 C 0.70195 0.39373 0.30048 0.0
C1375 C 0.69791 0.36811 0.3137 0.0
C1376 C 0.72064 0.34218 0.31127 0.0
C1377 C 0.74702 0.34227 0.29615 0.0
C1378 C 0.75056 0.36847 0.28325 0.0
H1379 H 0.65075 0.60699 0.25579 0.0
H1380 H 0.66032 0.61416 0.15508 0.0
H1381 H 0.69736 0.63593 0.15534 0.0
H1382 H 0.65962 0.67335 0.26414 0.0
H1383 H 0.67899 0.6595 0.29826 0.0
H1384 H 0.65363 0.64407 0.28998 0.0
H1385 H 0.69243 0.59354 0.29198 0.0
H1386 H 0.71794 0.60882 0.30023 0.0
H1387 H 0.72491 0.58826 0.26749 0.0
H1388 H 0.73307 0.65775 0.16682 0.0
H1389 H 0.76418 0.67794 0.18867 0.0
H1390 H 0.73103 0.65595 0.28167 0.0
C1391 C 0.66083 0.61275 0.23376 0.0
C1392 C 0.65256 0.60878 0.2054 0.0
C1393 C 0.66601 0.61724 0.1771 0.0
C1394 C 0.68722 0.62947 0.17702 0.0
C1395 C 0.69479 0.63309 0.20542 0.0
C1396 C 0.68198 0.62496 0.23326 0.0
C1397 C 0.69353 0.63163 0.26059 0.0
C1398 C 0.67004 0.65344 0.27934 0.0
C1399 C 0.70807 0.60391 0.28129 0.0
C1400 C 0.71485 0.6448 0.2438 0.0
C1401 C 0.71531 0.64546 0.21199 0.0
C1402 C 0.73294 0.65725 0.19171 0.0
C1403 C 0.75045 0.66876 0.20431 0.0
C1404 C 0.75023 0.66834 0.23687 0.0
C1405 C 0.73218 0.65607 0.25671 0.0
H1406 H 0.4699 0.59905 0.26959 0.0
H1407 H 0.53555 0.63126 0.28667 0.0
H1408 H 0.49877 0.67602 0.30288 0.0
H1409 H 0.42395 0.66242 0.23731 0.0
H1410 H 0.39187 0.65687 0.25512 0.0
H1411 H 0.42321 0.62639 0.24833 0.0
H1412 H 0.42082 0.60734 0.30658 0.0
H1413 H 0.38933 0.63771 0.31376 0.0
H1414 H 0.41969 0.63031 0.3355 0.0
H1415 H 0.45436 0.72032 0.30883 0.0
H1416 H 0.40639 0.75736 0.31043 0.0
H1417 H 0.37069 0.69374 0.29379 0.0
C1418 C 0.47649 0.61526 0.27746 0.0
C1419 C 0.5054 0.61187 0.27695 0.0
C1420 C 0.51339 0.63346 0.28726 0.0
C1421 C 0.49268 0.65894 0.29634 0.0
C1422 C 0.46421 0.66203 0.29567 0.0
C1423 C 0.45617 0.64041 0.28722 0.0
C1424 C 0.42436 0.64915 0.28746 0.0
C1425 C 0.41534 0.64869 0.25514 0.0
C1426 C 0.41287 0.63 0.31231 0.0
C1427 C 0.41572 0.67953 0.2961 0.0
C1428 C 0.43888 0.68673 0.30073 0.0
C1429 C 0.43603 0.71465 0.3061 0.0
C1430 C 0.40876 0.73557 0.30692 0.0
C1431 C 0.38488 0.72828 0.30275 0.0
C1432 C 0.38853 0.69985 0.29756 0.0
H1433 H 0.49704 0.50369 0.24888 0.0
H1434 H 0.56298 0.44914 0.18921 0.0
H1435 H 0.53904 0.41285 0.19775 0.0
H1436 H 0.48561 0.44677 0.30441 0.0
H1437 H 0.44771 0.46393 0.30911 0.0
H1438 H 0.47029 0.4855 0.29905 0.0
H1439 H 0.44282 0.51013 0.25057 0.0
H1440 H 0.42011 0.4887 0.26053 0.0
H1441 H 0.43926 0.48823 0.22281 0.0
H1442 H 0.50895 0.38219 0.21333 0.0
H1443 H 0.47227 0.36023 0.23175 0.0
H1444 H 0.42413 0.43502 0.27993 0.0
C1445 C 0.50642 0.48401 0.23779 0.0
C1446 C 0.53187 0.47915 0.21839 0.0
C1447 C 0.54338 0.45337 0.20389 0.0
C1448 C 0.53004 0.43258 0.20878 0.0
C1449 C 0.50501 0.43798 0.22801 0.0
C1450 C 0.49309 0.46315 0.24207 0.0
C1451 C 0.46545 0.46391 0.26074 0.0
C1452 C 0.4674 0.46509 0.29538 0.0
C1453 C 0.44043 0.48924 0.24789 0.0
C1454 C 0.46379 0.4352 0.25499 0.0
C1455 C 0.48705 0.42053 0.23632 0.0
C1456 C 0.49063 0.39345 0.22796 0.0
C1457 C 0.46978 0.38107 0.23872 0.0
C1458 C 0.44548 0.39582 0.25744 0.0
C1459 C 0.44249 0.42328 0.26564 0.0
H1460 H 0.79706 0.64522 0.66428 0.0
H1461 H 0.86907 0.65806 0.60664 0.0
H1462 H 0.87112 0.6921 0.64083 0.0
H1463 H 0.76474 0.7218 0.68314 0.0
H1464 H 0.75324 0.71146 0.72234 0.0
H1465 H 0.75577 0.68938 0.69202 0.0
H1466 H 0.7887 0.64549 0.72454 0.0
H1467 H 0.78666 0.6678 0.75445 0.0
H1468 H 0.82069 0.64758 0.73676 0.0
H1469 H 0.86935 0.72066 0.68253 0.0
H1470 H 0.85967 0.74836 0.72723 0.0
H1471 H 0.78715 0.72093 0.75891 0.0
C1472 C 0.81278 0.65574 0.65857 0.0
C1473 C 0.83304 0.6487 0.63274 0.0
C1474 C 0.85349 0.66273 0.62632 0.0
C1475 C 0.85487 0.6822 0.64564 0.0
C1476 C 0.83547 0.68789 0.67138 0.0
C1477 C 0.81441 0.67567 0.67775 0.0
C1478 C 0.79662 0.68576 0.70751 0.0
C1479 C 0.76576 0.70313 0.70083 0.0
C1480 C 0.79827 0.66012 0.73228 0.0
C1481 C 0.81146 0.70496 0.71685 0.0
C1482 C 0.83389 0.70557 0.69558 0.0
C1483 C 0.85162 0.7207 0.69922 0.0
C1484 C 0.84602 0.73625 0.72495 0.0
C1485 C 0.82266 0.73694 0.74681 0.0
C1486 C 0.8052 0.72087 0.7427 0.0
H1487 H 0.46716 0.85118 0.68099 0.0
H1488 H 0.51783 0.7609 0.67646 0.0
H1489 H 0.47969 0.74699 0.70718 0.0
H1490 H 0.43806 0.84333 0.75987 0.0
H1491 H 0.40356 0.86933 0.75289 0.0
H1492 H 0.43444 0.87257 0.7294 0.0
H1493 H 0.4112 0.87253 0.67976 0.0
H1494 H 0.38026 0.86922 0.70312 0.0
H1495 H 0.39897 0.84324 0.6762 0.0
H1496 H 0.43551 0.74225 0.73846 0.0
H1497 H 0.39022 0.74735 0.76984 0.0
H1498 H 0.36835 0.8403 0.75729 0.0
C1499 C 0.47051 0.82844 0.6864 0.0
C1500 C 0.49605 0.8073 0.67564 0.0
C1501 C 0.49879 0.77782 0.68359 0.0
C1502 C 0.47708 0.76957 0.70131 0.0
C1503 C 0.45239 0.79088 0.71133 0.0
C1504 C 0.449 0.81974 0.7043 0.0
C1505 C 0.42042 0.8383 0.71844 0.0
C1506 C 0.42437 0.85698 0.74152 0.0
C1507 C 0.4016 0.85693 0.69286 0.0
C1508 C 0.40854 0.81536 0.73499 0.0
C1509 C 0.42721 0.78815 0.73013 0.0
C1510 C 0.4208 0.76349 0.74237 0.0
C1511 C 0.39484 0.76662 0.76008 0.0
C1512 C 0.37546 0.79421 0.76604 0.0
C1513 C 0.38262 0.81889 0.75327 0.0
H1514 H 0.35458 0.41004 0.66182 0.0
H1515 H 0.27505 0.43257 0.61967 0.0
H1516 H 0.25867 0.40241 0.66167 0.0
H1517 H 0.36126 0.3358 0.68614 0.0
H1518 H 0.37609 0.33425 0.72212 0.0
H1519 H 0.38154 0.35861 0.68931 0.0
H1520 H 0.36026 0.40126 0.72291 0.0
H1521 H 0.35452 0.37701 0.75573 0.0
H1522 H 0.32532 0.40783 0.74239 0.0
H1523 H 0.25154 0.36767 0.70578 0.0
H1524 H 0.2545 0.32983 0.74969 0.0
H1525 H 0.33741 0.33001 0.76581 0.0
C1526 C 0.33374 0.40863 0.6614 0.0
C1527 C 0.31604 0.42418 0.63733 0.0
C1528 C 0.28888 0.42159 0.63792 0.0
C1529 C 0.27937 0.40431 0.66171 0.0
C1530 C 0.29713 0.38957 0.68507 0.0
C1531 C 0.32378 0.39142 0.6852 0.0
C1532 C 0.33879 0.37251 0.71284 0.0
C1533 C 0.36602 0.3489 0.70195 0.0
C1534 C 0.34509 0.39075 0.73476 0.0
C1535 C 0.31644 0.35971 0.72795 0.0
C1536 C 0.29262 0.36989 0.71138 0.0
C1537 C 0.26986 0.35989 0.71924 0.0
C1538 C 0.27166 0.33849 0.74427 0.0
C1539 C 0.29578 0.32761 0.76157 0.0
C1540 C 0.31829 0.3387 0.75362 0.0
H1541 H 0.6048 0.25053 0.61372 0.0
H1542 H 0.56346 0.33583 0.568 0.0
H1543 H 0.58982 0.35571 0.59799 0.0
H1544 H 0.60521 0.27204 0.68905 0.0
H1545 H 0.63937 0.24541 0.69611 0.0
H1546 H 0.61659 0.23863 0.67173 0.0
H1547 H 0.65668 0.22951 0.62724 0.0
H1548 H 0.67956 0.2364 0.6514 0.0
H1549 H 0.67257 0.25679 0.61397 0.0
H1550 H 0.62224 0.36551 0.6328 0.0
H1551 H 0.65685 0.36469 0.6686 0.0
H1552 H 0.67633 0.27248 0.69097 0.0
C1553 C 0.60104 0.27347 0.60996 0.0
C1554 C 0.58194 0.29165 0.58843 0.0
C1555 C 0.57786 0.3215 0.5844 0.0
C1556 C 0.59279 0.33293 0.60132 0.0
C1557 C 0.61166 0.31421 0.62216 0.0
C1558 C 0.61569 0.28511 0.6265 0.0
C1559 C 0.63734 0.26928 0.6498 0.0
C1560 C 0.62381 0.25554 0.67836 0.0
C1561 C 0.66306 0.24667 0.63469 0.0
C1562 C 0.64519 0.29394 0.65791 0.0
C1563 C 0.63011 0.31973 0.64186 0.0
C1564 C 0.63397 0.34543 0.64556 0.0
C1565 C 0.65361 0.34475 0.66614 0.0
C1566 C 0.66932 0.31853 0.68286 0.0
C1567 C 0.66492 0.29285 0.67847 0.0
H1568 H 0.81159 0.54171 0.49822 0.0
H1569 H 0.77244 0.5209 0.58792 0.0
H1570 H 0.75624 0.48691 0.56496 0.0
H1571 H 0.75839 0.53304 0.44929 0.0
H1572 H 0.7863 0.51801 0.42021 0.0
H1573 H 0.78876 0.54479 0.44249 0.0
H1574 H 0.83762 0.50992 0.45894 0.0
H1575 H 0.83509 0.48282 0.43745 0.0
H1576 H 0.8404 0.47468 0.47828 0.0
H1577 H 0.75184 0.44896 0.53305 0.0
H1578 H 0.75814 0.41326 0.49596 0.0
H1579 H 0.80075 0.45975 0.42796 0.0
C1580 C 0.79839 0.53102 0.51264 0.0
C1581 C 0.79256 0.53438 0.54456 0.0
C1582 C 0.77625 0.51928 0.56317 0.0
C1583 C 0.76721 0.49977 0.55032 0.0
C1584 C 0.77445 0.49598 0.51882 0.0
C1585 C 0.78922 0.51174 0.50016 0.0
C1586 C 0.79712 0.50191 0.46799 0.0
C1587 C 0.78172 0.52586 0.44355 0.0
C1588 C 0.82946 0.49173 0.46025 0.0
C1589 C 0.78593 0.47709 0.47175 0.0
C1590 C 0.77241 0.47418 0.50094 0.0
C1591 C 0.76196 0.45146 0.51 0.0
C1592 C 0.76564 0.43125 0.48882 0.0
C1593 C 0.7801 0.43362 0.45915 0.0
C1594 C 0.78982 0.4572 0.45055 0.0
H1595 H 0.67001 0.7909 0.50162 0.0
H1596 H 0.61834 0.8803 0.48014 0.0
H1597 H 0.65084 0.88424 0.43424 0.0
H1598 H 0.73753 0.80225 0.47764 0.0
H1599 H 0.75421 0.76858 0.4614 0.0
H1600 H 0.72715 0.77152 0.49294 0.0
H1601 H 0.69762 0.75434 0.46092 0.0
H1602 H 0.72464 0.75038 0.42916 0.0
H1603 H 0.68852 0.77256 0.42297 0.0
H1604 H 0.68836 0.87914 0.39034 0.0
H1605 H 0.72862 0.86534 0.35098 0.0
H1606 H 0.75735 0.77875 0.39829 0.0
C1607 C 0.66567 0.81135 0.48741 0.0
C1608 C 0.64121 0.83529 0.4947 0.0
C1609 C 0.63645 0.86153 0.47511 0.0
C1610 C 0.65496 0.86404 0.44891 0.0
C1611 C 0.67846 0.84011 0.44214 0.0
C1612 C 0.68401 0.81423 0.46076 0.0
C1613 C 0.71108 0.79202 0.44796 0.0
C1614 C 0.73383 0.78304 0.47136 0.0
C1615 C 0.70509 0.76577 0.43977 0.0
C1616 C 0.71932 0.80923 0.41882 0.0
C1617 C 0.70027 0.83705 0.41634 0.0
C1618 C 0.70335 0.85739 0.39202 0.0
C1619 C 0.72641 0.84928 0.36967 0.0
C1620 C 0.74627 0.82088 0.37115 0.0
C1621 C 0.74247 0.80053 0.39618 0.0
H1622 H 0.36779 0.59197 0.45333 0.0
H1623 H 0.28469 0.61493 0.50395 0.0
H1624 H 0.27254 0.664 0.47764 0.0
H1625 H 0.37806 0.6606 0.45603 0.0
H1626 H 0.39554 0.66103 0.41746 0.0
H1627 H 0.39816 0.62718 0.44018 0.0
H1628 H 0.37899 0.61174 0.39578 0.0
H1629 H 0.37575 0.64574 0.37312 0.0
H1630 H 0.34535 0.63418 0.38169 0.0
H1631 H 0.26764 0.70991 0.4436 0.0
H1632 H 0.27201 0.75076 0.40631 0.0
H1633 H 0.35919 0.70073 0.38049 0.0
C1634 C 0.34715 0.60733 0.45915 0.0
C1635 C 0.32713 0.59903 0.48057 0.0
C1636 C 0.30029 0.62009 0.4872 0.0
C1637 C 0.29318 0.64829 0.4725 0.0
C1638 C 0.31315 0.65558 0.45134 0.0
C1639 C 0.33971 0.63587 0.44481 0.0
C1640 C 0.35711 0.64957 0.42095 0.0
C1641 C 0.3838 0.6496 0.43448 0.0
C1642 C 0.36475 0.63438 0.39113 0.0
C1643 C 0.33618 0.67998 0.41526 0.0
C1644 C 0.31083 0.68279 0.43281 0.0
C1645 C 0.28754 0.70814 0.43013 0.0
C1646 C 0.29017 0.7312 0.40892 0.0
C1647 C 0.31605 0.72905 0.39115 0.0
C1648 C 0.33941 0.70316 0.39452 0.0
H1649 H 0.45338 0.2501 0.48979 0.0
H1650 H 0.48768 0.31418 0.44093 0.0
H1651 H 0.45235 0.32587 0.40166 0.0
H1652 H 0.43971 0.22392 0.42454 0.0
H1653 H 0.40714 0.21928 0.44204 0.0
H1654 H 0.43458 0.2168 0.4661 0.0
H1655 H 0.39928 0.25671 0.4977 0.0
H1656 H 0.37161 0.25893 0.4741 0.0
H1657 H 0.37972 0.29081 0.47763 0.0
H1658 H 0.41417 0.3273 0.36528 0.0
H1659 H 0.37385 0.32334 0.3409 0.0
H1660 H 0.36411 0.26037 0.4165 0.0
C1661 C 0.45336 0.26681 0.47097 0.0
C1662 C 0.47335 0.28117 0.46833 0.0
C1663 C 0.47243 0.30304 0.44351 0.0
C1664 C 0.45258 0.30961 0.421 0.0
C1665 C 0.43356 0.29441 0.42396 0.0
C1666 C 0.43355 0.27387 0.44883 0.0
C1667 C 0.41079 0.26086 0.44761 0.0
C1668 C 0.42385 0.22829 0.44491 0.0
C1669 C 0.38906 0.26722 0.47593 0.0
C1670 C 0.39794 0.27701 0.41803 0.0
C1671 C 0.41148 0.29602 0.40428 0.0
C1672 C 0.40346 0.31256 0.37609 0.0
C1673 C 0.38077 0.30995 0.36217 0.0
C1674 C 0.36619 0.2913 0.37668 0.0
C1675 C 0.37503 0.27468 0.40485 0.0
H1676 H 0.64145 0.78789 0.71512 0.0
H1677 H 0.67379 0.79825 0.61888 0.0
H1678 H 0.71468 0.80671 0.63581 0.0
H1679 H 0.66083 0.8412 0.74287 0.0
H1680 H 0.67212 0.82111 0.77946 0.0
H1681 H 0.64576 0.81423 0.76049 0.0
H1682 H 0.67642 0.7604 0.76187 0.0
H1683 H 0.70308 0.76697 0.78069 0.0
H1684 H 0.71249 0.75032 0.74503 0.0
H1685 H 0.74939 0.81859 0.66199 0.0
H1686 H 0.77955 0.82783 0.69618 0.0
H1687 H 0.72775 0.80754 0.77681 0.0
C1688 C 0.65736 0.79153 0.69765 0.0
C1689 C 0.65426 0.79237 0.66554 0.0
C1690 C 0.67562 0.79724 0.64352 0.0
C1691 C 0.69894 0.80222 0.65293 0.0
C1692 C 0.70108 0.80177 0.68456 0.0
C1693 C 0.68125 0.796 0.70672 0.0
C1694 C 0.68905 0.79671 0.73925 0.0
C1695 C 0.66553 0.81969 0.75652 0.0
C1696 C 0.69564 0.76682 0.75781 0.0
C1697 C 0.71572 0.80484 0.73173 0.0
C1698 C 0.72211 0.80758 0.69996 0.0
C1699 C 0.74487 0.816 0.68691 0.0
C1700 C 0.76187 0.82131 0.7067 0.0
C1701 C 0.75647 0.81806 0.73948 0.0
C1702 C 0.73286 0.80982 0.7521 0.0
H1703 H 0.64497 0.22364 0.42674 0.0
H1704 H 0.64319 0.26208 0.51055 0.0
H1705 H 0.68699 0.27194 0.49048 0.0
H1706 H 0.72277 0.19034 0.41576 0.0
H1707 H 0.72356 0.19788 0.37409 0.0
H1708 H 0.69296 0.19199 0.39578 0.0
H1709 H 0.6608 0.2413 0.37132 0.0
H1710 H 0.69128 0.24732 0.34961 0.0
H1711 H 0.66861 0.2734 0.37468 0.0
H1712 H 0.72867 0.28097 0.46025 0.0
H1713 H 0.76636 0.28797 0.4218 0.0
H1714 H 0.74278 0.24275 0.35747 0.0
C1715 C 0.65413 0.23361 0.44106 0.0
C1716 C 0.64053 0.24218 0.47022 0.0
C1717 C 0.65295 0.25567 0.48802 0.0
C1718 C 0.67797 0.26119 0.4769 0.0
C1719 C 0.69054 0.25299 0.44791 0.0
C1720 C 0.6792 0.23938 0.43023 0.0
C1721 C 0.69641 0.23407 0.3992 0.0
C1722 C 0.70971 0.20164 0.39603 0.0
C1723 C 0.67818 0.24998 0.37211 0.0
C1724 C 0.7189 0.24717 0.40214 0.0
C1725 C 0.71509 0.25787 0.43051 0.0
C1726 C 0.73211 0.27235 0.43811 0.0
C1727 C 0.75346 0.27627 0.41607 0.0
C1728 C 0.75777 0.26564 0.38674 0.0
C1729 C 0.74041 0.25059 0.37992 0.0
H1730 H 0.82709 0.66743 0.4955 0.0
H1731 H 0.89982 0.60285 0.45364 0.0
H1732 H 0.90246 0.6381 0.40939 0.0
H1733 H 0.79743 0.69792 0.42137 0.0
H1734 H 0.78386 0.7347 0.42989 0.0
H1735 H 0.7856 0.70608 0.46076 0.0
H1736 H 0.81627 0.72177 0.49231 0.0
H1737 H 0.81321 0.75238 0.46388 0.0
H1738 H 0.84776 0.72819 0.47377 0.0
H1739 H 0.89758 0.68012 0.36901 0.0
H1740 H 0.88598 0.72707 0.3365 0.0
H1741 H 0.81764 0.76493 0.40447 0.0
C1742 C 0.84351 0.66045 0.47709 0.0
C1743 C 0.86347 0.63208 0.47881 0.0
C1744 C 0.8845 0.62432 0.45374 0.0
C1745 C 0.88613 0.64424 0.42813 0.0
C1746 C 0.86642 0.67192 0.42746 0.0
C1747 C 0.84539 0.68005 0.45114 0.0
C1748 C 0.82658 0.71114 0.44425 0.0
C1749 C 0.79658 0.71254 0.43882 0.0
C1750 C 0.82594 0.72944 0.47009 0.0
C1751 C 0.84163 0.71972 0.41423 0.0
C1752 C 0.86399 0.69646 0.40443 0.0
C1753 C 0.88026 0.69856 0.37656 0.0
C1754 C 0.8736 0.72523 0.3583 0.0
C1755 C 0.85143 0.74952 0.36844 0.0
C1756 C 0.83519 0.74674 0.39669 0.0
H1757 H 0.58788 0.76221 0.50017 0.0
H1758 H 0.55593 0.73001 0.58929 0.0
H1759 H 0.51719 0.72426 0.56402 0.0
H1760 H 0.5223 0.8054 0.4773 0.0
H1761 H 0.5303 0.80054 0.43663 0.0
H1762 H 0.55828 0.79694 0.46037 0.0
H1763 H 0.5855 0.7456 0.44456 0.0
H1764 H 0.55772 0.74913 0.42041 0.0
H1765 H 0.56798 0.71913 0.45 0.0
H1766 H 0.47862 0.72766 0.52966 0.0
H1767 H 0.44371 0.74086 0.49024 0.0
H1768 H 0.50091 0.77179 0.42423 0.0
C1769 C 0.57343 0.75287 0.51426 0.0
C1770 C 0.57531 0.74599 0.54666 0.0
C1771 C 0.55518 0.73498 0.56437 0.0
C1772 C 0.53309 0.73169 0.5502 0.0
C1773 C 0.5313 0.73966 0.51833 0.0
C1774 C 0.55105 0.74997 0.50061 0.0
C1775 C 0.54272 0.76031 0.46771 0.0
C1776 C 0.53813 0.79271 0.46008 0.0
C1777 C 0.56479 0.74247 0.44429 0.0
C1778 C 0.51505 0.7545 0.46964 0.0
C1779 C 0.50888 0.74234 0.49889 0.0
C1780 C 0.4835 0.73676 0.50656 0.0
C1781 C 0.46382 0.74422 0.48394 0.0
C1782 C 0.46948 0.75736 0.45404 0.0
C1783 C 0.49578 0.76193 0.44685 0.0
H1784 H 0.33402 0.45529 0.44584 0.0
H1785 H 0.25179 0.47478 0.49783 0.0
H1786 H 0.2376 0.44698 0.46396 0.0
H1787 H 0.30929 0.45863 0.36944 0.0
H1788 H 0.3402 0.42928 0.35787 0.0
H1789 H 0.34275 0.45254 0.38466 0.0
H1790 H 0.36303 0.40808 0.42439 0.0
H1791 H 0.3605 0.38476 0.39776 0.0
H1792 H 0.3433 0.38389 0.43642 0.0
H1793 H 0.23451 0.41279 0.42721 0.0
H1794 H 0.24223 0.37697 0.39008 0.0
H1795 H 0.32602 0.38186 0.36185 0.0
C1796 C 0.31285 0.4541 0.44992 0.0
C1797 C 0.29399 0.46723 0.47448 0.0
C1798 C 0.26653 0.46503 0.47903 0.0
C1799 C 0.25832 0.44927 0.45993 0.0
C1800 C 0.27769 0.43616 0.43622 0.0
C1801 C 0.30431 0.43869 0.43104 0.0
C1802 C 0.32172 0.42169 0.40497 0.0
C1803 C 0.3289 0.44174 0.37761 0.0
C1804 C 0.34872 0.39822 0.41659 0.0
C1805 C 0.30098 0.40868 0.39662 0.0
C1806 C 0.27567 0.41724 0.41479 0.0
C1807 C 0.25408 0.40635 0.41253 0.0
C1808 C 0.25866 0.38599 0.3914 0.0
C1809 C 0.28457 0.37688 0.37275 0.0
C1810 C 0.30572 0.3888 0.37523 0.0
H1811 H 0.46071 0.21389 0.63388 0.0
H1812 H 0.50611 0.27068 0.64617 0.0
H1813 H 0.4802 0.27979 0.69746 0.0
H1814 H 0.39393 0.25675 0.66831 0.0
H1815 H 0.38391 0.22655 0.6866 0.0
H1816 H 0.40723 0.22297 0.65158 0.0
H1817 H 0.44455 0.17929 0.67938 0.0
H1818 H 0.42135 0.18285 0.71455 0.0
H1819 H 0.45685 0.18324 0.71501 0.0
H1820 H 0.44869 0.2843 0.7461 0.0
H1821 H 0.41181 0.28572 0.78879 0.0
H1822 H 0.3854 0.22649 0.74599 0.0
C1823 C 0.4654 0.22788 0.64765 0.0
C1824 C 0.48547 0.24156 0.63608 0.0
C1825 C 0.49069 0.2602 0.65446 0.0
C1826 C 0.47621 0.26535 0.68371 0.0
C1827 C 0.45642 0.25179 0.69434 0.0
C1828 C 0.45083 0.23354 0.67692 0.0
C1829 C 0.42733 0.22305 0.69331 0.0
C1830 C 0.40158 0.23293 0.67378 0.0
C1831 C 0.43817 0.19015 0.70102 0.0
C1832 C 0.42063 0.2383 0.72258 0.0
C1833 C 0.43785 0.25461 0.72264 0.0
C1834 C 0.43521 0.27146 0.74645 0.0
C1835 C 0.41413 0.27209 0.77065 0.0
C1836 C 0.39575 0.25604 0.771 0.0
C1837 C 0.3994 0.23858 0.74676 0.0
H1838 H 0.82429 0.48567 0.65592 0.0
H1839 H 0.90998 0.47391 0.67693 0.0
H1840 H 0.9116 0.42956 0.70974 0.0
H1841 H 0.80165 0.46127 0.73277 0.0
H1842 H 0.78025 0.44347 0.71959 0.0
H1843 H 0.78577 0.47422 0.69633 0.0
H1844 H 0.80506 0.44411 0.6496 0.0
H1845 H 0.79971 0.41321 0.67277 0.0
H1846 H 0.83423 0.41064 0.65401 0.0
H1847 H 0.90476 0.38667 0.74038 0.0
H1848 H 0.88862 0.34871 0.76977 0.0
H1849 H 0.80666 0.38801 0.73138 0.0
C1850 C 0.84347 0.474 0.6673 0.0
C1851 C 0.86711 0.48372 0.66314 0.0
C1852 C 0.89161 0.46727 0.6789 0.0
C1853 C 0.8928 0.44185 0.69785 0.0
C1854 C 0.8693 0.43298 0.70117 0.0
C1855 C 0.84499 0.44857 0.6866 0.0
C1856 C 0.82245 0.43445 0.69505 0.0
C1857 C 0.79596 0.45456 0.71194 0.0
C1858 C 0.81493 0.42505 0.66613 0.0
C1859 C 0.83799 0.4086 0.71674 0.0
C1860 C 0.86506 0.40819 0.71964 0.0
C1861 C 0.88361 0.38672 0.73836 0.0
C1862 C 0.87418 0.36519 0.75495 0.0
C1863 C 0.84633 0.36529 0.75294 0.0
C1864 C 0.82808 0.38725 0.73334 0.0
H1865 H 0.30654 0.5466 0.64745 0.0
H1866 H 0.24787 0.59402 0.5783 0.0
H1867 H 0.23426 0.6376 0.60633 0.0
H1868 H 0.26543 0.58308 0.71565 0.0
H1869 H 0.29745 0.5818 0.73097 0.0
H1870 H 0.29799 0.55386 0.70854 0.0
H1871 H 0.33856 0.56368 0.67139 0.0
H1872 H 0.33778 0.592 0.6932 0.0
H1873 H 0.33329 0.59945 0.65218 0.0
H1874 H 0.23257 0.67768 0.63893 0.0
H1875 H 0.24176 0.70889 0.67312 0.0
H1876 H 0.30245 0.6337 0.71881 0.0
C1877 C 0.29014 0.5659 0.6387 0.0
C1878 C 0.27807 0.56702 0.61095 0.0
C1879 C 0.25697 0.59268 0.59992 0.0
C1880 C 0.24929 0.61752 0.61559 0.0
C1881 C 0.26271 0.616 0.64227 0.0
C1882 C 0.28242 0.59059 0.65388 0.0
C1883 C 0.296 0.59471 0.68096 0.0
C1884 C 0.28877 0.57734 0.7108 0.0
C1885 C 0.3283 0.58702 0.67399 0.0
C1886 C 0.28156 0.62661 0.6824 0.0
C1887 C 0.26217 0.63868 0.66026 0.0
C1888 C 0.24743 0.6683 0.65657 0.0
C1889 C 0.25279 0.68585 0.67599 0.0
C1890 C 0.27301 0.67366 0.69832 0.0
C1891 C 0.28715 0.64366 0.70167 0.0
loop_
_geom_bond_atom_site_label_1
_geom_bond_atom_site_label_2
_geom_bond_distance
_geom_bond_site_symmetry_2
_ccdc_geom_bond_type
Cu0 N1 1.999 . S
Cu0 O6 1.974 1_545 S
Cu0 N11 1.985 1_545 S
Cu0 O20 1.968 . S
N1 Cu0 1.999 . S
N1 C3 1.263 . S
N1 C5 1.389 . S
N2 C3 1.358 . S
N2 C4 1.400 . S
C3 N1 1.263 . S
C3 N2 1.358 . S
C3 H9 0.930 . S
C4 N2 1.400 . S
C4 C5 1.351 . S
C4 H21 0.930 . S
C5 N1 1.389 . S
C5 C4 1.351 . S
C5 H10 0.930 . S
O6 Cu0 1.974 1_565 S
O6 C16 1.282 . S
C7 O8 1.261 1_655 S
C7 O20 1.248 1_655 S
O8 C7 1.261 1_455 S
H9 C3 0.930 . S
H10 C5 0.930 . S
N11 Cu0 1.985 1_565 S
N11 C13 1.335 1_455 S
N11 C14 1.390 . S
N12 C13 1.345 . S
N12 C15 1.336 1_655 S
C13 N11 1.335 1_655 S
C13 N12 1.345 . S
C13 H18 0.930 . S
C14 N11 1.390 . S
C14 C15 1.346 . S
C14 H19 0.930 . S
C15 N12 1.336 1_455 S
C15 C14 1.346 . S
C15 H22 0.929 . S
C16 O6 1.282 . S
C16 O17 1.216 . S
O17 C16 1.216 . S
H18 C13 0.930 . S
H19 C14 0.930 . S
O20 Cu0 1.968 . S
O20 C7 1.248 1_455 S
H21 C4 0.930 . S
H22 C15 0.929 . S
Cu23 N24 2.037 . S
Cu23 O29 1.974 1_455 S
Cu23 N34 1.985 . S
Cu23 O43 1.959 . S
N24 Cu23 2.037 . S
N24 C26 1.220 1_455 S
N24 C28 1.390 1_545 S
N25 C26 1.358 . S
N25 C27 1.400 1_545 S
C26 N24 1.220 1_655 S
C26 N25 1.358 . S
C26 H32 0.930 . S
C27 N25 1.400 1_565 S
C27 C28 1.351 1_655 S
C27 H44 0.930 . S
C28 N24 1.390 1_565 S
C28 C27 1.351 1_455 S
C28 H33 0.930 . S
O29 Cu23 1.974 1_655 S
O29 C39 1.282 . S
C30 O31 1.261 . S
C30 O43 1.251 . S
O31 C30 1.261 . S
H32 C26 0.930 . S
H33 C28 0.930 . S
N34 Cu23 1.985 . S
N34 C36 1.335 . S
N34 C37 1.390 . S
N35 C36 1.345 . S
N35 C38 1.336 . S
C36 N34 1.335 . S
C36 N35 1.345 . S
C36 H41 0.930 . S
C37 N34 1.390 . S
C37 C38 1.346 . S
C37 H42 0.930 . S
C38 N35 1.336 . S
C38 C37 1.346 . S
C38 H45 0.929 . S
C39 O29 1.282 . S
C39 O40 1.216 . S
O40 C39 1.216 . S
H41 C36 0.930 . S
H42 C37 0.930 . S
O43 Cu23 1.959 . S
O43 C30 1.251 . S
H44 C27 0.930 . S
H45 C38 0.929 . S
Cu46 N47 1.999 . S
Cu46 O52 1.974 . S
Cu46 N57 1.985 . S
Cu46 O66 1.959 . S
N47 Cu46 1.999 . S
N47 C49 1.263 . S
N47 C51 1.389 . S
N48 C49 1.358 1_565 S
N48 C50 1.400 1_565 S
C49 N47 1.263 . S
C49 N48 1.358 1_545 S
C49 H55 0.930 . S
C50 N48 1.400 1_545 S
C50 C51 1.351 . S
C50 H67 0.930 1_554 S
C51 N47 1.389 . S
C51 C50 1.351 . S
C51 H56 0.930 . S
O52 Cu46 1.974 . S
O52 C62 1.282 . S
C53 O54 1.261 . S
C53 O66 1.251 . S
O54 C53 1.261 . S
H55 C49 0.930 . S
H56 C51 0.930 . S
N57 Cu46 1.985 . S
N57 C59 1.335 . S
N57 C60 1.390 . S
N58 C59 1.345 . S
N58 C61 1.336 . S
C59 N57 1.335 . S
C59 N58 1.345 . S
C59 H64 0.930 . S
C60 N57 1.390 . S
C60 C61 1.346 . S
C60 H65 0.930 . S
C61 N58 1.336 . S
C61 C60 1.346 . S
C61 H68 0.929 . S
C62 O52 1.282 . S
C62 O63 1.216 . S
O63 C62 1.216 . S
H64 C59 0.930 . S
H65 C60 0.930 . S
O66 Cu46 1.959 . S
O66 C53 1.251 . S
H67 C50 0.930 1_556 S
H68 C61 0.929 . S
Cu69 N70 1.999 . S
Cu69 O75 1.974 . S
Cu69 N80 1.985 . S
Cu69 O89 1.959 . S
N70 Cu69 1.999 . S
N70 C72 1.263 . S
N70 C74 1.389 . S
N71 C72 1.358 . S
N71 C73 1.400 1_554 S
C72 N70 1.263 . S
C72 N71 1.358 . S
C72 H78 0.930 . S
C73 N71 1.400 1_556 S
C73 C74 1.351 1_556 S
C73 H90 0.930 . S
C74 N70 1.389 . S
C74 C73 1.351 1_554 S
C74 H79 0.930 . S
O75 Cu69 1.974 . S
O75 C85 1.282 . S
C76 O77 1.261 . S
C76 O89 1.251 . S
O77 C76 1.261 . S
H78 C72 0.930 . S
H79 C74 0.930 . S
N80 Cu69 1.985 . S
N80 C82 1.335 1_455 S
N80 C83 1.390 . S
N81 C82 1.345 . S
N81 C84 1.336 1_655 S
C82 N80 1.335 1_655 S
C82 N81 1.345 . S
C82 H87 0.930 . S
C83 N80 1.390 . S
C83 C84 1.346 . S
C83 H88 0.930 . S
C84 N81 1.336 1_455 S
C84 C83 1.346 . S
C84 H91 0.929 . S
C85 O75 1.282 . S
C85 O86 1.216 . S
O86 C85 1.216 . S
H87 C82 0.930 . S
H88 C83 0.930 . S
O89 Cu69 1.959 . S
O89 C76 1.251 . S
H90 C73 0.930 . S
H91 C84 0.929 . S
Cu92 N93 1.999 1_554 S
Cu92 O98 1.974 . S
Cu92 N103 1.985 1_545 S
Cu92 O112 1.959 1_544 S
N93 Cu92 1.999 1_556 S
N93 C95 1.263 . S
N93 C97 1.389 . S
N94 C95 1.358 . S
N94 C96 1.400 . S
C95 N93 1.263 . S
C95 N94 1.358 . S
C95 H101 0.930 . S
C96 N94 1.400 . S
C96 C97 1.351 . S
C96 H113 0.930 . S
C97 N93 1.389 . S
C97 C96 1.351 . S
C97 H102 0.930 . S
O98 Cu92 1.974 . S
O98 C108 1.282 . S
C99 O100 1.261 . S
C99 O112 1.251 . S
O100 C99 1.261 . S
H101 C95 0.930 . S
H102 C97 0.930 . S
N103 Cu92 1.985 1_565 S
N103 C105 1.335 . S
N103 C106 1.390 . S
N104 C105 1.345 . S
N104 C107 1.336 . S
C105 N103 1.335 . S
C105 N104 1.345 . S
C105 H110 0.930 . S
C106 N103 1.390 . S
C106 C107 1.346 . S
C106 H111 0.930 . S
C107 N104 1.336 . S
C107 C106 1.346 . S
C107 H114 0.929 . S
C108 O98 1.282 . S
C108 O109 1.216 . S
O109 C108 1.216 . S
H110 C105 0.930 . S
H111 C106 0.930 . S
O112 Cu92 1.959 1_566 S
O112 C99 1.251 . S
H113 C96 0.930 . S
H114 C107 0.929 . S
Cu115 N116 1.999 1_454 S
Cu115 O121 1.974 1_455 S
Cu115 N126 1.985 . S
Cu115 O135 1.959 1_554 S
N116 Cu115 1.999 1_656 S
N116 C118 1.263 . S
N116 C120 1.389 . S
N117 C118 1.358 . S
N117 C119 1.400 . S
C118 N116 1.263 . S
C118 N117 1.358 . S
C118 H124 0.927 1_556 S
C119 N117 1.400 . S
C119 C120 1.351 . S
C119 H136 0.930 . S
C120 N116 1.389 . S
C120 C119 1.351 . S
C120 H125 0.929 1_655 S
O121 Cu115 1.974 1_655 S
O121 C131 1.282 . S
C122 O123 1.261 . S
C122 O135 1.251 . S
O123 C122 1.261 . S
H124 C118 0.927 1_554 S
H125 C120 0.929 1_455 S
N126 Cu115 1.985 . S
N126 C128 1.335 . S
N126 C129 1.390 . S
N127 C128 1.345 . S
N127 C130 1.336 . S
C128 N126 1.335 . S
C128 N127 1.345 . S
C128 H133 0.930 . S
C129 N126 1.390 . S
C129 C130 1.346 . S
C129 H134 0.930 . S
C130 N127 1.336 . S
C130 C129 1.346 . S
C130 H137 0.929 . S
C131 O121 1.282 . S
C131 O132 1.216 . S
O132 C131 1.216 . S
H133 C128 0.930 . S
H134 C129 0.930 . S
O135 Cu115 1.959 1_556 S
O135 C122 1.251 . S
H136 C119 0.930 . S
H137 C130 0.929 . S
Cu138 N139 1.999 . S
Cu138 O144 1.974 . S
Cu138 N149 1.985 . S
Cu138 O158 1.959 . S
N139 Cu138 1.999 . S
N139 C141 1.263 . S
N139 C143 1.389 . S
N140 C141 1.358 . S
N140 C142 1.400 . S
C141 N139 1.263 . S
C141 N140 1.358 . S
C141 H147 0.930 . S
C142 N140 1.400 . S
C142 C143 1.351 . S
C142 H159 0.930 . S
C143 N139 1.389 . S
C143 C142 1.351 . S
C143 H148 0.930 . S
O144 Cu138 1.974 . S
O144 C154 1.282 . S
C145 O146 1.261 . S
C145 O158 1.251 . S
O146 C145 1.261 . S
H147 C141 0.930 . S
H148 C143 0.930 . S
N149 Cu138 1.985 . S
N149 C151 1.335 . S
N149 C152 1.390 . S
N150 C151 1.345 . S
N150 C153 1.336 . S
C151 N149 1.335 . S
C151 N150 1.345 . S
C151 H156 0.930 . S
C152 N149 1.390 . S
C152 C153 1.346 . S
C152 H157 0.930 . S
C153 N150 1.336 . S
C153 C152 1.346 . S
C153 H160 0.929 . S
C154 O144 1.282 . S
C154 O155 1.216 . S
O155 C154 1.216 . S
H156 C151 0.930 . S
H157 C152 0.930 . S
O158 Cu138 1.959 . S
O158 C145 1.251 . S
H159 C142 0.930 . S
H160 C153 0.929 . S
Cu161 N162 1.999 . S
Cu161 O167 1.974 . S
Cu161 N172 1.985 . S
Cu161 O181 1.959 . S
N162 Cu161 1.999 . S
N162 C164 1.263 . S
N162 C166 1.389 . S
N163 C164 1.358 . S
N163 C165 1.400 . S
C164 N162 1.263 . S
C164 N163 1.358 . S
C164 H170 0.930 . S
C165 N163 1.400 . S
C165 C166 1.351 . S
C165 H182 0.930 . S
C166 N162 1.389 . S
C166 C165 1.351 . S
C166 H171 0.930 . S
O167 Cu161 1.974 . S
O167 C177 1.282 . S
C168 O169 1.261 . S
C168 O181 1.251 . S
O169 C168 1.261 . S
H170 C164 0.930 . S
H171 C166 0.930 . S
N172 Cu161 1.985 . S
N172 C174 1.335 . S
N172 C175 1.390 . S
N173 C174 1.345 . S
N173 C176 1.336 . S
C174 N172 1.335 . S
C174 N173 1.345 . S
C174 H179 0.930 . S
C175 N172 1.390 . S
C175 C176 1.346 . S
C175 H180 0.930 . S
C176 N173 1.336 . S
C176 C175 1.346 . S
C176 H183 0.929 . S
C177 O167 1.282 . S
C177 O178 1.216 . S
O178 C177 1.216 . S
H179 C174 0.930 . S
H180 C175 0.930 . S
O181 Cu161 1.959 . S
O181 C168 1.251 . S
H182 C165 0.930 . S
H183 C176 0.929 . S
Cu184 N185 1.999 . S
Cu184 O190 1.974 . S
Cu184 N195 1.985 . S
Cu184 O204 1.959 . S
N185 Cu184 1.999 . S
N185 C187 1.263 . S
N185 C189 1.389 . S
N186 C187 1.358 . S
N186 C188 1.400 . S
C187 N185 1.263 . S
C187 N186 1.358 . S
C187 H193 0.930 . S
C188 N186 1.400 . S
C188 C189 1.351 . S
C188 H205 0.930 . S
C189 N185 1.389 . S
C189 C188 1.351 . S
C189 H194 0.930 . S
O190 Cu184 1.974 . S
O190 C200 1.282 . S
C191 O192 1.261 . S
C191 O204 1.251 . S
O192 C191 1.261 . S
H193 C187 0.930 . S
H194 C189 0.930 . S
N195 Cu184 1.985 . S
N195 C197 1.335 . S
N195 C198 1.390 . S
N196 C197 1.345 . S
N196 C199 1.336 . S
C197 N195 1.335 . S
C197 N196 1.345 . S
C197 H202 0.930 . S
C198 N195 1.390 . S
C198 C199 1.346 . S
C198 H203 0.930 . S
C199 N196 1.336 . S
C199 C198 1.346 . S
C199 H206 0.929 . S
C200 O190 1.282 . S
C200 O201 1.216 . S
O201 C200 1.216 . S
H202 C197 0.930 . S
H203 C198 0.930 . S
O204 Cu184 1.959 . S
O204 C191 1.251 . S
H205 C188 0.930 . S
H206 C199 0.929 . S
Cu207 N208 1.999 . S
Cu207 O213 1.974 . S
Cu207 N218 1.985 . S
Cu207 O227 1.959 . S
N208 Cu207 1.999 . S
N208 C210 1.263 . S
N208 C212 1.389 . S
N209 C210 1.358 . S
N209 C211 1.400 . S
C210 N208 1.263 . S
C210 N209 1.358 . S
C210 H216 0.930 . S
C211 N209 1.400 . S
C211 C212 1.351 . S
C211 H228 0.930 . S
C212 N208 1.389 . S
C212 C211 1.351 . S
C212 H217 0.930 . S
O213 Cu207 1.974 . S
O213 C223 1.282 . S
C214 O215 1.261 . S
C214 O227 1.251 . S
O215 C214 1.261 . S
H216 C210 0.930 . S
H217 C212 0.930 . S
N218 Cu207 1.985 . S
N218 C220 1.335 . S
N218 C221 1.390 . S
N219 C220 1.345 . S
N219 C222 1.336 . S
C220 N218 1.335 . S
C220 N219 1.345 . S
C220 H225 0.930 . S
C221 N218 1.390 . S
C221 C222 1.346 . S
C221 H226 0.930 . S
C222 N219 1.336 . S
C222 C221 1.346 . S
C222 H229 0.929 . S
C223 O213 1.282 . S
C223 O224 1.216 . S
O224 C223 1.216 . S
H225 C220 0.930 . S
H226 C221 0.930 . S
O227 Cu207 1.959 . S
O227 C214 1.251 . S
H228 C211 0.930 . S
H229 C222 0.929 . S
Cu230 N231 1.999 . S
Cu230 O236 1.974 . S
Cu230 N241 1.985 . S
Cu230 O250 1.959 . S
N231 Cu230 1.999 . S
N231 C233 1.263 . S
N231 C235 1.389 . S
N232 C233 1.358 . S
N232 C234 1.400 . S
C233 N231 1.263 . S
C233 N232 1.358 . S
C233 H239 0.930 . S
C234 N232 1.400 . S
C234 C235 1.351 . S
C234 H251 0.930 . S
C235 N231 1.389 . S
C235 C234 1.351 . S
C235 H240 0.930 . S
O236 Cu230 1.974 . S
O236 C246 1.282 . S
C237 O238 1.261 . S
C237 O250 1.251 . S
O238 C237 1.261 . S
H239 C233 0.930 . S
H240 C235 0.930 . S
N241 Cu230 1.985 . S
N241 C243 1.335 . S
N241 C244 1.390 . S
N242 C243 1.345 . S
N242 C245 1.336 . S
C243 N241 1.335 . S
C243 N242 1.345 . S
C243 H248 0.930 . S
C244 N241 1.390 . S
C244 C245 1.346 . S
C244 H249 0.930 . S
C245 N242 1.336 . S
C245 C244 1.346 . S
C245 H252 0.929 . S
C246 O236 1.282 . S
C246 O247 1.216 . S
O247 C246 1.216 . S
H248 C243 0.930 . S
H249 C244 0.930 . S
O250 Cu230 1.959 . S
O250 C237 1.251 . S
H251 C234 0.930 . S
H252 C245 0.929 . S
Cu253 N254 1.999 . S
Cu253 O259 1.974 . S
Cu253 N264 1.985 . S
Cu253 O273 1.959 . S
N254 Cu253 1.999 . S
N254 C256 1.263 . S
N254 C258 1.389 . S
N255 C256 1.358 . S
N255 C257 1.400 . S
C256 N254 1.263 . S
C256 N255 1.358 . S
C256 H262 0.930 . S
C257 N255 1.400 . S
C257 C258 1.351 . S
C257 H274 0.930 . S
C258 N254 1.389 . S
C258 C257 1.351 . S
C258 H263 0.930 . S
O259 Cu253 1.974 . S
O259 C269 1.282 . S
C260 O261 1.261 . S
C260 O273 1.251 . S
O261 C260 1.261 . S
H262 C256 0.930 . S
H263 C258 0.930 . S
N264 Cu253 1.985 . S
N264 C266 1.335 . S
N264 C267 1.390 . S
N265 C266 1.345 . S
N265 C268 1.336 . S
C266 N264 1.335 . S
C266 N265 1.345 . S
C266 H271 0.930 . S
C267 N264 1.390 . S
C267 C268 1.346 . S
C267 H272 0.930 . S
C268 N265 1.336 . S
C268 C267 1.346 . S
C268 H275 0.929 . S
C269 O259 1.282 . S
C269 O270 1.216 . S
O270 C269 1.216 . S
H271 C266 0.930 . S
H272 C267 0.930 . S
O273 Cu253 1.959 . S
O273 C260 1.251 . S
H274 C257 0.930 . S
H275 C268 0.929 . S
La276 C278 2.928 . S
La276 O296 2.521 . S
La276 O297 2.628 . S
La276 O298 2.554 . S
La276 O299 2.757 . S
La276 O300 2.470 . S
La276 O305 2.482 . S
La276 O307 2.503 . S
La277 C287 2.928 . S
La277 O299 2.482 . S
La277 O301 2.503 . S
La277 O302 2.521 . S
La277 O303 2.628 . S
La277 O304 2.554 . S
La277 O305 2.757 . S
La277 O306 2.470 . S
C278 La276 2.928 . S
C278 C279 1.503 . S
C278 O296 1.261 . S
C278 O297 1.243 . S
C279 C278 1.503 . S
C279 C280 1.394 . S
C279 C284 1.373 . S
C280 C279 1.394 . S
C280 C281 1.380 . S
C280 H308 0.930 . S
C281 C280 1.380 . S
C281 C282 1.376 . S
C281 H309 0.930 . S
C282 C281 1.376 . S
C282 C283 1.370 . S
C283 C282 1.370 . S
C283 C284 1.396 . S
C283 H310 0.929 . S
C284 C279 1.373 . S
C284 C283 1.396 . S
C284 H311 0.929 . S
C285 O298 1.240 . S
C285 O299 1.289 . S
C286 O300 1.258 . S
C286 O301 1.256 . S
C287 La277 2.928 . S
C287 C288 1.503 . S
C287 O302 1.261 . S
C287 O303 1.243 . S
C288 C287 1.503 . S
C288 C289 1.394 . S
C288 C293 1.373 . S
C289 C288 1.394 . S
C289 C290 1.380 . S
C289 H312 0.930 . S
C290 C289 1.380 . S
C290 C291 1.376 . S
C290 H313 0.930 . S
C291 C290 1.376 . S
C291 C292 1.370 . S
C292 C291 1.370 . S
C292 C293 1.396 . S
C292 H314 0.929 . S
C293 C288 1.373 . S
C293 C292 1.396 . S
C293 H315 0.929 . S
C294 O304 1.240 . S
C294 O305 1.289 . S
C295 O306 1.258 . S
C295 O307 1.256 . S
O296 La276 2.521 . S
O296 C278 1.261 . S
O297 La276 2.628 . S
O297 C278 1.243 . S
O298 La276 2.554 . S
O298 C285 1.240 . S
O299 La276 2.757 . S
O299 La277 2.482 . S
O299 C285 1.289 . S
O300 La276 2.470 . S
O300 C286 1.258 . S
O301 La277 2.503 . S
O301 C286 1.256 . S
O302 La277 2.521 . S
O302 C287 1.261 . S
O303 La277 2.628 . S
O303 C287 1.243 . S
O304 La277 2.554 . S
O304 C294 1.240 . S
O305 La276 2.482 . S
O305 La277 2.757 . S
O305 C294 1.289 . S
O306 La277 2.470 . S
O306 C295 1.258 . S
O307 La276 2.503 . S
O307 C295 1.256 . S
H308 C280 0.930 . S
H309 C281 0.930 . S
H310 C283 0.929 . S
H311 C284 0.929 . S
H312 C289 0.930 . S
H313 C290 0.930 . S
H314 C292 0.929 . S
H315 C293 0.929 . S
La316 C318 2.928 . S
La316 O336 2.521 . S
La316 O337 2.628 . S
La316 O338 2.554 . S
La316 O339 2.757 . S
La316 O340 2.470 . S
La316 O345 2.482 . S
La316 O347 2.503 . S
La317 C327 2.928 . S
La317 O339 2.482 . S
La317 O341 2.503 . S
La317 O342 2.521 . S
La317 O343 2.628 . S
La317 O344 2.554 . S
La317 O345 2.757 . S
La317 O346 2.470 . S
C318 La316 2.928 . S
C318 C319 1.503 . S
C318 O336 1.261 . S
C318 O337 1.243 . S
C319 C318 1.503 . S
C319 C320 1.394 . S
C319 C324 1.373 . S
C320 C319 1.394 . S
C320 C321 1.380 . S
C320 H348 0.930 . S
C321 C320 1.380 . S
C321 C322 1.376 . S
C321 H349 0.930 . S
C322 C321 1.376 . S
C322 C323 1.370 . S
C323 C322 1.370 . S
C323 C324 1.396 . S
C323 H350 0.929 . S
C324 C319 1.373 . S
C324 C323 1.396 . S
C324 H351 0.929 . S
C325 O338 1.240 . S
C325 O339 1.289 . S
C326 O340 1.258 . S
C326 O341 1.256 . S
C327 La317 2.928 . S
C327 C328 1.503 . S
C327 O342 1.261 . S
C327 O343 1.243 . S
C328 C327 1.503 . S
C328 C329 1.394 . S
C328 C333 1.373 . S
C329 C328 1.394 . S
C329 C330 1.380 . S
C329 H352 0.930 . S
C330 C329 1.380 . S
C330 C331 1.376 . S
C330 H353 0.930 . S
C331 C330 1.376 . S
C331 C332 1.370 . S
C332 C331 1.370 . S
C332 C333 1.396 . S
C332 H354 0.929 . S
C333 C328 1.373 . S
C333 C332 1.396 . S
C333 H355 0.929 . S
C334 O344 1.240 . S
C334 O345 1.289 . S
C335 O346 1.258 . S
C335 O347 1.256 . S
O336 La316 2.521 . S
O336 C318 1.261 . S
O337 La316 2.628 . S
O337 C318 1.243 . S
O338 La316 2.554 . S
O338 C325 1.240 . S
O339 La316 2.757 . S
O339 La317 2.482 . S
O339 C325 1.289 . S
O340 La316 2.470 . S
O340 C326 1.258 . S
O341 La317 2.503 . S
O341 C326 1.256 . S
O342 La317 2.521 . S
O342 C327 1.261 . S
O343 La317 2.628 . S
O343 C327 1.243 . S
O344 La317 2.554 . S
O344 C334 1.240 . S
O345 La316 2.482 . S
O345 La317 2.757 . S
O345 C334 1.289 . S
O346 La317 2.470 . S
O346 C335 1.258 . S
O347 La316 2.503 . S
O347 C335 1.256 . S
H348 C320 0.930 . S
H349 C321 0.930 . S
H350 C323 0.929 . S
H351 C324 0.929 . S
H352 C329 0.930 . S
H353 C330 0.930 . S
H354 C332 0.929 . S
H355 C333 0.929 . S
La356 C358 2.928 . S
La356 O376 2.521 . S
La356 O377 2.628 . S
La356 O378 2.554 . S
La356 O379 2.757 . S
La356 O380 2.470 . S
La356 O385 2.482 . S
La356 O387 2.503 . S
La357 C367 2.928 . S
La357 O379 2.482 . S
La357 O381 2.503 . S
La357 O382 2.521 . S
La357 O383 2.628 . S
La357 O384 2.554 . S
La357 O385 2.757 . S
La357 O386 2.470 . S
C358 La356 2.928 . S
C358 C359 1.503 . S
C358 O376 1.261 . S
C358 O377 1.243 . S
C359 C358 1.503 . S
C359 C360 1.394 . S
C359 C364 1.373 . S
C360 C359 1.394 . S
C360 C361 1.380 . S
C360 H388 0.930 . S
C361 C360 1.380 . S
C361 C362 1.376 . S
C361 H389 0.930 . S
C362 C361 1.376 . S
C362 C363 1.370 . S
C363 C362 1.370 . S
C363 C364 1.396 . S
C363 H390 0.929 . S
C364 C359 1.373 . S
C364 C363 1.396 . S
C364 H391 0.929 . S
C365 O378 1.240 . S
C365 O379 1.289 . S
C366 O380 1.258 . S
C366 O381 1.256 . S
C367 La357 2.928 . S
C367 C368 1.503 . S
C367 O382 1.261 . S
C367 O383 1.243 . S
C368 C367 1.503 . S
C368 C369 1.394 . S
C368 C373 1.373 . S
C369 C368 1.394 . S
C369 C370 1.380 . S
C369 H392 0.930 . S
C370 C369 1.380 . S
C370 C371 1.376 . S
C370 H393 0.930 . S
C371 C370 1.376 . S
C371 C372 1.370 . S
C372 C371 1.370 . S
C372 C373 1.396 . S
C372 H394 0.929 . S
C373 C368 1.373 . S
C373 C372 1.396 . S
C373 H395 0.929 . S
C374 O384 1.240 . S
C374 O385 1.289 . S
C375 O386 1.258 . S
C375 O387 1.256 . S
O376 La356 2.521 . S
O376 C358 1.261 . S
O377 La356 2.628 . S
O377 C358 1.243 . S
O378 La356 2.554 . S
O378 C365 1.240 . S
O379 La356 2.757 . S
O379 La357 2.482 . S
O379 C365 1.289 . S
O380 La356 2.470 . S
O380 C366 1.258 . S
O381 La357 2.503 . S
O381 C366 1.256 . S
O382 La357 2.521 . S
O382 C367 1.261 . S
O383 La357 2.628 . S
O383 C367 1.243 . S
O384 La357 2.554 . S
O384 C374 1.240 . S
O385 La356 2.482 . S
O385 La357 2.757 . S
O385 C374 1.289 . S
O386 La357 2.470 . S
O386 C375 1.258 . S
O387 La356 2.503 . S
O387 C375 1.256 . S
H388 C360 0.930 . S
H389 C361 0.930 . S
H390 C363 0.929 . S
H391 C364 0.929 . S
H392 C369 0.930 . S
H393 C370 0.930 . S
H394 C372 0.929 . S
H395 C373 0.929 . S
La396 C398 2.928 . S
La396 O416 2.521 . S
La396 O417 2.628 . S
La396 O418 2.554 . S
La396 O419 2.757 . S
La396 O420 2.470 . S
La396 O425 2.482 . S
La396 O427 2.503 . S
La397 C407 2.928 . S
La397 O419 2.482 . S
La397 O421 2.503 . S
La397 O422 2.521 . S
La397 O423 2.628 . S
La397 O424 2.554 . S
La397 O425 2.757 . S
La397 O426 2.470 . S
C398 La396 2.928 . S
C398 C399 1.503 . S
C398 O416 1.261 . S
C398 O417 1.243 . S
C399 C398 1.503 . S
C399 C400 1.394 . S
C399 C404 1.373 . S
C400 C399 1.394 . S
C400 C401 1.380 . S
C400 H428 0.930 . S
C401 C400 1.380 . S
C401 C402 1.376 . S
C401 H429 0.930 . S
C402 C401 1.376 . S
C402 C403 1.370 . S
C403 C402 1.370 . S
C403 C404 1.396 . S
C403 H430 0.929 . S
C404 C399 1.373 . S
C404 C403 1.396 . S
C404 H431 0.929 . S
C405 O418 1.240 . S
C405 O419 1.289 . S
C406 O420 1.258 . S
C406 O421 1.256 . S
C407 La397 2.928 . S
C407 C408 1.503 . S
C407 O422 1.261 . S
C407 O423 1.243 . S
C408 C407 1.503 . S
C408 C409 1.394 . S
C408 C413 1.373 . S
C409 C408 1.394 . S
C409 C410 1.380 . S
C409 H432 0.930 . S
C410 C409 1.380 . S
C410 C411 1.376 . S
C410 H433 0.930 . S
C411 C410 1.376 . S
C411 C412 1.370 . S
C412 C411 1.370 . S
C412 C413 1.396 . S
C412 H434 0.929 . S
C413 C408 1.373 . S
C413 C412 1.396 . S
C413 H435 0.929 . S
C414 O424 1.240 . S
C414 O425 1.289 . S
C415 O426 1.258 . S
C415 O427 1.256 . S
O416 La396 2.521 . S
O416 C398 1.261 . S
O417 La396 2.628 . S
O417 C398 1.243 . S
O418 La396 2.554 . S
O418 C405 1.240 . S
O419 La396 2.757 . S
O419 La397 2.482 . S
O419 C405 1.289 . S
O420 La396 2.470 . S
O420 C406 1.258 . S
O421 La397 2.503 . S
O421 C406 1.256 . S
O422 La397 2.521 . S
O422 C407 1.261 . S
O423 La397 2.628 . S
O423 C407 1.243 . S
O424 La397 2.554 . S
O424 C414 1.240 . S
O425 La396 2.482 . S
O425 La397 2.757 . S
O425 C414 1.289 . S
O426 La397 2.470 . S
O426 C415 1.258 . S
O427 La396 2.503 . S
O427 C415 1.256 . S
H428 C400 0.930 . S
H429 C401 0.930 . S
H430 C403 0.929 . S
H431 C404 0.929 . S
H432 C409 0.930 . S
H433 C410 0.930 . S
H434 C412 0.929 . S
H435 C413 0.929 . S
La436 C438 2.928 . S
La436 O456 2.521 . S
La436 O457 2.628 . S
La436 O458 2.554 . S
La436 O459 2.757 . S
La436 O460 2.470 . S
La436 O465 2.482 . S
La436 O467 2.503 . S
La437 C447 2.928 . S
La437 O459 2.482 . S
La437 O461 2.503 . S
La437 O462 2.521 . S
La437 O463 2.628 . S
La437 O464 2.554 . S
La437 O465 2.757 . S
La437 O466 2.470 . S
C438 La436 2.928 . S
C438 C439 1.503 . S
C438 O456 1.261 . S
C438 O457 1.243 . S
C439 C438 1.503 . S
C439 C440 1.394 . S
C439 C444 1.373 . S
C440 C439 1.394 . S
C440 C441 1.380 . S
C440 H468 0.930 . S
C441 C440 1.380 . S
C441 C442 1.376 . S
C441 H469 0.930 . S
C442 C441 1.376 . S
C442 C443 1.370 . S
C443 C442 1.370 . S
C443 C444 1.396 . S
C443 H470 0.929 . S
C444 C439 1.373 . S
C444 C443 1.396 . S
C444 H471 0.929 . S
C445 O458 1.240 . S
C445 O459 1.289 . S
C446 O460 1.258 . S
C446 O461 1.256 . S
C447 La437 2.928 . S
C447 C448 1.503 . S
C447 O462 1.261 . S
C447 O463 1.243 . S
C448 C447 1.503 . S
C448 C449 1.394 . S
C448 C453 1.373 . S
C449 C448 1.394 . S
C449 C450 1.380 . S
C449 H472 0.930 . S
C450 C449 1.380 . S
C450 C451 1.376 . S
C450 H473 0.930 . S
C451 C450 1.376 . S
C451 C452 1.370 . S
C452 C451 1.370 . S
C452 C453 1.396 . S
C452 H474 0.929 . S
C453 C448 1.373 . S
C453 C452 1.396 . S
C453 H475 0.929 . S
C454 O464 1.240 . S
C454 O465 1.289 . S
C455 O466 1.258 . S
C455 O467 1.256 . S
O456 La436 2.521 . S
O456 C438 1.261 . S
O457 La436 2.628 . S
O457 C438 1.243 . S
O458 La436 2.554 . S
O458 C445 1.240 . S
O459 La436 2.757 . S
O459 La437 2.482 . S
O459 C445 1.289 . S
O460 La436 2.470 . S
O460 C446 1.258 . S
O461 La437 2.503 . S
O461 C446 1.256 . S
O462 La437 2.521 . S
O462 C447 1.261 . S
O463 La437 2.628 . S
O463 C447 1.243 . S
O464 La437 2.554 . S
O464 C454 1.240 . S
O465 La436 2.482 . S
O465 La437 2.757 . S
O465 C454 1.289 . S
O466 La437 2.470 . S
O466 C455 1.258 . S
O467 La436 2.503 . S
O467 C455 1.256 . S
H468 C440 0.930 . S
H469 C441 0.930 . S
H470 C443 0.929 . S
H471 C444 0.929 . S
H472 C449 0.930 . S
H473 C450 0.930 . S
H474 C452 0.929 . S
H475 C453 0.929 . S
La476 C478 2.928 . S
La476 O496 2.521 . S
La476 O497 2.628 . S
La476 O498 2.554 . S
La476 O499 2.757 . S
La476 O500 2.470 . S
La476 O505 2.482 . S
La476 O507 2.503 . S
La477 C487 2.928 . S
La477 O499 2.482 . S
La477 O501 2.503 . S
La477 O502 2.521 . S
La477 O503 2.628 . S
La477 O504 2.554 . S
La477 O505 2.757 . S
La477 O506 2.470 . S
C478 La476 2.928 . S
C478 C479 1.503 . S
C478 O496 1.261 . S
C478 O497 1.243 . S
C479 C478 1.503 . S
C479 C480 1.394 . S
C479 C484 1.373 . S
C480 C479 1.394 . S
C480 C481 1.380 . S
C480 H508 0.930 . S
C481 C480 1.380 . S
C481 C482 1.376 . S
C481 H509 0.930 . S
C482 C481 1.376 . S
C482 C483 1.370 . S
C483 C482 1.370 . S
C483 C484 1.396 . S
C483 H510 0.929 . S
C484 C479 1.373 . S
C484 C483 1.396 . S
C484 H511 0.929 . S
C485 O498 1.240 . S
C485 O499 1.289 . S
C486 O500 1.258 . S
C486 O501 1.256 . S
C487 La477 2.928 . S
C487 C488 1.503 . S
C487 O502 1.261 . S
C487 O503 1.243 . S
C488 C487 1.503 . S
C488 C489 1.394 . S
C488 C493 1.373 . S
C489 C488 1.394 . S
C489 C490 1.380 . S
C489 H512 0.930 . S
C490 C489 1.380 . S
C490 C491 1.376 . S
C490 H513 0.930 . S
C491 C490 1.376 . S
C491 C492 1.370 . S
C492 C491 1.370 . S
C492 C493 1.396 . S
C492 H514 0.929 . S
C493 C488 1.373 . S
C493 C492 1.396 . S
C493 H515 0.929 . S
C494 O504 1.240 . S
C494 O505 1.289 . S
C495 O506 1.258 . S
C495 O507 1.256 . S
O496 La476 2.521 . S
O496 C478 1.261 . S
O497 La476 2.628 . S
O497 C478 1.243 . S
O498 La476 2.554 . S
O498 C485 1.240 . S
O499 La476 2.757 . S
O499 La477 2.482 . S
O499 C485 1.289 . S
O500 La476 2.470 . S
O500 C486 1.258 . S
O501 La477 2.503 . S
O501 C486 1.256 . S
O502 La477 2.521 . S
O502 C487 1.261 . S
O503 La477 2.628 . S
O503 C487 1.243 . S
O504 La477 2.554 . S
O504 C494 1.240 . S
O505 La476 2.482 . S
O505 La477 2.757 . S
O505 C494 1.289 . S
O506 La477 2.470 . S
O506 C495 1.258 . S
O507 La476 2.503 . S
O507 C495 1.256 . S
H508 C480 0.930 . S
H509 C481 0.930 . S
H510 C483 0.929 . S
H511 C484 0.929 . S
H512 C489 0.930 . S
H513 C490 0.930 . S
H514 C492 0.929 . S
H515 C493 0.929 . S
La516 C518 2.928 . S
La516 O536 2.521 . S
La516 O537 2.628 . S
La516 O538 2.554 . S
La516 O539 2.757 . S
La516 O540 2.470 . S
La516 O545 2.482 . S
La516 O547 2.503 . S
La517 C527 2.928 . S
La517 O539 2.482 . S
La517 O541 2.503 . S
La517 O542 2.521 . S
La517 O543 2.628 . S
La517 O544 2.554 . S
La517 O545 2.757 . S
La517 O546 2.470 . S
C518 La516 2.928 . S
C518 C519 1.503 . S
C518 O536 1.261 . S
C518 O537 1.243 . S
C519 C518 1.503 . S
C519 C520 1.394 . S
C519 C524 1.373 . S
C520 C519 1.394 . S
C520 C521 1.380 . S
C520 H548 0.930 . S
C521 C520 1.380 . S
C521 C522 1.376 . S
C521 H549 0.930 . S
C522 C521 1.376 . S
C522 C523 1.370 . S
C523 C522 1.370 . S
C523 C524 1.396 . S
C523 H550 0.929 . S
C524 C519 1.373 . S
C524 C523 1.396 . S
C524 H551 0.929 . S
C525 O538 1.240 . S
C525 O539 1.289 . S
C526 O540 1.258 . S
C526 O541 1.256 . S
C527 La517 2.928 . S
C527 C528 1.503 . S
C527 O542 1.261 . S
C527 O543 1.243 . S
C528 C527 1.503 . S
C528 C529 1.394 . S
C528 C533 1.373 . S
C529 C528 1.394 . S
C529 C530 1.380 . S
C529 H552 0.930 . S
C530 C529 1.380 . S
C530 C531 1.376 . S
C530 H553 0.930 . S
C531 C530 1.376 . S
C531 C532 1.370 . S
C532 C531 1.370 . S
C532 C533 1.396 . S
C532 H554 0.929 . S
C533 C528 1.373 . S
C533 C532 1.396 . S
C533 H555 0.929 . S
C534 O544 1.240 . S
C534 O545 1.289 . S
C535 O546 1.258 . S
C535 O547 1.256 . S
O536 La516 2.521 . S
O536 C518 1.261 . S
O537 La516 2.628 . S
O537 C518 1.243 . S
O538 La516 2.554 . S
O538 C525 1.240 . S
O539 La516 2.757 . S
O539 La517 2.482 . S
O539 C525 1.289 . S
O540 La516 2.470 . S
O540 C526 1.258 . S
O541 La517 2.503 . S
O541 C526 1.256 . S
O542 La517 2.521 . S
O542 C527 1.261 . S
O543 La517 2.628 . S
O543 C527 1.243 . S
O544 La517 2.554 . S
O544 C534 1.240 . S
O545 La516 2.482 . S
O545 La517 2.757 . S
O545 C534 1.289 . S
O546 La517 2.470 . S
O546 C535 1.258 . S
O547 La516 2.503 . S
O547 C535 1.256 . S
H548 C520 0.930 . S
H549 C521 0.930 . S
H550 C523 0.929 . S
H551 C524 0.929 . S
H552 C529 0.930 . S
H553 C530 0.930 . S
H554 C532 0.929 . S
H555 C533 0.929 . S
La556 C558 2.928 . S
La556 O576 2.521 . S
La556 O577 2.628 . S
La556 O578 2.554 . S
La556 O579 2.757 . S
La556 O580 2.470 . S
La556 O585 2.482 . S
La556 O587 2.503 . S
La557 C567 2.928 . S
La557 O579 2.482 . S
La557 O581 2.503 . S
La557 O582 2.521 . S
La557 O583 2.628 . S
La557 O584 2.554 . S
La557 O585 2.757 . S
La557 O586 2.470 . S
C558 La556 2.928 . S
C558 C559 1.503 . S
C558 O576 1.261 . S
C558 O577 1.243 . S
C559 C558 1.503 . S
C559 C560 1.394 . S
C559 C564 1.373 . S
C560 C559 1.394 . S
C560 C561 1.380 . S
C560 H588 0.930 . S
C561 C560 1.380 . S
C561 C562 1.376 . S
C561 H589 0.930 . S
C562 C561 1.376 . S
C562 C563 1.370 . S
C563 C562 1.370 . S
C563 C564 1.396 . S
C563 H590 0.929 . S
C564 C559 1.373 . S
C564 C563 1.396 . S
C564 H591 0.929 . S
C565 O578 1.240 . S
C565 O579 1.289 . S
C566 O580 1.258 . S
C566 O581 1.256 . S
C567 La557 2.928 . S
C567 C568 1.503 . S
C567 O582 1.261 . S
C567 O583 1.243 . S
C568 C567 1.503 . S
C568 C569 1.394 . S
C568 C573 1.373 . S
C569 C568 1.394 . S
C569 C570 1.380 . S
C569 H592 0.930 . S
C570 C569 1.380 . S
C570 C571 1.376 . S
C570 H593 0.930 . S
C571 C570 1.376 . S
C571 C572 1.370 . S
C572 C571 1.370 . S
C572 C573 1.396 . S
C572 H594 0.929 . S
C573 C568 1.373 . S
C573 C572 1.396 . S
C573 H595 0.929 . S
C574 O584 1.240 . S
C574 O585 1.289 . S
C575 O586 1.258 . S
C575 O587 1.256 . S
O576 La556 2.521 . S
O576 C558 1.261 . S
O577 La556 2.628 . S
O577 C558 1.243 . S
O578 La556 2.554 . S
O578 C565 1.240 . S
O579 La556 2.757 . S
O579 La557 2.482 . S
O579 C565 1.289 . S
O580 La556 2.470 . S
O580 C566 1.258 . S
O581 La557 2.503 . S
O581 C566 1.256 . S
O582 La557 2.521 . S
O582 C567 1.261 . S
O583 La557 2.628 . S
O583 C567 1.243 . S
O584 La557 2.554 . S
O584 C574 1.240 . S
O585 La556 2.482 . S
O585 La557 2.757 . S
O585 C574 1.289 . S
O586 La557 2.470 . S
O586 C575 1.258 . S
O587 La556 2.503 . S
O587 C575 1.256 . S
H588 C560 0.930 . S
H589 C561 0.930 . S
H590 C563 0.929 . S
H591 C564 0.929 . S
H592 C569 0.930 . S
H593 C570 0.930 . S
H594 C572 0.929 . S
H595 C573 0.929 . S
H596 C608 0.930 . S
H597 C610 0.930 . S
H598 C611 0.930 . S
H599 C615 0.959 . S
H600 C615 0.959 . S
H601 C615 0.961 . S
H602 C616 0.960 . S
H603 C616 0.961 . S
H604 C616 0.959 . S
H605 C619 0.929 . S
H606 C620 0.931 . S
H607 C622 0.930 . S
C608 H596 0.930 . S
C608 C609 1.399 . S
C608 C613 1.399 . S
C609 C608 1.399 . S
C609 C610 1.376 . S
C610 H597 0.930 . S
C610 C609 1.376 . S
C610 C611 1.388 . S
C611 H598 0.930 . S
C611 C610 1.388 . S
C611 C612 1.390 . S
C612 C611 1.390 . S
C612 C613 1.394 . S
C612 C618 1.465 . S
C613 C608 1.399 . S
C613 C612 1.394 . S
C613 C614 1.516 . S
C614 C613 1.516 . S
C614 C615 1.502 . S
C614 C616 1.561 . S
C614 C617 1.526 . S
C615 H599 0.959 . S
C615 H600 0.959 . S
C615 H601 0.961 . S
C615 C614 1.502 . S
C616 H602 0.960 . S
C616 H603 0.961 . S
C616 H604 0.959 . S
C616 C614 1.561 . S
C617 C614 1.526 . S
C617 C618 1.396 . S
C617 C622 1.390 . S
C618 C612 1.465 . S
C618 C617 1.396 . S
C618 C619 1.399 . S
C619 H605 0.929 . S
C619 C618 1.399 . S
C619 C620 1.385 . S
C620 H606 0.931 . S
C620 C619 1.385 . S
C620 C621 1.389 . S
C621 C620 1.389 . S
C621 C622 1.387 . S
C622 H607 0.930 . S
C622 C617 1.390 . S
C622 C621 1.387 . S
H623 C635 0.930 . S
H624 C637 0.930 . S
H625 C638 0.930 . S
H626 C642 0.959 . S
H627 C642 0.959 . S
H628 C642 0.961 . S
H629 C643 0.960 . S
H630 C643 0.961 . S
H631 C643 0.959 . S
H632 C646 0.929 . S
H633 C647 0.931 . S
H634 C649 0.930 . S
C635 H623 0.930 . S
C635 C636 1.399 . S
C635 C640 1.399 . S
C636 C635 1.399 . S
C636 C637 1.376 . S
C637 H624 0.930 . S
C637 C636 1.376 . S
C637 C638 1.388 . S
C638 H625 0.930 . S
C638 C637 1.388 . S
C638 C639 1.390 . S
C639 C638 1.390 . S
C639 C640 1.394 . S
C639 C645 1.465 . S
C640 C635 1.399 . S
C640 C639 1.394 . S
C640 C641 1.516 . S
C641 C640 1.516 . S
C641 C642 1.502 . S
C641 C643 1.561 . S
C641 C644 1.526 . S
C642 H626 0.959 . S
C642 H627 0.959 . S
C642 H628 0.961 . S
C642 C641 1.502 . S
C643 H629 0.960 . S
C643 H630 0.961 . S
C643 H631 0.959 . S
C643 C641 1.561 . S
C644 C641 1.526 . S
C644 C645 1.396 . S
C644 C649 1.390 . S
C645 C639 1.465 . S
C645 C644 1.396 . S
C645 C646 1.399 . S
C646 H632 0.929 . S
C646 C645 1.399 . S
C646 C647 1.385 . S
C647 H633 0.931 . S
C647 C646 1.385 . S
C647 C648 1.389 . S
C648 C647 1.389 . S
C648 C649 1.387 . S
C649 H634 0.930 . S
C649 C644 1.390 . S
C649 C648 1.387 . S
H650 C662 0.930 . S
H651 C664 0.930 1_455 S
H652 C665 0.930 . S
H653 C669 0.959 . S
H654 C669 0.959 . S
H655 C669 0.961 . S
H656 C670 0.960 . S
H657 C670 0.961 . S
H658 C670 0.959 . S
H659 C673 0.929 . S
H660 C674 0.931 . S
H661 C676 0.930 . S
C662 H650 0.930 . S
C662 C663 1.399 . S
C662 C667 1.399 . S
C663 C662 1.399 . S
C663 C664 1.376 . S
C664 H651 0.930 1_655 S
C664 C663 1.376 . S
C664 C665 1.388 . S
C665 H652 0.930 . S
C665 C664 1.388 . S
C665 C666 1.390 . S
C666 C665 1.390 . S
C666 C667 1.394 . S
C666 C672 1.465 . S
C667 C662 1.399 . S
C667 C666 1.394 . S
C667 C668 1.516 . S
C668 C667 1.516 . S
C668 C669 1.502 . S
C668 C670 1.561 . S
C668 C671 1.526 . S
C669 H653 0.959 . S
C669 H654 0.959 . S
C669 H655 0.961 . S
C669 C668 1.502 . S
C670 H656 0.960 . S
C670 H657 0.961 . S
C670 H658 0.959 . S
C670 C668 1.561 . S
C671 C668 1.526 . S
C671 C672 1.396 . S
C671 C676 1.390 . S
C672 C666 1.465 . S
C672 C671 1.396 . S
C672 C673 1.399 . S
C673 H659 0.929 . S
C673 C672 1.399 . S
C673 C674 1.385 . S
C674 H660 0.931 . S
C674 C673 1.385 . S
C674 C675 1.389 . S
C675 C674 1.389 . S
C675 C676 1.387 . S
C676 H661 0.930 . S
C676 C671 1.390 . S
C676 C675 1.387 . S
H677 C689 0.930 . S
H678 C691 0.930 . S
H679 C692 0.930 . S
H680 C696 0.959 . S
H681 C696 0.959 . S
H682 C696 0.961 . S
H683 C697 0.960 . S
H684 C697 0.961 . S
H685 C697 0.959 . S
H686 C700 0.929 . S
H687 C701 0.931 . S
H688 C703 0.930 . S
C689 H677 0.930 . S
C689 C690 1.399 . S
C689 C694 1.399 . S
C690 C689 1.399 . S
C690 C691 1.376 . S
C691 H678 0.930 . S
C691 C690 1.376 . S
C691 C692 1.388 . S
C692 H679 0.930 . S
C692 C691 1.388 . S
C692 C693 1.390 . S
C693 C692 1.390 . S
C693 C694 1.394 . S
C693 C699 1.465 . S
C694 C689 1.399 . S
C694 C693 1.394 . S
C694 C695 1.516 . S
C695 C694 1.516 . S
C695 C696 1.502 . S
C695 C697 1.561 . S
C695 C698 1.526 . S
C696 H680 0.959 . S
C696 H681 0.959 . S
C696 H682 0.961 . S
C696 C695 1.502 . S
C697 H683 0.960 . S
C697 H684 0.961 . S
C697 H685 0.959 . S
C697 C695 1.561 . S
C698 C695 1.526 . S
C698 C699 1.396 . S
C698 C703 1.390 . S
C699 C693 1.465 . S
C699 C698 1.396 . S
C699 C700 1.399 . S
C700 H686 0.929 . S
C700 C699 1.399 . S
C700 C701 1.385 . S
C701 H687 0.931 . S
C701 C700 1.385 . S
C701 C702 1.389 . S
C702 C701 1.389 . S
C702 C703 1.387 . S
C703 H688 0.930 . S
C703 C698 1.390 . S
C703 C702 1.387 . S
H704 C716 0.930 . S
H705 C718 0.930 . S
H706 C719 0.930 . S
H707 C723 0.959 . S
H708 C723 0.959 . S
H709 C723 0.961 . S
H710 C724 0.960 . S
H711 C724 0.961 . S
H712 C724 0.959 . S
H713 C727 0.929 . S
H714 C728 0.931 . S
H715 C730 0.930 . S
C716 H704 0.930 . S
C716 C717 1.399 . S
C716 C721 1.399 . S
C717 C716 1.399 . S
C717 C718 1.376 . S
C718 H705 0.930 . S
C718 C717 1.376 . S
C718 C719 1.388 . S
C719 H706 0.930 . S
C719 C718 1.388 . S
C719 C720 1.390 . S
C720 C719 1.390 . S
C720 C721 1.394 . S
C720 C726 1.465 . S
C721 C716 1.399 . S
C721 C720 1.394 . S
C721 C722 1.516 . S
C722 C721 1.516 . S
C722 C723 1.502 . S
C722 C724 1.561 . S
C722 C725 1.526 . S
C723 H707 0.959 . S
C723 H708 0.959 . S
C723 H709 0.961 . S
C723 C722 1.502 . S
C724 H710 0.960 . S
C724 H711 0.961 . S
C724 H712 0.959 . S
C724 C722 1.561 . S
C725 C722 1.526 . S
C725 C726 1.396 . S
C725 C730 1.390 . S
C726 C720 1.465 . S
C726 C725 1.396 . S
C726 C727 1.399 . S
C727 H713 0.929 . S
C727 C726 1.399 . S
C727 C728 1.385 . S
C728 H714 0.931 . S
C728 C727 1.385 . S
C728 C729 1.389 . S
C729 C728 1.389 . S
C729 C730 1.387 . S
C730 H715 0.930 . S
C730 C725 1.390 . S
C730 C729 1.387 . S
H731 C743 0.930 . S
H732 C745 0.930 . S
H733 C746 0.930 . S
H734 C750 0.959 . S
H735 C750 0.959 . S
H736 C750 0.961 . S
H737 C751 0.960 . S
H738 C751 0.961 . S
H739 C751 0.959 . S
H740 C754 0.929 . S
H741 C755 0.931 . S
H742 C757 0.930 . S
C743 H731 0.930 . S
C743 C744 1.399 . S
C743 C748 1.399 . S
C744 C743 1.399 . S
C744 C745 1.376 . S
C745 H732 0.930 . S
C745 C744 1.376 . S
C745 C746 1.388 . S
C746 H733 0.930 . S
C746 C745 1.388 . S
C746 C747 1.390 . S
C747 C746 1.390 . S
C747 C748 1.394 . S
C747 C753 1.465 . S
C748 C743 1.399 . S
C748 C747 1.394 . S
C748 C749 1.516 . S
C749 C748 1.516 . S
C749 C750 1.502 . S
C749 C751 1.561 . S
C749 C752 1.526 . S
C750 H734 0.959 . S
C750 H735 0.959 . S
C750 H736 0.961 . S
C750 C749 1.502 . S
C751 H737 0.960 . S
C751 H738 0.961 . S
C751 H739 0.959 . S
C751 C749 1.561 . S
C752 C749 1.526 . S
C752 C753 1.396 . S
C752 C757 1.390 . S
C753 C747 1.465 . S
C753 C752 1.396 . S
C753 C754 1.399 . S
C754 H740 0.929 . S
C754 C753 1.399 . S
C754 C755 1.385 . S
C755 H741 0.931 . S
C755 C754 1.385 . S
C755 C756 1.389 . S
C756 C755 1.389 . S
C756 C757 1.387 . S
C757 H742 0.930 . S
C757 C752 1.390 . S
C757 C756 1.387 . S
H758 C770 0.930 . S
H759 C772 0.930 . S
H760 C773 0.930 . S
H761 C777 0.959 . S
H762 C777 0.959 . S
H763 C777 0.961 . S
H764 C778 0.960 . S
H765 C778 0.961 . S
H766 C778 0.959 . S
H767 C781 0.929 . S
H768 C782 0.931 . S
H769 C784 0.930 . S
C770 H758 0.930 . S
C770 C771 1.399 . S
C770 C775 1.399 . S
C771 C770 1.399 . S
C771 C772 1.376 . S
C772 H759 0.930 . S
C772 C771 1.376 . S
C772 C773 1.388 . S
C773 H760 0.930 . S
C773 C772 1.388 . S
C773 C774 1.390 . S
C774 C773 1.390 . S
C774 C775 1.394 . S
C774 C780 1.465 . S
C775 C770 1.399 . S
C775 C774 1.394 . S
C775 C776 1.516 . S
C776 C775 1.516 . S
C776 C777 1.502 . S
C776 C778 1.561 . S
C776 C779 1.526 . S
C777 H761 0.959 . S
C777 H762 0.959 . S
C777 H763 0.961 . S
C777 C776 1.502 . S
C778 H764 0.960 . S
C778 H765 0.961 . S
C778 H766 0.959 . S
C778 C776 1.561 . S
C779 C776 1.526 . S
C779 C780 1.396 . S
C779 C784 1.390 . S
C780 C774 1.465 . S
C780 C779 1.396 . S
C780 C781 1.399 . S
C781 H767 0.929 . S
C781 C780 1.399 . S
C781 C782 1.385 . S
C782 H768 0.931 . S
C782 C781 1.385 . S
C782 C783 1.389 . S
C783 C782 1.389 . S
C783 C784 1.387 . S
C784 H769 0.930 . S
C784 C779 1.390 . S
C784 C783 1.387 . S
H785 C797 0.930 1_545 S
H786 C799 0.930 . S
H787 C800 0.930 . S
H788 C804 0.959 . S
H789 C804 0.959 . S
H790 C804 0.961 . S
H791 C805 0.960 . S
H792 C805 0.961 . S
H793 C805 0.959 . S
H794 C808 0.929 . S
H795 C809 0.931 . S
H796 C811 0.930 . S
C797 H785 0.930 1_565 S
C797 C798 1.399 . S
C797 C802 1.399 . S
C798 C797 1.399 . S
C798 C799 1.376 . S
C799 H786 0.930 . S
C799 C798 1.376 . S
C799 C800 1.388 . S
C800 H787 0.930 . S
C800 C799 1.388 . S
C800 C801 1.390 . S
C801 C800 1.390 . S
C801 C802 1.394 . S
C801 C807 1.465 . S
C802 C797 1.399 . S
C802 C801 1.394 . S
C802 C803 1.516 . S
C803 C802 1.516 . S
C803 C804 1.502 . S
C803 C805 1.561 1_565 S
C803 C806 1.526 . S
C804 H788 0.959 . S
C804 H789 0.959 . S
C804 H790 0.961 . S
C804 C803 1.502 . S
C805 H791 0.960 . S
C805 H792 0.961 . S
C805 H793 0.959 . S
C805 C803 1.561 1_545 S
C806 C803 1.526 . S
C806 C807 1.396 . S
C806 C811 1.390 . S
C807 C801 1.465 . S
C807 C806 1.396 . S
C807 C808 1.399 . S
C808 H794 0.929 . S
C808 C807 1.399 . S
C808 C809 1.385 . S
C809 H795 0.931 . S
C809 C808 1.385 . S
C809 C810 1.389 . S
C810 C809 1.389 . S
C810 C811 1.387 . S
C811 H796 0.930 . S
C811 C806 1.390 . S
C811 C810 1.387 . S
H812 C824 0.930 . S
H813 C826 0.930 . S
H814 C827 0.930 . S
H815 C831 0.959 . S
H816 C831 0.959 . S
H817 C831 0.961 . S
H818 C832 0.960 . S
H819 C832 0.961 . S
H820 C832 0.959 . S
H821 C835 0.929 . S
H822 C836 0.931 . S
H823 C838 0.930 . S
C824 H812 0.930 . S
C824 C825 1.399 . S
C824 C829 1.399 . S
C825 C824 1.399 . S
C825 C826 1.376 . S
C826 H813 0.930 . S
C826 C825 1.376 . S
C826 C827 1.388 . S
C827 H814 0.930 . S
C827 C826 1.388 . S
C827 C828 1.390 . S
C828 C827 1.390 . S
C828 C829 1.394 . S
C828 C834 1.465 . S
C829 C824 1.399 . S
C829 C828 1.394 . S
C829 C830 1.516 . S
C830 C829 1.516 . S
C830 C831 1.502 . S
C830 C832 1.561 . S
C830 C833 1.526 . S
C831 H815 0.959 . S
C831 H816 0.959 . S
C831 H817 0.961 . S
C831 C830 1.502 . S
C832 H818 0.960 . S
C832 H819 0.961 . S
C832 H820 0.959 . S
C832 C830 1.561 . S
C833 C830 1.526 . S
C833 C834 1.396 . S
C833 C838 1.390 . S
C834 C828 1.465 . S
C834 C833 1.396 . S
C834 C835 1.399 . S
C835 H821 0.929 . S
C835 C834 1.399 . S
C835 C836 1.385 . S
C836 H822 0.931 . S
C836 C835 1.385 . S
C836 C837 1.389 . S
C837 C836 1.389 . S
C837 C838 1.387 . S
C838 H823 0.930 . S
C838 C833 1.390 . S
C838 C837 1.387 . S
H839 C851 0.930 . S
H840 C853 0.930 . S
H841 C854 0.930 . S
H842 C858 0.959 . S
H843 C858 0.959 . S
H844 C858 0.961 . S
H845 C859 0.960 . S
H846 C859 0.961 . S
H847 C859 0.959 . S
H848 C862 0.929 . S
H849 C863 0.931 . S
H850 C865 0.930 . S
C851 H839 0.930 . S
C851 C852 1.399 . S
C851 C856 1.399 . S
C852 C851 1.399 . S
C852 C853 1.376 . S
C853 H840 0.930 . S
C853 C852 1.376 . S
C853 C854 1.388 . S
C854 H841 0.930 . S
C854 C853 1.388 . S
C854 C855 1.390 . S
C855 C854 1.390 . S
C855 C856 1.394 . S
C855 C861 1.465 . S
C856 C851 1.399 . S
C856 C855 1.394 . S
C856 C857 1.516 . S
C857 C856 1.516 . S
C857 C858 1.502 . S
C857 C859 1.561 . S
C857 C860 1.526 . S
C858 H842 0.959 . S
C858 H843 0.959 . S
C858 H844 0.961 . S
C858 C857 1.502 . S
C859 H845 0.960 . S
C859 H846 0.961 . S
C859 H847 0.959 . S
C859 C857 1.561 . S
C860 C857 1.526 . S
C860 C861 1.396 . S
C860 C865 1.390 . S
C861 C855 1.465 . S
C861 C860 1.396 . S
C861 C862 1.399 . S
C862 H848 0.929 . S
C862 C861 1.399 . S
C862 C863 1.385 . S
C863 H849 0.931 . S
C863 C862 1.385 . S
C863 C864 1.389 . S
C864 C863 1.389 . S
C864 C865 1.387 . S
C865 H850 0.930 . S
C865 C860 1.390 . S
C865 C864 1.387 . S
H866 C878 0.930 . S
H867 C880 0.930 . S
H868 C881 0.930 . S
H869 C885 0.959 . S
H870 C885 0.959 . S
H871 C885 0.961 . S
H872 C886 0.960 . S
H873 C886 0.961 . S
H874 C886 0.959 . S
H875 C889 0.929 . S
H876 C890 0.931 . S
H877 C892 0.930 . S
C878 H866 0.930 . S
C878 C879 1.399 . S
C878 C883 1.399 . S
C879 C878 1.399 . S
C879 C880 1.376 . S
C880 H867 0.930 . S
C880 C879 1.376 . S
C880 C881 1.388 . S
C881 H868 0.930 . S
C881 C880 1.388 . S
C881 C882 1.390 . S
C882 C881 1.390 . S
C882 C883 1.394 . S
C882 C888 1.465 . S
C883 C878 1.399 . S
C883 C882 1.394 . S
C883 C884 1.516 . S
C884 C883 1.516 . S
C884 C885 1.502 . S
C884 C886 1.561 . S
C884 C887 1.526 . S
C885 H869 0.959 . S
C885 H870 0.959 . S
C885 H871 0.961 . S
C885 C884 1.502 . S
C886 H872 0.960 . S
C886 H873 0.961 . S
C886 H874 0.959 . S
C886 C884 1.561 . S
C887 C884 1.526 . S
C887 C888 1.396 . S
C887 C892 1.390 . S
C888 C882 1.465 . S
C888 C887 1.396 . S
C888 C889 1.399 . S
C889 H875 0.929 . S
C889 C888 1.399 . S
C889 C890 1.385 . S
C890 H876 0.931 . S
C890 C889 1.385 . S
C890 C891 1.389 . S
C891 C890 1.389 . S
C891 C892 1.387 . S
C892 H877 0.930 . S
C892 C887 1.390 . S
C892 C891 1.387 . S
H893 C905 0.930 . S
H894 C907 0.930 . S
H895 C908 0.930 . S
H896 C912 0.959 . S
H897 C912 0.959 . S
H898 C912 0.961 . S
H899 C913 0.960 . S
H900 C913 0.961 . S
H901 C913 0.959 . S
H902 C916 0.929 . S
H903 C917 0.931 . S
H904 C919 0.930 . S
C905 H893 0.930 . S
C905 C906 1.399 . S
C905 C910 1.399 . S
C906 C905 1.399 . S
C906 C907 1.376 . S
C907 H894 0.930 . S
C907 C906 1.376 . S
C907 C908 1.388 . S
C908 H895 0.930 . S
C908 C907 1.388 . S
C908 C909 1.390 . S
C909 C908 1.390 . S
C909 C910 1.394 . S
C909 C915 1.465 . S
C910 C905 1.399 . S
C910 C909 1.394 . S
C910 C911 1.516 . S
C911 C910 1.516 . S
C911 C912 1.502 . S
C911 C913 1.561 . S
C911 C914 1.526 . S
C912 H896 0.959 . S
C912 H897 0.959 . S
C912 H898 0.961 . S
C912 C911 1.502 . S
C913 H899 0.960 . S
C913 H900 0.961 . S
C913 H901 0.959 . S
C913 C911 1.561 . S
C914 C911 1.526 . S
C914 C915 1.396 . S
C914 C919 1.390 . S
C915 C909 1.465 . S
C915 C914 1.396 . S
C915 C916 1.399 . S
C916 H902 0.929 . S
C916 C915 1.399 . S
C916 C917 1.385 . S
C917 H903 0.931 . S
C917 C916 1.385 . S
C917 C918 1.389 . S
C918 C917 1.389 . S
C918 C919 1.387 . S
C919 H904 0.930 . S
C919 C914 1.390 . S
C919 C918 1.387 . S
H920 C932 0.930 . S
H921 C934 0.930 1_546 S
H922 C935 0.930 . S
H923 C939 0.959 . S
H924 C939 0.959 . S
H925 C939 0.961 . S
H926 C940 0.960 . S
H927 C940 0.961 . S
H928 C940 0.959 . S
H929 C943 0.929 . S
H930 C944 0.931 . S
H931 C946 0.930 . S
C932 H920 0.930 . S
C932 C933 1.399 . S
C932 C937 1.399 . S
C933 C932 1.399 . S
C933 C934 1.376 . S
C934 H921 0.930 1_564 S
C934 C933 1.376 . S
C934 C935 1.388 1_554 S
C935 H922 0.930 . S
C935 C934 1.388 1_556 S
C935 C936 1.390 . S
C936 C935 1.390 . S
C936 C937 1.394 1_556 S
C936 C942 1.465 . S
C937 C932 1.399 . S
C937 C936 1.394 1_554 S
C937 C938 1.516 . S
C938 C937 1.516 . S
C938 C939 1.502 . S
C938 C940 1.561 . S
C938 C941 1.526 1_554 S
C939 H923 0.959 . S
C939 H924 0.959 . S
C939 H925 0.961 . S
C939 C938 1.502 . S
C940 H926 0.960 . S
C940 H927 0.961 . S
C940 H928 0.959 . S
C940 C938 1.561 . S
C941 C938 1.526 1_556 S
C941 C942 1.396 . S
C941 C946 1.390 . S
C942 C936 1.465 . S
C942 C941 1.396 . S
C942 C943 1.399 . S
C943 H929 0.929 . S
C943 C942 1.399 . S
C943 C944 1.385 . S
C944 H930 0.931 . S
C944 C943 1.385 . S
C944 C945 1.389 . S
C945 C944 1.389 . S
C945 C946 1.387 . S
C946 H931 0.930 . S
C946 C941 1.390 . S
C946 C945 1.387 . S
H947 C959 0.930 . S
H948 C961 0.930 . S
H949 C962 0.930 . S
H950 C966 0.959 . S
H951 C966 0.959 . S
H952 C966 0.961 . S
H953 C967 0.960 . S
H954 C967 0.961 . S
H955 C967 0.959 . S
H956 C970 0.929 . S
H957 C971 0.931 . S
H958 C973 0.930 . S
C959 H947 0.930 . S
C959 C960 1.399 . S
C959 C964 1.399 . S
C960 C959 1.399 . S
C960 C961 1.376 . S
C961 H948 0.930 . S
C961 C960 1.376 . S
C961 C962 1.388 . S
C962 H949 0.930 . S
C962 C961 1.388 . S
C962 C963 1.390 . S
C963 C962 1.390 . S
C963 C964 1.394 . S
C963 C969 1.465 . S
C964 C959 1.399 . S
C964 C963 1.394 . S
C964 C965 1.516 . S
C965 C964 1.516 . S
C965 C966 1.502 . S
C965 C967 1.561 . S
C965 C968 1.526 . S
C966 H950 0.959 . S
C966 H951 0.959 . S
C966 H952 0.961 . S
C966 C965 1.502 . S
C967 H953 0.960 . S
C967 H954 0.961 . S
C967 H955 0.959 . S
C967 C965 1.561 . S
C968 C965 1.526 . S
C968 C969 1.396 . S
C968 C973 1.390 . S
C969 C963 1.465 . S
C969 C968 1.396 . S
C969 C970 1.399 . S
C970 H956 0.929 . S
C970 C969 1.399 . S
C970 C971 1.385 . S
C971 H957 0.931 . S
C971 C970 1.385 . S
C971 C972 1.389 . S
C972 C971 1.389 . S
C972 C973 1.387 . S
C973 H958 0.930 . S
C973 C968 1.390 . S
C973 C972 1.387 . S
H974 C986 0.930 . S
H975 C988 0.930 . S
H976 C989 0.930 . S
H977 C993 0.959 . S
H978 C993 0.959 . S
H979 C993 0.961 . S
H980 C994 0.960 . S
H981 C994 0.961 . S
H982 C994 0.959 . S
H983 C997 0.929 . S
H984 C998 0.931 . S
H985 C1000 0.930 . S
C986 H974 0.930 . S
C986 C987 1.399 . S
C986 C991 1.399 . S
C987 C986 1.399 . S
C987 C988 1.376 . S
C988 H975 0.930 . S
C988 C987 1.376 . S
C988 C989 1.388 . S
C989 H976 0.930 . S
C989 C988 1.388 . S
C989 C990 1.390 . S
C990 C989 1.390 . S
C990 C991 1.394 . S
C990 C996 1.465 . S
C991 C986 1.399 . S
C991 C990 1.394 . S
C991 C992 1.516 . S
C992 C991 1.516 . S
C992 C993 1.502 . S
C992 C994 1.561 . S
C992 C995 1.526 . S
C993 H977 0.959 . S
C993 H978 0.959 . S
C993 H979 0.961 . S
C993 C992 1.502 . S
C994 H980 0.960 . S
C994 H981 0.961 . S
C994 H982 0.959 . S
C994 C992 1.561 . S
C995 C992 1.526 . S
C995 C996 1.396 . S
C995 C1000 1.390 . S
C996 C990 1.465 . S
C996 C995 1.396 . S
C996 C997 1.399 . S
C997 H983 0.929 . S
C997 C996 1.399 . S
C997 C998 1.385 . S
C998 H984 0.931 . S
C998 C997 1.385 . S
C998 C999 1.389 . S
C999 C998 1.389 . S
C999 C1000 1.387 . S
C1000 H985 0.930 . S
C1000 C995 1.390 . S
C1000 C999 1.387 . S
H1001 C1013 0.930 . S
H1002 C1015 0.930 . S
H1003 C1016 0.930 . S
H1004 C1020 0.959 . S
H1005 C1020 0.959 . S
H1006 C1020 0.961 . S
H1007 C1021 0.960 . S
H1008 C1021 0.961 . S
H1009 C1021 0.959 . S
H1010 C1024 0.929 . S
H1011 C1025 0.931 . S
H1012 C1027 0.930 . S
C1013 H1001 0.930 . S
C1013 C1014 1.399 . S
C1013 C1018 1.399 . S
C1014 C1013 1.399 . S
C1014 C1015 1.376 . S
C1015 H1002 0.930 . S
C1015 C1014 1.376 . S
C1015 C1016 1.388 . S
C1016 H1003 0.930 . S
C1016 C1015 1.388 . S
C1016 C1017 1.390 . S
C1017 C1016 1.390 . S
C1017 C1018 1.394 . S
C1017 C1023 1.465 . S
C1018 C1013 1.399 . S
C1018 C1017 1.394 . S
C1018 C1019 1.516 . S
C1019 C1018 1.516 . S
C1019 C1020 1.502 . S
C1019 C1021 1.561 . S
C1019 C1022 1.526 . S
C1020 H1004 0.959 . S
C1020 H1005 0.959 . S
C1020 H1006 0.961 . S
C1020 C1019 1.502 . S
C1021 H1007 0.960 . S
C1021 H1008 0.961 . S
C1021 H1009 0.959 . S
C1021 C1019 1.561 . S
C1022 C1019 1.526 . S
C1022 C1023 1.396 . S
C1022 C1027 1.390 . S
C1023 C1017 1.465 . S
C1023 C1022 1.396 . S
C1023 C1024 1.399 . S
C1024 H1010 0.929 . S
C1024 C1023 1.399 . S
C1024 C1025 1.385 . S
C1025 H1011 0.931 . S
C1025 C1024 1.385 . S
C1025 C1026 1.389 . S
C1026 C1025 1.389 . S
C1026 C1027 1.387 . S
C1027 H1012 0.930 . S
C1027 C1022 1.390 . S
C1027 C1026 1.387 . S
H1028 C1040 0.930 . S
H1029 C1042 0.930 . S
H1030 C1043 0.930 . S
H1031 C1047 0.959 . S
H1032 C1047 0.959 . S
H1033 C1047 0.961 . S
H1034 C1048 0.960 . S
H1035 C1048 0.961 . S
H1036 C1048 0.959 . S
H1037 C1051 0.929 . S
H1038 C1052 0.931 . S
H1039 C1054 0.930 . S
C1040 H1028 0.930 . S
C1040 C1041 1.399 . S
C1040 C1045 1.399 . S
C1041 C1040 1.399 . S
C1041 C1042 1.376 . S
C1042 H1029 0.930 . S
C1042 C1041 1.376 . S
C1042 C1043 1.388 . S
C1043 H1030 0.930 . S
C1043 C1042 1.388 . S
C1043 C1044 1.390 . S
C1044 C1043 1.390 . S
C1044 C1045 1.394 . S
C1044 C1050 1.465 . S
C1045 C1040 1.399 . S
C1045 C1044 1.394 . S
C1045 C1046 1.516 . S
C1046 C1045 1.516 . S
C1046 C1047 1.502 . S
C1046 C1048 1.561 . S
C1046 C1049 1.526 . S
C1047 H1031 0.959 . S
C1047 H1032 0.959 . S
C1047 H1033 0.961 . S
C1047 C1046 1.502 . S
C1048 H1034 0.960 . S
C1048 H1035 0.961 . S
C1048 H1036 0.959 . S
C1048 C1046 1.561 . S
C1049 C1046 1.526 . S
C1049 C1050 1.396 . S
C1049 C1054 1.390 . S
C1050 C1044 1.465 . S
C1050 C1049 1.396 . S
C1050 C1051 1.399 . S
C1051 H1037 0.929 . S
C1051 C1050 1.399 . S
C1051 C1052 1.385 . S
C1052 H1038 0.931 . S
C1052 C1051 1.385 . S
C1052 C1053 1.389 . S
C1053 C1052 1.389 . S
C1053 C1054 1.387 . S
C1054 H1039 0.930 . S
C1054 C1049 1.390 . S
C1054 C1053 1.387 . S
H1055 C1067 0.930 . S
H1056 C1069 0.930 . S
H1057 C1070 0.930 . S
H1058 C1074 0.959 . S
H1059 C1074 0.959 . S
H1060 C1074 0.961 . S
H1061 C1075 0.960 . S
H1062 C1075 0.961 . S
H1063 C1075 0.959 . S
H1064 C1078 0.929 . S
H1065 C1079 0.931 . S
H1066 C1081 0.930 . S
C1067 H1055 0.930 . S
C1067 C1068 1.399 . S
C1067 C1072 1.399 . S
C1068 C1067 1.399 . S
C1068 C1069 1.376 . S
C1069 H1056 0.930 . S
C1069 C1068 1.376 . S
C1069 C1070 1.388 . S
C1070 H1057 0.930 . S
C1070 C1069 1.388 . S
C1070 C1071 1.390 . S
C1071 C1070 1.390 . S
C1071 C1072 1.394 . S
C1071 C1077 1.465 . S
C1072 C1067 1.399 . S
C1072 C1071 1.394 . S
C1072 C1073 1.516 . S
C1073 C1072 1.516 . S
C1073 C1074 1.502 . S
C1073 C1075 1.561 . S
C1073 C1076 1.526 . S
C1074 H1058 0.959 . S
C1074 H1059 0.959 . S
C1074 H1060 0.961 . S
C1074 C1073 1.502 . S
C1075 H1061 0.960 . S
C1075 H1062 0.961 . S
C1075 H1063 0.959 . S
C1075 C1073 1.561 . S
C1076 C1073 1.526 . S
C1076 C1077 1.396 . S
C1076 C1081 1.390 . S
C1077 C1071 1.465 . S
C1077 C1076 1.396 . S
C1077 C1078 1.399 . S
C1078 H1064 0.929 . S
C1078 C1077 1.399 . S
C1078 C1079 1.385 . S
C1079 H1065 0.931 . S
C1079 C1078 1.385 . S
C1079 C1080 1.389 . S
C1080 C1079 1.389 . S
C1080 C1081 1.387 . S
C1081 H1066 0.930 . S
C1081 C1076 1.390 . S
C1081 C1080 1.387 . S
H1082 C1094 0.930 . S
H1083 C1096 0.930 . S
H1084 C1097 0.930 . S
H1085 C1101 0.959 . S
H1086 C1101 0.959 . S
H1087 C1101 0.961 1_554 S
H1088 C1102 0.968 . S
H1089 C1102 0.961 . S
H1090 C1102 0.959 . S
H1091 C1105 0.929 . S
H1092 C1106 0.931 . S
H1093 C1108 0.930 . S
C1094 H1082 0.930 . S
C1094 C1095 1.399 . S
C1094 C1099 1.399 1_554 S
C1095 C1094 1.399 . S
C1095 C1096 1.376 1_554 S
C1096 H1083 0.930 . S
C1096 C1095 1.376 1_556 S
C1096 C1097 1.388 . S
C1097 H1084 0.930 . S
C1097 C1096 1.388 . S
C1097 C1098 1.390 . S
C1098 C1097 1.390 . S
C1098 C1099 1.394 . S
C1098 C1104 1.465 . S
C1099 C1094 1.399 1_556 S
C1099 C1098 1.394 . S
C1099 C1100 1.516 . S
C1100 C1099 1.516 . S
C1100 C1101 1.502 . S
C1100 C1102 1.561 . S
C1100 C1103 1.526 . S
C1101 H1085 0.959 . S
C1101 H1086 0.959 . S
C1101 H1087 0.961 1_556 S
C1101 C1100 1.502 . S
C1102 H1088 0.968 . S
C1102 H1089 0.961 . S
C1102 H1090 0.959 . S
C1102 C1100 1.561 . S
C1103 C1100 1.526 . S
C1103 C1104 1.396 . S
C1103 C1108 1.390 . S
C1104 C1098 1.465 . S
C1104 C1103 1.396 . S
C1104 C1105 1.399 . S
C1105 H1091 0.929 . S
C1105 C1104 1.399 . S
C1105 C1106 1.385 . S
C1106 H1092 0.931 . S
C1106 C1105 1.385 . S
C1106 C1107 1.389 . S
C1107 C1106 1.389 . S
C1107 C1108 1.387 . S
C1108 H1093 0.930 . S
C1108 C1103 1.390 . S
C1108 C1107 1.387 . S
H1109 C1121 0.930 . S
H1110 C1123 0.930 . S
H1111 C1124 0.933 . S
H1112 C1128 0.959 . S
H1113 C1128 0.959 . S
H1114 C1128 0.961 . S
H1115 C1129 0.960 . S
H1116 C1129 0.961 . S
H1117 C1129 0.959 . S
H1118 C1132 0.929 . S
H1119 C1133 0.931 . S
H1120 C1135 0.930 . S
C1121 H1109 0.930 . S
C1121 C1122 1.399 . S
C1121 C1126 1.399 1_554 S
C1122 C1121 1.399 . S
C1122 C1123 1.376 1_655 S
C1123 H1110 0.930 . S
C1123 C1122 1.376 1_455 S
C1123 C1124 1.388 1_454 S
C1124 H1111 0.933 . S
C1124 C1123 1.388 1_656 S
C1124 C1125 1.390 . S
C1125 C1124 1.390 . S
C1125 C1126 1.394 . S
C1125 C1131 1.465 . S
C1126 C1121 1.399 1_556 S
C1126 C1125 1.394 . S
C1126 C1127 1.516 . S
C1127 C1126 1.516 . S
C1127 C1128 1.502 1_556 S
C1127 C1129 1.561 . S
C1127 C1130 1.526 . S
C1128 H1112 0.959 . S
C1128 H1113 0.959 . S
C1128 H1114 0.961 . S
C1128 C1127 1.502 1_554 S
C1129 H1115 0.960 . S
C1129 H1116 0.961 . S
C1129 H1117 0.959 . S
C1129 C1127 1.561 . S
C1130 C1127 1.526 . S
C1130 C1131 1.396 . S
C1130 C1135 1.390 . S
C1131 C1125 1.465 . S
C1131 C1130 1.396 . S
C1131 C1132 1.399 . S
C1132 H1118 0.929 . S
C1132 C1131 1.399 . S
C1132 C1133 1.385 . S
C1133 H1119 0.931 . S
C1133 C1132 1.385 . S
C1133 C1134 1.389 . S
C1134 C1133 1.389 . S
C1134 C1135 1.387 . S
C1135 H1120 0.930 . S
C1135 C1130 1.390 . S
C1135 C1134 1.387 . S
H1136 C1148 0.930 . S
H1137 C1150 0.930 . S
H1138 C1151 0.930 . S
H1139 C1155 0.959 . S
H1140 C1155 0.959 . S
H1141 C1155 0.961 . S
H1142 C1156 0.960 . S
H1143 C1156 0.961 . S
H1144 C1156 0.959 . S
H1145 C1159 0.929 . S
H1146 C1160 0.931 . S
H1147 C1162 0.930 . S
C1148 H1136 0.930 . S
C1148 C1149 1.399 . S
C1148 C1153 1.399 . S
C1149 C1148 1.399 . S
C1149 C1150 1.376 . S
C1150 H1137 0.930 . S
C1150 C1149 1.376 . S
C1150 C1151 1.388 . S
C1151 H1138 0.930 . S
C1151 C1150 1.388 . S
C1151 C1152 1.390 . S
C1152 C1151 1.390 . S
C1152 C1153 1.394 . S
C1152 C1158 1.465 . S
C1153 C1148 1.399 . S
C1153 C1152 1.394 . S
C1153 C1154 1.516 . S
C1154 C1153 1.516 . S
C1154 C1155 1.502 . S
C1154 C1156 1.561 . S
C1154 C1157 1.526 . S
C1155 H1139 0.959 . S
C1155 H1140 0.959 . S
C1155 H1141 0.961 . S
C1155 C1154 1.502 . S
C1156 H1142 0.960 . S
C1156 H1143 0.961 . S
C1156 H1144 0.959 . S
C1156 C1154 1.561 . S
C1157 C1154 1.526 . S
C1157 C1158 1.396 . S
C1157 C1162 1.390 . S
C1158 C1152 1.465 . S
C1158 C1157 1.396 . S
C1158 C1159 1.399 . S
C1159 H1145 0.929 . S
C1159 C1158 1.399 . S
C1159 C1160 1.385 . S
C1160 H1146 0.931 . S
C1160 C1159 1.385 . S
C1160 C1161 1.389 . S
C1161 C1160 1.389 . S
C1161 C1162 1.387 . S
C1162 H1147 0.930 . S
C1162 C1157 1.390 . S
C1162 C1161 1.387 . S
H1163 C1175 0.930 . S
H1164 C1177 0.930 . S
H1165 C1178 0.930 . S
H1166 C1182 0.959 . S
H1167 C1182 0.959 . S
H1168 C1182 0.961 . S
H1169 C1183 0.960 . S
H1170 C1183 0.961 . S
H1171 C1183 0.959 . S
H1172 C1186 0.929 . S
H1173 C1187 0.931 . S
H1174 C1189 0.930 . S
C1175 H1163 0.930 . S
C1175 C1176 1.399 . S
C1175 C1180 1.399 . S
C1176 C1175 1.399 . S
C1176 C1177 1.376 . S
C1177 H1164 0.930 . S
C1177 C1176 1.376 . S
C1177 C1178 1.388 . S
C1178 H1165 0.930 . S
C1178 C1177 1.388 . S
C1178 C1179 1.390 . S
C1179 C1178 1.390 . S
C1179 C1180 1.394 . S
C1179 C1185 1.465 . S
C1180 C1175 1.399 . S
C1180 C1179 1.394 . S
C1180 C1181 1.516 . S
C1181 C1180 1.516 . S
C1181 C1182 1.502 . S
C1181 C1183 1.561 . S
C1181 C1184 1.526 . S
C1182 H1166 0.959 . S
C1182 H1167 0.959 . S
C1182 H1168 0.961 . S
C1182 C1181 1.502 . S
C1183 H1169 0.960 . S
C1183 H1170 0.961 . S
C1183 H1171 0.959 . S
C1183 C1181 1.561 . S
C1184 C1181 1.526 . S
C1184 C1185 1.396 . S
C1184 C1189 1.390 . S
C1185 C1179 1.465 . S
C1185 C1184 1.396 . S
C1185 C1186 1.399 . S
C1186 H1172 0.929 . S
C1186 C1185 1.399 . S
C1186 C1187 1.385 . S
C1187 H1173 0.931 . S
C1187 C1186 1.385 . S
C1187 C1188 1.389 . S
C1188 C1187 1.389 . S
C1188 C1189 1.387 . S
C1189 H1174 0.930 . S
C1189 C1184 1.390 . S
C1189 C1188 1.387 . S
H1190 C1202 0.930 . S
H1191 C1204 0.930 . S
H1192 C1205 0.930 . S
H1193 C1209 0.959 . S
H1194 C1209 0.959 . S
H1195 C1209 0.961 . S
H1196 C1210 0.960 . S
H1197 C1210 0.961 . S
H1198 C1210 0.959 . S
H1199 C1213 0.929 . S
H1200 C1214 0.931 . S
H1201 C1216 0.930 . S
C1202 H1190 0.930 . S
C1202 C1203 1.399 . S
C1202 C1207 1.399 . S
C1203 C1202 1.399 . S
C1203 C1204 1.376 . S
C1204 H1191 0.930 . S
C1204 C1203 1.376 . S
C1204 C1205 1.388 . S
C1205 H1192 0.930 . S
C1205 C1204 1.388 . S
C1205 C1206 1.390 . S
C1206 C1205 1.390 . S
C1206 C1207 1.394 . S
C1206 C1212 1.465 . S
C1207 C1202 1.399 . S
C1207 C1206 1.394 . S
C1207 C1208 1.516 . S
C1208 C1207 1.516 . S
C1208 C1209 1.502 . S
C1208 C1210 1.561 . S
C1208 C1211 1.526 . S
C1209 H1193 0.959 . S
C1209 H1194 0.959 . S
C1209 H1195 0.961 . S
C1209 C1208 1.502 . S
C1210 H1196 0.960 . S
C1210 H1197 0.961 . S
C1210 H1198 0.959 . S
C1210 C1208 1.561 . S
C1211 C1208 1.526 . S
C1211 C1212 1.396 . S
C1211 C1216 1.390 . S
C1212 C1206 1.465 . S
C1212 C1211 1.396 . S
C1212 C1213 1.399 . S
C1213 H1199 0.929 . S
C1213 C1212 1.399 . S
C1213 C1214 1.385 . S
C1214 H1200 0.931 . S
C1214 C1213 1.385 . S
C1214 C1215 1.389 . S
C1215 C1214 1.389 . S
C1215 C1216 1.387 . S
C1216 H1201 0.930 . S
C1216 C1211 1.390 . S
C1216 C1215 1.387 . S
H1217 C1229 0.930 . S
H1218 C1231 0.930 . S
H1219 C1232 0.930 . S
H1220 C1236 0.959 . S
H1221 C1236 0.959 . S
H1222 C1236 0.961 . S
H1223 C1237 0.960 . S
H1224 C1237 0.961 . S
H1225 C1237 0.959 . S
H1226 C1240 0.929 . S
H1227 C1241 0.931 . S
H1228 C1243 0.930 . S
C1229 H1217 0.930 . S
C1229 C1230 1.399 . S
C1229 C1234 1.399 . S
C1230 C1229 1.399 . S
C1230 C1231 1.376 . S
C1231 H1218 0.930 . S
C1231 C1230 1.376 . S
C1231 C1232 1.388 . S
C1232 H1219 0.930 . S
C1232 C1231 1.388 . S
C1232 C1233 1.390 . S
C1233 C1232 1.390 . S
C1233 C1234 1.394 . S
C1233 C1239 1.465 . S
C1234 C1229 1.399 . S
C1234 C1233 1.394 . S
C1234 C1235 1.516 . S
C1235 C1234 1.516 . S
C1235 C1236 1.502 . S
C1235 C1237 1.561 . S
C1235 C1238 1.526 . S
C1236 H1220 0.959 . S
C1236 H1221 0.959 . S
C1236 H1222 0.961 . S
C1236 C1235 1.502 . S
C1237 H1223 0.960 . S
C1237 H1224 0.961 . S
C1237 H1225 0.959 . S
C1237 C1235 1.561 . S
C1238 C1235 1.526 . S
C1238 C1239 1.396 . S
C1238 C1243 1.390 . S
C1239 C1233 1.465 . S
C1239 C1238 1.396 . S
C1239 C1240 1.399 . S
C1240 H1226 0.929 . S
C1240 C1239 1.399 . S
C1240 C1241 1.385 . S
C1241 H1227 0.931 . S
C1241 C1240 1.385 . S
C1241 C1242 1.389 . S
C1242 C1241 1.389 . S
C1242 C1243 1.387 . S
C1243 H1228 0.930 . S
C1243 C1238 1.390 . S
C1243 C1242 1.387 . S
H1244 C1256 0.930 . S
H1245 C1258 0.930 . S
H1246 C1259 0.930 . S
H1247 C1263 0.959 . S
H1248 C1263 0.959 . S
H1249 C1263 0.961 . S
H1250 C1264 0.960 . S
H1251 C1264 0.961 . S
H1252 C1264 0.959 . S
H1253 C1267 0.929 . S
H1254 C1268 0.931 . S
H1255 C1270 0.930 . S
C1256 H1244 0.930 . S
C1256 C1257 1.399 . S
C1256 C1261 1.399 . S
C1257 C1256 1.399 . S
C1257 C1258 1.376 . S
C1258 H1245 0.930 . S
C1258 C1257 1.376 . S
C1258 C1259 1.388 . S
C1259 H1246 0.930 . S
C1259 C1258 1.388 . S
C1259 C1260 1.390 . S
C1260 C1259 1.390 . S
C1260 C1261 1.394 . S
C1260 C1266 1.465 . S
C1261 C1256 1.399 . S
C1261 C1260 1.394 . S
C1261 C1262 1.516 . S
C1262 C1261 1.516 . S
C1262 C1263 1.502 . S
C1262 C1264 1.561 . S
C1262 C1265 1.526 . S
C1263 H1247 0.959 . S
C1263 H1248 0.959 . S
C1263 H1249 0.961 . S
C1263 C1262 1.502 . S
C1264 H1250 0.960 . S
C1264 H1251 0.961 . S
C1264 H1252 0.959 . S
C1264 C1262 1.561 . S
C1265 C1262 1.526 . S
C1265 C1266 1.396 . S
C1265 C1270 1.390 . S
C1266 C1260 1.465 . S
C1266 C1265 1.396 . S
C1266 C1267 1.399 . S
C1267 H1253 0.929 . S
C1267 C1266 1.399 . S
C1267 C1268 1.385 . S
C1268 H1254 0.931 . S
C1268 C1267 1.385 . S
C1268 C1269 1.389 . S
C1269 C1268 1.389 . S
C1269 C1270 1.387 . S
C1270 H1255 0.930 . S
C1270 C1265 1.390 . S
C1270 C1269 1.387 . S
H1271 C1283 0.930 . S
H1272 C1285 0.930 . S
H1273 C1286 0.930 . S
H1274 C1290 0.959 . S
H1275 C1290 0.959 . S
H1276 C1290 0.961 . S
H1277 C1291 0.960 . S
H1278 C1291 0.961 . S
H1279 C1291 0.959 . S
H1280 C1294 0.929 . S
H1281 C1295 0.931 . S
H1282 C1297 0.930 . S
C1283 H1271 0.930 . S
C1283 C1284 1.399 . S
C1283 C1288 1.399 . S
C1284 C1283 1.399 . S
C1284 C1285 1.376 . S
C1285 H1272 0.930 . S
C1285 C1284 1.376 . S
C1285 C1286 1.388 . S
C1286 H1273 0.930 . S
C1286 C1285 1.388 . S
C1286 C1287 1.390 . S
C1287 C1286 1.390 . S
C1287 C1288 1.394 . S
C1287 C1293 1.465 . S
C1288 C1283 1.399 . S
C1288 C1287 1.394 . S
C1288 C1289 1.516 . S
C1289 C1288 1.516 . S
C1289 C1290 1.502 . S
C1289 C1291 1.561 . S
C1289 C1292 1.526 . S
C1290 H1274 0.959 . S
C1290 H1275 0.959 . S
C1290 H1276 0.961 . S
C1290 C1289 1.502 . S
C1291 H1277 0.960 . S
C1291 H1278 0.961 . S
C1291 H1279 0.959 . S
C1291 C1289 1.561 . S
C1292 C1289 1.526 . S
C1292 C1293 1.396 . S
C1292 C1297 1.390 . S
C1293 C1287 1.465 . S
C1293 C1292 1.396 . S
C1293 C1294 1.399 . S
C1294 H1280 0.929 . S
C1294 C1293 1.399 . S
C1294 C1295 1.385 . S
C1295 H1281 0.931 . S
C1295 C1294 1.385 . S
C1295 C1296 1.389 . S
C1296 C1295 1.389 . S
C1296 C1297 1.387 . S
C1297 H1282 0.930 . S
C1297 C1292 1.390 . S
C1297 C1296 1.387 . S
H1298 C1310 0.930 . S
H1299 C1312 0.930 . S
H1300 C1313 0.930 . S
H1301 C1317 0.959 . S
H1302 C1317 0.959 . S
H1303 C1317 0.961 . S
H1304 C1318 0.960 . S
H1305 C1318 0.961 . S
H1306 C1318 0.959 . S
H1307 C1321 0.929 . S
H1308 C1322 0.931 . S
H1309 C1324 0.930 . S
C1310 H1298 0.930 . S
C1310 C1311 1.399 . S
C1310 C1315 1.399 . S
C1311 C1310 1.399 . S
C1311 C1312 1.376 . S
C1312 H1299 0.930 . S
C1312 C1311 1.376 . S
C1312 C1313 1.388 . S
C1313 H1300 0.930 . S
C1313 C1312 1.388 . S
C1313 C1314 1.390 . S
C1314 C1313 1.390 . S
C1314 C1315 1.394 . S
C1314 C1320 1.465 . S
C1315 C1310 1.399 . S
C1315 C1314 1.394 . S
C1315 C1316 1.516 . S
C1316 C1315 1.516 . S
C1316 C1317 1.502 . S
C1316 C1318 1.561 . S
C1316 C1319 1.526 . S
C1317 H1301 0.959 . S
C1317 H1302 0.959 . S
C1317 H1303 0.961 . S
C1317 C1316 1.502 . S
C1318 H1304 0.960 . S
C1318 H1305 0.961 . S
C1318 H1306 0.959 . S
C1318 C1316 1.561 . S
C1319 C1316 1.526 . S
C1319 C1320 1.396 . S
C1319 C1324 1.390 . S
C1320 C1314 1.465 . S
C1320 C1319 1.396 . S
C1320 C1321 1.399 . S
C1321 H1307 0.929 . S
C1321 C1320 1.399 . S
C1321 C1322 1.385 . S
C1322 H1308 0.931 . S
C1322 C1321 1.385 . S
C1322 C1323 1.389 . S
C1323 C1322 1.389 . S
C1323 C1324 1.387 . S
C1324 H1309 0.930 . S
C1324 C1319 1.390 . S
C1324 C1323 1.387 . S
H1325 C1337 0.930 . S
H1326 C1339 0.930 . S
H1327 C1340 0.930 . S
H1328 C1344 0.959 . S
H1329 C1344 0.959 . S
H1330 C1344 0.961 . S
H1331 C1345 0.960 . S
H1332 C1345 0.961 . S
H1333 C1345 0.959 . S
H1334 C1348 0.929 . S
H1335 C1349 0.931 . S
H1336 C1351 0.930 . S
C1337 H1325 0.930 . S
C1337 C1338 1.399 . S
C1337 C1342 1.399 . S
C1338 C1337 1.399 . S
C1338 C1339 1.376 . S
C1339 H1326 0.930 . S
C1339 C1338 1.376 . S
C1339 C1340 1.388 . S
C1340 H1327 0.930 . S
C1340 C1339 1.388 . S
C1340 C1341 1.390 . S
C1341 C1340 1.390 . S
C1341 C1342 1.394 . S
C1341 C1347 1.465 . S
C1342 C1337 1.399 . S
C1342 C1341 1.394 . S
C1342 C1343 1.516 . S
C1343 C1342 1.516 . S
C1343 C1344 1.502 . S
C1343 C1345 1.561 . S
C1343 C1346 1.526 . S
C1344 H1328 0.959 . S
C1344 H1329 0.959 . S
C1344 H1330 0.961 . S
C1344 C1343 1.502 . S
C1345 H1331 0.960 . S
C1345 H1332 0.961 . S
C1345 H1333 0.959 . S
C1345 C1343 1.561 . S
C1346 C1343 1.526 . S
C1346 C1347 1.396 . S
C1346 C1351 1.390 . S
C1347 C1341 1.465 . S
C1347 C1346 1.396 . S
C1347 C1348 1.399 . S
C1348 H1334 0.929 . S
C1348 C1347 1.399 . S
C1348 C1349 1.385 . S
C1349 H1335 0.931 . S
C1349 C1348 1.385 . S
C1349 C1350 1.389 . S
C1350 C1349 1.389 . S
C1350 C1351 1.387 . S
C1351 H1336 0.930 . S
C1351 C1346 1.390 . S
C1351 C1350 1.387 . S
H1352 C1364 0.930 . S
H1353 C1366 0.930 . S
H1354 C1367 0.930 . S
H1355 C1371 0.959 . S
H1356 C1371 0.959 . S
H1357 C1371 0.961 . S
H1358 C1372 0.960 . S
H1359 C1372 0.961 . S
H1360 C1372 0.959 . S
H1361 C1375 0.929 . S
H1362 C1376 0.931 . S
H1363 C1378 0.930 . S
C1364 H1352 0.930 . S
C1364 C1365 1.399 . S
C1364 C1369 1.399 . S
C1365 C1364 1.399 . S
C1365 C1366 1.376 . S
C1366 H1353 0.930 . S
C1366 C1365 1.376 . S
C1366 C1367 1.388 . S
C1367 H1354 0.930 . S
C1367 C1366 1.388 . S
C1367 C1368 1.390 . S
C1368 C1367 1.390 . S
C1368 C1369 1.394 . S
C1368 C1374 1.465 . S
C1369 C1364 1.399 . S
C1369 C1368 1.394 . S
C1369 C1370 1.516 . S
C1370 C1369 1.516 . S
C1370 C1371 1.502 . S
C1370 C1372 1.561 . S
C1370 C1373 1.526 . S
C1371 H1355 0.959 . S
C1371 H1356 0.959 . S
C1371 H1357 0.961 . S
C1371 C1370 1.502 . S
C1372 H1358 0.960 . S
C1372 H1359 0.961 . S
C1372 H1360 0.959 . S
C1372 C1370 1.561 . S
C1373 C1370 1.526 . S
C1373 C1374 1.396 . S
C1373 C1378 1.390 . S
C1374 C1368 1.465 . S
C1374 C1373 1.396 . S
C1374 C1375 1.399 . S
C1375 H1361 0.929 . S
C1375 C1374 1.399 . S
C1375 C1376 1.385 . S
C1376 H1362 0.931 . S
C1376 C1375 1.385 . S
C1376 C1377 1.389 . S
C1377 C1376 1.389 . S
C1377 C1378 1.387 . S
C1378 H1363 0.930 . S
C1378 C1373 1.390 . S
C1378 C1377 1.387 . S
H1379 C1391 0.930 . S
H1380 C1393 0.930 . S
H1381 C1394 0.930 . S
H1382 C1398 0.959 . S
H1383 C1398 0.959 . S
H1384 C1398 0.961 . S
H1385 C1399 0.960 . S
H1386 C1399 0.961 . S
H1387 C1399 0.959 . S
H1388 C1402 0.929 . S
H1389 C1403 0.931 . S
H1390 C1405 0.930 . S
C1391 H1379 0.930 . S
C1391 C1392 1.399 . S
C1391 C1396 1.399 . S
C1392 C1391 1.399 . S
C1392 C1393 1.376 . S
C1393 H1380 0.930 . S
C1393 C1392 1.376 . S
C1393 C1394 1.388 . S
C1394 H1381 0.930 . S
C1394 C1393 1.388 . S
C1394 C1395 1.390 . S
C1395 C1394 1.390 . S
C1395 C1396 1.394 . S
C1395 C1401 1.465 . S
C1396 C1391 1.399 . S
C1396 C1395 1.394 . S
C1396 C1397 1.516 . S
C1397 C1396 1.516 . S
C1397 C1398 1.502 . S
C1397 C1399 1.561 . S
C1397 C1400 1.526 . S
C1398 H1382 0.959 . S
C1398 H1383 0.959 . S
C1398 H1384 0.961 . S
C1398 C1397 1.502 . S
C1399 H1385 0.960 . S
C1399 H1386 0.961 . S
C1399 H1387 0.959 . S
C1399 C1397 1.561 . S
C1400 C1397 1.526 . S
C1400 C1401 1.396 . S
C1400 C1405 1.390 . S
C1401 C1395 1.465 . S
C1401 C1400 1.396 . S
C1401 C1402 1.399 . S
C1402 H1388 0.929 . S
C1402 C1401 1.399 . S
C1402 C1403 1.385 . S
C1403 H1389 0.931 . S
C1403 C1402 1.385 . S
C1403 C1404 1.389 . S
C1404 C1403 1.389 . S
C1404 C1405 1.387 . S
C1405 H1390 0.930 . S
C1405 C1400 1.390 . S
C1405 C1404 1.387 . S
H1406 C1418 0.930 . S
H1407 C1420 0.930 . S
H1408 C1421 0.930 . S
H1409 C1425 0.959 . S
H1410 C1425 0.959 . S
H1411 C1425 0.961 . S
H1412 C1426 0.960 . S
H1413 C1426 0.961 . S
H1414 C1426 0.959 . S
H1415 C1429 0.929 . S
H1416 C1430 0.931 . S
H1417 C1432 0.930 . S
C1418 H1406 0.930 . S
C1418 C1419 1.399 . S
C1418 C1423 1.399 . S
C1419 C1418 1.399 . S
C1419 C1420 1.376 . S
C1420 H1407 0.930 . S
C1420 C1419 1.376 . S
C1420 C1421 1.388 . S
C1421 H1408 0.930 . S
C1421 C1420 1.388 . S
C1421 C1422 1.390 . S
C1422 C1421 1.390 . S
C1422 C1423 1.394 . S
C1422 C1428 1.465 . S
C1423 C1418 1.399 . S
C1423 C1422 1.394 . S
C1423 C1424 1.516 . S
C1424 C1423 1.516 . S
C1424 C1425 1.502 . S
C1424 C1426 1.561 . S
C1424 C1427 1.526 . S
C1425 H1409 0.959 . S
C1425 H1410 0.959 . S
C1425 H1411 0.961 . S
C1425 C1424 1.502 . S
C1426 H1412 0.960 . S
C1426 H1413 0.961 . S
C1426 H1414 0.959 . S
C1426 C1424 1.561 . S
C1427 C1424 1.526 . S
C1427 C1428 1.396 . S
C1427 C1432 1.390 . S
C1428 C1422 1.465 . S
C1428 C1427 1.396 . S
C1428 C1429 1.399 . S
C1429 H1415 0.929 . S
C1429 C1428 1.399 . S
C1429 C1430 1.385 . S
C1430 H1416 0.931 . S
C1430 C1429 1.385 . S
C1430 C1431 1.389 . S
C1431 C1430 1.389 . S
C1431 C1432 1.387 . S
C1432 H1417 0.930 . S
C1432 C1427 1.390 . S
C1432 C1431 1.387 . S
H1433 C1445 0.930 . S
H1434 C1447 0.930 . S
H1435 C1448 0.930 . S
H1436 C1452 0.959 . S
H1437 C1452 0.959 . S
H1438 C1452 0.961 . S
H1439 C1453 0.960 . S
H1440 C1453 0.961 . S
H1441 C1453 0.959 . S
H1442 C1456 0.929 . S
H1443 C1457 0.931 . S
H1444 C1459 0.930 . S
C1445 H1433 0.930 . S
C1445 C1446 1.399 . S
C1445 C1450 1.399 . S
C1446 C1445 1.399 . S
C1446 C1447 1.376 . S
C1447 H1434 0.930 . S
C1447 C1446 1.376 . S
C1447 C1448 1.388 . S
C1448 H1435 0.930 . S
C1448 C1447 1.388 . S
C1448 C1449 1.390 . S
C1449 C1448 1.390 . S
C1449 C1450 1.394 . S
C1449 C1455 1.465 . S
C1450 C1445 1.399 . S
C1450 C1449 1.394 . S
C1450 C1451 1.516 . S
C1451 C1450 1.516 . S
C1451 C1452 1.502 . S
C1451 C1453 1.561 . S
C1451 C1454 1.526 . S
C1452 H1436 0.959 . S
C1452 H1437 0.959 . S
C1452 H1438 0.961 . S
C1452 C1451 1.502 . S
C1453 H1439 0.960 . S
C1453 H1440 0.961 . S
C1453 H1441 0.959 . S
C1453 C1451 1.561 . S
C1454 C1451 1.526 . S
C1454 C1455 1.396 . S
C1454 C1459 1.390 . S
C1455 C1449 1.465 . S
C1455 C1454 1.396 . S
C1455 C1456 1.399 . S
C1456 H1442 0.929 . S
C1456 C1455 1.399 . S
C1456 C1457 1.385 . S
C1457 H1443 0.931 . S
C1457 C1456 1.385 . S
C1457 C1458 1.389 . S
C1458 C1457 1.389 . S
C1458 C1459 1.387 . S
C1459 H1444 0.930 . S
C1459 C1454 1.390 . S
C1459 C1458 1.387 . S
H1460 C1472 0.930 . S
H1461 C1474 0.930 . S
H1462 C1475 0.930 . S
H1463 C1479 0.959 . S
H1464 C1479 0.959 . S
H1465 C1479 0.961 . S
H1466 C1480 0.960 . S
H1467 C1480 0.961 . S
H1468 C1480 0.959 . S
H1469 C1483 0.929 . S
H1470 C1484 0.931 . S
H1471 C1486 0.930 . S
C1472 H1460 0.930 . S
C1472 C1473 1.399 . S
C1472 C1477 1.399 . S
C1473 C1472 1.399 . S
C1473 C1474 1.376 . S
C1474 H1461 0.930 . S
C1474 C1473 1.376 . S
C1474 C1475 1.388 . S
C1475 H1462 0.930 . S
C1475 C1474 1.388 . S
C1475 C1476 1.390 . S
C1476 C1475 1.390 . S
C1476 C1477 1.394 . S
C1476 C1482 1.465 . S
C1477 C1472 1.399 . S
C1477 C1476 1.394 . S
C1477 C1478 1.516 . S
C1478 C1477 1.516 . S
C1478 C1479 1.502 . S
C1478 C1480 1.561 . S
C1478 C1481 1.526 . S
C1479 H1463 0.959 . S
C1479 H1464 0.959 . S
C1479 H1465 0.961 . S
C1479 C1478 1.502 . S
C1480 H1466 0.960 . S
C1480 H1467 0.961 . S
C1480 H1468 0.959 . S
C1480 C1478 1.561 . S
C1481 C1478 1.526 . S
C1481 C1482 1.396 . S
C1481 C1486 1.390 . S
C1482 C1476 1.465 . S
C1482 C1481 1.396 . S
C1482 C1483 1.399 . S
C1483 H1469 0.929 . S
C1483 C1482 1.399 . S
C1483 C1484 1.385 . S
C1484 H1470 0.931 . S
C1484 C1483 1.385 . S
C1484 C1485 1.389 . S
C1485 C1484 1.389 . S
C1485 C1486 1.387 . S
C1486 H1471 0.930 . S
C1486 C1481 1.390 . S
C1486 C1485 1.387 . S
H1487 C1499 0.930 . S
H1488 C1501 0.930 . S
H1489 C1502 0.930 . S
H1490 C1506 0.959 . S
H1491 C1506 0.959 . S
H1492 C1506 0.961 . S
H1493 C1507 0.960 . S
H1494 C1507 0.961 . S
H1495 C1507 0.959 . S
H1496 C1510 0.929 . S
H1497 C1511 0.931 . S
H1498 C1513 0.930 . S
C1499 H1487 0.930 . S
C1499 C1500 1.399 . S
C1499 C1504 1.399 . S
C1500 C1499 1.399 . S
C1500 C1501 1.376 . S
C1501 H1488 0.930 . S
C1501 C1500 1.376 . S
C1501 C1502 1.388 . S
C1502 H1489 0.930 . S
C1502 C1501 1.388 . S
C1502 C1503 1.390 . S
C1503 C1502 1.390 . S
C1503 C1504 1.394 . S
C1503 C1509 1.465 . S
C1504 C1499 1.399 . S
C1504 C1503 1.394 . S
C1504 C1505 1.516 . S
C1505 C1504 1.516 . S
C1505 C1506 1.502 . S
C1505 C1507 1.561 . S
C1505 C1508 1.526 . S
C1506 H1490 0.959 . S
C1506 H1491 0.959 . S
C1506 H1492 0.961 . S
C1506 C1505 1.502 . S
C1507 H1493 0.960 . S
C1507 H1494 0.961 . S
C1507 H1495 0.959 . S
C1507 C1505 1.561 . S
C1508 C1505 1.526 . S
C1508 C1509 1.396 . S
C1508 C1513 1.390 . S
C1509 C1503 1.465 . S
C1509 C1508 1.396 . S
C1509 C1510 1.399 . S
C1510 H1496 0.929 . S
C1510 C1509 1.399 . S
C1510 C1511 1.385 . S
C1511 H1497 0.931 . S
C1511 C1510 1.385 . S
C1511 C1512 1.389 . S
C1512 C1511 1.389 . S
C1512 C1513 1.387 . S
C1513 H1498 0.930 . S
C1513 C1508 1.390 . S
C1513 C1512 1.387 . S
H1514 C1526 0.930 . S
H1515 C1528 0.930 . S
H1516 C1529 0.930 . S
H1517 C1533 0.959 . S
H1518 C1533 0.959 . S
H1519 C1533 0.961 . S
H1520 C1534 0.960 . S
H1521 C1534 0.961 . S
H1522 C1534 0.959 . S
H1523 C1537 0.929 . S
H1524 C1538 0.931 . S
H1525 C1540 0.930 . S
C1526 H1514 0.930 . S
C1526 C1527 1.399 . S
C1526 C1531 1.399 . S
C1527 C1526 1.399 . S
C1527 C1528 1.376 . S
C1528 H1515 0.930 . S
C1528 C1527 1.376 . S
C1528 C1529 1.388 . S
C1529 H1516 0.930 . S
C1529 C1528 1.388 . S
C1529 C1530 1.390 . S
C1530 C1529 1.390 . S
C1530 C1531 1.394 . S
C1530 C1536 1.465 . S
C1531 C1526 1.399 . S
C1531 C1530 1.394 . S
C1531 C1532 1.516 . S
C1532 C1531 1.516 . S
C1532 C1533 1.502 . S
C1532 C1534 1.561 . S
C1532 C1535 1.526 . S
C1533 H1517 0.959 . S
C1533 H1518 0.959 . S
C1533 H1519 0.961 . S
C1533 C1532 1.502 . S
C1534 H1520 0.960 . S
C1534 H1521 0.961 . S
C1534 H1522 0.959 . S
C1534 C1532 1.561 . S
C1535 C1532 1.526 . S
C1535 C1536 1.396 . S
C1535 C1540 1.390 . S
C1536 C1530 1.465 . S
C1536 C1535 1.396 . S
C1536 C1537 1.399 . S
C1537 H1523 0.929 . S
C1537 C1536 1.399 . S
C1537 C1538 1.385 . S
C1538 H1524 0.931 . S
C1538 C1537 1.385 . S
C1538 C1539 1.389 . S
C1539 C1538 1.389 . S
C1539 C1540 1.387 . S
C1540 H1525 0.930 . S
C1540 C1535 1.390 . S
C1540 C1539 1.387 . S
H1541 C1553 0.930 . S
H1542 C1555 0.930 . S
H1543 C1556 0.930 . S
H1544 C1560 0.959 . S
H1545 C1560 0.959 . S
H1546 C1560 0.961 . S
H1547 C1561 0.960 . S
H1548 C1561 0.961 . S
H1549 C1561 0.959 . S
H1550 C1564 0.929 . S
H1551 C1565 0.931 . S
H1552 C1567 0.930 . S
C1553 H1541 0.930 . S
C1553 C1554 1.399 . S
C1553 C1558 1.399 . S
C1554 C1553 1.399 . S
C1554 C1555 1.376 . S
C1555 H1542 0.930 . S
C1555 C1554 1.376 . S
C1555 C1556 1.388 . S
C1556 H1543 0.930 . S
C1556 C1555 1.388 . S
C1556 C1557 1.390 . S
C1557 C1556 1.390 . S
C1557 C1558 1.394 . S
C1557 C1563 1.465 . S
C1558 C1553 1.399 . S
C1558 C1557 1.394 . S
C1558 C1559 1.516 . S
C1559 C1558 1.516 . S
C1559 C1560 1.502 . S
C1559 C1561 1.561 . S
C1559 C1562 1.526 . S
C1560 H1544 0.959 . S
C1560 H1545 0.959 . S
C1560 H1546 0.961 . S
C1560 C1559 1.502 . S
C1561 H1547 0.960 . S
C1561 H1548 0.961 . S
C1561 H1549 0.959 . S
C1561 C1559 1.561 . S
C1562 C1559 1.526 . S
C1562 C1563 1.396 . S
C1562 C1567 1.390 . S
C1563 C1557 1.465 . S
C1563 C1562 1.396 . S
C1563 C1564 1.399 . S
C1564 H1550 0.929 . S
C1564 C1563 1.399 . S
C1564 C1565 1.385 . S
C1565 H1551 0.931 . S
C1565 C1564 1.385 . S
C1565 C1566 1.389 . S
C1566 C1565 1.389 . S
C1566 C1567 1.387 . S
C1567 H1552 0.930 . S
C1567 C1562 1.390 . S
C1567 C1566 1.387 . S
H1568 C1580 0.930 . S
H1569 C1582 0.930 . S
H1570 C1583 0.930 . S
H1571 C1587 0.959 . S
H1572 C1587 0.959 . S
H1573 C1587 0.961 . S
H1574 C1588 0.960 . S
H1575 C1588 0.961 . S
H1576 C1588 0.959 . S
H1577 C1591 0.929 . S
H1578 C1592 0.931 . S
H1579 C1594 0.930 . S
C1580 H1568 0.930 . S
C1580 C1581 1.399 . S
C1580 C1585 1.399 . S
C1581 C1580 1.399 . S
C1581 C1582 1.376 . S
C1582 H1569 0.930 . S
C1582 C1581 1.376 . S
C1582 C1583 1.388 . S
C1583 H1570 0.930 . S
C1583 C1582 1.388 . S
C1583 C1584 1.390 . S
C1584 C1583 1.390 . S
C1584 C1585 1.394 . S
C1584 C1590 1.465 . S
C1585 C1580 1.399 . S
C1585 C1584 1.394 . S
C1585 C1586 1.516 . S
C1586 C1585 1.516 . S
C1586 C1587 1.502 . S
C1586 C1588 1.561 . S
C1586 C1589 1.526 . S
C1587 H1571 0.959 . S
C1587 H1572 0.959 . S
C1587 H1573 0.961 . S
C1587 C1586 1.502 . S
C1588 H1574 0.960 . S
C1588 H1575 0.961 . S
C1588 H1576 0.959 . S
C1588 C1586 1.561 . S
C1589 C1586 1.526 . S
C1589 C1590 1.396 . S
C1589 C1594 1.390 . S
C1590 C1584 1.465 . S
C1590 C1589 1.396 . S
C1590 C1591 1.399 . S
C1591 H1577 0.929 . S
C1591 C1590 1.399 . S
C1591 C1592 1.385 . S
C1592 H1578 0.931 . S
C1592 C1591 1.385 . S
C1592 C1593 1.389 . S
C1593 C1592 1.389 . S
C1593 C1594 1.387 . S
C1594 H1579 0.930 . S
C1594 C1589 1.390 . S
C1594 C1593 1.387 . S
H1595 C1607 0.930 . S
H1596 C1609 0.930 . S
H1597 C1610 0.930 . S
H1598 C1614 0.959 . S
H1599 C1614 0.959 . S
H1600 C1614 0.961 . S
H1601 C1615 0.960 . S
H1602 C1615 0.961 . S
H1603 C1615 0.959 . S
H1604 C1618 0.929 . S
H1605 C1619 0.931 . S
H1606 C1621 0.930 . S
C1607 H1595 0.930 . S
C1607 C1608 1.399 . S
C1607 C1612 1.399 . S
C1608 C1607 1.399 . S
C1608 C1609 1.376 . S
C1609 H1596 0.930 . S
C1609 C1608 1.376 . S
C1609 C1610 1.388 . S
C1610 H1597 0.930 . S
C1610 C1609 1.388 . S
C1610 C1611 1.390 . S
C1611 C1610 1.390 . S
C1611 C1612 1.394 . S
C1611 C1617 1.465 . S
C1612 C1607 1.399 . S
C1612 C1611 1.394 . S
C1612 C1613 1.516 . S
C1613 C1612 1.516 . S
C1613 C1614 1.502 . S
C1613 C1615 1.561 . S
C1613 C1616 1.526 . S
C1614 H1598 0.959 . S
C1614 H1599 0.959 . S
C1614 H1600 0.961 . S
C1614 C1613 1.502 . S
C1615 H1601 0.960 . S
C1615 H1602 0.961 . S
C1615 H1603 0.959 . S
C1615 C1613 1.561 . S
C1616 C1613 1.526 . S
C1616 C1617 1.396 . S
C1616 C1621 1.390 . S
C1617 C1611 1.465 . S
C1617 C1616 1.396 . S
C1617 C1618 1.399 . S
C1618 H1604 0.929 . S
C1618 C1617 1.399 . S
C1618 C1619 1.385 . S
C1619 H1605 0.931 . S
C1619 C1618 1.385 . S
C1619 C1620 1.389 . S
C1620 C1619 1.389 . S
C1620 C1621 1.387 . S
C1621 H1606 0.930 . S
C1621 C1616 1.390 . S
C1621 C1620 1.387 . S
H1622 C1634 0.930 . S
H1623 C1636 0.930 . S
H1624 C1637 0.930 . S
H1625 C1641 0.959 . S
H1626 C1641 0.959 . S
H1627 C1641 0.961 . S
H1628 C1642 0.960 . S
H1629 C1642 0.961 . S
H1630 C1642 0.959 . S
H1631 C1645 0.929 . S
H1632 C1646 0.931 . S
H1633 C1648 0.930 . S
C1634 H1622 0.930 . S
C1634 C1635 1.399 . S
C1634 C1639 1.399 . S
C1635 C1634 1.399 . S
C1635 C1636 1.376 . S
C1636 H1623 0.930 . S
C1636 C1635 1.376 . S
C1636 C1637 1.388 . S
C1637 H1624 0.930 . S
C1637 C1636 1.388 . S
C1637 C1638 1.390 . S
C1638 C1637 1.390 . S
C1638 C1639 1.394 . S
C1638 C1644 1.465 . S
C1639 C1634 1.399 . S
C1639 C1638 1.394 . S
C1639 C1640 1.516 . S
C1640 C1639 1.516 . S
C1640 C1641 1.502 . S
C1640 C1642 1.561 . S
C1640 C1643 1.526 . S
C1641 H1625 0.959 . S
C1641 H1626 0.959 . S
C1641 H1627 0.961 . S
C1641 C1640 1.502 . S
C1642 H1628 0.960 . S
C1642 H1629 0.961 . S
C1642 H1630 0.959 . S
C1642 C1640 1.561 . S
C1643 C1640 1.526 . S
C1643 C1644 1.396 . S
C1643 C1648 1.390 . S
C1644 C1638 1.465 . S
C1644 C1643 1.396 . S
C1644 C1645 1.399 . S
C1645 H1631 0.929 . S
C1645 C1644 1.399 . S
C1645 C1646 1.385 . S
C1646 H1632 0.931 . S
C1646 C1645 1.385 . S
C1646 C1647 1.389 . S
C1647 C1646 1.389 . S
C1647 C1648 1.387 . S
C1648 H1633 0.930 . S
C1648 C1643 1.390 . S
C1648 C1647 1.387 . S
H1649 C1661 0.930 . S
H1650 C1663 0.930 . S
H1651 C1664 0.930 . S
H1652 C1668 0.959 . S
H1653 C1668 0.959 . S
H1654 C1668 0.961 . S
H1655 C1669 0.960 . S
H1656 C1669 0.961 . S
H1657 C1669 0.959 . S
H1658 C1672 0.929 . S
H1659 C1673 0.931 . S
H1660 C1675 0.930 . S
C1661 H1649 0.930 . S
C1661 C1662 1.399 . S
C1661 C1666 1.399 . S
C1662 C1661 1.399 . S
C1662 C1663 1.376 . S
C1663 H1650 0.930 . S
C1663 C1662 1.376 . S
C1663 C1664 1.388 . S
C1664 H1651 0.930 . S
C1664 C1663 1.388 . S
C1664 C1665 1.390 . S
C1665 C1664 1.390 . S
C1665 C1666 1.394 . S
C1665 C1671 1.465 . S
C1666 C1661 1.399 . S
C1666 C1665 1.394 . S
C1666 C1667 1.516 . S
C1667 C1666 1.516 . S
C1667 C1668 1.502 . S
C1667 C1669 1.561 . S
C1667 C1670 1.526 . S
C1668 H1652 0.959 . S
C1668 H1653 0.959 . S
C1668 H1654 0.961 . S
C1668 C1667 1.502 . S
C1669 H1655 0.960 . S
C1669 H1656 0.961 . S
C1669 H1657 0.959 . S
C1669 C1667 1.561 . S
C1670 C1667 1.526 . S
C1670 C1671 1.396 . S
C1670 C1675 1.390 . S
C1671 C1665 1.465 . S
C1671 C1670 1.396 . S
C1671 C1672 1.399 . S
C1672 H1658 0.929 . S
C1672 C1671 1.399 . S
C1672 C1673 1.385 . S
C1673 H1659 0.931 . S
C1673 C1672 1.385 . S
C1673 C1674 1.389 . S
C1674 C1673 1.389 . S
C1674 C1675 1.387 . S
C1675 H1660 0.930 . S
C1675 C1670 1.390 . S
C1675 C1674 1.387 . S
H1676 C1688 0.930 . S
H1677 C1690 0.930 . S
H1678 C1691 0.930 . S
H1679 C1695 0.959 . S
H1680 C1695 0.959 . S
H1681 C1695 0.961 . S
H1682 C1696 0.960 . S
H1683 C1696 0.961 . S
H1684 C1696 0.959 . S
H1685 C1699 0.929 . S
H1686 C1700 0.931 . S
H1687 C1702 0.930 . S
C1688 H1676 0.930 . S
C1688 C1689 1.399 . S
C1688 C1693 1.399 . S
C1689 C1688 1.399 . S
C1689 C1690 1.376 . S
C1690 H1677 0.930 . S
C1690 C1689 1.376 . S
C1690 C1691 1.388 . S
C1691 H1678 0.930 . S
C1691 C1690 1.388 . S
C1691 C1692 1.390 . S
C1692 C1691 1.390 . S
C1692 C1693 1.394 . S
C1692 C1698 1.465 . S
C1693 C1688 1.399 . S
C1693 C1692 1.394 . S
C1693 C1694 1.516 . S
C1694 C1693 1.516 . S
C1694 C1695 1.502 . S
C1694 C1696 1.561 . S
C1694 C1697 1.526 . S
C1695 H1679 0.959 . S
C1695 H1680 0.959 . S
C1695 H1681 0.961 . S
C1695 C1694 1.502 . S
C1696 H1682 0.960 . S
C1696 H1683 0.961 . S
C1696 H1684 0.959 . S
C1696 C1694 1.561 . S
C1697 C1694 1.526 . S
C1697 C1698 1.396 . S
C1697 C1702 1.390 . S
C1698 C1692 1.465 . S
C1698 C1697 1.396 . S
C1698 C1699 1.399 . S
C1699 H1685 0.929 . S
C1699 C1698 1.399 . S
C1699 C1700 1.385 . S
C1700 H1686 0.931 . S
C1700 C1699 1.385 . S
C1700 C1701 1.389 . S
C1701 C1700 1.389 . S
C1701 C1702 1.387 . S
C1702 H1687 0.930 . S
C1702 C1697 1.390 . S
C1702 C1701 1.387 . S
H1703 C1715 0.930 . S
H1704 C1717 0.930 . S
H1705 C1718 0.930 . S
H1706 C1722 0.959 . S
H1707 C1722 0.959 . S
H1708 C1722 0.961 . S
H1709 C1723 0.960 . S
H1710 C1723 0.961 . S
H1711 C1723 0.959 . S
H1712 C1726 0.929 . S
H1713 C1727 0.931 . S
H1714 C1729 0.930 . S
C1715 H1703 0.930 . S
C1715 C1716 1.399 . S
C1715 C1720 1.399 . S
C1716 C1715 1.399 . S
C1716 C1717 1.376 . S
C1717 H1704 0.930 . S
C1717 C1716 1.376 . S
C1717 C1718 1.388 . S
C1718 H1705 0.930 . S
C1718 C1717 1.388 . S
C1718 C1719 1.390 . S
C1719 C1718 1.390 . S
C1719 C1720 1.394 . S
C1719 C1725 1.465 . S
C1720 C1715 1.399 . S
C1720 C1719 1.394 . S
C1720 C1721 1.516 . S
C1721 C1720 1.516 . S
C1721 C1722 1.502 . S
C1721 C1723 1.561 . S
C1721 C1724 1.526 . S
C1722 H1706 0.959 . S
C1722 H1707 0.959 . S
C1722 H1708 0.961 . S
C1722 C1721 1.502 . S
C1723 H1709 0.960 . S
C1723 H1710 0.961 . S
C1723 H1711 0.959 . S
C1723 C1721 1.561 . S
C1724 C1721 1.526 . S
C1724 C1725 1.396 . S
C1724 C1729 1.390 . S
C1725 C1719 1.465 . S
C1725 C1724 1.396 . S
C1725 C1726 1.399 . S
C1726 H1712 0.929 . S
C1726 C1725 1.399 . S
C1726 C1727 1.385 . S
C1727 H1713 0.931 . S
C1727 C1726 1.385 . S
C1727 C1728 1.389 . S
C1728 C1727 1.389 . S
C1728 C1729 1.387 . S
C1729 H1714 0.930 . S
C1729 C1724 1.390 . S
C1729 C1728 1.387 . S
H1730 C1742 0.930 . S
H1731 C1744 0.930 . S
H1732 C1745 0.930 . S
H1733 C1749 0.959 . S
H1734 C1749 0.959 . S
H1735 C1749 0.961 . S
H1736 C1750 0.960 . S
H1737 C1750 0.961 . S
H1738 C1750 0.959 . S
H1739 C1753 0.929 . S
H1740 C1754 0.931 . S
H1741 C1756 0.930 . S
C1742 H1730 0.930 . S
C1742 C1743 1.399 . S
C1742 C1747 1.399 . S
C1743 C1742 1.399 . S
C1743 C1744 1.376 . S
C1744 H1731 0.930 . S
C1744 C1743 1.376 . S
C1744 C1745 1.388 . S
C1745 H1732 0.930 . S
C1745 C1744 1.388 . S
C1745 C1746 1.390 . S
C1746 C1745 1.390 . S
C1746 C1747 1.394 . S
C1746 C1752 1.465 . S
C1747 C1742 1.399 . S
C1747 C1746 1.394 . S
C1747 C1748 1.516 . S
C1748 C1747 1.516 . S
C1748 C1749 1.502 . S
C1748 C1750 1.561 . S
C1748 C1751 1.526 . S
C1749 H1733 0.959 . S
C1749 H1734 0.959 . S
C1749 H1735 0.961 . S
C1749 C1748 1.502 . S
C1750 H1736 0.960 . S
C1750 H1737 0.961 . S
C1750 H1738 0.959 . S
C1750 C1748 1.561 . S
C1751 C1748 1.526 . S
C1751 C1752 1.396 . S
C1751 C1756 1.390 . S
C1752 C1746 1.465 . S
C1752 C1751 1.396 . S
C1752 C1753 1.399 . S
C1753 H1739 0.929 . S
C1753 C1752 1.399 . S
C1753 C1754 1.385 . S
C1754 H1740 0.931 . S
C1754 C1753 1.385 . S
C1754 C1755 1.389 . S
C1755 C1754 1.389 . S
C1755 C1756 1.387 . S
C1756 H1741 0.930 . S
C1756 C1751 1.390 . S
C1756 C1755 1.387 . S
H1757 C1769 0.930 . S
H1758 C1771 0.930 . S
H1759 C1772 0.930 . S
H1760 C1776 0.959 . S
H1761 C1776 0.959 . S
H1762 C1776 0.961 . S
H1763 C1777 0.960 . S
H1764 C1777 0.961 . S
H1765 C1777 0.959 . S
H1766 C1780 0.929 . S
H1767 C1781 0.931 . S
H1768 C1783 0.930 . S
C1769 H1757 0.930 . S
C1769 C1770 1.399 . S
C1769 C1774 1.399 . S
C1770 C1769 1.399 . S
C1770 C1771 1.376 . S
C1771 H1758 0.930 . S
C1771 C1770 1.376 . S
C1771 C1772 1.388 . S
C1772 H1759 0.930 . S
C1772 C1771 1.388 . S
C1772 C1773 1.390 . S
C1773 C1772 1.390 . S
C1773 C1774 1.394 . S
C1773 C1779 1.465 . S
C1774 C1769 1.399 . S
C1774 C1773 1.394 . S
C1774 C1775 1.516 . S
C1775 C1774 1.516 . S
C1775 C1776 1.502 . S
C1775 C1777 1.561 . S
C1775 C1778 1.526 . S
C1776 H1760 0.959 . S
C1776 H1761 0.959 . S
C1776 H1762 0.961 . S
C1776 C1775 1.502 . S
C1777 H1763 0.960 . S
C1777 H1764 0.961 . S
C1777 H1765 0.959 . S
C1777 C1775 1.561 . S
C1778 C1775 1.526 . S
C1778 C1779 1.396 . S
C1778 C1783 1.390 . S
C1779 C1773 1.465 . S
C1779 C1778 1.396 . S
C1779 C1780 1.399 . S
C1780 H1766 0.929 . S
C1780 C1779 1.399 . S
C1780 C1781 1.385 . S
C1781 H1767 0.931 . S
C1781 C1780 1.385 . S
C1781 C1782 1.389 . S
C1782 C1781 1.389 . S
C1782 C1783 1.387 . S
C1783 H1768 0.930 . S
C1783 C1778 1.390 . S
C1783 C1782 1.387 . S
H1784 C1796 0.930 . S
H1785 C1798 0.930 . S
H1786 C1799 0.930 . S
H1787 C1803 0.959 . S
H1788 C1803 0.959 . S
H1789 C1803 0.961 . S
H1790 C1804 0.960 . S
H1791 C1804 0.961 . S
H1792 C1804 0.959 . S
H1793 C1807 0.929 . S
H1794 C1808 0.931 . S
H1795 C1810 0.930 . S
C1796 H1784 0.930 . S
C1796 C1797 1.399 . S
C1796 C1801 1.399 . S
C1797 C1796 1.399 . S
C1797 C1798 1.376 . S
C1798 H1785 0.930 . S
C1798 C1797 1.376 . S
C1798 C1799 1.388 . S
C1799 H1786 0.930 . S
C1799 C1798 1.388 . S
C1799 C1800 1.390 . S
C1800 C1799 1.390 . S
C1800 C1801 1.394 . S
C1800 C1806 1.465 . S
C1801 C1796 1.399 . S
C1801 C1800 1.394 . S
C1801 C1802 1.516 . S
C1802 C1801 1.516 . S
C1802 C1803 1.502 . S
C1802 C1804 1.561 . S
C1802 C1805 1.526 . S
C1803 H1787 0.959 . S
C1803 H1788 0.959 . S
C1803 H1789 0.961 . S
C1803 C1802 1.502 . S
C1804 H1790 0.960 . S
C1804 H1791 0.961 . S
C1804 H1792 0.959 . S
C1804 C1802 1.561 . S
C1805 C1802 1.526 . S
C1805 C1806 1.396 . S
C1805 C1810 1.390 . S
C1806 C1800 1.465 . S
C1806 C1805 1.396 . S
C1806 C1807 1.399 . S
C1807 H1793 0.929 . S
C1807 C1806 1.399 . S
C1807 C1808 1.385 . S
C1808 H1794 0.931 . S
C1808 C1807 1.385 . S
C1808 C1809 1.389 . S
C1809 C1808 1.389 . S
C1809 C1810 1.387 . S
C1810 H1795 0.930 . S
C1810 C1805 1.390 . S
C1810 C1809 1.387 . S
H1811 C1823 0.930 . S
H1812 C1825 0.930 . S
H1813 C1826 0.930 . S
H1814 C1830 0.959 . S
H1815 C1830 0.959 . S
H1816 C1830 0.961 . S
H1817 C1831 0.960 . S
H1818 C1831 0.961 . S
H1819 C1831 0.959 . S
H1820 C1834 0.929 . S
H1821 C1835 0.931 . S
H1822 C1837 0.930 . S
C1823 H1811 0.930 . S
C1823 C1824 1.399 . S
C1823 C1828 1.399 . S
C1824 C1823 1.399 . S
C1824 C1825 1.376 . S
C1825 H1812 0.930 . S
C1825 C1824 1.376 . S
C1825 C1826 1.388 . S
C1826 H1813 0.930 . S
C1826 C1825 1.388 . S
C1826 C1827 1.390 . S
C1827 C1826 1.390 . S
C1827 C1828 1.394 . S
C1827 C1833 1.465 . S
C1828 C1823 1.399 . S
C1828 C1827 1.394 . S
C1828 C1829 1.516 . S
C1829 C1828 1.516 . S
C1829 C1830 1.502 . S
C1829 C1831 1.561 . S
C1829 C1832 1.526 . S
C1830 H1814 0.959 . S
C1830 H1815 0.959 . S
C1830 H1816 0.961 . S
C1830 C1829 1.502 . S
C1831 H1817 0.960 . S
C1831 H1818 0.961 . S
C1831 H1819 0.959 . S
C1831 C1829 1.561 . S
C1832 C1829 1.526 . S
C1832 C1833 1.396 . S
C1832 C1837 1.390 . S
C1833 C1827 1.465 . S
C1833 C1832 1.396 . S
C1833 C1834 1.399 . S
C1834 H1820 0.929 . S
C1834 C1833 1.399 . S
C1834 C1835 1.385 . S
C1835 H1821 0.931 . S
C1835 C1834 1.385 . S
C1835 C1836 1.389 . S
C1836 C1835 1.389 . S
C1836 C1837 1.387 . S
C1837 H1822 0.930 . S
C1837 C1832 1.390 . S
C1837 C1836 1.387 . S
H1838 C1850 0.930 . S
H1839 C1852 0.930 . S
H1840 C1853 0.930 . S
H1841 C1857 0.959 . S
H1842 C1857 0.959 . S
H1843 C1857 0.961 . S
H1844 C1858 0.960 . S
H1845 C1858 0.961 . S
H1846 C1858 0.959 . S
H1847 C1861 0.929 . S
H1848 C1862 0.931 . S
H1849 C1864 0.930 . S
C1850 H1838 0.930 . S
C1850 C1851 1.399 . S
C1850 C1855 1.399 . S
C1851 C1850 1.399 . S
C1851 C1852 1.376 . S
C1852 H1839 0.930 . S
C1852 C1851 1.376 . S
C1852 C1853 1.388 . S
C1853 H1840 0.930 . S
C1853 C1852 1.388 . S
C1853 C1854 1.390 . S
C1854 C1853 1.390 . S
C1854 C1855 1.394 . S
C1854 C1860 1.465 . S
C1855 C1850 1.399 . S
C1855 C1854 1.394 . S
C1855 C1856 1.516 . S
C1856 C1855 1.516 . S
C1856 C1857 1.502 . S
C1856 C1858 1.561 . S
C1856 C1859 1.526 . S
C1857 H1841 0.959 . S
C1857 H1842 0.959 . S
C1857 H1843 0.961 . S
C1857 C1856 1.502 . S
C1858 H1844 0.960 . S
C1858 H1845 0.961 . S
C1858 H1846 0.959 . S
C1858 C1856 1.561 . S
C1859 C1856 1.526 . S
C1859 C1860 1.396 . S
C1859 C1864 1.390 . S
C1860 C1854 1.465 . S
C1860 C1859 1.396 . S
C1860 C1861 1.399 . S
C1861 H1847 0.929 . S
C1861 C1860 1.399 . S
C1861 C1862 1.385 . S
C1862 H1848 0.931 . S
C1862 C1861 1.385 . S
C1862 C1863 1.389 . S
C1863 C1862 1.389 . S
C1863 C1864 1.387 . S
C1864 H1849 0.930 . S
C1864 C1859 1.390 . S
C1864 C1863 1.387 . S
H1865 C1877 0.930 . S
H1866 C1879 0.930 . S
H1867 C1880 0.930 . S
H1868 C1884 0.959 . S
H1869 C1884 0.959 . S
H1870 C1884 0.961 . S
H1871 C1885 0.960 . S
H1872 C1885 0.961 . S
H1873 C1885 0.959 . S
H1874 C1888 0.929 . S
H1875 C1889 0.931 . S
H1876 C1891 0.930 . S
C1877 H1865 0.930 . S
C1877 C1878 1.399 . S
C1877 C1882 1.399 . S
C1878 C1877 1.399 . S
C1878 C1879 1.376 . S
C1879 H1866 0.930 . S
C1879 C1878 1.376 . S
C1879 C1880 1.388 . S
C1880 H1867 0.930 . S
C1880 C1879 1.388 . S
C1880 C1881 1.390 . S
C1881 C1880 1.390 . S
C1881 C1882 1.394 . S
C1881 C1887 1.465 . S
C1882 C1877 1.399 . S
C1882 C1881 1.394 . S
C1882 C1883 1.516 . S
C1883 C1882 1.516 . S
C1883 C1884 1.502 . S
C1883 C1885 1.561 . S
C1883 C1886 1.526 . S
C1884 H1868 0.959 . S
C1884 H1869 0.959 . S
C1884 H1870 0.961 . S
C1884 C1883 1.502 . S
C1885 H1871 0.960 . S
C1885 H1872 0.961 . S
C1885 H1873 0.959 . S
C1885 C1883 1.561 . S
C1886 C1883 1.526 . S
C1886 C1887 1.396 . S
C1886 C1891 1.390 . S
C1887 C1881 1.465 . S
C1887 C1886 1.396 . S
C1887 C1888 1.399 . S
C1888 H1874 0.929 . S
C1888 C1887 1.399 . S
C1888 C1889 1.385 . S
C1889 H1875 0.931 . S
C1889 C1888 1.385 . S
C1889 C1890 1.389 . S
C1890 C1889 1.389 . S
C1890 C1891 1.387 . S
C1891 H1876 0.930 . S
C1891 C1886 1.390 . S
C1891 C1890 1.387 . S
C621 C282 1.309 . S
C609 N2 1.276 . S
C648 C325 2.593 . S
C636 C7 2.655 . S
C675 C371 1.751 . S
C663 N12 1.555 . S
C690 C16 1.821 . S
C702 C414 1.903 . S
C729 C454 2.730 . S
C717 C30 2.738 1_565 S
C756 C482 1.459 . S
C744 N35 1.474 . S
C771 C39 2.064 . S
C783 C525 2.003 . S
C810 C571 1.184 . S
C798 N25 1.193 1_565 S
C837 C286 1.239 . S
C825 N58 1.147 . S
C852 N81 1.964 . S
C864 C335 1.917 . S
C891 C365 1.383 . S
C879 N104 1.452 . S
C906 N127 1.180 . S
C918 C402 1.212 . S
C945 C442 0.878 . S
C933 N48 0.903 . S
C972 C486 1.548 . S
C960 N71 1.481 1_556 S
C987 N94 1.347 . S
C999 C535 1.318 . S
C1026 C565 1.913 . S
C1014 N117 1.924 . S
C1041 C85 2.535 . S
C1053 C294 2.452 . S
C1068 C122 2.449 . S
C1080 C446 2.422 . S
C1095 C53 2.071 . S
C1107 C494 2.039 . S
C1134 C531 1.405 . S
C1122 C76 1.424 1_655 S
C1161 C575 1.879 . S
C1149 C99 1.846 . S
C1188 C375 2.013 . S
C1176 C131 1.961 . S
C1215 C406 1.732 . S
C1203 C62 1.733 1_565 S
C1230 C108 1.161 . S
C1242 C331 1.073 . S
C1269 C562 1.378 . S
C1257 N140 1.346 . S
C1284 C145 2.652 . S
C1296 C445 2.601 . S
C1323 C491 1.570 . S
C1311 N150 1.520 . S
C1338 C154 1.896 . S
C1350 C534 1.870 . S
C1377 C334 2.720 . S
C1365 C168 2.715 . S
C1392 N173 1.365 . S
C1404 C362 1.333 . S
C1431 C405 2.037 . S
C1419 C177 2.057 . S
C1458 C291 1.231 . S
C1446 N163 1.222 . S
C1485 C566 1.672 . S
C1473 C200 1.678 . S
C1512 C455 2.224 . S
C1500 N219 2.236 . S
C1527 N242 1.694 . S
C1539 C485 1.638 . S
C1566 C522 1.476 . S
C1554 C269 1.494 . S
C1593 C322 1.209 . S
C1581 C191 1.215 . S
C1608 N209 1.728 . S
C1620 C366 1.807 . S
C1635 N232 1.639 . S
C1647 C415 1.590 . S
C1662 C260 2.495 . S
C1674 C285 2.413 . S
C1689 C223 2.255 . S
C1701 C574 2.142 . S
C1716 N255 1.969 . S
C1728 C326 2.003 . S
C1743 N186 1.597 . S
C1755 C374 1.586 . S
C1782 C411 1.157 . S
C1770 C214 1.119 . S
C1809 C295 1.528 . S
C1797 C237 1.561 . S
C1836 C495 1.601 . S
C1824 N265 1.474 . S
C1863 C526 1.310 . S
C1851 N196 1.332 . S
C1890 C451 0.900 . S
C1878 C246 0.845 . S
