# Generated by pormake.
# Topology rtl, (3,6)-cn, num edge types: 1
# Building blocks:
#     Node 0, Type 0, BuildingBlock: OLANEW_clean_sbu_2, # of connection points: 3
#     Node 1, Type 0, BuildingBlock: OLANEW_clean_sbu_2, # of connection points: 3
#     Node 2, Type 0, BuildingBlock: OLANEW_clean_sbu_2, # of connection points: 3
#     Node 3, Type 0, BuildingBlock: OLANEW_clean_sbu_2, # of connection points: 3
#     Node 4, Type 1, BuildingBlock: CIFDUS_clean_sbu_1, # of connection points: 6
#     Node 5, Type 1, BuildingBlock: CIFDUS_clean_sbu_1, # of connection points: 6
#     Edge 6, Type (0, 1), BuildingBlock: FUNLAD_clean_linker_1, # of connection points: 2
#     Edge 7, Type (0, 1), BuildingBlock: FUNLAD_clean_linker_1, # of connection points: 2
#     Edge 8, Type (0, 1), BuildingBlock: FUNLAD_clean_linker_1, # of connection points: 2
#     Edge 9, Type (0, 1), BuildingBlock: FUNLAD_clean_linker_1, # of connection points: 2
#     Edge 10, Type (0, 1), BuildingBlock: FUNLAD_clean_linker_1, # of connection points: 2
#     Edge 11, Type (0, 1), BuildingBlock: FUNLAD_clean_linker_1, # of connection points: 2
#     Edge 12, Type (0, 1), BuildingBlock: FUNLAD_clean_linker_1, # of connection points: 2
#     Edge 13, Type (0, 1), BuildingBlock: FUNLAD_clean_linker_1, # of connection points: 2
#     Edge 14, Type (0, 1), BuildingBlock: FUNLAD_clean_linker_1, # of connection points: 2
#     Edge 15, Type (0, 1), BuildingBlock: FUNLAD_clean_linker_1, # of connection points: 2
#     Edge 16, Type (0, 1), BuildingBlock: FUNLAD_clean_linker_1, # of connection points: 2
#     Edge 17, Type (0, 1), BuildingBlock: FUNLAD_clean_linker_1, # of connection points: 2
# Relax obj value: 0.016
# Max RMSD: 0.120
# Mean RMSD: 0.076
data_MOF--net-rtl--node1-OLANEW_clean_sbu_2--node2-CIFDUS_clean_sbu_1--edge1-FUNLAD_clean_linker_1
_symmetry_space_group_name_H-M    P1
_symmetry_Int_Tables_number       1
_symmetry_cell_setting            triclinic
loop_
_symmetry_equiv_pos_as_xyz
'x, y, z'
_cell_length_a     38.667225
_cell_length_b     39.19196
_cell_length_c     24.790939
_cell_angle_alpha  87.28031
_cell_angle_beta   100.50443
_cell_angle_gamma 90.155175
loop_
_atom_site_label
_atom_site_type_symbol
_atom_site_fract_x
_atom_site_fract_y
_atom_site_fract_z
_atom_type_partial_charge
O0 O 0.22523 0.84452 0.01889 0.0
Cd1 Cd 0.26266 0.82791 0.1076 0.0
O2 O 0.18136 0.86511 0.05359 0.0
Cd3 Cd 0.20701 0.86259 0.14033 0.0
O4 O 0.21372 0.87856 0.2255 0.0
C5 C 0.19633 0.90484 0.23305 0.0
O6 O 0.1768 0.92077 0.19036 0.0
C7 C 0.19451 0.85744 0.01223 0.0
C8 C 0.3087 0.77418 0.09868 0.0
O9 O 0.27921 0.76823 0.11385 0.0
O10 O 0.31645 0.80524 0.08787 0.0
O11 O 0.69919 0.71712 0.69062 0.0
Cd12 Cd 0.7121 0.75229 0.61208 0.0
O13 O 0.6859 0.67079 0.64382 0.0
Cd14 Cd 0.68635 0.69138 0.56009 0.0
O15 O 0.66157 0.68521 0.47385 0.0
C16 C 0.63427 0.66655 0.46793 0.0
O17 O 0.62345 0.65388 0.51189 0.0
C18 C 0.69044 0.68581 0.68898 0.0
C19 C 0.7731 0.79226 0.63052 0.0
O20 O 0.74407 0.80332 0.64136 0.0
O21 O 0.77361 0.76218 0.61259 0.0
O22 O 0.80839 0.21453 0.10589 0.0
Cd23 Cd 0.78183 0.23286 0.01078 0.0
O24 O 0.86208 0.21253 0.08804 0.0
Cd25 Cd 0.84707 0.22247 0.99936 0.0
O26 O 0.85488 0.21015 0.91728 0.0
C27 C 0.84003 0.18437 0.89404 0.0
O28 O 0.81775 0.1665 0.91794 0.0
C29 C 0.84118 0.20933 0.12205 0.0
C30 C 0.72785 0.28152 1.00095 0.0
O31 O 0.722 0.24971 0.00935 0.0
O32 O 0.75932 0.29068 0.99793 0.0
O33 O 0.30463 0.33886 0.56795 0.0
Cd34 Cd 0.27065 0.31897 0.48067 0.0
O35 O 0.29755 0.39204 0.53427 0.0
Cd36 Cd 0.27535 0.38194 0.44896 0.0
O37 O 0.28112 0.39263 0.36359 0.0
C38 C 0.30499 0.37628 0.34649 0.0
O39 O 0.32261 0.35225 0.37871 0.0
C40 C 0.30886 0.37081 0.57392 0.0
C41 C 0.22341 0.26507 0.48694 0.0
O42 O 0.25358 0.25956 0.47444 0.0
O43 O 0.21598 0.29551 0.49784 0.0
O44 O 0.98894 0.05549 0.49581 0.0
Mn45 Mn 0.00884 0.0202 0.56056 0.0
O46 O 0.95373 0.02673 0.43128 0.0
Mn47 Mn 0.96916 0.98378 0.4598 0.0
O48 O 0.02896 0.98528 0.62615 0.0
O49 O 0.04461 0.05534 0.58937 0.0
Mn50 Mn 0.0468 0.05864 0.6605 0.0
O51 O 0.97257 0.03933 0.60499 0.0
O52 O 0.06152 0.01606 0.69124 0.0
O53 O 0.0449 1.00087 0.51544 0.0
O54 O 0.01309 0.97093 0.44834 0.0
O55 O 0.07878 0.08951 0.64042 0.0
O56 O 0.00243 0.07244 0.66908 0.0
C57 C 0.94896 0.96186 0.52873 0.0
C58 C 0.96661 0.05455 0.45058 0.0
C59 C 0.05026 0.98758 0.67233 0.0
C60 C 0.06857 0.07849 0.59168 0.0
C61 C 0.97374 0.06027 0.64362 0.0
C62 C 0.04233 0.98152 0.47432 0.0
O63 O 0.97282 0.98519 0.53158 0.0
O64 O 0.93802 0.95191 0.47949 0.0
O65 O 0.51409 0.55376 0.06699 0.0
Mn66 Mn 0.49411 0.51965 0.00633 0.0
O67 O 0.53643 0.52175 0.14317 0.0
Mn68 Mn 0.52144 0.47982 0.11628 0.0
O69 O 0.47381 0.48555 0.94566 0.0
O70 O 0.46308 0.55686 0.96719 0.0
Mn71 Mn 0.46259 0.55941 0.89624 0.0
O72 O 0.5345 0.53449 0.96375 0.0
O73 O 0.44562 0.51723 0.87257 0.0
O74 O 0.45291 0.50542 0.04734 0.0
O75 O 0.47509 0.46912 0.11786 0.0
O76 O 0.43279 0.59364 0.91118 0.0
O77 O 0.50902 0.56845 0.89132 0.0
C78 C 0.54834 0.45768 0.0577 0.0
C79 C 0.53033 0.55064 0.11714 0.0
C80 C 0.45428 0.48841 0.89765 0.0
C81 C 0.44152 0.58214 0.9616 0.0
C82 C 0.53615 0.55481 0.92185 0.0
C83 C 0.44917 0.48435 0.08716 0.0
O84 O 0.52548 0.48214 0.04639 0.0
O85 O 0.55357 0.44657 0.10859 0.0
H86 H 0.17765 0.24133 0.51459 0.0
C87 C 0.19783 0.23732 0.49018 0.0
H88 H 0.21811 0.20426 0.43888 0.0
H89 H 0.1599 0.07154 0.5478 0.0
H90 H 0.22144 0.05709 0.55014 0.0
H91 H 0.26135 0.09883 0.51625 0.0
H92 H 0.24024 0.15497 0.47974 0.0
C93 C 0.19812 0.20813 0.46362 0.0
C94 C 0.17292 0.17988 0.47079 0.0
C95 C 0.18587 0.14697 0.49096 0.0
C96 C 0.16305 0.12294 0.51106 0.0
C97 C 0.17653 0.09065 0.53268 0.0
C98 C 0.21161 0.08207 0.53402 0.0
C99 C 0.23406 0.10556 0.51484 0.0
C100 C 0.22157 0.13776 0.49391 0.0
H101 H 0.07396 0.08377 0.5034 0.0
C102 C 0.08382 0.0921 0.5445 0.0
H103 H 0.11997 0.12254 0.59528 0.0
H104 H 0.13706 0.23455 0.41463 0.0
H105 H 0.07441 0.24629 0.40521 0.0
H106 H 0.03569 0.20583 0.44483 0.0
H107 H 0.05927 0.15303 0.4931 0.0
C108 C 0.10987 0.11519 0.55364 0.0
C109 C 0.12766 0.13183 0.51116 0.0
C110 C 0.11355 0.1624 0.48328 0.0
C111 C 0.13612 0.18626 0.46216 0.0
C112 C 0.12125 0.2163 0.43339 0.0
C113 C 0.08535 0.22316 0.42732 0.0
C114 C 0.06353 0.20034 0.44956 0.0
C115 C 0.07736 0.17026 0.47735 0.0
H116 H 0.35355 0.75254 0.06809 0.0
C117 C 0.33254 0.74624 0.09056 0.0
H118 H 0.30703 0.70709 0.12923 0.0
H119 H 0.34637 0.5954 0.97376 0.0
H120 H 0.28249 0.59333 0.95732 0.0
H121 H 0.2483 0.63339 1.00111 0.0
H122 H 0.27757 0.67553 0.06161 0.0
C123 C 0.3282 0.71359 0.10726 0.0
C124 C 0.34887 0.6854 0.08943 0.0
C125 C 0.33115 0.66057 0.05485 0.0
C126 C 0.35077 0.63782 0.02886 0.0
C127 C 0.33256 0.61362 0.99374 0.0
C128 C 0.29598 0.61206 0.98417 0.0
C129 C 0.27674 0.63458 0.00889 0.0
C130 C 0.29394 0.65867 0.04367 0.0
H131 H 0.43337 0.58494 0.04797 0.0
C132 C 0.42732 0.5969 0.00689 0.0
H133 H 0.39998 0.63585 0.9548 0.0
H134 H 0.39087 0.72273 0.16552 0.0
H135 H 0.45487 0.72263 0.18514 0.0
H136 H 0.48878 0.68515 0.13647 0.0
H137 H 0.45903 0.64708 0.0687 0.0
C138 C 0.40644 0.62473 0.99644 0.0
C139 C 0.38791 0.64005 0.03706 0.0
C140 C 0.40576 0.66221 0.07622 0.0
C141 C 0.38618 0.68462 0.10304 0.0
C142 C 0.40456 0.70608 0.14273 0.0
C143 C 0.44121 0.70611 0.15455 0.0
C144 C 0.46032 0.68495 0.12721 0.0
C145 C 0.44294 0.66323 0.08837 0.0
H146 H 0.82602 0.80526 0.61521 0.0
C147 C 0.80449 0.81426 0.63366 0.0
H148 H 0.78433 0.85505 0.67116 0.0
H149 H 0.95356 0.88634 0.64659 0.0
H150 H 0.96936 0.83816 0.71227 0.0
H151 H 0.9235 0.80512 0.74868 0.0
H152 H 0.86156 0.81967 0.71918 0.0
C153 C 0.80605 0.84572 0.65356 0.0
C154 C 0.83431 0.87012 0.64361 0.0
C155 C 0.87037 0.86208 0.66292 0.0
C156 C 0.89691 0.88156 0.64289 0.0
C157 C 0.93257 0.87222 0.6608 0.0
C158 C 0.94191 0.84482 0.69856 0.0
C159 C 0.91607 0.8262 0.71903 0.0
C160 C 0.88066 0.83462 0.70155 0.0
H161 H 0.93632 0.96184 0.61311 0.0
C162 C 0.93306 0.94832 0.57529 0.0
H163 H 0.90916 0.90764 0.52977 0.0
H164 H 0.76813 0.89679 0.60611 0.0
H165 H 0.75348 0.94763 0.54708 0.0
H166 H 0.79988 0.98196 0.51461 0.0
H167 H 0.86137 0.96543 0.54114 0.0
C168 C 0.91192 0.92088 0.56786 0.0
C169 C 0.88742 0.90937 0.60467 0.0
C170 C 0.85182 0.92006 0.59108 0.0
C171 C 0.82515 0.9004 0.61035 0.0
C172 C 0.78961 0.91082 0.59342 0.0
C173 C 0.78078 0.94 0.55938 0.0
C174 C 0.80689 0.95931 0.54104 0.0
C175 C 0.84202 0.9495 0.55639 0.0
H176 H 0.67527 0.29834 0.01129 0.0
C177 C 0.69901 0.30666 0.99694 0.0
H178 H 0.72491 0.34749 0.96296 0.0
H179 H 0.55323 0.38683 0.95401 0.0
H180 H 0.53993 0.34139 0.88989 0.0
H181 H 0.58761 0.30732 0.86449 0.0
H182 H 0.64883 0.31804 0.90371 0.0
C183 C 0.70121 0.33904 0.97722 0.0
C184 C 0.67313 0.36468 0.98011 0.0
C185 C 0.63767 0.3591 0.95481 0.0
C186 C 0.6102 0.37936 0.96819 0.0
C187 C 0.57495 0.37221 0.94479 0.0
C188 C 0.56704 0.34636 0.90786 0.0
C189 C 0.59389 0.32714 0.89361 0.0
C190 C 0.62886 0.33335 0.91667 0.0
H191 H 0.56812 0.45703 0.97858 0.0
C192 C 0.56923 0.44438 0.0188 0.0
H193 H 0.59238 0.40583 0.07631 0.0
H194 H 0.7387 0.38706 0.02686 0.0
H195 H 0.75161 0.43597 0.08322 0.0
H196 H 0.70381 0.47196 0.10371 0.0
H197 H 0.64261 0.45902 0.06786 0.0
C198 C 0.5913 0.41786 0.03562 0.0
C199 C 0.61834 0.40565 0.00547 0.0
C200 C 0.65392 0.4142 0.0246 0.0
C201 C 0.68143 0.39366 0.01214 0.0
C202 C 0.71669 0.40191 0.03434 0.0
C203 C 0.7245 0.42994 0.06687 0.0
C204 C 0.69759 0.45018 0.07848 0.0
C205 C 0.66265 0.44244 0.05789 0.0
H206 H 0.21292 0.90267 0.32369 0.0
C207 C 0.19542 0.91535 0.28936 0.0
H208 H 0.15447 0.95114 0.26421 0.0
H209 H 0.11731 0.91522 0.50741 0.0
H210 H 0.11847 0.85476 0.48882 0.0
H211 H 0.13934 0.83594 0.40667 0.0
H212 H 0.16004 0.87672 0.34403 0.0
C213 C 0.17131 0.93796 0.29876 0.0
C214 C 0.16564 0.94667 0.35454 0.0
C215 C 0.15279 0.92194 0.38977 0.0
C216 C 0.13878 0.93277 0.43542 0.0
C217 C 0.12702 0.908 0.47122 0.0
C218 C 0.12767 0.8734 0.46112 0.0
C219 C 0.13954 0.86282 0.41498 0.0
C220 C 0.15172 0.88666 0.3794 0.0
H221 H 0.06858 0.9546 0.41821 0.0
C222 C 0.07364 0.97065 0.45345 0.0
H223 H 0.11315 0.99667 0.50641 0.0
H224 H 0.19589 0.99932 0.3042 0.0
H225 H 0.19621 0.05919 0.32641 0.0
H226 H 0.16846 0.0778 0.40232 0.0
H227 H 0.14044 0.03663 0.45678 0.0
C228 C 0.10702 0.97956 0.47282 0.0
C229 C 0.13498 0.96806 0.44317 0.0
C230 C 0.15173 0.99221 0.41264 0.0
C231 C 0.16726 0.98147 0.3684 0.0
C232 C 0.18325 0.00625 0.3377 0.0
C233 C 0.18372 0.0406 0.35016 0.0
C234 C 0.1681 0.05109 0.39293 0.0
C235 C 0.15206 0.02728 0.42376 0.0
H236 H 0.67095 0.68381 0.76732 0.0
C237 C 0.68017 0.66818 0.73769 0.0
H238 H 0.68673 0.61868 0.71203 0.0
H239 H 0.62335 0.60667 0.95005 0.0
H240 H 0.67727 0.63396 0.99297 0.0
H241 H 0.72197 0.65223 0.93831 0.0
H242 H 0.71275 0.64394 0.84016 0.0
C243 C 0.67713 0.63395 0.7417 0.0
C244 C 0.65437 0.61701 0.77765 0.0
C245 C 0.6609 0.62065 0.83535 0.0
C246 C 0.63566 0.60903 0.86731 0.0
C247 C 0.64192 0.61458 0.9242 0.0
C248 C 0.67275 0.63014 0.94928 0.0
C249 C 0.6979 0.64049 0.91847 0.0
C250 C 0.6922 0.63583 0.86216 0.0
H251 H 0.59286 0.54505 0.92138 0.0
C252 C 0.57073 0.56204 0.90604 0.0
H253 H 0.5517 0.60499 0.8548 0.0
H254 H 0.63474 0.60226 0.66863 0.0
H255 H 0.5836 0.57063 0.6284 0.0
H256 H 0.54186 0.5479 0.68517 0.0
H257 H 0.55107 0.5571 0.78281 0.0
C258 C 0.57406 0.58827 0.87019 0.0
C259 C 0.6046 0.59281 0.84179 0.0
C260 C 0.59985 0.58605 0.7853 0.0
C261 C 0.62447 0.59842 0.75298 0.0
C262 C 0.61766 0.59284 0.69588 0.0
C263 C 0.58819 0.57477 0.67199 0.0
C264 C 0.56465 0.56204 0.70389 0.0
C265 C 0.5702 0.56763 0.75983 0.0
H266 H 0.83535 0.1845 0.20182 0.0
C267 C 0.85439 0.19509 0.17843 0.0
H268 H 0.90798 0.20116 0.17426 0.0
H269 H 0.90616 0.13384 0.42894 0.0
H270 H 0.87758 0.18639 0.44573 0.0
H271 H 0.8612 0.23083 0.37162 0.0
H272 H 0.8728 0.2228 0.27997 0.0
C273 C 0.88903 0.19091 0.1981 0.0
C274 C 0.90235 0.16643 0.2453 0.0
C275 C 0.89646 0.17202 0.29908 0.0
C276 C 0.90693 0.14681 0.34235 0.0
C277 C 0.89938 0.1524 0.39497 0.0
C278 C 0.88297 0.18243 0.40512 0.0
C279 C 0.87367 0.20743 0.36335 0.0
C280 C 0.88029 0.20244 0.31087 0.0
H281 H 0.97218 0.10955 0.42745 0.0
C282 C 0.95672 0.08674 0.41753 0.0
H283 H 0.91535 0.06444 0.36325 0.0
H284 H 0.91942 0.14795 0.14769 0.0
H285 H 0.9511 0.09718 0.1328 0.0
H286 H 0.97153 0.05497 0.20882 0.0
H287 H 0.96007 0.06326 0.30022 0.0
C288 C 0.93036 0.08746 0.37364 0.0
C289 C 0.92409 0.11652 0.33204 0.0
C290 C 0.93188 0.11193 0.27915 0.0
C291 C 0.92081 0.1367 0.23567 0.0
C292 C 0.92781 0.13053 0.18275 0.0
C293 C 0.94591 0.10134 0.17345 0.0
C294 C 0.95733 0.07754 0.2162 0.0
C295 C 0.95044 0.08259 0.26844 0.0
H296 H 0.33072 0.41226 0.6259 0.0
C297 C 0.32865 0.3846 0.62492 0.0
H298 H 0.34494 0.33785 0.66863 0.0
H299 H 0.46601 0.45276 0.76039 0.0
H300 H 0.4888 0.43953 0.6786 0.0
H301 H 0.45753 0.39961 0.6127 0.0
H302 H 0.40316 0.37277 0.62801 0.0
C303 C 0.34621 0.36555 0.66768 0.0
C304 C 0.36913 0.38288 0.71334 0.0
C305 C 0.40135 0.39755 0.7047 0.0
C306 C 0.4195 0.42037 0.74287 0.0
C307 C 0.4511 0.4354 0.73243 0.0
C308 C 0.46453 0.42792 0.68583 0.0
C309 C 0.44691 0.40544 0.64872 0.0
C310 C 0.41568 0.39035 0.65783 0.0
H311 H 0.44872 0.43219 0.88998 0.0
C312 C 0.4409 0.45695 0.86996 0.0
H313 H 0.41176 0.48336 0.80009 0.0
H314 H 0.31173 0.35433 0.7467 0.0
H315 H 0.29041 0.36535 0.83079 0.0
H316 H 0.32167 0.40516 0.89689 0.0
H317 H 0.37447 0.43417 0.87957 0.0
C318 C 0.41914 0.4587 0.82078 0.0
C319 C 0.40565 0.42824 0.78993 0.0
C320 C 0.37528 0.41102 0.80125 0.0
C321 C 0.35708 0.38817 0.76295 0.0
C322 C 0.32634 0.37198 0.77445 0.0
C323 C 0.31391 0.37805 0.82249 0.0
C324 C 0.33153 0.40047 0.85973 0.0
C325 C 0.36178 0.41696 0.84933 0.0
H326 H 0.59542 0.63736 0.41298 0.0
C327 C 0.61602 0.65637 0.4135 0.0
H328 H 0.64563 0.68614 0.36538 0.0
H329 H 0.6242 0.57487 0.18355 0.0
H330 H 0.68785 0.57716 0.20972 0.0
H331 H 0.71573 0.61382 0.28343 0.0
H332 H 0.68031 0.64847 0.33121 0.0
C333 C 0.62452 0.66782 0.36564 0.0
C334 C 0.60826 0.652 0.31335 0.0
C335 C 0.6295 0.63253 0.28512 0.0
C336 C 0.61345 0.61104 0.24311 0.0
C337 C 0.63515 0.59123 0.2163 0.0
C338 C 0.67165 0.59241 0.23076 0.0
C339 C 0.68735 0.61309 0.27221 0.0
C340 C 0.66667 0.63287 0.29934 0.0
H341 H 0.53884 0.60657 0.12462 0.0
C342 C 0.54313 0.58173 0.14624 0.0
H343 H 0.56568 0.5545 0.21974 0.0
H344 H 0.56077 0.69324 0.34815 0.0
H345 H 0.49714 0.69237 0.31962 0.0
H346 H 0.46914 0.65279 0.25042 0.0
H347 H 0.50447 0.61456 0.20818 0.0
C348 C 0.56044 0.5794 0.19864 0.0
C349 C 0.57631 0.60897 0.2295 0.0
C350 C 0.55518 0.63108 0.25363 0.0
C351 C 0.57126 0.65304 0.29502 0.0
C352 C 0.54971 0.6753 0.31791 0.0
C353 C 0.51325 0.67518 0.30166 0.0
C354 C 0.49749 0.65295 0.26258 0.0
C355 C 0.51807 0.63109 0.23869 0.0
H356 H 0.87447 0.18499 0.83249 0.0
C357 C 0.85244 0.17181 0.8457 0.0
H358 H 0.81894 0.12911 0.83563 0.0
H359 H 0.91253 0.14176 0.62991 0.0
H360 H 0.87867 0.19353 0.59895 0.0
H361 H 0.83493 0.21445 0.65092 0.0
H362 H 0.82503 0.18393 0.73446 0.0
C363 C 0.84029 0.14299 0.82172 0.0
C364 C 0.85978 0.12661 0.78302 0.0
C365 C 0.86434 0.14409 0.73341 0.0
C366 C 0.88905 0.13171 0.70291 0.0
C367 C 0.89404 0.15019 0.65452 0.0
C368 C 0.8747 0.1798 0.63625 0.0
C369 C 0.8501 0.19159 0.66554 0.0
C370 C 0.84483 0.17402 0.71356 0.0
H371 H 0.91647 0.05668 0.64434 0.0
C372 C 0.94057 0.06983 0.66094 0.0
H373 H 0.96402 0.10723 0.71452 0.0
H374 H 0.8531 0.08367 0.87136 0.0
H375 H 0.884 0.03013 0.89819 0.0
H376 H 0.9263 0.00845 0.84441 0.0
H377 H 0.9379 0.04029 0.76336 0.0
C378 C 0.94021 0.09351 0.69838 0.0
C379 C 0.90852 0.10155 0.72143 0.0
C380 C 0.90129 0.08217 0.76774 0.0
C381 C 0.87681 0.09467 0.7986 0.0
C382 C 0.87116 0.07539 0.846 0.0
C383 C 0.88878 0.04457 0.86198 0.0
C384 C 0.91261 0.03237 0.83173 0.0
C385 C 0.91903 0.05091 0.78528 0.0
H386 H 0.34005 0.37427 0.28634 0.0
C387 C 0.31706 0.38724 0.2953 0.0
H388 H 0.28146 0.4284 0.27296 0.0
H389 H 0.40133 0.51355 0.18433 0.0
H390 H 0.38506 0.55003 0.25204 0.0
H391 H 0.33992 0.53198 0.30592 0.0
H392 H 0.31087 0.47738 0.2925 0.0
C393 C 0.30369 0.41453 0.26339 0.0
C394 C 0.32301 0.42936 0.22096 0.0
C395 C 0.33866 0.46203 0.22794 0.0
C396 C 0.36464 0.47251 0.19674 0.0
C397 C 0.38129 0.50442 0.20654 0.0
C398 C 0.3722 0.52562 0.24534 0.0
C399 C 0.34679 0.51546 0.27567 0.0
C400 C 0.33029 0.48399 0.26751 0.0
H401 H 0.3917 0.49403 0.0782 0.0
C402 C 0.4136 0.47853 0.09986 0.0
H403 H 0.43017 0.4392 0.16027 0.0
H404 H 0.29054 0.37021 0.18667 0.0
H405 H 0.30422 0.3353 0.11456 0.0
H406 H 0.35014 0.35294 0.06181 0.0
H407 H 0.38246 0.40577 0.0805 0.0
C408 C 0.40858 0.45545 0.1396 0.0
C409 C 0.37452 0.45042 0.15845 0.0
C410 C 0.35577 0.41978 0.14686 0.0
C411 C 0.32972 0.40937 0.17778 0.0
C412 C 0.31122 0.37873 0.16518 0.0
C413 C 0.31865 0.35865 0.12374 0.0
C414 C 0.3445 0.3686 0.09401 0.0
C415 C 0.36295 0.39881 0.10527 0.0
H416 H 0.19099 0.87108 0.92389 0.0
C417 C 0.17557 0.86695 0.95612 0.0
H418 H 0.12557 0.86915 0.97784 0.0
H419 H 0.06593 0.99203 0.81737 0.0
H420 H 0.06355 0.01317 0.90692 0.0
H421 H 0.08906 0.97972 0.9915 0.0
H422 H 0.11666 0.92495 0.98716 0.0
C423 C 0.14076 0.87351 0.94537 0.0
C424 C 0.1234 0.89232 0.89362 0.0
C425 C 0.10747 0.92456 0.89712 0.0
C426 C 0.09366 0.94435 0.84843 0.0
C427 C 0.0776 0.97631 0.85308 0.0
C428 C 0.0759 0.98871 0.90422 0.0
C429 C 0.09017 0.96984 0.9518 0.0
C430 C 0.10586 0.93823 0.9486 0.0
H431 H 0.04399 0.93423 0.70419 0.0
C432 C 0.06094 0.95646 0.70783 0.0
H433 H 0.10619 0.97972 0.75096 0.0
H434 H 0.1447 0.82875 0.8716 0.0
H435 H 0.14688 0.80782 0.78159 0.0
H436 H 0.12686 0.844 0.69755 0.0
H437 H 0.10383 0.90111 0.70288 0.0
C438 C 0.08965 0.95715 0.74792 0.0
C439 C 0.0965 0.93245 0.79626 0.0
C440 C 0.11051 0.89948 0.79248 0.0
C441 C 0.12336 0.8791 0.8412 0.0
C442 C 0.13594 0.84576 0.83612 0.0
C443 C 0.13708 0.83336 0.7847 0.0
C444 C 0.12572 0.85371 0.73735 0.0
C445 C 0.11257 0.88643 0.74095 0.0
loop_
_geom_bond_atom_site_label_1
_geom_bond_atom_site_label_2
_geom_bond_distance
_geom_bond_site_symmetry_2
_ccdc_geom_bond_type
O0 Cd1 2.300 . S
O0 C7 1.275 . S
Cd1 O0 2.300 . S
Cd1 O9 2.381 . S
Cd1 O10 2.378 . S
O2 Cd3 2.385 . S
O2 C7 1.255 . S
Cd3 O2 2.385 . S
Cd3 O4 2.317 . S
O4 Cd3 2.317 . S
O4 C5 1.232 . S
C5 O4 1.232 . S
C5 O6 1.218 . S
O6 C5 1.218 . S
C7 O0 1.275 . S
C7 O2 1.255 . S
C8 O9 1.258 . S
C8 O10 1.256 . S
O9 Cd1 2.381 . S
O9 C8 1.258 . S
O10 Cd1 2.378 . S
O10 C8 1.256 . S
O11 Cd12 2.300 . S
O11 C18 1.275 . S
Cd12 O11 2.300 . S
Cd12 O20 2.381 . S
Cd12 O21 2.378 . S
O13 Cd14 2.385 . S
O13 C18 1.255 . S
Cd14 O13 2.385 . S
Cd14 O15 2.317 . S
O15 Cd14 2.317 . S
O15 C16 1.232 . S
C16 O15 1.232 . S
C16 O17 1.218 . S
O17 C16 1.218 . S
C18 O11 1.275 . S
C18 O13 1.255 . S
C19 O20 1.258 . S
C19 O21 1.256 . S
O20 Cd12 2.381 . S
O20 C19 1.258 . S
O21 Cd12 2.378 . S
O21 C19 1.256 . S
O22 Cd23 2.300 . S
O22 C29 1.275 . S
Cd23 O22 2.300 . S
Cd23 O31 2.381 . S
Cd23 O32 2.378 1_554 S
O24 Cd25 2.385 1_554 S
O24 C29 1.255 . S
Cd25 O24 2.385 1_556 S
Cd25 O26 2.317 . S
O26 Cd25 2.317 . S
O26 C27 1.232 . S
C27 O26 1.232 . S
C27 O28 1.218 . S
O28 C27 1.218 . S
C29 O22 1.275 . S
C29 O24 1.255 . S
C30 O31 1.258 . S
C30 O32 1.256 1_554 S
O31 Cd23 2.381 . S
O31 C30 1.258 . S
O32 Cd23 2.378 1_556 S
O32 C30 1.256 1_556 S
O33 Cd34 2.300 . S
O33 C40 1.275 . S
Cd34 O33 2.300 . S
Cd34 O42 2.381 . S
Cd34 O43 2.378 . S
O35 Cd36 2.385 . S
O35 C40 1.255 . S
Cd36 O35 2.385 . S
Cd36 O37 2.317 . S
O37 Cd36 2.317 . S
O37 C38 1.232 . S
C38 O37 1.232 . S
C38 O39 1.218 . S
O39 C38 1.218 . S
C40 O33 1.275 . S
C40 O35 1.255 . S
C41 O42 1.258 . S
C41 O43 1.256 . S
O42 Cd34 2.381 . S
O42 C41 1.258 . S
O43 Cd34 2.378 . S
O43 C41 1.256 . S
O44 Mn45 2.163 1_655 S
O44 C58 1.244 . S
Mn45 O44 2.163 1_455 S
Mn45 O48 2.160 1_545 S
Mn45 O49 2.221 . S
Mn45 O51 2.163 1_455 S
Mn45 O53 2.160 1_545 S
Mn45 O63 2.221 1_445 S
O46 Mn47 2.087 1_545 S
O46 C58 1.256 . S
Mn47 O46 2.087 1_565 S
Mn47 O54 2.089 1_655 S
Mn47 O63 2.290 . S
Mn47 O64 2.251 . S
O48 Mn45 2.160 1_565 S
O48 C59 1.239 . S
O49 Mn45 2.221 . S
O49 Mn50 2.290 . S
O49 C60 1.278 . S
Mn50 O49 2.290 . S
Mn50 O52 2.089 . S
Mn50 O55 2.251 . S
Mn50 O56 2.089 1_455 S
O51 Mn45 2.163 1_655 S
O51 C61 1.244 . S
O52 Mn50 2.089 . S
O52 C59 1.256 1_545 S
O53 Mn45 2.160 1_565 S
O53 C62 1.239 . S
O54 Mn47 2.089 1_455 S
O54 C62 1.256 . S
O55 Mn50 2.251 . S
O55 C60 1.241 . S
O56 Mn50 2.089 1_655 S
O56 C61 1.254 . S
C57 O63 1.278 . S
C57 O64 1.241 . S
C58 O44 1.244 . S
C58 O46 1.256 . S
C59 O48 1.239 . S
C59 O52 1.256 1_565 S
C60 O49 1.278 . S
C60 O55 1.241 . S
C61 O51 1.244 . S
C61 O56 1.254 . S
C62 O53 1.239 . S
C62 O54 1.256 . S
O63 Mn45 2.221 1_665 S
O63 Mn47 2.290 . S
O63 C57 1.278 . S
O64 Mn47 2.251 . S
O64 C57 1.241 . S
O65 Mn66 2.163 . S
O65 C79 1.244 . S
Mn66 O65 2.163 . S
Mn66 O69 2.160 1_554 S
Mn66 O70 2.221 1_554 S
Mn66 O72 2.163 1_554 S
Mn66 O74 2.160 . S
Mn66 O84 2.221 . S
O67 Mn68 2.087 . S
O67 C79 1.256 . S
Mn68 O67 2.087 . S
Mn68 O75 2.089 . S
Mn68 O84 2.290 . S
Mn68 O85 2.251 . S
O69 Mn66 2.160 1_556 S
O69 C80 1.239 . S
O70 Mn66 2.221 1_556 S
O70 Mn71 2.290 . S
O70 C81 1.281 . S
Mn71 O70 2.290 . S
Mn71 O73 2.089 . S
Mn71 O76 2.251 . S
Mn71 O77 2.087 . S
O72 Mn66 2.163 1_556 S
O72 C82 1.244 . S
O73 Mn71 2.089 . S
O73 C80 1.256 . S
O74 Mn66 2.160 . S
O74 C83 1.239 . S
O75 Mn68 2.089 . S
O75 C83 1.256 . S
O76 Mn71 2.251 . S
O76 C81 1.251 . S
O77 Mn71 2.087 . S
O77 C82 1.256 . S
C78 O84 1.278 . S
C78 O85 1.241 . S
C79 O65 1.244 . S
C79 O67 1.256 . S
C80 O69 1.239 . S
C80 O73 1.256 . S
C81 O70 1.281 . S
C81 O76 1.251 . S
C82 O72 1.244 . S
C82 O77 1.256 . S
C83 O74 1.239 . S
C83 O75 1.256 . S
O84 Mn66 2.221 . S
O84 Mn68 2.290 . S
O84 C78 1.278 . S
O85 Mn68 2.251 . S
O85 C78 1.241 . S
H86 C87 0.951 . S
C87 H86 0.951 . S
C87 C93 1.265 . S
H88 C93 0.950 . S
H89 C97 0.949 . S
H90 C98 0.950 . S
H91 C99 0.951 . S
H92 C100 0.951 . S
C93 C87 1.265 . S
C93 H88 0.950 . S
C93 C94 1.478 . S
C94 C93 1.478 . S
C94 C95 1.397 . S
C94 C111 1.394 . S
C95 C94 1.397 . S
C95 C96 1.438 . S
C95 C100 1.429 . S
C96 C95 1.438 . S
C96 C97 1.428 . S
C96 C109 1.394 . S
C97 H89 0.949 . S
C97 C96 1.428 . S
C97 C98 1.345 . S
C98 H90 0.950 . S
C98 C97 1.345 . S
C98 C99 1.424 . S
C99 H91 0.951 . S
C99 C98 1.424 . S
C99 C100 1.347 . S
C100 H92 0.951 . S
C100 C95 1.429 . S
C100 C99 1.347 . S
H101 C102 0.951 . S
C102 H101 0.951 . S
C102 C108 1.265 . S
H103 C108 0.950 . S
H104 C112 0.949 . S
H105 C113 0.950 . S
H106 C114 0.951 . S
H107 C115 0.951 . S
C108 C102 1.265 . S
C108 H103 0.950 . S
C108 C109 1.478 . S
C109 C96 1.394 . S
C109 C108 1.478 . S
C109 C110 1.397 . S
C110 C109 1.397 . S
C110 C111 1.438 . S
C110 C115 1.429 . S
C111 C94 1.394 . S
C111 C110 1.438 . S
C111 C112 1.428 . S
C112 H104 0.949 . S
C112 C111 1.428 . S
C112 C113 1.345 . S
C113 H105 0.950 . S
C113 C112 1.345 . S
C113 C114 1.424 . S
C114 H106 0.951 . S
C114 C113 1.424 . S
C114 C115 1.347 . S
C115 H107 0.951 . S
C115 C110 1.429 . S
C115 C114 1.347 . S
H116 C117 0.951 . S
C117 H116 0.951 . S
C117 C123 1.265 . S
H118 C123 0.950 . S
H119 C127 0.949 . S
H120 C128 0.950 . S
H121 C129 0.951 . S
H122 C130 0.951 . S
C123 C117 1.265 . S
C123 H118 0.950 . S
C123 C124 1.478 . S
C124 C123 1.478 . S
C124 C125 1.397 . S
C124 C141 1.394 . S
C125 C124 1.397 . S
C125 C126 1.438 . S
C125 C130 1.429 1_554 S
C126 C125 1.438 . S
C126 C127 1.428 1_554 S
C126 C139 1.394 . S
C127 H119 0.949 . S
C127 C126 1.428 1_556 S
C127 C128 1.345 . S
C128 H120 0.950 . S
C128 C127 1.345 . S
C128 C129 1.424 . S
C129 H121 0.951 . S
C129 C128 1.424 . S
C129 C130 1.347 . S
C130 H122 0.951 . S
C130 C125 1.429 1_556 S
C130 C129 1.347 . S
H131 C132 0.951 . S
C132 H131 0.951 . S
C132 C138 1.265 . S
H133 C138 0.950 . S
H134 C142 0.949 . S
H135 C143 0.950 . S
H136 C144 0.951 . S
H137 C145 0.951 . S
C138 C132 1.265 . S
C138 H133 0.950 . S
C138 C139 1.478 . S
C139 C126 1.394 . S
C139 C138 1.478 . S
C139 C140 1.397 . S
C140 C139 1.397 . S
C140 C141 1.438 . S
C140 C145 1.429 . S
C141 C124 1.394 . S
C141 C140 1.438 . S
C141 C142 1.428 . S
C142 H134 0.949 . S
C142 C141 1.428 . S
C142 C143 1.345 . S
C143 H135 0.950 . S
C143 C142 1.345 . S
C143 C144 1.424 . S
C144 H136 0.951 . S
C144 C143 1.424 . S
C144 C145 1.347 . S
C145 H137 0.951 . S
C145 C140 1.429 . S
C145 C144 1.347 . S
H146 C147 0.951 . S
C147 H146 0.951 . S
C147 C153 1.265 . S
H148 C153 0.950 . S
H149 C157 0.949 . S
H150 C158 0.950 . S
H151 C159 0.951 . S
H152 C160 0.951 . S
C153 C147 1.265 . S
C153 H148 0.950 . S
C153 C154 1.478 . S
C154 C153 1.478 . S
C154 C155 1.397 . S
C154 C171 1.394 . S
C155 C154 1.397 . S
C155 C156 1.438 . S
C155 C160 1.429 . S
C156 C155 1.438 . S
C156 C157 1.428 . S
C156 C169 1.394 . S
C157 H149 0.949 . S
C157 C156 1.428 . S
C157 C158 1.345 . S
C158 H150 0.950 . S
C158 C157 1.345 . S
C158 C159 1.424 . S
C159 H151 0.951 . S
C159 C158 1.424 . S
C159 C160 1.347 . S
C160 H152 0.951 . S
C160 C155 1.429 . S
C160 C159 1.347 . S
H161 C162 0.951 . S
C162 H161 0.951 . S
C162 C168 1.265 . S
H163 C168 0.950 . S
H164 C172 0.949 . S
H165 C173 0.950 . S
H166 C174 0.951 . S
H167 C175 0.951 . S
C168 C162 1.265 . S
C168 H163 0.950 . S
C168 C169 1.478 . S
C169 C156 1.394 . S
C169 C168 1.478 . S
C169 C170 1.397 . S
C170 C169 1.397 . S
C170 C171 1.438 . S
C170 C175 1.429 . S
C171 C154 1.394 . S
C171 C170 1.438 . S
C171 C172 1.428 . S
C172 H164 0.949 . S
C172 C171 1.428 . S
C172 C173 1.345 . S
C173 H165 0.950 . S
C173 C172 1.345 . S
C173 C174 1.424 . S
C174 H166 0.951 . S
C174 C173 1.424 . S
C174 C175 1.347 . S
C175 H167 0.951 . S
C175 C170 1.429 . S
C175 C174 1.347 . S
H176 C177 0.951 . S
C177 H176 0.951 . S
C177 C183 1.265 . S
H178 C183 0.950 1_556 S
H179 C187 0.949 . S
H180 C188 0.950 . S
H181 C189 0.951 . S
H182 C190 0.951 . S
C183 C177 1.265 . S
C183 H178 0.950 1_554 S
C183 C184 1.478 . S
C184 C183 1.478 . S
C184 C185 1.397 1_554 S
C184 C201 1.394 . S
C185 C184 1.397 1_556 S
C185 C186 1.438 . S
C185 C190 1.429 . S
C186 C185 1.438 . S
C186 C187 1.428 . S
C186 C199 1.394 1_556 S
C187 H179 0.949 . S
C187 C186 1.428 . S
C187 C188 1.345 . S
C188 H180 0.950 . S
C188 C187 1.345 . S
C188 C189 1.424 . S
C189 H181 0.951 . S
C189 C188 1.424 . S
C189 C190 1.347 . S
C190 H182 0.951 . S
C190 C185 1.429 . S
C190 C189 1.347 . S
H191 C192 0.951 1_556 S
C192 H191 0.951 1_554 S
C192 C198 1.265 . S
H193 C198 0.950 . S
H194 C202 0.949 . S
H195 C203 0.950 . S
H196 C204 0.951 . S
H197 C205 0.951 . S
C198 C192 1.265 . S
C198 H193 0.950 . S
C198 C199 1.478 . S
C199 C186 1.394 1_554 S
C199 C198 1.478 . S
C199 C200 1.397 . S
C200 C199 1.397 . S
C200 C201 1.438 . S
C200 C205 1.429 . S
C201 C184 1.394 . S
C201 C200 1.438 . S
C201 C202 1.428 . S
C202 H194 0.949 . S
C202 C201 1.428 . S
C202 C203 1.345 . S
C203 H195 0.950 . S
C203 C202 1.345 . S
C203 C204 1.424 . S
C204 H196 0.951 . S
C204 C203 1.424 . S
C204 C205 1.347 . S
C205 H197 0.951 . S
C205 C200 1.429 . S
C205 C204 1.347 . S
H206 C207 0.951 . S
C207 H206 0.951 . S
C207 C213 1.265 . S
H208 C213 0.950 . S
H209 C217 0.949 . S
H210 C218 0.950 . S
H211 C219 0.951 . S
H212 C220 0.951 . S
C213 C207 1.265 . S
C213 H208 0.950 . S
C213 C214 1.478 . S
C214 C213 1.478 . S
C214 C215 1.397 . S
C214 C231 1.394 . S
C215 C214 1.397 . S
C215 C216 1.438 . S
C215 C220 1.429 . S
C216 C215 1.438 . S
C216 C217 1.428 . S
C216 C229 1.394 . S
C217 H209 0.949 . S
C217 C216 1.428 . S
C217 C218 1.345 . S
C218 H210 0.950 . S
C218 C217 1.345 . S
C218 C219 1.424 . S
C219 H211 0.951 . S
C219 C218 1.424 . S
C219 C220 1.347 . S
C220 H212 0.951 . S
C220 C215 1.429 . S
C220 C219 1.347 . S
H221 C222 0.951 . S
C222 H221 0.951 . S
C222 C228 1.265 . S
H223 C228 0.950 . S
H224 C232 0.949 . S
H225 C233 0.950 . S
H226 C234 0.951 . S
H227 C235 0.951 . S
C228 C222 1.265 . S
C228 H223 0.950 . S
C228 C229 1.478 . S
C229 C216 1.394 . S
C229 C228 1.478 . S
C229 C230 1.397 . S
C230 C229 1.397 . S
C230 C231 1.438 . S
C230 C235 1.429 1_565 S
C231 C214 1.394 . S
C231 C230 1.438 . S
C231 C232 1.428 . S
C232 H224 0.949 . S
C232 C231 1.428 . S
C232 C233 1.345 1_565 S
C233 H225 0.950 . S
C233 C232 1.345 1_545 S
C233 C234 1.424 . S
C234 H226 0.951 . S
C234 C233 1.424 . S
C234 C235 1.347 . S
C235 H227 0.951 . S
C235 C230 1.429 1_545 S
C235 C234 1.347 . S
H236 C237 0.951 . S
C237 H236 0.951 . S
C237 C243 1.265 . S
H238 C243 0.950 . S
H239 C247 0.949 . S
H240 C248 0.950 . S
H241 C249 0.951 . S
H242 C250 0.951 . S
C243 C237 1.265 . S
C243 H238 0.950 . S
C243 C244 1.478 . S
C244 C243 1.478 . S
C244 C245 1.397 . S
C244 C261 1.394 . S
C245 C244 1.397 . S
C245 C246 1.438 . S
C245 C250 1.429 . S
C246 C245 1.438 . S
C246 C247 1.428 . S
C246 C259 1.394 . S
C247 H239 0.949 . S
C247 C246 1.428 . S
C247 C248 1.345 . S
C248 H240 0.950 . S
C248 C247 1.345 . S
C248 C249 1.424 . S
C249 H241 0.951 . S
C249 C248 1.424 . S
C249 C250 1.347 . S
C250 H242 0.951 . S
C250 C245 1.429 . S
C250 C249 1.347 . S
H251 C252 0.951 . S
C252 H251 0.951 . S
C252 C258 1.265 . S
H253 C258 0.950 . S
H254 C262 0.949 . S
H255 C263 0.950 . S
H256 C264 0.951 . S
H257 C265 0.951 . S
C258 C252 1.265 . S
C258 H253 0.950 . S
C258 C259 1.478 . S
C259 C246 1.394 . S
C259 C258 1.478 . S
C259 C260 1.397 . S
C260 C259 1.397 . S
C260 C261 1.438 . S
C260 C265 1.429 . S
C261 C244 1.394 . S
C261 C260 1.438 . S
C261 C262 1.428 . S
C262 H254 0.949 . S
C262 C261 1.428 . S
C262 C263 1.345 . S
C263 H255 0.950 . S
C263 C262 1.345 . S
C263 C264 1.424 . S
C264 H256 0.951 . S
C264 C263 1.424 . S
C264 C265 1.347 . S
C265 H257 0.951 . S
C265 C260 1.429 . S
C265 C264 1.347 . S
H266 C267 0.951 . S
C267 H266 0.951 . S
C267 C273 1.265 . S
H268 C273 0.950 . S
H269 C277 0.949 . S
H270 C278 0.950 . S
H271 C279 0.951 . S
H272 C280 0.951 . S
C273 C267 1.265 . S
C273 H268 0.950 . S
C273 C274 1.478 . S
C274 C273 1.478 . S
C274 C275 1.397 . S
C274 C291 1.394 . S
C275 C274 1.397 . S
C275 C276 1.438 . S
C275 C280 1.429 . S
C276 C275 1.438 . S
C276 C277 1.428 . S
C276 C289 1.394 . S
C277 H269 0.949 . S
C277 C276 1.428 . S
C277 C278 1.345 . S
C278 H270 0.950 . S
C278 C277 1.345 . S
C278 C279 1.424 . S
C279 H271 0.951 . S
C279 C278 1.424 . S
C279 C280 1.347 . S
C280 H272 0.951 . S
C280 C275 1.429 . S
C280 C279 1.347 . S
H281 C282 0.951 . S
C282 H281 0.951 . S
C282 C288 1.265 . S
H283 C288 0.950 . S
H284 C292 0.949 . S
H285 C293 0.950 . S
H286 C294 0.951 . S
H287 C295 0.951 . S
C288 C282 1.265 . S
C288 H283 0.950 . S
C288 C289 1.478 . S
C289 C276 1.394 . S
C289 C288 1.478 . S
C289 C290 1.397 . S
C290 C289 1.397 . S
C290 C291 1.438 . S
C290 C295 1.429 . S
C291 C274 1.394 . S
C291 C290 1.438 . S
C291 C292 1.428 . S
C292 H284 0.949 . S
C292 C291 1.428 . S
C292 C293 1.345 . S
C293 H285 0.950 . S
C293 C292 1.345 . S
C293 C294 1.424 . S
C294 H286 0.951 . S
C294 C293 1.424 . S
C294 C295 1.347 . S
C295 H287 0.951 . S
C295 C290 1.429 . S
C295 C294 1.347 . S
H296 C297 0.951 . S
C297 H296 0.951 . S
C297 C303 1.265 . S
H298 C303 0.950 . S
H299 C307 0.949 . S
H300 C308 0.950 . S
H301 C309 0.951 . S
H302 C310 0.951 . S
C303 C297 1.265 . S
C303 H298 0.950 . S
C303 C304 1.478 . S
C304 C303 1.478 . S
C304 C305 1.397 . S
C304 C321 1.394 . S
C305 C304 1.397 . S
C305 C306 1.438 . S
C305 C310 1.429 . S
C306 C305 1.438 . S
C306 C307 1.428 . S
C306 C319 1.394 . S
C307 H299 0.949 . S
C307 C306 1.428 . S
C307 C308 1.345 . S
C308 H300 0.950 . S
C308 C307 1.345 . S
C308 C309 1.424 . S
C309 H301 0.951 . S
C309 C308 1.424 . S
C309 C310 1.347 . S
C310 H302 0.951 . S
C310 C305 1.429 . S
C310 C309 1.347 . S
H311 C312 0.951 . S
C312 H311 0.951 . S
C312 C318 1.265 . S
H313 C318 0.950 . S
H314 C322 0.949 . S
H315 C323 0.950 . S
H316 C324 0.951 . S
H317 C325 0.951 . S
C318 C312 1.265 . S
C318 H313 0.950 . S
C318 C319 1.478 . S
C319 C306 1.394 . S
C319 C318 1.478 . S
C319 C320 1.397 . S
C320 C319 1.397 . S
C320 C321 1.438 . S
C320 C325 1.429 . S
C321 C304 1.394 . S
C321 C320 1.438 . S
C321 C322 1.428 . S
C322 H314 0.949 . S
C322 C321 1.428 . S
C322 C323 1.345 . S
C323 H315 0.950 . S
C323 C322 1.345 . S
C323 C324 1.424 . S
C324 H316 0.951 . S
C324 C323 1.424 . S
C324 C325 1.347 . S
C325 H317 0.951 . S
C325 C320 1.429 . S
C325 C324 1.347 . S
H326 C327 0.951 . S
C327 H326 0.951 . S
C327 C333 1.265 . S
H328 C333 0.950 . S
H329 C337 0.949 . S
H330 C338 0.950 . S
H331 C339 0.951 . S
H332 C340 0.951 . S
C333 C327 1.265 . S
C333 H328 0.950 . S
C333 C334 1.478 . S
C334 C333 1.478 . S
C334 C335 1.397 . S
C334 C351 1.394 . S
C335 C334 1.397 . S
C335 C336 1.438 . S
C335 C340 1.429 . S
C336 C335 1.438 . S
C336 C337 1.428 . S
C336 C349 1.394 . S
C337 H329 0.949 . S
C337 C336 1.428 . S
C337 C338 1.345 . S
C338 H330 0.950 . S
C338 C337 1.345 . S
C338 C339 1.424 . S
C339 H331 0.951 . S
C339 C338 1.424 . S
C339 C340 1.347 . S
C340 H332 0.951 . S
C340 C335 1.429 . S
C340 C339 1.347 . S
H341 C342 0.951 . S
C342 H341 0.951 . S
C342 C348 1.265 . S
H343 C348 0.950 . S
H344 C352 0.949 . S
H345 C353 0.950 . S
H346 C354 0.951 . S
H347 C355 0.951 . S
C348 C342 1.265 . S
C348 H343 0.950 . S
C348 C349 1.478 . S
C349 C336 1.394 . S
C349 C348 1.478 . S
C349 C350 1.397 . S
C350 C349 1.397 . S
C350 C351 1.438 . S
C350 C355 1.429 . S
C351 C334 1.394 . S
C351 C350 1.438 . S
C351 C352 1.428 . S
C352 H344 0.949 . S
C352 C351 1.428 . S
C352 C353 1.345 . S
C353 H345 0.950 . S
C353 C352 1.345 . S
C353 C354 1.424 . S
C354 H346 0.951 . S
C354 C353 1.424 . S
C354 C355 1.347 . S
C355 H347 0.951 . S
C355 C350 1.429 . S
C355 C354 1.347 . S
H356 C357 0.951 . S
C357 H356 0.951 . S
C357 C363 1.265 . S
H358 C363 0.950 . S
H359 C367 0.949 . S
H360 C368 0.950 . S
H361 C369 0.951 . S
H362 C370 0.951 . S
C363 C357 1.265 . S
C363 H358 0.950 . S
C363 C364 1.478 . S
C364 C363 1.478 . S
C364 C365 1.397 . S
C364 C381 1.394 . S
C365 C364 1.397 . S
C365 C366 1.438 . S
C365 C370 1.429 . S
C366 C365 1.438 . S
C366 C367 1.428 . S
C366 C379 1.394 . S
C367 H359 0.949 . S
C367 C366 1.428 . S
C367 C368 1.345 . S
C368 H360 0.950 . S
C368 C367 1.345 . S
C368 C369 1.424 . S
C369 H361 0.951 . S
C369 C368 1.424 . S
C369 C370 1.347 . S
C370 H362 0.951 . S
C370 C365 1.429 . S
C370 C369 1.347 . S
H371 C372 0.951 . S
C372 H371 0.951 . S
C372 C378 1.265 . S
H373 C378 0.950 . S
H374 C382 0.949 . S
H375 C383 0.950 . S
H376 C384 0.951 . S
H377 C385 0.951 . S
C378 C372 1.265 . S
C378 H373 0.950 . S
C378 C379 1.478 . S
C379 C366 1.394 . S
C379 C378 1.478 . S
C379 C380 1.397 . S
C380 C379 1.397 . S
C380 C381 1.438 . S
C380 C385 1.429 . S
C381 C364 1.394 . S
C381 C380 1.438 . S
C381 C382 1.428 . S
C382 H374 0.949 . S
C382 C381 1.428 . S
C382 C383 1.345 . S
C383 H375 0.950 . S
C383 C382 1.345 . S
C383 C384 1.424 . S
C384 H376 0.951 . S
C384 C383 1.424 . S
C384 C385 1.347 . S
C385 H377 0.951 . S
C385 C380 1.429 . S
C385 C384 1.347 . S
H386 C387 0.951 . S
C387 H386 0.951 . S
C387 C393 1.265 . S
H388 C393 0.950 . S
H389 C397 0.949 . S
H390 C398 0.950 . S
H391 C399 0.951 . S
H392 C400 0.951 . S
C393 C387 1.265 . S
C393 H388 0.950 . S
C393 C394 1.478 . S
C394 C393 1.478 . S
C394 C395 1.397 . S
C394 C411 1.394 . S
C395 C394 1.397 . S
C395 C396 1.438 . S
C395 C400 1.429 . S
C396 C395 1.438 . S
C396 C397 1.428 . S
C396 C409 1.394 . S
C397 H389 0.949 . S
C397 C396 1.428 . S
C397 C398 1.345 . S
C398 H390 0.950 . S
C398 C397 1.345 . S
C398 C399 1.424 . S
C399 H391 0.951 . S
C399 C398 1.424 . S
C399 C400 1.347 . S
C400 H392 0.951 . S
C400 C395 1.429 . S
C400 C399 1.347 . S
H401 C402 0.951 . S
C402 H401 0.951 . S
C402 C408 1.265 . S
H403 C408 0.950 . S
H404 C412 0.949 . S
H405 C413 0.950 . S
H406 C414 0.951 . S
H407 C415 0.951 . S
C408 C402 1.265 . S
C408 H403 0.950 . S
C408 C409 1.478 . S
C409 C396 1.394 . S
C409 C408 1.478 . S
C409 C410 1.397 . S
C410 C409 1.397 . S
C410 C411 1.438 . S
C410 C415 1.429 . S
C411 C394 1.394 . S
C411 C410 1.438 . S
C411 C412 1.428 . S
C412 H404 0.949 . S
C412 C411 1.428 . S
C412 C413 1.345 . S
C413 H405 0.950 . S
C413 C412 1.345 . S
C413 C414 1.424 . S
C414 H406 0.951 . S
C414 C413 1.424 . S
C414 C415 1.347 . S
C415 H407 0.951 . S
C415 C410 1.429 . S
C415 C414 1.347 . S
H416 C417 0.951 . S
C417 H416 0.951 . S
C417 C423 1.265 . S
H418 C423 0.950 . S
H419 C427 0.955 . S
H420 C428 0.950 . S
H421 C429 0.951 . S
H422 C430 0.951 . S
C423 C417 1.265 . S
C423 H418 0.950 . S
C423 C424 1.478 . S
C424 C423 1.478 . S
C424 C425 1.397 . S
C424 C441 1.394 . S
C425 C424 1.397 . S
C425 C426 1.438 . S
C425 C430 1.429 . S
C426 C425 1.438 . S
C426 C427 1.428 . S
C426 C439 1.394 . S
C427 H419 0.955 . S
C427 C426 1.428 . S
C427 C428 1.345 1_565 S
C428 H420 0.950 . S
C428 C427 1.345 1_545 S
C428 C429 1.424 . S
C429 H421 0.951 . S
C429 C428 1.424 . S
C429 C430 1.347 1_545 S
C430 H422 0.951 . S
C430 C425 1.429 . S
C430 C429 1.347 1_565 S
H431 C432 0.951 . S
C432 H431 0.951 . S
C432 C438 1.265 . S
H433 C438 0.950 . S
H434 C442 0.949 . S
H435 C443 0.950 . S
H436 C444 0.951 . S
H437 C445 0.951 . S
C438 C432 1.265 . S
C438 H433 0.950 . S
C438 C439 1.478 . S
C439 C426 1.394 . S
C439 C438 1.478 . S
C439 C440 1.397 . S
C440 C439 1.397 . S
C440 C441 1.438 . S
C440 C445 1.429 . S
C441 C424 1.394 . S
C441 C440 1.438 . S
C441 C442 1.428 . S
C442 H434 0.949 . S
C442 C441 1.428 . S
C442 C443 1.345 . S
C443 H435 0.950 . S
C443 C442 1.345 . S
C443 C444 1.424 . S
C444 H436 0.951 . S
C444 C443 1.424 . S
C444 C445 1.347 . S
C445 H437 0.951 . S
C445 C440 1.429 . S
C445 C444 1.347 . S
C102 C60 1.242 . S
C87 C41 1.405 . S
C117 C8 1.407 . S
C132 C81 1.297 1_554 S
C147 C19 1.618 . S
C162 C57 1.439 . S
C177 C30 1.592 . S
C192 C78 1.393 . S
C222 C62 1.468 . S
C207 C5 1.339 . S
C252 C82 1.657 . S
C237 C18 1.676 . S
C267 C29 1.573 . S
C282 C58 1.585 . S
C297 C40 1.537 . S
C312 C80 1.558 . S
C342 C79 1.400 . S
C327 C16 1.264 . S
C372 C61 1.462 . S
C357 C27 1.185 . S
C402 C83 1.377 . S
C387 C38 1.274 . S
C417 C7 1.351 1_556 S
C432 C59 1.325 . S
