# Generated by pormake.
# Topology cml, (3,6)-cn, num edge types: 1
# Building blocks:
#     Node 0, Type 0, BuildingBlock: OLANEW_clean_sbu_2, # of connection points: 3
#     Node 1, Type 0, BuildingBlock: OLANEW_clean_sbu_2, # of connection points: 3
#     Node 2, Type 0, BuildingBlock: OLANEW_clean_sbu_2, # of connection points: 3
#     Node 3, Type 0, BuildingBlock: OLANEW_clean_sbu_2, # of connection points: 3
#     Node 4, Type 0, BuildingBlock: OLANEW_clean_sbu_2, # of connection points: 3
#     Node 5, Type 0, BuildingBlock: OLANEW_clean_sbu_2, # of connection points: 3
#     Node 6, Type 0, BuildingBlock: OLANEW_clean_sbu_2, # of connection points: 3
#     Node 7, Type 0, BuildingBlock: OLANEW_clean_sbu_2, # of connection points: 3
#     Node 8, Type 1, BuildingBlock: OJICUG_clean_sbu_0, # of connection points: 6
#     Node 9, Type 1, BuildingBlock: OJICUG_clean_sbu_0, # of connection points: 6
#     Node 10, Type 1, BuildingBlock: OJICUG_clean_sbu_0, # of connection points: 6
#     Node 11, Type 1, BuildingBlock: OJICUG_clean_sbu_0, # of connection points: 6
#     Edge 12, Type (0, 1), BuildingBlock: AJUNOK_clean_linker_0, # of connection points: 2
#     Edge 13, Type (0, 1), BuildingBlock: AJUNOK_clean_linker_0, # of connection points: 2
#     Edge 14, Type (0, 1), BuildingBlock: AJUNOK_clean_linker_0, # of connection points: 2
#     Edge 15, Type (0, 1), BuildingBlock: AJUNOK_clean_linker_0, # of connection points: 2
#     Edge 16, Type (0, 1), BuildingBlock: AJUNOK_clean_linker_0, # of connection points: 2
#     Edge 17, Type (0, 1), BuildingBlock: AJUNOK_clean_linker_0, # of connection points: 2
#     Edge 18, Type (0, 1), BuildingBlock: AJUNOK_clean_linker_0, # of connection points: 2
#     Edge 19, Type (0, 1), BuildingBlock: AJUNOK_clean_linker_0, # of connection points: 2
#     Edge 20, Type (0, 1), BuildingBlock: AJUNOK_clean_linker_0, # of connection points: 2
#     Edge 21, Type (0, 1), BuildingBlock: AJUNOK_clean_linker_0, # of connection points: 2
#     Edge 22, Type (0, 1), BuildingBlock: AJUNOK_clean_linker_0, # of connection points: 2
#     Edge 23, Type (0, 1), BuildingBlock: AJUNOK_clean_linker_0, # of connection points: 2
#     Edge 24, Type (0, 1), BuildingBlock: AJUNOK_clean_linker_0, # of connection points: 2
#     Edge 25, Type (0, 1), BuildingBlock: AJUNOK_clean_linker_0, # of connection points: 2
#     Edge 26, Type (0, 1), BuildingBlock: AJUNOK_clean_linker_0, # of connection points: 2
#     Edge 27, Type (0, 1), BuildingBlock: AJUNOK_clean_linker_0, # of connection points: 2
#     Edge 28, Type (0, 1), BuildingBlock: AJUNOK_clean_linker_0, # of connection points: 2
#     Edge 29, Type (0, 1), BuildingBlock: AJUNOK_clean_linker_0, # of connection points: 2
#     Edge 30, Type (0, 1), BuildingBlock: AJUNOK_clean_linker_0, # of connection points: 2
#     Edge 31, Type (0, 1), BuildingBlock: AJUNOK_clean_linker_0, # of connection points: 2
#     Edge 32, Type (0, 1), BuildingBlock: AJUNOK_clean_linker_0, # of connection points: 2
#     Edge 33, Type (0, 1), BuildingBlock: AJUNOK_clean_linker_0, # of connection points: 2
#     Edge 34, Type (0, 1), BuildingBlock: AJUNOK_clean_linker_0, # of connection points: 2
#     Edge 35, Type (0, 1), BuildingBlock: AJUNOK_clean_linker_0, # of connection points: 2
# Relax obj value: 0.022
# Max RMSD: 0.070
# Mean RMSD: 0.060
data_MOF--net-cml--node1-OLANEW_clean_sbu_2--node2-OJICUG_clean_sbu_0--edge1-AJUNOK_clean_linker_0
_symmetry_space_group_name_H-M    P1
_symmetry_Int_Tables_number       1
_symmetry_cell_setting            triclinic
loop_
_symmetry_equiv_pos_as_xyz
'x, y, z'
_cell_length_a     32.047567
_cell_length_b     31.437388
_cell_length_c     29.797394
_cell_angle_alpha  88.182696
_cell_angle_beta   86.918185
_cell_angle_gamma 88.733553
loop_
_atom_site_label
_atom_site_type_symbol
_atom_site_fract_x
_atom_site_fract_y
_atom_site_fract_z
_atom_type_partial_charge
O0 O 0.2918 0.45818 0.91225 0.0
Cd1 Cd 0.24759 0.40426 0.95305 0.0
O2 O 0.33412 0.42276 0.95497 0.0
Cd3 Cd 0.38957 0.40742 -0.00825 0.0
O4 O 0.4196 0.3834 0.05158 0.0
C5 C 0.40121 0.39164 0.08925 0.0
O6 O 0.36663 0.41492 0.08988 0.0
C7 C 0.32827 0.4531 0.92668 0.0
C8 C 0.19122 0.35206 0.91316 0.0
O9 O 0.1785 0.38521 0.9343 0.0
O10 O 0.23072 0.34477 0.90861 0.0
O11 O 0.70049 0.65142 0.53433 0.0
Cd12 Cd 0.73849 0.6329 0.46345 0.0
O13 O 0.73931 0.60853 0.57513 0.0
Cd14 Cd 0.76952 0.581 0.51545 0.0
O15 O 0.74024 0.53829 0.47104 0.0
C16 C 0.71146 0.51711 0.49175 0.0
O17 O 0.70528 0.52166 0.53532 0.0
C18 C 0.70934 0.63557 0.57262 0.0
C19 C 0.80947 0.6797 0.4379 0.0
O20 O 0.81116 0.64889 0.46699 0.0
O21 O 0.77399 0.68926 0.42195 0.0
O22 O 0.71067 0.42576 0.92911 0.0
Cd23 Cd 0.73916 0.36412 0.97049 0.0
O24 O 0.72049 0.47167 0.98154 0.0
Cd25 Cd 0.74666 0.42501 0.02849 0.0
O26 O 0.73371 0.40064 0.09694 0.0
C27 C 0.71505 0.36571 0.10441 0.0
O28 O 0.70794 0.3421 0.07013 0.0
C29 C 0.70725 0.46347 0.94338 0.0
C30 C 0.80789 0.32235 0.92881 0.0
O31 O 0.77077 0.31599 0.91687 0.0
O32 O 0.8126 0.34906 0.95967 0.0
O33 O 0.32133 0.5533 0.45821 0.0
Cd34 Cd 0.27132 0.59885 0.50068 0.0
O35 O 0.30609 0.49976 0.50501 0.0
Cd36 Cd 0.27435 0.53987 0.55486 0.0
O37 O 0.29946 0.57104 0.61144 0.0
C38 C 0.32662 0.59943 0.60286 0.0
O39 O 0.33435 0.61207 0.56084 0.0
C40 C 0.32565 0.51414 0.46967 0.0
C41 C 0.21609 0.65021 0.45287 0.0
O42 O 0.25028 0.66495 0.46583 0.0
O43 O 0.20866 0.61077 0.46124 0.0
O44 O 0.78165 0.97237 0.89402 0.0
Cd45 Cd 0.71396 0.94372 0.92353 0.0
O46 O 0.80761 0.94214 0.95354 0.0
Cd47 Cd 0.85517 0.92244 -0.00024 0.0
O48 O 0.88938 0.89627 0.05565 0.0
C49 C 0.87615 0.9059 0.09503 0.0
O50 O 0.84348 0.93167 0.09986 0.0
C51 C 0.81236 0.96662 0.91898 0.0
C52 C 0.67977 0.86895 0.89337 0.0
O53 O 0.67492 0.90488 0.87247 0.0
O54 O 0.70299 0.86781 0.92714 0.0
O55 O 0.21987 0.13612 0.55474 0.0
Cd56 Cd 0.26096 0.11027 0.48864 0.0
O57 O 0.24433 0.08512 0.59881 0.0
Cd58 Cd 0.26961 0.0485 0.54259 0.0
O59 O 0.23895 0.0061 0.49884 0.0
C60 C 0.2048 0.02114 0.48465 0.0
O61 O 0.19263 0.05975 0.49573 0.0
C62 C 0.22197 0.11871 0.59375 0.0
C63 C 0.32843 0.16039 0.45936 0.0
O64 O 0.29315 0.16488 0.44123 0.0
O65 O 0.33151 0.1326 0.49148 0.0
O66 O 0.22383 0.93664 0.953 0.0
Cd67 Cd 0.27249 0.88932 -0.00743 0.0
O68 O 0.2344 0.98823 -0.00114 0.0
Cd69 Cd 0.26639 0.94737 0.04702 0.0
O70 O 0.24623 0.91833 0.11163 0.0
C71 C 0.22272 0.8863 0.112 0.0
O72 O 0.21599 0.86885 0.07361 0.0
C73 C 0.21735 0.975 0.96452 0.0
C74 C 0.32232 0.83381 0.9402 0.0
O75 O 0.28799 0.82145 0.95998 0.0
O76 O 0.33232 0.87274 0.94395 0.0
O77 O 0.83 0.06182 0.47187 0.0
Cd78 Cd 0.7887 0.11317 0.51649 0.0
O79 O 0.80373 0.00718 0.51063 0.0
Cd80 Cd 0.77556 0.04909 0.56125 0.0
O81 O 0.80872 0.08491 0.60931 0.0
C82 C 0.84801 0.08112 0.60166 0.0
O83 O 0.86194 0.05846 0.5675 0.0
C84 C 0.82754 0.02171 0.47846 0.0
C85 C 0.72774 0.15833 0.47064 0.0
O86 O 0.76355 0.17434 0.47578 0.0
O87 O 0.72098 0.1206 0.48652 0.0
Sc88 Sc 0.02969 0.79518 0.30479 0.0
Sc89 Sc 0.02964 0.9065 0.3162 0.0
Sc90 Sc 0.0242 0.83919 0.41256 0.0
O91 O 0.02792 0.84694 0.34446 0.0
C92 C 0.96103 0.76966 0.38136 0.0
C93 C 0.97432 0.86053 0.24768 0.0
C94 C 0.96036 0.91707 0.39614 0.0
C95 C 0.09819 0.85491 0.25598 0.0
C96 C 0.0868 0.76374 0.38519 0.0
C97 C 0.08574 0.91768 0.39972 0.0
O98 O 0.97548 0.76888 0.34076 0.0
O99 O 0.98549 0.89308 0.26759 0.0
O100 O 0.97375 0.88548 0.41939 0.0
O101 O 0.08344 0.81815 0.26508 0.0
O102 O 0.07402 0.79242 0.41199 0.0
O103 O 0.07398 0.92831 0.36096 0.0
O104 O 0.07211 0.75957 0.34678 0.0
O105 O 0.08156 0.88906 0.27119 0.0
O106 O 0.07082 0.88619 0.42255 0.0
O107 O 0.98815 0.82324 0.25676 0.0
O108 O 0.97712 0.79121 0.4112 0.0
O109 O 0.97784 0.92912 0.35869 0.0
Sc110 Sc 0.01675 0.19746 0.78202 0.0
Sc111 Sc 0.03109 0.08667 0.79447 0.0
Sc112 Sc 0.01558 0.14828 0.89053 0.0
O113 O 0.02105 0.14427 0.82246 0.0
C114 C 0.07258 0.22803 0.86 0.0
C115 C 0.09142 0.14419 0.73234 0.0
C116 C 0.08644 0.07583 0.88006 0.0
C117 C 0.96763 0.13215 0.7277 0.0
C118 C 0.9485 0.21865 0.86123 0.0
C119 C 0.96109 0.06615 0.87164 0.0
O120 O 0.06154 0.22971 0.81956 0.0
O121 O 0.08332 0.10934 0.75342 0.0
O122 O 0.06861 0.10634 0.90103 0.0
O123 O 0.97145 0.16976 0.74112 0.0
O124 O 0.96282 0.19153 0.88922 0.0
O125 O 0.97929 0.0596 0.8334 0.0
O126 O 0.96475 0.22458 0.82171 0.0
O127 O 0.9891 0.10062 0.74199 0.0
O128 O 0.97171 0.09579 0.89688 0.0
O129 O 0.06851 0.17759 0.73676 0.0
O130 O 0.05793 0.20148 0.88978 0.0
O131 O 0.07495 0.06428 0.84234 0.0
Sc132 Sc 0.53653 0.2871 0.31581 0.0
Sc133 Sc 0.53809 0.3993 0.32051 0.0
Sc134 Sc 0.52941 0.33702 0.41999 0.0
O135 O 0.53467 0.34113 0.3519 0.0
C136 C 0.46938 0.26266 0.39356 0.0
C137 C 0.48312 0.35031 0.25393 0.0
C138 C 0.46603 0.41303 0.39763 0.0
C139 C 0.60533 0.34363 0.26282 0.0
C140 C 0.5936 0.26197 0.39835 0.0
C141 C 0.59187 0.41473 0.40452 0.0
O142 O 0.48202 0.26162 0.35239 0.0
O143 O 0.49375 0.38388 0.27254 0.0
O144 O 0.47718 0.38112 0.42181 0.0
O145 O 0.59056 0.30758 0.27511 0.0
O146 O 0.58111 0.29277 0.42255 0.0
O147 O 0.58374 0.42208 0.3638 0.0
O148 O 0.57832 0.25423 0.36094 0.0
O149 O 0.58926 0.37883 0.27589 0.0
O150 O 0.57307 0.38661 0.42895 0.0
O151 O 0.4963 0.31331 0.26547 0.0
O152 O 0.48538 0.28637 0.42145 0.0
O153 O 0.48643 0.42512 0.36177 0.0
Sc154 Sc 0.51124 0.70176 0.77288 0.0
Sc155 Sc 0.52352 0.59004 0.78282 0.0
Sc156 Sc 0.5165 0.65048 0.88007 0.0
O157 O 0.51707 0.64754 0.81197 0.0
C158 C 0.57223 0.73067 0.84751 0.0
C159 C 0.58031 0.64862 0.71587 0.0
C160 C 0.58689 0.57799 0.86089 0.0
C161 C 0.45396 0.63715 0.72526 0.0
C162 C 0.44759 0.72163 0.85613 0.0
C163 C 0.46152 0.56813 0.86746 0.0
O164 O 0.55662 0.73417 0.80915 0.0
O165 O 0.56957 0.61296 0.73348 0.0
O166 O 0.56865 0.60579 0.88567 0.0
O167 O 0.46471 0.67483 0.73289 0.0
O168 O 0.46453 0.69507 0.88294 0.0
O169 O 0.47883 0.56004 0.82927 0.0
O170 O 0.46088 0.7277 0.81551 0.0
O171 O 0.47269 0.60415 0.74044 0.0
O172 O 0.47081 0.60015 0.88989 0.0
O173 O 0.56158 0.68345 0.72558 0.0
O174 O 0.56126 0.70186 0.87668 0.0
O175 O 0.57438 0.56954 0.82257 0.0
C176 C 0.12367 0.31381 0.92369 0.0
C177 C 0.16101 0.3213 0.8978 0.0
C178 C 0.09566 0.28284 0.91185 0.0
C179 C 0.10338 0.25915 0.87296 0.0
H180 H 0.11646 0.33134 0.95395 0.0
H181 H 0.06742 0.2779 0.93286 0.0
S182 S 0.19602 0.26694 0.79328 0.0
N183 N 0.20425 0.30216 0.83169 0.0
N184 N 0.15068 0.24532 0.80838 0.0
C185 C 0.14021 0.26673 0.8464 0.0
C186 C 0.16929 0.29741 0.85912 0.0
C187 C 0.88106 0.7051 0.45128 0.0
C188 C 0.84767 0.70291 0.42269 0.0
C189 C 0.91766 0.72669 0.43763 0.0
C190 C 0.9227 0.74588 0.39444 0.0
H191 H 0.8787 0.69051 0.48472 0.0
H192 H 0.94235 0.72806 0.46097 0.0
S193 S 0.84487 0.74889 0.30656 0.0
N194 N 0.82201 0.72194 0.3492 0.0
N195 N 0.89121 0.76152 0.3232 0.0
C196 C 0.88978 0.74352 0.36533 0.0
C197 C 0.85215 0.72236 0.37956 0.0
C198 C 0.87685 0.28564 0.9372 0.0
C199 C 0.84401 0.29758 0.9097 0.0
C200 C 0.91025 0.25985 0.92117 0.0
C201 C 0.91268 0.24594 0.87667 0.0
H202 H 0.87624 0.29538 0.97178 0.0
H203 H 0.93459 0.25102 0.94378 0.0
S204 S 0.83568 0.27012 0.79042 0.0
N205 N 0.81623 0.29424 0.8356 0.0
N206 N 0.87995 0.24697 0.80492 0.0
C207 C 0.88062 0.25856 0.84841 0.0
C208 C 0.84601 0.284 0.8651 0.0
C209 C 0.18323 0.72221 0.44203 0.0
C210 C 0.1847 0.67874 0.43207 0.0
C211 C 0.15157 0.7494 0.42648 0.0
C212 C 0.12068 0.73442 0.39949 0.0
H213 H 0.20595 0.73514 0.46325 0.0
H214 H 0.15128 0.78246 0.43575 0.0
S215 S 0.11178 0.62385 0.36169 0.0
N216 N 0.1532 0.62219 0.39244 0.0
N217 N 0.09427 0.67365 0.36216 0.0
C218 C 0.12253 0.69136 0.38799 0.0
C219 C 0.15434 0.66342 0.4046 0.0
C220 C 0.63388 0.83307 0.84141 0.0
C221 C 0.65649 0.83099 0.88061 0.0
C222 C 0.60788 0.80005 0.83066 0.0
C223 C 0.60289 0.76334 0.85875 0.0
H224 H 0.63549 0.86093 0.81909 0.0
H225 H 0.59066 0.80411 0.80047 0.0
S226 S 0.65769 0.74044 0.96384 0.0
N227 N 0.67416 0.78787 0.94648 0.0
N228 N 0.62512 0.72585 0.92637 0.0
C229 C 0.62647 0.76008 0.89735 0.0
C230 C 0.65329 0.79378 0.90819 0.0
C231 C 0.36695 0.20357 0.399 0.0
C232 C 0.36473 0.18612 0.44317 0.0
C233 C 0.40138 0.22743 0.38268 0.0
C234 C 0.43437 0.23549 0.41029 0.0
H235 H 0.34209 0.19842 0.37666 0.0
H236 H 0.40173 0.24039 0.34854 0.0
S237 S 0.44378 0.19693 0.52845 0.0
N238 N 0.39884 0.17823 0.51401 0.0
N239 N 0.46298 0.22365 0.48373 0.0
C240 C 0.4325 0.21827 0.45451 0.0
C241 C 0.39786 0.19343 0.47085 0.0
C242 C 0.38043 0.81927 0.88286 0.0
C243 C 0.3509 0.80372 0.9157 0.0
C244 C 0.41038 0.79207 0.86208 0.0
C245 C 0.41251 0.74851 0.87415 0.0
H246 H 0.38085 0.85287 0.8736 0.0
H247 H 0.43313 0.80562 0.83779 0.0
S248 S 0.34109 0.69124 0.95614 0.0
N249 N 0.3243 0.74127 0.95735 0.0
N250 N 0.38131 0.69052 0.91911 0.0
C251 C 0.38252 0.73229 0.90595 0.0
C252 C 0.35149 0.75978 0.92646 0.0
C253 C 0.69363 0.22834 0.45275 0.0
C254 C 0.69437 0.1838 0.44947 0.0
C255 C 0.66088 0.25327 0.43601 0.0
C256 C 0.62821 0.23472 0.41433 0.0
H257 H 0.71792 0.24402 0.46954 0.0
H258 H 0.66121 0.2874 0.43998 0.0
S259 S 0.61644 0.11975 0.39523 0.0
N260 N 0.66001 0.12218 0.42217 0.0
N261 N 0.59902 0.16936 0.3894 0.0
C262 C 0.62912 0.19038 0.40963 0.0
C263 C 0.66203 0.16483 0.42761 0.0
C264 C 0.35599 0.52665 0.91177 0.0
C265 C 0.3626 0.48219 0.91233 0.0
C266 C 0.38867 0.55457 0.89919 0.0
C267 C 0.42867 0.53887 0.88556 0.0
H268 H 0.32549 0.53992 0.92154 0.0
H269 H 0.38228 0.58856 0.89882 0.0
S270 S 0.46175 0.42529 0.8802 0.0
N271 N 0.41215 0.42397 0.89827 0.0
N272 N 0.47293 0.47619 0.87321 0.0
C273 C 0.43549 0.49455 0.88575 0.0
C274 C 0.40263 0.46627 0.89954 0.0
C275 C 0.6553 0.46348 0.49296 0.0
C276 C 0.68337 0.48982 0.46777 0.0
C277 C 0.62639 0.43914 0.4721 0.0
C278 C 0.62398 0.44019 0.42505 0.0
H279 H 0.65527 0.4618 0.52933 0.0
H280 H 0.60529 0.41985 0.49334 0.0
S281 S 0.69171 0.50265 0.34334 0.0
N282 N 0.70795 0.51456 0.39298 0.0
N283 N 0.65347 0.46879 0.35358 0.0
C284 C 0.65239 0.46584 0.39924 0.0
C285 C 0.68212 0.49056 0.4206 0.0
C286 C 0.66386 0.53055 0.94243 0.0
C287 C 0.68246 0.49627 0.91889 0.0
C288 C 0.63437 0.55786 0.92279 0.0
C289 C 0.62238 0.55226 0.87862 0.0
H290 H 0.67046 0.53518 0.97719 0.0
H291 H 0.6198 0.58257 0.94316 0.0
S292 S 0.66734 0.47157 0.79999 0.0
N293 N 0.69055 0.46121 0.84734 0.0
N294 N 0.63567 0.51268 0.81 0.0
C295 C 0.64308 0.51991 0.85357 0.0
C296 C 0.67292 0.49191 0.87379 0.0
C297 C 0.38878 0.50501 0.41706 0.0
C298 C 0.35748 0.48662 0.44601 0.0
C299 C 0.42318 0.48078 0.4004 0.0
C300 C 0.42773 0.43729 0.41224 0.0
H301 H 0.38773 0.53879 0.40869 0.0
H302 H 0.44718 0.49666 0.37951 0.0
S303 S 0.35122 0.37227 0.48087 0.0
N304 N 0.33094 0.42098 0.48132 0.0
N305 N 0.39554 0.37571 0.45025 0.0
C306 C 0.39545 0.41796 0.43893 0.0
C307 C 0.36035 0.44252 0.45568 0.0
C308 C 0.86771 0.99412 0.86381 0.0
C309 C 0.85197 0.98942 0.90854 0.0
C310 C 0.90346 0.01805 0.85263 0.0
C311 C 0.92455 0.03918 0.8856 0.0
H312 H 0.85215 0.9793 0.83714 0.0
H313 H 0.91398 0.02083 0.81752 0.0
S314 S 0.89471 0.03815 0.00776 0.0
N315 N 0.85938 0.0086 -0.01396 0.0
N316 N 0.92649 0.05362 0.96518 0.0
C317 C 0.90899 0.03473 0.93057 0.0
C318 C 0.8728 0.00985 0.94199 0.0
C319 C 0.17502 0.95055 0.46915 0.0
C320 C 0.17692 0.99465 0.45992 0.0
C321 C 0.14542 0.92572 0.44958 0.0
C322 C 0.11739 0.94402 0.41936 0.0
H323 H 0.19557 0.93535 0.49281 0.0
H324 H 0.14449 0.892 0.45818 0.0
S325 S 0.11133 0.05783 0.38234 0.0
N326 N 0.14932 0.05536 0.41766 0.0
N327 N 0.09434 0.00879 0.38019 0.0
C328 C 0.11993 0.9879 0.40885 0.0
C329 C 0.14951 0.01319 0.42933 0.0
C330 C 0.16485 0.98693 0.90571 0.0
C331 C 0.187 0.00299 0.9408 0.0
C332 C 0.13298 0.01096 0.88589 0.0
C333 C 0.12166 0.05204 0.90045 0.0
H334 H 0.17142 0.95508 0.89401 0.0
H335 H 0.11642 -0.00332 0.85962 0.0
S336 S 0.17242 0.11066 -0.01174 0.0
N337 N 0.19713 0.06406 -0.01285 0.0
N338 N 0.13719 0.10895 0.95001 0.0
C339 C 0.14443 0.06912 0.93447 0.0
C340 C 0.1771 0.04474 0.95452 0.0
C341 C 0.88551 0.0098 0.42021 0.0
C342 C 0.85683 0.99273 0.45311 0.0
C343 C 0.91803 0.98477 0.40096 0.0
C344 C 0.92347 0.9417 0.41403 0.0
H345 H 0.88384 0.04321 0.41029 0.0
H346 H 0.94002 -0.00017 0.37689 0.0
S347 S 0.85375 0.87982 0.49401 0.0
N348 N 0.83365 0.92861 0.49441 0.0
N349 N 0.89492 0.88179 0.45832 0.0
C350 C 0.89376 0.92355 0.44501 0.0
C351 C 0.86039 0.94895 0.46442 0.0
C352 C 0.40937 0.39985 0.17131 0.0
C353 C 0.41942 0.37742 0.13193 0.0
C354 C 0.42871 0.38953 0.21138 0.0
C355 C 0.45809 0.35577 0.21387 0.0
H356 H 0.38761 0.42671 0.17083 0.0
H357 H 0.42136 0.40882 0.24037 0.0
S358 S 0.4928 0.28485 0.1213 0.0
N359 N 0.459 0.31839 0.09856 0.0
N360 N 0.49482 0.29852 0.17418 0.0
C361 C 0.46689 0.3317 0.17539 0.0
C362 C 0.44775 0.3427 0.13431 0.0
C363 C 0.64789 0.67377 0.61013 0.0
C364 C 0.68093 0.64354 0.61279 0.0
C365 C 0.61633 0.67669 0.64454 0.0
C366 C 0.61627 0.64902 0.68253 0.0
H367 H 0.64549 0.69436 0.5805 0.0
H368 H 0.59079 0.69937 0.64033 0.0
S369 S 0.69808 0.56815 0.70912 0.0
N370 N 0.71357 0.58841 0.65937 0.0
N371 N 0.65399 0.5936 0.72328 0.0
C372 C 0.65019 0.62035 0.68689 0.0
C373 C 0.68261 0.61774 0.65228 0.0
C374 C 0.66875 0.32027 0.15542 0.0
C375 C 0.69414 0.35622 0.14923 0.0
C376 C 0.64216 0.3148 0.19398 0.0
C377 C 0.63971 0.34523 0.22766 0.0
H378 H 0.66772 0.29718 0.12931 0.0
H379 H 0.62148 0.28793 0.19595 0.0
S380 S 0.70509 0.44072 0.23206 0.0
N381 N 0.71938 0.41952 0.18348 0.0
N382 N 0.66892 0.40936 0.25551 0.0
C383 C 0.66726 0.37947 0.2237 0.0
C384 C 0.69465 0.38489 0.18465 0.0
C385 C 0.38155 0.64682 0.62897 0.0
C386 C 0.35439 0.61256 0.63796 0.0
C387 C 0.41259 0.65602 0.65845 0.0
C388 C 0.418 0.63078 0.69751 0.0
H389 H 0.37969 0.66595 0.59823 0.0
H390 H 0.43369 0.68176 0.64953 0.0
S391 S 0.35236 0.54081 0.73959 0.0
N392 N 0.33269 0.55595 0.6914 0.0
N393 N 0.3915 0.57289 0.74613 0.0
C394 C 0.38985 0.59789 0.70814 0.0
C395 C 0.35786 0.5889 0.67858 0.0
C396 C 0.8939 0.91329 0.1748 0.0
C397 C 0.89867 0.89077 0.13476 0.0
C398 C 0.91739 0.90215 0.21178 0.0
C399 C 0.94601 0.86757 0.2105 0.0
H400 H 0.87296 0.94075 0.17716 0.0
H401 H 0.91368 0.92135 0.24136 0.0
S402 S 0.96759 0.79597 0.11506 0.0
N403 N 0.93241 0.83067 0.09691 0.0
N404 N 0.97619 0.80938 0.16684 0.0
C405 C 0.94965 0.84346 0.17151 0.0
C406 C 0.92615 0.85521 0.1335 0.0
C407 C 0.19284 0.10881 0.67268 0.0
C408 C 0.19355 0.1327 0.63186 0.0
C409 C 0.16081 0.11442 0.70583 0.0
C410 C 0.12826 0.14449 0.69996 0.0
H411 H 0.21596 0.08382 0.67831 0.0
H412 H 0.16081 0.09383 0.73569 0.0
S413 S 0.11883 0.21996 0.60255 0.0
N414 N 0.16131 0.19121 0.58976 0.0
N415 N 0.10118 0.20194 0.6525 0.0
C416 C 0.13035 0.17114 0.66108 0.0
C417 C 0.16296 0.16521 0.62697 0.0
C418 C 0.16979 0.8395 0.15231 0.0
C419 C 0.19677 0.87424 0.15305 0.0
C420 C 0.13949 0.83183 0.18716 0.0
C421 C 0.13475 0.8589 0.22381 0.0
H422 H 0.17081 0.81904 0.12369 0.0
H423 H 0.11815 0.80595 0.18408 0.0
S424 S 0.20149 0.95006 0.24579 0.0
N425 N 0.2199 0.93277 0.19672 0.0
N426 N 0.16256 0.91855 0.26171 0.0
C427 C 0.16326 0.89192 0.22659 0.0
C428 C 0.19443 0.89949 0.1914 0.0
C429 C 0.9193 0.08137 0.63059 0.0
C430 C 0.87808 0.09787 0.6324 0.0
C431 C 0.94817 0.09371 0.66086 0.0
C432 C 0.93735 0.12366 0.69369 0.0
H433 H 0.92922 0.05768 0.60642 0.0
H434 H 0.9792 0.07923 0.65886 0.0
S435 S 0.83447 0.17846 0.71132 0.0
N436 N 0.82832 0.14704 0.66886 0.0
N437 N 0.88328 0.17088 0.72549 0.0
C438 C 0.89684 0.14176 0.695 0.0
C439 C 0.86701 0.12863 0.66448 0.0
loop_
_geom_bond_atom_site_label_1
_geom_bond_atom_site_label_2
_geom_bond_distance
_geom_bond_site_symmetry_2
_ccdc_geom_bond_type
O0 Cd1 2.300 . S
O0 C7 1.275 . S
Cd1 O0 2.300 . S
Cd1 O9 2.381 . S
Cd1 O10 2.378 . S
O2 Cd3 2.385 1_556 S
O2 C7 1.255 . S
Cd3 O2 2.385 1_554 S
Cd3 O4 2.317 . S
O4 Cd3 2.317 . S
O4 C5 1.232 . S
C5 O4 1.232 . S
C5 O6 1.218 . S
O6 C5 1.218 . S
C7 O0 1.275 . S
C7 O2 1.255 . S
C8 O9 1.258 . S
C8 O10 1.256 . S
O9 Cd1 2.381 . S
O9 C8 1.258 . S
O10 Cd1 2.378 . S
O10 C8 1.256 . S
O11 Cd12 2.300 . S
O11 C18 1.275 . S
Cd12 O11 2.300 . S
Cd12 O20 2.381 . S
Cd12 O21 2.378 . S
O13 Cd14 2.385 . S
O13 C18 1.255 . S
Cd14 O13 2.385 . S
Cd14 O15 2.317 . S
O15 Cd14 2.317 . S
O15 C16 1.232 . S
C16 O15 1.232 . S
C16 O17 1.218 . S
O17 C16 1.218 . S
C18 O11 1.275 . S
C18 O13 1.255 . S
C19 O20 1.258 . S
C19 O21 1.256 . S
O20 Cd12 2.381 . S
O20 C19 1.258 . S
O21 Cd12 2.378 . S
O21 C19 1.256 . S
O22 Cd23 2.300 . S
O22 C29 1.275 . S
Cd23 O22 2.300 . S
Cd23 O31 2.381 . S
Cd23 O32 2.378 . S
O24 Cd25 2.385 . S
O24 C29 1.255 1_554 S
Cd25 O24 2.385 . S
Cd25 O26 2.317 . S
O26 Cd25 2.317 . S
O26 C27 1.232 . S
C27 O26 1.232 . S
C27 O28 1.218 . S
O28 C27 1.218 . S
C29 O22 1.275 . S
C29 O24 1.255 1_556 S
C30 O31 1.258 . S
C30 O32 1.256 . S
O31 Cd23 2.381 . S
O31 C30 1.258 . S
O32 Cd23 2.378 . S
O32 C30 1.256 . S
O33 Cd34 2.300 . S
O33 C40 1.275 . S
Cd34 O33 2.300 . S
Cd34 O42 2.381 . S
Cd34 O43 2.378 . S
O35 Cd36 2.385 . S
O35 C40 1.255 . S
Cd36 O35 2.385 . S
Cd36 O37 2.317 . S
O37 Cd36 2.317 . S
O37 C38 1.232 . S
C38 O37 1.232 . S
C38 O39 1.218 . S
O39 C38 1.218 . S
C40 O33 1.275 . S
C40 O35 1.255 . S
C41 O42 1.258 . S
C41 O43 1.256 . S
O42 Cd34 2.381 . S
O42 C41 1.258 . S
O43 Cd34 2.378 . S
O43 C41 1.256 . S
O44 Cd45 2.300 . S
O44 C51 1.275 . S
Cd45 O44 2.300 . S
Cd45 O53 2.381 . S
Cd45 O54 2.378 . S
O46 Cd47 2.385 1_556 S
O46 C51 1.255 . S
Cd47 O46 2.385 1_554 S
Cd47 O48 2.317 . S
O48 Cd47 2.317 . S
O48 C49 1.232 . S
C49 O48 1.232 . S
C49 O50 1.218 . S
O50 C49 1.218 . S
C51 O44 1.275 . S
C51 O46 1.255 . S
C52 O53 1.258 . S
C52 O54 1.256 . S
O53 Cd45 2.381 . S
O53 C52 1.258 . S
O54 Cd45 2.378 . S
O54 C52 1.256 . S
O55 Cd56 2.300 . S
O55 C62 1.275 . S
Cd56 O55 2.300 . S
Cd56 O64 2.381 . S
Cd56 O65 2.378 . S
O57 Cd58 2.385 . S
O57 C62 1.255 . S
Cd58 O57 2.385 . S
Cd58 O59 2.317 . S
O59 Cd58 2.317 . S
O59 C60 1.232 . S
C60 O59 1.232 . S
C60 O61 1.218 1_545 S
O61 C60 1.218 1_565 S
C62 O55 1.275 . S
C62 O57 1.255 . S
C63 O64 1.258 . S
C63 O65 1.256 . S
O64 Cd56 2.381 . S
O64 C63 1.258 . S
O65 Cd56 2.378 . S
O65 C63 1.256 . S
O66 Cd67 2.300 . S
O66 C73 1.275 . S
Cd67 O66 2.300 . S
Cd67 O75 2.381 . S
Cd67 O76 2.378 . S
O68 Cd69 2.385 . S
O68 C73 1.255 1_554 S
Cd69 O68 2.385 . S
Cd69 O70 2.317 . S
O70 Cd69 2.317 . S
O70 C71 1.232 . S
C71 O70 1.232 . S
C71 O72 1.218 . S
O72 C71 1.218 . S
C73 O66 1.275 . S
C73 O68 1.255 1_556 S
C74 O75 1.258 . S
C74 O76 1.256 . S
O75 Cd67 2.381 . S
O75 C74 1.258 . S
O76 Cd67 2.378 . S
O76 C74 1.256 . S
O77 Cd78 2.300 . S
O77 C84 1.275 . S
Cd78 O77 2.300 . S
Cd78 O86 2.381 . S
Cd78 O87 2.378 . S
O79 Cd80 2.385 . S
O79 C84 1.255 . S
Cd80 O79 2.385 . S
Cd80 O81 2.317 . S
O81 Cd80 2.317 . S
O81 C82 1.232 . S
C82 O81 1.232 . S
C82 O83 1.218 . S
O83 C82 1.218 . S
C84 O77 1.275 . S
C84 O79 1.255 . S
C85 O86 1.258 . S
C85 O87 1.256 . S
O86 Cd78 2.381 . S
O86 C85 1.258 . S
O87 Cd78 2.378 . S
O87 C85 1.256 . S
Sc88 O91 2.025 . S
Sc88 O98 2.105 1_455 S
Sc88 O101 2.105 . S
Sc88 O104 2.105 . S
Sc88 O107 2.105 1_455 S
Sc89 O91 2.025 . S
Sc89 O99 2.105 1_455 S
Sc89 O103 2.105 . S
Sc89 O105 2.105 . S
Sc89 O109 2.105 1_455 S
Sc90 O91 2.025 . S
Sc90 O100 2.105 1_455 S
Sc90 O102 2.105 . S
Sc90 O106 2.105 . S
Sc90 O108 2.105 1_455 S
O91 Sc88 2.025 . S
O91 Sc89 2.025 . S
O91 Sc90 2.025 . S
C92 O98 1.268 . S
C92 O108 1.268 . S
C93 O99 1.268 . S
C93 O107 1.268 . S
C94 O100 1.268 . S
C94 O109 1.268 . S
C95 O101 1.268 . S
C95 O105 1.268 . S
C96 O102 1.268 . S
C96 O104 1.268 . S
C97 O103 1.268 . S
C97 O106 1.268 . S
O98 Sc88 2.105 1_655 S
O98 C92 1.268 . S
O99 Sc89 2.105 1_655 S
O99 C93 1.268 . S
O100 Sc90 2.105 1_655 S
O100 C94 1.268 . S
O101 Sc88 2.105 . S
O101 C95 1.268 . S
O102 Sc90 2.105 . S
O102 C96 1.268 . S
O103 Sc89 2.105 . S
O103 C97 1.268 . S
O104 Sc88 2.105 . S
O104 C96 1.268 . S
O105 Sc89 2.105 . S
O105 C95 1.268 . S
O106 Sc90 2.105 . S
O106 C97 1.268 . S
O107 Sc88 2.105 1_655 S
O107 C93 1.268 . S
O108 Sc90 2.105 1_655 S
O108 C92 1.268 . S
O109 Sc89 2.105 1_655 S
O109 C94 1.268 . S
Sc110 O113 2.025 . S
Sc110 O120 2.105 . S
Sc110 O123 2.105 1_455 S
Sc110 O126 2.105 1_455 S
Sc110 O129 2.105 . S
Sc111 O113 2.025 . S
Sc111 O121 2.105 . S
Sc111 O125 2.105 1_455 S
Sc111 O127 2.105 1_455 S
Sc111 O131 2.105 . S
Sc112 O113 2.025 . S
Sc112 O122 2.105 . S
Sc112 O124 2.105 1_455 S
Sc112 O128 2.105 1_455 S
Sc112 O130 2.105 . S
O113 Sc110 2.025 . S
O113 Sc111 2.025 . S
O113 Sc112 2.025 . S
C114 O120 1.268 . S
C114 O130 1.268 . S
C115 O121 1.268 . S
C115 O129 1.268 . S
C116 O122 1.268 . S
C116 O131 1.268 . S
C117 O123 1.268 . S
C117 O127 1.268 . S
C118 O124 1.268 . S
C118 O126 1.268 . S
C119 O125 1.268 . S
C119 O128 1.268 . S
O120 Sc110 2.105 . S
O120 C114 1.268 . S
O121 Sc111 2.105 . S
O121 C115 1.268 . S
O122 Sc112 2.105 . S
O122 C116 1.268 . S
O123 Sc110 2.105 1_655 S
O123 C117 1.268 . S
O124 Sc112 2.105 1_655 S
O124 C118 1.268 . S
O125 Sc111 2.105 1_655 S
O125 C119 1.268 . S
O126 Sc110 2.105 1_655 S
O126 C118 1.268 . S
O127 Sc111 2.105 1_655 S
O127 C117 1.268 . S
O128 Sc112 2.105 1_655 S
O128 C119 1.268 . S
O129 Sc110 2.105 . S
O129 C115 1.268 . S
O130 Sc112 2.105 . S
O130 C114 1.268 . S
O131 Sc111 2.105 . S
O131 C116 1.268 . S
Sc132 O135 2.025 . S
Sc132 O142 2.105 . S
Sc132 O145 2.105 . S
Sc132 O148 2.105 . S
Sc132 O151 2.105 . S
Sc133 O135 2.025 . S
Sc133 O143 2.105 . S
Sc133 O147 2.105 . S
Sc133 O149 2.105 . S
Sc133 O153 2.105 . S
Sc134 O135 2.025 . S
Sc134 O144 2.105 . S
Sc134 O146 2.105 . S
Sc134 O150 2.105 . S
Sc134 O152 2.105 . S
O135 Sc132 2.025 . S
O135 Sc133 2.025 . S
O135 Sc134 2.025 . S
C136 O142 1.268 . S
C136 O152 1.268 . S
C137 O143 1.268 . S
C137 O151 1.268 . S
C138 O144 1.268 . S
C138 O153 1.268 . S
C139 O145 1.268 . S
C139 O149 1.268 . S
C140 O146 1.268 . S
C140 O148 1.268 . S
C141 O147 1.268 . S
C141 O150 1.268 . S
O142 Sc132 2.105 . S
O142 C136 1.268 . S
O143 Sc133 2.105 . S
O143 C137 1.268 . S
O144 Sc134 2.105 . S
O144 C138 1.268 . S
O145 Sc132 2.105 . S
O145 C139 1.268 . S
O146 Sc134 2.105 . S
O146 C140 1.268 . S
O147 Sc133 2.105 . S
O147 C141 1.268 . S
O148 Sc132 2.105 . S
O148 C140 1.268 . S
O149 Sc133 2.105 . S
O149 C139 1.268 . S
O150 Sc134 2.105 . S
O150 C141 1.268 . S
O151 Sc132 2.105 . S
O151 C137 1.268 . S
O152 Sc134 2.105 . S
O152 C136 1.268 . S
O153 Sc133 2.105 . S
O153 C138 1.268 . S
Sc154 O157 2.025 . S
Sc154 O164 2.105 . S
Sc154 O167 2.105 . S
Sc154 O170 2.105 . S
Sc154 O173 2.105 . S
Sc155 O157 2.025 . S
Sc155 O165 2.105 . S
Sc155 O169 2.105 . S
Sc155 O171 2.105 . S
Sc155 O175 2.105 . S
Sc156 O157 2.025 . S
Sc156 O166 2.105 . S
Sc156 O168 2.105 . S
Sc156 O172 2.105 . S
Sc156 O174 2.105 . S
O157 Sc154 2.025 . S
O157 Sc155 2.025 . S
O157 Sc156 2.025 . S
C158 O164 1.268 . S
C158 O174 1.268 . S
C159 O165 1.268 . S
C159 O173 1.268 . S
C160 O166 1.268 . S
C160 O175 1.268 . S
C161 O167 1.268 . S
C161 O171 1.268 . S
C162 O168 1.268 . S
C162 O170 1.268 . S
C163 O169 1.268 . S
C163 O172 1.268 . S
O164 Sc154 2.105 . S
O164 C158 1.268 . S
O165 Sc155 2.105 . S
O165 C159 1.268 . S
O166 Sc156 2.105 . S
O166 C160 1.268 . S
O167 Sc154 2.105 . S
O167 C161 1.268 . S
O168 Sc156 2.105 . S
O168 C162 1.268 . S
O169 Sc155 2.105 . S
O169 C163 1.268 . S
O170 Sc154 2.105 . S
O170 C162 1.268 . S
O171 Sc155 2.105 . S
O171 C161 1.268 . S
O172 Sc156 2.105 . S
O172 C163 1.268 . S
O173 Sc154 2.105 . S
O173 C159 1.268 . S
O174 Sc156 2.105 . S
O174 C158 1.268 . S
O175 Sc155 2.105 . S
O175 C160 1.268 . S
C176 C177 1.369 . S
C176 C178 1.419 . S
C176 H180 0.930 . S
C177 C176 1.369 . S
C177 C186 1.429 . S
C178 C176 1.419 . S
C178 C179 1.363 . S
C178 H181 0.929 . S
C179 C178 1.363 . S
C179 C185 1.428 . S
H180 C176 0.930 . S
H181 C178 0.929 . S
S182 N183 1.613 . S
S182 N184 1.610 . S
N183 S182 1.613 . S
N183 C186 1.350 . S
N184 S182 1.610 . S
N184 C185 1.351 . S
C185 C179 1.428 . S
C185 N184 1.351 . S
C185 C186 1.434 . S
C186 C177 1.429 . S
C186 N183 1.350 . S
C186 C185 1.434 . S
C187 C188 1.369 . S
C187 C189 1.419 . S
C187 H191 0.930 . S
C188 C187 1.369 . S
C188 C197 1.429 . S
C189 C187 1.419 . S
C189 C190 1.363 . S
C189 H192 0.929 . S
C190 C189 1.363 . S
C190 C196 1.428 . S
H191 C187 0.930 . S
H192 C189 0.929 . S
S193 N194 1.613 . S
S193 N195 1.610 . S
N194 S193 1.613 . S
N194 C197 1.350 . S
N195 S193 1.610 . S
N195 C196 1.351 . S
C196 C190 1.428 . S
C196 N195 1.351 . S
C196 C197 1.434 . S
C197 C188 1.429 . S
C197 N194 1.350 . S
C197 C196 1.434 . S
C198 C199 1.369 . S
C198 C200 1.419 . S
C198 H202 0.930 . S
C199 C198 1.369 . S
C199 C208 1.429 . S
C200 C198 1.419 . S
C200 C201 1.363 . S
C200 H203 0.929 . S
C201 C200 1.363 . S
C201 C207 1.428 . S
H202 C198 0.930 . S
H203 C200 0.929 . S
S204 N205 1.613 . S
S204 N206 1.610 . S
N205 S204 1.613 . S
N205 C208 1.350 . S
N206 S204 1.610 . S
N206 C207 1.351 . S
C207 C201 1.428 . S
C207 N206 1.351 . S
C207 C208 1.434 . S
C208 C199 1.429 . S
C208 N205 1.350 . S
C208 C207 1.434 . S
C209 C210 1.369 . S
C209 C211 1.419 . S
C209 H213 0.930 . S
C210 C209 1.369 . S
C210 C219 1.429 . S
C211 C209 1.419 . S
C211 C212 1.363 . S
C211 H214 0.929 . S
C212 C211 1.363 . S
C212 C218 1.428 . S
H213 C209 0.930 . S
H214 C211 0.929 . S
S215 N216 1.613 . S
S215 N217 1.610 . S
N216 S215 1.613 . S
N216 C219 1.350 . S
N217 S215 1.610 . S
N217 C218 1.351 . S
C218 C212 1.428 . S
C218 N217 1.351 . S
C218 C219 1.434 . S
C219 C210 1.429 . S
C219 N216 1.350 . S
C219 C218 1.434 . S
C220 C221 1.369 . S
C220 C222 1.419 . S
C220 H224 0.930 . S
C221 C220 1.369 . S
C221 C230 1.429 . S
C222 C220 1.419 . S
C222 C223 1.363 . S
C222 H225 0.929 . S
C223 C222 1.363 . S
C223 C229 1.428 . S
H224 C220 0.930 . S
H225 C222 0.929 . S
S226 N227 1.613 . S
S226 N228 1.610 . S
N227 S226 1.613 . S
N227 C230 1.350 . S
N228 S226 1.610 . S
N228 C229 1.351 . S
C229 C223 1.428 . S
C229 N228 1.351 . S
C229 C230 1.434 . S
C230 C221 1.429 . S
C230 N227 1.350 . S
C230 C229 1.434 . S
C231 C232 1.369 . S
C231 C233 1.419 . S
C231 H235 0.930 . S
C232 C231 1.369 . S
C232 C241 1.429 . S
C233 C231 1.419 . S
C233 C234 1.363 . S
C233 H236 0.929 . S
C234 C233 1.363 . S
C234 C240 1.428 . S
H235 C231 0.930 . S
H236 C233 0.929 . S
S237 N238 1.613 . S
S237 N239 1.610 . S
N238 S237 1.613 . S
N238 C241 1.350 . S
N239 S237 1.610 . S
N239 C240 1.351 . S
C240 C234 1.428 . S
C240 N239 1.351 . S
C240 C241 1.434 . S
C241 C232 1.429 . S
C241 N238 1.350 . S
C241 C240 1.434 . S
C242 C243 1.369 . S
C242 C244 1.419 . S
C242 H246 0.930 . S
C243 C242 1.369 . S
C243 C252 1.429 . S
C244 C242 1.419 . S
C244 C245 1.363 . S
C244 H247 0.929 . S
C245 C244 1.363 . S
C245 C251 1.428 . S
H246 C242 0.930 . S
H247 C244 0.929 . S
S248 N249 1.613 . S
S248 N250 1.610 . S
N249 S248 1.613 . S
N249 C252 1.350 . S
N250 S248 1.610 . S
N250 C251 1.351 . S
C251 C245 1.428 . S
C251 N250 1.351 . S
C251 C252 1.434 . S
C252 C243 1.429 . S
C252 N249 1.350 . S
C252 C251 1.434 . S
C253 C254 1.369 . S
C253 C255 1.419 . S
C253 H257 0.930 . S
C254 C253 1.369 . S
C254 C263 1.429 . S
C255 C253 1.419 . S
C255 C256 1.363 . S
C255 H258 0.929 . S
C256 C255 1.363 . S
C256 C262 1.428 . S
H257 C253 0.930 . S
H258 C255 0.929 . S
S259 N260 1.613 . S
S259 N261 1.610 . S
N260 S259 1.613 . S
N260 C263 1.350 . S
N261 S259 1.610 . S
N261 C262 1.351 . S
C262 C256 1.428 . S
C262 N261 1.351 . S
C262 C263 1.434 . S
C263 C254 1.429 . S
C263 N260 1.350 . S
C263 C262 1.434 . S
C264 C265 1.369 . S
C264 C266 1.419 . S
C264 H268 0.930 . S
C265 C264 1.369 . S
C265 C274 1.429 . S
C266 C264 1.419 . S
C266 C267 1.363 . S
C266 H269 0.929 . S
C267 C266 1.363 . S
C267 C273 1.428 . S
H268 C264 0.930 . S
H269 C266 0.929 . S
S270 N271 1.613 . S
S270 N272 1.610 . S
N271 S270 1.613 . S
N271 C274 1.350 . S
N272 S270 1.610 . S
N272 C273 1.351 . S
C273 C267 1.428 . S
C273 N272 1.351 . S
C273 C274 1.434 . S
C274 C265 1.429 . S
C274 N271 1.350 . S
C274 C273 1.434 . S
C275 C276 1.369 . S
C275 C277 1.419 . S
C275 H279 0.930 . S
C276 C275 1.369 . S
C276 C285 1.429 . S
C277 C275 1.419 . S
C277 C278 1.363 . S
C277 H280 0.929 . S
C278 C277 1.363 . S
C278 C284 1.428 . S
H279 C275 0.930 . S
H280 C277 0.929 . S
S281 N282 1.613 . S
S281 N283 1.610 . S
N282 S281 1.613 . S
N282 C285 1.350 . S
N283 S281 1.610 . S
N283 C284 1.351 . S
C284 C278 1.428 . S
C284 N283 1.351 . S
C284 C285 1.434 . S
C285 C276 1.429 . S
C285 N282 1.350 . S
C285 C284 1.434 . S
C286 C287 1.369 . S
C286 C288 1.419 . S
C286 H290 0.930 1_556 S
C287 C286 1.369 . S
C287 C296 1.429 . S
C288 C286 1.419 . S
C288 C289 1.363 . S
C288 H291 0.929 . S
C289 C288 1.363 . S
C289 C295 1.428 . S
H290 C286 0.930 1_554 S
H291 C288 0.929 . S
S292 N293 1.613 . S
S292 N294 1.610 . S
N293 S292 1.613 . S
N293 C296 1.350 . S
N294 S292 1.610 . S
N294 C295 1.351 . S
C295 C289 1.428 . S
C295 N294 1.351 . S
C295 C296 1.434 . S
C296 C287 1.429 . S
C296 N293 1.350 . S
C296 C295 1.434 . S
C297 C298 1.369 . S
C297 C299 1.419 . S
C297 H301 0.930 . S
C298 C297 1.369 . S
C298 C307 1.429 . S
C299 C297 1.419 . S
C299 C300 1.363 . S
C299 H302 0.929 . S
C300 C299 1.363 . S
C300 C306 1.428 . S
H301 C297 0.930 . S
H302 C299 0.929 . S
S303 N304 1.613 . S
S303 N305 1.610 . S
N304 S303 1.613 . S
N304 C307 1.350 . S
N305 S303 1.610 . S
N305 C306 1.351 . S
C306 C300 1.428 . S
C306 N305 1.351 . S
C306 C307 1.434 . S
C307 C298 1.429 . S
C307 N304 1.350 . S
C307 C306 1.434 . S
C308 C309 1.369 . S
C308 C310 1.419 . S
C308 H312 0.930 . S
C309 C308 1.369 . S
C309 C318 1.429 1_565 S
C310 C308 1.419 . S
C310 C311 1.363 1_565 S
C310 H313 0.929 . S
C311 C310 1.363 1_545 S
C311 C317 1.428 . S
H312 C308 0.930 . S
H313 C310 0.929 . S
S314 N315 1.613 . S
S314 N316 1.610 1_554 S
N315 S314 1.613 . S
N315 C318 1.350 1_554 S
N316 S314 1.610 1_556 S
N316 C317 1.351 . S
C317 C311 1.428 . S
C317 N316 1.351 . S
C317 C318 1.434 . S
C318 C309 1.429 1_545 S
C318 N315 1.350 1_556 S
C318 C317 1.434 . S
C319 C320 1.369 1_565 S
C319 C321 1.419 . S
C319 H323 0.930 . S
C320 C319 1.369 1_545 S
C320 C329 1.429 . S
C321 C319 1.419 . S
C321 C322 1.363 . S
C321 H324 0.929 . S
C322 C321 1.363 . S
C322 C328 1.428 1_565 S
H323 C319 0.930 . S
H324 C321 0.929 . S
S325 N326 1.613 . S
S325 N327 1.610 . S
N326 S325 1.613 . S
N326 C329 1.350 . S
N327 S325 1.610 . S
N327 C328 1.351 . S
C328 C322 1.428 1_545 S
C328 N327 1.351 . S
C328 C329 1.434 . S
C329 C320 1.429 . S
C329 N326 1.350 . S
C329 C328 1.434 . S
C330 C331 1.369 . S
C330 C332 1.419 . S
C330 H334 0.930 . S
C331 C330 1.369 . S
C331 C340 1.429 1_565 S
C332 C330 1.419 . S
C332 C333 1.363 1_565 S
C332 H335 0.929 . S
C333 C332 1.363 1_545 S
C333 C339 1.428 . S
H334 C330 0.930 . S
H335 C332 0.929 . S
S336 N337 1.613 . S
S336 N338 1.610 . S
N337 S336 1.613 . S
N337 C340 1.350 . S
N338 S336 1.610 . S
N338 C339 1.351 . S
C339 C333 1.428 . S
C339 N338 1.351 . S
C339 C340 1.434 . S
C340 C331 1.429 1_545 S
C340 N337 1.350 . S
C340 C339 1.434 . S
C341 C342 1.369 . S
C341 C343 1.419 1_545 S
C341 H345 0.930 . S
C342 C341 1.369 . S
C342 C351 1.429 . S
C343 C341 1.419 1_565 S
C343 C344 1.363 . S
C343 H346 0.929 . S
C344 C343 1.363 . S
C344 C350 1.428 . S
H345 C341 0.930 . S
H346 C343 0.929 . S
S347 N348 1.613 1_565 S
S347 N349 1.610 . S
N348 S347 1.613 1_545 S
N348 C351 1.350 . S
N349 S347 1.610 . S
N349 C350 1.351 . S
C350 C344 1.428 . S
C350 N349 1.351 . S
C350 C351 1.434 1_565 S
C351 C342 1.429 . S
C351 N348 1.350 . S
C351 C350 1.434 1_545 S
C352 C353 1.369 . S
C352 C354 1.419 . S
C352 H356 0.930 . S
C353 C352 1.369 . S
C353 C362 1.429 . S
C354 C352 1.419 . S
C354 C355 1.363 . S
C354 H357 0.929 . S
C355 C354 1.363 . S
C355 C361 1.428 . S
H356 C352 0.930 . S
H357 C354 0.929 . S
S358 N359 1.613 . S
S358 N360 1.610 . S
N359 S358 1.613 . S
N359 C362 1.350 . S
N360 S358 1.610 . S
N360 C361 1.351 . S
C361 C355 1.428 . S
C361 N360 1.351 . S
C361 C362 1.434 . S
C362 C353 1.429 . S
C362 N359 1.350 . S
C362 C361 1.434 . S
C363 C364 1.369 . S
C363 C365 1.419 . S
C363 H367 0.930 . S
C364 C363 1.369 . S
C364 C373 1.429 . S
C365 C363 1.419 . S
C365 C366 1.363 . S
C365 H368 0.929 . S
C366 C365 1.363 . S
C366 C372 1.428 . S
H367 C363 0.930 . S
H368 C365 0.929 . S
S369 N370 1.613 . S
S369 N371 1.610 . S
N370 S369 1.613 . S
N370 C373 1.350 . S
N371 S369 1.610 . S
N371 C372 1.351 . S
C372 C366 1.428 . S
C372 N371 1.351 . S
C372 C373 1.434 . S
C373 C364 1.429 . S
C373 N370 1.350 . S
C373 C372 1.434 . S
C374 C375 1.369 . S
C374 C376 1.419 . S
C374 H378 0.930 . S
C375 C374 1.369 . S
C375 C384 1.429 . S
C376 C374 1.419 . S
C376 C377 1.363 . S
C376 H379 0.929 . S
C377 C376 1.363 . S
C377 C383 1.428 . S
H378 C374 0.930 . S
H379 C376 0.929 . S
S380 N381 1.613 . S
S380 N382 1.610 . S
N381 S380 1.613 . S
N381 C384 1.350 . S
N382 S380 1.610 . S
N382 C383 1.351 . S
C383 C377 1.428 . S
C383 N382 1.351 . S
C383 C384 1.434 . S
C384 C375 1.429 . S
C384 N381 1.350 . S
C384 C383 1.434 . S
C385 C386 1.369 . S
C385 C387 1.419 . S
C385 H389 0.930 . S
C386 C385 1.369 . S
C386 C395 1.429 . S
C387 C385 1.419 . S
C387 C388 1.363 . S
C387 H390 0.929 . S
C388 C387 1.363 . S
C388 C394 1.428 . S
H389 C385 0.930 . S
H390 C387 0.929 . S
S391 N392 1.613 . S
S391 N393 1.610 . S
N392 S391 1.613 . S
N392 C395 1.350 . S
N393 S391 1.610 . S
N393 C394 1.351 . S
C394 C388 1.428 . S
C394 N393 1.351 . S
C394 C395 1.434 . S
C395 C386 1.429 . S
C395 N392 1.350 . S
C395 C394 1.434 . S
C396 C397 1.369 . S
C396 C398 1.419 . S
C396 H400 0.930 . S
C397 C396 1.369 . S
C397 C406 1.429 . S
C398 C396 1.419 . S
C398 C399 1.363 . S
C398 H401 0.929 . S
C399 C398 1.363 . S
C399 C405 1.428 . S
H400 C396 0.930 . S
H401 C398 0.929 . S
S402 N403 1.613 . S
S402 N404 1.610 . S
N403 S402 1.613 . S
N403 C406 1.350 . S
N404 S402 1.610 . S
N404 C405 1.351 . S
C405 C399 1.428 . S
C405 N404 1.351 . S
C405 C406 1.434 . S
C406 C397 1.429 . S
C406 N403 1.350 . S
C406 C405 1.434 . S
C407 C408 1.369 . S
C407 C409 1.419 . S
C407 H411 0.930 . S
C408 C407 1.369 . S
C408 C417 1.429 . S
C409 C407 1.419 . S
C409 C410 1.363 . S
C409 H412 0.929 . S
C410 C409 1.363 . S
C410 C416 1.428 . S
H411 C407 0.930 . S
H412 C409 0.929 . S
S413 N414 1.613 . S
S413 N415 1.610 . S
N414 S413 1.613 . S
N414 C417 1.350 . S
N415 S413 1.610 . S
N415 C416 1.351 . S
C416 C410 1.428 . S
C416 N415 1.351 . S
C416 C417 1.434 . S
C417 C408 1.429 . S
C417 N414 1.350 . S
C417 C416 1.434 . S
C418 C419 1.369 . S
C418 C420 1.419 . S
C418 H422 0.930 . S
C419 C418 1.369 . S
C419 C428 1.429 . S
C420 C418 1.419 . S
C420 C421 1.363 . S
C420 H423 0.929 . S
C421 C420 1.363 . S
C421 C427 1.428 . S
H422 C418 0.930 . S
H423 C420 0.929 . S
S424 N425 1.613 . S
S424 N426 1.610 . S
N425 S424 1.613 . S
N425 C428 1.350 . S
N426 S424 1.610 . S
N426 C427 1.351 . S
C427 C421 1.428 . S
C427 N426 1.351 . S
C427 C428 1.434 . S
C428 C419 1.429 . S
C428 N425 1.350 . S
C428 C427 1.434 . S
C429 C430 1.369 . S
C429 C431 1.419 . S
C429 H433 0.930 . S
C430 C429 1.369 . S
C430 C439 1.429 . S
C431 C429 1.419 . S
C431 C432 1.363 . S
C431 H434 0.929 . S
C432 C431 1.363 . S
C432 C438 1.428 . S
H433 C429 0.930 . S
H434 C431 0.929 . S
S435 N436 1.613 . S
S435 N437 1.610 . S
N436 S435 1.613 . S
N436 C439 1.350 . S
N437 S435 1.610 . S
N437 C438 1.351 . S
C438 C432 1.428 . S
C438 N437 1.351 . S
C438 C439 1.434 . S
C439 C430 1.429 . S
C439 N436 1.350 . S
C439 C438 1.434 . S
C177 C8 1.661 . S
C179 C114 1.667 . S
C190 C92 1.419 . S
C188 C19 1.461 . S
C201 C118 1.522 . S
C199 C30 1.560 . S
C212 C96 1.523 . S
C210 C41 1.559 . S
C223 C158 1.668 . S
C221 C52 1.659 . S
C234 C136 1.416 . S
C232 C63 1.463 . S
C243 C74 1.559 . S
C245 C162 1.522 . S
C256 C140 1.524 . S
C254 C85 1.559 . S
C265 C7 1.657 . S
C267 C163 1.726 . S
C278 C141 1.379 . S
C276 C16 1.296 . S
C287 C29 1.596 . S
C289 C160 1.592 . S
C298 C40 1.530 . S
C300 C138 1.521 . S
C311 C119 1.728 . S
C309 C51 1.663 . S
C320 C60 1.292 . S
C322 C97 1.375 . S
C333 C116 1.591 . S
C331 C73 1.597 . S
C344 C94 1.518 . S
C342 C84 1.533 . S
C355 C137 1.471 . S
C353 C5 1.201 . S
C366 C159 1.485 . S
C364 C18 1.500 . S
C375 C27 1.383 . S
C377 C139 1.480 . S
C388 C161 1.487 . S
C386 C38 1.385 . S
C399 C93 1.470 . S
C397 C49 1.200 . S
C408 C62 1.500 . S
C410 C115 1.485 . S
C419 C71 1.379 . S
C421 C95 1.479 . S
C430 C82 1.389 . S
C432 C117 1.487 . S
