# Generated by pormake.
# Topology gar, (4,6)-cn, num edge types: 1
# Building blocks:
#     Node 0, Type 0, BuildingBlock: NAHDIM_clean_sbu_0, # of connection points: 4
#     Node 1, Type 0, BuildingBlock: NAHDIM_clean_sbu_0, # of connection points: 4
#     Node 2, Type 0, BuildingBlock: NAHDIM_clean_sbu_0, # of connection points: 4
#     Node 3, Type 0, BuildingBlock: NAHDIM_clean_sbu_0, # of connection points: 4
#     Node 4, Type 0, BuildingBlock: NAHDIM_clean_sbu_0, # of connection points: 4
#     Node 5, Type 0, BuildingBlock: NAHDIM_clean_sbu_0, # of connection points: 4
#     Node 6, Type 0, BuildingBlock: NAHDIM_clean_sbu_0, # of connection points: 4
#     Node 7, Type 0, BuildingBlock: NAHDIM_clean_sbu_0, # of connection points: 4
#     Node 8, Type 0, BuildingBlock: NAHDIM_clean_sbu_0, # of connection points: 4
#     Node 9, Type 0, BuildingBlock: NAHDIM_clean_sbu_0, # of connection points: 4
#     Node 10, Type 0, BuildingBlock: NAHDIM_clean_sbu_0, # of connection points: 4
#     Node 11, Type 0, BuildingBlock: NAHDIM_clean_sbu_0, # of connection points: 4
#     Node 12, Type 0, BuildingBlock: NAHDIM_clean_sbu_0, # of connection points: 4
#     Node 13, Type 0, BuildingBlock: NAHDIM_clean_sbu_0, # of connection points: 4
#     Node 14, Type 0, BuildingBlock: NAHDIM_clean_sbu_0, # of connection points: 4
#     Node 15, Type 0, BuildingBlock: NAHDIM_clean_sbu_0, # of connection points: 4
#     Node 16, Type 0, BuildingBlock: NAHDIM_clean_sbu_0, # of connection points: 4
#     Node 17, Type 0, BuildingBlock: NAHDIM_clean_sbu_0, # of connection points: 4
#     Node 18, Type 0, BuildingBlock: NAHDIM_clean_sbu_0, # of connection points: 4
#     Node 19, Type 0, BuildingBlock: NAHDIM_clean_sbu_0, # of connection points: 4
#     Node 20, Type 0, BuildingBlock: NAHDIM_clean_sbu_0, # of connection points: 4
#     Node 21, Type 0, BuildingBlock: NAHDIM_clean_sbu_0, # of connection points: 4
#     Node 22, Type 0, BuildingBlock: NAHDIM_clean_sbu_0, # of connection points: 4
#     Node 23, Type 0, BuildingBlock: NAHDIM_clean_sbu_0, # of connection points: 4
#     Node 24, Type 1, BuildingBlock: KUMJIN_clean_sbu_0, # of connection points: 6
#     Node 25, Type 1, BuildingBlock: KUMJIN_clean_sbu_0, # of connection points: 6
#     Node 26, Type 1, BuildingBlock: KUMJIN_clean_sbu_0, # of connection points: 6
#     Node 27, Type 1, BuildingBlock: KUMJIN_clean_sbu_0, # of connection points: 6
#     Node 28, Type 1, BuildingBlock: KUMJIN_clean_sbu_0, # of connection points: 6
#     Node 29, Type 1, BuildingBlock: KUMJIN_clean_sbu_0, # of connection points: 6
#     Node 30, Type 1, BuildingBlock: KUMJIN_clean_sbu_0, # of connection points: 6
#     Node 31, Type 1, BuildingBlock: KUMJIN_clean_sbu_0, # of connection points: 6
#     Node 32, Type 1, BuildingBlock: KUMJIN_clean_sbu_0, # of connection points: 6
#     Node 33, Type 1, BuildingBlock: KUMJIN_clean_sbu_0, # of connection points: 6
#     Node 34, Type 1, BuildingBlock: KUMJIN_clean_sbu_0, # of connection points: 6
#     Node 35, Type 1, BuildingBlock: KUMJIN_clean_sbu_0, # of connection points: 6
#     Node 36, Type 1, BuildingBlock: KUMJIN_clean_sbu_0, # of connection points: 6
#     Node 37, Type 1, BuildingBlock: KUMJIN_clean_sbu_0, # of connection points: 6
#     Node 38, Type 1, BuildingBlock: KUMJIN_clean_sbu_0, # of connection points: 6
#     Node 39, Type 1, BuildingBlock: KUMJIN_clean_sbu_0, # of connection points: 6
#     Edge 40, Type (0, 1), BuildingBlock: CIFDUS_clean_linker_0, # of connection points: 2
#     Edge 41, Type (0, 1), BuildingBlock: CIFDUS_clean_linker_0, # of connection points: 2
#     Edge 42, Type (0, 1), BuildingBlock: CIFDUS_clean_linker_0, # of connection points: 2
#     Edge 43, Type (0, 1), BuildingBlock: CIFDUS_clean_linker_0, # of connection points: 2
#     Edge 44, Type (0, 1), BuildingBlock: CIFDUS_clean_linker_0, # of connection points: 2
#     Edge 45, Type (0, 1), BuildingBlock: CIFDUS_clean_linker_0, # of connection points: 2
#     Edge 46, Type (0, 1), BuildingBlock: CIFDUS_clean_linker_0, # of connection points: 2
#     Edge 47, Type (0, 1), BuildingBlock: CIFDUS_clean_linker_0, # of connection points: 2
#     Edge 48, Type (0, 1), BuildingBlock: CIFDUS_clean_linker_0, # of connection points: 2
#     Edge 49, Type (0, 1), BuildingBlock: CIFDUS_clean_linker_0, # of connection points: 2
#     Edge 50, Type (0, 1), BuildingBlock: CIFDUS_clean_linker_0, # of connection points: 2
#     Edge 51, Type (0, 1), BuildingBlock: CIFDUS_clean_linker_0, # of connection points: 2
#     Edge 52, Type (0, 1), BuildingBlock: CIFDUS_clean_linker_0, # of connection points: 2
#     Edge 53, Type (0, 1), BuildingBlock: CIFDUS_clean_linker_0, # of connection points: 2
#     Edge 54, Type (0, 1), BuildingBlock: CIFDUS_clean_linker_0, # of connection points: 2
#     Edge 55, Type (0, 1), BuildingBlock: CIFDUS_clean_linker_0, # of connection points: 2
#     Edge 56, Type (0, 1), BuildingBlock: CIFDUS_clean_linker_0, # of connection points: 2
#     Edge 57, Type (0, 1), BuildingBlock: CIFDUS_clean_linker_0, # of connection points: 2
#     Edge 58, Type (0, 1), BuildingBlock: CIFDUS_clean_linker_0, # of connection points: 2
#     Edge 59, Type (0, 1), BuildingBlock: CIFDUS_clean_linker_0, # of connection points: 2
#     Edge 60, Type (0, 1), BuildingBlock: CIFDUS_clean_linker_0, # of connection points: 2
#     Edge 61, Type (0, 1), BuildingBlock: CIFDUS_clean_linker_0, # of connection points: 2
#     Edge 62, Type (0, 1), BuildingBlock: CIFDUS_clean_linker_0, # of connection points: 2
#     Edge 63, Type (0, 1), BuildingBlock: CIFDUS_clean_linker_0, # of connection points: 2
#     Edge 64, Type (0, 1), BuildingBlock: CIFDUS_clean_linker_0, # of connection points: 2
#     Edge 65, Type (0, 1), BuildingBlock: CIFDUS_clean_linker_0, # of connection points: 2
#     Edge 66, Type (0, 1), BuildingBlock: CIFDUS_clean_linker_0, # of connection points: 2
#     Edge 67, Type (0, 1), BuildingBlock: CIFDUS_clean_linker_0, # of connection points: 2
#     Edge 68, Type (0, 1), BuildingBlock: CIFDUS_clean_linker_0, # of connection points: 2
#     Edge 69, Type (0, 1), BuildingBlock: CIFDUS_clean_linker_0, # of connection points: 2
#     Edge 70, Type (0, 1), BuildingBlock: CIFDUS_clean_linker_0, # of connection points: 2
#     Edge 71, Type (0, 1), BuildingBlock: CIFDUS_clean_linker_0, # of connection points: 2
#     Edge 72, Type (0, 1), BuildingBlock: CIFDUS_clean_linker_0, # of connection points: 2
#     Edge 73, Type (0, 1), BuildingBlock: CIFDUS_clean_linker_0, # of connection points: 2
#     Edge 74, Type (0, 1), BuildingBlock: CIFDUS_clean_linker_0, # of connection points: 2
#     Edge 75, Type (0, 1), BuildingBlock: CIFDUS_clean_linker_0, # of connection points: 2
#     Edge 76, Type (0, 1), BuildingBlock: CIFDUS_clean_linker_0, # of connection points: 2
#     Edge 77, Type (0, 1), BuildingBlock: CIFDUS_clean_linker_0, # of connection points: 2
#     Edge 78, Type (0, 1), BuildingBlock: CIFDUS_clean_linker_0, # of connection points: 2
#     Edge 79, Type (0, 1), BuildingBlock: CIFDUS_clean_linker_0, # of connection points: 2
#     Edge 80, Type (0, 1), BuildingBlock: CIFDUS_clean_linker_0, # of connection points: 2
#     Edge 81, Type (0, 1), BuildingBlock: CIFDUS_clean_linker_0, # of connection points: 2
#     Edge 82, Type (0, 1), BuildingBlock: CIFDUS_clean_linker_0, # of connection points: 2
#     Edge 83, Type (0, 1), BuildingBlock: CIFDUS_clean_linker_0, # of connection points: 2
#     Edge 84, Type (0, 1), BuildingBlock: CIFDUS_clean_linker_0, # of connection points: 2
#     Edge 85, Type (0, 1), BuildingBlock: CIFDUS_clean_linker_0, # of connection points: 2
#     Edge 86, Type (0, 1), BuildingBlock: CIFDUS_clean_linker_0, # of connection points: 2
#     Edge 87, Type (0, 1), BuildingBlock: CIFDUS_clean_linker_0, # of connection points: 2
#     Edge 88, Type (0, 1), BuildingBlock: CIFDUS_clean_linker_0, # of connection points: 2
#     Edge 89, Type (0, 1), BuildingBlock: CIFDUS_clean_linker_0, # of connection points: 2
#     Edge 90, Type (0, 1), BuildingBlock: CIFDUS_clean_linker_0, # of connection points: 2
#     Edge 91, Type (0, 1), BuildingBlock: CIFDUS_clean_linker_0, # of connection points: 2
#     Edge 92, Type (0, 1), BuildingBlock: CIFDUS_clean_linker_0, # of connection points: 2
#     Edge 93, Type (0, 1), BuildingBlock: CIFDUS_clean_linker_0, # of connection points: 2
#     Edge 94, Type (0, 1), BuildingBlock: CIFDUS_clean_linker_0, # of connection points: 2
#     Edge 95, Type (0, 1), BuildingBlock: CIFDUS_clean_linker_0, # of connection points: 2
#     Edge 96, Type (0, 1), BuildingBlock: CIFDUS_clean_linker_0, # of connection points: 2
#     Edge 97, Type (0, 1), BuildingBlock: CIFDUS_clean_linker_0, # of connection points: 2
#     Edge 98, Type (0, 1), BuildingBlock: CIFDUS_clean_linker_0, # of connection points: 2
#     Edge 99, Type (0, 1), BuildingBlock: CIFDUS_clean_linker_0, # of connection points: 2
#     Edge 100, Type (0, 1), BuildingBlock: CIFDUS_clean_linker_0, # of connection points: 2
#     Edge 101, Type (0, 1), BuildingBlock: CIFDUS_clean_linker_0, # of connection points: 2
#     Edge 102, Type (0, 1), BuildingBlock: CIFDUS_clean_linker_0, # of connection points: 2
#     Edge 103, Type (0, 1), BuildingBlock: CIFDUS_clean_linker_0, # of connection points: 2
#     Edge 104, Type (0, 1), BuildingBlock: CIFDUS_clean_linker_0, # of connection points: 2
#     Edge 105, Type (0, 1), BuildingBlock: CIFDUS_clean_linker_0, # of connection points: 2
#     Edge 106, Type (0, 1), BuildingBlock: CIFDUS_clean_linker_0, # of connection points: 2
#     Edge 107, Type (0, 1), BuildingBlock: CIFDUS_clean_linker_0, # of connection points: 2
#     Edge 108, Type (0, 1), BuildingBlock: CIFDUS_clean_linker_0, # of connection points: 2
#     Edge 109, Type (0, 1), BuildingBlock: CIFDUS_clean_linker_0, # of connection points: 2
#     Edge 110, Type (0, 1), BuildingBlock: CIFDUS_clean_linker_0, # of connection points: 2
#     Edge 111, Type (0, 1), BuildingBlock: CIFDUS_clean_linker_0, # of connection points: 2
#     Edge 112, Type (0, 1), BuildingBlock: CIFDUS_clean_linker_0, # of connection points: 2
#     Edge 113, Type (0, 1), BuildingBlock: CIFDUS_clean_linker_0, # of connection points: 2
#     Edge 114, Type (0, 1), BuildingBlock: CIFDUS_clean_linker_0, # of connection points: 2
#     Edge 115, Type (0, 1), BuildingBlock: CIFDUS_clean_linker_0, # of connection points: 2
#     Edge 116, Type (0, 1), BuildingBlock: CIFDUS_clean_linker_0, # of connection points: 2
#     Edge 117, Type (0, 1), BuildingBlock: CIFDUS_clean_linker_0, # of connection points: 2
#     Edge 118, Type (0, 1), BuildingBlock: CIFDUS_clean_linker_0, # of connection points: 2
#     Edge 119, Type (0, 1), BuildingBlock: CIFDUS_clean_linker_0, # of connection points: 2
#     Edge 120, Type (0, 1), BuildingBlock: CIFDUS_clean_linker_0, # of connection points: 2
#     Edge 121, Type (0, 1), BuildingBlock: CIFDUS_clean_linker_0, # of connection points: 2
#     Edge 122, Type (0, 1), BuildingBlock: CIFDUS_clean_linker_0, # of connection points: 2
#     Edge 123, Type (0, 1), BuildingBlock: CIFDUS_clean_linker_0, # of connection points: 2
#     Edge 124, Type (0, 1), BuildingBlock: CIFDUS_clean_linker_0, # of connection points: 2
#     Edge 125, Type (0, 1), BuildingBlock: CIFDUS_clean_linker_0, # of connection points: 2
#     Edge 126, Type (0, 1), BuildingBlock: CIFDUS_clean_linker_0, # of connection points: 2
#     Edge 127, Type (0, 1), BuildingBlock: CIFDUS_clean_linker_0, # of connection points: 2
#     Edge 128, Type (0, 1), BuildingBlock: CIFDUS_clean_linker_0, # of connection points: 2
#     Edge 129, Type (0, 1), BuildingBlock: CIFDUS_clean_linker_0, # of connection points: 2
#     Edge 130, Type (0, 1), BuildingBlock: CIFDUS_clean_linker_0, # of connection points: 2
#     Edge 131, Type (0, 1), BuildingBlock: CIFDUS_clean_linker_0, # of connection points: 2
#     Edge 132, Type (0, 1), BuildingBlock: CIFDUS_clean_linker_0, # of connection points: 2
#     Edge 133, Type (0, 1), BuildingBlock: CIFDUS_clean_linker_0, # of connection points: 2
#     Edge 134, Type (0, 1), BuildingBlock: CIFDUS_clean_linker_0, # of connection points: 2
#     Edge 135, Type (0, 1), BuildingBlock: CIFDUS_clean_linker_0, # of connection points: 2
# Relax obj value: 0.143
# Max RMSD: 0.329
# Mean RMSD: 0.179
data_MOF--net-gar--node1-NAHDIM_clean_sbu_0--node2-KUMJIN_clean_sbu_0--edge1-CIFDUS_clean_linker_0
_symmetry_space_group_name_H-M    P1
_symmetry_Int_Tables_number       1
_symmetry_cell_setting            triclinic
loop_
_symmetry_equiv_pos_as_xyz
'x, y, z'
_cell_length_a     55.67179
_cell_length_b     49.995128
_cell_length_c     48.765338
_cell_angle_alpha  101.54794
_cell_angle_beta   93.811501
_cell_angle_gamma 103.2444
loop_
_atom_site_label
_atom_site_type_symbol
_atom_site_fract_x
_atom_site_fract_y
_atom_site_fract_z
_atom_type_partial_charge
C0 C 0.17854 0.32816 0.36658 0.0
O1 O 0.18212 0.33422 0.39423 0.0
O2 O 0.11958 0.28498 0.3931 0.0
Zn3 Zn 0.12805 0.31879 0.37638 0.0
O4 O 0.13529 0.35218 0.40841 0.0
C5 C 0.08144 0.329 0.36492 0.0
O6 O 0.08304 0.33313 0.39252 0.0
O7 O 0.15661 0.32012 0.35402 0.0
C8 C 0.13879 0.37665 0.40368 0.0
O9 O 0.13977 0.37969 0.37759 0.0
C10 C 0.13072 0.2878 0.41748 0.0
O11 O 0.14845 0.3106 0.42813 0.0
O12 O 0.09873 0.32124 0.35231 0.0
C13 C 0.97713 0.76457 0.70489 0.0
O14 O 0.98828 0.75053 0.71948 0.0
O15 O 1.00186 0.7196 0.6395 0.0
Zn16 Zn 0.01243 0.75873 0.6635 0.0
O17 O 0.02223 0.78673 0.64012 0.0
C18 C 0.04017 0.73618 0.69856 0.0
O19 O 0.02001 0.71551 0.69095 0.0
O20 O 0.98454 0.76917 0.68191 0.0
C21 C 0.04222 0.79199 0.62898 0.0
O22 O 0.05929 0.77839 0.63295 0.0
C23 C 1.00526 0.71444 0.61375 0.0
O24 O 0.01142 0.73536 0.60101 0.0
O25 O 0.04104 0.75911 0.69071 0.0
C26 C 0.67808 0.83422 0.86365 0.0
O27 O 0.67628 0.84621 0.8897 0.0
O28 O 0.61548 0.796 0.88773 0.0
Zn29 Zn 0.62582 0.82116 0.86109 0.0
O30 O 0.62645 0.8603 0.88006 0.0
C31 C 0.57905 0.81853 0.84048 0.0
O32 O 0.57906 0.82371 0.868 0.0
O33 O 0.65856 0.82089 0.84712 0.0
C34 C 0.62868 0.86915 0.90652 0.0
O35 O 0.63435 0.85332 0.92319 0.0
C36 C 0.62925 0.78789 0.90447 0.0
O37 O 0.65345 0.79456 0.90422 0.0
O38 O 0.59826 0.81326 0.83014 0.0
C39 C 0.45767 0.25826 0.16429 0.0
O40 O 0.45715 0.25743 0.13715 0.0
O41 O 0.50643 0.22652 0.1327 0.0
Zn42 Zn 0.50874 0.26322 0.1591 0.0
O43 O 0.51373 0.29356 0.13739 0.0
C44 C 0.55058 0.25327 0.19049 0.0
O45 O 0.5415 0.22694 0.17698 0.0
O46 O 0.47827 0.26106 0.17871 0.0
C47 C 0.52959 0.29264 0.11989 0.0
O48 O 0.54153 0.27262 0.11721 0.0
C49 C 0.49928 0.21983 0.1064 0.0
O50 O 0.49053 0.23736 0.0942 0.0
O51 O 0.53915 0.27178 0.1868 0.0
C52 C 0.06624 0.82348 0.14857 0.0
O53 O 0.06471 0.84337 0.13505 0.0
O54 O 0.10814 0.77773 0.09662 0.0
Zn55 Zn 0.11286 0.81905 0.12131 0.0
O56 O 0.10912 0.85582 0.10514 0.0
C57 C 0.1657 0.81927 0.14221 0.0
O58 O 0.16732 0.81008 0.11537 0.0
O59 O 0.08448 0.81204 0.14597 0.0
C60 C 0.10499 0.86236 0.08126 0.0
O61 O 0.1031 0.8431 0.05801 0.0
C62 C 0.10339 0.75986 0.07286 0.0
O63 O 0.09893 0.76845 0.04973 0.0
O64 O 0.14563 0.82583 0.14915 0.0
C65 C 0.5776 0.77697 0.41703 0.0
O66 O 0.58115 0.7767 0.44388 0.0
O67 O 0.52729 0.72924 0.44583 0.0
Zn68 Zn 0.52595 0.76709 0.42965 0.0
O69 O 0.53196 0.80644 0.45892 0.0
C70 C 0.47337 0.76985 0.41198 0.0
O71 O 0.47329 0.77676 0.43942 0.0
O72 O 0.55536 0.77293 0.40566 0.0
C73 C 0.52811 0.82741 0.44925 0.0
O74 O 0.52026 0.82283 0.42231 0.0
C75 C 0.53512 0.72722 0.47068 0.0
O76 O 0.54232 0.75052 0.49036 0.0
O77 O 0.49282 0.76347 0.40264 0.0
C78 C 0.56645 0.31332 0.63873 0.0
O79 O 0.55777 0.30779 0.61194 0.0
O80 O 0.60793 0.27922 0.59477 0.0
Zn81 Zn 0.61554 0.32177 0.61763 0.0
O82 O 0.61131 0.3581 0.60071 0.0
C83 C 0.66723 0.31703 0.63743 0.0
O84 O 0.66666 0.30337 0.61131 0.0
O85 O 0.58988 0.31977 0.64561 0.0
C86 C 0.60371 0.36359 0.57731 0.0
O87 O 0.59735 0.34298 0.55476 0.0
C88 C 0.60499 0.26105 0.57133 0.0
O89 O 0.60665 0.26982 0.54772 0.0
O90 O 0.64908 0.32793 0.64398 0.0
C91 C 0.0722 0.27086 0.90927 0.0
O92 O 0.08036 0.27966 0.93623 0.0
O93 O 0.02527 0.22611 0.94923 0.0
Zn94 Zn 0.02293 0.26173 0.92956 0.0
O95 O 0.03123 0.30522 0.95073 0.0
C96 C 0.97217 0.26815 0.91072 0.0
O97 O 0.97498 0.28358 0.93646 0.0
O98 O 0.04887 0.26189 0.90183 0.0
C99 C 0.03186 0.3235 0.97361 0.0
O100 O 0.02581 0.31475 0.99646 0.0
C101 C 0.0382 0.22462 0.97162 0.0
O102 O 0.05155 0.24826 0.98796 0.0
O103 O 0.98907 0.25546 0.90335 0.0
C104 C 0.40355 0.10039 0.327 0.0
O105 O 0.42711 0.1127 0.33538 0.0
O106 O 0.43383 0.0527 0.2761 0.0
Zn107 Zn 0.41971 0.04901 0.31184 0.0
O108 O 0.44707 0.05713 0.3428 0.0
C109 C 0.38172 0.99957 0.28878 0.0
O110 O 0.37334 0.01682 0.27578 0.0
O111 O 0.39683 0.0738 0.31853 0.0
C112 C 0.46818 0.05283 0.33791 0.0
O113 O 0.47233 0.04321 0.31206 0.0
C114 C 0.45173 0.07313 0.27483 0.0
O115 O 0.45995 0.09373 0.29716 0.0
O116 O 0.40113 0.0091 0.30638 0.0
C117 C 0.35115 0.17279 0.51498 0.0
O118 O 0.35847 0.19996 0.51612 0.0
O119 O 0.31157 0.21386 0.55147 0.0
Zn120 Zn 0.3046 0.1879 0.51174 0.0
O121 O 0.31087 0.20693 0.47764 0.0
C122 C 0.25851 0.14178 0.50843 0.0
O123 O 0.27366 0.12556 0.51111 0.0
O124 O 0.32787 0.16147 0.51227 0.0
C125 C 0.31859 0.23314 0.4782 0.0
O126 O 0.32349 0.25112 0.50271 0.0
C127 C 0.3006 0.23301 0.56072 0.0
O128 O 0.28483 0.23933 0.54335 0.0
O129 O 0.26761 0.16739 0.50758 0.0
C130 C 0.22412 0.95922 0.75843 0.0
O131 O 0.21816 0.95534 0.73116 0.0
O132 O 0.17136 1.00855 0.7286 0.0
Zn133 Zn 0.19416 0.01412 0.77168 0.0
O134 O 0.1744 0.01889 0.81187 0.0
C135 C 0.23748 0.0748 0.78551 0.0
O136 O 0.25104 0.06698 0.80404 0.0
O137 O 0.21696 0.97962 0.77482 0.0
C138 C 0.15182 0.01596 0.81875 0.0
O139 O 0.13355 1.00811 0.79811 0.0
C140 C 0.155 0.02112 0.71994 0.0
O141 O 0.14719 0.03851 0.73915 0.0
O142 O 0.21711 0.0571 0.7729 0.0
C143 C 0.29378 0.96749 0.03608 0.0
O144 O 0.28851 0.94121 0.03878 0.0
O145 O 0.33753 0.93297 0.05743 0.0
Zn146 Zn 0.3398 0.95507 0.02725 0.0
O147 O 0.33532 0.92729 0.98991 0.0
C148 C 0.38839 0.99883 0.05011 0.0
O149 O 0.37954 0.01079 0.07237 0.0
O150 O 0.31517 0.97834 0.03015 0.0
C151 C 0.3521 0.93048 0.97349 0.0
O152 O 0.37039 0.95332 0.97962 0.0
C153 C 0.35724 0.92568 0.06356 0.0
O154 O 0.37646 0.93243 0.04988 0.0
O155 O 0.37439 0.97879 0.03178 0.0
C156 C 0.29642 0.41953 0.03285 0.0
O157 O 0.28749 0.3928 0.02058 0.0
O158 O 0.34114 0.38215 0.07469 0.0
Zn159 Zn 0.34266 0.40267 0.04164 0.0
O160 O 0.33685 0.37854 1.00094 0.0
C161 C 0.39499 0.41687 0.03992 0.0
O162 O 0.38991 0.38924 0.03248 0.0
O163 O 0.3189 0.42793 0.04405 0.0
C164 C 0.33804 0.35314 0.99227 0.0
O165 O 0.34238 0.33857 0.01086 0.0
C166 C 0.32299 0.37617 0.08899 0.0
O167 O 0.30159 0.38095 0.08127 0.0
O168 O 0.37736 0.42845 0.0459 0.0
C169 C 0.82971 0.11005 0.02213 0.0
O170 O 0.84005 0.13714 0.026 0.0
O171 O 0.80405 0.15483 0.07273 0.0
Zn172 Zn 0.7891 0.13119 0.03539 0.0
O173 O 0.7894 0.15457 0.00705 0.0
C174 C 0.74114 0.13168 0.04677 0.0
O175 O 0.75187 0.15879 0.05326 0.0
O176 O 0.80684 0.10192 0.02453 0.0
C177 C 0.77281 0.14688 0.98599 0.0
O178 O 0.75693 0.12215 0.98177 0.0
C179 C 0.80838 0.18148 0.07793 0.0
O180 O 0.80498 0.19417 0.05739 0.0
O181 O 0.75404 0.11432 0.03874 0.0
C182 C 0.23884 0.49209 0.23379 0.0
O183 O 0.21609 0.48247 0.23936 0.0
O184 O 0.19209 0.52557 0.19966 0.0
Zn185 Zn 0.2204 0.53923 0.23032 0.0
O186 O 0.2068 0.53908 0.26709 0.0
C187 C 0.22604 0.5962 0.22496 0.0
O188 O 0.20216 0.58748 0.21623 0.0
O189 O 0.2445 0.51575 0.22705 0.0
C190 C 0.20969 0.56125 0.28624 0.0
O191 O 0.22434 0.58496 0.28354 0.0
C192 C 0.16982 0.52386 0.20514 0.0
O193 O 0.16526 0.52928 0.23148 0.0
O194 O 0.23792 0.5787 0.23049 0.0
C195 C 0.78712 0.91684 0.53492 0.0
O196 O 0.78023 0.88932 0.53156 0.0
O197 O 0.83288 0.88745 0.57581 0.0
Zn198 Zn 0.83594 0.90588 0.54118 0.0
O199 O 0.83126 0.87942 0.50171 0.0
C200 C 0.88889 0.92026 0.54689 0.0
O201 O 0.88392 0.89324 0.54675 0.0
O202 O 0.81021 0.92904 0.54002 0.0
C203 C 0.83585 0.85536 0.49412 0.0
O204 O 0.84378 0.84339 0.51337 0.0
C205 C 0.81942 0.86329 0.57648 0.0
O206 O 0.80609 0.8475 0.55317 0.0
O207 O 0.87083 0.9318 0.54547 0.0
C208 C 0.91308 0.12874 0.29317 0.0
O209 O 0.91682 0.12913 0.32014 0.0
O210 O 0.96177 0.06567 0.2366 0.0
Zn211 Zn 0.94207 0.07373 0.27721 0.0
O212 O 0.96427 0.07607 0.31999 0.0
C213 C 0.91769 0.00942 0.27102 0.0
O214 O 0.94002 1.00722 0.26549 0.0
O215 O 0.92138 0.11015 0.27567 0.0
C216 C 0.9819 0.06489 0.32809 0.0
O217 O 0.99189 0.05064 0.30832 0.0
C218 C 0.97869 0.08055 0.22448 0.0
O219 O 0.98875 0.10675 0.23774 0.0
O220 O 0.91369 0.03433 0.27545 0.0
C221 C 0.34413 0.61919 0.50451 0.0
O222 O 0.35305 0.64657 0.50848 0.0
O223 O 0.31686 0.66295 0.55572 0.0
Zn224 Zn 0.30457 0.6406 0.51709 0.0
O225 O 0.3115 0.66564 0.49033 0.0
C226 C 0.25609 0.61334 0.5299 0.0
O227 O 0.26831 0.60253 0.54702 0.0
O228 O 0.32154 0.60971 0.50758 0.0
C229 C 0.30488 0.65405 0.4645 0.0
O230 O 0.29548 0.62666 0.45727 0.0
C231 C 0.30483 0.68101 0.56446 0.0
O232 O 0.28659 0.68375 0.54755 0.0
O233 O 0.26773 0.6281 0.51442 0.0
C234 C 0.41429 0.62652 0.76995 0.0
O235 O 0.41337 0.61668 0.74273 0.0
O236 O 0.47106 0.57904 0.74289 0.0
Zn237 Zn 0.44794 0.5784 0.78076 0.0
O238 O 0.47394 0.5815 0.82066 0.0
C239 C 0.40375 0.51802 0.76736 0.0
O240 O 0.38832 0.52749 0.75255 0.0
O241 O 0.42598 0.61465 0.7867 0.0
C242 C 0.4696 0.56729 0.84037 0.0
O243 O 0.44744 0.55021 0.8381 0.0
C244 C 0.46686 0.56458 0.71679 0.0
O245 O 0.44538 0.54597 0.70924 0.0
O246 O 0.4252 0.53479 0.77785 0.0
C247 C 0.71194 0.98104 0.75896 0.0
O248 O 0.68767 0.97606 0.75831 0.0
O249 O 0.68248 0.01319 0.70521 0.0
Zn250 Zn 0.7037 0.02849 0.74193 0.0
O251 O 0.68198 0.03514 0.77216 0.0
C252 C 0.71439 0.08151 0.72907 0.0
O253 O 0.69077 0.0719 0.71917 0.0
O254 O 0.72362 1.00267 0.7512 0.0
C255 C 0.69152 0.04618 0.7974 0.0
O256 O 0.71581 0.05297 0.80336 0.0
C257 C 0.65919 1.00311 0.70353 0.0
O258 O 0.64909 0.99828 0.72621 0.0
O259 O 0.72524 0.066 0.74043 0.0
C260 C 0.84581 0.67084 0.01218 0.0
O261 O 0.85612 0.69784 0.02172 0.0
O262 O 0.80442 0.71027 0.04817 0.0
Zn263 Zn 0.80025 0.69013 0.00619 0.0
O264 O 0.80771 0.71321 0.97545 0.0
C265 C 0.74819 0.6783 0.01 0.0
O266 O 0.75524 0.70511 0.02261 0.0
O267 O 0.82259 0.66291 1.00385 0.0
C268 C 0.80242 0.73642 0.97399 0.0
O269 O 0.79164 0.74865 0.99434 0.0
C270 C 0.80608 0.73441 0.06402 0.0
O271 O 0.80677 0.75632 0.05282 0.0
O272 O 0.76429 0.66653 0.99893 0.0
C273 C 0.89728 0.5873 0.82114 0.0
O274 O 0.92102 0.5986 0.82945 0.0
O275 O 0.92588 0.52863 0.78008 0.0
Zn276 Zn 0.90881 0.53287 0.81456 0.0
O277 O 0.93479 0.54102 0.84692 0.0
C278 C 0.86495 0.48616 0.79891 0.0
O279 O 0.8544 0.50336 0.78823 0.0
O280 O 0.88913 0.56077 0.81522 0.0
C281 C 0.94466 0.52035 0.84553 0.0
O282 O 0.93668 0.49809 0.82474 0.0
C283 C 0.94572 0.54616 0.778 0.0
O284 O 0.95388 0.56927 0.79776 0.0
O285 O 0.88657 0.4953 0.81229 0.0
C286 C 0.80559 0.48326 0.54384 0.0
O287 O 0.79569 0.45597 0.5386 0.0
O288 O 0.83993 0.43728 0.56427 0.0
Zn289 Zn 0.84574 0.46105 0.53583 0.0
O290 O 0.83441 0.43788 0.49681 0.0
C291 C 0.8926 0.45425 0.53153 0.0
O292 O 0.87885 0.42833 0.52736 0.0
O293 O 0.82882 0.49201 0.54378 0.0
C294 C 0.84604 0.4461 0.47727 0.0
O295 O 0.8625 0.47053 0.48297 0.0
C296 C 0.8295 0.41109 0.55818 0.0
O297 O 0.81982 0.39887 0.53213 0.0
O298 O 0.88237 0.47463 0.53746 0.0
C299 C 0.7253 0.46292 0.28446 0.0
O300 O 0.73091 0.4773 0.31067 0.0
O301 O 0.67216 0.51125 0.23027 0.0
Zn302 Zn 0.69365 0.51133 0.27234 0.0
O303 O 0.67455 0.51573 0.31278 0.0
C304 C 0.7165 0.57526 0.27933 0.0
O305 O 0.69293 0.57538 0.27945 0.0
O306 O 0.71179 0.47261 0.26749 0.0
C307 C 0.65229 0.51572 0.31964 0.0
O308 O 0.63455 0.51193 0.29906 0.0
C309 C 0.65393 0.52121 0.22169 0.0
O310 O 0.64214 0.53341 0.24098 0.0
O311 O 0.72202 0.55124 0.27741 0.0
Eu312 Eu 0.03775 0.01626 0.00609 0.0
C313 C 0.10592 0.1253 0.07978 0.0
C314 C 0.10834 0.1591 0.05017 0.0
C315 C 0.11309 0.1752 0.10111 0.0
C316 C 0.10446 0.131 0.05325 0.0
C317 C 0.11099 0.1474 0.10404 0.0
C318 C 0.11179 0.18104 0.0742 0.0
C319 C 0.11459 0.11344 0.13204 0.0
N320 N 0.10436 0.09834 0.08183 0.0
C321 C 0.10971 0.09229 0.10737 0.0
C322 C 0.11482 0.14106 0.13042 0.0
Eu323 Eu 0.09494 0.06339 0.03925 0.0
N324 N 0.10142 0.10936 0.03052 0.0
C325 C 0.10483 0.1147 1.00445 0.0
C326 C 0.10988 0.16443 0.02317 0.0
C327 C 0.10869 0.14217 1.0003 0.0
H328 H 0.10943 0.07093 0.10877 0.0
H329 H 0.11054 0.14611 0.97941 0.0
H330 H 0.11442 0.2027 0.07222 0.0
H331 H 0.11815 0.10841 0.15227 0.0
H332 H 0.1038 0.09779 0.98648 0.0
H333 H 0.02208 0.95393 0.08805 0.0
H334 H 0.11284 0.18569 0.01991 0.0
H335 H 0.0307 0.9898 0.93521 0.0
H336 H 0.0276 0.9959 0.06971 0.0
H337 H 0.03083 0.94587 0.90197 0.0
H338 H 0.11667 0.19243 0.11949 0.0
H339 H 0.02335 0.9087 0.05756 0.0
H340 H 0.02723 0.88147 0.01023 0.0
H341 H 0.11876 0.15745 0.14955 0.0
H342 H 0.03081 0.87951 0.96004 0.0
N343 N 0.03208 0.9762 0.02759 0.0
C344 C 0.02796 0.97695 0.05517 0.0
C345 C 0.02556 0.92733 0.04888 0.0
C346 C 0.02881 0.92611 0.02058 0.0
C347 C 0.02482 0.95279 0.06612 0.0
C348 C 0.03173 0.95105 0.01022 0.0
H349 H 0.03221 0.90322 0.91966 0.0
N350 N 0.03544 0.97367 0.97201 0.0
C351 C 0.03225 0.94676 0.9244 0.0
C352 C 0.03396 0.94989 0.98188 0.0
C353 C 0.03281 0.97183 0.94341 0.0
C354 C 0.03293 0.92278 0.93446 0.0
C355 C 0.03303 0.92388 0.96334 0.0
O356 O 1.00379 0.99526 0.97881 0.0
O357 O 0.05738 0.06276 0.01774 0.0
O358 O 0.06716 0.06995 0.07214 0.0
O359 O 0.03148 0.03485 0.05281 0.0
O360 O 0.0383 0.04695 0.97764 0.0
O361 O 1.00213 0.02622 0.01679 0.0
O362 O 0.1277 0.05446 0.05895 0.0
O363 O 0.07568 0.01715 0.02481 0.0
O364 O 0.06393 0.01894 0.97064 0.0
O365 O 0.10084 0.05042 0.99177 0.0
O366 O 0.09299 0.03028 0.06565 0.0
O367 O 0.13059 0.07345 0.02267 0.0
C368 C 0.05109 0.06968 0.99479 0.0
C369 C 0.96324 1.0008 0.98656 0.0
C370 C 0.92436 0.01486 0.9851 0.0
C371 C 0.94975 0.02081 0.99466 0.0
C372 C 0.9125 0.98826 0.96796 0.0
C373 C 0.95118 0.97428 0.96954 0.0
C374 C 0.92586 0.96804 0.96045 0.0
C375 C 0.04435 0.05525 0.07441 0.0
C376 C 0.99011 1.00797 0.99437 0.0
C377 C 0.03124 0.8995 0.97392 0.0
C378 C 0.02909 0.9006 1.00245 0.0
C379 C 0.0814 1.00847 0.04667 0.0
C380 C 0.16742 0.07985 0.05293 0.0
C381 C 0.18616 0.06563 0.04875 0.0
C382 C 0.2108 0.07873 0.06026 0.0
C383 C 0.21659 0.10691 0.07542 0.0
C384 C 0.1732 0.10782 0.06826 0.0
C385 C 0.19783 0.12134 0.07933 0.0
C386 C 0.08712 0.03288 0.96906 0.0
C387 C 0.14212 0.06417 0.04143 0.0
H388 H 0.95912 0.04114 0.00801 0.0
H389 H 0.89301 0.98323 0.95994 0.0
H390 H 0.96136 0.95848 0.96309 0.0
H391 H 0.91665 0.94766 0.94719 0.0
H392 H 0.18139 0.04412 0.03641 0.0
H393 H 0.23543 0.11757 0.08468 0.0
H394 H 0.15878 0.11904 0.07169 0.0
H395 H 0.20236 0.14295 0.09121 0.0
Eu396 Eu 0.33588 0.77605 0.23598 0.0
C397 C 0.32195 0.87714 0.31565 0.0
C398 C 0.35708 0.89599 0.35179 0.0
C399 C 0.33663 0.92793 0.33383 0.0
C400 C 0.34035 0.87275 0.33328 0.0
C401 C 0.31929 0.9048 0.31663 0.0
C402 C 0.35565 0.92353 0.35123 0.0
C403 C 0.28056 0.88482 0.28688 0.0
N404 N 0.30537 0.85433 0.29932 0.0
C405 C 0.28379 0.85798 0.28704 0.0
C406 C 0.29872 0.90842 0.30116 0.0
Eu407 Eu 0.31205 0.80862 0.3001 0.0
N408 N 0.34061 0.84583 0.33411 0.0
C409 C 0.35496 0.84117 0.35581 0.0
C410 C 0.37403 0.89088 0.37128 0.0
C411 C 0.37252 0.86333 0.37378 0.0
H412 H 0.26821 0.84052 0.27828 0.0
H413 H 0.38439 0.85917 0.39008 0.0
H414 H 0.36855 0.94154 0.36498 0.0
H415 H 0.26365 0.88723 0.27644 0.0
H416 H 0.35277 0.82045 0.36005 0.0
H417 H 0.25146 0.71628 0.16361 0.0
H418 H 0.3873 0.9081 0.38562 0.0
H419 H 0.38138 0.74877 0.26287 0.0
H420 H 0.28197 0.75777 0.18841 0.0
H421 H 0.38834 0.70379 0.26696 0.0
H422 H 0.33513 0.94925 0.33436 0.0
H423 H 0.25644 0.66918 0.16634 0.0
H424 H 0.28143 0.63986 0.18425 0.0
H425 H 0.29604 0.92925 0.30136 0.0
H426 H 0.31812 0.63643 0.21266 0.0
N427 N 0.3037 0.73632 0.21024 0.0
C428 C 0.28425 0.73823 0.19244 0.0
C429 C 0.26985 0.68775 0.17851 0.0
C430 C 0.29038 0.68549 0.19505 0.0
C431 C 0.26686 0.71425 0.17713 0.0
C432 C 0.30727 0.71038 0.2109 0.0
H433 H 0.35747 0.65987 0.24383 0.0
N434 N 0.34418 0.73243 0.24199 0.0
C435 C 0.37094 0.70469 0.25633 0.0
C436 C 0.32793 0.7084 0.22717 0.0
C437 C 0.36627 0.73063 0.25489 0.0
C438 C 0.35362 0.68001 0.24302 0.0
C439 C 0.33216 0.68157 0.22761 0.0
O440 O 0.37274 0.77649 0.22329 0.0
O441 O 0.3397 0.81456 0.26977 0.0
O442 O 0.28582 0.80517 0.25973 0.0
O443 O 0.30586 0.79477 0.21992 0.0
O444 O 0.34384 0.8207 0.22919 0.0
O445 O 0.34156 0.7706 0.19158 0.0
O446 O 0.27234 0.7991 0.30364 0.0
O447 O 0.30802 0.76941 0.26641 0.0
O448 O 0.36611 0.78731 0.27403 0.0
O449 O 0.3465 0.79455 0.31462 0.0
O450 O 0.31086 0.76575 0.30846 0.0
O451 O 0.29847 0.80782 0.34103 0.0
C452 C 0.34378 0.83282 0.25516 0.0
C453 C 0.38219 0.78754 0.17983 0.0
C454 C 0.39463 0.8245 0.15413 0.0
C455 C 0.37826 0.81142 0.17103 0.0
C456 C 0.4148 0.81327 0.14618 0.0
C457 C 0.40251 0.77689 0.17193 0.0
C458 C 0.41872 0.78971 0.15517 0.0
C459 C 0.28728 0.80253 0.23223 0.0
C460 C 0.36529 0.77255 0.19659 0.0
C461 C 0.31518 0.65705 0.21229 0.0
C462 C 0.29435 0.65901 0.19606 0.0
C463 C 0.30762 0.7524 0.28245 0.0
C464 C 0.25969 0.77485 0.33865 0.0
C465 C 0.27032 0.75632 0.35061 0.0
C466 C 0.25519 0.73218 0.35673 0.0
C467 C 0.22925 0.72679 0.351 0.0
C468 C 0.23374 0.76928 0.33326 0.0
C469 C 0.21862 0.74535 0.33943 0.0
C470 C 0.36579 0.78965 0.30166 0.0
C471 C 0.27519 0.79927 0.33036 0.0
H472 H 0.36262 0.81974 0.17729 0.0
H473 H 0.42733 0.82239 0.13256 0.0
H474 H 0.40568 0.75841 0.17854 0.0
H475 H 0.43422 0.7812 0.14888 0.0
H476 H 0.29033 0.76042 0.3549 0.0
H477 H 0.21717 0.70855 0.35602 0.0
H478 H 0.2252 0.78334 0.32403 0.0
H479 H 0.19862 0.74118 0.33525 0.0
Eu480 Eu 0.59822 0.04706 0.50815 0.0
C481 C 0.5225 1.00479 0.58965 0.0
C482 C 0.49735 0.95861 0.56593 0.0
C483 C 0.50619 0.97044 0.61699 0.0
C484 C 0.51163 0.98558 0.56504 0.0
C485 C 0.51965 0.99759 0.61597 0.0
C486 C 0.49506 0.95097 0.592 0.0
C487 C 0.54251 0.04504 0.63836 0.0
N488 N 0.5353 0.03085 0.58786 0.0
C489 C 0.54478 0.0512 0.61178 0.0
C490 C 0.53007 0.01805 0.64048 0.0
Eu491 Eu 0.53942 0.03913 0.54191 0.0
N492 N 0.51399 0.99376 0.54029 0.0
C493 C 0.50094 0.97682 0.51588 0.0
C494 C 0.48525 0.94043 0.54067 0.0
C495 C 0.48677 0.94976 0.51557 0.0
H496 H 0.55466 0.07206 0.61053 0.0
H497 H 0.47696 0.93619 0.49599 0.0
H498 H 0.48431 0.93029 0.59311 0.0
H499 H 0.55042 0.0611 0.65719 0.0
H500 H 0.50157 0.98402 0.49646 0.0
H501 H 0.65433 0.15229 0.55818 0.0
H502 H 0.47415 0.91951 0.54043 0.0
H503 H 0.58905 0.01396 0.44028 0.0
H504 H 0.63031 0.10371 0.55626 0.0
H505 H 0.59626 0.02511 0.39383 0.0
H506 H 0.50392 0.96445 0.637 0.0
H507 H 0.66004 0.16912 0.51408 0.0
H508 H 0.65355 0.15831 0.46102 0.0
H509 H 0.52833 0.01334 0.66111 0.0
H510 H 0.63779 0.12367 0.41627 0.0
N511 N 0.62188 0.09353 0.51167 0.0
C512 C 0.63269 0.11086 0.5369 0.0
C513 C 0.64944 0.14781 0.51314 0.0
C514 C 0.6394 0.12938 0.48724 0.0
C515 C 0.64632 0.13838 0.53807 0.0
C516 C 0.62565 0.10194 0.48722 0.0
H517 H 0.61668 0.07382 0.39099 0.0
N518 N 0.60475 0.056 0.46314 0.0
C519 C 0.60205 0.04149 0.41287 0.0
C520 C 0.61677 0.08254 0.46212 0.0
C521 C 0.59805 0.03522 0.43914 0.0
C522 C 0.61352 0.06903 0.41135 0.0
C523 C 0.62138 0.08989 0.4362 0.0
O524 O 0.61983 0.01627 0.49555 0.0
O525 O 0.56496 0.01747 0.51779 0.0
O526 O 0.56806 0.02627 0.56767 0.0
O527 O 0.60251 0.05561 0.55591 0.0
O528 O 0.58474 1.00014 0.48809 0.0
O529 O 0.63481 0.05165 0.53061 0.0
O530 O 0.51981 0.07206 0.55466 0.0
O531 O 0.57062 0.06917 0.52815 0.0
O532 O 0.56805 0.05316 0.4782 0.0
O533 O 0.53404 0.02669 0.49433 0.0
O534 O 0.55825 0.08411 0.56547 0.0
O535 O 0.50256 0.03637 0.52113 0.0
C536 C 0.56636 0.99419 0.50232 0.0
C537 C 0.66332 0.03252 0.50389 0.0
C538 C 0.70343 0.02029 0.50248 0.0
C539 C 0.68016 0.01799 0.51291 0.0
C540 C 0.70929 0.03706 0.48268 0.0
C541 C 0.66969 0.04918 0.48428 0.0
C542 C 0.69254 0.05136 0.47371 0.0
C543 C 0.59204 0.03865 0.57168 0.0
C544 C 0.63885 0.02944 0.51426 0.0
C545 C 0.63422 0.11753 0.43599 0.0
C546 C 0.6432 0.13725 0.46147 0.0
C547 C 0.5734 0.09101 0.54778 0.0
C548 C 0.47604 0.05829 0.54843 0.0
C549 C 0.45903 0.0722 0.53846 0.0
C550 C 0.43604 0.07098 0.54944 0.0
C551 C 0.43069 0.05598 0.57077 0.0
C552 C 0.47013 0.0434 0.56955 0.0
C553 C 0.4476 0.04235 0.58067 0.0
C554 C 0.54412 0.04032 0.47569 0.0
C555 C 0.49999 0.05952 0.53699 0.0
H556 H 0.67523 1.00518 0.52815 0.0
H557 H 0.72677 0.03887 0.47381 0.0
H558 H 0.65692 0.06031 0.47699 0.0
H559 H 0.69726 0.0641 0.4584 0.0
H560 H 0.46356 0.08359 0.52201 0.0
H561 H 0.41348 0.05504 0.58009 0.0
H562 H 0.483 0.03269 0.57749 0.0
H563 H 0.44323 0.03096 0.59712 0.0
Eu564 Eu 0.28882 0.29782 0.77311 0.0
C565 C 0.3727 0.26229 0.82287 0.0
C566 C 0.3869 0.29624 0.86733 0.0
C567 C 0.38879 0.24761 0.86352 0.0
C568 C 0.37642 0.28954 0.83889 0.0
C569 C 0.37997 0.24144 0.83475 0.0
C570 C 0.39214 0.27492 0.87981 0.0
C571 C 0.37278 0.21117 0.78812 0.0
N572 N 0.36422 0.25687 0.79504 0.0
C573 C 0.36573 0.23243 0.77728 0.0
C574 C 0.37937 0.21544 0.81708 0.0
Eu575 Eu 0.35251 0.2944 0.77906 0.0
N576 N 0.37176 0.30994 0.82615 0.0
C577 C 0.3792 0.33766 0.83987 0.0
C578 C 0.39284 0.32439 0.88209 0.0
C579 C 0.38949 0.34524 0.8681 0.0
H580 H 0.36025 0.22891 0.75489 0.0
H581 H 0.39467 0.36717 0.87909 0.0
H582 H 0.39983 0.27963 0.90174 0.0
H583 H 0.373 0.19147 0.77417 0.0
H584 H 0.37671 0.35414 0.82958 0.0
H585 H 0.24802 0.2264 0.6719 0.0
H586 H 0.40082 0.33035 0.90397 0.0
H587 H 0.28075 0.36279 0.79843 0.0
H588 H 0.26601 0.23876 0.72136 0.0
H589 H 0.26711 0.40031 0.78019 0.0
H590 H 0.39402 0.23169 0.87312 0.0
H591 H 0.24065 0.26352 0.64811 0.0
H592 H 0.24046 0.31412 0.65154 0.0
H593 H 0.38488 0.19894 0.82543 0.0
H594 H 0.24561 0.36154 0.68104 0.0
N595 N 0.26987 0.28295 0.72585 0.0
C596 C 0.26301 0.25538 0.71156 0.0
C597 C 0.24868 0.2692 0.66997 0.0
C598 C 0.2541 0.29713 0.68527 0.0
C599 C 0.25272 0.24817 0.68334 0.0
C600 C 0.2647 0.30347 0.71365 0.0
H601 H 0.2547 0.39354 0.72913 0.0
N602 N 0.27671 0.33549 0.75791 0.0
C603 C 0.2675 0.38089 0.76587 0.0
C604 C 0.26806 0.33044 0.73016 0.0
C605 C 0.27507 0.35959 0.77613 0.0
C606 C 0.26061 0.37701 0.73702 0.0
C607 C 0.26029 0.35136 0.71887 0.0
O608 O 0.26586 0.31198 0.80513 0.0
O609 O 0.32485 0.31268 0.80252 0.0
O610 O 0.32678 0.25201 0.7853 0.0
O611 O 0.28677 0.25061 0.76738 0.0
O612 O 0.29418 0.29104 0.81726 0.0
O613 O 0.25059 0.27412 0.77268 0.0
O614 O 0.3748 0.2792 0.7468 0.0
O615 O 0.31654 0.2796 0.74974 0.0
O616 O 0.31442 0.34054 0.76732 0.0
O617 O 0.35471 0.3416 0.78416 0.0
O618 O 0.34697 0.30157 0.73504 0.0
O619 O 0.391 0.31705 0.77896 0.0
C620 C 0.31701 0.30424 0.82384 0.0
C621 C 0.22206 0.29846 0.79323 0.0
C622 C 0.18255 0.29889 0.81257 0.0
C623 C 0.20622 0.29308 0.81392 0.0
C624 C 0.17531 0.31059 0.79035 0.0
C625 C 0.21419 0.3097 0.77113 0.0
C626 C 0.19101 0.3159 0.76985 0.0
C627 C 0.30289 0.23821 0.77755 0.0
C628 C 0.24635 0.29142 0.79462 0.0
C629 C 0.25125 0.34557 0.69019 0.0
C630 C 0.24827 0.31854 0.6734 0.0
C631 C 0.3242 0.28809 0.72839 0.0
C632 C 0.41861 0.29149 0.7581 0.0
C633 C 0.43429 0.29621 0.73712 0.0
C634 C 0.45751 0.28928 0.73794 0.0
C635 C 0.46445 0.27716 0.75998 0.0
C636 C 0.42624 0.27992 0.78006 0.0
C637 C 0.44896 0.27263 0.78084 0.0
C638 C 0.33844 0.35417 0.77454 0.0
C639 C 0.39468 0.29934 0.75701 0.0
H640 H 0.21215 0.28385 0.83068 0.0
H641 H 0.15755 0.31592 0.78891 0.0
H642 H 0.2258 0.3135 0.75476 0.0
H643 H 0.18514 0.32478 0.75282 0.0
H644 H 0.42856 0.30575 0.72053 0.0
H645 H 0.48181 0.27091 0.76102 0.0
H646 H 0.41477 0.27667 0.79668 0.0
H647 H 0.45461 0.26346 0.79774 0.0
Eu648 Eu 0.06654 0.07437 0.53937 0.0
C649 C 0.0912 0.98388 0.44882 0.0
C650 C 0.05898 0.97706 0.41039 0.0
C651 C 0.09884 0.96774 0.40049 0.0
C652 C 0.0677 0.98545 0.43941 0.0
C653 C 0.1067 0.97403 0.42953 0.0
C654 C 0.07499 0.96923 0.39094 0.0
C655 C 0.13464 0.97282 0.46909 0.0
N656 N 0.0979 0.98923 0.47701 0.0
C657 C 0.11847 0.98221 0.48733 0.0
C658 C 0.129 0.9693 0.44006 0.0
Eu659 Eu 0.07015 1.00606 0.50667 0.0
N660 N 0.05254 0.99256 0.45879 0.0
C661 C 0.02779 0.98895 0.45078 0.0
C662 C 0.03406 0.97539 0.40192 0.0
C663 C 0.01828 0.98077 0.42227 0.0
H664 H 0.12281 0.98462 0.50973 0.0
H665 H 0.9988 0.97873 0.41604 0.0
H666 H 0.06874 0.96313 0.36854 0.0
H667 H 0.15136 0.9682 0.47742 0.0
H668 H 0.01533 0.99291 0.46626 0.0
H669 H 0.14231 0.10528 0.62587 0.0
H670 H 0.02664 0.96898 0.37985 0.0
H671 H 0.01104 0.08969 0.53936 0.0
H672 H 0.12319 0.08832 0.57684 0.0
H673 H 0.98399 0.10652 0.57338 0.0
H674 H 0.11062 0.96051 0.38533 0.0
H675 H 0.11689 0.11821 0.6637 0.0
H676 H 0.07572 0.12505 0.67753 0.0
H677 H 0.14142 0.96173 0.42594 0.0
H678 H 0.03253 0.12522 0.66328 0.0
N679 N 0.08674 0.09061 0.5863 0.0
C680 C 0.11166 0.09381 0.59286 0.0
C681 C 0.10829 0.11068 0.64208 0.0
C682 C 0.08311 0.1089 0.6351 0.0
C683 C 0.1227 0.10348 0.62079 0.0
C684 C 0.07281 0.09892 0.60661 0.0
H685 H 0.99829 0.11875 0.62448 0.0
N686 N 0.03997 0.09125 0.57087 0.0
C687 C 1.00207 0.10439 0.58082 0.0
C688 C 0.0486 0.09908 0.59866 0.0
C689 C 0.01746 0.09486 0.56161 0.0
C690 C 0.01017 0.11118 0.60963 0.0
C691 C 0.03389 0.10912 0.61886 0.0
O692 O 0.05727 0.10902 0.52363 0.0
O693 O 0.06245 0.04585 0.49567 0.0
O694 O 0.10549 0.03336 0.49707 0.0
O695 O 0.10611 0.07498 0.52878 0.0
O696 O 0.03493 0.06654 0.50412 0.0
O697 O 0.0953 0.11224 0.5398 0.0
O698 O 0.07394 0.97343 0.52925 0.0
O699 O 0.07395 0.03465 0.55026 0.0
O700 O 0.03323 0.04561 0.55173 0.0
O701 O 0.03076 1.00614 0.51639 0.0
O702 O 0.1013 0.01353 0.54251 0.0
O703 O 0.04412 0.96451 0.49565 0.0
C704 C 0.04264 0.05067 0.48425 0.0
C705 C 0.08285 0.15435 0.54182 0.0
C706 C 0.09397 0.20239 0.53571 0.0
C707 C 0.0907 0.17349 0.52513 0.0
C708 C 0.08942 0.21202 0.56353 0.0
C709 C 0.07819 0.1639 0.5695 0.0
C710 C 0.08148 0.19277 0.58029 0.0
C711 C 0.11682 0.05922 0.51084 0.0
C712 C 0.07988 0.12465 0.52937 0.0
C713 C 0.04362 0.1177 0.64742 0.0
C714 C 0.06821 0.11761 0.65552 0.0
C715 C 0.0937 0.03002 0.56204 0.0
C716 C 0.06142 0.92715 0.50284 0.0
C717 C 0.06186 0.90947 0.52154 0.0
C718 C 0.06764 0.88342 0.51303 0.0
C719 C 0.07367 0.87553 0.48554 0.0
C720 C 0.06712 0.91899 0.47529 0.0
C721 C 0.07339 0.89331 0.46679 0.0
C722 C 0.02128 0.02041 0.53685 0.0
C723 C 0.05592 0.95435 0.51333 0.0
H724 H 0.09465 0.16581 0.50388 0.0
H725 H 0.0918 0.23431 0.57215 0.0
H726 H 0.07214 0.14922 0.58265 0.0
H727 H 0.07791 0.20022 0.60167 0.0
H728 H 0.05785 0.91621 0.54295 0.0
H729 H 0.0781 0.85547 0.47841 0.0
H730 H 0.06678 0.93235 0.46045 0.0
H731 H 0.07787 0.88709 0.44556 0.0
Eu732 Eu 0.34701 0.81256 0.77149 0.0
C733 C 0.27967 0.73244 0.82119 0.0
C734 C 0.29134 0.68987 0.7999 0.0
C735 C 0.27695 0.69456 0.84618 0.0
C736 C 0.28887 0.71719 0.79923 0.0
C737 C 0.27248 0.72069 0.84426 0.0
C738 C 0.28642 0.67918 0.82403 0.0
C739 C 0.25275 0.75869 0.85886 0.0
N740 N 0.27491 0.7572 0.81829 0.0
C741 C 0.26016 0.76939 0.83553 0.0
C742 C 0.25953 0.73465 0.86369 0.0
Eu743 Eu 0.28843 0.77423 0.77868 0.0
N744 N 0.29258 0.7277 0.77585 0.0
C745 C 0.29611 0.71094 0.75145 0.0
C746 C 0.29705 0.67341 0.77563 0.0
C747 C 0.29869 0.68368 0.75105 0.0
H748 H 0.25505 0.78809 0.83187 0.0
H749 H 0.30212 0.67073 0.73183 0.0
H750 H 0.28859 0.65841 0.82513 0.0
H751 H 0.24187 0.76902 0.87311 0.0
H752 H 0.29737 0.71874 0.7324 0.0
H753 H 0.35546 0.91799 0.83824 0.0
H754 H 0.29903 0.65228 0.77525 0.0
H755 H 0.35364 0.80004 0.70067 0.0
H756 H 0.36153 0.8704 0.82737 0.0
H757 H 0.34476 0.81942 0.66005 0.0
H758 H 0.27196 0.68541 0.864 0.0
H759 H 0.34066 0.93842 0.80021 0.0
H760 H 0.32982 0.93406 0.74867 0.0
H761 H 0.2536 0.72627 0.88165 0.0
H762 H 0.32675 0.90709 0.70002 0.0
N763 N 0.34708 0.86145 0.78397 0.0
C764 C 0.35362 0.87791 0.81066 0.0
C765 C 0.34267 0.91698 0.79537 0.0
C766 C 0.33853 0.90124 0.76764 0.0
C767 C 0.35087 0.90549 0.81688 0.0
C768 C 0.34126 0.87329 0.76245 0.0
H769 H 0.3325 0.86456 0.6668 0.0
N770 N 0.34357 0.83191 0.7307 0.0
C771 C 0.34266 0.83029 0.68096 0.0
C772 C 0.3393 0.85801 0.73505 0.0
C773 C 0.34718 0.81906 0.70424 0.0
C774 C 0.33582 0.85576 0.68486 0.0
C775 C 0.33488 0.87043 0.71219 0.0
O776 O 0.3785 0.80686 0.74874 0.0
O777 O 0.32749 0.76725 0.77135 0.0
O778 O 0.30643 0.79141 0.82362 0.0
O779 O 0.34219 0.82291 0.81756 0.0
O780 O 0.35938 0.78408 0.79846 0.0
O781 O 0.38497 0.83359 0.79074 0.0
O782 O 0.25082 0.78028 0.775 0.0
O783 O 0.30632 0.81569 0.76714 0.0
O784 O 0.33304 0.77667 0.73341 0.0
O785 O 0.29162 0.77435 0.73295 0.0
O786 O 0.2828 0.81782 0.798 0.0
O787 O 0.25841 0.74321 0.75003 0.0
C788 C 0.34351 0.76042 0.78757 0.0
C789 C 0.41728 0.84053 0.7617 0.0
C790 C 0.46228 0.85594 0.76994 0.0
C791 C 0.43965 0.84239 0.77751 0.0
C792 C 0.46243 0.86813 0.7464 0.0
C793 C 0.41733 0.85317 0.73848 0.0
C794 C 0.43994 0.86705 0.73096 0.0
C795 C 0.32641 0.81191 0.83364 0.0
C796 C 0.39487 0.82305 0.76902 0.0
C797 C 0.33063 0.8975 0.71733 0.0
C798 C 0.33243 0.91287 0.74501 0.0
C799 C 0.29528 0.83264 0.78235 0.0
C800 C 0.21838 0.73942 0.76456 0.0
C801 C 0.196 0.74547 0.75652 0.0
C802 C 0.1735 0.73107 0.76396 0.0
C803 C 0.17379 0.71039 0.77971 0.0
C804 C 0.21835 0.71841 0.7798 0.0
C805 C 0.19611 0.70407 0.78744 0.0
C806 C 0.31054 0.7699 0.71983 0.0
C807 C 0.24146 0.75621 0.7577 0.0
H808 H 0.43953 0.83216 0.79518 0.0
H809 H 0.47983 0.87844 0.74008 0.0
H810 H 0.40011 0.85187 0.72599 0.0
H811 H 0.44007 0.87657 0.71289 0.0
H812 H 0.19619 0.76128 0.74415 0.0
H813 H 0.15683 0.69919 0.78617 0.0
H814 H 0.2354 0.71314 0.78584 0.0
H815 H 0.19618 0.68807 0.79945 0.0
Eu816 Eu 0.57169 0.0323 0.05363 0.0
C817 C 0.4919 0.01442 0.96551 0.0
C818 C 0.48805 0.97176 0.93009 0.0
C819 C 0.45099 0.9835 0.94723 0.0
C820 C 0.50284 0.99617 0.94881 0.0
C821 C 0.46573 1.00881 0.96414 0.0
C822 C 0.46216 0.96493 0.93026 0.0
C823 C 0.47048 0.05469 0.99405 0.0
N824 N 0.50678 0.03859 0.98168 0.0
C825 C 0.49627 0.05922 0.9948 0.0
C826 C 0.45512 0.02913 0.97914 0.0
Eu827 Eu 0.55085 0.04356 0.98376 0.0
N828 N 0.52779 1.00378 0.94878 0.0
C829 C 0.53858 0.99021 0.92768 0.0
C830 C 0.4996 0.95586 0.91068 0.0
C831 C 0.52491 0.96559 0.90894 0.0
H832 H 0.50726 0.07953 0.00576 0.0
H833 H 0.53386 0.95429 0.89308 0.0
H834 H 0.45053 0.94601 0.91643 0.0
H835 H 0.46249 0.071 1.00501 0.0
H836 H 0.55805 0.99807 0.92579 0.0
H837 H 0.63838 0.13284 0.09918 0.0
H838 H 0.48895 0.93695 0.89598 0.0
H839 H 0.57524 0.96762 0.05782 0.0
H840 H 0.5984 0.10184 0.07592 0.0
H841 H 0.60647 0.94338 0.07231 0.0
H842 H 0.43092 0.97856 0.94642 0.0
H843 H 0.6733 0.1125 0.11066 0.0
H844 H 0.68915 0.06945 0.11132 0.0
H845 H 0.43515 0.02563 0.97869 0.0
H846 H 0.6806 0.01781 0.10358 0.0
N847 N 0.61013 0.0639 0.07418 0.0
C848 C 0.61321 0.09245 0.081 0.0
C849 C 0.65564 0.09867 0.10061 0.0
C850 C 0.65214 0.06939 0.0944 0.0
C851 C 0.63596 0.11022 0.09423 0.0
C852 C 0.62876 0.05233 0.08132 0.0
H853 H 0.6497 0.97066 0.08956 0.0
N854 N 0.6009 1.00777 0.06583 0.0
C855 C 0.61173 0.96583 0.07346 0.0
C856 C 0.62404 0.02334 0.07685 0.0
C857 C 0.59414 0.97956 0.06528 0.0
C858 C 0.63612 0.9813 0.08312 0.0
C859 C 0.64242 0.0105 0.08545 0.0
O860 O 0.55163 1.00785 0.08108 0.0
O861 O 0.53983 0.02879 0.02189 0.0
O862 O 0.5482 0.08123 0.01709 0.0
O863 O 0.55778 0.07131 0.06065 0.0
O864 O 0.54077 0.99304 0.03637 0.0
O865 O 0.56507 0.05322 0.09495 0.0
O866 O 0.55243 0.0853 0.97552 0.0
O867 O 0.5809 0.05542 0.01965 0.0
O868 O 0.58711 1.00421 0.02185 0.0
O869 O 0.56531 1.00316 0.97854 0.0
O870 O 0.59164 0.0485 0.979 0.0
O871 O 0.55798 0.0524 0.94257 0.0
C872 C 0.52766 1.00412 0.02122 0.0
C873 C 0.56126 0.02713 0.12992 0.0
C874 C 0.55337 0.0351 0.17882 0.0
C875 C 0.54768 0.03687 0.15096 0.0
C876 C 0.57338 0.02389 0.18558 0.0
C877 C 0.58122 0.01594 0.13664 0.0
C878 C 0.58724 0.01436 0.16448 0.0
C879 C 0.55012 0.08692 0.04493 0.0
C880 C 0.55414 0.02983 0.10151 0.0
C881 C 0.66613 0.02729 0.09713 0.0
C882 C 0.67098 0.0567 0.10159 0.0
C883 C 0.59918 0.05592 0.0056 0.0
C884 C 0.5838 0.09823 0.94677 0.0
C885 C 0.59991 0.08787 0.92875 0.0
C886 C 0.62278 0.10537 0.92562 0.0
C887 C 0.62949 0.13349 0.94091 0.0
C888 C 0.59082 0.12652 0.96161 0.0
C889 C 0.61357 0.14393 0.95874 0.0
C890 C 0.58034 0.99371 0.99467 0.0
C891 C 0.56034 0.07933 0.95107 0.0
H892 H 0.53268 0.04614 0.14556 0.0
H893 H 0.57806 0.02217 0.20696 0.0
H894 H 0.59213 1.00859 0.12062 0.0
H895 H 0.60261 1.00566 0.16968 0.0
H896 H 0.59486 0.06602 0.91744 0.0
H897 H 0.64681 0.1476 0.93866 0.0
H898 H 0.57883 0.13512 0.97566 0.0
H899 H 0.61884 0.16567 0.97032 0.0
Eu900 Eu 0.35025 0.3236 0.2946 0.0
C901 C 0.24563 0.26975 0.24683 0.0
C902 C 0.2234 0.26413 0.28725 0.0
C903 C 0.20283 0.274 0.2464 0.0
C904 C 0.24531 0.2649 0.27389 0.0
C905 C 0.2239 0.27299 0.23243 0.0
C906 C 0.20256 0.26954 0.27373 0.0
C907 C 0.24325 0.26805 0.18961 0.0
N908 N 0.26606 0.26826 0.23344 0.0
C909 C 0.26422 0.2648 0.20465 0.0
C910 C 0.2233 0.27312 0.20375 0.0
Eu911 Eu 0.30073 0.26138 0.26008 0.0
N912 N 0.26559 0.25908 0.2864 0.0
C913 C 0.26402 0.25036 0.31133 0.0
C914 C 0.22268 0.25718 0.31354 0.0
C915 C 0.24294 0.24987 0.3254 0.0
H916 H 0.27934 0.26038 0.19318 0.0
H917 H 0.24226 0.24346 0.34532 0.0
H918 H 0.18584 0.26944 0.28393 0.0
H919 H 0.24249 0.26651 0.16709 0.0
H920 H 0.27838 0.24301 0.32084 0.0
H921 H 0.40987 0.32777 0.20943 0.0
H922 H 0.2063 0.25658 0.32446 0.0
H923 H 0.36763 0.32484 0.36342 0.0
H924 H 0.37102 0.32354 0.23007 0.0
H925 H 0.40276 0.31924 0.39256 0.0
H926 H 0.18621 0.27694 0.23579 0.0
H927 H 0.44747 0.32439 0.2369 0.0
H928 H 0.46727 0.31737 0.28134 0.0
H929 H 0.20694 0.27539 0.19201 0.0
H930 H 0.46468 0.31261 0.33024 0.0
N931 N 0.38595 0.32126 0.27046 0.0
C932 C 0.38719 0.3241 0.24326 0.0
C933 C 0.43042 0.32362 0.24656 0.0
C934 C 0.42912 0.3199 0.2741 0.0
C935 C 0.40933 0.32572 0.23108 0.0
C936 C 0.40642 0.31903 0.28579 0.0
H937 H 0.44077 0.31287 0.3716 0.0
N938 N 0.38332 0.31699 0.3246 0.0
C939 C 0.40347 0.31764 0.37018 0.0
C940 C 0.40488 0.31613 0.31332 0.0
C941 C 0.38323 0.32006 0.35323 0.0
C942 C 0.42488 0.31418 0.3583 0.0
C943 C 0.42612 0.31434 0.32983 0.0
O944 O 0.35382 0.35542 0.33341 0.0
O945 O 0.31059 0.30046 0.29334 0.0
O946 O 0.30679 0.29448 0.23268 0.0
O947 O 0.33878 0.33416 0.2533 0.0
O948 O 0.31698 0.34251 0.29375 0.0
O949 O 0.37083 0.367 0.29742 0.0
O950 O 0.30203 0.23344 0.21988 0.0
O951 O 0.34074 0.28389 0.26113 0.0
O952 O 0.33921 0.29437 0.32533 0.0
O953 O 0.31394 0.25097 0.30071 0.0
O954 O 0.33315 0.24188 0.26383 0.0
O955 O 0.27806 0.21834 0.24986 0.0
C956 C 0.30014 0.32025 0.29397 0.0
C957 C 0.35799 0.40199 0.32899 0.0
C958 C 0.33111 0.43099 0.31736 0.0
C959 C 0.33986 0.40673 0.31049 0.0
C960 C 0.34109 0.45111 0.34234 0.0
C961 C 0.36772 0.42201 0.35409 0.0
C962 C 0.35939 0.4466 0.36063 0.0
C963 C 0.3212 0.31965 0.23262 0.0
C964 C 0.36616 0.37581 0.32309 0.0
C965 C 0.44833 0.31415 0.31789 0.0
C966 C 0.44986 0.31704 0.29013 0.0
C967 C 0.35039 0.26355 0.26255 0.0
C968 C 0.29314 0.18499 0.21914 0.0
C969 C 0.30433 0.17497 0.24025 0.0
C970 C 0.3097 0.14856 0.23383 0.0
C971 C 0.30408 0.13236 0.20606 0.0
C972 C 0.2877 0.16876 0.19149 0.0
C973 C 0.29321 0.14252 0.18499 0.0
C974 C 0.32732 0.26771 0.32388 0.0
C975 C 0.28654 0.21201 0.22568 0.0
H976 H 0.33259 0.39181 0.29072 0.0
H977 H 0.33452 0.47008 0.34777 0.0
H978 H 0.38166 0.41856 0.36866 0.0
H979 H 0.36695 0.46204 0.38 0.0
H980 H 0.30844 0.18743 0.26169 0.0
H981 H 0.30839 0.11202 0.20061 0.0
H982 H 0.27908 0.17634 0.175 0.0
H983 H 0.28901 0.13002 0.16361 0.0
Eu984 Eu 0.56966 0.58162 0.04541 0.0
C985 C 0.59876 0.4984 0.95017 0.0
C986 C 0.56604 0.48842 0.91151 0.0
C987 C 0.60763 0.4851 0.90184 0.0
C988 C 0.5744 0.4967 0.94062 0.0
C989 C 0.61549 0.49189 0.9309 0.0
C990 C 0.58295 0.48341 0.89215 0.0
C991 C 0.64571 0.49631 0.97052 0.0
N992 N 0.60565 0.50456 0.9784 0.0
C993 C 0.62847 0.50264 0.9888 0.0
C994 C 0.63933 0.49134 0.94145 0.0
Eu995 Eu 0.57524 0.51482 0.00788 0.0
N996 N 0.55841 0.50091 0.95987 0.0
C997 C 0.53348 0.49465 0.9516 0.0
C998 C 0.54073 0.48418 0.90281 0.0
C999 C 0.5243 0.48677 0.923 0.0
H1000 H 0.63364 0.50644 0.0112 0.0
H1001 H 0.50456 0.48254 0.91659 0.0
H1002 H 0.57692 0.47728 0.86971 0.0
H1003 H 0.66391 0.49533 0.97887 0.0
H1004 H 0.52057 0.49592 0.96706 0.0
H1005 H 0.63946 0.60825 0.13731 0.0
H1006 H 0.53356 0.47784 0.88066 0.0
H1007 H 0.51298 0.59725 0.04167 0.0
H1008 H 0.62403 0.59479 0.0869 0.0
H1009 H 0.48387 0.61084 0.07394 0.0
H1010 H 0.62028 0.48028 0.88671 0.0
H1011 H 0.61069 0.61672 0.1727 0.0
H1012 H 0.56819 0.62118 0.18313 0.0
H1013 H 0.6527 0.48634 0.92734 0.0
H1014 H 0.52592 0.6219 0.16586 0.0
N1015 N 0.58639 0.59407 0.09336 0.0
C1016 C 0.61109 0.59803 0.10196 0.0
C1017 C 0.6037 0.61059 0.1505 0.0
C1018 C 0.57881 0.60849 0.14148 0.0
C1019 C 0.62001 0.60588 0.13061 0.0
C1020 C 0.57062 0.60049 0.11231 0.0
H1021 H 0.49458 0.61859 0.12536 0.0
N1022 N 0.54007 0.59583 0.07419 0.0
C1023 C 0.50142 0.60803 0.08224 0.0
C1024 C 0.54681 0.6013 0.10248 0.0
C1025 C 0.51811 0.60017 0.06393 0.0
C1026 C 0.50752 0.61232 0.11124 0.0
C1027 C 0.5306 0.60954 0.12173 0.0
O1028 O 0.57845 0.61212 0.01865 0.0
O1029 O 0.56321 0.5538 1.00142 0.0
O1030 O 0.60553 0.54767 0.99592 0.0
O1031 O 0.6092 0.57991 0.03774 0.0
O1032 O 0.53836 0.57821 0.01122 0.0
O1033 O 0.58824 0.62553 0.06366 0.0
O1034 O 0.58281 0.48085 0.02605 0.0
O1035 O 0.57834 0.54115 0.05246 0.0
O1036 O 0.53548 0.55101 0.05386 0.0
O1037 O 0.53565 0.51273 0.0178 0.0
O1038 O 0.60586 0.52076 0.04425 0.0
O1039 O 0.54928 0.47311 0.99759 0.0
C1040 C 0.54361 0.56006 0.99119 0.0
C1041 C 0.58077 0.65953 0.03943 0.0
C1042 C 0.58713 0.70238 0.02169 0.0
C1043 C 0.59241 0.67638 0.02212 0.0
C1044 C 0.56984 0.71133 0.03879 0.0
C1045 C 0.56356 0.6686 0.0565 0.0
C1046 C 0.55816 0.69447 0.05613 0.0
C1047 C 0.61755 0.57119 0.01371 0.0
C1048 C 0.58776 0.63318 0.0398 0.0
C1049 C 0.53823 0.61577 0.15081 0.0
C1050 C 0.56229 0.61532 0.16065 0.0
C1051 C 0.59768 0.53598 0.0643 0.0
C1052 C 0.56628 0.43454 1.00096 0.0
C1053 C 0.55719 0.41294 0.01459 0.0
C1054 C 0.56362 0.38702 0.00767 0.0
C1055 C 0.57821 0.38268 0.98541 0.0
C1056 C 0.58056 0.4299 0.97874 0.0
C1057 C 0.58625 0.40387 0.97081 0.0
C1058 C 0.52506 0.52553 0.03829 0.0
C1059 C 0.56294 0.46243 0.01286 0.0
H1060 H 0.60548 0.66904 0.00875 0.0
H1061 H 0.56554 0.73141 0.03891 0.0
H1062 H 0.55451 0.65586 0.07018 0.0
H1063 H 0.54498 0.70153 0.06938 0.0
H1064 H 0.5456 0.41688 0.03119 0.0
H1065 H 0.58403 0.36329 0.97967 0.0
H1066 H 0.58771 0.44646 0.96801 0.0
H1067 H 0.59755 0.40039 0.95385 0.0
Eu1068 Eu 0.84369 0.31372 0.27885 0.0
C1069 C 0.8008 0.2237 0.31866 0.0
C1070 C 0.79472 0.18087 0.28241 0.0
C1071 C 0.81035 0.18173 0.33029 0.0
C1072 C 0.79391 0.20939 0.29066 0.0
C1073 C 0.80832 0.20954 0.33884 0.0
C1074 C 0.80372 0.1675 0.30212 0.0
C1075 C 0.80961 0.25046 0.37511 0.0
N1076 N 0.79911 0.25084 0.32648 0.0
C1077 C 0.80199 0.26355 0.35456 0.0
C1078 C 0.81332 0.22356 0.36719 0.0
Eu1079 Eu 0.7874 0.27148 0.28909 0.0
N1080 N 0.78522 0.2227 0.27184 0.0
C1081 C 0.77355 0.20732 0.24596 0.0
C1082 C 0.78559 0.16619 0.25479 0.0
C1083 C 0.77436 0.17927 0.23672 0.0
H1084 H 0.79747 0.28323 0.3619 0.0
H1085 H 0.76608 0.16767 0.21576 0.0
H1086 H 0.80484 0.1458 0.29597 0.0
H1087 H 0.81215 0.26099 0.39716 0.0
H1088 H 0.76392 0.21676 0.232 0.0
H1089 H 0.83281 0.42083 0.30923 0.0
H1090 H 0.78603 0.14436 0.24766 0.0
H1091 H 0.86775 0.28447 0.22124 0.0
H1092 H 0.8356 0.37395 0.31608 0.0
H1093 H 0.87748 0.29409 0.17528 0.0
H1094 H 0.81657 0.17085 0.34543 0.0
H1095 H 0.83813 0.43266 0.26273 0.0
H1096 H 0.84825 0.41868 0.21321 0.0
H1097 H 0.81913 0.21341 0.38322 0.0
H1098 H 0.86052 0.38422 0.17683 0.0
N1099 N 0.84144 0.35914 0.27378 0.0
C1100 C 0.83769 0.37885 0.29568 0.0
C1101 C 0.83924 0.41203 0.26562 0.0
C1102 C 0.84454 0.39227 0.2437 0.0
C1103 C 0.83625 0.40546 0.29189 0.0
C1104 C 0.84582 0.36575 0.24861 0.0
H1105 H 0.87162 0.33782 0.16256 0.0
N1106 N 0.85525 0.32181 0.23442 0.0
C1107 C 0.87052 0.30898 0.18995 0.0
C1108 C 0.85304 0.34656 0.2283 0.0
C1109 C 0.86489 0.30358 0.21614 0.0
C1110 C 0.86715 0.33366 0.18283 0.0
C1111 C 0.85874 0.35306 0.20228 0.0
O1112 O 0.88148 0.30844 0.28371 0.0
O1113 O 0.82887 0.27236 0.29303 0.0
O1114 O 0.79721 0.30823 0.32689 0.0
O1115 O 0.83917 0.32547 0.32544 0.0
O1116 O 0.85122 0.27063 0.26137 0.0
O1117 O 0.87348 0.34682 0.30553 0.0
O1118 O 0.75853 0.26351 0.31645 0.0
O1119 O 0.80437 0.31696 0.28733 0.0
O1120 O 0.81946 0.30097 0.23747 0.0
O1121 O 0.79578 0.25944 0.24439 0.0
O1122 O 0.7706 0.29945 0.26451 0.0
O1123 O 0.74836 0.25491 0.27143 0.0
C1124 C 0.84013 0.25583 0.27768 0.0
C1125 C 0.91403 0.34937 0.29314 0.0
C1126 C 0.95906 0.36241 0.30203 0.0
C1127 C 0.93591 0.34855 0.30827 0.0
C1128 C 0.96015 0.37709 0.28023 0.0
C1129 C 0.91517 0.36444 0.27171 0.0
C1130 C 0.93822 0.37822 0.26527 0.0
C1131 C 0.81928 0.3239 0.33888 0.0
C1132 C 0.89051 0.33336 0.29971 0.0
C1133 C 0.85639 0.37892 0.19677 0.0
C1134 C 0.84936 0.39851 0.21747 0.0
C1135 C 0.78715 0.32318 0.27252 0.0
C1136 C 0.72038 0.27178 0.30067 0.0
C1137 C 0.69831 0.2626 0.28202 0.0
C1138 C 0.67884 0.27611 0.2862 0.0
C1139 C 0.68176 0.29877 0.30957 0.0
C1140 C 0.72305 0.29488 0.32346 0.0
C1141 C 0.70377 0.30815 0.32789 0.0
C1142 C 0.8054 0.27557 0.22773 0.0
C1143 C 0.74042 0.25714 0.29612 0.0
H1144 H 0.93492 0.33654 0.32458 0.0
H1145 H 0.97788 0.38782 0.27499 0.0
H1146 H 0.89842 0.36547 0.25995 0.0
H1147 H 0.93908 0.3897 0.2486 0.0
H1148 H 0.69652 0.24522 0.26407 0.0
H1149 H 0.66695 0.3092 0.31391 0.0
H1150 H 0.73997 0.30266 0.33798 0.0
H1151 H 0.70584 0.32572 0.34566 0.0
Eu1152 Eu 0.07937 0.52972 0.55586 0.0
C1153 C 0.01778 0.57144 0.46887 0.0
C1154 C 0.98382 0.53053 0.44921 0.0
C1155 C 0.97781 0.57756 0.45174 0.0
C1156 C 0.00853 0.54245 0.46179 0.0
C1157 C 1.00272 0.58929 0.4632 0.0
C1158 C 0.96837 0.54824 0.44481 0.0
C1159 C 0.03872 0.62875 0.47786 0.0
N1160 N 0.04196 0.58215 0.47971 0.0
C1161 C 0.05295 0.61015 0.48289 0.0
C1162 C 0.0134 0.61833 0.46837 0.0
Eu1163 Eu 0.06449 0.5495 0.48842 0.0
N1164 N 0.02402 0.52589 0.46596 0.0
C1165 C 0.01651 0.49732 0.45623 0.0
C1166 C 0.97558 0.50117 0.44073 0.0
C1167 C 0.99211 0.48452 0.44392 0.0
H1168 H 0.07257 0.61812 0.49003 0.0
H1169 H 0.98608 0.46183 0.43692 0.0
H1170 H 0.94928 0.53947 0.43539 0.0
H1171 H 0.0473 0.65105 0.4812 0.0
H1172 H 0.02902 0.48413 0.45852 0.0
H1173 H 0.15214 0.62188 0.61221 0.0
H1174 H 0.95671 0.49119 0.43109 0.0
H1175 H 0.07604 0.46164 0.55036 0.0
H1176 H 0.11214 0.59717 0.58459 0.0
H1177 H 0.10178 0.43113 0.56425 0.0
H1178 H 0.96587 0.59095 0.44748 0.0
H1179 H 0.18111 0.595 0.62645 0.0
H1180 H 0.19005 0.54813 0.62686 0.0
H1181 H 1.00245 0.63275 0.4643 0.0
H1182 H 0.17652 0.49636 0.61366 0.0
N1183 N 0.1179 0.55602 0.58237 0.0
C1184 C 0.12424 0.5848 0.59054 0.0
C1185 C 0.16341 0.58386 0.61423 0.0
C1186 C 0.15658 0.55441 0.60658 0.0
C1187 C 0.14711 0.59909 0.60626 0.0
C1188 C 0.13337 0.54092 0.59052 0.0
H1189 H 0.14369 0.45257 0.59034 0.0
N1190 N 0.10353 0.49964 0.5675 0.0
C1191 C 0.10888 0.45379 0.56946 0.0
C1192 C 0.12598 0.51186 0.58276 0.0
C1193 C 0.0944 0.47107 0.56158 0.0
C1194 C 0.13252 0.46598 0.58417 0.0
C1195 C 0.14126 0.49536 0.59128 0.0
O1196 O 0.05452 0.50514 0.57928 0.0
O1197 O 0.0502 0.53008 0.52303 0.0
O1198 O 0.05027 0.57757 0.52122 0.0
O1199 O 0.07221 0.57381 0.56249 0.0
O1200 O 0.04672 0.49296 0.53645 0.0
O1201 O 0.06987 0.55001 0.59615 0.0
O1202 O 0.09227 0.56904 0.46446 0.0
O1203 O 0.09357 0.54877 0.52124 0.0
O1204 O 0.09503 0.50308 0.52172 0.0
O1205 O 0.07041 0.5054 0.48201 0.0
O1206 O 0.09945 0.58473 0.50575 0.0
O1207 O 0.06483 0.53048 0.44417 0.0
C1208 C 0.03612 0.50603 0.5209 0.0
C1209 C 0.06028 0.52108 0.62847 0.0
C1210 C 0.04751 0.52455 0.67524 0.0
C1211 C 0.04608 0.53115 0.64877 0.0
C1212 C 0.0635 0.50806 0.68156 0.0
C1213 C 0.07662 0.50501 0.63493 0.0
C1214 C 0.07823 0.4986 0.66149 0.0
C1215 C 0.05858 0.58615 0.54818 0.0
C1216 C 0.05651 0.52643 0.60039 0.0
C1217 C 0.16447 0.50866 0.60701 0.0
C1218 C 0.17215 0.53813 0.61458 0.0
C1219 C 0.10891 0.57187 0.52256 0.0
C1220 C 0.08064 0.56268 0.41647 0.0
C1221 C 0.10074 0.56627 0.40097 0.0
C1222 C 0.10025 0.57898 0.37796 0.0
C1223 C 0.07947 0.58883 0.37094 0.0
C1224 C 0.05972 0.57211 0.40929 0.0
C1225 C 0.05923 0.58529 0.38659 0.0
C1226 C 0.08726 0.49545 0.49437 0.0
C1227 C 0.08315 0.55075 0.44106 0.0
H1228 H 0.03324 0.54331 0.64366 0.0
H1229 H 0.0645 0.50253 0.7019 0.0
H1230 H 0.08774 0.49705 0.61944 0.0
H1231 H 0.09063 0.48596 0.66637 0.0
H1232 H 0.11702 0.55935 0.40708 0.0
H1233 H 0.0787 0.59869 0.35316 0.0
H1234 H 0.04399 0.56951 0.42122 0.0
H1235 H 0.04313 0.59268 0.38107 0.0
Eu1236 Eu 0.78571 0.80344 0.27812 0.0
C1237 C 0.86636 0.76075 0.33022 0.0
C1238 C 0.88286 0.80033 0.36958 0.0
C1239 C 0.88352 0.75303 0.3743 0.0
C1240 C 0.8712 0.78922 0.34173 0.0
C1241 C 0.8733 0.74241 0.34601 0.0
C1242 C 0.88825 0.78197 0.3861 0.0
C1243 C 0.86275 0.70545 0.30365 0.0
N1244 N 0.85687 0.75137 0.30276 0.0
C1245 C 0.85639 0.72457 0.28888 0.0
C1246 C 0.87079 0.71427 0.3325 0.0
Eu1247 Eu 0.84524 0.7845 0.27924 0.0
N1248 N 0.86601 0.80629 0.32505 0.0
C1249 C 0.87371 0.83489 0.33414 0.0
C1250 C 0.88946 0.8296 0.37961 0.0
C1251 C 0.8853 0.84697 0.36161 0.0
H1252 H 0.85018 0.71774 0.26654 0.0
H1253 H 0.89082 0.86965 0.36893 0.0
H1254 H 0.89687 0.79005 0.40767 0.0
H1255 H 0.86151 0.68398 0.29278 0.0
H1256 H 0.87047 0.84851 0.32051 0.0
H1257 H 0.73117 0.71492 0.19376 0.0
H1258 H 0.89837 0.83898 0.4009 0.0
H1259 H 0.78722 0.87293 0.28227 0.0
H1260 H 0.74943 0.7375 0.24156 0.0
H1261 H 0.78315 0.90405 0.25014 0.0
H1262 H 0.88864 0.73922 0.38692 0.0
H1263 H 0.73089 0.74281 0.15741 0.0
H1264 H 0.73979 0.78986 0.14511 0.0
H1265 H 0.87592 0.6995 0.34387 0.0
H1266 H 0.75416 0.84134 0.16032 0.0
N1267 N 0.76248 0.77875 0.23331 0.0
C1268 C 0.7508 0.75053 0.22643 0.0
C1269 C 0.73952 0.75313 0.17863 0.0
C1270 C 0.74945 0.78223 0.18614 0.0
C1271 C 0.73973 0.73733 0.19904 0.0
C1272 C 0.76069 0.79471 0.21407 0.0
H1273 H 0.76995 0.884 0.19935 0.0
N1274 N 0.77869 0.83532 0.24976 0.0
C1275 C 0.77955 0.88155 0.24193 0.0
C1276 C 0.76914 0.82374 0.2225 0.0
C1277 C 0.78215 0.86373 0.26001 0.0
C1278 C 0.77208 0.87015 0.21334 0.0
C1279 C 0.76608 0.84092 0.20341 0.0
O1280 O 0.76881 0.83196 0.30648 0.0
O1281 O 0.82141 0.80759 0.30523 0.0
O1282 O 0.81662 0.74491 0.28596 0.0
O1283 O 0.77889 0.75651 0.2785 0.0
O1284 O 0.78884 0.79167 0.32031 0.0
O1285 O 0.74743 0.78969 0.2871 0.0
O1286 O 0.86782 0.76669 0.24864 0.0
O1287 O 0.81431 0.79079 0.25148 0.0
O1288 O 0.8169 0.84539 0.28419 0.0
O1289 O 0.8505 0.82842 0.26982 0.0
O1290 O 0.82526 0.75356 0.2398 0.0
O1291 O 0.88149 0.80903 0.27264 0.0
C1292 C 0.81249 0.79985 0.32645 0.0
C1293 C 0.72427 0.82296 0.30292 0.0
C1294 C 0.68189 0.8202 0.31594 0.0
C1295 C 0.70442 0.81164 0.31733 0.0
C1296 C 0.67996 0.84065 0.30038 0.0
C1297 C 0.72146 0.84292 0.28731 0.0
C1298 C 0.69951 0.85181 0.28623 0.0
C1299 C 0.79185 0.73816 0.28284 0.0
C1300 C 0.74754 0.81341 0.30409 0.0
C1301 C 0.75622 0.82846 0.17532 0.0
C1302 C 0.74797 0.79917 0.16669 0.0
C1303 C 0.8113 0.76874 0.23216 0.0
C1304 C 0.91154 0.78495 0.25701 0.0
C1305 C 0.92833 0.79279 0.23786 0.0
C1306 C 0.95302 0.78996 0.24112 0.0
C1307 C 0.96035 0.77908 0.26397 0.0
C1308 C 0.91942 0.77415 0.27942 0.0
C1309 C 0.94366 0.77117 0.28278 0.0
C1310 C 0.83951 0.84947 0.27565 0.0
C1311 C 0.88617 0.78904 0.25396 0.0
H1312 H 0.70637 0.79589 0.32913 0.0
H1313 H 0.66327 0.84824 0.29926 0.0
H1314 H 0.73616 0.85168 0.27592 0.0
H1315 H 0.69761 0.86743 0.27429 0.0
H1316 H 0.92206 0.80098 0.22047 0.0
H1317 H 0.9792 0.77718 0.26778 0.0
H1318 H 0.90692 0.76828 0.29447 0.0
H1319 H 0.94966 0.76298 0.30028 0.0
Eu1320 Eu 0.83577 0.26547 0.72877 0.0
C1321 C 0.7926 0.34994 0.81229 0.0
C1322 C 0.82936 0.38596 0.83473 0.0
C1323 C 0.78941 0.39765 0.83139 0.0
C1324 C 0.81788 0.35802 0.82032 0.0
C1325 C 0.77793 0.36946 0.81841 0.0
C1326 C 0.81509 0.40588 0.8396 0.0
C1327 C 0.74146 0.33107 0.80183 0.0
N1328 N 0.78209 0.32247 0.80036 0.0
C1329 C 0.75682 0.31253 0.79652 0.0
C1330 C 0.75208 0.35978 0.81239 0.0
Eu1331 Eu 0.80883 0.29174 0.79243 0.0
N1332 N 0.8311 0.33826 0.81517 0.0
C1333 C 0.85571 0.34475 0.82526 0.0
C1334 C 0.85471 0.39289 0.84435 0.0
C1335 C 0.86787 0.37209 0.83988 0.0
H1336 H 0.74856 0.29026 0.78861 0.0
H1337 H 0.88744 0.37713 0.84745 0.0
H1338 H 0.82365 0.42754 0.85023 0.0
H1339 H 0.72146 0.3232 0.79793 0.0
H1340 H 0.86628 0.32914 0.82185 0.0
H1341 H 0.76713 0.21925 0.6351 0.0
H1342 H 0.86421 0.4141 0.8555 0.0
H1343 H 0.87341 0.23055 0.75844 0.0
H1344 H 0.79897 0.25656 0.66737 0.0
H1345 H 0.874 0.18287 0.76124 0.0
H1346 H 0.7785 0.41304 0.83596 0.0
H1347 H 0.76049 0.16989 0.64 0.0
H1348 H 0.77469 0.13482 0.66305 0.0
H1349 H 0.74016 0.37409 0.81676 0.0
H1350 H 0.80449 0.12487 0.69671 0.0
N1351 N 0.80768 0.22977 0.69336 0.0
C1352 C 0.7952 0.23552 0.67097 0.0
C1353 C 0.77397 0.18644 0.65483 0.0
C1354 C 0.789 0.18016 0.67551 0.0
C1355 C 0.77757 0.21424 0.65208 0.0
C1356 C 0.80614 0.20256 0.69449 0.0
H1357 H 0.84175 0.14252 0.73292 0.0
N1358 N 0.83931 0.21903 0.731 0.0
C1359 C 0.85911 0.18649 0.74815 0.0
C1360 C 0.82271 0.197 0.71356 0.0
C1361 C 0.85823 0.21394 0.747 0.0
C1362 C 0.84102 0.1638 0.73201 0.0
C1363 C 0.82281 0.16882 0.71399 0.0
O1364 O 0.87545 0.27399 0.72421 0.0
O1365 O 0.83691 0.30216 0.76358 0.0
O1366 O 0.78623 0.30187 0.75619 0.0
O1367 O 0.79954 0.27777 0.71593 0.0
O1368 O 0.83673 0.30933 0.72274 0.0
O1369 O 0.84877 0.26601 0.68761 0.0
O1370 O 0.7825 0.26734 0.81496 0.0
O1371 O 0.81383 0.25356 0.76259 0.0
O1372 O 0.86539 0.27406 0.76658 0.0
O1373 O 0.84448 0.27985 0.80625 0.0
O1374 O 0.77763 0.25535 0.76983 0.0
O1375 O 0.81864 0.2911 0.83622 0.0
C1376 C 0.83758 0.32053 0.74911 0.0
C1377 C 0.886 0.30132 0.69064 0.0
C1378 C 0.88692 0.34296 0.67133 0.0
C1379 C 0.87377 0.31731 0.67655 0.0
C1380 C 0.91255 0.35252 0.68028 0.0
C1381 C 0.91162 0.31115 0.69924 0.0
C1382 C 0.92478 0.33663 0.69408 0.0
C1383 C 0.78437 0.29237 0.72839 0.0
C1384 C 0.87205 0.27531 0.69792 0.0
C1385 C 0.80498 0.14655 0.69622 0.0
C1386 C 0.788 0.15222 0.6771 0.0
C1387 C 0.79126 0.24026 0.75727 0.0
C1388 C 0.78618 0.28297 0.86417 0.0
C1389 C 0.78414 0.26496 0.88274 0.0
C1390 C 0.77521 0.27214 0.90859 0.0
C1391 C 0.76792 0.29746 0.91577 0.0
C1392 C 0.77868 0.30819 0.87112 0.0
C1393 C 0.76942 0.31529 0.89685 0.0
C1394 C 0.86434 0.27594 0.794 0.0
C1395 C 0.79722 0.27512 0.83844 0.0
H1396 H 0.85394 0.31016 0.67008 0.0
H1397 H 0.92323 0.37203 0.67617 0.0
H1398 H 0.92139 0.29925 0.71023 0.0
H1399 H 0.94454 0.34411 0.7008 0.0
H1400 H 0.79024 0.24561 0.87744 0.0
H1401 H 0.76109 0.30331 0.93584 0.0
H1402 H 0.78027 0.32244 0.85698 0.0
H1403 H 0.76371 0.33479 0.90229 0.0
Eu1404 Eu 0.84592 0.83572 0.79839 0.0
C1405 C 0.74484 0.77052 0.73039 0.0
C1406 C 0.71753 0.77061 0.76693 0.0
C1407 C 0.70117 0.76859 0.71895 0.0
C1408 C 0.74139 0.77178 0.75829 0.0
C1409 C 0.72461 0.7681 0.71021 0.0
C1410 C 0.69761 0.76976 0.74728 0.0
C1411 C 0.7512 0.76045 0.67384 0.0
N1412 N 0.76751 0.7693 0.72258 0.0
C1413 C 0.77044 0.7624 0.69462 0.0
C1414 C 0.72826 0.76385 0.6817 0.0
Eu1415 Eu 0.79965 0.77227 0.75844 0.0
N1416 N 0.76106 0.77262 0.77671 0.0
C1417 C 0.75769 0.77088 0.80387 0.0
C1418 C 0.71426 0.76966 0.79492 0.0
C1419 C 0.7344 0.76951 0.81339 0.0
H1420 H 0.78787 0.7587 0.68839 0.0
H1421 H 0.73204 0.76845 0.83503 0.0
H1422 H 0.67926 0.76928 0.75364 0.0
H1423 H 0.75397 0.7559 0.65179 0.0
H1424 H 0.77274 0.77047 0.81851 0.0
H1425 H 0.90217 0.90748 0.74234 0.0
H1426 H 0.69624 0.76872 0.80238 0.0
H1427 H 0.86762 0.79893 0.84258 0.0
H1428 H 0.86598 0.88855 0.76543 0.0
H1429 H 0.90483 0.78377 0.85346 0.0
H1430 H 0.68548 0.76706 0.70382 0.0
H1431 H 0.93957 0.88891 0.74522 0.0
H1432 H 0.9622 0.85824 0.76574 0.0
H1433 H 0.71322 0.7619 0.66558 0.0
H1434 H 0.96321 0.82541 0.79694 0.0
N1435 N 0.8813 0.85704 0.77814 0.0
C1436 C 0.88173 0.87935 0.76566 0.0
C1437 C 0.92345 0.88005 0.75475 0.0
C1438 C 0.92396 0.85944 0.77023 0.0
C1439 C 0.90239 0.89052 0.75302 0.0
C1440 C 0.90239 0.84844 0.78211 0.0
H1441 H 0.94221 0.79817 0.83015 0.0
N1442 N 0.88198 0.82038 0.81114 0.0
C1443 C 0.90447 0.7964 0.83789 0.0
C1444 C 0.90289 0.82992 0.79951 0.0
C1445 C 0.88295 0.80475 0.83107 0.0
C1446 C 0.92555 0.80469 0.82483 0.0
C1447 C 0.92509 0.82196 0.80567 0.0
O1448 O 0.84572 0.85168 0.84361 0.0
O1449 O 0.80581 0.81342 0.78867 0.0
O1450 O 0.80494 0.80364 0.72975 0.0
O1451 O 0.83909 0.84024 0.7525 0.0
O1452 O 0.815 0.85529 0.78642 0.0
O1453 O 0.8595 0.88052 0.81773 0.0
O1454 O 0.79993 0.73432 0.72712 0.0
O1455 O 0.83972 0.79136 0.77517 0.0
O1456 O 0.83028 0.80911 0.82915 0.0
O1457 O 0.81182 0.76458 0.80107 0.0
O1458 O 0.83139 0.77135 0.73244 0.0
O1459 O 0.78826 0.73085 0.76864 0.0
C1460 C 0.79686 0.83341 0.78438 0.0
C1461 C 0.83602 0.89571 0.85354 0.0
C1462 C 0.80586 0.92267 0.84592 0.0
C1463 C 0.82375 0.90876 0.83599 0.0
C1464 C 0.80078 0.92439 0.87393 0.0
C1465 C 0.83101 0.89788 0.88161 0.0
C1466 C 0.81356 0.91233 0.89177 0.0
C1467 C 0.82233 0.82697 0.73034 0.0
C1468 C 0.85236 0.87795 0.84208 0.0
C1469 C 0.9462 0.83173 0.79283 0.0
C1470 C 0.94561 0.85035 0.77503 0.0
C1471 C 0.84876 0.7845 0.75258 0.0
C1472 C 0.7874 0.6875 0.73558 0.0
C1473 C 0.79795 0.67349 0.75329 0.0
C1474 C 0.79727 0.64489 0.74416 0.0
C1475 C 0.78447 0.63002 0.71766 0.0
C1476 C 0.77505 0.67272 0.70901 0.0
C1477 C 0.77324 0.6439 0.7003 0.0
C1478 C 0.82047 0.78173 0.8259 0.0
C1479 C 0.79183 0.71801 0.74384 0.0
H1480 H 0.82735 0.90731 0.81425 0.0
H1481 H 0.78704 0.93517 0.88199 0.0
H1482 H 0.84026 0.88796 0.89548 0.0
H1483 H 0.80965 0.91381 0.91339 0.0
H1484 H 0.80769 0.68524 0.77369 0.0
H1485 H 0.78387 0.60797 0.70995 0.0
H1486 H 0.76707 0.68352 0.69498 0.0
H1487 H 0.76375 0.63249 0.67975 0.0
Eu1488 Eu 0.53611 0.51934 0.50193 0.0
C1489 C 0.60065 0.62297 0.58572 0.0
C1490 C 0.60214 0.66061 0.56083 0.0
C1491 C 0.60571 0.67111 0.61199 0.0
C1492 C 0.59899 0.63173 0.56057 0.0
C1493 C 0.60486 0.64276 0.61169 0.0
C1494 C 0.60441 0.68003 0.58659 0.0
C1495 C 0.61109 0.60608 0.63494 0.0
N1496 N 0.60055 0.5956 0.58476 0.0
C1497 C 0.60716 0.58733 0.60869 0.0
C1498 C 0.60942 0.63378 0.63651 0.0
Eu1499 Eu 0.5922 0.56518 0.5394 0.0
N1500 N 0.59729 0.61259 0.53602 0.0
C1501 C 0.60226 0.62137 0.51176 0.0
C1502 C 0.60463 0.66935 0.5354 0.0
C1503 C 0.60549 0.64976 0.51091 0.0
H1504 H 0.60877 0.56605 0.60766 0.0
H1505 H 0.6085 0.65644 0.49137 0.0
H1506 H 0.6064 0.70222 0.58715 0.0
H1507 H 0.61555 0.59922 0.65391 0.0
H1508 H 0.60318 0.60634 0.49281 0.0
H1509 H 0.51937 0.44057 0.56674 0.0
H1510 H 0.60715 0.69134 0.53471 0.0
H1511 H 0.52227 0.50835 0.43237 0.0
H1512 H 0.52691 0.48787 0.5572 0.0
H1513 H 0.5143 0.46942 0.39013 0.0
H1514 H 0.60859 0.68654 0.63174 0.0
H1515 H 0.51581 0.39915 0.52786 0.0
H1516 H 0.51394 0.37955 0.47594 0.0
H1517 H 0.61275 0.64835 0.65686 0.0
H1518 H 0.51285 0.38742 0.42768 0.0
N1519 N 0.52847 0.4741 0.51316 0.0
C1520 C 0.52532 0.47025 0.53982 0.0
C1521 C 0.51914 0.42001 0.52346 0.0
C1522 C 0.52067 0.42382 0.49594 0.0
C1523 C 0.52107 0.4433 0.54543 0.0
C1524 C 0.52513 0.45146 0.49139 0.0
H1525 H 0.51262 0.42082 0.39542 0.0
N1526 N 0.52697 0.48247 0.46094 0.0
C1527 C 0.51743 0.4653 0.41087 0.0
C1528 C 0.52458 0.45583 0.46438 0.0
C1529 C 0.52213 0.48732 0.43479 0.0
C1530 C 0.51654 0.43793 0.41394 0.0
C1531 C 0.5195 0.43279 0.44098 0.0
O1532 O 0.50405 0.52742 0.47986 0.0
O1533 O 0.55593 0.56579 0.51601 0.0
O1534 O 0.56447 0.5681 0.57364 0.0
O1535 O 0.53053 0.53369 0.54904 0.0
O1536 O 0.53984 0.55099 0.47446 0.0
O1537 O 0.50018 0.51195 0.51817 0.0
O1538 O 0.62411 0.54715 0.54438 0.0
O1539 O 0.5729 0.51944 0.52331 0.0
O1540 O 0.56511 0.51492 0.47044 0.0
O1541 O 0.59715 0.5543 0.49083 0.0
O1542 O 0.58952 0.53103 0.56452 0.0
O1543 O 0.62958 0.58815 0.53477 0.0
C1544 C 0.55156 0.57327 0.49279 0.0
C1545 C 0.46414 0.50273 0.48599 0.0
C1546 C 0.42074 0.50276 0.47661 0.0
C1547 C 0.44504 0.51641 0.48898 0.0
C1548 C 0.41552 0.47439 0.46221 0.0
C1549 C 0.45902 0.47453 0.47137 0.0
C1550 C 0.43464 0.46035 0.45971 0.0
C1551 C 0.54149 0.55216 0.57275 0.0
C1552 C 0.48912 0.51937 0.49765 0.0
C1553 C 0.51649 0.40536 0.44537 0.0
C1554 C 0.51707 0.40088 0.47284 0.0
C1555 C 0.57771 0.50975 0.5449 0.0
C1556 C 0.66329 0.57841 0.55974 0.0
C1557 C 0.67982 0.56114 0.5568 0.0
C1558 C 0.70257 0.56883 0.57395 0.0
C1559 C 0.70893 0.59455 0.59396 0.0
C1560 C 0.66951 0.60388 0.58007 0.0
C1561 C 0.69237 0.61192 0.59704 0.0
C1562 C 0.58665 0.53278 0.46899 0.0
C1563 C 0.64009 0.56908 0.5407 0.0
H1564 H 0.44929 0.53809 0.50082 0.0
H1565 H 0.3969 0.46333 0.45245 0.0
H1566 H 0.47373 0.46365 0.4689 0.0
H1567 H 0.43062 0.43858 0.44837 0.0
H1568 H 0.675 0.54168 0.54076 0.0
H1569 H 0.72646 0.60096 0.60744 0.0
H1570 H 0.65688 0.61753 0.5827 0.0
H1571 H 0.69725 0.6316 0.61263 0.0
Eu1572 Eu 0.09995 0.54599 1.00498 0.0
C1573 C 0.01667 0.50116 0.07812 0.0
C1574 C 0.99299 0.45624 0.04965 0.0
C1575 C 0.9949 0.46505 0.1007 0.0
C1576 C 0.00846 0.48341 0.05196 0.0
C1577 C 0.00968 0.49238 0.10279 0.0
C1578 C 0.98659 0.447 0.07417 0.0
C1579 C 0.03112 0.53884 0.12961 0.0
N1580 N 0.03079 0.52745 0.07938 0.0
C1581 C 0.03753 0.54658 0.10455 0.0
C1582 C 0.01733 0.51152 0.12877 0.0
Eu1583 Eu 0.04146 0.53896 0.03629 0.0
N1584 N 0.01485 0.49309 0.02873 0.0
C1585 C 1.00518 0.47721 1.00245 0.0
C1586 C 0.98402 0.43938 0.02276 0.0
C1587 C 0.98995 0.45005 0.99906 0.0
H1588 H 0.04829 0.56769 0.10545 0.0
H1589 H 0.98281 0.43736 0.97815 0.0
H1590 H 0.97486 0.42613 0.07282 0.0
H1591 H 0.03687 0.55393 0.14955 0.0
H1592 H 0.0095 0.48503 0.98387 0.0
H1593 H 0.15709 0.64822 0.06297 0.0
H1594 H 0.97217 0.41835 0.02008 0.0
H1595 H 0.09205 0.51768 0.93566 0.0
H1596 H 0.13178 0.5996 0.05717 0.0
H1597 H 0.10174 0.53238 0.89137 0.0
H1598 H 0.98945 0.45784 0.11942 0.0
H1599 H 0.16542 0.66824 0.02108 0.0
H1600 H 0.16127 0.6611 0.96831 0.0
H1601 H 0.01236 0.50559 0.14822 0.0
H1602 H 0.14646 0.62954 0.92167 0.0
N1603 N 0.12503 0.59245 0.01253 0.0
C1604 C 0.13521 0.60808 0.03872 0.0
C1605 C 0.15421 0.6469 0.01842 0.0
C1606 C 0.14489 0.63017 0.99153 0.0
C1607 C 0.1496 0.63566 0.0421 0.0
C1608 C 0.13028 0.60258 0.98924 0.0
H1609 H 0.12454 0.58144 0.89279 0.0
N1610 N 0.10877 0.55813 0.9617 0.0
C1611 C 0.10745 0.54738 0.91137 0.0
C1612 C 0.12198 0.58486 0.96302 0.0
C1613 C 0.10204 0.5391 0.93646 0.0
C1614 C 0.12029 0.57511 0.91226 0.0
C1615 C 0.12797 0.59416 0.93831 0.0
O1616 O 0.12086 0.51523 0.98895 0.0
O1617 O 0.06846 0.51554 0.01729 0.0
O1618 O 0.06818 0.52646 0.06527 0.0
O1619 O 0.10481 0.5516 0.05265 0.0
O1620 O 0.08107 0.50148 0.97981 0.0
O1621 O 0.13591 0.54791 0.02657 0.0
O1622 O 0.02119 0.57053 0.05173 0.0
O1623 O 0.0732 0.56928 0.02434 0.0
O1624 O 0.07271 0.55775 0.97628 0.0
O1625 O 0.03726 0.53024 0.98851 0.0
O1626 O 0.06179 0.58238 0.0627 0.0
O1627 O 0.00771 0.54076 0.012 0.0
C1628 C 0.06568 0.49411 0.99716 0.0
C1629 C 0.1645 0.52852 1.00074 0.0
C1630 C 0.20206 0.51121 1.00068 0.0
C1631 C 0.17748 0.50907 0.00688 0.0
C1632 C 0.21342 0.53318 0.98816 0.0
C1633 C 0.176 0.5502 0.98815 0.0
C1634 C 0.2004 0.55247 0.9819 0.0
C1635 C 0.09258 0.53643 0.06899 0.0
C1636 C 0.1394 0.52629 0.00881 0.0
C1637 C 0.14181 0.62193 0.94042 0.0
C1638 C 0.15022 0.63991 0.96698 0.0
C1639 C 0.07685 0.59007 0.04521 0.0
C1640 C 0.97812 0.55911 0.03707 0.0
C1641 C 0.96532 0.5788 0.03094 0.0
C1642 C 0.94061 0.57677 0.0369 0.0
C1643 C 0.92904 0.55463 0.04913 0.0
C1644 C 0.96624 0.53727 0.04923 0.0
C1645 C 0.94179 0.53508 0.05519 0.0
C1646 C 0.04896 0.54467 0.97136 0.0
C1647 C 1.00377 0.56158 0.03047 0.0
H1648 H 0.16857 0.49259 0.017 0.0
H1649 H 0.23224 0.53523 0.98287 0.0
H1650 H 0.16621 0.56541 0.98341 0.0
H1651 H 0.20928 0.56924 0.97219 0.0
H1652 H 0.97455 0.59547 0.02126 0.0
H1653 H 0.91025 0.55267 0.05448 0.0
H1654 H 0.97585 0.52197 0.05408 0.0
H1655 H 0.93271 0.51822 0.06468 0.0
H1656 H 0.03837 0.17197 0.93828 0.0
H1657 H 0.0414 0.21482 0.02477 0.0
H1658 H 0.04613 0.17262 0.04056 0.0
H1659 H 0.04946 0.12221 0.03014 0.0
H1660 H 0.04972 0.08138 0.94351 0.0
H1661 H 0.0438 0.12303 0.92809 0.0
C1662 C 0.03969 0.17203 0.96057 0.0
C1663 C 0.03895 0.19693 0.9801 0.0
C1664 C 0.04329 0.14759 0.9698 0.0
C1665 C 0.04154 0.19625 0.00898 0.0
C1666 C 0.04436 0.17193 0.01815 0.0
C1667 C 0.04857 0.12252 0.00795 0.0
C1668 C 0.05034 0.09813 0.98818 0.0
C1669 C 0.04539 0.14729 0.99885 0.0
C1670 C 0.04863 0.09944 0.95945 0.0
C1671 C 0.04514 0.12346 0.95045 0.0
H1672 H 0.21363 0.81811 0.13433 0.0
H1673 H 0.16453 0.82005 0.199 0.0
H1674 H 0.19726 0.81529 0.23269 0.0
H1675 H 0.23959 0.80786 0.24312 0.0
H1676 H 0.28871 0.80909 0.17818 0.0
H1677 H 0.25632 0.8148 0.14564 0.0
C1678 C 0.21004 0.81772 0.15585 0.0
C1679 C 0.18638 0.81934 0.16386 0.0
C1680 C 0.22905 0.81521 0.17522 0.0
C1681 C 0.18243 0.81897 0.19205 0.0
C1682 C 0.20119 0.81609 0.21136 0.0
C1683 C 0.24346 0.80994 0.22207 0.0
C1684 C 0.26696 0.8079 0.21348 0.0
C1685 C 0.22459 0.81385 0.20315 0.0
C1686 C 0.27102 0.81023 0.18571 0.0
C1687 C 0.25241 0.8136 0.1669 0.0
H1688 H 0.51384 0.87213 0.43532 0.0
H1689 H 0.55433 0.85031 0.50252 0.0
H1690 H 0.56603 0.90003 0.5278 0.0
H1691 H 0.56865 0.95082 0.52811 0.0
H1692 H 0.53036 0.97148 0.4587 0.0
H1693 H 0.51351 0.92148 0.4375 0.0
C1694 C 0.52502 0.87803 0.45567 0.0
C1695 C 0.53329 0.85713 0.46675 0.0
C1696 C 0.53187 0.90673 0.46994 0.0
C1697 C 0.54763 0.86561 0.49331 0.0
C1698 C 0.55439 0.89419 0.50778 0.0
C1699 C 0.55567 0.94429 0.50904 0.0
C1700 C 0.54968 0.96517 0.4959 0.0
C1701 C 0.54702 0.91511 0.49608 0.0
C1702 C 0.53425 0.95614 0.47009 0.0
C1703 C 0.52496 0.92742 0.45766 0.0
H1704 H 0.5156 0.29951 0.63131 0.0
H1705 H 0.57838 0.32284 0.69572 0.0
H1706 H 0.55034 0.31862 0.73184 0.0
H1707 H 0.50815 0.30758 0.74526 0.0
H1708 H 0.4452 0.28263 0.68098 0.0
H1709 H 0.47313 0.28894 0.64494 0.0
C1710 C 0.52318 0.30375 0.65325 0.0
C1711 C 0.54916 0.31142 0.66067 0.0
C1712 C 0.5069 0.30116 0.67404 0.0
C1713 C 0.55854 0.31687 0.68928 0.0
C1714 C 0.54249 0.31446 0.71001 0.0
C1715 C 0.50046 0.30324 0.72335 0.0
C1716 C 0.47449 0.2944 0.71598 0.0
C1717 C 0.51666 0.30643 0.70263 0.0
C1718 C 0.46502 0.28967 0.68746 0.0
C1719 C 0.48102 0.29307 0.66674 0.0
H1720 H 0.07858 0.80273 0.59495 0.0
H1721 H 0.01056 0.82372 0.61856 0.0
H1722 H 0.01227 0.85307 0.58429 0.0
H1723 H 0.03229 0.87197 0.54709 0.0
H1724 H 0.1008 0.85273 0.52356 0.0
H1725 H 0.09939 0.82294 0.55797 0.0
C1726 C 0.06427 0.8139 0.59272 0.0
C1727 C 0.04453 0.81103 0.6093 0.0
C1728 C 0.06525 0.83076 0.5728 0.0
C1729 C 0.026 0.82552 0.60607 0.0
C1730 C 0.02689 0.84229 0.58642 0.0
C1731 C 0.04707 0.86149 0.54967 0.0
C1732 C 0.06666 0.86457 0.53294 0.0
C1733 C 0.04633 0.84491 0.56962 0.0
C1734 C 0.08538 0.85039 0.53605 0.0
C1735 C 0.08468 0.83358 0.55584 0.0
H1736 H 0.54495 0.84647 0.85815 0.0
H1737 H 0.56834 0.80262 0.78309 0.0
H1738 H 0.53543 0.81286 0.75403 0.0
H1739 H 0.499 0.83294 0.75039 0.0
H1740 H 0.47598 0.87622 0.82586 0.0
H1741 H 0.51019 0.86805 0.85449 0.0
C1742 C 0.54278 0.83895 0.83544 0.0
C1743 C 0.55878 0.82348 0.82275 0.0
C1744 C 0.52416 0.84521 0.819 0.0
C1745 C 0.55606 0.81438 0.79329 0.0
C1746 C 0.53735 0.82034 0.77671 0.0
C1747 C 0.50195 0.84109 0.77302 0.0
C1748 C 0.48536 0.85538 0.78612 0.0
C1749 C 0.52127 0.8357 0.78935 0.0
C1750 C 0.4888 0.86538 0.81548 0.0
C1751 C 0.50817 0.86052 0.83181 0.0
H1752 H 0.51146 0.17761 0.12588 0.0
H1753 H 0.50135 0.20662 0.04931 0.0
H1754 H 0.51706 0.16822 0.02325 0.0
H1755 H 0.53531 0.12764 0.02303 0.0
H1756 H 0.54529 0.10013 0.10078 0.0
H1757 H 0.52859 0.13735 0.12562 0.0
C1758 C 0.5125 0.17548 0.10343 0.0
C1759 C 0.50531 0.19487 0.08954 0.0
C1760 C 0.52193 0.15395 0.08887 0.0
C1761 C 0.50661 0.19174 0.06043 0.0
C1762 C 0.5158 0.16999 0.04559 0.0
C1763 C 0.53382 0.1298 0.04539 0.0
C1764 C 0.54158 0.11104 0.05988 0.0
C1765 C 0.52385 0.1512 0.05973 0.0
C1766 C 0.53966 0.11427 0.08894 0.0
C1767 C 0.52992 0.13547 0.10327 0.0
H1768 H 0.2238 0.32205 0.38233 0.0
H1769 H 0.18041 0.33878 0.31406 0.0
H1770 H 0.21551 0.34092 0.28621 0.0
H1771 H 0.25781 0.33483 0.28027 0.0
H1772 H 0.29892 0.3131 0.34697 0.0
H1773 H 0.2657 0.31645 0.3767 0.0
C1774 C 0.22216 0.32644 0.36147 0.0
C1775 C 0.19976 0.3303 0.35018 0.0
C1776 C 0.24201 0.32669 0.34535 0.0
C1777 C 0.1976 0.33562 0.32303 0.0
C1778 C 0.21764 0.33699 0.3072 0.0
C1779 C 0.25933 0.33099 0.30136 0.0
C1780 C 0.28017 0.32303 0.31136 0.0
C1781 C 0.2398 0.33205 0.31796 0.0
C1782 C 0.28252 0.31849 0.33878 0.0
C1783 C 0.26366 0.32054 0.35578 0.0
H1784 H 0.01716 0.10768 0.19819 0.0
H1785 H 0.96075 0.02966 0.18294 0.0
H1786 H 0.97462 0.01523 0.13645 0.0
H1787 H 1.00333 0.02475 0.09861 0.0
H1788 H 0.05962 0.10326 0.11634 0.0
H1789 H 0.04539 0.11677 0.16196 0.0
C1790 C 0.00768 0.08735 0.18498 0.0
C1791 C 0.98751 0.07005 0.19525 0.0
C1792 C 0.01595 0.07902 0.15786 0.0
C1793 C 0.97616 0.04382 0.17671 0.0
C1794 C 0.98419 0.03551 0.14967 0.0
C1795 C 0.01259 0.0449 0.11228 0.0
C1796 C 0.03317 0.06268 0.10284 0.0
C1797 C 1.00413 0.0529 0.1397 0.0
C1798 C 0.04426 0.08858 0.12198 0.0
C1799 C 0.03593 0.09654 0.14853 0.0
H1800 H 0.28063 0.63748 0.41164 0.0
H1801 H 0.32526 0.71039 0.47171 0.0
H1802 H 0.31599 0.74103 0.44148 0.0
H1803 H 0.29067 0.74744 0.40141 0.0
H1804 H 0.2445 0.6748 0.34251 0.0
H1805 H 0.25891 0.64358 0.36893 0.0
C1806 C 0.28874 0.66001 0.41787 0.0
C1807 C 0.30329 0.67172 0.44401 0.0
C1808 C 0.28274 0.67754 0.40082 0.0
C1809 C 0.31375 0.70093 0.45177 0.0
C1810 C 0.3084 0.71847 0.43456 0.0
C1811 C 0.28419 0.72476 0.39405 0.0
C1812 C 0.26633 0.71334 0.37037 0.0
C1813 C 0.29221 0.70707 0.40957 0.0
C1814 C 0.25792 0.68397 0.36106 0.0
C1815 C 0.26621 0.66617 0.37607 0.0
H1816 H 0.67331 0.03032 0.66265 0.0
H1817 H 0.60958 0.97825 0.68855 0.0
H1818 H 0.58288 0.9845 0.6495 0.0
H1819 H 0.57778 1.00619 0.60921 0.0
H1820 H 0.64169 0.06118 0.58652 0.0
H1821 H 0.66824 0.05231 0.6234 0.0
C1822 C 0.65365 0.01993 0.65958 0.0
C1823 C 0.64344 1.00362 0.67827 0.0
C1824 C 0.63844 0.02438 0.6379 0.0
C1825 C 0.61786 0.99075 0.67426 0.0
C1826 C 0.6026 0.99445 0.65209 0.0
C1827 C 0.59748 0.01635 0.61241 0.0
C1828 C 0.6077 0.03423 0.59503 0.0
C1829 C 0.61268 0.01154 0.63403 0.0
C1830 C 0.63329 0.04717 0.59943 0.0
C1831 C 0.64855 0.04212 0.62053 0.0
H1832 H 0.33856 0.37944 0.94778 0.0
H1833 H 0.33138 0.29762 0.96716 0.0
H1834 H 0.32623 0.27577 0.917 0.0
H1835 H 0.32173 0.2793 0.86731 0.0
H1836 H 0.32921 0.36066 0.84736 0.0
H1837 H 0.33643 0.38327 0.89779 0.0
C1838 C 0.33586 0.35682 0.94105 0.0
C1839 C 0.33515 0.34023 0.96144 0.0
C1840 C 0.33311 0.34429 0.91197 0.0
C1841 C 0.33193 0.31098 0.95215 0.0
C1842 C 0.32898 0.29841 0.92338 0.0
C1843 C 0.32543 0.30204 0.87411 0.0
C1844 C 0.32558 0.31839 0.85374 0.0
C1845 C 0.32935 0.31478 0.90309 0.0
C1846 C 0.3297 0.34775 0.86269 0.0
C1847 C 0.33359 0.36061 0.89152 0.0
H1848 H 0.02472 0.05235 0.35093 0.0
H1849 H 0.9593 0.07763 0.37719 0.0
H1850 H 0.97158 0.07434 0.42552 0.0
H1851 H 1.00059 0.0635 0.46126 0.0
H1852 H 0.06784 0.04237 0.43609 0.0
H1853 H 0.05514 0.04442 0.38742 0.0
C1854 C 0.01304 0.05741 0.36712 0.0
C1855 C 0.99071 0.06541 0.35934 0.0
C1856 C 0.02055 0.05579 0.39557 0.0
C1857 C 0.97644 0.0717 0.38154 0.0
C1858 C 0.98353 0.06963 0.40953 0.0
C1859 C 0.01261 0.05919 0.44523 0.0
C1860 C 0.03509 0.05164 0.45314 0.0
C1861 C 1.00547 0.06153 0.41695 0.0
C1862 C 0.05022 0.04715 0.4314 0.0
C1863 C 0.04294 0.04865 0.40326 0.0
H1864 H 0.27591 0.71077 0.59268 0.0
H1865 H 0.3457 0.68769 0.60164 0.0
H1866 H 0.35391 0.714 0.65063 0.0
H1867 H 0.3409 0.74281 0.69082 0.0
H1868 H 0.27033 0.76422 0.68235 0.0
H1869 H 0.26276 0.73921 0.63295 0.0
C1870 C 0.293 0.71167 0.60529 0.0
C1871 C 0.31023 0.69749 0.59363 0.0
C1872 C 0.29741 0.72641 0.63341 0.0
C1873 C 0.33216 0.6985 0.61024 0.0
C1874 C 0.33687 0.71351 0.63819 0.0
C1875 C 0.32391 0.74209 0.67812 0.0
C1876 C 0.30621 0.75531 0.69004 0.0
C1877 C 0.31957 0.72743 0.64997 0.0
C1878 C 0.28419 0.75408 0.67353 0.0
C1879 C 0.27988 0.73986 0.64534 0.0
H1880 H 0.70579 0.07512 0.85171 0.0
H1881 H 0.64092 0.03179 0.7922 0.0
H1882 H 0.61404 0.04518 0.82716 0.0
H1883 H 0.60897 0.07162 0.87335 0.0
H1884 H 0.67352 0.11487 0.93323 0.0
H1885 H 0.70054 0.09936 0.89917 0.0
C1886 C 0.68577 0.06844 0.84646 0.0
C1887 C 0.6754 0.0527 0.81933 0.0
C1888 C 0.67037 0.07642 0.86658 0.0
C1889 C 0.64941 0.04412 0.81287 0.0
C1890 C 0.634 0.05176 0.83284 0.0
C1891 C 0.62892 0.07727 0.87918 0.0
C1892 C 0.63919 0.09452 0.90574 0.0
C1893 C 0.64429 0.06825 0.85958 0.0
C1894 C 0.66514 0.10199 0.91274 0.0
C1895 C 0.6806 0.09301 0.89335 0.0
H1896 H 0.28746 0.35364 0.12008 0.0
H1897 H 0.36687 0.37741 0.11861 0.0
H1898 H 0.37336 0.36447 0.16372 0.0
H1899 H 0.35668 0.34699 0.20375 0.0
H1900 H 0.27756 0.32091 0.20477 0.0
H1901 H 0.27074 0.33474 0.16007 0.0
C1902 C 0.3062 0.35588 0.12953 0.0
C1903 C 0.32664 0.36651 0.11574 0.0
C1904 C 0.30985 0.34807 0.15551 0.0
C1905 C 0.35076 0.36916 0.12847 0.0
C1906 C 0.35451 0.3619 0.15443 0.0
C1907 C 0.33793 0.34378 0.19422 0.0
C1908 C 0.31761 0.33145 0.2072 0.0
C1909 C 0.33422 0.35138 0.16819 0.0
C1910 C 0.2935 0.32892 0.19463 0.0
C1911 C 0.28962 0.33715 0.16917 0.0
H1912 H 0.30012 0.02283 0.0352 0.0
H1913 H 0.24653 0.95061 0.0488 0.0
H1914 H 0.21668 0.97914 0.05862 0.0
H1915 H 0.20598 0.02439 0.06375 0.0
H1916 H 0.2586 0.09638 0.04841 0.0
H1917 H 0.28907 0.06822 0.03971 0.0
C1918 C 0.28189 0.0133 0.04024 0.0
C1919 C 0.27555 0.98463 0.04124 0.0
C1920 C 0.26482 0.02982 0.04589 0.0
C1921 C 0.25188 0.97262 0.04787 0.0
C1922 C 0.23482 0.98892 0.05356 0.0
C1923 C 0.22402 0.03391 0.05822 0.0
C1924 C 0.22995 0.06241 0.05654 0.0
C1925 C 0.24112 0.01751 0.05266 0.0
C1926 C 0.25365 0.07457 0.05009 0.0
C1927 C 0.27098 0.05842 0.04488 0.0
H1928 H 0.72396 0.62447 0.98121 0.0
H1929 H 0.715 0.69513 0.04346 0.0
H1930 H 0.67431 0.66831 0.04993 0.0
H1931 H 0.64171 0.62466 0.03938 0.0
H1932 H 0.64804 0.55481 0.97464 0.0
H1933 H 0.68919 0.58122 0.96789 0.0
C1934 C 0.71303 0.634 0.99607 0.0
C1935 C 0.72271 0.66181 0.01191 0.0
C1936 C 0.68923 0.61849 0.99952 0.0
C1937 C 0.70815 0.67385 0.03092 0.0
C1938 C 0.68483 0.65848 0.03476 0.0
C1939 C 0.65206 0.61508 0.0238 0.0
C1940 C 0.64202 0.58737 0.00817 0.0
C1941 C 0.67529 0.63074 0.01941 0.0
C1942 C 0.65551 0.57575 0.98755 0.0
C1943 C 0.67903 0.59097 0.98355 0.0
H1944 H 0.75396 0.43965 0.31823 0.0
H1945 H 0.71993 0.42297 0.23257 0.0
H1946 H 0.73601 0.38049 0.22137 0.0
H1947 H 0.75998 0.34656 0.23584 0.0
H1948 H 0.7918 0.36336 0.32234 0.0
H1949 H 0.7769 0.40619 0.33263 0.0
C1950 C 0.7499 0.42698 0.29691 0.0
C1951 C 0.7353 0.4357 0.27641 0.0
C1952 C 0.75932 0.40204 0.29052 0.0
C1953 C 0.73081 0.41788 0.24914 0.0
C1954 C 0.74018 0.3932 0.24267 0.0
C1955 C 0.76405 0.35971 0.25695 0.0
C1956 C 0.77855 0.35138 0.27789 0.0
C1957 C 0.75457 0.38484 0.26311 0.0
C1958 C 0.78214 0.36892 0.30518 0.0
C1959 C 0.77317 0.39367 0.31124 0.0
H1960 H 0.92397 0.50388 0.52937 0.0
H1961 H 0.92014 0.41556 0.52309 0.0
H1962 H 0.96383 0.42346 0.51566 0.0
H1963 H 1.00367 0.45587 0.51383 0.0
H1964 H 0.00798 0.54446 0.52287 0.0
H1965 H 0.96343 0.53595 0.52536 0.0
C1966 C 0.93271 0.48638 0.5264 0.0
C1967 C 0.91897 0.45927 0.52712 0.0
C1968 C 0.95782 0.49104 0.5222 0.0
C1969 C 0.93041 0.4367 0.52285 0.0
C1970 C 0.95535 0.44115 0.51851 0.0
C1971 C 0.9947 0.47318 0.51592 0.0
C1972 C 0.00893 0.50061 0.51775 0.0
C1973 C 0.96928 0.46827 0.51848 0.0
C1974 C 0.99732 0.52304 0.5208 0.0
C1975 C 0.97188 0.51824 0.52258 0.0
H1976 H 0.35488 0.08022 0.30821 0.0
H1977 H 0.41327 0.1571 0.32862 0.0
H1978 H 0.38718 0.18046 0.30427 0.0
H1979 H 0.35086 0.17614 0.2703 0.0
H1980 H 0.29483 0.09747 0.24664 0.0
H1981 H 0.31712 0.07745 0.27892 0.0
C1982 C 0.3618 0.10227 0.30785 0.0
C1983 C 0.38614 0.11675 0.31968 0.0
C1984 C 0.34732 0.11498 0.29266 0.0
C1985 C 0.39464 0.14542 0.31946 0.0
C1986 C 0.37983 0.15869 0.30531 0.0
C1987 C 0.34337 0.15481 0.27271 0.0
C1988 C 0.32155 0.13802 0.25593 0.0
C1989 C 0.35663 0.14324 0.29072 0.0
C1990 C 0.31189 0.11046 0.25905 0.0
C1991 C 0.32454 0.0991 0.27754 0.0
H1992 H 0.34339 0.11735 0.51818 0.0
H1993 H 0.40166 0.19157 0.51987 0.0
H1994 H 0.43304 0.16639 0.52867 0.0
H1995 H 0.44417 0.124 0.53879 0.0
H1996 H 0.38587 0.04989 0.53715 0.0
H1997 H 0.35458 0.07418 0.52545 0.0
C1998 C 0.36294 0.12797 0.52025 0.0
C1999 C 0.37001 0.15642 0.51849 0.0
C2000 C 0.38105 0.11338 0.52552 0.0
C2001 C 0.39553 0.16974 0.52124 0.0
C2002 C 0.41359 0.15534 0.52629 0.0
C2003 C 0.42465 0.11303 0.53544 0.0
C2004 C 0.41745 0.08521 0.53921 0.0
C2005 C 0.4066 0.12724 0.52885 0.0
C2006 C 0.39199 0.07145 0.53492 0.0
C2007 C 0.37403 0.08531 0.52813 0.0
H2008 H 0.7085 0.62824 0.28868 0.0
H2009 H 0.76746 0.58652 0.27285 0.0
H2010 H 0.79624 0.6322 0.27322 0.0
H2011 H 0.80455 0.68516 0.27692 0.0
H2012 H 0.74373 0.72429 0.29292 0.0
H2013 H 0.71657 0.67918 0.29355 0.0
C2014 C 0.72766 0.62882 0.28536 0.0
C2015 C 0.7354 0.60327 0.28071 0.0
C2016 C 0.74413 0.65525 0.28556 0.0
C2017 C 0.76058 0.60535 0.27658 0.0
C2018 C 0.77715 0.63171 0.27674 0.0
C2019 C 0.78544 0.68392 0.28078 0.0
C2020 C 0.77662 0.70897 0.2847 0.0
C2021 C 0.76919 0.65704 0.28109 0.0
C2022 C 0.75151 0.70609 0.28951 0.0
C2023 C 0.73569 0.67998 0.28995 0.0
H2024 H 0.89037 0.44664 0.79907 0.0
H2025 H 0.81685 0.45703 0.77888 0.0
H2026 H 0.80151 0.40587 0.76124 0.0
H2027 H 0.80973 0.35838 0.75056 0.0
H2028 H 0.88379 0.3496 0.76995 0.0
H2029 H 0.89864 0.40051 0.78809 0.0
C2030 C 0.87091 0.43781 0.79105 0.0
C2031 C 0.85468 0.45548 0.79041 0.0
C2032 C 0.86256 0.40888 0.78029 0.0
C2033 C 0.82963 0.44372 0.77959 0.0
C2034 C 0.82094 0.4146 0.76937 0.0
C2035 C 0.82904 0.36784 0.75893 0.0
C2036 C 0.84567 0.35076 0.75998 0.0
C2037 C 0.83732 0.39702 0.7694 0.0
C2038 C 0.87077 0.36274 0.76984 0.0
C2039 C 0.8792 0.39167 0.78008 0.0
H2040 H 0.10027 0.8847 0.03392 0.0
H2041 H 0.10045 0.90568 0.12417 0.0
H2042 H 0.0928 0.95141 0.12126 0.0
H2043 H 0.08586 0.98607 0.09322 0.0
H2044 H 0.08749 0.96619 1.00338 0.0
H2045 H 0.09452 0.91999 0.00601 0.0
C2046 C 0.09872 0.89922 0.05307 0.0
C2047 C 0.10107 0.89119 0.07937 0.0
C2048 C 0.09447 0.92594 0.05127 0.0
C2049 C 0.09893 0.9108 0.10368 0.0
C2050 C 0.09447 0.93714 0.10199 0.0
C2051 C 0.08767 0.9716 0.07414 0.0
C2052 C 0.08526 0.97958 0.04792 0.0
C2053 C 0.09216 0.94502 0.07594 0.0
C2054 C 0.08841 0.9606 0.0237 0.0
C2055 C 0.09263 0.93411 0.02527 0.0
H2056 H 0.96731 0.26552 0.85296 0.0
H2057 H 0.92595 0.26865 0.9247 0.0
H2058 H 0.88945 0.2711 0.89565 0.0
H2059 H 0.86912 0.27396 0.85021 0.0
H2060 H 0.9106 0.27316 0.77855 0.0
H2061 H 0.94666 0.26851 0.80693 0.0
C2062 C 0.9502 0.26631 0.86212 0.0
C2063 C 0.94952 0.26659 0.89115 0.0
C2064 C 0.92913 0.26852 0.84525 0.0
C2065 C 0.92718 0.26828 0.90256 0.0
C2066 C 0.9062 0.26979 0.88591 0.0
C2067 C 0.886 0.27279 0.84068 0.0
C2068 C 0.88674 0.27378 0.81195 0.0
C2069 C 0.90696 0.27028 0.85729 0.0
C2070 C 0.90909 0.27229 0.80039 0.0
C2071 C 0.92988 0.2696 0.81671 0.0
H2072 H 0.59681 0.21558 0.52549 0.0
H2073 H 0.60303 0.23584 0.61642 0.0
H2074 H 0.59581 0.18593 0.6168 0.0
H2075 H 0.58647 0.13609 0.59172 0.0
H2076 H 0.57793 0.11472 0.501 0.0
H2077 H 0.58775 0.16504 0.50015 0.0
C2078 C 0.59664 0.20916 0.54544 0.0
C2079 C 0.60048 0.22995 0.57095 0.0
C2080 C 0.59228 0.17999 0.54556 0.0
C2081 C 0.60012 0.22076 0.59644 0.0
C2082 C 0.59602 0.19204 0.5967 0.0
C2083 C 0.58707 0.14243 0.57172 0.0
C2084 C 0.58215 0.12145 0.54646 0.0
C2085 C 0.59197 0.17144 0.57145 0.0
C2086 C 0.5824 0.13021 0.52078 0.0
C2087 C 0.58773 0.15909 0.52033 0.0
H2088 H 0.57824 0.78066 0.36146 0.0
H2089 H 0.6267 0.78678 0.43649 0.0
H2090 H 0.66298 0.79866 0.41181 0.0
H2091 H 0.68148 0.80992 0.36943 0.0
H2092 H 0.63293 0.80344 0.29441 0.0
H2093 H 0.59665 0.78914 0.31837 0.0
C2094 C 0.59671 0.78444 0.3724 0.0
C2095 C 0.59951 0.78294 0.40096 0.0
C2096 C 0.61774 0.79138 0.35803 0.0
C2097 C 0.62376 0.78787 0.4146 0.0
C2098 C 0.64466 0.79469 0.40047 0.0
C2099 C 0.66298 0.80497 0.3582 0.0
C2100 C 0.66011 0.80819 0.33017 0.0
C2101 C 0.64195 0.79682 0.37223 0.0
C2102 C 0.63585 0.80173 0.31611 0.0
C2103 C 0.61499 0.79345 0.3298 0.0
H2104 H 0.14723 0.29232 0.47191 0.0
H2105 H 0.09354 0.23926 0.40326 0.0
H2106 H 0.07679 0.20861 0.43433 0.0
H2107 H 0.07709 0.19757 0.48116 0.0
H2108 H 0.13085 0.25074 0.54954 0.0
H2109 H 0.14762 0.28127 0.51837 0.0
C2110 C 0.13198 0.27394 0.46362 0.0
C2111 C 0.12173 0.26796 0.4353 0.0
C2112 C 0.12227 0.25677 0.48161 0.0
C2113 C 0.10185 0.24419 0.42496 0.0
C2114 C 0.0922 0.22677 0.44273 0.0
C2115 C 0.0925 0.21586 0.48919 0.0
C2116 C 0.10274 0.22205 0.51756 0.0
C2117 C 0.10218 0.233 0.47111 0.0
C2118 C 0.12248 0.24588 0.52787 0.0
C2119 C 0.1322 0.26312 0.51002 0.0
H2120 H 0.5788 0.21923 0.20512 0.0
H2121 H 0.57646 0.30651 0.21637 0.0
H2122 H 0.6164 0.32104 0.24555 0.0
H2123 H 0.65177 0.30926 0.26799 0.0
H2124 H 0.65357 0.22211 0.25939 0.0
H2125 H 0.61444 0.20736 0.22825 0.0
C2126 C 0.58701 0.24142 0.214 0.0
C2127 C 0.57458 0.26172 0.20865 0.0
C2128 C 0.60999 0.24971 0.23098 0.0
C2129 C 0.58552 0.2904 0.22026 0.0
C2130 C 0.60842 0.29878 0.2369 0.0
C2131 C 0.64349 0.28699 0.25968 0.0
C2132 C 0.65554 0.26688 0.26634 0.0
C2133 C 0.62074 0.27862 0.24248 0.0
C2134 C 0.64486 0.23814 0.25451 0.0
C2135 C 0.62235 0.22964 0.23688 0.0
H2136 H 0.64024 0.90213 0.95903 0.0
H2137 H 0.59644 0.89124 0.87932 0.0
H2138 H 0.57717 0.92859 0.89963 0.0
H2139 H 0.57107 0.96207 0.94074 0.0
H2140 H 0.61809 0.9764 0.01882 0.0
H2141 H 0.63715 0.93936 0.99876 0.0
C2142 C 0.62667 0.90818 0.9461 0.0
C2143 C 0.61969 0.89399 0.91791 0.0
C2144 C 0.61581 0.92979 0.95775 0.0
C2145 C 0.60224 0.90207 0.90115 0.0
C2146 C 0.59106 0.92325 0.91275 0.0
C2147 C 0.58558 0.95745 0.95331 0.0
C2148 C 0.59233 0.97161 0.98157 0.0
C2149 C 0.59744 0.93694 0.94116 0.0
C2150 C 0.61144 0.96507 0.99743 0.0
C2151 C 0.6228 0.94414 0.98581 0.0
H2152 H 0.94939 0.74948 0.74574 0.0
H2153 H 0.95544 0.80056 0.68356 0.0
H2154 H 0.91674 0.81269 0.69428 0.0
H2155 H 0.87959 0.80606 0.71871 0.0
H2156 H 0.8727 0.75486 0.78036 0.0
H2157 H 0.9132 0.74513 0.77231 0.0
C2158 C 0.94235 0.76348 0.73478 0.0
C2159 C 0.95508 0.77383 0.71373 0.0
C2160 C 0.91986 0.7701 0.74074 0.0
C2161 C 0.94581 0.79203 0.69969 0.0
C2162 C 0.92367 0.79898 0.70573 0.0
C2163 C 0.88731 0.79318 0.7306 0.0
C2164 C 0.87398 0.78177 0.75054 0.0
C2165 C 0.91033 0.78771 0.72579 0.0
C2166 C 0.88337 0.76444 0.76548 0.0
C2167 C 0.9063 0.75873 0.76072 0.0
H2168 H 0.10509 0.01041 0.83736 0.0
H2169 H 0.18227 0.03307 0.87118 0.0
H2170 H 0.17015 0.04069 0.91932 0.0
H2171 H 0.13682 0.04083 0.95314 0.0
H2172 H 0.06019 0.01847 0.9169 0.0
H2173 H 0.07284 0.01094 0.86986 0.0
C2174 C 0.11955 0.01703 0.85506 0.0
C2175 C 0.14493 0.02101 0.84955 0.0
C2176 C 0.11233 0.0214 0.88308 0.0
C2177 C 0.16272 0.02966 0.87375 0.0
C2178 C 0.15565 0.03408 0.90167 0.0
C2179 C 0.12278 0.03431 0.93504 0.0
C2180 C 0.09703 0.02967 0.93971 0.0
C2181 C 0.13041 0.03005 0.90687 0.0
C2182 C 0.07981 0.02139 0.91511 0.0
C2183 C 0.08716 0.01731 0.8877 0.0
H2184 H 0.85187 0.43008 0.61184 0.0
H2185 H 0.81536 0.3537 0.55087 0.0
H2186 H 0.82798 0.32557 0.58217 0.0
H2187 H 0.85378 0.32308 0.62407 0.0
H2188 H 0.89136 0.39968 0.68402 0.0
H2189 H 0.87404 0.42742 0.65567 0.0
C2190 C 0.84632 0.40726 0.60551 0.0
C2191 C 0.83299 0.39402 0.57889 0.0
C2192 C 0.85418 0.39131 0.62322 0.0
C2193 C 0.82576 0.36444 0.57118 0.0
C2194 C 0.83309 0.34834 0.589 0.0
C2195 C 0.85779 0.3458 0.63119 0.0
C2196 C 0.87413 0.35938 0.65585 0.0
C2197 C 0.84798 0.3616 0.61464 0.0
C2198 C 0.87926 0.38883 0.66477 0.0
C2199 C 0.86927 0.40466 0.64867 0.0
H2200 H 0.45763 0.03567 0.3848 0.0
H2201 H 0.5187 0.07115 0.34264 0.0
H2202 H 0.54839 0.07091 0.38223 0.0
H2203 H 0.55629 0.06047 0.42895 0.0
H2204 H 0.49408 0.01965 0.46696 0.0
H2205 H 0.46549 0.02221 0.42882 0.0
C2206 C 0.47745 0.0436 0.38446 0.0
C2207 C 0.48618 0.05387 0.36145 0.0
C2208 C 0.49412 0.04233 0.40642 0.0
C2209 C 0.5118 0.06338 0.36056 0.0
C2210 C 0.52866 0.06318 0.38304 0.0
C2211 C 0.53654 0.0519 0.42871 0.0
C2212 C 0.52746 0.04023 0.45102 0.0
C2213 C 0.51997 0.05259 0.40608 0.0
C2214 C 0.50174 0.02913 0.45036 0.0
C2215 C 0.48522 0.03051 0.42849 0.0
H2216 H 0.81193 0.78233 0.10582 0.0
H2217 H 0.79744 0.69171 0.09197 0.0
H2218 H 0.79507 0.6945 0.14205 0.0
H2219 H 0.79878 0.72238 0.19025 0.0
H2220 H 0.81646 0.81297 0.20551 0.0
H2221 H 0.81525 0.8105 0.15468 0.0
C2222 C 0.80822 0.76319 0.11374 0.0
C2223 C 0.80502 0.73685 0.09492 0.0
C2224 C 0.80713 0.76491 0.14291 0.0
C2225 C 0.8002 0.71231 0.10575 0.0
C2226 C 0.79872 0.71384 0.13448 0.0
C2227 C 0.80198 0.74156 0.18236 0.0
C2228 C 0.80695 0.76776 0.20156 0.0
C2229 C 0.80231 0.73997 0.15327 0.0
C2230 C 0.81176 0.79249 0.19113 0.0
C2231 C 0.8114 0.79108 0.16207 0.0
H2232 H 0.11319 0.03532 0.69683 0.0
H2233 H 0.17545 1.00302 0.67061 0.0
H2234 H 0.16284 1.00424 0.62169 0.0
H2235 H 0.13457 0.01536 0.58543 0.0
H2236 H 0.06993 0.04289 0.61065 0.0
H2237 H 0.0831 0.04311 0.65986 0.0
C2238 C 0.12406 0.02824 0.68052 0.0
C2239 C 0.14563 0.01893 0.68848 0.0
C2240 C 0.11633 0.02862 0.65174 0.0
C2241 C 0.15888 0.01002 0.66613 0.0
C2242 C 0.15164 0.01092 0.6378 0.0
C2243 C 0.12322 0.02156 0.60158 0.0
C2244 C 0.10143 0.03032 0.59347 0.0
C2245 C 0.13049 0.02036 0.6302 0.0
C2246 C 0.08711 0.03725 0.61543 0.0
C2247 C 0.09462 0.03699 0.64389 0.0
H2248 H 0.80743 0.40217 0.45295 0.0
H2249 H 0.88112 0.44571 0.44117 0.0
H2250 H 0.87991 0.41063 0.39802 0.0
H2251 H 0.85814 0.36749 0.36411 0.0
H2252 H 0.78317 0.32581 0.37398 0.0
H2253 H 0.78481 0.36014 0.41765 0.0
C2254 C 0.82312 0.40402 0.44079 0.0
C2255 C 0.84426 0.42642 0.45005 0.0
C2256 C 0.82221 0.38398 0.41591 0.0
C2257 C 0.8645 0.42877 0.43419 0.0
C2258 C 0.86391 0.40862 0.40967 0.0
C2259 C 0.84221 0.36572 0.3759 0.0
C2260 C 0.82079 0.34375 0.36608 0.0
C2261 C 0.84292 0.38607 0.40045 0.0
C2262 C 0.80013 0.34218 0.38133 0.0
C2263 C 0.80094 0.36192 0.40622 0.0
H2264 H 0.50176 0.08888 0.27933 0.0
H2265 H 0.43653 0.0455 0.22059 0.0
H2266 H 0.4626 0.02945 0.18563 0.0
H2267 H 0.50341 0.02494 0.17338 0.0
H2268 H 0.5689 0.06743 0.23205 0.0
H2269 H 0.54305 0.0859 0.26615 0.0
C2270 C 0.49335 0.07657 0.25859 0.0
C2271 C 0.46738 0.06863 0.25224 0.0
C2272 C 0.50837 0.0666 0.23908 0.0
C2273 C 0.45655 0.05203 0.22566 0.0
C2274 C 0.47139 0.04265 0.20586 0.0
C2275 C 0.51207 0.03851 0.19353 0.0
C2276 C 0.53797 0.04494 0.20025 0.0
C2277 C 0.49723 0.0493 0.21262 0.0
C2278 C 0.54893 0.06197 0.22661 0.0
C2279 C 0.53422 0.07276 0.24591 0.0
H2280 H 0.80922 0.71069 0.92078 0.0
H2281 H 0.80658 0.79116 0.97117 0.0
H2282 H 0.81303 0.81253 0.93053 0.0
H2283 H 0.81819 0.80832 0.88011 0.0
H2284 H 0.8182 0.72727 0.82891 0.0
H2285 H 0.81406 0.70638 0.87012 0.0
C2286 C 0.81025 0.73295 0.92292 0.0
C2287 C 0.80748 0.74926 0.94916 0.0
C2288 C 0.8134 0.74507 0.89916 0.0
C2289 C 0.80858 0.77802 0.95133 0.0
C2290 C 0.81229 0.79032 0.92805 0.0
C2291 C 0.81747 0.78613 0.87802 0.0
C2292 C 0.81861 0.76946 0.85139 0.0
C2293 C 0.81454 0.77404 0.90178 0.0
C2294 C 0.81729 0.74063 0.84907 0.0
C2295 C 0.81496 0.72864 0.87268 0.0
H2296 H 0.87754 0.11925 0.01064 0.0
H2297 H 0.81481 0.054 0.0203 0.0
H2298 H 0.83904 0.01911 0.01081 0.0
H2299 H 0.87773 1.00706 0.9997 0.0
H2300 H 0.93988 0.07138 0.98724 0.0
H2301 H 0.91634 0.10691 0.99874 0.0
C2302 C 0.86921 0.0974 0.01068 0.0
C2303 C 0.84448 0.08919 0.01611 0.0
C2304 C 0.88314 0.07736 1.00497 0.0
C2305 C 0.83384 0.06083 0.01606 0.0
C2306 C 0.84766 0.04085 0.0107 0.0
C2307 C 0.88603 0.02878 0.99916 0.0
C2308 C 0.91041 0.03654 0.99254 0.0
C2309 C 0.87226 0.04888 1.00504 0.0
C2310 C 0.92117 0.06491 0.99261 0.0
C2311 C 0.90769 0.08521 0.99895 0.0
H2312 H 0.41447 0.47389 0.06021 0.0
H2313 H 0.43312 0.39794 0.01818 0.0
H2314 H 0.47462 0.42485 0.01464 0.0
H2315 H 0.50526 0.4695 0.02207 0.0
H2316 H 0.48867 0.54601 0.06539 0.0
H2317 H 0.44685 0.51933 0.07001 0.0
C2318 C 0.42766 0.46327 0.05035 0.0
C2319 C 0.42053 0.43387 0.03933 0.0
C2320 C 0.45185 0.47895 0.04854 0.0
C2321 C 0.43797 0.42045 0.02685 0.0
C2322 C 0.46176 0.43584 0.02474 0.0
C2323 C 0.49256 0.48053 0.03247 0.0
C2324 C 0.50005 0.50991 0.04289 0.0
C2325 C 0.46881 0.46506 0.03528 0.0
C2326 C 0.4834 0.52353 0.05691 0.0
C2327 C 0.45945 0.50823 0.05953 0.0
H2328 H 0.38779 0.65263 0.73662 0.0
H2329 H 0.41115 0.65903 0.82421 0.0
H2330 H 0.39151 0.69859 0.83708 0.0
H2331 H 0.3676 0.73321 0.82369 0.0
H2332 H 0.34587 0.72638 0.73566 0.0
H2333 H 0.36432 0.68628 0.72344 0.0
C2334 C 0.38873 0.66236 0.75873 0.0
C2335 C 0.40153 0.65162 0.77919 0.0
C2336 C 0.37715 0.68563 0.76614 0.0
C2337 C 0.40186 0.66571 0.80753 0.0
C2338 C 0.39042 0.68875 0.81497 0.0
C2339 C 0.36647 0.7228 0.80175 0.0
C2340 C 0.35384 0.73322 0.78082 0.0
C2341 C 0.37791 0.69916 0.79455 0.0
C2342 C 0.35408 0.71918 0.75265 0.0
C2343 C 0.36506 0.69599 0.74553 0.0
H2344 H 0.22155 0.56874 0.53793 0.0
H2345 H 0.23084 0.65219 0.52237 0.0
H2346 H 0.18618 0.64794 0.52192 0.0
H2347 H 0.14415 0.61947 0.52373 0.0
H2348 H 0.13515 0.53362 0.5318 0.0
H2349 H 0.17958 0.5399 0.53814 0.0
C2350 C 0.21374 0.586 0.53464 0.0
C2351 C 0.22927 0.61065 0.53018 0.0
C2352 C 0.18801 0.58305 0.53336 0.0
C2353 C 0.21906 0.63286 0.52561 0.0
C2354 C 0.19358 0.6305 0.52545 0.0
C2355 C 0.15198 0.60228 0.52719 0.0
C2356 C 0.13614 0.57641 0.52843 0.0
C2357 C 0.17781 0.60554 0.52899 0.0
C2358 C 0.14659 0.55406 0.53188 0.0
C2359 C 0.17221 0.55754 0.53519 0.0
H2360 H 0.76177 0.98662 0.76424 0.0
H2361 H 0.6931 0.93834 0.78457 0.0
H2362 H 0.71629 0.91521 0.81257 0.0
H2363 H 0.75611 0.91132 0.83414 0.0
H2364 H 0.82468 0.95941 0.81387 0.0
H2365 H 0.80148 0.98007 0.78286 0.0
C2366 C 0.75185 0.97084 0.77456 0.0
C2367 C 0.72577 0.96443 0.77259 0.0
C2368 C 0.76527 0.95788 0.79088 0.0
C2369 C 0.71318 0.94375 0.78586 0.0
C2370 C 0.72641 0.93061 0.80199 0.0
C2371 C 0.76586 0.92644 0.82298 0.0
C2372 C 0.79191 0.93443 0.82661 0.0
C2373 C 0.75244 0.93803 0.80519 0.0
C2374 C 0.80455 0.9533 0.81151 0.0
C2375 C 0.79133 0.96505 0.79383 0.0
H2376 H 0.795 0.97266 0.53416 0.0
H2377 H 0.73654 0.89721 0.52678 0.0
H2378 H 0.7054 0.9227 0.51772 0.0
H2379 H 0.69476 0.96596 0.50943 0.0
H2380 H 0.75342 0.04115 0.51657 0.0
H2381 H 0.78428 0.01626 0.52806 0.0
C2382 C 0.77545 0.96181 0.53079 0.0
C2383 C 0.76823 0.93299 0.53109 0.0
C2384 C 0.75757 0.97654 0.52533 0.0
C2385 C 0.74274 0.91934 0.52659 0.0
C2386 C 0.72485 0.93391 0.52138 0.0
C2387 C 0.71426 0.977 0.51389 0.0
C2388 C 0.72172 1.00536 0.51186 0.0
C2389 C 0.73205 0.96246 0.52039 0.0
C2390 C 0.74714 0.01922 0.5175 0.0
C2391 C 0.76484 1.00502 0.52419 0.0
H2392 H 0.35948 0.47771 0.74707 0.0
H2393 H 0.42908 0.48897 0.7976 0.0
H2394 H 0.41557 0.44066 0.80449 0.0
H2395 H 0.38361 0.39421 0.79619 0.0
H2396 H 0.31477 0.38364 0.7445 0.0
H2397 H 0.32813 0.43189 0.73854 0.0
C2398 C 0.37187 0.46981 0.75966 0.0
C2399 C 0.39556 0.48777 0.77173 0.0
C2400 C 0.36388 0.44166 0.76359 0.0
C2401 C 0.41089 0.47631 0.7879 0.0
C2402 C 0.40307 0.4484 0.79189 0.0
C2403 C 0.37139 0.4024 0.78368 0.0
C2404 C 0.34757 0.3847 0.77143 0.0
C2405 C 0.37955 0.43071 0.77986 0.0
C2406 C 0.3326 0.39633 0.75508 0.0
C2407 C 0.34047 0.42414 0.75135 0.0
H2408 H 0.26907 0.62127 0.25878 0.0
H2409 H 0.20961 0.63915 0.2097 0.0
H2410 H 0.22911 0.68965 0.22451 0.0
H2411 H 0.26395 0.72847 0.25006 0.0
H2412 H 0.32265 0.71039 0.29977 0.0
H2413 H 0.30228 0.65993 0.28648 0.0
C2414 C 0.26042 0.63617 0.25116 0.0
C2415 C 0.23814 0.62654 0.23284 0.0
C2416 C 0.27148 0.66501 0.26006 0.0
C2417 C 0.22689 0.64611 0.22363 0.0
C2418 C 0.23792 0.67494 0.23222 0.0
C2419 C 0.27221 0.71332 0.25776 0.0
C2420 C 0.29515 0.7225 0.27471 0.0
C2421 C 0.26033 0.68457 0.25018 0.0
C2422 C 0.3053 0.70328 0.28594 0.0
C2423 C 0.29367 0.6746 0.27841 0.0
H2424 H 0.54218 0.6773 0.43755 0.0
H2425 H 0.53231 0.71428 0.52242 0.0
H2426 H 0.53695 0.67193 0.53776 0.0
H2427 H 0.54372 0.62302 0.52749 0.0
H2428 H 0.55602 0.58772 0.44301 0.0
H2429 H 0.55064 0.62969 0.42776 0.0
C2430 C 0.54075 0.67607 0.45934 0.0
C2431 C 0.53649 0.69941 0.47851 0.0
C2432 C 0.5441 0.65149 0.46846 0.0
C2433 C 0.53536 0.69701 0.50685 0.0
C2434 C 0.53808 0.67258 0.5158 0.0
C2435 C 0.54552 0.62463 0.50585 0.0
C2436 C 0.55062 0.60179 0.48662 0.0
C2437 C 0.54255 0.64951 0.49691 0.0
C2438 C 0.55236 0.60466 0.45853 0.0
C2439 C 0.54919 0.62884 0.44963 0.0
H2440 H 0.71338 0.30928 0.6289 0.0
H2441 H 0.66736 0.32395 0.69518 0.0
H2442 H 0.69918 0.31826 0.72942 0.0
H2443 H 0.7396 0.30622 0.74001 0.0
H2444 H 0.78644 0.29637 0.67366 0.0
H2445 H 0.75491 0.30249 0.64031 0.0
C2446 C 0.7103 0.31149 0.65087 0.0
C2447 C 0.68774 0.31693 0.6592 0.0
C2448 C 0.72883 0.30847 0.67054 0.0
C2449 C 0.68444 0.31991 0.68797 0.0
C2450 C 0.70266 0.31647 0.70761 0.0
C2451 C 0.74306 0.30566 0.71838 0.0
C2452 C 0.76528 0.29941 0.70939 0.0
C2453 C 0.72489 0.31034 0.69912 0.0
C2454 C 0.7692 0.29934 0.68114 0.0
C2455 C 0.75122 0.30337 0.66198 0.0
H2456 H 0.03658 0.36907 0.01868 0.0
H2457 H 0.04054 0.34894 0.92905 0.0
H2458 H 0.04938 0.39893 0.92845 0.0
H2459 H 0.05686 0.44884 0.95312 0.0
H2460 H 0.0558 0.46987 0.04301 0.0
H2461 H 0.04447 0.4196 0.04363 0.0
C2462 C 0.03937 0.37553 0.99896 0.0
C2463 C 0.03784 0.35471 0.97389 0.0
C2464 C 0.0447 0.40474 0.99875 0.0
C2465 C 0.04161 0.364 0.94871 0.0
C2466 C 0.04663 0.39278 0.94832 0.0
C2467 C 0.05391 0.44246 0.97287 0.0
C2468 C 0.0565 0.46345 0.99789 0.0
C2469 C 0.04828 0.41338 0.97316 0.0
C2470 C 0.05316 0.45451 0.02328 0.0
C2471 C 0.04696 0.4256 0.02365 0.0
H2472 H 0.02723 0.84625 0.16312 0.0
H2473 H 0.06024 0.77804 0.17292 0.0
H2474 H 0.02761 0.76099 0.20072 0.0
H2475 H 0.98993 0.76535 0.22256 0.0
H2476 H 0.95792 0.83491 0.21529 0.0
H2477 H 0.9894 0.85085 0.18559 0.0
C2478 C 0.02732 0.82766 0.17133 0.0
C2479 C 0.04634 0.81355 0.1659 0.0
C2480 C 0.00848 0.81798 0.1876 0.0
C2481 C 0.04603 0.78948 0.1768 0.0
C2482 C 0.02728 0.77962 0.19268 0.0
C2483 C 0.98989 0.78421 0.21481 0.0
C2484 C 0.97144 0.79889 0.22151 0.0
C2485 C 0.00848 0.79375 0.19832 0.0
C2486 C 0.97153 0.82284 0.21039 0.0
C2487 C 0.98975 0.83219 0.19355 0.0
H2488 H 0.53564 0.28273 0.06481 0.0
H2489 H 0.53398 0.34881 0.13604 0.0
H2490 H 0.54502 0.38409 0.10765 0.0
H2491 H 0.5573 0.39584 0.06371 0.0
H2492 H 0.55311 0.32923 0.99027 0.0
H2493 H 0.54301 0.29433 0.01884 0.0
C2494 C 0.53765 0.30489 0.07396 0.0
C2495 C 0.53441 0.31345 0.10239 0.0
C2496 C 0.54325 0.32481 0.05734 0.0
C2497 C 0.5365 0.34197 0.11413 0.0
C2498 C 0.54288 0.36205 0.09797 0.0
C2499 C 0.5535 0.37374 0.05347 0.0
C2500 C 0.55615 0.36543 0.02466 0.0
C2501 C 0.54651 0.35368 0.06963 0.0
C2502 C 0.55188 0.33651 0.01246 0.0
C2503 C 0.54582 0.31643 0.02872 0.0
H2504 H 0.04356 0.34878 0.38607 0.0
H2505 H 0.07259 0.32252 0.30791 0.0
H2506 H 0.03805 0.33247 0.28159 0.0
H2507 H 0.99879 0.34711 0.28072 0.0
H2508 H 0.96967 0.3726 0.35885 0.0
H2509 H 1.00521 0.36463 0.38534 0.0
C2510 C 0.04234 0.34519 0.36328 0.0
C2511 C 0.06049 0.33474 0.34896 0.0
C2512 C 0.0225 0.35094 0.34831 0.0
C2513 C 0.05874 0.3304 0.31943 0.0
C2514 C 0.03905 0.33615 0.30436 0.0
C2515 C 1.00052 0.35134 0.30356 0.0
C2516 C 0.98182 0.36045 0.31791 0.0
C2517 C 0.02077 0.34631 0.31857 0.0
C2518 C 0.98391 0.36546 0.34746 0.0
C2519 C 1.00415 0.36088 0.36257 0.0
H2520 H 0.04001 0.7058 0.57999 0.0
H2521 H 0.98306 0.66285 0.62286 0.0
H2522 H 0.99585 0.61885 0.60797 0.0
H2523 H 0.0236 0.5929 0.58256 0.0
H2524 H 0.08188 0.6374 0.54259 0.0
H2525 H 0.0686 0.68096 0.557 0.0
C2526 C 0.03009 0.68668 0.58561 0.0
C2527 C 0.01029 0.68721 0.60184 0.0
C2528 C 0.0382 0.66208 0.57809 0.0
C2529 C 0.9981 0.66261 0.60988 0.0
C2530 C 1.00555 0.63763 0.60165 0.0
C2531 C 0.03362 0.61242 0.57776 0.0
C2532 C 0.05374 0.61253 0.56202 0.0
C2533 C 0.02575 0.63722 0.58598 0.0
C2534 C 0.06648 0.63738 0.55507 0.0
C2535 C 0.05876 0.66206 0.56304 0.0
H2536 H 0.68911 0.83746 0.81113 0.0
H2537 H 0.72161 0.83712 0.89384 0.0
H2538 H 0.76211 0.83912 0.87662 0.0
H2539 H 0.78728 0.83757 0.83737 0.0
H2540 H 0.75559 0.83889 0.75482 0.0
H2541 H 0.71562 0.84088 0.77276 0.0
C2542 C 0.70514 0.83797 0.82533 0.0
C2543 C 0.70252 0.83671 0.85352 0.0
C2544 C 0.72835 0.83965 0.81542 0.0
C2545 C 0.72333 0.83792 0.872 0.0
C2546 C 0.74642 0.83911 0.86221 0.0
C2547 C 0.77157 0.83851 0.82347 0.0
C2548 C 0.77369 0.83722 0.79482 0.0
C2549 C 0.74898 0.83951 0.8339 0.0
C2550 C 0.75386 0.83934 0.77689 0.0
C2551 C 0.73116 0.84045 0.78714 0.0
H2552 H 0.45962 0.53664 0.66052 0.0
H2553 H 0.5162 0.59826 0.71972 0.0
H2554 H 0.54399 0.60058 0.68234 0.0
H2555 H 0.55279 0.58457 0.6311 0.0
H2556 H 0.49408 0.52248 0.57435 0.0
H2557 H 0.46775 0.52134 0.61165 0.0
C2558 C 0.47801 0.55078 0.6657 0.0
C2559 C 0.48515 0.56727 0.69389 0.0
C2560 C 0.49409 0.55201 0.64383 0.0
C2561 C 0.50947 0.58519 0.69887 0.0
C2562 C 0.52559 0.58649 0.67715 0.0
C2563 C 0.53425 0.57076 0.6267 0.0
C2564 C 0.52617 0.55359 0.59863 0.0
C2565 C 0.51826 0.56995 0.64922 0.0
C2566 C 0.5017 0.5361 0.59471 0.0
C2567 C 0.48622 0.53534 0.61645 0.0
H2568 H 0.79733 0.20175 0.99532 0.0
H2569 H 0.7412 0.13712 0.93774 0.0
H2570 H 0.73571 0.17106 0.90959 0.0
H2571 H 0.74792 0.21884 0.90071 0.0
H2572 H 0.80319 0.28338 0.95891 0.0
H2573 H 0.80794 0.24967 0.98783 0.0
C2574 C 0.78394 0.19501 0.97656 0.0
C2575 C 0.76989 0.16691 0.96841 0.0
C2576 C 0.78062 0.21465 0.96084 0.0
C2577 C 0.7524 0.1586 0.94427 0.0
C2578 C 0.74919 0.17799 0.92825 0.0
C2579 C 0.76059 0.22548 0.92006 0.0
C2580 C 0.77494 0.25337 0.92816 0.0
C2581 C 0.76324 0.20602 0.93633 0.0
C2582 C 0.79164 0.26202 0.95287 0.0
C2583 C 0.79452 0.24274 0.96912 0.0
H2584 H 0.1738 0.5138 0.1495 0.0
H2585 H 0.12189 0.52789 0.20948 0.0
H2586 H 0.09194 0.53075 0.17181 0.0
H2587 H 0.08254 0.53413 0.12252 0.0
H2588 H 0.13554 0.52084 0.06395 0.0
H2589 H 0.16313 0.51307 0.10038 0.0
C2590 C 0.15583 0.51715 0.15436 0.0
C2591 C 0.1502 0.52097 0.18222 0.0
C2592 C 0.13907 0.51942 0.13291 0.0
C2593 C 0.12672 0.52501 0.18812 0.0
C2594 C 0.10963 0.5268 0.16665 0.0
C2595 C 0.1 0.52927 0.11782 0.0
C2596 C 0.10746 0.52909 0.09092 0.0
C2597 C 0.11591 0.52482 0.13909 0.0
C2598 C 0.12994 0.5224 0.08483 0.0
C2599 C 0.14562 0.51756 0.10558 0.0
H2600 H 0.83493 0.8791 0.44817 0.0
H2601 H 0.83021 0.79942 0.4715 0.0
H2602 H 0.82447 0.77542 0.42179 0.0
H2603 H 0.81855 0.77656 0.37132 0.0
H2604 H 0.82461 0.85623 0.34795 0.0
H2605 H 0.83223 0.8807 0.39772 0.0
C2606 C 0.83263 0.85648 0.44238 0.0
C2607 C 0.83272 0.84108 0.46367 0.0
C2608 C 0.82974 0.84279 0.41363 0.0
C2609 C 0.83012 0.81183 0.45568 0.0
C2610 C 0.82683 0.79805 0.42719 0.0
C2611 C 0.82209 0.79934 0.37723 0.0
C2612 C 0.82167 0.81467 0.35606 0.0
C2613 C 0.8264 0.81324 0.40596 0.0
C2614 C 0.82556 0.8441 0.3639 0.0
C2615 C 0.82967 0.85804 0.39237 0.0
H2616 H 0.46066 0.54501 0.88748 0.0
H2617 H 0.52168 0.59115 0.85242 0.0
H2618 H 0.55033 0.59018 0.89291 0.0
H2619 H 0.55826 0.57761 0.94071 0.0
H2620 H 0.49536 0.53411 0.97508 0.0
H2621 H 0.46816 0.53253 0.93322 0.0
C2622 C 0.48023 0.55499 0.88833 0.0
C2623 C 0.48838 0.56832 0.86601 0.0
C2624 C 0.49676 0.55447 0.91205 0.0
C2625 C 0.51417 0.58091 0.86866 0.0
C2626 C 0.53077 0.5802 0.89209 0.0
C2627 C 0.53877 0.56687 0.93867 0.0
C2628 C 0.52957 0.55439 0.96127 0.0
C2629 C 0.52242 0.56704 0.91419 0.0
C2630 C 0.50367 0.54262 0.95819 0.0
C2631 C 0.48783 0.54205 0.9341 0.0
H2632 H 0.80792 0.23618 0.09768 0.0
H2633 H 0.81614 0.16105 0.12443 0.0
H2634 H 0.81503 0.18367 0.17318 0.0
H2635 H 0.80993 0.22361 0.20774 0.0
H2636 H 0.80291 0.29954 0.18244 0.0
H2637 H 0.8053 0.27769 0.13322 0.0
C2638 C 0.80985 0.22493 0.11422 0.0
C2639 C 0.81188 0.19694 0.10745 0.0
C2640 C 0.80898 0.23796 0.14223 0.0
C2641 C 0.81441 0.1826 0.12909 0.0
C2642 C 0.81365 0.19541 0.15695 0.0
C2643 C 0.80842 0.23515 0.19133 0.0
C2644 C 0.8054 0.26262 0.19817 0.0
C2645 C 0.8104 0.22279 0.1636 0.0
C2646 C 0.80469 0.27802 0.1772 0.0
C2647 C 0.80622 0.26564 0.14925 0.0
H2648 H 0.19197 0.60517 0.31028 0.0
H2649 H 0.18729 0.51733 0.30793 0.0
H2650 H 0.15279 0.51536 0.33651 0.0
H2651 H 0.1223 0.53757 0.3589 0.0
H2652 H 0.1256 0.62486 0.3602 0.0
H2653 H 0.16213 0.628 0.33441 0.0
C2654 C 0.18373 0.58579 0.31658 0.0
C2655 C 0.19213 0.56146 0.3073 0.0
C2656 C 0.16339 0.58457 0.33207 0.0
C2657 C 0.18107 0.53631 0.31503 0.0
C2658 C 0.16129 0.53513 0.33113 0.0
C2659 C 0.13115 0.55735 0.35369 0.0
C2660 C 0.12142 0.58096 0.36128 0.0
C2661 C 0.15199 0.55894 0.33917 0.0
C2662 C 0.1327 0.60636 0.35415 0.0
C2663 C 0.15365 0.60819 0.33972 0.0
H2664 H 0.83532 0.89317 0.6312 0.0
H2665 H 0.80159 0.80937 0.58181 0.0
H2666 H 0.79966 0.79106 0.62454 0.0
H2667 H 0.80814 0.7984 0.67573 0.0
H2668 H 0.83895 0.8821 0.72609 0.0
H2669 H 0.84207 0.90071 0.68341 0.0
C2670 C 0.82761 0.8709 0.62978 0.0
C2671 C 0.8187 0.85272 0.6031 0.0
C2672 C 0.82621 0.8604 0.65468 0.0
C2673 C 0.80857 0.82394 0.60187 0.0
C2674 C 0.80747 0.81338 0.62637 0.0
C2675 C 0.81503 0.82076 0.67756 0.0
C2676 C 0.82333 0.83865 0.70437 0.0
C2677 C 0.81618 0.83138 0.65288 0.0
C2678 C 0.83295 0.86758 0.70591 0.0
C2679 C 0.8345 0.87832 0.6814 0.0
H2680 H 0.75681 0.47083 0.55034 0.0
H2681 H 0.81941 0.54062 0.55157 0.0
H2682 H 0.79321 0.57359 0.56211 0.0
H2683 H 0.75218 0.58237 0.57012 0.0
H2684 H 0.6901 0.51222 0.56936 0.0
H2685 H 0.71649 0.47954 0.55941 0.0
C2686 C 0.76476 0.49325 0.55291 0.0
C2687 C 0.78995 0.50327 0.55015 0.0
C2688 C 0.7497 0.512 0.55909 0.0
C2689 C 0.8 0.53239 0.55362 0.0
C2690 C 0.78506 0.55125 0.55966 0.0
C2691 C 0.74461 0.55998 0.56821 0.0
C2692 C 0.71931 0.54968 0.57043 0.0
C2693 C 0.75988 0.54128 0.56245 0.0
C2694 C 0.70953 0.52058 0.56749 0.0
C2695 C 0.72457 0.5019 0.56184 0.0
H2696 H 0.23274 0.08726 0.50343 0.0
H2697 H 0.22255 0.17142 0.51224 0.0
H2698 H 0.17798 0.15356 0.5135 0.0
H2699 H 0.14172 0.11388 0.51326 0.0
H2700 H 0.15256 0.03009 0.50378 0.0
H2701 H 0.19666 0.04778 0.50144 0.0
C2702 C 0.22081 0.10174 0.50553 0.0
C2703 C 0.23116 0.1307 0.50785 0.0
C2704 C 0.19511 0.0913 0.50602 0.0
C2705 C 0.21522 0.14903 0.51039 0.0
C2706 C 0.18966 0.13882 0.51118 0.0
C2707 C 0.15374 0.0995 0.5105 0.0
C2708 C 0.14357 0.07044 0.50814 0.0
C2709 C 0.17938 0.10999 0.50919 0.0
C2710 C 0.15951 0.05223 0.5047 0.0
C2711 C 0.18492 0.06247 0.50371 0.0
H2712 H 0.24351 0.9172 0.72634 0.0
H2713 H 0.23843 0.95272 0.81325 0.0
H2714 H 0.25988 0.91891 0.82771 0.0
H2715 H 0.27967 0.87734 0.81608 0.0
H2716 H 0.28437 0.84243 0.72899 0.0
H2717 H 0.26421 0.87718 0.71488 0.0
C2718 C 0.24704 0.91795 0.74863 0.0
C2719 C 0.2387 0.93855 0.76843 0.0
C2720 C 0.25977 0.89803 0.75699 0.0
C2721 C 0.2441 0.93799 0.79706 0.0
C2722 C 0.25656 0.91827 0.80543 0.0
C2723 C 0.27667 0.87742 0.79392 0.0
C2724 C 0.28472 0.85682 0.77385 0.0
C2725 C 0.2645 0.89794 0.78569 0.0
C2726 C 0.27959 0.85778 0.74533 0.0
C2727 C 0.26762 0.87782 0.73715 0.0
H2728 H 0.4125 0.96394 0.02047 0.0
H2729 H 0.42458 0.04645 0.0751 0.0
H2730 H 0.46921 0.05511 0.07074 0.0
H2731 H 0.50427 0.03907 0.05115 0.0
H2732 H 0.49216 0.95617 0.99772 0.0
H2733 H 0.44748 0.9474 1.00219 0.0
C2734 C 0.42481 0.98393 0.03137 0.0
C2735 C 0.41527 1.00473 0.04789 0.0
C2736 C 0.45022 0.98844 0.02914 0.0
C2737 C 0.43153 0.03023 0.06226 0.0
C2738 C 0.45696 0.03511 0.0598 0.0
C2739 C 0.49174 0.01917 0.04034 0.0
C2740 C 0.50101 0.99849 0.02341 0.0
C2741 C 0.46641 0.01436 0.04326 0.0
C2742 C 0.48507 0.9724 0.01036 0.0
C2743 C 0.45969 0.96747 0.01298 0.0
H2744 H 0.8482 0.56893 0.80402 0.0
H2745 H 0.90904 0.64349 0.82047 0.0
H2746 H 0.88242 0.66867 0.79955 0.0
H2747 H 0.84361 0.66737 0.77191 0.0
H2748 H 0.78339 0.59218 0.75452 0.0
H2749 H 0.80858 0.56887 0.77998 0.0
C2750 C 0.85564 0.59082 0.80338 0.0
C2751 C 0.88063 0.60427 0.81344 0.0
C2752 C 0.84057 0.60474 0.79068 0.0
C2753 C 0.88987 0.63268 0.81276 0.0
C2754 C 0.87473 0.64698 0.80063 0.0
C2755 C 0.83576 0.6461 0.77422 0.0
C2756 C 0.81169 0.63143 0.76131 0.0
C2757 C 0.8503 0.63291 0.78882 0.0
C2758 C 0.80199 0.60371 0.76397 0.0
C2759 C 0.8163 0.59048 0.77864 0.0
H2760 H 0.89581 0.68057 0.02707 0.0
H2761 H 0.82928 0.61345 0.99891 0.0
H2762 H 0.85296 0.57863 1.00267 0.0
H2763 H 0.89208 0.56713 0.01563 0.0
H2764 H 0.95851 0.63403 0.04489 0.0
H2765 H 0.93548 0.66886 0.03834 0.0
C2766 C 0.88648 0.65832 0.0216 0.0
C2767 C 0.8607 0.64973 0.01285 0.0
C2768 C 0.90022 0.6383 0.02392 0.0
C2769 C 0.84905 0.62076 0.00573 0.0
C2770 C 0.86258 0.60078 0.00791 0.0
C2771 C 0.90153 0.58934 0.02073 0.0
C2772 C 0.92698 0.59787 0.03103 0.0
C2773 C 0.88809 0.60931 0.01731 0.0
C2774 C 0.939 0.62675 0.03679 0.0
C2775 C 0.92578 0.64674 0.03324 0.0
H2776 H 0.28075 0.11596 0.80783 0.0
H2777 H 0.21408 0.10196 0.75114 0.0
H2778 H 0.22786 0.14997 0.74355 0.0
H2779 H 0.25908 0.19704 0.75323 0.0
H2780 H 0.32523 0.21012 0.81048 0.0
H2781 H 0.31165 0.16214 0.81716 0.0
C2782 C 0.26909 0.12318 0.7937 0.0
C2783 C 0.24613 0.10459 0.78015 0.0
C2784 C 0.27725 0.15113 0.78932 0.0
C2785 C 0.23172 0.11514 0.76198 0.0
C2786 C 0.23967 0.14288 0.75762 0.0
C2787 C 0.27066 0.18945 0.76711 0.0
C2788 C 0.29376 0.20777 0.78083 0.0
C2789 C 0.26244 0.16125 0.77119 0.0
C2790 C 0.30796 0.19692 0.79886 0.0
C2791 C 0.29997 0.16927 0.80297 0.0
H2792 H 0.39895 0.95865 0.30631 0.0
H2793 H 0.33935 0.97187 0.25338 0.0
H2794 H 0.32245 0.92096 0.23797 0.0
H2795 H 0.32513 0.87268 0.23894 0.0
H2796 H 0.38366 0.85973 0.29322 0.0
H2797 H 0.40105 0.91078 0.30823 0.0
C2798 C 0.38224 0.95046 0.29143 0.0
C2799 C 0.37048 0.96899 0.28088 0.0
C2800 C 0.37275 0.92131 0.28259 0.0
C2801 C 0.34879 0.95802 0.26172 0.0
C2802 C 0.33919 0.92895 0.25279 0.0
C2803 C 0.3416 0.88127 0.25418 0.0
C2804 C 0.35292 0.86306 0.26564 0.0
C2805 C 0.35111 0.91044 0.26296 0.0
C2806 C 0.37448 0.8738 0.28485 0.0
C2807 C 0.38443 0.90282 0.29322 0.0
H2808 H 0.59354 0.3842 0.52996 0.0
H2809 H 0.6054 0.40921 0.62073 0.0
H2810 H 0.59762 0.45503 0.6185 0.0
H2811 H 0.58706 0.48851 0.59105 0.0
H2812 H 0.57825 0.46533 0.50035 0.0
H2813 H 0.58477 0.41874 0.50231 0.0
C2814 C 0.59454 0.39963 0.54935 0.0
C2815 C 0.60016 0.39266 0.57561 0.0
C2816 C 0.59025 0.42647 0.54791 0.0
C2817 C 0.60132 0.41346 0.60024 0.0
C2818 C 0.59674 0.43984 0.59896 0.0
C2819 C 0.58647 0.47326 0.57161 0.0
C2820 C 0.58126 0.48052 0.54548 0.0
C2821 C 0.5911 0.44664 0.57296 0.0
C2822 C 0.58129 0.4604 0.52073 0.0
C2823 C 0.58531 0.4337 0.52191 0.0
H2824 H 0.4699 0.77815 0.35691 0.0
H2825 H 0.42602 0.76445 0.42477 0.0
H2826 H 0.38963 0.76941 0.39757 0.0
H2827 H 0.36966 0.77835 0.35475 0.0
H2828 H 0.41329 0.79397 0.2872 0.0
H2829 H 0.44965 0.78754 0.31364 0.0
C2830 C 0.45232 0.77593 0.36562 0.0
C2831 C 0.451 0.77072 0.39308 0.0
C2832 C 0.43114 0.77939 0.34986 0.0
C2833 C 0.42791 0.76841 0.40388 0.0
C2834 C 0.40692 0.77132 0.38828 0.0
C2835 C 0.38715 0.78068 0.34583 0.0
C2836 C 0.38839 0.78676 0.31878 0.0
C2837 C 0.40827 0.77709 0.36135 0.0
C2838 C 0.41141 0.7892 0.30778 0.0
C2839 C 0.43238 0.78551 0.32298 0.0
H2840 H 0.09428 0.71531 0.02615 0.0
H2841 H 0.10812 0.7342 0.11697 0.0
H2842 H 0.10295 0.68422 0.11607 0.0
H2843 H 0.09214 0.63448 0.08998 0.0
H2844 H 0.07861 0.61495 0.99936 0.0
H2845 H 0.08626 0.66535 0.99969 0.0
C2846 C 0.09632 0.70859 0.04579 0.0
C2847 C 0.10144 0.72896 0.07167 0.0
C2848 C 0.09338 0.67944 0.04516 0.0
C2849 C 0.10409 0.71941 0.09673 0.0
C2850 C 0.10112 0.69065 0.09625 0.0
C2851 C 0.0912 0.64128 0.07026 0.0
C2852 C 0.085 0.62075 0.04465 0.0
C2853 C 0.09545 0.67041 0.07067 0.0
C2854 C 0.08369 0.63007 0.01934 0.0
C2855 C 0.08789 0.65901 0.01958 0.0
H2856 H 0.123 0.28748 0.91791 0.0
H2857 H 0.06125 0.25863 0.85195 0.0
H2858 H 0.08989 0.26366 0.81649 0.0
H2859 H 0.13227 0.27732 0.80409 0.0
H2860 H 0.19413 0.30716 0.86981 0.0
H2861 H 0.16571 0.30004 0.90529 0.0
C2862 C 0.11578 0.28217 0.89577 0.0
C2863 C 0.0899 0.27275 0.88772 0.0
C2864 C 0.1324 0.28518 0.87537 0.0
C2865 C 0.081 0.26592 0.85887 0.0
C2866 C 0.09739 0.26882 0.83852 0.0
C2867 C 0.13958 0.28247 0.82618 0.0
C2868 C 0.16538 0.29303 0.83416 0.0
C2869 C 0.12309 0.27866 0.84653 0.0
C2870 C 0.17445 0.29885 0.86292 0.0
C2871 C 0.15816 0.29496 0.88328 0.0
H2872 H 0.65217 0.76514 0.94173 0.0
H2873 H 0.58078 0.77731 0.91448 0.0
H2874 H 0.56183 0.7532 0.94931 0.0
H2875 H 0.56515 0.72758 0.98664 0.0
H2876 H 0.63619 0.71479 0.01377 0.0
H2877 H 0.65563 0.74014 0.97978 0.0
C2878 C 0.63247 0.76249 0.9434 0.0
C2879 C 0.61793 0.77284 0.92539 0.0
C2880 C 0.62161 0.74852 0.96344 0.0
C2881 C 0.59242 0.76933 0.9279 0.0
C2882 C 0.58153 0.75563 0.94788 0.0
C2883 C 0.58495 0.73075 0.98538 0.0
C2884 C 0.59923 0.71949 1.00266 0.0
C2885 C 0.59592 0.74507 0.96568 0.0
C2886 C 0.6248 0.72321 1.00051 0.0
C2887 C 0.63592 0.73769 0.98113 0.0
H2888 H 0.0833 0.77492 0.72122 0.0
H2889 H 0.04723 0.68628 0.707 0.0
H2890 H 0.08517 0.67705 0.72641 0.0
H2891 H 0.129 0.69362 0.74519 0.0
H2892 H 0.16486 0.78244 0.76152 0.0
H2893 H 0.12665 0.79199 0.74301 0.0
C2894 C 0.08369 0.75364 0.72263 0.0
C2895 C 0.0625 0.73135 0.7127 0.0
C2896 C 0.10557 0.74843 0.73388 0.0
C2897 C 0.06326 0.70387 0.71465 0.0
C2898 C 0.08498 0.69852 0.72562 0.0
C2899 C 0.12837 0.71516 0.74527 0.0
C2900 C 0.14982 0.73721 0.75462 0.0
C2901 C 0.10628 0.72058 0.73507 0.0
C2902 C 0.14874 0.76494 0.75399 0.0
C2903 C 0.12686 0.77048 0.74359 0.0
H2904 H 0.13043 0.42606 0.39714 0.0
H2905 H 0.13879 0.3782 0.46008 0.0
H2906 H 0.12511 0.41223 0.49499 0.0
H2907 H 0.10663 0.45299 0.50598 0.0
H2908 H 0.09589 0.49798 0.44119 0.0
H2909 H 0.11457 0.46768 0.40868 0.0
C2910 C 0.12976 0.42333 0.41862 0.0
C2911 C 0.13546 0.39966 0.42597 0.0
C2912 C 0.121 0.44222 0.43814 0.0
C2913 C 0.1344 0.39633 0.4539 0.0
C2914 C 0.12643 0.41564 0.47382 0.0
C2915 C 0.10853 0.45614 0.48481 0.0
C2916 C 0.09938 0.47719 0.47577 0.0
C2917 C 0.11896 0.43821 0.46591 0.0
C2918 C 0.10212 0.48135 0.44838 0.0
C2919 C 0.11302 0.4642 0.4298 0.0
H2920 H 0.45078 0.2502 0.21702 0.0
H2921 H 0.41306 0.26319 0.14232 0.0
H2922 H 0.37583 0.26391 0.16584 0.0
H2923 H 0.35499 0.26404 0.20853 0.0
H2924 H 0.39202 0.2509 0.28322 0.0
H2925 H 0.42852 0.24634 0.25864 0.0
C2926 C 0.43436 0.25299 0.20583 0.0
C2927 C 0.43475 0.25692 0.17806 0.0
C2928 C 0.41295 0.2532 0.21941 0.0
C2929 C 0.41326 0.26021 0.16372 0.0
C2930 C 0.39195 0.26059 0.17712 0.0
C2931 C 0.3711 0.26006 0.21926 0.0
C2932 C 0.3716 0.25896 0.24777 0.0
C2933 C 0.39175 0.25756 0.20505 0.0
C2934 C 0.39184 0.25262 0.26142 0.0
C2935 C 0.41257 0.25 0.24738 0.0
H2936 H 0.60579 0.51337 0.33796 0.0
H2937 H 0.68223 0.52823 0.37205 0.0
H2938 H 0.66991 0.53563 0.42013 0.0
H2939 H 0.63652 0.53781 0.4538 0.0
H2940 H 0.56073 0.52247 0.41715 0.0
H2941 H 0.57356 0.51547 0.37019 0.0
C2942 C 0.62004 0.5182 0.35571 0.0
C2943 C 0.64526 0.52008 0.35034 0.0
C2944 C 0.61271 0.52236 0.38364 0.0
C2945 C 0.66279 0.52644 0.37456 0.0
C2946 C 0.65562 0.53076 0.40243 0.0
C2947 C 0.62274 0.533 0.43561 0.0
C2948 C 0.59708 0.53019 0.44002 0.0
C2949 C 0.63052 0.52884 0.40751 0.0
C2950 C 0.58016 0.52395 0.41539 0.0
C2951 C 0.58766 0.52018 0.38808 0.0
H2952 H 0.39818 0.92539 0.09535 0.0
H2953 H 0.31931 0.88808 0.07876 0.0
H2954 H 0.32344 0.85475 0.10841 0.0
H2955 H 0.35062 0.83275 0.13387 0.0
H2956 H 0.4294 0.87151 0.1509 0.0
H2957 H 0.42415 0.90788 0.12613 0.0
C2958 C 0.38186 0.91014 0.09851 0.0
C2959 C 0.3586 0.90867 0.08461 0.0
C2960 C 0.38442 0.89121 0.11535 0.0
C2961 C 0.33745 0.88936 0.08923 0.0
C2962 C 0.33984 0.87027 0.10603 0.0
C2963 C 0.36653 0.84954 0.13277 0.0
C2964 C 0.39046 0.84906 0.1436 0.0
C2965 C 0.36339 0.87048 0.11849 0.0
C2966 C 0.41089 0.87099 0.14202 0.0
C2967 C 0.40791 0.89185 0.12798 0.0
H2968 H 0.98099 0.56505 0.87418 0.0
H2969 H 0.95158 0.47559 0.86489 0.0
H2970 H 0.98303 0.47497 0.90188 0.0
H2971 H 0.01731 0.50012 0.93817 0.0
H2972 H 0.04854 0.58901 0.94696 0.0
H2973 H 0.01834 0.58967 0.90812 0.0
C2974 C 0.9816 0.54552 0.88035 0.0
C2975 C 0.96401 0.52046 0.86731 0.0
C2976 C 1.0001 0.5452 0.90113 0.0
C2977 C 0.96503 0.49509 0.87486 0.0
C2978 C 0.98295 0.4947 0.89591 0.0
C2979 C 0.01761 0.51953 0.93128 0.0
C2980 C 0.03465 0.54452 0.94522 0.0
C2981 C 1.00038 0.51964 0.90929 0.0
C2982 C 0.03544 0.56955 0.93615 0.0
C2983 C 0.0181 0.56995 0.91425 0.0
H2984 H 0.30645 0.20974 0.60613 0.0
H2985 H 0.30252 0.28782 0.58356 0.0
H2986 H 0.30832 0.31154 0.63345 0.0
H2987 H 0.31596 0.31053 0.68371 0.0
H2988 H 0.31654 0.23186 0.70663 0.0
H2989 H 0.31038 0.20783 0.65666 0.0
C2990 C 0.307 0.23198 0.61219 0.0
C2991 C 0.30451 0.24715 0.59114 0.0
C2992 C 0.30951 0.24528 0.64103 0.0
C2993 C 0.30462 0.27576 0.59932 0.0
C2994 C 0.30789 0.28932 0.62786 0.0
C2995 C 0.31428 0.28802 0.67765 0.0
C2996 C 0.31626 0.27284 0.6987 0.0
C2997 C 0.31047 0.27436 0.6489 0.0
C2998 C 0.3145 0.2438 0.69073 0.0
C2999 C 0.31122 0.23015 0.66218 0.0
H3000 H 0.61136 0.53267 0.19719 0.0
H3001 H 0.67899 0.51077 0.17425 0.0
H3002 H 0.6682 0.51441 0.12567 0.0
H3003 H 0.63978 0.52451 0.08879 0.0
H3004 H 0.57055 0.54238 0.11075 0.0
H3005 H 0.5818 0.54005 0.15967 0.0
C3006 C 0.62386 0.52848 0.18168 0.0
C3007 C 0.64632 0.52132 0.19041 0.0
C3008 C 0.61726 0.53031 0.15312 0.0
C3009 C 0.6617 0.51609 0.16909 0.0
C3010 C 0.65548 0.51834 0.14098 0.0
C3011 C 0.62705 0.52805 0.10421 0.0
C3012 C 0.60445 0.5348 0.09541 0.0
C3013 C 0.63337 0.52559 0.13261 0.0
C3014 C 0.58831 0.53829 0.11625 0.0
C3015 C 0.59475 0.53662 0.1445 0.0
H3016 H 0.31567 0.88281 0.95153 0.0
H3017 H 0.38898 0.92793 0.93991 0.0
H3018 H 0.38917 0.89192 0.8982 0.0
H3019 H 0.36764 0.84935 0.86351 0.0
H3020 H 0.29291 0.80699 0.87241 0.0
H3021 H 0.2948 0.83889 0.91753 0.0
C3022 C 0.33171 0.8847 0.93993 0.0
C3023 C 0.35209 0.9082 0.94859 0.0
C3024 C 0.33163 0.86411 0.91569 0.0
C3025 C 0.37285 0.91024 0.93347 0.0
C3026 C 0.37308 0.88957 0.9097 0.0
C3027 C 0.35164 0.8472 0.87512 0.0
C3028 C 0.32972 0.82638 0.8638 0.0
C3029 C 0.3524 0.86669 0.90036 0.0
C3030 C 0.30982 0.82295 0.8801 0.0
C3031 C 0.31082 0.84147 0.90593 0.0
H3032 H 0.98382 0.58056 0.76035 0.0
H3033 H 0.94295 0.4936 0.74726 0.0
H3034 H 0.97147 0.47922 0.7149 0.0
H3035 H 0.00889 0.49108 0.69151 0.0
H3036 H 0.04856 0.57788 0.70209 0.0
H3037 H 0.01973 0.59277 0.73439 0.0
C3038 C 0.98111 0.55852 0.75024 0.0
C3039 C 0.96144 0.5382 0.75625 0.0
C3040 C 0.99749 0.55037 0.73151 0.0
C3041 C 0.95792 0.5097 0.74285 0.0
C3042 C 0.97429 0.50139 0.72449 0.0
C3043 C 0.01123 0.51319 0.7012 0.0
C3044 C 0.03092 0.53341 0.69533 0.0
C3045 C 0.99431 0.52149 0.71899 0.0
C3046 C 0.03363 0.56209 0.70702 0.0
C3047 C 0.01715 0.57053 0.72526 0.0
H3048 H 0.31409 0.20243 0.42349 0.0
H3049 H 0.33037 0.28777 0.47278 0.0
H3050 H 0.33523 0.30583 0.4301 0.0
H3051 H 0.33359 0.29775 0.37853 0.0
H3052 H 0.31821 0.2128 0.3288 0.0
H3053 H 0.31402 0.19443 0.37159 0.0
C3054 C 0.31874 0.22498 0.42494 0.0
C3055 C 0.32178 0.2436 0.45158 0.0
C3056 C 0.32168 0.23541 0.40009 0.0
C3057 C 0.32789 0.27279 0.45278 0.0
C3058 C 0.33069 0.28323 0.42828 0.0
C3059 C 0.33 0.27526 0.37702 0.0
C3060 C 0.3267 0.2568 0.35032 0.0
C3061 C 0.3276 0.26479 0.4018 0.0
C3062 C 0.32101 0.2276 0.34896 0.0
C3063 C 0.31857 0.21704 0.3735 0.0
H3064 H 0.33427 0.56288 0.50258 0.0
H3065 H 0.39009 0.63277 0.48807 0.0
H3066 H 0.41748 0.60188 0.47536 0.0
H3067 H 0.42612 0.55584 0.46974 0.0
H3068 H 0.37249 0.48627 0.48785 0.0
H3069 H 0.34312 0.516 0.49663 0.0
C3070 C 0.35238 0.57126 0.49649 0.0
C3071 C 0.36019 0.60004 0.49633 0.0
C3072 C 0.36823 0.55344 0.48955 0.0
C3073 C 0.3837 0.61071 0.4885 0.0
C3074 C 0.39935 0.59307 0.48113 0.0
C3075 C 0.40805 0.54716 0.47577 0.0
C3076 C 0.40159 0.51905 0.47856 0.0
C3077 C 0.39187 0.56453 0.48184 0.0
C3078 C 0.37784 0.50785 0.48549 0.0
C3079 C 0.36118 0.5249 0.49077 0.0
H3080 H 0.90747 0.97726 0.55152 0.0
H3081 H 0.92935 0.8987 0.54193 0.0
H3082 H 0.97193 0.9229 0.53893 0.0
H3083 H 1.00292 0.96578 0.53703 0.0
H3084 H 0.98236 0.04485 0.54792 0.0
H3085 H 0.93962 0.02127 0.55259 0.0
C3086 C 0.92159 0.96548 0.54891 0.0
C3087 C 0.91502 0.93608 0.54675 0.0
C3088 C 0.94638 0.97965 0.54744 0.0
C3089 C 0.93368 0.92126 0.54358 0.0
C3090 C 0.95814 0.93508 0.54182 0.0
C3091 C 0.98911 0.97789 0.54065 0.0
C3092 C 0.99588 1.00709 0.54229 0.0
C3093 C 0.96466 0.96417 0.54342 0.0
C3094 C 0.97782 0.02251 0.54711 0.0
C3095 C 0.95327 1.00892 0.54951 0.0
H3096 H 0.8959 0.17106 0.32783 0.0
H3097 H 0.89709 0.13687 0.23962 0.0
H3098 H 0.87446 0.17074 0.22765 0.0
H3099 H 0.85422 0.21153 0.24186 0.0
H3100 H 0.85521 0.24663 0.33017 0.0
H3101 H 0.87625 0.21157 0.34191 0.0
C3102 C 0.89134 0.17068 0.3058 0.0
C3103 C 0.89885 0.15038 0.28482 0.0
C3104 C 0.87811 0.19076 0.29891 0.0
C3105 C 0.89217 0.15143 0.25661 0.0
C3106 C 0.87897 0.17112 0.2497 0.0
C3107 C 0.85864 0.2114 0.2638 0.0
C3108 C 0.85155 0.23182 0.28502 0.0
C3109 C 0.87173 0.19105 0.27057 0.0
C3110 C 0.85885 0.2311 0.31311 0.0
C3111 C 0.8714 0.21097 0.31988 0.0
H3112 H 0.71397 0.07764 0.03453 0.0
H3113 H 0.70748 0.16368 0.05418 0.0
H3114 H 0.66235 0.14733 0.04436 0.0
H3115 H 0.62509 0.10876 0.02646 0.0
H3116 H 0.63189 0.02328 0.00559 0.0
H3117 H 0.67666 0.03909 0.01948 0.0
C3118 C 0.70268 0.09282 0.03695 0.0
C3119 C 0.71399 0.12179 0.04472 0.0
C3120 C 0.67688 0.08335 0.03091 0.0
C3121 C 0.69917 0.14122 0.04805 0.0
C3122 C 0.6734 0.13194 0.04227 0.0
C3123 C 0.63646 0.09371 0.0256 0.0
C3124 C 0.62539 0.06489 0.01648 0.0
C3125 C 0.66215 0.10311 0.0331 0.0
C3126 C 0.64007 0.04543 0.0139 0.0
C3127 C 0.66565 0.05452 0.02157 0.0
H3128 H 0.23454 0.44444 0.2539 0.0
H3129 H 0.28839 0.51175 0.23209 0.0
H3130 H 0.32204 0.49729 0.25465 0.0
H3131 H 0.33585 0.46938 0.28561 0.0
H3132 H 0.28277 0.40166 0.30708 0.0
H3133 H 0.24901 0.4123 0.27956 0.0
C3134 C 0.25366 0.45558 0.2536 0.0
C3135 C 0.25891 0.47942 0.2418 0.0
C3136 C 0.27299 0.44736 0.2669 0.0
C3137 C 0.28379 0.49347 0.24127 0.0
C3138 C 0.30309 0.48534 0.2543 0.0
C3139 C 0.31688 0.45688 0.2839 0.0
C3140 C 0.31142 0.43529 0.29852 0.0
C3141 C 0.29783 0.46301 0.26803 0.0
C3142 C 0.28706 0.41865 0.29606 0.0
C3143 C 0.26787 0.42472 0.28039 0.0
H3144 H 0.24714 0.40874 0.01409 0.0
H3145 H 0.31187 0.47691 0.04779 0.0
H3146 H 0.28822 0.51115 0.04162 0.0
H3147 H 0.24971 0.52186 0.02481 0.0
H3148 H 0.18492 0.45395 0.99108 0.0
H3149 H 0.2079 0.4196 0.99951 0.0
C3150 C 0.25604 0.43109 0.02026 0.0
C3151 C 0.28131 0.44018 0.03124 0.0
C3152 C 0.24232 0.45077 0.01662 0.0
C3153 C 0.29247 0.46926 0.03929 0.0
C3154 C 0.27897 0.48891 0.03569 0.0
C3155 C 0.24066 0.49953 0.0192 0.0
C3156 C 0.21574 0.49048 0.00705 0.0
C3157 C 0.254 0.4799 0.02402 0.0
C3158 C 0.20408 0.4615 1.00052 0.0
C3159 C 0.21725 0.44183 1.00521 0.0
H3160 H 0.91996 0.9546 0.25335 0.0
H3161 H 0.87174 1.00272 0.29308 0.0
H3162 H 0.8431 0.95877 0.29805 0.0
H3163 H 0.8321 0.9053 0.29216 0.0
H3164 H 0.88202 0.85984 0.25114 0.0
H3165 H 0.90883 0.90336 0.24599 0.0
C3166 C 0.90317 0.95579 0.26306 0.0
C3167 C 0.89844 0.9826 0.27279 0.0
C3168 C 0.88673 0.93033 0.26584 0.0
C3169 C 0.87621 0.98284 0.28515 0.0
C3170 C 0.85975 0.95746 0.28812 0.0
C3171 C 0.84872 0.90481 0.28194 0.0
C3172 C 0.85456 0.87833 0.27236 0.0
C3173 C 0.86479 0.93082 0.27869 0.0
C3174 C 0.87653 0.87908 0.25921 0.0
C3175 C 0.89217 0.90431 0.25608 0.0
H3176 H 0.75947 0.11157 0.75683 0.0
H3177 H 0.69835 0.11675 0.70043 0.0
H3178 H 0.7179 0.16616 0.70267 0.0
H3179 H 0.75086 0.20876 0.72322 0.0
H3180 H 0.81118 0.20432 0.78077 0.0
H3181 H 0.79343 0.15374 0.77574 0.0
C3182 C 0.75055 0.12344 0.74483 0.0
C3183 C 0.72742 0.1106 0.72867 0.0
C3184 C 0.76166 0.15198 0.74658 0.0
C3185 C 0.71608 0.12623 0.71323 0.0
C3186 C 0.7272 0.15448 0.7145 0.0
C3187 C 0.76019 0.19646 0.73423 0.0
C3188 C 0.78249 0.20965 0.75161 0.0
C3189 C 0.74974 0.16767 0.73148 0.0
C3190 C 0.79429 0.19411 0.76661 0.0
C3191 C 0.78406 0.16535 0.76391 0.0
loop_
_geom_bond_atom_site_label_1
_geom_bond_atom_site_label_2
_geom_bond_distance
_geom_bond_site_symmetry_2
_ccdc_geom_bond_type
C0 O1 1.160 . S
C0 O7 1.185 . S
O1 C0 1.160 . S
O2 Zn3 1.899 . S
O2 C10 1.284 . S
Zn3 O2 1.899 . S
Zn3 O4 2.032 . S
Zn3 O7 2.086 . S
Zn3 O12 1.977 . S
O4 Zn3 2.032 . S
O4 C8 1.278 . S
C5 O6 1.203 . S
C5 O12 1.267 . S
O6 C5 1.203 . S
O7 C0 1.185 . S
O7 Zn3 2.086 . S
C8 O4 1.278 . S
C8 O9 1.211 . S
O9 C8 1.211 . S
C10 O2 1.284 . S
C10 O11 1.273 . S
O11 C10 1.273 . S
O12 Zn3 1.977 . S
O12 C5 1.267 . S
C13 O14 1.160 . S
C13 O20 1.185 . S
O14 C13 1.160 . S
O15 Zn16 1.899 . S
O15 C23 1.284 . S
Zn16 O15 1.899 . S
Zn16 O17 2.032 . S
Zn16 O20 2.086 . S
Zn16 O25 1.977 1_655 S
O17 Zn16 2.032 . S
O17 C21 1.278 1_655 S
C18 O19 1.203 . S
C18 O25 1.267 . S
O19 C18 1.203 . S
O20 C13 1.185 . S
O20 Zn16 2.086 . S
C21 O17 1.278 1_455 S
C21 O22 1.211 . S
O22 C21 1.211 . S
C23 O15 1.284 . S
C23 O24 1.273 1_655 S
O24 C23 1.273 1_455 S
O25 Zn16 1.977 1_455 S
O25 C18 1.267 . S
C26 O27 1.160 . S
C26 O33 1.185 . S
O27 C26 1.160 . S
O28 Zn29 1.899 . S
O28 C36 1.284 . S
Zn29 O28 1.899 . S
Zn29 O30 2.032 . S
Zn29 O33 2.086 . S
Zn29 O38 1.977 . S
O30 Zn29 2.032 . S
O30 C34 1.278 . S
C31 O32 1.203 . S
C31 O38 1.267 . S
O32 C31 1.203 . S
O33 C26 1.185 . S
O33 Zn29 2.086 . S
C34 O30 1.278 . S
C34 O35 1.211 . S
O35 C34 1.211 . S
C36 O28 1.284 . S
C36 O37 1.273 . S
O37 C36 1.273 . S
O38 Zn29 1.977 . S
O38 C31 1.267 . S
C39 O40 1.160 . S
C39 O46 1.185 . S
O40 C39 1.160 . S
O41 Zn42 1.899 . S
O41 C49 1.284 . S
Zn42 O41 1.899 . S
Zn42 O43 2.032 . S
Zn42 O46 2.086 . S
Zn42 O51 1.977 . S
O43 Zn42 2.032 . S
O43 C47 1.278 . S
C44 O45 1.203 . S
C44 O51 1.267 . S
O45 C44 1.203 . S
O46 C39 1.185 . S
O46 Zn42 2.086 . S
C47 O43 1.278 . S
C47 O48 1.211 . S
O48 C47 1.211 . S
C49 O41 1.284 . S
C49 O50 1.273 . S
O50 C49 1.273 . S
O51 Zn42 1.977 . S
O51 C44 1.267 . S
C52 O53 1.160 . S
C52 O59 1.185 . S
O53 C52 1.160 . S
O54 Zn55 1.899 . S
O54 C62 1.284 . S
Zn55 O54 1.899 . S
Zn55 O56 2.032 . S
Zn55 O59 2.086 . S
Zn55 O64 1.977 . S
O56 Zn55 2.032 . S
O56 C60 1.278 . S
C57 O58 1.203 . S
C57 O64 1.267 . S
O58 C57 1.203 . S
O59 C52 1.185 . S
O59 Zn55 2.086 . S
C60 O56 1.278 . S
C60 O61 1.211 . S
O61 C60 1.211 . S
C62 O54 1.284 . S
C62 O63 1.273 . S
O63 C62 1.273 . S
O64 Zn55 1.977 . S
O64 C57 1.267 . S
C65 O66 1.160 . S
C65 O72 1.185 . S
O66 C65 1.160 . S
O67 Zn68 1.899 . S
O67 C75 1.284 . S
Zn68 O67 1.899 . S
Zn68 O69 2.032 . S
Zn68 O72 2.086 . S
Zn68 O77 1.977 . S
O69 Zn68 2.032 . S
O69 C73 1.278 . S
C70 O71 1.203 . S
C70 O77 1.267 . S
O71 C70 1.203 . S
O72 C65 1.185 . S
O72 Zn68 2.086 . S
C73 O69 1.278 . S
C73 O74 1.211 . S
O74 C73 1.211 . S
C75 O67 1.284 . S
C75 O76 1.273 . S
O76 C75 1.273 . S
O77 Zn68 1.977 . S
O77 C70 1.267 . S
C78 O79 1.160 . S
C78 O85 1.185 . S
O79 C78 1.160 . S
O80 Zn81 1.899 . S
O80 C88 1.284 . S
Zn81 O80 1.899 . S
Zn81 O82 2.032 . S
Zn81 O85 2.086 . S
Zn81 O90 1.977 . S
O82 Zn81 2.032 . S
O82 C86 1.278 . S
C83 O84 1.203 . S
C83 O90 1.267 . S
O84 C83 1.203 . S
O85 C78 1.185 . S
O85 Zn81 2.086 . S
C86 O82 1.278 . S
C86 O87 1.211 . S
O87 C86 1.211 . S
C88 O80 1.284 . S
C88 O89 1.273 . S
O89 C88 1.273 . S
O90 Zn81 1.977 . S
O90 C83 1.267 . S
C91 O92 1.160 . S
C91 O98 1.185 . S
O92 C91 1.160 . S
O93 Zn94 1.899 . S
O93 C101 1.284 . S
Zn94 O93 1.899 . S
Zn94 O95 2.032 . S
Zn94 O98 2.086 . S
Zn94 O103 1.977 1_455 S
O95 Zn94 2.032 . S
O95 C99 1.278 . S
C96 O97 1.203 . S
C96 O103 1.267 . S
O97 C96 1.203 . S
O98 C91 1.185 . S
O98 Zn94 2.086 . S
C99 O95 1.278 . S
C99 O100 1.211 . S
O100 C99 1.211 . S
C101 O93 1.284 . S
C101 O102 1.273 . S
O102 C101 1.273 . S
O103 Zn94 1.977 1_655 S
O103 C96 1.267 . S
C104 O105 1.160 . S
C104 O111 1.185 . S
O105 C104 1.160 . S
O106 Zn107 1.899 . S
O106 C114 1.284 . S
Zn107 O106 1.899 . S
Zn107 O108 2.032 . S
Zn107 O111 2.086 . S
Zn107 O116 1.977 1_545 S
O108 Zn107 2.032 . S
O108 C112 1.278 . S
C109 O110 1.203 . S
C109 O116 1.267 . S
O110 C109 1.203 . S
O111 C104 1.185 . S
O111 Zn107 2.086 . S
C112 O108 1.278 . S
C112 O113 1.211 1_545 S
O113 C112 1.211 1_565 S
C114 O106 1.284 . S
C114 O115 1.273 . S
O115 C114 1.273 . S
O116 Zn107 1.977 1_565 S
O116 C109 1.267 . S
C117 O118 1.160 . S
C117 O124 1.185 . S
O118 C117 1.160 . S
O119 Zn120 1.899 . S
O119 C127 1.284 . S
Zn120 O119 1.899 . S
Zn120 O121 2.032 . S
Zn120 O124 2.086 . S
Zn120 O129 1.977 . S
O121 Zn120 2.032 . S
O121 C125 1.278 . S
C122 O123 1.203 . S
C122 O129 1.267 . S
O123 C122 1.203 . S
O124 C117 1.185 . S
O124 Zn120 2.086 . S
C125 O121 1.278 . S
C125 O126 1.211 . S
O126 C125 1.211 . S
C127 O119 1.284 . S
C127 O128 1.273 . S
O128 C127 1.273 . S
O129 Zn120 1.977 . S
O129 C122 1.267 . S
C130 O131 1.160 . S
C130 O137 1.185 . S
O131 C130 1.160 . S
O132 Zn133 1.899 . S
O132 C140 1.284 . S
Zn133 O132 1.899 . S
Zn133 O134 2.032 . S
Zn133 O137 2.086 . S
Zn133 O142 1.977 1_565 S
O134 Zn133 2.032 . S
O134 C138 1.278 1_565 S
C135 O136 1.203 . S
C135 O142 1.267 . S
O136 C135 1.203 . S
O137 C130 1.185 . S
O137 Zn133 2.086 . S
C138 O134 1.278 1_545 S
C138 O139 1.211 . S
O139 C138 1.211 . S
C140 O132 1.284 . S
C140 O141 1.273 1_565 S
O141 C140 1.273 1_545 S
O142 Zn133 1.977 1_545 S
O142 C135 1.267 . S
C143 O144 1.160 . S
C143 O150 1.185 . S
O144 C143 1.160 . S
O145 Zn146 1.899 . S
O145 C153 1.284 . S
Zn146 O145 1.899 . S
Zn146 O147 2.032 1_554 S
Zn146 O150 2.086 . S
Zn146 O155 1.977 . S
O147 Zn146 2.032 1_556 S
O147 C151 1.278 . S
C148 O149 1.203 . S
C148 O155 1.267 . S
O149 C148 1.203 . S
O150 C143 1.185 . S
O150 Zn146 2.086 . S
C151 O147 1.278 . S
C151 O152 1.211 . S
O152 C151 1.211 . S
C153 O145 1.284 . S
C153 O154 1.273 . S
O154 C153 1.273 . S
O155 Zn146 1.977 . S
O155 C148 1.267 . S
C156 O157 1.160 . S
C156 O163 1.185 . S
O157 C156 1.160 . S
O158 Zn159 1.899 . S
O158 C166 1.284 . S
Zn159 O158 1.899 . S
Zn159 O160 2.032 . S
Zn159 O163 2.086 . S
Zn159 O168 1.977 . S
O160 Zn159 2.032 . S
O160 C164 1.278 1_554 S
C161 O162 1.203 . S
C161 O168 1.267 . S
O162 C161 1.203 . S
O163 C156 1.185 . S
O163 Zn159 2.086 . S
C164 O160 1.278 1_556 S
C164 O165 1.211 . S
O165 C164 1.211 . S
C166 O158 1.284 . S
C166 O167 1.273 . S
O167 C166 1.273 . S
O168 Zn159 1.977 . S
O168 C161 1.267 . S
C169 O170 1.160 . S
C169 O176 1.185 . S
O170 C169 1.160 . S
O171 Zn172 1.899 . S
O171 C179 1.284 . S
Zn172 O171 1.899 . S
Zn172 O173 2.032 . S
Zn172 O176 2.086 . S
Zn172 O181 1.977 . S
O173 Zn172 2.032 . S
O173 C177 1.278 1_554 S
C174 O175 1.203 . S
C174 O181 1.267 . S
O175 C174 1.203 . S
O176 C169 1.185 . S
O176 Zn172 2.086 . S
C177 O173 1.278 1_556 S
C177 O178 1.211 . S
O178 C177 1.211 . S
C179 O171 1.284 . S
C179 O180 1.273 . S
O180 C179 1.273 . S
O181 Zn172 1.977 . S
O181 C174 1.267 . S
C182 O183 1.160 . S
C182 O189 1.185 . S
O183 C182 1.160 . S
O184 Zn185 1.899 . S
O184 C192 1.284 . S
Zn185 O184 1.899 . S
Zn185 O186 2.032 . S
Zn185 O189 2.086 . S
Zn185 O194 1.977 . S
O186 Zn185 2.032 . S
O186 C190 1.278 . S
C187 O188 1.203 . S
C187 O194 1.267 . S
O188 C187 1.203 . S
O189 C182 1.185 . S
O189 Zn185 2.086 . S
C190 O186 1.278 . S
C190 O191 1.211 . S
O191 C190 1.211 . S
C192 O184 1.284 . S
C192 O193 1.273 . S
O193 C192 1.273 . S
O194 Zn185 1.977 . S
O194 C187 1.267 . S
C195 O196 1.160 . S
C195 O202 1.185 . S
O196 C195 1.160 . S
O197 Zn198 1.899 . S
O197 C205 1.284 . S
Zn198 O197 1.899 . S
Zn198 O199 2.032 . S
Zn198 O202 2.086 . S
Zn198 O207 1.977 . S
O199 Zn198 2.032 . S
O199 C203 1.278 . S
C200 O201 1.203 . S
C200 O207 1.267 . S
O201 C200 1.203 . S
O202 C195 1.185 . S
O202 Zn198 2.086 . S
C203 O199 1.278 . S
C203 O204 1.211 . S
O204 C203 1.211 . S
C205 O197 1.284 . S
C205 O206 1.273 . S
O206 C205 1.273 . S
O207 Zn198 1.977 . S
O207 C200 1.267 . S
C208 O209 1.160 . S
C208 O215 1.185 . S
O209 C208 1.160 . S
O210 Zn211 1.899 . S
O210 C218 1.284 . S
Zn211 O210 1.899 . S
Zn211 O212 2.032 . S
Zn211 O215 2.086 . S
Zn211 O220 1.977 . S
O212 Zn211 2.032 . S
O212 C216 1.278 . S
C213 O214 1.203 . S
C213 O220 1.267 . S
O214 C213 1.203 . S
O215 C208 1.185 . S
O215 Zn211 2.086 . S
C216 O212 1.278 . S
C216 O217 1.211 . S
O217 C216 1.211 . S
C218 O210 1.284 . S
C218 O219 1.273 . S
O219 C218 1.273 . S
O220 Zn211 1.977 . S
O220 C213 1.267 . S
C221 O222 1.160 . S
C221 O228 1.185 . S
O222 C221 1.160 . S
O223 Zn224 1.899 . S
O223 C231 1.284 . S
Zn224 O223 1.899 . S
Zn224 O225 2.032 . S
Zn224 O228 2.086 . S
Zn224 O233 1.977 . S
O225 Zn224 2.032 . S
O225 C229 1.278 . S
C226 O227 1.203 . S
C226 O233 1.267 . S
O227 C226 1.203 . S
O228 C221 1.185 . S
O228 Zn224 2.086 . S
C229 O225 1.278 . S
C229 O230 1.211 . S
O230 C229 1.211 . S
C231 O223 1.284 . S
C231 O232 1.273 . S
O232 C231 1.273 . S
O233 Zn224 1.977 . S
O233 C226 1.267 . S
C234 O235 1.160 . S
C234 O241 1.185 . S
O235 C234 1.160 . S
O236 Zn237 1.899 . S
O236 C244 1.284 . S
Zn237 O236 1.899 . S
Zn237 O238 2.032 . S
Zn237 O241 2.086 . S
Zn237 O246 1.977 . S
O238 Zn237 2.032 . S
O238 C242 1.278 . S
C239 O240 1.203 . S
C239 O246 1.267 . S
O240 C239 1.203 . S
O241 C234 1.185 . S
O241 Zn237 2.086 . S
C242 O238 1.278 . S
C242 O243 1.211 . S
O243 C242 1.211 . S
C244 O236 1.284 . S
C244 O245 1.273 . S
O245 C244 1.273 . S
O246 Zn237 1.977 . S
O246 C239 1.267 . S
C247 O248 1.160 1_545 S
C247 O254 1.185 . S
O248 C247 1.160 1_565 S
O249 Zn250 1.899 . S
O249 C257 1.284 . S
Zn250 O249 1.899 . S
Zn250 O251 2.032 . S
Zn250 O254 2.086 . S
Zn250 O259 1.977 . S
O251 Zn250 2.032 . S
O251 C255 1.278 . S
C252 O253 1.203 . S
C252 O259 1.267 . S
O253 C252 1.203 . S
O254 C247 1.185 . S
O254 Zn250 2.086 . S
C255 O251 1.278 . S
C255 O256 1.211 . S
O256 C255 1.211 . S
C257 O249 1.284 . S
C257 O258 1.273 . S
O258 C257 1.273 . S
O259 Zn250 1.977 . S
O259 C252 1.267 . S
C260 O261 1.160 . S
C260 O267 1.185 1_554 S
O261 C260 1.160 . S
O262 Zn263 1.899 . S
O262 C270 1.284 . S
Zn263 O262 1.899 . S
Zn263 O264 2.032 1_554 S
Zn263 O267 2.086 1_554 S
Zn263 O272 1.977 1_554 S
O264 Zn263 2.032 1_556 S
O264 C268 1.278 . S
C265 O266 1.203 1_556 S
C265 O272 1.267 . S
O266 C265 1.203 1_554 S
O267 C260 1.185 1_556 S
O267 Zn263 2.086 1_556 S
C268 O264 1.278 . S
C268 O269 1.211 . S
O269 C268 1.211 . S
C270 O262 1.284 . S
C270 O271 1.273 . S
O271 C270 1.273 . S
O272 Zn263 1.977 1_556 S
O272 C265 1.267 . S
C273 O274 1.160 . S
C273 O280 1.185 . S
O274 C273 1.160 . S
O275 Zn276 1.899 . S
O275 C283 1.284 . S
Zn276 O275 1.899 . S
Zn276 O277 2.032 . S
Zn276 O280 2.086 . S
Zn276 O285 1.977 . S
O277 Zn276 2.032 . S
O277 C281 1.278 . S
C278 O279 1.203 . S
C278 O285 1.267 . S
O279 C278 1.203 . S
O280 C273 1.185 . S
O280 Zn276 2.086 . S
C281 O277 1.278 . S
C281 O282 1.211 . S
O282 C281 1.211 . S
C283 O275 1.284 . S
C283 O284 1.273 . S
O284 C283 1.273 . S
O285 Zn276 1.977 . S
O285 C278 1.267 . S
C286 O287 1.160 . S
C286 O293 1.185 . S
O287 C286 1.160 . S
O288 Zn289 1.899 . S
O288 C296 1.284 . S
Zn289 O288 1.899 . S
Zn289 O290 2.032 . S
Zn289 O293 2.086 . S
Zn289 O298 1.977 . S
O290 Zn289 2.032 . S
O290 C294 1.278 . S
C291 O292 1.203 . S
C291 O298 1.267 . S
O292 C291 1.203 . S
O293 C286 1.185 . S
O293 Zn289 2.086 . S
C294 O290 1.278 . S
C294 O295 1.211 . S
O295 C294 1.211 . S
C296 O288 1.284 . S
C296 O297 1.273 . S
O297 C296 1.273 . S
O298 Zn289 1.977 . S
O298 C291 1.267 . S
C299 O300 1.160 . S
C299 O306 1.185 . S
O300 C299 1.160 . S
O301 Zn302 1.899 . S
O301 C309 1.284 . S
Zn302 O301 1.899 . S
Zn302 O303 2.032 . S
Zn302 O306 2.086 . S
Zn302 O311 1.977 . S
O303 Zn302 2.032 . S
O303 C307 1.278 . S
C304 O305 1.203 . S
C304 O311 1.267 . S
O305 C304 1.203 . S
O306 C299 1.185 . S
O306 Zn302 2.086 . S
C307 O303 1.278 . S
C307 O308 1.211 . S
O308 C307 1.211 . S
C309 O301 1.284 . S
C309 O310 1.273 . S
O310 C309 1.273 . S
O311 Zn302 1.977 . S
O311 C304 1.267 . S
Eu312 N343 2.657 1_546 S
Eu312 N350 2.609 1_545 S
Eu312 O356 2.558 1_455 S
Eu312 O357 2.612 1_556 S
Eu312 O359 2.339 1_556 S
Eu312 O360 2.563 . S
Eu312 O361 2.419 1_456 S
Eu312 O363 2.380 1_556 S
Eu312 O364 2.432 . S
Eu312 C376 2.848 1_455 S
C313 C316 1.429 . S
C313 C317 1.411 . S
C313 N320 1.377 . S
C314 C316 1.420 . S
C314 C318 1.423 . S
C314 C326 1.392 1_554 S
C315 C317 1.420 . S
C315 C318 1.351 . S
C315 H338 0.931 . S
C316 C313 1.429 . S
C316 C314 1.420 . S
C316 N324 1.362 . S
C317 C313 1.411 . S
C317 C315 1.420 . S
C317 C322 1.395 . S
C318 C314 1.423 . S
C318 C315 1.351 . S
C318 H330 0.930 . S
C319 C321 1.400 . S
C319 C322 1.386 . S
C319 H331 0.930 . S
N320 C313 1.377 . S
N320 C321 1.321 . S
N320 Eu323 2.609 . S
C321 C319 1.400 . S
C321 N320 1.321 . S
C321 H328 0.930 . S
C322 C317 1.395 . S
C322 C319 1.386 . S
C322 H341 0.930 . S
Eu323 N320 2.609 . S
Eu323 N324 2.657 . S
Eu323 O357 2.380 . S
Eu323 O358 2.432 . S
Eu323 O362 2.558 . S
Eu323 O363 2.612 . S
Eu323 O365 2.339 1_554 S
Eu323 O366 2.563 1_545 S
Eu323 O367 2.419 . S
Eu323 C387 2.848 . S
N324 C316 1.362 . S
N324 Eu323 2.657 . S
N324 C325 1.334 1_554 S
C325 N324 1.334 1_556 S
C325 C327 1.413 . S
C325 H332 0.929 . S
C326 C314 1.392 1_556 S
C326 C327 1.367 . S
C326 H334 0.930 . S
C327 C325 1.413 . S
C327 C326 1.367 . S
C327 H329 0.930 . S
H328 C321 0.930 . S
H329 C327 0.930 . S
H330 C318 0.930 . S
H331 C319 0.930 . S
H332 C325 0.929 . S
H333 C347 0.930 . S
H334 C326 0.930 . S
H335 C353 0.930 . S
H336 C344 0.929 . S
H337 C351 0.930 . S
H338 C315 0.931 . S
H339 C345 0.930 . S
H340 C378 0.930 . S
H341 C322 0.930 . S
H342 C377 0.931 . S
N343 Eu312 2.657 1_564 S
N343 C344 1.334 . S
N343 C348 1.362 1_454 S
C344 H336 0.929 . S
C344 N343 1.334 . S
C344 C347 1.413 1_455 S
C345 H339 0.930 . S
C345 C346 1.392 . S
C345 C347 1.367 . S
C346 C345 1.392 . S
C346 C348 1.420 1_554 S
C346 C378 1.423 1_554 S
C347 H333 0.930 . S
C347 C344 1.413 1_655 S
C347 C345 1.367 . S
C348 N343 1.362 1_656 S
C348 C346 1.420 1_556 S
C348 C352 1.429 . S
H349 C354 0.930 . S
N350 Eu312 2.609 1_565 S
N350 C352 1.377 1_455 S
N350 C353 1.321 . S
C351 H337 0.930 . S
C351 C353 1.400 1_655 S
C351 C354 1.386 . S
C352 C348 1.429 . S
C352 N350 1.377 1_655 S
C352 C355 1.411 . S
C353 H335 0.930 . S
C353 N350 1.321 . S
C353 C351 1.400 1_455 S
C354 H349 0.930 . S
C354 C351 1.386 . S
C354 C355 1.395 . S
C355 C352 1.411 . S
C355 C354 1.395 . S
C355 C377 1.420 . S
O356 Eu312 2.558 1_655 S
O356 C376 1.257 . S
O357 Eu312 2.612 1_554 S
O357 Eu323 2.380 . S
O357 C368 1.276 . S
O358 Eu323 2.432 . S
O358 C375 1.264 . S
O359 Eu312 2.339 1_554 S
O359 C375 1.254 . S
O360 Eu312 2.563 . S
O360 C368 1.235 1_556 S
O361 Eu312 2.419 1_654 S
O361 C376 1.249 1_554 S
O362 Eu323 2.558 . S
O362 C387 1.257 . S
O363 Eu312 2.380 1_554 S
O363 Eu323 2.612 . S
O363 C379 1.276 1_545 S
O364 Eu312 2.432 . S
O364 C386 1.264 . S
O365 Eu323 2.339 1_556 S
O365 C386 1.254 . S
O366 Eu323 2.563 1_565 S
O366 C379 1.235 . S
O367 Eu323 2.419 . S
O367 C387 1.249 . S
C368 O357 1.276 . S
C368 O360 1.235 1_554 S
C369 C371 1.393 . S
C369 C373 1.395 . S
C369 C376 1.492 . S
C370 C371 1.392 . S
C370 C372 1.386 . S
C371 C369 1.393 . S
C371 C370 1.392 . S
C371 H388 0.930 1_556 S
C372 C370 1.386 . S
C372 C374 1.395 . S
C372 H389 0.930 . S
C373 C369 1.395 . S
C373 C374 1.379 . S
C373 H390 0.930 1_545 S
C374 C372 1.395 . S
C374 C373 1.379 . S
C374 H391 0.930 . S
C375 O358 1.264 . S
C375 O359 1.254 . S
C376 Eu312 2.848 1_655 S
C376 O356 1.257 . S
C376 O361 1.249 1_556 S
C376 C369 1.492 . S
C377 H342 0.931 . S
C377 C355 1.420 . S
C377 C378 1.351 . S
C378 H340 0.930 . S
C378 C346 1.423 1_556 S
C378 C377 1.351 . S
C379 O363 1.276 1_565 S
C379 O366 1.235 . S
C380 C381 1.393 . S
C380 C384 1.395 . S
C380 C387 1.492 . S
C381 C380 1.393 . S
C381 C382 1.392 . S
C381 H392 0.930 . S
C382 C381 1.392 . S
C382 C383 1.386 . S
C383 C382 1.386 . S
C383 C385 1.395 . S
C383 H393 0.930 . S
C384 C380 1.395 . S
C384 C385 1.379 . S
C384 H394 0.930 . S
C385 C383 1.395 . S
C385 C384 1.379 . S
C385 H395 0.930 . S
C386 O364 1.264 . S
C386 O365 1.254 . S
C387 Eu323 2.848 . S
C387 O362 1.257 . S
C387 O367 1.249 . S
C387 C380 1.492 . S
H388 C371 0.930 1_554 S
H389 C372 0.930 . S
H390 C373 0.930 1_565 S
H391 C374 0.930 . S
H392 C381 0.930 . S
H393 C383 0.930 . S
H394 C384 0.930 . S
H395 C385 0.930 . S
Eu396 N427 2.657 . S
Eu396 N434 2.609 . S
Eu396 O440 2.558 . S
Eu396 O441 2.612 . S
Eu396 O443 2.339 . S
Eu396 O444 2.563 . S
Eu396 O445 2.419 . S
Eu396 O447 2.380 . S
Eu396 O448 2.432 . S
Eu396 C460 2.848 . S
C397 C400 1.429 . S
C397 C401 1.411 . S
C397 N404 1.377 . S
C398 C400 1.420 . S
C398 C402 1.423 . S
C398 C410 1.392 . S
C399 C401 1.420 . S
C399 C402 1.351 . S
C399 H422 0.931 . S
C400 C397 1.429 . S
C400 C398 1.420 . S
C400 N408 1.362 . S
C401 C397 1.411 . S
C401 C399 1.420 . S
C401 C406 1.395 . S
C402 C398 1.423 . S
C402 C399 1.351 . S
C402 H414 0.930 . S
C403 C405 1.400 . S
C403 C406 1.386 . S
C403 H415 0.930 . S
N404 C397 1.377 . S
N404 C405 1.321 . S
N404 Eu407 2.609 . S
C405 C403 1.400 . S
C405 N404 1.321 . S
C405 H412 0.930 . S
C406 C401 1.395 . S
C406 C403 1.386 . S
C406 H425 0.930 . S
Eu407 N404 2.609 . S
Eu407 N408 2.657 . S
Eu407 O441 2.380 . S
Eu407 O442 2.432 . S
Eu407 O446 2.558 . S
Eu407 O447 2.612 . S
Eu407 O449 2.339 . S
Eu407 O450 2.563 . S
Eu407 O451 2.419 . S
Eu407 C471 2.848 . S
N408 C400 1.362 . S
N408 Eu407 2.657 . S
N408 C409 1.334 . S
C409 N408 1.334 . S
C409 C411 1.413 . S
C409 H416 0.929 . S
C410 C398 1.392 . S
C410 C411 1.367 . S
C410 H418 0.930 . S
C411 C409 1.413 . S
C411 C410 1.367 . S
C411 H413 0.930 . S
H412 C405 0.930 . S
H413 C411 0.930 . S
H414 C402 0.930 . S
H415 C403 0.930 . S
H416 C409 0.929 . S
H417 C431 0.930 . S
H418 C410 0.930 . S
H419 C437 0.930 . S
H420 C428 0.929 . S
H421 C435 0.930 . S
H422 C399 0.931 . S
H423 C429 0.930 . S
H424 C462 0.930 . S
H425 C406 0.930 . S
H426 C461 0.931 . S
N427 Eu396 2.657 . S
N427 C428 1.334 . S
N427 C432 1.362 . S
C428 H420 0.929 . S
C428 N427 1.334 . S
C428 C431 1.413 . S
C429 H423 0.930 . S
C429 C430 1.392 . S
C429 C431 1.367 . S
C430 C429 1.392 . S
C430 C432 1.420 . S
C430 C462 1.423 . S
C431 H417 0.930 . S
C431 C428 1.413 . S
C431 C429 1.367 . S
C432 N427 1.362 . S
C432 C430 1.420 . S
C432 C436 1.429 . S
H433 C438 0.930 . S
N434 Eu396 2.609 . S
N434 C436 1.377 . S
N434 C437 1.321 . S
C435 H421 0.930 . S
C435 C437 1.400 . S
C435 C438 1.386 . S
C436 C432 1.429 . S
C436 N434 1.377 . S
C436 C439 1.411 . S
C437 H419 0.930 . S
C437 N434 1.321 . S
C437 C435 1.400 . S
C438 H433 0.930 . S
C438 C435 1.386 . S
C438 C439 1.395 . S
C439 C436 1.411 . S
C439 C438 1.395 . S
C439 C461 1.420 . S
O440 Eu396 2.558 . S
O440 C460 1.257 . S
O441 Eu396 2.612 . S
O441 Eu407 2.380 . S
O441 C452 1.276 . S
O442 Eu407 2.432 . S
O442 C459 1.264 . S
O443 Eu396 2.339 . S
O443 C459 1.254 . S
O444 Eu396 2.563 . S
O444 C452 1.235 . S
O445 Eu396 2.419 . S
O445 C460 1.249 . S
O446 Eu407 2.558 . S
O446 C471 1.257 . S
O447 Eu396 2.380 . S
O447 Eu407 2.612 . S
O447 C463 1.276 . S
O448 Eu396 2.432 . S
O448 C470 1.264 . S
O449 Eu407 2.339 . S
O449 C470 1.254 . S
O450 Eu407 2.563 . S
O450 C463 1.235 . S
O451 Eu407 2.419 . S
O451 C471 1.249 . S
C452 O441 1.276 . S
C452 O444 1.235 . S
C453 C455 1.393 . S
C453 C457 1.395 . S
C453 C460 1.492 . S
C454 C455 1.392 . S
C454 C456 1.386 . S
C455 C453 1.393 . S
C455 C454 1.392 . S
C455 H472 0.930 . S
C456 C454 1.386 . S
C456 C458 1.395 . S
C456 H473 0.930 . S
C457 C453 1.395 . S
C457 C458 1.379 . S
C457 H474 0.930 . S
C458 C456 1.395 . S
C458 C457 1.379 . S
C458 H475 0.930 . S
C459 O442 1.264 . S
C459 O443 1.254 . S
C460 Eu396 2.848 . S
C460 O440 1.257 . S
C460 O445 1.249 . S
C460 C453 1.492 . S
C461 H426 0.931 . S
C461 C439 1.420 . S
C461 C462 1.351 . S
C462 H424 0.930 . S
C462 C430 1.423 . S
C462 C461 1.351 . S
C463 O447 1.276 . S
C463 O450 1.235 . S
C464 C465 1.393 . S
C464 C468 1.395 . S
C464 C471 1.492 . S
C465 C464 1.393 . S
C465 C466 1.392 . S
C465 H476 0.930 . S
C466 C465 1.392 . S
C466 C467 1.386 . S
C467 C466 1.386 . S
C467 C469 1.395 . S
C467 H477 0.930 . S
C468 C464 1.395 . S
C468 C469 1.379 . S
C468 H478 0.930 . S
C469 C467 1.395 . S
C469 C468 1.379 . S
C469 H479 0.930 . S
C470 O448 1.264 . S
C470 O449 1.254 . S
C471 Eu407 2.848 . S
C471 O446 1.257 . S
C471 O451 1.249 . S
C471 C464 1.492 . S
H472 C455 0.930 . S
H473 C456 0.930 . S
H474 C457 0.930 . S
H475 C458 0.930 . S
H476 C465 0.930 . S
H477 C467 0.930 . S
H478 C468 0.930 . S
H479 C469 0.930 . S
Eu480 N511 2.657 . S
Eu480 N518 2.609 . S
Eu480 O524 2.558 . S
Eu480 O525 2.612 . S
Eu480 O527 2.339 . S
Eu480 O528 2.563 1_545 S
Eu480 O529 2.419 . S
Eu480 O531 2.380 . S
Eu480 O532 2.432 . S
Eu480 C544 2.848 . S
C481 C484 1.429 . S
C481 C485 1.411 . S
C481 N488 1.377 1_565 S
C482 C484 1.420 . S
C482 C486 1.423 . S
C482 C494 1.392 . S
C483 C485 1.420 . S
C483 C486 1.351 . S
C483 H506 0.931 . S
C484 C481 1.429 . S
C484 C482 1.420 . S
C484 N492 1.362 . S
C485 C481 1.411 . S
C485 C483 1.420 . S
C485 C490 1.395 . S
C486 C482 1.423 . S
C486 C483 1.351 . S
C486 H498 0.930 . S
C487 C489 1.400 . S
C487 C490 1.386 1_545 S
C487 H499 0.930 . S
N488 C481 1.377 1_545 S
N488 C489 1.321 . S
N488 Eu491 2.609 . S
C489 C487 1.400 . S
C489 N488 1.321 . S
C489 H496 0.930 . S
C490 C485 1.395 . S
C490 C487 1.386 1_565 S
C490 H509 0.930 . S
Eu491 N488 2.609 . S
Eu491 N492 2.657 1_545 S
Eu491 O525 2.380 . S
Eu491 O526 2.432 . S
Eu491 O530 2.558 . S
Eu491 O531 2.612 . S
Eu491 O533 2.339 . S
Eu491 O534 2.563 . S
Eu491 O535 2.419 . S
Eu491 C555 2.848 . S
N492 C484 1.362 . S
N492 Eu491 2.657 1_565 S
N492 C493 1.334 . S
C493 N492 1.334 . S
C493 C495 1.413 . S
C493 H500 0.929 . S
C494 C482 1.392 . S
C494 C495 1.367 . S
C494 H502 0.930 . S
C495 C493 1.413 . S
C495 C494 1.367 . S
C495 H497 0.930 . S
H496 C489 0.930 . S
H497 C495 0.930 . S
H498 C486 0.930 . S
H499 C487 0.930 . S
H500 C493 0.929 . S
H501 C515 0.930 . S
H502 C494 0.930 . S
H503 C521 0.930 . S
H504 C512 0.929 . S
H505 C519 0.930 . S
H506 C483 0.931 . S
H507 C513 0.930 . S
H508 C546 0.930 . S
H509 C490 0.930 . S
H510 C545 0.931 . S
N511 Eu480 2.657 . S
N511 C512 1.334 . S
N511 C516 1.362 . S
C512 H504 0.929 . S
C512 N511 1.334 . S
C512 C515 1.413 . S
C513 H507 0.930 . S
C513 C514 1.392 . S
C513 C515 1.367 . S
C514 C513 1.392 . S
C514 C516 1.420 . S
C514 C546 1.423 . S
C515 H501 0.930 . S
C515 C512 1.413 . S
C515 C513 1.367 . S
C516 N511 1.362 . S
C516 C514 1.420 . S
C516 C520 1.429 . S
H517 C522 0.930 . S
N518 Eu480 2.609 . S
N518 C520 1.377 . S
N518 C521 1.321 . S
C519 H505 0.930 . S
C519 C521 1.400 . S
C519 C522 1.386 . S
C520 C516 1.429 . S
C520 N518 1.377 . S
C520 C523 1.411 . S
C521 H503 0.930 . S
C521 N518 1.321 . S
C521 C519 1.400 . S
C522 H517 0.930 . S
C522 C519 1.386 . S
C522 C523 1.395 . S
C523 C520 1.411 . S
C523 C522 1.395 . S
C523 C545 1.420 . S
O524 Eu480 2.558 . S
O524 C544 1.257 . S
O525 Eu480 2.612 . S
O525 Eu491 2.380 . S
O525 C536 1.276 1_545 S
O526 Eu491 2.432 . S
O526 C543 1.264 . S
O527 Eu480 2.339 . S
O527 C543 1.254 . S
O528 Eu480 2.563 1_565 S
O528 C536 1.235 . S
O529 Eu480 2.419 . S
O529 C544 1.249 . S
O530 Eu491 2.558 . S
O530 C555 1.257 . S
O531 Eu480 2.380 . S
O531 Eu491 2.612 . S
O531 C547 1.276 . S
O532 Eu480 2.432 . S
O532 C554 1.264 . S
O533 Eu491 2.339 . S
O533 C554 1.254 . S
O534 Eu491 2.563 . S
O534 C547 1.235 . S
O535 Eu491 2.419 . S
O535 C555 1.249 . S
C536 O525 1.276 1_565 S
C536 O528 1.235 . S
C537 C539 1.393 1_545 S
C537 C541 1.395 1_545 S
C537 C544 1.492 . S
C538 C539 1.392 . S
C538 C540 1.386 . S
C539 C537 1.393 1_565 S
C539 C538 1.392 . S
C539 H556 0.930 . S
C540 C538 1.386 . S
C540 C542 1.395 . S
C540 H557 0.930 . S
C541 C537 1.395 1_565 S
C541 C542 1.378 . S
C541 H558 0.931 1_565 S
C542 C540 1.395 . S
C542 C541 1.378 . S
C542 H559 0.930 . S
C543 O526 1.264 . S
C543 O527 1.254 . S
C544 Eu480 2.848 . S
C544 O524 1.257 . S
C544 O529 1.249 . S
C544 C537 1.492 . S
C545 H510 0.931 . S
C545 C523 1.420 . S
C545 C546 1.351 . S
C546 H508 0.930 . S
C546 C514 1.423 . S
C546 C545 1.351 . S
C547 O531 1.276 . S
C547 O534 1.235 . S
C548 C549 1.393 . S
C548 C552 1.395 . S
C548 C555 1.492 . S
C549 C548 1.393 . S
C549 C550 1.392 . S
C549 H560 0.930 . S
C550 C549 1.392 . S
C550 C551 1.386 . S
C551 C550 1.386 . S
C551 C553 1.395 . S
C551 H561 0.930 . S
C552 C548 1.395 . S
C552 C553 1.379 . S
C552 H562 0.930 . S
C553 C551 1.395 . S
C553 C552 1.379 . S
C553 H563 0.930 . S
C554 O532 1.264 . S
C554 O533 1.254 . S
C555 Eu491 2.848 . S
C555 O530 1.257 . S
C555 O535 1.249 . S
C555 C548 1.492 . S
H556 C539 0.930 . S
H557 C540 0.930 . S
H558 C541 0.931 1_545 S
H559 C542 0.930 . S
H560 C549 0.930 . S
H561 C551 0.930 . S
H562 C552 0.930 . S
H563 C553 0.930 . S
Eu564 N595 2.657 . S
Eu564 N602 2.609 . S
Eu564 O608 2.558 . S
Eu564 O609 2.612 . S
Eu564 O611 2.339 . S
Eu564 O612 2.563 . S
Eu564 O613 2.419 . S
Eu564 O615 2.380 . S
Eu564 O616 2.432 . S
Eu564 C628 2.848 . S
C565 C568 1.429 . S
C565 C569 1.411 . S
C565 N572 1.377 . S
C566 C568 1.420 . S
C566 C570 1.423 . S
C566 C578 1.392 . S
C567 C569 1.420 . S
C567 C570 1.351 . S
C567 H590 0.931 . S
C568 C565 1.429 . S
C568 C566 1.420 . S
C568 N576 1.362 . S
C569 C565 1.411 . S
C569 C567 1.420 . S
C569 C574 1.395 . S
C570 C566 1.423 . S
C570 C567 1.351 . S
C570 H582 0.930 . S
C571 C573 1.400 . S
C571 C574 1.386 . S
C571 H583 0.930 . S
N572 C565 1.377 . S
N572 C573 1.321 . S
N572 Eu575 2.609 . S
C573 C571 1.400 . S
C573 N572 1.321 . S
C573 H580 0.930 . S
C574 C569 1.395 . S
C574 C571 1.386 . S
C574 H593 0.930 . S
Eu575 N572 2.609 . S
Eu575 N576 2.657 . S
Eu575 O609 2.380 . S
Eu575 O610 2.432 . S
Eu575 O614 2.558 . S
Eu575 O615 2.612 . S
Eu575 O617 2.339 . S
Eu575 O618 2.563 . S
Eu575 O619 2.419 . S
Eu575 C639 2.848 . S
N576 C568 1.362 . S
N576 Eu575 2.657 . S
N576 C577 1.334 . S
C577 N576 1.334 . S
C577 C579 1.413 . S
C577 H584 0.929 . S
C578 C566 1.392 . S
C578 C579 1.367 . S
C578 H586 0.930 . S
C579 C577 1.413 . S
C579 C578 1.367 . S
C579 H581 0.930 . S
H580 C573 0.930 . S
H581 C579 0.930 . S
H582 C570 0.930 . S
H583 C571 0.930 . S
H584 C577 0.929 . S
H585 C599 0.930 . S
H586 C578 0.930 . S
H587 C605 0.930 . S
H588 C596 0.929 . S
H589 C603 0.930 . S
H590 C567 0.931 . S
H591 C597 0.930 . S
H592 C630 0.930 . S
H593 C574 0.930 . S
H594 C629 0.931 . S
N595 Eu564 2.657 . S
N595 C596 1.334 . S
N595 C600 1.362 . S
C596 H588 0.929 . S
C596 N595 1.334 . S
C596 C599 1.413 . S
C597 H591 0.930 . S
C597 C598 1.392 . S
C597 C599 1.367 . S
C598 C597 1.392 . S
C598 C600 1.420 . S
C598 C630 1.423 . S
C599 H585 0.930 . S
C599 C596 1.413 . S
C599 C597 1.367 . S
C600 N595 1.362 . S
C600 C598 1.420 . S
C600 C604 1.429 . S
H601 C606 0.930 . S
N602 Eu564 2.609 . S
N602 C604 1.377 . S
N602 C605 1.321 . S
C603 H589 0.930 . S
C603 C605 1.400 . S
C603 C606 1.386 . S
C604 C600 1.429 . S
C604 N602 1.377 . S
C604 C607 1.411 . S
C605 H587 0.930 . S
C605 N602 1.321 . S
C605 C603 1.400 . S
C606 H601 0.930 . S
C606 C603 1.386 . S
C606 C607 1.395 . S
C607 C604 1.411 . S
C607 C606 1.395 . S
C607 C629 1.420 . S
O608 Eu564 2.558 . S
O608 C628 1.257 . S
O609 Eu564 2.612 . S
O609 Eu575 2.380 . S
O609 C620 1.276 . S
O610 Eu575 2.432 . S
O610 C627 1.264 . S
O611 Eu564 2.339 . S
O611 C627 1.254 . S
O612 Eu564 2.563 . S
O612 C620 1.235 . S
O613 Eu564 2.419 . S
O613 C628 1.249 . S
O614 Eu575 2.558 . S
O614 C639 1.257 . S
O615 Eu564 2.380 . S
O615 Eu575 2.612 . S
O615 C631 1.276 . S
O616 Eu564 2.432 . S
O616 C638 1.264 . S
O617 Eu575 2.339 . S
O617 C638 1.254 . S
O618 Eu575 2.563 . S
O618 C631 1.235 . S
O619 Eu575 2.419 . S
O619 C639 1.249 . S
C620 O609 1.276 . S
C620 O612 1.235 . S
C621 C623 1.393 . S
C621 C625 1.395 . S
C621 C628 1.492 . S
C622 C623 1.392 . S
C622 C624 1.386 . S
C623 C621 1.393 . S
C623 C622 1.392 . S
C623 H640 0.930 . S
C624 C622 1.386 . S
C624 C626 1.395 . S
C624 H641 0.930 . S
C625 C621 1.395 . S
C625 C626 1.379 . S
C625 H642 0.930 . S
C626 C624 1.395 . S
C626 C625 1.379 . S
C626 H643 0.930 . S
C627 O610 1.264 . S
C627 O611 1.254 . S
C628 Eu564 2.848 . S
C628 O608 1.257 . S
C628 O613 1.249 . S
C628 C621 1.492 . S
C629 H594 0.931 . S
C629 C607 1.420 . S
C629 C630 1.351 . S
C630 H592 0.930 . S
C630 C598 1.423 . S
C630 C629 1.351 . S
C631 O615 1.276 . S
C631 O618 1.235 . S
C632 C633 1.393 . S
C632 C636 1.395 . S
C632 C639 1.492 . S
C633 C632 1.393 . S
C633 C634 1.392 . S
C633 H644 0.930 . S
C634 C633 1.392 . S
C634 C635 1.386 . S
C635 C634 1.386 . S
C635 C637 1.395 . S
C635 H645 0.930 . S
C636 C632 1.395 . S
C636 C637 1.379 . S
C636 H646 0.930 . S
C637 C635 1.395 . S
C637 C636 1.379 . S
C637 H647 0.930 . S
C638 O616 1.264 . S
C638 O617 1.254 . S
C639 Eu575 2.848 . S
C639 O614 1.257 . S
C639 O619 1.249 . S
C639 C632 1.492 . S
H640 C623 0.930 . S
H641 C624 0.930 . S
H642 C625 0.930 . S
H643 C626 0.930 . S
H644 C633 0.930 . S
H645 C635 0.930 . S
H646 C636 0.930 . S
H647 C637 0.930 . S
Eu648 N679 2.657 . S
Eu648 N686 2.609 . S
Eu648 O692 2.558 . S
Eu648 O693 2.612 . S
Eu648 O695 2.339 . S
Eu648 O696 2.563 . S
Eu648 O697 2.419 . S
Eu648 O699 2.380 . S
Eu648 O700 2.432 . S
Eu648 C712 2.848 . S
C649 C652 1.429 . S
C649 C653 1.411 . S
C649 N656 1.377 . S
C650 C652 1.420 . S
C650 C654 1.423 . S
C650 C662 1.392 . S
C651 C653 1.420 . S
C651 C654 1.351 . S
C651 H674 0.931 . S
C652 C649 1.429 . S
C652 C650 1.420 . S
C652 N660 1.362 . S
C653 C649 1.411 . S
C653 C651 1.420 . S
C653 C658 1.395 . S
C654 C650 1.423 . S
C654 C651 1.351 . S
C654 H666 0.930 . S
C655 C657 1.400 . S
C655 C658 1.386 . S
C655 H667 0.930 . S
N656 C649 1.377 . S
N656 C657 1.321 . S
N656 Eu659 2.609 . S
C657 C655 1.400 . S
C657 N656 1.321 . S
C657 H664 0.930 . S
C658 C653 1.395 . S
C658 C655 1.386 . S
C658 H677 0.930 . S
Eu659 N656 2.609 . S
Eu659 N660 2.657 . S
Eu659 O693 2.380 1_565 S
Eu659 O694 2.432 1_565 S
Eu659 O698 2.558 . S
Eu659 O699 2.612 1_565 S
Eu659 O701 2.339 . S
Eu659 O702 2.563 1_565 S
Eu659 O703 2.419 . S
Eu659 C723 2.848 . S
N660 C652 1.362 . S
N660 Eu659 2.657 . S
N660 C661 1.334 . S
C661 N660 1.334 . S
C661 C663 1.413 1_455 S
C661 H668 0.929 . S
C662 C650 1.392 . S
C662 C663 1.367 1_455 S
C662 H670 0.930 1_455 S
C663 C661 1.413 1_655 S
C663 C662 1.367 1_655 S
C663 H665 0.930 . S
H664 C657 0.930 . S
H665 C663 0.930 . S
H666 C654 0.930 . S
H667 C655 0.930 . S
H668 C661 0.929 . S
H669 C683 0.930 . S
H670 C662 0.930 1_655 S
H671 C689 0.930 . S
H672 C680 0.929 . S
H673 C687 0.909 1_655 S
H674 C651 0.931 . S
H675 C681 0.930 . S
H676 C714 0.930 . S
H677 C658 0.930 . S
H678 C713 0.931 . S
N679 Eu648 2.657 . S
N679 C680 1.334 . S
N679 C684 1.362 . S
C680 H672 0.929 . S
C680 N679 1.334 . S
C680 C683 1.413 . S
C681 H675 0.930 . S
C681 C682 1.392 . S
C681 C683 1.367 . S
C682 C681 1.392 . S
C682 C684 1.420 . S
C682 C714 1.423 . S
C683 H669 0.930 . S
C683 C680 1.413 . S
C683 C681 1.367 . S
C684 N679 1.362 . S
C684 C682 1.420 . S
C684 C688 1.429 . S
H685 C690 0.930 . S
N686 Eu648 2.609 . S
N686 C688 1.377 . S
N686 C689 1.321 . S
C687 H673 0.909 1_455 S
C687 C689 1.412 . S
C687 C690 1.394 . S
C688 C684 1.429 . S
C688 N686 1.377 . S
C688 C691 1.411 . S
C689 H671 0.930 . S
C689 N686 1.321 . S
C689 C687 1.412 . S
C690 H685 0.930 . S
C690 C687 1.394 . S
C690 C691 1.395 . S
C691 C688 1.411 . S
C691 C690 1.395 . S
C691 C713 1.420 . S
O692 Eu648 2.558 . S
O692 C712 1.257 . S
O693 Eu648 2.612 . S
O693 Eu659 2.380 1_545 S
O693 C704 1.276 . S
O694 Eu659 2.432 1_545 S
O694 C711 1.264 . S
O695 Eu648 2.339 . S
O695 C711 1.254 . S
O696 Eu648 2.563 . S
O696 C704 1.235 . S
O697 Eu648 2.419 . S
O697 C712 1.249 . S
O698 Eu659 2.558 . S
O698 C723 1.257 . S
O699 Eu648 2.380 . S
O699 Eu659 2.612 1_545 S
O699 C715 1.276 . S
O700 Eu648 2.432 . S
O700 C722 1.264 . S
O701 Eu659 2.339 . S
O701 C722 1.254 1_565 S
O702 Eu659 2.563 1_545 S
O702 C715 1.235 . S
O703 Eu659 2.419 . S
O703 C723 1.249 . S
C704 O693 1.276 . S
C704 O696 1.235 . S
C705 C707 1.393 . S
C705 C709 1.395 . S
C705 C712 1.492 . S
C706 C707 1.392 . S
C706 C708 1.386 . S
C707 C705 1.393 . S
C707 C706 1.392 . S
C707 H724 0.930 . S
C708 C706 1.386 . S
C708 C710 1.395 . S
C708 H725 0.930 . S
C709 C705 1.395 . S
C709 C710 1.379 . S
C709 H726 0.930 . S
C710 C708 1.395 . S
C710 C709 1.379 . S
C710 H727 0.930 . S
C711 O694 1.264 . S
C711 O695 1.254 . S
C712 Eu648 2.848 . S
C712 O692 1.257 . S
C712 O697 1.249 . S
C712 C705 1.492 . S
C713 H678 0.931 . S
C713 C691 1.420 . S
C713 C714 1.351 . S
C714 H676 0.930 . S
C714 C682 1.423 . S
C714 C713 1.351 . S
C715 O699 1.276 . S
C715 O702 1.235 . S
C716 C717 1.393 . S
C716 C720 1.395 . S
C716 C723 1.492 . S
C717 C716 1.393 . S
C717 C718 1.392 . S
C717 H728 0.930 . S
C718 C717 1.392 . S
C718 C719 1.386 . S
C719 C718 1.386 . S
C719 C721 1.395 . S
C719 H729 0.930 . S
C720 C716 1.395 . S
C720 C721 1.379 . S
C720 H730 0.930 . S
C721 C719 1.395 . S
C721 C720 1.379 . S
C721 H731 0.930 . S
C722 O700 1.264 . S
C722 O701 1.254 1_545 S
C723 Eu659 2.848 . S
C723 O698 1.257 . S
C723 O703 1.249 . S
C723 C716 1.492 . S
H724 C707 0.930 . S
H725 C708 0.930 . S
H726 C709 0.930 . S
H727 C710 0.930 . S
H728 C717 0.930 . S
H729 C719 0.930 . S
H730 C720 0.930 . S
H731 C721 0.930 . S
Eu732 N763 2.657 . S
Eu732 N770 2.609 . S
Eu732 O776 2.558 . S
Eu732 O777 2.612 . S
Eu732 O779 2.339 . S
Eu732 O780 2.563 . S
Eu732 O781 2.419 . S
Eu732 O783 2.380 . S
Eu732 O784 2.432 . S
Eu732 C796 2.848 . S
C733 C736 1.429 . S
C733 C737 1.411 . S
C733 N740 1.377 . S
C734 C736 1.420 . S
C734 C738 1.423 . S
C734 C746 1.392 . S
C735 C737 1.420 . S
C735 C738 1.351 . S
C735 H758 0.931 . S
C736 C733 1.429 . S
C736 C734 1.420 . S
C736 N744 1.362 . S
C737 C733 1.411 . S
C737 C735 1.420 . S
C737 C742 1.395 . S
C738 C734 1.423 . S
C738 C735 1.351 . S
C738 H750 0.930 . S
C739 C741 1.400 . S
C739 C742 1.386 . S
C739 H751 0.930 . S
N740 C733 1.377 . S
N740 C741 1.321 . S
N740 Eu743 2.609 . S
C741 C739 1.400 . S
C741 N740 1.321 . S
C741 H748 0.930 . S
C742 C737 1.395 . S
C742 C739 1.386 . S
C742 H761 0.930 . S
Eu743 N740 2.609 . S
Eu743 N744 2.657 . S
Eu743 O777 2.380 . S
Eu743 O778 2.432 . S
Eu743 O782 2.558 . S
Eu743 O783 2.612 . S
Eu743 O785 2.339 . S
Eu743 O786 2.563 . S
Eu743 O787 2.419 . S
Eu743 C807 2.848 . S
N744 C736 1.362 . S
N744 Eu743 2.657 . S
N744 C745 1.334 . S
C745 N744 1.334 . S
C745 C747 1.413 . S
C745 H752 0.929 . S
C746 C734 1.392 . S
C746 C747 1.367 . S
C746 H754 0.930 . S
C747 C745 1.413 . S
C747 C746 1.367 . S
C747 H749 0.930 . S
H748 C741 0.930 . S
H749 C747 0.930 . S
H750 C738 0.930 . S
H751 C739 0.930 . S
H752 C745 0.929 . S
H753 C767 0.930 . S
H754 C746 0.930 . S
H755 C773 0.930 . S
H756 C764 0.929 . S
H757 C771 0.930 . S
H758 C735 0.931 . S
H759 C765 0.930 . S
H760 C798 0.930 . S
H761 C742 0.930 . S
H762 C797 0.931 . S
N763 Eu732 2.657 . S
N763 C764 1.334 . S
N763 C768 1.362 . S
C764 H756 0.929 . S
C764 N763 1.334 . S
C764 C767 1.413 . S
C765 H759 0.930 . S
C765 C766 1.392 . S
C765 C767 1.367 . S
C766 C765 1.392 . S
C766 C768 1.420 . S
C766 C798 1.423 . S
C767 H753 0.930 . S
C767 C764 1.413 . S
C767 C765 1.367 . S
C768 N763 1.362 . S
C768 C766 1.420 . S
C768 C772 1.429 . S
H769 C774 0.930 . S
N770 Eu732 2.609 . S
N770 C772 1.377 . S
N770 C773 1.321 . S
C771 H757 0.930 . S
C771 C773 1.400 . S
C771 C774 1.386 . S
C772 C768 1.429 . S
C772 N770 1.377 . S
C772 C775 1.411 . S
C773 H755 0.930 . S
C773 N770 1.321 . S
C773 C771 1.400 . S
C774 H769 0.930 . S
C774 C771 1.386 . S
C774 C775 1.395 . S
C775 C772 1.411 . S
C775 C774 1.395 . S
C775 C797 1.420 . S
O776 Eu732 2.558 . S
O776 C796 1.257 . S
O777 Eu732 2.612 . S
O777 Eu743 2.380 . S
O777 C788 1.276 . S
O778 Eu743 2.432 . S
O778 C795 1.264 . S
O779 Eu732 2.339 . S
O779 C795 1.254 . S
O780 Eu732 2.563 . S
O780 C788 1.235 . S
O781 Eu732 2.419 . S
O781 C796 1.249 . S
O782 Eu743 2.558 . S
O782 C807 1.257 . S
O783 Eu732 2.380 . S
O783 Eu743 2.612 . S
O783 C799 1.276 . S
O784 Eu732 2.432 . S
O784 C806 1.264 . S
O785 Eu743 2.339 . S
O785 C806 1.254 . S
O786 Eu743 2.563 . S
O786 C799 1.235 . S
O787 Eu743 2.419 . S
O787 C807 1.249 . S
C788 O777 1.276 . S
C788 O780 1.235 . S
C789 C791 1.393 . S
C789 C793 1.395 . S
C789 C796 1.492 . S
C790 C791 1.392 . S
C790 C792 1.386 . S
C791 C789 1.393 . S
C791 C790 1.392 . S
C791 H808 0.930 . S
C792 C790 1.386 . S
C792 C794 1.395 . S
C792 H809 0.930 . S
C793 C789 1.395 . S
C793 C794 1.379 . S
C793 H810 0.930 . S
C794 C792 1.395 . S
C794 C793 1.379 . S
C794 H811 0.930 . S
C795 O778 1.264 . S
C795 O779 1.254 . S
C796 Eu732 2.848 . S
C796 O776 1.257 . S
C796 O781 1.249 . S
C796 C789 1.492 . S
C797 H762 0.931 . S
C797 C775 1.420 . S
C797 C798 1.351 . S
C798 H760 0.930 . S
C798 C766 1.423 . S
C798 C797 1.351 . S
C799 O783 1.276 . S
C799 O786 1.235 . S
C800 C801 1.393 . S
C800 C804 1.395 . S
C800 C807 1.492 . S
C801 C800 1.393 . S
C801 C802 1.392 . S
C801 H812 0.930 . S
C802 C801 1.392 . S
C802 C803 1.386 . S
C803 C802 1.386 . S
C803 C805 1.395 . S
C803 H813 0.930 . S
C804 C800 1.395 . S
C804 C805 1.379 . S
C804 H814 0.930 . S
C805 C803 1.395 . S
C805 C804 1.379 . S
C805 H815 0.930 . S
C806 O784 1.264 . S
C806 O785 1.254 . S
C807 Eu743 2.848 . S
C807 O782 1.257 . S
C807 O787 1.249 . S
C807 C800 1.492 . S
H808 C791 0.930 . S
H809 C792 0.930 . S
H810 C793 0.930 . S
H811 C794 0.930 . S
H812 C801 0.930 . S
H813 C803 0.930 . S
H814 C804 0.930 . S
H815 C805 0.930 . S
Eu816 N847 2.657 . S
Eu816 N854 2.609 1_545 S
Eu816 O860 2.558 1_545 S
Eu816 O861 2.612 . S
Eu816 O863 2.339 . S
Eu816 O864 2.563 1_545 S
Eu816 O865 2.419 . S
Eu816 O867 2.380 . S
Eu816 O868 2.432 1_545 S
Eu816 C880 2.848 . S
C817 C820 1.429 . S
C817 C821 1.411 . S
C817 N824 1.377 . S
C818 C820 1.423 . S
C818 C822 1.430 . S
C818 C830 1.382 1_545 S
C819 C821 1.420 . S
C819 C822 1.351 . S
C819 H842 0.931 . S
C820 C817 1.429 . S
C820 C818 1.423 . S
C820 N828 1.362 . S
C821 C817 1.411 . S
C821 C819 1.420 . S
C821 C826 1.395 . S
C822 C818 1.430 . S
C822 C819 1.351 . S
C822 H834 0.937 . S
C823 C825 1.400 . S
C823 C826 1.386 . S
C823 H835 0.930 . S
N824 C817 1.377 . S
N824 C825 1.321 . S
N824 Eu827 2.609 . S
C825 C823 1.400 . S
C825 N824 1.321 . S
C825 H832 0.930 . S
C826 C821 1.395 . S
C826 C823 1.386 . S
C826 H845 0.930 . S
Eu827 N824 2.609 . S
Eu827 N828 2.657 . S
Eu827 O861 2.380 1_556 S
Eu827 O862 2.432 1_556 S
Eu827 O866 2.558 . S
Eu827 O867 2.612 1_556 S
Eu827 O869 2.310 1_545 S
Eu827 O870 2.563 . S
Eu827 O871 2.419 . S
Eu827 C891 2.848 . S
N828 C820 1.362 . S
N828 Eu827 2.657 . S
N828 C829 1.334 1_545 S
C829 N828 1.334 1_565 S
C829 C831 1.413 . S
C829 H836 0.929 . S
C830 C818 1.382 1_565 S
C830 C831 1.367 . S
C830 H838 0.930 . S
C831 C829 1.413 . S
C831 C830 1.367 . S
C831 H833 0.930 . S
H832 C825 0.930 . S
H833 C831 0.930 . S
H834 C822 0.937 . S
H835 C823 0.930 . S
H836 C829 0.929 . S
H837 C851 0.930 . S
H838 C830 0.930 . S
H839 C857 0.930 . S
H840 C848 0.929 . S
H841 C855 0.930 . S
H842 C819 0.931 . S
H843 C849 0.930 . S
H844 C882 0.930 . S
H845 C826 0.930 . S
H846 C881 0.931 . S
N847 Eu816 2.657 . S
N847 C848 1.334 . S
N847 C852 1.362 . S
C848 H840 0.929 . S
C848 N847 1.334 . S
C848 C851 1.413 . S
C849 H843 0.930 . S
C849 C850 1.392 . S
C849 C851 1.367 . S
C850 C849 1.392 . S
C850 C852 1.420 . S
C850 C882 1.423 . S
C851 H837 0.930 . S
C851 C848 1.413 . S
C851 C849 1.367 . S
C852 N847 1.362 . S
C852 C850 1.420 . S
C852 C856 1.429 . S
H853 C858 0.930 . S
N854 Eu816 2.609 1_565 S
N854 C856 1.377 1_565 S
N854 C857 1.321 . S
C855 H841 0.930 . S
C855 C857 1.400 . S
C855 C858 1.386 . S
C856 C852 1.429 . S
C856 N854 1.377 1_545 S
C856 C859 1.411 . S
C857 H839 0.930 . S
C857 N854 1.321 . S
C857 C855 1.400 . S
C858 H853 0.930 . S
C858 C855 1.386 . S
C858 C859 1.395 1_565 S
C859 C856 1.411 . S
C859 C858 1.395 1_545 S
C859 C881 1.420 . S
O860 Eu816 2.558 1_565 S
O860 C880 1.257 1_565 S
O861 Eu816 2.612 . S
O861 Eu827 2.380 1_554 S
O861 C872 1.276 . S
O862 Eu827 2.432 1_554 S
O862 C879 1.264 . S
O863 Eu816 2.339 . S
O863 C879 1.254 . S
O864 Eu816 2.563 1_565 S
O864 C872 1.235 1_565 S
O865 Eu816 2.419 . S
O865 C880 1.249 . S
O866 Eu827 2.558 . S
O866 C891 1.257 . S
O867 Eu816 2.380 . S
O867 Eu827 2.612 1_554 S
O867 C883 1.276 . S
O868 Eu816 2.432 1_565 S
O868 C890 1.264 1_554 S
O869 Eu827 2.310 1_565 S
O869 C890 1.278 . S
O870 Eu827 2.563 . S
O870 C883 1.235 1_556 S
O871 Eu827 2.419 . S
O871 C891 1.249 . S
C872 O861 1.276 . S
C872 O864 1.235 1_545 S
C873 C875 1.393 1_565 S
C873 C877 1.395 . S
C873 C880 1.492 1_565 S
C874 C875 1.392 . S
C874 C876 1.386 1_545 S
C875 C873 1.393 1_545 S
C875 C874 1.392 . S
C875 H892 0.930 . S
C876 C874 1.386 1_565 S
C876 C878 1.395 . S
C876 H893 0.930 . S
C877 C873 1.395 . S
C877 C878 1.379 . S
C877 H894 0.930 . S
C878 C876 1.395 . S
C878 C877 1.379 . S
C878 H895 0.930 . S
C879 O862 1.264 . S
C879 O863 1.254 . S
C880 Eu816 2.848 . S
C880 O860 1.257 1_545 S
C880 O865 1.249 . S
C880 C873 1.492 1_545 S
C881 H846 0.931 . S
C881 C859 1.420 . S
C881 C882 1.351 . S
C882 H844 0.930 . S
C882 C850 1.423 . S
C882 C881 1.351 . S
C883 O867 1.276 . S
C883 O870 1.235 1_554 S
C884 C885 1.393 . S
C884 C888 1.395 . S
C884 C891 1.492 . S
C885 C884 1.393 . S
C885 C886 1.392 . S
C885 H896 0.930 . S
C886 C885 1.392 . S
C886 C887 1.386 . S
C887 C886 1.386 . S
C887 C889 1.395 . S
C887 H897 0.930 . S
C888 C884 1.395 . S
C888 C889 1.379 . S
C888 H898 0.930 . S
C889 C887 1.395 . S
C889 C888 1.379 . S
C889 H899 0.930 . S
C890 O868 1.264 1_556 S
C890 O869 1.278 . S
C891 Eu827 2.848 . S
C891 O866 1.257 . S
C891 O871 1.249 . S
C891 C884 1.492 . S
H892 C875 0.930 . S
H893 C876 0.930 . S
H894 C877 0.930 . S
H895 C878 0.930 . S
H896 C885 0.930 . S
H897 C887 0.930 . S
H898 C888 0.930 . S
H899 C889 0.930 . S
Eu900 N931 2.657 . S
Eu900 N938 2.609 . S
Eu900 O944 2.558 . S
Eu900 O945 2.612 . S
Eu900 O947 2.339 . S
Eu900 O948 2.563 . S
Eu900 O949 2.419 . S
Eu900 O951 2.380 . S
Eu900 O952 2.432 . S
Eu900 C964 2.848 . S
C901 C904 1.429 . S
C901 C905 1.411 . S
C901 N908 1.377 . S
C902 C904 1.420 . S
C902 C906 1.423 . S
C902 C914 1.392 . S
C903 C905 1.420 . S
C903 C906 1.351 . S
C903 H926 0.931 . S
C904 C901 1.429 . S
C904 C902 1.420 . S
C904 N912 1.362 . S
C905 C901 1.411 . S
C905 C903 1.420 . S
C905 C910 1.395 . S
C906 C902 1.423 . S
C906 C903 1.351 . S
C906 H918 0.930 . S
C907 C909 1.400 . S
C907 C910 1.386 . S
C907 H919 0.930 . S
N908 C901 1.377 . S
N908 C909 1.321 . S
N908 Eu911 2.609 . S
C909 C907 1.400 . S
C909 N908 1.321 . S
C909 H916 0.930 . S
C910 C905 1.395 . S
C910 C907 1.386 . S
C910 H929 0.930 . S
Eu911 N908 2.609 . S
Eu911 N912 2.657 . S
Eu911 O945 2.380 . S
Eu911 O946 2.432 . S
Eu911 O950 2.558 . S
Eu911 O951 2.612 . S
Eu911 O953 2.339 . S
Eu911 O954 2.563 . S
Eu911 O955 2.419 . S
Eu911 C975 2.848 . S
N912 C904 1.362 . S
N912 Eu911 2.657 . S
N912 C913 1.334 . S
C913 N912 1.334 . S
C913 C915 1.413 . S
C913 H920 0.929 . S
C914 C902 1.392 . S
C914 C915 1.367 . S
C914 H922 0.930 . S
C915 C913 1.413 . S
C915 C914 1.367 . S
C915 H917 0.930 . S
H916 C909 0.930 . S
H917 C915 0.930 . S
H918 C906 0.930 . S
H919 C907 0.930 . S
H920 C913 0.929 . S
H921 C935 0.930 . S
H922 C914 0.930 . S
H923 C941 0.930 . S
H924 C932 0.929 . S
H925 C939 0.930 . S
H926 C903 0.931 . S
H927 C933 0.930 . S
H928 C966 0.930 . S
H929 C910 0.930 . S
H930 C965 0.931 . S
N931 Eu900 2.657 . S
N931 C932 1.334 . S
N931 C936 1.362 . S
C932 H924 0.929 . S
C932 N931 1.334 . S
C932 C935 1.413 . S
C933 H927 0.930 . S
C933 C934 1.392 . S
C933 C935 1.367 . S
C934 C933 1.392 . S
C934 C936 1.420 . S
C934 C966 1.423 . S
C935 H921 0.930 . S
C935 C932 1.413 . S
C935 C933 1.367 . S
C936 N931 1.362 . S
C936 C934 1.420 . S
C936 C940 1.429 . S
H937 C942 0.930 . S
N938 Eu900 2.609 . S
N938 C940 1.377 . S
N938 C941 1.321 . S
C939 H925 0.930 . S
C939 C941 1.400 . S
C939 C942 1.386 . S
C940 C936 1.429 . S
C940 N938 1.377 . S
C940 C943 1.411 . S
C941 H923 0.930 . S
C941 N938 1.321 . S
C941 C939 1.400 . S
C942 H937 0.930 . S
C942 C939 1.386 . S
C942 C943 1.395 . S
C943 C940 1.411 . S
C943 C942 1.395 . S
C943 C965 1.420 . S
O944 Eu900 2.558 . S
O944 C964 1.257 . S
O945 Eu900 2.612 . S
O945 Eu911 2.380 . S
O945 C956 1.276 . S
O946 Eu911 2.432 . S
O946 C963 1.264 . S
O947 Eu900 2.339 . S
O947 C963 1.254 . S
O948 Eu900 2.563 . S
O948 C956 1.235 . S
O949 Eu900 2.419 . S
O949 C964 1.249 . S
O950 Eu911 2.558 . S
O950 C975 1.257 . S
O951 Eu900 2.380 . S
O951 Eu911 2.612 . S
O951 C967 1.276 . S
O952 Eu900 2.432 . S
O952 C974 1.264 . S
O953 Eu911 2.339 . S
O953 C974 1.254 . S
O954 Eu911 2.563 . S
O954 C967 1.235 . S
O955 Eu911 2.419 . S
O955 C975 1.249 . S
C956 O945 1.276 . S
C956 O948 1.235 . S
C957 C959 1.393 . S
C957 C961 1.395 . S
C957 C964 1.492 . S
C958 C959 1.392 . S
C958 C960 1.386 . S
C959 C957 1.393 . S
C959 C958 1.392 . S
C959 H976 0.930 . S
C960 C958 1.386 . S
C960 C962 1.395 . S
C960 H977 0.930 . S
C961 C957 1.395 . S
C961 C962 1.379 . S
C961 H978 0.930 . S
C962 C960 1.395 . S
C962 C961 1.379 . S
C962 H979 0.930 . S
C963 O946 1.264 . S
C963 O947 1.254 . S
C964 Eu900 2.848 . S
C964 O944 1.257 . S
C964 O949 1.249 . S
C964 C957 1.492 . S
C965 H930 0.931 . S
C965 C943 1.420 . S
C965 C966 1.351 . S
C966 H928 0.930 . S
C966 C934 1.423 . S
C966 C965 1.351 . S
C967 O951 1.276 . S
C967 O954 1.235 . S
C968 C969 1.393 . S
C968 C972 1.395 . S
C968 C975 1.492 . S
C969 C968 1.393 . S
C969 C970 1.392 . S
C969 H980 0.930 . S
C970 C969 1.392 . S
C970 C971 1.386 . S
C971 C970 1.386 . S
C971 C973 1.395 . S
C971 H981 0.930 . S
C972 C968 1.395 . S
C972 C973 1.379 . S
C972 H982 0.930 . S
C973 C971 1.395 . S
C973 C972 1.379 . S
C973 H983 0.930 . S
C974 O952 1.264 . S
C974 O953 1.254 . S
C975 Eu911 2.848 . S
C975 O950 1.257 . S
C975 O955 1.249 . S
C975 C968 1.492 . S
H976 C959 0.930 . S
H977 C960 0.930 . S
H978 C961 0.930 . S
H979 C962 0.930 . S
H980 C969 0.930 . S
H981 C971 0.930 . S
H982 C972 0.930 . S
H983 C973 0.930 . S
Eu984 N1015 2.657 . S
Eu984 N1022 2.609 . S
Eu984 O1028 2.558 . S
Eu984 O1029 2.612 1_554 S
Eu984 O1031 2.339 . S
Eu984 O1032 2.563 1_554 S
Eu984 O1033 2.419 . S
Eu984 O1035 2.380 . S
Eu984 O1036 2.432 . S
Eu984 C1048 2.848 . S
C985 C988 1.429 . S
C985 C989 1.411 . S
C985 N992 1.377 . S
C986 C988 1.420 . S
C986 C990 1.423 . S
C986 C998 1.392 . S
C987 C989 1.420 . S
C987 C990 1.351 . S
C987 H1010 0.931 . S
C988 C985 1.429 . S
C988 C986 1.420 . S
C988 N996 1.362 . S
C989 C985 1.411 . S
C989 C987 1.420 . S
C989 C994 1.395 . S
C990 C986 1.423 . S
C990 C987 1.351 . S
C990 H1002 0.930 . S
C991 C993 1.400 . S
C991 C994 1.386 . S
C991 H1003 0.930 . S
N992 C985 1.377 . S
N992 C993 1.321 . S
N992 Eu995 2.609 1_556 S
C993 C991 1.400 . S
C993 N992 1.321 . S
C993 H1000 0.930 . S
C994 C989 1.395 . S
C994 C991 1.386 . S
C994 H1013 0.930 . S
Eu995 N992 2.609 1_554 S
Eu995 N996 2.657 1_554 S
Eu995 O1029 2.380 1_554 S
Eu995 O1030 2.432 . S
Eu995 O1034 2.558 . S
Eu995 O1035 2.612 . S
Eu995 O1037 2.339 . S
Eu995 O1038 2.563 . S
Eu995 O1039 2.419 . S
Eu995 C1059 2.848 . S
N996 C988 1.362 . S
N996 Eu995 2.657 1_556 S
N996 C997 1.334 . S
C997 N996 1.334 . S
C997 C999 1.413 . S
C997 H1004 0.929 . S
C998 C986 1.392 . S
C998 C999 1.367 . S
C998 H1006 0.930 . S
C999 C997 1.413 . S
C999 C998 1.367 . S
C999 H1001 0.930 . S
H1000 C993 0.930 . S
H1001 C999 0.930 . S
H1002 C990 0.930 . S
H1003 C991 0.930 . S
H1004 C997 0.929 . S
H1005 C1019 0.930 . S
H1006 C998 0.930 . S
H1007 C1025 0.930 . S
H1008 C1016 0.929 . S
H1009 C1023 0.930 . S
H1010 C987 0.931 . S
H1011 C1017 0.930 . S
H1012 C1050 0.930 . S
H1013 C994 0.930 . S
H1014 C1049 0.931 . S
N1015 Eu984 2.657 . S
N1015 C1016 1.334 . S
N1015 C1020 1.362 . S
C1016 H1008 0.929 . S
C1016 N1015 1.334 . S
C1016 C1019 1.413 . S
C1017 H1011 0.930 . S
C1017 C1018 1.392 . S
C1017 C1019 1.367 . S
C1018 C1017 1.392 . S
C1018 C1020 1.420 . S
C1018 C1050 1.423 . S
C1019 H1005 0.930 . S
C1019 C1016 1.413 . S
C1019 C1017 1.367 . S
C1020 N1015 1.362 . S
C1020 C1018 1.420 . S
C1020 C1024 1.429 . S
H1021 C1026 0.930 . S
N1022 Eu984 2.609 . S
N1022 C1024 1.377 . S
N1022 C1025 1.321 . S
C1023 H1009 0.930 . S
C1023 C1025 1.400 . S
C1023 C1026 1.386 . S
C1024 C1020 1.429 . S
C1024 N1022 1.377 . S
C1024 C1027 1.411 . S
C1025 H1007 0.930 . S
C1025 N1022 1.321 . S
C1025 C1023 1.400 . S
C1026 H1021 0.930 . S
C1026 C1023 1.386 . S
C1026 C1027 1.395 . S
C1027 C1024 1.411 . S
C1027 C1026 1.395 . S
C1027 C1049 1.420 . S
O1028 Eu984 2.558 . S
O1028 C1048 1.257 . S
O1029 Eu984 2.612 1_556 S
O1029 Eu995 2.380 1_556 S
O1029 C1040 1.276 . S
O1030 Eu995 2.432 . S
O1030 C1047 1.264 . S
O1031 Eu984 2.339 . S
O1031 C1047 1.254 . S
O1032 Eu984 2.563 1_556 S
O1032 C1040 1.235 . S
O1033 Eu984 2.419 . S
O1033 C1048 1.249 . S
O1034 Eu995 2.558 . S
O1034 C1059 1.257 . S
O1035 Eu984 2.380 . S
O1035 Eu995 2.612 . S
O1035 C1051 1.276 . S
O1036 Eu984 2.432 . S
O1036 C1058 1.264 . S
O1037 Eu995 2.339 . S
O1037 C1058 1.254 . S
O1038 Eu995 2.563 . S
O1038 C1051 1.235 . S
O1039 Eu995 2.419 . S
O1039 C1059 1.249 . S
C1040 O1029 1.276 . S
C1040 O1032 1.235 . S
C1041 C1043 1.393 . S
C1041 C1045 1.395 . S
C1041 C1048 1.492 . S
C1042 C1043 1.392 1_556 S
C1042 C1044 1.386 1_556 S
C1043 C1041 1.393 . S
C1043 C1042 1.392 1_554 S
C1043 H1060 0.922 1_554 S
C1044 C1042 1.386 1_554 S
C1044 C1046 1.395 . S
C1044 H1061 0.930 . S
C1045 C1041 1.395 . S
C1045 C1046 1.379 . S
C1045 H1062 0.930 . S
C1046 C1044 1.395 . S
C1046 C1045 1.379 . S
C1046 H1063 0.930 . S
C1047 O1030 1.264 . S
C1047 O1031 1.254 . S
C1048 Eu984 2.848 . S
C1048 O1028 1.257 . S
C1048 O1033 1.249 . S
C1048 C1041 1.492 . S
C1049 H1014 0.931 . S
C1049 C1027 1.420 . S
C1049 C1050 1.351 . S
C1050 H1012 0.930 . S
C1050 C1018 1.423 . S
C1050 C1049 1.351 . S
C1051 O1035 1.276 . S
C1051 O1038 1.235 . S
C1052 C1053 1.393 . S
C1052 C1056 1.395 . S
C1052 C1059 1.492 . S
C1053 C1052 1.393 . S
C1053 C1054 1.392 . S
C1053 H1064 0.930 . S
C1054 C1053 1.392 . S
C1054 C1055 1.386 . S
C1055 C1054 1.386 . S
C1055 C1057 1.395 . S
C1055 H1065 0.930 . S
C1056 C1052 1.395 . S
C1056 C1057 1.379 . S
C1056 H1066 0.930 . S
C1057 C1055 1.395 . S
C1057 C1056 1.379 . S
C1057 H1067 0.930 . S
C1058 O1036 1.264 . S
C1058 O1037 1.254 . S
C1059 Eu995 2.848 . S
C1059 O1034 1.257 . S
C1059 O1039 1.249 . S
C1059 C1052 1.492 . S
H1060 C1043 0.922 1_556 S
H1061 C1044 0.930 . S
H1062 C1045 0.930 . S
H1063 C1046 0.930 . S
H1064 C1053 0.930 . S
H1065 C1055 0.930 . S
H1066 C1056 0.930 . S
H1067 C1057 0.930 . S
Eu1068 N1099 2.657 . S
Eu1068 N1106 2.609 . S
Eu1068 O1112 2.558 . S
Eu1068 O1113 2.612 . S
Eu1068 O1115 2.339 . S
Eu1068 O1116 2.563 . S
Eu1068 O1117 2.419 . S
Eu1068 O1119 2.380 . S
Eu1068 O1120 2.432 . S
Eu1068 C1132 2.848 . S
C1069 C1072 1.429 . S
C1069 C1073 1.411 . S
C1069 N1076 1.377 . S
C1070 C1072 1.420 . S
C1070 C1074 1.423 . S
C1070 C1082 1.392 . S
C1071 C1073 1.420 . S
C1071 C1074 1.351 . S
C1071 H1094 0.931 . S
C1072 C1069 1.429 . S
C1072 C1070 1.420 . S
C1072 N1080 1.362 . S
C1073 C1069 1.411 . S
C1073 C1071 1.420 . S
C1073 C1078 1.395 . S
C1074 C1070 1.423 . S
C1074 C1071 1.351 . S
C1074 H1086 0.930 . S
C1075 C1077 1.400 . S
C1075 C1078 1.386 . S
C1075 H1087 0.930 . S
N1076 C1069 1.377 . S
N1076 C1077 1.321 . S
N1076 Eu1079 2.609 . S
C1077 C1075 1.400 . S
C1077 N1076 1.321 . S
C1077 H1084 0.930 . S
C1078 C1073 1.395 . S
C1078 C1075 1.386 . S
C1078 H1097 0.930 . S
Eu1079 N1076 2.609 . S
Eu1079 N1080 2.657 . S
Eu1079 O1113 2.380 . S
Eu1079 O1114 2.432 . S
Eu1079 O1118 2.558 . S
Eu1079 O1119 2.612 . S
Eu1079 O1121 2.339 . S
Eu1079 O1122 2.563 . S
Eu1079 O1123 2.419 . S
Eu1079 C1143 2.848 . S
N1080 C1072 1.362 . S
N1080 Eu1079 2.657 . S
N1080 C1081 1.334 . S
C1081 N1080 1.334 . S
C1081 C1083 1.413 . S
C1081 H1088 0.929 . S
C1082 C1070 1.392 . S
C1082 C1083 1.367 . S
C1082 H1090 0.930 . S
C1083 C1081 1.413 . S
C1083 C1082 1.367 . S
C1083 H1085 0.930 . S
H1084 C1077 0.930 . S
H1085 C1083 0.930 . S
H1086 C1074 0.930 . S
H1087 C1075 0.930 . S
H1088 C1081 0.929 . S
H1089 C1103 0.930 . S
H1090 C1082 0.930 . S
H1091 C1109 0.930 . S
H1092 C1100 0.929 . S
H1093 C1107 0.930 . S
H1094 C1071 0.931 . S
H1095 C1101 0.930 . S
H1096 C1134 0.930 . S
H1097 C1078 0.930 . S
H1098 C1133 0.931 . S
N1099 Eu1068 2.657 . S
N1099 C1100 1.334 . S
N1099 C1104 1.362 . S
C1100 H1092 0.929 . S
C1100 N1099 1.334 . S
C1100 C1103 1.413 . S
C1101 H1095 0.930 . S
C1101 C1102 1.392 . S
C1101 C1103 1.367 . S
C1102 C1101 1.392 . S
C1102 C1104 1.420 . S
C1102 C1134 1.423 . S
C1103 H1089 0.930 . S
C1103 C1100 1.413 . S
C1103 C1101 1.367 . S
C1104 N1099 1.362 . S
C1104 C1102 1.420 . S
C1104 C1108 1.429 . S
H1105 C1110 0.930 . S
N1106 Eu1068 2.609 . S
N1106 C1108 1.377 . S
N1106 C1109 1.321 . S
C1107 H1093 0.930 . S
C1107 C1109 1.400 . S
C1107 C1110 1.386 . S
C1108 C1104 1.429 . S
C1108 N1106 1.377 . S
C1108 C1111 1.411 . S
C1109 H1091 0.930 . S
C1109 N1106 1.321 . S
C1109 C1107 1.400 . S
C1110 H1105 0.930 . S
C1110 C1107 1.386 . S
C1110 C1111 1.395 . S
C1111 C1108 1.411 . S
C1111 C1110 1.395 . S
C1111 C1133 1.420 . S
O1112 Eu1068 2.558 . S
O1112 C1132 1.257 . S
O1113 Eu1068 2.612 . S
O1113 Eu1079 2.380 . S
O1113 C1124 1.276 . S
O1114 Eu1079 2.432 . S
O1114 C1131 1.264 . S
O1115 Eu1068 2.339 . S
O1115 C1131 1.254 . S
O1116 Eu1068 2.563 . S
O1116 C1124 1.235 . S
O1117 Eu1068 2.419 . S
O1117 C1132 1.249 . S
O1118 Eu1079 2.558 . S
O1118 C1143 1.257 . S
O1119 Eu1068 2.380 . S
O1119 Eu1079 2.612 . S
O1119 C1135 1.276 . S
O1120 Eu1068 2.432 . S
O1120 C1142 1.264 . S
O1121 Eu1079 2.339 . S
O1121 C1142 1.254 . S
O1122 Eu1079 2.563 . S
O1122 C1135 1.235 . S
O1123 Eu1079 2.419 . S
O1123 C1143 1.249 . S
C1124 O1113 1.276 . S
C1124 O1116 1.235 . S
C1125 C1127 1.393 . S
C1125 C1129 1.395 . S
C1125 C1132 1.492 . S
C1126 C1127 1.392 . S
C1126 C1128 1.386 . S
C1127 C1125 1.393 . S
C1127 C1126 1.392 . S
C1127 H1144 0.930 . S
C1128 C1126 1.386 . S
C1128 C1130 1.395 . S
C1128 H1145 0.930 . S
C1129 C1125 1.395 . S
C1129 C1130 1.379 . S
C1129 H1146 0.930 . S
C1130 C1128 1.395 . S
C1130 C1129 1.379 . S
C1130 H1147 0.930 . S
C1131 O1114 1.264 . S
C1131 O1115 1.254 . S
C1132 Eu1068 2.848 . S
C1132 O1112 1.257 . S
C1132 O1117 1.249 . S
C1132 C1125 1.492 . S
C1133 H1098 0.931 . S
C1133 C1111 1.420 . S
C1133 C1134 1.351 . S
C1134 H1096 0.930 . S
C1134 C1102 1.423 . S
C1134 C1133 1.351 . S
C1135 O1119 1.276 . S
C1135 O1122 1.235 . S
C1136 C1137 1.393 . S
C1136 C1140 1.395 . S
C1136 C1143 1.492 . S
C1137 C1136 1.393 . S
C1137 C1138 1.392 . S
C1137 H1148 0.930 . S
C1138 C1137 1.392 . S
C1138 C1139 1.386 . S
C1139 C1138 1.386 . S
C1139 C1141 1.395 . S
C1139 H1149 0.930 . S
C1140 C1136 1.395 . S
C1140 C1141 1.379 . S
C1140 H1150 0.930 . S
C1141 C1139 1.395 . S
C1141 C1140 1.379 . S
C1141 H1151 0.930 . S
C1142 O1120 1.264 . S
C1142 O1121 1.254 . S
C1143 Eu1079 2.848 . S
C1143 O1118 1.257 . S
C1143 O1123 1.249 . S
C1143 C1136 1.492 . S
H1144 C1127 0.930 . S
H1145 C1128 0.930 . S
H1146 C1129 0.930 . S
H1147 C1130 0.930 . S
H1148 C1137 0.930 . S
H1149 C1139 0.930 . S
H1150 C1140 0.930 . S
H1151 C1141 0.930 . S
Eu1152 N1183 2.657 . S
Eu1152 N1190 2.609 . S
Eu1152 O1196 2.558 . S
Eu1152 O1197 2.612 . S
Eu1152 O1199 2.339 . S
Eu1152 O1200 2.563 . S
Eu1152 O1201 2.419 . S
Eu1152 O1203 2.380 . S
Eu1152 O1204 2.432 . S
Eu1152 C1216 2.848 . S
C1153 C1156 1.429 . S
C1153 C1157 1.411 1_455 S
C1153 N1160 1.377 . S
C1154 C1156 1.420 1_655 S
C1154 C1158 1.423 . S
C1154 C1166 1.392 . S
C1155 C1157 1.420 . S
C1155 C1158 1.351 . S
C1155 H1178 0.931 . S
C1156 C1153 1.429 . S
C1156 C1154 1.420 1_455 S
C1156 N1164 1.362 . S
C1157 C1153 1.411 1_655 S
C1157 C1155 1.420 . S
C1157 C1162 1.395 . S
C1158 C1154 1.423 . S
C1158 C1155 1.351 . S
C1158 H1170 0.930 . S
C1159 C1161 1.400 . S
C1159 C1162 1.386 1_455 S
C1159 H1171 0.930 . S
N1160 C1153 1.377 . S
N1160 C1161 1.321 . S
N1160 Eu1163 2.609 . S
C1161 C1159 1.400 . S
C1161 N1160 1.321 . S
C1161 H1168 0.930 . S
C1162 C1157 1.395 . S
C1162 C1159 1.386 1_655 S
C1162 H1181 0.930 . S
Eu1163 N1160 2.609 . S
Eu1163 N1164 2.657 . S
Eu1163 O1197 2.380 . S
Eu1163 O1198 2.432 . S
Eu1163 O1202 2.558 . S
Eu1163 O1203 2.612 . S
Eu1163 O1205 2.339 . S
Eu1163 O1206 2.563 . S
Eu1163 O1207 2.419 . S
Eu1163 C1227 2.848 . S
N1164 C1156 1.362 . S
N1164 Eu1163 2.657 . S
N1164 C1165 1.334 . S
C1165 N1164 1.334 . S
C1165 C1167 1.413 1_455 S
C1165 H1172 0.929 . S
C1166 C1154 1.392 . S
C1166 C1167 1.367 . S
C1166 H1174 0.930 . S
C1167 C1165 1.413 1_655 S
C1167 C1166 1.367 . S
C1167 H1169 0.930 . S
H1168 C1161 0.930 . S
H1169 C1167 0.930 . S
H1170 C1158 0.930 . S
H1171 C1159 0.930 . S
H1172 C1165 0.929 . S
H1173 C1187 0.930 . S
H1174 C1166 0.930 . S
H1175 C1193 0.930 . S
H1176 C1184 0.929 . S
H1177 C1191 0.930 . S
H1178 C1155 0.931 . S
H1179 C1185 0.930 . S
H1180 C1218 0.930 . S
H1181 C1162 0.930 . S
H1182 C1217 0.931 . S
N1183 Eu1152 2.657 . S
N1183 C1184 1.334 . S
N1183 C1188 1.362 . S
C1184 H1176 0.929 . S
C1184 N1183 1.334 . S
C1184 C1187 1.413 . S
C1185 H1179 0.930 . S
C1185 C1186 1.392 . S
C1185 C1187 1.367 . S
C1186 C1185 1.392 . S
C1186 C1188 1.420 . S
C1186 C1218 1.423 . S
C1187 H1173 0.930 . S
C1187 C1184 1.413 . S
C1187 C1185 1.367 . S
C1188 N1183 1.362 . S
C1188 C1186 1.420 . S
C1188 C1192 1.429 . S
H1189 C1194 0.930 . S
N1190 Eu1152 2.609 . S
N1190 C1192 1.377 . S
N1190 C1193 1.321 . S
C1191 H1177 0.930 . S
C1191 C1193 1.400 . S
C1191 C1194 1.386 . S
C1192 C1188 1.429 . S
C1192 N1190 1.377 . S
C1192 C1195 1.411 . S
C1193 H1175 0.930 . S
C1193 N1190 1.321 . S
C1193 C1191 1.400 . S
C1194 H1189 0.930 . S
C1194 C1191 1.386 . S
C1194 C1195 1.395 . S
C1195 C1192 1.411 . S
C1195 C1194 1.395 . S
C1195 C1217 1.420 . S
O1196 Eu1152 2.558 . S
O1196 C1216 1.257 . S
O1197 Eu1152 2.612 . S
O1197 Eu1163 2.380 . S
O1197 C1208 1.276 . S
O1198 Eu1163 2.432 . S
O1198 C1215 1.264 . S
O1199 Eu1152 2.339 . S
O1199 C1215 1.254 . S
O1200 Eu1152 2.563 . S
O1200 C1208 1.235 . S
O1201 Eu1152 2.419 . S
O1201 C1216 1.249 . S
O1202 Eu1163 2.558 . S
O1202 C1227 1.257 . S
O1203 Eu1152 2.380 . S
O1203 Eu1163 2.612 . S
O1203 C1219 1.276 . S
O1204 Eu1152 2.432 . S
O1204 C1226 1.264 . S
O1205 Eu1163 2.339 . S
O1205 C1226 1.254 . S
O1206 Eu1163 2.563 . S
O1206 C1219 1.235 . S
O1207 Eu1163 2.419 . S
O1207 C1227 1.249 . S
C1208 O1197 1.276 . S
C1208 O1200 1.235 . S
C1209 C1211 1.393 . S
C1209 C1213 1.395 . S
C1209 C1216 1.492 . S
C1210 C1211 1.392 . S
C1210 C1212 1.386 . S
C1211 C1209 1.393 . S
C1211 C1210 1.392 . S
C1211 H1228 0.930 . S
C1212 C1210 1.386 . S
C1212 C1214 1.395 . S
C1212 H1229 0.930 . S
C1213 C1209 1.395 . S
C1213 C1214 1.379 . S
C1213 H1230 0.930 . S
C1214 C1212 1.395 . S
C1214 C1213 1.379 . S
C1214 H1231 0.930 . S
C1215 O1198 1.264 . S
C1215 O1199 1.254 . S
C1216 Eu1152 2.848 . S
C1216 O1196 1.257 . S
C1216 O1201 1.249 . S
C1216 C1209 1.492 . S
C1217 H1182 0.931 . S
C1217 C1195 1.420 . S
C1217 C1218 1.351 . S
C1218 H1180 0.930 . S
C1218 C1186 1.423 . S
C1218 C1217 1.351 . S
C1219 O1203 1.276 . S
C1219 O1206 1.235 . S
C1220 C1221 1.393 . S
C1220 C1224 1.395 . S
C1220 C1227 1.492 . S
C1221 C1220 1.393 . S
C1221 C1222 1.392 . S
C1221 H1232 0.930 . S
C1222 C1221 1.392 . S
C1222 C1223 1.386 . S
C1223 C1222 1.386 . S
C1223 C1225 1.395 . S
C1223 H1233 0.930 . S
C1224 C1220 1.395 . S
C1224 C1225 1.379 . S
C1224 H1234 0.930 . S
C1225 C1223 1.395 . S
C1225 C1224 1.379 . S
C1225 H1235 0.930 . S
C1226 O1204 1.264 . S
C1226 O1205 1.254 . S
C1227 Eu1163 2.848 . S
C1227 O1202 1.257 . S
C1227 O1207 1.249 . S
C1227 C1220 1.492 . S
H1228 C1211 0.930 . S
H1229 C1212 0.930 . S
H1230 C1213 0.930 . S
H1231 C1214 0.930 . S
H1232 C1221 0.930 . S
H1233 C1223 0.930 . S
H1234 C1224 0.930 . S
H1235 C1225 0.930 . S
Eu1236 N1267 2.657 . S
Eu1236 N1274 2.609 . S
Eu1236 O1280 2.558 . S
Eu1236 O1281 2.612 . S
Eu1236 O1283 2.339 . S
Eu1236 O1284 2.563 . S
Eu1236 O1285 2.419 . S
Eu1236 O1287 2.380 . S
Eu1236 O1288 2.432 . S
Eu1236 C1300 2.848 . S
C1237 C1240 1.429 . S
C1237 C1241 1.411 . S
C1237 N1244 1.377 . S
C1238 C1240 1.420 . S
C1238 C1242 1.423 . S
C1238 C1250 1.392 . S
C1239 C1241 1.420 . S
C1239 C1242 1.351 . S
C1239 H1262 0.931 . S
C1240 C1237 1.429 . S
C1240 C1238 1.420 . S
C1240 N1248 1.362 . S
C1241 C1237 1.411 . S
C1241 C1239 1.420 . S
C1241 C1246 1.395 . S
C1242 C1238 1.423 . S
C1242 C1239 1.351 . S
C1242 H1254 0.930 . S
C1243 C1245 1.400 . S
C1243 C1246 1.386 . S
C1243 H1255 0.930 . S
N1244 C1237 1.377 . S
N1244 C1245 1.321 . S
N1244 Eu1247 2.609 . S
C1245 C1243 1.400 . S
C1245 N1244 1.321 . S
C1245 H1252 0.930 . S
C1246 C1241 1.395 . S
C1246 C1243 1.386 . S
C1246 H1265 0.930 . S
Eu1247 N1244 2.609 . S
Eu1247 N1248 2.657 . S
Eu1247 O1281 2.380 . S
Eu1247 O1282 2.432 . S
Eu1247 O1286 2.558 . S
Eu1247 O1287 2.612 . S
Eu1247 O1289 2.339 . S
Eu1247 O1290 2.563 . S
Eu1247 O1291 2.419 . S
Eu1247 C1311 2.848 . S
N1248 C1240 1.362 . S
N1248 Eu1247 2.657 . S
N1248 C1249 1.334 . S
C1249 N1248 1.334 . S
C1249 C1251 1.413 . S
C1249 H1256 0.929 . S
C1250 C1238 1.392 . S
C1250 C1251 1.367 . S
C1250 H1258 0.930 . S
C1251 C1249 1.413 . S
C1251 C1250 1.367 . S
C1251 H1253 0.930 . S
H1252 C1245 0.930 . S
H1253 C1251 0.930 . S
H1254 C1242 0.930 . S
H1255 C1243 0.930 . S
H1256 C1249 0.929 . S
H1257 C1271 0.930 . S
H1258 C1250 0.930 . S
H1259 C1277 0.930 . S
H1260 C1268 0.929 . S
H1261 C1275 0.930 . S
H1262 C1239 0.931 . S
H1263 C1269 0.930 . S
H1264 C1302 0.930 . S
H1265 C1246 0.930 . S
H1266 C1301 0.931 . S
N1267 Eu1236 2.657 . S
N1267 C1268 1.334 . S
N1267 C1272 1.362 . S
C1268 H1260 0.929 . S
C1268 N1267 1.334 . S
C1268 C1271 1.413 . S
C1269 H1263 0.930 . S
C1269 C1270 1.392 . S
C1269 C1271 1.367 . S
C1270 C1269 1.392 . S
C1270 C1272 1.420 . S
C1270 C1302 1.423 . S
C1271 H1257 0.930 . S
C1271 C1268 1.413 . S
C1271 C1269 1.367 . S
C1272 N1267 1.362 . S
C1272 C1270 1.420 . S
C1272 C1276 1.429 . S
H1273 C1278 0.930 . S
N1274 Eu1236 2.609 . S
N1274 C1276 1.377 . S
N1274 C1277 1.321 . S
C1275 H1261 0.930 . S
C1275 C1277 1.400 . S
C1275 C1278 1.386 . S
C1276 C1272 1.429 . S
C1276 N1274 1.377 . S
C1276 C1279 1.411 . S
C1277 H1259 0.930 . S
C1277 N1274 1.321 . S
C1277 C1275 1.400 . S
C1278 H1273 0.930 . S
C1278 C1275 1.386 . S
C1278 C1279 1.395 . S
C1279 C1276 1.411 . S
C1279 C1278 1.395 . S
C1279 C1301 1.420 . S
O1280 Eu1236 2.558 . S
O1280 C1300 1.257 . S
O1281 Eu1236 2.612 . S
O1281 Eu1247 2.380 . S
O1281 C1292 1.276 . S
O1282 Eu1247 2.432 . S
O1282 C1299 1.264 . S
O1283 Eu1236 2.339 . S
O1283 C1299 1.254 . S
O1284 Eu1236 2.563 . S
O1284 C1292 1.235 . S
O1285 Eu1236 2.419 . S
O1285 C1300 1.249 . S
O1286 Eu1247 2.558 . S
O1286 C1311 1.257 . S
O1287 Eu1236 2.380 . S
O1287 Eu1247 2.612 . S
O1287 C1303 1.276 . S
O1288 Eu1236 2.432 . S
O1288 C1310 1.264 . S
O1289 Eu1247 2.339 . S
O1289 C1310 1.254 . S
O1290 Eu1247 2.563 . S
O1290 C1303 1.235 . S
O1291 Eu1247 2.419 . S
O1291 C1311 1.249 . S
C1292 O1281 1.276 . S
C1292 O1284 1.235 . S
C1293 C1295 1.393 . S
C1293 C1297 1.395 . S
C1293 C1300 1.492 . S
C1294 C1295 1.392 . S
C1294 C1296 1.386 . S
C1295 C1293 1.393 . S
C1295 C1294 1.392 . S
C1295 H1312 0.930 . S
C1296 C1294 1.386 . S
C1296 C1298 1.395 . S
C1296 H1313 0.930 . S
C1297 C1293 1.395 . S
C1297 C1298 1.379 . S
C1297 H1314 0.930 . S
C1298 C1296 1.395 . S
C1298 C1297 1.379 . S
C1298 H1315 0.930 . S
C1299 O1282 1.264 . S
C1299 O1283 1.254 . S
C1300 Eu1236 2.848 . S
C1300 O1280 1.257 . S
C1300 O1285 1.249 . S
C1300 C1293 1.492 . S
C1301 H1266 0.931 . S
C1301 C1279 1.420 . S
C1301 C1302 1.351 . S
C1302 H1264 0.930 . S
C1302 C1270 1.423 . S
C1302 C1301 1.351 . S
C1303 O1287 1.276 . S
C1303 O1290 1.235 . S
C1304 C1305 1.393 . S
C1304 C1308 1.395 . S
C1304 C1311 1.492 . S
C1305 C1304 1.393 . S
C1305 C1306 1.392 . S
C1305 H1316 0.930 . S
C1306 C1305 1.392 . S
C1306 C1307 1.386 . S
C1307 C1306 1.386 . S
C1307 C1309 1.395 . S
C1307 H1317 0.930 . S
C1308 C1304 1.395 . S
C1308 C1309 1.379 . S
C1308 H1318 0.930 . S
C1309 C1307 1.395 . S
C1309 C1308 1.379 . S
C1309 H1319 0.930 . S
C1310 O1288 1.264 . S
C1310 O1289 1.254 . S
C1311 Eu1247 2.848 . S
C1311 O1286 1.257 . S
C1311 O1291 1.249 . S
C1311 C1304 1.492 . S
H1312 C1295 0.930 . S
H1313 C1296 0.930 . S
H1314 C1297 0.930 . S
H1315 C1298 0.930 . S
H1316 C1305 0.930 . S
H1317 C1307 0.930 . S
H1318 C1308 0.930 . S
H1319 C1309 0.930 . S
Eu1320 N1351 2.657 . S
Eu1320 N1358 2.609 . S
Eu1320 O1364 2.558 . S
Eu1320 O1365 2.612 . S
Eu1320 O1367 2.339 . S
Eu1320 O1368 2.563 . S
Eu1320 O1369 2.419 . S
Eu1320 O1371 2.380 . S
Eu1320 O1372 2.432 . S
Eu1320 C1384 2.848 . S
C1321 C1324 1.429 . S
C1321 C1325 1.411 . S
C1321 N1328 1.377 . S
C1322 C1324 1.420 . S
C1322 C1326 1.423 . S
C1322 C1334 1.392 . S
C1323 C1325 1.420 . S
C1323 C1326 1.351 . S
C1323 H1346 0.931 . S
C1324 C1321 1.429 . S
C1324 C1322 1.420 . S
C1324 N1332 1.362 . S
C1325 C1321 1.411 . S
C1325 C1323 1.420 . S
C1325 C1330 1.395 . S
C1326 C1322 1.423 . S
C1326 C1323 1.351 . S
C1326 H1338 0.930 . S
C1327 C1329 1.400 . S
C1327 C1330 1.386 . S
C1327 H1339 0.930 . S
N1328 C1321 1.377 . S
N1328 C1329 1.321 . S
N1328 Eu1331 2.609 . S
C1329 C1327 1.400 . S
C1329 N1328 1.321 . S
C1329 H1336 0.930 . S
C1330 C1325 1.395 . S
C1330 C1327 1.386 . S
C1330 H1349 0.930 . S
Eu1331 N1328 2.609 . S
Eu1331 N1332 2.657 . S
Eu1331 O1365 2.380 . S
Eu1331 O1366 2.432 . S
Eu1331 O1370 2.558 . S
Eu1331 O1371 2.612 . S
Eu1331 O1373 2.339 . S
Eu1331 O1374 2.563 . S
Eu1331 O1375 2.419 . S
Eu1331 C1395 2.848 . S
N1332 C1324 1.362 . S
N1332 Eu1331 2.657 . S
N1332 C1333 1.334 . S
C1333 N1332 1.334 . S
C1333 C1335 1.413 . S
C1333 H1340 0.929 . S
C1334 C1322 1.392 . S
C1334 C1335 1.367 . S
C1334 H1342 0.930 . S
C1335 C1333 1.413 . S
C1335 C1334 1.367 . S
C1335 H1337 0.930 . S
H1336 C1329 0.930 . S
H1337 C1335 0.930 . S
H1338 C1326 0.930 . S
H1339 C1327 0.930 . S
H1340 C1333 0.929 . S
H1341 C1355 0.930 . S
H1342 C1334 0.930 . S
H1343 C1361 0.930 . S
H1344 C1352 0.929 . S
H1345 C1359 0.930 . S
H1346 C1323 0.931 . S
H1347 C1353 0.930 . S
H1348 C1386 0.930 . S
H1349 C1330 0.930 . S
H1350 C1385 0.931 . S
N1351 Eu1320 2.657 . S
N1351 C1352 1.334 . S
N1351 C1356 1.362 . S
C1352 H1344 0.929 . S
C1352 N1351 1.334 . S
C1352 C1355 1.413 . S
C1353 H1347 0.930 . S
C1353 C1354 1.392 . S
C1353 C1355 1.367 . S
C1354 C1353 1.392 . S
C1354 C1356 1.420 . S
C1354 C1386 1.423 . S
C1355 H1341 0.930 . S
C1355 C1352 1.413 . S
C1355 C1353 1.367 . S
C1356 N1351 1.362 . S
C1356 C1354 1.420 . S
C1356 C1360 1.429 . S
H1357 C1362 0.930 . S
N1358 Eu1320 2.609 . S
N1358 C1360 1.377 . S
N1358 C1361 1.321 . S
C1359 H1345 0.930 . S
C1359 C1361 1.400 . S
C1359 C1362 1.386 . S
C1360 C1356 1.429 . S
C1360 N1358 1.377 . S
C1360 C1363 1.411 . S
C1361 H1343 0.930 . S
C1361 N1358 1.321 . S
C1361 C1359 1.400 . S
C1362 H1357 0.930 . S
C1362 C1359 1.386 . S
C1362 C1363 1.395 . S
C1363 C1360 1.411 . S
C1363 C1362 1.395 . S
C1363 C1385 1.420 . S
O1364 Eu1320 2.558 . S
O1364 C1384 1.257 . S
O1365 Eu1320 2.612 . S
O1365 Eu1331 2.380 . S
O1365 C1376 1.276 . S
O1366 Eu1331 2.432 . S
O1366 C1383 1.264 . S
O1367 Eu1320 2.339 . S
O1367 C1383 1.254 . S
O1368 Eu1320 2.563 . S
O1368 C1376 1.235 . S
O1369 Eu1320 2.419 . S
O1369 C1384 1.249 . S
O1370 Eu1331 2.558 . S
O1370 C1395 1.257 . S
O1371 Eu1320 2.380 . S
O1371 Eu1331 2.612 . S
O1371 C1387 1.276 . S
O1372 Eu1320 2.432 . S
O1372 C1394 1.264 . S
O1373 Eu1331 2.339 . S
O1373 C1394 1.254 . S
O1374 Eu1331 2.563 . S
O1374 C1387 1.235 . S
O1375 Eu1331 2.419 . S
O1375 C1395 1.249 . S
C1376 O1365 1.276 . S
C1376 O1368 1.235 . S
C1377 C1379 1.393 . S
C1377 C1381 1.395 . S
C1377 C1384 1.492 . S
C1378 C1379 1.392 . S
C1378 C1380 1.386 . S
C1379 C1377 1.393 . S
C1379 C1378 1.392 . S
C1379 H1396 0.930 . S
C1380 C1378 1.386 . S
C1380 C1382 1.395 . S
C1380 H1397 0.930 . S
C1381 C1377 1.395 . S
C1381 C1382 1.379 . S
C1381 H1398 0.930 . S
C1382 C1380 1.395 . S
C1382 C1381 1.379 . S
C1382 H1399 0.930 . S
C1383 O1366 1.264 . S
C1383 O1367 1.254 . S
C1384 Eu1320 2.848 . S
C1384 O1364 1.257 . S
C1384 O1369 1.249 . S
C1384 C1377 1.492 . S
C1385 H1350 0.931 . S
C1385 C1363 1.420 . S
C1385 C1386 1.351 . S
C1386 H1348 0.930 . S
C1386 C1354 1.423 . S
C1386 C1385 1.351 . S
C1387 O1371 1.276 . S
C1387 O1374 1.235 . S
C1388 C1389 1.393 . S
C1388 C1392 1.395 . S
C1388 C1395 1.492 . S
C1389 C1388 1.393 . S
C1389 C1390 1.392 . S
C1389 H1400 0.930 . S
C1390 C1389 1.392 . S
C1390 C1391 1.386 . S
C1391 C1390 1.386 . S
C1391 C1393 1.395 . S
C1391 H1401 0.930 . S
C1392 C1388 1.395 . S
C1392 C1393 1.379 . S
C1392 H1402 0.930 . S
C1393 C1391 1.395 . S
C1393 C1392 1.379 . S
C1393 H1403 0.930 . S
C1394 O1372 1.264 . S
C1394 O1373 1.254 . S
C1395 Eu1331 2.848 . S
C1395 O1370 1.257 . S
C1395 O1375 1.249 . S
C1395 C1388 1.492 . S
H1396 C1379 0.930 . S
H1397 C1380 0.930 . S
H1398 C1381 0.930 . S
H1399 C1382 0.930 . S
H1400 C1389 0.930 . S
H1401 C1391 0.930 . S
H1402 C1392 0.930 . S
H1403 C1393 0.930 . S
Eu1404 N1435 2.657 . S
Eu1404 N1442 2.609 . S
Eu1404 O1448 2.558 . S
Eu1404 O1449 2.612 . S
Eu1404 O1451 2.339 . S
Eu1404 O1452 2.563 . S
Eu1404 O1453 2.419 . S
Eu1404 O1455 2.380 . S
Eu1404 O1456 2.432 . S
Eu1404 C1468 2.848 . S
C1405 C1408 1.429 . S
C1405 C1409 1.411 . S
C1405 N1412 1.377 . S
C1406 C1408 1.420 . S
C1406 C1410 1.423 . S
C1406 C1418 1.392 . S
C1407 C1409 1.420 . S
C1407 C1410 1.351 . S
C1407 H1430 0.931 . S
C1408 C1405 1.429 . S
C1408 C1406 1.420 . S
C1408 N1416 1.362 . S
C1409 C1405 1.411 . S
C1409 C1407 1.420 . S
C1409 C1414 1.395 . S
C1410 C1406 1.423 . S
C1410 C1407 1.351 . S
C1410 H1422 0.930 . S
C1411 C1413 1.400 . S
C1411 C1414 1.386 . S
C1411 H1423 0.930 . S
N1412 C1405 1.377 . S
N1412 C1413 1.321 . S
N1412 Eu1415 2.609 . S
C1413 C1411 1.400 . S
C1413 N1412 1.321 . S
C1413 H1420 0.930 . S
C1414 C1409 1.395 . S
C1414 C1411 1.386 . S
C1414 H1433 0.930 . S
Eu1415 N1412 2.609 . S
Eu1415 N1416 2.657 . S
Eu1415 O1449 2.380 . S
Eu1415 O1450 2.432 . S
Eu1415 O1454 2.558 . S
Eu1415 O1455 2.612 . S
Eu1415 O1457 2.339 . S
Eu1415 O1458 2.563 . S
Eu1415 O1459 2.419 . S
Eu1415 C1479 2.848 . S
N1416 C1408 1.362 . S
N1416 Eu1415 2.657 . S
N1416 C1417 1.334 . S
C1417 N1416 1.334 . S
C1417 C1419 1.413 . S
C1417 H1424 0.929 . S
C1418 C1406 1.392 . S
C1418 C1419 1.367 . S
C1418 H1426 0.930 . S
C1419 C1417 1.413 . S
C1419 C1418 1.367 . S
C1419 H1421 0.930 . S
H1420 C1413 0.930 . S
H1421 C1419 0.930 . S
H1422 C1410 0.930 . S
H1423 C1411 0.930 . S
H1424 C1417 0.929 . S
H1425 C1439 0.930 . S
H1426 C1418 0.930 . S
H1427 C1445 0.930 . S
H1428 C1436 0.929 . S
H1429 C1443 0.930 . S
H1430 C1407 0.931 . S
H1431 C1437 0.930 . S
H1432 C1470 0.930 . S
H1433 C1414 0.930 . S
H1434 C1469 0.931 . S
N1435 Eu1404 2.657 . S
N1435 C1436 1.334 . S
N1435 C1440 1.362 . S
C1436 H1428 0.929 . S
C1436 N1435 1.334 . S
C1436 C1439 1.413 . S
C1437 H1431 0.930 . S
C1437 C1438 1.392 . S
C1437 C1439 1.367 . S
C1438 C1437 1.392 . S
C1438 C1440 1.420 . S
C1438 C1470 1.423 . S
C1439 H1425 0.930 . S
C1439 C1436 1.413 . S
C1439 C1437 1.367 . S
C1440 N1435 1.362 . S
C1440 C1438 1.420 . S
C1440 C1444 1.429 . S
H1441 C1446 0.930 . S
N1442 Eu1404 2.609 . S
N1442 C1444 1.377 . S
N1442 C1445 1.321 . S
C1443 H1429 0.930 . S
C1443 C1445 1.400 . S
C1443 C1446 1.386 . S
C1444 C1440 1.429 . S
C1444 N1442 1.377 . S
C1444 C1447 1.411 . S
C1445 H1427 0.930 . S
C1445 N1442 1.321 . S
C1445 C1443 1.400 . S
C1446 H1441 0.930 . S
C1446 C1443 1.386 . S
C1446 C1447 1.395 . S
C1447 C1444 1.411 . S
C1447 C1446 1.395 . S
C1447 C1469 1.420 . S
O1448 Eu1404 2.558 . S
O1448 C1468 1.257 . S
O1449 Eu1404 2.612 . S
O1449 Eu1415 2.380 . S
O1449 C1460 1.276 . S
O1450 Eu1415 2.432 . S
O1450 C1467 1.264 . S
O1451 Eu1404 2.339 . S
O1451 C1467 1.254 . S
O1452 Eu1404 2.563 . S
O1452 C1460 1.235 . S
O1453 Eu1404 2.419 . S
O1453 C1468 1.249 . S
O1454 Eu1415 2.558 . S
O1454 C1479 1.257 . S
O1455 Eu1404 2.380 . S
O1455 Eu1415 2.612 . S
O1455 C1471 1.276 . S
O1456 Eu1404 2.432 . S
O1456 C1478 1.264 . S
O1457 Eu1415 2.339 . S
O1457 C1478 1.254 . S
O1458 Eu1415 2.563 . S
O1458 C1471 1.235 . S
O1459 Eu1415 2.419 . S
O1459 C1479 1.249 . S
C1460 O1449 1.276 . S
C1460 O1452 1.235 . S
C1461 C1463 1.393 . S
C1461 C1465 1.395 . S
C1461 C1468 1.492 . S
C1462 C1463 1.392 . S
C1462 C1464 1.386 . S
C1463 C1461 1.393 . S
C1463 C1462 1.392 . S
C1463 H1480 0.930 . S
C1464 C1462 1.386 . S
C1464 C1466 1.395 . S
C1464 H1481 0.930 . S
C1465 C1461 1.395 . S
C1465 C1466 1.379 . S
C1465 H1482 0.930 . S
C1466 C1464 1.395 . S
C1466 C1465 1.379 . S
C1466 H1483 0.930 . S
C1467 O1450 1.264 . S
C1467 O1451 1.254 . S
C1468 Eu1404 2.848 . S
C1468 O1448 1.257 . S
C1468 O1453 1.249 . S
C1468 C1461 1.492 . S
C1469 H1434 0.931 . S
C1469 C1447 1.420 . S
C1469 C1470 1.351 . S
C1470 H1432 0.930 . S
C1470 C1438 1.423 . S
C1470 C1469 1.351 . S
C1471 O1455 1.276 . S
C1471 O1458 1.235 . S
C1472 C1473 1.393 . S
C1472 C1476 1.395 . S
C1472 C1479 1.492 . S
C1473 C1472 1.393 . S
C1473 C1474 1.392 . S
C1473 H1484 0.930 . S
C1474 C1473 1.392 . S
C1474 C1475 1.386 . S
C1475 C1474 1.386 . S
C1475 C1477 1.395 . S
C1475 H1485 0.930 . S
C1476 C1472 1.395 . S
C1476 C1477 1.379 . S
C1476 H1486 0.930 . S
C1477 C1475 1.395 . S
C1477 C1476 1.379 . S
C1477 H1487 0.930 . S
C1478 O1456 1.264 . S
C1478 O1457 1.254 . S
C1479 Eu1415 2.848 . S
C1479 O1454 1.257 . S
C1479 O1459 1.249 . S
C1479 C1472 1.492 . S
H1480 C1463 0.930 . S
H1481 C1464 0.930 . S
H1482 C1465 0.930 . S
H1483 C1466 0.930 . S
H1484 C1473 0.930 . S
H1485 C1475 0.930 . S
H1486 C1476 0.930 . S
H1487 C1477 0.930 . S
Eu1488 N1519 2.657 . S
Eu1488 N1526 2.609 . S
Eu1488 O1532 2.558 . S
Eu1488 O1533 2.612 . S
Eu1488 O1535 2.339 . S
Eu1488 O1536 2.563 . S
Eu1488 O1537 2.419 . S
Eu1488 O1539 2.380 . S
Eu1488 O1540 2.432 . S
Eu1488 C1552 2.848 . S
C1489 C1492 1.429 . S
C1489 C1493 1.411 . S
C1489 N1496 1.377 . S
C1490 C1492 1.420 . S
C1490 C1494 1.423 . S
C1490 C1502 1.392 . S
C1491 C1493 1.420 . S
C1491 C1494 1.351 . S
C1491 H1514 0.931 . S
C1492 C1489 1.429 . S
C1492 C1490 1.420 . S
C1492 N1500 1.362 . S
C1493 C1489 1.411 . S
C1493 C1491 1.420 . S
C1493 C1498 1.395 . S
C1494 C1490 1.423 . S
C1494 C1491 1.351 . S
C1494 H1506 0.930 . S
C1495 C1497 1.400 . S
C1495 C1498 1.386 . S
C1495 H1507 0.930 . S
N1496 C1489 1.377 . S
N1496 C1497 1.321 . S
N1496 Eu1499 2.609 . S
C1497 C1495 1.400 . S
C1497 N1496 1.321 . S
C1497 H1504 0.930 . S
C1498 C1493 1.395 . S
C1498 C1495 1.386 . S
C1498 H1517 0.930 . S
Eu1499 N1496 2.609 . S
Eu1499 N1500 2.657 . S
Eu1499 O1533 2.380 . S
Eu1499 O1534 2.432 . S
Eu1499 O1538 2.558 . S
Eu1499 O1539 2.612 . S
Eu1499 O1541 2.339 . S
Eu1499 O1542 2.563 . S
Eu1499 O1543 2.419 . S
Eu1499 C1563 2.848 . S
N1500 C1492 1.362 . S
N1500 Eu1499 2.657 . S
N1500 C1501 1.334 . S
C1501 N1500 1.334 . S
C1501 C1503 1.413 . S
C1501 H1508 0.929 . S
C1502 C1490 1.392 . S
C1502 C1503 1.367 . S
C1502 H1510 0.930 . S
C1503 C1501 1.413 . S
C1503 C1502 1.367 . S
C1503 H1505 0.930 . S
H1504 C1497 0.930 . S
H1505 C1503 0.930 . S
H1506 C1494 0.930 . S
H1507 C1495 0.930 . S
H1508 C1501 0.929 . S
H1509 C1523 0.930 . S
H1510 C1502 0.930 . S
H1511 C1529 0.930 . S
H1512 C1520 0.929 . S
H1513 C1527 0.930 . S
H1514 C1491 0.931 . S
H1515 C1521 0.930 . S
H1516 C1554 0.930 . S
H1517 C1498 0.930 . S
H1518 C1553 0.931 . S
N1519 Eu1488 2.657 . S
N1519 C1520 1.334 . S
N1519 C1524 1.362 . S
C1520 H1512 0.929 . S
C1520 N1519 1.334 . S
C1520 C1523 1.413 . S
C1521 H1515 0.930 . S
C1521 C1522 1.392 . S
C1521 C1523 1.367 . S
C1522 C1521 1.392 . S
C1522 C1524 1.420 . S
C1522 C1554 1.423 . S
C1523 H1509 0.930 . S
C1523 C1520 1.413 . S
C1523 C1521 1.367 . S
C1524 N1519 1.362 . S
C1524 C1522 1.420 . S
C1524 C1528 1.429 . S
H1525 C1530 0.930 . S
N1526 Eu1488 2.609 . S
N1526 C1528 1.377 . S
N1526 C1529 1.321 . S
C1527 H1513 0.930 . S
C1527 C1529 1.400 . S
C1527 C1530 1.386 . S
C1528 C1524 1.429 . S
C1528 N1526 1.377 . S
C1528 C1531 1.411 . S
C1529 H1511 0.930 . S
C1529 N1526 1.321 . S
C1529 C1527 1.400 . S
C1530 H1525 0.930 . S
C1530 C1527 1.386 . S
C1530 C1531 1.395 . S
C1531 C1528 1.411 . S
C1531 C1530 1.395 . S
C1531 C1553 1.420 . S
O1532 Eu1488 2.558 . S
O1532 C1552 1.257 . S
O1533 Eu1488 2.612 . S
O1533 Eu1499 2.380 . S
O1533 C1544 1.276 . S
O1534 Eu1499 2.432 . S
O1534 C1551 1.264 . S
O1535 Eu1488 2.339 . S
O1535 C1551 1.254 . S
O1536 Eu1488 2.563 . S
O1536 C1544 1.235 . S
O1537 Eu1488 2.419 . S
O1537 C1552 1.249 . S
O1538 Eu1499 2.558 . S
O1538 C1563 1.257 . S
O1539 Eu1488 2.380 . S
O1539 Eu1499 2.612 . S
O1539 C1555 1.276 . S
O1540 Eu1488 2.432 . S
O1540 C1562 1.264 . S
O1541 Eu1499 2.339 . S
O1541 C1562 1.254 . S
O1542 Eu1499 2.563 . S
O1542 C1555 1.235 . S
O1543 Eu1499 2.419 . S
O1543 C1563 1.249 . S
C1544 O1533 1.276 . S
C1544 O1536 1.235 . S
C1545 C1547 1.393 . S
C1545 C1549 1.395 . S
C1545 C1552 1.492 . S
C1546 C1547 1.392 . S
C1546 C1548 1.386 . S
C1547 C1545 1.393 . S
C1547 C1546 1.392 . S
C1547 H1564 0.930 . S
C1548 C1546 1.386 . S
C1548 C1550 1.395 . S
C1548 H1565 0.930 . S
C1549 C1545 1.395 . S
C1549 C1550 1.379 . S
C1549 H1566 0.930 . S
C1550 C1548 1.395 . S
C1550 C1549 1.379 . S
C1550 H1567 0.930 . S
C1551 O1534 1.264 . S
C1551 O1535 1.254 . S
C1552 Eu1488 2.848 . S
C1552 O1532 1.257 . S
C1552 O1537 1.249 . S
C1552 C1545 1.492 . S
C1553 H1518 0.931 . S
C1553 C1531 1.420 . S
C1553 C1554 1.351 . S
C1554 H1516 0.930 . S
C1554 C1522 1.423 . S
C1554 C1553 1.351 . S
C1555 O1539 1.276 . S
C1555 O1542 1.235 . S
C1556 C1557 1.393 . S
C1556 C1560 1.395 . S
C1556 C1563 1.492 . S
C1557 C1556 1.393 . S
C1557 C1558 1.392 . S
C1557 H1568 0.930 . S
C1558 C1557 1.392 . S
C1558 C1559 1.386 . S
C1559 C1558 1.386 . S
C1559 C1561 1.395 . S
C1559 H1569 0.930 . S
C1560 C1556 1.395 . S
C1560 C1561 1.379 . S
C1560 H1570 0.930 . S
C1561 C1559 1.395 . S
C1561 C1560 1.379 . S
C1561 H1571 0.930 . S
C1562 O1540 1.264 . S
C1562 O1541 1.254 . S
C1563 Eu1499 2.848 . S
C1563 O1538 1.257 . S
C1563 O1543 1.249 . S
C1563 C1556 1.492 . S
H1564 C1547 0.930 . S
H1565 C1548 0.930 . S
H1566 C1549 0.930 . S
H1567 C1550 0.930 . S
H1568 C1557 0.930 . S
H1569 C1559 0.930 . S
H1570 C1560 0.930 . S
H1571 C1561 0.930 . S
Eu1572 N1603 2.657 1_556 S
Eu1572 N1610 2.609 . S
Eu1572 O1616 2.558 . S
Eu1572 O1617 2.612 1_556 S
Eu1572 O1619 2.339 1_556 S
Eu1572 O1620 2.563 . S
Eu1572 O1621 2.419 1_556 S
Eu1572 O1623 2.380 1_556 S
Eu1572 O1624 2.432 . S
Eu1572 C1636 2.848 . S
C1573 C1576 1.429 . S
C1573 C1577 1.411 . S
C1573 N1580 1.377 1_655 S
C1574 C1576 1.420 . S
C1574 C1578 1.423 . S
C1574 C1586 1.392 1_554 S
C1575 C1577 1.420 . S
C1575 C1578 1.351 . S
C1575 H1598 0.931 . S
C1576 C1573 1.429 . S
C1576 C1574 1.420 . S
C1576 N1584 1.362 1_655 S
C1577 C1573 1.411 . S
C1577 C1575 1.420 . S
C1577 C1582 1.395 . S
C1578 C1574 1.423 . S
C1578 C1575 1.351 . S
C1578 H1590 0.930 . S
C1579 C1581 1.400 . S
C1579 C1582 1.386 1_455 S
C1579 H1591 0.930 . S
N1580 C1573 1.377 1_455 S
N1580 C1581 1.321 . S
N1580 Eu1583 2.609 . S
C1581 C1579 1.400 . S
C1581 N1580 1.321 . S
C1581 H1588 0.930 . S
C1582 C1577 1.395 . S
C1582 C1579 1.386 1_655 S
C1582 H1601 0.930 . S
Eu1583 N1580 2.609 . S
Eu1583 N1584 2.657 . S
Eu1583 O1617 2.380 . S
Eu1583 O1618 2.432 . S
Eu1583 O1622 2.558 . S
Eu1583 O1623 2.612 . S
Eu1583 O1625 2.339 1_554 S
Eu1583 O1626 2.563 . S
Eu1583 O1627 2.419 1_455 S
Eu1583 C1647 2.848 1_455 S
N1584 C1576 1.362 1_455 S
N1584 Eu1583 2.657 . S
N1584 C1585 1.334 1_454 S
C1585 N1584 1.334 1_656 S
C1585 C1587 1.413 . S
C1585 H1592 0.929 1_655 S
C1586 C1574 1.392 1_556 S
C1586 C1587 1.367 . S
C1586 H1594 0.930 . S
C1587 C1585 1.413 . S
C1587 C1586 1.367 . S
C1587 H1589 0.930 . S
H1588 C1581 0.930 . S
H1589 C1587 0.930 . S
H1590 C1578 0.930 . S
H1591 C1579 0.930 . S
H1592 C1585 0.929 1_455 S
H1593 C1607 0.930 . S
H1594 C1586 0.930 . S
H1595 C1613 0.930 . S
H1596 C1604 0.929 . S
H1597 C1611 0.930 . S
H1598 C1575 0.931 . S
H1599 C1605 0.930 . S
H1600 C1638 0.930 . S
H1601 C1582 0.930 . S
H1602 C1637 0.931 . S
N1603 Eu1572 2.657 1_554 S
N1603 C1604 1.334 . S
N1603 C1608 1.390 . S
C1604 H1596 0.929 . S
C1604 N1603 1.334 . S
C1604 C1607 1.413 . S
C1605 H1599 0.930 . S
C1605 C1606 1.392 . S
C1605 C1607 1.367 . S
C1606 C1605 1.392 . S
C1606 C1608 1.424 . S
C1606 C1638 1.423 1_554 S
C1607 H1593 0.930 . S
C1607 C1604 1.413 . S
C1607 C1605 1.367 . S
C1608 N1603 1.390 . S
C1608 C1606 1.424 . S
C1608 C1612 1.395 1_554 S
H1609 C1614 0.930 . S
N1610 Eu1572 2.609 . S
N1610 C1612 1.377 . S
N1610 C1613 1.321 . S
C1611 H1597 0.930 . S
C1611 C1613 1.400 . S
C1611 C1614 1.386 . S
C1612 C1608 1.395 1_556 S
C1612 N1610 1.377 . S
C1612 C1615 1.411 . S
C1613 H1595 0.930 . S
C1613 N1610 1.321 . S
C1613 C1611 1.400 . S
C1614 H1609 0.930 . S
C1614 C1611 1.386 . S
C1614 C1615 1.395 . S
C1615 C1612 1.411 . S
C1615 C1614 1.395 . S
C1615 C1637 1.420 . S
O1616 Eu1572 2.558 . S
O1616 C1636 1.257 . S
O1617 Eu1572 2.612 1_554 S
O1617 Eu1583 2.380 . S
O1617 C1628 1.276 . S
O1618 Eu1583 2.432 . S
O1618 C1635 1.264 . S
O1619 Eu1572 2.339 1_554 S
O1619 C1635 1.254 . S
O1620 Eu1572 2.563 . S
O1620 C1628 1.235 1_556 S
O1621 Eu1572 2.419 1_554 S
O1621 C1636 1.249 1_554 S
O1622 Eu1583 2.558 . S
O1622 C1647 1.257 1_455 S
O1623 Eu1572 2.380 1_554 S
O1623 Eu1583 2.612 . S
O1623 C1639 1.276 . S
O1624 Eu1572 2.432 . S
O1624 C1646 1.264 . S
O1625 Eu1583 2.339 1_556 S
O1625 C1646 1.254 . S
O1626 Eu1583 2.563 . S
O1626 C1639 1.235 . S
O1627 Eu1583 2.419 1_655 S
O1627 C1647 1.249 . S
C1628 O1617 1.276 . S
C1628 O1620 1.235 1_554 S
C1629 C1631 1.393 . S
C1629 C1633 1.395 . S
C1629 C1636 1.492 . S
C1630 C1631 1.392 . S
C1630 C1632 1.386 . S
C1631 C1629 1.393 . S
C1631 C1630 1.392 . S
C1631 H1648 0.930 1_556 S
C1632 C1630 1.386 . S
C1632 C1634 1.395 . S
C1632 H1649 0.930 . S
C1633 C1629 1.395 . S
C1633 C1634 1.379 . S
C1633 H1650 0.930 . S
C1634 C1632 1.395 . S
C1634 C1633 1.379 . S
C1634 H1651 0.930 . S
C1635 O1618 1.264 . S
C1635 O1619 1.254 . S
C1636 Eu1572 2.848 . S
C1636 O1616 1.257 . S
C1636 O1621 1.249 1_556 S
C1636 C1629 1.492 . S
C1637 H1602 0.931 . S
C1637 C1615 1.420 . S
C1637 C1638 1.351 . S
C1638 H1600 0.930 . S
C1638 C1606 1.423 1_556 S
C1638 C1637 1.351 . S
C1639 O1623 1.276 . S
C1639 O1626 1.235 . S
C1640 C1641 1.393 . S
C1640 C1644 1.395 . S
C1640 C1647 1.492 . S
C1641 C1640 1.393 . S
C1641 C1642 1.392 . S
C1641 H1652 0.930 . S
C1642 C1641 1.392 . S
C1642 C1643 1.386 . S
C1643 C1642 1.386 . S
C1643 C1645 1.395 . S
C1643 H1653 0.930 . S
C1644 C1640 1.395 . S
C1644 C1645 1.379 . S
C1644 H1654 0.930 . S
C1645 C1643 1.395 . S
C1645 C1644 1.379 . S
C1645 H1655 0.930 . S
C1646 O1624 1.264 . S
C1646 O1625 1.254 . S
C1647 Eu1583 2.848 1_655 S
C1647 O1622 1.257 1_655 S
C1647 O1627 1.249 . S
C1647 C1640 1.492 . S
H1648 C1631 0.930 1_554 S
H1649 C1632 0.930 . S
H1650 C1633 0.930 . S
H1651 C1634 0.930 . S
H1652 C1641 0.930 . S
H1653 C1643 0.930 . S
H1654 C1644 0.930 . S
H1655 C1645 0.930 . S
H1656 C1662 0.899 1_655 S
H1657 C1665 0.930 . S
H1658 C1666 0.930 . S
H1659 C1667 0.930 . S
H1660 C1670 0.930 . S
H1661 C1671 0.922 1_655 S
C1662 H1656 0.899 1_455 S
C1662 C1663 1.355 . S
C1662 C1664 1.415 . S
C1663 C1662 1.355 . S
C1663 C1665 1.419 1_556 S
C1664 C1662 1.415 . S
C1664 C1669 1.425 1_556 S
C1664 C1671 1.409 . S
C1665 H1657 0.930 . S
C1665 C1663 1.419 1_554 S
C1665 C1666 1.362 . S
C1666 H1658 0.930 . S
C1666 C1665 1.362 . S
C1666 C1669 1.409 . S
C1667 H1659 0.930 . S
C1667 C1668 1.355 . S
C1667 C1669 1.415 . S
C1668 C1667 1.355 . S
C1668 C1670 1.419 1_554 S
C1669 C1664 1.425 1_554 S
C1669 C1666 1.409 . S
C1669 C1667 1.415 . S
C1670 H1660 0.930 . S
C1670 C1668 1.419 1_556 S
C1670 C1671 1.362 . S
C1671 H1661 0.922 1_455 S
C1671 C1664 1.409 . S
C1671 C1670 1.362 . S
H1672 C1678 0.930 . S
H1673 C1681 0.930 . S
H1674 C1682 0.930 . S
H1675 C1683 0.930 . S
H1676 C1686 0.930 . S
H1677 C1687 0.930 . S
C1678 H1672 0.930 . S
C1678 C1679 1.355 . S
C1678 C1680 1.415 . S
C1679 C1678 1.355 . S
C1679 C1681 1.419 . S
C1680 C1678 1.415 . S
C1680 C1685 1.425 . S
C1680 C1687 1.409 . S
C1681 H1673 0.930 . S
C1681 C1679 1.419 . S
C1681 C1682 1.362 . S
C1682 H1674 0.930 . S
C1682 C1681 1.362 . S
C1682 C1685 1.409 . S
C1683 H1675 0.930 . S
C1683 C1684 1.355 . S
C1683 C1685 1.415 . S
C1684 C1683 1.355 . S
C1684 C1686 1.419 . S
C1685 C1680 1.425 . S
C1685 C1682 1.409 . S
C1685 C1683 1.415 . S
C1686 H1676 0.930 . S
C1686 C1684 1.419 . S
C1686 C1687 1.362 . S
C1687 H1677 0.930 . S
C1687 C1680 1.409 . S
C1687 C1686 1.362 . S
H1688 C1694 0.930 . S
H1689 C1697 0.930 . S
H1690 C1698 0.930 . S
H1691 C1699 0.930 . S
H1692 C1702 0.930 . S
H1693 C1703 0.930 . S
C1694 H1688 0.930 . S
C1694 C1695 1.355 . S
C1694 C1696 1.415 . S
C1695 C1694 1.355 . S
C1695 C1697 1.419 . S
C1696 C1694 1.415 . S
C1696 C1701 1.425 . S
C1696 C1703 1.409 . S
C1697 H1689 0.930 . S
C1697 C1695 1.419 . S
C1697 C1698 1.362 . S
C1698 H1690 0.930 . S
C1698 C1697 1.362 . S
C1698 C1701 1.409 . S
C1699 H1691 0.930 . S
C1699 C1700 1.355 . S
C1699 C1701 1.415 . S
C1700 C1699 1.355 . S
C1700 C1702 1.419 . S
C1701 C1696 1.425 . S
C1701 C1698 1.409 . S
C1701 C1699 1.415 . S
C1702 H1692 0.930 . S
C1702 C1700 1.419 . S
C1702 C1703 1.362 . S
C1703 H1693 0.930 . S
C1703 C1696 1.409 . S
C1703 C1702 1.362 . S
H1704 C1710 0.930 . S
H1705 C1713 0.930 . S
H1706 C1714 0.930 . S
H1707 C1715 0.930 . S
H1708 C1718 0.930 . S
H1709 C1719 0.930 . S
C1710 H1704 0.930 . S
C1710 C1711 1.355 . S
C1710 C1712 1.415 . S
C1711 C1710 1.355 . S
C1711 C1713 1.419 . S
C1712 C1710 1.415 . S
C1712 C1717 1.425 . S
C1712 C1719 1.409 . S
C1713 H1705 0.930 . S
C1713 C1711 1.419 . S
C1713 C1714 1.362 . S
C1714 H1706 0.930 . S
C1714 C1713 1.362 . S
C1714 C1717 1.409 . S
C1715 H1707 0.930 . S
C1715 C1716 1.355 . S
C1715 C1717 1.415 . S
C1716 C1715 1.355 . S
C1716 C1718 1.419 . S
C1717 C1712 1.425 . S
C1717 C1714 1.409 . S
C1717 C1715 1.415 . S
C1718 H1708 0.930 . S
C1718 C1716 1.419 . S
C1718 C1719 1.362 . S
C1719 H1709 0.930 . S
C1719 C1712 1.409 . S
C1719 C1718 1.362 . S
H1720 C1726 0.930 . S
H1721 C1729 0.930 . S
H1722 C1730 0.930 . S
H1723 C1731 0.930 . S
H1724 C1734 0.930 . S
H1725 C1735 0.930 . S
C1726 H1720 0.930 . S
C1726 C1727 1.355 . S
C1726 C1728 1.415 . S
C1727 C1726 1.355 . S
C1727 C1729 1.419 1_455 S
C1728 C1726 1.415 . S
C1728 C1733 1.425 . S
C1728 C1735 1.409 . S
C1729 H1721 0.930 . S
C1729 C1727 1.419 1_655 S
C1729 C1730 1.362 . S
C1730 H1722 0.930 . S
C1730 C1729 1.362 . S
C1730 C1733 1.409 1_655 S
C1731 H1723 0.930 . S
C1731 C1732 1.355 . S
C1731 C1733 1.415 . S
C1732 C1731 1.355 . S
C1732 C1734 1.419 . S
C1733 C1728 1.425 . S
C1733 C1730 1.409 1_455 S
C1733 C1731 1.415 . S
C1734 H1724 0.930 . S
C1734 C1732 1.419 . S
C1734 C1735 1.362 . S
C1735 H1725 0.930 . S
C1735 C1728 1.409 . S
C1735 C1734 1.362 . S
H1736 C1742 0.930 . S
H1737 C1745 0.930 . S
H1738 C1746 0.930 . S
H1739 C1747 0.930 . S
H1740 C1750 0.930 . S
H1741 C1751 0.930 . S
C1742 H1736 0.930 . S
C1742 C1743 1.355 . S
C1742 C1744 1.415 . S
C1743 C1742 1.355 . S
C1743 C1745 1.419 . S
C1744 C1742 1.415 . S
C1744 C1749 1.425 . S
C1744 C1751 1.409 . S
C1745 H1737 0.930 . S
C1745 C1743 1.419 . S
C1745 C1746 1.362 . S
C1746 H1738 0.930 . S
C1746 C1745 1.362 . S
C1746 C1749 1.409 . S
C1747 H1739 0.930 . S
C1747 C1748 1.355 . S
C1747 C1749 1.415 . S
C1748 C1747 1.355 . S
C1748 C1750 1.419 . S
C1749 C1744 1.425 . S
C1749 C1746 1.409 . S
C1749 C1747 1.415 . S
C1750 H1740 0.930 . S
C1750 C1748 1.419 . S
C1750 C1751 1.362 . S
C1751 H1741 0.930 . S
C1751 C1744 1.409 . S
C1751 C1750 1.362 . S
H1752 C1758 0.930 . S
H1753 C1761 0.930 . S
H1754 C1762 0.930 . S
H1755 C1763 0.930 . S
H1756 C1766 0.930 . S
H1757 C1767 0.930 . S
C1758 H1752 0.930 . S
C1758 C1759 1.355 . S
C1758 C1760 1.415 . S
C1759 C1758 1.355 . S
C1759 C1761 1.419 . S
C1760 C1758 1.415 . S
C1760 C1765 1.425 . S
C1760 C1767 1.409 . S
C1761 H1753 0.930 . S
C1761 C1759 1.419 . S
C1761 C1762 1.362 . S
C1762 H1754 0.930 . S
C1762 C1761 1.362 . S
C1762 C1765 1.409 . S
C1763 H1755 0.930 . S
C1763 C1764 1.355 . S
C1763 C1765 1.415 . S
C1764 C1763 1.355 . S
C1764 C1766 1.419 . S
C1765 C1760 1.425 . S
C1765 C1762 1.409 . S
C1765 C1763 1.415 . S
C1766 H1756 0.930 . S
C1766 C1764 1.419 . S
C1766 C1767 1.362 . S
C1767 H1757 0.930 . S
C1767 C1760 1.409 . S
C1767 C1766 1.362 . S
H1768 C1774 0.930 . S
H1769 C1777 0.930 . S
H1770 C1778 0.930 . S
H1771 C1779 0.930 . S
H1772 C1782 0.930 . S
H1773 C1783 0.930 . S
C1774 H1768 0.930 . S
C1774 C1775 1.355 . S
C1774 C1776 1.415 . S
C1775 C1774 1.355 . S
C1775 C1777 1.419 . S
C1776 C1774 1.415 . S
C1776 C1781 1.425 . S
C1776 C1783 1.409 . S
C1777 H1769 0.930 . S
C1777 C1775 1.419 . S
C1777 C1778 1.362 . S
C1778 H1770 0.930 . S
C1778 C1777 1.362 . S
C1778 C1781 1.409 . S
C1779 H1771 0.930 . S
C1779 C1780 1.355 . S
C1779 C1781 1.415 . S
C1780 C1779 1.355 . S
C1780 C1782 1.419 . S
C1781 C1776 1.425 . S
C1781 C1778 1.409 . S
C1781 C1779 1.415 . S
C1782 H1772 0.930 . S
C1782 C1780 1.419 . S
C1782 C1783 1.362 . S
C1783 H1773 0.930 . S
C1783 C1776 1.409 . S
C1783 C1782 1.362 . S
H1784 C1790 0.930 . S
H1785 C1793 0.930 . S
H1786 C1794 0.930 . S
H1787 C1795 0.930 . S
H1788 C1798 0.930 . S
H1789 C1799 0.930 . S
C1790 H1784 0.930 . S
C1790 C1791 1.355 1_455 S
C1790 C1792 1.415 . S
C1791 C1790 1.355 1_655 S
C1791 C1793 1.419 . S
C1792 C1790 1.415 . S
C1792 C1797 1.425 . S
C1792 C1799 1.409 . S
C1793 H1785 0.930 . S
C1793 C1791 1.419 . S
C1793 C1794 1.362 . S
C1794 H1786 0.930 . S
C1794 C1793 1.362 . S
C1794 C1797 1.409 1_655 S
C1795 H1787 0.930 . S
C1795 C1796 1.355 . S
C1795 C1797 1.415 . S
C1796 C1795 1.355 . S
C1796 C1798 1.419 . S
C1797 C1792 1.425 . S
C1797 C1794 1.409 1_455 S
C1797 C1795 1.415 . S
C1798 H1788 0.930 . S
C1798 C1796 1.419 . S
C1798 C1799 1.362 . S
C1799 H1789 0.930 . S
C1799 C1792 1.409 . S
C1799 C1798 1.362 . S
H1800 C1806 0.930 . S
H1801 C1809 0.930 . S
H1802 C1810 0.930 . S
H1803 C1811 0.930 . S
H1804 C1814 0.930 . S
H1805 C1815 0.930 . S
C1806 H1800 0.930 . S
C1806 C1807 1.355 . S
C1806 C1808 1.415 . S
C1807 C1806 1.355 . S
C1807 C1809 1.419 . S
C1808 C1806 1.415 . S
C1808 C1813 1.425 . S
C1808 C1815 1.409 . S
C1809 H1801 0.930 . S
C1809 C1807 1.419 . S
C1809 C1810 1.362 . S
C1810 H1802 0.930 . S
C1810 C1809 1.362 . S
C1810 C1813 1.409 . S
C1811 H1803 0.930 . S
C1811 C1812 1.355 . S
C1811 C1813 1.415 . S
C1812 C1811 1.355 . S
C1812 C1814 1.419 . S
C1813 C1808 1.425 . S
C1813 C1810 1.409 . S
C1813 C1811 1.415 . S
C1814 H1804 0.930 . S
C1814 C1812 1.419 . S
C1814 C1815 1.362 . S
C1815 H1805 0.930 . S
C1815 C1808 1.409 . S
C1815 C1814 1.362 . S
H1816 C1822 0.930 . S
H1817 C1825 0.930 . S
H1818 C1826 0.930 . S
H1819 C1827 0.930 . S
H1820 C1830 0.930 . S
H1821 C1831 0.930 . S
C1822 H1816 0.930 . S
C1822 C1823 1.355 . S
C1822 C1824 1.415 . S
C1823 C1822 1.355 . S
C1823 C1825 1.419 . S
C1824 C1822 1.415 . S
C1824 C1829 1.425 . S
C1824 C1831 1.409 . S
C1825 H1817 0.930 . S
C1825 C1823 1.419 . S
C1825 C1826 1.362 . S
C1826 H1818 0.930 . S
C1826 C1825 1.362 . S
C1826 C1829 1.409 . S
C1827 H1819 0.930 . S
C1827 C1828 1.355 . S
C1827 C1829 1.415 . S
C1828 C1827 1.355 . S
C1828 C1830 1.419 . S
C1829 C1824 1.425 . S
C1829 C1826 1.409 . S
C1829 C1827 1.415 . S
C1830 H1820 0.930 . S
C1830 C1828 1.419 . S
C1830 C1831 1.362 . S
C1831 H1821 0.930 . S
C1831 C1824 1.409 . S
C1831 C1830 1.362 . S
H1832 C1838 0.930 . S
H1833 C1841 0.930 . S
H1834 C1842 0.930 . S
H1835 C1843 0.930 . S
H1836 C1846 0.930 . S
H1837 C1847 0.930 . S
C1838 H1832 0.930 . S
C1838 C1839 1.355 . S
C1838 C1840 1.415 . S
C1839 C1838 1.355 . S
C1839 C1841 1.419 . S
C1840 C1838 1.415 . S
C1840 C1845 1.425 . S
C1840 C1847 1.409 . S
C1841 H1833 0.930 . S
C1841 C1839 1.419 . S
C1841 C1842 1.362 . S
C1842 H1834 0.930 . S
C1842 C1841 1.362 . S
C1842 C1845 1.409 . S
C1843 H1835 0.930 . S
C1843 C1844 1.355 . S
C1843 C1845 1.415 . S
C1844 C1843 1.355 . S
C1844 C1846 1.419 . S
C1845 C1840 1.425 . S
C1845 C1842 1.409 . S
C1845 C1843 1.415 . S
C1846 H1836 0.930 . S
C1846 C1844 1.419 . S
C1846 C1847 1.362 . S
C1847 H1837 0.930 . S
C1847 C1840 1.409 . S
C1847 C1846 1.362 . S
H1848 C1854 0.930 . S
H1849 C1857 0.930 . S
H1850 C1858 0.930 . S
H1851 C1859 0.930 . S
H1852 C1862 0.930 . S
H1853 C1863 0.930 . S
C1854 H1848 0.930 . S
C1854 C1855 1.355 1_455 S
C1854 C1856 1.415 . S
C1855 C1854 1.355 1_655 S
C1855 C1857 1.419 . S
C1856 C1854 1.415 . S
C1856 C1861 1.425 . S
C1856 C1863 1.409 . S
C1857 H1849 0.930 . S
C1857 C1855 1.419 . S
C1857 C1858 1.362 . S
C1858 H1850 0.930 . S
C1858 C1857 1.362 . S
C1858 C1861 1.409 1_655 S
C1859 H1851 0.930 . S
C1859 C1860 1.355 . S
C1859 C1861 1.415 . S
C1860 C1859 1.355 . S
C1860 C1862 1.419 . S
C1861 C1856 1.425 . S
C1861 C1858 1.409 1_455 S
C1861 C1859 1.415 . S
C1862 H1852 0.930 . S
C1862 C1860 1.419 . S
C1862 C1863 1.362 . S
C1863 H1853 0.930 . S
C1863 C1856 1.409 . S
C1863 C1862 1.362 . S
H1864 C1870 0.930 . S
H1865 C1873 0.930 . S
H1866 C1874 0.930 . S
H1867 C1875 0.930 . S
H1868 C1878 0.930 . S
H1869 C1879 0.930 . S
C1870 H1864 0.930 . S
C1870 C1871 1.355 . S
C1870 C1872 1.415 . S
C1871 C1870 1.355 . S
C1871 C1873 1.419 . S
C1872 C1870 1.415 . S
C1872 C1877 1.425 . S
C1872 C1879 1.409 . S
C1873 H1865 0.930 . S
C1873 C1871 1.419 . S
C1873 C1874 1.362 . S
C1874 H1866 0.930 . S
C1874 C1873 1.362 . S
C1874 C1877 1.409 . S
C1875 H1867 0.930 . S
C1875 C1876 1.355 . S
C1875 C1877 1.415 . S
C1876 C1875 1.355 . S
C1876 C1878 1.419 . S
C1877 C1872 1.425 . S
C1877 C1874 1.409 . S
C1877 C1875 1.415 . S
C1878 H1868 0.930 . S
C1878 C1876 1.419 . S
C1878 C1879 1.362 . S
C1879 H1869 0.930 . S
C1879 C1872 1.409 . S
C1879 C1878 1.362 . S
H1880 C1886 0.930 . S
H1881 C1889 0.930 . S
H1882 C1890 0.930 . S
H1883 C1891 0.930 . S
H1884 C1894 0.930 . S
H1885 C1895 0.930 . S
C1886 H1880 0.930 . S
C1886 C1887 1.355 . S
C1886 C1888 1.415 . S
C1887 C1886 1.355 . S
C1887 C1889 1.419 . S
C1888 C1886 1.415 . S
C1888 C1893 1.425 . S
C1888 C1895 1.409 . S
C1889 H1881 0.930 . S
C1889 C1887 1.419 . S
C1889 C1890 1.362 . S
C1890 H1882 0.930 . S
C1890 C1889 1.362 . S
C1890 C1893 1.409 . S
C1891 H1883 0.930 . S
C1891 C1892 1.355 . S
C1891 C1893 1.415 . S
C1892 C1891 1.355 . S
C1892 C1894 1.419 . S
C1893 C1888 1.425 . S
C1893 C1890 1.409 . S
C1893 C1891 1.415 . S
C1894 H1884 0.930 . S
C1894 C1892 1.419 . S
C1894 C1895 1.362 . S
C1895 H1885 0.930 . S
C1895 C1888 1.409 . S
C1895 C1894 1.362 . S
H1896 C1902 0.930 . S
H1897 C1905 0.930 . S
H1898 C1906 0.930 . S
H1899 C1907 0.930 . S
H1900 C1910 0.930 . S
H1901 C1911 0.930 . S
C1902 H1896 0.930 . S
C1902 C1903 1.355 . S
C1902 C1904 1.415 . S
C1903 C1902 1.355 . S
C1903 C1905 1.419 . S
C1904 C1902 1.415 . S
C1904 C1909 1.425 . S
C1904 C1911 1.409 . S
C1905 H1897 0.930 . S
C1905 C1903 1.419 . S
C1905 C1906 1.362 . S
C1906 H1898 0.930 . S
C1906 C1905 1.362 . S
C1906 C1909 1.409 . S
C1907 H1899 0.930 . S
C1907 C1908 1.355 . S
C1907 C1909 1.415 . S
C1908 C1907 1.355 . S
C1908 C1910 1.419 . S
C1909 C1904 1.425 . S
C1909 C1906 1.409 . S
C1909 C1907 1.415 . S
C1910 H1900 0.930 . S
C1910 C1908 1.419 . S
C1910 C1911 1.362 . S
C1911 H1901 0.930 . S
C1911 C1904 1.409 . S
C1911 C1910 1.362 . S
H1912 C1918 0.930 1_546 S
H1913 C1921 0.930 . S
H1914 C1922 0.930 . S
H1915 C1923 0.930 . S
H1916 C1926 0.930 1_556 S
H1917 C1927 0.930 . S
C1918 H1912 0.930 1_564 S
C1918 C1919 1.355 . S
C1918 C1920 1.420 . S
C1919 C1918 1.355 . S
C1919 C1921 1.419 . S
C1920 C1918 1.420 . S
C1920 C1925 1.433 . S
C1920 C1927 1.396 1_564 S
C1921 H1913 0.930 . S
C1921 C1919 1.419 . S
C1921 C1922 1.362 . S
C1922 H1914 0.930 . S
C1922 C1921 1.362 . S
C1922 C1925 1.409 . S
C1923 H1915 0.930 . S
C1923 C1924 1.355 1_565 S
C1923 C1925 1.415 . S
C1924 C1923 1.355 1_545 S
C1924 C1926 1.419 . S
C1925 C1920 1.433 . S
C1925 C1922 1.409 . S
C1925 C1923 1.415 . S
C1926 H1916 0.930 1_554 S
C1926 C1924 1.419 . S
C1926 C1927 1.362 1_554 S
C1927 H1917 0.930 . S
C1927 C1920 1.396 1_546 S
C1927 C1926 1.362 1_556 S
H1928 C1934 0.930 . S
H1929 C1937 0.930 . S
H1930 C1938 0.930 . S
H1931 C1939 0.930 . S
H1932 C1942 0.930 . S
H1933 C1943 0.930 . S
C1934 H1928 0.930 . S
C1934 C1935 1.355 . S
C1934 C1936 1.415 . S
C1935 C1934 1.355 . S
C1935 C1937 1.419 1_556 S
C1936 C1934 1.415 . S
C1936 C1941 1.425 1_556 S
C1936 C1943 1.409 . S
C1937 H1929 0.930 . S
C1937 C1935 1.419 1_554 S
C1937 C1938 1.362 . S
C1938 H1930 0.930 . S
C1938 C1937 1.362 . S
C1938 C1941 1.409 . S
C1939 H1931 0.930 . S
C1939 C1940 1.355 1_554 S
C1939 C1941 1.415 . S
C1940 C1939 1.355 1_556 S
C1940 C1942 1.419 . S
C1941 C1936 1.425 1_554 S
C1941 C1938 1.409 . S
C1941 C1939 1.415 . S
C1942 H1932 0.930 . S
C1942 C1940 1.419 . S
C1942 C1943 1.362 . S
C1943 H1933 0.930 . S
C1943 C1936 1.409 . S
C1943 C1942 1.362 . S
H1944 C1950 0.930 . S
H1945 C1953 0.930 . S
H1946 C1954 0.930 . S
H1947 C1955 0.930 . S
H1948 C1958 0.930 . S
H1949 C1959 0.930 . S
C1950 H1944 0.930 . S
C1950 C1951 1.355 . S
C1950 C1952 1.415 . S
C1951 C1950 1.355 . S
C1951 C1953 1.419 . S
C1952 C1950 1.415 . S
C1952 C1957 1.425 . S
C1952 C1959 1.409 . S
C1953 H1945 0.930 . S
C1953 C1951 1.419 . S
C1953 C1954 1.362 . S
C1954 H1946 0.930 . S
C1954 C1953 1.362 . S
C1954 C1957 1.409 . S
C1955 H1947 0.930 . S
C1955 C1956 1.355 . S
C1955 C1957 1.415 . S
C1956 C1955 1.355 . S
C1956 C1958 1.419 . S
C1957 C1952 1.425 . S
C1957 C1954 1.409 . S
C1957 C1955 1.415 . S
C1958 H1948 0.930 . S
C1958 C1956 1.419 . S
C1958 C1959 1.362 . S
C1959 H1949 0.930 . S
C1959 C1952 1.409 . S
C1959 C1958 1.362 . S
H1960 C1966 0.930 . S
H1961 C1969 0.930 . S
H1962 C1970 0.930 . S
H1963 C1971 0.930 . S
H1964 C1974 0.930 1_455 S
H1965 C1975 0.930 . S
C1966 H1960 0.930 . S
C1966 C1967 1.355 . S
C1966 C1968 1.415 . S
C1967 C1966 1.355 . S
C1967 C1969 1.419 . S
C1968 C1966 1.415 . S
C1968 C1973 1.425 . S
C1968 C1975 1.409 . S
C1969 H1961 0.930 . S
C1969 C1967 1.419 . S
C1969 C1970 1.362 . S
C1970 H1962 0.930 . S
C1970 C1969 1.362 . S
C1970 C1973 1.409 . S
C1971 H1963 0.930 . S
C1971 C1972 1.355 1_655 S
C1971 C1973 1.415 . S
C1972 C1971 1.355 1_455 S
C1972 C1974 1.419 1_455 S
C1973 C1968 1.425 . S
C1973 C1970 1.409 . S
C1973 C1971 1.415 . S
C1974 H1964 0.930 1_655 S
C1974 C1972 1.419 1_655 S
C1974 C1975 1.362 . S
C1975 H1965 0.930 . S
C1975 C1968 1.409 . S
C1975 C1974 1.362 . S
H1976 C1982 0.930 . S
H1977 C1985 0.930 . S
H1978 C1986 0.930 . S
H1979 C1987 0.930 . S
H1980 C1990 0.930 . S
H1981 C1991 0.930 . S
C1982 H1976 0.930 . S
C1982 C1983 1.355 . S
C1982 C1984 1.415 . S
C1983 C1982 1.355 . S
C1983 C1985 1.419 . S
C1984 C1982 1.415 . S
C1984 C1989 1.425 . S
C1984 C1991 1.409 . S
C1985 H1977 0.930 . S
C1985 C1983 1.419 . S
C1985 C1986 1.362 . S
C1986 H1978 0.930 . S
C1986 C1985 1.362 . S
C1986 C1989 1.409 . S
C1987 H1979 0.930 . S
C1987 C1988 1.355 . S
C1987 C1989 1.415 . S
C1988 C1987 1.355 . S
C1988 C1990 1.419 . S
C1989 C1984 1.425 . S
C1989 C1986 1.409 . S
C1989 C1987 1.415 . S
C1990 H1980 0.930 . S
C1990 C1988 1.419 . S
C1990 C1991 1.362 . S
C1991 H1981 0.930 . S
C1991 C1984 1.409 . S
C1991 C1990 1.362 . S
H1992 C1998 0.930 . S
H1993 C2001 0.930 . S
H1994 C2002 0.930 . S
H1995 C2003 0.930 . S
H1996 C2006 0.930 . S
H1997 C2007 0.930 . S
C1998 H1992 0.930 . S
C1998 C1999 1.355 . S
C1998 C2000 1.415 . S
C1999 C1998 1.355 . S
C1999 C2001 1.419 . S
C2000 C1998 1.415 . S
C2000 C2005 1.425 . S
C2000 C2007 1.409 . S
C2001 H1993 0.930 . S
C2001 C1999 1.419 . S
C2001 C2002 1.362 . S
C2002 H1994 0.930 . S
C2002 C2001 1.362 . S
C2002 C2005 1.409 . S
C2003 H1995 0.930 . S
C2003 C2004 1.355 . S
C2003 C2005 1.415 . S
C2004 C2003 1.355 . S
C2004 C2006 1.419 . S
C2005 C2000 1.425 . S
C2005 C2002 1.409 . S
C2005 C2003 1.415 . S
C2006 H1996 0.930 . S
C2006 C2004 1.419 . S
C2006 C2007 1.362 . S
C2007 H1997 0.930 . S
C2007 C2000 1.409 . S
C2007 C2006 1.362 . S
H2008 C2014 0.930 . S
H2009 C2017 0.930 . S
H2010 C2018 0.930 . S
H2011 C2019 0.930 . S
H2012 C2022 0.930 . S
H2013 C2023 0.930 . S
C2014 H2008 0.930 . S
C2014 C2015 1.355 . S
C2014 C2016 1.415 . S
C2015 C2014 1.355 . S
C2015 C2017 1.419 . S
C2016 C2014 1.415 . S
C2016 C2021 1.425 . S
C2016 C2023 1.409 . S
C2017 H2009 0.930 . S
C2017 C2015 1.419 . S
C2017 C2018 1.362 . S
C2018 H2010 0.930 . S
C2018 C2017 1.362 . S
C2018 C2021 1.409 . S
C2019 H2011 0.930 . S
C2019 C2020 1.355 . S
C2019 C2021 1.415 . S
C2020 C2019 1.355 . S
C2020 C2022 1.419 . S
C2021 C2016 1.425 . S
C2021 C2018 1.409 . S
C2021 C2019 1.415 . S
C2022 H2012 0.930 . S
C2022 C2020 1.419 . S
C2022 C2023 1.362 . S
C2023 H2013 0.930 . S
C2023 C2016 1.409 . S
C2023 C2022 1.362 . S
H2024 C2030 0.930 . S
H2025 C2033 0.930 . S
H2026 C2034 0.930 . S
H2027 C2035 0.930 . S
H2028 C2038 0.930 . S
H2029 C2039 0.930 . S
C2030 H2024 0.930 . S
C2030 C2031 1.355 . S
C2030 C2032 1.415 . S
C2031 C2030 1.355 . S
C2031 C2033 1.419 . S
C2032 C2030 1.415 . S
C2032 C2037 1.425 . S
C2032 C2039 1.409 . S
C2033 H2025 0.930 . S
C2033 C2031 1.419 . S
C2033 C2034 1.362 . S
C2034 H2026 0.930 . S
C2034 C2033 1.362 . S
C2034 C2037 1.409 . S
C2035 H2027 0.930 . S
C2035 C2036 1.355 . S
C2035 C2037 1.415 . S
C2036 C2035 1.355 . S
C2036 C2038 1.419 . S
C2037 C2032 1.425 . S
C2037 C2034 1.409 . S
C2037 C2035 1.415 . S
C2038 H2028 0.930 . S
C2038 C2036 1.419 . S
C2038 C2039 1.362 . S
C2039 H2029 0.930 . S
C2039 C2032 1.409 . S
C2039 C2038 1.362 . S
H2040 C2046 0.930 . S
H2041 C2049 0.930 . S
H2042 C2050 0.930 . S
H2043 C2051 0.930 . S
H2044 C2054 0.930 . S
H2045 C2055 0.930 . S
C2046 H2040 0.930 . S
C2046 C2047 1.355 . S
C2046 C2048 1.415 . S
C2047 C2046 1.355 . S
C2047 C2049 1.419 . S
C2048 C2046 1.415 . S
C2048 C2053 1.425 . S
C2048 C2055 1.409 . S
C2049 H2041 0.930 . S
C2049 C2047 1.419 . S
C2049 C2050 1.362 . S
C2050 H2042 0.930 . S
C2050 C2049 1.362 . S
C2050 C2053 1.409 . S
C2051 H2043 0.930 . S
C2051 C2052 1.355 . S
C2051 C2053 1.415 . S
C2052 C2051 1.355 . S
C2052 C2054 1.419 . S
C2053 C2048 1.425 . S
C2053 C2050 1.409 . S
C2053 C2051 1.415 . S
C2054 H2044 0.930 . S
C2054 C2052 1.419 . S
C2054 C2055 1.362 . S
C2055 H2045 0.930 . S
C2055 C2048 1.409 . S
C2055 C2054 1.362 . S
H2056 C2062 0.930 . S
H2057 C2065 0.930 . S
H2058 C2066 0.930 . S
H2059 C2067 0.930 . S
H2060 C2070 0.930 . S
H2061 C2071 0.930 . S
C2062 H2056 0.930 . S
C2062 C2063 1.355 . S
C2062 C2064 1.415 . S
C2063 C2062 1.355 . S
C2063 C2065 1.419 . S
C2064 C2062 1.415 . S
C2064 C2069 1.425 . S
C2064 C2071 1.409 . S
C2065 H2057 0.930 . S
C2065 C2063 1.419 . S
C2065 C2066 1.362 . S
C2066 H2058 0.930 . S
C2066 C2065 1.362 . S
C2066 C2069 1.409 . S
C2067 H2059 0.930 . S
C2067 C2068 1.355 . S
C2067 C2069 1.415 . S
C2068 C2067 1.355 . S
C2068 C2070 1.419 . S
C2069 C2064 1.425 . S
C2069 C2066 1.409 . S
C2069 C2067 1.415 . S
C2070 H2060 0.930 . S
C2070 C2068 1.419 . S
C2070 C2071 1.362 . S
C2071 H2061 0.930 . S
C2071 C2064 1.409 . S
C2071 C2070 1.362 . S
H2072 C2078 0.930 . S
H2073 C2081 0.930 . S
H2074 C2082 0.930 . S
H2075 C2083 0.930 . S
H2076 C2086 0.930 . S
H2077 C2087 0.930 . S
C2078 H2072 0.930 . S
C2078 C2079 1.355 . S
C2078 C2080 1.415 . S
C2079 C2078 1.355 . S
C2079 C2081 1.419 . S
C2080 C2078 1.415 . S
C2080 C2085 1.425 . S
C2080 C2087 1.409 . S
C2081 H2073 0.930 . S
C2081 C2079 1.419 . S
C2081 C2082 1.362 . S
C2082 H2074 0.930 . S
C2082 C2081 1.362 . S
C2082 C2085 1.409 . S
C2083 H2075 0.930 . S
C2083 C2084 1.355 . S
C2083 C2085 1.415 . S
C2084 C2083 1.355 . S
C2084 C2086 1.419 . S
C2085 C2080 1.425 . S
C2085 C2082 1.409 . S
C2085 C2083 1.415 . S
C2086 H2076 0.930 . S
C2086 C2084 1.419 . S
C2086 C2087 1.362 . S
C2087 H2077 0.930 . S
C2087 C2080 1.409 . S
C2087 C2086 1.362 . S
H2088 C2094 0.930 . S
H2089 C2097 0.930 . S
H2090 C2098 0.930 . S
H2091 C2099 0.930 . S
H2092 C2102 0.930 . S
H2093 C2103 0.930 . S
C2094 H2088 0.930 . S
C2094 C2095 1.355 . S
C2094 C2096 1.415 . S
C2095 C2094 1.355 . S
C2095 C2097 1.419 . S
C2096 C2094 1.415 . S
C2096 C2101 1.425 . S
C2096 C2103 1.409 . S
C2097 H2089 0.930 . S
C2097 C2095 1.419 . S
C2097 C2098 1.362 . S
C2098 H2090 0.930 . S
C2098 C2097 1.362 . S
C2098 C2101 1.409 . S
C2099 H2091 0.930 . S
C2099 C2100 1.355 . S
C2099 C2101 1.415 . S
C2100 C2099 1.355 . S
C2100 C2102 1.419 . S
C2101 C2096 1.425 . S
C2101 C2098 1.409 . S
C2101 C2099 1.415 . S
C2102 H2092 0.930 . S
C2102 C2100 1.419 . S
C2102 C2103 1.362 . S
C2103 H2093 0.930 . S
C2103 C2096 1.409 . S
C2103 C2102 1.362 . S
H2104 C2110 0.930 . S
H2105 C2113 0.930 . S
H2106 C2114 0.930 . S
H2107 C2115 0.930 . S
H2108 C2118 0.930 . S
H2109 C2119 0.930 . S
C2110 H2104 0.930 . S
C2110 C2111 1.355 . S
C2110 C2112 1.415 . S
C2111 C2110 1.355 . S
C2111 C2113 1.419 . S
C2112 C2110 1.415 . S
C2112 C2117 1.425 . S
C2112 C2119 1.409 . S
C2113 H2105 0.930 . S
C2113 C2111 1.419 . S
C2113 C2114 1.362 . S
C2114 H2106 0.930 . S
C2114 C2113 1.362 . S
C2114 C2117 1.409 . S
C2115 H2107 0.930 . S
C2115 C2116 1.355 . S
C2115 C2117 1.415 . S
C2116 C2115 1.355 . S
C2116 C2118 1.419 . S
C2117 C2112 1.425 . S
C2117 C2114 1.409 . S
C2117 C2115 1.415 . S
C2118 H2108 0.930 . S
C2118 C2116 1.419 . S
C2118 C2119 1.362 . S
C2119 H2109 0.930 . S
C2119 C2112 1.409 . S
C2119 C2118 1.362 . S
H2120 C2126 0.930 . S
H2121 C2129 0.930 . S
H2122 C2130 0.930 . S
H2123 C2131 0.930 . S
H2124 C2134 0.930 . S
H2125 C2135 0.930 . S
C2126 H2120 0.930 . S
C2126 C2127 1.355 . S
C2126 C2128 1.415 . S
C2127 C2126 1.355 . S
C2127 C2129 1.419 . S
C2128 C2126 1.415 . S
C2128 C2133 1.425 . S
C2128 C2135 1.409 . S
C2129 H2121 0.930 . S
C2129 C2127 1.419 . S
C2129 C2130 1.362 . S
C2130 H2122 0.930 . S
C2130 C2129 1.362 . S
C2130 C2133 1.409 . S
C2131 H2123 0.930 . S
C2131 C2132 1.355 . S
C2131 C2133 1.415 . S
C2132 C2131 1.355 . S
C2132 C2134 1.419 . S
C2133 C2128 1.425 . S
C2133 C2130 1.409 . S
C2133 C2131 1.415 . S
C2134 H2124 0.930 . S
C2134 C2132 1.419 . S
C2134 C2135 1.362 . S
C2135 H2125 0.930 . S
C2135 C2128 1.409 . S
C2135 C2134 1.362 . S
H2136 C2142 0.930 . S
H2137 C2145 0.930 . S
H2138 C2146 0.930 . S
H2139 C2147 0.930 . S
H2140 C2150 0.930 . S
H2141 C2151 0.930 1_554 S
C2142 H2136 0.930 . S
C2142 C2143 1.355 . S
C2142 C2144 1.415 . S
C2143 C2142 1.355 . S
C2143 C2145 1.419 . S
C2144 C2142 1.415 . S
C2144 C2149 1.425 . S
C2144 C2151 1.409 . S
C2145 H2137 0.930 . S
C2145 C2143 1.419 . S
C2145 C2146 1.362 . S
C2146 H2138 0.930 . S
C2146 C2145 1.362 . S
C2146 C2149 1.409 . S
C2147 H2139 0.930 . S
C2147 C2148 1.355 . S
C2147 C2149 1.415 . S
C2148 C2147 1.355 . S
C2148 C2150 1.419 1_556 S
C2149 C2144 1.425 . S
C2149 C2146 1.409 . S
C2149 C2147 1.415 . S
C2150 H2140 0.930 . S
C2150 C2148 1.419 1_554 S
C2150 C2151 1.362 1_554 S
C2151 H2141 0.930 1_556 S
C2151 C2144 1.409 . S
C2151 C2150 1.362 1_556 S
H2152 C2158 0.930 . S
H2153 C2161 0.930 . S
H2154 C2162 0.930 . S
H2155 C2163 0.930 . S
H2156 C2166 0.930 . S
H2157 C2167 0.930 . S
C2158 H2152 0.930 . S
C2158 C2159 1.355 . S
C2158 C2160 1.415 . S
C2159 C2158 1.355 . S
C2159 C2161 1.419 . S
C2160 C2158 1.415 . S
C2160 C2165 1.425 . S
C2160 C2167 1.409 . S
C2161 H2153 0.930 . S
C2161 C2159 1.419 . S
C2161 C2162 1.362 . S
C2162 H2154 0.930 . S
C2162 C2161 1.362 . S
C2162 C2165 1.409 . S
C2163 H2155 0.930 . S
C2163 C2164 1.355 . S
C2163 C2165 1.415 . S
C2164 C2163 1.355 . S
C2164 C2166 1.419 . S
C2165 C2160 1.425 . S
C2165 C2162 1.409 . S
C2165 C2163 1.415 . S
C2166 H2156 0.930 . S
C2166 C2164 1.419 . S
C2166 C2167 1.362 . S
C2167 H2157 0.930 . S
C2167 C2160 1.409 . S
C2167 C2166 1.362 . S
H2168 C2174 0.930 . S
H2169 C2177 0.930 . S
H2170 C2178 0.930 . S
H2171 C2179 0.930 . S
H2172 C2182 0.930 . S
H2173 C2183 0.930 . S
C2174 H2168 0.930 . S
C2174 C2175 1.356 1_545 S
C2174 C2176 1.415 . S
C2175 C2174 1.356 1_565 S
C2175 C2177 1.418 . S
C2176 C2174 1.415 . S
C2176 C2181 1.425 1_545 S
C2176 C2183 1.409 . S
C2177 H2169 0.930 . S
C2177 C2175 1.418 . S
C2177 C2178 1.362 . S
C2178 H2170 0.930 . S
C2178 C2177 1.362 . S
C2178 C2181 1.409 . S
C2179 H2171 0.930 . S
C2179 C2180 1.355 1_565 S
C2179 C2181 1.415 . S
C2180 C2179 1.355 1_545 S
C2180 C2182 1.419 . S
C2181 C2176 1.425 1_565 S
C2181 C2178 1.409 . S
C2181 C2179 1.415 . S
C2182 H2172 0.930 . S
C2182 C2180 1.419 . S
C2182 C2183 1.362 . S
C2183 H2173 0.930 . S
C2183 C2176 1.409 . S
C2183 C2182 1.362 . S
H2184 C2190 0.930 . S
H2185 C2193 0.930 . S
H2186 C2194 0.930 . S
H2187 C2195 0.930 . S
H2188 C2198 0.930 . S
H2189 C2199 0.930 . S
C2190 H2184 0.930 . S
C2190 C2191 1.355 . S
C2190 C2192 1.415 . S
C2191 C2190 1.355 . S
C2191 C2193 1.419 . S
C2192 C2190 1.415 . S
C2192 C2197 1.425 . S
C2192 C2199 1.409 . S
C2193 H2185 0.930 . S
C2193 C2191 1.419 . S
C2193 C2194 1.362 . S
C2194 H2186 0.930 . S
C2194 C2193 1.362 . S
C2194 C2197 1.409 . S
C2195 H2187 0.930 . S
C2195 C2196 1.355 . S
C2195 C2197 1.415 . S
C2196 C2195 1.355 . S
C2196 C2198 1.419 . S
C2197 C2192 1.425 . S
C2197 C2194 1.409 . S
C2197 C2195 1.415 . S
C2198 H2188 0.930 . S
C2198 C2196 1.419 . S
C2198 C2199 1.362 . S
C2199 H2189 0.930 . S
C2199 C2192 1.409 . S
C2199 C2198 1.362 . S
H2200 C2206 0.917 1_565 S
H2201 C2209 0.930 . S
H2202 C2210 0.930 . S
H2203 C2211 0.930 . S
H2204 C2214 0.930 . S
H2205 C2215 0.930 1_565 S
C2206 H2200 0.917 1_545 S
C2206 C2207 1.355 . S
C2206 C2208 1.415 . S
C2207 C2206 1.355 . S
C2207 C2209 1.419 . S
C2208 C2206 1.415 . S
C2208 C2213 1.425 . S
C2208 C2215 1.409 . S
C2209 H2201 0.930 . S
C2209 C2207 1.419 . S
C2209 C2210 1.362 . S
C2210 H2202 0.930 . S
C2210 C2209 1.362 . S
C2210 C2213 1.409 . S
C2211 H2203 0.930 . S
C2211 C2212 1.355 . S
C2211 C2213 1.415 . S
C2212 C2211 1.355 . S
C2212 C2214 1.419 . S
C2213 C2208 1.425 . S
C2213 C2210 1.409 . S
C2213 C2211 1.415 . S
C2214 H2204 0.930 . S
C2214 C2212 1.419 . S
C2214 C2215 1.362 . S
C2215 H2205 0.930 1_545 S
C2215 C2208 1.409 . S
C2215 C2214 1.362 . S
H2216 C2222 0.930 . S
H2217 C2225 0.930 . S
H2218 C2226 0.930 . S
H2219 C2227 0.930 . S
H2220 C2230 0.930 . S
H2221 C2231 0.930 . S
C2222 H2216 0.930 . S
C2222 C2223 1.355 . S
C2222 C2224 1.415 . S
C2223 C2222 1.355 . S
C2223 C2225 1.419 . S
C2224 C2222 1.415 . S
C2224 C2229 1.425 . S
C2224 C2231 1.409 . S
C2225 H2217 0.930 . S
C2225 C2223 1.419 . S
C2225 C2226 1.362 . S
C2226 H2218 0.930 . S
C2226 C2225 1.362 . S
C2226 C2229 1.409 . S
C2227 H2219 0.930 . S
C2227 C2228 1.355 . S
C2227 C2229 1.415 . S
C2228 C2227 1.355 . S
C2228 C2230 1.419 . S
C2229 C2224 1.425 . S
C2229 C2226 1.409 . S
C2229 C2227 1.415 . S
C2230 H2220 0.930 . S
C2230 C2228 1.419 . S
C2230 C2231 1.362 . S
C2231 H2221 0.930 . S
C2231 C2224 1.409 . S
C2231 C2230 1.362 . S
H2232 C2238 0.930 . S
H2233 C2241 0.930 . S
H2234 C2242 0.930 . S
H2235 C2243 0.930 1_565 S
H2236 C2246 0.930 . S
H2237 C2247 0.930 . S
C2238 H2232 0.930 . S
C2238 C2239 1.355 1_545 S
C2238 C2240 1.415 . S
C2239 C2238 1.355 1_565 S
C2239 C2241 1.419 . S
C2240 C2238 1.415 . S
C2240 C2245 1.400 1_545 S
C2240 C2247 1.409 . S
C2241 H2233 0.930 . S
C2241 C2239 1.419 . S
C2241 C2242 1.362 . S
C2242 H2234 0.930 . S
C2242 C2241 1.362 . S
C2242 C2245 1.451 . S
C2243 H2235 0.930 1_545 S
C2243 C2244 1.355 . S
C2243 C2245 1.398 1_545 S
C2244 C2243 1.355 . S
C2244 C2246 1.419 . S
C2245 C2240 1.400 1_565 S
C2245 C2242 1.451 . S
C2245 C2243 1.398 1_565 S
C2246 H2236 0.930 . S
C2246 C2244 1.419 . S
C2246 C2247 1.362 . S
C2247 H2237 0.930 . S
C2247 C2240 1.409 . S
C2247 C2246 1.362 . S
H2248 C2254 0.930 . S
H2249 C2257 0.930 . S
H2250 C2258 0.930 . S
H2251 C2259 0.930 . S
H2252 C2262 0.930 . S
H2253 C2263 0.930 . S
C2254 H2248 0.930 . S
C2254 C2255 1.355 . S
C2254 C2256 1.415 . S
C2255 C2254 1.355 . S
C2255 C2257 1.419 . S
C2256 C2254 1.415 . S
C2256 C2261 1.425 . S
C2256 C2263 1.409 . S
C2257 H2249 0.930 . S
C2257 C2255 1.419 . S
C2257 C2258 1.362 . S
C2258 H2250 0.930 . S
C2258 C2257 1.362 . S
C2258 C2261 1.409 . S
C2259 H2251 0.930 . S
C2259 C2260 1.355 . S
C2259 C2261 1.415 . S
C2260 C2259 1.355 . S
C2260 C2262 1.419 . S
C2261 C2256 1.425 . S
C2261 C2258 1.409 . S
C2261 C2259 1.415 . S
C2262 H2252 0.930 . S
C2262 C2260 1.419 . S
C2262 C2263 1.362 . S
C2263 H2253 0.930 . S
C2263 C2256 1.409 . S
C2263 C2262 1.362 . S
H2264 C2270 0.930 . S
H2265 C2273 0.930 . S
H2266 C2274 0.930 . S
H2267 C2275 0.930 . S
H2268 C2278 0.930 . S
H2269 C2279 0.930 . S
C2270 H2264 0.930 . S
C2270 C2271 1.355 . S
C2270 C2272 1.415 . S
C2271 C2270 1.355 . S
C2271 C2273 1.419 1_545 S
C2272 C2270 1.415 . S
C2272 C2277 1.425 . S
C2272 C2279 1.409 . S
C2273 H2265 0.930 . S
C2273 C2271 1.419 1_565 S
C2273 C2274 1.362 . S
C2274 H2266 0.930 . S
C2274 C2273 1.362 . S
C2274 C2277 1.409 1_565 S
C2275 H2267 0.930 . S
C2275 C2276 1.355 1_565 S
C2275 C2277 1.415 1_565 S
C2276 C2275 1.355 1_545 S
C2276 C2278 1.419 . S
C2277 C2272 1.425 . S
C2277 C2274 1.409 1_545 S
C2277 C2275 1.415 1_545 S
C2278 H2268 0.930 . S
C2278 C2276 1.419 . S
C2278 C2279 1.362 . S
C2279 H2269 0.930 . S
C2279 C2272 1.409 . S
C2279 C2278 1.362 . S
H2280 C2286 0.930 . S
H2281 C2289 0.930 . S
H2282 C2290 0.930 . S
H2283 C2291 0.930 . S
H2284 C2294 0.930 . S
H2285 C2295 0.930 . S
C2286 H2280 0.930 . S
C2286 C2287 1.355 . S
C2286 C2288 1.415 . S
C2287 C2286 1.355 . S
C2287 C2289 1.419 . S
C2288 C2286 1.415 . S
C2288 C2293 1.425 . S
C2288 C2295 1.409 . S
C2289 H2281 0.930 . S
C2289 C2287 1.419 . S
C2289 C2290 1.362 . S
C2290 H2282 0.930 . S
C2290 C2289 1.362 . S
C2290 C2293 1.409 . S
C2291 H2283 0.930 . S
C2291 C2292 1.355 . S
C2291 C2293 1.415 . S
C2292 C2291 1.355 . S
C2292 C2294 1.419 . S
C2293 C2288 1.425 . S
C2293 C2290 1.409 . S
C2293 C2291 1.415 . S
C2294 H2284 0.930 . S
C2294 C2292 1.419 . S
C2294 C2295 1.362 . S
C2295 H2285 0.930 . S
C2295 C2288 1.409 . S
C2295 C2294 1.362 . S
H2296 C2302 0.930 1_556 S
H2297 C2305 0.930 . S
H2298 C2306 0.930 . S
H2299 C2307 0.930 . S
H2300 C2310 0.930 . S
H2301 C2311 0.930 . S
C2302 H2296 0.930 1_554 S
C2302 C2303 1.355 . S
C2302 C2304 1.415 . S
C2303 C2302 1.355 . S
C2303 C2305 1.419 . S
C2304 C2302 1.415 . S
C2304 C2309 1.425 . S
C2304 C2311 1.409 1_554 S
C2305 H2297 0.930 . S
C2305 C2303 1.419 . S
C2305 C2306 1.362 . S
C2306 H2298 0.930 . S
C2306 C2305 1.362 . S
C2306 C2309 1.409 . S
C2307 H2299 0.930 . S
C2307 C2308 1.355 . S
C2307 C2309 1.415 . S
C2308 C2307 1.355 . S
C2308 C2310 1.419 1_554 S
C2309 C2304 1.425 . S
C2309 C2306 1.409 . S
C2309 C2307 1.415 . S
C2310 H2300 0.930 . S
C2310 C2308 1.419 1_556 S
C2310 C2311 1.362 . S
C2311 H2301 0.930 . S
C2311 C2304 1.409 1_556 S
C2311 C2310 1.362 . S
H2312 C2318 0.930 . S
H2313 C2321 0.930 . S
H2314 C2322 0.930 . S
H2315 C2323 0.930 . S
H2316 C2326 0.930 . S
H2317 C2327 0.930 . S
C2318 H2312 0.930 . S
C2318 C2319 1.355 . S
C2318 C2320 1.415 . S
C2319 C2318 1.355 . S
C2319 C2321 1.419 . S
C2320 C2318 1.415 . S
C2320 C2325 1.425 . S
C2320 C2327 1.409 . S
C2321 H2313 0.930 . S
C2321 C2319 1.419 . S
C2321 C2322 1.362 . S
C2322 H2314 0.930 . S
C2322 C2321 1.362 . S
C2322 C2325 1.409 . S
C2323 H2315 0.930 . S
C2323 C2324 1.355 . S
C2323 C2325 1.415 . S
C2324 C2323 1.355 . S
C2324 C2326 1.419 . S
C2325 C2320 1.425 . S
C2325 C2322 1.409 . S
C2325 C2323 1.415 . S
C2326 H2316 0.930 . S
C2326 C2324 1.419 . S
C2326 C2327 1.362 . S
C2327 H2317 0.930 . S
C2327 C2320 1.409 . S
C2327 C2326 1.362 . S
H2328 C2334 0.930 . S
H2329 C2337 0.930 . S
H2330 C2338 0.930 . S
H2331 C2339 0.930 . S
H2332 C2342 0.930 . S
H2333 C2343 0.930 . S
C2334 H2328 0.930 . S
C2334 C2335 1.355 . S
C2334 C2336 1.415 . S
C2335 C2334 1.355 . S
C2335 C2337 1.419 . S
C2336 C2334 1.415 . S
C2336 C2341 1.425 . S
C2336 C2343 1.409 . S
C2337 H2329 0.930 . S
C2337 C2335 1.419 . S
C2337 C2338 1.362 . S
C2338 H2330 0.930 . S
C2338 C2337 1.362 . S
C2338 C2341 1.409 . S
C2339 H2331 0.930 . S
C2339 C2340 1.355 . S
C2339 C2341 1.415 . S
C2340 C2339 1.355 . S
C2340 C2342 1.419 . S
C2341 C2336 1.425 . S
C2341 C2338 1.409 . S
C2341 C2339 1.415 . S
C2342 H2332 0.930 . S
C2342 C2340 1.419 . S
C2342 C2343 1.362 . S
C2343 H2333 0.930 . S
C2343 C2336 1.409 . S
C2343 C2342 1.362 . S
H2344 C2350 0.930 . S
H2345 C2353 0.930 . S
H2346 C2354 0.930 . S
H2347 C2355 0.930 . S
H2348 C2358 0.930 . S
H2349 C2359 0.930 . S
C2350 H2344 0.930 . S
C2350 C2351 1.355 . S
C2350 C2352 1.415 . S
C2351 C2350 1.355 . S
C2351 C2353 1.419 . S
C2352 C2350 1.415 . S
C2352 C2357 1.425 . S
C2352 C2359 1.409 . S
C2353 H2345 0.930 . S
C2353 C2351 1.419 . S
C2353 C2354 1.362 . S
C2354 H2346 0.930 . S
C2354 C2353 1.362 . S
C2354 C2357 1.409 . S
C2355 H2347 0.930 . S
C2355 C2356 1.355 . S
C2355 C2357 1.415 . S
C2356 C2355 1.355 . S
C2356 C2358 1.419 . S
C2357 C2352 1.425 . S
C2357 C2354 1.409 . S
C2357 C2355 1.415 . S
C2358 H2348 0.930 . S
C2358 C2356 1.419 . S
C2358 C2359 1.362 . S
C2359 H2349 0.930 . S
C2359 C2352 1.409 . S
C2359 C2358 1.362 . S
H2360 C2366 0.930 . S
H2361 C2369 0.930 . S
H2362 C2370 0.930 1_545 S
H2363 C2371 0.930 . S
H2364 C2374 0.930 . S
H2365 C2375 0.930 . S
C2366 H2360 0.930 . S
C2366 C2367 1.355 . S
C2366 C2368 1.415 . S
C2367 C2366 1.355 . S
C2367 C2369 1.419 1_565 S
C2368 C2366 1.415 . S
C2368 C2373 1.425 . S
C2368 C2375 1.409 . S
C2369 H2361 0.930 . S
C2369 C2367 1.419 1_545 S
C2369 C2370 1.362 1_545 S
C2370 H2362 0.930 1_565 S
C2370 C2369 1.362 1_565 S
C2370 C2373 1.409 . S
C2371 H2363 0.930 . S
C2371 C2372 1.355 . S
C2371 C2373 1.415 . S
C2372 C2371 1.355 . S
C2372 C2374 1.419 . S
C2373 C2368 1.425 . S
C2373 C2370 1.409 . S
C2373 C2371 1.415 . S
C2374 H2364 0.930 . S
C2374 C2372 1.419 . S
C2374 C2375 1.362 . S
C2375 H2365 0.930 . S
C2375 C2368 1.409 . S
C2375 C2374 1.362 . S
H2376 C2382 0.930 . S
H2377 C2385 0.930 . S
H2378 C2386 0.930 . S
H2379 C2387 0.930 . S
H2380 C2390 0.930 1_545 S
H2381 C2391 0.930 . S
C2382 H2376 0.930 . S
C2382 C2383 1.355 . S
C2382 C2384 1.415 . S
C2383 C2382 1.355 . S
C2383 C2385 1.419 . S
C2384 C2382 1.415 . S
C2384 C2389 1.425 . S
C2384 C2391 1.409 . S
C2385 H2377 0.930 . S
C2385 C2383 1.419 . S
C2385 C2386 1.362 . S
C2386 H2378 0.930 . S
C2386 C2385 1.362 . S
C2386 C2389 1.409 . S
C2387 H2379 0.930 . S
C2387 C2388 1.355 . S
C2387 C2389 1.415 . S
C2388 C2387 1.355 . S
C2388 C2390 1.419 . S
C2389 C2384 1.425 . S
C2389 C2386 1.409 . S
C2389 C2387 1.415 . S
C2390 H2380 0.930 1_565 S
C2390 C2388 1.419 . S
C2390 C2391 1.362 . S
C2391 H2381 0.930 . S
C2391 C2384 1.409 . S
C2391 C2390 1.362 . S
H2392 C2398 0.930 . S
H2393 C2401 0.930 . S
H2394 C2402 0.930 . S
H2395 C2403 0.930 . S
H2396 C2406 0.930 . S
H2397 C2407 0.930 . S
C2398 H2392 0.930 . S
C2398 C2399 1.355 . S
C2398 C2400 1.415 . S
C2399 C2398 1.355 . S
C2399 C2401 1.419 . S
C2400 C2398 1.415 . S
C2400 C2405 1.425 . S
C2400 C2407 1.409 . S
C2401 H2393 0.930 . S
C2401 C2399 1.419 . S
C2401 C2402 1.362 . S
C2402 H2394 0.930 . S
C2402 C2401 1.362 . S
C2402 C2405 1.409 . S
C2403 H2395 0.930 . S
C2403 C2404 1.355 . S
C2403 C2405 1.415 . S
C2404 C2403 1.355 . S
C2404 C2406 1.419 . S
C2405 C2400 1.425 . S
C2405 C2402 1.409 . S
C2405 C2403 1.415 . S
C2406 H2396 0.930 . S
C2406 C2404 1.419 . S
C2406 C2407 1.362 . S
C2407 H2397 0.930 . S
C2407 C2400 1.409 . S
C2407 C2406 1.362 . S
H2408 C2414 0.930 . S
H2409 C2417 0.930 . S
H2410 C2418 0.930 . S
H2411 C2419 0.930 . S
H2412 C2422 0.930 . S
H2413 C2423 0.930 . S
C2414 H2408 0.930 . S
C2414 C2415 1.355 . S
C2414 C2416 1.415 . S
C2415 C2414 1.355 . S
C2415 C2417 1.419 . S
C2416 C2414 1.415 . S
C2416 C2421 1.425 . S
C2416 C2423 1.409 . S
C2417 H2409 0.930 . S
C2417 C2415 1.419 . S
C2417 C2418 1.362 . S
C2418 H2410 0.930 . S
C2418 C2417 1.362 . S
C2418 C2421 1.409 . S
C2419 H2411 0.930 . S
C2419 C2420 1.355 . S
C2419 C2421 1.415 . S
C2420 C2419 1.355 . S
C2420 C2422 1.419 . S
C2421 C2416 1.425 . S
C2421 C2418 1.409 . S
C2421 C2419 1.415 . S
C2422 H2412 0.930 . S
C2422 C2420 1.419 . S
C2422 C2423 1.362 . S
C2423 H2413 0.930 . S
C2423 C2416 1.409 . S
C2423 C2422 1.362 . S
H2424 C2430 0.930 . S
H2425 C2433 0.930 . S
H2426 C2434 0.930 . S
H2427 C2435 0.930 . S
H2428 C2438 0.930 . S
H2429 C2439 0.930 . S
C2430 H2424 0.930 . S
C2430 C2431 1.355 . S
C2430 C2432 1.415 . S
C2431 C2430 1.355 . S
C2431 C2433 1.419 . S
C2432 C2430 1.415 . S
C2432 C2437 1.425 . S
C2432 C2439 1.409 . S
C2433 H2425 0.930 . S
C2433 C2431 1.419 . S
C2433 C2434 1.362 . S
C2434 H2426 0.930 . S
C2434 C2433 1.362 . S
C2434 C2437 1.409 . S
C2435 H2427 0.930 . S
C2435 C2436 1.355 . S
C2435 C2437 1.415 . S
C2436 C2435 1.355 . S
C2436 C2438 1.419 . S
C2437 C2432 1.425 . S
C2437 C2434 1.409 . S
C2437 C2435 1.415 . S
C2438 H2428 0.930 . S
C2438 C2436 1.419 . S
C2438 C2439 1.362 . S
C2439 H2429 0.930 . S
C2439 C2432 1.409 . S
C2439 C2438 1.362 . S
H2440 C2446 0.930 . S
H2441 C2449 0.930 . S
H2442 C2450 0.930 . S
H2443 C2451 0.930 . S
H2444 C2454 0.930 . S
H2445 C2455 0.930 . S
C2446 H2440 0.930 . S
C2446 C2447 1.355 . S
C2446 C2448 1.415 . S
C2447 C2446 1.355 . S
C2447 C2449 1.419 . S
C2448 C2446 1.415 . S
C2448 C2453 1.425 . S
C2448 C2455 1.409 . S
C2449 H2441 0.930 . S
C2449 C2447 1.419 . S
C2449 C2450 1.362 . S
C2450 H2442 0.930 . S
C2450 C2449 1.362 . S
C2450 C2453 1.409 . S
C2451 H2443 0.930 . S
C2451 C2452 1.355 . S
C2451 C2453 1.415 . S
C2452 C2451 1.355 . S
C2452 C2454 1.419 . S
C2453 C2448 1.425 . S
C2453 C2450 1.409 . S
C2453 C2451 1.415 . S
C2454 H2444 0.930 . S
C2454 C2452 1.419 . S
C2454 C2455 1.362 . S
C2455 H2445 0.930 . S
C2455 C2448 1.409 . S
C2455 C2454 1.362 . S
H2456 C2462 0.930 . S
H2457 C2465 0.930 . S
H2458 C2466 0.930 . S
H2459 C2467 0.930 . S
H2460 C2470 0.930 . S
H2461 C2471 0.930 . S
C2462 H2456 0.930 . S
C2462 C2463 1.355 1_554 S
C2462 C2464 1.415 . S
C2463 C2462 1.355 1_556 S
C2463 C2465 1.419 . S
C2464 C2462 1.415 . S
C2464 C2469 1.425 1_554 S
C2464 C2471 1.409 . S
C2465 H2457 0.930 . S
C2465 C2463 1.419 . S
C2465 C2466 1.362 . S
C2466 H2458 0.930 . S
C2466 C2465 1.362 . S
C2466 C2469 1.409 . S
C2467 H2459 0.930 . S
C2467 C2468 1.355 1_556 S
C2467 C2469 1.415 . S
C2468 C2467 1.355 1_554 S
C2468 C2470 1.419 . S
C2469 C2464 1.425 1_556 S
C2469 C2466 1.409 . S
C2469 C2467 1.415 . S
C2470 H2460 0.930 . S
C2470 C2468 1.419 . S
C2470 C2471 1.362 . S
C2471 H2461 0.930 . S
C2471 C2464 1.409 . S
C2471 C2470 1.362 . S
H2472 C2478 0.930 . S
H2473 C2481 0.930 . S
H2474 C2482 0.930 . S
H2475 C2483 0.930 . S
H2476 C2486 0.930 . S
H2477 C2487 0.930 . S
C2478 H2472 0.930 . S
C2478 C2479 1.355 . S
C2478 C2480 1.415 1_455 S
C2479 C2478 1.355 . S
C2479 C2481 1.419 . S
C2480 C2478 1.415 1_655 S
C2480 C2485 1.425 . S
C2480 C2487 1.409 . S
C2481 H2473 0.930 . S
C2481 C2479 1.419 . S
C2481 C2482 1.362 . S
C2482 H2474 0.930 . S
C2482 C2481 1.362 . S
C2482 C2485 1.409 1_455 S
C2483 H2475 0.930 . S
C2483 C2484 1.355 . S
C2483 C2485 1.415 . S
C2484 C2483 1.355 . S
C2484 C2486 1.419 . S
C2485 C2480 1.425 . S
C2485 C2482 1.409 1_655 S
C2485 C2483 1.415 . S
C2486 H2476 0.930 . S
C2486 C2484 1.419 . S
C2486 C2487 1.362 . S
C2487 H2477 0.930 . S
C2487 C2480 1.409 . S
C2487 C2486 1.362 . S
H2488 C2494 0.930 . S
H2489 C2497 0.930 . S
H2490 C2498 0.930 . S
H2491 C2499 0.930 . S
H2492 C2502 0.930 . S
H2493 C2503 0.930 . S
C2494 H2488 0.930 . S
C2494 C2495 1.355 . S
C2494 C2496 1.415 . S
C2495 C2494 1.355 . S
C2495 C2497 1.419 . S
C2496 C2494 1.415 . S
C2496 C2501 1.425 . S
C2496 C2503 1.409 . S
C2497 H2489 0.930 . S
C2497 C2495 1.419 . S
C2497 C2498 1.362 . S
C2498 H2490 0.930 . S
C2498 C2497 1.362 . S
C2498 C2501 1.409 . S
C2499 H2491 0.930 . S
C2499 C2500 1.355 . S
C2499 C2501 1.415 . S
C2500 C2499 1.355 . S
C2500 C2502 1.419 . S
C2501 C2496 1.425 . S
C2501 C2498 1.409 . S
C2501 C2499 1.415 . S
C2502 H2492 0.930 . S
C2502 C2500 1.419 . S
C2502 C2503 1.362 . S
C2503 H2493 0.930 . S
C2503 C2496 1.409 . S
C2503 C2502 1.362 . S
H2504 C2510 0.930 . S
H2505 C2513 0.930 . S
H2506 C2514 0.930 . S
H2507 C2515 0.930 . S
H2508 C2518 0.930 . S
H2509 C2519 0.930 . S
C2510 H2504 0.930 . S
C2510 C2511 1.355 . S
C2510 C2512 1.415 . S
C2511 C2510 1.355 . S
C2511 C2513 1.419 . S
C2512 C2510 1.415 . S
C2512 C2517 1.425 . S
C2512 C2519 1.409 . S
C2513 H2505 0.930 . S
C2513 C2511 1.419 . S
C2513 C2514 1.362 . S
C2514 H2506 0.930 . S
C2514 C2513 1.362 . S
C2514 C2517 1.409 . S
C2515 H2507 0.930 . S
C2515 C2516 1.355 . S
C2515 C2517 1.415 1_655 S
C2516 C2515 1.355 . S
C2516 C2518 1.419 . S
C2517 C2512 1.425 . S
C2517 C2514 1.409 . S
C2517 C2515 1.415 1_455 S
C2518 H2508 0.930 . S
C2518 C2516 1.419 . S
C2518 C2519 1.362 1_655 S
C2519 H2509 0.930 . S
C2519 C2512 1.409 . S
C2519 C2518 1.362 1_455 S
H2520 C2526 0.930 . S
H2521 C2529 0.930 . S
H2522 C2530 0.930 . S
H2523 C2531 0.930 . S
H2524 C2534 0.930 . S
H2525 C2535 0.930 . S
C2526 H2520 0.930 . S
C2526 C2527 1.355 1_455 S
C2526 C2528 1.415 . S
C2527 C2526 1.355 1_655 S
C2527 C2529 1.419 . S
C2528 C2526 1.415 . S
C2528 C2533 1.425 . S
C2528 C2535 1.409 . S
C2529 H2521 0.930 . S
C2529 C2527 1.419 . S
C2529 C2530 1.362 1_655 S
C2530 H2522 0.930 . S
C2530 C2529 1.362 1_455 S
C2530 C2533 1.409 . S
C2531 H2523 0.930 . S
C2531 C2532 1.355 . S
C2531 C2533 1.415 . S
C2532 C2531 1.355 . S
C2532 C2534 1.419 . S
C2533 C2528 1.425 . S
C2533 C2530 1.409 . S
C2533 C2531 1.415 . S
C2534 H2524 0.930 . S
C2534 C2532 1.419 . S
C2534 C2535 1.362 . S
C2535 H2525 0.930 . S
C2535 C2528 1.409 . S
C2535 C2534 1.362 . S
H2536 C2542 0.930 . S
H2537 C2545 0.930 . S
H2538 C2546 0.930 . S
H2539 C2547 0.930 . S
H2540 C2550 0.930 . S
H2541 C2551 0.930 . S
C2542 H2536 0.930 . S
C2542 C2543 1.355 . S
C2542 C2544 1.415 . S
C2543 C2542 1.355 . S
C2543 C2545 1.419 . S
C2544 C2542 1.415 . S
C2544 C2549 1.425 . S
C2544 C2551 1.409 . S
C2545 H2537 0.930 . S
C2545 C2543 1.419 . S
C2545 C2546 1.362 . S
C2546 H2538 0.930 . S
C2546 C2545 1.362 . S
C2546 C2549 1.409 . S
C2547 H2539 0.930 . S
C2547 C2548 1.355 . S
C2547 C2549 1.415 . S
C2548 C2547 1.355 . S
C2548 C2550 1.419 . S
C2549 C2544 1.425 . S
C2549 C2546 1.409 . S
C2549 C2547 1.415 . S
C2550 H2540 0.930 . S
C2550 C2548 1.419 . S
C2550 C2551 1.362 . S
C2551 H2541 0.930 . S
C2551 C2544 1.409 . S
C2551 C2550 1.362 . S
H2552 C2558 0.930 . S
H2553 C2561 0.930 . S
H2554 C2562 0.930 . S
H2555 C2563 0.930 . S
H2556 C2566 0.930 . S
H2557 C2567 0.930 . S
C2558 H2552 0.930 . S
C2558 C2559 1.355 . S
C2558 C2560 1.415 . S
C2559 C2558 1.355 . S
C2559 C2561 1.419 . S
C2560 C2558 1.415 . S
C2560 C2565 1.425 . S
C2560 C2567 1.409 . S
C2561 H2553 0.930 . S
C2561 C2559 1.419 . S
C2561 C2562 1.362 . S
C2562 H2554 0.930 . S
C2562 C2561 1.362 . S
C2562 C2565 1.409 . S
C2563 H2555 0.930 . S
C2563 C2564 1.355 . S
C2563 C2565 1.415 . S
C2564 C2563 1.355 . S
C2564 C2566 1.419 . S
C2565 C2560 1.425 . S
C2565 C2562 1.409 . S
C2565 C2563 1.415 . S
C2566 H2556 0.930 . S
C2566 C2564 1.419 . S
C2566 C2567 1.362 . S
C2567 H2557 0.930 . S
C2567 C2560 1.409 . S
C2567 C2566 1.362 . S
H2568 C2574 0.930 . S
H2569 C2577 0.930 . S
H2570 C2578 0.930 . S
H2571 C2579 0.930 . S
H2572 C2582 0.930 . S
H2573 C2583 0.930 . S
C2574 H2568 0.930 . S
C2574 C2575 1.355 . S
C2574 C2576 1.415 . S
C2575 C2574 1.355 . S
C2575 C2577 1.419 . S
C2576 C2574 1.415 . S
C2576 C2581 1.425 . S
C2576 C2583 1.409 . S
C2577 H2569 0.930 . S
C2577 C2575 1.419 . S
C2577 C2578 1.362 . S
C2578 H2570 0.930 . S
C2578 C2577 1.362 . S
C2578 C2581 1.409 . S
C2579 H2571 0.930 . S
C2579 C2580 1.355 . S
C2579 C2581 1.415 . S
C2580 C2579 1.355 . S
C2580 C2582 1.419 . S
C2581 C2576 1.425 . S
C2581 C2578 1.409 . S
C2581 C2579 1.415 . S
C2582 H2572 0.930 . S
C2582 C2580 1.419 . S
C2582 C2583 1.362 . S
C2583 H2573 0.930 . S
C2583 C2576 1.409 . S
C2583 C2582 1.362 . S
H2584 C2590 0.930 . S
H2585 C2593 0.930 . S
H2586 C2594 0.930 . S
H2587 C2595 0.930 . S
H2588 C2598 0.930 . S
H2589 C2599 0.930 . S
C2590 H2584 0.930 . S
C2590 C2591 1.355 . S
C2590 C2592 1.415 . S
C2591 C2590 1.355 . S
C2591 C2593 1.419 . S
C2592 C2590 1.415 . S
C2592 C2597 1.425 . S
C2592 C2599 1.409 . S
C2593 H2585 0.930 . S
C2593 C2591 1.419 . S
C2593 C2594 1.362 . S
C2594 H2586 0.930 . S
C2594 C2593 1.362 . S
C2594 C2597 1.409 . S
C2595 H2587 0.930 . S
C2595 C2596 1.355 . S
C2595 C2597 1.415 . S
C2596 C2595 1.355 . S
C2596 C2598 1.419 . S
C2597 C2592 1.425 . S
C2597 C2594 1.409 . S
C2597 C2595 1.415 . S
C2598 H2588 0.930 . S
C2598 C2596 1.419 . S
C2598 C2599 1.362 . S
C2599 H2589 0.930 . S
C2599 C2592 1.409 . S
C2599 C2598 1.362 . S
H2600 C2606 0.930 . S
H2601 C2609 0.930 . S
H2602 C2610 0.930 . S
H2603 C2611 0.930 . S
H2604 C2614 0.930 . S
H2605 C2615 0.930 . S
C2606 H2600 0.930 . S
C2606 C2607 1.355 . S
C2606 C2608 1.415 . S
C2607 C2606 1.355 . S
C2607 C2609 1.419 . S
C2608 C2606 1.415 . S
C2608 C2613 1.425 . S
C2608 C2615 1.409 . S
C2609 H2601 0.930 . S
C2609 C2607 1.419 . S
C2609 C2610 1.362 . S
C2610 H2602 0.930 . S
C2610 C2609 1.362 . S
C2610 C2613 1.409 . S
C2611 H2603 0.930 . S
C2611 C2612 1.355 . S
C2611 C2613 1.415 . S
C2612 C2611 1.355 . S
C2612 C2614 1.419 . S
C2613 C2608 1.425 . S
C2613 C2610 1.409 . S
C2613 C2611 1.415 . S
C2614 H2604 0.930 . S
C2614 C2612 1.419 . S
C2614 C2615 1.362 . S
C2615 H2605 0.930 . S
C2615 C2608 1.409 . S
C2615 C2614 1.362 . S
H2616 C2622 0.930 . S
H2617 C2625 0.930 . S
H2618 C2626 0.930 . S
H2619 C2627 0.930 . S
H2620 C2630 0.930 . S
H2621 C2631 0.930 . S
C2622 H2616 0.930 . S
C2622 C2623 1.355 . S
C2622 C2624 1.415 . S
C2623 C2622 1.355 . S
C2623 C2625 1.419 . S
C2624 C2622 1.415 . S
C2624 C2629 1.425 . S
C2624 C2631 1.409 . S
C2625 H2617 0.930 . S
C2625 C2623 1.419 . S
C2625 C2626 1.362 . S
C2626 H2618 0.930 . S
C2626 C2625 1.362 . S
C2626 C2629 1.409 . S
C2627 H2619 0.930 . S
C2627 C2628 1.355 . S
C2627 C2629 1.415 . S
C2628 C2627 1.355 . S
C2628 C2630 1.419 . S
C2629 C2624 1.425 . S
C2629 C2626 1.409 . S
C2629 C2627 1.415 . S
C2630 H2620 0.930 . S
C2630 C2628 1.419 . S
C2630 C2631 1.362 . S
C2631 H2621 0.930 . S
C2631 C2624 1.409 . S
C2631 C2630 1.362 . S
H2632 C2638 0.930 . S
H2633 C2641 0.930 . S
H2634 C2642 0.930 . S
H2635 C2643 0.930 . S
H2636 C2646 0.930 . S
H2637 C2647 0.930 . S
C2638 H2632 0.930 . S
C2638 C2639 1.355 . S
C2638 C2640 1.415 . S
C2639 C2638 1.355 . S
C2639 C2641 1.419 . S
C2640 C2638 1.415 . S
C2640 C2645 1.425 . S
C2640 C2647 1.409 . S
C2641 H2633 0.930 . S
C2641 C2639 1.419 . S
C2641 C2642 1.362 . S
C2642 H2634 0.930 . S
C2642 C2641 1.362 . S
C2642 C2645 1.409 . S
C2643 H2635 0.930 . S
C2643 C2644 1.355 . S
C2643 C2645 1.415 . S
C2644 C2643 1.355 . S
C2644 C2646 1.419 . S
C2645 C2640 1.425 . S
C2645 C2642 1.409 . S
C2645 C2643 1.415 . S
C2646 H2636 0.930 . S
C2646 C2644 1.419 . S
C2646 C2647 1.362 . S
C2647 H2637 0.930 . S
C2647 C2640 1.409 . S
C2647 C2646 1.362 . S
H2648 C2654 0.930 . S
H2649 C2657 0.930 . S
H2650 C2658 0.930 . S
H2651 C2659 0.930 . S
H2652 C2662 0.930 . S
H2653 C2663 0.930 . S
C2654 H2648 0.930 . S
C2654 C2655 1.355 . S
C2654 C2656 1.415 . S
C2655 C2654 1.355 . S
C2655 C2657 1.419 . S
C2656 C2654 1.415 . S
C2656 C2661 1.425 . S
C2656 C2663 1.409 . S
C2657 H2649 0.930 . S
C2657 C2655 1.419 . S
C2657 C2658 1.362 . S
C2658 H2650 0.930 . S
C2658 C2657 1.362 . S
C2658 C2661 1.409 . S
C2659 H2651 0.930 . S
C2659 C2660 1.355 . S
C2659 C2661 1.415 . S
C2660 C2659 1.355 . S
C2660 C2662 1.419 . S
C2661 C2656 1.425 . S
C2661 C2658 1.409 . S
C2661 C2659 1.415 . S
C2662 H2652 0.930 . S
C2662 C2660 1.419 . S
C2662 C2663 1.362 . S
C2663 H2653 0.930 . S
C2663 C2656 1.409 . S
C2663 C2662 1.362 . S
H2664 C2670 0.930 . S
H2665 C2673 0.930 . S
H2666 C2674 0.930 . S
H2667 C2675 0.930 . S
H2668 C2678 0.930 . S
H2669 C2679 0.930 . S
C2670 H2664 0.930 . S
C2670 C2671 1.355 . S
C2670 C2672 1.415 . S
C2671 C2670 1.355 . S
C2671 C2673 1.419 . S
C2672 C2670 1.415 . S
C2672 C2677 1.425 . S
C2672 C2679 1.409 . S
C2673 H2665 0.930 . S
C2673 C2671 1.419 . S
C2673 C2674 1.362 . S
C2674 H2666 0.930 . S
C2674 C2673 1.362 . S
C2674 C2677 1.409 . S
C2675 H2667 0.930 . S
C2675 C2676 1.355 . S
C2675 C2677 1.415 . S
C2676 C2675 1.355 . S
C2676 C2678 1.419 . S
C2677 C2672 1.425 . S
C2677 C2674 1.409 . S
C2677 C2675 1.415 . S
C2678 H2668 0.930 . S
C2678 C2676 1.419 . S
C2678 C2679 1.362 . S
C2679 H2669 0.930 . S
C2679 C2672 1.409 . S
C2679 C2678 1.362 . S
H2680 C2686 0.930 . S
H2681 C2689 0.930 . S
H2682 C2690 0.930 . S
H2683 C2691 0.930 . S
H2684 C2694 0.930 . S
H2685 C2695 0.930 . S
C2686 H2680 0.930 . S
C2686 C2687 1.355 . S
C2686 C2688 1.415 . S
C2687 C2686 1.355 . S
C2687 C2689 1.419 . S
C2688 C2686 1.415 . S
C2688 C2693 1.425 . S
C2688 C2695 1.409 . S
C2689 H2681 0.930 . S
C2689 C2687 1.419 . S
C2689 C2690 1.362 . S
C2690 H2682 0.930 . S
C2690 C2689 1.362 . S
C2690 C2693 1.409 . S
C2691 H2683 0.930 . S
C2691 C2692 1.355 . S
C2691 C2693 1.415 . S
C2692 C2691 1.355 . S
C2692 C2694 1.419 . S
C2693 C2688 1.425 . S
C2693 C2690 1.409 . S
C2693 C2691 1.415 . S
C2694 H2684 0.930 . S
C2694 C2692 1.419 . S
C2694 C2695 1.362 . S
C2695 H2685 0.930 . S
C2695 C2688 1.409 . S
C2695 C2694 1.362 . S
H2696 C2702 0.930 . S
H2697 C2705 0.930 . S
H2698 C2706 0.930 . S
H2699 C2707 0.930 . S
H2700 C2710 0.930 . S
H2701 C2711 0.930 . S
C2702 H2696 0.930 . S
C2702 C2703 1.355 . S
C2702 C2704 1.415 . S
C2703 C2702 1.355 . S
C2703 C2705 1.419 . S
C2704 C2702 1.415 . S
C2704 C2709 1.425 . S
C2704 C2711 1.409 . S
C2705 H2697 0.930 . S
C2705 C2703 1.419 . S
C2705 C2706 1.362 . S
C2706 H2698 0.930 . S
C2706 C2705 1.362 . S
C2706 C2709 1.409 . S
C2707 H2699 0.930 . S
C2707 C2708 1.355 . S
C2707 C2709 1.415 . S
C2708 C2707 1.355 . S
C2708 C2710 1.419 . S
C2709 C2704 1.425 . S
C2709 C2706 1.409 . S
C2709 C2707 1.415 . S
C2710 H2700 0.930 . S
C2710 C2708 1.419 . S
C2710 C2711 1.362 . S
C2711 H2701 0.930 . S
C2711 C2704 1.409 . S
C2711 C2710 1.362 . S
H2712 C2718 0.930 . S
H2713 C2721 0.930 . S
H2714 C2722 0.930 . S
H2715 C2723 0.930 . S
H2716 C2726 0.930 . S
H2717 C2727 0.930 . S
C2718 H2712 0.930 . S
C2718 C2719 1.355 . S
C2718 C2720 1.415 . S
C2719 C2718 1.355 . S
C2719 C2721 1.419 . S
C2720 C2718 1.415 . S
C2720 C2725 1.425 . S
C2720 C2727 1.409 . S
C2721 H2713 0.930 . S
C2721 C2719 1.419 . S
C2721 C2722 1.362 . S
C2722 H2714 0.930 . S
C2722 C2721 1.362 . S
C2722 C2725 1.409 . S
C2723 H2715 0.930 . S
C2723 C2724 1.355 . S
C2723 C2725 1.415 . S
C2724 C2723 1.355 . S
C2724 C2726 1.419 . S
C2725 C2720 1.425 . S
C2725 C2722 1.409 . S
C2725 C2723 1.415 . S
C2726 H2716 0.930 . S
C2726 C2724 1.419 . S
C2726 C2727 1.362 . S
C2727 H2717 0.930 . S
C2727 C2720 1.409 . S
C2727 C2726 1.362 . S
H2728 C2734 0.930 . S
H2729 C2737 0.930 . S
H2730 C2738 0.930 . S
H2731 C2739 0.891 1_556 S
H2732 C2742 0.930 . S
H2733 C2743 0.930 . S
C2734 H2728 0.930 . S
C2734 C2735 1.355 . S
C2734 C2736 1.415 . S
C2735 C2734 1.355 . S
C2735 C2737 1.419 1_554 S
C2736 C2734 1.415 . S
C2736 C2741 1.425 1_565 S
C2736 C2743 1.409 . S
C2737 H2729 0.930 . S
C2737 C2735 1.419 1_556 S
C2737 C2738 1.362 1_565 S
C2738 H2730 0.930 . S
C2738 C2737 1.362 1_545 S
C2738 C2741 1.409 1_556 S
C2739 H2731 0.891 1_554 S
C2739 C2740 1.381 . S
C2739 C2741 1.427 . S
C2740 C2739 1.381 . S
C2740 C2742 1.419 1_545 S
C2741 C2736 1.425 1_545 S
C2741 C2738 1.409 1_554 S
C2741 C2739 1.427 . S
C2742 H2732 0.930 . S
C2742 C2740 1.419 1_565 S
C2742 C2743 1.362 . S
C2743 H2733 0.930 . S
C2743 C2736 1.409 . S
C2743 C2742 1.362 . S
H2744 C2750 0.930 . S
H2745 C2753 0.930 . S
H2746 C2754 0.930 . S
H2747 C2755 0.930 . S
H2748 C2758 0.930 . S
H2749 C2759 0.930 . S
C2750 H2744 0.930 . S
C2750 C2751 1.355 . S
C2750 C2752 1.415 . S
C2751 C2750 1.355 . S
C2751 C2753 1.419 . S
C2752 C2750 1.415 . S
C2752 C2757 1.425 . S
C2752 C2759 1.409 . S
C2753 H2745 0.930 . S
C2753 C2751 1.419 . S
C2753 C2754 1.362 . S
C2754 H2746 0.930 . S
C2754 C2753 1.362 . S
C2754 C2757 1.409 . S
C2755 H2747 0.930 . S
C2755 C2756 1.355 . S
C2755 C2757 1.415 . S
C2756 C2755 1.355 . S
C2756 C2758 1.419 . S
C2757 C2752 1.425 . S
C2757 C2754 1.409 . S
C2757 C2755 1.415 . S
C2758 H2748 0.930 . S
C2758 C2756 1.419 . S
C2758 C2759 1.362 . S
C2759 H2749 0.930 . S
C2759 C2752 1.409 . S
C2759 C2758 1.362 . S
H2760 C2766 0.930 . S
H2761 C2769 0.930 . S
H2762 C2770 0.930 . S
H2763 C2771 0.930 . S
H2764 C2774 0.930 . S
H2765 C2775 0.930 . S
C2766 H2760 0.930 . S
C2766 C2767 1.355 1_554 S
C2766 C2768 1.415 . S
C2767 C2766 1.355 1_556 S
C2767 C2769 1.419 . S
C2768 C2766 1.415 . S
C2768 C2773 1.425 . S
C2768 C2775 1.409 . S
C2769 H2761 0.930 . S
C2769 C2767 1.419 . S
C2769 C2770 1.362 . S
C2770 H2762 0.930 . S
C2770 C2769 1.362 . S
C2770 C2773 1.409 1_556 S
C2771 H2763 0.930 . S
C2771 C2772 1.355 . S
C2771 C2773 1.415 . S
C2772 C2771 1.355 . S
C2772 C2774 1.419 . S
C2773 C2768 1.425 . S
C2773 C2770 1.409 1_554 S
C2773 C2771 1.415 . S
C2774 H2764 0.930 . S
C2774 C2772 1.419 . S
C2774 C2775 1.362 . S
C2775 H2765 0.930 . S
C2775 C2768 1.409 . S
C2775 C2774 1.362 . S
H2776 C2782 0.930 . S
H2777 C2785 0.930 . S
H2778 C2786 0.930 . S
H2779 C2787 0.930 . S
H2780 C2790 0.930 . S
H2781 C2791 0.930 . S
C2782 H2776 0.930 . S
C2782 C2783 1.355 . S
C2782 C2784 1.415 . S
C2783 C2782 1.355 . S
C2783 C2785 1.419 . S
C2784 C2782 1.415 . S
C2784 C2789 1.425 . S
C2784 C2791 1.409 . S
C2785 H2777 0.930 . S
C2785 C2783 1.419 . S
C2785 C2786 1.362 . S
C2786 H2778 0.930 . S
C2786 C2785 1.362 . S
C2786 C2789 1.409 . S
C2787 H2779 0.930 . S
C2787 C2788 1.355 . S
C2787 C2789 1.415 . S
C2788 C2787 1.355 . S
C2788 C2790 1.419 . S
C2789 C2784 1.425 . S
C2789 C2786 1.409 . S
C2789 C2787 1.415 . S
C2790 H2780 0.930 . S
C2790 C2788 1.419 . S
C2790 C2791 1.362 . S
C2791 H2781 0.930 . S
C2791 C2784 1.409 . S
C2791 C2790 1.362 . S
H2792 C2798 0.930 . S
H2793 C2801 0.930 . S
H2794 C2802 0.930 . S
H2795 C2803 0.930 . S
H2796 C2806 0.930 . S
H2797 C2807 0.930 . S
C2798 H2792 0.930 . S
C2798 C2799 1.355 . S
C2798 C2800 1.415 . S
C2799 C2798 1.355 . S
C2799 C2801 1.419 . S
C2800 C2798 1.415 . S
C2800 C2805 1.425 . S
C2800 C2807 1.409 . S
C2801 H2793 0.930 . S
C2801 C2799 1.419 . S
C2801 C2802 1.362 . S
C2802 H2794 0.930 . S
C2802 C2801 1.362 . S
C2802 C2805 1.409 . S
C2803 H2795 0.930 . S
C2803 C2804 1.355 . S
C2803 C2805 1.415 . S
C2804 C2803 1.355 . S
C2804 C2806 1.419 . S
C2805 C2800 1.425 . S
C2805 C2802 1.409 . S
C2805 C2803 1.415 . S
C2806 H2796 0.930 . S
C2806 C2804 1.419 . S
C2806 C2807 1.362 . S
C2807 H2797 0.930 . S
C2807 C2800 1.409 . S
C2807 C2806 1.362 . S
H2808 C2814 0.930 . S
H2809 C2817 0.930 . S
H2810 C2818 0.930 . S
H2811 C2819 0.930 . S
H2812 C2822 0.930 . S
H2813 C2823 0.930 . S
C2814 H2808 0.930 . S
C2814 C2815 1.355 . S
C2814 C2816 1.415 . S
C2815 C2814 1.355 . S
C2815 C2817 1.419 . S
C2816 C2814 1.415 . S
C2816 C2821 1.425 . S
C2816 C2823 1.409 . S
C2817 H2809 0.930 . S
C2817 C2815 1.419 . S
C2817 C2818 1.362 . S
C2818 H2810 0.930 . S
C2818 C2817 1.362 . S
C2818 C2821 1.409 . S
C2819 H2811 0.930 . S
C2819 C2820 1.355 . S
C2819 C2821 1.415 . S
C2820 C2819 1.355 . S
C2820 C2822 1.419 . S
C2821 C2816 1.425 . S
C2821 C2818 1.409 . S
C2821 C2819 1.415 . S
C2822 H2812 0.930 . S
C2822 C2820 1.419 . S
C2822 C2823 1.362 . S
C2823 H2813 0.930 . S
C2823 C2816 1.409 . S
C2823 C2822 1.362 . S
H2824 C2830 0.930 . S
H2825 C2833 0.930 . S
H2826 C2834 0.930 . S
H2827 C2835 0.930 . S
H2828 C2838 0.930 . S
H2829 C2839 0.930 . S
C2830 H2824 0.930 . S
C2830 C2831 1.355 . S
C2830 C2832 1.415 . S
C2831 C2830 1.355 . S
C2831 C2833 1.419 . S
C2832 C2830 1.415 . S
C2832 C2837 1.425 . S
C2832 C2839 1.409 . S
C2833 H2825 0.930 . S
C2833 C2831 1.419 . S
C2833 C2834 1.362 . S
C2834 H2826 0.930 . S
C2834 C2833 1.362 . S
C2834 C2837 1.409 . S
C2835 H2827 0.930 . S
C2835 C2836 1.355 . S
C2835 C2837 1.415 . S
C2836 C2835 1.355 . S
C2836 C2838 1.419 . S
C2837 C2832 1.425 . S
C2837 C2834 1.409 . S
C2837 C2835 1.415 . S
C2838 H2828 0.930 . S
C2838 C2836 1.419 . S
C2838 C2839 1.362 . S
C2839 H2829 0.930 . S
C2839 C2832 1.409 . S
C2839 C2838 1.362 . S
H2840 C2846 0.930 . S
H2841 C2849 0.930 . S
H2842 C2850 0.930 . S
H2843 C2851 0.930 . S
H2844 C2854 0.930 . S
H2845 C2855 0.930 . S
C2846 H2840 0.930 . S
C2846 C2847 1.355 . S
C2846 C2848 1.415 . S
C2847 C2846 1.355 . S
C2847 C2849 1.419 . S
C2848 C2846 1.415 . S
C2848 C2853 1.425 . S
C2848 C2855 1.409 . S
C2849 H2841 0.930 . S
C2849 C2847 1.419 . S
C2849 C2850 1.362 . S
C2850 H2842 0.930 . S
C2850 C2849 1.362 . S
C2850 C2853 1.409 . S
C2851 H2843 0.930 . S
C2851 C2852 1.355 . S
C2851 C2853 1.415 . S
C2852 C2851 1.355 . S
C2852 C2854 1.419 . S
C2853 C2848 1.425 . S
C2853 C2850 1.409 . S
C2853 C2851 1.415 . S
C2854 H2844 0.930 . S
C2854 C2852 1.419 . S
C2854 C2855 1.362 . S
C2855 H2845 0.930 . S
C2855 C2848 1.409 . S
C2855 C2854 1.362 . S
H2856 C2862 0.930 . S
H2857 C2865 0.930 . S
H2858 C2866 0.930 . S
H2859 C2867 0.930 . S
H2860 C2870 0.930 . S
H2861 C2871 0.930 . S
C2862 H2856 0.930 . S
C2862 C2863 1.355 . S
C2862 C2864 1.415 . S
C2863 C2862 1.355 . S
C2863 C2865 1.419 . S
C2864 C2862 1.415 . S
C2864 C2869 1.425 . S
C2864 C2871 1.409 . S
C2865 H2857 0.930 . S
C2865 C2863 1.419 . S
C2865 C2866 1.362 . S
C2866 H2858 0.930 . S
C2866 C2865 1.362 . S
C2866 C2869 1.409 . S
C2867 H2859 0.930 . S
C2867 C2868 1.355 . S
C2867 C2869 1.415 . S
C2868 C2867 1.355 . S
C2868 C2870 1.419 . S
C2869 C2864 1.425 . S
C2869 C2866 1.409 . S
C2869 C2867 1.415 . S
C2870 H2860 0.930 . S
C2870 C2868 1.419 . S
C2870 C2871 1.362 . S
C2871 H2861 0.930 . S
C2871 C2864 1.409 . S
C2871 C2870 1.362 . S
H2872 C2878 0.930 . S
H2873 C2881 0.930 . S
H2874 C2882 0.930 . S
H2875 C2883 0.930 . S
H2876 C2886 0.930 1_554 S
H2877 C2887 0.930 . S
C2878 H2872 0.930 . S
C2878 C2879 1.355 . S
C2878 C2880 1.415 . S
C2879 C2878 1.355 . S
C2879 C2881 1.419 . S
C2880 C2878 1.415 . S
C2880 C2885 1.425 . S
C2880 C2887 1.409 . S
C2881 H2873 0.930 . S
C2881 C2879 1.419 . S
C2881 C2882 1.362 . S
C2882 H2874 0.930 . S
C2882 C2881 1.362 . S
C2882 C2885 1.409 . S
C2883 H2875 0.930 . S
C2883 C2884 1.355 . S
C2883 C2885 1.415 . S
C2884 C2883 1.355 . S
C2884 C2886 1.419 . S
C2885 C2880 1.425 . S
C2885 C2882 1.409 . S
C2885 C2883 1.415 . S
C2886 H2876 0.930 1_556 S
C2886 C2884 1.419 . S
C2886 C2887 1.362 . S
C2887 H2877 0.930 . S
C2887 C2880 1.409 . S
C2887 C2886 1.362 . S
H2888 C2894 0.930 . S
H2889 C2897 0.930 . S
H2890 C2898 0.930 . S
H2891 C2899 0.930 . S
H2892 C2902 0.930 . S
H2893 C2903 0.930 . S
C2894 H2888 0.930 . S
C2894 C2895 1.355 . S
C2894 C2896 1.415 . S
C2895 C2894 1.355 . S
C2895 C2897 1.419 . S
C2896 C2894 1.415 . S
C2896 C2901 1.425 . S
C2896 C2903 1.409 . S
C2897 H2889 0.930 . S
C2897 C2895 1.419 . S
C2897 C2898 1.362 . S
C2898 H2890 0.930 . S
C2898 C2897 1.362 . S
C2898 C2901 1.409 . S
C2899 H2891 0.930 . S
C2899 C2900 1.355 . S
C2899 C2901 1.415 . S
C2900 C2899 1.355 . S
C2900 C2902 1.419 . S
C2901 C2896 1.425 . S
C2901 C2898 1.409 . S
C2901 C2899 1.415 . S
C2902 H2892 0.930 . S
C2902 C2900 1.419 . S
C2902 C2903 1.362 . S
C2903 H2893 0.930 . S
C2903 C2896 1.409 . S
C2903 C2902 1.362 . S
H2904 C2910 0.930 . S
H2905 C2913 0.930 . S
H2906 C2914 0.930 . S
H2907 C2915 0.930 . S
H2908 C2918 0.930 . S
H2909 C2919 0.930 . S
C2910 H2904 0.930 . S
C2910 C2911 1.355 . S
C2910 C2912 1.415 . S
C2911 C2910 1.355 . S
C2911 C2913 1.419 . S
C2912 C2910 1.415 . S
C2912 C2917 1.425 . S
C2912 C2919 1.409 . S
C2913 H2905 0.930 . S
C2913 C2911 1.419 . S
C2913 C2914 1.362 . S
C2914 H2906 0.930 . S
C2914 C2913 1.362 . S
C2914 C2917 1.409 . S
C2915 H2907 0.930 . S
C2915 C2916 1.355 . S
C2915 C2917 1.415 . S
C2916 C2915 1.355 . S
C2916 C2918 1.419 . S
C2917 C2912 1.425 . S
C2917 C2914 1.409 . S
C2917 C2915 1.415 . S
C2918 H2908 0.930 . S
C2918 C2916 1.419 . S
C2918 C2919 1.362 . S
C2919 H2909 0.930 . S
C2919 C2912 1.409 . S
C2919 C2918 1.362 . S
H2920 C2926 0.930 . S
H2921 C2929 0.930 . S
H2922 C2930 0.930 . S
H2923 C2931 0.930 . S
H2924 C2934 0.930 . S
H2925 C2935 0.930 . S
C2926 H2920 0.930 . S
C2926 C2927 1.355 . S
C2926 C2928 1.415 . S
C2927 C2926 1.355 . S
C2927 C2929 1.419 . S
C2928 C2926 1.415 . S
C2928 C2933 1.425 . S
C2928 C2935 1.409 . S
C2929 H2921 0.930 . S
C2929 C2927 1.419 . S
C2929 C2930 1.362 . S
C2930 H2922 0.930 . S
C2930 C2929 1.362 . S
C2930 C2933 1.409 . S
C2931 H2923 0.930 . S
C2931 C2932 1.355 . S
C2931 C2933 1.415 . S
C2932 C2931 1.355 . S
C2932 C2934 1.419 . S
C2933 C2928 1.425 . S
C2933 C2930 1.409 . S
C2933 C2931 1.415 . S
C2934 H2924 0.930 . S
C2934 C2932 1.419 . S
C2934 C2935 1.362 . S
C2935 H2925 0.930 . S
C2935 C2928 1.409 . S
C2935 C2934 1.362 . S
H2936 C2942 0.930 . S
H2937 C2945 0.930 . S
H2938 C2946 0.930 . S
H2939 C2947 0.930 . S
H2940 C2950 0.930 . S
H2941 C2951 0.930 . S
C2942 H2936 0.930 . S
C2942 C2943 1.355 . S
C2942 C2944 1.415 . S
C2943 C2942 1.355 . S
C2943 C2945 1.419 . S
C2944 C2942 1.415 . S
C2944 C2949 1.425 . S
C2944 C2951 1.409 . S
C2945 H2937 0.930 . S
C2945 C2943 1.419 . S
C2945 C2946 1.362 . S
C2946 H2938 0.930 . S
C2946 C2945 1.362 . S
C2946 C2949 1.409 . S
C2947 H2939 0.930 . S
C2947 C2948 1.355 . S
C2947 C2949 1.415 . S
C2948 C2947 1.355 . S
C2948 C2950 1.419 . S
C2949 C2944 1.425 . S
C2949 C2946 1.409 . S
C2949 C2947 1.415 . S
C2950 H2940 0.930 . S
C2950 C2948 1.419 . S
C2950 C2951 1.362 . S
C2951 H2941 0.930 . S
C2951 C2944 1.409 . S
C2951 C2950 1.362 . S
H2952 C2958 0.930 . S
H2953 C2961 0.930 . S
H2954 C2962 0.930 . S
H2955 C2963 0.930 . S
H2956 C2966 0.930 . S
H2957 C2967 0.930 . S
C2958 H2952 0.930 . S
C2958 C2959 1.355 . S
C2958 C2960 1.415 . S
C2959 C2958 1.355 . S
C2959 C2961 1.419 . S
C2960 C2958 1.415 . S
C2960 C2965 1.425 . S
C2960 C2967 1.409 . S
C2961 H2953 0.930 . S
C2961 C2959 1.419 . S
C2961 C2962 1.362 . S
C2962 H2954 0.930 . S
C2962 C2961 1.362 . S
C2962 C2965 1.409 . S
C2963 H2955 0.930 . S
C2963 C2964 1.355 . S
C2963 C2965 1.415 . S
C2964 C2963 1.355 . S
C2964 C2966 1.419 . S
C2965 C2960 1.425 . S
C2965 C2962 1.409 . S
C2965 C2963 1.415 . S
C2966 H2956 0.930 . S
C2966 C2964 1.419 . S
C2966 C2967 1.362 . S
C2967 H2957 0.930 . S
C2967 C2960 1.409 . S
C2967 C2966 1.362 . S
H2968 C2974 0.930 . S
H2969 C2977 0.930 . S
H2970 C2978 0.930 . S
H2971 C2979 0.930 . S
H2972 C2982 0.930 . S
H2973 C2983 0.930 1_655 S
C2974 H2968 0.930 . S
C2974 C2975 1.355 . S
C2974 C2976 1.415 . S
C2975 C2974 1.355 . S
C2975 C2977 1.419 . S
C2976 C2974 1.415 . S
C2976 C2981 1.448 . S
C2976 C2983 1.409 1_655 S
C2977 H2969 0.930 . S
C2977 C2975 1.419 . S
C2977 C2978 1.362 . S
C2978 H2970 0.930 . S
C2978 C2977 1.362 . S
C2978 C2981 1.417 . S
C2979 H2971 0.930 . S
C2979 C2980 1.355 . S
C2979 C2981 1.386 1_455 S
C2980 C2979 1.355 . S
C2980 C2982 1.419 . S
C2981 C2976 1.448 . S
C2981 C2978 1.417 . S
C2981 C2979 1.386 1_655 S
C2982 H2972 0.930 . S
C2982 C2980 1.419 . S
C2982 C2983 1.362 . S
C2983 H2973 0.930 1_455 S
C2983 C2976 1.409 1_455 S
C2983 C2982 1.362 . S
H2984 C2990 0.930 . S
H2985 C2993 0.930 . S
H2986 C2994 0.930 . S
H2987 C2995 0.930 . S
H2988 C2998 0.930 . S
H2989 C2999 0.930 . S
C2990 H2984 0.930 . S
C2990 C2991 1.355 . S
C2990 C2992 1.415 . S
C2991 C2990 1.355 . S
C2991 C2993 1.419 . S
C2992 C2990 1.415 . S
C2992 C2997 1.425 . S
C2992 C2999 1.409 . S
C2993 H2985 0.930 . S
C2993 C2991 1.419 . S
C2993 C2994 1.362 . S
C2994 H2986 0.930 . S
C2994 C2993 1.362 . S
C2994 C2997 1.409 . S
C2995 H2987 0.930 . S
C2995 C2996 1.355 . S
C2995 C2997 1.415 . S
C2996 C2995 1.355 . S
C2996 C2998 1.419 . S
C2997 C2992 1.425 . S
C2997 C2994 1.409 . S
C2997 C2995 1.415 . S
C2998 H2988 0.930 . S
C2998 C2996 1.419 . S
C2998 C2999 1.362 . S
C2999 H2989 0.930 . S
C2999 C2992 1.409 . S
C2999 C2998 1.362 . S
H3000 C3006 0.930 . S
H3001 C3009 0.930 . S
H3002 C3010 0.930 . S
H3003 C3011 0.930 . S
H3004 C3014 0.930 . S
H3005 C3015 0.930 . S
C3006 H3000 0.930 . S
C3006 C3007 1.355 . S
C3006 C3008 1.415 . S
C3007 C3006 1.355 . S
C3007 C3009 1.419 . S
C3008 C3006 1.415 . S
C3008 C3013 1.425 . S
C3008 C3015 1.409 . S
C3009 H3001 0.930 . S
C3009 C3007 1.419 . S
C3009 C3010 1.362 . S
C3010 H3002 0.930 . S
C3010 C3009 1.362 . S
C3010 C3013 1.409 . S
C3011 H3003 0.930 . S
C3011 C3012 1.355 . S
C3011 C3013 1.415 . S
C3012 C3011 1.355 . S
C3012 C3014 1.419 . S
C3013 C3008 1.425 . S
C3013 C3010 1.409 . S
C3013 C3011 1.415 . S
C3014 H3004 0.930 . S
C3014 C3012 1.419 . S
C3014 C3015 1.362 . S
C3015 H3005 0.930 . S
C3015 C3008 1.409 . S
C3015 C3014 1.362 . S
H3016 C3022 0.930 . S
H3017 C3025 0.930 . S
H3018 C3026 0.930 . S
H3019 C3027 0.930 . S
H3020 C3030 0.930 . S
H3021 C3031 0.930 . S
C3022 H3016 0.930 . S
C3022 C3023 1.355 . S
C3022 C3024 1.415 . S
C3023 C3022 1.355 . S
C3023 C3025 1.419 . S
C3024 C3022 1.415 . S
C3024 C3029 1.425 . S
C3024 C3031 1.409 . S
C3025 H3017 0.930 . S
C3025 C3023 1.419 . S
C3025 C3026 1.362 . S
C3026 H3018 0.930 . S
C3026 C3025 1.362 . S
C3026 C3029 1.409 . S
C3027 H3019 0.930 . S
C3027 C3028 1.355 . S
C3027 C3029 1.415 . S
C3028 C3027 1.355 . S
C3028 C3030 1.419 . S
C3029 C3024 1.425 . S
C3029 C3026 1.409 . S
C3029 C3027 1.415 . S
C3030 H3020 0.930 . S
C3030 C3028 1.419 . S
C3030 C3031 1.362 . S
C3031 H3021 0.930 . S
C3031 C3024 1.409 . S
C3031 C3030 1.362 . S
H3032 C3038 0.930 . S
H3033 C3041 0.930 . S
H3034 C3042 0.930 . S
H3035 C3043 0.930 . S
H3036 C3046 0.930 . S
H3037 C3047 0.930 . S
C3038 H3032 0.930 . S
C3038 C3039 1.355 . S
C3038 C3040 1.415 . S
C3039 C3038 1.355 . S
C3039 C3041 1.419 . S
C3040 C3038 1.415 . S
C3040 C3045 1.425 . S
C3040 C3047 1.409 . S
C3041 H3033 0.930 . S
C3041 C3039 1.419 . S
C3041 C3042 1.362 . S
C3042 H3034 0.930 . S
C3042 C3041 1.362 . S
C3042 C3045 1.409 . S
C3043 H3035 0.930 . S
C3043 C3044 1.355 . S
C3043 C3045 1.415 . S
C3044 C3043 1.355 . S
C3044 C3046 1.419 . S
C3045 C3040 1.425 . S
C3045 C3042 1.409 . S
C3045 C3043 1.415 . S
C3046 H3036 0.930 . S
C3046 C3044 1.419 . S
C3046 C3047 1.362 . S
C3047 H3037 0.930 . S
C3047 C3040 1.409 . S
C3047 C3046 1.362 . S
H3048 C3054 0.930 . S
H3049 C3057 0.930 . S
H3050 C3058 0.930 . S
H3051 C3059 0.930 . S
H3052 C3062 0.930 . S
H3053 C3063 0.930 . S
C3054 H3048 0.930 . S
C3054 C3055 1.355 . S
C3054 C3056 1.415 . S
C3055 C3054 1.355 . S
C3055 C3057 1.419 . S
C3056 C3054 1.415 . S
C3056 C3061 1.425 . S
C3056 C3063 1.409 . S
C3057 H3049 0.930 . S
C3057 C3055 1.419 . S
C3057 C3058 1.362 . S
C3058 H3050 0.930 . S
C3058 C3057 1.362 . S
C3058 C3061 1.409 . S
C3059 H3051 0.930 . S
C3059 C3060 1.355 . S
C3059 C3061 1.415 . S
C3060 C3059 1.355 . S
C3060 C3062 1.419 . S
C3061 C3056 1.425 . S
C3061 C3058 1.409 . S
C3061 C3059 1.415 . S
C3062 H3052 0.930 . S
C3062 C3060 1.419 . S
C3062 C3063 1.362 . S
C3063 H3053 0.930 . S
C3063 C3056 1.409 . S
C3063 C3062 1.362 . S
H3064 C3070 0.930 . S
H3065 C3073 0.930 . S
H3066 C3074 0.930 . S
H3067 C3075 0.930 . S
H3068 C3078 0.930 . S
H3069 C3079 0.930 . S
C3070 H3064 0.930 . S
C3070 C3071 1.355 . S
C3070 C3072 1.415 . S
C3071 C3070 1.355 . S
C3071 C3073 1.419 . S
C3072 C3070 1.415 . S
C3072 C3077 1.425 . S
C3072 C3079 1.409 . S
C3073 H3065 0.930 . S
C3073 C3071 1.419 . S
C3073 C3074 1.362 . S
C3074 H3066 0.930 . S
C3074 C3073 1.362 . S
C3074 C3077 1.409 . S
C3075 H3067 0.930 . S
C3075 C3076 1.355 . S
C3075 C3077 1.415 . S
C3076 C3075 1.355 . S
C3076 C3078 1.419 . S
C3077 C3072 1.425 . S
C3077 C3074 1.409 . S
C3077 C3075 1.415 . S
C3078 H3068 0.930 . S
C3078 C3076 1.419 . S
C3078 C3079 1.362 . S
C3079 H3069 0.930 . S
C3079 C3072 1.409 . S
C3079 C3078 1.362 . S
H3080 C3086 0.930 . S
H3081 C3089 0.930 . S
H3082 C3090 0.930 . S
H3083 C3091 0.930 . S
H3084 C3094 0.931 1_545 S
H3085 C3095 0.930 . S
C3086 H3080 0.930 . S
C3086 C3087 1.355 . S
C3086 C3088 1.415 . S
C3087 C3086 1.355 . S
C3087 C3089 1.419 . S
C3088 C3086 1.415 . S
C3088 C3093 1.425 . S
C3088 C3095 1.409 . S
C3089 H3081 0.930 . S
C3089 C3087 1.419 . S
C3089 C3090 1.362 . S
C3090 H3082 0.930 . S
C3090 C3089 1.362 . S
C3090 C3093 1.409 . S
C3091 H3083 0.930 . S
C3091 C3092 1.355 . S
C3091 C3093 1.415 . S
C3092 C3091 1.355 . S
C3092 C3094 1.419 . S
C3093 C3088 1.425 . S
C3093 C3090 1.409 . S
C3093 C3091 1.415 . S
C3094 H3084 0.931 1_565 S
C3094 C3092 1.419 . S
C3094 C3095 1.362 . S
C3095 H3085 0.930 . S
C3095 C3088 1.409 . S
C3095 C3094 1.362 . S
H3096 C3102 0.930 . S
H3097 C3105 0.930 . S
H3098 C3106 0.930 . S
H3099 C3107 0.930 . S
H3100 C3110 0.930 . S
H3101 C3111 0.930 . S
C3102 H3096 0.930 . S
C3102 C3103 1.355 . S
C3102 C3104 1.415 . S
C3103 C3102 1.355 . S
C3103 C3105 1.419 . S
C3104 C3102 1.415 . S
C3104 C3109 1.425 . S
C3104 C3111 1.409 . S
C3105 H3097 0.930 . S
C3105 C3103 1.419 . S
C3105 C3106 1.362 . S
C3106 H3098 0.930 . S
C3106 C3105 1.362 . S
C3106 C3109 1.409 . S
C3107 H3099 0.930 . S
C3107 C3108 1.355 . S
C3107 C3109 1.415 . S
C3108 C3107 1.355 . S
C3108 C3110 1.419 . S
C3109 C3104 1.425 . S
C3109 C3106 1.409 . S
C3109 C3107 1.415 . S
C3110 H3100 0.930 . S
C3110 C3108 1.419 . S
C3110 C3111 1.362 . S
C3111 H3101 0.930 . S
C3111 C3104 1.409 . S
C3111 C3110 1.362 . S
H3112 C3118 0.930 . S
H3113 C3121 0.930 . S
H3114 C3122 0.930 . S
H3115 C3123 0.930 . S
H3116 C3126 0.930 . S
H3117 C3127 0.930 . S
C3118 H3112 0.930 . S
C3118 C3119 1.355 . S
C3118 C3120 1.415 . S
C3119 C3118 1.355 . S
C3119 C3121 1.419 . S
C3120 C3118 1.415 . S
C3120 C3125 1.425 . S
C3120 C3127 1.409 . S
C3121 H3113 0.930 . S
C3121 C3119 1.419 . S
C3121 C3122 1.362 . S
C3122 H3114 0.930 . S
C3122 C3121 1.362 . S
C3122 C3125 1.409 . S
C3123 H3115 0.930 . S
C3123 C3124 1.355 . S
C3123 C3125 1.415 . S
C3124 C3123 1.355 . S
C3124 C3126 1.419 . S
C3125 C3120 1.425 . S
C3125 C3122 1.409 . S
C3125 C3123 1.415 . S
C3126 H3116 0.930 . S
C3126 C3124 1.419 . S
C3126 C3127 1.362 . S
C3127 H3117 0.930 . S
C3127 C3120 1.409 . S
C3127 C3126 1.362 . S
H3128 C3134 0.930 . S
H3129 C3137 0.930 . S
H3130 C3138 0.930 . S
H3131 C3139 0.930 . S
H3132 C3142 0.930 . S
H3133 C3143 0.930 . S
C3134 H3128 0.930 . S
C3134 C3135 1.355 . S
C3134 C3136 1.415 . S
C3135 C3134 1.355 . S
C3135 C3137 1.419 . S
C3136 C3134 1.415 . S
C3136 C3141 1.425 . S
C3136 C3143 1.409 . S
C3137 H3129 0.930 . S
C3137 C3135 1.419 . S
C3137 C3138 1.362 . S
C3138 H3130 0.930 . S
C3138 C3137 1.362 . S
C3138 C3141 1.409 . S
C3139 H3131 0.930 . S
C3139 C3140 1.355 . S
C3139 C3141 1.415 . S
C3140 C3139 1.355 . S
C3140 C3142 1.419 . S
C3141 C3136 1.425 . S
C3141 C3138 1.409 . S
C3141 C3139 1.415 . S
C3142 H3132 0.930 . S
C3142 C3140 1.419 . S
C3142 C3143 1.362 . S
C3143 H3133 0.930 . S
C3143 C3136 1.409 . S
C3143 C3142 1.362 . S
H3144 C3150 0.908 1_556 S
H3145 C3153 0.930 . S
H3146 C3154 0.930 . S
H3147 C3155 0.930 . S
H3148 C3158 0.930 . S
H3149 C3159 0.930 . S
C3150 H3144 0.908 1_554 S
C3150 C3151 1.355 . S
C3150 C3152 1.415 . S
C3151 C3150 1.355 . S
C3151 C3153 1.419 . S
C3152 C3150 1.415 . S
C3152 C3157 1.425 . S
C3152 C3159 1.409 1_554 S
C3153 H3145 0.930 . S
C3153 C3151 1.419 . S
C3153 C3154 1.362 . S
C3154 H3146 0.930 . S
C3154 C3153 1.362 . S
C3154 C3157 1.409 . S
C3155 H3147 0.930 . S
C3155 C3156 1.321 1_554 S
C3155 C3157 1.415 . S
C3156 C3155 1.321 1_556 S
C3156 C3158 1.443 . S
C3157 C3152 1.425 . S
C3157 C3154 1.409 . S
C3157 C3155 1.415 . S
C3158 H3148 0.930 . S
C3158 C3156 1.443 . S
C3158 C3159 1.362 . S
C3159 H3149 0.930 . S
C3159 C3152 1.409 1_556 S
C3159 C3158 1.362 . S
H3160 C3166 0.930 . S
H3161 C3169 0.930 . S
H3162 C3170 0.930 . S
H3163 C3171 0.930 . S
H3164 C3174 0.930 . S
H3165 C3175 0.930 . S
C3166 H3160 0.930 . S
C3166 C3167 1.355 . S
C3166 C3168 1.415 . S
C3167 C3166 1.355 . S
C3167 C3169 1.419 . S
C3168 C3166 1.415 . S
C3168 C3173 1.425 . S
C3168 C3175 1.409 . S
C3169 H3161 0.930 . S
C3169 C3167 1.419 . S
C3169 C3170 1.362 . S
C3170 H3162 0.930 . S
C3170 C3169 1.362 . S
C3170 C3173 1.409 . S
C3171 H3163 0.930 . S
C3171 C3172 1.355 . S
C3171 C3173 1.415 . S
C3172 C3171 1.355 . S
C3172 C3174 1.419 . S
C3173 C3168 1.425 . S
C3173 C3170 1.409 . S
C3173 C3171 1.415 . S
C3174 H3164 0.930 . S
C3174 C3172 1.419 . S
C3174 C3175 1.362 . S
C3175 H3165 0.930 . S
C3175 C3168 1.409 . S
C3175 C3174 1.362 . S
H3176 C3182 0.930 . S
H3177 C3185 0.930 . S
H3178 C3186 0.930 . S
H3179 C3187 0.930 . S
H3180 C3190 0.930 . S
H3181 C3191 0.930 . S
C3182 H3176 0.930 . S
C3182 C3183 1.355 . S
C3182 C3184 1.415 . S
C3183 C3182 1.355 . S
C3183 C3185 1.419 . S
C3184 C3182 1.415 . S
C3184 C3189 1.425 . S
C3184 C3191 1.409 . S
C3185 H3177 0.930 . S
C3185 C3183 1.419 . S
C3185 C3186 1.362 . S
C3186 H3178 0.930 . S
C3186 C3185 1.362 . S
C3186 C3189 1.409 . S
C3187 H3179 0.930 . S
C3187 C3188 1.355 . S
C3187 C3189 1.415 . S
C3188 C3187 1.355 . S
C3188 C3190 1.419 . S
C3189 C3184 1.425 . S
C3189 C3186 1.409 . S
C3189 C3187 1.415 . S
C3190 H3180 0.930 . S
C3190 C3188 1.419 . S
C3190 C3191 1.362 . S
C3191 H3181 0.930 . S
C3191 C3184 1.409 . S
C3191 C3190 1.362 . S
C1663 C101 1.954 . S
C1668 C368 1.818 . S
C1679 C57 2.157 . S
C1684 C459 2.183 . S
C1695 C73 1.721 . S
C1700 C536 1.710 . S
C1716 C634 1.389 . S
C1711 C78 1.471 . S
C1727 C21 1.511 . S
C1732 C718 1.485 . S
C1748 C790 1.039 . S
C1743 C31 1.075 . S
C1764 C879 1.132 . S
C1759 C49 1.015 . S
C1775 C0 1.458 . S
C1780 C956 1.333 . S
C1796 C375 2.082 . S
C1791 C218 2.166 . S
C1807 C229 0.798 . S
C1812 C466 0.730 . S
C1828 C543 1.137 . S
C1823 C257 1.156 . S
C1844 C620 1.614 . S
C1839 C164 1.656 . S
C1855 C216 1.980 . S
C1860 C704 1.991 . S
C1876 C806 1.224 . S
C1871 C231 1.256 . S
C1892 C886 0.827 . S
C1887 C255 0.856 . S
C1908 C963 1.580 . S
C1903 C166 1.727 . S
C1924 C382 1.372 . S
C1919 C143 1.310 . S
C1935 C265 1.887 . S
C1940 C1047 1.876 1_556 S
C1956 C1135 2.166 . S
C1951 C299 2.330 . S
C1972 C1208 0.665 . S
C1967 C291 0.573 . S
C1983 C104 0.927 . S
C1988 C970 0.951 . S
C1999 C117 1.364 . S
C2004 C550 1.410 . S
C2015 C304 2.116 . S
C2020 C1299 2.126 . S
C2036 C1376 0.630 . S
C2031 C278 0.724 . S
C2052 C379 1.800 . S
C2047 C60 1.920 . S
C2068 C1394 2.079 . S
C2063 C96 2.160 . S
C2079 C88 1.676 . S
C2084 C547 1.643 . S
C2095 C65 1.392 . S
C2100 C1294 1.257 . S
C2116 C706 1.513 . S
C2111 C10 1.483 . S
C2127 C44 0.964 . S
C2132 C1138 0.892 . S
C2148 C890 1.000 . S
C2143 C34 0.810 . S
C2164 C1471 1.296 . S
C2159 C13 1.577 . S
C2180 C386 1.973 . S
C2175 C138 2.060 1_565 S
C2196 C1378 0.784 . S
C2191 C296 0.667 . S
C2207 C112 1.172 . S
C2212 C554 1.058 . S
C2223 C270 1.632 . S
C2228 C1303 1.582 . S
C2239 C140 2.084 . S
C2244 C715 1.944 . S
C2260 C1131 1.063 . S
C2255 C294 1.171 . S
C2271 C114 0.792 . S
C2276 C874 0.705 . S
C2287 C268 1.668 . S
C2292 C1478 1.525 . S
C2303 C169 1.394 . S
C2308 C370 1.337 1_554 S
C2319 C161 1.857 . S
C2324 C1058 1.827 . S
C2335 C234 2.320 . S
C2340 C788 2.141 . S
C2351 C226 0.545 . S
C2356 C1219 0.667 . S
C2372 C1462 1.104 . S
C2367 C247 1.073 1_565 S
C2383 C195 1.457 . S
C2388 C538 1.396 . S
C2404 C638 2.053 . S
C2399 C239 2.066 . S
C2420 C463 0.756 . S
C2415 C187 0.602 . S
C2431 C75 1.980 . S
C2436 C1544 1.874 . S
C2452 C1383 2.169 . S
C2447 C83 2.173 . S
C2463 C99 1.647 . S
C2468 C1628 1.721 . S
C2479 C52 1.435 . S
C2484 C1306 1.425 . S
C2495 C47 1.488 . S
C2500 C1054 1.494 . S
C2516 C1126 1.038 . S
C2511 C5 1.074 . S
C2532 C1215 1.098 . S
C2527 C23 1.113 . S
C2548 C1460 1.428 . S
C2543 C26 1.435 . S
C2564 C1551 2.053 . S
C2559 C244 2.159 . S
C2575 C177 0.734 . S
C2580 C1390 0.843 . S
C2596 C1635 1.148 . S
C2591 C192 1.154 . S
C2612 C1292 1.616 . S
C2607 C203 1.658 . S
C2628 C1040 1.947 . S
C2623 C242 1.983 . S
C2639 C179 1.267 . S
C2644 C1142 1.201 . S
C2660 C1222 0.718 . S
C2655 C190 0.856 . S
C2671 C205 1.721 . S
C2676 C1467 1.573 . S
C2692 C1558 1.393 . S
C2687 C286 1.357 . S
C2703 C122 1.923 . S
C2708 C711 1.845 . S
C2724 C799 2.166 . S
C2719 C130 2.353 . S
C2740 C872 0.569 . S
C2735 C148 0.738 . S
C2756 C1474 0.944 . S
C2751 C273 0.965 . S
C2767 C260 1.419 1_556 S
C2772 C1642 1.411 . S
C2788 C627 2.123 . S
C2783 C135 2.109 . S
C2804 C452 0.680 . S
C2799 C109 0.692 . S
C2815 C86 1.914 . S
C2820 C1555 1.833 . S
C2836 C470 2.114 . S
C2831 C70 2.153 . S
C2847 C62 1.682 . S
C2852 C1639 1.601 . S
C2863 C91 1.437 . S
C2868 C622 1.369 . S
C2879 C36 1.511 . S
C2884 C1042 1.480 . S
C2900 C802 0.984 . S
C2895 C18 0.971 . S
C2911 C8 0.883 . S
C2916 C1226 0.989 . S
C2927 C39 1.582 . S
C2932 C967 1.409 . S
C2948 C1562 1.970 . S
C2943 C307 2.062 . S
C2959 C153 0.691 . S
C2964 C454 0.661 . S
C2980 C1646 1.144 . S
C2975 C281 1.109 . S
C2991 C127 1.635 . S
C2996 C631 1.508 . S
C3007 C309 2.047 . S
C3012 C1051 1.888 . S
C3028 C795 1.084 . S
C3023 C151 1.171 . S
C3039 C283 0.770 . S
C3044 C1210 0.832 1_655 S
C3060 C974 1.493 . S
C3055 C125 1.672 . S
C3076 C1546 1.326 . S
C3071 C221 1.371 . S
C3092 C722 1.789 1_665 S
C3087 C200 1.862 . S
C3103 C208 2.317 . S
C3108 C1124 2.105 . S
C3124 C883 0.667 . S
C3119 C174 0.539 . S
C3135 C182 1.081 . S
C3140 C958 1.099 . S
C3151 C156 1.470 . S
C3156 C1630 1.440 . S
C3172 C1310 2.060 . S
C3167 C213 2.082 1_565 S
C3188 C1387 0.720 . S
C3183 C252 0.627 . S
