# Generated by pormake.
# Topology gar, (4,6)-cn, num edge types: 1
# Building blocks:
#     Node 0, Type 0, BuildingBlock: QUQFOY_clean_sbu_3, # of connection points: 4
#     Node 1, Type 0, BuildingBlock: QUQFOY_clean_sbu_3, # of connection points: 4
#     Node 2, Type 0, BuildingBlock: QUQFOY_clean_sbu_3, # of connection points: 4
#     Node 3, Type 0, BuildingBlock: QUQFOY_clean_sbu_3, # of connection points: 4
#     Node 4, Type 0, BuildingBlock: QUQFOY_clean_sbu_3, # of connection points: 4
#     Node 5, Type 0, BuildingBlock: QUQFOY_clean_sbu_3, # of connection points: 4
#     Node 6, Type 0, BuildingBlock: QUQFOY_clean_sbu_3, # of connection points: 4
#     Node 7, Type 0, BuildingBlock: QUQFOY_clean_sbu_3, # of connection points: 4
#     Node 8, Type 0, BuildingBlock: QUQFOY_clean_sbu_3, # of connection points: 4
#     Node 9, Type 0, BuildingBlock: QUQFOY_clean_sbu_3, # of connection points: 4
#     Node 10, Type 0, BuildingBlock: QUQFOY_clean_sbu_3, # of connection points: 4
#     Node 11, Type 0, BuildingBlock: QUQFOY_clean_sbu_3, # of connection points: 4
#     Node 12, Type 0, BuildingBlock: QUQFOY_clean_sbu_3, # of connection points: 4
#     Node 13, Type 0, BuildingBlock: QUQFOY_clean_sbu_3, # of connection points: 4
#     Node 14, Type 0, BuildingBlock: QUQFOY_clean_sbu_3, # of connection points: 4
#     Node 15, Type 0, BuildingBlock: QUQFOY_clean_sbu_3, # of connection points: 4
#     Node 16, Type 0, BuildingBlock: QUQFOY_clean_sbu_3, # of connection points: 4
#     Node 17, Type 0, BuildingBlock: QUQFOY_clean_sbu_3, # of connection points: 4
#     Node 18, Type 0, BuildingBlock: QUQFOY_clean_sbu_3, # of connection points: 4
#     Node 19, Type 0, BuildingBlock: QUQFOY_clean_sbu_3, # of connection points: 4
#     Node 20, Type 0, BuildingBlock: QUQFOY_clean_sbu_3, # of connection points: 4
#     Node 21, Type 0, BuildingBlock: QUQFOY_clean_sbu_3, # of connection points: 4
#     Node 22, Type 0, BuildingBlock: QUQFOY_clean_sbu_3, # of connection points: 4
#     Node 23, Type 0, BuildingBlock: QUQFOY_clean_sbu_3, # of connection points: 4
#     Node 24, Type 1, BuildingBlock: CUKXOW_clean_sbu_0, # of connection points: 6
#     Node 25, Type 1, BuildingBlock: CUKXOW_clean_sbu_0, # of connection points: 6
#     Node 26, Type 1, BuildingBlock: CUKXOW_clean_sbu_0, # of connection points: 6
#     Node 27, Type 1, BuildingBlock: CUKXOW_clean_sbu_0, # of connection points: 6
#     Node 28, Type 1, BuildingBlock: CUKXOW_clean_sbu_0, # of connection points: 6
#     Node 29, Type 1, BuildingBlock: CUKXOW_clean_sbu_0, # of connection points: 6
#     Node 30, Type 1, BuildingBlock: CUKXOW_clean_sbu_0, # of connection points: 6
#     Node 31, Type 1, BuildingBlock: CUKXOW_clean_sbu_0, # of connection points: 6
#     Node 32, Type 1, BuildingBlock: CUKXOW_clean_sbu_0, # of connection points: 6
#     Node 33, Type 1, BuildingBlock: CUKXOW_clean_sbu_0, # of connection points: 6
#     Node 34, Type 1, BuildingBlock: CUKXOW_clean_sbu_0, # of connection points: 6
#     Node 35, Type 1, BuildingBlock: CUKXOW_clean_sbu_0, # of connection points: 6
#     Node 36, Type 1, BuildingBlock: CUKXOW_clean_sbu_0, # of connection points: 6
#     Node 37, Type 1, BuildingBlock: CUKXOW_clean_sbu_0, # of connection points: 6
#     Node 38, Type 1, BuildingBlock: CUKXOW_clean_sbu_0, # of connection points: 6
#     Node 39, Type 1, BuildingBlock: CUKXOW_clean_sbu_0, # of connection points: 6
#     Edge 40, Type (0, 1), BuildingBlock: AJUNOK_clean_linker_0, # of connection points: 2
#     Edge 41, Type (0, 1), BuildingBlock: AJUNOK_clean_linker_0, # of connection points: 2
#     Edge 42, Type (0, 1), BuildingBlock: AJUNOK_clean_linker_0, # of connection points: 2
#     Edge 43, Type (0, 1), BuildingBlock: AJUNOK_clean_linker_0, # of connection points: 2
#     Edge 44, Type (0, 1), BuildingBlock: AJUNOK_clean_linker_0, # of connection points: 2
#     Edge 45, Type (0, 1), BuildingBlock: AJUNOK_clean_linker_0, # of connection points: 2
#     Edge 46, Type (0, 1), BuildingBlock: AJUNOK_clean_linker_0, # of connection points: 2
#     Edge 47, Type (0, 1), BuildingBlock: AJUNOK_clean_linker_0, # of connection points: 2
#     Edge 48, Type (0, 1), BuildingBlock: AJUNOK_clean_linker_0, # of connection points: 2
#     Edge 49, Type (0, 1), BuildingBlock: AJUNOK_clean_linker_0, # of connection points: 2
#     Edge 50, Type (0, 1), BuildingBlock: AJUNOK_clean_linker_0, # of connection points: 2
#     Edge 51, Type (0, 1), BuildingBlock: AJUNOK_clean_linker_0, # of connection points: 2
#     Edge 52, Type (0, 1), BuildingBlock: AJUNOK_clean_linker_0, # of connection points: 2
#     Edge 53, Type (0, 1), BuildingBlock: AJUNOK_clean_linker_0, # of connection points: 2
#     Edge 54, Type (0, 1), BuildingBlock: AJUNOK_clean_linker_0, # of connection points: 2
#     Edge 55, Type (0, 1), BuildingBlock: AJUNOK_clean_linker_0, # of connection points: 2
#     Edge 56, Type (0, 1), BuildingBlock: AJUNOK_clean_linker_0, # of connection points: 2
#     Edge 57, Type (0, 1), BuildingBlock: AJUNOK_clean_linker_0, # of connection points: 2
#     Edge 58, Type (0, 1), BuildingBlock: AJUNOK_clean_linker_0, # of connection points: 2
#     Edge 59, Type (0, 1), BuildingBlock: AJUNOK_clean_linker_0, # of connection points: 2
#     Edge 60, Type (0, 1), BuildingBlock: AJUNOK_clean_linker_0, # of connection points: 2
#     Edge 61, Type (0, 1), BuildingBlock: AJUNOK_clean_linker_0, # of connection points: 2
#     Edge 62, Type (0, 1), BuildingBlock: AJUNOK_clean_linker_0, # of connection points: 2
#     Edge 63, Type (0, 1), BuildingBlock: AJUNOK_clean_linker_0, # of connection points: 2
#     Edge 64, Type (0, 1), BuildingBlock: AJUNOK_clean_linker_0, # of connection points: 2
#     Edge 65, Type (0, 1), BuildingBlock: AJUNOK_clean_linker_0, # of connection points: 2
#     Edge 66, Type (0, 1), BuildingBlock: AJUNOK_clean_linker_0, # of connection points: 2
#     Edge 67, Type (0, 1), BuildingBlock: AJUNOK_clean_linker_0, # of connection points: 2
#     Edge 68, Type (0, 1), BuildingBlock: AJUNOK_clean_linker_0, # of connection points: 2
#     Edge 69, Type (0, 1), BuildingBlock: AJUNOK_clean_linker_0, # of connection points: 2
#     Edge 70, Type (0, 1), BuildingBlock: AJUNOK_clean_linker_0, # of connection points: 2
#     Edge 71, Type (0, 1), BuildingBlock: AJUNOK_clean_linker_0, # of connection points: 2
#     Edge 72, Type (0, 1), BuildingBlock: AJUNOK_clean_linker_0, # of connection points: 2
#     Edge 73, Type (0, 1), BuildingBlock: AJUNOK_clean_linker_0, # of connection points: 2
#     Edge 74, Type (0, 1), BuildingBlock: AJUNOK_clean_linker_0, # of connection points: 2
#     Edge 75, Type (0, 1), BuildingBlock: AJUNOK_clean_linker_0, # of connection points: 2
#     Edge 76, Type (0, 1), BuildingBlock: AJUNOK_clean_linker_0, # of connection points: 2
#     Edge 77, Type (0, 1), BuildingBlock: AJUNOK_clean_linker_0, # of connection points: 2
#     Edge 78, Type (0, 1), BuildingBlock: AJUNOK_clean_linker_0, # of connection points: 2
#     Edge 79, Type (0, 1), BuildingBlock: AJUNOK_clean_linker_0, # of connection points: 2
#     Edge 80, Type (0, 1), BuildingBlock: AJUNOK_clean_linker_0, # of connection points: 2
#     Edge 81, Type (0, 1), BuildingBlock: AJUNOK_clean_linker_0, # of connection points: 2
#     Edge 82, Type (0, 1), BuildingBlock: AJUNOK_clean_linker_0, # of connection points: 2
#     Edge 83, Type (0, 1), BuildingBlock: AJUNOK_clean_linker_0, # of connection points: 2
#     Edge 84, Type (0, 1), BuildingBlock: AJUNOK_clean_linker_0, # of connection points: 2
#     Edge 85, Type (0, 1), BuildingBlock: AJUNOK_clean_linker_0, # of connection points: 2
#     Edge 86, Type (0, 1), BuildingBlock: AJUNOK_clean_linker_0, # of connection points: 2
#     Edge 87, Type (0, 1), BuildingBlock: AJUNOK_clean_linker_0, # of connection points: 2
#     Edge 88, Type (0, 1), BuildingBlock: AJUNOK_clean_linker_0, # of connection points: 2
#     Edge 89, Type (0, 1), BuildingBlock: AJUNOK_clean_linker_0, # of connection points: 2
#     Edge 90, Type (0, 1), BuildingBlock: AJUNOK_clean_linker_0, # of connection points: 2
#     Edge 91, Type (0, 1), BuildingBlock: AJUNOK_clean_linker_0, # of connection points: 2
#     Edge 92, Type (0, 1), BuildingBlock: AJUNOK_clean_linker_0, # of connection points: 2
#     Edge 93, Type (0, 1), BuildingBlock: AJUNOK_clean_linker_0, # of connection points: 2
#     Edge 94, Type (0, 1), BuildingBlock: AJUNOK_clean_linker_0, # of connection points: 2
#     Edge 95, Type (0, 1), BuildingBlock: AJUNOK_clean_linker_0, # of connection points: 2
#     Edge 96, Type (0, 1), BuildingBlock: AJUNOK_clean_linker_0, # of connection points: 2
#     Edge 97, Type (0, 1), BuildingBlock: AJUNOK_clean_linker_0, # of connection points: 2
#     Edge 98, Type (0, 1), BuildingBlock: AJUNOK_clean_linker_0, # of connection points: 2
#     Edge 99, Type (0, 1), BuildingBlock: AJUNOK_clean_linker_0, # of connection points: 2
#     Edge 100, Type (0, 1), BuildingBlock: AJUNOK_clean_linker_0, # of connection points: 2
#     Edge 101, Type (0, 1), BuildingBlock: AJUNOK_clean_linker_0, # of connection points: 2
#     Edge 102, Type (0, 1), BuildingBlock: AJUNOK_clean_linker_0, # of connection points: 2
#     Edge 103, Type (0, 1), BuildingBlock: AJUNOK_clean_linker_0, # of connection points: 2
#     Edge 104, Type (0, 1), BuildingBlock: AJUNOK_clean_linker_0, # of connection points: 2
#     Edge 105, Type (0, 1), BuildingBlock: AJUNOK_clean_linker_0, # of connection points: 2
#     Edge 106, Type (0, 1), BuildingBlock: AJUNOK_clean_linker_0, # of connection points: 2
#     Edge 107, Type (0, 1), BuildingBlock: AJUNOK_clean_linker_0, # of connection points: 2
#     Edge 108, Type (0, 1), BuildingBlock: AJUNOK_clean_linker_0, # of connection points: 2
#     Edge 109, Type (0, 1), BuildingBlock: AJUNOK_clean_linker_0, # of connection points: 2
#     Edge 110, Type (0, 1), BuildingBlock: AJUNOK_clean_linker_0, # of connection points: 2
#     Edge 111, Type (0, 1), BuildingBlock: AJUNOK_clean_linker_0, # of connection points: 2
#     Edge 112, Type (0, 1), BuildingBlock: AJUNOK_clean_linker_0, # of connection points: 2
#     Edge 113, Type (0, 1), BuildingBlock: AJUNOK_clean_linker_0, # of connection points: 2
#     Edge 114, Type (0, 1), BuildingBlock: AJUNOK_clean_linker_0, # of connection points: 2
#     Edge 115, Type (0, 1), BuildingBlock: AJUNOK_clean_linker_0, # of connection points: 2
#     Edge 116, Type (0, 1), BuildingBlock: AJUNOK_clean_linker_0, # of connection points: 2
#     Edge 117, Type (0, 1), BuildingBlock: AJUNOK_clean_linker_0, # of connection points: 2
#     Edge 118, Type (0, 1), BuildingBlock: AJUNOK_clean_linker_0, # of connection points: 2
#     Edge 119, Type (0, 1), BuildingBlock: AJUNOK_clean_linker_0, # of connection points: 2
#     Edge 120, Type (0, 1), BuildingBlock: AJUNOK_clean_linker_0, # of connection points: 2
#     Edge 121, Type (0, 1), BuildingBlock: AJUNOK_clean_linker_0, # of connection points: 2
#     Edge 122, Type (0, 1), BuildingBlock: AJUNOK_clean_linker_0, # of connection points: 2
#     Edge 123, Type (0, 1), BuildingBlock: AJUNOK_clean_linker_0, # of connection points: 2
#     Edge 124, Type (0, 1), BuildingBlock: AJUNOK_clean_linker_0, # of connection points: 2
#     Edge 125, Type (0, 1), BuildingBlock: AJUNOK_clean_linker_0, # of connection points: 2
#     Edge 126, Type (0, 1), BuildingBlock: AJUNOK_clean_linker_0, # of connection points: 2
#     Edge 127, Type (0, 1), BuildingBlock: AJUNOK_clean_linker_0, # of connection points: 2
#     Edge 128, Type (0, 1), BuildingBlock: AJUNOK_clean_linker_0, # of connection points: 2
#     Edge 129, Type (0, 1), BuildingBlock: AJUNOK_clean_linker_0, # of connection points: 2
#     Edge 130, Type (0, 1), BuildingBlock: AJUNOK_clean_linker_0, # of connection points: 2
#     Edge 131, Type (0, 1), BuildingBlock: AJUNOK_clean_linker_0, # of connection points: 2
#     Edge 132, Type (0, 1), BuildingBlock: AJUNOK_clean_linker_0, # of connection points: 2
#     Edge 133, Type (0, 1), BuildingBlock: AJUNOK_clean_linker_0, # of connection points: 2
#     Edge 134, Type (0, 1), BuildingBlock: AJUNOK_clean_linker_0, # of connection points: 2
#     Edge 135, Type (0, 1), BuildingBlock: AJUNOK_clean_linker_0, # of connection points: 2
# Relax obj value: 0.117
# Max RMSD: 0.238
# Mean RMSD: 0.120
data_MOF--net-gar--node1-QUQFOY_clean_sbu_3--node2-CUKXOW_clean_sbu_0--edge1-AJUNOK_clean_linker_0
_symmetry_space_group_name_H-M    P1
_symmetry_Int_Tables_number       1
_symmetry_cell_setting            triclinic
loop_
_symmetry_equiv_pos_as_xyz
'x, y, z'
_cell_length_a     41.680005
_cell_length_b     40.938127
_cell_length_c     40.674017
_cell_angle_alpha  95.04209
_cell_angle_beta   94.979442
_cell_angle_gamma 99.156992
loop_
_atom_site_label
_atom_site_type_symbol
_atom_site_fract_x
_atom_site_fract_y
_atom_site_fract_z
_atom_type_partial_charge
C0 C 0.99275 0.30725 0.39544 0.0
O1 O 0.0177 0.32318 0.38466 0.0
Cd2 Cd 0.07125 0.31643 0.40157 0.0
O3 O 0.99572 0.28745 0.4177 0.0
Cd4 Cd 0.04044 0.26763 0.45039 0.0
C5 C 0.06925 0.34675 0.48193 0.0
O6 O 0.05774 0.25717 0.3981 0.0
O7 O 0.09406 0.25066 0.43619 0.0
O8 O 0.00114 0.21815 0.45324 0.0
C9 C 0.08351 0.24624 0.40559 0.0
O10 O 0.08138 0.35086 0.45466 0.0
C11 C 0.01282 0.2121 0.4815 0.0
O12 O 0.05239 0.31911 0.48623 0.0
O13 O 0.03649 0.23309 0.49631 0.0
C14 C 0.94321 0.78645 0.67472 0.0
O15 O 0.95869 0.7659 0.68807 0.0
Cd16 Cd 0.00445 0.74719 0.66753 0.0
O17 O 0.95045 0.79718 0.6474 0.0
Cd18 Cd 0.99208 0.79209 0.60885 0.0
C19 C 0.97951 0.70938 0.58846 0.0
O20 O 0.03202 0.79916 0.65465 0.0
O21 O 0.05047 0.78928 0.60752 0.0
O22 O 0.00249 0.85014 0.60234 0.0
C23 C 0.0563 0.79775 0.63851 0.0
O24 O 0.98811 0.70709 0.61883 0.0
C25 C 0.99056 0.84718 0.57237 0.0
O26 O 0.97802 0.73742 0.57785 0.0
O27 O 0.97809 0.8182 0.55913 0.0
C28 C 0.48355 0.78942 0.8825 0.0
O29 O 0.50769 0.80324 0.86884 0.0
Cd30 Cd 0.56295 0.80903 0.88777 0.0
O31 O 0.48772 0.77591 0.90943 0.0
Cd32 Cd 0.53603 0.7678 0.9471 0.0
C33 C 0.55313 0.85157 0.9621 0.0
O34 O 0.55786 0.75262 0.89824 0.0
O35 O 0.59227 0.75395 0.94056 0.0
O36 O 0.50391 0.71629 0.96 0.0
C37 C 0.58467 0.74593 0.90971 0.0
O38 O 0.56252 0.85168 0.93319 0.0
C39 C 0.51883 0.71765 0.98883 0.0
O40 O 0.54284 0.82447 0.97368 0.0
O41 O 0.53927 0.74378 0.99882 0.0
C42 C 0.45846 0.29265 0.18565 0.0
O43 O 0.47531 0.27116 0.19476 0.0
Cd44 Cd 0.52166 0.25662 0.1722 0.0
O45 O 0.46437 0.30785 0.16007 0.0
Cd46 Cd 0.50361 0.30953 0.11637 0.0
C47 C 0.4927 0.22653 0.09111 0.0
O48 O 0.54394 0.30995 0.15973 0.0
O49 O 0.56336 0.30985 0.11259 0.0
O50 O 0.51418 0.36796 0.10657 0.0
C51 C 0.56853 0.31006 0.14383 0.0
O52 O 0.50281 0.2218 0.12046 0.0
C53 C 0.49576 0.3643 0.07956 0.0
O54 O 0.49054 0.25547 0.08297 0.0
O55 O 0.48026 0.33531 0.07 0.0
C56 C 0.92689 0.7451 0.21661 0.0
O57 O 0.94086 0.72414 0.23107 0.0
Cd58 Cd 0.9966 0.71801 0.22295 0.0
O59 O 0.94087 0.76127 0.19496 0.0
Cd60 Cd 0.9921 0.76206 0.16696 0.0
C61 C 0.99451 0.67905 0.14583 0.0
O62 O 0.03026 0.77134 0.21948 0.0
O63 O 0.05142 0.76832 0.17299 0.0
O64 O 0.99035 0.81998 0.15722 0.0
C65 C 0.05582 0.77366 0.20435 0.0
O66 O 4e-05 0.67757 0.17683 0.0
C67 C 0.98619 0.81541 0.12578 0.0
O68 O 0.98779 0.70585 0.13517 0.0
O69 O 0.98491 0.78575 0.11295 0.0
C70 C 0.45591 0.79124 0.31368 0.0
O71 O 0.47364 0.81335 0.30018 0.0
Cd72 Cd 0.52967 0.83387 0.31773 0.0
O73 O 0.4681 0.77844 0.33844 0.0
Cd74 Cd 0.52417 0.78603 0.37067 0.0
C75 C 0.52265 0.8667 0.39594 0.0
O76 O 0.55327 0.78416 0.3215 0.0
O77 O 0.58459 0.79952 0.36684 0.0
O78 O 0.51192 0.72772 0.38138 0.0
C79 C 0.58188 0.78972 0.33614 0.0
O80 O 0.53021 0.87299 0.36725 0.0
C81 C 0.52278 0.73253 0.4119 0.0
O82 O 0.51739 0.83681 0.40288 0.0
O83 O 0.53399 0.76236 0.42333 0.0
C84 C 0.43514 0.24646 0.71837 0.0
O85 O 0.44854 0.22509 0.73282 0.0
Cd86 Cd 0.50369 0.21699 0.72381 0.0
O87 O 0.44981 0.26265 0.69718 0.0
Cd88 Cd 0.50158 0.26539 0.67104 0.0
C89 C 0.49946 0.18358 0.64453 0.0
O90 O 0.53893 0.27036 0.72329 0.0
O91 O 0.56067 0.27378 0.67701 0.0
O92 O 0.49723 0.32249 0.66203 0.0
C93 C 0.56456 0.27509 0.70834 0.0
O94 O 0.50354 0.1785 0.67487 0.0
C95 C 0.49559 0.31804 0.63059 0.0
O96 O 0.49636 0.21233 0.63655 0.0
O97 O 0.497 0.28894 0.61789 0.0
C98 C 0.96289 0.28752 0.81382 0.0
O99 O 0.97999 0.30988 0.80008 0.0
Cd100 Cd 0.03344 0.33638 0.82097 0.0
O101 O 0.97465 0.27755 0.84059 0.0
Cd102 Cd 0.02989 0.29008 0.8762 0.0
C103 C 0.0194 0.37008 0.89733 0.0
O104 O 0.06111 0.28968 0.82828 0.0
O105 O 0.09064 0.30645 0.87443 0.0
O106 O 0.02029 0.2311 0.88544 0.0
C107 C 0.08933 0.29699 0.84375 0.0
O108 O 0.0253 0.37527 0.8679 0.0
C109 C 0.02965 0.23519 0.91629 0.0
O110 O 0.0192 0.34129 0.90691 0.0
O111 O 0.03873 0.26506 0.92892 0.0
C112 C 0.45665 0.0767 0.32614 0.0
O113 O 0.4719 0.05941 0.30748 0.0
Cd114 Cd 0.45931 0.04121 0.24998 0.0
O115 O 0.43213 0.08883 0.31414 0.0
Cd116 Cd 0.40279 0.08924 0.25569 0.0
C117 C 0.37948 0.00499 0.25439 0.0
O118 O 0.45076 0.08937 0.22469 0.0
O119 O 0.40564 0.07747 0.1937 0.0
O120 O 0.38899 0.14738 0.26002 0.0
C121 C 0.43661 0.08185 0.19563 0.0
O122 O 0.40842 0.00172 0.24852 0.0
C123 C 0.35827 0.13738 0.25784 0.0
O124 O 0.3717 0.03372 0.25932 0.0
O125 O 0.34897 0.1061 0.25423 0.0
C126 C 0.29007 0.07001 0.51816 0.0
O127 O 0.26434 0.05372 0.52721 0.0
Cd128 Cd 0.21059 0.06641 0.51786 0.0
O129 O 0.2892 0.09456 0.50103 0.0
Cd130 Cd 0.24958 0.12604 0.47644 0.0
C131 C 0.22936 0.14716 0.55366 0.0
O132 O 0.20863 0.07823 0.4618 0.0
O133 O 0.19156 0.12401 0.45523 0.0
O134 O 0.27355 0.13932 0.42574 0.0
C135 C 0.18501 0.09255 0.45335 0.0
O136 O 0.21355 0.11795 0.5545 0.0
C137 C 0.27717 0.17062 0.43327 0.0
O138 O 0.24475 0.15482 0.52909 0.0
O139 O 0.26969 0.18069 0.46151 0.0
C140 C 0.0926 0.00386 0.84292 0.0
O141 O 0.07997 0.02238 0.82391 0.0
Cd142 Cd 0.09885 0.04365 0.77596 0.0
O143 O 0.1197 0.99427 0.83756 0.0
Cd144 Cd 0.15851 1.00058 0.79192 0.0
C145 C 0.17666 0.08625 0.8034 0.0
O146 O 0.11455 0.99612 0.74942 0.0
O147 O 0.16147 0.01156 0.73273 0.0
O148 O 0.16667 0.94296 0.77731 0.0
C149 C 0.13085 0.00335 0.72556 0.0
O150 O 0.14679 0.08607 0.7935 0.0
C151 C 0.19603 0.94681 0.79004 0.0
O152 O 0.18781 0.05909 0.8056 0.0
O153 O 0.20784 0.9752 0.80529 0.0
C154 C 0.27052 0.94177 0.00814 0.0
O155 O 0.25079 0.95553 0.99071 0.0
Cd156 Cd 0.19346 0.94067 0.98341 0.0
O157 O 0.26015 0.91805 0.02505 0.0
Cd158 Cd 0.20581 0.885 0.03483 0.0
C159 C 0.1974 0.86147 0.94935 0.0
O160 O 0.18361 0.93599 0.03968 0.0
O161 O 0.14605 0.894 0.03918 0.0
O162 O 0.22979 0.88206 0.09231 0.0
C163 C 0.15402 0.92552 0.0426 0.0
O164 O 0.18993 0.89 0.94574 0.0
C165 C 0.22261 0.85076 0.09266 0.0
O166 O 0.20484 0.85344 0.97839 0.0
O167 O 0.20715 0.8348 0.06625 0.0
C168 C 0.32257 0.48706 0.07115 0.0
O169 O 0.30913 0.50243 0.04948 0.0
Cd170 Cd 0.25947 0.4862 0.01545 0.0
O171 O 0.30861 0.45893 0.07839 0.0
Cd172 Cd 0.25453 0.42343 0.0614 0.0
C173 C 0.27135 0.40892 0.98296 0.0
O174 O 0.22369 0.46661 0.05348 0.0
O175 O 0.20004 0.41831 0.03113 0.0
O176 O 0.23815 0.40636 0.11398 0.0
C177 C 0.19897 0.44901 0.03694 0.0
O178 O 0.26786 0.43856 0.97814 0.0
C179 C 0.24081 0.37612 0.10681 0.0
O180 O 0.26945 0.39838 0.01125 0.0
O181 O 0.25062 0.36838 0.07898 0.0
C182 C 0.84873 0.10702 0.00921 0.0
O183 O 0.8309 0.09381 0.02986 0.0
Cd184 Cd 0.78658 0.11517 0.05285 0.0
O185 O 0.84389 0.13461 0.99839 0.0
Cd186 Cd 0.80042 0.17362 0.00377 0.0
C187 C 0.81298 0.19561 0.08973 0.0
O188 O 0.75548 0.12716 0.005 0.0
O189 O 0.74259 0.17589 0.01137 0.0
O190 O 0.79585 0.17892 0.94315 0.0
C191 C 0.73347 0.14472 0.00892 0.0
O192 O 0.80363 0.1649 0.09254 0.0
C193 C 0.79906 0.2104 0.94496 0.0
O194 O 0.81527 0.20584 0.06099 0.0
O195 O 0.8049 0.22538 0.97412 0.0
C196 C 0.0524 0.49986 0.33457 0.0
O197 O 0.0369 0.51309 0.31247 0.0
Cd198 Cd 0.04514 0.51802 0.25547 0.0
O199 O 0.0766 0.48556 0.32765 0.0
Cd200 Cd 0.10508 0.47453 0.27496 0.0
C201 C 0.1253 0.55738 0.264 0.0
O202 O 0.05501 0.46536 0.23503 0.0
O203 O 0.0997 0.46682 0.21298 0.0
O204 O 0.12106 0.42048 0.29113 0.0
C205 C 0.06897 0.46475 0.20864 0.0
O206 O 0.09541 0.55689 0.25393 0.0
C207 C 0.15073 0.42806 0.28531 0.0
O208 O 0.13477 0.53233 0.27604 0.0
O209 O 0.15875 0.45662 0.27568 0.0
C210 C 0.81594 0.97083 0.56878 0.0
O211 O 0.79822 0.98796 0.55301 0.0
Cd212 Cd 0.74418 0.97475 0.52948 0.0
O213 O 0.80421 0.9418 0.57603 0.0
Cd214 Cd 0.74826 0.90623 0.56794 0.0
C215 C 0.75203 0.90042 0.48534 0.0
O216 O 0.72006 0.95138 0.5735 0.0
O217 O 0.69058 0.90741 0.54805 0.0
O218 O 0.74065 0.88637 0.62166 0.0
C219 C 0.69271 0.93773 0.55902 0.0
O220 O 0.74756 0.93055 0.48578 0.0
C221 C 0.73941 0.85587 0.61166 0.0
O222 O 0.75406 0.88614 0.51179 0.0
O223 O 0.74379 0.84886 0.58155 0.0
C224 C 0.90125 0.02584 0.28349 0.0
O225 O 0.91547 0.0111 0.26166 0.0
Cd226 Cd 0.90156 0.00672 0.20392 0.0
O227 O 0.8776 0.04078 0.27523 0.0
Cd228 Cd 0.84619 0.05271 0.22414 0.0
C229 C 0.82274 0.96767 0.20954 0.0
O230 O 0.89642 0.06309 0.19966 0.0
O231 O 0.8549 0.06186 0.16469 0.0
O232 O 0.84516 0.10564 0.25575 0.0
C233 C 0.88583 0.06674 0.17056 0.0
O234 O 0.85091 0.96641 0.20008 0.0
C235 C 0.8155 0.10747 0.24741 0.0
O236 O 0.81503 0.99542 0.21998 0.0
O237 O 0.7993 0.08332 0.22792 0.0
C238 C 0.35441 0.60892 0.51088 0.0
O239 O 0.33553 0.59674 0.53123 0.0
Cd240 Cd 0.28725 0.61346 0.5489 0.0
O241 O 0.34967 0.63541 0.49762 0.0
Cd242 Cd 0.30512 0.6739 0.50074 0.0
C243 C 0.30817 0.69346 0.5874 0.0
O244 O 0.26224 0.62575 0.4981 0.0
O245 O 0.24602 0.67294 0.50319 0.0
O246 O 0.29943 0.6818 0.44028 0.0
C247 C 0.23869 0.64158 0.49956 0.0
O248 O 0.29899 0.66253 0.58896 0.0
C249 C 0.30301 0.71333 0.44396 0.0
O250 O 0.31337 0.70462 0.55948 0.0
O251 O 0.31064 0.72671 0.47361 0.0
C252 C 0.40924 0.54303 0.79242 0.0
O253 O 0.42397 0.52727 0.77184 0.0
Cd254 Cd 0.40919 0.51592 0.71404 0.0
O255 O 0.38383 0.55466 0.78275 0.0
Cd256 Cd 0.35092 0.55668 0.72925 0.0
C257 C 0.3327 0.47133 0.71934 0.0
O258 O 0.3997 0.56937 0.70148 0.0
O259 O 0.3558 0.5592 0.66846 0.0
O260 O 0.34298 0.60978 0.75777 0.0
C261 C 0.3866 0.56793 0.67219 0.0
O262 O 0.36128 0.47191 0.7103 0.0
C263 C 0.31389 0.60833 0.74489 0.0
O264 O 0.32313 0.49827 0.7293 0.0
O265 O 0.30197 0.58286 0.72481 0.0
C266 C 0.55404 0.00535 0.831 0.0
O267 O 0.54229 0.01972 0.80741 0.0
Cd268 Cd 0.55317 0.01807 0.75018 0.0
O269 O 0.57535 0.98661 0.82579 0.0
Cd270 Cd 0.60486 0.97131 0.77539 0.0
C271 C 0.6337 0.05152 0.76255 0.0
O272 O 0.55807 0.96283 0.73146 0.0
O273 O 0.60515 0.9655 0.71386 0.0
O274 O 0.61758 0.91487 0.78577 0.0
C275 C 0.57451 0.9619 0.70672 0.0
O276 O 0.60572 0.05334 0.7483 0.0
C277 C 0.64836 0.92463 0.79081 0.0
O278 O 0.63869 0.02639 0.77734 0.0
O279 O 0.65816 0.95535 0.7892 0.0
C280 C 0.78677 0.57453 0.00912 0.0
O281 O 0.76012 0.55718 0.01488 0.0
Cd282 Cd 0.7061 0.56912 0.00446 0.0
O283 O 0.78729 0.60074 0.99417 0.0
Cd284 Cd 0.74862 0.63445 0.97085 0.0
C285 C 0.72684 0.64454 0.04943 0.0
O286 O 0.70609 0.58895 0.9515 0.0
O287 O 0.69177 0.6365 0.94915 0.0
O288 O 0.77995 0.65953 0.92853 0.0
C289 C 0.68326 0.60521 0.94572 0.0
O290 O 0.70837 0.61626 0.04664 0.0
C291 C 0.77828 0.68915 0.94015 0.0
O292 O 0.74362 0.65412 0.02646 0.0
O293 O 0.76403 0.69247 0.96626 0.0
C294 C 0.95802 0.56628 0.81932 0.0
O295 O 0.97571 0.55262 0.80029 0.0
Cd296 Cd 0.96262 0.53917 0.7421 0.0
O297 O 0.93282 0.57699 0.80707 0.0
Cd298 Cd 0.90622 0.58011 0.74877 0.0
C299 C 0.8843 0.49766 0.74448 0.0
O300 O 0.95386 0.58788 0.71702 0.0
O301 O 0.9094 0.56382 0.6884 0.0
O302 O 0.89558 0.63775 0.76053 0.0
C303 C 0.93915 0.57687 0.68871 0.0
O304 O 0.91338 0.49659 0.73755 0.0
C305 C 0.86517 0.63091 0.75102 0.0
O306 O 0.87532 0.52533 0.75227 0.0
O307 O 0.85418 0.60078 0.74031 0.0
C308 C 0.77824 0.44307 0.52865 0.0
O309 O 0.76332 0.46027 0.50993 0.0
Cd310 Cd 0.70711 0.44646 0.49001 0.0
O311 O 0.76312 0.41733 0.53974 0.0
Cd312 Cd 0.70576 0.38637 0.53919 0.0
C313 C 0.71077 0.36712 0.45406 0.0
O314 O 0.68587 0.4395 0.54205 0.0
O315 O 0.64658 0.39879 0.53855 0.0
O316 O 0.73008 0.37828 0.59571 0.0
C317 C 0.65547 0.43017 0.54154 0.0
O318 O 0.70714 0.39703 0.4508 0.0
C319 C 0.71458 0.34916 0.59696 0.0
O320 O 0.7115 0.35661 0.48282 0.0
O321 O 0.6944 0.33735 0.57181 0.0
C322 C 0.59276 0.50049 0.34515 0.0
O323 O 0.57703 0.51485 0.32428 0.0
Cd324 Cd 0.59536 0.53411 0.27491 0.0
O325 O 0.62124 0.49438 0.34058 0.0
Cd326 Cd 0.65707 0.49986 0.29415 0.0
C327 C 0.66941 0.58473 0.30128 0.0
O328 O 0.61354 0.48674 0.24972 0.0
O329 O 0.6604 0.5072 0.2353 0.0
O330 O 0.66741 0.44277 0.29134 0.0
C331 C 0.631 0.49366 0.22658 0.0
O332 O 0.63955 0.58175 0.28977 0.0
C333 C 0.69818 0.45048 0.29725 0.0
O334 O 0.68216 0.55911 0.30661 0.0
O335 O 0.70978 0.48124 0.30361 0.0
Tb336 Tb 0.02289 0.06154 0.01716 0.0
C337 C 0.02764 0.00299 0.96108 0.0
Tb338 Tb 0.98739 0.98605 0.02095 0.0
O339 O 0.07249 0.05346 0.03645 0.0
O340 O 0.03322 0.01619 0.03023 0.0
O341 O 0.02793 0.03521 0.96918 0.0
C342 C 0.98201 0.93018 0.05095 0.0
O343 O 0.01584 0.97913 0.97906 0.0
C344 C 0.95066 0.02645 0.99268 0.0
C345 C 0.97794 0.04463 0.07593 0.0
O346 O 0.9691 0.93234 0.02094 0.0
O347 O 0.99734 0.95925 0.0635 0.0
O348 O 0.94322 0.99384 0.98947 0.0
O349 O 0.97585 0.03284 0.01296 0.0
O350 O 0.97351 0.0122 0.06558 0.0
O351 O 0.99576 0.06821 0.0611 0.0
C352 C 0.0296 0.11823 0.98866 0.0
O353 O 0.03952 0.11576 0.01963 0.0
O354 O 0.01592 0.08908 0.97455 0.0
C355 C 0.06343 0.02167 0.03844 0.0
Tb356 Tb 0.26405 0.82145 0.27944 0.0
C357 C 0.31692 0.77309 0.27262 0.0
Tb358 Tb 0.24281 0.74455 0.2598 0.0
O359 O 0.27335 0.82062 0.33376 0.0
O360 O 0.25801 0.77774 0.30293 0.0
O361 O 0.30906 0.80293 0.26942 0.0
C362 C 0.21343 0.68095 0.2565 0.0
O363 O 0.29482 0.74589 0.27255 0.0
C364 C 0.25276 0.78253 0.21023 0.0
C365 C 0.18868 0.79096 0.2679 0.0
O366 O 0.23192 0.69736 0.28182 0.0
O367 O 0.2122 0.7002 0.23293 0.0
O368 O 0.25701 0.75158 0.20925 0.0
O369 O 0.2417 0.78932 0.23735 0.0
O370 O 0.19659 0.76093 0.2703 0.0
O371 O 0.21106 0.81828 0.26816 0.0
C372 C 0.29385 0.88173 0.26936 0.0
O373 O 0.27038 0.87611 0.28852 0.0
O374 O 0.29957 0.85364 0.25584 0.0
C375 C 0.26739 0.78833 0.33285 0.0
Tb376 Tb 0.54444 0.03214 0.51361 0.0
C377 C 0.52398 0.99409 0.57674 0.0
Tb378 Tb 0.47388 0.01793 0.52626 0.0
O379 O 0.54697 0.08526 0.52848 0.0
O380 O 0.51607 0.04917 0.54953 0.0
O381 O 0.54557 1.00094 0.55508 0.0
C382 C 0.41618 0.03224 0.53905 0.0
O383 O 0.49419 0.00175 0.57236 0.0
C384 C 0.49418 0.97004 0.49142 0.0
C385 C 0.49516 0.05526 0.46202 0.0
O386 O 0.42172 0.00259 0.52989 0.0
O387 O 0.44309 0.05334 0.54112 0.0
O388 O 0.47074 0.96473 0.51048 0.0
O389 O 0.50218 1.00081 0.49053 0.0
O390 O 0.47195 0.04577 0.48163 0.0
O391 O 0.52572 0.05043 0.46866 0.0
C392 C 0.60293 0.01682 0.50509 0.0
O393 O 0.59754 0.04367 0.52169 0.0
O394 O 0.57526 1.00031 0.49126 0.0
C395 C 0.52394 0.07994 0.54806 0.0
Tb396 Tb 0.27007 0.29472 0.80324 0.0
C397 C 0.26975 0.34074 0.74645 0.0
Tb398 Tb 0.24785 0.26298 0.7362 0.0
O399 O 0.32059 0.30485 0.79171 0.0
O400 O 0.28989 0.26238 0.76918 0.0
O401 O 0.26442 0.33862 0.7779 0.0
C402 C 0.24024 0.23665 0.67322 0.0
O403 O 0.26701 0.31355 0.72549 0.0
C404 C 0.20023 0.27634 0.771 0.0
C405 C 0.24674 0.21675 0.79256 0.0
O406 O 0.26773 0.25102 0.68941 0.0
O407 O 0.21714 0.23754 0.69236 0.0
O408 O 0.19781 0.25134 0.74864 0.0
O409 O 0.22763 0.29461 0.77093 0.0
O410 O 0.25135 0.21854 0.76094 0.0
O411 O 0.25018 0.24397 0.81376 0.0
C412 C 0.27834 0.32199 0.8659 0.0
O413 O 0.25528 0.29783 0.85363 0.0
O414 O 0.29683 0.33023 0.84309 0.0
C415 C 0.31752 0.27999 0.76925 0.0
Tb416 Tb 0.98063 0.02008 0.48007 0.0
C417 C 0.94704 0.01516 0.54478 0.0
Tb418 Tb 0.02234 0.0293 0.5473 0.0
O419 O 0.96212 0.96819 0.48539 0.0
O420 O 0.00802 0.99063 0.50794 0.0
O421 O 0.94566 0.02732 0.51563 0.0
C422 C 0.05914 0.02247 0.60221 0.0
O423 O 0.9743 0.00821 0.55935 0.0
C424 C -1e-05 0.08304 0.52945 0.0
C425 C 0.05753 0.03536 0.48255 0.0
O426 O 0.0292 0.00794 0.59403 0.0
O427 O 0.06861 0.04108 0.57944 0.0
O428 O 0.0082 0.07842 0.55999 0.0
O429 O 0.00821 0.05999 0.51167 0.0
O430 O 0.06 0.02766 0.51363 0.0
O431 O 0.02924 0.03735 0.46577 0.0
C432 C 0.95164 0.02151 0.41979 0.0
O433 O 0.97543 0.00564 0.42706 0.0
O434 O 0.94397 0.03682 0.44661 0.0
C435 C 0.9869 0.96471 0.50538 0.0
Tb436 Tb 0.29386 0.78425 0.78928 0.0
C437 C 0.23396 0.79437 0.82863 0.0
Tb438 Tb 0.22892 0.77776 0.75006 0.0
O439 O 0.29405 0.83667 0.80454 0.0
O440 O 0.27029 0.81541 0.75901 0.0
O441 O 0.26385 0.78657 0.83084 0.0
C442 C 0.17522 0.78775 0.71549 0.0
O443 O 0.21654 0.79375 0.79954 0.0
C444 C 0.24394 0.7197 0.7621 0.0
C445 C 0.28776 0.76566 0.71206 0.0
O446 O 0.18504 0.80065 0.74562 0.0
O447 O 0.19517 0.76895 0.70531 0.0
O448 O 0.22216 0.72394 0.73897 0.0
O449 O 0.25188 0.74673 0.78065 0.0
O450 O 0.26196 0.78088 0.71102 0.0
O451 O 0.30209 0.76032 0.74101 0.0
C452 C 0.35363 0.78263 0.81653 0.0
O453 O 0.34646 0.79848 0.79145 0.0
O454 O 0.32702 0.76712 0.82616 0.0
C455 C 0.27488 0.84136 0.77929 0.0
Tb456 Tb 0.47067 0.02364 0.01117 0.0
C457 C 0.52102 0.97402 0.02107 0.0
Tb458 Tb 0.54088 0.05166 0.03008 0.0
O459 O 0.4744 0.03569 0.9602 0.0
O460 O 0.51432 0.02327 0.98711 0.0
O461 O 0.49008 0.97824 0.02083 0.0
C462 C 0.60147 0.08329 0.02629 0.0
O463 O 0.54503 0.99941 0.02088 0.0
C464 C 0.506 0.04512 0.08175 0.0
C465 C 0.49044 0.10109 0.01931 0.0
O466 O 0.59341 0.0615 0.04678 0.0
O467 O 0.57552 0.08719 0.00819 0.0
O468 O 0.53726 0.04508 0.08298 0.0
O469 O 0.49728 0.05233 0.05336 0.0
O470 O 0.52112 0.09636 0.01821 0.0
O471 O 0.46664 0.07586 0.0213 0.0
C472 C 0.40851 0.9941 0.00918 0.0
O473 O 0.42154 0.0093 0.98573 0.0
O474 O 0.43059 0.9955 0.03404 0.0
C475 C 0.50495 0.03292 0.95983 0.0
Tb476 Tb 0.21837 0.26558 0.27775 0.0
C477 C 0.26948 0.26549 0.33733 0.0
Tb478 Tb 0.28831 0.29776 0.27372 0.0
O479 O 0.2323 0.21638 0.27789 0.0
O480 O 0.25918 0.25223 0.25398 0.0
O481 O 0.24004 0.27198 0.32873 0.0
C482 C 0.35055 0.31124 0.26124 0.0
O483 O 0.29384 0.27329 0.31908 0.0
C484 C 0.24938 0.3403 0.29045 0.0
C485 C 0.23629 0.29269 0.21224 0.0
O486 O 0.33889 0.28919 0.28006 0.0
O487 O 0.32737 0.32645 0.25081 0.0
O488 O 0.27641 0.3481 0.27737 0.0
O489 O 0.24813 0.31092 0.29818 0.0
O490 O 0.26669 0.28946 0.22225 0.0
O491 O 0.21215 0.28643 0.23103 0.0
C492 C 0.15737 0.24874 0.2938 0.0
O493 O 0.17171 0.27838 0.28972 0.0
O494 O 0.17681 0.22841 0.28569 0.0
C495 C 0.25863 0.22361 0.26355 0.0
Tb496 Tb 0.48461 0.53711 0.99001 0.0
C497 C 0.453 0.52555 0.05547 0.0
Tb498 Tb 0.52955 0.53206 0.052 0.0
O499 O 0.46455 0.48426 0.98861 0.0
O500 O 0.5127 0.50197 0.00733 0.0
O501 O 0.44963 0.53773 0.02632 0.0
C502 C 0.56396 0.51131 0.10179 0.0
O503 O 0.48101 0.51837 0.06874 0.0
C504 C 0.52134 0.59308 0.04371 0.0
C505 C 0.55949 0.55199 0.98872 0.0
O506 O 0.53375 0.49935 0.09132 0.0
O507 O 0.5745 0.53511 0.08453 0.0
O508 O 0.54578 0.58595 0.06198 0.0
O509 O 0.50126 0.56685 0.0353 0.0
O510 O 0.56159 0.53197 0.01244 0.0
O511 O 0.53197 0.56255 0.98022 0.0
C512 C 0.45998 0.54641 0.92981 0.0
O513 O 0.4833 0.52996 0.93666 0.0
O514 O 0.44987 0.55795 0.95724 0.0
C515 C 0.49074 0.47667 0.00339 0.0
Tb516 Tb 0.8076 0.2961 0.29139 0.0
C517 C 0.74759 0.30073 0.33224 0.0
Tb518 Tb 0.73876 0.28025 0.25563 0.0
O519 O 0.80508 0.34818 0.30601 0.0
O520 O 0.77583 0.32271 0.26534 0.0
O521 O 0.77631 0.29042 0.33232 0.0
C522 C 0.6857 0.28407 0.21592 0.0
O523 O 0.73028 0.30322 0.30392 0.0
C524 C 0.76098 0.22774 0.27832 0.0
C525 C 0.79779 0.27164 0.21291 0.0
O526 O 0.6858 0.27122 0.24395 0.0
O527 O 0.71539 0.29475 0.2103 0.0
O528 O 0.73024 0.22954 0.27183 0.0
O529 O 0.77624 0.25334 0.26857 0.0
O530 O 0.76594 0.27214 0.21279 0.0
O531 O 0.8184 0.27855 0.24078 0.0
C532 C 0.8663 0.29906 0.3225 0.0
O533 O 0.86 0.31331 0.29591 0.0
O534 O 0.83967 0.28227 0.33093 0.0
C535 C 0.78077 0.34934 0.28449 0.0
Tb536 Tb 0.97806 0.50646 0.52293 0.0
C537 C 0.03889 0.47056 0.53187 0.0
Tb538 Tb 0.04908 0.54838 0.52693 0.0
O539 O 0.97149 0.49379 0.46808 0.0
O540 O 0.01295 0.52223 0.4914 0.0
O541 O 0.00801 0.47024 0.53833 0.0
C542 C 0.10841 0.57551 0.51482 0.0
O543 O 0.05755 0.49732 0.52348 0.0
C544 C 0.01983 0.55306 0.58161 0.0
C545 C 0.98918 0.58475 0.51987 0.0
O546 O 0.10208 0.55671 0.53838 0.0
O547 O 0.0814 0.5788 0.49798 0.0
O548 O 0.04398 0.57474 0.57474 0.0
O549 O 0.01645 0.52799 0.56028 0.0
O550 O 0.01939 0.58462 0.51204 0.0
O551 O 0.97009 0.55778 0.52708 0.0
C552 C 0.91794 0.48389 0.53794 0.0
O553 O 0.9322 0.51466 0.54129 0.0
O554 O 0.93788 0.46533 0.52638 0.0
C555 C 0.00037 0.50887 0.46343 0.0
Tb556 Tb 0.75997 0.79461 0.29989 0.0
C557 C 0.76159 0.83841 0.24101 0.0
Tb558 Tb 0.74314 0.76058 0.23175 0.0
O559 O 0.81212 0.80445 0.29256 0.0
O560 O 0.78244 0.76243 0.26856 0.0
O561 O 0.75365 0.83651 0.27171 0.0
C562 C 0.74039 0.73188 0.17033 0.0
O563 O 0.76265 0.81112 0.22131 0.0
C564 C 0.69258 0.77155 0.26254 0.0
C565 C 0.7373 0.71641 0.29019 0.0
O566 O 0.71604 0.74133 0.18397 0.0
O567 O 0.76657 0.73932 0.191 0.0
O568 O 0.69245 0.74645 0.2408 0.0
O569 O 0.71952 0.79103 0.26405 0.0
O570 O 0.74321 0.7171 0.25876 0.0
O571 O 0.7396 0.74405 0.31066 0.0
C572 C 0.76211 0.82478 0.361 0.0
O573 O 0.74254 0.79761 0.34929 0.0
O574 O 0.78078 0.83425 0.3387 0.0
C575 C 0.81042 0.77952 0.27033 0.0
Tb576 Tb 0.77406 0.31307 0.77277 0.0
C577 C 0.8255 0.26356 0.77044 0.0
Tb578 Tb 0.74908 0.23541 0.75876 0.0
O579 O 0.78365 0.31424 0.82787 0.0
O580 O 0.76424 0.27155 0.7988 0.0
O581 O 0.81975 0.2945 0.77045 0.0
C582 C 0.72634 0.17165 0.76299 0.0
O583 O 0.80224 0.23671 0.76737 0.0
C584 C 0.74197 0.26981 0.70699 0.0
C585 C 0.69863 0.28502 0.76398 0.0
O586 O 0.74292 0.18291 0.73947 0.0
O587 O 0.72339 0.19619 0.78436 0.0
O588 O 0.72551 0.24063 0.70954 0.0
O589 O 0.7641 0.27613 0.73116 0.0
O590 O 0.70532 0.25541 0.77057 0.0
O591 O 0.72171 0.31065 0.76075 0.0
C592 C 0.80194 0.37268 0.75871 0.0
O593 O 0.78 0.36778 0.77956 0.0
O594 O 0.80764 0.34426 0.74628 0.0
C595 C 0.77455 0.28231 0.82835 0.0
Tb596 Tb 0.73044 0.75858 0.78843 0.0
C597 C 0.78472 0.78283 0.84612 0.0
Tb598 Tb 0.79002 0.80198 0.77626 0.0
O599 O 0.74268 0.71506 0.76007 0.0
O600 O 0.77951 0.75106 0.78509 0.0
O601 O 0.75332 0.78161 0.8372 0.0
C602 C 0.84378 0.82643 0.74949 0.0
O603 O 0.8056 0.78648 0.82368 0.0
C604 C 0.74486 0.83562 0.79733 0.0
C605 C 0.73764 0.77458 0.71716 0.0
O606 O 0.84271 0.81877 0.77967 0.0
O607 O 0.8143 0.82158 0.73514 0.0
O608 O 0.77612 0.84609 0.80254 0.0
O609 O 0.74065 0.80902 0.77837 0.0
O610 O 0.76915 0.77914 0.72712 0.0
O611 O 0.71572 0.76991 0.73869 0.0
C612 C 0.67931 0.73212 0.81797 0.0
O613 O 0.67796 0.74933 0.79272 0.0
O614 O 0.70929 0.72902 0.82568 0.0
C615 C 0.77407 0.72489 0.76523 0.0
Tb616 Tb 0.52042 0.56191 0.516 0.0
C617 C 0.53277 0.50239 0.46535 0.0
Tb618 Tb 0.49237 0.48671 0.52557 0.0
O619 O 0.57157 0.55565 0.52768 0.0
O620 O 0.53385 0.52304 0.5426 0.0
O621 O 0.53162 0.5346 0.47126 0.0
C622 C 0.48984 0.431 0.55484 0.0
O623 O 0.52102 0.4792 0.48405 0.0
C624 C 0.44926 0.51994 0.49747 0.0
C625 C 0.47425 0.54562 0.57302 0.0
O626 O 0.48066 0.43217 0.52349 0.0
O627 O 0.50049 0.46084 0.56895 0.0
O628 O 0.44148 0.49068 0.50784 0.0
O629 O 0.48002 0.52529 0.49914 0.0
O630 O 0.4746 0.51329 0.567 0.0
O631 O 0.49023 0.56896 0.55683 0.0
C632 C 0.52221 0.61844 0.48785 0.0
O633 O 0.53481 0.61636 0.51802 0.0
O634 O 0.50888 0.58904 0.47433 0.0
C635 C 0.5642 0.52708 0.53948 0.0
Tb636 Tb 0.03729 0.52516 0.01336 0.0
C637 C 0.01674 0.4984 0.07972 0.0
Tb638 Tb 0.96683 0.52148 0.02567 0.0
O639 O 0.05188 0.56453 0.05427 0.0
O640 O 0.00676 0.56008 0.02602 0.0
O641 O 0.03771 0.49835 0.05701 0.0
C642 C 0.91048 0.53553 0.04396 0.0
O643 O 0.9882 0.50885 0.07391 0.0
C644 C 0.98028 0.47121 0.98805 0.0
C645 C 0.98832 0.54675 0.95831 0.0
O646 O 0.91563 0.50613 0.03335 0.0
O647 O 0.93753 0.55642 0.04553 0.0
O648 O 0.95267 0.48201 0.98449 0.0
O649 O 0.99735 0.48676 0.01331 0.0
O650 O 0.96579 0.54537 0.97956 0.0
O651 O 0.01743 0.5385 0.96586 0.0
C652 C 0.09239 0.51037 0.99246 0.0
O653 O 0.08935 0.53824 0.00882 0.0
O654 O 0.06397 0.49166 0.98691 0.0
C655 C 0.02427 0.57542 0.05119 0.0
C656 C 0.01929 0.17393 0.92031 0.0
C657 C 0.0302 0.20628 0.93605 0.0
C658 C 0.01958 0.14594 0.93769 0.0
C659 C 0.03086 0.1489 0.97161 0.0
H660 H 0.01035 0.17003 0.89422 0.0
H661 H 0.01075 0.12167 0.92426 0.0
S662 S 0.06204 0.22772 0.02485 0.0
N663 N 0.05268 0.2396 0.98794 0.0
N664 N 0.05316 0.18668 0.02053 0.0
C665 C 0.04193 0.18096 0.98784 0.0
C666 C 0.04159 0.20969 0.97009 0.0
C667 C 0.09559 0.7744 0.25508 0.0
C668 C 0.08934 0.78171 0.2221 0.0
C669 C 0.12778 0.77873 0.27073 0.0
C670 C 0.15463 0.79173 0.25439 0.0
H671 H 0.07565 0.76386 0.26835 0.0
H672 H 0.13175 0.7712 0.29543 0.0
S673 S 0.15155 0.81529 0.16831 0.0
N674 N 0.11299 0.8028 0.17396 0.0
N675 N 0.17277 0.81171 0.20361 0.0
C676 C 0.14853 0.80011 0.22194 0.0
C677 C 0.11609 0.79498 0.20576 0.0
C678 C 0.50374 0.88598 0.45009 0.0
C679 C 0.51785 0.89388 0.42086 0.0
C680 C 0.49653 0.9108 0.47294 0.0
C681 C 0.5034 0.9445 0.46768 0.0
H682 H 0.49751 0.86033 0.45513 0.0
H683 H 0.48526 0.90348 0.49478 0.0
S684 S 0.54112 0.97891 0.39588 0.0
N685 N 0.5392 0.9383 0.38858 0.0
N686 N 0.52551 0.98475 0.43141 0.0
C687 C 0.51811 0.95293 0.43901 0.0
C688 C 0.52537 0.92768 0.41565 0.0
C689 C 0.38049 0.22993 0.73937 0.0
C690 C 0.40346 0.25438 0.72797 0.0
C691 C 0.35152 0.23778 0.75099 0.0
C692 C 0.34516 0.27054 0.75251 0.0
H693 H 0.38511 0.20465 0.73968 0.0
H694 H 0.3348 0.21848 0.76026 0.0
S695 S 0.39626 0.34331 0.72439 0.0
N696 N 0.41662 0.31237 0.71733 0.0
N697 N 0.363 0.32715 0.74042 0.0
C698 C 0.36739 0.29495 0.74049 0.0
C699 C 0.39635 0.28687 0.72787 0.0
C700 C 0.96476 0.8785 0.53099 0.0
C701 C 0.99114 0.87639 0.55406 0.0
C702 C 0.96394 0.90723 0.51503 0.0
C703 C 0.98975 0.93436 0.52121 0.0
H704 H 0.94417 0.85833 0.52608 0.0
H705 H 0.94264 0.90834 0.49814 0.0
S706 S 0.06651 0.93875 0.57599 0.0
N707 N 0.04473 0.90239 0.58066 0.0
N708 N 0.04399 0.95578 0.54909 0.0
C709 C 0.01706 0.93178 0.5429 0.0
C710 C 0.01753 0.90288 0.5598 0.0
C711 C 0.42349 0.76754 0.87581 0.0
C712 C 0.45036 0.78856 0.86609 0.0
C713 C 0.39213 0.7655 0.85948 0.0
C714 C 0.3867 0.78435 0.83293 0.0
H715 H 0.4267 0.75229 0.89591 0.0
H716 H 0.37206 0.74903 0.86768 0.0
S717 S 0.44823 0.8444 0.7988 0.0
N718 N 0.46895 0.82967 0.82888 0.0
N719 N 0.41021 0.82532 0.79814 0.0
C720 C 0.41316 0.80566 0.82315 0.0
C721 C 0.44496 0.80793 0.83978 0.0
C722 C 0.46312 0.17016 0.07068 0.0
C723 C 0.48617 0.19779 0.0659 0.0
C724 C 0.46213 0.13942 0.05231 0.0
C725 C 0.48494 0.13511 0.02937 0.0
H726 H 0.44707 0.17185 0.09013 0.0
H727 H 0.44534 0.11833 0.05847 0.0
S728 S 0.54776 0.20104 0.0054 0.0
N729 N 0.52987 0.2202 0.03432 0.0
N730 N 0.52891 0.16198 1.00043 0.0
C731 C 0.50649 0.16324 0.02265 0.0
C732 C 0.50694 0.19475 0.04086 0.0
C733 C 0.13691 0.25356 0.38212 0.0
C734 C 0.10375 0.23943 0.37884 0.0
C735 C 0.15408 0.2557 0.35413 0.0
C736 C 0.13868 0.2436 0.32222 0.0
H737 H 0.14901 0.26506 0.40593 0.0
H738 H 0.17935 0.26792 0.35732 0.0
S739 S 0.05384 0.19991 0.30128 0.0
N740 N 0.05707 0.20994 0.34183 0.0
N741 N 0.08998 0.21371 0.28928 0.0
C742 C 0.10642 0.22719 0.3189 0.0
C743 C 0.08878 0.22517 0.3473 0.0
C744 C 0.94195 0.07814 0.15208 0.0
C745 C 0.90816 0.06632 0.14411 0.0
C746 C 0.96474 0.0727 0.12945 0.0
C747 C 0.95445 0.05453 0.09848 0.0
H748 H 0.95097 0.09075 0.17645 0.0
H749 H 0.99051 0.08129 0.13681 0.0
S750 S 0.86893 0.02041 0.0645 0.0
N751 N 0.86569 0.03797 0.10189 0.0
N752 N 0.90835 0.02657 0.06008 0.0
C753 C 0.92073 0.04385 0.08972 0.0
C754 C 0.89757 0.05009 0.11232 0.0
C755 C 0.28592 0.71708 0.38316 0.0
C756 C 0.29563 0.73307 0.41554 0.0
C757 C 0.27641 0.73473 0.35663 0.0
C758 C 0.27591 0.76912 0.36122 0.0
H759 H 0.2855 0.69058 0.3782 0.0
H760 H 0.2699 0.72137 0.3323 0.0
S761 S 0.29941 0.8232 0.44073 0.0
N762 N 0.30446 0.78584 0.4502 0.0
N763 N 0.2865 0.8186 0.40082 0.0
C764 C 0.28579 0.78545 0.39336 0.0
C765 C 0.29562 0.76759 0.4203 0.0
C766 C 0.52923 0.97527 0.66739 0.0
C767 C 0.56016 0.96566 0.67252 0.0
C768 C 0.51706 0.98302 0.6361 0.0
C769 C 0.53524 0.98142 0.6085 0.0
H770 H 0.51475 0.97811 0.688 0.0
H771 H 0.49373 0.99152 0.63394 0.0
S772 S 0.61585 0.95343 0.60776 0.0
N773 N 0.60736 0.95213 0.64654 0.0
N774 N 0.58468 0.96632 0.588 0.0
C775 C 0.56548 0.97014 0.61296 0.0
C776 C 0.57785 0.96238 0.64482 0.0
C777 C 0.29497 0.39596 0.93036 0.0
C778 C 0.27512 0.38545 0.95481 0.0
C779 C 0.29728 0.37438 0.9024 0.0
C780 C 0.27916 0.34197 0.89773 0.0
H781 H 0.30856 0.42106 0.93272 0.0
H782 H 0.31235 0.38365 0.88372 0.0
S783 S 0.22372 0.30265 0.95477 0.0
N784 N 0.2376 0.34046 0.9732 0.0
N785 N 0.24125 0.30016 0.91996 0.0
C786 C 0.25966 0.33098 0.92227 0.0
C787 C 0.2578 0.35271 0.95105 0.0
C788 C 0.93561 0.0047 0.32708 0.0
C789 C 0.91257 0.0251 0.31883 0.0
C790 C 0.94763 0.00357 0.35991 0.0
C791 C 0.93712 0.02271 0.38586 0.0
H792 H 0.94467 0.98942 0.30806 0.0
H793 H 0.96551 0.98762 0.36488 0.0
S794 S 0.87707 0.08006 0.37817 0.0
N795 N 0.87946 0.06485 0.33964 0.0
N796 N 0.90229 0.0625 0.40173 0.0
C797 C 0.91388 0.04299 0.37833 0.0
C798 C 0.90153 0.04422 0.3447 0.0
C799 C 0.29304 0.74373 0.61912 0.0
C800 C 0.30935 0.71611 0.61857 0.0
C801 C 0.28727 0.76052 0.64937 0.0
C802 C 0.2981 0.7508 0.68036 0.0
H803 H 0.28285 0.75113 0.59606 0.0
H804 H 0.27327 0.78062 0.64841 0.0
S805 S 0.34489 0.68184 0.69227 0.0
N806 N 0.338 0.68112 0.65161 0.0
N807 N 0.3282 0.71288 0.70803 0.0
C808 C 0.31617 0.72441 0.67996 0.0
C809 C 0.32148 0.70704 0.64926 0.0
C810 C 0.51659 0.02942 0.86804 0.0
C811 C 0.54275 0.01168 0.86468 0.0
C812 C 0.50532 0.03669 0.89892 0.0
C813 C 0.51971 0.02687 0.92817 0.0
H814 H 0.50433 0.03772 0.84651 0.0
H815 H 0.48486 0.04999 0.89978 0.0
S816 S 0.58919 0.98025 0.93385 0.0
N817 N 0.58286 0.98456 0.89392 0.0
N818 N 0.56201 0.9988 0.95202 0.0
C819 C 0.54619 0.00953 0.92551 0.0
C820 C 0.55753 0.00174 0.89382 0.0
C821 C 0.25363 0.32576 0.13134 0.0
C822 C 0.23487 0.35136 0.13056 0.0
C823 C 0.25201 0.30478 0.15664 0.0
C824 C 0.231 0.30822 0.18147 0.0
H825 H 0.27114 0.32319 0.11348 0.0
H826 H 0.2685 0.28684 0.15771 0.0
S827 S 0.17285 0.36787 0.18704 0.0
N828 N 0.19207 0.37674 0.15427 0.0
N829 N 0.18828 0.33661 0.20152 0.0
C830 C 0.21003 0.33184 0.17926 0.0
C831 C 0.21223 0.35371 0.15389 0.0
C832 C 0.09631 0.93902 0.03652 0.0
C833 C 0.13019 0.94939 0.04485 0.0
C834 C 0.07452 0.96224 0.03562 0.0
C835 C 0.08568 0.99673 0.04317 0.0
H836 H 0.08665 0.91293 0.02961 0.0
H837 H 0.04894 0.95311 0.02792 0.0
S838 S 0.17142 0.03664 0.06976 0.0
N839 N 0.17322 0.99665 0.06321 0.0
N840 N 0.1326 0.03963 0.06143 0.0
C841 C 0.11921 0.00717 0.05281 0.0
C842 C 0.14132 0.98373 0.05369 0.0
C843 C 0.64269 0.55721 0.95764 0.0
C844 C 0.64921 0.59021 0.94948 0.0
C845 C 0.6132 0.5447 0.96956 0.0
C846 C 0.5888 0.56436 0.97281 0.0
H847 H 0.66118 0.54142 0.95667 0.0
H848 H 0.60981 0.5197 0.97699 0.0
S849 S 0.59156 0.65067 0.95036 0.0
N850 N 0.6273 0.64114 0.9423 0.0
N851 N 0.57154 0.6173 0.96407 0.0
C852 C 0.59382 0.59645 0.96226 0.0
C853 C 0.62408 0.60941 0.9506 0.0
C854 C 0.70821 0.39452 0.27482 0.0
C855 C 0.71947 0.42492 0.29457 0.0
C856 C 0.72845 0.37048 0.27055 0.0
C857 C 0.76039 0.37575 0.28641 0.0
H858 H 0.6837 0.38939 0.26218 0.0
H859 H 0.71877 0.34741 0.25537 0.0
S860 S 0.80148 0.45101 0.34091 0.0
N861 N 0.76469 0.45897 0.32989 0.0
N862 N 0.80246 0.41366 0.32252 0.0
C863 C 0.77191 0.40602 0.30622 0.0
C864 C 0.75151 0.43063 0.31016 0.0
C865 C 0.8347 0.42926 0.53294 0.0
C866 C 0.81385 0.45289 0.53653 0.0
C867 C 0.86874 0.43923 0.53487 0.0
C868 C 0.88288 0.47305 0.54107 0.0
H869 H 0.82458 0.40315 0.52678 0.0
H870 H 0.88393 0.4205 0.53029 0.0
S871 S 0.83876 0.54392 0.55702 0.0
N872 N 0.80967 0.51098 0.54949 0.0
N873 N 0.87344 0.52972 0.55423 0.0
C874 C 0.86229 0.49657 0.54701 0.0
C875 C 0.82778 0.48649 0.5444 0.0
C876 C 0.33786 0.19104 0.2466 0.0
C877 C 0.33395 0.16042 0.26048 0.0
C878 C 0.31349 0.21149 0.24729 0.0
C879 C 0.28468 0.20237 0.2625 0.0
H880 H 0.35945 0.19883 0.23437 0.0
H881 H 0.31713 0.23439 0.23564 0.0
S882 S 0.26443 0.12635 0.3055 0.0
N883 N 0.29991 0.12316 0.29151 0.0
N884 N 0.25499 0.16144 0.29361 0.0
C885 C 0.28118 0.17232 0.27735 0.0
C886 C 0.30556 0.15144 0.27618 0.0
C887 C 0.32491 0.02685 0.52609 0.0
C888 C 0.32169 0.06057 0.52778 0.0
C889 C 0.35565 0.01759 0.53166 0.0
C890 C 0.38381 0.04182 0.53961 0.0
H891 H 0.3038 0.00761 0.51886 0.0
H892 H 0.35751 0.99143 0.52838 0.0
S893 S 0.38718 0.13324 0.55264 0.0
N894 N 0.34825 0.11803 0.54152 0.0
N895 N 0.40604 0.10071 0.55292 0.0
C896 C 0.38048 0.07552 0.54385 0.0
C897 C 0.34934 0.08491 0.5376 0.0
C898 C 0.67557 0.64666 0.31311 0.0
C899 C 0.68983 0.61833 0.30523 0.0
C900 C 0.69249 0.67889 0.31125 0.0
C901 C 0.72397 0.68384 0.30073 0.0
H902 H 0.65064 0.64385 0.31948 0.0
H903 H 0.67995 0.69985 0.31573 0.0
S904 S 0.77313 0.61861 0.27953 0.0
N905 N 0.7384 0.59781 0.28896 0.0
N906 N 0.76956 0.65831 0.28432 0.0
C907 C 0.73908 0.656 0.2943 0.0
C908 C 0.72221 0.62324 0.29693 0.0
C909 C 0.83613 0.46492 0.76632 0.0
C910 C 0.86135 0.46627 0.74527 0.0
C911 C 0.81615 0.43468 0.7699 0.0
C912 C 0.82053 0.40491 0.75229 0.0
H913 H 0.83255 0.48715 0.78107 0.0
H914 H 0.79779 0.43452 0.7872 0.0
S915 S 0.88047 0.3957 0.69102 0.0
N916 N 0.88776 0.43563 0.70461 0.0
N917 N 0.85012 0.37904 0.71095 0.0
C918 C 0.84458 0.40622 0.72994 0.0
C919 C 0.86504 0.43684 0.72655 0.0
C920 C 0.99274 0.87645 0.12094 0.0
C921 C 0.98377 0.84371 0.10558 0.0
C922 C 0.9916 0.90393 0.10293 0.0
C923 C 0.98105 0.90002 0.0688 0.0
H924 H 0.00122 0.88104 0.14713 0.0
H925 H -0.00077 0.92855 0.116 0.0
S926 S 0.95383 0.81981 0.01665 0.0
N927 N 0.96336 0.80897 0.05399 0.0
N928 N 0.96083 0.86091 0.02026 0.0
C929 C 0.97142 0.86754 0.05306 0.0
C930 C 0.97293 0.83935 0.0714 0.0
C931 C 0.9058 0.25686 0.81761 0.0
C932 C 0.92848 0.27493 0.79928 0.0
C933 C 0.87221 0.24982 0.80639 0.0
C934 C 0.86026 0.26052 0.77647 0.0
H935 H 0.91369 0.24981 0.84166 0.0
H936 H 0.85529 0.23823 0.82241 0.0
S937 S 0.90924 0.30412 0.71682 0.0
N938 N 0.93634 0.29956 0.74743 0.0
N939 N 0.87351 0.28695 0.72729 0.0
C940 C 0.88276 0.27633 0.75687 0.0
C941 C 0.91678 0.28333 0.768 0.0
C942 C 0.51552 0.16452 0.58916 0.0
C943 C 0.50171 0.15672 0.61847 0.0
C944 C 0.52206 0.13946 0.56612 0.0
C945 C 0.5145 0.10574 0.57133 0.0
H946 H 0.52264 0.19023 0.58462 0.0
H947 H 0.53365 0.14659 0.5444 0.0
S948 S 0.47502 0.07212 0.64255 0.0
N949 N 0.47868 0.11288 0.65036 0.0
N950 N 0.49043 0.06581 0.60697 0.0
C951 C 0.49923 0.09758 0.59976 0.0
C952 C 0.49298 0.12307 0.62338 0.0
C953 C 0.64101 0.80522 0.32641 0.0
C954 C 0.61027 0.78497 0.31782 0.0
C955 C 0.66758 0.80134 0.30809 0.0
C956 C 0.66444 0.77653 0.28119 0.0
H957 H 0.64438 0.82455 0.34697 0.0
H958 H 0.6907 0.8177 0.31515 0.0
S959 S 0.58944 0.71613 0.2499 0.0
N960 N 0.57848 0.73896 0.28111 0.0
N961 N 0.62825 0.73101 0.2475 0.0
C962 C 0.63393 0.75587 0.27283 0.0
C963 C 0.6069 0.76024 0.29095 0.0
C964 C 0.00621 0.17631 0.5281 0.0
C965 C 0.00327 0.17961 0.49387 0.0
C966 C 0.00282 0.14476 0.53977 0.0
C967 C 0.99736 0.11567 0.5175 0.0
H968 H 0.01222 0.19821 0.54589 0.0
H969 H 0.00626 0.14324 0.56626 0.0
S970 S 0.98765 0.11127 0.42544 0.0
N971 N 0.99314 0.15134 0.43799 0.0
N972 N 0.98882 0.09254 0.45969 0.0
C973 C 0.99345 0.11887 0.48329 0.0
C974 C 0.99588 0.15074 0.47151 0.0
C975 C 0.59862 0.29258 0.19261 0.0
C976 C 0.5991 0.30312 0.16058 0.0
C977 C 0.62665 0.28556 0.20978 0.0
C978 C 0.6564 0.28934 0.19587 0.0
H979 H 0.57637 0.28962 0.20476 0.0
H980 H 0.62507 0.2778 0.23447 0.0
S981 S 0.67104 0.31583 0.11278 0.0
N982 N 0.63178 0.3164 0.11533 0.0
N983 N 0.68511 0.3038 0.14819 0.0
C984 C 0.65746 0.29967 0.16385 0.0
C985 C 0.62863 0.30642 0.14604 0.0
C986 C 0.55716 0.89469 0.01099 0.0
C987 C 0.54551 0.88269 0.97794 0.0
C988 C 0.54874 0.92421 0.02568 0.0
C989 C 0.52723 0.94129 0.00814 0.0
H990 H 0.57331 0.88164 0.02519 0.0
H991 H 0.55906 0.93373 0.0507 0.0
S992 S 0.48952 0.9193 0.92147 0.0
N993 N 0.51156 0.89001 0.92833 0.0
N994 N 0.49456 0.94418 0.95638 0.0
C995 C 0.51493 0.92895 0.97546 0.0
C996 C 0.52432 0.89989 0.96025 0.0
C997 C 0.92244 0.80222 0.72805 0.0
C998 C 0.91914 0.80079 0.69322 0.0
C999 C 0.89957 0.81445 0.74664 0.0
C1000 C 0.87221 0.82489 0.73099 0.0
H1001 H 0.94256 0.79327 0.74112 0.0
H1002 H 0.90227 0.81356 0.77327 0.0
S1003 S 0.85473 0.83071 0.64091 0.0
N1004 N 0.88866 0.81463 0.64406 0.0
N1005 N 0.84486 0.8368 0.67916 0.0
C1006 C 0.8698 0.82591 0.69642 0.0
C1007 C 0.89343 0.8139 0.67745 0.0
C1008 C 0.09284 0.9954 0.90343 0.0
C1009 C 0.07538 0.99516 0.87219 0.0
C1010 C 0.0767 0.99524 0.93244 0.0
C1011 C 0.04269 0.99426 0.93089 0.0
H1012 H 0.11925 0.99821 0.90573 0.0
H1013 H 0.0911 0.9979 0.95631 0.0
S1014 S 0.9854 0.98854 0.85517 0.0
N1015 N 0.0217 0.99013 0.84142 0.0
N1016 N 0.99185 0.98997 0.89595 0.0
C1017 C 0.02479 0.99151 0.89982 0.0
C1018 C 0.04104 0.99181 0.87042 0.0
C1019 C 0.74985 0.33794 0.64738 0.0
C1020 C 0.72061 0.32965 0.62584 0.0
C1021 C 0.75671 0.31892 0.67372 0.0
C1022 C 0.73446 0.29106 0.68001 0.0
H1023 H 0.76803 0.35886 0.6434 0.0
H1024 H 0.77994 0.32565 0.68864 0.0
S1025 S 0.65303 0.26052 0.63307 0.0
N1026 N 0.66854 0.29247 0.61401 0.0
N1027 N 0.68098 0.25743 0.66343 0.0
C1028 C 0.7048 0.28307 0.65917 0.0
C1029 C 0.69798 0.30215 0.63223 0.0
C1030 C 0.44323 0.07239 0.385 0.0
C1031 C 0.46655 0.07943 0.36246 0.0
C1032 C 0.45268 0.06641 0.41781 0.0
C1033 C 0.48584 0.06742 0.42937 0.0
H1034 H 0.41743 0.06922 0.37663 0.0
H1035 H 0.43369 0.0593 0.43363 0.0
S1036 S 0.55653 0.09033 0.3812 0.0
N1037 N 0.5242 0.09082 0.3549 0.0
N1038 N 0.54212 0.08041 0.41618 0.0
C1039 C 0.50941 0.07709 0.40762 0.0
C1040 C 0.49973 0.08285 0.37432 0.0
C1041 C 0.70298 0.67256 0.09581 0.0
C1042 C 0.73051 0.6665 0.08032 0.0
C1043 C 0.70638 0.69484 0.12449 0.0
C1044 C 0.73743 0.71102 0.13876 0.0
H1045 H 0.67874 0.66045 0.08543 0.0
H1046 H 0.6846 0.69887 0.13589 0.0
S1047 S 0.81708 0.70235 0.10801 0.0
N1048 N 0.7897 0.67787 0.08117 0.0
N1049 N 0.79612 0.71912 0.13568 0.0
C1050 C 0.76513 0.70489 0.12362 0.0
C1051 C 0.76164 0.68272 0.09418 0.0
C1052 C 0.07955 0.00252 0.68929 0.0
C1053 C 0.11395 0.00793 0.6932 0.0
C1054 C 0.06227 0.00737 0.65969 0.0
C1055 C 0.07861 0.01815 0.6329 0.0
H1056 H 0.06566 0.99456 0.70932 0.0
H1057 H 0.03581 0.00291 0.65794 0.0
S1058 S 0.16819 0.03409 0.62918 0.0
N1059 N 0.16375 0.02332 0.66695 0.0
N1060 N 0.13088 0.03292 0.61118 0.0
C1061 C 0.1129 0.02347 0.63608 0.0
C1062 C 0.13067 0.01818 0.66627 0.0
C1063 C 0.7049 0.3524 0.39218 0.0
C1064 C 0.71719 0.34605 0.42396 0.0
C1065 C 0.71387 0.33661 0.36305 0.0
C1066 C 0.73617 0.31404 0.36406 0.0
H1067 H 0.68861 0.3704 0.38971 0.0
H1068 H 0.70409 0.34328 0.33948 0.0
S1069 S 0.77507 0.28784 0.44084 0.0
N1070 N 0.75218 0.31452 0.45456 0.0
N1071 N 0.76957 0.2854 0.39992 0.0
C1072 C 0.74818 0.30684 0.39565 0.0
C1073 C 0.73854 0.32258 0.42546 0.0
C1074 C 0.43914 0.067 0.13434 0.0
C1075 C 0.45471 0.07215 0.16699 0.0
C1076 C 0.45567 0.05763 0.10713 0.0
C1077 C 0.48841 0.05258 0.11134 0.0
H1078 H 0.41401 0.07057 0.12965 0.0
H1079 H 0.4427 0.05459 0.08251 0.0
S1080 S 0.54014 0.06138 0.19168 0.0
N1081 N 0.50493 0.0707 0.2018 0.0
N1082 N 0.53548 0.0526 0.15098 0.0
C1083 C 0.50409 0.057 0.14386 0.0
C1084 C 0.48743 0.06694 0.17153 0.0
C1085 C 0.80579 0.71435 0.89405 0.0
C1086 C 0.78824 0.71809 0.92175 0.0
C1087 C 0.80845 0.73831 0.87146 0.0
C1088 C 0.79305 0.76637 0.87554 0.0
H1089 H 0.81566 0.69178 0.88854 0.0
H1090 H 0.81973 0.73303 0.84901 0.0
S1091 S 0.74999 0.79123 0.947 0.0
N1092 N 0.76038 0.75523 0.95498 0.0
N1093 N 0.7639 0.79912 0.91124 0.0
C1094 C 0.7783 0.77205 0.90463 0.0
C1095 C 0.7763 0.74817 0.92813 0.0
C1096 C 0.8678 0.05558 0.98531 0.0
C1097 C 0.87522 0.08932 0.99832 0.0
C1098 C 0.89252 0.03614 0.98091 0.0
C1099 C 0.92573 0.04931 0.99031 0.0
H1100 H 0.84253 0.04373 0.97968 0.0
H1101 H 0.8853 0.01005 0.97206 0.0
S1102 S 0.95782 0.13681 0.02497 0.0
N1103 N 0.91795 0.13546 0.01905 0.0
N1104 N 0.96415 0.09915 0.01232 0.0
C1105 C 0.93331 0.08347 0.00221 0.0
C1106 C 0.90818 0.10337 0.00589 0.0
C1107 C 0.37904 0.47609 0.08315 0.0
C1108 C 0.35735 0.49913 0.08197 0.0
C1109 C 0.412 0.48578 0.07848 0.0
C1110 C 0.42371 0.51861 0.0726 0.0
H1111 H 0.36991 0.44985 0.08368 0.0
H1112 H 0.42731 0.46684 0.07583 0.0
S1113 S 0.3791 0.5898 0.07686 0.0
N1114 N 0.35165 0.55738 0.08223 0.0
N1115 N 0.41346 0.57528 0.0727 0.0
C1116 C 0.40348 0.54259 0.07609 0.0
C1117 C 0.37021 0.53291 0.0812 0.0
C1118 C 0.27135 0.64123 0.727 0.0
C1119 C 0.29536 0.63583 0.75137 0.0
C1120 C 0.2547 0.66813 0.73129 0.0
C1121 C 0.26103 0.69059 0.76031 0.0
H1122 H 0.26601 0.62513 0.70391 0.0
H1123 H 0.23712 0.67166 0.71124 0.0
S1124 S 0.31833 0.68471 0.8336 0.0
N1125 N 0.32304 0.65363 0.80667 0.0
N1126 N 0.29045 0.70347 0.81524 0.0
C1127 C 0.28391 0.68466 0.78553 0.0
C1128 C 0.3014 0.65748 0.78092 0.0
C1129 C 0.20019 0.59416 0.51585 0.0
C1130 C 0.20521 0.62449 0.50173 0.0
C1131 C 0.16865 0.57834 0.5199 0.0
C1132 C 0.14115 0.59191 0.50917 0.0
H1133 H 0.22079 0.58301 0.52463 0.0
H1134 H 0.16578 0.55534 0.53147 0.0
S1135 S 0.14109 0.66989 0.46922 0.0
N1136 N 0.18014 0.66711 0.47638 0.0
N1137 N 0.12071 0.63674 0.483 0.0
C1138 C 0.14575 0.62168 0.49416 0.0
C1139 C 0.17787 0.63818 0.49074 0.0
C1140 C 0.66372 0.86734 0.78508 0.0
C1141 C 0.67214 0.90143 0.79633 0.0
C1142 C 0.6871 0.84599 0.78652 0.0
C1143 C 0.71977 0.85776 0.7996 0.0
H1144 H 0.63921 0.85729 0.77386 0.0
H1145 H 0.67968 0.82023 0.77646 0.0
S1146 S 0.75348 0.94402 0.83596 0.0
N1147 N 0.71499 0.94529 0.82342 0.0
N1148 N 0.75849 0.90523 0.82656 0.0
C1149 C 0.72804 0.89137 0.8125 0.0
C1150 C 0.70439 0.91316 0.81073 0.0
C1151 C 0.64829 0.9461 0.51702 0.0
C1152 C 0.67071 0.95878 0.54473 0.0
C1153 C 0.62849 0.9663 0.50209 0.0
C1154 C 0.63024 0.99978 0.5145 0.0
H1155 H 0.64581 0.92036 0.50686 0.0
H1156 H 0.61054 0.95509 0.48168 0.0
S1157 S 0.68621 0.04549 0.58538 0.0
N1158 N 0.69462 0.00736 0.5831 0.0
N1159 N 0.65733 0.04527 0.55488 0.0
C1160 C 0.65353 0.01318 0.54124 0.0
C1161 C 0.67366 0.99263 0.55652 0.0
C1162 C 0.2918 0.43479 0.74766 0.0
C1163 C 0.31231 0.43853 0.72203 0.0
C1164 C 0.27691 0.40315 0.75448 0.0
C1165 C 0.28138 0.374 0.73553 0.0
H1166 H 0.28865 0.45631 0.76379 0.0
H1167 H 0.2626 0.4015 0.77545 0.0
S1168 S 0.32978 0.37056 0.66316 0.0
N1169 N 0.33426 0.41057 0.67598 0.0
N1170 N 0.30582 0.35134 0.68824 0.0
C1171 C 0.30016 0.37759 0.7085 0.0
C1172 C 0.31575 0.40975 0.70192 0.0
C1173 C 0.17574 0.59872 0.28494 0.0
C1174 C 0.14925 0.58746 0.26062 0.0
C1175 C 0.19704 0.62866 0.28307 0.0
C1176 C 0.19295 0.64791 0.25644 0.0
H1177 H 0.17936 0.58494 0.30613 0.0
H1178 H 0.21646 0.63708 0.30289 0.0
S1179 S 0.12938 0.6274 0.18464 0.0
N1180 N 0.12142 0.59672 0.20804 0.0
N1181 N 0.16169 0.65238 0.20418 0.0
C1182 C 0.16745 0.63608 0.23124 0.0
C1183 C 0.14552 0.60601 0.23343 0.0
C1184 C 0.50764 0.67237 0.41912 0.0
C1185 C 0.52258 0.70449 0.43274 0.0
C1186 C 0.50756 0.64507 0.43749 0.0
C1187 C 0.52248 0.64858 0.47027 0.0
H1188 H 0.49594 0.66811 0.39392 0.0
H1189 H 0.49579 0.62089 0.42564 0.0
S1190 S 0.56463 0.72722 0.51799 0.0
N1191 N 0.55246 0.73833 0.4815 0.0
N1192 N 0.55227 0.68663 0.51594 0.0
C1193 C 0.53729 0.68048 0.48449 0.0
C1194 C 0.53734 0.70851 0.46575 0.0
C1195 C 0.606 0.26278 0.75178 0.0
C1196 C 0.59774 0.28182 0.7262 0.0
C1197 C 0.63861 0.26521 0.76529 0.0
C1198 C 0.66393 0.28745 0.75434 0.0
H1199 H 0.58746 0.24454 0.76008 0.0
H1200 H 0.64416 0.24874 0.78365 0.0
S1201 S 0.65392 0.34585 0.69067 0.0
N1202 N 0.61672 0.3253 0.69214 0.0
N1203 N 0.67763 0.33102 0.71829 0.0
C1204 C 0.65544 0.30828 0.73035 0.0
C1205 C 0.62245 0.30511 0.71603 0.0
C1206 C 0.01839 0.39838 0.95454 0.0
C1207 C 0.01076 0.39716 0.91998 0.0
C1208 C 0.00923 0.423 0.97644 0.0
C1209 C 0.99105 0.44645 0.96463 0.0
H1210 H 0.03168 0.38028 0.96475 0.0
H1211 H 0.01571 0.42317 0.00284 0.0
S1212 S 0.96535 0.45467 0.87663 0.0
N1213 N 0.98488 0.42256 0.87509 0.0
N1214 N 0.96647 0.46765 0.91638 0.0
C1215 C 0.98333 0.44564 0.93026 0.0
C1216 C 0.9935 0.4213 0.9079 0.0
C1217 C 0.89312 0.78645 0.23671 0.0
C1218 C 0.89579 0.75316 0.22742 0.0
C1219 C 0.86526 0.79466 0.25035 0.0
C1220 C 0.83866 0.76997 0.25429 0.0
H1221 H 0.91324 0.80621 0.23456 0.0
H1222 H 0.86461 0.82055 0.25801 0.0
S1223 S 0.83244 0.67934 0.23103 0.0
N1224 N 0.86906 0.69549 0.22177 0.0
N1225 N 0.81604 0.71098 0.24597 0.0
C1226 C 0.84044 0.73671 0.24373 0.0
C1227 C 0.86921 0.72828 0.23072 0.0
C1228 C 0.52192 0.4157 0.05765 0.0
C1229 C 0.49377 0.39222 0.05945 0.0
C1230 C 0.52098 0.44217 0.03822 0.0
C1231 C 0.49163 0.44671 0.02088 0.0
H1232 H 0.54495 0.41338 0.07104 0.0
H1233 H 0.5433 0.45955 0.03728 0.0
S1234 S 0.41102 0.3922 0.01798 0.0
N1235 N 0.4359 0.37469 0.042 0.0
N1236 N 0.43371 0.42531 0.00655 0.0
C1237 C 0.46332 0.42324 0.02232 0.0
C1238 C 0.46448 0.39583 0.04147 0.0
C1239 C 0.93301 0.28574 0.38587 0.0
C1240 C 0.96006 0.30843 0.37895 0.0
C1241 C 0.90267 0.28303 0.36748 0.0
C1242 C 0.89834 0.30284 0.34154 0.0
H1243 H 0.93541 0.26917 0.40496 0.0
H1244 H 0.88263 0.26484 0.37327 0.0
S1245 S 0.96009 0.36844 0.31542 0.0
N1246 N 0.97968 0.35295 0.34581 0.0
N1247 N 0.92249 0.34743 0.31111 0.0
C1248 C 0.92466 0.32645 0.33503 0.0
C1249 C 0.95556 0.32942 0.35385 0.0
C1250 C 0.95784 0.6495 0.57353 0.0
C1251 C 0.97523 0.67923 0.56502 0.0
C1252 C 0.95955 0.61904 0.55595 0.0
C1253 C 0.97973 0.61717 0.52997 0.0
H1254 H 0.94421 0.6496 0.59505 0.0
H1255 H 0.94724 0.5967 0.56488 0.0
S1256 S 0.02747 0.68859 0.49607 0.0
N1257 N 0.01043 0.70567 0.52695 0.0
N1258 N 0.01476 0.6481 0.49453 0.0
C1259 C 0.9954 0.64701 0.51976 0.0
C1260 C 0.99292 0.67817 0.53719 0.0
C1261 C 0.60001 0.73805 0.85242 0.0
C1262 C 0.60778 0.73652 0.88662 0.0
C1263 C 0.62261 0.7338 0.8298 0.0
C1264 C 0.65364 0.72743 0.84043 0.0
H1265 H 0.57685 0.74428 0.84305 0.0
H1266 H 0.61631 0.73733 0.80408 0.0
S1267 S 0.68378 0.71443 0.9261 0.0
N1268 N 0.64697 0.7237 0.92936 0.0
N1269 N 0.68966 0.7151 0.8865 0.0
C1270 C 0.66079 0.72276 0.87401 0.0
C1271 C 0.63779 0.72754 0.89725 0.0
C1272 C 0.43984 0.58272 0.64842 0.0
C1273 C 0.407 0.56649 0.64417 0.0
C1274 C 0.46143 0.57739 0.62452 0.0
C1275 C 0.45104 0.55495 0.59612 0.0
H1276 H 0.44917 0.5989 0.67086 0.0
H1277 H 0.48668 0.58959 0.62907 0.0
S1278 S 0.3673 0.50809 0.57193 0.0
N1279 N 0.36479 0.52913 0.60788 0.0
N1280 N 0.40559 0.51798 0.56396 0.0
C1281 C 0.41808 0.5396 0.59099 0.0
C1282 C 0.39595 0.54569 0.61474 0.0
C1283 C 0.79151 0.26249 0.91789 0.0
C1284 C 0.79415 0.22845 0.91475 0.0
C1285 C 0.78501 0.27939 0.88989 0.0
C1286 C 0.78057 0.26307 0.85742 0.0
H1287 H 0.7941 0.27622 0.94225 0.0
H1288 H 0.78317 0.30552 0.89378 0.0
S1289 S 0.78826 0.1749 0.8351 0.0
N1290 N 0.79376 0.17962 0.87601 0.0
N1291 N 0.7819 0.21133 0.82397 0.0
C1292 C 0.78389 0.22928 0.85391 0.0
C1293 C 0.79058 0.21204 0.88235 0.0
C1294 C 0.06894 0.46606 0.14724 0.0
C1295 C 0.05254 0.4699 0.17574 0.0
C1296 C 0.05644 0.47422 0.11645 0.0
C1297 C 0.02694 0.48696 0.11248 0.0
H1298 H 0.09214 0.45724 0.14877 0.0
H1299 H 0.0707 0.47112 0.09572 0.0
S1300 S 0.97347 0.50056 0.17905 0.0
N1301 N 0.00418 0.48594 0.19773 0.0
N1302 N 0.98101 0.5019 0.13995 0.0
C1303 C 0.00965 0.49002 0.14056 0.0
C1304 C 0.02233 0.48135 0.17207 0.0
C1305 C 0.74245 0.8474 0.44816 0.0
C1306 C 0.75516 0.8816 0.45363 0.0
C1307 C 0.74486 0.82902 0.41804 0.0
C1308 C 0.76079 0.84411 0.39287 0.0
H1309 H 0.73004 0.8349 0.46706 0.0
H1310 H 0.73427 0.80286 0.4145 0.0
S1311 S 0.79925 0.93267 0.39548 0.0
N1312 N 0.78459 0.92972 0.43173 0.0
N1313 N 0.7899 0.89503 0.3754 0.0
C1314 C 0.77411 0.87815 0.39825 0.0
C1315 C 0.77107 0.89697 0.4286 0.0
C1316 C 0.4521 0.53723 0.83677 0.0
C1317 C 0.42204 0.5472 0.82791 0.0
C1318 C 0.46431 0.53827 0.86984 0.0
C1319 C 0.44711 0.54937 0.8956 0.0
H1320 H 0.46629 0.52792 0.81805 0.0
H1321 H 0.48729 0.52964 0.87517 0.0
S1322 S 0.36853 0.58068 0.88628 0.0
N1323 N 0.37607 0.57045 0.84785 0.0
N1324 N 0.39947 0.57235 0.91053 0.0
C1325 C 0.41769 0.56074 0.88745 0.0
C1326 C 0.40504 0.55966 0.85346 0.0
C1327 C 0.80056 0.24745 0.12058 0.0
C1328 C 0.81642 0.21951 0.12034 0.0
C1329 C 0.79637 0.26558 0.15063 0.0
C1330 C 0.8088 0.25725 0.1816 0.0
H1331 H 0.78916 0.25387 0.09761 0.0
H1332 H 0.78207 0.28544 0.14968 0.0
S1333 S 0.85472 0.1881 0.19442 0.0
N1334 N 0.84608 0.18554 0.15377 0.0
N1335 N 0.83946 0.22035 0.20978 0.0
C1336 C 0.82663 0.23081 0.1815 0.0
C1337 C 0.8301 0.21178 0.15104 0.0
C1338 C 0.00698 0.49955 0.37081 0.0
C1339 C 0.04065 0.50079 0.36821 0.0
C1340 C 0.99455 0.5023 0.40171 0.0
C1341 C 0.01525 0.50732 0.4315 0.0
H1342 H 0.98989 0.49623 0.34865 0.0
H1343 H 0.96841 0.50083 0.40222 0.0
S1344 S 0.10527 0.5118 0.43887 0.0
N1345 N 0.0945 0.50656 0.39843 0.0
N1346 N 0.07115 0.51253 0.4566 0.0
C1347 C 0.04899 0.50857 0.42947 0.0
C1348 C 0.06166 0.50502 0.39783 0.0
C1349 C 0.71364 0.83449 0.66014 0.0
C1350 C 0.73341 0.82996 0.63436 0.0
C1351 C 0.71118 0.81287 0.68496 0.0
C1352 C 0.72911 0.78659 0.68517 0.0
H1353 H 0.70114 0.85575 0.66197 0.0
H1354 H 0.69783 0.81885 0.70577 0.0
S1355 S 0.78103 0.76165 0.62116 0.0
N1356 N 0.76798 0.79489 0.60834 0.0
N1357 N 0.7645 0.75508 0.65597 0.0
C1358 C 0.74689 0.78028 0.65821 0.0
C1359 C 0.74881 0.80183 0.63253 0.0
C1360 C 0.59802 0.44456 0.54085 0.0
C1361 C 0.63213 0.45486 0.54211 0.0
C1362 C 0.57613 0.46776 0.5408 0.0
C1363 C 0.58722 0.50229 0.54207 0.0
H1364 H 0.58803 0.41833 0.53949 0.0
H1365 H 0.55034 0.45837 0.53864 0.0
S1366 S 0.67403 0.5427 0.54611 0.0
N1367 N 0.6757 0.50263 0.54502 0.0
N1368 N 0.63489 0.54545 0.54495 0.0
C1369 C 0.62122 0.51285 0.54356 0.0
C1370 C 0.64348 0.48944 0.54364 0.0
C1371 C 0.14571 0.04418 0.46641 0.0
C1372 C 0.15112 0.07525 0.45357 0.0
C1373 C 0.11475 0.03038 0.47408 0.0
C1374 C 0.08794 0.04657 0.46816 0.0
H1375 H 0.16585 0.03131 0.47262 0.0
H1376 H 0.11201 0.00753 0.48592 0.0
S1377 S 0.08793 0.12589 0.43056 0.0
N1378 N 0.12635 0.12012 0.43224 0.0
N1379 N 0.06779 0.09353 0.44584 0.0
C1380 C 0.09231 0.07614 0.45273 0.0
C1381 C 0.12403 0.09063 0.44557 0.0
C1382 C 0.23803 0.91512 0.81283 0.0
C1383 C 0.21574 0.91977 0.78647 0.0
C1384 C 0.25701 0.8898 0.80995 0.0
C1385 C 0.25496 0.86846 0.78037 0.0
H1386 H 0.24046 0.93081 0.83609 0.0
H1387 H 0.27331 0.88685 0.83131 0.0
S1388 S 0.20309 0.87303 0.70269 0.0
N1389 N 0.19386 0.90225 0.72915 0.0
N1390 N 0.23071 0.85566 0.72329 0.0
C1391 C 0.23347 0.87352 0.75345 0.0
C1392 C 0.21356 0.89889 0.75663 0.0
C1393 C 0.32817 0.95181 0.03535 0.0
C1394 C 0.30597 0.95322 0.00762 0.0
C1395 C 0.36154 0.96473 0.03562 0.0
C1396 C 0.37374 0.97908 0.00805 0.0
H1397 H 0.31961 0.94151 0.05727 0.0
H1398 H 0.37775 0.96388 0.05772 0.0
S1399 S 0.32623 0.98555 0.92808 0.0
N1400 N 0.29899 0.96795 0.95105 0.0
N1401 N 0.36141 0.99191 0.95156 0.0
C1402 C 0.35197 0.9795 0.97979 0.0
C1403 C 0.31814 0.96664 0.97958 0.0
C1404 C 0.80968 0.64709 0.74178 0.0
C1405 C 0.84313 0.65627 0.75305 0.0
C1406 C 0.78782 0.66972 0.74492 0.0
C1407 C 0.79838 0.70253 0.75958 0.0
H1408 H 0.80006 0.62198 0.73082 0.0
H1409 H 0.76227 0.66114 0.73639 0.0
S1410 S 0.88366 0.74002 0.79136 0.0
N1411 N 0.88593 0.70122 0.77819 0.0
N1412 N 0.84488 0.74364 0.78394 0.0
C1413 C 0.83188 0.71243 0.77005 0.0
C1414 C 0.85421 0.68936 0.76685 0.0
C1415 C 0.82036 0.5312 0.02175 0.0
C1416 C 0.81773 0.56498 0.02157 0.0
C1417 C 0.85021 0.52164 0.03162 0.0
C1418 C 0.87814 0.5456 0.04208 0.0
H1419 H 0.79961 0.51205 0.01285 0.0
H1420 H 0.85175 0.49538 0.02947 0.0
S1421 S 0.88227 0.63721 0.05192 0.0
N1422 N 0.84424 0.62235 0.03658 0.0
N1423 N 0.90027 0.60443 0.05575 0.0
C1424 C 0.87512 0.57942 0.04452 0.0
C1425 C 0.84491 0.58913 0.03397 0.0
C1426 C 0.22751 0.12306 0.79212 0.0
C1427 C 0.19886 0.11876 0.80827 0.0
C1428 C 0.24438 0.15506 0.78898 0.0
C1429 C 0.23375 0.18376 0.80275 0.0
H1430 H 0.23549 0.10176 0.77961 0.0
H1431 H 0.26498 0.1574 0.77433 0.0
S1432 S 0.16219 0.18569 0.85057 0.0
N1433 N 0.16196 0.14571 0.84019 0.0
N1434 N 0.19434 0.20564 0.83539 0.0
C1435 C 0.20667 0.17964 0.82119 0.0
C1436 C 0.18903 0.14717 0.82364 0.0
C1437 C 0.36051 0.94394 0.2418 0.0
C1438 C 0.35522 0.9747 0.25661 0.0
C1439 C 0.3398 0.91438 0.24542 0.0
C1440 C 0.31307 0.91417 0.26432 0.0
H1441 H 0.38109 0.94253 0.2275 0.0
H1442 H 0.34535 0.89135 0.23385 0.0
S1443 S 0.28738 0.98796 0.30711 0.0
N1444 N 0.32026 0.0033 0.28992 0.0
N1445 N 0.28148 0.94732 0.29699 0.0
C1446 C 0.30681 0.9447 0.2786 0.0
C1447 C 0.32783 0.97506 0.27465 0.0
C1448 C 0.49677 0.37837 0.62581 0.0
C1449 C 0.49284 0.34582 0.61009 0.0
C1450 C 0.49532 0.40546 0.60748 0.0
C1451 C 0.48957 0.40117 0.57268 0.0
H1452 H 0.50147 0.38316 0.65256 0.0
H1453 H 0.4989 0.43007 0.62084 0.0
S1454 S 0.47661 0.32116 0.51929 0.0
N1455 N 0.4823 0.31071 0.55742 0.0
N1456 N 0.47928 0.36204 0.52301 0.0
C1457 C 0.48499 0.36883 0.55649 0.0
C1458 C 0.48674 0.34106 0.57519 0.0
C1459 C 0.40817 0.79854 0.27497 0.0
C1460 C 0.42062 0.78208 0.30105 0.0
C1461 C 0.37473 0.79375 0.26456 0.0
C1462 C 0.35217 0.77187 0.2793 0.0
H1463 H 0.42418 0.81637 0.26313 0.0
H1464 H 0.36634 0.80823 0.24549 0.0
S1465 S 0.37157 0.7207 0.34683 0.0
N1466 N 0.4074 0.74142 0.3402 0.0
N1467 N 0.34443 0.73218 0.32011 0.0
C1468 C 0.36417 0.75378 0.3041 0.0
C1469 C 0.39838 0.75896 0.31512 0.0
C1470 C 0.98952 0.64945 0.08791 0.0
C1471 C -0.00095 0.65043 0.12219 0.0
C1472 C 0.99656 0.62434 0.06501 0.0
C1473 C 0.01409 0.59983 0.07548 0.0
H1474 H 0.97697 0.66851 0.07859 0.0
H1475 H 0.98929 0.62482 0.03886 0.0
S1476 S 0.04132 0.58832 0.16221 0.0
N1477 N 0.02429 0.62207 0.16535 0.0
N1478 N 0.0383 0.57608 0.12216 0.0
C1479 C 0.0227 0.59968 0.10955 0.0
C1480 C 0.01495 0.62463 0.13293 0.0
C1481 C 0.11567 0.2677 0.80006 0.0
C1482 C 0.11863 0.29284 0.82654 0.0
C1483 C 0.14231 0.26277 0.78264 0.0
C1484 C 0.17298 0.28327 0.79033 0.0
H1485 H 0.09256 0.2513 0.79292 0.0
H1486 H 0.13866 0.24271 0.76276 0.0
S1487 S 0.19348 0.35361 0.85678 0.0
N1488 N 0.15472 0.33862 0.85979 0.0
N1489 N 0.20453 0.33049 0.82574 0.0
C1490 C 0.17629 0.3089 0.81647 0.0
C1491 C 0.14922 0.31336 0.83493 0.0
C1492 C 0.49191 0.66046 0.99727 0.0
C1493 C 0.51649 0.68814 0.00747 0.0
C1494 C 0.49278 0.63003 0.01031 0.0
C1495 C 0.51849 0.62617 0.03355 0.0
H1496 H 0.4725 0.66192 0.97821 0.0
H1497 H 0.47385 0.60913 0.00123 0.0
S1498 S 0.58735 0.69149 0.07053 0.0
N1499 N 0.56598 0.71025 0.04424 0.0
N1500 N 0.56777 0.65289 0.06813 0.0
C1501 C 0.54229 0.65398 0.04521 0.0
C1502 C 0.54123 0.68505 0.03233 0.0
C1503 C 0.11071 0.78058 0.64358 0.0
C1504 C 0.0886 0.79957 0.65635 0.0
C1505 C 0.13919 0.77752 0.66287 0.0
C1506 C 0.14639 0.79353 0.6953 0.0
H1507 H 0.10526 0.76673 0.61925 0.0
H1508 H 0.1552 0.76176 0.6526 0.0
S1509 S 0.09872 0.85024 0.73801 0.0
N1510 N 0.07729 0.83755 0.70179 0.0
N1511 N 0.13116 0.83177 0.73808 0.0
C1512 C 0.12552 0.81422 0.70759 0.0
C1513 C 0.09647 0.81727 0.68802 0.0
C1514 C 0.03876 0.37807 0.52003 0.0
C1515 C 0.06752 0.37647 0.50461 0.0
C1516 C 0.03089 0.40869 0.53181 0.0
C1517 C 0.05168 0.4387 0.5289 0.0
H1518 H 0.02066 0.35595 0.52016 0.0
H1519 H 0.00721 0.40883 0.54083 0.0
S1520 S 0.13431 0.44662 0.49927 0.0
N1521 N 0.11972 0.40641 0.49311 0.0
N1522 N 0.10574 0.464 0.51621 0.0
C1523 C 0.08259 0.43689 0.51775 0.0
C1524 C 0.0903 0.40572 0.50532 0.0
C1525 C 0.42475 0.28086 0.23229 0.0
C1526 C 0.43224 0.30013 0.206 0.0
C1527 C 0.3996 0.28619 0.25158 0.0
C1528 C 0.3809 0.31098 0.2454 0.0
H1529 H 0.43785 0.26081 0.23767 0.0
H1530 H 0.3939 0.26977 0.27053 0.0
S1531 S 0.39222 0.37051 0.18192 0.0
N1532 N 0.42024 0.34675 0.17653 0.0
N1533 N 0.37273 0.35668 0.21291 0.0
C1534 C 0.38893 0.33152 0.22032 0.0
C1535 C 0.41459 0.32606 0.20054 0.0
C1536 C 0.59706 0.49969 0.40665 0.0
C1537 C 0.578 0.49287 0.37582 0.0
C1538 C 0.58219 0.50003 0.4363 0.0
C1539 C 0.54804 0.49273 0.43583 0.0
H1540 H 0.62329 0.50727 0.40782 0.0
H1541 H 0.59728 0.50795 0.45958 0.0
S1542 S 0.48784 0.46859 0.36204 0.0
N1543 N 0.52354 0.47525 0.34686 0.0
N1544 N 0.4959 0.47544 0.40278 0.0
C1545 C 0.52902 0.48326 0.40547 0.0
C1546 C 0.54397 0.48338 0.37533 0.0
C1547 C 0.2372 0.8008 0.11972 0.0
C1548 C 0.23156 0.83397 0.12263 0.0
C1549 C 0.24543 0.78478 0.14795 0.0
C1550 C 0.24761 0.80096 0.18035 0.0
H1551 H 0.23535 0.78711 0.09542 0.0
H1552 H 0.24923 0.7592 0.14433 0.0
S1553 S 0.23324 0.88731 0.20157 0.0
N1554 N 0.2285 0.88222 0.16065 0.0
N1555 N 0.24217 0.85192 0.21319 0.0
C1556 C 0.24191 0.83409 0.18342 0.0
C1557 C 0.23431 0.85059 0.15477 0.0
C1558 C 0.99695 0.56091 0.86811 0.0
C1559 C 0.96587 0.5666 0.85587 0.0
C1560 C 0.00416 0.55593 0.90138 0.0
C1561 C 0.98063 0.55625 0.92421 0.0
H1562 H 0.01581 0.55931 0.8516 0.0
H1563 H 0.02825 0.55074 0.90888 0.0
S1564 S 0.89606 0.57265 0.9056 0.0
N1565 N 0.91181 0.57428 0.86979 0.0
N1566 N 0.92527 0.56491 0.93244 0.0
C1567 C 0.94981 0.56343 0.91273 0.0
C1568 C 0.94249 0.56865 0.87864 0.0
C1569 C 0.20611 0.17052 0.60317 0.0
C1570 C 0.23142 0.17219 0.58241 0.0
C1571 C 0.20852 0.19276 0.63174 0.0
C1572 C 0.23658 0.21694 0.64081 0.0
H1573 H 0.18445 0.15168 0.5975 0.0
H1574 H 0.18877 0.19014 0.64747 0.0
S1575 S 0.30921 0.23246 0.5944 0.0
N1576 N 0.28495 0.2009 0.57222 0.0
N1577 N 0.28958 0.24225 0.62644 0.0
C1578 C 0.2617 0.21948 0.61993 0.0
C1579 C 0.25908 0.19719 0.59055 0.0
C1580 C 0.6305 0.51553 0.17149 0.0
C1581 C 0.61587 0.49349 0.19254 0.0
C1582 C 0.614 0.52 0.14126 0.0
C1583 C 0.58242 0.50233 0.13105 0.0
H1584 H 0.65426 0.53086 0.17914 0.0
H1585 H 0.62549 0.53835 0.12652 0.0
S1586 S 0.53589 0.43733 0.17442 0.0
N1587 N 0.56981 0.45075 0.19927 0.0
N1588 N 0.53882 0.45898 0.14212 0.0
C1589 C 0.56855 0.47839 0.1506 0.0
C1590 C 0.58526 0.47396 0.18152 0.0
C1591 C 0.22484 0.81792 0.92029 0.0
C1592 C 0.20205 0.83994 0.91894 0.0
C1593 C 0.23422 0.80231 0.89114 0.0
C1594 C 0.22082 0.80757 0.85937 0.0
H1595 H 0.23687 0.81403 0.94397 0.0
H1596 H 0.25279 0.78668 0.89356 0.0
S1597 S 0.15832 0.86107 0.84212 0.0
N1598 N 0.16496 0.86462 0.88297 0.0
N1599 N 0.18217 0.83536 0.82868 0.0
C1600 C 0.19679 0.82826 0.85779 0.0
C1601 C 0.18754 0.84437 0.88737 0.0
C1602 C 0.95193 0.54155 0.63919 0.0
C1603 C 0.95787 0.5719 0.65976 0.0
C1604 C 0.97204 0.53532 0.61398 0.0
C1605 C -0.0017 0.55951 0.608 0.0
H1606 H 0.93236 0.52202 0.64338 0.0
H1607 H 0.96729 0.51128 0.59948 0.0
S1608 S 0.02207 0.64413 0.65317 0.0
N1609 N 0.99082 0.62676 0.67149 0.0
N1610 N 0.02775 0.61583 0.62373 0.0
C1611 C 0.00366 0.59035 0.62776 0.0
C1612 C 0.98365 0.59636 0.65368 0.0
C1613 C 0.30393 0.21863 0.40536 0.0
C1614 C 0.27754 0.19304 0.40723 0.0
C1615 C 0.30156 0.24234 0.38254 0.0
C1616 C 0.27222 0.24183 0.36239 0.0
H1617 H 0.32627 0.22037 0.42161 0.0
H1618 H 0.32244 0.26146 0.38113 0.0
S1619 S 0.19621 0.17948 0.35909 0.0
N1620 N 0.22186 0.168 0.38725 0.0
N1621 N 0.21649 0.21296 0.34593 0.0
C1622 C 0.24574 0.21623 0.36456 0.0
C1623 C 0.24864 0.19173 0.38666 0.0
C1624 C 0.41287 0.60071 0.505 0.0
C1625 C 0.3791 0.58854 0.50027 0.0
C1626 C 0.43589 0.57891 0.50196 0.0
C1627 C 0.426 0.54422 0.49423 0.0
H1628 H 0.42153 0.62679 0.51306 0.0
H1629 H 0.46136 0.58922 0.50778 0.0
S1630 S 0.34036 0.5008 0.4751 0.0
N1631 N 0.33706 0.54014 0.48423 0.0
N1632 N 0.37991 0.4997 0.47846 0.0
C1633 C 0.39233 0.53237 0.48728 0.0
C1634 C 0.36906 0.55434 0.49039 0.0
C1635 C 0.86209 0.01683 0.56728 0.0
C1636 C 0.85145 0.98354 0.5731 0.0
C1637 C 0.89387 0.02752 0.55992 0.0
C1638 C 0.91647 0.0057 0.55939 0.0
H1639 H 0.84506 0.03421 0.56576 0.0
H1640 H 0.90036 0.05255 0.55308 0.0
S1641 S 0.90339 0.91822 0.57927 0.0
N1642 N 0.86758 0.93013 0.58211 0.0
N1643 N 0.9281 0.95097 0.56978 0.0
C1644 C 0.90754 0.97359 0.56892 0.0
C1645 C 0.87479 0.96234 0.57563 0.0
C1646 C 0.76727 0.13708 0.25372 0.0
C1647 C 0.80119 0.13712 0.2588 0.0
C1648 C 0.75389 0.16586 0.26221 0.0
C1649 C 0.774 0.19588 0.27561 0.0
H1650 H 0.75097 0.11488 0.24249 0.0
H1651 H 0.72784 0.16494 0.25678 0.0
S1652 S 0.86406 0.2089 0.29505 0.0
N1653 N 0.85423 0.16953 0.27986 0.0
N1654 N 0.82926 0.22329 0.29433 0.0
C1655 C 0.8077 0.19581 0.28161 0.0
C1656 C 0.82124 0.16657 0.27361 0.0
C1657 C 0.69363 0.09923 0.02716 0.0
C1658 C 0.69967 0.12972 0.0134 0.0
C1659 C 0.66181 0.08475 0.03213 0.0
C1660 C 0.63491 0.09985 0.02271 0.0
H1661 H 0.71368 0.08665 0.0345 0.0
H1662 H 0.65819 0.06125 0.04277 0.0
S1663 S 0.6375 0.17965 0.98554 0.0
N1664 N 0.67611 0.1747 0.99086 0.0
N1665 N 0.61623 0.14692 0.99917 0.0
C1666 C 0.64056 0.13023 0.00883 0.0
C1667 C 0.67298 0.14534 0.00446 0.0
C1668 C 0.20147 0.40849 0.26852 0.0
C1669 C 0.17491 0.4047 0.28779 0.0
C1670 C 0.22491 0.38739 0.26975 0.0
C1671 C 0.22332 0.36159 0.29061 0.0
H1672 H 0.20401 0.42773 0.25181 0.0
H1673 H 0.24442 0.39128 0.25383 0.0
S1674 S 0.16104 0.34345 0.34933 0.0
N1675 N 0.14941 0.37409 0.32994 0.0
N1676 N 0.19455 0.33554 0.33349 0.0
C1677 C 0.19749 0.35801 0.31085 0.0
C1678 C 0.17306 0.37923 0.30911 0.0
C1679 C 0.17525 0.49946 0.0266 0.0
C1680 C 0.17378 0.46489 0.02008 0.0
C1681 C 0.15023 0.5151 0.01388 0.0
C1682 C 0.1228 0.49665 0.99445 0.0
H1683 H 0.19511 0.51445 0.04292 0.0
H1684 H 0.15124 0.5413 0.02156 0.0
S1685 S 0.11054 0.40699 0.96409 0.0
N1686 N 0.14528 0.41367 0.9884 0.0
N1687 N 0.09799 0.44329 0.9645 0.0
C1688 C 0.12259 0.46279 0.98484 0.0
C1689 C 0.14809 0.44677 0.99785 0.0
C1690 C 0.80612 0.9061 0.19542 0.0
C1691 C 0.8013 0.9357 0.21329 0.0
C1692 C 0.79147 0.87479 0.20318 0.0
C1693 C 0.77172 0.87169 0.22948 0.0
H1694 H 0.82252 0.90703 0.17613 0.0
H1695 H 0.79722 0.85285 0.18959 0.0
S1696 S 0.74831 0.94143 0.28173 0.0
N1697 N 0.77281 0.95984 0.25661 0.0
N1698 N 0.74558 0.90111 0.27138 0.0
C1699 C 0.76505 0.90109 0.24625 0.0
C1700 C 0.77969 0.93303 0.23807 0.0
C1701 C 0.6761 0.09667 0.79212 0.0
C1702 C 0.6606 0.07936 0.76216 0.0
C1703 C 0.69881 0.12589 0.79216 0.0
C1704 C 0.70742 0.13799 0.76226 0.0
H1705 H 0.6694 0.08854 0.81561 0.0
H1706 H 0.70896 0.13966 0.81574 0.0
S1707 S 0.67585 0.09952 0.67729 0.0
N1708 N 0.6565 0.07499 0.70199 0.0
N1709 N 0.70026 0.12916 0.70197 0.0
C1710 C 0.69353 0.11968 0.73217 0.0
C1711 C 0.66974 0.09051 0.73215 0.0
loop_
_geom_bond_atom_site_label_1
_geom_bond_atom_site_label_2
_geom_bond_distance
_geom_bond_site_symmetry_2
_ccdc_geom_bond_type
C0 O1 1.306 . S
C0 O3 1.160 . S
O1 C0 1.306 . S
O1 Cd2 2.228 1_655 S
Cd2 O1 2.228 1_455 S
Cd2 O6 2.273 . S
Cd2 O10 2.277 . S
O3 C0 1.160 . S
O3 Cd4 2.203 1_655 S
Cd4 O3 2.203 1_455 S
Cd4 O6 2.411 . S
Cd4 O7 2.333 . S
Cd4 O8 2.352 . S
Cd4 O12 2.277 . S
Cd4 O13 2.356 . S
C5 O10 1.209 . S
C5 O12 1.226 . S
O6 Cd2 2.273 . S
O6 Cd4 2.411 . S
O6 C9 1.320 . S
O7 Cd4 2.333 . S
O7 C9 1.214 . S
O8 Cd4 2.352 . S
O8 C11 1.258 . S
C9 O6 1.320 . S
C9 O7 1.214 . S
O10 Cd2 2.277 . S
O10 C5 1.209 . S
C11 O8 1.258 . S
C11 O13 1.282 . S
O12 Cd4 2.277 . S
O12 C5 1.226 . S
O13 Cd4 2.356 . S
O13 C11 1.282 . S
C14 O15 1.306 . S
C14 O17 1.160 . S
O15 C14 1.306 . S
O15 Cd16 2.228 1_655 S
Cd16 O15 2.228 1_455 S
Cd16 O20 2.273 . S
Cd16 O24 2.277 1_455 S
O17 C14 1.160 . S
O17 Cd18 2.203 1_655 S
Cd18 O17 2.203 1_455 S
Cd18 O20 2.411 . S
Cd18 O21 2.333 . S
Cd18 O22 2.352 . S
Cd18 O26 2.277 1_455 S
Cd18 O27 2.356 . S
C19 O24 1.209 . S
C19 O26 1.226 . S
O20 Cd16 2.273 . S
O20 Cd18 2.411 . S
O20 C23 1.320 . S
O21 Cd18 2.333 . S
O21 C23 1.214 . S
O22 Cd18 2.352 . S
O22 C25 1.258 . S
C23 O20 1.320 . S
C23 O21 1.214 . S
O24 Cd16 2.277 1_655 S
O24 C19 1.209 . S
C25 O22 1.258 . S
C25 O27 1.282 . S
O26 Cd18 2.277 1_655 S
O26 C19 1.226 . S
O27 Cd18 2.356 . S
O27 C25 1.282 . S
C28 O29 1.306 . S
C28 O31 1.160 . S
O29 C28 1.306 . S
O29 Cd30 2.228 . S
Cd30 O29 2.228 . S
Cd30 O34 2.273 . S
Cd30 O38 2.277 . S
O31 C28 1.160 . S
O31 Cd32 2.203 . S
Cd32 O31 2.203 . S
Cd32 O34 2.411 . S
Cd32 O35 2.333 . S
Cd32 O36 2.352 . S
Cd32 O40 2.277 . S
Cd32 O41 2.356 . S
C33 O38 1.209 . S
C33 O40 1.226 . S
O34 Cd30 2.273 . S
O34 Cd32 2.411 . S
O34 C37 1.320 . S
O35 Cd32 2.333 . S
O35 C37 1.214 . S
O36 Cd32 2.352 . S
O36 C39 1.258 . S
C37 O34 1.320 . S
C37 O35 1.214 . S
O38 Cd30 2.277 . S
O38 C33 1.209 . S
C39 O36 1.258 . S
C39 O41 1.282 . S
O40 Cd32 2.277 . S
O40 C33 1.226 . S
O41 Cd32 2.356 . S
O41 C39 1.282 . S
C42 O43 1.306 . S
C42 O45 1.160 . S
O43 C42 1.306 . S
O43 Cd44 2.228 . S
Cd44 O43 2.228 . S
Cd44 O48 2.273 . S
Cd44 O52 2.277 . S
O45 C42 1.160 . S
O45 Cd46 2.203 . S
Cd46 O45 2.203 . S
Cd46 O48 2.411 . S
Cd46 O49 2.333 . S
Cd46 O50 2.352 . S
Cd46 O54 2.277 . S
Cd46 O55 2.356 . S
C47 O52 1.209 . S
C47 O54 1.226 . S
O48 Cd44 2.273 . S
O48 Cd46 2.411 . S
O48 C51 1.320 . S
O49 Cd46 2.333 . S
O49 C51 1.214 . S
O50 Cd46 2.352 . S
O50 C53 1.258 . S
C51 O48 1.320 . S
C51 O49 1.214 . S
O52 Cd44 2.277 . S
O52 C47 1.209 . S
C53 O50 1.258 . S
C53 O55 1.282 . S
O54 Cd46 2.277 . S
O54 C47 1.226 . S
O55 Cd46 2.356 . S
O55 C53 1.282 . S
C56 O57 1.306 . S
C56 O59 1.160 . S
O57 C56 1.306 . S
O57 Cd58 2.228 1_655 S
Cd58 O57 2.228 1_455 S
Cd58 O62 2.273 . S
Cd58 O66 2.277 . S
O59 C56 1.160 . S
O59 Cd60 2.203 1_655 S
Cd60 O59 2.203 1_455 S
Cd60 O62 2.411 . S
Cd60 O63 2.333 . S
Cd60 O64 2.352 . S
Cd60 O68 2.277 1_455 S
Cd60 O69 2.356 . S
C61 O66 1.210 . S
C61 O68 1.224 1_455 S
O62 Cd58 2.273 . S
O62 Cd60 2.411 . S
O62 C65 1.320 . S
O63 Cd60 2.333 . S
O63 C65 1.214 . S
O64 Cd60 2.352 . S
O64 C67 1.258 . S
C65 O62 1.320 . S
C65 O63 1.214 . S
O66 Cd58 2.277 . S
O66 C61 1.210 . S
C67 O64 1.258 . S
C67 O69 1.282 . S
O68 Cd60 2.277 1_655 S
O68 C61 1.224 1_655 S
O69 Cd60 2.356 . S
O69 C67 1.282 . S
C70 O71 1.306 . S
C70 O73 1.160 . S
O71 C70 1.306 . S
O71 Cd72 2.228 . S
Cd72 O71 2.228 . S
Cd72 O76 2.273 . S
Cd72 O80 2.277 . S
O73 C70 1.160 . S
O73 Cd74 2.203 . S
Cd74 O73 2.203 . S
Cd74 O76 2.411 . S
Cd74 O77 2.333 . S
Cd74 O78 2.352 . S
Cd74 O82 2.277 . S
Cd74 O83 2.356 . S
C75 O80 1.209 . S
C75 O82 1.226 . S
O76 Cd72 2.273 . S
O76 Cd74 2.411 . S
O76 C79 1.320 . S
O77 Cd74 2.333 . S
O77 C79 1.214 . S
O78 Cd74 2.352 . S
O78 C81 1.258 . S
C79 O76 1.320 . S
C79 O77 1.214 . S
O80 Cd72 2.277 . S
O80 C75 1.209 . S
C81 O78 1.258 . S
C81 O83 1.282 . S
O82 Cd74 2.277 . S
O82 C75 1.226 . S
O83 Cd74 2.356 . S
O83 C81 1.282 . S
C84 O85 1.306 . S
C84 O87 1.160 . S
O85 C84 1.306 . S
O85 Cd86 2.228 . S
Cd86 O85 2.228 . S
Cd86 O90 2.273 . S
Cd86 O94 2.277 . S
O87 C84 1.160 . S
O87 Cd88 2.203 . S
Cd88 O87 2.203 . S
Cd88 O90 2.411 . S
Cd88 O91 2.333 . S
Cd88 O92 2.352 . S
Cd88 O96 2.277 . S
Cd88 O97 2.356 . S
C89 O94 1.209 . S
C89 O96 1.226 . S
O90 Cd86 2.273 . S
O90 Cd88 2.411 . S
O90 C93 1.320 . S
O91 Cd88 2.333 . S
O91 C93 1.214 . S
O92 Cd88 2.352 . S
O92 C95 1.258 . S
C93 O90 1.320 . S
C93 O91 1.214 . S
O94 Cd86 2.277 . S
O94 C89 1.209 . S
C95 O92 1.258 . S
C95 O97 1.282 . S
O96 Cd88 2.277 . S
O96 C89 1.226 . S
O97 Cd88 2.356 . S
O97 C95 1.282 . S
C98 O99 1.306 . S
C98 O101 1.160 . S
O99 C98 1.306 . S
O99 Cd100 2.228 1_655 S
Cd100 O99 2.228 1_455 S
Cd100 O104 2.273 . S
Cd100 O108 2.277 . S
O101 C98 1.160 . S
O101 Cd102 2.203 1_655 S
Cd102 O101 2.203 1_455 S
Cd102 O104 2.411 . S
Cd102 O105 2.333 . S
Cd102 O106 2.352 . S
Cd102 O110 2.277 . S
Cd102 O111 2.356 . S
C103 O108 1.209 . S
C103 O110 1.226 . S
O104 Cd100 2.273 . S
O104 Cd102 2.411 . S
O104 C107 1.320 . S
O105 Cd102 2.333 . S
O105 C107 1.214 . S
O106 Cd102 2.352 . S
O106 C109 1.258 . S
C107 O104 1.320 . S
C107 O105 1.214 . S
O108 Cd100 2.277 . S
O108 C103 1.209 . S
C109 O106 1.258 . S
C109 O111 1.282 . S
O110 Cd102 2.277 . S
O110 C103 1.226 . S
O111 Cd102 2.356 . S
O111 C109 1.282 . S
C112 O113 1.306 . S
C112 O115 1.160 . S
O113 C112 1.306 . S
O113 Cd114 2.228 . S
Cd114 O113 2.228 . S
Cd114 O118 2.273 . S
Cd114 O122 2.277 1_545 S
O115 C112 1.160 . S
O115 Cd116 2.203 . S
Cd116 O115 2.203 . S
Cd116 O118 2.411 . S
Cd116 O119 2.333 . S
Cd116 O120 2.352 . S
Cd116 O124 2.277 . S
Cd116 O125 2.356 . S
C117 O122 1.209 . S
C117 O124 1.226 1_565 S
O118 Cd114 2.273 . S
O118 Cd116 2.411 . S
O118 C121 1.320 . S
O119 Cd116 2.333 . S
O119 C121 1.214 . S
O120 Cd116 2.352 . S
O120 C123 1.258 . S
C121 O118 1.320 . S
C121 O119 1.214 . S
O122 Cd114 2.277 1_565 S
O122 C117 1.209 . S
C123 O120 1.258 . S
C123 O125 1.282 . S
O124 Cd116 2.277 . S
O124 C117 1.226 1_545 S
O125 Cd116 2.356 . S
O125 C123 1.282 . S
C126 O127 1.306 . S
C126 O129 1.160 . S
O127 C126 1.306 . S
O127 Cd128 2.228 . S
Cd128 O127 2.228 . S
Cd128 O132 2.273 . S
Cd128 O136 2.277 . S
O129 C126 1.160 . S
O129 Cd130 2.203 . S
Cd130 O129 2.203 . S
Cd130 O132 2.411 . S
Cd130 O133 2.333 . S
Cd130 O134 2.352 . S
Cd130 O138 2.277 . S
Cd130 O139 2.356 . S
C131 O136 1.209 . S
C131 O138 1.226 . S
O132 Cd128 2.273 . S
O132 Cd130 2.411 . S
O132 C135 1.320 . S
O133 Cd130 2.333 . S
O133 C135 1.214 . S
O134 Cd130 2.352 . S
O134 C137 1.258 . S
C135 O132 1.320 . S
C135 O133 1.214 . S
O136 Cd128 2.277 . S
O136 C131 1.209 . S
C137 O134 1.258 . S
C137 O139 1.282 . S
O138 Cd130 2.277 . S
O138 C131 1.226 . S
O139 Cd130 2.356 . S
O139 C137 1.282 . S
C140 O141 1.306 . S
C140 O143 1.160 1_545 S
O141 C140 1.306 . S
O141 Cd142 2.228 . S
Cd142 O141 2.228 . S
Cd142 O146 2.273 1_545 S
Cd142 O150 2.277 . S
O143 C140 1.160 1_565 S
O143 Cd144 2.203 . S
Cd144 O143 2.203 . S
Cd144 O146 2.411 . S
Cd144 O147 2.333 . S
Cd144 O148 2.352 . S
Cd144 O152 2.277 1_565 S
Cd144 O153 2.356 . S
C145 O150 1.209 . S
C145 O152 1.226 . S
O146 Cd142 2.273 1_565 S
O146 Cd144 2.411 . S
O146 C149 1.320 . S
O147 Cd144 2.333 . S
O147 C149 1.214 . S
O148 Cd144 2.352 . S
O148 C151 1.258 . S
C149 O146 1.320 . S
C149 O147 1.214 . S
O150 Cd142 2.277 . S
O150 C145 1.209 . S
C151 O148 1.258 . S
C151 O153 1.282 . S
O152 Cd144 2.277 1_545 S
O152 C145 1.226 . S
O153 Cd144 2.356 . S
O153 C151 1.282 . S
C154 O155 1.306 . S
C154 O157 1.160 . S
O155 C154 1.306 . S
O155 Cd156 2.228 1_554 S
Cd156 O155 2.228 1_556 S
Cd156 O160 2.273 1_556 S
Cd156 O164 2.277 . S
O157 C154 1.160 . S
O157 Cd158 2.203 . S
Cd158 O157 2.203 . S
Cd158 O160 2.411 . S
Cd158 O161 2.333 . S
Cd158 O162 2.352 . S
Cd158 O166 2.277 1_554 S
Cd158 O167 2.356 . S
C159 O164 1.209 . S
C159 O166 1.226 . S
O160 Cd156 2.273 1_554 S
O160 Cd158 2.411 . S
O160 C163 1.320 . S
O161 Cd158 2.333 . S
O161 C163 1.214 . S
O162 Cd158 2.352 . S
O162 C165 1.258 . S
C163 O160 1.320 . S
C163 O161 1.214 . S
O164 Cd156 2.277 . S
O164 C159 1.209 . S
C165 O162 1.258 . S
C165 O167 1.282 . S
O166 Cd158 2.277 1_556 S
O166 C159 1.226 . S
O167 Cd158 2.356 . S
O167 C165 1.282 . S
C168 O169 1.306 . S
C168 O171 1.160 . S
O169 C168 1.306 . S
O169 Cd170 2.228 1_554 S
Cd170 O169 2.228 1_556 S
Cd170 O174 2.273 1_556 S
Cd170 O178 2.277 . S
O171 C168 1.160 . S
O171 Cd172 2.203 . S
Cd172 O171 2.203 . S
Cd172 O174 2.411 . S
Cd172 O175 2.333 . S
Cd172 O176 2.352 . S
Cd172 O180 2.277 1_554 S
Cd172 O181 2.356 . S
C173 O178 1.209 . S
C173 O180 1.226 . S
O174 Cd170 2.273 1_554 S
O174 Cd172 2.411 . S
O174 C177 1.320 . S
O175 Cd172 2.333 . S
O175 C177 1.214 . S
O176 Cd172 2.352 . S
O176 C179 1.258 . S
C177 O174 1.320 . S
C177 O175 1.214 . S
O178 Cd170 2.277 . S
O178 C173 1.209 . S
C179 O176 1.258 . S
C179 O181 1.282 . S
O180 Cd172 2.277 1_556 S
O180 C173 1.226 . S
O181 Cd172 2.356 . S
O181 C179 1.282 . S
C182 O183 1.306 . S
C182 O185 1.160 . S
O183 C182 1.306 . S
O183 Cd184 2.228 . S
Cd184 O183 2.228 . S
Cd184 O188 2.273 . S
Cd184 O192 2.277 . S
O185 C182 1.160 . S
O185 Cd186 2.203 1_554 S
Cd186 O185 2.203 1_556 S
Cd186 O188 2.411 1_556 S
Cd186 O189 2.333 . S
Cd186 O190 2.352 . S
Cd186 O194 2.277 1_556 S
Cd186 O195 2.356 . S
C187 O192 1.209 . S
C187 O194 1.226 . S
O188 Cd184 2.273 . S
O188 Cd186 2.411 1_554 S
O188 C191 1.320 1_554 S
O189 Cd186 2.333 . S
O189 C191 1.214 . S
O190 Cd186 2.352 . S
O190 C193 1.258 . S
C191 O188 1.320 1_556 S
C191 O189 1.214 . S
O192 Cd184 2.277 . S
O192 C187 1.209 . S
C193 O190 1.258 . S
C193 O195 1.282 . S
O194 Cd186 2.277 1_554 S
O194 C187 1.226 . S
O195 Cd186 2.356 . S
O195 C193 1.282 . S
C196 O197 1.306 . S
C196 O199 1.160 . S
O197 C196 1.306 . S
O197 Cd198 2.228 . S
Cd198 O197 2.228 . S
Cd198 O202 2.273 . S
Cd198 O206 2.277 . S
O199 C196 1.160 . S
O199 Cd200 2.203 . S
Cd200 O199 2.203 . S
Cd200 O202 2.411 . S
Cd200 O203 2.333 . S
Cd200 O204 2.352 . S
Cd200 O208 2.277 . S
Cd200 O209 2.356 . S
C201 O206 1.209 . S
C201 O208 1.226 . S
O202 Cd198 2.273 . S
O202 Cd200 2.411 . S
O202 C205 1.320 . S
O203 Cd200 2.333 . S
O203 C205 1.214 . S
O204 Cd200 2.352 . S
O204 C207 1.258 . S
C205 O202 1.320 . S
C205 O203 1.214 . S
O206 Cd198 2.277 . S
O206 C201 1.209 . S
C207 O204 1.258 . S
C207 O209 1.282 . S
O208 Cd200 2.277 . S
O208 C201 1.226 . S
O209 Cd200 2.356 . S
O209 C207 1.282 . S
C210 O211 1.306 . S
C210 O213 1.160 . S
O211 C210 1.306 . S
O211 Cd212 2.228 . S
Cd212 O211 2.228 . S
Cd212 O216 2.273 . S
Cd212 O220 2.277 . S
O213 C210 1.160 . S
O213 Cd214 2.203 . S
Cd214 O213 2.203 . S
Cd214 O216 2.411 . S
Cd214 O217 2.333 . S
Cd214 O218 2.352 . S
Cd214 O222 2.277 . S
Cd214 O223 2.356 . S
C215 O220 1.209 . S
C215 O222 1.226 . S
O216 Cd212 2.273 . S
O216 Cd214 2.411 . S
O216 C219 1.320 . S
O217 Cd214 2.333 . S
O217 C219 1.214 . S
O218 Cd214 2.352 . S
O218 C221 1.258 . S
C219 O216 1.320 . S
C219 O217 1.214 . S
O220 Cd212 2.277 . S
O220 C215 1.209 . S
C221 O218 1.258 . S
C221 O223 1.282 . S
O222 Cd214 2.277 . S
O222 C215 1.226 . S
O223 Cd214 2.356 . S
O223 C221 1.282 . S
C224 O225 1.306 . S
C224 O227 1.160 . S
O225 C224 1.306 . S
O225 Cd226 2.228 . S
Cd226 O225 2.228 . S
Cd226 O230 2.273 . S
Cd226 O234 2.277 1_545 S
O227 C224 1.160 . S
O227 Cd228 2.203 . S
Cd228 O227 2.203 . S
Cd228 O230 2.411 . S
Cd228 O231 2.333 . S
Cd228 O232 2.352 . S
Cd228 O236 2.277 . S
Cd228 O237 2.356 . S
C229 O234 1.209 . S
C229 O236 1.226 1_565 S
O230 Cd226 2.273 . S
O230 Cd228 2.411 . S
O230 C233 1.320 . S
O231 Cd228 2.333 . S
O231 C233 1.214 . S
O232 Cd228 2.352 . S
O232 C235 1.258 . S
C233 O230 1.320 . S
C233 O231 1.214 . S
O234 Cd226 2.277 1_565 S
O234 C229 1.209 . S
C235 O232 1.258 . S
C235 O237 1.282 . S
O236 Cd228 2.277 . S
O236 C229 1.226 1_545 S
O237 Cd228 2.356 . S
O237 C235 1.282 . S
C238 O239 1.306 . S
C238 O241 1.160 . S
O239 C238 1.306 . S
O239 Cd240 2.228 . S
Cd240 O239 2.228 . S
Cd240 O244 2.273 . S
Cd240 O248 2.277 . S
O241 C238 1.160 . S
O241 Cd242 2.203 . S
Cd242 O241 2.203 . S
Cd242 O244 2.411 . S
Cd242 O245 2.333 . S
Cd242 O246 2.352 . S
Cd242 O250 2.277 . S
Cd242 O251 2.356 . S
C243 O248 1.209 . S
C243 O250 1.226 . S
O244 Cd240 2.273 . S
O244 Cd242 2.411 . S
O244 C247 1.320 . S
O245 Cd242 2.333 . S
O245 C247 1.214 . S
O246 Cd242 2.352 . S
O246 C249 1.258 . S
C247 O244 1.320 . S
C247 O245 1.214 . S
O248 Cd240 2.277 . S
O248 C243 1.209 . S
C249 O246 1.258 . S
C249 O251 1.282 . S
O250 Cd242 2.277 . S
O250 C243 1.226 . S
O251 Cd242 2.356 . S
O251 C249 1.282 . S
C252 O253 1.306 . S
C252 O255 1.160 . S
O253 C252 1.306 . S
O253 Cd254 2.228 . S
Cd254 O253 2.228 . S
Cd254 O258 2.273 . S
Cd254 O262 2.277 . S
O255 C252 1.160 . S
O255 Cd256 2.203 . S
Cd256 O255 2.203 . S
Cd256 O258 2.411 . S
Cd256 O259 2.333 . S
Cd256 O260 2.352 . S
Cd256 O264 2.277 . S
Cd256 O265 2.356 . S
C257 O262 1.209 . S
C257 O264 1.226 . S
O258 Cd254 2.273 . S
O258 Cd256 2.411 . S
O258 C261 1.320 . S
O259 Cd256 2.333 . S
O259 C261 1.214 . S
O260 Cd256 2.352 . S
O260 C263 1.258 . S
C261 O258 1.320 . S
C261 O259 1.214 . S
O262 Cd254 2.277 . S
O262 C257 1.209 . S
C263 O260 1.258 . S
C263 O265 1.282 . S
O264 Cd256 2.277 . S
O264 C257 1.226 . S
O265 Cd256 2.356 . S
O265 C263 1.282 . S
C266 O267 1.306 . S
C266 O269 1.160 . S
O267 C266 1.306 . S
O267 Cd268 2.228 . S
Cd268 O267 2.228 . S
Cd268 O272 2.273 . S
Cd268 O276 2.277 . S
O269 C266 1.160 . S
O269 Cd270 2.203 . S
Cd270 O269 2.203 . S
Cd270 O272 2.411 . S
Cd270 O273 2.333 1_545 S
Cd270 O274 2.352 1_545 S
Cd270 O278 2.277 . S
Cd270 O279 2.356 1_545 S
C271 O276 1.209 . S
C271 O278 1.226 . S
O272 Cd268 2.273 . S
O272 Cd270 2.411 . S
O272 C275 1.320 1_545 S
O273 Cd270 2.333 1_565 S
O273 C275 1.214 . S
O274 Cd270 2.352 1_565 S
O274 C277 1.258 . S
C275 O272 1.320 1_565 S
C275 O273 1.214 . S
O276 Cd268 2.277 . S
O276 C271 1.209 . S
C277 O274 1.258 . S
C277 O279 1.282 . S
O278 Cd270 2.277 . S
O278 C271 1.226 . S
O279 Cd270 2.356 1_565 S
O279 C277 1.282 . S
C280 O281 1.306 . S
C280 O283 1.150 1_554 S
O281 C280 1.306 . S
O281 Cd282 2.228 . S
Cd282 O281 2.228 . S
Cd282 O286 2.273 1_554 S
Cd282 O290 2.277 . S
O283 C280 1.150 1_556 S
O283 Cd284 2.203 . S
Cd284 O283 2.203 . S
Cd284 O286 2.411 . S
Cd284 O287 2.333 . S
Cd284 O288 2.352 . S
Cd284 O292 2.277 1_556 S
Cd284 O293 2.356 . S
C285 O290 1.209 . S
C285 O292 1.226 . S
O286 Cd282 2.273 1_556 S
O286 Cd284 2.411 . S
O286 C289 1.320 . S
O287 Cd284 2.333 . S
O287 C289 1.214 . S
O288 Cd284 2.352 . S
O288 C291 1.258 . S
C289 O286 1.320 . S
C289 O287 1.214 . S
O290 Cd282 2.277 . S
O290 C285 1.209 . S
C291 O288 1.258 . S
C291 O293 1.282 . S
O292 Cd284 2.277 1_554 S
O292 C285 1.226 . S
O293 Cd284 2.356 . S
O293 C291 1.282 . S
C294 O295 1.306 . S
C294 O297 1.160 . S
O295 C294 1.306 . S
O295 Cd296 2.228 . S
Cd296 O295 2.228 . S
Cd296 O300 2.273 . S
Cd296 O304 2.277 . S
O297 C294 1.160 . S
O297 Cd298 2.203 . S
Cd298 O297 2.203 . S
Cd298 O300 2.411 . S
Cd298 O301 2.333 . S
Cd298 O302 2.352 . S
Cd298 O306 2.277 . S
Cd298 O307 2.356 . S
C299 O304 1.209 . S
C299 O306 1.226 . S
O300 Cd296 2.273 . S
O300 Cd298 2.411 . S
O300 C303 1.320 . S
O301 Cd298 2.333 . S
O301 C303 1.214 . S
O302 Cd298 2.352 . S
O302 C305 1.258 . S
C303 O300 1.320 . S
C303 O301 1.214 . S
O304 Cd296 2.277 . S
O304 C299 1.209 . S
C305 O302 1.258 . S
C305 O307 1.282 . S
O306 Cd298 2.277 . S
O306 C299 1.226 . S
O307 Cd298 2.356 . S
O307 C305 1.282 . S
C308 O309 1.306 . S
C308 O311 1.160 . S
O309 C308 1.306 . S
O309 Cd310 2.228 . S
Cd310 O309 2.228 . S
Cd310 O314 2.273 . S
Cd310 O318 2.277 . S
O311 C308 1.160 . S
O311 Cd312 2.203 . S
Cd312 O311 2.203 . S
Cd312 O314 2.411 . S
Cd312 O315 2.333 . S
Cd312 O316 2.352 . S
Cd312 O320 2.277 . S
Cd312 O321 2.356 . S
C313 O318 1.209 . S
C313 O320 1.226 . S
O314 Cd310 2.273 . S
O314 Cd312 2.411 . S
O314 C317 1.320 . S
O315 Cd312 2.333 . S
O315 C317 1.214 . S
O316 Cd312 2.352 . S
O316 C319 1.258 . S
C317 O314 1.320 . S
C317 O315 1.214 . S
O318 Cd310 2.277 . S
O318 C313 1.209 . S
C319 O316 1.258 . S
C319 O321 1.282 . S
O320 Cd312 2.277 . S
O320 C313 1.226 . S
O321 Cd312 2.356 . S
O321 C319 1.282 . S
C322 O323 1.306 . S
C322 O325 1.160 . S
O323 C322 1.306 . S
O323 Cd324 2.228 . S
Cd324 O323 2.228 . S
Cd324 O328 2.273 . S
Cd324 O332 2.277 . S
O325 C322 1.160 . S
O325 Cd326 2.203 . S
Cd326 O325 2.203 . S
Cd326 O328 2.411 . S
Cd326 O329 2.333 . S
Cd326 O330 2.352 . S
Cd326 O334 2.277 . S
Cd326 O335 2.356 . S
C327 O332 1.209 . S
C327 O334 1.226 . S
O328 Cd324 2.273 . S
O328 Cd326 2.411 . S
O328 C331 1.320 . S
O329 Cd326 2.333 . S
O329 C331 1.214 . S
O330 Cd326 2.352 . S
O330 C333 1.258 . S
C331 O328 1.320 . S
C331 O329 1.214 . S
O332 Cd324 2.277 . S
O332 C327 1.209 . S
C333 O330 1.258 . S
C333 O335 1.282 . S
O334 Cd326 2.277 . S
O334 C327 1.226 . S
O335 Cd326 2.356 . S
O335 C333 1.282 . S
Tb336 O339 2.453 . S
Tb336 O340 2.596 . S
Tb336 O341 2.374 1_554 S
Tb336 O349 2.343 1_455 S
Tb336 O351 2.353 . S
Tb336 O353 2.427 . S
Tb336 O354 2.513 1_554 S
C337 O341 1.251 . S
C337 O343 1.263 1_545 S
Tb338 O340 2.343 1_665 S
Tb338 O343 2.353 1_654 S
Tb338 O346 2.427 1_655 S
Tb338 O347 2.513 . S
Tb338 O348 2.453 1_564 S
Tb338 O349 2.596 1_565 S
Tb338 O350 2.374 1_565 S
O339 Tb336 2.453 . S
O339 C355 1.245 . S
O340 Tb336 2.596 . S
O340 Tb338 2.343 1_445 S
O340 C355 1.259 . S
O341 Tb336 2.374 1_556 S
O341 C337 1.251 . S
C342 O346 1.275 . S
C342 O347 1.246 1_455 S
O343 C337 1.263 1_565 S
O343 Tb338 2.353 1_456 S
C344 O348 1.245 1_554 S
C344 O349 1.259 . S
C345 O350 1.250 . S
C345 O351 1.263 1_655 S
O346 Tb338 2.427 1_455 S
O346 C342 1.275 . S
O347 Tb338 2.513 . S
O347 C342 1.246 1_655 S
O348 Tb338 2.453 1_546 S
O348 C344 1.245 1_556 S
O349 Tb336 2.343 1_655 S
O349 Tb338 2.596 1_545 S
O349 C344 1.259 . S
O350 Tb338 2.374 1_545 S
O350 C345 1.250 . S
O351 Tb336 2.353 . S
O351 C345 1.263 1_455 S
C352 O353 1.275 . S
C352 O354 1.246 1_554 S
O353 Tb336 2.427 . S
O353 C352 1.275 . S
O354 Tb336 2.513 1_556 S
O354 C352 1.246 1_556 S
C355 O339 1.245 . S
C355 O340 1.259 . S
Tb356 O359 2.453 . S
Tb356 O360 2.596 . S
Tb356 O361 2.374 . S
Tb356 O369 2.343 . S
Tb356 O371 2.353 . S
Tb356 O373 2.427 . S
Tb356 O374 2.513 . S
C357 O361 1.251 . S
C357 O363 1.263 . S
Tb358 O360 2.343 . S
Tb358 O363 2.353 . S
Tb358 O366 2.427 . S
Tb358 O367 2.513 . S
Tb358 O368 2.453 . S
Tb358 O369 2.596 . S
Tb358 O370 2.374 . S
O359 Tb356 2.453 . S
O359 C375 1.245 . S
O360 Tb356 2.596 . S
O360 Tb358 2.343 . S
O360 C375 1.259 . S
O361 Tb356 2.374 . S
O361 C357 1.251 . S
C362 O366 1.275 . S
C362 O367 1.246 . S
O363 C357 1.263 . S
O363 Tb358 2.353 . S
C364 O368 1.245 . S
C364 O369 1.259 . S
C365 O370 1.250 . S
C365 O371 1.263 . S
O366 Tb358 2.427 . S
O366 C362 1.275 . S
O367 Tb358 2.513 . S
O367 C362 1.246 . S
O368 Tb358 2.453 . S
O368 C364 1.245 . S
O369 Tb356 2.343 . S
O369 Tb358 2.596 . S
O369 C364 1.259 . S
O370 Tb358 2.374 . S
O370 C365 1.250 . S
O371 Tb356 2.353 . S
O371 C365 1.263 . S
C372 O373 1.275 . S
C372 O374 1.246 . S
O373 Tb356 2.427 . S
O373 C372 1.275 . S
O374 Tb356 2.513 . S
O374 C372 1.246 . S
C375 O359 1.245 . S
C375 O360 1.259 . S
Tb376 O379 2.453 . S
Tb376 O380 2.596 . S
Tb376 O381 2.374 . S
Tb376 O389 2.343 1_545 S
Tb376 O391 2.353 . S
Tb376 O393 2.427 . S
Tb376 O394 2.513 1_545 S
C377 O381 1.251 . S
C377 O383 1.263 . S
Tb378 O380 2.343 . S
Tb378 O383 2.353 . S
Tb378 O386 2.427 . S
Tb378 O387 2.513 . S
Tb378 O388 2.453 1_545 S
Tb378 O389 2.596 1_545 S
Tb378 O390 2.374 . S
O379 Tb376 2.453 . S
O379 C395 1.245 . S
O380 Tb376 2.596 . S
O380 Tb378 2.343 . S
O380 C395 1.259 . S
O381 Tb376 2.374 . S
O381 C377 1.251 . S
C382 O386 1.275 . S
C382 O387 1.246 . S
O383 C377 1.263 . S
O383 Tb378 2.353 . S
C384 O388 1.245 . S
C384 O389 1.259 . S
C385 O390 1.250 . S
C385 O391 1.263 . S
O386 Tb378 2.427 . S
O386 C382 1.275 . S
O387 Tb378 2.513 . S
O387 C382 1.246 . S
O388 Tb378 2.453 1_565 S
O388 C384 1.245 . S
O389 Tb376 2.343 1_565 S
O389 Tb378 2.596 1_565 S
O389 C384 1.259 . S
O390 Tb378 2.374 . S
O390 C385 1.250 . S
O391 Tb376 2.353 . S
O391 C385 1.263 . S
C392 O393 1.275 1_565 S
C392 O394 1.246 . S
O393 Tb376 2.427 . S
O393 C392 1.275 1_545 S
O394 Tb376 2.513 1_565 S
O394 C392 1.246 . S
C395 O379 1.245 . S
C395 O380 1.259 . S
Tb396 O399 2.453 . S
Tb396 O400 2.596 . S
Tb396 O401 2.374 . S
Tb396 O409 2.343 . S
Tb396 O411 2.353 . S
Tb396 O413 2.427 . S
Tb396 O414 2.513 . S
C397 O401 1.251 . S
C397 O403 1.263 . S
Tb398 O400 2.343 . S
Tb398 O403 2.353 . S
Tb398 O406 2.427 . S
Tb398 O407 2.513 . S
Tb398 O408 2.453 . S
Tb398 O409 2.596 . S
Tb398 O410 2.374 . S
O399 Tb396 2.453 . S
O399 C415 1.245 . S
O400 Tb396 2.596 . S
O400 Tb398 2.343 . S
O400 C415 1.259 . S
O401 Tb396 2.374 . S
O401 C397 1.251 . S
C402 O406 1.275 . S
C402 O407 1.246 . S
O403 C397 1.263 . S
O403 Tb398 2.353 . S
C404 O408 1.245 . S
C404 O409 1.259 . S
C405 O410 1.250 . S
C405 O411 1.263 . S
O406 Tb398 2.427 . S
O406 C402 1.275 . S
O407 Tb398 2.513 . S
O407 C402 1.246 . S
O408 Tb398 2.453 . S
O408 C404 1.245 . S
O409 Tb396 2.343 . S
O409 Tb398 2.596 . S
O409 C404 1.259 . S
O410 Tb398 2.374 . S
O410 C405 1.250 . S
O411 Tb396 2.353 . S
O411 C405 1.263 . S
C412 O413 1.275 . S
C412 O414 1.246 . S
O413 Tb396 2.427 . S
O413 C412 1.275 . S
O414 Tb396 2.513 . S
O414 C412 1.246 . S
C415 O399 1.245 . S
C415 O400 1.259 . S
Tb416 O419 2.445 1_545 S
Tb416 O420 2.594 1_545 S
Tb416 O421 2.374 1_445 S
Tb416 O429 2.352 . S
Tb416 O431 2.356 . S
Tb416 O433 2.432 . S
Tb416 O434 2.518 1_455 S
C417 O421 1.251 1_545 S
C417 O423 1.263 . S
Tb418 O420 2.343 1_545 S
Tb418 O423 2.353 1_455 S
Tb418 O426 2.427 . S
Tb418 O427 2.513 . S
Tb418 O428 2.453 . S
Tb418 O429 2.596 . S
Tb418 O430 2.374 . S
O419 Tb416 2.445 1_565 S
O419 C435 1.245 . S
O420 Tb416 2.594 1_565 S
O420 Tb418 2.343 1_565 S
O420 C435 1.259 . S
O421 Tb416 2.374 1_665 S
O421 C417 1.251 1_565 S
C422 O426 1.275 . S
C422 O427 1.246 . S
O423 C417 1.263 . S
O423 Tb418 2.353 1_655 S
C424 O428 1.245 . S
C424 O429 1.259 . S
C425 O430 1.250 . S
C425 O431 1.263 . S
O426 Tb418 2.427 . S
O426 C422 1.275 . S
O427 Tb418 2.513 . S
O427 C422 1.246 . S
O428 Tb418 2.453 . S
O428 C424 1.245 . S
O429 Tb416 2.352 . S
O429 Tb418 2.596 . S
O429 C424 1.259 . S
O430 Tb418 2.374 . S
O430 C425 1.250 . S
O431 Tb416 2.356 . S
O431 C425 1.263 . S
C432 O433 1.275 1_655 S
C432 O434 1.246 . S
O433 Tb416 2.432 . S
O433 C432 1.275 1_455 S
O434 Tb416 2.518 1_655 S
O434 C432 1.246 . S
C435 O419 1.245 . S
C435 O420 1.259 . S
Tb436 O439 2.453 . S
Tb436 O440 2.596 . S
Tb436 O441 2.374 . S
Tb436 O449 2.343 . S
Tb436 O451 2.353 . S
Tb436 O453 2.427 . S
Tb436 O454 2.513 . S
C437 O441 1.251 . S
C437 O443 1.263 . S
Tb438 O440 2.343 . S
Tb438 O443 2.353 . S
Tb438 O446 2.427 . S
Tb438 O447 2.513 . S
Tb438 O448 2.453 . S
Tb438 O449 2.596 . S
Tb438 O450 2.374 . S
O439 Tb436 2.453 . S
O439 C455 1.245 . S
O440 Tb436 2.596 . S
O440 Tb438 2.343 . S
O440 C455 1.259 . S
O441 Tb436 2.374 . S
O441 C437 1.251 . S
C442 O446 1.275 . S
C442 O447 1.246 . S
O443 C437 1.263 . S
O443 Tb438 2.353 . S
C444 O448 1.245 . S
C444 O449 1.259 . S
C445 O450 1.250 . S
C445 O451 1.263 . S
O446 Tb438 2.427 . S
O446 C442 1.275 . S
O447 Tb438 2.513 . S
O447 C442 1.246 . S
O448 Tb438 2.453 . S
O448 C444 1.245 . S
O449 Tb436 2.343 . S
O449 Tb438 2.596 . S
O449 C444 1.259 . S
O450 Tb438 2.374 . S
O450 C445 1.250 . S
O451 Tb436 2.353 . S
O451 C445 1.263 . S
C452 O453 1.275 . S
C452 O454 1.246 . S
O453 Tb436 2.427 . S
O453 C452 1.275 . S
O454 Tb436 2.513 . S
O454 C452 1.246 . S
C455 O439 1.245 . S
C455 O440 1.259 . S
Tb456 O459 2.453 . S
Tb456 O460 2.596 . S
Tb456 O461 2.374 1_545 S
Tb456 O469 2.343 1_556 S
Tb456 O471 2.353 1_556 S
Tb456 O473 2.427 1_556 S
Tb456 O474 2.513 1_546 S
C457 O461 1.255 . S
C457 O463 1.250 1_556 S
Tb458 O460 2.343 1_554 S
Tb458 O463 2.353 1_545 S
Tb458 O466 2.427 . S
Tb458 O467 2.513 . S
Tb458 O468 2.453 . S
Tb458 O469 2.596 . S
Tb458 O470 2.374 . S
O459 Tb456 2.453 . S
O459 C475 1.245 . S
O460 Tb456 2.596 . S
O460 Tb458 2.343 1_556 S
O460 C475 1.259 . S
O461 Tb456 2.374 1_565 S
O461 C457 1.255 . S
C462 O466 1.275 . S
C462 O467 1.246 . S
O463 C457 1.250 1_554 S
O463 Tb458 2.353 1_565 S
C464 O468 1.245 . S
C464 O469 1.259 . S
C465 O470 1.250 . S
C465 O471 1.263 . S
O466 Tb458 2.427 . S
O466 C462 1.275 . S
O467 Tb458 2.513 . S
O467 C462 1.246 . S
O468 Tb458 2.453 . S
O468 C464 1.245 . S
O469 Tb456 2.343 1_554 S
O469 Tb458 2.596 . S
O469 C464 1.259 . S
O470 Tb458 2.374 . S
O470 C465 1.250 . S
O471 Tb456 2.353 1_554 S
O471 C465 1.263 . S
C472 O473 1.253 1_565 S
C472 O474 1.264 . S
O473 Tb456 2.427 1_554 S
O473 C472 1.253 1_545 S
O474 Tb456 2.513 1_564 S
O474 C472 1.264 . S
C475 O459 1.245 . S
C475 O460 1.259 . S
Tb476 O479 2.453 . S
Tb476 O480 2.596 . S
Tb476 O481 2.374 . S
Tb476 O489 2.343 . S
Tb476 O491 2.353 . S
Tb476 O493 2.427 . S
Tb476 O494 2.513 . S
C477 O481 1.251 . S
C477 O483 1.263 . S
Tb478 O480 2.343 . S
Tb478 O483 2.353 . S
Tb478 O486 2.427 . S
Tb478 O487 2.513 . S
Tb478 O488 2.453 . S
Tb478 O489 2.596 . S
Tb478 O490 2.374 . S
O479 Tb476 2.453 . S
O479 C495 1.245 . S
O480 Tb476 2.596 . S
O480 Tb478 2.343 . S
O480 C495 1.259 . S
O481 Tb476 2.374 . S
O481 C477 1.251 . S
C482 O486 1.275 . S
C482 O487 1.246 . S
O483 C477 1.263 . S
O483 Tb478 2.353 . S
C484 O488 1.245 . S
C484 O489 1.259 . S
C485 O490 1.250 . S
C485 O491 1.263 . S
O486 Tb478 2.427 . S
O486 C482 1.275 . S
O487 Tb478 2.513 . S
O487 C482 1.246 . S
O488 Tb478 2.453 . S
O488 C484 1.245 . S
O489 Tb476 2.343 . S
O489 Tb478 2.596 . S
O489 C484 1.259 . S
O490 Tb478 2.374 . S
O490 C485 1.250 . S
O491 Tb476 2.353 . S
O491 C485 1.263 . S
C492 O493 1.275 . S
C492 O494 1.246 . S
O493 Tb476 2.427 . S
O493 C492 1.275 . S
O494 Tb476 2.513 . S
O494 C492 1.246 . S
C495 O479 1.245 . S
C495 O480 1.259 . S
Tb496 O499 2.453 1_556 S
Tb496 O500 2.596 1_556 S
Tb496 O501 2.382 . S
Tb496 O509 2.343 . S
Tb496 O511 2.353 . S
Tb496 O513 2.427 . S
Tb496 O514 2.513 . S
C497 O501 1.237 1_554 S
C497 O503 1.263 . S
Tb498 O500 2.343 . S
Tb498 O503 2.353 . S
Tb498 O506 2.427 . S
Tb498 O507 2.513 . S
Tb498 O508 2.453 . S
Tb498 O509 2.596 1_554 S
Tb498 O510 2.374 . S
O499 Tb496 2.453 1_554 S
O499 C515 1.245 . S
O500 Tb496 2.596 1_554 S
O500 Tb498 2.343 . S
O500 C515 1.259 . S
O501 Tb496 2.382 . S
O501 C497 1.237 1_556 S
C502 O506 1.275 . S
C502 O507 1.246 . S
O503 C497 1.263 . S
O503 Tb498 2.353 . S
C504 O508 1.245 . S
C504 O509 1.259 1_554 S
C505 O510 1.250 . S
C505 O511 1.263 1_554 S
O506 Tb498 2.427 . S
O506 C502 1.275 . S
O507 Tb498 2.513 . S
O507 C502 1.246 . S
O508 Tb498 2.453 . S
O508 C504 1.245 . S
O509 Tb496 2.343 . S
O509 Tb498 2.596 1_556 S
O509 C504 1.259 1_556 S
O510 Tb498 2.374 . S
O510 C505 1.250 . S
O511 Tb496 2.353 . S
O511 C505 1.263 1_556 S
C512 O513 1.275 . S
C512 O514 1.246 . S
O513 Tb496 2.427 . S
O513 C512 1.275 . S
O514 Tb496 2.513 . S
O514 C512 1.246 . S
C515 O499 1.245 . S
C515 O500 1.259 . S
Tb516 O519 2.453 . S
Tb516 O520 2.596 . S
Tb516 O521 2.374 . S
Tb516 O529 2.343 . S
Tb516 O531 2.353 . S
Tb516 O533 2.427 . S
Tb516 O534 2.513 . S
C517 O521 1.251 . S
C517 O523 1.263 . S
Tb518 O520 2.343 . S
Tb518 O523 2.353 . S
Tb518 O526 2.427 . S
Tb518 O527 2.513 . S
Tb518 O528 2.453 . S
Tb518 O529 2.596 . S
Tb518 O530 2.374 . S
O519 Tb516 2.453 . S
O519 C535 1.245 . S
O520 Tb516 2.596 . S
O520 Tb518 2.343 . S
O520 C535 1.259 . S
O521 Tb516 2.374 . S
O521 C517 1.251 . S
C522 O526 1.275 . S
C522 O527 1.246 . S
O523 C517 1.263 . S
O523 Tb518 2.353 . S
C524 O528 1.245 . S
C524 O529 1.259 . S
C525 O530 1.250 . S
C525 O531 1.263 . S
O526 Tb518 2.427 . S
O526 C522 1.275 . S
O527 Tb518 2.513 . S
O527 C522 1.246 . S
O528 Tb518 2.453 . S
O528 C524 1.245 . S
O529 Tb516 2.343 . S
O529 Tb518 2.596 . S
O529 C524 1.259 . S
O530 Tb518 2.374 . S
O530 C525 1.250 . S
O531 Tb516 2.353 . S
O531 C525 1.263 . S
C532 O533 1.275 . S
C532 O534 1.246 . S
O533 Tb516 2.427 . S
O533 C532 1.275 . S
O534 Tb516 2.513 . S
O534 C532 1.246 . S
C535 O519 1.245 . S
C535 O520 1.259 . S
Tb536 O539 2.453 . S
Tb536 O540 2.596 1_655 S
Tb536 O541 2.374 . S
Tb536 O549 2.343 . S
Tb536 O551 2.353 . S
Tb536 O553 2.427 . S
Tb536 O554 2.513 . S
C537 O541 1.251 1_455 S
C537 O543 1.263 . S
Tb538 O540 2.343 . S
Tb538 O543 2.353 . S
Tb538 O546 2.427 . S
Tb538 O547 2.513 . S
Tb538 O548 2.453 . S
Tb538 O549 2.596 1_455 S
Tb538 O550 2.374 . S
O539 Tb536 2.453 . S
O539 C555 1.245 1_655 S
O540 Tb536 2.596 1_455 S
O540 Tb538 2.343 . S
O540 C555 1.259 . S
O541 Tb536 2.374 . S
O541 C537 1.251 1_655 S
C542 O546 1.275 . S
C542 O547 1.246 . S
O543 C537 1.263 . S
O543 Tb538 2.353 . S
C544 O548 1.245 1_655 S
C544 O549 1.259 . S
C545 O550 1.250 . S
C545 O551 1.263 1_455 S
O546 Tb538 2.427 . S
O546 C542 1.275 . S
O547 Tb538 2.513 . S
O547 C542 1.246 . S
O548 Tb538 2.453 . S
O548 C544 1.245 1_455 S
O549 Tb536 2.343 . S
O549 Tb538 2.596 1_655 S
O549 C544 1.259 . S
O550 Tb538 2.374 . S
O550 C545 1.250 . S
O551 Tb536 2.353 . S
O551 C545 1.263 1_655 S
C552 O553 1.275 . S
C552 O554 1.246 . S
O553 Tb536 2.427 . S
O553 C552 1.275 . S
O554 Tb536 2.513 . S
O554 C552 1.246 . S
C555 O539 1.245 1_455 S
C555 O540 1.259 . S
Tb556 O559 2.453 . S
Tb556 O560 2.596 . S
Tb556 O561 2.374 . S
Tb556 O569 2.343 . S
Tb556 O571 2.353 . S
Tb556 O573 2.427 . S
Tb556 O574 2.513 . S
C557 O561 1.251 . S
C557 O563 1.263 . S
Tb558 O560 2.343 . S
Tb558 O563 2.353 . S
Tb558 O566 2.427 . S
Tb558 O567 2.513 . S
Tb558 O568 2.453 . S
Tb558 O569 2.596 . S
Tb558 O570 2.374 . S
O559 Tb556 2.453 . S
O559 C575 1.245 . S
O560 Tb556 2.596 . S
O560 Tb558 2.343 . S
O560 C575 1.259 . S
O561 Tb556 2.374 . S
O561 C557 1.251 . S
C562 O566 1.275 . S
C562 O567 1.246 . S
O563 C557 1.263 . S
O563 Tb558 2.353 . S
C564 O568 1.245 . S
C564 O569 1.259 . S
C565 O570 1.250 . S
C565 O571 1.263 . S
O566 Tb558 2.427 . S
O566 C562 1.275 . S
O567 Tb558 2.513 . S
O567 C562 1.246 . S
O568 Tb558 2.453 . S
O568 C564 1.245 . S
O569 Tb556 2.343 . S
O569 Tb558 2.596 . S
O569 C564 1.259 . S
O570 Tb558 2.374 . S
O570 C565 1.250 . S
O571 Tb556 2.353 . S
O571 C565 1.263 . S
C572 O573 1.275 . S
C572 O574 1.246 . S
O573 Tb556 2.427 . S
O573 C572 1.275 . S
O574 Tb556 2.513 . S
O574 C572 1.246 . S
C575 O559 1.245 . S
C575 O560 1.259 . S
Tb576 O579 2.453 . S
Tb576 O580 2.596 . S
Tb576 O581 2.374 . S
Tb576 O589 2.343 . S
Tb576 O591 2.353 . S
Tb576 O593 2.427 . S
Tb576 O594 2.513 . S
C577 O581 1.251 . S
C577 O583 1.263 . S
Tb578 O580 2.343 . S
Tb578 O583 2.353 . S
Tb578 O586 2.427 . S
Tb578 O587 2.513 . S
Tb578 O588 2.453 . S
Tb578 O589 2.596 . S
Tb578 O590 2.374 . S
O579 Tb576 2.453 . S
O579 C595 1.245 . S
O580 Tb576 2.596 . S
O580 Tb578 2.343 . S
O580 C595 1.259 . S
O581 Tb576 2.374 . S
O581 C577 1.251 . S
C582 O586 1.275 . S
C582 O587 1.246 . S
O583 C577 1.263 . S
O583 Tb578 2.353 . S
C584 O588 1.245 . S
C584 O589 1.259 . S
C585 O590 1.250 . S
C585 O591 1.263 . S
O586 Tb578 2.427 . S
O586 C582 1.275 . S
O587 Tb578 2.513 . S
O587 C582 1.246 . S
O588 Tb578 2.453 . S
O588 C584 1.245 . S
O589 Tb576 2.343 . S
O589 Tb578 2.596 . S
O589 C584 1.259 . S
O590 Tb578 2.374 . S
O590 C585 1.250 . S
O591 Tb576 2.353 . S
O591 C585 1.263 . S
C592 O593 1.275 . S
C592 O594 1.246 . S
O593 Tb576 2.427 . S
O593 C592 1.275 . S
O594 Tb576 2.513 . S
O594 C592 1.246 . S
C595 O579 1.245 . S
C595 O580 1.259 . S
Tb596 O599 2.453 . S
Tb596 O600 2.596 . S
Tb596 O601 2.374 . S
Tb596 O609 2.343 . S
Tb596 O611 2.353 . S
Tb596 O613 2.427 . S
Tb596 O614 2.513 . S
C597 O601 1.251 . S
C597 O603 1.263 . S
Tb598 O600 2.343 . S
Tb598 O603 2.353 . S
Tb598 O606 2.427 . S
Tb598 O607 2.513 . S
Tb598 O608 2.453 . S
Tb598 O609 2.596 . S
Tb598 O610 2.374 . S
O599 Tb596 2.453 . S
O599 C615 1.245 . S
O600 Tb596 2.596 . S
O600 Tb598 2.343 . S
O600 C615 1.259 . S
O601 Tb596 2.374 . S
O601 C597 1.251 . S
C602 O606 1.275 . S
C602 O607 1.246 . S
O603 C597 1.263 . S
O603 Tb598 2.353 . S
C604 O608 1.245 . S
C604 O609 1.259 . S
C605 O610 1.250 . S
C605 O611 1.263 . S
O606 Tb598 2.427 . S
O606 C602 1.275 . S
O607 Tb598 2.513 . S
O607 C602 1.246 . S
O608 Tb598 2.453 . S
O608 C604 1.245 . S
O609 Tb596 2.343 . S
O609 Tb598 2.596 . S
O609 C604 1.259 . S
O610 Tb598 2.374 . S
O610 C605 1.250 . S
O611 Tb596 2.353 . S
O611 C605 1.263 . S
C612 O613 1.275 . S
C612 O614 1.246 . S
O613 Tb596 2.427 . S
O613 C612 1.275 . S
O614 Tb596 2.513 . S
O614 C612 1.246 . S
C615 O599 1.245 . S
C615 O600 1.259 . S
Tb616 O619 2.453 . S
Tb616 O620 2.596 . S
Tb616 O621 2.374 . S
Tb616 O629 2.343 . S
Tb616 O631 2.353 . S
Tb616 O633 2.427 . S
Tb616 O634 2.513 . S
C617 O621 1.251 . S
C617 O623 1.263 . S
Tb618 O620 2.343 . S
Tb618 O623 2.353 . S
Tb618 O626 2.427 . S
Tb618 O627 2.513 . S
Tb618 O628 2.453 . S
Tb618 O629 2.596 . S
Tb618 O630 2.374 . S
O619 Tb616 2.453 . S
O619 C635 1.245 . S
O620 Tb616 2.596 . S
O620 Tb618 2.343 . S
O620 C635 1.259 . S
O621 Tb616 2.374 . S
O621 C617 1.251 . S
C622 O626 1.275 . S
C622 O627 1.246 . S
O623 C617 1.263 . S
O623 Tb618 2.353 . S
C624 O628 1.245 . S
C624 O629 1.259 . S
C625 O630 1.250 . S
C625 O631 1.263 . S
O626 Tb618 2.427 . S
O626 C622 1.275 . S
O627 Tb618 2.513 . S
O627 C622 1.246 . S
O628 Tb618 2.453 . S
O628 C624 1.245 . S
O629 Tb616 2.343 . S
O629 Tb618 2.596 . S
O629 C624 1.259 . S
O630 Tb618 2.374 . S
O630 C625 1.250 . S
O631 Tb616 2.353 . S
O631 C625 1.263 . S
C632 O633 1.275 . S
C632 O634 1.246 . S
O633 Tb616 2.427 . S
O633 C632 1.275 . S
O634 Tb616 2.513 . S
O634 C632 1.246 . S
C635 O619 1.245 . S
C635 O620 1.259 . S
Tb636 O639 2.453 . S
Tb636 O640 2.596 . S
Tb636 O641 2.374 . S
Tb636 O649 2.343 . S
Tb636 O651 2.353 1_554 S
Tb636 O653 2.427 1_554 S
Tb636 O654 2.513 . S
C637 O641 1.251 . S
C637 O643 1.263 1_455 S
Tb638 O640 2.343 1_655 S
Tb638 O643 2.353 . S
Tb638 O646 2.427 . S
Tb638 O647 2.513 . S
Tb638 O648 2.453 . S
Tb638 O649 2.596 1_655 S
Tb638 O650 2.374 1_554 S
O639 Tb636 2.453 . S
O639 C655 1.245 . S
O640 Tb636 2.596 . S
O640 Tb638 2.343 1_455 S
O640 C655 1.259 . S
O641 Tb636 2.374 . S
O641 C637 1.251 . S
C642 O646 1.275 . S
C642 O647 1.246 . S
O643 C637 1.263 1_655 S
O643 Tb638 2.353 . S
C644 O648 1.245 1_556 S
C644 O649 1.259 1_656 S
C645 O650 1.274 . S
C645 O651 1.239 1_655 S
O646 Tb638 2.427 . S
O646 C642 1.275 . S
O647 Tb638 2.513 . S
O647 C642 1.246 . S
O648 Tb638 2.453 . S
O648 C644 1.245 1_554 S
O649 Tb636 2.343 . S
O649 Tb638 2.596 1_455 S
O649 C644 1.259 1_454 S
O650 Tb638 2.374 1_556 S
O650 C645 1.274 . S
O651 Tb636 2.353 1_556 S
O651 C645 1.239 1_455 S
C652 O653 1.281 . S
C652 O654 1.237 1_556 S
O653 Tb636 2.427 1_556 S
O653 C652 1.281 . S
O654 Tb636 2.513 . S
O654 C652 1.237 1_554 S
C655 O639 1.245 . S
C655 O640 1.259 . S
C656 C657 1.369 1_655 S
C656 C658 1.419 . S
C656 H660 0.930 . S
C657 C656 1.369 1_455 S
C657 C666 1.429 . S
C658 C656 1.419 . S
C658 C659 1.363 1_655 S
C658 H661 0.929 . S
C659 C658 1.363 1_455 S
C659 C665 1.428 . S
H660 C656 0.930 . S
H661 C658 0.929 . S
S662 N663 1.613 . S
S662 N664 1.610 1_556 S
N663 S662 1.613 . S
N663 C666 1.350 . S
N664 S662 1.610 1_554 S
N664 C665 1.351 1_554 S
C665 C659 1.428 . S
C665 N664 1.351 1_556 S
C665 C666 1.434 . S
C666 C657 1.429 . S
C666 N663 1.350 . S
C666 C665 1.434 . S
C667 C668 1.369 . S
C667 C669 1.419 . S
C667 H671 0.930 . S
C668 C667 1.369 . S
C668 C677 1.429 . S
C669 C667 1.419 . S
C669 C670 1.363 . S
C669 H672 0.929 . S
C670 C669 1.363 . S
C670 C676 1.428 . S
H671 C667 0.930 . S
H672 C669 0.929 . S
S673 N674 1.613 . S
S673 N675 1.610 . S
N674 S673 1.613 . S
N674 C677 1.350 . S
N675 S673 1.610 . S
N675 C676 1.351 . S
C676 C670 1.428 . S
C676 N675 1.351 . S
C676 C677 1.434 . S
C677 C668 1.429 . S
C677 N674 1.350 . S
C677 C676 1.434 . S
C678 C679 1.369 . S
C678 C680 1.419 . S
C678 H682 0.930 . S
C679 C678 1.369 . S
C679 C688 1.429 . S
C680 C678 1.419 . S
C680 C681 1.363 . S
C680 H683 0.929 . S
C681 C680 1.363 . S
C681 C687 1.428 . S
H682 C678 0.930 . S
H683 C680 0.929 . S
S684 N685 1.613 . S
S684 N686 1.610 . S
N685 S684 1.613 . S
N685 C688 1.350 . S
N686 S684 1.610 . S
N686 C687 1.351 . S
C687 C681 1.428 . S
C687 N686 1.351 . S
C687 C688 1.434 . S
C688 C679 1.429 . S
C688 N685 1.350 . S
C688 C687 1.434 . S
C689 C690 1.369 . S
C689 C691 1.419 . S
C689 H693 0.930 . S
C690 C689 1.369 . S
C690 C699 1.429 . S
C691 C689 1.419 . S
C691 C692 1.363 . S
C691 H694 0.929 . S
C692 C691 1.363 . S
C692 C698 1.428 . S
H693 C689 0.930 . S
H694 C691 0.929 . S
S695 N696 1.613 . S
S695 N697 1.610 . S
N696 S695 1.613 . S
N696 C699 1.350 . S
N697 S695 1.610 . S
N697 C698 1.351 . S
C698 C692 1.428 . S
C698 N697 1.351 . S
C698 C699 1.434 . S
C699 C690 1.429 . S
C699 N696 1.350 . S
C699 C698 1.434 . S
C700 C701 1.369 . S
C700 C702 1.419 . S
C700 H704 0.930 . S
C701 C700 1.369 . S
C701 C710 1.429 1_455 S
C702 C700 1.419 . S
C702 C703 1.363 . S
C702 H705 0.929 . S
C703 C702 1.363 . S
C703 C709 1.428 1_455 S
H704 C700 0.930 . S
H705 C702 0.929 . S
S706 N707 1.613 . S
S706 N708 1.610 . S
N707 S706 1.613 . S
N707 C710 1.350 . S
N708 S706 1.610 . S
N708 C709 1.351 . S
C709 C703 1.428 1_655 S
C709 N708 1.351 . S
C709 C710 1.434 . S
C710 C701 1.429 1_655 S
C710 N707 1.350 . S
C710 C709 1.434 . S
C711 C712 1.369 . S
C711 C713 1.419 . S
C711 H715 0.930 . S
C712 C711 1.369 . S
C712 C721 1.429 . S
C713 C711 1.419 . S
C713 C714 1.363 . S
C713 H716 0.929 . S
C714 C713 1.363 . S
C714 C720 1.428 . S
H715 C711 0.930 . S
H716 C713 0.929 . S
S717 N718 1.613 . S
S717 N719 1.610 . S
N718 S717 1.613 . S
N718 C721 1.350 . S
N719 S717 1.610 . S
N719 C720 1.351 . S
C720 C714 1.428 . S
C720 N719 1.351 . S
C720 C721 1.434 . S
C721 C712 1.429 . S
C721 N718 1.350 . S
C721 C720 1.434 . S
C722 C723 1.369 . S
C722 C724 1.419 . S
C722 H726 0.930 . S
C723 C722 1.369 . S
C723 C732 1.429 . S
C724 C722 1.419 . S
C724 C725 1.363 . S
C724 H727 0.929 . S
C725 C724 1.363 . S
C725 C731 1.428 . S
H726 C722 0.930 . S
H727 C724 0.929 . S
S728 N729 1.613 . S
S728 N730 1.610 . S
N729 S728 1.613 . S
N729 C732 1.350 . S
N730 S728 1.610 . S
N730 C731 1.351 . S
C731 C725 1.428 . S
C731 N730 1.351 . S
C731 C732 1.434 . S
C732 C723 1.429 . S
C732 N729 1.350 . S
C732 C731 1.434 . S
C733 C734 1.369 . S
C733 C735 1.419 . S
C733 H737 0.930 . S
C734 C733 1.369 . S
C734 C743 1.429 . S
C735 C733 1.419 . S
C735 C736 1.363 . S
C735 H738 0.929 . S
C736 C735 1.363 . S
C736 C742 1.428 . S
H737 C733 0.930 . S
H738 C735 0.929 . S
S739 N740 1.613 . S
S739 N741 1.610 . S
N740 S739 1.613 . S
N740 C743 1.350 . S
N741 S739 1.610 . S
N741 C742 1.351 . S
C742 C736 1.428 . S
C742 N741 1.351 . S
C742 C743 1.434 . S
C743 C734 1.429 . S
C743 N740 1.350 . S
C743 C742 1.434 . S
C744 C745 1.369 . S
C744 C746 1.419 . S
C744 H748 0.930 . S
C745 C744 1.369 . S
C745 C754 1.429 . S
C746 C744 1.419 . S
C746 C747 1.363 . S
C746 H749 0.929 1_655 S
C747 C746 1.363 . S
C747 C753 1.428 . S
H748 C744 0.930 . S
H749 C746 0.929 1_455 S
S750 N751 1.613 . S
S750 N752 1.610 . S
N751 S750 1.613 . S
N751 C754 1.350 . S
N752 S750 1.610 . S
N752 C753 1.351 . S
C753 C747 1.428 . S
C753 N752 1.351 . S
C753 C754 1.434 . S
C754 C745 1.429 . S
C754 N751 1.350 . S
C754 C753 1.434 . S
C755 C756 1.369 . S
C755 C757 1.419 . S
C755 H759 0.930 . S
C756 C755 1.369 . S
C756 C765 1.429 . S
C757 C755 1.419 . S
C757 C758 1.363 . S
C757 H760 0.929 . S
C758 C757 1.363 . S
C758 C764 1.428 . S
H759 C755 0.930 . S
H760 C757 0.929 . S
S761 N762 1.613 . S
S761 N763 1.610 . S
N762 S761 1.613 . S
N762 C765 1.350 . S
N763 S761 1.610 . S
N763 C764 1.351 . S
C764 C758 1.428 . S
C764 N763 1.351 . S
C764 C765 1.434 . S
C765 C756 1.429 . S
C765 N762 1.350 . S
C765 C764 1.434 . S
C766 C767 1.369 1_565 S
C766 C768 1.430 . S
C766 H770 0.930 . S
C767 C766 1.369 1_545 S
C767 C776 1.429 . S
C768 C766 1.430 . S
C768 C769 1.347 1_565 S
C768 H771 0.936 . S
C769 C768 1.347 1_545 S
C769 C775 1.428 . S
H770 C766 0.930 . S
H771 C768 0.936 . S
S772 N773 1.613 . S
S772 N774 1.610 . S
N773 S772 1.613 . S
N773 C776 1.350 . S
N774 S772 1.610 . S
N774 C775 1.351 . S
C775 C769 1.428 . S
C775 N774 1.351 . S
C775 C776 1.434 . S
C776 C767 1.429 . S
C776 N773 1.350 . S
C776 C775 1.434 . S
C777 C778 1.369 . S
C777 C779 1.419 . S
C777 H781 0.930 . S
C778 C777 1.369 . S
C778 C787 1.429 . S
C779 C777 1.419 . S
C779 C780 1.363 . S
C779 H782 0.929 . S
C780 C779 1.363 . S
C780 C786 1.428 . S
H781 C777 0.930 . S
H782 C779 0.929 . S
S783 N784 1.613 . S
S783 N785 1.610 . S
N784 S783 1.613 . S
N784 C787 1.350 . S
N785 S783 1.610 . S
N785 C786 1.351 . S
C786 C780 1.428 . S
C786 N785 1.351 . S
C786 C787 1.434 . S
C787 C778 1.429 . S
C787 N784 1.350 . S
C787 C786 1.434 . S
C788 C789 1.369 . S
C788 C790 1.419 . S
C788 H792 0.930 . S
C789 C788 1.369 . S
C789 C798 1.429 . S
C790 C788 1.419 . S
C790 C791 1.363 . S
C790 H793 0.929 1_655 S
C791 C790 1.363 . S
C791 C797 1.428 . S
H792 C788 0.930 . S
H793 C790 0.929 1_455 S
S794 N795 1.613 . S
S794 N796 1.610 . S
N795 S794 1.613 . S
N795 C798 1.350 . S
N796 S794 1.610 . S
N796 C797 1.351 . S
C797 C791 1.428 . S
C797 N796 1.351 . S
C797 C798 1.434 . S
C798 C789 1.429 . S
C798 N795 1.350 . S
C798 C797 1.434 . S
C799 C800 1.369 . S
C799 C801 1.419 . S
C799 H803 0.930 . S
C800 C799 1.369 . S
C800 C809 1.429 . S
C801 C799 1.419 . S
C801 C802 1.363 . S
C801 H804 0.929 . S
C802 C801 1.363 . S
C802 C808 1.428 . S
H803 C799 0.930 . S
H804 C801 0.929 . S
S805 N806 1.613 . S
S805 N807 1.610 . S
N806 S805 1.613 . S
N806 C809 1.350 . S
N807 S805 1.610 . S
N807 C808 1.351 . S
C808 C802 1.428 . S
C808 N807 1.351 . S
C808 C809 1.434 . S
C809 C800 1.429 . S
C809 N806 1.350 . S
C809 C808 1.434 . S
C810 C811 1.369 . S
C810 C812 1.419 . S
C810 H814 0.930 . S
C811 C810 1.369 . S
C811 C820 1.429 . S
C812 C810 1.419 . S
C812 C813 1.363 . S
C812 H815 0.929 . S
C813 C812 1.363 . S
C813 C819 1.428 . S
H814 C810 0.930 . S
H815 C812 0.929 . S
S816 N817 1.613 . S
S816 N818 1.610 1_565 S
N817 S816 1.613 . S
N817 C820 1.350 1_565 S
N818 S816 1.610 1_545 S
N818 C819 1.351 . S
C819 C813 1.428 . S
C819 N818 1.351 . S
C819 C820 1.434 . S
C820 C811 1.429 . S
C820 N817 1.350 1_545 S
C820 C819 1.434 . S
C821 C822 1.369 . S
C821 C823 1.419 . S
C821 H825 0.930 . S
C822 C821 1.369 . S
C822 C831 1.429 . S
C823 C821 1.419 . S
C823 C824 1.363 . S
C823 H826 0.929 . S
C824 C823 1.363 . S
C824 C830 1.428 . S
H825 C821 0.930 . S
H826 C823 0.929 . S
S827 N828 1.613 . S
S827 N829 1.610 . S
N828 S827 1.613 . S
N828 C831 1.350 . S
N829 S827 1.610 . S
N829 C830 1.351 . S
C830 C824 1.428 . S
C830 N829 1.351 . S
C830 C831 1.434 . S
C831 C822 1.429 . S
C831 N828 1.350 . S
C831 C830 1.434 . S
C832 C833 1.369 . S
C832 C834 1.419 . S
C832 H836 0.930 . S
C833 C832 1.369 . S
C833 C842 1.429 . S
C834 C832 1.419 . S
C834 C835 1.363 . S
C834 H837 0.929 . S
C835 C834 1.363 . S
C835 C841 1.437 . S
H836 C832 0.930 . S
H837 C834 0.929 . S
S838 N839 1.613 1_545 S
S838 N840 1.610 . S
N839 S838 1.613 1_565 S
N839 C842 1.350 . S
N840 S838 1.610 . S
N840 C841 1.319 1_545 S
C841 C835 1.437 . S
C841 N840 1.319 1_565 S
C841 C842 1.460 . S
C842 C833 1.429 . S
C842 N839 1.350 . S
C842 C841 1.460 . S
C843 C844 1.369 . S
C843 C845 1.419 . S
C843 H847 0.930 . S
C844 C843 1.369 . S
C844 C853 1.429 1_556 S
C845 C843 1.419 . S
C845 C846 1.363 1_556 S
C845 H848 0.929 . S
C846 C845 1.363 1_554 S
C846 C852 1.428 . S
H847 C843 0.930 . S
H848 C845 0.929 . S
S849 N850 1.613 . S
S849 N851 1.610 . S
N850 S849 1.613 . S
N850 C853 1.350 . S
N851 S849 1.610 . S
N851 C852 1.351 . S
C852 C846 1.428 . S
C852 N851 1.351 . S
C852 C853 1.434 . S
C853 C844 1.429 1_554 S
C853 N850 1.350 . S
C853 C852 1.434 . S
C854 C855 1.369 . S
C854 C856 1.419 . S
C854 H858 0.930 . S
C855 C854 1.369 . S
C855 C864 1.429 . S
C856 C854 1.419 . S
C856 C857 1.363 . S
C856 H859 0.929 . S
C857 C856 1.363 . S
C857 C863 1.428 . S
H858 C854 0.930 . S
H859 C856 0.929 . S
S860 N861 1.613 . S
S860 N862 1.610 . S
N861 S860 1.613 . S
N861 C864 1.350 . S
N862 S860 1.610 . S
N862 C863 1.351 . S
C863 C857 1.428 . S
C863 N862 1.351 . S
C863 C864 1.434 . S
C864 C855 1.429 . S
C864 N861 1.350 . S
C864 C863 1.434 . S
C865 C866 1.369 . S
C865 C867 1.419 . S
C865 H869 0.930 . S
C866 C865 1.369 . S
C866 C875 1.429 . S
C867 C865 1.419 . S
C867 C868 1.363 . S
C867 H870 0.929 . S
C868 C867 1.363 . S
C868 C874 1.428 . S
H869 C865 0.930 . S
H870 C867 0.929 . S
S871 N872 1.613 . S
S871 N873 1.610 . S
N872 S871 1.613 . S
N872 C875 1.350 . S
N873 S871 1.610 . S
N873 C874 1.351 . S
C874 C868 1.428 . S
C874 N873 1.351 . S
C874 C875 1.434 . S
C875 C866 1.429 . S
C875 N872 1.350 . S
C875 C874 1.434 . S
C876 C877 1.369 . S
C876 C878 1.419 . S
C876 H880 0.930 . S
C877 C876 1.369 . S
C877 C886 1.429 . S
C878 C876 1.419 . S
C878 C879 1.363 . S
C878 H881 0.929 . S
C879 C878 1.363 . S
C879 C885 1.428 . S
H880 C876 0.930 . S
H881 C878 0.929 . S
S882 N883 1.613 . S
S882 N884 1.610 . S
N883 S882 1.613 . S
N883 C886 1.350 . S
N884 S882 1.610 . S
N884 C885 1.351 . S
C885 C879 1.428 . S
C885 N884 1.351 . S
C885 C886 1.434 . S
C886 C877 1.429 . S
C886 N883 1.350 . S
C886 C885 1.434 . S
C887 C888 1.369 . S
C887 C889 1.419 . S
C887 H891 0.930 . S
C888 C887 1.369 . S
C888 C897 1.429 . S
C889 C887 1.419 . S
C889 C890 1.363 . S
C889 H892 0.929 . S
C890 C889 1.363 . S
C890 C896 1.428 . S
H891 C887 0.930 . S
H892 C889 0.929 . S
S893 N894 1.613 . S
S893 N895 1.610 . S
N894 S893 1.613 . S
N894 C897 1.350 . S
N895 S893 1.610 . S
N895 C896 1.351 . S
C896 C890 1.428 . S
C896 N895 1.351 . S
C896 C897 1.434 . S
C897 C888 1.429 . S
C897 N894 1.350 . S
C897 C896 1.434 . S
C898 C899 1.369 . S
C898 C900 1.419 . S
C898 H902 0.930 . S
C899 C898 1.369 . S
C899 C908 1.429 . S
C900 C898 1.419 . S
C900 C901 1.363 . S
C900 H903 0.929 . S
C901 C900 1.363 . S
C901 C907 1.428 . S
H902 C898 0.930 . S
H903 C900 0.929 . S
S904 N905 1.613 . S
S904 N906 1.610 . S
N905 S904 1.613 . S
N905 C908 1.350 . S
N906 S904 1.610 . S
N906 C907 1.351 . S
C907 C901 1.428 . S
C907 N906 1.351 . S
C907 C908 1.434 . S
C908 C899 1.429 . S
C908 N905 1.350 . S
C908 C907 1.434 . S
C909 C910 1.369 . S
C909 C911 1.419 . S
C909 H913 0.930 . S
C910 C909 1.369 . S
C910 C919 1.429 . S
C911 C909 1.419 . S
C911 C912 1.363 . S
C911 H914 0.929 . S
C912 C911 1.363 . S
C912 C918 1.428 . S
H913 C909 0.930 . S
H914 C911 0.929 . S
S915 N916 1.613 . S
S915 N917 1.610 . S
N916 S915 1.613 . S
N916 C919 1.350 . S
N917 S915 1.610 . S
N917 C918 1.351 . S
C918 C912 1.428 . S
C918 N917 1.351 . S
C918 C919 1.434 . S
C919 C910 1.429 . S
C919 N916 1.350 . S
C919 C918 1.434 . S
C920 C921 1.369 . S
C920 C922 1.419 . S
C920 H924 0.930 . S
C921 C920 1.369 . S
C921 C930 1.429 1_455 S
C922 C920 1.419 . S
C922 C923 1.363 . S
C922 H925 0.929 . S
C923 C922 1.363 . S
C923 C929 1.428 1_455 S
H924 C920 0.930 . S
H925 C922 0.929 . S
S926 N927 1.613 . S
S926 N928 1.610 . S
N927 S926 1.613 . S
N927 C930 1.350 . S
N928 S926 1.610 . S
N928 C929 1.351 . S
C929 C923 1.428 1_655 S
C929 N928 1.351 . S
C929 C930 1.434 . S
C930 C921 1.429 1_655 S
C930 N927 1.350 . S
C930 C929 1.434 . S
C931 C932 1.369 . S
C931 C933 1.419 . S
C931 H935 0.930 . S
C932 C931 1.369 . S
C932 C941 1.429 . S
C933 C931 1.419 . S
C933 C934 1.363 . S
C933 H936 0.929 . S
C934 C933 1.363 . S
C934 C940 1.428 . S
H935 C931 0.930 . S
H936 C933 0.929 . S
S937 N938 1.613 . S
S937 N939 1.610 . S
N938 S937 1.613 . S
N938 C941 1.350 . S
N939 S937 1.610 . S
N939 C940 1.351 . S
C940 C934 1.428 . S
C940 N939 1.351 . S
C940 C941 1.434 . S
C941 C932 1.429 . S
C941 N938 1.350 . S
C941 C940 1.434 . S
C942 C943 1.369 . S
C942 C944 1.419 . S
C942 H946 0.930 . S
C943 C942 1.369 . S
C943 C952 1.429 . S
C944 C942 1.419 . S
C944 C945 1.363 . S
C944 H947 0.929 . S
C945 C944 1.363 . S
C945 C951 1.428 . S
H946 C942 0.930 . S
H947 C944 0.929 . S
S948 N949 1.613 . S
S948 N950 1.610 . S
N949 S948 1.613 . S
N949 C952 1.350 . S
N950 S948 1.610 . S
N950 C951 1.351 . S
C951 C945 1.428 . S
C951 N950 1.351 . S
C951 C952 1.434 . S
C952 C943 1.429 . S
C952 N949 1.350 . S
C952 C951 1.434 . S
C953 C954 1.369 . S
C953 C955 1.419 . S
C953 H957 0.930 . S
C954 C953 1.369 . S
C954 C963 1.429 . S
C955 C953 1.419 . S
C955 C956 1.363 . S
C955 H958 0.929 . S
C956 C955 1.363 . S
C956 C962 1.428 . S
H957 C953 0.930 . S
H958 C955 0.929 . S
S959 N960 1.613 . S
S959 N961 1.610 . S
N960 S959 1.613 . S
N960 C963 1.350 . S
N961 S959 1.610 . S
N961 C962 1.351 . S
C962 C956 1.428 . S
C962 N961 1.351 . S
C962 C963 1.434 . S
C963 C954 1.429 . S
C963 N960 1.350 . S
C963 C962 1.434 . S
C964 C965 1.369 1_655 S
C964 C966 1.419 . S
C964 H968 0.930 . S
C965 C964 1.369 1_455 S
C965 C974 1.429 . S
C966 C964 1.419 . S
C966 C967 1.363 1_655 S
C966 H969 0.929 . S
C967 C966 1.363 1_455 S
C967 C973 1.428 . S
H968 C964 0.930 . S
H969 C966 0.929 . S
S970 N971 1.613 . S
S970 N972 1.610 . S
N971 S970 1.613 . S
N971 C974 1.350 . S
N972 S970 1.610 . S
N972 C973 1.351 . S
C973 C967 1.428 . S
C973 N972 1.351 . S
C973 C974 1.434 . S
C974 C965 1.429 . S
C974 N971 1.350 . S
C974 C973 1.434 . S
C975 C976 1.369 . S
C975 C977 1.419 . S
C975 H979 0.930 . S
C976 C975 1.369 . S
C976 C985 1.429 . S
C977 C975 1.419 . S
C977 C978 1.363 . S
C977 H980 0.929 . S
C978 C977 1.363 . S
C978 C984 1.428 . S
H979 C975 0.930 . S
H980 C977 0.929 . S
S981 N982 1.613 . S
S981 N983 1.610 . S
N982 S981 1.613 . S
N982 C985 1.350 . S
N983 S981 1.610 . S
N983 C984 1.351 . S
C984 C978 1.428 . S
C984 N983 1.351 . S
C984 C985 1.434 . S
C985 C976 1.429 . S
C985 N982 1.350 . S
C985 C984 1.434 . S
C986 C987 1.369 . S
C986 C988 1.419 . S
C986 H990 0.930 . S
C987 C986 1.369 . S
C987 C996 1.429 . S
C988 C986 1.419 . S
C988 C989 1.363 . S
C988 H991 0.929 1_556 S
C989 C988 1.363 . S
C989 C995 1.428 . S
H990 C986 0.930 . S
H991 C988 0.929 1_554 S
S992 N993 1.613 . S
S992 N994 1.610 . S
N993 S992 1.613 . S
N993 C996 1.350 . S
N994 S992 1.610 . S
N994 C995 1.351 . S
C995 C989 1.428 . S
C995 N994 1.351 . S
C995 C996 1.434 . S
C996 C987 1.429 . S
C996 N993 1.350 . S
C996 C995 1.434 . S
C997 C998 1.369 . S
C997 C999 1.419 . S
C997 H1001 0.930 . S
C998 C997 1.369 . S
C998 C1007 1.429 . S
C999 C997 1.419 . S
C999 C1000 1.363 . S
C999 H1002 0.929 . S
C1000 C999 1.363 . S
C1000 C1006 1.428 . S
H1001 C997 0.930 . S
H1002 C999 0.929 . S
S1003 N1004 1.613 . S
S1003 N1005 1.610 . S
N1004 S1003 1.613 . S
N1004 C1007 1.350 . S
N1005 S1003 1.610 . S
N1005 C1006 1.351 . S
C1006 C1000 1.428 . S
C1006 N1005 1.351 . S
C1006 C1007 1.434 . S
C1007 C998 1.429 . S
C1007 N1004 1.350 . S
C1007 C1006 1.434 . S
C1008 C1009 1.369 1_565 S
C1008 C1010 1.419 . S
C1008 H1012 0.930 . S
C1009 C1008 1.369 1_545 S
C1009 C1018 1.429 . S
C1010 C1008 1.419 . S
C1010 C1011 1.363 1_565 S
C1010 H1013 0.929 . S
C1011 C1010 1.363 1_545 S
C1011 C1017 1.428 . S
H1012 C1008 0.930 . S
H1013 C1010 0.929 . S
S1014 N1015 1.613 . S
S1014 N1016 1.610 . S
N1015 S1014 1.613 . S
N1015 C1018 1.350 . S
N1016 S1014 1.610 . S
N1016 C1017 1.351 . S
C1017 C1011 1.428 . S
C1017 N1016 1.351 . S
C1017 C1018 1.434 . S
C1018 C1009 1.429 . S
C1018 N1015 1.350 . S
C1018 C1017 1.434 . S
C1019 C1020 1.369 . S
C1019 C1021 1.419 . S
C1019 H1023 0.930 . S
C1020 C1019 1.369 . S
C1020 C1029 1.429 . S
C1021 C1019 1.419 . S
C1021 C1022 1.363 . S
C1021 H1024 0.929 . S
C1022 C1021 1.363 . S
C1022 C1028 1.428 . S
H1023 C1019 0.930 . S
H1024 C1021 0.929 . S
S1025 N1026 1.613 . S
S1025 N1027 1.610 . S
N1026 S1025 1.613 . S
N1026 C1029 1.350 . S
N1027 S1025 1.610 . S
N1027 C1028 1.351 . S
C1028 C1022 1.428 . S
C1028 N1027 1.351 . S
C1028 C1029 1.434 . S
C1029 C1020 1.429 . S
C1029 N1026 1.350 . S
C1029 C1028 1.434 . S
C1030 C1031 1.369 . S
C1030 C1032 1.419 . S
C1030 H1034 0.930 . S
C1031 C1030 1.369 . S
C1031 C1040 1.429 . S
C1032 C1030 1.419 . S
C1032 C1033 1.363 . S
C1032 H1035 0.929 . S
C1033 C1032 1.363 . S
C1033 C1039 1.428 . S
H1034 C1030 0.930 . S
H1035 C1032 0.929 . S
S1036 N1037 1.613 . S
S1036 N1038 1.610 . S
N1037 S1036 1.613 . S
N1037 C1040 1.350 . S
N1038 S1036 1.610 . S
N1038 C1039 1.351 . S
C1039 C1033 1.428 . S
C1039 N1038 1.351 . S
C1039 C1040 1.434 . S
C1040 C1031 1.429 . S
C1040 N1037 1.350 . S
C1040 C1039 1.434 . S
C1041 C1042 1.369 . S
C1041 C1043 1.419 . S
C1041 H1045 0.930 . S
C1042 C1041 1.369 . S
C1042 C1051 1.429 . S
C1043 C1041 1.419 . S
C1043 C1044 1.363 . S
C1043 H1046 0.929 . S
C1044 C1043 1.363 . S
C1044 C1050 1.428 . S
H1045 C1041 0.930 . S
H1046 C1043 0.929 . S
S1047 N1048 1.613 . S
S1047 N1049 1.610 . S
N1048 S1047 1.613 . S
N1048 C1051 1.350 . S
N1049 S1047 1.610 . S
N1049 C1050 1.351 . S
C1050 C1044 1.428 . S
C1050 N1049 1.351 . S
C1050 C1051 1.434 . S
C1051 C1042 1.429 . S
C1051 N1048 1.350 . S
C1051 C1050 1.434 . S
C1052 C1053 1.369 . S
C1052 C1054 1.419 . S
C1052 H1056 0.930 . S
C1053 C1052 1.369 . S
C1053 C1062 1.429 1_565 S
C1054 C1052 1.419 . S
C1054 C1055 1.363 1_565 S
C1054 H1057 0.929 . S
C1055 C1054 1.363 1_545 S
C1055 C1061 1.428 . S
H1056 C1052 0.930 . S
H1057 C1054 0.929 . S
S1058 N1059 1.613 . S
S1058 N1060 1.610 . S
N1059 S1058 1.613 . S
N1059 C1062 1.350 . S
N1060 S1058 1.610 . S
N1060 C1061 1.351 . S
C1061 C1055 1.428 . S
C1061 N1060 1.351 . S
C1061 C1062 1.434 . S
C1062 C1053 1.429 1_545 S
C1062 N1059 1.350 . S
C1062 C1061 1.434 . S
C1063 C1064 1.369 . S
C1063 C1065 1.419 . S
C1063 H1067 0.930 . S
C1064 C1063 1.369 . S
C1064 C1073 1.429 . S
C1065 C1063 1.419 . S
C1065 C1066 1.363 . S
C1065 H1068 0.929 . S
C1066 C1065 1.363 . S
C1066 C1072 1.428 . S
H1067 C1063 0.930 . S
H1068 C1065 0.929 . S
S1069 N1070 1.613 . S
S1069 N1071 1.610 . S
N1070 S1069 1.613 . S
N1070 C1073 1.350 . S
N1071 S1069 1.610 . S
N1071 C1072 1.351 . S
C1072 C1066 1.428 . S
C1072 N1071 1.351 . S
C1072 C1073 1.434 . S
C1073 C1064 1.429 . S
C1073 N1070 1.350 . S
C1073 C1072 1.434 . S
C1074 C1075 1.369 . S
C1074 C1076 1.419 . S
C1074 H1078 0.930 . S
C1075 C1074 1.369 . S
C1075 C1084 1.429 . S
C1076 C1074 1.419 . S
C1076 C1077 1.363 . S
C1076 H1079 0.929 1_545 S
C1077 C1076 1.363 . S
C1077 C1083 1.428 . S
H1078 C1074 0.930 . S
H1079 C1076 0.929 1_565 S
S1080 N1081 1.613 . S
S1080 N1082 1.610 . S
N1081 S1080 1.613 . S
N1081 C1084 1.350 . S
N1082 S1080 1.610 . S
N1082 C1083 1.351 . S
C1083 C1077 1.428 . S
C1083 N1082 1.351 . S
C1083 C1084 1.434 . S
C1084 C1075 1.429 . S
C1084 N1081 1.350 . S
C1084 C1083 1.434 . S
C1085 C1086 1.369 . S
C1085 C1087 1.419 . S
C1085 H1089 0.930 . S
C1086 C1085 1.369 . S
C1086 C1095 1.429 . S
C1087 C1085 1.419 . S
C1087 C1088 1.363 . S
C1087 H1090 0.929 . S
C1088 C1087 1.363 . S
C1088 C1094 1.428 . S
H1089 C1085 0.930 . S
H1090 C1087 0.929 . S
S1091 N1092 1.613 . S
S1091 N1093 1.610 . S
N1092 S1091 1.613 . S
N1092 C1095 1.350 . S
N1093 S1091 1.610 . S
N1093 C1094 1.351 . S
C1094 C1088 1.428 . S
C1094 N1093 1.351 . S
C1094 C1095 1.434 . S
C1095 C1086 1.429 . S
C1095 N1092 1.350 . S
C1095 C1094 1.434 . S
C1096 C1097 1.369 1_556 S
C1096 C1098 1.419 . S
C1096 H1100 0.930 . S
C1097 C1096 1.369 1_554 S
C1097 C1106 1.429 . S
C1098 C1096 1.419 . S
C1098 C1099 1.363 1_556 S
C1098 H1101 0.929 . S
C1099 C1098 1.363 1_554 S
C1099 C1105 1.428 . S
H1100 C1096 0.930 . S
H1101 C1098 0.929 . S
S1102 N1103 1.613 . S
S1102 N1104 1.610 . S
N1103 S1102 1.613 . S
N1103 C1106 1.350 . S
N1104 S1102 1.610 . S
N1104 C1105 1.351 . S
C1105 C1099 1.428 . S
C1105 N1104 1.351 . S
C1105 C1106 1.434 . S
C1106 C1097 1.429 . S
C1106 N1103 1.350 . S
C1106 C1105 1.434 . S
C1107 C1108 1.369 . S
C1107 C1109 1.419 . S
C1107 H1111 0.930 . S
C1108 C1107 1.369 . S
C1108 C1117 1.429 . S
C1109 C1107 1.419 . S
C1109 C1110 1.363 . S
C1109 H1112 0.929 . S
C1110 C1109 1.363 . S
C1110 C1116 1.428 . S
H1111 C1107 0.930 . S
H1112 C1109 0.929 . S
S1113 N1114 1.613 . S
S1113 N1115 1.610 . S
N1114 S1113 1.613 . S
N1114 C1117 1.350 . S
N1115 S1113 1.610 . S
N1115 C1116 1.351 . S
C1116 C1110 1.428 . S
C1116 N1115 1.351 . S
C1116 C1117 1.434 . S
C1117 C1108 1.429 . S
C1117 N1114 1.350 . S
C1117 C1116 1.434 . S
C1118 C1119 1.369 . S
C1118 C1120 1.419 . S
C1118 H1122 0.930 . S
C1119 C1118 1.369 . S
C1119 C1128 1.429 . S
C1120 C1118 1.419 . S
C1120 C1121 1.363 . S
C1120 H1123 0.929 . S
C1121 C1120 1.363 . S
C1121 C1127 1.428 . S
H1122 C1118 0.930 . S
H1123 C1120 0.929 . S
S1124 N1125 1.613 . S
S1124 N1126 1.610 . S
N1125 S1124 1.613 . S
N1125 C1128 1.350 . S
N1126 S1124 1.610 . S
N1126 C1127 1.351 . S
C1127 C1121 1.428 . S
C1127 N1126 1.351 . S
C1127 C1128 1.434 . S
C1128 C1119 1.429 . S
C1128 N1125 1.350 . S
C1128 C1127 1.434 . S
C1129 C1130 1.369 . S
C1129 C1131 1.419 . S
C1129 H1133 0.930 . S
C1130 C1129 1.369 . S
C1130 C1139 1.429 . S
C1131 C1129 1.419 . S
C1131 C1132 1.363 . S
C1131 H1134 0.929 . S
C1132 C1131 1.363 . S
C1132 C1138 1.428 . S
H1133 C1129 0.930 . S
H1134 C1131 0.929 . S
S1135 N1136 1.613 . S
S1135 N1137 1.610 . S
N1136 S1135 1.613 . S
N1136 C1139 1.350 . S
N1137 S1135 1.610 . S
N1137 C1138 1.351 . S
C1138 C1132 1.428 . S
C1138 N1137 1.351 . S
C1138 C1139 1.434 . S
C1139 C1130 1.429 . S
C1139 N1136 1.350 . S
C1139 C1138 1.434 . S
C1140 C1141 1.369 . S
C1140 C1142 1.419 . S
C1140 H1144 0.930 . S
C1141 C1140 1.369 . S
C1141 C1150 1.429 . S
C1142 C1140 1.419 . S
C1142 C1143 1.363 . S
C1142 H1145 0.929 . S
C1143 C1142 1.363 . S
C1143 C1149 1.428 . S
H1144 C1140 0.930 . S
H1145 C1142 0.929 . S
S1146 N1147 1.613 . S
S1146 N1148 1.610 . S
N1147 S1146 1.613 . S
N1147 C1150 1.350 . S
N1148 S1146 1.610 . S
N1148 C1149 1.351 . S
C1149 C1143 1.428 . S
C1149 N1148 1.351 . S
C1149 C1150 1.434 . S
C1150 C1141 1.429 . S
C1150 N1147 1.350 . S
C1150 C1149 1.434 . S
C1151 C1152 1.369 . S
C1151 C1153 1.419 . S
C1151 H1155 0.930 . S
C1152 C1151 1.369 . S
C1152 C1161 1.429 . S
C1153 C1151 1.419 . S
C1153 C1154 1.363 . S
C1153 H1156 0.929 . S
C1154 C1153 1.363 . S
C1154 C1160 1.428 . S
H1155 C1151 0.930 . S
H1156 C1153 0.929 . S
S1157 N1158 1.621 . S
S1157 N1159 1.608 1_565 S
N1158 S1157 1.621 . S
N1158 C1161 1.350 . S
N1159 S1157 1.608 1_545 S
N1159 C1160 1.351 1_545 S
C1160 C1154 1.428 . S
C1160 N1159 1.351 1_565 S
C1160 C1161 1.434 . S
C1161 C1152 1.429 . S
C1161 N1158 1.350 . S
C1161 C1160 1.434 . S
C1162 C1163 1.369 . S
C1162 C1164 1.419 . S
C1162 H1166 0.930 . S
C1163 C1162 1.369 . S
C1163 C1172 1.429 . S
C1164 C1162 1.419 . S
C1164 C1165 1.363 . S
C1164 H1167 0.929 . S
C1165 C1164 1.363 . S
C1165 C1171 1.428 . S
H1166 C1162 0.930 . S
H1167 C1164 0.929 . S
S1168 N1169 1.613 . S
S1168 N1170 1.610 . S
N1169 S1168 1.613 . S
N1169 C1172 1.350 . S
N1170 S1168 1.610 . S
N1170 C1171 1.351 . S
C1171 C1165 1.428 . S
C1171 N1170 1.351 . S
C1171 C1172 1.434 . S
C1172 C1163 1.429 . S
C1172 N1169 1.350 . S
C1172 C1171 1.434 . S
C1173 C1174 1.369 . S
C1173 C1175 1.419 . S
C1173 H1177 0.930 . S
C1174 C1173 1.369 . S
C1174 C1183 1.429 . S
C1175 C1173 1.419 . S
C1175 C1176 1.363 . S
C1175 H1178 0.929 . S
C1176 C1175 1.363 . S
C1176 C1182 1.428 . S
H1177 C1173 0.930 . S
H1178 C1175 0.929 . S
S1179 N1180 1.613 . S
S1179 N1181 1.610 . S
N1180 S1179 1.613 . S
N1180 C1183 1.350 . S
N1181 S1179 1.610 . S
N1181 C1182 1.351 . S
C1182 C1176 1.428 . S
C1182 N1181 1.351 . S
C1182 C1183 1.434 . S
C1183 C1174 1.429 . S
C1183 N1180 1.350 . S
C1183 C1182 1.434 . S
C1184 C1185 1.369 . S
C1184 C1186 1.419 . S
C1184 H1188 0.930 . S
C1185 C1184 1.369 . S
C1185 C1194 1.429 . S
C1186 C1184 1.419 . S
C1186 C1187 1.363 . S
C1186 H1189 0.929 . S
C1187 C1186 1.363 . S
C1187 C1193 1.428 . S
H1188 C1184 0.930 . S
H1189 C1186 0.929 . S
S1190 N1191 1.613 . S
S1190 N1192 1.610 . S
N1191 S1190 1.613 . S
N1191 C1194 1.350 . S
N1192 S1190 1.610 . S
N1192 C1193 1.351 . S
C1193 C1187 1.428 . S
C1193 N1192 1.351 . S
C1193 C1194 1.434 . S
C1194 C1185 1.429 . S
C1194 N1191 1.350 . S
C1194 C1193 1.434 . S
C1195 C1196 1.369 . S
C1195 C1197 1.419 . S
C1195 H1199 0.930 . S
C1196 C1195 1.369 . S
C1196 C1205 1.429 . S
C1197 C1195 1.419 . S
C1197 C1198 1.363 . S
C1197 H1200 0.929 . S
C1198 C1197 1.363 . S
C1198 C1204 1.428 . S
H1199 C1195 0.930 . S
H1200 C1197 0.929 . S
S1201 N1202 1.613 . S
S1201 N1203 1.610 . S
N1202 S1201 1.613 . S
N1202 C1205 1.350 . S
N1203 S1201 1.610 . S
N1203 C1204 1.351 . S
C1204 C1198 1.428 . S
C1204 N1203 1.351 . S
C1204 C1205 1.434 . S
C1205 C1196 1.429 . S
C1205 N1202 1.350 . S
C1205 C1204 1.434 . S
C1206 C1207 1.369 . S
C1206 C1208 1.419 . S
C1206 H1210 0.930 . S
C1207 C1206 1.369 . S
C1207 C1216 1.429 . S
C1208 C1206 1.419 . S
C1208 C1209 1.363 . S
C1208 H1211 0.929 1_556 S
C1209 C1208 1.363 . S
C1209 C1215 1.428 . S
H1210 C1206 0.930 . S
H1211 C1208 0.929 1_554 S
S1212 N1213 1.613 1_655 S
S1212 N1214 1.610 . S
N1213 S1212 1.613 1_455 S
N1213 C1216 1.350 . S
N1214 S1212 1.610 . S
N1214 C1215 1.351 1_655 S
C1215 C1209 1.428 . S
C1215 N1214 1.351 1_455 S
C1215 C1216 1.434 . S
C1216 C1207 1.429 . S
C1216 N1213 1.350 . S
C1216 C1215 1.434 . S
C1217 C1218 1.369 . S
C1217 C1219 1.419 . S
C1217 H1221 0.930 . S
C1218 C1217 1.369 . S
C1218 C1227 1.429 . S
C1219 C1217 1.419 . S
C1219 C1220 1.363 . S
C1219 H1222 0.929 . S
C1220 C1219 1.363 . S
C1220 C1226 1.428 . S
H1221 C1217 0.930 . S
H1222 C1219 0.929 . S
S1223 N1224 1.613 . S
S1223 N1225 1.610 . S
N1224 S1223 1.613 . S
N1224 C1227 1.350 . S
N1225 S1223 1.610 . S
N1225 C1226 1.351 . S
C1226 C1220 1.428 . S
C1226 N1225 1.351 . S
C1226 C1227 1.434 . S
C1227 C1218 1.429 . S
C1227 N1224 1.350 . S
C1227 C1226 1.434 . S
C1228 C1229 1.369 . S
C1228 C1230 1.419 . S
C1228 H1232 0.930 . S
C1229 C1228 1.369 . S
C1229 C1238 1.429 . S
C1230 C1228 1.419 . S
C1230 C1231 1.363 . S
C1230 H1233 0.929 . S
C1231 C1230 1.363 . S
C1231 C1237 1.428 . S
H1232 C1228 0.930 . S
H1233 C1230 0.929 . S
S1234 N1235 1.613 . S
S1234 N1236 1.610 . S
N1235 S1234 1.613 . S
N1235 C1238 1.350 . S
N1236 S1234 1.610 . S
N1236 C1237 1.351 . S
C1237 C1231 1.428 . S
C1237 N1236 1.351 . S
C1237 C1238 1.434 . S
C1238 C1229 1.429 . S
C1238 N1235 1.350 . S
C1238 C1237 1.434 . S
C1239 C1240 1.369 . S
C1239 C1241 1.419 . S
C1239 H1243 0.930 . S
C1240 C1239 1.369 . S
C1240 C1249 1.429 . S
C1241 C1239 1.419 . S
C1241 C1242 1.363 . S
C1241 H1244 0.929 . S
C1242 C1241 1.363 . S
C1242 C1248 1.428 . S
H1243 C1239 0.930 . S
H1244 C1241 0.929 . S
S1245 N1246 1.613 . S
S1245 N1247 1.610 . S
N1246 S1245 1.613 . S
N1246 C1249 1.350 . S
N1247 S1245 1.610 . S
N1247 C1248 1.351 . S
C1248 C1242 1.428 . S
C1248 N1247 1.351 . S
C1248 C1249 1.434 . S
C1249 C1240 1.429 . S
C1249 N1246 1.350 . S
C1249 C1248 1.434 . S
C1250 C1251 1.369 . S
C1250 C1252 1.419 . S
C1250 H1254 0.930 . S
C1251 C1250 1.369 . S
C1251 C1260 1.429 1_655 S
C1252 C1250 1.419 . S
C1252 C1253 1.363 . S
C1252 H1255 0.929 . S
C1253 C1252 1.363 . S
C1253 C1259 1.428 1_655 S
H1254 C1250 0.930 . S
H1255 C1252 0.929 . S
S1256 N1257 1.613 . S
S1256 N1258 1.610 . S
N1257 S1256 1.613 . S
N1257 C1260 1.350 . S
N1258 S1256 1.610 . S
N1258 C1259 1.351 . S
C1259 C1253 1.428 1_455 S
C1259 N1258 1.351 . S
C1259 C1260 1.434 . S
C1260 C1251 1.429 1_455 S
C1260 N1257 1.350 . S
C1260 C1259 1.434 . S
C1261 C1262 1.369 . S
C1261 C1263 1.419 . S
C1261 H1265 0.930 . S
C1262 C1261 1.369 . S
C1262 C1271 1.429 . S
C1263 C1261 1.419 . S
C1263 C1264 1.363 . S
C1263 H1266 0.929 . S
C1264 C1263 1.363 . S
C1264 C1270 1.428 . S
H1265 C1261 0.930 . S
H1266 C1263 0.929 . S
S1267 N1268 1.613 . S
S1267 N1269 1.610 . S
N1268 S1267 1.613 . S
N1268 C1271 1.350 . S
N1269 S1267 1.610 . S
N1269 C1270 1.351 . S
C1270 C1264 1.428 . S
C1270 N1269 1.351 . S
C1270 C1271 1.434 . S
C1271 C1262 1.429 . S
C1271 N1268 1.350 . S
C1271 C1270 1.434 . S
C1272 C1273 1.369 . S
C1272 C1274 1.419 . S
C1272 H1276 0.930 . S
C1273 C1272 1.369 . S
C1273 C1282 1.429 . S
C1274 C1272 1.419 . S
C1274 C1275 1.363 . S
C1274 H1277 0.929 . S
C1275 C1274 1.363 . S
C1275 C1281 1.428 . S
H1276 C1272 0.930 . S
H1277 C1274 0.929 . S
S1278 N1279 1.613 . S
S1278 N1280 1.610 . S
N1279 S1278 1.613 . S
N1279 C1282 1.350 . S
N1280 S1278 1.610 . S
N1280 C1281 1.351 . S
C1281 C1275 1.428 . S
C1281 N1280 1.351 . S
C1281 C1282 1.434 . S
C1282 C1273 1.429 . S
C1282 N1279 1.350 . S
C1282 C1281 1.434 . S
C1283 C1284 1.369 . S
C1283 C1285 1.419 . S
C1283 H1287 0.930 . S
C1284 C1283 1.369 . S
C1284 C1293 1.429 . S
C1285 C1283 1.419 . S
C1285 C1286 1.363 . S
C1285 H1288 0.929 . S
C1286 C1285 1.363 . S
C1286 C1292 1.428 . S
H1287 C1283 0.930 . S
H1288 C1285 0.929 . S
S1289 N1290 1.613 . S
S1289 N1291 1.610 . S
N1290 S1289 1.613 . S
N1290 C1293 1.350 . S
N1291 S1289 1.610 . S
N1291 C1292 1.351 . S
C1292 C1286 1.428 . S
C1292 N1291 1.351 . S
C1292 C1293 1.434 . S
C1293 C1284 1.429 . S
C1293 N1290 1.350 . S
C1293 C1292 1.434 . S
C1294 C1295 1.369 . S
C1294 C1296 1.419 . S
C1294 H1298 0.930 . S
C1295 C1294 1.369 . S
C1295 C1304 1.429 . S
C1296 C1294 1.419 . S
C1296 C1297 1.363 . S
C1296 H1299 0.929 . S
C1297 C1296 1.363 . S
C1297 C1303 1.428 . S
H1298 C1294 0.930 . S
H1299 C1296 0.929 . S
S1300 N1301 1.613 1_655 S
S1300 N1302 1.610 . S
N1301 S1300 1.613 1_455 S
N1301 C1304 1.350 . S
N1302 S1300 1.610 . S
N1302 C1303 1.351 1_655 S
C1303 C1297 1.428 . S
C1303 N1302 1.351 1_455 S
C1303 C1304 1.434 . S
C1304 C1295 1.429 . S
C1304 N1301 1.350 . S
C1304 C1303 1.434 . S
C1305 C1306 1.369 . S
C1305 C1307 1.419 . S
C1305 H1309 0.930 . S
C1306 C1305 1.369 . S
C1306 C1315 1.429 . S
C1307 C1305 1.419 . S
C1307 C1308 1.363 . S
C1307 H1310 0.929 . S
C1308 C1307 1.363 . S
C1308 C1314 1.428 . S
H1309 C1305 0.930 . S
H1310 C1307 0.929 . S
S1311 N1312 1.613 . S
S1311 N1313 1.610 . S
N1312 S1311 1.613 . S
N1312 C1315 1.350 . S
N1313 S1311 1.610 . S
N1313 C1314 1.351 . S
C1314 C1308 1.428 . S
C1314 N1313 1.351 . S
C1314 C1315 1.434 . S
C1315 C1306 1.429 . S
C1315 N1312 1.350 . S
C1315 C1314 1.434 . S
C1316 C1317 1.369 . S
C1316 C1318 1.419 . S
C1316 H1320 0.930 . S
C1317 C1316 1.369 . S
C1317 C1326 1.429 . S
C1318 C1316 1.419 . S
C1318 C1319 1.363 . S
C1318 H1321 0.929 . S
C1319 C1318 1.363 . S
C1319 C1325 1.428 . S
H1320 C1316 0.930 . S
H1321 C1318 0.929 . S
S1322 N1323 1.613 . S
S1322 N1324 1.610 . S
N1323 S1322 1.613 . S
N1323 C1326 1.350 . S
N1324 S1322 1.610 . S
N1324 C1325 1.351 . S
C1325 C1319 1.428 . S
C1325 N1324 1.351 . S
C1325 C1326 1.434 . S
C1326 C1317 1.429 . S
C1326 N1323 1.350 . S
C1326 C1325 1.434 . S
C1327 C1328 1.369 . S
C1327 C1329 1.419 . S
C1327 H1331 0.930 . S
C1328 C1327 1.369 . S
C1328 C1337 1.429 . S
C1329 C1327 1.419 . S
C1329 C1330 1.363 . S
C1329 H1332 0.929 . S
C1330 C1329 1.363 . S
C1330 C1336 1.428 . S
H1331 C1327 0.930 . S
H1332 C1329 0.929 . S
S1333 N1334 1.613 . S
S1333 N1335 1.610 . S
N1334 S1333 1.613 . S
N1334 C1337 1.350 . S
N1335 S1333 1.610 . S
N1335 C1336 1.351 . S
C1336 C1330 1.428 . S
C1336 N1335 1.351 . S
C1336 C1337 1.434 . S
C1337 C1328 1.429 . S
C1337 N1334 1.350 . S
C1337 C1336 1.434 . S
C1338 C1339 1.369 . S
C1338 C1340 1.419 . S
C1338 H1342 0.930 . S
C1339 C1338 1.369 . S
C1339 C1348 1.429 . S
C1340 C1338 1.419 . S
C1340 C1341 1.363 . S
C1340 H1343 0.929 . S
C1341 C1340 1.363 . S
C1341 C1347 1.428 . S
H1342 C1338 0.930 . S
H1343 C1340 0.929 . S
S1344 N1345 1.613 . S
S1344 N1346 1.610 . S
N1345 S1344 1.613 . S
N1345 C1348 1.350 . S
N1346 S1344 1.610 . S
N1346 C1347 1.351 . S
C1347 C1341 1.428 . S
C1347 N1346 1.351 . S
C1347 C1348 1.434 . S
C1348 C1339 1.429 . S
C1348 N1345 1.350 . S
C1348 C1347 1.434 . S
C1349 C1350 1.369 . S
C1349 C1351 1.419 . S
C1349 H1353 0.930 . S
C1350 C1349 1.369 . S
C1350 C1359 1.429 . S
C1351 C1349 1.419 . S
C1351 C1352 1.363 . S
C1351 H1354 0.929 . S
C1352 C1351 1.363 . S
C1352 C1358 1.428 . S
H1353 C1349 0.930 . S
H1354 C1351 0.929 . S
S1355 N1356 1.613 . S
S1355 N1357 1.610 . S
N1356 S1355 1.613 . S
N1356 C1359 1.350 . S
N1357 S1355 1.610 . S
N1357 C1358 1.351 . S
C1358 C1352 1.428 . S
C1358 N1357 1.351 . S
C1358 C1359 1.434 . S
C1359 C1350 1.429 . S
C1359 N1356 1.350 . S
C1359 C1358 1.434 . S
C1360 C1361 1.369 . S
C1360 C1362 1.419 . S
C1360 H1364 0.930 . S
C1361 C1360 1.369 . S
C1361 C1370 1.429 . S
C1362 C1360 1.419 . S
C1362 C1363 1.363 . S
C1362 H1365 0.929 . S
C1363 C1362 1.363 . S
C1363 C1369 1.428 . S
H1364 C1360 0.930 . S
H1365 C1362 0.929 . S
S1366 N1367 1.613 . S
S1366 N1368 1.610 . S
N1367 S1366 1.613 . S
N1367 C1370 1.350 . S
N1368 S1366 1.610 . S
N1368 C1369 1.351 . S
C1369 C1363 1.428 . S
C1369 N1368 1.351 . S
C1369 C1370 1.434 . S
C1370 C1361 1.429 . S
C1370 N1367 1.350 . S
C1370 C1369 1.434 . S
C1371 C1372 1.369 . S
C1371 C1373 1.419 . S
C1371 H1375 0.930 . S
C1372 C1371 1.369 . S
C1372 C1381 1.429 . S
C1373 C1371 1.419 . S
C1373 C1374 1.363 . S
C1373 H1376 0.929 . S
C1374 C1373 1.363 . S
C1374 C1380 1.428 . S
H1375 C1371 0.930 . S
H1376 C1373 0.929 . S
S1377 N1378 1.613 . S
S1377 N1379 1.610 . S
N1378 S1377 1.613 . S
N1378 C1381 1.350 . S
N1379 S1377 1.610 . S
N1379 C1380 1.351 . S
C1380 C1374 1.428 . S
C1380 N1379 1.351 . S
C1380 C1381 1.434 . S
C1381 C1372 1.429 . S
C1381 N1378 1.350 . S
C1381 C1380 1.434 . S
C1382 C1383 1.369 . S
C1382 C1384 1.419 . S
C1382 H1386 0.930 . S
C1383 C1382 1.369 . S
C1383 C1392 1.429 . S
C1384 C1382 1.419 . S
C1384 C1385 1.363 . S
C1384 H1387 0.929 . S
C1385 C1384 1.363 . S
C1385 C1391 1.428 . S
H1386 C1382 0.930 . S
H1387 C1384 0.929 . S
S1388 N1389 1.613 . S
S1388 N1390 1.610 . S
N1389 S1388 1.613 . S
N1389 C1392 1.350 . S
N1390 S1388 1.610 . S
N1390 C1391 1.351 . S
C1391 C1385 1.428 . S
C1391 N1390 1.351 . S
C1391 C1392 1.434 . S
C1392 C1383 1.429 . S
C1392 N1389 1.350 . S
C1392 C1391 1.434 . S
C1393 C1394 1.369 . S
C1393 C1395 1.419 . S
C1393 H1397 0.930 . S
C1394 C1393 1.369 . S
C1394 C1403 1.429 . S
C1395 C1393 1.419 . S
C1395 C1396 1.363 . S
C1395 H1398 0.929 1_565 S
C1396 C1395 1.363 . S
C1396 C1402 1.428 . S
H1397 C1393 0.930 . S
H1398 C1395 0.929 1_545 S
S1399 N1400 1.613 . S
S1399 N1401 1.610 . S
N1400 S1399 1.613 . S
N1400 C1403 1.350 1_556 S
N1401 S1399 1.610 . S
N1401 C1402 1.351 1_556 S
C1402 C1396 1.428 . S
C1402 N1401 1.351 1_554 S
C1402 C1403 1.434 . S
C1403 C1394 1.429 . S
C1403 N1400 1.350 1_554 S
C1403 C1402 1.434 . S
C1404 C1405 1.369 . S
C1404 C1406 1.419 . S
C1404 H1408 0.930 . S
C1405 C1404 1.369 . S
C1405 C1414 1.429 . S
C1406 C1404 1.419 . S
C1406 C1407 1.363 . S
C1406 H1409 0.929 . S
C1407 C1406 1.363 . S
C1407 C1413 1.428 . S
H1408 C1404 0.930 . S
H1409 C1406 0.929 . S
S1410 N1411 1.613 . S
S1410 N1412 1.610 . S
N1411 S1410 1.613 . S
N1411 C1414 1.350 . S
N1412 S1410 1.610 . S
N1412 C1413 1.351 . S
C1413 C1407 1.428 . S
C1413 N1412 1.351 . S
C1413 C1414 1.434 . S
C1414 C1405 1.429 . S
C1414 N1411 1.350 . S
C1414 C1413 1.434 . S
C1415 C1416 1.369 1_556 S
C1415 C1417 1.419 1_556 S
C1415 H1419 0.930 . S
C1416 C1415 1.369 1_554 S
C1416 C1425 1.429 . S
C1417 C1415 1.419 1_554 S
C1417 C1418 1.363 . S
C1417 H1420 0.929 1_554 S
C1418 C1417 1.363 . S
C1418 C1424 1.428 . S
H1419 C1415 0.930 . S
H1420 C1417 0.929 1_556 S
S1421 N1422 1.613 . S
S1421 N1423 1.610 . S
N1422 S1421 1.613 . S
N1422 C1425 1.350 . S
N1423 S1421 1.610 . S
N1423 C1424 1.351 . S
C1424 C1418 1.428 . S
C1424 N1423 1.351 . S
C1424 C1425 1.434 . S
C1425 C1416 1.429 . S
C1425 N1422 1.350 . S
C1425 C1424 1.434 . S
C1426 C1427 1.369 . S
C1426 C1428 1.419 . S
C1426 H1430 0.930 . S
C1427 C1426 1.369 . S
C1427 C1436 1.429 . S
C1428 C1426 1.419 . S
C1428 C1429 1.363 . S
C1428 H1431 0.929 . S
C1429 C1428 1.363 . S
C1429 C1435 1.428 . S
H1430 C1426 0.930 . S
H1431 C1428 0.929 . S
S1432 N1433 1.613 . S
S1432 N1434 1.610 . S
N1433 S1432 1.613 . S
N1433 C1436 1.350 . S
N1434 S1432 1.610 . S
N1434 C1435 1.351 . S
C1435 C1429 1.428 . S
C1435 N1434 1.351 . S
C1435 C1436 1.434 . S
C1436 C1427 1.429 . S
C1436 N1433 1.350 . S
C1436 C1435 1.434 . S
C1437 C1438 1.369 . S
C1437 C1439 1.419 . S
C1437 H1441 0.930 . S
C1438 C1437 1.369 . S
C1438 C1447 1.429 . S
C1439 C1437 1.419 . S
C1439 C1440 1.363 . S
C1439 H1442 0.929 . S
C1440 C1439 1.363 . S
C1440 C1446 1.428 . S
H1441 C1437 0.930 . S
H1442 C1439 0.929 . S
S1443 N1444 1.613 . S
S1443 N1445 1.610 . S
N1444 S1443 1.613 . S
N1444 C1447 1.350 . S
N1445 S1443 1.610 . S
N1445 C1446 1.351 . S
C1446 C1440 1.428 . S
C1446 N1445 1.351 . S
C1446 C1447 1.434 . S
C1447 C1438 1.429 . S
C1447 N1444 1.350 . S
C1447 C1446 1.434 . S
C1448 C1449 1.369 . S
C1448 C1450 1.419 . S
C1448 H1452 0.930 . S
C1449 C1448 1.369 . S
C1449 C1458 1.429 . S
C1450 C1448 1.419 . S
C1450 C1451 1.363 . S
C1450 H1453 0.929 . S
C1451 C1450 1.363 . S
C1451 C1457 1.428 . S
H1452 C1448 0.930 . S
H1453 C1450 0.929 . S
S1454 N1455 1.613 . S
S1454 N1456 1.610 . S
N1455 S1454 1.613 . S
N1455 C1458 1.350 . S
N1456 S1454 1.610 . S
N1456 C1457 1.351 . S
C1457 C1451 1.428 . S
C1457 N1456 1.351 . S
C1457 C1458 1.434 . S
C1458 C1449 1.429 . S
C1458 N1455 1.350 . S
C1458 C1457 1.434 . S
C1459 C1460 1.369 . S
C1459 C1461 1.419 . S
C1459 H1463 0.930 . S
C1460 C1459 1.369 . S
C1460 C1469 1.429 . S
C1461 C1459 1.419 . S
C1461 C1462 1.363 . S
C1461 H1464 0.929 . S
C1462 C1461 1.363 . S
C1462 C1468 1.428 . S
H1463 C1459 0.930 . S
H1464 C1461 0.929 . S
S1465 N1466 1.613 . S
S1465 N1467 1.610 . S
N1466 S1465 1.613 . S
N1466 C1469 1.350 . S
N1467 S1465 1.610 . S
N1467 C1468 1.351 . S
C1468 C1462 1.428 . S
C1468 N1467 1.351 . S
C1468 C1469 1.434 . S
C1469 C1460 1.429 . S
C1469 N1466 1.350 . S
C1469 C1468 1.434 . S
C1470 C1471 1.369 1_655 S
C1470 C1472 1.419 . S
C1470 H1474 0.930 . S
C1471 C1470 1.369 1_455 S
C1471 C1480 1.429 . S
C1472 C1470 1.419 . S
C1472 C1473 1.363 1_655 S
C1472 H1475 0.929 . S
C1473 C1472 1.363 1_455 S
C1473 C1479 1.428 . S
H1474 C1470 0.930 . S
H1475 C1472 0.929 . S
S1476 N1477 1.613 . S
S1476 N1478 1.610 . S
N1477 S1476 1.613 . S
N1477 C1480 1.350 . S
N1478 S1476 1.610 . S
N1478 C1479 1.351 . S
C1479 C1473 1.428 . S
C1479 N1478 1.351 . S
C1479 C1480 1.434 . S
C1480 C1471 1.429 . S
C1480 N1477 1.350 . S
C1480 C1479 1.434 . S
C1481 C1482 1.369 . S
C1481 C1483 1.419 . S
C1481 H1485 0.930 . S
C1482 C1481 1.369 . S
C1482 C1491 1.429 . S
C1483 C1481 1.419 . S
C1483 C1484 1.363 . S
C1483 H1486 0.929 . S
C1484 C1483 1.363 . S
C1484 C1490 1.428 . S
H1485 C1481 0.930 . S
H1486 C1483 0.929 . S
S1487 N1488 1.613 . S
S1487 N1489 1.610 . S
N1488 S1487 1.613 . S
N1488 C1491 1.350 . S
N1489 S1487 1.610 . S
N1489 C1490 1.351 . S
C1490 C1484 1.428 . S
C1490 N1489 1.351 . S
C1490 C1491 1.434 . S
C1491 C1482 1.429 . S
C1491 N1488 1.350 . S
C1491 C1490 1.434 . S
C1492 C1493 1.369 . S
C1492 C1494 1.419 . S
C1492 H1496 0.930 . S
C1493 C1492 1.369 . S
C1493 C1502 1.429 . S
C1494 C1492 1.419 . S
C1494 C1495 1.363 . S
C1494 H1497 0.929 . S
C1495 C1494 1.363 . S
C1495 C1501 1.428 . S
H1496 C1492 0.930 . S
H1497 C1494 0.929 . S
S1498 N1499 1.613 1_554 S
S1498 N1500 1.610 . S
N1499 S1498 1.613 1_556 S
N1499 C1502 1.350 . S
N1500 S1498 1.610 . S
N1500 C1501 1.351 1_554 S
C1501 C1495 1.428 . S
C1501 N1500 1.351 1_556 S
C1501 C1502 1.434 . S
C1502 C1493 1.429 . S
C1502 N1499 1.350 . S
C1502 C1501 1.434 . S
C1503 C1504 1.369 . S
C1503 C1505 1.419 . S
C1503 H1507 0.930 . S
C1504 C1503 1.369 . S
C1504 C1513 1.429 . S
C1505 C1503 1.419 . S
C1505 C1506 1.363 . S
C1505 H1508 0.929 . S
C1506 C1505 1.363 . S
C1506 C1512 1.428 . S
H1507 C1503 0.930 . S
H1508 C1505 0.929 . S
S1509 N1510 1.613 . S
S1509 N1511 1.610 . S
N1510 S1509 1.613 . S
N1510 C1513 1.350 . S
N1511 S1509 1.610 . S
N1511 C1512 1.351 . S
C1512 C1506 1.428 . S
C1512 N1511 1.351 . S
C1512 C1513 1.434 . S
C1513 C1504 1.429 . S
C1513 N1510 1.350 . S
C1513 C1512 1.434 . S
C1514 C1515 1.369 . S
C1514 C1516 1.419 . S
C1514 H1518 0.930 1_455 S
C1515 C1514 1.369 . S
C1515 C1524 1.429 . S
C1516 C1514 1.419 . S
C1516 C1517 1.363 . S
C1516 H1519 0.929 1_455 S
C1517 C1516 1.363 . S
C1517 C1523 1.428 . S
H1518 C1514 0.930 1_655 S
H1519 C1516 0.929 1_655 S
S1520 N1521 1.613 . S
S1520 N1522 1.610 . S
N1521 S1520 1.613 . S
N1521 C1524 1.350 . S
N1522 S1520 1.610 . S
N1522 C1523 1.351 . S
C1523 C1517 1.428 . S
C1523 N1522 1.351 . S
C1523 C1524 1.434 . S
C1524 C1515 1.429 . S
C1524 N1521 1.350 . S
C1524 C1523 1.434 . S
C1525 C1526 1.369 . S
C1525 C1527 1.419 . S
C1525 H1529 0.930 . S
C1526 C1525 1.369 . S
C1526 C1535 1.429 . S
C1527 C1525 1.419 . S
C1527 C1528 1.363 . S
C1527 H1530 0.929 . S
C1528 C1527 1.363 . S
C1528 C1534 1.428 . S
H1529 C1525 0.930 . S
H1530 C1527 0.929 . S
S1531 N1532 1.613 . S
S1531 N1533 1.610 . S
N1532 S1531 1.613 . S
N1532 C1535 1.350 . S
N1533 S1531 1.610 . S
N1533 C1534 1.351 . S
C1534 C1528 1.428 . S
C1534 N1533 1.351 . S
C1534 C1535 1.434 . S
C1535 C1526 1.429 . S
C1535 N1532 1.350 . S
C1535 C1534 1.434 . S
C1536 C1537 1.369 . S
C1536 C1538 1.419 . S
C1536 H1540 0.930 . S
C1537 C1536 1.369 . S
C1537 C1546 1.429 . S
C1538 C1536 1.419 . S
C1538 C1539 1.363 . S
C1538 H1541 0.929 . S
C1539 C1538 1.363 . S
C1539 C1545 1.428 . S
H1540 C1536 0.930 . S
H1541 C1538 0.929 . S
S1542 N1543 1.613 . S
S1542 N1544 1.610 . S
N1543 S1542 1.613 . S
N1543 C1546 1.350 . S
N1544 S1542 1.610 . S
N1544 C1545 1.351 . S
C1545 C1539 1.428 . S
C1545 N1544 1.351 . S
C1545 C1546 1.434 . S
C1546 C1537 1.429 . S
C1546 N1543 1.350 . S
C1546 C1545 1.434 . S
C1547 C1548 1.369 . S
C1547 C1549 1.419 . S
C1547 H1551 0.930 . S
C1548 C1547 1.369 . S
C1548 C1557 1.429 . S
C1549 C1547 1.419 . S
C1549 C1550 1.363 . S
C1549 H1552 0.929 . S
C1550 C1549 1.363 . S
C1550 C1556 1.428 . S
H1551 C1547 0.930 . S
H1552 C1549 0.929 . S
S1553 N1554 1.613 . S
S1553 N1555 1.610 . S
N1554 S1553 1.613 . S
N1554 C1557 1.350 . S
N1555 S1553 1.610 . S
N1555 C1556 1.351 . S
C1556 C1550 1.428 . S
C1556 N1555 1.351 . S
C1556 C1557 1.434 . S
C1557 C1548 1.429 . S
C1557 N1554 1.350 . S
C1557 C1556 1.434 . S
C1558 C1559 1.369 . S
C1558 C1560 1.419 . S
C1558 H1562 0.930 . S
C1559 C1558 1.369 . S
C1559 C1568 1.429 . S
C1560 C1558 1.419 . S
C1560 C1561 1.363 . S
C1560 H1563 0.929 1_655 S
C1561 C1560 1.363 . S
C1561 C1567 1.428 . S
H1562 C1558 0.930 . S
H1563 C1560 0.929 1_455 S
S1564 N1565 1.613 . S
S1564 N1566 1.610 . S
N1565 S1564 1.613 . S
N1565 C1568 1.350 . S
N1566 S1564 1.610 . S
N1566 C1567 1.351 . S
C1567 C1561 1.428 . S
C1567 N1566 1.351 . S
C1567 C1568 1.434 . S
C1568 C1559 1.429 . S
C1568 N1565 1.350 . S
C1568 C1567 1.434 . S
C1569 C1570 1.369 . S
C1569 C1571 1.419 . S
C1569 H1573 0.930 . S
C1570 C1569 1.369 . S
C1570 C1579 1.429 . S
C1571 C1569 1.419 . S
C1571 C1572 1.363 . S
C1571 H1574 0.929 . S
C1572 C1571 1.363 . S
C1572 C1578 1.428 . S
H1573 C1569 0.930 . S
H1574 C1571 0.929 . S
S1575 N1576 1.613 . S
S1575 N1577 1.610 . S
N1576 S1575 1.613 . S
N1576 C1579 1.350 . S
N1577 S1575 1.610 . S
N1577 C1578 1.351 . S
C1578 C1572 1.428 . S
C1578 N1577 1.351 . S
C1578 C1579 1.434 . S
C1579 C1570 1.429 . S
C1579 N1576 1.350 . S
C1579 C1578 1.434 . S
C1580 C1581 1.369 . S
C1580 C1582 1.419 . S
C1580 H1584 0.930 . S
C1581 C1580 1.369 . S
C1581 C1590 1.429 . S
C1582 C1580 1.419 . S
C1582 C1583 1.363 . S
C1582 H1585 0.929 . S
C1583 C1582 1.363 . S
C1583 C1589 1.428 . S
H1584 C1580 0.930 . S
H1585 C1582 0.929 . S
S1586 N1587 1.613 . S
S1586 N1588 1.610 . S
N1587 S1586 1.613 . S
N1587 C1590 1.350 . S
N1588 S1586 1.610 . S
N1588 C1589 1.351 . S
C1589 C1583 1.428 . S
C1589 N1588 1.351 . S
C1589 C1590 1.434 . S
C1590 C1581 1.429 . S
C1590 N1587 1.350 . S
C1590 C1589 1.434 . S
C1591 C1592 1.369 . S
C1591 C1593 1.419 . S
C1591 H1595 0.930 . S
C1592 C1591 1.369 . S
C1592 C1601 1.429 . S
C1593 C1591 1.419 . S
C1593 C1594 1.363 . S
C1593 H1596 0.929 . S
C1594 C1593 1.363 . S
C1594 C1600 1.428 . S
H1595 C1591 0.930 . S
H1596 C1593 0.929 . S
S1597 N1598 1.613 . S
S1597 N1599 1.610 . S
N1598 S1597 1.613 . S
N1598 C1601 1.350 . S
N1599 S1597 1.610 . S
N1599 C1600 1.351 . S
C1600 C1594 1.428 . S
C1600 N1599 1.351 . S
C1600 C1601 1.434 . S
C1601 C1592 1.429 . S
C1601 N1598 1.350 . S
C1601 C1600 1.434 . S
C1602 C1603 1.369 . S
C1602 C1604 1.419 . S
C1602 H1606 0.930 . S
C1603 C1602 1.369 . S
C1603 C1612 1.429 . S
C1604 C1602 1.419 . S
C1604 C1605 1.363 . S
C1604 H1607 0.929 . S
C1605 C1604 1.363 . S
C1605 C1611 1.428 . S
H1606 C1602 0.930 . S
H1607 C1604 0.929 . S
S1608 N1609 1.613 1_455 S
S1608 N1610 1.610 . S
N1609 S1608 1.613 1_655 S
N1609 C1612 1.350 . S
N1610 S1608 1.610 . S
N1610 C1611 1.351 1_455 S
C1611 C1605 1.428 . S
C1611 N1610 1.351 1_655 S
C1611 C1612 1.434 . S
C1612 C1603 1.429 . S
C1612 N1609 1.350 . S
C1612 C1611 1.434 . S
C1613 C1614 1.369 . S
C1613 C1615 1.419 . S
C1613 H1617 0.930 . S
C1614 C1613 1.369 . S
C1614 C1623 1.429 . S
C1615 C1613 1.419 . S
C1615 C1616 1.363 . S
C1615 H1618 0.929 . S
C1616 C1615 1.363 . S
C1616 C1622 1.428 . S
H1617 C1613 0.930 . S
H1618 C1615 0.929 . S
S1619 N1620 1.613 . S
S1619 N1621 1.610 . S
N1620 S1619 1.613 . S
N1620 C1623 1.350 . S
N1621 S1619 1.610 . S
N1621 C1622 1.351 . S
C1622 C1616 1.428 . S
C1622 N1621 1.351 . S
C1622 C1623 1.434 . S
C1623 C1614 1.429 . S
C1623 N1620 1.350 . S
C1623 C1622 1.434 . S
C1624 C1625 1.369 . S
C1624 C1626 1.419 . S
C1624 H1628 0.930 . S
C1625 C1624 1.369 . S
C1625 C1634 1.429 . S
C1626 C1624 1.419 . S
C1626 C1627 1.363 . S
C1626 H1629 0.929 . S
C1627 C1626 1.363 . S
C1627 C1633 1.428 . S
H1628 C1624 0.930 . S
H1629 C1626 0.929 . S
S1630 N1631 1.613 . S
S1630 N1632 1.610 . S
N1631 S1630 1.613 . S
N1631 C1634 1.350 . S
N1632 S1630 1.610 . S
N1632 C1633 1.351 . S
C1633 C1627 1.428 . S
C1633 N1632 1.351 . S
C1633 C1634 1.434 . S
C1634 C1625 1.429 . S
C1634 N1631 1.350 . S
C1634 C1633 1.434 . S
C1635 C1636 1.369 . S
C1635 C1637 1.419 . S
C1635 H1639 0.930 . S
C1636 C1635 1.369 . S
C1636 C1645 1.429 . S
C1637 C1635 1.419 . S
C1637 C1638 1.363 . S
C1637 H1640 0.929 1_565 S
C1638 C1637 1.363 . S
C1638 C1644 1.428 . S
H1639 C1635 0.930 . S
H1640 C1637 0.929 1_545 S
S1641 N1642 1.613 . S
S1641 N1643 1.610 . S
N1642 S1641 1.613 . S
N1642 C1645 1.350 . S
N1643 S1641 1.610 . S
N1643 C1644 1.351 . S
C1644 C1638 1.428 . S
C1644 N1643 1.351 . S
C1644 C1645 1.434 . S
C1645 C1636 1.429 . S
C1645 N1642 1.350 . S
C1645 C1644 1.434 . S
C1646 C1647 1.369 . S
C1646 C1648 1.419 . S
C1646 H1650 0.930 . S
C1647 C1646 1.369 . S
C1647 C1656 1.429 . S
C1648 C1646 1.419 . S
C1648 C1649 1.363 . S
C1648 H1651 0.929 . S
C1649 C1648 1.363 . S
C1649 C1655 1.428 . S
H1650 C1646 0.930 . S
H1651 C1648 0.929 . S
S1652 N1653 1.613 . S
S1652 N1654 1.610 . S
N1653 S1652 1.613 . S
N1653 C1656 1.350 . S
N1654 S1652 1.610 . S
N1654 C1655 1.351 . S
C1655 C1649 1.428 . S
C1655 N1654 1.351 . S
C1655 C1656 1.434 . S
C1656 C1647 1.429 . S
C1656 N1653 1.350 . S
C1656 C1655 1.434 . S
C1657 C1658 1.370 1_556 S
C1657 C1659 1.419 . S
C1657 H1661 0.930 . S
C1658 C1657 1.370 1_554 S
C1658 C1667 1.427 . S
C1659 C1657 1.419 . S
C1659 C1660 1.363 1_556 S
C1659 H1662 0.929 . S
C1660 C1659 1.363 1_554 S
C1660 C1666 1.428 . S
H1661 C1657 0.930 . S
H1662 C1659 0.929 . S
S1663 N1664 1.613 . S
S1663 N1665 1.610 . S
N1664 S1663 1.613 . S
N1664 C1667 1.350 . S
N1665 S1663 1.610 . S
N1665 C1666 1.351 . S
C1666 C1660 1.428 . S
C1666 N1665 1.351 . S
C1666 C1667 1.434 . S
C1667 C1658 1.427 . S
C1667 N1664 1.350 . S
C1667 C1666 1.434 . S
C1668 C1669 1.369 . S
C1668 C1670 1.419 . S
C1668 H1672 0.930 . S
C1669 C1668 1.369 . S
C1669 C1678 1.429 . S
C1670 C1668 1.419 . S
C1670 C1671 1.363 . S
C1670 H1673 0.929 . S
C1671 C1670 1.363 . S
C1671 C1677 1.428 . S
H1672 C1668 0.930 . S
H1673 C1670 0.929 . S
S1674 N1675 1.613 . S
S1674 N1676 1.610 . S
N1675 S1674 1.613 . S
N1675 C1678 1.350 . S
N1676 S1674 1.610 . S
N1676 C1677 1.351 . S
C1677 C1671 1.428 . S
C1677 N1676 1.351 . S
C1677 C1678 1.434 . S
C1678 C1669 1.429 . S
C1678 N1675 1.350 . S
C1678 C1677 1.434 . S
C1679 C1680 1.369 . S
C1679 C1681 1.419 . S
C1679 H1683 0.930 . S
C1680 C1679 1.369 . S
C1680 C1689 1.429 . S
C1681 C1679 1.419 . S
C1681 C1682 1.362 1_554 S
C1681 H1684 0.929 . S
C1682 C1681 1.362 1_556 S
C1682 C1688 1.428 . S
H1683 C1679 0.930 . S
H1684 C1681 0.929 . S
S1685 N1686 1.613 1_556 S
S1685 N1687 1.610 . S
N1686 S1685 1.613 1_554 S
N1686 C1689 1.350 . S
N1687 S1685 1.610 . S
N1687 C1688 1.351 . S
C1688 C1682 1.428 . S
C1688 N1687 1.351 . S
C1688 C1689 1.434 1_556 S
C1689 C1680 1.429 . S
C1689 N1686 1.350 . S
C1689 C1688 1.434 1_554 S
C1690 C1691 1.369 . S
C1690 C1692 1.419 . S
C1690 H1694 0.930 . S
C1691 C1690 1.369 . S
C1691 C1700 1.429 . S
C1692 C1690 1.419 . S
C1692 C1693 1.363 . S
C1692 H1695 0.929 . S
C1693 C1692 1.363 . S
C1693 C1699 1.428 . S
H1694 C1690 0.930 . S
H1695 C1692 0.929 . S
S1696 N1697 1.613 . S
S1696 N1698 1.610 . S
N1697 S1696 1.613 . S
N1697 C1700 1.350 . S
N1698 S1696 1.610 . S
N1698 C1699 1.351 . S
C1699 C1693 1.428 . S
C1699 N1698 1.351 . S
C1699 C1700 1.434 . S
C1700 C1691 1.429 . S
C1700 N1697 1.350 . S
C1700 C1699 1.434 . S
C1701 C1702 1.369 . S
C1701 C1703 1.419 . S
C1701 H1705 0.930 . S
C1702 C1701 1.369 . S
C1702 C1711 1.429 . S
C1703 C1701 1.419 . S
C1703 C1704 1.363 . S
C1703 H1706 0.929 . S
C1704 C1703 1.363 . S
C1704 C1710 1.428 . S
H1705 C1701 0.930 . S
H1706 C1703 0.929 . S
S1707 N1708 1.613 . S
S1707 N1709 1.610 . S
N1708 S1707 1.613 . S
N1708 C1711 1.350 . S
N1709 S1707 1.610 . S
N1709 C1710 1.351 . S
C1710 C1704 1.428 . S
C1710 N1709 1.351 . S
C1710 C1711 1.434 . S
C1711 C1702 1.429 . S
C1711 N1708 1.350 . S
C1711 C1710 1.434 . S
C657 C109 1.333 . S
C659 C352 1.297 1_556 S
C668 C65 1.429 . S
C670 C365 1.402 . S
C679 C75 1.449 . S
C681 C384 1.447 . S
C692 C415 1.864 . S
C690 C84 1.916 . S
C701 C25 1.669 . S
C703 C435 1.654 . S
C714 C452 1.012 . S
C712 C28 1.009 . S
C725 C465 1.507 . S
C723 C47 1.509 . S
C734 C9 1.230 . S
C736 C492 1.172 . S
C747 C345 1.371 . S
C745 C233 1.402 . S
C756 C249 1.531 . S
C758 C375 1.544 . S
C769 C377 1.712 . S
C767 C275 1.782 1_545 S
C780 C412 0.996 . S
C778 C173 0.999 . S
C789 C224 1.259 . S
C791 C432 1.269 . S
C802 C445 1.765 . S
C800 C243 1.754 . S
C813 C475 1.400 . S
C811 C266 1.417 . S
C824 C485 1.212 . S
C822 C179 1.236 . S
C835 C355 1.682 1_565 S
C833 C163 1.695 . S
C844 C289 1.714 . S
C846 C505 1.698 . S
C857 C535 1.625 . S
C855 C333 1.605 . S
C868 C552 1.244 . S
C866 C308 1.258 . S
C877 C123 1.864 . S
C879 C495 1.890 . S
C888 C126 1.353 . S
C890 C382 1.319 . S
C899 C327 1.820 . S
C901 C565 1.812 . S
C912 C592 1.216 . S
C910 C299 1.260 . S
C923 C342 1.296 . S
C921 C67 1.328 . S
C934 C577 1.409 . S
C932 C98 1.435 . S
C943 C89 1.463 . S
C945 C395 1.461 . S
C954 C79 1.937 . S
C956 C564 1.894 . S
C967 C424 1.671 . S
C965 C11 1.692 . S
C976 C51 1.043 . S
C978 C522 1.020 . S
C989 C457 1.537 . S
C987 C33 1.528 . S
C1000 C602 1.146 . S
C998 C14 1.194 . S
C1011 C337 1.345 . S
C1009 C140 1.357 . S
C1022 C584 1.553 . S
C1020 C319 1.563 . S
C1031 C112 1.759 . S
C1033 C385 1.723 . S
C1042 C285 1.014 . S
C1044 C562 1.004 . S
C1053 C149 1.300 . S
C1055 C422 1.285 . S
C1066 C517 1.789 . S
C1064 C313 1.778 . S
C1075 C121 1.485 . S
C1077 C464 1.441 . S
C1086 C291 1.246 . S
C1088 C597 1.226 . S
C1097 C182 1.686 . S
C1099 C344 1.679 . S
C1108 C168 1.700 . S
C1110 C497 1.702 . S
C1119 C263 1.653 . S
C1121 C444 1.663 . S
C1130 C247 1.311 . S
C1132 C542 1.275 . S
C1143 C604 1.874 . S
C1141 C277 1.860 . S
C1152 C219 1.417 . S
C1154 C392 1.334 . S
C1165 C397 1.840 . S
C1163 C257 1.847 . S
C1176 C362 1.204 . S
C1174 C201 1.246 . S
C1185 C81 1.330 . S
C1187 C632 1.304 . S
C1198 C585 1.405 . S
C1196 C93 1.428 . S
C1207 C103 1.448 . S
C1209 C644 1.446 1_455 S
C1218 C56 1.917 . S
C1220 C575 1.867 . S
C1229 C53 1.669 . S
C1231 C515 1.654 . S
C1242 C532 1.012 . S
C1240 C0 1.009 . S
C1253 C545 1.507 1_655 S
C1251 C19 1.508 . S
C1264 C612 1.167 . S
C1262 C37 1.237 . S
C1275 C625 1.371 . S
C1273 C261 1.401 . S
C1284 C193 1.539 . S
C1286 C595 1.546 . S
C1297 C637 1.712 . S
C1295 C205 1.785 . S
C1308 C572 0.991 . S
C1306 C215 1.002 . S
C1319 C512 1.273 . S
C1317 C252 1.257 . S
C1328 C187 1.756 . S
C1330 C525 1.767 . S
C1341 C555 1.400 . S
C1339 C196 1.417 . S
C1350 C221 1.232 . S
C1352 C605 1.208 . S
C1363 C635 1.682 . S
C1361 C317 1.697 . S
C1372 C135 1.714 . S
C1374 C425 1.700 . S
C1385 C455 1.630 . S
C1383 C151 1.610 . S
C1396 C472 1.244 . S
C1394 C154 1.259 . S
C1407 C615 1.892 . S
C1405 C305 1.869 . S
C1416 C280 1.347 . S
C1418 C642 1.329 . S
C1429 C405 1.813 . S
C1427 C145 1.816 . S
C1440 C372 1.219 . S
C1438 C117 1.251 . S
C1449 C95 1.327 . S
C1451 C622 1.299 . S
C1462 C357 1.411 . S
C1460 C70 1.437 . S
C1471 C61 1.463 . S
C1473 C655 1.457 . S
C1482 C107 1.938 . S
C1484 C404 1.897 . S
C1493 C39 1.688 . S
C1495 C504 1.667 1_556 S
C1506 C442 1.025 . S
C1504 C23 1.039 . S
C1515 C5 1.527 . S
C1517 C537 1.527 . S
C1526 C42 1.186 . S
C1528 C482 1.150 . S
C1539 C617 1.347 . S
C1537 C322 1.356 . S
C1548 C165 1.567 . S
C1550 C364 1.555 . S
C1561 C645 1.724 . S
C1559 C294 1.763 . S
C1570 C131 1.009 . S
C1572 C402 1.009 . S
C1581 C331 1.304 . S
C1583 C502 1.292 . S
C1594 C437 1.790 . S
C1592 C159 1.780 . S
C1603 C303 1.484 . S
C1605 C544 1.441 . S
C1616 C477 1.220 . S
C1614 C137 1.251 . S
C1627 C624 1.676 . S
C1625 C238 1.683 . S
C1638 C417 1.704 1_565 S
C1636 C210 1.703 . S
C1647 C235 1.655 . S
C1649 C524 1.660 . S
C1660 C462 1.271 . S
C1658 C191 1.310 1_554 S
C1669 C207 1.863 . S
C1671 C484 1.876 . S
C1680 C177 1.414 . S
C1682 C652 1.343 . S
C1693 C557 1.837 . S
C1691 C229 1.845 . S
C1704 C582 1.206 . S
C1702 C271 1.241 . S
