# Generated by pormake.
# Topology gar, (4,6)-cn, num edge types: 1
# Building blocks:
#     Node 0, Type 0, BuildingBlock: GALJAG_clean_sbu_0, # of connection points: 4
#     Node 1, Type 0, BuildingBlock: GALJAG_clean_sbu_0, # of connection points: 4
#     Node 2, Type 0, BuildingBlock: GALJAG_clean_sbu_0, # of connection points: 4
#     Node 3, Type 0, BuildingBlock: GALJAG_clean_sbu_0, # of connection points: 4
#     Node 4, Type 0, BuildingBlock: GALJAG_clean_sbu_0, # of connection points: 4
#     Node 5, Type 0, BuildingBlock: GALJAG_clean_sbu_0, # of connection points: 4
#     Node 6, Type 0, BuildingBlock: GALJAG_clean_sbu_0, # of connection points: 4
#     Node 7, Type 0, BuildingBlock: GALJAG_clean_sbu_0, # of connection points: 4
#     Node 8, Type 0, BuildingBlock: GALJAG_clean_sbu_0, # of connection points: 4
#     Node 9, Type 0, BuildingBlock: GALJAG_clean_sbu_0, # of connection points: 4
#     Node 10, Type 0, BuildingBlock: GALJAG_clean_sbu_0, # of connection points: 4
#     Node 11, Type 0, BuildingBlock: GALJAG_clean_sbu_0, # of connection points: 4
#     Node 12, Type 0, BuildingBlock: GALJAG_clean_sbu_0, # of connection points: 4
#     Node 13, Type 0, BuildingBlock: GALJAG_clean_sbu_0, # of connection points: 4
#     Node 14, Type 0, BuildingBlock: GALJAG_clean_sbu_0, # of connection points: 4
#     Node 15, Type 0, BuildingBlock: GALJAG_clean_sbu_0, # of connection points: 4
#     Node 16, Type 0, BuildingBlock: GALJAG_clean_sbu_0, # of connection points: 4
#     Node 17, Type 0, BuildingBlock: GALJAG_clean_sbu_0, # of connection points: 4
#     Node 18, Type 0, BuildingBlock: GALJAG_clean_sbu_0, # of connection points: 4
#     Node 19, Type 0, BuildingBlock: GALJAG_clean_sbu_0, # of connection points: 4
#     Node 20, Type 0, BuildingBlock: GALJAG_clean_sbu_0, # of connection points: 4
#     Node 21, Type 0, BuildingBlock: GALJAG_clean_sbu_0, # of connection points: 4
#     Node 22, Type 0, BuildingBlock: GALJAG_clean_sbu_0, # of connection points: 4
#     Node 23, Type 0, BuildingBlock: GALJAG_clean_sbu_0, # of connection points: 4
#     Node 24, Type 1, BuildingBlock: CUKXOW_clean_sbu_0, # of connection points: 6
#     Node 25, Type 1, BuildingBlock: CUKXOW_clean_sbu_0, # of connection points: 6
#     Node 26, Type 1, BuildingBlock: CUKXOW_clean_sbu_0, # of connection points: 6
#     Node 27, Type 1, BuildingBlock: CUKXOW_clean_sbu_0, # of connection points: 6
#     Node 28, Type 1, BuildingBlock: CUKXOW_clean_sbu_0, # of connection points: 6
#     Node 29, Type 1, BuildingBlock: CUKXOW_clean_sbu_0, # of connection points: 6
#     Node 30, Type 1, BuildingBlock: CUKXOW_clean_sbu_0, # of connection points: 6
#     Node 31, Type 1, BuildingBlock: CUKXOW_clean_sbu_0, # of connection points: 6
#     Node 32, Type 1, BuildingBlock: CUKXOW_clean_sbu_0, # of connection points: 6
#     Node 33, Type 1, BuildingBlock: CUKXOW_clean_sbu_0, # of connection points: 6
#     Node 34, Type 1, BuildingBlock: CUKXOW_clean_sbu_0, # of connection points: 6
#     Node 35, Type 1, BuildingBlock: CUKXOW_clean_sbu_0, # of connection points: 6
#     Node 36, Type 1, BuildingBlock: CUKXOW_clean_sbu_0, # of connection points: 6
#     Node 37, Type 1, BuildingBlock: CUKXOW_clean_sbu_0, # of connection points: 6
#     Node 38, Type 1, BuildingBlock: CUKXOW_clean_sbu_0, # of connection points: 6
#     Node 39, Type 1, BuildingBlock: CUKXOW_clean_sbu_0, # of connection points: 6
#     Edge 40, Type (0, 1), BuildingBlock: KIFKEQ_clean_linker_1, # of connection points: 2
#     Edge 41, Type (0, 1), BuildingBlock: KIFKEQ_clean_linker_1, # of connection points: 2
#     Edge 42, Type (0, 1), BuildingBlock: KIFKEQ_clean_linker_1, # of connection points: 2
#     Edge 43, Type (0, 1), BuildingBlock: KIFKEQ_clean_linker_1, # of connection points: 2
#     Edge 44, Type (0, 1), BuildingBlock: KIFKEQ_clean_linker_1, # of connection points: 2
#     Edge 45, Type (0, 1), BuildingBlock: KIFKEQ_clean_linker_1, # of connection points: 2
#     Edge 46, Type (0, 1), BuildingBlock: KIFKEQ_clean_linker_1, # of connection points: 2
#     Edge 47, Type (0, 1), BuildingBlock: KIFKEQ_clean_linker_1, # of connection points: 2
#     Edge 48, Type (0, 1), BuildingBlock: KIFKEQ_clean_linker_1, # of connection points: 2
#     Edge 49, Type (0, 1), BuildingBlock: KIFKEQ_clean_linker_1, # of connection points: 2
#     Edge 50, Type (0, 1), BuildingBlock: KIFKEQ_clean_linker_1, # of connection points: 2
#     Edge 51, Type (0, 1), BuildingBlock: KIFKEQ_clean_linker_1, # of connection points: 2
#     Edge 52, Type (0, 1), BuildingBlock: KIFKEQ_clean_linker_1, # of connection points: 2
#     Edge 53, Type (0, 1), BuildingBlock: KIFKEQ_clean_linker_1, # of connection points: 2
#     Edge 54, Type (0, 1), BuildingBlock: KIFKEQ_clean_linker_1, # of connection points: 2
#     Edge 55, Type (0, 1), BuildingBlock: KIFKEQ_clean_linker_1, # of connection points: 2
#     Edge 56, Type (0, 1), BuildingBlock: KIFKEQ_clean_linker_1, # of connection points: 2
#     Edge 57, Type (0, 1), BuildingBlock: KIFKEQ_clean_linker_1, # of connection points: 2
#     Edge 58, Type (0, 1), BuildingBlock: KIFKEQ_clean_linker_1, # of connection points: 2
#     Edge 59, Type (0, 1), BuildingBlock: KIFKEQ_clean_linker_1, # of connection points: 2
#     Edge 60, Type (0, 1), BuildingBlock: KIFKEQ_clean_linker_1, # of connection points: 2
#     Edge 61, Type (0, 1), BuildingBlock: KIFKEQ_clean_linker_1, # of connection points: 2
#     Edge 62, Type (0, 1), BuildingBlock: KIFKEQ_clean_linker_1, # of connection points: 2
#     Edge 63, Type (0, 1), BuildingBlock: KIFKEQ_clean_linker_1, # of connection points: 2
#     Edge 64, Type (0, 1), BuildingBlock: KIFKEQ_clean_linker_1, # of connection points: 2
#     Edge 65, Type (0, 1), BuildingBlock: KIFKEQ_clean_linker_1, # of connection points: 2
#     Edge 66, Type (0, 1), BuildingBlock: KIFKEQ_clean_linker_1, # of connection points: 2
#     Edge 67, Type (0, 1), BuildingBlock: KIFKEQ_clean_linker_1, # of connection points: 2
#     Edge 68, Type (0, 1), BuildingBlock: KIFKEQ_clean_linker_1, # of connection points: 2
#     Edge 69, Type (0, 1), BuildingBlock: KIFKEQ_clean_linker_1, # of connection points: 2
#     Edge 70, Type (0, 1), BuildingBlock: KIFKEQ_clean_linker_1, # of connection points: 2
#     Edge 71, Type (0, 1), BuildingBlock: KIFKEQ_clean_linker_1, # of connection points: 2
#     Edge 72, Type (0, 1), BuildingBlock: KIFKEQ_clean_linker_1, # of connection points: 2
#     Edge 73, Type (0, 1), BuildingBlock: KIFKEQ_clean_linker_1, # of connection points: 2
#     Edge 74, Type (0, 1), BuildingBlock: KIFKEQ_clean_linker_1, # of connection points: 2
#     Edge 75, Type (0, 1), BuildingBlock: KIFKEQ_clean_linker_1, # of connection points: 2
#     Edge 76, Type (0, 1), BuildingBlock: KIFKEQ_clean_linker_1, # of connection points: 2
#     Edge 77, Type (0, 1), BuildingBlock: KIFKEQ_clean_linker_1, # of connection points: 2
#     Edge 78, Type (0, 1), BuildingBlock: KIFKEQ_clean_linker_1, # of connection points: 2
#     Edge 79, Type (0, 1), BuildingBlock: KIFKEQ_clean_linker_1, # of connection points: 2
#     Edge 80, Type (0, 1), BuildingBlock: KIFKEQ_clean_linker_1, # of connection points: 2
#     Edge 81, Type (0, 1), BuildingBlock: KIFKEQ_clean_linker_1, # of connection points: 2
#     Edge 82, Type (0, 1), BuildingBlock: KIFKEQ_clean_linker_1, # of connection points: 2
#     Edge 83, Type (0, 1), BuildingBlock: KIFKEQ_clean_linker_1, # of connection points: 2
#     Edge 84, Type (0, 1), BuildingBlock: KIFKEQ_clean_linker_1, # of connection points: 2
#     Edge 85, Type (0, 1), BuildingBlock: KIFKEQ_clean_linker_1, # of connection points: 2
#     Edge 86, Type (0, 1), BuildingBlock: KIFKEQ_clean_linker_1, # of connection points: 2
#     Edge 87, Type (0, 1), BuildingBlock: KIFKEQ_clean_linker_1, # of connection points: 2
#     Edge 88, Type (0, 1), BuildingBlock: KIFKEQ_clean_linker_1, # of connection points: 2
#     Edge 89, Type (0, 1), BuildingBlock: KIFKEQ_clean_linker_1, # of connection points: 2
#     Edge 90, Type (0, 1), BuildingBlock: KIFKEQ_clean_linker_1, # of connection points: 2
#     Edge 91, Type (0, 1), BuildingBlock: KIFKEQ_clean_linker_1, # of connection points: 2
#     Edge 92, Type (0, 1), BuildingBlock: KIFKEQ_clean_linker_1, # of connection points: 2
#     Edge 93, Type (0, 1), BuildingBlock: KIFKEQ_clean_linker_1, # of connection points: 2
#     Edge 94, Type (0, 1), BuildingBlock: KIFKEQ_clean_linker_1, # of connection points: 2
#     Edge 95, Type (0, 1), BuildingBlock: KIFKEQ_clean_linker_1, # of connection points: 2
#     Edge 96, Type (0, 1), BuildingBlock: KIFKEQ_clean_linker_1, # of connection points: 2
#     Edge 97, Type (0, 1), BuildingBlock: KIFKEQ_clean_linker_1, # of connection points: 2
#     Edge 98, Type (0, 1), BuildingBlock: KIFKEQ_clean_linker_1, # of connection points: 2
#     Edge 99, Type (0, 1), BuildingBlock: KIFKEQ_clean_linker_1, # of connection points: 2
#     Edge 100, Type (0, 1), BuildingBlock: KIFKEQ_clean_linker_1, # of connection points: 2
#     Edge 101, Type (0, 1), BuildingBlock: KIFKEQ_clean_linker_1, # of connection points: 2
#     Edge 102, Type (0, 1), BuildingBlock: KIFKEQ_clean_linker_1, # of connection points: 2
#     Edge 103, Type (0, 1), BuildingBlock: KIFKEQ_clean_linker_1, # of connection points: 2
#     Edge 104, Type (0, 1), BuildingBlock: KIFKEQ_clean_linker_1, # of connection points: 2
#     Edge 105, Type (0, 1), BuildingBlock: KIFKEQ_clean_linker_1, # of connection points: 2
#     Edge 106, Type (0, 1), BuildingBlock: KIFKEQ_clean_linker_1, # of connection points: 2
#     Edge 107, Type (0, 1), BuildingBlock: KIFKEQ_clean_linker_1, # of connection points: 2
#     Edge 108, Type (0, 1), BuildingBlock: KIFKEQ_clean_linker_1, # of connection points: 2
#     Edge 109, Type (0, 1), BuildingBlock: KIFKEQ_clean_linker_1, # of connection points: 2
#     Edge 110, Type (0, 1), BuildingBlock: KIFKEQ_clean_linker_1, # of connection points: 2
#     Edge 111, Type (0, 1), BuildingBlock: KIFKEQ_clean_linker_1, # of connection points: 2
#     Edge 112, Type (0, 1), BuildingBlock: KIFKEQ_clean_linker_1, # of connection points: 2
#     Edge 113, Type (0, 1), BuildingBlock: KIFKEQ_clean_linker_1, # of connection points: 2
#     Edge 114, Type (0, 1), BuildingBlock: KIFKEQ_clean_linker_1, # of connection points: 2
#     Edge 115, Type (0, 1), BuildingBlock: KIFKEQ_clean_linker_1, # of connection points: 2
#     Edge 116, Type (0, 1), BuildingBlock: KIFKEQ_clean_linker_1, # of connection points: 2
#     Edge 117, Type (0, 1), BuildingBlock: KIFKEQ_clean_linker_1, # of connection points: 2
#     Edge 118, Type (0, 1), BuildingBlock: KIFKEQ_clean_linker_1, # of connection points: 2
#     Edge 119, Type (0, 1), BuildingBlock: KIFKEQ_clean_linker_1, # of connection points: 2
#     Edge 120, Type (0, 1), BuildingBlock: KIFKEQ_clean_linker_1, # of connection points: 2
#     Edge 121, Type (0, 1), BuildingBlock: KIFKEQ_clean_linker_1, # of connection points: 2
#     Edge 122, Type (0, 1), BuildingBlock: KIFKEQ_clean_linker_1, # of connection points: 2
#     Edge 123, Type (0, 1), BuildingBlock: KIFKEQ_clean_linker_1, # of connection points: 2
#     Edge 124, Type (0, 1), BuildingBlock: KIFKEQ_clean_linker_1, # of connection points: 2
#     Edge 125, Type (0, 1), BuildingBlock: KIFKEQ_clean_linker_1, # of connection points: 2
#     Edge 126, Type (0, 1), BuildingBlock: KIFKEQ_clean_linker_1, # of connection points: 2
#     Edge 127, Type (0, 1), BuildingBlock: KIFKEQ_clean_linker_1, # of connection points: 2
#     Edge 128, Type (0, 1), BuildingBlock: KIFKEQ_clean_linker_1, # of connection points: 2
#     Edge 129, Type (0, 1), BuildingBlock: KIFKEQ_clean_linker_1, # of connection points: 2
#     Edge 130, Type (0, 1), BuildingBlock: KIFKEQ_clean_linker_1, # of connection points: 2
#     Edge 131, Type (0, 1), BuildingBlock: KIFKEQ_clean_linker_1, # of connection points: 2
#     Edge 132, Type (0, 1), BuildingBlock: KIFKEQ_clean_linker_1, # of connection points: 2
#     Edge 133, Type (0, 1), BuildingBlock: KIFKEQ_clean_linker_1, # of connection points: 2
#     Edge 134, Type (0, 1), BuildingBlock: KIFKEQ_clean_linker_1, # of connection points: 2
#     Edge 135, Type (0, 1), BuildingBlock: KIFKEQ_clean_linker_1, # of connection points: 2
# Relax obj value: 0.127
# Max RMSD: 0.222
# Mean RMSD: 0.145
data_MOF--net-gar--node1-GALJAG_clean_sbu_0--node2-CUKXOW_clean_sbu_0--edge1-KIFKEQ_clean_linker_1
_symmetry_space_group_name_H-M    P1
_symmetry_Int_Tables_number       1
_symmetry_cell_setting            triclinic
loop_
_symmetry_equiv_pos_as_xyz
'x, y, z'
_cell_length_a     56.207131
_cell_length_b     54.646117
_cell_length_c     54.676619
_cell_angle_alpha  93.700006
_cell_angle_beta   95.124217
_cell_angle_gamma 98.61249
loop_
_atom_site_label
_atom_site_type_symbol
_atom_site_fract_x
_atom_site_fract_y
_atom_site_fract_z
_atom_type_partial_charge
In0 In 0.03754 0.27602 0.43559 0.0
O1 O 0.05714 0.25151 0.41133 0.0
O2 O 0.05784 0.28929 0.40377 0.0
C3 C 0.99569 0.27802 0.40817 0.0
C4 C 0.03809 0.23621 0.46151 0.0
C5 C 0.04894 0.31558 0.46925 0.0
O6 O 0.01531 0.29122 0.40492 0.0
O7 O 0.99698 0.26415 0.4256 0.0
O8 O 0.029 0.30136 0.46721 0.0
O9 O 0.0635 0.30984 0.45447 0.0
C10 C 0.06376 0.26855 0.39774 0.0
O11 O 0.05743 0.24984 0.45758 0.0
O12 O 0.01884 0.24272 0.45232 0.0
In13 In 0.00652 0.78858 0.61408 0.0
O14 O 0.99427 0.80873 0.58109 0.0
O15 O 0.01876 0.82923 0.60972 0.0
C16 C 1.00157 0.74786 0.58239 0.0
C17 C 0.04727 0.79033 0.64424 0.0
C18 C 0.97222 0.78888 0.64513 0.0
O19 O 0.98363 0.7563 0.58993 0.0
O20 O 0.02183 0.76011 0.59059 0.0
O21 O 0.97944 0.80752 0.63377 0.0
O22 O 0.98177 0.76991 0.64021 0.0
C23 C 0.00662 0.82933 0.58922 0.0
O24 O 0.04748 0.79664 0.62246 0.0
O25 O 0.02661 0.7828 0.65057 0.0
In26 In 0.53875 0.7787 0.93913 0.0
O27 O 0.54958 0.78205 0.90031 0.0
O28 O 0.57512 0.77181 0.92729 0.0
C29 C 0.49668 0.77681 0.91119 0.0
C30 C 0.53675 0.73788 0.96416 0.0
C31 C 0.54978 0.81955 0.97103 0.0
O32 O 0.50648 0.75783 0.91459 0.0
O33 O 0.50793 0.79676 0.92225 0.0
O34 O 0.5353 0.80075 0.9752 0.0
O35 O 0.55889 0.81766 0.95091 0.0
C36 C 0.57015 0.77603 0.90515 0.0
O37 O 0.55572 0.74755 0.95556 0.0
O38 O 0.51884 0.74904 0.96045 0.0
In39 In 0.50008 0.28843 0.11536 0.0
O40 O 0.50925 0.26521 0.0825 0.0
O41 O 0.48009 0.24992 0.10189 0.0
C42 C 0.50175 0.3299 0.09138 0.0
C43 C 0.46553 0.29294 0.14566 0.0
C44 C 0.5427 0.28659 0.14122 0.0
O45 O 0.49329 0.30872 0.08093 0.0
O46 O 0.50919 0.33006 0.11384 0.0
O47 O 0.52517 0.26905 0.13986 0.0
O48 O 0.53894 0.30462 0.12895 0.0
C49 C 0.49288 0.24713 0.0844 0.0
O50 O 0.48665 0.29008 0.15326 0.0
O51 O 0.4616 0.29309 0.12261 0.0
In52 In 1.00339 0.76936 0.16795 0.0
O53 O 1.00087 0.74658 0.13118 0.0
O54 O 0.99894 0.72671 0.16321 0.0
C55 C 0.00661 0.80885 0.1403 0.0
C56 C 0.96262 0.76849 0.19206 0.0
C57 C 0.04864 0.77473 0.19229 0.0
O58 O 0.99606 0.78748 0.13224 0.0
O59 O 0.01555 0.81046 0.16249 0.0
O60 O 0.03247 0.78633 0.19967 0.0
O61 O 0.04194 0.76067 0.17297 0.0
C62 C 0.99916 0.72576 0.14008 0.0
O63 O 0.98076 0.75943 0.20039 0.0
O64 O 0.96503 0.77777 0.17182 0.0
In65 In 0.53521 0.79576 0.37823 0.0
O66 O 0.55428 0.78459 0.34451 0.0
O67 O 0.57557 0.80675 0.37406 0.0
C68 C 0.4944 0.79272 0.34666 0.0
C69 C 0.53444 0.75784 0.40807 0.0
C70 C 0.53436 0.83665 0.40879 0.0
O71 O 0.50413 0.77403 0.35162 0.0
O72 O 0.50596 0.81308 0.35651 0.0
O73 O 0.52439 0.81524 0.41276 0.0
O74 O 0.54496 0.83758 0.38939 0.0
C75 C 0.57504 0.79543 0.35316 0.0
O76 O 0.55382 0.77093 0.40377 0.0
O77 O 0.51565 0.76376 0.39726 0.0
In78 In 0.50036 0.26908 0.67094 0.0
O79 O 0.51707 0.24753 0.64167 0.0
O80 O 0.4886 0.22755 0.65866 0.0
C81 C 0.49679 0.30807 0.64355 0.0
C82 C 0.45889 0.26753 0.69345 0.0
C83 C 0.54339 0.27651 0.69967 0.0
O84 O 0.49516 0.28613 0.6341 0.0
O85 O 0.49996 0.31028 0.66678 0.0
O86 O 0.52663 0.259 0.70233 0.0
O87 O 0.53814 0.29043 0.68319 0.0
C88 C 0.50375 0.22708 0.643 0.0
O89 O 0.47963 0.27163 0.70528 0.0
O90 O 0.45909 0.26369 0.67049 0.0
In91 In 0.03135 0.2936 0.87954 0.0
O92 O 0.01395 0.26915 0.90757 0.0
O93 O 0.04742 0.26159 0.89622 0.0
C94 C 0.03432 0.33621 0.90869 0.0
C95 C 0.07097 0.29581 0.85394 0.0
C96 C 0.98828 0.28715 0.8509 0.0
O97 O 0.03449 0.31532 0.91717 0.0
O98 O 0.03304 0.33572 0.8855 0.0
O99 O 0.99893 0.26921 0.85643 0.0
O100 O 0.99965 0.30812 0.85912 0.0
C101 C 0.03057 0.25602 0.90961 0.0
O102 O 0.05014 0.28581 0.84466 0.0
O103 O 0.07169 0.30489 0.8758 0.0
In104 In 0.41115 0.07413 0.26276 0.0
O105 O 0.43016 0.09048 0.23017 0.0
O106 O 0.43294 0.05332 0.23683 0.0
C107 C 0.43569 0.07955 0.30878 0.0
C108 C 0.38262 0.11035 0.26055 0.0
C109 C 0.3821 0.0297 0.26156 0.0
O110 O 0.44644 0.07822 0.28949 0.0
O111 O 0.41327 0.07935 0.30465 0.0
O112 O 0.38141 0.04343 0.24387 0.0
O113 O 0.39755 0.0382 0.27935 0.0
C114 C 0.43792 0.07088 0.22337 0.0
O115 O 0.37462 0.08752 0.25632 0.0
O116 O 0.40533 0.11524 0.26533 0.0
In117 In 0.27393 0.14378 0.49527 0.0
O118 O 0.28651 0.17974 0.51966 0.0
O119 O 0.25812 0.15372 0.53048 0.0
C120 C 0.28367 0.17147 0.45752 0.0
C121 C 0.3053 0.1127 0.50655 0.0
C122 C 0.22953 0.11783 0.48373 0.0
O123 O 0.29819 0.17296 0.47673 0.0
O124 O 0.26506 0.1554 0.45712 0.0
O125 O 0.24818 0.10747 0.48539 0.0
O126 O 0.23343 0.14118 0.48756 0.0
C127 C 0.27162 0.17437 0.53516 0.0
O128 O 0.29998 0.11757 0.48468 0.0
O129 O 0.29508 0.12375 0.52253 0.0
In130 In 0.16193 0.00623 0.79971 0.0
O131 O 0.12626 0.0035 0.77588 0.0
O132 O 0.15776 0.99983 0.75787 0.0
C133 C 0.13767 0.00363 0.84057 0.0
C134 C 0.18899 0.96906 0.79861 0.0
C135 C 0.18284 0.05387 0.79678 0.0
O136 O 0.13245 0.98817 0.82214 0.0
O137 O 0.15553 0.02009 0.83877 0.0
O138 O 0.19381 0.0384 0.80759 0.0
O139 O 0.16156 0.04533 0.78777 0.0
C140 C 0.13521 0.99996 0.75581 0.0
O141 O 0.19811 0.99128 0.80523 0.0
O142 O 0.16646 0.96569 0.79322 0.0
In143 In 0.23102 0.89628 0.03496 0.0
O144 O 0.22062 0.86299 0.05838 0.0
O145 O 0.24592 0.89326 0.07509 0.0
C146 C 0.22701 0.86873 0.99062 0.0
C147 C 0.19412 0.92425 0.03508 0.0
C148 C 0.27623 0.92211 0.03408 0.0
O149 O 0.23404 0.86081 0.01079 0.0
O150 O 0.2208 0.88997 0.99292 0.0
O151 O 0.26132 0.92912 0.04792 0.0
O152 O 0.26839 0.90226 0.02097 0.0
C153 C 0.23444 0.87202 0.07734 0.0
O154 O 0.21522 0.93238 0.03025 0.0
O155 O 0.19128 0.90174 0.03984 0.0
In156 In 0.26232 0.4152 0.05128 0.0
O157 O 0.23569 0.38765 0.06894 0.0
O158 O 0.26935 0.40184 0.08933 0.0
C159 C 0.26371 0.38275 0.01243 0.0
C160 C 0.2331 0.44832 0.03992 0.0
C161 C 0.30693 0.44093 0.06245 0.0
O162 O 0.24583 0.38186 0.02485 0.0
O163 O 0.28067 0.40031 0.01927 0.0
O164 O 0.28852 0.45145 0.05894 0.0
O165 O 0.30268 0.4175 0.06091 0.0
C166 C 0.24962 0.38724 0.0882 0.0
O167 O 0.23818 0.44329 0.06181 0.0
O168 O 0.24272 0.43661 0.02387 0.0
In169 In 0.81153 0.16942 0.0164 0.0
O170 O 0.82735 0.13304 0.01895 0.0
O171 O 0.85184 0.16474 0.01308 0.0
C172 C 0.76529 0.14618 0.01514 0.0
C173 C 0.81435 0.19241 0.06298 0.0
C174 C 0.80711 0.19363 0.97396 0.0
O175 O 0.78149 0.13612 1.00563 0.0
O176 O 0.77228 0.16805 0.02459 0.0
O177 O 0.81968 0.20361 0.99336 0.0
O178 O 0.79743 0.1716 0.97584 0.0
C179 C 0.8488 0.14178 0.01593 0.0
O180 O 0.81851 0.20441 0.04439 0.0
O181 O 0.81014 0.16922 0.05818 0.0
In182 In 0.12583 0.49125 0.29002 0.0
O183 O 0.16072 0.47565 0.29885 0.0
O184 O 0.12881 0.44946 0.2895 0.0
C185 C 0.15341 0.53599 0.28763 0.0
C186 C 0.10121 0.48843 0.24409 0.0
C187 C 0.10332 0.49238 0.33237 0.0
O188 O 0.16148 0.51578 0.28497 0.0
O189 O 0.13143 0.53369 0.29149 0.0
O190 O 0.09359 0.48006 0.31273 0.0
O191 O 0.12436 0.50349 0.33075 0.0
C192 C 0.15144 0.45309 0.29527 0.0
O193 O 0.094 0.49826 0.26299 0.0
O194 O 0.12024 0.4792 0.24844 0.0
In195 In 0.76196 0.92073 0.55535 0.0
O196 O 0.74278 0.88365 0.56491 0.0
O197 O 0.75397 0.91129 0.59437 0.0
C198 C 0.76285 0.89253 0.5136 0.0
C199 C 0.73305 0.95423 0.54483 0.0
C200 C 0.80692 0.94567 0.56824 0.0
O201 O 0.74374 0.89918 0.52031 0.0
O202 O 0.78175 0.90033 0.52791 0.0
O203 O 0.78935 0.9561 0.56101 0.0
O204 O 0.80173 0.92258 0.56971 0.0
C205 C 0.74378 0.88942 0.58763 0.0
O206 O 0.73511 0.94596 0.56584 0.0
O207 O 0.74556 0.94559 0.52935 0.0
In208 In 0.87575 0.05507 0.24651 0.0
O209 O 0.90684 0.07305 0.22643 0.0
O210 O 0.88295 0.0426 0.20744 0.0
C211 C 0.90377 0.06446 0.28979 0.0
C212 C 0.84632 0.09016 0.24622 0.0
C213 C 0.85596 0.00669 0.24677 0.0
O214 O 0.91172 0.05767 0.27002 0.0
O215 O 0.88169 0.06667 0.28773 0.0
O216 O 0.84672 0.02127 0.23303 0.0
O217 O 0.87497 0.0165 0.25992 0.0
C218 C 0.90162 0.0586 0.20716 0.0
O219 O 0.84074 0.06944 0.25479 0.0
O220 O 0.86617 0.09274 0.23695 0.0
In221 In 0.30861 0.67087 0.5158 0.0
O222 O 0.32506 0.63533 0.52095 0.0
O223 O 0.34829 0.66583 0.50994 0.0
C224 C 0.26282 0.64589 0.51486 0.0
C225 C 0.31239 0.69704 0.56114 0.0
C226 C 0.30681 0.6933 0.47226 0.0
O227 O 0.28075 0.63509 0.51163 0.0
O228 O 0.26789 0.6692 0.51818 0.0
O229 O 0.31921 0.70341 0.49171 0.0
O230 O 0.29613 0.67167 0.47451 0.0
C231 C 0.3459 0.64353 0.51544 0.0
O232 O 0.30753 0.70638 0.54116 0.0
O233 O 0.3165 0.67507 0.55825 0.0
In234 In 0.37502 0.5545 0.74672 0.0
O235 O 0.34143 0.57241 0.7349 0.0
O236 O 0.36842 0.59208 0.76162 0.0
C237 C 0.34475 0.51171 0.75133 0.0
C238 C 0.40232 0.55777 0.70798 0.0
C239 C 0.40774 0.55843 0.78655 0.0
O240 O 0.34556 0.5218 0.73123 0.0
O241 O 0.35836 0.52366 0.76902 0.0
O242 O 0.40798 0.5431 0.76831 0.0
O243 O 0.39125 0.57163 0.78453 0.0
C244 C 0.34832 0.59169 0.74935 0.0
O245 O 0.39658 0.57658 0.71912 0.0
O246 O 0.39392 0.53752 0.71599 0.0
In247 In 0.62482 0.98662 0.78629 0.0
O248 O 0.65178 0.96481 0.76954 0.0
O249 O 0.63682 0.95111 0.80118 0.0
C250 C 0.65426 0.03066 0.78504 0.0
C251 C 0.59513 0.98264 0.74318 0.0
C252 C 0.60319 0.98878 0.82911 0.0
O253 O 0.66224 0.01142 0.79143 0.0
O254 O 0.63175 0.02764 0.77952 0.0
O255 O 0.59409 0.97413 0.81063 0.0
O256 O 0.62321 1.00151 0.82611 0.0
C257 C 0.65095 0.94843 0.7848 0.0
O258 O 0.59343 0.99757 0.76125 0.0
O259 O 0.61054 0.96854 0.74742 0.0
In260 In 0.77516 0.64352 0.99179 0.0
O261 O 0.80318 0.61906 0.98249 0.0
O262 O 0.796 0.62385 0.01981 0.0
C263 C 0.73087 0.61749 0.97807 0.0
C264 C 0.77183 0.67136 0.03303 0.0
C265 C 0.78968 0.67429 0.95763 0.0
O266 O 0.74857 0.60754 0.98593 0.0
O267 O 0.73569 0.64055 0.97626 0.0
O268 O 0.78721 0.68175 0.97936 0.0
O269 O 0.78477 0.65108 0.9529 0.0
C270 C 0.80761 0.61383 1.00439 0.0
O271 O 0.79069 0.67358 0.02191 0.0
O272 O 0.75469 0.65502 0.02336 0.0
In273 In 0.90837 0.56861 0.76306 0.0
O274 O 0.8741 0.58444 0.77065 0.0
O275 O 0.90056 0.60784 0.75421 0.0
C276 C 0.87914 0.52446 0.76386 0.0
C277 C 0.93292 0.5659 0.722 0.0
C278 C 0.9366 0.5728 0.807 0.0
O279 O 0.87597 0.53933 0.74759 0.0
O280 O 0.89713 0.53169 0.77944 0.0
O281 O 0.93938 0.5583 0.78891 0.0
O282 O 0.92039 0.58605 0.80259 0.0
C283 C 0.87999 0.60514 0.76222 0.0
O284 O 0.94088 0.58061 0.74071 0.0
O285 O 0.9128 0.55295 0.72399 0.0
In286 In 0.72885 0.39374 0.53648 0.0
O287 O 0.7243 0.35739 0.55672 0.0
O288 O 0.73489 0.3912 0.57854 0.0
C289 C 0.72886 0.37135 0.48993 0.0
C290 C 0.69142 0.42112 0.53765 0.0
C291 C 0.77474 0.41846 0.53933 0.0
O292 O 0.71755 0.36073 0.50629 0.0
O293 O 0.73923 0.39304 0.49683 0.0
O294 O 0.75643 0.42845 0.53334 0.0
O295 O 0.76992 0.39604 0.54408 0.0
C296 C 0.73043 0.36787 0.5781 0.0
O297 O 0.71279 0.42902 0.54666 0.0
O298 O 0.68849 0.39903 0.52826 0.0
In299 In 0.66046 0.50748 0.30287 0.0
O300 O 0.69549 0.49076 0.31007 0.0
O301 O 0.66417 0.46736 0.2928 0.0
C302 C 0.68863 0.55239 0.30256 0.0
C303 C 0.63213 0.50598 0.26026 0.0
C304 C 0.63122 0.50146 0.33978 0.0
O305 O 0.67878 0.54551 0.32135 0.0
O306 O 0.68503 0.53635 0.28447 0.0
O307 O 0.62372 0.50458 0.31803 0.0
O308 O 0.65369 0.50139 0.34321 0.0
C309 C 0.68623 0.46945 0.30044 0.0
O310 O 0.6349 0.52414 0.27631 0.0
O311 O 0.64353 0.48859 0.26579 0.0
Tb312 Tb 0.02853 0.06085 0.02074 0.0
C313 C 0.0338 0.02019 0.97923 0.0
Tb314 Tb 0.01491 0.00577 0.03024 0.0
O315 O 0.06639 0.05614 0.01867 0.0
O316 O 0.04476 0.03411 0.04027 0.0
O317 O 0.03014 0.04334 0.98429 0.0
C318 C 0.01619 0.9595 0.04283 0.0
O319 O 0.03031 1.0027 0.99495 0.0
C320 C 0.97825 0.02952 0.01909 0.0
C321 C 0.00961 0.04634 0.07174 0.0
O322 O 0.99911 0.9662 0.02831 0.0
O323 O 0.03244 0.97868 0.04968 0.0
O324 O 0.97704 0.01054 0.03234 0.0
O325 O 0.99868 0.0325 0.01076 0.0
O326 O 0.01342 0.02325 0.06668 0.0
O327 O 0.01305 0.06384 0.05603 0.0
C328 C 0.02717 0.10724 0.00857 0.0
O329 O 0.04434 0.10043 0.02288 0.0
O330 O 0.01093 0.08809 1.00162 0.0
C331 C 0.06519 0.03718 0.03193 0.0
Tb332 Tb 0.27559 0.81241 0.27977 0.0
C333 C 0.31894 0.78037 0.28066 0.0
Tb334 Tb 0.2648 0.75221 0.26898 0.0
O335 O 0.28025 0.81171 0.3207 0.0
O336 O 0.27161 0.77997 0.29805 0.0
O337 O 0.31168 0.80231 0.27808 0.0
C338 C 0.24961 0.70543 0.27785 0.0
O339 O 0.30387 0.75889 0.27997 0.0
C340 C 0.26449 0.77695 0.22843 0.0
C341 C 0.22142 0.78439 0.26674 0.0
O342 O 0.26483 0.7122 0.26198 0.0
O343 O 0.2434 0.72498 0.28877 0.0
O344 O 0.26111 0.75278 0.22805 0.0
O345 O 0.26856 0.78462 0.25075 0.0
O346 O 0.22862 0.76239 0.26909 0.0
O347 O 0.23655 0.80591 0.26854 0.0
C348 C 0.2891 0.85964 0.2713 0.0
O349 O 0.27437 0.8521 0.28734 0.0
O350 O 0.29601 0.84062 0.26012 0.0
C351 C 0.27646 0.78754 0.32034 0.0
Tb352 Tb 0.54454 0.03747 0.51959 0.0
C353 C 0.5318 0.0157 0.57101 0.0
Tb354 Tb 0.49289 0.0268 0.53081 0.0
O355 O 0.54329 0.07736 0.52163 0.0
O356 O 0.52287 0.05407 0.54342 0.0
O357 O 0.54757 0.01876 0.55421 0.0
C358 C 0.44774 0.03102 0.5391 0.0
O359 O 0.50933 0.02021 0.56673 0.0
C360 C 0.51054 0.98834 0.51333 0.0
C361 C 0.50553 0.04875 0.47963 0.0
O362 O 0.45396 0.01382 0.52467 0.0
O363 O 0.46694 0.04569 0.54894 0.0
O364 O 0.49421 0.98689 0.5288 0.0
O365 O 0.51455 0.01021 0.50703 0.0
O366 O 0.49006 0.04625 0.49673 0.0
O367 O 0.52782 0.0436 0.48352 0.0
C368 C 0.58984 0.03361 0.51149 0.0
O369 O 0.58332 0.05131 0.52502 0.0
O370 O 0.57083 0.01817 0.50243 0.0
C371 C 0.52704 0.07597 0.53719 0.0
Tb372 Tb 0.27007 0.28821 0.8011 0.0
C373 C 0.27521 0.33279 0.76668 0.0
Tb374 Tb 0.25843 0.2775 0.74357 0.0
O375 O 0.30846 0.2984 0.79691 0.0
O376 O 0.28639 0.27301 0.77112 0.0
O377 O 0.27162 0.3257 0.78908 0.0
C378 C 0.26166 0.26612 0.6963 0.0
O379 O 0.27347 0.31691 0.74686 0.0
C380 C 0.22056 0.28826 0.76547 0.0
C381 C 0.25066 0.23302 0.77814 0.0
O382 O 0.27899 0.27879 0.71138 0.0
O383 O 0.2428 0.25982 0.70787 0.0
O384 O 0.22024 0.28436 0.74174 0.0
O385 O 0.24157 0.28674 0.77413 0.0
O386 O 0.25398 0.23987 0.75558 0.0
O387 O 0.25414 0.24894 0.7981 0.0
C388 C 0.26611 0.29592 0.84878 0.0
O389 O 0.25308 0.30399 0.83122 0.0
O390 O 0.28173 0.28357 0.83959 0.0
C391 C 0.30729 0.28553 0.77585 0.0
Tb392 Tb 0.00573 0.03414 0.49744 0.0
C393 C 0.9735 0.01992 0.53928 0.0
Tb394 Tb 0.03089 0.02761 0.5484 0.0
O395 O 0.99014 0.99469 0.49325 0.0
O396 O 0.02333 0.00702 0.51389 0.0
O397 O 0.97471 0.03128 0.51857 0.0
C398 C 0.04651 0.01332 0.59181 0.0
O399 O 0.99285 0.01404 0.55196 0.0
C400 C 0.02999 0.07348 0.53815 0.0
C401 C 0.06311 0.04097 0.50642 0.0
O402 O 0.03499 0.03188 0.58854 0.0
O403 O 0.04928 1.00265 0.57056 0.0
O404 O 0.04686 0.06681 0.55284 0.0
O405 O 0.01372 0.05513 0.53183 0.0
O406 O 0.06175 0.02973 0.52717 0.0
O407 O 0.04389 0.04719 0.49377 0.0
C408 C 0.99032 0.04837 0.45389 0.0
O409 O 0.98771 0.05923 0.47509 0.0
O410 O 1.00151 0.0296 0.45727 0.0
C411 C 0.00746 0.98842 0.50765 0.0
Tb412 Tb 0.29824 0.78435 0.78768 0.0
C413 C 0.25917 0.79468 0.82347 0.0
Tb414 Tb 0.24552 0.7812 0.76577 0.0
O415 O 0.30122 0.82403 0.79815 0.0
O416 O 0.27746 0.8075 0.76828 0.0
O417 O 0.28057 0.78749 0.82161 0.0
C418 C 0.2019 0.78983 0.74935 0.0
O419 O 0.24363 0.79559 0.80386 0.0
C420 C 0.25976 0.7381 0.7709 0.0
C421 C 0.28421 0.77103 0.72974 0.0
O422 O 0.2222 0.80237 0.74462 0.0
O423 O 0.20612 0.77238 0.76339 0.0
O424 O 0.24187 0.74133 0.75538 0.0
O425 O 0.26651 0.75789 0.78462 0.0
O426 O 0.26283 0.77828 0.73169 0.0
O427 O 0.29986 0.77003 0.74933 0.0
C428 C 0.34163 0.77659 0.80604 0.0
O429 O 0.3377 0.79129 0.78889 0.0
O430 O 0.32119 0.76619 0.81268 0.0
C431 C 0.28388 0.82727 0.782 0.0
Tb432 Tb 0.49486 0.02105 0.02251 0.0
C433 C 0.53423 0.98748 0.03326 0.0
Tb434 Tb 0.54783 0.04554 0.02989 0.0
O435 O 0.49998 0.9999 0.98856 0.0
O436 O 0.52187 0.03388 0.99914 0.0
O437 O 0.51133 0.99005 0.03502 0.0
C438 C 0.59466 0.06205 0.02642 0.0
O439 O 0.55096 0.00615 0.0289 0.0
C440 C 0.52324 0.05088 0.06829 0.0
C441 C 0.50864 0.07914 0.01908 0.0
O442 O 0.58575 0.05359 0.04589 0.0
O443 O 0.57725 0.06113 0.00902 0.0
O444 O 0.54152 0.0667 0.06349 0.0
O445 O 0.52107 0.03204 0.05313 0.0
O446 O 0.53145 0.07643 0.01721 0.0
O447 O 0.49187 0.06052 0.02338 0.0
C448 C 0.4478 0.00569 0.02604 0.0
O449 O 0.45713 0.01254 0.00623 0.0
O450 O 0.46497 0.00761 0.04389 0.0
C451 C 0.51907 0.01479 0.98411 0.0
Tb452 Tb 0.23554 0.26635 0.27436 0.0
C453 C 0.27624 0.27631 0.31863 0.0
Tb454 Tb 0.28703 0.29007 0.26638 0.0
O455 O 0.2476 0.23148 0.28414 0.0
O456 O 0.26634 0.25416 0.26079 0.0
O457 O 0.2531 0.27656 0.31155 0.0
C458 C 0.33082 0.30057 0.2515 0.0
O459 O 0.2929 0.27799 0.30299 0.0
C460 C 0.25858 0.32056 0.2825 0.0
C461 C 0.24684 0.27678 0.22054 0.0
O462 O 0.32389 0.2825 0.2648 0.0
O463 O 0.31318 0.31296 0.24687 0.0
O464 O 0.28191 0.32437 0.28771 0.0
O465 O 0.2531 0.30169 0.26766 0.0
O466 O 0.27022 0.28224 0.22861 0.0
O467 O 0.22955 0.27104 0.23521 0.0
C468 C 0.19025 0.26399 0.28499 0.0
O469 O 0.19827 0.24655 0.27218 0.0
O470 O 0.20763 0.28224 0.29158 0.0
C471 C 0.26696 0.23521 0.27266 0.0
Tb472 Tb 0.50739 0.53408 0.99727 0.0
C473 C 0.47384 0.51852 0.03762 0.0
Tb474 Tb 0.53095 0.52872 0.04925 0.0
O475 O 0.49359 0.49426 0.99227 0.0
O476 O 0.52532 0.5077 0.01487 0.0
O477 O 0.47551 0.53015 0.01712 0.0
C478 C 0.54558 0.51547 0.09348 0.0
O479 O 0.49304 0.5131 0.05093 0.0
C480 C 0.52831 0.57424 0.03873 0.0
C481 C 0.5644 0.54456 0.00882 0.0
O482 O 0.53118 0.53148 0.08927 0.0
O483 O 0.55177 0.50675 0.07272 0.0
O484 O 0.54483 0.56843 0.05444 0.0
O485 O 0.51314 0.55522 0.03164 0.0
O486 O 0.56285 0.53292 0.02934 0.0
O487 O 0.54515 0.54997 0.99561 0.0
C488 C 0.49309 0.54735 0.95296 0.0
O489 O 0.50806 0.53192 0.95733 0.0
O490 O 0.4861 0.55541 0.97358 0.0
C491 C 0.51028 0.4886 0.00787 0.0
Tb492 Tb 0.7958 0.28453 0.28572 0.0
C493 C 0.7571 0.29407 0.32265 0.0
Tb494 Tb 0.7415 0.27748 0.26554 0.0
O495 O 0.79785 0.3247 0.2934 0.0
O496 O 0.77213 0.30511 0.26671 0.0
O497 O 0.7792 0.28891 0.3201 0.0
C498 C 0.69854 0.28483 0.24563 0.0
O499 O 0.74011 0.29243 0.30372 0.0
C500 C 0.75821 0.23597 0.27226 0.0
C501 C 0.78056 0.26739 0.22887 0.0
O502 O 0.70193 0.27129 0.26395 0.0
O503 O 0.71923 0.29438 0.2389 0.0
O504 O 0.73851 0.23723 0.25841 0.0
O505 O 0.76511 0.25675 0.28427 0.0
O506 O 0.75822 0.27193 0.23128 0.0
O507 O 0.7976 0.26967 0.24777 0.0
C508 C 0.83969 0.27861 0.3041 0.0
O509 O 0.83518 0.29367 0.28745 0.0
O510 O 0.81958 0.2669 0.31027 0.0
C511 C 0.77856 0.32583 0.27887 0.0
Tb512 Tb 0.9933 0.5172 0.52543 0.0
C513 C 0.03344 0.48395 0.53253 0.0
Tb514 Tb 0.04624 0.54231 0.53063 0.0
O515 O 0.99784 0.49674 0.49077 0.0
O516 O 0.0188 0.53121 0.50113 0.0
O517 O 0.01086 0.48634 0.5362 0.0
C518 C 0.09256 0.55945 0.52514 0.0
O519 O 0.04957 0.50286 0.52749 0.0
C520 C 0.02338 0.54673 0.57043 0.0
C521 C 0.00612 0.57531 0.52253 0.0
O522 O 0.08497 0.5482 0.54386 0.0
O523 O 0.07411 0.56081 0.50956 0.0
O524 O 0.04135 0.56277 0.56528 0.0
O525 O 0.02076 0.52821 0.55486 0.0
O526 O 0.02862 0.57277 0.51883 0.0
O527 O 0.99009 0.55668 0.52827 0.0
C528 C 0.94682 0.50077 0.53066 0.0
O529 O 0.95484 0.51063 0.51141 0.0
O530 O 0.96495 0.50033 0.54697 0.0
C531 C 0.0159 0.51263 0.48558 0.0
Tb532 Tb 0.77513 0.78704 0.30414 0.0
C533 C 0.78539 0.82849 0.26642 0.0
Tb534 Tb 0.7643 0.77299 0.24537 0.0
O535 O 0.81454 0.78493 0.30582 0.0
O536 O 0.79256 0.77819 0.27359 0.0
O537 O 0.78093 0.82327 0.2892 0.0
C538 C 0.76928 0.75596 0.19998 0.0
O539 O 0.78282 0.81141 0.24738 0.0
C540 C 0.72528 0.78099 0.26697 0.0
C541 C 0.75631 0.73139 0.28343 0.0
O542 O 0.76334 0.77752 0.20585 0.0
O543 O 0.77254 0.74424 0.21959 0.0
O544 O 0.72508 0.77581 0.24336 0.0
O545 O 0.74666 0.78142 0.27587 0.0
O546 O 0.76097 0.73679 0.26074 0.0
O547 O 0.75768 0.7484 0.3023 0.0
C548 C 0.76868 0.80331 0.34929 0.0
O549 O 0.78022 0.78504 0.34398 0.0
O550 O 0.76084 0.81231 0.32924 0.0
C551 C 0.81408 0.7792 0.28225 0.0
Tb552 Tb 0.77238 0.30673 0.77833 0.0
C553 C 0.81423 0.27442 0.78057 0.0
Tb554 Tb 0.75898 0.24993 0.77144 0.0
O555 O 0.78761 0.30583 0.81659 0.0
O556 O 0.76063 0.27757 0.80072 0.0
O557 O 0.8079 0.2961 0.77527 0.0
C558 C 0.7465 0.20199 0.77865 0.0
O559 O 0.79805 0.25432 0.78235 0.0
C560 C 0.75644 0.27291 0.73041 0.0
C561 C 0.71698 0.28228 0.76932 0.0
O562 O 0.76046 0.21032 0.76227 0.0
O563 O 0.74002 0.22059 0.79083 0.0
O564 O 0.74406 0.25139 0.73312 0.0
O565 O 0.77143 0.27893 0.74925 0.0
O566 O 0.72335 0.2604 0.77348 0.0
O567 O 0.73312 0.30266 0.76875 0.0
C568 C 0.78318 0.35516 0.77212 0.0
O569 O 0.78539 0.3371 0.75637 0.0
O570 O 0.77443 0.34597 0.79137 0.0
C571 C 0.77589 0.28402 0.81935 0.0
Tb572 Tb 0.73901 0.76628 0.77511 0.0
C573 C 0.78308 0.77225 0.81458 0.0
Tb574 Tb 0.7893 0.78534 0.76022 0.0
O575 O 0.74693 0.72827 0.77774 0.0
O576 O 0.76496 0.75184 0.75488 0.0
O577 O 0.76005 0.77511 0.8107 0.0
C578 C 0.83301 0.7868 0.74518 0.0
O579 O 0.79746 0.77276 0.79663 0.0
C580 C 0.76324 0.81999 0.77059 0.0
C581 C 0.74433 0.78089 0.72067 0.0
O582 O 0.82742 0.80245 0.76185 0.0
O583 O 0.81413 0.77085 0.73707 0.0
O584 O 0.78024 0.82244 0.75588 0.0
O585 O 0.76358 0.79997 0.78089 0.0
O586 O 0.76817 0.7827 0.72469 0.0
O587 O 0.72946 0.77559 0.73775 0.0
C588 C 0.69418 0.76132 0.78835 0.0
O589 O 0.70891 0.74541 0.79125 0.0
O590 O 0.70459 0.77996 0.77769 0.0
C591 C 0.7649 0.73145 0.76442 0.0
Tb592 Tb 0.52751 0.56012 0.51908 0.0
C593 C 0.53094 0.51547 0.48081 0.0
Tb594 Tb 0.51083 0.50576 0.532 0.0
O595 O 0.5656 0.5549 0.51893 0.0
O596 O 0.54242 0.53269 0.53872 0.0
O597 O 0.52778 0.53902 0.48401 0.0
C598 C 0.50879 0.46122 0.54972 0.0
O599 O 0.52757 0.49949 0.49799 0.0
C600 C 0.4754 0.53099 0.51969 0.0
C601 C 0.50829 0.55014 0.57073 0.0
O602 O 0.49816 0.46539 0.52857 0.0
O603 O 0.52045 0.48191 0.56043 0.0
O604 O 0.47262 0.51111 0.53156 0.0
O605 O 0.49619 0.53316 0.51229 0.0
O606 O 0.51139 0.52663 0.56724 0.0
O607 O 0.5115 0.56624 0.55365 0.0
C608 C 0.52806 0.6046 0.50149 0.0
O609 O 0.54039 0.60041 0.5217 0.0
O610 O 0.51553 0.58393 0.49161 0.0
C611 C 0.56311 0.53504 0.53091 0.0
Tb612 Tb 0.0462 0.53701 0.01932 0.0
C613 C 0.03415 0.51558 0.0711 0.0
Tb614 Tb 0.9944 0.52627 0.03132 0.0
O615 O 0.04532 0.57702 0.02208 0.0
O616 O 0.02466 0.55337 0.04337 0.0
O617 O 0.0497 0.51884 0.05412 0.0
C618 C 0.94948 0.53136 0.03999 0.0
O619 O 0.01146 0.51962 0.06707 0.0
C620 C 0.01175 0.48782 0.01353 0.0
C621 C 0.00645 0.54766 0.97951 0.0
O622 O 0.95539 0.5133 0.02643 0.0
O623 O 0.96887 0.54632 0.04878 0.0
O624 O 0.99534 0.48635 0.02895 0.0
O625 O 0.01592 0.50977 0.00739 0.0
O626 O 0.99096 0.54457 0.99656 0.0
O627 O 0.02911 0.54354 0.98354 0.0
C628 C 0.09097 0.53148 0.01031 0.0
O629 O 0.0853 0.54977 0.02374 0.0
O630 O 0.07144 0.51654 1.00187 0.0
C631 C 0.02891 0.57538 0.0375 0.0
H632 H 0.99538 0.23968 0.93868 0.0
H633 H 0.06552 0.22716 0.91891 0.0
H634 H 0.9948 0.20606 0.96606 0.0
H635 H 0.06484 0.19336 0.94609 0.0
H636 H 0.06458 0.14602 0.0116 0.0
H637 H 0.06575 0.18406 0.98995 0.0
H638 H 0.99125 0.16074 0.96061 0.0
H639 H 0.99011 0.12309 0.9823 0.0
C640 C 0.01068 0.22977 0.94021 0.0
C641 C 0.03042 0.23594 0.92652 0.0
C642 C 0.01034 0.21049 0.95586 0.0
C643 C 0.02977 0.19703 0.95826 0.0
C644 C 0.04972 0.20356 0.94491 0.0
C645 C 0.05002 0.22278 0.92917 0.0
C646 C 0.04839 0.14933 1.00086 0.0
C647 C 0.02729 0.13166 0.99853 0.0
C648 C 0.04909 0.17095 0.98831 0.0
C649 C 0.02863 0.17534 0.97344 0.0
C650 C 0.00725 0.15807 0.97207 0.0
C651 C 0.00662 0.13644 0.98441 0.0
H652 H 0.07038 0.80831 0.23041 0.0
H653 H 0.08317 0.74657 0.18264 0.0
H654 H 0.11169 0.81177 0.25069 0.0
H655 H 0.12406 0.74998 0.20277 0.0
H656 H 0.18527 0.74432 0.26008 0.0
H657 H 0.1434 0.74299 0.24394 0.0
H658 H 0.15552 0.82251 0.24056 0.0
H659 H 0.19781 0.82402 0.25682 0.0
C660 C 0.08196 0.79547 0.22429 0.0
C661 C 0.07347 0.77712 0.20497 0.0
C662 C 0.10563 0.79753 0.23581 0.0
C663 C 0.12111 0.78104 0.22846 0.0
C664 C 0.11252 0.76275 0.20914 0.0
C665 C 0.08908 0.76088 0.1975 0.0
C666 C 0.17913 0.76166 0.25618 0.0
C667 C 0.19516 0.78429 0.25964 0.0
C668 C 0.15505 0.76082 0.24677 0.0
C669 C 0.14617 0.78259 0.24067 0.0
C670 C 0.16179 0.80541 0.24515 0.0
C671 C 0.18606 0.80625 0.25443 0.0
H672 H 0.50344 0.84087 0.44378 0.0
H673 H 0.56206 0.88253 0.41086 0.0
H674 H 0.49959 0.87757 0.4697 0.0
H675 H 0.55929 0.91914 0.43785 0.0
H676 H 0.5289 0.98674 0.46888 0.0
H677 H 0.53604 0.95021 0.44442 0.0
H678 H 0.51582 0.9046 0.50335 0.0
H679 H 0.50734 0.94111 0.52704 0.0
C680 C 0.51577 0.85785 0.44237 0.0
C681 C 0.53299 0.85886 0.42524 0.0
C682 C 0.51373 0.87894 0.45743 0.0
C683 C 0.52918 0.90152 0.45609 0.0
C684 C 0.54675 0.90231 0.43919 0.0
C685 C 0.54848 0.88128 0.42379 0.0
C686 C 0.52615 0.96889 0.47661 0.0
C687 C 0.51735 0.96665 0.49973 0.0
C688 C 0.53039 0.94789 0.46265 0.0
C689 C 0.52633 0.92421 0.47169 0.0
C690 C 0.51854 0.92231 0.49539 0.0
C691 C 0.51387 0.94326 0.50913 0.0
H692 H 0.41261 0.26144 0.67115 0.0
H693 H 0.45383 0.27575 0.74247 0.0
H694 H 0.37557 0.26545 0.69021 0.0
H695 H 0.41678 0.27922 0.76164 0.0
H696 H 0.35211 0.3126 0.78459 0.0
H697 H 0.38813 0.30741 0.76442 0.0
H698 H 0.347 0.24655 0.71686 0.0
H699 H 0.31072 0.2521 0.73701 0.0
C700 C 0.41373 0.2652 0.69095 0.0
C701 C 0.4362 0.26837 0.70529 0.0
C702 C 0.39245 0.26739 0.7019 0.0
C703 C 0.39311 0.27284 0.72749 0.0
C704 C 0.41558 0.27547 0.74184 0.0
C705 C 0.43684 0.2733 0.73088 0.0
C706 C 0.35073 0.29816 0.76977 0.0
C707 C 0.3286 0.28276 0.76239 0.0
C708 C 0.37146 0.29504 0.75831 0.0
C709 C 0.37065 0.27637 0.73915 0.0
C710 C 0.34831 0.26123 0.73143 0.0
C711 C 0.32751 0.26437 0.74296 0.0
H712 H 0.0298 0.87557 0.60496 0.0
H713 H 0.9836 0.83417 0.54404 0.0
H714 H 0.02984 0.91338 0.58385 0.0
H715 H 0.9841 0.87208 0.52253 0.0
H716 H 0.96932 0.95131 0.5072 0.0
H717 H 0.96907 0.91191 0.52608 0.0
H718 H 0.04574 0.93149 0.54819 0.0
H719 H 0.04579 0.97088 0.52963 0.0
C720 C 0.01978 0.87455 0.58696 0.0
C721 C 0.00672 0.85198 0.5761 0.0
C722 C 0.01992 0.89616 0.5748 0.0
C723 C 0.0071 0.89564 0.55147 0.0
C724 C 0.99398 0.87305 0.54059 0.0
C725 C 0.99379 0.85138 0.55283 0.0
C726 C 0.98609 0.94699 0.51594 0.0
C727 C 0.00751 0.96407 0.51732 0.0
C728 C 0.98598 0.92447 0.52666 0.0
C729 C 0.00735 0.91873 0.53877 0.0
C730 C 0.0289 0.93562 0.53941 0.0
C731 C 0.02896 0.95811 0.52879 0.0
H732 H 0.46833 0.73578 0.88767 0.0
H733 H 0.47505 0.81574 0.89708 0.0
H734 H 0.43179 0.73425 0.85952 0.0
H735 H 0.43843 0.81416 0.86905 0.0
H736 H 0.3851 0.80391 0.80025 0.0
H737 H 0.42379 0.80298 0.82431 0.0
H738 H 0.38991 0.74324 0.8636 0.0
H739 H 0.35138 0.74413 0.83953 0.0
C740 C 0.46197 0.753 0.88374 0.0
C741 C 0.47441 0.77587 0.89461 0.0
C742 C 0.44108 0.75211 0.86767 0.0
C743 C 0.4324 0.77409 0.86207 0.0
C744 C 0.44495 0.79697 0.87281 0.0
C745 C 0.46575 0.79785 0.889 0.0
C746 C 0.38609 0.79038 0.81379 0.0
C747 C 0.36538 0.77418 0.81822 0.0
C748 C 0.40811 0.78995 0.82763 0.0
C749 C 0.40973 0.77317 0.8459 0.0
C750 C 0.38918 0.75626 0.84952 0.0
C751 C 0.36716 0.75683 0.83584 0.0
H752 H 0.51375 0.23892 0.04212 0.0
H753 H 0.46597 0.20283 0.09108 0.0
H754 H 0.5132 0.19919 0.01886 0.0
H755 H 0.4662 0.16302 0.06864 0.0
H756 H 0.46432 0.09341 0.02307 0.0
H757 H 0.45628 0.13542 0.0325 0.0
H758 H 0.53151 0.16408 0.02741 0.0
H759 H 0.5393 0.12251 0.01711 0.0
C760 C 0.50296 0.2225 0.04776 0.0
C761 C 0.49016 0.22384 0.06857 0.0
C762 C 0.50271 0.19973 0.0345 0.0
C763 C 0.48991 0.17782 0.04202 0.0
C764 C 0.47602 0.17949 0.06207 0.0
C765 C 0.47605 0.2023 0.07512 0.0
C766 C 0.479 0.10876 0.02336 0.0
C767 C 0.50254 0.10455 0.01974 0.0
C768 C 0.47442 0.13283 0.02893 0.0
C769 C 0.49332 0.15311 0.03116 0.0
C770 C 0.51643 0.149 0.02568 0.0
C771 C 0.52096 0.12503 0.01991 0.0
H772 H 0.06831 0.29747 0.35949 0.0
H773 H 0.08919 0.23089 0.38754 0.0
H774 H 0.0932 0.29357 0.32567 0.0
H775 H 0.11507 0.22751 0.35425 0.0
H776 H 0.15622 0.22292 0.28788 0.0
H777 H 0.12027 0.22141 0.31055 0.0
H778 H 0.13588 0.30116 0.32577 0.0
H779 H 0.17093 0.30255 0.30295 0.0
C780 C 0.07823 0.28196 0.35835 0.0
C781 C 0.07727 0.26475 0.37634 0.0
C782 C 0.09246 0.2797 0.33899 0.0
C783 C 0.10641 0.26045 0.33746 0.0
C784 C 0.10439 0.24244 0.35475 0.0
C785 C 0.0898 0.2445 0.37396 0.0
C786 C 0.1514 0.24008 0.29553 0.0
C787 C 0.1663 0.26281 0.29394 0.0
C788 C 0.13103 0.23923 0.30866 0.0
C789 C 0.1253 0.26114 0.32012 0.0
C790 C 0.13948 0.28396 0.31697 0.0
C791 C 0.15973 0.28476 0.30402 0.0
H792 H 0.93893 0.09469 0.19981 0.0
H793 H 0.89967 0.02387 0.16869 0.0
H794 H 0.96692 0.09395 0.16798 0.0
H795 H 0.92775 0.02308 0.13713 0.0
H796 H 0.99937 0.01496 0.10754 0.0
H797 H 0.97328 0.01978 0.14005 0.0
H798 H 0.96614 0.09351 0.1197 0.0
H799 H 0.99216 0.08872 0.08664 0.0
C800 C 0.93618 0.07909 0.18606 0.0
C801 C 0.91719 0.05928 0.18676 0.0
C802 C 0.95214 0.07872 0.16786 0.0
C803 C 0.94961 0.05835 0.15032 0.0
C804 C 0.93027 0.03886 0.15067 0.0
C805 C 0.91413 0.03939 0.16861 0.0
C806 C 0.9926 0.0324 0.11009 0.0
C807 C 0.99778 0.05141 0.09429 0.0
C808 C 0.97749 0.03504 0.12865 0.0
C809 C 0.9674 0.05683 0.13208 0.0
C810 C 0.97368 0.07649 0.11737 0.0
C811 C 0.98865 0.07376 0.09853 0.0
H812 H 0.27954 0.67556 0.42884 0.0
H813 H 0.32671 0.74052 0.46333 0.0
H814 H 0.27217 0.69755 0.39209 0.0
H815 H 0.3198 0.76241 0.42643 0.0
H816 H 0.28163 0.80395 0.36877 0.0
H817 H 0.28942 0.78097 0.40465 0.0
H818 H 0.28902 0.71479 0.35681 0.0
H819 H 0.28104 0.73801 0.32092 0.0
C820 C 0.28857 0.69447 0.4285 0.0
C821 C 0.30371 0.70624 0.44915 0.0
C822 C 0.28441 0.70711 0.40731 0.0
C823 C 0.29523 0.73194 0.40611 0.0
C824 C 0.31074 0.7435 0.42667 0.0
C825 C 0.31491 0.73086 0.44784 0.0
C826 C 0.28308 0.78445 0.36591 0.0
C827 C 0.28031 0.77275 0.34195 0.0
C828 C 0.28777 0.77125 0.38653 0.0
C829 C 0.28998 0.74589 0.38386 0.0
C830 C 0.28711 0.73415 0.35978 0.0
C831 C 0.28242 0.74743 0.33911 0.0
H832 H 0.6007 0.95637 0.70026 0.0
H833 H 0.56224 0.01264 0.72934 0.0
H834 H 0.58436 0.96233 0.6585 0.0
H835 H 0.54611 0.01882 0.68763 0.0
H836 H 0.50568 0.01049 0.6109 0.0
H837 H 0.51907 1.00012 0.65201 0.0
H838 H 0.58955 0.99389 0.62892 0.0
H839 H 0.57607 0.00397 0.5876 0.0
C840 C 0.5885 0.96979 0.69778 0.0
C841 C 0.58275 0.98399 0.71819 0.0
C842 C 0.57931 0.97339 0.67379 0.0
C843 C 0.56403 0.9912 0.66957 0.0
C844 C 0.55763 0.00478 0.69011 0.0
C845 C 0.56691 1.00127 0.71408 0.0
C846 C 0.52401 0.00677 0.61446 0.0
C847 C 0.53978 0.00816 0.5958 0.0
C848 C 0.53173 1.00094 0.63816 0.0
C849 C 0.55544 0.99623 0.64393 0.0
C850 C 0.57108 0.99713 0.62514 0.0
C851 C 0.56338 1.00306 0.60142 0.0
H852 H 0.30136 0.37952 0.98501 0.0
H853 H 0.2279 0.34597 0.99222 0.0
H854 H 0.3015 0.35255 0.94773 0.0
H855 H 0.22813 0.31885 0.95495 0.0
H856 H 0.22955 0.31401 0.86882 0.0
H857 H 0.22892 0.33003 0.9113 0.0
H858 H 0.29854 0.30803 0.93029 0.0
H859 H 0.29912 0.29188 0.88746 0.0
C860 C 0.28536 0.36615 0.97878 0.0
C861 C 0.26449 0.36504 0.99123 0.0
C862 C 0.28554 0.35055 0.95762 0.0
C863 C 0.2648 0.33368 0.9485 0.0
C864 C 0.24428 0.33184 0.96156 0.0
C865 C 0.24415 0.34734 0.98282 0.0
C866 C 0.24451 0.3122 0.88218 0.0
C867 C 0.2645 0.30202 0.87499 0.0
C868 C 0.24407 0.32118 0.90651 0.0
C869 C 0.26373 0.32033 0.924 0.0
C870 C 0.28324 0.30902 0.91705 0.0
C871 C 0.28354 0.29974 0.89268 0.0
H872 H 0.88927 0.07387 0.33526 0.0
H873 H 0.9518 0.06191 0.29825 0.0
H874 H 0.91264 0.07381 0.37502 0.0
H875 H 0.97538 0.06249 0.338 0.0
H876 H 0.99389 0.02537 0.40933 0.0
H877 H 0.97495 0.03346 0.36954 0.0
H878 H 0.94614 0.09456 0.40409 0.0
H879 H 0.96482 0.086 0.4442 0.0
C880 C 0.90814 0.07169 0.33565 0.0
C881 C 0.91865 0.06759 0.3137 0.0
C882 C 0.92158 0.07182 0.35842 0.0
C883 C 0.94581 0.06793 0.35966 0.0
C884 C 0.95663 0.0651 0.33765 0.0
C885 C 0.94317 0.06488 0.31489 0.0
C886 C 0.98371 0.04069 0.40837 0.0
C887 C 0.98063 0.05497 0.42976 0.0
C888 C 0.97301 0.04546 0.38555 0.0
C889 C 0.95903 0.06467 0.38364 0.0
C890 C 0.95659 0.07947 0.40502 0.0
C891 C 0.96733 0.07466 0.42792 0.0
H892 H 0.29925 0.74263 0.57187 0.0
H893 H 0.3222 0.68016 0.60648 0.0
H894 H 0.29404 0.76194 0.61225 0.0
H895 H 0.3167 0.69922 0.64679 0.0
H896 H 0.32313 0.74904 0.71813 0.0
H897 H 0.33177 0.7329 0.67776 0.0
H898 H 0.26725 0.75641 0.64443 0.0
H899 H 0.25881 0.7729 0.68469 0.0
C900 C 0.30338 0.73309 0.58811 0.0
C901 C 0.31118 0.70983 0.58587 0.0
C902 C 0.30019 0.74408 0.6113 0.0
C903 C 0.30482 0.73216 0.63295 0.0
C904 C 0.3132 0.70915 0.63068 0.0
C905 C 0.31628 0.69814 0.60749 0.0
C906 C 0.31088 0.75102 0.70219 0.0
C907 C 0.29026 0.7624 0.70483 0.0
C908 C 0.31575 0.74154 0.67898 0.0
C909 C 0.30022 0.74323 0.65765 0.0
C910 C 0.27984 0.755 0.66027 0.0
C911 C 0.2749 0.76437 0.68349 0.0
H912 H 0.56265 0.96044 0.84307 0.0
H913 H 0.6164 0.02436 0.86723 0.0
H914 H 0.54292 0.96633 0.88059 0.0
H915 H 0.59627 0.03103 0.90409 0.0
H916 H 0.56766 0.02434 0.97927 0.0
H917 H 0.58812 0.0176 0.94248 0.0
H918 H 0.51895 0.99046 0.90113 0.0
H919 H 0.49888 0.9968 0.93826 0.0
C920 C 0.57021 0.97581 0.85635 0.0
C921 C 0.59117 0.99185 0.85212 0.0
C922 C 0.55877 0.97938 0.87786 0.0
C923 C 0.56781 0.99927 0.89565 0.0
C924 C 0.58885 0.01524 0.89127 0.0
C925 C 0.60039 0.0115 0.86994 0.0
C926 C 0.55686 0.01763 0.96218 0.0
C927 C 0.53164 0.01187 0.96154 0.0
C928 C 0.56858 0.0135 0.94098 0.0
C929 C 0.55533 0.00355 0.91846 0.0
C930 C 0.52998 0.99777 0.91801 0.0
C931 C 0.51837 1.00164 0.93929 0.0
H932 H 0.28016 0.37896 0.12685 0.0
H933 H 0.20863 0.35347 0.08992 0.0
H934 H 0.27481 0.34532 0.15377 0.0
H935 H 0.20322 0.31961 0.11737 0.0
H936 H 0.20567 0.29279 0.20217 0.0
H937 H 0.20251 0.31658 0.16598 0.0
H938 H 0.27021 0.29727 0.14567 0.0
H939 H 0.27352 0.2737 0.18181 0.0
C940 C 0.26319 0.3663 0.12464 0.0
C941 C 0.24484 0.36877 0.10628 0.0
C942 C 0.26025 0.34687 0.13984 0.0
C943 C 0.23883 0.3296 0.13714 0.0
C944 C 0.21998 0.33258 0.11952 0.0
C945 C 0.22305 0.35196 0.104 0.0
C946 C 0.21927 0.29263 0.18933 0.0
C947 C 0.24014 0.28194 0.195 0.0
C948 C 0.21748 0.30633 0.16869 0.0
C949 C 0.23648 0.30924 0.1536 0.0
C950 C 0.2556 0.29566 0.15743 0.0
C951 C 0.25743 0.2821 0.17801 0.0
H952 H 0.14734 0.91239 0.04718 0.0
H953 H 0.19668 0.97219 0.023 0.0
H954 H 0.11568 0.93884 0.04671 0.0
H955 H 0.16539 0.99856 0.02278 0.0
H956 H 0.09789 0.03109 0.99926 0.0
H957 H 0.12794 0.00323 0.99998 0.0
H958 H 0.10381 0.97597 0.06743 0.0
H959 H 0.07373 0.00426 0.06669 0.0
C960 C 0.15146 0.93116 0.0418 0.0
C961 C 0.17459 0.94007 0.03504 0.0
C962 C 0.13334 0.94641 0.04166 0.0
C963 C 0.13781 0.97091 0.03457 0.0
C964 C 0.16102 0.97973 0.02795 0.0
C965 C 0.17909 0.9646 0.02821 0.0
C966 C 0.09902 0.01921 0.0143 0.0
C967 C 0.08322 0.01974 0.0328 0.0
C968 C 0.11633 0.00321 0.01476 0.0
C969 C 0.11852 0.98728 0.03382 0.0
C970 C 0.10253 0.98768 0.05227 0.0
C971 C 0.0852 0.00383 0.05183 0.0
H972 H 0.68921 0.63628 0.96749 0.0
H973 H 0.71636 0.56838 0.98286 0.0
H974 H 0.64822 0.616 0.97136 0.0
H975 H 0.67527 0.54793 0.98627 0.0
H976 H 0.60843 0.53805 0.03074 0.0
H977 H 0.6481 0.55315 0.01821 0.0
H978 H 0.61454 0.58358 0.95531 0.0
H979 H 0.57481 0.5689 0.96802 0.0
C980 C 0.68633 0.61683 0.97104 0.0
C981 C 0.70595 0.60398 0.97519 0.0
C982 C 0.66284 0.60519 0.97319 0.0
C983 C 0.65861 0.58048 0.97948 0.0
C984 C 0.67808 0.56714 0.98189 0.0
C985 C 0.70156 0.57879 0.97975 0.0
C986 C 0.60947 0.5478 0.01415 0.0
C987 C 0.58845 0.55242 1.00051 0.0
C988 C 0.63221 0.55627 0.00684 0.0
C989 C 0.63441 0.56951 0.98573 0.0
C990 C 0.61339 0.57361 0.97176 0.0
C991 C 0.59064 0.56514 0.97906 0.0
H992 H 0.73049 0.46462 0.32334 0.0
H993 H 0.67332 0.42776 0.2696 0.0
H994 H 0.75287 0.43 0.31756 0.0
H995 H 0.69605 0.39396 0.26268 0.0
H996 H 0.72963 0.3249 0.27465 0.0
H997 H 0.70776 0.35952 0.27991 0.0
H998 H 0.77564 0.40985 0.2913 0.0
H999 H 0.79736 0.37457 0.28693 0.0
C1000 C 0.72283 0.44918 0.31016 0.0
C1001 C 0.70011 0.44877 0.29708 0.0
C1002 C 0.73572 0.42941 0.30664 0.0
C1003 C 0.72634 0.40901 0.28963 0.0
C1004 C 0.7037 0.40895 0.27634 0.0
C1005 C 0.69068 0.42844 0.2802 0.0
C1006 C 0.73981 0.34333 0.27758 0.0
C1007 C 0.76512 0.34704 0.27974 0.0
C1008 C 0.72729 0.36334 0.28078 0.0
C1009 C 0.73982 0.38771 0.28592 0.0
C1010 C 0.76528 0.3914 0.28776 0.0
C1011 C 0.77776 0.37123 0.28498 0.0
H1012 H 0.81676 0.40147 0.55354 0.0
H1013 H 0.78945 0.46507 0.52554 0.0
H1014 H 0.85814 0.42239 0.55227 0.0
H1015 H 0.83085 0.48611 0.52447 0.0
H1016 H 0.90739 0.50108 0.49782 0.0
H1017 H 0.86565 0.48201 0.50093 0.0
H1018 H 0.8872 0.45786 0.57212 0.0
H1019 H 0.92895 0.47679 0.56886 0.0
C1020 C 0.8196 0.41999 0.54727 0.0
C1021 C 0.79984 0.4316 0.53962 0.0
C1022 C 0.84332 0.43204 0.54666 0.0
C1023 C 0.84782 0.45593 0.53824 0.0
C1024 C 0.82802 0.46761 0.53079 0.0
C1025 C 0.8043 0.45562 0.53155 0.0
C1026 C 0.90314 0.49181 0.51418 0.0
C1027 C 0.92138 0.49034 0.53307 0.0
C1028 C 0.87922 0.48099 0.51602 0.0
C1029 C 0.87308 0.46834 0.53675 0.0
C1030 C 0.89137 0.46719 0.55578 0.0
C1031 C 0.91524 0.47814 0.55399 0.0
H1032 H 0.33343 0.10262 0.25801 0.0
H1033 H 0.39491 0.16123 0.26474 0.0
H1034 H 0.30638 0.13341 0.26099 0.0
H1035 H 0.36764 0.19222 0.26758 0.0
H1036 H 0.30525 0.23769 0.24463 0.0
H1037 H 0.33419 0.20848 0.24167 0.0
H1038 H 0.29748 0.1641 0.2936 0.0
H1039 H 0.26896 0.19351 0.2969 0.0
C1040 C 0.34119 0.12211 0.25999 0.0
C1041 C 0.36636 0.12945 0.26117 0.0
C1042 C 0.32566 0.13977 0.26187 0.0
C1043 C 0.33483 0.16528 0.2647 0.0
C1044 C 0.35999 0.17271 0.26532 0.0
C1045 C 0.37561 0.15497 0.26376 0.0
C1046 C 0.30362 0.2219 0.25568 0.0
C1047 C 0.28491 0.21797 0.2711 0.0
C1048 C 0.32017 0.20515 0.25396 0.0
C1049 C 0.31809 0.18388 0.26731 0.0
C1050 C 0.29943 0.18012 0.28284 0.0
C1051 C 0.28312 0.197 0.28479 0.0
H1052 H 0.31987 0.10094 0.5525 0.0
H1053 H 0.32922 0.08635 0.47559 0.0
H1054 H 0.35055 0.07538 0.56388 0.0
H1055 H 0.36008 0.06106 0.48699 0.0
H1056 H 0.40702 0.00741 0.51177 0.0
H1057 H 0.36828 0.0226 0.50616 0.0
H1058 H 0.39482 0.08285 0.56157 0.0
H1059 H 0.4333 0.06756 0.56728 0.0
C1060 C 0.32834 0.09208 0.53803 0.0
C1061 C 0.32244 0.09582 0.51318 0.0
C1062 C 0.34584 0.07747 0.54456 0.0
C1063 C 0.35766 0.06628 0.52633 0.0
C1064 C 0.351 0.06918 0.50141 0.0
C1065 C 0.33354 0.08385 0.49489 0.0
C1066 C 0.40425 0.02347 0.5232 0.0
C1067 C 0.42309 0.03655 0.53973 0.0
C1068 C 0.3822 0.03223 0.51989 0.0
C1069 C 0.37872 0.05405 0.53319 0.0
C1070 C 0.39694 0.06589 0.55117 0.0
C1071 C 0.41899 0.05722 0.55438 0.0
H1072 H 0.70071 0.57418 0.26116 0.0
H1073 H 0.7049 0.5883 0.34012 0.0
H1074 H 0.71806 0.61703 0.25748 0.0
H1075 H 0.72364 0.63109 0.33672 0.0
H1076 H 0.72968 0.71267 0.31941 0.0
H1077 H 0.71504 0.66929 0.32477 0.0
H1078 H 0.75212 0.64701 0.26302 0.0
H1079 H 0.76556 0.6904 0.25696 0.0
C1080 C 0.70583 0.58637 0.27782 0.0
C1081 C 0.70143 0.57787 0.30093 0.0
C1082 C 0.71596 0.61102 0.27575 0.0
C1083 C 0.72237 0.62778 0.29679 0.0
C1084 C 0.71856 0.61898 0.32002 0.0
C1085 C 0.70802 0.59436 0.32205 0.0
C1086 C 0.73476 0.69846 0.30706 0.0
C1087 C 0.74863 0.70498 0.28765 0.0
C1088 C 0.72649 0.6735 0.31022 0.0
C1089 C 0.73223 0.6544 0.29428 0.0
C1090 C 0.74676 0.66106 0.27532 0.0
C1091 C 0.75464 0.686 0.27191 0.0
H1092 H 0.87956 0.49265 0.8002 0.0
H1093 H 0.84224 0.50245 0.72982 0.0
H1094 H 0.8534 0.45303 0.80183 0.0
H1095 H 0.81597 0.46271 0.73148 0.0
H1096 H 0.79977 0.37585 0.73181 0.0
H1097 H 0.82097 0.41796 0.7296 0.0
H1098 H 0.8103 0.43573 0.80557 0.0
H1099 H 0.78911 0.39351 0.80775 0.0
C1100 C 0.8657 0.48637 0.78511 0.0
C1101 C 0.863 0.5006 0.76484 0.0
C1102 C 0.85059 0.46377 0.78614 0.0
C1103 C 0.83256 0.45479 0.76683 0.0
C1104 C 0.82979 0.46909 0.74657 0.0
C1105 C 0.84478 0.49184 0.74565 0.0
C1106 C 0.80163 0.3889 0.7479 0.0
C1107 C 0.79291 0.38146 0.76998 0.0
C1108 C 0.81369 0.41302 0.74662 0.0
C1109 C 0.81747 0.4301 0.76747 0.0
C1110 C 0.80792 0.42288 0.7893 0.0
C1111 C 0.79565 0.3988 0.7905 0.0
H1112 H 0.0279 0.85669 0.15353 0.0
H1113 H 0.98917 0.8091 0.09211 0.0
H1114 H 0.03058 0.89181 0.12803 0.0
H1115 H 0.99225 0.84413 0.06641 0.0
H1116 H 0.97897 0.92047 0.0389 0.0
H1117 H 0.97689 0.88316 0.06164 0.0
H1118 H 0.05058 0.90706 0.0934 0.0
H1119 H 0.05238 0.9444 0.07115 0.0
C1120 C 0.02007 0.85372 0.13455 0.0
C1121 C 0.00834 0.83016 0.12484 0.0
C1122 C 0.02173 0.8738 0.11986 0.0
C1123 C 0.01174 0.87077 0.0951 0.0
C1124 C 0.99995 0.84717 0.08543 0.0
C1125 C 0.99828 0.82708 0.10014 0.0
C1126 C 0.99479 0.91748 0.05047 0.0
C1127 C 0.01577 0.93532 0.05341 0.0
C1128 C 0.99364 0.89613 0.06349 0.0
C1129 C 0.01348 0.89228 0.07963 0.0
C1130 C 0.0348 0.9097 0.08159 0.0
C1131 C 0.03591 0.93099 0.06867 0.0
H1132 H 0.95941 0.24391 0.83167 0.0
H1133 H 0.96149 0.32331 0.83999 0.0
H1134 H 0.91809 0.23903 0.81161 0.0
H1135 H 0.92023 0.31851 0.82075 0.0
H1136 H 0.85271 0.30702 0.76926 0.0
H1137 H 0.89525 0.30855 0.78324 0.0
H1138 H 0.87759 0.24203 0.82083 0.0
H1139 H 0.83498 0.24009 0.80612 0.0
C1140 C 0.95109 0.26032 0.82911 0.0
C1141 C 0.96377 0.284 0.83737 0.0
C1142 C 0.92733 0.25753 0.81777 0.0
C1143 C 0.91569 0.27836 0.81447 0.0
C1144 C 0.92862 0.30204 0.82249 0.0
C1145 C 0.95232 0.30481 0.8337 0.0
C1146 C 0.8579 0.29252 0.78026 0.0
C1147 C 0.84037 0.27349 0.78665 0.0
C1148 C 0.88235 0.2935 0.78845 0.0
C1149 C 0.88996 0.27564 0.80352 0.0
C1150 C 0.87252 0.25601 0.8091 0.0
C1151 C 0.84802 0.25491 0.80069 0.0
H1152 H 0.53895 0.22088 0.6132 0.0
H1153 H 0.47309 0.18266 0.63691 0.0
H1154 H 0.54271 0.18432 0.58698 0.0
H1155 H 0.47625 0.14616 0.60982 0.0
H1156 H 0.50572 0.0768 0.58006 0.0
H1157 H 0.49887 0.11312 0.60516 0.0
H1158 H 0.52631 0.16045 0.55028 0.0
H1159 H 0.53399 0.12407 0.52574 0.0
C1160 C 0.52514 0.20468 0.61265 0.0
C1161 C 0.50574 0.20463 0.62715 0.0
C1162 C 0.52717 0.18373 0.5974 0.0
C1163 C 0.5097 0.16224 0.59604 0.0
C1164 C 0.49022 0.16224 0.61057 0.0
C1165 C 0.48832 0.18318 0.62604 0.0
C1166 C 0.51006 0.09498 0.57329 0.0
C1167 C 0.52055 0.09768 0.55106 0.0
C1168 C 0.50604 0.11583 0.58763 0.0
C1169 C 0.51224 0.13985 0.57993 0.0
C1170 C 0.52184 0.14234 0.55712 0.0
C1171 C 0.52608 0.1215 0.54293 0.0
H1172 H 0.57871 0.77121 0.30856 0.0
H1173 H 0.62146 0.81683 0.369 0.0
H1174 H 0.61525 0.76819 0.28831 0.0
H1175 H 0.658 0.81425 0.34856 0.0
H1176 H 0.72093 0.78114 0.31659 0.0
H1177 H 0.68487 0.78538 0.33754 0.0
H1178 H 0.6453 0.7924 0.26752 0.0
H1179 H 0.68126 0.78802 0.24681 0.0
C1180 C 0.5959 0.78076 0.31744 0.0
C1181 C 0.59714 0.79429 0.34037 0.0
C1182 C 0.61688 0.77913 0.30577 0.0
C1183 C 0.63968 0.79101 0.31674 0.0
C1184 C 0.64086 0.80461 0.33968 0.0
C1185 C 0.61986 0.80624 0.35133 0.0
C1186 C 0.70464 0.78405 0.30582 0.0
C1187 C 0.704 0.78459 0.28013 0.0
C1188 C 0.68391 0.7864 0.31777 0.0
C1189 C 0.66205 0.7892 0.30425 0.0
C1190 C 0.66162 0.7899 0.27853 0.0
C1191 C 0.6823 0.78756 0.26665 0.0
H1192 H 0.07495 0.20983 0.47101 0.0
H1193 H 1.00024 0.21212 0.4823 0.0
H1194 H 0.07297 0.17075 0.49051 0.0
H1195 H 0.99848 0.17388 0.50292 0.0
H1196 H 0.99418 0.09156 0.51166 0.0
H1197 H 0.99689 0.13128 0.4935 0.0
H1198 H 0.07023 0.15171 0.52785 0.0
H1199 H 0.06791 0.11111 0.54428 0.0
C1200 C 0.05825 0.20214 0.47806 0.0
C1201 C 0.03771 0.2138 0.47505 0.0
C1202 C 0.0571 0.17983 0.48934 0.0
C1203 C 0.03549 0.16903 0.49816 0.0
C1204 C 0.01523 0.1813 0.49582 0.0
C1205 C 0.01628 0.20332 0.48419 0.0
C1206 C 0.01097 0.1044 0.51485 0.0
C1207 C 0.03099 0.09814 0.52878 0.0
C1208 C 0.01244 0.12737 0.50487 0.0
C1209 C 0.03383 0.14476 0.50915 0.0
C1210 C 0.05365 0.13863 0.52376 0.0
C1211 C 0.05226 0.11548 0.53339 0.0
H1212 H 0.55688 0.24846 0.16574 0.0
H1213 H 0.57917 0.3253 0.15285 0.0
H1214 H 0.59413 0.24919 0.19259 0.0
H1215 H 0.61589 0.32636 0.18032 0.0
H1216 H 0.69103 0.30968 0.20524 0.0
H1217 H 0.65298 0.31035 0.18066 0.0
H1218 H 0.615 0.26601 0.232 0.0
H1219 H 0.65352 0.26468 0.25622 0.0
C1220 C 0.56972 0.26551 0.16874 0.0
C1221 C 0.5653 0.28675 0.15708 0.0
C1222 C 0.59092 0.26601 0.1843 0.0
C1223 C 0.60797 0.28784 0.18861 0.0
C1224 C 0.60333 0.30914 0.17709 0.0
C1225 C 0.58227 0.30856 0.16138 0.0
C1226 C 0.67452 0.30025 0.21138 0.0
C1227 C 0.67512 0.28706 0.23252 0.0
C1228 C 0.65268 0.30074 0.19737 0.0
C1229 C 0.63094 0.2882 0.20434 0.0
C1230 C 0.6315 0.27554 0.22595 0.0
C1231 C 0.65345 0.27494 0.23992 0.0
H1232 H 0.53219 0.82789 0.01522 0.0
H1233 H 0.57595 0.86372 0.96274 0.0
H1234 H 0.53317 0.86797 0.03808 0.0
H1235 H 0.57635 0.90372 0.985 0.0
H1236 H 0.57877 0.97387 0.02933 0.0
H1237 H 0.58755 0.93194 0.02122 0.0
H1238 H 0.51293 0.90229 0.02812 0.0
H1239 H 0.50432 0.94391 0.03691 0.0
C1240 C 0.54234 0.84429 0.00881 0.0
C1241 C 0.55369 0.84281 0.98702 0.0
C1242 C 0.54283 0.86722 0.02183 0.0
C1243 C 0.55457 0.88908 0.01321 0.0
C1244 C 0.56733 0.88726 0.99235 0.0
C1245 C 0.56695 0.86434 0.97942 0.0
C1246 C 0.56437 0.95836 0.02971 0.0
C1247 C 0.54073 0.96227 0.0333 0.0
C1248 C 0.5694 0.93434 0.02495 0.0
C1249 C 0.55087 0.91381 0.02362 0.0
C1250 C 0.5277 0.91764 0.02918 0.0
C1251 C 0.5227 0.94161 0.03404 0.0
H1252 H 0.95745 0.75254 0.67458 0.0
H1253 H 0.94764 0.82661 0.65708 0.0
H1254 H 0.92726 0.75275 0.7039 0.0
H1255 H 0.917 0.82661 0.68604 0.0
H1256 H 0.87172 0.82433 0.75071 0.0
H1257 H 0.90893 0.8255 0.7301 0.0
H1258 H 0.88353 0.75095 0.6974 0.0
H1259 H 0.84696 0.74977 0.71801 0.0
C1260 C 0.94884 0.76886 0.67703 0.0
C1261 C 0.95456 0.78941 0.66333 0.0
C1262 C 0.93163 0.76901 0.69383 0.0
C1263 C 0.91974 0.78965 0.69714 0.0
C1264 C 0.92609 0.81056 0.68407 0.0
C1265 C 0.9434 0.81045 0.66731 0.0
C1266 C 0.87445 0.80814 0.73943 0.0
C1267 C 0.85656 0.78707 0.73566 0.0
C1268 C 0.89557 0.80883 0.72758 0.0
C1269 C 0.89904 0.78834 0.71212 0.0
C1270 C 0.88152 0.76691 0.70941 0.0
C1271 C 0.86049 0.76631 0.72104 0.0
H1272 H 0.10061 0.96815 0.84998 0.0
H1273 H 0.14099 0.03941 0.87832 0.0
H1274 H 0.07372 0.97019 0.88268 0.0
H1275 H 0.1141 0.04145 0.91082 0.0
H1276 H 0.04454 0.05148 0.94345 0.0
H1277 H 0.06958 0.04572 0.9102 0.0
H1278 H 0.07504 0.97152 0.93024 0.0
H1279 H 0.04997 0.97721 0.9639 0.0
C1280 C 0.10387 0.98411 0.86332 0.0
C1281 C 0.12283 0.00368 0.86156 0.0
C1282 C 0.08851 0.98524 0.88202 0.0
C1283 C 0.09167 0.00609 0.89907 0.0
C1284 C 0.11103 0.02532 0.89767 0.0
C1285 C 0.12652 0.02407 0.87919 0.0
C1286 C 0.05073 0.03376 0.94068 0.0
C1287 C 0.0453 0.01485 0.95651 0.0
C1288 C 0.06525 0.03057 0.9217 0.0
C1289 C 0.07456 0.00834 0.91792 0.0
C1290 C 0.0681 0.98887 0.93279 0.0
C1291 C 0.05368 0.99212 0.95201 0.0
H1292 H 0.74848 0.38682 0.62484 0.0
H1293 H 0.71989 0.31767 0.58249 0.0
H1294 H 0.75499 0.3644 0.66151 0.0
H1295 H 0.72651 0.29517 0.61913 0.0
H1296 H 0.71821 0.26562 0.69525 0.0
H1297 H 0.71168 0.28846 0.65897 0.0
H1298 H 0.78029 0.33568 0.67921 0.0
H1299 H 0.78692 0.31237 0.7154 0.0
C1300 C 0.74349 0.36681 0.62335 0.0
C1301 C 0.73354 0.3541 0.60065 0.0
C1302 C 0.74742 0.35391 0.64439 0.0
C1303 C 0.74134 0.32788 0.64345 0.0
C1304 C 0.7312 0.3152 0.62074 0.0
C1305 C 0.72745 0.32811 0.59965 0.0
C1306 C 0.73194 0.28087 0.69196 0.0
C1307 C 0.75294 0.28741 0.70851 0.0
C1308 C 0.72823 0.29395 0.67105 0.0
C1309 C 0.7454 0.31404 0.666 0.0
C1310 C 0.76645 0.3206 0.68262 0.0
C1311 C 0.77023 0.30734 0.7035 0.0
H1312 H 0.41349 0.0729 0.35051 0.0
H1313 H 0.48425 0.08332 0.32443 0.0
H1314 H 0.43125 0.06715 0.39131 0.0
H1315 H 0.50249 0.0789 0.36595 0.0
H1316 H 0.52419 0.04102 0.43566 0.0
H1317 H 0.50851 0.05048 0.39494 0.0
H1318 H 0.45282 0.08438 0.42749 0.0
H1319 H 0.46778 0.0736 0.4679 0.0
C1320 C 0.43299 0.07448 0.35363 0.0
C1321 C 0.44743 0.0786 0.33414 0.0
C1322 C 0.44329 0.07134 0.37724 0.0
C1323 C 0.46847 0.0726 0.38233 0.0
C1324 C 0.48302 0.07736 0.36287 0.0
C1325 C 0.47261 0.08016 0.33904 0.0
C1326 C 0.50866 0.05062 0.4341 0.0
C1327 C 0.49714 0.05636 0.45506 0.0
C1328 C 0.4997 0.05622 0.41067 0.0
C1329 C 0.47915 0.0681 0.40756 0.0
C1330 C 0.46824 0.07464 0.42879 0.0
C1331 C 0.47693 0.06863 0.45212 0.0
H1332 H 0.73858 0.66218 0.06571 0.0
H1333 H 0.80167 0.71339 0.05239 0.0
H1334 H 0.73787 0.68451 0.10575 0.0
H1335 H 0.80061 0.73596 0.09239 0.0
H1336 H 0.7688 0.77964 0.15751 0.0
H1337 H 0.76886 0.76067 0.1155 0.0
H1338 H 0.77155 0.68938 0.14447 0.0
H1339 H 0.77198 0.70823 0.18621 0.0
C1340 C 0.75208 0.67838 0.07122 0.0
C1341 C 0.7703 0.686 0.05614 0.0
C1342 C 0.75169 0.69107 0.09407 0.0
C1343 C 0.76924 0.71178 0.10197 0.0
C1344 C 0.78687 0.72006 0.08651 0.0
C1345 C 0.78752 0.7071 0.06379 0.0
C1346 C 0.76955 0.75997 0.15479 0.0
C1347 C 0.77035 0.74531 0.17491 0.0
C1348 C 0.76961 0.7492 0.13091 0.0
C1349 C 0.76998 0.72363 0.12698 0.0
C1350 C 0.77099 0.7091 0.14715 0.0
C1351 C 0.77136 0.7199 0.17095 0.0
H1352 H 0.15081 0.99461 0.71022 0.0
H1353 H 0.08669 0.99959 0.74716 0.0
H1354 H 0.1272 0.99402 0.67046 0.0
H1355 H 0.06298 0.99851 0.70741 0.0
H1356 H 0.04143 0.03515 0.63646 0.0
H1357 H 0.06136 0.0282 0.67618 0.0
H1358 H 0.09451 0.97043 0.64134 0.0
H1359 H 0.07468 0.97776 0.6013 0.0
C1360 C 0.1316 0.99523 0.70981 0.0
C1361 C 0.12062 0.99742 0.73176 0.0
C1362 C 0.11805 0.9947 0.68704 0.0
C1363 C 0.09325 0.99634 0.68582 0.0
C1364 C 0.08212 0.99757 0.70779 0.0
C1365 C 0.09567 0.99812 0.73053 0.0
C1366 C 0.05275 0.02077 0.63733 0.0
C1367 C 0.05669 0.00709 0.61589 0.0
C1368 C 0.06405 0.01667 0.66011 0.0
C1369 C 0.07954 0.99879 0.66189 0.0
C1370 C 0.08287 0.98452 0.64047 0.0
C1371 C 0.07146 0.9886 0.61763 0.0
H1372 H 0.75996 0.38789 0.45703 0.0
H1373 H 0.70352 0.32748 0.46669 0.0
H1374 H 0.76578 0.36813 0.41722 0.0
H1375 H 0.70917 0.30774 0.42631 0.0
H1376 H 0.71282 0.29864 0.33919 0.0
H1377 H 0.70486 0.31619 0.37958 0.0
H1378 H 0.78137 0.32889 0.40274 0.0
H1379 H 0.78936 0.31118 0.3628 0.0
C1380 C 0.74865 0.37043 0.4506 0.0
C1381 C 0.73127 0.35929 0.46516 0.0
C1382 C 0.7521 0.35902 0.42778 0.0
C1383 C 0.73805 0.33626 0.41856 0.0
C1384 C 0.72025 0.32531 0.43282 0.0
C1385 C 0.71706 0.33657 0.45597 0.0
C1386 C 0.72794 0.30498 0.35297 0.0
C1387 C 0.75176 0.30341 0.3476 0.0
C1388 C 0.72334 0.31496 0.37616 0.0
C1389 C 0.74248 0.32407 0.39439 0.0
C1390 C 0.76622 0.32226 0.38908 0.0
C1391 C 0.77077 0.31193 0.36615 0.0
H1392 H 0.44812 0.1051 0.1897 0.0
H1393 H 0.45632 0.03034 0.20563 0.0
H1394 H 0.46745 0.09998 0.15185 0.0
H1395 H 0.47622 0.02534 0.16814 0.0
H1396 H 0.49114 0.01567 0.08734 0.0
H1397 H 0.46996 0.0206 0.12415 0.0
H1398 H 0.5052 0.09685 0.13669 0.0
H1399 H 0.52547 0.09205 0.09951 0.0
C1400 C 0.45425 0.08763 0.18524 0.0
C1401 C 0.45071 0.06818 0.2008 0.0
C1402 C 0.46546 0.08468 0.16352 0.0
C1403 C 0.47351 0.0622 0.15672 0.0
C1404 C 0.47 0.04279 0.17242 0.0
C1405 C 0.45875 0.04574 0.19411 0.0
C1406 C 0.49403 0.03355 0.09778 0.0
C1407 C 0.50981 0.05351 0.09034 0.0
C1408 C 0.48213 0.03634 0.11911 0.0
C1409 C 0.48577 0.05917 0.13361 0.0
C1410 C 0.50154 0.0791 0.12596 0.0
C1411 C 0.51336 0.07631 0.10467 0.0
H1412 H 0.79743 0.66303 0.90996 0.0
H1413 H 0.79649 0.72473 0.96327 0.0
H1414 H 0.80295 0.69181 0.87786 0.0
H1415 H 0.80205 0.75347 0.93115 0.0
H1416 H 0.76375 0.77877 0.85801 0.0
H1417 H 0.77216 0.75823 0.89529 0.0
H1418 H 0.83005 0.72812 0.86306 0.0
H1419 H 0.82165 0.74867 0.8256 0.0
C1420 C 0.79885 0.68276 0.91488 0.0
C1421 C 0.79619 0.69165 0.93896 0.0
C1422 C 0.80223 0.69924 0.89658 0.0
C1423 C 0.80285 0.72483 0.90208 0.0
C1424 C 0.80149 0.73381 0.92645 0.0
C1425 C 0.79829 0.71736 0.94478 0.0
C1426 C 0.7787 0.76834 0.85912 0.0
C1427 C 0.79184 0.76505 0.83883 0.0
C1428 C 0.78361 0.75669 0.88052 0.0
C1429 C 0.80159 0.7414 0.88188 0.0
C1430 C 0.81595 0.73965 0.86232 0.0
C1431 C 0.81122 0.75154 0.84098 0.0
H1432 H 0.84607 0.09333 0.02626 0.0
H1433 H 0.89607 0.15455 1.00553 0.0
H1434 H 0.87759 0.06722 0.02656 0.0
H1435 H 0.92791 0.12826 1.0059 0.0
H1436 H 0.96991 0.06274 0.98453 0.0
H1437 H 0.93983 0.09107 0.98388 0.0
H1438 H 0.91504 0.06296 0.05071 0.0
H1439 H 0.94524 0.03523 0.05149 0.0
C1440 C 0.86384 0.10128 0.02179 0.0
C1441 C 0.86847 0.12613 0.01594 0.0
C1442 C 0.88202 0.08628 0.02209 0.0
C1443 C 0.90546 0.09557 0.0164 0.0
C1444 C 0.91008 0.12039 0.01024 0.0
C1445 C 0.89185 0.13552 0.01015 0.0
C1446 C 0.95835 0.06304 0.99932 0.0
C1447 C 0.96021 0.04695 0.01822 0.0
C1448 C 0.94101 0.07918 0.9989 0.0
C1449 C 0.92483 0.07932 0.01719 0.0
C1450 C 0.92685 0.06319 0.03609 0.0
C1451 C 0.94423 0.04727 0.03657 0.0
H1452 H 0.32087 0.49076 0.06085 0.0
H1453 H 0.34889 0.42211 0.06997 0.0
H1454 H 0.36191 0.51244 0.05915 0.0
H1455 H 0.38975 0.44364 0.06791 0.0
H1456 H 0.43022 0.52702 0.01644 0.0
H1457 H 0.39023 0.51066 0.02737 0.0
H1458 H 0.42259 0.47545 0.08764 0.0
H1459 H 0.46268 0.49144 0.07652 0.0
C1460 C 0.33583 0.48041 0.0629 0.0
C1461 C 0.33173 0.45473 0.0653 0.0
C1462 C 0.35927 0.49278 0.06178 0.0
C1463 C 0.37898 0.47968 0.06315 0.0
C1464 C 0.37496 0.45428 0.067 0.0
C1465 C 0.35154 0.44192 0.06805 0.0
C1466 C 0.42886 0.51598 0.03216 0.0
C1467 C 0.44965 0.51034 0.04545 0.0
C1468 C 0.40592 0.50679 0.03856 0.0
C1469 C 0.4033 0.49176 0.05835 0.0
C1470 C 0.42409 0.4868 0.07215 0.0
C1471 C 0.44704 0.49602 0.06579 0.0
H1472 H 0.30739 0.59988 0.72152 0.0
H1473 H 0.35727 0.62976 0.78475 0.0
H1474 H 0.28529 0.63492 0.72704 0.0
H1475 H 0.33492 0.66391 0.79087 0.0
H1476 H 0.30803 0.73631 0.7783 0.0
H1477 H 0.32849 0.70067 0.77298 0.0
H1478 H 0.25948 0.654 0.75257 0.0
H1479 H 0.23918 0.69038 0.75764 0.0
C1480 C 0.3135 0.61382 0.73666 0.0
C1481 C 0.33417 0.61221 0.75254 0.0
C1482 C 0.30078 0.6338 0.73996 0.0
C1483 C 0.30841 0.65241 0.75932 0.0
C1484 C 0.3288 0.65033 0.77543 0.0
C1485 C 0.34158 0.63061 0.77199 0.0
C1486 C 0.29722 0.71843 0.77356 0.0
C1487 C 0.27204 0.71607 0.76932 0.0
C1488 C 0.30893 0.69787 0.7702 0.0
C1489 C 0.29566 0.67426 0.76261 0.0
C1490 C 0.27033 0.67189 0.75824 0.0
C1491 C 0.25868 0.69265 0.76138 0.0
H1492 H 0.22072 0.66517 0.51264 0.0
H1493 H 0.2488 0.59618 0.51827 0.0
H1494 H 0.17975 0.64321 0.51432 0.0
H1495 H 0.20775 0.57424 0.52026 0.0
H1496 H 0.13353 0.55402 0.55388 0.0
H1497 H 0.17504 0.57409 0.5505 0.0
H1498 H 0.14974 0.61032 0.48756 0.0
H1499 H 0.10841 0.59007 0.49075 0.0
C1500 C 0.21813 0.6453 0.51419 0.0
C1501 C 0.23797 0.63239 0.51528 0.0
C1502 C 0.19467 0.63272 0.51505 0.0
C1503 C 0.19055 0.60701 0.51741 0.0
C1504 C 0.2104 0.59408 0.51859 0.0
C1505 C 0.23386 0.60662 0.51732 0.0
C1506 C 0.13692 0.56613 0.53924 0.0
C1507 C 0.11779 0.57054 0.52261 0.0
C1508 C 0.16065 0.57754 0.53725 0.0
C1509 C 0.16561 0.59385 0.51882 0.0
C1510 C 0.14644 0.59803 0.50208 0.0
C1511 C 0.12282 0.58635 0.50384 0.0
H1512 H 0.66477 0.91964 0.82138 0.0
H1513 H 0.67019 0.931 0.74464 0.0
H1514 H 0.69155 0.8883 0.81895 0.0
H1515 H 0.69548 0.89888 0.7416 0.0
H1516 H 0.76121 0.86178 0.74706 0.0
H1517 H 0.73403 0.89185 0.75146 0.0
H1518 H 0.69874 0.84886 0.80547 0.0
H1519 H 0.72768 0.81975 0.80236 0.0
C1520 C 0.67142 0.91516 0.80391 0.0
C1521 C 0.6656 0.928 0.78328 0.0
C1522 C 0.68669 0.89706 0.80242 0.0
C1523 C 0.69619 0.89108 0.78014 0.0
C1524 C 0.68939 0.90336 0.75934 0.0
C1525 C 0.67461 0.92171 0.76097 0.0
C1526 C 0.74773 0.85878 0.75998 0.0
C1527 C 0.74635 0.83811 0.77404 0.0
C1528 C 0.73181 0.87594 0.76232 0.0
C1529 C 0.71361 0.87279 0.77849 0.0
C1530 C 0.71245 0.85216 0.79287 0.0
C1531 C 0.72882 0.83518 0.79084 0.0
H1532 H 0.70757 0.97883 0.57565 0.0
H1533 H 0.72101 0.96878 0.49932 0.0
H1534 H 0.67671 0.0041 0.56409 0.0
H1535 H 0.69006 0.99405 0.48778 0.0
H1536 H 0.60545 0.99764 0.48349 0.0
H1537 H 0.64462 0.98363 0.4894 0.0
H1538 H 0.66919 0.04403 0.54511 0.0
H1539 H 0.62993 0.05812 0.5391 0.0
C1540 C 0.70418 0.98236 0.55648 0.0
C1541 C 0.71642 0.97166 0.53834 0.0
C1542 C 0.6867 0.99699 0.54989 0.0
C1543 C 0.68108 1.00097 0.52504 0.0
C1544 C 0.69406 0.99115 0.50704 0.0
C1545 C 0.71171 0.97672 0.51366 0.0
C1546 C 0.61948 0.00831 0.49646 0.0
C1547 C 0.61472 0.02872 0.51105 0.0
C1548 C 0.6419 1.00038 0.49978 0.0
C1549 C 0.65976 0.01265 0.51789 0.0
C1550 C 0.65558 0.03417 0.53119 0.0
C1551 C 0.63322 0.04226 0.52768 0.0
H1552 H 0.31465 0.48133 0.71591 0.0
H1553 H 0.34394 0.48564 0.79207 0.0
H1554 H 0.2949 0.43883 0.71928 0.0
H1555 H 0.32501 0.44315 0.79529 0.0
H1556 H 0.27475 0.37198 0.80047 0.0
H1557 H 0.28815 0.41588 0.79643 0.0
H1558 H 0.30575 0.39841 0.72262 0.0
H1559 H 0.29165 0.35463 0.72637 0.0
C1560 C 0.31672 0.47327 0.7334 0.0
C1561 C 0.33085 0.48684 0.7537 0.0
C1562 C 0.30558 0.44883 0.73531 0.0
C1563 C 0.30841 0.43741 0.75754 0.0
C1564 C 0.32206 0.45134 0.77798 0.0
C1565 C 0.33307 0.47574 0.7761 0.0
C1566 C 0.28132 0.3775 0.7833 0.0
C1567 C 0.28221 0.35968 0.7638 0.0
C1568 C 0.28913 0.40271 0.78102 0.0
C1569 C 0.29822 0.41079 0.75925 0.0
C1570 C 0.29858 0.393 0.73955 0.0
C1571 C 0.29061 0.3678 0.74176 0.0
H1572 H 0.20135 0.5454 0.28056 0.0
H1573 H 0.13965 0.58168 0.29219 0.0
H1574 H 0.22644 0.58584 0.27939 0.0
H1575 H 0.16451 0.62198 0.29055 0.0
H1576 H 0.21933 0.69057 0.31172 0.0
H1577 H 0.1973 0.64916 0.31482 0.0
H1578 H 0.23202 0.62108 0.25384 0.0
H1579 H 0.25451 0.66267 0.25113 0.0
C1580 C 0.19314 0.56202 0.28278 0.0
C1581 C 0.16856 0.5604 0.28654 0.0
C1582 C 0.20748 0.58516 0.28199 0.0
C1583 C 0.19753 0.60715 0.28501 0.0
C1584 C 0.17287 0.60544 0.2886 0.0
C1585 C 0.15856 0.58233 0.28938 0.0
C1586 C 0.22245 0.67549 0.29915 0.0
C1587 C 0.23851 0.6798 0.2811 0.0
C1588 C 0.20969 0.6518 0.30079 0.0
C1589 C 0.21262 0.63187 0.28436 0.0
C1590 C 0.22943 0.63601 0.26686 0.0
C1591 C 0.24227 0.65979 0.26526 0.0
H1592 H 0.49447 0.72872 0.42064 0.0
H1593 H 0.5725 0.74021 0.43206 0.0
H1594 H 0.49273 0.69344 0.44579 0.0
H1595 H 0.57079 0.70444 0.45693 0.0
H1596 H 0.55685 0.64918 0.51646 0.0
H1597 H 0.55839 0.68797 0.49587 0.0
H1598 H 0.50232 0.65185 0.44042 0.0
H1599 H 0.50058 0.61368 0.46105 0.0
C1600 C 0.51127 0.72371 0.42855 0.0
C1601 C 0.53363 0.73709 0.42419 0.0
C1602 C 0.51028 0.70343 0.44291 0.0
C1603 C 0.53163 0.69598 0.45321 0.0
C1604 C 0.55401 0.70982 0.44943 0.0
C1605 C 0.555 0.73018 0.43504 0.0
C1606 C 0.54477 0.64974 0.49999 0.0
C1607 C 0.5286 0.62851 0.49033 0.0
C1608 C 0.54573 0.67183 0.48813 0.0
C1609 C 0.53042 0.67302 0.46653 0.0
C1610 C 0.51409 0.65175 0.45721 0.0
C1611 C 0.5132 0.62979 0.46896 0.0
H1612 H 0.58334 0.30891 0.69193 0.0
H1613 H 0.55888 0.25096 0.73806 0.0
H1614 H 0.6244 0.31165 0.71135 0.0
H1615 H 0.59989 0.25433 0.75835 0.0
H1616 H 0.69488 0.32294 0.75997 0.0
H1617 H 0.65233 0.32331 0.7465 0.0
H1618 H 0.63752 0.24377 0.75008 0.0
H1619 H 0.67952 0.24355 0.76435 0.0
C1620 C 0.58667 0.29702 0.70655 0.0
C1621 C 0.56784 0.2796 0.71334 0.0
C1622 C 0.61027 0.29871 0.71787 0.0
C1623 C 0.6157 0.28316 0.73645 0.0
C1624 C 0.59661 0.26631 0.74381 0.0
C1625 C 0.57301 0.26447 0.73231 0.0
C1626 C 0.68246 0.30559 0.75822 0.0
C1627 C 0.69077 0.28324 0.76327 0.0
C1628 C 0.65803 0.30575 0.75028 0.0
C1629 C 0.64131 0.28354 0.747 0.0
C1630 C 0.6496 0.26134 0.7527 0.0
C1631 C 0.67389 0.2612 0.76079 0.0
H1632 H 0.04067 0.34228 0.95891 0.0
H1633 H 0.02766 0.38184 0.89441 0.0
H1634 H 0.03826 0.37942 0.98523 0.0
H1635 H 0.02439 0.41872 0.92062 0.0
H1636 H 0.03681 0.48743 0.97301 0.0
H1637 H 0.04554 0.45139 0.94878 0.0
H1638 H 0.00849 0.40305 0.9976 0.0
H1639 H 1.00089 0.43921 0.02244 0.0
C1640 C 0.03734 0.35895 0.95036 0.0
C1641 C 0.0343 0.35914 0.9246 0.0
C1642 C 0.03579 0.38021 0.96545 0.0
C1643 C 0.03099 0.4021 0.95511 0.0
C1644 C 0.02846 0.40236 0.92928 0.0
C1645 C 0.03018 0.38116 0.91421 0.0
C1646 C 0.03102 0.46911 0.97885 0.0
C1647 C 0.01834 0.46612 0.99972 0.0
C1648 C 0.03573 0.44841 0.96477 0.0
C1649 C 0.02762 0.42423 0.9711 0.0
C1650 C 0.01533 0.42134 0.99232 0.0
C1651 C 0.0108 0.44206 0.00649 0.0
H1652 H 0.92297 0.78955 0.17818 0.0
H1653 H 0.95203 0.74789 0.23501 0.0
H1654 H 0.88697 0.79113 0.19958 0.0
H1655 H 0.91564 0.7488 0.25619 0.0
H1656 H 0.86047 0.78006 0.3015 0.0
H1657 H 0.8959 0.77658 0.2796 0.0
H1658 H 0.85081 0.7674 0.21031 0.0
H1659 H 0.81557 0.77185 0.23242 0.0
C1660 C 0.92158 0.78053 0.19518 0.0
C1661 C 0.94043 0.76866 0.20493 0.0
C1662 C 0.90081 0.78128 0.2074 0.0
C1663 C 0.89825 0.77009 0.22969 0.0
C1664 C 0.91705 0.75795 0.23928 0.0
C1665 C 0.9379 0.75729 0.22708 0.0
C1666 C 0.85815 0.77721 0.28159 0.0
C1667 C 0.83522 0.77606 0.26866 0.0
C1668 C 0.87845 0.77503 0.269 0.0
C1669 C 0.87636 0.77161 0.24311 0.0
C1670 C 0.85326 0.77028 0.23021 0.0
C1671 C 0.83296 0.77255 0.24285 0.0
H1672 H 0.52077 0.37676 0.11 0.0
H1673 H 0.48592 0.33448 0.04351 0.0
H1674 H 0.52323 0.41471 0.08867 0.0
H1675 H 0.48867 0.37251 0.02204 0.0
H1676 H 0.47281 0.45048 1.00354 0.0
H1677 H 0.47095 0.41143 0.0232 0.0
H1678 H 0.54475 0.43363 0.05534 0.0
H1679 H 0.54653 0.47262 0.03557 0.0
C1680 C 0.5137 0.37559 0.09081 0.0
C1681 C 0.50314 0.35273 0.07839 0.0
C1682 C 0.51525 0.39727 0.07856 0.0
C1683 C 0.50622 0.3965 0.05369 0.0
C1684 C 0.49559 0.37363 0.04128 0.0
C1685 C 0.49411 0.3519 0.05352 0.0
C1686 C 0.48866 0.44685 0.01465 0.0
C1687 C 0.50972 0.46455 0.01839 0.0
C1688 C 0.48762 0.42454 0.02583 0.0
C1689 C 0.50766 0.41961 0.0409 0.0
C1690 C 0.52891 0.43715 0.04415 0.0
C1691 C 0.52994 0.45942 0.03291 0.0
H1692 H 0.94977 0.26063 0.41747 0.0
H1693 H 0.99132 0.29515 0.36269 0.0
H1694 H 0.91268 0.26018 0.39072 0.0
H1695 H 0.95442 0.29352 0.33524 0.0
H1696 H 0.88091 0.31183 0.30481 0.0
H1697 H 0.91917 0.31155 0.32953 0.0
H1698 H 0.89057 0.24054 0.3546 0.0
H1699 H 0.85198 0.24171 0.33093 0.0
C1700 C 0.95092 0.26794 0.39959 0.0
C1701 C 0.97329 0.27801 0.39214 0.0
C1702 C 0.92972 0.26747 0.38412 0.0
C1703 C 0.93053 0.27665 0.36069 0.0
C1704 C 0.95305 0.28664 0.35327 0.0
C1705 C 0.9742 0.2875 0.36894 0.0
C1706 C 0.88301 0.2961 0.31545 0.0
C1707 C 0.86362 0.2769 0.31624 0.0
C1708 C 0.90492 0.29585 0.32955 0.0
C1709 C 0.9079 0.27614 0.34432 0.0
C1710 C 0.88872 0.25633 0.344 0.0
C1711 C 0.8667 0.25685 0.33028 0.0
H1712 H 0.96017 0.71658 0.56443 0.0
H1713 H 0.03797 0.72622 0.56546 0.0
H1714 H 0.95718 0.67543 0.54289 0.0
H1715 H 0.03511 0.68516 0.54472 0.0
H1716 H 0.02748 0.61487 0.5003 0.0
H1717 H 0.02278 0.65818 0.50821 0.0
H1718 H 0.96682 0.63614 0.55531 0.0
H1719 H 0.97096 0.59282 0.54668 0.0
C1720 C 0.97658 0.71002 0.55978 0.0
C1721 C 0.99931 0.72445 0.5668 0.0
C1722 C 0.97488 0.68645 0.54755 0.0
C1723 C 0.9959 0.67695 0.54216 0.0
C1724 C 0.01852 0.69199 0.54819 0.0
C1725 C 0.02019 0.71548 0.56031 0.0
C1726 C 0.01378 0.61927 0.51187 0.0
C1727 C 0.99983 0.60055 0.52317 0.0
C1728 C 0.01116 0.64407 0.51648 0.0
C1729 C 0.99478 0.65066 0.53278 0.0
C1730 C 0.9795 0.63173 0.54253 0.0
C1731 C 0.98193 0.60687 0.53766 0.0
H1732 H 0.61322 0.75903 0.91032 0.0
H1733 H 0.56416 0.78644 0.8571 0.0
H1734 H 0.64024 0.75346 0.87866 0.0
H1735 H 0.59124 0.78069 0.82531 0.0
H1736 H 0.66564 0.79731 0.7904 0.0
H1737 H 0.63314 0.79967 0.81694 0.0
H1738 H 0.64022 0.72667 0.83984 0.0
H1739 H 0.67279 0.72442 0.81351 0.0
C1740 C 0.60823 0.76384 0.89185 0.0
C1741 C 0.58667 0.77321 0.88614 0.0
C1742 C 0.62356 0.76044 0.87369 0.0
C1743 C 0.61767 0.76644 0.84951 0.0
C1744 C 0.59618 0.77598 0.84382 0.0
C1745 C 0.58074 0.77924 0.86198 0.0
C1746 C 0.6598 0.78157 0.80067 0.0
C1747 C 0.67175 0.76079 0.80018 0.0
C1748 C 0.64124 0.7829 0.81582 0.0
C1749 C 0.63449 0.7635 0.83068 0.0
C1750 C 0.64542 0.74205 0.82888 0.0
C1751 C 0.66389 0.7407 0.81372 0.0
H1752 H 0.41722 0.51932 0.68275 0.0
H1753 H 0.42419 0.59932 0.68831 0.0
H1754 H 0.44523 0.52108 0.6513 0.0
H1755 H 0.45272 0.60114 0.6568 0.0
H1756 H 0.47938 0.5856 0.57796 0.0
H1757 H 0.45458 0.58979 0.61216 0.0
H1758 H 0.48821 0.53413 0.64874 0.0
H1759 H 0.51252 0.52965 0.61455 0.0
C1760 C 0.42476 0.53732 0.67725 0.0
C1761 C 0.41854 0.55918 0.68806 0.0
C1762 C 0.441 0.53835 0.65935 0.0
C1763 C 0.45151 0.56128 0.65179 0.0
C1764 C 0.44493 0.58319 0.66222 0.0
C1765 C 0.42864 0.58215 0.68027 0.0
C1766 C 0.48194 0.57481 0.59365 0.0
C1767 C 0.49775 0.55716 0.5935 0.0
C1768 C 0.46767 0.57713 0.6132 0.0
C1769 C 0.46905 0.56189 0.63291 0.0
C1770 C 0.48624 0.54566 0.63353 0.0
C1771 C 0.50033 0.54325 0.61403 0.0
H1772 H 0.829 0.23966 0.96314 0.0
H1773 H 0.7759 0.17728 0.93294 0.0
H1774 H 0.82177 0.26092 0.92585 0.0
H1775 H 0.76788 0.19875 0.89615 0.0
H1776 H 0.77413 0.23377 0.82275 0.0
H1777 H 0.7819 0.21197 0.85946 0.0
H1778 H 0.79502 0.28206 0.90362 0.0
H1779 H 0.78758 0.30357 0.86662 0.0
C1780 C 0.8157 0.23051 0.94857 0.0
C1781 C 0.80311 0.2067 0.95109 0.0
C1782 C 0.81136 0.2428 0.92717 0.0
C1783 C 0.7941 0.23176 0.90769 0.0
C1784 C 0.78158 0.20787 0.91034 0.0
C1785 C 0.78609 0.19553 0.93162 0.0
C1786 C 0.77791 0.24437 0.84036 0.0
C1787 C 0.7794 0.2703 0.84178 0.0
C1788 C 0.78265 0.23191 0.86155 0.0
C1789 C 0.78903 0.24506 0.88489 0.0
C1790 C 0.79055 0.27112 0.88615 0.0
C1791 C 0.78603 0.28352 0.8649 0.0
H1792 H 0.06296 0.51171 0.22982 0.0
H1793 H 0.11329 0.46775 0.20088 0.0
H1794 H 0.04619 0.51651 0.18801 0.0
H1795 H 0.09611 0.47188 0.15904 0.0
H1796 H 0.08035 0.51027 0.08831 0.0
H1797 H 0.09528 0.50206 0.12965 0.0
H1798 H 0.02286 0.49669 0.15165 0.0
H1799 H 0.00802 0.50562 0.11043 0.0
C1800 C 0.07021 0.50275 0.21452 0.0
C1801 C 0.08951 0.4894 0.21873 0.0
C1802 C 0.06051 0.50539 0.19047 0.0
C1803 C 0.0698 0.49469 0.16994 0.0
C1804 C 0.08872 0.48078 0.17426 0.0
C1805 C 0.09847 0.47822 0.19831 0.0
C1806 C 0.06753 0.50719 0.10188 0.0
C1807 C 0.04294 0.50872 0.09592 0.0
C1808 C 0.07611 0.50232 0.12566 0.0
C1809 C 0.06035 0.49873 0.14421 0.0
C1810 C 0.03566 0.49975 0.13807 0.0
C1811 C 0.02709 0.5047 0.11429 0.0
H1812 H 0.7243 0.87374 0.48075 0.0
H1813 H 0.80154 0.87606 0.49491 0.0
H1814 H 0.72439 0.84921 0.44195 0.0
H1815 H 0.80166 0.85177 0.45582 0.0
H1816 H 0.78905 0.79058 0.39282 0.0
H1817 H 0.78667 0.80994 0.43403 0.0
H1818 H 0.74035 0.85859 0.40247 0.0
H1819 H 0.74253 0.83912 0.36156 0.0
C1820 C 0.74128 0.86895 0.47558 0.0
C1821 C 0.76295 0.87694 0.49068 0.0
C1822 C 0.74133 0.85497 0.45337 0.0
C1823 C 0.76304 0.84871 0.44587 0.0
C1824 C 0.78464 0.85614 0.46129 0.0
C1825 C 0.78459 0.87018 0.48353 0.0
C1826 C 0.7782 0.80524 0.39484 0.0
C1827 C 0.76604 0.81349 0.37418 0.0
C1828 C 0.77694 0.81638 0.41831 0.0
C1829 C 0.76336 0.83576 0.42138 0.0
C1830 C 0.75072 0.84349 0.40068 0.0
C1831 C 0.75208 0.83247 0.37728 0.0
H1832 H 0.41601 0.59518 0.82358 0.0
H1833 H 0.43616 0.52459 0.80095 0.0
H1834 H 0.4399 0.59576 0.86307 0.0
H1835 H 0.4592 0.52448 0.84087 0.0
H1836 H 0.51056 0.53614 0.9096 0.0
H1837 H 0.49327 0.54193 0.86824 0.0
H1838 H 0.4366 0.57536 0.89953 0.0
H1839 H 0.45468 0.57056 0.94078 0.0
C1840 C 0.42566 0.57982 0.82707 0.0
C1841 C 0.42416 0.55976 0.80932 0.0
C1842 C 0.43921 0.58005 0.84976 0.0
C1843 C 0.45127 0.56004 0.85534 0.0
C1844 C 0.45042 0.54037 0.83716 0.0
C1845 C 0.43712 0.54033 0.8143 0.0
C1846 C 0.49459 0.54503 0.90754 0.0
C1847 C 0.48384 0.55283 0.92825 0.0
C1848 C 0.48457 0.54819 0.88387 0.0
C1849 C 0.4634 0.55891 0.88047 0.0
C1850 C 0.4531 0.56736 0.90138 0.0
C1851 C 0.46334 0.56449 0.92504 0.0
H1852 H 0.83008 0.2408 0.08196 0.0
H1853 H 0.7919 0.17077 0.1 0.0
H1854 H 0.82299 0.26001 0.12212 0.0
H1855 H 0.78429 0.19006 0.13949 0.0
H1856 H 0.74922 0.24331 0.19069 0.0
H1857 H 0.75871 0.22594 0.15101 0.0
H1858 H 0.83443 0.25328 0.17086 0.0
H1859 H 0.82508 0.27016 0.21101 0.0
C1860 C 0.82031 0.2295 0.09449 0.0
C1861 C 0.81166 0.20421 0.08777 0.0
C1862 C 0.81627 0.24048 0.11747 0.0
C1863 C 0.80295 0.22657 0.13391 0.0
C1864 C 0.79446 0.20131 0.12719 0.0
C1865 C 0.79897 0.19024 0.10458 0.0
C1866 C 0.7679 0.24581 0.1866 0.0
C1867 C 0.78637 0.25819 0.20411 0.0
C1868 C 0.77333 0.23574 0.16388 0.0
C1869 C 0.79732 0.23823 0.15778 0.0
C1870 C 0.81577 0.25117 0.17497 0.0
C1871 C 0.8104 0.26075 0.19799 0.0
H1872 H 0.05724 0.47181 0.34009 0.0
H1873 H 0.1212 0.51824 0.37628 0.0
H1874 H 0.03651 0.47695 0.37706 0.0
H1875 H 0.10073 0.52299 0.41341 0.0
H1876 H 0.0479 0.54766 0.46646 0.0
H1877 H 0.06925 0.54252 0.42981 0.0
H1878 H 0.03554 0.46569 0.41864 0.0
H1879 H 0.01416 0.47104 0.45504 0.0
C1880 C 0.06695 0.48295 0.35601 0.0
C1881 C 0.0909 0.49457 0.35519 0.0
C1882 C 0.0551 0.48584 0.37731 0.0
C1883 C 0.06687 0.50044 0.39838 0.0
C1884 C 0.0909 0.51192 0.39752 0.0
C1885 C 0.10274 0.50902 0.37624 0.0
C1886 C 0.04529 0.52965 0.45629 0.0
C1887 C 0.02944 0.50975 0.46371 0.0
C1888 C 0.05752 0.52665 0.43525 0.0
C1889 C 0.05415 0.50366 0.42108 0.0
C1890 C 0.03835 0.48376 0.42874 0.0
C1891 C 0.02616 0.48679 0.44972 0.0
H1892 H 0.73976 0.89787 0.63673 0.0
H1893 H 0.72916 0.83985 0.57743 0.0
H1894 H 0.73126 0.8666 0.66611 0.0
H1895 H 0.72097 0.80866 0.60687 0.0
H1896 H 0.76103 0.77491 0.67592 0.0
H1897 H 0.75291 0.79865 0.64068 0.0
H1898 H 0.69905 0.83064 0.67814 0.0
H1899 H 0.70688 0.80651 0.71333 0.0
C1900 C 0.73517 0.87851 0.62995 0.0
C1901 C 0.73542 0.87123 0.60492 0.0
C1902 C 0.7301 0.86066 0.64669 0.0
C1903 C 0.72548 0.83529 0.63865 0.0
C1904 C 0.72448 0.82813 0.61345 0.0
C1905 C 0.72922 0.84597 0.59668 0.0
C1906 C 0.7468 0.78627 0.67619 0.0
C1907 C 0.73464 0.789 0.69726 0.0
C1908 C 0.7421 0.79979 0.65604 0.0
C1909 C 0.72552 0.81658 0.6569 0.0
C1910 C 0.71196 0.81783 0.67716 0.0
C1911 C 0.71632 0.80389 0.69715 0.0
H1912 H 0.6436 0.40908 0.51873 0.0
H1913 H 0.69502 0.46928 0.55629 0.0
H1914 H 0.61241 0.43601 0.51744 0.0
H1915 H 0.66397 0.49598 0.55539 0.0
H1916 H 0.61109 0.54549 0.52556 0.0
H1917 H 0.64133 0.51778 0.52722 0.0
H1918 H 0.58677 0.45752 0.54189 0.0
H1919 H 0.55655 0.48528 0.53927 0.0
C1920 C 0.64822 0.428 0.52686 0.0
C1921 C 0.67189 0.43697 0.53756 0.0
C1922 C 0.63028 0.44346 0.52624 0.0
C1923 C 0.63555 0.46836 0.5362 0.0
C1924 C 0.6592 0.47713 0.54714 0.0
C1925 C 0.67705 0.4617 0.54781 0.0
C1926 C 0.60556 0.52636 0.52932 0.0
C1927 C 0.58138 0.51782 0.53302 0.0
C1928 C 0.62298 0.51043 0.5304 0.0
C1929 C 0.61674 0.4853 0.53498 0.0
C1930 C 0.59241 0.47667 0.53832 0.0
C1931 C 0.57503 0.49273 0.53734 0.0
H1932 H 0.21599 0.06764 0.48251 0.0
H1933 H 0.18754 0.13648 0.47673 0.0
H1934 H 0.17491 0.04529 0.4825 0.0
H1935 H 0.14671 0.1143 0.47703 0.0
H1936 H 0.07409 0.06766 0.46721 0.0
H1937 H 0.11419 0.08292 0.45562 0.0
H1938 H 0.14639 0.04576 0.51449 0.0
H1939 H 0.10642 0.03015 0.52589 0.0
C1940 C 0.20094 0.07789 0.48079 0.0
C1941 C 0.20489 0.10379 0.47991 0.0
C1942 C 0.17749 0.06514 0.48089 0.0
C1943 C 0.15768 0.07809 0.47995 0.0
C1944 C 0.1616 0.10378 0.47753 0.0
C1945 C 0.18499 0.11651 0.47755 0.0
C1946 C 0.08969 0.06241 0.47746 0.0
C1947 C 0.08709 0.04796 0.49769 0.0
C1948 C 0.11263 0.0712 0.47082 0.0
C1949 C 0.13337 0.06563 0.48423 0.0
C1950 C 0.13071 0.05013 0.50364 0.0
C1951 C 0.1078 0.04139 0.51032 0.0
H1952 H 0.23734 0.97051 0.81192 0.0
H1953 H 0.17314 0.92155 0.77961 0.0
H1954 H 0.261 0.9367 0.80693 0.0
H1955 H 0.19672 0.88786 0.7747 0.0
H1956 H 0.25278 0.84198 0.74645 0.0
H1957 H 0.22972 0.87649 0.75028 0.0
H1958 H 0.26376 0.89607 0.82438 0.0
H1959 H 0.28622 0.86136 0.82068 0.0
C1960 C 0.22829 0.95254 0.80383 0.0
C1961 C 0.2034 0.94866 0.79623 0.0
C1962 C 0.2418 0.93318 0.80102 0.0
C1963 C 0.23071 0.90965 0.79035 0.0
C1964 C 0.20582 0.90585 0.78269 0.0
C1965 C 0.1923 0.92511 0.78569 0.0
C1966 C 0.25495 0.85344 0.76363 0.0
C1967 C 0.27085 0.84874 0.7834 0.0
C1968 C 0.24193 0.87327 0.7658 0.0
C1969 C 0.2449 0.88895 0.78767 0.0
C1970 C 0.26126 0.8845 0.80722 0.0
C1971 C 0.27408 0.86459 0.8051 0.0
H1972 H 0.3082 0.91343 1.00124 0.0
H1973 H 0.30009 0.9616 0.06473 0.0
H1974 H 0.34908 0.93522 0.99957 0.0
H1975 H 0.34124 0.98351 0.06305 0.0
H1976 H 0.42601 0.9933 0.06713 0.0
H1977 H 0.38395 0.97449 0.06932 0.0
H1978 H 0.3697 0.97677 0.99063 0.0
H1979 H 0.4117 0.99552 0.9885 0.0
C1980 C 0.31514 0.92873 0.01482 0.0
C1981 C 0.30092 0.9358 0.03313 0.0
C1982 C 0.33853 0.94132 0.01377 0.0
C1983 C 0.34838 0.96115 0.03113 0.0
C1984 C 0.33419 0.9682 0.04951 0.0
C1985 C 0.31063 0.95574 0.05041 0.0
C1986 C 0.4138 0.98993 0.05036 0.0
C1987 C 0.42209 0.99575 0.02763 0.0
C1988 C 0.38971 0.97928 0.05162 0.0
C1989 C 0.37352 0.97403 0.03013 0.0
C1990 C 0.3818 0.98032 0.00747 0.0
C1991 C 0.4058 0.99116 0.00625 0.0
H1992 H 0.88664 0.65053 0.74256 0.0
H1993 H 0.83644 0.60301 0.78077 0.0
H1994 H 0.85898 0.68118 0.74122 0.0
H1995 H 0.80925 0.63365 0.78008 0.0
H1996 H 0.75409 0.68148 0.75578 0.0
H1997 H 0.78193 0.65127 0.75367 0.0
H1998 H 0.84252 0.71095 0.7665 0.0
H1999 H 0.81452 0.74082 0.76856 0.0
C2000 C 0.86977 0.64669 0.75077 0.0
C2001 C 0.86374 0.62428 0.76171 0.0
C2002 C 0.85393 0.6643 0.75011 0.0
C2003 C 0.83168 0.65992 0.76039 0.0
C2004 C 0.82588 0.63755 0.77148 0.0
C2005 C 0.84163 0.62 0.77207 0.0
C2006 C 0.77337 0.68809 0.75778 0.0
C2007 C 0.78209 0.71362 0.7614 0.0
C2008 C 0.78939 0.67079 0.75678 0.0
C2009 C 0.81462 0.67855 0.75987 0.0
C2010 C 0.82329 0.70421 0.76344 0.0
C2011 C 0.8072 0.72148 0.76431 0.0
H2012 H 0.83236 0.58753 0.97428 0.0
H2013 H 0.82217 0.60323 0.05079 0.0
H2014 H 0.86318 0.56245 0.98652 0.0
H2015 H 0.85291 0.57798 0.06301 0.0
H2016 H 0.93567 0.56899 0.06716 0.0
H2017 H 0.89759 0.585 0.06079 0.0
H2018 H 0.87019 0.52379 0.0067 0.0
H2019 H 0.90848 0.50781 0.01304 0.0
C2020 C 0.83654 0.58539 0.99368 0.0
C2021 C 0.82512 0.59749 0.0116 0.0
C2022 C 0.85397 0.57083 1.00067 0.0
C2023 C 0.86033 0.56825 0.02572 0.0
C2024 C 0.84838 0.57977 0.0436 0.0
C2025 C 0.83084 0.59421 0.0366 0.0
C2026 C 0.92124 0.5586 0.05444 0.0
C2027 C 0.92497 0.53738 0.04038 0.0
C2028 C 0.89943 0.5677 0.05084 0.0
C2029 C 0.88111 0.55577 0.03302 0.0
C2030 C 0.8842 0.53347 0.02031 0.0
C2031 C 0.90599 0.52427 0.02405 0.0
H2032 H 0.16485 0.08719 0.76835 0.0
H2033 H 0.2256 0.07937 0.81988 0.0
H2034 H 0.18248 0.13004 0.76406 0.0
H2035 H 0.24329 0.12255 0.81561 0.0
H2036 H 0.24888 0.2095 0.82099 0.0
H2037 H 0.23366 0.16593 0.82568 0.0
H2038 H 0.21861 0.15255 0.74675 0.0
H2039 H 0.23376 0.19597 0.74195 0.0
C2040 C 0.182 0.09463 0.77877 0.0
C2041 C 0.19385 0.07989 0.79444 0.0
C2042 C 0.19216 0.11916 0.7762 0.0
C2043 C 0.21432 0.12965 0.78942 0.0
C2044 C 0.22612 0.115 0.80529 0.0
C2045 C 0.21606 0.09028 0.80765 0.0
C2046 C 0.24243 0.19727 0.80461 0.0
C2047 C 0.24248 0.20633 0.78109 0.0
C2048 C 0.23385 0.17226 0.80732 0.0
C2049 C 0.22484 0.15584 0.7866 0.0
C2050 C 0.2252 0.16481 0.76309 0.0
C2051 C 0.23401 0.1897 0.76035 0.0
H2052 H 0.35253 1.00311 0.22329 0.0
H2053 H 0.37523 1.00233 0.30078 0.0
H2054 H 0.32672 0.96287 0.22429 0.0
H2055 H 0.34948 0.96243 0.30179 0.0
H2056 H 0.28519 0.9011 0.30036 0.0
H2057 H 0.30522 0.94359 0.29691 0.0
H2058 H 0.33468 0.91906 0.23096 0.0
H2059 H 0.31478 0.87669 0.23449 0.0
C2060 C 0.3519 0.99441 0.24052 0.0
C2061 C 0.36597 0.00577 0.26192 0.0
C2062 C 0.33718 0.97141 0.24109 0.0
C2063 C 0.33601 0.95959 0.26315 0.0
C2064 C 0.34975 0.97124 0.2846 0.0
C2065 C 0.36466 0.99399 0.28396 0.0
C2066 C 0.29567 0.90492 0.28497 0.0
C2067 C 0.29861 0.88567 0.26779 0.0
C2068 C 0.3072 0.92915 0.28305 0.0
C2069 C 0.32161 0.93458 0.26374 0.0
C2070 C 0.32357 0.91548 0.24593 0.0
C2071 C 0.31229 0.89122 0.24802 0.0
H2072 H 0.4939 0.30843 0.59334 0.0
H2073 H 0.49851 0.35639 0.66012 0.0
H2074 H 0.49624 0.34468 0.5691 0.0
H2075 H 0.50032 0.39241 0.63599 0.0
H2076 H 0.53436 0.45193 0.59123 0.0
H2077 H 0.53028 0.41423 0.61271 0.0
H2078 H 0.47494 0.379 0.55611 0.0
H2079 H 0.47948 0.41703 0.53418 0.0
C2080 C 0.49514 0.32669 0.6028 0.0
C2081 C 0.49625 0.32962 0.62864 0.0
C2082 C 0.49637 0.34741 0.58891 0.0
C2083 C 0.49876 0.37144 0.60063 0.0
C2084 C 0.49901 0.37419 0.62642 0.0
C2085 C 0.49783 0.35354 0.64026 0.0
C2086 C 0.5214 0.43611 0.58327 0.0
C2087 C 0.50711 0.4374 0.56115 0.0
C2088 C 0.51892 0.41455 0.59569 0.0
C2089 C 0.50198 0.39375 0.58637 0.0
C2090 C 0.48817 0.39473 0.56375 0.0
C2091 C 0.49072 0.41644 0.55122 0.0
H2092 H 0.46629 0.75111 0.32306 0.0
H2093 H 0.46723 0.82956 0.33964 0.0
H2094 H 0.42475 0.74712 0.304 0.0
H2095 H 0.42559 0.82554 0.32147 0.0
H2096 H 0.35599 0.81656 0.27271 0.0
H2097 H 0.39893 0.81881 0.28519 0.0
H2098 H 0.38479 0.74726 0.31489 0.0
H2099 H 0.34183 0.74467 0.30159 0.0
C2100 C 0.45768 0.76755 0.32246 0.0
C2101 C 0.47011 0.79067 0.33282 0.0
C2102 C 0.43375 0.76523 0.31174 0.0
C2103 C 0.42158 0.78596 0.31122 0.0
C2104 C 0.43433 0.80919 0.32109 0.0
C2105 C 0.45827 0.81151 0.33165 0.0
C2106 C 0.36204 0.80116 0.28169 0.0
C2107 C 0.34537 0.78046 0.28621 0.0
C2108 C 0.38673 0.80254 0.28902 0.0
C2109 C 0.3955 0.78337 0.30137 0.0
C2110 C 0.37888 0.76229 0.3052 0.0
C2111 C 0.35416 0.76081 0.29763 0.0
H2112 H 0.00569 0.68033 0.15537 0.0
H2113 H 0.99412 0.71899 0.08999 0.0
H2114 H 0.01109 0.64364 0.12989 0.0
H2115 H 0.99859 0.6821 0.06441 0.0
H2116 H 0.03903 0.62428 0.02902 0.0
H2117 H 0.02966 0.65988 0.0535 0.0
H2118 H 0.99269 0.61029 0.10132 0.0
H2119 H 1.00327 0.57492 0.07758 0.0
C2120 C 1.00384 0.68081 0.13552 0.0
C2121 C 0.9996 0.70256 0.12469 0.0
C2122 C 0.00684 0.65974 0.12086 0.0
C2123 C 0.00547 0.65988 0.095 0.0
C2124 C 1.0003 0.68142 0.08423 0.0
C2125 C 0.99753 0.70253 0.09889 0.0
C2126 C 0.0288 0.62104 0.0447 0.0
C2127 C 0.02172 0.59683 0.05127 0.0
C2128 C 0.02324 0.64143 0.05866 0.0
C2129 C 0.01034 0.63805 0.07945 0.0
C2130 C 1.0029 0.61369 0.08567 0.0
C2131 C 0.00866 0.59335 0.07183 0.0
H2132 H 0.07398 0.27903 0.80619 0.0
H2133 H 0.11775 0.31315 0.87196 0.0
H2134 H 0.11047 0.27834 0.7851 0.0
H2135 H 0.15418 0.31267 0.85085 0.0
H2136 H 0.21397 0.27883 0.81309 0.0
H2137 H 0.17821 0.28225 0.83464 0.0
H2138 H 0.1428 0.30618 0.769 0.0
H2139 H 0.17887 0.30318 0.74774 0.0
C2140 C 0.09138 0.28652 0.81609 0.0
C2141 C 0.09296 0.29614 0.84074 0.0
C2142 C 0.11229 0.28624 0.80397 0.0
C2143 C 0.13529 0.29545 0.81628 0.0
C2144 C 0.13681 0.30519 0.84091 0.0
C2145 C 0.1159 0.3056 0.85296 0.0
C2146 C 0.1989 0.28568 0.80361 0.0
C2147 C 0.19949 0.2915 0.77904 0.0
C2148 C 0.17826 0.28736 0.81583 0.0
C2149 C 0.15761 0.29457 0.80358 0.0
C2150 C 0.15828 0.30036 0.77893 0.0
C2151 C 0.17897 0.2988 0.7668 0.0
H2152 H 0.49816 0.71389 0.98453 0.0
H2153 H 0.57221 0.70958 0.9716 0.0
H2154 H 0.49561 0.67468 1.00392 0.0
H2155 H 0.5695 0.67021 0.9904 0.0
H2156 H 0.56454 0.6133 0.04695 0.0
H2157 H 0.5662 0.65376 0.03033 0.0
H2158 H 0.49484 0.63063 0.99209 0.0
H2159 H 0.4929 0.59043 0.00964 0.0
C2160 C 0.51387 0.70456 0.98587 0.0
C2161 C 0.53539 0.71474 0.97664 0.0
C2162 C 0.51236 0.68207 0.99681 0.0
C2163 C 0.53235 0.66939 0.99866 0.0
C2164 C 0.55391 0.67973 0.98956 0.0
C2165 C 0.55543 0.70221 0.97869 0.0
C2166 C 0.54917 0.61697 0.03512 0.0
C2167 C 0.5287 0.59877 0.02926 0.0
C2168 C 0.55018 0.64003 0.02547 0.0
C2169 C 0.53074 0.64529 0.00975 0.0
C2170 C 0.51004 0.62717 1.00428 0.0
C2171 C 0.50902 0.60409 0.01404 0.0
H2172 H 0.05051 0.78056 0.69249 0.0
H2173 H 0.09377 0.80389 0.63421 0.0
H2174 H 0.08713 0.78324 0.72067 0.0
H2175 H 0.13041 0.80594 0.66215 0.0
H2176 H 0.19112 0.82705 0.72195 0.0
H2177 H 0.15267 0.82934 0.69833 0.0
H2178 H 0.12109 0.76096 0.72635 0.0
H2179 H 0.15935 0.75916 0.75048 0.0
C2180 C 0.06787 0.78619 0.68571 0.0
C2181 C 0.06938 0.79194 0.66118 0.0
C2182 C 0.08881 0.78766 0.70181 0.0
C2183 C 0.11163 0.79485 0.69364 0.0
C2184 C 0.11306 0.80077 0.66911 0.0
C2185 C 0.09212 0.79938 0.65304 0.0
C2186 C 0.1758 0.81276 0.72329 0.0
C2187 C 0.1781 0.79283 0.73778 0.0
C2188 C 0.15388 0.81396 0.70968 0.0
C2189 C 0.13397 0.79516 0.71023 0.0
C2190 C 0.13604 0.77583 0.72568 0.0
C2191 C 0.15794 0.77473 0.73942 0.0
H2192 H 0.02869 0.32462 0.51147 0.0
H2193 H 0.07875 0.35842 0.46344 0.0
H2194 H 0.02992 0.36472 0.53417 0.0
H2195 H 0.07891 0.39886 0.48498 0.0
H2196 H 1.00339 0.44019 0.53394 0.0
H2197 H 0.01187 0.39887 0.52434 0.0
H2198 H 0.08688 0.42854 0.51906 0.0
H2199 H 0.078 0.47042 0.52764 0.0
C2200 C 0.0402 0.34065 0.50601 0.0
C2201 C 0.05337 0.3386 0.48557 0.0
C2202 C 0.04079 0.36367 0.51885 0.0
C2203 C 0.05403 0.38522 0.51107 0.0
C2204 C 0.06862 0.38274 0.49168 0.0
C2205 C 0.06845 0.35957 0.47919 0.0
C2206 C 0.02181 0.43798 0.53117 0.0
C2207 C 0.03993 0.45869 0.53122 0.0
C2208 C 0.02678 0.41411 0.52584 0.0
C2209 C 0.05008 0.41023 0.52074 0.0
C2210 C 0.06862 0.43085 0.52242 0.0
C2211 C 0.06356 0.45485 0.5275 0.0
H2212 H 0.41934 0.30082 0.13374 0.0
H2213 H 0.47031 0.2928 0.19561 0.0
H2214 H 0.38869 0.30584 0.16177 0.0
H2215 H 0.43975 0.29817 0.22366 0.0
H2216 H 0.36708 0.27311 0.25692 0.0
H2217 H 0.40136 0.2736 0.23248 0.0
H2218 H 0.37944 0.33501 0.19487 0.0
H2219 H 0.34493 0.33426 0.21916 0.0
C2220 C 0.424 0.30026 0.15333 0.0
C2221 C 0.4471 0.29628 0.16252 0.0
C2222 C 0.40656 0.30336 0.16938 0.0
C2223 C 0.41191 0.30249 0.19489 0.0
C2224 C 0.43511 0.29874 0.20407 0.0
C2225 C 0.45257 0.2957 0.18802 0.0
C2226 C 0.36989 0.287 0.24376 0.0
C2227 C 0.35341 0.30356 0.23976 0.0
C2228 C 0.38952 0.28733 0.22982 0.0
C2229 C 0.3929 0.30419 0.21163 0.0
C2230 C 0.37702 0.32157 0.20852 0.0
C2231 C 0.35743 0.32127 0.22251 0.0
H2232 H 0.64297 0.49624 0.38871 0.0
H2233 H 0.58257 0.50103 0.33552 0.0
H2234 H 0.61615 0.49532 0.42162 0.0
H2235 H 0.55579 0.49976 0.36823 0.0
H2236 H 0.52837 0.53642 0.43706 0.0
H2237 H 0.55129 0.52938 0.4023 0.0
H2238 H 0.58101 0.47119 0.43864 0.0
H2239 H 0.55812 0.47846 0.47377 0.0
C2240 C 0.62394 0.49679 0.38402 0.0
C2241 C 0.61492 0.49897 0.35959 0.0
C2242 C 0.60854 0.49608 0.40283 0.0
C2243 C 0.58385 0.49759 0.39755 0.0
C2244 C 0.57476 0.49889 0.37296 0.0
C2245 C 0.59011 0.49957 0.3542 0.0
C2246 C 0.53944 0.5218 0.43747 0.0
C2247 C 0.54141 0.50798 0.45814 0.0
C2248 C 0.55252 0.51769 0.41748 0.0
C2249 C 0.56806 0.49979 0.41774 0.0
C2250 C 0.56934 0.48527 0.43801 0.0
C2251 C 0.55602 0.48923 0.45798 0.0
H2252 H 0.26253 0.8889 0.12034 0.0
H2253 H 0.21436 0.82465 0.08575 0.0
H2254 H 0.26992 0.86653 0.1568 0.0
H2255 H 0.22145 0.8023 0.12239 0.0
H2256 H 0.26023 0.76057 0.17998 0.0
H2257 H 0.25254 0.78358 0.14403 0.0
H2258 H 0.25176 0.84947 0.19187 0.0
H2259 H 0.25941 0.82624 0.22777 0.0
C2260 C 0.25335 0.87003 0.12058 0.0
C2261 C 0.23785 0.8586 0.10003 0.0
C2262 C 0.25751 0.85721 0.1416 0.0
C2263 C 0.24639 0.83249 0.14268 0.0
C2264 C 0.23065 0.82116 0.12219 0.0
C2265 C 0.22642 0.83404 0.10119 0.0
C2266 C 0.25857 0.78002 0.18281 0.0
C2267 C 0.26091 0.79168 0.20677 0.0
C2268 C 0.25395 0.79321 0.16217 0.0
C2269 C 0.25147 0.81849 0.16486 0.0
C2270 C 0.25391 0.83017 0.18893 0.0
C2271 C 0.25846 0.8169 0.2096 0.0
H2272 H 0.9711 0.54467 0.82114 0.0
H2273 H 0.93055 0.59934 0.84965 0.0
H2274 H 0.98886 0.54058 0.86278 0.0
H2275 H 0.94858 0.59558 0.89131 0.0
H2276 H 0.96141 0.5578 0.96369 0.0
H2277 H 0.94619 0.56582 0.9223 0.0
H2278 H 0.01618 0.5609 0.89729 0.0
H2279 H 0.03133 0.55248 0.9386 0.0
C2280 C 0.96624 0.5561 0.83626 0.0
C2281 C 0.94937 0.57232 0.83201 0.0
C2282 C 0.97651 0.55383 0.86019 0.0
C2283 C 0.97012 0.56765 0.88057 0.0
C2284 C 0.95369 0.58435 0.87619 0.0
C2285 C 0.94349 0.58668 0.85223 0.0
C2286 C 0.97366 0.55859 0.94945 0.0
C2287 C 0.99763 0.55439 0.95462 0.0
C2288 C 0.96493 0.56334 0.92565 0.0
C2289 C 0.97989 0.56397 0.90628 0.0
C2290 C 1.004 0.56023 0.91158 0.0
C2291 C 0.01275 0.55556 0.9354 0.0
H2292 H 0.24203 0.16501 0.57099 0.0
H2293 H 0.29793 0.22021 0.54922 0.0
H2294 H 0.23989 0.19086 0.60823 0.0
H2295 H 0.2954 0.24659 0.58657 0.0
H2296 H 0.30244 0.26587 0.67276 0.0
H2297 H 0.30487 0.24632 0.63164 0.0
H2298 H 0.22683 0.22945 0.62095 0.0
H2299 H 0.22455 0.24812 0.66212 0.0
C2300 C 0.25372 0.18282 0.57408 0.0
C2301 C 0.27015 0.19063 0.55726 0.0
C2302 C 0.25236 0.19773 0.59533 0.0
C2303 C 0.26731 0.22087 0.60018 0.0
C2304 C 0.28374 0.22879 0.58332 0.0
C2305 C 0.28513 0.21377 0.56196 0.0
C2306 C 0.28588 0.2583 0.66136 0.0
C2307 C 0.26334 0.25807 0.67054 0.0
C2308 C 0.28723 0.24723 0.63785 0.0
C2309 C 0.26603 0.23601 0.62329 0.0
C2310 C 0.24348 0.23741 0.632 0.0
C2311 C 0.24216 0.24818 0.65548 0.0
H2312 H 0.61012 0.54314 0.24227 0.0
H2313 H 0.62071 0.46756 0.22475 0.0
H2314 H 0.58737 0.54304 0.20223 0.0
H2315 H 0.59725 0.46712 0.1849 0.0
H2316 H 0.58186 0.48899 0.10511 0.0
H2317 H 0.60123 0.48502 0.14616 0.0
H2318 H 0.55015 0.52608 0.17836 0.0
H2319 H 0.53145 0.53072 0.1373 0.0
C2320 C 0.60731 0.5264 0.22995 0.0
C2321 C 0.61724 0.5054 0.23656 0.0
C2322 C 0.59413 0.52626 0.20706 0.0
C2323 C 0.59043 0.50504 0.19034 0.0
C2324 C 0.60003 0.48387 0.1972 0.0
C2325 C 0.61335 0.48407 0.22006 0.0
C2326 C 0.57468 0.4969 0.12103 0.0
C2327 C 0.55537 0.51034 0.11814 0.0
C2328 C 0.58567 0.49455 0.14454 0.0
C2329 C 0.57739 0.50546 0.16556 0.0
C2330 C 0.55731 0.51792 0.16256 0.0
C2331 C 0.54648 0.52043 0.13908 0.0
H2332 H 0.21472 0.88331 0.94476 0.0
H2333 H 0.24385 0.82485 0.98101 0.0
H2334 H 0.22146 0.86428 0.90486 0.0
H2335 H 0.25023 0.8055 0.94107 0.0
H2336 H 0.28552 0.79573 0.86858 0.0
H2337 H 0.2762 0.81215 0.90855 0.0
H2338 H 0.20903 0.82967 0.87477 0.0
H2339 H 0.21854 0.8137 0.83475 0.0
C2340 C 0.22223 0.86617 0.9442 0.0
C2341 C 0.22871 0.85563 0.96616 0.0
C2342 C 0.22605 0.85516 0.92125 0.0
C2343 C 0.23653 0.83332 0.91956 0.0
C2344 C 0.24248 0.82249 0.94155 0.0
C2345 C 0.2386 0.83347 0.9645 0.0
C2346 C 0.26867 0.80293 0.86964 0.0
C2347 C 0.25282 0.8033 0.84826 0.0
C2348 C 0.26324 0.81227 0.89268 0.0
C2349 C 0.24182 0.82234 0.89508 0.0
C2350 C 0.22584 0.8224 0.87373 0.0
C2351 C 0.23124 0.81302 0.8507 0.0
H2352 H 0.91738 0.53719 0.67913 0.0
H2353 H 0.97815 0.58913 0.71415 0.0
H2354 H 0.93856 0.53279 0.64248 0.0
H2355 H 0.99976 0.58424 0.67773 0.0
H2356 H 0.0231 0.58862 0.60002 0.0
H2357 H 1.00112 0.59362 0.63606 0.0
H2358 H 0.97093 0.51568 0.62648 0.0
H2359 H 0.99269 0.51098 0.59011 0.0
C2360 C 0.93535 0.54763 0.67905 0.0
C2361 C 0.94603 0.56356 0.69963 0.0
C2362 C 0.94761 0.54495 0.65803 0.0
C2363 C 0.97101 0.55807 0.65695 0.0
C2364 C 0.98166 0.57406 0.67759 0.0
C2365 C 0.96933 0.5768 0.69861 0.0
C2366 C 0.01173 0.57257 0.60562 0.0
C2367 C 0.00954 0.54943 0.59213 0.0
C2368 C 0.9992 0.57538 0.62643 0.0
C2369 C 0.98419 0.55507 0.63445 0.0
C2370 C 0.98197 0.53189 0.62078 0.0
C2371 C 0.99446 0.52913 0.59989 0.0
H2372 H 0.32184 0.2082 0.45346 0.0
H2373 H 0.25149 0.17449 0.4185 0.0
H2374 H 0.32378 0.23978 0.42331 0.0
H2375 H 0.25338 0.20587 0.38899 0.0
H2376 H 0.24869 0.27613 0.35715 0.0
H2377 H 0.25402 0.254 0.39399 0.0
H2378 H 0.32314 0.23875 0.37382 0.0
H2379 H 0.31798 0.26094 0.33683 0.0
C2380 C 0.30695 0.20745 0.43928 0.0
C2381 C 0.28649 0.18898 0.4383 0.0
C2382 C 0.30803 0.2255 0.42221 0.0
C2383 C 0.28849 0.22545 0.40433 0.0
C2384 C 0.26842 0.2066 0.40302 0.0
C2385 C 0.26747 0.1885 0.41975 0.0
C2386 C 0.26535 0.26871 0.36087 0.0
C2387 C 0.28263 0.26971 0.3438 0.0
C2388 C 0.26837 0.25606 0.38194 0.0
C2389 C 0.28873 0.24432 0.38629 0.0
C2390 C 0.30728 0.24766 0.37075 0.0
C2391 C 0.30427 0.26033 0.34958 0.0
H2392 H 0.38996 0.65261 0.49638 0.0
H2393 H 0.34652 0.59904 0.53509 0.0
H2394 H 0.42123 0.62588 0.49578 0.0
H2395 H 0.37791 0.57299 0.53567 0.0
H2396 H 0.42662 0.51853 0.51515 0.0
H2397 H 0.39598 0.54562 0.51281 0.0
H2398 H 0.45221 0.60958 0.51772 0.0
H2399 H 0.4826 0.58209 0.51922 0.0
C2400 C 0.38718 0.63523 0.50495 0.0
C2401 C 0.36562 0.62795 0.51564 0.0
C2402 C 0.4052 0.61987 0.50476 0.0
C2403 C 0.40229 0.5969 0.51549 0.0
C2404 C 0.38081 0.59004 0.52657 0.0
C2405 C 0.36276 0.60518 0.52646 0.0
C2406 C 0.4324 0.53838 0.51542 0.0
C2407 C 0.45712 0.54805 0.51678 0.0
C2408 C 0.41479 0.55407 0.51435 0.0
C2409 C 0.42132 0.5801 0.51523 0.0
C2410 C 0.44619 0.58974 0.51648 0.0
C2411 C 0.46379 0.57392 0.51718 0.0
H2412 H 0.84851 0.92609 0.5767 0.0
H2413 H 0.82173 0.99513 0.56606 0.0
H2414 H 0.88961 0.94676 0.57375 0.0
H2415 H 0.86285 0.01591 0.56357 0.0
H2416 H 0.96323 0.99378 0.57906 0.0
H2417 H 0.92349 0.97842 0.59147 0.0
H2418 H 0.88994 0.01281 0.53128 0.0
H2419 H 0.92956 0.02854 0.51909 0.0
C2420 C 0.85149 0.94581 0.57436 0.0
C2421 C 0.83194 0.95895 0.57129 0.0
C2422 C 0.87503 0.95768 0.57275 0.0
C2423 C 0.87939 0.98289 0.56809 0.0
C2424 C 0.85997 0.99636 0.56671 0.0
C2425 C 0.83646 0.9845 0.56828 0.0
C2426 C 0.9474 0.99833 0.56863 0.0
C2427 C 0.94957 0.01227 0.54797 0.0
C2428 C 0.92465 0.98944 0.57572 0.0
C2429 C 0.90362 0.99437 0.56235 0.0
C2430 C 0.90583 0.00898 0.54219 0.0
C2431 C 0.92855 0.01784 0.53507 0.0
H2432 H 0.80478 0.09021 0.26868 0.0
H2433 H 0.85594 0.13654 0.23034 0.0
H2434 H 0.78344 0.1253 0.27642 0.0
H2435 H 0.83442 0.17145 0.23765 0.0
H2436 H 0.80703 0.2352 0.27725 0.0
H2437 H 0.82771 0.19946 0.27175 0.0
H2438 H 0.75859 0.15206 0.25535 0.0
H2439 H 0.73809 0.18793 0.26209 0.0
C2440 C 0.81128 0.10781 0.26164 0.0
C2441 C 0.83203 0.11063 0.24892 0.0
C2442 C 0.79905 0.1279 0.26605 0.0
C2443 C 0.80735 0.15125 0.25785 0.0
C2444 C 0.82781 0.15386 0.24464 0.0
C2445 C 0.84001 0.13379 0.24023 0.0
C2446 C 0.79632 0.21711 0.27357 0.0
C2447 C 0.77102 0.2143 0.27101 0.0
C2448 C 0.80812 0.19662 0.26974 0.0
C2449 C 0.7948 0.17285 0.26306 0.0
C2450 C 0.76941 0.17002 0.26079 0.0
C2451 C 0.75768 0.19056 0.26458 0.0
H2452 H 0.73175 0.15934 0.04427 0.0
H2453 H 0.74269 0.10354 0.98858 0.0
H2454 H 0.69098 0.13749 0.0471 0.0
H2455 H 0.7016 0.08184 0.99117 0.0
H2456 H 0.61615 0.07236 0.98482 0.0
H2457 H 0.65791 0.09168 0.9818 0.0
H2458 H 0.67229 0.09498 0.06093 0.0
H2459 H 0.63061 0.07529 0.06391 0.0
C2460 C 0.72539 0.14247 0.03254 0.0
C2461 C 0.74038 0.13316 0.01616 0.0
C2462 C 0.70212 0.12988 0.0343 0.0
C2463 C 0.69318 0.10793 0.01942 0.0
C2464 C 0.70803 0.09877 1.00279 0.0
C2465 C 0.73152 0.11114 1.00135 0.0
C2466 C 0.62832 0.07705 1.00153 0.0
C2467 C 0.6202 0.07242 0.02461 0.0
C2468 C 0.65221 0.08799 0.99979 0.0
C2469 C 0.66829 0.0949 0.02114 0.0
C2470 C 0.6602 0.09 0.0442 0.0
C2471 C 0.63643 0.07866 0.0459 0.0
H2472 H 0.20055 0.45783 0.30205 0.0
H2473 H 0.13626 0.40265 0.29076 0.0
H2474 H 0.22562 0.4253 0.30095 0.0
H2475 H 0.16139 0.36978 0.29059 0.0
H2476 H 0.21335 0.32054 0.2601 0.0
H2477 H 0.18702 0.35157 0.26538 0.0
H2478 H 0.24001 0.39277 0.32107 0.0
H2479 H 0.26668 0.36184 0.3151 0.0
C2480 C 0.19174 0.43867 0.29969 0.0
C2481 C 0.16637 0.43286 0.2964 0.0
C2482 C 0.20617 0.41992 0.29924 0.0
C2483 C 0.19567 0.39475 0.29566 0.0
C2484 C 0.17021 0.38892 0.29298 0.0
C2485 C 0.15575 0.40775 0.29324 0.0
C2486 C 0.21928 0.33611 0.27366 0.0
C2487 C 0.24211 0.33877 0.2872 0.0
C2488 C 0.20408 0.35391 0.2768 0.0
C2489 C 0.21126 0.37487 0.29364 0.0
C2490 C 0.23395 0.37716 0.30762 0.0
C2491 C 0.24923 0.35938 0.30434 0.0
H2492 H 0.21724 0.45934 0.99398 0.0
H2493 H 0.21135 0.47663 0.07124 0.0
H2494 H 0.18653 0.4851 0.98315 0.0
H2495 H 0.18053 0.50212 0.06042 0.0
H2496 H 0.10414 0.49373 0.98277 0.0
H2497 H 0.14258 0.47823 0.98748 0.0
H2498 H 0.17135 0.53988 0.04064 0.0
H2499 H 0.13263 0.55531 0.03601 0.0
C2500 C 0.20959 0.46889 0.00863 0.0
C2501 C 0.21642 0.46578 0.03345 0.0
C2502 C 0.19204 0.4836 1.00242 0.0
C2503 C 0.18112 0.49554 0.02093 0.0
C2504 C 0.18885 0.49339 0.04576 0.0
C2505 C 0.20632 0.47861 0.05196 0.0
C2506 C 0.1189 0.50431 0.99496 0.0
C2507 C 0.11546 0.52551 0.00923 0.0
C2508 C 0.14094 0.49552 0.99758 0.0
C2509 C 0.15985 0.50774 0.01462 0.0
C2510 C 0.15694 0.52997 0.0276 0.0
C2511 C 0.13489 0.53886 0.02485 0.0
H2512 H 0.8711 0.97443 0.27826 0.0
H2513 H 0.81686 0.97944 0.21842 0.0
H2514 H 0.85345 0.93152 0.28187 0.0
H2515 H 0.79905 0.93615 0.22211 0.0
H2516 H 0.79269 0.84925 0.22258 0.0
H2517 H 0.80917 0.89231 0.21672 0.0
H2518 H 0.81523 0.91011 0.29532 0.0
H2519 H 0.79898 0.8674 0.30129 0.0
C2520 C 0.8554 0.96634 0.26582 0.0
C2521 C 0.84531 0.98037 0.24811 0.0
C2522 C 0.84521 0.94177 0.26798 0.0
C2523 C 0.82474 0.93049 0.2524 0.0
C2524 C 0.81489 0.94431 0.23431 0.0
C2525 C 0.82501 0.96909 0.23227 0.0
C2526 C 0.79748 0.86236 0.23861 0.0
C2527 C 0.79459 0.85474 0.26243 0.0
C2528 C 0.80679 0.88705 0.23522 0.0
C2529 C 0.81365 0.90455 0.25557 0.0
C2530 C 0.81044 0.89699 0.27929 0.0
C2531 C 0.80098 0.87246 0.28267 0.0
H2532 H 0.70384 0.04098 0.7879 0.0
H2533 H 0.63939 0.07525 0.78043 0.0
H2534 H 0.72881 0.08185 0.78693 0.0
H2535 H 0.66419 0.11572 0.77977 0.0
H2536 H 0.71506 0.18513 0.81055 0.0
H2537 H 0.69461 0.14287 0.81253 0.0
H2538 H 0.73498 0.11719 0.75512 0.0
H2539 H 0.75551 0.15996 0.7529 0.0
C2540 C 0.69505 0.0572 0.78608 0.0
C2541 C 0.66968 0.05497 0.78434 0.0
C2542 C 0.7093 0.08048 0.78541 0.0
C2543 C 0.6984 0.10189 0.78344 0.0
C2544 C 0.67306 0.09954 0.78157 0.0
C2545 C 0.65888 0.07636 0.78187 0.0
C2546 C 0.71981 0.17047 0.79849 0.0
C2547 C 0.73671 0.17582 0.7814 0.0
C2548 C 0.70803 0.1463 0.7996 0.0
C2549 C 0.71304 0.12686 0.78381 0.0
C2550 C 0.73085 0.1319 0.76752 0.0
C2551 C 0.74252 0.15629 0.76622 0.0
loop_
_geom_bond_atom_site_label_1
_geom_bond_atom_site_label_2
_geom_bond_distance
_geom_bond_site_symmetry_2
_ccdc_geom_bond_type
In0 O1 2.294 . S
In0 O2 2.326 . S
In0 O6 2.266 1_455 S
In0 O7 2.326 1_455 S
In0 O8 2.266 . S
In0 O9 2.326 . S
In0 O11 2.294 . S
In0 O12 2.326 . S
O1 In0 2.294 . S
O1 C10 1.240 . S
O2 In0 2.326 . S
O2 C10 1.252 . S
C3 O6 1.252 . S
C3 O7 1.260 . S
C4 O11 1.240 . S
C4 O12 1.252 . S
C5 O8 1.252 . S
C5 O9 1.260 . S
O6 In0 2.266 1_655 S
O6 C3 1.252 . S
O7 In0 2.326 1_655 S
O7 C3 1.260 . S
O8 In0 2.266 . S
O8 C5 1.252 . S
O9 In0 2.326 . S
O9 C5 1.260 . S
C10 O1 1.240 . S
C10 O2 1.252 . S
O11 In0 2.294 . S
O11 C4 1.240 . S
O12 In0 2.326 . S
O12 C4 1.252 . S
In13 O14 2.294 . S
In13 O15 2.326 . S
In13 O19 2.266 1_455 S
In13 O20 2.325 . S
In13 O21 2.266 1_455 S
In13 O22 2.326 1_455 S
In13 O24 2.294 . S
In13 O25 2.326 . S
O14 In13 2.294 . S
O14 C23 1.240 . S
O15 In13 2.326 . S
O15 C23 1.252 . S
C16 O19 1.252 . S
C16 O20 1.259 1_655 S
C17 O24 1.240 . S
C17 O25 1.252 . S
C18 O21 1.252 . S
C18 O22 1.260 . S
O19 In13 2.266 1_655 S
O19 C16 1.252 . S
O20 In13 2.325 . S
O20 C16 1.259 1_455 S
O21 In13 2.266 1_655 S
O21 C18 1.252 . S
O22 In13 2.326 1_655 S
O22 C18 1.260 . S
C23 O14 1.240 . S
C23 O15 1.252 . S
O24 In13 2.294 . S
O24 C17 1.240 . S
O25 In13 2.326 . S
O25 C17 1.252 . S
In26 O27 2.294 . S
In26 O28 2.326 . S
In26 O32 2.266 . S
In26 O33 2.326 . S
In26 O34 2.266 . S
In26 O35 2.326 . S
In26 O37 2.294 . S
In26 O38 2.326 . S
O27 In26 2.294 . S
O27 C36 1.240 . S
O28 In26 2.326 . S
O28 C36 1.252 . S
C29 O32 1.252 . S
C29 O33 1.260 . S
C30 O37 1.240 . S
C30 O38 1.252 . S
C31 O34 1.252 . S
C31 O35 1.260 . S
O32 In26 2.266 . S
O32 C29 1.252 . S
O33 In26 2.326 . S
O33 C29 1.260 . S
O34 In26 2.266 . S
O34 C31 1.252 . S
O35 In26 2.326 . S
O35 C31 1.260 . S
C36 O27 1.240 . S
C36 O28 1.252 . S
O37 In26 2.294 . S
O37 C30 1.240 . S
O38 In26 2.326 . S
O38 C30 1.252 . S
In39 O40 2.294 . S
In39 O41 2.326 . S
In39 O45 2.266 . S
In39 O46 2.326 . S
In39 O47 2.266 . S
In39 O48 2.326 . S
In39 O50 2.294 . S
In39 O51 2.326 . S
O40 In39 2.294 . S
O40 C49 1.240 . S
O41 In39 2.326 . S
O41 C49 1.252 . S
C42 O45 1.252 . S
C42 O46 1.260 . S
C43 O50 1.240 . S
C43 O51 1.252 . S
C44 O47 1.252 . S
C44 O48 1.260 . S
O45 In39 2.266 . S
O45 C42 1.252 . S
O46 In39 2.326 . S
O46 C42 1.260 . S
O47 In39 2.266 . S
O47 C44 1.252 . S
O48 In39 2.326 . S
O48 C44 1.260 . S
C49 O40 1.240 . S
C49 O41 1.252 . S
O50 In39 2.294 . S
O50 C43 1.240 . S
O51 In39 2.326 . S
O51 C43 1.252 . S
In52 O53 2.294 . S
In52 O54 2.326 . S
In52 O58 2.266 . S
In52 O59 2.326 . S
In52 O60 2.266 . S
In52 O61 2.326 . S
In52 O63 2.294 1_455 S
In52 O64 2.326 1_455 S
O53 In52 2.294 . S
O53 C62 1.240 . S
O54 In52 2.326 . S
O54 C62 1.252 . S
C55 O58 1.252 . S
C55 O59 1.260 . S
C56 O63 1.240 . S
C56 O64 1.252 . S
C57 O60 1.252 . S
C57 O61 1.260 . S
O58 In52 2.266 . S
O58 C55 1.252 . S
O59 In52 2.326 . S
O59 C55 1.260 . S
O60 In52 2.266 . S
O60 C57 1.252 . S
O61 In52 2.326 . S
O61 C57 1.260 . S
C62 O53 1.240 . S
C62 O54 1.252 . S
O63 In52 2.294 1_655 S
O63 C56 1.240 . S
O64 In52 2.326 1_655 S
O64 C56 1.252 . S
In65 O66 2.294 . S
In65 O67 2.326 . S
In65 O71 2.266 . S
In65 O72 2.326 . S
In65 O73 2.266 . S
In65 O74 2.326 . S
In65 O76 2.294 . S
In65 O77 2.326 . S
O66 In65 2.294 . S
O66 C75 1.240 . S
O67 In65 2.326 . S
O67 C75 1.252 . S
C68 O71 1.252 . S
C68 O72 1.260 . S
C69 O76 1.240 . S
C69 O77 1.252 . S
C70 O73 1.252 . S
C70 O74 1.260 . S
O71 In65 2.266 . S
O71 C68 1.252 . S
O72 In65 2.326 . S
O72 C68 1.260 . S
O73 In65 2.266 . S
O73 C70 1.252 . S
O74 In65 2.326 . S
O74 C70 1.260 . S
C75 O66 1.240 . S
C75 O67 1.252 . S
O76 In65 2.294 . S
O76 C69 1.240 . S
O77 In65 2.326 . S
O77 C69 1.252 . S
In78 O79 2.294 . S
In78 O80 2.326 . S
In78 O84 2.266 . S
In78 O85 2.326 . S
In78 O86 2.266 . S
In78 O87 2.326 . S
In78 O89 2.294 . S
In78 O90 2.326 . S
O79 In78 2.294 . S
O79 C88 1.240 . S
O80 In78 2.326 . S
O80 C88 1.252 . S
C81 O84 1.252 . S
C81 O85 1.260 . S
C82 O89 1.240 . S
C82 O90 1.252 . S
C83 O86 1.252 . S
C83 O87 1.260 . S
O84 In78 2.266 . S
O84 C81 1.252 . S
O85 In78 2.326 . S
O85 C81 1.260 . S
O86 In78 2.266 . S
O86 C83 1.252 . S
O87 In78 2.326 . S
O87 C83 1.260 . S
C88 O79 1.240 . S
C88 O80 1.252 . S
O89 In78 2.294 . S
O89 C82 1.240 . S
O90 In78 2.326 . S
O90 C82 1.252 . S
In91 O92 2.294 . S
In91 O93 2.326 . S
In91 O97 2.266 . S
In91 O98 2.326 . S
In91 O99 2.266 1_455 S
In91 O100 2.326 1_455 S
In91 O102 2.294 . S
In91 O103 2.326 . S
O92 In91 2.294 . S
O92 C101 1.240 . S
O93 In91 2.326 . S
O93 C101 1.252 . S
C94 O97 1.252 . S
C94 O98 1.260 . S
C95 O102 1.240 . S
C95 O103 1.252 . S
C96 O99 1.252 . S
C96 O100 1.260 . S
O97 In91 2.266 . S
O97 C94 1.252 . S
O98 In91 2.326 . S
O98 C94 1.260 . S
O99 In91 2.266 1_655 S
O99 C96 1.252 . S
O100 In91 2.326 1_655 S
O100 C96 1.260 . S
C101 O92 1.240 . S
C101 O93 1.252 . S
O102 In91 2.294 . S
O102 C95 1.240 . S
O103 In91 2.326 . S
O103 C95 1.252 . S
In104 O105 2.294 . S
In104 O106 2.326 . S
In104 O110 2.266 . S
In104 O111 2.326 . S
In104 O112 2.266 . S
In104 O113 2.326 . S
In104 O115 2.294 . S
In104 O116 2.326 . S
O105 In104 2.294 . S
O105 C114 1.240 . S
O106 In104 2.326 . S
O106 C114 1.252 . S
C107 O110 1.252 . S
C107 O111 1.260 . S
C108 O115 1.240 . S
C108 O116 1.252 . S
C109 O112 1.252 1_565 S
C109 O113 1.260 1_565 S
O110 In104 2.266 . S
O110 C107 1.252 . S
O111 In104 2.326 . S
O111 C107 1.260 . S
O112 In104 2.266 . S
O112 C109 1.252 1_545 S
O113 In104 2.326 . S
O113 C109 1.260 1_545 S
C114 O105 1.240 . S
C114 O106 1.252 . S
O115 In104 2.294 . S
O115 C108 1.240 . S
O116 In104 2.326 . S
O116 C108 1.252 . S
In117 O118 2.294 . S
In117 O119 2.326 . S
In117 O123 2.266 . S
In117 O124 2.326 . S
In117 O125 2.266 . S
In117 O126 2.326 . S
In117 O128 2.294 . S
In117 O129 2.326 . S
O118 In117 2.294 . S
O118 C127 1.240 . S
O119 In117 2.326 . S
O119 C127 1.252 . S
C120 O123 1.252 . S
C120 O124 1.260 . S
C121 O128 1.240 . S
C121 O129 1.252 . S
C122 O125 1.252 . S
C122 O126 1.260 . S
O123 In117 2.266 . S
O123 C120 1.252 . S
O124 In117 2.326 . S
O124 C120 1.260 . S
O125 In117 2.266 . S
O125 C122 1.252 . S
O126 In117 2.326 . S
O126 C122 1.260 . S
C127 O118 1.240 . S
C127 O119 1.252 . S
O128 In117 2.294 . S
O128 C121 1.240 . S
O129 In117 2.326 . S
O129 C121 1.252 . S
In130 O131 2.294 1_545 S
In130 O132 2.326 1_545 S
In130 O136 2.266 . S
In130 O137 2.325 . S
In130 O138 2.264 . S
In130 O139 2.322 . S
In130 O141 2.296 1_545 S
In130 O142 2.330 1_545 S
O131 In130 2.294 1_565 S
O131 C140 1.240 . S
O132 In130 2.326 1_565 S
O132 C140 1.252 . S
C133 O136 1.252 . S
C133 O137 1.260 . S
C134 O141 1.240 . S
C134 O142 1.252 . S
C135 O138 1.252 . S
C135 O139 1.260 . S
O136 In130 2.266 . S
O136 C133 1.252 . S
O137 In130 2.325 . S
O137 C133 1.260 . S
O138 In130 2.264 . S
O138 C135 1.252 . S
O139 In130 2.322 . S
O139 C135 1.260 . S
C140 O131 1.240 . S
C140 O132 1.252 . S
O141 In130 2.296 1_565 S
O141 C134 1.240 . S
O142 In130 2.330 1_565 S
O142 C134 1.252 . S
In143 O144 2.294 . S
In143 O145 2.326 . S
In143 O149 2.266 . S
In143 O150 2.326 1_554 S
In143 O151 2.266 . S
In143 O152 2.326 . S
In143 O154 2.294 . S
In143 O155 2.326 . S
O144 In143 2.294 . S
O144 C153 1.240 . S
O145 In143 2.326 . S
O145 C153 1.252 . S
C146 O149 1.252 1_556 S
C146 O150 1.260 . S
C147 O154 1.240 . S
C147 O155 1.252 . S
C148 O151 1.252 . S
C148 O152 1.260 . S
O149 In143 2.266 . S
O149 C146 1.252 1_554 S
O150 In143 2.326 1_556 S
O150 C146 1.260 . S
O151 In143 2.266 . S
O151 C148 1.252 . S
O152 In143 2.326 . S
O152 C148 1.260 . S
C153 O144 1.240 . S
C153 O145 1.252 . S
O154 In143 2.294 . S
O154 C147 1.240 . S
O155 In143 2.326 . S
O155 C147 1.252 . S
In156 O157 2.294 . S
In156 O158 2.326 . S
In156 O162 2.266 . S
In156 O163 2.326 1_554 S
In156 O164 2.266 . S
In156 O165 2.326 . S
In156 O167 2.294 . S
In156 O168 2.326 . S
O157 In156 2.294 . S
O157 C166 1.240 . S
O158 In156 2.326 . S
O158 C166 1.252 . S
C159 O162 1.252 1_556 S
C159 O163 1.260 . S
C160 O167 1.240 . S
C160 O168 1.252 . S
C161 O164 1.252 . S
C161 O165 1.260 . S
O162 In156 2.266 . S
O162 C159 1.252 1_554 S
O163 In156 2.326 1_556 S
O163 C159 1.260 . S
O164 In156 2.266 . S
O164 C161 1.252 . S
O165 In156 2.326 . S
O165 C161 1.260 . S
C166 O157 1.240 . S
C166 O158 1.252 . S
O167 In156 2.294 . S
O167 C160 1.240 . S
O168 In156 2.326 . S
O168 C160 1.252 . S
In169 O170 2.294 . S
In169 O171 2.326 . S
In169 O175 2.266 1_554 S
In169 O176 2.326 . S
In169 O177 2.266 1_554 S
In169 O178 2.326 1_554 S
In169 O180 2.294 . S
In169 O181 2.326 . S
O170 In169 2.294 . S
O170 C179 1.240 . S
O171 In169 2.326 . S
O171 C179 1.252 . S
C172 O175 1.252 . S
C172 O176 1.258 1_556 S
C173 O180 1.240 . S
C173 O181 1.252 . S
C174 O177 1.252 . S
C174 O178 1.260 . S
O175 In169 2.266 1_556 S
O175 C172 1.252 . S
O176 In169 2.326 . S
O176 C172 1.258 1_554 S
O177 In169 2.266 1_556 S
O177 C174 1.252 . S
O178 In169 2.326 1_556 S
O178 C174 1.260 . S
C179 O170 1.240 . S
C179 O171 1.252 . S
O180 In169 2.294 . S
O180 C173 1.240 . S
O181 In169 2.326 . S
O181 C173 1.252 . S
In182 O183 2.294 . S
In182 O184 2.326 . S
In182 O188 2.266 . S
In182 O189 2.326 . S
In182 O190 2.266 . S
In182 O191 2.326 . S
In182 O193 2.294 . S
In182 O194 2.326 . S
O183 In182 2.294 . S
O183 C192 1.240 . S
O184 In182 2.326 . S
O184 C192 1.252 . S
C185 O188 1.252 . S
C185 O189 1.260 . S
C186 O193 1.240 . S
C186 O194 1.252 . S
C187 O190 1.252 . S
C187 O191 1.260 . S
O188 In182 2.266 . S
O188 C185 1.252 . S
O189 In182 2.326 . S
O189 C185 1.260 . S
O190 In182 2.266 . S
O190 C187 1.252 . S
O191 In182 2.326 . S
O191 C187 1.260 . S
C192 O183 1.240 . S
C192 O184 1.252 . S
O193 In182 2.294 . S
O193 C186 1.240 . S
O194 In182 2.326 . S
O194 C186 1.252 . S
In195 O196 2.294 . S
In195 O197 2.326 . S
In195 O201 2.266 . S
In195 O202 2.326 . S
In195 O203 2.266 . S
In195 O204 2.326 . S
In195 O206 2.294 . S
In195 O207 2.326 . S
O196 In195 2.294 . S
O196 C205 1.240 . S
O197 In195 2.326 . S
O197 C205 1.252 . S
C198 O201 1.252 . S
C198 O202 1.260 . S
C199 O206 1.240 . S
C199 O207 1.252 . S
C200 O203 1.252 . S
C200 O204 1.260 . S
O201 In195 2.266 . S
O201 C198 1.252 . S
O202 In195 2.326 . S
O202 C198 1.260 . S
O203 In195 2.266 . S
O203 C200 1.252 . S
O204 In195 2.326 . S
O204 C200 1.260 . S
C205 O196 1.240 . S
C205 O197 1.252 . S
O206 In195 2.294 . S
O206 C199 1.240 . S
O207 In195 2.326 . S
O207 C199 1.252 . S
In208 O209 2.294 . S
In208 O210 2.326 . S
In208 O214 2.266 . S
In208 O215 2.326 . S
In208 O216 2.266 . S
In208 O217 2.326 . S
In208 O219 2.294 . S
In208 O220 2.326 . S
O209 In208 2.294 . S
O209 C218 1.240 . S
O210 In208 2.326 . S
O210 C218 1.252 . S
C211 O214 1.252 . S
C211 O215 1.260 . S
C212 O219 1.240 . S
C212 O220 1.252 . S
C213 O216 1.252 . S
C213 O217 1.260 . S
O214 In208 2.266 . S
O214 C211 1.252 . S
O215 In208 2.326 . S
O215 C211 1.260 . S
O216 In208 2.266 . S
O216 C213 1.252 . S
O217 In208 2.326 . S
O217 C213 1.260 . S
C218 O209 1.240 . S
C218 O210 1.252 . S
O219 In208 2.294 . S
O219 C212 1.240 . S
O220 In208 2.326 . S
O220 C212 1.252 . S
In221 O222 2.294 . S
In221 O223 2.326 . S
In221 O227 2.266 . S
In221 O228 2.326 . S
In221 O229 2.266 . S
In221 O230 2.326 . S
In221 O232 2.294 . S
In221 O233 2.326 . S
O222 In221 2.294 . S
O222 C231 1.240 . S
O223 In221 2.326 . S
O223 C231 1.252 . S
C224 O227 1.252 . S
C224 O228 1.260 . S
C225 O232 1.240 . S
C225 O233 1.252 . S
C226 O229 1.252 . S
C226 O230 1.260 . S
O227 In221 2.266 . S
O227 C224 1.252 . S
O228 In221 2.326 . S
O228 C224 1.260 . S
O229 In221 2.266 . S
O229 C226 1.252 . S
O230 In221 2.326 . S
O230 C226 1.260 . S
C231 O222 1.240 . S
C231 O223 1.252 . S
O232 In221 2.294 . S
O232 C225 1.240 . S
O233 In221 2.326 . S
O233 C225 1.252 . S
In234 O235 2.294 . S
In234 O236 2.326 . S
In234 O240 2.266 . S
In234 O241 2.326 . S
In234 O242 2.266 . S
In234 O243 2.326 . S
In234 O245 2.294 . S
In234 O246 2.326 . S
O235 In234 2.294 . S
O235 C244 1.240 . S
O236 In234 2.326 . S
O236 C244 1.252 . S
C237 O240 1.252 . S
C237 O241 1.260 . S
C238 O245 1.240 . S
C238 O246 1.252 . S
C239 O242 1.252 . S
C239 O243 1.260 . S
O240 In234 2.266 . S
O240 C237 1.252 . S
O241 In234 2.326 . S
O241 C237 1.260 . S
O242 In234 2.266 . S
O242 C239 1.252 . S
O243 In234 2.326 . S
O243 C239 1.260 . S
C244 O235 1.240 . S
C244 O236 1.252 . S
O245 In234 2.294 . S
O245 C238 1.240 . S
O246 In234 2.326 . S
O246 C238 1.252 . S
In247 O248 2.294 1_545 S
In247 O249 2.326 1_545 S
In247 O253 2.266 . S
In247 O254 2.326 . S
In247 O255 2.266 . S
In247 O256 2.326 . S
In247 O258 2.294 . S
In247 O259 2.326 . S
O248 In247 2.294 1_565 S
O248 C257 1.240 . S
O249 In247 2.326 1_565 S
O249 C257 1.252 . S
C250 O253 1.252 . S
C250 O254 1.260 . S
C251 O258 1.241 . S
C251 O259 1.253 . S
C252 O255 1.252 . S
C252 O256 1.260 . S
O253 In247 2.266 . S
O253 C250 1.252 . S
O254 In247 2.326 . S
O254 C250 1.260 . S
O255 In247 2.266 . S
O255 C252 1.252 . S
O256 In247 2.326 . S
O256 C252 1.260 . S
C257 O248 1.240 . S
C257 O249 1.252 . S
O258 In247 2.294 . S
O258 C251 1.241 . S
O259 In247 2.326 . S
O259 C251 1.253 . S
In260 O261 2.294 . S
In260 O262 2.326 . S
In260 O266 2.266 1_554 S
In260 O267 2.326 . S
In260 O268 2.266 1_554 S
In260 O269 2.326 1_554 S
In260 O271 2.294 . S
In260 O272 2.326 . S
O261 In260 2.294 . S
O261 C270 1.240 . S
O262 In260 2.326 . S
O262 C270 1.252 . S
C263 O266 1.252 . S
C263 O267 1.259 1_556 S
C264 O271 1.240 . S
C264 O272 1.252 . S
C265 O268 1.252 . S
C265 O269 1.260 . S
O266 In260 2.266 1_556 S
O266 C263 1.252 . S
O267 In260 2.326 . S
O267 C263 1.259 1_554 S
O268 In260 2.266 1_556 S
O268 C265 1.252 . S
O269 In260 2.326 1_556 S
O269 C265 1.260 . S
C270 O261 1.240 . S
C270 O262 1.252 . S
O271 In260 2.294 . S
O271 C264 1.240 . S
O272 In260 2.326 . S
O272 C264 1.252 . S
In273 O274 2.294 . S
In273 O275 2.326 . S
In273 O279 2.266 . S
In273 O280 2.326 . S
In273 O281 2.266 . S
In273 O282 2.326 . S
In273 O284 2.294 . S
In273 O285 2.326 . S
O274 In273 2.294 . S
O274 C283 1.240 . S
O275 In273 2.326 . S
O275 C283 1.252 . S
C276 O279 1.252 . S
C276 O280 1.260 . S
C277 O284 1.240 . S
C277 O285 1.252 . S
C278 O281 1.252 . S
C278 O282 1.260 . S
O279 In273 2.266 . S
O279 C276 1.252 . S
O280 In273 2.326 . S
O280 C276 1.260 . S
O281 In273 2.266 . S
O281 C278 1.252 . S
O282 In273 2.326 . S
O282 C278 1.260 . S
C283 O274 1.240 . S
C283 O275 1.252 . S
O284 In273 2.294 . S
O284 C277 1.240 . S
O285 In273 2.326 . S
O285 C277 1.252 . S
In286 O287 2.294 . S
In286 O288 2.326 . S
In286 O292 2.266 . S
In286 O293 2.326 . S
In286 O294 2.266 . S
In286 O295 2.326 . S
In286 O297 2.294 . S
In286 O298 2.326 . S
O287 In286 2.294 . S
O287 C296 1.240 . S
O288 In286 2.326 . S
O288 C296 1.252 . S
C289 O292 1.252 . S
C289 O293 1.260 . S
C290 O297 1.240 . S
C290 O298 1.252 . S
C291 O294 1.252 . S
C291 O295 1.260 . S
O292 In286 2.266 . S
O292 C289 1.252 . S
O293 In286 2.326 . S
O293 C289 1.260 . S
O294 In286 2.266 . S
O294 C291 1.252 . S
O295 In286 2.326 . S
O295 C291 1.260 . S
C296 O287 1.240 . S
C296 O288 1.252 . S
O297 In286 2.294 . S
O297 C290 1.240 . S
O298 In286 2.326 . S
O298 C290 1.252 . S
In299 O300 2.294 . S
In299 O301 2.326 . S
In299 O305 2.266 . S
In299 O306 2.326 . S
In299 O307 2.266 . S
In299 O308 2.326 . S
In299 O310 2.294 . S
In299 O311 2.326 . S
O300 In299 2.294 . S
O300 C309 1.240 . S
O301 In299 2.326 . S
O301 C309 1.252 . S
C302 O305 1.252 . S
C302 O306 1.260 . S
C303 O310 1.240 . S
C303 O311 1.252 . S
C304 O307 1.252 . S
C304 O308 1.260 . S
O305 In299 2.266 . S
O305 C302 1.252 . S
O306 In299 2.326 . S
O306 C302 1.260 . S
O307 In299 2.266 . S
O307 C304 1.252 . S
O308 In299 2.326 . S
O308 C304 1.260 . S
C309 O300 1.240 . S
C309 O301 1.252 . S
O310 In299 2.294 . S
O310 C303 1.240 . S
O311 In299 2.326 . S
O311 C303 1.252 . S
Tb312 O315 2.453 . S
Tb312 O316 2.596 . S
Tb312 O317 2.374 1_554 S
Tb312 O325 2.343 . S
Tb312 O327 2.353 . S
Tb312 O329 2.427 . S
Tb312 O330 2.513 . S
C313 O317 1.251 . S
C313 O319 1.263 . S
Tb314 O316 2.343 . S
Tb314 O319 2.353 1_554 S
Tb314 O322 2.427 1_545 S
Tb314 O323 2.513 1_545 S
Tb314 O324 2.453 1_455 S
Tb314 O325 2.596 . S
Tb314 O326 2.374 . S
O315 Tb312 2.453 . S
O315 C331 1.245 . S
O316 Tb312 2.596 . S
O316 Tb314 2.343 . S
O316 C331 1.259 . S
O317 Tb312 2.374 1_556 S
O317 C313 1.251 . S
C318 O322 1.275 . S
C318 O323 1.246 . S
O319 C313 1.263 . S
O319 Tb314 2.353 1_556 S
C320 O324 1.245 . S
C320 O325 1.259 1_655 S
C321 O326 1.250 . S
C321 O327 1.263 . S
O322 Tb314 2.427 1_565 S
O322 C318 1.275 . S
O323 Tb314 2.513 1_565 S
O323 C318 1.246 . S
O324 Tb314 2.453 1_655 S
O324 C320 1.245 . S
O325 Tb312 2.343 . S
O325 Tb314 2.596 . S
O325 C320 1.259 1_455 S
O326 Tb314 2.374 . S
O326 C321 1.250 . S
O327 Tb312 2.353 . S
O327 C321 1.263 . S
C328 O329 1.275 . S
C328 O330 1.246 . S
O329 Tb312 2.427 . S
O329 C328 1.275 . S
O330 Tb312 2.513 . S
O330 C328 1.246 . S
C331 O315 1.245 . S
C331 O316 1.259 . S
Tb332 O335 2.453 . S
Tb332 O336 2.596 . S
Tb332 O337 2.374 . S
Tb332 O345 2.343 . S
Tb332 O347 2.353 . S
Tb332 O349 2.427 . S
Tb332 O350 2.513 . S
C333 O337 1.251 . S
C333 O339 1.263 . S
Tb334 O336 2.343 . S
Tb334 O339 2.353 . S
Tb334 O342 2.427 . S
Tb334 O343 2.513 . S
Tb334 O344 2.453 . S
Tb334 O345 2.596 . S
Tb334 O346 2.374 . S
O335 Tb332 2.453 . S
O335 C351 1.245 . S
O336 Tb332 2.596 . S
O336 Tb334 2.343 . S
O336 C351 1.259 . S
O337 Tb332 2.374 . S
O337 C333 1.251 . S
C338 O342 1.275 . S
C338 O343 1.246 . S
O339 C333 1.263 . S
O339 Tb334 2.353 . S
C340 O344 1.245 . S
C340 O345 1.259 . S
C341 O346 1.250 . S
C341 O347 1.263 . S
O342 Tb334 2.427 . S
O342 C338 1.275 . S
O343 Tb334 2.513 . S
O343 C338 1.246 . S
O344 Tb334 2.453 . S
O344 C340 1.245 . S
O345 Tb332 2.343 . S
O345 Tb334 2.596 . S
O345 C340 1.259 . S
O346 Tb334 2.374 . S
O346 C341 1.250 . S
O347 Tb332 2.353 . S
O347 C341 1.263 . S
C348 O349 1.275 . S
C348 O350 1.246 . S
O349 Tb332 2.427 . S
O349 C348 1.275 . S
O350 Tb332 2.513 . S
O350 C348 1.246 . S
C351 O335 1.245 . S
C351 O336 1.259 . S
Tb352 O355 2.453 . S
Tb352 O356 2.596 . S
Tb352 O357 2.374 . S
Tb352 O365 2.343 1_545 S
Tb352 O367 2.353 . S
Tb352 O369 2.427 . S
Tb352 O370 2.513 1_545 S
C353 O357 1.251 . S
C353 O359 1.263 . S
Tb354 O356 2.343 . S
Tb354 O359 2.353 . S
Tb354 O362 2.427 . S
Tb354 O363 2.513 . S
Tb354 O364 2.453 1_545 S
Tb354 O365 2.596 1_545 S
Tb354 O366 2.374 . S
O355 Tb352 2.453 . S
O355 C371 1.245 . S
O356 Tb352 2.596 . S
O356 Tb354 2.343 . S
O356 C371 1.259 . S
O357 Tb352 2.374 . S
O357 C353 1.251 . S
C358 O362 1.275 . S
C358 O363 1.246 . S
O359 C353 1.263 . S
O359 Tb354 2.353 . S
C360 O364 1.245 . S
C360 O365 1.259 . S
C361 O366 1.250 . S
C361 O367 1.263 . S
O362 Tb354 2.427 . S
O362 C358 1.275 . S
O363 Tb354 2.513 . S
O363 C358 1.246 . S
O364 Tb354 2.453 1_565 S
O364 C360 1.245 . S
O365 Tb352 2.343 1_565 S
O365 Tb354 2.596 1_565 S
O365 C360 1.259 . S
O366 Tb354 2.374 . S
O366 C361 1.250 . S
O367 Tb352 2.353 . S
O367 C361 1.263 . S
C368 O369 1.275 1_565 S
C368 O370 1.246 . S
O369 Tb352 2.427 . S
O369 C368 1.275 1_545 S
O370 Tb352 2.513 1_565 S
O370 C368 1.246 . S
C371 O355 1.245 . S
C371 O356 1.259 . S
Tb372 O375 2.453 . S
Tb372 O376 2.596 . S
Tb372 O377 2.374 . S
Tb372 O385 2.343 . S
Tb372 O387 2.353 . S
Tb372 O389 2.427 . S
Tb372 O390 2.513 . S
C373 O377 1.251 . S
C373 O379 1.263 . S
Tb374 O376 2.343 . S
Tb374 O379 2.353 . S
Tb374 O382 2.427 . S
Tb374 O383 2.513 . S
Tb374 O384 2.453 . S
Tb374 O385 2.596 . S
Tb374 O386 2.374 . S
O375 Tb372 2.453 . S
O375 C391 1.245 . S
O376 Tb372 2.596 . S
O376 Tb374 2.343 . S
O376 C391 1.259 . S
O377 Tb372 2.374 . S
O377 C373 1.251 . S
C378 O382 1.275 . S
C378 O383 1.246 . S
O379 C373 1.263 . S
O379 Tb374 2.353 . S
C380 O384 1.245 . S
C380 O385 1.259 . S
C381 O386 1.250 . S
C381 O387 1.263 . S
O382 Tb374 2.427 . S
O382 C378 1.275 . S
O383 Tb374 2.513 . S
O383 C378 1.246 . S
O384 Tb374 2.453 . S
O384 C380 1.245 . S
O385 Tb372 2.343 . S
O385 Tb374 2.596 . S
O385 C380 1.259 . S
O386 Tb374 2.374 . S
O386 C381 1.250 . S
O387 Tb372 2.353 . S
O387 C381 1.263 . S
C388 O389 1.275 . S
C388 O390 1.246 . S
O389 Tb372 2.427 . S
O389 C388 1.275 . S
O390 Tb372 2.513 . S
O390 C388 1.246 . S
C391 O375 1.245 . S
C391 O376 1.259 . S
Tb392 O395 2.453 . S
Tb392 O396 2.596 . S
Tb392 O397 2.374 1_455 S
Tb392 O405 2.343 1_565 S
Tb392 O407 2.353 1_565 S
Tb392 O409 2.427 1_565 S
Tb392 O410 2.513 1_465 S
C393 O397 1.246 1_545 S
C393 O399 1.276 . S
Tb394 O396 2.343 1_545 S
Tb394 O399 2.353 1_455 S
Tb394 O402 2.427 . S
Tb394 O403 2.513 . S
Tb394 O404 2.453 . S
Tb394 O405 2.596 . S
Tb394 O406 2.374 . S
O395 Tb392 2.453 . S
O395 C411 1.245 . S
O396 Tb392 2.596 . S
O396 Tb394 2.343 1_565 S
O396 C411 1.259 . S
O397 Tb392 2.374 1_655 S
O397 C393 1.246 1_565 S
C398 O402 1.275 . S
C398 O403 1.246 . S
O399 C393 1.276 . S
O399 Tb394 2.353 1_655 S
C400 O404 1.245 . S
C400 O405 1.259 . S
C401 O406 1.250 . S
C401 O407 1.263 . S
O402 Tb394 2.427 . S
O402 C398 1.275 . S
O403 Tb394 2.513 . S
O403 C398 1.246 . S
O404 Tb394 2.453 . S
O404 C400 1.245 . S
O405 Tb392 2.343 1_545 S
O405 Tb394 2.596 . S
O405 C400 1.259 . S
O406 Tb394 2.374 . S
O406 C401 1.250 . S
O407 Tb392 2.353 1_545 S
O407 C401 1.263 . S
C408 O409 1.275 . S
C408 O410 1.246 1_455 S
O409 Tb392 2.427 1_545 S
O409 C408 1.275 . S
O410 Tb392 2.513 1_645 S
O410 C408 1.246 1_655 S
C411 O395 1.245 . S
C411 O396 1.259 . S
Tb412 O415 2.453 . S
Tb412 O416 2.596 . S
Tb412 O417 2.374 . S
Tb412 O425 2.343 . S
Tb412 O427 2.353 . S
Tb412 O429 2.427 . S
Tb412 O430 2.513 . S
C413 O417 1.251 . S
C413 O419 1.263 . S
Tb414 O416 2.343 . S
Tb414 O419 2.353 . S
Tb414 O422 2.427 . S
Tb414 O423 2.513 . S
Tb414 O424 2.453 . S
Tb414 O425 2.596 . S
Tb414 O426 2.374 . S
O415 Tb412 2.453 . S
O415 C431 1.245 . S
O416 Tb412 2.596 . S
O416 Tb414 2.343 . S
O416 C431 1.259 . S
O417 Tb412 2.374 . S
O417 C413 1.251 . S
C418 O422 1.275 . S
C418 O423 1.246 . S
O419 C413 1.263 . S
O419 Tb414 2.353 . S
C420 O424 1.245 . S
C420 O425 1.259 . S
C421 O426 1.250 . S
C421 O427 1.263 . S
O422 Tb414 2.427 . S
O422 C418 1.275 . S
O423 Tb414 2.513 . S
O423 C418 1.246 . S
O424 Tb414 2.453 . S
O424 C420 1.245 . S
O425 Tb412 2.343 . S
O425 Tb414 2.596 . S
O425 C420 1.259 . S
O426 Tb414 2.374 . S
O426 C421 1.250 . S
O427 Tb412 2.353 . S
O427 C421 1.263 . S
C428 O429 1.275 . S
C428 O430 1.246 . S
O429 Tb412 2.427 . S
O429 C428 1.275 . S
O430 Tb412 2.513 . S
O430 C428 1.246 . S
C431 O415 1.245 . S
C431 O416 1.259 . S
Tb432 O435 2.453 . S
Tb432 O436 2.596 . S
Tb432 O437 2.374 1_545 S
Tb432 O445 2.343 1_556 S
Tb432 O447 2.353 1_556 S
Tb432 O449 2.427 1_556 S
Tb432 O450 2.513 1_546 S
C433 O437 1.251 . S
C433 O439 1.263 1_556 S
Tb434 O436 2.343 1_554 S
Tb434 O439 2.353 1_545 S
Tb434 O442 2.427 . S
Tb434 O443 2.513 . S
Tb434 O444 2.453 . S
Tb434 O445 2.596 . S
Tb434 O446 2.374 . S
O435 Tb432 2.453 . S
O435 C451 1.245 . S
O436 Tb432 2.596 . S
O436 Tb434 2.343 1_556 S
O436 C451 1.259 . S
O437 Tb432 2.374 1_565 S
O437 C433 1.251 . S
C438 O442 1.275 . S
C438 O443 1.246 . S
O439 C433 1.263 1_554 S
O439 Tb434 2.353 1_565 S
C440 O444 1.245 . S
C440 O445 1.259 . S
C441 O446 1.250 . S
C441 O447 1.263 . S
O442 Tb434 2.427 . S
O442 C438 1.275 . S
O443 Tb434 2.513 . S
O443 C438 1.246 . S
O444 Tb434 2.453 . S
O444 C440 1.245 . S
O445 Tb432 2.343 1_554 S
O445 Tb434 2.596 . S
O445 C440 1.259 . S
O446 Tb434 2.374 . S
O446 C441 1.250 . S
O447 Tb432 2.353 1_554 S
O447 C441 1.263 . S
C448 O449 1.275 . S
C448 O450 1.246 1_545 S
O449 Tb432 2.427 1_554 S
O449 C448 1.275 . S
O450 Tb432 2.513 1_564 S
O450 C448 1.246 1_565 S
C451 O435 1.245 . S
C451 O436 1.259 . S
Tb452 O455 2.453 . S
Tb452 O456 2.596 . S
Tb452 O457 2.374 . S
Tb452 O465 2.343 . S
Tb452 O467 2.353 . S
Tb452 O469 2.427 . S
Tb452 O470 2.513 . S
C453 O457 1.251 . S
C453 O459 1.263 . S
Tb454 O456 2.343 . S
Tb454 O459 2.353 . S
Tb454 O462 2.427 . S
Tb454 O463 2.513 . S
Tb454 O464 2.453 . S
Tb454 O465 2.596 . S
Tb454 O466 2.374 . S
O455 Tb452 2.453 . S
O455 C471 1.245 . S
O456 Tb452 2.596 . S
O456 Tb454 2.343 . S
O456 C471 1.259 . S
O457 Tb452 2.374 . S
O457 C453 1.251 . S
C458 O462 1.275 . S
C458 O463 1.246 . S
O459 C453 1.263 . S
O459 Tb454 2.353 . S
C460 O464 1.245 . S
C460 O465 1.259 . S
C461 O466 1.250 . S
C461 O467 1.263 . S
O462 Tb454 2.427 . S
O462 C458 1.275 . S
O463 Tb454 2.513 . S
O463 C458 1.246 . S
O464 Tb454 2.453 . S
O464 C460 1.245 . S
O465 Tb452 2.343 . S
O465 Tb454 2.596 . S
O465 C460 1.259 . S
O466 Tb454 2.374 . S
O466 C461 1.250 . S
O467 Tb452 2.353 . S
O467 C461 1.263 . S
C468 O469 1.275 . S
C468 O470 1.246 . S
O469 Tb452 2.427 . S
O469 C468 1.275 . S
O470 Tb452 2.513 . S
O470 C468 1.246 . S
C471 O455 1.245 . S
C471 O456 1.259 . S
Tb472 O475 2.454 . S
Tb472 O476 2.596 1_556 S
Tb472 O477 2.374 . S
Tb472 O485 2.343 . S
Tb472 O487 2.353 . S
Tb472 O489 2.427 . S
Tb472 O490 2.513 . S
C473 O477 1.251 1_554 S
C473 O479 1.263 . S
Tb474 O476 2.343 . S
Tb474 O479 2.353 . S
Tb474 O482 2.427 . S
Tb474 O483 2.513 . S
Tb474 O484 2.453 . S
Tb474 O485 2.596 1_554 S
Tb474 O486 2.374 . S
O475 Tb472 2.454 . S
O475 C491 1.244 1_556 S
O476 Tb472 2.596 1_554 S
O476 Tb474 2.343 . S
O476 C491 1.259 . S
O477 Tb472 2.374 . S
O477 C473 1.251 1_556 S
C478 O482 1.275 . S
C478 O483 1.246 . S
O479 C473 1.263 . S
O479 Tb474 2.353 . S
C480 O484 1.245 1_556 S
C480 O485 1.259 . S
C481 O486 1.250 . S
C481 O487 1.263 1_554 S
O482 Tb474 2.427 . S
O482 C478 1.275 . S
O483 Tb474 2.513 . S
O483 C478 1.246 . S
O484 Tb474 2.453 . S
O484 C480 1.245 1_554 S
O485 Tb472 2.343 . S
O485 Tb474 2.596 1_556 S
O485 C480 1.259 . S
O486 Tb474 2.374 . S
O486 C481 1.250 . S
O487 Tb472 2.353 . S
O487 C481 1.263 1_556 S
C488 O489 1.275 . S
C488 O490 1.246 . S
O489 Tb472 2.427 . S
O489 C488 1.275 . S
O490 Tb472 2.513 . S
O490 C488 1.246 . S
C491 O475 1.244 1_554 S
C491 O476 1.259 . S
Tb492 O495 2.453 . S
Tb492 O496 2.596 . S
Tb492 O497 2.374 . S
Tb492 O505 2.343 . S
Tb492 O507 2.353 . S
Tb492 O509 2.427 . S
Tb492 O510 2.513 . S
C493 O497 1.251 . S
C493 O499 1.263 . S
Tb494 O496 2.343 . S
Tb494 O499 2.353 . S
Tb494 O502 2.427 . S
Tb494 O503 2.513 . S
Tb494 O504 2.453 . S
Tb494 O505 2.596 . S
Tb494 O506 2.374 . S
O495 Tb492 2.453 . S
O495 C511 1.245 . S
O496 Tb492 2.596 . S
O496 Tb494 2.343 . S
O496 C511 1.259 . S
O497 Tb492 2.374 . S
O497 C493 1.251 . S
C498 O502 1.275 . S
C498 O503 1.246 . S
O499 C493 1.263 . S
O499 Tb494 2.353 . S
C500 O504 1.245 . S
C500 O505 1.259 . S
C501 O506 1.250 . S
C501 O507 1.263 . S
O502 Tb494 2.427 . S
O502 C498 1.275 . S
O503 Tb494 2.513 . S
O503 C498 1.246 . S
O504 Tb494 2.453 . S
O504 C500 1.245 . S
O505 Tb492 2.343 . S
O505 Tb494 2.596 . S
O505 C500 1.259 . S
O506 Tb494 2.374 . S
O506 C501 1.250 . S
O507 Tb492 2.353 . S
O507 C501 1.263 . S
C508 O509 1.275 . S
C508 O510 1.246 . S
O509 Tb492 2.427 . S
O509 C508 1.275 . S
O510 Tb492 2.513 . S
O510 C508 1.246 . S
C511 O495 1.245 . S
C511 O496 1.259 . S
Tb512 O515 2.453 . S
Tb512 O516 2.596 1_655 S
Tb512 O517 2.374 . S
Tb512 O525 2.343 . S
Tb512 O527 2.353 . S
Tb512 O529 2.427 . S
Tb512 O530 2.513 . S
C513 O517 1.251 1_455 S
C513 O519 1.263 . S
Tb514 O516 2.343 . S
Tb514 O519 2.353 . S
Tb514 O522 2.427 . S
Tb514 O523 2.513 . S
Tb514 O524 2.453 . S
Tb514 O525 2.596 1_455 S
Tb514 O526 2.374 . S
O515 Tb512 2.453 . S
O515 C531 1.245 1_655 S
O516 Tb512 2.596 1_455 S
O516 Tb514 2.343 . S
O516 C531 1.259 . S
O517 Tb512 2.374 . S
O517 C513 1.251 1_655 S
C518 O522 1.275 . S
C518 O523 1.246 . S
O519 C513 1.263 . S
O519 Tb514 2.353 . S
C520 O524 1.245 1_655 S
C520 O525 1.259 . S
C521 O526 1.217 1_655 S
C521 O527 1.282 . S
O522 Tb514 2.427 . S
O522 C518 1.275 . S
O523 Tb514 2.513 . S
O523 C518 1.246 . S
O524 Tb514 2.453 . S
O524 C520 1.245 1_455 S
O525 Tb512 2.343 . S
O525 Tb514 2.596 1_655 S
O525 C520 1.259 . S
O526 Tb514 2.374 . S
O526 C521 1.217 1_455 S
O527 Tb512 2.353 . S
O527 C521 1.282 . S
C528 O529 1.275 . S
C528 O530 1.246 . S
O529 Tb512 2.427 . S
O529 C528 1.275 . S
O530 Tb512 2.513 . S
O530 C528 1.246 . S
C531 O515 1.245 1_455 S
C531 O516 1.259 . S
Tb532 O535 2.453 . S
Tb532 O536 2.596 . S
Tb532 O537 2.374 . S
Tb532 O545 2.343 . S
Tb532 O547 2.353 . S
Tb532 O549 2.427 . S
Tb532 O550 2.513 . S
C533 O537 1.251 . S
C533 O539 1.263 . S
Tb534 O536 2.343 . S
Tb534 O539 2.353 . S
Tb534 O542 2.427 . S
Tb534 O543 2.513 . S
Tb534 O544 2.453 . S
Tb534 O545 2.596 . S
Tb534 O546 2.374 . S
O535 Tb532 2.453 . S
O535 C551 1.245 . S
O536 Tb532 2.596 . S
O536 Tb534 2.343 . S
O536 C551 1.259 . S
O537 Tb532 2.374 . S
O537 C533 1.251 . S
C538 O542 1.275 . S
C538 O543 1.246 . S
O539 C533 1.263 . S
O539 Tb534 2.353 . S
C540 O544 1.245 . S
C540 O545 1.259 . S
C541 O546 1.250 . S
C541 O547 1.263 . S
O542 Tb534 2.427 . S
O542 C538 1.275 . S
O543 Tb534 2.513 . S
O543 C538 1.246 . S
O544 Tb534 2.453 . S
O544 C540 1.245 . S
O545 Tb532 2.343 . S
O545 Tb534 2.596 . S
O545 C540 1.259 . S
O546 Tb534 2.374 . S
O546 C541 1.250 . S
O547 Tb532 2.353 . S
O547 C541 1.263 . S
C548 O549 1.275 . S
C548 O550 1.246 . S
O549 Tb532 2.427 . S
O549 C548 1.275 . S
O550 Tb532 2.513 . S
O550 C548 1.246 . S
C551 O535 1.245 . S
C551 O536 1.259 . S
Tb552 O555 2.453 . S
Tb552 O556 2.596 . S
Tb552 O557 2.374 . S
Tb552 O565 2.343 . S
Tb552 O567 2.353 . S
Tb552 O569 2.427 . S
Tb552 O570 2.513 . S
C553 O557 1.251 . S
C553 O559 1.263 . S
Tb554 O556 2.343 . S
Tb554 O559 2.353 . S
Tb554 O562 2.427 . S
Tb554 O563 2.513 . S
Tb554 O564 2.453 . S
Tb554 O565 2.596 . S
Tb554 O566 2.374 . S
O555 Tb552 2.453 . S
O555 C571 1.245 . S
O556 Tb552 2.596 . S
O556 Tb554 2.343 . S
O556 C571 1.259 . S
O557 Tb552 2.374 . S
O557 C553 1.251 . S
C558 O562 1.275 . S
C558 O563 1.246 . S
O559 C553 1.263 . S
O559 Tb554 2.353 . S
C560 O564 1.245 . S
C560 O565 1.259 . S
C561 O566 1.250 . S
C561 O567 1.263 . S
O562 Tb554 2.427 . S
O562 C558 1.275 . S
O563 Tb554 2.513 . S
O563 C558 1.246 . S
O564 Tb554 2.453 . S
O564 C560 1.245 . S
O565 Tb552 2.343 . S
O565 Tb554 2.596 . S
O565 C560 1.259 . S
O566 Tb554 2.374 . S
O566 C561 1.250 . S
O567 Tb552 2.353 . S
O567 C561 1.263 . S
C568 O569 1.275 . S
C568 O570 1.246 . S
O569 Tb552 2.427 . S
O569 C568 1.275 . S
O570 Tb552 2.513 . S
O570 C568 1.246 . S
C571 O555 1.245 . S
C571 O556 1.259 . S
Tb572 O575 2.453 . S
Tb572 O576 2.596 . S
Tb572 O577 2.374 . S
Tb572 O585 2.343 . S
Tb572 O587 2.353 . S
Tb572 O589 2.427 . S
Tb572 O590 2.513 . S
C573 O577 1.251 . S
C573 O579 1.263 . S
Tb574 O576 2.343 . S
Tb574 O579 2.353 . S
Tb574 O582 2.427 . S
Tb574 O583 2.513 . S
Tb574 O584 2.453 . S
Tb574 O585 2.596 . S
Tb574 O586 2.374 . S
O575 Tb572 2.453 . S
O575 C591 1.245 . S
O576 Tb572 2.596 . S
O576 Tb574 2.343 . S
O576 C591 1.259 . S
O577 Tb572 2.374 . S
O577 C573 1.251 . S
C578 O582 1.275 . S
C578 O583 1.246 . S
O579 C573 1.263 . S
O579 Tb574 2.353 . S
C580 O584 1.245 . S
C580 O585 1.259 . S
C581 O586 1.250 . S
C581 O587 1.263 . S
O582 Tb574 2.427 . S
O582 C578 1.275 . S
O583 Tb574 2.513 . S
O583 C578 1.246 . S
O584 Tb574 2.453 . S
O584 C580 1.245 . S
O585 Tb572 2.343 . S
O585 Tb574 2.596 . S
O585 C580 1.259 . S
O586 Tb574 2.374 . S
O586 C581 1.250 . S
O587 Tb572 2.353 . S
O587 C581 1.263 . S
C588 O589 1.275 . S
C588 O590 1.246 . S
O589 Tb572 2.427 . S
O589 C588 1.275 . S
O590 Tb572 2.513 . S
O590 C588 1.246 . S
C591 O575 1.245 . S
C591 O576 1.259 . S
Tb592 O595 2.453 . S
Tb592 O596 2.596 . S
Tb592 O597 2.374 . S
Tb592 O605 2.343 . S
Tb592 O607 2.353 . S
Tb592 O609 2.427 . S
Tb592 O610 2.513 . S
C593 O597 1.251 . S
C593 O599 1.263 . S
Tb594 O596 2.343 . S
Tb594 O599 2.353 . S
Tb594 O602 2.427 . S
Tb594 O603 2.513 . S
Tb594 O604 2.453 . S
Tb594 O605 2.596 . S
Tb594 O606 2.374 . S
O595 Tb592 2.453 . S
O595 C611 1.245 . S
O596 Tb592 2.596 . S
O596 Tb594 2.343 . S
O596 C611 1.259 . S
O597 Tb592 2.374 . S
O597 C593 1.251 . S
C598 O602 1.275 . S
C598 O603 1.246 . S
O599 C593 1.263 . S
O599 Tb594 2.353 . S
C600 O604 1.245 . S
C600 O605 1.259 . S
C601 O606 1.250 . S
C601 O607 1.263 . S
O602 Tb594 2.427 . S
O602 C598 1.275 . S
O603 Tb594 2.513 . S
O603 C598 1.246 . S
O604 Tb594 2.453 . S
O604 C600 1.245 . S
O605 Tb592 2.343 . S
O605 Tb594 2.596 . S
O605 C600 1.259 . S
O606 Tb594 2.374 . S
O606 C601 1.250 . S
O607 Tb592 2.353 . S
O607 C601 1.263 . S
C608 O609 1.275 . S
C608 O610 1.246 . S
O609 Tb592 2.427 . S
O609 C608 1.275 . S
O610 Tb592 2.513 . S
O610 C608 1.246 . S
C611 O595 1.245 . S
C611 O596 1.259 . S
Tb612 O615 2.453 . S
Tb612 O616 2.596 1_455 S
Tb612 O617 2.374 . S
Tb612 O625 2.343 . S
Tb612 O627 2.353 1_554 S
Tb612 O629 2.427 1_554 S
Tb612 O630 2.513 . S
C613 O617 1.251 . S
C613 O619 1.263 1_455 S
Tb614 O616 2.343 . S
Tb614 O619 2.353 . S
Tb614 O622 2.427 . S
Tb614 O623 2.513 . S
Tb614 O624 2.453 . S
Tb614 O625 2.596 1_655 S
Tb614 O626 2.374 1_554 S
O615 Tb612 2.453 . S
O615 C631 1.245 . S
O616 Tb612 2.596 1_655 S
O616 Tb614 2.343 . S
O616 C631 1.259 1_655 S
O617 Tb612 2.374 . S
O617 C613 1.251 . S
C618 O622 1.275 . S
C618 O623 1.246 . S
O619 C613 1.263 1_655 S
O619 Tb614 2.353 . S
C620 O624 1.245 . S
C620 O625 1.259 1_655 S
C621 O626 1.250 . S
C621 O627 1.263 1_655 S
O622 Tb614 2.427 . S
O622 C618 1.275 . S
O623 Tb614 2.513 . S
O623 C618 1.246 . S
O624 Tb614 2.453 . S
O624 C620 1.245 . S
O625 Tb612 2.343 . S
O625 Tb614 2.596 1_455 S
O625 C620 1.259 1_455 S
O626 Tb614 2.374 1_556 S
O626 C621 1.250 . S
O627 Tb612 2.353 1_556 S
O627 C621 1.263 1_455 S
C628 O629 1.275 1_554 S
C628 O630 1.246 . S
O629 Tb612 2.427 1_556 S
O629 C628 1.275 1_556 S
O630 Tb612 2.513 . S
O630 C628 1.246 . S
C631 O615 1.245 . S
C631 O616 1.259 1_455 S
H632 C640 0.935 1_655 S
H633 C645 0.950 . S
H634 C642 0.950 1_655 S
H635 C644 0.950 . S
H636 C646 0.950 . S
H637 C648 0.950 . S
H638 C650 0.950 1_655 S
H639 C651 0.950 1_655 S
C640 H632 0.935 1_455 S
C640 C641 1.399 . S
C640 C642 1.393 . S
C641 C640 1.399 . S
C641 C645 1.393 . S
C642 H634 0.950 1_455 S
C642 C640 1.393 . S
C642 C643 1.400 . S
C643 C642 1.400 . S
C643 C644 1.398 . S
C643 C649 1.491 . S
C644 H635 0.950 . S
C644 C643 1.398 . S
C644 C645 1.391 . S
C645 H633 0.950 . S
C645 C641 1.393 . S
C645 C644 1.391 . S
C646 H636 0.950 . S
C646 C647 1.386 1_556 S
C646 C648 1.391 . S
C647 C646 1.386 1_554 S
C647 C651 1.393 . S
C648 H637 0.950 . S
C648 C646 1.391 . S
C648 C649 1.400 . S
C649 C643 1.491 . S
C649 C648 1.400 . S
C649 C650 1.398 . S
C650 H638 0.950 1_455 S
C650 C649 1.398 . S
C650 C651 1.391 1_556 S
C651 H639 0.950 1_455 S
C651 C647 1.393 . S
C651 C650 1.391 1_554 S
H652 C660 0.950 . S
H653 C665 0.950 . S
H654 C662 0.950 . S
H655 C664 0.950 . S
H656 C666 0.950 . S
H657 C668 0.950 . S
H658 C670 0.950 . S
H659 C671 0.950 . S
C660 H652 0.950 . S
C660 C661 1.386 . S
C660 C662 1.391 . S
C661 C660 1.386 . S
C661 C665 1.393 . S
C662 H654 0.950 . S
C662 C660 1.391 . S
C662 C663 1.400 . S
C663 C662 1.400 . S
C663 C664 1.398 . S
C663 C669 1.491 . S
C664 H655 0.950 . S
C664 C663 1.398 . S
C664 C665 1.391 . S
C665 H653 0.950 . S
C665 C661 1.393 . S
C665 C664 1.391 . S
C666 H656 0.950 . S
C666 C667 1.386 . S
C666 C668 1.391 . S
C667 C666 1.386 . S
C667 C671 1.393 . S
C668 H657 0.950 . S
C668 C666 1.391 . S
C668 C669 1.400 . S
C669 C663 1.491 . S
C669 C668 1.400 . S
C669 C670 1.398 . S
C670 H658 0.950 . S
C670 C669 1.398 . S
C670 C671 1.391 . S
C671 H659 0.950 . S
C671 C667 1.393 . S
C671 C670 1.391 . S
H672 C680 0.950 . S
H673 C685 0.950 . S
H674 C682 0.950 . S
H675 C684 0.950 . S
H676 C686 0.950 . S
H677 C688 0.950 . S
H678 C690 0.950 . S
H679 C691 0.950 . S
C680 H672 0.950 . S
C680 C681 1.386 . S
C680 C682 1.391 . S
C681 C680 1.386 . S
C681 C685 1.393 . S
C682 H674 0.950 . S
C682 C680 1.391 . S
C682 C683 1.400 . S
C683 C682 1.400 . S
C683 C684 1.398 . S
C683 C689 1.491 . S
C684 H675 0.950 . S
C684 C683 1.398 . S
C684 C685 1.391 . S
C685 H673 0.950 . S
C685 C681 1.393 . S
C685 C684 1.391 . S
C686 H676 0.950 . S
C686 C687 1.386 . S
C686 C688 1.391 . S
C687 C686 1.386 . S
C687 C691 1.393 . S
C688 H677 0.950 . S
C688 C686 1.391 . S
C688 C689 1.400 . S
C689 C683 1.491 . S
C689 C688 1.400 . S
C689 C690 1.398 . S
C690 H678 0.950 . S
C690 C689 1.398 . S
C690 C691 1.391 . S
C691 H679 0.950 . S
C691 C687 1.393 . S
C691 C690 1.391 . S
H692 C700 0.950 . S
H693 C705 0.950 . S
H694 C702 0.950 . S
H695 C704 0.950 . S
H696 C706 0.950 . S
H697 C708 0.950 . S
H698 C710 0.950 . S
H699 C711 0.950 . S
C700 H692 0.950 . S
C700 C701 1.386 . S
C700 C702 1.391 . S
C701 C700 1.386 . S
C701 C705 1.393 . S
C702 H694 0.950 . S
C702 C700 1.391 . S
C702 C703 1.400 . S
C703 C702 1.400 . S
C703 C704 1.398 . S
C703 C709 1.491 . S
C704 H695 0.950 . S
C704 C703 1.398 . S
C704 C705 1.391 . S
C705 H693 0.950 . S
C705 C701 1.393 . S
C705 C704 1.391 . S
C706 H696 0.950 . S
C706 C707 1.386 . S
C706 C708 1.391 . S
C707 C706 1.386 . S
C707 C711 1.393 . S
C708 H697 0.950 . S
C708 C706 1.391 . S
C708 C709 1.400 . S
C709 C703 1.491 . S
C709 C708 1.400 . S
C709 C710 1.398 . S
C710 H698 0.950 . S
C710 C709 1.398 . S
C710 C711 1.391 . S
C711 H699 0.950 . S
C711 C707 1.393 . S
C711 C710 1.391 . S
H712 C720 0.950 . S
H713 C725 0.950 . S
H714 C722 0.950 . S
H715 C724 0.950 . S
H716 C726 0.950 1_655 S
H717 C728 0.942 1_655 S
H718 C730 0.950 . S
H719 C731 0.950 . S
C720 H712 0.950 . S
C720 C721 1.386 . S
C720 C722 1.391 . S
C721 C720 1.386 . S
C721 C725 1.393 1_455 S
C722 H714 0.950 . S
C722 C720 1.391 . S
C722 C723 1.400 . S
C723 C722 1.400 . S
C723 C724 1.398 1_455 S
C723 C729 1.491 . S
C724 H715 0.950 . S
C724 C723 1.398 1_655 S
C724 C725 1.391 . S
C725 H713 0.950 . S
C725 C721 1.393 1_655 S
C725 C724 1.391 . S
C726 H716 0.950 1_455 S
C726 C727 1.386 . S
C726 C728 1.391 . S
C727 C726 1.386 . S
C727 C731 1.393 . S
C728 H717 0.942 1_455 S
C728 C726 1.391 . S
C728 C729 1.408 . S
C729 C723 1.491 . S
C729 C728 1.408 . S
C729 C730 1.398 . S
C730 H718 0.950 . S
C730 C729 1.398 . S
C730 C731 1.391 . S
C731 H719 0.950 . S
C731 C727 1.393 . S
C731 C730 1.391 . S
H732 C740 0.950 . S
H733 C745 0.950 . S
H734 C742 0.950 . S
H735 C744 0.950 . S
H736 C746 0.950 . S
H737 C748 0.950 . S
H738 C750 0.950 . S
H739 C751 0.950 . S
C740 H732 0.950 . S
C740 C741 1.386 . S
C740 C742 1.391 . S
C741 C740 1.386 . S
C741 C745 1.393 . S
C742 H734 0.950 . S
C742 C740 1.391 . S
C742 C743 1.400 . S
C743 C742 1.400 . S
C743 C744 1.398 . S
C743 C749 1.491 . S
C744 H735 0.950 . S
C744 C743 1.398 . S
C744 C745 1.391 . S
C745 H733 0.950 . S
C745 C741 1.393 . S
C745 C744 1.391 . S
C746 H736 0.950 . S
C746 C747 1.386 . S
C746 C748 1.391 . S
C747 C746 1.386 . S
C747 C751 1.393 . S
C748 H737 0.950 . S
C748 C746 1.391 . S
C748 C749 1.400 . S
C749 C743 1.491 . S
C749 C748 1.400 . S
C749 C750 1.398 . S
C750 H738 0.950 . S
C750 C749 1.398 . S
C750 C751 1.391 . S
C751 H739 0.950 . S
C751 C747 1.393 . S
C751 C750 1.391 . S
H752 C760 0.950 . S
H753 C765 0.950 . S
H754 C762 0.950 . S
H755 C764 0.950 . S
H756 C766 0.950 . S
H757 C768 0.950 . S
H758 C770 0.950 . S
H759 C771 0.950 . S
C760 H752 0.950 . S
C760 C761 1.386 . S
C760 C762 1.391 . S
C761 C760 1.386 . S
C761 C765 1.393 . S
C762 H754 0.950 . S
C762 C760 1.391 . S
C762 C763 1.400 . S
C763 C762 1.400 . S
C763 C764 1.398 . S
C763 C769 1.491 . S
C764 H755 0.950 . S
C764 C763 1.398 . S
C764 C765 1.391 . S
C765 H753 0.950 . S
C765 C761 1.393 . S
C765 C764 1.391 . S
C766 H756 0.950 . S
C766 C767 1.386 . S
C766 C768 1.391 . S
C767 C766 1.386 . S
C767 C771 1.393 . S
C768 H757 0.950 . S
C768 C766 1.391 . S
C768 C769 1.400 . S
C769 C763 1.491 . S
C769 C768 1.400 . S
C769 C770 1.398 . S
C770 H758 0.950 . S
C770 C769 1.398 . S
C770 C771 1.391 . S
C771 H759 0.950 . S
C771 C767 1.393 . S
C771 C770 1.391 . S
H772 C780 0.950 . S
H773 C785 0.950 . S
H774 C782 0.950 . S
H775 C784 0.950 . S
H776 C786 0.950 . S
H777 C788 0.950 . S
H778 C790 0.950 . S
H779 C791 0.950 . S
C780 H772 0.950 . S
C780 C781 1.386 . S
C780 C782 1.391 . S
C781 C780 1.386 . S
C781 C785 1.393 . S
C782 H774 0.950 . S
C782 C780 1.391 . S
C782 C783 1.400 . S
C783 C782 1.400 . S
C783 C784 1.398 . S
C783 C789 1.491 . S
C784 H775 0.950 . S
C784 C783 1.398 . S
C784 C785 1.391 . S
C785 H773 0.950 . S
C785 C781 1.393 . S
C785 C784 1.391 . S
C786 H776 0.950 . S
C786 C787 1.386 . S
C786 C788 1.391 . S
C787 C786 1.386 . S
C787 C791 1.393 . S
C788 H777 0.950 . S
C788 C786 1.391 . S
C788 C789 1.400 . S
C789 C783 1.491 . S
C789 C788 1.400 . S
C789 C790 1.398 . S
C790 H778 0.950 . S
C790 C789 1.398 . S
C790 C791 1.391 . S
C791 H779 0.950 . S
C791 C787 1.393 . S
C791 C790 1.391 . S
H792 C800 0.950 . S
H793 C805 0.950 . S
H794 C802 0.950 . S
H795 C804 0.950 . S
H796 C806 0.950 1_455 S
H797 C808 0.950 . S
H798 C810 0.950 . S
H799 C811 0.950 1_455 S
C800 H792 0.950 . S
C800 C801 1.386 . S
C800 C802 1.391 . S
C801 C800 1.386 . S
C801 C805 1.393 . S
C802 H794 0.950 . S
C802 C800 1.391 . S
C802 C803 1.400 . S
C803 C802 1.400 . S
C803 C804 1.398 . S
C803 C809 1.491 . S
C804 H795 0.950 . S
C804 C803 1.398 . S
C804 C805 1.391 . S
C805 H793 0.950 . S
C805 C801 1.393 . S
C805 C804 1.391 . S
C806 H796 0.950 1_655 S
C806 C807 1.386 1_655 S
C806 C808 1.391 . S
C807 C806 1.386 1_455 S
C807 C811 1.393 1_455 S
C808 H797 0.950 . S
C808 C806 1.391 . S
C808 C809 1.400 . S
C809 C803 1.491 . S
C809 C808 1.400 . S
C809 C810 1.398 . S
C810 H798 0.950 . S
C810 C809 1.398 . S
C810 C811 1.391 . S
C811 H799 0.950 1_655 S
C811 C807 1.393 1_655 S
C811 C810 1.391 . S
H812 C820 0.950 . S
H813 C825 0.950 . S
H814 C822 0.950 . S
H815 C824 0.950 . S
H816 C826 0.950 . S
H817 C828 0.950 . S
H818 C830 0.950 . S
H819 C831 0.950 . S
C820 H812 0.950 . S
C820 C821 1.386 . S
C820 C822 1.391 . S
C821 C820 1.386 . S
C821 C825 1.393 . S
C822 H814 0.950 . S
C822 C820 1.391 . S
C822 C823 1.400 . S
C823 C822 1.400 . S
C823 C824 1.398 . S
C823 C829 1.491 . S
C824 H815 0.950 . S
C824 C823 1.398 . S
C824 C825 1.391 . S
C825 H813 0.950 . S
C825 C821 1.393 . S
C825 C824 1.391 . S
C826 H816 0.950 . S
C826 C827 1.386 . S
C826 C828 1.391 . S
C827 C826 1.386 . S
C827 C831 1.393 . S
C828 H817 0.950 . S
C828 C826 1.391 . S
C828 C829 1.400 . S
C829 C823 1.491 . S
C829 C828 1.400 . S
C829 C830 1.398 . S
C830 H818 0.950 . S
C830 C829 1.398 . S
C830 C831 1.391 . S
C831 H819 0.950 . S
C831 C827 1.393 . S
C831 C830 1.391 . S
H832 C840 0.950 . S
H833 C845 0.950 . S
H834 C842 0.950 . S
H835 C844 0.950 . S
H836 C846 0.948 1_565 S
H837 C848 0.950 1_565 S
H838 C850 0.950 . S
H839 C851 0.950 . S
C840 H832 0.950 . S
C840 C841 1.387 1_545 S
C840 C842 1.391 . S
C841 C840 1.387 1_565 S
C841 C845 1.392 . S
C842 H834 0.950 . S
C842 C840 1.391 . S
C842 C843 1.400 . S
C843 C842 1.400 . S
C843 C844 1.398 1_545 S
C843 C849 1.491 . S
C844 H835 0.950 . S
C844 C843 1.398 1_565 S
C844 C845 1.391 . S
C845 H833 0.950 . S
C845 C841 1.392 . S
C845 C844 1.391 . S
C846 H836 0.948 1_545 S
C846 C847 1.386 . S
C846 C848 1.391 . S
C847 C846 1.386 . S
C847 C851 1.393 . S
C848 H837 0.950 1_545 S
C848 C846 1.391 . S
C848 C849 1.400 . S
C849 C843 1.491 . S
C849 C848 1.400 . S
C849 C850 1.398 . S
C850 H838 0.950 . S
C850 C849 1.398 . S
C850 C851 1.391 . S
C851 H839 0.950 . S
C851 C847 1.393 . S
C851 C850 1.391 . S
H852 C860 0.950 . S
H853 C865 0.950 . S
H854 C862 0.950 . S
H855 C864 0.950 . S
H856 C866 0.950 . S
H857 C868 0.950 . S
H858 C870 0.950 . S
H859 C871 0.950 . S
C860 H852 0.950 . S
C860 C861 1.386 . S
C860 C862 1.391 . S
C861 C860 1.386 . S
C861 C865 1.393 . S
C862 H854 0.950 . S
C862 C860 1.391 . S
C862 C863 1.400 . S
C863 C862 1.400 . S
C863 C864 1.398 . S
C863 C869 1.491 . S
C864 H855 0.950 . S
C864 C863 1.398 . S
C864 C865 1.391 . S
C865 H853 0.950 . S
C865 C861 1.393 . S
C865 C864 1.391 . S
C866 H856 0.950 . S
C866 C867 1.386 . S
C866 C868 1.391 . S
C867 C866 1.386 . S
C867 C871 1.393 . S
C868 H857 0.950 . S
C868 C866 1.391 . S
C868 C869 1.400 . S
C869 C863 1.491 . S
C869 C868 1.400 . S
C869 C870 1.398 . S
C870 H858 0.950 . S
C870 C869 1.398 . S
C870 C871 1.391 . S
C871 H859 0.950 . S
C871 C867 1.393 . S
C871 C870 1.391 . S
H872 C880 0.950 . S
H873 C885 0.950 . S
H874 C882 0.950 . S
H875 C884 0.950 . S
H876 C886 0.950 . S
H877 C888 0.950 1_455 S
H878 C890 0.950 . S
H879 C891 0.950 . S
C880 H872 0.950 . S
C880 C881 1.386 . S
C880 C882 1.391 . S
C881 C880 1.386 . S
C881 C885 1.393 . S
C882 H874 0.950 . S
C882 C880 1.391 . S
C882 C883 1.400 . S
C883 C882 1.400 . S
C883 C884 1.398 . S
C883 C889 1.491 . S
C884 H875 0.950 . S
C884 C883 1.398 . S
C884 C885 1.391 . S
C885 H873 0.950 . S
C885 C881 1.393 . S
C885 C884 1.391 . S
C886 H876 0.950 . S
C886 C887 1.386 1_455 S
C886 C888 1.391 1_455 S
C887 C886 1.386 1_655 S
C887 C891 1.393 . S
C888 H877 0.950 1_655 S
C888 C886 1.391 1_655 S
C888 C889 1.400 . S
C889 C883 1.491 . S
C889 C888 1.400 . S
C889 C890 1.398 . S
C890 H878 0.950 . S
C890 C889 1.398 . S
C890 C891 1.391 . S
C891 H879 0.950 . S
C891 C887 1.393 . S
C891 C890 1.391 . S
H892 C900 0.950 . S
H893 C905 0.950 . S
H894 C902 0.950 . S
H895 C904 0.950 . S
H896 C906 0.950 . S
H897 C908 0.950 . S
H898 C910 0.950 . S
H899 C911 0.950 . S
C900 H892 0.950 . S
C900 C901 1.386 . S
C900 C902 1.391 . S
C901 C900 1.386 . S
C901 C905 1.393 . S
C902 H894 0.950 . S
C902 C900 1.391 . S
C902 C903 1.400 . S
C903 C902 1.400 . S
C903 C904 1.398 . S
C903 C909 1.491 . S
C904 H895 0.950 . S
C904 C903 1.398 . S
C904 C905 1.391 . S
C905 H893 0.950 . S
C905 C901 1.393 . S
C905 C904 1.391 . S
C906 H896 0.950 . S
C906 C907 1.386 . S
C906 C908 1.391 . S
C907 C906 1.386 . S
C907 C911 1.393 . S
C908 H897 0.950 . S
C908 C906 1.391 . S
C908 C909 1.400 . S
C909 C903 1.491 . S
C909 C908 1.400 . S
C909 C910 1.398 . S
C910 H898 0.950 . S
C910 C909 1.398 . S
C910 C911 1.391 . S
C911 H899 0.950 . S
C911 C907 1.393 . S
C911 C910 1.391 . S
H912 C920 0.950 . S
H913 C925 0.950 . S
H914 C922 0.950 . S
H915 C924 0.950 . S
H916 C926 0.950 . S
H917 C928 0.950 . S
H918 C930 0.950 . S
H919 C931 0.950 . S
C920 H912 0.950 . S
C920 C921 1.386 . S
C920 C922 1.391 . S
C921 C920 1.386 . S
C921 C925 1.393 . S
C922 H914 0.950 . S
C922 C920 1.391 . S
C922 C923 1.400 . S
C923 C922 1.400 . S
C923 C924 1.398 . S
C923 C929 1.491 . S
C924 H915 0.950 . S
C924 C923 1.398 . S
C924 C925 1.391 . S
C925 H913 0.950 . S
C925 C921 1.393 . S
C925 C924 1.391 . S
C926 H916 0.950 . S
C926 C927 1.386 . S
C926 C928 1.391 . S
C927 C926 1.386 . S
C927 C931 1.393 . S
C928 H917 0.950 . S
C928 C926 1.391 . S
C928 C929 1.400 . S
C929 C923 1.491 . S
C929 C928 1.400 . S
C929 C930 1.398 . S
C930 H918 0.950 . S
C930 C929 1.398 . S
C930 C931 1.391 . S
C931 H919 0.950 . S
C931 C927 1.393 . S
C931 C930 1.391 . S
H932 C940 0.950 . S
H933 C945 0.950 . S
H934 C942 0.950 . S
H935 C944 0.950 . S
H936 C946 0.950 . S
H937 C948 0.950 . S
H938 C950 0.950 . S
H939 C951 0.950 . S
C940 H932 0.950 . S
C940 C941 1.386 . S
C940 C942 1.391 . S
C941 C940 1.386 . S
C941 C945 1.393 . S
C942 H934 0.950 . S
C942 C940 1.391 . S
C942 C943 1.400 . S
C943 C942 1.400 . S
C943 C944 1.398 . S
C943 C949 1.491 . S
C944 H935 0.950 . S
C944 C943 1.398 . S
C944 C945 1.391 . S
C945 H933 0.950 . S
C945 C941 1.393 . S
C945 C944 1.391 . S
C946 H936 0.950 . S
C946 C947 1.386 . S
C946 C948 1.391 . S
C947 C946 1.386 . S
C947 C951 1.393 . S
C948 H937 0.950 . S
C948 C946 1.391 . S
C948 C949 1.400 . S
C949 C943 1.491 . S
C949 C948 1.400 . S
C949 C950 1.398 . S
C950 H938 0.950 . S
C950 C949 1.398 . S
C950 C951 1.391 . S
C951 H939 0.950 . S
C951 C947 1.393 . S
C951 C950 1.391 . S
H952 C960 0.950 . S
H953 C965 0.950 . S
H954 C962 0.950 . S
H955 C964 0.950 . S
H956 C966 0.950 . S
H957 C968 0.950 . S
H958 C970 0.950 . S
H959 C971 0.946 1_545 S
C960 H952 0.950 . S
C960 C961 1.386 . S
C960 C962 1.391 . S
C961 C960 1.386 . S
C961 C965 1.393 . S
C962 H954 0.950 . S
C962 C960 1.391 . S
C962 C963 1.400 . S
C963 C962 1.400 . S
C963 C964 1.398 . S
C963 C969 1.491 . S
C964 H955 0.950 . S
C964 C963 1.398 . S
C964 C965 1.391 . S
C965 H953 0.950 . S
C965 C961 1.393 . S
C965 C964 1.391 . S
C966 H956 0.950 . S
C966 C967 1.386 . S
C966 C968 1.391 1_545 S
C967 C966 1.386 . S
C967 C971 1.380 1_545 S
C968 H957 0.950 . S
C968 C966 1.391 1_565 S
C968 C969 1.400 . S
C969 C963 1.491 . S
C969 C968 1.400 . S
C969 C970 1.398 . S
C970 H958 0.950 . S
C970 C969 1.398 . S
C970 C971 1.407 . S
C971 H959 0.946 1_565 S
C971 C967 1.380 1_565 S
C971 C970 1.407 . S
H972 C980 0.950 . S
H973 C985 0.950 . S
H974 C982 0.950 . S
H975 C984 0.950 . S
H976 C986 0.950 . S
H977 C988 0.950 . S
H978 C990 0.950 . S
H979 C991 0.950 . S
C980 H972 0.950 . S
C980 C981 1.386 . S
C980 C982 1.391 . S
C981 C980 1.386 . S
C981 C985 1.393 1_556 S
C982 H974 0.950 . S
C982 C980 1.391 . S
C982 C983 1.400 . S
C983 C982 1.400 . S
C983 C984 1.398 1_556 S
C983 C989 1.491 . S
C984 H975 0.950 . S
C984 C983 1.398 1_554 S
C984 C985 1.391 . S
C985 H973 0.950 . S
C985 C981 1.393 1_554 S
C985 C984 1.391 . S
C986 H976 0.950 . S
C986 C987 1.386 1_554 S
C986 C988 1.391 . S
C987 C986 1.386 1_556 S
C987 C991 1.393 . S
C988 H977 0.950 . S
C988 C986 1.391 . S
C988 C989 1.400 1_554 S
C989 C983 1.491 . S
C989 C988 1.400 1_556 S
C989 C990 1.398 . S
C990 H978 0.950 . S
C990 C989 1.398 . S
C990 C991 1.391 . S
C991 H979 0.950 . S
C991 C987 1.393 . S
C991 C990 1.391 . S
H992 C1000 0.950 . S
H993 C1005 0.950 . S
H994 C1002 0.950 . S
H995 C1004 0.950 . S
H996 C1006 0.950 . S
H997 C1008 0.950 . S
H998 C1010 0.950 . S
H999 C1011 0.950 . S
C1000 H992 0.950 . S
C1000 C1001 1.386 . S
C1000 C1002 1.391 . S
C1001 C1000 1.386 . S
C1001 C1005 1.393 . S
C1002 H994 0.950 . S
C1002 C1000 1.391 . S
C1002 C1003 1.400 . S
C1003 C1002 1.400 . S
C1003 C1004 1.398 . S
C1003 C1009 1.491 . S
C1004 H995 0.950 . S
C1004 C1003 1.398 . S
C1004 C1005 1.391 . S
C1005 H993 0.950 . S
C1005 C1001 1.393 . S
C1005 C1004 1.391 . S
C1006 H996 0.950 . S
C1006 C1007 1.386 . S
C1006 C1008 1.391 . S
C1007 C1006 1.386 . S
C1007 C1011 1.393 . S
C1008 H997 0.950 . S
C1008 C1006 1.391 . S
C1008 C1009 1.400 . S
C1009 C1003 1.491 . S
C1009 C1008 1.400 . S
C1009 C1010 1.398 . S
C1010 H998 0.950 . S
C1010 C1009 1.398 . S
C1010 C1011 1.391 . S
C1011 H999 0.950 . S
C1011 C1007 1.393 . S
C1011 C1010 1.391 . S
H1012 C1020 0.950 . S
H1013 C1025 0.950 . S
H1014 C1022 0.950 . S
H1015 C1024 0.950 . S
H1016 C1026 0.950 . S
H1017 C1028 0.950 . S
H1018 C1030 0.950 . S
H1019 C1031 0.950 . S
C1020 H1012 0.950 . S
C1020 C1021 1.386 . S
C1020 C1022 1.391 . S
C1021 C1020 1.386 . S
C1021 C1025 1.393 . S
C1022 H1014 0.950 . S
C1022 C1020 1.391 . S
C1022 C1023 1.400 . S
C1023 C1022 1.400 . S
C1023 C1024 1.398 . S
C1023 C1029 1.491 . S
C1024 H1015 0.950 . S
C1024 C1023 1.398 . S
C1024 C1025 1.391 . S
C1025 H1013 0.950 . S
C1025 C1021 1.393 . S
C1025 C1024 1.391 . S
C1026 H1016 0.950 . S
C1026 C1027 1.386 . S
C1026 C1028 1.391 . S
C1027 C1026 1.386 . S
C1027 C1031 1.393 . S
C1028 H1017 0.950 . S
C1028 C1026 1.391 . S
C1028 C1029 1.400 . S
C1029 C1023 1.491 . S
C1029 C1028 1.400 . S
C1029 C1030 1.398 . S
C1030 H1018 0.950 . S
C1030 C1029 1.398 . S
C1030 C1031 1.391 . S
C1031 H1019 0.950 . S
C1031 C1027 1.393 . S
C1031 C1030 1.391 . S
H1032 C1040 0.950 . S
H1033 C1045 0.950 . S
H1034 C1042 0.950 . S
H1035 C1044 0.950 . S
H1036 C1046 0.950 . S
H1037 C1048 0.950 . S
H1038 C1050 0.950 . S
H1039 C1051 0.950 . S
C1040 H1032 0.950 . S
C1040 C1041 1.386 . S
C1040 C1042 1.391 . S
C1041 C1040 1.386 . S
C1041 C1045 1.393 . S
C1042 H1034 0.950 . S
C1042 C1040 1.391 . S
C1042 C1043 1.400 . S
C1043 C1042 1.400 . S
C1043 C1044 1.398 . S
C1043 C1049 1.491 . S
C1044 H1035 0.950 . S
C1044 C1043 1.398 . S
C1044 C1045 1.391 . S
C1045 H1033 0.950 . S
C1045 C1041 1.393 . S
C1045 C1044 1.391 . S
C1046 H1036 0.950 . S
C1046 C1047 1.386 . S
C1046 C1048 1.391 . S
C1047 C1046 1.386 . S
C1047 C1051 1.393 . S
C1048 H1037 0.950 . S
C1048 C1046 1.391 . S
C1048 C1049 1.400 . S
C1049 C1043 1.491 . S
C1049 C1048 1.400 . S
C1049 C1050 1.398 . S
C1050 H1038 0.950 . S
C1050 C1049 1.398 . S
C1050 C1051 1.391 . S
C1051 H1039 0.950 . S
C1051 C1047 1.393 . S
C1051 C1050 1.391 . S
H1052 C1060 0.950 . S
H1053 C1065 0.950 . S
H1054 C1062 0.950 . S
H1055 C1064 0.950 . S
H1056 C1066 0.950 . S
H1057 C1068 0.950 . S
H1058 C1070 0.950 . S
H1059 C1071 0.950 . S
C1060 H1052 0.950 . S
C1060 C1061 1.386 . S
C1060 C1062 1.391 . S
C1061 C1060 1.386 . S
C1061 C1065 1.393 . S
C1062 H1054 0.950 . S
C1062 C1060 1.391 . S
C1062 C1063 1.400 . S
C1063 C1062 1.400 . S
C1063 C1064 1.398 . S
C1063 C1069 1.491 . S
C1064 H1055 0.950 . S
C1064 C1063 1.398 . S
C1064 C1065 1.391 . S
C1065 H1053 0.950 . S
C1065 C1061 1.393 . S
C1065 C1064 1.391 . S
C1066 H1056 0.950 . S
C1066 C1067 1.386 . S
C1066 C1068 1.391 . S
C1067 C1066 1.386 . S
C1067 C1071 1.393 . S
C1068 H1057 0.950 . S
C1068 C1066 1.391 . S
C1068 C1069 1.400 . S
C1069 C1063 1.491 . S
C1069 C1068 1.400 . S
C1069 C1070 1.398 . S
C1070 H1058 0.950 . S
C1070 C1069 1.398 . S
C1070 C1071 1.391 . S
C1071 H1059 0.950 . S
C1071 C1067 1.393 . S
C1071 C1070 1.391 . S
H1072 C1080 0.950 . S
H1073 C1085 0.950 . S
H1074 C1082 0.950 . S
H1075 C1084 0.950 . S
H1076 C1086 0.950 . S
H1077 C1088 0.950 . S
H1078 C1090 0.950 . S
H1079 C1091 0.950 . S
C1080 H1072 0.950 . S
C1080 C1081 1.386 . S
C1080 C1082 1.391 . S
C1081 C1080 1.386 . S
C1081 C1085 1.393 . S
C1082 H1074 0.950 . S
C1082 C1080 1.391 . S
C1082 C1083 1.400 . S
C1083 C1082 1.400 . S
C1083 C1084 1.398 . S
C1083 C1089 1.491 . S
C1084 H1075 0.950 . S
C1084 C1083 1.398 . S
C1084 C1085 1.391 . S
C1085 H1073 0.950 . S
C1085 C1081 1.393 . S
C1085 C1084 1.391 . S
C1086 H1076 0.950 . S
C1086 C1087 1.386 . S
C1086 C1088 1.391 . S
C1087 C1086 1.386 . S
C1087 C1091 1.393 . S
C1088 H1077 0.950 . S
C1088 C1086 1.391 . S
C1088 C1089 1.400 . S
C1089 C1083 1.491 . S
C1089 C1088 1.400 . S
C1089 C1090 1.398 . S
C1090 H1078 0.950 . S
C1090 C1089 1.398 . S
C1090 C1091 1.391 . S
C1091 H1079 0.950 . S
C1091 C1087 1.393 . S
C1091 C1090 1.391 . S
H1092 C1100 0.950 . S
H1093 C1105 0.950 . S
H1094 C1102 0.950 . S
H1095 C1104 0.950 . S
H1096 C1106 0.950 . S
H1097 C1108 0.950 . S
H1098 C1110 0.950 . S
H1099 C1111 0.950 . S
C1100 H1092 0.950 . S
C1100 C1101 1.386 . S
C1100 C1102 1.391 . S
C1101 C1100 1.386 . S
C1101 C1105 1.393 . S
C1102 H1094 0.950 . S
C1102 C1100 1.391 . S
C1102 C1103 1.400 . S
C1103 C1102 1.400 . S
C1103 C1104 1.398 . S
C1103 C1109 1.491 . S
C1104 H1095 0.950 . S
C1104 C1103 1.398 . S
C1104 C1105 1.391 . S
C1105 H1093 0.950 . S
C1105 C1101 1.393 . S
C1105 C1104 1.391 . S
C1106 H1096 0.950 . S
C1106 C1107 1.386 . S
C1106 C1108 1.391 . S
C1107 C1106 1.386 . S
C1107 C1111 1.393 . S
C1108 H1097 0.950 . S
C1108 C1106 1.391 . S
C1108 C1109 1.400 . S
C1109 C1103 1.491 . S
C1109 C1108 1.400 . S
C1109 C1110 1.398 . S
C1110 H1098 0.950 . S
C1110 C1109 1.398 . S
C1110 C1111 1.391 . S
C1111 H1099 0.950 . S
C1111 C1107 1.393 . S
C1111 C1110 1.391 . S
H1112 C1120 0.950 . S
H1113 C1125 0.950 . S
H1114 C1122 0.950 . S
H1115 C1124 0.950 . S
H1116 C1126 0.950 . S
H1117 C1128 0.950 . S
H1118 C1130 0.950 . S
H1119 C1131 0.950 . S
C1120 H1112 0.950 . S
C1120 C1121 1.386 . S
C1120 C1122 1.391 . S
C1121 C1120 1.386 . S
C1121 C1125 1.393 . S
C1122 H1114 0.950 . S
C1122 C1120 1.391 . S
C1122 C1123 1.400 . S
C1123 C1122 1.400 . S
C1123 C1124 1.398 . S
C1123 C1129 1.491 . S
C1124 H1115 0.950 . S
C1124 C1123 1.398 . S
C1124 C1125 1.391 . S
C1125 H1113 0.950 . S
C1125 C1121 1.393 . S
C1125 C1124 1.391 . S
C1126 H1116 0.950 . S
C1126 C1127 1.386 . S
C1126 C1128 1.391 . S
C1127 C1126 1.386 . S
C1127 C1131 1.393 . S
C1128 H1117 0.950 . S
C1128 C1126 1.391 . S
C1128 C1129 1.400 . S
C1129 C1123 1.491 . S
C1129 C1128 1.400 . S
C1129 C1130 1.398 . S
C1130 H1118 0.950 . S
C1130 C1129 1.398 . S
C1130 C1131 1.391 . S
C1131 H1119 0.950 . S
C1131 C1127 1.393 . S
C1131 C1130 1.391 . S
H1132 C1140 0.950 . S
H1133 C1145 0.950 . S
H1134 C1142 0.950 . S
H1135 C1144 0.950 . S
H1136 C1146 0.950 . S
H1137 C1148 0.950 . S
H1138 C1150 0.950 . S
H1139 C1151 0.950 . S
C1140 H1132 0.950 . S
C1140 C1141 1.386 . S
C1140 C1142 1.391 . S
C1141 C1140 1.386 . S
C1141 C1145 1.393 . S
C1142 H1134 0.950 . S
C1142 C1140 1.391 . S
C1142 C1143 1.400 . S
C1143 C1142 1.400 . S
C1143 C1144 1.398 . S
C1143 C1149 1.491 . S
C1144 H1135 0.950 . S
C1144 C1143 1.398 . S
C1144 C1145 1.391 . S
C1145 H1133 0.950 . S
C1145 C1141 1.393 . S
C1145 C1144 1.391 . S
C1146 H1136 0.950 . S
C1146 C1147 1.386 . S
C1146 C1148 1.391 . S
C1147 C1146 1.386 . S
C1147 C1151 1.393 . S
C1148 H1137 0.950 . S
C1148 C1146 1.391 . S
C1148 C1149 1.400 . S
C1149 C1143 1.491 . S
C1149 C1148 1.400 . S
C1149 C1150 1.398 . S
C1150 H1138 0.950 . S
C1150 C1149 1.398 . S
C1150 C1151 1.391 . S
C1151 H1139 0.950 . S
C1151 C1147 1.393 . S
C1151 C1150 1.391 . S
H1152 C1160 0.950 . S
H1153 C1165 0.950 . S
H1154 C1162 0.950 . S
H1155 C1164 0.950 . S
H1156 C1166 0.950 . S
H1157 C1168 0.950 . S
H1158 C1170 0.950 . S
H1159 C1171 0.950 . S
C1160 H1152 0.950 . S
C1160 C1161 1.386 . S
C1160 C1162 1.391 . S
C1161 C1160 1.386 . S
C1161 C1165 1.393 . S
C1162 H1154 0.950 . S
C1162 C1160 1.391 . S
C1162 C1163 1.400 . S
C1163 C1162 1.400 . S
C1163 C1164 1.398 . S
C1163 C1169 1.491 . S
C1164 H1155 0.950 . S
C1164 C1163 1.398 . S
C1164 C1165 1.391 . S
C1165 H1153 0.950 . S
C1165 C1161 1.393 . S
C1165 C1164 1.391 . S
C1166 H1156 0.950 . S
C1166 C1167 1.386 . S
C1166 C1168 1.391 . S
C1167 C1166 1.386 . S
C1167 C1171 1.393 . S
C1168 H1157 0.950 . S
C1168 C1166 1.391 . S
C1168 C1169 1.400 . S
C1169 C1163 1.491 . S
C1169 C1168 1.400 . S
C1169 C1170 1.398 . S
C1170 H1158 0.950 . S
C1170 C1169 1.398 . S
C1170 C1171 1.391 . S
C1171 H1159 0.950 . S
C1171 C1167 1.393 . S
C1171 C1170 1.391 . S
H1172 C1180 0.950 . S
H1173 C1185 0.950 . S
H1174 C1182 0.950 . S
H1175 C1184 0.950 . S
H1176 C1186 0.950 . S
H1177 C1188 0.950 . S
H1178 C1190 0.950 . S
H1179 C1191 0.950 . S
C1180 H1172 0.950 . S
C1180 C1181 1.386 . S
C1180 C1182 1.391 . S
C1181 C1180 1.386 . S
C1181 C1185 1.393 . S
C1182 H1174 0.950 . S
C1182 C1180 1.391 . S
C1182 C1183 1.400 . S
C1183 C1182 1.400 . S
C1183 C1184 1.398 . S
C1183 C1189 1.491 . S
C1184 H1175 0.950 . S
C1184 C1183 1.398 . S
C1184 C1185 1.391 . S
C1185 H1173 0.950 . S
C1185 C1181 1.393 . S
C1185 C1184 1.391 . S
C1186 H1176 0.950 . S
C1186 C1187 1.386 . S
C1186 C1188 1.391 . S
C1187 C1186 1.386 . S
C1187 C1191 1.393 . S
C1188 H1177 0.950 . S
C1188 C1186 1.391 . S
C1188 C1189 1.400 . S
C1189 C1183 1.491 . S
C1189 C1188 1.400 . S
C1189 C1190 1.398 . S
C1190 H1178 0.950 . S
C1190 C1189 1.398 . S
C1190 C1191 1.391 . S
C1191 H1179 0.950 . S
C1191 C1187 1.393 . S
C1191 C1190 1.391 . S
H1192 C1200 0.950 . S
H1193 C1205 0.950 1_655 S
H1194 C1202 0.950 . S
H1195 C1204 0.921 1_655 S
H1196 C1206 0.950 . S
H1197 C1208 0.950 . S
H1198 C1210 0.950 . S
H1199 C1211 0.950 . S
C1200 H1192 0.950 . S
C1200 C1201 1.386 . S
C1200 C1202 1.391 . S
C1201 C1200 1.386 . S
C1201 C1205 1.393 . S
C1202 H1194 0.950 . S
C1202 C1200 1.391 . S
C1202 C1203 1.400 . S
C1203 C1202 1.400 . S
C1203 C1204 1.429 . S
C1203 C1209 1.491 . S
C1204 H1195 0.921 1_455 S
C1204 C1203 1.429 . S
C1204 C1205 1.389 . S
C1205 H1193 0.950 1_455 S
C1205 C1201 1.393 . S
C1205 C1204 1.389 . S
C1206 H1196 0.950 . S
C1206 C1207 1.386 1_655 S
C1206 C1208 1.391 . S
C1207 C1206 1.386 1_455 S
C1207 C1211 1.393 . S
C1208 H1197 0.950 . S
C1208 C1206 1.391 . S
C1208 C1209 1.400 1_655 S
C1209 C1203 1.491 . S
C1209 C1208 1.400 1_455 S
C1209 C1210 1.398 . S
C1210 H1198 0.950 . S
C1210 C1209 1.398 . S
C1210 C1211 1.391 . S
C1211 H1199 0.950 . S
C1211 C1207 1.393 . S
C1211 C1210 1.391 . S
H1212 C1220 0.950 . S
H1213 C1225 0.950 . S
H1214 C1222 0.950 . S
H1215 C1224 0.950 . S
H1216 C1226 0.950 . S
H1217 C1228 0.950 . S
H1218 C1230 0.950 . S
H1219 C1231 0.950 . S
C1220 H1212 0.950 . S
C1220 C1221 1.386 . S
C1220 C1222 1.391 . S
C1221 C1220 1.386 . S
C1221 C1225 1.393 . S
C1222 H1214 0.950 . S
C1222 C1220 1.391 . S
C1222 C1223 1.400 . S
C1223 C1222 1.400 . S
C1223 C1224 1.398 . S
C1223 C1229 1.491 . S
C1224 H1215 0.950 . S
C1224 C1223 1.398 . S
C1224 C1225 1.391 . S
C1225 H1213 0.950 . S
C1225 C1221 1.393 . S
C1225 C1224 1.391 . S
C1226 H1216 0.950 . S
C1226 C1227 1.386 . S
C1226 C1228 1.391 . S
C1227 C1226 1.386 . S
C1227 C1231 1.393 . S
C1228 H1217 0.950 . S
C1228 C1226 1.391 . S
C1228 C1229 1.400 . S
C1229 C1223 1.491 . S
C1229 C1228 1.400 . S
C1229 C1230 1.398 . S
C1230 H1218 0.950 . S
C1230 C1229 1.398 . S
C1230 C1231 1.391 . S
C1231 H1219 0.950 . S
C1231 C1227 1.393 . S
C1231 C1230 1.391 . S
H1232 C1240 0.950 . S
H1233 C1245 0.950 . S
H1234 C1242 0.950 . S
H1235 C1244 0.950 . S
H1236 C1246 0.950 . S
H1237 C1248 0.950 . S
H1238 C1250 0.950 . S
H1239 C1251 0.950 . S
C1240 H1232 0.950 . S
C1240 C1241 1.386 . S
C1240 C1242 1.391 . S
C1241 C1240 1.386 . S
C1241 C1245 1.393 . S
C1242 H1234 0.950 . S
C1242 C1240 1.391 . S
C1242 C1243 1.400 . S
C1243 C1242 1.400 . S
C1243 C1244 1.398 . S
C1243 C1249 1.491 . S
C1244 H1235 0.950 . S
C1244 C1243 1.398 . S
C1244 C1245 1.391 . S
C1245 H1233 0.950 . S
C1245 C1241 1.393 . S
C1245 C1244 1.391 . S
C1246 H1236 0.950 . S
C1246 C1247 1.386 . S
C1246 C1248 1.391 . S
C1247 C1246 1.386 . S
C1247 C1251 1.393 . S
C1248 H1237 0.950 . S
C1248 C1246 1.391 . S
C1248 C1249 1.400 . S
C1249 C1243 1.491 . S
C1249 C1248 1.400 . S
C1249 C1250 1.398 . S
C1250 H1238 0.950 . S
C1250 C1249 1.398 . S
C1250 C1251 1.391 . S
C1251 H1239 0.950 . S
C1251 C1247 1.393 . S
C1251 C1250 1.391 . S
H1252 C1260 0.950 . S
H1253 C1265 0.950 . S
H1254 C1262 0.950 . S
H1255 C1264 0.950 . S
H1256 C1266 0.950 . S
H1257 C1268 0.950 . S
H1258 C1270 0.950 . S
H1259 C1271 0.950 . S
C1260 H1252 0.950 . S
C1260 C1261 1.386 . S
C1260 C1262 1.391 . S
C1261 C1260 1.386 . S
C1261 C1265 1.393 . S
C1262 H1254 0.950 . S
C1262 C1260 1.391 . S
C1262 C1263 1.400 . S
C1263 C1262 1.400 . S
C1263 C1264 1.398 . S
C1263 C1269 1.491 . S
C1264 H1255 0.950 . S
C1264 C1263 1.398 . S
C1264 C1265 1.391 . S
C1265 H1253 0.950 . S
C1265 C1261 1.393 . S
C1265 C1264 1.391 . S
C1266 H1256 0.950 . S
C1266 C1267 1.386 . S
C1266 C1268 1.391 . S
C1267 C1266 1.386 . S
C1267 C1271 1.393 . S
C1268 H1257 0.950 . S
C1268 C1266 1.391 . S
C1268 C1269 1.400 . S
C1269 C1263 1.491 . S
C1269 C1268 1.400 . S
C1269 C1270 1.398 . S
C1270 H1258 0.950 . S
C1270 C1269 1.398 . S
C1270 C1271 1.391 . S
C1271 H1259 0.950 . S
C1271 C1267 1.393 . S
C1271 C1270 1.391 . S
H1272 C1280 0.950 . S
H1273 C1285 0.950 . S
H1274 C1282 0.952 . S
H1275 C1284 0.950 . S
H1276 C1286 0.950 . S
H1277 C1288 0.950 . S
H1278 C1290 0.943 1_565 S
H1279 C1291 0.950 . S
C1280 H1272 0.950 . S
C1280 C1281 1.386 1_565 S
C1280 C1282 1.392 . S
C1281 C1280 1.386 1_545 S
C1281 C1285 1.393 . S
C1282 H1274 0.952 . S
C1282 C1280 1.392 . S
C1282 C1283 1.397 1_565 S
C1283 C1282 1.397 1_545 S
C1283 C1284 1.398 . S
C1283 C1289 1.491 . S
C1284 H1275 0.950 . S
C1284 C1283 1.398 . S
C1284 C1285 1.391 . S
C1285 H1273 0.950 . S
C1285 C1281 1.393 . S
C1285 C1284 1.391 . S
C1286 H1276 0.950 . S
C1286 C1287 1.386 . S
C1286 C1288 1.391 . S
C1287 C1286 1.386 . S
C1287 C1291 1.393 . S
C1288 H1277 0.950 . S
C1288 C1286 1.391 . S
C1288 C1289 1.400 . S
C1289 C1283 1.491 . S
C1289 C1288 1.400 . S
C1289 C1290 1.398 . S
C1290 H1278 0.943 1_545 S
C1290 C1289 1.398 . S
C1290 C1291 1.391 . S
C1291 H1279 0.950 . S
C1291 C1287 1.393 . S
C1291 C1290 1.391 . S
H1292 C1300 0.950 . S
H1293 C1305 0.950 . S
H1294 C1302 0.950 . S
H1295 C1304 0.950 . S
H1296 C1306 0.950 . S
H1297 C1308 0.950 . S
H1298 C1310 0.950 . S
H1299 C1311 0.950 . S
C1300 H1292 0.950 . S
C1300 C1301 1.386 . S
C1300 C1302 1.391 . S
C1301 C1300 1.386 . S
C1301 C1305 1.393 . S
C1302 H1294 0.950 . S
C1302 C1300 1.391 . S
C1302 C1303 1.400 . S
C1303 C1302 1.400 . S
C1303 C1304 1.398 . S
C1303 C1309 1.491 . S
C1304 H1295 0.950 . S
C1304 C1303 1.398 . S
C1304 C1305 1.391 . S
C1305 H1293 0.950 . S
C1305 C1301 1.393 . S
C1305 C1304 1.391 . S
C1306 H1296 0.950 . S
C1306 C1307 1.386 . S
C1306 C1308 1.391 . S
C1307 C1306 1.386 . S
C1307 C1311 1.393 . S
C1308 H1297 0.950 . S
C1308 C1306 1.391 . S
C1308 C1309 1.400 . S
C1309 C1303 1.491 . S
C1309 C1308 1.400 . S
C1309 C1310 1.398 . S
C1310 H1298 0.950 . S
C1310 C1309 1.398 . S
C1310 C1311 1.391 . S
C1311 H1299 0.950 . S
C1311 C1307 1.393 . S
C1311 C1310 1.391 . S
H1312 C1320 0.950 . S
H1313 C1325 0.950 . S
H1314 C1322 0.950 . S
H1315 C1324 0.950 1_565 S
H1316 C1326 0.950 1_565 S
H1317 C1328 0.950 1_565 S
H1318 C1330 0.950 . S
H1319 C1331 0.950 . S
C1320 H1312 0.950 . S
C1320 C1321 1.386 . S
C1320 C1322 1.391 . S
C1321 C1320 1.386 . S
C1321 C1325 1.393 . S
C1322 H1314 0.950 . S
C1322 C1320 1.391 . S
C1322 C1323 1.400 . S
C1323 C1322 1.400 . S
C1323 C1324 1.398 . S
C1323 C1329 1.491 . S
C1324 H1315 0.950 1_545 S
C1324 C1323 1.398 . S
C1324 C1325 1.391 . S
C1325 H1313 0.950 . S
C1325 C1321 1.393 . S
C1325 C1324 1.391 . S
C1326 H1316 0.950 1_545 S
C1326 C1327 1.386 . S
C1326 C1328 1.391 . S
C1327 C1326 1.386 . S
C1327 C1331 1.393 . S
C1328 H1317 0.950 1_545 S
C1328 C1326 1.391 . S
C1328 C1329 1.400 . S
C1329 C1323 1.491 . S
C1329 C1328 1.400 . S
C1329 C1330 1.398 . S
C1330 H1318 0.950 . S
C1330 C1329 1.398 . S
C1330 C1331 1.391 . S
C1331 H1319 0.950 . S
C1331 C1327 1.393 . S
C1331 C1330 1.391 . S
H1332 C1340 0.950 . S
H1333 C1345 0.950 . S
H1334 C1342 0.950 . S
H1335 C1344 0.950 . S
H1336 C1346 0.950 . S
H1337 C1348 0.950 . S
H1338 C1350 0.950 . S
H1339 C1351 0.950 . S
C1340 H1332 0.950 . S
C1340 C1341 1.386 . S
C1340 C1342 1.391 . S
C1341 C1340 1.386 . S
C1341 C1345 1.393 . S
C1342 H1334 0.950 . S
C1342 C1340 1.391 . S
C1342 C1343 1.400 . S
C1343 C1342 1.400 . S
C1343 C1344 1.398 . S
C1343 C1349 1.491 . S
C1344 H1335 0.950 . S
C1344 C1343 1.398 . S
C1344 C1345 1.391 . S
C1345 H1333 0.950 . S
C1345 C1341 1.393 . S
C1345 C1344 1.391 . S
C1346 H1336 0.950 . S
C1346 C1347 1.386 . S
C1346 C1348 1.391 . S
C1347 C1346 1.386 . S
C1347 C1351 1.393 . S
C1348 H1337 0.950 . S
C1348 C1346 1.391 . S
C1348 C1349 1.400 . S
C1349 C1343 1.491 . S
C1349 C1348 1.400 . S
C1349 C1350 1.398 . S
C1350 H1338 0.950 . S
C1350 C1349 1.398 . S
C1350 C1351 1.391 . S
C1351 H1339 0.950 . S
C1351 C1347 1.393 . S
C1351 C1350 1.391 . S
H1352 C1360 0.950 . S
H1353 C1365 0.950 . S
H1354 C1362 0.950 . S
H1355 C1364 0.950 . S
H1356 C1366 0.950 . S
H1357 C1368 0.950 . S
H1358 C1370 0.958 . S
H1359 C1371 0.950 . S
C1360 H1352 0.950 . S
C1360 C1361 1.386 . S
C1360 C1362 1.391 . S
C1361 C1360 1.386 . S
C1361 C1365 1.393 . S
C1362 H1354 0.950 . S
C1362 C1360 1.391 . S
C1362 C1363 1.400 . S
C1363 C1362 1.400 . S
C1363 C1364 1.398 . S
C1363 C1369 1.478 1_565 S
C1364 H1355 0.950 . S
C1364 C1363 1.398 . S
C1364 C1365 1.391 . S
C1365 H1353 0.950 . S
C1365 C1361 1.393 . S
C1365 C1364 1.391 . S
C1366 H1356 0.950 . S
C1366 C1367 1.386 . S
C1366 C1368 1.391 . S
C1367 C1366 1.386 . S
C1367 C1371 1.393 . S
C1368 H1357 0.950 . S
C1368 C1366 1.391 . S
C1368 C1369 1.415 . S
C1369 C1363 1.478 1_545 S
C1369 C1368 1.415 . S
C1369 C1370 1.399 . S
C1370 H1358 0.958 . S
C1370 C1369 1.399 . S
C1370 C1371 1.391 . S
C1371 H1359 0.950 . S
C1371 C1367 1.393 . S
C1371 C1370 1.391 . S
H1372 C1380 0.950 . S
H1373 C1385 0.950 . S
H1374 C1382 0.950 . S
H1375 C1384 0.950 . S
H1376 C1386 0.950 . S
H1377 C1388 0.950 . S
H1378 C1390 0.950 . S
H1379 C1391 0.950 . S
C1380 H1372 0.950 . S
C1380 C1381 1.386 . S
C1380 C1382 1.391 . S
C1381 C1380 1.386 . S
C1381 C1385 1.393 . S
C1382 H1374 0.950 . S
C1382 C1380 1.391 . S
C1382 C1383 1.400 . S
C1383 C1382 1.400 . S
C1383 C1384 1.398 . S
C1383 C1389 1.491 . S
C1384 H1375 0.950 . S
C1384 C1383 1.398 . S
C1384 C1385 1.391 . S
C1385 H1373 0.950 . S
C1385 C1381 1.393 . S
C1385 C1384 1.391 . S
C1386 H1376 0.950 . S
C1386 C1387 1.386 . S
C1386 C1388 1.391 . S
C1387 C1386 1.386 . S
C1387 C1391 1.393 . S
C1388 H1377 0.950 . S
C1388 C1386 1.391 . S
C1388 C1389 1.400 . S
C1389 C1383 1.491 . S
C1389 C1388 1.400 . S
C1389 C1390 1.398 . S
C1390 H1378 0.950 . S
C1390 C1389 1.398 . S
C1390 C1391 1.391 . S
C1391 H1379 0.950 . S
C1391 C1387 1.393 . S
C1391 C1390 1.391 . S
H1392 C1400 0.950 . S
H1393 C1405 0.950 . S
H1394 C1402 0.950 . S
H1395 C1404 0.950 . S
H1396 C1406 0.950 1_565 S
H1397 C1408 0.950 1_565 S
H1398 C1410 0.950 . S
H1399 C1411 0.950 . S
C1400 H1392 0.950 . S
C1400 C1401 1.386 . S
C1400 C1402 1.391 . S
C1401 C1400 1.386 . S
C1401 C1405 1.393 . S
C1402 H1394 0.950 . S
C1402 C1400 1.391 . S
C1402 C1403 1.400 . S
C1403 C1402 1.400 . S
C1403 C1404 1.398 . S
C1403 C1409 1.491 . S
C1404 H1395 0.950 . S
C1404 C1403 1.398 . S
C1404 C1405 1.391 . S
C1405 H1393 0.950 . S
C1405 C1401 1.393 . S
C1405 C1404 1.391 . S
C1406 H1396 0.950 1_545 S
C1406 C1407 1.386 . S
C1406 C1408 1.391 . S
C1407 C1406 1.386 . S
C1407 C1411 1.393 . S
C1408 H1397 0.950 1_545 S
C1408 C1406 1.391 . S
C1408 C1409 1.400 . S
C1409 C1403 1.491 . S
C1409 C1408 1.400 . S
C1409 C1410 1.398 . S
C1410 H1398 0.950 . S
C1410 C1409 1.398 . S
C1410 C1411 1.391 . S
C1411 H1399 0.950 . S
C1411 C1407 1.393 . S
C1411 C1410 1.391 . S
H1412 C1420 0.950 . S
H1413 C1425 0.950 . S
H1414 C1422 0.950 . S
H1415 C1424 0.950 . S
H1416 C1426 0.950 . S
H1417 C1428 0.950 . S
H1418 C1430 0.950 . S
H1419 C1431 0.950 . S
C1420 H1412 0.950 . S
C1420 C1421 1.386 . S
C1420 C1422 1.391 . S
C1421 C1420 1.386 . S
C1421 C1425 1.393 . S
C1422 H1414 0.950 . S
C1422 C1420 1.391 . S
C1422 C1423 1.400 . S
C1423 C1422 1.400 . S
C1423 C1424 1.398 . S
C1423 C1429 1.491 . S
C1424 H1415 0.950 . S
C1424 C1423 1.398 . S
C1424 C1425 1.391 . S
C1425 H1413 0.950 . S
C1425 C1421 1.393 . S
C1425 C1424 1.391 . S
C1426 H1416 0.950 . S
C1426 C1427 1.386 . S
C1426 C1428 1.391 . S
C1427 C1426 1.386 . S
C1427 C1431 1.393 . S
C1428 H1417 0.950 . S
C1428 C1426 1.391 . S
C1428 C1429 1.400 . S
C1429 C1423 1.491 . S
C1429 C1428 1.400 . S
C1429 C1430 1.398 . S
C1430 H1418 0.950 . S
C1430 C1429 1.398 . S
C1430 C1431 1.391 . S
C1431 H1419 0.950 . S
C1431 C1427 1.393 . S
C1431 C1430 1.391 . S
H1432 C1440 0.950 . S
H1433 C1445 0.950 . S
H1434 C1442 0.950 . S
H1435 C1444 0.950 . S
H1436 C1446 0.982 . S
H1437 C1448 0.950 . S
H1438 C1450 0.950 . S
H1439 C1451 0.950 . S
C1440 H1432 0.950 . S
C1440 C1441 1.386 . S
C1440 C1442 1.391 . S
C1441 C1440 1.386 . S
C1441 C1445 1.393 1_554 S
C1442 H1434 0.950 . S
C1442 C1440 1.391 . S
C1442 C1443 1.400 . S
C1443 C1442 1.400 . S
C1443 C1444 1.398 1_554 S
C1443 C1449 1.491 . S
C1444 H1435 0.950 . S
C1444 C1443 1.398 1_556 S
C1444 C1445 1.391 . S
C1445 H1433 0.950 . S
C1445 C1441 1.393 1_556 S
C1445 C1444 1.391 . S
C1446 H1436 0.982 . S
C1446 C1447 1.354 1_556 S
C1446 C1448 1.392 . S
C1447 C1446 1.354 1_554 S
C1447 C1451 1.393 . S
C1448 H1437 0.950 . S
C1448 C1446 1.392 . S
C1448 C1449 1.400 1_556 S
C1449 C1443 1.491 . S
C1449 C1448 1.400 1_554 S
C1449 C1450 1.398 . S
C1450 H1438 0.950 . S
C1450 C1449 1.398 . S
C1450 C1451 1.391 . S
C1451 H1439 0.950 . S
C1451 C1447 1.393 . S
C1451 C1450 1.391 . S
H1452 C1460 0.950 . S
H1453 C1465 0.950 . S
H1454 C1462 0.950 . S
H1455 C1464 0.950 . S
H1456 C1466 0.928 1_556 S
H1457 C1468 0.950 . S
H1458 C1470 0.950 . S
H1459 C1471 0.950 . S
C1460 H1452 0.950 . S
C1460 C1461 1.386 . S
C1460 C1462 1.391 . S
C1461 C1460 1.386 . S
C1461 C1465 1.393 . S
C1462 H1454 0.950 . S
C1462 C1460 1.391 . S
C1462 C1463 1.400 . S
C1463 C1462 1.400 . S
C1463 C1464 1.398 . S
C1463 C1469 1.491 . S
C1464 H1455 0.950 . S
C1464 C1463 1.398 . S
C1464 C1465 1.391 . S
C1465 H1453 0.950 . S
C1465 C1461 1.393 . S
C1465 C1464 1.391 . S
C1466 H1456 0.928 1_554 S
C1466 C1467 1.386 . S
C1466 C1468 1.391 . S
C1467 C1466 1.386 . S
C1467 C1471 1.393 . S
C1468 H1457 0.950 . S
C1468 C1466 1.391 . S
C1468 C1469 1.400 . S
C1469 C1463 1.491 . S
C1469 C1468 1.400 . S
C1469 C1470 1.398 . S
C1470 H1458 0.950 . S
C1470 C1469 1.398 . S
C1470 C1471 1.391 . S
C1471 H1459 0.950 . S
C1471 C1467 1.393 . S
C1471 C1470 1.391 . S
H1472 C1480 0.950 . S
H1473 C1485 0.950 . S
H1474 C1482 0.950 . S
H1475 C1484 0.950 . S
H1476 C1486 0.950 . S
H1477 C1488 0.950 . S
H1478 C1490 0.950 . S
H1479 C1491 0.950 . S
C1480 H1472 0.950 . S
C1480 C1481 1.386 . S
C1480 C1482 1.391 . S
C1481 C1480 1.386 . S
C1481 C1485 1.393 . S
C1482 H1474 0.950 . S
C1482 C1480 1.391 . S
C1482 C1483 1.400 . S
C1483 C1482 1.400 . S
C1483 C1484 1.398 . S
C1483 C1489 1.491 . S
C1484 H1475 0.950 . S
C1484 C1483 1.398 . S
C1484 C1485 1.391 . S
C1485 H1473 0.950 . S
C1485 C1481 1.393 . S
C1485 C1484 1.391 . S
C1486 H1476 0.950 . S
C1486 C1487 1.386 . S
C1486 C1488 1.391 . S
C1487 C1486 1.386 . S
C1487 C1491 1.393 . S
C1488 H1477 0.950 . S
C1488 C1486 1.391 . S
C1488 C1489 1.400 . S
C1489 C1483 1.491 . S
C1489 C1488 1.400 . S
C1489 C1490 1.398 . S
C1490 H1478 0.950 . S
C1490 C1489 1.398 . S
C1490 C1491 1.391 . S
C1491 H1479 0.950 . S
C1491 C1487 1.393 . S
C1491 C1490 1.391 . S
H1492 C1500 0.950 . S
H1493 C1505 0.950 . S
H1494 C1502 0.950 . S
H1495 C1504 0.950 . S
H1496 C1506 0.950 . S
H1497 C1508 0.950 . S
H1498 C1510 0.950 . S
H1499 C1511 0.950 . S
C1500 H1492 0.950 . S
C1500 C1501 1.386 . S
C1500 C1502 1.391 . S
C1501 C1500 1.386 . S
C1501 C1505 1.393 . S
C1502 H1494 0.950 . S
C1502 C1500 1.391 . S
C1502 C1503 1.400 . S
C1503 C1502 1.400 . S
C1503 C1504 1.398 . S
C1503 C1509 1.491 . S
C1504 H1495 0.950 . S
C1504 C1503 1.398 . S
C1504 C1505 1.391 . S
C1505 H1493 0.950 . S
C1505 C1501 1.393 . S
C1505 C1504 1.391 . S
C1506 H1496 0.950 . S
C1506 C1507 1.386 . S
C1506 C1508 1.391 . S
C1507 C1506 1.386 . S
C1507 C1511 1.393 . S
C1508 H1497 0.950 . S
C1508 C1506 1.391 . S
C1508 C1509 1.400 . S
C1509 C1503 1.491 . S
C1509 C1508 1.400 . S
C1509 C1510 1.398 . S
C1510 H1498 0.950 . S
C1510 C1509 1.398 . S
C1510 C1511 1.391 . S
C1511 H1499 0.950 . S
C1511 C1507 1.393 . S
C1511 C1510 1.391 . S
H1512 C1520 0.950 . S
H1513 C1525 0.950 . S
H1514 C1522 0.950 . S
H1515 C1524 0.950 . S
H1516 C1526 0.950 . S
H1517 C1528 0.950 . S
H1518 C1530 0.950 . S
H1519 C1531 0.950 . S
C1520 H1512 0.950 . S
C1520 C1521 1.386 . S
C1520 C1522 1.391 . S
C1521 C1520 1.386 . S
C1521 C1525 1.393 . S
C1522 H1514 0.950 . S
C1522 C1520 1.391 . S
C1522 C1523 1.400 . S
C1523 C1522 1.400 . S
C1523 C1524 1.398 . S
C1523 C1529 1.491 . S
C1524 H1515 0.950 . S
C1524 C1523 1.398 . S
C1524 C1525 1.391 . S
C1525 H1513 0.950 . S
C1525 C1521 1.393 . S
C1525 C1524 1.391 . S
C1526 H1516 0.950 . S
C1526 C1527 1.386 . S
C1526 C1528 1.391 . S
C1527 C1526 1.386 . S
C1527 C1531 1.393 . S
C1528 H1517 0.950 . S
C1528 C1526 1.391 . S
C1528 C1529 1.400 . S
C1529 C1523 1.491 . S
C1529 C1528 1.400 . S
C1529 C1530 1.398 . S
C1530 H1518 0.950 . S
C1530 C1529 1.398 . S
C1530 C1531 1.391 . S
C1531 H1519 0.950 . S
C1531 C1527 1.393 . S
C1531 C1530 1.391 . S
H1532 C1540 0.950 . S
H1533 C1545 0.950 . S
H1534 C1542 0.950 . S
H1535 C1544 0.950 . S
H1536 C1546 0.950 . S
H1537 C1548 0.950 . S
H1538 C1550 0.950 . S
H1539 C1551 0.974 . S
C1540 H1532 0.950 . S
C1540 C1541 1.386 . S
C1540 C1542 1.391 . S
C1541 C1540 1.386 . S
C1541 C1545 1.393 . S
C1542 H1534 0.950 . S
C1542 C1540 1.391 . S
C1542 C1543 1.400 . S
C1543 C1542 1.400 . S
C1543 C1544 1.398 . S
C1543 C1549 1.491 . S
C1544 H1535 0.950 . S
C1544 C1543 1.398 . S
C1544 C1545 1.391 . S
C1545 H1533 0.950 . S
C1545 C1541 1.393 . S
C1545 C1544 1.391 . S
C1546 H1536 0.950 . S
C1546 C1547 1.386 . S
C1546 C1548 1.391 . S
C1547 C1546 1.386 . S
C1547 C1551 1.393 . S
C1548 H1537 0.950 . S
C1548 C1546 1.391 . S
C1548 C1549 1.400 . S
C1549 C1543 1.491 . S
C1549 C1548 1.400 . S
C1549 C1550 1.398 . S
C1550 H1538 0.950 . S
C1550 C1549 1.398 . S
C1550 C1551 1.391 . S
C1551 H1539 0.974 . S
C1551 C1547 1.393 . S
C1551 C1550 1.391 . S
H1552 C1560 0.950 . S
H1553 C1565 0.950 . S
H1554 C1562 0.950 . S
H1555 C1564 0.950 . S
H1556 C1566 0.950 . S
H1557 C1568 0.950 . S
H1558 C1570 0.950 . S
H1559 C1571 0.950 . S
C1560 H1552 0.950 . S
C1560 C1561 1.386 . S
C1560 C1562 1.391 . S
C1561 C1560 1.386 . S
C1561 C1565 1.393 . S
C1562 H1554 0.950 . S
C1562 C1560 1.391 . S
C1562 C1563 1.400 . S
C1563 C1562 1.400 . S
C1563 C1564 1.398 . S
C1563 C1569 1.491 . S
C1564 H1555 0.950 . S
C1564 C1563 1.398 . S
C1564 C1565 1.391 . S
C1565 H1553 0.950 . S
C1565 C1561 1.393 . S
C1565 C1564 1.391 . S
C1566 H1556 0.950 . S
C1566 C1567 1.386 . S
C1566 C1568 1.391 . S
C1567 C1566 1.386 . S
C1567 C1571 1.393 . S
C1568 H1557 0.950 . S
C1568 C1566 1.391 . S
C1568 C1569 1.400 . S
C1569 C1563 1.491 . S
C1569 C1568 1.400 . S
C1569 C1570 1.398 . S
C1570 H1558 0.950 . S
C1570 C1569 1.398 . S
C1570 C1571 1.391 . S
C1571 H1559 0.950 . S
C1571 C1567 1.393 . S
C1571 C1570 1.391 . S
H1572 C1580 0.950 . S
H1573 C1585 0.950 . S
H1574 C1582 0.950 . S
H1575 C1584 0.950 . S
H1576 C1586 0.950 . S
H1577 C1588 0.950 . S
H1578 C1590 0.950 . S
H1579 C1591 0.950 . S
C1580 H1572 0.950 . S
C1580 C1581 1.386 . S
C1580 C1582 1.391 . S
C1581 C1580 1.386 . S
C1581 C1585 1.393 . S
C1582 H1574 0.950 . S
C1582 C1580 1.391 . S
C1582 C1583 1.400 . S
C1583 C1582 1.400 . S
C1583 C1584 1.398 . S
C1583 C1589 1.491 . S
C1584 H1575 0.950 . S
C1584 C1583 1.398 . S
C1584 C1585 1.391 . S
C1585 H1573 0.950 . S
C1585 C1581 1.393 . S
C1585 C1584 1.391 . S
C1586 H1576 0.950 . S
C1586 C1587 1.386 . S
C1586 C1588 1.391 . S
C1587 C1586 1.386 . S
C1587 C1591 1.393 . S
C1588 H1577 0.950 . S
C1588 C1586 1.391 . S
C1588 C1589 1.400 . S
C1589 C1583 1.491 . S
C1589 C1588 1.400 . S
C1589 C1590 1.398 . S
C1590 H1578 0.950 . S
C1590 C1589 1.398 . S
C1590 C1591 1.391 . S
C1591 H1579 0.950 . S
C1591 C1587 1.393 . S
C1591 C1590 1.391 . S
H1592 C1600 0.950 . S
H1593 C1605 0.950 . S
H1594 C1602 0.950 . S
H1595 C1604 0.950 . S
H1596 C1606 0.950 . S
H1597 C1608 0.950 . S
H1598 C1610 0.950 . S
H1599 C1611 0.950 . S
C1600 H1592 0.950 . S
C1600 C1601 1.386 . S
C1600 C1602 1.391 . S
C1601 C1600 1.386 . S
C1601 C1605 1.393 . S
C1602 H1594 0.950 . S
C1602 C1600 1.391 . S
C1602 C1603 1.400 . S
C1603 C1602 1.400 . S
C1603 C1604 1.398 . S
C1603 C1609 1.491 . S
C1604 H1595 0.950 . S
C1604 C1603 1.398 . S
C1604 C1605 1.391 . S
C1605 H1593 0.950 . S
C1605 C1601 1.393 . S
C1605 C1604 1.391 . S
C1606 H1596 0.950 . S
C1606 C1607 1.386 . S
C1606 C1608 1.391 . S
C1607 C1606 1.386 . S
C1607 C1611 1.393 . S
C1608 H1597 0.950 . S
C1608 C1606 1.391 . S
C1608 C1609 1.400 . S
C1609 C1603 1.491 . S
C1609 C1608 1.400 . S
C1609 C1610 1.398 . S
C1610 H1598 0.950 . S
C1610 C1609 1.398 . S
C1610 C1611 1.391 . S
C1611 H1599 0.950 . S
C1611 C1607 1.393 . S
C1611 C1610 1.391 . S
H1612 C1620 0.950 . S
H1613 C1625 0.950 . S
H1614 C1622 0.950 . S
H1615 C1624 0.950 . S
H1616 C1626 0.950 . S
H1617 C1628 0.950 . S
H1618 C1630 0.950 . S
H1619 C1631 0.950 . S
C1620 H1612 0.950 . S
C1620 C1621 1.386 . S
C1620 C1622 1.391 . S
C1621 C1620 1.386 . S
C1621 C1625 1.393 . S
C1622 H1614 0.950 . S
C1622 C1620 1.391 . S
C1622 C1623 1.400 . S
C1623 C1622 1.400 . S
C1623 C1624 1.398 . S
C1623 C1629 1.491 . S
C1624 H1615 0.950 . S
C1624 C1623 1.398 . S
C1624 C1625 1.391 . S
C1625 H1613 0.950 . S
C1625 C1621 1.393 . S
C1625 C1624 1.391 . S
C1626 H1616 0.950 . S
C1626 C1627 1.386 . S
C1626 C1628 1.391 . S
C1627 C1626 1.386 . S
C1627 C1631 1.393 . S
C1628 H1617 0.950 . S
C1628 C1626 1.391 . S
C1628 C1629 1.400 . S
C1629 C1623 1.491 . S
C1629 C1628 1.400 . S
C1629 C1630 1.398 . S
C1630 H1618 0.950 . S
C1630 C1629 1.398 . S
C1630 C1631 1.391 . S
C1631 H1619 0.950 . S
C1631 C1627 1.393 . S
C1631 C1630 1.391 . S
H1632 C1640 0.950 . S
H1633 C1645 0.950 . S
H1634 C1642 0.950 . S
H1635 C1644 0.950 . S
H1636 C1646 0.950 . S
H1637 C1648 0.950 . S
H1638 C1650 0.950 . S
H1639 C1651 0.936 1_554 S
C1640 H1632 0.950 . S
C1640 C1641 1.386 1_655 S
C1640 C1642 1.391 . S
C1641 C1640 1.386 1_455 S
C1641 C1645 1.393 . S
C1642 H1634 0.950 . S
C1642 C1640 1.391 . S
C1642 C1643 1.400 1_655 S
C1643 C1642 1.400 1_455 S
C1643 C1644 1.398 . S
C1643 C1649 1.491 . S
C1644 H1635 0.950 . S
C1644 C1643 1.398 . S
C1644 C1645 1.391 . S
C1645 H1633 0.950 . S
C1645 C1641 1.393 . S
C1645 C1644 1.391 . S
C1646 H1636 0.950 . S
C1646 C1647 1.386 1_455 S
C1646 C1648 1.391 . S
C1647 C1646 1.386 1_655 S
C1647 C1651 1.396 . S
C1648 H1637 0.950 . S
C1648 C1646 1.391 . S
C1648 C1649 1.400 . S
C1649 C1643 1.491 . S
C1649 C1648 1.400 . S
C1649 C1650 1.398 1_455 S
C1650 H1638 0.950 . S
C1650 C1649 1.398 1_655 S
C1650 C1651 1.401 . S
C1651 H1639 0.936 1_556 S
C1651 C1647 1.396 . S
C1651 C1650 1.401 . S
H1652 C1660 0.950 . S
H1653 C1665 0.950 . S
H1654 C1662 0.950 . S
H1655 C1664 0.950 . S
H1656 C1666 0.950 . S
H1657 C1668 0.950 . S
H1658 C1670 0.950 . S
H1659 C1671 0.950 . S
C1660 H1652 0.950 . S
C1660 C1661 1.386 . S
C1660 C1662 1.391 . S
C1661 C1660 1.386 . S
C1661 C1665 1.393 . S
C1662 H1654 0.950 . S
C1662 C1660 1.391 . S
C1662 C1663 1.400 . S
C1663 C1662 1.400 . S
C1663 C1664 1.398 . S
C1663 C1669 1.491 . S
C1664 H1655 0.950 . S
C1664 C1663 1.398 . S
C1664 C1665 1.391 . S
C1665 H1653 0.950 . S
C1665 C1661 1.393 . S
C1665 C1664 1.391 . S
C1666 H1656 0.950 . S
C1666 C1667 1.386 . S
C1666 C1668 1.391 . S
C1667 C1666 1.386 . S
C1667 C1671 1.393 . S
C1668 H1657 0.950 . S
C1668 C1666 1.391 . S
C1668 C1669 1.400 . S
C1669 C1663 1.491 . S
C1669 C1668 1.400 . S
C1669 C1670 1.398 . S
C1670 H1658 0.950 . S
C1670 C1669 1.398 . S
C1670 C1671 1.391 . S
C1671 H1659 0.950 . S
C1671 C1667 1.393 . S
C1671 C1670 1.391 . S
H1672 C1680 0.950 . S
H1673 C1685 0.950 . S
H1674 C1682 0.950 . S
H1675 C1684 0.950 . S
H1676 C1686 0.950 . S
H1677 C1688 0.950 . S
H1678 C1690 0.950 . S
H1679 C1691 0.950 . S
C1680 H1672 0.950 . S
C1680 C1681 1.386 . S
C1680 C1682 1.391 . S
C1681 C1680 1.386 . S
C1681 C1685 1.393 . S
C1682 H1674 0.950 . S
C1682 C1680 1.391 . S
C1682 C1683 1.400 . S
C1683 C1682 1.400 . S
C1683 C1684 1.398 . S
C1683 C1689 1.491 . S
C1684 H1675 0.950 . S
C1684 C1683 1.398 . S
C1684 C1685 1.391 . S
C1685 H1673 0.950 . S
C1685 C1681 1.393 . S
C1685 C1684 1.391 . S
C1686 H1676 0.950 . S
C1686 C1687 1.386 . S
C1686 C1688 1.391 . S
C1687 C1686 1.386 . S
C1687 C1691 1.393 . S
C1688 H1677 0.950 . S
C1688 C1686 1.391 . S
C1688 C1689 1.400 . S
C1689 C1683 1.491 . S
C1689 C1688 1.400 . S
C1689 C1690 1.398 . S
C1690 H1678 0.950 . S
C1690 C1689 1.398 . S
C1690 C1691 1.391 . S
C1691 H1679 0.950 . S
C1691 C1687 1.393 . S
C1691 C1690 1.391 . S
H1692 C1700 0.950 . S
H1693 C1705 0.950 . S
H1694 C1702 0.950 . S
H1695 C1704 0.950 . S
H1696 C1706 0.950 . S
H1697 C1708 0.950 . S
H1698 C1710 0.950 . S
H1699 C1711 0.950 . S
C1700 H1692 0.950 . S
C1700 C1701 1.386 . S
C1700 C1702 1.391 . S
C1701 C1700 1.386 . S
C1701 C1705 1.393 . S
C1702 H1694 0.950 . S
C1702 C1700 1.391 . S
C1702 C1703 1.400 . S
C1703 C1702 1.400 . S
C1703 C1704 1.398 . S
C1703 C1709 1.491 . S
C1704 H1695 0.950 . S
C1704 C1703 1.398 . S
C1704 C1705 1.391 . S
C1705 H1693 0.950 . S
C1705 C1701 1.393 . S
C1705 C1704 1.391 . S
C1706 H1696 0.950 . S
C1706 C1707 1.386 . S
C1706 C1708 1.391 . S
C1707 C1706 1.386 . S
C1707 C1711 1.393 . S
C1708 H1697 0.950 . S
C1708 C1706 1.391 . S
C1708 C1709 1.400 . S
C1709 C1703 1.491 . S
C1709 C1708 1.400 . S
C1709 C1710 1.398 . S
C1710 H1698 0.950 . S
C1710 C1709 1.398 . S
C1710 C1711 1.391 . S
C1711 H1699 0.950 . S
C1711 C1707 1.393 . S
C1711 C1710 1.391 . S
H1712 C1720 0.950 . S
H1713 C1725 0.950 . S
H1714 C1722 0.950 . S
H1715 C1724 0.950 . S
H1716 C1726 0.950 . S
H1717 C1728 0.950 . S
H1718 C1730 0.950 . S
H1719 C1731 0.950 . S
C1720 H1712 0.950 . S
C1720 C1721 1.386 . S
C1720 C1722 1.391 . S
C1721 C1720 1.386 . S
C1721 C1725 1.393 1_655 S
C1722 H1714 0.950 . S
C1722 C1720 1.391 . S
C1722 C1723 1.400 . S
C1723 C1722 1.400 . S
C1723 C1724 1.398 1_655 S
C1723 C1729 1.491 . S
C1724 H1715 0.950 . S
C1724 C1723 1.398 1_455 S
C1724 C1725 1.391 . S
C1725 H1713 0.950 . S
C1725 C1721 1.393 1_455 S
C1725 C1724 1.391 . S
C1726 H1716 0.950 . S
C1726 C1727 1.386 1_455 S
C1726 C1728 1.391 . S
C1727 C1726 1.386 1_655 S
C1727 C1731 1.393 . S
C1728 H1717 0.950 . S
C1728 C1726 1.391 . S
C1728 C1729 1.400 1_455 S
C1729 C1723 1.491 . S
C1729 C1728 1.400 1_655 S
C1729 C1730 1.398 . S
C1730 H1718 0.950 . S
C1730 C1729 1.398 . S
C1730 C1731 1.391 . S
C1731 H1719 0.950 . S
C1731 C1727 1.393 . S
C1731 C1730 1.391 . S
H1732 C1740 0.950 . S
H1733 C1745 0.950 . S
H1734 C1742 0.950 . S
H1735 C1744 0.950 . S
H1736 C1746 0.950 . S
H1737 C1748 0.950 . S
H1738 C1750 0.950 . S
H1739 C1751 0.950 . S
C1740 H1732 0.950 . S
C1740 C1741 1.386 . S
C1740 C1742 1.391 . S
C1741 C1740 1.386 . S
C1741 C1745 1.393 . S
C1742 H1734 0.950 . S
C1742 C1740 1.391 . S
C1742 C1743 1.400 . S
C1743 C1742 1.400 . S
C1743 C1744 1.398 . S
C1743 C1749 1.491 . S
C1744 H1735 0.950 . S
C1744 C1743 1.398 . S
C1744 C1745 1.391 . S
C1745 H1733 0.950 . S
C1745 C1741 1.393 . S
C1745 C1744 1.391 . S
C1746 H1736 0.950 . S
C1746 C1747 1.386 . S
C1746 C1748 1.391 . S
C1747 C1746 1.386 . S
C1747 C1751 1.393 . S
C1748 H1737 0.950 . S
C1748 C1746 1.391 . S
C1748 C1749 1.400 . S
C1749 C1743 1.491 . S
C1749 C1748 1.400 . S
C1749 C1750 1.398 . S
C1750 H1738 0.950 . S
C1750 C1749 1.398 . S
C1750 C1751 1.391 . S
C1751 H1739 0.950 . S
C1751 C1747 1.393 . S
C1751 C1750 1.391 . S
H1752 C1760 0.950 . S
H1753 C1765 0.950 . S
H1754 C1762 0.950 . S
H1755 C1764 0.950 . S
H1756 C1766 0.950 . S
H1757 C1768 0.950 . S
H1758 C1770 0.950 . S
H1759 C1771 0.950 . S
C1760 H1752 0.950 . S
C1760 C1761 1.386 . S
C1760 C1762 1.391 . S
C1761 C1760 1.386 . S
C1761 C1765 1.393 . S
C1762 H1754 0.950 . S
C1762 C1760 1.391 . S
C1762 C1763 1.400 . S
C1763 C1762 1.400 . S
C1763 C1764 1.398 . S
C1763 C1769 1.491 . S
C1764 H1755 0.950 . S
C1764 C1763 1.398 . S
C1764 C1765 1.391 . S
C1765 H1753 0.950 . S
C1765 C1761 1.393 . S
C1765 C1764 1.391 . S
C1766 H1756 0.950 . S
C1766 C1767 1.386 . S
C1766 C1768 1.391 . S
C1767 C1766 1.386 . S
C1767 C1771 1.393 . S
C1768 H1757 0.950 . S
C1768 C1766 1.391 . S
C1768 C1769 1.400 . S
C1769 C1763 1.491 . S
C1769 C1768 1.400 . S
C1769 C1770 1.398 . S
C1770 H1758 0.950 . S
C1770 C1769 1.398 . S
C1770 C1771 1.391 . S
C1771 H1759 0.950 . S
C1771 C1767 1.393 . S
C1771 C1770 1.391 . S
H1772 C1780 0.950 . S
H1773 C1785 0.950 . S
H1774 C1782 0.950 . S
H1775 C1784 0.950 . S
H1776 C1786 0.950 . S
H1777 C1788 0.950 . S
H1778 C1790 0.950 . S
H1779 C1791 0.950 . S
C1780 H1772 0.950 . S
C1780 C1781 1.386 . S
C1780 C1782 1.391 . S
C1781 C1780 1.386 . S
C1781 C1785 1.393 . S
C1782 H1774 0.950 . S
C1782 C1780 1.391 . S
C1782 C1783 1.400 . S
C1783 C1782 1.400 . S
C1783 C1784 1.398 . S
C1783 C1789 1.491 . S
C1784 H1775 0.950 . S
C1784 C1783 1.398 . S
C1784 C1785 1.391 . S
C1785 H1773 0.950 . S
C1785 C1781 1.393 . S
C1785 C1784 1.391 . S
C1786 H1776 0.950 . S
C1786 C1787 1.386 . S
C1786 C1788 1.391 . S
C1787 C1786 1.386 . S
C1787 C1791 1.393 . S
C1788 H1777 0.950 . S
C1788 C1786 1.391 . S
C1788 C1789 1.400 . S
C1789 C1783 1.491 . S
C1789 C1788 1.400 . S
C1789 C1790 1.398 . S
C1790 H1778 0.950 . S
C1790 C1789 1.398 . S
C1790 C1791 1.391 . S
C1791 H1779 0.950 . S
C1791 C1787 1.393 . S
C1791 C1790 1.391 . S
H1792 C1800 0.950 . S
H1793 C1805 0.950 . S
H1794 C1802 0.950 . S
H1795 C1804 0.950 . S
H1796 C1806 0.950 . S
H1797 C1808 0.950 . S
H1798 C1810 0.950 . S
H1799 C1811 0.950 1_655 S
C1800 H1792 0.950 . S
C1800 C1801 1.386 . S
C1800 C1802 1.391 . S
C1801 C1800 1.386 . S
C1801 C1805 1.393 . S
C1802 H1794 0.950 . S
C1802 C1800 1.391 . S
C1802 C1803 1.400 . S
C1803 C1802 1.400 . S
C1803 C1804 1.398 . S
C1803 C1809 1.491 . S
C1804 H1795 0.950 . S
C1804 C1803 1.398 . S
C1804 C1805 1.391 . S
C1805 H1793 0.950 . S
C1805 C1801 1.393 . S
C1805 C1804 1.391 . S
C1806 H1796 0.950 . S
C1806 C1807 1.386 . S
C1806 C1808 1.391 . S
C1807 C1806 1.386 . S
C1807 C1811 1.393 . S
C1808 H1797 0.950 . S
C1808 C1806 1.391 . S
C1808 C1809 1.400 . S
C1809 C1803 1.491 . S
C1809 C1808 1.400 . S
C1809 C1810 1.398 . S
C1810 H1798 0.950 . S
C1810 C1809 1.398 . S
C1810 C1811 1.391 . S
C1811 H1799 0.950 1_455 S
C1811 C1807 1.393 . S
C1811 C1810 1.391 . S
H1812 C1820 0.950 . S
H1813 C1825 0.950 . S
H1814 C1822 0.950 . S
H1815 C1824 0.950 . S
H1816 C1826 0.950 . S
H1817 C1828 0.950 . S
H1818 C1830 0.950 . S
H1819 C1831 0.950 . S
C1820 H1812 0.950 . S
C1820 C1821 1.386 . S
C1820 C1822 1.391 . S
C1821 C1820 1.386 . S
C1821 C1825 1.393 . S
C1822 H1814 0.950 . S
C1822 C1820 1.391 . S
C1822 C1823 1.400 . S
C1823 C1822 1.400 . S
C1823 C1824 1.398 . S
C1823 C1829 1.491 . S
C1824 H1815 0.950 . S
C1824 C1823 1.398 . S
C1824 C1825 1.391 . S
C1825 H1813 0.950 . S
C1825 C1821 1.393 . S
C1825 C1824 1.391 . S
C1826 H1816 0.950 . S
C1826 C1827 1.386 . S
C1826 C1828 1.391 . S
C1827 C1826 1.386 . S
C1827 C1831 1.393 . S
C1828 H1817 0.950 . S
C1828 C1826 1.391 . S
C1828 C1829 1.400 . S
C1829 C1823 1.491 . S
C1829 C1828 1.400 . S
C1829 C1830 1.398 . S
C1830 H1818 0.950 . S
C1830 C1829 1.398 . S
C1830 C1831 1.391 . S
C1831 H1819 0.950 . S
C1831 C1827 1.393 . S
C1831 C1830 1.391 . S
H1832 C1840 0.950 . S
H1833 C1845 0.950 . S
H1834 C1842 0.950 . S
H1835 C1844 0.950 . S
H1836 C1846 0.950 . S
H1837 C1848 0.950 . S
H1838 C1850 0.950 . S
H1839 C1851 0.950 . S
C1840 H1832 0.950 . S
C1840 C1841 1.386 . S
C1840 C1842 1.391 . S
C1841 C1840 1.386 . S
C1841 C1845 1.393 . S
C1842 H1834 0.950 . S
C1842 C1840 1.391 . S
C1842 C1843 1.400 . S
C1843 C1842 1.400 . S
C1843 C1844 1.398 . S
C1843 C1849 1.491 . S
C1844 H1835 0.950 . S
C1844 C1843 1.398 . S
C1844 C1845 1.391 . S
C1845 H1833 0.950 . S
C1845 C1841 1.393 . S
C1845 C1844 1.391 . S
C1846 H1836 0.950 . S
C1846 C1847 1.386 . S
C1846 C1848 1.391 . S
C1847 C1846 1.386 . S
C1847 C1851 1.393 . S
C1848 H1837 0.950 . S
C1848 C1846 1.391 . S
C1848 C1849 1.400 . S
C1849 C1843 1.491 . S
C1849 C1848 1.400 . S
C1849 C1850 1.398 . S
C1850 H1838 0.950 . S
C1850 C1849 1.398 . S
C1850 C1851 1.391 . S
C1851 H1839 0.950 . S
C1851 C1847 1.393 . S
C1851 C1850 1.391 . S
H1852 C1860 0.950 . S
H1853 C1865 0.950 . S
H1854 C1862 0.950 . S
H1855 C1864 0.950 . S
H1856 C1866 0.950 . S
H1857 C1868 0.950 . S
H1858 C1870 0.950 . S
H1859 C1871 0.950 . S
C1860 H1852 0.950 . S
C1860 C1861 1.386 . S
C1860 C1862 1.391 . S
C1861 C1860 1.386 . S
C1861 C1865 1.393 . S
C1862 H1854 0.950 . S
C1862 C1860 1.391 . S
C1862 C1863 1.400 . S
C1863 C1862 1.400 . S
C1863 C1864 1.398 . S
C1863 C1869 1.491 . S
C1864 H1855 0.950 . S
C1864 C1863 1.398 . S
C1864 C1865 1.391 . S
C1865 H1853 0.950 . S
C1865 C1861 1.393 . S
C1865 C1864 1.391 . S
C1866 H1856 0.950 . S
C1866 C1867 1.386 . S
C1866 C1868 1.391 . S
C1867 C1866 1.386 . S
C1867 C1871 1.393 . S
C1868 H1857 0.950 . S
C1868 C1866 1.391 . S
C1868 C1869 1.400 . S
C1869 C1863 1.491 . S
C1869 C1868 1.400 . S
C1869 C1870 1.398 . S
C1870 H1858 0.950 . S
C1870 C1869 1.398 . S
C1870 C1871 1.391 . S
C1871 H1859 0.950 . S
C1871 C1867 1.393 . S
C1871 C1870 1.391 . S
H1872 C1880 0.950 . S
H1873 C1885 0.950 . S
H1874 C1882 0.950 . S
H1875 C1884 0.950 . S
H1876 C1886 0.950 . S
H1877 C1888 0.950 . S
H1878 C1890 0.950 . S
H1879 C1891 0.950 . S
C1880 H1872 0.950 . S
C1880 C1881 1.386 . S
C1880 C1882 1.391 . S
C1881 C1880 1.386 . S
C1881 C1885 1.393 . S
C1882 H1874 0.950 . S
C1882 C1880 1.391 . S
C1882 C1883 1.400 . S
C1883 C1882 1.400 . S
C1883 C1884 1.398 . S
C1883 C1889 1.491 . S
C1884 H1875 0.950 . S
C1884 C1883 1.398 . S
C1884 C1885 1.391 . S
C1885 H1873 0.950 . S
C1885 C1881 1.393 . S
C1885 C1884 1.391 . S
C1886 H1876 0.950 . S
C1886 C1887 1.386 . S
C1886 C1888 1.391 . S
C1887 C1886 1.386 . S
C1887 C1891 1.393 . S
C1888 H1877 0.950 . S
C1888 C1886 1.391 . S
C1888 C1889 1.400 . S
C1889 C1883 1.491 . S
C1889 C1888 1.400 . S
C1889 C1890 1.398 . S
C1890 H1878 0.950 . S
C1890 C1889 1.398 . S
C1890 C1891 1.391 . S
C1891 H1879 0.950 . S
C1891 C1887 1.393 . S
C1891 C1890 1.391 . S
H1892 C1900 0.950 . S
H1893 C1905 0.950 . S
H1894 C1902 0.950 . S
H1895 C1904 0.950 . S
H1896 C1906 0.950 . S
H1897 C1908 0.950 . S
H1898 C1910 0.950 . S
H1899 C1911 0.950 . S
C1900 H1892 0.950 . S
C1900 C1901 1.386 . S
C1900 C1902 1.391 . S
C1901 C1900 1.386 . S
C1901 C1905 1.393 . S
C1902 H1894 0.950 . S
C1902 C1900 1.391 . S
C1902 C1903 1.400 . S
C1903 C1902 1.400 . S
C1903 C1904 1.398 . S
C1903 C1909 1.491 . S
C1904 H1895 0.950 . S
C1904 C1903 1.398 . S
C1904 C1905 1.391 . S
C1905 H1893 0.950 . S
C1905 C1901 1.393 . S
C1905 C1904 1.391 . S
C1906 H1896 0.950 . S
C1906 C1907 1.386 . S
C1906 C1908 1.391 . S
C1907 C1906 1.386 . S
C1907 C1911 1.393 . S
C1908 H1897 0.950 . S
C1908 C1906 1.391 . S
C1908 C1909 1.400 . S
C1909 C1903 1.491 . S
C1909 C1908 1.400 . S
C1909 C1910 1.398 . S
C1910 H1898 0.950 . S
C1910 C1909 1.398 . S
C1910 C1911 1.391 . S
C1911 H1899 0.950 . S
C1911 C1907 1.393 . S
C1911 C1910 1.391 . S
H1912 C1920 0.950 . S
H1913 C1925 0.950 . S
H1914 C1922 0.950 . S
H1915 C1924 0.950 . S
H1916 C1926 0.950 . S
H1917 C1928 0.950 . S
H1918 C1930 0.950 . S
H1919 C1931 0.950 . S
C1920 H1912 0.950 . S
C1920 C1921 1.386 . S
C1920 C1922 1.391 . S
C1921 C1920 1.386 . S
C1921 C1925 1.393 . S
C1922 H1914 0.950 . S
C1922 C1920 1.391 . S
C1922 C1923 1.400 . S
C1923 C1922 1.400 . S
C1923 C1924 1.398 . S
C1923 C1929 1.491 . S
C1924 H1915 0.950 . S
C1924 C1923 1.398 . S
C1924 C1925 1.391 . S
C1925 H1913 0.950 . S
C1925 C1921 1.393 . S
C1925 C1924 1.391 . S
C1926 H1916 0.950 . S
C1926 C1927 1.386 . S
C1926 C1928 1.391 . S
C1927 C1926 1.386 . S
C1927 C1931 1.393 . S
C1928 H1917 0.950 . S
C1928 C1926 1.391 . S
C1928 C1929 1.400 . S
C1929 C1923 1.491 . S
C1929 C1928 1.400 . S
C1929 C1930 1.398 . S
C1930 H1918 0.950 . S
C1930 C1929 1.398 . S
C1930 C1931 1.391 . S
C1931 H1919 0.950 . S
C1931 C1927 1.393 . S
C1931 C1930 1.391 . S
H1932 C1940 0.950 . S
H1933 C1945 0.950 . S
H1934 C1942 0.950 . S
H1935 C1944 0.950 . S
H1936 C1946 0.950 . S
H1937 C1948 0.950 . S
H1938 C1950 0.950 . S
H1939 C1951 0.950 . S
C1940 H1932 0.950 . S
C1940 C1941 1.386 . S
C1940 C1942 1.391 . S
C1941 C1940 1.386 . S
C1941 C1945 1.393 . S
C1942 H1934 0.950 . S
C1942 C1940 1.391 . S
C1942 C1943 1.400 . S
C1943 C1942 1.400 . S
C1943 C1944 1.398 . S
C1943 C1949 1.491 . S
C1944 H1935 0.950 . S
C1944 C1943 1.398 . S
C1944 C1945 1.391 . S
C1945 H1933 0.950 . S
C1945 C1941 1.393 . S
C1945 C1944 1.391 . S
C1946 H1936 0.950 . S
C1946 C1947 1.386 . S
C1946 C1948 1.391 . S
C1947 C1946 1.386 . S
C1947 C1951 1.393 . S
C1948 H1937 0.950 . S
C1948 C1946 1.391 . S
C1948 C1949 1.400 . S
C1949 C1943 1.491 . S
C1949 C1948 1.400 . S
C1949 C1950 1.398 . S
C1950 H1938 0.950 . S
C1950 C1949 1.398 . S
C1950 C1951 1.391 . S
C1951 H1939 0.950 . S
C1951 C1947 1.393 . S
C1951 C1950 1.391 . S
H1952 C1960 0.950 . S
H1953 C1965 0.950 . S
H1954 C1962 0.950 . S
H1955 C1964 0.950 . S
H1956 C1966 0.950 . S
H1957 C1968 0.950 . S
H1958 C1970 0.950 . S
H1959 C1971 0.950 . S
C1960 H1952 0.950 . S
C1960 C1961 1.386 . S
C1960 C1962 1.391 . S
C1961 C1960 1.386 . S
C1961 C1965 1.393 . S
C1962 H1954 0.950 . S
C1962 C1960 1.391 . S
C1962 C1963 1.400 . S
C1963 C1962 1.400 . S
C1963 C1964 1.398 . S
C1963 C1969 1.491 . S
C1964 H1955 0.950 . S
C1964 C1963 1.398 . S
C1964 C1965 1.391 . S
C1965 H1953 0.950 . S
C1965 C1961 1.393 . S
C1965 C1964 1.391 . S
C1966 H1956 0.950 . S
C1966 C1967 1.386 . S
C1966 C1968 1.391 . S
C1967 C1966 1.386 . S
C1967 C1971 1.393 . S
C1968 H1957 0.950 . S
C1968 C1966 1.391 . S
C1968 C1969 1.400 . S
C1969 C1963 1.491 . S
C1969 C1968 1.400 . S
C1969 C1970 1.398 . S
C1970 H1958 0.950 . S
C1970 C1969 1.398 . S
C1970 C1971 1.391 . S
C1971 H1959 0.950 . S
C1971 C1967 1.393 . S
C1971 C1970 1.391 . S
H1972 C1980 0.950 . S
H1973 C1985 0.950 . S
H1974 C1982 0.955 . S
H1975 C1984 0.950 . S
H1976 C1986 0.950 . S
H1977 C1988 0.951 . S
H1978 C1990 0.950 1_556 S
H1979 C1991 0.950 1_556 S
C1980 H1972 0.950 . S
C1980 C1981 1.386 . S
C1980 C1982 1.391 . S
C1981 C1980 1.386 . S
C1981 C1985 1.393 . S
C1982 H1974 0.955 . S
C1982 C1980 1.391 . S
C1982 C1983 1.400 . S
C1983 C1982 1.400 . S
C1983 C1984 1.398 . S
C1983 C1989 1.491 . S
C1984 H1975 0.950 . S
C1984 C1983 1.398 . S
C1984 C1985 1.391 . S
C1985 H1973 0.950 . S
C1985 C1981 1.393 . S
C1985 C1984 1.391 . S
C1986 H1976 0.950 . S
C1986 C1987 1.386 . S
C1986 C1988 1.392 . S
C1987 C1986 1.386 . S
C1987 C1991 1.393 1_545 S
C1988 H1977 0.951 . S
C1988 C1986 1.392 . S
C1988 C1989 1.398 1_545 S
C1989 C1983 1.491 . S
C1989 C1988 1.398 1_565 S
C1989 C1990 1.398 . S
C1990 H1978 0.950 1_554 S
C1990 C1989 1.398 . S
C1990 C1991 1.391 . S
C1991 H1979 0.950 1_554 S
C1991 C1987 1.393 1_565 S
C1991 C1990 1.391 . S
H1992 C2000 0.950 . S
H1993 C2005 0.950 . S
H1994 C2002 0.950 . S
H1995 C2004 0.950 . S
H1996 C2006 0.950 . S
H1997 C2008 0.950 . S
H1998 C2010 0.950 . S
H1999 C2011 0.950 . S
C2000 H1992 0.950 . S
C2000 C2001 1.386 . S
C2000 C2002 1.391 . S
C2001 C2000 1.386 . S
C2001 C2005 1.393 . S
C2002 H1994 0.950 . S
C2002 C2000 1.391 . S
C2002 C2003 1.400 . S
C2003 C2002 1.400 . S
C2003 C2004 1.398 . S
C2003 C2009 1.491 . S
C2004 H1995 0.950 . S
C2004 C2003 1.398 . S
C2004 C2005 1.391 . S
C2005 H1993 0.950 . S
C2005 C2001 1.393 . S
C2005 C2004 1.391 . S
C2006 H1996 0.950 . S
C2006 C2007 1.386 . S
C2006 C2008 1.391 . S
C2007 C2006 1.386 . S
C2007 C2011 1.393 . S
C2008 H1997 0.950 . S
C2008 C2006 1.391 . S
C2008 C2009 1.400 . S
C2009 C2003 1.491 . S
C2009 C2008 1.400 . S
C2009 C2010 1.398 . S
C2010 H1998 0.950 . S
C2010 C2009 1.398 . S
C2010 C2011 1.391 . S
C2011 H1999 0.950 . S
C2011 C2007 1.393 . S
C2011 C2010 1.391 . S
H2012 C2020 0.950 . S
H2013 C2025 0.950 . S
H2014 C2022 0.950 . S
H2015 C2024 0.950 . S
H2016 C2026 0.950 . S
H2017 C2028 0.950 . S
H2018 C2030 0.950 . S
H2019 C2031 0.950 . S
C2020 H2012 0.950 . S
C2020 C2021 1.386 . S
C2020 C2022 1.391 . S
C2021 C2020 1.386 . S
C2021 C2025 1.393 . S
C2022 H2014 0.950 . S
C2022 C2020 1.391 . S
C2022 C2023 1.400 . S
C2023 C2022 1.400 . S
C2023 C2024 1.398 . S
C2023 C2029 1.491 . S
C2024 H2015 0.950 . S
C2024 C2023 1.398 . S
C2024 C2025 1.391 . S
C2025 H2013 0.950 . S
C2025 C2021 1.393 . S
C2025 C2024 1.391 . S
C2026 H2016 0.950 . S
C2026 C2027 1.386 . S
C2026 C2028 1.391 . S
C2027 C2026 1.386 . S
C2027 C2031 1.393 . S
C2028 H2017 0.950 . S
C2028 C2026 1.391 . S
C2028 C2029 1.400 . S
C2029 C2023 1.491 . S
C2029 C2028 1.400 . S
C2029 C2030 1.398 . S
C2030 H2018 0.950 . S
C2030 C2029 1.398 . S
C2030 C2031 1.391 . S
C2031 H2019 0.950 . S
C2031 C2027 1.393 . S
C2031 C2030 1.391 . S
H2032 C2040 0.950 . S
H2033 C2045 0.950 . S
H2034 C2042 0.950 . S
H2035 C2044 0.950 . S
H2036 C2046 0.950 . S
H2037 C2048 0.950 . S
H2038 C2050 0.950 . S
H2039 C2051 0.950 . S
C2040 H2032 0.950 . S
C2040 C2041 1.386 . S
C2040 C2042 1.391 . S
C2041 C2040 1.386 . S
C2041 C2045 1.393 . S
C2042 H2034 0.950 . S
C2042 C2040 1.391 . S
C2042 C2043 1.400 . S
C2043 C2042 1.400 . S
C2043 C2044 1.398 . S
C2043 C2049 1.491 . S
C2044 H2035 0.950 . S
C2044 C2043 1.398 . S
C2044 C2045 1.391 . S
C2045 H2033 0.950 . S
C2045 C2041 1.393 . S
C2045 C2044 1.391 . S
C2046 H2036 0.950 . S
C2046 C2047 1.386 . S
C2046 C2048 1.391 . S
C2047 C2046 1.386 . S
C2047 C2051 1.393 . S
C2048 H2037 0.950 . S
C2048 C2046 1.391 . S
C2048 C2049 1.400 . S
C2049 C2043 1.491 . S
C2049 C2048 1.400 . S
C2049 C2050 1.398 . S
C2050 H2038 0.950 . S
C2050 C2049 1.398 . S
C2050 C2051 1.391 . S
C2051 H2039 0.950 . S
C2051 C2047 1.393 . S
C2051 C2050 1.391 . S
H2052 C2060 0.950 . S
H2053 C2065 0.950 . S
H2054 C2062 0.950 . S
H2055 C2064 0.950 . S
H2056 C2066 0.950 . S
H2057 C2068 0.950 . S
H2058 C2070 0.950 . S
H2059 C2071 0.950 . S
C2060 H2052 0.950 . S
C2060 C2061 1.386 . S
C2060 C2062 1.391 . S
C2061 C2060 1.386 . S
C2061 C2065 1.393 . S
C2062 H2054 0.950 . S
C2062 C2060 1.391 . S
C2062 C2063 1.400 . S
C2063 C2062 1.400 . S
C2063 C2064 1.398 . S
C2063 C2069 1.491 . S
C2064 H2055 0.950 . S
C2064 C2063 1.398 . S
C2064 C2065 1.391 . S
C2065 H2053 0.950 . S
C2065 C2061 1.393 . S
C2065 C2064 1.391 . S
C2066 H2056 0.950 . S
C2066 C2067 1.386 . S
C2066 C2068 1.391 . S
C2067 C2066 1.386 . S
C2067 C2071 1.393 . S
C2068 H2057 0.950 . S
C2068 C2066 1.391 . S
C2068 C2069 1.400 . S
C2069 C2063 1.491 . S
C2069 C2068 1.400 . S
C2069 C2070 1.398 . S
C2070 H2058 0.950 . S
C2070 C2069 1.398 . S
C2070 C2071 1.391 . S
C2071 H2059 0.950 . S
C2071 C2067 1.393 . S
C2071 C2070 1.391 . S
H2072 C2080 0.950 . S
H2073 C2085 0.950 . S
H2074 C2082 0.950 . S
H2075 C2084 0.950 . S
H2076 C2086 0.950 . S
H2077 C2088 0.950 . S
H2078 C2090 0.950 . S
H2079 C2091 0.950 . S
C2080 H2072 0.950 . S
C2080 C2081 1.386 . S
C2080 C2082 1.391 . S
C2081 C2080 1.386 . S
C2081 C2085 1.393 . S
C2082 H2074 0.950 . S
C2082 C2080 1.391 . S
C2082 C2083 1.400 . S
C2083 C2082 1.400 . S
C2083 C2084 1.398 . S
C2083 C2089 1.491 . S
C2084 H2075 0.950 . S
C2084 C2083 1.398 . S
C2084 C2085 1.391 . S
C2085 H2073 0.950 . S
C2085 C2081 1.393 . S
C2085 C2084 1.391 . S
C2086 H2076 0.950 . S
C2086 C2087 1.386 . S
C2086 C2088 1.391 . S
C2087 C2086 1.386 . S
C2087 C2091 1.393 . S
C2088 H2077 0.950 . S
C2088 C2086 1.391 . S
C2088 C2089 1.400 . S
C2089 C2083 1.491 . S
C2089 C2088 1.400 . S
C2089 C2090 1.398 . S
C2090 H2078 0.950 . S
C2090 C2089 1.398 . S
C2090 C2091 1.391 . S
C2091 H2079 0.950 . S
C2091 C2087 1.393 . S
C2091 C2090 1.391 . S
H2092 C2100 0.950 . S
H2093 C2105 0.950 . S
H2094 C2102 0.950 . S
H2095 C2104 0.950 . S
H2096 C2106 0.950 . S
H2097 C2108 0.950 . S
H2098 C2110 0.950 . S
H2099 C2111 0.950 . S
C2100 H2092 0.950 . S
C2100 C2101 1.386 . S
C2100 C2102 1.391 . S
C2101 C2100 1.386 . S
C2101 C2105 1.393 . S
C2102 H2094 0.950 . S
C2102 C2100 1.391 . S
C2102 C2103 1.400 . S
C2103 C2102 1.400 . S
C2103 C2104 1.398 . S
C2103 C2109 1.491 . S
C2104 H2095 0.950 . S
C2104 C2103 1.398 . S
C2104 C2105 1.391 . S
C2105 H2093 0.950 . S
C2105 C2101 1.393 . S
C2105 C2104 1.391 . S
C2106 H2096 0.950 . S
C2106 C2107 1.386 . S
C2106 C2108 1.391 . S
C2107 C2106 1.386 . S
C2107 C2111 1.393 . S
C2108 H2097 0.950 . S
C2108 C2106 1.391 . S
C2108 C2109 1.400 . S
C2109 C2103 1.491 . S
C2109 C2108 1.400 . S
C2109 C2110 1.398 . S
C2110 H2098 0.950 . S
C2110 C2109 1.398 . S
C2110 C2111 1.391 . S
C2111 H2099 0.950 . S
C2111 C2107 1.393 . S
C2111 C2110 1.391 . S
H2112 C2120 0.950 . S
H2113 C2125 0.950 . S
H2114 C2122 0.950 . S
H2115 C2124 0.950 . S
H2116 C2126 0.950 . S
H2117 C2128 0.950 . S
H2118 C2130 0.950 . S
H2119 C2131 0.950 . S
C2120 H2112 0.950 . S
C2120 C2121 1.384 . S
C2120 C2122 1.391 . S
C2121 C2120 1.384 . S
C2121 C2125 1.395 1_655 S
C2122 H2114 0.950 . S
C2122 C2120 1.391 . S
C2122 C2123 1.400 1_655 S
C2123 C2122 1.400 1_455 S
C2123 C2124 1.398 . S
C2123 C2129 1.491 . S
C2124 H2115 0.950 . S
C2124 C2123 1.398 . S
C2124 C2125 1.391 . S
C2125 H2113 0.950 . S
C2125 C2121 1.395 1_455 S
C2125 C2124 1.391 . S
C2126 H2116 0.950 . S
C2126 C2127 1.386 . S
C2126 C2128 1.391 . S
C2127 C2126 1.386 . S
C2127 C2131 1.393 1_455 S
C2128 H2117 0.950 . S
C2128 C2126 1.391 . S
C2128 C2129 1.400 . S
C2129 C2123 1.491 . S
C2129 C2128 1.400 . S
C2129 C2130 1.398 1_455 S
C2130 H2118 0.950 . S
C2130 C2129 1.398 1_655 S
C2130 C2131 1.391 . S
C2131 H2119 0.950 . S
C2131 C2127 1.393 1_655 S
C2131 C2130 1.391 . S
H2132 C2140 0.950 . S
H2133 C2145 0.950 . S
H2134 C2142 0.950 . S
H2135 C2144 0.950 . S
H2136 C2146 0.950 . S
H2137 C2148 0.950 . S
H2138 C2150 0.950 . S
H2139 C2151 0.950 . S
C2140 H2132 0.950 . S
C2140 C2141 1.386 . S
C2140 C2142 1.391 . S
C2141 C2140 1.386 . S
C2141 C2145 1.393 . S
C2142 H2134 0.950 . S
C2142 C2140 1.391 . S
C2142 C2143 1.400 . S
C2143 C2142 1.400 . S
C2143 C2144 1.398 . S
C2143 C2149 1.491 . S
C2144 H2135 0.950 . S
C2144 C2143 1.398 . S
C2144 C2145 1.391 . S
C2145 H2133 0.950 . S
C2145 C2141 1.393 . S
C2145 C2144 1.391 . S
C2146 H2136 0.950 . S
C2146 C2147 1.386 . S
C2146 C2148 1.391 . S
C2147 C2146 1.386 . S
C2147 C2151 1.393 . S
C2148 H2137 0.950 . S
C2148 C2146 1.391 . S
C2148 C2149 1.400 . S
C2149 C2143 1.491 . S
C2149 C2148 1.400 . S
C2149 C2150 1.398 . S
C2150 H2138 0.950 . S
C2150 C2149 1.398 . S
C2150 C2151 1.391 . S
C2151 H2139 0.950 . S
C2151 C2147 1.393 . S
C2151 C2150 1.391 . S
H2152 C2160 0.950 . S
H2153 C2165 0.950 . S
H2154 C2162 0.950 . S
H2155 C2164 0.950 . S
H2156 C2166 0.950 1_554 S
H2157 C2168 0.950 . S
H2158 C2170 0.950 . S
H2159 C2171 0.950 . S
C2160 H2152 0.950 . S
C2160 C2161 1.386 . S
C2160 C2162 1.391 . S
C2161 C2160 1.386 . S
C2161 C2165 1.393 . S
C2162 H2154 0.950 . S
C2162 C2160 1.391 . S
C2162 C2163 1.400 . S
C2163 C2162 1.400 . S
C2163 C2164 1.398 . S
C2163 C2169 1.491 . S
C2164 H2155 0.950 . S
C2164 C2163 1.398 . S
C2164 C2165 1.391 . S
C2165 H2153 0.950 . S
C2165 C2161 1.393 . S
C2165 C2164 1.391 . S
C2166 H2156 0.950 1_556 S
C2166 C2167 1.386 . S
C2166 C2168 1.391 . S
C2167 C2166 1.386 . S
C2167 C2171 1.393 . S
C2168 H2157 0.950 . S
C2168 C2166 1.391 . S
C2168 C2169 1.400 . S
C2169 C2163 1.491 . S
C2169 C2168 1.400 . S
C2169 C2170 1.398 . S
C2170 H2158 0.950 . S
C2170 C2169 1.398 . S
C2170 C2171 1.391 . S
C2171 H2159 0.950 . S
C2171 C2167 1.393 . S
C2171 C2170 1.391 . S
H2172 C2180 0.950 . S
H2173 C2185 0.950 . S
H2174 C2182 0.950 . S
H2175 C2184 0.950 . S
H2176 C2186 0.950 . S
H2177 C2188 0.950 . S
H2178 C2190 0.950 . S
H2179 C2191 0.950 . S
C2180 H2172 0.950 . S
C2180 C2181 1.386 . S
C2180 C2182 1.391 . S
C2181 C2180 1.386 . S
C2181 C2185 1.393 . S
C2182 H2174 0.950 . S
C2182 C2180 1.391 . S
C2182 C2183 1.400 . S
C2183 C2182 1.400 . S
C2183 C2184 1.398 . S
C2183 C2189 1.491 . S
C2184 H2175 0.950 . S
C2184 C2183 1.398 . S
C2184 C2185 1.391 . S
C2185 H2173 0.950 . S
C2185 C2181 1.393 . S
C2185 C2184 1.391 . S
C2186 H2176 0.950 . S
C2186 C2187 1.386 . S
C2186 C2188 1.391 . S
C2187 C2186 1.386 . S
C2187 C2191 1.393 . S
C2188 H2177 0.950 . S
C2188 C2186 1.391 . S
C2188 C2189 1.400 . S
C2189 C2183 1.491 . S
C2189 C2188 1.400 . S
C2189 C2190 1.398 . S
C2190 H2178 0.950 . S
C2190 C2189 1.398 . S
C2190 C2191 1.391 . S
C2191 H2179 0.950 . S
C2191 C2187 1.393 . S
C2191 C2190 1.391 . S
H2192 C2200 0.950 . S
H2193 C2205 0.950 . S
H2194 C2202 0.950 . S
H2195 C2204 0.950 . S
H2196 C2206 0.950 . S
H2197 C2208 0.950 . S
H2198 C2210 0.950 . S
H2199 C2211 0.950 . S
C2200 H2192 0.950 . S
C2200 C2201 1.386 . S
C2200 C2202 1.391 . S
C2201 C2200 1.386 . S
C2201 C2205 1.393 . S
C2202 H2194 0.950 . S
C2202 C2200 1.391 . S
C2202 C2203 1.400 . S
C2203 C2202 1.400 . S
C2203 C2204 1.398 . S
C2203 C2209 1.491 . S
C2204 H2195 0.950 . S
C2204 C2203 1.398 . S
C2204 C2205 1.391 . S
C2205 H2193 0.950 . S
C2205 C2201 1.393 . S
C2205 C2204 1.391 . S
C2206 H2196 0.950 . S
C2206 C2207 1.386 . S
C2206 C2208 1.391 . S
C2207 C2206 1.386 . S
C2207 C2211 1.393 . S
C2208 H2197 0.950 . S
C2208 C2206 1.391 . S
C2208 C2209 1.400 . S
C2209 C2203 1.491 . S
C2209 C2208 1.400 . S
C2209 C2210 1.398 . S
C2210 H2198 0.950 . S
C2210 C2209 1.398 . S
C2210 C2211 1.391 . S
C2211 H2199 0.950 . S
C2211 C2207 1.393 . S
C2211 C2210 1.391 . S
H2212 C2220 0.950 . S
H2213 C2225 0.950 . S
H2214 C2222 0.950 . S
H2215 C2224 0.950 . S
H2216 C2226 0.950 . S
H2217 C2228 0.950 . S
H2218 C2230 0.950 . S
H2219 C2231 0.950 . S
C2220 H2212 0.950 . S
C2220 C2221 1.386 . S
C2220 C2222 1.391 . S
C2221 C2220 1.386 . S
C2221 C2225 1.393 . S
C2222 H2214 0.950 . S
C2222 C2220 1.391 . S
C2222 C2223 1.400 . S
C2223 C2222 1.400 . S
C2223 C2224 1.398 . S
C2223 C2229 1.491 . S
C2224 H2215 0.950 . S
C2224 C2223 1.398 . S
C2224 C2225 1.391 . S
C2225 H2213 0.950 . S
C2225 C2221 1.393 . S
C2225 C2224 1.391 . S
C2226 H2216 0.950 . S
C2226 C2227 1.386 . S
C2226 C2228 1.391 . S
C2227 C2226 1.386 . S
C2227 C2231 1.393 . S
C2228 H2217 0.950 . S
C2228 C2226 1.391 . S
C2228 C2229 1.400 . S
C2229 C2223 1.491 . S
C2229 C2228 1.400 . S
C2229 C2230 1.398 . S
C2230 H2218 0.950 . S
C2230 C2229 1.398 . S
C2230 C2231 1.391 . S
C2231 H2219 0.950 . S
C2231 C2227 1.393 . S
C2231 C2230 1.391 . S
H2232 C2240 0.950 . S
H2233 C2245 0.950 . S
H2234 C2242 0.950 . S
H2235 C2244 0.950 . S
H2236 C2246 0.950 . S
H2237 C2248 0.950 . S
H2238 C2250 0.950 . S
H2239 C2251 0.950 . S
C2240 H2232 0.950 . S
C2240 C2241 1.386 . S
C2240 C2242 1.391 . S
C2241 C2240 1.386 . S
C2241 C2245 1.393 . S
C2242 H2234 0.950 . S
C2242 C2240 1.391 . S
C2242 C2243 1.400 . S
C2243 C2242 1.400 . S
C2243 C2244 1.398 . S
C2243 C2249 1.491 . S
C2244 H2235 0.950 . S
C2244 C2243 1.398 . S
C2244 C2245 1.391 . S
C2245 H2233 0.950 . S
C2245 C2241 1.393 . S
C2245 C2244 1.391 . S
C2246 H2236 0.950 . S
C2246 C2247 1.386 . S
C2246 C2248 1.391 . S
C2247 C2246 1.386 . S
C2247 C2251 1.393 . S
C2248 H2237 0.950 . S
C2248 C2246 1.391 . S
C2248 C2249 1.400 . S
C2249 C2243 1.491 . S
C2249 C2248 1.400 . S
C2249 C2250 1.398 . S
C2250 H2238 0.950 . S
C2250 C2249 1.398 . S
C2250 C2251 1.391 . S
C2251 H2239 0.950 . S
C2251 C2247 1.393 . S
C2251 C2250 1.391 . S
H2252 C2260 0.950 . S
H2253 C2265 0.950 . S
H2254 C2262 0.950 . S
H2255 C2264 0.950 . S
H2256 C2266 0.950 . S
H2257 C2268 0.950 . S
H2258 C2270 0.950 . S
H2259 C2271 0.950 . S
C2260 H2252 0.950 . S
C2260 C2261 1.386 . S
C2260 C2262 1.391 . S
C2261 C2260 1.386 . S
C2261 C2265 1.393 . S
C2262 H2254 0.950 . S
C2262 C2260 1.391 . S
C2262 C2263 1.400 . S
C2263 C2262 1.400 . S
C2263 C2264 1.398 . S
C2263 C2269 1.491 . S
C2264 H2255 0.950 . S
C2264 C2263 1.398 . S
C2264 C2265 1.391 . S
C2265 H2253 0.950 . S
C2265 C2261 1.393 . S
C2265 C2264 1.391 . S
C2266 H2256 0.950 . S
C2266 C2267 1.386 . S
C2266 C2268 1.391 . S
C2267 C2266 1.386 . S
C2267 C2271 1.393 . S
C2268 H2257 0.950 . S
C2268 C2266 1.391 . S
C2268 C2269 1.400 . S
C2269 C2263 1.491 . S
C2269 C2268 1.400 . S
C2269 C2270 1.398 . S
C2270 H2258 0.950 . S
C2270 C2269 1.398 . S
C2270 C2271 1.391 . S
C2271 H2259 0.950 . S
C2271 C2267 1.393 . S
C2271 C2270 1.391 . S
H2272 C2280 0.950 . S
H2273 C2285 0.950 . S
H2274 C2282 0.950 . S
H2275 C2284 0.950 . S
H2276 C2286 0.950 . S
H2277 C2288 0.950 . S
H2278 C2290 0.950 . S
H2279 C2291 0.950 . S
C2280 H2272 0.950 . S
C2280 C2281 1.386 . S
C2280 C2282 1.391 . S
C2281 C2280 1.386 . S
C2281 C2285 1.393 . S
C2282 H2274 0.950 . S
C2282 C2280 1.391 . S
C2282 C2283 1.400 . S
C2283 C2282 1.400 . S
C2283 C2284 1.398 . S
C2283 C2289 1.491 . S
C2284 H2275 0.950 . S
C2284 C2283 1.398 . S
C2284 C2285 1.391 . S
C2285 H2273 0.950 . S
C2285 C2281 1.393 . S
C2285 C2284 1.391 . S
C2286 H2276 0.950 . S
C2286 C2287 1.386 . S
C2286 C2288 1.391 . S
C2287 C2286 1.386 . S
C2287 C2291 1.393 . S
C2288 H2277 0.950 . S
C2288 C2286 1.391 . S
C2288 C2289 1.400 . S
C2289 C2283 1.491 . S
C2289 C2288 1.400 . S
C2289 C2290 1.398 . S
C2290 H2278 0.950 . S
C2290 C2289 1.398 . S
C2290 C2291 1.391 . S
C2291 H2279 0.950 . S
C2291 C2287 1.393 . S
C2291 C2290 1.391 . S
H2292 C2300 0.950 . S
H2293 C2305 0.950 . S
H2294 C2302 0.950 . S
H2295 C2304 0.950 . S
H2296 C2306 0.950 . S
H2297 C2308 0.950 . S
H2298 C2310 0.950 . S
H2299 C2311 0.950 . S
C2300 H2292 0.950 . S
C2300 C2301 1.386 . S
C2300 C2302 1.391 . S
C2301 C2300 1.386 . S
C2301 C2305 1.393 . S
C2302 H2294 0.950 . S
C2302 C2300 1.391 . S
C2302 C2303 1.400 . S
C2303 C2302 1.400 . S
C2303 C2304 1.398 . S
C2303 C2309 1.491 . S
C2304 H2295 0.950 . S
C2304 C2303 1.398 . S
C2304 C2305 1.391 . S
C2305 H2293 0.950 . S
C2305 C2301 1.393 . S
C2305 C2304 1.391 . S
C2306 H2296 0.950 . S
C2306 C2307 1.386 . S
C2306 C2308 1.391 . S
C2307 C2306 1.386 . S
C2307 C2311 1.393 . S
C2308 H2297 0.950 . S
C2308 C2306 1.391 . S
C2308 C2309 1.400 . S
C2309 C2303 1.491 . S
C2309 C2308 1.400 . S
C2309 C2310 1.398 . S
C2310 H2298 0.950 . S
C2310 C2309 1.398 . S
C2310 C2311 1.391 . S
C2311 H2299 0.950 . S
C2311 C2307 1.393 . S
C2311 C2310 1.391 . S
H2312 C2320 0.950 . S
H2313 C2325 0.950 . S
H2314 C2322 0.950 . S
H2315 C2324 0.950 . S
H2316 C2326 0.950 . S
H2317 C2328 0.950 . S
H2318 C2330 0.950 . S
H2319 C2331 0.950 . S
C2320 H2312 0.950 . S
C2320 C2321 1.386 . S
C2320 C2322 1.391 . S
C2321 C2320 1.386 . S
C2321 C2325 1.393 . S
C2322 H2314 0.950 . S
C2322 C2320 1.391 . S
C2322 C2323 1.400 . S
C2323 C2322 1.400 . S
C2323 C2324 1.398 . S
C2323 C2329 1.491 . S
C2324 H2315 0.950 . S
C2324 C2323 1.398 . S
C2324 C2325 1.391 . S
C2325 H2313 0.950 . S
C2325 C2321 1.393 . S
C2325 C2324 1.391 . S
C2326 H2316 0.950 . S
C2326 C2327 1.386 . S
C2326 C2328 1.391 . S
C2327 C2326 1.386 . S
C2327 C2331 1.393 . S
C2328 H2317 0.950 . S
C2328 C2326 1.391 . S
C2328 C2329 1.400 . S
C2329 C2323 1.491 . S
C2329 C2328 1.400 . S
C2329 C2330 1.398 . S
C2330 H2318 0.950 . S
C2330 C2329 1.398 . S
C2330 C2331 1.391 . S
C2331 H2319 0.950 . S
C2331 C2327 1.393 . S
C2331 C2330 1.391 . S
H2332 C2340 0.950 . S
H2333 C2345 0.950 . S
H2334 C2342 0.950 . S
H2335 C2344 0.950 . S
H2336 C2346 0.950 . S
H2337 C2348 0.950 . S
H2338 C2350 0.950 . S
H2339 C2351 0.950 . S
C2340 H2332 0.950 . S
C2340 C2341 1.386 . S
C2340 C2342 1.391 . S
C2341 C2340 1.386 . S
C2341 C2345 1.393 . S
C2342 H2334 0.950 . S
C2342 C2340 1.391 . S
C2342 C2343 1.400 . S
C2343 C2342 1.400 . S
C2343 C2344 1.398 . S
C2343 C2349 1.491 . S
C2344 H2335 0.950 . S
C2344 C2343 1.398 . S
C2344 C2345 1.391 . S
C2345 H2333 0.950 . S
C2345 C2341 1.393 . S
C2345 C2344 1.391 . S
C2346 H2336 0.950 . S
C2346 C2347 1.386 . S
C2346 C2348 1.391 . S
C2347 C2346 1.386 . S
C2347 C2351 1.393 . S
C2348 H2337 0.950 . S
C2348 C2346 1.391 . S
C2348 C2349 1.400 . S
C2349 C2343 1.491 . S
C2349 C2348 1.400 . S
C2349 C2350 1.398 . S
C2350 H2338 0.950 . S
C2350 C2349 1.398 . S
C2350 C2351 1.391 . S
C2351 H2339 0.950 . S
C2351 C2347 1.393 . S
C2351 C2350 1.391 . S
H2352 C2360 0.950 . S
H2353 C2365 0.950 . S
H2354 C2362 0.950 . S
H2355 C2364 0.950 . S
H2356 C2366 0.950 . S
H2357 C2368 0.950 . S
H2358 C2370 0.950 . S
H2359 C2371 0.950 . S
C2360 H2352 0.950 . S
C2360 C2361 1.386 . S
C2360 C2362 1.391 . S
C2361 C2360 1.386 . S
C2361 C2365 1.393 . S
C2362 H2354 0.950 . S
C2362 C2360 1.391 . S
C2362 C2363 1.400 . S
C2363 C2362 1.400 . S
C2363 C2364 1.398 . S
C2363 C2369 1.491 . S
C2364 H2355 0.950 . S
C2364 C2363 1.398 . S
C2364 C2365 1.391 . S
C2365 H2353 0.950 . S
C2365 C2361 1.393 . S
C2365 C2364 1.391 . S
C2366 H2356 0.950 . S
C2366 C2367 1.386 . S
C2366 C2368 1.391 . S
C2367 C2366 1.386 . S
C2367 C2371 1.393 . S
C2368 H2357 0.950 . S
C2368 C2366 1.391 . S
C2368 C2369 1.400 . S
C2369 C2363 1.491 . S
C2369 C2368 1.400 . S
C2369 C2370 1.398 . S
C2370 H2358 0.950 . S
C2370 C2369 1.398 . S
C2370 C2371 1.391 . S
C2371 H2359 0.950 . S
C2371 C2367 1.393 . S
C2371 C2370 1.391 . S
H2372 C2380 0.950 . S
H2373 C2385 0.950 . S
H2374 C2382 0.950 . S
H2375 C2384 0.950 . S
H2376 C2386 0.950 . S
H2377 C2388 0.950 . S
H2378 C2390 0.950 . S
H2379 C2391 0.950 . S
C2380 H2372 0.950 . S
C2380 C2381 1.386 . S
C2380 C2382 1.391 . S
C2381 C2380 1.386 . S
C2381 C2385 1.393 . S
C2382 H2374 0.950 . S
C2382 C2380 1.391 . S
C2382 C2383 1.400 . S
C2383 C2382 1.400 . S
C2383 C2384 1.398 . S
C2383 C2389 1.491 . S
C2384 H2375 0.950 . S
C2384 C2383 1.398 . S
C2384 C2385 1.391 . S
C2385 H2373 0.950 . S
C2385 C2381 1.393 . S
C2385 C2384 1.391 . S
C2386 H2376 0.950 . S
C2386 C2387 1.386 . S
C2386 C2388 1.391 . S
C2387 C2386 1.386 . S
C2387 C2391 1.393 . S
C2388 H2377 0.950 . S
C2388 C2386 1.391 . S
C2388 C2389 1.400 . S
C2389 C2383 1.491 . S
C2389 C2388 1.400 . S
C2389 C2390 1.398 . S
C2390 H2378 0.950 . S
C2390 C2389 1.398 . S
C2390 C2391 1.391 . S
C2391 H2379 0.950 . S
C2391 C2387 1.393 . S
C2391 C2390 1.391 . S
H2392 C2400 0.950 . S
H2393 C2405 0.950 . S
H2394 C2402 0.950 . S
H2395 C2404 0.950 . S
H2396 C2406 0.950 . S
H2397 C2408 0.950 . S
H2398 C2410 0.950 . S
H2399 C2411 0.950 . S
C2400 H2392 0.950 . S
C2400 C2401 1.386 . S
C2400 C2402 1.391 . S
C2401 C2400 1.386 . S
C2401 C2405 1.393 . S
C2402 H2394 0.950 . S
C2402 C2400 1.391 . S
C2402 C2403 1.400 . S
C2403 C2402 1.400 . S
C2403 C2404 1.398 . S
C2403 C2409 1.491 . S
C2404 H2395 0.950 . S
C2404 C2403 1.398 . S
C2404 C2405 1.391 . S
C2405 H2393 0.950 . S
C2405 C2401 1.393 . S
C2405 C2404 1.391 . S
C2406 H2396 0.950 . S
C2406 C2407 1.386 . S
C2406 C2408 1.391 . S
C2407 C2406 1.386 . S
C2407 C2411 1.393 . S
C2408 H2397 0.950 . S
C2408 C2406 1.391 . S
C2408 C2409 1.400 . S
C2409 C2403 1.491 . S
C2409 C2408 1.400 . S
C2409 C2410 1.398 . S
C2410 H2398 0.950 . S
C2410 C2409 1.398 . S
C2410 C2411 1.391 . S
C2411 H2399 0.950 . S
C2411 C2407 1.393 . S
C2411 C2410 1.391 . S
H2412 C2420 0.950 . S
H2413 C2425 0.950 . S
H2414 C2422 0.950 . S
H2415 C2424 0.950 . S
H2416 C2426 0.950 1_545 S
H2417 C2428 0.950 . S
H2418 C2430 0.950 . S
H2419 C2431 0.950 . S
C2420 H2412 0.950 . S
C2420 C2421 1.386 . S
C2420 C2422 1.391 . S
C2421 C2420 1.386 . S
C2421 C2425 1.393 . S
C2422 H2414 0.950 . S
C2422 C2420 1.391 . S
C2422 C2423 1.400 . S
C2423 C2422 1.400 . S
C2423 C2424 1.398 . S
C2423 C2429 1.491 . S
C2424 H2415 0.950 . S
C2424 C2423 1.398 . S
C2424 C2425 1.391 . S
C2425 H2413 0.950 . S
C2425 C2421 1.393 . S
C2425 C2424 1.391 . S
C2426 H2416 0.950 1_565 S
C2426 C2427 1.386 . S
C2426 C2428 1.391 . S
C2427 C2426 1.386 . S
C2427 C2431 1.393 . S
C2428 H2417 0.950 . S
C2428 C2426 1.391 . S
C2428 C2429 1.400 . S
C2429 C2423 1.491 . S
C2429 C2428 1.400 . S
C2429 C2430 1.398 . S
C2430 H2418 0.950 . S
C2430 C2429 1.398 . S
C2430 C2431 1.391 . S
C2431 H2419 0.950 . S
C2431 C2427 1.393 . S
C2431 C2430 1.391 . S
H2432 C2440 0.950 . S
H2433 C2445 0.950 . S
H2434 C2442 0.950 . S
H2435 C2444 0.950 . S
H2436 C2446 0.950 . S
H2437 C2448 0.950 . S
H2438 C2450 0.950 . S
H2439 C2451 0.950 . S
C2440 H2432 0.950 . S
C2440 C2441 1.386 . S
C2440 C2442 1.391 . S
C2441 C2440 1.386 . S
C2441 C2445 1.393 . S
C2442 H2434 0.950 . S
C2442 C2440 1.391 . S
C2442 C2443 1.400 . S
C2443 C2442 1.400 . S
C2443 C2444 1.398 . S
C2443 C2449 1.491 . S
C2444 H2435 0.950 . S
C2444 C2443 1.398 . S
C2444 C2445 1.391 . S
C2445 H2433 0.950 . S
C2445 C2441 1.393 . S
C2445 C2444 1.391 . S
C2446 H2436 0.950 . S
C2446 C2447 1.386 . S
C2446 C2448 1.391 . S
C2447 C2446 1.386 . S
C2447 C2451 1.393 . S
C2448 H2437 0.950 . S
C2448 C2446 1.391 . S
C2448 C2449 1.400 . S
C2449 C2443 1.491 . S
C2449 C2448 1.400 . S
C2449 C2450 1.398 . S
C2450 H2438 0.950 . S
C2450 C2449 1.398 . S
C2450 C2451 1.391 . S
C2451 H2439 0.950 . S
C2451 C2447 1.393 . S
C2451 C2450 1.391 . S
H2452 C2460 0.950 . S
H2453 C2465 0.950 . S
H2454 C2462 0.950 . S
H2455 C2464 0.950 . S
H2456 C2466 0.950 . S
H2457 C2468 0.950 . S
H2458 C2470 0.950 . S
H2459 C2471 0.950 . S
C2460 H2452 0.950 . S
C2460 C2461 1.386 1_554 S
C2460 C2462 1.391 . S
C2461 C2460 1.386 1_556 S
C2461 C2465 1.393 . S
C2462 H2454 0.950 . S
C2462 C2460 1.391 . S
C2462 C2463 1.400 1_554 S
C2463 C2462 1.400 1_556 S
C2463 C2464 1.398 . S
C2463 C2469 1.491 . S
C2464 H2455 0.950 . S
C2464 C2463 1.398 . S
C2464 C2465 1.391 . S
C2465 H2453 0.950 . S
C2465 C2461 1.393 . S
C2465 C2464 1.391 . S
C2466 H2456 0.950 . S
C2466 C2467 1.399 . S
C2466 C2468 1.391 . S
C2467 C2466 1.399 . S
C2467 C2471 1.382 1_556 S
C2468 H2457 0.950 . S
C2468 C2466 1.391 . S
C2468 C2469 1.400 . S
C2469 C2463 1.491 . S
C2469 C2468 1.400 . S
C2469 C2470 1.398 1_556 S
C2470 H2458 0.950 . S
C2470 C2469 1.398 1_554 S
C2470 C2471 1.391 . S
C2471 H2459 0.950 . S
C2471 C2467 1.382 1_554 S
C2471 C2470 1.391 . S
H2472 C2480 0.950 . S
H2473 C2485 0.950 . S
H2474 C2482 0.950 . S
H2475 C2484 0.950 . S
H2476 C2486 0.950 . S
H2477 C2488 0.950 . S
H2478 C2490 0.950 . S
H2479 C2491 0.950 . S
C2480 H2472 0.950 . S
C2480 C2481 1.386 . S
C2480 C2482 1.391 . S
C2481 C2480 1.386 . S
C2481 C2485 1.393 . S
C2482 H2474 0.950 . S
C2482 C2480 1.391 . S
C2482 C2483 1.400 . S
C2483 C2482 1.400 . S
C2483 C2484 1.398 . S
C2483 C2489 1.491 . S
C2484 H2475 0.950 . S
C2484 C2483 1.398 . S
C2484 C2485 1.391 . S
C2485 H2473 0.950 . S
C2485 C2481 1.393 . S
C2485 C2484 1.391 . S
C2486 H2476 0.950 . S
C2486 C2487 1.386 . S
C2486 C2488 1.391 . S
C2487 C2486 1.386 . S
C2487 C2491 1.393 . S
C2488 H2477 0.950 . S
C2488 C2486 1.391 . S
C2488 C2489 1.400 . S
C2489 C2483 1.491 . S
C2489 C2488 1.400 . S
C2489 C2490 1.398 . S
C2490 H2478 0.950 . S
C2490 C2489 1.398 . S
C2490 C2491 1.391 . S
C2491 H2479 0.950 . S
C2491 C2487 1.393 . S
C2491 C2490 1.391 . S
H2492 C2500 0.950 1_556 S
H2493 C2505 0.950 . S
H2494 C2502 0.950 1_556 S
H2495 C2504 0.950 . S
H2496 C2506 0.950 . S
H2497 C2508 0.950 . S
H2498 C2510 0.950 . S
H2499 C2511 0.950 . S
C2500 H2492 0.950 1_554 S
C2500 C2501 1.386 . S
C2500 C2502 1.391 . S
C2501 C2500 1.386 . S
C2501 C2505 1.393 . S
C2502 H2494 0.950 1_554 S
C2502 C2500 1.391 . S
C2502 C2503 1.400 . S
C2503 C2502 1.400 . S
C2503 C2504 1.398 . S
C2503 C2509 1.491 . S
C2504 H2495 0.950 . S
C2504 C2503 1.398 . S
C2504 C2505 1.391 . S
C2505 H2493 0.950 . S
C2505 C2501 1.393 . S
C2505 C2504 1.391 . S
C2506 H2496 0.950 . S
C2506 C2507 1.386 . S
C2506 C2508 1.391 . S
C2507 C2506 1.386 . S
C2507 C2511 1.393 1_554 S
C2508 H2497 0.950 . S
C2508 C2506 1.391 . S
C2508 C2509 1.400 . S
C2509 C2503 1.491 . S
C2509 C2508 1.400 . S
C2509 C2510 1.398 1_554 S
C2510 H2498 0.950 . S
C2510 C2509 1.398 1_556 S
C2510 C2511 1.391 . S
C2511 H2499 0.950 . S
C2511 C2507 1.393 1_556 S
C2511 C2510 1.391 . S
H2512 C2520 0.950 . S
H2513 C2525 0.950 . S
H2514 C2522 0.950 . S
H2515 C2524 0.950 . S
H2516 C2526 0.950 . S
H2517 C2528 0.950 . S
H2518 C2530 0.950 . S
H2519 C2531 0.950 . S
C2520 H2512 0.950 . S
C2520 C2521 1.386 . S
C2520 C2522 1.391 . S
C2521 C2520 1.386 . S
C2521 C2525 1.393 . S
C2522 H2514 0.950 . S
C2522 C2520 1.391 . S
C2522 C2523 1.400 . S
C2523 C2522 1.400 . S
C2523 C2524 1.398 . S
C2523 C2529 1.491 . S
C2524 H2515 0.950 . S
C2524 C2523 1.398 . S
C2524 C2525 1.391 . S
C2525 H2513 0.950 . S
C2525 C2521 1.393 . S
C2525 C2524 1.391 . S
C2526 H2516 0.950 . S
C2526 C2527 1.386 . S
C2526 C2528 1.391 . S
C2527 C2526 1.386 . S
C2527 C2531 1.393 . S
C2528 H2517 0.950 . S
C2528 C2526 1.391 . S
C2528 C2529 1.400 . S
C2529 C2523 1.491 . S
C2529 C2528 1.400 . S
C2529 C2530 1.398 . S
C2530 H2518 0.950 . S
C2530 C2529 1.398 . S
C2530 C2531 1.391 . S
C2531 H2519 0.950 . S
C2531 C2527 1.393 . S
C2531 C2530 1.391 . S
H2532 C2540 0.950 . S
H2533 C2545 0.950 . S
H2534 C2542 0.950 . S
H2535 C2544 0.950 . S
H2536 C2546 0.950 . S
H2537 C2548 0.950 . S
H2538 C2550 0.950 . S
H2539 C2551 0.950 . S
C2540 H2532 0.950 . S
C2540 C2541 1.386 . S
C2540 C2542 1.391 . S
C2541 C2540 1.386 . S
C2541 C2545 1.393 . S
C2542 H2534 0.950 . S
C2542 C2540 1.391 . S
C2542 C2543 1.400 . S
C2543 C2542 1.400 . S
C2543 C2544 1.398 . S
C2543 C2549 1.491 . S
C2544 H2535 0.950 . S
C2544 C2543 1.398 . S
C2544 C2545 1.391 . S
C2545 H2533 0.950 . S
C2545 C2541 1.393 . S
C2545 C2544 1.391 . S
C2546 H2536 0.950 . S
C2546 C2547 1.386 . S
C2546 C2548 1.391 . S
C2547 C2546 1.386 . S
C2547 C2551 1.393 . S
C2548 H2537 0.950 . S
C2548 C2546 1.391 . S
C2548 C2549 1.400 . S
C2549 C2543 1.491 . S
C2549 C2548 1.400 . S
C2549 C2550 1.398 . S
C2550 H2538 0.950 . S
C2550 C2549 1.398 . S
C2550 C2551 1.391 . S
C2551 H2539 0.950 . S
C2551 C2547 1.393 . S
C2551 C2550 1.391 . S
C641 C101 1.222 . S
C647 C328 1.189 . S
C661 C57 1.297 . S
C667 C341 1.282 . S
C681 C70 1.217 . S
C687 C360 1.213 . S
C707 C391 1.885 . S
C701 C82 1.903 . S
C721 C23 1.711 . S
C727 C411 1.717 . S
C747 C428 0.781 . S
C741 C29 0.789 . S
C767 C441 1.479 . S
C761 C49 1.476 . S
C781 C10 1.022 . S
C787 C468 1.005 . S
C807 C321 1.187 . S
C801 C218 1.191 . S
C821 C226 1.407 . S
C827 C351 1.403 . S
C847 C353 1.629 . S
C841 C251 1.686 1_565 S
C867 C388 0.758 . S
C861 C159 0.749 . S
C881 C211 1.048 . S
C887 C408 1.050 1_655 S
C907 C421 1.760 . S
C901 C225 1.752 . S
C927 C451 1.240 . S
C921 C252 1.246 . S
C947 C461 1.147 . S
C941 C166 1.185 . S
C967 C331 1.574 . S
C961 C147 1.561 . S
C981 C263 1.743 . S
C987 C481 1.731 1_556 S
C1007 C511 1.613 . S
C1001 C309 1.608 . S
C1027 C528 1.096 . S
C1021 C291 1.105 . S
C1041 C108 1.918 . S
C1047 C471 1.919 . S
C1061 C121 1.262 . S
C1067 C358 1.232 . S
C1081 C302 1.806 . S
C1087 C541 1.792 . S
C1107 C568 0.926 . S
C1101 C276 0.923 . S
C1127 C318 1.352 . S
C1121 C55 1.412 . S
C1147 C553 1.441 . S
C1141 C96 1.466 . S
C1161 C88 1.515 . S
C1167 C371 1.489 . S
C1181 C75 2.144 . S
C1187 C540 2.075 . S
C1207 C400 1.882 . S
C1201 C4 1.918 . S
C1221 C44 1.042 . S
C1227 C498 1.045 . S
C1247 C433 1.598 . S
C1241 C31 1.604 . S
C1267 C578 1.141 . S
C1261 C18 1.188 . S
C1287 C313 1.373 . S
C1281 C133 1.400 . S
C1307 C560 1.618 . S
C1301 C296 1.671 . S
C1321 C107 1.885 . S
C1327 C361 1.841 . S
C1341 C264 1.094 . S
C1347 C538 1.065 . S
C1361 C140 1.341 . S
C1367 C398 1.311 . S
C1387 C493 1.906 . S
C1381 C289 1.903 . S
C1401 C114 1.501 . S
C1407 C440 1.473 . S
C1421 C265 1.385 . S
C1427 C573 1.357 . S
C1441 C179 1.818 . S
C1447 C320 1.777 . S
C1461 C161 1.923 . S
C1467 C473 1.896 . S
C1481 C244 1.829 . S
C1487 C420 1.800 . S
C1501 C224 1.397 . S
C1507 C518 1.357 . S
C1527 C580 2.053 . S
C1521 C257 2.109 . S
C1541 C199 1.405 . S
C1547 C368 1.347 . S
C1567 C373 1.967 . S
C1561 C237 1.993 . S
C1587 C338 1.154 . S
C1581 C185 1.162 . S
C1601 C69 1.219 . S
C1607 C608 1.196 . S
C1627 C561 1.273 . S
C1621 C83 1.303 . S
C1641 C94 1.221 . S
C1647 C620 1.211 1_556 S
C1661 C56 1.905 . S
C1667 C551 1.883 . S
C1681 C42 1.723 . S
C1687 C491 1.725 . S
C1707 C508 0.796 . S
C1701 C3 0.780 . S
C1727 C521 1.496 . S
C1721 C16 1.476 . S
C1747 C588 0.968 . S
C1741 C36 0.998 . S
C1767 C601 1.188 . S
C1761 C238 1.209 . S
C1781 C174 1.418 . S
C1787 C571 1.398 . S
C1807 C613 1.613 . S
C1801 C186 1.672 . S
C1827 C548 0.769 . S
C1821 C198 0.767 . S
C1847 C488 1.061 . S
C1841 C239 1.057 . S
C1861 C173 1.748 . S
C1867 C501 1.759 . S
C1887 C531 1.224 . S
C1881 C187 1.251 . S
C1901 C205 1.177 . S
C1907 C581 1.146 . S
C1927 C611 1.566 . S
C1921 C290 1.565 . S
C1941 C122 1.742 . S
C1947 C401 1.741 . S
C1967 C431 1.619 . S
C1961 C134 1.615 . S
C1987 C448 1.089 . S
C1981 C148 1.104 . S
C2007 C591 1.919 . S
C2001 C283 1.909 . S
C2021 C270 1.276 . S
C2027 C618 1.258 . S
C2047 C381 1.794 . S
C2041 C135 1.798 . S
C2067 C348 0.920 . S
C2061 C109 0.939 . S
C2081 C81 1.407 . S
C2087 C598 1.367 . S
C2107 C333 1.436 . S
C2101 C68 1.466 . S
C2121 C62 1.518 1_655 S
C2127 C631 1.482 . S
C2141 C95 2.143 . S
C2147 C380 2.074 . S
C2161 C30 1.919 . S
C2167 C480 1.879 . S
C2187 C418 1.024 . S
C2181 C17 1.043 . S
C2201 C5 1.607 . S
C2207 C513 1.593 . S
C2221 C43 1.180 . S
C2227 C458 1.130 . S
C2247 C593 1.379 . S
C2241 C304 1.399 . S
C2261 C153 1.669 . S
C2267 C340 1.638 . S
C2287 C621 1.832 . S
C2281 C278 1.887 . S
C2301 C127 1.090 . S
C2307 C378 1.072 . S
C2321 C303 1.325 . S
C2327 C478 1.328 . S
C2347 C413 1.900 . S
C2341 C146 1.902 . S
C2361 C277 1.503 . S
C2367 C520 1.448 . S
C2387 C453 1.346 . S
C2381 C120 1.383 . S
C2407 C600 1.773 . S
C2401 C231 1.819 . S
C2427 C393 1.899 1_565 S
C2421 C200 1.921 . S
C2441 C212 1.836 . S
C2447 C500 1.796 . S
C2467 C438 1.356 1_556 S
C2461 C172 1.398 . S
C2481 C192 2.107 . S
C2487 C460 2.053 . S
C2501 C160 1.412 . S
C2507 C628 1.355 . S
C2527 C533 1.980 . S
C2521 C213 1.992 1_565 S
C2547 C558 1.150 . S
C2541 C250 1.162 . S
