# Generated by pormake.
# Topology zzz, (3,6)-cn, num edge types: 1
# Building blocks:
#     Node 0, Type 0, BuildingBlock: OLANEW_clean_sbu_2, # of connection points: 3
#     Node 1, Type 0, BuildingBlock: OLANEW_clean_sbu_2, # of connection points: 3
#     Node 2, Type 0, BuildingBlock: OLANEW_clean_sbu_2, # of connection points: 3
#     Node 3, Type 0, BuildingBlock: OLANEW_clean_sbu_2, # of connection points: 3
#     Node 4, Type 0, BuildingBlock: OLANEW_clean_sbu_2, # of connection points: 3
#     Node 5, Type 0, BuildingBlock: OLANEW_clean_sbu_2, # of connection points: 3
#     Node 6, Type 0, BuildingBlock: OLANEW_clean_sbu_2, # of connection points: 3
#     Node 7, Type 0, BuildingBlock: OLANEW_clean_sbu_2, # of connection points: 3
#     Node 8, Type 1, BuildingBlock: KUMBUR_clean_sbu_0, # of connection points: 6
#     Node 9, Type 1, BuildingBlock: KUMBUR_clean_sbu_0, # of connection points: 6
#     Node 10, Type 1, BuildingBlock: KUMBUR_clean_sbu_0, # of connection points: 6
#     Node 11, Type 1, BuildingBlock: KUMBUR_clean_sbu_0, # of connection points: 6
#     Edge 12, Type (0, 1), BuildingBlock: XUDNAN_clean_linker_2, # of connection points: 2
#     Edge 13, Type (0, 1), BuildingBlock: XUDNAN_clean_linker_2, # of connection points: 2
#     Edge 14, Type (0, 1), BuildingBlock: XUDNAN_clean_linker_2, # of connection points: 2
#     Edge 15, Type (0, 1), BuildingBlock: XUDNAN_clean_linker_2, # of connection points: 2
#     Edge 16, Type (0, 1), BuildingBlock: XUDNAN_clean_linker_2, # of connection points: 2
#     Edge 17, Type (0, 1), BuildingBlock: XUDNAN_clean_linker_2, # of connection points: 2
#     Edge 18, Type (0, 1), BuildingBlock: XUDNAN_clean_linker_2, # of connection points: 2
#     Edge 19, Type (0, 1), BuildingBlock: XUDNAN_clean_linker_2, # of connection points: 2
#     Edge 20, Type (0, 1), BuildingBlock: XUDNAN_clean_linker_2, # of connection points: 2
#     Edge 21, Type (0, 1), BuildingBlock: XUDNAN_clean_linker_2, # of connection points: 2
#     Edge 22, Type (0, 1), BuildingBlock: XUDNAN_clean_linker_2, # of connection points: 2
#     Edge 23, Type (0, 1), BuildingBlock: XUDNAN_clean_linker_2, # of connection points: 2
#     Edge 24, Type (0, 1), BuildingBlock: XUDNAN_clean_linker_2, # of connection points: 2
#     Edge 25, Type (0, 1), BuildingBlock: XUDNAN_clean_linker_2, # of connection points: 2
#     Edge 26, Type (0, 1), BuildingBlock: XUDNAN_clean_linker_2, # of connection points: 2
#     Edge 27, Type (0, 1), BuildingBlock: XUDNAN_clean_linker_2, # of connection points: 2
#     Edge 28, Type (0, 1), BuildingBlock: XUDNAN_clean_linker_2, # of connection points: 2
#     Edge 29, Type (0, 1), BuildingBlock: XUDNAN_clean_linker_2, # of connection points: 2
#     Edge 30, Type (0, 1), BuildingBlock: XUDNAN_clean_linker_2, # of connection points: 2
#     Edge 31, Type (0, 1), BuildingBlock: XUDNAN_clean_linker_2, # of connection points: 2
#     Edge 32, Type (0, 1), BuildingBlock: XUDNAN_clean_linker_2, # of connection points: 2
#     Edge 33, Type (0, 1), BuildingBlock: XUDNAN_clean_linker_2, # of connection points: 2
#     Edge 34, Type (0, 1), BuildingBlock: XUDNAN_clean_linker_2, # of connection points: 2
#     Edge 35, Type (0, 1), BuildingBlock: XUDNAN_clean_linker_2, # of connection points: 2
# Relax obj value: 0.153
# Max RMSD: 0.166
# Mean RMSD: 0.124
data_MOF--net-zzz--node1-OLANEW_clean_sbu_2--node2-KUMBUR_clean_sbu_0--edge1-XUDNAN_clean_linker_2
_symmetry_space_group_name_H-M    P1
_symmetry_Int_Tables_number       1
_symmetry_cell_setting            triclinic
loop_
_symmetry_equiv_pos_as_xyz
'x, y, z'
_cell_length_a     54.45929
_cell_length_b     54.240567
_cell_length_c     16.678068
_cell_angle_alpha  90.203997
_cell_angle_beta   90.118407
_cell_angle_gamma 90.031622
loop_
_atom_site_label
_atom_site_type_symbol
_atom_site_fract_x
_atom_site_fract_y
_atom_site_fract_z
_atom_type_partial_charge
O0 O 0.73431 0.59542 0.07322 0.0
Cd1 Cd 0.69455 0.60465 0.13305 0.0
O2 O 0.74042 0.57158 0.17633 0.0
Cd3 Cd 0.75855 0.54519 0.25396 0.0
O4 O 0.78939 0.5403 0.33418 0.0
C5 C 0.79692 0.5598 0.36877 0.0
O6 O 0.78465 0.5804 0.35832 0.0
C7 C 0.74789 0.58003 0.10957 0.0
C8 C 0.65982 0.57642 0.05154 0.0
O9 O 0.66337 0.59906 0.03305 0.0
O10 O 0.67208 0.56744 0.1102 0.0
O11 O 0.93515 0.7487 0.11439 0.0
Cd12 Cd 0.92695 0.70713 0.16551 0.0
O13 O 0.94284 0.76244 0.23509 0.0
Cd14 Cd 0.95455 0.7859 0.33556 0.0
O15 O 0.95828 0.78617 0.46603 0.0
C16 C 0.96165 0.8035 0.5164 0.0
O17 O 0.96153 0.79803 0.5931 0.0
C18 C 0.94096 0.76655 0.16027 0.0
C19 C 0.94249 0.67131 0.05664 0.0
O20 O 0.92212 0.68271 0.04714 0.0
O21 O 0.95567 0.67653 0.11811 0.0
O22 O 0.77609 0.93842 0.12773 0.0
Cd23 Cd 0.81071 0.9374 0.22055 0.0
O24 O 0.76389 0.96328 0.22129 0.0
Cd25 Cd 0.74134 0.98859 0.28809 0.0
O26 O 0.70928 0.99011 0.36267 0.0
C27 C 0.69939 0.96979 0.38238 0.0
O28 O 0.70953 0.94899 0.35919 0.0
C29 C 0.75991 0.95313 0.1537 0.0
C30 C 0.8513 0.94442 0.1249 0.0
O31 O 0.84361 0.92282 0.14306 0.0
O32 O 0.84056 0.96309 0.15648 0.0
O33 O 0.5938 0.76737 0.06319 0.0
Cd34 Cd 0.61015 0.80646 0.11203 0.0
O35 O 0.57413 0.77186 0.17573 0.0
Cd36 Cd 0.55131 0.76055 0.27499 0.0
O37 O 0.55501 0.7317 0.36249 0.0
C38 C 0.53819 0.71584 0.37105 0.0
O39 O 0.5173 0.71847 0.33253 0.0
C40 C 0.57862 0.75898 0.1136 0.0
C41 C 0.58077 0.84315 0.04907 0.0
O42 O 0.60002 0.83541 0.0128 0.0
O43 O 0.57573 0.83413 0.11805 0.0
O44 O 0.26676 0.42965 0.19305 0.0
Cd45 Cd 0.30594 0.41448 0.14124 0.0
O46 O 0.26123 0.42426 0.06602 0.0
Cd47 Cd 0.24833 0.42371 0.94326 0.0
O48 O 0.22448 0.44019 0.85642 0.0
C49 C 0.20627 0.42848 0.82807 0.0
O50 O 0.20434 0.40471 0.84148 0.0
C51 C 0.25259 0.43149 0.13307 0.0
C52 C 0.34431 0.44161 0.20557 0.0
O53 O 0.33429 0.44862 0.13988 0.0
O54 O 0.3364 0.42181 0.23836 0.0
O55 O 0.06075 0.2779 0.1206 0.0
Cd56 Cd 0.07039 0.31731 0.05844 0.0
O57 O 0.08405 0.26111 0.02962 0.0
Cd58 Cd 0.09863 0.23257 0.95196 0.0
O59 O 0.09102 0.19658 0.90368 0.0
C60 C 0.08118 0.19223 0.83601 0.0
O61 O 0.078 0.21024 0.78457 0.0
C62 C 0.06963 0.25856 0.08908 0.0
C63 C 0.06403 0.35462 0.17027 0.0
O64 O 0.04579 0.34601 0.13036 0.0
O65 O 0.08546 0.34594 0.15594 0.0
O66 O 0.23968 0.06894 0.09757 0.0
Cd67 Cd 0.20386 0.09131 0.05744 0.0
O68 O 0.2554 0.09662 0.01956 0.0
Cd69 Cd 0.28188 0.11517 0.94521 0.0
O70 O 0.31387 0.10661 0.87648 0.0
C71 C 0.31328 0.08946 0.8245 0.0
O72 O 0.29206 0.08028 0.80159 0.0
C73 C 0.25855 0.07851 0.0668 0.0
C74 C 0.16655 0.0707 0.14293 0.0
O75 O 0.16992 0.06473 0.06933 0.0
O76 O 0.18041 0.08706 0.17506 0.0
O77 O 0.44614 0.2443 0.09045 0.0
Cd78 Cd 0.44012 0.20446 0.02562 0.0
O79 O 0.41078 0.25735 0.04566 0.0
Cd80 Cd 0.38708 0.28666 0.00532 0.0
O81 O 0.40371 0.31858 0.95172 0.0
C82 C 0.41671 0.31746 0.88857 0.0
O83 O 0.41791 0.29685 0.84717 0.0
C84 C 0.4305 0.26149 0.08441 0.0
C85 C 0.45545 0.17034 0.1369 0.0
O86 O 0.471 0.18147 0.09239 0.0
O87 O 0.43251 0.17446 0.12658 0.0
Tb88 Tb 0.02375 0.99566 0.68089 0.0
C89 C 0.93092 0.00557 0.45372 0.0
C90 C 0.94285 0.98357 0.33381 0.0
C91 C 0.89964 0.98994 0.36234 0.0
C92 C 0.94901 0.99604 0.40569 0.0
C93 C 0.90598 0.00296 0.43238 0.0
C94 C 0.91807 0.98028 0.31303 0.0
C95 C 0.89559 0.02787 0.54757 0.0
N96 N 0.93785 0.01847 0.51959 0.0
C97 C 0.9206 0.03016 0.56555 0.0
C98 C 0.88822 0.01409 0.48089 0.0
Tb99 Tb 0.97907 0.02274 0.5439 0.0
N100 N 0.97266 9e-05 0.42736 0.0
C101 C 0.99108 0.9928 0.37642 0.0
C102 C 0.96171 0.97549 0.28368 0.0
C103 C 0.98594 0.98035 0.30485 0.0
H104 H 0.92613 0.04103 0.61688 0.0
H105 H 0.00077 0.97441 0.26623 0.0
H106 H 0.913 0.97074 0.25821 0.0
H107 H 0.88203 0.0369 0.58481 0.0
H108 H 0.01012 0.99557 0.39024 0.0
H109 H 0.99327 0.02668 0.97524 0.0
H110 H 0.95778 0.96593 0.22796 0.0
H111 H 0.08006 0.9876 0.61395 0.0
H112 H 0.98828 0.00837 0.8442 0.0
H113 H 0.12235 0.99939 0.65193 0.0
H114 H 0.88059 0.9877 0.34492 0.0
H115 H 0.03299 0.0447 0.01607 0.0
H116 H 0.07728 0.0518 0.9857 0.0
H117 H 0.86887 0.01254 0.46655 0.0
H118 H 0.11261 0.04441 0.89747 0.0
N119 N 0.02509 0.01576 0.80403 0.0
C120 C 0.006 0.01593 0.85793 0.0
C121 C 0.031 0.03667 0.9568 0.0
C122 C 0.05083 0.03542 0.90407 0.0
C123 C 0.00864 0.02642 0.93416 0.0
C124 C 0.04733 0.02453 0.82763 0.0
H125 H 0.12964 0.02459 0.77353 0.0
N126 N 0.06334 0.00757 0.70949 0.0
C127 C 0.10699 0.00564 0.68768 0.0
C128 C 0.06715 0.02033 0.7784 0.0
C129 C 0.08301 0.99907 0.66629 0.0
C130 C 0.11102 0.01993 0.75613 0.0
C131 C 0.09106 0.02696 0.80357 0.0
O132 O 0.04369 0.9623 0.68466 0.0
O133 O -0.00183 0.98982 0.58368 0.0
O134 O 0.95679 0.99972 0.62191 0.0
O135 O 0.98565 0.99063 0.7224 0.0
O136 O 0.03105 0.97224 0.5763 0.0
O137 O 0.01407 0.96982 0.7697 0.0
O138 O 0.9672 0.05989 0.53803 0.0
O139 O 0.00386 0.02743 0.64298 0.0
O140 O 0.04449 0.02013 0.59907 0.0
O141 O 0.01582 0.02148 0.496 0.0
O142 O 0.97158 0.04564 0.64987 0.0
O143 O 0.99369 0.04575 0.45513 0.0
C144 C 0.00995 0.97431 0.54204 0.0
C145 C 0.03506 0.93041 0.78331 0.0
C146 C 0.02056 0.89594 0.86377 0.0
C147 C 0.01668 0.91935 0.83035 0.0
C148 C 0.0431 0.88394 0.8515 0.0
C149 C 0.05749 0.91816 0.7719 0.0
C150 C 0.0615 0.8951 0.80628 0.0
C151 C 0.96288 0.99179 0.69418 0.0
C152 C 0.03091 0.95453 0.74543 0.0
C153 C 0.09442 0.03912 0.87727 0.0
C154 C 0.07431 0.04334 0.92749 0.0
C155 C 0.99221 0.04241 0.68589 0.0
C156 C 0.97352 0.08232 0.41647 0.0
C157 C 0.99069 0.09889 0.38337 0.0
C158 C 0.9834 0.1165 0.32613 0.0
C159 C 0.95862 0.11703 0.30205 0.0
C160 C 0.949 0.0831 0.39116 0.0
C161 C 0.94164 0.10041 0.33411 0.0
C162 C 0.03827 0.02473 0.52358 0.0
C163 C 0.98183 0.0651 0.4789 0.0
H164 H -0.00078 0.92856 0.83927 0.0
H165 H 0.0465 0.86597 0.87744 0.0
H166 H 0.07198 0.92644 0.73662 0.0
H167 H 0.07887 0.88579 0.79757 0.0
H168 H 0.00963 0.09841 0.4036 0.0
H169 H 0.95239 0.13016 0.25763 0.0
H170 H 0.93558 0.07047 0.41575 0.0
H171 H 0.92267 0.101 0.31474 0.0
Tb172 Tb 0.51622 0.02619 0.70747 0.0
C173 C 0.50476 0.94518 0.45 0.0
C174 C 0.5297 0.96131 0.3425 0.0
C175 C 0.52421 0.91707 0.35558 0.0
C176 C 0.51474 0.965 0.41055 0.0
C177 C 0.50891 0.92097 0.42216 0.0
C178 C 0.53466 0.93723 0.31594 0.0
C179 C 0.48117 0.90646 0.52444 0.0
N180 N 0.49022 0.94971 0.51413 0.0
C181 C 0.47759 0.93083 0.54952 0.0
C182 C 0.49713 0.90147 0.46101 0.0
Tb183 Tb 0.48529 0.99005 0.55224 0.0
N184 N 0.50942 0.98792 0.43815 0.0
C185 C 0.51763 0.00811 0.39652 0.0
C186 C 0.53896 0.98189 0.30252 0.0
C187 C 0.53269 0.00539 0.32931 0.0
H188 H 0.46521 0.93463 0.59865 0.0
H189 H 0.53948 0.0215 0.29823 0.0
H190 H 0.54618 0.93403 0.26404 0.0
H191 H 0.47158 0.89156 0.55392 0.0
H192 H 0.51346 0.02664 0.41501 0.0
H193 H 0.48423 0.00402 0.00789 0.0
H194 H 0.55059 0.97985 0.25029 0.0
H195 H 0.53999 0.07884 0.64922 0.0
H196 H 0.5034 0.99562 0.87981 0.0
H197 H 0.5388 0.12269 0.68838 0.0
H198 H 0.52777 0.8986 0.33356 0.0
H199 H 0.47117 0.04627 0.04286 0.0
H200 H 0.47226 0.09122 0.00979 0.0
H201 H 0.49982 0.88259 0.44145 0.0
H202 H 0.48797 0.12412 0.92274 0.0
N203 N 0.49871 0.03215 0.83295 0.0
C204 C 0.49676 0.01398 0.8898 0.0
C205 C 0.47885 0.04255 0.98415 0.0
C206 C 0.4835 0.06161 0.93025 0.0
C207 C 0.48624 0.01874 0.96471 0.0
C208 C 0.49374 0.05575 0.85466 0.0
H209 H 0.5137 0.136 0.80411 0.0
N210 N 0.51506 0.06734 0.73997 0.0
C211 C 0.5283 0.10927 0.72178 0.0
C212 C 0.50248 0.07414 0.8063 0.0
C213 C 0.52896 0.08435 0.69994 0.0
C214 C 0.51396 0.11673 0.7867 0.0
C215 C 0.50136 0.09901 0.83128 0.0
O216 O 0.5537 0.03564 0.70878 0.0
O217 O 0.51924 0.00253 0.60365 0.0
O218 O 0.50394 0.96393 0.63141 0.0
O219 O 0.50771 0.9885 0.7463 0.0
O220 O 0.53913 0.03418 0.60403 0.0
O221 O 0.54006 0.00738 0.78624 0.0
O222 O 0.4487 0.97824 0.5393 0.0
O223 O 0.48209 0.01299 0.6571 0.0
O224 O 0.49471 0.05287 0.63718 0.0
O225 O 0.48734 0.02927 0.52183 0.0
O226 O 0.45915 0.98358 0.64917 0.0
O227 O 0.46387 0.00567 0.46028 0.0
C228 C 0.5359 0.01366 0.56663 0.0
C229 C 0.57514 0.02941 0.82917 0.0
C230 C 0.61247 0.0247 0.90885 0.0
C231 C 0.59627 0.01598 0.84939 0.0
C232 C 0.6073 0.0472 0.94738 0.0
C233 C 0.57025 0.05183 0.86808 0.0
C234 C 0.58635 0.06069 0.92679 0.0
C235 C 0.50705 0.96682 0.70961 0.0
C236 C 0.55914 0.02012 0.76495 0.0
C237 C 0.48925 0.10512 0.90291 0.0
C238 C 0.48027 0.0864 0.95239 0.0
C239 C 0.46434 0.00268 0.69197 0.0
C240 C 0.42952 0.98306 0.41243 0.0
C241 C 0.41183 0.99859 0.37786 0.0
C242 C 0.39634 0.99008 0.31586 0.0
C243 C 0.39862 0.96546 0.29012 0.0
C244 C 0.43171 0.95867 0.38532 0.0
C245 C 0.41621 0.94993 0.32463 0.0
C246 C 0.48826 0.05066 0.56051 0.0
C247 C 0.44456 0.99275 0.47879 0.0
H248 H 0.60003 0.99867 0.81906 0.0
H249 H 0.61965 0.05454 0.99253 0.0
H250 H 0.55418 0.06254 0.85268 0.0
H251 H 0.58264 0.07811 0.9562 0.0
H252 H 0.41 0.01732 0.40008 0.0
H253 H 0.38721 0.95833 0.24209 0.0
H254 H 0.44521 0.94639 0.41128 0.0
H255 H 0.41791 0.93108 0.3039 0.0
Tb256 Tb 0.52704 0.48902 0.54818 0.0
C257 C 0.43256 0.51769 0.72244 0.0
C258 C 0.40789 0.53696 0.61966 0.0
C259 C 0.38798 0.51618 0.73061 0.0
C260 C 0.43101 0.53046 0.65166 0.0
C261 C 0.41108 0.51101 0.76424 0.0
C262 C 0.38639 0.52913 0.65827 0.0
C263 C 0.4368 0.498 0.87421 0.0
N264 N 0.4552 0.51372 0.75376 0.0
C265 C 0.45751 0.50536 0.83083 0.0
C266 C 0.41348 0.50047 0.84024 0.0
Tb267 Tb 0.48832 0.52614 0.67859 0.0
N268 N 0.4522 0.53833 0.61791 0.0
C269 C 0.45129 0.55448 0.55483 0.0
C270 C 0.40705 0.55214 0.55221 0.0
C271 C 0.42886 0.56131 0.52063 0.0
H272 H 0.4754 0.50397 0.8584 0.0
H273 H 0.42845 0.57367 0.46984 0.0
H274 H 0.36847 0.5338 0.63433 0.0
H275 H 0.43882 0.49071 0.93418 0.0
H276 H 0.46766 0.56215 0.52895 0.0
H277 H 0.57317 0.4182 0.726 0.0
H278 H 0.38968 0.55762 0.52593 0.0
H279 H 0.55121 0.51909 0.39055 0.0
H280 H 0.53832 0.43615 0.65723 0.0
H281 H 0.59219 0.53093 0.34362 0.0
H282 H 0.37125 0.51105 0.76147 0.0
H283 H 0.61433 0.43678 0.71393 0.0
H284 H 0.64163 0.46712 0.64619 0.0
H285 H 0.39745 0.49512 0.87438 0.0
H286 H 0.64702 0.49772 0.53967 0.0
N287 N 0.55811 0.46757 0.61207 0.0
C288 C 0.5555 0.44589 0.65368 0.0
C289 C 0.59879 0.44548 0.68488 0.0
C290 C 0.60197 0.4659 0.63529 0.0
C291 C 0.57559 0.43495 0.69182 0.0
C292 C 0.58112 0.47647 0.59817 0.0
H293 H 0.62886 0.52057 0.42405 0.0
N294 N 0.56417 0.50187 0.49792 0.0
C295 C 0.59024 0.52078 0.39902 0.0
C296 C 0.58426 0.49399 0.53862 0.0
C297 C 0.56699 0.51369 0.42565 0.0
C298 C 0.61085 0.51506 0.44489 0.0
C299 C 0.60813 0.50095 0.51433 0.0
O300 O 0.51994 0.48959 0.42263 0.0
O301 O 0.49371 0.51147 0.55897 0.0
O302 O 0.47684 0.48774 0.69459 0.0
O303 O 0.50956 0.46522 0.63722 0.0
O304 O 0.49094 0.47602 0.51442 0.0
O305 O 0.53341 0.45632 0.48454 0.0
O306 O 0.5054 0.54533 0.77397 0.0
O307 O 0.52419 0.51044 0.65574 0.0
O308 O 0.53965 0.52792 0.54503 0.0
O309 O 0.5038 0.54741 0.58097 0.0
O310 O 0.51184 0.50901 0.76963 0.0
O311 O 0.48047 0.5639 0.69766 0.0
C312 C 0.47911 0.49583 0.52929 0.0
C313 C 0.52343 0.45135 0.34383 0.0
C314 C 0.5077 0.41534 0.27022 0.0
C315 C 0.50947 0.42931 0.34198 0.0
C316 C 0.52 0.42386 0.20149 0.0
C317 C 0.53521 0.45935 0.27409 0.0
C318 C 0.53356 0.44565 0.20355 0.0
C319 C 0.48943 0.46714 0.68151 0.0
C320 C 0.52645 0.46642 0.41705 0.0
C321 C 0.62862 0.49219 0.55652 0.0
C322 C 0.62553 0.47476 0.61717 0.0
C323 C 0.53041 0.50367 0.72499 0.0
C324 C 0.48493 0.57919 0.83001 0.0
C325 C 0.49895 0.59828 0.8645 0.0
C326 C 0.49132 0.60977 0.93596 0.0
C327 C 0.46912 0.60238 0.97135 0.0
C328 C 0.46267 0.57228 0.86563 0.0
C329 C 0.4548 0.58392 0.93589 0.0
C330 C 0.52657 0.54824 0.55526 0.0
C331 C 0.49461 0.56598 0.75965 0.0
H332 H 0.50021 0.42309 0.3957 0.0
H333 H 0.51874 0.41388 0.14525 0.0
H334 H 0.54591 0.47621 0.27441 0.0
H335 H 0.54277 0.452 0.15001 0.0
H336 H 0.51612 0.60373 0.83694 0.0
H337 H 0.46276 0.61104 0.02614 0.0
H338 H 0.45147 0.55786 0.83955 0.0
H339 H 0.43766 0.57846 0.96336 0.0
Tb340 Tb 0.0215 0.53062 0.5511 0.0
C341 C 0.99238 0.43459 0.72805 0.0
C342 C 0.96779 0.41197 0.63196 0.0
C343 C 0.98943 0.38993 0.73701 0.0
C344 C 0.97755 0.43441 0.66125 0.0
C345 C -0.00177 0.41242 0.76767 0.0
C346 C 0.97419 0.38971 0.66926 0.0
C347 C 0.01913 0.43657 0.8688 0.0
N348 N 2e-05 0.45669 0.75672 0.0
C349 C 0.01252 0.45805 0.82789 0.0
C350 C 0.01212 0.41362 0.83821 0.0
Tb351 Tb 0.98798 0.49113 0.68786 0.0
N352 N 0.97165 0.45634 0.62762 0.0
C353 C 0.95517 0.45694 0.56542 0.0
C354 C 0.95127 0.41263 0.56784 0.0
C355 C 0.94473 0.43526 0.53505 0.0
H356 H 0.01787 0.47576 0.85212 0.0
H357 H 0.93188 0.43605 0.48551 0.0
H358 H 0.967 0.37231 0.64729 0.0
H359 H 0.02947 0.43773 0.92416 0.0
H360 H 0.95008 0.47383 0.53699 0.0
H361 H 0.07014 0.59206 0.75406 0.0
H362 H 0.94324 0.39586 0.54394 0.0
H363 H 0.99152 0.54105 0.3826 0.0
H364 H 0.05458 0.55243 0.70696 0.0
H365 H 0.98082 0.57678 0.29777 0.0
H366 H 0.99379 0.37268 0.76635 0.0
H367 H 0.06101 0.63009 0.67848 0.0
H368 H 0.04084 0.65006 0.55981 0.0
H369 H 0.01702 0.39701 0.87042 0.0
H370 H 0.01624 0.646 0.43642 0.0
N371 N 0.03626 0.56698 0.60426 0.0
C372 C 0.05033 0.56846 0.67224 0.0
C373 C 0.05404 0.61254 0.65705 0.0
C374 C 0.03996 0.61102 0.58706 0.0
C375 C 0.05924 0.59114 0.69978 0.0
C376 C 0.03129 0.58771 0.56193 0.0
H377 H 0.99363 0.61878 0.33854 0.0
N378 N 0.0093 0.56275 0.472 0.0
C379 C 0.99095 0.57952 0.35299 0.0
C380 C 0.01721 0.58552 0.49359 0.0
C381 C 0.99701 0.55934 0.40118 0.0
C382 C -0.00178 0.6032 0.37616 0.0
C383 C 0.01174 0.60642 0.44684 0.0
O384 O 0.03611 0.51949 0.44043 0.0
O385 O 0.00863 0.49445 0.58053 0.0
O386 O 0.02625 0.47864 0.68833 0.0
O387 O 0.04508 0.51505 0.64538 0.0
O388 O 0.00532 0.5039 0.46626 0.0
O389 O 0.06007 0.53168 0.53564 0.0
O390 O 0.97558 0.49989 0.80339 0.0
O391 O 0.00084 0.52772 0.66098 0.0
O392 O 0.98385 0.54421 0.5498 0.0
O393 O 0.96388 0.50902 0.59812 0.0
O394 O 0.00519 0.51584 0.77504 0.0
O395 O 0.94966 0.49264 0.708 0.0
C396 C 0.00358 0.48524 0.51359 0.0
C397 C 0.07513 0.53346 0.40113 0.0
C398 C 0.10706 0.52598 0.3009 0.0
C399 C 0.09322 0.51808 0.36724 0.0
C400 C 0.10288 0.54969 0.26998 0.0
C401 C 0.07138 0.55711 0.36988 0.0
C402 C 0.08532 0.56519 0.30479 0.0
C403 C 0.04559 0.49333 0.68164 0.0
C404 C 0.05872 0.52321 0.46246 0.0
C405 C 0.02027 0.62971 0.47142 0.0
C406 C 0.03432 0.63201 0.54154 0.0
C407 C 0.00662 0.53511 0.73026 0.0
C408 C 0.93533 0.48952 0.84308 0.0
C409 C 0.91454 0.50375 0.86094 0.0
C410 C 0.89852 0.49708 0.92335 0.0
C411 C 0.90389 0.47591 0.96855 0.0
C412 C 0.9403 0.46832 0.88809 0.0
C413 C 0.9246 0.46161 0.95067 0.0
C414 C 0.96389 0.53076 0.56146 0.0
C415 C 0.95257 0.49898 0.78293 0.0
H416 H 0.09582 0.49959 0.39035 0.0
H417 H 0.11327 0.55626 0.21901 0.0
H418 H 0.05739 0.56906 0.39455 0.0
H419 H 0.08225 0.5834 0.2804 0.0
H420 H 0.91116 0.52045 0.82708 0.0
H421 H 0.89185 0.47014 0.01657 0.0
H422 H 0.95645 0.45729 0.87582 0.0
H423 H 0.92852 0.4453 0.9856 0.0
H424 H 0.16553 0.05898 0.30273 0.0
H425 H 0.12199 0.05897 0.08416 0.0
H426 H 0.0858 0.04586 0.16072 0.0
H427 H 0.13321 0.00305 0.38893 0.0
H428 H 0.13561 0.01451 0.49022 0.0
H429 H 0.15902 0.02193 0.41781 0.0
H430 H 0.15239 0.06836 0.44676 0.0
H431 H 0.12872 0.06112 0.51814 0.0
H432 H 0.12214 0.08143 0.43549 0.0
H433 H 0.0545 0.04087 0.25723 0.0
H434 H 0.02762 0.03413 0.36748 0.0
H435 H 0.08983 0.03173 0.53265 0.0
C436 C 0.14837 0.0558 0.27141 0.0
C437 C 0.1462 0.06016 0.18806 0.0
C438 C 0.12383 0.05567 0.14795 0.0
C439 C 0.10325 0.04829 0.1909 0.0
C440 C 0.10572 0.04482 0.27318 0.0
C441 C 0.12769 0.04759 0.31323 0.0
C442 C 0.12467 0.04237 0.40243 0.0
C443 C 0.13898 0.01908 0.42626 0.0
C444 C 0.13243 0.06466 0.45371 0.0
C445 C 0.09713 0.03798 0.40644 0.0
C446 C 0.08704 0.03959 0.33047 0.0
C447 C 0.06216 0.03854 0.31665 0.0
C448 C 0.04694 0.03474 0.38141 0.0
C449 C 0.05632 0.03136 0.46046 0.0
C450 C 0.08197 0.03347 0.47336 0.0
H451 H 0.44882 0.12105 0.16195 0.0
H452 H 0.48049 0.18732 0.26477 0.0
H453 H 0.49138 0.16435 0.38793 0.0
H454 H 0.42342 0.09723 0.33662 0.0
H455 H 0.4315 0.0654 0.32262 0.0
H456 H 0.42638 0.08482 0.23655 0.0
H457 H 0.46919 0.07641 0.17835 0.0
H458 H 0.47417 0.05461 0.25794 0.0
H459 H 0.49588 0.07918 0.24187 0.0
H460 H 0.49406 0.1351 0.50533 0.0
H461 H 0.49612 0.09985 0.59797 0.0
H462 H 0.46769 0.05193 0.41102 0.0
C463 C 0.4583 0.13051 0.21025 0.0
C464 C 0.46383 0.15579 0.20512 0.0
C465 C 0.47627 0.16783 0.26854 0.0
C466 C 0.48239 0.15501 0.3385 0.0
C467 C 0.47637 0.1301 0.34274 0.0
C468 C 0.46523 0.11781 0.27947 0.0
C469 C 0.46144 0.09089 0.29857 0.0
C470 C 0.43402 0.08423 0.29835 0.0
C471 C 0.47605 0.0743 0.24077 0.0
C472 C 0.47185 0.09006 0.3826 0.0
C473 C 0.47994 0.11291 0.4077 0.0
C474 C 0.48855 0.11691 0.48541 0.0
C475 C 0.48981 0.09673 0.53773 0.0
C476 C 0.48329 0.0728 0.5113 0.0
C477 C 0.47357 0.06976 0.43313 0.0
H478 H 0.36516 0.43233 0.34971 0.0
H479 H 0.36743 0.48378 0.15119 0.0
H480 H 0.39922 0.50816 0.22313 0.0
H481 H 0.37227 0.47575 0.50962 0.0
H482 H 0.39163 0.45558 0.56767 0.0
H483 H 0.36891 0.44277 0.50078 0.0
H484 H 0.40251 0.41732 0.42653 0.0
H485 H 0.42501 0.42941 0.49525 0.0
H486 H 0.42923 0.43305 0.38887 0.0
H487 H 0.43429 0.52373 0.31286 0.0
H488 H 0.46892 0.52808 0.40873 0.0
H489 H 0.439 0.46922 0.55257 0.0
C490 C 0.37213 0.44881 0.32122 0.0
C491 C 0.36373 0.45624 0.24517 0.0
C492 C 0.37358 0.47781 0.20978 0.0
C493 C 0.39152 0.49181 0.25032 0.0
C494 C 0.39905 0.48408 0.32626 0.0
C495 C 0.38963 0.463 0.36087 0.0
C496 C 0.40139 0.4576 0.44069 0.0
C497 C 0.3824 0.45796 0.50871 0.0
C498 C 0.41535 0.43289 0.43765 0.0
C499 C 0.41881 0.47909 0.4468 0.0
C500 C 0.41757 0.49409 0.3799 0.0
C501 C 0.43477 0.51273 0.36684 0.0
C502 C 0.45417 0.51533 0.42194 0.0
C503 C 0.45554 0.49995 0.49011 0.0
C504 C 0.43731 0.48218 0.50352 0.0
H505 H 0.02128 0.36578 0.24699 0.0
H506 H 0.0982 0.38622 0.23342 0.0
H507 H 0.09159 0.41798 0.33799 0.0
H508 H 0.99537 0.42257 0.2643 0.0
H509 H 0.97269 0.41443 0.3384 0.0
H510 H 0.98448 0.39123 0.27188 0.0
H511 H 0.99731 0.36487 0.39491 0.0
H512 H 0.98566 0.38839 0.46129 0.0
H513 H 0.01696 0.37818 0.47055 0.0
H514 H 0.07642 0.44718 0.4446 0.0
H515 H 0.05262 0.4778 0.52064 0.0
H516 H 0.98499 0.44293 0.44389 0.0
C517 C 0.03677 0.37683 0.26648 0.0
C518 C 0.06027 0.37352 0.2327 0.0
C519 C 0.08012 0.38827 0.25957 0.0
C520 C 0.07658 0.4062 0.31924 0.0
C521 C 0.05319 0.40877 0.3521 0.0
C522 C 0.03358 0.39465 0.32618 0.0
C523 C 0.01 0.40225 0.36726 0.0
C524 C 0.98945 0.408 0.30677 0.0
C525 C 0.002 0.38224 0.42699 0.0
C526 C 0.01876 0.42494 0.41176 0.0
C527 C 0.04403 0.42713 0.40747 0.0
C528 C 0.05662 0.44578 0.44744 0.0
C529 C 0.04288 0.46321 0.48999 0.0
C530 C 0.01685 0.46291 0.48765 0.0
C531 C 0.0047 0.4433 0.44891 0.0
H532 H 0.87317 0.98752 0.07255 0.0
H533 H 0.8714 0.90819 0.03415 0.0
H534 H 0.89792 0.91282 0.91662 0.0
H535 H 0.87182 0.00566 0.86887 0.0
H536 H 0.89363 0.03051 0.87856 0.0
H537 H 0.87515 0.02167 0.9632 0.0
H538 H 0.91429 0.01486 0.0487 0.0
H539 H 0.93289 0.02412 0.96477 0.0
H540 H 0.93808 0.99472 0.01183 0.0
H541 H 0.92244 0.92508 0.80219 0.0
H542 H 0.94885 0.94459 0.70234 0.0
H543 H 0.93637 0.01607 0.80943 0.0
C544 C 0.87869 0.97113 0.03998 0.0
C545 C 0.8701 0.94747 0.0623 0.0
C546 C 0.87773 0.92647 0.01838 0.0
C547 C 0.89269 0.92889 0.95116 0.0
C548 C 0.90014 0.95241 0.92917 0.0
C549 C 0.89396 0.97317 0.97277 0.0
C550 C 0.90518 0.99615 0.93581 0.0
C551 C 0.88524 0.01458 0.91008 0.0
C552 C 0.92371 0.00817 0.99373 0.0
C553 C 0.91802 0.98492 0.86372 0.0
C554 C 0.91468 0.95967 0.86158 0.0
C555 C 0.92504 0.94486 0.80266 0.0
C556 C 0.93977 0.95608 0.74525 0.0
C557 C 0.94383 0.98169 0.74626 0.0
C558 C 0.93279 0.99644 0.80607 0.0
H559 H 0.58337 0.85873 0.89512 0.0
H560 H 0.54113 0.86782 0.11368 0.0
H561 H 0.51368 0.89718 0.04352 0.0
H562 H 0.58189 0.92027 0.8338 0.0
H563 H 0.57954 0.91292 0.72857 0.0
H564 H 0.59429 0.89172 0.79583 0.0
H565 H 0.56437 0.85718 0.74891 0.0
H566 H 0.54925 0.8785 0.68243 0.0
H567 H 0.53172 0.86203 0.75653 0.0
H568 H 0.49282 0.92747 0.95068 0.0
H569 H 0.48212 0.95813 0.84693 0.0
H570 H 0.53787 0.92802 0.68989 0.0
C571 C 0.5683 0.86677 0.92842 0.0
C572 C 0.56437 0.86104 0.00974 0.0
C573 C 0.54442 0.87196 0.05112 0.0
C574 C 0.52869 0.88851 0.01169 0.0
C575 C 0.53306 0.89355 0.93095 0.0
C576 C 0.55243 0.88301 0.89005 0.0
C577 C 0.55411 0.89225 0.80495 0.0
C578 C 0.57892 0.90506 0.78996 0.0
C579 C 0.54959 0.87123 0.74464 0.0
C580 C 0.53316 0.9104 0.80462 0.0
C581 C 0.52097 0.91065 0.87749 0.0
C582 C 0.50207 0.92722 0.89331 0.0
C583 C 0.49619 0.94456 0.83432 0.0
C584 C 0.5093 0.94521 0.76116 0.0
C585 C 0.52732 0.92741 0.74487 0.0
H586 H 0.62272 0.59143 0.9517 0.0
H587 H 0.65886 0.52614 0.04439 0.0
H588 H 0.63194 0.49988 0.96059 0.0
H589 H 0.56209 0.56273 0.9493 0.0
H590 H 0.55217 0.57903 0.86128 0.0
H591 H 0.57411 0.593 0.92845 0.0
H592 H 0.60446 0.5988 0.81102 0.0
H593 H 0.58263 0.58505 0.74308 0.0
H594 H 0.61324 0.57257 0.75076 0.0
H595 H 0.59795 0.48082 0.87819 0.0
H596 H 0.56082 0.47095 0.79855 0.0
H597 H 0.55189 0.54808 0.74142 0.0
C598 C 0.62505 0.57161 0.95401 0.0
C599 C 0.64292 0.56079 0.00421 0.0
C600 C 0.64515 0.53479 0.00669 0.0
C601 C 0.63005 0.51973 0.95905 0.0
C602 C 0.61275 0.53098 0.90963 0.0
C603 C 0.61007 0.55632 0.90714 0.0
C604 C 0.58925 0.56368 0.85199 0.0
C605 C 0.56818 0.57531 0.90068 0.0
C606 C 0.59795 0.58104 0.78521 0.0
C607 C 0.58184 0.53866 0.8195 0.0
C608 C 0.5949 0.51994 0.85595 0.0
C609 C 0.58836 0.49524 0.84628 0.0
C610 C 0.56763 0.48966 0.79945 0.0
C611 C 0.55486 0.50845 0.7586 0.0
C612 C 0.56233 0.53321 0.768 0.0
H613 H 0.95603 0.62311 0.07767 0.0
H614 H 0.94814 0.68031 0.89872 0.0
H615 H 0.96347 0.65168 0.79428 0.0
H616 H 0.00958 0.59471 0.01266 0.0
H617 H -0.00054 0.56336 0.0269 0.0
H618 H 0.98651 0.58772 0.08673 0.0
H619 H 0.94283 0.575 0.04039 0.0
H620 H 0.95573 0.55056 0.98027 0.0
H621 H 0.93602 0.57319 0.93478 0.0
H622 H 0.97735 0.61614 0.70857 0.0
H623 H 0.99247 0.57745 0.65029 0.0
H624 H 0.99653 0.54517 0.8871 0.0
C625 C 0.95757 0.62946 0.01638 0.0
C626 C 0.9511 0.6538 0.99555 0.0
C627 C 0.95292 0.6616 0.91504 0.0
C628 C 0.96154 0.6455 0.85557 0.0
C629 C 0.96773 0.62156 0.87761 0.0
C630 C 0.96564 0.61343 0.95586 0.0
C631 C 0.97318 0.58662 0.96279 0.0
C632 C 0.99341 0.58292 0.02599 0.0
C633 C 0.95062 0.57039 0.98065 0.0
C634 C 0.98237 0.58194 0.87842 0.0
C635 C 0.97781 0.60184 0.82931 0.0
C636 C 0.98195 0.60079 0.74703 0.0
C637 C 0.99124 0.57887 0.71437 0.0
C638 C -0.00206 0.5589 0.76416 0.0
C639 C 0.99306 0.56054 0.84742 0.0
H640 H 0.0269 0.24784 0.16546 0.0
H641 H 0.09437 0.2139 0.08291 0.0
H642 H 0.08042 0.17376 0.13698 0.0
H643 H 0.0217 0.21433 0.34969 0.0
H644 H 0.98872 0.21207 0.34386 0.0
H645 H 0.00429 0.2378 0.29867 0.0
H646 H 0.98388 0.22767 0.16193 0.0
H647 H 0.96814 0.20199 0.20664 0.0
H648 H 0.9872 0.19721 0.11974 0.0
H649 H 0.0586 0.13708 0.20544 0.0
H650 H 0.03014 0.10748 0.26992 0.0
H651 H 0.97719 0.1662 0.30456 0.0
C652 C 0.03882 0.23199 0.15868 0.0
C653 C 0.06164 0.23402 0.119 0.0
C654 C 0.07658 0.21276 0.11129 0.0
C655 C 0.06889 0.18991 0.14274 0.0
C656 C 0.04623 0.18864 0.18173 0.0
C657 C 0.03139 0.20918 0.18912 0.0
C658 C 0.00763 0.20313 0.23168 0.0
C659 C 0.00547 0.2177 0.31066 0.0
C660 C 0.9854 0.20777 0.1767 0.0
C661 C 0.01121 0.1759 0.2471 0.0
C662 C 0.03367 0.16782 0.2188 0.0
C663 C 0.04095 0.14328 0.22736 0.0
C664 C 0.02471 0.12661 0.26444 0.0
C665 C 0.00131 0.13444 0.2917 0.0
C666 C 0.99476 0.15952 0.28337 0.0
H667 H 0.26984 0.03159 0.11096 0.0
H668 H 0.30197 0.10402 0.07813 0.0
H669 H 0.34087 0.08912 0.13784 0.0
H670 H 0.29567 0.01859 0.2981 0.0
H671 H 0.30126 0.98637 0.27842 0.0
H672 H 0.27668 0.00204 0.22744 0.0
H673 H 0.2947 0.9893 0.08983 0.0
H674 H 0.31914 0.97318 0.14037 0.0
H675 H 0.32625 0.99648 0.06717 0.0
H676 H 0.37522 0.06689 0.20926 0.0
H677 H 0.40375 0.03818 0.27568 0.0
H678 H 0.34884 0.98045 0.26467 0.0
C679 C 0.28524 0.04419 0.11487 0.0
C680 C 0.28303 0.06891 0.08908 0.0
C681 C 0.30346 0.08489 0.09575 0.0
C682 C 0.32552 0.07664 0.13041 0.0
C683 C 0.32686 0.0523 0.1571 0.0
C684 C 0.30738 0.03619 0.14848 0.0
C685 C 0.31342 0.01103 0.18259 0.0
C686 C 0.29571 0.00412 0.25069 0.0
C687 C 0.31338 0.99133 0.11602 0.0
C688 C 0.33916 0.01563 0.21378 0.0
C689 C 0.34657 0.03954 0.1983 0.0
C690 C 0.3696 0.04814 0.22147 0.0
C691 C 0.3856 0.03179 0.26018 0.0
C692 C 0.37859 0.00716 0.27638 0.0
C693 C 0.35493 0.99908 0.2528 0.0
H694 H 0.47509 0.28393 0.08373 0.0
H695 H 0.3999 0.29448 0.16059 0.0
H696 H 0.41188 0.33378 0.22719 0.0
H697 H 0.50511 0.30786 0.25665 0.0
H698 H 0.52919 0.3229 0.20116 0.0
H699 H 0.51458 0.29576 0.16075 0.0
H700 H 0.50287 0.31937 0.03075 0.0
H701 H 0.51835 0.34616 0.07011 0.0
H702 H 0.48675 0.34827 0.03896 0.0
H703 H 0.43345 0.37187 0.28976 0.0
H704 H 0.46045 0.40737 0.32294 0.0
H705 H 0.52075 0.37153 0.19999 0.0
C706 C 0.46111 0.29457 0.11432 0.0
C707 C 0.43659 0.28619 0.11727 0.0
C708 C 0.41876 0.30072 0.15711 0.0
C709 C 0.42547 0.32292 0.19567 0.0
C710 C 0.45001 0.33046 0.19277 0.0
C711 C 0.46739 0.31687 0.15155 0.0
C712 C 0.49226 0.32929 0.15347 0.0
C713 C 0.51141 0.31298 0.19554 0.0
C714 C 0.50054 0.33617 0.06827 0.0
C715 C 0.48637 0.35201 0.20274 0.0
C716 C 0.46201 0.35233 0.22589 0.0
C717 C 0.45249 0.37179 0.27136 0.0
C718 C 0.468 0.3918 0.29062 0.0
C719 C 0.49265 0.39236 0.26368 0.0
C720 C 0.50195 0.37179 0.22105 0.0
H721 H 0.2309 0.44756 0.27204 0.0
H722 H 0.21758 0.44132 0.01628 0.0
H723 H 0.17797 0.46235 0.03266 0.0
H724 H 0.16684 0.4382 0.33436 0.0
H725 H 0.16919 0.46014 0.41546 0.0
H726 H 0.19589 0.44305 0.38405 0.0
H727 H 0.21946 0.48396 0.36195 0.0
H728 H 0.19287 0.50116 0.39312 0.0
H729 H 0.20657 0.50706 0.29677 0.0
H730 H 0.14117 0.48749 0.07572 0.0
H731 H 0.10967 0.51317 0.14268 0.0
H732 H 0.14587 0.50186 0.37127 0.0
C733 C 0.21958 0.45031 0.21938 0.0
C734 C 0.2277 0.4427 0.14243 0.0
C735 C 0.21216 0.44686 0.07559 0.0
C736 C 0.18944 0.45883 0.08447 0.0
C737 C 0.18226 0.46639 0.1609 0.0
C738 C 0.19678 0.46208 0.22735 0.0
C739 C 0.18524 0.47279 0.30257 0.0
C740 C 0.17891 0.45232 0.36265 0.0
C741 C 0.20204 0.49241 0.34082 0.0
C742 C 0.1622 0.4843 0.26782 0.0
C743 C 0.16081 0.48035 0.18596 0.0
C744 C 0.14195 0.49043 0.13989 0.0
C745 C 0.12421 0.50507 0.17831 0.0
C746 C 0.1253 0.50938 0.26208 0.0
C747 C 0.1444 0.49855 0.30736 0.0
H748 H 0.95301 0.77613 0.00535 0.0
H749 H 0.94112 0.81231 0.23427 0.0
H750 H 0.95455 0.85182 0.17593 0.0
H751 H 0.00609 0.80434 0.95579 0.0
H752 H -0.00015 0.80745 0.8501 0.0
H753 H 0.9854 0.78326 0.90603 0.0
H754 H 0.9426 0.79876 0.86037 0.0
H755 H 0.95697 0.82314 0.80408 0.0
H756 H 0.93405 0.8304 0.87828 0.0
H757 H 0.97429 0.88621 0.0963 0.0
H758 H 0.00032 0.91118 0.00545 0.0
H759 H -0.00125 0.85228 0.82972 0.0
C760 C 0.95271 0.79245 0.04294 0.0
C761 C 0.94662 0.79095 0.12506 0.0
C762 C 0.94656 0.81274 0.17209 0.0
C763 C 0.95371 0.83541 0.13893 0.0
C764 C 0.96039 0.83606 0.05824 0.0
C765 C 0.95968 0.81513 0.0107 0.0
C766 C 0.96992 0.82002 0.92801 0.0
C767 C 0.9916 0.80275 0.90897 0.0
C768 C 0.94968 0.81795 0.86391 0.0
C769 C 0.97817 0.84645 0.9382 0.0
C770 C 0.97178 0.85573 0.01267 0.0
C771 C 0.97899 0.87928 0.03737 0.0
C772 C 0.99371 0.89333 0.98558 0.0
C773 C 0.00134 0.88352 0.91103 0.0
C774 C 0.99291 0.86014 0.88636 0.0
H775 H 0.71401 0.96927 0.20252 0.0
H776 H 0.75628 0.95006 0.99127 0.0
H777 H 0.72189 0.96347 0.90528 0.0
H778 H 0.65347 0.95253 0.12122 0.0
H779 H 0.63833 0.978 0.16999 0.0
H780 H 0.66509 0.96428 0.2152 0.0
H781 H 0.68628 0.00696 0.21942 0.0
H782 H 0.6597 0.02084 0.17404 0.0
H783 H 0.68944 0.0244 0.12819 0.0
H784 H 0.68432 0.9822 0.84193 0.0
H785 H 0.64621 0.0045 0.80648 0.0
H786 H 0.62926 0.01311 0.05904 0.0
C787 C 0.71624 0.96815 0.13841 0.0
C788 C 0.73815 0.95917 0.10382 0.0
C789 C 0.7397 0.95693 0.01927 0.0
C790 C 0.72027 0.96453 0.96986 0.0
C791 C 0.69927 0.97413 0.00588 0.0
C792 C 0.69704 0.97578 0.08827 0.0
C793 C 0.67298 0.9878 0.11181 0.0
C794 C 0.6565 0.96956 0.15724 0.0
C795 C 0.67738 0.0114 0.16125 0.0
C796 C 0.66252 0.99358 0.02975 0.0
C797 C 0.67774 0.98512 0.96942 0.0
C798 C 0.67215 0.98871 0.88865 0.0
C799 C 0.65048 0.00135 0.86908 0.0
C800 C 0.63484 0.01052 0.93004 0.0
C801 C 0.64097 0.00643 0.01128 0.0
H802 H 0.55991 0.7399 0.97431 0.0
H803 H 0.5729 0.72258 0.22393 0.0
H804 H 0.55307 0.68187 0.20487 0.0
H805 H 0.50079 0.7112 0.95977 0.0
H806 H 0.50536 0.70001 0.85901 0.0
H807 H 0.52095 0.72747 0.89261 0.0
H808 H 0.56273 0.70796 0.85395 0.0
H809 H 0.54725 0.68038 0.82065 0.0
H810 H 0.57121 0.67847 0.89512 0.0
H811 H 0.53079 0.64376 0.15936 0.0
H812 H 0.50714 0.61085 0.09104 0.0
H813 H 0.5097 0.65218 0.86917 0.0
C814 C 0.55864 0.72743 0.02471 0.0
C815 C 0.56729 0.7345 0.10133 0.0
C816 C 0.56543 0.7178 0.16588 0.0
C817 C 0.55457 0.69454 0.15517 0.0
C818 C 0.54586 0.68823 0.07917 0.0
C819 C 0.54779 0.70415 0.01495 0.0
C820 C 0.5363 0.69311 0.94006 0.0
C821 C 0.51456 0.70889 0.91119 0.0
C822 C 0.55552 0.68978 0.87352 0.0
C823 C 0.52765 0.66848 0.97213 0.0
C824 C 0.53335 0.66606 0.05256 0.0
C825 C 0.52633 0.64539 0.09634 0.0
C826 C 0.51285 0.62686 0.0572 0.0
C827 C 0.50666 0.62901 0.97502 0.0
C828 C 0.51446 0.64997 0.93183 0.0
H829 H 0.79071 0.56122 0.17902 0.0
H830 H 0.75691 0.57885 0.95031 0.0
H831 H 0.79265 0.56161 0.88007 0.0
H832 H 0.85418 0.57306 0.11788 0.0
H833 H 0.86662 0.54769 0.1744 0.0
H834 H 0.83924 0.56308 0.20856 0.0
H835 H 0.81616 0.5215 0.21008 0.0
H836 H 0.84341 0.50598 0.17608 0.0
H837 H 0.81514 0.50284 0.12049 0.0
H838 H 0.82969 0.54007 0.83328 0.0
H839 H 0.86736 0.51604 0.8116 0.0
H840 H 0.87816 0.51109 0.06921 0.0
C841 C 0.7906 0.56108 0.11435 0.0
C842 C 0.77061 0.57093 0.07029 0.0
C843 C 0.77191 0.57144 0.98551 0.0
C844 C 0.79213 0.56162 0.94492 0.0
C845 C 0.81113 0.55146 0.98979 0.0
C846 C 0.81075 0.5512 0.0726 0.0
C847 C 0.83353 0.53851 0.1056 0.0
C848 C 0.84933 0.55668 0.15447 0.0
C849 C 0.82663 0.51586 0.15599 0.0
C850 C 0.84622 0.53103 0.02805 0.0
C851 C 0.83301 0.53901 0.9623 0.0
C852 C 0.8404 0.53395 0.88416 0.0
C853 C 0.86191 0.52034 0.87248 0.0
C854 C 0.87589 0.5118 0.9385 0.0
C855 C 0.86786 0.51728 0.01746 0.0
H856 H 0.06986 0.16751 0.69495 0.0
H857 H 0.06276 0.1641 0.95432 0.0
H858 H 0.03816 0.12645 0.94191 0.0
H859 H 0.00867 0.1427 0.64946 0.0
H860 H 0.01873 0.12473 0.56465 0.0
H861 H 0.03451 0.15285 0.59091 0.0
H862 H 0.07556 0.129 0.59953 0.0
H863 H 0.05991 0.10086 0.57318 0.0
H864 H 0.07789 0.10245 0.66399 0.0
H865 H 0.0085 0.09429 0.90145 0.0
H866 H 0.98579 0.06004 0.83698 0.0
H867 H 0.02094 0.07609 0.61096 0.0
C868 C 0.06318 0.15868 0.74883 0.0
C869 C 0.06814 0.1687 0.82556 0.0
C870 C 0.05928 0.15668 0.89496 0.0
C871 C 0.04506 0.13543 0.88867 0.0
C872 C 0.04023 0.12613 0.81269 0.0
C873 C 0.0495 0.1368 0.74388 0.0
C874 C 0.04255 0.12171 0.67034 0.0
C875 C 0.02509 0.13637 0.61562 0.0
C876 C 0.06535 0.11297 0.62411 0.0
C877 C 0.02913 0.10046 0.70992 0.0
C878 C 0.02676 0.10435 0.79132 0.0
C879 C 0.0115 0.08993 0.83887 0.0
C880 C -0.00084 0.07024 0.80263 0.0
C881 C 0.00418 0.0638 0.72251 0.0
C882 C 0.01862 0.07957 0.6745 0.0
H883 H 0.33511 0.07177 0.68618 0.0
H884 H 0.34081 0.07335 0.94585 0.0
H885 H 0.37953 0.05031 0.93924 0.0
H886 H 0.36435 0.00905 0.66332 0.0
H887 H 0.37998 0.01753 0.5724 0.0
H888 H 0.35076 0.03126 0.59653 0.0
H889 H 0.37024 0.07452 0.58359 0.0
H890 H 0.39958 0.06095 0.561 0.0
H891 H 0.39676 0.08236 0.64347 0.0
H892 H 0.41636 0.02677 0.90747 0.0
H893 H 0.45211 0.00568 0.84882 0.0
H894 H 0.42796 0.02561 0.61093 0.0
C895 C 0.34453 0.06694 0.74119 0.0
C896 C 0.33542 0.0745 0.8165 0.0
C897 C 0.34791 0.06798 0.88769 0.0
C898 C 0.36975 0.05475 0.88465 0.0
C899 C 0.37884 0.04826 0.80989 0.0
C900 C 0.36678 0.05395 0.73918 0.0
C901 C 0.38167 0.04562 0.66714 0.0
C902 C 0.3684 0.02463 0.62222 0.0
C903 C 0.38742 0.06717 0.61053 0.0
C904 C 0.40455 0.03616 0.70912 0.0
C905 C 0.40191 0.03692 0.79133 0.0
C906 C 0.41925 0.02695 0.84331 0.0
C907 C 0.43998 0.01581 0.81014 0.0
C908 C 0.44399 0.01642 0.72695 0.0
C909 C 0.42591 0.0264 0.67548 0.0
H910 H 0.43254 0.33325 0.73994 0.0
H911 H 0.43727 0.34851 0.99533 0.0
H912 H 0.46078 0.38611 0.9681 0.0
H913 H 0.4952 0.36109 0.68832 0.0
H914 H 0.48386 0.37353 0.59531 0.0
H915 H 0.47146 0.34508 0.63351 0.0
H916 H 0.42776 0.36369 0.62668 0.0
H917 H 0.44007 0.39222 0.58965 0.0
H918 H 0.42137 0.39218 0.67869 0.0
H919 H 0.47685 0.42448 0.91703 0.0
H920 H 0.4885 0.46164 0.84138 0.0
H921 H 0.4746 0.42317 0.61764 0.0
C922 C 0.4391 0.34429 0.78979 0.0
C923 C 0.43284 0.33833 0.86964 0.0
C924 C 0.44148 0.35312 0.93368 0.0
C925 C 0.45507 0.37436 0.91893 0.0
C926 C 0.46002 0.38047 0.83982 0.0
C927 C 0.45274 0.36582 0.77594 0.0
C928 C 0.45876 0.37816 0.69665 0.0
C929 C 0.47849 0.36359 0.65078 0.0
C930 C 0.4356 0.38178 0.64495 0.0
C931 C 0.46885 0.40258 0.72675 0.0
C932 C 0.4698 0.40318 0.80954 0.0
C933 C 0.47661 0.42421 0.85216 0.0
C934 C 0.48275 0.4453 0.80901 0.0
C935 C 0.48193 0.4451 0.72457 0.0
C936 C 0.47529 0.42348 0.68257 0.0
H937 H 0.16599 0.41177 0.74391 0.0
H938 H 0.19774 0.47708 0.85502 0.0
H939 H 0.15926 0.4995 0.83344 0.0
H940 H 0.13062 0.44697 0.59063 0.0
H941 H 0.10519 0.42571 0.59293 0.0
H942 H 0.13589 0.41491 0.61286 0.0
H943 H 0.1211 0.39717 0.74856 0.0
H944 H 0.0905 0.40841 0.73005 0.0
H945 H 0.10653 0.41732 0.82031 0.0
H946 H 0.11726 0.51364 0.81387 0.0
H947 H 0.07462 0.52185 0.7737 0.0
H948 H 0.06932 0.44888 0.66785 0.0
C949 C 0.16492 0.43092 0.76215 0.0
C950 C 0.18479 0.44264 0.80133 0.0
C951 C 0.18283 0.46774 0.8244 0.0
C952 C 0.16098 0.48061 0.81304 0.0
C953 C 0.14147 0.46831 0.77708 0.0
C954 C 0.1433 0.44432 0.74973 0.0
C955 C 0.11941 0.43586 0.71157 0.0
C956 C 0.12299 0.43055 0.62167 0.0
C957 C 0.10876 0.41336 0.75527 0.0
C958 C 0.10373 0.45859 0.7247 0.0
C959 C 0.11697 0.47696 0.76287 0.0
C960 C 0.10676 0.49962 0.78265 0.0
C961 C 0.08259 0.50412 0.75959 0.0
C962 C 0.06903 0.48611 0.71705 0.0
C963 C 0.07941 0.4628 0.70104 0.0
H964 H 0.95004 0.84441 0.60148 0.0
H965 H 0.98307 0.82088 0.37775 0.0
H966 H 0.99467 0.86418 0.34893 0.0
H967 H 0.92614 0.90228 0.52357 0.0
H968 H 0.93131 0.91924 0.61428 0.0
H969 H 0.92459 0.88682 0.61891 0.0
H970 H 0.96413 0.87684 0.69631 0.0
H971 H 0.97222 0.90888 0.69924 0.0
H972 H 0.99333 0.88689 0.65775 0.0
H973 H 0.01032 0.90843 0.36172 0.0
H974 H 0.0233 0.95024 0.40457 0.0
H975 H 0.97588 0.94568 0.60977 0.0
C976 C 0.95933 0.84841 0.54565 0.0
C977 C 0.96567 0.82935 0.49184 0.0
C978 C 0.97779 0.83527 0.41938 0.0
C979 C 0.98456 0.8598 0.40282 0.0
C980 C 0.97858 0.87812 0.45857 0.0
C981 C 0.96581 0.87267 0.52774 0.0
C982 C 0.96198 0.89529 0.57925 0.0
C983 C 0.93442 0.90128 0.58446 0.0
C984 C 0.97357 0.89178 0.66296 0.0
C985 C 0.97573 0.91432 0.53045 0.0
C986 C 0.98528 0.90408 0.46109 0.0
C987 C 0.00194 0.917 0.41357 0.0
C988 C 0.00912 0.94079 0.43797 0.0
C989 C -0.00113 0.95183 0.50718 0.0
C990 C 0.98199 0.93838 0.55332 0.0
H991 H 0.67497 0.00967 0.43939 0.0
H992 H 0.66918 0.93025 0.41312 0.0
H993 H 0.62635 0.93202 0.4625 0.0
H994 H 0.63454 0.0148 0.61916 0.0
H995 H 0.62245 0.04378 0.58452 0.0
H996 H 0.65357 0.03516 0.56091 0.0
H997 H 0.644 0.04144 0.40978 0.0
H998 H 0.61273 0.04934 0.43238 0.0
H999 H 0.61922 0.02436 0.36399 0.0
H1000 H 0.58309 0.94352 0.51016 0.0
H1001 H 0.54414 0.96358 0.54894 0.0
H1002 H 0.57824 0.03531 0.52244 0.0
C1003 C 0.66492 0.99255 0.44538 0.0
C1004 C 0.6753 0.96987 0.4222 0.0
C1005 C 0.66153 0.94787 0.43086 0.0
C1006 C 0.63723 0.94868 0.45882 0.0
C1007 C 0.62721 0.9716 0.47797 0.0
C1008 C 0.64079 0.99307 0.47229 0.0
C1009 C 0.62558 0.01557 0.49065 0.0
C1010 C 0.63457 0.02806 0.56841 0.0
C1011 C 0.62537 0.03373 0.41995 0.0
C1012 C 0.60088 0.00365 0.50241 0.0
C1013 C 0.60222 0.97825 0.49803 0.0
C1014 C 0.58179 0.96342 0.51226 0.0
C1015 C 0.55958 0.97498 0.53268 0.0
C1016 C 0.5578 0.00104 0.53476 0.0
C1017 C 0.57877 0.01538 0.51865 0.0
H1018 H 0.51137 0.69053 0.48062 0.0
H1019 H 0.57829 0.68798 0.341 0.0
H1020 H 0.58606 0.64544 0.38734 0.0
H1021 H 0.53773 0.65126 0.65151 0.0
H1022 H 0.50818 0.63739 0.66922 0.0
H1023 H 0.51014 0.66888 0.63538 0.0
H1024 H 0.48182 0.65827 0.51485 0.0
H1025 H 0.47985 0.62687 0.54781 0.0
H1026 H 0.49033 0.63357 0.44772 0.0
H1027 H 0.58314 0.60141 0.4336 0.0
H1028 H 0.57013 0.56014 0.47866 0.0
H1029 H 0.50575 0.59247 0.58959 0.0
C1030 C 0.52796 0.68113 0.46191 0.0
C1031 C 0.54428 0.69221 0.40782 0.0
C1032 C 0.56578 0.67964 0.38345 0.0
C1033 C 0.57036 0.65558 0.40953 0.0
C1034 C 0.55367 0.64483 0.46202 0.0
C1035 C 0.5332 0.65744 0.48953 0.0
C1036 C 0.51744 0.64131 0.54208 0.0
C1037 C 0.51843 0.65024 0.62972 0.0
C1038 C 0.49081 0.63992 0.51116 0.0
C1039 C 0.53075 0.61706 0.53248 0.0
C1040 C 0.55205 0.61955 0.4886 0.0
C1041 C 0.5666 0.59928 0.46875 0.0
C1042 C 0.55889 0.5758 0.49346 0.0
C1043 C 0.53649 0.5728 0.53498 0.0
C1044 C 0.52277 0.5939 0.55661 0.0
H1045 H 0.82853 0.5212 0.38876 0.0
H1046 H 0.81947 0.59907 0.44205 0.0
H1047 H 0.86147 0.60039 0.49824 0.0
H1048 H 0.86483 0.50585 0.56609 0.0
H1049 H 0.88372 0.48433 0.51144 0.0
H1050 H 0.85241 0.48948 0.48089 0.0
H1051 H 0.86747 0.50047 0.3379 0.0
H1052 H 0.89886 0.49579 0.36829 0.0
H1053 H 0.88965 0.52481 0.3253 0.0
H1054 H 0.90606 0.59376 0.53774 0.0
H1055 H 0.9478 0.57841 0.57082 0.0
H1056 H 0.92634 0.50513 0.49343 0.0
C1057 C 0.83517 0.53846 0.41344 0.0
C1058 C 0.82077 0.56004 0.41088 0.0
C1059 C 0.83023 0.58229 0.44332 0.0
C1060 C 0.85407 0.58325 0.4752 0.0
C1061 C 0.86807 0.56177 0.47454 0.0
C1062 C 0.8588 0.53972 0.44557 0.0
C1063 C 0.87767 0.51938 0.44962 0.0
C1064 C 0.86914 0.49854 0.50535 0.0
C1065 C 0.88377 0.50955 0.36528 0.0
C1066 C 0.89905 0.53341 0.48522 0.0
C1067 C 0.89332 0.55789 0.49863 0.0
C1068 C 0.91065 0.57456 0.52834 0.0
C1069 C 0.93429 0.56577 0.54631 0.0
C1070 C 0.94006 0.54056 0.53543 0.0
C1071 C 0.92227 0.52436 0.50385 0.0
loop_
_geom_bond_atom_site_label_1
_geom_bond_atom_site_label_2
_geom_bond_distance
_geom_bond_site_symmetry_2
_ccdc_geom_bond_type
O0 Cd1 2.300 . S
O0 C7 1.275 . S
Cd1 O0 2.300 . S
Cd1 O9 2.381 . S
Cd1 O10 2.378 . S
O2 Cd3 2.385 . S
O2 C7 1.255 . S
Cd3 O2 2.385 . S
Cd3 O4 2.317 . S
O4 Cd3 2.317 . S
O4 C5 1.232 . S
C5 O4 1.232 . S
C5 O6 1.218 . S
O6 C5 1.218 . S
C7 O0 1.275 . S
C7 O2 1.255 . S
C8 O9 1.258 . S
C8 O10 1.256 . S
O9 Cd1 2.381 . S
O9 C8 1.258 . S
O10 Cd1 2.378 . S
O10 C8 1.256 . S
O11 Cd12 2.300 . S
O11 C18 1.275 . S
Cd12 O11 2.300 . S
Cd12 O20 2.381 . S
Cd12 O21 2.378 . S
O13 Cd14 2.385 . S
O13 C18 1.255 . S
Cd14 O13 2.385 . S
Cd14 O15 2.317 . S
O15 Cd14 2.317 . S
O15 C16 1.232 . S
C16 O15 1.232 . S
C16 O17 1.218 . S
O17 C16 1.218 . S
C18 O11 1.275 . S
C18 O13 1.255 . S
C19 O20 1.258 . S
C19 O21 1.256 . S
O20 Cd12 2.381 . S
O20 C19 1.258 . S
O21 Cd12 2.378 . S
O21 C19 1.256 . S
O22 Cd23 2.300 . S
O22 C29 1.275 . S
Cd23 O22 2.300 . S
Cd23 O31 2.381 . S
Cd23 O32 2.378 . S
O24 Cd25 2.385 1_565 S
O24 C29 1.255 . S
Cd25 O24 2.385 1_545 S
Cd25 O26 2.317 1_545 S
O26 Cd25 2.317 1_565 S
O26 C27 1.232 . S
C27 O26 1.232 . S
C27 O28 1.218 . S
O28 C27 1.218 . S
C29 O22 1.275 . S
C29 O24 1.255 . S
C30 O31 1.258 . S
C30 O32 1.256 . S
O31 Cd23 2.381 . S
O31 C30 1.258 . S
O32 Cd23 2.378 . S
O32 C30 1.256 . S
O33 Cd34 2.300 . S
O33 C40 1.275 . S
Cd34 O33 2.300 . S
Cd34 O42 2.381 . S
Cd34 O43 2.378 . S
O35 Cd36 2.385 . S
O35 C40 1.255 . S
Cd36 O35 2.385 . S
Cd36 O37 2.317 . S
O37 Cd36 2.317 . S
O37 C38 1.232 . S
C38 O37 1.232 . S
C38 O39 1.218 . S
O39 C38 1.218 . S
C40 O33 1.275 . S
C40 O35 1.255 . S
C41 O42 1.258 . S
C41 O43 1.256 . S
O42 Cd34 2.381 . S
O42 C41 1.258 . S
O43 Cd34 2.378 . S
O43 C41 1.256 . S
O44 Cd45 2.300 . S
O44 C51 1.275 . S
Cd45 O44 2.300 . S
Cd45 O53 2.381 . S
Cd45 O54 2.378 . S
O46 Cd47 2.385 1_554 S
O46 C51 1.255 . S
Cd47 O46 2.385 1_556 S
Cd47 O48 2.317 . S
O48 Cd47 2.317 . S
O48 C49 1.232 . S
C49 O48 1.232 . S
C49 O50 1.218 . S
O50 C49 1.218 . S
C51 O44 1.275 . S
C51 O46 1.255 . S
C52 O53 1.258 . S
C52 O54 1.256 . S
O53 Cd45 2.381 . S
O53 C52 1.258 . S
O54 Cd45 2.378 . S
O54 C52 1.256 . S
O55 Cd56 2.300 . S
O55 C62 1.275 . S
Cd56 O55 2.300 . S
Cd56 O64 2.381 . S
Cd56 O65 2.378 . S
O57 Cd58 2.385 1_554 S
O57 C62 1.255 . S
Cd58 O57 2.385 1_556 S
Cd58 O59 2.317 . S
O59 Cd58 2.317 . S
O59 C60 1.232 . S
C60 O59 1.232 . S
C60 O61 1.218 . S
O61 C60 1.218 . S
C62 O55 1.275 . S
C62 O57 1.255 . S
C63 O64 1.258 . S
C63 O65 1.256 . S
O64 Cd56 2.381 . S
O64 C63 1.258 . S
O65 Cd56 2.378 . S
O65 C63 1.256 . S
O66 Cd67 2.300 . S
O66 C73 1.275 . S
Cd67 O66 2.300 . S
Cd67 O75 2.381 . S
Cd67 O76 2.378 . S
O68 Cd69 2.385 1_554 S
O68 C73 1.255 . S
Cd69 O68 2.385 1_556 S
Cd69 O70 2.317 . S
O70 Cd69 2.317 . S
O70 C71 1.232 . S
C71 O70 1.232 . S
C71 O72 1.218 . S
O72 C71 1.218 . S
C73 O66 1.275 . S
C73 O68 1.255 . S
C74 O75 1.258 . S
C74 O76 1.256 . S
O75 Cd67 2.381 . S
O75 C74 1.258 . S
O76 Cd67 2.378 . S
O76 C74 1.256 . S
O77 Cd78 2.300 . S
O77 C84 1.275 . S
Cd78 O77 2.300 . S
Cd78 O86 2.381 . S
Cd78 O87 2.378 . S
O79 Cd80 2.385 1_554 S
O79 C84 1.255 . S
Cd80 O79 2.385 1_556 S
Cd80 O81 2.317 . S
O81 Cd80 2.317 . S
O81 C82 1.232 . S
C82 O81 1.232 . S
C82 O83 1.218 . S
O83 C82 1.218 . S
C84 O77 1.275 . S
C84 O79 1.255 . S
C85 O86 1.258 . S
C85 O87 1.256 . S
O86 Cd78 2.381 . S
O86 C85 1.258 . S
O87 Cd78 2.378 . S
O87 C85 1.256 . S
Tb88 N119 2.660 1_565 S
Tb88 N126 2.605 . S
Tb88 O132 2.546 . S
Tb88 O133 2.610 1_455 S
Tb88 O135 2.320 1_455 S
Tb88 O136 2.552 . S
Tb88 O137 2.413 . S
Tb88 O139 2.362 1_565 S
Tb88 O140 2.421 . S
Tb88 C152 2.833 . S
C89 C92 1.432 1_545 S
C89 C93 1.414 . S
C89 N96 1.359 . S
C90 C92 1.417 . S
C90 C94 1.432 . S
C90 C102 1.410 . S
C91 C93 1.444 1_565 S
C91 C94 1.317 . S
C91 H114 0.929 . S
C92 C89 1.432 1_565 S
C92 C90 1.417 . S
C92 N100 1.360 1_565 S
C93 C89 1.414 . S
C93 C91 1.444 1_545 S
C93 C98 1.385 . S
C94 C90 1.432 . S
C94 C91 1.317 . S
C94 H106 0.930 . S
C95 C97 1.392 . S
C95 C98 1.370 . S
C95 H107 0.931 . S
N96 C89 1.359 . S
N96 C97 1.327 . S
N96 Tb99 2.600 . S
C97 C95 1.392 . S
C97 N96 1.327 . S
C97 H104 0.930 . S
C98 C93 1.385 . S
C98 C95 1.370 . S
C98 H117 0.930 . S
Tb99 N96 2.600 . S
Tb99 N100 2.660 . S
Tb99 O133 2.362 1_545 S
Tb99 O134 2.421 . S
Tb99 O138 2.546 . S
Tb99 O139 2.610 1_655 S
Tb99 O141 2.320 1_655 S
Tb99 O142 2.552 1_655 S
Tb99 O143 2.413 . S
Tb99 C163 2.833 . S
N100 C92 1.360 1_545 S
N100 Tb99 2.660 . S
N100 C101 1.305 1_645 S
C101 N100 1.305 1_465 S
C101 C103 1.407 . S
C101 H108 0.930 . S
C102 C90 1.410 . S
C102 C103 1.345 1_655 S
C102 H110 0.930 . S
C103 C101 1.407 . S
C103 C102 1.345 1_455 S
C103 H105 0.930 . S
H104 C97 0.930 . S
H105 C103 0.930 . S
H106 C94 0.930 . S
H107 C95 0.931 . S
H108 C101 0.930 . S
H109 C123 0.930 1_655 S
H110 C102 0.930 . S
H111 C129 0.930 . S
H112 C120 0.930 1_655 S
H113 C127 0.931 . S
H114 C91 0.929 . S
H115 C121 0.930 1_554 S
H116 C154 0.930 1_554 S
H117 C98 0.930 . S
H118 C153 0.929 . S
N119 Tb88 2.660 1_545 S
N119 C120 1.305 . S
N119 C124 1.360 . S
C120 H112 0.930 1_455 S
C120 N119 1.305 . S
C120 C123 1.407 . S
C121 H115 0.930 1_556 S
C121 C122 1.410 . S
C121 C123 1.345 . S
C122 C121 1.410 . S
C122 C124 1.417 . S
C122 C154 1.432 . S
C123 H109 0.930 1_455 S
C123 C120 1.407 . S
C123 C121 1.345 . S
C124 N119 1.360 . S
C124 C122 1.417 . S
C124 C128 1.432 . S
H125 C130 0.930 . S
N126 Tb88 2.605 . S
N126 C128 1.347 1_565 S
N126 C129 1.337 . S
C127 H113 0.931 . S
C127 C129 1.392 . S
C127 C130 1.370 1_565 S
C128 C124 1.432 . S
C128 N126 1.347 1_545 S
C128 C131 1.414 . S
C129 H111 0.930 . S
C129 N126 1.337 . S
C129 C127 1.392 . S
C130 H125 0.930 . S
C130 C127 1.370 1_545 S
C130 C131 1.385 . S
C131 C128 1.414 . S
C131 C130 1.385 . S
C131 C153 1.444 . S
O132 Tb88 2.546 . S
O132 C152 1.251 . S
O133 Tb88 2.610 1_655 S
O133 Tb99 2.362 1_565 S
O133 C144 1.283 . S
O134 Tb99 2.421 . S
O134 C151 1.262 . S
O135 Tb88 2.320 1_655 S
O135 C151 1.260 1_565 S
O136 Tb88 2.552 . S
O136 C144 1.243 1_455 S
O137 Tb88 2.413 . S
O137 C152 1.256 . S
O138 Tb99 2.546 . S
O138 C163 1.251 . S
O139 Tb88 2.362 1_545 S
O139 Tb99 2.610 1_455 S
O139 C155 1.283 . S
O140 Tb88 2.421 . S
O140 C162 1.262 1_565 S
O141 Tb99 2.320 1_455 S
O141 C162 1.260 . S
O142 Tb99 2.552 1_455 S
O142 C155 1.243 . S
O143 Tb99 2.413 . S
O143 C163 1.256 . S
C144 O133 1.283 . S
C144 O136 1.243 1_655 S
C145 C147 1.382 . S
C145 C149 1.393 . S
C145 C152 1.500 . S
C146 C147 1.400 . S
C146 C148 1.384 . S
C147 C145 1.382 . S
C147 C146 1.400 . S
C147 H164 0.930 1_455 S
C148 C146 1.384 . S
C148 C150 1.392 . S
C148 H165 0.931 . S
C149 C145 1.393 . S
C149 C150 1.401 . S
C149 H166 0.930 . S
C150 C148 1.392 . S
C150 C149 1.401 . S
C150 H167 0.930 . S
C151 O134 1.262 . S
C151 O135 1.260 1_545 S
C152 Tb88 2.833 . S
C152 O132 1.251 . S
C152 O137 1.256 . S
C152 C145 1.500 . S
C153 H118 0.929 . S
C153 C131 1.444 . S
C153 C154 1.317 . S
C154 H116 0.930 1_556 S
C154 C122 1.432 . S
C154 C153 1.317 . S
C155 O139 1.283 . S
C155 O142 1.243 . S
C156 C157 1.382 . S
C156 C160 1.393 . S
C156 C163 1.500 . S
C157 C156 1.382 . S
C157 C158 1.400 . S
C157 H168 0.930 1_655 S
C158 C157 1.400 . S
C158 C159 1.384 . S
C159 C158 1.384 . S
C159 C161 1.392 . S
C159 H169 0.931 . S
C160 C156 1.393 . S
C160 C161 1.401 . S
C160 H170 0.930 . S
C161 C159 1.392 . S
C161 C160 1.401 . S
C161 H171 0.930 . S
C162 O140 1.262 1_545 S
C162 O141 1.260 . S
C163 Tb99 2.833 . S
C163 O138 1.251 . S
C163 O143 1.256 . S
C163 C156 1.500 . S
H164 C147 0.930 1_655 S
H165 C148 0.931 . S
H166 C149 0.930 . S
H167 C150 0.930 . S
H168 C157 0.930 1_455 S
H169 C159 0.931 . S
H170 C160 0.930 . S
H171 C161 0.930 . S
Tb172 N203 2.660 . S
Tb172 N210 2.600 . S
Tb172 O216 2.546 . S
Tb172 O217 2.610 1_545 S
Tb172 O219 2.320 1_545 S
Tb172 O220 2.552 . S
Tb172 O221 2.413 . S
Tb172 O223 2.362 . S
Tb172 O224 2.421 . S
Tb172 C236 2.833 . S
C173 C176 1.432 . S
C173 C177 1.414 . S
C173 N180 1.359 . S
C174 C176 1.417 . S
C174 C178 1.432 . S
C174 C186 1.410 . S
C175 C177 1.444 . S
C175 C178 1.317 . S
C175 H198 0.929 . S
C176 C173 1.432 . S
C176 C174 1.417 . S
C176 N184 1.360 . S
C177 C173 1.414 . S
C177 C175 1.444 . S
C177 C182 1.385 . S
C178 C174 1.432 . S
C178 C175 1.317 . S
C178 H190 0.930 . S
C179 C181 1.392 . S
C179 C182 1.370 . S
C179 H191 0.931 . S
N180 C173 1.359 . S
N180 C181 1.327 . S
N180 Tb183 2.600 . S
C181 C179 1.392 . S
C181 N180 1.327 . S
C181 H188 0.930 . S
C182 C177 1.385 . S
C182 C179 1.370 . S
C182 H201 0.930 . S
Tb183 N180 2.600 . S
Tb183 N184 2.660 . S
Tb183 O217 2.362 . S
Tb183 O218 2.421 . S
Tb183 O222 2.546 . S
Tb183 O223 2.610 1_565 S
Tb183 O225 2.320 1_565 S
Tb183 O226 2.552 1_565 S
Tb183 O227 2.413 . S
Tb183 C247 2.833 . S
N184 C176 1.360 . S
N184 Tb183 2.660 . S
N184 C185 1.305 1_565 S
C185 N184 1.305 1_545 S
C185 C187 1.407 . S
C185 H192 0.930 . S
C186 C174 1.410 . S
C186 C187 1.345 1_565 S
C186 H194 0.930 . S
C187 C185 1.407 . S
C187 C186 1.345 1_545 S
C187 H189 0.930 . S
H188 C181 0.930 . S
H189 C187 0.930 . S
H190 C178 0.930 . S
H191 C179 0.931 . S
H192 C185 0.930 . S
H193 C207 0.930 1_565 S
H194 C186 0.930 . S
H195 C213 0.930 . S
H196 C204 0.930 1_565 S
H197 C211 0.931 . S
H198 C175 0.929 . S
H199 C205 0.930 1_554 S
H200 C238 0.930 1_554 S
H201 C182 0.930 . S
H202 C237 0.929 . S
N203 Tb172 2.660 . S
N203 C204 1.305 . S
N203 C208 1.360 . S
C204 H196 0.930 1_545 S
C204 N203 1.305 . S
C204 C207 1.407 . S
C205 H199 0.930 1_556 S
C205 C206 1.410 . S
C205 C207 1.345 . S
C206 C205 1.410 . S
C206 C208 1.417 . S
C206 C238 1.432 . S
C207 H193 0.930 1_545 S
C207 C204 1.407 . S
C207 C205 1.345 . S
C208 N203 1.360 . S
C208 C206 1.417 . S
C208 C212 1.432 . S
H209 C214 0.930 . S
N210 Tb172 2.600 . S
N210 C212 1.359 . S
N210 C213 1.327 . S
C211 H197 0.931 . S
C211 C213 1.392 . S
C211 C214 1.370 . S
C212 C208 1.432 . S
C212 N210 1.359 . S
C212 C215 1.414 . S
C213 H195 0.930 . S
C213 N210 1.327 . S
C213 C211 1.392 . S
C214 H209 0.930 . S
C214 C211 1.370 . S
C214 C215 1.385 . S
C215 C212 1.414 . S
C215 C214 1.385 . S
C215 C237 1.444 . S
O216 Tb172 2.546 . S
O216 C236 1.251 . S
O217 Tb172 2.610 1_565 S
O217 Tb183 2.362 . S
O217 C228 1.283 . S
O218 Tb183 2.421 . S
O218 C235 1.262 . S
O219 Tb172 2.320 1_565 S
O219 C235 1.260 . S
O220 Tb172 2.552 . S
O220 C228 1.243 1_545 S
O221 Tb172 2.413 . S
O221 C236 1.256 . S
O222 Tb183 2.546 . S
O222 C247 1.251 . S
O223 Tb172 2.362 . S
O223 Tb183 2.610 1_545 S
O223 C239 1.283 . S
O224 Tb172 2.421 . S
O224 C246 1.262 . S
O225 Tb183 2.320 1_545 S
O225 C246 1.260 . S
O226 Tb183 2.552 1_545 S
O226 C239 1.243 . S
O227 Tb183 2.413 . S
O227 C247 1.254 . S
C228 O217 1.283 . S
C228 O220 1.243 1_565 S
C229 C231 1.382 . S
C229 C233 1.393 . S
C229 C236 1.500 . S
C230 C231 1.400 . S
C230 C232 1.384 . S
C231 C229 1.382 . S
C231 C230 1.400 . S
C231 H248 0.930 . S
C232 C230 1.384 . S
C232 C234 1.392 . S
C232 H249 0.931 . S
C233 C229 1.393 . S
C233 C234 1.401 . S
C233 H250 0.930 . S
C234 C232 1.392 . S
C234 C233 1.401 . S
C234 H251 0.930 . S
C235 O218 1.262 . S
C235 O219 1.260 . S
C236 Tb172 2.833 . S
C236 O216 1.251 . S
C236 O221 1.256 . S
C236 C229 1.500 . S
C237 H202 0.929 . S
C237 C215 1.444 . S
C237 C238 1.317 . S
C238 H200 0.930 1_556 S
C238 C206 1.432 . S
C238 C237 1.317 . S
C239 O223 1.283 . S
C239 O226 1.243 . S
C240 C241 1.394 . S
C240 C244 1.393 . S
C240 C247 1.500 . S
C241 C240 1.394 . S
C241 C242 1.401 . S
C241 H252 0.917 1_565 S
C242 C241 1.401 . S
C242 C243 1.384 . S
C243 C242 1.384 . S
C243 C245 1.392 . S
C243 H253 0.931 . S
C244 C240 1.393 . S
C244 C245 1.401 . S
C244 H254 0.930 . S
C245 C243 1.392 . S
C245 C244 1.401 . S
C245 H255 0.930 . S
C246 O224 1.262 . S
C246 O225 1.260 . S
C247 Tb183 2.833 . S
C247 O222 1.251 . S
C247 O227 1.254 . S
C247 C240 1.500 . S
H248 C231 0.930 . S
H249 C232 0.931 . S
H250 C233 0.930 . S
H251 C234 0.930 . S
H252 C241 0.917 1_545 S
H253 C243 0.931 . S
H254 C244 0.930 . S
H255 C245 0.930 . S
Tb256 N287 2.660 . S
Tb256 N294 2.600 . S
Tb256 O300 2.546 . S
Tb256 O301 2.610 . S
Tb256 O303 2.320 . S
Tb256 O304 2.552 . S
Tb256 O305 2.413 . S
Tb256 O307 2.362 . S
Tb256 O308 2.421 . S
Tb256 C320 2.833 . S
C257 C260 1.432 . S
C257 C261 1.414 . S
C257 N264 1.359 . S
C258 C260 1.417 . S
C258 C262 1.432 . S
C258 C270 1.410 . S
C259 C261 1.444 . S
C259 C262 1.317 . S
C259 H282 0.929 . S
C260 C257 1.432 . S
C260 C258 1.417 . S
C260 N268 1.360 . S
C261 C257 1.414 . S
C261 C259 1.444 . S
C261 C266 1.385 . S
C262 C258 1.432 . S
C262 C259 1.317 . S
C262 H274 0.930 . S
C263 C265 1.392 . S
C263 C266 1.370 . S
C263 H275 0.931 . S
N264 C257 1.359 . S
N264 C265 1.327 . S
N264 Tb267 2.600 . S
C265 C263 1.392 . S
C265 N264 1.327 . S
C265 H272 0.930 . S
C266 C261 1.385 . S
C266 C263 1.370 . S
C266 H285 0.930 . S
Tb267 N264 2.600 . S
Tb267 N268 2.660 . S
Tb267 O301 2.362 . S
Tb267 O302 2.421 . S
Tb267 O306 2.546 . S
Tb267 O307 2.610 . S
Tb267 O309 2.320 . S
Tb267 O310 2.552 . S
Tb267 O311 2.413 . S
Tb267 C331 2.833 . S
N268 C260 1.360 . S
N268 Tb267 2.660 . S
N268 C269 1.305 . S
C269 N268 1.305 . S
C269 C271 1.407 . S
C269 H276 0.930 . S
C270 C258 1.410 . S
C270 C271 1.345 . S
C270 H278 0.930 . S
C271 C269 1.407 . S
C271 C270 1.345 . S
C271 H273 0.930 . S
H272 C265 0.930 . S
H273 C271 0.930 . S
H274 C262 0.930 . S
H275 C263 0.931 . S
H276 C269 0.930 . S
H277 C291 0.930 . S
H278 C270 0.930 . S
H279 C297 0.930 . S
H280 C288 0.930 . S
H281 C295 0.931 . S
H282 C259 0.929 . S
H283 C289 0.930 . S
H284 C322 0.930 . S
H285 C266 0.930 . S
H286 C321 0.929 . S
N287 Tb256 2.660 . S
N287 C288 1.305 . S
N287 C292 1.360 . S
C288 H280 0.930 . S
C288 N287 1.305 . S
C288 C291 1.407 . S
C289 H283 0.930 . S
C289 C290 1.410 . S
C289 C291 1.345 . S
C290 C289 1.410 . S
C290 C292 1.417 . S
C290 C322 1.432 . S
C291 H277 0.930 . S
C291 C288 1.407 . S
C291 C289 1.345 . S
C292 N287 1.360 . S
C292 C290 1.417 . S
C292 C296 1.432 . S
H293 C298 0.930 . S
N294 Tb256 2.600 . S
N294 C296 1.359 . S
N294 C297 1.327 . S
C295 H281 0.931 . S
C295 C297 1.392 . S
C295 C298 1.370 . S
C296 C292 1.432 . S
C296 N294 1.359 . S
C296 C299 1.414 . S
C297 H279 0.930 . S
C297 N294 1.327 . S
C297 C295 1.392 . S
C298 H293 0.930 . S
C298 C295 1.370 . S
C298 C299 1.385 . S
C299 C296 1.414 . S
C299 C298 1.385 . S
C299 C321 1.444 . S
O300 Tb256 2.546 . S
O300 C320 1.251 . S
O301 Tb256 2.610 . S
O301 Tb267 2.362 . S
O301 C312 1.283 . S
O302 Tb267 2.421 . S
O302 C319 1.262 . S
O303 Tb256 2.320 . S
O303 C319 1.260 . S
O304 Tb256 2.552 . S
O304 C312 1.243 . S
O305 Tb256 2.413 . S
O305 C320 1.256 . S
O306 Tb267 2.546 . S
O306 C331 1.251 . S
O307 Tb256 2.362 . S
O307 Tb267 2.610 . S
O307 C323 1.283 . S
O308 Tb256 2.421 . S
O308 C330 1.262 . S
O309 Tb267 2.320 . S
O309 C330 1.260 . S
O310 Tb267 2.552 . S
O310 C323 1.243 . S
O311 Tb267 2.413 . S
O311 C331 1.256 . S
C312 O301 1.283 . S
C312 O304 1.243 . S
C313 C315 1.382 . S
C313 C317 1.393 . S
C313 C320 1.500 . S
C314 C315 1.400 . S
C314 C316 1.384 . S
C315 C313 1.382 . S
C315 C314 1.400 . S
C315 H332 0.930 . S
C316 C314 1.384 . S
C316 C318 1.392 . S
C316 H333 0.931 . S
C317 C313 1.393 . S
C317 C318 1.401 . S
C317 H334 0.930 . S
C318 C316 1.392 . S
C318 C317 1.401 . S
C318 H335 0.930 . S
C319 O302 1.262 . S
C319 O303 1.260 . S
C320 Tb256 2.833 . S
C320 O300 1.251 . S
C320 O305 1.256 . S
C320 C313 1.500 . S
C321 H286 0.929 . S
C321 C299 1.444 . S
C321 C322 1.317 . S
C322 H284 0.930 . S
C322 C290 1.432 . S
C322 C321 1.317 . S
C323 O307 1.283 . S
C323 O310 1.243 . S
C324 C325 1.382 . S
C324 C328 1.393 . S
C324 C331 1.500 . S
C325 C324 1.382 . S
C325 C326 1.400 . S
C325 H336 0.930 . S
C326 C325 1.400 . S
C326 C327 1.384 1_556 S
C327 C326 1.384 1_554 S
C327 C329 1.392 . S
C327 H337 0.931 . S
C328 C324 1.393 . S
C328 C329 1.401 1_556 S
C328 H338 0.930 . S
C329 C327 1.392 . S
C329 C328 1.401 1_554 S
C329 H339 0.930 . S
C330 O308 1.262 . S
C330 O309 1.260 . S
C331 Tb267 2.833 . S
C331 O306 1.251 . S
C331 O311 1.256 . S
C331 C324 1.500 . S
H332 C315 0.930 . S
H333 C316 0.931 . S
H334 C317 0.930 . S
H335 C318 0.930 . S
H336 C325 0.930 . S
H337 C327 0.931 . S
H338 C328 0.930 . S
H339 C329 0.930 . S
Tb340 N371 2.660 . S
Tb340 N378 2.600 . S
Tb340 O384 2.546 . S
Tb340 O385 2.610 . S
Tb340 O387 2.320 . S
Tb340 O388 2.552 . S
Tb340 O389 2.413 . S
Tb340 O391 2.362 . S
Tb340 O392 2.421 1_455 S
Tb340 C404 2.833 . S
C341 C344 1.432 . S
C341 C345 1.414 . S
C341 N348 1.359 . S
C342 C344 1.417 . S
C342 C346 1.432 . S
C342 C354 1.410 . S
C343 C345 1.444 . S
C343 C346 1.317 . S
C343 H366 0.929 . S
C344 C341 1.432 . S
C344 C342 1.417 . S
C344 N352 1.360 . S
C345 C341 1.414 . S
C345 C343 1.444 . S
C345 C350 1.382 1_655 S
C346 C342 1.432 . S
C346 C343 1.317 . S
C346 H358 0.930 . S
C347 C349 1.392 . S
C347 C350 1.372 . S
C347 H359 0.931 . S
N348 C341 1.359 . S
N348 C349 1.327 1_655 S
N348 Tb351 2.600 . S
C349 C347 1.392 . S
C349 N348 1.327 1_455 S
C349 H356 0.930 . S
C350 C345 1.382 1_455 S
C350 C347 1.372 . S
C350 H369 0.930 . S
Tb351 N348 2.600 . S
Tb351 N352 2.660 . S
Tb351 O385 2.362 1_655 S
Tb351 O386 2.421 1_655 S
Tb351 O390 2.546 . S
Tb351 O391 2.610 1_655 S
Tb351 O393 2.320 . S
Tb351 O394 2.552 . S
Tb351 O395 2.413 . S
Tb351 C415 2.833 . S
N352 C344 1.360 . S
N352 Tb351 2.660 . S
N352 C353 1.305 . S
C353 N352 1.305 . S
C353 C355 1.407 . S
C353 H360 0.930 . S
C354 C342 1.410 . S
C354 C355 1.345 . S
C354 H362 0.930 . S
C355 C353 1.407 . S
C355 C354 1.345 . S
C355 H357 0.930 . S
H356 C349 0.930 . S
H357 C355 0.930 . S
H358 C346 0.930 . S
H359 C347 0.931 . S
H360 C353 0.930 . S
H361 C375 0.930 . S
H362 C354 0.930 . S
H363 C381 0.930 1_655 S
H364 C372 0.930 . S
H365 C379 0.928 1_655 S
H366 C343 0.929 . S
H367 C373 0.930 . S
H368 C406 0.930 . S
H369 C350 0.930 . S
H370 C405 0.929 . S
N371 Tb340 2.660 . S
N371 C372 1.305 . S
N371 C376 1.360 . S
C372 H364 0.930 . S
C372 N371 1.305 . S
C372 C375 1.407 . S
C373 H367 0.930 . S
C373 C374 1.410 . S
C373 C375 1.345 . S
C374 C373 1.410 . S
C374 C376 1.417 . S
C374 C406 1.432 . S
C375 H361 0.930 . S
C375 C372 1.407 . S
C375 C373 1.345 . S
C376 N371 1.360 . S
C376 C374 1.417 . S
C376 C380 1.432 . S
H377 C382 0.930 . S
N378 Tb340 2.600 . S
N378 C380 1.359 . S
N378 C381 1.327 . S
C379 H365 0.928 1_455 S
C379 C381 1.393 . S
C379 C382 1.372 . S
C380 C376 1.432 . S
C380 N378 1.359 . S
C380 C383 1.414 . S
C381 H363 0.930 1_455 S
C381 N378 1.327 . S
C381 C379 1.393 . S
C382 H377 0.930 . S
C382 C379 1.372 . S
C382 C383 1.385 . S
C383 C380 1.414 . S
C383 C382 1.385 . S
C383 C405 1.444 . S
O384 Tb340 2.546 . S
O384 C404 1.251 . S
O385 Tb340 2.610 . S
O385 Tb351 2.362 1_455 S
O385 C396 1.283 . S
O386 Tb351 2.421 1_455 S
O386 C403 1.262 . S
O387 Tb340 2.320 . S
O387 C403 1.260 . S
O388 Tb340 2.552 . S
O388 C396 1.243 . S
O389 Tb340 2.413 . S
O389 C404 1.256 . S
O390 Tb351 2.546 . S
O390 C415 1.251 . S
O391 Tb340 2.362 . S
O391 Tb351 2.610 1_455 S
O391 C407 1.283 1_455 S
O392 Tb340 2.421 1_655 S
O392 C414 1.262 . S
O393 Tb351 2.320 . S
O393 C414 1.260 . S
O394 Tb351 2.552 . S
O394 C407 1.243 . S
O395 Tb351 2.413 . S
O395 C415 1.256 . S
C396 O385 1.283 . S
C396 O388 1.243 . S
C397 C399 1.382 . S
C397 C401 1.393 . S
C397 C404 1.500 . S
C398 C399 1.400 . S
C398 C400 1.384 . S
C399 C397 1.382 . S
C399 C398 1.400 . S
C399 H416 0.930 . S
C400 C398 1.384 . S
C400 C402 1.392 . S
C400 H417 0.931 . S
C401 C397 1.393 . S
C401 C402 1.401 . S
C401 H418 0.930 . S
C402 C400 1.392 . S
C402 C401 1.401 . S
C402 H419 0.930 . S
C403 O386 1.262 . S
C403 O387 1.260 . S
C404 Tb340 2.833 . S
C404 O384 1.251 . S
C404 O389 1.256 . S
C404 C397 1.500 . S
C405 H370 0.929 . S
C405 C383 1.444 . S
C405 C406 1.317 . S
C406 H368 0.930 . S
C406 C374 1.432 . S
C406 C405 1.317 . S
C407 O391 1.283 1_655 S
C407 O394 1.243 . S
C408 C409 1.382 . S
C408 C412 1.393 . S
C408 C415 1.500 . S
C409 C408 1.382 . S
C409 C410 1.400 . S
C409 H420 0.930 . S
C410 C409 1.400 . S
C410 C411 1.384 1_556 S
C411 C410 1.384 1_554 S
C411 C413 1.392 . S
C411 H421 0.931 . S
C412 C408 1.393 . S
C412 C413 1.401 1_556 S
C412 H422 0.930 . S
C413 C411 1.392 . S
C413 C412 1.401 1_554 S
C413 H423 0.930 . S
C414 O392 1.262 . S
C414 O393 1.260 . S
C415 Tb351 2.833 . S
C415 O390 1.251 . S
C415 O395 1.256 . S
C415 C408 1.500 . S
H416 C399 0.930 . S
H417 C400 0.931 . S
H418 C401 0.930 . S
H419 C402 0.930 . S
H420 C409 0.930 . S
H421 C411 0.931 . S
H422 C412 0.930 . S
H423 C413 0.930 . S
H424 C436 0.930 . S
H425 C438 0.930 . S
H426 C439 0.930 . S
H427 C443 0.959 . S
H428 C443 0.959 . S
H429 C443 0.961 . S
H430 C444 0.960 . S
H431 C444 0.961 . S
H432 C444 0.959 . S
H433 C447 0.929 . S
H434 C448 0.931 . S
H435 C450 0.930 . S
C436 H424 0.930 . S
C436 C437 1.399 . S
C436 C441 1.399 . S
C437 C436 1.399 . S
C437 C438 1.376 . S
C438 H425 0.930 . S
C438 C437 1.376 . S
C438 C439 1.388 . S
C439 H426 0.930 . S
C439 C438 1.388 . S
C439 C440 1.390 . S
C440 C439 1.390 . S
C440 C441 1.394 . S
C440 C446 1.465 . S
C441 C436 1.399 . S
C441 C440 1.394 . S
C441 C442 1.516 . S
C442 C441 1.516 . S
C442 C443 1.502 . S
C442 C444 1.561 . S
C442 C445 1.526 . S
C443 H427 0.959 . S
C443 H428 0.959 . S
C443 H429 0.961 . S
C443 C442 1.502 . S
C444 H430 0.960 . S
C444 H431 0.961 . S
C444 H432 0.959 . S
C444 C442 1.561 . S
C445 C442 1.526 . S
C445 C446 1.396 . S
C445 C450 1.390 . S
C446 C440 1.465 . S
C446 C445 1.396 . S
C446 C447 1.399 . S
C447 H433 0.929 . S
C447 C446 1.399 . S
C447 C448 1.385 . S
C448 H434 0.931 . S
C448 C447 1.385 . S
C448 C449 1.389 . S
C449 C448 1.389 . S
C449 C450 1.387 . S
C450 H435 0.930 . S
C450 C445 1.390 . S
C450 C449 1.387 . S
H451 C463 0.930 . S
H452 C465 0.930 . S
H453 C466 0.930 . S
H454 C470 0.959 . S
H455 C470 0.959 . S
H456 C470 0.961 . S
H457 C471 0.960 . S
H458 C471 0.961 . S
H459 C471 0.959 . S
H460 C474 0.929 . S
H461 C475 0.931 . S
H462 C477 0.930 . S
C463 H451 0.930 . S
C463 C464 1.399 . S
C463 C468 1.399 . S
C464 C463 1.399 . S
C464 C465 1.376 . S
C465 H452 0.930 . S
C465 C464 1.376 . S
C465 C466 1.388 . S
C466 H453 0.930 . S
C466 C465 1.388 . S
C466 C467 1.390 . S
C467 C466 1.390 . S
C467 C468 1.394 . S
C467 C473 1.465 . S
C468 C463 1.399 . S
C468 C467 1.394 . S
C468 C469 1.516 . S
C469 C468 1.516 . S
C469 C470 1.502 . S
C469 C471 1.561 . S
C469 C472 1.526 . S
C470 H454 0.959 . S
C470 H455 0.959 . S
C470 H456 0.961 . S
C470 C469 1.502 . S
C471 H457 0.960 . S
C471 H458 0.961 . S
C471 H459 0.959 . S
C471 C469 1.561 . S
C472 C469 1.526 . S
C472 C473 1.396 . S
C472 C477 1.390 . S
C473 C467 1.465 . S
C473 C472 1.396 . S
C473 C474 1.399 . S
C474 H460 0.929 . S
C474 C473 1.399 . S
C474 C475 1.385 . S
C475 H461 0.931 . S
C475 C474 1.385 . S
C475 C476 1.389 . S
C476 C475 1.389 . S
C476 C477 1.387 . S
C477 H462 0.930 . S
C477 C472 1.390 . S
C477 C476 1.387 . S
H478 C490 0.930 . S
H479 C492 0.930 . S
H480 C493 0.930 . S
H481 C497 0.959 . S
H482 C497 0.959 . S
H483 C497 0.961 . S
H484 C498 0.960 . S
H485 C498 0.961 . S
H486 C498 0.959 . S
H487 C501 0.929 . S
H488 C502 0.931 . S
H489 C504 0.930 . S
C490 H478 0.930 . S
C490 C491 1.399 . S
C490 C495 1.399 . S
C491 C490 1.399 . S
C491 C492 1.376 . S
C492 H479 0.930 . S
C492 C491 1.376 . S
C492 C493 1.388 . S
C493 H480 0.930 . S
C493 C492 1.388 . S
C493 C494 1.390 . S
C494 C493 1.390 . S
C494 C495 1.394 . S
C494 C500 1.465 . S
C495 C490 1.399 . S
C495 C494 1.394 . S
C495 C496 1.516 . S
C496 C495 1.516 . S
C496 C497 1.502 . S
C496 C498 1.561 . S
C496 C499 1.526 . S
C497 H481 0.959 . S
C497 H482 0.959 . S
C497 H483 0.961 . S
C497 C496 1.502 . S
C498 H484 0.960 . S
C498 H485 0.961 . S
C498 H486 0.959 . S
C498 C496 1.561 . S
C499 C496 1.526 . S
C499 C500 1.396 . S
C499 C504 1.390 . S
C500 C494 1.465 . S
C500 C499 1.396 . S
C500 C501 1.399 . S
C501 H487 0.929 . S
C501 C500 1.399 . S
C501 C502 1.385 . S
C502 H488 0.931 . S
C502 C501 1.385 . S
C502 C503 1.389 . S
C503 C502 1.389 . S
C503 C504 1.387 . S
C504 H489 0.930 . S
C504 C499 1.390 . S
C504 C503 1.387 . S
H505 C517 0.930 . S
H506 C519 0.930 . S
H507 C520 0.930 . S
H508 C524 0.959 1_655 S
H509 C524 0.959 1_655 S
H510 C524 0.961 . S
H511 C525 0.960 . S
H512 C525 0.961 . S
H513 C525 0.959 . S
H514 C528 0.929 . S
H515 C529 0.931 . S
H516 C531 0.930 . S
C517 H505 0.930 . S
C517 C518 1.399 . S
C517 C522 1.399 . S
C518 C517 1.399 . S
C518 C519 1.376 . S
C519 H506 0.930 . S
C519 C518 1.376 . S
C519 C520 1.388 . S
C520 H507 0.930 . S
C520 C519 1.388 . S
C520 C521 1.390 . S
C521 C520 1.390 . S
C521 C522 1.394 . S
C521 C527 1.465 . S
C522 C517 1.399 . S
C522 C521 1.394 . S
C522 C523 1.516 . S
C523 C522 1.516 . S
C523 C524 1.502 . S
C523 C525 1.561 . S
C523 C526 1.526 . S
C524 H508 0.959 1_455 S
C524 H509 0.959 1_455 S
C524 H510 0.961 . S
C524 C523 1.502 . S
C525 H511 0.960 . S
C525 H512 0.961 . S
C525 H513 0.959 . S
C525 C523 1.561 . S
C526 C523 1.526 . S
C526 C527 1.396 . S
C526 C531 1.390 . S
C527 C521 1.465 . S
C527 C526 1.396 . S
C527 C528 1.399 . S
C528 H514 0.929 . S
C528 C527 1.399 . S
C528 C529 1.385 . S
C529 H515 0.931 . S
C529 C528 1.385 . S
C529 C530 1.389 . S
C530 C529 1.389 . S
C530 C531 1.387 . S
C531 H516 0.930 . S
C531 C526 1.390 . S
C531 C530 1.387 . S
H532 C544 0.930 . S
H533 C546 0.930 . S
H534 C547 0.930 . S
H535 C551 0.959 . S
H536 C551 0.959 . S
H537 C551 0.961 . S
H538 C552 0.960 . S
H539 C552 0.961 1_556 S
H540 C552 0.992 . S
H541 C555 0.929 . S
H542 C556 0.931 . S
H543 C558 0.930 . S
C544 H532 0.930 . S
C544 C545 1.399 . S
C544 C549 1.399 1_554 S
C545 C544 1.399 . S
C545 C546 1.376 . S
C546 H533 0.930 . S
C546 C545 1.376 . S
C546 C547 1.388 1_554 S
C547 H534 0.930 . S
C547 C546 1.388 1_556 S
C547 C548 1.390 . S
C548 C547 1.390 . S
C548 C549 1.394 . S
C548 C554 1.465 . S
C549 C544 1.399 1_556 S
C549 C548 1.394 . S
C549 C550 1.516 1_565 S
C550 C549 1.516 1_545 S
C550 C551 1.502 . S
C550 C552 1.561 1_556 S
C550 C553 1.526 1_545 S
C551 H535 0.959 . S
C551 H536 0.959 . S
C551 H537 0.961 . S
C551 C550 1.502 . S
C552 H538 0.960 . S
C552 H539 0.961 1_554 S
C552 H540 0.992 . S
C552 C550 1.561 1_554 S
C553 C550 1.526 1_565 S
C553 C554 1.396 . S
C553 C558 1.390 1_565 S
C554 C548 1.465 . S
C554 C553 1.396 . S
C554 C555 1.399 . S
C555 H541 0.929 . S
C555 C554 1.399 . S
C555 C556 1.385 . S
C556 H542 0.931 . S
C556 C555 1.385 . S
C556 C557 1.389 . S
C557 C556 1.389 . S
C557 C558 1.387 1_565 S
C558 H543 0.930 . S
C558 C553 1.390 1_545 S
C558 C557 1.387 1_545 S
H559 C571 0.930 . S
H560 C573 0.930 . S
H561 C574 0.930 . S
H562 C578 0.959 . S
H563 C578 0.959 . S
H564 C578 0.961 . S
H565 C579 0.960 . S
H566 C579 0.961 . S
H567 C579 0.959 . S
H568 C582 0.929 . S
H569 C583 0.931 . S
H570 C585 0.930 . S
C571 H559 0.930 . S
C571 C572 1.399 1_556 S
C571 C576 1.399 . S
C572 C571 1.399 1_554 S
C572 C573 1.376 . S
C573 H560 0.930 . S
C573 C572 1.376 . S
C573 C574 1.388 . S
C574 H561 0.930 . S
C574 C573 1.388 . S
C574 C575 1.390 1_554 S
C575 C574 1.390 1_556 S
C575 C576 1.394 . S
C575 C581 1.465 . S
C576 C571 1.399 . S
C576 C575 1.394 . S
C576 C577 1.516 . S
C577 C576 1.516 . S
C577 C578 1.502 . S
C577 C579 1.561 . S
C577 C580 1.526 . S
C578 H562 0.959 . S
C578 H563 0.959 . S
C578 H564 0.961 . S
C578 C577 1.502 . S
C579 H565 0.960 . S
C579 H566 0.961 . S
C579 H567 0.959 . S
C579 C577 1.561 . S
C580 C577 1.526 . S
C580 C581 1.396 . S
C580 C585 1.390 . S
C581 C575 1.465 . S
C581 C580 1.396 . S
C581 C582 1.399 . S
C582 H568 0.929 . S
C582 C581 1.399 . S
C582 C583 1.385 . S
C583 H569 0.931 . S
C583 C582 1.385 . S
C583 C584 1.389 . S
C584 C583 1.389 . S
C584 C585 1.387 . S
C585 H570 0.930 . S
C585 C580 1.390 . S
C585 C584 1.387 . S
H586 C598 0.930 . S
H587 C600 0.930 . S
H588 C601 0.930 . S
H589 C605 0.959 . S
H590 C605 0.959 . S
H591 C605 0.965 . S
H592 C606 0.960 . S
H593 C606 0.961 . S
H594 C606 0.959 . S
H595 C609 0.929 . S
H596 C610 0.931 . S
H597 C612 0.930 . S
C598 H586 0.930 . S
C598 C599 1.399 . S
C598 C603 1.399 1_554 S
C599 C598 1.399 . S
C599 C600 1.376 . S
C600 H587 0.930 . S
C600 C599 1.376 . S
C600 C601 1.388 1_554 S
C601 H588 0.930 . S
C601 C600 1.388 1_556 S
C601 C602 1.390 . S
C602 C601 1.390 . S
C602 C603 1.394 . S
C602 C608 1.465 . S
C603 C598 1.399 1_556 S
C603 C602 1.394 . S
C603 C604 1.516 . S
C604 C603 1.516 . S
C604 C605 1.502 . S
C604 C606 1.561 . S
C604 C607 1.526 . S
C605 H589 0.959 . S
C605 H590 0.959 . S
C605 H591 0.965 . S
C605 C604 1.502 . S
C606 H592 0.960 . S
C606 H593 0.961 . S
C606 H594 0.959 . S
C606 C604 1.561 . S
C607 C604 1.526 . S
C607 C608 1.396 . S
C607 C612 1.390 . S
C608 C602 1.465 . S
C608 C607 1.396 . S
C608 C609 1.399 . S
C609 H595 0.929 . S
C609 C608 1.399 . S
C609 C610 1.385 . S
C610 H596 0.931 . S
C610 C609 1.385 . S
C610 C611 1.389 . S
C611 C610 1.389 . S
C611 C612 1.387 . S
C612 H597 0.930 . S
C612 C607 1.390 . S
C612 C611 1.387 . S
H613 C625 0.930 . S
H614 C627 0.930 . S
H615 C628 0.930 . S
H616 C632 0.959 . S
H617 C632 0.959 . S
H618 C632 0.961 . S
H619 C633 0.960 1_554 S
H620 C633 0.961 . S
H621 C633 0.959 . S
H622 C636 0.929 . S
H623 C637 0.931 . S
H624 C639 0.930 . S
C625 H613 0.930 . S
C625 C626 1.399 . S
C625 C630 1.399 1_554 S
C626 C625 1.399 . S
C626 C627 1.376 . S
C627 H614 0.930 . S
C627 C626 1.376 . S
C627 C628 1.388 1_554 S
C628 H615 0.930 . S
C628 C627 1.388 1_556 S
C628 C629 1.390 . S
C629 C628 1.390 . S
C629 C630 1.394 . S
C629 C635 1.465 . S
C630 C625 1.399 1_556 S
C630 C629 1.394 . S
C630 C631 1.516 . S
C631 C630 1.516 . S
C631 C632 1.502 1_556 S
C631 C633 1.561 . S
C631 C634 1.526 . S
C632 H616 0.959 . S
C632 H617 0.959 . S
C632 H618 0.961 . S
C632 C631 1.502 1_554 S
C633 H619 0.960 1_556 S
C633 H620 0.961 . S
C633 H621 0.959 . S
C633 C631 1.561 . S
C634 C631 1.526 . S
C634 C635 1.396 . S
C634 C639 1.390 . S
C635 C629 1.465 . S
C635 C634 1.396 . S
C635 C636 1.399 . S
C636 H622 0.929 . S
C636 C635 1.399 . S
C636 C637 1.385 . S
C637 H623 0.931 . S
C637 C636 1.385 . S
C637 C638 1.389 . S
C638 C637 1.389 . S
C638 C639 1.387 . S
C639 H624 0.930 . S
C639 C634 1.390 . S
C639 C638 1.387 . S
H640 C652 0.930 . S
H641 C654 0.930 . S
H642 C655 0.930 . S
H643 C659 0.959 . S
H644 C659 0.959 1_655 S
H645 C659 0.961 . S
H646 C660 0.960 . S
H647 C660 0.961 . S
H648 C660 0.959 . S
H649 C663 0.929 . S
H650 C664 0.931 . S
H651 C666 0.887 1_655 S
C652 H640 0.930 . S
C652 C653 1.399 . S
C652 C657 1.399 . S
C653 C652 1.399 . S
C653 C654 1.376 . S
C654 H641 0.930 . S
C654 C653 1.376 . S
C654 C655 1.388 . S
C655 H642 0.930 . S
C655 C654 1.388 . S
C655 C656 1.390 . S
C656 C655 1.390 . S
C656 C657 1.394 . S
C656 C662 1.465 . S
C657 C652 1.399 . S
C657 C656 1.394 . S
C657 C658 1.516 . S
C658 C657 1.516 . S
C658 C659 1.502 . S
C658 C660 1.561 1_455 S
C658 C661 1.526 . S
C659 H643 0.959 . S
C659 H644 0.959 1_455 S
C659 H645 0.961 . S
C659 C658 1.502 . S
C660 H646 0.960 . S
C660 H647 0.961 . S
C660 H648 0.959 . S
C660 C658 1.561 1_655 S
C661 C658 1.526 . S
C661 C662 1.396 . S
C661 C666 1.418 . S
C662 C656 1.465 . S
C662 C661 1.396 . S
C662 C663 1.399 . S
C663 H649 0.929 . S
C663 C662 1.399 . S
C663 C664 1.385 . S
C664 H650 0.931 . S
C664 C663 1.385 . S
C664 C665 1.389 . S
C665 C664 1.389 . S
C665 C666 1.402 . S
C666 H651 0.887 1_455 S
C666 C661 1.418 . S
C666 C665 1.402 . S
H667 C679 0.930 . S
H668 C681 0.930 . S
H669 C682 0.930 . S
H670 C686 0.959 1_545 S
H671 C686 0.959 . S
H672 C686 0.961 . S
H673 C687 0.960 . S
H674 C687 0.961 . S
H675 C687 0.959 1_545 S
H676 C690 0.929 . S
H677 C691 0.931 . S
H678 C693 0.892 1_565 S
C679 H667 0.930 . S
C679 C680 1.399 . S
C679 C684 1.399 . S
C680 C679 1.399 . S
C680 C681 1.376 . S
C681 H668 0.930 . S
C681 C680 1.376 . S
C681 C682 1.388 . S
C682 H669 0.930 . S
C682 C681 1.388 . S
C682 C683 1.390 . S
C683 C682 1.390 . S
C683 C684 1.394 . S
C683 C689 1.465 . S
C684 C679 1.399 . S
C684 C683 1.394 . S
C684 C685 1.516 . S
C685 C684 1.516 . S
C685 C686 1.502 1_545 S
C685 C687 1.561 1_545 S
C685 C688 1.526 . S
C686 H670 0.959 1_565 S
C686 H671 0.959 . S
C686 H672 0.961 . S
C686 C685 1.502 1_565 S
C687 H673 0.960 . S
C687 H674 0.961 . S
C687 H675 0.959 1_565 S
C687 C685 1.561 1_565 S
C688 C685 1.526 . S
C688 C689 1.396 . S
C688 C693 1.413 . S
C689 C683 1.465 . S
C689 C688 1.396 . S
C689 C690 1.399 . S
C690 H676 0.929 . S
C690 C689 1.399 . S
C690 C691 1.385 . S
C691 H677 0.931 . S
C691 C690 1.385 . S
C691 C692 1.389 . S
C692 C691 1.389 . S
C692 C693 1.402 . S
C693 H678 0.892 1_545 S
C693 C688 1.413 . S
C693 C692 1.402 . S
H694 C706 0.930 . S
H695 C708 0.930 . S
H696 C709 0.930 . S
H697 C713 0.959 . S
H698 C713 0.959 . S
H699 C713 0.961 . S
H700 C714 0.960 . S
H701 C714 0.961 . S
H702 C714 0.959 . S
H703 C717 0.929 . S
H704 C718 0.931 . S
H705 C720 0.930 . S
C706 H694 0.930 . S
C706 C707 1.399 . S
C706 C711 1.399 . S
C707 C706 1.399 . S
C707 C708 1.376 . S
C708 H695 0.930 . S
C708 C707 1.376 . S
C708 C709 1.388 . S
C709 H696 0.930 . S
C709 C708 1.388 . S
C709 C710 1.390 . S
C710 C709 1.390 . S
C710 C711 1.394 . S
C710 C716 1.465 . S
C711 C706 1.399 . S
C711 C710 1.394 . S
C711 C712 1.516 . S
C712 C711 1.516 . S
C712 C713 1.502 . S
C712 C714 1.561 . S
C712 C715 1.526 . S
C713 H697 0.959 . S
C713 H698 0.959 . S
C713 H699 0.961 . S
C713 C712 1.502 . S
C714 H700 0.960 . S
C714 H701 0.961 . S
C714 H702 0.959 . S
C714 C712 1.561 . S
C715 C712 1.526 . S
C715 C716 1.396 . S
C715 C720 1.390 . S
C716 C710 1.465 . S
C716 C715 1.396 . S
C716 C717 1.399 . S
C717 H703 0.929 . S
C717 C716 1.399 . S
C717 C718 1.385 . S
C718 H704 0.931 . S
C718 C717 1.385 . S
C718 C719 1.389 . S
C719 C718 1.389 . S
C719 C720 1.387 . S
C720 H705 0.930 . S
C720 C715 1.390 . S
C720 C719 1.387 . S
H721 C733 0.930 . S
H722 C735 0.930 . S
H723 C736 0.930 . S
H724 C740 0.959 . S
H725 C740 0.959 . S
H726 C740 0.961 . S
H727 C741 0.960 . S
H728 C741 0.961 . S
H729 C741 0.959 . S
H730 C744 0.929 . S
H731 C745 0.931 . S
H732 C747 0.930 . S
C733 H721 0.930 . S
C733 C734 1.399 . S
C733 C738 1.399 . S
C734 C733 1.399 . S
C734 C735 1.376 . S
C735 H722 0.930 . S
C735 C734 1.376 . S
C735 C736 1.388 . S
C736 H723 0.930 . S
C736 C735 1.388 . S
C736 C737 1.390 . S
C737 C736 1.390 . S
C737 C738 1.394 . S
C737 C743 1.465 . S
C738 C733 1.399 . S
C738 C737 1.394 . S
C738 C739 1.516 . S
C739 C738 1.516 . S
C739 C740 1.502 . S
C739 C741 1.561 . S
C739 C742 1.526 . S
C740 H724 0.959 . S
C740 H725 0.959 . S
C740 H726 0.961 . S
C740 C739 1.502 . S
C741 H727 0.960 . S
C741 H728 0.961 . S
C741 H729 0.959 . S
C741 C739 1.561 . S
C742 C739 1.526 . S
C742 C743 1.396 . S
C742 C747 1.390 . S
C743 C737 1.465 . S
C743 C742 1.396 . S
C743 C744 1.399 . S
C744 H730 0.929 . S
C744 C743 1.399 . S
C744 C745 1.385 . S
C745 H731 0.931 . S
C745 C744 1.385 . S
C745 C746 1.389 . S
C746 C745 1.389 . S
C746 C747 1.387 . S
C747 H732 0.930 . S
C747 C742 1.390 . S
C747 C746 1.387 . S
H748 C760 0.930 . S
H749 C762 0.930 . S
H750 C763 0.930 . S
H751 C767 0.959 1_455 S
H752 C767 0.959 . S
H753 C767 0.961 . S
H754 C768 0.960 . S
H755 C768 0.961 . S
H756 C768 0.959 . S
H757 C771 0.929 . S
H758 C772 0.926 1_454 S
H759 C774 0.930 . S
C760 H748 0.930 . S
C760 C761 1.399 . S
C760 C765 1.399 . S
C761 C760 1.399 . S
C761 C762 1.376 . S
C762 H749 0.930 . S
C762 C761 1.376 . S
C762 C763 1.388 . S
C763 H750 0.930 . S
C763 C762 1.388 . S
C763 C764 1.390 . S
C764 C763 1.390 . S
C764 C765 1.394 . S
C764 C770 1.465 . S
C765 C760 1.399 . S
C765 C764 1.394 . S
C765 C766 1.516 1_554 S
C766 C765 1.516 1_556 S
C766 C767 1.502 . S
C766 C768 1.561 . S
C766 C769 1.526 . S
C767 H751 0.959 1_655 S
C767 H752 0.959 . S
C767 H753 0.961 . S
C767 C766 1.502 . S
C768 H754 0.960 . S
C768 H755 0.961 . S
C768 H756 0.959 . S
C768 C766 1.561 . S
C769 C766 1.526 . S
C769 C770 1.396 1_556 S
C769 C774 1.390 . S
C770 C764 1.465 . S
C770 C769 1.396 1_554 S
C770 C771 1.399 . S
C771 H757 0.929 . S
C771 C770 1.399 . S
C771 C772 1.392 1_554 S
C772 H758 0.926 1_656 S
C772 C771 1.392 1_556 S
C772 C773 1.387 1_655 S
C773 C772 1.387 1_455 S
C773 C774 1.387 1_455 S
C774 H759 0.930 . S
C774 C769 1.390 . S
C774 C773 1.387 1_655 S
H775 C787 0.930 . S
H776 C789 0.930 . S
H777 C790 0.930 . S
H778 C794 0.959 . S
H779 C794 0.959 . S
H780 C794 0.961 . S
H781 C795 0.960 . S
H782 C795 0.961 . S
H783 C795 0.959 . S
H784 C798 0.929 . S
H785 C799 0.931 . S
H786 C801 0.930 1_554 S
C787 H775 0.930 . S
C787 C788 1.399 . S
C787 C792 1.399 . S
C788 C787 1.399 . S
C788 C789 1.376 . S
C789 H776 0.930 . S
C789 C788 1.376 . S
C789 C790 1.388 1_554 S
C790 H777 0.930 . S
C790 C789 1.388 1_556 S
C790 C791 1.390 1_556 S
C791 C790 1.390 1_554 S
C791 C792 1.394 . S
C791 C797 1.465 1_554 S
C792 C787 1.399 . S
C792 C791 1.394 . S
C792 C793 1.516 . S
C793 C792 1.516 . S
C793 C794 1.502 . S
C793 C795 1.561 1_565 S
C793 C796 1.526 . S
C794 H778 0.959 . S
C794 H779 0.959 . S
C794 H780 0.961 . S
C794 C793 1.502 . S
C795 H781 0.960 . S
C795 H782 0.961 . S
C795 H783 0.959 . S
C795 C793 1.561 1_545 S
C796 C793 1.526 . S
C796 C797 1.396 1_554 S
C796 C801 1.390 1_564 S
C797 C791 1.465 1_556 S
C797 C796 1.396 1_556 S
C797 C798 1.399 . S
C798 H784 0.929 . S
C798 C797 1.399 . S
C798 C799 1.385 1_565 S
C799 H785 0.931 . S
C799 C798 1.385 1_545 S
C799 C800 1.389 . S
C800 C799 1.389 . S
C800 C801 1.387 . S
C801 H786 0.930 1_556 S
C801 C796 1.390 1_546 S
C801 C800 1.387 . S
H802 C814 0.930 1_556 S
H803 C816 0.930 . S
H804 C817 0.930 . S
H805 C821 0.959 . S
H806 C821 0.959 . S
H807 C821 0.961 . S
H808 C822 0.960 . S
H809 C822 0.961 . S
H810 C822 0.959 . S
H811 C825 0.929 . S
H812 C826 0.931 . S
H813 C828 0.930 . S
C814 H802 0.930 1_554 S
C814 C815 1.399 . S
C814 C819 1.399 . S
C815 C814 1.399 . S
C815 C816 1.376 . S
C816 H803 0.930 . S
C816 C815 1.376 . S
C816 C817 1.388 . S
C817 H804 0.930 . S
C817 C816 1.388 . S
C817 C818 1.390 . S
C818 C817 1.390 . S
C818 C819 1.394 . S
C818 C824 1.465 . S
C819 C814 1.399 . S
C819 C818 1.394 . S
C819 C820 1.516 1_554 S
C820 C819 1.516 1_556 S
C820 C821 1.502 . S
C820 C822 1.561 . S
C820 C823 1.526 . S
C821 H805 0.959 . S
C821 H806 0.959 . S
C821 H807 0.961 . S
C821 C820 1.502 . S
C822 H808 0.960 . S
C822 H809 0.961 . S
C822 H810 0.959 . S
C822 C820 1.561 . S
C823 C820 1.526 . S
C823 C824 1.396 1_556 S
C823 C828 1.390 . S
C824 C818 1.465 . S
C824 C823 1.396 1_554 S
C824 C825 1.399 . S
C825 H811 0.929 . S
C825 C824 1.399 . S
C825 C826 1.385 . S
C826 H812 0.931 . S
C826 C825 1.385 . S
C826 C827 1.389 1_554 S
C827 C826 1.389 1_556 S
C827 C828 1.387 . S
C828 H813 0.930 . S
C828 C823 1.390 . S
C828 C827 1.387 . S
H829 C841 0.930 . S
H830 C843 0.926 1_556 S
H831 C844 0.930 . S
H832 C848 0.959 . S
H833 C848 0.959 . S
H834 C848 0.961 . S
H835 C849 0.960 . S
H836 C849 0.961 . S
H837 C849 0.959 . S
H838 C852 0.929 . S
H839 C853 0.931 . S
H840 C855 0.930 . S
C841 H829 0.930 . S
C841 C842 1.399 . S
C841 C846 1.399 . S
C842 C841 1.399 . S
C842 C843 1.376 . S
C843 H830 0.926 1_554 S
C843 C842 1.376 . S
C843 C844 1.388 1_554 S
C844 H831 0.930 . S
C844 C843 1.388 1_556 S
C844 C845 1.390 1_556 S
C845 C844 1.390 1_554 S
C845 C846 1.394 . S
C845 C851 1.465 1_554 S
C846 C841 1.399 . S
C846 C845 1.394 . S
C846 C847 1.516 . S
C847 C846 1.516 . S
C847 C848 1.502 . S
C847 C849 1.561 . S
C847 C850 1.526 . S
C848 H832 0.959 . S
C848 H833 0.959 . S
C848 H834 0.961 . S
C848 C847 1.502 . S
C849 H835 0.960 . S
C849 H836 0.961 . S
C849 H837 0.959 . S
C849 C847 1.561 . S
C850 C847 1.526 . S
C850 C851 1.396 1_554 S
C850 C855 1.390 . S
C851 C845 1.465 1_556 S
C851 C850 1.396 1_556 S
C851 C852 1.399 . S
C852 H838 0.929 . S
C852 C851 1.399 . S
C852 C853 1.385 . S
C853 H839 0.931 . S
C853 C852 1.385 . S
C853 C854 1.389 . S
C854 C853 1.389 . S
C854 C855 1.387 1_556 S
C855 H840 0.930 . S
C855 C850 1.390 . S
C855 C854 1.387 1_554 S
H856 C868 0.930 . S
H857 C870 0.930 . S
H858 C871 0.930 . S
H859 C875 0.959 . S
H860 C875 0.959 . S
H861 C875 0.961 . S
H862 C876 0.960 . S
H863 C876 0.961 . S
H864 C876 0.959 . S
H865 C879 0.929 . S
H866 C880 0.931 . S
H867 C882 0.930 . S
C868 H856 0.930 . S
C868 C869 1.399 . S
C868 C873 1.399 . S
C869 C868 1.399 . S
C869 C870 1.376 . S
C870 H857 0.930 . S
C870 C869 1.376 . S
C870 C871 1.388 . S
C871 H858 0.930 . S
C871 C870 1.388 . S
C871 C872 1.390 . S
C872 C871 1.390 . S
C872 C873 1.394 . S
C872 C878 1.465 . S
C873 C868 1.399 . S
C873 C872 1.394 . S
C873 C874 1.516 . S
C874 C873 1.516 . S
C874 C875 1.502 . S
C874 C876 1.561 . S
C874 C877 1.526 . S
C875 H859 0.959 . S
C875 H860 0.959 . S
C875 H861 0.961 . S
C875 C874 1.502 . S
C876 H862 0.960 . S
C876 H863 0.961 . S
C876 H864 0.959 . S
C876 C874 1.561 . S
C877 C874 1.526 . S
C877 C878 1.396 . S
C877 C882 1.390 . S
C878 C872 1.465 . S
C878 C877 1.396 . S
C878 C879 1.399 . S
C879 H865 0.929 . S
C879 C878 1.399 . S
C879 C880 1.385 . S
C880 H866 0.931 . S
C880 C879 1.385 . S
C880 C881 1.389 . S
C881 C880 1.389 . S
C881 C882 1.387 . S
C882 H867 0.930 . S
C882 C877 1.390 . S
C882 C881 1.387 . S
H883 C895 0.930 . S
H884 C897 0.930 . S
H885 C898 0.930 . S
H886 C902 0.959 . S
H887 C902 0.959 . S
H888 C902 0.961 . S
H889 C903 0.960 . S
H890 C903 0.961 . S
H891 C903 0.959 . S
H892 C906 0.929 . S
H893 C907 0.931 . S
H894 C909 0.930 . S
C895 H883 0.930 . S
C895 C896 1.399 . S
C895 C900 1.399 . S
C896 C895 1.399 . S
C896 C897 1.376 . S
C897 H884 0.930 . S
C897 C896 1.376 . S
C897 C898 1.388 . S
C898 H885 0.930 . S
C898 C897 1.388 . S
C898 C899 1.390 . S
C899 C898 1.390 . S
C899 C900 1.394 . S
C899 C905 1.465 . S
C900 C895 1.399 . S
C900 C899 1.394 . S
C900 C901 1.516 . S
C901 C900 1.516 . S
C901 C902 1.502 . S
C901 C903 1.561 . S
C901 C904 1.526 . S
C902 H886 0.959 . S
C902 H887 0.959 . S
C902 H888 0.961 . S
C902 C901 1.502 . S
C903 H889 0.960 . S
C903 H890 0.961 . S
C903 H891 0.959 . S
C903 C901 1.561 . S
C904 C901 1.526 . S
C904 C905 1.396 . S
C904 C909 1.390 . S
C905 C899 1.465 . S
C905 C904 1.396 . S
C905 C906 1.399 . S
C906 H892 0.929 . S
C906 C905 1.399 . S
C906 C907 1.385 . S
C907 H893 0.931 . S
C907 C906 1.385 . S
C907 C908 1.389 . S
C908 C907 1.389 . S
C908 C909 1.387 . S
C909 H894 0.930 . S
C909 C904 1.390 . S
C909 C908 1.387 . S
H910 C922 0.930 . S
H911 C924 0.930 . S
H912 C925 0.930 . S
H913 C929 0.959 . S
H914 C929 0.959 . S
H915 C929 0.961 . S
H916 C930 0.960 . S
H917 C930 0.961 . S
H918 C930 0.959 . S
H919 C933 0.929 . S
H920 C934 0.931 . S
H921 C936 0.930 . S
C922 H910 0.930 . S
C922 C923 1.399 . S
C922 C927 1.399 . S
C923 C922 1.399 . S
C923 C924 1.376 . S
C924 H911 0.930 . S
C924 C923 1.376 . S
C924 C925 1.388 . S
C925 H912 0.930 . S
C925 C924 1.388 . S
C925 C926 1.390 . S
C926 C925 1.390 . S
C926 C927 1.394 . S
C926 C932 1.465 . S
C927 C922 1.399 . S
C927 C926 1.394 . S
C927 C928 1.516 . S
C928 C927 1.516 . S
C928 C929 1.502 . S
C928 C930 1.561 . S
C928 C931 1.526 . S
C929 H913 0.959 . S
C929 H914 0.959 . S
C929 H915 0.961 . S
C929 C928 1.502 . S
C930 H916 0.960 . S
C930 H917 0.961 . S
C930 H918 0.959 . S
C930 C928 1.561 . S
C931 C928 1.526 . S
C931 C932 1.396 . S
C931 C936 1.390 . S
C932 C926 1.465 . S
C932 C931 1.396 . S
C932 C933 1.399 . S
C933 H919 0.929 . S
C933 C932 1.399 . S
C933 C934 1.385 . S
C934 H920 0.931 . S
C934 C933 1.385 . S
C934 C935 1.389 . S
C935 C934 1.389 . S
C935 C936 1.387 . S
C936 H921 0.930 . S
C936 C931 1.390 . S
C936 C935 1.387 . S
H937 C949 0.930 . S
H938 C951 0.930 . S
H939 C952 0.930 . S
H940 C956 0.959 . S
H941 C956 0.959 . S
H942 C956 0.961 . S
H943 C957 0.960 . S
H944 C957 0.961 . S
H945 C957 0.959 . S
H946 C960 0.929 . S
H947 C961 0.931 . S
H948 C963 0.930 . S
C949 H937 0.930 . S
C949 C950 1.399 . S
C949 C954 1.399 . S
C950 C949 1.399 . S
C950 C951 1.376 . S
C951 H938 0.930 . S
C951 C950 1.376 . S
C951 C952 1.388 . S
C952 H939 0.930 . S
C952 C951 1.388 . S
C952 C953 1.390 . S
C953 C952 1.390 . S
C953 C954 1.394 . S
C953 C959 1.465 . S
C954 C949 1.399 . S
C954 C953 1.394 . S
C954 C955 1.516 . S
C955 C954 1.516 . S
C955 C956 1.502 . S
C955 C957 1.561 . S
C955 C958 1.526 . S
C956 H940 0.959 . S
C956 H941 0.959 . S
C956 H942 0.961 . S
C956 C955 1.502 . S
C957 H943 0.960 . S
C957 H944 0.961 . S
C957 H945 0.959 . S
C957 C955 1.561 . S
C958 C955 1.526 . S
C958 C959 1.396 . S
C958 C963 1.390 . S
C959 C953 1.465 . S
C959 C958 1.396 . S
C959 C960 1.399 . S
C960 H946 0.929 . S
C960 C959 1.399 . S
C960 C961 1.385 . S
C961 H947 0.931 . S
C961 C960 1.385 . S
C961 C962 1.389 . S
C962 C961 1.389 . S
C962 C963 1.387 . S
C963 H948 0.930 . S
C963 C958 1.390 . S
C963 C962 1.387 . S
H964 C976 0.930 . S
H965 C978 0.930 . S
H966 C979 0.930 . S
H967 C983 0.959 . S
H968 C983 0.959 . S
H969 C983 0.961 . S
H970 C984 0.960 . S
H971 C984 0.961 . S
H972 C984 0.959 . S
H973 C987 0.929 . S
H974 C988 0.931 . S
H975 C990 0.930 . S
C976 H964 0.930 . S
C976 C977 1.399 . S
C976 C981 1.399 . S
C977 C976 1.399 . S
C977 C978 1.376 . S
C978 H965 0.930 . S
C978 C977 1.376 . S
C978 C979 1.388 . S
C979 H966 0.930 . S
C979 C978 1.388 . S
C979 C980 1.390 . S
C980 C979 1.390 . S
C980 C981 1.394 . S
C980 C986 1.465 . S
C981 C976 1.399 . S
C981 C980 1.394 . S
C981 C982 1.516 . S
C982 C981 1.516 . S
C982 C983 1.502 . S
C982 C984 1.561 . S
C982 C985 1.526 . S
C983 H967 0.959 . S
C983 H968 0.959 . S
C983 H969 0.961 . S
C983 C982 1.502 . S
C984 H970 0.960 . S
C984 H971 0.961 . S
C984 H972 0.959 . S
C984 C982 1.561 . S
C985 C982 1.526 . S
C985 C986 1.396 . S
C985 C990 1.390 . S
C986 C980 1.465 . S
C986 C985 1.396 . S
C986 C987 1.399 . S
C987 H973 0.929 . S
C987 C986 1.399 . S
C987 C988 1.385 . S
C988 H974 0.931 . S
C988 C987 1.385 . S
C988 C989 1.389 . S
C989 C988 1.389 . S
C989 C990 1.387 . S
C990 H975 0.930 . S
C990 C985 1.390 . S
C990 C989 1.387 . S
H991 C1003 0.930 . S
H992 C1005 0.930 . S
H993 C1006 0.930 . S
H994 C1010 0.959 . S
H995 C1010 0.959 . S
H996 C1010 0.961 . S
H997 C1011 0.960 . S
H998 C1011 0.961 . S
H999 C1011 0.959 . S
H1000 C1014 0.929 . S
H1001 C1015 0.931 . S
H1002 C1017 0.930 1_545 S
C1003 H991 0.930 . S
C1003 C1004 1.399 . S
C1003 C1008 1.399 . S
C1004 C1003 1.399 . S
C1004 C1005 1.376 . S
C1005 H992 0.930 . S
C1005 C1004 1.376 . S
C1005 C1006 1.388 . S
C1006 H993 0.930 . S
C1006 C1005 1.388 . S
C1006 C1007 1.390 . S
C1007 C1006 1.390 . S
C1007 C1008 1.394 . S
C1007 C1013 1.465 . S
C1008 C1003 1.399 . S
C1008 C1007 1.394 . S
C1008 C1009 1.516 1_565 S
C1009 C1008 1.516 1_545 S
C1009 C1010 1.502 . S
C1009 C1011 1.561 . S
C1009 C1012 1.526 1_545 S
C1010 H994 0.959 . S
C1010 H995 0.959 . S
C1010 H996 0.961 . S
C1010 C1009 1.502 . S
C1011 H997 0.960 . S
C1011 H998 0.961 . S
C1011 H999 0.959 . S
C1011 C1009 1.561 . S
C1012 C1009 1.526 1_565 S
C1012 C1013 1.396 . S
C1012 C1017 1.390 . S
C1013 C1007 1.465 . S
C1013 C1012 1.396 . S
C1013 C1014 1.399 . S
C1014 H1000 0.929 . S
C1014 C1013 1.399 . S
C1014 C1015 1.385 . S
C1015 H1001 0.931 . S
C1015 C1014 1.385 . S
C1015 C1016 1.389 . S
C1016 C1015 1.389 . S
C1016 C1017 1.387 . S
C1017 H1002 0.930 1_565 S
C1017 C1012 1.390 . S
C1017 C1016 1.387 . S
H1018 C1030 0.930 . S
H1019 C1032 0.930 . S
H1020 C1033 0.930 . S
H1021 C1037 0.959 . S
H1022 C1037 0.959 . S
H1023 C1037 0.961 . S
H1024 C1038 0.960 . S
H1025 C1038 0.961 . S
H1026 C1038 0.959 . S
H1027 C1041 0.929 . S
H1028 C1042 0.931 . S
H1029 C1044 0.930 . S
C1030 H1018 0.930 . S
C1030 C1031 1.399 . S
C1030 C1035 1.399 . S
C1031 C1030 1.399 . S
C1031 C1032 1.376 . S
C1032 H1019 0.930 . S
C1032 C1031 1.376 . S
C1032 C1033 1.388 . S
C1033 H1020 0.930 . S
C1033 C1032 1.388 . S
C1033 C1034 1.390 . S
C1034 C1033 1.390 . S
C1034 C1035 1.394 . S
C1034 C1040 1.465 . S
C1035 C1030 1.399 . S
C1035 C1034 1.394 . S
C1035 C1036 1.516 . S
C1036 C1035 1.516 . S
C1036 C1037 1.502 . S
C1036 C1038 1.561 . S
C1036 C1039 1.526 . S
C1037 H1021 0.959 . S
C1037 H1022 0.959 . S
C1037 H1023 0.961 . S
C1037 C1036 1.502 . S
C1038 H1024 0.960 . S
C1038 H1025 0.961 . S
C1038 H1026 0.959 . S
C1038 C1036 1.561 . S
C1039 C1036 1.526 . S
C1039 C1040 1.396 . S
C1039 C1044 1.390 . S
C1040 C1034 1.465 . S
C1040 C1039 1.396 . S
C1040 C1041 1.399 . S
C1041 H1027 0.929 . S
C1041 C1040 1.399 . S
C1041 C1042 1.385 . S
C1042 H1028 0.931 . S
C1042 C1041 1.385 . S
C1042 C1043 1.389 . S
C1043 C1042 1.389 . S
C1043 C1044 1.387 . S
C1044 H1029 0.930 . S
C1044 C1039 1.390 . S
C1044 C1043 1.387 . S
H1045 C1057 0.930 . S
H1046 C1059 0.930 . S
H1047 C1060 0.930 . S
H1048 C1064 0.959 . S
H1049 C1064 0.959 . S
H1050 C1064 0.961 . S
H1051 C1065 0.960 . S
H1052 C1065 0.961 . S
H1053 C1065 0.959 . S
H1054 C1068 0.929 . S
H1055 C1069 0.931 . S
H1056 C1071 0.930 . S
C1057 H1045 0.930 . S
C1057 C1058 1.399 . S
C1057 C1062 1.399 . S
C1058 C1057 1.399 . S
C1058 C1059 1.376 . S
C1059 H1046 0.930 . S
C1059 C1058 1.376 . S
C1059 C1060 1.388 . S
C1060 H1047 0.930 . S
C1060 C1059 1.388 . S
C1060 C1061 1.390 . S
C1061 C1060 1.390 . S
C1061 C1062 1.394 . S
C1061 C1067 1.465 . S
C1062 C1057 1.399 . S
C1062 C1061 1.394 . S
C1062 C1063 1.516 . S
C1063 C1062 1.516 . S
C1063 C1064 1.502 . S
C1063 C1065 1.561 . S
C1063 C1066 1.526 . S
C1064 H1048 0.959 . S
C1064 H1049 0.959 . S
C1064 H1050 0.961 . S
C1064 C1063 1.502 . S
C1065 H1051 0.960 . S
C1065 H1052 0.961 . S
C1065 H1053 0.959 . S
C1065 C1063 1.561 . S
C1066 C1063 1.526 . S
C1066 C1067 1.396 . S
C1066 C1071 1.390 . S
C1067 C1061 1.465 . S
C1067 C1066 1.396 . S
C1067 C1068 1.399 . S
C1068 H1054 0.929 . S
C1068 C1067 1.399 . S
C1068 C1069 1.385 . S
C1069 H1055 0.931 . S
C1069 C1068 1.385 . S
C1069 C1070 1.389 . S
C1070 C1069 1.389 . S
C1070 C1071 1.387 . S
C1071 H1056 0.930 . S
C1071 C1066 1.390 . S
C1071 C1070 1.387 . S
C437 C74 1.888 . S
C449 C162 1.849 . S
C476 C246 1.908 . S
C464 C85 1.862 . S
C503 C312 1.840 . S
C491 C52 2.011 . S
C530 C396 1.799 . S
C518 C63 1.979 . S
C557 C151 1.890 1_565 S
C545 C30 1.840 . S
C572 C41 1.826 . S
C584 C235 1.866 . S
C599 C8 1.881 . S
C611 C323 1.896 . S
C626 C19 1.878 . S
C638 C407 1.889 . S
C665 C158 0.800 1_455 S
C653 C62 0.782 . S
C692 C242 0.780 1_545 S
C680 C73 0.737 . S
C719 C314 0.737 . S
C707 C84 0.679 . S
C734 C51 0.700 . S
C746 C398 0.617 . S
C761 C18 0.820 . S
C773 C146 0.747 . S
C800 C230 0.719 . S
C788 C29 0.649 . S
C827 C326 0.601 . S
C815 C40 0.761 . S
C842 C7 0.664 . S
C854 C410 0.781 . S
C869 C60 1.801 . S
C881 C155 2.107 . S
C896 C71 1.762 . S
C908 C239 2.069 . S
C935 C319 2.069 . S
C923 C82 1.683 . S
C962 C403 2.080 . S
C950 C49 1.778 . S
C977 C16 1.565 . S
C989 C144 2.082 . S
C1016 C228 2.072 . S
C1004 C27 1.638 . S
C1043 C330 2.077 . S
C1031 C38 1.496 . S
C1058 C5 1.586 . S
C1070 C414 2.117 . S
