# Generated by pormake.
# Topology zzz, (3,6)-cn, num edge types: 1
# Building blocks:
#     Node 0, Type 0, BuildingBlock: OLANEW_clean_sbu_2, # of connection points: 3
#     Node 1, Type 0, BuildingBlock: OLANEW_clean_sbu_2, # of connection points: 3
#     Node 2, Type 0, BuildingBlock: OLANEW_clean_sbu_2, # of connection points: 3
#     Node 3, Type 0, BuildingBlock: OLANEW_clean_sbu_2, # of connection points: 3
#     Node 4, Type 0, BuildingBlock: OLANEW_clean_sbu_2, # of connection points: 3
#     Node 5, Type 0, BuildingBlock: OLANEW_clean_sbu_2, # of connection points: 3
#     Node 6, Type 0, BuildingBlock: OLANEW_clean_sbu_2, # of connection points: 3
#     Node 7, Type 0, BuildingBlock: OLANEW_clean_sbu_2, # of connection points: 3
#     Node 8, Type 1, BuildingBlock: FUNLAD_clean_sbu_0, # of connection points: 6
#     Node 9, Type 1, BuildingBlock: FUNLAD_clean_sbu_0, # of connection points: 6
#     Node 10, Type 1, BuildingBlock: FUNLAD_clean_sbu_0, # of connection points: 6
#     Node 11, Type 1, BuildingBlock: FUNLAD_clean_sbu_0, # of connection points: 6
#     Edge 12, Type (0, 1), BuildingBlock: MIFKUJ_clean_linker_0, # of connection points: 2
#     Edge 13, Type (0, 1), BuildingBlock: MIFKUJ_clean_linker_0, # of connection points: 2
#     Edge 14, Type (0, 1), BuildingBlock: MIFKUJ_clean_linker_0, # of connection points: 2
#     Edge 15, Type (0, 1), BuildingBlock: MIFKUJ_clean_linker_0, # of connection points: 2
#     Edge 16, Type (0, 1), BuildingBlock: MIFKUJ_clean_linker_0, # of connection points: 2
#     Edge 17, Type (0, 1), BuildingBlock: MIFKUJ_clean_linker_0, # of connection points: 2
#     Edge 18, Type (0, 1), BuildingBlock: MIFKUJ_clean_linker_0, # of connection points: 2
#     Edge 19, Type (0, 1), BuildingBlock: MIFKUJ_clean_linker_0, # of connection points: 2
#     Edge 20, Type (0, 1), BuildingBlock: MIFKUJ_clean_linker_0, # of connection points: 2
#     Edge 21, Type (0, 1), BuildingBlock: MIFKUJ_clean_linker_0, # of connection points: 2
#     Edge 22, Type (0, 1), BuildingBlock: MIFKUJ_clean_linker_0, # of connection points: 2
#     Edge 23, Type (0, 1), BuildingBlock: MIFKUJ_clean_linker_0, # of connection points: 2
#     Edge 24, Type (0, 1), BuildingBlock: MIFKUJ_clean_linker_0, # of connection points: 2
#     Edge 25, Type (0, 1), BuildingBlock: MIFKUJ_clean_linker_0, # of connection points: 2
#     Edge 26, Type (0, 1), BuildingBlock: MIFKUJ_clean_linker_0, # of connection points: 2
#     Edge 27, Type (0, 1), BuildingBlock: MIFKUJ_clean_linker_0, # of connection points: 2
#     Edge 28, Type (0, 1), BuildingBlock: MIFKUJ_clean_linker_0, # of connection points: 2
#     Edge 29, Type (0, 1), BuildingBlock: MIFKUJ_clean_linker_0, # of connection points: 2
#     Edge 30, Type (0, 1), BuildingBlock: MIFKUJ_clean_linker_0, # of connection points: 2
#     Edge 31, Type (0, 1), BuildingBlock: MIFKUJ_clean_linker_0, # of connection points: 2
#     Edge 32, Type (0, 1), BuildingBlock: MIFKUJ_clean_linker_0, # of connection points: 2
#     Edge 33, Type (0, 1), BuildingBlock: MIFKUJ_clean_linker_0, # of connection points: 2
#     Edge 34, Type (0, 1), BuildingBlock: MIFKUJ_clean_linker_0, # of connection points: 2
#     Edge 35, Type (0, 1), BuildingBlock: MIFKUJ_clean_linker_0, # of connection points: 2
# Relax obj value: 0.119
# Max RMSD: 0.174
# Mean RMSD: 0.093
data_MOF--net-zzz--node1-OLANEW_clean_sbu_2--node2-FUNLAD_clean_sbu_0--edge1-MIFKUJ_clean_linker_0
_symmetry_space_group_name_H-M    P1
_symmetry_Int_Tables_number       1
_symmetry_cell_setting            triclinic
loop_
_symmetry_equiv_pos_as_xyz
'x, y, z'
_cell_length_a     68.865212
_cell_length_b     74.003435
_cell_length_c     24.304644
_cell_angle_alpha  86.627408
_cell_angle_beta   86.73041
_cell_angle_gamma 90.483831
loop_
_atom_site_label
_atom_site_type_symbol
_atom_site_fract_x
_atom_site_fract_y
_atom_site_fract_z
_atom_type_partial_charge
O0 O 0.8096 0.53305 0.99368 0.0
Cd1 Cd 0.77911 0.54678 0.02334 0.0
O2 O 0.81408 0.52514 0.0801 0.0
Cd3 Cd 0.8314 0.51585 0.14826 0.0
O4 O 0.85117 0.51221 0.21443 0.0
C5 C 0.86102 0.49792 0.22137 0.0
O6 O 0.85907 0.48474 0.18809 0.0
C7 C 0.81996 0.52535 0.02952 0.0
C8 C 0.74897 0.5314 0.97026 0.0
O9 O 0.7581 0.54552 0.94892 0.0
O10 O 0.75394 0.52474 0.0172 0.0
O11 O 0.91316 0.78728 0.93061 0.0
Cd12 Cd 0.92641 0.79041 0.8349 0.0
O13 O 0.91045 0.79572 0.01562 0.0
Cd14 Cd 0.91546 0.81438 0.07987 0.0
O15 O 0.92776 0.83334 0.13412 0.0
C16 C 0.91709 0.84412 0.16077 0.0
O17 O 0.89819 0.84369 0.1559 0.0
C18 C 0.91667 0.7988 0.96561 0.0
C19 C 0.9422 0.75768 0.80458 0.0
O20 O 0.92464 0.76173 0.79463 0.0
O21 O 0.95237 0.76924 0.82812 0.0
O22 O 0.73359 0.03951 0.00457 0.0
Cd23 Cd 0.76442 0.04695 0.04286 0.0
O24 O 0.71951 0.0404 0.08764 0.0
Cd25 Cd 0.69413 0.03597 0.14524 0.0
O26 O 0.66959 0.02798 0.20248 0.0
C27 C 0.65338 0.03603 0.20101 0.0
O28 O 0.65137 0.0495 0.16415 0.0
C29 C 0.71832 0.03823 0.03646 0.0
C30 C 0.79598 0.04325 0.96759 0.0
O31 O 0.79031 0.03009 0.00154 0.0
O32 O 0.78663 0.05813 0.96908 0.0
O33 O 0.60902 0.68168 0.86223 0.0
Cd34 Cd 0.63091 0.70505 0.89002 0.0
O35 O 0.59795 0.67867 0.94855 0.0
Cd36 Cd 0.58181 0.66478 0.01896 0.0
O37 O 0.57035 0.64797 0.09032 0.0
C38 C 0.58231 0.63822 0.1163 0.0
O39 O 0.60076 0.63877 0.09911 0.0
C40 C 0.59743 0.67401 0.89909 0.0
C41 C 0.61423 0.73887 0.87356 0.0
O42 O 0.62587 0.73258 0.83652 0.0
O43 O 0.61069 0.72924 0.91863 0.0
O44 O 0.2129 0.61722 0.32329 0.0
Cd45 Cd 0.24093 0.63636 0.29375 0.0
O46 O 0.22601 0.59671 0.27163 0.0
Cd47 Cd 0.22346 0.57121 0.23166 0.0
O48 O 0.20593 0.55412 0.18353 0.0
C49 C 0.19306 0.56287 0.15806 0.0
O50 O 0.19193 0.58043 0.16303 0.0
C51 C 0.21251 0.60142 0.30555 0.0
C52 C 0.27286 0.62001 0.33985 0.0
O53 O 0.2635 0.63238 0.36451 0.0
O54 O 0.26752 0.61588 0.29247 0.0
O55 O 0.1494 0.2018 0.51294 0.0
Cd56 Cd 0.16522 0.23069 0.48372 0.0
O57 O 0.14376 0.19781 0.42653 0.0
Cd58 Cd 0.13018 0.183 0.36331 0.0
O59 O 0.11719 0.1647 0.30824 0.0
C60 C 0.1041 0.15332 0.32654 0.0
O61 O 0.09815 0.15298 0.37891 0.0
C62 C 0.14248 0.19214 0.47704 0.0
C63 C 0.14397 0.25986 0.5214 0.0
O64 O 0.14072 0.25328 0.47513 0.0
O65 O 0.15728 0.25262 0.54989 0.0
O66 O 0.28795 0.89287 0.52946 0.0
Cd67 Cd 0.26153 0.87843 0.4851 0.0
O68 O 0.29724 0.90453 0.44733 0.0
Cd69 Cd 0.3146 0.9216 0.38635 0.0
O70 O 0.33426 0.93349 0.32037 0.0
C71 C 0.34912 0.94269 0.33086 0.0
O72 O 0.35236 0.94543 0.38247 0.0
C73 C 0.29964 0.90295 0.4989 0.0
C74 C 0.22663 0.89373 0.52053 0.0
O75 O 0.23232 0.87878 0.54326 0.0
O76 O 0.23724 0.9012 0.48035 0.0
O77 O 0.52012 0.28472 0.33213 0.0
Cd78 Cd 0.52506 0.25612 0.28889 0.0
O79 O 0.49351 0.28851 0.28794 0.0
Cd80 Cd 0.47011 0.30446 0.25339 0.0
O81 O 0.4595 0.32546 0.19667 0.0
C82 C 0.47321 0.33471 0.17137 0.0
O83 O 0.49123 0.33084 0.18245 0.0
C84 C 0.5055 0.29431 0.32095 0.0
C85 C 0.51987 0.22719 0.36669 0.0
O86 O 0.53667 0.23458 0.35609 0.0
O87 O 0.50559 0.23343 0.34012 0.0
C88 C 0.00535 0.969 0.77789 0.0
N89 N 0.01047 0.98468 0.61049 0.0
C90 C 0.0157 0.96721 0.60393 0.0
C91 C 0.01048 0.95841 0.55781 0.0
C92 C -0.00047 0.96757 0.51826 0.0
C93 C 0.99461 0.98571 0.52534 0.0
C94 C 0.00036 0.99409 0.57194 0.0
Zn95 Zn 0.01677 0.99573 0.68245 0.0
C96 C 0.98403 0.01528 0.73246 0.0
N97 N 0.03015 0.01586 0.83685 0.0
C98 C 0.03922 0.00665 0.87803 0.0
C99 C 0.02547 0.0336 0.84048 0.0
C100 C 0.03059 0.04297 0.88553 0.0
C101 C 0.04045 0.03402 0.92779 0.0
C102 C 0.04443 0.01552 0.9245 0.0
Zn103 Zn 0.02416 0.0046 0.76469 0.0
O104 O 0.00462 0.97262 0.72633 0.0
C105 C 0.05643 0.98453 0.7157 0.0
O106 O 0.01343 0.98024 0.80728 0.0
H107 H 0.01812 0.04067 0.80766 0.0
H108 H 0.02348 0.95986 0.63534 0.0
H109 H 0.04282 0.99256 0.87425 0.0
O110 O 0.04416 0.98328 0.67909 0.0
O111 O 0.05241 0.99346 0.75784 0.0
H112 H 0.99637 0.00797 0.57798 0.0
O113 O 0.03488 0.02856 0.7204 0.0
O114 O 0.02924 0.01899 0.63897 0.0
O115 O 0.99583 0.01543 0.77075 0.0
O116 O 0.98917 0.00816 0.68767 0.0
C117 C 0.03579 0.03109 0.66816 0.0
H118 H 0.01429 0.94433 0.55435 0.0
H119 H 0.98623 0.99322 0.49554 0.0
H120 H 0.02706 0.05718 0.88703 0.0
H121 H 0.05206 0.00822 0.95644 0.0
C122 C 0.46703 0.97923 0.72215 0.0
N123 N 0.4899 0.03063 0.74956 0.0
C124 C 0.48213 0.03576 0.70091 0.0
C125 C 0.48093 0.05402 0.6842 0.0
C126 C 0.48802 0.06714 0.71752 0.0
C127 C 0.49492 0.06157 0.769 0.0
C128 C 0.49563 0.04311 0.78448 0.0
Zn129 Zn 0.49689 0.00403 0.76213 0.0
C130 C 0.48286 0.98726 0.86872 0.0
N131 N 0.5137 0.94884 0.77877 0.0
C132 C 0.51187 0.93717 0.73808 0.0
C133 C 0.52164 0.94352 0.827 0.0
C134 C 0.5287 0.92605 0.8351 0.0
C135 C 0.52746 0.91386 0.79335 0.0
C136 C 0.51861 0.91946 0.74467 0.0
Zn137 Zn 0.50583 0.97523 0.76773 0.0
O138 O 0.47039 0.99581 0.72955 0.0
C139 C 0.51958 0.99219 0.66066 0.0
O140 O 0.4797 0.9675 0.73431 0.0
H141 H 0.52286 0.95297 0.85894 0.0
H142 H 0.47799 0.02567 0.67324 0.0
H143 H 0.50554 0.94172 0.70004 0.0
O144 O 0.51086 0.00533 0.6821 0.0
O145 O 0.52004 0.97703 0.68791 0.0
H146 H 0.50177 0.03875 0.82296 0.0
O147 O 0.53195 0.98317 0.80063 0.0
O148 O 0.52353 0.01167 0.79568 0.0
O149 O 0.49137 0.9739 0.84762 0.0
O150 O 0.483 0.00249 0.8416 0.0
C151 C 0.53579 -0.0004 0.80814 0.0
H152 H 0.47578 0.05774 0.64383 0.0
H153 H 0.50043 0.07134 0.79591 0.0
H154 H 0.5352 0.92214 0.87352 0.0
H155 H 0.51751 0.91045 0.71142 0.0
C156 C 0.49891 0.46219 0.58768 0.0
N157 N 0.4578 0.50233 0.62389 0.0
C158 C 0.45373 0.50267 0.56975 0.0
C159 C 0.4362 0.50966 0.55259 0.0
C160 C 0.42263 0.51632 0.59153 0.0
C161 C 0.42687 0.51509 0.64752 0.0
C162 C 0.44467 0.50805 0.66285 0.0
Zn163 Zn 0.48507 0.49516 0.64439 0.0
C164 C 0.48574 0.46984 0.74166 0.0
N165 N 0.54293 0.48124 0.68144 0.0
C166 C 0.55748 0.47897 0.64223 0.0
C167 C 0.54644 0.48054 0.73603 0.0
C168 C 0.56523 0.47799 0.753 0.0
C169 C 0.58066 0.47633 0.71346 0.0
C170 C 0.57661 0.47659 0.65743 0.0
Zn171 Zn 0.5155 0.48779 0.66049 0.0
O172 O 0.48405 0.47207 0.59526 0.0
C173 C 0.51493 0.51346 0.56382 0.0
O174 O 0.51457 0.46602 0.60984 0.0
H175 H 0.53477 0.48264 0.76655 0.0
H176 H 0.46442 0.49812 0.53943 0.0
H177 H 0.55435 0.47957 0.59907 0.0
O178 O 0.49679 0.51154 0.57554 0.0
O179 O 0.52681 0.50481 0.59324 0.0
H180 H 0.44823 0.50766 0.70567 0.0
O181 O 0.5163 0.50958 0.71111 0.0
O182 O 0.48675 0.51809 0.69382 0.0
O183 O 0.50376 0.47105 0.72741 0.0
O184 O 0.47367 0.47885 0.71379 0.0
C185 C 0.50241 0.52051 0.71785 0.0
H186 H 0.43374 0.51057 0.50892 0.0
H187 H 0.41673 0.51984 0.67902 0.0
H188 H 0.56776 0.47823 0.79653 0.0
H189 H 0.58816 0.47533 0.62576 0.0
C190 C 0.0612 0.51086 0.62571 0.0
N191 N 0.0419 0.45975 0.69206 0.0
C192 C 0.04456 0.45412 0.63991 0.0
C193 C 0.0499 0.43635 0.63119 0.0
C194 C 0.05258 0.42416 0.67655 0.0
C195 C 0.04954 0.43026 0.73002 0.0
C196 C 0.04414 0.4482 0.73688 0.0
Zn197 Zn 0.0353 0.48633 0.70086 0.0
C198 C 0.05811 0.50285 0.78604 0.0
N199 N 0.02223 0.5422 0.71564 0.0
C200 C 0.01991 0.5529 0.66904 0.0
C201 C 0.01973 0.54885 0.76657 0.0
C202 C 0.01456 0.56689 0.77202 0.0
C203 C 0.01174 0.57812 0.72463 0.0
C204 C 0.01455 0.57096 0.67262 0.0
Zn205 Zn 0.02885 0.51555 0.70843 0.0
O206 O 0.05754 0.49422 0.63856 0.0
C207 C 0.00551 0.49903 0.62436 0.0
O208 O 0.05129 0.52288 0.64928 0.0
H209 H 0.02152 0.54009 0.8031 0.0
H210 H 0.04283 0.46353 0.60482 0.0
H211 H 0.02206 0.54739 0.62895 0.0
O212 O 0.01472 0.485 0.63977 0.0
O213 O 0.0088 0.51389 0.64595 0.0
H214 H 0.04193 0.45297 0.77797 0.0
O215 O 0.00688 0.50812 0.76774 0.0
O216 O 0.01267 0.47908 0.76308 0.0
O217 O 0.04847 0.51665 0.77103 0.0
O218 O 0.05594 0.48808 0.76273 0.0
C219 C 0.00302 0.49183 0.78411 0.0
H220 H 0.05242 0.43235 0.58925 0.0
H221 H 0.05131 0.42126 0.76613 0.0
H222 H 0.01233 0.57187 0.81289 0.0
H223 H 0.0127 0.57925 0.63509 0.0
H224 H 0.21669 0.92914 0.50489 0.0
H225 H 0.18784 0.94401 0.5438 0.0
H226 H 0.16715 0.893 0.62125 0.0
H227 H 0.19623 0.87806 0.58359 0.0
H228 H 0.13878 0.91621 0.55818 0.0
H229 H 0.18475 0.91723 0.70192 0.0
H230 H 0.21674 0.92371 0.73755 0.0
H231 H 0.21109 0.98006 0.68888 0.0
H232 H 0.17918 0.97385 0.65216 0.0
H233 H 0.06155 0.9485 0.72129 0.0
H234 H 0.0913 0.93235 0.6957 0.0
H235 H 0.1219 0.98343 0.66391 0.0
H236 H 0.09229 0.99949 0.69277 0.0
H237 H 0.14564 0.95968 0.70411 0.0
H238 H 0.1013 0.96042 0.55957 0.0
H239 H 0.06959 0.95574 0.51991 0.0
H240 H 0.07255 0.89865 0.56128 0.0
H241 H 0.10415 0.90303 0.602 0.0
C242 C 0.20594 0.92106 0.52993 0.0
C243 C 0.2087 0.90245 0.54134 0.0
C244 C 0.18953 0.92958 0.55218 0.0
C245 C 0.1755 0.91957 0.58542 0.0
C246 C 0.17789 0.9009 0.59565 0.0
C247 C 0.1945 0.89243 0.57428 0.0
C248 C 0.15851 0.92872 0.61042 0.0
C249 C 0.14015 0.92552 0.59064 0.0
C250 C 0.16057 0.94128 0.65137 0.0
C251 C 0.17968 0.94504 0.67376 0.0
C252 C 0.19042 0.93097 0.69834 0.0
C253 C 0.20851 0.9346 0.71883 0.0
C254 C 0.21597 0.95228 0.71534 0.0
C255 C 0.20531 0.96637 0.69148 0.0
C256 C 0.18721 0.96281 0.67086 0.0
C257 C 0.07482 0.95617 0.71017 0.0
C258 C 0.07488 0.97511 0.709 0.0
C259 C 0.09172 0.947 0.69505 0.0
C260 C 0.10869 0.9567 0.67639 0.0
C261 C 0.10896 0.97567 0.67791 0.0
C262 C 0.09213 0.98483 0.69437 0.0
C263 C 0.1257 0.94715 0.65224 0.0
C264 C 0.14413 0.95032 0.67185 0.0
C265 C 0.12376 0.93484 0.61021 0.0
C266 C 0.10502 0.93208 0.58428 0.0
C267 C 0.09515 0.94687 0.5604 0.0
C268 C 0.0772 0.94428 0.53775 0.0
C269 C 0.06904 0.92692 0.53818 0.0
C270 C 0.07888 0.9121 0.56103 0.0
C271 C 0.09682 0.91462 0.58386 0.0
H272 H 0.05511 0.92494 0.52074 0.0
H273 H 0.22998 0.95506 0.73124 0.0
H274 H 0.48613 0.20875 0.39771 0.0
H275 H 0.48146 0.18338 0.46618 0.0
H276 H 0.54231 0.18578 0.49908 0.0
H277 H 0.54718 0.21105 0.42999 0.0
H278 H 0.53052 0.15163 0.48753 0.0
H279 H 0.50824 0.20109 0.59083 0.0
H280 H 0.48921 0.22835 0.60963 0.0
H281 H 0.43609 0.19794 0.60317 0.0
H282 H 0.4548 0.17054 0.58354 0.0
H283 H 0.52019 0.08875 0.71815 0.0
H284 H 0.5261 0.11799 0.66731 0.0
H285 H 0.46751 0.11723 0.6135 0.0
H286 H 0.46144 0.08801 0.66462 0.0
H287 H 0.47986 0.15154 0.64124 0.0
H288 H 0.5024 0.10264 0.53253 0.0
H289 H 0.52149 0.07555 0.51221 0.0
H290 H 0.57451 0.10524 0.52797 0.0
H291 H 0.55572 0.13245 0.54956 0.0
C292 C 0.49852 0.20392 0.41958 0.0
C293 C 0.51702 0.21192 0.40847 0.0
C294 C 0.4958 0.18948 0.45893 0.0
C295 C 0.51149 0.18285 0.48822 0.0
C296 C 0.53 0.19074 0.47704 0.0
C297 C 0.53274 0.20519 0.43762 0.0
C298 C 0.50863 0.16731 0.52926 0.0
C299 C 0.51971 0.15173 0.52178 0.0
C300 C 0.49425 0.16736 0.57326 0.0
C301 C 0.48293 0.18379 0.58525 0.0
C302 C 0.4925 0.20024 0.59299 0.0
C303 C 0.48177 0.21572 0.60388 0.0
C304 C 0.46146 0.21489 0.60747 0.0
C305 C 0.45183 0.19857 0.60032 0.0
C306 C 0.46249 0.18306 0.58938 0.0
C307 C 0.5084 0.09506 0.69674 0.0
C308 C 0.49036 0.08612 0.69515 0.0
C309 C 0.51186 0.11166 0.66736 0.0
C310 C 0.49732 0.11959 0.63612 0.0
C311 C 0.47892 0.11126 0.63725 0.0
C312 C 0.4755 0.09458 0.66626 0.0
C313 C 0.50166 0.13589 0.59921 0.0
C314 C 0.49083 0.15157 0.60738 0.0
C315 C 0.51631 0.13594 0.55588 0.0
C316 C 0.52763 0.11953 0.54346 0.0
C317 C 0.51812 0.10335 0.53236 0.0
C318 C 0.52889 0.08798 0.52049 0.0
C319 C 0.5492 0.08866 0.519 0.0
C320 C 0.55878 0.10472 0.52932 0.0
C321 C 0.54807 0.12012 0.54142 0.0
H322 H 0.55751 0.07675 0.50971 0.0
H323 H 0.45318 0.22688 0.6159 0.0
H324 H 0.29132 0.58979 0.30577 0.0
H325 H 0.31578 0.57213 0.35355 0.0
H326 H 0.3145 0.60992 0.48215 0.0
H327 H 0.28996 0.62769 0.43471 0.0
H328 H 0.35214 0.60008 0.44654 0.0
H329 H 0.29114 0.57141 0.50686 0.0
H330 H 0.2593 0.55723 0.4942 0.0
H331 H 0.28744 0.51533 0.40542 0.0
H332 H 0.31944 0.52942 0.41683 0.0
H333 H 0.40603 0.54684 0.63098 0.0
H334 H 0.37909 0.56397 0.59403 0.0
H335 H 0.37295 0.52486 0.47115 0.0
H336 H 0.39923 0.50712 0.50967 0.0
H337 H 0.33826 0.53585 0.50754 0.0
H338 H 0.39866 0.56463 0.44173 0.0
H339 H 0.43083 0.57869 0.45058 0.0
H340 H 0.40438 0.62016 0.54492 0.0
H341 H 0.37205 0.60619 0.53728 0.0
C342 C 0.29634 0.59444 0.344 0.0
C343 C 0.28868 0.61011 0.36657 0.0
C344 C 0.31023 0.58428 0.37136 0.0
C345 C 0.31673 0.58963 0.42164 0.0
C346 C 0.30958 0.60556 0.44346 0.0
C347 C 0.29556 0.61566 0.41633 0.0
C348 C 0.33088 0.57847 0.45166 0.0
C349 C 0.34903 0.58612 0.46068 0.0
C350 C 0.3269 0.56015 0.46884 0.0
C351 C 0.30768 0.55157 0.46226 0.0
C352 C 0.29053 0.55925 0.48425 0.0
C353 C 0.27245 0.55122 0.47737 0.0
C354 C 0.27134 0.53541 0.44891 0.0
C355 C 0.28832 0.52758 0.4274 0.0
C356 C 0.30643 0.53558 0.43411 0.0
C357 C 0.39865 0.54161 0.59698 0.0
C358 C 0.40493 0.52566 0.57298 0.0
C359 C 0.3834 0.55155 0.57546 0.0
C360 C 0.37431 0.54591 0.52907 0.0
C361 C 0.37987 0.52955 0.5067 0.0
C362 C 0.39502 0.51952 0.52846 0.0
C363 C 0.35961 0.55742 0.50226 0.0
C364 C 0.34136 0.54984 0.49374 0.0
C365 C 0.36356 0.57577 0.48505 0.0
C366 C 0.38296 0.58426 0.48943 0.0
C367 C 0.39972 0.57667 0.46471 0.0
C368 C 0.41798 0.58464 0.46945 0.0
C369 C 0.41966 0.60028 0.49842 0.0
C370 C 0.40306 0.60802 0.52257 0.0
C371 C 0.38476 0.6001 0.51802 0.0
H372 H 0.43381 0.60643 0.50205 0.0
H373 H 0.25733 0.52921 0.44361 0.0
H374 H 0.14915 0.27827 0.61391 0.0
H375 H 0.13147 0.30473 0.64432 0.0
H376 H 0.09583 0.30316 0.50428 0.0
H377 H 0.1137 0.27691 0.473 0.0
H378 H 0.10834 0.33647 0.51543 0.0
H379 H 0.07796 0.28978 0.63616 0.0
H380 H 0.07663 0.26372 0.70435 0.0
H381 H 0.10399 0.29566 0.82059 0.0
H382 H 0.10573 0.32186 0.75279 0.0
H383 H 0.04044 0.4013 0.60064 0.0
H384 H 0.05398 0.37197 0.57897 0.0
H385 H 0.09326 0.37532 0.7101 0.0
H386 H 0.0799 0.40479 0.73178 0.0
H387 H 0.07795 0.34075 0.70427 0.0
H388 H 0.10923 0.38699 0.58154 0.0
H389 H 0.11012 0.41306 0.51336 0.0
H390 H 0.08054 0.38152 0.40043 0.0
H391 H 0.07921 0.35533 0.46833 0.0
C392 C 0.13748 0.28349 0.58972 0.0
C393 C 0.13284 0.27549 0.54099 0.0
C394 C 0.12732 0.29857 0.60733 0.0
C395 C 0.11217 0.30582 0.57692 0.0
C396 C 0.10744 0.29778 0.52844 0.0
C397 C 0.11766 0.28276 0.51066 0.0
C398 C 0.10182 0.32224 0.59432 0.0
C399 C 0.10142 0.33727 0.55645 0.0
C400 C 0.09319 0.32346 0.64828 0.0
C401 C 0.09214 0.30774 0.68918 0.0
C402 C 0.08383 0.29121 0.6761 0.0
C403 C 0.08298 0.27642 0.71471 0.0
C404 C 0.09026 0.27802 0.76672 0.0
C405 C 0.09837 0.29443 0.78027 0.0
C406 C 0.09928 0.30926 0.74178 0.0
C407 C 0.05193 0.39578 0.62498 0.0
C408 C 0.05926 0.40548 0.66751 0.0
C409 C 0.0596 0.379 0.61266 0.0
C410 C 0.07481 0.37162 0.64241 0.0
C411 C 0.08152 0.3808 0.68664 0.0
C412 C 0.07384 0.39762 0.69903 0.0
C413 C 0.08445 0.35485 0.62528 0.0
C414 C 0.08478 0.33983 0.6632 0.0
C415 C 0.093 0.35359 0.57131 0.0
C416 C 0.09395 0.36926 0.53023 0.0
C417 C 0.10278 0.38566 0.54233 0.0
C418 C 0.10339 0.40045 0.50372 0.0
C419 C 0.09535 0.39896 0.45265 0.0
C420 C 0.08674 0.38266 0.44004 0.0
C421 C 0.08607 0.36784 0.47855 0.0
H422 H 0.09583 0.41043 0.42281 0.0
H423 H 0.08959 0.26655 0.79656 0.0
H424 H 0.80983 0.06761 0.88534 0.0
H425 H 0.83931 0.06532 0.82519 0.0
H426 H 0.85079 0.013 0.90392 0.0
H427 H 0.82114 0.01498 0.96298 0.0
H428 H 0.8751 0.06439 0.8505 0.0
H429 H 0.87578 0.9866 0.81971 0.0
H430 H 0.85236 0.96215 0.80563 0.0
H431 H 0.81219 0.00117 0.74257 0.0
H432 H 0.83547 0.02584 0.75547 0.0
H433 H 0.96846 0.02945 0.82575 0.0
H434 H 0.93479 0.03745 0.84637 0.0
H435 H 0.92048 0.02468 0.68239 0.0
H436 H 0.9543 0.01611 0.66175 0.0
H437 H 0.89501 0.00959 0.75454 0.0
H438 H 0.92017 0.069 0.72132 0.0
H439 H 0.94286 0.09468 0.72707 0.0
H440 H 0.92955 0.09494 0.90177 0.0
H441 H 0.90699 0.06909 0.89726 0.0
C442 C 0.81852 0.05552 0.88936 0.0
C443 C 0.81317 0.04148 0.929 0.0
C444 C 0.83537 0.05424 0.85497 0.0
C445 C 0.84719 0.03892 0.85956 0.0
C446 C 0.84171 0.02479 0.89867 0.0
C447 C 0.82481 0.026 0.93275 0.0
C448 C 0.86598 0.03819 0.82666 0.0
C449 C 0.87938 0.05248 0.82905 0.0
C450 C 0.8714 0.0229 0.79717 0.0
C451 C 0.85735 0.0081 0.78893 0.0
C452 C 0.862 0.98997 0.80256 0.0
C453 C 0.84873 0.97607 0.79485 0.0
C454 C 0.83078 0.98011 0.77334 0.0
C455 C 0.82608 0.99806 0.7594 0.0
C456 C 0.83929 0.01201 0.76698 0.0
C457 C 0.95826 0.02855 0.79368 0.0
C458 C 0.96407 0.02209 0.74212 0.0
C459 C 0.93898 0.03326 0.80546 0.0
C460 C 0.92511 0.03189 0.76573 0.0
C461 C 0.93095 0.02589 0.71362 0.0
C462 C 0.95028 0.02106 0.70185 0.0
C463 C 0.90435 0.03543 0.78068 0.0
C464 C 0.89059 0.02166 0.77501 0.0
C465 C 0.89844 0.05139 0.80593 0.0
C466 C 0.91192 0.06704 0.80894 0.0
C467 C 0.92216 0.07446 0.76103 0.0
C468 C 0.93499 0.08906 0.76407 0.0
C469 C 0.93766 0.09642 0.81476 0.0
C470 C 0.92747 0.08922 0.86252 0.0
C471 C 0.91462 0.07462 0.85973 0.0
H472 H 0.94761 0.10772 0.81703 0.0
H473 H 0.82053 0.96932 0.76742 0.0
H474 H 0.62288 0.76456 0.79023 0.0
H475 H 0.60798 0.7942 0.776 0.0
H476 H 0.56948 0.78279 0.92049 0.0
H477 H 0.58472 0.75338 0.93592 0.0
H478 H 0.57293 0.8047 0.75505 0.0
H479 H 0.55958 0.8212 0.98412 0.0
H480 H 0.57387 0.81456 0.07382 0.0
H481 H 0.62949 0.80599 0.99099 0.0
H482 H 0.6156 0.8128 0.90089 0.0
H483 H 0.51133 0.88126 0.77196 0.0
H484 H 0.52574 0.85123 0.78456 0.0
H485 H 0.57759 0.87562 0.841 0.0
H486 H 0.56311 0.9055 0.82958 0.0
H487 H 0.56802 0.8474 0.90498 0.0
H488 H 0.57556 0.86004 0.7092 0.0
H489 H 0.56475 0.86828 0.61612 0.0
H490 H 0.52722 0.82143 0.62591 0.0
H491 H 0.53762 0.81304 0.71941 0.0
C492 C 0.61127 0.76838 0.81905 0.0
C493 C 0.60507 0.7567 0.86445 0.0
C494 C 0.60271 0.7853 0.81073 0.0
C495 C 0.58776 0.79081 0.8475 0.0
C496 C 0.58125 0.77898 0.89218 0.0
C497 C 0.58995 0.76215 0.90087 0.0
C498 C 0.57909 0.80898 0.83928 0.0
C499 C 0.57183 0.81403 0.78785 0.0
C500 C 0.57793 0.82128 0.88177 0.0
C501 C 0.58648 0.81731 0.93577 0.0
C502 C 0.57487 0.81795 0.98509 0.0
C503 C 0.5829 0.81415 0.03599 0.0
C504 C 0.60256 0.80979 0.03809 0.0
C505 C 0.61425 0.80929 0.9893 0.0
C506 C 0.6063 0.81309 0.9383 0.0
C507 C 0.52583 0.88016 0.78681 0.0
C508 C 0.53609 0.89566 0.79997 0.0
C509 C 0.53406 0.86303 0.79391 0.0
C510 C 0.55282 0.86118 0.81332 0.0
C511 C 0.56307 0.87669 0.82628 0.0
C512 C 0.55478 0.89375 0.81978 0.0
C513 C 0.56181 0.84313 0.82079 0.0
C514 C 0.56906 0.83806 0.8722 0.0
C515 C 0.56345 0.83104 0.77779 0.0
C516 C 0.55723 0.83601 0.72151 0.0
C517 C 0.5649 0.85157 0.69166 0.0
C518 C 0.55886 0.85626 0.63881 0.0
C519 C 0.54527 0.84542 0.61518 0.0
C520 C 0.53772 0.82983 0.6443 0.0
C521 C 0.5437 0.82509 0.6972 0.0
H522 H 0.54061 0.84907 0.57425 0.0
H523 H 0.60875 0.80684 0.07753 0.0
H524 H 0.7358 0.54189 0.8695 0.0
H525 H 0.7093 0.52831 0.82271 0.0
H526 H 0.70031 0.48819 0.9581 0.0
H527 H 0.72666 0.50179 0.00549 0.0
H528 H 0.70346 0.49435 0.7867 0.0
H529 H 0.65133 0.48045 0.97898 0.0
H530 H 0.64428 0.49226 0.0708 0.0
H531 H 0.66622 0.54464 0.01046 0.0
H532 H 0.67315 0.53321 0.91818 0.0
H533 H 0.59522 0.45651 0.79979 0.0
H534 H 0.62674 0.46078 0.83916 0.0
H535 H 0.64287 0.50071 0.70754 0.0
H536 H 0.6115 0.49639 0.6679 0.0
H537 H 0.63729 0.4915 0.87905 0.0
H538 H 0.69188 0.50469 0.6892 0.0
H539 H 0.69842 0.49342 0.59654 0.0
H540 H 0.67081 0.44267 0.65009 0.0
H541 H 0.66435 0.45353 0.74327 0.0
C542 C 0.72821 0.53017 0.88932 0.0
C543 C 0.73322 0.523 0.9414 0.0
C544 C 0.71315 0.52236 0.86236 0.0
C545 C 0.70279 0.50734 0.88713 0.0
C546 C 0.70802 0.49991 0.93857 0.0
C547 C 0.72307 0.5077 0.96556 0.0
C548 C 0.68602 0.4999 0.86003 0.0
C549 C 0.68894 0.49381 0.8066 0.0
C550 C 0.66722 0.49882 0.8867 0.0
C551 C 0.66298 0.5059 0.94191 0.0
C552 C 0.65461 0.4945 0.98533 0.0
C553 C 0.65063 0.50113 0.03743 0.0
C554 C 0.65487 0.51917 0.04651 0.0
C555 C 0.66302 0.53065 0.00345 0.0
C556 C 0.66701 0.52409 0.95126 0.0
C557 C 0.60568 0.46591 0.77868 0.0
C558 C 0.6009 0.4762 0.731 0.0
C559 C 0.62366 0.46833 0.80115 0.0
C560 C 0.63716 0.48106 0.77632 0.0
C561 C 0.63283 0.4906 0.72694 0.0
C562 C 0.61489 0.48811 0.70428 0.0
C563 C 0.65462 0.48596 0.80536 0.0
C564 C 0.65183 0.4917 0.85924 0.0
C565 C 0.67348 0.48674 0.77895 0.0
C566 C 0.67749 0.48001 0.72314 0.0
C567 C 0.68728 0.4911 0.68129 0.0
C568 C 0.69096 0.48479 0.62865 0.0
C569 C 0.68499 0.46736 0.61739 0.0
C570 C 0.67537 0.45619 0.65881 0.0
C571 C 0.67166 0.46243 0.71152 0.0
H572 H 0.68784 0.4625 0.57661 0.0
H573 H 0.65179 0.52427 0.08688 0.0
H574 H 0.9763 0.74282 0.83613 0.0
H575 H 0.98876 0.71285 0.81784 0.0
H576 H 0.93916 0.70258 0.7229 0.0
H577 H 0.92631 0.73235 0.74256 0.0
H578 H 0.94502 0.67454 0.78878 0.0
H579 H 0.98578 0.71149 0.66145 0.0
H580 H 0.00842 0.73655 0.63077 0.0
H581 H 0.05058 0.71513 0.73989 0.0
H582 H 0.02808 0.69007 0.7718 0.0
H583 H 0.98302 0.5956 0.67072 0.0
H584 H 0.972 0.62668 0.68043 0.0
H585 H 0.01507 0.63448 0.79918 0.0
H586 H 0.02622 0.60338 0.7895 0.0
H587 H 0.01269 0.66363 0.71832 0.0
H588 H 0.97063 0.62684 0.84586 0.0
H589 H 0.94779 0.60159 0.87273 0.0
H590 H 0.9077 0.6229 0.75715 0.0
H591 H 0.93044 0.64815 0.72899 0.0
C592 C 0.96812 0.73424 0.811 0.0
C593 C 0.95032 0.73996 0.79077 0.0
C594 C 0.97531 0.71713 0.80033 0.0
C595 C 0.96503 0.70551 0.76839 0.0
C596 C 0.94736 0.71129 0.74763 0.0
C597 C 0.94005 0.72833 0.75879 0.0
C598 C 0.97227 0.68705 0.75866 0.0
C599 C 0.95972 0.67222 0.7725 0.0
C600 C 0.99159 0.68393 0.73847 0.0
C601 C 0.00516 0.69899 0.7194 0.0
C602 C -0.00018 0.7122 0.67924 0.0
C603 C 0.01263 0.72639 0.66156 0.0
C604 C 0.0309 0.72745 0.68347 0.0
C605 C 0.03641 0.7143 0.72301 0.0
C606 C 0.02364 0.70009 0.74086 0.0
C607 C 0.99025 0.604 0.69851 0.0
C608 C 0.00545 0.59709 0.72946 0.0
C609 C 0.98388 0.62169 0.70422 0.0
C610 C 0.99266 0.6328 0.74075 0.0
C611 C 0.00811 0.62608 0.77082 0.0
C612 C 0.01436 0.60832 0.76555 0.0
C613 C 0.98542 0.6513 0.74843 0.0
C614 C 0.99798 0.66607 0.73432 0.0
C615 C 0.96606 0.65439 0.7678 0.0
C616 C 0.95232 0.63928 0.78492 0.0
C617 C 0.95701 0.62606 0.82584 0.0
C618 C 0.94408 0.61176 0.84136 0.0
C619 C 0.92633 0.61061 0.81656 0.0
C620 C 0.92147 0.62379 0.77627 0.0
C621 C 0.93437 0.63811 0.76054 0.0
H622 H 0.91633 0.59953 0.82864 0.0
H623 H 0.04081 0.73845 0.66972 0.0
H624 H 0.11878 0.18477 0.56889 0.0
H625 H 0.10146 0.15639 0.5967 0.0
H626 H 0.12689 0.132 0.45298 0.0
H627 H 0.14424 0.16041 0.42509 0.0
H628 H 0.08839 0.12427 0.46701 0.0
H629 H 0.14329 0.12108 0.57809 0.0
H630 H 0.16661 0.13178 0.64264 0.0
H631 H 0.1204 0.13567 0.7675 0.0
H632 H 0.09674 0.12523 0.70342 0.0
H633 H 0.0548 0.03557 0.5664 0.0
H634 H 0.07388 0.06202 0.52903 0.0
H635 H 0.05691 0.09044 0.67403 0.0
H636 H 0.03878 0.06372 0.71264 0.0
H637 H 0.09358 0.09454 0.65383 0.0
H638 H 0.03822 0.1009 0.53698 0.0
H639 H 0.01545 0.08933 0.47214 0.0
H640 H 0.06339 0.07791 0.35918 0.0
H641 H 0.0864 0.08975 0.42288 0.0
C642 C 0.12069 0.17333 0.54338 0.0
C643 C 0.1325 0.17486 0.4943 0.0
C644 C 0.11083 0.15712 0.55928 0.0
C645 C 0.11292 0.14206 0.52693 0.0
C646 C 0.12495 0.1435 0.47827 0.0
C647 C 0.13472 0.15975 0.46218 0.0
C648 C 0.10241 0.12489 0.54396 0.0
C649 C 0.08969 0.11763 0.50763 0.0
C650 C 0.10402 0.11629 0.597 0.0
C651 C 0.11822 0.12252 0.63576 0.0
C652 C 0.13807 0.12435 0.61916 0.0
C653 C 0.15136 0.13035 0.6557 0.0
C654 C 0.14498 0.13444 0.70909 0.0
C655 C 0.12531 0.13251 0.72611 0.0
C656 C 0.11196 0.12653 0.68971 0.0
C657 C 0.05497 0.04758 0.58983 0.0
C658 C 0.04534 0.04764 0.64235 0.0
C659 C 0.0658 0.06272 0.56838 0.0
C660 C 0.0667 0.07836 0.59839 0.0
C661 C 0.05654 0.07854 0.65013 0.0
C662 C 0.04611 0.0633 0.67208 0.0
C663 C 0.07895 0.09425 0.57776 0.0
C664 C 0.0922 0.10118 0.61326 0.0
C665 C 0.07785 0.1025 0.52397 0.0
C666 C 0.064 0.09609 0.48477 0.0
C667 C 0.04387 0.09598 0.4982 0.0
C668 C 0.03093 0.08944 0.46157 0.0
C669 C 0.03796 0.08295 0.41147 0.0
C670 C 0.05795 0.08309 0.39777 0.0
C671 C 0.07094 0.08979 0.43397 0.0
H672 H 0.02793 0.0778 0.38331 0.0
H673 H 0.15529 0.13908 0.73732 0.0
H674 H 0.29881 0.91568 0.60155 0.0
H675 H 0.3245 0.9322 0.64368 0.0
H676 H 0.36148 0.92898 0.4953 0.0
H677 H 0.33607 0.91204 0.45367 0.0
H678 H 0.35975 0.92182 0.6677 0.0
H679 H 0.39029 0.96985 0.47914 0.0
H680 H 0.37787 0.98775 0.40027 0.0
H681 H 0.32029 0.98515 0.47794 0.0
H682 H 0.33248 0.96815 0.55873 0.0
H683 H 0.45678 0.94545 0.69427 0.0
H684 H 0.42587 0.93566 0.66127 0.0
H685 H 0.40401 0.98996 0.66955 0.0
H686 H 0.43517 0.0 0.7017 0.0
H687 H 0.39397 0.97598 0.57773 0.0
H688 H 0.38883 0.95764 0.76723 0.0
H689 H 0.39892 0.94373 0.85564 0.0
H690 H 0.40072 0.8916 0.78699 0.0
H691 H 0.39089 0.9052 0.69789 0.0
C692 C 0.31241 0.91854 0.57788 0.0
C693 C 0.31524 0.91299 0.52372 0.0
C694 C 0.32704 0.92801 0.60194 0.0
C695 C 0.34476 0.93211 0.57226 0.0
C696 C 0.34771 0.92639 0.51839 0.0
C697 C 0.3331 0.91685 0.4944 0.0
C698 C 0.36059 0.94148 0.59857 0.0
C699 C 0.36719 0.93369 0.64804 0.0
C700 C 0.36986 0.95736 0.57388 0.0
C701 C 0.3623 0.96738 0.52484 0.0
C702 C 0.37498 0.97313 0.47962 0.0
C703 C 0.36799 0.98319 0.43458 0.0
C704 C 0.34827 0.98738 0.43377 0.0
C705 C 0.33554 0.98176 0.47839 0.0
C706 C 0.34251 0.97195 0.52395 0.0
C707 C 0.44543 0.95534 0.68907 0.0
C708 C 0.44841 0.97349 0.70083 0.0
C709 C 0.42772 0.9497 0.67045 0.0
C710 C 0.41252 0.96201 0.66383 0.0
C711 C 0.41552 0.98022 0.6746 0.0
C712 C 0.43332 0.98592 0.69301 0.0
C713 C 0.39363 0.95574 0.64505 0.0
C714 C 0.38643 0.96414 0.59725 0.0
C715 C 0.38341 0.94078 0.67208 0.0
C716 C 0.38924 0.93247 0.72571 0.0
C717 C 0.3915 0.94323 0.77084 0.0
C718 C 0.39716 0.9354 0.8211 0.0
C719 C 0.4005 0.91681 0.82687 0.0
C720 C 0.39814 0.906 0.78243 0.0
C721 C 0.39249 0.91376 0.73206 0.0
H722 H 0.40488 0.91078 0.86581 0.0
H723 H 0.34288 0.99508 0.3987 0.0
H724 H 0.4717 0.31219 0.34671 0.0
H725 H 0.46838 0.34131 0.38885 0.0
H726 H 0.53076 0.34534 0.39429 0.0
H727 H 0.53417 0.31642 0.35131 0.0
H728 H 0.51271 0.352 0.49208 0.0
H729 H 0.50699 0.37344 0.30067 0.0
H730 H 0.49312 0.37425 0.20938 0.0
H731 H 0.43632 0.38338 0.28418 0.0
H732 H 0.44997 0.3829 0.37605 0.0
H733 H 0.52915 0.44174 0.55144 0.0
H734 H 0.52769 0.4135 0.50511 0.0
H735 H 0.46516 0.41696 0.5065 0.0
H736 H 0.46653 0.44561 0.55203 0.0
H737 H 0.47988 0.40569 0.40989 0.0
H738 H 0.48674 0.38882 0.6002 0.0
H739 H 0.50116 0.38947 0.69066 0.0
H740 H 0.55544 0.37104 0.61985 0.0
H741 H 0.54148 0.37057 0.52871 0.0
C742 C 0.48472 0.31954 0.35525 0.0
C743 C 0.50322 0.31221 0.34446 0.0
C744 C 0.4828 0.33611 0.37982 0.0
C745 C 0.49934 0.34559 0.39421 0.0
C746 C 0.5178 0.33827 0.38348 0.0
C747 C 0.51973 0.32175 0.3589 0.0
C748 C 0.49749 0.36274 0.42262 0.0
C749 C 0.5057 0.3638 0.47388 0.0
C750 C 0.48772 0.37791 0.39991 0.0
C751 C 0.47944 0.37791 0.3451 0.0
C752 C 0.49152 0.37546 0.29764 0.0
C753 C 0.4837 0.3759 0.24581 0.0
C754 C 0.4638 0.37863 0.24105 0.0
C755 C 0.45171 0.38113 0.28803 0.0
C756 C 0.45949 0.38088 0.33993 0.0
C757 C 0.51507 0.43657 0.54168 0.0
C758 C 0.49793 0.44583 0.55582 0.0
C759 C 0.51426 0.42037 0.51543 0.0
C760 C 0.49628 0.41291 0.5035 0.0
C761 C 0.47917 0.42242 0.51573 0.0
C762 C 0.47997 0.43878 0.5417 0.0
C763 C 0.49554 0.3951 0.47871 0.0
C764 C 0.48675 0.39386 0.42839 0.0
C765 C 0.5047 0.37971 0.50251 0.0
C766 C 0.51309 0.37978 0.55747 0.0
C767 C 0.50179 0.38502 0.6038 0.0
C768 C 0.50987 0.38534 0.65522 0.0
C769 C 0.52919 0.38032 0.66097 0.0
C770 C 0.54047 0.37493 0.61533 0.0
C771 C 0.53248 0.37462 0.56378 0.0
H772 H 0.53542 0.38058 0.70082 0.0
H773 H 0.45776 0.37908 0.20092 0.0
H774 H 0.21533 0.56516 0.32883 0.0
H775 H 0.18974 0.54419 0.36688 0.0
H776 H 0.14889 0.58806 0.36922 0.0
H777 H 0.17439 0.60901 0.32937 0.0
H778 H 0.17166 0.54551 0.46502 0.0
H779 H 0.10294 0.57151 0.35531 0.0
H780 H 0.09475 0.58369 0.26298 0.0
H781 H 0.14435 0.5575 0.18994 0.0
H782 H 0.15275 0.54494 0.28147 0.0
H783 H 0.08205 0.5422 0.62011 0.0
H784 H 0.10859 0.55172 0.55342 0.0
H785 H 0.10255 0.50208 0.47124 0.0
H786 H 0.07621 0.4921 0.53939 0.0
H787 H 0.10463 0.53974 0.40265 0.0
H788 H 0.13694 0.49984 0.52699 0.0
H789 H 0.14621 0.4865 0.61683 0.0
H790 H 0.17161 0.53724 0.65387 0.0
H791 H 0.16172 0.55111 0.56537 0.0
C792 C 0.20073 0.5702 0.33551 0.0
C793 C 0.1967 0.58862 0.32489 0.0
C794 C 0.18618 0.55824 0.35788 0.0
C795 C 0.16735 0.56449 0.3702 0.0
C796 C 0.16322 0.58286 0.35898 0.0
C797 C 0.1778 0.59484 0.33666 0.0
C798 C 0.15256 0.5523 0.39993 0.0
C799 C 0.15707 0.54408 0.45104 0.0
C800 C 0.13366 0.5501 0.38102 0.0
C801 C 0.12857 0.55741 0.32551 0.0
C802 C 0.11207 0.56827 0.31953 0.0
C803 C 0.10743 0.57528 0.26729 0.0
C804 C 0.11914 0.57149 0.22063 0.0
C805 C 0.13548 0.56063 0.22613 0.0
C806 C 0.14016 0.55353 0.27819 0.0
C807 C 0.08635 0.53329 0.58787 0.0
C808 C 0.07711 0.51641 0.58487 0.0
C809 C 0.1015 0.53874 0.54991 0.0
C810 C 0.10745 0.52758 0.50765 0.0
C811 C 0.09809 0.51083 0.50373 0.0
C812 C 0.08317 0.50514 0.54268 0.0
C813 C 0.12365 0.53369 0.46836 0.0
C814 C 0.11936 0.54087 0.41581 0.0
C815 C 0.14286 0.53474 0.4855 0.0
C816 C 0.14833 0.52659 0.53969 0.0
C817 C 0.14414 0.50827 0.55473 0.0
C818 C 0.14953 0.50059 0.60546 0.0
C819 C 0.15939 0.51103 0.64123 0.0
C820 C 0.16385 0.52918 0.62634 0.0
C821 C 0.15829 0.53698 0.57596 0.0
H822 H 0.16365 0.50503 0.68034 0.0
H823 H 0.1155 0.57688 0.18019 0.0
H824 H 0.94444 0.81583 0.0209 0.0
H825 H 0.96108 0.84464 0.99351 0.0
H826 H 0.93146 0.84773 0.84168 0.0
H827 H 0.91399 0.81946 0.87027 0.0
H828 H 0.97163 0.85543 0.82727 0.0
H829 H 0.91546 0.87381 0.93555 0.0
H830 H 0.8924 0.87439 0.01688 0.0
H831 H 0.93889 0.88884 0.11672 0.0
H832 H 0.96222 0.8884 0.03603 0.0
H833 H 0.98197 0.94579 0.7289 0.0
H834 H 0.96932 0.91648 0.76542 0.0
H835 H 0.99751 0.923 0.91717 0.0
H836 H 0.00996 0.95285 0.88112 0.0
H837 H 0.96122 0.90944 0.93664 0.0
H838 H 0.01656 0.89535 0.81895 0.0
H839 H 0.0373 0.89718 0.73262 0.0
H840 H 0.9909 0.87499 0.64591 0.0
H841 H 0.96976 0.87334 0.73142 0.0
C842 C 0.94117 0.82285 0.98226 0.0
C843 C 0.92768 0.81558 0.94811 0.0
C844 C 0.95086 0.83917 0.96639 0.0
C845 C 0.9474 0.84833 0.91574 0.0
C846 C 0.93436 0.84082 0.88086 0.0
C847 C 0.92448 0.82464 0.89708 0.0
C848 C 0.95715 0.86589 0.8993 0.0
C849 C 0.96931 0.86728 0.85094 0.0
C850 C 0.95441 0.88119 0.93089 0.0
C851 C 0.94059 0.88091 0.97992 0.0
C852 C 0.92078 0.87696 0.97501 0.0
C853 C 0.90765 0.87737 0.02091 0.0
C854 C 0.91415 0.88179 0.07186 0.0
C855 C 0.93384 0.88559 0.07716 0.0
C856 C 0.94703 0.88528 0.03136 0.0
C857 C 0.9855 0.94106 0.77013 0.0
C858 C 0.9971 0.9516 0.80202 0.0
C859 C 0.97834 0.92421 0.79082 0.0
C860 C 0.98286 0.91734 0.84348 0.0
C861 C 0.994 0.928 0.87618 0.0
C862 C 0.00108 0.94503 0.8556 0.0
C863 C 0.97561 0.89912 0.86416 0.0
C864 C 0.96389 0.89755 0.91337 0.0
C865 C 0.97866 0.88369 0.83298 0.0
C866 C 0.99152 0.88432 0.78164 0.0
C867 C 0.01074 0.89095 0.78142 0.0
C868 C 0.02257 0.89196 0.73259 0.0
C869 C 0.01541 0.88625 0.68376 0.0
C870 C 0.99642 0.87944 0.68371 0.0
C871 C 0.98452 0.87844 0.73238 0.0
H872 H 0.02458 0.88706 0.64599 0.0
H873 H 0.90393 0.88225 0.10724 0.0
H874 H 0.71056 0.01367 0.96152 0.0
H875 H 0.67919 0.00741 0.92357 0.0
H876 H 0.65259 0.04861 0.02065 0.0
H877 H 0.68374 0.05417 0.06053 0.0
H878 H 0.62893 0.02225 0.02307 0.0
H879 H 0.66572 0.05473 0.87565 0.0
H880 H 0.69372 0.06146 0.80954 0.0
H881 H 0.68583 0.01025 0.73893 0.0
H882 H 0.65794 0.00311 0.80511 0.0
H883 H 0.54502 0.03046 0.85832 0.0
H884 H 0.57594 0.03768 0.89824 0.0
H885 H 0.59948 0.98701 0.84813 0.0
H886 H 0.56865 0.97951 0.80937 0.0
H887 H 0.6239 0.01934 0.82094 0.0
H888 H 0.58642 0.98786 0.97251 0.0
H889 H 0.55785 0.98299 0.03774 0.0
H890 H 0.56654 0.03557 0.09872 0.0
H891 H 0.59497 0.04089 0.03311 0.0
C892 C 0.69795 0.0213 0.97477 0.0
C893 C 0.69944 0.03428 0.01413 0.0
C894 C 0.68007 0.01783 0.95283 0.0
C895 C 0.66354 0.02779 0.96833 0.0
C896 C 0.66508 0.04072 0.008 0.0
C897 C 0.68285 0.04387 0.03087 0.0
C898 C 0.64464 0.0247 0.94352 0.0
C899 C 0.62785 0.02192 0.97878 0.0
C900 C 0.64313 0.02403 0.88573 0.0
C901 C 0.65985 0.02832 0.84568 0.0
C902 C 0.67004 0.04486 0.84626 0.0
C903 C 0.68588 0.04875 0.80874 0.0
C904 C 0.69157 0.03627 0.77015 0.0
C905 C 0.68141 0.0199 0.76889 0.0
C906 C 0.66557 0.01593 0.80636 0.0
C907 C 0.55682 0.0209 0.85578 0.0
C908 C 0.55443 0.00441 0.83092 0.0
C909 C 0.5744 0.02501 0.87865 0.0
C910 C 0.58988 0.01283 0.87613 0.0
C911 C 0.58766 0.99655 0.8504 0.0
C912 C 0.57002 0.99228 0.8285 0.0
C913 C 0.60847 0.01692 0.90052 0.0
C914 C 0.62512 0.01985 0.86514 0.0
C915 C 0.60978 0.01806 0.958 0.0
C916 C 0.59266 0.01487 0.99736 0.0
C917 C 0.5821 0.99847 0.99936 0.0
C918 C 0.56596 0.99561 0.03651 0.0
C919 C 0.56034 0.00899 0.07221 0.0
C920 C 0.57088 0.02524 0.07094 0.0
C921 C 0.587 0.02818 0.03378 0.0
H922 H 0.54785 0.00674 0.10098 0.0
H923 H 0.70384 0.03931 0.74114 0.0
H924 H 0.56078 0.66567 0.94358 0.0
H925 H 0.53934 0.6411 0.91984 0.0
H926 H 0.58238 0.62566 0.79579 0.0
H927 H 0.60388 0.65009 0.81971 0.0
H928 H 0.54754 0.62497 0.75653 0.0
H929 H 0.57659 0.6027 0.92207 0.0
H930 H 0.58513 0.60165 0.01939 0.0
H931 H 0.52457 0.60037 0.07234 0.0
H932 H 0.51565 0.6017 0.97523 0.0
H933 H 0.52941 0.52453 0.79308 0.0
H934 H 0.53926 0.55242 0.83233 0.0
H935 H 0.49275 0.58082 0.75419 0.0
H936 H 0.48286 0.55273 0.71387 0.0
H937 H 0.52457 0.57718 0.89755 0.0
H938 H 0.51251 0.62203 0.70162 0.0
H939 H 0.50844 0.61898 0.60227 0.0
H940 H 0.54238 0.57055 0.60702 0.0
H941 H 0.5469 0.57349 0.70609 0.0
C942 C 0.56582 0.65679 0.91211 0.0
C943 C 0.58423 0.65944 0.8846 0.0
C944 C 0.55348 0.64289 0.89816 0.0
C945 C 0.55935 0.63142 0.85646 0.0
C946 C 0.57753 0.63436 0.82806 0.0
C947 C 0.58983 0.64827 0.84187 0.0
C948 C 0.54681 0.61611 0.84275 0.0
C949 C 0.54233 0.61464 0.78753 0.0
C950 C 0.54013 0.60254 0.88306 0.0
C951 C 0.54545 0.60252 0.94136 0.0
C952 C 0.56509 0.60245 0.95443 0.0
C953 C 0.57 0.60174 0.00954 0.0
C954 C 0.5554 0.60091 0.05195 0.0
C955 C 0.53585 0.601 0.03939 0.0
C956 C 0.53086 0.60174 0.98434 0.0
C957 C 0.52101 0.53662 0.78502 0.0
C958 C 0.50554 0.53653 0.74975 0.0
C959 C 0.5266 0.55254 0.80782 0.0
C960 C 0.51691 0.56874 0.79559 0.0
C961 C 0.50053 0.56846 0.76365 0.0
C962 C 0.49485 0.55242 0.74086 0.0
C963 C 0.52553 0.58596 0.81139 0.0
C964 C 0.52928 0.58781 0.86694 0.0
C965 C 0.53211 0.59958 0.77116 0.0
C966 C 0.5298 0.59786 0.71138 0.0
C967 C 0.51914 0.61077 0.68138 0.0
C968 C 0.51677 0.60906 0.62513 0.0
C969 C 0.52508 0.59454 0.59841 0.0
C970 C 0.53589 0.58176 0.6278 0.0
C971 C 0.53835 0.58344 0.68399 0.0
H972 H 0.5232 0.59322 0.5549 0.0
H973 H 0.55922 0.60004 0.09454 0.0
H974 H 0.83849 0.49602 0.07629 0.0
H975 H 0.86998 0.48369 0.04608 0.0
H976 H 0.87491 0.52427 0.91091 0.0
H977 H 0.84371 0.53677 0.9414 0.0
H978 H 0.88452 0.49219 0.87596 0.0
H979 H 0.89901 0.52807 0.02809 0.0
H980 H 0.89798 0.53756 0.12375 0.0
H981 H 0.91775 0.48519 0.18014 0.0
H982 H 0.91847 0.47523 0.08491 0.0
H983 H 0.99013 0.51408 0.86192 0.0
H984 H 0.95953 0.51186 0.91704 0.0
H985 H 0.94802 0.45966 0.85462 0.0
H986 H 0.97893 0.46191 0.79851 0.0
H987 H 0.94067 0.49021 0.99519 0.0
H988 H 0.89954 0.4606 0.82294 0.0
H989 H 0.90361 0.45655 0.7228 0.0
H990 H 0.9396 0.5044 0.70129 0.0
H991 H 0.93549 0.50886 0.80109 0.0
C992 C 0.84652 0.50257 0.04099 0.0
C993 C 0.8389 0.51767 0.01208 0.0
C994 C 0.86439 0.49537 0.02336 0.0
C995 C 0.87484 0.50312 0.97642 0.0
C996 C 0.86706 0.51801 0.94711 0.0
C997 C 0.84926 0.52519 0.96467 0.0
C998 C 0.89402 0.49606 0.95752 0.0
C999 C 0.89672 0.49148 0.90236 0.0
C1000 C 0.90996 0.49516 0.99184 0.0
C1001 C 0.90852 0.50082 0.04947 0.0
C1002 C 0.90282 0.51847 0.061 0.0
C1003 C 0.90235 0.52396 0.11512 0.0
C1004 C 0.9078 0.51199 0.15797 0.0
C1005 C 0.9135 0.49444 0.14691 0.0
C1006 C 0.9139 0.48885 0.0929 0.0
C1007 C 0.98131 0.50193 0.86081 0.0
C1008 C 0.98671 0.48828 0.82535 0.0
C1009 C 0.96388 0.50061 0.89271 0.0
C1010 C 0.95139 0.48571 0.88946 0.0
C1011 C 0.95743 0.47134 0.85738 0.0
C1012 C 0.97507 0.4726 0.82553 0.0
C1013 C 0.93121 0.4868 0.9135 0.0
C1014 C 0.92828 0.49023 0.96954 0.0
C1015 C 0.91515 0.48724 0.87965 0.0
C1016 C 0.91742 0.48489 0.81948 0.0
C1017 C 0.90828 0.47026 0.79676 0.0
C1018 C 0.91058 0.4679 0.74009 0.0
C1019 C 0.92193 0.48016 0.70575 0.0
C1020 C 0.93088 0.49488 0.72795 0.0
C1021 C 0.92856 0.49732 0.78454 0.0
H1022 H 0.92373 0.47829 0.66192 0.0
H1023 H 0.9077 0.51636 0.19969 0.0
H1024 H 0.11128 0.1522 0.21516 0.0
H1025 H 0.0982 0.1307 0.15395 0.0
H1026 H 0.06535 0.10387 0.29176 0.0
H1027 H 0.07851 0.12523 0.35392 0.0
H1028 H 0.08621 0.07997 0.22272 0.0
H1029 H 0.04125 0.12867 0.20829 0.0
H1030 H 0.03131 0.16047 0.19462 0.0
H1031 H 0.05875 0.16335 0.03116 0.0
H1032 H 0.06912 0.13163 0.04415 0.0
H1033 H 0.0346 0.02623 0.03918 0.0
H1034 H 0.0436 0.04521 0.11359 0.0
H1035 H 0.07085 0.08388 0.99261 0.0
H1036 H 0.06136 0.06531 0.91871 0.0
H1037 H 0.0492 0.10092 0.06221 0.0
H1038 H 0.09686 0.05364 0.07835 0.0
H1039 H 0.10803 0.02219 0.09144 0.0
H1040 H 0.07695 0.01684 0.24991 0.0
H1041 H 0.06537 0.04821 0.23743 0.0
C1042 C 0.10128 0.14173 0.23262 0.0
C1043 C 0.09593 0.14044 0.28943 0.0
C1044 C 0.09379 0.12949 0.19753 0.0
C1045 C 0.08082 0.11572 0.21851 0.0
C1046 C 0.07547 0.11432 0.27512 0.0
C1047 C 0.08291 0.12661 0.31036 0.0
C1048 C 0.07303 0.10278 0.18093 0.0
C1049 C 0.07783 0.08444 0.18807 0.0
C1050 C 0.06237 0.10874 0.13545 0.0
C1051 C 0.0561 0.12781 0.12738 0.0
C1052 C 0.04531 0.13613 0.16959 0.0
C1053 C 0.03957 0.15413 0.16193 0.0
C1054 C 0.04443 0.16394 0.11209 0.0
C1055 C 0.05501 0.15574 0.06976 0.0
C1056 C 0.0608 0.13774 0.07723 0.0
C1057 C 0.04268 0.03871 0.02882 0.0
C1058 C 0.0472 0.04441 0.9734 0.0
C1059 C 0.04784 0.04952 0.07122 0.0
C1060 C 0.05796 0.06599 0.05875 0.0
C1061 C 0.06291 0.07135 0.00333 0.0
C1062 C 0.05753 0.06072 0.96114 0.0
C1063 C 0.06292 0.07809 0.10267 0.0
C1064 C 0.05747 0.09633 0.09697 0.0
C1065 C 0.07312 0.07203 0.14915 0.0
C1066 C 0.08005 0.05319 0.15664 0.0
C1067 C 0.09227 0.04571 0.11577 0.0
C1068 C 0.0987 0.02791 0.12312 0.0
C1069 C 0.09315 0.0175 0.17139 0.0
C1070 C 0.0812 0.0249 0.21249 0.0
C1071 C 0.0747 0.04269 0.20531 0.0
H1072 H 0.09815 0.00373 0.17701 0.0
H1073 H 0.03997 0.17787 0.10624 0.0
H1074 H 0.34799 0.93705 0.22102 0.0
H1075 H 0.37186 0.94671 0.14697 0.0
H1076 H 0.40521 0.97388 0.2632 0.0
H1077 H 0.38187 0.96343 0.338 0.0
H1078 H 0.38398 0.97733 0.1014 0.0
H1079 H 0.45321 0.9728 0.22479 0.0
H1080 H 0.46518 0.95627 0.30706 0.0
H1081 H 0.42599 0.91212 0.28574 0.0
H1082 H 0.41397 0.92829 0.20299 0.0
H1083 H 0.46209 0.0125 0.92463 0.0
H1084 H 0.44084 0.00722 0.00828 0.0
H1085 H 0.45673 0.9509 0.01699 0.0
H1086 H 0.47822 0.95609 0.93416 0.0
H1087 H 0.45385 0.9634 0.11772 0.0
H1088 H 0.4154 0.96438 0.95866 0.0
H1089 H 0.40323 0.97755 0.87175 0.0
H1090 H 0.37982 0.02242 0.95693 0.0
H1091 H 0.39216 0.00969 0.04418 0.0
C1092 C 0.36039 0.9451 0.23091 0.0
C1093 C 0.36304 0.94946 0.28552 0.0
C1094 C 0.37399 0.95069 0.18841 0.0
C1095 C 0.39046 0.96087 0.19949 0.0
C1096 C 0.39281 0.96577 0.25372 0.0
C1097 C 0.37935 0.95992 0.29642 0.0
C1098 C 0.40534 0.96587 0.15437 0.0
C1099 C 0.39926 0.97437 0.10517 0.0
C1100 C 0.42528 0.9618 0.15881 0.0
C1101 C 0.43255 0.95185 0.20811 0.0
C1102 C 0.4472 0.95954 0.2376 0.0
C1103 C 0.45398 0.95024 0.28431 0.0
C1104 C 0.4463 0.93318 0.30173 0.0
C1105 C 0.43187 0.92536 0.27233 0.0
C1106 C 0.42506 0.93459 0.22556 0.0
C1107 C 0.46126 0.99904 0.94477 0.0
C1108 C 0.4717 0.98467 0.92244 0.0
C1109 C 0.44907 0.99604 0.99246 0.0
C1110 C 0.44699 0.97861 0.01834 0.0
C1111 C 0.4581 0.96445 0.99763 0.0
C1112 C 0.47033 0.96744 0.95013 0.0
C1113 C 0.43245 0.9748 0.06498 0.0
C1114 C 0.43859 0.96656 0.11436 0.0
C1115 C 0.41249 0.9786 0.06013 0.0
C1116 C 0.40488 0.98618 0.00782 0.0
C1117 C 0.40778 0.97712 0.95878 0.0
C1118 C 0.40083 0.98449 0.90947 0.0
C1119 C 0.39079 0.00082 0.90882 0.0
C1120 C 0.38763 0.00979 0.95749 0.0
C1121 C 0.39459 0.00251 0.00688 0.0
H1122 H 0.38542 0.0065 0.87061 0.0
H1123 H 0.45155 0.92601 0.33793 0.0
H1124 H 0.49965 0.35756 0.1162 0.0
H1125 H 0.49358 0.38298 0.05174 0.0
H1126 H 0.43198 0.37142 0.06897 0.0
H1127 H 0.43792 0.3458 0.13471 0.0
H1128 H 0.4473 0.3775 0.95762 0.0
H1129 H 0.44443 0.40967 0.1228 0.0
H1130 H 0.45432 0.41814 0.21391 0.0
H1131 H 0.511 0.43363 0.14321 0.0
H1132 H 0.50133 0.42556 0.05146 0.0
H1133 H 0.44848 0.45888 0.77564 0.0
H1134 H 0.43857 0.43823 0.85544 0.0
H1135 H 0.4985 0.43365 0.89679 0.0
H1136 H 0.50845 0.45407 0.81803 0.0
H1137 H 0.47379 0.43848 0.98769 0.0
H1138 H 0.47763 0.40203 0.82597 0.0
H1139 H 0.46776 0.39387 0.73456 0.0
H1140 H 0.40887 0.3857 0.79972 0.0
H1141 H 0.41834 0.39412 0.89136 0.0
C1142 C 0.48477 0.36037 0.10656 0.0
C1143 C 0.46925 0.34973 0.13091 0.0
C1144 C 0.48132 0.37501 0.06994 0.0
C1145 C 0.46231 0.37924 0.05641 0.0
C1146 C 0.44674 0.36843 0.07943 0.0
C1147 C 0.45017 0.35381 0.11678 0.0
C1148 C 0.45927 0.3946 0.01625 0.0
C1149 C 0.45251 0.391 0.96459 0.0
C1150 C 0.4662 0.41213 0.02536 0.0
C1151 C 0.47217 0.41696 0.08036 0.0
C1152 C 0.45901 0.41486 0.12673 0.0
C1153 C 0.46455 0.41966 0.17842 0.0
C1154 C 0.4833 0.42633 0.18441 0.0
C1155 C 0.49648 0.42844 0.13854 0.0
C1156 C 0.49094 0.42388 0.08661 0.0
C1157 C 0.45949 0.45353 0.80203 0.0
C1158 C 0.47925 0.45801 0.7904 0.0
C1159 C 0.45381 0.44175 0.84744 0.0
C1160 C 0.46783 0.43442 0.88184 0.0
C1161 C 0.48745 0.43923 0.87088 0.0
C1162 C 0.49312 0.45082 0.82558 0.0
C1163 C 0.46257 0.42119 0.92837 0.0
C1164 C 0.46786 0.42519 0.98123 0.0
C1165 C 0.45425 0.40407 0.92025 0.0
C1166 C 0.44863 0.39895 0.86526 0.0
C1167 C 0.46255 0.39866 0.82067 0.0
C1168 C 0.45704 0.39395 0.76886 0.0
C1169 C 0.4377 0.38932 0.7613 0.0
C1170 C 0.42384 0.38934 0.8056 0.0
C1171 C 0.42926 0.39408 0.85746 0.0
H1172 H 0.43346 0.38568 0.72117 0.0
H1173 H 0.4876 0.42989 0.22456 0.0
H1174 H 0.16871 0.57877 0.08607 0.0
H1175 H 0.14632 0.56407 0.02824 0.0
H1176 H 0.16443 0.51169 0.09243 0.0
H1177 H 0.18696 0.52638 0.15108 0.0
H1178 H 0.15493 0.54126 0.9465 0.0
H1179 H 0.12534 0.48339 0.09202 0.0
H1180 H 0.11871 0.47534 0.1914 0.0
H1181 H 0.10843 0.53115 0.22092 0.0
H1182 H 0.11544 0.53961 0.12182 0.0
H1183 H 0.09275 0.48562 0.79711 0.0
H1184 H 0.11669 0.49092 0.86601 0.0
H1185 H 0.07744 0.52803 0.94407 0.0
H1186 H 0.05388 0.52333 0.87449 0.0
H1187 H 0.09934 0.50202 0.019 0.0
H1188 H 0.10576 0.54723 0.8638 0.0
H1189 H 0.11039 0.55641 0.76472 0.0
H1190 H 0.16489 0.52861 0.75632 0.0
H1191 H 0.16028 0.51886 0.85501 0.0
C1192 C 0.16797 0.56412 0.08802 0.0
C1193 C 0.17966 0.55373 0.123 0.0
C1194 C 0.15516 0.55574 0.05488 0.0
C1195 C 0.1537 0.53681 0.05616 0.0
C1196 C 0.16526 0.52633 0.09119 0.0
C1197 C 0.17819 0.53473 0.12435 0.0
C1198 C 0.14036 0.52829 0.0194 0.0
C1199 C 0.14291 0.53252 0.96239 0.0
C1200 C 0.12471 0.51685 0.04001 0.0
C1201 C 0.12108 0.51211 0.09975 0.0
C1202 C 0.12179 0.49395 0.11983 0.0
C1203 C 0.11805 0.48934 0.17607 0.0
C1204 C 0.11334 0.50277 0.21248 0.0
C1205 C 0.11238 0.52084 0.19272 0.0
C1206 C 0.11632 0.52555 0.13659 0.0
C1207 C 0.08918 0.49468 0.82952 0.0
C1208 C 0.07163 0.50422 0.8304 0.0
C1209 C 0.10278 0.49765 0.86878 0.0
C1210 C 0.09871 0.50979 0.91004 0.0
C1211 C 0.08073 0.5185 0.91273 0.0
C1212 C 0.06739 0.51593 0.87277 0.0
C1213 C 0.11389 0.51518 0.94651 0.0
C1214 C 0.11166 0.51038 0.00321 0.0
C1215 C 0.12978 0.52623 0.92579 0.0
C1216 C 0.13253 0.53207 0.86648 0.0
C1217 C 0.11859 0.54286 0.8406 0.0
C1218 C 0.12122 0.54819 0.78452 0.0
C1219 C 0.13786 0.54301 0.75409 0.0
C1220 C 0.15193 0.53252 0.77974 0.0
C1221 C 0.14931 0.52707 0.83574 0.0
H1222 H 0.13988 0.54723 0.71075 0.0
H1223 H 0.11033 0.49918 0.25596 0.0
H1224 H 0.89881 0.87032 0.21871 0.0
H1225 H 0.91375 0.8929 0.27301 0.0
H1226 H 0.97037 0.87098 0.23394 0.0
H1227 H 0.95558 0.8483 0.17978 0.0
H1228 H 0.96477 0.87645 0.34303 0.0
H1229 H 0.95873 0.9125 0.17161 0.0
H1230 H 0.9414 0.92554 0.09269 0.0
H1231 H 0.89995 0.94961 0.20417 0.0
H1232 H 0.91714 0.93683 0.28369 0.0
H1233 H 0.01968 0.94504 0.45128 0.0
H1234 H 0.00644 0.92566 0.38398 0.0
H1235 H 0.94948 0.94797 0.41576 0.0
H1236 H 0.96271 0.96757 0.48245 0.0
H1237 H 0.95574 0.94253 0.30841 0.0
H1238 H 0.96242 0.90804 0.47973 0.0
H1239 H 0.98015 0.89612 0.55915 0.0
H1240 H 0.01953 0.86859 0.4501 0.0
H1241 H 0.00222 0.8806 0.36989 0.0
C1242 C 0.91444 0.87028 0.22172 0.0
C1243 C 0.926 0.85749 0.19497 0.0
C1244 C 0.92297 0.88329 0.25239 0.0
C1245 C 0.9432 0.88375 0.25692 0.0
C1246 C 0.95474 0.87089 0.2308 0.0
C1247 C 0.94625 0.85792 0.19996 0.0
C1248 C 0.95224 0.89721 0.29067 0.0
C1249 C 0.96306 0.89091 0.33495 0.0
C1250 C 0.94955 0.91604 0.28105 0.0
C1251 C 0.93909 0.92357 0.23347 0.0
C1252 C 0.94585 0.92049 0.17923 0.0
C1253 C 0.9361 0.92788 0.13442 0.0
C1254 C 0.91952 0.9383 0.14342 0.0
C1255 C 0.91276 0.94149 0.19725 0.0
C1256 C 0.92254 0.93424 0.24218 0.0
C1257 C 0.00438 0.94593 0.44339 0.0
C1258 C 0.99218 0.95769 0.47234 0.0
C1259 C 0.99683 0.93485 0.40508 0.0
C1260 C 0.9769 0.93511 0.39575 0.0
C1261 C 0.96489 0.94752 0.42246 0.0
C1262 C 0.97247 0.95874 0.46043 0.0
C1263 C 0.96836 0.92178 0.36058 0.0
C1264 C 0.95755 0.92808 0.31631 0.0
C1265 C 0.97095 0.90292 0.37047 0.0
C1266 C 0.98113 0.89536 0.41875 0.0
C1267 C 0.97493 0.89952 0.47266 0.0
C1268 C 0.9849 0.89275 0.51782 0.0
C1269 C 0.00099 0.88164 0.50967 0.0
C1270 C 0.00708 0.87722 0.45634 0.0
C1271 C 0.99719 0.884 0.41101 0.0
H1272 H 0.00871 0.87642 0.54466 0.0
H1273 H 0.91196 0.94395 0.10868 0.0
H1274 H 0.61868 0.05313 0.21911 0.0
H1275 H 0.59287 0.04497 0.28991 0.0
H1276 H 0.6257 0.99869 0.34542 0.0
H1277 H 0.65155 0.00671 0.27496 0.0
H1278 H 0.58631 0.99085 0.33915 0.0
H1279 H 0.627 0.03649 0.41142 0.0
H1280 H 0.643 0.06637 0.41283 0.0
H1281 H 0.58738 0.0922 0.41343 0.0
H1282 H 0.57107 0.06248 0.41082 0.0
H1283 H 0.5469 0.97058 0.61241 0.0
H1284 H 0.56633 0.97724 0.52614 0.0
H1285 H 0.53465 0.02672 0.49823 0.0
H1286 H 0.51566 0.02042 0.58516 0.0
H1287 H 0.57116 0.03367 0.4847 0.0
H1288 H 0.52972 0.98927 0.41758 0.0
H1289 H 0.51253 0.95995 0.4163 0.0
H1290 H 0.56719 0.93254 0.40459 0.0
H1291 H 0.58472 0.96169 0.40654 0.0
C1292 C 0.62036 0.04115 0.24616 0.0
C1293 C 0.63725 0.03065 0.24172 0.0
C1294 C 0.60561 0.03654 0.28661 0.0
C1295 C 0.60747 0.02132 0.32315 0.0
C1296 C 0.624 0.01049 0.31763 0.0
C1297 C 0.6388 0.01516 0.2775 0.0
C1298 C 0.59261 0.01701 0.36863 0.0
C1299 C 0.58305 0.00013 0.37126 0.0
C1300 C 0.58797 0.02938 0.40947 0.0
C1301 C 0.59784 0.04727 0.41006 0.0
C1302 C 0.6182 0.04855 0.41109 0.0
C1303 C 0.62732 0.06546 0.41223 0.0
C1304 C 0.61623 0.08118 0.41295 0.0
C1305 C 0.59597 0.08002 0.41261 0.0
C1306 C 0.58678 0.06315 0.41124 0.0
C1307 C 0.5439 0.98274 0.58747 0.0
C1308 C 0.52984 0.99502 0.60572 0.0
C1309 C 0.55495 0.9865 0.53798 0.0
C1310 C 0.55187 0.00243 0.50537 0.0
C1311 C 0.53734 0.01437 0.52269 0.0
C1312 C 0.52647 0.01073 0.57239 0.0
C1313 C 0.56482 0.0074 0.45571 0.0
C1314 C 0.57413 0.02442 0.45232 0.0
C1315 C 0.56901 0.99524 0.41388 0.0
C1316 C 0.55853 0.97766 0.41268 0.0
C1317 C 0.53808 0.97698 0.41517 0.0
C1318 C 0.52827 0.96039 0.41424 0.0
C1319 C 0.53876 0.94439 0.4105 0.0
C1320 C 0.55908 0.94495 0.40754 0.0
C1321 C 0.56896 0.9615 0.40848 0.0
H1322 H 0.53115 0.93156 0.40978 0.0
H1323 H 0.62332 0.09425 0.41398 0.0
H1324 H 0.5452 0.63354 0.16201 0.0
H1325 H 0.53413 0.61274 0.23954 0.0
H1326 H 0.59305 0.59491 0.25717 0.0
H1327 H 0.60419 0.61539 0.17909 0.0
H1328 H 0.56879 0.56679 0.26158 0.0
H1329 H 0.57101 0.62328 0.34772 0.0
H1330 H 0.56379 0.6554 0.36031 0.0
H1331 H 0.50272 0.64278 0.37951 0.0
H1332 H 0.50956 0.61061 0.36625 0.0
H1333 H 0.55258 0.51987 0.52474 0.0
H1334 H 0.56421 0.54144 0.4497 0.0
H1335 H 0.50516 0.55737 0.42385 0.0
H1336 H 0.49339 0.53594 0.49889 0.0
H1337 H 0.52983 0.58654 0.42485 0.0
H1338 H 0.52792 0.53 0.33715 0.0
H1339 H 0.53548 0.49785 0.32619 0.0
H1340 H 0.59654 0.51076 0.31145 0.0
H1341 H 0.58934 0.54297 0.32312 0.0
C1342 C 0.55583 0.62527 0.1826 0.0
C1343 C 0.57559 0.62615 0.16446 0.0
C1344 C 0.54948 0.61343 0.22703 0.0
C1345 C 0.5628 0.60241 0.25454 0.0
C1346 C 0.58253 0.6033 0.23658 0.0
C1347 C 0.58888 0.61507 0.19204 0.0
C1348 C 0.55612 0.58957 0.30109 0.0
C1349 C 0.56051 0.57116 0.29763 0.0
C1350 C 0.54495 0.59521 0.3476 0.0
C1351 C 0.54079 0.61456 0.35539 0.0
C1352 C 0.55603 0.62738 0.35412 0.0
C1353 C 0.55201 0.64559 0.36148 0.0
C1354 C 0.5328 0.65114 0.37054 0.0
C1355 C 0.51758 0.63847 0.3724 0.0
C1356 C 0.52153 0.62024 0.365 0.0
C1357 C 0.54206 0.52791 0.50296 0.0
C1358 C 0.52205 0.52612 0.51758 0.0
C1359 C 0.54873 0.54021 0.46006 0.0
C1360 C 0.53553 0.55089 0.43099 0.0
C1361 C 0.51558 0.54924 0.44578 0.0
C1362 C 0.50889 0.53692 0.4885 0.0
C1363 C 0.54249 0.56383 0.38515 0.0
C1364 C 0.53814 0.58222 0.38877 0.0
C1365 C 0.55374 0.5582 0.33886 0.0
C1366 C 0.55809 0.53886 0.33157 0.0
C1367 C 0.54296 0.52596 0.33202 0.0
C1368 C 0.54718 0.50773 0.3256 0.0
C1369 C 0.56648 0.50226 0.31828 0.0
C1370 C 0.5816 0.51502 0.31721 0.0
C1371 C 0.57745 0.53326 0.32368 0.0
H1372 H 0.56972 0.48814 0.31331 0.0
H1373 H 0.52972 0.66524 0.37626 0.0
H1374 H 0.88407 0.46921 0.2496 0.0
H1375 H 0.90878 0.46801 0.31828 0.0
H1376 H 0.89486 0.5225 0.35936 0.0
H1377 H 0.87027 0.52387 0.29094 0.0
H1378 H 0.93399 0.51762 0.3421 0.0
H1379 H 0.87987 0.48748 0.44491 0.0
H1380 H 0.85385 0.4644 0.46205 0.0
H1381 H 0.89627 0.42225 0.457 0.0
H1382 H 0.92253 0.44509 0.43907 0.0
H1383 H 0.98123 0.5257 0.58894 0.0
H1384 H 0.95692 0.52399 0.52013 0.0
H1385 H 0.9724 0.46855 0.49566 0.0
H1386 H 0.99656 0.47002 0.56533 0.0
H1387 H 0.93364 0.47243 0.50129 0.0
H1388 H 0.9879 0.50221 0.40202 0.0
H1389 H 0.01416 0.52504 0.3847 0.0
H1390 H 0.972 0.56745 0.3814 0.0
H1391 H 0.94549 0.54488 0.39949 0.0
C1392 C 0.88616 0.48088 0.2736 0.0
C1393 C 0.8752 0.49663 0.26484 0.0
C1394 C 0.90026 0.48016 0.31283 0.0
C1395 C 0.90357 0.49515 0.34398 0.0
C1396 C 0.89254 0.5108 0.33565 0.0
C1397 C 0.87843 0.51152 0.29668 0.0
C1398 C 0.91887 0.49481 0.38442 0.0
C1399 C 0.93382 0.50787 0.37725 0.0
C1400 C 0.91891 0.48172 0.42924 0.0
C1401 C 0.90314 0.46799 0.44002 0.0
C1402 C 0.88363 0.47329 0.44695 0.0
C1403 C 0.86884 0.46025 0.45692 0.0
C1404 C 0.87339 0.44187 0.46044 0.0
C1405 C 0.89276 0.43649 0.45416 0.0
C1406 C 0.9076 0.44947 0.44413 0.0
C1407 C 0.97951 0.51315 0.56887 0.0
C1408 C 0.99091 0.49803 0.58234 0.0
C1409 C 0.96564 0.51221 0.52943 0.0
C1410 C 0.96305 0.49622 0.50223 0.0
C1411 C 0.97422 0.48103 0.51608 0.0
C1412 C 0.98805 0.48192 0.55574 0.0
C1413 C 0.94864 0.49542 0.4594 0.0
C1414 C 0.93389 0.48213 0.46599 0.0
C1415 C 0.94881 0.50824 0.41382 0.0
C1416 C 0.96472 0.52186 0.40258 0.0
C1417 C 0.98424 0.51641 0.398 0.0
C1418 C 0.99916 0.52931 0.38798 0.0
C1419 C 0.99475 0.54769 0.38208 0.0
C1420 C 0.97539 0.55321 0.38603 0.0
C1421 C 0.96041 0.54037 0.39611 0.0
H1422 H 0.00633 0.55765 0.37433 0.0
H1423 H 0.86192 0.4318 0.46818 0.0
loop_
_geom_bond_atom_site_label_1
_geom_bond_atom_site_label_2
_geom_bond_distance
_geom_bond_site_symmetry_2
_ccdc_geom_bond_type
O0 Cd1 2.300 . S
O0 C7 1.275 . S
Cd1 O0 2.300 . S
Cd1 O9 2.381 . S
Cd1 O10 2.378 . S
O2 Cd3 2.385 . S
O2 C7 1.255 . S
Cd3 O2 2.385 . S
Cd3 O4 2.317 . S
O4 Cd3 2.317 . S
O4 C5 1.232 . S
C5 O4 1.232 . S
C5 O6 1.218 . S
O6 C5 1.218 . S
C7 O0 1.275 . S
C7 O2 1.255 . S
C8 O9 1.258 . S
C8 O10 1.256 . S
O9 Cd1 2.381 . S
O9 C8 1.258 . S
O10 Cd1 2.378 . S
O10 C8 1.256 . S
O11 Cd12 2.300 . S
O11 C18 1.275 . S
Cd12 O11 2.300 . S
Cd12 O20 2.381 . S
Cd12 O21 2.378 . S
O13 Cd14 2.385 1_656 S
O13 C18 1.255 . S
Cd14 O13 2.385 1_454 S
Cd14 O15 2.317 1_455 S
O15 Cd14 2.317 1_655 S
O15 C16 1.232 . S
C16 O15 1.232 . S
C16 O17 1.218 . S
O17 C16 1.218 . S
C18 O11 1.275 . S
C18 O13 1.255 . S
C19 O20 1.258 . S
C19 O21 1.256 . S
O20 Cd12 2.381 . S
O20 C19 1.258 . S
O21 Cd12 2.378 . S
O21 C19 1.256 . S
O22 Cd23 2.300 1_566 S
O22 C29 1.275 1_566 S
Cd23 O22 2.300 1_544 S
Cd23 O31 2.381 1_544 S
Cd23 O32 2.378 . S
O24 Cd25 2.385 . S
O24 C29 1.255 . S
Cd25 O24 2.385 . S
Cd25 O26 2.317 . S
O26 Cd25 2.317 . S
O26 C27 1.232 . S
C27 O26 1.232 . S
C27 O28 1.218 . S
O28 C27 1.218 . S
C29 O22 1.275 1_544 S
C29 O24 1.255 . S
C30 O31 1.258 1_544 S
C30 O32 1.256 . S
O31 Cd23 2.381 1_566 S
O31 C30 1.258 1_566 S
O32 Cd23 2.378 . S
O32 C30 1.256 . S
O33 Cd34 2.300 1_556 S
O33 C40 1.275 1_556 S
Cd34 O33 2.300 1_554 S
Cd34 O42 2.381 1_554 S
Cd34 O43 2.378 . S
O35 Cd36 2.385 . S
O35 C40 1.255 . S
Cd36 O35 2.385 . S
Cd36 O37 2.317 . S
O37 Cd36 2.317 . S
O37 C38 1.232 . S
C38 O37 1.232 . S
C38 O39 1.218 . S
O39 C38 1.218 . S
C40 O33 1.275 1_554 S
C40 O35 1.255 . S
C41 O42 1.258 1_554 S
C41 O43 1.256 . S
O42 Cd34 2.381 1_556 S
O42 C41 1.258 1_556 S
O43 Cd34 2.378 . S
O43 C41 1.256 . S
O44 Cd45 2.300 . S
O44 C51 1.275 . S
Cd45 O44 2.300 . S
Cd45 O53 2.381 . S
Cd45 O54 2.378 . S
O46 Cd47 2.385 . S
O46 C51 1.255 . S
Cd47 O46 2.385 . S
Cd47 O48 2.317 . S
O48 Cd47 2.317 . S
O48 C49 1.232 . S
C49 O48 1.232 . S
C49 O50 1.218 . S
O50 C49 1.218 . S
C51 O44 1.275 . S
C51 O46 1.255 . S
C52 O53 1.258 . S
C52 O54 1.256 . S
O53 Cd45 2.381 . S
O53 C52 1.258 . S
O54 Cd45 2.378 . S
O54 C52 1.256 . S
O55 Cd56 2.300 . S
O55 C62 1.275 . S
Cd56 O55 2.300 . S
Cd56 O64 2.381 . S
Cd56 O65 2.378 . S
O57 Cd58 2.385 . S
O57 C62 1.255 . S
Cd58 O57 2.385 . S
Cd58 O59 2.317 . S
O59 Cd58 2.317 . S
O59 C60 1.232 . S
C60 O59 1.232 . S
C60 O61 1.218 . S
O61 C60 1.218 . S
C62 O55 1.275 . S
C62 O57 1.255 . S
C63 O64 1.258 . S
C63 O65 1.256 . S
O64 Cd56 2.381 . S
O64 C63 1.258 . S
O65 Cd56 2.378 . S
O65 C63 1.256 . S
O66 Cd67 2.300 1_565 S
O66 C73 1.275 1_565 S
Cd67 O66 2.300 1_545 S
Cd67 O75 2.381 1_545 S
Cd67 O76 2.378 . S
O68 Cd69 2.385 . S
O68 C73 1.255 . S
Cd69 O68 2.385 . S
Cd69 O70 2.317 . S
O70 Cd69 2.317 . S
O70 C71 1.232 . S
C71 O70 1.232 . S
C71 O72 1.218 . S
O72 C71 1.218 . S
C73 O66 1.275 1_545 S
C73 O68 1.255 . S
C74 O75 1.258 1_545 S
C74 O76 1.256 . S
O75 Cd67 2.381 1_565 S
O75 C74 1.258 1_565 S
O76 Cd67 2.378 . S
O76 C74 1.256 . S
O77 Cd78 2.300 . S
O77 C84 1.275 . S
Cd78 O77 2.300 . S
Cd78 O86 2.381 . S
Cd78 O87 2.378 . S
O79 Cd80 2.385 . S
O79 C84 1.255 . S
Cd80 O79 2.385 . S
Cd80 O81 2.317 . S
O81 Cd80 2.317 . S
O81 C82 1.232 . S
C82 O81 1.232 . S
C82 O83 1.218 . S
O83 C82 1.218 . S
C84 O77 1.275 . S
C84 O79 1.255 . S
C85 O86 1.258 . S
C85 O87 1.256 . S
O86 Cd78 2.381 . S
O86 C85 1.258 . S
O87 Cd78 2.378 . S
O87 C85 1.256 . S
C88 O104 1.251 . S
C88 O106 1.254 . S
N89 C90 1.333 . S
N89 C94 1.307 1_455 S
N89 Zn95 2.020 . S
C90 N89 1.333 . S
C90 C91 1.379 . S
C90 H108 0.952 . S
C91 C90 1.379 . S
C91 C92 1.390 1_455 S
C91 H118 0.949 . S
C92 C91 1.390 1_655 S
C92 C93 1.357 . S
C93 C92 1.357 . S
C93 C94 1.370 . S
C93 H119 0.950 . S
C94 N89 1.307 1_655 S
C94 C93 1.370 . S
C94 H112 0.948 . S
Zn95 N89 2.020 . S
Zn95 O104 2.039 . S
Zn95 O110 2.034 . S
Zn95 O114 2.025 1_565 S
Zn95 O116 2.024 1_455 S
C96 O115 1.246 . S
C96 O116 1.249 1_545 S
N97 C98 1.307 . S
N97 C99 1.333 . S
N97 Zn103 2.020 . S
C98 N97 1.307 . S
C98 C102 1.370 . S
C98 H109 0.948 . S
C99 N97 1.333 . S
C99 C100 1.379 . S
C99 H107 0.952 . S
C100 C99 1.379 . S
C100 C101 1.390 . S
C100 H120 0.949 . S
C101 C100 1.390 . S
C101 C102 1.357 . S
C102 C98 1.370 . S
C102 C101 1.357 . S
C102 H121 0.950 . S
Zn103 N97 2.020 . S
Zn103 O106 2.025 1_545 S
Zn103 O111 2.024 . S
Zn103 O113 2.039 . S
Zn103 O115 2.034 1_455 S
O104 C88 1.251 . S
O104 Zn95 2.039 . S
C105 O110 1.246 . S
C105 O111 1.249 1_565 S
O106 C88 1.254 . S
O106 Zn103 2.025 1_565 S
H107 C99 0.952 . S
H108 C90 0.952 . S
H109 C98 0.948 . S
O110 Zn95 2.034 . S
O110 C105 1.246 . S
O111 Zn103 2.024 . S
O111 C105 1.249 1_545 S
H112 C94 0.948 . S
O113 Zn103 2.039 . S
O113 C117 1.251 . S
O114 Zn95 2.025 1_545 S
O114 C117 1.254 . S
O115 C96 1.246 . S
O115 Zn103 2.034 1_655 S
O116 Zn95 2.024 1_655 S
O116 C96 1.249 1_565 S
C117 O113 1.251 . S
C117 O114 1.254 . S
H118 C91 0.949 . S
H119 C93 0.950 . S
H120 C100 0.949 . S
H121 C102 0.950 . S
C122 O138 1.251 1_565 S
C122 O140 1.254 . S
N123 C124 1.333 . S
N123 C128 1.307 . S
N123 Zn129 2.020 . S
C124 N123 1.333 . S
C124 C125 1.379 . S
C124 H142 0.952 . S
C125 C124 1.379 . S
C125 C126 1.390 . S
C125 H152 0.949 . S
C126 C125 1.390 . S
C126 C127 1.357 . S
C127 C126 1.357 . S
C127 C128 1.370 . S
C127 H153 0.950 . S
C128 N123 1.307 . S
C128 C127 1.370 . S
C128 H146 0.948 . S
Zn129 N123 2.020 . S
Zn129 O138 2.039 . S
Zn129 O144 2.034 . S
Zn129 O148 2.025 . S
Zn129 O150 2.024 . S
C130 O149 1.246 1_545 S
C130 O150 1.249 . S
N131 C132 1.307 . S
N131 C133 1.333 . S
N131 Zn137 2.020 . S
C132 N131 1.307 . S
C132 C136 1.370 . S
C132 H143 0.948 . S
C133 N131 1.333 . S
C133 C134 1.379 . S
C133 H141 0.952 . S
C134 C133 1.379 . S
C134 C135 1.390 . S
C134 H154 0.949 . S
C135 C134 1.390 . S
C135 C136 1.357 . S
C136 C132 1.370 . S
C136 C135 1.357 . S
C136 H155 0.950 . S
Zn137 N131 2.020 . S
Zn137 O140 2.025 . S
Zn137 O145 2.024 . S
Zn137 O147 2.039 . S
Zn137 O149 2.034 . S
O138 C122 1.251 1_545 S
O138 Zn129 2.039 . S
C139 O144 1.246 1_565 S
C139 O145 1.249 . S
O140 C122 1.254 . S
O140 Zn137 2.025 . S
H141 C133 0.952 . S
H142 C124 0.952 . S
H143 C132 0.948 . S
O144 Zn129 2.034 . S
O144 C139 1.246 1_545 S
O145 Zn137 2.024 . S
O145 C139 1.249 . S
H146 C128 0.948 . S
O147 Zn137 2.039 . S
O147 C151 1.251 1_565 S
O148 Zn129 2.025 . S
O148 C151 1.254 . S
O149 C130 1.246 1_565 S
O149 Zn137 2.034 . S
O150 Zn129 2.024 . S
O150 C130 1.249 . S
C151 O147 1.251 1_545 S
C151 O148 1.254 . S
H152 C125 0.949 . S
H153 C127 0.950 . S
H154 C134 0.949 . S
H155 C136 0.950 . S
C156 O172 1.251 . S
C156 O174 1.254 . S
N157 C158 1.333 . S
N157 C162 1.307 . S
N157 Zn163 2.020 . S
C158 N157 1.333 . S
C158 C159 1.379 . S
C158 H176 0.952 . S
C159 C158 1.379 . S
C159 C160 1.390 . S
C159 H186 0.949 . S
C160 C159 1.390 . S
C160 C161 1.357 . S
C161 C160 1.357 . S
C161 C162 1.370 . S
C161 H187 0.950 . S
C162 N157 1.307 . S
C162 C161 1.370 . S
C162 H180 0.948 . S
Zn163 N157 2.020 . S
Zn163 O172 2.039 . S
Zn163 O178 2.034 . S
Zn163 O182 2.025 . S
Zn163 O184 2.024 . S
C164 O183 1.246 . S
C164 O184 1.249 . S
N165 C166 1.307 . S
N165 C167 1.333 . S
N165 Zn171 2.020 . S
C166 N165 1.307 . S
C166 C170 1.370 . S
C166 H177 0.948 . S
C167 N165 1.333 . S
C167 C168 1.379 . S
C167 H175 0.952 . S
C168 C167 1.379 . S
C168 C169 1.390 . S
C168 H188 0.949 . S
C169 C168 1.390 . S
C169 C170 1.357 . S
C170 C166 1.370 . S
C170 C169 1.357 . S
C170 H189 0.950 . S
Zn171 N165 2.020 . S
Zn171 O174 2.025 . S
Zn171 O179 2.024 . S
Zn171 O181 2.039 . S
Zn171 O183 2.034 . S
O172 C156 1.251 . S
O172 Zn163 2.039 . S
C173 O178 1.246 . S
C173 O179 1.249 . S
O174 C156 1.254 . S
O174 Zn171 2.025 . S
H175 C167 0.952 . S
H176 C158 0.952 . S
H177 C166 0.948 . S
O178 Zn163 2.034 . S
O178 C173 1.246 . S
O179 Zn171 2.024 . S
O179 C173 1.249 . S
H180 C162 0.948 . S
O181 Zn171 2.039 . S
O181 C185 1.251 . S
O182 Zn163 2.025 . S
O182 C185 1.254 . S
O183 C164 1.246 . S
O183 Zn171 2.034 . S
O184 Zn163 2.024 . S
O184 C164 1.249 . S
C185 O181 1.251 . S
C185 O182 1.254 . S
H186 C159 0.949 . S
H187 C161 0.950 . S
H188 C168 0.949 . S
H189 C170 0.950 . S
C190 O206 1.251 . S
C190 O208 1.254 . S
N191 C192 1.333 . S
N191 C196 1.307 . S
N191 Zn197 2.020 . S
C192 N191 1.333 . S
C192 C193 1.379 . S
C192 H210 0.952 . S
C193 C192 1.379 . S
C193 C194 1.390 . S
C193 H220 0.949 . S
C194 C193 1.390 . S
C194 C195 1.357 . S
C195 C194 1.357 . S
C195 C196 1.370 . S
C195 H221 0.950 . S
C196 N191 1.307 . S
C196 C195 1.370 . S
C196 H214 0.948 . S
Zn197 N191 2.020 . S
Zn197 O206 2.039 . S
Zn197 O212 2.034 . S
Zn197 O216 2.025 1_455 S
Zn197 O218 2.024 . S
C198 O217 1.246 . S
C198 O218 1.249 . S
N199 C200 1.307 . S
N199 C201 1.333 . S
N199 Zn205 2.020 . S
C200 N199 1.307 . S
C200 C204 1.370 . S
C200 H211 0.948 . S
C201 N199 1.333 . S
C201 C202 1.379 . S
C201 H209 0.952 . S
C202 C201 1.379 . S
C202 C203 1.390 . S
C202 H222 0.949 1_455 S
C203 C202 1.390 . S
C203 C204 1.357 . S
C204 C200 1.370 . S
C204 C203 1.357 . S
C204 H223 0.950 . S
Zn205 N199 2.020 . S
Zn205 O208 2.025 . S
Zn205 O213 2.002 1_455 S
Zn205 O215 2.039 1_455 S
Zn205 O217 2.034 . S
O206 C190 1.251 . S
O206 Zn197 2.039 . S
C207 O212 1.246 1_655 S
C207 O213 1.258 . S
O208 C190 1.254 . S
O208 Zn205 2.025 . S
H209 C201 0.952 . S
H210 C192 0.952 . S
H211 C200 0.948 . S
O212 Zn197 2.034 . S
O212 C207 1.246 1_455 S
O213 Zn205 2.002 1_655 S
O213 C207 1.258 . S
H214 C196 0.948 . S
O215 Zn205 2.039 1_655 S
O215 C219 1.251 . S
O216 Zn197 2.025 1_655 S
O216 C219 1.254 . S
O217 C198 1.246 . S
O217 Zn205 2.034 . S
O218 Zn197 2.024 . S
O218 C198 1.249 . S
C219 O215 1.251 . S
C219 O216 1.254 . S
H220 C193 0.949 . S
H221 C195 0.950 . S
H222 C202 0.949 1_655 S
H223 C204 0.950 . S
H224 C242 0.951 . S
H225 C244 0.951 . S
H226 C246 0.950 . S
H227 C247 0.950 . S
H228 C249 0.950 . S
H229 C252 0.950 . S
H230 C253 0.950 . S
H231 C255 0.950 . S
H232 C256 0.950 . S
H233 C257 0.951 . S
H234 C259 0.951 . S
H235 C261 0.950 . S
H236 C262 0.950 . S
H237 C264 0.950 . S
H238 C267 0.950 . S
H239 C268 0.950 . S
H240 C270 0.950 . S
H241 C271 0.950 . S
C242 H224 0.951 . S
C242 C243 1.362 1_545 S
C242 C244 1.388 . S
C243 C242 1.362 1_565 S
C243 C247 1.389 . S
C244 H225 0.951 . S
C244 C242 1.388 . S
C244 C245 1.366 1_545 S
C245 C244 1.366 1_565 S
C245 C246 1.414 . S
C245 C248 1.499 . S
C246 H226 0.950 . S
C246 C245 1.414 . S
C246 C247 1.374 . S
C247 H227 0.950 . S
C247 C243 1.389 . S
C247 C246 1.374 . S
C248 C245 1.499 . S
C248 C249 1.373 . S
C248 C250 1.389 1_565 S
C249 H228 0.950 . S
C249 C248 1.373 . S
C249 C265 1.377 . S
C250 C248 1.389 1_545 S
C250 C251 1.524 . S
C250 C264 1.377 . S
C251 C250 1.524 . S
C251 C252 1.397 1_545 S
C251 C256 1.363 . S
C252 H229 0.950 . S
C252 C251 1.397 1_565 S
C252 C253 1.334 . S
C253 H230 0.950 . S
C253 C252 1.334 . S
C253 C254 1.287 1_565 S
C254 C253 1.287 1_545 S
C254 C255 1.524 . S
C254 H273 0.913 . S
C255 H231 0.950 . S
C255 C254 1.524 . S
C255 C256 1.415 . S
C256 H232 0.950 . S
C256 C251 1.363 . S
C256 C255 1.415 . S
C257 H233 0.951 . S
C257 C258 1.366 . S
C257 C259 1.388 . S
C258 C257 1.366 . S
C258 C262 1.385 1_565 S
C259 H234 0.951 . S
C259 C257 1.388 . S
C259 C260 1.366 . S
C260 C259 1.366 . S
C260 C261 1.414 1_565 S
C260 C263 1.501 . S
C261 H235 0.950 . S
C261 C260 1.414 1_545 S
C261 C262 1.374 . S
C262 H236 0.950 . S
C262 C258 1.385 1_545 S
C262 C261 1.374 . S
C263 C260 1.501 . S
C263 C264 1.359 1_565 S
C263 C265 1.410 . S
C264 H237 0.950 . S
C264 C250 1.377 . S
C264 C263 1.359 1_545 S
C265 C249 1.377 . S
C265 C263 1.410 . S
C265 C266 1.524 . S
C266 C265 1.524 . S
C266 C267 1.397 1_565 S
C266 C271 1.363 . S
C267 H238 0.950 . S
C267 C266 1.397 1_545 S
C267 C268 1.334 . S
C268 H239 0.950 . S
C268 C267 1.334 . S
C268 C269 1.287 1_545 S
C269 C268 1.287 1_565 S
C269 C270 1.524 . S
C269 H272 0.999 . S
C270 H240 0.950 . S
C270 C269 1.524 . S
C270 C271 1.415 . S
C271 H241 0.950 . S
C271 C266 1.363 . S
C271 C270 1.415 . S
H272 C269 0.999 . S
H273 C254 0.913 . S
H274 C292 0.951 . S
H275 C294 0.951 . S
H276 C296 0.950 . S
H277 C297 0.950 . S
H278 C299 0.950 . S
H279 C302 0.950 . S
H280 C303 0.950 . S
H281 C305 0.950 . S
H282 C306 0.950 . S
H283 C307 0.951 . S
H284 C309 0.951 . S
H285 C311 0.950 . S
H286 C312 0.950 . S
H287 C314 0.950 . S
H288 C317 0.950 . S
H289 C318 0.950 . S
H290 C320 0.950 . S
H291 C321 0.950 . S
C292 H274 0.951 . S
C292 C293 1.366 . S
C292 C294 1.388 . S
C293 C292 1.366 . S
C293 C297 1.385 . S
C294 H275 0.951 . S
C294 C292 1.388 . S
C294 C295 1.366 . S
C295 C294 1.366 . S
C295 C296 1.414 . S
C295 C298 1.499 . S
C296 H276 0.950 . S
C296 C295 1.414 . S
C296 C297 1.374 . S
C297 H277 0.950 . S
C297 C293 1.385 . S
C297 C296 1.374 . S
C298 C295 1.499 . S
C298 C299 1.373 . S
C298 C300 1.389 . S
C299 H278 0.950 . S
C299 C298 1.373 . S
C299 C315 1.377 . S
C300 C298 1.389 . S
C300 C301 1.524 . S
C300 C314 1.377 . S
C301 C300 1.524 . S
C301 C302 1.397 . S
C301 C306 1.363 . S
C302 H279 0.950 . S
C302 C301 1.397 . S
C302 C303 1.334 . S
C303 H280 0.950 . S
C303 C302 1.334 . S
C303 C304 1.287 . S
C304 C303 1.287 . S
C304 C305 1.524 . S
C304 H323 0.913 . S
C305 H281 0.950 . S
C305 C304 1.524 . S
C305 C306 1.415 . S
C306 H282 0.950 . S
C306 C301 1.363 . S
C306 C305 1.415 . S
C307 H283 0.951 . S
C307 C308 1.366 . S
C307 C309 1.388 . S
C308 C307 1.366 . S
C308 C312 1.385 . S
C309 H284 0.951 . S
C309 C307 1.388 . S
C309 C310 1.366 . S
C310 C309 1.366 . S
C310 C311 1.414 . S
C310 C313 1.499 . S
C311 H285 0.950 . S
C311 C310 1.414 . S
C311 C312 1.374 . S
C312 H286 0.950 . S
C312 C308 1.385 . S
C312 C311 1.374 . S
C313 C310 1.499 . S
C313 C314 1.373 . S
C313 C315 1.389 . S
C314 H287 0.950 . S
C314 C300 1.377 . S
C314 C313 1.373 . S
C315 C299 1.377 . S
C315 C313 1.389 . S
C315 C316 1.524 . S
C316 C315 1.524 . S
C316 C317 1.397 . S
C316 C321 1.363 . S
C317 H288 0.950 . S
C317 C316 1.397 . S
C317 C318 1.334 . S
C318 H289 0.950 . S
C318 C317 1.334 . S
C318 C319 1.287 . S
C319 C318 1.287 . S
C319 C320 1.524 . S
C319 H322 0.999 . S
C320 H290 0.950 . S
C320 C319 1.524 . S
C320 C321 1.415 . S
C321 H291 0.950 . S
C321 C316 1.363 . S
C321 C320 1.415 . S
H322 C319 0.999 . S
H323 C304 0.913 . S
H324 C342 0.951 . S
H325 C344 0.951 . S
H326 C346 0.950 . S
H327 C347 0.950 . S
H328 C349 0.950 . S
H329 C352 0.950 . S
H330 C353 0.950 . S
H331 C355 0.950 . S
H332 C356 0.950 . S
H333 C357 0.951 . S
H334 C359 0.951 . S
H335 C361 0.950 . S
H336 C362 0.950 . S
H337 C364 0.950 . S
H338 C367 0.950 . S
H339 C368 0.950 . S
H340 C370 0.950 . S
H341 C371 0.950 . S
C342 H324 0.951 . S
C342 C343 1.366 . S
C342 C344 1.388 . S
C343 C342 1.366 . S
C343 C347 1.385 . S
C344 H325 0.951 . S
C344 C342 1.388 . S
C344 C345 1.366 . S
C345 C344 1.366 . S
C345 C346 1.414 . S
C345 C348 1.499 . S
C346 H326 0.950 . S
C346 C345 1.414 . S
C346 C347 1.374 . S
C347 H327 0.950 . S
C347 C343 1.385 . S
C347 C346 1.374 . S
C348 C345 1.499 . S
C348 C349 1.373 . S
C348 C350 1.389 . S
C349 H328 0.950 . S
C349 C348 1.373 . S
C349 C365 1.377 . S
C350 C348 1.389 . S
C350 C351 1.524 . S
C350 C364 1.377 . S
C351 C350 1.524 . S
C351 C352 1.397 . S
C351 C356 1.363 . S
C352 H329 0.950 . S
C352 C351 1.397 . S
C352 C353 1.334 . S
C353 H330 0.950 . S
C353 C352 1.334 . S
C353 C354 1.287 . S
C354 C353 1.287 . S
C354 C355 1.524 . S
C354 H373 0.913 . S
C355 H331 0.950 . S
C355 C354 1.524 . S
C355 C356 1.415 . S
C356 H332 0.950 . S
C356 C351 1.363 . S
C356 C355 1.415 . S
C357 H333 0.951 . S
C357 C358 1.366 . S
C357 C359 1.388 . S
C358 C357 1.366 . S
C358 C362 1.385 . S
C359 H334 0.951 . S
C359 C357 1.388 . S
C359 C360 1.366 . S
C360 C359 1.366 . S
C360 C361 1.414 . S
C360 C363 1.499 . S
C361 H335 0.950 . S
C361 C360 1.414 . S
C361 C362 1.374 . S
C362 H336 0.950 . S
C362 C358 1.385 . S
C362 C361 1.374 . S
C363 C360 1.499 . S
C363 C364 1.373 . S
C363 C365 1.389 . S
C364 H337 0.950 . S
C364 C350 1.377 . S
C364 C363 1.373 . S
C365 C349 1.377 . S
C365 C363 1.389 . S
C365 C366 1.524 . S
C366 C365 1.524 . S
C366 C367 1.397 . S
C366 C371 1.363 . S
C367 H338 0.950 . S
C367 C366 1.397 . S
C367 C368 1.334 . S
C368 H339 0.950 . S
C368 C367 1.334 . S
C368 C369 1.287 . S
C369 C368 1.287 . S
C369 C370 1.524 . S
C369 H372 0.999 . S
C370 H340 0.950 . S
C370 C369 1.524 . S
C370 C371 1.415 . S
C371 H341 0.950 . S
C371 C366 1.363 . S
C371 C370 1.415 . S
H372 C369 0.999 . S
H373 C354 0.913 . S
H374 C392 0.951 . S
H375 C394 0.951 . S
H376 C396 0.950 . S
H377 C397 0.950 . S
H378 C399 0.950 . S
H379 C402 0.950 . S
H380 C403 0.950 . S
H381 C405 0.950 . S
H382 C406 0.950 . S
H383 C407 0.951 . S
H384 C409 0.951 . S
H385 C411 0.950 . S
H386 C412 0.950 . S
H387 C414 0.950 . S
H388 C417 0.950 . S
H389 C418 0.950 . S
H390 C420 0.977 . S
H391 C421 0.950 . S
C392 H374 0.951 . S
C392 C393 1.366 . S
C392 C394 1.388 . S
C393 C392 1.366 . S
C393 C397 1.385 . S
C394 H375 0.951 . S
C394 C392 1.388 . S
C394 C395 1.366 . S
C395 C394 1.366 . S
C395 C396 1.414 . S
C395 C398 1.499 . S
C396 H376 0.950 . S
C396 C395 1.414 . S
C396 C397 1.374 . S
C397 H377 0.950 . S
C397 C393 1.385 . S
C397 C396 1.374 . S
C398 C395 1.499 . S
C398 C399 1.373 . S
C398 C400 1.389 . S
C399 H378 0.950 . S
C399 C398 1.373 . S
C399 C415 1.377 . S
C400 C398 1.389 . S
C400 C401 1.524 . S
C400 C414 1.377 . S
C401 C400 1.524 . S
C401 C402 1.397 . S
C401 C406 1.363 . S
C402 H379 0.950 . S
C402 C401 1.397 . S
C402 C403 1.334 . S
C403 H380 0.950 . S
C403 C402 1.334 . S
C403 C404 1.287 . S
C404 C403 1.287 . S
C404 C405 1.524 . S
C404 H423 0.913 . S
C405 H381 0.950 . S
C405 C404 1.524 . S
C405 C406 1.415 . S
C406 H382 0.950 . S
C406 C401 1.363 . S
C406 C405 1.415 . S
C407 H383 0.951 . S
C407 C408 1.366 . S
C407 C409 1.388 . S
C408 C407 1.366 . S
C408 C412 1.385 . S
C409 H384 0.951 . S
C409 C407 1.388 . S
C409 C410 1.366 . S
C410 C409 1.366 . S
C410 C411 1.414 . S
C410 C413 1.499 . S
C411 H385 0.950 . S
C411 C410 1.414 . S
C411 C412 1.374 . S
C412 H386 0.950 . S
C412 C408 1.385 . S
C412 C411 1.374 . S
C413 C410 1.499 . S
C413 C414 1.373 . S
C413 C415 1.389 . S
C414 H387 0.950 . S
C414 C400 1.377 . S
C414 C413 1.373 . S
C415 C399 1.377 . S
C415 C413 1.389 . S
C415 C416 1.524 . S
C416 C415 1.524 . S
C416 C417 1.397 . S
C416 C421 1.363 . S
C417 H388 0.950 . S
C417 C416 1.397 . S
C417 C418 1.334 . S
C418 H389 0.950 . S
C418 C417 1.334 . S
C418 C419 1.287 . S
C419 C418 1.287 . S
C419 C420 1.524 . S
C419 H422 0.999 . S
C420 H390 0.977 . S
C420 C419 1.524 . S
C420 C421 1.415 . S
C421 H391 0.950 . S
C421 C416 1.363 . S
C421 C420 1.415 . S
H422 C419 0.999 . S
H423 C404 0.913 . S
H424 C442 0.951 . S
H425 C444 0.951 . S
H426 C446 0.951 1_554 S
H427 C447 0.950 . S
H428 C449 0.950 . S
H429 C452 0.950 . S
H430 C453 0.950 . S
H431 C455 0.950 . S
H432 C456 0.950 1_545 S
H433 C457 0.951 . S
H434 C459 0.951 . S
H435 C461 0.950 . S
H436 C462 0.950 . S
H437 C464 0.950 . S
H438 C467 0.950 . S
H439 C468 0.950 . S
H440 C470 0.950 . S
H441 C471 0.954 . S
C442 H424 0.951 . S
C442 C443 1.373 . S
C442 C444 1.388 . S
C443 C442 1.373 . S
C443 C447 1.376 1_546 S
C444 H425 0.951 . S
C444 C442 1.388 . S
C444 C445 1.368 . S
C445 C444 1.368 . S
C445 C446 1.412 1_545 S
C445 C448 1.499 . S
C446 H426 0.951 1_556 S
C446 C445 1.412 1_565 S
C446 C447 1.374 1_556 S
C447 H427 0.950 . S
C447 C443 1.376 1_564 S
C447 C446 1.374 1_554 S
C448 C445 1.499 . S
C448 C449 1.377 . S
C448 C450 1.386 1_545 S
C449 H428 0.950 . S
C449 C448 1.377 . S
C449 C465 1.377 . S
C450 C448 1.386 1_565 S
C450 C451 1.524 . S
C450 C464 1.377 . S
C451 C450 1.524 . S
C451 C452 1.397 . S
C451 C456 1.363 . S
C452 H429 0.950 . S
C452 C451 1.397 . S
C452 C453 1.334 . S
C453 H430 0.950 . S
C453 C452 1.334 . S
C453 C454 1.287 . S
C454 C453 1.287 . S
C454 C455 1.524 . S
C454 H473 0.913 . S
C455 H431 0.950 . S
C455 C454 1.524 . S
C455 C456 1.415 . S
C456 H432 0.950 1_565 S
C456 C451 1.363 . S
C456 C455 1.415 . S
C457 H433 0.951 . S
C457 C458 1.366 1_565 S
C457 C459 1.388 . S
C458 C457 1.366 1_545 S
C458 C462 1.385 . S
C459 H434 0.951 . S
C459 C457 1.388 . S
C459 C460 1.366 1_565 S
C460 C459 1.366 1_545 S
C460 C461 1.414 . S
C460 C463 1.499 . S
C461 H435 0.950 . S
C461 C460 1.414 . S
C461 C462 1.374 . S
C462 H436 0.950 . S
C462 C458 1.385 . S
C462 C461 1.374 . S
C463 C460 1.499 . S
C463 C464 1.373 1_545 S
C463 C465 1.389 . S
C464 H437 0.950 . S
C464 C450 1.377 . S
C464 C463 1.373 1_565 S
C465 C449 1.377 . S
C465 C463 1.389 . S
C465 C466 1.524 . S
C466 C465 1.524 . S
C466 C467 1.397 . S
C466 C471 1.363 . S
C467 H438 0.950 . S
C467 C466 1.397 . S
C467 C468 1.334 . S
C468 H439 0.950 . S
C468 C467 1.334 . S
C468 C469 1.287 . S
C469 C468 1.287 . S
C469 C470 1.524 1_556 S
C469 H472 1.008 . S
C470 H440 0.950 . S
C470 C469 1.524 1_554 S
C470 C471 1.415 1_554 S
C471 H441 0.954 . S
C471 C466 1.363 . S
C471 C470 1.415 1_556 S
H472 C469 1.008 . S
H473 C454 0.913 . S
H474 C492 0.951 . S
H475 C494 0.951 1_554 S
H476 C496 0.950 . S
H477 C497 0.950 . S
H478 C499 0.950 . S
H479 C502 0.950 1_556 S
H480 C503 0.950 . S
H481 C505 0.950 . S
H482 C506 0.950 . S
H483 C507 0.951 . S
H484 C509 0.951 . S
H485 C511 0.950 . S
H486 C512 0.950 . S
H487 C514 0.950 . S
H488 C517 0.950 . S
H489 C518 0.950 . S
H490 C520 0.950 . S
H491 C521 0.950 . S
C492 H474 0.951 . S
C492 C493 1.366 1_554 S
C492 C494 1.388 1_554 S
C493 C492 1.366 1_556 S
C493 C497 1.385 . S
C494 H475 0.951 1_556 S
C494 C492 1.388 1_556 S
C494 C495 1.366 . S
C495 C494 1.366 . S
C495 C496 1.414 . S
C495 C498 1.499 . S
C496 H476 0.950 . S
C496 C495 1.414 . S
C496 C497 1.374 . S
C497 H477 0.950 . S
C497 C493 1.385 . S
C497 C496 1.374 . S
C498 C495 1.499 . S
C498 C499 1.373 . S
C498 C500 1.389 . S
C499 H478 0.950 . S
C499 C498 1.373 . S
C499 C515 1.377 . S
C500 C498 1.389 . S
C500 C501 1.524 1_556 S
C500 C514 1.377 . S
C501 C500 1.524 1_554 S
C501 C502 1.397 . S
C501 C506 1.363 . S
C502 H479 0.950 1_554 S
C502 C501 1.397 . S
C502 C503 1.334 . S
C503 H480 0.950 . S
C503 C502 1.334 . S
C503 C504 1.287 . S
C504 C503 1.287 . S
C504 C505 1.524 . S
C504 H523 0.913 . S
C505 H481 0.950 . S
C505 C504 1.524 . S
C505 C506 1.415 . S
C506 H482 0.950 . S
C506 C501 1.363 . S
C506 C505 1.415 . S
C507 H483 0.951 . S
C507 C508 1.366 . S
C507 C509 1.388 . S
C508 C507 1.366 . S
C508 C512 1.385 . S
C509 H484 0.951 . S
C509 C507 1.388 . S
C509 C510 1.366 . S
C510 C509 1.366 . S
C510 C511 1.414 . S
C510 C513 1.499 . S
C511 H485 0.950 . S
C511 C510 1.414 . S
C511 C512 1.374 . S
C512 H486 0.950 . S
C512 C508 1.385 . S
C512 C511 1.374 . S
C513 C510 1.499 . S
C513 C514 1.373 . S
C513 C515 1.389 . S
C514 H487 0.950 . S
C514 C500 1.377 . S
C514 C513 1.373 . S
C515 C499 1.377 . S
C515 C513 1.389 . S
C515 C516 1.524 . S
C516 C515 1.524 . S
C516 C517 1.397 . S
C516 C521 1.363 . S
C517 H488 0.950 . S
C517 C516 1.397 . S
C517 C518 1.334 . S
C518 H489 0.950 . S
C518 C517 1.334 . S
C518 C519 1.287 . S
C519 C518 1.287 . S
C519 C520 1.524 . S
C519 H522 0.999 . S
C520 H490 0.950 . S
C520 C519 1.524 . S
C520 C521 1.415 . S
C521 H491 0.950 . S
C521 C516 1.363 . S
C521 C520 1.415 . S
H522 C519 0.999 . S
H523 C504 0.913 . S
H524 C542 0.951 . S
H525 C544 0.951 . S
H526 C546 0.950 . S
H527 C547 0.950 . S
H528 C549 0.950 . S
H529 C552 0.950 . S
H530 C553 0.950 . S
H531 C555 0.950 . S
H532 C556 0.950 . S
H533 C557 0.951 . S
H534 C559 0.951 . S
H535 C561 0.950 . S
H536 C562 0.950 . S
H537 C564 0.950 . S
H538 C567 0.950 . S
H539 C568 0.950 . S
H540 C570 0.950 . S
H541 C571 0.950 . S
C542 H524 0.951 . S
C542 C543 1.366 . S
C542 C544 1.388 . S
C543 C542 1.366 . S
C543 C547 1.385 1_554 S
C544 H525 0.951 . S
C544 C542 1.388 . S
C544 C545 1.366 1_554 S
C545 C544 1.366 1_556 S
C545 C546 1.414 . S
C545 C548 1.499 . S
C546 H526 0.950 . S
C546 C545 1.414 . S
C546 C547 1.374 . S
C547 H527 0.950 . S
C547 C543 1.385 1_556 S
C547 C546 1.374 . S
C548 C545 1.499 . S
C548 C549 1.373 . S
C548 C550 1.389 . S
C549 H528 0.950 . S
C549 C548 1.373 . S
C549 C565 1.377 . S
C550 C548 1.389 . S
C550 C551 1.524 1_556 S
C550 C564 1.377 . S
C551 C550 1.524 1_554 S
C551 C552 1.397 . S
C551 C556 1.363 . S
C552 H529 0.950 . S
C552 C551 1.397 . S
C552 C553 1.334 . S
C553 H530 0.950 . S
C553 C552 1.334 . S
C553 C554 1.287 . S
C554 C553 1.287 . S
C554 C555 1.524 . S
C554 H573 0.913 . S
C555 H531 0.950 . S
C555 C554 1.524 . S
C555 C556 1.415 . S
C556 H532 0.950 . S
C556 C551 1.363 . S
C556 C555 1.415 . S
C557 H533 0.951 . S
C557 C558 1.366 . S
C557 C559 1.388 . S
C558 C557 1.366 . S
C558 C562 1.385 . S
C559 H534 0.951 . S
C559 C557 1.388 . S
C559 C560 1.366 . S
C560 C559 1.366 . S
C560 C561 1.414 . S
C560 C563 1.499 . S
C561 H535 0.950 . S
C561 C560 1.414 . S
C561 C562 1.374 . S
C562 H536 0.950 . S
C562 C558 1.385 . S
C562 C561 1.374 . S
C563 C560 1.499 . S
C563 C564 1.373 . S
C563 C565 1.389 . S
C564 H537 0.950 . S
C564 C550 1.377 . S
C564 C563 1.373 . S
C565 C549 1.377 . S
C565 C563 1.389 . S
C565 C566 1.524 . S
C566 C565 1.524 . S
C566 C567 1.397 . S
C566 C571 1.363 . S
C567 H538 0.950 . S
C567 C566 1.397 . S
C567 C568 1.334 . S
C568 H539 0.950 . S
C568 C567 1.334 . S
C568 C569 1.287 . S
C569 C568 1.287 . S
C569 C570 1.524 . S
C569 H572 0.999 . S
C570 H540 0.950 . S
C570 C569 1.524 . S
C570 C571 1.415 . S
C571 H541 0.950 . S
C571 C566 1.363 . S
C571 C570 1.415 . S
H572 C569 0.999 . S
H573 C554 0.913 . S
H574 C592 0.951 . S
H575 C594 0.984 . S
H576 C596 0.950 . S
H577 C597 0.950 . S
H578 C599 0.950 . S
H579 C602 0.950 . S
H580 C603 0.950 . S
H581 C605 0.950 . S
H582 C606 0.950 . S
H583 C607 0.951 . S
H584 C609 0.951 . S
H585 C611 0.950 . S
H586 C612 0.950 . S
H587 C614 0.950 . S
H588 C617 0.950 . S
H589 C618 0.950 . S
H590 C620 0.950 . S
H591 C621 0.950 . S
C592 H574 0.951 . S
C592 C593 1.366 . S
C592 C594 1.388 . S
C593 C592 1.366 . S
C593 C597 1.385 . S
C594 H575 0.984 . S
C594 C592 1.388 . S
C594 C595 1.366 . S
C595 C594 1.366 . S
C595 C596 1.414 . S
C595 C598 1.499 . S
C596 H576 0.950 . S
C596 C595 1.414 . S
C596 C597 1.374 . S
C597 H577 0.950 . S
C597 C593 1.385 . S
C597 C596 1.374 . S
C598 C595 1.499 . S
C598 C599 1.373 . S
C598 C600 1.389 1_655 S
C599 H578 0.950 . S
C599 C598 1.373 . S
C599 C615 1.377 . S
C600 C598 1.389 1_455 S
C600 C601 1.524 . S
C600 C614 1.377 . S
C601 C600 1.524 . S
C601 C602 1.397 . S
C601 C606 1.363 . S
C602 H579 0.950 . S
C602 C601 1.397 . S
C602 C603 1.334 . S
C603 H580 0.950 . S
C603 C602 1.334 . S
C603 C604 1.287 . S
C604 C603 1.287 . S
C604 C605 1.524 . S
C604 H623 0.913 . S
C605 H581 0.950 . S
C605 C604 1.524 . S
C605 C606 1.415 . S
C606 H582 0.950 . S
C606 C601 1.363 . S
C606 C605 1.415 . S
C607 H583 0.951 . S
C607 C608 1.366 1_655 S
C607 C609 1.388 . S
C608 C607 1.366 1_455 S
C608 C612 1.385 . S
C609 H584 0.951 . S
C609 C607 1.388 . S
C609 C610 1.366 . S
C610 C609 1.366 . S
C610 C611 1.414 1_655 S
C610 C613 1.499 . S
C611 H585 0.950 . S
C611 C610 1.414 1_455 S
C611 C612 1.374 . S
C612 H586 0.950 . S
C612 C608 1.385 . S
C612 C611 1.374 . S
C613 C610 1.499 . S
C613 C614 1.373 1_655 S
C613 C615 1.389 . S
C614 H587 0.950 . S
C614 C600 1.377 . S
C614 C613 1.373 1_455 S
C615 C599 1.377 . S
C615 C613 1.389 . S
C615 C616 1.524 . S
C616 C615 1.524 . S
C616 C617 1.397 . S
C616 C621 1.363 . S
C617 H588 0.950 . S
C617 C616 1.397 . S
C617 C618 1.334 . S
C618 H589 0.950 . S
C618 C617 1.334 . S
C618 C619 1.287 . S
C619 C618 1.287 . S
C619 C620 1.524 . S
C619 H622 0.999 . S
C620 H590 0.950 . S
C620 C619 1.524 . S
C620 C621 1.415 . S
C621 H591 0.950 . S
C621 C616 1.363 . S
C621 C620 1.415 . S
H622 C619 0.999 . S
H623 C604 0.913 . S
H624 C642 0.951 . S
H625 C644 0.951 . S
H626 C646 0.950 . S
H627 C647 0.950 . S
H628 C649 0.950 . S
H629 C652 0.950 . S
H630 C653 0.950 . S
H631 C655 0.950 . S
H632 C656 0.950 . S
H633 C657 0.951 . S
H634 C659 0.951 . S
H635 C661 0.950 . S
H636 C662 0.950 1_655 S
H637 C664 0.950 . S
H638 C667 0.950 . S
H639 C668 0.950 . S
H640 C670 0.950 . S
H641 C671 0.950 . S
C642 H624 0.951 . S
C642 C643 1.366 . S
C642 C644 1.388 . S
C643 C642 1.366 . S
C643 C647 1.385 . S
C644 H625 0.951 . S
C644 C642 1.388 . S
C644 C645 1.366 . S
C645 C644 1.366 . S
C645 C646 1.414 . S
C645 C648 1.499 . S
C646 H626 0.950 . S
C646 C645 1.414 . S
C646 C647 1.374 . S
C647 H627 0.950 . S
C647 C643 1.385 . S
C647 C646 1.374 . S
C648 C645 1.499 . S
C648 C649 1.373 . S
C648 C650 1.389 . S
C649 H628 0.950 . S
C649 C648 1.373 . S
C649 C665 1.377 . S
C650 C648 1.389 . S
C650 C651 1.524 . S
C650 C664 1.377 . S
C651 C650 1.524 . S
C651 C652 1.397 . S
C651 C656 1.363 . S
C652 H629 0.950 . S
C652 C651 1.397 . S
C652 C653 1.334 . S
C653 H630 0.950 . S
C653 C652 1.334 . S
C653 C654 1.287 . S
C654 C653 1.287 . S
C654 C655 1.524 . S
C654 H673 0.913 . S
C655 H631 0.950 . S
C655 C654 1.524 . S
C655 C656 1.415 . S
C656 H632 0.950 . S
C656 C651 1.363 . S
C656 C655 1.415 . S
C657 H633 0.951 . S
C657 C658 1.366 . S
C657 C659 1.388 . S
C658 C657 1.366 . S
C658 C662 1.385 . S
C659 H634 0.951 . S
C659 C657 1.388 . S
C659 C660 1.366 . S
C660 C659 1.366 . S
C660 C661 1.414 . S
C660 C663 1.499 . S
C661 H635 0.950 . S
C661 C660 1.414 . S
C661 C662 1.374 . S
C662 H636 0.950 1_455 S
C662 C658 1.385 . S
C662 C661 1.374 . S
C663 C660 1.499 . S
C663 C664 1.373 . S
C663 C665 1.389 . S
C664 H637 0.950 . S
C664 C650 1.377 . S
C664 C663 1.373 . S
C665 C649 1.377 . S
C665 C663 1.389 . S
C665 C666 1.524 . S
C666 C665 1.524 . S
C666 C667 1.397 . S
C666 C671 1.363 . S
C667 H638 0.950 . S
C667 C666 1.397 . S
C667 C668 1.334 . S
C668 H639 0.950 . S
C668 C667 1.334 . S
C668 C669 1.287 . S
C669 C668 1.287 . S
C669 C670 1.524 . S
C669 H672 0.999 . S
C670 H640 0.950 . S
C670 C669 1.524 . S
C670 C671 1.415 . S
C671 H641 0.950 . S
C671 C666 1.363 . S
C671 C670 1.415 . S
H672 C669 0.999 . S
H673 C654 0.913 . S
H674 C692 0.951 . S
H675 C694 0.951 . S
H676 C696 0.950 . S
H677 C697 0.950 . S
H678 C699 0.950 . S
H679 C702 0.950 . S
H680 C703 0.950 . S
H681 C705 0.950 . S
H682 C706 0.950 . S
H683 C707 0.951 . S
H684 C709 0.951 . S
H685 C711 0.949 . S
H686 C712 0.944 1_545 S
H687 C714 0.950 . S
H688 C717 0.950 . S
H689 C718 0.950 . S
H690 C720 0.950 . S
H691 C721 0.950 . S
C692 H674 0.951 . S
C692 C693 1.365 . S
C692 C694 1.388 . S
C693 C692 1.365 . S
C693 C697 1.385 1_545 S
C694 H675 0.951 . S
C694 C692 1.388 . S
C694 C695 1.363 1_545 S
C695 C694 1.363 1_565 S
C695 C696 1.417 . S
C695 C698 1.499 . S
C696 H676 0.950 . S
C696 C695 1.417 . S
C696 C697 1.374 . S
C697 H677 0.950 . S
C697 C693 1.385 1_565 S
C697 C696 1.374 . S
C698 C695 1.499 . S
C698 C699 1.427 . S
C698 C700 1.341 1_565 S
C699 H678 0.950 . S
C699 C698 1.427 . S
C699 C715 1.377 . S
C700 C698 1.341 1_545 S
C700 C701 1.524 . S
C700 C714 1.377 . S
C701 C700 1.524 . S
C701 C702 1.397 . S
C701 C706 1.363 . S
C702 H679 0.950 . S
C702 C701 1.397 . S
C702 C703 1.334 . S
C703 H680 0.950 . S
C703 C702 1.334 . S
C703 C704 1.287 . S
C704 C703 1.287 . S
C704 C705 1.524 . S
C704 H723 0.913 . S
C705 H681 0.950 . S
C705 C704 1.524 . S
C705 C706 1.415 . S
C706 H682 0.950 . S
C706 C701 1.363 . S
C706 C705 1.415 . S
C707 H683 0.951 . S
C707 C708 1.366 . S
C707 C709 1.388 . S
C708 C707 1.366 . S
C708 C712 1.391 . S
C709 H684 0.951 . S
C709 C707 1.388 . S
C709 C710 1.366 . S
C710 C709 1.366 . S
C710 C711 1.415 1_565 S
C710 C713 1.499 . S
C711 H685 0.949 . S
C711 C710 1.415 1_545 S
C711 C712 1.374 1_545 S
C712 H686 0.944 1_565 S
C712 C708 1.391 . S
C712 C711 1.374 1_565 S
C713 C710 1.499 . S
C713 C714 1.373 1_565 S
C713 C715 1.389 . S
C714 H687 0.950 . S
C714 C700 1.377 . S
C714 C713 1.373 1_545 S
C715 C699 1.377 . S
C715 C713 1.389 . S
C715 C716 1.524 . S
C716 C715 1.524 . S
C716 C717 1.397 . S
C716 C721 1.363 . S
C717 H688 0.950 . S
C717 C716 1.397 . S
C717 C718 1.334 . S
C718 H689 0.950 . S
C718 C717 1.334 . S
C718 C719 1.287 . S
C719 C718 1.287 . S
C719 C720 1.524 . S
C719 H722 0.999 . S
C720 H690 0.950 . S
C720 C719 1.524 . S
C720 C721 1.415 . S
C721 H691 0.950 . S
C721 C716 1.363 . S
C721 C720 1.415 . S
H722 C719 0.999 . S
H723 C704 0.913 . S
H724 C742 0.951 . S
H725 C744 0.951 . S
H726 C746 0.950 . S
H727 C747 0.950 . S
H728 C749 0.950 . S
H729 C752 0.950 . S
H730 C753 0.950 . S
H731 C755 0.950 . S
H732 C756 0.950 . S
H733 C757 0.951 . S
H734 C759 0.951 . S
H735 C761 0.950 . S
H736 C762 0.950 . S
H737 C764 0.950 . S
H738 C767 0.950 . S
H739 C768 0.950 . S
H740 C770 0.950 . S
H741 C771 0.950 . S
C742 H724 0.951 . S
C742 C743 1.366 . S
C742 C744 1.388 . S
C743 C742 1.366 . S
C743 C747 1.385 . S
C744 H725 0.951 . S
C744 C742 1.388 . S
C744 C745 1.366 . S
C745 C744 1.366 . S
C745 C746 1.414 . S
C745 C748 1.499 . S
C746 H726 0.950 . S
C746 C745 1.414 . S
C746 C747 1.374 . S
C747 H727 0.950 . S
C747 C743 1.385 . S
C747 C746 1.374 . S
C748 C745 1.499 . S
C748 C749 1.373 . S
C748 C750 1.389 . S
C749 H728 0.950 . S
C749 C748 1.373 . S
C749 C765 1.377 . S
C750 C748 1.389 . S
C750 C751 1.524 . S
C750 C764 1.377 . S
C751 C750 1.524 . S
C751 C752 1.397 . S
C751 C756 1.363 . S
C752 H729 0.950 . S
C752 C751 1.397 . S
C752 C753 1.334 . S
C753 H730 0.950 . S
C753 C752 1.334 . S
C753 C754 1.287 . S
C754 C753 1.287 . S
C754 C755 1.524 . S
C754 H773 0.913 . S
C755 H731 0.950 . S
C755 C754 1.524 . S
C755 C756 1.415 . S
C756 H732 0.950 . S
C756 C751 1.363 . S
C756 C755 1.415 . S
C757 H733 0.951 . S
C757 C758 1.366 . S
C757 C759 1.388 . S
C758 C757 1.366 . S
C758 C762 1.385 . S
C759 H734 0.951 . S
C759 C757 1.388 . S
C759 C760 1.366 . S
C760 C759 1.366 . S
C760 C761 1.414 . S
C760 C763 1.499 . S
C761 H735 0.950 . S
C761 C760 1.414 . S
C761 C762 1.374 . S
C762 H736 0.950 . S
C762 C758 1.385 . S
C762 C761 1.374 . S
C763 C760 1.499 . S
C763 C764 1.373 . S
C763 C765 1.389 . S
C764 H737 0.950 . S
C764 C750 1.377 . S
C764 C763 1.373 . S
C765 C749 1.377 . S
C765 C763 1.389 . S
C765 C766 1.524 . S
C766 C765 1.524 . S
C766 C767 1.397 . S
C766 C771 1.363 . S
C767 H738 0.950 . S
C767 C766 1.397 . S
C767 C768 1.334 . S
C768 H739 0.950 . S
C768 C767 1.334 . S
C768 C769 1.287 . S
C769 C768 1.287 . S
C769 C770 1.524 . S
C769 H772 0.999 . S
C770 H740 0.950 . S
C770 C769 1.524 . S
C770 C771 1.415 . S
C771 H741 0.950 . S
C771 C766 1.363 . S
C771 C770 1.415 . S
H772 C769 0.999 . S
H773 C754 0.913 . S
H774 C792 0.951 . S
H775 C794 0.951 . S
H776 C796 0.950 . S
H777 C797 0.950 . S
H778 C799 0.950 . S
H779 C802 0.950 . S
H780 C803 0.950 . S
H781 C805 0.950 . S
H782 C806 0.950 . S
H783 C807 0.951 . S
H784 C809 0.951 . S
H785 C811 0.950 . S
H786 C812 0.950 . S
H787 C814 0.950 . S
H788 C817 0.950 . S
H789 C818 0.950 . S
H790 C820 0.950 . S
H791 C821 0.950 . S
C792 H774 0.951 . S
C792 C793 1.366 . S
C792 C794 1.388 . S
C793 C792 1.366 . S
C793 C797 1.385 . S
C794 H775 0.951 . S
C794 C792 1.388 . S
C794 C795 1.366 . S
C795 C794 1.366 . S
C795 C796 1.414 . S
C795 C798 1.499 . S
C796 H776 0.950 . S
C796 C795 1.414 . S
C796 C797 1.374 . S
C797 H777 0.950 . S
C797 C793 1.385 . S
C797 C796 1.374 . S
C798 C795 1.499 . S
C798 C799 1.373 . S
C798 C800 1.389 . S
C799 H778 0.950 . S
C799 C798 1.373 . S
C799 C815 1.377 . S
C800 C798 1.389 . S
C800 C801 1.524 . S
C800 C814 1.377 . S
C801 C800 1.524 . S
C801 C802 1.397 . S
C801 C806 1.363 . S
C802 H779 0.950 . S
C802 C801 1.397 . S
C802 C803 1.334 . S
C803 H780 0.950 . S
C803 C802 1.334 . S
C803 C804 1.287 . S
C804 C803 1.287 . S
C804 C805 1.524 . S
C804 H823 0.913 . S
C805 H781 0.950 . S
C805 C804 1.524 . S
C805 C806 1.415 . S
C806 H782 0.950 . S
C806 C801 1.363 . S
C806 C805 1.415 . S
C807 H783 0.951 . S
C807 C808 1.366 . S
C807 C809 1.388 . S
C808 C807 1.366 . S
C808 C812 1.385 . S
C809 H784 0.951 . S
C809 C807 1.388 . S
C809 C810 1.366 . S
C810 C809 1.366 . S
C810 C811 1.414 . S
C810 C813 1.499 . S
C811 H785 0.950 . S
C811 C810 1.414 . S
C811 C812 1.374 . S
C812 H786 0.950 . S
C812 C808 1.385 . S
C812 C811 1.374 . S
C813 C810 1.499 . S
C813 C814 1.373 . S
C813 C815 1.389 . S
C814 H787 0.950 . S
C814 C800 1.377 . S
C814 C813 1.373 . S
C815 C799 1.377 . S
C815 C813 1.389 . S
C815 C816 1.524 . S
C816 C815 1.524 . S
C816 C817 1.397 . S
C816 C821 1.363 . S
C817 H788 0.950 . S
C817 C816 1.397 . S
C817 C818 1.334 . S
C818 H789 0.950 . S
C818 C817 1.334 . S
C818 C819 1.287 . S
C819 C818 1.287 . S
C819 C820 1.524 . S
C819 H822 0.999 . S
C820 H790 0.950 . S
C820 C819 1.524 . S
C820 C821 1.415 . S
C821 H791 0.950 . S
C821 C816 1.363 . S
C821 C820 1.415 . S
H822 C819 0.999 . S
H823 C804 0.913 . S
H824 C842 0.951 . S
H825 C844 0.951 1_455 S
H826 C846 0.950 . S
H827 C847 0.950 . S
H828 C849 0.950 . S
H829 C852 0.950 1_556 S
H830 C853 0.950 . S
H831 C855 0.950 . S
H832 C856 0.950 . S
H833 C857 0.951 1_655 S
H834 C859 0.951 . S
H835 C861 0.950 . S
H836 C862 0.950 . S
H837 C864 0.950 . S
H838 C867 0.950 . S
H839 C868 0.950 . S
H840 C870 0.950 . S
H841 C871 0.950 . S
C842 H824 0.951 . S
C842 C843 1.366 . S
C842 C844 1.388 . S
C843 C842 1.366 . S
C843 C847 1.385 . S
C844 H825 0.951 1_655 S
C844 C842 1.388 . S
C844 C845 1.366 . S
C845 C844 1.366 . S
C845 C846 1.414 . S
C845 C848 1.499 . S
C846 H826 0.950 . S
C846 C845 1.414 . S
C846 C847 1.374 . S
C847 H827 0.950 . S
C847 C843 1.385 . S
C847 C846 1.374 . S
C848 C845 1.499 . S
C848 C849 1.373 . S
C848 C850 1.389 . S
C849 H828 0.950 . S
C849 C848 1.373 . S
C849 C865 1.377 . S
C850 C848 1.389 . S
C850 C851 1.524 . S
C850 C864 1.377 1_655 S
C851 C850 1.524 . S
C851 C852 1.397 1_556 S
C851 C856 1.363 1_655 S
C852 H829 0.950 1_554 S
C852 C851 1.397 1_554 S
C852 C853 1.334 . S
C853 H830 0.950 . S
C853 C852 1.334 . S
C853 C854 1.287 . S
C854 C853 1.287 . S
C854 C855 1.524 1_655 S
C854 H873 0.913 . S
C855 H831 0.950 . S
C855 C854 1.524 1_455 S
C855 C856 1.415 1_554 S
C856 H832 0.950 . S
C856 C851 1.363 1_455 S
C856 C855 1.415 1_556 S
C857 H833 0.951 1_455 S
C857 C858 1.366 . S
C857 C859 1.388 1_455 S
C858 C857 1.366 . S
C858 C862 1.385 . S
C859 H834 0.951 . S
C859 C857 1.388 1_655 S
C859 C860 1.366 1_655 S
C860 C859 1.366 1_455 S
C860 C861 1.414 . S
C860 C863 1.502 . S
C861 H835 0.950 . S
C861 C860 1.414 . S
C861 C862 1.374 . S
C862 H836 0.950 . S
C862 C858 1.385 . S
C862 C861 1.374 . S
C863 C860 1.502 . S
C863 C864 1.375 . S
C863 C865 1.384 1_455 S
C864 H837 0.950 . S
C864 C850 1.377 1_455 S
C864 C863 1.375 . S
C865 C849 1.377 . S
C865 C863 1.384 1_655 S
C865 C866 1.524 . S
C866 C865 1.524 . S
C866 C867 1.397 1_655 S
C866 C871 1.363 . S
C867 H838 0.950 . S
C867 C866 1.397 1_455 S
C867 C868 1.334 . S
C868 H839 0.950 . S
C868 C867 1.334 . S
C868 C869 1.287 1_455 S
C869 C868 1.287 1_655 S
C869 C870 1.524 . S
C869 H872 0.999 . S
C870 H840 0.950 . S
C870 C869 1.524 . S
C870 C871 1.415 . S
C871 H841 0.950 . S
C871 C866 1.363 . S
C871 C870 1.415 . S
H872 C869 0.999 . S
H873 C854 0.913 . S
H874 C892 0.951 . S
H875 C894 0.951 1_554 S
H876 C896 0.950 . S
H877 C897 0.950 . S
H878 C899 0.950 . S
H879 C902 0.950 . S
H880 C903 0.950 . S
H881 C905 0.950 . S
H882 C906 0.950 . S
H883 C907 0.951 . S
H884 C909 0.951 . S
H885 C911 0.950 . S
H886 C912 0.950 . S
H887 C914 0.950 . S
H888 C917 0.950 . S
H889 C918 0.950 . S
H890 C920 0.950 . S
H891 C921 0.950 . S
C892 H874 0.951 . S
C892 C893 1.365 1_564 S
C892 C894 1.388 1_554 S
C893 C892 1.365 1_546 S
C893 C897 1.385 . S
C894 H875 0.951 1_556 S
C894 C892 1.388 1_556 S
C894 C895 1.348 1_565 S
C895 C894 1.348 1_545 S
C895 C896 1.433 . S
C895 C898 1.500 . S
C896 H876 0.950 . S
C896 C895 1.433 . S
C896 C897 1.374 . S
C897 H877 0.950 . S
C897 C893 1.385 . S
C897 C896 1.374 . S
C898 C895 1.500 . S
C898 C899 1.373 . S
C898 C900 1.389 1_545 S
C899 H878 0.950 . S
C899 C898 1.373 . S
C899 C915 1.377 . S
C900 C898 1.389 1_565 S
C900 C901 1.524 . S
C900 C914 1.377 . S
C901 C900 1.524 . S
C901 C902 1.397 . S
C901 C906 1.363 . S
C902 H879 0.950 . S
C902 C901 1.397 . S
C902 C903 1.334 . S
C903 H880 0.950 . S
C903 C902 1.334 . S
C903 C904 1.287 . S
C904 C903 1.287 . S
C904 C905 1.524 . S
C904 H923 0.913 . S
C905 H881 0.950 . S
C905 C904 1.524 . S
C905 C906 1.415 . S
C906 H882 0.950 . S
C906 C901 1.363 . S
C906 C905 1.415 . S
C907 H883 0.951 . S
C907 C908 1.366 . S
C907 C909 1.388 . S
C908 C907 1.366 . S
C908 C912 1.385 1_545 S
C909 H884 0.951 . S
C909 C907 1.388 . S
C909 C910 1.366 . S
C910 C909 1.366 . S
C910 C911 1.414 1_545 S
C910 C913 1.499 . S
C911 H885 0.950 . S
C911 C910 1.414 1_565 S
C911 C912 1.374 . S
C912 H886 0.950 . S
C912 C908 1.385 1_565 S
C912 C911 1.374 . S
C913 C910 1.499 . S
C913 C914 1.373 1_545 S
C913 C915 1.389 . S
C914 H887 0.950 . S
C914 C900 1.377 . S
C914 C913 1.373 1_565 S
C915 C899 1.377 . S
C915 C913 1.389 . S
C915 C916 1.524 . S
C916 C915 1.524 . S
C916 C917 1.397 . S
C916 C921 1.363 . S
C917 H888 0.950 . S
C917 C916 1.397 . S
C917 C918 1.334 . S
C918 H889 0.950 . S
C918 C917 1.334 . S
C918 C919 1.287 . S
C919 C918 1.287 . S
C919 C920 1.524 . S
C919 H922 0.999 . S
C920 H890 0.950 . S
C920 C919 1.524 . S
C920 C921 1.415 . S
C921 H891 0.950 . S
C921 C916 1.363 . S
C921 C920 1.415 . S
H922 C919 0.999 . S
H923 C904 0.913 . S
H924 C942 0.951 . S
H925 C944 0.951 . S
H926 C946 0.950 . S
H927 C947 0.950 . S
H928 C949 0.950 . S
H929 C952 0.950 . S
H930 C953 0.950 . S
H931 C955 0.950 . S
H932 C956 0.950 . S
H933 C957 0.951 . S
H934 C959 0.951 . S
H935 C961 0.950 . S
H936 C962 0.950 . S
H937 C964 0.950 . S
H938 C967 0.950 . S
H939 C968 0.950 . S
H940 C970 0.950 . S
H941 C971 0.950 . S
C942 H924 0.951 . S
C942 C943 1.366 . S
C942 C944 1.388 . S
C943 C942 1.366 . S
C943 C947 1.385 1_554 S
C944 H925 0.951 . S
C944 C942 1.388 . S
C944 C945 1.366 1_554 S
C945 C944 1.366 1_556 S
C945 C946 1.414 . S
C945 C948 1.499 . S
C946 H926 0.950 . S
C946 C945 1.414 . S
C946 C947 1.374 . S
C947 H927 0.950 . S
C947 C943 1.385 1_556 S
C947 C946 1.374 . S
C948 C945 1.499 . S
C948 C949 1.373 . S
C948 C950 1.389 . S
C949 H928 0.950 . S
C949 C948 1.373 . S
C949 C965 1.377 . S
C950 C948 1.389 . S
C950 C951 1.524 . S
C950 C964 1.377 . S
C951 C950 1.524 . S
C951 C952 1.397 . S
C951 C956 1.363 1_556 S
C952 H929 0.950 . S
C952 C951 1.397 . S
C952 C953 1.334 . S
C953 H930 0.950 . S
C953 C952 1.334 . S
C953 C954 1.287 1_556 S
C954 C953 1.287 1_554 S
C954 C955 1.524 . S
C954 H973 0.913 . S
C955 H931 0.950 . S
C955 C954 1.524 . S
C955 C956 1.415 . S
C956 H932 0.950 . S
C956 C951 1.363 1_554 S
C956 C955 1.415 . S
C957 H933 0.951 . S
C957 C958 1.366 . S
C957 C959 1.388 . S
C958 C957 1.366 . S
C958 C962 1.385 . S
C959 H934 0.951 . S
C959 C957 1.388 . S
C959 C960 1.366 . S
C960 C959 1.366 . S
C960 C961 1.414 . S
C960 C963 1.499 . S
C961 H935 0.950 . S
C961 C960 1.414 . S
C961 C962 1.374 . S
C962 H936 0.950 . S
C962 C958 1.385 . S
C962 C961 1.374 . S
C963 C960 1.499 . S
C963 C964 1.373 . S
C963 C965 1.389 . S
C964 H937 0.950 . S
C964 C950 1.377 . S
C964 C963 1.373 . S
C965 C949 1.377 . S
C965 C963 1.389 . S
C965 C966 1.524 . S
C966 C965 1.524 . S
C966 C967 1.397 . S
C966 C971 1.363 . S
C967 H938 0.950 . S
C967 C966 1.397 . S
C967 C968 1.334 . S
C968 H939 0.950 . S
C968 C967 1.334 . S
C968 C969 1.287 . S
C969 C968 1.287 . S
C969 C970 1.524 . S
C969 H972 0.999 . S
C970 H940 0.950 . S
C970 C969 1.524 . S
C970 C971 1.415 . S
C971 H941 0.950 . S
C971 C966 1.363 . S
C971 C970 1.415 . S
H972 C969 0.999 . S
H973 C954 0.913 . S
H974 C992 0.951 . S
H975 C994 0.951 . S
H976 C996 0.950 . S
H977 C997 0.950 1_556 S
H978 C999 0.950 . S
H979 C1002 0.950 . S
H980 C1003 0.950 . S
H981 C1005 0.950 . S
H982 C1006 0.950 . S
H983 C1007 0.951 . S
H984 C1009 0.951 . S
H985 C1011 0.950 . S
H986 C1012 0.950 . S
H987 C1014 0.950 . S
H988 C1017 0.950 . S
H989 C1018 0.950 . S
H990 C1020 0.950 . S
H991 C1021 0.950 . S
C992 H974 0.951 . S
C992 C993 1.366 . S
C992 C994 1.388 . S
C993 C992 1.366 . S
C993 C997 1.385 . S
C994 H975 0.951 . S
C994 C992 1.388 . S
C994 C995 1.366 1_554 S
C995 C994 1.366 1_556 S
C995 C996 1.414 . S
C995 C998 1.499 . S
C996 H976 0.950 . S
C996 C995 1.414 . S
C996 C997 1.374 1_556 S
C997 H977 0.950 1_554 S
C997 C993 1.385 . S
C997 C996 1.374 1_554 S
C998 C995 1.499 . S
C998 C999 1.373 . S
C998 C1000 1.389 . S
C999 H978 0.950 . S
C999 C998 1.373 . S
C999 C1015 1.377 . S
C1000 C998 1.389 . S
C1000 C1001 1.524 1_556 S
C1000 C1014 1.377 . S
C1001 C1000 1.524 1_554 S
C1001 C1002 1.397 . S
C1001 C1006 1.363 . S
C1002 H979 0.950 . S
C1002 C1001 1.397 . S
C1002 C1003 1.334 . S
C1003 H980 0.950 . S
C1003 C1002 1.334 . S
C1003 C1004 1.287 . S
C1004 C1003 1.287 . S
C1004 C1005 1.524 . S
C1004 H1023 0.913 . S
C1005 H981 0.950 . S
C1005 C1004 1.524 . S
C1005 C1006 1.415 . S
C1006 H982 0.950 . S
C1006 C1001 1.363 . S
C1006 C1005 1.415 . S
C1007 H983 0.951 . S
C1007 C1008 1.366 . S
C1007 C1009 1.388 . S
C1008 C1007 1.366 . S
C1008 C1012 1.385 . S
C1009 H984 0.951 . S
C1009 C1007 1.388 . S
C1009 C1010 1.366 . S
C1010 C1009 1.366 . S
C1010 C1011 1.414 . S
C1010 C1013 1.499 . S
C1011 H985 0.950 . S
C1011 C1010 1.414 . S
C1011 C1012 1.374 . S
C1012 H986 0.950 . S
C1012 C1008 1.385 . S
C1012 C1011 1.374 . S
C1013 C1010 1.499 . S
C1013 C1014 1.373 . S
C1013 C1015 1.389 . S
C1014 H987 0.950 . S
C1014 C1000 1.377 . S
C1014 C1013 1.373 . S
C1015 C999 1.377 . S
C1015 C1013 1.389 . S
C1015 C1016 1.524 . S
C1016 C1015 1.524 . S
C1016 C1017 1.397 . S
C1016 C1021 1.363 . S
C1017 H988 0.950 . S
C1017 C1016 1.397 . S
C1017 C1018 1.334 . S
C1018 H989 0.950 . S
C1018 C1017 1.334 . S
C1018 C1019 1.287 . S
C1019 C1018 1.287 . S
C1019 C1020 1.524 . S
C1019 H1022 0.999 . S
C1020 H990 0.950 . S
C1020 C1019 1.524 . S
C1020 C1021 1.415 . S
C1021 H991 0.950 . S
C1021 C1016 1.363 . S
C1021 C1020 1.415 . S
H1022 C1019 0.999 . S
H1023 C1004 0.913 . S
H1024 C1042 0.951 . S
H1025 C1044 0.951 . S
H1026 C1046 0.950 . S
H1027 C1047 0.950 . S
H1028 C1049 0.950 . S
H1029 C1052 0.950 . S
H1030 C1053 0.950 . S
H1031 C1055 0.950 1_556 S
H1032 C1056 0.950 1_556 S
H1033 C1057 0.951 1_554 S
H1034 C1059 0.951 . S
H1035 C1061 0.950 . S
H1036 C1062 0.950 . S
H1037 C1064 0.950 . S
H1038 C1067 0.950 . S
H1039 C1068 0.950 . S
H1040 C1070 0.950 . S
H1041 C1071 0.950 . S
C1042 H1024 0.951 . S
C1042 C1043 1.366 . S
C1042 C1044 1.388 . S
C1043 C1042 1.366 . S
C1043 C1047 1.385 . S
C1044 H1025 0.951 . S
C1044 C1042 1.388 . S
C1044 C1045 1.366 . S
C1045 C1044 1.366 . S
C1045 C1046 1.414 . S
C1045 C1048 1.499 . S
C1046 H1026 0.950 . S
C1046 C1045 1.414 . S
C1046 C1047 1.374 . S
C1047 H1027 0.950 . S
C1047 C1043 1.385 . S
C1047 C1046 1.374 . S
C1048 C1045 1.499 . S
C1048 C1049 1.373 . S
C1048 C1050 1.389 . S
C1049 H1028 0.950 . S
C1049 C1048 1.373 . S
C1049 C1065 1.377 . S
C1050 C1048 1.389 . S
C1050 C1051 1.524 . S
C1050 C1064 1.377 . S
C1051 C1050 1.524 . S
C1051 C1052 1.397 . S
C1051 C1056 1.363 . S
C1052 H1029 0.950 . S
C1052 C1051 1.397 . S
C1052 C1053 1.334 . S
C1053 H1030 0.950 . S
C1053 C1052 1.334 . S
C1053 C1054 1.287 . S
C1054 C1053 1.287 . S
C1054 C1055 1.524 . S
C1054 H1073 0.913 . S
C1055 H1031 0.950 1_554 S
C1055 C1054 1.524 . S
C1055 C1056 1.415 . S
C1056 H1032 0.950 1_554 S
C1056 C1051 1.363 . S
C1056 C1055 1.415 . S
C1057 H1033 0.951 1_556 S
C1057 C1058 1.366 . S
C1057 C1059 1.388 1_556 S
C1058 C1057 1.366 . S
C1058 C1062 1.385 . S
C1059 H1034 0.951 . S
C1059 C1057 1.388 1_554 S
C1059 C1060 1.366 . S
C1060 C1059 1.366 . S
C1060 C1061 1.414 1_554 S
C1060 C1063 1.499 . S
C1061 H1035 0.950 . S
C1061 C1060 1.414 1_556 S
C1061 C1062 1.374 . S
C1062 H1036 0.950 . S
C1062 C1058 1.385 . S
C1062 C1061 1.374 . S
C1063 C1060 1.499 . S
C1063 C1064 1.373 . S
C1063 C1065 1.389 . S
C1064 H1037 0.950 . S
C1064 C1050 1.377 . S
C1064 C1063 1.373 . S
C1065 C1049 1.377 . S
C1065 C1063 1.389 . S
C1065 C1066 1.524 . S
C1066 C1065 1.524 . S
C1066 C1067 1.397 . S
C1066 C1071 1.363 . S
C1067 H1038 0.950 . S
C1067 C1066 1.397 . S
C1067 C1068 1.334 . S
C1068 H1039 0.950 . S
C1068 C1067 1.334 . S
C1068 C1069 1.287 . S
C1069 C1068 1.287 . S
C1069 C1070 1.524 . S
C1069 H1072 0.999 . S
C1070 H1040 0.950 . S
C1070 C1069 1.524 . S
C1070 C1071 1.415 . S
C1071 H1041 0.950 . S
C1071 C1066 1.363 . S
C1071 C1070 1.415 . S
H1072 C1069 0.999 . S
H1073 C1054 0.913 . S
H1074 C1092 0.951 . S
H1075 C1094 0.951 . S
H1076 C1096 0.950 . S
H1077 C1097 0.950 . S
H1078 C1099 0.950 . S
H1079 C1102 0.950 . S
H1080 C1103 0.950 . S
H1081 C1105 0.950 1_556 S
H1082 C1106 0.950 . S
H1083 C1107 0.951 . S
H1084 C1109 0.951 . S
H1085 C1111 0.950 . S
H1086 C1112 0.950 . S
H1087 C1114 0.950 . S
H1088 C1117 0.950 . S
H1089 C1118 0.950 . S
H1090 C1120 0.950 1_554 S
H1091 C1121 0.950 . S
C1092 H1074 0.951 . S
C1092 C1093 1.356 1_565 S
C1092 C1094 1.388 . S
C1093 C1092 1.356 1_545 S
C1093 C1097 1.394 . S
C1094 H1075 0.951 . S
C1094 C1092 1.388 . S
C1094 C1095 1.359 1_565 S
C1095 C1094 1.359 1_545 S
C1095 C1096 1.421 . S
C1095 C1098 1.500 . S
C1096 H1076 0.950 . S
C1096 C1095 1.421 . S
C1096 C1097 1.374 . S
C1097 H1077 0.950 . S
C1097 C1093 1.394 . S
C1097 C1096 1.374 . S
C1098 C1095 1.500 . S
C1098 C1099 1.425 . S
C1098 C1100 1.339 1_545 S
C1099 H1078 0.950 . S
C1099 C1098 1.425 . S
C1099 C1115 1.377 1_554 S
C1100 C1098 1.339 1_565 S
C1100 C1101 1.524 . S
C1100 C1114 1.377 1_554 S
C1101 C1100 1.524 . S
C1101 C1102 1.397 . S
C1101 C1106 1.363 1_554 S
C1102 H1079 0.950 . S
C1102 C1101 1.397 . S
C1102 C1103 1.334 . S
C1103 H1080 0.950 . S
C1103 C1102 1.334 . S
C1103 C1104 1.287 . S
C1104 C1103 1.287 . S
C1104 C1105 1.524 . S
C1104 H1123 0.913 . S
C1105 H1081 0.950 1_554 S
C1105 C1104 1.524 . S
C1105 C1106 1.415 1_554 S
C1106 H1082 0.950 . S
C1106 C1101 1.363 1_556 S
C1106 C1105 1.415 1_556 S
C1107 H1083 0.951 . S
C1107 C1108 1.366 . S
C1107 C1109 1.388 . S
C1108 C1107 1.366 . S
C1108 C1112 1.385 1_545 S
C1109 H1084 0.951 . S
C1109 C1107 1.388 . S
C1109 C1110 1.366 . S
C1110 C1109 1.366 . S
C1110 C1111 1.414 1_545 S
C1110 C1113 1.499 . S
C1111 H1085 0.950 . S
C1111 C1110 1.414 1_565 S
C1111 C1112 1.374 . S
C1112 H1086 0.950 . S
C1112 C1108 1.385 1_565 S
C1112 C1111 1.374 . S
C1113 C1110 1.499 . S
C1113 C1114 1.373 1_545 S
C1113 C1115 1.389 . S
C1114 H1087 0.950 . S
C1114 C1100 1.377 1_556 S
C1114 C1113 1.373 1_565 S
C1115 C1099 1.377 1_556 S
C1115 C1113 1.389 . S
C1115 C1116 1.524 . S
C1116 C1115 1.524 . S
C1116 C1117 1.397 . S
C1116 C1121 1.363 1_556 S
C1117 H1088 0.950 . S
C1117 C1116 1.397 . S
C1117 C1118 1.334 . S
C1118 H1089 0.950 . S
C1118 C1117 1.334 . S
C1118 C1119 1.287 . S
C1119 C1118 1.287 . S
C1119 C1120 1.524 . S
C1119 H1122 0.999 . S
C1120 H1090 0.950 1_556 S
C1120 C1119 1.524 . S
C1120 C1121 1.415 1_556 S
C1121 H1091 0.950 . S
C1121 C1116 1.363 1_554 S
C1121 C1120 1.415 1_554 S
H1122 C1119 0.999 . S
H1123 C1104 0.913 . S
H1124 C1142 0.951 . S
H1125 C1144 0.951 . S
H1126 C1146 0.950 . S
H1127 C1147 0.950 . S
H1128 C1149 0.950 . S
H1129 C1152 0.950 . S
H1130 C1153 0.950 . S
H1131 C1155 0.950 . S
H1132 C1156 0.950 . S
H1133 C1157 0.951 . S
H1134 C1159 0.951 . S
H1135 C1161 0.950 . S
H1136 C1162 0.950 . S
H1137 C1164 0.950 . S
H1138 C1167 0.950 . S
H1139 C1168 0.950 . S
H1140 C1170 0.950 . S
H1141 C1171 0.950 . S
C1142 H1124 0.951 . S
C1142 C1143 1.366 . S
C1142 C1144 1.388 . S
C1143 C1142 1.366 . S
C1143 C1147 1.385 . S
C1144 H1125 0.951 . S
C1144 C1142 1.388 . S
C1144 C1145 1.366 . S
C1145 C1144 1.366 . S
C1145 C1146 1.414 . S
C1145 C1148 1.499 . S
C1146 H1126 0.950 . S
C1146 C1145 1.414 . S
C1146 C1147 1.374 . S
C1147 H1127 0.950 . S
C1147 C1143 1.385 . S
C1147 C1146 1.374 . S
C1148 C1145 1.499 . S
C1148 C1149 1.373 1_554 S
C1148 C1150 1.389 . S
C1149 H1128 0.950 . S
C1149 C1148 1.373 1_556 S
C1149 C1165 1.377 . S
C1150 C1148 1.389 . S
C1150 C1151 1.524 . S
C1150 C1164 1.377 . S
C1151 C1150 1.524 . S
C1151 C1152 1.397 . S
C1151 C1156 1.363 . S
C1152 H1129 0.950 . S
C1152 C1151 1.397 . S
C1152 C1153 1.334 . S
C1153 H1130 0.950 . S
C1153 C1152 1.334 . S
C1153 C1154 1.287 . S
C1154 C1153 1.287 . S
C1154 C1155 1.524 . S
C1154 H1173 0.913 . S
C1155 H1131 0.950 . S
C1155 C1154 1.524 . S
C1155 C1156 1.415 . S
C1156 H1132 0.950 . S
C1156 C1151 1.363 . S
C1156 C1155 1.415 . S
C1157 H1133 0.951 . S
C1157 C1158 1.366 . S
C1157 C1159 1.388 . S
C1158 C1157 1.366 . S
C1158 C1162 1.385 . S
C1159 H1134 0.951 . S
C1159 C1157 1.388 . S
C1159 C1160 1.366 . S
C1160 C1159 1.366 . S
C1160 C1161 1.414 . S
C1160 C1163 1.499 . S
C1161 H1135 0.950 . S
C1161 C1160 1.414 . S
C1161 C1162 1.374 . S
C1162 H1136 0.950 . S
C1162 C1158 1.385 . S
C1162 C1161 1.374 . S
C1163 C1160 1.499 . S
C1163 C1164 1.373 1_556 S
C1163 C1165 1.389 . S
C1164 H1137 0.950 . S
C1164 C1150 1.377 . S
C1164 C1163 1.373 1_554 S
C1165 C1149 1.377 . S
C1165 C1163 1.389 . S
C1165 C1166 1.524 . S
C1166 C1165 1.524 . S
C1166 C1167 1.397 . S
C1166 C1171 1.363 . S
C1167 H1138 0.950 . S
C1167 C1166 1.397 . S
C1167 C1168 1.334 . S
C1168 H1139 0.950 . S
C1168 C1167 1.334 . S
C1168 C1169 1.287 . S
C1169 C1168 1.287 . S
C1169 C1170 1.524 . S
C1169 H1172 0.999 . S
C1170 H1140 0.950 . S
C1170 C1169 1.524 . S
C1170 C1171 1.415 . S
C1171 H1141 0.950 . S
C1171 C1166 1.363 . S
C1171 C1170 1.415 . S
H1172 C1169 0.999 . S
H1173 C1154 0.913 . S
H1174 C1192 0.951 . S
H1175 C1194 0.951 . S
H1176 C1196 0.950 1_556 S
H1177 C1197 0.950 . S
H1178 C1199 0.950 . S
H1179 C1202 0.950 . S
H1180 C1203 0.950 . S
H1181 C1205 0.950 . S
H1182 C1206 0.950 . S
H1183 C1207 0.951 . S
H1184 C1209 0.951 . S
H1185 C1211 0.950 . S
H1186 C1212 0.950 . S
H1187 C1214 0.950 . S
H1188 C1217 0.950 . S
H1189 C1218 0.950 . S
H1190 C1220 0.950 . S
H1191 C1221 0.950 . S
C1192 H1174 0.951 . S
C1192 C1193 1.366 . S
C1192 C1194 1.388 . S
C1193 C1192 1.366 . S
C1193 C1197 1.385 . S
C1194 H1175 0.951 . S
C1194 C1192 1.388 . S
C1194 C1195 1.366 . S
C1195 C1194 1.366 . S
C1195 C1196 1.414 . S
C1195 C1198 1.499 . S
C1196 H1176 0.950 1_554 S
C1196 C1195 1.414 . S
C1196 C1197 1.374 . S
C1197 H1177 0.950 . S
C1197 C1193 1.385 . S
C1197 C1196 1.374 . S
C1198 C1195 1.499 . S
C1198 C1199 1.373 1_554 S
C1198 C1200 1.389 . S
C1199 H1178 0.950 . S
C1199 C1198 1.373 1_556 S
C1199 C1215 1.377 . S
C1200 C1198 1.389 . S
C1200 C1201 1.524 . S
C1200 C1214 1.377 1_554 S
C1201 C1200 1.524 . S
C1201 C1202 1.397 . S
C1201 C1206 1.363 . S
C1202 H1179 0.950 . S
C1202 C1201 1.397 . S
C1202 C1203 1.334 . S
C1203 H1180 0.950 . S
C1203 C1202 1.334 . S
C1203 C1204 1.287 . S
C1204 C1203 1.287 . S
C1204 C1205 1.524 . S
C1204 H1223 0.913 . S
C1205 H1181 0.950 . S
C1205 C1204 1.524 . S
C1205 C1206 1.415 . S
C1206 H1182 0.950 . S
C1206 C1201 1.363 . S
C1206 C1205 1.415 . S
C1207 H1183 0.951 . S
C1207 C1208 1.366 . S
C1207 C1209 1.388 . S
C1208 C1207 1.366 . S
C1208 C1212 1.385 . S
C1209 H1184 0.951 . S
C1209 C1207 1.388 . S
C1209 C1210 1.366 . S
C1210 C1209 1.366 . S
C1210 C1211 1.414 . S
C1210 C1213 1.499 . S
C1211 H1185 0.950 . S
C1211 C1210 1.414 . S
C1211 C1212 1.374 . S
C1212 H1186 0.950 . S
C1212 C1208 1.385 . S
C1212 C1211 1.374 . S
C1213 C1210 1.499 . S
C1213 C1214 1.373 . S
C1213 C1215 1.389 . S
C1214 H1187 0.950 . S
C1214 C1200 1.377 1_556 S
C1214 C1213 1.373 . S
C1215 C1199 1.377 . S
C1215 C1213 1.389 . S
C1215 C1216 1.524 . S
C1216 C1215 1.524 . S
C1216 C1217 1.397 . S
C1216 C1221 1.363 . S
C1217 H1188 0.950 . S
C1217 C1216 1.397 . S
C1217 C1218 1.334 . S
C1218 H1189 0.950 . S
C1218 C1217 1.334 . S
C1218 C1219 1.287 . S
C1219 C1218 1.287 . S
C1219 C1220 1.524 . S
C1219 H1222 0.999 . S
C1220 H1190 0.950 . S
C1220 C1219 1.524 . S
C1220 C1221 1.415 . S
C1221 H1191 0.950 . S
C1221 C1216 1.363 . S
C1221 C1220 1.415 . S
H1222 C1219 0.999 . S
H1223 C1204 0.913 . S
H1224 C1242 0.951 . S
H1225 C1244 0.951 . S
H1226 C1246 0.950 1_455 S
H1227 C1247 0.950 . S
H1228 C1249 0.950 . S
H1229 C1252 0.950 . S
H1230 C1253 0.950 . S
H1231 C1255 0.950 . S
H1232 C1256 0.950 . S
H1233 C1257 0.951 . S
H1234 C1259 0.951 . S
H1235 C1261 0.950 . S
H1236 C1262 0.950 . S
H1237 C1264 0.950 . S
H1238 C1267 0.950 . S
H1239 C1268 0.950 . S
H1240 C1270 0.950 . S
H1241 C1271 0.950 . S
C1242 H1224 0.951 . S
C1242 C1243 1.366 . S
C1242 C1244 1.388 . S
C1243 C1242 1.366 . S
C1243 C1247 1.385 . S
C1244 H1225 0.951 . S
C1244 C1242 1.388 . S
C1244 C1245 1.366 . S
C1245 C1244 1.366 . S
C1245 C1246 1.414 . S
C1245 C1248 1.499 . S
C1246 H1226 0.950 1_655 S
C1246 C1245 1.414 . S
C1246 C1247 1.374 . S
C1247 H1227 0.950 . S
C1247 C1243 1.385 . S
C1247 C1246 1.374 . S
C1248 C1245 1.499 . S
C1248 C1249 1.373 . S
C1248 C1250 1.389 . S
C1249 H1228 0.950 . S
C1249 C1248 1.373 . S
C1249 C1265 1.377 . S
C1250 C1248 1.389 . S
C1250 C1251 1.524 . S
C1250 C1264 1.377 . S
C1251 C1250 1.524 . S
C1251 C1252 1.397 . S
C1251 C1256 1.363 . S
C1252 H1229 0.950 . S
C1252 C1251 1.397 . S
C1252 C1253 1.334 . S
C1253 H1230 0.950 . S
C1253 C1252 1.334 . S
C1253 C1254 1.287 . S
C1254 C1253 1.287 . S
C1254 C1255 1.524 . S
C1254 H1273 0.913 . S
C1255 H1231 0.950 . S
C1255 C1254 1.524 . S
C1255 C1256 1.415 . S
C1256 H1232 0.950 . S
C1256 C1251 1.363 . S
C1256 C1255 1.415 . S
C1257 H1233 0.951 . S
C1257 C1258 1.366 1_455 S
C1257 C1259 1.388 . S
C1258 C1257 1.366 1_655 S
C1258 C1262 1.385 . S
C1259 H1234 0.951 . S
C1259 C1257 1.388 . S
C1259 C1260 1.366 1_455 S
C1260 C1259 1.366 1_655 S
C1260 C1261 1.414 . S
C1260 C1263 1.499 . S
C1261 H1235 0.950 . S
C1261 C1260 1.414 . S
C1261 C1262 1.374 . S
C1262 H1236 0.950 . S
C1262 C1258 1.385 . S
C1262 C1261 1.374 . S
C1263 C1260 1.499 . S
C1263 C1264 1.373 . S
C1263 C1265 1.389 . S
C1264 H1237 0.950 . S
C1264 C1250 1.377 . S
C1264 C1263 1.373 . S
C1265 C1249 1.377 . S
C1265 C1263 1.389 . S
C1265 C1266 1.524 . S
C1266 C1265 1.524 . S
C1266 C1267 1.397 . S
C1266 C1271 1.363 1_655 S
C1267 H1238 0.950 . S
C1267 C1266 1.397 . S
C1267 C1268 1.334 . S
C1268 H1239 0.950 . S
C1268 C1267 1.334 . S
C1268 C1269 1.287 . S
C1269 C1268 1.287 . S
C1269 C1270 1.524 1_655 S
C1269 H1272 0.998 1_655 S
C1270 H1240 0.950 . S
C1270 C1269 1.524 1_455 S
C1270 C1271 1.415 . S
C1271 H1241 0.950 . S
C1271 C1266 1.363 1_455 S
C1271 C1270 1.415 . S
H1272 C1269 0.998 1_455 S
H1273 C1254 0.913 . S
H1274 C1292 0.951 . S
H1275 C1294 0.951 . S
H1276 C1296 0.950 . S
H1277 C1297 0.950 . S
H1278 C1299 0.950 . S
H1279 C1302 0.950 . S
H1280 C1303 0.950 . S
H1281 C1305 0.950 . S
H1282 C1306 0.950 . S
H1283 C1307 0.951 . S
H1284 C1309 0.951 . S
H1285 C1311 0.950 . S
H1286 C1312 0.950 . S
H1287 C1314 0.950 . S
H1288 C1317 0.950 . S
H1289 C1318 0.950 . S
H1290 C1320 0.950 . S
H1291 C1321 0.950 . S
C1292 H1274 0.951 . S
C1292 C1293 1.363 1_545 S
C1292 C1294 1.388 . S
C1293 C1292 1.363 1_565 S
C1293 C1297 1.387 . S
C1294 H1275 0.951 . S
C1294 C1292 1.388 . S
C1294 C1295 1.366 1_545 S
C1295 C1294 1.366 1_565 S
C1295 C1296 1.413 . S
C1295 C1298 1.500 . S
C1296 H1276 0.950 . S
C1296 C1295 1.413 . S
C1296 C1297 1.374 . S
C1297 H1277 0.950 . S
C1297 C1293 1.387 . S
C1297 C1296 1.374 . S
C1298 C1295 1.500 . S
C1298 C1299 1.406 . S
C1298 C1300 1.357 1_565 S
C1299 H1278 0.950 . S
C1299 C1298 1.406 . S
C1299 C1315 1.377 . S
C1300 C1298 1.357 1_545 S
C1300 C1301 1.524 . S
C1300 C1314 1.377 . S
C1301 C1300 1.524 . S
C1301 C1302 1.397 . S
C1301 C1306 1.363 . S
C1302 H1279 0.950 . S
C1302 C1301 1.397 . S
C1302 C1303 1.334 . S
C1303 H1280 0.950 . S
C1303 C1302 1.334 . S
C1303 C1304 1.287 . S
C1304 C1303 1.287 . S
C1304 C1305 1.524 . S
C1304 H1323 0.913 . S
C1305 H1281 0.950 . S
C1305 C1304 1.524 . S
C1305 C1306 1.415 . S
C1306 H1282 0.950 . S
C1306 C1301 1.363 . S
C1306 C1305 1.415 . S
C1307 H1283 0.951 . S
C1307 C1308 1.366 . S
C1307 C1309 1.388 . S
C1308 C1307 1.366 . S
C1308 C1312 1.385 1_565 S
C1309 H1284 0.951 . S
C1309 C1307 1.388 . S
C1309 C1310 1.366 . S
C1310 C1309 1.366 . S
C1310 C1311 1.414 1_565 S
C1310 C1313 1.499 . S
C1311 H1285 0.950 . S
C1311 C1310 1.414 1_545 S
C1311 C1312 1.374 . S
C1312 H1286 0.950 . S
C1312 C1308 1.385 1_545 S
C1312 C1311 1.374 . S
C1313 C1310 1.499 . S
C1313 C1314 1.373 1_565 S
C1313 C1315 1.389 . S
C1314 H1287 0.950 . S
C1314 C1300 1.377 . S
C1314 C1313 1.373 1_545 S
C1315 C1299 1.377 . S
C1315 C1313 1.389 . S
C1315 C1316 1.524 . S
C1316 C1315 1.524 . S
C1316 C1317 1.397 . S
C1316 C1321 1.363 . S
C1317 H1288 0.950 . S
C1317 C1316 1.397 . S
C1317 C1318 1.334 . S
C1318 H1289 0.950 . S
C1318 C1317 1.334 . S
C1318 C1319 1.287 . S
C1319 C1318 1.287 . S
C1319 C1320 1.524 . S
C1319 H1322 0.999 . S
C1320 H1290 0.950 . S
C1320 C1319 1.524 . S
C1320 C1321 1.415 . S
C1321 H1291 0.950 . S
C1321 C1316 1.363 . S
C1321 C1320 1.415 . S
H1322 C1319 0.999 . S
H1323 C1304 0.913 . S
H1324 C1342 0.951 . S
H1325 C1344 0.951 . S
H1326 C1346 0.950 . S
H1327 C1347 0.950 . S
H1328 C1349 0.950 . S
H1329 C1352 0.950 . S
H1330 C1353 0.950 . S
H1331 C1355 0.950 . S
H1332 C1356 0.950 . S
H1333 C1357 0.951 . S
H1334 C1359 0.951 . S
H1335 C1361 0.950 . S
H1336 C1362 0.950 . S
H1337 C1364 0.950 . S
H1338 C1367 0.950 . S
H1339 C1368 0.950 . S
H1340 C1370 0.950 . S
H1341 C1371 0.950 . S
C1342 H1324 0.951 . S
C1342 C1343 1.366 . S
C1342 C1344 1.388 . S
C1343 C1342 1.366 . S
C1343 C1347 1.385 . S
C1344 H1325 0.951 . S
C1344 C1342 1.388 . S
C1344 C1345 1.366 . S
C1345 C1344 1.366 . S
C1345 C1346 1.414 . S
C1345 C1348 1.499 . S
C1346 H1326 0.950 . S
C1346 C1345 1.414 . S
C1346 C1347 1.374 . S
C1347 H1327 0.950 . S
C1347 C1343 1.385 . S
C1347 C1346 1.374 . S
C1348 C1345 1.499 . S
C1348 C1349 1.373 . S
C1348 C1350 1.389 . S
C1349 H1328 0.950 . S
C1349 C1348 1.373 . S
C1349 C1365 1.377 . S
C1350 C1348 1.389 . S
C1350 C1351 1.524 . S
C1350 C1364 1.377 . S
C1351 C1350 1.524 . S
C1351 C1352 1.397 . S
C1351 C1356 1.363 . S
C1352 H1329 0.950 . S
C1352 C1351 1.397 . S
C1352 C1353 1.334 . S
C1353 H1330 0.950 . S
C1353 C1352 1.334 . S
C1353 C1354 1.287 . S
C1354 C1353 1.287 . S
C1354 C1355 1.524 . S
C1354 H1373 0.913 . S
C1355 H1331 0.950 . S
C1355 C1354 1.524 . S
C1355 C1356 1.415 . S
C1356 H1332 0.950 . S
C1356 C1351 1.363 . S
C1356 C1355 1.415 . S
C1357 H1333 0.951 . S
C1357 C1358 1.366 . S
C1357 C1359 1.388 . S
C1358 C1357 1.366 . S
C1358 C1362 1.385 . S
C1359 H1334 0.951 . S
C1359 C1357 1.388 . S
C1359 C1360 1.366 . S
C1360 C1359 1.366 . S
C1360 C1361 1.414 . S
C1360 C1363 1.499 . S
C1361 H1335 0.950 . S
C1361 C1360 1.414 . S
C1361 C1362 1.374 . S
C1362 H1336 0.950 . S
C1362 C1358 1.385 . S
C1362 C1361 1.374 . S
C1363 C1360 1.499 . S
C1363 C1364 1.373 . S
C1363 C1365 1.389 . S
C1364 H1337 0.950 . S
C1364 C1350 1.377 . S
C1364 C1363 1.373 . S
C1365 C1349 1.377 . S
C1365 C1363 1.389 . S
C1365 C1366 1.524 . S
C1366 C1365 1.524 . S
C1366 C1367 1.397 . S
C1366 C1371 1.363 . S
C1367 H1338 0.950 . S
C1367 C1366 1.397 . S
C1367 C1368 1.334 . S
C1368 H1339 0.950 . S
C1368 C1367 1.334 . S
C1368 C1369 1.287 . S
C1369 C1368 1.287 . S
C1369 C1370 1.524 . S
C1369 H1372 0.999 . S
C1370 H1340 0.950 . S
C1370 C1369 1.524 . S
C1370 C1371 1.415 . S
C1371 H1341 0.950 . S
C1371 C1366 1.363 . S
C1371 C1370 1.415 . S
H1372 C1369 0.999 . S
H1373 C1354 0.913 . S
H1374 C1392 0.951 . S
H1375 C1394 0.951 . S
H1376 C1396 0.950 . S
H1377 C1397 0.950 . S
H1378 C1399 0.950 . S
H1379 C1402 0.950 . S
H1380 C1403 0.950 . S
H1381 C1405 0.950 . S
H1382 C1406 0.950 . S
H1383 C1407 0.951 . S
H1384 C1409 0.951 . S
H1385 C1411 0.950 . S
H1386 C1412 0.950 . S
H1387 C1414 0.950 . S
H1388 C1417 0.950 . S
H1389 C1418 0.950 . S
H1390 C1420 0.950 . S
H1391 C1421 0.950 . S
C1392 H1374 0.951 . S
C1392 C1393 1.366 . S
C1392 C1394 1.388 . S
C1393 C1392 1.366 . S
C1393 C1397 1.385 . S
C1394 H1375 0.951 . S
C1394 C1392 1.388 . S
C1394 C1395 1.366 . S
C1395 C1394 1.366 . S
C1395 C1396 1.414 . S
C1395 C1398 1.499 . S
C1396 H1376 0.950 . S
C1396 C1395 1.414 . S
C1396 C1397 1.374 . S
C1397 H1377 0.950 . S
C1397 C1393 1.385 . S
C1397 C1396 1.374 . S
C1398 C1395 1.499 . S
C1398 C1399 1.373 . S
C1398 C1400 1.389 . S
C1399 H1378 0.950 . S
C1399 C1398 1.373 . S
C1399 C1415 1.377 . S
C1400 C1398 1.389 . S
C1400 C1401 1.524 . S
C1400 C1414 1.377 . S
C1401 C1400 1.524 . S
C1401 C1402 1.397 . S
C1401 C1406 1.363 . S
C1402 H1379 0.950 . S
C1402 C1401 1.397 . S
C1402 C1403 1.334 . S
C1403 H1380 0.950 . S
C1403 C1402 1.334 . S
C1403 C1404 1.287 . S
C1404 C1403 1.287 . S
C1404 C1405 1.524 . S
C1404 H1423 0.913 . S
C1405 H1381 0.950 . S
C1405 C1404 1.524 . S
C1405 C1406 1.415 . S
C1406 H1382 0.950 . S
C1406 C1401 1.363 . S
C1406 C1405 1.415 . S
C1407 H1383 0.951 . S
C1407 C1408 1.366 . S
C1407 C1409 1.388 . S
C1408 C1407 1.366 . S
C1408 C1412 1.385 . S
C1409 H1384 0.951 . S
C1409 C1407 1.388 . S
C1409 C1410 1.366 . S
C1410 C1409 1.366 . S
C1410 C1411 1.414 . S
C1410 C1413 1.499 . S
C1411 H1385 0.950 . S
C1411 C1410 1.414 . S
C1411 C1412 1.374 . S
C1412 H1386 0.950 . S
C1412 C1408 1.385 . S
C1412 C1411 1.374 . S
C1413 C1410 1.499 . S
C1413 C1414 1.373 . S
C1413 C1415 1.389 . S
C1414 H1387 0.950 . S
C1414 C1400 1.377 . S
C1414 C1413 1.373 . S
C1415 C1399 1.377 . S
C1415 C1413 1.389 . S
C1415 C1416 1.524 . S
C1416 C1415 1.524 . S
C1416 C1417 1.397 . S
C1416 C1421 1.363 . S
C1417 H1388 0.950 . S
C1417 C1416 1.397 . S
C1417 C1418 1.334 . S
C1418 H1389 0.950 . S
C1418 C1417 1.334 . S
C1418 C1419 1.287 . S
C1419 C1418 1.287 . S
C1419 C1420 1.524 . S
C1419 H1422 0.999 . S
C1420 H1390 0.950 . S
C1420 C1419 1.524 . S
C1420 C1421 1.415 . S
C1421 H1391 0.950 . S
C1421 C1416 1.363 . S
C1421 C1420 1.415 . S
H1422 C1419 0.999 . S
H1423 C1404 0.913 . S
C243 C74 1.808 1_565 S
C258 C105 1.824 . S
C308 C126 1.530 . S
C293 C85 1.519 . S
C358 C160 1.286 . S
C343 C52 1.273 . S
C408 C194 1.539 . S
C393 C63 1.539 . S
C458 C96 1.824 . S
C443 C30 1.806 1_556 S
C493 C41 1.503 1_556 S
C508 C135 1.537 . S
C543 C8 1.275 . S
C558 C169 1.286 . S
C593 C19 1.506 . S
C608 C203 1.539 . S
C658 C117 0.266 . S
C643 C62 0.181 . S
C708 C122 0.716 . S
C693 C73 0.718 . S
C758 C156 0.667 . S
C743 C84 0.667 . S
C793 C51 0.332 . S
C808 C190 0.177 . S
C843 C18 0.457 . S
C858 C88 0.272 . S
C908 C151 0.716 . S
C893 C29 0.713 1_556 S
C958 C185 0.667 . S
C943 C40 0.679 . S
C993 C7 0.312 . S
C1008 C219 0.175 . S
C1043 C60 1.125 . S
C1058 C101 1.281 . S
C1093 C71 1.471 . S
C1108 C130 1.748 . S
C1158 C164 1.538 . S
C1143 C82 1.333 . S
C1208 C198 1.589 . S
C1193 C49 1.300 . S
C1243 C16 1.037 . S
C1258 C92 1.291 . S
C1308 C139 1.749 . S
C1293 C27 1.471 1_565 S
C1358 C173 1.538 . S
C1343 C38 1.251 . S
C1393 C5 1.358 . S
C1408 C207 1.589 . S
