# Generated by pormake.
# Topology gar, (4,6)-cn, num edge types: 1
# Building blocks:
#     Node 0, Type 0, BuildingBlock: CEKHIL_clean_sbu_0, # of connection points: 4
#     Node 1, Type 0, BuildingBlock: CEKHIL_clean_sbu_0, # of connection points: 4
#     Node 2, Type 0, BuildingBlock: CEKHIL_clean_sbu_0, # of connection points: 4
#     Node 3, Type 0, BuildingBlock: CEKHIL_clean_sbu_0, # of connection points: 4
#     Node 4, Type 0, BuildingBlock: CEKHIL_clean_sbu_0, # of connection points: 4
#     Node 5, Type 0, BuildingBlock: CEKHIL_clean_sbu_0, # of connection points: 4
#     Node 6, Type 0, BuildingBlock: CEKHIL_clean_sbu_0, # of connection points: 4
#     Node 7, Type 0, BuildingBlock: CEKHIL_clean_sbu_0, # of connection points: 4
#     Node 8, Type 0, BuildingBlock: CEKHIL_clean_sbu_0, # of connection points: 4
#     Node 9, Type 0, BuildingBlock: CEKHIL_clean_sbu_0, # of connection points: 4
#     Node 10, Type 0, BuildingBlock: CEKHIL_clean_sbu_0, # of connection points: 4
#     Node 11, Type 0, BuildingBlock: CEKHIL_clean_sbu_0, # of connection points: 4
#     Node 12, Type 0, BuildingBlock: CEKHIL_clean_sbu_0, # of connection points: 4
#     Node 13, Type 0, BuildingBlock: CEKHIL_clean_sbu_0, # of connection points: 4
#     Node 14, Type 0, BuildingBlock: CEKHIL_clean_sbu_0, # of connection points: 4
#     Node 15, Type 0, BuildingBlock: CEKHIL_clean_sbu_0, # of connection points: 4
#     Node 16, Type 0, BuildingBlock: CEKHIL_clean_sbu_0, # of connection points: 4
#     Node 17, Type 0, BuildingBlock: CEKHIL_clean_sbu_0, # of connection points: 4
#     Node 18, Type 0, BuildingBlock: CEKHIL_clean_sbu_0, # of connection points: 4
#     Node 19, Type 0, BuildingBlock: CEKHIL_clean_sbu_0, # of connection points: 4
#     Node 20, Type 0, BuildingBlock: CEKHIL_clean_sbu_0, # of connection points: 4
#     Node 21, Type 0, BuildingBlock: CEKHIL_clean_sbu_0, # of connection points: 4
#     Node 22, Type 0, BuildingBlock: CEKHIL_clean_sbu_0, # of connection points: 4
#     Node 23, Type 0, BuildingBlock: CEKHIL_clean_sbu_0, # of connection points: 4
#     Node 24, Type 1, BuildingBlock: HISSIN_clean_sbu_0, # of connection points: 6
#     Node 25, Type 1, BuildingBlock: HISSIN_clean_sbu_0, # of connection points: 6
#     Node 26, Type 1, BuildingBlock: HISSIN_clean_sbu_0, # of connection points: 6
#     Node 27, Type 1, BuildingBlock: HISSIN_clean_sbu_0, # of connection points: 6
#     Node 28, Type 1, BuildingBlock: HISSIN_clean_sbu_0, # of connection points: 6
#     Node 29, Type 1, BuildingBlock: HISSIN_clean_sbu_0, # of connection points: 6
#     Node 30, Type 1, BuildingBlock: HISSIN_clean_sbu_0, # of connection points: 6
#     Node 31, Type 1, BuildingBlock: HISSIN_clean_sbu_0, # of connection points: 6
#     Node 32, Type 1, BuildingBlock: HISSIN_clean_sbu_0, # of connection points: 6
#     Node 33, Type 1, BuildingBlock: HISSIN_clean_sbu_0, # of connection points: 6
#     Node 34, Type 1, BuildingBlock: HISSIN_clean_sbu_0, # of connection points: 6
#     Node 35, Type 1, BuildingBlock: HISSIN_clean_sbu_0, # of connection points: 6
#     Node 36, Type 1, BuildingBlock: HISSIN_clean_sbu_0, # of connection points: 6
#     Node 37, Type 1, BuildingBlock: HISSIN_clean_sbu_0, # of connection points: 6
#     Node 38, Type 1, BuildingBlock: HISSIN_clean_sbu_0, # of connection points: 6
#     Node 39, Type 1, BuildingBlock: HISSIN_clean_sbu_0, # of connection points: 6
#     Edge 40, Type (0, 1), BuildingBlock: TEMPAE_clean_linker_10, # of connection points: 2
#     Edge 41, Type (0, 1), BuildingBlock: TEMPAE_clean_linker_10, # of connection points: 2
#     Edge 42, Type (0, 1), BuildingBlock: TEMPAE_clean_linker_10, # of connection points: 2
#     Edge 43, Type (0, 1), BuildingBlock: TEMPAE_clean_linker_10, # of connection points: 2
#     Edge 44, Type (0, 1), BuildingBlock: TEMPAE_clean_linker_10, # of connection points: 2
#     Edge 45, Type (0, 1), BuildingBlock: TEMPAE_clean_linker_10, # of connection points: 2
#     Edge 46, Type (0, 1), BuildingBlock: TEMPAE_clean_linker_10, # of connection points: 2
#     Edge 47, Type (0, 1), BuildingBlock: TEMPAE_clean_linker_10, # of connection points: 2
#     Edge 48, Type (0, 1), BuildingBlock: TEMPAE_clean_linker_10, # of connection points: 2
#     Edge 49, Type (0, 1), BuildingBlock: TEMPAE_clean_linker_10, # of connection points: 2
#     Edge 50, Type (0, 1), BuildingBlock: TEMPAE_clean_linker_10, # of connection points: 2
#     Edge 51, Type (0, 1), BuildingBlock: TEMPAE_clean_linker_10, # of connection points: 2
#     Edge 52, Type (0, 1), BuildingBlock: TEMPAE_clean_linker_10, # of connection points: 2
#     Edge 53, Type (0, 1), BuildingBlock: TEMPAE_clean_linker_10, # of connection points: 2
#     Edge 54, Type (0, 1), BuildingBlock: TEMPAE_clean_linker_10, # of connection points: 2
#     Edge 55, Type (0, 1), BuildingBlock: TEMPAE_clean_linker_10, # of connection points: 2
#     Edge 56, Type (0, 1), BuildingBlock: TEMPAE_clean_linker_10, # of connection points: 2
#     Edge 57, Type (0, 1), BuildingBlock: TEMPAE_clean_linker_10, # of connection points: 2
#     Edge 58, Type (0, 1), BuildingBlock: TEMPAE_clean_linker_10, # of connection points: 2
#     Edge 59, Type (0, 1), BuildingBlock: TEMPAE_clean_linker_10, # of connection points: 2
#     Edge 60, Type (0, 1), BuildingBlock: TEMPAE_clean_linker_10, # of connection points: 2
#     Edge 61, Type (0, 1), BuildingBlock: TEMPAE_clean_linker_10, # of connection points: 2
#     Edge 62, Type (0, 1), BuildingBlock: TEMPAE_clean_linker_10, # of connection points: 2
#     Edge 63, Type (0, 1), BuildingBlock: TEMPAE_clean_linker_10, # of connection points: 2
#     Edge 64, Type (0, 1), BuildingBlock: TEMPAE_clean_linker_10, # of connection points: 2
#     Edge 65, Type (0, 1), BuildingBlock: TEMPAE_clean_linker_10, # of connection points: 2
#     Edge 66, Type (0, 1), BuildingBlock: TEMPAE_clean_linker_10, # of connection points: 2
#     Edge 67, Type (0, 1), BuildingBlock: TEMPAE_clean_linker_10, # of connection points: 2
#     Edge 68, Type (0, 1), BuildingBlock: TEMPAE_clean_linker_10, # of connection points: 2
#     Edge 69, Type (0, 1), BuildingBlock: TEMPAE_clean_linker_10, # of connection points: 2
#     Edge 70, Type (0, 1), BuildingBlock: TEMPAE_clean_linker_10, # of connection points: 2
#     Edge 71, Type (0, 1), BuildingBlock: TEMPAE_clean_linker_10, # of connection points: 2
#     Edge 72, Type (0, 1), BuildingBlock: TEMPAE_clean_linker_10, # of connection points: 2
#     Edge 73, Type (0, 1), BuildingBlock: TEMPAE_clean_linker_10, # of connection points: 2
#     Edge 74, Type (0, 1), BuildingBlock: TEMPAE_clean_linker_10, # of connection points: 2
#     Edge 75, Type (0, 1), BuildingBlock: TEMPAE_clean_linker_10, # of connection points: 2
#     Edge 76, Type (0, 1), BuildingBlock: TEMPAE_clean_linker_10, # of connection points: 2
#     Edge 77, Type (0, 1), BuildingBlock: TEMPAE_clean_linker_10, # of connection points: 2
#     Edge 78, Type (0, 1), BuildingBlock: TEMPAE_clean_linker_10, # of connection points: 2
#     Edge 79, Type (0, 1), BuildingBlock: TEMPAE_clean_linker_10, # of connection points: 2
#     Edge 80, Type (0, 1), BuildingBlock: TEMPAE_clean_linker_10, # of connection points: 2
#     Edge 81, Type (0, 1), BuildingBlock: TEMPAE_clean_linker_10, # of connection points: 2
#     Edge 82, Type (0, 1), BuildingBlock: TEMPAE_clean_linker_10, # of connection points: 2
#     Edge 83, Type (0, 1), BuildingBlock: TEMPAE_clean_linker_10, # of connection points: 2
#     Edge 84, Type (0, 1), BuildingBlock: TEMPAE_clean_linker_10, # of connection points: 2
#     Edge 85, Type (0, 1), BuildingBlock: TEMPAE_clean_linker_10, # of connection points: 2
#     Edge 86, Type (0, 1), BuildingBlock: TEMPAE_clean_linker_10, # of connection points: 2
#     Edge 87, Type (0, 1), BuildingBlock: TEMPAE_clean_linker_10, # of connection points: 2
#     Edge 88, Type (0, 1), BuildingBlock: TEMPAE_clean_linker_10, # of connection points: 2
#     Edge 89, Type (0, 1), BuildingBlock: TEMPAE_clean_linker_10, # of connection points: 2
#     Edge 90, Type (0, 1), BuildingBlock: TEMPAE_clean_linker_10, # of connection points: 2
#     Edge 91, Type (0, 1), BuildingBlock: TEMPAE_clean_linker_10, # of connection points: 2
#     Edge 92, Type (0, 1), BuildingBlock: TEMPAE_clean_linker_10, # of connection points: 2
#     Edge 93, Type (0, 1), BuildingBlock: TEMPAE_clean_linker_10, # of connection points: 2
#     Edge 94, Type (0, 1), BuildingBlock: TEMPAE_clean_linker_10, # of connection points: 2
#     Edge 95, Type (0, 1), BuildingBlock: TEMPAE_clean_linker_10, # of connection points: 2
#     Edge 96, Type (0, 1), BuildingBlock: TEMPAE_clean_linker_10, # of connection points: 2
#     Edge 97, Type (0, 1), BuildingBlock: TEMPAE_clean_linker_10, # of connection points: 2
#     Edge 98, Type (0, 1), BuildingBlock: TEMPAE_clean_linker_10, # of connection points: 2
#     Edge 99, Type (0, 1), BuildingBlock: TEMPAE_clean_linker_10, # of connection points: 2
#     Edge 100, Type (0, 1), BuildingBlock: TEMPAE_clean_linker_10, # of connection points: 2
#     Edge 101, Type (0, 1), BuildingBlock: TEMPAE_clean_linker_10, # of connection points: 2
#     Edge 102, Type (0, 1), BuildingBlock: TEMPAE_clean_linker_10, # of connection points: 2
#     Edge 103, Type (0, 1), BuildingBlock: TEMPAE_clean_linker_10, # of connection points: 2
#     Edge 104, Type (0, 1), BuildingBlock: TEMPAE_clean_linker_10, # of connection points: 2
#     Edge 105, Type (0, 1), BuildingBlock: TEMPAE_clean_linker_10, # of connection points: 2
#     Edge 106, Type (0, 1), BuildingBlock: TEMPAE_clean_linker_10, # of connection points: 2
#     Edge 107, Type (0, 1), BuildingBlock: TEMPAE_clean_linker_10, # of connection points: 2
#     Edge 108, Type (0, 1), BuildingBlock: TEMPAE_clean_linker_10, # of connection points: 2
#     Edge 109, Type (0, 1), BuildingBlock: TEMPAE_clean_linker_10, # of connection points: 2
#     Edge 110, Type (0, 1), BuildingBlock: TEMPAE_clean_linker_10, # of connection points: 2
#     Edge 111, Type (0, 1), BuildingBlock: TEMPAE_clean_linker_10, # of connection points: 2
#     Edge 112, Type (0, 1), BuildingBlock: TEMPAE_clean_linker_10, # of connection points: 2
#     Edge 113, Type (0, 1), BuildingBlock: TEMPAE_clean_linker_10, # of connection points: 2
#     Edge 114, Type (0, 1), BuildingBlock: TEMPAE_clean_linker_10, # of connection points: 2
#     Edge 115, Type (0, 1), BuildingBlock: TEMPAE_clean_linker_10, # of connection points: 2
#     Edge 116, Type (0, 1), BuildingBlock: TEMPAE_clean_linker_10, # of connection points: 2
#     Edge 117, Type (0, 1), BuildingBlock: TEMPAE_clean_linker_10, # of connection points: 2
#     Edge 118, Type (0, 1), BuildingBlock: TEMPAE_clean_linker_10, # of connection points: 2
#     Edge 119, Type (0, 1), BuildingBlock: TEMPAE_clean_linker_10, # of connection points: 2
#     Edge 120, Type (0, 1), BuildingBlock: TEMPAE_clean_linker_10, # of connection points: 2
#     Edge 121, Type (0, 1), BuildingBlock: TEMPAE_clean_linker_10, # of connection points: 2
#     Edge 122, Type (0, 1), BuildingBlock: TEMPAE_clean_linker_10, # of connection points: 2
#     Edge 123, Type (0, 1), BuildingBlock: TEMPAE_clean_linker_10, # of connection points: 2
#     Edge 124, Type (0, 1), BuildingBlock: TEMPAE_clean_linker_10, # of connection points: 2
#     Edge 125, Type (0, 1), BuildingBlock: TEMPAE_clean_linker_10, # of connection points: 2
#     Edge 126, Type (0, 1), BuildingBlock: TEMPAE_clean_linker_10, # of connection points: 2
#     Edge 127, Type (0, 1), BuildingBlock: TEMPAE_clean_linker_10, # of connection points: 2
#     Edge 128, Type (0, 1), BuildingBlock: TEMPAE_clean_linker_10, # of connection points: 2
#     Edge 129, Type (0, 1), BuildingBlock: TEMPAE_clean_linker_10, # of connection points: 2
#     Edge 130, Type (0, 1), BuildingBlock: TEMPAE_clean_linker_10, # of connection points: 2
#     Edge 131, Type (0, 1), BuildingBlock: TEMPAE_clean_linker_10, # of connection points: 2
#     Edge 132, Type (0, 1), BuildingBlock: TEMPAE_clean_linker_10, # of connection points: 2
#     Edge 133, Type (0, 1), BuildingBlock: TEMPAE_clean_linker_10, # of connection points: 2
#     Edge 134, Type (0, 1), BuildingBlock: TEMPAE_clean_linker_10, # of connection points: 2
#     Edge 135, Type (0, 1), BuildingBlock: TEMPAE_clean_linker_10, # of connection points: 2
# Relax obj value: 0.173
# Max RMSD: 0.287
# Mean RMSD: 0.140
data_MOF--net-gar--node1-CEKHIL_clean_sbu_0--node2-HISSIN_clean_sbu_0--edge1-TEMPAE_clean_linker_10
_symmetry_space_group_name_H-M    P1
_symmetry_Int_Tables_number       1
_symmetry_cell_setting            triclinic
loop_
_symmetry_equiv_pos_as_xyz
'x, y, z'
_cell_length_a     60.705369
_cell_length_b     59.926731
_cell_length_c     57.46832
_cell_angle_alpha  100.32565
_cell_angle_beta   93.459991
_cell_angle_gamma 100.46498
loop_
_atom_site_label
_atom_site_type_symbol
_atom_site_fract_x
_atom_site_fract_y
_atom_site_fract_z
_atom_type_partial_charge
Co0 Co 0.12555 0.33662 0.41489 0.0
O1 O 0.15761 0.33996 0.41489 0.0
O2 O 0.13241 0.31635 0.38754 0.0
C3 C 0.12524 0.37463 0.42281 0.0
O4 O 0.09174 0.32976 0.40754 0.0
Co5 Co 0.10233 0.35454 0.45911 0.0
O6 O 0.07697 0.35291 0.43478 0.0
C7 C 0.11899 0.31079 0.45575 0.0
C8 C 0.15335 0.32537 0.39477 0.0
C9 C 0.07556 0.33963 0.41456 0.0
O10 O 0.12372 0.31145 0.43429 0.0
O11 O 0.1121 0.32713 0.4691 0.0
O12 O 0.12681 0.3643 0.40127 0.0
O13 O 0.12595 0.36227 0.43901 0.0
Co14 Co 1.0139 0.78248 0.64974 0.0
O15 O 0.98139 0.77443 0.64795 0.0
O16 O 1.00488 0.77529 0.6793 0.0
C17 C 1.01558 0.81385 0.63285 0.0
O18 O 0.04707 0.79078 0.66026 0.0
Co19 Co 0.04367 0.78669 0.60817 0.0
O20 O 0.0695 0.80017 0.63267 0.0
C21 C 0.02303 0.74036 0.61742 0.0
C22 C 0.98431 0.77221 0.67001 0.0
C23 C 0.06653 0.79816 0.65399 0.0
O24 O 1.01617 0.74931 0.63713 0.0
O25 O 0.03229 0.7525 0.60311 0.0
O26 O 1.01245 0.81545 0.65525 0.0
O27 O 1.01652 0.79355 0.62147 0.0
Co28 Co 0.6202 0.83386 0.9057 0.0
O29 O 0.65209 0.83374 0.90749 0.0
O30 O 0.62722 0.81691 0.87663 0.0
C31 C 0.62244 0.87168 0.92009 0.0
O32 O 0.58734 0.8312 0.89551 0.0
Co33 Co 0.59356 0.84666 0.9489 0.0
O34 O 0.56862 0.84664 0.92479 0.0
C35 C 0.60912 0.80238 0.94071 0.0
C36 C 0.64803 0.82232 0.88565 0.0
C37 C 0.56977 0.83798 0.90308 0.0
O38 O 0.61387 0.80493 0.91968 0.0
O39 O 0.60321 0.81811 0.9558 0.0
O40 O 0.62594 0.86473 0.89812 0.0
O41 O 0.6201 0.85604 0.93305 0.0
Co42 Co 0.5096 0.27894 0.14641 0.0
O43 O 0.47722 0.27336 0.14574 0.0
O44 O 0.50105 0.27627 0.17749 0.0
C45 C 0.51363 0.30752 0.12545 0.0
O46 O 0.54319 0.28558 0.15516 0.0
Co47 Co 0.53524 0.27184 0.10133 0.0
O48 O 0.56307 0.28393 0.12344 0.0
C49 C 0.51124 0.2317 0.11846 0.0
C50 C 0.48041 0.27323 0.16833 0.0
C51 C 0.56194 0.28766 0.14583 0.0
O52 O 0.50923 0.24465 0.13833 0.0
O53 O 0.51844 0.23966 0.10051 0.0
O54 O 0.51049 0.31202 0.14787 0.0
O55 O 0.51202 0.28598 0.11617 0.0
Co56 Co 0.09108 0.801 0.14346 0.0
O57 O 0.0617 0.7833 0.13137 0.0
O58 O 0.07994 0.78207 0.16558 0.0
C59 C 0.08364 0.83444 0.13566 0.0
O60 O 0.12051 0.81707 0.16255 0.0
Co61 Co 0.12349 0.82397 0.11221 0.0
O62 O 0.14288 0.83871 0.1421 0.0
C63 C 0.11565 0.77362 0.10796 0.0
C64 C 0.06177 0.77532 0.15094 0.0
C65 C 0.13848 0.83163 0.16123 0.0
O66 O 0.10535 0.77583 0.12683 0.0
O67 O 0.12241 0.79048 0.09759 0.0
O68 O 0.07804 0.82751 0.15502 0.0
O69 O 0.09268 0.82047 0.12099 0.0
Co70 Co 0.5224 0.81394 0.41821 0.0
O71 O 0.55476 0.82139 0.42505 0.0
O72 O 0.53615 0.79535 0.39469 0.0
C73 C 0.517 0.85048 0.42355 0.0
O74 O 0.49001 0.80224 0.40399 0.0
Co75 Co 0.48904 0.82783 0.45474 0.0
O76 O 0.46679 0.81982 0.42647 0.0
C77 C 0.51329 0.79027 0.45996 0.0
C78 C 0.55538 0.80638 0.40583 0.0
C79 C 0.47061 0.8073 0.40735 0.0
O80 O 0.52023 0.79012 0.43916 0.0
O81 O 0.50225 0.80507 0.46979 0.0
O82 O 0.52356 0.8412 0.40359 0.0
O83 O 0.51581 0.83829 0.43992 0.0
Co84 Co 0.5907 0.29015 0.63716 0.0
O85 O 0.56046 0.2751 0.6246 0.0
O86 O 0.57745 0.27192 0.65877 0.0
C87 C 0.58761 0.32491 0.62991 0.0
O88 O 0.62033 0.30347 0.65701 0.0
Co89 Co 0.6265 0.31123 0.60764 0.0
O90 O 0.64368 0.32638 0.63862 0.0
C91 C 0.61452 0.26071 0.6026 0.0
C92 C 0.55939 0.26682 0.64401 0.0
C93 C 0.63834 0.31847 0.65706 0.0
O94 O 0.60247 0.26336 0.62011 0.0
O95 O 0.62479 0.27751 0.59395 0.0
O96 O 0.58026 0.31832 0.64885 0.0
O97 O 0.59546 0.30988 0.61527 0.0
Co98 Co 0.02884 0.31834 0.91873 0.0
O99 O 0.0612 0.32501 0.92364 0.0
O100 O 0.04083 0.3074 0.88975 0.0
C101 C 0.0237 0.35292 0.93714 0.0
O102 O 0.99614 0.30934 0.90606 0.0
Co103 Co 0.99817 0.31766 0.95961 0.0
O104 O 0.97335 0.31575 0.93475 0.0
C105 C 0.02437 0.28108 0.94782 0.0
C106 C 0.06053 0.31512 0.90146 0.0
C107 C 0.9766 0.31037 0.91294 0.0
O108 O 0.02832 0.28788 0.9283 0.0
O109 O 1.01411 0.29176 0.96376 0.0
O110 O 0.02873 0.34992 0.91526 0.0
O111 O 0.0236 0.33556 0.94766 0.0
Co112 Co 0.41538 0.03855 0.31768 0.0
O113 O 0.41268 0.06818 0.31038 0.0
O114 O 0.38439 0.0386 0.30901 0.0
C115 C 0.43896 0.05236 0.35087 0.0
O116 O 0.41048 1.00617 0.32465 0.0
Co117 Co 0.45998 0.02037 0.32082 0.0
O118 O 0.44245 0.99401 0.33249 0.0
C119 C 0.43654 0.01989 0.27393 0.0
C120 C 0.39121 0.05966 0.30613 0.0
C121 C 0.42108 0.99119 0.33092 0.0
O122 O 0.41972 0.02668 0.28353 0.0
O123 O 0.45438 0.01774 0.28564 0.0
O124 O 0.41742 0.05122 0.35172 0.0
O125 O 0.44553 0.04652 0.33013 0.0
Co126 Co 0.29622 0.19273 0.49976 0.0
O127 O 0.32882 0.19757 0.50288 0.0
O128 O 0.30608 0.16649 0.50921 0.0
C129 C 0.29356 0.20446 0.46414 0.0
O130 O 0.26241 0.17975 0.49757 0.0
Co131 Co 0.26913 0.23036 0.49832 0.0
O132 O 0.24182 0.20538 0.48988 0.0
C133 C 0.29213 0.22776 0.54422 0.0
C134 C 0.32655 0.17728 0.50854 0.0
C135 C 0.24329 0.18511 0.49271 0.0
O136 O 0.29661 0.20818 0.53441 0.0
O137 O 0.28285 0.2403 0.53232 0.0
O138 O 0.29559 0.18345 0.46522 0.0
O139 O 0.29407 0.2181 0.48447 0.0
Co140 Co 0.19161 0.02373 0.78011 0.0
O141 O 0.1873 0.98797 0.7771 0.0
O142 O 0.21874 1.0079 0.77286 0.0
C143 C 0.17326 0.03077 0.81755 0.0
O144 O 0.20761 0.06002 0.78232 0.0
Co145 Co 0.15852 0.05589 0.78223 0.0
O146 O 0.18311 0.08386 0.78789 0.0
C147 C 0.16247 0.03035 0.73386 0.0
C148 C 0.20824 0.98718 0.77375 0.0
C149 C 0.20318 0.08114 0.78539 0.0
O150 O 0.17891 0.02177 0.74333 0.0
O151 O 0.15155 0.04308 0.74711 0.0
O152 O 0.19372 0.0271 0.81654 0.0
O153 O 0.16428 0.02978 0.79626 0.0
Co154 Co 0.29453 0.96781 0.99708 0.0
O155 O 0.2615 0.96052 0.9963 0.0
O156 O 0.281 0.99575 1.00559 0.0
C157 C 0.29692 0.94358 0.96164 0.0
O158 O 0.32942 0.9819 0.99951 0.0
Co159 Co 0.32264 0.92875 0.99778 0.0
O160 O 0.34786 0.95224 0.99174 0.0
C161 C 0.30231 0.94723 0.04081 0.0
C162 C 0.26119 0.98229 1.00286 0.0
C163 C 0.3478 0.97384 0.9957 0.0
O164 O 0.29692 0.96383 0.03154 0.0
O165 O 0.31084 0.93093 0.02959 0.0
O166 O 0.29253 0.96407 0.96175 0.0
O167 O 0.2979 0.93813 0.98223 0.0
Co168 Co 0.32878 0.39245 0.03932 0.0
O169 O 0.29613 0.38648 0.03682 0.0
O170 O 0.31818 0.41956 0.05408 0.0
C171 C 0.33117 0.37697 1.0005 0.0
O172 O 0.36241 0.40719 0.04414 0.0
Co173 Co 0.35758 0.35583 0.03172 0.0
O174 O 0.38377 0.38126 0.03255 0.0
C175 C 0.33525 0.36225 0.076 0.0
C176 C 0.2979 0.40791 0.04736 0.0
C177 C 0.38164 0.40204 0.03973 0.0
O178 O 0.32948 0.38052 0.07049 0.0
O179 O 0.34532 0.34918 0.06202 0.0
O180 O 0.32815 0.39802 1.0069 0.0
O181 O 0.33166 0.36537 0.01748 0.0
Co182 Co 0.83584 0.12571 0.03633 0.0
O183 O 0.86826 0.1326 0.0328 0.0
O184 O 0.85234 0.10142 0.0442 0.0
C185 C 0.82594 0.13454 1.00048 0.0
O186 O 0.80154 0.11298 0.04033 0.0
Co187 Co 0.80859 0.1656 0.03551 0.0
O188 O 0.78212 0.1406 0.03398 0.0
C189 C 0.83796 0.16575 0.07844 0.0
C190 C 0.87075 0.11321 0.03832 0.0
C191 C 0.78266 0.12047 0.03806 0.0
O192 O 0.84061 0.14473 0.07062 0.0
O193 O 0.82835 0.17739 0.06576 0.0
O194 O 0.83003 0.11416 1.00139 0.0
O195 O 0.82938 0.14865 0.02049 0.0
Co196 Co 0.20138 0.54598 0.27152 0.0
O197 O 0.19885 0.5136 0.27179 0.0
O198 O 0.22141 0.53339 0.25048 0.0
C199 C 0.20355 0.55729 0.31111 0.0
O200 O 0.20998 0.57908 0.26718 0.0
Co201 Co 0.1672 0.57515 0.29196 0.0
O202 O 0.1907 0.60214 0.28922 0.0
C203 C 0.15628 0.54399 0.24471 0.0
C204 C 0.21461 0.51403 0.25743 0.0
C205 C 0.20639 0.5992 0.27591 0.0
O206 O 0.17622 0.53936 0.24516 0.0
O207 O 0.14923 0.55622 0.26229 0.0
O208 O 0.22153 0.55385 0.30101 0.0
O209 O 0.18502 0.55263 0.29747 0.0
Co210 Co 0.83027 0.89129 0.53982 0.0
O211 O 0.79773 0.88516 0.53731 0.0
O212 O 0.81954 0.91823 0.55502 0.0
C213 C 0.83211 0.87639 0.50089 0.0
O214 O 0.86404 0.90574 0.54478 0.0
Co215 Co 0.8589 0.8545 0.53056 0.0
O216 O 0.88299 0.88025 0.52617 0.0
C217 C 0.83704 0.86029 0.57539 0.0
C218 C 0.79933 0.90649 0.54797 0.0
C219 C 0.88198 0.9008 0.53593 0.0
O220 O 0.831 0.87861 0.57042 0.0
O221 O 0.84733 0.84766 0.56117 0.0
O222 O 0.82947 0.89751 0.50767 0.0
O223 O 0.83283 0.86454 0.5176 0.0
Co224 Co 0.93566 0.0706 0.27496 0.0
O225 O 0.93991 0.10641 0.27992 0.0
O226 O 0.9087 0.08506 0.26544 0.0
C227 C 0.95348 0.0689 0.31398 0.0
O228 O 0.91983 0.0338 0.26972 0.0
Co229 Co 0.96972 0.0393 0.27606 0.0
O230 O 0.94524 1.01382 0.28063 0.0
C231 C 0.96641 0.0584 0.23168 0.0
C232 C 0.91916 0.10641 0.27252 0.0
C233 C 0.92485 1.01444 0.27475 0.0
O234 O 0.94908 0.06732 0.23989 0.0
O235 O 0.97705 0.04782 0.24471 0.0
O236 O 0.93318 0.07278 0.31077 0.0
O237 O 0.96266 0.06739 0.29421 0.0
Co238 Co 0.33033 0.62441 0.53405 0.0
O239 O 0.36301 0.63248 0.53228 0.0
O240 O 0.34702 0.59985 0.54076 0.0
C241 C 0.32188 0.63527 0.49903 0.0
O242 O 0.29591 0.6102 0.53561 0.0
Co243 Co 0.30135 0.66293 0.53407 0.0
O244 O 0.27539 0.63673 0.5285 0.0
C245 C 0.32771 0.66077 0.57848 0.0
C246 C 0.36555 0.61255 0.53628 0.0
C247 C 0.27663 0.61651 0.53179 0.0
O248 O 0.33314 0.64128 0.56911 0.0
O249 O 0.31719 0.67247 0.56673 0.0
O250 O 0.32616 0.61481 0.49897 0.0
O251 O 0.32409 0.64839 0.51961 0.0
Co252 Co 0.43623 0.57194 0.77332 0.0
O253 O 0.44006 0.60775 0.77874 0.0
O254 O 0.40891 0.58615 0.76443 0.0
C255 C 0.45437 0.56969 0.81196 0.0
O256 O 0.42091 0.53502 0.76768 0.0
Co257 Co 0.47086 0.54127 0.77311 0.0
O258 O 0.44688 0.51529 0.77773 0.0
C259 C 0.46691 0.56149 0.72958 0.0
C260 C 0.41922 0.60756 0.77157 0.0
C261 C 0.42634 0.51569 0.77231 0.0
O262 O 0.4493 0.5696 0.73815 0.0
O263 O 0.47802 0.55086 0.74211 0.0
O264 O 0.43395 0.57332 0.80902 0.0
O265 O 0.46354 0.56884 0.79218 0.0
Co266 Co 0.70155 0.05573 0.75936 0.0
O267 O 0.69908 0.02445 0.76425 0.0
O268 O 0.72271 0.0413 0.74169 0.0
C269 C 0.70199 0.07242 0.7977 0.0
O270 O 0.71028 0.08722 0.75078 0.0
Co271 Co 0.66537 0.08539 0.77244 0.0
O272 O 0.68862 0.11131 0.76697 0.0
C273 C 0.65699 0.04851 0.7295 0.0
C274 C 0.71563 0.0234 0.75098 0.0
C275 C 0.70549 0.10742 0.75585 0.0
O276 O 0.67746 0.04552 0.73171 0.0
O277 O 0.64866 0.06178 0.74512 0.0
O278 O 0.72031 0.06714 0.78968 0.0
O279 O 0.68402 0.06562 0.78314 0.0
Co280 Co 0.79283 0.69637 1.00072 0.0
O281 O 0.82539 0.70158 1.00439 0.0
O282 O 0.80276 0.67024 1.01038 0.0
C283 C 0.79024 0.70792 0.96503 0.0
O284 O 0.75902 0.68322 0.99786 0.0
Co285 Co 0.7665 0.73464 0.99996 0.0
O286 O 0.73858 0.71056 0.99597 0.0
C287 C 0.78917 0.73149 0.0454 0.0
C288 C 0.82321 0.68135 1.01017 0.0
C289 C 0.73999 0.68966 0.9961 0.0
O290 O 0.79278 0.71159 0.03541 0.0
O291 O 0.78075 0.74466 0.03365 0.0
O292 O 0.79255 0.68704 0.9663 0.0
O293 O 0.79083 0.72173 0.98531 0.0
Co294 Co 0.92729 0.53559 0.82131 0.0
O295 O 0.92819 0.56448 0.81069 0.0
O296 O 0.89751 0.5378 0.81027 0.0
C297 C 0.9496 0.55023 0.85513 0.0
O298 O 0.91865 0.50465 0.83118 0.0
Co299 Co 0.96869 0.51353 0.82973 0.0
O300 O 0.94805 0.48977 0.84217 0.0
C301 C 0.94992 0.51299 0.78074 0.0
C302 C 0.90652 0.55775 0.80578 0.0
C303 C 0.92697 0.48916 0.83951 0.0
O304 O 0.93263 0.52039 0.78855 0.0
O305 O 0.9666 0.51091 0.79438 0.0
O306 O 0.92832 0.55112 0.85435 0.0
O307 O 0.95684 0.54183 0.83545 0.0
Co308 Co 0.78843 0.46629 0.49409 0.0
O309 O 0.7554 0.46007 0.49261 0.0
O310 O 0.77586 0.4948 0.50318 0.0
C311 C 0.79013 0.44185 0.45868 0.0
O312 O 0.82358 0.47907 0.49657 0.0
Co313 Co 0.81398 0.42533 0.49494 0.0
O314 O 0.84033 0.44811 0.48979 0.0
C315 C 0.79247 0.44373 0.53688 0.0
C316 C 0.75573 0.48188 0.49966 0.0
C317 C 0.84141 0.46992 0.49304 0.0
O318 O 0.79017 0.46184 0.52844 0.0
O319 O 0.79924 0.42643 0.52517 0.0
O320 O 0.78693 0.46278 0.45873 0.0
O321 O 0.79055 0.43644 0.47925 0.0
Co322 Co 0.69151 0.52264 0.27821 0.0
O323 O 0.6877 0.48693 0.27523 0.0
O324 O 0.71897 0.50728 0.27116 0.0
C325 C 0.67305 0.52947 0.31558 0.0
O326 O 0.7069 0.5591 0.28059 0.0
Co327 Co 0.65738 0.55401 0.28058 0.0
O328 O 0.68179 0.58209 0.28752 0.0
C329 C 0.66156 0.52844 0.23213 0.0
C330 C 0.70873 0.48646 0.27206 0.0
C331 C 0.70196 0.58 0.28454 0.0
O332 O 0.67862 0.52051 0.24134 0.0
O333 O 0.65033 0.54056 0.24567 0.0
O334 O 0.69361 0.5261 0.31469 0.0
O335 O 0.66409 0.52818 0.29426 0.0
Eu336 Eu 0.08009 0.07092 0.03226 0.0
Eu337 Eu 0.05269 0.02099 0.01248 0.0
C338 C 0.08344 0.04556 0.97437 0.0
C339 C 0.10815 0.13187 0.0314 0.0
C340 C 0.10741 0.12676 1.00652 0.0
C341 C 0.1058 0.17146 0.0299 0.0
C342 C 0.10479 0.14366 0.99336 0.0
C343 C 0.10844 0.15454 0.04306 0.0
C344 C 0.10274 0.16578 1.00495 0.0
C345 C 0.10361 0.1131 0.0446 0.0
O346 O 0.09022 0.01962 1.01183 0.0
O347 O 0.10389 0.04826 0.04309 0.0
C348 C 0.10709 0.03051 0.02752 0.0
O349 O 0.06425 0.06465 0.06696 0.0
O350 O 0.0535 0.98559 0.01473 0.0
O351 O 0.02555 0.9929 0.99388 0.0
O352 O 0.04195 0.02955 0.05162 0.0
C353 C 0.04779 0.04767 0.06958 0.0
O354 O 0.04363 0.07648 0.02615 0.0
O355 O 0.0249 0.04084 1.00643 0.0
O356 O 0.06809 0.02772 0.97751 0.0
O357 O 0.0826 0.10724 0.0481 0.0
O358 O 0.11246 0.09511 0.03775 0.0
O359 O 0.08876 0.06393 0.99218 0.0
C360 C 0.01909 0.96196 0.01503 0.0
C361 C 1.01232 0.97103 0.0371 0.0
C362 C 1.01424 0.92416 0.02551 0.0
C363 C 1.00842 0.95709 0.05405 0.0
C364 C 0.01834 0.93816 1.00868 0.0
C365 C 1.01109 0.93396 0.04891 0.0
C366 C 0.03383 0.97728 1.00288 0.0
C367 C 0.02467 0.06238 0.01635 0.0
H368 H 0.10711 0.10932 0.99717 0.0
H369 H 0.10413 0.18835 0.03928 0.0
H370 H 0.10273 0.13897 0.97414 0.0
H371 H 0.10879 0.15868 0.06224 0.0
H372 H 1.01272 0.98939 0.04224 0.0
H373 H 1.01642 0.9064 0.021 0.0
H374 H 1.00569 0.96497 0.07187 0.0
H375 H 0.02365 0.93092 0.99176 0.0
Eu376 Eu 0.31364 0.79702 0.24461 0.0
Eu377 Eu 0.29326 0.78697 0.29469 0.0
C378 C 0.26517 0.80664 0.25821 0.0
C379 C 0.32207 0.82465 0.19083 0.0
C380 C 0.30361 0.83551 0.19482 0.0
C381 C 0.33184 0.84694 0.16033 0.0
C382 C 0.29916 0.85185 0.18145 0.0
C383 C 0.33621 0.83058 0.17363 0.0
C384 C 0.31316 0.85767 0.16391 0.0
C385 C 0.32697 0.80754 0.20487 0.0
O386 O 0.27739 0.75889 0.26384 0.0
O387 O 0.30771 0.75843 0.24246 0.0
C388 C 0.28899 0.74776 0.24898 0.0
O389 O 0.34301 0.79398 0.26879 0.0
O390 O 0.26704 0.76781 0.31206 0.0
O391 O 0.29587 0.79039 0.33324 0.0
O392 O 0.32337 0.77012 0.2906 0.0
C393 C 0.34246 0.77986 0.28388 0.0
O394 O 0.31394 0.8315 0.26783 0.0
O395 O 0.31764 0.82105 0.30402 0.0
O396 O 0.2714 0.8093 0.28098 0.0
O397 O 0.33833 0.81601 0.22553 0.0
O398 O 0.31026 0.79072 0.20586 0.0
O399 O 0.27657 0.79702 0.24187 0.0
C400 C 0.28178 0.75503 0.34557 0.0
C401 C 0.30148 0.75706 0.36062 0.0
C402 C 0.26829 0.71693 0.35467 0.0
C403 C 0.30452 0.73932 0.37257 0.0
C404 C 0.26523 0.73474 0.34272 0.0
C405 C 0.28795 0.71905 0.36983 0.0
C406 C 0.27849 0.7739 0.3329 0.0
C407 C 0.32069 0.83672 0.29062 0.0
H408 H 0.29257 0.83126 0.2082 0.0
H409 H 0.34322 0.85131 0.1473 0.0
H410 H 0.28456 0.85962 0.18456 0.0
H411 H 0.35068 0.82259 0.17051 0.0
H412 H 0.31458 0.77244 0.36338 0.0
H413 H 0.25526 0.70149 0.352 0.0
H414 H 0.31967 0.74178 0.38444 0.0
H415 H 0.24985 0.73264 0.33126 0.0
Eu416 Eu 0.59177 0.04268 0.51439 0.0
Eu417 Eu 0.54861 0.0577 0.54208 0.0
C418 C 0.58599 0.03762 0.56869 0.0
C419 C 0.6426 0.01521 0.50167 0.0
C420 C 0.63674 0.99829 0.51545 0.0
C421 C 0.68018 1.00661 0.50111 0.0
C422 C 0.65249 0.98551 0.52191 0.0
C423 C 0.6644 0.01927 0.49458 0.0
C424 C 0.67446 0.98952 0.51484 0.0
C425 C 0.62655 0.02948 0.49551 0.0
O426 O 0.58053 0.08373 0.55562 0.0
O427 O 0.59592 0.08129 0.52032 0.0
C428 C 0.59374 0.09306 0.54125 0.0
O429 O 0.56609 0.04576 0.48565 0.0
O430 O 0.53422 0.08522 0.56182 0.0
O431 O 0.51472 0.0503 0.55361 0.0
O432 O 0.54833 0.07149 0.50828 0.0
C433 C 0.55222 0.06038 0.48758 0.0
O434 O 0.56824 1.01106 0.51978 0.0
O435 O 0.53603 0.02479 0.51519 0.0
O436 O 0.5643 0.03746 0.56572 0.0
O437 O 0.60578 0.01882 0.48882 0.0
O438 O 0.62773 0.0491 0.51013 0.0
O439 O 0.59988 0.0438 0.55329 0.0
C440 C 0.49492 0.08116 0.55486 0.0
C441 C 0.49331 0.08911 0.53338 0.0
C442 C 0.45986 0.09318 0.56439 0.0
C443 C 0.4752 0.09931 0.52759 0.0
C444 C 0.47797 0.08306 0.57016 0.0
C445 C 0.45835 0.10174 0.54318 0.0
C446 C 0.5147 0.072 0.56211 0.0
C447 C 0.54678 1.00754 0.51264 0.0
H448 H 0.62002 0.99504 0.52132 0.0
H449 H 0.69701 1.01052 0.49571 0.0
H450 H 0.64739 0.97237 0.53227 0.0
H451 H 0.66932 0.03246 0.4842 0.0
H452 H 0.50627 0.08784 0.52132 0.0
H453 H 0.44701 0.09432 0.57659 0.0
H454 H 0.47472 0.10583 0.51121 0.0
H455 H 0.4789 0.07697 0.58678 0.0
Eu456 Eu 0.29171 0.30446 0.77217 0.0
Eu457 Eu 0.33945 0.28922 0.77578 0.0
C458 C 0.2918 0.25 0.77818 0.0
C459 C 0.2335 0.31687 0.78346 0.0
C460 C 0.22173 0.29533 0.78658 0.0
C461 C 0.20813 0.33594 0.80717 0.0
C462 C 0.20316 0.29413 0.79982 0.0
C463 C 0.2265 0.33711 0.79373 0.0
C464 C 0.19623 0.31445 0.81035 0.0
C465 C 0.25367 0.31884 0.77054 0.0
O466 O 0.33146 0.28279 0.73603 0.0
O467 O 0.297 0.29325 0.7335 0.0
C468 C 0.31354 0.28511 0.72347 0.0
O469 O 0.31701 0.33902 0.77259 0.0
O470 O 0.35759 0.26079 0.77268 0.0
O471 O 0.37575 0.29581 0.78516 0.0
O472 O 0.35051 0.32697 0.76926 0.0
C473 C 0.33896 0.34395 0.77047 0.0
O474 O 0.29824 0.30482 0.81147 0.0
O475 O 0.33608 0.30558 0.81355 0.0
O476 O 0.31416 0.25594 0.78024 0.0
O477 O 0.27204 0.33092 0.78283 0.0
O478 O 0.25708 0.30015 0.7569 0.0
O479 O 0.27983 0.26581 0.77474 0.0
C480 C 0.39354 0.27 0.76075 0.0
C481 C 0.39509 0.28136 0.74141 0.0
C482 C 0.42144 0.2483 0.74584 0.0
C483 C 0.41004 0.2765 0.72459 0.0
C484 C 0.4066 0.25332 0.76278 0.0
C485 C 0.4234 0.26001 0.72673 0.0
C486 C 0.37724 0.2743 0.77791 0.0
C487 C 0.31783 0.30821 0.82392 0.0
H488 H 0.22691 0.27944 0.77895 0.0
H489 H 0.20347 0.35193 0.81537 0.0
H490 H 0.19417 0.2773 0.80169 0.0
H491 H 0.2355 0.35389 0.79167 0.0
H492 H 0.38473 0.29395 0.73932 0.0
H493 H 0.43175 0.23569 0.74796 0.0
H494 H 0.41118 0.28562 0.70991 0.0
H495 H 0.40531 0.24419 0.77745 0.0
Eu496 Eu 0.05341 0.07061 0.53533 0.0
Eu497 Eu 0.06841 0.02533 0.50947 0.0
C498 C 0.09991 0.07469 0.50988 0.0
C499 C 0.0532 0.13341 0.54739 0.0
C500 C 0.07586 0.14453 0.55342 0.0
C501 C 0.04847 0.16191 0.52316 0.0
C502 C 0.0848 0.16384 0.54407 0.0
C503 C 0.03949 0.14268 0.53264 0.0
C504 C 0.07135 0.17249 0.52841 0.0
C505 C 0.04468 0.11068 0.55373 0.0
O506 O 0.08759 0.03165 0.54719 0.0
O507 O 0.06783 0.05644 0.56752 0.0
C508 C 0.08299 0.0429 0.56785 0.0
O509 O 0.02222 0.04306 0.53331 0.0
O510 O 0.09311 1.00332 0.50162 0.0
O511 O 0.05832 0.99083 0.48754 0.0
O512 O 0.04079 1.01325 0.53173 0.0
C513 C 0.02239 0.02151 0.53458 0.0
O514 O 0.04416 0.07063 0.49515 0.0
O515 O 0.04469 0.03302 0.47946 0.0
O516 O 0.09337 0.05339 0.49793 0.0
O517 O 0.03114 0.09564 0.53747 0.0
O518 O 0.05945 0.1012 0.56373 0.0
O519 O 0.08862 0.08307 0.52692 0.0
C520 C 0.07579 0.96545 0.50548 0.0
C521 C 0.05716 0.94707 0.4995 0.0
C522 C 0.08502 0.95116 0.54125 0.0
C523 C 0.05195 0.93156 0.51474 0.0
C524 C 0.09012 0.96684 0.52613 0.0
C525 C 0.06544 0.9339 0.53611 0.0
C526 C 0.07748 0.98515 0.49294 0.0
C527 C 0.03901 0.0529 0.47686 0.0
H528 H 0.08697 0.13792 0.56476 0.0
H529 H 0.03763 0.16793 0.51101 0.0
H530 H 0.10236 0.17182 0.5489 0.0
H531 H 0.02202 0.13447 0.5276 0.0
H532 H 0.04583 0.94554 0.48374 0.0
H533 H 0.09573 0.95333 0.5576 0.0
H534 H 0.03698 0.91811 0.51014 0.0
H535 H 0.10459 0.9808 0.53138 0.0
Eu536 Eu 0.33569 0.81231 0.76516 0.0
Eu537 Eu 0.29234 0.78228 0.77841 0.0
C538 C 0.31774 0.82372 0.81854 0.0
C539 C 0.3979 0.83159 0.76137 0.0
C540 C 0.40164 0.81169 0.7693 0.0
C541 C 0.43743 0.84872 0.77111 0.0
C542 C 0.42283 0.81085 0.7794 0.0
C543 C 0.41605 0.84969 0.76135 0.0
C544 C 0.44075 0.82985 0.78149 0.0
C545 C 0.37489 0.8355 0.75829 0.0
O546 O 0.28097 0.81771 0.77385 0.0
O547 O 0.31101 0.8376 0.75946 0.0
C548 C 0.29037 0.83695 0.76646 0.0
O549 O 0.31942 0.79253 0.72918 0.0
O550 O 0.26713 0.76693 0.79973 0.0
O551 O 0.26062 0.76153 0.76137 0.0
O552 O 0.30304 0.76249 0.74487 0.0
C553 C 0.31141 0.77038 0.72682 0.0
O554 O 0.34775 0.77748 0.77108 0.0
O555 O 0.3172 0.75728 0.78468 0.0
O556 O 0.30493 0.80309 0.81477 0.0
O557 O 0.36126 0.82158 0.74127 0.0
O558 O 0.36555 0.83863 0.77807 0.0
O559 O 0.32977 0.83061 0.80195 0.0
C560 C 0.23044 0.76672 0.78282 0.0
C561 C 0.22979 0.79021 0.78447 0.0
C562 C 0.19106 0.7568 0.76802 0.0
C563 C 0.21049 0.79682 0.77582 0.0
C564 C 0.21065 0.75017 0.77591 0.0
C565 C 0.19131 0.77998 0.76606 0.0
C566 C 0.25213 0.75941 0.78137 0.0
C567 C 0.33815 0.75817 0.77834 0.0
H568 H 0.38781 0.79758 0.76951 0.0
H569 H 0.45101 0.86337 0.77179 0.0
H570 H 0.42458 0.79606 0.78727 0.0
H571 H 0.41342 0.86521 0.75531 0.0
H572 H 0.24484 0.80328 0.79022 0.0
H573 H 0.17626 0.74347 0.76173 0.0
H574 H 0.21145 0.81485 0.77491 0.0
H575 H 0.21081 0.73194 0.77466 0.0
Eu576 Eu 0.56538 0.03519 0.0491 0.0
Eu577 Eu 0.565 0.06573 1.00801 0.0
C578 C 0.55568 0.08604 0.06076 0.0
C579 C 0.54394 1.00546 0.0969 0.0
C580 C 0.52488 0.01543 0.0948 0.0
C581 C 0.52913 0.98891 0.12953 0.0
C582 C 0.50827 1.0126 0.11034 0.0
C583 C 0.54581 0.99183 0.114 0.0
C584 C 0.51046 0.99973 0.12822 0.0
C585 C 0.56211 1.01027 0.08183 0.0
O586 O 0.60177 0.06353 0.01491 0.0
O587 O 0.60204 0.05508 0.05218 0.0
C588 C 0.61299 0.06198 0.03468 0.0
O589 O 0.5816 0.0171 0.01934 0.0
O590 O 0.57572 0.09913 0.99793 0.0
O591 O 0.55717 0.07029 0.97176 0.0
O592 O 0.56393 0.0291 0.98902 0.0
C593 C 0.57569 0.01517 0.99673 0.0
O594 O 0.52954 0.02509 0.0302 0.0
O595 O 0.52775 0.05663 0.01324 0.0
O596 O 0.56719 0.09027 0.04298 0.0
O597 O 0.55702 1.00155 0.05922 0.0
O598 O 0.57269 0.03183 0.08572 0.0
O599 O 0.5494 0.06492 0.06405 0.0
C600 C 0.58993 0.09211 0.96136 0.0
C601 C 0.60317 0.07514 0.96067 0.0
C602 C 0.61681 0.1134 0.93983 0.0
C603 C 0.62307 0.07727 0.9498 0.0
C604 C 0.59694 0.11141 0.95114 0.0
C605 C 0.62999 0.09623 0.93894 0.0
C606 C 0.57054 0.09054 0.97539 0.0
C607 C 0.5176 0.03791 0.02026 0.0
H608 H 0.5232 0.02599 0.08157 0.0
H609 H 0.5311 0.97862 0.14293 0.0
H610 H 0.49427 0.02137 0.10902 0.0
H611 H 0.56036 0.9839 0.11569 0.0
H612 H 0.59823 0.06025 0.96879 0.0
H613 H 0.62157 0.12805 0.93132 0.0
H614 H 0.63297 0.06393 0.94973 0.0
H615 H 0.58713 0.12489 0.95194 0.0
Eu616 Eu 0.32159 0.31195 0.28711 0.0
Eu617 Eu 0.29454 0.26205 0.25597 0.0
C618 C 0.30746 0.30567 0.23042 0.0
C619 C 0.3366 0.3755 0.30226 0.0
C620 C 0.33867 0.37889 0.27882 0.0
C621 C 0.31797 0.40829 0.30978 0.0
C622 C 0.32971 0.39626 0.27071 0.0
C623 C 0.32702 0.39095 0.31792 0.0
C624 C 0.31843 0.4105 0.28583 0.0
C625 C 0.34001 0.35363 0.30887 0.0
O626 O 0.33068 0.26522 0.24857 0.0
O627 O 0.34797 0.2901 0.28245 0.0
C628 C 0.34873 0.27504 0.26304 0.0
O629 O 0.31047 0.28982 0.31401 0.0
O630 O 0.2922 0.23172 0.22782 0.0
O631 O 0.26455 0.23457 0.24936 0.0
O632 O 0.30845 0.25413 0.29058 0.0
C633 C 0.30904 0.26736 0.31162 0.0
O634 O 0.28606 0.3154 0.27784 0.0
O635 O 0.27101 0.2783 0.27909 0.0
O636 O 0.29195 0.28735 0.23122 0.0
O637 O 0.32227 0.34157 0.31565 0.0
O638 O 0.3504 0.34072 0.29432 0.0
O639 O 0.32251 0.31514 0.24858 0.0
C640 C 0.27564 0.19856 0.24089 0.0
C641 C 0.2814 0.19774 0.2647 0.0
C642 C 0.28242 0.15965 0.22905 0.0
C643 C 0.28847 0.17845 0.27055 0.0
C644 C 0.27555 0.17916 0.22317 0.0
C645 C 0.28978 0.15944 0.25273 0.0
C646 C 0.27381 0.22083 0.23448 0.0
C647 C 0.26928 0.29999 0.28181 0.0
H648 H 0.34596 0.36727 0.26626 0.0
H649 H 0.30926 0.41889 0.32186 0.0
H650 H 0.33068 0.39782 0.25229 0.0
H651 H 0.32507 0.38857 0.33599 0.0
H652 H 0.28176 0.21257 0.2787 0.0
H653 H 0.28286 0.14513 0.21495 0.0
H654 H 0.29429 0.17917 0.28891 0.0
H655 H 0.2713 0.17956 0.20468 0.0
Eu656 Eu 0.55435 0.56866 0.03273 0.0
Eu657 Eu 0.56893 0.52298 1.00621 0.0
C658 C 0.5998 0.57249 1.00597 0.0
C659 C 0.55202 0.63058 0.04136 0.0
C660 C 0.57426 0.64328 0.04469 0.0
C661 C 0.54273 0.65437 0.01343 0.0
C662 C 0.58082 0.66071 0.03194 0.0
C663 C 0.53617 0.63679 0.02611 0.0
C664 C 0.56528 0.66605 0.01575 0.0
C665 C 0.54641 0.60902 0.05086 0.0
O666 O 0.57882 0.52302 0.04625 0.0
O667 O 0.57766 0.56024 0.06269 0.0
C668 C 0.58361 0.54037 0.06486 0.0
O669 O 0.52842 0.54076 0.04313 0.0
O670 O 0.59282 0.4996 1.00194 0.0
O671 O 0.56057 0.48979 0.98137 0.0
O672 O 0.53301 0.51166 0.01339 0.0
C673 C 0.52154 0.51991 0.03031 0.0
O674 O 0.53646 0.56339 0.99432 0.0
O675 O 0.55385 0.53614 0.97388 0.0
O676 O 0.5996 0.55053 1.00557 0.0
O677 O 0.53095 0.59253 0.03825 0.0
O678 O 0.56358 0.60106 0.05839 0.0
O679 O 0.58237 0.58162 1.01153 0.0
C680 C 0.57202 0.46275 1.00146 0.0
C681 C 0.56093 0.46595 0.0222 0.0
C682 C 0.57173 0.423 1.00523 0.0
C683 C 0.55563 0.44811 0.03456 0.0
C684 C 0.57735 0.44115 0.9929 0.0
C685 C 0.56103 0.42659 0.02624 0.0
C686 C 0.57782 0.48255 0.98971 0.0
C687 C 0.53989 0.55092 0.97371 0.0
H688 H 0.58694 0.63916 0.05641 0.0
H689 H 0.53037 0.65817 1.00111 0.0
H690 H 0.5982 0.66978 0.03449 0.0
H691 H 0.51891 0.62737 0.02316 0.0
H692 H 0.55638 0.48236 0.02894 0.0
H693 H 0.57592 0.40635 0.99861 0.0
H694 H 0.54724 0.45108 0.05064 0.0
H695 H 0.58583 0.43837 0.97688 0.0
Eu696 Eu 0.83948 0.31433 0.27406 0.0
Eu697 Eu 0.79245 0.28121 0.27031 0.0
C698 C 0.81082 0.31924 0.31817 0.0
C699 C 0.90171 0.34036 0.27989 0.0
C700 C 0.90709 0.31832 0.27758 0.0
C701 C 0.93948 0.35757 0.2979 0.0
C702 C 0.92828 0.31587 0.28638 0.0
C703 C 0.91827 0.35998 0.28913 0.0
C704 C 0.9443 0.33545 0.29765 0.0
C705 C 0.87816 0.34274 0.27809 0.0
O706 O 0.78025 0.31635 0.2687 0.0
O707 O 0.81411 0.33886 0.26559 0.0
C708 C 0.79184 0.33705 0.26681 0.0
O709 O 0.83993 0.28734 0.24143 0.0
O710 O 0.76625 0.26036 0.28628 0.0
O711 O 0.7633 0.25993 0.24833 0.0
O712 O 0.80218 0.27654 0.23243 0.0
C713 C 0.82268 0.27541 0.227 0.0
O714 O 0.85148 0.27906 0.27658 0.0
O715 O 0.81733 0.2562 0.27817 0.0
O716 O 0.79317 0.30777 0.30395 0.0
O717 O 0.86614 0.33425 0.25774 0.0
O718 O 0.86757 0.3375 0.29603 0.0
O719 O 0.83099 0.31779 0.31203 0.0
C720 C 0.73024 0.25812 0.26645 0.0
C721 C 0.71293 0.2415 0.25274 0.0
C722 C 0.70594 0.28629 0.2691 0.0
C723 C 0.69259 0.24748 0.24631 0.0
C724 C 0.72638 0.28031 0.27539 0.0
C725 C 0.68923 0.27024 0.25355 0.0
C726 C 0.75323 0.25392 0.26631 0.0
C727 C 0.83967 0.25815 0.27775 0.0
H728 H 0.89439 0.30296 0.27062 0.0
H729 H 0.95139 0.37296 0.30663 0.0
H730 H 0.93167 0.29864 0.28568 0.0
H731 H 0.91426 0.37709 0.29131 0.0
H732 H 0.7158 0.22442 0.24539 0.0
H733 H 0.70373 0.30384 0.27532 0.0
H734 H 0.68027 0.23473 0.2341 0.0
H735 H 0.73969 0.29347 0.28581 0.0
Eu736 Eu 0.05899 0.5354 0.5391 0.0
Eu737 Eu 0.05865 0.56681 0.4991 0.0
C738 C 0.04702 0.58525 0.55116 0.0
C739 C 0.04092 0.5113 0.5914 0.0
C740 C 0.03095 0.53054 0.59834 0.0
C741 C 0.01906 0.49105 0.61789 0.0
C742 C 1.01544 0.53019 0.61524 0.0
C743 C 0.03477 0.49148 0.60108 0.0
C744 C 1.00942 0.51048 0.62522 0.0
C745 C 0.05624 0.51139 0.57268 0.0
O746 O 0.09426 0.57608 0.51832 0.0
O747 O 0.09575 0.5424 0.53086 0.0
C748 C 0.1062 0.56171 0.52525 0.0
O749 O 0.05567 0.51063 0.50428 0.0
O750 O 0.06624 0.60175 0.49196 0.0
O751 O 0.05501 0.57262 0.46276 0.0
O752 O 0.07244 0.53594 0.48241 0.0
C753 C 0.0659 0.51478 0.48567 0.0
O754 O 0.02187 0.53626 0.53129 0.0
O755 O 0.02215 0.54654 0.49466 0.0
O756 O 0.04081 0.58321 0.5286 0.0
O757 O 0.04645 0.50343 0.55125 0.0
O758 O 0.07097 0.5305 0.57403 0.0
O759 O 0.05968 0.57188 0.55843 0.0
C760 C 0.08581 0.601 0.45832 0.0
C761 C 0.10329 0.58905 0.46125 0.0
C762 C 0.1095 0.62556 0.43666 0.0
C763 C 0.12355 0.59497 0.45165 0.0
C764 C 0.08911 0.61958 0.44637 0.0
C765 C 0.12684 0.61306 0.4389 0.0
C766 C 0.06484 0.59441 0.46902 0.0
C767 C 1.01098 0.53823 0.51138 0.0
H768 H 0.0351 0.54581 0.5906 0.0
H769 H 1.01484 0.47575 0.62555 0.0
H770 H 1.00812 0.54531 0.6205 0.0
H771 H 0.04204 0.47637 0.59559 0.0
H772 H 0.10116 0.57481 0.4707 0.0
H773 H 0.11156 0.63969 0.42709 0.0
H774 H 0.13624 0.58463 0.45337 0.0
H775 H 0.07592 0.62926 0.44437 0.0
Eu776 Eu 0.78808 0.80371 0.274 0.0
Eu777 Eu 0.83621 0.78898 0.2767 0.0
C778 C 0.78958 0.74933 0.27873 0.0
C779 C 0.73011 0.81377 0.28944 0.0
C780 C 0.73276 0.80809 0.31198 0.0
C781 C 0.69099 0.81505 0.29475 0.0
C782 C 0.71468 0.80619 0.32595 0.0
C783 C 0.70911 0.81705 0.28085 0.0
C784 C 0.6936 0.80982 0.31757 0.0
C785 C 0.74921 0.81674 0.275 0.0
O786 O 0.82626 0.78068 0.23724 0.0
O787 O 0.79431 0.79606 0.23517 0.0
C788 C 0.80955 0.78571 0.22491 0.0
O789 O 0.8133 0.83869 0.27536 0.0
O790 O 0.85501 0.76114 0.27423 0.0
O791 O 0.87269 0.79652 0.28568 0.0
O792 O 0.84626 0.82623 0.26875 0.0
C793 C 0.83494 0.84343 0.27161 0.0
O794 O 0.79544 0.802 0.31268 0.0
O795 O 0.83358 0.80728 0.31378 0.0
O796 O 0.81162 0.75665 0.28424 0.0
O797 O 0.76794 0.82935 0.28607 0.0
O798 O 0.75249 0.79822 0.26104 0.0
O799 O 0.77759 0.76402 0.27227 0.0
C800 C 0.89221 0.77032 0.26422 0.0
C801 C 0.91472 0.77707 0.27372 0.0
C802 C 0.90425 0.75496 0.22607 0.0
C803 C 0.93192 0.77304 0.25947 0.0
C804 C 0.88702 0.75923 0.24028 0.0
C805 C 0.92682 0.76203 0.23554 0.0
C806 C 0.8745 0.77499 0.27959 0.0
C807 C 0.81535 0.80771 0.3247 0.0
H808 H 0.74888 0.80542 0.31888 0.0
H809 H 0.6749 0.81753 0.28756 0.0
H810 H 0.71735 0.80235 0.34349 0.0
H811 H 0.70674 0.82131 0.26344 0.0
H812 H 0.919 0.78559 0.29215 0.0
H813 H 0.89998 0.74667 0.20758 0.0
H814 H 0.94923 0.77854 0.26714 0.0
H815 H 0.86971 0.75401 0.23254 0.0
Eu816 Eu 0.8154 0.30691 0.75325 0.0
Eu817 Eu 0.79461 0.2904 0.80149 0.0
C818 C 0.76411 0.3061 0.76379 0.0
C819 C 0.82416 0.339 0.7015 0.0
C820 C 0.80279 0.34489 0.70054 0.0
C821 C 0.8355 0.36399 0.67366 0.0
C822 C 0.79772 0.36001 0.6859 0.0
C823 C 0.84051 0.34887 0.68821 0.0
C824 C 0.81395 0.36951 0.67202 0.0
C825 C 0.82968 0.32244 0.71599 0.0
O826 O 0.7853 0.26086 0.7704 0.0
O827 O 0.8144 0.26861 0.74735 0.0
C828 C 0.7981 0.25422 0.75396 0.0
O829 O 0.84474 0.30624 0.77875 0.0
O830 O 0.76844 0.26982 0.81769 0.0
O831 O 0.79814 0.2902 0.83942 0.0
O832 O 0.8271 0.27812 0.79725 0.0
C833 C 0.84547 0.29103 0.79249 0.0
O834 O 0.80919 0.33825 0.77788 0.0
O835 O 0.81509 0.32642 0.81295 0.0
O836 O 0.76956 0.30896 0.78673 0.0
O837 O 0.83863 0.33118 0.73765 0.0
O838 O 0.81463 0.30361 0.71479 0.0
O839 O 0.77771 0.29976 0.74809 0.0
C840 C 0.78298 0.25424 0.84897 0.0
C841 C 0.79992 0.24182 0.84248 0.0
C842 C 0.77244 0.22949 0.8773 0.0
C843 C 0.80336 0.22362 0.85366 0.0
C844 C 0.76911 0.24775 0.86621 0.0
C845 C 0.7898 0.21739 0.87141 0.0
C846 C 0.7801 0.27432 0.83838 0.0
C847 C 0.81604 0.34295 0.80063 0.0
H848 H 0.78995 0.33754 0.71081 0.0
H849 H 0.84853 0.3713 0.66358 0.0
H850 H 0.78092 0.36375 0.68495 0.0
H851 H 0.85715 0.34471 0.68889 0.0
H852 H 0.81072 0.24645 0.82905 0.0
H853 H 0.76191 0.22538 0.8911 0.0
H854 H 0.81674 0.21455 0.84856 0.0
H855 H 0.75596 0.25712 0.87145 0.0
Eu856 Eu 0.82166 0.80965 0.78482 0.0
Eu857 Eu 0.79895 0.7579 0.75381 0.0
C858 C 0.80861 0.80158 0.72832 0.0
C859 C 0.82621 0.87199 0.79755 0.0
C860 C 0.80908 0.86661 0.7788 0.0
C861 C 0.82473 0.91262 0.80114 0.0
C862 C 0.79947 0.88389 0.77162 0.0
C863 C 0.83417 0.89509 0.80863 0.0
C864 C 0.8071 0.90716 0.78265 0.0
C865 C 0.83494 0.85289 0.80507 0.0
O866 O 0.8359 0.7628 0.75019 0.0
O867 O 0.85097 0.79136 0.78249 0.0
C868 C 0.8531 0.77496 0.76471 0.0
O869 O 0.81221 0.78769 0.8121 0.0
O870 O 0.79777 0.73093 0.72247 0.0
O871 O 0.77372 0.726 0.74812 0.0
O872 O 0.81172 0.75163 0.78974 0.0
C873 C 0.81141 0.76538 0.81036 0.0
O874 O 0.78474 0.80829 0.7758 0.0
O875 O 0.77269 0.77014 0.77543 0.0
O876 O 0.79364 0.78304 0.72956 0.0
O877 O 0.82019 0.83851 0.81349 0.0
O878 O 0.8461 0.8421 0.78955 0.0
O879 O 0.82368 0.81137 0.74623 0.0
C880 C 0.78972 0.69397 0.73242 0.0
C881 C 0.78252 0.68251 0.75074 0.0
C882 C 0.81594 0.66807 0.72368 0.0
C883 C 0.79266 0.66474 0.75614 0.0
C884 C 0.80578 0.68585 0.71825 0.0
C885 C 0.8101 0.658 0.74328 0.0
C886 C 0.78298 0.71606 0.73023 0.0
C887 C 0.76947 0.79137 0.7799 0.0
H888 H 0.80287 0.84889 0.76986 0.0
H889 H 0.83122 0.93039 0.80985 0.0
H890 H 0.78564 0.87883 0.75775 0.0
H891 H 0.84751 0.89952 0.82303 0.0
H892 H 0.76992 0.68807 0.76178 0.0
H893 H 0.82932 0.66321 0.71344 0.0
H894 H 0.7875 0.65688 0.77102 0.0
H895 H 0.81149 0.69416 0.70383 0.0
Eu896 Eu 0.5764 0.57796 0.52653 0.0
Eu897 Eu 0.55066 0.52604 0.51049 0.0
C898 C 0.58254 0.54902 0.47146 0.0
C899 C 0.58939 0.64248 0.54882 0.0
C900 C 0.56752 0.64164 0.5557 0.0
C901 C 0.59228 0.6828 0.54669 0.0
C902 C 0.5576 0.661 0.55664 0.0
C903 C 0.60218 0.66346 0.54579 0.0
C904 C 0.56942 0.68123 0.55049 0.0
C905 C 0.5964 0.6211 0.53858 0.0
O906 O 0.58559 0.52171 0.525 0.0
O907 O 0.60506 0.55837 0.52655 0.0
C908 C 0.60488 0.53636 0.52598 0.0
O909 O 0.55973 0.57197 0.56136 0.0
O910 O 0.55027 0.48955 0.49687 0.0
O911 O 0.51915 0.50053 0.50413 0.0
O912 O 0.54131 0.5344 0.54978 0.0
C913 C 0.54556 0.5539 0.56603 0.0
O914 O 0.53944 0.5813 0.52366 0.0
O915 O 0.52364 0.5462 0.50103 0.0
O916 O 0.56828 0.53107 0.4761 0.0
O917 O 0.59771 0.60606 0.5523 0.0
O918 O 0.58622 0.61161 0.51749 0.0
O919 O 0.58626 0.56876 0.48738 0.0
C920 C 0.52487 0.46579 0.51481 0.0
C921 C 0.52282 0.47294 0.53909 0.0
C922 C 0.52917 0.42814 0.52189 0.0
C923 C 0.52492 0.45812 0.55482 0.0
C924 C 0.52717 0.44304 0.50615 0.0
C925 C 0.52907 0.43596 0.54645 0.0
C926 C 0.52916 0.48303 0.49968 0.0
C927 C 0.5215 0.56673 0.51249 0.0
H928 H 0.5574 0.62546 0.558 0.0
H929 H 0.60183 0.69807 0.54178 0.0
H930 H 0.54006 0.65946 0.56 0.0
H931 H 0.61903 0.66427 0.5403 0.0
H932 H 0.52108 0.49046 0.54617 0.0
H933 H 0.53252 0.41115 0.51506 0.0
H934 H 0.52456 0.46441 0.57366 0.0
H935 H 0.52901 0.43735 0.48751 0.0
Eu936 Eu 0.0912 0.55272 0.03467 0.0
Eu937 Eu 0.0428 0.5622 0.05564 0.0
C938 C 0.0816 0.55056 0.08849 0.0
C939 C 0.1441 0.52705 0.02354 0.0
C940 C 0.13775 0.50847 0.03514 0.0
C941 C 0.18076 0.51667 0.01966 0.0
C942 C 0.15283 0.49399 0.03885 0.0
C943 C 0.1657 0.53107 0.01594 0.0
C944 C 0.17451 0.49783 0.03104 0.0
C945 C 0.12847 0.54234 0.01907 0.0
O946 O 0.06774 0.59592 0.06523 0.0
O947 O 0.09295 0.59084 0.03718 0.0
C948 C 0.08394 0.60417 0.05304 0.0
O949 O 0.06631 0.55166 1.00337 0.0
O950 O 0.02333 0.58021 0.08107 0.0
O951 O 1.00621 0.55315 0.05218 0.0
O952 O 0.0446 0.57574 0.02188 0.0
C953 C 0.05138 0.56497 1.00257 0.0
O954 O 0.07169 0.51918 0.04094 0.0
O955 O 0.03695 0.52669 0.03264 0.0
O956 O 0.0598 0.54617 0.08254 0.0
O957 O 0.1084 0.53224 1.00912 0.0
O958 O 0.12795 0.55975 0.03615 0.0
O959 O 0.09612 0.5586 0.07453 0.0
C960 C 0.98786 0.58404 0.06431 0.0
C961 C 0.98921 0.59466 0.04441 0.0
C962 C 0.95383 0.59866 0.07289 0.0
C963 C 0.9728 0.60699 0.03864 0.0
C964 C 0.97019 0.58629 0.07859 0.0
C965 C 0.95479 0.60898 0.05271 0.0
C966 C 1.004 0.56957 0.06959 0.0
C967 C 0.0504 0.51195 0.03318 0.0
H968 H 0.12111 0.5051 0.04117 0.0
H969 H 0.19742 0.52045 0.0138 0.0
H970 H 0.14738 0.47957 0.0475 0.0
H971 H 0.17095 0.5454 1.00708 0.0
H972 H 1.00275 0.59312 0.03314 0.0
H973 H 0.94006 0.59957 0.08394 0.0
H974 H 0.97421 0.61493 0.02314 0.0
H975 H 0.9688 0.5781 0.09393 0.0
C976 C 0.02975 0.25253 0.97343 0.0
C977 C 0.03387 0.26119 0.95269 0.0
C978 C 0.04099 0.23569 0.97965 0.0
C979 C 0.05677 0.22749 0.96483 0.0
C980 C 0.06028 0.23539 0.94337 0.0
C981 C 0.04872 0.2521 0.9375 0.0
C982 C 0.0366 0.22731 1.00253 0.0
C983 C 0.07695 0.22693 0.92713 0.0
C984 C 0.10195 0.20519 0.99677 0.0
C985 C 0.09342 0.18135 0.99158 0.0
C986 C 0.09065 0.22041 0.98726 0.0
C987 C 0.07032 0.21147 0.97243 0.0
C988 C 0.06225 0.18733 0.96619 0.0
C989 C 0.07394 0.17253 0.97584 0.0
C990 C 0.09987 0.2461 0.99399 0.0
C991 C 0.04058 0.17722 0.9505 0.0
H992 H 0.0182 0.25933 0.98516 0.0
H993 H 0.05202 0.25864 0.92139 0.0
H994 H 0.03217 0.20814 0.99909 0.0
H995 H 0.05208 0.23263 0.01506 0.0
H996 H 0.02278 0.23431 1.01126 0.0
H997 H 0.07653 0.23358 0.91029 0.0
H998 H 0.09421 0.23261 0.93629 0.0
H999 H 0.07348 0.20775 0.92278 0.0
H1000 H 0.11705 0.21196 1.00887 0.0
H1001 H 0.06708 0.15411 0.97213 0.0
H1002 H 0.08821 0.25457 1.00505 0.0
H1003 H 0.10112 0.25382 0.97784 0.0
H1004 H 0.11674 0.25009 1.00413 0.0
H1005 H 0.02618 0.18181 0.96003 0.0
H1006 H 0.03788 0.15807 0.94541 0.0
H1007 H 0.04048 0.18455 0.9341 0.0
C1008 C 0.1507 0.83049 0.20316 0.0
C1009 C 0.15582 0.83759 0.18178 0.0
C1010 C 0.16781 0.83009 0.22047 0.0
C1011 C 0.1905 0.83702 0.21626 0.0
C1012 C 0.19562 0.84705 0.19623 0.0
C1013 C 0.17817 0.84719 0.17913 0.0
C1014 C 0.16162 0.81966 0.24179 0.0
C1015 C 0.21966 0.85516 0.19145 0.0
C1016 C 0.23903 0.83458 0.26032 0.0
C1017 C 0.24448 0.81351 0.25007 0.0
C1018 C 0.22106 0.84248 0.24992 0.0
C1019 C 0.20834 0.82872 0.22913 0.0
C1020 C 0.21317 0.80684 0.21962 0.0
C1021 C 0.2313 0.79964 0.2301 0.0
C1022 C 0.21651 0.86593 0.26045 0.0
C1023 C 0.19971 0.7913 0.19781 0.0
H1024 H 0.13341 0.82361 0.20569 0.0
H1025 H 0.18228 0.85312 0.16289 0.0
H1026 H 0.16393 0.80144 0.23859 0.0
H1027 H 0.17266 0.82905 0.25797 0.0
H1028 H 0.14381 0.81978 0.24516 0.0
H1029 H 0.22076 0.86634 0.17792 0.0
H1030 H 0.22992 0.86487 0.20801 0.0
H1031 H 0.22713 0.83992 0.18481 0.0
H1032 H 0.24944 0.84536 0.27567 0.0
H1033 H 0.23548 0.78322 0.22236 0.0
H1034 H 0.19818 0.86551 0.26062 0.0
H1035 H 0.22318 0.87851 0.24936 0.0
H1036 H 0.22472 0.87231 0.27885 0.0
H1037 H 0.18153 0.78816 0.20044 0.0
H1038 H 0.20495 0.77432 0.19355 0.0
H1039 H 0.20184 0.79984 0.18225 0.0
C1040 C 0.52606 0.89179 0.41985 0.0
C1041 C 0.51269 0.87411 0.42852 0.0
C1042 C 0.52693 0.91502 0.43025 0.0
C1043 C 0.51394 0.92034 0.44944 0.0
C1044 C 0.49809 0.90262 0.45579 0.0
C1045 C 0.49783 0.87961 0.44538 0.0
C1046 C 0.54376 0.93354 0.42273 0.0
C1047 C 0.48345 0.90762 0.47565 0.0
C1048 C 0.54525 0.96552 0.50074 0.0
C1049 C 0.53616 0.98488 0.49825 0.0
C1050 C 0.53781 0.9444 0.4851 0.0
C1051 C 0.52088 0.94265 0.4664 0.0
C1052 C 0.51107 0.96196 0.46422 0.0
C1053 C 0.51883 0.98295 0.48029 0.0
C1054 C 0.54853 0.92413 0.48831 0.0
C1055 C 0.4931 0.96077 0.44446 0.0
H1056 H 0.53743 0.88747 0.40664 0.0
H1057 H 0.48708 0.86589 0.45169 0.0
H1058 H 0.53667 0.94928 0.42233 0.0
H1059 H 0.55887 0.93846 0.43581 0.0
H1060 H 0.54915 0.92746 0.40495 0.0
H1061 H 0.469 0.8931 0.47495 0.0
H1062 H 0.49363 0.91025 0.49298 0.0
H1063 H 0.47694 0.92364 0.47494 0.0
H1064 H 0.55861 0.96703 0.51468 0.0
H1065 H 0.51202 0.99806 0.47814 0.0
H1066 H 0.5568 0.91833 0.47223 0.0
H1067 H 0.53547 0.90936 0.49065 0.0
H1068 H 0.56132 0.92843 0.50392 0.0
H1069 H 0.50088 0.96063 0.42747 0.0
H1070 H 0.4846 0.97583 0.44763 0.0
H1071 H 0.48026 0.94463 0.4423 0.0
C1072 C 0.51779 0.25332 0.63642 0.0
C1073 C 0.53779 0.25552 0.6509 0.0
C1074 C 0.49685 0.24865 0.64546 0.0
C1075 C 0.49612 0.24644 0.66951 0.0
C1076 C 0.51611 0.24597 0.68326 0.0
C1077 C 0.53675 0.25038 0.6737 0.0
C1078 C 0.47579 0.24849 0.63002 0.0
C1079 C 0.51605 0.24352 0.70896 0.0
C1080 C 0.45556 0.27524 0.70563 0.0
C1081 C 0.44049 0.2562 0.71003 0.0
C1082 C 0.47327 0.27219 0.6917 0.0
C1083 C 0.47575 0.24949 0.68169 0.0
C1084 C 0.45991 0.23019 0.6851 0.0
C1085 C 0.44254 0.23377 0.69954 0.0
C1086 C 0.48991 0.29328 0.68865 0.0
C1087 C 0.46173 0.20581 0.6742 0.0
H1088 H 0.51848 0.25687 0.6186 0.0
H1089 H 0.55216 0.25166 0.68484 0.0
H1090 H 0.4616 0.23523 0.63326 0.0
H1091 H 0.47085 0.26559 0.63442 0.0
H1092 H 0.47843 0.24512 0.61084 0.0
H1093 H 0.53227 0.24004 0.716 0.0
H1094 H 0.51309 0.25978 0.71986 0.0
H1095 H 0.50228 0.22936 0.71119 0.0
H1096 H 0.45405 0.29257 0.71394 0.0
H1097 H 0.43068 0.21906 0.7028 0.0
H1098 H 0.49124 0.29336 0.6695 0.0
H1099 H 0.50685 0.2928 0.69674 0.0
H1100 H 0.48512 0.30969 0.69701 0.0
H1101 H 0.46542 0.20461 0.65539 0.0
H1102 H 0.44607 0.19319 0.67501 0.0
H1103 H 0.47583 0.20079 0.6839 0.0
C1104 C 0.02854 0.85646 0.6343 0.0
C1105 C 0.02125 0.83392 0.62124 0.0
C1106 C 0.036 0.87488 0.62272 0.0
C1107 C 0.03605 0.87048 0.59765 0.0
C1108 C 0.0281 0.84783 0.58446 0.0
C1109 C 0.0208 0.82991 0.5964 0.0
C1110 C 0.04431 0.89887 0.63728 0.0
C1111 C 0.02761 0.84241 0.55767 0.0
C1112 C 0.03619 0.9157 0.55941 0.0
C1113 C 0.05846 0.91907 0.55346 0.0
C1114 C 0.02898 0.90097 0.57501 0.0
C1115 C 0.04439 0.88924 0.58477 0.0
C1116 C 0.06711 0.89323 0.57952 0.0
C1117 C 0.07391 0.90822 0.56399 0.0
C1118 C 1.00469 0.89726 0.58043 0.0
C1119 C 0.08394 0.88072 0.58926 0.0
H1120 H 0.029 0.85958 0.65351 0.0
H1121 H 1.01498 0.81253 0.58619 0.0
H1122 H 0.06238 0.9047 0.63523 0.0
H1123 H 0.03508 0.91126 0.63076 0.0
H1124 H 0.04225 0.89962 0.65646 0.0
H1125 H 0.0208 0.82385 0.55011 0.0
H1126 H 0.01711 0.85293 0.54966 0.0
H1127 H 0.04486 0.84696 0.55232 0.0
H1128 H 0.02433 0.92447 0.55165 0.0
H1129 H 0.09113 0.9108 0.5594 0.0
H1130 H 1.00379 0.9021 0.59986 0.0
H1131 H 0.99669 0.87871 0.57489 0.0
H1132 H 0.99476 0.90749 0.57128 0.0
H1133 H 0.08353 0.88226 0.60875 0.0
H1134 H 0.10137 0.88746 0.58548 0.0
H1135 H 0.07942 0.86203 0.58118 0.0
C1136 C 0.5286 0.83324 0.89096 0.0
C1137 C 0.55089 0.83663 0.88523 0.0
C1138 C 0.5108 0.83152 0.87354 0.0
C1139 C 0.51559 0.83388 0.85017 0.0
C1140 C 0.53811 0.83766 0.84445 0.0
C1141 C 0.55546 0.83874 0.862 0.0
C1142 C 0.48689 0.82704 0.88007 0.0
C1143 C 0.54391 0.84089 0.81991 0.0
C1144 C 0.46998 0.81122 0.79902 0.0
C1145 C 0.46152 0.83121 0.79719 0.0
C1146 C 0.48747 0.81177 0.81632 0.0
C1147 C 0.49713 0.83295 0.83172 0.0
C1148 C 0.48938 0.85336 0.82935 0.0
C1149 C 0.47151 0.8522 0.81232 0.0
C1150 C 0.49525 0.78962 0.8185 0.0
C1151 C 0.49967 0.87637 0.84512 0.0
H1152 H 0.52509 0.83151 0.9089 0.0
H1153 H 0.57274 0.84168 0.8576 0.0
H1154 H 0.47871 0.84166 0.87754 0.0
H1155 H 0.47705 0.81127 0.86817 0.0
H1156 H 0.486 0.82477 0.89878 0.0
H1157 H 0.56234 0.84382 0.81846 0.0
H1158 H 0.5357 0.82544 0.80649 0.0
H1159 H 0.53743 0.85589 0.81536 0.0
H1160 H 0.46264 0.795 0.7872 0.0
H1161 H 0.46486 0.86767 0.81151 0.0
H1162 H 0.49321 0.78606 0.83663 0.0
H1163 H 0.5134 0.7914 0.81593 0.0
H1164 H 0.48574 0.77453 0.80536 0.0
H1165 H 0.49682 0.87567 0.86388 0.0
H1166 H 0.4925 0.89083 0.84012 0.0
H1167 H 0.51814 0.8802 0.84416 0.0
C1168 C 0.51943 0.19799 0.13459 0.0
C1169 C 0.50878 0.20658 0.11677 0.0
C1170 C 0.52437 0.1757 0.12981 0.0
C1171 C 0.5182 0.16186 0.10684 0.0
C1172 C 0.50477 0.16941 0.08997 0.0
C1173 C 0.50042 0.19183 0.09507 0.0
C1174 C 0.53845 0.16816 0.14837 0.0
C1175 C 0.49728 0.15494 0.06548 0.0
C1176 C 0.55855 0.12808 0.07616 0.0
C1177 C 0.54791 0.10524 0.07575 0.0
C1178 C 0.5497 0.14667 0.08758 0.0
C1179 C 0.52951 0.14228 0.09861 0.0
C1180 C 0.51933 0.11927 0.09937 0.0
C1181 C 0.52873 0.10095 0.08798 0.0
C1182 C 0.56133 0.17099 0.08667 0.0
C1183 C 0.49779 0.11387 0.11087 0.0
H1184 H 0.52595 0.20944 0.15138 0.0
H1185 H 0.49198 0.19847 0.08139 0.0
H1186 H 0.53296 0.14945 0.14832 0.0
H1187 H 0.55627 0.17104 0.1443 0.0
H1188 H 0.53762 0.17814 0.16645 0.0
H1189 H 0.48389 0.16139 0.05614 0.0
H1190 H 0.51186 0.15548 0.05469 0.0
H1191 H 0.49094 0.13662 0.0665 0.0
H1192 H 0.57352 0.13146 0.06695 0.0
H1193 H 0.5204 0.08327 0.08766 0.0
H1194 H 0.56401 0.18197 0.10471 0.0
H1195 H 0.55056 0.17876 0.07538 0.0
H1196 H 0.57787 0.17149 0.07928 0.0
H1197 H 0.49812 0.12616 0.12785 0.0
H1198 H 0.49466 0.09595 0.11432 0.0
H1199 H 0.48345 0.11565 0.09889 0.0
C1200 C 0.18683 0.34165 0.37641 0.0
C1201 C 0.1711 0.32226 0.37899 0.0
C1202 C 0.2025 0.33981 0.3596 0.0
C1203 C 0.20296 0.31787 0.34581 0.0
C1204 C 0.18736 0.29812 0.34874 0.0
C1205 C 0.17121 0.30066 0.36498 0.0
C1206 C 0.21833 0.36136 0.35637 0.0
C1207 C 0.18794 0.27431 0.33498 0.0
C1208 C 0.23246 0.31141 0.28921 0.0
C1209 C 0.25317 0.30758 0.29784 0.0
C1210 C 0.21608 0.31567 0.30482 0.0
C1211 C 0.22055 0.31536 0.32927 0.0
C1212 C 0.24176 0.31202 0.33796 0.0
C1213 C 0.25794 0.30854 0.32212 0.0
C1214 C 0.19388 0.31993 0.29512 0.0
C1215 C 0.2471 0.31127 0.36381 0.0
H1216 H 0.18631 0.35846 0.38693 0.0
H1217 H 0.15886 0.28576 0.36697 0.0
H1218 H 0.23598 0.3601 0.3611 0.0
H1219 H 0.21692 0.36308 0.33745 0.0
H1220 H 0.21482 0.37728 0.36747 0.0
H1221 H 0.17482 0.26072 0.33958 0.0
H1222 H 0.18546 0.27394 0.31563 0.0
H1223 H 0.20469 0.27002 0.33866 0.0
H1224 H 0.22894 0.31059 0.27032 0.0
H1225 H 0.27418 0.30586 0.32861 0.0
H1226 H 0.18993 0.33582 0.30579 0.0
H1227 H 0.1802 0.30532 0.29646 0.0
H1228 H 0.19391 0.3218 0.27623 0.0
H1229 H 0.2457 0.32786 0.37521 0.0
H1230 H 0.26429 0.30801 0.36752 0.0
H1231 H 0.23473 0.29744 0.36905 0.0
C1232 C 0.99627 0.04983 0.20232 0.0
C1233 C 0.97629 0.05884 0.2066 0.0
C1234 C 1.00668 0.04835 0.18041 0.0
C1235 C 0.99774 0.05606 0.16045 0.0
C1236 C 0.97764 0.06541 0.16428 0.0
C1237 C 0.96736 0.06666 0.18673 0.0
C1238 C 0.02767 0.03821 0.17869 0.0
C1239 C 0.96679 0.07412 0.14437 0.0
C1240 C 0.03962 0.06956 0.11135 0.0
C1241 C 0.03497 0.04956 0.0929 0.0
C1242 C 0.02758 0.07207 0.13239 0.0
C1243 C 1.00971 0.05432 0.13636 0.0
C1244 C 1.00485 0.03412 0.11776 0.0
C1245 C 0.01712 0.03208 0.09682 0.0
C1246 C 0.03423 0.0941 0.15069 0.0
C1247 C 0.98649 1.01425 0.11999 0.0
H1248 H 1.00429 0.04356 0.21651 0.0
H1249 H 0.95218 0.07366 0.18851 0.0
H1250 H 0.02488 0.023 0.16389 0.0
H1251 H 0.04176 0.05111 0.17466 0.0
H1252 H 0.03283 0.03271 0.19531 0.0
H1253 H 0.95171 0.08118 0.14949 0.0
H1254 H 0.97908 0.08783 0.13884 0.0
H1255 H 0.96178 0.05984 0.1287 0.0
H1256 H 0.05288 0.08365 0.10936 0.0
H1257 H 1.01257 0.01645 0.08334 0.0
H1258 H 0.04064 0.09018 0.1677 0.0
H1259 H 0.0193 0.10201 0.15419 0.0
H1260 H 0.04743 0.10691 0.14503 0.0
H1261 H 0.99073 1.00729 0.13597 0.0
H1262 H 0.98389 1.0 0.10419 0.0
H1263 H 0.97045 0.02039 0.12241 0.0
C1264 C 0.31517 0.66743 0.47944 0.0
C1265 C 0.31513 0.64375 0.47751 0.0
C1266 C 0.3096 0.67662 0.45966 0.0
C1267 C 0.30348 0.66177 0.43723 0.0
C1268 C 0.30295 0.63772 0.43512 0.0
C1269 C 0.30898 0.62898 0.45532 0.0
C1270 C 0.31058 0.70239 0.46277 0.0
C1271 C 0.29613 0.62134 0.41157 0.0
C1272 C 0.27299 0.69063 0.39517 0.0
C1273 C 0.29089 0.70091 0.38381 0.0
C1274 C 0.27645 0.67626 0.41134 0.0
C1275 C 0.2983 0.672 0.4162 0.0
C1276 C 0.31604 0.68094 0.40349 0.0
C1277 C 0.31211 0.69523 0.38744 0.0
C1278 C 0.25709 0.66693 0.42443 0.0
C1279 C 0.3396 0.6769 0.40815 0.0
H1280 H 0.31997 0.67901 0.49649 0.0
H1281 H 0.30881 0.61065 0.45376 0.0
H1282 H 0.32288 0.70992 0.45139 0.0
H1283 H 0.29392 0.70582 0.45709 0.0
H1284 H 0.31553 0.71151 0.48147 0.0
H1285 H 0.29607 0.60308 0.41298 0.0
H1286 H 0.27908 0.62266 0.40456 0.0
H1287 H 0.30786 0.62618 0.39842 0.0
H1288 H 0.25653 0.69488 0.39251 0.0
H1289 H 0.32591 0.70263 0.37831 0.0
H1290 H 0.26062 0.67432 0.44371 0.0
H1291 H 0.25508 0.64788 0.42232 0.0
H1292 H 0.24097 0.67112 0.41803 0.0
H1293 H 0.34699 0.68686 0.42594 0.0
H1294 H 0.35074 0.68237 0.39471 0.0
H1295 H 0.33935 0.65836 0.40824 0.0
C1296 C 0.64915 0.02197 0.68948 0.0
C1297 C 0.64299 0.03886 0.7067 0.0
C1298 C 0.63795 0.01599 0.66645 0.0
C1299 C 0.62085 0.0278 0.66047 0.0
C1300 C 0.61351 0.04357 0.67826 0.0
C1301 C 0.62442 0.04859 0.70121 0.0
C1302 C 0.64538 0.99819 0.64817 0.0
C1303 C 0.59565 0.05691 0.6726 0.0
C1304 C 0.61692 0.04527 0.60081 0.0
C1305 C 0.5956 0.03291 0.59096 0.0
C1306 C 0.62581 0.04285 0.62301 0.0
C1307 C 0.61336 0.02707 0.63528 0.0
C1308 C 0.59248 1.01333 0.62464 0.0
C1309 C 0.58356 0.01679 0.60273 0.0
C1310 C 0.64784 0.05834 0.63398 0.0
C1311 C 0.57917 0.99567 0.63674 0.0
H1312 H 0.6632 1.01404 0.69371 0.0
H1313 H 0.61934 0.06153 0.71439 0.0
H1314 H 0.63068 0.98715 0.63659 0.0
H1315 H 0.65659 1.00704 0.63666 0.0
H1316 H 0.65476 0.98699 0.65663 0.0
H1317 H 0.59079 0.06731 0.68881 0.0
H1318 H 0.60202 0.06882 0.66071 0.0
H1319 H 0.58035 0.04501 0.66312 0.0
H1320 H 0.62619 0.05777 0.59169 0.0
H1321 H 0.5672 1.00697 0.59486 0.0
H1322 H 0.65991 0.04786 0.63917 0.0
H1323 H 0.64498 0.07001 0.65036 0.0
H1324 H 0.65571 0.06914 0.62172 0.0
H1325 H 0.59047 0.98642 0.64557 0.0
H1326 H 0.56656 0.98281 0.62397 0.0
H1327 H 0.57008 1.0045 0.65062 0.0
C1328 C 0.33118 0.37969 0.9574 0.0
C1329 C 0.33075 0.36611 0.97496 0.0
C1330 C 0.32926 0.36966 0.93308 0.0
C1331 C 0.32663 0.34535 0.92594 0.0
C1332 C 0.32644 0.33155 0.9436 0.0
C1333 C 0.32861 0.34208 0.96785 0.0
C1334 C 0.32984 0.38511 0.91497 0.0
C1335 C 0.32358 0.30559 0.93685 0.0
C1336 C 0.30068 0.31907 0.86235 0.0
C1337 C 0.31976 0.31629 0.85029 0.0
C1338 C 0.30261 0.32799 0.88699 0.0
C1339 C 0.32414 0.33448 0.90001 0.0
C1340 C 0.3434 0.33135 0.88803 0.0
C1341 C 0.34098 0.32227 0.86345 0.0
C1342 C 0.2816 0.33086 0.89902 0.0
C1343 C 0.36669 0.33811 0.90108 0.0
H1344 H 0.33285 0.39826 0.96267 0.0
H1345 H 0.32815 0.33141 0.98124 0.0
H1346 H 0.34355 0.38255 0.90344 0.0
H1347 H 0.3138 0.38044 0.9033 0.0
H1348 H 0.33248 0.40371 0.92337 0.0
H1349 H 0.32398 0.2973 0.95264 0.0
H1350 H 0.30732 0.2983 0.92591 0.0
H1351 H 0.3371 0.30097 0.92588 0.0
H1352 H 0.28419 0.31453 0.85248 0.0
H1353 H 0.3559 0.32029 0.85446 0.0
H1354 H 0.2822 0.34945 0.90617 0.0
H1355 H 0.28063 0.32182 0.91428 0.0
H1356 H 0.26605 0.324 0.88672 0.0
H1357 H 0.37051 0.35698 0.9084 0.0
H1358 H 0.3799 0.33387 0.88943 0.0
H1359 H 0.36753 0.32916 0.91632 0.0
C1360 C 0.95446 0.0647 0.35895 0.0
C1361 C 0.96559 0.06645 0.33813 0.0
C1362 C 0.96573 0.06237 0.38105 0.0
C1363 C 0.98933 0.0621 0.38364 0.0
C1364 C 1.00063 0.06404 0.36272 0.0
C1365 C 0.98889 0.06593 0.34076 0.0
C1366 C 0.95212 0.06003 0.40185 0.0
C1367 C 0.02554 0.06433 0.36351 0.0
C1368 C 0.02326 0.07695 0.44788 0.0
C1369 C 0.02641 0.05532 0.45292 0.0
C1370 C 1.01169 0.07935 0.426 0.0
C1371 C 1.00204 0.05975 0.40777 0.0
C1372 C 1.00498 0.03787 0.41287 0.0
C1373 C 0.01698 0.03599 0.43471 0.0
C1374 C 1.00994 0.10326 0.42234 0.0
C1375 C 0.99518 0.01605 0.39512 0.0
H1376 H 0.93663 0.06493 0.35797 0.0
H1377 H 0.99828 0.06728 0.32546 0.0
H1378 H 0.95374 0.04386 0.40808 0.0
H1379 H 0.95872 0.07463 0.41685 0.0
H1380 H 0.934 0.05976 0.39734 0.0
H1381 H 0.03237 0.06664 0.34641 0.0
H1382 H 0.03466 0.07856 0.37782 0.0
H1383 H 0.02902 0.04791 0.36779 0.0
H1384 H 0.03011 0.09234 0.46111 0.0
H1385 H 0.01873 0.019 0.43761 0.0
H1386 H 0.99199 0.10461 0.42006 0.0
H1387 H 0.01745 0.10651 0.40583 0.0
H1388 H 0.01856 0.11694 0.43745 0.0
H1389 H 0.97684 0.01491 0.39122 0.0
H1390 H 0.9979 1.00026 0.40155 0.0
H1391 H 1.00291 0.01647 0.37816 0.0
C1392 C 0.3492 0.68648 0.6151 0.0
C1393 C 0.3303 0.66977 0.60451 0.0
C1394 C 0.34829 0.70195 0.63659 0.0
C1395 C 0.32775 0.7013 0.64732 0.0
C1396 C 0.30906 0.68355 0.63735 0.0
C1397 C 0.31065 0.66799 0.6163 0.0
C1398 C 0.36892 0.71993 0.64695 0.0
C1399 C 0.28672 0.68215 0.64777 0.0
C1400 C 0.32277 0.73299 0.71027 0.0
C1401 C 0.31619 0.75342 0.70623 0.0
C1402 C 0.32768 0.71653 0.69154 0.0
C1403 C 0.3251 0.71993 0.66783 0.0
C1404 C 0.3186 0.74063 0.66365 0.0
C1405 C 0.31467 0.75731 0.68292 0.0
C1406 C 0.33549 0.6954 0.69719 0.0
C1407 C 0.31518 0.74489 0.63872 0.0
H1408 H 0.36421 0.68851 0.60576 0.0
H1409 H 0.29575 0.65565 0.60782 0.0
H1410 H 0.36672 0.73702 0.6434 0.0
H1411 H 0.37138 0.7215 0.66652 0.0
H1412 H 0.38433 0.71576 0.63915 0.0
H1413 H 0.27419 0.66663 0.63876 0.0
H1414 H 0.28889 0.68173 0.66697 0.0
H1415 H 0.27985 0.6978 0.64609 0.0
H1416 H 0.32441 0.72998 0.72827 0.0
H1417 H 0.30972 0.77305 0.67967 0.0
H1418 H 0.35082 0.69289 0.68828 0.0
H1419 H 0.32229 0.67978 0.69036 0.0
H1420 H 0.33926 0.69665 0.7166 0.0
H1421 H 0.3309 0.74458 0.6299 0.0
H1422 H 0.31013 0.76175 0.63837 0.0
H1423 H 0.30197 0.73088 0.62813 0.0
C1424 C 0.68296 0.09643 0.8263 0.0
C1425 C 0.7011 0.08535 0.82182 0.0
C1426 C 0.6781 0.10387 0.84949 0.0
C1427 C 0.69169 0.09993 0.86862 0.0
C1428 C 0.71197 0.09207 0.86435 0.0
C1429 C 0.71642 0.08459 0.84078 0.0
C1430 C 0.65699 0.11353 0.85332 0.0
C1431 C 0.72788 0.08969 0.88452 0.0
C1432 C 0.66462 0.11741 0.92463 0.0
C1433 C 0.64951 0.09672 0.92465 0.0
C1434 C 0.68067 0.11844 0.90805 0.0
C1435 C 0.6814 0.09831 0.89114 0.0
C1436 C 0.66764 0.07693 0.89272 0.0
C1437 C 0.65186 0.07645 0.9094 0.0
C1438 C 0.6956 0.14148 0.90801 0.0
C1439 C 0.66775 0.05492 0.87512 0.0
H1440 H 0.6716 0.09795 0.81167 0.0
H1441 H 0.73088 0.07666 0.83734 0.0
H1442 H 0.64436 0.10095 0.85999 0.0
H1443 H 0.66081 0.12976 0.86686 0.0
H1444 H 0.64936 0.11725 0.83672 0.0
H1445 H 0.74536 0.09108 0.87938 0.0
H1446 H 0.72767 0.10311 0.90053 0.0
H1447 H 0.72265 0.07248 0.88924 0.0
H1448 H 0.66334 0.13302 0.93692 0.0
H1449 H 0.64023 0.06038 0.90927 0.0
H1450 H 0.68507 0.15455 0.90633 0.0
H1451 H 0.70691 0.14093 0.89357 0.0
H1452 H 0.70606 0.14745 0.92531 0.0
H1453 H 0.66113 0.05655 0.85719 0.0
H1454 H 0.65728 0.03952 0.87998 0.0
H1455 H 0.68514 0.05185 0.87396 0.0
C1456 C 0.31485 0.3653 0.11342 0.0
C1457 C 0.33017 0.3556 0.09935 0.0
C1458 C 0.30951 0.35814 0.13491 0.0
C1459 C 0.31987 0.34102 0.14274 0.0
C1460 C 0.33553 0.33142 0.12875 0.0
C1461 C 0.34037 0.3387 0.10733 0.0
C1462 C 0.29268 0.36881 0.1492 0.0
C1463 C 0.34731 0.31341 0.13643 0.0
C1464 C 0.32519 0.33563 0.20798 0.0
C1465 C 0.30901 0.31566 0.20832 0.0
C1466 C 0.32827 0.34453 0.18709 0.0
C1467 C 0.31488 0.33331 0.16572 0.0
C1468 C 0.29796 0.31363 0.16606 0.0
C1469 C 0.29524 0.30505 0.18728 0.0
C1470 C 0.34651 0.36551 0.18774 0.0
C1471 C 0.28319 0.30117 0.14379 0.0
H1472 H 0.30675 0.37826 0.10749 0.0
H1473 H 0.35234 0.33109 0.09683 0.0
H1474 H 0.27843 0.35511 0.15141 0.0
H1475 H 0.30063 0.37738 0.16724 0.0
H1476 H 0.28594 0.38175 0.1407 0.0
H1477 H 0.35906 0.30763 0.1236 0.0
H1478 H 0.35696 0.32048 0.15404 0.0
H1479 H 0.33472 0.2981 0.13838 0.0
H1480 H 0.33591 0.34417 0.22403 0.0
H1481 H 0.28264 0.2897 0.18723 0.0
H1482 H 0.33969 0.37875 0.17989 0.0
H1483 H 0.35999 0.36049 0.1769 0.0
H1484 H 0.35414 0.37345 0.20609 0.0
H1485 H 0.27542 0.31359 0.13551 0.0
H1486 H 0.26962 0.2874 0.14732 0.0
H1487 H 0.29356 0.29316 0.13069 0.0
C1488 C 0.22019 0.97526 1.01191 0.0
C1489 C 0.23929 0.99066 1.00752 0.0
C1490 C 0.19942 0.98228 0.0162 0.0
C1491 C 0.1969 1.00531 0.01555 0.0
C1492 C 0.21611 0.02096 1.01101 0.0
C1493 C 0.23695 1.01362 1.00743 0.0
C1494 C 0.18002 0.96486 0.02146 0.0
C1495 C 0.21451 0.04546 1.0094 0.0
C1496 C 0.13592 1.01427 1.00266 0.0
C1497 C 0.13025 0.02438 0.02504 0.0
C1498 C 0.15745 1.00874 0.99928 0.0
C1499 C 0.1741 1.01259 0.01885 0.0
C1500 C 0.16845 0.02272 0.04157 0.0
C1501 C 0.14695 0.0288 0.04429 0.0
C1502 C 0.16238 0.99882 0.97454 0.0
C1503 C 0.18507 0.02679 0.0632 0.0
H1504 H 0.22153 0.95754 1.01226 0.0
H1505 H 0.25132 0.0258 1.00399 0.0
H1506 H 0.17353 0.97181 0.03835 0.0
H1507 H 0.16602 0.96162 1.0072 0.0
H1508 H 0.18487 0.94812 0.02287 0.0
H1509 H 0.23069 0.0556 1.00572 0.0
H1510 H 0.20137 0.04535 0.99506 0.0
H1511 H 0.20936 0.05434 0.02624 0.0
H1512 H 0.12354 1.01102 0.98743 0.0
H1513 H 0.14306 0.0366 0.06168 0.0
H1514 H 0.1652 0.98094 0.97376 0.0
H1515 H 0.17802 1.00919 0.96996 0.0
H1516 H 0.14846 0.99842 0.96091 0.0
H1517 H 0.18961 1.01017 0.06562 0.0
H1518 H 0.17831 0.03453 0.07963 0.0
H1519 H 0.20079 0.03846 0.0607 0.0
C1520 C 0.7033 0.67669 1.01179 0.0
C1521 C 0.71905 0.67234 0.99556 0.0
C1522 C 0.68404 0.65989 0.01269 0.0
C1523 C 0.6799 0.63854 0.99625 0.0
C1524 C 0.69544 0.63443 0.97927 0.0
C1525 C 0.7151 0.65115 0.9795 0.0
C1526 C 0.66842 0.66477 0.03163 0.0
C1527 C 0.69125 0.61242 0.96076 0.0
C1528 C 0.64155 0.5864 1.01186 0.0
C1529 C 0.6205 0.5879 1.00151 0.0
C1530 C 0.66099 0.60273 1.0103 0.0
C1531 C 0.65954 0.62045 0.99721 0.0
C1532 C 0.63842 0.62138 0.98586 0.0
C1533 C 0.61909 0.60544 0.9886 0.0
C1534 C 0.68289 0.60162 0.02354 0.0
C1535 C 0.63621 0.6393 0.97093 0.0
H1536 H 0.70647 0.69299 0.02438 0.0
H1537 H 0.72723 0.64783 0.96687 0.0
H1538 H 0.65144 0.66473 0.02332 0.0
H1539 H 0.66655 0.65095 0.04232 0.0
H1540 H 0.67459 0.68171 0.04377 0.0
H1541 H 0.70403 0.61262 0.94771 0.0
H1542 H 0.69151 0.59737 0.96946 0.0
H1543 H 0.67433 0.6098 0.95106 0.0
H1544 H 0.64261 0.5731 0.02219 0.0
H1545 H 0.60282 0.60664 0.98058 0.0
H1546 H 0.6889 0.61792 0.03672 0.0
H1547 H 0.69602 0.59999 1.01109 0.0
H1548 H 0.68121 0.58687 0.03301 0.0
H1549 H 0.64096 0.65688 0.98207 0.0
H1550 H 0.61882 0.63708 0.96241 0.0
H1551 H 0.64794 0.63829 0.95686 0.0
C1552 C 0.74394 0.466 0.27804 0.0
C1553 C 0.72066 0.46427 0.27083 0.0
C1554 C 0.75505 0.44628 0.278 0.0
C1555 C 0.74377 0.42253 0.26925 0.0
C1556 C 0.72026 0.42075 0.26139 0.0
C1557 C 0.70935 0.44079 0.26284 0.0
C1558 C 0.77931 0.45159 0.28814 0.0
C1559 C 0.7059 0.39744 0.25083 0.0
C1560 C 0.78585 0.37691 0.25413 0.0
C1561 C 0.77952 0.35883 0.26699 0.0
C1562 C 0.77445 0.39645 0.25408 0.0
C1563 C 0.75615 0.40034 0.26841 0.0
C1564 C 0.75023 0.38237 0.28203 0.0
C1565 C 0.76112 0.36237 0.28064 0.0
C1566 C 0.78238 0.41277 0.23786 0.0
C1567 C 0.7324 0.38398 0.29905 0.0
H1568 H 0.75379 0.48323 0.28459 0.0
H1569 H 0.69158 0.43785 0.25698 0.0
H1570 H 0.78479 0.43648 0.29364 0.0
H1571 H 0.79009 0.45741 0.2746 0.0
H1572 H 0.78214 0.46601 0.30379 0.0
H1573 H 0.69401 0.39884 0.23593 0.0
H1574 H 0.716 0.38439 0.24416 0.0
H1575 H 0.69563 0.39122 0.26456 0.0
H1576 H 0.79969 0.37559 0.24324 0.0
H1577 H 0.7554 0.34957 0.29122 0.0
H1578 H 0.79813 0.42465 0.24634 0.0
H1579 H 0.76976 0.42314 0.23382 0.0
H1580 H 0.78643 0.40302 0.22085 0.0
H1581 H 0.72915 0.40176 0.30399 0.0
H1582 H 0.73738 0.37816 0.31555 0.0
H1583 H 0.71655 0.37217 0.29076 0.0
C1584 C 0.87217 0.50693 0.50604 0.0
C1585 C 0.86497 0.48409 0.49336 0.0
C1586 C 0.89531 0.5181 0.50867 0.0
C1587 C 0.91191 0.50627 0.49853 0.0
C1588 C 0.90449 0.48362 0.48501 0.0
C1589 C 0.88148 0.47306 0.48253 0.0
C1590 C 0.90213 0.54235 0.52296 0.0
C1591 C 0.92106 0.46997 0.47382 0.0
C1592 C 0.97233 0.53546 0.48919 0.0
C1593 C 0.98547 0.53121 0.50837 0.0
C1594 C 0.94847 0.5285 0.48636 0.0
C1595 C 0.93708 0.51663 0.50287 0.0
C1596 C 0.95026 0.51265 0.52244 0.0
C1597 C 0.97398 0.52 0.52498 0.0
C1598 C 0.93545 0.5335 0.46534 0.0
C1599 C 0.93936 0.49988 0.54045 0.0
H1600 H 0.85991 0.51579 0.51466 0.0
H1601 H 0.87649 0.45556 0.4724 0.0
H1602 H 0.91218 0.54212 0.53966 0.0
H1603 H 0.91294 0.55348 0.51295 0.0
H1604 H 0.88734 0.55019 0.52756 0.0
H1605 H 0.91265 0.45288 0.46311 0.0
H1606 H 0.93112 0.47982 0.46217 0.0
H1607 H 0.93297 0.4671 0.48789 0.0
H1608 H 0.98068 0.54421 0.47625 0.0
H1609 H 0.98362 0.51652 0.53996 0.0
H1610 H 0.92144 0.54203 0.47132 0.0
H1611 H 0.92786 0.51704 0.45304 0.0
H1612 H 0.94624 0.54474 0.45539 0.0
H1613 H 0.92573 0.50825 0.54777 0.0
H1614 H 0.95158 0.49926 0.5554 0.0
H1615 H 0.93156 0.48189 0.53168 0.0
C1616 C 0.38106 0.09715 0.30115 0.0
C1617 C 0.37522 0.07302 0.2979 0.0
C1618 C 0.36586 0.10998 0.29348 0.0
C1619 C 0.34456 0.0983 0.28186 0.0
C1620 C 0.33868 0.07392 0.27835 0.0
C1621 C 0.35402 0.06157 0.28665 0.0
C1622 C 0.37256 0.13603 0.29788 0.0
C1623 C 0.31631 0.06087 0.26559 0.0
C1624 C 0.29908 0.13392 0.28057 0.0
C1625 C 0.30125 0.14099 0.25867 0.0
C1626 C 0.31274 0.11959 0.28815 0.0
C1627 C 0.32856 0.11168 0.27323 0.0
C1628 C 0.32989 0.11756 0.25052 0.0
C1629 C 0.31637 0.13232 0.24361 0.0
C1630 C 0.31099 0.11382 0.31259 0.0
C1631 C 0.3463 0.10911 0.23395 0.0
H1632 H 0.39741 0.10603 0.30996 0.0
H1633 H 0.34953 0.04288 0.28396 0.0
H1634 H 0.37264 0.14205 0.28071 0.0
H1635 H 0.36008 0.14394 0.30815 0.0
H1636 H 0.38948 0.14247 0.30778 0.0
H1637 H 0.31439 0.04187 0.26417 0.0
H1638 H 0.30235 0.06667 0.27506 0.0
H1639 H 0.31454 0.06463 0.24743 0.0
H1640 H 0.28715 0.14017 0.29214 0.0
H1641 H 0.31848 0.13791 0.22682 0.0
H1642 H 0.32703 0.12147 0.32383 0.0
H1643 H 0.30821 0.09483 0.31144 0.0
H1644 H 0.2971 0.12045 0.32155 0.0
H1645 H 0.36377 0.11723 0.24151 0.0
H1646 H 0.34364 0.11328 0.21604 0.0
H1647 H 0.34474 0.09011 0.232 0.0
C1648 C 0.36818 0.1782 0.51178 0.0
C1649 C 0.34622 0.16672 0.51356 0.0
C1650 C 0.38687 0.16815 0.51614 0.0
C1651 C 0.38356 0.14608 0.5225 0.0
C1652 C 0.36143 0.13443 0.52436 0.0
C1653 C 0.34307 0.14486 0.51986 0.0
C1654 C 0.41017 0.18114 0.51394 0.0
C1655 C 0.35714 0.11093 0.53117 0.0
C1656 C 0.42906 0.10976 0.51441 0.0
C1657 C 0.43949 0.11347 0.53764 0.0
C1658 C 0.41107 0.12049 0.50916 0.0
C1659 C 0.40321 0.13526 0.52757 0.0
C1660 C 0.41381 0.13928 0.55098 0.0
C1661 C 0.4318 0.12841 0.5557 0.0
C1662 C 0.40029 0.11578 0.48395 0.0
C1663 C 0.40603 0.15494 0.57112 0.0
H1664 H 0.37079 0.19507 0.50688 0.0
H1665 H 0.32618 0.13583 0.52127 0.0
H1666 H 0.42065 0.1843 0.53114 0.0
H1667 H 0.41847 0.17059 0.50059 0.0
H1668 H 0.4099 0.19802 0.50862 0.0
H1669 H 0.33894 0.10409 0.53169 0.0
H1670 H 0.36398 0.09845 0.5183 0.0
H1671 H 0.36598 0.11195 0.54891 0.0
H1672 H 0.43468 0.0981 0.50036 0.0
H1673 H 0.43998 0.13179 0.57361 0.0
H1674 H 0.40062 0.13229 0.47768 0.0
H1675 H 0.38237 0.10725 0.48325 0.0
H1676 H 0.40886 0.10454 0.47152 0.0
H1677 H 0.40696 0.17244 0.56696 0.0
H1678 H 0.41625 0.15654 0.58825 0.0
H1679 H 0.38817 0.14815 0.57331 0.0
C1680 C 0.71746 0.62335 0.30191 0.0
C1681 C 0.71891 0.60324 0.28518 0.0
C1682 C 0.72964 0.64613 0.30125 0.0
C1683 C 0.74374 0.65033 0.28285 0.0
C1684 C 0.74548 0.63011 0.2659 0.0
C1685 C 0.73345 0.60726 0.26733 0.0
C1686 C 0.727 0.66602 0.32036 0.0
C1687 C 0.75951 0.63271 0.24547 0.0
C1688 C 0.75575 0.71396 0.26935 0.0
C1689 C 0.77797 0.7239 0.27974 0.0
C1690 C 0.74494 0.69052 0.26974 0.0
C1691 C 0.7559 0.67561 0.28123 0.0
C1692 C 0.77827 0.6856 0.2919 0.0
C1693 C 0.78887 0.70895 0.29082 0.0
C1694 C 0.72149 0.68163 0.25756 0.0
C1695 C 0.79113 0.67159 0.30495 0.0
H1696 H 0.70627 0.62131 0.31571 0.0
H1697 H 0.73465 0.59265 0.25365 0.0
H1698 H 0.74377 0.67598 0.32844 0.0
H1699 H 0.71825 0.67799 0.31245 0.0
H1700 H 0.71723 0.66013 0.33462 0.0
H1701 H 0.75996 0.6158 0.23404 0.0
H1702 H 0.75258 0.64371 0.23444 0.0
H1703 H 0.77699 0.64157 0.25224 0.0
H1704 H 0.74665 0.72453 0.26051 0.0
H1705 H 0.80587 0.71564 0.29908 0.0
H1706 H 0.70963 0.67757 0.27086 0.0
H1707 H 0.72098 0.66533 0.24464 0.0
H1708 H 0.71552 0.69432 0.24806 0.0
H1709 H 0.7816 0.66619 0.31956 0.0
H1710 H 0.80813 0.68137 0.31257 0.0
H1711 H 0.79298 0.65561 0.29274 0.0
C1712 C 0.91684 0.44676 0.83849 0.0
C1713 C 0.91105 0.46861 0.84309 0.0
C1714 C 0.90026 0.4266 0.83585 0.0
C1715 C 0.87756 0.42851 0.83831 0.0
C1716 C 0.87209 0.45052 0.84542 0.0
C1717 C 0.88889 0.47035 0.8475 0.0
C1718 C 0.90675 0.4034 0.82824 0.0
C1719 C 0.84819 0.45321 0.84892 0.0
C1720 C 0.83517 0.38234 0.79674 0.0
C1721 C 0.82862 0.36642 0.81136 0.0
C1722 C 0.85059 0.40296 0.80558 0.0
C1723 C 0.85935 0.40798 0.82975 0.0
C1724 C 0.85167 0.39275 0.845 0.0
C1725 C 0.83649 0.372 0.83557 0.0
C1726 C 0.8584 0.41875 0.78868 0.0
C1727 C 0.86022 0.39782 0.87098 0.0
H1728 H 0.93395 0.44534 0.83507 0.0
H1729 H 0.88444 0.48727 0.85141 0.0
H1730 H 0.89917 0.39094 0.83904 0.0
H1731 H 0.90017 0.39622 0.80943 0.0
H1732 H 0.92528 0.40467 0.82983 0.0
H1733 H 0.84743 0.4708 0.85863 0.0
H1734 H 0.83838 0.45021 0.83135 0.0
H1735 H 0.83994 0.44027 0.85886 0.0
H1736 H 0.82918 0.37821 0.77803 0.0
H1737 H 0.83141 0.35983 0.84701 0.0
H1738 H 0.87671 0.41987 0.78728 0.0
H1739 H 0.85575 0.43647 0.79554 0.0
H1740 H 0.84944 0.41262 0.77059 0.0
H1741 H 0.87778 0.39509 0.87283 0.0
H1742 H 0.84986 0.38643 0.88115 0.0
H1743 H 0.86038 0.41612 0.87906 0.0
C1744 C 0.05809 0.86281 0.14051 0.0
C1745 C 0.07448 0.8534 0.12799 0.0
C1746 C 0.04623 0.87777 0.13122 0.0
C1747 C 0.05113 0.88362 0.10908 0.0
C1748 C 0.06867 0.87534 0.09713 0.0
C1749 C 0.08007 0.86021 0.1067 0.0
C1750 C 0.02769 0.88629 0.14446 0.0
C1751 C 0.07471 0.88162 0.07369 0.0
C1752 C 1.00875 0.89828 0.06627 0.0
C1753 C 1.0166 0.92208 0.06833 0.0
C1754 C 0.01879 0.88573 0.08081 0.0
C1755 C 0.03724 0.89728 0.09755 0.0
C1756 C 0.04395 0.92159 0.10106 0.0
C1757 C 0.03347 0.93372 0.08646 0.0
C1758 C 1.01085 0.85985 0.07694 0.0
C1759 C 0.06357 0.93454 0.11866 0.0
H1760 H 0.05369 0.8576 0.15702 0.0
H1761 H 0.09284 0.8531 0.09707 0.0
H1762 H 0.02943 0.90525 0.14599 0.0
H1763 H 1.01117 0.87807 0.13439 0.0
H1764 H 0.02759 0.8822 0.16256 0.0
H1765 H 0.08981 0.87512 0.0676 0.0
H1766 H 0.0604 0.8742 0.0599 0.0
H1767 H 0.07795 0.90068 0.0752 0.0
H1768 H 0.99566 0.88929 0.05234 0.0
H1769 H 0.03987 0.95208 0.08793 0.0
H1770 H 1.00884 0.85421 0.09418 0.0
H1771 H 0.02364 0.85111 0.06815 0.0
H1772 H 0.99461 0.85398 0.06561 0.0
H1773 H 0.06267 0.92855 0.13582 0.0
H1774 H 0.06428 0.95351 0.12201 0.0
H1775 H 0.0795 0.93112 0.11157 0.0
C1776 C 0.96006 0.29486 0.87119 0.0
C1777 C 0.95746 0.30535 0.89449 0.0
C1778 C 0.94263 0.29102 0.85302 0.0
C1779 C 0.92218 0.29796 0.85826 0.0
C1780 C 0.91926 0.30824 0.88176 0.0
C1781 C 0.93695 0.31173 0.89968 0.0
C1782 C 0.94621 0.27984 0.82816 0.0
C1783 C 0.89762 0.31596 0.88787 0.0
C1784 C 0.88421 0.31046 0.80967 0.0
C1785 C 0.86677 0.29099 0.80607 0.0
C1786 C 0.90275 0.31269 0.8262 0.0
C1787 C 0.9039 0.29484 0.8391 0.0
C1788 C 0.88702 0.27454 0.83449 0.0
C1789 C 0.86855 0.27289 0.81805 0.0
C1790 C 0.92043 0.33466 0.83078 0.0
C1791 C 0.88792 0.25504 0.84771 0.0
H1792 H 0.97582 0.28971 0.86705 0.0
H1793 H 0.93488 0.31992 0.9176 0.0
H1794 H 0.93293 0.26421 0.82166 0.0
H1795 H 0.94486 0.29196 0.81588 0.0
H1796 H 0.9629 0.27478 0.82723 0.0
H1797 H 0.89796 0.32341 0.90707 0.0
H1798 H 0.89448 0.32918 0.87747 0.0
H1799 H 0.88323 0.30113 0.88299 0.0
H1800 H 0.88281 0.32458 0.80056 0.0
H1801 H 0.85513 0.25776 0.81519 0.0
H1802 H 0.93745 0.33054 0.82947 0.0
H1803 H 0.92004 0.34429 0.8491 0.0
H1804 H 0.91779 0.34617 0.81814 0.0
H1805 H 0.90444 0.24968 0.84658 0.0
H1806 H 0.87439 0.23971 0.84067 0.0
H1807 H 0.88613 0.26104 0.86679 0.0
C1808 C 0.59575 0.21983 0.58941 0.0
C1809 C 0.61523 0.23686 0.59133 0.0
C1810 C 0.59569 0.19681 0.57937 0.0
C1811 C 0.61583 0.19056 0.57166 0.0
C1812 C 0.63559 0.20771 0.57337 0.0
C1813 C 0.63497 0.23086 0.58293 0.0
C1814 C 0.5741 0.17914 0.57736 0.0
C1815 C 0.65744 0.20149 0.56585 0.0
C1816 C 0.61176 0.12727 0.57174 0.0
C1817 C 0.60413 0.11765 0.54799 0.0
C1818 C 0.61812 0.15126 0.57927 0.0
C1819 C 0.61593 0.16582 0.56275 0.0
C1820 C 0.60971 0.15606 0.5384 0.0
C1821 C 0.60415 0.13195 0.53123 0.0
C1822 C 0.62536 0.16101 0.60526 0.0
C1823 C 0.6067 0.17098 0.52033 0.0
H1824 H 0.58041 0.22458 0.59565 0.0
H1825 H 0.65004 0.24411 0.58456 0.0
H1826 H 0.57009 0.16929 0.55884 0.0
H1827 H 0.57612 0.16656 0.58895 0.0
H1828 H 0.55958 0.18719 0.58258 0.0
H1829 H 0.67089 0.21703 0.5669 0.0
H1830 H 0.66322 0.19036 0.57748 0.0
H1831 H 0.65499 0.19141 0.54741 0.0
H1832 H 0.61199 0.11606 0.58459 0.0
H1833 H 0.59815 0.12438 0.51284 0.0
H1834 H 0.61124 0.16745 0.61387 0.0
H1835 H 0.63973 0.17584 0.60743 0.0
H1836 H 0.63029 0.14777 0.6147 0.0
H1837 H 0.59098 0.17774 0.52284 0.0
H1838 H 0.60551 0.16113 0.50183 0.0
H1839 H 0.6208 0.18607 0.52276 0.0
C1840 C 0.57647 0.79016 0.37299 0.0
C1841 C 0.57681 0.80365 0.39568 0.0
C1842 C 0.59624 0.78987 0.36159 0.0
C1843 C 0.6169 0.80321 0.37325 0.0
C1844 C 0.61756 0.81584 0.39669 0.0
C1845 C 0.59747 0.816 0.4076 0.0
C1846 C 0.59479 0.77623 0.33656 0.0
C1847 C 0.63933 0.83001 0.40983 0.0
C1848 C 0.67029 0.79119 0.34625 0.0
C1849 C 0.67446 0.80848 0.33261 0.0
C1850 C 0.65193 0.78955 0.36005 0.0
C1851 C 0.63732 0.80548 0.36008 0.0
C1852 C 0.64165 0.82317 0.34666 0.0
C1853 C 0.66019 0.82451 0.3332 0.0
C1854 C 0.64793 0.77054 0.37424 0.0
C1855 C 0.62649 0.84051 0.34622 0.0
H1856 H 0.56059 0.78053 0.36366 0.0
H1857 H 0.59787 0.82637 0.42519 0.0
H1858 H 0.59875 0.78829 0.32415 0.0
H1859 H 0.60737 0.76486 0.33519 0.0
H1860 H 0.57782 0.76539 0.33067 0.0
H1861 H 0.63744 0.83674 0.42877 0.0
H1862 H 0.65265 0.81951 0.40901 0.0
H1863 H 0.64514 0.84491 0.40123 0.0
H1864 H 0.68111 0.77862 0.34576 0.0
H1865 H 0.66355 0.83822 0.32313 0.0
H1866 H 0.63181 0.7585 0.36728 0.0
H1867 H 0.64644 0.77793 0.39308 0.0
H1868 H 0.66164 0.76049 0.37355 0.0
H1869 H 0.60918 0.8314 0.33899 0.0
H1870 H 0.63244 0.85347 0.33522 0.0
H1871 H 0.62548 0.84977 0.36453 0.0
C1872 C 0.11067 0.26772 0.44999 0.0
C1873 C 0.11885 0.28925 0.46489 0.0
C1874 C 0.10546 0.24756 0.45949 0.0
C1875 C 0.10901 0.24901 0.48436 0.0
C1876 C 0.11922 0.27038 0.49913 0.0
C1877 C 0.12371 0.29032 0.48927 0.0
C1878 C 0.09461 0.22509 0.44318 0.0
C1879 C 0.12415 0.27244 0.52557 0.0
C1880 C 0.06876 0.20901 0.51375 0.0
C1881 C 0.08121 0.19212 0.5172 0.0
C1882 C 0.07755 0.2273 0.50271 0.0
C1883 C 0.09954 0.22909 0.49531 0.0
C1884 C 0.11235 0.21228 0.49896 0.0
C1885 C 0.10293 0.19385 0.50959 0.0
C1886 C 0.06327 0.24482 0.49909 0.0
C1887 C 0.13586 0.21346 0.4914 0.0
H1888 H 0.10678 0.26687 0.43115 0.0
H1889 H 0.13026 0.30694 0.50078 0.0
H1890 H 0.10344 0.21108 0.44628 0.0
H1891 H 0.07691 0.22002 0.44708 0.0
H1892 H 0.09469 0.2264 0.42414 0.0
H1893 H 0.13463 0.28949 0.53405 0.0
H1894 H 0.10812 0.27021 0.53398 0.0
H1895 H 0.133 0.2586 0.52924 0.0
H1896 H 0.05215 0.20808 0.51987 0.0
H1897 H 0.11254 0.18064 0.51168 0.0
H1898 H 0.06157 0.24602 0.48004 0.0
H1899 H 0.07155 0.26217 0.50923 0.0
H1900 H 0.04617 0.24039 0.50491 0.0
H1901 H 0.14543 0.23154 0.49484 0.0
H1902 H 0.13485 0.20658 0.47204 0.0
H1903 H 0.14541 0.20298 0.50074 0.0
C1904 C 0.58257 0.30197 0.18612 0.0
C1905 C 0.58273 0.29211 0.16207 0.0
C1906 C 0.60049 0.30232 0.20281 0.0
C1907 C 0.61882 0.29225 0.19528 0.0
C1908 C 0.61978 0.28366 0.1708 0.0
C1909 C 0.60175 0.28386 0.15442 0.0
C1910 C 0.59914 0.31215 0.22866 0.0
C1911 C 0.63908 0.27276 0.16211 0.0
C1912 C 0.67311 0.29887 0.23433 0.0
C1913 C 0.66988 0.27774 0.24223 0.0
C1914 C 0.65618 0.30446 0.22001 0.0
C1915 C 0.63573 0.28835 0.21309 0.0
C1916 C 0.6319 0.26757 0.22202 0.0
C1917 C 0.64894 0.26264 0.23669 0.0
C1918 C 0.66068 0.32702 0.21128 0.0
C1919 C 0.61024 0.24996 0.21509 0.0
H1920 H 0.568 0.30865 0.19208 0.0
H1921 H 0.60195 0.27618 0.13588 0.0
H1922 H 0.59574 0.29783 0.2386 0.0
H1923 H 0.61538 0.32341 0.23666 0.0
H1924 H 0.58557 0.32231 0.2311 0.0
H1925 H 0.63825 0.26873 0.1424 0.0
H1926 H 0.6554 0.28439 0.16909 0.0
H1927 H 0.63875 0.25646 0.16882 0.0
H1928 H 0.68929 0.31058 0.23825 0.0
H1929 H 0.64616 0.24652 0.24311 0.0
H1930 H 0.64597 0.33562 0.21296 0.0
H1931 H 0.66348 0.32358 0.19218 0.0
H1932 H 0.67575 0.33912 0.2212 0.0
H1933 H 0.5956 0.25816 0.21919 0.0
H1934 H 0.60956 0.23514 0.22438 0.0
H1935 H 0.6085 0.2432 0.19565 0.0
C1936 C 0.60762 0.89887 0.95019 0.0
C1937 C 0.61692 0.89457 0.9285 0.0
C1938 C 0.60088 0.91981 0.95805 0.0
C1939 C 0.60413 0.93722 0.9442 0.0
C1940 C 0.61386 0.93322 0.92244 0.0
C1941 C 0.61995 0.91176 0.91469 0.0
C1942 C 0.59033 0.9233 0.98127 0.0
C1943 C 0.61804 0.95164 0.90756 0.0
C1944 C 0.56911 0.98258 0.96185 0.0
C1945 C 0.58377 0.99773 0.97994 0.0
C1946 C 0.576 0.96339 0.94865 0.0
C1947 C 0.59816 0.95986 0.95345 0.0
C1948 C 0.61356 0.97643 0.97024 0.0
C1949 C 0.60605 0.99501 0.98356 0.0
C1950 C 0.55902 0.94592 0.93113 0.0
C1951 C 0.63748 0.97362 0.97549 0.0
H1952 H 0.60529 0.88574 0.96101 0.0
H1953 H 0.62719 0.9085 0.89792 0.0
H1954 H 0.60124 0.9375 0.99429 0.0
H1955 H 0.57382 0.92839 0.97854 0.0
H1956 H 0.58773 0.90747 0.98911 0.0
H1957 H 0.62545 0.94567 0.89091 0.0
H1958 H 0.60206 0.95703 0.90291 0.0
H1959 H 0.62964 0.96719 0.91793 0.0
H1960 H 0.55188 0.98484 0.95915 0.0
H1961 H 0.61744 1.00707 0.99737 0.0
H1962 H 0.55378 0.93026 0.93879 0.0
H1963 H 0.56651 0.94046 0.91442 0.0
H1964 H 0.54379 0.95281 0.92684 0.0
H1965 H 0.63756 0.95977 0.98595 0.0
H1966 H 0.6482 0.9898 0.98584 0.0
H1967 H 0.64508 0.96841 0.95878 0.0
C1968 C 0.94407 0.77182 0.6773 0.0
C1969 C 0.96544 0.76865 0.68489 0.0
C1970 C 0.92693 0.77154 0.69265 0.0
C1971 C 0.93125 0.76776 0.71601 0.0
C1972 C 0.95252 0.76361 0.72341 0.0
C1973 C 0.96939 0.7642 0.70779 0.0
C1974 C 0.9044 0.77603 0.68412 0.0
C1975 C 0.95764 0.75919 0.74804 0.0
C1976 C 0.89277 0.79152 0.75954 0.0
C1977 C 0.87557 0.77211 0.75787 0.0
C1978 C 0.91175 0.79009 0.74694 0.0
C1979 C 0.91356 0.76869 0.73274 0.0
C1980 C 0.8972 0.74864 0.73282 0.0
C1981 C 0.8783 0.75063 0.74528 0.0
C1982 C 0.92889 0.81186 0.74732 0.0
C1983 C 0.89875 0.72541 0.71836 0.0
H1984 H 0.94097 0.77537 0.65968 0.0
H1985 H 0.98588 0.76165 0.71373 0.0
H1986 H 0.89078 0.7615 0.68583 0.0
H1987 H 0.901 0.7919 0.69536 0.0
H1988 H 0.90361 0.77821 0.66531 0.0
H1989 H 0.97448 0.7547 0.75046 0.0
H1990 H 0.95703 0.77483 0.76146 0.0
H1991 H 0.94473 0.74491 0.75168 0.0
H1992 H 0.89057 0.80818 0.76906 0.0
H1993 H 0.865 0.73558 0.74409 0.0
H1994 H 0.92755 0.81702 0.72976 0.0
H1995 H 0.9462 0.8088 0.75051 0.0
H1996 H 0.9264 0.82645 0.76117 0.0
H1997 H 0.89529 0.72549 0.6992 0.0
H1998 H 0.88649 0.71109 0.72299 0.0
H1999 H 0.91595 0.72188 0.72103 0.0
C2000 C 0.16923 0.03072 0.86328 0.0
C2001 C 0.16037 0.0338 0.84083 0.0
C2002 C 0.15719 0.03273 0.88442 0.0
C2003 C 0.13518 0.03836 0.88443 0.0
C2004 C 0.12627 0.04171 0.86187 0.0
C2005 C 0.13854 0.0393 0.84095 0.0
C2006 C 0.16819 0.02852 0.90702 0.0
C2007 C 0.1034 0.04795 0.85972 0.0
C2008 C 0.09392 0.02337 0.93378 0.0
C2009 C 0.09603 0.04421 0.95086 0.0
C2010 C 0.10622 0.02129 0.91289 0.0
C2011 C 0.1216 0.04045 0.9075 0.0
C2012 C 0.1237 0.0616 0.92457 0.0
C2013 C 0.1114 0.06313 0.94552 0.0
C2014 C 0.10285 0.99807 0.8965 0.0
C2015 C 0.1392 0.083 0.92073 0.0
H2016 H 0.18577 0.02637 0.8644 0.0
H2017 H 0.1308 0.04186 0.8244 0.0
H2018 H 0.17023 0.04422 0.92114 0.0
H2019 H 0.15725 1.01431 0.91333 0.0
H2020 H 0.18495 0.02394 0.90466 0.0
H2021 H 0.09872 0.05085 0.84167 0.0
H2022 H 0.09049 0.03392 0.86382 0.0
H2023 H 0.10306 0.06387 0.87287 0.0
H2024 H 0.08271 1.00817 0.93692 0.0
H2025 H 0.11396 0.0795 0.9579 0.0
H2026 H 0.11919 0.99232 0.89519 0.0
H2027 H 0.09666 0.99949 0.87837 0.0
H2028 H 0.09069 0.98465 0.90264 0.0
H2029 H 0.15674 0.08009 0.9209 0.0
H2030 H 0.13866 0.09839 0.93455 0.0
H2031 H 0.13458 0.0867 0.90303 0.0
C2032 C 0.80568 0.45342 0.57976 0.0
C2033 C 0.78869 0.44236 0.56168 0.0
C2034 C 0.80753 0.44515 0.60108 0.0
C2035 C 0.79203 0.42538 0.60419 0.0
C2036 C 0.77333 0.41599 0.58707 0.0
C2037 C 0.77202 0.42449 0.56591 0.0
C2038 C 0.82761 0.45584 0.6189 0.0
C2039 C 0.75621 0.39515 0.5897 0.0
C2040 C 0.8158 0.38103 0.6323 0.0
C2041 C 0.80831 0.38424 0.65505 0.0
C2042 C 0.8108 0.39451 0.61588 0.0
C2043 C 0.79784 0.41171 0.62219 0.0
C2044 C 0.79014 0.41511 0.6451 0.0
C2045 C 0.79544 0.4013 0.66127 0.0
C2046 C 0.81923 0.3901 0.59157 0.0
C2047 C 0.77631 0.43324 0.65248 0.0
H2048 H 0.81881 0.46697 0.57629 0.0
H2049 H 0.75905 0.41573 0.55174 0.0
H2050 H 0.82284 0.45684 0.63734 0.0
H2051 H 0.84051 0.44487 0.61664 0.0
H2052 H 0.83531 0.47347 0.61649 0.0
H2053 H 0.74065 0.39287 0.57758 0.0
H2054 H 0.76352 0.3794 0.58535 0.0
H2055 H 0.75164 0.39659 0.60823 0.0
H2056 H 0.82534 0.3676 0.62714 0.0
H2057 H 0.78971 0.40402 0.67887 0.0
H2058 H 0.82963 0.40621 0.58815 0.0
H2059 H 0.80477 0.38475 0.57769 0.0
H2060 H 0.82949 0.37641 0.58966 0.0
H2061 H 0.78581 0.45053 0.65109 0.0
H2062 H 0.77171 0.43383 0.67097 0.0
H2063 H 0.76065 0.42974 0.64033 0.0
C2064 C 0.47798 0.06475 0.36995 0.0
C2065 C 0.4551 0.05723 0.37215 0.0
C2066 C 0.49423 0.0672 0.38903 0.0
C2067 C 0.48742 0.06155 0.41069 0.0
C2068 C 0.46424 0.05463 0.41329 0.0
C2069 C 0.44825 0.05275 0.39396 0.0
C2070 C 0.51873 0.0751 0.38574 0.0
C2071 C 0.45644 0.04823 0.43611 0.0
C2072 C 0.53075 0.04211 0.44861 0.0
C2073 C 0.53772 0.0617 0.46662 0.0
C2074 C 0.51413 0.04175 0.43046 0.0
C2075 C 0.50473 0.06167 0.43007 0.0
C2076 C 0.51222 0.08174 0.44784 0.0
C2077 C 0.52847 0.08142 0.46611 0.0
C2078 C 0.50622 0.01984 0.41208 0.0
C2079 C 0.50287 0.10342 0.44774 0.0
H2080 H 0.48325 0.06841 0.3531 0.0
H2081 H 0.43055 0.04679 0.39558 0.0
H2082 H 0.52661 0.08973 0.40027 0.0
H2083 H 0.52789 0.06081 0.3866 0.0
H2084 H 0.52102 0.08064 0.36845 0.0
H2085 H 0.4378 0.04436 0.43567 0.0
H2086 H 0.46294 0.03278 0.4393 0.0
H2087 H 0.46327 0.06247 0.45139 0.0
H2088 H 0.53752 0.02667 0.4493 0.0
H2089 H 0.53377 0.09651 0.48018 0.0
H2090 H 0.5092 0.02328 0.39408 0.0
H2091 H 0.48783 1.01379 0.41219 0.0
H2092 H 0.51489 1.0057 0.41526 0.0
H2093 H 0.50503 0.10909 0.43053 0.0
H2094 H 0.51118 0.11784 0.46232 0.0
H2095 H 0.48457 0.09984 0.44966 0.0
C2096 C 0.79355 0.72338 0.08686 0.0
C2097 C 0.79409 0.73936 0.07168 0.0
C2098 C 0.7965 0.73074 0.11178 0.0
C2099 C 0.80069 0.75471 0.12186 0.0
C2100 C 0.80201 0.77091 0.10656 0.0
C2101 C 0.79842 0.76306 0.08177 0.0
C2102 C 0.79453 0.71283 0.12735 0.0
C2103 C 0.80701 0.79661 0.11639 0.0
C2104 C 0.78653 0.77512 0.18518 0.0
C2105 C 0.80747 0.77862 0.19847 0.0
C2106 C 0.78406 0.76707 0.16039 0.0
C2107 C 0.80307 0.76288 0.14835 0.0
C2108 C 0.82433 0.76678 0.16162 0.0
C2109 C 0.82622 0.77431 0.18648 0.0
C2110 C 0.76099 0.76273 0.1471 0.0
C2111 C 0.84515 0.76311 0.14955 0.0
H2112 H 0.79007 0.70504 0.07928 0.0
H2113 H 0.79908 0.77558 0.07023 0.0
H2114 H 0.81011 0.71567 0.13949 0.0
H2115 H 0.78046 0.71455 0.1386 0.0
H2116 H 0.79147 0.69491 0.11684 0.0
H2117 H 0.80884 0.80697 0.10216 0.0
H2118 H 0.79327 0.80139 0.12692 0.0
H2119 H 0.82275 0.80137 0.12855 0.0
H2120 H 0.77189 0.77813 0.19425 0.0
H2121 H 0.84249 0.777 0.19653 0.0
H2122 H 0.75645 0.74451 0.13741 0.0
H2123 H 0.76105 0.77391 0.13367 0.0
H2124 H 0.7478 0.76614 0.1591 0.0
H2125 H 0.84302 0.74487 0.14022 0.0
H2126 H 0.8605 0.76729 0.1623 0.0
H2127 H 0.84773 0.77409 0.13594 0.0
C2128 C 0.13297 1.01403 0.69734 0.0
C2129 C 0.15463 0.027 0.70678 0.0
C2130 C 0.12193 0.01568 0.67491 0.0
C2131 C 0.13189 0.03134 0.66062 0.0
C2132 C 0.15386 0.04437 0.6699 0.0
C2133 C 0.16459 0.04223 0.69236 0.0
C2134 C 0.09889 1.00102 0.66689 0.0
C2135 C 0.16584 0.06155 0.65645 0.0
C2136 C 0.10989 0.02398 0.59238 0.0
C2137 C 0.09531 0.03999 0.59177 0.0
C2138 C 0.12151 0.02104 0.61398 0.0
C2139 C 0.11928 0.03441 0.63672 0.0
C2140 C 0.10461 0.05061 0.63624 0.0
C2141 C 0.09304 0.05309 0.61436 0.0
C2142 C 0.13632 1.0033 0.61238 0.0
C2143 C 0.10106 0.06562 0.65915 0.0
H2144 H 0.12404 1.00298 0.70813 0.0
H2145 H 0.18057 0.05351 0.69923 0.0
H2146 H 0.08628 1.01231 0.66698 0.0
H2147 H 0.09843 0.99148 0.64838 0.0
H2148 H 0.09388 0.98837 0.67849 0.0
H2149 H 0.18315 0.06948 0.66472 0.0
H2150 H 0.16677 0.05301 0.63783 0.0
H2151 H 0.15617 0.0755 0.65581 0.0
H2152 H 0.11226 1.01342 0.57569 0.0
H2153 H 0.08216 0.06562 0.61505 0.0
H2154 H 0.13053 0.99055 0.62363 0.0
H2155 H 0.15384 1.01186 0.61932 0.0
H2156 H 0.13634 0.9939 0.59388 0.0
H2157 H 0.09386 0.05461 0.6715 0.0
H2158 H 0.08963 0.07762 0.65636 0.0
H2159 H 0.11747 0.07592 0.66792 0.0
C2160 C 0.79496 0.40227 0.4398 0.0
C2161 C 0.7934 0.42487 0.43727 0.0
C2162 C 0.79775 0.38539 0.4204 0.0
C2163 C 0.79921 0.39102 0.39758 0.0
C2164 C 0.79773 0.41383 0.39479 0.0
C2165 C 0.79477 0.43046 0.41464 0.0
C2166 C 0.79902 0.36138 0.42436 0.0
C2167 C 0.79931 0.42064 0.37083 0.0
C2168 C 0.82662 0.35132 0.35326 0.0
C2169 C 0.80789 0.33659 0.33946 0.0
C2170 C 0.82407 0.36935 0.37178 0.0
C2171 C 0.80223 0.37286 0.37687 0.0
C2172 C 0.78325 0.35801 0.36307 0.0
C2173 C 0.7863 0.34018 0.34461 0.0
C2174 C 0.8448 0.38472 0.3859 0.0
C2175 C 0.75966 0.36093 0.36782 0.0
H2176 H 0.79383 0.39758 0.45711 0.0
H2177 H 0.79359 0.4478 0.41244 0.0
H2178 H 0.78539 0.34849 0.41297 0.0
H2179 H 0.81525 0.35696 0.41921 0.0
H2180 H 0.79748 0.3597 0.44316 0.0
H2181 H 0.79811 0.43903 0.37155 0.0
H2182 H 0.81551 0.41786 0.36399 0.0
H2183 H 0.78565 0.40955 0.3579 0.0
H2184 H 0.8434 0.34903 0.34934 0.0
H2185 H 0.77165 0.32921 0.33397 0.0
H2186 H 0.84484 0.38307 0.40482 0.0
H2187 H 0.84466 0.40309 0.38524 0.0
H2188 H 0.86059 0.38038 0.37919 0.0
H2189 H 0.75662 0.35869 0.38619 0.0
H2190 H 0.74667 0.34833 0.35522 0.0
H2191 H 0.75756 0.37868 0.36645 0.0
C2192 C 0.44137 0.03314 0.236 0.0
C2193 C 0.43616 0.01487 0.24805 0.0
C2194 C 0.44867 0.02926 0.21319 0.0
C2195 C 0.45055 1.00656 0.20242 0.0
C2196 C 0.44263 0.98775 0.21349 0.0
C2197 C 0.43584 0.9922 0.23646 0.0
C2198 C 0.45694 0.04979 0.20199 0.0
C2199 C 0.44379 0.96325 0.20235 0.0
C2200 C 0.47132 0.99728 0.14096 0.0
C2201 C 0.49452 0.99951 0.14677 0.0
C2202 C 0.45653 0.99905 0.1588 0.0
C2203 C 0.46527 1.0033 0.18291 0.0
C2204 C 0.48861 1.00508 0.18879 0.0
C2205 C 0.5029 1.00316 0.17067 0.0
C2206 C 0.43174 0.99687 0.1519 0.0
C2207 C 0.49865 1.00961 0.21432 0.0
H2208 H 0.44178 0.05069 0.24524 0.0
H2209 H 0.43184 0.97815 0.24601 0.0
H2210 H 0.47562 0.05387 0.20425 0.0
H2211 H 0.45164 0.04588 0.18266 0.0
H2212 H 0.45069 0.06537 0.2103 0.0
H2213 H 0.43272 0.95046 0.21045 0.0
H2214 H 0.43888 0.95977 0.18294 0.0
H2215 H 0.46134 0.96067 0.20501 0.0
H2216 H 0.46475 0.99431 0.12247 0.0
H2217 H 0.52084 1.00535 0.1753 0.0
H2218 H 0.4269 1.0139 0.15726 0.0
H2219 H 0.42161 0.98461 0.16133 0.0
H2220 H 0.4273 0.9909 0.13246 0.0
H2221 H 0.49543 0.0263 0.22396 0.0
H2222 H 0.5171 1.01027 0.21579 0.0
H2223 H 0.4906 0.99585 0.22341 0.0
C2224 C 0.80346 0.73857 0.94161 0.0
C2225 C 0.79151 0.71635 0.94218 0.0
C2226 C 0.80677 0.74596 0.9199 0.0
C2227 C 0.79717 0.73115 0.89816 0.0
C2228 C 0.78442 0.70897 0.89875 0.0
C2229 C 0.78217 0.70166 0.92067 0.0
C2230 C 0.82106 0.76945 0.9202 0.0
C2231 C 0.77306 0.69294 0.87624 0.0
C2232 C 0.78998 0.76097 0.84545 0.0
C2233 C 0.8075 0.75549 0.83203 0.0
C2234 C 0.78596 0.75252 0.86645 0.0
C2235 C 0.80039 0.73897 0.87491 0.0
C2236 C 0.81818 0.73342 0.86136 0.0
C2237 C 0.82124 0.74136 0.83984 0.0
C2238 C 0.76623 0.75814 0.87956 0.0
C2239 C 0.83441 0.71967 0.86997 0.0
H2240 H 0.811 0.74988 0.95813 0.0
H2241 H 0.7729 0.68448 0.921 0.0
H2242 H 0.83519 0.76758 0.90908 0.0
H2243 H 0.81094 0.78044 0.91243 0.0
H2244 H 0.82808 0.77852 0.93844 0.0
H2245 H 0.76261 0.6769 0.87981 0.0
H2246 H 0.76218 0.7019 0.86646 0.0
H2247 H 0.78589 0.68806 0.8644 0.0
H2248 H 0.77918 0.77172 0.83931 0.0
H2249 H 0.83485 0.73721 0.82955 0.0
H2250 H 0.77232 0.76907 0.89727 0.0
H2251 H 0.75551 0.742 0.88252 0.0
H2252 H 0.75569 0.76743 0.86975 0.0
H2253 H 0.84278 0.72871 0.88773 0.0
H2254 H 0.84754 0.7171 0.85765 0.0
H2255 H 0.82521 0.70248 0.87201 0.0
C2256 C 0.89881 0.08692 0.04618 0.0
C2257 C 0.89309 0.10499 0.03583 0.0
C2258 C 0.91995 0.07985 0.04351 0.0
C2259 C 0.93594 0.09048 0.02958 0.0
C2260 C 0.93001 0.10847 0.01888 0.0
C2261 C 0.90914 0.11556 0.02233 0.0
C2262 C 0.92531 0.06106 0.05589 0.0
C2263 C 0.94575 0.12024 1.00345 0.0
C2264 C 0.99979 0.08856 0.03705 0.0
C2265 C 1.00218 0.07031 0.01869 0.0
C2266 C 0.97858 0.09481 0.04108 0.0
C2267 C 0.95876 0.08309 0.02615 0.0
C2268 C 0.96113 0.06487 1.00737 0.0
C2269 C 0.98246 0.05855 1.00414 0.0
C2270 C 0.97735 0.11388 0.06173 0.0
C2271 C 0.94104 0.05202 0.99046 0.0
H2272 H 0.88688 0.0785 0.05669 0.0
H2273 H 0.90522 0.12937 0.01396 0.0
H2274 H 0.92812 0.04621 0.04262 0.0
H2275 H 0.94112 0.06758 0.06782 0.0
H2276 H 0.91165 0.05481 0.06654 0.0
H2277 H 0.93855 0.13331 0.99563 0.0
H2278 H 0.96188 0.12893 0.01404 0.0
H2279 H 0.94965 0.10719 0.98881 0.0
H2280 H 1.01451 0.09763 0.04888 0.0
H2281 H 0.98369 0.04432 0.99001 0.0
H2282 H 0.96491 0.10738 0.07353 0.0
H2283 H 0.97148 0.12832 0.05517 0.0
H2284 H 0.99386 0.12075 0.07237 0.0
H2285 H 0.92796 0.04346 1.00038 0.0
H2286 H 0.94548 0.03869 0.97644 0.0
H2287 H 0.9335 0.06438 0.98181 0.0
C2288 C 0.39958 0.4435 0.04036 0.0
C2289 C 0.40187 0.42098 0.04226 0.0
C2290 C 0.41855 0.46101 0.04042 0.0
C2291 C 0.44047 0.45612 0.04299 0.0
C2292 C 0.44289 0.4337 0.04609 0.0
C2293 C 0.42363 0.41638 0.04539 0.0
C2294 C 0.4151 0.48444 0.03654 0.0
C2295 C 0.46588 0.42777 0.04937 0.0
C2296 C 0.48814 0.48866 0.01457 0.0
C2297 C 0.50004 0.505 0.03392 0.0
C2298 C 0.46853 0.47321 0.01726 0.0
C2299 C 0.46069 0.47357 0.04001 0.0
C2300 C 0.4725 0.49017 0.05966 0.0
C2301 C 0.49189 0.50589 0.05633 0.0
C2302 C 0.45633 0.45626 0.99567 0.0
C2303 C 0.46501 0.49085 0.08429 0.0
H2304 H 0.38288 0.44723 0.03781 0.0
H2305 H 0.42562 0.39912 0.04711 0.0
H2306 H 0.42529 0.49833 0.05046 0.0
H2307 H 0.42089 0.48732 0.01917 0.0
H2308 H 0.39717 0.48609 0.03665 0.0
H2309 H 0.465 0.41052 0.05423 0.0
H2310 H 0.47412 0.42776 0.03266 0.0
H2311 H 0.47674 0.441 0.06341 0.0
H2312 H 0.49419 0.48796 0.99714 0.0
H2313 H 0.5011 0.51831 0.07138 0.0
H2314 H 0.43836 0.45771 0.99381 0.0
H2315 H 0.45683 0.43833 0.99782 0.0
H2316 H 0.46381 0.45912 0.97902 0.0
H2317 H 0.4472 0.49285 0.08432 0.0
H2318 H 0.4755 0.5052 0.09756 0.0
H2319 H 0.46598 0.47425 0.08991 0.0
C2320 C 0.41776 0.65266 0.7849 0.0
C2321 C 0.40771 0.62996 0.77224 0.0
C2322 C 0.40713 0.67287 0.78636 0.0
C2323 C 0.38533 0.67212 0.77431 0.0
C2324 C 0.37532 0.64929 0.76108 0.0
C2325 C 0.38603 0.62924 0.76061 0.0
C2326 C 0.41975 0.6953 0.80134 0.0
C2327 C 0.35286 0.64552 0.74682 0.0
C2328 C 0.34312 0.71738 0.7891 0.0
C2329 C 0.35066 0.7365 0.77797 0.0
C2330 C 0.35401 0.69744 0.78849 0.0
C2331 C 0.37333 0.69453 0.77559 0.0
C2332 C 0.38073 0.71364 0.76388 0.0
C2333 C 0.36995 0.73374 0.76551 0.0
C2334 C 0.34428 0.67936 0.80216 0.0
C2335 C 0.40021 0.71322 0.74889 0.0
H2336 H 0.43423 0.65477 0.79434 0.0
H2337 H 0.37717 0.61266 0.75056 0.0
H2338 H 0.43024 0.70512 0.78998 0.0
H2339 H 0.40816 0.70615 0.80945 0.0
H2340 H 0.43119 0.6922 0.81574 0.0
H2341 H 0.35172 0.63184 0.7307 0.0
H2342 H 0.33938 0.63954 0.75777 0.0
H2343 H 0.34965 0.66153 0.74125 0.0
H2344 H 0.32842 0.71795 0.79883 0.0
H2345 H 0.37665 0.74734 0.75624 0.0
H2346 H 0.35695 0.66965 0.80768 0.0
H2347 H 0.33028 0.66696 0.7908 0.0
H2348 H 0.33719 0.68735 0.81826 0.0
H2349 H 0.41561 0.72403 0.75941 0.0
H2350 H 0.39724 0.72083 0.73299 0.0
H2351 H 0.40328 0.69549 0.74289 0.0
C2352 C 0.24166 0.60751 0.55224 0.0
C2353 C 0.25411 0.60144 0.53299 0.0
C2354 C 0.21809 0.5995 0.55123 0.0
C2355 C 0.20606 0.58498 0.53034 0.0
C2356 C 0.21868 0.57802 0.51114 0.0
C2357 C 0.24233 0.58646 0.51259 0.0
C2358 C 0.20583 0.6078 0.57217 0.0
C2359 C 0.20703 0.56264 0.48842 0.0
C2360 C 0.14523 0.55319 0.53494 0.0
C2361 C 0.13177 0.56743 0.52645 0.0
C2362 C 0.16913 0.5584 0.53594 0.0
C2363 C 0.18034 0.57838 0.52824 0.0
C2364 C 0.16682 0.5926 0.51929 0.0
C2365 C 0.14299 0.58704 0.51856 0.0
C2366 C 0.18245 0.54244 0.54536 0.0
C2367 C 0.17755 0.61398 0.51064 0.0
H2368 H 0.25026 0.61977 0.56774 0.0
H2369 H 0.25138 0.58237 0.49719 0.0
H2370 H 0.19455 0.61909 0.56699 0.0
H2371 H 0.19512 0.59291 0.57762 0.0
H2372 H 0.21755 0.61768 0.58769 0.0
H2373 H 0.2192 0.55601 0.47661 0.0
H2374 H 0.19508 0.54773 0.49234 0.0
H2375 H 0.19716 0.57254 0.4787 0.0
H2376 H 0.13708 0.5379 0.54095 0.0
H2377 H 0.1331 0.5982 0.51172 0.0
H2378 H 0.19346 0.55196 0.56151 0.0
H2379 H 0.19355 0.53632 0.53198 0.0
H2380 H 0.17145 0.52718 0.54988 0.0
H2381 H 0.18809 0.62641 0.52556 0.0
H2382 H 0.16488 0.62268 0.50315 0.0
H2383 H 0.18879 0.60944 0.49677 0.0
C2384 C 0.75081 1.00836 0.745 0.0
C2385 C 0.72819 1.00445 0.74974 0.0
C2386 C 0.76445 0.99246 0.74828 0.0
C2387 C 0.75504 0.97192 0.7559 0.0
C2388 C 0.73181 0.96712 0.75905 0.0
C2389 C 0.71869 0.98363 0.75624 0.0
C2390 C 0.78923 0.99839 0.74517 0.0
C2391 C 0.72105 0.94504 0.76646 0.0
C2392 C 0.78754 0.92322 0.75157 0.0
C2393 C 0.79577 0.9252 0.7754 0.0
C2394 C 0.77429 0.93831 0.7449 0.0
C2395 C 0.76979 0.95633 0.76233 0.0
C2396 C 0.779 0.95923 0.78616 0.0
C2397 C 0.79165 0.94347 0.79247 0.0
C2398 C 0.7645 0.9345 0.71938 0.0
C2399 C 0.77498 0.97863 0.80515 0.0
H2400 H 0.75826 0.02454 0.74014 0.0
H2401 H 0.70117 0.98053 0.75979 0.0
H2402 H 0.79912 1.00162 0.76273 0.0
H2403 H 0.7946 0.98374 0.73378 0.0
H2404 H 0.79348 1.01401 0.73717 0.0
H2405 H 0.70242 0.94274 0.76545 0.0
H2406 H 0.72557 0.92987 0.75503 0.0
H2407 H 0.72745 0.94525 0.78501 0.0
H2408 H 0.79109 0.90954 0.7381 0.0
H2409 H 0.79766 0.94505 0.81094 0.0
H2410 H 0.76941 0.9504 0.71206 0.0
H2411 H 0.74585 0.93068 0.71851 0.0
H2412 H 0.77004 0.91998 0.70787 0.0
H2413 H 0.7797 0.99546 0.79946 0.0
H2414 H 0.7847 0.97951 0.82241 0.0
H2415 H 0.75683 0.97617 0.80788 0.0
C2416 C 0.75791 0.90476 0.54034 0.0
C2417 C 0.77945 0.91775 0.54878 0.0
C2418 C 0.73959 0.91563 0.53711 0.0
C2419 C 0.74293 0.94009 0.54223 0.0
C2420 C 0.76434 0.95321 0.55204 0.0
C2421 C 0.78231 0.94188 0.55529 0.0
C2422 C 0.71697 0.90097 0.52697 0.0
C2423 C 0.76865 0.97931 0.55774 0.0
C2424 C 0.70649 0.96906 0.50568 0.0
C2425 C 0.69143 0.97611 0.52177 0.0
C2426 C 0.72314 0.95723 0.51211 0.0
C2427 C 0.72475 0.95202 0.53517 0.0
C2428 C 0.70934 0.95861 0.55138 0.0
C2429 C 0.69294 0.97065 0.54453 0.0
C2430 C 0.73921 0.95052 0.49425 0.0
C2431 C 0.71038 0.95322 0.57604 0.0
H2432 H 0.75551 0.8861 0.53537 0.0
H2433 H 0.79888 0.95207 0.56183 0.0
H2434 H 0.70347 0.9065 0.53745 0.0
H2435 H 0.71321 0.90329 0.50852 0.0
H2436 H 0.71643 0.88229 0.52667 0.0
H2437 H 0.78555 0.98687 0.56732 0.0
H2438 H 0.76743 0.98601 0.54101 0.0
H2439 H 0.75573 0.98541 0.56875 0.0
H2440 H 0.70522 0.97274 0.48791 0.0
H2441 H 0.68158 0.9762 0.55721 0.0
H2442 H 0.73813 0.93152 0.49089 0.0
H2443 H 0.75676 0.95871 0.50146 0.0
H2444 H 0.73569 0.95579 0.47705 0.0
H2445 H 0.70951 0.93442 0.57503 0.0
H2446 H 0.6965 0.95849 0.58612 0.0
H2447 H 0.72666 0.96231 0.58611 0.0
C2448 C 0.4108 0.48074 0.79133 0.0
C2449 C 0.40949 0.49241 0.77199 0.0
C2450 C 0.39889 0.45758 0.79094 0.0
C2451 C 0.38521 0.44406 0.77032 0.0
C2452 C 0.38368 0.45569 0.75064 0.0
C2453 C 0.39546 0.47924 0.75171 0.0
C2454 C 0.40135 0.44737 0.81287 0.0
C2455 C 0.37009 0.44284 0.72784 0.0
C2456 C 0.37312 0.37545 0.76369 0.0
C2457 C 0.35079 0.36948 0.76982 0.0
C2458 C 0.38401 0.39891 0.76324 0.0
C2459 C 0.37305 0.41812 0.76948 0.0
C2460 C 0.35056 0.4122 0.77579 0.0
C2461 C 0.33992 0.38857 0.77566 0.0
C2462 C 0.40761 0.40312 0.75595 0.0
C2463 C 0.33762 0.43109 0.78318 0.0
H2464 H 0.4217 0.48982 0.8071 0.0
H2465 H 0.39444 0.48695 0.73611 0.0
H2466 H 0.38451 0.44046 0.81806 0.0
H2467 H 0.41022 0.43268 0.80907 0.0
H2468 H 0.41091 0.46022 0.82814 0.0
H2469 H 0.36983 0.45384 0.71423 0.0
H2470 H 0.37725 0.42756 0.72057 0.0
H2471 H 0.35253 0.43634 0.73131 0.0
H2472 H 0.38226 0.36161 0.75902 0.0
H2473 H 0.32287 0.38511 0.78061 0.0
H2474 H 0.41928 0.41378 0.7711 0.0
H2475 H 0.40839 0.41296 0.7413 0.0
H2476 H 0.4136 0.38676 0.75005 0.0
H2477 H 0.34688 0.44351 0.7989 0.0
H2478 H 0.32046 0.42424 0.78764 0.0
H2479 H 0.33614 0.44087 0.76869 0.0
C2480 C 0.23454 0.61647 0.25086 0.0
C2481 C 0.2208 0.61951 0.26956 0.0
C2482 C 0.24804 0.63546 0.24425 0.0
C2483 C 0.24793 0.65799 0.25675 0.0
C2484 C 0.23446 0.66118 0.27592 0.0
C2485 C 0.22095 0.64189 0.28201 0.0
C2486 C 0.26217 0.63146 0.22372 0.0
C2487 C 0.23419 0.68501 0.2899 0.0
C2488 C 0.29375 0.71014 0.25753 0.0
C2489 C 0.2825 0.72259 0.24402 0.0
C2490 C 0.2833 0.68811 0.26056 0.0
C2491 C 0.26131 0.67846 0.2495 0.0
C2492 C 0.25093 0.69011 0.23389 0.0
C2493 C 0.26157 0.7123 0.23163 0.0
C2494 C 0.29483 0.67638 0.27754 0.0
C2495 C 0.2277 0.68019 0.22139 0.0
H2496 H 0.23453 0.59923 0.24109 0.0
H2497 H 0.21056 0.64436 0.2966 0.0
H2498 H 0.2569 0.64018 0.20944 0.0
H2499 H 0.28012 0.63915 0.22958 0.0
H2500 H 0.26074 0.61279 0.21616 0.0
H2501 H 0.22357 0.68444 0.30496 0.0
H2502 H 0.25154 0.69398 0.29705 0.0
H2503 H 0.22767 0.69554 0.27806 0.0
H2504 H 0.30972 0.71851 0.26758 0.0
H2505 H 0.2528 0.72228 0.22157 0.0
H2506 H 0.29285 0.6576 0.27032 0.0
H2507 H 0.28694 0.67828 0.29453 0.0
H2508 H 0.31306 0.68405 0.28142 0.0
H2509 H 0.22615 0.66161 0.21345 0.0
H2510 H 0.2236 0.68954 0.20717 0.0
H2511 H 0.21504 0.68148 0.23447 0.0
C2512 C 0.5347 0.75962 0.46671 0.0
C2513 C 0.5189 0.7732 0.47387 0.0
C2514 C 0.54132 0.74479 0.4809 0.0
C2515 C 0.53184 0.7435 0.50266 0.0
C2516 C 0.51549 0.75669 0.5097 0.0
C2517 C 0.50921 0.77138 0.49523 0.0
C2518 C 0.55876 0.7308 0.47281 0.0
C2519 C 0.50491 0.75557 0.5327 0.0
C2520 C 0.53744 0.69016 0.52712 0.0
C2521 C 0.55713 0.69821 0.54271 0.0
C2522 C 0.52835 0.705 0.51478 0.0
C2523 C 0.53925 0.72844 0.51812 0.0
C2524 C 0.55818 0.73706 0.53506 0.0
C2525 C 0.56691 0.7218 0.5472 0.0
C2526 C 0.50805 0.69521 0.49695 0.0
C2527 C 0.57002 0.76207 0.53928 0.0
H2528 H 0.5423 0.76095 0.4503 0.0
H2529 H 0.49684 0.78166 0.50087 0.0
H2530 H 0.57379 0.73566 0.48598 0.0
H2531 H 0.55197 0.71212 0.47169 0.0
H2532 H 0.56415 0.73344 0.4552 0.0
H2533 H 0.49194 0.76647 0.53527 0.0
H2534 H 0.49698 0.73745 0.5331 0.0
H2535 H 0.51807 0.76142 0.54793 0.0
H2536 H 0.52998 0.67187 0.52323 0.0
H2537 H 0.58203 0.72809 0.55937 0.0
H2538 H 0.51324 0.69462 0.4787 0.0
H2539 H 0.49535 0.70641 0.49917 0.0
H2540 H 0.49999 0.67743 0.49858 0.0
H2541 H 0.57813 0.76563 0.52318 0.0
H2542 H 0.58316 0.76648 0.55458 0.0
H2543 H 0.55776 0.77366 0.54259 0.0
C2544 C 0.64817 0.31666 0.69935 0.0
C2545 C 0.65442 0.32449 0.67863 0.0
C2546 C 0.66429 0.31751 0.71811 0.0
C2547 C 0.68713 0.3264 0.71601 0.0
C2548 C 0.69313 0.33684 0.69646 0.0
C2549 C 0.67666 0.33575 0.67791 0.0
C2550 C 0.65718 0.30657 0.73887 0.0
C2551 C 0.71733 0.34696 0.6939 0.0
C2552 C 0.73408 0.32946 0.76394 0.0
C2553 C 0.74227 0.30966 0.75468 0.0
C2554 C 0.71542 0.33493 0.75208 0.0
C2555 C 0.70488 0.32002 0.73084 0.0
C2556 C 0.71229 0.2992 0.72248 0.0
C2557 C 0.73104 0.29441 0.73443 0.0
C2558 C 0.70799 0.35726 0.76146 0.0
C2559 C 0.70119 0.2825 0.70019 0.0
H2560 H 0.63087 0.3085 0.70037 0.0
H2561 H 0.68156 0.34226 0.66218 0.0
H2562 H 0.66103 0.28893 0.73633 0.0
H2563 H 0.66655 0.31665 0.75577 0.0
H2564 H 0.63884 0.30509 0.74046 0.0
H2565 H 0.7187 0.3579 0.68016 0.0
H2566 H 0.72577 0.3575 0.71104 0.0
H2567 H 0.72653 0.33271 0.68869 0.0
H2568 H 0.74302 0.34131 0.77954 0.0
H2569 H 0.73741 0.279 0.72749 0.0
H2570 H 0.68937 0.35488 0.7599 0.0
H2571 H 0.71443 0.3703 0.75077 0.0
H2572 H 0.71454 0.36426 0.78033 0.0
H2573 H 0.6828 0.27774 0.70127 0.0
H2574 H 0.70811 0.26639 0.69713 0.0
H2575 H 0.7037 0.29086 0.68456 0.0
C2576 C 1.01414 0.37766 0.97323 0.0
C2577 C 0.02126 0.37562 0.95032 0.0
C2578 C 1.01516 0.39944 0.98751 0.0
C2579 C 0.02377 0.41951 0.97868 0.0
C2580 C 0.02956 0.41754 0.955 0.0
C2581 C 0.0281 0.39554 0.94102 0.0
C2582 C 1.00838 0.40092 0.0125 0.0
C2583 C 0.03883 0.43861 0.94499 0.0
C2584 C 0.02061 0.47986 1.01025 0.0
C2585 C 0.0424 0.48744 0.02189 0.0
C2586 C 1.01388 0.45739 0.9968 0.0
C2587 C 0.02938 0.44231 0.99495 0.0
C2588 C 0.05102 0.44951 1.00755 0.0
C2589 C 0.05724 0.47198 0.02094 0.0
C2590 C 0.9906 0.45017 0.98376 0.0
C2591 C 0.068 0.43385 1.00603 0.0
H2592 H 1.00855 0.36223 0.98035 0.0
H2593 H 0.03351 0.394 0.92326 0.0
H2594 H 0.02367 0.40629 0.02532 0.0
H2595 H 0.99782 0.41416 0.01653 0.0
H2596 H 0.99897 0.38409 0.01539 0.0
H2597 H 0.04043 0.43423 0.92563 0.0
H2598 H 0.02787 0.45157 0.9481 0.0
H2599 H 0.05571 0.44685 0.95422 0.0
H2600 H 1.00902 0.4917 1.01096 0.0
H2601 H 0.07406 0.47765 0.02999 0.0
H2602 H 0.98239 0.43291 0.98668 0.0
H2603 H 0.99184 0.44873 0.96439 0.0
H2604 H 0.97969 0.46276 0.98944 0.0
H2605 H 0.06072 0.41721 1.01102 0.0
H2606 H 0.08373 0.44176 0.01776 0.0
H2607 H 0.07237 0.42988 0.98746 0.0
C2608 C 0.02025 0.76195 0.14532 0.0
C2609 C 0.0409 0.76269 0.15806 0.0
C2610 C 0.99998 0.7565 0.15536 0.0
C2611 C 1.00051 0.75138 0.17845 0.0
C2612 C 0.02103 0.74907 0.18994 0.0
C2613 C 0.0411 0.75494 0.17964 0.0
C2614 C 0.97844 0.75905 0.14244 0.0
C2615 C 0.02217 0.743 0.2143 0.0
C2616 C 0.9622 0.77798 0.2198 0.0
C2617 C 0.94518 0.75898 0.22032 0.0
C2618 C 0.98007 0.77566 0.20594 0.0
C2619 C 0.98107 0.75367 0.19248 0.0
C2620 C 0.96381 0.73438 0.19275 0.0
C2621 C 0.94589 0.73731 0.20662 0.0
C2622 C 0.99795 0.79679 0.20581 0.0
C2623 C 0.96451 0.71069 0.17882 0.0
H2624 H 0.01997 0.76762 0.12844 0.0
H2625 H 0.05702 0.75505 0.18934 0.0
H2626 H 0.96415 0.74542 0.14464 0.0
H2627 H 0.97437 0.77603 0.15005 0.0
H2628 H 0.97998 0.7583 0.12316 0.0
H2629 H 0.0381 0.73726 0.21853 0.0
H2630 H 0.02125 0.75845 0.22784 0.0
H2631 H 1.00777 0.72914 0.21573 0.0
H2632 H 0.96141 0.79478 0.23017 0.0
H2633 H 0.93269 0.72261 0.20717 0.0
H2634 H 0.99947 0.79957 0.18735 0.0
H2635 H 1.01452 0.79416 0.21284 0.0
H2636 H 0.99423 0.81271 0.21671 0.0
H2637 H 0.96685 0.71145 0.15997 0.0
H2638 H 0.94895 0.69789 0.17953 0.0
H2639 H 0.97911 0.70446 0.18609 0.0
C2640 C 0.53496 0.32143 0.09361 0.0
C2641 C 0.52116 0.32573 0.11191 0.0
C2642 C 0.5421 0.33809 0.08004 0.0
C2643 C 0.53467 0.35934 0.0844 0.0
C2644 C 0.52066 0.36384 0.10285 0.0
C2645 C 0.51433 0.34705 0.11669 0.0
C2646 C 0.55755 0.33289 0.06098 0.0
C2647 C 0.51202 0.38616 0.10761 0.0
C2648 C 0.5679 0.40954 0.06156 0.0
C2649 C 0.55536 0.40825 0.03996 0.0
C2650 C 0.56131 0.39375 0.0763 0.0
C2651 C 0.54149 0.37665 0.06936 0.0
C2652 C 0.52872 0.37542 0.04753 0.0
C2653 C 0.53593 0.39123 0.03297 0.0
C2654 C 0.57552 0.39538 0.09926 0.0
C2655 C 0.50734 0.35762 0.03973 0.0
H2656 H 0.54047 0.30509 0.08997 0.0
H2657 H 0.50354 0.3503 0.13077 0.0
H2658 H 0.54909 0.3328 0.0433 0.0
H2659 H 0.57297 0.3466 0.06391 0.0
H2660 H 0.5626 0.31593 0.0606 0.0
H2661 H 0.50122 0.38695 0.12256 0.0
H2662 H 0.52632 0.40111 0.11182 0.0
H2663 H 0.50211 0.38804 0.09145 0.0
H2664 H 0.58273 0.42309 0.06697 0.0
H2665 H 0.52608 0.39074 0.01644 0.0
H2666 H 0.58137 0.37889 0.09933 0.0
H2667 H 0.56532 0.39814 0.11452 0.0
H2668 H 0.59045 0.4097 0.10201 0.0
H2669 H 0.51109 0.33996 0.03763 0.0
H2670 H 0.49899 0.3595 0.02264 0.0
H2671 H 0.49538 0.35916 0.05352 0.0
C2672 C 0.05293 0.32066 0.37602 0.0
C2673 C 0.05523 0.3363 0.39777 0.0
C2674 C 0.03505 0.31896 0.3588 0.0
C2675 C 0.01903 0.33322 0.36346 0.0
C2676 C 0.02087 0.34861 0.38559 0.0
C2677 C 0.03896 0.34998 0.4025 0.0
C2678 C 0.03359 0.30233 0.33541 0.0
C2679 C 1.00401 0.36403 0.39118 0.0
C2680 C 0.98519 0.34759 0.31243 0.0
C2681 C 0.96436 0.3329 0.3122 0.0
C2682 C 1.00336 0.34745 0.32865 0.0
C2683 C 1.00053 0.33233 0.34503 0.0
C2684 C 0.97979 0.3169 0.34431 0.0
C2685 C 0.96195 0.31736 0.32788 0.0
C2686 C 0.02537 0.36397 0.32875 0.0
C2687 C 0.97614 0.30057 0.36155 0.0
H2688 H 0.06539 0.30998 0.37217 0.0
H2689 H 0.04066 0.36222 0.41917 0.0
H2690 H 0.017 0.29036 0.33208 0.0
H2691 H 0.03501 0.31205 0.32068 0.0
H2692 H 0.04702 0.29193 0.33487 0.0
H2693 H 1.00743 0.37449 0.4095 0.0
H2694 H 1.00436 0.37595 0.37845 0.0
H2695 H 0.98675 0.35343 0.38914 0.0
H2696 H 0.98712 0.35953 0.30024 0.0
H2697 H 0.94576 0.30626 0.32809 0.0
H2698 H 0.03938 0.35437 0.32712 0.0
H2699 H 0.02899 0.3765 0.34589 0.0
H2700 H 0.02516 0.37376 0.31408 0.0
H2701 H 0.98943 0.29005 0.36099 0.0
H2702 H 0.95946 0.28872 0.35769 0.0
H2703 H 0.97733 0.31066 0.37991 0.0
C2704 C 1.01602 0.70027 0.62703 0.0
C2705 C 0.02176 0.715 0.61097 0.0
C2706 C 0.01735 0.6767 0.62135 0.0
C2707 C 0.02495 0.66793 0.59934 0.0
C2708 C 0.02997 0.68257 0.58282 0.0
C2709 C 0.02808 0.70572 0.58873 0.0
C2710 C 1.01127 0.66143 0.63913 0.0
C2711 C 0.03804 0.67401 0.55905 0.0
C2712 C 0.05552 0.6185 0.58535 0.0
C2713 C 0.0399 0.60337 0.56811 0.0
C2714 C 0.0501 0.63888 0.59779 0.0
C2715 C 0.02841 0.64373 0.59316 0.0
C2716 C 1.01182 0.62699 0.57789 0.0
C2717 C 0.01791 0.60718 0.56515 0.0
C2718 C 0.06832 0.65634 0.61379 0.0
C2719 C 0.98828 0.63103 0.57316 0.0
H2720 H 1.01103 0.70721 0.64421 0.0
H2721 H 0.03224 0.71674 0.57595 0.0
H2722 H 1.00124 0.64434 0.63018 0.0
H2723 H 0.02688 0.65837 0.64801 0.0
H2724 H 1.00159 0.66946 0.653 0.0
H2725 H 0.04164 0.68781 0.54845 0.0
H2726 H 0.05361 0.66716 0.56174 0.0
H2727 H 0.02515 0.65967 0.5485 0.0
H2728 H 0.0725 0.6154 0.58764 0.0
H2729 H 1.00572 0.59514 0.55208 0.0
H2730 H 0.06171 0.66376 0.6304 0.0
H2731 H 0.07432 0.67078 0.60461 0.0
H2732 H 0.08292 0.64863 0.61844 0.0
H2733 H 0.98216 0.63931 0.58973 0.0
H2734 H 0.97632 0.61462 0.56549 0.0
H2735 H 0.98831 0.64284 0.56033 0.0
C2736 C 0.66094 0.80958 0.84614 0.0
C2737 C 0.66617 0.81754 0.87069 0.0
C2738 C 0.67782 0.80639 0.83108 0.0
C2739 C 0.70048 0.81096 0.84083 0.0
C2740 C 0.70593 0.81879 0.86563 0.0
C2741 C 0.68866 0.82215 0.8803 0.0
C2742 C 0.67139 0.79808 0.80471 0.0
C2743 C 0.72994 0.82341 0.87662 0.0
C2744 C 0.73915 0.7791 0.80472 0.0
C2745 C 0.7508 0.79639 0.79398 0.0
C2746 C 0.72314 0.78381 0.82041 0.0
C2747 C 0.71824 0.80626 0.8251 0.0
C2748 C 0.72962 0.82376 0.81406 0.0
C2749 C 0.74595 0.81866 0.79872 0.0
C2750 C 0.71156 0.76476 0.83206 0.0
C2751 C 0.72457 0.84784 0.81852 0.0
H2752 H 0.6436 0.80617 0.83854 0.0
H2753 H 0.69276 0.82838 0.89925 0.0
H2754 H 0.68073 0.81032 0.79469 0.0
H2755 H 0.6761 0.78105 0.79887 0.0
H2756 H 0.65307 0.79629 0.79986 0.0
H2757 H 0.73139 0.82981 0.89614 0.0
H2758 H 0.73682 0.80732 0.87309 0.0
H2759 H 0.74059 0.8364 0.86843 0.0
H2760 H 0.74299 0.7619 0.80146 0.0
H2761 H 0.75503 0.83212 0.79061 0.0
H2762 H 0.69326 0.76072 0.82632 0.0
H2763 H 0.71354 0.77049 0.85165 0.0
H2764 H 0.71832 0.74864 0.82759 0.0
H2765 H 0.70654 0.84708 0.81312 0.0
H2766 H 0.73498 0.8595 0.80865 0.0
H2767 H 0.72763 0.85545 0.83777 0.0
C2768 C 0.49867 0.55864 0.70135 0.0
C2769 C 0.47666 0.56326 0.7047 0.0
C2770 C 0.50886 0.55765 0.6793 0.0
C2771 C 0.49754 0.56139 0.6583 0.0
C2772 C 0.47542 0.5665 0.66127 0.0
C2773 C 0.46543 0.56734 0.68386 0.0
C2774 C 0.53214 0.55219 0.67855 0.0
C2775 C 0.46197 0.57084 0.64025 0.0
C2776 C 0.53526 0.5769 0.60638 0.0
C2777 C 0.5334 0.55579 0.58978 0.0
C2778 C 0.52359 0.57905 0.62771 0.0
C2779 C 0.50902 0.55974 0.6339 0.0
C2780 C 0.50699 0.53842 0.61716 0.0
C2781 C 0.51876 0.53677 0.59589 0.0
C2782 C 0.527 0.60238 0.64389 0.0
C2783 C 0.49226 0.51689 0.62181 0.0
H2784 H 0.50842 0.55548 0.7164 0.0
H2785 H 0.44858 0.57078 0.68492 0.0
H2786 H 0.5317 0.53617 0.66526 0.0
H2787 H 0.54371 0.56635 0.67286 0.0
H2788 H 0.53917 0.54981 0.69603 0.0
H2789 H 0.44573 0.57561 0.64496 0.0
H2790 H 0.47185 0.58492 0.6328 0.0
H2791 H 0.45849 0.55508 0.62607 0.0
H2792 H 0.54595 0.59215 0.60265 0.0
H2793 H 0.51643 0.5202 0.58391 0.0
H2794 H 0.53504 0.60154 0.66148 0.0
H2795 H 0.51048 0.60732 0.64682 0.0
H2796 H 0.53769 0.61609 0.6366 0.0
H2797 H 0.49868 0.51275 0.6387 0.0
H2798 H 0.49157 0.50172 0.60729 0.0
H2799 H 0.47491 0.51988 0.62389 0.0
C2800 C 0.81211 0.16369 0.9807 0.0
C2801 C 0.81826 0.14199 0.97859 0.0
C2802 C 0.80662 0.1726 0.96069 0.0
C2803 C 0.80737 0.15963 0.93773 0.0
C2804 C 0.81283 0.13734 0.93531 0.0
C2805 C 0.81822 0.12872 0.95583 0.0
C2806 C 0.80055 0.19628 0.9642 0.0
C2807 C 0.8134 0.12285 0.9111 0.0
C2808 C 0.77699 0.18356 0.89104 0.0
C2809 C 0.79461 0.19951 0.88498 0.0
C2810 C 0.78111 0.16881 0.90659 0.0
C2811 C 0.80334 0.17027 0.91664 0.0
C2812 C 0.82134 0.18518 0.90927 0.0
C2813 C 0.81677 0.19957 0.89352 0.0
C2814 C 0.76134 0.15294 0.91343 0.0
C2815 C 0.84532 0.18725 0.9194 0.0
H2816 H 0.81198 0.17409 0.99815 0.0
H2817 H 0.82293 0.11194 0.95405 0.0
H2818 H 0.81302 0.20824 0.95662 0.0
H2819 H 0.78383 0.19525 0.95469 0.0
H2820 H 0.80006 0.20383 0.98325 0.0
H2821 H 0.81679 0.10544 0.91217 0.0
H2822 H 0.79711 0.12078 0.9003 0.0
H2823 H 0.82666 0.13175 0.90162 0.0
H2824 H 0.75984 0.18305 0.88417 0.0
H2825 H 0.8305 0.21186 0.88902 0.0
H2826 H 0.75477 0.16222 0.92918 0.0
H2827 H 0.76607 0.13712 0.91801 0.0
H2828 H 0.74756 0.14771 0.89878 0.0
H2829 H 0.84745 0.19648 0.93819 0.0
H2830 H 0.8576 0.19693 0.90943 0.0
H2831 H 0.84933 0.16988 0.91919 0.0
C2832 C 0.1484 0.52534 0.20146 0.0
C2833 C 0.1415 0.53749 0.22206 0.0
C2834 C 0.13655 0.52327 0.17916 0.0
C2835 C 0.11768 0.53395 0.17749 0.0
C2836 C 0.10961 0.54456 0.19838 0.0
C2837 C 0.12145 0.54596 0.22041 0.0
C2838 C 0.1452 0.51113 0.15727 0.0
C2839 C 0.0897 0.5564 0.19739 0.0
C2840 C 0.10968 0.56088 0.12368 0.0
C2841 C 0.09037 0.54619 0.11129 0.0
C2842 C 0.11874 0.55693 0.14519 0.0
C2843 C 0.10862 0.53737 0.15411 0.0
C2844 C 0.08937 0.52214 0.14137 0.0
C2845 C 0.08021 0.52696 0.1202 0.0
C2846 C 0.13892 0.57397 0.15856 0.0
C2847 C 0.07859 0.50076 0.15 0.0
H2848 H 0.16365 0.51841 0.20255 0.0
H2849 H 0.11571 0.55512 0.23619 0.0
H2850 H 0.13106 0.50025 0.14478 0.0
H2851 H 0.15418 0.52418 0.1479 0.0
H2852 H 0.15704 0.50008 0.16176 0.0
H2853 H 0.08391 0.56136 0.21523 0.0
H2854 H 0.09449 0.5723 0.19 0.0
H2855 H 0.0754 0.54508 0.18551 0.0
H2856 H 0.11747 0.57577 0.11673 0.0
H2857 H 0.06547 0.5154 0.11033 0.0
H2858 H 0.15316 0.56505 0.1609 0.0
H2859 H 0.1348 0.5813 0.17654 0.0
H2860 H 0.14455 0.58845 0.14928 0.0
H2861 H 0.09127 0.48996 0.15243 0.0
H2862 H 0.06431 0.49016 0.13747 0.0
H2863 H 0.07234 0.50569 0.16756 0.0
C2864 C 0.83025 0.87922 0.45785 0.0
C2865 C 0.83104 0.86568 0.47532 0.0
C2866 C 0.82761 0.86919 0.43353 0.0
C2867 C 0.82558 0.84495 0.42639 0.0
C2868 C 0.82662 0.83121 0.44394 0.0
C2869 C 0.82942 0.84173 0.46817 0.0
C2870 C 0.82684 0.88453 0.41544 0.0
C2871 C 0.8245 0.80533 0.43712 0.0
C2872 C 0.79868 0.81774 0.36348 0.0
C2873 C 0.81763 0.81583 0.35098 0.0
C2874 C 0.80097 0.82675 0.38809 0.0
C2875 C 0.82272 0.83412 0.40054 0.0
C2876 C 0.84186 0.83183 0.3881 0.0
C2877 C 0.8391 0.82271 0.36357 0.0
C2878 C 0.7801 0.82879 0.40068 0.0
C2879 C 0.86536 0.83949 0.4006 0.0
H2880 H 0.83149 0.89773 0.46319 0.0
H2881 H 0.82991 0.83111 0.48153 0.0
H2882 H 0.84038 0.88264 0.40353 0.0
H2883 H 0.81058 0.87918 0.40417 0.0
H2884 H 0.82885 0.90307 0.42386 0.0
H2885 H 0.82566 0.79707 0.45287 0.0
H2886 H 0.80814 0.79755 0.42653 0.0
H2887 H 0.83794 0.80122 0.42577 0.0
H2888 H 0.78202 0.8125 0.354 0.0
H2889 H 0.8539 0.82135 0.3542 0.0
H2890 H 0.78018 0.84724 0.40797 0.0
H2891 H 0.77993 0.81971 0.41591 0.0
H2892 H 0.7644 0.82145 0.38872 0.0
H2893 H 0.86858 0.85835 0.40792 0.0
H2894 H 0.87847 0.83587 0.38857 0.0
H2895 H 0.86707 0.83062 0.41578 0.0
C2896 C 0.4904 0.57039 0.8398 0.0
C2897 C 0.46659 0.56683 0.83589 0.0
C2898 C 0.50215 0.56828 0.86167 0.0
C2899 C 0.49043 0.56151 0.88096 0.0
C2900 C 0.46635 0.55749 0.87695 0.0
C2901 C 0.45501 0.56051 0.85518 0.0
C2902 C 0.52751 0.57371 0.8642 0.0
C2903 C 0.45228 0.5496 0.89576 0.0
C2904 C 0.52282 0.53582 0.92925 0.0
C2905 C 0.52748 0.55365 0.94982 0.0
C2906 C 0.51072 0.53791 0.90753 0.0
C2907 C 0.50318 0.55874 0.9049 0.0
C2908 C 0.50824 0.57694 0.92548 0.0
C2909 C 0.51964 0.57409 0.94725 0.0
C2910 C 0.50566 0.51736 0.88729 0.0
C2911 C 0.50181 0.5999 0.92449 0.0
H2912 H 0.50012 0.57535 0.8257 0.0
H2913 H 0.43679 0.55743 0.85313 0.0
H2914 H 0.53378 0.58681 0.8806 0.0
H2915 H 0.53407 0.55793 0.86596 0.0
H2916 H 0.53447 0.58033 0.84876 0.0
H2917 H 0.43402 0.54528 0.88972 0.0
H2918 H 0.45743 0.53414 0.90087 0.0
H2919 H 0.45512 0.56338 0.91192 0.0
H2920 H 0.52824 0.51973 0.93023 0.0
H2921 H 0.52279 0.58833 0.96236 0.0
H2922 H 0.51464 0.52156 0.87192 0.0
H2923 H 0.48738 0.51317 0.88141 0.0
H2924 H 0.51076 0.50182 0.89225 0.0
H2925 H 0.50845 0.60652 0.90893 0.0
H2926 H 0.50828 0.61304 0.94083 0.0
H2927 H 0.48322 0.59772 0.92218 0.0
C2928 C 0.85406 0.20117 0.10819 0.0
C2929 C 0.84382 0.17764 0.10368 0.0
C2930 C 0.85215 0.21605 0.12955 0.0
C2931 C 0.83985 0.20726 0.14721 0.0
C2932 C 0.83125 0.18308 0.14372 0.0
C2933 C 0.83319 0.16856 0.12191 0.0
C2934 C 0.86171 0.24157 0.13229 0.0
C2935 C 0.81857 0.17277 0.16228 0.0
C2936 C 0.84618 0.2485 0.20736 0.0
C2937 C 0.82674 0.25811 0.20632 0.0
C2938 C 0.85017 0.23127 0.18884 0.0
C2939 C 0.83469 0.22376 0.16827 0.0
C2940 C 0.81494 0.23332 0.16715 0.0
C2941 C 0.81104 0.25008 0.1863 0.0
C2942 C 0.87101 0.22112 0.19132 0.0
C2943 C 0.79811 0.22616 0.14546 0.0
H2944 H 0.86201 0.20839 0.09406 0.0
H2945 H 0.82477 0.15055 0.11844 0.0
H2946 H 0.84774 0.25121 0.13219 0.0
H2947 H 0.87209 0.24818 0.14954 0.0
H2948 H 0.87224 0.24542 0.1178 0.0
H2949 H 0.81631 0.15361 0.15881 0.0
H2950 H 0.82747 0.17982 0.18026 0.0
H2951 H 0.80169 0.17742 0.16231 0.0
H2952 H 0.8582 0.25413 0.22299 0.0
H2953 H 0.79589 0.2572 0.18542 0.0
H2954 H 0.8821 0.22516 0.17737 0.0
H2955 H 0.8663 0.20201 0.18876 0.0
H2956 H 0.88071 0.22785 0.20897 0.0
H2957 H 0.80638 0.23037 0.12965 0.0
H2958 H 0.78349 0.23489 0.1474 0.0
H2959 H 0.79186 0.20718 0.142 0.0
C2960 C 0.18847 0.55729 0.34962 0.0
C2961 C 0.20377 0.56816 0.33605 0.0
C2962 C 0.18264 0.56954 0.37063 0.0
C2963 C 0.19205 0.59344 0.37787 0.0
C2964 C 0.2093 0.60388 0.36545 0.0
C2965 C 0.21501 0.59101 0.34451 0.0
C2966 C 0.16451 0.55743 0.38351 0.0
C2967 C 0.22032 0.62906 0.37271 0.0
C2968 C 0.14427 0.61873 0.40163 0.0
C2969 C 0.14693 0.61634 0.4254 0.0
C2970 C 0.16081 0.61455 0.38636 0.0
C2971 C 0.18028 0.60755 0.39505 0.0
C2972 C 0.18462 0.60867 0.41971 0.0
C2973 C 0.16781 0.61301 0.43468 0.0
C2974 C 0.15607 0.6147 0.36029 0.0
C2975 C 0.20587 0.60281 0.42986 0.0
H2976 H 0.17986 0.53957 0.34288 0.0
H2977 H 0.22675 0.59942 0.33377 0.0
H2978 H 0.16967 0.56088 0.40286 0.0
H2979 H 0.14882 0.56411 0.38093 0.0
H2980 H 0.16068 0.5384 0.37697 0.0
H2981 H 0.23868 0.6313 0.37095 0.0
H2982 H 0.21323 0.63902 0.3606 0.0
H2983 H 0.21772 0.63646 0.39121 0.0
H2984 H 0.12838 0.62158 0.39428 0.0
H2985 H 0.17036 0.61208 0.45329 0.0
H2986 H 0.15148 0.59663 0.3502 0.0
H2987 H 0.17127 0.62336 0.35326 0.0
H2988 H 0.14202 0.62366 0.35699 0.0
H2989 H 0.20413 0.58374 0.42695 0.0
H2990 H 0.20923 0.60977 0.44927 0.0
H2991 H 0.22054 0.60974 0.42083 0.0
C2992 C 0.84241 0.83638 0.60631 0.0
C2993 C 0.8317 0.85291 0.59831 0.0
C2994 C 0.83723 0.82844 0.62732 0.0
C2995 C 0.82067 0.83695 0.64077 0.0
C2996 C 0.80973 0.85362 0.63285 0.0
C2997 C 0.81545 0.8615 0.61184 0.0
C2998 C 0.84967 0.81101 0.63521 0.0
C2999 C 0.79191 0.86309 0.64655 0.0
C3000 C 0.79675 0.8001 0.6849 0.0
C3001 C 0.80981 0.81141 0.70615 0.0
C3002 C 0.79946 0.80866 0.66366 0.0
C3003 C 0.81565 0.82898 0.66358 0.0
C3004 C 0.8283 0.84085 0.68516 0.0
C3005 C 0.8252 0.83201 0.70605 0.0
C3006 C 0.78546 0.79557 0.64113 0.0
C3007 C 0.8458 0.86249 0.68606 0.0
H3008 H 0.85506 0.82964 0.59618 0.0
H3009 H 0.80692 0.87412 0.60582 0.0
H3010 H 0.85887 0.8183 0.65301 0.0
H3011 H 0.83755 0.79524 0.63684 0.0
H3012 H 0.86194 0.80591 0.62268 0.0
H3013 H 0.78449 0.87544 0.63776 0.0
H3014 H 0.77824 0.84869 0.64851 0.0
H3015 H 0.79923 0.87204 0.66471 0.0
H3016 H 0.78478 0.78425 0.68469 0.0
H3017 H 0.8353 0.84113 0.72232 0.0
H3018 H 0.79649 0.78814 0.62842 0.0
H3019 H 0.77721 0.80746 0.63249 0.0
H3020 H 0.77231 0.78129 0.64443 0.0
H3021 H 0.85955 0.85826 0.67524 0.0
H3022 H 0.85321 0.87052 0.70446 0.0
H3023 H 0.83831 0.87541 0.67832 0.0
C3024 C 0.71359 0.47868 0.4908 0.0
C3025 C 0.73406 0.49079 0.50367 0.0
C3026 C 0.69282 0.48589 0.49457 0.0
C3027 C 0.69183 0.50538 0.51242 0.0
C3028 C 0.71243 0.51754 0.52572 0.0
C3029 C 0.73316 0.51041 0.52096 0.0
C3030 C 0.67188 0.47271 0.47911 0.0
C3031 C 0.71255 0.53798 0.54535 0.0
C3032 C 0.64241 0.5379 0.50875 0.0
C3033 C 0.62703 0.5281 0.52332 0.0
C3034 C 0.66305 0.53053 0.50488 0.0
C3035 C 0.66947 0.51336 0.51653 0.0
C3036 C 0.65414 0.50358 0.53158 0.0
C3037 C 0.63305 0.51064 0.53437 0.0
C3038 C 0.67783 0.5409 0.48778 0.0
C3039 C 0.6601 0.48571 0.54497 0.0
H3040 H 0.71382 0.46354 0.47736 0.0
H3041 H 0.74862 0.51985 0.53132 0.0
H3042 H 0.65934 0.46513 0.4902 0.0
H3043 H 0.66408 0.48466 0.47008 0.0
H3044 H 0.67542 0.45856 0.46539 0.0
H3045 H 0.72952 0.54489 0.555 0.0
H3046 H 0.7068 0.55201 0.53791 0.0
H3047 H 0.70061 0.5329 0.55823 0.0
H3048 H 0.63797 0.55108 0.4997 0.0
H3049 H 0.62151 0.50282 0.54563 0.0
H3050 H 0.68105 0.52698 0.47361 0.0
H3051 H 0.69437 0.55004 0.49721 0.0
H3052 H 0.67016 0.5533 0.47931 0.0
H3053 H 0.66167 0.46993 0.53229 0.0
H3054 H 0.64731 0.48083 0.55714 0.0
H3055 H 0.67667 0.49244 0.55552 0.0
C3056 C 0.22267 0.14811 0.50252 0.0
C3057 C 0.22228 0.16746 0.49194 0.0
C3058 C 0.20281 0.13219 0.50367 0.0
C3059 C 0.18196 0.1353 0.49359 0.0
C3060 C 0.18154 0.15431 0.4821 0.0
C3061 C 0.20162 0.17024 0.4816 0.0
C3062 C 0.20405 0.11257 0.5166 0.0
C3063 C 0.15979 0.158 0.47064 0.0
C3064 C 0.13229 0.08394 0.48506 0.0
C3065 C 0.12073 0.08999 0.50496 0.0
C3066 C 0.15195 0.09871 0.48077 0.0
C3067 C 0.16047 0.11984 0.49693 0.0
C3068 C 0.14878 0.12601 0.51693 0.0
C3069 C 0.12911 0.11118 0.52059 0.0
C3070 C 0.16362 0.0917 0.45896 0.0
C3071 C 0.15719 0.14823 0.53475 0.0
H3072 H 0.23845 0.14579 0.51068 0.0
H3073 H 0.2011 0.18497 0.4732 0.0
H3074 H 0.19454 0.11465 0.53249 0.0
H3075 H 0.19612 0.09579 0.50504 0.0
H3076 H 0.22165 0.11183 0.52244 0.0
H3077 H 0.16228 0.17339 0.46212 0.0
H3078 H 0.15208 0.14253 0.45699 0.0
H3079 H 0.14759 0.1602 0.48408 0.0
H3080 H 0.12593 0.06776 0.47277 0.0
H3081 H 0.12042 0.11618 0.53603 0.0
H3082 H 0.18084 0.08949 0.46427 0.0
H3083 H 0.16536 0.10553 0.4483 0.0
H3084 H 0.15437 0.0753 0.44756 0.0
H3085 H 0.17451 0.14857 0.54239 0.0
H3086 H 0.14628 0.15041 0.54951 0.0
H3087 H 0.15797 0.16328 0.52584 0.0
C3088 C 0.24335 0.96618 0.77781 0.0
C3089 C 0.21982 0.96473 0.77223 0.0
C3090 C 0.25424 0.94628 0.77745 0.0
C3091 C 0.24235 0.92257 0.77009 0.0
C3092 C 0.21854 0.92103 0.76395 0.0
C3093 C 0.20796 0.94131 0.76561 0.0
C3094 C 0.27899 0.95137 0.78567 0.0
C3095 C 0.20348 0.89773 0.75512 0.0
C3096 C 0.28262 0.87565 0.75258 0.0
C3097 C 0.27768 0.85851 0.76685 0.0
C3098 C 0.27131 0.89528 0.7529 0.0
C3099 C 0.25448 0.90018 0.76886 0.0
C3100 C 0.24982 0.88308 0.78373 0.0
C3101 C 0.26065 0.86301 0.78216 0.0
C3102 C 0.27774 0.91061 0.73531 0.0
C3103 C 0.23343 0.88571 0.80222 0.0
H3104 H 0.25364 0.98335 0.78325 0.0
H3105 H 0.18996 0.93858 0.76106 0.0
H3106 H 0.28471 0.93642 0.79127 0.0
H3107 H 0.28869 0.9563 0.77101 0.0
H3108 H 0.28302 0.96632 0.80081 0.0
H3109 H 0.19053 0.89877 0.74106 0.0
H3110 H 0.21294 0.88426 0.74789 0.0
H3111 H 0.19445 0.89229 0.77 0.0
H3112 H 0.29538 0.87358 0.7404 0.0
H3113 H 0.25599 0.85095 0.79383 0.0
H3114 H 0.29391 0.92259 0.7422 0.0
H3115 H 0.26484 0.92088 0.73192 0.0
H3116 H 0.28047 0.90011 0.71813 0.0
H3117 H 0.23056 0.90366 0.80693 0.0
H3118 H 0.23957 0.8805 0.81866 0.0
H3119 H 0.21714 0.87393 0.7954 0.0
C3120 C 0.38621 0.98176 0.98136 0.0
C3121 C 0.37082 0.98906 0.99706 0.0
C3122 C 0.40948 0.99144 0.98502 0.0
C3123 C 0.41823 1.00903 1.00511 0.0
C3124 C 0.40268 0.01733 0.0205 0.0
C3125 C 0.37927 1.00731 0.01633 0.0
C3126 C 0.4249 0.98191 0.96785 0.0
C3127 C 0.41092 0.03603 0.04212 0.0
C3128 C 0.48065 1.01279 0.02672 0.0
C3129 C 0.49209 0.03104 0.01696 0.0
C3130 C 0.45683 1.00605 0.02368 0.0
C3131 C 0.44364 0.01761 1.01037 0.0
C3132 C 0.45506 0.03627 1.00077 0.0
C3133 C 0.4789 0.04275 1.0042 0.0
C3134 C 0.44579 0.98619 0.03447 0.0
C3135 C 0.44207 0.04919 0.98641 0.0
H3136 H 0.38009 0.96757 0.96652 0.0
H3137 H 0.36786 1.01284 0.02895 0.0
H3138 H 0.43565 0.99618 0.96145 0.0
H3139 H 0.43626 0.97299 0.97704 0.0
H3140 H 0.41547 0.96944 0.95223 0.0
H3141 H 0.39683 0.04236 0.05094 0.0
H3142 H 0.42086 0.0292 0.05507 0.0
H3143 H 0.42221 0.05085 0.0372 0.0
H3144 H 0.49033 1.00363 0.03682 0.0
H3145 H 0.48725 0.05692 0.99657 0.0
H3146 H 0.43727 0.97165 0.02016 0.0
H3147 H 0.43269 0.99156 0.04569 0.0
H3148 H 0.45806 0.97985 0.04551 0.0
H3149 H 0.43343 0.03731 0.97005 0.0
H3150 H 0.45309 0.06407 0.98122 0.0
H3151 H 0.42887 0.05566 0.99671 0.0
C3152 C 0.86904 0.56543 0.79337 0.0
C3153 C 0.89256 0.57201 0.79557 0.0
C3154 C 0.8554 0.57888 0.78412 0.0
C3155 C 0.86555 0.59929 0.77674 0.0
C3156 C 0.8893 0.60586 0.77857 0.0
C3157 C 0.90256 0.59216 0.78807 0.0
C3158 C 0.83012 0.57145 0.78262 0.0
C3159 C 0.90066 0.6275 0.77075 0.0
C3160 C 0.83012 0.62471 0.73563 0.0
C3161 C 0.82359 0.64226 0.7517 0.0
C3162 C 0.84387 0.61057 0.74351 0.0
C3163 C 0.85125 0.6142 0.76798 0.0
C3164 C 0.84468 0.63188 0.78426 0.0
C3165 C 0.83093 0.64571 0.77591 0.0
C3166 C 0.85053 0.5918 0.7257 0.0
C3167 C 0.85228 0.63631 0.81049 0.0
H3168 H 0.86122 0.54988 0.79917 0.0
H3169 H 0.92074 0.59723 0.78963 0.0
H3170 H 0.82292 0.58486 0.79389 0.0
H3171 H 0.82271 0.56968 0.76411 0.0
H3172 H 0.82491 0.55475 0.78849 0.0
H3173 H 0.9193 0.62971 0.77252 0.0
H3174 H 0.89487 0.62699 0.75194 0.0
H3175 H 0.89595 0.6429 0.78155 0.0
H3176 H 0.8244 0.62199 0.71692 0.0
H3177 H 0.82632 0.6596 0.78831 0.0
H3178 H 0.84449 0.57468 0.73034 0.0
H3179 H 0.86913 0.59441 0.72624 0.0
H3180 H 0.84356 0.5914 0.70727 0.0
H3181 H 0.84662 0.62051 0.81777 0.0
H3182 H 0.84564 0.65077 0.82077 0.0
H3183 H 0.87093 0.64049 0.81327 0.0
C3184 C 0.86495 0.6837 0.01576 0.0
C3185 C 0.84302 0.6714 0.01616 0.0
C3186 C 0.88384 0.67442 0.02138 0.0
C3187 C 0.88074 0.65228 0.02755 0.0
C3188 C 0.85864 0.63977 0.02793 0.0
C3189 C 0.84007 0.64947 0.02225 0.0
C3190 C 0.9071 0.6883 0.02074 0.0
C3191 C 0.85458 0.61612 0.03439 0.0
C3192 C 0.92772 0.61778 0.02231 0.0
C3193 C 0.93665 0.62113 0.04607 0.0
C3194 C 0.90981 0.62813 0.01597 0.0
C3195 C 0.90056 0.6422 0.03379 0.0
C3196 C 0.90981 0.64604 0.05772 0.0
C3197 C 0.9277 0.63547 0.06356 0.0
C3198 C 0.90044 0.62357 0.99025 0.0
C3199 C 0.90056 0.66105 0.07725 0.0
H3200 H 0.8674 0.70065 1.01106 0.0
H3201 H 0.8232 0.63982 0.02259 0.0
H3202 H 0.91667 0.69154 0.03848 0.0
H3203 H 0.91648 0.67838 1.008 0.0
H3204 H 0.90667 0.70519 0.0155 0.0
H3205 H 0.83638 0.60857 0.03371 0.0
H3206 H 0.86252 0.60417 0.02206 0.0
H3207 H 0.86251 0.6172 0.05257 0.0
H3208 H 0.93432 0.60652 1.0087 0.0
H3209 H 0.93471 0.63844 0.0819 0.0
H3210 H 0.90056 0.64015 0.98419 0.0
H3211 H 0.88268 0.61427 0.98832 0.0
H3212 H 0.91013 0.61307 0.9784 0.0
H3213 H 0.90105 0.6785 0.07308 0.0
H3214 H 0.91011 0.66295 0.09484 0.0
H3215 H 0.88269 0.65346 0.07849 0.0
C3216 C 0.22589 0.12199 0.80522 0.0
C3217 C 0.22068 0.10375 0.78505 0.0
C3218 C 0.23804 0.14487 0.80448 0.0
C3219 C 0.24503 0.15115 0.78279 0.0
C3220 C 0.23979 0.13282 0.76231 0.0
C3221 C 0.22801 0.10989 0.76366 0.0
C3222 C 0.24294 0.16267 0.8272 0.0
C3223 C 0.24593 0.13766 0.73844 0.0
C3224 C 0.25605 0.21741 0.77694 0.0
C3225 C 0.27982 0.22472 0.77958 0.0
C3226 C 0.24485 0.19418 0.77781 0.0
C3227 C 0.25712 0.17662 0.78152 0.0
C3228 C 0.28111 0.1839 0.78425 0.0
C3229 C 0.29189 0.20723 0.78322 0.0
C3230 C 0.21951 0.1884 0.77462 0.0
C3231 C 0.29566 0.16686 0.78841 0.0
H3232 H 0.21996 0.11849 0.82185 0.0
H3233 H 0.2236 0.09693 0.74749 0.0
H3234 H 0.26109 0.17076 0.82989 0.0
H3235 H 0.2334 0.17663 0.82601 0.0
H3236 H 0.23832 0.15513 0.84295 0.0
H3237 H 0.24165 0.12191 0.72423 0.0
H3238 H 0.23688 0.1509 0.73353 0.0
H3239 H 0.26421 0.14483 0.73934 0.0
H3240 H 0.24592 0.22999 0.77406 0.0
H3241 H 0.3101 0.21176 0.78532 0.0
H3242 H 0.21297 0.18267 0.79064 0.0
H3243 H 0.21376 0.17382 0.75936 0.0
H3244 H 0.21206 0.20335 0.7715 0.0
H3245 H 0.29138 0.16012 0.80468 0.0
H3246 H 0.31389 0.17467 0.79041 0.0
H3247 H 0.29233 0.15187 0.77336 0.0
C3248 C 0.38488 0.96728 0.33778 0.0
C3249 C 0.40753 0.96878 0.33338 0.0
C3250 C 0.37033 0.94577 0.33501 0.0
C3251 C 0.3786 0.92536 0.32735 0.0
C3252 C 0.40184 0.9267 0.32477 0.0
C3253 C 0.41611 0.94846 0.32799 0.0
C3254 C 0.34576 0.94504 0.33844 0.0
C3255 C 0.41128 0.90529 0.31658 0.0
C3256 C 0.34236 0.86602 0.32479 0.0
C3257 C 0.33374 0.86015 0.30079 0.0
C3258 C 0.35666 0.88741 0.33393 0.0
C3259 C 0.36256 0.90314 0.31865 0.0
C3260 C 0.35346 0.89755 0.29458 0.0
C3261 C 0.33909 0.87619 0.28599 0.0
C3262 C 0.36586 0.89294 0.35975 0.0
C3263 C 0.35936 0.91388 0.27768 0.0
H3264 H 0.37825 0.98296 0.34229 0.0
H3265 H 0.4336 0.94952 0.32457 0.0
H3266 H 0.33581 0.94082 0.32083 0.0
H3267 H 0.33936 0.93135 0.34839 0.0
H3268 H 0.34278 0.96186 0.3481 0.0
H3269 H 0.42998 0.90896 0.31851 0.0
H3270 H 0.40519 0.89168 0.32674 0.0
H3271 H 0.4054 0.89822 0.29758 0.0
H3272 H 0.33832 0.85372 0.33636 0.0
H3273 H 0.33255 0.87184 0.26743 0.0
H3274 H 0.36276 0.91003 0.36843 0.0
H3275 H 0.38434 0.89404 0.36109 0.0
H3276 H 0.35824 0.87967 0.36969 0.0
H3277 H 0.35474 0.93077 0.28451 0.0
H3278 H 0.35068 0.90698 0.25955 0.0
H3279 H 0.37779 0.91717 0.27639 0.0
C3280 C 0.56753 0.35786 0.63474 0.0
C3281 C 0.58286 0.34611 0.62295 0.0
C3282 C 0.55925 0.37506 0.62536 0.0
C3283 C 0.56674 0.38066 0.60392 0.0
C3284 C 0.58365 0.37023 0.59309 0.0
C3285 C 0.59147 0.35294 0.60272 0.0
C3286 C 0.54133 0.38598 0.63743 0.0
C3287 C 0.59238 0.37616 0.57044 0.0
C3288 C 0.52775 0.39861 0.56017 0.0
C3289 C 0.53645 0.42232 0.56331 0.0
C3290 C 0.53688 0.38501 0.57412 0.0
C3291 C 0.55526 0.39543 0.59134 0.0
C3292 C 0.56353 0.41953 0.59521 0.0
C3293 C 0.55396 0.43274 0.58114 0.0
C3294 C 0.52747 0.35933 0.56973 0.0
C3295 C 0.58325 0.43115 0.61326 0.0
H3296 H 0.56093 0.35267 0.65049 0.0
H3297 H 0.60356 0.34406 0.59378 0.0
H3298 H 0.54515 0.40501 0.63886 0.0
H3299 H 0.52491 0.37931 0.6266 0.0
H3300 H 0.53957 0.38208 0.65549 0.0
H3301 H 0.60732 0.36854 0.56591 0.0
H3302 H 0.57897 0.36951 0.55553 0.0
H3303 H 0.59698 0.39518 0.57201 0.0
H3304 H 0.51416 0.39065 0.54642 0.0
H3305 H 0.56093 0.45106 0.5833 0.0
H3306 H 0.52328 0.35389 0.58666 0.0
H3307 H 0.54034 0.34969 0.56255 0.0
H3308 H 0.51213 0.35427 0.55694 0.0
H3309 H 0.58074 0.42586 0.63059 0.0
H3310 H 0.58593 0.45032 0.61599 0.0
H3311 H 0.59877 0.42567 0.60714 0.0
C3312 C 0.43206 0.80716 0.38952 0.0
C3313 C 0.45222 0.79893 0.38793 0.0
C3314 C 0.41514 0.80095 0.37059 0.0
C3315 C 0.41837 0.78597 0.34959 0.0
C3316 C 0.43832 0.77697 0.34808 0.0
C3317 C 0.4551 0.78365 0.36726 0.0
C3318 C 0.39409 0.81101 0.3728 0.0
C3319 C 0.44217 0.76077 0.32603 0.0
C3320 C 0.36355 0.76157 0.31136 0.0
C3321 C 0.36365 0.7778 0.29654 0.0
C3322 C 0.38217 0.76279 0.32752 0.0
C3323 C 0.40112 0.78081 0.32899 0.0
C3324 C 0.40202 0.79604 0.31271 0.0
C3325 C 0.38329 0.79423 0.29654 0.0
C3326 C 0.38077 0.74597 0.34429 0.0
C3327 C 0.4219 0.81557 0.3138 0.0
H3328 H 0.42966 0.81898 0.40537 0.0
H3329 H 0.47058 0.77712 0.36589 0.0
H3330 H 0.39264 0.82171 0.3591 0.0
H3331 H 0.37898 0.79694 0.36967 0.0
H3332 H 0.39399 0.82197 0.39056 0.0
H3333 H 0.45778 0.75388 0.3284 0.0
H3334 H 0.42769 0.74604 0.32112 0.0
H3335 H 0.44344 0.77 0.31092 0.0
H3336 H 0.34851 0.74862 0.31123 0.0
H3337 H 0.38352 0.8068 0.28509 0.0
H3338 H 0.37767 0.75478 0.36213 0.0
H3339 H 0.39686 0.73986 0.34624 0.0
H3340 H 0.36692 0.73073 0.33817 0.0
H3341 H 0.42198 0.82895 0.32992 0.0
H3342 H 0.42131 0.82386 0.29801 0.0
H3343 H 0.43794 0.80931 0.31514 0.0
C3344 C 0.11654 0.74261 0.07274 0.0
C3345 C 0.11843 0.75009 0.09744 0.0
C3346 C 0.1143 0.71901 0.06277 0.0
C3347 C 0.11428 0.70282 0.07796 0.0
C3348 C 0.11834 0.71067 0.10285 0.0
C3349 C 0.12017 0.7342 0.11229 0.0
C3350 C 0.11 0.71129 0.03615 0.0
C3351 C 0.11889 0.69403 0.11965 0.0
C3352 C 0.07635 0.64385 0.06295 0.0
C3353 C 0.0917 0.6294 0.05713 0.0
C3354 C 0.08338 0.6679 0.06834 0.0
C3355 C 0.10646 0.6777 0.06849 0.0
C3356 C 0.12197 0.66322 0.06187 0.0
C3357 C 0.11432 0.63913 0.05598 0.0
C3358 C 0.06619 0.68275 0.07479 0.0
C3359 C 0.14673 0.67302 0.06218 0.0
H3360 H 0.1152 0.75489 0.06123 0.0
H3361 H 0.12199 0.74004 0.13142 0.0
H3362 H 0.11961 0.69772 0.02968 0.0
H3363 H 0.09186 0.7037 0.03137 0.0
H3364 H 0.11455 0.72592 0.02678 0.0
H3365 H 0.12546 0.70309 0.13803 0.0
H3366 H 0.1016 0.68424 0.12013 0.0
H3367 H 0.12948 0.6813 0.11345 0.0
H3368 H 0.05877 0.6363 0.06342 0.0
H3369 H 0.12618 0.62789 0.05147 0.0
H3370 H 0.06759 0.69676 0.06436 0.0
H3371 H 0.06943 0.69106 0.09386 0.0
H3372 H 0.04869 0.6726 0.07155 0.0
H3373 H 0.14931 0.68798 0.05307 0.0
H3374 H 0.15601 0.65991 0.05359 0.0
H3375 H 0.15412 0.67939 0.08086 0.0
C3376 C 0.07989 0.29817 0.86772 0.0
C3377 C 0.08117 0.31289 0.88985 0.0
C3378 C 0.0991 0.29684 0.85567 0.0
C3379 C 0.11997 0.3108 0.86591 0.0
C3380 C 0.12152 0.32514 0.88861 0.0
C3381 C 0.10205 0.3259 0.90042 0.0
C3382 C 0.09692 0.28108 0.83163 0.0
C3383 C 0.14351 0.34038 0.89995 0.0
C3384 C 0.17332 0.29776 0.84022 0.0
C3385 C 0.17668 0.31333 0.82461 0.0
C3386 C 0.1549 0.2967 0.85385 0.0
C3387 C 0.13973 0.31177 0.85199 0.0
C3388 C 0.1431 0.3276 0.83641 0.0
C3389 C 0.16143 0.32806 0.82276 0.0
C3390 C 0.15163 0.27945 0.87015 0.0
C3391 C 0.12726 0.34401 0.83404 0.0
H3392 H 0.06379 0.28786 0.85964 0.0
H3393 H 0.10307 0.33725 0.91757 0.0
H3394 H 0.10013 0.29159 0.8177 0.0
H3395 H 0.10966 0.2699 0.8311 0.0
H3396 H 0.07994 0.26987 0.82715 0.0
H3397 H 0.1422 0.3492 0.9184 0.0
H3398 H 0.15691 0.33005 0.90027 0.0
H3399 H 0.14886 0.35375 0.88925 0.0
H3400 H 0.18522 0.28656 0.84198 0.0
H3401 H 0.16369 0.33983 0.81043 0.0
H3402 H 0.13501 0.26768 0.86524 0.0
H3403 H 0.15171 0.28859 0.88874 0.0
H3404 H 0.16491 0.26887 0.86942 0.0
H3405 H 0.11011 0.33405 0.8274 0.0
H3406 H 0.13274 0.3558 0.82172 0.0
H3407 H 0.1261 0.35461 0.85169 0.0
C3408 C 0.59779 0.75934 0.93228 0.0
C3409 C 0.60841 0.77982 0.94771 0.0
C3410 C 0.59225 0.73863 0.94077 0.0
C3411 C 0.59779 0.73855 0.96505 0.0
C3412 C 0.61042 0.75871 0.98002 0.0
C3413 C 0.61533 0.7792 0.97124 0.0
C3414 C 0.57939 0.71719 0.92419 0.0
C3415 C 0.61764 0.75896 1.00569 0.0
C3416 C 0.56012 0.70041 0.99844 0.0
C3417 C 0.57277 0.68354 1.00113 0.0
C3418 C 0.56771 0.71784 0.98582 0.0
C3419 C 0.58843 0.71836 0.97559 0.0
C3420 C 0.60081 0.70077 0.97738 0.0
C3421 C 0.59286 0.68364 0.99024 0.0
C3422 C 0.55395 0.73623 0.98424 0.0
C3423 C 0.62285 0.70018 0.96668 0.0
H3424 H 0.59243 0.75985 0.91408 0.0
H3425 H 0.62381 0.79503 0.98307 0.0
H3426 H 0.58773 0.70234 0.9253 0.0
H3427 H 0.56216 0.71273 0.92966 0.0
H3428 H 0.57805 0.71952 0.90544 0.0
H3429 H 0.62912 0.77539 0.01431 0.0
H3430 H 0.6026 0.75664 0.01572 0.0
H3431 H 0.62631 0.74436 1.00695 0.0
H3432 H 0.54463 0.70044 1.00689 0.0
H3433 H 0.60252 0.67036 0.9919 0.0
H3434 H 0.55087 0.73792 0.96546 0.0
H3435 H 0.56343 0.75319 0.99421 0.0
H3436 H 0.53748 0.7324 0.9916 0.0
H3437 H 0.62591 0.71158 0.95352 0.0
H3438 H 0.62333 0.68225 0.95782 0.0
H3439 H 0.63683 0.70558 0.98113 0.0
C3440 C 0.08228 0.79661 0.69452 0.0
C3441 C 0.08597 0.80206 0.6721 0.0
C3442 C 0.1002 0.7964 0.71085 0.0
C3443 C 0.12247 0.8023 0.70493 0.0
C3444 C 0.12646 0.80967 0.68319 0.0
C3445 C 0.10811 0.80923 0.66685 0.0
C3446 C 0.09516 0.78803 0.73363 0.0
C3447 C 0.15006 0.81674 0.67664 0.0
C3448 C 0.1674 0.80782 0.75566 0.0
C3449 C 0.17322 0.7859 0.75097 0.0
C3450 C 0.15173 0.81395 0.74017 0.0
C3451 C 0.14109 0.79751 0.71999 0.0
C3452 C 0.14682 0.77541 0.71517 0.0
C3453 C 0.16302 0.77004 0.73045 0.0
C3454 C 0.14641 0.83789 0.74552 0.0
C3455 C 0.13556 0.7572 0.69403 0.0
H3456 H 0.06528 0.79127 0.69898 0.0
H3457 H 0.11113 0.81375 0.64973 0.0
H3458 H 0.10016 0.77103 0.73306 0.0
H3459 H 0.10503 0.80019 0.74913 0.0
H3460 H 0.07703 0.78599 0.73648 0.0
H3461 H 0.15038 0.82586 0.66141 0.0
H3462 H 0.16091 0.82815 0.69201 0.0
H3463 H 0.15746 0.80113 0.67165 0.0
H3464 H 0.17503 0.82024 0.77144 0.0
H3465 H 0.1679 0.7534 0.72599 0.0
H3466 H 0.12907 0.83683 0.75092 0.0
H3467 H 0.14707 0.84567 0.72938 0.0
H3468 H 0.15825 0.84957 0.75999 0.0
H3469 H 0.11714 0.75321 0.69527 0.0
H3470 H 0.14204 0.74088 0.69276 0.0
H3471 H 0.13822 0.76376 0.67735 0.0
C3472 C 0.10595 0.40465 0.41062 0.0
C3473 C 0.11856 0.39725 0.42795 0.0
C3474 C 0.09702 0.42475 0.41636 0.0
C3475 C 0.10123 0.43782 0.43982 0.0
C3476 C 0.11494 0.43097 0.457 0.0
C3477 C 0.12322 0.41059 0.45091 0.0
C3478 C 0.08213 0.43128 0.39773 0.0
C3479 C 0.12011 0.44465 0.48213 0.0
C3480 C 0.09187 0.49908 0.45788 0.0
C3481 C 0.0726 0.49533 0.47002 0.0
C3482 C 0.10078 0.48038 0.4466 0.0
C3483 C 0.08992 0.45754 0.44727 0.0
C3484 C 0.06946 0.4537 0.45786 0.0
C3485 C 0.06114 0.47268 0.4693 0.0
C3486 C 0.12266 0.48513 0.43553 0.0
C3487 C 0.05713 0.42957 0.45853 0.0
H3488 H 0.10213 0.39414 0.39291 0.0
H3489 H 0.13305 0.40485 0.46424 0.0
H3490 H 0.06446 0.42821 0.40226 0.0
H3491 H 0.08709 0.44993 0.39727 0.0
H3492 H 0.08276 0.42103 0.37972 0.0
H3493 H 0.13261 0.4381 0.49268 0.0
H3494 H 0.12672 0.46314 0.48202 0.0
H3495 H 0.10444 0.44369 0.4912 0.0
H3496 H 0.1008 0.51659 0.45843 0.0
H3497 H 0.04607 0.46975 0.47843 0.0
H3498 H 0.12163 0.47377 0.41784 0.0
H3499 H 0.13635 0.48126 0.44692 0.0
H3500 H 0.12727 0.50345 0.43353 0.0
H3501 H 0.05534 0.41832 0.44067 0.0
H3502 H 0.04013 0.42948 0.4647 0.0
H3503 H 0.06695 0.42184 0.47076 0.0
C3504 C 0.44081 0.27541 0.17606 0.0
C3505 C 0.46161 0.27067 0.18333 0.0
C3506 C 0.42342 0.27485 0.19106 0.0
C3507 C 0.42683 0.26892 0.21362 0.0
C3508 C 0.44756 0.26338 0.22071 0.0
C3509 C 0.46482 0.26456 0.20556 0.0
C3510 C 0.4016 0.28117 0.18301 0.0
C3511 C 0.45159 0.25647 0.24439 0.0
C3512 C 0.38868 0.29069 0.2585 0.0
C3513 C 0.37062 0.27184 0.25484 0.0
C3514 C 0.4077 0.28965 0.24595 0.0
C3515 C 0.40875 0.26907 0.22986 0.0
C3516 C 0.39138 0.24936 0.22769 0.0
C3517 C 0.37233 0.25109 0.24 0.0
C3518 C 0.42577 0.31112 0.24852 0.0
C3519 C 0.39222 0.22692 0.21126 0.0
H3520 H 0.43836 0.28026 0.15894 0.0
H3521 H 0.48087 0.26074 0.21115 0.0
H3522 H 0.38735 0.26662 0.18281 0.0
H3523 H 0.39844 0.29628 0.19571 0.0
H3524 H 0.4017 0.28549 0.165 0.0
H3525 H 0.46818 0.25136 0.24661 0.0
H3526 H 0.45087 0.27109 0.25901 0.0
H3527 H 0.43818 0.24181 0.24625 0.0
H3528 H 0.38725 0.30683 0.26978 0.0
H3529 H 0.35836 0.23647 0.23727 0.0
H3530 H 0.4254 0.31791 0.23178 0.0
H3531 H 0.44267 0.30701 0.25162 0.0
H3532 H 0.42348 0.32495 0.26333 0.0
H3533 H 0.38954 0.22894 0.19254 0.0
H3534 H 0.37912 0.21242 0.21423 0.0
H3535 H 0.40898 0.22229 0.21369 0.0
C3536 C 0.63808 0.53795 0.33839 0.0
C3537 C 0.66015 0.53305 0.33876 0.0
C3538 C 0.62573 0.54083 0.35919 0.0
C3539 C 0.63482 0.53868 0.38213 0.0
C3540 C 0.6571 0.5337 0.38264 0.0
C3541 C 0.66919 0.53113 0.36158 0.0
C3542 C 0.60255 0.54628 0.35647 0.0
C3543 C 0.66832 0.53084 0.40573 0.0
C3544 C 0.61026 0.56539 0.44188 0.0
C3545 C 0.59537 0.54664 0.44814 0.0
C3546 C 0.62271 0.56316 0.42108 0.0
C3547 C 0.62119 0.54146 0.40509 0.0
C3548 C 0.6063 0.52245 0.4114 0.0
C3549 C 0.59389 0.5252 0.43217 0.0
C3550 C 0.63775 0.58441 0.41624 0.0
C3551 C 0.60353 0.49873 0.39611 0.0
H3552 H 0.63021 0.53961 0.32152 0.0
H3553 H 0.68593 0.5273 0.36307 0.0
H3554 H 0.59 0.53236 0.36131 0.0
H3555 H 0.60184 0.56259 0.36883 0.0
H3556 H 0.59766 0.54809 0.33807 0.0
H3557 H 0.68539 0.52692 0.40382 0.0
H3558 H 0.66973 0.54686 0.4193 0.0
H3559 H 0.65787 0.51664 0.41252 0.0
H3560 H 0.61233 0.58219 0.45341 0.0
H3561 H 0.58303 0.51013 0.43605 0.0
H3562 H 0.63285 0.5872 0.39823 0.0
H3563 H 0.65542 0.58189 0.41656 0.0
H3564 H 0.63699 0.60017 0.42944 0.0
H3565 H 0.59715 0.49908 0.37771 0.0
H3566 H 0.59175 0.48549 0.40294 0.0
H3567 H 0.62011 0.49347 0.39522 0.0
C3568 C 0.31821 0.95044 0.08192 0.0
C3569 C 0.29906 0.94598 0.0657 0.0
C3570 C 0.31828 0.9399 0.10186 0.0
C3571 C 0.29876 0.92437 0.1054 0.0
C3572 C 0.27858 0.92218 0.09068 0.0
C3573 C 0.27901 0.93295 0.07084 0.0
C3574 C 0.34009 0.94305 0.11722 0.0
C3575 C 0.25727 0.9062 0.09406 0.0
C3576 C 0.31089 0.87013 0.12466 0.0
C3577 C 0.30824 0.87449 0.14902 0.0
C3578 C 0.30742 0.88606 0.11036 0.0
C3579 C 0.30092 0.90695 0.12055 0.0
C3580 C 0.29751 0.91121 0.14499 0.0
C3581 C 0.30128 0.89495 0.15896 0.0
C3582 C 0.31112 0.88064 0.08434 0.0
C3583 C 0.29046 0.93316 0.15648 0.0
H3584 H 0.33381 0.96022 0.07769 0.0
H3585 H 0.2643 0.92918 0.05804 0.0
H3586 H 0.33711 0.94451 0.13623 0.0
H3587 H 0.34786 0.9277 0.11213 0.0
H3588 H 0.35225 0.95865 0.11508 0.0
H3589 H 0.24224 0.91022 0.08489 0.0
H3590 H 0.25841 0.88809 0.08656 0.0
H3591 H 0.2549 0.90731 0.11319 0.0
H3592 H 0.31574 0.85414 0.11669 0.0
H3593 H 0.29929 0.89854 0.1778 0.0
H3594 H 0.32475 0.89402 0.08028 0.0
H3595 H 0.29563 0.88092 0.07321 0.0
H3596 H 0.31576 0.86346 0.07912 0.0
H3597 H 0.30458 0.94804 0.15756 0.0
H3598 H 0.28561 0.93249 0.17472 0.0
H3599 H 0.27609 0.93646 0.14563 0.0
C3600 C 0.95626 0.55296 0.89888 0.0
C3601 C 0.96456 0.55613 0.87728 0.0
C3602 C 0.97107 0.55582 0.91939 0.0
C3603 C 0.99454 0.56256 0.91819 0.0
C3604 C 1.00281 0.56693 0.89664 0.0
C3605 C 0.98772 0.56334 0.87634 0.0
C3606 C 0.96172 0.55062 0.94201 0.0
C3607 C 0.02764 0.57477 0.89486 0.0
C3608 C 0.0306 0.58488 0.97676 0.0
C3609 C 0.03936 0.56539 0.97975 0.0
C3610 C 1.0165 0.58447 0.95641 0.0
C3611 C 1.01055 0.56384 0.9391 0.0
C3612 C 0.01968 0.54423 0.94188 0.0
C3613 C 0.03428 0.54537 0.96208 0.0
C3614 C 1.00761 0.6059 0.95367 0.0
C3615 C 1.01334 0.52178 0.924 0.0
H3616 H 0.93835 0.5472 0.89947 0.0
H3617 H 0.99407 0.56595 0.85959 0.0
H3618 H 0.96823 0.53582 0.94705 0.0
H3619 H 0.96738 0.56565 0.9568 0.0
H3620 H 0.94304 0.54629 0.94018 0.0
H3621 H 0.03106 0.57946 0.8774 0.0
H3622 H 0.03471 0.58995 0.90912 0.0
H3623 H 0.03671 0.56075 0.89736 0.0
H3624 H 0.03455 0.60035 0.99052 0.0
H3625 H 0.04077 0.53018 0.96463 0.0
H3626 H 0.9891 0.60264 0.95438 0.0
H3627 H 1.01095 0.61034 0.93611 0.0
H3628 H 1.01529 0.62103 0.9678 0.0
H3629 H 0.99487 0.51543 0.92256 0.0
H3630 H 0.02185 0.50812 0.92889 0.0
H3631 H 0.0178 0.52459 0.90617 0.0
C3632 C 0.30019 0.25981 0.58028 0.0
C3633 C 0.29729 0.23612 0.57045 0.0
C3634 C 0.30407 0.26806 0.60501 0.0
C3635 C 0.30456 0.25225 0.62056 0.0
C3636 C 0.30187 0.22831 0.61077 0.0
C3637 C 0.29854 0.22058 0.58588 0.0
C3638 C 0.30737 0.29374 0.6145 0.0
C3639 C 0.30185 0.21077 0.62662 0.0
C3640 C 0.33047 0.27449 0.68492 0.0
C3641 C 0.31146 0.27735 0.69707 0.0
C3642 C 0.32854 0.26652 0.66009 0.0
C3643 C 0.30702 0.26072 0.64703 0.0
C3644 C 0.28778 0.26341 0.65926 0.0
C3645 C 0.29024 0.27189 0.68398 0.0
C3646 C 0.34957 0.26445 0.64782 0.0
C3647 C 0.26448 0.25709 0.64625 0.0
H3648 H 0.29948 0.27203 0.56857 0.0
H3649 H 0.29621 0.20225 0.57855 0.0
H3650 H 0.2934 0.29747 0.6252 0.0
H3651 H 0.32323 0.29975 0.62642 0.0
H3652 H 0.308 0.30389 0.60008 0.0
H3653 H 0.30003 0.19288 0.61632 0.0
H3654 H 0.31769 0.215 0.63857 0.0
H3655 H 0.28779 0.21137 0.63804 0.0
H3656 H 0.34695 0.27868 0.69479 0.0
H3657 H 0.2754 0.27376 0.69315 0.0
H3658 H 0.35097 0.2753 0.63402 0.0
H3659 H 0.34864 0.24631 0.63867 0.0
H3660 H 0.36505 0.26987 0.6604 0.0
H3661 H 0.26322 0.26792 0.63266 0.0
H3662 H 0.25116 0.25942 0.65839 0.0
H3663 H 0.26118 0.23879 0.63678 0.0
C3664 C 0.66558 0.53143 0.187 0.0
C3665 C 0.6526 0.52456 0.20518 0.0
C3666 C 0.65555 0.5333 0.16399 0.0
C3667 C 0.63158 0.52853 0.15803 0.0
C3668 C 0.6186 0.52108 0.17613 0.0
C3669 C 0.62896 0.51942 0.19878 0.0
C3670 C 0.67083 0.5413 0.14619 0.0
C3671 C 0.59327 0.51555 0.17192 0.0
C3672 C 0.60198 0.55556 0.10891 0.0
C3673 C 0.59608 0.53741 0.08868 0.0
C3674 C 0.61352 0.55307 0.13078 0.0
C3675 C 0.61997 0.5318 0.13368 0.0
C3676 C 0.61412 0.51343 0.1133 0.0
C3677 C 0.60257 0.51638 0.09163 0.0
C3678 C 0.61874 0.57352 0.15112 0.0
C3679 C 0.62001 0.49025 0.11436 0.0
H3680 H 0.68365 0.53648 0.19108 0.0
H3681 H 0.61815 0.51469 0.21217 0.0
H3682 H 0.6666 0.52922 0.1288 0.0
H3683 H 0.66823 0.55852 0.14338 0.0
H3684 H 0.68886 0.54262 0.1521 0.0
H3685 H 0.58528 0.50879 0.1868 0.0
H3686 H 0.58698 0.53137 0.16966 0.0
H3687 H 0.58783 0.50254 0.15529 0.0
H3688 H 0.59752 0.57205 0.10775 0.0
H3689 H 0.59855 0.50188 0.07679 0.0
H3690 H 0.63707 0.57777 0.1567 0.0
H3691 H 0.61005 0.56914 0.16662 0.0
H3692 H 0.61345 0.58909 0.14643 0.0
H3693 H 0.63839 0.49236 0.11891 0.0
H3694 H 0.61508 0.47772 0.09729 0.0
H3695 H 0.61145 0.48291 0.1286 0.0
C3696 C 0.31168 0.90878 0.94291 0.0
C3697 C 0.30139 0.92746 0.94008 0.0
C3698 C 0.31523 0.89246 0.92331 0.0
C3699 C 0.30789 0.89433 0.9 0.0
C3700 C 0.29758 0.91323 0.89691 0.0
C3701 C 0.29467 0.92968 0.91693 0.0
C3702 C 0.32664 0.87298 0.92764 0.0
C3703 C 0.28914 0.91575 0.87246 0.0
C3704 C 0.3326 0.86129 0.84751 0.0
C3705 C 0.31621 0.84092 0.84051 0.0
C3706 C 0.33016 0.87872 0.86675 0.0
C3707 C 0.31059 0.87613 0.87911 0.0
C3708 C 0.29397 0.85562 0.87207 0.0
C3709 C 0.29707 0.83826 0.85311 0.0
C3710 C 0.34857 0.89995 0.87387 0.0
C3711 C 0.27267 0.85214 0.88435 0.0
H3712 H 0.317 0.90677 0.96061 0.0
H3713 H 0.28656 0.9439 0.91449 0.0
H3714 H 0.31484 0.85616 0.92169 0.0
H3715 H 0.34135 0.87257 0.91712 0.0
H3716 H 0.33246 0.87462 0.94669 0.0
H3717 H 0.28178 0.93148 0.8729 0.0
H3718 H 0.30308 0.91658 0.86084 0.0
H3719 H 0.27612 0.90037 0.86423 0.0
H3720 H 0.34738 0.86368 0.83786 0.0
H3721 H 0.28405 0.82288 0.84765 0.0
H3722 H 0.35501 0.90179 0.89274 0.0
H3723 H 0.34177 0.91565 0.87232 0.0
H3724 H 0.36288 0.89929 0.86274 0.0
H3725 H 0.27685 0.85219 0.90342 0.0
H3726 H 0.26103 0.83562 0.87634 0.0
H3727 H 0.26379 0.86663 0.88344 0.0
C3728 C 0.93849 0.517 0.73923 0.0
C3729 C 0.95167 0.50811 0.75485 0.0
C3730 C 0.94301 0.51586 0.7154 0.0
C3731 C 0.96117 0.50576 0.70726 0.0
C3732 C 0.97327 0.49513 0.72246 0.0
C3733 C 0.96831 0.49635 0.74602 0.0
C3734 C 0.92939 0.52688 0.69951 0.0
C3735 C 0.99269 0.48402 0.71444 0.0
C3736 C 0.97661 0.49219 0.64427 0.0
C3737 C 0.99439 0.5108 0.6445 0.0
C3738 C 0.96405 0.49124 0.66391 0.0
C3739 C 0.96989 0.50904 0.68432 0.0
C3740 C 0.98693 0.52853 0.68399 0.0
C3741 C 0.99889 0.52922 0.664 0.0
C3742 C 0.94551 0.47058 0.66334 0.0
C3743 C 0.99376 0.54784 0.70544 0.0
H3744 H 0.92545 0.52593 0.74586 0.0
H3745 H 0.97825 0.48899 0.75785 0.0
H3746 H 0.93901 0.5442 0.69837 0.0
H3747 H 0.92604 0.51639 0.68123 0.0
H3748 H 0.91309 0.52912 0.70649 0.0
H3749 H 0.99914 0.47491 0.72781 0.0
H3750 H 0.98753 0.47144 0.69749 0.0
H3751 H 1.00668 0.49751 0.71121 0.0
H3752 H 0.97289 0.47814 0.62896 0.0
H3753 H 1.01269 0.54358 0.6642 0.0
H3754 H 0.93076 0.47597 0.67157 0.0
H3755 H 0.95162 0.45862 0.67373 0.0
H3756 H 0.94 0.46095 0.64491 0.0
H3757 H 0.97877 0.55414 0.71204 0.0
H3758 H 1.00582 0.56269 0.70152 0.0
H3759 H 1.00179 0.54124 0.71999 0.0
C3760 C 0.30609 0.23566 0.44118 0.0
C3761 C 0.29455 0.21319 0.44142 0.0
C3762 C 0.30871 0.2437 0.41971 0.0
C3763 C 0.29881 0.22929 0.39787 0.0
C3764 C 0.28657 0.20679 0.39813 0.0
C3765 C 0.28502 0.19884 0.41979 0.0
C3766 C 0.32237 0.26755 0.42038 0.0
C3767 C 0.27474 0.19125 0.37555 0.0
C3768 C 0.2889 0.26108 0.34728 0.0
C3769 C 0.30614 0.25669 0.33298 0.0
C3770 C 0.28581 0.25159 0.36783 0.0
C3771 C 0.30089 0.23802 0.37495 0.0
C3772 C 0.31834 0.23346 0.36045 0.0
C3773 C 0.32047 0.24246 0.3394 0.0
C3774 C 0.26648 0.25643 0.38202 0.0
C3775 C 0.33519 0.21964 0.36754 0.0
H3776 H 0.31374 0.24675 0.45779 0.0
H3777 H 0.27599 0.1815 0.41986 0.0
H3778 H 0.33573 0.26655 0.40808 0.0
H3779 H 0.31143 0.27871 0.41428 0.0
H3780 H 0.33038 0.27593 0.43849 0.0
H3781 H 0.26527 0.17458 0.37879 0.0
H3782 H 0.26282 0.20014 0.36711 0.0
H3783 H 0.28712 0.18754 0.36269 0.0
H3784 H 0.27751 0.27169 0.34216 0.0
H3785 H 0.33381 0.23903 0.32838 0.0
H3786 H 0.27283 0.2705 0.39759 0.0
H3787 H 0.25851 0.24094 0.38872 0.0
H3788 H 0.25337 0.26198 0.37129 0.0
H3789 H 0.34406 0.22819 0.38523 0.0
H3790 H 0.34788 0.21779 0.35455 0.0
H3791 H 0.32644 0.20214 0.36916 0.0
C3792 C 0.39384 0.58596 0.5424 0.0
C3793 C 0.38807 0.60473 0.53335 0.0
C3794 C 0.4151 0.57925 0.53931 0.0
C3795 C 0.43115 0.59096 0.52618 0.0
C3796 C 0.42516 0.60964 0.51674 0.0
C3797 C 0.40418 0.61635 0.52064 0.0
C3798 C 0.42055 0.55974 0.55047 0.0
C3799 C 0.44096 0.6226 0.50221 0.0
C3800 C 0.4952 0.59037 0.53412 0.0
C3801 C 0.49834 0.57312 0.51506 0.0
C3802 C 0.47369 0.59577 0.53823 0.0
C3803 C 0.45426 0.58424 0.52265 0.0
C3804 C 0.45733 0.56697 0.50318 0.0
C3805 C 0.47899 0.56142 0.49988 0.0
C3806 C 0.47179 0.6138 0.5596 0.0
C3807 C 0.43765 0.55443 0.48556 0.0
H3808 H 0.38187 0.57671 0.55227 0.0
H3809 H 0.40022 0.63073 0.51325 0.0
H3810 H 0.42378 0.54563 0.53654 0.0
H3811 H 0.43615 0.56593 0.56277 0.0
H3812 H 0.40675 0.55255 0.56048 0.0
H3813 H 0.43357 0.63589 0.49499 0.0
H3814 H 0.45684 0.63127 0.51329 0.0
H3815 H 0.44538 0.61032 0.48718 0.0
H3816 H 0.50962 0.59942 0.5464 0.0
H3817 H 0.4808 0.54798 0.48518 0.0
H3818 H 0.45903 0.60644 0.57063 0.0
H3819 H 0.46603 0.62863 0.55378 0.0
H3820 H 0.48804 0.62035 0.57082 0.0
H3821 H 0.42447 0.54506 0.49477 0.0
H3822 H 0.44259 0.54184 0.47114 0.0
H3823 H 0.43004 0.5671 0.4775 0.0
C3824 C 0.91753 0.91753 0.51991 0.0
C3825 C 0.90223 0.91944 0.5372 0.0
C3826 C 0.93658 0.93501 0.52039 0.0
C3827 C 0.94095 0.95471 0.53902 0.0
C3828 C 0.92572 0.95662 0.55673 0.0
C3829 C 0.90639 0.93916 0.5554 0.0
C3830 C 0.95196 0.93244 0.50079 0.0
C3831 C 0.93005 0.97693 0.57728 0.0
C3832 C 1.0022 0.98679 0.54881 0.0
C3833 C 1.00133 1.00578 0.53786 0.0
C3834 C 0.98254 0.97075 0.55037 0.0
C3835 C 0.96154 0.97313 0.5399 0.0
C3836 C 0.96057 0.99245 0.52904 0.0
C3837 C 0.98038 1.00871 0.5285 0.0
C3838 C 0.98437 0.95087 0.56268 0.0
C3839 C 0.93876 0.99539 0.51703 0.0
H3840 H 0.91435 0.90249 0.50563 0.0
H3841 H 0.89475 0.94073 0.56891 0.0
H3842 H 0.95381 0.94778 0.49223 0.0
H3843 H 0.96896 0.93152 0.50829 0.0
H3844 H 0.94562 0.91669 0.48694 0.0
H3845 H 0.91687 0.97569 0.58984 0.0
H3846 H 0.94662 0.97797 0.58713 0.0
H3847 H 0.93078 0.99328 0.57061 0.0
H3848 H 0.01831 0.98443 0.55612 0.0
H3849 H 0.97962 0.02318 0.51975 0.0
H3850 H 0.98172 0.93461 0.54925 0.0
H3851 H 0.97115 0.94881 0.57508 0.0
H3852 H 1.00109 0.95323 0.57278 0.0
H3853 H 0.93268 0.98064 0.50202 0.0
H3854 H 0.94062 1.01171 0.51008 0.0
H3855 H 0.92561 0.9953 0.52962 0.0
C3856 C 0.91666 0.15094 0.28795 0.0
C3857 C 0.9079 0.12896 0.273 0.0
C3858 C 0.90609 0.17118 0.28937 0.0
C3859 C 0.88586 0.17138 0.27478 0.0
C3860 C 0.87728 0.14929 0.25919 0.0
C3861 C 0.8877 0.12906 0.25896 0.0
C3862 C 0.91705 0.19241 0.30736 0.0
C3863 C 0.85681 0.14646 0.24197 0.0
C3864 C 0.84152 0.21516 0.28445 0.0
C3865 C 0.85168 0.23614 0.27761 0.0
C3866 C 0.85215 0.19507 0.28418 0.0
C3867 C 0.874 0.19392 0.27581 0.0
C3868 C 0.88412 0.21498 0.2684 0.0
C3869 C 0.87344 0.23513 0.26979 0.0
C3870 C 0.83934 0.17501 0.29338 0.0
C3871 C 0.90663 0.21669 0.25845 0.0
H3872 H 0.93191 0.15238 0.29939 0.0
H3873 H 0.87989 0.11306 0.24705 0.0
H3874 H 0.93183 0.20156 0.30007 0.0
H3875 H 0.90547 0.20451 0.31207 0.0
H3876 H 0.92337 0.18747 0.32388 0.0
H3877 H 0.85843 0.13491 0.225 0.0
H3878 H 0.84183 0.13811 0.2496 0.0
H3879 H 0.85388 0.16319 0.23799 0.0
H3880 H 0.82491 0.21437 0.29058 0.0
H3881 H 0.8823 0.25027 0.26402 0.0
H3882 H 0.8504 0.16376 0.29908 0.0
H3883 H 0.8265 0.16451 0.27918 0.0
H3884 H 0.83024 0.1813 0.30866 0.0
H3885 H 0.92002 0.22526 0.27293 0.0
H3886 H 0.90769 0.22753 0.24463 0.0
H3887 H 0.91004 0.19948 0.25062 0.0
C3888 C 0.75094 0.08418 0.03027 0.0
C3889 C 0.75983 0.10712 0.04179 0.0
C3890 C 0.7276 0.07436 0.02995 0.0
C3891 C 0.71258 0.08772 0.04119 0.0
C3892 C 0.72185 0.11043 0.0537 0.0
C3893 C 0.74501 0.11963 0.05392 0.0
C3894 C 0.71884 0.04998 0.01667 0.0
C3895 C 0.70703 0.1257 0.06588 0.0
C3896 C 0.64963 0.07752 0.01869 0.0
C3897 C 0.63856 0.06766 0.03639 0.0
C3898 C 0.67341 0.08329 0.01963 0.0
C3899 C 0.6871 0.07904 0.03867 0.0
C3900 C 0.67608 0.06855 0.05632 0.0
C3901 C 0.65215 0.06316 0.05507 0.0
C3902 C 0.68387 0.09463 1.00043 0.0
C3903 C 0.68963 0.06328 0.07681 0.0
H3904 H 0.76187 0.07432 0.02049 0.0
H3905 H 0.75145 0.13735 0.06292 0.0
H3906 H 0.70776 0.04009 0.02754 0.0
H3907 H 0.70855 0.05033 1.00017 0.0
H3908 H 0.73269 0.04073 1.01178 0.0
H3909 H 0.71685 0.14249 0.07593 0.0
H3910 H 0.69489 0.12923 0.05242 0.0
H3911 H 0.6971 0.11683 0.07832 0.0
H3912 H 0.63966 0.08115 1.00405 0.0
H3913 H 0.64409 0.05538 0.0688 0.0
H3914 H 0.69629 0.08489 0.99235 0.0
H3915 H 0.69307 0.1124 1.00831 0.0
H3916 H 0.67115 0.09569 0.98614 0.0
H3917 H 0.70247 0.05337 0.0701 0.0
H3918 H 0.6789 0.05322 0.08785 0.0
H3919 H 0.69873 0.07966 0.08828 0.0
C3920 C 0.22139 0.4757 0.26366 0.0
C3921 C 0.22701 0.4949 0.25287 0.0
C3922 C 0.23616 0.46041 0.26483 0.0
C3923 C 0.25695 0.46442 0.25486 0.0
C3924 C 0.26167 0.4824 0.24189 0.0
C3925 C 0.2466 0.4975 0.24106 0.0
C3926 C 0.23037 0.4412 0.27855 0.0
C3927 C 0.28343 0.48689 0.23059 0.0
C3928 C 0.30429 0.44757 0.28943 0.0
C3929 C 0.30503 0.42574 0.27618 0.0
C3930 C 0.2893 0.46074 0.28209 0.0
C3931 C 0.27478 0.45189 0.26092 0.0
C3932 C 0.27628 0.43043 0.24678 0.0
C3933 C 0.29133 0.41754 0.25465 0.0
C3934 C 0.2883 0.48367 0.29758 0.0
C3935 C 0.26121 0.42052 0.22402 0.0
H3936 H 0.20614 0.47345 0.2726 0.0
H3937 H 0.25094 0.51218 0.23247 0.0
H3938 H 0.23349 0.42468 0.26843 0.0
H3939 H 0.24131 0.44541 0.29555 0.0
H3940 H 0.21254 0.43865 0.28264 0.0
H3941 H 0.28283 0.49873 0.21784 0.0
H3942 H 0.2974 0.4949 0.24463 0.0
H3943 H 0.2874 0.47047 0.22115 0.0
H3944 H 0.31507 0.45411 0.30588 0.0
H3945 H 0.29158 0.40054 0.24445 0.0
H3946 H 0.27164 0.48271 0.30471 0.0
H3947 H 0.2902 0.49751 0.28695 0.0
H3948 H 0.30158 0.48865 0.31276 0.0
H3949 H 0.24383 0.41446 0.22831 0.0
H3950 H 0.26693 0.40566 0.21328 0.0
H3951 H 0.26056 0.43391 0.21309 0.0
C3952 C 0.25638 0.40685 0.04079 0.0
C3953 C 0.27813 0.41935 0.04913 0.0
C3954 C 0.23806 0.41815 0.03945 0.0
C3955 C 0.24161 0.44254 0.04641 0.0
C3956 C 0.26334 0.45509 0.05583 0.0
C3957 C 0.28128 0.44335 0.05717 0.0
C3958 C 0.21511 0.40408 0.02963 0.0
C3959 C 0.26793 0.4811 0.06339 0.0
C3960 C 0.20435 0.47605 0.01672 0.0
C3961 C 0.19067 0.4824 0.03462 0.0
C3962 C 0.22058 0.46267 0.02017 0.0
C3963 C 0.22319 0.45523 0.04204 0.0
C3964 C 0.20899 0.46094 0.05995 0.0
C3965 C 0.19294 0.47448 0.05606 0.0
C3966 C 0.23529 0.45694 1.00055 0.0
C3967 C 0.21114 0.45324 0.08345 0.0
H3968 H 0.25376 0.3883 0.03461 0.0
H3969 H 0.298 0.45317 0.06366 0.0
H3970 H 0.2022 0.4088 0.04143 0.0
H3971 H 0.21048 0.40794 1.01201 0.0
H3972 H 0.21458 0.38519 0.02753 0.0
H3973 H 0.28533 0.48812 0.0719 0.0
H3974 H 0.26547 0.48905 0.04764 0.0
H3975 H 0.2559 0.48646 0.07603 0.0
H3976 H 0.20243 0.48163 0.99991 0.0
H3977 H 0.18259 0.4794 0.07008 0.0
H3978 H 0.23401 0.43795 0.99572 0.0
H3979 H 0.25315 0.4647 1.0068 0.0
H3980 H 0.23066 0.4634 0.98433 0.0
H3981 H 0.21039 0.4343 0.08052 0.0
H3982 H 0.19772 0.45753 0.0948 0.0
H3983 H 0.22772 0.46173 0.09322 0.0
C3984 C 0.90987 0.97871 0.29279 0.0
C3985 C 0.90771 0.9913 0.27432 0.0
C3986 C 0.8975 0.9557 0.29217 0.0
C3987 C 0.88234 0.94328 0.27215 0.0
C3988 C 0.87988 0.95585 0.25337 0.0
C3989 C 0.8922 0.97925 0.25469 0.0
C3990 C 0.90106 0.94445 0.31319 0.0
C3991 C 0.86466 0.94418 0.23123 0.0
C3992 C 0.86856 0.87453 0.26316 0.0
C3993 C 0.84686 0.86894 0.27102 0.0
C3994 C 0.8797 0.89792 0.26284 0.0
C3995 C 0.86969 0.91745 0.27099 0.0
C3996 C 0.84784 0.91192 0.27902 0.0
C3997 C 0.83688 0.88834 0.27873 0.0
C3998 C 0.90254 0.90171 0.25366 0.0
C3999 C 0.83597 0.93117 0.28849 0.0
H4000 H 0.92178 0.98693 0.30806 0.0
H4001 H 0.89036 0.98771 0.23973 0.0
H4002 H 0.88463 0.93791 0.31948 0.0
H4003 H 0.90911 0.92936 0.30781 0.0
H4004 H 0.91185 0.95654 0.32821 0.0
H4005 H 0.86377 0.95585 0.21837 0.0
H4006 H 0.87085 0.92874 0.22249 0.0
H4007 H 0.84743 0.93804 0.23589 0.0
H4008 H 0.877 0.86043 0.25703 0.0
H4009 H 0.82037 0.88517 0.28506 0.0
H4010 H 0.91533 0.91158 0.26822 0.0
H4011 H 0.90253 0.91219 0.23957 0.0
H4012 H 0.90767 0.88518 0.24633 0.0
H4013 H 0.84637 0.94286 0.30401 0.0
H4014 H 0.81917 0.9246 0.29402 0.0
H4015 H 0.83383 0.94166 0.27476 0.0
C4016 C 0.73809 0.12294 0.73476 0.0
C4017 C 0.72074 0.12696 0.74915 0.0
C4018 C 0.75378 0.14138 0.7299 0.0
C4019 C 0.7522 0.16428 0.7399 0.0
C4020 C 0.73425 0.16846 0.7537 0.0
C4021 C 0.71869 0.14974 0.75805 0.0
C4022 C 0.77252 0.1363 0.71491 0.0
C4023 C 0.73199 0.19271 0.76474 0.0
C4024 C 0.79947 0.21508 0.75939 0.0
C4025 C 0.79407 0.22952 0.74426 0.0
C4026 C 0.78763 0.1923 0.75639 0.0
C4027 C 0.77002 0.18408 0.73784 0.0
C4028 C 0.76671 0.19767 0.72063 0.0
C4029 C 0.77875 0.22051 0.72419 0.0
C4030 C 0.79181 0.17837 0.77508 0.0
C4031 C 0.74848 0.18928 0.70029 0.0
H4032 H 0.7397 0.10537 0.72761 0.0
H4033 H 0.70534 0.15301 0.76912 0.0
H4034 H 0.77517 0.14809 0.70205 0.0
H4035 H 0.78844 0.13921 0.72654 0.0
H4036 H 0.76906 0.11814 0.70499 0.0
H4037 H 0.71656 0.19297 0.77418 0.0
H4038 H 0.74681 0.20103 0.77764 0.0
H4039 H 0.7315 0.20337 0.75087 0.0
H4040 H 0.81118 0.22236 0.77509 0.0
H4041 H 0.77445 0.23195 0.71274 0.0
H4042 H 0.79102 0.15998 0.76691 0.0
H4043 H 0.77855 0.17897 0.78754 0.0
H4044 H 0.80843 0.18529 0.78551 0.0
H4045 H 0.74727 0.17063 0.69293 0.0
H4046 H 0.75149 0.1992 0.68582 0.0
H4047 H 0.73203 0.19153 0.70682 0.0
loop_
_geom_bond_atom_site_label_1
_geom_bond_atom_site_label_2
_geom_bond_distance
_geom_bond_site_symmetry_2
_ccdc_geom_bond_type
Co0 O1 2.216 . S
Co0 O2 2.091 . S
Co0 O4 2.004 . S
Co0 O10 2.021 . S
Co0 O12 2.137 . S
Co0 O13 2.244 . S
O1 Co0 2.216 . S
O1 C8 1.247 . S
O2 Co0 2.091 . S
O2 C8 1.261 . S
C3 O12 1.247 . S
C3 O13 1.272 . S
O4 Co0 2.004 . S
O4 C9 1.259 . S
Co5 O6 2.061 . S
Co5 O11 2.052 . S
Co5 O13 2.135 . S
O6 Co5 2.061 . S
O6 C9 1.235 . S
C7 O10 1.238 . S
C7 O11 1.241 . S
C8 O1 1.247 . S
C8 O2 1.261 . S
C9 O4 1.259 . S
C9 O6 1.235 . S
O10 Co0 2.021 . S
O10 C7 1.238 . S
O11 Co5 2.052 . S
O11 C7 1.241 . S
O12 Co0 2.137 . S
O12 C3 1.247 . S
O13 Co0 2.244 . S
O13 C3 1.272 . S
O13 Co5 2.135 . S
Co14 O15 2.216 . S
Co14 O16 2.091 . S
Co14 O18 2.004 1_655 S
Co14 O24 2.021 . S
Co14 O26 2.137 . S
Co14 O27 2.244 1_655 S
O15 Co14 2.216 . S
O15 C22 1.247 . S
O16 Co14 2.091 . S
O16 C22 1.261 . S
C17 O26 1.247 1_455 S
C17 O27 1.272 . S
O18 Co14 2.004 1_455 S
O18 C23 1.259 . S
Co19 O20 2.061 . S
Co19 O25 2.052 . S
Co19 O27 2.135 . S
O20 Co19 2.061 . S
O20 C23 1.235 . S
C21 O24 1.238 . S
C21 O25 1.241 1_655 S
C22 O15 1.247 . S
C22 O16 1.261 . S
C23 O18 1.259 . S
C23 O20 1.235 . S
O24 Co14 2.021 . S
O24 C21 1.238 . S
O25 Co19 2.052 . S
O25 C21 1.241 1_455 S
O26 Co14 2.137 . S
O26 C17 1.247 1_655 S
O27 Co14 2.244 1_455 S
O27 C17 1.272 . S
O27 Co19 2.135 . S
Co28 O29 2.216 . S
Co28 O30 2.091 . S
Co28 O32 2.004 . S
Co28 O38 2.021 . S
Co28 O40 2.137 . S
Co28 O41 2.244 . S
O29 Co28 2.216 . S
O29 C36 1.247 . S
O30 Co28 2.091 . S
O30 C36 1.261 . S
C31 O40 1.247 . S
C31 O41 1.272 . S
O32 Co28 2.004 . S
O32 C37 1.259 . S
Co33 O34 2.061 . S
Co33 O39 2.052 . S
Co33 O41 2.135 . S
O34 Co33 2.061 . S
O34 C37 1.235 . S
C35 O38 1.238 . S
C35 O39 1.241 . S
C36 O29 1.247 . S
C36 O30 1.261 . S
C37 O32 1.259 . S
C37 O34 1.235 . S
O38 Co28 2.021 . S
O38 C35 1.238 . S
O39 Co33 2.052 . S
O39 C35 1.241 . S
O40 Co28 2.137 . S
O40 C31 1.247 . S
O41 Co28 2.244 . S
O41 C31 1.272 . S
O41 Co33 2.135 . S
Co42 O43 2.216 . S
Co42 O44 2.091 . S
Co42 O46 2.004 . S
Co42 O52 2.021 . S
Co42 O54 2.137 . S
Co42 O55 2.244 . S
O43 Co42 2.216 . S
O43 C50 1.247 . S
O44 Co42 2.091 . S
O44 C50 1.261 . S
C45 O54 1.247 . S
C45 O55 1.272 . S
O46 Co42 2.004 . S
O46 C51 1.259 . S
Co47 O48 2.061 . S
Co47 O53 2.052 . S
Co47 O55 2.135 . S
O48 Co47 2.061 . S
O48 C51 1.235 . S
C49 O52 1.238 . S
C49 O53 1.241 . S
C50 O43 1.247 . S
C50 O44 1.261 . S
C51 O46 1.259 . S
C51 O48 1.235 . S
O52 Co42 2.021 . S
O52 C49 1.238 . S
O53 Co47 2.052 . S
O53 C49 1.241 . S
O54 Co42 2.137 . S
O54 C45 1.247 . S
O55 Co42 2.244 . S
O55 C45 1.272 . S
O55 Co47 2.135 . S
Co56 O57 2.216 . S
Co56 O58 2.091 . S
Co56 O60 2.004 . S
Co56 O66 2.021 . S
Co56 O68 2.137 . S
Co56 O69 2.244 . S
O57 Co56 2.216 . S
O57 C64 1.247 . S
O58 Co56 2.091 . S
O58 C64 1.261 . S
C59 O68 1.247 . S
C59 O69 1.272 . S
O60 Co56 2.004 . S
O60 C65 1.259 . S
Co61 O62 2.061 . S
Co61 O67 2.052 . S
Co61 O69 2.135 . S
O62 Co61 2.061 . S
O62 C65 1.235 . S
C63 O66 1.238 . S
C63 O67 1.241 . S
C64 O57 1.247 . S
C64 O58 1.261 . S
C65 O60 1.259 . S
C65 O62 1.235 . S
O66 Co56 2.021 . S
O66 C63 1.238 . S
O67 Co61 2.052 . S
O67 C63 1.241 . S
O68 Co56 2.137 . S
O68 C59 1.247 . S
O69 Co56 2.244 . S
O69 C59 1.272 . S
O69 Co61 2.135 . S
Co70 O71 2.216 . S
Co70 O72 2.091 . S
Co70 O74 2.004 . S
Co70 O80 2.021 . S
Co70 O82 2.137 . S
Co70 O83 2.244 . S
O71 Co70 2.216 . S
O71 C78 1.247 . S
O72 Co70 2.091 . S
O72 C78 1.261 . S
C73 O82 1.247 . S
C73 O83 1.272 . S
O74 Co70 2.004 . S
O74 C79 1.259 . S
Co75 O76 2.061 . S
Co75 O81 2.052 . S
Co75 O83 2.135 . S
O76 Co75 2.061 . S
O76 C79 1.235 . S
C77 O80 1.238 . S
C77 O81 1.241 . S
C78 O71 1.247 . S
C78 O72 1.261 . S
C79 O74 1.259 . S
C79 O76 1.235 . S
O80 Co70 2.021 . S
O80 C77 1.238 . S
O81 Co75 2.052 . S
O81 C77 1.241 . S
O82 Co70 2.137 . S
O82 C73 1.247 . S
O83 Co70 2.244 . S
O83 C73 1.272 . S
O83 Co75 2.135 . S
Co84 O85 2.216 . S
Co84 O86 2.091 . S
Co84 O88 2.004 . S
Co84 O94 2.021 . S
Co84 O96 2.137 . S
Co84 O97 2.244 . S
O85 Co84 2.216 . S
O85 C92 1.247 . S
O86 Co84 2.091 . S
O86 C92 1.261 . S
C87 O96 1.247 . S
C87 O97 1.272 . S
O88 Co84 2.004 . S
O88 C93 1.259 . S
Co89 O90 2.061 . S
Co89 O95 2.052 . S
Co89 O97 2.135 . S
O90 Co89 2.061 . S
O90 C93 1.235 . S
C91 O94 1.238 . S
C91 O95 1.241 . S
C92 O85 1.247 . S
C92 O86 1.261 . S
C93 O88 1.259 . S
C93 O90 1.235 . S
O94 Co84 2.021 . S
O94 C91 1.238 . S
O95 Co89 2.052 . S
O95 C91 1.241 . S
O96 Co84 2.137 . S
O96 C87 1.247 . S
O97 Co84 2.244 . S
O97 C87 1.272 . S
O97 Co89 2.135 . S
Co98 O99 2.216 . S
Co98 O100 2.091 . S
Co98 O102 2.004 1_455 S
Co98 O108 2.021 . S
Co98 O110 2.137 . S
Co98 O111 2.244 . S
O99 Co98 2.216 . S
O99 C106 1.247 . S
O100 Co98 2.091 . S
O100 C106 1.261 . S
C101 O110 1.247 . S
C101 O111 1.272 . S
O102 Co98 2.004 1_655 S
O102 C107 1.259 . S
Co103 O104 2.061 . S
Co103 O109 2.053 . S
Co103 O111 2.135 1_655 S
O104 Co103 2.061 . S
O104 C107 1.235 . S
C105 O108 1.238 . S
C105 O109 1.240 1_455 S
C106 O99 1.247 . S
C106 O100 1.261 . S
C107 O102 1.259 . S
C107 O104 1.235 . S
O108 Co98 2.021 . S
O108 C105 1.238 . S
O109 Co103 2.053 . S
O109 C105 1.240 1_655 S
O110 Co98 2.137 . S
O110 C101 1.247 . S
O111 Co98 2.244 . S
O111 C101 1.272 . S
O111 Co103 2.135 1_455 S
Co112 O113 2.216 . S
Co112 O114 2.091 . S
Co112 O116 2.004 1_545 S
Co112 O122 2.021 . S
Co112 O124 2.137 . S
Co112 O125 2.244 . S
O113 Co112 2.216 . S
O113 C120 1.247 . S
O114 Co112 2.091 . S
O114 C120 1.261 . S
C115 O124 1.247 . S
C115 O125 1.272 . S
O116 Co112 2.004 1_565 S
O116 C121 1.259 . S
Co117 O118 2.061 . S
Co117 O123 2.052 . S
Co117 O125 2.135 1_565 S
O118 Co117 2.061 . S
O118 C121 1.235 . S
C119 O122 1.238 1_565 S
C119 O123 1.241 . S
C120 O113 1.247 . S
C120 O114 1.261 . S
C121 O116 1.259 . S
C121 O118 1.235 . S
O122 Co112 2.021 . S
O122 C119 1.238 1_545 S
O123 Co117 2.052 . S
O123 C119 1.241 . S
O124 Co112 2.137 . S
O124 C115 1.247 . S
O125 Co112 2.244 . S
O125 C115 1.272 . S
O125 Co117 2.135 1_545 S
Co126 O127 2.216 . S
Co126 O128 2.091 . S
Co126 O130 2.004 . S
Co126 O136 2.021 . S
Co126 O138 2.137 . S
Co126 O139 2.244 . S
O127 Co126 2.216 . S
O127 C134 1.247 . S
O128 Co126 2.091 . S
O128 C134 1.261 . S
C129 O138 1.247 . S
C129 O139 1.272 . S
O130 Co126 2.004 . S
O130 C135 1.259 . S
Co131 O132 2.061 . S
Co131 O137 2.052 . S
Co131 O139 2.135 . S
O132 Co131 2.061 . S
O132 C135 1.235 . S
C133 O136 1.238 . S
C133 O137 1.241 . S
C134 O127 1.247 . S
C134 O128 1.261 . S
C135 O130 1.259 . S
C135 O132 1.235 . S
O136 Co126 2.021 . S
O136 C133 1.238 . S
O137 Co131 2.052 . S
O137 C133 1.241 . S
O138 Co126 2.137 . S
O138 C129 1.247 . S
O139 Co126 2.244 . S
O139 C129 1.272 . S
O139 Co131 2.135 . S
Co140 O141 2.216 1_545 S
Co140 O142 2.091 1_545 S
Co140 O144 2.004 . S
Co140 O150 2.021 . S
Co140 O152 2.137 . S
Co140 O153 2.244 . S
O141 Co140 2.216 1_565 S
O141 C148 1.247 . S
O142 Co140 2.091 1_565 S
O142 C148 1.261 . S
C143 O152 1.247 . S
C143 O153 1.272 . S
O144 Co140 2.004 . S
O144 C149 1.259 . S
Co145 O146 2.061 . S
Co145 O151 2.052 . S
Co145 O153 2.135 . S
O146 Co145 2.061 . S
O146 C149 1.235 . S
C147 O150 1.238 . S
C147 O151 1.241 . S
C148 O141 1.247 . S
C148 O142 1.261 . S
C149 O144 1.259 . S
C149 O146 1.235 . S
O150 Co140 2.021 . S
O150 C147 1.238 . S
O151 Co145 2.052 . S
O151 C147 1.241 . S
O152 Co140 2.137 . S
O152 C143 1.247 . S
O153 Co140 2.244 . S
O153 C143 1.272 . S
O153 Co145 2.135 . S
Co154 O155 2.216 . S
Co154 O156 2.091 . S
Co154 O158 2.004 . S
Co154 O164 2.021 . S
Co154 O166 2.137 1_554 S
Co154 O167 2.244 1_554 S
O155 Co154 2.216 . S
O155 C162 1.247 . S
O156 Co154 2.091 . S
O156 C162 1.261 . S
C157 O166 1.247 . S
C157 O167 1.272 . S
O158 Co154 2.004 . S
O158 C163 1.259 . S
Co159 O160 2.061 . S
Co159 O165 2.052 . S
Co159 O167 2.135 1_554 S
O160 Co159 2.061 . S
O160 C163 1.235 . S
C161 O164 1.238 . S
C161 O165 1.241 . S
C162 O155 1.247 . S
C162 O156 1.261 . S
C163 O158 1.259 . S
C163 O160 1.235 . S
O164 Co154 2.021 . S
O164 C161 1.238 . S
O165 Co159 2.052 . S
O165 C161 1.241 . S
O166 Co154 2.137 1_556 S
O166 C157 1.247 . S
O167 Co154 2.244 1_556 S
O167 C157 1.272 . S
O167 Co159 2.135 1_556 S
Co168 O169 2.216 . S
Co168 O170 2.091 . S
Co168 O172 2.004 . S
Co168 O178 2.021 . S
Co168 O180 2.137 1_554 S
Co168 O181 2.244 1_554 S
O169 Co168 2.216 . S
O169 C176 1.247 . S
O170 Co168 2.091 . S
O170 C176 1.261 . S
C171 O180 1.247 . S
C171 O181 1.272 . S
O172 Co168 2.004 . S
O172 C177 1.259 . S
Co173 O174 2.061 . S
Co173 O179 2.052 . S
Co173 O181 2.135 1_554 S
O174 Co173 2.061 . S
O174 C177 1.235 . S
C175 O178 1.238 . S
C175 O179 1.241 . S
C176 O169 1.247 . S
C176 O170 1.261 . S
C177 O172 1.259 . S
C177 O174 1.235 . S
O178 Co168 2.021 . S
O178 C175 1.238 . S
O179 Co173 2.052 . S
O179 C175 1.241 . S
O180 Co168 2.137 1_556 S
O180 C171 1.247 . S
O181 Co168 2.244 1_556 S
O181 C171 1.272 . S
O181 Co173 2.135 1_556 S
Co182 O183 2.216 . S
Co182 O184 2.091 . S
Co182 O186 2.004 . S
Co182 O192 2.021 . S
Co182 O194 2.137 1_554 S
Co182 O195 2.244 . S
O183 Co182 2.216 . S
O183 C190 1.247 . S
O184 Co182 2.091 . S
O184 C190 1.261 . S
C185 O194 1.247 . S
C185 O195 1.272 1_556 S
O186 Co182 2.004 . S
O186 C191 1.259 . S
Co187 O188 2.061 . S
Co187 O193 2.052 . S
Co187 O195 2.135 . S
O188 Co187 2.061 . S
O188 C191 1.235 . S
C189 O192 1.238 . S
C189 O193 1.241 . S
C190 O183 1.247 . S
C190 O184 1.261 . S
C191 O186 1.259 . S
C191 O188 1.235 . S
O192 Co182 2.021 . S
O192 C189 1.238 . S
O193 Co187 2.052 . S
O193 C189 1.241 . S
O194 Co182 2.137 1_556 S
O194 C185 1.247 . S
O195 Co182 2.244 . S
O195 C185 1.272 1_554 S
O195 Co187 2.135 . S
Co196 O197 2.216 . S
Co196 O198 2.091 . S
Co196 O200 2.004 . S
Co196 O206 2.021 . S
Co196 O208 2.137 . S
Co196 O209 2.244 . S
O197 Co196 2.216 . S
O197 C204 1.247 . S
O198 Co196 2.091 . S
O198 C204 1.261 . S
C199 O208 1.247 . S
C199 O209 1.272 . S
O200 Co196 2.004 . S
O200 C205 1.259 . S
Co201 O202 2.061 . S
Co201 O207 2.052 . S
Co201 O209 2.135 . S
O202 Co201 2.061 . S
O202 C205 1.235 . S
C203 O206 1.238 . S
C203 O207 1.241 . S
C204 O197 1.247 . S
C204 O198 1.261 . S
C205 O200 1.259 . S
C205 O202 1.235 . S
O206 Co196 2.021 . S
O206 C203 1.238 . S
O207 Co201 2.052 . S
O207 C203 1.241 . S
O208 Co196 2.137 . S
O208 C199 1.247 . S
O209 Co196 2.244 . S
O209 C199 1.272 . S
O209 Co201 2.135 . S
Co210 O211 2.216 . S
Co210 O212 2.091 . S
Co210 O214 2.004 . S
Co210 O220 2.021 . S
Co210 O222 2.137 . S
Co210 O223 2.244 . S
O211 Co210 2.216 . S
O211 C218 1.247 . S
O212 Co210 2.091 . S
O212 C218 1.261 . S
C213 O222 1.247 . S
C213 O223 1.272 . S
O214 Co210 2.004 . S
O214 C219 1.259 . S
Co215 O216 2.061 . S
Co215 O221 2.052 . S
Co215 O223 2.135 . S
O216 Co215 2.061 . S
O216 C219 1.235 . S
C217 O220 1.238 . S
C217 O221 1.241 . S
C218 O211 1.247 . S
C218 O212 1.261 . S
C219 O214 1.259 . S
C219 O216 1.235 . S
O220 Co210 2.021 . S
O220 C217 1.238 . S
O221 Co215 2.052 . S
O221 C217 1.241 . S
O222 Co210 2.137 . S
O222 C213 1.247 . S
O223 Co210 2.244 . S
O223 C213 1.272 . S
O223 Co215 2.135 . S
Co224 O225 2.216 . S
Co224 O226 2.091 . S
Co224 O228 2.004 . S
Co224 O234 2.021 . S
Co224 O236 2.137 . S
Co224 O237 2.244 . S
O225 Co224 2.216 . S
O225 C232 1.247 . S
O226 Co224 2.091 . S
O226 C232 1.261 . S
C227 O236 1.247 . S
C227 O237 1.272 . S
O228 Co224 2.004 . S
O228 C233 1.259 . S
Co229 O230 2.061 . S
Co229 O235 2.052 . S
Co229 O237 2.135 . S
O230 Co229 2.061 . S
O230 C233 1.235 . S
C231 O234 1.238 . S
C231 O235 1.241 . S
C232 O225 1.247 . S
C232 O226 1.261 . S
C233 O228 1.259 . S
C233 O230 1.235 . S
O234 Co224 2.021 . S
O234 C231 1.238 . S
O235 Co229 2.052 . S
O235 C231 1.241 . S
O236 Co224 2.137 . S
O236 C227 1.247 . S
O237 Co224 2.244 . S
O237 C227 1.272 . S
O237 Co229 2.135 . S
Co238 O239 2.216 . S
Co238 O240 2.091 . S
Co238 O242 2.004 . S
Co238 O248 2.021 . S
Co238 O250 2.137 . S
Co238 O251 2.244 . S
O239 Co238 2.216 . S
O239 C246 1.247 . S
O240 Co238 2.091 . S
O240 C246 1.261 . S
C241 O250 1.247 . S
C241 O251 1.272 . S
O242 Co238 2.004 . S
O242 C247 1.259 . S
Co243 O244 2.061 . S
Co243 O249 2.052 . S
Co243 O251 2.135 . S
O244 Co243 2.061 . S
O244 C247 1.235 . S
C245 O248 1.238 . S
C245 O249 1.241 . S
C246 O239 1.247 . S
C246 O240 1.261 . S
C247 O242 1.259 . S
C247 O244 1.235 . S
O248 Co238 2.021 . S
O248 C245 1.238 . S
O249 Co243 2.052 . S
O249 C245 1.241 . S
O250 Co238 2.137 . S
O250 C241 1.247 . S
O251 Co238 2.244 . S
O251 C241 1.272 . S
O251 Co243 2.135 . S
Co252 O253 2.216 . S
Co252 O254 2.091 . S
Co252 O256 2.004 . S
Co252 O262 2.021 . S
Co252 O264 2.137 . S
Co252 O265 2.244 . S
O253 Co252 2.216 . S
O253 C260 1.247 . S
O254 Co252 2.091 . S
O254 C260 1.261 . S
C255 O264 1.247 . S
C255 O265 1.272 . S
O256 Co252 2.004 . S
O256 C261 1.259 . S
Co257 O258 2.061 . S
Co257 O263 2.052 . S
Co257 O265 2.135 . S
O258 Co257 2.061 . S
O258 C261 1.235 . S
C259 O262 1.238 . S
C259 O263 1.241 . S
C260 O253 1.247 . S
C260 O254 1.261 . S
C261 O256 1.259 . S
C261 O258 1.235 . S
O262 Co252 2.021 . S
O262 C259 1.238 . S
O263 Co257 2.052 . S
O263 C259 1.241 . S
O264 Co252 2.137 . S
O264 C255 1.247 . S
O265 Co252 2.244 . S
O265 C255 1.272 . S
O265 Co257 2.135 . S
Co266 O267 2.216 . S
Co266 O268 2.091 . S
Co266 O270 2.004 . S
Co266 O276 2.021 . S
Co266 O278 2.137 . S
Co266 O279 2.244 . S
O267 Co266 2.216 . S
O267 C274 1.247 . S
O268 Co266 2.091 . S
O268 C274 1.261 . S
C269 O278 1.247 . S
C269 O279 1.272 . S
O270 Co266 2.004 . S
O270 C275 1.259 . S
Co271 O272 2.061 . S
Co271 O277 2.052 . S
Co271 O279 2.135 . S
O272 Co271 2.061 . S
O272 C275 1.235 . S
C273 O276 1.238 . S
C273 O277 1.241 . S
C274 O267 1.247 . S
C274 O268 1.261 . S
C275 O270 1.259 . S
C275 O272 1.235 . S
O276 Co266 2.021 . S
O276 C273 1.238 . S
O277 Co271 2.052 . S
O277 C273 1.241 . S
O278 Co266 2.137 . S
O278 C269 1.247 . S
O279 Co266 2.244 . S
O279 C269 1.272 . S
O279 Co271 2.135 . S
Co280 O281 2.216 . S
Co280 O282 2.091 . S
Co280 O284 2.004 1_554 S
Co280 O290 2.021 . S
Co280 O292 2.137 1_554 S
Co280 O293 2.244 1_554 S
O281 Co280 2.216 . S
O281 C288 1.247 . S
O282 Co280 2.091 . S
O282 C288 1.261 . S
C283 O292 1.247 . S
C283 O293 1.272 . S
O284 Co280 2.004 1_556 S
O284 C289 1.259 1_556 S
Co285 O286 2.061 . S
Co285 O291 2.052 . S
Co285 O293 2.135 1_554 S
O286 Co285 2.061 . S
O286 C289 1.235 . S
C287 O290 1.238 . S
C287 O291 1.241 . S
C288 O281 1.247 . S
C288 O282 1.261 . S
C289 O284 1.259 1_554 S
C289 O286 1.235 . S
O290 Co280 2.021 . S
O290 C287 1.238 . S
O291 Co285 2.052 . S
O291 C287 1.241 . S
O292 Co280 2.137 1_556 S
O292 C283 1.247 . S
O293 Co280 2.244 1_556 S
O293 C283 1.272 . S
O293 Co285 2.135 1_556 S
Co294 O295 2.216 . S
Co294 O296 2.091 . S
Co294 O298 2.004 . S
Co294 O304 2.021 . S
Co294 O306 2.137 . S
Co294 O307 2.244 . S
O295 Co294 2.216 . S
O295 C302 1.247 . S
O296 Co294 2.091 . S
O296 C302 1.261 . S
C297 O306 1.247 . S
C297 O307 1.272 . S
O298 Co294 2.004 . S
O298 C303 1.259 . S
Co299 O300 2.061 . S
Co299 O305 2.052 . S
Co299 O307 2.135 . S
O300 Co299 2.061 . S
O300 C303 1.235 . S
C301 O304 1.238 . S
C301 O305 1.241 . S
C302 O295 1.247 . S
C302 O296 1.261 . S
C303 O298 1.259 . S
C303 O300 1.235 . S
O304 Co294 2.021 . S
O304 C301 1.238 . S
O305 Co299 2.052 . S
O305 C301 1.241 . S
O306 Co294 2.137 . S
O306 C297 1.247 . S
O307 Co294 2.244 . S
O307 C297 1.272 . S
O307 Co299 2.135 . S
Co308 O309 2.216 . S
Co308 O310 2.091 . S
Co308 O312 2.004 . S
Co308 O318 2.021 . S
Co308 O320 2.137 . S
Co308 O321 2.244 . S
O309 Co308 2.216 . S
O309 C316 1.247 . S
O310 Co308 2.091 . S
O310 C316 1.261 . S
C311 O320 1.247 . S
C311 O321 1.272 . S
O312 Co308 2.004 . S
O312 C317 1.259 . S
Co313 O314 2.061 . S
Co313 O319 2.052 . S
Co313 O321 2.135 . S
O314 Co313 2.061 . S
O314 C317 1.235 . S
C315 O318 1.238 . S
C315 O319 1.241 . S
C316 O309 1.247 . S
C316 O310 1.261 . S
C317 O312 1.259 . S
C317 O314 1.235 . S
O318 Co308 2.021 . S
O318 C315 1.238 . S
O319 Co313 2.052 . S
O319 C315 1.241 . S
O320 Co308 2.137 . S
O320 C311 1.247 . S
O321 Co308 2.244 . S
O321 C311 1.272 . S
O321 Co313 2.135 . S
Co322 O323 2.216 . S
Co322 O324 2.091 . S
Co322 O326 2.004 . S
Co322 O332 2.021 . S
Co322 O334 2.137 . S
Co322 O335 2.244 . S
O323 Co322 2.216 . S
O323 C330 1.247 . S
O324 Co322 2.091 . S
O324 C330 1.261 . S
C325 O334 1.247 . S
C325 O335 1.272 . S
O326 Co322 2.004 . S
O326 C331 1.259 . S
Co327 O328 2.061 . S
Co327 O333 2.052 . S
Co327 O335 2.135 . S
O328 Co327 2.061 . S
O328 C331 1.235 . S
C329 O332 1.238 . S
C329 O333 1.241 . S
C330 O323 1.247 . S
C330 O324 1.261 . S
C331 O326 1.259 . S
C331 O328 1.235 . S
O332 Co322 2.021 . S
O332 C329 1.238 . S
O333 Co327 2.052 . S
O333 C329 1.241 . S
O334 Co322 2.137 . S
O334 C325 1.247 . S
O335 Co322 2.244 . S
O335 C325 1.272 . S
O335 Co327 2.135 . S
Eu336 C345 2.828 . S
Eu336 O347 2.392 . S
Eu336 O349 2.418 . S
Eu336 O354 2.373 . S
Eu336 O357 2.488 . S
Eu336 O358 2.471 1_554 S
Eu336 O359 2.349 1_554 S
Eu337 O346 2.373 . S
Eu337 O350 2.488 1_544 S
Eu337 O351 2.471 1_545 S
Eu337 O352 2.349 . S
Eu337 O355 2.392 1_554 S
Eu337 O356 2.418 1_554 S
Eu337 C366 2.828 1_545 S
C338 O356 1.244 . S
C338 O359 1.265 . S
C339 C340 1.379 1_554 S
C339 C343 1.373 . S
C339 C345 1.505 . S
C340 C339 1.379 1_556 S
C340 C342 1.369 . S
C340 H368 0.930 . S
C341 C343 1.383 . S
C341 C344 1.382 1_554 S
C341 H369 0.930 . S
C342 C340 1.369 . S
C342 C344 1.392 . S
C342 H370 0.930 . S
C343 C339 1.373 . S
C343 C341 1.383 . S
C343 H371 0.931 . S
C344 C341 1.382 1_556 S
C344 C342 1.392 . S
C345 Eu336 2.828 . S
C345 C339 1.505 . S
C345 O357 1.249 . S
C345 O358 1.244 1_554 S
O346 Eu337 2.373 . S
O346 C348 1.258 . S
O347 Eu336 2.392 . S
O347 C348 1.242 . S
C348 O346 1.258 . S
C348 O347 1.242 . S
O349 Eu336 2.418 . S
O349 C353 1.244 . S
O350 Eu337 2.488 1_566 S
O350 C366 1.249 1_556 S
O351 Eu337 2.471 1_565 S
O351 C366 1.244 . S
O352 Eu337 2.349 . S
O352 C353 1.265 . S
C353 O349 1.244 . S
C353 O352 1.265 . S
O354 Eu336 2.373 . S
O354 C367 1.258 . S
O355 Eu337 2.392 1_556 S
O355 C367 1.242 1_556 S
O356 Eu337 2.418 1_556 S
O356 C338 1.244 . S
O357 Eu336 2.488 . S
O357 C345 1.249 . S
O358 Eu336 2.471 1_556 S
O358 C345 1.244 1_556 S
O359 Eu336 2.349 1_556 S
O359 C338 1.265 . S
C360 C361 1.379 . S
C360 C364 1.373 . S
C360 C366 1.505 . S
C361 C360 1.379 . S
C361 C363 1.369 . S
C361 H372 0.930 . S
C362 C364 1.383 . S
C362 C365 1.382 . S
C362 H373 0.930 . S
C363 C361 1.369 . S
C363 C365 1.392 . S
C363 H374 0.930 . S
C364 C360 1.373 . S
C364 C362 1.383 . S
C364 H375 0.931 1_554 S
C365 C362 1.382 . S
C365 C363 1.392 . S
C366 Eu337 2.828 1_565 S
C366 O350 1.249 1_554 S
C366 O351 1.244 . S
C366 C360 1.505 . S
C367 O354 1.258 . S
C367 O355 1.242 1_554 S
H368 C340 0.930 . S
H369 C341 0.930 . S
H370 C342 0.930 . S
H371 C343 0.931 . S
H372 C361 0.930 . S
H373 C362 0.930 . S
H374 C363 0.930 . S
H375 C364 0.931 1_556 S
Eu376 C385 2.828 . S
Eu376 O387 2.392 . S
Eu376 O389 2.418 . S
Eu376 O394 2.373 . S
Eu376 O397 2.488 . S
Eu376 O398 2.471 . S
Eu376 O399 2.349 . S
Eu377 O386 2.373 . S
Eu377 O390 2.488 . S
Eu377 O391 2.471 . S
Eu377 O392 2.349 . S
Eu377 O395 2.392 . S
Eu377 O396 2.418 . S
Eu377 C406 2.828 . S
C378 O396 1.244 . S
C378 O399 1.265 . S
C379 C380 1.379 . S
C379 C383 1.373 . S
C379 C385 1.505 . S
C380 C379 1.379 . S
C380 C382 1.369 . S
C380 H408 0.930 . S
C381 C383 1.383 . S
C381 C384 1.382 . S
C381 H409 0.930 . S
C382 C380 1.369 . S
C382 C384 1.392 . S
C382 H410 0.930 . S
C383 C379 1.373 . S
C383 C381 1.383 . S
C383 H411 0.931 . S
C384 C381 1.382 . S
C384 C382 1.392 . S
C385 Eu376 2.828 . S
C385 C379 1.505 . S
C385 O397 1.249 . S
C385 O398 1.244 . S
O386 Eu377 2.373 . S
O386 C388 1.258 . S
O387 Eu376 2.392 . S
O387 C388 1.242 . S
C388 O386 1.258 . S
C388 O387 1.242 . S
O389 Eu376 2.418 . S
O389 C393 1.244 . S
O390 Eu377 2.488 . S
O390 C406 1.249 . S
O391 Eu377 2.471 . S
O391 C406 1.244 . S
O392 Eu377 2.349 . S
O392 C393 1.265 . S
C393 O389 1.244 . S
C393 O392 1.265 . S
O394 Eu376 2.373 . S
O394 C407 1.258 . S
O395 Eu377 2.392 . S
O395 C407 1.242 . S
O396 Eu377 2.418 . S
O396 C378 1.244 . S
O397 Eu376 2.488 . S
O397 C385 1.249 . S
O398 Eu376 2.471 . S
O398 C385 1.244 . S
O399 Eu376 2.349 . S
O399 C378 1.265 . S
C400 C401 1.379 . S
C400 C404 1.373 . S
C400 C406 1.505 . S
C401 C400 1.379 . S
C401 C403 1.369 . S
C401 H412 0.930 . S
C402 C404 1.383 . S
C402 C405 1.382 . S
C402 H413 0.930 . S
C403 C401 1.369 . S
C403 C405 1.392 . S
C403 H414 0.930 . S
C404 C400 1.373 . S
C404 C402 1.383 . S
C404 H415 0.931 . S
C405 C402 1.382 . S
C405 C403 1.392 . S
C406 Eu377 2.828 . S
C406 O390 1.249 . S
C406 O391 1.244 . S
C406 C400 1.505 . S
C407 O394 1.258 . S
C407 O395 1.242 . S
H408 C380 0.930 . S
H409 C381 0.930 . S
H410 C382 0.930 . S
H411 C383 0.931 . S
H412 C401 0.930 . S
H413 C402 0.930 . S
H414 C403 0.930 . S
H415 C404 0.931 . S
Eu416 C425 2.828 . S
Eu416 O427 2.392 . S
Eu416 O429 2.418 . S
Eu416 O434 2.373 1_545 S
Eu416 O437 2.488 . S
Eu416 O438 2.471 . S
Eu416 O439 2.349 . S
Eu417 O426 2.373 . S
Eu417 O430 2.488 . S
Eu417 O431 2.471 . S
Eu417 O432 2.349 . S
Eu417 O435 2.392 1_545 S
Eu417 O436 2.418 . S
Eu417 C446 2.828 . S
C418 O436 1.244 . S
C418 O439 1.265 . S
C419 C420 1.379 . S
C419 C423 1.373 . S
C419 C425 1.505 1_565 S
C420 C419 1.379 . S
C420 C422 1.369 . S
C420 H448 0.930 . S
C421 C423 1.383 . S
C421 C424 1.382 . S
C421 H449 0.930 . S
C422 C420 1.369 . S
C422 C424 1.392 . S
C422 H450 0.930 . S
C423 C419 1.373 . S
C423 C421 1.383 . S
C423 H451 0.904 1_565 S
C424 C421 1.382 . S
C424 C422 1.392 . S
C425 Eu416 2.828 . S
C425 C419 1.505 1_545 S
C425 O437 1.249 . S
C425 O438 1.244 . S
O426 Eu417 2.373 . S
O426 C428 1.258 . S
O427 Eu416 2.392 . S
O427 C428 1.242 . S
C428 O426 1.258 . S
C428 O427 1.242 . S
O429 Eu416 2.418 . S
O429 C433 1.244 . S
O430 Eu417 2.488 . S
O430 C446 1.249 . S
O431 Eu417 2.471 . S
O431 C446 1.244 . S
O432 Eu417 2.349 . S
O432 C433 1.265 . S
C433 O429 1.244 . S
C433 O432 1.265 . S
O434 Eu416 2.373 1_565 S
O434 C447 1.258 . S
O435 Eu417 2.392 1_565 S
O435 C447 1.242 . S
O436 Eu417 2.418 . S
O436 C418 1.244 . S
O437 Eu416 2.488 . S
O437 C425 1.249 . S
O438 Eu416 2.471 . S
O438 C425 1.244 . S
O439 Eu416 2.349 . S
O439 C418 1.265 . S
C440 C441 1.379 . S
C440 C444 1.373 . S
C440 C446 1.505 . S
C441 C440 1.379 . S
C441 C443 1.369 . S
C441 H452 0.930 . S
C442 C444 1.383 . S
C442 C445 1.382 . S
C442 H453 0.930 . S
C443 C441 1.369 . S
C443 C445 1.392 . S
C443 H454 0.930 . S
C444 C440 1.373 . S
C444 C442 1.383 . S
C444 H455 0.931 . S
C445 C442 1.382 . S
C445 C443 1.392 . S
C446 Eu417 2.828 . S
C446 O430 1.249 . S
C446 O431 1.244 . S
C446 C440 1.505 . S
C447 O434 1.258 . S
C447 O435 1.242 . S
H448 C420 0.930 . S
H449 C421 0.930 . S
H450 C422 0.930 . S
H451 C423 0.904 1_545 S
H452 C441 0.930 . S
H453 C442 0.930 . S
H454 C443 0.930 . S
H455 C444 0.931 . S
Eu456 C465 2.828 . S
Eu456 O467 2.392 . S
Eu456 O469 2.418 . S
Eu456 O474 2.373 . S
Eu456 O477 2.488 . S
Eu456 O478 2.471 . S
Eu456 O479 2.349 . S
Eu457 O466 2.373 . S
Eu457 O470 2.488 . S
Eu457 O471 2.471 . S
Eu457 O472 2.349 . S
Eu457 O475 2.392 . S
Eu457 O476 2.418 . S
Eu457 C486 2.828 . S
C458 O476 1.244 . S
C458 O479 1.265 . S
C459 C460 1.379 . S
C459 C463 1.373 . S
C459 C465 1.505 . S
C460 C459 1.379 . S
C460 C462 1.369 . S
C460 H488 0.930 . S
C461 C463 1.383 . S
C461 C464 1.382 . S
C461 H489 0.930 . S
C462 C460 1.369 . S
C462 C464 1.392 . S
C462 H490 0.930 . S
C463 C459 1.373 . S
C463 C461 1.383 . S
C463 H491 0.931 . S
C464 C461 1.382 . S
C464 C462 1.392 . S
C465 Eu456 2.828 . S
C465 C459 1.505 . S
C465 O477 1.249 . S
C465 O478 1.244 . S
O466 Eu457 2.373 . S
O466 C468 1.258 . S
O467 Eu456 2.392 . S
O467 C468 1.242 . S
C468 O466 1.258 . S
C468 O467 1.242 . S
O469 Eu456 2.418 . S
O469 C473 1.244 . S
O470 Eu457 2.488 . S
O470 C486 1.249 . S
O471 Eu457 2.471 . S
O471 C486 1.244 . S
O472 Eu457 2.349 . S
O472 C473 1.265 . S
C473 O469 1.244 . S
C473 O472 1.265 . S
O474 Eu456 2.373 . S
O474 C487 1.258 . S
O475 Eu457 2.392 . S
O475 C487 1.242 . S
O476 Eu457 2.418 . S
O476 C458 1.244 . S
O477 Eu456 2.488 . S
O477 C465 1.249 . S
O478 Eu456 2.471 . S
O478 C465 1.244 . S
O479 Eu456 2.349 . S
O479 C458 1.265 . S
C480 C481 1.379 . S
C480 C484 1.373 . S
C480 C486 1.505 . S
C481 C480 1.379 . S
C481 C483 1.369 . S
C481 H492 0.930 . S
C482 C484 1.383 . S
C482 C485 1.382 . S
C482 H493 0.930 . S
C483 C481 1.369 . S
C483 C485 1.392 . S
C483 H494 0.930 . S
C484 C480 1.373 . S
C484 C482 1.383 . S
C484 H495 0.931 . S
C485 C482 1.382 . S
C485 C483 1.392 . S
C486 Eu457 2.828 . S
C486 O470 1.249 . S
C486 O471 1.244 . S
C486 C480 1.505 . S
C487 O474 1.258 . S
C487 O475 1.242 . S
H488 C460 0.930 . S
H489 C461 0.930 . S
H490 C462 0.930 . S
H491 C463 0.931 . S
H492 C481 0.930 . S
H493 C482 0.930 . S
H494 C483 0.930 . S
H495 C484 0.931 . S
Eu496 C505 2.828 . S
Eu496 O507 2.392 . S
Eu496 O509 2.418 . S
Eu496 O514 2.373 . S
Eu496 O517 2.488 . S
Eu496 O518 2.471 . S
Eu496 O519 2.349 . S
Eu497 O506 2.373 . S
Eu497 O510 2.488 1_545 S
Eu497 O511 2.471 1_545 S
Eu497 O512 2.349 . S
Eu497 O515 2.392 . S
Eu497 O516 2.418 . S
Eu497 C526 2.828 1_545 S
C498 O516 1.244 . S
C498 O519 1.265 . S
C499 C500 1.379 . S
C499 C503 1.373 . S
C499 C505 1.505 . S
C500 C499 1.379 . S
C500 C502 1.369 . S
C500 H528 0.930 . S
C501 C503 1.383 . S
C501 C504 1.382 . S
C501 H529 0.943 . S
C502 C500 1.369 . S
C502 C504 1.392 . S
C502 H530 0.930 . S
C503 C499 1.373 . S
C503 C501 1.383 . S
C503 H531 0.931 . S
C504 C501 1.382 . S
C504 C502 1.392 . S
C505 Eu496 2.828 . S
C505 C499 1.505 . S
C505 O517 1.249 . S
C505 O518 1.244 . S
O506 Eu497 2.373 . S
O506 C508 1.258 . S
O507 Eu496 2.392 . S
O507 C508 1.242 . S
C508 O506 1.258 . S
C508 O507 1.242 . S
O509 Eu496 2.418 . S
O509 C513 1.244 . S
O510 Eu497 2.488 1_565 S
O510 C526 1.249 . S
O511 Eu497 2.471 1_565 S
O511 C526 1.244 . S
O512 Eu497 2.349 . S
O512 C513 1.265 . S
C513 O509 1.244 . S
C513 O512 1.265 . S
O514 Eu496 2.373 . S
O514 C527 1.258 . S
O515 Eu497 2.392 . S
O515 C527 1.242 . S
O516 Eu497 2.418 . S
O516 C498 1.244 . S
O517 Eu496 2.488 . S
O517 C505 1.249 . S
O518 Eu496 2.471 . S
O518 C505 1.244 . S
O519 Eu496 2.349 . S
O519 C498 1.265 . S
C520 C521 1.379 . S
C520 C524 1.373 . S
C520 C526 1.505 . S
C521 C520 1.379 . S
C521 C523 1.369 . S
C521 H532 0.930 . S
C522 C524 1.383 . S
C522 C525 1.382 . S
C522 H533 0.930 . S
C523 C521 1.369 . S
C523 C525 1.392 . S
C523 H534 0.930 . S
C524 C520 1.373 . S
C524 C522 1.383 . S
C524 H535 0.931 . S
C525 C522 1.382 . S
C525 C523 1.392 . S
C526 Eu497 2.828 1_565 S
C526 O510 1.249 . S
C526 O511 1.244 . S
C526 C520 1.505 . S
C527 O514 1.258 . S
C527 O515 1.242 . S
H528 C500 0.930 . S
H529 C501 0.943 . S
H530 C502 0.930 . S
H531 C503 0.931 . S
H532 C521 0.930 . S
H533 C522 0.930 . S
H534 C523 0.930 . S
H535 C524 0.931 . S
Eu536 C545 2.828 . S
Eu536 O547 2.392 . S
Eu536 O549 2.418 . S
Eu536 O554 2.373 . S
Eu536 O557 2.488 . S
Eu536 O558 2.471 . S
Eu536 O559 2.349 . S
Eu537 O546 2.373 . S
Eu537 O550 2.488 . S
Eu537 O551 2.471 . S
Eu537 O552 2.349 . S
Eu537 O555 2.392 . S
Eu537 O556 2.418 . S
Eu537 C566 2.828 . S
C538 O556 1.244 . S
C538 O559 1.265 . S
C539 C540 1.379 . S
C539 C543 1.373 . S
C539 C545 1.505 . S
C540 C539 1.379 . S
C540 C542 1.369 . S
C540 H568 0.930 . S
C541 C543 1.383 . S
C541 C544 1.382 . S
C541 H569 0.930 . S
C542 C540 1.369 . S
C542 C544 1.392 . S
C542 H570 0.930 . S
C543 C539 1.373 . S
C543 C541 1.383 . S
C543 H571 0.931 . S
C544 C541 1.382 . S
C544 C542 1.392 . S
C545 Eu536 2.828 . S
C545 C539 1.505 . S
C545 O557 1.249 . S
C545 O558 1.244 . S
O546 Eu537 2.373 . S
O546 C548 1.258 . S
O547 Eu536 2.392 . S
O547 C548 1.242 . S
C548 O546 1.258 . S
C548 O547 1.242 . S
O549 Eu536 2.418 . S
O549 C553 1.244 . S
O550 Eu537 2.488 . S
O550 C566 1.249 . S
O551 Eu537 2.471 . S
O551 C566 1.244 . S
O552 Eu537 2.349 . S
O552 C553 1.265 . S
C553 O549 1.244 . S
C553 O552 1.265 . S
O554 Eu536 2.373 . S
O554 C567 1.258 . S
O555 Eu537 2.392 . S
O555 C567 1.242 . S
O556 Eu537 2.418 . S
O556 C538 1.244 . S
O557 Eu536 2.488 . S
O557 C545 1.249 . S
O558 Eu536 2.471 . S
O558 C545 1.244 . S
O559 Eu536 2.349 . S
O559 C538 1.265 . S
C560 C561 1.379 . S
C560 C564 1.373 . S
C560 C566 1.505 . S
C561 C560 1.379 . S
C561 C563 1.369 . S
C561 H572 0.930 . S
C562 C564 1.383 . S
C562 C565 1.382 . S
C562 H573 0.930 . S
C563 C561 1.369 . S
C563 C565 1.392 . S
C563 H574 0.930 . S
C564 C560 1.373 . S
C564 C562 1.383 . S
C564 H575 0.931 . S
C565 C562 1.382 . S
C565 C563 1.392 . S
C566 Eu537 2.828 . S
C566 O550 1.249 . S
C566 O551 1.244 . S
C566 C560 1.505 . S
C567 O554 1.258 . S
C567 O555 1.242 . S
H568 C540 0.930 . S
H569 C541 0.930 . S
H570 C542 0.930 . S
H571 C543 0.931 . S
H572 C561 0.930 . S
H573 C562 0.930 . S
H574 C563 0.930 . S
H575 C564 0.931 . S
Eu576 C585 2.828 . S
Eu576 O587 2.392 . S
Eu576 O589 2.418 1_545 S
Eu576 O594 2.373 . S
Eu576 O597 2.488 . S
Eu576 O598 2.471 . S
Eu576 O599 2.349 . S
Eu577 O586 2.388 . S
Eu577 O590 2.488 . S
Eu577 O591 2.471 . S
Eu577 O592 2.349 . S
Eu577 O595 2.392 . S
Eu577 O596 2.418 1_556 S
Eu577 C606 2.828 . S
C578 O596 1.244 . S
C578 O599 1.265 . S
C579 C580 1.379 . S
C579 C583 1.373 1_545 S
C579 C585 1.505 . S
C580 C579 1.379 . S
C580 C582 1.369 . S
C580 H608 0.930 . S
C581 C583 1.383 . S
C581 C584 1.382 1_565 S
C581 H609 0.930 . S
C582 C580 1.369 . S
C582 C584 1.392 . S
C582 H610 0.930 . S
C583 C579 1.373 1_565 S
C583 C581 1.383 . S
C583 H611 0.931 . S
C584 C581 1.382 1_545 S
C584 C582 1.392 . S
C585 Eu576 2.828 . S
C585 C579 1.505 . S
C585 O597 1.249 . S
C585 O598 1.244 . S
O586 Eu577 2.388 . S
O586 C588 1.223 1_556 S
O587 Eu576 2.392 . S
O587 C588 1.242 . S
C588 O586 1.223 1_554 S
C588 O587 1.242 . S
O589 Eu576 2.418 1_565 S
O589 C593 1.246 . S
O590 Eu577 2.488 . S
O590 C606 1.249 . S
O591 Eu577 2.471 . S
O591 C606 1.244 . S
O592 Eu577 2.349 . S
O592 C593 1.264 1_546 S
C593 O589 1.246 . S
C593 O592 1.264 1_564 S
O594 Eu576 2.373 . S
O594 C607 1.258 . S
O595 Eu577 2.392 . S
O595 C607 1.242 1_556 S
O596 Eu577 2.418 1_554 S
O596 C578 1.244 . S
O597 Eu576 2.488 . S
O597 C585 1.249 . S
O598 Eu576 2.471 . S
O598 C585 1.244 . S
O599 Eu576 2.349 . S
O599 C578 1.265 . S
C600 C601 1.379 . S
C600 C604 1.373 . S
C600 C606 1.505 . S
C601 C600 1.379 . S
C601 C603 1.369 . S
C601 H612 0.930 . S
C602 C604 1.383 . S
C602 C605 1.382 . S
C602 H613 0.930 . S
C603 C601 1.369 . S
C603 C605 1.392 . S
C603 H614 0.930 . S
C604 C600 1.373 . S
C604 C602 1.383 . S
C604 H615 0.931 . S
C605 C602 1.382 . S
C605 C603 1.392 . S
C606 Eu577 2.828 . S
C606 O590 1.249 . S
C606 O591 1.244 . S
C606 C600 1.505 . S
C607 O594 1.258 . S
C607 O595 1.242 1_554 S
H608 C580 0.930 . S
H609 C581 0.930 . S
H610 C582 0.930 . S
H611 C583 0.931 . S
H612 C601 0.930 . S
H613 C602 0.930 . S
H614 C603 0.930 . S
H615 C604 0.931 . S
Eu616 C625 2.828 . S
Eu616 O627 2.392 . S
Eu616 O629 2.418 . S
Eu616 O634 2.373 . S
Eu616 O637 2.488 . S
Eu616 O638 2.471 . S
Eu616 O639 2.349 . S
Eu617 O626 2.373 . S
Eu617 O630 2.488 . S
Eu617 O631 2.471 . S
Eu617 O632 2.349 . S
Eu617 O635 2.392 . S
Eu617 O636 2.418 . S
Eu617 C646 2.828 . S
C618 O636 1.244 . S
C618 O639 1.265 . S
C619 C620 1.379 . S
C619 C623 1.373 . S
C619 C625 1.505 . S
C620 C619 1.379 . S
C620 C622 1.369 . S
C620 H648 0.930 . S
C621 C623 1.383 . S
C621 C624 1.382 . S
C621 H649 0.930 . S
C622 C620 1.369 . S
C622 C624 1.392 . S
C622 H650 0.930 . S
C623 C619 1.373 . S
C623 C621 1.383 . S
C623 H651 0.931 . S
C624 C621 1.382 . S
C624 C622 1.392 . S
C625 Eu616 2.828 . S
C625 C619 1.505 . S
C625 O637 1.249 . S
C625 O638 1.244 . S
O626 Eu617 2.373 . S
O626 C628 1.258 . S
O627 Eu616 2.392 . S
O627 C628 1.242 . S
C628 O626 1.258 . S
C628 O627 1.242 . S
O629 Eu616 2.418 . S
O629 C633 1.244 . S
O630 Eu617 2.488 . S
O630 C646 1.249 . S
O631 Eu617 2.471 . S
O631 C646 1.244 . S
O632 Eu617 2.349 . S
O632 C633 1.265 . S
C633 O629 1.244 . S
C633 O632 1.265 . S
O634 Eu616 2.373 . S
O634 C647 1.258 . S
O635 Eu617 2.392 . S
O635 C647 1.242 . S
O636 Eu617 2.418 . S
O636 C618 1.244 . S
O637 Eu616 2.488 . S
O637 C625 1.249 . S
O638 Eu616 2.471 . S
O638 C625 1.244 . S
O639 Eu616 2.349 . S
O639 C618 1.265 . S
C640 C641 1.379 . S
C640 C644 1.373 . S
C640 C646 1.505 . S
C641 C640 1.379 . S
C641 C643 1.369 . S
C641 H652 0.930 . S
C642 C644 1.383 . S
C642 C645 1.382 . S
C642 H653 0.930 . S
C643 C641 1.369 . S
C643 C645 1.392 . S
C643 H654 0.930 . S
C644 C640 1.373 . S
C644 C642 1.383 . S
C644 H655 0.931 . S
C645 C642 1.382 . S
C645 C643 1.392 . S
C646 Eu617 2.828 . S
C646 O630 1.249 . S
C646 O631 1.244 . S
C646 C640 1.505 . S
C647 O634 1.258 . S
C647 O635 1.242 . S
H648 C620 0.930 . S
H649 C621 0.930 . S
H650 C622 0.930 . S
H651 C623 0.931 . S
H652 C641 0.930 . S
H653 C642 0.930 . S
H654 C643 0.930 . S
H655 C644 0.931 . S
Eu656 C665 2.828 . S
Eu656 O667 2.392 . S
Eu656 O669 2.418 . S
Eu656 O674 2.373 1_554 S
Eu656 O677 2.488 . S
Eu656 O678 2.471 . S
Eu656 O679 2.349 . S
Eu657 O666 2.377 1_556 S
Eu657 O670 2.490 1_556 S
Eu657 O671 2.474 1_556 S
Eu657 O672 2.350 1_556 S
Eu657 O675 2.389 . S
Eu657 O676 2.417 1_556 S
Eu657 C686 2.830 1_556 S
C658 O676 1.244 . S
C658 O679 1.265 . S
C659 C660 1.379 . S
C659 C663 1.373 . S
C659 C665 1.505 1_556 S
C660 C659 1.379 . S
C660 C662 1.369 . S
C660 H688 0.930 . S
C661 C663 1.383 . S
C661 C664 1.382 . S
C661 H689 0.930 . S
C662 C660 1.369 . S
C662 C664 1.392 . S
C662 H690 0.930 . S
C663 C659 1.373 . S
C663 C661 1.383 . S
C663 H691 0.931 1_556 S
C664 C661 1.382 . S
C664 C662 1.392 . S
C665 Eu656 2.828 . S
C665 C659 1.505 1_554 S
C665 O677 1.249 . S
C665 O678 1.244 . S
O666 Eu657 2.377 1_554 S
O666 C668 1.258 . S
O667 Eu656 2.392 . S
O667 C668 1.242 . S
C668 O666 1.258 . S
C668 O667 1.242 . S
O669 Eu656 2.418 . S
O669 C673 1.244 . S
O670 Eu657 2.490 1_554 S
O670 C686 1.249 . S
O671 Eu657 2.474 1_554 S
O671 C686 1.244 . S
O672 Eu657 2.350 1_554 S
O672 C673 1.265 . S
C673 O669 1.244 . S
C673 O672 1.265 . S
O674 Eu656 2.373 1_556 S
O674 C687 1.258 . S
O675 Eu657 2.389 . S
O675 C687 1.242 . S
O676 Eu657 2.417 1_554 S
O676 C658 1.244 . S
O677 Eu656 2.488 . S
O677 C665 1.249 . S
O678 Eu656 2.471 . S
O678 C665 1.244 . S
O679 Eu656 2.349 . S
O679 C658 1.265 . S
C680 C681 1.379 . S
C680 C684 1.373 . S
C680 C686 1.505 . S
C681 C680 1.379 . S
C681 C683 1.369 . S
C681 H692 0.930 . S
C682 C684 1.383 . S
C682 C685 1.382 . S
C682 H693 0.930 . S
C683 C681 1.369 . S
C683 C685 1.392 . S
C683 H694 0.930 . S
C684 C680 1.373 . S
C684 C682 1.383 . S
C684 H695 0.931 . S
C685 C682 1.382 . S
C685 C683 1.392 . S
C686 Eu657 2.830 1_554 S
C686 O670 1.249 . S
C686 O671 1.244 . S
C686 C680 1.505 . S
C687 O674 1.258 . S
C687 O675 1.242 . S
H688 C660 0.930 . S
H689 C661 0.930 . S
H690 C662 0.930 . S
H691 C663 0.931 1_554 S
H692 C681 0.930 . S
H693 C682 0.930 . S
H694 C683 0.930 . S
H695 C684 0.931 . S
Eu696 C705 2.828 . S
Eu696 O707 2.392 . S
Eu696 O709 2.418 . S
Eu696 O714 2.373 . S
Eu696 O717 2.488 . S
Eu696 O718 2.471 . S
Eu696 O719 2.349 . S
Eu697 O706 2.373 . S
Eu697 O710 2.488 . S
Eu697 O711 2.471 . S
Eu697 O712 2.349 . S
Eu697 O715 2.392 . S
Eu697 O716 2.418 . S
Eu697 C726 2.828 . S
C698 O716 1.244 . S
C698 O719 1.265 . S
C699 C700 1.379 . S
C699 C703 1.373 . S
C699 C705 1.505 . S
C700 C699 1.379 . S
C700 C702 1.369 . S
C700 H728 0.930 . S
C701 C703 1.383 . S
C701 C704 1.382 . S
C701 H729 0.930 . S
C702 C700 1.369 . S
C702 C704 1.392 . S
C702 H730 0.930 . S
C703 C699 1.373 . S
C703 C701 1.383 . S
C703 H731 0.931 . S
C704 C701 1.382 . S
C704 C702 1.392 . S
C705 Eu696 2.828 . S
C705 C699 1.505 . S
C705 O717 1.249 . S
C705 O718 1.244 . S
O706 Eu697 2.373 . S
O706 C708 1.258 . S
O707 Eu696 2.392 . S
O707 C708 1.242 . S
C708 O706 1.258 . S
C708 O707 1.242 . S
O709 Eu696 2.418 . S
O709 C713 1.244 . S
O710 Eu697 2.488 . S
O710 C726 1.249 . S
O711 Eu697 2.471 . S
O711 C726 1.244 . S
O712 Eu697 2.349 . S
O712 C713 1.265 . S
C713 O709 1.244 . S
C713 O712 1.265 . S
O714 Eu696 2.373 . S
O714 C727 1.258 . S
O715 Eu697 2.392 . S
O715 C727 1.242 . S
O716 Eu697 2.418 . S
O716 C698 1.244 . S
O717 Eu696 2.488 . S
O717 C705 1.249 . S
O718 Eu696 2.471 . S
O718 C705 1.244 . S
O719 Eu696 2.349 . S
O719 C698 1.265 . S
C720 C721 1.379 . S
C720 C724 1.373 . S
C720 C726 1.505 . S
C721 C720 1.379 . S
C721 C723 1.369 . S
C721 H732 0.930 . S
C722 C724 1.383 . S
C722 C725 1.382 . S
C722 H733 0.930 . S
C723 C721 1.369 . S
C723 C725 1.392 . S
C723 H734 0.930 . S
C724 C720 1.373 . S
C724 C722 1.383 . S
C724 H735 0.931 . S
C725 C722 1.382 . S
C725 C723 1.392 . S
C726 Eu697 2.828 . S
C726 O710 1.249 . S
C726 O711 1.244 . S
C726 C720 1.505 . S
C727 O714 1.258 . S
C727 O715 1.242 . S
H728 C700 0.930 . S
H729 C701 0.930 . S
H730 C702 0.930 . S
H731 C703 0.931 . S
H732 C721 0.930 . S
H733 C722 0.930 . S
H734 C723 0.930 . S
H735 C724 0.931 . S
Eu736 C745 2.828 . S
Eu736 O747 2.392 . S
Eu736 O749 2.418 . S
Eu736 O754 2.373 . S
Eu736 O757 2.488 . S
Eu736 O758 2.471 . S
Eu736 O759 2.349 . S
Eu737 O746 2.373 . S
Eu737 O750 2.488 . S
Eu737 O751 2.471 . S
Eu737 O752 2.349 . S
Eu737 O755 2.392 . S
Eu737 O756 2.418 . S
Eu737 C766 2.828 . S
C738 O756 1.244 . S
C738 O759 1.265 . S
C739 C740 1.379 1_455 S
C739 C743 1.373 . S
C739 C745 1.505 . S
C740 C739 1.379 1_655 S
C740 C742 1.369 . S
C740 H768 0.930 . S
C741 C743 1.383 1_655 S
C741 C744 1.382 . S
C741 H769 0.930 . S
C742 C740 1.369 . S
C742 C744 1.392 . S
C742 H770 0.930 . S
C743 C739 1.373 . S
C743 C741 1.383 1_455 S
C743 H771 0.931 . S
C744 C741 1.382 . S
C744 C742 1.392 . S
C745 Eu736 2.828 . S
C745 C739 1.505 . S
C745 O757 1.249 . S
C745 O758 1.244 . S
O746 Eu737 2.373 . S
O746 C748 1.258 . S
O747 Eu736 2.392 . S
O747 C748 1.242 . S
C748 O746 1.258 . S
C748 O747 1.242 . S
O749 Eu736 2.418 . S
O749 C753 1.244 . S
O750 Eu737 2.488 . S
O750 C766 1.249 . S
O751 Eu737 2.471 . S
O751 C766 1.244 . S
O752 Eu737 2.349 . S
O752 C753 1.265 . S
C753 O749 1.244 . S
C753 O752 1.265 . S
O754 Eu736 2.373 . S
O754 C767 1.261 1_455 S
O755 Eu737 2.392 . S
O755 C767 1.243 1_455 S
O756 Eu737 2.418 . S
O756 C738 1.244 . S
O757 Eu736 2.488 . S
O757 C745 1.249 . S
O758 Eu736 2.471 . S
O758 C745 1.244 . S
O759 Eu736 2.349 . S
O759 C738 1.265 . S
C760 C761 1.379 . S
C760 C764 1.373 . S
C760 C766 1.505 . S
C761 C760 1.379 . S
C761 C763 1.369 . S
C761 H772 0.930 . S
C762 C764 1.383 . S
C762 C765 1.382 . S
C762 H773 0.930 . S
C763 C761 1.369 . S
C763 C765 1.392 . S
C763 H774 0.930 . S
C764 C760 1.373 . S
C764 C762 1.383 . S
C764 H775 0.931 . S
C765 C762 1.382 . S
C765 C763 1.392 . S
C766 Eu737 2.828 . S
C766 O750 1.249 . S
C766 O751 1.244 . S
C766 C760 1.505 . S
C767 O754 1.261 1_655 S
C767 O755 1.243 1_655 S
H768 C740 0.930 . S
H769 C741 0.930 . S
H770 C742 0.930 . S
H771 C743 0.931 . S
H772 C761 0.930 . S
H773 C762 0.930 . S
H774 C763 0.930 . S
H775 C764 0.931 . S
Eu776 C785 2.828 . S
Eu776 O787 2.392 . S
Eu776 O789 2.418 . S
Eu776 O794 2.373 . S
Eu776 O797 2.488 . S
Eu776 O798 2.471 . S
Eu776 O799 2.349 . S
Eu777 O786 2.373 . S
Eu777 O790 2.488 . S
Eu777 O791 2.471 . S
Eu777 O792 2.349 . S
Eu777 O795 2.392 . S
Eu777 O796 2.418 . S
Eu777 C806 2.828 . S
C778 O796 1.244 . S
C778 O799 1.265 . S
C779 C780 1.379 . S
C779 C783 1.373 . S
C779 C785 1.505 . S
C780 C779 1.379 . S
C780 C782 1.369 . S
C780 H808 0.930 . S
C781 C783 1.383 . S
C781 C784 1.382 . S
C781 H809 0.930 . S
C782 C780 1.369 . S
C782 C784 1.392 . S
C782 H810 0.930 . S
C783 C779 1.373 . S
C783 C781 1.383 . S
C783 H811 0.931 . S
C784 C781 1.382 . S
C784 C782 1.392 . S
C785 Eu776 2.828 . S
C785 C779 1.505 . S
C785 O797 1.249 . S
C785 O798 1.244 . S
O786 Eu777 2.373 . S
O786 C788 1.258 . S
O787 Eu776 2.392 . S
O787 C788 1.242 . S
C788 O786 1.258 . S
C788 O787 1.242 . S
O789 Eu776 2.418 . S
O789 C793 1.244 . S
O790 Eu777 2.488 . S
O790 C806 1.249 . S
O791 Eu777 2.471 . S
O791 C806 1.244 . S
O792 Eu777 2.349 . S
O792 C793 1.265 . S
C793 O789 1.244 . S
C793 O792 1.265 . S
O794 Eu776 2.373 . S
O794 C807 1.258 . S
O795 Eu777 2.392 . S
O795 C807 1.242 . S
O796 Eu777 2.418 . S
O796 C778 1.244 . S
O797 Eu776 2.488 . S
O797 C785 1.249 . S
O798 Eu776 2.471 . S
O798 C785 1.244 . S
O799 Eu776 2.349 . S
O799 C778 1.265 . S
C800 C801 1.379 . S
C800 C804 1.373 . S
C800 C806 1.505 . S
C801 C800 1.379 . S
C801 C803 1.369 . S
C801 H812 0.930 . S
C802 C804 1.383 . S
C802 C805 1.382 . S
C802 H813 0.930 . S
C803 C801 1.369 . S
C803 C805 1.392 . S
C803 H814 0.930 . S
C804 C800 1.373 . S
C804 C802 1.383 . S
C804 H815 0.931 . S
C805 C802 1.382 . S
C805 C803 1.392 . S
C806 Eu777 2.828 . S
C806 O790 1.249 . S
C806 O791 1.244 . S
C806 C800 1.505 . S
C807 O794 1.258 . S
C807 O795 1.242 . S
H808 C780 0.930 . S
H809 C781 0.930 . S
H810 C782 0.930 . S
H811 C783 0.931 . S
H812 C801 0.930 . S
H813 C802 0.930 . S
H814 C803 0.930 . S
H815 C804 0.931 . S
Eu816 C825 2.828 . S
Eu816 O827 2.392 . S
Eu816 O829 2.418 . S
Eu816 O834 2.373 . S
Eu816 O837 2.488 . S
Eu816 O838 2.471 . S
Eu816 O839 2.349 . S
Eu817 O826 2.373 . S
Eu817 O830 2.488 . S
Eu817 O831 2.471 . S
Eu817 O832 2.349 . S
Eu817 O835 2.392 . S
Eu817 O836 2.418 . S
Eu817 C846 2.828 . S
C818 O836 1.244 . S
C818 O839 1.265 . S
C819 C820 1.379 . S
C819 C823 1.373 . S
C819 C825 1.505 . S
C820 C819 1.379 . S
C820 C822 1.369 . S
C820 H848 0.930 . S
C821 C823 1.383 . S
C821 C824 1.382 . S
C821 H849 0.930 . S
C822 C820 1.369 . S
C822 C824 1.392 . S
C822 H850 0.930 . S
C823 C819 1.373 . S
C823 C821 1.383 . S
C823 H851 0.931 . S
C824 C821 1.382 . S
C824 C822 1.392 . S
C825 Eu816 2.828 . S
C825 C819 1.505 . S
C825 O837 1.249 . S
C825 O838 1.244 . S
O826 Eu817 2.373 . S
O826 C828 1.258 . S
O827 Eu816 2.392 . S
O827 C828 1.242 . S
C828 O826 1.258 . S
C828 O827 1.242 . S
O829 Eu816 2.418 . S
O829 C833 1.244 . S
O830 Eu817 2.488 . S
O830 C846 1.249 . S
O831 Eu817 2.471 . S
O831 C846 1.244 . S
O832 Eu817 2.349 . S
O832 C833 1.265 . S
C833 O829 1.244 . S
C833 O832 1.265 . S
O834 Eu816 2.373 . S
O834 C847 1.258 . S
O835 Eu817 2.392 . S
O835 C847 1.242 . S
O836 Eu817 2.418 . S
O836 C818 1.244 . S
O837 Eu816 2.488 . S
O837 C825 1.249 . S
O838 Eu816 2.471 . S
O838 C825 1.244 . S
O839 Eu816 2.349 . S
O839 C818 1.265 . S
C840 C841 1.379 . S
C840 C844 1.373 . S
C840 C846 1.505 . S
C841 C840 1.379 . S
C841 C843 1.369 . S
C841 H852 0.930 . S
C842 C844 1.383 . S
C842 C845 1.382 . S
C842 H853 0.930 . S
C843 C841 1.369 . S
C843 C845 1.392 . S
C843 H854 0.930 . S
C844 C840 1.373 . S
C844 C842 1.383 . S
C844 H855 0.931 . S
C845 C842 1.382 . S
C845 C843 1.392 . S
C846 Eu817 2.828 . S
C846 O830 1.249 . S
C846 O831 1.244 . S
C846 C840 1.505 . S
C847 O834 1.258 . S
C847 O835 1.242 . S
H848 C820 0.930 . S
H849 C821 0.930 . S
H850 C822 0.930 . S
H851 C823 0.931 . S
H852 C841 0.930 . S
H853 C842 0.930 . S
H854 C843 0.930 . S
H855 C844 0.931 . S
Eu856 C865 2.828 . S
Eu856 O867 2.392 . S
Eu856 O869 2.418 . S
Eu856 O874 2.373 . S
Eu856 O877 2.488 . S
Eu856 O878 2.471 . S
Eu856 O879 2.349 . S
Eu857 O866 2.373 . S
Eu857 O870 2.488 . S
Eu857 O871 2.471 . S
Eu857 O872 2.349 . S
Eu857 O875 2.392 . S
Eu857 O876 2.418 . S
Eu857 C886 2.828 . S
C858 O876 1.244 . S
C858 O879 1.265 . S
C859 C860 1.379 . S
C859 C863 1.373 . S
C859 C865 1.505 . S
C860 C859 1.379 . S
C860 C862 1.369 . S
C860 H888 0.930 . S
C861 C863 1.383 . S
C861 C864 1.382 . S
C861 H889 0.930 . S
C862 C860 1.369 . S
C862 C864 1.392 . S
C862 H890 0.930 . S
C863 C859 1.373 . S
C863 C861 1.383 . S
C863 H891 0.931 . S
C864 C861 1.382 . S
C864 C862 1.392 . S
C865 Eu856 2.828 . S
C865 C859 1.505 . S
C865 O877 1.249 . S
C865 O878 1.244 . S
O866 Eu857 2.373 . S
O866 C868 1.258 . S
O867 Eu856 2.392 . S
O867 C868 1.242 . S
C868 O866 1.258 . S
C868 O867 1.242 . S
O869 Eu856 2.418 . S
O869 C873 1.244 . S
O870 Eu857 2.488 . S
O870 C886 1.249 . S
O871 Eu857 2.471 . S
O871 C886 1.244 . S
O872 Eu857 2.349 . S
O872 C873 1.265 . S
C873 O869 1.244 . S
C873 O872 1.265 . S
O874 Eu856 2.373 . S
O874 C887 1.258 . S
O875 Eu857 2.392 . S
O875 C887 1.242 . S
O876 Eu857 2.418 . S
O876 C858 1.244 . S
O877 Eu856 2.488 . S
O877 C865 1.249 . S
O878 Eu856 2.471 . S
O878 C865 1.244 . S
O879 Eu856 2.349 . S
O879 C858 1.265 . S
C880 C881 1.379 . S
C880 C884 1.373 . S
C880 C886 1.505 . S
C881 C880 1.379 . S
C881 C883 1.369 . S
C881 H892 0.930 . S
C882 C884 1.383 . S
C882 C885 1.382 . S
C882 H893 0.930 . S
C883 C881 1.369 . S
C883 C885 1.392 . S
C883 H894 0.930 . S
C884 C880 1.373 . S
C884 C882 1.383 . S
C884 H895 0.931 . S
C885 C882 1.382 . S
C885 C883 1.392 . S
C886 Eu857 2.828 . S
C886 O870 1.249 . S
C886 O871 1.244 . S
C886 C880 1.505 . S
C887 O874 1.258 . S
C887 O875 1.242 . S
H888 C860 0.930 . S
H889 C861 0.930 . S
H890 C862 0.930 . S
H891 C863 0.931 . S
H892 C881 0.930 . S
H893 C882 0.930 . S
H894 C883 0.930 . S
H895 C884 0.931 . S
Eu896 C905 2.828 . S
Eu896 O907 2.392 . S
Eu896 O909 2.418 . S
Eu896 O914 2.373 . S
Eu896 O917 2.488 . S
Eu896 O918 2.471 . S
Eu896 O919 2.349 . S
Eu897 O906 2.373 . S
Eu897 O910 2.488 . S
Eu897 O911 2.471 . S
Eu897 O912 2.349 . S
Eu897 O915 2.392 . S
Eu897 O916 2.418 . S
Eu897 C926 2.828 . S
C898 O916 1.244 . S
C898 O919 1.265 . S
C899 C900 1.379 . S
C899 C903 1.373 . S
C899 C905 1.505 . S
C900 C899 1.379 . S
C900 C902 1.369 . S
C900 H928 0.930 . S
C901 C903 1.383 . S
C901 C904 1.382 . S
C901 H929 0.930 . S
C902 C900 1.369 . S
C902 C904 1.392 . S
C902 H930 0.930 . S
C903 C899 1.373 . S
C903 C901 1.383 . S
C903 H931 0.931 . S
C904 C901 1.382 . S
C904 C902 1.392 . S
C905 Eu896 2.828 . S
C905 C899 1.505 . S
C905 O917 1.249 . S
C905 O918 1.244 . S
O906 Eu897 2.373 . S
O906 C908 1.258 . S
O907 Eu896 2.392 . S
O907 C908 1.242 . S
C908 O906 1.258 . S
C908 O907 1.242 . S
O909 Eu896 2.418 . S
O909 C913 1.244 . S
O910 Eu897 2.488 . S
O910 C926 1.249 . S
O911 Eu897 2.471 . S
O911 C926 1.244 . S
O912 Eu897 2.349 . S
O912 C913 1.265 . S
C913 O909 1.244 . S
C913 O912 1.265 . S
O914 Eu896 2.373 . S
O914 C927 1.258 . S
O915 Eu897 2.392 . S
O915 C927 1.242 . S
O916 Eu897 2.418 . S
O916 C898 1.244 . S
O917 Eu896 2.488 . S
O917 C905 1.249 . S
O918 Eu896 2.471 . S
O918 C905 1.244 . S
O919 Eu896 2.349 . S
O919 C898 1.265 . S
C920 C921 1.379 . S
C920 C924 1.373 . S
C920 C926 1.505 . S
C921 C920 1.379 . S
C921 C923 1.369 . S
C921 H932 0.930 . S
C922 C924 1.383 . S
C922 C925 1.382 . S
C922 H933 0.930 . S
C923 C921 1.369 . S
C923 C925 1.392 . S
C923 H934 0.930 . S
C924 C920 1.373 . S
C924 C922 1.383 . S
C924 H935 0.931 . S
C925 C922 1.382 . S
C925 C923 1.392 . S
C926 Eu897 2.828 . S
C926 O910 1.249 . S
C926 O911 1.244 . S
C926 C920 1.505 . S
C927 O914 1.258 . S
C927 O915 1.242 . S
H928 C900 0.930 . S
H929 C901 0.930 . S
H930 C902 0.930 . S
H931 C903 0.931 . S
H932 C921 0.930 . S
H933 C922 0.930 . S
H934 C923 0.930 . S
H935 C924 0.931 . S
Eu936 C945 2.828 1_554 S
Eu936 O947 2.392 . S
Eu936 O949 2.418 1_554 S
Eu936 O954 2.373 1_554 S
Eu936 O957 2.488 1_554 S
Eu936 O958 2.471 . S
Eu936 O959 2.349 . S
Eu937 O946 2.373 . S
Eu937 O950 2.488 1_455 S
Eu937 O951 2.471 1_455 S
Eu937 O952 2.349 1_554 S
Eu937 O955 2.392 . S
Eu937 O956 2.418 . S
Eu937 C966 2.828 1_455 S
C938 O956 1.244 . S
C938 O959 1.265 . S
C939 C940 1.379 1_556 S
C939 C943 1.373 . S
C939 C945 1.505 . S
C940 C939 1.379 1_554 S
C940 C942 1.369 . S
C940 H968 0.930 . S
C941 C943 1.383 . S
C941 C944 1.382 . S
C941 H969 0.930 . S
C942 C940 1.369 . S
C942 C944 1.392 1_554 S
C942 H970 0.930 . S
C943 C939 1.373 . S
C943 C941 1.383 . S
C943 H971 0.931 . S
C944 C941 1.382 . S
C944 C942 1.392 1_556 S
C945 Eu936 2.828 1_556 S
C945 C939 1.505 . S
C945 O957 1.249 . S
C945 O958 1.244 1_556 S
O946 Eu937 2.373 . S
O946 C948 1.258 . S
O947 Eu936 2.392 . S
O947 C948 1.242 . S
C948 O946 1.258 . S
C948 O947 1.242 . S
O949 Eu936 2.418 1_556 S
O949 C953 1.244 . S
O950 Eu937 2.488 1_655 S
O950 C966 1.249 . S
O951 Eu937 2.471 1_655 S
O951 C966 1.244 . S
O952 Eu937 2.349 1_556 S
O952 C953 1.265 . S
C953 O949 1.244 . S
C953 O952 1.265 . S
O954 Eu936 2.373 1_556 S
O954 C967 1.258 1_556 S
O955 Eu937 2.392 . S
O955 C967 1.242 . S
O956 Eu937 2.418 . S
O956 C938 1.244 . S
O957 Eu936 2.488 1_556 S
O957 C945 1.249 . S
O958 Eu936 2.471 . S
O958 C945 1.244 1_554 S
O959 Eu936 2.349 . S
O959 C938 1.265 . S
C960 C961 1.379 . S
C960 C964 1.373 . S
C960 C966 1.505 . S
C961 C960 1.379 . S
C961 C963 1.369 . S
C961 H972 0.930 . S
C962 C964 1.383 . S
C962 C965 1.382 . S
C962 H973 0.930 . S
C963 C961 1.369 . S
C963 C965 1.392 . S
C963 H974 0.930 . S
C964 C960 1.373 . S
C964 C962 1.383 . S
C964 H975 0.931 . S
C965 C962 1.382 . S
C965 C963 1.392 . S
C966 Eu937 2.828 1_655 S
C966 O950 1.249 . S
C966 O951 1.244 . S
C966 C960 1.505 . S
C967 O954 1.258 1_554 S
C967 O955 1.242 . S
H968 C940 0.930 . S
H969 C941 0.930 . S
H970 C942 0.930 . S
H971 C943 0.931 . S
H972 C961 0.930 . S
H973 C962 0.930 . S
H974 C963 0.930 . S
H975 C964 0.931 . S
C976 C977 1.391 . S
C976 C978 1.394 . S
C976 H992 0.931 . S
C977 C976 1.391 . S
C977 C981 1.376 . S
C978 C976 1.394 . S
C978 C979 1.369 . S
C978 C982 1.531 . S
C979 C978 1.369 . S
C979 C980 1.410 . S
C979 C987 1.503 . S
C980 C979 1.410 . S
C980 C981 1.392 . S
C980 C983 1.511 . S
C981 C977 1.376 . S
C981 C980 1.392 . S
C981 H993 0.929 . S
C982 C978 1.531 . S
C982 H994 0.960 . S
C982 H995 0.962 . S
C982 H996 0.960 . S
C983 C980 1.511 . S
C983 H997 0.961 . S
C983 H998 0.961 . S
C983 H999 0.961 1_455 S
C984 C985 1.370 . S
C984 C986 1.363 . S
C984 H1000 0.931 . S
C985 C984 1.370 . S
C985 C989 1.408 . S
C986 C984 1.363 . S
C986 C987 1.370 . S
C986 C990 1.524 . S
C987 C979 1.503 . S
C987 C986 1.370 . S
C987 C988 1.403 . S
C988 C987 1.403 . S
C988 C989 1.404 . S
C988 C991 1.539 1_455 S
C989 C985 1.408 . S
C989 C988 1.404 . S
C989 H1001 0.930 1_455 S
C990 C986 1.524 . S
C990 H1002 0.956 . S
C990 H1003 0.961 . S
C990 H1004 0.961 . S
C991 C988 1.539 1_655 S
C991 H1005 0.958 . S
C991 H1006 0.961 . S
C991 H1007 0.960 . S
H992 C976 0.931 . S
H993 C981 0.929 . S
H994 C982 0.960 . S
H995 C982 0.962 . S
H996 C982 0.960 . S
H997 C983 0.961 . S
H998 C983 0.961 . S
H999 C983 0.961 1_655 S
H1000 C984 0.931 . S
H1001 C989 0.930 1_655 S
H1002 C990 0.956 . S
H1003 C990 0.961 . S
H1004 C990 0.961 . S
H1005 C991 0.958 . S
H1006 C991 0.961 . S
H1007 C991 0.960 . S
C1008 C1009 1.391 . S
C1008 C1010 1.394 . S
C1008 H1024 0.931 . S
C1009 C1008 1.391 . S
C1009 C1013 1.376 . S
C1010 C1008 1.394 . S
C1010 C1011 1.369 . S
C1010 C1014 1.531 . S
C1011 C1010 1.369 . S
C1011 C1012 1.410 . S
C1011 C1019 1.503 . S
C1012 C1011 1.410 . S
C1012 C1013 1.392 . S
C1012 C1015 1.511 . S
C1013 C1009 1.376 . S
C1013 C1012 1.392 . S
C1013 H1025 0.929 . S
C1014 C1010 1.531 . S
C1014 H1026 0.960 . S
C1014 H1027 0.962 . S
C1014 H1028 0.960 . S
C1015 C1012 1.511 . S
C1015 H1029 0.961 . S
C1015 H1030 0.961 . S
C1015 H1031 0.961 . S
C1016 C1017 1.370 . S
C1016 C1018 1.363 . S
C1016 H1032 0.931 . S
C1017 C1016 1.370 . S
C1017 C1021 1.408 . S
C1018 C1016 1.363 . S
C1018 C1019 1.370 . S
C1018 C1022 1.524 . S
C1019 C1011 1.503 . S
C1019 C1018 1.370 . S
C1019 C1020 1.403 . S
C1020 C1019 1.403 . S
C1020 C1021 1.404 . S
C1020 C1023 1.539 . S
C1021 C1017 1.408 . S
C1021 C1020 1.404 . S
C1021 H1033 0.930 . S
C1022 C1018 1.524 . S
C1022 H1034 0.956 . S
C1022 H1035 0.961 . S
C1022 H1036 0.961 . S
C1023 C1020 1.539 . S
C1023 H1037 0.958 . S
C1023 H1038 0.961 . S
C1023 H1039 0.960 . S
H1024 C1008 0.931 . S
H1025 C1013 0.929 . S
H1026 C1014 0.960 . S
H1027 C1014 0.962 . S
H1028 C1014 0.960 . S
H1029 C1015 0.961 . S
H1030 C1015 0.961 . S
H1031 C1015 0.961 . S
H1032 C1016 0.931 . S
H1033 C1021 0.930 . S
H1034 C1022 0.956 . S
H1035 C1022 0.961 . S
H1036 C1022 0.961 . S
H1037 C1023 0.958 . S
H1038 C1023 0.961 . S
H1039 C1023 0.960 . S
C1040 C1041 1.391 . S
C1040 C1042 1.394 . S
C1040 H1056 0.931 . S
C1041 C1040 1.391 . S
C1041 C1045 1.376 . S
C1042 C1040 1.394 . S
C1042 C1043 1.369 . S
C1042 C1046 1.531 . S
C1043 C1042 1.369 . S
C1043 C1044 1.410 . S
C1043 C1051 1.503 . S
C1044 C1043 1.410 . S
C1044 C1045 1.392 . S
C1044 C1047 1.511 . S
C1045 C1041 1.376 . S
C1045 C1044 1.392 . S
C1045 H1057 0.929 . S
C1046 C1042 1.531 . S
C1046 H1058 0.960 . S
C1046 H1059 0.962 . S
C1046 H1060 0.960 . S
C1047 C1044 1.511 . S
C1047 H1061 0.961 . S
C1047 H1062 0.961 . S
C1047 H1063 0.961 . S
C1048 C1049 1.370 . S
C1048 C1050 1.363 . S
C1048 H1064 0.931 . S
C1049 C1048 1.370 . S
C1049 C1053 1.408 . S
C1050 C1048 1.363 . S
C1050 C1051 1.370 . S
C1050 C1054 1.524 . S
C1051 C1043 1.503 . S
C1051 C1050 1.370 . S
C1051 C1052 1.403 . S
C1052 C1051 1.403 . S
C1052 C1053 1.404 . S
C1052 C1055 1.539 . S
C1053 C1049 1.408 . S
C1053 C1052 1.404 . S
C1053 H1065 0.930 . S
C1054 C1050 1.524 . S
C1054 H1066 0.956 . S
C1054 H1067 0.961 . S
C1054 H1068 0.961 . S
C1055 C1052 1.539 . S
C1055 H1069 0.958 . S
C1055 H1070 0.961 . S
C1055 H1071 0.960 . S
H1056 C1040 0.931 . S
H1057 C1045 0.929 . S
H1058 C1046 0.960 . S
H1059 C1046 0.962 . S
H1060 C1046 0.960 . S
H1061 C1047 0.961 . S
H1062 C1047 0.961 . S
H1063 C1047 0.961 . S
H1064 C1048 0.931 . S
H1065 C1053 0.930 . S
H1066 C1054 0.956 . S
H1067 C1054 0.961 . S
H1068 C1054 0.961 . S
H1069 C1055 0.958 . S
H1070 C1055 0.961 . S
H1071 C1055 0.960 . S
C1072 C1073 1.391 . S
C1072 C1074 1.394 . S
C1072 H1088 0.931 . S
C1073 C1072 1.391 . S
C1073 C1077 1.376 . S
C1074 C1072 1.394 . S
C1074 C1075 1.369 . S
C1074 C1078 1.531 . S
C1075 C1074 1.369 . S
C1075 C1076 1.410 . S
C1075 C1083 1.503 . S
C1076 C1075 1.410 . S
C1076 C1077 1.392 . S
C1076 C1079 1.511 . S
C1077 C1073 1.376 . S
C1077 C1076 1.392 . S
C1077 H1089 0.929 . S
C1078 C1074 1.531 . S
C1078 H1090 0.960 . S
C1078 H1091 0.962 . S
C1078 H1092 0.960 . S
C1079 C1076 1.511 . S
C1079 H1093 0.961 . S
C1079 H1094 0.961 . S
C1079 H1095 0.961 . S
C1080 C1081 1.370 . S
C1080 C1082 1.363 . S
C1080 H1096 0.931 . S
C1081 C1080 1.370 . S
C1081 C1085 1.408 . S
C1082 C1080 1.363 . S
C1082 C1083 1.370 . S
C1082 C1086 1.524 . S
C1083 C1075 1.503 . S
C1083 C1082 1.370 . S
C1083 C1084 1.403 . S
C1084 C1083 1.403 . S
C1084 C1085 1.404 . S
C1084 C1087 1.539 . S
C1085 C1081 1.408 . S
C1085 C1084 1.404 . S
C1085 H1097 0.930 . S
C1086 C1082 1.524 . S
C1086 H1098 0.956 . S
C1086 H1099 0.961 . S
C1086 H1100 0.961 . S
C1087 C1084 1.539 . S
C1087 H1101 0.958 . S
C1087 H1102 0.961 . S
C1087 H1103 0.960 . S
H1088 C1072 0.931 . S
H1089 C1077 0.929 . S
H1090 C1078 0.960 . S
H1091 C1078 0.962 . S
H1092 C1078 0.960 . S
H1093 C1079 0.961 . S
H1094 C1079 0.961 . S
H1095 C1079 0.961 . S
H1096 C1080 0.931 . S
H1097 C1085 0.930 . S
H1098 C1086 0.956 . S
H1099 C1086 0.961 . S
H1100 C1086 0.961 . S
H1101 C1087 0.958 . S
H1102 C1087 0.961 . S
H1103 C1087 0.960 . S
C1104 C1105 1.391 . S
C1104 C1106 1.394 . S
C1104 H1120 0.931 . S
C1105 C1104 1.391 . S
C1105 C1109 1.376 1_455 S
C1106 C1104 1.394 . S
C1106 C1107 1.369 . S
C1106 C1110 1.531 . S
C1107 C1106 1.369 . S
C1107 C1108 1.410 . S
C1107 C1115 1.503 . S
C1108 C1107 1.410 . S
C1108 C1109 1.392 1_455 S
C1108 C1111 1.511 1_455 S
C1109 C1105 1.376 1_655 S
C1109 C1108 1.392 1_655 S
C1109 H1121 0.929 . S
C1110 C1106 1.531 . S
C1110 H1122 0.960 . S
C1110 H1123 0.962 . S
C1110 H1124 0.960 . S
C1111 C1108 1.511 1_655 S
C1111 H1125 0.961 . S
C1111 H1126 0.951 1_655 S
C1111 H1127 0.961 . S
C1112 C1113 1.370 . S
C1112 C1114 1.363 . S
C1112 H1128 0.931 . S
C1113 C1112 1.370 . S
C1113 C1117 1.408 . S
C1114 C1112 1.363 . S
C1114 C1115 1.370 . S
C1114 C1118 1.524 . S
C1115 C1107 1.503 . S
C1115 C1114 1.370 . S
C1115 C1116 1.403 . S
C1116 C1115 1.403 . S
C1116 C1117 1.404 . S
C1116 C1119 1.539 . S
C1117 C1113 1.408 . S
C1117 C1116 1.404 . S
C1117 H1129 0.930 . S
C1118 C1114 1.524 . S
C1118 H1130 0.956 . S
C1118 H1131 0.961 . S
C1118 H1132 0.961 . S
C1119 C1116 1.539 . S
C1119 H1133 0.958 . S
C1119 H1134 0.961 . S
C1119 H1135 0.960 . S
H1120 C1104 0.931 . S
H1121 C1109 0.929 . S
H1122 C1110 0.960 . S
H1123 C1110 0.962 . S
H1124 C1110 0.960 . S
H1125 C1111 0.961 . S
H1126 C1111 0.951 1_455 S
H1127 C1111 0.961 . S
H1128 C1112 0.931 . S
H1129 C1117 0.930 . S
H1130 C1118 0.956 . S
H1131 C1118 0.961 . S
H1132 C1118 0.961 . S
H1133 C1119 0.958 . S
H1134 C1119 0.961 . S
H1135 C1119 0.960 . S
C1136 C1137 1.391 . S
C1136 C1138 1.394 . S
C1136 H1152 0.931 . S
C1137 C1136 1.391 . S
C1137 C1141 1.376 . S
C1138 C1136 1.394 . S
C1138 C1139 1.369 . S
C1138 C1142 1.531 . S
C1139 C1138 1.369 . S
C1139 C1140 1.410 . S
C1139 C1147 1.503 . S
C1140 C1139 1.410 . S
C1140 C1141 1.392 . S
C1140 C1143 1.511 . S
C1141 C1137 1.376 . S
C1141 C1140 1.392 . S
C1141 H1153 0.929 . S
C1142 C1138 1.531 . S
C1142 H1154 0.960 . S
C1142 H1155 0.962 . S
C1142 H1156 0.960 . S
C1143 C1140 1.511 . S
C1143 H1157 0.961 . S
C1143 H1158 0.961 . S
C1143 H1159 0.961 . S
C1144 C1145 1.370 . S
C1144 C1146 1.363 . S
C1144 H1160 0.931 . S
C1145 C1144 1.370 . S
C1145 C1149 1.408 . S
C1146 C1144 1.363 . S
C1146 C1147 1.370 . S
C1146 C1150 1.524 . S
C1147 C1139 1.503 . S
C1147 C1146 1.370 . S
C1147 C1148 1.403 . S
C1148 C1147 1.403 . S
C1148 C1149 1.404 . S
C1148 C1151 1.539 . S
C1149 C1145 1.408 . S
C1149 C1148 1.404 . S
C1149 H1161 0.930 . S
C1150 C1146 1.524 . S
C1150 H1162 0.956 . S
C1150 H1163 0.961 . S
C1150 H1164 0.961 . S
C1151 C1148 1.539 . S
C1151 H1165 0.958 . S
C1151 H1166 0.961 . S
C1151 H1167 0.960 . S
H1152 C1136 0.931 . S
H1153 C1141 0.929 . S
H1154 C1142 0.960 . S
H1155 C1142 0.962 . S
H1156 C1142 0.960 . S
H1157 C1143 0.961 . S
H1158 C1143 0.961 . S
H1159 C1143 0.961 . S
H1160 C1144 0.931 . S
H1161 C1149 0.930 . S
H1162 C1150 0.956 . S
H1163 C1150 0.961 . S
H1164 C1150 0.961 . S
H1165 C1151 0.958 . S
H1166 C1151 0.961 . S
H1167 C1151 0.960 . S
C1168 C1169 1.391 . S
C1168 C1170 1.394 . S
C1168 H1184 0.931 . S
C1169 C1168 1.391 . S
C1169 C1173 1.376 . S
C1170 C1168 1.394 . S
C1170 C1171 1.369 . S
C1170 C1174 1.531 . S
C1171 C1170 1.369 . S
C1171 C1172 1.410 . S
C1171 C1179 1.503 . S
C1172 C1171 1.410 . S
C1172 C1173 1.392 . S
C1172 C1175 1.511 . S
C1173 C1169 1.376 . S
C1173 C1172 1.392 . S
C1173 H1185 0.929 . S
C1174 C1170 1.531 . S
C1174 H1186 0.960 . S
C1174 H1187 0.962 . S
C1174 H1188 0.960 . S
C1175 C1172 1.511 . S
C1175 H1189 0.961 . S
C1175 H1190 0.961 . S
C1175 H1191 0.961 . S
C1176 C1177 1.370 . S
C1176 C1178 1.363 . S
C1176 H1192 0.931 . S
C1177 C1176 1.370 . S
C1177 C1181 1.408 . S
C1178 C1176 1.363 . S
C1178 C1179 1.370 . S
C1178 C1182 1.524 . S
C1179 C1171 1.503 . S
C1179 C1178 1.370 . S
C1179 C1180 1.403 . S
C1180 C1179 1.403 . S
C1180 C1181 1.404 . S
C1180 C1183 1.539 . S
C1181 C1177 1.408 . S
C1181 C1180 1.404 . S
C1181 H1193 0.930 . S
C1182 C1178 1.524 . S
C1182 H1194 0.956 . S
C1182 H1195 0.961 . S
C1182 H1196 0.961 . S
C1183 C1180 1.539 . S
C1183 H1197 0.958 . S
C1183 H1198 0.961 . S
C1183 H1199 0.960 . S
H1184 C1168 0.931 . S
H1185 C1173 0.929 . S
H1186 C1174 0.960 . S
H1187 C1174 0.962 . S
H1188 C1174 0.960 . S
H1189 C1175 0.961 . S
H1190 C1175 0.961 . S
H1191 C1175 0.961 . S
H1192 C1176 0.931 . S
H1193 C1181 0.930 . S
H1194 C1182 0.956 . S
H1195 C1182 0.961 . S
H1196 C1182 0.961 . S
H1197 C1183 0.958 . S
H1198 C1183 0.961 . S
H1199 C1183 0.960 . S
C1200 C1201 1.391 . S
C1200 C1202 1.394 . S
C1200 H1216 0.931 . S
C1201 C1200 1.391 . S
C1201 C1205 1.376 . S
C1202 C1200 1.394 . S
C1202 C1203 1.369 . S
C1202 C1206 1.531 . S
C1203 C1202 1.369 . S
C1203 C1204 1.410 . S
C1203 C1211 1.503 . S
C1204 C1203 1.410 . S
C1204 C1205 1.392 . S
C1204 C1207 1.511 . S
C1205 C1201 1.376 . S
C1205 C1204 1.392 . S
C1205 H1217 0.929 . S
C1206 C1202 1.531 . S
C1206 H1218 0.960 . S
C1206 H1219 0.962 . S
C1206 H1220 0.960 . S
C1207 C1204 1.511 . S
C1207 H1221 0.961 . S
C1207 H1222 0.961 . S
C1207 H1223 0.961 . S
C1208 C1209 1.370 . S
C1208 C1210 1.363 . S
C1208 H1224 0.931 . S
C1209 C1208 1.370 . S
C1209 C1213 1.408 . S
C1210 C1208 1.363 . S
C1210 C1211 1.370 . S
C1210 C1214 1.524 . S
C1211 C1203 1.503 . S
C1211 C1210 1.370 . S
C1211 C1212 1.403 . S
C1212 C1211 1.403 . S
C1212 C1213 1.404 . S
C1212 C1215 1.539 . S
C1213 C1209 1.408 . S
C1213 C1212 1.404 . S
C1213 H1225 0.930 . S
C1214 C1210 1.524 . S
C1214 H1226 0.956 . S
C1214 H1227 0.961 . S
C1214 H1228 0.961 . S
C1215 C1212 1.539 . S
C1215 H1229 0.958 . S
C1215 H1230 0.961 . S
C1215 H1231 0.960 . S
H1216 C1200 0.931 . S
H1217 C1205 0.929 . S
H1218 C1206 0.960 . S
H1219 C1206 0.962 . S
H1220 C1206 0.960 . S
H1221 C1207 0.961 . S
H1222 C1207 0.961 . S
H1223 C1207 0.961 . S
H1224 C1208 0.931 . S
H1225 C1213 0.930 . S
H1226 C1214 0.956 . S
H1227 C1214 0.961 . S
H1228 C1214 0.961 . S
H1229 C1215 0.958 . S
H1230 C1215 0.961 . S
H1231 C1215 0.960 . S
C1232 C1233 1.391 . S
C1232 C1234 1.394 . S
C1232 H1248 0.931 . S
C1233 C1232 1.391 . S
C1233 C1237 1.376 . S
C1234 C1232 1.394 . S
C1234 C1235 1.369 . S
C1234 C1238 1.531 . S
C1235 C1234 1.369 . S
C1235 C1236 1.410 . S
C1235 C1243 1.503 . S
C1236 C1235 1.410 . S
C1236 C1237 1.392 . S
C1236 C1239 1.511 . S
C1237 C1233 1.376 . S
C1237 C1236 1.392 . S
C1237 H1249 0.929 . S
C1238 C1234 1.531 . S
C1238 H1250 0.960 . S
C1238 H1251 0.962 1_655 S
C1238 H1252 0.960 1_545 S
C1239 C1236 1.511 . S
C1239 H1253 0.961 . S
C1239 H1254 0.961 . S
C1239 H1255 0.961 . S
C1240 C1241 1.370 . S
C1240 C1242 1.363 . S
C1240 H1256 0.931 . S
C1241 C1240 1.370 . S
C1241 C1245 1.415 . S
C1242 C1240 1.363 . S
C1242 C1243 1.370 1_455 S
C1242 C1246 1.524 . S
C1243 C1235 1.503 . S
C1243 C1242 1.370 1_655 S
C1243 C1244 1.403 . S
C1244 C1243 1.403 . S
C1244 C1245 1.399 1_655 S
C1244 C1247 1.539 . S
C1245 C1241 1.415 . S
C1245 C1244 1.399 1_455 S
C1245 H1257 0.928 1_455 S
C1246 C1242 1.524 . S
C1246 H1258 0.956 . S
C1246 H1259 0.961 . S
C1246 H1260 0.961 . S
C1247 C1244 1.539 . S
C1247 H1261 0.958 . S
C1247 H1262 0.961 . S
C1247 H1263 0.960 . S
H1248 C1232 0.931 . S
H1249 C1237 0.929 . S
H1250 C1238 0.960 . S
H1251 C1238 0.962 1_455 S
H1252 C1238 0.960 1_565 S
H1253 C1239 0.961 . S
H1254 C1239 0.961 . S
H1255 C1239 0.961 . S
H1256 C1240 0.931 . S
H1257 C1245 0.928 1_655 S
H1258 C1246 0.956 . S
H1259 C1246 0.961 . S
H1260 C1246 0.961 . S
H1261 C1247 0.958 . S
H1262 C1247 0.961 . S
H1263 C1247 0.960 . S
C1264 C1265 1.391 . S
C1264 C1266 1.394 . S
C1264 H1280 0.931 . S
C1265 C1264 1.391 . S
C1265 C1269 1.376 . S
C1266 C1264 1.394 . S
C1266 C1267 1.369 . S
C1266 C1270 1.531 . S
C1267 C1266 1.369 . S
C1267 C1268 1.410 . S
C1267 C1275 1.503 . S
C1268 C1267 1.410 . S
C1268 C1269 1.392 . S
C1268 C1271 1.511 . S
C1269 C1265 1.376 . S
C1269 C1268 1.392 . S
C1269 H1281 0.929 . S
C1270 C1266 1.531 . S
C1270 H1282 0.960 . S
C1270 H1283 0.962 . S
C1270 H1284 0.960 . S
C1271 C1268 1.511 . S
C1271 H1285 0.961 . S
C1271 H1286 0.961 . S
C1271 H1287 0.961 . S
C1272 C1273 1.370 . S
C1272 C1274 1.363 . S
C1272 H1288 0.931 . S
C1273 C1272 1.370 . S
C1273 C1277 1.408 . S
C1274 C1272 1.363 . S
C1274 C1275 1.370 . S
C1274 C1278 1.524 . S
C1275 C1267 1.503 . S
C1275 C1274 1.370 . S
C1275 C1276 1.403 . S
C1276 C1275 1.403 . S
C1276 C1277 1.404 . S
C1276 C1279 1.539 . S
C1277 C1273 1.408 . S
C1277 C1276 1.404 . S
C1277 H1289 0.930 . S
C1278 C1274 1.524 . S
C1278 H1290 0.956 . S
C1278 H1291 0.961 . S
C1278 H1292 0.961 . S
C1279 C1276 1.539 . S
C1279 H1293 0.958 . S
C1279 H1294 0.961 . S
C1279 H1295 0.960 . S
H1280 C1264 0.931 . S
H1281 C1269 0.929 . S
H1282 C1270 0.960 . S
H1283 C1270 0.962 . S
H1284 C1270 0.960 . S
H1285 C1271 0.961 . S
H1286 C1271 0.961 . S
H1287 C1271 0.961 . S
H1288 C1272 0.931 . S
H1289 C1277 0.930 . S
H1290 C1278 0.956 . S
H1291 C1278 0.961 . S
H1292 C1278 0.961 . S
H1293 C1279 0.958 . S
H1294 C1279 0.961 . S
H1295 C1279 0.960 . S
C1296 C1297 1.391 . S
C1296 C1298 1.394 . S
C1296 H1312 0.931 . S
C1297 C1296 1.391 . S
C1297 C1301 1.376 . S
C1298 C1296 1.394 . S
C1298 C1299 1.369 . S
C1298 C1302 1.531 . S
C1299 C1298 1.369 . S
C1299 C1300 1.410 . S
C1299 C1307 1.503 . S
C1300 C1299 1.410 . S
C1300 C1301 1.392 . S
C1300 C1303 1.511 . S
C1301 C1297 1.376 . S
C1301 C1300 1.392 . S
C1301 H1313 0.929 . S
C1302 C1298 1.531 . S
C1302 H1314 0.960 . S
C1302 H1315 0.962 . S
C1302 H1316 0.960 1_545 S
C1303 C1300 1.511 . S
C1303 H1317 0.961 . S
C1303 H1318 0.961 . S
C1303 H1319 0.961 . S
C1304 C1305 1.370 . S
C1304 C1306 1.363 . S
C1304 H1320 0.931 . S
C1305 C1304 1.370 . S
C1305 C1309 1.408 . S
C1306 C1304 1.363 . S
C1306 C1307 1.370 . S
C1306 C1310 1.524 . S
C1307 C1299 1.503 . S
C1307 C1306 1.370 . S
C1307 C1308 1.403 . S
C1308 C1307 1.403 . S
C1308 C1309 1.404 . S
C1308 C1311 1.539 . S
C1309 C1305 1.408 . S
C1309 C1308 1.404 . S
C1309 H1321 0.930 . S
C1310 C1306 1.524 . S
C1310 H1322 0.956 . S
C1310 H1323 0.961 . S
C1310 H1324 0.961 . S
C1311 C1308 1.539 . S
C1311 H1325 0.958 1_545 S
C1311 H1326 0.961 . S
C1311 H1327 0.960 . S
H1312 C1296 0.931 . S
H1313 C1301 0.929 . S
H1314 C1302 0.960 . S
H1315 C1302 0.962 . S
H1316 C1302 0.960 1_565 S
H1317 C1303 0.961 . S
H1318 C1303 0.961 . S
H1319 C1303 0.961 . S
H1320 C1304 0.931 . S
H1321 C1309 0.930 . S
H1322 C1310 0.956 . S
H1323 C1310 0.961 . S
H1324 C1310 0.961 . S
H1325 C1311 0.958 1_565 S
H1326 C1311 0.961 . S
H1327 C1311 0.960 . S
C1328 C1329 1.391 . S
C1328 C1330 1.394 . S
C1328 H1344 0.931 . S
C1329 C1328 1.391 . S
C1329 C1333 1.376 . S
C1330 C1328 1.394 . S
C1330 C1331 1.369 . S
C1330 C1334 1.531 . S
C1331 C1330 1.369 . S
C1331 C1332 1.410 . S
C1331 C1339 1.503 . S
C1332 C1331 1.410 . S
C1332 C1333 1.392 . S
C1332 C1335 1.511 . S
C1333 C1329 1.376 . S
C1333 C1332 1.392 . S
C1333 H1345 0.929 . S
C1334 C1330 1.531 . S
C1334 H1346 0.960 . S
C1334 H1347 0.962 . S
C1334 H1348 0.960 . S
C1335 C1332 1.511 . S
C1335 H1349 0.961 . S
C1335 H1350 0.961 . S
C1335 H1351 0.961 . S
C1336 C1337 1.370 . S
C1336 C1338 1.363 . S
C1336 H1352 0.931 . S
C1337 C1336 1.370 . S
C1337 C1341 1.408 . S
C1338 C1336 1.363 . S
C1338 C1339 1.370 . S
C1338 C1342 1.524 . S
C1339 C1331 1.503 . S
C1339 C1338 1.370 . S
C1339 C1340 1.403 . S
C1340 C1339 1.403 . S
C1340 C1341 1.404 . S
C1340 C1343 1.539 . S
C1341 C1337 1.408 . S
C1341 C1340 1.404 . S
C1341 H1353 0.930 . S
C1342 C1338 1.524 . S
C1342 H1354 0.956 . S
C1342 H1355 0.961 . S
C1342 H1356 0.961 . S
C1343 C1340 1.539 . S
C1343 H1357 0.958 . S
C1343 H1358 0.961 . S
C1343 H1359 0.960 . S
H1344 C1328 0.931 . S
H1345 C1333 0.929 . S
H1346 C1334 0.960 . S
H1347 C1334 0.962 . S
H1348 C1334 0.960 . S
H1349 C1335 0.961 . S
H1350 C1335 0.961 . S
H1351 C1335 0.961 . S
H1352 C1336 0.931 . S
H1353 C1341 0.930 . S
H1354 C1342 0.956 . S
H1355 C1342 0.961 . S
H1356 C1342 0.961 . S
H1357 C1343 0.958 . S
H1358 C1343 0.961 . S
H1359 C1343 0.960 . S
C1360 C1361 1.391 . S
C1360 C1362 1.394 . S
C1360 H1376 0.931 . S
C1361 C1360 1.391 . S
C1361 C1365 1.376 . S
C1362 C1360 1.394 . S
C1362 C1363 1.369 . S
C1362 C1366 1.531 . S
C1363 C1362 1.369 . S
C1363 C1364 1.410 . S
C1363 C1371 1.503 . S
C1364 C1363 1.410 . S
C1364 C1365 1.392 . S
C1364 C1367 1.511 1_655 S
C1365 C1361 1.376 . S
C1365 C1364 1.392 . S
C1365 H1377 0.929 . S
C1366 C1362 1.531 . S
C1366 H1378 0.960 . S
C1366 H1379 0.962 . S
C1366 H1380 0.960 . S
C1367 C1364 1.511 1_455 S
C1367 H1381 0.961 . S
C1367 H1382 0.961 . S
C1367 H1383 0.961 . S
C1368 C1369 1.370 . S
C1368 C1370 1.363 . S
C1368 H1384 0.931 . S
C1369 C1368 1.370 . S
C1369 C1373 1.408 . S
C1370 C1368 1.363 . S
C1370 C1371 1.370 1_455 S
C1370 C1374 1.524 . S
C1371 C1363 1.503 . S
C1371 C1370 1.370 1_655 S
C1371 C1372 1.403 . S
C1372 C1371 1.403 . S
C1372 C1373 1.404 1_655 S
C1372 C1375 1.542 . S
C1373 C1369 1.408 . S
C1373 C1372 1.404 1_455 S
C1373 H1385 0.930 . S
C1374 C1370 1.524 . S
C1374 H1386 0.956 1_455 S
C1374 H1387 0.961 . S
C1374 H1388 0.961 . S
C1375 C1372 1.542 . S
C1375 H1389 0.957 1_545 S
C1375 H1390 0.958 1_545 S
C1375 H1391 0.961 . S
H1376 C1360 0.931 . S
H1377 C1365 0.929 . S
H1378 C1366 0.960 . S
H1379 C1366 0.962 . S
H1380 C1366 0.960 . S
H1381 C1367 0.961 . S
H1382 C1367 0.961 . S
H1383 C1367 0.961 . S
H1384 C1368 0.931 . S
H1385 C1373 0.930 . S
H1386 C1374 0.956 1_655 S
H1387 C1374 0.961 . S
H1388 C1374 0.961 . S
H1389 C1375 0.957 1_565 S
H1390 C1375 0.958 1_565 S
H1391 C1375 0.961 . S
C1392 C1393 1.391 . S
C1392 C1394 1.394 . S
C1392 H1408 0.931 . S
C1393 C1392 1.391 . S
C1393 C1397 1.376 . S
C1394 C1392 1.394 . S
C1394 C1395 1.369 . S
C1394 C1398 1.531 . S
C1395 C1394 1.369 . S
C1395 C1396 1.410 . S
C1395 C1403 1.503 . S
C1396 C1395 1.410 . S
C1396 C1397 1.392 . S
C1396 C1399 1.511 . S
C1397 C1393 1.376 . S
C1397 C1396 1.392 . S
C1397 H1409 0.929 . S
C1398 C1394 1.531 . S
C1398 H1410 0.960 . S
C1398 H1411 0.962 . S
C1398 H1412 0.960 . S
C1399 C1396 1.511 . S
C1399 H1413 0.961 . S
C1399 H1414 0.961 . S
C1399 H1415 0.961 . S
C1400 C1401 1.370 . S
C1400 C1402 1.363 . S
C1400 H1416 0.931 . S
C1401 C1400 1.370 . S
C1401 C1405 1.408 . S
C1402 C1400 1.363 . S
C1402 C1403 1.370 . S
C1402 C1406 1.524 . S
C1403 C1395 1.503 . S
C1403 C1402 1.370 . S
C1403 C1404 1.403 . S
C1404 C1403 1.403 . S
C1404 C1405 1.404 . S
C1404 C1407 1.539 . S
C1405 C1401 1.408 . S
C1405 C1404 1.404 . S
C1405 H1417 0.930 . S
C1406 C1402 1.524 . S
C1406 H1418 0.956 . S
C1406 H1419 0.961 . S
C1406 H1420 0.961 . S
C1407 C1404 1.539 . S
C1407 H1421 0.958 . S
C1407 H1422 0.961 . S
C1407 H1423 0.960 . S
H1408 C1392 0.931 . S
H1409 C1397 0.929 . S
H1410 C1398 0.960 . S
H1411 C1398 0.962 . S
H1412 C1398 0.960 . S
H1413 C1399 0.961 . S
H1414 C1399 0.961 . S
H1415 C1399 0.961 . S
H1416 C1400 0.931 . S
H1417 C1405 0.930 . S
H1418 C1406 0.956 . S
H1419 C1406 0.961 . S
H1420 C1406 0.961 . S
H1421 C1407 0.958 . S
H1422 C1407 0.961 . S
H1423 C1407 0.960 . S
C1424 C1425 1.391 . S
C1424 C1426 1.394 . S
C1424 H1440 0.931 . S
C1425 C1424 1.391 . S
C1425 C1429 1.376 . S
C1426 C1424 1.394 . S
C1426 C1427 1.369 . S
C1426 C1430 1.531 . S
C1427 C1426 1.369 . S
C1427 C1428 1.410 . S
C1427 C1435 1.503 . S
C1428 C1427 1.410 . S
C1428 C1429 1.392 . S
C1428 C1431 1.511 . S
C1429 C1425 1.376 . S
C1429 C1428 1.392 . S
C1429 H1441 0.929 . S
C1430 C1426 1.531 . S
C1430 H1442 0.960 . S
C1430 H1443 0.962 . S
C1430 H1444 0.960 . S
C1431 C1428 1.511 . S
C1431 H1445 0.961 . S
C1431 H1446 0.961 . S
C1431 H1447 0.961 . S
C1432 C1433 1.370 . S
C1432 C1434 1.363 . S
C1432 H1448 0.931 . S
C1433 C1432 1.370 . S
C1433 C1437 1.408 . S
C1434 C1432 1.363 . S
C1434 C1435 1.370 . S
C1434 C1438 1.524 . S
C1435 C1427 1.503 . S
C1435 C1434 1.370 . S
C1435 C1436 1.403 . S
C1436 C1435 1.403 . S
C1436 C1437 1.404 . S
C1436 C1439 1.539 . S
C1437 C1433 1.408 . S
C1437 C1436 1.404 . S
C1437 H1449 0.930 . S
C1438 C1434 1.524 . S
C1438 H1450 0.956 . S
C1438 H1451 0.961 . S
C1438 H1452 0.961 . S
C1439 C1436 1.539 . S
C1439 H1453 0.958 . S
C1439 H1454 0.961 . S
C1439 H1455 0.960 . S
H1440 C1424 0.931 . S
H1441 C1429 0.929 . S
H1442 C1430 0.960 . S
H1443 C1430 0.962 . S
H1444 C1430 0.960 . S
H1445 C1431 0.961 . S
H1446 C1431 0.961 . S
H1447 C1431 0.961 . S
H1448 C1432 0.931 . S
H1449 C1437 0.930 . S
H1450 C1438 0.956 . S
H1451 C1438 0.961 . S
H1452 C1438 0.961 . S
H1453 C1439 0.958 . S
H1454 C1439 0.961 . S
H1455 C1439 0.960 . S
C1456 C1457 1.391 . S
C1456 C1458 1.394 . S
C1456 H1472 0.931 . S
C1457 C1456 1.391 . S
C1457 C1461 1.376 . S
C1458 C1456 1.394 . S
C1458 C1459 1.369 . S
C1458 C1462 1.531 . S
C1459 C1458 1.369 . S
C1459 C1460 1.410 . S
C1459 C1467 1.503 . S
C1460 C1459 1.410 . S
C1460 C1461 1.392 . S
C1460 C1463 1.511 . S
C1461 C1457 1.376 . S
C1461 C1460 1.392 . S
C1461 H1473 0.929 . S
C1462 C1458 1.531 . S
C1462 H1474 0.960 . S
C1462 H1475 0.962 . S
C1462 H1476 0.960 . S
C1463 C1460 1.511 . S
C1463 H1477 0.961 . S
C1463 H1478 0.961 . S
C1463 H1479 0.961 . S
C1464 C1465 1.370 . S
C1464 C1466 1.363 . S
C1464 H1480 0.931 . S
C1465 C1464 1.370 . S
C1465 C1469 1.408 . S
C1466 C1464 1.363 . S
C1466 C1467 1.370 . S
C1466 C1470 1.524 . S
C1467 C1459 1.503 . S
C1467 C1466 1.370 . S
C1467 C1468 1.403 . S
C1468 C1467 1.403 . S
C1468 C1469 1.404 . S
C1468 C1471 1.539 . S
C1469 C1465 1.408 . S
C1469 C1468 1.404 . S
C1469 H1481 0.930 . S
C1470 C1466 1.524 . S
C1470 H1482 0.956 . S
C1470 H1483 0.961 . S
C1470 H1484 0.961 . S
C1471 C1468 1.539 . S
C1471 H1485 0.958 . S
C1471 H1486 0.961 . S
C1471 H1487 0.960 . S
H1472 C1456 0.931 . S
H1473 C1461 0.929 . S
H1474 C1462 0.960 . S
H1475 C1462 0.962 . S
H1476 C1462 0.960 . S
H1477 C1463 0.961 . S
H1478 C1463 0.961 . S
H1479 C1463 0.961 . S
H1480 C1464 0.931 . S
H1481 C1469 0.930 . S
H1482 C1470 0.956 . S
H1483 C1470 0.961 . S
H1484 C1470 0.961 . S
H1485 C1471 0.958 . S
H1486 C1471 0.961 . S
H1487 C1471 0.960 . S
C1488 C1489 1.391 . S
C1488 C1490 1.394 . S
C1488 H1504 0.931 . S
C1489 C1488 1.391 . S
C1489 C1493 1.376 1_554 S
C1490 C1488 1.394 . S
C1490 C1491 1.369 . S
C1490 C1494 1.531 . S
C1491 C1490 1.369 . S
C1491 C1492 1.410 . S
C1491 C1499 1.503 . S
C1492 C1491 1.410 . S
C1492 C1493 1.392 1_554 S
C1492 C1495 1.511 1_564 S
C1493 C1489 1.376 1_556 S
C1493 C1492 1.392 1_556 S
C1493 H1505 0.929 . S
C1494 C1490 1.531 . S
C1494 H1506 0.960 . S
C1494 H1507 0.962 . S
C1494 H1508 0.960 . S
C1495 C1492 1.511 1_546 S
C1495 H1509 0.961 . S
C1495 H1510 0.961 . S
C1495 H1511 0.961 . S
C1496 C1497 1.370 1_565 S
C1496 C1498 1.363 . S
C1496 H1512 0.931 . S
C1497 C1496 1.370 1_545 S
C1497 C1501 1.408 . S
C1498 C1496 1.363 . S
C1498 C1499 1.370 . S
C1498 C1502 1.524 1_554 S
C1499 C1491 1.503 . S
C1499 C1498 1.370 . S
C1499 C1500 1.403 1_565 S
C1500 C1499 1.403 1_545 S
C1500 C1501 1.404 . S
C1500 C1503 1.539 . S
C1501 C1497 1.408 . S
C1501 C1500 1.404 . S
C1501 H1513 0.930 . S
C1502 C1498 1.524 1_556 S
C1502 H1514 0.956 1_556 S
C1502 H1515 0.961 . S
C1502 H1516 0.961 . S
C1503 C1500 1.539 . S
C1503 H1517 0.958 . S
C1503 H1518 0.961 . S
C1503 H1519 0.960 . S
H1504 C1488 0.931 . S
H1505 C1493 0.929 . S
H1506 C1494 0.960 . S
H1507 C1494 0.962 . S
H1508 C1494 0.960 . S
H1509 C1495 0.961 . S
H1510 C1495 0.961 . S
H1511 C1495 0.961 . S
H1512 C1496 0.931 . S
H1513 C1501 0.930 . S
H1514 C1502 0.956 1_554 S
H1515 C1502 0.961 . S
H1516 C1502 0.961 . S
H1517 C1503 0.958 . S
H1518 C1503 0.961 . S
H1519 C1503 0.960 . S
C1520 C1521 1.409 . S
C1520 C1522 1.394 . S
C1520 H1536 0.931 . S
C1521 C1520 1.409 . S
C1521 C1525 1.362 1_554 S
C1522 C1520 1.394 . S
C1522 C1523 1.384 . S
C1522 C1526 1.531 . S
C1523 C1522 1.384 . S
C1523 C1524 1.388 1_554 S
C1523 C1531 1.511 . S
C1524 C1523 1.388 1_556 S
C1524 C1525 1.392 . S
C1524 C1527 1.511 . S
C1525 C1521 1.362 1_556 S
C1525 C1524 1.392 . S
C1525 H1537 0.929 . S
C1526 C1522 1.531 . S
C1526 H1538 0.960 . S
C1526 H1539 0.962 . S
C1526 H1540 0.960 . S
C1527 C1524 1.511 . S
C1527 H1541 0.961 . S
C1527 H1542 0.961 . S
C1527 H1543 0.961 . S
C1528 C1529 1.370 . S
C1528 C1530 1.363 . S
C1528 H1544 0.931 . S
C1529 C1528 1.370 . S
C1529 C1533 1.408 1_554 S
C1530 C1528 1.363 . S
C1530 C1531 1.370 . S
C1530 C1534 1.524 . S
C1531 C1523 1.511 . S
C1531 C1530 1.370 . S
C1531 C1532 1.403 1_554 S
C1532 C1531 1.403 1_556 S
C1532 C1533 1.404 . S
C1532 C1535 1.539 . S
C1533 C1529 1.408 1_556 S
C1533 C1532 1.404 . S
C1533 H1545 0.930 . S
C1534 C1530 1.524 . S
C1534 H1546 0.956 . S
C1534 H1547 0.961 . S
C1534 H1548 0.961 . S
C1535 C1532 1.539 . S
C1535 H1549 0.958 . S
C1535 H1550 0.961 . S
C1535 H1551 0.960 . S
H1536 C1520 0.931 . S
H1537 C1525 0.929 . S
H1538 C1526 0.960 . S
H1539 C1526 0.962 . S
H1540 C1526 0.960 . S
H1541 C1527 0.961 . S
H1542 C1527 0.961 . S
H1543 C1527 0.961 . S
H1544 C1528 0.931 . S
H1545 C1533 0.930 . S
H1546 C1534 0.956 . S
H1547 C1534 0.961 . S
H1548 C1534 0.961 . S
H1549 C1535 0.958 . S
H1550 C1535 0.961 . S
H1551 C1535 0.960 . S
C1552 C1553 1.391 . S
C1552 C1554 1.394 . S
C1552 H1568 0.931 . S
C1553 C1552 1.391 . S
C1553 C1557 1.376 . S
C1554 C1552 1.394 . S
C1554 C1555 1.369 . S
C1554 C1558 1.531 . S
C1555 C1554 1.369 . S
C1555 C1556 1.410 . S
C1555 C1563 1.503 . S
C1556 C1555 1.410 . S
C1556 C1557 1.392 . S
C1556 C1559 1.511 . S
C1557 C1553 1.376 . S
C1557 C1556 1.392 . S
C1557 H1569 0.929 . S
C1558 C1554 1.531 . S
C1558 H1570 0.960 . S
C1558 H1571 0.962 . S
C1558 H1572 0.960 . S
C1559 C1556 1.511 . S
C1559 H1573 0.961 . S
C1559 H1574 0.961 . S
C1559 H1575 0.961 . S
C1560 C1561 1.370 . S
C1560 C1562 1.363 . S
C1560 H1576 0.931 . S
C1561 C1560 1.370 . S
C1561 C1565 1.408 . S
C1562 C1560 1.363 . S
C1562 C1563 1.370 . S
C1562 C1566 1.524 . S
C1563 C1555 1.503 . S
C1563 C1562 1.370 . S
C1563 C1564 1.403 . S
C1564 C1563 1.403 . S
C1564 C1565 1.404 . S
C1564 C1567 1.539 . S
C1565 C1561 1.408 . S
C1565 C1564 1.404 . S
C1565 H1577 0.930 . S
C1566 C1562 1.524 . S
C1566 H1578 0.956 . S
C1566 H1579 0.961 . S
C1566 H1580 0.961 . S
C1567 C1564 1.539 . S
C1567 H1581 0.958 . S
C1567 H1582 0.961 . S
C1567 H1583 0.960 . S
H1568 C1552 0.931 . S
H1569 C1557 0.929 . S
H1570 C1558 0.960 . S
H1571 C1558 0.962 . S
H1572 C1558 0.960 . S
H1573 C1559 0.961 . S
H1574 C1559 0.961 . S
H1575 C1559 0.961 . S
H1576 C1560 0.931 . S
H1577 C1565 0.930 . S
H1578 C1566 0.956 . S
H1579 C1566 0.961 . S
H1580 C1566 0.961 . S
H1581 C1567 0.958 . S
H1582 C1567 0.961 . S
H1583 C1567 0.960 . S
C1584 C1585 1.391 . S
C1584 C1586 1.394 . S
C1584 H1600 0.931 . S
C1585 C1584 1.391 . S
C1585 C1589 1.376 . S
C1586 C1584 1.394 . S
C1586 C1587 1.369 . S
C1586 C1590 1.531 . S
C1587 C1586 1.369 . S
C1587 C1588 1.410 . S
C1587 C1595 1.503 . S
C1588 C1587 1.410 . S
C1588 C1589 1.392 . S
C1588 C1591 1.511 . S
C1589 C1585 1.376 . S
C1589 C1588 1.392 . S
C1589 H1601 0.929 . S
C1590 C1586 1.531 . S
C1590 H1602 0.960 . S
C1590 H1603 0.962 . S
C1590 H1604 0.960 . S
C1591 C1588 1.511 . S
C1591 H1605 0.961 . S
C1591 H1606 0.961 . S
C1591 H1607 0.961 . S
C1592 C1593 1.370 . S
C1592 C1594 1.363 . S
C1592 H1608 0.931 . S
C1593 C1592 1.370 . S
C1593 C1597 1.408 . S
C1594 C1592 1.363 . S
C1594 C1595 1.370 . S
C1594 C1598 1.524 . S
C1595 C1587 1.503 . S
C1595 C1594 1.370 . S
C1595 C1596 1.403 . S
C1596 C1595 1.403 . S
C1596 C1597 1.404 . S
C1596 C1599 1.539 . S
C1597 C1593 1.408 . S
C1597 C1596 1.404 . S
C1597 H1609 0.930 . S
C1598 C1594 1.524 . S
C1598 H1610 0.956 . S
C1598 H1611 0.961 . S
C1598 H1612 0.961 . S
C1599 C1596 1.539 . S
C1599 H1613 0.958 . S
C1599 H1614 0.961 . S
C1599 H1615 0.960 . S
H1600 C1584 0.931 . S
H1601 C1589 0.929 . S
H1602 C1590 0.960 . S
H1603 C1590 0.962 . S
H1604 C1590 0.960 . S
H1605 C1591 0.961 . S
H1606 C1591 0.961 . S
H1607 C1591 0.961 . S
H1608 C1592 0.931 . S
H1609 C1597 0.930 . S
H1610 C1598 0.956 . S
H1611 C1598 0.961 . S
H1612 C1598 0.961 . S
H1613 C1599 0.958 . S
H1614 C1599 0.961 . S
H1615 C1599 0.960 . S
C1616 C1617 1.391 . S
C1616 C1618 1.394 . S
C1616 H1632 0.931 . S
C1617 C1616 1.391 . S
C1617 C1621 1.376 . S
C1618 C1616 1.394 . S
C1618 C1619 1.369 . S
C1618 C1622 1.531 . S
C1619 C1618 1.369 . S
C1619 C1620 1.410 . S
C1619 C1627 1.503 . S
C1620 C1619 1.410 . S
C1620 C1621 1.392 . S
C1620 C1623 1.511 . S
C1621 C1617 1.376 . S
C1621 C1620 1.392 . S
C1621 H1633 0.929 . S
C1622 C1618 1.531 . S
C1622 H1634 0.960 . S
C1622 H1635 0.962 . S
C1622 H1636 0.960 . S
C1623 C1620 1.511 . S
C1623 H1637 0.961 . S
C1623 H1638 0.961 . S
C1623 H1639 0.961 . S
C1624 C1625 1.370 . S
C1624 C1626 1.363 . S
C1624 H1640 0.931 . S
C1625 C1624 1.370 . S
C1625 C1629 1.408 . S
C1626 C1624 1.363 . S
C1626 C1627 1.370 . S
C1626 C1630 1.524 . S
C1627 C1619 1.503 . S
C1627 C1626 1.370 . S
C1627 C1628 1.403 . S
C1628 C1627 1.403 . S
C1628 C1629 1.404 . S
C1628 C1631 1.539 . S
C1629 C1625 1.408 . S
C1629 C1628 1.404 . S
C1629 H1641 0.930 . S
C1630 C1626 1.524 . S
C1630 H1642 0.956 . S
C1630 H1643 0.961 . S
C1630 H1644 0.961 . S
C1631 C1628 1.539 . S
C1631 H1645 0.958 . S
C1631 H1646 0.961 . S
C1631 H1647 0.960 . S
H1632 C1616 0.931 . S
H1633 C1621 0.929 . S
H1634 C1622 0.960 . S
H1635 C1622 0.962 . S
H1636 C1622 0.960 . S
H1637 C1623 0.961 . S
H1638 C1623 0.961 . S
H1639 C1623 0.961 . S
H1640 C1624 0.931 . S
H1641 C1629 0.930 . S
H1642 C1630 0.956 . S
H1643 C1630 0.961 . S
H1644 C1630 0.961 . S
H1645 C1631 0.958 . S
H1646 C1631 0.961 . S
H1647 C1631 0.960 . S
C1648 C1649 1.391 . S
C1648 C1650 1.394 . S
C1648 H1664 0.931 . S
C1649 C1648 1.391 . S
C1649 C1653 1.376 . S
C1650 C1648 1.394 . S
C1650 C1651 1.369 . S
C1650 C1654 1.531 . S
C1651 C1650 1.369 . S
C1651 C1652 1.410 . S
C1651 C1659 1.503 . S
C1652 C1651 1.410 . S
C1652 C1653 1.392 . S
C1652 C1655 1.511 . S
C1653 C1649 1.376 . S
C1653 C1652 1.392 . S
C1653 H1665 0.929 . S
C1654 C1650 1.531 . S
C1654 H1666 0.960 . S
C1654 H1667 0.962 . S
C1654 H1668 0.960 . S
C1655 C1652 1.511 . S
C1655 H1669 0.961 . S
C1655 H1670 0.961 . S
C1655 H1671 0.961 . S
C1656 C1657 1.370 . S
C1656 C1658 1.363 . S
C1656 H1672 0.931 . S
C1657 C1656 1.370 . S
C1657 C1661 1.408 . S
C1658 C1656 1.363 . S
C1658 C1659 1.370 . S
C1658 C1662 1.524 . S
C1659 C1651 1.503 . S
C1659 C1658 1.370 . S
C1659 C1660 1.403 . S
C1660 C1659 1.403 . S
C1660 C1661 1.404 . S
C1660 C1663 1.539 . S
C1661 C1657 1.408 . S
C1661 C1660 1.404 . S
C1661 H1673 0.930 . S
C1662 C1658 1.524 . S
C1662 H1674 0.956 . S
C1662 H1675 0.961 . S
C1662 H1676 0.961 . S
C1663 C1660 1.539 . S
C1663 H1677 0.958 . S
C1663 H1678 0.961 . S
C1663 H1679 0.960 . S
H1664 C1648 0.931 . S
H1665 C1653 0.929 . S
H1666 C1654 0.960 . S
H1667 C1654 0.962 . S
H1668 C1654 0.960 . S
H1669 C1655 0.961 . S
H1670 C1655 0.961 . S
H1671 C1655 0.961 . S
H1672 C1656 0.931 . S
H1673 C1661 0.930 . S
H1674 C1662 0.956 . S
H1675 C1662 0.961 . S
H1676 C1662 0.961 . S
H1677 C1663 0.958 . S
H1678 C1663 0.961 . S
H1679 C1663 0.960 . S
C1680 C1681 1.391 . S
C1680 C1682 1.394 . S
C1680 H1696 0.931 . S
C1681 C1680 1.391 . S
C1681 C1685 1.376 . S
C1682 C1680 1.394 . S
C1682 C1683 1.369 . S
C1682 C1686 1.531 . S
C1683 C1682 1.369 . S
C1683 C1684 1.410 . S
C1683 C1691 1.503 . S
C1684 C1683 1.410 . S
C1684 C1685 1.392 . S
C1684 C1687 1.511 . S
C1685 C1681 1.376 . S
C1685 C1684 1.392 . S
C1685 H1697 0.929 . S
C1686 C1682 1.531 . S
C1686 H1698 0.960 . S
C1686 H1699 0.962 . S
C1686 H1700 0.960 . S
C1687 C1684 1.511 . S
C1687 H1701 0.961 . S
C1687 H1702 0.961 . S
C1687 H1703 0.961 . S
C1688 C1689 1.370 . S
C1688 C1690 1.363 . S
C1688 H1704 0.931 . S
C1689 C1688 1.370 . S
C1689 C1693 1.408 . S
C1690 C1688 1.363 . S
C1690 C1691 1.370 . S
C1690 C1694 1.524 . S
C1691 C1683 1.503 . S
C1691 C1690 1.370 . S
C1691 C1692 1.403 . S
C1692 C1691 1.403 . S
C1692 C1693 1.404 . S
C1692 C1695 1.539 . S
C1693 C1689 1.408 . S
C1693 C1692 1.404 . S
C1693 H1705 0.930 . S
C1694 C1690 1.524 . S
C1694 H1706 0.956 . S
C1694 H1707 0.961 . S
C1694 H1708 0.961 . S
C1695 C1692 1.539 . S
C1695 H1709 0.958 . S
C1695 H1710 0.961 . S
C1695 H1711 0.960 . S
H1696 C1680 0.931 . S
H1697 C1685 0.929 . S
H1698 C1686 0.960 . S
H1699 C1686 0.962 . S
H1700 C1686 0.960 . S
H1701 C1687 0.961 . S
H1702 C1687 0.961 . S
H1703 C1687 0.961 . S
H1704 C1688 0.931 . S
H1705 C1693 0.930 . S
H1706 C1694 0.956 . S
H1707 C1694 0.961 . S
H1708 C1694 0.961 . S
H1709 C1695 0.958 . S
H1710 C1695 0.961 . S
H1711 C1695 0.960 . S
C1712 C1713 1.391 . S
C1712 C1714 1.394 . S
C1712 H1728 0.931 . S
C1713 C1712 1.391 . S
C1713 C1717 1.376 . S
C1714 C1712 1.394 . S
C1714 C1715 1.369 . S
C1714 C1718 1.531 . S
C1715 C1714 1.369 . S
C1715 C1716 1.410 . S
C1715 C1723 1.503 . S
C1716 C1715 1.410 . S
C1716 C1717 1.392 . S
C1716 C1719 1.511 . S
C1717 C1713 1.376 . S
C1717 C1716 1.392 . S
C1717 H1729 0.929 . S
C1718 C1714 1.531 . S
C1718 H1730 0.960 . S
C1718 H1731 0.962 . S
C1718 H1732 0.960 . S
C1719 C1716 1.511 . S
C1719 H1733 0.961 . S
C1719 H1734 0.961 . S
C1719 H1735 0.961 . S
C1720 C1721 1.370 . S
C1720 C1722 1.363 . S
C1720 H1736 0.931 . S
C1721 C1720 1.370 . S
C1721 C1725 1.408 . S
C1722 C1720 1.363 . S
C1722 C1723 1.370 . S
C1722 C1726 1.524 . S
C1723 C1715 1.503 . S
C1723 C1722 1.370 . S
C1723 C1724 1.403 . S
C1724 C1723 1.403 . S
C1724 C1725 1.404 . S
C1724 C1727 1.539 . S
C1725 C1721 1.408 . S
C1725 C1724 1.404 . S
C1725 H1737 0.930 . S
C1726 C1722 1.524 . S
C1726 H1738 0.956 . S
C1726 H1739 0.961 . S
C1726 H1740 0.961 . S
C1727 C1724 1.539 . S
C1727 H1741 0.958 . S
C1727 H1742 0.961 . S
C1727 H1743 0.960 . S
H1728 C1712 0.931 . S
H1729 C1717 0.929 . S
H1730 C1718 0.960 . S
H1731 C1718 0.962 . S
H1732 C1718 0.960 . S
H1733 C1719 0.961 . S
H1734 C1719 0.961 . S
H1735 C1719 0.961 . S
H1736 C1720 0.931 . S
H1737 C1725 0.930 . S
H1738 C1726 0.956 . S
H1739 C1726 0.961 . S
H1740 C1726 0.961 . S
H1741 C1727 0.958 . S
H1742 C1727 0.961 . S
H1743 C1727 0.960 . S
C1744 C1745 1.391 . S
C1744 C1746 1.394 . S
C1744 H1760 0.931 . S
C1745 C1744 1.391 . S
C1745 C1749 1.376 . S
C1746 C1744 1.394 . S
C1746 C1747 1.369 . S
C1746 C1750 1.531 . S
C1747 C1746 1.369 . S
C1747 C1748 1.410 . S
C1747 C1755 1.503 . S
C1748 C1747 1.410 . S
C1748 C1749 1.392 . S
C1748 C1751 1.511 . S
C1749 C1745 1.376 . S
C1749 C1748 1.392 . S
C1749 H1761 0.929 . S
C1750 C1746 1.531 . S
C1750 H1762 0.960 . S
C1750 H1763 0.962 . S
C1750 H1764 0.960 . S
C1751 C1748 1.511 . S
C1751 H1765 0.961 . S
C1751 H1766 0.961 . S
C1751 H1767 0.961 . S
C1752 C1753 1.370 . S
C1752 C1754 1.363 . S
C1752 H1768 0.931 . S
C1753 C1752 1.370 . S
C1753 C1757 1.408 . S
C1754 C1752 1.363 . S
C1754 C1755 1.370 . S
C1754 C1758 1.524 . S
C1755 C1747 1.503 . S
C1755 C1754 1.370 . S
C1755 C1756 1.403 . S
C1756 C1755 1.403 . S
C1756 C1757 1.404 . S
C1756 C1759 1.539 . S
C1757 C1753 1.408 . S
C1757 C1756 1.404 . S
C1757 H1769 0.930 . S
C1758 C1754 1.524 . S
C1758 H1770 0.956 . S
C1758 H1771 0.961 . S
C1758 H1772 0.961 . S
C1759 C1756 1.539 . S
C1759 H1773 0.958 . S
C1759 H1774 0.961 . S
C1759 H1775 0.960 . S
H1760 C1744 0.931 . S
H1761 C1749 0.929 . S
H1762 C1750 0.960 . S
H1763 C1750 0.962 . S
H1764 C1750 0.960 . S
H1765 C1751 0.961 . S
H1766 C1751 0.961 . S
H1767 C1751 0.961 . S
H1768 C1752 0.931 . S
H1769 C1757 0.930 . S
H1770 C1758 0.956 . S
H1771 C1758 0.961 . S
H1772 C1758 0.961 . S
H1773 C1759 0.958 . S
H1774 C1759 0.961 . S
H1775 C1759 0.960 . S
C1776 C1777 1.391 . S
C1776 C1778 1.394 . S
C1776 H1792 0.931 . S
C1777 C1776 1.391 . S
C1777 C1781 1.376 . S
C1778 C1776 1.394 . S
C1778 C1779 1.369 . S
C1778 C1782 1.531 . S
C1779 C1778 1.369 . S
C1779 C1780 1.410 . S
C1779 C1787 1.503 . S
C1780 C1779 1.410 . S
C1780 C1781 1.392 . S
C1780 C1783 1.511 . S
C1781 C1777 1.376 . S
C1781 C1780 1.392 . S
C1781 H1793 0.929 . S
C1782 C1778 1.531 . S
C1782 H1794 0.960 . S
C1782 H1795 0.962 . S
C1782 H1796 0.960 . S
C1783 C1780 1.511 . S
C1783 H1797 0.961 . S
C1783 H1798 0.961 . S
C1783 H1799 0.961 . S
C1784 C1785 1.370 . S
C1784 C1786 1.363 . S
C1784 H1800 0.931 . S
C1785 C1784 1.370 . S
C1785 C1789 1.408 . S
C1786 C1784 1.363 . S
C1786 C1787 1.370 . S
C1786 C1790 1.524 . S
C1787 C1779 1.503 . S
C1787 C1786 1.370 . S
C1787 C1788 1.403 . S
C1788 C1787 1.403 . S
C1788 C1789 1.404 . S
C1788 C1791 1.539 . S
C1789 C1785 1.408 . S
C1789 C1788 1.404 . S
C1789 H1801 0.930 . S
C1790 C1786 1.524 . S
C1790 H1802 0.956 . S
C1790 H1803 0.961 . S
C1790 H1804 0.961 . S
C1791 C1788 1.539 . S
C1791 H1805 0.958 . S
C1791 H1806 0.961 . S
C1791 H1807 0.960 . S
H1792 C1776 0.931 . S
H1793 C1781 0.929 . S
H1794 C1782 0.960 . S
H1795 C1782 0.962 . S
H1796 C1782 0.960 . S
H1797 C1783 0.961 . S
H1798 C1783 0.961 . S
H1799 C1783 0.961 . S
H1800 C1784 0.931 . S
H1801 C1789 0.930 . S
H1802 C1790 0.956 . S
H1803 C1790 0.961 . S
H1804 C1790 0.961 . S
H1805 C1791 0.958 . S
H1806 C1791 0.961 . S
H1807 C1791 0.960 . S
C1808 C1809 1.391 . S
C1808 C1810 1.394 . S
C1808 H1824 0.931 . S
C1809 C1808 1.391 . S
C1809 C1813 1.376 . S
C1810 C1808 1.394 . S
C1810 C1811 1.369 . S
C1810 C1814 1.531 . S
C1811 C1810 1.369 . S
C1811 C1812 1.410 . S
C1811 C1819 1.503 . S
C1812 C1811 1.410 . S
C1812 C1813 1.392 . S
C1812 C1815 1.511 . S
C1813 C1809 1.376 . S
C1813 C1812 1.392 . S
C1813 H1825 0.929 . S
C1814 C1810 1.531 . S
C1814 H1826 0.960 . S
C1814 H1827 0.962 . S
C1814 H1828 0.960 . S
C1815 C1812 1.511 . S
C1815 H1829 0.961 . S
C1815 H1830 0.961 . S
C1815 H1831 0.961 . S
C1816 C1817 1.370 . S
C1816 C1818 1.363 . S
C1816 H1832 0.931 . S
C1817 C1816 1.370 . S
C1817 C1821 1.408 . S
C1818 C1816 1.363 . S
C1818 C1819 1.370 . S
C1818 C1822 1.524 . S
C1819 C1811 1.503 . S
C1819 C1818 1.370 . S
C1819 C1820 1.403 . S
C1820 C1819 1.403 . S
C1820 C1821 1.404 . S
C1820 C1823 1.539 . S
C1821 C1817 1.408 . S
C1821 C1820 1.404 . S
C1821 H1833 0.930 . S
C1822 C1818 1.524 . S
C1822 H1834 0.956 . S
C1822 H1835 0.961 . S
C1822 H1836 0.961 . S
C1823 C1820 1.539 . S
C1823 H1837 0.958 . S
C1823 H1838 0.961 . S
C1823 H1839 0.960 . S
H1824 C1808 0.931 . S
H1825 C1813 0.929 . S
H1826 C1814 0.960 . S
H1827 C1814 0.962 . S
H1828 C1814 0.960 . S
H1829 C1815 0.961 . S
H1830 C1815 0.961 . S
H1831 C1815 0.961 . S
H1832 C1816 0.931 . S
H1833 C1821 0.930 . S
H1834 C1822 0.956 . S
H1835 C1822 0.961 . S
H1836 C1822 0.961 . S
H1837 C1823 0.958 . S
H1838 C1823 0.961 . S
H1839 C1823 0.960 . S
C1840 C1841 1.391 . S
C1840 C1842 1.394 . S
C1840 H1856 0.931 . S
C1841 C1840 1.391 . S
C1841 C1845 1.376 . S
C1842 C1840 1.394 . S
C1842 C1843 1.369 . S
C1842 C1846 1.531 . S
C1843 C1842 1.369 . S
C1843 C1844 1.410 . S
C1843 C1851 1.503 . S
C1844 C1843 1.410 . S
C1844 C1845 1.392 . S
C1844 C1847 1.511 . S
C1845 C1841 1.376 . S
C1845 C1844 1.392 . S
C1845 H1857 0.929 . S
C1846 C1842 1.531 . S
C1846 H1858 0.960 . S
C1846 H1859 0.962 . S
C1846 H1860 0.960 . S
C1847 C1844 1.511 . S
C1847 H1861 0.961 . S
C1847 H1862 0.961 . S
C1847 H1863 0.961 . S
C1848 C1849 1.370 . S
C1848 C1850 1.363 . S
C1848 H1864 0.931 . S
C1849 C1848 1.370 . S
C1849 C1853 1.408 . S
C1850 C1848 1.363 . S
C1850 C1851 1.370 . S
C1850 C1854 1.524 . S
C1851 C1843 1.503 . S
C1851 C1850 1.370 . S
C1851 C1852 1.403 . S
C1852 C1851 1.403 . S
C1852 C1853 1.404 . S
C1852 C1855 1.539 . S
C1853 C1849 1.408 . S
C1853 C1852 1.404 . S
C1853 H1865 0.930 . S
C1854 C1850 1.524 . S
C1854 H1866 0.956 . S
C1854 H1867 0.961 . S
C1854 H1868 0.961 . S
C1855 C1852 1.539 . S
C1855 H1869 0.958 . S
C1855 H1870 0.961 . S
C1855 H1871 0.960 . S
H1856 C1840 0.931 . S
H1857 C1845 0.929 . S
H1858 C1846 0.960 . S
H1859 C1846 0.962 . S
H1860 C1846 0.960 . S
H1861 C1847 0.961 . S
H1862 C1847 0.961 . S
H1863 C1847 0.961 . S
H1864 C1848 0.931 . S
H1865 C1853 0.930 . S
H1866 C1854 0.956 . S
H1867 C1854 0.961 . S
H1868 C1854 0.961 . S
H1869 C1855 0.958 . S
H1870 C1855 0.961 . S
H1871 C1855 0.960 . S
C1872 C1873 1.391 . S
C1872 C1874 1.394 . S
C1872 H1888 0.931 . S
C1873 C1872 1.391 . S
C1873 C1877 1.376 . S
C1874 C1872 1.394 . S
C1874 C1875 1.369 . S
C1874 C1878 1.531 . S
C1875 C1874 1.369 . S
C1875 C1876 1.410 . S
C1875 C1883 1.503 . S
C1876 C1875 1.410 . S
C1876 C1877 1.392 . S
C1876 C1879 1.511 . S
C1877 C1873 1.376 . S
C1877 C1876 1.392 . S
C1877 H1889 0.929 . S
C1878 C1874 1.531 . S
C1878 H1890 0.960 . S
C1878 H1891 0.962 . S
C1878 H1892 0.960 . S
C1879 C1876 1.511 . S
C1879 H1893 0.961 . S
C1879 H1894 0.961 . S
C1879 H1895 0.961 . S
C1880 C1881 1.370 . S
C1880 C1882 1.363 . S
C1880 H1896 0.931 . S
C1881 C1880 1.370 . S
C1881 C1885 1.408 . S
C1882 C1880 1.363 . S
C1882 C1883 1.370 . S
C1882 C1886 1.524 . S
C1883 C1875 1.503 . S
C1883 C1882 1.370 . S
C1883 C1884 1.403 . S
C1884 C1883 1.403 . S
C1884 C1885 1.404 . S
C1884 C1887 1.539 . S
C1885 C1881 1.408 . S
C1885 C1884 1.404 . S
C1885 H1897 0.930 . S
C1886 C1882 1.524 . S
C1886 H1898 0.956 . S
C1886 H1899 0.961 . S
C1886 H1900 0.961 . S
C1887 C1884 1.539 . S
C1887 H1901 0.958 . S
C1887 H1902 0.961 . S
C1887 H1903 0.960 . S
H1888 C1872 0.931 . S
H1889 C1877 0.929 . S
H1890 C1878 0.960 . S
H1891 C1878 0.962 . S
H1892 C1878 0.960 . S
H1893 C1879 0.961 . S
H1894 C1879 0.961 . S
H1895 C1879 0.961 . S
H1896 C1880 0.931 . S
H1897 C1885 0.930 . S
H1898 C1886 0.956 . S
H1899 C1886 0.961 . S
H1900 C1886 0.961 . S
H1901 C1887 0.958 . S
H1902 C1887 0.961 . S
H1903 C1887 0.960 . S
C1904 C1905 1.391 . S
C1904 C1906 1.394 . S
C1904 H1920 0.931 . S
C1905 C1904 1.391 . S
C1905 C1909 1.376 . S
C1906 C1904 1.394 . S
C1906 C1907 1.369 . S
C1906 C1910 1.531 . S
C1907 C1906 1.369 . S
C1907 C1908 1.410 . S
C1907 C1915 1.503 . S
C1908 C1907 1.410 . S
C1908 C1909 1.392 . S
C1908 C1911 1.511 . S
C1909 C1905 1.376 . S
C1909 C1908 1.392 . S
C1909 H1921 0.929 . S
C1910 C1906 1.531 . S
C1910 H1922 0.960 . S
C1910 H1923 0.962 . S
C1910 H1924 0.960 . S
C1911 C1908 1.511 . S
C1911 H1925 0.961 . S
C1911 H1926 0.961 . S
C1911 H1927 0.961 . S
C1912 C1913 1.370 . S
C1912 C1914 1.363 . S
C1912 H1928 0.931 . S
C1913 C1912 1.370 . S
C1913 C1917 1.408 . S
C1914 C1912 1.363 . S
C1914 C1915 1.370 . S
C1914 C1918 1.524 . S
C1915 C1907 1.503 . S
C1915 C1914 1.370 . S
C1915 C1916 1.403 . S
C1916 C1915 1.403 . S
C1916 C1917 1.404 . S
C1916 C1919 1.539 . S
C1917 C1913 1.408 . S
C1917 C1916 1.404 . S
C1917 H1929 0.930 . S
C1918 C1914 1.524 . S
C1918 H1930 0.956 . S
C1918 H1931 0.961 . S
C1918 H1932 0.961 . S
C1919 C1916 1.539 . S
C1919 H1933 0.958 . S
C1919 H1934 0.961 . S
C1919 H1935 0.960 . S
H1920 C1904 0.931 . S
H1921 C1909 0.929 . S
H1922 C1910 0.960 . S
H1923 C1910 0.962 . S
H1924 C1910 0.960 . S
H1925 C1911 0.961 . S
H1926 C1911 0.961 . S
H1927 C1911 0.961 . S
H1928 C1912 0.931 . S
H1929 C1917 0.930 . S
H1930 C1918 0.956 . S
H1931 C1918 0.961 . S
H1932 C1918 0.961 . S
H1933 C1919 0.958 . S
H1934 C1919 0.961 . S
H1935 C1919 0.960 . S
C1936 C1937 1.391 . S
C1936 C1938 1.394 . S
C1936 H1952 0.931 . S
C1937 C1936 1.391 . S
C1937 C1941 1.376 . S
C1938 C1936 1.394 . S
C1938 C1939 1.369 . S
C1938 C1942 1.531 . S
C1939 C1938 1.369 . S
C1939 C1940 1.410 . S
C1939 C1947 1.503 . S
C1940 C1939 1.410 . S
C1940 C1941 1.392 . S
C1940 C1943 1.511 . S
C1941 C1937 1.376 . S
C1941 C1940 1.392 . S
C1941 H1953 0.929 . S
C1942 C1938 1.531 . S
C1942 H1954 0.960 . S
C1942 H1955 0.962 . S
C1942 H1956 0.960 . S
C1943 C1940 1.511 . S
C1943 H1957 0.961 . S
C1943 H1958 0.961 . S
C1943 H1959 0.961 . S
C1944 C1945 1.370 . S
C1944 C1946 1.363 . S
C1944 H1960 0.931 . S
C1945 C1944 1.370 . S
C1945 C1949 1.404 1_556 S
C1946 C1944 1.363 . S
C1946 C1947 1.370 . S
C1946 C1950 1.524 . S
C1947 C1939 1.503 . S
C1947 C1946 1.370 . S
C1947 C1948 1.403 . S
C1948 C1947 1.403 . S
C1948 C1949 1.401 1_556 S
C1948 C1951 1.539 1_556 S
C1949 C1945 1.404 1_554 S
C1949 C1948 1.401 1_554 S
C1949 H1961 0.937 . S
C1950 C1946 1.524 . S
C1950 H1962 0.956 . S
C1950 H1963 0.961 . S
C1950 H1964 0.961 . S
C1951 C1948 1.539 1_554 S
C1951 H1965 0.958 . S
C1951 H1966 0.961 . S
C1951 H1967 0.960 1_554 S
H1952 C1936 0.931 . S
H1953 C1941 0.929 . S
H1954 C1942 0.960 . S
H1955 C1942 0.962 . S
H1956 C1942 0.960 . S
H1957 C1943 0.961 . S
H1958 C1943 0.961 . S
H1959 C1943 0.961 . S
H1960 C1944 0.931 . S
H1961 C1949 0.937 . S
H1962 C1950 0.956 . S
H1963 C1950 0.961 . S
H1964 C1950 0.961 . S
H1965 C1951 0.958 . S
H1966 C1951 0.961 . S
H1967 C1951 0.960 1_556 S
C1968 C1969 1.391 . S
C1968 C1970 1.394 . S
C1968 H1984 0.931 . S
C1969 C1968 1.391 . S
C1969 C1973 1.376 . S
C1970 C1968 1.394 . S
C1970 C1971 1.369 . S
C1970 C1974 1.531 . S
C1971 C1970 1.369 . S
C1971 C1972 1.410 . S
C1971 C1979 1.503 . S
C1972 C1971 1.410 . S
C1972 C1973 1.392 . S
C1972 C1975 1.511 . S
C1973 C1969 1.376 . S
C1973 C1972 1.392 . S
C1973 H1985 0.929 . S
C1974 C1970 1.531 . S
C1974 H1986 0.960 . S
C1974 H1987 0.962 . S
C1974 H1988 0.960 . S
C1975 C1972 1.511 . S
C1975 H1989 0.961 . S
C1975 H1990 0.961 . S
C1975 H1991 0.961 . S
C1976 C1977 1.370 . S
C1976 C1978 1.363 . S
C1976 H1992 0.931 . S
C1977 C1976 1.370 . S
C1977 C1981 1.408 . S
C1978 C1976 1.363 . S
C1978 C1979 1.370 . S
C1978 C1982 1.524 . S
C1979 C1971 1.503 . S
C1979 C1978 1.370 . S
C1979 C1980 1.403 . S
C1980 C1979 1.403 . S
C1980 C1981 1.404 . S
C1980 C1983 1.539 . S
C1981 C1977 1.408 . S
C1981 C1980 1.404 . S
C1981 H1993 0.930 . S
C1982 C1978 1.524 . S
C1982 H1994 0.956 . S
C1982 H1995 0.961 . S
C1982 H1996 0.961 . S
C1983 C1980 1.539 . S
C1983 H1997 0.958 . S
C1983 H1998 0.961 . S
C1983 H1999 0.960 . S
H1984 C1968 0.931 . S
H1985 C1973 0.929 . S
H1986 C1974 0.960 . S
H1987 C1974 0.962 . S
H1988 C1974 0.960 . S
H1989 C1975 0.961 . S
H1990 C1975 0.961 . S
H1991 C1975 0.961 . S
H1992 C1976 0.931 . S
H1993 C1981 0.930 . S
H1994 C1982 0.956 . S
H1995 C1982 0.961 . S
H1996 C1982 0.961 . S
H1997 C1983 0.958 . S
H1998 C1983 0.961 . S
H1999 C1983 0.960 . S
C2000 C2001 1.391 . S
C2000 C2002 1.394 . S
C2000 H2016 0.931 . S
C2001 C2000 1.391 . S
C2001 C2005 1.376 . S
C2002 C2000 1.394 . S
C2002 C2003 1.369 . S
C2002 C2006 1.531 . S
C2003 C2002 1.369 . S
C2003 C2004 1.410 . S
C2003 C2011 1.503 . S
C2004 C2003 1.410 . S
C2004 C2005 1.392 . S
C2004 C2007 1.511 1_545 S
C2005 C2001 1.376 . S
C2005 C2004 1.392 . S
C2005 H2017 0.929 1_545 S
C2006 C2002 1.531 . S
C2006 H2018 0.960 . S
C2006 H2019 0.962 . S
C2006 H2020 0.960 . S
C2007 C2004 1.511 1_565 S
C2007 H2021 0.961 . S
C2007 H2022 0.961 . S
C2007 H2023 0.961 . S
C2008 C2009 1.370 . S
C2008 C2010 1.363 . S
C2008 H2024 0.931 . S
C2009 C2008 1.370 . S
C2009 C2013 1.408 . S
C2010 C2008 1.363 . S
C2010 C2011 1.370 . S
C2010 C2014 1.529 . S
C2011 C2003 1.503 . S
C2011 C2010 1.370 . S
C2011 C2012 1.403 . S
C2012 C2011 1.403 . S
C2012 C2013 1.404 . S
C2012 C2015 1.539 . S
C2013 C2009 1.408 . S
C2013 C2012 1.404 . S
C2013 H2025 0.930 . S
C2014 C2010 1.529 . S
C2014 H2026 0.960 . S
C2014 H2027 0.957 1_545 S
C2014 H2028 0.956 1_545 S
C2015 C2012 1.539 . S
C2015 H2029 0.958 . S
C2015 H2030 0.961 . S
C2015 H2031 0.960 . S
H2016 C2000 0.931 . S
H2017 C2005 0.929 1_565 S
H2018 C2006 0.960 . S
H2019 C2006 0.962 . S
H2020 C2006 0.960 . S
H2021 C2007 0.961 . S
H2022 C2007 0.961 . S
H2023 C2007 0.961 . S
H2024 C2008 0.931 . S
H2025 C2013 0.930 . S
H2026 C2014 0.960 . S
H2027 C2014 0.957 1_565 S
H2028 C2014 0.956 1_565 S
H2029 C2015 0.958 . S
H2030 C2015 0.961 . S
H2031 C2015 0.960 . S
C2032 C2033 1.391 . S
C2032 C2034 1.394 . S
C2032 H2048 0.931 . S
C2033 C2032 1.391 . S
C2033 C2037 1.376 . S
C2034 C2032 1.394 . S
C2034 C2035 1.369 . S
C2034 C2038 1.531 . S
C2035 C2034 1.369 . S
C2035 C2036 1.410 . S
C2035 C2043 1.503 . S
C2036 C2035 1.410 . S
C2036 C2037 1.392 . S
C2036 C2039 1.511 . S
C2037 C2033 1.376 . S
C2037 C2036 1.392 . S
C2037 H2049 0.929 . S
C2038 C2034 1.531 . S
C2038 H2050 0.960 . S
C2038 H2051 0.962 . S
C2038 H2052 0.960 . S
C2039 C2036 1.511 . S
C2039 H2053 0.961 . S
C2039 H2054 0.961 . S
C2039 H2055 0.961 . S
C2040 C2041 1.370 . S
C2040 C2042 1.363 . S
C2040 H2056 0.931 . S
C2041 C2040 1.370 . S
C2041 C2045 1.408 . S
C2042 C2040 1.363 . S
C2042 C2043 1.370 . S
C2042 C2046 1.524 . S
C2043 C2035 1.503 . S
C2043 C2042 1.370 . S
C2043 C2044 1.403 . S
C2044 C2043 1.403 . S
C2044 C2045 1.404 . S
C2044 C2047 1.539 . S
C2045 C2041 1.408 . S
C2045 C2044 1.404 . S
C2045 H2057 0.930 . S
C2046 C2042 1.524 . S
C2046 H2058 0.956 . S
C2046 H2059 0.961 . S
C2046 H2060 0.961 . S
C2047 C2044 1.539 . S
C2047 H2061 0.958 . S
C2047 H2062 0.961 . S
C2047 H2063 0.960 . S
H2048 C2032 0.931 . S
H2049 C2037 0.929 . S
H2050 C2038 0.960 . S
H2051 C2038 0.962 . S
H2052 C2038 0.960 . S
H2053 C2039 0.961 . S
H2054 C2039 0.961 . S
H2055 C2039 0.961 . S
H2056 C2040 0.931 . S
H2057 C2045 0.930 . S
H2058 C2046 0.956 . S
H2059 C2046 0.961 . S
H2060 C2046 0.961 . S
H2061 C2047 0.958 . S
H2062 C2047 0.961 . S
H2063 C2047 0.960 . S
C2064 C2065 1.391 . S
C2064 C2066 1.394 . S
C2064 H2080 0.931 . S
C2065 C2064 1.391 . S
C2065 C2069 1.376 1_545 S
C2066 C2064 1.394 . S
C2066 C2067 1.369 . S
C2066 C2070 1.531 . S
C2067 C2066 1.369 . S
C2067 C2068 1.411 1_545 S
C2067 C2075 1.503 . S
C2068 C2067 1.411 1_565 S
C2068 C2069 1.392 . S
C2068 C2071 1.510 . S
C2069 C2065 1.376 1_565 S
C2069 C2068 1.392 . S
C2069 H2081 0.929 . S
C2070 C2066 1.531 . S
C2070 H2082 0.960 . S
C2070 H2083 0.962 . S
C2070 H2084 0.960 . S
C2071 C2068 1.510 . S
C2071 H2085 0.961 . S
C2071 H2086 0.961 . S
C2071 H2087 0.961 . S
C2072 C2073 1.370 . S
C2072 C2074 1.363 . S
C2072 H2088 0.931 . S
C2073 C2072 1.370 . S
C2073 C2077 1.408 . S
C2074 C2072 1.363 . S
C2074 C2075 1.370 . S
C2074 C2078 1.524 . S
C2075 C2067 1.503 . S
C2075 C2074 1.370 . S
C2075 C2076 1.403 . S
C2076 C2075 1.403 . S
C2076 C2077 1.404 . S
C2076 C2079 1.539 . S
C2077 C2073 1.408 . S
C2077 C2076 1.404 . S
C2077 H2089 0.930 . S
C2078 C2074 1.524 . S
C2078 H2090 0.956 . S
C2078 H2091 0.961 1_545 S
C2078 H2092 0.961 . S
C2079 C2076 1.539 . S
C2079 H2093 0.958 . S
C2079 H2094 0.961 . S
C2079 H2095 0.960 . S
H2080 C2064 0.931 . S
H2081 C2069 0.929 . S
H2082 C2070 0.960 . S
H2083 C2070 0.962 . S
H2084 C2070 0.960 . S
H2085 C2071 0.961 . S
H2086 C2071 0.961 . S
H2087 C2071 0.961 . S
H2088 C2072 0.931 . S
H2089 C2077 0.930 . S
H2090 C2078 0.956 . S
H2091 C2078 0.961 1_565 S
H2092 C2078 0.961 . S
H2093 C2079 0.958 . S
H2094 C2079 0.961 . S
H2095 C2079 0.960 . S
C2096 C2097 1.391 . S
C2096 C2098 1.394 . S
C2096 H2112 0.931 . S
C2097 C2096 1.391 . S
C2097 C2101 1.376 . S
C2098 C2096 1.394 . S
C2098 C2099 1.369 . S
C2098 C2102 1.531 . S
C2099 C2098 1.369 . S
C2099 C2100 1.410 . S
C2099 C2107 1.503 . S
C2100 C2099 1.410 . S
C2100 C2101 1.392 . S
C2100 C2103 1.511 . S
C2101 C2097 1.376 . S
C2101 C2100 1.392 . S
C2101 H2113 0.929 . S
C2102 C2098 1.531 . S
C2102 H2114 0.960 . S
C2102 H2115 0.962 . S
C2102 H2116 0.960 . S
C2103 C2100 1.511 . S
C2103 H2117 0.961 . S
C2103 H2118 0.961 . S
C2103 H2119 0.961 . S
C2104 C2105 1.370 . S
C2104 C2106 1.363 . S
C2104 H2120 0.931 . S
C2105 C2104 1.370 . S
C2105 C2109 1.408 . S
C2106 C2104 1.363 . S
C2106 C2107 1.370 . S
C2106 C2110 1.524 . S
C2107 C2099 1.503 . S
C2107 C2106 1.370 . S
C2107 C2108 1.403 . S
C2108 C2107 1.403 . S
C2108 C2109 1.404 . S
C2108 C2111 1.539 . S
C2109 C2105 1.408 . S
C2109 C2108 1.404 . S
C2109 H2121 0.930 . S
C2110 C2106 1.524 . S
C2110 H2122 0.956 . S
C2110 H2123 0.961 . S
C2110 H2124 0.961 . S
C2111 C2108 1.539 . S
C2111 H2125 0.958 . S
C2111 H2126 0.961 . S
C2111 H2127 0.960 . S
H2112 C2096 0.931 . S
H2113 C2101 0.929 . S
H2114 C2102 0.960 . S
H2115 C2102 0.962 . S
H2116 C2102 0.960 . S
H2117 C2103 0.961 . S
H2118 C2103 0.961 . S
H2119 C2103 0.961 . S
H2120 C2104 0.931 . S
H2121 C2109 0.930 . S
H2122 C2110 0.956 . S
H2123 C2110 0.961 . S
H2124 C2110 0.961 . S
H2125 C2111 0.958 . S
H2126 C2111 0.961 . S
H2127 C2111 0.960 . S
C2128 C2129 1.391 1_565 S
C2128 C2130 1.394 . S
C2128 H2144 0.931 . S
C2129 C2128 1.391 1_545 S
C2129 C2133 1.376 . S
C2130 C2128 1.394 . S
C2130 C2131 1.369 1_565 S
C2130 C2134 1.531 . S
C2131 C2130 1.369 1_545 S
C2131 C2132 1.410 . S
C2131 C2139 1.503 . S
C2132 C2131 1.410 . S
C2132 C2133 1.392 . S
C2132 C2135 1.511 . S
C2133 C2129 1.376 . S
C2133 C2132 1.392 . S
C2133 H2145 0.929 . S
C2134 C2130 1.531 . S
C2134 H2146 0.960 . S
C2134 H2147 0.962 . S
C2134 H2148 0.960 . S
C2135 C2132 1.511 . S
C2135 H2149 0.961 . S
C2135 H2150 0.961 . S
C2135 H2151 0.961 . S
C2136 C2137 1.370 . S
C2136 C2138 1.363 . S
C2136 H2152 0.931 . S
C2137 C2136 1.370 . S
C2137 C2141 1.408 . S
C2138 C2136 1.363 . S
C2138 C2139 1.370 . S
C2138 C2142 1.524 . S
C2139 C2131 1.503 . S
C2139 C2138 1.370 . S
C2139 C2140 1.403 . S
C2140 C2139 1.403 . S
C2140 C2141 1.404 . S
C2140 C2143 1.539 1_545 S
C2141 C2137 1.408 . S
C2141 C2140 1.404 . S
C2141 H2153 0.930 . S
C2142 C2138 1.524 . S
C2142 H2154 0.956 . S
C2142 H2155 0.961 . S
C2142 H2156 0.961 . S
C2143 C2140 1.539 1_565 S
C2143 H2157 0.958 . S
C2143 H2158 0.963 1_565 S
C2143 H2159 0.959 1_565 S
H2144 C2128 0.931 . S
H2145 C2133 0.929 . S
H2146 C2134 0.960 . S
H2147 C2134 0.962 . S
H2148 C2134 0.960 . S
H2149 C2135 0.961 . S
H2150 C2135 0.961 . S
H2151 C2135 0.961 . S
H2152 C2136 0.931 . S
H2153 C2141 0.930 . S
H2154 C2142 0.956 . S
H2155 C2142 0.961 . S
H2156 C2142 0.961 . S
H2157 C2143 0.958 . S
H2158 C2143 0.963 1_545 S
H2159 C2143 0.959 1_545 S
C2160 C2161 1.391 . S
C2160 C2162 1.394 . S
C2160 H2176 0.931 . S
C2161 C2160 1.391 . S
C2161 C2165 1.376 . S
C2162 C2160 1.394 . S
C2162 C2163 1.369 . S
C2162 C2166 1.531 . S
C2163 C2162 1.369 . S
C2163 C2164 1.410 . S
C2163 C2171 1.503 . S
C2164 C2163 1.410 . S
C2164 C2165 1.392 . S
C2164 C2167 1.511 . S
C2165 C2161 1.376 . S
C2165 C2164 1.392 . S
C2165 H2177 0.929 . S
C2166 C2162 1.531 . S
C2166 H2178 0.960 . S
C2166 H2179 0.962 . S
C2166 H2180 0.960 . S
C2167 C2164 1.511 . S
C2167 H2181 0.961 . S
C2167 H2182 0.961 . S
C2167 H2183 0.961 . S
C2168 C2169 1.370 . S
C2168 C2170 1.363 . S
C2168 H2184 0.931 . S
C2169 C2168 1.370 . S
C2169 C2173 1.408 . S
C2170 C2168 1.363 . S
C2170 C2171 1.370 . S
C2170 C2174 1.524 . S
C2171 C2163 1.503 . S
C2171 C2170 1.370 . S
C2171 C2172 1.403 . S
C2172 C2171 1.403 . S
C2172 C2173 1.404 . S
C2172 C2175 1.539 . S
C2173 C2169 1.408 . S
C2173 C2172 1.404 . S
C2173 H2185 0.930 . S
C2174 C2170 1.524 . S
C2174 H2186 0.956 . S
C2174 H2187 0.961 . S
C2174 H2188 0.961 . S
C2175 C2172 1.539 . S
C2175 H2189 0.958 . S
C2175 H2190 0.961 . S
C2175 H2191 0.960 . S
H2176 C2160 0.931 . S
H2177 C2165 0.929 . S
H2178 C2166 0.960 . S
H2179 C2166 0.962 . S
H2180 C2166 0.960 . S
H2181 C2167 0.961 . S
H2182 C2167 0.961 . S
H2183 C2167 0.961 . S
H2184 C2168 0.931 . S
H2185 C2173 0.930 . S
H2186 C2174 0.956 . S
H2187 C2174 0.961 . S
H2188 C2174 0.961 . S
H2189 C2175 0.958 . S
H2190 C2175 0.961 . S
H2191 C2175 0.960 . S
C2192 C2193 1.401 . S
C2192 C2194 1.394 . S
C2192 H2208 0.931 . S
C2193 C2192 1.401 . S
C2193 C2197 1.366 1_545 S
C2194 C2192 1.394 . S
C2194 C2195 1.343 1_545 S
C2194 C2198 1.531 . S
C2195 C2194 1.343 1_565 S
C2195 C2196 1.438 . S
C2195 C2203 1.505 . S
C2196 C2195 1.438 . S
C2196 C2197 1.392 . S
C2196 C2199 1.511 . S
C2197 C2193 1.366 1_565 S
C2197 C2196 1.392 . S
C2197 H2209 0.929 . S
C2198 C2194 1.531 . S
C2198 H2210 0.960 . S
C2198 H2211 0.962 . S
C2198 H2212 0.960 . S
C2199 C2196 1.511 . S
C2199 H2213 0.961 . S
C2199 H2214 0.961 . S
C2199 H2215 0.961 . S
C2200 C2201 1.370 1_545 S
C2200 C2202 1.363 . S
C2200 H2216 0.931 . S
C2201 C2200 1.370 1_565 S
C2201 C2205 1.408 . S
C2202 C2200 1.363 . S
C2202 C2203 1.349 1_545 S
C2202 C2206 1.524 . S
C2203 C2195 1.505 . S
C2203 C2202 1.349 1_565 S
C2203 C2204 1.420 . S
C2204 C2203 1.420 . S
C2204 C2205 1.404 . S
C2204 C2207 1.539 . S
C2205 C2201 1.408 . S
C2205 C2204 1.404 . S
C2205 H2217 0.930 . S
C2206 C2202 1.524 . S
C2206 H2218 0.956 . S
C2206 H2219 0.961 1_545 S
C2206 H2220 0.961 . S
C2207 C2204 1.539 . S
C2207 H2221 0.958 1_565 S
C2207 H2222 0.961 . S
C2207 H2223 0.960 . S
H2208 C2192 0.931 . S
H2209 C2197 0.929 . S
H2210 C2198 0.960 . S
H2211 C2198 0.962 . S
H2212 C2198 0.960 . S
H2213 C2199 0.961 . S
H2214 C2199 0.961 . S
H2215 C2199 0.961 . S
H2216 C2200 0.931 . S
H2217 C2205 0.930 . S
H2218 C2206 0.956 . S
H2219 C2206 0.961 1_565 S
H2220 C2206 0.961 . S
H2221 C2207 0.958 1_545 S
H2222 C2207 0.961 . S
H2223 C2207 0.960 . S
C2224 C2225 1.391 . S
C2224 C2226 1.394 . S
C2224 H2240 0.931 . S
C2225 C2224 1.391 . S
C2225 C2229 1.376 . S
C2226 C2224 1.394 . S
C2226 C2227 1.369 . S
C2226 C2230 1.531 . S
C2227 C2226 1.369 . S
C2227 C2228 1.410 . S
C2227 C2235 1.503 . S
C2228 C2227 1.410 . S
C2228 C2229 1.392 . S
C2228 C2231 1.511 . S
C2229 C2225 1.376 . S
C2229 C2228 1.392 . S
C2229 H2241 0.929 . S
C2230 C2226 1.531 . S
C2230 H2242 0.960 . S
C2230 H2243 0.962 . S
C2230 H2244 0.960 . S
C2231 C2228 1.511 . S
C2231 H2245 0.961 . S
C2231 H2246 0.961 . S
C2231 H2247 0.961 . S
C2232 C2233 1.370 . S
C2232 C2234 1.363 . S
C2232 H2248 0.931 . S
C2233 C2232 1.370 . S
C2233 C2237 1.408 . S
C2234 C2232 1.363 . S
C2234 C2235 1.370 . S
C2234 C2238 1.524 . S
C2235 C2227 1.503 . S
C2235 C2234 1.370 . S
C2235 C2236 1.403 . S
C2236 C2235 1.403 . S
C2236 C2237 1.404 . S
C2236 C2239 1.539 . S
C2237 C2233 1.408 . S
C2237 C2236 1.404 . S
C2237 H2249 0.930 . S
C2238 C2234 1.524 . S
C2238 H2250 0.956 . S
C2238 H2251 0.961 . S
C2238 H2252 0.961 . S
C2239 C2236 1.539 . S
C2239 H2253 0.958 . S
C2239 H2254 0.961 . S
C2239 H2255 0.960 . S
H2240 C2224 0.931 . S
H2241 C2229 0.929 . S
H2242 C2230 0.960 . S
H2243 C2230 0.962 . S
H2244 C2230 0.960 . S
H2245 C2231 0.961 . S
H2246 C2231 0.961 . S
H2247 C2231 0.961 . S
H2248 C2232 0.931 . S
H2249 C2237 0.930 . S
H2250 C2238 0.956 . S
H2251 C2238 0.961 . S
H2252 C2238 0.961 . S
H2253 C2239 0.958 . S
H2254 C2239 0.961 . S
H2255 C2239 0.960 . S
C2256 C2257 1.391 . S
C2256 C2258 1.394 . S
C2256 H2272 0.931 . S
C2257 C2256 1.391 . S
C2257 C2261 1.376 1_554 S
C2258 C2256 1.394 . S
C2258 C2259 1.369 . S
C2258 C2262 1.531 . S
C2259 C2258 1.369 . S
C2259 C2260 1.410 1_554 S
C2259 C2267 1.503 . S
C2260 C2259 1.410 1_556 S
C2260 C2261 1.392 . S
C2260 C2263 1.511 . S
C2261 C2257 1.376 1_556 S
C2261 C2260 1.392 . S
C2261 H2273 0.929 . S
C2262 C2258 1.531 . S
C2262 H2274 0.960 . S
C2262 H2275 0.962 . S
C2262 H2276 0.960 . S
C2263 C2260 1.511 . S
C2263 H2277 0.961 . S
C2263 H2278 0.961 . S
C2263 H2279 0.961 . S
C2264 C2265 1.370 . S
C2264 C2266 1.363 . S
C2264 H2280 0.931 . S
C2265 C2264 1.370 . S
C2265 C2269 1.408 1_554 S
C2266 C2264 1.363 . S
C2266 C2267 1.370 . S
C2266 C2270 1.524 . S
C2267 C2259 1.503 . S
C2267 C2266 1.370 . S
C2267 C2268 1.403 . S
C2268 C2267 1.403 . S
C2268 C2269 1.404 1_554 S
C2268 C2271 1.539 1_554 S
C2269 C2265 1.408 1_556 S
C2269 C2268 1.404 1_556 S
C2269 H2281 0.929 . S
C2270 C2266 1.524 . S
C2270 H2282 0.956 . S
C2270 H2283 0.961 . S
C2270 H2284 0.961 . S
C2271 C2268 1.539 1_556 S
C2271 H2285 0.958 1_556 S
C2271 H2286 0.961 . S
C2271 H2287 0.960 . S
H2272 C2256 0.931 . S
H2273 C2261 0.929 . S
H2274 C2262 0.960 . S
H2275 C2262 0.962 . S
H2276 C2262 0.960 . S
H2277 C2263 0.961 . S
H2278 C2263 0.961 . S
H2279 C2263 0.961 . S
H2280 C2264 0.931 . S
H2281 C2269 0.929 . S
H2282 C2270 0.956 . S
H2283 C2270 0.961 . S
H2284 C2270 0.961 . S
H2285 C2271 0.958 1_554 S
H2286 C2271 0.961 . S
H2287 C2271 0.960 . S
C2288 C2289 1.391 . S
C2288 C2290 1.394 . S
C2288 H2304 0.931 . S
C2289 C2288 1.391 . S
C2289 C2293 1.376 . S
C2290 C2288 1.394 . S
C2290 C2291 1.369 . S
C2290 C2294 1.531 . S
C2291 C2290 1.369 . S
C2291 C2292 1.410 . S
C2291 C2299 1.503 . S
C2292 C2291 1.410 . S
C2292 C2293 1.392 . S
C2292 C2295 1.511 . S
C2293 C2289 1.376 . S
C2293 C2292 1.392 . S
C2293 H2305 0.929 . S
C2294 C2290 1.531 . S
C2294 H2306 0.960 . S
C2294 H2307 0.962 . S
C2294 H2308 0.960 . S
C2295 C2292 1.511 . S
C2295 H2309 0.961 . S
C2295 H2310 0.961 . S
C2295 H2311 0.961 . S
C2296 C2297 1.370 . S
C2296 C2298 1.363 . S
C2296 H2312 0.931 1_554 S
C2297 C2296 1.370 . S
C2297 C2301 1.408 . S
C2298 C2296 1.363 . S
C2298 C2299 1.370 . S
C2298 C2302 1.524 1_554 S
C2299 C2291 1.503 . S
C2299 C2298 1.370 . S
C2299 C2300 1.403 . S
C2300 C2299 1.403 . S
C2300 C2301 1.404 . S
C2300 C2303 1.539 . S
C2301 C2297 1.408 . S
C2301 C2300 1.404 . S
C2301 H2313 0.930 . S
C2302 C2298 1.524 1_556 S
C2302 H2314 0.956 . S
C2302 H2315 0.961 . S
C2302 H2316 0.961 . S
C2303 C2300 1.539 . S
C2303 H2317 0.958 . S
C2303 H2318 0.961 . S
C2303 H2319 0.960 . S
H2304 C2288 0.931 . S
H2305 C2293 0.929 . S
H2306 C2294 0.960 . S
H2307 C2294 0.962 . S
H2308 C2294 0.960 . S
H2309 C2295 0.961 . S
H2310 C2295 0.961 . S
H2311 C2295 0.961 . S
H2312 C2296 0.931 1_556 S
H2313 C2301 0.930 . S
H2314 C2302 0.956 . S
H2315 C2302 0.961 . S
H2316 C2302 0.961 . S
H2317 C2303 0.958 . S
H2318 C2303 0.961 . S
H2319 C2303 0.960 . S
C2320 C2321 1.391 . S
C2320 C2322 1.394 . S
C2320 H2336 0.931 . S
C2321 C2320 1.391 . S
C2321 C2325 1.376 . S
C2322 C2320 1.394 . S
C2322 C2323 1.369 . S
C2322 C2326 1.531 . S
C2323 C2322 1.369 . S
C2323 C2324 1.410 . S
C2323 C2331 1.503 . S
C2324 C2323 1.410 . S
C2324 C2325 1.392 . S
C2324 C2327 1.511 . S
C2325 C2321 1.376 . S
C2325 C2324 1.392 . S
C2325 H2337 0.929 . S
C2326 C2322 1.531 . S
C2326 H2338 0.960 . S
C2326 H2339 0.962 . S
C2326 H2340 0.960 . S
C2327 C2324 1.511 . S
C2327 H2341 0.961 . S
C2327 H2342 0.961 . S
C2327 H2343 0.961 . S
C2328 C2329 1.370 . S
C2328 C2330 1.363 . S
C2328 H2344 0.931 . S
C2329 C2328 1.370 . S
C2329 C2333 1.408 . S
C2330 C2328 1.363 . S
C2330 C2331 1.370 . S
C2330 C2334 1.524 . S
C2331 C2323 1.503 . S
C2331 C2330 1.370 . S
C2331 C2332 1.403 . S
C2332 C2331 1.403 . S
C2332 C2333 1.404 . S
C2332 C2335 1.539 . S
C2333 C2329 1.408 . S
C2333 C2332 1.404 . S
C2333 H2345 0.930 . S
C2334 C2330 1.524 . S
C2334 H2346 0.956 . S
C2334 H2347 0.961 . S
C2334 H2348 0.961 . S
C2335 C2332 1.539 . S
C2335 H2349 0.958 . S
C2335 H2350 0.961 . S
C2335 H2351 0.960 . S
H2336 C2320 0.931 . S
H2337 C2325 0.929 . S
H2338 C2326 0.960 . S
H2339 C2326 0.962 . S
H2340 C2326 0.960 . S
H2341 C2327 0.961 . S
H2342 C2327 0.961 . S
H2343 C2327 0.961 . S
H2344 C2328 0.931 . S
H2345 C2333 0.930 . S
H2346 C2334 0.956 . S
H2347 C2334 0.961 . S
H2348 C2334 0.961 . S
H2349 C2335 0.958 . S
H2350 C2335 0.961 . S
H2351 C2335 0.960 . S
C2352 C2353 1.391 . S
C2352 C2354 1.394 . S
C2352 H2368 0.931 . S
C2353 C2352 1.391 . S
C2353 C2357 1.376 . S
C2354 C2352 1.394 . S
C2354 C2355 1.369 . S
C2354 C2358 1.531 . S
C2355 C2354 1.369 . S
C2355 C2356 1.410 . S
C2355 C2363 1.503 . S
C2356 C2355 1.410 . S
C2356 C2357 1.392 . S
C2356 C2359 1.511 . S
C2357 C2353 1.376 . S
C2357 C2356 1.392 . S
C2357 H2369 0.929 . S
C2358 C2354 1.531 . S
C2358 H2370 0.960 . S
C2358 H2371 0.962 . S
C2358 H2372 0.960 . S
C2359 C2356 1.511 . S
C2359 H2373 0.961 . S
C2359 H2374 0.961 . S
C2359 H2375 0.961 . S
C2360 C2361 1.370 . S
C2360 C2362 1.363 . S
C2360 H2376 0.931 . S
C2361 C2360 1.370 . S
C2361 C2365 1.408 . S
C2362 C2360 1.363 . S
C2362 C2363 1.370 . S
C2362 C2366 1.524 . S
C2363 C2355 1.503 . S
C2363 C2362 1.370 . S
C2363 C2364 1.403 . S
C2364 C2363 1.403 . S
C2364 C2365 1.404 . S
C2364 C2367 1.539 . S
C2365 C2361 1.408 . S
C2365 C2364 1.404 . S
C2365 H2377 0.930 . S
C2366 C2362 1.524 . S
C2366 H2378 0.956 . S
C2366 H2379 0.961 . S
C2366 H2380 0.961 . S
C2367 C2364 1.539 . S
C2367 H2381 0.958 . S
C2367 H2382 0.961 . S
C2367 H2383 0.960 . S
H2368 C2352 0.931 . S
H2369 C2357 0.929 . S
H2370 C2358 0.960 . S
H2371 C2358 0.962 . S
H2372 C2358 0.960 . S
H2373 C2359 0.961 . S
H2374 C2359 0.961 . S
H2375 C2359 0.961 . S
H2376 C2360 0.931 . S
H2377 C2365 0.930 . S
H2378 C2366 0.956 . S
H2379 C2366 0.961 . S
H2380 C2366 0.961 . S
H2381 C2367 0.958 . S
H2382 C2367 0.961 . S
H2383 C2367 0.960 . S
C2384 C2385 1.391 . S
C2384 C2386 1.394 1_545 S
C2384 H2400 0.931 . S
C2385 C2384 1.391 . S
C2385 C2389 1.376 1_545 S
C2386 C2384 1.394 1_565 S
C2386 C2387 1.369 . S
C2386 C2390 1.531 1_565 S
C2387 C2386 1.369 . S
C2387 C2388 1.410 . S
C2387 C2395 1.503 . S
C2388 C2387 1.410 . S
C2388 C2389 1.392 . S
C2388 C2391 1.511 . S
C2389 C2385 1.376 1_565 S
C2389 C2388 1.392 . S
C2389 H2401 0.929 . S
C2390 C2386 1.531 1_545 S
C2390 H2402 0.960 1_545 S
C2390 H2403 0.962 . S
C2390 H2404 0.960 . S
C2391 C2388 1.511 . S
C2391 H2405 0.961 . S
C2391 H2406 0.961 . S
C2391 H2407 0.961 . S
C2392 C2393 1.370 . S
C2392 C2394 1.363 . S
C2392 H2408 0.931 . S
C2393 C2392 1.370 . S
C2393 C2397 1.408 . S
C2394 C2392 1.363 . S
C2394 C2395 1.370 . S
C2394 C2398 1.524 . S
C2395 C2387 1.503 . S
C2395 C2394 1.370 . S
C2395 C2396 1.403 . S
C2396 C2395 1.403 . S
C2396 C2397 1.404 . S
C2396 C2399 1.539 . S
C2397 C2393 1.408 . S
C2397 C2396 1.404 . S
C2397 H2409 0.930 . S
C2398 C2394 1.524 . S
C2398 H2410 0.956 . S
C2398 H2411 0.961 . S
C2398 H2412 0.961 . S
C2399 C2396 1.539 . S
C2399 H2413 0.958 . S
C2399 H2414 0.961 . S
C2399 H2415 0.960 . S
H2400 C2384 0.931 . S
H2401 C2389 0.929 . S
H2402 C2390 0.960 1_565 S
H2403 C2390 0.962 . S
H2404 C2390 0.960 . S
H2405 C2391 0.961 . S
H2406 C2391 0.961 . S
H2407 C2391 0.961 . S
H2408 C2392 0.931 . S
H2409 C2397 0.930 . S
H2410 C2398 0.956 . S
H2411 C2398 0.961 . S
H2412 C2398 0.961 . S
H2413 C2399 0.958 . S
H2414 C2399 0.961 . S
H2415 C2399 0.960 . S
C2416 C2417 1.391 . S
C2416 C2418 1.394 . S
C2416 H2432 0.931 . S
C2417 C2416 1.391 . S
C2417 C2421 1.376 . S
C2418 C2416 1.394 . S
C2418 C2419 1.369 . S
C2418 C2422 1.531 . S
C2419 C2418 1.369 . S
C2419 C2420 1.410 . S
C2419 C2427 1.503 . S
C2420 C2419 1.410 . S
C2420 C2421 1.392 . S
C2420 C2423 1.511 . S
C2421 C2417 1.376 . S
C2421 C2420 1.392 . S
C2421 H2433 0.929 . S
C2422 C2418 1.531 . S
C2422 H2434 0.960 . S
C2422 H2435 0.962 . S
C2422 H2436 0.960 . S
C2423 C2420 1.511 . S
C2423 H2437 0.961 . S
C2423 H2438 0.961 . S
C2423 H2439 0.961 . S
C2424 C2425 1.370 . S
C2424 C2426 1.363 . S
C2424 H2440 0.931 . S
C2425 C2424 1.370 . S
C2425 C2429 1.408 . S
C2426 C2424 1.363 . S
C2426 C2427 1.370 . S
C2426 C2430 1.524 . S
C2427 C2419 1.503 . S
C2427 C2426 1.370 . S
C2427 C2428 1.403 . S
C2428 C2427 1.403 . S
C2428 C2429 1.404 . S
C2428 C2431 1.539 . S
C2429 C2425 1.408 . S
C2429 C2428 1.404 . S
C2429 H2441 0.930 . S
C2430 C2426 1.524 . S
C2430 H2442 0.956 . S
C2430 H2443 0.961 . S
C2430 H2444 0.961 . S
C2431 C2428 1.539 . S
C2431 H2445 0.958 . S
C2431 H2446 0.961 . S
C2431 H2447 0.960 . S
H2432 C2416 0.931 . S
H2433 C2421 0.929 . S
H2434 C2422 0.960 . S
H2435 C2422 0.962 . S
H2436 C2422 0.960 . S
H2437 C2423 0.961 . S
H2438 C2423 0.961 . S
H2439 C2423 0.961 . S
H2440 C2424 0.931 . S
H2441 C2429 0.930 . S
H2442 C2430 0.956 . S
H2443 C2430 0.961 . S
H2444 C2430 0.961 . S
H2445 C2431 0.958 . S
H2446 C2431 0.961 . S
H2447 C2431 0.960 . S
C2448 C2449 1.391 . S
C2448 C2450 1.394 . S
C2448 H2464 0.931 . S
C2449 C2448 1.391 . S
C2449 C2453 1.376 . S
C2450 C2448 1.394 . S
C2450 C2451 1.369 . S
C2450 C2454 1.531 . S
C2451 C2450 1.369 . S
C2451 C2452 1.410 . S
C2451 C2459 1.503 . S
C2452 C2451 1.410 . S
C2452 C2453 1.392 . S
C2452 C2455 1.511 . S
C2453 C2449 1.376 . S
C2453 C2452 1.392 . S
C2453 H2465 0.929 . S
C2454 C2450 1.531 . S
C2454 H2466 0.960 . S
C2454 H2467 0.962 . S
C2454 H2468 0.960 . S
C2455 C2452 1.511 . S
C2455 H2469 0.961 . S
C2455 H2470 0.961 . S
C2455 H2471 0.961 . S
C2456 C2457 1.370 . S
C2456 C2458 1.363 . S
C2456 H2472 0.931 . S
C2457 C2456 1.370 . S
C2457 C2461 1.408 . S
C2458 C2456 1.363 . S
C2458 C2459 1.370 . S
C2458 C2462 1.524 . S
C2459 C2451 1.503 . S
C2459 C2458 1.370 . S
C2459 C2460 1.403 . S
C2460 C2459 1.403 . S
C2460 C2461 1.404 . S
C2460 C2463 1.539 . S
C2461 C2457 1.408 . S
C2461 C2460 1.404 . S
C2461 H2473 0.930 . S
C2462 C2458 1.524 . S
C2462 H2474 0.956 . S
C2462 H2475 0.961 . S
C2462 H2476 0.961 . S
C2463 C2460 1.539 . S
C2463 H2477 0.958 . S
C2463 H2478 0.961 . S
C2463 H2479 0.960 . S
H2464 C2448 0.931 . S
H2465 C2453 0.929 . S
H2466 C2454 0.960 . S
H2467 C2454 0.962 . S
H2468 C2454 0.960 . S
H2469 C2455 0.961 . S
H2470 C2455 0.961 . S
H2471 C2455 0.961 . S
H2472 C2456 0.931 . S
H2473 C2461 0.930 . S
H2474 C2462 0.956 . S
H2475 C2462 0.961 . S
H2476 C2462 0.961 . S
H2477 C2463 0.958 . S
H2478 C2463 0.961 . S
H2479 C2463 0.960 . S
C2480 C2481 1.391 . S
C2480 C2482 1.394 . S
C2480 H2496 0.931 . S
C2481 C2480 1.391 . S
C2481 C2485 1.376 . S
C2482 C2480 1.394 . S
C2482 C2483 1.369 . S
C2482 C2486 1.531 . S
C2483 C2482 1.369 . S
C2483 C2484 1.410 . S
C2483 C2491 1.503 . S
C2484 C2483 1.410 . S
C2484 C2485 1.392 . S
C2484 C2487 1.511 . S
C2485 C2481 1.376 . S
C2485 C2484 1.392 . S
C2485 H2497 0.929 . S
C2486 C2482 1.531 . S
C2486 H2498 0.960 . S
C2486 H2499 0.962 . S
C2486 H2500 0.960 . S
C2487 C2484 1.511 . S
C2487 H2501 0.961 . S
C2487 H2502 0.961 . S
C2487 H2503 0.961 . S
C2488 C2489 1.370 . S
C2488 C2490 1.363 . S
C2488 H2504 0.931 . S
C2489 C2488 1.370 . S
C2489 C2493 1.408 . S
C2490 C2488 1.363 . S
C2490 C2491 1.370 . S
C2490 C2494 1.524 . S
C2491 C2483 1.503 . S
C2491 C2490 1.370 . S
C2491 C2492 1.403 . S
C2492 C2491 1.403 . S
C2492 C2493 1.404 . S
C2492 C2495 1.539 . S
C2493 C2489 1.408 . S
C2493 C2492 1.404 . S
C2493 H2505 0.930 . S
C2494 C2490 1.524 . S
C2494 H2506 0.956 . S
C2494 H2507 0.961 . S
C2494 H2508 0.961 . S
C2495 C2492 1.539 . S
C2495 H2509 0.958 . S
C2495 H2510 0.961 . S
C2495 H2511 0.960 . S
H2496 C2480 0.931 . S
H2497 C2485 0.929 . S
H2498 C2486 0.960 . S
H2499 C2486 0.962 . S
H2500 C2486 0.960 . S
H2501 C2487 0.961 . S
H2502 C2487 0.961 . S
H2503 C2487 0.961 . S
H2504 C2488 0.931 . S
H2505 C2493 0.930 . S
H2506 C2494 0.956 . S
H2507 C2494 0.961 . S
H2508 C2494 0.961 . S
H2509 C2495 0.958 . S
H2510 C2495 0.961 . S
H2511 C2495 0.960 . S
C2512 C2513 1.391 . S
C2512 C2514 1.394 . S
C2512 H2528 0.931 . S
C2513 C2512 1.391 . S
C2513 C2517 1.376 . S
C2514 C2512 1.394 . S
C2514 C2515 1.369 . S
C2514 C2518 1.531 . S
C2515 C2514 1.369 . S
C2515 C2516 1.410 . S
C2515 C2523 1.503 . S
C2516 C2515 1.410 . S
C2516 C2517 1.392 . S
C2516 C2519 1.511 . S
C2517 C2513 1.376 . S
C2517 C2516 1.392 . S
C2517 H2529 0.929 . S
C2518 C2514 1.531 . S
C2518 H2530 0.960 . S
C2518 H2531 0.962 . S
C2518 H2532 0.960 . S
C2519 C2516 1.511 . S
C2519 H2533 0.961 . S
C2519 H2534 0.961 . S
C2519 H2535 0.961 . S
C2520 C2521 1.370 . S
C2520 C2522 1.363 . S
C2520 H2536 0.931 . S
C2521 C2520 1.370 . S
C2521 C2525 1.408 . S
C2522 C2520 1.363 . S
C2522 C2523 1.370 . S
C2522 C2526 1.524 . S
C2523 C2515 1.503 . S
C2523 C2522 1.370 . S
C2523 C2524 1.403 . S
C2524 C2523 1.403 . S
C2524 C2525 1.404 . S
C2524 C2527 1.539 . S
C2525 C2521 1.408 . S
C2525 C2524 1.404 . S
C2525 H2537 0.930 . S
C2526 C2522 1.524 . S
C2526 H2538 0.956 . S
C2526 H2539 0.961 . S
C2526 H2540 0.961 . S
C2527 C2524 1.539 . S
C2527 H2541 0.958 . S
C2527 H2542 0.961 . S
C2527 H2543 0.960 . S
H2528 C2512 0.931 . S
H2529 C2517 0.929 . S
H2530 C2518 0.960 . S
H2531 C2518 0.962 . S
H2532 C2518 0.960 . S
H2533 C2519 0.961 . S
H2534 C2519 0.961 . S
H2535 C2519 0.961 . S
H2536 C2520 0.931 . S
H2537 C2525 0.930 . S
H2538 C2526 0.956 . S
H2539 C2526 0.961 . S
H2540 C2526 0.961 . S
H2541 C2527 0.958 . S
H2542 C2527 0.961 . S
H2543 C2527 0.960 . S
C2544 C2545 1.391 . S
C2544 C2546 1.394 . S
C2544 H2560 0.931 . S
C2545 C2544 1.391 . S
C2545 C2549 1.376 . S
C2546 C2544 1.394 . S
C2546 C2547 1.369 . S
C2546 C2550 1.531 . S
C2547 C2546 1.369 . S
C2547 C2548 1.410 . S
C2547 C2555 1.503 . S
C2548 C2547 1.410 . S
C2548 C2549 1.392 . S
C2548 C2551 1.511 . S
C2549 C2545 1.376 . S
C2549 C2548 1.392 . S
C2549 H2561 0.929 . S
C2550 C2546 1.531 . S
C2550 H2562 0.960 . S
C2550 H2563 0.962 . S
C2550 H2564 0.960 . S
C2551 C2548 1.511 . S
C2551 H2565 0.961 . S
C2551 H2566 0.961 . S
C2551 H2567 0.961 . S
C2552 C2553 1.370 . S
C2552 C2554 1.363 . S
C2552 H2568 0.931 . S
C2553 C2552 1.370 . S
C2553 C2557 1.408 . S
C2554 C2552 1.363 . S
C2554 C2555 1.370 . S
C2554 C2558 1.524 . S
C2555 C2547 1.503 . S
C2555 C2554 1.370 . S
C2555 C2556 1.403 . S
C2556 C2555 1.403 . S
C2556 C2557 1.404 . S
C2556 C2559 1.539 . S
C2557 C2553 1.408 . S
C2557 C2556 1.404 . S
C2557 H2569 0.930 . S
C2558 C2554 1.524 . S
C2558 H2570 0.956 . S
C2558 H2571 0.961 . S
C2558 H2572 0.961 . S
C2559 C2556 1.539 . S
C2559 H2573 0.958 . S
C2559 H2574 0.961 . S
C2559 H2575 0.960 . S
H2560 C2544 0.931 . S
H2561 C2549 0.929 . S
H2562 C2550 0.960 . S
H2563 C2550 0.962 . S
H2564 C2550 0.960 . S
H2565 C2551 0.961 . S
H2566 C2551 0.961 . S
H2567 C2551 0.961 . S
H2568 C2552 0.931 . S
H2569 C2557 0.930 . S
H2570 C2558 0.956 . S
H2571 C2558 0.961 . S
H2572 C2558 0.961 . S
H2573 C2559 0.958 . S
H2574 C2559 0.961 . S
H2575 C2559 0.960 . S
C2576 C2577 1.391 . S
C2576 C2578 1.394 . S
C2576 H2592 0.931 . S
C2577 C2576 1.391 . S
C2577 C2581 1.376 . S
C2578 C2576 1.394 . S
C2578 C2579 1.369 . S
C2578 C2582 1.531 . S
C2579 C2578 1.369 . S
C2579 C2580 1.410 . S
C2579 C2587 1.503 . S
C2580 C2579 1.410 . S
C2580 C2581 1.392 . S
C2580 C2583 1.511 . S
C2581 C2577 1.376 . S
C2581 C2580 1.392 . S
C2581 H2593 0.929 . S
C2582 C2578 1.531 . S
C2582 H2594 0.960 1_556 S
C2582 H2595 0.962 . S
C2582 H2596 0.981 . S
C2583 C2580 1.511 . S
C2583 H2597 0.961 . S
C2583 H2598 0.961 . S
C2583 H2599 0.961 . S
C2584 C2585 1.370 1_556 S
C2584 C2586 1.363 . S
C2584 H2600 0.931 . S
C2585 C2584 1.370 1_554 S
C2585 C2589 1.408 . S
C2586 C2584 1.363 . S
C2586 C2587 1.370 . S
C2586 C2590 1.524 1_455 S
C2587 C2579 1.503 . S
C2587 C2586 1.370 . S
C2587 C2588 1.403 . S
C2588 C2587 1.403 . S
C2588 C2589 1.404 1_556 S
C2588 C2591 1.539 . S
C2589 C2585 1.408 . S
C2589 C2588 1.404 1_554 S
C2589 H2601 0.930 . S
C2590 C2586 1.524 1_655 S
C2590 H2602 0.956 . S
C2590 H2603 0.961 . S
C2590 H2604 0.961 . S
C2591 C2588 1.539 . S
C2591 H2605 0.968 . S
C2591 H2606 0.961 . S
C2591 H2607 0.960 . S
H2592 C2576 0.931 . S
H2593 C2581 0.929 . S
H2594 C2582 0.960 1_554 S
H2595 C2582 0.962 . S
H2596 C2582 0.981 . S
H2597 C2583 0.961 . S
H2598 C2583 0.961 . S
H2599 C2583 0.961 . S
H2600 C2584 0.931 . S
H2601 C2589 0.930 . S
H2602 C2590 0.956 . S
H2603 C2590 0.961 . S
H2604 C2590 0.961 . S
H2605 C2591 0.968 . S
H2606 C2591 0.961 . S
H2607 C2591 0.960 . S
C2608 C2609 1.391 . S
C2608 C2610 1.394 1_455 S
C2608 H2624 0.931 . S
C2609 C2608 1.391 . S
C2609 C2613 1.376 . S
C2610 C2608 1.394 1_655 S
C2610 C2611 1.369 . S
C2610 C2614 1.531 . S
C2611 C2610 1.369 . S
C2611 C2612 1.410 1_655 S
C2611 C2619 1.503 . S
C2612 C2611 1.410 1_455 S
C2612 C2613 1.392 . S
C2612 C2615 1.511 . S
C2613 C2609 1.376 . S
C2613 C2612 1.392 . S
C2613 H2625 0.929 . S
C2614 C2610 1.531 . S
C2614 H2626 0.960 . S
C2614 H2627 0.962 . S
C2614 H2628 0.960 . S
C2615 C2612 1.511 . S
C2615 H2629 0.961 . S
C2615 H2630 0.961 1_455 S
C2615 H2631 0.961 . S
C2616 C2617 1.370 . S
C2616 C2618 1.363 . S
C2616 H2632 0.931 . S
C2617 C2616 1.370 . S
C2617 C2621 1.408 . S
C2618 C2616 1.363 . S
C2618 C2619 1.370 . S
C2618 C2622 1.524 . S
C2619 C2611 1.503 . S
C2619 C2618 1.370 . S
C2619 C2620 1.403 . S
C2620 C2619 1.403 . S
C2620 C2621 1.404 . S
C2620 C2623 1.539 . S
C2621 C2617 1.408 . S
C2621 C2620 1.404 . S
C2621 H2633 0.930 . S
C2622 C2618 1.524 . S
C2622 H2634 0.956 . S
C2622 H2635 0.961 . S
C2622 H2636 0.961 . S
C2623 C2620 1.539 . S
C2623 H2637 0.958 . S
C2623 H2638 0.961 . S
C2623 H2639 0.960 . S
H2624 C2608 0.931 . S
H2625 C2613 0.929 . S
H2626 C2614 0.960 . S
H2627 C2614 0.962 . S
H2628 C2614 0.960 . S
H2629 C2615 0.961 . S
H2630 C2615 0.961 1_655 S
H2631 C2615 0.961 . S
H2632 C2616 0.931 . S
H2633 C2621 0.930 . S
H2634 C2622 0.956 . S
H2635 C2622 0.961 . S
H2636 C2622 0.961 . S
H2637 C2623 0.958 . S
H2638 C2623 0.961 . S
H2639 C2623 0.960 . S
C2640 C2641 1.391 . S
C2640 C2642 1.394 . S
C2640 H2656 0.931 . S
C2641 C2640 1.391 . S
C2641 C2645 1.376 . S
C2642 C2640 1.394 . S
C2642 C2643 1.369 . S
C2642 C2646 1.531 . S
C2643 C2642 1.369 . S
C2643 C2644 1.410 . S
C2643 C2651 1.503 . S
C2644 C2643 1.410 . S
C2644 C2645 1.392 . S
C2644 C2647 1.511 . S
C2645 C2641 1.376 . S
C2645 C2644 1.392 . S
C2645 H2657 0.929 . S
C2646 C2642 1.531 . S
C2646 H2658 0.960 . S
C2646 H2659 0.962 . S
C2646 H2660 0.960 . S
C2647 C2644 1.511 . S
C2647 H2661 0.961 . S
C2647 H2662 0.961 . S
C2647 H2663 0.961 . S
C2648 C2649 1.370 . S
C2648 C2650 1.363 . S
C2648 H2664 0.931 . S
C2649 C2648 1.370 . S
C2649 C2653 1.408 . S
C2650 C2648 1.363 . S
C2650 C2651 1.370 . S
C2650 C2654 1.524 . S
C2651 C2643 1.503 . S
C2651 C2650 1.370 . S
C2651 C2652 1.403 . S
C2652 C2651 1.403 . S
C2652 C2653 1.404 . S
C2652 C2655 1.539 . S
C2653 C2649 1.408 . S
C2653 C2652 1.404 . S
C2653 H2665 0.930 . S
C2654 C2650 1.524 . S
C2654 H2666 0.956 . S
C2654 H2667 0.961 . S
C2654 H2668 0.961 . S
C2655 C2652 1.539 . S
C2655 H2669 0.958 . S
C2655 H2670 0.961 . S
C2655 H2671 0.960 . S
H2656 C2640 0.931 . S
H2657 C2645 0.929 . S
H2658 C2646 0.960 . S
H2659 C2646 0.962 . S
H2660 C2646 0.960 . S
H2661 C2647 0.961 . S
H2662 C2647 0.961 . S
H2663 C2647 0.961 . S
H2664 C2648 0.931 . S
H2665 C2653 0.930 . S
H2666 C2654 0.956 . S
H2667 C2654 0.961 . S
H2668 C2654 0.961 . S
H2669 C2655 0.958 . S
H2670 C2655 0.961 . S
H2671 C2655 0.960 . S
C2672 C2673 1.391 . S
C2672 C2674 1.394 . S
C2672 H2688 0.931 . S
C2673 C2672 1.391 . S
C2673 C2677 1.376 . S
C2674 C2672 1.394 . S
C2674 C2675 1.369 . S
C2674 C2678 1.531 1_455 S
C2675 C2674 1.369 . S
C2675 C2676 1.410 . S
C2675 C2683 1.503 1_455 S
C2676 C2675 1.410 . S
C2676 C2677 1.392 . S
C2676 C2679 1.511 . S
C2677 C2673 1.376 . S
C2677 C2676 1.392 . S
C2677 H2689 0.929 . S
C2678 C2674 1.531 1_655 S
C2678 H2690 0.960 . S
C2678 H2691 0.962 . S
C2678 H2692 0.960 . S
C2679 C2676 1.511 . S
C2679 H2693 0.961 . S
C2679 H2694 0.959 . S
C2679 H2695 0.961 . S
C2680 C2681 1.370 . S
C2680 C2682 1.363 . S
C2680 H2696 0.931 . S
C2681 C2680 1.370 . S
C2681 C2685 1.408 . S
C2682 C2680 1.363 . S
C2682 C2683 1.370 . S
C2682 C2686 1.520 1_655 S
C2683 C2675 1.503 1_655 S
C2683 C2682 1.370 . S
C2683 C2684 1.403 . S
C2684 C2683 1.403 . S
C2684 C2685 1.404 . S
C2684 C2687 1.539 . S
C2685 C2681 1.408 . S
C2685 C2684 1.404 . S
C2685 H2697 0.930 . S
C2686 C2682 1.520 1_455 S
C2686 H2698 0.958 . S
C2686 H2699 0.963 . S
C2686 H2700 0.960 1_455 S
C2687 C2684 1.539 . S
C2687 H2701 0.958 . S
C2687 H2702 0.961 . S
C2687 H2703 0.960 . S
H2688 C2672 0.931 . S
H2689 C2677 0.929 . S
H2690 C2678 0.960 . S
H2691 C2678 0.962 . S
H2692 C2678 0.960 . S
H2693 C2679 0.961 . S
H2694 C2679 0.959 . S
H2695 C2679 0.961 . S
H2696 C2680 0.931 . S
H2697 C2685 0.930 . S
H2698 C2686 0.958 . S
H2699 C2686 0.963 . S
H2700 C2686 0.960 1_655 S
H2701 C2687 0.958 . S
H2702 C2687 0.961 . S
H2703 C2687 0.960 . S
C2704 C2705 1.391 . S
C2704 C2706 1.394 . S
C2704 H2720 0.931 . S
C2705 C2704 1.391 . S
C2705 C2709 1.376 1_655 S
C2706 C2704 1.394 . S
C2706 C2707 1.369 1_655 S
C2706 C2710 1.531 . S
C2707 C2706 1.369 1_455 S
C2707 C2708 1.410 . S
C2707 C2715 1.503 . S
C2708 C2707 1.410 . S
C2708 C2709 1.392 . S
C2708 C2711 1.511 . S
C2709 C2705 1.376 1_455 S
C2709 C2708 1.392 . S
C2709 H2721 0.929 . S
C2710 C2706 1.531 . S
C2710 H2722 0.960 . S
C2710 H2723 0.962 1_655 S
C2710 H2724 0.960 . S
C2711 C2708 1.511 . S
C2711 H2725 0.961 . S
C2711 H2726 0.961 . S
C2711 H2727 0.961 . S
C2712 C2713 1.370 . S
C2712 C2714 1.363 . S
C2712 H2728 0.931 . S
C2713 C2712 1.370 . S
C2713 C2717 1.408 . S
C2714 C2712 1.363 . S
C2714 C2715 1.370 . S
C2714 C2718 1.524 . S
C2715 C2707 1.503 . S
C2715 C2714 1.370 . S
C2715 C2716 1.403 . S
C2716 C2715 1.403 . S
C2716 C2717 1.404 . S
C2716 C2719 1.539 1_455 S
C2717 C2713 1.408 . S
C2717 C2716 1.404 . S
C2717 H2729 0.930 . S
C2718 C2714 1.524 . S
C2718 H2730 0.956 . S
C2718 H2731 0.961 . S
C2718 H2732 0.961 . S
C2719 C2716 1.539 1_655 S
C2719 H2733 0.958 . S
C2719 H2734 0.961 . S
C2719 H2735 0.960 . S
H2720 C2704 0.931 . S
H2721 C2709 0.929 . S
H2722 C2710 0.960 . S
H2723 C2710 0.962 1_455 S
H2724 C2710 0.960 . S
H2725 C2711 0.961 . S
H2726 C2711 0.961 . S
H2727 C2711 0.961 . S
H2728 C2712 0.931 . S
H2729 C2717 0.930 . S
H2730 C2718 0.956 . S
H2731 C2718 0.961 . S
H2732 C2718 0.961 . S
H2733 C2719 0.958 . S
H2734 C2719 0.961 . S
H2735 C2719 0.960 . S
C2736 C2737 1.391 . S
C2736 C2738 1.394 . S
C2736 H2752 0.931 . S
C2737 C2736 1.391 . S
C2737 C2741 1.376 . S
C2738 C2736 1.394 . S
C2738 C2739 1.369 . S
C2738 C2742 1.531 . S
C2739 C2738 1.369 . S
C2739 C2740 1.410 . S
C2739 C2747 1.503 . S
C2740 C2739 1.410 . S
C2740 C2741 1.392 . S
C2740 C2743 1.511 . S
C2741 C2737 1.376 . S
C2741 C2740 1.392 . S
C2741 H2753 0.929 . S
C2742 C2738 1.531 . S
C2742 H2754 0.960 . S
C2742 H2755 0.962 . S
C2742 H2756 0.960 . S
C2743 C2740 1.511 . S
C2743 H2757 0.961 . S
C2743 H2758 0.961 . S
C2743 H2759 0.961 . S
C2744 C2745 1.370 . S
C2744 C2746 1.363 . S
C2744 H2760 0.931 . S
C2745 C2744 1.370 . S
C2745 C2749 1.408 . S
C2746 C2744 1.363 . S
C2746 C2747 1.370 . S
C2746 C2750 1.524 . S
C2747 C2739 1.503 . S
C2747 C2746 1.370 . S
C2747 C2748 1.403 . S
C2748 C2747 1.403 . S
C2748 C2749 1.404 . S
C2748 C2751 1.539 . S
C2749 C2745 1.408 . S
C2749 C2748 1.404 . S
C2749 H2761 0.930 . S
C2750 C2746 1.524 . S
C2750 H2762 0.956 . S
C2750 H2763 0.961 . S
C2750 H2764 0.961 . S
C2751 C2748 1.539 . S
C2751 H2765 0.958 . S
C2751 H2766 0.961 . S
C2751 H2767 0.960 . S
H2752 C2736 0.931 . S
H2753 C2741 0.929 . S
H2754 C2742 0.960 . S
H2755 C2742 0.962 . S
H2756 C2742 0.960 . S
H2757 C2743 0.961 . S
H2758 C2743 0.961 . S
H2759 C2743 0.961 . S
H2760 C2744 0.931 . S
H2761 C2749 0.930 . S
H2762 C2750 0.956 . S
H2763 C2750 0.961 . S
H2764 C2750 0.961 . S
H2765 C2751 0.958 . S
H2766 C2751 0.961 . S
H2767 C2751 0.960 . S
C2768 C2769 1.391 . S
C2768 C2770 1.394 . S
C2768 H2784 0.931 . S
C2769 C2768 1.391 . S
C2769 C2773 1.376 . S
C2770 C2768 1.394 . S
C2770 C2771 1.369 . S
C2770 C2774 1.531 . S
C2771 C2770 1.369 . S
C2771 C2772 1.410 . S
C2771 C2779 1.503 . S
C2772 C2771 1.410 . S
C2772 C2773 1.392 . S
C2772 C2775 1.511 . S
C2773 C2769 1.376 . S
C2773 C2772 1.392 . S
C2773 H2785 0.929 . S
C2774 C2770 1.531 . S
C2774 H2786 0.960 . S
C2774 H2787 0.962 . S
C2774 H2788 0.960 . S
C2775 C2772 1.511 . S
C2775 H2789 0.961 . S
C2775 H2790 0.961 . S
C2775 H2791 0.961 . S
C2776 C2777 1.370 . S
C2776 C2778 1.363 . S
C2776 H2792 0.931 . S
C2777 C2776 1.370 . S
C2777 C2781 1.408 . S
C2778 C2776 1.363 . S
C2778 C2779 1.370 . S
C2778 C2782 1.524 . S
C2779 C2771 1.503 . S
C2779 C2778 1.370 . S
C2779 C2780 1.403 . S
C2780 C2779 1.403 . S
C2780 C2781 1.404 . S
C2780 C2783 1.539 . S
C2781 C2777 1.408 . S
C2781 C2780 1.404 . S
C2781 H2793 0.930 . S
C2782 C2778 1.524 . S
C2782 H2794 0.956 . S
C2782 H2795 0.961 . S
C2782 H2796 0.961 . S
C2783 C2780 1.539 . S
C2783 H2797 0.958 . S
C2783 H2798 0.961 . S
C2783 H2799 0.960 . S
H2784 C2768 0.931 . S
H2785 C2773 0.929 . S
H2786 C2774 0.960 . S
H2787 C2774 0.962 . S
H2788 C2774 0.960 . S
H2789 C2775 0.961 . S
H2790 C2775 0.961 . S
H2791 C2775 0.961 . S
H2792 C2776 0.931 . S
H2793 C2781 0.930 . S
H2794 C2782 0.956 . S
H2795 C2782 0.961 . S
H2796 C2782 0.961 . S
H2797 C2783 0.958 . S
H2798 C2783 0.961 . S
H2799 C2783 0.960 . S
C2800 C2801 1.391 . S
C2800 C2802 1.394 . S
C2800 H2816 0.931 . S
C2801 C2800 1.391 . S
C2801 C2805 1.376 . S
C2802 C2800 1.394 . S
C2802 C2803 1.369 . S
C2802 C2806 1.531 . S
C2803 C2802 1.369 . S
C2803 C2804 1.410 . S
C2803 C2811 1.503 . S
C2804 C2803 1.410 . S
C2804 C2805 1.392 . S
C2804 C2807 1.511 . S
C2805 C2801 1.376 . S
C2805 C2804 1.392 . S
C2805 H2817 0.929 . S
C2806 C2802 1.531 . S
C2806 H2818 0.960 . S
C2806 H2819 0.962 . S
C2806 H2820 0.960 . S
C2807 C2804 1.511 . S
C2807 H2821 0.961 . S
C2807 H2822 0.961 . S
C2807 H2823 0.961 . S
C2808 C2809 1.370 . S
C2808 C2810 1.363 . S
C2808 H2824 0.931 . S
C2809 C2808 1.370 . S
C2809 C2813 1.408 . S
C2810 C2808 1.363 . S
C2810 C2811 1.370 . S
C2810 C2814 1.524 . S
C2811 C2803 1.503 . S
C2811 C2810 1.370 . S
C2811 C2812 1.403 . S
C2812 C2811 1.403 . S
C2812 C2813 1.404 . S
C2812 C2815 1.539 . S
C2813 C2809 1.408 . S
C2813 C2812 1.404 . S
C2813 H2825 0.930 . S
C2814 C2810 1.524 . S
C2814 H2826 0.956 . S
C2814 H2827 0.961 . S
C2814 H2828 0.961 . S
C2815 C2812 1.539 . S
C2815 H2829 0.958 . S
C2815 H2830 0.961 . S
C2815 H2831 0.960 . S
H2816 C2800 0.931 . S
H2817 C2805 0.929 . S
H2818 C2806 0.960 . S
H2819 C2806 0.962 . S
H2820 C2806 0.960 . S
H2821 C2807 0.961 . S
H2822 C2807 0.961 . S
H2823 C2807 0.961 . S
H2824 C2808 0.931 . S
H2825 C2813 0.930 . S
H2826 C2814 0.956 . S
H2827 C2814 0.961 . S
H2828 C2814 0.961 . S
H2829 C2815 0.958 . S
H2830 C2815 0.961 . S
H2831 C2815 0.960 . S
C2832 C2833 1.391 . S
C2832 C2834 1.394 . S
C2832 H2848 0.931 . S
C2833 C2832 1.391 . S
C2833 C2837 1.376 . S
C2834 C2832 1.394 . S
C2834 C2835 1.369 . S
C2834 C2838 1.531 . S
C2835 C2834 1.369 . S
C2835 C2836 1.410 . S
C2835 C2843 1.503 . S
C2836 C2835 1.410 . S
C2836 C2837 1.392 . S
C2836 C2839 1.511 . S
C2837 C2833 1.376 . S
C2837 C2836 1.392 . S
C2837 H2849 0.929 . S
C2838 C2834 1.531 . S
C2838 H2850 0.960 . S
C2838 H2851 0.962 . S
C2838 H2852 0.960 . S
C2839 C2836 1.511 . S
C2839 H2853 0.961 . S
C2839 H2854 0.961 . S
C2839 H2855 0.961 . S
C2840 C2841 1.370 . S
C2840 C2842 1.363 . S
C2840 H2856 0.931 . S
C2841 C2840 1.370 . S
C2841 C2845 1.408 . S
C2842 C2840 1.363 . S
C2842 C2843 1.370 . S
C2842 C2846 1.524 . S
C2843 C2835 1.503 . S
C2843 C2842 1.370 . S
C2843 C2844 1.403 . S
C2844 C2843 1.403 . S
C2844 C2845 1.404 . S
C2844 C2847 1.539 . S
C2845 C2841 1.408 . S
C2845 C2844 1.404 . S
C2845 H2857 0.930 . S
C2846 C2842 1.524 . S
C2846 H2858 0.956 . S
C2846 H2859 0.961 . S
C2846 H2860 0.961 . S
C2847 C2844 1.539 . S
C2847 H2861 0.958 . S
C2847 H2862 0.961 . S
C2847 H2863 0.960 . S
H2848 C2832 0.931 . S
H2849 C2837 0.929 . S
H2850 C2838 0.960 . S
H2851 C2838 0.962 . S
H2852 C2838 0.960 . S
H2853 C2839 0.961 . S
H2854 C2839 0.961 . S
H2855 C2839 0.961 . S
H2856 C2840 0.931 . S
H2857 C2845 0.930 . S
H2858 C2846 0.956 . S
H2859 C2846 0.961 . S
H2860 C2846 0.961 . S
H2861 C2847 0.958 . S
H2862 C2847 0.961 . S
H2863 C2847 0.960 . S
C2864 C2865 1.391 . S
C2864 C2866 1.394 . S
C2864 H2880 0.931 . S
C2865 C2864 1.391 . S
C2865 C2869 1.376 . S
C2866 C2864 1.394 . S
C2866 C2867 1.369 . S
C2866 C2870 1.531 . S
C2867 C2866 1.369 . S
C2867 C2868 1.410 . S
C2867 C2875 1.503 . S
C2868 C2867 1.410 . S
C2868 C2869 1.392 . S
C2868 C2871 1.511 . S
C2869 C2865 1.376 . S
C2869 C2868 1.392 . S
C2869 H2881 0.929 . S
C2870 C2866 1.531 . S
C2870 H2882 0.960 . S
C2870 H2883 0.962 . S
C2870 H2884 0.960 . S
C2871 C2868 1.511 . S
C2871 H2885 0.961 . S
C2871 H2886 0.961 . S
C2871 H2887 0.961 . S
C2872 C2873 1.370 . S
C2872 C2874 1.363 . S
C2872 H2888 0.931 . S
C2873 C2872 1.370 . S
C2873 C2877 1.408 . S
C2874 C2872 1.363 . S
C2874 C2875 1.370 . S
C2874 C2878 1.524 . S
C2875 C2867 1.503 . S
C2875 C2874 1.370 . S
C2875 C2876 1.403 . S
C2876 C2875 1.403 . S
C2876 C2877 1.404 . S
C2876 C2879 1.539 . S
C2877 C2873 1.408 . S
C2877 C2876 1.404 . S
C2877 H2889 0.930 . S
C2878 C2874 1.524 . S
C2878 H2890 0.956 . S
C2878 H2891 0.961 . S
C2878 H2892 0.961 . S
C2879 C2876 1.539 . S
C2879 H2893 0.958 . S
C2879 H2894 0.961 . S
C2879 H2895 0.960 . S
H2880 C2864 0.931 . S
H2881 C2869 0.929 . S
H2882 C2870 0.960 . S
H2883 C2870 0.962 . S
H2884 C2870 0.960 . S
H2885 C2871 0.961 . S
H2886 C2871 0.961 . S
H2887 C2871 0.961 . S
H2888 C2872 0.931 . S
H2889 C2877 0.930 . S
H2890 C2878 0.956 . S
H2891 C2878 0.961 . S
H2892 C2878 0.961 . S
H2893 C2879 0.958 . S
H2894 C2879 0.961 . S
H2895 C2879 0.960 . S
C2896 C2897 1.391 . S
C2896 C2898 1.394 . S
C2896 H2912 0.931 . S
C2897 C2896 1.391 . S
C2897 C2901 1.376 . S
C2898 C2896 1.394 . S
C2898 C2899 1.369 . S
C2898 C2902 1.531 . S
C2899 C2898 1.369 . S
C2899 C2900 1.410 . S
C2899 C2907 1.503 . S
C2900 C2899 1.410 . S
C2900 C2901 1.392 . S
C2900 C2903 1.511 . S
C2901 C2897 1.376 . S
C2901 C2900 1.392 . S
C2901 H2913 0.929 . S
C2902 C2898 1.531 . S
C2902 H2914 0.960 . S
C2902 H2915 0.962 . S
C2902 H2916 0.960 . S
C2903 C2900 1.511 . S
C2903 H2917 0.961 . S
C2903 H2918 0.961 . S
C2903 H2919 0.961 . S
C2904 C2905 1.370 . S
C2904 C2906 1.363 . S
C2904 H2920 0.931 . S
C2905 C2904 1.370 . S
C2905 C2909 1.408 . S
C2906 C2904 1.363 . S
C2906 C2907 1.370 . S
C2906 C2910 1.524 . S
C2907 C2899 1.503 . S
C2907 C2906 1.370 . S
C2907 C2908 1.403 . S
C2908 C2907 1.403 . S
C2908 C2909 1.404 . S
C2908 C2911 1.539 . S
C2909 C2905 1.408 . S
C2909 C2908 1.404 . S
C2909 H2921 0.930 . S
C2910 C2906 1.524 . S
C2910 H2922 0.956 . S
C2910 H2923 0.961 . S
C2910 H2924 0.961 . S
C2911 C2908 1.539 . S
C2911 H2925 0.958 . S
C2911 H2926 0.961 . S
C2911 H2927 0.960 . S
H2912 C2896 0.931 . S
H2913 C2901 0.929 . S
H2914 C2902 0.960 . S
H2915 C2902 0.962 . S
H2916 C2902 0.960 . S
H2917 C2903 0.961 . S
H2918 C2903 0.961 . S
H2919 C2903 0.961 . S
H2920 C2904 0.931 . S
H2921 C2909 0.930 . S
H2922 C2910 0.956 . S
H2923 C2910 0.961 . S
H2924 C2910 0.961 . S
H2925 C2911 0.958 . S
H2926 C2911 0.961 . S
H2927 C2911 0.960 . S
C2928 C2929 1.391 . S
C2928 C2930 1.394 . S
C2928 H2944 0.931 . S
C2929 C2928 1.391 . S
C2929 C2933 1.376 . S
C2930 C2928 1.394 . S
C2930 C2931 1.369 . S
C2930 C2934 1.531 . S
C2931 C2930 1.369 . S
C2931 C2932 1.410 . S
C2931 C2939 1.503 . S
C2932 C2931 1.410 . S
C2932 C2933 1.392 . S
C2932 C2935 1.511 . S
C2933 C2929 1.376 . S
C2933 C2932 1.392 . S
C2933 H2945 0.929 . S
C2934 C2930 1.531 . S
C2934 H2946 0.960 . S
C2934 H2947 0.962 . S
C2934 H2948 0.960 . S
C2935 C2932 1.511 . S
C2935 H2949 0.961 . S
C2935 H2950 0.961 . S
C2935 H2951 0.961 . S
C2936 C2937 1.370 . S
C2936 C2938 1.363 . S
C2936 H2952 0.931 . S
C2937 C2936 1.370 . S
C2937 C2941 1.408 . S
C2938 C2936 1.363 . S
C2938 C2939 1.370 . S
C2938 C2942 1.524 . S
C2939 C2931 1.503 . S
C2939 C2938 1.370 . S
C2939 C2940 1.403 . S
C2940 C2939 1.403 . S
C2940 C2941 1.404 . S
C2940 C2943 1.539 . S
C2941 C2937 1.408 . S
C2941 C2940 1.404 . S
C2941 H2953 0.930 . S
C2942 C2938 1.524 . S
C2942 H2954 0.956 . S
C2942 H2955 0.961 . S
C2942 H2956 0.961 . S
C2943 C2940 1.539 . S
C2943 H2957 0.958 . S
C2943 H2958 0.961 . S
C2943 H2959 0.960 . S
H2944 C2928 0.931 . S
H2945 C2933 0.929 . S
H2946 C2934 0.960 . S
H2947 C2934 0.962 . S
H2948 C2934 0.960 . S
H2949 C2935 0.961 . S
H2950 C2935 0.961 . S
H2951 C2935 0.961 . S
H2952 C2936 0.931 . S
H2953 C2941 0.930 . S
H2954 C2942 0.956 . S
H2955 C2942 0.961 . S
H2956 C2942 0.961 . S
H2957 C2943 0.958 . S
H2958 C2943 0.961 . S
H2959 C2943 0.960 . S
C2960 C2961 1.391 . S
C2960 C2962 1.394 . S
C2960 H2976 0.931 . S
C2961 C2960 1.391 . S
C2961 C2965 1.376 . S
C2962 C2960 1.394 . S
C2962 C2963 1.369 . S
C2962 C2966 1.531 . S
C2963 C2962 1.369 . S
C2963 C2964 1.410 . S
C2963 C2971 1.503 . S
C2964 C2963 1.410 . S
C2964 C2965 1.392 . S
C2964 C2967 1.511 . S
C2965 C2961 1.376 . S
C2965 C2964 1.392 . S
C2965 H2977 0.929 . S
C2966 C2962 1.531 . S
C2966 H2978 0.960 . S
C2966 H2979 0.962 . S
C2966 H2980 0.960 . S
C2967 C2964 1.511 . S
C2967 H2981 0.961 . S
C2967 H2982 0.961 . S
C2967 H2983 0.961 . S
C2968 C2969 1.370 . S
C2968 C2970 1.363 . S
C2968 H2984 0.931 . S
C2969 C2968 1.370 . S
C2969 C2973 1.408 . S
C2970 C2968 1.363 . S
C2970 C2971 1.370 . S
C2970 C2974 1.524 . S
C2971 C2963 1.503 . S
C2971 C2970 1.370 . S
C2971 C2972 1.403 . S
C2972 C2971 1.403 . S
C2972 C2973 1.404 . S
C2972 C2975 1.539 . S
C2973 C2969 1.408 . S
C2973 C2972 1.404 . S
C2973 H2985 0.930 . S
C2974 C2970 1.524 . S
C2974 H2986 0.956 . S
C2974 H2987 0.961 . S
C2974 H2988 0.961 . S
C2975 C2972 1.539 . S
C2975 H2989 0.958 . S
C2975 H2990 0.961 . S
C2975 H2991 0.960 . S
H2976 C2960 0.931 . S
H2977 C2965 0.929 . S
H2978 C2966 0.960 . S
H2979 C2966 0.962 . S
H2980 C2966 0.960 . S
H2981 C2967 0.961 . S
H2982 C2967 0.961 . S
H2983 C2967 0.961 . S
H2984 C2968 0.931 . S
H2985 C2973 0.930 . S
H2986 C2974 0.956 . S
H2987 C2974 0.961 . S
H2988 C2974 0.961 . S
H2989 C2975 0.958 . S
H2990 C2975 0.961 . S
H2991 C2975 0.960 . S
C2992 C2993 1.391 . S
C2992 C2994 1.394 . S
C2992 H3008 0.931 . S
C2993 C2992 1.391 . S
C2993 C2997 1.376 . S
C2994 C2992 1.394 . S
C2994 C2995 1.369 . S
C2994 C2998 1.531 . S
C2995 C2994 1.369 . S
C2995 C2996 1.410 . S
C2995 C3003 1.503 . S
C2996 C2995 1.410 . S
C2996 C2997 1.392 . S
C2996 C2999 1.511 . S
C2997 C2993 1.376 . S
C2997 C2996 1.392 . S
C2997 H3009 0.929 . S
C2998 C2994 1.531 . S
C2998 H3010 0.960 . S
C2998 H3011 0.962 . S
C2998 H3012 0.960 . S
C2999 C2996 1.511 . S
C2999 H3013 0.961 . S
C2999 H3014 0.961 . S
C2999 H3015 0.961 . S
C3000 C3001 1.370 . S
C3000 C3002 1.363 . S
C3000 H3016 0.931 . S
C3001 C3000 1.370 . S
C3001 C3005 1.408 . S
C3002 C3000 1.363 . S
C3002 C3003 1.370 . S
C3002 C3006 1.524 . S
C3003 C2995 1.503 . S
C3003 C3002 1.370 . S
C3003 C3004 1.403 . S
C3004 C3003 1.403 . S
C3004 C3005 1.404 . S
C3004 C3007 1.539 . S
C3005 C3001 1.408 . S
C3005 C3004 1.404 . S
C3005 H3017 0.930 . S
C3006 C3002 1.524 . S
C3006 H3018 0.956 . S
C3006 H3019 0.961 . S
C3006 H3020 0.961 . S
C3007 C3004 1.539 . S
C3007 H3021 0.958 . S
C3007 H3022 0.961 . S
C3007 H3023 0.960 . S
H3008 C2992 0.931 . S
H3009 C2997 0.929 . S
H3010 C2998 0.960 . S
H3011 C2998 0.962 . S
H3012 C2998 0.960 . S
H3013 C2999 0.961 . S
H3014 C2999 0.961 . S
H3015 C2999 0.961 . S
H3016 C3000 0.931 . S
H3017 C3005 0.930 . S
H3018 C3006 0.956 . S
H3019 C3006 0.961 . S
H3020 C3006 0.961 . S
H3021 C3007 0.958 . S
H3022 C3007 0.961 . S
H3023 C3007 0.960 . S
C3024 C3025 1.391 . S
C3024 C3026 1.394 . S
C3024 H3040 0.931 . S
C3025 C3024 1.391 . S
C3025 C3029 1.376 . S
C3026 C3024 1.394 . S
C3026 C3027 1.369 . S
C3026 C3030 1.531 . S
C3027 C3026 1.369 . S
C3027 C3028 1.410 . S
C3027 C3035 1.503 . S
C3028 C3027 1.410 . S
C3028 C3029 1.392 . S
C3028 C3031 1.511 . S
C3029 C3025 1.376 . S
C3029 C3028 1.392 . S
C3029 H3041 0.929 . S
C3030 C3026 1.531 . S
C3030 H3042 0.960 . S
C3030 H3043 0.962 . S
C3030 H3044 0.960 . S
C3031 C3028 1.511 . S
C3031 H3045 0.961 . S
C3031 H3046 0.961 . S
C3031 H3047 0.961 . S
C3032 C3033 1.370 . S
C3032 C3034 1.363 . S
C3032 H3048 0.931 . S
C3033 C3032 1.370 . S
C3033 C3037 1.408 . S
C3034 C3032 1.363 . S
C3034 C3035 1.370 . S
C3034 C3038 1.524 . S
C3035 C3027 1.503 . S
C3035 C3034 1.370 . S
C3035 C3036 1.403 . S
C3036 C3035 1.403 . S
C3036 C3037 1.404 . S
C3036 C3039 1.539 . S
C3037 C3033 1.408 . S
C3037 C3036 1.404 . S
C3037 H3049 0.930 . S
C3038 C3034 1.524 . S
C3038 H3050 0.956 . S
C3038 H3051 0.961 . S
C3038 H3052 0.961 . S
C3039 C3036 1.539 . S
C3039 H3053 0.958 . S
C3039 H3054 0.961 . S
C3039 H3055 0.960 . S
H3040 C3024 0.931 . S
H3041 C3029 0.929 . S
H3042 C3030 0.960 . S
H3043 C3030 0.962 . S
H3044 C3030 0.960 . S
H3045 C3031 0.961 . S
H3046 C3031 0.961 . S
H3047 C3031 0.961 . S
H3048 C3032 0.931 . S
H3049 C3037 0.930 . S
H3050 C3038 0.956 . S
H3051 C3038 0.961 . S
H3052 C3038 0.961 . S
H3053 C3039 0.958 . S
H3054 C3039 0.961 . S
H3055 C3039 0.960 . S
C3056 C3057 1.391 . S
C3056 C3058 1.394 . S
C3056 H3072 0.931 . S
C3057 C3056 1.391 . S
C3057 C3061 1.376 . S
C3058 C3056 1.394 . S
C3058 C3059 1.369 . S
C3058 C3062 1.531 . S
C3059 C3058 1.369 . S
C3059 C3060 1.410 . S
C3059 C3067 1.503 . S
C3060 C3059 1.410 . S
C3060 C3061 1.392 . S
C3060 C3063 1.511 . S
C3061 C3057 1.376 . S
C3061 C3060 1.392 . S
C3061 H3073 0.929 . S
C3062 C3058 1.531 . S
C3062 H3074 0.960 . S
C3062 H3075 0.962 . S
C3062 H3076 0.960 . S
C3063 C3060 1.511 . S
C3063 H3077 0.961 . S
C3063 H3078 0.961 . S
C3063 H3079 0.961 . S
C3064 C3065 1.370 . S
C3064 C3066 1.363 . S
C3064 H3080 0.931 . S
C3065 C3064 1.370 . S
C3065 C3069 1.408 . S
C3066 C3064 1.363 . S
C3066 C3067 1.370 . S
C3066 C3070 1.524 . S
C3067 C3059 1.503 . S
C3067 C3066 1.370 . S
C3067 C3068 1.403 . S
C3068 C3067 1.403 . S
C3068 C3069 1.404 . S
C3068 C3071 1.539 . S
C3069 C3065 1.408 . S
C3069 C3068 1.404 . S
C3069 H3081 0.930 . S
C3070 C3066 1.524 . S
C3070 H3082 0.956 . S
C3070 H3083 0.961 . S
C3070 H3084 0.961 . S
C3071 C3068 1.539 . S
C3071 H3085 0.958 . S
C3071 H3086 0.961 . S
C3071 H3087 0.960 . S
H3072 C3056 0.931 . S
H3073 C3061 0.929 . S
H3074 C3062 0.960 . S
H3075 C3062 0.962 . S
H3076 C3062 0.960 . S
H3077 C3063 0.961 . S
H3078 C3063 0.961 . S
H3079 C3063 0.961 . S
H3080 C3064 0.931 . S
H3081 C3069 0.930 . S
H3082 C3070 0.956 . S
H3083 C3070 0.961 . S
H3084 C3070 0.961 . S
H3085 C3071 0.958 . S
H3086 C3071 0.961 . S
H3087 C3071 0.960 . S
C3088 C3089 1.391 . S
C3088 C3090 1.394 . S
C3088 H3104 0.931 . S
C3089 C3088 1.391 . S
C3089 C3093 1.376 . S
C3090 C3088 1.394 . S
C3090 C3091 1.369 . S
C3090 C3094 1.531 . S
C3091 C3090 1.369 . S
C3091 C3092 1.410 . S
C3091 C3099 1.503 . S
C3092 C3091 1.410 . S
C3092 C3093 1.392 . S
C3092 C3095 1.511 . S
C3093 C3089 1.376 . S
C3093 C3092 1.392 . S
C3093 H3105 0.929 . S
C3094 C3090 1.531 . S
C3094 H3106 0.960 . S
C3094 H3107 0.962 . S
C3094 H3108 0.960 . S
C3095 C3092 1.511 . S
C3095 H3109 0.961 . S
C3095 H3110 0.961 . S
C3095 H3111 0.961 . S
C3096 C3097 1.370 . S
C3096 C3098 1.363 . S
C3096 H3112 0.931 . S
C3097 C3096 1.370 . S
C3097 C3101 1.408 . S
C3098 C3096 1.363 . S
C3098 C3099 1.370 . S
C3098 C3102 1.524 . S
C3099 C3091 1.503 . S
C3099 C3098 1.370 . S
C3099 C3100 1.403 . S
C3100 C3099 1.403 . S
C3100 C3101 1.404 . S
C3100 C3103 1.539 . S
C3101 C3097 1.408 . S
C3101 C3100 1.404 . S
C3101 H3113 0.930 . S
C3102 C3098 1.524 . S
C3102 H3114 0.956 . S
C3102 H3115 0.961 . S
C3102 H3116 0.961 . S
C3103 C3100 1.539 . S
C3103 H3117 0.958 . S
C3103 H3118 0.961 . S
C3103 H3119 0.960 . S
H3104 C3088 0.931 . S
H3105 C3093 0.929 . S
H3106 C3094 0.960 . S
H3107 C3094 0.962 . S
H3108 C3094 0.960 . S
H3109 C3095 0.961 . S
H3110 C3095 0.961 . S
H3111 C3095 0.961 . S
H3112 C3096 0.931 . S
H3113 C3101 0.930 . S
H3114 C3102 0.956 . S
H3115 C3102 0.961 . S
H3116 C3102 0.961 . S
H3117 C3103 0.958 . S
H3118 C3103 0.961 . S
H3119 C3103 0.960 . S
C3120 C3121 1.391 . S
C3120 C3122 1.394 . S
C3120 H3136 0.931 . S
C3121 C3120 1.391 . S
C3121 C3125 1.376 . S
C3122 C3120 1.394 . S
C3122 C3123 1.369 . S
C3122 C3126 1.531 . S
C3123 C3122 1.369 . S
C3123 C3124 1.406 1_554 S
C3123 C3131 1.503 . S
C3124 C3123 1.406 1_556 S
C3124 C3125 1.390 1_556 S
C3124 C3127 1.517 1_565 S
C3125 C3121 1.376 . S
C3125 C3124 1.390 1_554 S
C3125 H3137 0.929 1_554 S
C3126 C3122 1.531 . S
C3126 H3138 0.960 . S
C3126 H3139 0.962 . S
C3126 H3140 0.960 . S
C3127 C3124 1.517 1_545 S
C3127 H3141 0.961 . S
C3127 H3142 0.979 . S
C3127 H3143 0.961 . S
C3128 C3129 1.370 . S
C3128 C3130 1.363 . S
C3128 H3144 0.931 . S
C3129 C3128 1.370 . S
C3129 C3133 1.408 1_544 S
C3130 C3128 1.363 . S
C3130 C3131 1.370 1_545 S
C3130 C3134 1.524 . S
C3131 C3123 1.503 . S
C3131 C3130 1.370 1_565 S
C3131 C3132 1.403 1_554 S
C3132 C3131 1.403 1_556 S
C3132 C3133 1.404 . S
C3132 C3135 1.539 . S
C3133 C3129 1.408 1_566 S
C3133 C3132 1.404 . S
C3133 H3145 0.930 . S
C3134 C3130 1.524 . S
C3134 H3146 0.956 1_545 S
C3134 H3147 0.961 . S
C3134 H3148 0.961 . S
C3135 C3132 1.539 . S
C3135 H3149 0.958 . S
C3135 H3150 0.961 . S
C3135 H3151 0.960 . S
H3136 C3120 0.931 . S
H3137 C3125 0.929 1_556 S
H3138 C3126 0.960 . S
H3139 C3126 0.962 . S
H3140 C3126 0.960 . S
H3141 C3127 0.961 . S
H3142 C3127 0.979 . S
H3143 C3127 0.961 . S
H3144 C3128 0.931 . S
H3145 C3133 0.930 . S
H3146 C3134 0.956 1_565 S
H3147 C3134 0.961 . S
H3148 C3134 0.961 . S
H3149 C3135 0.958 . S
H3150 C3135 0.961 . S
H3151 C3135 0.960 . S
C3152 C3153 1.391 . S
C3152 C3154 1.394 . S
C3152 H3168 0.931 . S
C3153 C3152 1.391 . S
C3153 C3157 1.376 . S
C3154 C3152 1.394 . S
C3154 C3155 1.369 . S
C3154 C3158 1.531 . S
C3155 C3154 1.369 . S
C3155 C3156 1.410 . S
C3155 C3163 1.503 . S
C3156 C3155 1.410 . S
C3156 C3157 1.392 . S
C3156 C3159 1.511 . S
C3157 C3153 1.376 . S
C3157 C3156 1.392 . S
C3157 H3169 0.929 . S
C3158 C3154 1.531 . S
C3158 H3170 0.960 . S
C3158 H3171 0.962 . S
C3158 H3172 0.960 . S
C3159 C3156 1.511 . S
C3159 H3173 0.961 . S
C3159 H3174 0.961 . S
C3159 H3175 0.961 . S
C3160 C3161 1.370 . S
C3160 C3162 1.363 . S
C3160 H3176 0.931 . S
C3161 C3160 1.370 . S
C3161 C3165 1.408 . S
C3162 C3160 1.363 . S
C3162 C3163 1.370 . S
C3162 C3166 1.524 . S
C3163 C3155 1.503 . S
C3163 C3162 1.370 . S
C3163 C3164 1.403 . S
C3164 C3163 1.403 . S
C3164 C3165 1.404 . S
C3164 C3167 1.539 . S
C3165 C3161 1.408 . S
C3165 C3164 1.404 . S
C3165 H3177 0.930 . S
C3166 C3162 1.524 . S
C3166 H3178 0.956 . S
C3166 H3179 0.961 . S
C3166 H3180 0.961 . S
C3167 C3164 1.539 . S
C3167 H3181 0.958 . S
C3167 H3182 0.961 . S
C3167 H3183 0.960 . S
H3168 C3152 0.931 . S
H3169 C3157 0.929 . S
H3170 C3158 0.960 . S
H3171 C3158 0.962 . S
H3172 C3158 0.960 . S
H3173 C3159 0.961 . S
H3174 C3159 0.961 . S
H3175 C3159 0.961 . S
H3176 C3160 0.931 . S
H3177 C3165 0.930 . S
H3178 C3166 0.956 . S
H3179 C3166 0.961 . S
H3180 C3166 0.961 . S
H3181 C3167 0.958 . S
H3182 C3167 0.961 . S
H3183 C3167 0.960 . S
C3184 C3185 1.391 . S
C3184 C3186 1.394 . S
C3184 H3200 0.931 . S
C3185 C3184 1.391 . S
C3185 C3189 1.376 . S
C3186 C3184 1.394 . S
C3186 C3187 1.369 . S
C3186 C3190 1.531 . S
C3187 C3186 1.369 . S
C3187 C3188 1.410 . S
C3187 C3195 1.503 . S
C3188 C3187 1.410 . S
C3188 C3189 1.392 . S
C3188 C3191 1.511 . S
C3189 C3185 1.376 . S
C3189 C3188 1.392 . S
C3189 H3201 0.929 . S
C3190 C3186 1.531 . S
C3190 H3202 0.960 . S
C3190 H3203 0.962 . S
C3190 H3204 0.960 . S
C3191 C3188 1.511 . S
C3191 H3205 0.961 . S
C3191 H3206 0.961 . S
C3191 H3207 0.961 . S
C3192 C3193 1.370 . S
C3192 C3194 1.363 . S
C3192 H3208 0.931 . S
C3193 C3192 1.370 . S
C3193 C3197 1.408 . S
C3194 C3192 1.363 . S
C3194 C3195 1.370 . S
C3194 C3198 1.524 1_554 S
C3195 C3187 1.503 . S
C3195 C3194 1.370 . S
C3195 C3196 1.403 . S
C3196 C3195 1.403 . S
C3196 C3197 1.404 . S
C3196 C3199 1.539 . S
C3197 C3193 1.408 . S
C3197 C3196 1.404 . S
C3197 H3209 0.930 . S
C3198 C3194 1.524 1_556 S
C3198 H3210 0.956 . S
C3198 H3211 0.961 . S
C3198 H3212 0.961 . S
C3199 C3196 1.539 . S
C3199 H3213 0.958 . S
C3199 H3214 0.961 . S
C3199 H3215 0.960 . S
H3200 C3184 0.931 . S
H3201 C3189 0.929 . S
H3202 C3190 0.960 . S
H3203 C3190 0.962 . S
H3204 C3190 0.960 . S
H3205 C3191 0.961 . S
H3206 C3191 0.961 . S
H3207 C3191 0.961 . S
H3208 C3192 0.931 . S
H3209 C3197 0.930 . S
H3210 C3198 0.956 . S
H3211 C3198 0.961 . S
H3212 C3198 0.961 . S
H3213 C3199 0.958 . S
H3214 C3199 0.961 . S
H3215 C3199 0.960 . S
C3216 C3217 1.391 . S
C3216 C3218 1.394 . S
C3216 H3232 0.931 . S
C3217 C3216 1.391 . S
C3217 C3221 1.376 . S
C3218 C3216 1.394 . S
C3218 C3219 1.369 . S
C3218 C3222 1.531 . S
C3219 C3218 1.369 . S
C3219 C3220 1.410 . S
C3219 C3227 1.503 . S
C3220 C3219 1.410 . S
C3220 C3221 1.392 . S
C3220 C3223 1.511 . S
C3221 C3217 1.376 . S
C3221 C3220 1.392 . S
C3221 H3233 0.929 . S
C3222 C3218 1.531 . S
C3222 H3234 0.960 . S
C3222 H3235 0.962 . S
C3222 H3236 0.960 . S
C3223 C3220 1.511 . S
C3223 H3237 0.961 . S
C3223 H3238 0.961 . S
C3223 H3239 0.961 . S
C3224 C3225 1.370 . S
C3224 C3226 1.363 . S
C3224 H3240 0.931 . S
C3225 C3224 1.370 . S
C3225 C3229 1.408 . S
C3226 C3224 1.363 . S
C3226 C3227 1.370 . S
C3226 C3230 1.524 . S
C3227 C3219 1.503 . S
C3227 C3226 1.370 . S
C3227 C3228 1.403 . S
C3228 C3227 1.403 . S
C3228 C3229 1.404 . S
C3228 C3231 1.539 . S
C3229 C3225 1.408 . S
C3229 C3228 1.404 . S
C3229 H3241 0.930 . S
C3230 C3226 1.524 . S
C3230 H3242 0.956 . S
C3230 H3243 0.961 . S
C3230 H3244 0.961 . S
C3231 C3228 1.539 . S
C3231 H3245 0.958 . S
C3231 H3246 0.961 . S
C3231 H3247 0.960 . S
H3232 C3216 0.931 . S
H3233 C3221 0.929 . S
H3234 C3222 0.960 . S
H3235 C3222 0.962 . S
H3236 C3222 0.960 . S
H3237 C3223 0.961 . S
H3238 C3223 0.961 . S
H3239 C3223 0.961 . S
H3240 C3224 0.931 . S
H3241 C3229 0.930 . S
H3242 C3230 0.956 . S
H3243 C3230 0.961 . S
H3244 C3230 0.961 . S
H3245 C3231 0.958 . S
H3246 C3231 0.961 . S
H3247 C3231 0.960 . S
C3248 C3249 1.391 . S
C3248 C3250 1.394 . S
C3248 H3264 0.931 . S
C3249 C3248 1.391 . S
C3249 C3253 1.376 . S
C3250 C3248 1.394 . S
C3250 C3251 1.369 . S
C3250 C3254 1.531 . S
C3251 C3250 1.369 . S
C3251 C3252 1.410 . S
C3251 C3259 1.503 . S
C3252 C3251 1.410 . S
C3252 C3253 1.392 . S
C3252 C3255 1.511 . S
C3253 C3249 1.376 . S
C3253 C3252 1.392 . S
C3253 H3265 0.929 . S
C3254 C3250 1.531 . S
C3254 H3266 0.960 . S
C3254 H3267 0.962 . S
C3254 H3268 0.960 . S
C3255 C3252 1.511 . S
C3255 H3269 0.961 . S
C3255 H3270 0.961 . S
C3255 H3271 0.961 . S
C3256 C3257 1.370 . S
C3256 C3258 1.363 . S
C3256 H3272 0.931 . S
C3257 C3256 1.370 . S
C3257 C3261 1.408 . S
C3258 C3256 1.363 . S
C3258 C3259 1.370 . S
C3258 C3262 1.524 . S
C3259 C3251 1.503 . S
C3259 C3258 1.370 . S
C3259 C3260 1.403 . S
C3260 C3259 1.403 . S
C3260 C3261 1.404 . S
C3260 C3263 1.539 . S
C3261 C3257 1.408 . S
C3261 C3260 1.404 . S
C3261 H3273 0.930 . S
C3262 C3258 1.524 . S
C3262 H3274 0.956 . S
C3262 H3275 0.961 . S
C3262 H3276 0.961 . S
C3263 C3260 1.539 . S
C3263 H3277 0.958 . S
C3263 H3278 0.961 . S
C3263 H3279 0.960 . S
H3264 C3248 0.931 . S
H3265 C3253 0.929 . S
H3266 C3254 0.960 . S
H3267 C3254 0.962 . S
H3268 C3254 0.960 . S
H3269 C3255 0.961 . S
H3270 C3255 0.961 . S
H3271 C3255 0.961 . S
H3272 C3256 0.931 . S
H3273 C3261 0.930 . S
H3274 C3262 0.956 . S
H3275 C3262 0.961 . S
H3276 C3262 0.961 . S
H3277 C3263 0.958 . S
H3278 C3263 0.961 . S
H3279 C3263 0.960 . S
C3280 C3281 1.391 . S
C3280 C3282 1.394 . S
C3280 H3296 0.931 . S
C3281 C3280 1.391 . S
C3281 C3285 1.376 . S
C3282 C3280 1.394 . S
C3282 C3283 1.369 . S
C3282 C3286 1.531 . S
C3283 C3282 1.369 . S
C3283 C3284 1.410 . S
C3283 C3291 1.503 . S
C3284 C3283 1.410 . S
C3284 C3285 1.392 . S
C3284 C3287 1.511 . S
C3285 C3281 1.376 . S
C3285 C3284 1.392 . S
C3285 H3297 0.929 . S
C3286 C3282 1.531 . S
C3286 H3298 0.960 . S
C3286 H3299 0.962 . S
C3286 H3300 0.960 . S
C3287 C3284 1.511 . S
C3287 H3301 0.961 . S
C3287 H3302 0.961 . S
C3287 H3303 0.961 . S
C3288 C3289 1.370 . S
C3288 C3290 1.363 . S
C3288 H3304 0.931 . S
C3289 C3288 1.370 . S
C3289 C3293 1.408 . S
C3290 C3288 1.363 . S
C3290 C3291 1.370 . S
C3290 C3294 1.524 . S
C3291 C3283 1.503 . S
C3291 C3290 1.370 . S
C3291 C3292 1.403 . S
C3292 C3291 1.403 . S
C3292 C3293 1.404 . S
C3292 C3295 1.539 . S
C3293 C3289 1.408 . S
C3293 C3292 1.404 . S
C3293 H3305 0.930 . S
C3294 C3290 1.524 . S
C3294 H3306 0.956 . S
C3294 H3307 0.961 . S
C3294 H3308 0.961 . S
C3295 C3292 1.539 . S
C3295 H3309 0.958 . S
C3295 H3310 0.961 . S
C3295 H3311 0.960 . S
H3296 C3280 0.931 . S
H3297 C3285 0.929 . S
H3298 C3286 0.960 . S
H3299 C3286 0.962 . S
H3300 C3286 0.960 . S
H3301 C3287 0.961 . S
H3302 C3287 0.961 . S
H3303 C3287 0.961 . S
H3304 C3288 0.931 . S
H3305 C3293 0.930 . S
H3306 C3294 0.956 . S
H3307 C3294 0.961 . S
H3308 C3294 0.961 . S
H3309 C3295 0.958 . S
H3310 C3295 0.961 . S
H3311 C3295 0.960 . S
C3312 C3313 1.391 . S
C3312 C3314 1.394 . S
C3312 H3328 0.931 . S
C3313 C3312 1.391 . S
C3313 C3317 1.376 . S
C3314 C3312 1.394 . S
C3314 C3315 1.369 . S
C3314 C3318 1.531 . S
C3315 C3314 1.369 . S
C3315 C3316 1.410 . S
C3315 C3323 1.503 . S
C3316 C3315 1.410 . S
C3316 C3317 1.392 . S
C3316 C3319 1.511 . S
C3317 C3313 1.376 . S
C3317 C3316 1.392 . S
C3317 H3329 0.929 . S
C3318 C3314 1.531 . S
C3318 H3330 0.960 . S
C3318 H3331 0.962 . S
C3318 H3332 0.960 . S
C3319 C3316 1.511 . S
C3319 H3333 0.961 . S
C3319 H3334 0.961 . S
C3319 H3335 0.961 . S
C3320 C3321 1.370 . S
C3320 C3322 1.363 . S
C3320 H3336 0.931 . S
C3321 C3320 1.370 . S
C3321 C3325 1.408 . S
C3322 C3320 1.363 . S
C3322 C3323 1.370 . S
C3322 C3326 1.524 . S
C3323 C3315 1.503 . S
C3323 C3322 1.370 . S
C3323 C3324 1.403 . S
C3324 C3323 1.403 . S
C3324 C3325 1.404 . S
C3324 C3327 1.539 . S
C3325 C3321 1.408 . S
C3325 C3324 1.404 . S
C3325 H3337 0.930 . S
C3326 C3322 1.524 . S
C3326 H3338 0.956 . S
C3326 H3339 0.961 . S
C3326 H3340 0.961 . S
C3327 C3324 1.539 . S
C3327 H3341 0.958 . S
C3327 H3342 0.961 . S
C3327 H3343 0.960 . S
H3328 C3312 0.931 . S
H3329 C3317 0.929 . S
H3330 C3318 0.960 . S
H3331 C3318 0.962 . S
H3332 C3318 0.960 . S
H3333 C3319 0.961 . S
H3334 C3319 0.961 . S
H3335 C3319 0.961 . S
H3336 C3320 0.931 . S
H3337 C3325 0.930 . S
H3338 C3326 0.956 . S
H3339 C3326 0.961 . S
H3340 C3326 0.961 . S
H3341 C3327 0.958 . S
H3342 C3327 0.961 . S
H3343 C3327 0.960 . S
C3344 C3345 1.391 . S
C3344 C3346 1.394 . S
C3344 H3360 0.931 . S
C3345 C3344 1.391 . S
C3345 C3349 1.376 . S
C3346 C3344 1.394 . S
C3346 C3347 1.369 . S
C3346 C3350 1.531 . S
C3347 C3346 1.369 . S
C3347 C3348 1.410 . S
C3347 C3355 1.503 . S
C3348 C3347 1.410 . S
C3348 C3349 1.392 . S
C3348 C3351 1.511 . S
C3349 C3345 1.376 . S
C3349 C3348 1.392 . S
C3349 H3361 0.929 . S
C3350 C3346 1.531 . S
C3350 H3362 0.960 . S
C3350 H3363 0.962 . S
C3350 H3364 0.960 . S
C3351 C3348 1.511 . S
C3351 H3365 0.961 . S
C3351 H3366 0.961 . S
C3351 H3367 0.961 . S
C3352 C3353 1.370 . S
C3352 C3354 1.363 . S
C3352 H3368 0.931 . S
C3353 C3352 1.370 . S
C3353 C3357 1.408 . S
C3354 C3352 1.363 . S
C3354 C3355 1.370 . S
C3354 C3358 1.524 . S
C3355 C3347 1.503 . S
C3355 C3354 1.370 . S
C3355 C3356 1.403 . S
C3356 C3355 1.403 . S
C3356 C3357 1.404 . S
C3356 C3359 1.539 . S
C3357 C3353 1.408 . S
C3357 C3356 1.404 . S
C3357 H3369 0.930 . S
C3358 C3354 1.524 . S
C3358 H3370 0.956 . S
C3358 H3371 0.961 . S
C3358 H3372 0.961 . S
C3359 C3356 1.539 . S
C3359 H3373 0.958 . S
C3359 H3374 0.961 . S
C3359 H3375 0.960 . S
H3360 C3344 0.931 . S
H3361 C3349 0.929 . S
H3362 C3350 0.960 . S
H3363 C3350 0.962 . S
H3364 C3350 0.960 . S
H3365 C3351 0.961 . S
H3366 C3351 0.961 . S
H3367 C3351 0.961 . S
H3368 C3352 0.931 . S
H3369 C3357 0.930 . S
H3370 C3358 0.956 . S
H3371 C3358 0.961 . S
H3372 C3358 0.961 . S
H3373 C3359 0.958 . S
H3374 C3359 0.961 . S
H3375 C3359 0.960 . S
C3376 C3377 1.391 . S
C3376 C3378 1.394 . S
C3376 H3392 0.931 . S
C3377 C3376 1.391 . S
C3377 C3381 1.376 . S
C3378 C3376 1.394 . S
C3378 C3379 1.369 . S
C3378 C3382 1.531 . S
C3379 C3378 1.369 . S
C3379 C3380 1.410 . S
C3379 C3387 1.503 . S
C3380 C3379 1.410 . S
C3380 C3381 1.392 . S
C3380 C3383 1.511 . S
C3381 C3377 1.376 . S
C3381 C3380 1.392 . S
C3381 H3393 0.929 . S
C3382 C3378 1.531 . S
C3382 H3394 0.960 . S
C3382 H3395 0.962 . S
C3382 H3396 0.960 . S
C3383 C3380 1.511 . S
C3383 H3397 0.961 . S
C3383 H3398 0.961 . S
C3383 H3399 0.961 . S
C3384 C3385 1.370 . S
C3384 C3386 1.363 . S
C3384 H3400 0.931 . S
C3385 C3384 1.370 . S
C3385 C3389 1.408 . S
C3386 C3384 1.363 . S
C3386 C3387 1.370 . S
C3386 C3390 1.524 . S
C3387 C3379 1.503 . S
C3387 C3386 1.370 . S
C3387 C3388 1.403 . S
C3388 C3387 1.403 . S
C3388 C3389 1.404 . S
C3388 C3391 1.539 . S
C3389 C3385 1.408 . S
C3389 C3388 1.404 . S
C3389 H3401 0.930 . S
C3390 C3386 1.524 . S
C3390 H3402 0.956 . S
C3390 H3403 0.961 . S
C3390 H3404 0.961 . S
C3391 C3388 1.539 . S
C3391 H3405 0.958 . S
C3391 H3406 0.961 . S
C3391 H3407 0.960 . S
H3392 C3376 0.931 . S
H3393 C3381 0.929 . S
H3394 C3382 0.960 . S
H3395 C3382 0.962 . S
H3396 C3382 0.960 . S
H3397 C3383 0.961 . S
H3398 C3383 0.961 . S
H3399 C3383 0.961 . S
H3400 C3384 0.931 . S
H3401 C3389 0.930 . S
H3402 C3390 0.956 . S
H3403 C3390 0.961 . S
H3404 C3390 0.961 . S
H3405 C3391 0.958 . S
H3406 C3391 0.961 . S
H3407 C3391 0.960 . S
C3408 C3409 1.391 . S
C3408 C3410 1.394 . S
C3408 H3424 0.931 . S
C3409 C3408 1.391 . S
C3409 C3413 1.376 . S
C3410 C3408 1.394 . S
C3410 C3411 1.369 . S
C3410 C3414 1.531 . S
C3411 C3410 1.369 . S
C3411 C3412 1.410 . S
C3411 C3419 1.503 . S
C3412 C3411 1.410 . S
C3412 C3413 1.392 . S
C3412 C3415 1.511 . S
C3413 C3409 1.376 . S
C3413 C3412 1.392 . S
C3413 H3425 0.929 . S
C3414 C3410 1.531 . S
C3414 H3426 0.960 . S
C3414 H3427 0.962 . S
C3414 H3428 0.960 . S
C3415 C3412 1.511 . S
C3415 H3429 0.961 . S
C3415 H3430 0.961 . S
C3415 H3431 0.961 . S
C3416 C3417 1.370 . S
C3416 C3418 1.363 . S
C3416 H3432 0.931 . S
C3417 C3416 1.370 . S
C3417 C3421 1.408 . S
C3418 C3416 1.363 . S
C3418 C3419 1.370 . S
C3418 C3422 1.524 . S
C3419 C3411 1.503 . S
C3419 C3418 1.370 . S
C3419 C3420 1.403 . S
C3420 C3419 1.403 . S
C3420 C3421 1.404 . S
C3420 C3423 1.539 . S
C3421 C3417 1.408 . S
C3421 C3420 1.404 . S
C3421 H3433 0.930 . S
C3422 C3418 1.524 . S
C3422 H3434 0.956 . S
C3422 H3435 0.961 . S
C3422 H3436 0.961 . S
C3423 C3420 1.539 . S
C3423 H3437 0.958 . S
C3423 H3438 0.961 . S
C3423 H3439 0.960 . S
H3424 C3408 0.931 . S
H3425 C3413 0.929 . S
H3426 C3414 0.960 . S
H3427 C3414 0.962 . S
H3428 C3414 0.960 . S
H3429 C3415 0.961 . S
H3430 C3415 0.961 . S
H3431 C3415 0.961 . S
H3432 C3416 0.931 . S
H3433 C3421 0.930 . S
H3434 C3422 0.956 . S
H3435 C3422 0.961 . S
H3436 C3422 0.961 . S
H3437 C3423 0.958 . S
H3438 C3423 0.961 . S
H3439 C3423 0.960 . S
C3440 C3441 1.391 . S
C3440 C3442 1.394 . S
C3440 H3456 0.931 . S
C3441 C3440 1.391 . S
C3441 C3445 1.376 . S
C3442 C3440 1.394 . S
C3442 C3443 1.369 . S
C3442 C3446 1.531 . S
C3443 C3442 1.369 . S
C3443 C3444 1.410 . S
C3443 C3451 1.503 . S
C3444 C3443 1.410 . S
C3444 C3445 1.392 . S
C3444 C3447 1.511 . S
C3445 C3441 1.376 . S
C3445 C3444 1.392 . S
C3445 H3457 0.929 . S
C3446 C3442 1.531 . S
C3446 H3458 0.960 . S
C3446 H3459 0.962 . S
C3446 H3460 0.960 . S
C3447 C3444 1.511 . S
C3447 H3461 0.961 . S
C3447 H3462 0.961 . S
C3447 H3463 0.961 . S
C3448 C3449 1.370 . S
C3448 C3450 1.363 . S
C3448 H3464 0.931 . S
C3449 C3448 1.370 . S
C3449 C3453 1.408 . S
C3450 C3448 1.363 . S
C3450 C3451 1.370 . S
C3450 C3454 1.524 . S
C3451 C3443 1.503 . S
C3451 C3450 1.370 . S
C3451 C3452 1.403 . S
C3452 C3451 1.403 . S
C3452 C3453 1.404 . S
C3452 C3455 1.539 . S
C3453 C3449 1.408 . S
C3453 C3452 1.404 . S
C3453 H3465 0.930 . S
C3454 C3450 1.524 . S
C3454 H3466 0.956 . S
C3454 H3467 0.961 . S
C3454 H3468 0.961 . S
C3455 C3452 1.539 . S
C3455 H3469 0.958 . S
C3455 H3470 0.961 . S
C3455 H3471 0.960 . S
H3456 C3440 0.931 . S
H3457 C3445 0.929 . S
H3458 C3446 0.960 . S
H3459 C3446 0.962 . S
H3460 C3446 0.960 . S
H3461 C3447 0.961 . S
H3462 C3447 0.961 . S
H3463 C3447 0.961 . S
H3464 C3448 0.931 . S
H3465 C3453 0.930 . S
H3466 C3454 0.956 . S
H3467 C3454 0.961 . S
H3468 C3454 0.961 . S
H3469 C3455 0.958 . S
H3470 C3455 0.961 . S
H3471 C3455 0.960 . S
C3472 C3473 1.391 . S
C3472 C3474 1.394 . S
C3472 H3488 0.931 . S
C3473 C3472 1.391 . S
C3473 C3477 1.376 . S
C3474 C3472 1.394 . S
C3474 C3475 1.369 . S
C3474 C3478 1.531 . S
C3475 C3474 1.369 . S
C3475 C3476 1.410 . S
C3475 C3483 1.503 . S
C3476 C3475 1.410 . S
C3476 C3477 1.392 . S
C3476 C3479 1.511 . S
C3477 C3473 1.376 . S
C3477 C3476 1.392 . S
C3477 H3489 0.929 . S
C3478 C3474 1.531 . S
C3478 H3490 0.960 . S
C3478 H3491 0.962 . S
C3478 H3492 0.960 . S
C3479 C3476 1.511 . S
C3479 H3493 0.961 . S
C3479 H3494 0.961 . S
C3479 H3495 0.961 . S
C3480 C3481 1.370 . S
C3480 C3482 1.363 . S
C3480 H3496 0.931 . S
C3481 C3480 1.370 . S
C3481 C3485 1.408 . S
C3482 C3480 1.363 . S
C3482 C3483 1.370 . S
C3482 C3486 1.524 . S
C3483 C3475 1.503 . S
C3483 C3482 1.370 . S
C3483 C3484 1.403 . S
C3484 C3483 1.403 . S
C3484 C3485 1.404 . S
C3484 C3487 1.539 . S
C3485 C3481 1.408 . S
C3485 C3484 1.404 . S
C3485 H3497 0.930 . S
C3486 C3482 1.524 . S
C3486 H3498 0.956 . S
C3486 H3499 0.961 . S
C3486 H3500 0.961 . S
C3487 C3484 1.539 . S
C3487 H3501 0.958 . S
C3487 H3502 0.961 . S
C3487 H3503 0.960 . S
H3488 C3472 0.931 . S
H3489 C3477 0.929 . S
H3490 C3478 0.960 . S
H3491 C3478 0.962 . S
H3492 C3478 0.960 . S
H3493 C3479 0.961 . S
H3494 C3479 0.961 . S
H3495 C3479 0.961 . S
H3496 C3480 0.931 . S
H3497 C3485 0.930 . S
H3498 C3486 0.956 . S
H3499 C3486 0.961 . S
H3500 C3486 0.961 . S
H3501 C3487 0.958 . S
H3502 C3487 0.961 . S
H3503 C3487 0.960 . S
C3504 C3505 1.391 . S
C3504 C3506 1.394 . S
C3504 H3520 0.931 . S
C3505 C3504 1.391 . S
C3505 C3509 1.376 . S
C3506 C3504 1.394 . S
C3506 C3507 1.369 . S
C3506 C3510 1.531 . S
C3507 C3506 1.369 . S
C3507 C3508 1.410 . S
C3507 C3515 1.503 . S
C3508 C3507 1.410 . S
C3508 C3509 1.392 . S
C3508 C3511 1.511 . S
C3509 C3505 1.376 . S
C3509 C3508 1.392 . S
C3509 H3521 0.929 . S
C3510 C3506 1.531 . S
C3510 H3522 0.960 . S
C3510 H3523 0.962 . S
C3510 H3524 0.960 . S
C3511 C3508 1.511 . S
C3511 H3525 0.961 . S
C3511 H3526 0.961 . S
C3511 H3527 0.961 . S
C3512 C3513 1.370 . S
C3512 C3514 1.363 . S
C3512 H3528 0.931 . S
C3513 C3512 1.370 . S
C3513 C3517 1.408 . S
C3514 C3512 1.363 . S
C3514 C3515 1.370 . S
C3514 C3518 1.524 . S
C3515 C3507 1.503 . S
C3515 C3514 1.370 . S
C3515 C3516 1.403 . S
C3516 C3515 1.403 . S
C3516 C3517 1.404 . S
C3516 C3519 1.539 . S
C3517 C3513 1.408 . S
C3517 C3516 1.404 . S
C3517 H3529 0.930 . S
C3518 C3514 1.524 . S
C3518 H3530 0.956 . S
C3518 H3531 0.961 . S
C3518 H3532 0.961 . S
C3519 C3516 1.539 . S
C3519 H3533 0.958 . S
C3519 H3534 0.961 . S
C3519 H3535 0.960 . S
H3520 C3504 0.931 . S
H3521 C3509 0.929 . S
H3522 C3510 0.960 . S
H3523 C3510 0.962 . S
H3524 C3510 0.960 . S
H3525 C3511 0.961 . S
H3526 C3511 0.961 . S
H3527 C3511 0.961 . S
H3528 C3512 0.931 . S
H3529 C3517 0.930 . S
H3530 C3518 0.956 . S
H3531 C3518 0.961 . S
H3532 C3518 0.961 . S
H3533 C3519 0.958 . S
H3534 C3519 0.961 . S
H3535 C3519 0.960 . S
C3536 C3537 1.391 . S
C3536 C3538 1.394 . S
C3536 H3552 0.931 . S
C3537 C3536 1.391 . S
C3537 C3541 1.376 . S
C3538 C3536 1.394 . S
C3538 C3539 1.369 . S
C3538 C3542 1.531 . S
C3539 C3538 1.369 . S
C3539 C3540 1.410 . S
C3539 C3547 1.503 . S
C3540 C3539 1.410 . S
C3540 C3541 1.392 . S
C3540 C3543 1.511 . S
C3541 C3537 1.376 . S
C3541 C3540 1.392 . S
C3541 H3553 0.929 . S
C3542 C3538 1.531 . S
C3542 H3554 0.960 . S
C3542 H3555 0.962 . S
C3542 H3556 0.960 . S
C3543 C3540 1.511 . S
C3543 H3557 0.961 . S
C3543 H3558 0.961 . S
C3543 H3559 0.961 . S
C3544 C3545 1.370 . S
C3544 C3546 1.363 . S
C3544 H3560 0.931 . S
C3545 C3544 1.370 . S
C3545 C3549 1.408 . S
C3546 C3544 1.363 . S
C3546 C3547 1.370 . S
C3546 C3550 1.524 . S
C3547 C3539 1.503 . S
C3547 C3546 1.370 . S
C3547 C3548 1.403 . S
C3548 C3547 1.403 . S
C3548 C3549 1.404 . S
C3548 C3551 1.539 . S
C3549 C3545 1.408 . S
C3549 C3548 1.404 . S
C3549 H3561 0.930 . S
C3550 C3546 1.524 . S
C3550 H3562 0.956 . S
C3550 H3563 0.961 . S
C3550 H3564 0.961 . S
C3551 C3548 1.539 . S
C3551 H3565 0.958 . S
C3551 H3566 0.961 . S
C3551 H3567 0.960 . S
H3552 C3536 0.931 . S
H3553 C3541 0.929 . S
H3554 C3542 0.960 . S
H3555 C3542 0.962 . S
H3556 C3542 0.960 . S
H3557 C3543 0.961 . S
H3558 C3543 0.961 . S
H3559 C3543 0.961 . S
H3560 C3544 0.931 . S
H3561 C3549 0.930 . S
H3562 C3550 0.956 . S
H3563 C3550 0.961 . S
H3564 C3550 0.961 . S
H3565 C3551 0.958 . S
H3566 C3551 0.961 . S
H3567 C3551 0.960 . S
C3568 C3569 1.391 . S
C3568 C3570 1.394 . S
C3568 H3584 0.931 . S
C3569 C3568 1.391 . S
C3569 C3573 1.376 . S
C3570 C3568 1.394 . S
C3570 C3571 1.369 . S
C3570 C3574 1.531 . S
C3571 C3570 1.369 . S
C3571 C3572 1.410 . S
C3571 C3579 1.503 . S
C3572 C3571 1.410 . S
C3572 C3573 1.392 . S
C3572 C3575 1.511 . S
C3573 C3569 1.376 . S
C3573 C3572 1.392 . S
C3573 H3585 0.929 . S
C3574 C3570 1.531 . S
C3574 H3586 0.960 . S
C3574 H3587 0.962 . S
C3574 H3588 0.960 . S
C3575 C3572 1.511 . S
C3575 H3589 0.961 . S
C3575 H3590 0.961 . S
C3575 H3591 0.961 . S
C3576 C3577 1.370 . S
C3576 C3578 1.363 . S
C3576 H3592 0.931 . S
C3577 C3576 1.370 . S
C3577 C3581 1.408 . S
C3578 C3576 1.363 . S
C3578 C3579 1.370 . S
C3578 C3582 1.524 . S
C3579 C3571 1.503 . S
C3579 C3578 1.370 . S
C3579 C3580 1.403 . S
C3580 C3579 1.403 . S
C3580 C3581 1.404 . S
C3580 C3583 1.539 . S
C3581 C3577 1.408 . S
C3581 C3580 1.404 . S
C3581 H3593 0.930 . S
C3582 C3578 1.524 . S
C3582 H3594 0.956 . S
C3582 H3595 0.961 . S
C3582 H3596 0.961 . S
C3583 C3580 1.539 . S
C3583 H3597 0.958 . S
C3583 H3598 0.961 . S
C3583 H3599 0.960 . S
H3584 C3568 0.931 . S
H3585 C3573 0.929 . S
H3586 C3574 0.960 . S
H3587 C3574 0.962 . S
H3588 C3574 0.960 . S
H3589 C3575 0.961 . S
H3590 C3575 0.961 . S
H3591 C3575 0.961 . S
H3592 C3576 0.931 . S
H3593 C3581 0.930 . S
H3594 C3582 0.956 . S
H3595 C3582 0.961 . S
H3596 C3582 0.961 . S
H3597 C3583 0.958 . S
H3598 C3583 0.961 . S
H3599 C3583 0.960 . S
C3600 C3601 1.391 . S
C3600 C3602 1.394 . S
C3600 H3616 0.931 . S
C3601 C3600 1.391 . S
C3601 C3605 1.376 . S
C3602 C3600 1.394 . S
C3602 C3603 1.369 . S
C3602 C3606 1.531 . S
C3603 C3602 1.369 . S
C3603 C3604 1.410 . S
C3603 C3611 1.503 . S
C3604 C3603 1.410 . S
C3604 C3605 1.392 . S
C3604 C3607 1.511 1_655 S
C3605 C3601 1.376 . S
C3605 C3604 1.392 . S
C3605 H3617 0.929 . S
C3606 C3602 1.531 . S
C3606 H3618 0.960 . S
C3606 H3619 0.962 . S
C3606 H3620 0.960 . S
C3607 C3604 1.511 1_455 S
C3607 H3621 0.961 . S
C3607 H3622 0.961 . S
C3607 H3623 0.961 . S
C3608 C3609 1.370 . S
C3608 C3610 1.390 . S
C3608 H3624 0.931 . S
C3609 C3608 1.370 . S
C3609 C3613 1.408 . S
C3610 C3608 1.390 . S
C3610 C3611 1.360 1_455 S
C3610 C3614 1.511 1_455 S
C3611 C3603 1.503 . S
C3611 C3610 1.360 1_655 S
C3611 C3612 1.403 . S
C3612 C3611 1.403 . S
C3612 C3613 1.404 1_655 S
C3612 C3615 1.539 . S
C3613 C3609 1.408 . S
C3613 C3612 1.404 1_455 S
C3613 H3625 0.930 . S
C3614 C3610 1.511 1_655 S
C3614 H3626 0.956 . S
C3614 H3627 0.947 1_655 S
C3614 H3628 0.961 1_655 S
C3615 C3612 1.539 . S
C3615 H3629 0.958 . S
C3615 H3630 0.961 . S
C3615 H3631 0.960 . S
H3616 C3600 0.931 . S
H3617 C3605 0.929 . S
H3618 C3606 0.960 . S
H3619 C3606 0.962 . S
H3620 C3606 0.960 . S
H3621 C3607 0.961 . S
H3622 C3607 0.961 . S
H3623 C3607 0.961 . S
H3624 C3608 0.931 . S
H3625 C3613 0.930 . S
H3626 C3614 0.956 . S
H3627 C3614 0.947 1_455 S
H3628 C3614 0.961 1_455 S
H3629 C3615 0.958 . S
H3630 C3615 0.961 . S
H3631 C3615 0.960 . S
C3632 C3633 1.391 . S
C3632 C3634 1.394 . S
C3632 H3648 0.931 . S
C3633 C3632 1.391 . S
C3633 C3637 1.376 . S
C3634 C3632 1.394 . S
C3634 C3635 1.369 . S
C3634 C3638 1.531 . S
C3635 C3634 1.369 . S
C3635 C3636 1.410 . S
C3635 C3643 1.503 . S
C3636 C3635 1.410 . S
C3636 C3637 1.392 . S
C3636 C3639 1.511 . S
C3637 C3633 1.376 . S
C3637 C3636 1.392 . S
C3637 H3649 0.929 . S
C3638 C3634 1.531 . S
C3638 H3650 0.960 . S
C3638 H3651 0.962 . S
C3638 H3652 0.960 . S
C3639 C3636 1.511 . S
C3639 H3653 0.961 . S
C3639 H3654 0.961 . S
C3639 H3655 0.961 . S
C3640 C3641 1.370 . S
C3640 C3642 1.363 . S
C3640 H3656 0.931 . S
C3641 C3640 1.370 . S
C3641 C3645 1.408 . S
C3642 C3640 1.363 . S
C3642 C3643 1.370 . S
C3642 C3646 1.524 . S
C3643 C3635 1.503 . S
C3643 C3642 1.370 . S
C3643 C3644 1.403 . S
C3644 C3643 1.403 . S
C3644 C3645 1.404 . S
C3644 C3647 1.539 . S
C3645 C3641 1.408 . S
C3645 C3644 1.404 . S
C3645 H3657 0.930 . S
C3646 C3642 1.524 . S
C3646 H3658 0.956 . S
C3646 H3659 0.961 . S
C3646 H3660 0.961 . S
C3647 C3644 1.539 . S
C3647 H3661 0.958 . S
C3647 H3662 0.961 . S
C3647 H3663 0.960 . S
H3648 C3632 0.931 . S
H3649 C3637 0.929 . S
H3650 C3638 0.960 . S
H3651 C3638 0.962 . S
H3652 C3638 0.960 . S
H3653 C3639 0.961 . S
H3654 C3639 0.961 . S
H3655 C3639 0.961 . S
H3656 C3640 0.931 . S
H3657 C3645 0.930 . S
H3658 C3646 0.956 . S
H3659 C3646 0.961 . S
H3660 C3646 0.961 . S
H3661 C3647 0.958 . S
H3662 C3647 0.961 . S
H3663 C3647 0.960 . S
C3664 C3665 1.391 . S
C3664 C3666 1.394 . S
C3664 H3680 0.931 . S
C3665 C3664 1.391 . S
C3665 C3669 1.376 . S
C3666 C3664 1.394 . S
C3666 C3667 1.369 . S
C3666 C3670 1.531 . S
C3667 C3666 1.369 . S
C3667 C3668 1.410 . S
C3667 C3675 1.503 . S
C3668 C3667 1.410 . S
C3668 C3669 1.392 . S
C3668 C3671 1.511 . S
C3669 C3665 1.376 . S
C3669 C3668 1.392 . S
C3669 H3681 0.929 . S
C3670 C3666 1.531 . S
C3670 H3682 0.960 . S
C3670 H3683 0.962 . S
C3670 H3684 0.960 . S
C3671 C3668 1.511 . S
C3671 H3685 0.961 . S
C3671 H3686 0.961 . S
C3671 H3687 0.961 . S
C3672 C3673 1.370 . S
C3672 C3674 1.363 . S
C3672 H3688 0.931 . S
C3673 C3672 1.370 . S
C3673 C3677 1.408 . S
C3674 C3672 1.363 . S
C3674 C3675 1.370 . S
C3674 C3678 1.524 . S
C3675 C3667 1.503 . S
C3675 C3674 1.370 . S
C3675 C3676 1.403 . S
C3676 C3675 1.403 . S
C3676 C3677 1.404 . S
C3676 C3679 1.539 . S
C3677 C3673 1.408 . S
C3677 C3676 1.404 . S
C3677 H3689 0.930 . S
C3678 C3674 1.524 . S
C3678 H3690 0.956 . S
C3678 H3691 0.961 . S
C3678 H3692 0.961 . S
C3679 C3676 1.539 . S
C3679 H3693 0.958 . S
C3679 H3694 0.961 . S
C3679 H3695 0.960 . S
H3680 C3664 0.931 . S
H3681 C3669 0.929 . S
H3682 C3670 0.960 . S
H3683 C3670 0.962 . S
H3684 C3670 0.960 . S
H3685 C3671 0.961 . S
H3686 C3671 0.961 . S
H3687 C3671 0.961 . S
H3688 C3672 0.931 . S
H3689 C3677 0.930 . S
H3690 C3678 0.956 . S
H3691 C3678 0.961 . S
H3692 C3678 0.961 . S
H3693 C3679 0.958 . S
H3694 C3679 0.961 . S
H3695 C3679 0.960 . S
C3696 C3697 1.391 . S
C3696 C3698 1.394 . S
C3696 H3712 0.931 . S
C3697 C3696 1.391 . S
C3697 C3701 1.376 . S
C3698 C3696 1.394 . S
C3698 C3699 1.369 . S
C3698 C3702 1.531 . S
C3699 C3698 1.369 . S
C3699 C3700 1.410 . S
C3699 C3707 1.503 . S
C3700 C3699 1.410 . S
C3700 C3701 1.392 . S
C3700 C3703 1.511 . S
C3701 C3697 1.376 . S
C3701 C3700 1.392 . S
C3701 H3713 0.929 . S
C3702 C3698 1.531 . S
C3702 H3714 0.960 . S
C3702 H3715 0.962 . S
C3702 H3716 0.960 . S
C3703 C3700 1.511 . S
C3703 H3717 0.961 . S
C3703 H3718 0.961 . S
C3703 H3719 0.961 . S
C3704 C3705 1.370 . S
C3704 C3706 1.363 . S
C3704 H3720 0.931 . S
C3705 C3704 1.370 . S
C3705 C3709 1.408 . S
C3706 C3704 1.363 . S
C3706 C3707 1.370 . S
C3706 C3710 1.524 . S
C3707 C3699 1.503 . S
C3707 C3706 1.370 . S
C3707 C3708 1.403 . S
C3708 C3707 1.403 . S
C3708 C3709 1.404 . S
C3708 C3711 1.539 . S
C3709 C3705 1.408 . S
C3709 C3708 1.404 . S
C3709 H3721 0.930 . S
C3710 C3706 1.524 . S
C3710 H3722 0.956 . S
C3710 H3723 0.961 . S
C3710 H3724 0.961 . S
C3711 C3708 1.539 . S
C3711 H3725 0.958 . S
C3711 H3726 0.961 . S
C3711 H3727 0.960 . S
H3712 C3696 0.931 . S
H3713 C3701 0.929 . S
H3714 C3702 0.960 . S
H3715 C3702 0.962 . S
H3716 C3702 0.960 . S
H3717 C3703 0.961 . S
H3718 C3703 0.961 . S
H3719 C3703 0.961 . S
H3720 C3704 0.931 . S
H3721 C3709 0.930 . S
H3722 C3710 0.956 . S
H3723 C3710 0.961 . S
H3724 C3710 0.961 . S
H3725 C3711 0.958 . S
H3726 C3711 0.961 . S
H3727 C3711 0.960 . S
C3728 C3729 1.391 . S
C3728 C3730 1.394 . S
C3728 H3744 0.931 . S
C3729 C3728 1.391 . S
C3729 C3733 1.376 . S
C3730 C3728 1.394 . S
C3730 C3731 1.369 . S
C3730 C3734 1.531 . S
C3731 C3730 1.369 . S
C3731 C3732 1.410 . S
C3731 C3739 1.503 . S
C3732 C3731 1.410 . S
C3732 C3733 1.392 . S
C3732 C3735 1.511 . S
C3733 C3729 1.376 . S
C3733 C3732 1.392 . S
C3733 H3745 0.929 . S
C3734 C3730 1.531 . S
C3734 H3746 0.960 . S
C3734 H3747 0.962 . S
C3734 H3748 0.960 . S
C3735 C3732 1.511 . S
C3735 H3749 0.961 . S
C3735 H3750 0.961 . S
C3735 H3751 0.961 . S
C3736 C3737 1.370 . S
C3736 C3738 1.363 . S
C3736 H3752 0.931 . S
C3737 C3736 1.370 . S
C3737 C3741 1.408 . S
C3738 C3736 1.363 . S
C3738 C3739 1.370 . S
C3738 C3742 1.524 . S
C3739 C3731 1.503 . S
C3739 C3738 1.370 . S
C3739 C3740 1.403 . S
C3740 C3739 1.403 . S
C3740 C3741 1.404 . S
C3740 C3743 1.551 . S
C3741 C3737 1.408 . S
C3741 C3740 1.404 . S
C3741 H3753 0.930 1_655 S
C3742 C3738 1.524 . S
C3742 H3754 0.956 . S
C3742 H3755 0.961 . S
C3742 H3756 0.961 . S
C3743 C3740 1.551 . S
C3743 H3757 0.972 . S
C3743 H3758 0.933 1_655 S
C3743 H3759 0.963 . S
H3744 C3728 0.931 . S
H3745 C3733 0.929 . S
H3746 C3734 0.960 . S
H3747 C3734 0.962 . S
H3748 C3734 0.960 . S
H3749 C3735 0.961 . S
H3750 C3735 0.961 . S
H3751 C3735 0.961 . S
H3752 C3736 0.931 . S
H3753 C3741 0.930 1_455 S
H3754 C3742 0.956 . S
H3755 C3742 0.961 . S
H3756 C3742 0.961 . S
H3757 C3743 0.972 . S
H3758 C3743 0.933 1_455 S
H3759 C3743 0.963 . S
C3760 C3761 1.391 . S
C3760 C3762 1.394 . S
C3760 H3776 0.931 . S
C3761 C3760 1.391 . S
C3761 C3765 1.376 . S
C3762 C3760 1.394 . S
C3762 C3763 1.369 . S
C3762 C3766 1.531 . S
C3763 C3762 1.369 . S
C3763 C3764 1.410 . S
C3763 C3771 1.503 . S
C3764 C3763 1.410 . S
C3764 C3765 1.392 . S
C3764 C3767 1.511 . S
C3765 C3761 1.376 . S
C3765 C3764 1.392 . S
C3765 H3777 0.929 . S
C3766 C3762 1.531 . S
C3766 H3778 0.960 . S
C3766 H3779 0.962 . S
C3766 H3780 0.960 . S
C3767 C3764 1.511 . S
C3767 H3781 0.961 . S
C3767 H3782 0.961 . S
C3767 H3783 0.961 . S
C3768 C3769 1.370 . S
C3768 C3770 1.363 . S
C3768 H3784 0.931 . S
C3769 C3768 1.370 . S
C3769 C3773 1.408 . S
C3770 C3768 1.363 . S
C3770 C3771 1.370 . S
C3770 C3774 1.524 . S
C3771 C3763 1.503 . S
C3771 C3770 1.370 . S
C3771 C3772 1.403 . S
C3772 C3771 1.403 . S
C3772 C3773 1.404 . S
C3772 C3775 1.539 . S
C3773 C3769 1.408 . S
C3773 C3772 1.404 . S
C3773 H3785 0.930 . S
C3774 C3770 1.524 . S
C3774 H3786 0.956 . S
C3774 H3787 0.961 . S
C3774 H3788 0.961 . S
C3775 C3772 1.539 . S
C3775 H3789 0.958 . S
C3775 H3790 0.961 . S
C3775 H3791 0.960 . S
H3776 C3760 0.931 . S
H3777 C3765 0.929 . S
H3778 C3766 0.960 . S
H3779 C3766 0.962 . S
H3780 C3766 0.960 . S
H3781 C3767 0.961 . S
H3782 C3767 0.961 . S
H3783 C3767 0.961 . S
H3784 C3768 0.931 . S
H3785 C3773 0.930 . S
H3786 C3774 0.956 . S
H3787 C3774 0.961 . S
H3788 C3774 0.961 . S
H3789 C3775 0.958 . S
H3790 C3775 0.961 . S
H3791 C3775 0.960 . S
C3792 C3793 1.391 . S
C3792 C3794 1.394 . S
C3792 H3808 0.931 . S
C3793 C3792 1.391 . S
C3793 C3797 1.376 . S
C3794 C3792 1.394 . S
C3794 C3795 1.369 . S
C3794 C3798 1.531 . S
C3795 C3794 1.369 . S
C3795 C3796 1.410 . S
C3795 C3803 1.503 . S
C3796 C3795 1.410 . S
C3796 C3797 1.392 . S
C3796 C3799 1.511 . S
C3797 C3793 1.376 . S
C3797 C3796 1.392 . S
C3797 H3809 0.929 . S
C3798 C3794 1.531 . S
C3798 H3810 0.960 . S
C3798 H3811 0.962 . S
C3798 H3812 0.960 . S
C3799 C3796 1.511 . S
C3799 H3813 0.961 . S
C3799 H3814 0.961 . S
C3799 H3815 0.961 . S
C3800 C3801 1.370 . S
C3800 C3802 1.363 . S
C3800 H3816 0.931 . S
C3801 C3800 1.370 . S
C3801 C3805 1.408 . S
C3802 C3800 1.363 . S
C3802 C3803 1.370 . S
C3802 C3806 1.524 . S
C3803 C3795 1.503 . S
C3803 C3802 1.370 . S
C3803 C3804 1.403 . S
C3804 C3803 1.403 . S
C3804 C3805 1.404 . S
C3804 C3807 1.539 . S
C3805 C3801 1.408 . S
C3805 C3804 1.404 . S
C3805 H3817 0.930 . S
C3806 C3802 1.524 . S
C3806 H3818 0.956 . S
C3806 H3819 0.961 . S
C3806 H3820 0.961 . S
C3807 C3804 1.539 . S
C3807 H3821 0.958 . S
C3807 H3822 0.961 . S
C3807 H3823 0.960 . S
H3808 C3792 0.931 . S
H3809 C3797 0.929 . S
H3810 C3798 0.960 . S
H3811 C3798 0.962 . S
H3812 C3798 0.960 . S
H3813 C3799 0.961 . S
H3814 C3799 0.961 . S
H3815 C3799 0.961 . S
H3816 C3800 0.931 . S
H3817 C3805 0.930 . S
H3818 C3806 0.956 . S
H3819 C3806 0.961 . S
H3820 C3806 0.961 . S
H3821 C3807 0.958 . S
H3822 C3807 0.961 . S
H3823 C3807 0.960 . S
C3824 C3825 1.391 . S
C3824 C3826 1.394 . S
C3824 H3840 0.931 . S
C3825 C3824 1.391 . S
C3825 C3829 1.376 . S
C3826 C3824 1.394 . S
C3826 C3827 1.369 . S
C3826 C3830 1.531 . S
C3827 C3826 1.369 . S
C3827 C3828 1.410 . S
C3827 C3835 1.503 . S
C3828 C3827 1.410 . S
C3828 C3829 1.392 . S
C3828 C3831 1.511 . S
C3829 C3825 1.376 . S
C3829 C3828 1.392 . S
C3829 H3841 0.929 . S
C3830 C3826 1.531 . S
C3830 H3842 0.960 . S
C3830 H3843 0.962 . S
C3830 H3844 0.960 . S
C3831 C3828 1.511 . S
C3831 H3845 0.961 . S
C3831 H3846 0.961 . S
C3831 H3847 0.961 . S
C3832 C3833 1.370 . S
C3832 C3834 1.363 . S
C3832 H3848 0.931 . S
C3833 C3832 1.370 . S
C3833 C3837 1.408 . S
C3834 C3832 1.363 . S
C3834 C3835 1.370 . S
C3834 C3838 1.524 . S
C3835 C3827 1.503 . S
C3835 C3834 1.370 . S
C3835 C3836 1.403 . S
C3836 C3835 1.403 . S
C3836 C3837 1.404 . S
C3836 C3839 1.539 . S
C3837 C3833 1.408 . S
C3837 C3836 1.404 . S
C3837 H3849 0.930 1_565 S
C3838 C3834 1.524 . S
C3838 H3850 0.956 . S
C3838 H3851 0.961 . S
C3838 H3852 0.961 . S
C3839 C3836 1.539 . S
C3839 H3853 0.958 . S
C3839 H3854 0.961 . S
C3839 H3855 0.960 . S
H3840 C3824 0.931 . S
H3841 C3829 0.929 . S
H3842 C3830 0.960 . S
H3843 C3830 0.962 . S
H3844 C3830 0.960 . S
H3845 C3831 0.961 . S
H3846 C3831 0.961 . S
H3847 C3831 0.961 . S
H3848 C3832 0.931 . S
H3849 C3837 0.930 1_545 S
H3850 C3838 0.956 . S
H3851 C3838 0.961 . S
H3852 C3838 0.961 . S
H3853 C3839 0.958 . S
H3854 C3839 0.961 . S
H3855 C3839 0.960 . S
C3856 C3857 1.391 . S
C3856 C3858 1.394 . S
C3856 H3872 0.931 . S
C3857 C3856 1.391 . S
C3857 C3861 1.376 . S
C3858 C3856 1.394 . S
C3858 C3859 1.369 . S
C3858 C3862 1.531 . S
C3859 C3858 1.369 . S
C3859 C3860 1.410 . S
C3859 C3867 1.503 . S
C3860 C3859 1.410 . S
C3860 C3861 1.392 . S
C3860 C3863 1.511 . S
C3861 C3857 1.376 . S
C3861 C3860 1.392 . S
C3861 H3873 0.929 . S
C3862 C3858 1.531 . S
C3862 H3874 0.960 . S
C3862 H3875 0.962 . S
C3862 H3876 0.960 . S
C3863 C3860 1.511 . S
C3863 H3877 0.961 . S
C3863 H3878 0.961 . S
C3863 H3879 0.961 . S
C3864 C3865 1.370 . S
C3864 C3866 1.363 . S
C3864 H3880 0.931 . S
C3865 C3864 1.370 . S
C3865 C3869 1.408 . S
C3866 C3864 1.363 . S
C3866 C3867 1.370 . S
C3866 C3870 1.524 . S
C3867 C3859 1.503 . S
C3867 C3866 1.370 . S
C3867 C3868 1.403 . S
C3868 C3867 1.403 . S
C3868 C3869 1.404 . S
C3868 C3871 1.539 . S
C3869 C3865 1.408 . S
C3869 C3868 1.404 . S
C3869 H3881 0.930 . S
C3870 C3866 1.524 . S
C3870 H3882 0.956 . S
C3870 H3883 0.961 . S
C3870 H3884 0.961 . S
C3871 C3868 1.539 . S
C3871 H3885 0.958 . S
C3871 H3886 0.961 . S
C3871 H3887 0.960 . S
H3872 C3856 0.931 . S
H3873 C3861 0.929 . S
H3874 C3862 0.960 . S
H3875 C3862 0.962 . S
H3876 C3862 0.960 . S
H3877 C3863 0.961 . S
H3878 C3863 0.961 . S
H3879 C3863 0.961 . S
H3880 C3864 0.931 . S
H3881 C3869 0.930 . S
H3882 C3870 0.956 . S
H3883 C3870 0.961 . S
H3884 C3870 0.961 . S
H3885 C3871 0.958 . S
H3886 C3871 0.961 . S
H3887 C3871 0.960 . S
C3888 C3889 1.391 . S
C3888 C3890 1.394 . S
C3888 H3904 0.931 . S
C3889 C3888 1.391 . S
C3889 C3893 1.376 . S
C3890 C3888 1.394 . S
C3890 C3891 1.369 . S
C3890 C3894 1.531 . S
C3891 C3890 1.369 . S
C3891 C3892 1.410 . S
C3891 C3899 1.503 . S
C3892 C3891 1.410 . S
C3892 C3893 1.392 . S
C3892 C3895 1.511 . S
C3893 C3889 1.376 . S
C3893 C3892 1.392 . S
C3893 H3905 0.929 . S
C3894 C3890 1.531 . S
C3894 H3906 0.960 . S
C3894 H3907 0.962 . S
C3894 H3908 0.960 . S
C3895 C3892 1.511 . S
C3895 H3909 0.961 . S
C3895 H3910 0.961 . S
C3895 H3911 0.961 . S
C3896 C3897 1.370 1_556 S
C3896 C3898 1.363 . S
C3896 H3912 0.931 . S
C3897 C3896 1.370 1_554 S
C3897 C3901 1.408 . S
C3898 C3896 1.363 . S
C3898 C3899 1.370 1_556 S
C3898 C3902 1.524 . S
C3899 C3891 1.503 . S
C3899 C3898 1.370 1_554 S
C3899 C3900 1.403 . S
C3900 C3899 1.403 . S
C3900 C3901 1.404 . S
C3900 C3903 1.539 . S
C3901 C3897 1.408 . S
C3901 C3900 1.404 . S
C3901 H3913 0.930 . S
C3902 C3898 1.524 . S
C3902 H3914 0.956 . S
C3902 H3915 0.961 . S
C3902 H3916 0.961 . S
C3903 C3900 1.539 . S
C3903 H3917 0.958 . S
C3903 H3918 0.961 . S
C3903 H3919 0.960 . S
H3904 C3888 0.931 . S
H3905 C3893 0.929 . S
H3906 C3894 0.960 . S
H3907 C3894 0.962 . S
H3908 C3894 0.960 . S
H3909 C3895 0.961 . S
H3910 C3895 0.961 . S
H3911 C3895 0.961 . S
H3912 C3896 0.931 . S
H3913 C3901 0.930 . S
H3914 C3902 0.956 . S
H3915 C3902 0.961 . S
H3916 C3902 0.961 . S
H3917 C3903 0.958 . S
H3918 C3903 0.961 . S
H3919 C3903 0.960 . S
C3920 C3921 1.391 . S
C3920 C3922 1.394 . S
C3920 H3936 0.931 . S
C3921 C3920 1.391 . S
C3921 C3925 1.376 . S
C3922 C3920 1.394 . S
C3922 C3923 1.369 . S
C3922 C3926 1.531 . S
C3923 C3922 1.369 . S
C3923 C3924 1.410 . S
C3923 C3931 1.503 . S
C3924 C3923 1.410 . S
C3924 C3925 1.392 . S
C3924 C3927 1.511 . S
C3925 C3921 1.376 . S
C3925 C3924 1.392 . S
C3925 H3937 0.929 . S
C3926 C3922 1.531 . S
C3926 H3938 0.960 . S
C3926 H3939 0.962 . S
C3926 H3940 0.960 . S
C3927 C3924 1.511 . S
C3927 H3941 0.961 . S
C3927 H3942 0.961 . S
C3927 H3943 0.961 . S
C3928 C3929 1.370 . S
C3928 C3930 1.363 . S
C3928 H3944 0.931 . S
C3929 C3928 1.370 . S
C3929 C3933 1.408 . S
C3930 C3928 1.363 . S
C3930 C3931 1.370 . S
C3930 C3934 1.524 . S
C3931 C3923 1.503 . S
C3931 C3930 1.370 . S
C3931 C3932 1.403 . S
C3932 C3931 1.403 . S
C3932 C3933 1.404 . S
C3932 C3935 1.539 . S
C3933 C3929 1.408 . S
C3933 C3932 1.404 . S
C3933 H3945 0.930 . S
C3934 C3930 1.524 . S
C3934 H3946 0.956 . S
C3934 H3947 0.961 . S
C3934 H3948 0.961 . S
C3935 C3932 1.539 . S
C3935 H3949 0.958 . S
C3935 H3950 0.961 . S
C3935 H3951 0.960 . S
H3936 C3920 0.931 . S
H3937 C3925 0.929 . S
H3938 C3926 0.960 . S
H3939 C3926 0.962 . S
H3940 C3926 0.960 . S
H3941 C3927 0.961 . S
H3942 C3927 0.961 . S
H3943 C3927 0.961 . S
H3944 C3928 0.931 . S
H3945 C3933 0.930 . S
H3946 C3934 0.956 . S
H3947 C3934 0.961 . S
H3948 C3934 0.961 . S
H3949 C3935 0.958 . S
H3950 C3935 0.961 . S
H3951 C3935 0.960 . S
C3952 C3953 1.391 . S
C3952 C3954 1.394 . S
C3952 H3968 0.931 . S
C3953 C3952 1.391 . S
C3953 C3957 1.407 . S
C3954 C3952 1.394 . S
C3954 C3955 1.369 . S
C3954 C3958 1.531 . S
C3955 C3954 1.369 . S
C3955 C3956 1.410 1_554 S
C3955 C3963 1.515 . S
C3956 C3955 1.410 1_556 S
C3956 C3957 1.382 1_556 S
C3956 C3959 1.511 . S
C3957 C3953 1.407 . S
C3957 C3956 1.382 1_554 S
C3957 H3969 0.908 1_554 S
C3958 C3954 1.531 . S
C3958 H3970 0.960 . S
C3958 H3971 0.962 . S
C3958 H3972 0.960 . S
C3959 C3956 1.511 . S
C3959 H3973 0.961 . S
C3959 H3974 0.961 . S
C3959 H3975 0.961 . S
C3960 C3961 1.370 . S
C3960 C3962 1.363 . S
C3960 H3976 0.931 . S
C3961 C3960 1.370 . S
C3961 C3965 1.408 1_556 S
C3962 C3960 1.363 . S
C3962 C3963 1.355 1_556 S
C3962 C3966 1.524 . S
C3963 C3955 1.515 . S
C3963 C3962 1.355 1_554 S
C3963 C3964 1.408 . S
C3964 C3963 1.408 . S
C3964 C3965 1.404 . S
C3964 C3967 1.539 . S
C3965 C3961 1.408 1_554 S
C3965 C3964 1.404 . S
C3965 H3977 0.930 . S
C3966 C3962 1.524 . S
C3966 H3978 0.956 . S
C3966 H3979 0.961 . S
C3966 H3980 0.961 . S
C3967 C3964 1.539 . S
C3967 H3981 0.958 . S
C3967 H3982 0.961 . S
C3967 H3983 0.960 . S
H3968 C3952 0.931 . S
H3969 C3957 0.908 1_556 S
H3970 C3958 0.960 . S
H3971 C3958 0.962 . S
H3972 C3958 0.960 . S
H3973 C3959 0.961 . S
H3974 C3959 0.961 . S
H3975 C3959 0.961 . S
H3976 C3960 0.931 . S
H3977 C3965 0.930 . S
H3978 C3966 0.956 . S
H3979 C3966 0.961 . S
H3980 C3966 0.961 . S
H3981 C3967 0.958 . S
H3982 C3967 0.961 . S
H3983 C3967 0.960 . S
C3984 C3985 1.391 . S
C3984 C3986 1.394 . S
C3984 H4000 0.931 . S
C3985 C3984 1.391 . S
C3985 C3989 1.376 . S
C3986 C3984 1.394 . S
C3986 C3987 1.369 . S
C3986 C3990 1.531 . S
C3987 C3986 1.369 . S
C3987 C3988 1.410 . S
C3987 C3995 1.503 . S
C3988 C3987 1.410 . S
C3988 C3989 1.392 . S
C3988 C3991 1.511 . S
C3989 C3985 1.376 . S
C3989 C3988 1.392 . S
C3989 H4001 0.929 . S
C3990 C3986 1.531 . S
C3990 H4002 0.960 . S
C3990 H4003 0.962 . S
C3990 H4004 0.960 . S
C3991 C3988 1.511 . S
C3991 H4005 0.961 . S
C3991 H4006 0.961 . S
C3991 H4007 0.961 . S
C3992 C3993 1.370 . S
C3992 C3994 1.363 . S
C3992 H4008 0.931 . S
C3993 C3992 1.370 . S
C3993 C3997 1.408 . S
C3994 C3992 1.363 . S
C3994 C3995 1.370 . S
C3994 C3998 1.524 . S
C3995 C3987 1.503 . S
C3995 C3994 1.370 . S
C3995 C3996 1.403 . S
C3996 C3995 1.403 . S
C3996 C3997 1.404 . S
C3996 C3999 1.539 . S
C3997 C3993 1.408 . S
C3997 C3996 1.404 . S
C3997 H4009 0.930 . S
C3998 C3994 1.524 . S
C3998 H4010 0.956 . S
C3998 H4011 0.961 . S
C3998 H4012 0.961 . S
C3999 C3996 1.539 . S
C3999 H4013 0.958 . S
C3999 H4014 0.961 . S
C3999 H4015 0.960 . S
H4000 C3984 0.931 . S
H4001 C3989 0.929 . S
H4002 C3990 0.960 . S
H4003 C3990 0.962 . S
H4004 C3990 0.960 . S
H4005 C3991 0.961 . S
H4006 C3991 0.961 . S
H4007 C3991 0.961 . S
H4008 C3992 0.931 . S
H4009 C3997 0.930 . S
H4010 C3998 0.956 . S
H4011 C3998 0.961 . S
H4012 C3998 0.961 . S
H4013 C3999 0.958 . S
H4014 C3999 0.961 . S
H4015 C3999 0.960 . S
C4016 C4017 1.391 . S
C4016 C4018 1.394 . S
C4016 H4032 0.931 . S
C4017 C4016 1.391 . S
C4017 C4021 1.376 . S
C4018 C4016 1.394 . S
C4018 C4019 1.369 . S
C4018 C4022 1.531 . S
C4019 C4018 1.369 . S
C4019 C4020 1.410 . S
C4019 C4027 1.503 . S
C4020 C4019 1.410 . S
C4020 C4021 1.392 . S
C4020 C4023 1.511 . S
C4021 C4017 1.376 . S
C4021 C4020 1.392 . S
C4021 H4033 0.929 . S
C4022 C4018 1.531 . S
C4022 H4034 0.960 . S
C4022 H4035 0.962 . S
C4022 H4036 0.960 . S
C4023 C4020 1.511 . S
C4023 H4037 0.961 . S
C4023 H4038 0.961 . S
C4023 H4039 0.961 . S
C4024 C4025 1.370 . S
C4024 C4026 1.363 . S
C4024 H4040 0.931 . S
C4025 C4024 1.370 . S
C4025 C4029 1.408 . S
C4026 C4024 1.363 . S
C4026 C4027 1.370 . S
C4026 C4030 1.524 . S
C4027 C4019 1.503 . S
C4027 C4026 1.370 . S
C4027 C4028 1.403 . S
C4028 C4027 1.403 . S
C4028 C4029 1.404 . S
C4028 C4031 1.539 . S
C4029 C4025 1.408 . S
C4029 C4028 1.404 . S
C4029 H4041 0.930 . S
C4030 C4026 1.524 . S
C4030 H4042 0.956 . S
C4030 H4043 0.961 . S
C4030 H4044 0.961 . S
C4031 C4028 1.539 . S
C4031 H4045 0.958 . S
C4031 H4046 0.961 . S
C4031 H4047 0.960 . S
H4032 C4016 0.931 . S
H4033 C4021 0.929 . S
H4034 C4022 0.960 . S
H4035 C4022 0.962 . S
H4036 C4022 0.960 . S
H4037 C4023 0.961 . S
H4038 C4023 0.961 . S
H4039 C4023 0.961 . S
H4040 C4024 0.931 . S
H4041 C4029 0.930 . S
H4042 C4030 0.956 . S
H4043 C4030 0.961 . S
H4044 C4030 0.961 . S
H4045 C4031 0.958 . S
H4046 C4031 0.961 . S
H4047 C4031 0.960 . S
C977 C105 1.094 . S
C985 C344 1.108 . S
C1009 C65 1.469 . S
C1017 C378 1.461 . S
C1041 C73 0.641 . S
C1049 C447 0.628 . S
C1081 C485 0.901 . S
C1073 C92 0.917 . S
C1105 C17 1.489 . S
C1113 C525 1.458 . S
C1145 C544 0.358 . S
C1137 C37 0.343 . S
C1177 C578 1.270 . S
C1169 C49 1.237 . S
C1201 C8 1.725 . S
C1209 C647 1.683 . S
C1241 C353 2.473 . S
C1233 C231 2.456 . S
C1265 C241 1.099 . S
C1273 C405 1.045 . S
C1305 C418 1.403 . S
C1297 C273 1.353 . S
C1337 C487 1.376 . S
C1329 C171 1.355 . S
C1361 C227 1.930 . S
C1369 C527 1.953 . S
C1401 C553 1.876 . S
C1393 C245 1.776 . S
C1433 C605 0.309 . S
C1425 C269 0.304 . S
C1465 C618 2.238 . S
C1457 C175 2.230 . S
C1497 C348 2.466 . S
C1489 C162 2.491 . S
C1521 C289 2.009 . S
C1529 C658 2.015 . S
C1561 C708 2.694 . S
C1553 C330 2.696 . S
C1593 C767 1.584 . S
C1585 C317 1.546 . S
C1617 C120 1.464 . S
C1625 C645 1.472 . S
C1649 C134 1.456 . S
C1657 C445 1.461 . S
C1681 C331 2.451 . S
C1689 C778 2.433 . S
C1721 C847 0.832 . S
C1713 C303 0.831 . S
C1753 C365 1.109 . S
C1745 C59 1.108 . S
C1785 C833 1.492 . S
C1777 C107 1.491 . S
C1809 C91 0.651 . S
C1817 C428 0.703 . S
C1841 C78 0.944 . S
C1849 C784 0.942 . S
C1881 C504 1.460 . S
C1873 C7 1.448 . S
C1905 C51 0.381 . S
C1913 C725 0.374 . S
C1945 C593 1.329 1_556 S
C1937 C31 1.344 . S
C1977 C868 1.698 . S
C1969 C22 1.706 . S
C2009 C338 2.487 . S
C2001 C143 2.520 . S
C2041 C824 1.046 . S
C2033 C315 1.066 . S
C2065 C115 1.439 . S
C2073 C433 1.440 . S
C2097 C287 1.422 . S
C2105 C788 1.428 . S
C2129 C147 1.889 . S
C2137 C508 1.992 . S
C2169 C698 1.885 . S
C2161 C311 1.919 . S
C2193 C119 0.307 1_545 S
C2201 C584 0.357 1_565 S
C2225 C283 2.252 . S
C2233 C873 2.261 . S
C2257 C190 2.521 . S
C2265 C367 2.503 1_655 S
C2289 C177 2.047 . S
C2297 C673 2.050 . S
C2321 C260 2.739 . S
C2329 C567 2.729 . S
C2353 C247 1.590 . S
C2361 C748 1.653 . S
C2393 C864 1.461 . S
C2385 C274 1.415 . S
C2417 C218 1.454 . S
C2425 C424 1.444 . S
C2457 C473 2.483 . S
C2449 C261 2.501 . S
C2489 C388 0.865 . S
C2481 C205 0.875 . S
C2513 C77 1.070 . S
C2521 C904 1.114 . S
C2553 C818 1.461 . S
C2545 C93 1.468 . S
C2577 C101 0.628 . S
C2585 C967 0.658 . S
C2609 C64 0.912 . S
C2617 C805 0.894 . S
C2641 C45 1.498 . S
C2649 C685 1.452 . S
C2681 C704 0.352 . S
C2673 C9 0.337 . S
C2713 C738 1.269 . S
C2705 C21 1.224 . S
C2745 C887 1.687 . S
C2737 C36 1.723 . S
C2777 C913 2.478 . S
C2769 C259 2.443 . S
C2801 C185 1.088 . S
C2809 C845 1.040 . S
C2841 C938 1.404 . S
C2833 C203 1.357 . S
C2873 C807 1.376 . S
C2865 C213 1.366 . S
C2905 C687 1.948 . S
C2897 C255 1.952 . S
C2929 C189 1.781 . S
C2937 C713 1.878 . S
C2969 C765 0.340 . S
C2961 C199 0.267 . S
C2993 C217 2.240 . S
C3001 C858 2.241 . S
C3033 C908 2.469 . S
C3025 C316 2.493 . S
C3057 C135 2.002 . S
C3065 C498 2.017 . S
C3097 C548 2.694 . S
C3089 C148 2.695 . S
C3129 C607 1.587 . S
C3121 C163 1.532 . S
C3161 C885 1.452 . S
C3153 C302 1.502 . S
C3185 C288 1.446 . S
C3193 C965 1.461 . S
C3225 C458 2.434 . S
C3217 C149 2.446 . S
C3257 C407 0.849 . S
C3249 C121 0.843 . S
C3281 C87 1.114 . S
C3289 C925 1.111 . S
C3321 C393 1.483 . S
C3313 C79 1.487 . S
C3345 C63 0.655 . S
C3353 C948 0.684 . S
C3377 C106 0.942 . S
C3385 C464 0.937 . S
C3409 C35 1.440 . S
C3417 C664 1.463 . S
C3449 C565 0.374 . S
C3441 C23 0.365 . S
C3473 C3 1.328 . S
C3481 C753 1.333 . S
C3505 C50 1.709 . S
C3513 C628 1.685 . S
C3545 C898 2.477 . S
C3537 C325 2.518 . S
C3569 C161 1.021 . S
C3577 C384 1.062 . S
C3609 C953 1.431 . S
C3601 C297 1.442 . S
C3633 C133 1.399 . S
C3641 C468 1.426 . S
C3665 C329 1.910 . S
C3673 C668 1.990 . S
C3705 C538 1.879 . S
C3697 C157 1.925 . S
C3729 C301 0.389 . S
C3737 C744 0.338 . S
C3769 C633 2.261 . S
C3761 C129 2.252 . S
C3801 C927 2.507 . S
C3793 C246 2.516 . S
C3833 C513 2.051 1_665 S
C3825 C219 2.030 . S
C3857 C232 2.744 . S
C3865 C727 2.733 . S
C3897 C588 1.650 . S
C3889 C191 1.601 . S
C3921 C204 1.467 . S
C3929 C624 1.441 . S
C3953 C176 1.444 . S
C3961 C944 1.447 . S
C3993 C793 2.486 . S
C3985 C233 2.489 1_565 S
C4025 C828 0.866 . S
C4017 C275 0.874 . S
