# Generated by pormake.
# Topology ssa, (4,4)-cn, num edge types: 1
# Building blocks:
#     Node 0, Type 0, BuildingBlock: ESEHIV_clean_sbu_0, # of connection points: 4
#     Node 1, Type 0, BuildingBlock: ESEHIV_clean_sbu_0, # of connection points: 4
#     Node 2, Type 0, BuildingBlock: ESEHIV_clean_sbu_0, # of connection points: 4
#     Node 3, Type 0, BuildingBlock: ESEHIV_clean_sbu_0, # of connection points: 4
#     Node 4, Type 0, BuildingBlock: ESEHIV_clean_sbu_0, # of connection points: 4
#     Node 5, Type 0, BuildingBlock: ESEHIV_clean_sbu_0, # of connection points: 4
#     Node 6, Type 1, BuildingBlock: KOZSID_clean_sbu_0, # of connection points: 4
#     Node 7, Type 1, BuildingBlock: KOZSID_clean_sbu_0, # of connection points: 4
#     Node 8, Type 1, BuildingBlock: KOZSID_clean_sbu_0, # of connection points: 4
#     Node 9, Type 1, BuildingBlock: KOZSID_clean_sbu_0, # of connection points: 4
#     Node 10, Type 1, BuildingBlock: KOZSID_clean_sbu_0, # of connection points: 4
#     Node 11, Type 1, BuildingBlock: KOZSID_clean_sbu_0, # of connection points: 4
#     Edge 12, Type (0, 1), BuildingBlock: MIFKUJ_clean_linker_0, # of connection points: 2
#     Edge 13, Type (0, 1), BuildingBlock: MIFKUJ_clean_linker_0, # of connection points: 2
#     Edge 14, Type (0, 1), BuildingBlock: MIFKUJ_clean_linker_0, # of connection points: 2
#     Edge 15, Type (0, 1), BuildingBlock: MIFKUJ_clean_linker_0, # of connection points: 2
#     Edge 16, Type (0, 1), BuildingBlock: MIFKUJ_clean_linker_0, # of connection points: 2
#     Edge 17, Type (0, 1), BuildingBlock: MIFKUJ_clean_linker_0, # of connection points: 2
#     Edge 18, Type (0, 1), BuildingBlock: MIFKUJ_clean_linker_0, # of connection points: 2
#     Edge 19, Type (0, 1), BuildingBlock: MIFKUJ_clean_linker_0, # of connection points: 2
#     Edge 20, Type (0, 1), BuildingBlock: MIFKUJ_clean_linker_0, # of connection points: 2
#     Edge 21, Type (0, 1), BuildingBlock: MIFKUJ_clean_linker_0, # of connection points: 2
#     Edge 22, Type (0, 1), BuildingBlock: MIFKUJ_clean_linker_0, # of connection points: 2
#     Edge 23, Type (0, 1), BuildingBlock: MIFKUJ_clean_linker_0, # of connection points: 2
#     Edge 24, Type (0, 1), BuildingBlock: MIFKUJ_clean_linker_0, # of connection points: 2
#     Edge 25, Type (0, 1), BuildingBlock: MIFKUJ_clean_linker_0, # of connection points: 2
#     Edge 26, Type (0, 1), BuildingBlock: MIFKUJ_clean_linker_0, # of connection points: 2
#     Edge 27, Type (0, 1), BuildingBlock: MIFKUJ_clean_linker_0, # of connection points: 2
#     Edge 28, Type (0, 1), BuildingBlock: MIFKUJ_clean_linker_0, # of connection points: 2
#     Edge 29, Type (0, 1), BuildingBlock: MIFKUJ_clean_linker_0, # of connection points: 2
#     Edge 30, Type (0, 1), BuildingBlock: MIFKUJ_clean_linker_0, # of connection points: 2
#     Edge 31, Type (0, 1), BuildingBlock: MIFKUJ_clean_linker_0, # of connection points: 2
#     Edge 32, Type (0, 1), BuildingBlock: MIFKUJ_clean_linker_0, # of connection points: 2
#     Edge 33, Type (0, 1), BuildingBlock: MIFKUJ_clean_linker_0, # of connection points: 2
#     Edge 34, Type (0, 1), BuildingBlock: MIFKUJ_clean_linker_0, # of connection points: 2
#     Edge 35, Type (0, 1), BuildingBlock: MIFKUJ_clean_linker_0, # of connection points: 2
# Relax obj value: 0.013
# Max RMSD: 0.106
# Mean RMSD: 0.057
data_MOF--net-ssa--node1-ESEHIV_clean_sbu_0--node2-KOZSID_clean_sbu_0--edge1-MIFKUJ_clean_linker_0
_symmetry_space_group_name_H-M    P1
_symmetry_Int_Tables_number       1
_symmetry_cell_setting            triclinic
loop_
_symmetry_equiv_pos_as_xyz
'x, y, z'
_cell_length_a     68.227081
_cell_length_b     71.740739
_cell_length_c     49.489508
_cell_angle_alpha  91.293342
_cell_angle_beta   93.255467
_cell_angle_gamma 121.82749
loop_
_atom_site_label
_atom_site_type_symbol
_atom_site_fract_x
_atom_site_fract_y
_atom_site_fract_z
_atom_type_partial_charge
Cu0 Cu 0.99542 0.50405 0.01139 0.0
N1 N 0.96889 0.477 0.01641 0.0
N2 N 0.9346 0.4461 0.00608 0.0
C3 C 0.9486 0.46749 1.00124 0.0
C4 C 0.94633 0.44224 0.02579 0.0
C5 C 0.96748 0.46134 0.03208 0.0
O6 O 0.98852 0.51478 0.97805 0.0
C7 C 0.04295 0.51347 0.01521 0.0
O8 O 0.04975 0.53314 0.00713 0.0
H9 H 0.94466 0.47578 0.98591 0.0
H10 H 0.9815 0.46325 0.04567 0.0
N11 N 1.00032 0.52358 0.04016 0.0
N12 N 0.01893 0.55307 0.06929 0.0
C13 C 0.01859 0.54427 0.04475 0.0
C14 C 0.98845 0.51919 0.06236 0.0
C15 C 0.99992 0.53735 0.08042 0.0
C16 C 0.97981 0.50341 0.95555 0.0
O17 O 0.97995 0.48528 0.95196 0.0
H18 H 0.03206 0.55226 0.03103 0.0
H19 H 0.97312 0.50354 0.06566 0.0
O20 O 0.02132 0.4992 0.01505 0.0
H21 H 0.94087 0.42636 0.03352 0.0
H22 H 0.99503 0.53863 0.10048 0.0
Cu23 Cu 0.51504 0.00872 0.51578 0.0
N24 N 0.5324 0.0068 0.48892 0.0
N25 N 0.54346 0.99093 0.45888 0.0
C26 C 0.52685 0.98803 0.47501 0.0
C27 C 0.56013 0.01246 0.46279 0.0
C28 C 0.55323 0.02222 0.48127 0.0
O29 O 0.48369 0.98399 0.50747 0.0
C30 C 0.5453 0.00633 0.55581 0.0
O31 O 0.5515 0.99857 0.53596 0.0
H32 H 0.51133 0.97231 0.47763 0.0
H33 H 0.56301 0.03917 0.48918 0.0
N34 N 0.51564 0.03522 0.51663 0.0
N35 N 0.5145 0.06386 0.53382 0.0
C36 C 0.51226 0.04435 0.53863 0.0
C37 C 0.52037 0.04949 0.49719 0.0
C38 C 0.51958 0.06709 0.50767 0.0
C39 C 0.47425 0.98396 0.48453 0.0
O40 O 0.48523 1.0013 0.47022 0.0
H41 H 0.50818 0.03673 0.55782 0.0
H42 H 0.52439 0.04737 0.47695 0.0
O43 O 0.52817 0.00864 0.55151 0.0
H44 H 0.57627 0.02056 0.45321 0.0
H45 H 0.52302 0.08139 0.49699 0.0
Cu46 Cu 0.52913 0.51367 0.02477 0.0
N47 N 0.53018 0.48801 0.02456 0.0
N48 N 0.52809 0.45802 0.006 0.0
C49 C 0.51986 0.47158 0.00491 0.0
C50 C 0.54421 0.46639 0.02733 0.0
C51 C 0.54561 0.48487 0.03847 0.0
O52 O 0.5469 0.52897 0.99487 0.0
C53 C 0.48432 0.49465 0.03783 0.0
O54 O 0.49239 0.48676 0.05601 0.0
H55 H 0.50757 0.4705 0.98918 0.0
H56 H 0.55847 0.49624 0.05401 0.0
N57 N 0.5413 0.53122 0.05751 0.0
N58 N 0.54803 0.55723 0.08929 0.0
C59 C 0.54255 0.55042 0.06269 0.0
C60 C 0.5461 0.5257 0.0817 0.0
C61 C 0.5504 0.54171 0.10121 0.0
C62 C 0.56874 0.53799 0.99824 0.0
O63 O 0.57827 0.54003 0.02283 0.0
H64 H 0.53801 0.55843 0.04751 0.0
H65 H 0.54512 0.51046 0.08534 0.0
O66 O 0.49742 0.50625 0.0199 0.0
H67 H 0.55556 0.46066 0.03331 0.0
H68 H 0.55421 0.54149 0.12268 0.0
Cu69 Cu 0.99723 0.48928 0.493 0.0
N70 N 0.99975 0.47127 0.46732 0.0
N71 N 0.01485 0.46073 0.43598 0.0
C72 C 0.01754 0.47758 0.45181 0.0
C73 C 0.99438 0.44308 0.44146 0.0
C74 C 0.98496 0.44971 0.46061 0.0
O75 O 0.02367 0.51966 0.49052 0.0
C76 C 0.98952 0.45844 0.53434 0.0
O77 O 0.99937 0.45131 0.51861 0.0
H78 H 0.03248 0.49411 0.45252 0.0
H79 H 0.96872 0.43946 0.46944 0.0
N80 N 0.97121 0.49024 0.48268 0.0
N81 N 0.94173 0.49484 0.4879 0.0
C82 C 0.96172 0.49786 0.49921 0.0
C83 C 0.95683 0.4821 0.45994 0.0
C84 C 0.93848 0.48485 0.46316 0.0
C85 C 0.04519 0.52639 0.4925 0.0
O86 O 0.05169 0.51326 0.50162 0.0
H87 H 0.96879 0.50442 0.51976 0.0
H88 H 0.95911 0.4741 0.44269 0.0
O89 O 0.98997 0.47595 0.52863 0.0
H90 H 0.98682 0.42661 0.43237 0.0
H91 H 0.92373 0.47952 0.4487 0.0
Cu92 Cu 0.51188 0.0111 0.02969 0.0
N93 N 0.5072 0.03408 0.03624 0.0
N94 N 0.50716 0.06446 0.02771 0.0
C95 C 0.5098 0.04839 0.01764 0.0
C96 C 0.50244 0.05998 0.05374 0.0
C97 C 0.50266 0.04123 0.05903 0.0
O98 O 0.52719 0.01767 0.99518 0.0
C99 C 0.46429 0.97914 0.04021 0.0
O100 O 0.46099 0.99558 0.03943 0.0
H101 H 0.51366 0.04706 0.99704 0.0
H102 H 0.50011 0.03359 0.07817 0.0
N103 N 0.53196 0.01161 0.05711 0.0
N104 N 0.54672 0.99731 0.08508 0.0
C105 C 0.53347 0.99409 0.06207 0.0
C106 C 0.54481 0.02667 0.07757 0.0
C107 C 0.5541 0.01791 0.09483 0.0
C108 C 0.54849 0.03339 0.99661 0.0
O109 O 0.55896 0.04245 0.02062 0.0
H110 H 0.52435 0.979 0.04934 0.0
H111 H 0.54655 0.04249 0.08028 0.0
O112 O 0.48342 0.98202 0.03318 0.0
H113 H 0.4997 0.06985 0.06807 0.0
H114 H 0.56447 0.02566 0.11374 0.0
Cu115 Cu 0.49316 0.50766 0.52023 0.0
N116 N 0.49722 0.5337 0.5351 0.0
N117 N 0.50583 0.56831 0.53552 0.0
C118 C 0.50803 0.55275 0.52291 0.0
C119 C 0.49317 0.55869 0.55665 0.0
C120 C 0.48798 0.53728 0.55644 0.0
O121 O 0.4771 0.50306 0.48349 0.0
C122 C 0.53333 0.51688 0.54908 0.0
O123 O 0.52215 0.52059 0.56708 0.0
H124 H 0.51587 0.5546 0.50394 0.0
H125 H 0.47724 0.52491 0.56997 0.0
N126 N 0.47429 0.48394 0.54071 0.0
N127 N 0.46415 0.45486 0.56515 0.0
C128 C 0.48059 0.47049 0.55092 0.0
C129 C 0.45291 0.47643 0.54865 0.0
C130 C 0.44654 0.45834 0.56367 0.0
C131 C 0.45981 0.50558 0.48314 0.0
O132 O 0.4545 0.51028 0.50634 0.0
H133 H 0.49693 0.472 0.54779 0.0
H134 H 0.44272 0.48364 0.54419 0.0
O135 O 0.524 0.51099 0.52469 0.0
H136 H 0.48734 0.56629 0.57054 0.0
H137 H 0.43051 0.44881 0.57322 0.0
C138 C 0.23425 0.51527 0.19231 0.0
C139 C 0.23708 0.53571 0.18891 0.0
C140 C 0.25651 0.5507 0.20457 0.0
C141 C 0.26435 0.53868 0.21689 0.0
N142 N 0.25118 0.51687 0.21001 0.0
Co143 Co 0.25558 0.49347 0.22535 0.0
N144 N 0.28357 0.51559 0.24952 0.0
C145 C 0.2931 0.53761 0.25122 0.0
C146 C 0.31263 0.5488 0.26867 0.0
C147 C 0.31593 0.53303 0.27871 0.0
C148 C 0.29804 0.51299 0.26688 0.0
N149 N 0.25992 0.47006 0.24084 0.0
C150 C 0.27647 0.47164 0.25919 0.0
C151 C 0.27276 0.45111 0.26423 0.0
C152 C 0.25348 0.43608 0.24831 0.0
C153 C 0.2464 0.44817 0.23458 0.0
N154 N 0.22767 0.47135 0.20107 0.0
C155 C 0.21853 0.44938 0.19883 0.0
C156 C 0.19967 0.43834 0.18037 0.0
C157 C 0.19637 0.45412 0.17035 0.0
C158 C 0.21334 0.474 0.1835 0.0
N159 N 0.27595 0.49679 0.19628 0.0
C160 C 0.30554 0.50101 0.15617 0.0
C161 C 0.28748 0.48039 0.16244 0.0
C162 C 0.27313 0.47867 0.18243 0.0
C163 C 0.30839 0.51956 0.17004 0.0
C164 C 0.29337 0.5171 0.18971 0.0
N165 N 0.23504 0.49008 0.25423 0.0
C166 C 0.20008 0.46712 0.27645 0.0
C167 C 0.20211 0.48546 0.28991 0.0
C168 C 0.22167 0.50608 0.28629 0.0
C169 C 0.23778 0.50799 0.26854 0.0
C170 C 0.2167 0.46976 0.25914 0.0
H171 H 0.25207 0.52417 0.26635 0.0
H172 H 0.21395 0.45512 0.24944 0.0
H173 H 0.26007 0.46246 0.18651 0.0
H174 H 0.29629 0.53185 0.19942 0.0
C175 C 0.28348 0.54733 0.23583 0.0
C176 C 0.21489 0.49484 0.17877 0.0
C177 C 0.29597 0.49208 0.27241 0.0
C178 C 0.22768 0.43954 0.21495 0.0
H179 H 0.22606 0.53948 0.17678 0.0
H180 H 0.26378 0.56823 0.20714 0.0
H181 H 0.32336 0.56637 0.27329 0.0
H182 H 0.33009 0.53602 0.29291 0.0
H183 H 0.28302 0.44738 0.27791 0.0
H184 H 0.24568 0.41843 0.24672 0.0
H185 H 0.18941 0.42085 0.17502 0.0
H186 H 0.18286 0.45125 0.15516 0.0
H187 H 0.28481 0.46552 0.15249 0.0
H188 H 0.32211 0.53591 0.16569 0.0
H189 H 0.1853 0.45075 0.27838 0.0
H190 H 0.22448 0.52078 0.29686 0.0
C191 C 0.72246 0.2134 0.70488 0.0
C192 C 0.70465 0.21297 0.6893 0.0
C193 C 0.70382 0.2306 0.69849 0.0
C194 C 0.72105 0.24067 0.7191 0.0
N195 N 0.73322 0.23087 0.7232 0.0
Co196 Co 0.75852 0.23885 0.75231 0.0
N197 N 0.75434 0.26207 0.7692 0.0
C198 C 0.7393 0.26789 0.76028 0.0
C199 C 0.74022 0.28424 0.77622 0.0
C200 C 0.75693 0.28926 0.79652 0.0
C201 C 0.76534 0.27568 0.79165 0.0
N202 N 0.78367 0.24663 0.78155 0.0
C203 C 0.79192 0.26172 0.80284 0.0
C204 C 0.80983 0.26209 0.81817 0.0
C205 C 0.81295 0.24663 0.80619 0.0
C206 C 0.79691 0.23778 0.78429 0.0
N207 N 0.76253 0.21553 0.73541 0.0
C208 C 0.77866 0.21071 0.74287 0.0
C209 C 0.77601 0.19286 0.72843 0.0
C210 C 0.75672 0.18555 0.71112 0.0
C211 C 0.74876 0.19943 0.7161 0.0
N212 N 0.78211 0.26138 0.72911 0.0
C213 C 0.81645 0.29455 0.69825 0.0
C214 C 0.82013 0.27946 0.71145 0.0
C215 C 0.80301 0.26326 0.72649 0.0
C216 C 0.795 0.29244 0.70064 0.0
C217 C 0.77833 0.27597 0.7159 0.0
N218 N 0.73518 0.21655 0.77541 0.0
C219 C 0.72287 0.18581 0.80405 0.0
C220 C 0.70186 0.18429 0.80775 0.0
C221 C 0.69794 0.19933 0.79468 0.0
C222 C 0.7146 0.21511 0.77876 0.0
C223 C 0.73909 0.20188 0.7881 0.0
H224 H 0.71052 0.22603 0.76933 0.0
H225 H 0.75469 0.20207 0.78619 0.0
H226 H 0.80729 0.2526 0.73599 0.0
H227 H 0.76254 0.27551 0.71672 0.0
C228 C 0.72436 0.25758 0.73698 0.0
C229 C 0.72728 0.19594 0.70324 0.0
C230 C 0.78388 0.2765 0.80884 0.0
C231 C 0.79401 0.22132 0.76582 0.0
H232 H 0.69287 0.20071 0.67367 0.0
H233 H 0.69134 0.23485 0.69194 0.0
H234 H 0.72995 0.29159 0.77345 0.0
H235 H 0.76233 0.30155 0.81303 0.0
H236 H 0.81981 0.27259 0.83601 0.0
H237 H 0.82554 0.24245 0.81257 0.0
H238 H 0.78613 0.18534 0.73119 0.0
H239 H 0.74887 0.17118 0.69713 0.0
H240 H 0.83642 0.28032 0.71072 0.0
H241 H 0.79087 0.30332 0.69055 0.0
H242 H 0.72683 0.17447 0.81314 0.0
H243 H 0.6822 0.19923 0.79698 0.0
C244 C 0.52586 0.73309 0.23713 0.0
C245 C 0.50474 0.71677 0.22443 0.0
C246 C 0.48844 0.72054 0.23312 0.0
C247 C 0.50047 0.73893 0.25046 0.0
N248 N 0.52353 0.74726 0.25331 0.0
Co249 Co 0.54737 0.77394 0.2766 0.0
N250 N 0.52318 0.77889 0.29026 0.0
C251 C 0.50001 0.76599 0.28447 0.0
C252 C 0.48777 0.77361 0.29659 0.0
C253 C 0.50409 0.79267 0.31072 0.0
C254 C 0.52545 0.79566 0.30626 0.0
N255 N 0.57123 0.80094 0.29944 0.0
C256 C 0.56902 0.81588 0.31416 0.0
C257 C 0.59031 0.833 0.32547 0.0
C258 C 0.60654 0.82885 0.31756 0.0
C259 C 0.59435 0.80957 0.3018 0.0
N260 N 0.5715 0.76877 0.26325 0.0
C261 C 0.59452 0.78086 0.27046 0.0
C262 C 0.60671 0.77301 0.25878 0.0
C263 C 0.59053 0.75467 0.24333 0.0
C264 C 0.5693 0.75242 0.24641 0.0
N265 N 0.55114 0.79281 0.24622 0.0
C266 C 0.55684 0.8248 0.2102 0.0
C267 C 0.57592 0.82448 0.2214 0.0
C268 C 0.57269 0.80838 0.23911 0.0
C269 C 0.53477 0.80782 0.21577 0.0
C270 C 0.53235 0.79201 0.23347 0.0
N271 N 0.54361 0.7552 0.30728 0.0
C272 C 0.56017 0.7457 0.34499 0.0
C273 C 0.53831 0.72842 0.35061 0.0
C274 C 0.51915 0.72484 0.33421 0.0
C275 C 0.52216 0.7383 0.31289 0.0
C276 C 0.5624 0.75874 0.32343 0.0
H277 H 0.50684 0.73458 0.30119 0.0
H278 H 0.57953 0.77154 0.32027 0.0
H279 H 0.58792 0.8093 0.24743 0.0
H280 H 0.51511 0.77979 0.23732 0.0
C281 C 0.49046 0.74798 0.26562 0.0
C282 C 0.54751 0.73414 0.23348 0.0
C283 C 0.54736 0.81505 0.317 0.0
C284 C 0.60417 0.7996 0.28813 0.0
H285 H 0.50143 0.70335 0.21057 0.0
H286 H 0.46996 0.71079 0.22783 0.0
H287 H 0.46925 0.76653 0.29466 0.0
H288 H 0.50068 0.80341 0.32253 0.0
H289 H 0.59385 0.84729 0.33771 0.0
H290 H 0.6251 0.83896 0.32219 0.0
H291 H 0.62516 0.77973 0.26135 0.0
H292 H 0.59396 0.74403 0.23137 0.0
H293 H 0.59334 0.8369 0.21705 0.0
H294 H 0.51938 0.80724 0.20761 0.0
H295 H 0.57556 0.74935 0.35732 0.0
H296 H 0.50186 0.71147 0.33746 0.0
C297 C 0.73912 0.53512 0.71321 0.0
C298 C 0.74427 0.55567 0.70571 0.0
C299 C 0.76449 0.5708 0.72005 0.0
C300 C 0.77067 0.55874 0.73534 0.0
N301 N 0.75571 0.53676 0.73153 0.0
Co302 Co 0.75846 0.51341 0.74985 0.0
N303 N 0.78862 0.53577 0.77054 0.0
C304 C 0.79981 0.55787 0.76933 0.0
C305 C 0.82072 0.56906 0.78433 0.0
C306 C 0.82325 0.55321 0.79564 0.0
C307 C 0.80354 0.53312 0.78706 0.0
N308 N 0.76114 0.49009 0.76839 0.0
C309 C 0.77838 0.49166 0.78548 0.0
C310 C 0.77298 0.47119 0.79361 0.0
C311 C 0.75191 0.45614 0.78083 0.0
C312 C 0.74553 0.46819 0.76581 0.0
N313 N 0.72855 0.491 0.72882 0.0
C314 C 0.71732 0.46892 0.73017 0.0
C315 C 0.69699 0.45764 0.71405 0.0
C316 C 0.69505 0.47341 0.70158 0.0
C317 C 0.71447 0.49355 0.71071 0.0
N318 N 0.77586 0.51191 0.72 0.0
C319 C 0.80067 0.50989 0.67763 0.0
C320 C 0.78286 0.49071 0.68764 0.0
C321 C 0.77084 0.49208 0.70875 0.0
C322 C 0.80577 0.53007 0.68909 0.0
C323 C 0.79322 0.5307 0.71 0.0
N324 N 0.74081 0.51496 0.7796 0.0
C325 C 0.70683 0.49761 0.80502 0.0
C326 C 0.71222 0.51796 0.81621 0.0
C327 C 0.73279 0.53666 0.80993 0.0
C328 C 0.7467 0.5348 0.79178 0.0
C329 C 0.72139 0.49647 0.78718 0.0
H330 H 0.76183 0.54974 0.78746 0.0
H331 H 0.71628 0.48047 0.77944 0.0
H332 H 0.75763 0.47691 0.71572 0.0
H333 H 0.79789 0.54658 0.71772 0.0
C334 C 0.7907 0.56755 0.7529 0.0
C335 C 0.7183 0.51459 0.7022 0.0
C336 C 0.80025 0.512 0.79439 0.0
C337 C 0.72581 0.45932 0.74772 0.0
H338 H 0.73449 0.5594 0.69126 0.0
H339 H 0.77369 0.58849 0.71928 0.0
H340 H 0.83297 0.58664 0.78624 0.0
H341 H 0.83819 0.55618 0.80831 0.0
H342 H 0.78333 0.46747 0.80714 0.0
H343 H 0.74258 0.43846 0.7819 0.0
H344 H 0.68482 0.44005 0.71199 0.0
H345 H 0.6807 0.47037 0.68767 0.0
H346 H 0.77848 0.47469 0.67957 0.0
H347 H 0.81926 0.54538 0.68178 0.0
H348 H 0.69135 0.48259 0.80986 0.0
H349 H 0.73776 0.55281 0.81819 0.0
C350 C 0.27949 0.79646 0.31587 0.0
C351 C 0.27547 0.81068 0.33056 0.0
C352 C 0.25346 0.80523 0.32244 0.0
C353 C 0.24531 0.78803 0.3034 0.0
N354 N 0.26081 0.78234 0.299 0.0
Co355 Co 0.25608 0.75823 0.27366 0.0
N356 N 0.22931 0.757 0.2535 0.0
C357 C 0.21759 0.76603 0.26224 0.0
C358 C 0.19966 0.76229 0.24429 0.0
C359 C 0.19977 0.7498 0.22309 0.0
C360 C 0.21783 0.74654 0.22937 0.0
N361 N 0.25123 0.7339 0.24848 0.0
C362 C 0.23768 0.72517 0.22495 0.0
C363 C 0.23917 0.70797 0.21409 0.0
C364 C 0.2537 0.70553 0.23179 0.0
C365 C 0.26035 0.72136 0.25232 0.0
N366 N 0.28288 0.75962 0.29393 0.0
C367 C 0.28827 0.7441 0.29317 0.0
C368 C 0.30809 0.74994 0.30902 0.0
C369 C 0.31559 0.7704 0.32054 0.0
C370 C 0.29978 0.77582 0.31111 0.0
N371 N 0.2349 0.73636 0.29825 0.0
C372 C 0.20477 0.7045 0.33292 0.0
C373 C 0.22612 0.72286 0.34314 0.0
C374 C 0.24077 0.7386 0.32559 0.0
C375 C 0.19894 0.70259 0.30493 0.0
C376 C 0.21416 0.7185 0.28809 0.0
N377 N 0.27726 0.78002 0.24909 0.0
C378 C 0.30923 0.79305 0.22069 0.0
C379 C 0.30776 0.81123 0.21392 0.0
C380 C 0.29054 0.81329 0.22538 0.0
C381 C 0.27558 0.79764 0.24277 0.0
C382 C 0.29396 0.77778 0.23816 0.0
H383 H 0.26268 0.79987 0.25119 0.0
H384 H 0.2957 0.7641 0.24278 0.0
H385 H 0.2569 0.75259 0.33423 0.0
H386 H 0.20907 0.71619 0.26675 0.0
C387 C 0.22526 0.7796 0.28604 0.0
C388 C 0.30061 0.79592 0.31966 0.0
C389 C 0.22088 0.73056 0.21417 0.0
C390 C 0.27689 0.7264 0.27385 0.0
H391 H 0.28719 0.82358 0.3456 0.0
H392 H 0.24483 0.81344 0.32884 0.0
H393 H 0.18797 0.76805 0.24629 0.0
H394 H 0.18739 0.74314 0.20551 0.0
H395 H 0.23012 0.69783 0.1957 0.0
H396 H 0.25898 0.69377 0.22975 0.0
H397 H 0.31666 0.74088 0.31099 0.0
H398 H 0.33096 0.78021 0.33418 0.0
H399 H 0.23137 0.72525 0.36463 0.0
H400 H 0.18284 0.68864 0.29589 0.0
H401 H 0.32189 0.79036 0.21225 0.0
H402 H 0.28874 0.82711 0.22129 0.0
C403 C 0.48275 0.27176 0.80571 0.0
C404 C 0.4621 0.26724 0.81553 0.0
C405 C 0.44505 0.24769 0.803 0.0
C406 C 0.45617 0.24132 0.78643 0.0
N407 N 0.47936 0.25557 0.78764 0.0
Co408 Co 0.50211 0.2524 0.76697 0.0
N409 N 0.47686 0.22393 0.74786 0.0
C410 C 0.45389 0.21377 0.75069 0.0
C411 C 0.44077 0.19444 0.73519 0.0
C412 C 0.45624 0.19201 0.72166 0.0
C413 C 0.47802 0.21009 0.7297 0.0
N414 N 0.52487 0.24913 0.74651 0.0
C415 C 0.52156 0.23281 0.72874 0.0
C416 C 0.54227 0.2371 0.71936 0.0
C417 C 0.5593 0.25664 0.73184 0.0
C418 C 0.54809 0.2632 0.74799 0.0
N419 N 0.52734 0.28094 0.78583 0.0
C420 C 0.55023 0.29138 0.78238 0.0
C421 C 0.56335 0.31102 0.79721 0.0
C422 C 0.54797 0.3134 0.81096 0.0
C423 C 0.52623 0.29489 0.80383 0.0
N424 N 0.50559 0.23601 0.79674 0.0
C425 C 0.51014 0.21363 0.84038 0.0
C426 C 0.52965 0.23024 0.82899 0.0
C427 C 0.52701 0.24118 0.80737 0.0
C428 C 0.48838 0.20817 0.82924 0.0
C429 C 0.48653 0.21938 0.8076 0.0
N430 N 0.49852 0.26891 0.73741 0.0
C431 C 0.51519 0.29878 0.7074 0.0
C432 C 0.49348 0.29568 0.7003 0.0
C433 C 0.47426 0.27822 0.71109 0.0
C434 C 0.47714 0.26506 0.72915 0.0
C435 C 0.51731 0.28531 0.72582 0.0
H436 H 0.46177 0.25223 0.73668 0.0
H437 H 0.53433 0.28874 0.73072 0.0
H438 H 0.5425 0.25383 0.7997 0.0
H439 H 0.46943 0.21426 0.80008 0.0
C440 C 0.44526 0.22238 0.7689 0.0
C441 C 0.50507 0.29165 0.81428 0.0
C442 C 0.49928 0.21301 0.72006 0.0
C443 C 0.55887 0.28245 0.76479 0.0
H444 H 0.45959 0.27707 0.83018 0.0
H445 H 0.4267 0.23922 0.80554 0.0
H446 H 0.42219 0.18327 0.73416 0.0
H447 H 0.45201 0.17833 0.70771 0.0
H448 H 0.54482 0.22711 0.70499 0.0
H449 H 0.57768 0.26506 0.72947 0.0
H450 H 0.58188 0.32239 0.79774 0.0
H451 H 0.5523 0.32734 0.82447 0.0
H452 H 0.54691 0.23506 0.83699 0.0
H453 H 0.47273 0.19507 0.83698 0.0
H454 H 0.5306 0.3117 0.69906 0.0
H455 H 0.45703 0.27507 0.70649 0.0
H456 H 0.09019 0.53679 0.01293 0.0
H457 H 0.11868 0.53183 0.03886 0.0
H458 H 0.0636 0.47608 0.07507 0.0
H459 H 0.035 0.48065 0.04888 0.0
H460 H 0.09985 0.50764 0.11325 0.0
H461 H 0.09088 0.46674 0.02999 0.0
H462 H 0.09051 0.4615 0.98051 0.0
H463 H 0.16165 0.5143 0.98296 0.0
H464 H 0.16234 0.52006 0.03243 0.0
H465 H 0.1684 0.4745 0.18467 0.0
H466 H 0.13879 0.47546 0.15539 0.0
H467 H 0.19103 0.51817 0.10324 0.0
H468 H 0.22025 0.51582 0.13153 0.0
H469 H 0.15551 0.49289 0.07264 0.0
H470 H 0.16581 0.53583 0.15354 0.0
H471 H 0.16778 0.54383 0.20268 0.0
H472 H 0.09675 0.4917 0.20475 0.0
H473 H 0.09445 0.48319 0.15566 0.0
C474 C 0.08408 0.52326 0.0261 0.0
C475 C 0.06021 0.50907 0.02862 0.0
C476 C 0.10043 0.52046 0.04096 0.0
C477 C 0.09336 0.50358 0.05902 0.0
C478 C 0.06954 0.48923 0.06134 0.0
C479 C 0.05317 0.49179 0.04615 0.0
C480 C 0.11078 0.50132 0.07606 0.0
C481 C 0.11182 0.50411 0.10441 0.0
C482 C 0.12696 0.49746 0.0646 0.0
C483 C 0.12659 0.49397 0.03488 0.0
C484 C 0.10638 0.47736 0.01995 0.0
C485 C 0.10613 0.47427 0.99191 0.0
C486 C 0.12603 0.48759 0.97859 0.0
C487 C 0.14624 0.50401 0.9933 0.0
C488 C 0.14658 0.50718 0.02134 0.0
C489 C 0.17347 0.48393 0.16681 0.0
C490 C 0.19669 0.49525 0.16055 0.0
C491 C 0.15656 0.48471 0.15017 0.0
C492 C 0.16254 0.49739 0.12725 0.0
C493 C 0.18575 0.50834 0.12075 0.0
C494 C 0.20254 0.50714 0.13705 0.0
C495 C 0.14475 0.49924 0.11009 0.0
C496 C 0.14361 0.49642 0.08166 0.0
C497 C 0.12876 0.50355 0.12148 0.0
C498 C 0.13003 0.50873 0.15097 0.0
C499 C 0.15065 0.52598 0.1645 0.0
C500 C 0.15183 0.53062 0.19235 0.0
C501 C 0.13242 0.51824 0.20684 0.0
C502 C 0.11178 0.50125 0.1935 0.0
C503 C 0.11053 0.49652 0.16566 0.0
H504 H 0.13337 0.52184 0.2284 0.0
H505 H 0.1258 0.48517 0.95688 0.0
H506 H 0.53965 0.0272 0.59888 0.0
H507 H 0.57044 0.05576 0.63014 0.0
H508 H 0.61949 0.04256 0.59753 0.0
H509 H 0.58878 0.01375 0.56636 0.0
H510 H 0.63061 0.05631 0.65197 0.0
H511 H 0.61032 0.07841 0.56907 0.0
H512 H 0.58398 0.08106 0.53538 0.0
H513 H 0.56887 0.1149 0.59538 0.0
H514 H 0.59465 0.11191 0.62965 0.0
H515 H 0.71743 0.18329 0.64949 0.0
H516 H 0.68645 0.14752 0.62852 0.0
H517 H 0.66609 0.12416 0.70793 0.0
H518 H 0.69727 0.15989 0.72878 0.0
H519 H 0.64085 0.12806 0.63053 0.0
H520 H 0.64347 0.06825 0.70509 0.0
H521 H 0.67188 0.06623 0.736 0.0
H522 H 0.72654 0.10927 0.68739 0.0
H523 H 0.69842 0.11128 0.65598 0.0
C524 C 0.55681 0.02983 0.59892 0.0
C525 C 0.56186 0.01852 0.57967 0.0
C526 C 0.57441 0.04622 0.61679 0.0
C527 C 0.59732 0.05163 0.61563 0.0
C528 C 0.60193 0.03873 0.59859 0.0
C529 C 0.58432 0.02227 0.58073 0.0
C530 C 0.61672 0.07249 0.629 0.0
C531 C 0.63279 0.072 0.6475 0.0
C532 C 0.61983 0.09298 0.62258 0.0
C533 C 0.60425 0.09474 0.602 0.0
C534 C 0.6012 0.08621 0.57516 0.0
C535 C 0.58637 0.08778 0.55596 0.0
C536 C 0.57477 0.09814 0.56325 0.0
C537 C 0.57786 0.10685 0.58978 0.0
C538 C 0.59255 0.10519 0.60911 0.0
C539 C 0.70639 0.17036 0.66231 0.0
C540 C 0.70949 0.17407 0.69057 0.0
C541 C 0.68872 0.15005 0.65042 0.0
C542 C 0.67401 0.13314 0.66667 0.0
C543 C 0.67738 0.13685 0.69502 0.0
C544 C 0.69508 0.15718 0.70689 0.0
C545 C 0.65467 0.11195 0.65384 0.0
C546 C 0.6386 0.11239 0.63531 0.0
C547 C 0.65184 0.0915 0.65989 0.0
C548 C 0.66885 0.09009 0.67835 0.0
C549 C 0.66153 0.0772 0.70093 0.0
C550 C 0.67759 0.07607 0.71855 0.0
C551 C 0.70101 0.08767 0.71371 0.0
C552 C 0.70841 0.10036 0.69117 0.0
C553 C 0.69242 0.10151 0.67347 0.0
H554 H 0.71341 0.08679 0.72739 0.0
H555 H 0.56347 0.09952 0.54829 0.0
H556 H 0.53872 0.56074 0.14119 0.0
H557 H 0.53899 0.59149 0.16365 0.0
H558 H 0.55831 0.62653 0.09061 0.0
H559 H 0.55843 0.59578 0.06799 0.0
H560 H 0.58321 0.65345 0.13705 0.0
H561 H 0.50427 0.6018 0.10635 0.0
H562 H 0.4686 0.56508 0.10108 0.0
H563 H 0.46419 0.56489 0.18729 0.0
H564 H 0.50032 0.60135 0.19318 0.0
H565 H 0.56041 0.73491 0.18207 0.0
H566 H 0.56014 0.70534 0.15566 0.0
H567 H 0.534 0.66353 0.2226 0.0
H568 H 0.53381 0.693 0.24864 0.0
H569 H 0.51216 0.64047 0.17674 0.0
H570 H 0.59181 0.69047 0.20809 0.0
H571 H 0.62841 0.72649 0.21434 0.0
H572 H 0.63168 0.72949 0.12803 0.0
H573 H 0.59485 0.69364 0.12125 0.0
C574 C 0.54331 0.57503 0.1299 0.0
C575 C 0.54858 0.5757 0.10269 0.0
C576 C 0.54327 0.59259 0.14276 0.0
C577 C 0.54847 0.6113 0.1288 0.0
C578 C 0.55419 0.61227 0.10181 0.0
C579 C 0.55408 0.5946 0.08883 0.0
C580 C 0.5475 0.62958 0.14237 0.0
C581 C 0.56757 0.6507 0.14535 0.0
C582 C 0.52724 0.62593 0.15374 0.0
C583 C 0.50516 0.60424 0.15023 0.0
C584 C 0.49582 0.59387 0.12422 0.0
C585 C 0.47552 0.57308 0.12113 0.0
C586 C 0.46414 0.56264 0.14385 0.0
C587 C 0.47304 0.57299 0.16972 0.0
C588 C 0.49346 0.5937 0.17295 0.0
C589 C 0.55461 0.71936 0.19101 0.0
C590 C 0.54726 0.71617 0.21735 0.0
C591 C 0.55454 0.7025 0.17601 0.0
C592 C 0.54735 0.6822 0.1872 0.0
C593 C 0.53965 0.67897 0.21345 0.0
C594 C 0.53962 0.6958 0.22837 0.0
C595 C 0.54797 0.66437 0.17173 0.0
C596 C 0.52779 0.64329 0.16835 0.0
C597 C 0.56818 0.66804 0.16013 0.0
C598 C 0.59045 0.68947 0.16416 0.0
C599 C 0.60025 0.69888 0.19044 0.0
C600 C 0.62104 0.71926 0.19408 0.0
C601 C 0.63234 0.7303 0.17159 0.0
C602 C 0.62289 0.72094 0.14543 0.0
C603 C 0.60206 0.70059 0.14167 0.0
H604 H 0.64844 0.74607 0.17445 0.0
H605 H 0.4484 0.54655 0.1414 0.0
H606 H 0.95333 0.52707 0.52627 0.0
H607 H 0.92713 0.53047 0.55463 0.0
H608 H 0.86853 0.47576 0.50861 0.0
H609 H 0.89478 0.47207 0.48023 0.0
H610 H 0.86143 0.51048 0.52532 0.0
H611 H 0.88607 0.46446 0.56234 0.0
H612 H 0.91488 0.45512 0.57621 0.0
H613 H 0.9474 0.50961 0.63566 0.0
H614 H 0.91905 0.51967 0.62152 0.0
H615 H 0.78424 0.48329 0.63091 0.0
H616 H 0.80673 0.4816 0.59509 0.0
H617 H 0.86976 0.53275 0.63897 0.0
H618 H 0.84746 0.53428 0.67497 0.0
H619 H 0.87276 0.49804 0.62172 0.0
H620 H 0.84812 0.5443 0.58409 0.0
H621 H 0.81973 0.55403 0.56903 0.0
H622 H 0.78668 0.49852 0.5111 0.0
H623 H 0.81469 0.48827 0.52611 0.0
C624 C 0.93487 0.51588 0.522 0.0
C625 C 0.92614 0.49903 0.50136 0.0
C626 C 0.91993 0.51794 0.53811 0.0
C627 C 0.89595 0.50315 0.53394 0.0
C628 C 0.88701 0.48731 0.51212 0.0
C629 C 0.90202 0.48523 0.49593 0.0
C630 C 0.88067 0.50291 0.55418 0.0
C631 C 0.86363 0.50747 0.54633 0.0
C632 C 0.88381 0.49921 0.58161 0.0
C633 C 0.90057 0.49295 0.59067 0.0
C634 C 0.89947 0.47457 0.57822 0.0
C635 C 0.91573 0.46913 0.58616 0.0
C636 C 0.93301 0.48177 0.60683 0.0
C637 C 0.93402 0.49985 0.61963 0.0
C638 C 0.91786 0.50544 0.61164 0.0
C639 C 0.8029 0.49411 0.63293 0.0
C640 C 0.8141 0.50894 0.65571 0.0
C641 C 0.81569 0.49326 0.61237 0.0
C642 C 0.83988 0.50719 0.61429 0.0
C643 C 0.85109 0.52193 0.63706 0.0
C644 C 0.83833 0.52287 0.65751 0.0
C645 C 0.85368 0.50598 0.59306 0.0
C646 C 0.87045 0.50101 0.60072 0.0
C647 C 0.85018 0.50923 0.56551 0.0
C648 C 0.83335 0.51538 0.55643 0.0
C649 C 0.83467 0.53405 0.56831 0.0
C650 C 0.81868 0.53968 0.55975 0.0
C651 C 0.80137 0.52686 0.53918 0.0
C652 C 0.80007 0.50842 0.52707 0.0
C653 C 0.81601 0.5027 0.53558 0.0
H654 H 0.78901 0.53126 0.53257 0.0
H655 H 0.94561 0.47755 0.61296 0.0
H656 H 0.4726 0.95072 0.06771 0.0
H657 H 0.44665 0.92154 0.09606 0.0
H658 H 0.39197 0.93262 0.07212 0.0
H659 H 0.41827 0.96253 0.04498 0.0
H660 H 0.39126 0.92868 0.12229 0.0
H661 H 0.39493 0.88422 0.05051 0.0
H662 H 0.41433 0.87242 0.02008 0.0
H663 H 0.44564 0.85942 0.08887 0.0
H664 H 0.42661 0.87135 0.11971 0.0
H665 H 0.29857 0.8337 0.17567 0.0
H666 H 0.3249 0.86066 0.14551 0.0
H667 H 0.38014 0.85338 0.17854 0.0
H668 H 0.35398 0.82652 0.20902 0.0
H669 H 0.38116 0.85507 0.12466 0.0
H670 H 0.37702 0.89881 0.19608 0.0
H671 H 0.35771 0.91053 0.22672 0.0
H672 H 0.32731 0.9249 0.15832 0.0
H673 H 0.3462 0.91298 0.12723 0.0
C674 C 0.4549 0.94664 0.06805 0.0
C675 C 0.44753 0.95894 0.0538 0.0
C676 C 0.43995 0.92982 0.08433 0.0
C677 C 0.41698 0.9244 0.08628 0.0
C678 C 0.40949 0.9363 0.0713 0.0
C679 C 0.42455 0.95338 0.05551 0.0
C680 C 0.40108 0.90727 0.10481 0.0
C681 C 0.38884 0.91248 0.12232 0.0
C682 C 0.39821 0.88619 0.10593 0.0
C683 C 0.40951 0.87886 0.08741 0.0
C684 C 0.40606 0.87896 0.05914 0.0
C685 C 0.41697 0.87223 0.04182 0.0
C686 C 0.43125 0.86523 0.05254 0.0
C687 C 0.43459 0.86487 0.08059 0.0
C688 C 0.42372 0.87158 0.098 0.0
C689 C 0.31637 0.83794 0.17685 0.0
C690 C 0.32397 0.8278 0.19512 0.0
C691 C 0.33148 0.85342 0.15941 0.0
C692 C 0.35476 0.85941 0.15976 0.0
C693 C 0.36234 0.84912 0.17768 0.0
C694 C 0.34723 0.83363 0.19514 0.0
C695 C 0.37114 0.87644 0.14161 0.0
C696 C 0.38354 0.87126 0.12438 0.0
C697 C 0.37414 0.89753 0.14067 0.0
C698 C 0.36285 0.9048 0.15932 0.0
C699 C 0.36608 0.90432 0.18756 0.0
C700 C 0.35523 0.91103 0.20501 0.0
C701 C 0.34125 0.91841 0.19447 0.0
C702 C 0.33813 0.91915 0.16645 0.0
C703 C 0.34892 0.91244 0.14891 0.0
H704 H 0.33286 0.92359 0.20801 0.0
H705 H 0.43969 0.86004 0.03909 0.0
H706 H 0.42993 0.41264 0.56992 0.0
H707 H 0.43374 0.3841 0.59141 0.0
H708 H 0.50586 0.43181 0.61444 0.0
H709 H 0.50218 0.45998 0.59223 0.0
H710 H 0.5024 0.39678 0.59497 0.0
H711 H 0.46225 0.41135 0.6606 0.0
H712 H 0.43113 0.4153 0.67718 0.0
H713 H 0.38117 0.34773 0.65251 0.0
H714 H 0.41197 0.34346 0.63546 0.0
H715 H 0.523 0.34031 0.69917 0.0
H716 H 0.51716 0.36589 0.67351 0.0
H717 H 0.45172 0.31205 0.63784 0.0
H718 H 0.45781 0.28613 0.66244 0.0
H719 H 0.45022 0.34807 0.6619 0.0
H720 H 0.49302 0.33413 0.59932 0.0
H721 H 0.52563 0.33154 0.58524 0.0
H722 H 0.57256 0.40016 0.60741 0.0
H723 H 0.54035 0.4031 0.62218 0.0
C724 C 0.44647 0.41696 0.57983 0.0
C725 C 0.46577 0.43841 0.57936 0.0
C726 C 0.44867 0.40071 0.59214 0.0
C727 C 0.47008 0.40581 0.60474 0.0
C728 C 0.48921 0.4274 0.60471 0.0
C729 C 0.48711 0.44349 0.59205 0.0
C730 C 0.47292 0.38866 0.61729 0.0
C731 C 0.49113 0.38634 0.60985 0.0
C732 C 0.45793 0.37464 0.63626 0.0
C733 C 0.43938 0.37716 0.64648 0.0
C734 C 0.4446 0.39739 0.65851 0.0
C735 C 0.42703 0.39967 0.66803 0.0
C736 C 0.40418 0.38179 0.66582 0.0
C737 C 0.39887 0.36158 0.65416 0.0
C738 C 0.41638 0.35921 0.64458 0.0
C739 C 0.50762 0.33376 0.68539 0.0
C740 C 0.49085 0.31108 0.683 0.0
C741 C 0.50424 0.34846 0.6709 0.0
C742 C 0.48399 0.34082 0.65389 0.0
C743 C 0.46739 0.31824 0.65104 0.0
C744 C 0.47088 0.30348 0.66524 0.0
C745 C 0.47983 0.35653 0.6398 0.0
C746 C 0.46138 0.35852 0.64693 0.0
C747 C 0.49483 0.37051 0.6209 0.0
C748 C 0.51428 0.36877 0.61213 0.0
C749 C 0.51034 0.34862 0.60148 0.0
C750 C 0.52876 0.3471 0.59334 0.0
C751 C 0.55119 0.36567 0.59554 0.0
C752 C 0.55522 0.38579 0.60583 0.0
C753 C 0.53688 0.38739 0.61408 0.0
H754 H 0.56543 0.36447 0.58919 0.0
H755 H 0.3906 0.38359 0.67321 0.0
H756 H 0.58109 0.98966 0.44663 0.0
H757 H 0.58139 0.96038 0.42069 0.0
H758 H 0.50699 0.92482 0.40763 0.0
H759 H 0.50658 0.95392 0.43397 0.0
H760 H 0.51965 0.89746 0.42147 0.0
H761 H 0.54237 0.95192 0.3565 0.0
H762 H 0.5654 0.98867 0.33878 0.0
H763 H 0.62668 0.98586 0.34945 0.0
H764 H 0.60406 0.9492 0.36759 0.0
H765 H 0.53864 0.84427 0.29365 0.0
H766 H 0.53746 0.87454 0.3161 0.0
H767 H 0.55524 0.85839 0.39345 0.0
H768 H 0.55607 0.82796 0.37096 0.0
H769 H 0.56878 0.91122 0.34509 0.0
H770 H 0.52784 0.8683 0.44262 0.0
H771 H 0.50153 0.83084 0.45692 0.0
H772 H 0.4709 0.80941 0.37525 0.0
H773 H 0.49672 0.8468 0.36056 0.0
C774 C 0.5648 0.97572 0.43802 0.0
C775 C 0.5438 0.97414 0.44248 0.0
C776 C 0.56499 0.95894 0.42316 0.0
C777 C 0.5442 0.94031 0.41205 0.0
C778 C 0.52324 0.93887 0.41619 0.0
C779 C 0.52303 0.95553 0.43126 0.0
C780 C 0.54421 0.9221 0.39671 0.0
C781 C 0.53045 0.90053 0.40481 0.0
C782 C 0.55789 0.92587 0.37455 0.0
C783 C 0.57155 0.9479 0.36365 0.0
C784 C 0.56079 0.95921 0.35527 0.0
C785 C 0.57376 0.98001 0.34512 0.0
C786 C 0.5975 0.98962 0.34306 0.0
C787 C 0.6083 0.97841 0.35109 0.0
C788 C 0.5954 0.95761 0.36129 0.0
C789 C 0.54234 0.8473 0.31544 0.0
C790 C 0.54748 0.8339 0.33064 0.0
C791 C 0.54174 0.86461 0.32825 0.0
C792 C 0.54607 0.86872 0.35655 0.0
C793 C 0.55153 0.85544 0.37167 0.0
C794 C 0.55212 0.83814 0.35885 0.0
C795 C 0.54463 0.8867 0.37027 0.0
C796 C 0.55808 0.9082 0.36184 0.0
C797 C 0.53028 0.8828 0.39175 0.0
C798 C 0.51441 0.86031 0.40045 0.0
C799 C 0.51542 0.85561 0.42774 0.0
C800 C 0.5006 0.83439 0.43592 0.0
C801 C 0.48461 0.81774 0.41699 0.0
C802 C 0.48335 0.8223 0.38987 0.0
C803 C 0.49809 0.8435 0.38161 0.0
H804 H 0.47318 0.80131 0.42336 0.0
H805 H 0.60751 0.00572 0.33518 0.0
H806 H 0.61566 0.56067 0.99782 0.0
H807 H 0.63804 0.55909 0.96208 0.0
H808 H 0.57526 0.51949 0.91016 0.0
H809 H 0.55267 0.52093 0.94597 0.0
H810 H 0.60076 0.50059 0.91461 0.0
H811 H 0.61444 0.5707 0.89387 0.0
H812 H 0.62512 0.60899 0.90305 0.0
H813 H 0.69356 0.62689 0.93284 0.0
H814 H 0.6832 0.58862 0.92421 0.0
H815 H 0.66527 0.49765 0.80746 0.0
H816 H 0.63907 0.50223 0.83461 0.0
H817 H 0.69668 0.54704 0.89113 0.0
H818 H 0.72299 0.5428 0.86375 0.0
H819 H 0.67075 0.5632 0.87982 0.0
H820 H 0.65556 0.49228 0.90526 0.0
H821 H 0.64454 0.45376 0.8973 0.0
H822 H 0.57876 0.43732 0.85927 0.0
H823 H 0.58948 0.47581 0.86678 0.0
C824 C 0.60665 0.55207 0.97857 0.0
C825 C 0.5824 0.5409 0.97476 0.0
C826 C 0.61948 0.55121 0.95812 0.0
C827 C 0.60833 0.53917 0.93343 0.0
C828 C 0.5842 0.52886 0.92906 0.0
C829 C 0.57135 0.52986 0.94948 0.0
C830 C 0.62174 0.53582 0.91338 0.0
C831 C 0.61581 0.51426 0.90654 0.0
C832 C 0.64163 0.55366 0.90335 0.0
C833 C 0.64797 0.57673 0.90857 0.0
C834 C 0.63171 0.58276 0.90258 0.0
C835 C 0.63773 0.60447 0.90765 0.0
C836 C 0.65999 0.62035 0.91857 0.0
C837 C 0.67631 0.61456 0.9244 0.0
C838 C 0.67039 0.59287 0.91938 0.0
C839 C 0.67229 0.50826 0.82586 0.0
C840 C 0.69618 0.51982 0.83353 0.0
C841 C 0.65729 0.51088 0.84137 0.0
C842 C 0.66583 0.52482 0.8651 0.0
C843 C 0.68968 0.53624 0.87287 0.0
C844 C 0.7047 0.53381 0.85723 0.0
C845 C 0.65012 0.52798 0.88156 0.0
C846 C 0.65559 0.54951 0.88768 0.0
C847 C 0.62983 0.51009 0.89099 0.0
C848 C 0.62345 0.48699 0.88626 0.0
C849 C 0.63884 0.4805 0.89495 0.0
C850 C 0.63264 0.45867 0.89054 0.0
C851 C 0.61103 0.44313 0.87763 0.0
C852 C 0.59555 0.4494 0.86911 0.0
C853 C 0.60167 0.47121 0.87348 0.0
H854 H 0.6062 0.42621 0.87439 0.0
H855 H 0.66462 0.63716 0.92248 0.0
H856 H 0.09261 0.54701 0.49482 0.0
H857 H 0.1198 0.57831 0.46985 0.0
H858 H 0.06356 0.5835 0.43532 0.0
H859 H 0.03628 0.5523 0.46032 0.0
H860 H 0.09121 0.58439 0.39645 0.0
H861 H 0.10251 0.62138 0.48344 0.0
H862 H 0.11114 0.62779 0.53303 0.0
H863 H 0.17805 0.63712 0.52504 0.0
H864 H 0.16969 0.63047 0.4754 0.0
H865 H 0.15745 0.68393 0.33205 0.0
H866 H 0.1311 0.65531 0.36058 0.0
H867 H 0.18899 0.65708 0.40332 0.0
H868 H 0.21551 0.68618 0.37518 0.0
H869 H 0.16054 0.65243 0.43846 0.0
H870 H 0.15018 0.61487 0.35291 0.0
H871 H 0.14236 0.60737 0.30334 0.0
H872 H 0.07489 0.59745 0.30834 0.0
H873 H 0.08243 0.60519 0.35792 0.0
C874 C 0.08602 0.55498 0.48224 0.0
C875 C 0.06216 0.54706 0.4798 0.0
C876 C 0.10165 0.57295 0.46793 0.0
C877 C 0.09385 0.58344 0.45063 0.0
C878 C 0.0701 0.57577 0.44846 0.0
C879 C 0.05449 0.55795 0.46297 0.0
C880 C 0.11027 0.60181 0.43409 0.0
C881 C 0.10618 0.59941 0.40569 0.0
C882 C 0.13031 0.62118 0.4459 0.0
C883 C 0.13537 0.62521 0.47573 0.0
C884 C 0.11898 0.62461 0.49227 0.0
C885 C 0.12385 0.62833 0.52039 0.0
C886 C 0.14511 0.6328 0.53218 0.0
C887 C 0.16158 0.63362 0.51588 0.0
C888 C 0.15679 0.6299 0.48775 0.0
C889 C 0.16461 0.67819 0.34744 0.0
C890 C 0.18869 0.68736 0.35108 0.0
C891 C 0.14945 0.66169 0.36378 0.0
C892 C 0.15781 0.65347 0.38394 0.0
C893 C 0.18191 0.66293 0.38798 0.0
C894 C 0.19713 0.67966 0.37184 0.0
C895 C 0.14147 0.63511 0.4007 0.0
C896 C 0.14558 0.63745 0.42914 0.0
C897 C 0.12158 0.61552 0.38891 0.0
C898 C 0.11697 0.61083 0.3591 0.0
C899 C 0.13374 0.61125 0.34341 0.0
C900 C 0.12935 0.60693 0.31532 0.0
C901 C 0.10817 0.602 0.30269 0.0
C902 C 0.09131 0.60131 0.31814 0.0
C903 C 0.09562 0.60564 0.34625 0.0
H904 H 0.1048 0.59865 0.28094 0.0
H905 H 0.14884 0.63568 0.55395 0.0
H906 H 0.48474 0.08591 0.03507 0.0
H907 H 0.487 0.11512 0.00794 0.0
H908 H 0.53718 0.11321 0.96063 0.0
H909 H 0.53536 0.08453 0.98789 0.0
H910 H 0.54864 0.15511 0.9719 0.0
H911 H 0.48109 0.08609 0.93743 0.0
H912 H 0.44362 0.05157 0.94066 0.0
H913 H 0.41378 0.08817 0.96639 0.0
H914 H 0.45121 0.12292 0.96367 0.0
H915 H 0.53879 0.19786 0.84734 0.0
H916 H 0.54008 0.17609 0.88395 0.0
H917 H 0.48741 0.1808 0.92214 0.0
H918 H 0.48596 0.20245 0.88551 0.0
H919 H 0.47697 0.13969 0.91939 0.0
H920 H 0.5442 0.20929 0.949 0.0
H921 H 0.58175 0.24345 0.94469 0.0
H922 H 0.61242 0.20586 0.92737 0.0
H923 H 0.57496 0.17145 0.93119 0.0
C924 C 0.49648 0.09198 0.01915 0.0
C925 C 0.50962 0.08273 0.01337 0.0
C926 C 0.49767 0.10855 0.00357 0.0
C927 C 0.51206 0.11613 0.98206 0.0
C928 C 0.52591 0.10756 0.97706 0.0
C929 C 0.52466 0.091 0.99249 0.0
C930 C 0.512 0.13218 0.96377 0.0
C931 C 0.53301 0.15174 0.96031 0.0
C932 C 0.49151 0.12794 0.94906 0.0
C933 C 0.46901 0.10707 0.95067 0.0
C934 C 0.46659 0.08676 0.944 0.0
C935 C 0.44535 0.06716 0.9457 0.0
C936 C 0.42635 0.06767 0.95381 0.0
C937 C 0.42853 0.0878 0.96017 0.0
C938 C 0.44974 0.10745 0.95855 0.0
C939 C 0.52776 0.19455 0.86377 0.0
C940 C 0.51222 0.20179 0.8635 0.0
C941 C 0.52851 0.18212 0.8847 0.0
C942 C 0.51396 0.17696 0.90593 0.0
C943 C 0.49875 0.18454 0.90595 0.0
C944 C 0.4979 0.19685 0.88498 0.0
C945 C 0.51368 0.16263 0.92728 0.0
C946 C 0.49258 0.14332 0.93126 0.0
C947 C 0.53412 0.1671 0.94237 0.0
C948 C 0.55671 0.18777 0.94018 0.0
C949 C 0.55891 0.2083 0.94407 0.0
C950 C 0.58018 0.22771 0.94175 0.0
C951 C 0.59945 0.22683 0.9357 0.0
C952 C 0.59748 0.20652 0.93203 0.0
C953 C 0.57624 0.18706 0.93431 0.0
H954 H 0.6159 0.24188 0.93391 0.0
H955 H 0.40991 0.05248 0.95509 0.0
H956 H 0.46137 0.49356 0.4294 0.0
H957 H 0.43516 0.4893 0.3899 0.0
H958 H 0.3993 0.50895 0.44111 0.0
H959 H 0.42485 0.5132 0.47986 0.0
H960 H 0.3689 0.47266 0.41064 0.0
H961 H 0.4364 0.54381 0.39597 0.0
H962 H 0.47757 0.56922 0.38849 0.0
H963 H 0.46965 0.53025 0.31679 0.0
H964 H 0.4285 0.50453 0.32407 0.0
H965 H 0.30225 0.50076 0.32732 0.0
H966 H 0.33122 0.50114 0.35941 0.0
H967 H 0.3579 0.48273 0.29383 0.0
H968 H 0.32904 0.48277 0.26162 0.0
H969 H 0.39321 0.51376 0.3274 0.0
H970 H 0.32422 0.44522 0.33885 0.0
H971 H 0.28303 0.42018 0.34622 0.0
H972 H 0.29353 0.4533 0.42395 0.0
H973 H 0.33472 0.47878 0.41688 0.0
C974 C 0.44795 0.49704 0.43213 0.0
C975 C 0.44524 0.50353 0.45804 0.0
C976 C 0.43298 0.49465 0.40952 0.0
C977 C 0.41503 0.49868 0.41243 0.0
C978 C 0.41272 0.50548 0.43818 0.0
C979 C 0.42753 0.50793 0.46048 0.0
C980 C 0.39807 0.49552 0.38934 0.0
C981 C 0.37428 0.48175 0.39251 0.0
C982 C 0.40485 0.50677 0.36517 0.0
C983 C 0.42952 0.52213 0.36079 0.0
C984 C 0.44354 0.54058 0.37879 0.0
C985 C 0.46683 0.55505 0.37455 0.0
C986 C 0.47624 0.55129 0.35225 0.0
C987 C 0.46235 0.53311 0.3341 0.0
C988 C 0.43905 0.5186 0.33826 0.0
C989 C 0.31427 0.49675 0.31982 0.0
C990 C 0.31334 0.49164 0.29203 0.0
C991 C 0.33081 0.49688 0.33817 0.0
C992 C 0.34673 0.49169 0.32925 0.0
C993 C 0.3459 0.48676 0.30136 0.0
C994 C 0.32933 0.48665 0.28297 0.0
C995 C 0.36405 0.49141 0.34915 0.0
C996 C 0.38782 0.50443 0.34535 0.0
C997 C 0.35728 0.47941 0.37279 0.0
C998 C 0.33254 0.46401 0.37724 0.0
C999 C 0.31772 0.44726 0.35745 0.0
C1000 C 0.29437 0.43298 0.36157 0.0
C1001 C 0.28566 0.43517 0.38552 0.0
C1002 C 0.3003 0.45163 0.40541 0.0
C1003 C 0.32366 0.46598 0.40136 0.0
H1004 H 0.26758 0.4241 0.38868 0.0
H1005 H 0.49427 0.56251 0.34899 0.0
H1006 H 0.92327 0.44819 0.95318 0.0
H1007 H 0.89171 0.41899 0.92379 0.0
H1008 H 0.86845 0.37715 0.99096 0.0
H1009 H 0.90004 0.40665 0.02089 0.0
H1010 H 0.87428 0.35739 0.94839 0.0
H1011 H 0.83417 0.39439 0.96181 0.0
H1012 H 0.82761 0.42505 0.9641 0.0
H1013 H 0.84137 0.4362 0.88052 0.0
H1014 H 0.84804 0.4056 0.87771 0.0
H1015 H 0.78134 0.27121 0.86306 0.0
H1016 H 0.80215 0.29978 0.90013 0.0
H1017 H 0.83415 0.3488 0.84149 0.0
H1018 H 0.81323 0.32023 0.80455 0.0
H1019 H 0.81981 0.36313 0.8835 0.0
H1020 H 0.86292 0.32818 0.87134 0.0
H1021 H 0.86782 0.29655 0.86818 0.0
H1022 H 0.84887 0.28201 0.94981 0.0
H1023 H 0.84341 0.31334 0.95327 0.0
C1024 C 0.91115 0.43307 0.96204 0.0
C1025 C 0.91426 0.4298 0.98951 0.0
C1026 C 0.89303 0.41632 0.9451 0.0
C1027 C 0.87761 0.39592 0.95519 0.0
C1028 C 0.88015 0.39279 0.98277 0.0
C1029 C 0.89825 0.40961 0.99981 0.0
C1030 C 0.8606 0.37728 0.93625 0.0
C1031 C 0.86198 0.35844 0.93464 0.0
C1032 C 0.84501 0.3789 0.91781 0.0
C1033 C 0.84167 0.39773 0.91958 0.0
C1034 C 0.83593 0.40346 0.94395 0.0
C1035 C 0.83204 0.42072 0.94529 0.0
C1036 C 0.83389 0.43244 0.92241 0.0
C1037 C 0.83977 0.42699 0.89817 0.0
C1038 C 0.84354 0.40965 0.89667 0.0
C1039 C 0.79278 0.28813 0.85828 0.0
C1040 C 0.79593 0.29371 0.83123 0.0
C1041 C 0.80461 0.30438 0.87932 0.0
C1042 C 0.81979 0.32637 0.87351 0.0
C1043 C 0.82247 0.33195 0.84638 0.0
C1044 C 0.81068 0.31571 0.82537 0.0
C1045 C 0.83371 0.34345 0.89559 0.0
C1046 C 0.83185 0.362 0.89761 0.0
C1047 C 0.84893 0.34162 0.91438 0.0
C1048 C 0.8525 0.32295 0.91245 0.0
C1049 C 0.85961 0.31813 0.88854 0.0
C1050 C 0.86251 0.30027 0.8867 0.0
C1051 C 0.8586 0.28724 0.90876 0.0
C1052 C 0.85185 0.29209 0.93272 0.0
C1053 C 0.84884 0.3099 0.93463 0.0
H1054 H 0.86086 0.27342 0.9073 0.0
H1055 H 0.83099 0.44587 0.92353 0.0
H1056 H 0.96303 0.53028 0.96442 0.0
H1057 H 0.93363 0.53238 0.93624 0.0
H1058 H 0.93231 0.48747 0.8758 0.0
H1059 H 0.96149 0.48501 0.90405 0.0
H1060 H 0.93074 0.52343 0.85368 0.0
H1061 H 0.89371 0.46875 0.91848 0.0
H1062 H 0.88677 0.45512 0.96435 0.0
H1063 H 0.86622 0.50026 0.98593 0.0
H1064 H 0.87365 0.51469 0.94043 0.0
H1065 H 0.8254 0.49454 0.77864 0.0
H1066 H 0.85623 0.49331 0.80501 0.0
H1067 H 0.84853 0.52668 0.87338 0.0
H1068 H 0.81713 0.52718 0.84718 0.0
H1069 H 0.85506 0.4964 0.89146 0.0
H1070 H 0.89411 0.55319 0.83039 0.0
H1071 H 0.90265 0.56962 0.78607 0.0
H1072 H 0.92046 0.52348 0.75916 0.0
H1073 H 0.9117 0.50655 0.80322 0.0
C1074 C 0.95685 0.52115 0.94492 0.0
C1075 C 0.96476 0.50749 0.93657 0.0
C1076 C 0.93988 0.52227 0.92886 0.0
C1077 C 0.93053 0.50994 0.90393 0.0
C1078 C 0.9392 0.49714 0.89492 0.0
C1079 C 0.95593 0.49577 0.91114 0.0
C1080 C 0.91091 0.50948 0.88798 0.0
C1081 C 0.9141 0.51728 0.86182 0.0
C1082 C 0.8893 0.50194 0.89877 0.0
C1083 C 0.88456 0.49305 0.92607 0.0
C1084 C 0.88808 0.47606 0.9331 0.0
C1085 C 0.88408 0.46819 0.95906 0.0
C1086 C 0.8762 0.4769 0.97807 0.0
C1087 C 0.87235 0.49355 0.97118 0.0
C1088 C 0.87649 0.50161 0.94532 0.0
C1089 C 0.83029 0.50155 0.79933 0.0
C1090 C 0.81903 0.51116 0.81075 0.0
C1091 C 0.84804 0.50098 0.8144 0.0
C1092 C 0.85521 0.51027 0.84121 0.0
C1093 C 0.84355 0.51946 0.85279 0.0
C1094 C 0.82567 0.51987 0.83776 0.0
C1095 C 0.87487 0.51053 0.85708 0.0
C1096 C 0.87167 0.5026 0.88325 0.0
C1097 C 0.89661 0.51825 0.84647 0.0
C1098 C 0.90202 0.52846 0.82001 0.0
C1099 C 0.89969 0.54644 0.81496 0.0
C1100 C 0.90459 0.55586 0.78989 0.0
C1101 C 0.91204 0.54756 0.76978 0.0
C1102 C 0.91466 0.52987 0.77474 0.0
C1103 C 0.90974 0.52036 0.79976 0.0
H1104 H 0.91582 0.55488 0.75038 0.0
H1105 H 0.87298 0.47067 0.9981 0.0
H1106 H 0.44854 0.94348 0.5058 0.0
H1107 H 0.41695 0.90944 0.48205 0.0
H1108 H 0.42248 0.94473 0.41054 0.0
H1109 H 0.45321 0.97862 0.43421 0.0
H1110 H 0.3791 0.91705 0.41691 0.0
H1111 H 0.44866 0.91368 0.42171 0.0
H1112 H 0.48088 0.9127 0.44542 0.0
H1113 H 0.43257 0.8546 0.48368 0.0
H1114 H 0.40002 0.85549 0.46078 0.0
H1115 H 0.33141 0.83784 0.30818 0.0
H1116 H 0.35994 0.86811 0.34 0.0
H1117 H 0.34085 0.82335 0.40421 0.0
H1118 H 0.31239 0.79306 0.37225 0.0
H1119 H 0.38796 0.85298 0.40652 0.0
H1120 H 0.31874 0.85463 0.40007 0.0
H1121 H 0.28597 0.85467 0.37641 0.0
H1122 H 0.3332 0.91515 0.34141 0.0
H1123 H 0.36629 0.91534 0.36463 0.0
C1124 C 0.44274 0.944 0.48515 0.0
C1125 C 0.45348 0.96375 0.47186 0.0
C1126 C 0.42482 0.92451 0.47153 0.0
C1127 C 0.4176 0.92442 0.44431 0.0
C1128 C 0.42774 0.94431 0.43148 0.0
C1129 C 0.4454 0.96373 0.44509 0.0
C1130 C 0.40003 0.90376 0.42854 0.0
C1131 C 0.38117 0.90312 0.41454 0.0
C1132 C 0.40226 0.88524 0.42604 0.0
C1133 C 0.4219 0.8848 0.43978 0.0
C1134 C 0.4449 0.9008 0.43536 0.0
C1135 C 0.46323 0.90025 0.44861 0.0
C1136 C 0.45879 0.88362 0.46601 0.0
C1137 C 0.43599 0.8675 0.47023 0.0
C1138 C 0.4176 0.86803 0.45716 0.0
C1139 C 0.33376 0.83448 0.32896 0.0
C1140 C 0.32013 0.81323 0.33783 0.0
C1141 C 0.34986 0.85172 0.34713 0.0
C1142 C 0.3523 0.848 0.37453 0.0
C1143 C 0.33926 0.82655 0.38316 0.0
C1144 C 0.32314 0.8093 0.36496 0.0
C1145 C 0.36763 0.86671 0.39433 0.0
C1146 C 0.38588 0.86688 0.40913 0.0
C1147 C 0.36487 0.88481 0.39765 0.0
C1148 C 0.345 0.88492 0.38395 0.0
C1149 C 0.32215 0.86788 0.38722 0.0
C1150 C 0.30351 0.86787 0.37391 0.0
C1151 C 0.3075 0.88487 0.35737 0.0
C1152 C 0.33013 0.90198 0.35421 0.0
C1153 C 0.34884 0.90207 0.36748 0.0
H1154 H 0.29305 0.88481 0.34705 0.0
H1155 H 0.47302 0.88322 0.47619 0.0
H1156 H 0.53792 0.42613 0.01295 0.0
H1157 H 0.53314 0.39853 0.97915 0.0
H1158 H 0.50218 0.42118 0.92089 0.0
H1159 H 0.50744 0.44935 0.9543 0.0
H1160 H 0.47889 0.37523 0.9201 0.0
H1161 H 0.55573 0.43654 0.91794 0.0
H1162 H 0.5946 0.4655 0.93709 0.0
H1163 H 0.6089 0.41653 0.96148 0.0
H1164 H 0.56973 0.38719 0.94345 0.0
H1165 H 0.48921 0.31906 0.80527 0.0
H1166 H 0.49214 0.34761 0.83672 0.0
H1167 H 0.527 0.33107 0.89812 0.0
H1168 H 0.52406 0.30257 0.86661 0.0
H1169 H 0.54844 0.37543 0.89519 0.0
H1170 H 0.47041 0.31438 0.90038 0.0
H1171 H 0.43128 0.28551 0.88162 0.0
H1172 H 0.4199 0.33466 0.85024 0.0
H1173 H 0.45915 0.36382 0.86843 0.0
C1174 C 0.53022 0.42548 0.99297 0.0
C1175 C 0.52341 0.4404 0.98652 0.0
C1176 C 0.5274 0.40952 0.97364 0.0
C1177 C 0.51755 0.40791 0.94734 0.0
C1178 C 0.50985 0.42211 0.94104 0.0
C1179 C 0.51285 0.43825 0.96032 0.0
C1180 C 0.51598 0.39182 0.92632 0.0
C1181 C 0.49413 0.37546 0.91438 0.0
C1182 C 0.53585 0.39194 0.91904 0.0
C1183 C 0.55958 0.4096 0.92965 0.0
C1184 C 0.56699 0.43189 0.92776 0.0
C1185 C 0.58909 0.4484 0.93845 0.0
C1186 C 0.60417 0.44286 0.95058 0.0
C1187 C 0.59717 0.4208 0.95212 0.0
C1188 C 0.57498 0.40421 0.94175 0.0
C1189 C 0.49738 0.32152 0.82555 0.0
C1190 C 0.50635 0.30865 0.83362 0.0
C1191 C 0.49905 0.33779 0.84351 0.0
C1192 C 0.50968 0.34146 0.86993 0.0
C1193 C 0.51877 0.32863 0.87789 0.0
C1194 C 0.51701 0.31231 0.85996 0.0
C1195 C 0.5113 0.35858 0.88933 0.0
C1196 C 0.5332 0.37522 0.90089 0.0
C1197 C 0.49151 0.35876 0.89619 0.0
C1198 C 0.46781 0.34127 0.88553 0.0
C1199 C 0.45963 0.31902 0.8893 0.0
C1200 C 0.43742 0.30261 0.8788 0.0
C1201 C 0.42313 0.30824 0.86469 0.0
C1202 C 0.43101 0.33031 0.86114 0.0
C1203 C 0.45323 0.34679 0.87155 0.0
H1204 H 0.40594 0.29551 0.85657 0.0
H1205 H 0.62134 0.45568 0.95865 0.0
H1206 H 0.04454 0.49497 0.40785 0.0
H1207 H 0.07527 0.49765 0.38189 0.0
H1208 H 0.05384 0.43109 0.39888 0.0
H1209 H 0.02315 0.42841 0.42521 0.0
H1210 H 0.10117 0.46076 0.40964 0.0
H1211 H 0.04289 0.44159 0.33675 0.0
H1212 H 0.01388 0.44523 0.30937 0.0
H1213 H 0.06649 0.51042 0.29102 0.0
H1214 H 0.09578 0.50729 0.31861 0.0
H1215 H 0.17521 0.45199 0.32234 0.0
H1216 H 0.14245 0.44667 0.34603 0.0
H1217 H 0.1545 0.50866 0.32011 0.0
H1218 H 0.18628 0.51339 0.29478 0.0
H1219 H 0.11079 0.47987 0.31359 0.0
H1220 H 0.16869 0.5009 0.38707 0.0
H1221 H 0.1985 0.49918 0.41551 0.0
H1222 H 0.14809 0.4333 0.4342 0.0
H1223 H 0.11802 0.43452 0.40558 0.0
C1224 C 0.04631 0.48088 0.40596 0.0
C1225 C 0.03148 0.4615 0.41863 0.0
C1226 C 0.06377 0.48238 0.39098 0.0
C1227 C 0.06676 0.46453 0.38838 0.0
C1228 C 0.05176 0.44502 0.40062 0.0
C1229 C 0.03414 0.44345 0.41545 0.0
C1230 C 0.08622 0.46668 0.37391 0.0
C1231 C 0.10312 0.46457 0.3885 0.0
C1232 C 0.08908 0.47237 0.34662 0.0
C1233 C 0.0715 0.47427 0.32996 0.0
C1234 C 0.04825 0.45677 0.32707 0.0
C1235 C 0.03176 0.45873 0.31147 0.0
C1236 C 0.03833 0.47806 0.29852 0.0
C1237 C 0.06142 0.49546 0.30108 0.0
C1238 C 0.07798 0.49359 0.31668 0.0
C1239 C 0.17084 0.46446 0.32148 0.0
C1240 C 0.18346 0.48312 0.30653 0.0
C1241 C 0.15224 0.46152 0.33538 0.0
C1242 C 0.14612 0.47739 0.33517 0.0
C1243 C 0.15889 0.49619 0.32064 0.0
C1244 C 0.1773 0.49901 0.30643 0.0
C1245 C 0.12596 0.47409 0.34933 0.0
C1246 C 0.10889 0.47599 0.33471 0.0
C1247 C 0.12311 0.46851 0.37672 0.0
C1248 C 0.14116 0.46773 0.39395 0.0
C1249 C 0.164 0.48598 0.39707 0.0
C1250 C 0.18094 0.48511 0.41326 0.0
C1251 C 0.17521 0.46612 0.42659 0.0
C1252 C 0.15251 0.44798 0.42383 0.0
C1253 C 0.13551 0.44877 0.40765 0.0
H1254 H 0.18835 0.46548 0.43912 0.0
H1255 H 0.02554 0.47954 0.28645 0.0
H1256 H 0.5322 0.03907 0.94681 0.0
H1257 H 0.55574 0.06286 0.91171 0.0
H1258 H 0.61768 0.07535 0.95742 0.0
H1259 H 0.59443 0.05226 0.99244 0.0
H1260 H 0.6236 0.1125 0.94441 0.0
H1261 H 0.59454 0.04295 0.89447 0.0
H1262 H 0.56425 0.00674 0.87333 0.0
H1263 H 0.53741 0.03754 0.82299 0.0
H1264 H 0.56738 0.07392 0.84409 0.0
H1265 H 0.70997 0.1682 0.8544 0.0
H1266 H 0.682 0.1408 0.88265 0.0
H1267 H 0.62601 0.13493 0.83045 0.0
H1268 H 0.65396 0.16164 0.80115 0.0
H1269 H 0.61447 0.09529 0.84523 0.0
H1270 H 0.64371 0.16454 0.89353 0.0
H1271 H 0.67355 0.20101 0.91445 0.0
H1272 H 0.69917 0.17099 0.96806 0.0
H1273 H 0.66965 0.13434 0.94724 0.0
C1274 C 0.55078 0.04643 0.94892 0.0
C1275 C 0.5614 0.04365 0.9724 0.0
C1276 C 0.5643 0.06015 0.92887 0.0
C1277 C 0.58869 0.07112 0.93174 0.0
C1278 C 0.59903 0.06738 0.95462 0.0
C1279 C 0.58564 0.05398 0.97463 0.0
C1280 C 0.6038 0.08756 0.91223 0.0
C1281 C 0.6217 0.10853 0.92277 0.0
C1282 C 0.60102 0.08297 0.88375 0.0
C1283 C 0.58304 0.06113 0.87107 0.0
C1284 C 0.58206 0.04198 0.87905 0.0
C1285 C 0.56498 0.02143 0.86704 0.0
C1286 C 0.54887 0.01983 0.84689 0.0
C1287 C 0.54987 0.0388 0.83864 0.0
C1288 C 0.56691 0.05939 0.8506 0.0
C1289 C 0.69174 0.16095 0.84855 0.0
C1290 C 0.68445 0.1674 0.82528 0.0
C1291 C 0.67565 0.14537 0.86505 0.0
C1292 C 0.65171 0.1359 0.85913 0.0
C1293 C 0.64431 0.14198 0.8357 0.0
C1294 C 0.66042 0.15753 0.81906 0.0
C1295 C 0.63462 0.11993 0.8776 0.0
C1296 C 0.61631 0.0992 0.86688 0.0
C1297 C 0.6369 0.12471 0.90598 0.0
C1298 C 0.65458 0.14671 0.91867 0.0
C1299 C 0.6558 0.16573 0.90967 0.0
C1300 C 0.67265 0.18643 0.92152 0.0
C1301 C 0.68828 0.18832 0.94253 0.0
C1302 C 0.68706 0.1695 0.95178 0.0
C1303 C 0.67026 0.14876 0.93998 0.0
H1304 H 0.70132 0.20436 0.95167 0.0
H1305 H 0.53566 0.00391 0.83762 0.0
H1306 H 0.4818 0.58859 0.53734 0.0
H1307 H 0.48865 0.62006 0.51173 0.0
H1308 H 0.55014 0.62584 0.48331 0.0
H1309 H 0.54353 0.59465 0.50919 0.0
H1310 H 0.55533 0.66632 0.49313 0.0
H1311 H 0.50078 0.59613 0.44673 0.0
H1312 H 0.46543 0.55908 0.44288 0.0
H1313 H 0.42378 0.58723 0.45049 0.0
H1314 H 0.45896 0.62446 0.45515 0.0
H1315 H 0.56576 0.71259 0.36592 0.0
H1316 H 0.56098 0.68877 0.40271 0.0
H1317 H 0.49963 0.68754 0.42281 0.0
H1318 H 0.50447 0.71168 0.38625 0.0
H1319 H 0.49317 0.64651 0.42037 0.0
H1320 H 0.54889 0.71753 0.46274 0.0
H1321 H 0.58492 0.75407 0.46658 0.0
H1322 H 0.62501 0.7239 0.46497 0.0
H1323 H 0.5892 0.68716 0.46071 0.0
C1324 C 0.49714 0.597 0.5263 0.0
C1325 C 0.51201 0.58906 0.52495 0.0
C1326 C 0.50095 0.61486 0.51155 0.0
C1327 C 0.51969 0.62501 0.49531 0.0
C1328 C 0.53553 0.61818 0.49564 0.0
C1329 C 0.53167 0.6003 0.51025 0.0
C1330 C 0.52154 0.64107 0.47577 0.0
C1331 C 0.5418 0.66201 0.47716 0.0
C1332 C 0.50373 0.63543 0.45513 0.0
C1333 C 0.48253 0.61308 0.45166 0.0
C1334 C 0.4841 0.59442 0.44784 0.0
C1335 C 0.4641 0.57339 0.44554 0.0
C1336 C 0.44239 0.57081 0.44654 0.0
C1337 C 0.44063 0.58926 0.44979 0.0
C1338 C 0.46059 0.61033 0.45231 0.0
C1339 C 0.55143 0.70753 0.37839 0.0
C1340 C 0.53554 0.71411 0.37318 0.0
C1341 C 0.54869 0.69386 0.39937 0.0
C1342 C 0.53008 0.68658 0.41565 0.0
C1343 C 0.51411 0.69299 0.41047 0.0
C1344 C 0.51686 0.7067 0.3895 0.0
C1345 C 0.52703 0.6718 0.43764 0.0
C1346 C 0.50657 0.651 0.43659 0.0
C1347 C 0.54475 0.67751 0.45842 0.0
C1348 C 0.56633 0.69959 0.4612 0.0
C1349 C 0.56538 0.71869 0.46301 0.0
C1350 C 0.58577 0.73943 0.46529 0.0
C1351 C 0.60724 0.74131 0.46596 0.0
C1352 C 0.60837 0.72242 0.46442 0.0
C1353 C 0.58803 0.70163 0.46211 0.0
H1354 H 0.62301 0.75738 0.46772 0.0
H1355 H 0.42692 0.55452 0.44469 0.0
H1356 H 0.52139 0.06707 0.58889 0.0
H1357 H 0.51796 0.0916 0.62059 0.0
H1358 H 0.49946 0.11832 0.55369 0.0
H1359 H 0.50308 0.09396 0.52187 0.0
H1360 H 0.5286 0.1505 0.58866 0.0
H1361 H 0.45864 0.08079 0.59593 0.0
H1362 H 0.43517 0.04118 0.60323 0.0
H1363 H 0.46824 0.05315 0.68362 0.0
H1364 H 0.49214 0.09281 0.67666 0.0
H1365 H 0.48668 0.20537 0.66568 0.0
H1366 H 0.48812 0.17917 0.63423 0.0
H1367 H 0.51212 0.15657 0.70086 0.0
H1368 H 0.51053 0.18273 0.73225 0.0
H1369 H 0.47997 0.12222 0.66636 0.0
H1370 H 0.54953 0.19214 0.65895 0.0
H1371 H 0.57221 0.23178 0.65172 0.0
H1372 H 0.53921 0.2193 0.57121 0.0
H1373 H 0.516 0.17959 0.57814 0.0
C1374 C 0.51631 0.07795 0.58088 0.0
C1375 C 0.51235 0.07833 0.5527 0.0
C1376 C 0.51438 0.09205 0.5991 0.0
C1377 C 0.50808 0.10669 0.5897 0.0
C1378 C 0.50434 0.10725 0.56157 0.0
C1379 C 0.50645 0.09327 0.54333 0.0
C1380 C 0.50556 0.12152 0.60907 0.0
C1381 C 0.51769 0.14421 0.6054 0.0
C1382 C 0.49174 0.11356 0.63139 0.0
C1383 C 0.47733 0.08974 0.63567 0.0
C1384 C 0.46102 0.07495 0.61509 0.0
C1385 C 0.44762 0.0525 0.61918 0.0
C1386 C 0.45025 0.04465 0.64385 0.0
C1387 C 0.46625 0.05925 0.66451 0.0
C1388 C 0.47971 0.08172 0.66051 0.0
C1389 C 0.49202 0.19462 0.67353 0.0
C1390 C 0.49846 0.19596 0.70129 0.0
C1391 C 0.49297 0.17974 0.65559 0.0
C1392 C 0.50047 0.16599 0.66507 0.0
C1393 C 0.50628 0.16695 0.69301 0.0
C1394 C 0.5054 0.18188 0.71092 0.0
C1395 C 0.5029 0.15109 0.64581 0.0
C1396 C 0.49082 0.12844 0.64956 0.0
C1397 C 0.51669 0.15907 0.62352 0.0
C1398 C 0.53086 0.1829 0.61916 0.0
C1399 C 0.54698 0.19786 0.63977 0.0
C1400 C 0.55995 0.22034 0.63572 0.0
C1401 C 0.55712 0.22806 0.61104 0.0
C1402 C 0.54136 0.2133 0.59033 0.0
C1403 C 0.5283 0.1908 0.59431 0.0
H1404 H 0.56718 0.24547 0.60794 0.0
H1405 H 0.43986 0.02725 0.64697 0.0
H1406 H 0.4543 0.473 0.07603 0.0
H1407 H 0.42039 0.47401 0.08588 0.0
H1408 H 0.42947 0.51328 0.01745 0.0
H1409 H 0.46412 0.51287 0.00784 0.0
H1410 H 0.42223 0.53067 0.05966 0.0
H1411 H 0.38322 0.45928 0.01689 0.0
H1412 H 0.37426 0.4217 0.0063 0.0
H1413 H 0.35687 0.40525 0.08801 0.0
H1414 H 0.36604 0.44282 0.09922 0.0
H1415 H 0.29503 0.47973 0.10606 0.0
H1416 H 0.32193 0.47963 0.07545 0.0
H1417 H 0.37949 0.52541 0.13144 0.0
H1418 H 0.3527 0.52593 0.16168 0.0
H1419 H 0.34881 0.46522 0.08322 0.0
H1420 H 0.4275 0.5552 0.10168 0.0
H1421 H 0.43484 0.5926 0.10824 0.0
H1422 H 0.36886 0.57134 0.06633 0.0
H1423 H 0.36137 0.53391 0.05923 0.0
C1424 C 0.44897 0.4816 0.06276 0.0
C1425 C 0.46197 0.49288 0.04115 0.0
C1426 C 0.42943 0.48206 0.06836 0.0
C1427 C 0.42216 0.49351 0.05224 0.0
C1428 C 0.43471 0.5043 0.03013 0.0
C1429 C 0.45443 0.50395 0.02458 0.0
C1430 C 0.40245 0.49533 0.05991 0.0
C1431 C 0.40605 0.51634 0.0645 0.0
C1432 C 0.38107 0.47663 0.06554 0.0
C1433 C 0.37542 0.45393 0.05892 0.0
C1434 C 0.37762 0.44769 0.03265 0.0
C1435 C 0.37248 0.42638 0.02653 0.0
C1436 C 0.36502 0.4111 0.04648 0.0
C1437 C 0.36264 0.4171 0.07258 0.0
C1438 C 0.36777 0.43839 0.07881 0.0
C1439 C 0.31346 0.49 0.11159 0.0
C1440 C 0.3218 0.50283 0.13624 0.0
C1441 C 0.32881 0.48994 0.0941 0.0
C1442 C 0.35278 0.50263 0.10097 0.0
C1443 C 0.36113 0.51587 0.1253 0.0
C1444 C 0.3458 0.51613 0.14265 0.0
C1445 C 0.36897 0.5006 0.08405 0.0
C1446 C 0.36474 0.47953 0.0778 0.0
C1447 C 0.38945 0.51921 0.07618 0.0
C1448 C 0.39391 0.54175 0.08002 0.0
C1449 C 0.41469 0.55858 0.0937 0.0
C1450 C 0.41884 0.57976 0.09756 0.0
C1451 C 0.40231 0.58435 0.08773 0.0
C1452 C 0.38163 0.56776 0.07399 0.0
C1453 C 0.37742 0.54655 0.07007 0.0
H1454 H 0.40553 0.60075 0.09075 0.0
H1455 H 0.36106 0.39461 0.0417 0.0
H1456 H 0.98256 0.41877 0.54832 0.0
H1457 H 0.9545 0.3926 0.57767 0.0
H1458 H 0.93387 0.43822 0.59749 0.0
H1459 H 0.96198 0.46473 0.5678 0.0
H1460 H 0.93422 0.41706 0.6417 0.0
H1461 H 0.90165 0.39533 0.54994 0.0
H1462 H 0.90065 0.3856 0.50156 0.0
H1463 H 0.90642 0.33089 0.52285 0.0
H1464 H 0.9078 0.34049 0.57141 0.0
H1465 H 0.82717 0.33718 0.69294 0.0
H1466 H 0.85678 0.36569 0.66696 0.0
H1467 H 0.87769 0.3212 0.64195 0.0
H1468 H 0.84751 0.29233 0.66695 0.0
H1469 H 0.87678 0.34262 0.60024 0.0
H1470 H 0.90952 0.36466 0.69239 0.0
H1471 H 0.91064 0.37472 0.74068 0.0
H1472 H 0.90427 0.42896 0.71867 0.0
H1473 H 0.9028 0.41904 0.67021 0.0
C1474 C 0.97228 0.42348 0.55906 0.0
C1475 C 0.97458 0.44396 0.55538 0.0
C1476 C 0.95605 0.40833 0.5758 0.0
C1477 C 0.94151 0.41311 0.58939 0.0
C1478 C 0.94461 0.434 0.58698 0.0
C1479 C 0.9608 0.44919 0.57004 0.0
C1480 C 0.92261 0.39602 0.60516 0.0
C1481 C 0.92149 0.40088 0.63251 0.0
C1482 C 0.90606 0.37468 0.5935 0.0
C1483 C 0.90505 0.36875 0.56432 0.0
C1484 C 0.90287 0.38131 0.54431 0.0
C1485 C 0.90221 0.37581 0.51686 0.0
C1486 C 0.90352 0.35767 0.50914 0.0
C1487 C 0.90544 0.34495 0.52886 0.0
C1488 C 0.90614 0.35041 0.55635 0.0
C1489 C 0.83786 0.3333 0.68173 0.0
C1490 C 0.83476 0.31225 0.6823 0.0
C1491 C 0.8551 0.34982 0.66707 0.0
C1492 C 0.86992 0.3459 0.65265 0.0
C1493 C 0.86669 0.32485 0.65292 0.0
C1494 C 0.84946 0.30832 0.66753 0.0
C1495 C 0.8885 0.3635 0.63696 0.0
C1496 C 0.8895 0.35876 0.60952 0.0
C1497 C 0.90489 0.38494 0.64856 0.0
C1498 C 0.9058 0.39096 0.67767 0.0
C1499 C 0.90818 0.37863 0.69784 0.0
C1500 C 0.9089 0.38432 0.72524 0.0
C1501 C 0.90745 0.40243 0.73273 0.0
C1502 C 0.90534 0.41492 0.71284 0.0
C1503 C 0.90458 0.40927 0.6854 0.0
H1504 H 0.90802 0.40682 0.75396 0.0
H1505 H 0.90301 0.35343 0.48787 0.0
H1506 H 0.58267 0.00471 0.11997 0.0
H1507 H 0.58758 0.9769 0.14174 0.0
H1508 H 0.52331 0.92561 0.10017 0.0
H1509 H 0.51785 0.95306 0.07942 0.0
H1510 H 0.52524 0.91772 0.15158 0.0
H1511 H 0.57643 0.93864 0.07962 0.0
H1512 H 0.60883 0.96449 0.05367 0.0
H1513 H 0.65609 0.98249 0.1244 0.0
H1514 H 0.62389 0.95694 0.15088 0.0
H1515 H 0.53049 0.8234 0.16531 0.0
H1516 H 0.5321 0.85455 0.14404 0.0
H1517 H 0.59155 0.89951 0.19808 0.0
H1518 H 0.58974 0.86852 0.22002 0.0
H1519 H 0.59432 0.9124 0.14347 0.0
H1520 H 0.54277 0.88985 0.21461 0.0
H1521 H 0.51016 0.86327 0.23973 0.0
H1522 H 0.46317 0.848 0.16942 0.0
H1523 H 0.49559 0.87421 0.14371 0.0
C1524 C 0.56956 0.98751 0.11562 0.0
C1525 C 0.54999 0.98115 0.09775 0.0
C1526 C 0.57248 0.97164 0.12786 0.0
C1527 C 0.55593 0.94917 0.12232 0.0
C1528 C 0.53635 0.94284 0.10466 0.0
C1529 C 0.53339 0.95862 0.09254 0.0
C1530 C 0.55849 0.93204 0.13521 0.0
C1531 C 0.54026 0.91646 0.14955 0.0
C1532 C 0.57835 0.93073 0.13319 0.0
C1533 C 0.59772 0.94608 0.1173 0.0
C1534 C 0.5937 0.94825 0.0897 0.0
C1535 C 0.61203 0.96282 0.07488 0.0
C1536 C 0.63449 0.97517 0.0874 0.0
C1537 C 0.63867 0.97294 0.11475 0.0
C1538 C 0.62039 0.95841 0.12966 0.0
C1539 C 0.54398 0.8399 0.17262 0.0
C1540 C 0.55982 0.84345 0.19458 0.0
C1541 C 0.54494 0.85766 0.16035 0.0
C1542 C 0.56178 0.87927 0.16975 0.0
C1543 C 0.57845 0.88293 0.19055 0.0
C1544 C 0.57742 0.86517 0.20298 0.0
C1545 C 0.56085 0.89791 0.15917 0.0
C1546 C 0.57938 0.91378 0.1455 0.0
C1547 C 0.54122 0.89949 0.16167 0.0
C1548 C 0.52165 0.88383 0.17715 0.0
C1549 C 0.52552 0.88068 0.20442 0.0
C1550 C 0.50706 0.8657 0.21878 0.0
C1551 C 0.48462 0.85391 0.20616 0.0
C1552 C 0.48057 0.85712 0.17916 0.0
C1553 C 0.49898 0.87204 0.16469 0.0
H1554 H 0.47035 0.84233 0.21731 0.0
H1555 H 0.64866 0.98644 0.07589 0.0
H1556 H 0.55942 0.5372 0.59594 0.0
H1557 H 0.59241 0.53683 0.61595 0.0
H1558 H 0.59063 0.4993 0.54554 0.0
H1559 H 0.5566 0.49917 0.52527 0.0
H1560 H 0.59713 0.48276 0.59176 0.0
H1561 H 0.6341 0.55387 0.55788 0.0
H1562 H 0.64075 0.59038 0.54905 0.0
H1563 H 0.65207 0.60767 0.63458 0.0
H1564 H 0.64516 0.57114 0.64397 0.0
H1565 H 0.70551 0.49913 0.64889 0.0
H1566 H 0.67625 0.49966 0.61803 0.0
H1567 H 0.66246 0.53223 0.6817 0.0
H1568 H 0.69143 0.53137 0.7126 0.0
H1569 H 0.66662 0.55135 0.63255 0.0
H1570 H 0.62572 0.47834 0.6655 0.0
H1571 H 0.62042 0.44223 0.6737 0.0
H1572 H 0.6181 0.42914 0.58811 0.0
H1573 H 0.62372 0.46534 0.57943 0.0
C1574 C 0.56602 0.52897 0.58438 0.0
C1575 C 0.55525 0.51827 0.55882 0.0
C1576 C 0.58513 0.52889 0.59593 0.0
C1577 C 0.59442 0.51832 0.58226 0.0
C1578 C 0.58392 0.5077 0.55653 0.0
C1579 C 0.56458 0.50778 0.54482 0.0
C1580 C 0.61458 0.51807 0.59573 0.0
C1581 C 0.61254 0.49782 0.60012 0.0
C1582 C 0.6347 0.53763 0.60714 0.0
C1583 C 0.63897 0.55968 0.60162 0.0
C1584 C 0.63785 0.5654 0.57482 0.0
C1585 C 0.64169 0.58611 0.56971 0.0
C1586 C 0.64679 0.60132 0.59124 0.0
C1587 C 0.64811 0.59587 0.61793 0.0
C1588 C 0.64427 0.57517 0.62315 0.0
C1589 C 0.69614 0.50632 0.65625 0.0
C1590 C 0.70068 0.51516 0.68316 0.0
C1591 C 0.67942 0.50661 0.63863 0.0
C1592 C 0.66697 0.51589 0.64749 0.0
C1593 C 0.67179 0.525 0.6743 0.0
C1594 C 0.68832 0.5245 0.69197 0.0
C1595 C 0.64889 0.51609 0.62904 0.0
C1596 C 0.65135 0.53634 0.6238 0.0
C1597 C 0.62932 0.49659 0.6167 0.0
C1598 C 0.62541 0.47464 0.62184 0.0
C1599 C 0.62424 0.46782 0.64844 0.0
C1600 C 0.62116 0.44734 0.65318 0.0
C1601 C 0.61905 0.43346 0.63145 0.0
C1602 C 0.61985 0.43997 0.60492 0.0
C1603 C 0.62294 0.46044 0.60008 0.0
H1604 H 0.61666 0.4176 0.63515 0.0
H1605 H 0.64976 0.61735 0.58724 0.0
H1606 H 0.03258 0.56214 0.12291 0.0
H1607 H 0.06629 0.59554 0.14423 0.0
H1608 H 0.08173 0.62383 0.06641 0.0
H1609 H 0.048 0.59022 0.04489 0.0
H1610 H 0.11954 0.62956 0.09216 0.0
H1611 H 0.06083 0.64259 0.11541 0.0
H1612 H 0.02406 0.63416 0.1329 0.0
H1613 H 0.04706 0.62587 0.21175 0.0
H1614 H 0.08385 0.63395 0.19465 0.0
H1615 H 0.21037 0.73247 0.16042 0.0
H1616 H 0.17538 0.70499 0.13207 0.0
H1617 H 0.15146 0.66385 0.1999 0.0
H1618 H 0.18615 0.69111 0.22792 0.0
H1619 H 0.11771 0.66874 0.17493 0.0
H1620 H 0.17454 0.65191 0.14963 0.0
H1621 H 0.21134 0.66059 0.13197 0.0
H1622 H 0.19159 0.67681 0.05638 0.0
H1623 H 0.15479 0.66853 0.07376 0.0
C1624 C 0.04284 0.57561 0.11039 0.0
C1625 C 0.03757 0.57353 0.0822 0.0
C1626 C 0.06216 0.59473 0.1226 0.0
C1627 C 0.07644 0.61233 0.10697 0.0
C1628 C 0.07098 0.61047 0.07888 0.0
C1629 C 0.05173 0.59126 0.06661 0.0
C1630 C 0.09767 0.63211 0.11988 0.0
C1631 C 0.11907 0.63842 0.10993 0.0
C1632 C 0.09715 0.64354 0.14326 0.0
C1633 C 0.07505 0.63874 0.15368 0.0
C1634 C 0.05799 0.63882 0.13644 0.0
C1635 C 0.03715 0.63413 0.14629 0.0
C1636 C 0.03321 0.62944 0.17341 0.0
C1637 C 0.05013 0.62949 0.19075 0.0
C1638 C 0.071 0.63416 0.18099 0.0
C1639 C 0.19766 0.71741 0.16898 0.0
C1640 C 0.20084 0.71368 0.19611 0.0
C1641 C 0.17775 0.70181 0.15292 0.0
C1642 C 0.16085 0.68239 0.16393 0.0
C1643 C 0.16422 0.67874 0.19105 0.0
C1644 C 0.18405 0.69421 0.20697 0.0
C1645 C 0.13946 0.66574 0.14757 0.0
C1646 C 0.11806 0.66007 0.15689 0.0
C1647 C 0.13999 0.65499 0.12358 0.0
C1648 C 0.16205 0.65987 0.11311 0.0
C1649 C 0.17813 0.65752 0.12933 0.0
C1650 C 0.19898 0.66233 0.11936 0.0
C1651 C 0.20384 0.66932 0.0931 0.0
C1652 C 0.18783 0.67144 0.07674 0.0
C1653 C 0.16698 0.66669 0.08663 0.0
H1654 H 0.21998 0.67303 0.08541 0.0
H1655 H 0.01706 0.62581 0.181 0.0
loop_
_geom_bond_atom_site_label_1
_geom_bond_atom_site_label_2
_geom_bond_distance
_geom_bond_site_symmetry_2
_ccdc_geom_bond_type
Cu0 N1 1.999 1_454 S
Cu0 O6 1.974 1_454 S
Cu0 N11 1.985 . S
Cu0 O20 1.959 . S
N1 Cu0 1.999 1_656 S
N1 C3 1.263 . S
N1 C5 1.389 1_556 S
N2 C3 1.358 . S
N2 C4 1.400 . S
C3 N1 1.263 . S
C3 N2 1.358 . S
C3 H9 0.930 . S
C4 N2 1.400 . S
C4 C5 1.351 1_556 S
C4 H21 0.930 . S
C5 N1 1.389 1_554 S
C5 C4 1.351 1_554 S
C5 H10 0.930 . S
O6 Cu0 1.974 1_656 S
O6 C16 1.282 . S
C7 O8 1.258 1_554 S
C7 O20 1.251 . S
O8 C7 1.258 1_556 S
H9 C3 0.930 . S
H10 C5 0.930 . S
N11 Cu0 1.985 . S
N11 C13 1.335 . S
N11 C14 1.390 . S
N12 C13 1.345 . S
N12 C15 1.336 . S
C13 N11 1.335 . S
C13 N12 1.345 . S
C13 H18 0.930 . S
C14 N11 1.390 . S
C14 C15 1.346 . S
C14 H19 0.930 1_554 S
C15 N12 1.336 . S
C15 C14 1.346 . S
C15 H22 0.929 . S
C16 O6 1.282 . S
C16 O17 1.216 1_655 S
O17 C16 1.216 1_455 S
H18 C13 0.930 . S
H19 C14 0.930 1_556 S
O20 Cu0 1.959 . S
O20 C7 1.251 . S
H21 C4 0.930 . S
H22 C15 0.929 . S
Cu23 N24 1.999 . S
Cu23 O29 1.974 . S
Cu23 N34 1.985 1_565 S
Cu23 O43 1.959 1_565 S
N24 Cu23 1.999 . S
N24 C26 1.263 . S
N24 C28 1.389 . S
N25 C26 1.358 . S
N25 C27 1.400 . S
C26 N24 1.263 . S
C26 N25 1.358 . S
C26 H32 0.930 . S
C27 N25 1.400 . S
C27 C28 1.351 . S
C27 H44 0.930 . S
C28 N24 1.389 . S
C28 C27 1.351 . S
C28 H33 0.930 . S
O29 Cu23 1.974 . S
O29 C39 1.282 . S
C30 O31 1.261 . S
C30 O43 1.251 . S
O31 C30 1.261 . S
H32 C26 0.930 . S
H33 C28 0.930 . S
N34 Cu23 1.985 1_545 S
N34 C36 1.335 . S
N34 C37 1.390 . S
N35 C36 1.345 . S
N35 C38 1.336 . S
C36 N34 1.335 . S
C36 N35 1.345 . S
C36 H41 0.930 . S
C37 N34 1.390 . S
C37 C38 1.346 . S
C37 H42 0.930 . S
C38 N35 1.336 . S
C38 C37 1.346 . S
C38 H45 0.929 . S
C39 O29 1.282 . S
C39 O40 1.216 . S
O40 C39 1.216 . S
H41 C36 0.930 . S
H42 C37 0.930 . S
O43 Cu23 1.959 1_545 S
O43 C30 1.251 . S
H44 C27 0.930 . S
H45 C38 0.929 . S
Cu46 N47 1.999 1_554 S
Cu46 O52 1.974 1_554 S
Cu46 N57 1.985 . S
Cu46 O66 1.959 . S
N47 Cu46 1.999 1_556 S
N47 C49 1.263 . S
N47 C51 1.389 . S
N48 C49 1.358 . S
N48 C50 1.400 . S
C49 N47 1.263 . S
C49 N48 1.358 . S
C49 H55 0.930 . S
C50 N48 1.400 . S
C50 C51 1.351 . S
C50 H67 0.930 . S
C51 N47 1.389 . S
C51 C50 1.351 . S
C51 H56 0.930 . S
O52 Cu46 1.974 1_556 S
O52 C62 1.282 . S
C53 O54 1.261 . S
C53 O66 1.251 . S
O54 C53 1.261 . S
H55 C49 0.930 . S
H56 C51 0.930 . S
N57 Cu46 1.985 . S
N57 C59 1.335 . S
N57 C60 1.390 . S
N58 C59 1.345 . S
N58 C61 1.336 . S
C59 N57 1.335 . S
C59 N58 1.345 . S
C59 H64 0.930 . S
C60 N57 1.390 . S
C60 C61 1.346 . S
C60 H65 0.930 . S
C61 N58 1.336 . S
C61 C60 1.346 . S
C61 H68 0.929 . S
C62 O52 1.282 . S
C62 O63 1.216 1_556 S
O63 C62 1.216 1_554 S
H64 C59 0.930 . S
H65 C60 0.930 . S
O66 Cu46 1.959 . S
O66 C53 1.251 . S
H67 C50 0.930 . S
H68 C61 0.929 . S
Cu69 N70 1.999 1_655 S
Cu69 O75 1.974 1_655 S
Cu69 N80 1.985 . S
Cu69 O89 1.959 . S
N70 Cu69 1.999 1_455 S
N70 C72 1.263 . S
N70 C74 1.389 1_455 S
N71 C72 1.358 . S
N71 C73 1.400 . S
C72 N70 1.263 . S
C72 N71 1.358 . S
C72 H78 0.930 . S
C73 N71 1.400 . S
C73 C74 1.351 1_455 S
C73 H90 0.930 . S
C74 N70 1.389 1_655 S
C74 C73 1.351 1_655 S
C74 H79 0.930 . S
O75 Cu69 1.974 1_455 S
O75 C85 1.282 . S
C76 O77 1.261 1_655 S
C76 O89 1.251 . S
O77 C76 1.261 1_455 S
H78 C72 0.930 . S
H79 C74 0.930 . S
N80 Cu69 1.985 . S
N80 C82 1.335 . S
N80 C83 1.390 . S
N81 C82 1.345 . S
N81 C84 1.336 . S
C82 N80 1.335 . S
C82 N81 1.345 . S
C82 H87 0.930 . S
C83 N80 1.390 . S
C83 C84 1.346 . S
C83 H88 0.930 1_655 S
C84 N81 1.336 . S
C84 C83 1.346 . S
C84 H91 0.929 . S
C85 O75 1.282 . S
C85 O86 1.216 . S
O86 C85 1.216 . S
H87 C82 0.930 . S
H88 C83 0.930 1_455 S
O89 Cu69 1.959 . S
O89 C76 1.251 . S
H90 C73 0.930 . S
H91 C84 0.929 . S
Cu92 N93 1.999 . S
Cu92 O98 1.973 . S
Cu92 N103 1.985 1_545 S
Cu92 O112 1.959 1_545 S
N93 Cu92 1.999 . S
N93 C95 1.263 1_554 S
N93 C97 1.389 . S
N94 C95 1.358 . S
N94 C96 1.400 1_556 S
C95 N93 1.263 1_556 S
C95 N94 1.358 . S
C95 H101 0.930 . S
C96 N94 1.400 1_554 S
C96 C97 1.351 . S
C96 H113 0.930 . S
C97 N93 1.389 . S
C97 C96 1.351 . S
C97 H102 0.930 . S
O98 Cu92 1.973 . S
O98 C108 1.283 1_554 S
C99 O100 1.261 . S
C99 O112 1.251 . S
O100 C99 1.261 . S
H101 C95 0.930 . S
H102 C97 0.930 . S
N103 Cu92 1.985 1_565 S
N103 C105 1.335 . S
N103 C106 1.390 . S
N104 C105 1.345 . S
N104 C107 1.336 . S
C105 N103 1.335 . S
C105 N104 1.345 . S
C105 H110 0.930 . S
C106 N103 1.390 . S
C106 C107 1.346 . S
C106 H111 0.919 1_565 S
C107 N104 1.336 . S
C107 C106 1.346 . S
C107 H114 0.929 . S
C108 O98 1.283 1_556 S
C108 O109 1.216 . S
O109 C108 1.216 . S
H110 C105 0.930 . S
H111 C106 0.919 1_545 S
O112 Cu92 1.959 1_565 S
O112 C99 1.251 . S
H113 C96 0.930 . S
H114 C107 0.929 . S
Cu115 N116 1.999 . S
Cu115 O121 1.974 . S
Cu115 N126 1.985 . S
Cu115 O135 1.959 . S
N116 Cu115 1.999 . S
N116 C118 1.263 . S
N116 C120 1.389 . S
N117 C118 1.358 . S
N117 C119 1.400 . S
C118 N116 1.263 . S
C118 N117 1.358 . S
C118 H124 0.930 . S
C119 N117 1.400 . S
C119 C120 1.351 . S
C119 H136 0.930 . S
C120 N116 1.389 . S
C120 C119 1.351 . S
C120 H125 0.930 . S
O121 Cu115 1.974 . S
O121 C131 1.282 . S
C122 O123 1.261 . S
C122 O135 1.251 . S
O123 C122 1.261 . S
H124 C118 0.930 . S
H125 C120 0.930 . S
N126 Cu115 1.985 . S
N126 C128 1.335 . S
N126 C129 1.390 . S
N127 C128 1.345 . S
N127 C130 1.336 . S
C128 N126 1.335 . S
C128 N127 1.345 . S
C128 H133 0.930 . S
C129 N126 1.390 . S
C129 C130 1.346 . S
C129 H134 0.930 . S
C130 N127 1.336 . S
C130 C129 1.346 . S
C130 H137 0.929 . S
C131 O121 1.282 . S
C131 O132 1.216 . S
O132 C131 1.216 . S
H133 C128 0.930 . S
H134 C129 0.930 . S
O135 Cu115 1.959 . S
O135 C122 1.251 . S
H136 C119 0.930 . S
H137 C130 0.929 . S
C138 C139 1.443 . S
C138 N142 1.376 . S
C138 C176 1.389 . S
C139 C138 1.443 . S
C139 C140 1.340 . S
C139 H179 0.951 . S
C140 C139 1.340 . S
C140 C141 1.439 . S
C140 H180 0.950 . S
C141 C140 1.439 . S
C141 N142 1.374 . S
C141 C175 1.395 . S
N142 C138 1.376 . S
N142 C141 1.374 . S
N142 Co143 2.008 . S
Co143 N142 2.008 . S
Co143 N144 1.995 . S
Co143 N149 2.008 . S
Co143 N154 1.995 . S
Co143 N159 2.282 . S
Co143 N165 2.282 . S
N144 Co143 1.995 . S
N144 C145 1.376 . S
N144 C148 1.383 . S
C145 N144 1.376 . S
C145 C146 1.446 . S
C145 C175 1.391 . S
C146 C145 1.446 . S
C146 C147 1.339 . S
C146 H181 0.949 . S
C147 C146 1.339 . S
C147 C148 1.439 . S
C147 H182 0.950 . S
C148 N144 1.383 . S
C148 C147 1.439 . S
C148 C177 1.392 . S
N149 Co143 2.008 . S
N149 C150 1.376 . S
N149 C153 1.374 . S
C150 N149 1.376 . S
C150 C151 1.443 . S
C150 C177 1.389 . S
C151 C150 1.443 . S
C151 C152 1.340 . S
C151 H183 0.951 . S
C152 C151 1.340 . S
C152 C153 1.439 . S
C152 H184 0.950 . S
C153 N149 1.374 . S
C153 C152 1.439 . S
C153 C178 1.395 . S
N154 Co143 1.995 . S
N154 C155 1.376 . S
N154 C158 1.383 . S
C155 N154 1.376 . S
C155 C156 1.446 . S
C155 C178 1.391 . S
C156 C155 1.446 . S
C156 C157 1.339 . S
C156 H185 0.949 . S
C157 C156 1.339 . S
C157 C158 1.439 . S
C157 H186 0.950 . S
C158 N154 1.383 . S
C158 C157 1.439 . S
C158 C176 1.392 . S
N159 Co143 2.282 . S
N159 C162 1.332 . S
N159 C164 1.332 . S
C160 C161 1.386 . S
C160 C163 1.388 . S
C161 C160 1.386 . S
C161 C162 1.382 . S
C161 H187 0.950 . S
C162 N159 1.332 . S
C162 C161 1.382 . S
C162 H173 0.952 . S
C163 C160 1.388 . S
C163 C164 1.382 . S
C163 H188 0.950 . S
C164 N159 1.332 . S
C164 C163 1.382 . S
C164 H174 0.948 . S
N165 Co143 2.282 . S
N165 C169 1.332 . S
N165 C170 1.332 . S
C166 C167 1.388 . S
C166 C170 1.382 . S
C166 H189 0.950 . S
C167 C166 1.388 . S
C167 C168 1.386 . S
C168 C167 1.386 . S
C168 C169 1.382 . S
C168 H190 0.950 . S
C169 N165 1.332 . S
C169 C168 1.382 . S
C169 H171 0.952 . S
C170 N165 1.332 . S
C170 C166 1.382 . S
C170 H172 0.948 . S
H171 C169 0.952 . S
H172 C170 0.948 . S
H173 C162 0.952 . S
H174 C164 0.948 . S
C175 C141 1.395 . S
C175 C145 1.391 . S
C176 C138 1.389 . S
C176 C158 1.392 . S
C177 C148 1.392 . S
C177 C150 1.389 . S
C178 C153 1.395 . S
C178 C155 1.391 . S
H179 C139 0.951 . S
H180 C140 0.950 . S
H181 C146 0.949 . S
H182 C147 0.950 . S
H183 C151 0.951 . S
H184 C152 0.950 . S
H185 C156 0.949 . S
H186 C157 0.950 . S
H187 C161 0.950 . S
H188 C163 0.950 . S
H189 C166 0.950 . S
H190 C168 0.950 . S
C191 C192 1.443 . S
C191 N195 1.376 . S
C191 C229 1.389 . S
C192 C191 1.443 . S
C192 C193 1.340 . S
C192 H232 0.951 . S
C193 C192 1.340 . S
C193 C194 1.439 . S
C193 H233 0.950 . S
C194 C193 1.439 . S
C194 N195 1.374 . S
C194 C228 1.395 . S
N195 C191 1.376 . S
N195 C194 1.374 . S
N195 Co196 2.008 . S
Co196 N195 2.008 . S
Co196 N197 1.995 . S
Co196 N202 2.008 . S
Co196 N207 1.995 . S
Co196 N212 2.282 . S
Co196 N218 2.282 . S
N197 Co196 1.995 . S
N197 C198 1.376 . S
N197 C201 1.383 . S
C198 N197 1.376 . S
C198 C199 1.446 . S
C198 C228 1.391 . S
C199 C198 1.446 . S
C199 C200 1.339 . S
C199 H234 0.949 . S
C200 C199 1.339 . S
C200 C201 1.439 . S
C200 H235 0.950 . S
C201 N197 1.383 . S
C201 C200 1.439 . S
C201 C230 1.392 . S
N202 Co196 2.008 . S
N202 C203 1.376 . S
N202 C206 1.374 . S
C203 N202 1.376 . S
C203 C204 1.443 . S
C203 C230 1.389 . S
C204 C203 1.443 . S
C204 C205 1.340 . S
C204 H236 0.951 . S
C205 C204 1.340 . S
C205 C206 1.439 . S
C205 H237 0.950 . S
C206 N202 1.374 . S
C206 C205 1.439 . S
C206 C231 1.395 . S
N207 Co196 1.995 . S
N207 C208 1.376 . S
N207 C211 1.383 . S
C208 N207 1.376 . S
C208 C209 1.446 . S
C208 C231 1.391 . S
C209 C208 1.446 . S
C209 C210 1.339 . S
C209 H238 0.949 . S
C210 C209 1.339 . S
C210 C211 1.439 . S
C210 H239 0.950 . S
C211 N207 1.383 . S
C211 C210 1.439 . S
C211 C229 1.392 . S
N212 Co196 2.282 . S
N212 C215 1.332 . S
N212 C217 1.332 . S
C213 C214 1.386 . S
C213 C216 1.388 . S
C214 C213 1.386 . S
C214 C215 1.382 . S
C214 H240 0.950 . S
C215 N212 1.332 . S
C215 C214 1.382 . S
C215 H226 0.952 . S
C216 C213 1.388 . S
C216 C217 1.382 . S
C216 H241 0.950 . S
C217 N212 1.332 . S
C217 C216 1.382 . S
C217 H227 0.948 . S
N218 Co196 2.282 . S
N218 C222 1.332 . S
N218 C223 1.332 . S
C219 C220 1.388 . S
C219 C223 1.382 . S
C219 H242 0.950 . S
C220 C219 1.388 . S
C220 C221 1.386 . S
C221 C220 1.386 . S
C221 C222 1.382 . S
C221 H243 0.950 . S
C222 N218 1.332 . S
C222 C221 1.382 . S
C222 H224 0.952 . S
C223 N218 1.332 . S
C223 C219 1.382 . S
C223 H225 0.948 . S
H224 C222 0.952 . S
H225 C223 0.948 . S
H226 C215 0.952 . S
H227 C217 0.948 . S
C228 C194 1.395 . S
C228 C198 1.391 . S
C229 C191 1.389 . S
C229 C211 1.392 . S
C230 C201 1.392 . S
C230 C203 1.389 . S
C231 C206 1.395 . S
C231 C208 1.391 . S
H232 C192 0.951 . S
H233 C193 0.950 . S
H234 C199 0.949 . S
H235 C200 0.950 . S
H236 C204 0.951 . S
H237 C205 0.950 . S
H238 C209 0.949 . S
H239 C210 0.950 . S
H240 C214 0.950 . S
H241 C216 0.950 . S
H242 C219 0.950 . S
H243 C221 0.950 . S
C244 C245 1.443 . S
C244 N248 1.376 . S
C244 C282 1.389 . S
C245 C244 1.443 . S
C245 C246 1.340 . S
C245 H285 0.951 . S
C246 C245 1.340 . S
C246 C247 1.439 . S
C246 H286 0.950 . S
C247 C246 1.439 . S
C247 N248 1.374 . S
C247 C281 1.395 . S
N248 C244 1.376 . S
N248 C247 1.374 . S
N248 Co249 2.008 . S
Co249 N248 2.008 . S
Co249 N250 1.995 . S
Co249 N255 2.008 . S
Co249 N260 1.995 . S
Co249 N265 2.282 . S
Co249 N271 2.282 . S
N250 Co249 1.995 . S
N250 C251 1.376 . S
N250 C254 1.383 . S
C251 N250 1.376 . S
C251 C252 1.446 . S
C251 C281 1.391 . S
C252 C251 1.446 . S
C252 C253 1.339 . S
C252 H287 0.949 . S
C253 C252 1.339 . S
C253 C254 1.439 . S
C253 H288 0.950 . S
C254 N250 1.383 . S
C254 C253 1.439 . S
C254 C283 1.392 . S
N255 Co249 2.008 . S
N255 C256 1.376 . S
N255 C259 1.374 . S
C256 N255 1.376 . S
C256 C257 1.443 . S
C256 C283 1.389 . S
C257 C256 1.443 . S
C257 C258 1.340 . S
C257 H289 0.951 . S
C258 C257 1.340 . S
C258 C259 1.439 . S
C258 H290 0.950 . S
C259 N255 1.374 . S
C259 C258 1.439 . S
C259 C284 1.395 . S
N260 Co249 1.995 . S
N260 C261 1.376 . S
N260 C264 1.383 . S
C261 N260 1.376 . S
C261 C262 1.446 . S
C261 C284 1.391 . S
C262 C261 1.446 . S
C262 C263 1.339 . S
C262 H291 0.949 . S
C263 C262 1.339 . S
C263 C264 1.439 . S
C263 H292 0.950 . S
C264 N260 1.383 . S
C264 C263 1.439 . S
C264 C282 1.392 . S
N265 Co249 2.282 . S
N265 C268 1.332 . S
N265 C270 1.332 . S
C266 C267 1.386 . S
C266 C269 1.388 . S
C267 C266 1.386 . S
C267 C268 1.382 . S
C267 H293 0.950 . S
C268 N265 1.332 . S
C268 C267 1.382 . S
C268 H279 0.952 . S
C269 C266 1.388 . S
C269 C270 1.382 . S
C269 H294 0.950 . S
C270 N265 1.332 . S
C270 C269 1.382 . S
C270 H280 0.948 . S
N271 Co249 2.282 . S
N271 C275 1.332 . S
N271 C276 1.332 . S
C272 C273 1.388 . S
C272 C276 1.382 . S
C272 H295 0.950 . S
C273 C272 1.388 . S
C273 C274 1.386 . S
C274 C273 1.386 . S
C274 C275 1.382 . S
C274 H296 0.950 . S
C275 N271 1.332 . S
C275 C274 1.382 . S
C275 H277 0.952 . S
C276 N271 1.332 . S
C276 C272 1.382 . S
C276 H278 0.948 . S
H277 C275 0.952 . S
H278 C276 0.948 . S
H279 C268 0.952 . S
H280 C270 0.948 . S
C281 C247 1.395 . S
C281 C251 1.391 . S
C282 C244 1.389 . S
C282 C264 1.392 . S
C283 C254 1.392 . S
C283 C256 1.389 . S
C284 C259 1.395 . S
C284 C261 1.391 . S
H285 C245 0.951 . S
H286 C246 0.950 . S
H287 C252 0.949 . S
H288 C253 0.950 . S
H289 C257 0.951 . S
H290 C258 0.950 . S
H291 C262 0.949 . S
H292 C263 0.950 . S
H293 C267 0.950 . S
H294 C269 0.950 . S
H295 C272 0.950 . S
H296 C274 0.950 . S
C297 C298 1.443 . S
C297 N301 1.376 . S
C297 C335 1.389 . S
C298 C297 1.443 . S
C298 C299 1.340 . S
C298 H338 0.951 . S
C299 C298 1.340 . S
C299 C300 1.439 . S
C299 H339 0.950 . S
C300 C299 1.439 . S
C300 N301 1.374 . S
C300 C334 1.395 . S
N301 C297 1.376 . S
N301 C300 1.374 . S
N301 Co302 2.008 . S
Co302 N301 2.008 . S
Co302 N303 1.995 . S
Co302 N308 2.008 . S
Co302 N313 1.995 . S
Co302 N318 2.282 . S
Co302 N324 2.282 . S
N303 Co302 1.995 . S
N303 C304 1.376 . S
N303 C307 1.383 . S
C304 N303 1.376 . S
C304 C305 1.446 . S
C304 C334 1.391 . S
C305 C304 1.446 . S
C305 C306 1.339 . S
C305 H340 0.949 . S
C306 C305 1.339 . S
C306 C307 1.439 . S
C306 H341 0.950 . S
C307 N303 1.383 . S
C307 C306 1.439 . S
C307 C336 1.392 . S
N308 Co302 2.008 . S
N308 C309 1.376 . S
N308 C312 1.374 . S
C309 N308 1.376 . S
C309 C310 1.443 . S
C309 C336 1.389 . S
C310 C309 1.443 . S
C310 C311 1.340 . S
C310 H342 0.951 . S
C311 C310 1.340 . S
C311 C312 1.439 . S
C311 H343 0.950 . S
C312 N308 1.374 . S
C312 C311 1.439 . S
C312 C337 1.395 . S
N313 Co302 1.995 . S
N313 C314 1.376 . S
N313 C317 1.383 . S
C314 N313 1.376 . S
C314 C315 1.446 . S
C314 C337 1.391 . S
C315 C314 1.446 . S
C315 C316 1.339 . S
C315 H344 0.949 . S
C316 C315 1.339 . S
C316 C317 1.439 . S
C316 H345 0.950 . S
C317 N313 1.383 . S
C317 C316 1.439 . S
C317 C335 1.392 . S
N318 Co302 2.282 . S
N318 C321 1.332 . S
N318 C323 1.332 . S
C319 C320 1.386 . S
C319 C322 1.388 . S
C320 C319 1.386 . S
C320 C321 1.382 . S
C320 H346 0.950 . S
C321 N318 1.332 . S
C321 C320 1.382 . S
C321 H332 0.952 . S
C322 C319 1.388 . S
C322 C323 1.382 . S
C322 H347 0.950 . S
C323 N318 1.332 . S
C323 C322 1.382 . S
C323 H333 0.948 . S
N324 Co302 2.282 . S
N324 C328 1.332 . S
N324 C329 1.332 . S
C325 C326 1.388 . S
C325 C329 1.382 . S
C325 H348 0.950 . S
C326 C325 1.388 . S
C326 C327 1.386 . S
C327 C326 1.386 . S
C327 C328 1.382 . S
C327 H349 0.950 . S
C328 N324 1.332 . S
C328 C327 1.382 . S
C328 H330 0.952 . S
C329 N324 1.332 . S
C329 C325 1.382 . S
C329 H331 0.948 . S
H330 C328 0.952 . S
H331 C329 0.948 . S
H332 C321 0.952 . S
H333 C323 0.948 . S
C334 C300 1.395 . S
C334 C304 1.391 . S
C335 C297 1.389 . S
C335 C317 1.392 . S
C336 C307 1.392 . S
C336 C309 1.389 . S
C337 C312 1.395 . S
C337 C314 1.391 . S
H338 C298 0.951 . S
H339 C299 0.950 . S
H340 C305 0.949 . S
H341 C306 0.950 . S
H342 C310 0.951 . S
H343 C311 0.950 . S
H344 C315 0.949 . S
H345 C316 0.950 . S
H346 C320 0.950 . S
H347 C322 0.950 . S
H348 C325 0.950 . S
H349 C327 0.950 . S
C350 C351 1.443 . S
C350 N354 1.376 . S
C350 C388 1.389 . S
C351 C350 1.443 . S
C351 C352 1.340 . S
C351 H391 0.951 . S
C352 C351 1.340 . S
C352 C353 1.439 . S
C352 H392 0.950 . S
C353 C352 1.439 . S
C353 N354 1.374 . S
C353 C387 1.395 . S
N354 C350 1.376 . S
N354 C353 1.374 . S
N354 Co355 2.008 . S
Co355 N354 2.008 . S
Co355 N356 1.995 . S
Co355 N361 2.008 . S
Co355 N366 1.995 . S
Co355 N371 2.282 . S
Co355 N377 2.282 . S
N356 Co355 1.995 . S
N356 C357 1.376 . S
N356 C360 1.383 . S
C357 N356 1.376 . S
C357 C358 1.446 . S
C357 C387 1.391 . S
C358 C357 1.446 . S
C358 C359 1.339 . S
C358 H393 0.949 . S
C359 C358 1.339 . S
C359 C360 1.439 . S
C359 H394 0.950 . S
C360 N356 1.383 . S
C360 C359 1.439 . S
C360 C389 1.392 . S
N361 Co355 2.008 . S
N361 C362 1.376 . S
N361 C365 1.374 . S
C362 N361 1.376 . S
C362 C363 1.443 . S
C362 C389 1.389 . S
C363 C362 1.443 . S
C363 C364 1.340 . S
C363 H395 0.951 . S
C364 C363 1.340 . S
C364 C365 1.439 . S
C364 H396 0.950 . S
C365 N361 1.374 . S
C365 C364 1.439 . S
C365 C390 1.395 . S
N366 Co355 1.995 . S
N366 C367 1.376 . S
N366 C370 1.383 . S
C367 N366 1.376 . S
C367 C368 1.446 . S
C367 C390 1.391 . S
C368 C367 1.446 . S
C368 C369 1.339 . S
C368 H397 0.949 . S
C369 C368 1.339 . S
C369 C370 1.439 . S
C369 H398 0.950 . S
C370 N366 1.383 . S
C370 C369 1.439 . S
C370 C388 1.392 . S
N371 Co355 2.282 . S
N371 C374 1.332 . S
N371 C376 1.332 . S
C372 C373 1.386 . S
C372 C375 1.388 . S
C373 C372 1.386 . S
C373 C374 1.382 . S
C373 H399 0.950 . S
C374 N371 1.332 . S
C374 C373 1.382 . S
C374 H385 0.952 . S
C375 C372 1.388 . S
C375 C376 1.382 . S
C375 H400 0.950 . S
C376 N371 1.332 . S
C376 C375 1.382 . S
C376 H386 0.948 . S
N377 Co355 2.282 . S
N377 C381 1.332 . S
N377 C382 1.332 . S
C378 C379 1.388 . S
C378 C382 1.382 . S
C378 H401 0.950 . S
C379 C378 1.388 . S
C379 C380 1.386 . S
C380 C379 1.386 . S
C380 C381 1.382 . S
C380 H402 0.950 . S
C381 N377 1.332 . S
C381 C380 1.382 . S
C381 H383 0.952 . S
C382 N377 1.332 . S
C382 C378 1.382 . S
C382 H384 0.948 . S
H383 C381 0.952 . S
H384 C382 0.948 . S
H385 C374 0.952 . S
H386 C376 0.948 . S
C387 C353 1.395 . S
C387 C357 1.391 . S
C388 C350 1.389 . S
C388 C370 1.392 . S
C389 C360 1.392 . S
C389 C362 1.389 . S
C390 C365 1.395 . S
C390 C367 1.391 . S
H391 C351 0.951 . S
H392 C352 0.950 . S
H393 C358 0.949 . S
H394 C359 0.950 . S
H395 C363 0.951 . S
H396 C364 0.950 . S
H397 C368 0.949 . S
H398 C369 0.950 . S
H399 C373 0.950 . S
H400 C375 0.950 . S
H401 C378 0.950 . S
H402 C380 0.950 . S
C403 C404 1.443 . S
C403 N407 1.376 . S
C403 C441 1.389 . S
C404 C403 1.443 . S
C404 C405 1.340 . S
C404 H444 0.951 . S
C405 C404 1.340 . S
C405 C406 1.439 . S
C405 H445 0.950 . S
C406 C405 1.439 . S
C406 N407 1.374 . S
C406 C440 1.395 . S
N407 C403 1.376 . S
N407 C406 1.374 . S
N407 Co408 2.008 . S
Co408 N407 2.008 . S
Co408 N409 1.995 . S
Co408 N414 2.008 . S
Co408 N419 1.995 . S
Co408 N424 2.282 . S
Co408 N430 2.282 . S
N409 Co408 1.995 . S
N409 C410 1.376 . S
N409 C413 1.383 . S
C410 N409 1.376 . S
C410 C411 1.446 . S
C410 C440 1.391 . S
C411 C410 1.446 . S
C411 C412 1.339 . S
C411 H446 0.949 . S
C412 C411 1.339 . S
C412 C413 1.439 . S
C412 H447 0.950 . S
C413 N409 1.383 . S
C413 C412 1.439 . S
C413 C442 1.392 . S
N414 Co408 2.008 . S
N414 C415 1.376 . S
N414 C418 1.374 . S
C415 N414 1.376 . S
C415 C416 1.443 . S
C415 C442 1.389 . S
C416 C415 1.443 . S
C416 C417 1.340 . S
C416 H448 0.951 . S
C417 C416 1.340 . S
C417 C418 1.439 . S
C417 H449 0.950 . S
C418 N414 1.374 . S
C418 C417 1.439 . S
C418 C443 1.395 . S
N419 Co408 1.995 . S
N419 C420 1.376 . S
N419 C423 1.383 . S
C420 N419 1.376 . S
C420 C421 1.446 . S
C420 C443 1.391 . S
C421 C420 1.446 . S
C421 C422 1.339 . S
C421 H450 0.949 . S
C422 C421 1.339 . S
C422 C423 1.439 . S
C422 H451 0.950 . S
C423 N419 1.383 . S
C423 C422 1.439 . S
C423 C441 1.392 . S
N424 Co408 2.282 . S
N424 C427 1.332 . S
N424 C429 1.332 . S
C425 C426 1.386 . S
C425 C428 1.388 . S
C426 C425 1.386 . S
C426 C427 1.382 . S
C426 H452 0.950 . S
C427 N424 1.332 . S
C427 C426 1.382 . S
C427 H438 0.952 . S
C428 C425 1.388 . S
C428 C429 1.382 . S
C428 H453 0.950 . S
C429 N424 1.332 . S
C429 C428 1.382 . S
C429 H439 0.948 . S
N430 Co408 2.282 . S
N430 C434 1.332 . S
N430 C435 1.332 . S
C431 C432 1.388 . S
C431 C435 1.382 . S
C431 H454 0.950 . S
C432 C431 1.388 . S
C432 C433 1.386 . S
C433 C432 1.386 . S
C433 C434 1.382 . S
C433 H455 0.950 . S
C434 N430 1.332 . S
C434 C433 1.382 . S
C434 H436 0.952 . S
C435 N430 1.332 . S
C435 C431 1.382 . S
C435 H437 0.948 . S
H436 C434 0.952 . S
H437 C435 0.948 . S
H438 C427 0.952 . S
H439 C429 0.948 . S
C440 C406 1.395 . S
C440 C410 1.391 . S
C441 C403 1.389 . S
C441 C423 1.392 . S
C442 C413 1.392 . S
C442 C415 1.389 . S
C443 C418 1.395 . S
C443 C420 1.391 . S
H444 C404 0.951 . S
H445 C405 0.950 . S
H446 C411 0.949 . S
H447 C412 0.950 . S
H448 C416 0.951 . S
H449 C417 0.950 . S
H450 C421 0.949 . S
H451 C422 0.950 . S
H452 C426 0.950 . S
H453 C428 0.950 . S
H454 C431 0.950 . S
H455 C433 0.950 . S
H456 C474 0.951 . S
H457 C476 0.951 . S
H458 C478 0.950 . S
H459 C479 0.950 . S
H460 C481 0.950 . S
H461 C484 0.950 . S
H462 C485 0.950 . S
H463 C487 0.950 . S
H464 C488 0.950 . S
H465 C489 0.951 . S
H466 C491 0.951 . S
H467 C493 0.950 . S
H468 C494 0.950 . S
H469 C496 0.950 . S
H470 C499 0.950 . S
H471 C500 0.950 . S
H472 C502 0.950 . S
H473 C503 0.950 . S
C474 H456 0.951 . S
C474 C475 1.366 . S
C474 C476 1.388 . S
C475 C474 1.366 . S
C475 C479 1.385 . S
C476 H457 0.951 . S
C476 C474 1.388 . S
C476 C477 1.366 . S
C477 C476 1.366 . S
C477 C478 1.414 . S
C477 C480 1.499 . S
C478 H458 0.950 . S
C478 C477 1.414 . S
C478 C479 1.374 . S
C479 H459 0.950 . S
C479 C475 1.385 . S
C479 C478 1.374 . S
C480 C477 1.499 . S
C480 C481 1.373 . S
C480 C482 1.389 . S
C481 H460 0.950 . S
C481 C480 1.373 . S
C481 C497 1.377 . S
C482 C480 1.389 . S
C482 C483 1.524 . S
C482 C496 1.377 . S
C483 C482 1.524 . S
C483 C484 1.397 . S
C483 C488 1.363 . S
C484 H461 0.950 . S
C484 C483 1.397 . S
C484 C485 1.334 . S
C485 H462 0.950 . S
C485 C484 1.334 . S
C485 C486 1.287 . S
C486 C485 1.287 . S
C486 C487 1.524 . S
C486 H505 0.913 1_554 S
C487 H463 0.950 . S
C487 C486 1.524 . S
C487 C488 1.415 . S
C488 H464 0.950 . S
C488 C483 1.363 . S
C488 C487 1.415 . S
C489 H465 0.951 . S
C489 C490 1.366 . S
C489 C491 1.388 . S
C490 C489 1.366 . S
C490 C494 1.385 . S
C491 H466 0.951 . S
C491 C489 1.388 . S
C491 C492 1.366 . S
C492 C491 1.366 . S
C492 C493 1.414 . S
C492 C495 1.499 . S
C493 H467 0.950 . S
C493 C492 1.414 . S
C493 C494 1.374 . S
C494 H468 0.950 . S
C494 C490 1.385 . S
C494 C493 1.374 . S
C495 C492 1.499 . S
C495 C496 1.373 . S
C495 C497 1.389 . S
C496 H469 0.950 . S
C496 C482 1.377 . S
C496 C495 1.373 . S
C497 C481 1.377 . S
C497 C495 1.389 . S
C497 C498 1.524 . S
C498 C497 1.524 . S
C498 C499 1.397 . S
C498 C503 1.363 . S
C499 H470 0.950 . S
C499 C498 1.397 . S
C499 C500 1.334 . S
C500 H471 0.950 . S
C500 C499 1.334 . S
C500 C501 1.287 . S
C501 C500 1.287 . S
C501 C502 1.524 . S
C501 H504 0.999 . S
C502 H472 0.950 . S
C502 C501 1.524 . S
C502 C503 1.415 . S
C503 H473 0.950 . S
C503 C498 1.363 . S
C503 C502 1.415 . S
H504 C501 0.999 . S
H505 C486 0.913 1_556 S
H506 C524 0.951 . S
H507 C526 0.951 . S
H508 C528 0.950 . S
H509 C529 0.950 . S
H510 C531 0.950 . S
H511 C534 0.950 . S
H512 C535 0.950 . S
H513 C537 0.950 . S
H514 C538 0.950 . S
H515 C539 0.951 . S
H516 C541 0.951 . S
H517 C543 0.950 . S
H518 C544 0.950 . S
H519 C546 0.950 . S
H520 C549 0.950 . S
H521 C550 0.950 . S
H522 C552 0.950 . S
H523 C553 0.950 . S
C524 H506 0.951 . S
C524 C525 1.366 . S
C524 C526 1.388 . S
C525 C524 1.366 . S
C525 C529 1.385 . S
C526 H507 0.951 . S
C526 C524 1.388 . S
C526 C527 1.366 . S
C527 C526 1.366 . S
C527 C528 1.414 . S
C527 C530 1.499 . S
C528 H508 0.950 . S
C528 C527 1.414 . S
C528 C529 1.374 . S
C529 H509 0.950 . S
C529 C525 1.385 . S
C529 C528 1.374 . S
C530 C527 1.499 . S
C530 C531 1.373 . S
C530 C532 1.389 . S
C531 H510 0.950 . S
C531 C530 1.373 . S
C531 C547 1.377 . S
C532 C530 1.389 . S
C532 C533 1.524 . S
C532 C546 1.377 . S
C533 C532 1.524 . S
C533 C534 1.397 . S
C533 C538 1.363 . S
C534 H511 0.950 . S
C534 C533 1.397 . S
C534 C535 1.334 . S
C535 H512 0.950 . S
C535 C534 1.334 . S
C535 C536 1.287 . S
C536 C535 1.287 . S
C536 C537 1.524 . S
C536 H555 0.913 . S
C537 H513 0.950 . S
C537 C536 1.524 . S
C537 C538 1.415 . S
C538 H514 0.950 . S
C538 C533 1.363 . S
C538 C537 1.415 . S
C539 H515 0.951 . S
C539 C540 1.366 . S
C539 C541 1.388 . S
C540 C539 1.366 . S
C540 C544 1.385 . S
C541 H516 0.951 . S
C541 C539 1.388 . S
C541 C542 1.366 . S
C542 C541 1.366 . S
C542 C543 1.414 . S
C542 C545 1.499 . S
C543 H517 0.950 . S
C543 C542 1.414 . S
C543 C544 1.374 . S
C544 H518 0.950 . S
C544 C540 1.385 . S
C544 C543 1.374 . S
C545 C542 1.499 . S
C545 C546 1.373 . S
C545 C547 1.389 . S
C546 H519 0.950 . S
C546 C532 1.377 . S
C546 C545 1.373 . S
C547 C531 1.377 . S
C547 C545 1.389 . S
C547 C548 1.524 . S
C548 C547 1.524 . S
C548 C549 1.397 . S
C548 C553 1.363 . S
C549 H520 0.950 . S
C549 C548 1.397 . S
C549 C550 1.334 . S
C550 H521 0.950 . S
C550 C549 1.334 . S
C550 C551 1.287 . S
C551 C550 1.287 . S
C551 C552 1.524 . S
C551 H554 0.999 . S
C552 H522 0.950 . S
C552 C551 1.524 . S
C552 C553 1.415 . S
C553 H523 0.950 . S
C553 C548 1.363 . S
C553 C552 1.415 . S
H554 C551 0.999 . S
H555 C536 0.913 . S
H556 C574 0.951 . S
H557 C576 0.951 . S
H558 C578 0.950 . S
H559 C579 0.950 . S
H560 C581 0.950 . S
H561 C584 0.950 . S
H562 C585 0.950 . S
H563 C587 0.950 . S
H564 C588 0.950 . S
H565 C589 0.951 . S
H566 C591 0.951 . S
H567 C593 0.950 . S
H568 C594 0.950 . S
H569 C596 0.950 . S
H570 C599 0.950 . S
H571 C600 0.950 . S
H572 C602 0.950 . S
H573 C603 0.950 . S
C574 H556 0.951 . S
C574 C575 1.366 . S
C574 C576 1.388 . S
C575 C574 1.366 . S
C575 C579 1.385 . S
C576 H557 0.951 . S
C576 C574 1.388 . S
C576 C577 1.366 . S
C577 C576 1.366 . S
C577 C578 1.414 . S
C577 C580 1.499 . S
C578 H558 0.950 . S
C578 C577 1.414 . S
C578 C579 1.374 . S
C579 H559 0.950 . S
C579 C575 1.385 . S
C579 C578 1.374 . S
C580 C577 1.499 . S
C580 C581 1.373 . S
C580 C582 1.389 . S
C581 H560 0.950 . S
C581 C580 1.373 . S
C581 C597 1.377 . S
C582 C580 1.389 . S
C582 C583 1.524 . S
C582 C596 1.377 . S
C583 C582 1.524 . S
C583 C584 1.397 . S
C583 C588 1.363 . S
C584 H561 0.950 . S
C584 C583 1.397 . S
C584 C585 1.334 . S
C585 H562 0.950 . S
C585 C584 1.334 . S
C585 C586 1.287 . S
C586 C585 1.287 . S
C586 C587 1.524 . S
C586 H605 0.913 . S
C587 H563 0.950 . S
C587 C586 1.524 . S
C587 C588 1.415 . S
C588 H564 0.950 . S
C588 C583 1.363 . S
C588 C587 1.415 . S
C589 H565 0.951 . S
C589 C590 1.366 . S
C589 C591 1.388 . S
C590 C589 1.366 . S
C590 C594 1.385 . S
C591 H566 0.951 . S
C591 C589 1.388 . S
C591 C592 1.366 . S
C592 C591 1.366 . S
C592 C593 1.414 . S
C592 C595 1.499 . S
C593 H567 0.950 . S
C593 C592 1.414 . S
C593 C594 1.374 . S
C594 H568 0.950 . S
C594 C590 1.385 . S
C594 C593 1.374 . S
C595 C592 1.499 . S
C595 C596 1.373 . S
C595 C597 1.389 . S
C596 H569 0.950 . S
C596 C582 1.377 . S
C596 C595 1.373 . S
C597 C581 1.377 . S
C597 C595 1.389 . S
C597 C598 1.524 . S
C598 C597 1.524 . S
C598 C599 1.397 . S
C598 C603 1.363 . S
C599 H570 0.950 . S
C599 C598 1.397 . S
C599 C600 1.334 . S
C600 H571 0.950 . S
C600 C599 1.334 . S
C600 C601 1.287 . S
C601 C600 1.287 . S
C601 C602 1.524 . S
C601 H604 0.999 . S
C602 H572 0.950 . S
C602 C601 1.524 . S
C602 C603 1.415 . S
C603 H573 0.950 . S
C603 C598 1.363 . S
C603 C602 1.415 . S
H604 C601 0.999 . S
H605 C586 0.913 . S
H606 C624 0.951 . S
H607 C626 0.951 . S
H608 C628 0.950 . S
H609 C629 0.950 . S
H610 C631 0.950 . S
H611 C634 0.950 . S
H612 C635 0.950 . S
H613 C637 0.950 . S
H614 C638 0.950 . S
H615 C639 0.951 . S
H616 C641 0.951 . S
H617 C643 0.950 . S
H618 C644 0.950 . S
H619 C646 0.950 . S
H620 C649 0.950 . S
H621 C650 0.950 . S
H622 C652 0.950 . S
H623 C653 0.950 . S
C624 H606 0.951 . S
C624 C625 1.366 . S
C624 C626 1.388 . S
C625 C624 1.366 . S
C625 C629 1.385 . S
C626 H607 0.951 . S
C626 C624 1.388 . S
C626 C627 1.366 . S
C627 C626 1.366 . S
C627 C628 1.414 . S
C627 C630 1.499 . S
C628 H608 0.950 . S
C628 C627 1.414 . S
C628 C629 1.374 . S
C629 H609 0.950 . S
C629 C625 1.385 . S
C629 C628 1.374 . S
C630 C627 1.499 . S
C630 C631 1.373 . S
C630 C632 1.389 . S
C631 H610 0.950 . S
C631 C630 1.373 . S
C631 C647 1.377 . S
C632 C630 1.389 . S
C632 C633 1.524 . S
C632 C646 1.377 . S
C633 C632 1.524 . S
C633 C634 1.397 . S
C633 C638 1.363 . S
C634 H611 0.950 . S
C634 C633 1.397 . S
C634 C635 1.334 . S
C635 H612 0.950 . S
C635 C634 1.334 . S
C635 C636 1.287 . S
C636 C635 1.287 . S
C636 C637 1.524 . S
C636 H655 0.913 . S
C637 H613 0.950 . S
C637 C636 1.524 . S
C637 C638 1.415 . S
C638 H614 0.950 . S
C638 C633 1.363 . S
C638 C637 1.415 . S
C639 H615 0.951 . S
C639 C640 1.366 . S
C639 C641 1.388 . S
C640 C639 1.366 . S
C640 C644 1.385 . S
C641 H616 0.951 . S
C641 C639 1.388 . S
C641 C642 1.366 . S
C642 C641 1.366 . S
C642 C643 1.414 . S
C642 C645 1.499 . S
C643 H617 0.950 . S
C643 C642 1.414 . S
C643 C644 1.374 . S
C644 H618 0.950 . S
C644 C640 1.385 . S
C644 C643 1.374 . S
C645 C642 1.499 . S
C645 C646 1.373 . S
C645 C647 1.389 . S
C646 H619 0.950 . S
C646 C632 1.377 . S
C646 C645 1.373 . S
C647 C631 1.377 . S
C647 C645 1.389 . S
C647 C648 1.524 . S
C648 C647 1.524 . S
C648 C649 1.397 . S
C648 C653 1.363 . S
C649 H620 0.950 . S
C649 C648 1.397 . S
C649 C650 1.334 . S
C650 H621 0.950 . S
C650 C649 1.334 . S
C650 C651 1.287 . S
C651 C650 1.287 . S
C651 C652 1.524 . S
C651 H654 0.999 . S
C652 H622 0.950 . S
C652 C651 1.524 . S
C652 C653 1.415 . S
C653 H623 0.950 . S
C653 C648 1.363 . S
C653 C652 1.415 . S
H654 C651 0.999 . S
H655 C636 0.913 . S
H656 C674 0.951 . S
H657 C676 0.951 . S
H658 C678 0.950 . S
H659 C679 0.950 . S
H660 C681 0.950 . S
H661 C684 0.950 . S
H662 C685 0.950 . S
H663 C687 0.950 . S
H664 C688 0.950 . S
H665 C689 0.951 . S
H666 C691 0.951 . S
H667 C693 0.950 . S
H668 C694 0.950 . S
H669 C696 0.950 . S
H670 C699 0.950 . S
H671 C700 0.950 . S
H672 C702 0.950 . S
H673 C703 0.950 . S
C674 H656 0.951 . S
C674 C675 1.366 . S
C674 C676 1.388 . S
C675 C674 1.366 . S
C675 C679 1.385 . S
C676 H657 0.951 . S
C676 C674 1.388 . S
C676 C677 1.366 . S
C677 C676 1.366 . S
C677 C678 1.414 . S
C677 C680 1.499 . S
C678 H658 0.950 . S
C678 C677 1.414 . S
C678 C679 1.374 . S
C679 H659 0.950 . S
C679 C675 1.385 . S
C679 C678 1.374 . S
C680 C677 1.499 . S
C680 C681 1.373 . S
C680 C682 1.389 . S
C681 H660 0.950 . S
C681 C680 1.373 . S
C681 C697 1.377 . S
C682 C680 1.389 . S
C682 C683 1.524 . S
C682 C696 1.377 . S
C683 C682 1.524 . S
C683 C684 1.397 . S
C683 C688 1.363 . S
C684 H661 0.950 . S
C684 C683 1.397 . S
C684 C685 1.334 . S
C685 H662 0.950 . S
C685 C684 1.334 . S
C685 C686 1.287 . S
C686 C685 1.287 . S
C686 C687 1.524 . S
C686 H705 0.913 . S
C687 H663 0.950 . S
C687 C686 1.524 . S
C687 C688 1.415 . S
C688 H664 0.950 . S
C688 C683 1.363 . S
C688 C687 1.415 . S
C689 H665 0.951 . S
C689 C690 1.366 . S
C689 C691 1.388 . S
C690 C689 1.366 . S
C690 C694 1.385 . S
C691 H666 0.951 . S
C691 C689 1.388 . S
C691 C692 1.366 . S
C692 C691 1.366 . S
C692 C693 1.414 . S
C692 C695 1.499 . S
C693 H667 0.950 . S
C693 C692 1.414 . S
C693 C694 1.374 . S
C694 H668 0.950 . S
C694 C690 1.385 . S
C694 C693 1.374 . S
C695 C692 1.499 . S
C695 C696 1.373 . S
C695 C697 1.389 . S
C696 H669 0.950 . S
C696 C682 1.377 . S
C696 C695 1.373 . S
C697 C681 1.377 . S
C697 C695 1.389 . S
C697 C698 1.524 . S
C698 C697 1.524 . S
C698 C699 1.397 . S
C698 C703 1.363 . S
C699 H670 0.950 . S
C699 C698 1.397 . S
C699 C700 1.334 . S
C700 H671 0.950 . S
C700 C699 1.334 . S
C700 C701 1.287 . S
C701 C700 1.287 . S
C701 C702 1.524 . S
C701 H704 0.999 . S
C702 H672 0.950 . S
C702 C701 1.524 . S
C702 C703 1.415 . S
C703 H673 0.950 . S
C703 C698 1.363 . S
C703 C702 1.415 . S
H704 C701 0.999 . S
H705 C686 0.913 . S
H706 C724 0.951 . S
H707 C726 0.951 . S
H708 C728 0.950 . S
H709 C729 0.950 . S
H710 C731 0.950 . S
H711 C734 0.950 . S
H712 C735 0.950 . S
H713 C737 0.950 . S
H714 C738 0.950 . S
H715 C739 0.951 . S
H716 C741 0.951 . S
H717 C743 0.950 . S
H718 C744 0.950 . S
H719 C746 0.950 . S
H720 C749 0.950 . S
H721 C750 0.950 . S
H722 C752 0.950 . S
H723 C753 0.950 . S
C724 H706 0.951 . S
C724 C725 1.366 . S
C724 C726 1.388 . S
C725 C724 1.366 . S
C725 C729 1.385 . S
C726 H707 0.951 . S
C726 C724 1.388 . S
C726 C727 1.366 . S
C727 C726 1.366 . S
C727 C728 1.414 . S
C727 C730 1.499 . S
C728 H708 0.950 . S
C728 C727 1.414 . S
C728 C729 1.374 . S
C729 H709 0.950 . S
C729 C725 1.385 . S
C729 C728 1.374 . S
C730 C727 1.499 . S
C730 C731 1.373 . S
C730 C732 1.389 . S
C731 H710 0.950 . S
C731 C730 1.373 . S
C731 C747 1.377 . S
C732 C730 1.389 . S
C732 C733 1.524 . S
C732 C746 1.377 . S
C733 C732 1.524 . S
C733 C734 1.397 . S
C733 C738 1.363 . S
C734 H711 0.950 . S
C734 C733 1.397 . S
C734 C735 1.334 . S
C735 H712 0.950 . S
C735 C734 1.334 . S
C735 C736 1.287 . S
C736 C735 1.287 . S
C736 C737 1.524 . S
C736 H755 0.913 . S
C737 H713 0.950 . S
C737 C736 1.524 . S
C737 C738 1.415 . S
C738 H714 0.950 . S
C738 C733 1.363 . S
C738 C737 1.415 . S
C739 H715 0.951 . S
C739 C740 1.366 . S
C739 C741 1.388 . S
C740 C739 1.366 . S
C740 C744 1.385 . S
C741 H716 0.951 . S
C741 C739 1.388 . S
C741 C742 1.366 . S
C742 C741 1.366 . S
C742 C743 1.414 . S
C742 C745 1.499 . S
C743 H717 0.950 . S
C743 C742 1.414 . S
C743 C744 1.374 . S
C744 H718 0.950 . S
C744 C740 1.385 . S
C744 C743 1.374 . S
C745 C742 1.499 . S
C745 C746 1.373 . S
C745 C747 1.389 . S
C746 H719 0.950 . S
C746 C732 1.377 . S
C746 C745 1.373 . S
C747 C731 1.377 . S
C747 C745 1.389 . S
C747 C748 1.524 . S
C748 C747 1.524 . S
C748 C749 1.397 . S
C748 C753 1.363 . S
C749 H720 0.950 . S
C749 C748 1.397 . S
C749 C750 1.334 . S
C750 H721 0.950 . S
C750 C749 1.334 . S
C750 C751 1.287 . S
C751 C750 1.287 . S
C751 C752 1.524 . S
C751 H754 0.999 . S
C752 H722 0.950 . S
C752 C751 1.524 . S
C752 C753 1.415 . S
C753 H723 0.950 . S
C753 C748 1.363 . S
C753 C752 1.415 . S
H754 C751 0.999 . S
H755 C736 0.913 . S
H756 C774 0.951 . S
H757 C776 0.951 . S
H758 C778 0.950 . S
H759 C779 0.950 . S
H760 C781 0.950 . S
H761 C784 0.950 . S
H762 C785 0.950 . S
H763 C787 0.950 . S
H764 C788 0.950 . S
H765 C789 0.951 . S
H766 C791 0.951 . S
H767 C793 0.950 . S
H768 C794 0.950 . S
H769 C796 0.950 . S
H770 C799 0.950 . S
H771 C800 0.950 . S
H772 C802 0.950 . S
H773 C803 0.950 . S
C774 H756 0.951 . S
C774 C775 1.366 . S
C774 C776 1.388 . S
C775 C774 1.366 . S
C775 C779 1.385 . S
C776 H757 0.951 . S
C776 C774 1.388 . S
C776 C777 1.366 . S
C777 C776 1.366 . S
C777 C778 1.414 . S
C777 C780 1.499 . S
C778 H758 0.950 . S
C778 C777 1.414 . S
C778 C779 1.374 . S
C779 H759 0.950 . S
C779 C775 1.385 . S
C779 C778 1.374 . S
C780 C777 1.499 . S
C780 C781 1.373 . S
C780 C782 1.389 . S
C781 H760 0.950 . S
C781 C780 1.373 . S
C781 C797 1.377 . S
C782 C780 1.389 . S
C782 C783 1.524 . S
C782 C796 1.377 . S
C783 C782 1.524 . S
C783 C784 1.397 . S
C783 C788 1.363 . S
C784 H761 0.950 . S
C784 C783 1.397 . S
C784 C785 1.334 . S
C785 H762 0.950 . S
C785 C784 1.334 . S
C785 C786 1.287 . S
C786 C785 1.287 . S
C786 C787 1.524 . S
C786 H805 0.913 1_565 S
C787 H763 0.950 . S
C787 C786 1.524 . S
C787 C788 1.415 . S
C788 H764 0.950 . S
C788 C783 1.363 . S
C788 C787 1.415 . S
C789 H765 0.951 . S
C789 C790 1.366 . S
C789 C791 1.388 . S
C790 C789 1.366 . S
C790 C794 1.385 . S
C791 H766 0.951 . S
C791 C789 1.388 . S
C791 C792 1.366 . S
C792 C791 1.366 . S
C792 C793 1.414 . S
C792 C795 1.499 . S
C793 H767 0.950 . S
C793 C792 1.414 . S
C793 C794 1.374 . S
C794 H768 0.950 . S
C794 C790 1.385 . S
C794 C793 1.374 . S
C795 C792 1.499 . S
C795 C796 1.373 . S
C795 C797 1.389 . S
C796 H769 0.950 . S
C796 C782 1.377 . S
C796 C795 1.373 . S
C797 C781 1.377 . S
C797 C795 1.389 . S
C797 C798 1.524 . S
C798 C797 1.524 . S
C798 C799 1.397 . S
C798 C803 1.363 . S
C799 H770 0.950 . S
C799 C798 1.397 . S
C799 C800 1.334 . S
C800 H771 0.950 . S
C800 C799 1.334 . S
C800 C801 1.287 . S
C801 C800 1.287 . S
C801 C802 1.524 . S
C801 H804 0.999 . S
C802 H772 0.950 . S
C802 C801 1.524 . S
C802 C803 1.415 . S
C803 H773 0.950 . S
C803 C798 1.363 . S
C803 C802 1.415 . S
H804 C801 0.999 . S
H805 C786 0.913 1_545 S
H806 C824 0.949 . S
H807 C826 0.951 . S
H808 C828 0.950 . S
H809 C829 0.950 . S
H810 C831 0.950 . S
H811 C834 0.950 . S
H812 C835 0.950 . S
H813 C837 0.950 . S
H814 C838 0.950 . S
H815 C839 0.951 . S
H816 C841 0.951 . S
H817 C843 0.950 . S
H818 C844 0.950 . S
H819 C846 0.950 . S
H820 C849 0.950 . S
H821 C850 0.950 . S
H822 C852 0.950 . S
H823 C853 0.950 . S
C824 H806 0.949 . S
C824 C825 1.366 . S
C824 C826 1.388 . S
C825 C824 1.366 . S
C825 C829 1.385 . S
C826 H807 0.951 . S
C826 C824 1.388 . S
C826 C827 1.366 . S
C827 C826 1.366 . S
C827 C828 1.414 . S
C827 C830 1.499 . S
C828 H808 0.950 . S
C828 C827 1.414 . S
C828 C829 1.374 . S
C829 H809 0.950 . S
C829 C825 1.385 . S
C829 C828 1.374 . S
C830 C827 1.499 . S
C830 C831 1.373 . S
C830 C832 1.389 . S
C831 H810 0.950 . S
C831 C830 1.373 . S
C831 C847 1.377 . S
C832 C830 1.389 . S
C832 C833 1.524 . S
C832 C846 1.377 . S
C833 C832 1.524 . S
C833 C834 1.397 . S
C833 C838 1.363 . S
C834 H811 0.950 . S
C834 C833 1.397 . S
C834 C835 1.334 . S
C835 H812 0.950 . S
C835 C834 1.334 . S
C835 C836 1.287 . S
C836 C835 1.287 . S
C836 C837 1.524 . S
C836 H855 0.913 . S
C837 H813 0.950 . S
C837 C836 1.524 . S
C837 C838 1.415 . S
C838 H814 0.950 . S
C838 C833 1.363 . S
C838 C837 1.415 . S
C839 H815 0.951 . S
C839 C840 1.366 . S
C839 C841 1.388 . S
C840 C839 1.366 . S
C840 C844 1.385 . S
C841 H816 0.951 . S
C841 C839 1.388 . S
C841 C842 1.366 . S
C842 C841 1.366 . S
C842 C843 1.414 . S
C842 C845 1.499 . S
C843 H817 0.950 . S
C843 C842 1.414 . S
C843 C844 1.374 . S
C844 H818 0.950 . S
C844 C840 1.385 . S
C844 C843 1.374 . S
C845 C842 1.499 . S
C845 C846 1.373 . S
C845 C847 1.389 . S
C846 H819 0.950 . S
C846 C832 1.377 . S
C846 C845 1.373 . S
C847 C831 1.377 . S
C847 C845 1.389 . S
C847 C848 1.524 . S
C848 C847 1.524 . S
C848 C849 1.397 . S
C848 C853 1.363 . S
C849 H820 0.950 . S
C849 C848 1.397 . S
C849 C850 1.334 . S
C850 H821 0.950 . S
C850 C849 1.334 . S
C850 C851 1.287 . S
C851 C850 1.287 . S
C851 C852 1.524 . S
C851 H854 0.999 . S
C852 H822 0.950 . S
C852 C851 1.524 . S
C852 C853 1.415 . S
C853 H823 0.950 . S
C853 C848 1.363 . S
C853 C852 1.415 . S
H854 C851 0.999 . S
H855 C836 0.913 . S
H856 C874 0.951 . S
H857 C876 0.951 . S
H858 C878 0.950 . S
H859 C879 0.950 . S
H860 C881 0.950 . S
H861 C884 0.950 . S
H862 C885 0.950 . S
H863 C887 0.950 . S
H864 C888 0.950 . S
H865 C889 0.951 . S
H866 C891 0.951 . S
H867 C893 0.950 . S
H868 C894 0.950 . S
H869 C896 0.950 . S
H870 C899 0.950 . S
H871 C900 0.950 . S
H872 C902 0.950 . S
H873 C903 0.950 . S
C874 H856 0.951 . S
C874 C875 1.366 . S
C874 C876 1.388 . S
C875 C874 1.366 . S
C875 C879 1.385 . S
C876 H857 0.951 . S
C876 C874 1.388 . S
C876 C877 1.366 . S
C877 C876 1.366 . S
C877 C878 1.414 . S
C877 C880 1.499 . S
C878 H858 0.950 . S
C878 C877 1.414 . S
C878 C879 1.374 . S
C879 H859 0.950 . S
C879 C875 1.385 . S
C879 C878 1.374 . S
C880 C877 1.499 . S
C880 C881 1.373 . S
C880 C882 1.389 . S
C881 H860 0.950 . S
C881 C880 1.373 . S
C881 C897 1.377 . S
C882 C880 1.389 . S
C882 C883 1.524 . S
C882 C896 1.377 . S
C883 C882 1.524 . S
C883 C884 1.397 . S
C883 C888 1.363 . S
C884 H861 0.950 . S
C884 C883 1.397 . S
C884 C885 1.334 . S
C885 H862 0.950 . S
C885 C884 1.334 . S
C885 C886 1.287 . S
C886 C885 1.287 . S
C886 C887 1.524 . S
C886 H905 0.913 . S
C887 H863 0.950 . S
C887 C886 1.524 . S
C887 C888 1.415 . S
C888 H864 0.950 . S
C888 C883 1.363 . S
C888 C887 1.415 . S
C889 H865 0.951 . S
C889 C890 1.366 . S
C889 C891 1.388 . S
C890 C889 1.366 . S
C890 C894 1.385 . S
C891 H866 0.951 . S
C891 C889 1.388 . S
C891 C892 1.366 . S
C892 C891 1.366 . S
C892 C893 1.414 . S
C892 C895 1.499 . S
C893 H867 0.950 . S
C893 C892 1.414 . S
C893 C894 1.374 . S
C894 H868 0.950 . S
C894 C890 1.385 . S
C894 C893 1.374 . S
C895 C892 1.499 . S
C895 C896 1.373 . S
C895 C897 1.389 . S
C896 H869 0.950 . S
C896 C882 1.377 . S
C896 C895 1.373 . S
C897 C881 1.377 . S
C897 C895 1.389 . S
C897 C898 1.524 . S
C898 C897 1.524 . S
C898 C899 1.397 . S
C898 C903 1.363 . S
C899 H870 0.950 . S
C899 C898 1.397 . S
C899 C900 1.334 . S
C900 H871 0.950 . S
C900 C899 1.334 . S
C900 C901 1.287 . S
C901 C900 1.287 . S
C901 C902 1.524 . S
C901 H904 0.999 . S
C902 H872 0.950 . S
C902 C901 1.524 . S
C902 C903 1.415 . S
C903 H873 0.950 . S
C903 C898 1.363 . S
C903 C902 1.415 . S
H904 C901 0.999 . S
H905 C886 0.913 . S
H906 C924 0.951 . S
H907 C926 0.951 . S
H908 C928 0.950 . S
H909 C929 0.950 . S
H910 C931 0.950 . S
H911 C934 0.950 . S
H912 C935 0.950 . S
H913 C937 0.950 . S
H914 C938 0.950 . S
H915 C939 0.951 . S
H916 C941 0.951 . S
H917 C943 0.950 . S
H918 C944 0.950 . S
H919 C946 0.950 . S
H920 C949 0.950 . S
H921 C950 0.950 . S
H922 C952 0.950 . S
H923 C953 0.950 . S
C924 H906 0.951 . S
C924 C925 1.366 . S
C924 C926 1.388 . S
C925 C924 1.366 . S
C925 C929 1.385 . S
C926 H907 0.951 . S
C926 C924 1.388 . S
C926 C927 1.366 . S
C927 C926 1.366 . S
C927 C928 1.414 . S
C927 C930 1.499 . S
C928 H908 0.950 . S
C928 C927 1.414 . S
C928 C929 1.374 . S
C929 H909 0.950 . S
C929 C925 1.385 . S
C929 C928 1.374 . S
C930 C927 1.499 . S
C930 C931 1.373 . S
C930 C932 1.389 . S
C931 H910 0.950 . S
C931 C930 1.373 . S
C931 C947 1.377 . S
C932 C930 1.389 . S
C932 C933 1.524 . S
C932 C946 1.377 . S
C933 C932 1.524 . S
C933 C934 1.397 . S
C933 C938 1.363 . S
C934 H911 0.950 . S
C934 C933 1.397 . S
C934 C935 1.334 . S
C935 H912 0.950 . S
C935 C934 1.334 . S
C935 C936 1.287 . S
C936 C935 1.287 . S
C936 C937 1.524 . S
C936 H955 0.913 . S
C937 H913 0.950 . S
C937 C936 1.524 . S
C937 C938 1.415 . S
C938 H914 0.950 . S
C938 C933 1.363 . S
C938 C937 1.415 . S
C939 H915 0.951 . S
C939 C940 1.366 . S
C939 C941 1.388 . S
C940 C939 1.366 . S
C940 C944 1.385 . S
C941 H916 0.951 . S
C941 C939 1.388 . S
C941 C942 1.366 . S
C942 C941 1.366 . S
C942 C943 1.414 . S
C942 C945 1.499 . S
C943 H917 0.950 . S
C943 C942 1.414 . S
C943 C944 1.374 . S
C944 H918 0.950 . S
C944 C940 1.385 . S
C944 C943 1.374 . S
C945 C942 1.499 . S
C945 C946 1.373 . S
C945 C947 1.389 . S
C946 H919 0.950 . S
C946 C932 1.377 . S
C946 C945 1.373 . S
C947 C931 1.377 . S
C947 C945 1.389 . S
C947 C948 1.524 . S
C948 C947 1.524 . S
C948 C949 1.397 . S
C948 C953 1.363 . S
C949 H920 0.950 . S
C949 C948 1.397 . S
C949 C950 1.334 . S
C950 H921 0.950 . S
C950 C949 1.334 . S
C950 C951 1.287 . S
C951 C950 1.287 . S
C951 C952 1.524 . S
C951 H954 0.999 . S
C952 H922 0.950 . S
C952 C951 1.524 . S
C952 C953 1.415 . S
C953 H923 0.950 . S
C953 C948 1.363 . S
C953 C952 1.415 . S
H954 C951 0.999 . S
H955 C936 0.913 . S
H956 C974 0.951 . S
H957 C976 0.951 . S
H958 C978 0.950 . S
H959 C979 0.950 . S
H960 C981 0.950 . S
H961 C984 0.950 . S
H962 C985 0.950 . S
H963 C987 0.950 . S
H964 C988 0.950 . S
H965 C989 0.951 . S
H966 C991 0.951 . S
H967 C993 0.950 . S
H968 C994 0.950 . S
H969 C996 0.950 . S
H970 C999 0.950 . S
H971 C1000 0.950 . S
H972 C1002 0.950 . S
H973 C1003 0.950 . S
C974 H956 0.951 . S
C974 C975 1.366 . S
C974 C976 1.388 . S
C975 C974 1.366 . S
C975 C979 1.385 . S
C976 H957 0.951 . S
C976 C974 1.388 . S
C976 C977 1.366 . S
C977 C976 1.366 . S
C977 C978 1.414 . S
C977 C980 1.499 . S
C978 H958 0.950 . S
C978 C977 1.414 . S
C978 C979 1.374 . S
C979 H959 0.950 . S
C979 C975 1.385 . S
C979 C978 1.374 . S
C980 C977 1.499 . S
C980 C981 1.373 . S
C980 C982 1.389 . S
C981 H960 0.950 . S
C981 C980 1.373 . S
C981 C997 1.377 . S
C982 C980 1.389 . S
C982 C983 1.524 . S
C982 C996 1.377 . S
C983 C982 1.524 . S
C983 C984 1.397 . S
C983 C988 1.363 . S
C984 H961 0.950 . S
C984 C983 1.397 . S
C984 C985 1.334 . S
C985 H962 0.950 . S
C985 C984 1.334 . S
C985 C986 1.287 . S
C986 C985 1.287 . S
C986 C987 1.524 . S
C986 H1005 0.913 . S
C987 H963 0.950 . S
C987 C986 1.524 . S
C987 C988 1.415 . S
C988 H964 0.950 . S
C988 C983 1.363 . S
C988 C987 1.415 . S
C989 H965 0.951 . S
C989 C990 1.366 . S
C989 C991 1.388 . S
C990 C989 1.366 . S
C990 C994 1.385 . S
C991 H966 0.951 . S
C991 C989 1.388 . S
C991 C992 1.366 . S
C992 C991 1.366 . S
C992 C993 1.414 . S
C992 C995 1.499 . S
C993 H967 0.950 . S
C993 C992 1.414 . S
C993 C994 1.374 . S
C994 H968 0.950 . S
C994 C990 1.385 . S
C994 C993 1.374 . S
C995 C992 1.499 . S
C995 C996 1.373 . S
C995 C997 1.389 . S
C996 H969 0.950 . S
C996 C982 1.377 . S
C996 C995 1.373 . S
C997 C981 1.377 . S
C997 C995 1.389 . S
C997 C998 1.524 . S
C998 C997 1.524 . S
C998 C999 1.397 . S
C998 C1003 1.363 . S
C999 H970 0.950 . S
C999 C998 1.397 . S
C999 C1000 1.334 . S
C1000 H971 0.950 . S
C1000 C999 1.334 . S
C1000 C1001 1.287 . S
C1001 C1000 1.287 . S
C1001 C1002 1.524 . S
C1001 H1004 0.999 . S
C1002 H972 0.950 . S
C1002 C1001 1.524 . S
C1002 C1003 1.415 . S
C1003 H973 0.950 . S
C1003 C998 1.363 . S
C1003 C1002 1.415 . S
H1004 C1001 0.999 . S
H1005 C986 0.913 . S
H1006 C1024 0.951 . S
H1007 C1026 0.951 . S
H1008 C1028 0.950 . S
H1009 C1029 0.950 . S
H1010 C1031 0.950 . S
H1011 C1034 0.950 . S
H1012 C1035 0.950 . S
H1013 C1037 0.950 . S
H1014 C1038 0.950 . S
H1015 C1039 0.951 . S
H1016 C1041 0.951 . S
H1017 C1043 0.950 . S
H1018 C1044 0.950 . S
H1019 C1046 0.950 . S
H1020 C1049 0.950 . S
H1021 C1050 0.950 . S
H1022 C1052 0.950 . S
H1023 C1053 0.950 . S
C1024 H1006 0.951 . S
C1024 C1025 1.366 . S
C1024 C1026 1.388 . S
C1025 C1024 1.366 . S
C1025 C1029 1.385 . S
C1026 H1007 0.951 . S
C1026 C1024 1.388 . S
C1026 C1027 1.366 . S
C1027 C1026 1.366 . S
C1027 C1028 1.414 . S
C1027 C1030 1.499 . S
C1028 H1008 0.950 . S
C1028 C1027 1.414 . S
C1028 C1029 1.374 . S
C1029 H1009 0.950 . S
C1029 C1025 1.385 . S
C1029 C1028 1.374 . S
C1030 C1027 1.499 . S
C1030 C1031 1.373 . S
C1030 C1032 1.389 . S
C1031 H1010 0.950 . S
C1031 C1030 1.373 . S
C1031 C1047 1.377 . S
C1032 C1030 1.389 . S
C1032 C1033 1.524 . S
C1032 C1046 1.377 . S
C1033 C1032 1.524 . S
C1033 C1034 1.397 . S
C1033 C1038 1.363 . S
C1034 H1011 0.950 . S
C1034 C1033 1.397 . S
C1034 C1035 1.334 . S
C1035 H1012 0.950 . S
C1035 C1034 1.334 . S
C1035 C1036 1.287 . S
C1036 C1035 1.287 . S
C1036 C1037 1.524 . S
C1036 H1055 0.913 . S
C1037 H1013 0.950 . S
C1037 C1036 1.524 . S
C1037 C1038 1.415 . S
C1038 H1014 0.950 . S
C1038 C1033 1.363 . S
C1038 C1037 1.415 . S
C1039 H1015 0.951 . S
C1039 C1040 1.366 . S
C1039 C1041 1.388 . S
C1040 C1039 1.366 . S
C1040 C1044 1.385 . S
C1041 H1016 0.951 . S
C1041 C1039 1.388 . S
C1041 C1042 1.366 . S
C1042 C1041 1.366 . S
C1042 C1043 1.414 . S
C1042 C1045 1.499 . S
C1043 H1017 0.950 . S
C1043 C1042 1.414 . S
C1043 C1044 1.374 . S
C1044 H1018 0.950 . S
C1044 C1040 1.385 . S
C1044 C1043 1.374 . S
C1045 C1042 1.499 . S
C1045 C1046 1.373 . S
C1045 C1047 1.389 . S
C1046 H1019 0.950 . S
C1046 C1032 1.377 . S
C1046 C1045 1.373 . S
C1047 C1031 1.377 . S
C1047 C1045 1.389 . S
C1047 C1048 1.524 . S
C1048 C1047 1.524 . S
C1048 C1049 1.397 . S
C1048 C1053 1.363 . S
C1049 H1020 0.950 . S
C1049 C1048 1.397 . S
C1049 C1050 1.334 . S
C1050 H1021 0.950 . S
C1050 C1049 1.334 . S
C1050 C1051 1.287 . S
C1051 C1050 1.287 . S
C1051 C1052 1.524 . S
C1051 H1054 0.999 . S
C1052 H1022 0.950 . S
C1052 C1051 1.524 . S
C1052 C1053 1.415 . S
C1053 H1023 0.950 . S
C1053 C1048 1.363 . S
C1053 C1052 1.415 . S
H1054 C1051 0.999 . S
H1055 C1036 0.913 . S
H1056 C1074 0.951 . S
H1057 C1076 0.951 . S
H1058 C1078 0.950 . S
H1059 C1079 0.950 . S
H1060 C1081 0.950 . S
H1061 C1084 0.950 . S
H1062 C1085 0.950 . S
H1063 C1087 0.950 . S
H1064 C1088 0.950 . S
H1065 C1089 0.951 . S
H1066 C1091 0.951 . S
H1067 C1093 0.950 . S
H1068 C1094 0.950 . S
H1069 C1096 0.950 . S
H1070 C1099 0.950 . S
H1071 C1100 0.950 . S
H1072 C1102 0.950 . S
H1073 C1103 0.950 . S
C1074 H1056 0.951 . S
C1074 C1075 1.366 . S
C1074 C1076 1.388 . S
C1075 C1074 1.366 . S
C1075 C1079 1.385 . S
C1076 H1057 0.951 . S
C1076 C1074 1.388 . S
C1076 C1077 1.366 . S
C1077 C1076 1.366 . S
C1077 C1078 1.414 . S
C1077 C1080 1.499 . S
C1078 H1058 0.950 . S
C1078 C1077 1.414 . S
C1078 C1079 1.374 . S
C1079 H1059 0.950 . S
C1079 C1075 1.385 . S
C1079 C1078 1.374 . S
C1080 C1077 1.499 . S
C1080 C1081 1.373 . S
C1080 C1082 1.389 . S
C1081 H1060 0.950 . S
C1081 C1080 1.373 . S
C1081 C1097 1.377 . S
C1082 C1080 1.389 . S
C1082 C1083 1.524 . S
C1082 C1096 1.377 . S
C1083 C1082 1.524 . S
C1083 C1084 1.397 . S
C1083 C1088 1.363 . S
C1084 H1061 0.950 . S
C1084 C1083 1.397 . S
C1084 C1085 1.334 . S
C1085 H1062 0.950 . S
C1085 C1084 1.334 . S
C1085 C1086 1.287 . S
C1086 C1085 1.287 . S
C1086 C1087 1.524 . S
C1086 H1105 0.913 . S
C1087 H1063 0.950 . S
C1087 C1086 1.524 . S
C1087 C1088 1.415 . S
C1088 H1064 0.950 . S
C1088 C1083 1.363 . S
C1088 C1087 1.415 . S
C1089 H1065 0.951 . S
C1089 C1090 1.366 . S
C1089 C1091 1.388 . S
C1090 C1089 1.366 . S
C1090 C1094 1.385 . S
C1091 H1066 0.951 . S
C1091 C1089 1.388 . S
C1091 C1092 1.366 . S
C1092 C1091 1.366 . S
C1092 C1093 1.414 . S
C1092 C1095 1.499 . S
C1093 H1067 0.950 . S
C1093 C1092 1.414 . S
C1093 C1094 1.374 . S
C1094 H1068 0.950 . S
C1094 C1090 1.385 . S
C1094 C1093 1.374 . S
C1095 C1092 1.499 . S
C1095 C1096 1.373 . S
C1095 C1097 1.389 . S
C1096 H1069 0.950 . S
C1096 C1082 1.377 . S
C1096 C1095 1.373 . S
C1097 C1081 1.377 . S
C1097 C1095 1.389 . S
C1097 C1098 1.524 . S
C1098 C1097 1.524 . S
C1098 C1099 1.397 . S
C1098 C1103 1.363 . S
C1099 H1070 0.950 . S
C1099 C1098 1.397 . S
C1099 C1100 1.334 . S
C1100 H1071 0.950 . S
C1100 C1099 1.334 . S
C1100 C1101 1.287 . S
C1101 C1100 1.287 . S
C1101 C1102 1.524 . S
C1101 H1104 0.999 . S
C1102 H1072 0.950 . S
C1102 C1101 1.524 . S
C1102 C1103 1.415 . S
C1103 H1073 0.950 . S
C1103 C1098 1.363 . S
C1103 C1102 1.415 . S
H1104 C1101 0.999 . S
H1105 C1086 0.913 . S
H1106 C1124 0.951 . S
H1107 C1126 0.951 . S
H1108 C1128 0.950 . S
H1109 C1129 0.950 . S
H1110 C1131 0.950 . S
H1111 C1134 0.950 . S
H1112 C1135 0.950 . S
H1113 C1137 0.950 . S
H1114 C1138 0.950 . S
H1115 C1139 0.951 . S
H1116 C1141 0.951 . S
H1117 C1143 0.950 . S
H1118 C1144 0.950 . S
H1119 C1146 0.950 . S
H1120 C1149 0.950 . S
H1121 C1150 0.950 . S
H1122 C1152 0.950 . S
H1123 C1153 0.950 . S
C1124 H1106 0.951 . S
C1124 C1125 1.366 . S
C1124 C1126 1.388 . S
C1125 C1124 1.366 . S
C1125 C1129 1.385 . S
C1126 H1107 0.951 . S
C1126 C1124 1.388 . S
C1126 C1127 1.366 . S
C1127 C1126 1.366 . S
C1127 C1128 1.414 . S
C1127 C1130 1.499 . S
C1128 H1108 0.950 . S
C1128 C1127 1.414 . S
C1128 C1129 1.374 . S
C1129 H1109 0.950 . S
C1129 C1125 1.385 . S
C1129 C1128 1.374 . S
C1130 C1127 1.499 . S
C1130 C1131 1.373 . S
C1130 C1132 1.389 . S
C1131 H1110 0.950 . S
C1131 C1130 1.373 . S
C1131 C1147 1.377 . S
C1132 C1130 1.389 . S
C1132 C1133 1.524 . S
C1132 C1146 1.377 . S
C1133 C1132 1.524 . S
C1133 C1134 1.397 . S
C1133 C1138 1.363 . S
C1134 H1111 0.950 . S
C1134 C1133 1.397 . S
C1134 C1135 1.334 . S
C1135 H1112 0.950 . S
C1135 C1134 1.334 . S
C1135 C1136 1.287 . S
C1136 C1135 1.287 . S
C1136 C1137 1.524 . S
C1136 H1155 0.913 . S
C1137 H1113 0.950 . S
C1137 C1136 1.524 . S
C1137 C1138 1.415 . S
C1138 H1114 0.950 . S
C1138 C1133 1.363 . S
C1138 C1137 1.415 . S
C1139 H1115 0.951 . S
C1139 C1140 1.366 . S
C1139 C1141 1.388 . S
C1140 C1139 1.366 . S
C1140 C1144 1.385 . S
C1141 H1116 0.951 . S
C1141 C1139 1.388 . S
C1141 C1142 1.366 . S
C1142 C1141 1.366 . S
C1142 C1143 1.414 . S
C1142 C1145 1.499 . S
C1143 H1117 0.950 . S
C1143 C1142 1.414 . S
C1143 C1144 1.374 . S
C1144 H1118 0.950 . S
C1144 C1140 1.385 . S
C1144 C1143 1.374 . S
C1145 C1142 1.499 . S
C1145 C1146 1.373 . S
C1145 C1147 1.389 . S
C1146 H1119 0.950 . S
C1146 C1132 1.377 . S
C1146 C1145 1.373 . S
C1147 C1131 1.377 . S
C1147 C1145 1.389 . S
C1147 C1148 1.524 . S
C1148 C1147 1.524 . S
C1148 C1149 1.397 . S
C1148 C1153 1.363 . S
C1149 H1120 0.950 . S
C1149 C1148 1.397 . S
C1149 C1150 1.334 . S
C1150 H1121 0.950 . S
C1150 C1149 1.334 . S
C1150 C1151 1.287 . S
C1151 C1150 1.287 . S
C1151 C1152 1.524 . S
C1151 H1154 0.999 . S
C1152 H1122 0.950 . S
C1152 C1151 1.524 . S
C1152 C1153 1.415 . S
C1153 H1123 0.950 . S
C1153 C1148 1.363 . S
C1153 C1152 1.415 . S
H1154 C1151 0.999 . S
H1155 C1136 0.913 . S
H1156 C1174 0.951 . S
H1157 C1176 0.951 . S
H1158 C1178 0.950 . S
H1159 C1179 0.950 . S
H1160 C1181 0.950 . S
H1161 C1184 0.950 . S
H1162 C1185 0.950 . S
H1163 C1187 0.950 . S
H1164 C1188 0.950 . S
H1165 C1189 0.951 . S
H1166 C1191 0.951 . S
H1167 C1193 0.950 . S
H1168 C1194 0.950 . S
H1169 C1196 0.950 . S
H1170 C1199 0.950 . S
H1171 C1200 0.950 . S
H1172 C1202 0.950 . S
H1173 C1203 0.950 . S
C1174 H1156 0.951 . S
C1174 C1175 1.366 . S
C1174 C1176 1.388 . S
C1175 C1174 1.366 . S
C1175 C1179 1.385 . S
C1176 H1157 0.951 . S
C1176 C1174 1.388 . S
C1176 C1177 1.366 . S
C1177 C1176 1.366 . S
C1177 C1178 1.414 . S
C1177 C1180 1.499 . S
C1178 H1158 0.950 . S
C1178 C1177 1.414 . S
C1178 C1179 1.374 . S
C1179 H1159 0.950 . S
C1179 C1175 1.385 . S
C1179 C1178 1.374 . S
C1180 C1177 1.499 . S
C1180 C1181 1.373 . S
C1180 C1182 1.389 . S
C1181 H1160 0.950 . S
C1181 C1180 1.373 . S
C1181 C1197 1.377 . S
C1182 C1180 1.389 . S
C1182 C1183 1.524 . S
C1182 C1196 1.377 . S
C1183 C1182 1.524 . S
C1183 C1184 1.397 . S
C1183 C1188 1.363 . S
C1184 H1161 0.950 . S
C1184 C1183 1.397 . S
C1184 C1185 1.334 . S
C1185 H1162 0.950 . S
C1185 C1184 1.334 . S
C1185 C1186 1.287 . S
C1186 C1185 1.287 . S
C1186 C1187 1.524 . S
C1186 H1205 0.913 . S
C1187 H1163 0.950 . S
C1187 C1186 1.524 . S
C1187 C1188 1.415 . S
C1188 H1164 0.950 . S
C1188 C1183 1.363 . S
C1188 C1187 1.415 . S
C1189 H1165 0.951 . S
C1189 C1190 1.366 . S
C1189 C1191 1.388 . S
C1190 C1189 1.366 . S
C1190 C1194 1.385 . S
C1191 H1166 0.951 . S
C1191 C1189 1.388 . S
C1191 C1192 1.366 . S
C1192 C1191 1.366 . S
C1192 C1193 1.414 . S
C1192 C1195 1.499 . S
C1193 H1167 0.950 . S
C1193 C1192 1.414 . S
C1193 C1194 1.374 . S
C1194 H1168 0.950 . S
C1194 C1190 1.385 . S
C1194 C1193 1.374 . S
C1195 C1192 1.499 . S
C1195 C1196 1.373 . S
C1195 C1197 1.389 . S
C1196 H1169 0.950 . S
C1196 C1182 1.377 . S
C1196 C1195 1.373 . S
C1197 C1181 1.377 . S
C1197 C1195 1.389 . S
C1197 C1198 1.524 . S
C1198 C1197 1.524 . S
C1198 C1199 1.397 . S
C1198 C1203 1.363 . S
C1199 H1170 0.950 . S
C1199 C1198 1.397 . S
C1199 C1200 1.334 . S
C1200 H1171 0.950 . S
C1200 C1199 1.334 . S
C1200 C1201 1.287 . S
C1201 C1200 1.287 . S
C1201 C1202 1.524 . S
C1201 H1204 0.999 . S
C1202 H1172 0.950 . S
C1202 C1201 1.524 . S
C1202 C1203 1.415 . S
C1203 H1173 0.950 . S
C1203 C1198 1.363 . S
C1203 C1202 1.415 . S
H1204 C1201 0.999 . S
H1205 C1186 0.913 . S
H1206 C1224 0.951 . S
H1207 C1226 0.951 . S
H1208 C1228 0.950 . S
H1209 C1229 0.950 . S
H1210 C1231 0.950 . S
H1211 C1234 0.950 . S
H1212 C1235 0.950 . S
H1213 C1237 0.950 . S
H1214 C1238 0.950 . S
H1215 C1239 0.951 . S
H1216 C1241 0.951 . S
H1217 C1243 0.950 . S
H1218 C1244 0.950 . S
H1219 C1246 0.950 . S
H1220 C1249 0.950 . S
H1221 C1250 0.950 . S
H1222 C1252 0.950 . S
H1223 C1253 0.950 . S
C1224 H1206 0.951 . S
C1224 C1225 1.366 . S
C1224 C1226 1.388 . S
C1225 C1224 1.366 . S
C1225 C1229 1.385 . S
C1226 H1207 0.951 . S
C1226 C1224 1.388 . S
C1226 C1227 1.366 . S
C1227 C1226 1.366 . S
C1227 C1228 1.414 . S
C1227 C1230 1.499 . S
C1228 H1208 0.950 . S
C1228 C1227 1.414 . S
C1228 C1229 1.374 . S
C1229 H1209 0.950 . S
C1229 C1225 1.385 . S
C1229 C1228 1.374 . S
C1230 C1227 1.499 . S
C1230 C1231 1.373 . S
C1230 C1232 1.389 . S
C1231 H1210 0.950 . S
C1231 C1230 1.373 . S
C1231 C1247 1.377 . S
C1232 C1230 1.389 . S
C1232 C1233 1.524 . S
C1232 C1246 1.377 . S
C1233 C1232 1.524 . S
C1233 C1234 1.397 . S
C1233 C1238 1.363 . S
C1234 H1211 0.950 . S
C1234 C1233 1.397 . S
C1234 C1235 1.334 . S
C1235 H1212 0.950 . S
C1235 C1234 1.334 . S
C1235 C1236 1.287 . S
C1236 C1235 1.287 . S
C1236 C1237 1.524 . S
C1236 H1255 0.913 . S
C1237 H1213 0.950 . S
C1237 C1236 1.524 . S
C1237 C1238 1.415 . S
C1238 H1214 0.950 . S
C1238 C1233 1.363 . S
C1238 C1237 1.415 . S
C1239 H1215 0.951 . S
C1239 C1240 1.366 . S
C1239 C1241 1.388 . S
C1240 C1239 1.366 . S
C1240 C1244 1.385 . S
C1241 H1216 0.951 . S
C1241 C1239 1.388 . S
C1241 C1242 1.366 . S
C1242 C1241 1.366 . S
C1242 C1243 1.414 . S
C1242 C1245 1.499 . S
C1243 H1217 0.950 . S
C1243 C1242 1.414 . S
C1243 C1244 1.374 . S
C1244 H1218 0.950 . S
C1244 C1240 1.385 . S
C1244 C1243 1.374 . S
C1245 C1242 1.499 . S
C1245 C1246 1.373 . S
C1245 C1247 1.389 . S
C1246 H1219 0.950 . S
C1246 C1232 1.377 . S
C1246 C1245 1.373 . S
C1247 C1231 1.377 . S
C1247 C1245 1.389 . S
C1247 C1248 1.524 . S
C1248 C1247 1.524 . S
C1248 C1249 1.397 . S
C1248 C1253 1.363 . S
C1249 H1220 0.950 . S
C1249 C1248 1.397 . S
C1249 C1250 1.334 . S
C1250 H1221 0.950 . S
C1250 C1249 1.334 . S
C1250 C1251 1.287 . S
C1251 C1250 1.287 . S
C1251 C1252 1.524 . S
C1251 H1254 0.999 . S
C1252 H1222 0.950 . S
C1252 C1251 1.524 . S
C1252 C1253 1.415 . S
C1253 H1223 0.950 . S
C1253 C1248 1.363 . S
C1253 C1252 1.415 . S
H1254 C1251 0.999 . S
H1255 C1236 0.913 . S
H1256 C1274 0.951 . S
H1257 C1276 0.951 . S
H1258 C1278 0.950 . S
H1259 C1279 0.950 . S
H1260 C1281 0.950 . S
H1261 C1284 0.950 . S
H1262 C1285 0.950 . S
H1263 C1287 0.950 . S
H1264 C1288 0.950 . S
H1265 C1289 0.951 . S
H1266 C1291 0.951 . S
H1267 C1293 0.950 . S
H1268 C1294 0.950 . S
H1269 C1296 0.950 . S
H1270 C1299 0.950 . S
H1271 C1300 0.950 . S
H1272 C1302 0.950 . S
H1273 C1303 0.950 . S
C1274 H1256 0.951 . S
C1274 C1275 1.366 . S
C1274 C1276 1.388 . S
C1275 C1274 1.366 . S
C1275 C1279 1.385 . S
C1276 H1257 0.951 . S
C1276 C1274 1.388 . S
C1276 C1277 1.366 . S
C1277 C1276 1.366 . S
C1277 C1278 1.414 . S
C1277 C1280 1.499 . S
C1278 H1258 0.950 . S
C1278 C1277 1.414 . S
C1278 C1279 1.374 . S
C1279 H1259 0.950 . S
C1279 C1275 1.385 . S
C1279 C1278 1.374 . S
C1280 C1277 1.499 . S
C1280 C1281 1.373 . S
C1280 C1282 1.389 . S
C1281 H1260 0.950 . S
C1281 C1280 1.373 . S
C1281 C1297 1.377 . S
C1282 C1280 1.389 . S
C1282 C1283 1.524 . S
C1282 C1296 1.377 . S
C1283 C1282 1.524 . S
C1283 C1284 1.397 . S
C1283 C1288 1.363 . S
C1284 H1261 0.950 . S
C1284 C1283 1.397 . S
C1284 C1285 1.334 . S
C1285 H1262 0.950 . S
C1285 C1284 1.334 . S
C1285 C1286 1.287 . S
C1286 C1285 1.287 . S
C1286 C1287 1.524 . S
C1286 H1305 0.913 . S
C1287 H1263 0.950 . S
C1287 C1286 1.524 . S
C1287 C1288 1.415 . S
C1288 H1264 0.950 . S
C1288 C1283 1.363 . S
C1288 C1287 1.415 . S
C1289 H1265 0.951 . S
C1289 C1290 1.366 . S
C1289 C1291 1.388 . S
C1290 C1289 1.366 . S
C1290 C1294 1.385 . S
C1291 H1266 0.951 . S
C1291 C1289 1.388 . S
C1291 C1292 1.366 . S
C1292 C1291 1.366 . S
C1292 C1293 1.414 . S
C1292 C1295 1.499 . S
C1293 H1267 0.950 . S
C1293 C1292 1.414 . S
C1293 C1294 1.374 . S
C1294 H1268 0.950 . S
C1294 C1290 1.385 . S
C1294 C1293 1.374 . S
C1295 C1292 1.499 . S
C1295 C1296 1.373 . S
C1295 C1297 1.389 . S
C1296 H1269 0.950 . S
C1296 C1282 1.377 . S
C1296 C1295 1.373 . S
C1297 C1281 1.377 . S
C1297 C1295 1.389 . S
C1297 C1298 1.524 . S
C1298 C1297 1.524 . S
C1298 C1299 1.397 . S
C1298 C1303 1.363 . S
C1299 H1270 0.950 . S
C1299 C1298 1.397 . S
C1299 C1300 1.334 . S
C1300 H1271 0.950 . S
C1300 C1299 1.334 . S
C1300 C1301 1.287 . S
C1301 C1300 1.287 . S
C1301 C1302 1.524 . S
C1301 H1304 0.999 . S
C1302 H1272 0.950 . S
C1302 C1301 1.524 . S
C1302 C1303 1.415 . S
C1303 H1273 0.950 . S
C1303 C1298 1.363 . S
C1303 C1302 1.415 . S
H1304 C1301 0.999 . S
H1305 C1286 0.913 . S
H1306 C1324 0.951 . S
H1307 C1326 0.951 . S
H1308 C1328 0.950 . S
H1309 C1329 0.950 . S
H1310 C1331 0.950 . S
H1311 C1334 0.950 . S
H1312 C1335 0.950 . S
H1313 C1337 0.950 . S
H1314 C1338 0.950 . S
H1315 C1339 0.951 . S
H1316 C1341 0.951 . S
H1317 C1343 0.950 . S
H1318 C1344 0.950 . S
H1319 C1346 0.950 . S
H1320 C1349 0.950 . S
H1321 C1350 0.950 . S
H1322 C1352 0.950 . S
H1323 C1353 0.950 . S
C1324 H1306 0.951 . S
C1324 C1325 1.366 . S
C1324 C1326 1.388 . S
C1325 C1324 1.366 . S
C1325 C1329 1.385 . S
C1326 H1307 0.951 . S
C1326 C1324 1.388 . S
C1326 C1327 1.366 . S
C1327 C1326 1.366 . S
C1327 C1328 1.414 . S
C1327 C1330 1.499 . S
C1328 H1308 0.950 . S
C1328 C1327 1.414 . S
C1328 C1329 1.374 . S
C1329 H1309 0.950 . S
C1329 C1325 1.385 . S
C1329 C1328 1.374 . S
C1330 C1327 1.499 . S
C1330 C1331 1.373 . S
C1330 C1332 1.389 . S
C1331 H1310 0.950 . S
C1331 C1330 1.373 . S
C1331 C1347 1.377 . S
C1332 C1330 1.389 . S
C1332 C1333 1.524 . S
C1332 C1346 1.377 . S
C1333 C1332 1.524 . S
C1333 C1334 1.397 . S
C1333 C1338 1.363 . S
C1334 H1311 0.950 . S
C1334 C1333 1.397 . S
C1334 C1335 1.334 . S
C1335 H1312 0.950 . S
C1335 C1334 1.334 . S
C1335 C1336 1.287 . S
C1336 C1335 1.287 . S
C1336 C1337 1.524 . S
C1336 H1355 0.913 . S
C1337 H1313 0.950 . S
C1337 C1336 1.524 . S
C1337 C1338 1.415 . S
C1338 H1314 0.950 . S
C1338 C1333 1.363 . S
C1338 C1337 1.415 . S
C1339 H1315 0.951 . S
C1339 C1340 1.366 . S
C1339 C1341 1.388 . S
C1340 C1339 1.366 . S
C1340 C1344 1.385 . S
C1341 H1316 0.951 . S
C1341 C1339 1.388 . S
C1341 C1342 1.366 . S
C1342 C1341 1.366 . S
C1342 C1343 1.414 . S
C1342 C1345 1.499 . S
C1343 H1317 0.950 . S
C1343 C1342 1.414 . S
C1343 C1344 1.374 . S
C1344 H1318 0.950 . S
C1344 C1340 1.385 . S
C1344 C1343 1.374 . S
C1345 C1342 1.499 . S
C1345 C1346 1.373 . S
C1345 C1347 1.389 . S
C1346 H1319 0.950 . S
C1346 C1332 1.377 . S
C1346 C1345 1.373 . S
C1347 C1331 1.377 . S
C1347 C1345 1.389 . S
C1347 C1348 1.524 . S
C1348 C1347 1.524 . S
C1348 C1349 1.397 . S
C1348 C1353 1.363 . S
C1349 H1320 0.950 . S
C1349 C1348 1.397 . S
C1349 C1350 1.334 . S
C1350 H1321 0.950 . S
C1350 C1349 1.334 . S
C1350 C1351 1.287 . S
C1351 C1350 1.287 . S
C1351 C1352 1.524 . S
C1351 H1354 0.999 . S
C1352 H1322 0.950 . S
C1352 C1351 1.524 . S
C1352 C1353 1.415 . S
C1353 H1323 0.950 . S
C1353 C1348 1.363 . S
C1353 C1352 1.415 . S
H1354 C1351 0.999 . S
H1355 C1336 0.913 . S
H1356 C1374 0.951 . S
H1357 C1376 0.951 . S
H1358 C1378 0.950 . S
H1359 C1379 0.950 . S
H1360 C1381 0.950 . S
H1361 C1384 0.950 . S
H1362 C1385 0.950 . S
H1363 C1387 0.950 . S
H1364 C1388 0.950 . S
H1365 C1389 0.951 . S
H1366 C1391 0.951 . S
H1367 C1393 0.950 . S
H1368 C1394 0.950 . S
H1369 C1396 0.950 . S
H1370 C1399 0.950 . S
H1371 C1400 0.950 . S
H1372 C1402 0.950 . S
H1373 C1403 0.950 . S
C1374 H1356 0.951 . S
C1374 C1375 1.366 . S
C1374 C1376 1.388 . S
C1375 C1374 1.366 . S
C1375 C1379 1.385 . S
C1376 H1357 0.951 . S
C1376 C1374 1.388 . S
C1376 C1377 1.366 . S
C1377 C1376 1.366 . S
C1377 C1378 1.414 . S
C1377 C1380 1.499 . S
C1378 H1358 0.950 . S
C1378 C1377 1.414 . S
C1378 C1379 1.374 . S
C1379 H1359 0.950 . S
C1379 C1375 1.385 . S
C1379 C1378 1.374 . S
C1380 C1377 1.499 . S
C1380 C1381 1.373 . S
C1380 C1382 1.389 . S
C1381 H1360 0.950 . S
C1381 C1380 1.373 . S
C1381 C1397 1.377 . S
C1382 C1380 1.389 . S
C1382 C1383 1.524 . S
C1382 C1396 1.377 . S
C1383 C1382 1.524 . S
C1383 C1384 1.397 . S
C1383 C1388 1.363 . S
C1384 H1361 0.950 . S
C1384 C1383 1.397 . S
C1384 C1385 1.334 . S
C1385 H1362 0.950 . S
C1385 C1384 1.334 . S
C1385 C1386 1.287 . S
C1386 C1385 1.287 . S
C1386 C1387 1.524 . S
C1386 H1405 0.913 . S
C1387 H1363 0.950 . S
C1387 C1386 1.524 . S
C1387 C1388 1.415 . S
C1388 H1364 0.950 . S
C1388 C1383 1.363 . S
C1388 C1387 1.415 . S
C1389 H1365 0.951 . S
C1389 C1390 1.366 . S
C1389 C1391 1.388 . S
C1390 C1389 1.366 . S
C1390 C1394 1.385 . S
C1391 H1366 0.951 . S
C1391 C1389 1.388 . S
C1391 C1392 1.366 . S
C1392 C1391 1.366 . S
C1392 C1393 1.414 . S
C1392 C1395 1.499 . S
C1393 H1367 0.950 . S
C1393 C1392 1.414 . S
C1393 C1394 1.374 . S
C1394 H1368 0.950 . S
C1394 C1390 1.385 . S
C1394 C1393 1.374 . S
C1395 C1392 1.499 . S
C1395 C1396 1.373 . S
C1395 C1397 1.389 . S
C1396 H1369 0.950 . S
C1396 C1382 1.377 . S
C1396 C1395 1.373 . S
C1397 C1381 1.377 . S
C1397 C1395 1.389 . S
C1397 C1398 1.524 . S
C1398 C1397 1.524 . S
C1398 C1399 1.397 . S
C1398 C1403 1.363 . S
C1399 H1370 0.950 . S
C1399 C1398 1.397 . S
C1399 C1400 1.334 . S
C1400 H1371 0.950 . S
C1400 C1399 1.334 . S
C1400 C1401 1.287 . S
C1401 C1400 1.287 . S
C1401 C1402 1.524 . S
C1401 H1404 0.999 . S
C1402 H1372 0.950 . S
C1402 C1401 1.524 . S
C1402 C1403 1.415 . S
C1403 H1373 0.950 . S
C1403 C1398 1.363 . S
C1403 C1402 1.415 . S
H1404 C1401 0.999 . S
H1405 C1386 0.913 . S
H1406 C1424 0.951 . S
H1407 C1426 0.951 . S
H1408 C1428 0.950 . S
H1409 C1429 0.950 . S
H1410 C1431 0.950 . S
H1411 C1434 0.950 . S
H1412 C1435 0.950 . S
H1413 C1437 0.950 . S
H1414 C1438 0.950 . S
H1415 C1439 0.951 . S
H1416 C1441 0.951 . S
H1417 C1443 0.950 . S
H1418 C1444 0.950 . S
H1419 C1446 0.950 . S
H1420 C1449 0.950 . S
H1421 C1450 0.950 . S
H1422 C1452 0.950 . S
H1423 C1453 0.950 . S
C1424 H1406 0.951 . S
C1424 C1425 1.366 . S
C1424 C1426 1.388 . S
C1425 C1424 1.366 . S
C1425 C1429 1.385 . S
C1426 H1407 0.951 . S
C1426 C1424 1.388 . S
C1426 C1427 1.366 . S
C1427 C1426 1.366 . S
C1427 C1428 1.414 . S
C1427 C1430 1.499 . S
C1428 H1408 0.950 . S
C1428 C1427 1.414 . S
C1428 C1429 1.374 . S
C1429 H1409 0.950 . S
C1429 C1425 1.385 . S
C1429 C1428 1.374 . S
C1430 C1427 1.499 . S
C1430 C1431 1.373 . S
C1430 C1432 1.389 . S
C1431 H1410 0.950 . S
C1431 C1430 1.373 . S
C1431 C1447 1.377 . S
C1432 C1430 1.389 . S
C1432 C1433 1.524 . S
C1432 C1446 1.377 . S
C1433 C1432 1.524 . S
C1433 C1434 1.397 . S
C1433 C1438 1.363 . S
C1434 H1411 0.950 . S
C1434 C1433 1.397 . S
C1434 C1435 1.334 . S
C1435 H1412 0.950 . S
C1435 C1434 1.334 . S
C1435 C1436 1.287 . S
C1436 C1435 1.287 . S
C1436 C1437 1.524 . S
C1436 H1455 0.913 . S
C1437 H1413 0.950 . S
C1437 C1436 1.524 . S
C1437 C1438 1.415 . S
C1438 H1414 0.950 . S
C1438 C1433 1.363 . S
C1438 C1437 1.415 . S
C1439 H1415 0.951 . S
C1439 C1440 1.366 . S
C1439 C1441 1.388 . S
C1440 C1439 1.366 . S
C1440 C1444 1.385 . S
C1441 H1416 0.951 . S
C1441 C1439 1.388 . S
C1441 C1442 1.366 . S
C1442 C1441 1.366 . S
C1442 C1443 1.414 . S
C1442 C1445 1.499 . S
C1443 H1417 0.950 . S
C1443 C1442 1.414 . S
C1443 C1444 1.374 . S
C1444 H1418 0.950 . S
C1444 C1440 1.385 . S
C1444 C1443 1.374 . S
C1445 C1442 1.499 . S
C1445 C1446 1.373 . S
C1445 C1447 1.389 . S
C1446 H1419 0.950 . S
C1446 C1432 1.377 . S
C1446 C1445 1.373 . S
C1447 C1431 1.377 . S
C1447 C1445 1.389 . S
C1447 C1448 1.524 . S
C1448 C1447 1.524 . S
C1448 C1449 1.397 . S
C1448 C1453 1.363 . S
C1449 H1420 0.950 . S
C1449 C1448 1.397 . S
C1449 C1450 1.334 . S
C1450 H1421 0.950 . S
C1450 C1449 1.334 . S
C1450 C1451 1.287 . S
C1451 C1450 1.287 . S
C1451 C1452 1.524 . S
C1451 H1454 0.999 . S
C1452 H1422 0.950 . S
C1452 C1451 1.524 . S
C1452 C1453 1.415 . S
C1453 H1423 0.950 . S
C1453 C1448 1.363 . S
C1453 C1452 1.415 . S
H1454 C1451 0.999 . S
H1455 C1436 0.913 . S
H1456 C1474 0.951 . S
H1457 C1476 0.951 . S
H1458 C1478 0.950 . S
H1459 C1479 0.950 . S
H1460 C1481 0.950 . S
H1461 C1484 0.950 . S
H1462 C1485 0.950 . S
H1463 C1487 0.950 . S
H1464 C1488 0.950 . S
H1465 C1489 0.951 . S
H1466 C1491 0.951 . S
H1467 C1493 0.950 . S
H1468 C1494 0.950 . S
H1469 C1496 0.950 . S
H1470 C1499 0.950 . S
H1471 C1500 0.950 . S
H1472 C1502 0.950 . S
H1473 C1503 0.950 . S
C1474 H1456 0.951 . S
C1474 C1475 1.366 . S
C1474 C1476 1.388 . S
C1475 C1474 1.366 . S
C1475 C1479 1.385 . S
C1476 H1457 0.951 . S
C1476 C1474 1.388 . S
C1476 C1477 1.366 . S
C1477 C1476 1.366 . S
C1477 C1478 1.414 . S
C1477 C1480 1.499 . S
C1478 H1458 0.950 . S
C1478 C1477 1.414 . S
C1478 C1479 1.374 . S
C1479 H1459 0.950 . S
C1479 C1475 1.385 . S
C1479 C1478 1.374 . S
C1480 C1477 1.499 . S
C1480 C1481 1.373 . S
C1480 C1482 1.389 . S
C1481 H1460 0.950 . S
C1481 C1480 1.373 . S
C1481 C1497 1.377 . S
C1482 C1480 1.389 . S
C1482 C1483 1.524 . S
C1482 C1496 1.377 . S
C1483 C1482 1.524 . S
C1483 C1484 1.397 . S
C1483 C1488 1.363 . S
C1484 H1461 0.950 . S
C1484 C1483 1.397 . S
C1484 C1485 1.334 . S
C1485 H1462 0.950 . S
C1485 C1484 1.334 . S
C1485 C1486 1.287 . S
C1486 C1485 1.287 . S
C1486 C1487 1.524 . S
C1486 H1505 0.913 . S
C1487 H1463 0.950 . S
C1487 C1486 1.524 . S
C1487 C1488 1.415 . S
C1488 H1464 0.950 . S
C1488 C1483 1.363 . S
C1488 C1487 1.415 . S
C1489 H1465 0.951 . S
C1489 C1490 1.366 . S
C1489 C1491 1.388 . S
C1490 C1489 1.366 . S
C1490 C1494 1.385 . S
C1491 H1466 0.951 . S
C1491 C1489 1.388 . S
C1491 C1492 1.366 . S
C1492 C1491 1.366 . S
C1492 C1493 1.414 . S
C1492 C1495 1.499 . S
C1493 H1467 0.950 . S
C1493 C1492 1.414 . S
C1493 C1494 1.374 . S
C1494 H1468 0.950 . S
C1494 C1490 1.385 . S
C1494 C1493 1.374 . S
C1495 C1492 1.499 . S
C1495 C1496 1.373 . S
C1495 C1497 1.389 . S
C1496 H1469 0.950 . S
C1496 C1482 1.377 . S
C1496 C1495 1.373 . S
C1497 C1481 1.377 . S
C1497 C1495 1.389 . S
C1497 C1498 1.524 . S
C1498 C1497 1.524 . S
C1498 C1499 1.397 . S
C1498 C1503 1.363 . S
C1499 H1470 0.950 . S
C1499 C1498 1.397 . S
C1499 C1500 1.334 . S
C1500 H1471 0.950 . S
C1500 C1499 1.334 . S
C1500 C1501 1.287 . S
C1501 C1500 1.287 . S
C1501 C1502 1.524 . S
C1501 H1504 0.999 . S
C1502 H1472 0.950 . S
C1502 C1501 1.524 . S
C1502 C1503 1.415 . S
C1503 H1473 0.950 . S
C1503 C1498 1.363 . S
C1503 C1502 1.415 . S
H1504 C1501 0.999 . S
H1505 C1486 0.913 . S
H1506 C1524 0.951 . S
H1507 C1526 0.951 . S
H1508 C1528 0.950 . S
H1509 C1529 0.950 . S
H1510 C1531 0.950 . S
H1511 C1534 0.950 . S
H1512 C1535 0.950 . S
H1513 C1537 0.950 . S
H1514 C1538 0.950 . S
H1515 C1539 0.951 . S
H1516 C1541 0.951 . S
H1517 C1543 0.950 . S
H1518 C1544 0.950 . S
H1519 C1546 0.950 . S
H1520 C1549 0.950 . S
H1521 C1550 0.950 . S
H1522 C1552 0.950 . S
H1523 C1553 0.950 . S
C1524 H1506 0.951 . S
C1524 C1525 1.366 . S
C1524 C1526 1.388 . S
C1525 C1524 1.366 . S
C1525 C1529 1.385 . S
C1526 H1507 0.951 . S
C1526 C1524 1.388 . S
C1526 C1527 1.366 . S
C1527 C1526 1.366 . S
C1527 C1528 1.414 . S
C1527 C1530 1.499 . S
C1528 H1508 0.950 . S
C1528 C1527 1.414 . S
C1528 C1529 1.374 . S
C1529 H1509 0.950 . S
C1529 C1525 1.385 . S
C1529 C1528 1.374 . S
C1530 C1527 1.499 . S
C1530 C1531 1.373 . S
C1530 C1532 1.389 . S
C1531 H1510 0.950 . S
C1531 C1530 1.373 . S
C1531 C1547 1.377 . S
C1532 C1530 1.389 . S
C1532 C1533 1.524 . S
C1532 C1546 1.377 . S
C1533 C1532 1.524 . S
C1533 C1534 1.397 . S
C1533 C1538 1.363 . S
C1534 H1511 0.950 . S
C1534 C1533 1.397 . S
C1534 C1535 1.334 . S
C1535 H1512 0.950 . S
C1535 C1534 1.334 . S
C1535 C1536 1.287 . S
C1536 C1535 1.287 . S
C1536 C1537 1.524 . S
C1536 H1555 0.913 . S
C1537 H1513 0.950 . S
C1537 C1536 1.524 . S
C1537 C1538 1.415 . S
C1538 H1514 0.950 . S
C1538 C1533 1.363 . S
C1538 C1537 1.415 . S
C1539 H1515 0.951 . S
C1539 C1540 1.366 . S
C1539 C1541 1.388 . S
C1540 C1539 1.366 . S
C1540 C1544 1.385 . S
C1541 H1516 0.951 . S
C1541 C1539 1.388 . S
C1541 C1542 1.366 . S
C1542 C1541 1.366 . S
C1542 C1543 1.414 . S
C1542 C1545 1.499 . S
C1543 H1517 0.950 . S
C1543 C1542 1.414 . S
C1543 C1544 1.374 . S
C1544 H1518 0.950 . S
C1544 C1540 1.385 . S
C1544 C1543 1.374 . S
C1545 C1542 1.499 . S
C1545 C1546 1.373 . S
C1545 C1547 1.389 . S
C1546 H1519 0.950 . S
C1546 C1532 1.377 . S
C1546 C1545 1.373 . S
C1547 C1531 1.377 . S
C1547 C1545 1.389 . S
C1547 C1548 1.524 . S
C1548 C1547 1.524 . S
C1548 C1549 1.397 . S
C1548 C1553 1.363 . S
C1549 H1520 0.950 . S
C1549 C1548 1.397 . S
C1549 C1550 1.334 . S
C1550 H1521 0.950 . S
C1550 C1549 1.334 . S
C1550 C1551 1.287 . S
C1551 C1550 1.287 . S
C1551 C1552 1.524 . S
C1551 H1554 0.999 . S
C1552 H1522 0.950 . S
C1552 C1551 1.524 . S
C1552 C1553 1.415 . S
C1553 H1523 0.950 . S
C1553 C1548 1.363 . S
C1553 C1552 1.415 . S
H1554 C1551 0.999 . S
H1555 C1536 0.913 . S
H1556 C1574 0.951 . S
H1557 C1576 0.951 . S
H1558 C1578 0.950 . S
H1559 C1579 0.950 . S
H1560 C1581 0.950 . S
H1561 C1584 0.950 . S
H1562 C1585 0.950 . S
H1563 C1587 0.950 . S
H1564 C1588 0.950 . S
H1565 C1589 0.951 . S
H1566 C1591 0.951 . S
H1567 C1593 0.950 . S
H1568 C1594 0.950 . S
H1569 C1596 0.950 . S
H1570 C1599 0.950 . S
H1571 C1600 0.950 . S
H1572 C1602 0.950 . S
H1573 C1603 0.950 . S
C1574 H1556 0.951 . S
C1574 C1575 1.366 . S
C1574 C1576 1.388 . S
C1575 C1574 1.366 . S
C1575 C1579 1.385 . S
C1576 H1557 0.951 . S
C1576 C1574 1.388 . S
C1576 C1577 1.366 . S
C1577 C1576 1.366 . S
C1577 C1578 1.414 . S
C1577 C1580 1.499 . S
C1578 H1558 0.950 . S
C1578 C1577 1.414 . S
C1578 C1579 1.374 . S
C1579 H1559 0.950 . S
C1579 C1575 1.385 . S
C1579 C1578 1.374 . S
C1580 C1577 1.499 . S
C1580 C1581 1.373 . S
C1580 C1582 1.389 . S
C1581 H1560 0.950 . S
C1581 C1580 1.373 . S
C1581 C1597 1.377 . S
C1582 C1580 1.389 . S
C1582 C1583 1.524 . S
C1582 C1596 1.377 . S
C1583 C1582 1.524 . S
C1583 C1584 1.397 . S
C1583 C1588 1.363 . S
C1584 H1561 0.950 . S
C1584 C1583 1.397 . S
C1584 C1585 1.334 . S
C1585 H1562 0.950 . S
C1585 C1584 1.334 . S
C1585 C1586 1.287 . S
C1586 C1585 1.287 . S
C1586 C1587 1.524 . S
C1586 H1605 0.913 . S
C1587 H1563 0.950 . S
C1587 C1586 1.524 . S
C1587 C1588 1.415 . S
C1588 H1564 0.950 . S
C1588 C1583 1.363 . S
C1588 C1587 1.415 . S
C1589 H1565 0.951 . S
C1589 C1590 1.366 . S
C1589 C1591 1.388 . S
C1590 C1589 1.366 . S
C1590 C1594 1.385 . S
C1591 H1566 0.951 . S
C1591 C1589 1.388 . S
C1591 C1592 1.366 . S
C1592 C1591 1.366 . S
C1592 C1593 1.414 . S
C1592 C1595 1.499 . S
C1593 H1567 0.950 . S
C1593 C1592 1.414 . S
C1593 C1594 1.374 . S
C1594 H1568 0.950 . S
C1594 C1590 1.385 . S
C1594 C1593 1.374 . S
C1595 C1592 1.499 . S
C1595 C1596 1.373 . S
C1595 C1597 1.389 . S
C1596 H1569 0.950 . S
C1596 C1582 1.377 . S
C1596 C1595 1.373 . S
C1597 C1581 1.377 . S
C1597 C1595 1.389 . S
C1597 C1598 1.524 . S
C1598 C1597 1.524 . S
C1598 C1599 1.397 . S
C1598 C1603 1.363 . S
C1599 H1570 0.950 . S
C1599 C1598 1.397 . S
C1599 C1600 1.334 . S
C1600 H1571 0.950 . S
C1600 C1599 1.334 . S
C1600 C1601 1.287 . S
C1601 C1600 1.287 . S
C1601 C1602 1.524 . S
C1601 H1604 0.999 . S
C1602 H1572 0.950 . S
C1602 C1601 1.524 . S
C1602 C1603 1.415 . S
C1603 H1573 0.950 . S
C1603 C1598 1.363 . S
C1603 C1602 1.415 . S
H1604 C1601 0.999 . S
H1605 C1586 0.913 . S
H1606 C1624 0.951 . S
H1607 C1626 0.951 . S
H1608 C1628 0.950 . S
H1609 C1629 0.950 . S
H1610 C1631 0.950 . S
H1611 C1634 0.950 . S
H1612 C1635 0.950 . S
H1613 C1637 0.950 . S
H1614 C1638 0.950 . S
H1615 C1639 0.951 . S
H1616 C1641 0.951 . S
H1617 C1643 0.950 . S
H1618 C1644 0.950 . S
H1619 C1646 0.950 . S
H1620 C1649 0.950 . S
H1621 C1650 0.950 . S
H1622 C1652 0.950 . S
H1623 C1653 0.950 . S
C1624 H1606 0.951 . S
C1624 C1625 1.366 . S
C1624 C1626 1.388 . S
C1625 C1624 1.366 . S
C1625 C1629 1.385 . S
C1626 H1607 0.951 . S
C1626 C1624 1.388 . S
C1626 C1627 1.366 . S
C1627 C1626 1.366 . S
C1627 C1628 1.414 . S
C1627 C1630 1.499 . S
C1628 H1608 0.950 . S
C1628 C1627 1.414 . S
C1628 C1629 1.374 . S
C1629 H1609 0.950 . S
C1629 C1625 1.385 . S
C1629 C1628 1.374 . S
C1630 C1627 1.499 . S
C1630 C1631 1.373 . S
C1630 C1632 1.389 . S
C1631 H1610 0.950 . S
C1631 C1630 1.373 . S
C1631 C1647 1.377 . S
C1632 C1630 1.389 . S
C1632 C1633 1.524 . S
C1632 C1646 1.377 . S
C1633 C1632 1.524 . S
C1633 C1634 1.397 . S
C1633 C1638 1.363 . S
C1634 H1611 0.950 . S
C1634 C1633 1.397 . S
C1634 C1635 1.334 . S
C1635 H1612 0.950 . S
C1635 C1634 1.334 . S
C1635 C1636 1.287 . S
C1636 C1635 1.287 . S
C1636 C1637 1.524 . S
C1636 H1655 0.913 . S
C1637 H1613 0.950 . S
C1637 C1636 1.524 . S
C1637 C1638 1.415 . S
C1638 H1614 0.950 . S
C1638 C1633 1.363 . S
C1638 C1637 1.415 . S
C1639 H1615 0.951 . S
C1639 C1640 1.366 . S
C1639 C1641 1.388 . S
C1640 C1639 1.366 . S
C1640 C1644 1.385 . S
C1641 H1616 0.951 . S
C1641 C1639 1.388 . S
C1641 C1642 1.366 . S
C1642 C1641 1.366 . S
C1642 C1643 1.414 . S
C1642 C1645 1.499 . S
C1643 H1617 0.950 . S
C1643 C1642 1.414 . S
C1643 C1644 1.374 . S
C1644 H1618 0.950 . S
C1644 C1640 1.385 . S
C1644 C1643 1.374 . S
C1645 C1642 1.499 . S
C1645 C1646 1.373 . S
C1645 C1647 1.389 . S
C1646 H1619 0.950 . S
C1646 C1632 1.377 . S
C1646 C1645 1.373 . S
C1647 C1631 1.377 . S
C1647 C1645 1.389 . S
C1647 C1648 1.524 . S
C1648 C1647 1.524 . S
C1648 C1649 1.397 . S
C1648 C1653 1.363 . S
C1649 H1620 0.950 . S
C1649 C1648 1.397 . S
C1649 C1650 1.334 . S
C1650 H1621 0.950 . S
C1650 C1649 1.334 . S
C1650 C1651 1.287 . S
C1651 C1650 1.287 . S
C1651 C1652 1.524 . S
C1651 H1654 0.999 . S
C1652 H1622 0.950 . S
C1652 C1651 1.524 . S
C1652 C1653 1.415 . S
C1653 H1623 0.950 . S
C1653 C1648 1.363 . S
C1653 C1652 1.415 . S
H1654 C1651 0.999 . S
H1655 C1636 0.913 . S
C475 C7 2.061 . S
C490 C176 2.039 . S
C525 C30 1.531 . S
C540 C229 1.512 . S
C590 C282 1.818 . S
C575 N58 1.795 . S
C640 C319 1.271 . S
C625 N81 1.250 . S
C690 C379 1.794 . S
C675 C99 1.814 . S
C740 C432 1.364 . S
C725 N127 1.345 . S
C775 N25 1.876 . S
C790 C283 1.905 . S
C825 C62 1.474 . S
C840 C326 1.459 . S
C890 C372 1.835 . S
C875 C85 1.841 . S
C940 C425 1.297 . S
C925 N94 1.284 . S
C975 C131 1.913 . S
C990 C177 1.897 . S
C1040 C230 1.401 . S
C1025 N2 1.378 . S
C1090 C336 2.002 . S
C1075 C16 2.013 . S
C1125 C39 1.497 . S
C1140 C388 1.495 . S
C1190 C441 1.822 . S
C1175 N48 1.791 . S
C1225 N71 1.249 . S
C1240 C167 1.267 . S
C1275 C108 1.815 . S
C1290 C220 1.811 . S
C1325 N117 1.336 . S
C1340 C273 1.364 . S
C1375 N35 1.870 . S
C1390 C442 1.900 . S
C1440 C160 1.471 . S
C1425 C53 1.486 . S
C1475 C76 1.884 . S
C1490 C213 1.867 . S
C1525 N104 1.266 . S
C1540 C266 1.280 . S
C1575 C122 1.883 . S
C1590 C335 1.871 . S
C1625 N12 1.350 . S
C1640 C389 1.375 . S
