# Generated by pormake.
# Topology zzz, (3,6)-cn, num edge types: 1
# Building blocks:
#     Node 0, Type 0, BuildingBlock: WUSLED_clean_sbu_0, # of connection points: 3
#     Node 1, Type 0, BuildingBlock: WUSLED_clean_sbu_0, # of connection points: 3
#     Node 2, Type 0, BuildingBlock: WUSLED_clean_sbu_0, # of connection points: 3
#     Node 3, Type 0, BuildingBlock: WUSLED_clean_sbu_0, # of connection points: 3
#     Node 4, Type 0, BuildingBlock: WUSLED_clean_sbu_0, # of connection points: 3
#     Node 5, Type 0, BuildingBlock: WUSLED_clean_sbu_0, # of connection points: 3
#     Node 6, Type 0, BuildingBlock: WUSLED_clean_sbu_0, # of connection points: 3
#     Node 7, Type 0, BuildingBlock: WUSLED_clean_sbu_0, # of connection points: 3
#     Node 8, Type 1, BuildingBlock: KUMBUR_clean_sbu_1, # of connection points: 6
#     Node 9, Type 1, BuildingBlock: KUMBUR_clean_sbu_1, # of connection points: 6
#     Node 10, Type 1, BuildingBlock: KUMBUR_clean_sbu_1, # of connection points: 6
#     Node 11, Type 1, BuildingBlock: KUMBUR_clean_sbu_1, # of connection points: 6
#     Edge 12, Type (0, 1), BuildingBlock: XUDNAN_clean_linker_2, # of connection points: 2
#     Edge 13, Type (0, 1), BuildingBlock: XUDNAN_clean_linker_2, # of connection points: 2
#     Edge 14, Type (0, 1), BuildingBlock: XUDNAN_clean_linker_2, # of connection points: 2
#     Edge 15, Type (0, 1), BuildingBlock: XUDNAN_clean_linker_2, # of connection points: 2
#     Edge 16, Type (0, 1), BuildingBlock: XUDNAN_clean_linker_2, # of connection points: 2
#     Edge 17, Type (0, 1), BuildingBlock: XUDNAN_clean_linker_2, # of connection points: 2
#     Edge 18, Type (0, 1), BuildingBlock: XUDNAN_clean_linker_2, # of connection points: 2
#     Edge 19, Type (0, 1), BuildingBlock: XUDNAN_clean_linker_2, # of connection points: 2
#     Edge 20, Type (0, 1), BuildingBlock: XUDNAN_clean_linker_2, # of connection points: 2
#     Edge 21, Type (0, 1), BuildingBlock: XUDNAN_clean_linker_2, # of connection points: 2
#     Edge 22, Type (0, 1), BuildingBlock: XUDNAN_clean_linker_2, # of connection points: 2
#     Edge 23, Type (0, 1), BuildingBlock: XUDNAN_clean_linker_2, # of connection points: 2
#     Edge 24, Type (0, 1), BuildingBlock: XUDNAN_clean_linker_2, # of connection points: 2
#     Edge 25, Type (0, 1), BuildingBlock: XUDNAN_clean_linker_2, # of connection points: 2
#     Edge 26, Type (0, 1), BuildingBlock: XUDNAN_clean_linker_2, # of connection points: 2
#     Edge 27, Type (0, 1), BuildingBlock: XUDNAN_clean_linker_2, # of connection points: 2
#     Edge 28, Type (0, 1), BuildingBlock: XUDNAN_clean_linker_2, # of connection points: 2
#     Edge 29, Type (0, 1), BuildingBlock: XUDNAN_clean_linker_2, # of connection points: 2
#     Edge 30, Type (0, 1), BuildingBlock: XUDNAN_clean_linker_2, # of connection points: 2
#     Edge 31, Type (0, 1), BuildingBlock: XUDNAN_clean_linker_2, # of connection points: 2
#     Edge 32, Type (0, 1), BuildingBlock: XUDNAN_clean_linker_2, # of connection points: 2
#     Edge 33, Type (0, 1), BuildingBlock: XUDNAN_clean_linker_2, # of connection points: 2
#     Edge 34, Type (0, 1), BuildingBlock: XUDNAN_clean_linker_2, # of connection points: 2
#     Edge 35, Type (0, 1), BuildingBlock: XUDNAN_clean_linker_2, # of connection points: 2
# Relax obj value: 0.288
# Max RMSD: 0.200
# Mean RMSD: 0.174
data_MOF--net-zzz--node1-WUSLED_clean_sbu_0--node2-KUMBUR_clean_sbu_1--edge1-XUDNAN_clean_linker_2
_symmetry_space_group_name_H-M    P1
_symmetry_Int_Tables_number       1
_symmetry_cell_setting            triclinic
loop_
_symmetry_equiv_pos_as_xyz
'x, y, z'
_cell_length_a     61.265538
_cell_length_b     61.191096
_cell_length_c     22.593088
_cell_angle_alpha  89.984711
_cell_angle_beta   90.161023
_cell_angle_gamma 90.359051
loop_
_atom_site_label
_atom_site_type_symbol
_atom_site_fract_x
_atom_site_fract_y
_atom_site_fract_z
_atom_type_partial_charge
C0 C 0.79884 0.52528 0.29549 0.0
C1 C 0.81803 0.5227 0.26189 0.0
C2 C 0.84123 0.52508 0.35097 0.0
C3 C 0.83878 0.52258 0.28912 0.0
C4 C 0.82215 0.52882 0.38415 0.0
C5 C 0.80133 0.52875 0.35692 0.0
U6 U 0.74865 0.53679 0.18904 0.0
O7 O 0.71261 0.53359 0.198 0.0
O8 O 0.73053 0.51125 0.14064 0.0
C9 C 0.71126 0.5181 0.15757 0.0
C10 C 0.77645 0.52139 0.26903 0.0
C11 C 0.6941 0.5195 0.10969 0.0
C12 C 0.66094 0.5352 0.06515 0.0
C13 C 0.67789 0.53583 0.10798 0.0
C14 C 0.67616 0.50224 0.02436 0.0
C15 C 0.65954 0.51807 0.02337 0.0
C16 C 0.69298 0.5029 0.06665 0.0
C17 C 0.78316 0.58211 0.12517 0.0
C18 C 0.81149 0.59142 0.05539 0.0
C19 C 0.82112 0.58055 0.15507 0.0
C20 C 0.79899 0.57884 0.1692 0.0
C21 C 0.82754 0.58455 0.09616 0.0
C22 C 0.78946 0.59028 0.07003 0.0
C23 C 0.76212 0.57082 0.12876 0.0
O24 O 0.76067 0.53508 0.28199 0.0
O25 O 0.77545 0.51465 0.21382 0.0
O26 O 0.76311 0.55068 0.10907 0.0
O27 O 0.75115 0.57261 0.17846 0.0
H28 H 0.81704 0.52 0.21459 0.0
H29 H 0.85297 0.52 0.26159 0.0
H30 H 0.82318 0.53069 0.43174 0.0
H31 H 0.78702 0.53056 0.3845 0.0
H32 H 0.64846 0.54765 0.06623 0.0
H33 H 0.67801 0.54883 0.14047 0.0
H34 H 0.67603 0.48897 0.99266 0.0
H35 H 0.70496 0.48995 0.06641 0.0
H36 H 0.81539 0.5949 1.00969 0.0
H37 H 0.83301 0.57621 0.18856 0.0
H38 H 0.79439 0.57261 0.21234 0.0
H39 H 0.77739 0.59293 0.03562 0.0
C40 C 0.01194 0.79921 0.3218 0.0
C41 C 1.00818 0.81982 0.29585 0.0
C42 C 1.00844 0.83779 0.39365 0.0
C43 C 1.00644 0.83883 0.33128 0.0
C44 C 0.01228 0.81705 0.41887 0.0
C45 C 0.01394 0.79821 0.38369 0.0
U46 U 1.00163 0.75559 0.19448 0.0
O47 O 0.02696 0.73631 0.14901 0.0
O48 O 1.00133 0.71944 0.19892 0.0
C49 C 0.01814 0.71741 0.16324 0.0
C50 C 0.01547 0.77866 0.28676 0.0
C51 C 0.01718 0.70032 0.11562 0.0
C52 C 0.03683 0.67317 0.05718 0.0
C53 C 0.03676 0.69048 0.09795 0.0
C54 C 0.99764 0.67539 0.0482 0.0
C55 C 0.01729 0.66499 0.03232 0.0
C56 C 0.99756 0.69278 0.08962 0.0
C57 C 0.96072 0.79452 0.12597 0.0
C58 C 0.95023 0.82447 0.06242 0.0
C59 C 0.95732 0.83108 0.16645 0.0
C60 C 0.96146 0.8088 0.1745 0.0
C61 C 0.95305 0.83942 0.10941 0.0
C62 C 0.95393 0.80226 0.07082 0.0
C63 C 0.9712 0.7731 0.12839 0.0
O64 O 1.00044 0.76328 0.29023 0.0
O65 O 0.0239 0.78034 0.23346 0.0
O66 O 0.99206 0.77383 0.11536 0.0
O67 O 0.96676 0.76062 0.17427 0.0
H68 H 1.00669 0.82129 0.24824 0.0
H69 H 1.00331 0.85431 0.30976 0.0
H70 H 0.01447 0.8153 0.46618 0.0
H71 H 0.01718 0.78271 0.40512 0.0
H72 H 0.05235 0.66594 0.04567 0.0
H73 H 0.05214 0.69589 0.11684 0.0
H74 H 0.98226 0.66957 0.03032 0.0
H75 H 0.98216 0.7 0.1021 0.0
H76 H 0.94727 0.8299 0.01756 0.0
H77 H 0.95909 0.8419 0.20406 0.0
H78 H 0.96674 0.80305 0.21756 0.0
H79 H 0.95343 0.79144 0.03284 0.0
C80 C 0.73588 0.01156 0.30107 0.0
C81 C 0.72081 0.99566 0.28193 0.0
C82 C 0.6934 1.00862 0.35291 0.0
C83 C 0.69994 0.99417 0.30755 0.0
C84 C 0.7088 0.02421 0.37283 0.0
C85 C 0.72971 0.02567 0.34715 0.0
U86 U 0.77595 0.99806 0.17546 0.0
O87 O 0.81187 0.99411 0.17274 0.0
O88 O 0.79637 0.02016 0.12155 0.0
C89 C 0.81465 1.00997 0.13411 0.0
C90 C 0.75754 0.01426 0.27163 0.0
C91 C 0.83 1.006 0.08396 0.0
C92 C 0.86701 1.0092 0.0437 0.0
C93 C 0.85235 1.01069 0.09139 0.0
C94 C 0.83739 0.99759 0.98012 0.0
C95 C 0.85975 1.003 0.98684 0.0
C96 C 0.82274 0.99911 0.0279 0.0
C97 C 0.75034 0.95652 0.0622 0.0
C98 C 0.74784 0.95671 0.95505 0.0
C99 C 0.72651 0.93079 0.01198 0.0
C100 C 0.73625 0.93846 0.06386 0.0
C101 C 0.7308 0.94113 0.95748 0.0
C102 C 0.75734 0.96461 1.00728 0.0
C103 C 0.75242 0.96956 0.11644 0.0
O104 O 0.77059 0.99726 0.27228 0.0
O105 O 0.75714 0.02396 0.21978 0.0
O106 O 0.75069 0.99081 0.1099 0.0
O107 O 0.76683 0.96369 0.15651 0.0
H108 H 0.72508 0.98455 0.24654 0.0
H109 H 0.68887 0.98165 0.29144 0.0
H110 H 0.7045 0.03578 0.40704 0.0
H111 H 0.74096 0.03816 0.36264 0.0
H112 H 0.88391 0.01374 0.05106 0.0
H113 H 0.85843 0.01615 0.13401 0.0
H114 H 0.83108 0.99234 0.93761 0.0
H115 H 0.80565 0.99533 0.0207 0.0
H116 H 0.75211 0.9645 0.91359 0.0
H117 H 0.71365 0.91869 0.01623 0.0
H118 H 0.73076 0.93192 0.1059 0.0
H119 H 0.76842 0.97845 1.00504 0.0
C120 C 0.52625 0.7318 0.28552 0.0
C121 C 0.51985 0.71277 0.25489 0.0
C122 C 0.5245 0.69021 0.34433 0.0
C123 C 0.51902 0.69235 0.28376 0.0
C124 C 0.53184 0.70912 0.37413 0.0
C125 C 0.53259 0.72957 0.34524 0.0
U126 U 0.53537 0.77781 0.16506 0.0
O127 O 0.51107 0.8017 0.1332 0.0
O128 O 0.54125 0.81334 0.17466 0.0
C129 C 0.52368 0.81866 0.14428 0.0
C130 C 0.5241 0.75422 0.25874 0.0
C131 C 0.52631 0.83482 0.0947 0.0
C132 C 0.51014 0.86207 0.02816 0.0
C133 C 0.50821 0.84686 0.07478 0.0
C134 C 0.54849 0.85379 0.02034 0.0
C135 C 0.53032 0.86579 0.99977 0.0
C136 C 0.54651 0.83854 0.06681 0.0
C137 C 0.56664 0.73743 0.06559 0.0
C138 C 0.58133 0.71587 0.98549 0.0
C139 C 0.56102 0.69819 0.06418 0.0
C140 C 0.55865 0.71835 0.09251 0.0
C141 C 0.57107 0.69702 1.00822 0.0
C142 C 0.5791 0.73591 0.01405 0.0
C143 C 0.55835 0.75894 0.0821 0.0
O144 O 0.54159 0.7668 0.2572 0.0
O145 O 0.51194 0.75618 0.21095 0.0
O146 O 0.537 0.76052 0.08067 0.0
O147 O 0.56738 0.76876 0.12781 0.0
H148 H 0.51486 0.71369 0.20894 0.0
H149 H 0.51367 0.67823 0.25862 0.0
H150 H 0.53606 0.70836 0.42065 0.0
H151 H 0.53743 0.74388 0.37042 0.0
H152 H 0.49565 0.8706 0.0137 0.0
H153 H 0.4924 0.84441 0.09518 0.0
H154 H 0.56444 0.85628 1.00092 0.0
H155 H 0.56085 0.82965 0.08084 0.0
H156 H 0.5891 0.71578 0.94253 0.0
H157 H 0.55339 0.68389 0.08359 0.0
H158 H 0.54904 0.7193 0.13262 0.0
H159 H 0.58535 0.75053 0.99276 0.0
C160 C 0.23265 0.50628 0.97248 0.0
C161 C 0.21331 0.51626 0.99254 0.0
C162 C 0.19435 0.50778 0.89886 0.0
C163 C 0.19438 0.51684 0.9564 0.0
C164 C 0.21356 0.49731 0.87998 0.0
C165 C 0.23228 0.49657 0.91607 0.0
U166 U 0.27286 0.5011 0.11007 0.0
O167 O 0.30118 0.52229 0.13126 0.0
O168 O 0.30627 0.4876 0.11387 0.0
C169 C 0.31513 0.50607 0.13205 0.0
C170 C 0.25397 0.50731 1.00566 0.0
C171 C 0.33002 0.50499 0.18471 0.0
C172 C 0.36561 0.51308 0.2301 0.0
C173 C 0.35142 0.51335 0.18087 0.0
C174 C 0.3374 0.49584 0.28842 0.0
C175 C 0.35887 0.50445 0.28509 0.0
C176 C 0.32321 0.49615 0.23911 0.0
C177 C 0.22466 0.4884 0.21296 0.0
C178 C 0.19738 0.48804 0.29001 0.0
C179 C 0.18729 0.49824 0.18998 0.0
C180 C 0.20874 0.49451 0.17153 0.0
C181 C 0.18167 0.49619 0.25018 0.0
C182 C 0.21865 0.48416 0.27143 0.0
C183 C 0.24791 0.49046 0.19967 0.0
O184 O 0.25687 0.52289 0.04511 0.0
O185 O 0.26285 0.48872 0.02185 0.0
O186 O 0.25641 0.47585 0.16403 0.0
O187 O 0.25432 0.51054 0.18837 0.0
H188 H 0.21295 0.52407 0.03552 0.0
H189 H 0.18003 0.52511 0.9727 0.0
H190 H 0.21426 0.4898 0.83664 0.0
H191 H 0.24682 0.48883 0.89899 0.0
H192 H 0.38174 0.52016 0.22523 0.0
H193 H 0.35715 0.52035 0.13965 0.0
H194 H 0.33149 0.48868 0.32919 0.0
H195 H 0.30685 0.48954 0.24358 0.0
H196 H 0.19397 0.4865 0.33681 0.0
H197 H 0.17553 0.5041 0.15791 0.0
H198 H 0.21321 0.49783 0.12605 0.0
H199 H 0.23083 0.47956 0.30395 0.0
C200 C 0.01786 0.23539 0.98576 0.0
C201 C 0.02688 0.23276 0.92873 0.0
C202 C 0.01691 0.19376 0.92655 0.0
C203 C 0.02656 0.21225 0.89979 0.0
C204 C 1.00874 0.19625 0.9845 0.0
C205 C 0.00917 0.21662 0.01344 0.0
U206 U 0.03484 0.2854 0.08615 0.0
O207 O 0.01313 0.30364 0.14559 0.0
O208 O 0.03125 0.32136 0.07729 0.0
C209 C 0.01876 0.32288 0.12452 0.0
C210 C 0.01496 0.25772 0.01317 0.0
C211 C 0.02371 0.34057 0.16914 0.0
C212 C 0.03503 0.37821 0.19173 0.0
C213 C 0.03223 0.36093 0.15112 0.0
C214 C 0.02075 0.35547 0.26993 0.0
C215 C 0.02927 0.37587 0.25193 0.0
C216 C 0.01799 0.33817 0.22933 0.0
C217 C 0.08062 0.24872 0.12429 0.0
C218 C 0.08723 0.21731 0.18652 0.0
C219 C 0.06979 0.21257 0.09107 0.0
C220 C 0.07243 0.23486 0.07979 0.0
C221 C 0.07497 0.20417 0.14729 0.0
C222 C 0.09004 0.23954 0.17494 0.0
C223 C 0.07158 0.27073 0.12937 0.0
O224 O 0.01124 0.25858 0.07043 0.0
O225 O 0.02761 0.27384 0.99505 0.0
O226 O 0.05318 0.27067 0.15895 0.0
O227 O 0.07074 0.28253 0.08073 0.0
H228 H 0.03352 0.24675 0.90542 0.0
H229 H 0.03293 0.21115 0.85523 0.0
H230 H 1.00148 0.18244 1.00727 0.0
H231 H 1.00195 0.21776 0.05702 0.0
H232 H 0.04128 0.39365 0.17537 0.0
H233 H 0.03638 0.36368 0.10514 0.0
H234 H 0.0163 0.35275 0.31569 0.0
H235 H 0.01107 0.32295 0.24522 0.0
H236 H 0.09176 0.21143 0.23002 0.0
H237 H 0.06094 0.20268 0.05915 0.0
H238 H 0.06518 0.2416 0.04002 0.0
H239 H 0.09648 0.24998 0.20967 0.0
C240 C 0.2995 0.02094 0.96925 0.0
C241 C 0.31733 0.02917 1.0017 0.0
C242 C 0.34223 0.02254 0.91846 0.0
C243 C 0.33834 0.02998 0.97671 0.0
C244 C 0.32414 0.01494 0.88549 0.0
C245 C 0.3031 0.01409 0.91064 0.0
U246 U 0.26022 0.02823 0.10075 0.0
O247 O 0.22497 0.03603 0.10662 0.0
O248 O 0.237 1.00469 0.13978 0.0
C249 C 0.2202 0.01788 0.13517 0.0
C250 C 0.27749 0.01837 0.9969 0.0
C251 C 0.20531 0.01947 0.18755 0.0
C252 C 0.16819 0.02398 0.22604 0.0
C253 C 0.18324 0.02495 0.17904 0.0
C254 C 0.19706 0.01263 0.29194 0.0
C255 C 0.17473 0.01733 0.2831 0.0
C256 C 0.2121 0.01366 0.24497 0.0
C257 C 0.2876 0.05665 0.23654 0.0
C258 C 0.28153 0.05129 0.34171 0.0
C259 C 0.31143 0.07411 0.3079 0.0
C260 C 0.30487 0.07085 0.24957 0.0
C261 C 0.30069 0.0633 0.35484 0.0
C262 C 0.27518 0.04774 0.2828 0.0
C263 C 0.28595 0.04853 0.1757 0.0
O264 O 0.27645 1.00471 0.04169 0.0
O265 O 0.26643 0.03637 1.0067 0.0
O266 O 0.27298 0.05896 0.13904 0.0
O267 O 0.28531 0.02718 0.16974 0.0
H268 H 0.31509 0.03463 0.04688 0.0
H269 H 0.35163 0.03634 1.00344 0.0
H270 H 0.32633 1.0089 0.84087 0.0
H271 H 0.28968 1.00762 0.88458 0.0
H272 H 0.15122 0.02758 0.21696 0.0
H273 H 0.17743 0.02934 0.13532 0.0
H274 H 0.20295 1.00785 0.33523 0.0
H275 H 0.22894 1.00936 0.2534 0.0
H276 H 0.27239 0.04325 0.37647 0.0
H277 H 0.32633 0.08333 0.31479 0.0
H278 H 0.3146 0.07789 0.21429 0.0
H279 H 0.2616 0.03687 0.27336 0.0
C280 C 0.50695 0.29996 0.98483 0.0
C281 C 0.4957 0.31699 0.01277 0.0
C282 C 0.50377 0.34243 0.9306 0.0
C283 C 0.49383 0.3377 0.98583 0.0
C284 C 0.51491 0.32512 0.90269 0.0
C285 C 0.51635 0.30429 0.92922 0.0
U286 U 0.49236 0.25124 0.09254 0.0
O287 O 0.51592 0.23264 0.14636 0.0
O288 O 0.49524 0.21531 0.0826 0.0
C289 C 0.50917 0.21352 0.12687 0.0
C290 C 0.51024 0.2781 0.0137 0.0
C291 C 0.50509 0.19621 0.17311 0.0
C292 C 0.48579 0.16358 0.20922 0.0
C293 C 0.48856 0.18027 0.16675 0.0
C294 C 0.51608 0.17809 0.26554 0.0
C295 C 0.4995 0.16215 0.25951 0.0
C296 C 0.51884 0.19474 0.2231 0.0
C297 C 0.44583 0.28585 0.15016 0.0
C298 C 0.43836 0.31508 0.2189 0.0
C299 C 0.4465 0.32346 0.11661 0.0
C300 C 0.44766 0.3011 0.1041 0.0
C301 C 0.4442 0.33061 0.17554 0.0
C302 C 0.43911 0.29284 0.20609 0.0
C303 C 0.4572 0.26489 0.14692 0.0
O304 O 0.51528 0.27802 0.07033 0.0
O305 O 0.49656 0.26226 0.99963 0.0
O306 O 0.45641 0.25408 0.09663 0.0
O307 O 0.47689 0.26592 0.16975 0.0
H308 H 0.48861 0.31441 0.05599 0.0
H309 H 0.48456 0.34999 1.00896 0.0
H310 H 0.52312 0.32771 0.86093 0.0
H311 H 0.52535 0.2916 0.90667 0.0
H312 H 0.47305 0.15154 0.2019 0.0
H313 H 0.47782 0.18051 0.12861 0.0
H314 H 0.52687 0.17792 0.30357 0.0
H315 H 0.53194 0.2065 0.22939 0.0
H316 H 0.43616 0.31964 0.26474 0.0
H317 H 0.45006 0.33499 0.08151 0.0
H318 H 0.45243 0.29594 0.06017 0.0
H319 H 0.43741 0.28124 0.24207 0.0
Tb320 Tb 1.00367 0.03188 0.57117 0.0
C321 C 0.06734 0.0416 0.77297 0.0
N322 N 0.06713 0.02805 0.72515 0.0
C323 C 0.10523 0.03546 0.70913 0.0
C324 C 0.08645 0.05312 0.78946 0.0
C325 C 0.08604 0.02412 0.69505 0.0
C326 C 0.1054 0.05019 0.75616 0.0
C327 C 0.0481 0.05766 0.85594 0.0
C328 C 0.04839 0.04375 0.80613 0.0
C329 C 0.06715 0.06894 0.87264 0.0
C330 C 0.08622 0.06679 0.83932 0.0
Tb331 Tb 0.03504 1.0095 0.70984 0.0
N332 N 0.03025 0.03235 0.78929 0.0
C333 C 0.02867 0.05983 0.88765 0.0
C334 C 0.01132 0.0343 0.82075 0.0
C335 C 0.01022 0.04809 0.86992 0.0
H336 H 0.08688 0.01174 0.66154 0.0
H337 H 0.9951 0.04962 0.8942 0.0
H338 H 0.95895 0.05867 0.60453 0.0
H339 H 0.02284 0.98887 0.36956 0.0
H340 H 0.99693 0.02544 0.80857 0.0
H341 H 0.02776 0.07048 0.92585 0.0
H342 H 0.03112 1.01068 0.45927 0.0
H343 H 0.12004 0.03243 0.68451 0.0
H344 H 0.06728 0.07943 0.91127 0.0
H345 H 0.10078 0.07566 0.85275 0.0
H346 H 0.91972 0.05719 0.57724 0.0
H347 H 0.12039 0.05874 0.76742 0.0
H348 H 0.98459 0.9787 0.34612 0.0
N349 N 0.96757 0.03251 0.54763 0.0
C350 C 0.96101 0.01862 0.5043 0.0
C351 C 0.93114 0.04613 0.55668 0.0
C352 C 0.93897 0.01733 0.4867 0.0
C353 C 0.95329 0.04695 0.57203 0.0
C354 C 0.92386 0.03092 0.51473 0.0
N355 N 0.99807 0.01164 0.48755 0.0
C356 C 0.01444 1.00612 0.44941 0.0
C357 C 0.97134 0.99562 0.42201 0.0
C358 C 0.97692 1.00782 0.47276 0.0
C359 C 0.98817 0.98806 0.38573 0.0
C360 C 0.00978 0.99383 0.39868 0.0
H361 H 0.90676 0.03046 0.50249 0.0
H362 H 0.91613 1.00209 0.42567 0.0
H363 H 0.94455 0.98314 0.36871 0.0
O364 O 0.02268 0.06034 0.56064 0.0
O365 O 0.01352 0.99742 0.5646 0.0
O366 O 0.01411 0.98563 0.66139 0.0
O367 O 0.99542 0.05335 0.50254 0.0
O368 O 0.03962 0.03071 0.56539 0.0
O369 O 0.05166 1.00294 0.62567 0.0
O370 O 0.03654 0.99441 0.79298 0.0
O371 O 0.03391 0.0448 0.68587 0.0
O372 O 0.99926 0.04955 0.65402 0.0
O373 O 0.05687 0.98339 0.72197 0.0
O374 O 0.99957 1.00474 0.72091 0.0
O375 O 0.98136 0.02405 0.64629 0.0
C376 C 0.01252 0.98165 0.604 0.0
C377 C 1.00484 0.09012 0.51561 0.0
C378 C 1.00483 0.12402 0.46011 0.0
C379 C 0.99151 0.13356 0.50336 0.0
C380 C 0.99182 0.09966 0.55939 0.0
C381 C 0.98525 0.12143 0.55323 0.0
C382 C 0.01148 0.10236 0.46683 0.0
C383 C 0.05387 0.01548 0.57864 0.0
C384 C 0.0108 0.06711 0.51649 0.0
C385 C 0.93304 1.00358 0.43942 0.0
C386 C 0.94922 0.99275 0.40701 0.0
C387 C 0.01575 0.05624 0.68633 0.0
C388 C 0.0402 0.95662 0.78339 0.0
C389 C 0.01751 0.93221 0.84283 0.0
C390 C 0.01808 0.91664 0.79713 0.0
C391 C 0.04078 0.94076 0.73835 0.0
C392 C 0.02888 0.95199 0.83596 0.0
C393 C 0.02985 0.92085 0.74549 0.0
C394 C 0.98157 0.01254 0.69639 0.0
C395 C 0.049 0.97885 0.77405 0.0
H396 H 0.98612 0.15029 0.49872 0.0
H397 H 0.98657 0.09029 0.5975 0.0
H398 H 0.9751 0.12882 0.58675 0.0
H399 H 0.02133 0.09475 0.43277 0.0
H400 H 0.00967 0.90111 0.80168 0.0
H401 H 0.04919 0.94389 0.69708 0.0
H402 H 0.02818 0.96419 0.87072 0.0
H403 H 0.03022 0.90878 0.71051 0.0
Tb404 Tb 0.53476 0.03611 0.68952 0.0
C405 C 0.50325 0.94751 0.61803 0.0
N406 N 0.51418 0.96234 0.58448 0.0
C407 C 0.5396 0.9348 0.55499 0.0
C408 C 0.51078 0.92593 0.62415 0.0
C409 C 0.53157 0.95611 0.55084 0.0
C410 C 0.52938 0.91973 0.59256 0.0
C411 C 0.47202 0.93913 0.67937 0.0
C412 C 0.48427 0.95407 0.6453 0.0
C413 C 0.48005 0.91793 0.68868 0.0
C414 C 0.49938 0.91132 0.66096 0.0
Tb415 Tb 0.50072 0.99706 0.58408 0.0
N416 N 0.47702 0.97463 0.63465 0.0
C417 C 0.45167 0.94567 0.70077 0.0
C418 C 0.45614 0.98009 0.64954 0.0
C419 C 0.44345 0.96604 0.68442 0.0
H420 H 0.53951 0.96773 0.52194 0.0
H421 H 0.42722 0.9708 0.69783 0.0
H422 H 0.50116 0.04823 0.8021 0.0
H423 H 0.58671 0.09015 0.56467 0.0
H424 H 0.44909 0.99517 0.63413 0.0
H425 H 0.44174 0.93472 0.72725 0.0
H426 H 0.57476 0.05476 0.6072 0.0
H427 H 0.5537 0.93003 0.52944 0.0
H428 H 0.47106 0.90631 0.71556 0.0
H429 H 0.5051 0.89475 0.66718 0.0
H430 H 0.47927 0.07962 0.83378 0.0
H431 H 0.53571 0.90329 0.59599 0.0
H432 H 0.56555 0.12367 0.58509 0.0
N433 N 0.51536 0.0648 0.72841 0.0
C434 C 0.519 0.08463 0.70325 0.0
C435 C 0.4901 0.08118 0.79622 0.0
C436 C 0.50765 0.10338 0.72178 0.0
C437 C 0.50219 0.06321 0.77706 0.0
C438 C 0.4925 0.10128 0.76764 0.0
N439 N 0.5468 0.0681 0.64892 0.0
C440 C 0.5654 0.06931 0.61578 0.0
C441 C 0.54171 0.10692 0.63948 0.0
C442 C 0.53564 0.08643 0.66272 0.0
C443 C 0.56017 0.10817 0.60326 0.0
C444 C 0.57219 0.0893 0.5918 0.0
H445 H 0.48341 0.11527 0.78322 0.0
H446 H 0.5039 0.1383 0.70918 0.0
H447 H 0.53386 0.14141 0.63705 0.0
O448 O 0.56662 0.02633 0.70954 0.0
O449 O 0.52632 0.04787 0.59954 0.0
O450 O 0.49299 0.03205 0.58676 0.0
O451 O 0.54911 0.04715 0.76914 0.0
O452 O 0.55462 0.01745 0.62542 0.0
O453 O 0.53195 1.00827 0.54655 0.0
O454 O 0.47614 0.98398 0.52923 0.0
O455 O 0.52671 0.98462 0.64362 0.0
O456 O 0.523 1.00499 0.72651 0.0
O457 O 0.50324 1.00146 0.492 0.0
O458 O 0.48091 0.01817 0.64271 0.0
O459 O 0.50345 0.02267 0.7234 0.0
C460 C 0.50718 0.04739 0.57319 0.0
C461 C 0.56989 0.01806 0.80956 0.0
C462 C 0.59169 0.98734 0.84428 0.0
C463 C 0.57584 0.98286 0.88757 0.0
C464 C 0.55426 0.01343 0.85329 0.0
C465 C 0.55737 0.99602 0.89228 0.0
C466 C 0.58859 1.00505 0.80569 0.0
C467 C 0.5515 0.01208 0.56932 0.0
C468 C 0.56577 0.03428 0.76274 0.0
C469 C 0.51259 0.12373 0.69601 0.0
C470 C 0.52967 0.12551 0.65502 0.0
C471 C 0.52619 0.98596 0.7016 0.0
C472 C 0.46878 1.00896 0.45208 0.0
C473 C 0.43534 0.03051 0.45081 0.0
C474 C 0.44216 0.04019 0.39738 0.0
C475 C 0.47523 0.01875 0.39873 0.0
C476 C 0.44888 0.01505 0.47811 0.0
C477 C 0.46201 0.03437 0.37176 0.0
C478 C 0.4837 0.02152 0.69992 0.0
C479 C 0.4837 0.99386 0.48266 0.0
H480 H 0.57796 0.96953 0.91856 0.0
H481 H 0.53945 0.02291 0.85665 0.0
H482 H 0.54536 0.99271 0.92615 0.0
H483 H 0.60044 1.00834 0.77119 0.0
H484 H 0.43196 0.05189 0.37455 0.0
H485 H 0.49064 0.01454 0.37842 0.0
H486 H 0.44397 1.00797 0.52001 0.0
H487 H 0.4671 0.04191 0.33067 0.0
Tb488 Tb 0.5303 0.50382 0.58098 0.0
C489 C 0.48804 0.52958 0.83644 0.0
N490 N 0.4791 0.52371 0.78393 0.0
C491 C 0.45154 0.5029 0.83443 0.0
C492 C 0.4796 0.52174 0.89039 0.0
C493 C 0.46044 0.51136 0.78216 0.0
C494 C 0.46137 0.50783 0.88879 0.0
C495 C 0.51337 0.55296 0.88922 0.0
C496 C 0.50457 0.54486 0.83581 0.0
C497 C 0.50601 0.54432 0.9433 0.0
C498 C 0.48912 0.52871 0.94389 0.0
Tb499 Tb 0.49589 0.53648 0.70057 0.0
N500 N 0.51072 0.55305 0.78273 0.0
C501 C 0.52857 0.5701 0.88661 0.0
C502 C 0.52454 0.5707 0.78017 0.0
C503 C 0.53384 0.57929 0.83187 0.0
H504 H 0.45287 0.50752 0.74011 0.0
H505 H 0.54507 0.59299 0.82943 0.0
H506 H 0.57567 0.48557 0.64986 0.0
H507 H 0.5288 0.54966 0.37736 0.0
H508 H 0.52869 0.57801 0.7381 0.0
H509 H 0.53575 0.57679 0.9266 0.0
H510 H 0.51649 0.5211 0.448 0.0
H511 H 0.43712 0.49262 0.83278 0.0
H512 H 0.51272 0.55013 0.98487 0.0
H513 H 0.48307 0.5227 0.9859 0.0
H514 H 0.61279 0.49969 0.67024 0.0
H515 H 0.45438 0.5014 0.92924 0.0
H516 H 0.56255 0.57087 0.39805 0.0
N517 N 0.56669 0.51265 0.59567 0.0
C518 C 0.57436 0.52991 0.56424 0.0
C519 C 0.60202 0.50858 0.64094 0.0
C520 C 0.59562 0.53824 0.57278 0.0
C521 C 0.58089 0.50075 0.62962 0.0
C522 C 0.60922 0.52782 0.61369 0.0
N523 N 0.54267 0.52675 0.5081 0.0
C524 C 0.53139 0.53014 0.45661 0.0
C525 C 0.56962 0.55345 0.47929 0.0
C526 C 0.56181 0.53721 0.51808 0.0
C527 C 0.55721 0.55842 0.42896 0.0
C528 C 0.53822 0.54637 0.41693 0.0
H529 H 0.62567 0.53369 0.6218 0.0
H530 H 0.61913 0.56267 0.54401 0.0
H531 H 0.59616 0.57616 0.46209 0.0
O532 O 0.51417 0.4785 0.53614 0.0
O533 O 0.51477 0.5356 0.56489 0.0
O534 O 0.51975 0.55532 0.64758 0.0
O535 O 0.54876 0.48289 0.52677 0.0
O536 O 0.49706 0.51353 0.55613 0.0
O537 O 0.47836 0.51244 0.64389 0.0
O538 O 0.47221 0.5587 0.72933 0.0
O539 O 0.49592 0.50078 0.71736 0.0
O540 O 0.51935 0.48167 0.6539 0.0
O541 O 0.47748 0.5535 0.63647 0.0
O542 O 0.53179 0.53705 0.70624 0.0
O543 O 0.54129 0.50321 0.67397 0.0
C544 C 0.51992 0.55429 0.58967 0.0
C545 C 0.53395 0.44764 0.50944 0.0
C546 C 0.52556 0.41445 0.45543 0.0
C547 C 0.53399 0.40197 0.50218 0.0
C548 C 0.54241 0.43529 0.55639 0.0
C549 C 0.54258 0.41243 0.55236 0.0
C550 C 0.52575 0.43719 0.45916 0.0
C551 C 0.47873 0.51092 0.58556 0.0
C552 C 0.53182 0.47133 0.51177 0.0
C553 C 0.60299 0.55572 0.53747 0.0
C554 C 0.58995 0.56336 0.49071 0.0
C555 C 0.50571 0.4826 0.69974 0.0
C556 C 0.47302 0.58973 0.66751 0.0
C557 C 0.49445 0.62157 0.69659 0.0
C558 C 0.48994 0.63141 0.6419 0.0
C559 C 0.4681 0.59987 0.6134 0.0
C560 C 0.48523 0.60125 0.70989 0.0
C561 C 0.47635 0.62078 0.60103 0.0
C562 C 0.54345 0.51931 0.71214 0.0
C563 C 0.46886 0.56618 0.67612 0.0
H564 H 0.53386 0.38429 0.49986 0.0
H565 H 0.5486 0.44323 0.59592 0.0
H566 H 0.54917 0.40282 0.58831 0.0
H567 H 0.51892 0.44678 0.42323 0.0
H568 H 0.49691 0.6472 0.63098 0.0
H569 H 0.45871 0.59129 0.57991 0.0
H570 H 0.48887 0.59387 0.75226 0.0
H571 H 0.47288 0.62838 0.55881 0.0
Tb572 Tb 0.02207 0.54402 0.59999 0.0
C573 C 0.0093 0.44421 0.71435 0.0
N574 N 0.99715 0.45842 0.68269 0.0
C575 C 0.97973 0.42844 0.63241 0.0
C576 C 1.00778 0.42149 0.70525 0.0
C577 C 0.98175 0.45085 0.64377 0.0
C578 C 0.9931 0.41368 0.66251 0.0
C579 C 0.03298 0.43858 0.79842 0.0
C580 C 0.02162 0.45256 0.75972 0.0
C581 C 0.03279 0.41595 0.78765 0.0
C582 C 0.02018 0.40739 0.741 0.0
Tb583 Tb 1.00292 0.49489 0.69957 0.0
N584 N 0.02064 0.47433 0.76922 0.0
C585 C 0.04321 0.44772 0.84813 0.0
C586 C 0.02921 0.48311 0.81985 0.0
C587 C 0.04093 0.47004 0.85949 0.0
H588 H 0.97125 0.4621 0.62055 0.0
H589 H 0.0481 0.47719 0.89888 0.0
H590 H 0.98252 0.58019 0.61635 0.0
H591 H 0.07149 0.52853 0.40693 0.0
H592 H 0.02731 0.50028 0.82928 0.0
H593 H 0.05212 0.43759 0.87912 0.0
H594 H 0.06383 0.53094 0.5143 0.0
H595 H 0.96785 0.42257 0.60054 0.0
H596 H 0.04161 0.4049 0.81641 0.0
H597 H 0.01947 0.38986 0.73442 0.0
H598 H 0.95499 0.59819 0.55261 0.0
H599 H 0.99141 0.39633 0.65399 0.0
H600 H 0.04341 0.53991 0.33428 0.0
N601 N 0.99753 0.56346 0.54488 0.0
C602 C 0.9988 0.56108 0.48543 0.0
C603 C 0.96714 0.58766 0.53315 0.0
C604 C 0.98374 0.5712 0.4472 0.0
C605 C 0.98274 0.5775 0.56905 0.0
C606 C 0.96738 0.58415 0.472 0.0
N607 N 0.03155 0.54271 0.50208 0.0
C608 C 0.0515 0.53587 0.48271 0.0
C609 C 0.02021 0.54942 0.40157 0.0
C610 C 0.01661 0.55032 0.46307 0.0
C611 C 0.03996 0.54085 0.38121 0.0
C612 C 0.05587 0.53447 0.42207 0.0
H613 H 0.95543 0.5922 0.44422 0.0
H614 H 0.97467 0.57636 0.35543 0.0
H615 H 1.00675 0.55732 0.31535 0.0
O616 O 0.03612 0.57443 0.57791 0.0
O617 O 0.98695 0.53676 0.60999 0.0
O618 O 0.98562 0.49979 0.61498 0.0
O619 O 0.04296 0.55939 0.66148 0.0
O620 O 0.02893 0.51156 0.559 0.0
O621 O 0.01262 0.48281 0.61154 0.0
O622 O 0.97705 0.51595 0.71756 0.0
O623 O 0.03704 0.50572 0.71488 0.0
O624 O 0.04808 0.52087 0.62602 0.0
O625 O 0.97936 0.48471 0.7618 0.0
O626 O 0.01741 0.52418 0.74123 0.0
O627 O 1.00367 0.55059 0.68176 0.0
C628 C 0.97816 0.51817 0.59312 0.0
C629 C 0.07214 0.57707 0.61571 0.0
C630 C 0.10322 0.56982 0.55244 0.0
C631 C 0.11715 0.57082 0.60174 0.0
C632 C 0.08623 0.57856 0.66475 0.0
C633 C 0.1087 0.57578 0.65752 0.0
C634 C 0.08098 0.57394 0.55923 0.0
C635 C 0.02339 0.49064 0.56537 0.0
C636 C 0.04845 0.5748 0.62493 0.0
C637 C 0.98623 0.56896 0.38567 0.0
C638 C 1.00449 0.55811 0.36284 0.0
C639 C 0.05257 0.5127 0.67884 0.0
C640 C 0.94449 0.50103 0.75313 0.0
C641 C 0.91075 0.50989 0.80293 0.0
C642 C 0.89914 0.50631 0.75012 0.0
C643 C 0.93296 0.49707 0.70042 0.0
C644 C 0.9333 0.5069 0.80423 0.0
C645 C 0.91025 0.49956 0.6992 0.0
C646 C 0.01078 0.54442 0.73408 0.0
C647 C 0.96822 0.50261 0.75529 0.0
H648 H 0.13438 0.56735 0.59721 0.0
H649 H 0.07974 0.58087 0.70887 0.0
H650 H 0.11943 0.57642 0.69562 0.0
H651 H 0.07043 0.57297 0.52084 0.0
H652 H 0.88167 0.50883 0.74831 0.0
H653 H 0.9415 0.49274 0.66025 0.0
H654 H 0.94236 0.5105 0.8445 0.0
H655 H 0.90134 0.49683 0.6584 0.0
H656 H 0.13789 0.04211 0.31146 0.0
H657 H 0.17376 0.98449 0.36594 0.0
H658 H 0.14712 0.97799 0.4455 0.0
H659 H 0.12295 0.05986 0.45877 0.0
H660 H 0.09612 0.06895 0.43757 0.0
H661 H 0.11797 0.06929 0.38437 0.0
H662 H 0.09466 0.04551 0.31324 0.0
H663 H 0.07277 0.04509 0.36635 0.0
H664 H 0.08373 0.01978 0.33892 0.0
H665 H 0.11609 0.97696 0.51869 0.0
H666 H 0.08391 0.98236 0.58212 0.0
H667 H 0.06765 0.04089 0.4831 0.0
C668 C 0.14013 0.02807 0.33994 0.0
C669 C 0.15829 0.01394 0.33211 0.0
C670 C 0.16045 0.99588 0.37111 0.0
C671 C 0.14522 0.99191 0.41641 0.0
C672 C 0.12767 1.0061 0.42291 0.0
C673 C 0.12504 0.02389 0.38592 0.0
C674 C 0.10473 0.03668 0.40321 0.0
C675 C 0.11081 0.06008 0.42211 0.0
C676 C 0.08799 0.03677 0.35239 0.0
C677 C 0.09643 0.02332 0.45559 0.0
C678 C 0.10989 1.00569 0.46587 0.0
C679 C 0.10555 0.99082 0.51122 0.0
C680 C 0.08716 0.99408 0.54727 0.0
C681 C 0.0732 0.01222 0.53867 0.0
C682 C 0.07796 0.02692 0.49156 0.0
H683 H 0.53089 0.1401 0.32637 0.0
H684 H 0.46086 0.14359 0.29843 0.0
H685 H 0.45538 0.11472 0.3732 0.0
H686 H 0.53301 0.08144 0.34921 0.0
H687 H 0.55387 0.08303 0.40545 0.0
H688 H 0.5525 0.10364 0.3486 0.0
H689 H 0.54937 0.13449 0.42822 0.0
H690 H 0.55252 0.11338 0.48272 0.0
H691 H 0.5294 0.13145 0.48625 0.0
H692 H 0.45737 0.08508 0.45267 0.0
H693 H 0.46673 0.05807 0.5299 0.0
H694 H 0.5353 0.07435 0.50958 0.0
C695 C 0.51435 0.135 0.33612 0.0
C696 C 0.49634 0.14437 0.30553 0.0
C697 C 0.47506 0.13667 0.31979 0.0
C698 C 0.47173 0.12027 0.36278 0.0
C699 C 0.48979 0.1115 0.3919 0.0
C700 C 0.5107 0.1186 0.37912 0.0
C701 C 0.52733 0.10646 0.41684 0.0
C702 C 0.54258 0.09284 0.37767 0.0
C703 C 0.54039 0.12243 0.45588 0.0
C704 C 0.51252 0.09177 0.45381 0.0
C705 C 0.49092 0.09476 0.43818 0.0
C706 C 0.47425 0.08272 0.46521 0.0
C707 C 0.47975 0.06731 0.50912 0.0
C708 C 0.50174 0.06402 0.52651 0.0
C709 C 0.51829 0.07656 0.49817 0.0
H710 H 0.40436 0.50017 0.29112 0.0
H711 H 0.34766 0.51046 0.40239 0.0
H712 H 0.37152 0.51178 0.4903 0.0
H713 H 0.43453 0.4664 0.39505 0.0
H714 H 0.46068 0.47807 0.37619 0.0
H715 H 0.43914 0.4771 0.32177 0.0
H716 H 0.44254 0.51894 0.30665 0.0
H717 H 0.46413 0.52001 0.36091 0.0
H718 H 0.44033 0.53686 0.36967 0.0
H719 H 0.40208 0.51265 0.56798 0.0
H720 H 0.43635 0.51382 0.62627 0.0
H721 H 0.47341 0.50407 0.46515 0.0
C722 C 0.39685 0.50281 0.3338 0.0
C723 C 0.37379 0.50501 0.33889 0.0
C724 C 0.36502 0.50822 0.39642 0.0
C725 C 0.37854 0.50916 0.447 0.0
C726 C 0.40106 0.50691 0.44027 0.0
C727 C 0.41016 0.50383 0.38502 0.0
C728 C 0.43492 0.5022 0.38989 0.0
C729 C 0.44277 0.4796 0.36951 0.0
C730 C 0.44614 0.5206 0.35469 0.0
C731 C 0.43833 0.50517 0.45624 0.0
C732 C 0.41857 0.50769 0.48464 0.0
C733 C 0.41761 0.51067 0.54597 0.0
C734 C 0.43723 0.51125 0.57892 0.0
C735 C 0.45778 0.50902 0.55084 0.0
C736 C 0.45811 0.50585 0.48845 0.0
H737 H 1.00305 0.38779 0.34766 0.0
H738 H 0.06246 0.40655 0.25597 0.0
H739 H 0.06744 0.43735 0.32514 0.0
H740 H 0.98433 0.44232 0.37919 0.0
H741 H 0.97395 0.43557 0.45153 0.0
H742 H 0.97489 0.41495 0.39471 0.0
H743 H 0.99773 0.3901 0.46374 0.0
H744 H 0.99673 0.41065 0.52064 0.0
H745 H 0.02268 0.40056 0.49575 0.0
H746 H 0.06615 0.46664 0.40561 0.0
H747 H 0.0585 0.49138 0.48938 0.0
H748 H 1.0 0.4541 0.52924 0.0
C749 C 0.01724 0.39822 0.34222 0.0
C750 C 0.03228 0.39452 0.29539 0.0
C751 C 0.05042 0.40898 0.29025 0.0
C752 C 0.0535 0.42655 0.32982 0.0
C753 C 0.03837 0.42972 0.37502 0.0
C754 C 0.02057 0.41593 0.38146 0.0
C755 C 1.0067 0.42301 0.43387 0.0
C756 C 0.9836 0.42933 0.41359 0.0
C757 C 1.00592 0.40501 0.4813 0.0
C758 C 0.0194 0.44292 0.45574 0.0
C759 C 0.03763 0.44651 0.42116 0.0
C760 C 0.05181 0.464 0.4326 0.0
C761 C 0.0472 0.47818 0.48008 0.0
C762 C 0.02849 0.47505 0.51594 0.0
C763 C 0.01455 0.45697 0.50341 0.0
H764 H 0.90413 0.99221 0.98093 0.0
H765 H 0.85039 0.01563 0.87283 0.0
H766 H 0.87491 0.01804 0.78702 0.0
H767 H 0.94515 0.02716 0.91781 0.0
H768 H 0.96656 1.00712 0.92012 0.0
H769 H 0.94468 1.00592 0.97314 0.0
H770 H 0.93615 0.96611 0.94175 0.0
H771 H 0.95801 0.96717 0.88862 0.0
H772 H 0.93076 0.96005 0.86499 0.0
H773 H 0.9055 0.01965 0.71284 0.0
H774 H 0.93986 0.02066 0.65714 0.0
H775 H 0.97443 0.99581 0.81041 0.0
C776 C 0.89745 0.9978 0.93924 0.0
C777 C 0.875 1.0035 0.93426 0.0
C778 C 0.8672 1.01065 0.8783 0.0
C779 C 0.88111 0.01223 0.82904 0.0
C780 C 0.90299 1.00658 0.83557 0.0
C781 C 0.91118 0.99941 0.88917 0.0
C782 C 0.93558 0.99488 0.88411 0.0
C783 C 0.94876 1.00965 0.92631 0.0
C784 C 0.94041 0.97061 0.89553 0.0
C785 C 0.9398 1.00094 0.81968 0.0
C786 C 0.92074 1.00762 0.79265 0.0
C787 C 0.92053 0.01459 0.7339 0.0
C788 C 0.94031 0.01533 0.70248 0.0
C789 C 0.96035 1.00934 0.72924 0.0
C790 C 0.95974 1.00127 0.7884 0.0
H791 H 0.50845 0.90523 0.98006 0.0
H792 H 0.55676 0.86258 0.90133 0.0
H793 H 0.56107 0.88841 0.81856 0.0
H794 H 0.48333 0.92194 0.83877 0.0
H795 H 0.47847 0.94943 0.86377 0.0
H796 H 0.47873 0.92724 0.91623 0.0
H797 H 0.5079 0.94784 0.9768 0.0
H798 H 0.50895 0.96982 0.92381 0.0
H799 H 0.53347 0.95515 0.94292 0.0
H800 H 0.55992 0.91894 0.74195 0.0
H801 H 0.5539 0.95194 0.68065 0.0
H802 H 0.50686 0.97533 0.80826 0.0
C803 C 0.51978 0.9011 0.94523 0.0
C804 C 0.53239 0.88165 0.94844 0.0
C805 C 0.54718 0.87738 0.90152 0.0
C806 C 0.54963 0.89194 0.85364 0.0
C807 C 0.53712 0.9109 0.85227 0.0
C808 C 0.52239 0.91548 0.89671 0.0
C809 C 0.5111 0.93717 0.88474 0.0
C810 C 0.48644 0.93373 0.87534 0.0
C811 C 0.51563 0.95349 0.93503 0.0
C812 C 0.52209 0.94427 0.82741 0.0
C813 C 0.53682 0.92869 0.80895 0.0
C814 C 0.54844 0.93122 0.75623 0.0
C815 C 0.54488 0.95001 0.7215 0.0
C816 C 0.52993 0.96624 0.73942 0.0
C817 C 0.51855 0.96331 0.79351 0.0
H818 H 0.63755 0.5495 0.95431 0.0
H819 H 0.63757 0.48035 0.99733 0.0
H820 H 0.60776 0.4741 0.92628 0.0
H821 H 0.57766 0.55425 0.93348 0.0
H822 H 0.58033 0.57305 0.87244 0.0
H823 H 0.60103 0.57226 0.92914 0.0
H824 H 0.63008 0.56571 0.84759 0.0
H825 H 0.60908 0.56599 0.7916 0.0
H826 H 0.62686 0.54276 0.79818 0.0
H827 H 0.57926 0.4743 0.84754 0.0
H828 H 0.55304 0.48122 0.76708 0.0
H829 H 0.56919 0.55032 0.77263 0.0
C830 C 0.6311 0.5331 0.94924 0.0
C831 C 0.64034 0.51537 0.98157 0.0
C832 C 0.63133 0.49418 0.97281 0.0
C833 C 0.61418 0.49044 0.9326 0.0
C834 C 0.60579 0.50803 0.90087 0.0
C835 C 0.61379 0.529 0.90866 0.0
C836 C 0.60189 0.54476 0.86721 0.0
C837 C 0.58948 0.5621 0.90272 0.0
C838 C 0.61794 0.55544 0.82357 0.0
C839 C 0.5861 0.52932 0.8351 0.0
C840 C 0.58878 0.50821 0.85548 0.0
C841 C 0.57691 0.4908 0.83162 0.0
C842 C 0.56203 0.49491 0.78563 0.0
C843 C 0.55876 0.51632 0.7635 0.0
C844 C 0.57092 0.53382 0.78917 0.0
H845 H 0.99524 0.656 0.92542 0.0
H846 H 0.04044 0.62777 0.05195 0.0
H847 H 0.04334 0.59488 0.99 0.0
H848 H 0.96733 0.60474 0.88661 0.0
H849 H 0.96454 0.61142 0.80927 0.0
H850 H 0.96538 0.6329 0.86381 0.0
H851 H 0.99777 0.651 0.80877 0.0
H852 H 0.99706 0.62953 0.7542 0.0
H853 H 0.02195 0.63527 0.79416 0.0
H854 H 0.042 0.56492 0.91519 0.0
H855 H 0.03647 0.53968 0.83183 0.0
H856 H 0.99245 0.586 0.74925 0.0
C857 C 1.00561 0.64282 0.94025 0.0
C858 C 0.01777 0.64478 0.99387 0.0
C859 C 0.03122 0.62705 1.01102 0.0
C860 C 0.03291 0.60814 0.97612 0.0
C861 C 0.02108 0.60687 0.92346 0.0
C862 C 1.00765 0.62367 0.90531 0.0
C863 C 0.99706 0.61793 0.84588 0.0
C864 C 0.97209 0.61667 0.85176 0.0
C865 C 1.00387 0.63442 0.79791 0.0
C866 C 1.00668 0.59539 0.83372 0.0
C867 C 0.02042 0.58941 0.87947 0.0
C868 C 0.03121 0.56942 0.87925 0.0
C869 C 0.02786 0.55508 0.83149 0.0
C870 C 0.01388 0.56057 0.78367 0.0
C871 C 1.00326 0.5812 0.78488 0.0
H872 H 0.08831 0.17276 0.22686 0.0
H873 H 0.03191 0.1951 0.12747 0.0
H874 H 1.00782 0.17419 0.19282 0.0
H875 H 0.06418 0.11715 0.27095 0.0
H876 H 0.07693 0.11902 0.34277 0.0
H877 H 0.09009 0.13096 0.27913 0.0
H878 H 0.092 0.16802 0.33431 0.0
H879 H 0.07815 0.15652 0.39717 0.0
H880 H 0.06716 0.18026 0.36072 0.0
H881 H 0.98938 0.15888 0.28169 0.0
H882 H 0.9783 0.14316 0.37828 0.0
H883 H 0.04615 0.13076 0.42051 0.0
C884 C 0.07098 0.17246 0.21731 0.0
C885 C 0.06214 0.18562 0.17191 0.0
C886 C 0.0393 0.1849 0.16109 0.0
C887 C 0.02534 0.17323 0.19855 0.0
C888 C 0.03444 0.16204 0.24602 0.0
C889 C 0.05678 0.1609 0.25446 0.0
C890 C 0.06224 0.14954 0.31213 0.0
C891 C 0.07405 0.12788 0.30054 0.0
C892 C 0.07567 0.16449 0.35348 0.0
C893 C 0.03952 0.14563 0.33608 0.0
C894 C 0.0237 0.15286 0.29722 0.0
C895 C 1.00158 0.15262 0.31188 0.0
C896 C 0.99545 0.14403 0.36697 0.0
C897 C 0.01141 0.13584 0.40625 0.0
C898 C 0.03368 0.13683 0.39076 0.0
H899 H 0.32883 0.09213 0.41045 0.0
H900 H 0.30016 0.02751 0.42895 0.0
H901 H 0.33007 0.01685 0.49347 0.0
H902 H 0.37398 0.07531 0.36887 0.0
H903 H 0.39246 0.0945 0.40352 0.0
H904 H 0.3648 0.10215 0.3901 0.0
H905 H 0.3594 0.11093 0.50108 0.0
H906 H 0.38746 0.10368 0.51492 0.0
H907 H 0.36587 0.09068 0.55627 0.0
H908 H 0.36728 1.00761 0.51697 0.0
H909 H 0.40615 1.00148 0.49829 0.0
H910 H 0.41472 0.0701 0.45635 0.0
C911 C 0.32846 0.07598 0.42993 0.0
C912 C 0.31237 0.06057 0.41261 0.0
C913 C 0.31207 0.03988 0.44085 0.0
C914 C 0.32926 0.03354 0.47785 0.0
C915 C 0.34672 0.04796 0.48621 0.0
C916 C 0.34625 0.06907 0.46404 0.0
C917 C 0.3689 0.0793 0.46458 0.0
C918 C 0.37539 0.08829 0.40313 0.0
C919 C 0.3705 0.09721 0.51206 0.0
C920 C 0.38243 0.05967 0.48193 0.0
C921 C 0.36925 0.0422 0.49795 0.0
C922 C 0.37778 0.02136 0.50658 0.0
C923 C 0.39998 0.018 0.49566 0.0
C924 C 0.41343 0.03533 0.47545 0.0
C925 C 0.40473 0.05659 0.4716 0.0
H926 H 0.43222 0.35648 0.27022 0.0
H927 H 0.47948 0.35202 0.12769 0.0
H928 H 0.50349 0.37749 0.17995 0.0
H929 H 0.44734 0.41477 0.32148 0.0
H930 H 0.44386 0.40672 0.39761 0.0
H931 H 0.42704 0.39455 0.34072 0.0
H932 H 0.43924 0.35626 0.37619 0.0
H933 H 0.45673 0.36819 0.43149 0.0
H934 H 0.46791 0.34977 0.37737 0.0
H935 H 0.52646 0.39529 0.25651 0.0
H936 H 0.5444 0.40865 0.34825 0.0
H937 H 0.48416 0.39897 0.4448 0.0
C938 C 0.44724 0.36149 0.24889 0.0
C939 C 0.45386 0.35188 0.19493 0.0
C940 C 0.4736 0.35917 0.16839 0.0
C941 C 0.48762 0.37358 0.19819 0.0
C942 C 0.48166 0.38074 0.25423 0.0
C943 C 0.46168 0.37543 0.27884 0.0
C944 C 0.46059 0.38249 0.34308 0.0
C945 C 0.44371 0.40072 0.35118 0.0
C946 C 0.45585 0.36301 0.38441 0.0
C947 C 0.48356 0.39112 0.35169 0.0
C948 C 0.4953 0.39045 0.29956 0.0
C949 C 0.51732 0.39629 0.29732 0.0
C950 C 0.52746 0.4035 0.34951 0.0
C951 C 0.51564 0.40432 0.40301 0.0
C952 C 0.49348 0.39811 0.4042 0.0
H953 H 0.15663 0.48227 0.34396 0.0
H954 H 0.162 0.5339 0.21289 0.0
H955 H 0.13662 0.55629 0.27014 0.0
H956 H 0.09847 0.4957 0.39715 0.0
H957 H 0.10612 0.48995 0.47258 0.0
H958 H 0.11821 0.47475 0.41275 0.0
H959 H 0.15668 0.48559 0.45064 0.0
H960 H 0.14498 0.50112 0.50984 0.0
H961 H 0.16361 0.51412 0.45899 0.0
H962 H 0.11798 0.57643 0.35094 0.0
H963 H 0.10607 0.5916 0.44739 0.0
H964 H 0.1164 0.52864 0.52993 0.0
C965 C 0.15185 0.49797 0.32619 0.0
C966 C 0.16145 0.50626 0.27391 0.0
C967 C 0.15468 0.52687 0.25211 0.0
C968 C 0.14029 0.53986 0.28466 0.0
C969 C 0.13273 0.53199 0.33871 0.0
C970 C 0.13795 0.51132 0.35892 0.0
C971 C 0.13085 0.50811 0.42253 0.0
C972 C 0.11231 0.49112 0.42648 0.0
C973 C 0.15019 0.50189 0.46281 0.0
C974 C 0.12261 0.53075 0.4363 0.0
C975 C 0.12301 0.54406 0.38687 0.0
C976 C 0.11726 0.56606 0.3897 0.0
C977 C 0.11082 0.57461 0.44448 0.0
C978 C 0.11088 0.56129 0.49552 0.0
C979 C 0.11662 0.53912 0.49129 0.0
H980 H 0.93351 0.86378 0.02145 0.0
H981 H 0.98097 0.86856 0.16401 0.0
H982 H 0.99594 0.90172 0.11974 0.0
H983 H 0.96888 0.86815 0.91857 0.0
H984 H 0.95371 0.88377 0.86489 0.0
H985 H 0.93943 0.86757 0.91842 0.0
H986 H 0.91832 0.90152 0.95439 0.0
H987 H 0.93229 0.91799 0.89997 0.0
H988 H 0.93308 0.92569 0.97697 0.0
H989 H 0.01384 0.92537 0.04764 0.0
H990 H 0.03185 0.93784 0.95618 0.0
H991 H 0.97609 0.91585 0.85344 0.0
C992 C 0.94655 0.87224 0.04451 0.0
C993 C 0.95617 0.86313 0.09582 0.0
C994 C 0.97293 0.87504 0.12515 0.0
C995 C 0.98172 0.89404 0.09998 0.0
C996 C 0.97367 0.901 0.04547 0.0
C997 C 0.95612 0.89067 0.0184 0.0
C998 C 0.95382 0.89783 0.95441 0.0
C999 C 0.954 0.87816 0.91165 0.0
C1000 C 0.93315 0.91159 0.94595 0.0
C1001 C 0.97415 0.91178 0.94807 0.0
C1002 C 0.98477 0.91431 1.00177 0.0
C1003 C 1.00532 0.92413 1.00574 0.0
C1004 C 0.0155 0.93106 0.95353 0.0
C1005 C 1.00532 0.92771 0.89799 0.0
C1006 C 0.98414 0.91859 0.89554 0.0
H1007 H 0.71657 0.97495 0.88961 0.0
H1008 H 0.70534 0.90589 0.92151 0.0
H1009 H 0.66886 0.909 0.87608 0.0
H1010 H 0.67097 0.9925 0.93485 0.0
H1011 H 0.66606 0.01385 0.88155 0.0
H1012 H 0.69342 1.00532 0.89641 0.0
H1013 H 0.69967 0.99648 0.78576 0.0
H1014 H 0.6724 1.00575 0.76966 0.0
H1015 H 0.68076 0.97883 0.74712 0.0
H1016 H 0.63074 0.92194 0.85645 0.0
H1017 H 0.59618 0.94265 0.8518 0.0
H1018 H 0.63301 1.00287 0.83158 0.0
C1019 C 0.70718 0.96008 0.88371 0.0
C1020 C 0.71384 0.94024 0.91004 0.0
C1021 C 0.70053 0.92139 0.90257 0.0
C1022 C 0.67977 0.92298 0.8765 0.0
C1023 C 0.67286 0.94336 0.85642 0.0
C1024 C 0.68653 0.96144 0.85778 0.0
C1025 C 0.67439 0.98214 0.84222 0.0
C1026 C 0.67633 0.99942 0.89172 0.0
C1027 C 0.68227 0.99133 0.78263 0.0
C1028 C 0.65143 0.97322 0.8372 0.0
C1029 C 0.65084 0.95076 0.84406 0.0
C1030 C 0.63108 0.93941 0.84901 0.0
C1031 C 0.61155 0.95131 0.84714 0.0
C1032 C 0.61198 0.97433 0.84087 0.0
C1033 C 0.63219 0.98523 0.83466 0.0
H1034 H 0.53318 0.67368 0.99842 0.0
H1035 H 0.5982 0.67911 0.92384 0.0
H1036 H 0.58614 0.65734 0.83767 0.0
H1037 H 0.52128 0.61642 0.93749 0.0
H1038 H 0.49305 0.62335 0.926 0.0
H1039 H 0.50797 0.635 0.98738 0.0
H1040 H 0.49773 0.67372 0.95148 0.0
H1041 H 0.48326 0.66259 0.88908 0.0
H1042 H 0.50496 0.68214 0.87755 0.0
H1043 H 0.56498 0.64214 0.75119 0.0
H1044 H 0.5375 0.62943 0.67787 0.0
H1045 H 0.48699 0.63341 0.81067 0.0
C1046 C 0.54531 0.66933 0.96586 0.0
C1047 C 0.56662 0.6783 0.96788 0.0
C1048 C 0.5817 0.67266 0.92299 0.0
C1049 C 0.57502 0.66024 0.87393 0.0
C1050 C 0.5534 0.65312 0.87127 0.0
C1051 C 0.53896 0.65683 0.91705 0.0
C1052 C 0.51611 0.64925 0.90128 0.0
C1053 C 0.50919 0.62985 0.94035 0.0
C1054 C 0.49957 0.66805 0.90507 0.0
C1055 C 0.51962 0.64215 0.83807 0.0
C1056 C 0.54126 0.64421 0.82168 0.0
C1057 C 0.54807 0.64014 0.7639 0.0
C1058 C 0.53239 0.6334 0.72228 0.0
C1059 C 0.51026 0.63105 0.73862 0.0
C1060 C 0.50386 0.63532 0.79725 0.0
H1061 H 0.85146 0.59848 0.99914 0.0
H1062 H 0.85075 0.54948 0.13873 0.0
H1063 H 0.87602 0.52722 0.08211 0.0
H1064 H 0.84358 0.56285 0.89087 0.0
H1065 H 0.86042 0.57543 0.83497 0.0
H1066 H 0.84888 0.59187 0.8927 0.0
H1067 H 0.8872 0.60592 0.92362 0.0
H1068 H 0.89893 0.59019 0.86435 0.0
H1069 H 0.90856 0.5866 0.93916 0.0
H1070 H 0.89387 0.50608 1.00294 0.0
H1071 H 0.90702 0.48978 0.90937 0.0
H1072 H 0.89247 0.54993 0.81651 0.0
C1073 C 0.85709 0.5834 0.0188 0.0
C1074 C 0.84862 0.57583 0.07338 0.0
C1075 C 0.85694 0.55613 0.09766 0.0
C1076 C 0.87126 0.54307 0.06535 0.0
C1077 C 0.8772 0.54986 1.00892 0.0
C1078 C 0.87079 0.56979 0.98616 0.0
C1079 C 0.87654 0.57173 0.92115 0.0
C1080 C 0.85614 0.5757 0.88271 0.0
C1081 C 0.89384 0.58967 0.91152 0.0
C1082 C 0.88589 0.54928 0.91026 0.0
C1083 C 0.88663 0.53713 0.9618 0.0
C1084 C 0.89371 0.51554 0.96247 0.0
C1085 C 0.90081 0.50632 0.90926 0.0
C1086 C 0.90025 0.51855 0.85622 0.0
C1087 C 0.8926 0.54021 0.8566 0.0
H1088 H 0.04574 0.1708 0.85246 0.0
H1089 H 0.98008 0.16835 0.92384 0.0
H1090 H 0.9733 0.13374 0.87119 0.0
H1091 H 0.03202 0.14722 0.70697 0.0
H1092 H 0.05685 0.1317 0.70202 0.0
H1093 H 0.05647 0.1569 0.7433 0.0
H1094 H 0.0712 0.13649 0.83386 0.0
H1095 H 0.07071 0.11068 0.79548 0.0
H1096 H 0.05601 0.11389 0.86415 0.0
H1097 H 0.97253 0.1002 0.80734 0.0
H1098 H 0.97888 0.06829 0.74318 0.0
H1099 H 0.04593 0.08921 0.71709 0.0
C1100 C 0.0299 0.16304 0.85678 0.0
C1101 C 0.0135 0.17252 0.89316 0.0
C1102 C 0.99309 0.16151 0.89746 0.0
C1103 C 0.98899 0.14182 0.8672 0.0
C1104 C 1.00544 0.13287 0.83241 0.0
C1105 C 0.02555 0.14301 0.82709 0.0
C1106 C 0.04049 0.12933 0.78782 0.0
C1107 C 0.04683 0.14205 0.7317 0.0
C1108 C 0.06083 0.12214 0.82235 0.0
C1109 C 0.02571 0.10986 0.77262 0.0
C1110 C 1.00541 0.11263 0.79801 0.0
C1111 C 0.98845 0.09778 0.78783 0.0
C1112 C 0.99219 0.07968 0.75098 0.0
C1113 C 0.01293 0.07595 0.72537 0.0
C1114 C 0.02998 0.09133 0.73671 0.0
H1115 H 0.35728 0.03102 0.8033 0.0
H1116 H 0.37958 1.01132 0.97788 0.0
H1117 H 0.41724 1.00947 0.94094 0.0
H1118 H 0.39414 0.99623 0.72033 0.0
H1119 H 0.39925 0.01586 0.66243 0.0
H1120 H 0.37362 0.01604 0.7014 0.0
H1121 H 0.37956 0.05656 0.72962 0.0
H1122 H 0.40507 0.05666 0.69016 0.0
H1123 H 0.40437 0.06467 0.76691 0.0
H1124 H 0.45265 1.00908 0.88608 0.0
H1125 H 0.48357 1.01067 0.81697 0.0
H1126 H 0.43988 0.03125 0.67628 0.0
C1127 C 0.37005 0.02623 0.83375 0.0
C1128 C 0.36518 0.02156 0.89413 0.0
C1129 C 0.38263 0.01547 0.93205 0.0
C1130 C 0.40419 0.01419 0.91128 0.0
C1131 C 0.4084 0.01901 0.85209 0.0
C1132 C 0.39189 0.02494 0.81367 0.0
C1133 C 0.40117 0.02939 0.75208 0.0
C1134 C 0.39147 0.01343 0.70636 0.0
C1135 C 0.39731 0.05324 0.73362 0.0
C1136 C 0.4254 0.02504 0.76216 0.0
C1137 C 0.42908 0.01899 0.82024 0.0
C1138 C 0.44994 0.0139 0.84057 0.0
C1139 C 0.4675 0.01496 0.80081 0.0
C1140 C 0.4644 0.02115 0.74087 0.0
C1141 C 0.44292 0.02636 0.7216 0.0
H1142 H 0.50663 0.35596 0.81089 0.0
H1143 H 0.50061 0.38201 0.98925 0.0
H1144 H 0.49915 0.41905 0.94873 0.0
H1145 H 0.54285 0.3993 0.75915 0.0
H1146 H 0.5314 0.40024 0.68568 0.0
H1147 H 0.53081 0.37506 0.72705 0.0
H1148 H 0.48895 0.37269 0.71382 0.0
H1149 H 0.48944 0.39777 0.67199 0.0
H1150 H 0.47227 0.39537 0.73635 0.0
H1151 H 0.49814 0.45378 0.89046 0.0
H1152 H 0.49986 0.48385 0.81888 0.0
H1153 H 0.50914 0.43742 0.67612 0.0
C1154 C 0.50512 0.36934 0.84184 0.0
C1155 C 0.50324 0.36536 0.90405 0.0
C1156 C 0.50127 0.38387 0.9417 0.0
C1157 C 0.50066 0.40527 0.91902 0.0
C1158 C 0.50238 0.40846 0.85812 0.0
C1159 C 0.50481 0.39107 0.8199 0.0
C1160 C 0.50709 0.3994 0.75628 0.0
C1161 C 0.52937 0.39311 0.73053 0.0
C1162 C 0.48831 0.39079 0.71731 0.0
C1163 C 0.50548 0.42412 0.76491 0.0
C1164 C 0.50257 0.4288 0.82421 0.0
C1165 C 0.50034 0.45023 0.84394 0.0
C1166 C 0.50112 0.46732 0.80247 0.0
C1167 C 0.5042 0.4633 0.74118 0.0
C1168 C 0.50662 0.44122 0.7224 0.0
H1169 H 0.14957 0.50322 0.92172 0.0
H1170 H 0.1952 0.51758 0.78027 0.0
H1171 H 0.16459 0.52036 0.70964 0.0
H1172 H 0.11303 0.46996 0.83383 0.0
H1173 H 0.08857 0.47957 0.86906 0.0
H1174 H 0.11393 0.47932 0.90948 0.0
H1175 H 0.10996 0.52063 0.93168 0.0
H1176 H 0.0845 0.52093 0.89156 0.0
H1177 H 0.10618 0.53949 0.87124 0.0
H1178 H 0.1284 0.5218 0.6527 0.0
H1179 H 0.09031 0.52096 0.61591 0.0
H1180 H 0.0679 0.50523 0.79287 0.0
C1181 C 0.15313 0.50713 0.87602 0.0
C1182 C 0.17509 0.51003 0.85704 0.0
C1183 C 0.17877 0.51492 0.79634 0.0
C1184 C 0.16138 0.51667 0.75566 0.0
C1185 C 0.14007 0.51347 0.77558 0.0
C1186 C 0.13586 0.50878 0.83439 0.0
C1187 C 0.11142 0.50556 0.84383 0.0
C1188 C 0.10645 0.48222 0.86533 0.0
C1189 C 0.10249 0.52267 0.88716 0.0
C1190 C 0.1026 0.50923 0.78145 0.0
C1191 C 0.11938 0.51386 0.7427 0.0
C1192 C 0.1152 0.51806 0.68285 0.0
C1193 C 0.09342 0.51753 0.66219 0.0
C1194 C 0.07584 0.51267 0.70087 0.0
C1195 C 0.08075 0.50855 0.76145 0.0
H1196 H 0.02188 0.88106 0.37257 0.0
H1197 H 0.99012 0.84048 0.50484 0.0
H1198 H 0.98838 0.872 0.57219 0.0
H1199 H 0.05398 0.91363 0.47418 0.0
H1200 H 0.05073 0.93875 0.43352 0.0
H1201 H 0.04981 0.91295 0.39516 0.0
H1202 H 0.01126 0.92182 0.35241 0.0
H1203 H 0.01351 0.94794 0.38819 0.0
H1204 H 0.99017 0.93066 0.40238 0.0
H1205 H 0.99107 0.9082 0.62817 0.0
H1206 H 0.99572 0.9462 0.66385 0.0
H1207 H 0.02424 0.96417 0.49518 0.0
C1208 C 0.01435 0.87877 0.41541 0.0
C1209 C 1.00643 0.85782 0.43295 0.0
C1210 C 0.99686 0.85593 0.49006 0.0
C1211 C 0.99564 0.8739 0.52887 0.0
C1212 C 1.00388 0.89409 0.51056 0.0
C1213 C 0.01291 0.89668 0.45497 0.0
C1214 C 0.02037 0.92026 0.44614 0.0
C1215 C 0.0452 0.92146 0.43669 0.0
C1216 C 1.00806 0.93078 0.39423 0.0
C1217 C 0.01399 0.93053 0.50513 0.0
C1218 C 1.0047 0.91506 0.54193 0.0
C1219 C 0.99814 0.92045 0.59935 0.0
C1220 C 1.00093 0.94213 0.61945 0.0
C1221 C 0.01004 0.95848 0.58237 0.0
C1222 C 0.01672 0.95236 0.5244 0.0
H1223 H 0.67851 0.01589 0.46859 0.0
H1224 H 0.65549 1.00054 0.2913 0.0
H1225 H 0.61774 0.99933 0.32782 0.0
H1226 H 0.63967 0.98176 0.54731 0.0
H1227 H 0.63578 1.00082 0.60711 0.0
H1228 H 0.66133 1.00036 0.56787 0.0
H1229 H 0.65748 0.04156 0.54428 0.0
H1230 H 0.63191 0.04212 0.58348 0.0
H1231 H 0.63317 0.05115 0.50764 0.0
H1232 H 0.58215 1.00005 0.38225 0.0
H1233 H 0.5512 1.0026 0.45079 0.0
H1234 H 0.59598 0.01775 0.59473 0.0
C1235 C 0.66555 0.01236 0.43729 0.0
C1236 C 0.67035 1.00804 0.37674 0.0
C1237 C 0.65265 1.0034 0.33791 0.0
C1238 C 0.63098 1.00284 0.35822 0.0
C1239 C 0.6269 1.00701 0.41781 0.0
C1240 C 0.64364 0.0117 0.45695 0.0
C1241 C 0.63452 0.0156 0.51888 0.0
C1242 C 0.64335 0.99862 0.56289 0.0
C1243 C 0.63958 0.039 0.53979 0.0
C1244 C 0.61012 0.01236 0.50824 0.0
C1245 C 0.60618 1.00745 0.44948 0.0
C1246 C 0.58507 1.00386 0.42838 0.0
C1247 C 0.5675 1.00534 0.468 0.0
C1248 C 0.57086 1.01035 0.52873 0.0
C1249 C 0.59264 0.01387 0.54883 0.0
H1250 H 0.54992 0.67032 0.43301 0.0
H1251 H 0.49045 0.66139 0.33061 0.0
H1252 H 0.48325 0.62685 0.38287 0.0
H1253 H 0.56389 0.61174 0.43562 0.0
H1254 H 0.57492 0.61256 0.50958 0.0
H1255 H 0.57616 0.63656 0.46336 0.0
H1256 H 0.55571 0.65918 0.54287 0.0
H1257 H 0.55585 0.63526 0.58904 0.0
H1258 H 0.53042 0.64876 0.57236 0.0
H1259 H 0.48243 0.59278 0.44353 0.0
H1260 H 0.4874 0.56175 0.51139 0.0
H1261 H 0.5462 0.592 0.58164 0.0
C1262 C 0.53535 0.66114 0.42167 0.0
C1263 C 0.52087 0.66881 0.37675 0.0
C1264 C 0.50211 0.65597 0.3635 0.0
C1265 C 0.49775 0.63627 0.39342 0.0
C1266 C 0.51226 0.62924 0.43701 0.0
C1267 C 0.53074 0.64117 0.45115 0.0
C1268 C 0.54372 0.62945 0.49947 0.0
C1269 C 0.56599 0.62215 0.47557 0.0
C1270 C 0.54654 0.64403 0.55425 0.0
C1271 C 0.52907 0.60967 0.51216 0.0
C1272 C 0.51131 0.60975 0.47424 0.0
C1273 C 0.49613 0.5927 0.47384 0.0
C1274 C 0.49909 0.5751 0.51281 0.0
C1275 C 0.51684 0.57455 0.55317 0.0
C1276 C 0.53204 0.59223 0.55285 0.0
H1277 H 0.86121 0.54873 0.44376 0.0
H1278 H 0.87142 0.49363 0.32638 0.0
H1279 H 0.90699 0.48681 0.37367 0.0
H1280 H 0.91822 0.56739 0.44489 0.0
H1281 H 0.91793 0.57528 0.52176 0.0
H1282 H 0.89312 0.57604 0.47883 0.0
H1283 H 0.87435 0.55092 0.55597 0.0
H1284 H 0.89924 0.54992 0.5986 0.0
H1285 H 0.88642 0.52494 0.57389 0.0
H1286 H 0.94085 0.48429 0.43693 0.0
H1287 H 0.97156 0.48788 0.50726 0.0
H1288 H 0.94202 0.54584 0.58184 0.0
C1289 C 0.87093 0.53524 0.42797 0.0
C1290 C 0.86326 0.52182 0.38054 0.0
C1291 C 0.87678 0.50442 0.36158 0.0
C1292 C 0.89708 0.5003 0.38858 0.0
C1293 C 0.90415 0.51378 0.43469 0.0
C1294 C 0.89162 0.53105 0.45406 0.0
C1295 C 0.90346 0.54314 0.50415 0.0
C1296 C 0.90848 0.56687 0.48632 0.0
C1297 C 0.89006 0.54217 0.56155 0.0
C1298 C 0.92443 0.52989 0.51001 0.0
C1299 C 0.92428 0.51289 0.46973 0.0
C1300 C 0.94119 0.49771 0.46811 0.0
C1301 C 0.95863 0.49987 0.50844 0.0
C1302 C 0.95952 0.51728 0.54974 0.0
C1303 C 0.94213 0.5326 0.55009 0.0
loop_
_geom_bond_atom_site_label_1
_geom_bond_atom_site_label_2
_geom_bond_distance
_geom_bond_site_symmetry_2
_ccdc_geom_bond_type
C0 C1 1.264 . S
C0 C5 1.479 . S
C0 C10 1.465 . S
C1 C0 1.264 . S
C1 C3 1.339 . S
C1 H28 0.931 . S
C2 C3 1.395 . S
C2 C4 1.320 . S
C3 C1 1.339 . S
C3 C2 1.395 . S
C3 H29 0.929 . S
C4 C2 1.320 . S
C4 C5 1.405 . S
C4 H30 0.930 . S
C5 C0 1.479 . S
C5 C4 1.405 . S
C5 H31 0.931 . S
U6 O7 2.454 . S
U6 O8 2.458 . S
U6 C9 2.984 . S
U6 C10 2.847 . S
U6 C23 2.882 . S
U6 O24 2.441 . S
U6 O25 2.420 . S
U6 O26 2.455 . S
U6 O27 2.449 . S
O7 U6 2.454 . S
O7 C9 1.353 . S
O8 U6 2.458 . S
O8 C9 1.286 . S
C9 U6 2.984 . S
C9 O7 1.353 . S
C9 O8 1.286 . S
C9 C11 1.363 . S
C10 C0 1.465 . S
C10 U6 2.847 . S
C10 O24 1.249 . S
C10 O25 1.202 . S
C11 C9 1.363 . S
C11 C13 1.408 . S
C11 C16 1.342 . S
C12 C13 1.310 . S
C12 C15 1.461 . S
C12 H32 0.932 . S
C13 C11 1.408 . S
C13 C12 1.310 . S
C13 H33 0.930 . S
C14 C15 1.474 . S
C14 C16 1.285 . S
C14 H34 0.929 . S
C15 C12 1.461 . S
C15 C14 1.474 . S
C16 C11 1.342 . S
C16 C14 1.285 . S
C16 H35 0.930 . S
C17 C20 1.424 . S
C17 C22 1.245 . S
C17 C23 1.428 . S
C18 C21 1.261 . S
C18 C22 1.477 1_556 S
C18 H36 0.932 . S
C19 C20 1.384 . S
C19 C21 1.475 1_554 S
C19 H37 0.929 . S
C20 C17 1.424 . S
C20 C19 1.384 . S
C20 H38 0.928 . S
C21 C18 1.261 . S
C21 C19 1.475 1_556 S
C22 C17 1.245 . S
C22 C18 1.477 1_554 S
C22 H39 0.932 . S
C23 U6 2.882 . S
C23 C17 1.428 . S
C23 O26 1.301 . S
C23 O27 1.282 . S
O24 U6 2.441 . S
O24 C10 1.249 . S
O25 U6 2.420 . S
O25 C10 1.202 . S
O26 U6 2.455 . S
O26 C23 1.301 . S
O27 U6 2.449 . S
O27 C23 1.282 . S
H28 C1 0.931 . S
H29 C3 0.929 . S
H30 C4 0.930 . S
H31 C5 0.931 . S
H32 C12 0.932 . S
H33 C13 0.930 . S
H34 C14 0.929 . S
H35 C16 0.930 . S
H36 C18 0.932 . S
H37 C19 0.929 . S
H38 C20 0.928 . S
H39 C22 0.932 . S
C40 C41 1.264 . S
C40 C45 1.479 . S
C40 C50 1.465 . S
C41 C40 1.264 . S
C41 C43 1.339 . S
C41 H68 0.931 . S
C42 C43 1.395 . S
C42 C44 1.320 . S
C43 C41 1.339 . S
C43 C42 1.395 . S
C43 H69 0.929 . S
C44 C42 1.320 . S
C44 C45 1.405 . S
C44 H70 0.930 . S
C45 C40 1.479 . S
C45 C44 1.405 . S
C45 H71 0.931 . S
U46 O47 2.454 . S
U46 O48 2.458 . S
U46 C49 2.984 . S
U46 C50 2.847 . S
U46 C63 2.882 . S
U46 O64 2.441 . S
U46 O65 2.420 . S
U46 O66 2.455 . S
U46 O67 2.449 . S
O47 U46 2.454 . S
O47 C49 1.353 . S
O48 U46 2.458 . S
O48 C49 1.286 . S
C49 U46 2.984 . S
C49 O47 1.353 . S
C49 O48 1.286 . S
C49 C51 1.363 . S
C50 C40 1.465 . S
C50 U46 2.847 . S
C50 O64 1.249 . S
C50 O65 1.202 . S
C51 C49 1.363 . S
C51 C53 1.408 . S
C51 C56 1.342 . S
C52 C53 1.310 . S
C52 C55 1.461 . S
C52 H72 0.932 . S
C53 C51 1.408 . S
C53 C52 1.310 . S
C53 H73 0.930 . S
C54 C55 1.474 . S
C54 C56 1.285 . S
C54 H74 0.929 . S
C55 C52 1.461 . S
C55 C54 1.474 . S
C56 C51 1.342 . S
C56 C54 1.285 . S
C56 H75 0.930 . S
C57 C60 1.424 . S
C57 C62 1.245 . S
C57 C63 1.428 . S
C58 C61 1.260 . S
C58 C62 1.477 1_556 S
C58 H76 0.932 . S
C59 C60 1.384 . S
C59 C61 1.479 1_554 S
C59 H77 0.929 . S
C60 C57 1.424 . S
C60 C59 1.384 . S
C60 H78 0.928 . S
C61 C58 1.260 . S
C61 C59 1.479 1_556 S
C62 C57 1.245 . S
C62 C58 1.477 1_554 S
C62 H79 0.932 . S
C63 U46 2.882 . S
C63 C57 1.428 . S
C63 O66 1.301 . S
C63 O67 1.282 . S
O64 U46 2.441 . S
O64 C50 1.249 . S
O65 U46 2.420 . S
O65 C50 1.202 . S
O66 U46 2.455 . S
O66 C63 1.301 . S
O67 U46 2.449 . S
O67 C63 1.282 . S
H68 C41 0.931 . S
H69 C43 0.929 . S
H70 C44 0.930 . S
H71 C45 0.931 . S
H72 C52 0.932 . S
H73 C53 0.930 . S
H74 C54 0.929 . S
H75 C56 0.930 . S
H76 C58 0.932 . S
H77 C59 0.929 . S
H78 C60 0.928 . S
H79 C62 0.932 . S
C80 C81 1.264 . S
C80 C85 1.479 . S
C80 C90 1.465 . S
C81 C80 1.264 . S
C81 C83 1.339 . S
C81 H108 0.931 . S
C82 C83 1.395 . S
C82 C84 1.320 . S
C83 C81 1.339 . S
C83 C82 1.395 . S
C83 H109 0.929 . S
C84 C82 1.320 . S
C84 C85 1.405 . S
C84 H110 0.930 . S
C85 C80 1.479 . S
C85 C84 1.405 . S
C85 H111 0.931 . S
U86 O87 2.454 . S
U86 O88 2.458 . S
U86 C89 2.984 . S
U86 C90 2.847 . S
U86 C103 2.882 . S
U86 O104 2.441 . S
U86 O105 2.420 . S
U86 O106 2.455 . S
U86 O107 2.449 . S
O87 U86 2.454 . S
O87 C89 1.353 . S
O88 U86 2.458 . S
O88 C89 1.286 . S
C89 U86 2.984 . S
C89 O87 1.353 . S
C89 O88 1.286 . S
C89 C91 1.363 . S
C90 C80 1.465 . S
C90 U86 2.847 . S
C90 O104 1.249 . S
C90 O105 1.202 . S
C91 C89 1.363 . S
C91 C93 1.408 . S
C91 C96 1.342 . S
C92 C93 1.310 . S
C92 C95 1.461 . S
C92 H112 0.932 . S
C93 C91 1.408 . S
C93 C92 1.310 . S
C93 H113 0.930 . S
C94 C95 1.474 . S
C94 C96 1.285 . S
C94 H114 0.929 . S
C95 C92 1.461 . S
C95 C94 1.474 . S
C96 C91 1.342 . S
C96 C94 1.285 . S
C96 H115 0.930 . S
C97 C100 1.424 . S
C97 C102 1.245 . S
C97 C103 1.428 . S
C98 C101 1.260 . S
C98 C102 1.477 1_556 S
C98 H116 0.932 . S
C99 C100 1.384 . S
C99 C101 1.479 1_554 S
C99 H117 0.929 . S
C100 C97 1.424 . S
C100 C99 1.384 . S
C100 H118 0.928 . S
C101 C98 1.260 . S
C101 C99 1.479 1_556 S
C102 C97 1.245 . S
C102 C98 1.477 1_554 S
C102 H119 0.932 . S
C103 U86 2.882 . S
C103 C97 1.428 . S
C103 O106 1.301 . S
C103 O107 1.282 . S
O104 U86 2.441 . S
O104 C90 1.249 . S
O105 U86 2.420 . S
O105 C90 1.202 . S
O106 U86 2.455 . S
O106 C103 1.301 . S
O107 U86 2.449 . S
O107 C103 1.282 . S
H108 C81 0.931 . S
H109 C83 0.929 . S
H110 C84 0.930 . S
H111 C85 0.931 . S
H112 C92 0.932 . S
H113 C93 0.930 . S
H114 C94 0.929 . S
H115 C96 0.930 . S
H116 C98 0.932 . S
H117 C99 0.929 . S
H118 C100 0.928 . S
H119 C102 0.932 . S
C120 C121 1.264 . S
C120 C125 1.479 . S
C120 C130 1.465 . S
C121 C120 1.264 . S
C121 C123 1.339 . S
C121 H148 0.931 . S
C122 C123 1.395 . S
C122 C124 1.320 . S
C123 C121 1.339 . S
C123 C122 1.395 . S
C123 H149 0.929 . S
C124 C122 1.320 . S
C124 C125 1.405 . S
C124 H150 0.930 . S
C125 C120 1.479 . S
C125 C124 1.405 . S
C125 H151 0.931 . S
U126 O127 2.454 . S
U126 O128 2.458 . S
U126 C129 2.984 . S
U126 C130 2.847 . S
U126 C143 2.882 . S
U126 O144 2.441 . S
U126 O145 2.420 . S
U126 O146 2.455 . S
U126 O147 2.449 . S
O127 U126 2.454 . S
O127 C129 1.353 . S
O128 U126 2.458 . S
O128 C129 1.286 . S
C129 U126 2.984 . S
C129 O127 1.353 . S
C129 O128 1.286 . S
C129 C131 1.363 . S
C130 C120 1.465 . S
C130 U126 2.847 . S
C130 O144 1.249 . S
C130 O145 1.202 . S
C131 C129 1.363 . S
C131 C133 1.408 . S
C131 C136 1.342 . S
C132 C133 1.310 . S
C132 C135 1.461 . S
C132 H152 0.932 . S
C133 C131 1.408 . S
C133 C132 1.310 . S
C133 H153 0.930 . S
C134 C135 1.474 . S
C134 C136 1.285 . S
C134 H154 0.929 . S
C135 C132 1.461 . S
C135 C134 1.474 . S
C136 C131 1.342 . S
C136 C134 1.285 . S
C136 H155 0.930 . S
C137 C140 1.424 . S
C137 C142 1.245 . S
C137 C143 1.428 . S
C138 C141 1.260 1_556 S
C138 C142 1.477 1_556 S
C138 H156 0.932 . S
C139 C140 1.384 . S
C139 C141 1.479 . S
C139 H157 0.929 . S
C140 C137 1.424 . S
C140 C139 1.384 . S
C140 H158 0.928 . S
C141 C138 1.260 1_554 S
C141 C139 1.479 . S
C142 C137 1.245 . S
C142 C138 1.477 1_554 S
C142 H159 0.932 . S
C143 U126 2.882 . S
C143 C137 1.428 . S
C143 O146 1.301 . S
C143 O147 1.282 . S
O144 U126 2.441 . S
O144 C130 1.249 . S
O145 U126 2.420 . S
O145 C130 1.202 . S
O146 U126 2.455 . S
O146 C143 1.301 . S
O147 U126 2.449 . S
O147 C143 1.282 . S
H148 C121 0.931 . S
H149 C123 0.929 . S
H150 C124 0.930 . S
H151 C125 0.931 . S
H152 C132 0.932 . S
H153 C133 0.930 . S
H154 C134 0.929 . S
H155 C136 0.930 . S
H156 C138 0.932 . S
H157 C139 0.929 . S
H158 C140 0.928 . S
H159 C142 0.932 . S
C160 C161 1.264 . S
C160 C165 1.479 . S
C160 C170 1.465 . S
C161 C160 1.264 . S
C161 C163 1.339 . S
C161 H188 0.931 . S
C162 C163 1.395 . S
C162 C164 1.320 . S
C163 C161 1.339 . S
C163 C162 1.395 . S
C163 H189 0.929 . S
C164 C162 1.320 . S
C164 C165 1.405 . S
C164 H190 0.930 . S
C165 C160 1.479 . S
C165 C164 1.405 . S
C165 H191 0.931 . S
U166 O167 2.454 . S
U166 O168 2.458 . S
U166 C169 2.984 . S
U166 C170 2.847 1_554 S
U166 C183 2.882 . S
U166 O184 2.441 1_554 S
U166 O185 2.420 1_554 S
U166 O186 2.455 . S
U166 O187 2.449 . S
O167 U166 2.454 . S
O167 C169 1.353 . S
O168 U166 2.458 . S
O168 C169 1.286 . S
C169 U166 2.984 . S
C169 O167 1.353 . S
C169 O168 1.286 . S
C169 C171 1.363 . S
C170 C160 1.465 . S
C170 U166 2.847 1_556 S
C170 O184 1.249 . S
C170 O185 1.202 . S
C171 C169 1.363 . S
C171 C173 1.408 . S
C171 C176 1.342 . S
C172 C173 1.310 . S
C172 C175 1.461 . S
C172 H192 0.932 . S
C173 C171 1.408 . S
C173 C172 1.310 . S
C173 H193 0.939 . S
C174 C175 1.474 . S
C174 C176 1.285 . S
C174 H194 0.929 . S
C175 C172 1.461 . S
C175 C174 1.474 . S
C176 C171 1.342 . S
C176 C174 1.285 . S
C176 H195 0.930 . S
C177 C180 1.424 . S
C177 C182 1.245 . S
C177 C183 1.428 . S
C178 C181 1.260 . S
C178 C182 1.477 . S
C178 H196 0.932 . S
C179 C180 1.384 . S
C179 C181 1.479 . S
C179 H197 0.929 . S
C180 C177 1.424 . S
C180 C179 1.384 . S
C180 H198 0.928 . S
C181 C178 1.260 . S
C181 C179 1.479 . S
C182 C177 1.245 . S
C182 C178 1.477 . S
C182 H199 0.932 . S
C183 U166 2.882 . S
C183 C177 1.428 . S
C183 O186 1.301 . S
C183 O187 1.282 . S
O184 U166 2.441 1_556 S
O184 C170 1.249 . S
O185 U166 2.420 1_556 S
O185 C170 1.202 . S
O186 U166 2.455 . S
O186 C183 1.301 . S
O187 U166 2.449 . S
O187 C183 1.282 . S
H188 C161 0.931 . S
H189 C163 0.929 . S
H190 C164 0.930 . S
H191 C165 0.931 . S
H192 C172 0.932 . S
H193 C173 0.939 . S
H194 C174 0.929 . S
H195 C176 0.930 . S
H196 C178 0.932 . S
H197 C179 0.929 . S
H198 C180 0.928 . S
H199 C182 0.932 . S
C200 C201 1.264 . S
C200 C205 1.479 . S
C200 C210 1.465 . S
C201 C200 1.264 . S
C201 C203 1.339 . S
C201 H228 0.931 . S
C202 C203 1.395 . S
C202 C204 1.320 . S
C203 C201 1.339 . S
C203 C202 1.395 . S
C203 H229 0.929 . S
C204 C202 1.320 . S
C204 C205 1.405 . S
C204 H230 0.930 . S
C205 C200 1.479 . S
C205 C204 1.405 . S
C205 H231 0.931 . S
U206 O207 2.454 . S
U206 O208 2.458 . S
U206 C209 2.984 . S
U206 C210 2.847 1_554 S
U206 C223 2.882 . S
U206 O224 2.441 1_554 S
U206 O225 2.420 1_554 S
U206 O226 2.455 . S
U206 O227 2.449 . S
O207 U206 2.454 . S
O207 C209 1.353 . S
O208 U206 2.458 . S
O208 C209 1.286 . S
C209 U206 2.984 . S
C209 O207 1.353 . S
C209 O208 1.286 . S
C209 C211 1.363 . S
C210 C200 1.465 . S
C210 U206 2.847 1_556 S
C210 O224 1.249 . S
C210 O225 1.202 . S
C211 C209 1.363 . S
C211 C213 1.408 . S
C211 C216 1.342 . S
C212 C213 1.310 . S
C212 C215 1.461 . S
C212 H232 0.932 . S
C213 C211 1.408 . S
C213 C212 1.310 . S
C213 H233 0.930 . S
C214 C215 1.474 . S
C214 C216 1.285 . S
C214 H234 0.929 . S
C215 C212 1.461 . S
C215 C214 1.474 . S
C216 C211 1.342 . S
C216 C214 1.285 . S
C216 H235 0.930 . S
C217 C220 1.424 . S
C217 C222 1.245 . S
C217 C223 1.428 . S
C218 C221 1.260 . S
C218 C222 1.477 . S
C218 H236 0.932 . S
C219 C220 1.384 . S
C219 C221 1.479 . S
C219 H237 0.929 . S
C220 C217 1.424 . S
C220 C219 1.384 . S
C220 H238 0.928 . S
C221 C218 1.260 . S
C221 C219 1.479 . S
C222 C217 1.245 . S
C222 C218 1.477 . S
C222 H239 0.932 . S
C223 U206 2.882 . S
C223 C217 1.428 . S
C223 O226 1.301 . S
C223 O227 1.282 . S
O224 U206 2.441 1_556 S
O224 C210 1.249 . S
O225 U206 2.420 1_556 S
O225 C210 1.202 . S
O226 U206 2.455 . S
O226 C223 1.301 . S
O227 U206 2.449 . S
O227 C223 1.282 . S
H228 C201 0.931 . S
H229 C203 0.929 . S
H230 C204 0.930 . S
H231 C205 0.931 . S
H232 C212 0.932 . S
H233 C213 0.930 . S
H234 C214 0.929 . S
H235 C216 0.930 . S
H236 C218 0.932 . S
H237 C219 0.929 . S
H238 C220 0.928 . S
H239 C222 0.932 . S
C240 C241 1.264 . S
C240 C245 1.479 . S
C240 C250 1.465 . S
C241 C240 1.264 . S
C241 C243 1.339 . S
C241 H268 0.931 . S
C242 C243 1.395 . S
C242 C244 1.320 . S
C243 C241 1.339 . S
C243 C242 1.395 . S
C243 H269 0.929 . S
C244 C242 1.320 . S
C244 C245 1.405 . S
C244 H270 0.930 . S
C245 C240 1.479 . S
C245 C244 1.405 . S
C245 H271 0.931 . S
U246 O247 2.454 . S
U246 O248 2.458 . S
U246 C249 2.984 . S
U246 C250 2.847 1_554 S
U246 C263 2.882 . S
U246 O264 2.441 1_554 S
U246 O265 2.420 1_554 S
U246 O266 2.455 . S
U246 O267 2.449 . S
O247 U246 2.454 . S
O247 C249 1.353 . S
O248 U246 2.458 . S
O248 C249 1.286 . S
C249 U246 2.984 . S
C249 O247 1.353 . S
C249 O248 1.286 . S
C249 C251 1.363 . S
C250 C240 1.465 . S
C250 U246 2.847 1_556 S
C250 O264 1.249 . S
C250 O265 1.202 . S
C251 C249 1.363 . S
C251 C253 1.408 . S
C251 C256 1.342 . S
C252 C253 1.310 . S
C252 C255 1.461 . S
C252 H272 0.932 . S
C253 C251 1.408 . S
C253 C252 1.310 . S
C253 H273 0.930 . S
C254 C255 1.474 . S
C254 C256 1.285 . S
C254 H274 0.929 . S
C255 C252 1.461 . S
C255 C254 1.474 . S
C256 C251 1.342 . S
C256 C254 1.285 . S
C256 H275 0.930 . S
C257 C260 1.424 . S
C257 C262 1.245 . S
C257 C263 1.428 . S
C258 C261 1.260 . S
C258 C262 1.477 . S
C258 H276 0.932 . S
C259 C260 1.384 . S
C259 C261 1.479 . S
C259 H277 0.929 . S
C260 C257 1.424 . S
C260 C259 1.384 . S
C260 H278 0.928 . S
C261 C258 1.260 . S
C261 C259 1.479 . S
C262 C257 1.245 . S
C262 C258 1.477 . S
C262 H279 0.932 . S
C263 U246 2.882 . S
C263 C257 1.428 . S
C263 O266 1.301 . S
C263 O267 1.282 . S
O264 U246 2.441 1_556 S
O264 C250 1.249 . S
O265 U246 2.420 1_556 S
O265 C250 1.202 . S
O266 U246 2.455 . S
O266 C263 1.301 . S
O267 U246 2.449 . S
O267 C263 1.282 . S
H268 C241 0.931 . S
H269 C243 0.929 . S
H270 C244 0.930 . S
H271 C245 0.931 . S
H272 C252 0.932 . S
H273 C253 0.930 . S
H274 C254 0.929 . S
H275 C256 0.930 . S
H276 C258 0.932 . S
H277 C259 0.929 . S
H278 C260 0.928 . S
H279 C262 0.932 . S
C280 C281 1.264 . S
C280 C285 1.479 . S
C280 C290 1.465 . S
C281 C280 1.264 . S
C281 C283 1.339 . S
C281 H308 0.931 . S
C282 C283 1.395 . S
C282 C284 1.320 . S
C283 C281 1.339 . S
C283 C282 1.395 . S
C283 H309 0.929 . S
C284 C282 1.320 . S
C284 C285 1.405 . S
C284 H310 0.930 . S
C285 C280 1.479 . S
C285 C284 1.405 . S
C285 H311 0.931 . S
U286 O287 2.454 . S
U286 O288 2.458 . S
U286 C289 2.984 . S
U286 C290 2.847 1_554 S
U286 C303 2.882 . S
U286 O304 2.441 1_554 S
U286 O305 2.420 1_554 S
U286 O306 2.455 . S
U286 O307 2.449 . S
O287 U286 2.454 . S
O287 C289 1.353 . S
O288 U286 2.458 . S
O288 C289 1.286 . S
C289 U286 2.984 . S
C289 O287 1.353 . S
C289 O288 1.286 . S
C289 C291 1.363 . S
C290 C280 1.465 . S
C290 U286 2.847 1_556 S
C290 O304 1.249 . S
C290 O305 1.202 . S
C291 C289 1.363 . S
C291 C293 1.408 . S
C291 C296 1.342 . S
C292 C293 1.310 . S
C292 C295 1.461 . S
C292 H312 0.932 . S
C293 C291 1.408 . S
C293 C292 1.310 . S
C293 H313 0.915 1_554 S
C294 C295 1.474 . S
C294 C296 1.285 . S
C294 H314 0.929 . S
C295 C292 1.461 . S
C295 C294 1.474 . S
C296 C291 1.342 . S
C296 C294 1.285 . S
C296 H315 0.930 . S
C297 C300 1.424 . S
C297 C302 1.245 . S
C297 C303 1.428 . S
C298 C301 1.260 . S
C298 C302 1.477 . S
C298 H316 0.932 . S
C299 C300 1.384 . S
C299 C301 1.479 . S
C299 H317 0.929 . S
C300 C297 1.424 . S
C300 C299 1.384 . S
C300 H318 0.928 . S
C301 C298 1.260 . S
C301 C299 1.479 . S
C302 C297 1.245 . S
C302 C298 1.477 . S
C302 H319 0.932 . S
C303 U286 2.882 . S
C303 C297 1.428 . S
C303 O306 1.301 . S
C303 O307 1.282 . S
O304 U286 2.441 1_556 S
O304 C290 1.249 . S
O305 U286 2.420 1_556 S
O305 C290 1.202 . S
O306 U286 2.455 . S
O306 C303 1.301 . S
O307 U286 2.449 . S
O307 C303 1.282 . S
H308 C281 0.931 . S
H309 C283 0.929 . S
H310 C284 0.930 . S
H311 C285 0.931 . S
H312 C292 0.932 . S
H313 C293 0.915 1_556 S
H314 C294 0.929 . S
H315 C296 0.930 . S
H316 C298 0.932 . S
H317 C299 0.929 . S
H318 C300 0.928 . S
H319 C302 0.932 . S
Tb320 N349 2.617 . S
Tb320 N355 2.572 . S
Tb320 O364 2.465 . S
Tb320 O365 2.387 1_545 S
Tb320 O367 2.428 . S
Tb320 O368 2.308 1_655 S
Tb320 O372 2.349 1_655 S
Tb320 O375 2.393 . S
Tb320 C384 2.802 . S
C321 N322 1.375 1_545 S
C321 C324 1.416 . S
C321 C328 1.424 . S
N322 C321 1.375 1_565 S
N322 C325 1.336 . S
N322 Tb331 2.619 . S
C323 C325 1.390 1_545 S
C323 C326 1.339 . S
C323 H343 0.930 . S
C324 C321 1.416 . S
C324 C326 1.416 . S
C324 C330 1.448 . S
C325 N322 1.336 . S
C325 C323 1.390 1_565 S
C325 H336 0.930 . S
C326 C323 1.339 . S
C326 C324 1.416 . S
C326 H347 0.930 . S
C327 C328 1.413 . S
C327 C329 1.427 . S
C327 C333 1.416 . S
C328 C321 1.424 . S
C328 C327 1.413 . S
C328 N332 1.361 . S
C329 C327 1.427 . S
C329 C330 1.328 . S
C329 H344 0.929 . S
C330 C324 1.448 . S
C330 C329 1.328 . S
C330 H345 0.930 . S
Tb331 N322 2.619 . S
Tb331 N332 2.572 1_565 S
Tb331 O366 2.349 . S
Tb331 O369 2.393 . S
Tb331 O370 2.465 . S
Tb331 O371 2.387 1_565 S
Tb331 O373 2.428 . S
Tb331 O374 2.308 1_465 S
Tb331 C395 2.802 . S
N332 C328 1.361 . S
N332 Tb331 2.572 1_545 S
N332 C334 1.340 . S
C333 C327 1.416 . S
C333 C335 1.332 . S
C333 H341 0.931 . S
C334 N332 1.340 . S
C334 C335 1.407 . S
C334 H340 0.939 1_455 S
C335 C333 1.332 . S
C335 C334 1.407 . S
C335 H337 0.966 . S
H336 C325 0.930 . S
H337 C335 0.966 . S
H338 C353 0.930 . S
H339 C360 0.929 1_455 S
H340 C334 0.939 1_655 S
H341 C333 0.931 . S
H342 C356 0.930 1_455 S
H343 C323 0.930 . S
H344 C329 0.929 . S
H345 C330 0.930 . S
H346 C351 0.930 . S
H347 C326 0.930 . S
H348 C359 0.931 . S
N349 Tb320 2.617 . S
N349 C350 1.379 . S
N349 C353 1.334 . S
C350 N349 1.379 . S
C350 C352 1.416 1_545 S
C350 C358 1.424 . S
C351 H346 0.930 . S
C351 C353 1.390 . S
C351 C354 1.339 1_545 S
C352 C350 1.416 1_565 S
C352 C354 1.416 . S
C352 C385 1.448 . S
C353 H338 0.930 . S
C353 N349 1.334 . S
C353 C351 1.390 . S
C354 C351 1.339 1_565 S
C354 C352 1.416 . S
C354 H361 0.930 . S
N355 Tb320 2.572 . S
N355 C356 1.340 . S
N355 C358 1.361 . S
C356 H342 0.930 1_655 S
C356 N355 1.340 . S
C356 C360 1.407 1_545 S
C357 C358 1.413 1_565 S
C357 C359 1.416 . S
C357 C386 1.427 . S
C358 C350 1.424 . S
C358 N355 1.361 . S
C358 C357 1.413 1_545 S
C359 H348 0.931 . S
C359 C357 1.416 . S
C359 C360 1.332 . S
C360 H339 0.929 1_655 S
C360 C356 1.407 1_565 S
C360 C359 1.332 . S
H361 C354 0.930 . S
H362 C385 0.930 . S
H363 C386 0.929 . S
O364 Tb320 2.465 . S
O364 C384 1.264 . S
O365 Tb320 2.387 1_565 S
O365 C376 1.264 . S
O366 Tb331 2.349 . S
O366 C376 1.243 1_455 S
O367 Tb320 2.428 . S
O367 C384 1.256 . S
O368 Tb320 2.308 1_455 S
O368 C383 1.266 . S
O369 Tb331 2.393 . S
O369 C383 1.248 1_565 S
O370 Tb331 2.465 . S
O370 C395 1.264 . S
O371 Tb331 2.387 1_545 S
O371 C387 1.264 . S
O372 Tb320 2.349 1_455 S
O372 C387 1.243 . S
O373 Tb331 2.428 . S
O373 C395 1.256 . S
O374 Tb331 2.308 1_645 S
O374 C394 1.266 . S
O375 Tb320 2.393 . S
O375 C394 1.248 . S
C376 O365 1.264 . S
C376 O366 1.243 1_655 S
C377 C380 1.399 . S
C377 C382 1.383 . S
C377 C384 1.496 . S
C378 C379 1.399 . S
C378 C382 1.389 . S
C379 C378 1.399 . S
C379 C381 1.380 . S
C379 H396 0.929 . S
C380 C377 1.399 . S
C380 C381 1.392 . S
C380 H397 0.929 . S
C381 C379 1.380 . S
C381 C380 1.392 . S
C381 H398 0.929 . S
C382 C377 1.383 . S
C382 C378 1.389 . S
C382 H399 0.931 1_655 S
C383 O368 1.266 . S
C383 O369 1.248 1_545 S
C384 Tb320 2.802 . S
C384 O364 1.264 . S
C384 O367 1.256 . S
C384 C377 1.496 . S
C385 C352 1.448 . S
C385 H362 0.930 . S
C385 C386 1.328 . S
C386 C357 1.427 . S
C386 H363 0.929 . S
C386 C385 1.328 . S
C387 O371 1.264 . S
C387 O372 1.243 . S
C388 C391 1.399 . S
C388 C392 1.383 . S
C388 C395 1.496 . S
C389 C390 1.399 . S
C389 C392 1.389 . S
C390 C389 1.399 . S
C390 C393 1.380 . S
C390 H400 0.929 . S
C391 C388 1.399 . S
C391 C393 1.392 . S
C391 H401 0.929 . S
C392 C388 1.383 . S
C392 C389 1.389 . S
C392 H402 0.961 . S
C393 C390 1.380 . S
C393 C391 1.392 . S
C393 H403 0.929 . S
C394 O374 1.266 . S
C394 O375 1.248 . S
C395 Tb331 2.802 . S
C395 O370 1.264 . S
C395 O373 1.256 . S
C395 C388 1.496 . S
H396 C379 0.929 . S
H397 C380 0.929 . S
H398 C381 0.929 . S
H399 C382 0.931 1_455 S
H400 C390 0.929 . S
H401 C391 0.929 . S
H402 C392 0.961 . S
H403 C393 0.929 . S
Tb404 N433 2.617 . S
Tb404 N439 2.572 . S
Tb404 O448 2.465 . S
Tb404 O449 2.387 . S
Tb404 O451 2.428 . S
Tb404 O452 2.308 . S
Tb404 O456 2.349 1_545 S
Tb404 O459 2.393 . S
Tb404 C468 2.802 . S
C405 N406 1.379 . S
C405 C408 1.416 . S
C405 C412 1.424 . S
N406 C405 1.379 . S
N406 C409 1.334 . S
N406 Tb415 2.617 . S
C407 C409 1.390 . S
C407 C410 1.339 . S
C407 H427 0.930 . S
C408 C405 1.416 . S
C408 C410 1.416 . S
C408 C414 1.448 . S
C409 N406 1.334 . S
C409 C407 1.390 . S
C409 H420 0.930 . S
C410 C407 1.339 . S
C410 C408 1.416 . S
C410 H431 0.930 . S
C411 C412 1.413 . S
C411 C413 1.427 . S
C411 C417 1.416 . S
C412 C405 1.424 . S
C412 C411 1.413 . S
C412 N416 1.361 . S
C413 C411 1.427 . S
C413 C414 1.328 . S
C413 H428 0.929 . S
C414 C408 1.448 . S
C414 C413 1.328 . S
C414 H429 0.930 . S
Tb415 N406 2.617 . S
Tb415 N416 2.572 . S
Tb415 O450 2.349 1_565 S
Tb415 O453 2.393 . S
Tb415 O454 2.465 . S
Tb415 O455 2.387 . S
Tb415 O457 2.428 . S
Tb415 O458 2.308 1_565 S
Tb415 C479 2.802 . S
N416 C412 1.361 . S
N416 Tb415 2.572 . S
N416 C418 1.340 . S
C417 C411 1.416 . S
C417 C419 1.332 . S
C417 H425 0.931 . S
C418 N416 1.340 . S
C418 C419 1.407 . S
C418 H424 0.930 . S
C419 C417 1.332 . S
C419 C418 1.407 . S
C419 H421 0.929 . S
H420 C409 0.930 . S
H421 C419 0.929 . S
H422 C437 0.930 . S
H423 C444 0.929 . S
H424 C418 0.930 . S
H425 C417 0.931 . S
H426 C440 0.930 . S
H427 C407 0.930 . S
H428 C413 0.929 . S
H429 C414 0.930 . S
H430 C435 0.930 . S
H431 C410 0.930 . S
H432 C443 0.931 . S
N433 Tb404 2.617 . S
N433 C434 1.379 . S
N433 C437 1.334 . S
C434 N433 1.379 . S
C434 C436 1.416 . S
C434 C442 1.424 . S
C435 H430 0.930 . S
C435 C437 1.390 . S
C435 C438 1.339 . S
C436 C434 1.416 . S
C436 C438 1.416 . S
C436 C469 1.448 . S
C437 H422 0.930 . S
C437 N433 1.334 . S
C437 C435 1.390 . S
C438 C435 1.339 . S
C438 C436 1.416 . S
C438 H445 0.930 . S
N439 Tb404 2.572 . S
N439 C440 1.340 . S
N439 C442 1.361 . S
C440 H426 0.930 . S
C440 N439 1.340 . S
C440 C444 1.407 . S
C441 C442 1.413 . S
C441 C443 1.416 . S
C441 C470 1.427 . S
C442 C434 1.424 . S
C442 N439 1.361 . S
C442 C441 1.413 . S
C443 H432 0.931 . S
C443 C441 1.416 . S
C443 C444 1.332 . S
C444 H423 0.929 . S
C444 C440 1.407 . S
C444 C443 1.332 . S
H445 C438 0.930 . S
H446 C469 0.930 . S
H447 C470 0.929 . S
O448 Tb404 2.465 . S
O448 C468 1.264 . S
O449 Tb404 2.387 . S
O449 C460 1.264 . S
O450 Tb415 2.349 1_545 S
O450 C460 1.243 . S
O451 Tb404 2.428 . S
O451 C468 1.256 . S
O452 Tb404 2.308 . S
O452 C467 1.266 1_545 S
O453 Tb415 2.393 . S
O453 C467 1.248 . S
O454 Tb415 2.465 . S
O454 C479 1.264 . S
O455 Tb415 2.387 . S
O455 C471 1.264 . S
O456 Tb404 2.349 1_565 S
O456 C471 1.243 . S
O457 Tb415 2.428 . S
O457 C479 1.256 . S
O458 Tb415 2.308 1_545 S
O458 C478 1.266 . S
O459 Tb404 2.393 . S
O459 C478 1.248 . S
C460 O449 1.264 . S
C460 O450 1.243 . S
C461 C464 1.399 . S
C461 C466 1.383 . S
C461 C468 1.496 . S
C462 C463 1.399 . S
C462 C466 1.389 . S
C463 C462 1.399 . S
C463 C465 1.380 . S
C463 H480 0.929 . S
C464 C461 1.399 . S
C464 C465 1.392 . S
C464 H481 0.929 . S
C465 C463 1.380 . S
C465 C464 1.392 . S
C465 H482 0.929 . S
C466 C461 1.383 . S
C466 C462 1.389 . S
C466 H483 0.931 . S
C467 O452 1.266 1_565 S
C467 O453 1.248 . S
C468 Tb404 2.802 . S
C468 O448 1.264 . S
C468 O451 1.256 . S
C468 C461 1.496 . S
C469 C436 1.448 . S
C469 H446 0.930 . S
C469 C470 1.328 . S
C470 C441 1.427 . S
C470 H447 0.929 . S
C470 C469 1.328 . S
C471 O455 1.264 . S
C471 O456 1.243 . S
C472 C475 1.399 . S
C472 C476 1.383 1_565 S
C472 C479 1.496 . S
C473 C474 1.399 1_545 S
C473 C476 1.389 . S
C474 C473 1.399 1_565 S
C474 C477 1.380 . S
C474 H484 0.929 . S
C475 C472 1.399 . S
C475 C477 1.392 . S
C475 H485 0.929 . S
C476 C472 1.383 1_545 S
C476 C473 1.389 . S
C476 H486 0.931 . S
C477 C474 1.380 . S
C477 C475 1.392 . S
C477 H487 0.929 . S
C478 O458 1.266 . S
C478 O459 1.248 . S
C479 Tb415 2.802 . S
C479 O454 1.264 . S
C479 O457 1.256 . S
C479 C472 1.496 . S
H480 C463 0.929 . S
H481 C464 0.929 . S
H482 C465 0.929 . S
H483 C466 0.931 . S
H484 C474 0.929 . S
H485 C475 0.929 . S
H486 C476 0.931 . S
H487 C477 0.929 . S
Tb488 N517 2.617 . S
Tb488 N523 2.572 . S
Tb488 O532 2.465 . S
Tb488 O533 2.387 . S
Tb488 O535 2.428 . S
Tb488 O536 2.308 . S
Tb488 O540 2.349 . S
Tb488 O543 2.393 . S
Tb488 C552 2.802 . S
C489 N490 1.379 . S
C489 C492 1.416 . S
C489 C496 1.424 . S
N490 C489 1.379 . S
N490 C493 1.334 . S
N490 Tb499 2.617 . S
C491 C493 1.390 . S
C491 C494 1.339 . S
C491 H511 0.930 . S
C492 C489 1.416 . S
C492 C494 1.416 . S
C492 C498 1.448 . S
C493 N490 1.334 . S
C493 C491 1.390 . S
C493 H504 0.930 . S
C494 C491 1.339 . S
C494 C492 1.416 . S
C494 H515 0.930 . S
C495 C496 1.413 . S
C495 C497 1.427 . S
C495 C501 1.416 . S
C496 C489 1.424 . S
C496 C495 1.413 . S
C496 N500 1.361 . S
C497 C495 1.427 . S
C497 C498 1.328 . S
C497 H512 0.929 . S
C498 C492 1.448 . S
C498 C497 1.328 . S
C498 H513 0.930 . S
Tb499 N490 2.617 . S
Tb499 N500 2.572 . S
Tb499 O534 2.349 . S
Tb499 O537 2.393 . S
Tb499 O538 2.465 . S
Tb499 O539 2.387 . S
Tb499 O541 2.428 . S
Tb499 O542 2.308 . S
Tb499 C563 2.802 . S
N500 C496 1.361 . S
N500 Tb499 2.572 . S
N500 C502 1.340 . S
C501 C495 1.416 . S
C501 C503 1.332 . S
C501 H509 0.931 . S
C502 N500 1.340 . S
C502 C503 1.407 . S
C502 H508 0.930 . S
C503 C501 1.332 . S
C503 C502 1.407 . S
C503 H505 0.929 . S
H504 C493 0.930 . S
H505 C503 0.929 . S
H506 C521 0.930 . S
H507 C528 0.929 . S
H508 C502 0.930 . S
H509 C501 0.931 . S
H510 C524 0.930 . S
H511 C491 0.930 . S
H512 C497 0.929 . S
H513 C498 0.930 . S
H514 C519 0.930 . S
H515 C494 0.930 . S
H516 C527 0.931 . S
N517 Tb488 2.617 . S
N517 C518 1.379 . S
N517 C521 1.334 . S
C518 N517 1.379 . S
C518 C520 1.416 . S
C518 C526 1.424 . S
C519 H514 0.930 . S
C519 C521 1.390 . S
C519 C522 1.339 . S
C520 C518 1.416 . S
C520 C522 1.416 . S
C520 C553 1.448 . S
C521 H506 0.930 . S
C521 N517 1.334 . S
C521 C519 1.390 . S
C522 C519 1.339 . S
C522 C520 1.416 . S
C522 H529 0.930 . S
N523 Tb488 2.572 . S
N523 C524 1.340 . S
N523 C526 1.361 . S
C524 H510 0.930 . S
C524 N523 1.340 . S
C524 C528 1.407 . S
C525 C526 1.413 . S
C525 C527 1.416 . S
C525 C554 1.427 . S
C526 C518 1.424 . S
C526 N523 1.361 . S
C526 C525 1.413 . S
C527 H516 0.931 . S
C527 C525 1.416 . S
C527 C528 1.332 . S
C528 H507 0.929 . S
C528 C524 1.407 . S
C528 C527 1.332 . S
H529 C522 0.930 . S
H530 C553 0.930 . S
H531 C554 0.929 . S
O532 Tb488 2.465 . S
O532 C552 1.264 . S
O533 Tb488 2.387 . S
O533 C544 1.264 . S
O534 Tb499 2.349 . S
O534 C544 1.243 . S
O535 Tb488 2.428 . S
O535 C552 1.256 . S
O536 Tb488 2.308 . S
O536 C551 1.266 . S
O537 Tb499 2.393 . S
O537 C551 1.248 . S
O538 Tb499 2.465 . S
O538 C563 1.264 . S
O539 Tb499 2.387 . S
O539 C555 1.264 . S
O540 Tb488 2.349 . S
O540 C555 1.243 . S
O541 Tb499 2.428 . S
O541 C563 1.256 . S
O542 Tb499 2.308 . S
O542 C562 1.266 . S
O543 Tb488 2.393 . S
O543 C562 1.248 . S
C544 O533 1.264 . S
C544 O534 1.243 . S
C545 C548 1.399 . S
C545 C550 1.383 . S
C545 C552 1.496 . S
C546 C547 1.399 . S
C546 C550 1.389 . S
C547 C546 1.399 . S
C547 C549 1.380 . S
C547 H564 0.929 . S
C548 C545 1.399 . S
C548 C549 1.392 . S
C548 H565 0.929 . S
C549 C547 1.380 . S
C549 C548 1.392 . S
C549 H566 0.929 . S
C550 C545 1.383 . S
C550 C546 1.389 . S
C550 H567 0.931 . S
C551 O536 1.266 . S
C551 O537 1.248 . S
C552 Tb488 2.802 . S
C552 O532 1.264 . S
C552 O535 1.256 . S
C552 C545 1.496 . S
C553 C520 1.448 . S
C553 H530 0.930 . S
C553 C554 1.328 . S
C554 C525 1.427 . S
C554 H531 0.929 . S
C554 C553 1.328 . S
C555 O539 1.264 . S
C555 O540 1.243 . S
C556 C559 1.399 . S
C556 C560 1.383 . S
C556 C563 1.496 . S
C557 C558 1.399 . S
C557 C560 1.389 . S
C558 C557 1.399 . S
C558 C561 1.380 . S
C558 H568 0.929 . S
C559 C556 1.399 . S
C559 C561 1.392 . S
C559 H569 0.929 . S
C560 C556 1.383 . S
C560 C557 1.389 . S
C560 H570 0.931 . S
C561 C558 1.380 . S
C561 C559 1.392 . S
C561 H571 0.929 . S
C562 O542 1.266 . S
C562 O543 1.248 . S
C563 Tb499 2.802 . S
C563 O538 1.264 . S
C563 O541 1.256 . S
C563 C556 1.496 . S
H564 C547 0.929 . S
H565 C548 0.929 . S
H566 C549 0.929 . S
H567 C550 0.931 . S
H568 C558 0.929 . S
H569 C559 0.929 . S
H570 C560 0.931 . S
H571 C561 0.929 . S
Tb572 N601 2.617 . S
Tb572 N607 2.572 . S
Tb572 O616 2.465 . S
Tb572 O617 2.387 1_455 S
Tb572 O619 2.428 . S
Tb572 O620 2.308 . S
Tb572 O624 2.349 . S
Tb572 O627 2.393 . S
Tb572 C636 2.802 . S
C573 N574 1.379 1_455 S
C573 C576 1.416 . S
C573 C580 1.424 . S
N574 C573 1.379 1_655 S
N574 C577 1.334 . S
N574 Tb583 2.617 . S
C575 C577 1.390 1_455 S
C575 C578 1.339 . S
C575 H595 0.928 1_455 S
C576 C573 1.416 . S
C576 C578 1.416 . S
C576 C582 1.448 . S
C577 N574 1.334 . S
C577 C575 1.390 1_655 S
C577 H588 0.930 . S
C578 C575 1.339 . S
C578 C576 1.416 . S
C578 H599 0.930 . S
C579 C580 1.413 . S
C579 C581 1.427 . S
C579 C585 1.416 . S
C580 C573 1.424 . S
C580 C579 1.413 . S
C580 N584 1.378 . S
C581 C579 1.427 . S
C581 C582 1.328 . S
C581 H596 0.929 . S
C582 C576 1.448 . S
C582 C581 1.328 . S
C582 H597 0.930 . S
Tb583 N574 2.617 . S
Tb583 N584 2.558 1_655 S
Tb583 O618 2.349 . S
Tb583 O621 2.393 . S
Tb583 O622 2.465 . S
Tb583 O623 2.387 1_655 S
Tb583 O625 2.428 . S
Tb583 O626 2.317 . S
Tb583 C647 2.802 . S
N584 C580 1.378 . S
N584 Tb583 2.558 1_455 S
N584 C586 1.346 . S
C585 C579 1.416 . S
C585 C587 1.332 . S
C585 H593 0.931 . S
C586 N584 1.346 . S
C586 C587 1.407 . S
C586 H592 0.930 1_455 S
C587 C585 1.332 . S
C587 C586 1.407 . S
C587 H589 0.929 . S
H588 C577 0.930 . S
H589 C587 0.929 . S
H590 C605 0.930 . S
H591 C612 0.929 . S
H592 C586 0.930 1_655 S
H593 C585 0.931 . S
H594 C608 0.930 . S
H595 C575 0.928 1_655 S
H596 C581 0.929 . S
H597 C582 0.930 . S
H598 C603 0.930 . S
H599 C578 0.930 . S
H600 C611 0.931 . S
N601 Tb572 2.617 . S
N601 C602 1.379 . S
N601 C605 1.334 . S
C602 N601 1.379 . S
C602 C604 1.416 1_455 S
C602 C610 1.424 . S
C603 H598 0.930 . S
C603 C605 1.390 . S
C603 C606 1.339 1_455 S
C604 C602 1.416 1_655 S
C604 C606 1.416 . S
C604 C637 1.448 . S
C605 H590 0.930 . S
C605 N601 1.334 . S
C605 C603 1.390 . S
C606 C603 1.339 1_655 S
C606 C604 1.416 . S
C606 H613 0.930 . S
N607 Tb572 2.572 . S
N607 C608 1.340 . S
N607 C610 1.361 . S
C608 H594 0.930 . S
C608 N607 1.340 . S
C608 C612 1.407 1_455 S
C609 C610 1.413 1_655 S
C609 C611 1.416 . S
C609 C638 1.427 . S
C610 C602 1.424 . S
C610 N607 1.361 . S
C610 C609 1.413 1_455 S
C611 H600 0.931 . S
C611 C609 1.416 . S
C611 C612 1.332 . S
C612 H591 0.929 . S
C612 C608 1.407 1_655 S
C612 C611 1.332 . S
H613 C606 0.930 . S
H614 C637 0.930 . S
H615 C638 0.929 . S
O616 Tb572 2.465 . S
O616 C636 1.264 . S
O617 Tb572 2.387 1_655 S
O617 C628 1.264 . S
O618 Tb583 2.349 . S
O618 C628 1.243 . S
O619 Tb572 2.428 . S
O619 C636 1.256 . S
O620 Tb572 2.308 . S
O620 C635 1.266 . S
O621 Tb583 2.393 . S
O621 C635 1.248 1_655 S
O622 Tb583 2.465 . S
O622 C647 1.264 . S
O623 Tb583 2.387 1_455 S
O623 C639 1.264 . S
O624 Tb572 2.349 . S
O624 C639 1.243 . S
O625 Tb583 2.428 . S
O625 C647 1.256 . S
O626 Tb583 2.317 . S
O626 C646 1.259 1_655 S
O627 Tb572 2.393 . S
O627 C646 1.248 . S
C628 O617 1.264 . S
C628 O618 1.243 . S
C629 C632 1.399 . S
C629 C634 1.383 . S
C629 C636 1.496 . S
C630 C631 1.399 . S
C630 C634 1.389 . S
C631 C630 1.399 . S
C631 C633 1.380 . S
C631 H648 0.929 . S
C632 C629 1.399 . S
C632 C633 1.392 . S
C632 H649 0.929 . S
C633 C631 1.380 . S
C633 C632 1.392 . S
C633 H650 0.929 . S
C634 C629 1.383 . S
C634 C630 1.389 . S
C634 H651 0.931 . S
C635 O620 1.266 . S
C635 O621 1.248 1_455 S
C636 Tb572 2.802 . S
C636 O616 1.264 . S
C636 O619 1.256 . S
C636 C629 1.496 . S
C637 C604 1.448 . S
C637 H614 0.930 . S
C637 C638 1.328 . S
C638 C609 1.427 . S
C638 H615 0.929 . S
C638 C637 1.328 . S
C639 O623 1.264 . S
C639 O624 1.243 . S
C640 C643 1.399 . S
C640 C644 1.383 . S
C640 C647 1.496 . S
C641 C642 1.399 . S
C641 C644 1.389 . S
C642 C641 1.399 . S
C642 C645 1.380 . S
C642 H652 0.929 . S
C643 C640 1.399 . S
C643 C645 1.392 . S
C643 H653 0.929 . S
C644 C640 1.383 . S
C644 C641 1.389 . S
C644 H654 0.931 . S
C645 C642 1.380 . S
C645 C643 1.392 . S
C645 H655 0.929 . S
C646 O626 1.259 1_455 S
C646 O627 1.248 . S
C647 Tb583 2.802 . S
C647 O622 1.264 . S
C647 O625 1.256 . S
C647 C640 1.496 . S
H648 C631 0.929 . S
H649 C632 0.929 . S
H650 C633 0.929 . S
H651 C634 0.931 . S
H652 C642 0.929 . S
H653 C643 0.929 . S
H654 C644 0.931 . S
H655 C645 0.929 . S
H656 C668 0.930 . S
H657 C670 0.930 . S
H658 C671 0.930 1_565 S
H659 C675 0.959 . S
H660 C675 0.959 . S
H661 C675 0.961 . S
H662 C676 0.960 . S
H663 C676 0.961 . S
H664 C676 0.959 . S
H665 C679 0.966 . S
H666 C680 0.953 . S
H667 C682 0.930 . S
C668 H656 0.930 . S
C668 C669 1.399 . S
C668 C673 1.399 . S
C669 C668 1.399 . S
C669 C670 1.376 . S
C670 H657 0.930 . S
C670 C669 1.376 . S
C670 C671 1.388 . S
C671 H658 0.930 1_545 S
C671 C670 1.388 . S
C671 C672 1.390 . S
C672 C671 1.390 . S
C672 C673 1.394 . S
C672 C678 1.465 . S
C673 C668 1.399 . S
C673 C672 1.394 . S
C673 C674 1.516 . S
C674 C673 1.516 . S
C674 C675 1.502 . S
C674 C676 1.561 . S
C674 C677 1.526 . S
C675 H659 0.959 . S
C675 H660 0.959 . S
C675 H661 0.961 . S
C675 C674 1.502 . S
C676 H662 0.960 . S
C676 H663 0.961 . S
C676 H664 0.959 . S
C676 C674 1.561 . S
C677 C674 1.526 . S
C677 C678 1.396 . S
C677 C682 1.390 . S
C678 C672 1.465 . S
C678 C677 1.396 . S
C678 C679 1.362 1_545 S
C679 H665 0.966 . S
C679 C678 1.362 1_565 S
C679 C680 1.385 . S
C680 H666 0.953 . S
C680 C679 1.385 . S
C680 C681 1.368 1_565 S
C681 C680 1.368 1_545 S
C681 C682 1.387 . S
C682 H667 0.930 . S
C682 C677 1.390 . S
C682 C681 1.387 . S
H683 C695 0.930 . S
H684 C697 0.930 . S
H685 C698 0.930 . S
H686 C702 0.959 . S
H687 C702 0.959 . S
H688 C702 0.961 . S
H689 C703 0.960 . S
H690 C703 0.961 . S
H691 C703 0.959 . S
H692 C706 0.929 . S
H693 C707 0.931 . S
H694 C709 0.930 . S
C695 H683 0.930 . S
C695 C696 1.399 . S
C695 C700 1.399 . S
C696 C695 1.399 . S
C696 C697 1.376 . S
C697 H684 0.930 . S
C697 C696 1.376 . S
C697 C698 1.388 . S
C698 H685 0.930 . S
C698 C697 1.388 . S
C698 C699 1.390 . S
C699 C698 1.390 . S
C699 C700 1.394 . S
C699 C705 1.465 . S
C700 C695 1.399 . S
C700 C699 1.394 . S
C700 C701 1.516 . S
C701 C700 1.516 . S
C701 C702 1.502 . S
C701 C703 1.561 . S
C701 C704 1.526 . S
C702 H686 0.959 . S
C702 H687 0.959 . S
C702 H688 0.961 . S
C702 C701 1.502 . S
C703 H689 0.960 . S
C703 H690 0.961 . S
C703 H691 0.959 . S
C703 C701 1.561 . S
C704 C701 1.526 . S
C704 C705 1.396 . S
C704 C709 1.390 . S
C705 C699 1.465 . S
C705 C704 1.396 . S
C705 C706 1.399 . S
C706 H692 0.929 . S
C706 C705 1.399 . S
C706 C707 1.385 . S
C707 H693 0.931 . S
C707 C706 1.385 . S
C707 C708 1.389 . S
C708 C707 1.389 . S
C708 C709 1.387 . S
C709 H694 0.930 . S
C709 C704 1.390 . S
C709 C708 1.387 . S
H710 C722 0.930 . S
H711 C724 0.930 . S
H712 C725 0.930 . S
H713 C729 0.959 . S
H714 C729 0.959 . S
H715 C729 0.961 . S
H716 C730 0.960 . S
H717 C730 0.961 . S
H718 C730 0.959 . S
H719 C733 0.929 . S
H720 C734 0.931 . S
H721 C736 0.930 . S
C722 H710 0.930 . S
C722 C723 1.399 . S
C722 C727 1.399 . S
C723 C722 1.399 . S
C723 C724 1.376 . S
C724 H711 0.930 . S
C724 C723 1.376 . S
C724 C725 1.388 . S
C725 H712 0.930 . S
C725 C724 1.388 . S
C725 C726 1.390 . S
C726 C725 1.390 . S
C726 C727 1.394 . S
C726 C732 1.465 . S
C727 C722 1.399 . S
C727 C726 1.394 . S
C727 C728 1.516 . S
C728 C727 1.516 . S
C728 C729 1.502 . S
C728 C730 1.561 . S
C728 C731 1.526 . S
C729 H713 0.959 . S
C729 H714 0.959 . S
C729 H715 0.961 . S
C729 C728 1.502 . S
C730 H716 0.960 . S
C730 H717 0.961 . S
C730 H718 0.959 . S
C730 C728 1.561 . S
C731 C728 1.526 . S
C731 C732 1.396 . S
C731 C736 1.390 . S
C732 C726 1.465 . S
C732 C731 1.396 . S
C732 C733 1.399 . S
C733 H719 0.929 . S
C733 C732 1.399 . S
C733 C734 1.385 . S
C734 H720 0.931 . S
C734 C733 1.385 . S
C734 C735 1.389 . S
C735 C734 1.389 . S
C735 C736 1.387 . S
C736 H721 0.930 . S
C736 C731 1.390 . S
C736 C735 1.387 . S
H737 C749 0.930 . S
H738 C751 0.930 . S
H739 C752 0.930 . S
H740 C756 0.959 . S
H741 C756 0.959 . S
H742 C756 0.961 . S
H743 C757 0.960 . S
H744 C757 0.961 . S
H745 C757 0.959 . S
H746 C760 0.929 . S
H747 C761 0.931 . S
H748 C763 0.930 . S
C749 H737 0.930 . S
C749 C750 1.399 . S
C749 C754 1.399 . S
C750 C749 1.399 . S
C750 C751 1.376 . S
C751 H738 0.930 . S
C751 C750 1.376 . S
C751 C752 1.388 . S
C752 H739 0.930 . S
C752 C751 1.388 . S
C752 C753 1.390 . S
C753 C752 1.390 . S
C753 C754 1.394 . S
C753 C759 1.465 . S
C754 C749 1.399 . S
C754 C753 1.394 . S
C754 C755 1.516 . S
C755 C754 1.516 . S
C755 C756 1.502 1_455 S
C755 C757 1.561 . S
C755 C758 1.526 . S
C756 H740 0.959 . S
C756 H741 0.959 . S
C756 H742 0.961 . S
C756 C755 1.502 1_655 S
C757 H743 0.960 . S
C757 H744 0.961 . S
C757 H745 0.959 . S
C757 C755 1.561 . S
C758 C755 1.526 . S
C758 C759 1.396 . S
C758 C763 1.390 . S
C759 C753 1.465 . S
C759 C758 1.396 . S
C759 C760 1.399 . S
C760 H746 0.929 . S
C760 C759 1.399 . S
C760 C761 1.385 . S
C761 H747 0.931 . S
C761 C760 1.385 . S
C761 C762 1.389 . S
C762 C761 1.389 . S
C762 C763 1.387 . S
C763 H748 0.930 . S
C763 C758 1.390 . S
C763 C762 1.387 . S
H764 C776 0.930 . S
H765 C778 0.930 . S
H766 C779 0.930 . S
H767 C783 0.917 1_545 S
H768 C783 0.957 1_545 S
H769 C783 0.970 1_554 S
H770 C784 0.960 . S
H771 C784 0.961 . S
H772 C784 0.959 . S
H773 C787 0.929 . S
H774 C788 0.931 . S
H775 C790 0.930 . S
C776 H764 0.930 . S
C776 C777 1.399 . S
C776 C781 1.399 1_554 S
C777 C776 1.399 . S
C777 C778 1.376 . S
C778 H765 0.930 . S
C778 C777 1.376 . S
C778 C779 1.388 1_554 S
C779 H766 0.930 . S
C779 C778 1.388 1_556 S
C779 C780 1.390 . S
C780 C779 1.390 . S
C780 C781 1.394 . S
C780 C786 1.465 . S
C781 C776 1.399 1_556 S
C781 C780 1.394 . S
C781 C782 1.516 . S
C782 C781 1.516 . S
C782 C783 1.538 . S
C782 C784 1.561 . S
C782 C785 1.526 . S
C783 H767 0.917 1_565 S
C783 H768 0.957 1_565 S
C783 H769 0.970 1_556 S
C783 C782 1.538 . S
C784 H770 0.960 . S
C784 H771 0.961 . S
C784 H772 0.959 . S
C784 C782 1.561 . S
C785 C782 1.526 . S
C785 C786 1.396 . S
C785 C790 1.390 . S
C786 C780 1.465 . S
C786 C785 1.396 . S
C786 C787 1.399 . S
C787 H773 0.929 . S
C787 C786 1.399 . S
C787 C788 1.385 . S
C788 H774 0.931 . S
C788 C787 1.385 . S
C788 C789 1.389 . S
C789 C788 1.389 . S
C789 C790 1.387 . S
C790 H775 0.930 . S
C790 C785 1.390 . S
C790 C789 1.387 . S
H791 C803 0.930 . S
H792 C805 0.930 . S
H793 C806 0.930 . S
H794 C810 0.959 . S
H795 C810 0.959 . S
H796 C810 0.961 1_554 S
H797 C811 0.960 . S
H798 C811 0.961 . S
H799 C811 0.959 . S
H800 C814 0.929 . S
H801 C815 0.931 . S
H802 C817 0.930 . S
C803 H791 0.930 . S
C803 C804 1.399 . S
C803 C808 1.399 1_554 S
C804 C803 1.399 . S
C804 C805 1.376 . S
C805 H792 0.930 . S
C805 C804 1.376 . S
C805 C806 1.388 1_554 S
C806 H793 0.930 . S
C806 C805 1.388 1_556 S
C806 C807 1.390 . S
C807 C806 1.390 . S
C807 C808 1.394 . S
C807 C813 1.465 . S
C808 C803 1.399 1_556 S
C808 C807 1.394 . S
C808 C809 1.516 . S
C809 C808 1.516 . S
C809 C810 1.502 . S
C809 C811 1.561 . S
C809 C812 1.526 . S
C810 H794 0.959 . S
C810 H795 0.959 . S
C810 H796 0.961 1_556 S
C810 C809 1.502 . S
C811 H797 0.960 . S
C811 H798 0.961 . S
C811 H799 0.959 . S
C811 C809 1.561 . S
C812 C809 1.526 . S
C812 C813 1.396 . S
C812 C817 1.390 . S
C813 C807 1.465 . S
C813 C812 1.396 . S
C813 C814 1.399 . S
C814 H800 0.929 . S
C814 C813 1.399 . S
C814 C815 1.385 . S
C815 H801 0.931 . S
C815 C814 1.385 . S
C815 C816 1.389 . S
C816 C815 1.389 . S
C816 C817 1.387 . S
C817 H802 0.930 . S
C817 C812 1.390 . S
C817 C816 1.387 . S
H818 C830 0.930 . S
H819 C832 0.930 . S
H820 C833 0.930 . S
H821 C837 0.959 . S
H822 C837 0.959 . S
H823 C837 0.961 . S
H824 C838 0.960 . S
H825 C838 0.961 . S
H826 C838 0.959 . S
H827 C841 0.929 . S
H828 C842 0.931 . S
H829 C844 0.930 . S
C830 H818 0.930 . S
C830 C831 1.399 . S
C830 C835 1.399 1_554 S
C831 C830 1.399 . S
C831 C832 1.376 . S
C832 H819 0.930 . S
C832 C831 1.376 . S
C832 C833 1.388 1_554 S
C833 H820 0.930 . S
C833 C832 1.388 1_556 S
C833 C834 1.390 . S
C834 C833 1.390 . S
C834 C835 1.394 . S
C834 C840 1.465 . S
C835 C830 1.399 1_556 S
C835 C834 1.394 . S
C835 C836 1.516 . S
C836 C835 1.516 . S
C836 C837 1.502 . S
C836 C838 1.561 . S
C836 C839 1.526 . S
C837 H821 0.959 . S
C837 H822 0.959 . S
C837 H823 0.961 . S
C837 C836 1.502 . S
C838 H824 0.960 . S
C838 H825 0.961 . S
C838 H826 0.959 . S
C838 C836 1.561 . S
C839 C836 1.526 . S
C839 C840 1.396 . S
C839 C844 1.390 . S
C840 C834 1.465 . S
C840 C839 1.396 . S
C840 C841 1.399 . S
C841 H827 0.929 . S
C841 C840 1.399 . S
C841 C842 1.385 . S
C842 H828 0.931 . S
C842 C841 1.385 . S
C842 C843 1.389 . S
C843 C842 1.389 . S
C843 C844 1.387 . S
C844 H829 0.930 . S
C844 C839 1.390 . S
C844 C843 1.387 . S
H845 C857 0.930 . S
H846 C859 0.930 . S
H847 C860 0.930 . S
H848 C864 0.959 . S
H849 C864 0.959 . S
H850 C864 0.961 . S
H851 C865 0.960 . S
H852 C865 0.961 . S
H853 C865 0.959 . S
H854 C868 0.929 . S
H855 C869 0.931 . S
H856 C871 0.930 . S
C857 H845 0.930 . S
C857 C858 1.399 . S
C857 C862 1.399 1_554 S
C858 C857 1.399 . S
C858 C859 1.376 . S
C859 H846 0.930 . S
C859 C858 1.376 . S
C859 C860 1.388 . S
C860 H847 0.930 . S
C860 C859 1.388 . S
C860 C861 1.390 1_554 S
C861 C860 1.390 1_556 S
C861 C862 1.394 . S
C861 C867 1.465 . S
C862 C857 1.399 1_556 S
C862 C861 1.394 . S
C862 C863 1.516 . S
C863 C862 1.516 . S
C863 C864 1.502 . S
C863 C865 1.561 1_655 S
C863 C866 1.526 . S
C864 H848 0.959 . S
C864 H849 0.959 . S
C864 H850 0.961 . S
C864 C863 1.502 . S
C865 H851 0.960 . S
C865 H852 0.961 . S
C865 H853 0.959 . S
C865 C863 1.561 1_455 S
C866 C863 1.526 . S
C866 C867 1.396 . S
C866 C871 1.390 . S
C867 C861 1.465 . S
C867 C866 1.396 . S
C867 C868 1.399 . S
C868 H854 0.929 . S
C868 C867 1.399 . S
C868 C869 1.385 . S
C869 H855 0.931 . S
C869 C868 1.385 . S
C869 C870 1.389 . S
C870 C869 1.389 . S
C870 C871 1.387 . S
C871 H856 0.930 . S
C871 C866 1.390 . S
C871 C870 1.387 . S
H872 C884 0.930 . S
H873 C886 0.930 . S
H874 C887 0.930 . S
H875 C891 0.959 . S
H876 C891 0.959 . S
H877 C891 0.961 . S
H878 C892 0.960 . S
H879 C892 0.961 1_655 S
H880 C892 0.959 1_655 S
H881 C895 0.929 . S
H882 C896 0.931 1_655 S
H883 C898 0.930 . S
C884 H872 0.930 . S
C884 C885 1.399 . S
C884 C889 1.399 . S
C885 C884 1.399 . S
C885 C886 1.376 . S
C886 H873 0.930 . S
C886 C885 1.376 . S
C886 C887 1.388 . S
C887 H874 0.930 . S
C887 C886 1.388 . S
C887 C888 1.390 . S
C888 C887 1.390 . S
C888 C889 1.394 . S
C888 C894 1.465 . S
C889 C884 1.399 . S
C889 C888 1.394 . S
C889 C890 1.516 . S
C890 C889 1.516 . S
C890 C891 1.502 . S
C890 C892 1.561 . S
C890 C893 1.526 . S
C891 H875 0.959 . S
C891 H876 0.959 . S
C891 H877 0.961 . S
C891 C890 1.502 . S
C892 H878 0.960 . S
C892 H879 0.961 1_455 S
C892 H880 0.959 1_455 S
C892 C890 1.561 . S
C893 C890 1.526 . S
C893 C894 1.396 . S
C893 C898 1.390 . S
C894 C888 1.465 . S
C894 C893 1.396 . S
C894 C895 1.399 . S
C895 H881 0.929 . S
C895 C894 1.399 . S
C895 C896 1.385 . S
C896 H882 0.931 1_455 S
C896 C895 1.385 . S
C896 C897 1.389 . S
C897 C896 1.389 . S
C897 C898 1.387 . S
C898 H883 0.930 . S
C898 C893 1.390 . S
C898 C897 1.387 . S
H899 C911 0.930 . S
H900 C913 0.930 . S
H901 C914 0.930 1_565 S
H902 C918 0.959 . S
H903 C918 0.959 . S
H904 C918 0.961 . S
H905 C919 0.960 . S
H906 C919 0.961 . S
H907 C919 0.959 . S
H908 C922 0.929 . S
H909 C923 0.931 . S
H910 C925 0.930 . S
C911 H899 0.930 . S
C911 C912 1.399 . S
C911 C916 1.399 . S
C912 C911 1.399 . S
C912 C913 1.376 . S
C913 H900 0.930 . S
C913 C912 1.376 . S
C913 C914 1.388 . S
C914 H901 0.930 1_545 S
C914 C913 1.388 . S
C914 C915 1.390 . S
C915 C914 1.390 . S
C915 C916 1.394 . S
C915 C921 1.465 . S
C916 C911 1.399 . S
C916 C915 1.394 . S
C916 C917 1.516 . S
C917 C916 1.516 . S
C917 C918 1.502 . S
C917 C919 1.561 . S
C917 C920 1.526 . S
C918 H902 0.959 . S
C918 H903 0.959 . S
C918 H904 0.961 . S
C918 C917 1.502 . S
C919 H905 0.960 . S
C919 H906 0.961 . S
C919 H907 0.959 . S
C919 C917 1.561 . S
C920 C917 1.526 . S
C920 C921 1.396 . S
C920 C925 1.390 . S
C921 C915 1.465 . S
C921 C920 1.396 . S
C921 C922 1.399 1_545 S
C922 H908 0.929 . S
C922 C921 1.399 1_565 S
C922 C923 1.385 . S
C923 H909 0.931 . S
C923 C922 1.385 . S
C923 C924 1.389 1_565 S
C924 C923 1.389 1_545 S
C924 C925 1.387 . S
C925 H910 0.930 . S
C925 C920 1.390 . S
C925 C924 1.387 . S
H926 C938 0.930 . S
H927 C940 0.930 . S
H928 C941 0.930 . S
H929 C945 0.959 . S
H930 C945 0.959 . S
H931 C945 0.961 . S
H932 C946 0.960 . S
H933 C946 0.961 . S
H934 C946 0.959 . S
H935 C949 0.929 . S
H936 C950 0.931 . S
H937 C952 0.930 . S
C938 H926 0.930 . S
C938 C939 1.399 . S
C938 C943 1.399 . S
C939 C938 1.399 . S
C939 C940 1.376 . S
C940 H927 0.930 . S
C940 C939 1.376 . S
C940 C941 1.388 . S
C941 H928 0.930 . S
C941 C940 1.388 . S
C941 C942 1.390 . S
C942 C941 1.390 . S
C942 C943 1.394 . S
C942 C948 1.465 . S
C943 C938 1.399 . S
C943 C942 1.394 . S
C943 C944 1.516 . S
C944 C943 1.516 . S
C944 C945 1.502 . S
C944 C946 1.561 . S
C944 C947 1.526 . S
C945 H929 0.959 . S
C945 H930 0.959 . S
C945 H931 0.961 . S
C945 C944 1.502 . S
C946 H932 0.960 . S
C946 H933 0.961 . S
C946 H934 0.959 . S
C946 C944 1.561 . S
C947 C944 1.526 . S
C947 C948 1.396 . S
C947 C952 1.390 . S
C948 C942 1.465 . S
C948 C947 1.396 . S
C948 C949 1.399 . S
C949 H935 0.929 . S
C949 C948 1.399 . S
C949 C950 1.385 . S
C950 H936 0.931 . S
C950 C949 1.385 . S
C950 C951 1.389 . S
C951 C950 1.389 . S
C951 C952 1.387 . S
C952 H937 0.930 . S
C952 C947 1.390 . S
C952 C951 1.387 . S
H953 C965 0.930 . S
H954 C967 0.930 . S
H955 C968 0.930 . S
H956 C972 0.959 . S
H957 C972 0.959 . S
H958 C972 0.961 . S
H959 C973 0.960 . S
H960 C973 0.961 . S
H961 C973 0.959 . S
H962 C976 0.929 . S
H963 C977 0.931 . S
H964 C979 0.930 . S
C965 H953 0.930 . S
C965 C966 1.399 . S
C965 C970 1.399 . S
C966 C965 1.399 . S
C966 C967 1.376 . S
C967 H954 0.930 . S
C967 C966 1.376 . S
C967 C968 1.388 . S
C968 H955 0.930 . S
C968 C967 1.388 . S
C968 C969 1.390 . S
C969 C968 1.390 . S
C969 C970 1.394 . S
C969 C975 1.465 . S
C970 C965 1.399 . S
C970 C969 1.394 . S
C970 C971 1.516 . S
C971 C970 1.516 . S
C971 C972 1.502 . S
C971 C973 1.561 . S
C971 C974 1.526 . S
C972 H956 0.959 . S
C972 H957 0.959 . S
C972 H958 0.961 . S
C972 C971 1.502 . S
C973 H959 0.960 . S
C973 H960 0.961 . S
C973 H961 0.959 . S
C973 C971 1.561 . S
C974 C971 1.526 . S
C974 C975 1.396 . S
C974 C979 1.390 . S
C975 C969 1.465 . S
C975 C974 1.396 . S
C975 C976 1.399 . S
C976 H962 0.929 . S
C976 C975 1.399 . S
C976 C977 1.385 . S
C977 H963 0.931 . S
C977 C976 1.385 . S
C977 C978 1.389 . S
C978 C977 1.389 . S
C978 C979 1.387 . S
C979 H964 0.930 . S
C979 C974 1.390 . S
C979 C978 1.387 . S
H980 C992 0.930 . S
H981 C994 0.930 . S
H982 C995 0.930 1_454 S
H983 C999 0.959 . S
H984 C999 0.959 . S
H985 C999 0.961 . S
H986 C1000 0.960 . S
H987 C1000 0.961 . S
H988 C1000 0.959 . S
H989 C1003 0.929 . S
H990 C1004 0.931 . S
H991 C1006 0.930 . S
C992 H980 0.930 . S
C992 C993 1.399 . S
C992 C997 1.399 . S
C993 C992 1.399 . S
C993 C994 1.376 1_556 S
C994 H981 0.930 . S
C994 C993 1.376 1_554 S
C994 C995 1.388 1_554 S
C995 H982 0.930 1_656 S
C995 C994 1.388 1_556 S
C995 C996 1.390 . S
C996 C995 1.390 . S
C996 C997 1.394 . S
C996 C1002 1.476 . S
C997 C992 1.399 . S
C997 C996 1.394 . S
C997 C998 1.516 . S
C998 C997 1.516 . S
C998 C999 1.502 . S
C998 C1000 1.561 . S
C998 C1001 1.526 . S
C999 H983 0.959 . S
C999 H984 0.959 . S
C999 H985 0.961 . S
C999 C998 1.502 . S
C1000 H986 0.960 . S
C1000 H987 0.961 . S
C1000 H988 0.959 . S
C1000 C998 1.561 . S
C1001 C998 1.526 . S
C1001 C1002 1.412 . S
C1001 C1006 1.390 . S
C1002 C996 1.476 . S
C1002 C1001 1.412 . S
C1002 C1003 1.377 1_655 S
C1003 H989 0.929 . S
C1003 C1002 1.377 1_455 S
C1003 C1004 1.385 . S
C1004 H990 0.931 . S
C1004 C1003 1.385 . S
C1004 C1005 1.389 . S
C1005 C1004 1.389 . S
C1005 C1006 1.387 1_455 S
C1006 H991 0.930 . S
C1006 C1001 1.390 . S
C1006 C1005 1.387 1_655 S
H1007 C1019 0.930 1_554 S
H1008 C1021 0.930 . S
H1009 C1022 0.930 . S
H1010 C1026 0.945 1_565 S
H1011 C1026 0.959 . S
H1012 C1026 0.961 . S
H1013 C1027 0.960 . S
H1014 C1027 0.961 . S
H1015 C1027 0.959 . S
H1016 C1030 0.929 . S
H1017 C1031 0.931 . S
H1018 C1033 0.930 . S
C1019 H1007 0.930 1_556 S
C1019 C1020 1.399 . S
C1019 C1024 1.399 . S
C1020 C1019 1.399 . S
C1020 C1021 1.376 . S
C1021 H1008 0.930 . S
C1021 C1020 1.376 . S
C1021 C1022 1.388 . S
C1022 H1009 0.930 . S
C1022 C1021 1.388 . S
C1022 C1023 1.390 . S
C1023 C1022 1.390 . S
C1023 C1024 1.394 . S
C1023 C1029 1.465 . S
C1024 C1019 1.399 . S
C1024 C1023 1.394 . S
C1024 C1025 1.516 1_565 S
C1025 C1024 1.516 1_545 S
C1025 C1026 1.502 1_556 S
C1025 C1027 1.561 . S
C1025 C1028 1.526 . S
C1026 H1010 0.945 1_545 S
C1026 H1011 0.959 . S
C1026 H1012 0.961 . S
C1026 C1025 1.502 1_554 S
C1027 H1013 0.960 . S
C1027 H1014 0.961 . S
C1027 H1015 0.959 . S
C1027 C1025 1.561 . S
C1028 C1025 1.526 . S
C1028 C1029 1.396 1_545 S
C1028 C1033 1.390 . S
C1029 C1023 1.465 . S
C1029 C1028 1.396 1_565 S
C1029 C1030 1.399 . S
C1030 H1016 0.929 . S
C1030 C1029 1.399 . S
C1030 C1031 1.385 . S
C1031 H1017 0.931 . S
C1031 C1030 1.385 . S
C1031 C1032 1.389 1_565 S
C1032 C1031 1.389 1_545 S
C1032 C1033 1.387 . S
C1033 H1018 0.930 . S
C1033 C1028 1.390 . S
C1033 C1032 1.387 . S
H1034 C1046 0.930 1_554 S
H1035 C1048 0.930 . S
H1036 C1049 0.930 . S
H1037 C1053 0.959 . S
H1038 C1053 0.959 . S
H1039 C1053 0.961 . S
H1040 C1054 0.960 . S
H1041 C1054 0.961 . S
H1042 C1054 0.959 . S
H1043 C1057 0.929 . S
H1044 C1058 0.931 . S
H1045 C1060 0.930 . S
C1046 H1034 0.930 1_556 S
C1046 C1047 1.399 . S
C1046 C1051 1.399 . S
C1047 C1046 1.399 . S
C1047 C1048 1.376 . S
C1048 H1035 0.930 . S
C1048 C1047 1.376 . S
C1048 C1049 1.388 . S
C1049 H1036 0.930 . S
C1049 C1048 1.388 . S
C1049 C1050 1.390 . S
C1050 C1049 1.390 . S
C1050 C1051 1.394 . S
C1050 C1056 1.465 . S
C1051 C1046 1.399 . S
C1051 C1050 1.394 . S
C1051 C1052 1.516 . S
C1052 C1051 1.516 . S
C1052 C1053 1.502 1_556 S
C1052 C1054 1.561 . S
C1052 C1055 1.526 . S
C1053 H1037 0.959 . S
C1053 H1038 0.959 . S
C1053 H1039 0.961 . S
C1053 C1052 1.502 1_554 S
C1054 H1040 0.960 . S
C1054 H1041 0.961 . S
C1054 H1042 0.959 . S
C1054 C1052 1.561 . S
C1055 C1052 1.526 . S
C1055 C1056 1.396 . S
C1055 C1060 1.390 . S
C1056 C1050 1.465 . S
C1056 C1055 1.396 . S
C1056 C1057 1.399 . S
C1057 H1043 0.929 . S
C1057 C1056 1.399 . S
C1057 C1058 1.385 . S
C1058 H1044 0.931 . S
C1058 C1057 1.385 . S
C1058 C1059 1.389 . S
C1059 C1058 1.389 . S
C1059 C1060 1.387 . S
C1060 H1045 0.930 . S
C1060 C1055 1.390 . S
C1060 C1059 1.387 . S
H1061 C1073 0.930 . S
H1062 C1075 0.930 . S
H1063 C1076 0.930 . S
H1064 C1080 0.959 . S
H1065 C1080 0.959 . S
H1066 C1080 0.961 . S
H1067 C1081 0.960 . S
H1068 C1081 0.961 . S
H1069 C1081 0.959 . S
H1070 C1084 0.929 . S
H1071 C1085 0.931 . S
H1072 C1087 0.930 . S
C1073 H1061 0.930 . S
C1073 C1074 1.399 . S
C1073 C1078 1.399 . S
C1074 C1073 1.399 . S
C1074 C1075 1.376 1_556 S
C1075 H1062 0.930 . S
C1075 C1074 1.376 1_554 S
C1075 C1076 1.388 . S
C1076 H1063 0.930 . S
C1076 C1075 1.388 . S
C1076 C1077 1.390 1_554 S
C1077 C1076 1.390 1_556 S
C1077 C1078 1.394 . S
C1077 C1083 1.465 . S
C1078 C1073 1.399 . S
C1078 C1077 1.394 . S
C1078 C1079 1.516 . S
C1079 C1078 1.516 . S
C1079 C1080 1.502 . S
C1079 C1081 1.561 . S
C1079 C1082 1.526 . S
C1080 H1064 0.959 . S
C1080 H1065 0.959 . S
C1080 H1066 0.961 . S
C1080 C1079 1.502 . S
C1081 H1067 0.960 . S
C1081 H1068 0.961 . S
C1081 H1069 0.959 . S
C1081 C1079 1.561 . S
C1082 C1079 1.526 . S
C1082 C1083 1.396 . S
C1082 C1087 1.390 . S
C1083 C1077 1.465 . S
C1083 C1082 1.396 . S
C1083 C1084 1.399 . S
C1084 H1070 0.929 . S
C1084 C1083 1.399 . S
C1084 C1085 1.385 . S
C1085 H1071 0.931 . S
C1085 C1084 1.385 . S
C1085 C1086 1.389 . S
C1086 C1085 1.389 . S
C1086 C1087 1.387 . S
C1087 H1072 0.930 . S
C1087 C1082 1.390 . S
C1087 C1086 1.387 . S
H1088 C1100 0.930 . S
H1089 C1102 0.930 . S
H1090 C1103 0.930 . S
H1091 C1107 0.959 . S
H1092 C1107 0.959 . S
H1093 C1107 0.961 . S
H1094 C1108 0.960 . S
H1095 C1108 0.961 . S
H1096 C1108 0.959 . S
H1097 C1111 0.929 . S
H1098 C1112 0.931 . S
H1099 C1114 0.930 . S
C1100 H1088 0.930 . S
C1100 C1101 1.399 . S
C1100 C1105 1.399 . S
C1101 C1100 1.399 . S
C1101 C1102 1.376 . S
C1102 H1089 0.930 . S
C1102 C1101 1.376 . S
C1102 C1103 1.388 . S
C1103 H1090 0.930 . S
C1103 C1102 1.388 . S
C1103 C1104 1.390 . S
C1104 C1103 1.390 . S
C1104 C1105 1.394 . S
C1104 C1110 1.465 . S
C1105 C1100 1.399 . S
C1105 C1104 1.394 . S
C1105 C1106 1.516 . S
C1106 C1105 1.516 . S
C1106 C1107 1.502 . S
C1106 C1108 1.561 . S
C1106 C1109 1.526 . S
C1107 H1091 0.959 . S
C1107 H1092 0.959 . S
C1107 H1093 0.961 . S
C1107 C1106 1.502 . S
C1108 H1094 0.960 . S
C1108 H1095 0.961 . S
C1108 H1096 0.959 . S
C1108 C1106 1.561 . S
C1109 C1106 1.526 . S
C1109 C1110 1.396 . S
C1109 C1114 1.390 . S
C1110 C1104 1.465 . S
C1110 C1109 1.396 . S
C1110 C1111 1.399 . S
C1111 H1097 0.929 . S
C1111 C1110 1.399 . S
C1111 C1112 1.385 . S
C1112 H1098 0.931 . S
C1112 C1111 1.385 . S
C1112 C1113 1.389 . S
C1113 C1112 1.389 . S
C1113 C1114 1.387 . S
C1114 H1099 0.930 . S
C1114 C1109 1.390 . S
C1114 C1113 1.387 . S
H1115 C1127 0.930 . S
H1116 C1129 0.930 . S
H1117 C1130 0.930 . S
H1118 C1134 0.959 . S
H1119 C1134 0.959 . S
H1120 C1134 0.961 . S
H1121 C1135 0.960 . S
H1122 C1135 0.961 . S
H1123 C1135 0.959 . S
H1124 C1138 0.935 . S
H1125 C1139 0.897 1_565 S
H1126 C1141 0.930 . S
C1127 H1115 0.930 . S
C1127 C1128 1.399 . S
C1127 C1132 1.399 . S
C1128 C1127 1.399 . S
C1128 C1129 1.376 . S
C1129 H1116 0.930 . S
C1129 C1128 1.376 . S
C1129 C1130 1.388 . S
C1130 H1117 0.930 . S
C1130 C1129 1.388 . S
C1130 C1131 1.390 . S
C1131 C1130 1.390 . S
C1131 C1132 1.394 . S
C1131 C1137 1.465 . S
C1132 C1127 1.399 . S
C1132 C1131 1.394 . S
C1132 C1133 1.516 . S
C1133 C1132 1.516 . S
C1133 C1134 1.502 . S
C1133 C1135 1.561 . S
C1133 C1136 1.526 . S
C1134 H1118 0.959 . S
C1134 H1119 0.959 . S
C1134 H1120 0.961 . S
C1134 C1133 1.502 . S
C1135 H1121 0.960 . S
C1135 H1122 0.961 . S
C1135 H1123 0.959 . S
C1135 C1133 1.561 . S
C1136 C1133 1.526 . S
C1136 C1137 1.396 . S
C1136 C1141 1.390 . S
C1137 C1131 1.465 . S
C1137 C1136 1.396 . S
C1137 C1138 1.399 . S
C1138 H1124 0.935 . S
C1138 C1137 1.399 . S
C1138 C1139 1.385 . S
C1139 H1125 0.897 1_545 S
C1139 C1138 1.385 . S
C1139 C1140 1.389 . S
C1140 C1139 1.389 . S
C1140 C1141 1.387 . S
C1141 H1126 0.930 . S
C1141 C1136 1.390 . S
C1141 C1140 1.387 . S
H1142 C1154 0.930 . S
H1143 C1156 0.930 . S
H1144 C1157 0.930 . S
H1145 C1161 0.959 . S
H1146 C1161 0.959 . S
H1147 C1161 0.961 . S
H1148 C1162 0.960 . S
H1149 C1162 0.961 . S
H1150 C1162 0.959 . S
H1151 C1165 0.929 . S
H1152 C1166 0.931 . S
H1153 C1168 0.930 . S
C1154 H1142 0.930 . S
C1154 C1155 1.399 . S
C1154 C1159 1.399 . S
C1155 C1154 1.399 . S
C1155 C1156 1.376 . S
C1156 H1143 0.930 . S
C1156 C1155 1.376 . S
C1156 C1157 1.388 . S
C1157 H1144 0.930 . S
C1157 C1156 1.388 . S
C1157 C1158 1.390 . S
C1158 C1157 1.390 . S
C1158 C1159 1.394 . S
C1158 C1164 1.465 . S
C1159 C1154 1.399 . S
C1159 C1158 1.394 . S
C1159 C1160 1.516 . S
C1160 C1159 1.516 . S
C1160 C1161 1.502 . S
C1160 C1162 1.561 . S
C1160 C1163 1.526 . S
C1161 H1145 0.959 . S
C1161 H1146 0.959 . S
C1161 H1147 0.961 . S
C1161 C1160 1.502 . S
C1162 H1148 0.960 . S
C1162 H1149 0.961 . S
C1162 H1150 0.959 . S
C1162 C1160 1.561 . S
C1163 C1160 1.526 . S
C1163 C1164 1.396 . S
C1163 C1168 1.390 . S
C1164 C1158 1.465 . S
C1164 C1163 1.396 . S
C1164 C1165 1.399 . S
C1165 H1151 0.929 . S
C1165 C1164 1.399 . S
C1165 C1166 1.385 . S
C1166 H1152 0.931 . S
C1166 C1165 1.385 . S
C1166 C1167 1.389 . S
C1167 C1166 1.389 . S
C1167 C1168 1.387 . S
C1168 H1153 0.930 . S
C1168 C1163 1.390 . S
C1168 C1167 1.387 . S
H1169 C1181 0.930 . S
H1170 C1183 0.930 . S
H1171 C1184 0.930 . S
H1172 C1188 0.959 . S
H1173 C1188 0.959 . S
H1174 C1188 0.961 . S
H1175 C1189 0.960 . S
H1176 C1189 0.961 . S
H1177 C1189 0.959 . S
H1178 C1192 0.929 . S
H1179 C1193 0.931 . S
H1180 C1195 0.930 . S
C1181 H1169 0.930 . S
C1181 C1182 1.399 . S
C1181 C1186 1.399 . S
C1182 C1181 1.399 . S
C1182 C1183 1.376 . S
C1183 H1170 0.930 . S
C1183 C1182 1.376 . S
C1183 C1184 1.388 . S
C1184 H1171 0.930 . S
C1184 C1183 1.388 . S
C1184 C1185 1.390 . S
C1185 C1184 1.390 . S
C1185 C1186 1.394 . S
C1185 C1191 1.465 . S
C1186 C1181 1.399 . S
C1186 C1185 1.394 . S
C1186 C1187 1.516 . S
C1187 C1186 1.516 . S
C1187 C1188 1.502 . S
C1187 C1189 1.561 . S
C1187 C1190 1.526 . S
C1188 H1172 0.959 . S
C1188 H1173 0.959 . S
C1188 H1174 0.961 . S
C1188 C1187 1.502 . S
C1189 H1175 0.960 . S
C1189 H1176 0.961 . S
C1189 H1177 0.959 . S
C1189 C1187 1.561 . S
C1190 C1187 1.526 . S
C1190 C1191 1.396 . S
C1190 C1195 1.390 . S
C1191 C1185 1.465 . S
C1191 C1190 1.396 . S
C1191 C1192 1.399 . S
C1192 H1178 0.929 . S
C1192 C1191 1.399 . S
C1192 C1193 1.385 . S
C1193 H1179 0.931 . S
C1193 C1192 1.385 . S
C1193 C1194 1.389 . S
C1194 C1193 1.389 . S
C1194 C1195 1.387 . S
C1195 H1180 0.930 . S
C1195 C1190 1.390 . S
C1195 C1194 1.387 . S
H1196 C1208 0.930 . S
H1197 C1210 0.930 . S
H1198 C1211 0.930 . S
H1199 C1215 0.959 . S
H1200 C1215 0.959 . S
H1201 C1215 0.961 . S
H1202 C1216 0.960 . S
H1203 C1216 0.961 . S
H1204 C1216 0.959 . S
H1205 C1219 0.929 . S
H1206 C1220 0.931 . S
H1207 C1222 0.930 . S
C1208 H1196 0.930 . S
C1208 C1209 1.399 . S
C1208 C1213 1.399 . S
C1209 C1208 1.399 . S
C1209 C1210 1.376 . S
C1210 H1197 0.930 . S
C1210 C1209 1.376 . S
C1210 C1211 1.388 . S
C1211 H1198 0.930 . S
C1211 C1210 1.388 . S
C1211 C1212 1.390 . S
C1212 C1211 1.390 . S
C1212 C1213 1.394 . S
C1212 C1218 1.465 . S
C1213 C1208 1.399 . S
C1213 C1212 1.394 . S
C1213 C1214 1.516 . S
C1214 C1213 1.516 . S
C1214 C1215 1.502 1_655 S
C1214 C1216 1.561 . S
C1214 C1217 1.526 . S
C1215 H1199 0.959 . S
C1215 H1200 0.959 . S
C1215 H1201 0.961 . S
C1215 C1214 1.502 1_455 S
C1216 H1202 0.960 . S
C1216 H1203 0.961 . S
C1216 H1204 0.959 . S
C1216 C1214 1.561 . S
C1217 C1214 1.526 . S
C1217 C1218 1.396 . S
C1217 C1222 1.390 . S
C1218 C1212 1.465 . S
C1218 C1217 1.396 . S
C1218 C1219 1.399 . S
C1219 H1205 0.929 . S
C1219 C1218 1.399 . S
C1219 C1220 1.385 . S
C1220 H1206 0.931 . S
C1220 C1219 1.385 . S
C1220 C1221 1.389 . S
C1221 C1220 1.389 . S
C1221 C1222 1.387 . S
C1222 H1207 0.930 . S
C1222 C1217 1.390 . S
C1222 C1221 1.387 . S
H1223 C1235 0.930 . S
H1224 C1237 0.930 . S
H1225 C1238 0.930 1_545 S
H1226 C1242 0.959 . S
H1227 C1242 0.959 . S
H1228 C1242 0.961 . S
H1229 C1243 0.960 . S
H1230 C1243 0.961 . S
H1231 C1243 0.959 . S
H1232 C1246 0.929 . S
H1233 C1247 0.931 . S
H1234 C1249 0.930 . S
C1235 H1223 0.930 . S
C1235 C1236 1.399 . S
C1235 C1240 1.399 . S
C1236 C1235 1.399 . S
C1236 C1237 1.376 . S
C1237 H1224 0.930 . S
C1237 C1236 1.376 . S
C1237 C1238 1.388 . S
C1238 H1225 0.930 1_565 S
C1238 C1237 1.388 . S
C1238 C1239 1.390 . S
C1239 C1238 1.390 . S
C1239 C1240 1.394 . S
C1239 C1245 1.465 . S
C1240 C1235 1.399 . S
C1240 C1239 1.394 . S
C1240 C1241 1.516 . S
C1241 C1240 1.516 . S
C1241 C1242 1.502 . S
C1241 C1243 1.561 . S
C1241 C1244 1.526 . S
C1242 H1226 0.959 . S
C1242 H1227 0.959 . S
C1242 H1228 0.961 . S
C1242 C1241 1.502 . S
C1243 H1229 0.960 . S
C1243 H1230 0.961 . S
C1243 H1231 0.959 . S
C1243 C1241 1.561 . S
C1244 C1241 1.526 . S
C1244 C1245 1.396 . S
C1244 C1249 1.390 . S
C1245 C1239 1.465 . S
C1245 C1244 1.396 . S
C1245 C1246 1.399 1_565 S
C1246 H1232 0.929 . S
C1246 C1245 1.399 1_545 S
C1246 C1247 1.385 . S
C1247 H1233 0.931 . S
C1247 C1246 1.385 . S
C1247 C1248 1.389 1_545 S
C1248 C1247 1.389 1_565 S
C1248 C1249 1.387 . S
C1249 H1234 0.930 . S
C1249 C1244 1.390 . S
C1249 C1248 1.387 . S
H1250 C1262 0.930 . S
H1251 C1264 0.930 . S
H1252 C1265 0.930 . S
H1253 C1269 0.959 . S
H1254 C1269 0.959 . S
H1255 C1269 0.961 . S
H1256 C1270 0.960 . S
H1257 C1270 0.961 . S
H1258 C1270 0.959 . S
H1259 C1273 0.929 . S
H1260 C1274 0.931 . S
H1261 C1276 0.930 . S
C1262 H1250 0.930 . S
C1262 C1263 1.399 . S
C1262 C1267 1.399 . S
C1263 C1262 1.399 . S
C1263 C1264 1.376 . S
C1264 H1251 0.930 . S
C1264 C1263 1.376 . S
C1264 C1265 1.388 . S
C1265 H1252 0.930 . S
C1265 C1264 1.388 . S
C1265 C1266 1.390 . S
C1266 C1265 1.390 . S
C1266 C1267 1.394 . S
C1266 C1272 1.465 . S
C1267 C1262 1.399 . S
C1267 C1266 1.394 . S
C1267 C1268 1.516 . S
C1268 C1267 1.516 . S
C1268 C1269 1.502 . S
C1268 C1270 1.561 . S
C1268 C1271 1.526 . S
C1269 H1253 0.959 . S
C1269 H1254 0.959 . S
C1269 H1255 0.961 . S
C1269 C1268 1.502 . S
C1270 H1256 0.960 . S
C1270 H1257 0.961 . S
C1270 H1258 0.959 . S
C1270 C1268 1.561 . S
C1271 C1268 1.526 . S
C1271 C1272 1.396 . S
C1271 C1276 1.390 . S
C1272 C1266 1.465 . S
C1272 C1271 1.396 . S
C1272 C1273 1.399 . S
C1273 H1259 0.929 . S
C1273 C1272 1.399 . S
C1273 C1274 1.385 . S
C1274 H1260 0.931 . S
C1274 C1273 1.385 . S
C1274 C1275 1.389 . S
C1275 C1274 1.389 . S
C1275 C1276 1.387 . S
C1276 H1261 0.930 . S
C1276 C1271 1.390 . S
C1276 C1275 1.387 . S
H1277 C1289 0.930 . S
H1278 C1291 0.930 . S
H1279 C1292 0.930 . S
H1280 C1296 0.959 . S
H1281 C1296 0.959 . S
H1282 C1296 0.961 . S
H1283 C1297 0.960 . S
H1284 C1297 0.961 . S
H1285 C1297 0.959 . S
H1286 C1300 0.929 . S
H1287 C1301 0.931 . S
H1288 C1303 0.930 . S
C1289 H1277 0.930 . S
C1289 C1290 1.399 . S
C1289 C1294 1.399 . S
C1290 C1289 1.399 . S
C1290 C1291 1.376 . S
C1291 H1278 0.930 . S
C1291 C1290 1.376 . S
C1291 C1292 1.388 . S
C1292 H1279 0.930 . S
C1292 C1291 1.388 . S
C1292 C1293 1.390 . S
C1293 C1292 1.390 . S
C1293 C1294 1.394 . S
C1293 C1299 1.465 . S
C1294 C1289 1.399 . S
C1294 C1293 1.394 . S
C1294 C1295 1.516 . S
C1295 C1294 1.516 . S
C1295 C1296 1.502 . S
C1295 C1297 1.561 . S
C1295 C1298 1.526 . S
C1296 H1280 0.959 . S
C1296 H1281 0.959 . S
C1296 H1282 0.961 . S
C1296 C1295 1.502 . S
C1297 H1283 0.960 . S
C1297 H1284 0.961 . S
C1297 H1285 0.959 . S
C1297 C1295 1.561 . S
C1298 C1295 1.526 . S
C1298 C1299 1.396 . S
C1298 C1303 1.390 . S
C1299 C1293 1.465 . S
C1299 C1298 1.396 . S
C1299 C1300 1.399 . S
C1300 H1286 0.929 . S
C1300 C1299 1.399 . S
C1300 C1301 1.385 . S
C1301 H1287 0.931 . S
C1301 C1300 1.385 . S
C1301 C1302 1.389 . S
C1302 C1301 1.389 . S
C1302 C1303 1.387 . S
C1303 H1288 0.930 . S
C1303 C1298 1.390 . S
C1303 C1302 1.387 . S
C669 C255 2.381 . S
C681 C383 2.551 . S
C708 C460 2.541 . S
C696 C295 2.427 . S
C735 C551 2.543 . S
C723 C175 2.392 . S
C762 C635 2.526 . S
C750 C215 2.388 . S
C789 C394 2.575 1_565 S
C777 C95 2.350 . S
C804 C135 2.361 . S
C816 C471 2.582 . S
C831 C15 2.341 . S
C843 C562 2.561 . S
C858 C55 2.389 . S
C870 C646 2.514 1_655 S
C897 C378 0.557 1_455 S
C885 C221 0.407 . S
C924 C473 0.587 . S
C912 C261 0.467 . S
C951 C546 0.525 . S
C939 C301 0.429 . S
C966 C181 0.441 . S
C978 C630 0.431 . S
C993 C61 0.451 . S
C1005 C389 0.487 . S
C1032 C462 0.625 . S
C1020 C101 0.665 . S
C1059 C557 0.535 . S
C1047 C141 0.669 1_556 S
C1074 C21 0.465 . S
C1086 C641 0.496 . S
C1101 C202 2.933 . S
C1113 C387 3.123 . S
C1128 C242 2.875 . S
C1140 C478 3.198 . S
C1167 C555 3.180 . S
C1155 C282 2.905 . S
C1194 C639 3.153 . S
C1182 C162 2.952 . S
C1209 C42 2.899 . S
C1221 C376 3.123 . S
C1248 C467 3.197 . S
C1236 C82 2.831 . S
C1275 C544 3.179 . S
C1263 C122 2.861 . S
C1290 C2 2.878 . S
C1302 C628 3.172 . S
