# Generated by pormake.
# Topology tsx, (6,3)-cn, num edge types: 1
# Building blocks:
#     Node 0, Type 0, BuildingBlock: VOLQOD_clean_sbu_1, # of connection points: 6
#     Node 1, Type 0, BuildingBlock: VOLQOD_clean_sbu_1, # of connection points: 6
#     Node 2, Type 1, BuildingBlock: WUSLED_clean_sbu_0, # of connection points: 3
#     Node 3, Type 1, BuildingBlock: WUSLED_clean_sbu_0, # of connection points: 3
#     Node 4, Type 1, BuildingBlock: WUSLED_clean_sbu_0, # of connection points: 3
#     Node 5, Type 1, BuildingBlock: WUSLED_clean_sbu_0, # of connection points: 3
#     Edge 6, Type (0, 1), BuildingBlock: FUNLAD_clean_linker_0, # of connection points: 2
#     Edge 7, Type (0, 1), BuildingBlock: FUNLAD_clean_linker_0, # of connection points: 2
#     Edge 8, Type (0, 1), BuildingBlock: FUNLAD_clean_linker_0, # of connection points: 2
#     Edge 9, Type (0, 1), BuildingBlock: FUNLAD_clean_linker_0, # of connection points: 2
#     Edge 10, Type (0, 1), BuildingBlock: FUNLAD_clean_linker_0, # of connection points: 2
#     Edge 11, Type (0, 1), BuildingBlock: FUNLAD_clean_linker_0, # of connection points: 2
#     Edge 12, Type (0, 1), BuildingBlock: FUNLAD_clean_linker_0, # of connection points: 2
#     Edge 13, Type (0, 1), BuildingBlock: FUNLAD_clean_linker_0, # of connection points: 2
#     Edge 14, Type (0, 1), BuildingBlock: FUNLAD_clean_linker_0, # of connection points: 2
#     Edge 15, Type (0, 1), BuildingBlock: FUNLAD_clean_linker_0, # of connection points: 2
#     Edge 16, Type (0, 1), BuildingBlock: FUNLAD_clean_linker_0, # of connection points: 2
#     Edge 17, Type (0, 1), BuildingBlock: FUNLAD_clean_linker_0, # of connection points: 2
# Relax obj value: 0.070
# Max RMSD: 0.104
# Mean RMSD: 0.078
data_MOF--net-tsx--node1-VOLQOD_clean_sbu_1--node2-WUSLED_clean_sbu_0--edge1-FUNLAD_clean_linker_0
_symmetry_space_group_name_H-M    P1
_symmetry_Int_Tables_number       1
_symmetry_cell_setting            triclinic
loop_
_symmetry_equiv_pos_as_xyz
'x, y, z'
_cell_length_a     29.481786
_cell_length_b     30.50139
_cell_length_c     58.186558
_cell_angle_alpha  90.661382
_cell_angle_beta   90.189568
_cell_angle_gamma 90.069705
loop_
_atom_site_label
_atom_site_type_symbol
_atom_site_fract_x
_atom_site_fract_y
_atom_site_fract_z
_atom_type_partial_charge
O0 O 0.06055 1.00581 0.06653 0.0
Zn1 Zn 0.07879 1.00557 0.03312 0.0
O2 O 0.02566 0.0129 0.01325 0.0
Zn3 Zn 0.01833 0.96062 0.99379 0.0
Zn4 Zn 0.97121 0.02108 0.03208 0.0
Zn5 Zn 0.03438 0.06415 0.99385 0.0
O6 O 0.01508 0.97672 0.96026 0.0
O7 O 0.03604 0.0467 0.96021 0.0
O8 O 0.11297 0.94971 0.0255 0.0
O9 O 0.07212 0.92049 0.99711 0.0
O10 O 0.96248 0.926 1.00257 0.0
O11 O 0.92968 0.96879 0.02876 0.0
O12 O 0.9361 0.07551 0.02284 0.0
O13 O 0.12242 0.05595 0.02939 0.0
O14 O 0.98171 0.10558 0.99713 0.0
O15 O 0.09153 0.09749 1.00246 0.0
C16 C 0.02393 0.01572 0.07695 0.0
C17 C 0.02525 0.0115 0.94948 0.0
C18 C 0.93052 0.93357 0.01677 0.0
C19 C 0.10651 0.91972 0.0104 0.0
C20 C 0.94517 0.10601 0.00876 0.0
C21 C 0.12312 0.08996 0.01689 0.0
O22 O 0.98776 0.02462 0.06587 0.0
O23 O 0.55573 0.49666 0.56582 0.0
Zn24 Zn 0.57374 0.49704 0.53237 0.0
O25 O 0.52045 0.50526 0.51282 0.0
Zn26 Zn 0.50986 0.45184 0.49476 0.0
Zn27 Zn 0.46707 0.51749 0.53184 0.0
Zn28 Zn 0.53141 0.55431 0.49219 0.0
O29 O 0.50661 0.46555 0.46102 0.0
O30 O 0.53236 0.5339 0.45893 0.0
O31 O 0.6073 0.44102 0.52419 0.0
O32 O 0.56164 0.40953 0.49846 0.0
O33 O 0.45249 0.4208 0.50447 0.0
O34 O 0.42234 0.46742 0.52965 0.0
O35 O 0.4348 0.57315 0.5219 0.0
O36 O 0.61744 0.5473 0.52886 0.0
O37 O 0.48023 0.59757 0.4945 0.0
O38 O 0.58931 0.58705 0.50048 0.0
C39 C 0.52018 0.50935 0.57638 0.0
C40 C 0.51889 0.49846 0.44924 0.0
C41 C 0.4211 0.43124 0.51849 0.0
C42 C 0.59792 0.40949 0.5104 0.0
C43 C 0.44452 0.6013 0.50663 0.0
C44 C 0.61961 0.58034 0.51572 0.0
O45 O 0.48478 0.52127 0.56544 0.0
C46 C 0.95623 0.07161 0.44794 0.0
C47 C 0.9428 0.1049 0.43293 0.0
C48 C 0.89536 0.13734 0.46278 0.0
C49 C 0.9128 0.13757 0.44031 0.0
C50 C 0.90857 0.10362 0.47769 0.0
C51 C 0.93885 0.07109 0.47033 0.0
U52 U 0.01257 0.00761 0.39972 0.0
O53 O 0.0835 0.98674 0.3951 0.0
O54 O 0.029 0.93761 0.39601 0.0
C55 C 0.073 0.94487 0.39574 0.0
C56 C 0.9879 0.0372 0.4403 0.0
C57 C 0.10134 0.9177 0.41097 0.0
C58 C 0.11039 0.86742 0.44288 0.0
C59 C 0.08286 0.89463 0.42953 0.0
C60 C 0.17534 0.88684 0.41973 0.0
C61 C 0.15691 0.86308 0.43805 0.0
C62 C 0.1478 0.91372 0.40631 0.0
C63 C 0.97915 0.03651 0.33794 0.0
C64 C 0.01179 1.00136 0.30415 0.0
C65 C 0.95308 0.05622 0.29984 0.0
C66 C 0.95101 0.06132 0.3237 0.0
C67 C 0.9834 0.02611 0.28975 0.0
C68 C 0.00963 1.00648 0.32808 0.0
C69 C 0.97593 0.04234 0.36297 0.0
O70 O 0.96899 1.00291 0.43028 0.0
O71 O 0.02414 0.05121 0.42949 0.0
O72 O 0.01219 0.05846 0.37321 0.0
O73 O 0.95764 0.00952 0.37408 0.0
H74 H 0.9555 0.10558 0.41548 0.0
H75 H 0.90279 0.16272 0.42833 0.0
H76 H 0.89599 0.10273 0.49515 0.0
H77 H 0.94876 0.04557 0.48212 0.0
H78 H 0.09529 0.84987 0.45701 0.0
H79 H 0.04715 0.89725 0.43361 0.0
H80 H 0.21089 0.8838 0.41537 0.0
H81 H 0.16275 0.93102 0.39204 0.0
H82 H 0.03519 0.97759 0.29696 0.0
H83 H 0.93125 0.07628 0.28927 0.0
H84 H 0.92738 0.08474 0.33105 0.0
H85 H 0.03154 0.98696 0.33888 0.0
C86 C 0.94831 0.94866 0.57851 0.0
C87 C 0.92805 0.91995 0.59411 0.0
C88 C 0.88726 0.88344 0.56279 0.0
C89 C 0.89783 0.88764 0.58633 0.0
C90 C 0.90772 0.9124 0.54724 0.0
C91 C 0.93801 0.94472 0.55506 0.0
U92 U 0.00875 1.00602 0.6278 0.0
O93 O 0.02108 0.07614 0.63494 0.0
O94 O 0.0785 0.03066 0.63146 0.0
C95 C 0.06538 0.07165 0.63393 0.0
C96 C 0.97971 0.98294 0.58673 0.0
C97 C 0.09018 0.105 0.62072 0.0
C98 C 0.14387 0.12595 0.59105 0.0
C99 C 0.11719 0.09396 0.60164 0.0
C100 C 0.11563 0.18055 0.61793 0.0
C101 C 0.14404 0.16948 0.59938 0.0
C102 C 0.08917 0.14865 0.6285 0.0
C103 C 0.98766 0.96573 0.68867 0.0
C104 C 0.01304 1.00588 0.72268 0.0
C105 C 0.98237 0.93254 0.72628 0.0
C106 C 0.97574 0.93029 0.70249 0.0
C107 C 1.00096 0.97041 0.73667 0.0
C108 C 0.00659 1.0035 0.69885 0.0
C109 C 0.98004 0.96283 0.66372 0.0
O110 O 0.96094 0.01432 0.59909 0.0
O111 O 0.01792 0.9686 0.59559 0.0
O112 O 0.0153 0.95058 0.65149 0.0
O113 O 0.95778 0.99577 0.65469 0.0
H114 H 0.93548 0.9227 0.61232 0.0
H115 H 0.88221 0.86638 0.59882 0.0
H116 H 0.90073 0.90979 0.52899 0.0
H117 H 0.95339 0.96663 0.54279 0.0
H118 H 0.16552 0.11626 0.57689 0.0
H119 H 0.1186 0.06049 0.59525 0.0
H120 H 0.11421 0.21389 0.62449 0.0
H121 H 0.06856 0.15793 0.64315 0.0
H122 H 0.02788 0.03529 0.73013 0.0
H123 H 0.9722 0.90488 0.73658 0.0
H124 H 0.96107 0.9009 0.6949 0.0
H125 H 0.01628 0.03111 0.68839 0.0
C126 C 0.44909 0.56571 0.94595 0.0
C127 C 0.41873 0.58149 0.9294 0.0
C128 C 0.38729 0.63319 0.9573 0.0
C129 C 0.38802 0.61469 0.93502 0.0
C130 C 0.41787 0.61721 0.97386 0.0
C131 C 0.44852 0.58372 0.96821 0.0
U132 U 0.50888 0.5018 0.89955 0.0
O133 O 0.57937 0.47952 0.89581 0.0
O134 O 0.52384 0.43141 0.89551 0.0
C135 C 0.56793 0.43781 0.89569 0.0
C136 C 0.48183 0.53124 0.93974 0.0
C137 C 0.59428 0.40896 0.91085 0.0
C138 C 0.63682 0.3955 0.94597 0.0
C139 C 0.61038 0.42333 0.9324 0.0
C140 C 0.63033 0.33843 0.91684 0.0
C141 C 0.64725 0.35275 0.93829 0.0
C142 C 0.60419 0.36628 0.90328 0.0
C143 C 0.47783 0.53411 0.8376 0.0
C144 C 0.51907 0.51388 0.80296 0.0
C145 C 0.44571 0.54917 0.80007 0.0
C146 C 0.44267 0.55063 0.824 0.0
C147 C 0.48415 0.53124 0.78922 0.0
C148 C 0.51592 0.5153 0.82698 0.0
C149 C 0.47431 0.5381 0.86273 0.0
O150 O 0.46417 0.49647 0.92955 0.0
O151 O 0.51884 0.54527 0.92965 0.0
O152 O 0.5104 0.55333 0.8735 0.0
O153 O 0.45517 0.50497 0.87321 0.0
H154 H 0.41876 0.56806 0.91207 0.0
H155 H 0.36453 0.62555 0.92193 0.0
H156 H 0.41863 0.63101 0.99109 0.0
H157 H 0.47195 0.57212 0.98116 0.0
H158 H 0.64894 0.40736 0.9625 0.0
H159 H 0.60284 0.4561 0.93866 0.0
H160 H 0.63822 0.30598 0.91025 0.0
H161 H 0.59213 0.35462 0.88669 0.0
H162 H 0.54925 0.5001 0.79518 0.0
H163 H 0.41782 0.56203 0.79005 0.0
H164 H 0.41291 0.56505 0.83192 0.0
H165 H 0.54341 0.50228 0.83725 0.0
C166 C 0.45987 0.45021 0.07832 0.0
C167 C 0.42634 0.43561 0.09351 0.0
C168 C 0.39561 0.38697 0.06384 0.0
C169 C 0.39437 0.40446 0.0863 0.0
C170 C 0.42978 0.40111 0.0488 0.0
C171 C 0.46157 0.43261 0.05598 0.0
U172 U 0.52213 0.50942 0.12635 0.0
O173 O 0.59256 0.53265 0.12954 0.0
O174 O 0.53622 0.57948 0.13228 0.0
C175 C 0.58038 0.57399 0.13151 0.0
C176 C 0.49306 0.48363 0.08575 0.0
C177 C 0.60538 0.60561 0.11747 0.0
C178 C 0.63776 0.62921 0.08126 0.0
C179 C 0.61376 0.59814 0.09401 0.0
C180 C 0.64472 0.67534 0.11528 0.0
C181 C 0.65332 0.66827 0.09177 0.0
C182 C 0.62102 0.64431 0.12797 0.0
C183 C 0.49765 0.47629 0.18794 0.0
C184 C 0.52823 0.51733 0.22051 0.0
C185 C 0.48371 0.45172 0.22679 0.0
C186 C 0.47833 0.44625 0.20305 0.0
C187 C 0.5085 0.48748 0.23583 0.0
C188 C 0.52285 0.51176 0.19675 0.0
C189 C 0.4908 0.47063 0.16308 0.0
O190 O 0.47592 0.51733 0.09701 0.0
O191 O 0.5303 0.46837 0.09521 0.0
O192 O 0.52618 0.4563 0.15157 0.0
O193 O 0.46979 0.5031 0.15292 0.0
H194 H 0.42478 0.44843 0.11093 0.0
H195 H 0.36888 0.39376 0.09838 0.0
H196 H 0.43142 0.38843 0.03136 0.0
H197 H 0.48732 0.4434 0.04405 0.0
H198 H 0.64358 0.62298 0.06315 0.0
H199 H 0.60171 0.56846 0.08559 0.0
H200 H 0.65683 0.70469 0.12399 0.0
H201 H 0.61494 0.65054 0.14607 0.0
H202 H 0.5471 0.54545 0.22687 0.0
H203 H 0.4687 0.42774 0.23805 0.0
H204 H 0.45894 0.41858 0.1965 0.0
H205 H 0.53799 0.53531 0.18526 0.0
C206 C 0.15737 0.16442 0.01079 0.0
C207 C 0.16063 0.12202 0.0199 0.0
C208 C 0.19168 0.19536 0.01481 0.0
C209 C 0.23014 0.18445 0.02796 0.0
C210 C 0.23408 0.1417 0.03637 0.0
C211 C 0.19959 0.11094 0.03258 0.0
C212 C 0.26683 0.21665 0.03309 0.0
C213 C 0.25917 0.26001 0.03551 0.0
C214 C 0.295 0.29201 0.04237 0.0
C215 C 0.28234 0.33027 0.05433 0.0
C216 C 0.31498 0.36095 0.06132 0.0
C217 C 0.36103 0.35441 0.05616 0.0
H218 H 0.35197 0.25713 0.0272 0.0
C219 C 0.37368 0.31661 0.04372 0.0
C220 C 0.34105 0.28565 0.03693 0.0
H221 H 0.40892 0.31067 0.0395 0.0
H222 H 0.12796 0.17399 1.00085 0.0
H223 H 0.1881 0.22763 0.00748 0.0
H224 H 0.26354 0.13229 0.04634 0.0
H225 H 0.20341 0.07849 0.0397 0.0
H226 H 0.30035 0.20371 0.03677 0.0
H227 H 0.22471 0.27229 0.0341 0.0
H228 H 0.24709 0.33624 0.05854 0.0
H229 H 0.30408 0.39008 0.07058 0.0
C230 C 0.13711 0.85442 0.98896 0.0
C231 C 0.14028 0.88399 0.00764 0.0
C232 C 0.16976 0.8218 0.9857 0.0
C233 C 0.20647 0.81792 1.00105 0.0
C234 C 0.20897 0.84656 0.02008 0.0
C235 C 0.17646 0.87949 0.02325 0.0
C236 C 0.24203 0.78383 0.99785 0.0
C237 C 0.25463 0.76901 0.97691 0.0
C238 C 0.29017 0.73517 0.97303 0.0
C239 C 0.31237 0.73384 0.95174 0.0
C240 C 0.34444 0.70141 0.94686 0.0
C241 C 0.35469 0.66897 0.96306 0.0
H242 H 0.28345 0.70231 0.00579 0.0
C243 C 0.33266 0.67043 0.98448 0.0
C244 C 0.30072 0.70313 0.98942 0.0
H245 H 0.33911 0.64557 0.99721 0.0
H246 H 0.10956 0.85665 0.97667 0.0
H247 H 0.16584 0.79942 0.97126 0.0
H248 H 0.2366 0.84396 0.03231 0.0
H249 H 0.17982 0.90149 0.03791 0.0
H250 H 0.25985 0.77263 0.01304 0.0
H251 H 0.23971 0.78365 0.96172 0.0
H252 H 0.30489 0.75803 0.93878 0.0
H253 H 0.36124 0.70184 0.93035 0.0
C254 C 0.85915 0.90802 0.03581 0.0
C255 C 0.89516 0.89972 0.02059 0.0
C256 C 0.82793 0.87513 0.04103 0.0
C257 C 0.83176 0.83302 0.03105 0.0
C258 C 0.86729 0.82493 0.01556 0.0
C259 C 0.89848 0.85793 0.01025 0.0
C260 C 0.80171 0.79606 0.03784 0.0
C261 C 0.75967 0.80189 0.04644 0.0
C262 C 0.73131 0.76629 0.05632 0.0
C263 C 0.69545 0.77832 0.0709 0.0
C264 C 0.6696 0.74653 0.08193 0.0
C265 C 0.67869 0.70172 0.07854 0.0
H266 H 0.76568 0.71037 0.0406 0.0
C267 C 0.71328 0.68943 0.0632 0.0
C268 C 0.73935 0.72132 0.05218 0.0
H269 H 0.72106 0.65515 0.0602 0.0
H270 H 0.85563 0.93972 0.04421 0.0
H271 H 0.80205 0.88254 0.05362 0.0
H272 H 0.87135 0.79274 0.00776 0.0
H273 H 0.92587 0.85026 0.99853 0.0
H274 H 0.8157 0.76332 0.03621 0.0
H275 H 0.74589 0.83484 0.04747 0.0
H276 H 0.68801 0.81258 0.07425 0.0
H277 H 0.6426 0.75711 0.09329 0.0
C278 C 0.86766 0.13956 0.01365 0.0
C279 C 0.91195 0.14175 0.00481 0.0
C280 C 0.83561 0.17183 0.0083 0.0
C281 C 0.84727 0.207 0.99397 0.0
C282 C 0.89199 0.21 0.98596 0.0
C283 C 0.92384 0.17773 0.99116 0.0
C284 C 0.81409 0.24098 0.9867 0.0
C285 C 0.76894 0.2341 0.9854 0.0
C286 C 0.73684 0.26603 0.97499 0.0
C287 C 0.69629 0.25025 0.96523 0.0
C288 C 0.66673 0.27851 0.95381 0.0
C289 C 0.67678 0.32343 0.95209 0.0
H290 H 0.77608 0.32512 0.98211 0.0
C291 C 0.71631 0.33965 0.96279 0.0
C292 C 0.74599 0.31133 0.97415 0.0
H293 H 0.72505 0.37408 0.9618 0.0
H294 H 0.85743 0.11249 0.02436 0.0
H295 H 0.80191 0.16902 0.01543 0.0
H296 H 0.90213 0.2369 0.97509 0.0
H297 H 0.9577 0.18077 0.9842 0.0
H298 H 0.82807 0.27127 0.98011 0.0
H299 H 0.7553 0.20234 0.99003 0.0
H300 H 0.68799 0.21567 0.96587 0.0
H301 H 0.63612 0.26508 0.94615 0.0
C302 C 0.65684 0.65296 0.50779 0.0
C303 C 0.65702 0.61247 0.51913 0.0
C304 C 0.69067 0.68425 0.51229 0.0
C305 C 0.72547 0.67567 0.52828 0.0
C306 C 0.72638 0.63465 0.53897 0.0
C307 C 0.69252 0.60356 0.53458 0.0
C308 C 0.76154 0.70812 0.53432 0.0
C309 C 0.75697 0.75187 0.53201 0.0
C310 C 0.79195 0.78433 0.53966 0.0
C311 C 0.79118 0.82661 0.53033 0.0
C312 C 0.82234 0.85857 0.53759 0.0
C313 C 0.85482 0.84915 0.55458 0.0
H314 H 0.82556 0.74336 0.56494 0.0
C315 C 0.85554 0.80689 0.56398 0.0
C316 C 0.82445 0.77493 0.5567 0.0
H317 H 0.88025 0.79842 0.57701 0.0
H318 H 0.63019 0.66082 0.49567 0.0
H319 H 0.68942 0.71483 0.5031 0.0
H320 H 0.75295 0.62689 0.55117 0.0
H321 H 0.694 0.57266 0.54353 0.0
H322 H 0.7924 0.69509 0.5418 0.0
H323 H 0.72624 0.76495 0.52442 0.0
H324 H 0.76625 0.83503 0.51739 0.0
H325 H 0.82033 0.89096 0.53023 0.0
C326 C 0.67507 0.37595 0.51582 0.0
C327 C 0.63038 0.37272 0.50743 0.0
C328 C 0.70626 0.34216 0.51177 0.0
C329 C 0.69328 0.30431 0.49931 0.0
C330 C 0.64828 0.30052 0.49162 0.0
C331 C 0.61729 0.33443 0.49544 0.0
C332 C 0.72545 0.26798 0.49419 0.0
C333 C 0.77036 0.27418 0.49138 0.0
C334 C 0.80201 0.2384 0.48455 0.0
C335 C 0.84144 0.24904 0.47235 0.0
C336 C 0.87166 0.21631 0.46528 0.0
C337 C 0.86347 0.17215 0.47058 0.0
H338 H 0.76477 0.18488 0.50011 0.0
C339 C 0.82454 0.16155 0.48326 0.0
C340 C 0.79411 0.19427 0.49017 0.0
H341 H 0.81727 0.12782 0.48759 0.0
H342 H 0.68623 0.40489 0.52522 0.0
H343 H 0.74031 0.34569 0.51855 0.0
H344 H 0.63724 0.27155 0.48219 0.0
H345 H 0.58306 0.33065 0.48888 0.0
H346 H 0.71099 0.23575 0.49088 0.0
H347 H 0.78411 0.30721 0.49245 0.0
H348 H 0.84864 0.28279 0.468 0.0
H349 H 0.9017 0.22562 0.45584 0.0
C350 C 0.34901 0.41065 0.53852 0.0
C351 C 0.3839 0.39966 0.52308 0.0
C352 C 0.31606 0.37981 0.54442 0.0
C353 C 0.3174 0.33698 0.53516 0.0
C354 C 0.35098 0.32661 0.51893 0.0
C355 C 0.38398 0.35749 0.513 0.0
C356 C 0.28466 0.30241 0.5422 0.0
C357 C 0.26494 0.30228 0.5631 0.0
C358 C 0.23419 0.26716 0.5715 0.0
C359 C 0.22679 0.26442 0.59526 0.0
C360 C 0.19784 0.2327 0.60418 0.0
C361 C 0.17507 0.20294 0.58956 0.0
H362 H 0.2152 0.23896 0.5383 0.0
C363 C 0.18234 0.20553 0.56573 0.0
C364 C 0.21144 0.2374 0.55675 0.0
H365 H 0.16486 0.18346 0.55397 0.0
H366 H 0.34744 0.44299 0.54638 0.0
H367 H 0.2897 0.38976 0.55626 0.0
H368 H 0.3525 0.29409 0.51128 0.0
H369 H 0.41014 0.34793 0.50093 0.0
H370 H 0.2795 0.27493 0.53047 0.0
H371 H 0.27366 0.32802 0.57538 0.0
H372 H 0.24374 0.28682 0.60706 0.0
H373 H 0.19372 0.23123 0.62265 0.0
C374 C 0.36988 0.64037 0.51208 0.0
C375 C 0.41311 0.63822 0.50196 0.0
C376 C 0.3395 0.67386 0.50627 0.0
C377 C 0.35179 0.7059 0.49016 0.0
C378 C 0.39551 0.70445 0.48072 0.0
C379 C 0.42568 0.67104 0.48643 0.0
C380 C 0.32058 0.74133 0.48254 0.0
C381 C 0.27495 0.73948 0.48409 0.0
C382 C 0.24438 0.77302 0.47384 0.0
C383 C 0.19971 0.76106 0.46803 0.0
C384 C 0.1709 0.79058 0.45696 0.0
C385 C 0.18609 0.8329 0.45151 0.0
H386 H 0.29222 0.82746 0.47437 0.0
C387 C 0.23011 0.84554 0.45818 0.0
C388 C 0.25882 0.81613 0.46934 0.0
H389 H 0.24243 0.87827 0.45471 0.0
H390 H 0.35919 0.61581 0.52423 0.0
H391 H 0.30667 0.67445 0.5145 0.0
H392 H 0.4062 0.72883 0.46846 0.0
H393 H 0.45876 0.67074 0.4784 0.0
H394 H 0.33608 0.76842 0.47353 0.0
H395 H 0.25903 0.71071 0.49134 0.0
H396 H 0.18742 0.72829 0.47146 0.0
H397 H 0.13723 0.77975 0.45199 0.0
C398 C 0.98293 0.02448 0.11454 0.0
C399 C 0.02345 0.01672 0.10248 0.0
C400 C 0.98252 0.02528 0.13859 0.0
C401 C 0.0227 0.01816 0.15116 0.0
C402 C 0.06321 0.01099 0.1391 0.0
C403 C 0.06361 0.01 0.11507 0.0
C404 C 0.02413 0.01974 0.17675 0.0
C405 C 0.98793 0.0112 0.19011 0.0
C406 C 0.98836 0.01395 0.21572 0.0
C407 C 0.94669 0.01716 0.22724 0.0
C408 C 0.9451 0.02068 0.25118 0.0
C409 C 0.98523 0.0208 0.2643 0.0
H410 H 0.06142 0.00927 0.2209 0.0
C411 C 0.02696 0.01649 0.25288 0.0
C412 C 0.02858 0.01302 0.22888 0.0
H413 H 0.05852 0.01653 0.26246 0.0
H414 H 0.95141 0.03011 0.10542 0.0
H415 H 0.95082 0.0324 0.14715 0.0
H416 H 0.09475 1.00586 0.14831 0.0
H417 H 0.0955 1.00415 0.1064 0.0
H418 H 0.05649 0.02795 0.18461 0.0
H419 H 0.95586 1.00254 0.18203 0.0
H420 H 0.91512 0.01742 0.21765 0.0
H421 H 0.91231 0.02309 0.25944 0.0
C422 C 0.00986 0.9734 0.91176 0.0
C423 C 0.02411 0.01106 0.92396 0.0
C424 C 0.0082 0.97304 0.88774 0.0
C425 C 0.02121 0.0103 0.87527 0.0
C426 C 0.03509 0.048 0.88748 0.0
C427 C 0.03667 0.0484 0.91151 0.0
C428 C 0.01904 0.01174 0.84969 0.0
C429 C 0.01949 0.97563 0.83607 0.0
C430 C 0.01619 0.97638 0.8105 0.0
C431 C 0.02822 0.93843 0.79804 0.0
C432 C 0.02387 0.9367 0.77413 0.0
C433 C 0.00721 0.97291 0.76202 0.0
H434 H 0.9886 0.04224 0.80717 0.0
C435 C 0.99542 0.01106 0.77439 0.0
C436 C 0.9996 0.01276 0.79835 0.0
H437 H 0.98173 0.03924 0.7656 0.0
H438 H 0.99947 0.94418 0.92076 0.0
H439 H 0.99575 0.94376 0.87916 0.0
H440 H 0.04488 0.07733 0.87839 0.0
H441 H 0.04766 0.07806 0.92031 0.0
H442 H 0.0187 0.04394 0.84197 0.0
H443 H 0.02382 0.94372 0.84382 0.0
H444 H 0.04092 0.90984 0.80686 0.0
H445 H 0.03368 0.90696 0.7651 0.0
C446 C 0.48086 0.52285 0.61404 0.0
C447 C 0.51975 0.50957 0.6019 0.0
C448 C 0.4802 0.5224 0.63807 0.0
C449 C 0.51862 0.5089 0.65057 0.0
C450 C 0.55726 0.49522 0.63843 0.0
C451 C 0.55796 0.49573 0.6144 0.0
C452 C 0.51911 0.50726 0.67614 0.0
C453 C 0.4923 0.53255 0.68952 0.0
C454 C 0.49241 0.53149 0.7151 0.0
C455 C 0.47512 0.5678 0.72722 0.0
C456 C 0.47303 0.56787 0.75119 0.0
C457 C 0.4878 0.53137 0.76371 0.0
H458 H 0.51973 0.46572 0.71894 0.0
C459 C 0.50526 0.49497 0.75163 0.0
C460 C 0.50741 0.49491 0.72758 0.0
H461 H 0.51623 0.46604 0.76071 0.0
H462 H 0.45063 0.53329 0.605 0.0
H463 H 0.44918 0.5318 0.64668 0.0
H464 H 0.58719 0.48428 0.64757 0.0
H465 H 0.58844 0.48506 0.60566 0.0
H466 H 0.544 0.48598 0.68407 0.0
H467 H 0.47049 0.5567 0.68154 0.0
H468 H 0.4632 0.59637 0.71811 0.0
H469 H 0.46 0.59674 0.75993 0.0
C470 C 0.53102 0.53053 0.41007 0.0
C471 C 0.51661 0.49549 0.42378 0.0
C472 C 0.5278 0.52782 0.38608 0.0
C473 C 0.51017 0.48989 0.37528 0.0
C474 C 0.4957 0.45505 0.389 0.0
C475 C 0.49907 0.45766 0.41292 0.0
C476 C 0.50441 0.48591 0.34994 0.0
C477 C 0.52857 0.50903 0.33461 0.0
C478 C 0.52249 0.50378 0.30933 0.0
C479 C 0.55904 0.51288 0.29473 0.0
C480 C 0.55461 0.5077 0.2709 0.0
C481 C 0.51329 0.4937 0.26113 0.0
H482 H 0.45132 0.48504 0.31009 0.0
C483 C 0.47638 0.48564 0.27573 0.0
C484 C 0.48083 0.49072 0.29952 0.0
H485 H 0.44372 0.47595 0.26875 0.0
H486 H 0.54442 0.56028 0.41786 0.0
H487 H 0.53817 0.5559 0.37619 0.0
H488 H 0.48169 0.42557 0.38119 0.0
H489 H 0.48748 0.43007 0.42288 0.0
H490 H 0.48064 0.46122 0.34372 0.0
H491 H 0.55547 0.53071 0.34059 0.0
H492 H 0.59139 0.52335 0.30179 0.0
H493 H 0.58381 0.51396 0.26017 0.0
loop_
_geom_bond_atom_site_label_1
_geom_bond_atom_site_label_2
_geom_bond_distance
_geom_bond_site_symmetry_2
_ccdc_geom_bond_type
O0 Zn1 1.953 . S
O0 C16 1.225 1_565 S
Zn1 O0 1.953 . S
Zn1 O2 1.949 1_565 S
Zn1 O8 1.919 . S
Zn1 O13 1.924 1_565 S
O2 Zn1 1.949 1_545 S
O2 Zn3 1.923 1_444 S
O2 Zn4 1.950 1_455 S
O2 Zn5 1.945 1_554 S
Zn3 O2 1.923 1_666 S
Zn3 O6 1.934 . S
Zn3 O9 1.941 1_655 S
Zn3 O10 1.965 . S
Zn4 O2 1.950 1_655 S
Zn4 O11 1.938 1_545 S
Zn4 O12 1.906 . S
Zn4 O22 1.953 . S
Zn5 O2 1.945 1_556 S
Zn5 O7 1.932 . S
Zn5 O14 1.977 1_455 S
Zn5 O15 1.910 . S
O6 Zn3 1.934 . S
O6 C17 1.222 1_665 S
O7 Zn5 1.932 . S
O7 C17 1.307 . S
O8 Zn1 1.919 . S
O8 C19 1.289 . S
O9 Zn3 1.941 1_455 S
O9 C19 1.266 1_556 S
O10 Zn3 1.965 . S
O10 C18 1.303 1_556 S
O11 Zn4 1.938 1_565 S
O11 C18 1.247 . S
O12 Zn4 1.906 . S
O12 C20 1.307 1_554 S
O13 Zn1 1.924 1_545 S
O13 C21 1.311 . S
O14 Zn5 1.977 1_655 S
O14 C20 1.270 . S
O15 Zn5 1.910 . S
O15 C21 1.231 1_556 S
C16 O0 1.225 1_545 S
C16 O22 1.298 1_455 S
C17 O6 1.222 1_445 S
C17 O7 1.307 . S
C18 O10 1.303 1_554 S
C18 O11 1.247 . S
C19 O8 1.289 . S
C19 O9 1.266 1_554 S
C20 O12 1.307 1_556 S
C20 O14 1.270 . S
C21 O13 1.311 . S
C21 O15 1.231 1_554 S
O22 Zn4 1.953 . S
O22 C16 1.298 1_655 S
O23 Zn24 1.953 . S
O23 C39 1.225 . S
Zn24 O23 1.953 . S
Zn24 O25 1.949 . S
Zn24 O31 1.919 . S
Zn24 O36 1.924 . S
O25 Zn24 1.949 . S
O25 Zn26 1.923 . S
O25 Zn27 1.950 . S
O25 Zn28 1.945 . S
Zn26 O25 1.923 . S
Zn26 O29 1.933 . S
Zn26 O32 1.941 . S
Zn26 O33 1.965 . S
Zn27 O25 1.950 . S
Zn27 O34 1.938 . S
Zn27 O35 1.906 . S
Zn27 O45 1.953 . S
Zn28 O25 1.945 . S
Zn28 O30 1.932 . S
Zn28 O37 1.977 . S
Zn28 O38 1.910 . S
O29 Zn26 1.933 . S
O29 C40 1.226 . S
O30 Zn28 1.932 . S
O30 C40 1.307 . S
O31 Zn24 1.919 . S
O31 C42 1.253 . S
O32 Zn26 1.941 . S
O32 C42 1.283 . S
O33 Zn26 1.965 . S
O33 C41 1.303 . S
O34 Zn27 1.938 . S
O34 C41 1.247 . S
O35 Zn27 1.906 . S
O35 C43 1.304 . S
O36 Zn24 1.924 . S
O36 C44 1.311 . S
O37 Zn28 1.977 . S
O37 C43 1.272 . S
O38 Zn28 1.910 . S
O38 C44 1.231 . S
C39 O23 1.225 . S
C39 O45 1.298 . S
C40 O29 1.226 . S
C40 O30 1.307 . S
C41 O33 1.303 . S
C41 O34 1.247 . S
C42 O31 1.253 . S
C42 O32 1.283 . S
C43 O35 1.304 . S
C43 O37 1.272 . S
C44 O36 1.311 . S
C44 O38 1.231 . S
O45 Zn27 1.953 . S
O45 C39 1.298 . S
C46 C47 1.264 . S
C46 C51 1.479 . S
C46 C56 1.465 . S
C47 C46 1.264 . S
C47 C49 1.339 . S
C47 H74 0.931 . S
C48 C49 1.395 . S
C48 C50 1.320 . S
C49 C47 1.339 . S
C49 C48 1.395 . S
C49 H75 0.929 . S
C50 C48 1.320 . S
C50 C51 1.405 . S
C50 H76 0.930 . S
C51 C46 1.479 . S
C51 C50 1.405 . S
C51 H77 0.931 . S
U52 O53 2.454 1_545 S
U52 O54 2.458 1_545 S
U52 C55 2.984 1_545 S
U52 C56 2.847 1_455 S
U52 C69 2.882 . S
U52 O70 2.441 1_455 S
U52 O71 2.420 1_455 S
U52 O72 2.455 1_545 S
U52 O73 2.449 . S
O53 U52 2.454 1_565 S
O53 C55 1.353 . S
O54 U52 2.458 1_565 S
O54 C55 1.286 . S
C55 U52 2.984 1_565 S
C55 O53 1.353 . S
C55 O54 1.286 . S
C55 C57 1.363 . S
C56 C46 1.465 . S
C56 U52 2.847 1_655 S
C56 O70 1.249 . S
C56 O71 1.202 . S
C57 C55 1.363 . S
C57 C59 1.408 . S
C57 C62 1.342 . S
C58 C59 1.310 . S
C58 C61 1.461 . S
C58 H78 0.932 . S
C59 C57 1.408 . S
C59 C58 1.310 . S
C59 H79 0.930 . S
C60 C61 1.474 . S
C60 C62 1.285 . S
C60 H80 0.929 . S
C61 C58 1.461 . S
C61 C60 1.474 . S
C62 C57 1.342 . S
C62 C60 1.285 . S
C62 H81 0.930 . S
C63 C66 1.424 1_455 S
C63 C68 1.245 1_545 S
C63 C69 1.428 . S
C64 C67 1.260 1_565 S
C64 C68 1.477 . S
C64 H82 0.932 . S
C65 C66 1.384 . S
C65 C67 1.479 1_655 S
C65 H83 0.929 . S
C66 C63 1.424 1_655 S
C66 C65 1.384 . S
C66 H84 0.928 . S
C67 C64 1.260 1_545 S
C67 C65 1.479 1_455 S
C68 C63 1.245 1_565 S
C68 C64 1.477 . S
C68 H85 0.932 . S
C69 U52 2.882 . S
C69 C63 1.428 . S
C69 O72 1.301 1_545 S
C69 O73 1.282 . S
O70 U52 2.441 1_655 S
O70 C56 1.249 . S
O71 U52 2.420 1_655 S
O71 C56 1.202 . S
O72 U52 2.455 1_565 S
O72 C69 1.301 1_565 S
O73 U52 2.449 . S
O73 C69 1.282 . S
H74 C47 0.931 . S
H75 C49 0.929 . S
H76 C50 0.930 . S
H77 C51 0.931 . S
H78 C58 0.932 . S
H79 C59 0.930 . S
H80 C60 0.929 . S
H81 C62 0.930 . S
H82 C64 0.932 . S
H83 C65 0.929 . S
H84 C66 0.928 . S
H85 C68 0.932 . S
C86 C87 1.264 . S
C86 C91 1.479 . S
C86 C96 1.465 . S
C87 C86 1.264 . S
C87 C89 1.339 . S
C87 H114 0.931 . S
C88 C89 1.395 . S
C88 C90 1.320 . S
C89 C87 1.339 . S
C89 C88 1.395 . S
C89 H115 0.929 . S
C90 C88 1.320 . S
C90 C91 1.405 . S
C90 H116 0.930 . S
C91 C86 1.479 . S
C91 C90 1.405 . S
C91 H117 0.931 . S
U92 O93 2.454 1_565 S
U92 O94 2.458 1_565 S
U92 C95 2.984 1_565 S
U92 C96 2.847 1_455 S
U92 C109 2.882 . S
U92 O110 2.443 . S
U92 O111 2.420 1_455 S
U92 O112 2.455 1_565 S
U92 O113 2.449 . S
O93 U92 2.454 1_545 S
O93 C95 1.353 . S
O94 U92 2.458 1_545 S
O94 C95 1.286 . S
C95 U92 2.984 1_545 S
C95 O93 1.353 . S
C95 O94 1.286 . S
C95 C97 1.363 . S
C96 C86 1.465 . S
C96 U92 2.847 1_655 S
C96 O110 1.247 1_655 S
C96 O111 1.202 . S
C97 C95 1.363 . S
C97 C99 1.408 . S
C97 C102 1.342 . S
C98 C99 1.310 . S
C98 C101 1.461 . S
C98 H118 0.932 . S
C99 C97 1.408 . S
C99 C98 1.310 . S
C99 H119 0.930 . S
C100 C101 1.474 . S
C100 C102 1.285 . S
C100 H120 0.929 . S
C101 C98 1.461 . S
C101 C100 1.474 . S
C102 C97 1.342 . S
C102 C100 1.285 . S
C102 H121 0.930 . S
C103 C106 1.424 1_455 S
C103 C108 1.245 1_565 S
C103 C109 1.428 . S
C104 C107 1.260 1_545 S
C104 C108 1.477 . S
C104 H122 0.932 . S
C105 C106 1.384 . S
C105 C107 1.479 1_655 S
C105 H123 0.929 . S
C106 C103 1.424 1_655 S
C106 C105 1.384 . S
C106 H124 0.928 . S
C107 C104 1.260 1_565 S
C107 C105 1.479 1_455 S
C108 C103 1.245 1_545 S
C108 C104 1.477 . S
C108 H125 0.932 . S
C109 U92 2.882 . S
C109 C103 1.428 . S
C109 O112 1.301 1_565 S
C109 O113 1.282 . S
O110 U92 2.443 . S
O110 C96 1.247 1_455 S
O111 U92 2.420 1_655 S
O111 C96 1.202 . S
O112 U92 2.455 1_545 S
O112 C109 1.301 1_545 S
O113 U92 2.449 . S
O113 C109 1.282 . S
H114 C87 0.931 . S
H115 C89 0.929 . S
H116 C90 0.930 . S
H117 C91 0.931 . S
H118 C98 0.932 . S
H119 C99 0.930 . S
H120 C100 0.929 . S
H121 C102 0.930 . S
H122 C104 0.932 . S
H123 C105 0.929 . S
H124 C106 0.928 . S
H125 C108 0.932 . S
C126 C127 1.264 . S
C126 C131 1.479 . S
C126 C136 1.465 . S
C127 C126 1.264 . S
C127 C129 1.339 . S
C127 H154 0.931 . S
C128 C129 1.395 . S
C128 C130 1.320 . S
C129 C127 1.339 . S
C129 C128 1.395 . S
C129 H155 0.929 . S
C130 C128 1.320 . S
C130 C131 1.405 . S
C130 H156 0.930 . S
C131 C126 1.479 . S
C131 C130 1.405 . S
C131 H157 0.931 . S
U132 O133 2.454 . S
U132 O134 2.458 . S
U132 C135 2.984 . S
U132 C136 2.847 . S
U132 C149 2.882 . S
U132 O150 2.441 . S
U132 O151 2.420 . S
U132 O152 2.455 . S
U132 O153 2.449 . S
O133 U132 2.454 . S
O133 C135 1.353 . S
O134 U132 2.458 . S
O134 C135 1.286 . S
C135 U132 2.984 . S
C135 O133 1.353 . S
C135 O134 1.286 . S
C135 C137 1.363 . S
C136 C126 1.465 . S
C136 U132 2.847 . S
C136 O150 1.249 . S
C136 O151 1.202 . S
C137 C135 1.363 . S
C137 C139 1.408 . S
C137 C142 1.342 . S
C138 C139 1.310 . S
C138 C141 1.461 . S
C138 H158 0.932 . S
C139 C137 1.408 . S
C139 C138 1.310 . S
C139 H159 0.930 . S
C140 C141 1.474 . S
C140 C142 1.285 . S
C140 H160 0.929 . S
C141 C138 1.461 . S
C141 C140 1.474 . S
C142 C137 1.342 . S
C142 C140 1.285 . S
C142 H161 0.930 . S
C143 C146 1.424 . S
C143 C148 1.245 . S
C143 C149 1.428 . S
C144 C147 1.260 . S
C144 C148 1.477 . S
C144 H162 0.932 . S
C145 C146 1.384 . S
C145 C147 1.479 . S
C145 H163 0.929 . S
C146 C143 1.424 . S
C146 C145 1.384 . S
C146 H164 0.928 . S
C147 C144 1.260 . S
C147 C145 1.479 . S
C148 C143 1.245 . S
C148 C144 1.477 . S
C148 H165 0.932 . S
C149 U132 2.882 . S
C149 C143 1.428 . S
C149 O152 1.301 . S
C149 O153 1.282 . S
O150 U132 2.441 . S
O150 C136 1.249 . S
O151 U132 2.420 . S
O151 C136 1.202 . S
O152 U132 2.455 . S
O152 C149 1.301 . S
O153 U132 2.449 . S
O153 C149 1.282 . S
H154 C127 0.931 . S
H155 C129 0.929 . S
H156 C130 0.930 . S
H157 C131 0.931 . S
H158 C138 0.932 . S
H159 C139 0.930 . S
H160 C140 0.929 . S
H161 C142 0.930 . S
H162 C144 0.932 . S
H163 C145 0.929 . S
H164 C146 0.928 . S
H165 C148 0.932 . S
C166 C167 1.264 . S
C166 C171 1.479 . S
C166 C176 1.465 . S
C167 C166 1.264 . S
C167 C169 1.339 . S
C167 H194 0.931 . S
C168 C169 1.395 . S
C168 C170 1.320 . S
C169 C167 1.339 . S
C169 C168 1.395 . S
C169 H195 0.929 . S
C170 C168 1.320 . S
C170 C171 1.405 . S
C170 H196 0.930 . S
C171 C166 1.479 . S
C171 C170 1.405 . S
C171 H197 0.931 . S
U172 O173 2.454 . S
U172 O174 2.458 . S
U172 C175 2.984 . S
U172 C176 2.847 . S
U172 C189 2.882 . S
U172 O190 2.441 . S
U172 O191 2.420 . S
U172 O192 2.455 . S
U172 O193 2.449 . S
O173 U172 2.454 . S
O173 C175 1.353 . S
O174 U172 2.458 . S
O174 C175 1.286 . S
C175 U172 2.984 . S
C175 O173 1.353 . S
C175 O174 1.286 . S
C175 C177 1.363 . S
C176 C166 1.465 . S
C176 U172 2.847 . S
C176 O190 1.249 . S
C176 O191 1.202 . S
C177 C175 1.363 . S
C177 C179 1.408 . S
C177 C182 1.342 . S
C178 C179 1.310 . S
C178 C181 1.461 . S
C178 H198 0.932 . S
C179 C177 1.408 . S
C179 C178 1.310 . S
C179 H199 0.930 . S
C180 C181 1.474 . S
C180 C182 1.285 . S
C180 H200 0.929 . S
C181 C178 1.461 . S
C181 C180 1.474 . S
C182 C177 1.342 . S
C182 C180 1.285 . S
C182 H201 0.930 . S
C183 C186 1.424 . S
C183 C188 1.245 . S
C183 C189 1.428 . S
C184 C187 1.260 . S
C184 C188 1.477 . S
C184 H202 0.932 . S
C185 C186 1.384 . S
C185 C187 1.479 . S
C185 H203 0.929 . S
C186 C183 1.424 . S
C186 C185 1.384 . S
C186 H204 0.928 . S
C187 C184 1.260 . S
C187 C185 1.479 . S
C188 C183 1.245 . S
C188 C184 1.477 . S
C188 H205 0.932 . S
C189 U172 2.882 . S
C189 C183 1.428 . S
C189 O192 1.301 . S
C189 O193 1.282 . S
O190 U172 2.441 . S
O190 C176 1.249 . S
O191 U172 2.420 . S
O191 C176 1.202 . S
O192 U172 2.455 . S
O192 C189 1.301 . S
O193 U172 2.449 . S
O193 C189 1.282 . S
H194 C167 0.931 . S
H195 C169 0.929 . S
H196 C170 0.930 . S
H197 C171 0.931 . S
H198 C178 0.932 . S
H199 C179 0.930 . S
H200 C180 0.929 . S
H201 C182 0.930 . S
H202 C184 0.932 . S
H203 C185 0.929 . S
H204 C186 0.928 . S
H205 C188 0.932 . S
C206 C207 1.386 . S
C206 C208 1.383 . S
C206 H222 0.951 . S
C207 C206 1.386 . S
C207 C211 1.383 . S
C208 C206 1.383 . S
C208 C209 1.402 . S
C208 H223 0.951 . S
C209 C208 1.402 . S
C209 C210 1.375 . S
C209 C212 1.481 . S
C210 C209 1.375 . S
C210 C211 1.367 . S
C210 H224 0.951 . S
C211 C207 1.383 . S
C211 C210 1.367 . S
C211 H225 0.950 . S
C212 C209 1.481 . S
C212 C213 1.297 . S
C212 H226 0.950 . S
C213 C212 1.297 . S
C213 C214 1.479 . S
C213 H227 0.950 . S
C214 C213 1.479 . S
C214 C215 1.375 . S
C214 C220 1.404 . S
C215 C214 1.375 . S
C215 C216 1.369 . S
C215 H228 0.950 . S
C216 C215 1.369 . S
C216 C217 1.392 . S
C216 H229 0.951 . S
C217 C216 1.392 . S
C217 C219 1.384 . S
H218 C220 0.949 . S
C219 C217 1.384 . S
C219 C220 1.385 . S
C219 H221 0.950 . S
C220 C214 1.404 . S
C220 H218 0.949 . S
C220 C219 1.385 . S
H221 C219 0.950 . S
H222 C206 0.951 . S
H223 C208 0.951 . S
H224 C210 0.951 . S
H225 C211 0.950 . S
H226 C212 0.950 . S
H227 C213 0.950 . S
H228 C215 0.950 . S
H229 C216 0.951 . S
C230 C231 1.386 . S
C230 C232 1.383 . S
C230 H246 0.951 . S
C231 C230 1.386 . S
C231 C235 1.383 1_556 S
C232 C230 1.383 . S
C232 C233 1.402 . S
C232 H247 0.951 . S
C233 C232 1.402 . S
C233 C234 1.375 1_556 S
C233 C236 1.481 . S
C234 C233 1.375 1_554 S
C234 C235 1.367 . S
C234 H248 0.951 . S
C235 C231 1.383 1_554 S
C235 C234 1.367 . S
C235 H249 0.950 . S
C236 C233 1.481 . S
C236 C237 1.297 . S
C236 H250 0.950 . S
C237 C236 1.297 . S
C237 C238 1.479 . S
C237 H251 0.950 . S
C238 C237 1.479 . S
C238 C239 1.375 . S
C238 C244 1.404 . S
C239 C238 1.375 . S
C239 C240 1.369 . S
C239 H252 0.950 . S
C240 C239 1.369 . S
C240 C241 1.392 . S
C240 H253 0.951 . S
C241 C240 1.392 . S
C241 C243 1.384 . S
H242 C244 0.947 . S
C243 C241 1.384 . S
C243 C244 1.385 . S
C243 H245 0.950 . S
C244 C238 1.404 . S
C244 H242 0.947 . S
C244 C243 1.385 . S
H245 C243 0.950 . S
H246 C230 0.951 . S
H247 C232 0.951 . S
H248 C234 0.951 . S
H249 C235 0.950 . S
H250 C236 0.950 . S
H251 C237 0.950 . S
H252 C239 0.950 . S
H253 C240 0.951 . S
C254 C255 1.386 . S
C254 C256 1.383 . S
C254 H270 0.951 . S
C255 C254 1.386 . S
C255 C259 1.383 . S
C256 C254 1.383 . S
C256 C257 1.402 . S
C256 H271 0.951 . S
C257 C256 1.402 . S
C257 C258 1.375 . S
C257 C260 1.481 . S
C258 C257 1.375 . S
C258 C259 1.367 . S
C258 H272 0.951 1_554 S
C259 C255 1.383 . S
C259 C258 1.367 . S
C259 H273 0.950 1_554 S
C260 C257 1.481 . S
C260 C261 1.297 . S
C260 H274 0.950 . S
C261 C260 1.297 . S
C261 C262 1.479 . S
C261 H275 0.950 . S
C262 C261 1.479 . S
C262 C263 1.375 . S
C262 C268 1.404 . S
C263 C262 1.375 . S
C263 C264 1.369 . S
C263 H276 0.950 . S
C264 C263 1.369 . S
C264 C265 1.392 . S
C264 H277 0.951 . S
C265 C264 1.392 . S
C265 C267 1.384 . S
H266 C268 0.949 . S
C267 C265 1.384 . S
C267 C268 1.385 . S
C267 H269 0.950 . S
C268 C262 1.404 . S
C268 H266 0.949 . S
C268 C267 1.385 . S
H269 C267 0.950 . S
H270 C254 0.951 . S
H271 C256 0.951 . S
H272 C258 0.951 1_556 S
H273 C259 0.950 1_556 S
H274 C260 0.950 . S
H275 C261 0.950 . S
H276 C263 0.950 . S
H277 C264 0.951 . S
C278 C279 1.386 . S
C278 C280 1.383 . S
C278 H294 0.951 . S
C279 C278 1.386 . S
C279 C283 1.383 . S
C280 C278 1.383 . S
C280 C281 1.402 . S
C280 H295 0.951 . S
C281 C280 1.402 . S
C281 C282 1.375 . S
C281 C284 1.481 . S
C282 C281 1.375 . S
C282 C283 1.367 . S
C282 H296 0.951 . S
C283 C279 1.383 . S
C283 C282 1.367 . S
C283 H297 0.950 . S
C284 C281 1.481 . S
C284 C285 1.297 . S
C284 H298 0.950 . S
C285 C284 1.297 . S
C285 C286 1.479 . S
C285 H299 0.950 . S
C286 C285 1.479 . S
C286 C287 1.375 . S
C286 C292 1.404 . S
C287 C286 1.375 . S
C287 C288 1.369 . S
C287 H300 0.950 . S
C288 C287 1.369 . S
C288 C289 1.392 . S
C288 H301 0.951 . S
C289 C288 1.392 . S
C289 C291 1.384 . S
H290 C292 0.949 . S
C291 C289 1.384 . S
C291 C292 1.385 . S
C291 H293 0.950 . S
C292 C286 1.404 . S
C292 H290 0.949 . S
C292 C291 1.385 . S
H293 C291 0.950 . S
H294 C278 0.951 . S
H295 C280 0.951 . S
H296 C282 0.951 . S
H297 C283 0.950 . S
H298 C284 0.950 . S
H299 C285 0.950 . S
H300 C287 0.950 . S
H301 C288 0.951 . S
C302 C303 1.386 . S
C302 C304 1.383 . S
C302 H318 0.951 . S
C303 C302 1.386 . S
C303 C307 1.383 . S
C304 C302 1.383 . S
C304 C305 1.402 . S
C304 H319 0.951 . S
C305 C304 1.402 . S
C305 C306 1.375 . S
C305 C308 1.481 . S
C306 C305 1.375 . S
C306 C307 1.367 . S
C306 H320 0.951 . S
C307 C303 1.383 . S
C307 C306 1.367 . S
C307 H321 0.950 . S
C308 C305 1.481 . S
C308 C309 1.297 . S
C308 H322 0.950 . S
C309 C308 1.297 . S
C309 C310 1.479 . S
C309 H323 0.950 . S
C310 C309 1.479 . S
C310 C311 1.375 . S
C310 C316 1.404 . S
C311 C310 1.375 . S
C311 C312 1.369 . S
C311 H324 0.950 . S
C312 C311 1.369 . S
C312 C313 1.392 . S
C312 H325 0.951 . S
C313 C312 1.392 . S
C313 C315 1.384 . S
H314 C316 0.949 . S
C315 C313 1.384 . S
C315 C316 1.385 . S
C315 H317 0.950 . S
C316 C310 1.404 . S
C316 H314 0.949 . S
C316 C315 1.385 . S
H317 C315 0.950 . S
H318 C302 0.951 . S
H319 C304 0.951 . S
H320 C306 0.951 . S
H321 C307 0.950 . S
H322 C308 0.950 . S
H323 C309 0.950 . S
H324 C311 0.950 . S
H325 C312 0.951 . S
C326 C327 1.386 . S
C326 C328 1.383 . S
C326 H342 0.951 . S
C327 C326 1.386 . S
C327 C331 1.383 . S
C328 C326 1.383 . S
C328 C329 1.402 . S
C328 H343 0.951 . S
C329 C328 1.402 . S
C329 C330 1.375 . S
C329 C332 1.481 . S
C330 C329 1.375 . S
C330 C331 1.367 . S
C330 H344 0.951 . S
C331 C327 1.383 . S
C331 C330 1.367 . S
C331 H345 0.950 . S
C332 C329 1.481 . S
C332 C333 1.297 . S
C332 H346 0.950 . S
C333 C332 1.297 . S
C333 C334 1.479 . S
C333 H347 0.950 . S
C334 C333 1.479 . S
C334 C335 1.375 . S
C334 C340 1.404 . S
C335 C334 1.375 . S
C335 C336 1.369 . S
C335 H348 0.950 . S
C336 C335 1.369 . S
C336 C337 1.392 . S
C336 H349 0.951 . S
C337 C336 1.392 . S
C337 C339 1.384 . S
H338 C340 0.949 . S
C339 C337 1.384 . S
C339 C340 1.385 . S
C339 H341 0.950 . S
C340 C334 1.404 . S
C340 H338 0.949 . S
C340 C339 1.385 . S
H341 C339 0.950 . S
H342 C326 0.951 . S
H343 C328 0.951 . S
H344 C330 0.951 . S
H345 C331 0.950 . S
H346 C332 0.950 . S
H347 C333 0.950 . S
H348 C335 0.950 . S
H349 C336 0.951 . S
C350 C351 1.386 . S
C350 C352 1.383 . S
C350 H366 0.951 . S
C351 C350 1.386 . S
C351 C355 1.383 . S
C352 C350 1.383 . S
C352 C353 1.402 . S
C352 H367 0.951 . S
C353 C352 1.402 . S
C353 C354 1.375 . S
C353 C356 1.481 . S
C354 C353 1.375 . S
C354 C355 1.367 . S
C354 H368 0.951 . S
C355 C351 1.383 . S
C355 C354 1.367 . S
C355 H369 0.950 . S
C356 C353 1.481 . S
C356 C357 1.297 . S
C356 H370 0.950 . S
C357 C356 1.297 . S
C357 C358 1.479 . S
C357 H371 0.950 . S
C358 C357 1.479 . S
C358 C359 1.375 . S
C358 C364 1.404 . S
C359 C358 1.375 . S
C359 C360 1.369 . S
C359 H372 0.950 . S
C360 C359 1.369 . S
C360 C361 1.392 . S
C360 H373 0.951 . S
C361 C360 1.392 . S
C361 C363 1.384 . S
H362 C364 0.949 . S
C363 C361 1.384 . S
C363 C364 1.385 . S
C363 H365 0.950 . S
C364 C358 1.404 . S
C364 H362 0.949 . S
C364 C363 1.385 . S
H365 C363 0.950 . S
H366 C350 0.951 . S
H367 C352 0.951 . S
H368 C354 0.951 . S
H369 C355 0.950 . S
H370 C356 0.950 . S
H371 C357 0.950 . S
H372 C359 0.950 . S
H373 C360 0.951 . S
C374 C375 1.386 . S
C374 C376 1.383 . S
C374 H390 0.951 . S
C375 C374 1.386 . S
C375 C379 1.383 . S
C376 C374 1.383 . S
C376 C377 1.402 . S
C376 H391 0.951 . S
C377 C376 1.402 . S
C377 C378 1.375 . S
C377 C380 1.481 . S
C378 C377 1.375 . S
C378 C379 1.367 . S
C378 H392 0.951 . S
C379 C375 1.383 . S
C379 C378 1.367 . S
C379 H393 0.950 . S
C380 C377 1.481 . S
C380 C381 1.297 . S
C380 H394 0.950 . S
C381 C380 1.297 . S
C381 C382 1.479 . S
C381 H395 0.950 . S
C382 C381 1.479 . S
C382 C383 1.375 . S
C382 C388 1.404 . S
C383 C382 1.375 . S
C383 C384 1.369 . S
C383 H396 0.950 . S
C384 C383 1.369 . S
C384 C385 1.392 . S
C384 H397 0.951 . S
C385 C384 1.392 . S
C385 C387 1.384 . S
H386 C388 0.949 . S
C387 C385 1.384 . S
C387 C388 1.385 . S
C387 H389 0.950 . S
C388 C382 1.404 . S
C388 H386 0.949 . S
C388 C387 1.385 . S
H389 C387 0.950 . S
H390 C374 0.951 . S
H391 C376 0.951 . S
H392 C378 0.951 . S
H393 C379 0.950 . S
H394 C380 0.950 . S
H395 C381 0.950 . S
H396 C383 0.950 . S
H397 C384 0.951 . S
C398 C399 1.386 1_665 S
C398 C400 1.383 . S
C398 H414 0.951 . S
C399 C398 1.386 1_445 S
C399 C403 1.383 . S
C400 C398 1.383 . S
C400 C401 1.402 1_655 S
C400 H415 0.951 . S
C401 C400 1.402 1_455 S
C401 C402 1.375 . S
C401 C404 1.481 . S
C402 C401 1.375 . S
C402 C403 1.367 1_565 S
C402 H416 0.951 . S
C403 C399 1.383 . S
C403 C402 1.367 1_545 S
C403 H417 0.950 . S
C404 C401 1.481 . S
C404 C405 1.297 1_455 S
C404 H418 0.950 . S
C405 C404 1.297 1_655 S
C405 C406 1.479 . S
C405 H419 0.950 . S
C406 C405 1.479 . S
C406 C407 1.375 . S
C406 C412 1.404 1_655 S
C407 C406 1.375 . S
C407 C408 1.369 . S
C407 H420 0.950 . S
C408 C407 1.369 . S
C408 C409 1.407 . S
C408 H421 0.951 . S
C409 C408 1.407 . S
C409 C411 1.370 1_655 S
H410 C412 0.949 . S
C411 C409 1.370 1_455 S
C411 C412 1.385 . S
C411 H413 0.950 . S
C412 C406 1.404 1_455 S
C412 H410 0.949 . S
C412 C411 1.385 . S
H413 C411 0.950 . S
H414 C398 0.951 . S
H415 C400 0.951 . S
H416 C402 0.951 . S
H417 C403 0.950 . S
H418 C404 0.950 . S
H419 C405 0.950 . S
H420 C407 0.950 . S
H421 C408 0.951 . S
C422 C423 1.386 1_565 S
C422 C424 1.383 . S
C422 H438 0.951 . S
C423 C422 1.386 1_545 S
C423 C427 1.383 1_455 S
C424 C422 1.383 . S
C424 C425 1.402 1_465 S
C424 H439 0.951 . S
C425 C424 1.402 1_645 S
C425 C426 1.375 . S
C425 C428 1.481 . S
C426 C425 1.375 . S
C426 C427 1.367 . S
C426 H440 0.951 . S
C427 C423 1.383 1_655 S
C427 C426 1.367 . S
C427 H441 0.950 . S
C428 C425 1.481 . S
C428 C429 1.297 1_545 S
C428 H442 0.950 . S
C429 C428 1.297 1_565 S
C429 C430 1.479 . S
C429 H443 0.950 1_655 S
C430 C429 1.479 . S
C430 C431 1.375 1_655 S
C430 C436 1.404 1_565 S
C431 C430 1.375 1_455 S
C431 C432 1.369 . S
C431 H444 0.950 . S
C432 C431 1.369 . S
C432 C433 1.392 . S
C432 H445 0.951 . S
C433 C432 1.392 . S
C433 C435 1.384 1_465 S
H434 C436 0.949 . S
C435 C433 1.384 1_645 S
C435 C436 1.385 . S
C435 H437 0.950 . S
C436 C430 1.404 1_545 S
C436 H434 0.949 . S
C436 C435 1.385 . S
H437 C435 0.950 . S
H438 C422 0.951 . S
H439 C424 0.951 . S
H440 C426 0.951 . S
H441 C427 0.950 . S
H442 C428 0.950 . S
H443 C429 0.950 1_455 S
H444 C431 0.950 . S
H445 C432 0.951 . S
C446 C447 1.386 . S
C446 C448 1.383 . S
C446 H462 0.951 . S
C447 C446 1.386 . S
C447 C451 1.383 . S
C448 C446 1.383 . S
C448 C449 1.402 . S
C448 H463 0.951 . S
C449 C448 1.402 . S
C449 C450 1.375 . S
C449 C452 1.481 . S
C450 C449 1.375 . S
C450 C451 1.367 . S
C450 H464 0.951 . S
C451 C447 1.383 . S
C451 C450 1.367 . S
C451 H465 0.950 . S
C452 C449 1.481 . S
C452 C453 1.297 . S
C452 H466 0.950 . S
C453 C452 1.297 . S
C453 C454 1.479 . S
C453 H467 0.950 . S
C454 C453 1.479 . S
C454 C455 1.375 . S
C454 C460 1.404 . S
C455 C454 1.375 . S
C455 C456 1.369 . S
C455 H468 0.950 . S
C456 C455 1.369 . S
C456 C457 1.392 . S
C456 H469 0.951 . S
C457 C456 1.392 . S
C457 C459 1.384 . S
H458 C460 0.949 . S
C459 C457 1.384 . S
C459 C460 1.385 . S
C459 H461 0.950 . S
C460 C454 1.404 . S
C460 H458 0.949 . S
C460 C459 1.385 . S
H461 C459 0.950 . S
H462 C446 0.951 . S
H463 C448 0.951 . S
H464 C450 0.951 . S
H465 C451 0.950 . S
H466 C452 0.950 . S
H467 C453 0.950 . S
H468 C455 0.950 . S
H469 C456 0.951 . S
C470 C471 1.386 . S
C470 C472 1.383 . S
C470 H486 0.951 . S
C471 C470 1.386 . S
C471 C475 1.383 . S
C472 C470 1.383 . S
C472 C473 1.402 . S
C472 H487 0.951 . S
C473 C472 1.402 . S
C473 C474 1.375 . S
C473 C476 1.481 . S
C474 C473 1.375 . S
C474 C475 1.367 . S
C474 H488 0.951 . S
C475 C471 1.383 . S
C475 C474 1.367 . S
C475 H489 0.950 . S
C476 C473 1.481 . S
C476 C477 1.297 . S
C476 H490 0.950 . S
C477 C476 1.297 . S
C477 C478 1.479 . S
C477 H491 0.950 . S
C478 C477 1.479 . S
C478 C479 1.375 . S
C478 C484 1.404 . S
C479 C478 1.375 . S
C479 C480 1.369 . S
C479 H492 0.950 . S
C480 C479 1.369 . S
C480 C481 1.392 . S
C480 H493 0.951 . S
C481 C480 1.392 . S
C481 C483 1.384 . S
H482 C484 0.949 . S
C483 C481 1.384 . S
C483 C484 1.385 . S
C483 H485 0.950 . S
C484 C478 1.404 . S
C484 H482 0.949 . S
C484 C483 1.385 . S
H485 C483 0.950 . S
H486 C470 0.951 . S
H487 C472 0.951 . S
H488 C474 0.951 . S
H489 C475 0.950 . S
H490 C476 0.950 . S
H491 C477 0.950 . S
H492 C479 0.950 . S
H493 C480 0.951 . S
C217 C168 1.412 . S
C207 C21 1.435 . S
C231 C19 1.405 1_556 S
C241 C128 1.419 . S
C255 C18 1.383 . S
C265 C181 1.401 . S
C279 C20 1.410 . S
C289 C141 1.441 . S
C303 C44 1.457 . S
C313 C88 1.444 . S
C327 C42 1.415 . S
C337 C48 1.432 . S
C361 C101 1.389 . S
C351 C41 1.380 . S
C385 C61 1.439 . S
C375 C43 1.411 . S
C399 C16 1.486 . S
C409 C67 1.487 1_665 S
C423 C17 1.444 . S
C433 C107 1.435 . S
C457 C147 1.492 . S
C447 C39 1.486 . S
C471 C40 1.445 . S
C481 C187 1.409 . S
