# Generated by pormake.
# Topology ocu, (6,8)-cn, num edge types: 1
# Building blocks:
#     Node 0, Type 0, BuildingBlock: VOLQOD_clean_sbu_1, # of connection points: 6
#     Node 1, Type 0, BuildingBlock: VOLQOD_clean_sbu_1, # of connection points: 6
#     Node 2, Type 0, BuildingBlock: VOLQOD_clean_sbu_1, # of connection points: 6
#     Node 3, Type 0, BuildingBlock: VOLQOD_clean_sbu_1, # of connection points: 6
#     Node 4, Type 0, BuildingBlock: VOLQOD_clean_sbu_1, # of connection points: 6
#     Node 5, Type 0, BuildingBlock: VOLQOD_clean_sbu_1, # of connection points: 6
#     Node 6, Type 0, BuildingBlock: VOLQOD_clean_sbu_1, # of connection points: 6
#     Node 7, Type 0, BuildingBlock: VOLQOD_clean_sbu_1, # of connection points: 6
#     Node 8, Type 1, BuildingBlock: GIZVER_clean_sbu_0, # of connection points: 8
#     Node 9, Type 1, BuildingBlock: GIZVER_clean_sbu_0, # of connection points: 8
#     Node 10, Type 1, BuildingBlock: GIZVER_clean_sbu_0, # of connection points: 8
#     Node 11, Type 1, BuildingBlock: GIZVER_clean_sbu_0, # of connection points: 8
#     Node 12, Type 1, BuildingBlock: GIZVER_clean_sbu_0, # of connection points: 8
#     Node 13, Type 1, BuildingBlock: GIZVER_clean_sbu_0, # of connection points: 8
#     Edge 14, Type (0, 1), BuildingBlock: ZUJKAS_clean_linker_0, # of connection points: 2
#     Edge 15, Type (0, 1), BuildingBlock: ZUJKAS_clean_linker_0, # of connection points: 2
#     Edge 16, Type (0, 1), BuildingBlock: ZUJKAS_clean_linker_0, # of connection points: 2
#     Edge 17, Type (0, 1), BuildingBlock: ZUJKAS_clean_linker_0, # of connection points: 2
#     Edge 18, Type (0, 1), BuildingBlock: ZUJKAS_clean_linker_0, # of connection points: 2
#     Edge 19, Type (0, 1), BuildingBlock: ZUJKAS_clean_linker_0, # of connection points: 2
#     Edge 20, Type (0, 1), BuildingBlock: ZUJKAS_clean_linker_0, # of connection points: 2
#     Edge 21, Type (0, 1), BuildingBlock: ZUJKAS_clean_linker_0, # of connection points: 2
#     Edge 22, Type (0, 1), BuildingBlock: ZUJKAS_clean_linker_0, # of connection points: 2
#     Edge 23, Type (0, 1), BuildingBlock: ZUJKAS_clean_linker_0, # of connection points: 2
#     Edge 24, Type (0, 1), BuildingBlock: ZUJKAS_clean_linker_0, # of connection points: 2
#     Edge 25, Type (0, 1), BuildingBlock: ZUJKAS_clean_linker_0, # of connection points: 2
#     Edge 26, Type (0, 1), BuildingBlock: ZUJKAS_clean_linker_0, # of connection points: 2
#     Edge 27, Type (0, 1), BuildingBlock: ZUJKAS_clean_linker_0, # of connection points: 2
#     Edge 28, Type (0, 1), BuildingBlock: ZUJKAS_clean_linker_0, # of connection points: 2
#     Edge 29, Type (0, 1), BuildingBlock: ZUJKAS_clean_linker_0, # of connection points: 2
#     Edge 30, Type (0, 1), BuildingBlock: ZUJKAS_clean_linker_0, # of connection points: 2
#     Edge 31, Type (0, 1), BuildingBlock: ZUJKAS_clean_linker_0, # of connection points: 2
#     Edge 32, Type (0, 1), BuildingBlock: ZUJKAS_clean_linker_0, # of connection points: 2
#     Edge 33, Type (0, 1), BuildingBlock: ZUJKAS_clean_linker_0, # of connection points: 2
#     Edge 34, Type (0, 1), BuildingBlock: ZUJKAS_clean_linker_0, # of connection points: 2
#     Edge 35, Type (0, 1), BuildingBlock: ZUJKAS_clean_linker_0, # of connection points: 2
#     Edge 36, Type (0, 1), BuildingBlock: ZUJKAS_clean_linker_0, # of connection points: 2
#     Edge 37, Type (0, 1), BuildingBlock: ZUJKAS_clean_linker_0, # of connection points: 2
#     Edge 38, Type (0, 1), BuildingBlock: ZUJKAS_clean_linker_0, # of connection points: 2
#     Edge 39, Type (0, 1), BuildingBlock: ZUJKAS_clean_linker_0, # of connection points: 2
#     Edge 40, Type (0, 1), BuildingBlock: ZUJKAS_clean_linker_0, # of connection points: 2
#     Edge 41, Type (0, 1), BuildingBlock: ZUJKAS_clean_linker_0, # of connection points: 2
#     Edge 42, Type (0, 1), BuildingBlock: ZUJKAS_clean_linker_0, # of connection points: 2
#     Edge 43, Type (0, 1), BuildingBlock: ZUJKAS_clean_linker_0, # of connection points: 2
#     Edge 44, Type (0, 1), BuildingBlock: ZUJKAS_clean_linker_0, # of connection points: 2
#     Edge 45, Type (0, 1), BuildingBlock: ZUJKAS_clean_linker_0, # of connection points: 2
#     Edge 46, Type (0, 1), BuildingBlock: ZUJKAS_clean_linker_0, # of connection points: 2
#     Edge 47, Type (0, 1), BuildingBlock: ZUJKAS_clean_linker_0, # of connection points: 2
#     Edge 48, Type (0, 1), BuildingBlock: ZUJKAS_clean_linker_0, # of connection points: 2
#     Edge 49, Type (0, 1), BuildingBlock: ZUJKAS_clean_linker_0, # of connection points: 2
#     Edge 50, Type (0, 1), BuildingBlock: ZUJKAS_clean_linker_0, # of connection points: 2
#     Edge 51, Type (0, 1), BuildingBlock: ZUJKAS_clean_linker_0, # of connection points: 2
#     Edge 52, Type (0, 1), BuildingBlock: ZUJKAS_clean_linker_0, # of connection points: 2
#     Edge 53, Type (0, 1), BuildingBlock: ZUJKAS_clean_linker_0, # of connection points: 2
#     Edge 54, Type (0, 1), BuildingBlock: ZUJKAS_clean_linker_0, # of connection points: 2
#     Edge 55, Type (0, 1), BuildingBlock: ZUJKAS_clean_linker_0, # of connection points: 2
#     Edge 56, Type (0, 1), BuildingBlock: ZUJKAS_clean_linker_0, # of connection points: 2
#     Edge 57, Type (0, 1), BuildingBlock: ZUJKAS_clean_linker_0, # of connection points: 2
#     Edge 58, Type (0, 1), BuildingBlock: ZUJKAS_clean_linker_0, # of connection points: 2
#     Edge 59, Type (0, 1), BuildingBlock: ZUJKAS_clean_linker_0, # of connection points: 2
#     Edge 60, Type (0, 1), BuildingBlock: ZUJKAS_clean_linker_0, # of connection points: 2
#     Edge 61, Type (0, 1), BuildingBlock: ZUJKAS_clean_linker_0, # of connection points: 2
# Relax obj value: 0.252
# Max RMSD: 0.353
# Mean RMSD: 0.250
data_MOF--net-ocu--node1-VOLQOD_clean_sbu_1--node2-GIZVER_clean_sbu_0--edge1-ZUJKAS_clean_linker_0
_symmetry_space_group_name_H-M    P1
_symmetry_Int_Tables_number       1
_symmetry_cell_setting            triclinic
loop_
_symmetry_equiv_pos_as_xyz
'x, y, z'
_cell_length_a     52.710795
_cell_length_b     55.213829
_cell_length_c     38.675714
_cell_angle_alpha  88.699603
_cell_angle_beta   90.670421
_cell_angle_gamma 99.46261
loop_
_atom_site_label
_atom_site_type_symbol
_atom_site_fract_x
_atom_site_fract_y
_atom_site_fract_z
_atom_type_partial_charge
O0 O 0.29491 0.28659 0.28251 0.0
Zn1 Zn 0.26725 0.2604 0.30241 0.0
O2 O 0.24882 0.24099 0.26455 0.0
Zn3 Zn 0.21248 0.24373 0.26575 0.0
Zn4 Zn 0.26281 0.25273 0.2192 0.0
Zn5 Zn 0.25192 0.20641 0.27037 0.0
O6 O 0.18996 0.21103 0.27299 0.0
O7 O 0.21759 0.18486 0.27764 0.0
O8 O 0.24296 0.27803 0.32989 0.0
O9 O 0.20537 0.26535 0.30428 0.0
O10 O 0.20151 0.25962 0.22223 0.0
O11 O 0.23651 0.26711 0.18983 0.0
O12 O 0.27655 0.22605 0.1931 0.0
O13 O 0.28537 0.23858 0.33452 0.0
O14 O 0.26913 0.19413 0.22954 0.0
O15 O 0.27397 0.2018 0.31161 0.0
C16 C 0.30282 0.29186 0.25181 0.0
C17 C 0.19464 0.18931 0.27772 0.0
C18 C 0.21289 0.26837 0.19473 0.0
C19 C 0.21877 0.27793 0.32721 0.0
C20 C 0.27793 0.20374 0.20097 0.0
C21 C 0.28606 0.21557 0.33441 0.0
O22 O 0.29241 0.28006 0.22599 0.0
O23 O 0.74972 0.21533 0.20642 0.0
Zn24 Zn 0.77054 0.24024 0.23907 0.0
O25 O 0.7475 0.25744 0.26598 0.0
Zn26 Zn 0.75268 0.29231 0.25449 0.0
Zn27 Zn 0.71237 0.244 0.25527 0.0
Zn28 Zn 0.75246 0.25349 0.31546 0.0
O29 O 0.76282 0.31346 0.29594 0.0
O30 O 0.76654 0.28559 0.33709 0.0
O31 O 0.79607 0.26504 0.2115 0.0
O32 O 0.78203 0.29991 0.22239 0.0
O33 O 0.72274 0.30219 0.22853 0.0
O34 O 0.69594 0.26689 0.22553 0.0
O35 O 0.69107 0.23568 0.29737 0.0
O36 O 0.79127 0.22179 0.27223 0.0
O37 O 0.71984 0.23829 0.34003 0.0
O38 O 0.77856 0.23197 0.32383 0.0
C39 C 0.726 0.20568 0.20787 0.0
C40 C 0.76903 0.30787 0.32668 0.0
C41 C 0.70199 0.28952 0.21753 0.0
C42 C 0.79754 0.28824 0.20753 0.0
C43 C 0.69672 0.2333 0.32915 0.0
C44 C 0.79243 0.22077 0.30521 0.0
O45 O 0.71052 0.21378 0.2279 0.0
O46 O 0.71943 0.72146 0.26413 0.0
Zn47 Zn 0.74889 0.74694 0.28154 0.0
O48 O 0.76861 0.76355 0.24166 0.0
Zn49 Zn 0.80412 0.75818 0.24419 0.0
Zn50 Zn 0.75417 0.75096 0.19765 0.0
Zn51 Zn 0.7683 0.79875 0.24189 0.0
O52 O 0.82877 0.78945 0.2506 0.0
O53 O 0.80353 0.81783 0.25032 0.0
O54 O 0.77196 0.72943 0.31332 0.0
O55 O 0.8092 0.73756 0.28574 0.0
O56 O 0.81405 0.74009 0.20331 0.0
O57 O 0.77846 0.7333 0.17144 0.0
O58 O 0.74263 0.77734 0.1672 0.0
O59 O 0.73277 0.77173 0.30928 0.0
O60 O 0.75312 0.81092 0.19805 0.0
O61 O 0.74649 0.80668 0.28066 0.0
C62 C 0.71134 0.71625 0.23354 0.0
C63 C 0.8257 0.81169 0.25338 0.0
C64 C 0.80177 0.73077 0.17697 0.0
C65 C 0.79572 0.72758 0.31087 0.0
C66 C 0.74335 0.80029 0.17097 0.0
C67 C 0.73374 0.79489 0.30521 0.0
O68 O 0.72286 0.72659 0.20707 0.0
O69 O 0.27808 0.78 0.30457 0.0
Zn70 Zn 0.25509 0.75677 0.27232 0.0
O71 O 0.23855 0.77511 0.23634 0.0
Zn72 Zn 0.20128 0.76741 0.23903 0.0
Zn73 Zn 0.2483 0.80989 0.24323 0.0
Zn74 Zn 0.24907 0.76764 0.1901 0.0
O75 O 0.18556 0.75116 0.19599 0.0
O76 O 0.21923 0.74983 0.16263 0.0
O77 O 0.22816 0.73421 0.30029 0.0
O78 O 0.19192 0.74286 0.27685 0.0
O79 O 0.18483 0.79647 0.2514 0.0
O80 O 0.21888 0.82541 0.25812 0.0
O81 O 0.2627 0.82738 0.20067 0.0
O82 O 0.27751 0.73526 0.24976 0.0
O83 O 0.2658 0.79792 0.16363 0.0
O84 O 0.27464 0.74486 0.19387 0.0
C85 C 0.28463 0.8033 0.30294 0.0
C86 C 0.19517 0.74466 0.16829 0.0
C87 C 0.19475 0.81821 0.25954 0.0
C88 C 0.20366 0.73113 0.29875 0.0
C89 C 0.26919 0.82052 0.1714 0.0
C90 C 0.28371 0.73301 0.21838 0.0
O91 O 0.2751 0.81619 0.28011 0.0
O92 O 0.25421 0.70905 0.70797 0.0
Zn93 Zn 0.27635 0.73373 0.73955 0.0
O94 O 0.25494 0.7534 0.76561 0.0
Zn95 Zn 0.26474 0.78815 0.75463 0.0
Zn96 Zn 0.21923 0.74389 0.75305 0.0
Zn97 Zn 0.258 0.74844 0.81555 0.0
O98 O 0.27793 0.80723 0.79656 0.0
O99 O 0.27183 0.78003 0.84001 0.0
O100 O 0.30251 0.756 0.70987 0.0
O101 O 0.29313 0.7929 0.72047 0.0
O102 O 0.23592 0.80288 0.73285 0.0
O103 O 0.20398 0.77134 0.73213 0.0
O104 O 0.19784 0.72934 0.7927 0.0
O105 O 0.29664 0.7155 0.77321 0.0
O106 O 0.22498 0.73084 0.8371 0.0
O107 O 0.28373 0.72657 0.8242 0.0
C108 C 0.22999 0.70579 0.70221 0.0
C109 C 0.27956 0.80181 0.8286 0.0
C110 C 0.21286 0.79369 0.72524 0.0
C111 C 0.30638 0.77923 0.70504 0.0
C112 C 0.20256 0.72467 0.82422 0.0
C113 C 0.29745 0.71482 0.80618 0.0
O114 O 0.21556 0.71823 0.71775 0.0
O115 O 0.2198 0.21816 0.7516 0.0
Zn116 Zn 0.24739 0.24168 0.77682 0.0
O117 O 0.27114 0.26086 0.74289 0.0
Zn118 Zn 0.30622 0.25681 0.75341 0.0
Zn119 Zn 0.26312 0.25018 0.69559 0.0
Zn120 Zn 0.26906 0.2956 0.74466 0.0
O121 O 0.32923 0.28881 0.76164 0.0
O122 O 0.30325 0.31631 0.7547 0.0
O123 O 0.26706 0.22179 0.81022 0.0
O124 O 0.30755 0.23642 0.79626 0.0
O125 O 0.32074 0.23863 0.71618 0.0
O126 O 0.2914 0.2347 0.67423 0.0
O127 O 0.2525 0.27691 0.66473 0.0
O128 O 0.22942 0.26478 0.8051 0.0
O129 O 0.25381 0.30763 0.70097 0.0
O130 O 0.24611 0.3014 0.78309 0.0
C131 C 0.2166 0.21369 0.71946 0.0
C132 C 0.32537 0.31096 0.76154 0.0
C133 C 0.313 0.23096 0.68648 0.0
C134 C 0.29122 0.22298 0.81533 0.0
C135 C 0.24852 0.29847 0.67132 0.0
C136 C 0.23152 0.28817 0.80455 0.0
O137 O 0.23206 0.22453 0.6969 0.0
O138 O 0.78375 0.27361 0.80223 0.0
Zn139 Zn 0.76016 0.25064 0.77117 0.0
O140 O 0.73855 0.26833 0.74117 0.0
Zn141 Zn 0.70242 0.25676 0.75061 0.0
Zn142 Zn 0.74655 0.30305 0.75049 0.0
Zn143 Zn 0.74478 0.26345 0.69218 0.0
O144 O 0.68517 0.23837 0.70996 0.0
O145 O 0.71308 0.2462 0.66697 0.0
O146 O 0.73843 0.22568 0.80163 0.0
O147 O 0.69877 0.23218 0.78975 0.0
O148 O 0.68396 0.2844 0.76388 0.0
O149 O 0.71527 0.31665 0.76362 0.0
O150 O 0.76335 0.32176 0.70984 0.0
O151 O 0.78129 0.2316 0.74261 0.0
O152 O 0.76179 0.29471 0.668 0.0
O153 O 0.76992 0.24045 0.68889 0.0
C154 C 0.78562 0.2966 0.80696 0.0
C155 C 0.69133 0.2359 0.67862 0.0
C156 C 0.69184 0.30722 0.7683 0.0
C157 C 0.7143 0.22094 0.80666 0.0
C158 C 0.76845 0.31639 0.67916 0.0
C159 C 0.7828 0.22925 0.71007 0.0
O160 O 0.77199 0.30954 0.78948 0.0
O161 O 0.79442 0.78424 0.77669 0.0
Zn162 Zn 0.76693 0.75779 0.797 0.0
O163 O 0.7476 0.73935 0.7588 0.0
Zn164 Zn 0.71162 0.7431 0.76101 0.0
Zn165 Zn 0.76143 0.75097 0.71343 0.0
Zn166 Zn 0.74954 0.70455 0.76313 0.0
O167 O 0.6889 0.71127 0.77344 0.0
O168 O 0.71522 0.68381 0.77385 0.0
O169 O 0.7437 0.776 0.82521 0.0
O170 O 0.70648 0.76746 0.79704 0.0
O171 O 0.69942 0.75566 0.71576 0.0
O172 O 0.73417 0.76271 0.68275 0.0
O173 O 0.77718 0.72494 0.68871 0.0
O174 O 0.78486 0.73506 0.8283 0.0
O175 O 0.76519 0.69172 0.72157 0.0
O176 O 0.77357 0.6996 0.8016 0.0
C177 C 0.80087 0.79069 0.74572 0.0
C178 C 0.69286 0.68925 0.77748 0.0
C179 C 0.71033 0.76311 0.68737 0.0
C180 C 0.72024 0.77862 0.82092 0.0
C181 C 0.77651 0.70207 0.69492 0.0
C182 C 0.78595 0.71228 0.82523 0.0
O183 O 0.78962 0.77954 0.7199 0.0
Co184 Co 0.02719 0.95899 0.51228 0.0
Co185 Co 0.03463 0.97977 0.57209 0.0
Co186 Co 0.99366 0.0039 0.53063 0.0
O187 O 0.02619 0.99083 0.52924 0.0
H188 H 0.04025 0.00289 0.52076 0.0
O189 O 0.96145 0.01741 0.53109 0.0
Co190 Co 0.96096 0.05083 0.54149 0.0
Co191 Co 0.95443 0.02498 0.48528 0.0
H192 H 0.94731 0.00614 0.541 0.0
O193 O 0.0679 0.97663 0.5829 0.0
O194 O 0.03727 0.94833 0.559 0.0
O195 O 0.00929 0.97799 0.60762 0.0
O196 O 0.97802 0.9813 0.56956 0.0
O197 O 0.00954 0.02801 0.56458 0.0
O198 O 0.95699 0.08079 0.55206 0.0
O199 O 0.92706 0.04656 0.54961 0.0
O200 O 0.99742 0.05965 0.53691 0.0
O201 O 0.00933 0.02641 0.49194 0.0
O202 O 0.97983 0.02216 0.45051 0.0
O203 O 0.95482 0.05812 0.49161 0.0
O204 O 0.92244 0.0301 0.4709 0.0
C205 C 0.05397 0.9429 0.48847 0.0
C206 C 0.97635 0.95676 0.50104 0.0
C207 C 0.9856 0.97559 0.59979 0.0
C208 C 0.06019 0.95443 0.57231 0.0
C209 C 0.93337 0.06987 0.55605 0.0
C210 C 0.01205 0.051 0.55879 0.0
C211 C 0.00307 0.02771 0.46007 0.0
C212 C 0.93244 0.05282 0.47637 0.0
O213 O 0.03126 0.93061 0.49508 0.0
O214 O 0.06022 0.96539 0.49903 0.0
O215 O 0.97756 0.97977 0.49676 0.0
O216 O 0.99189 0.94845 0.52181 0.0
Co217 Co 0.54249 0.95777 0.9907 0.0
Co218 Co 0.54246 0.97551 0.05227 0.0
Co219 Co 0.51156 0.00721 0.99924 0.0
O220 O 0.5413 0.9898 0.00843 0.0
H221 H 0.55738 0.00072 0.00453 0.0
O222 O 0.48182 0.02447 0.99025 0.0
Co223 Co 0.48025 0.05638 0.0077 0.0
Co224 Co 0.48059 0.03865 0.94685 0.0
H225 H 0.46578 0.01346 0.99406 0.0
O226 O 0.5739 0.9712 0.07177 0.0
O227 O 0.54781 0.94512 0.03804 0.0
O228 O 0.51114 0.97144 0.07797 0.0
O229 O 0.49028 0.99128 0.03881 0.0
O230 O 0.52864 0.03393 0.02937 0.0
O231 O 0.47543 0.08493 0.02485 0.0
O232 O 0.44608 0.05105 0.01638 0.0
O233 O 0.51664 0.06604 0.00211 0.0
O234 O 0.53296 0.02316 0.95969 0.0
O235 O 0.51176 0.04288 0.92084 0.0
O236 O 0.47356 0.0687 0.96019 0.0
O237 O 0.44896 0.04051 0.92736 0.0
C238 C 0.57084 0.93994 0.97255 0.0
C239 C 0.48948 0.95823 0.97912 0.0
C240 C 0.49086 0.97873 0.06687 0.0
C241 C 0.5689 0.95036 0.05614 0.0
C242 C 0.45177 0.07362 0.02689 0.0
C243 C 0.53331 0.05639 0.01944 0.0
C244 C 0.53218 0.03572 0.93168 0.0
C245 C 0.4526 0.06172 0.9422 0.0
O246 O 0.54696 0.92914 0.97369 0.0
O247 O 0.57683 0.96254 0.98288 0.0
O248 O 0.49424 0.98061 0.96898 0.0
O249 O 0.5063 0.94851 0.99582 0.0
Co250 Co 0.03948 0.44909 0.9929 0.0
Co251 Co 0.04721 0.4727 0.05075 0.0
Co252 Co 0.00694 0.49693 0.00387 0.0
O253 O 0.03917 0.48237 0.00613 0.0
H254 H 0.05362 0.49352 0.9967 0.0
O255 O 0.97462 0.51131 0.00123 0.0
Co256 Co 0.9743 0.54461 0.01351 0.0
Co257 Co 0.96619 0.52016 0.95587 0.0
H258 H 0.96026 0.50027 0.0111 0.0
O259 O 0.0806 0.4694 0.06332 0.0
O260 O 0.05025 0.44068 0.04036 0.0
O261 O 0.02042 0.46984 0.0843 0.0
O262 O 0.9911 0.47852 0.04609 0.0
O263 O 0.02476 0.52483 0.03216 0.0
O264 O 0.97095 0.57459 0.02603 0.0
O265 O 0.94113 0.54033 0.02727 0.0
O266 O 0.00919 0.55343 0.0015 0.0
O267 O 0.02263 0.51521 0.96168 0.0
O268 O 0.99355 0.5233 0.92265 0.0
O269 O 0.96411 0.5524 0.96586 0.0
O270 O 0.93239 0.52474 0.94411 0.0
C271 C 0.06595 0.43018 0.97234 0.0
C272 C 0.98686 0.44711 0.98597 0.0
C273 C 0.99721 0.47 0.07548 0.0
C274 C 0.07311 0.44695 0.05374 0.0
C275 C 0.94757 0.56384 0.03248 0.0
C276 C 0.02684 0.54686 0.02039 0.0
C277 C 0.01674 0.52347 0.93206 0.0
C278 C 0.94091 0.54697 0.95368 0.0
O279 O 0.04269 0.41935 0.97924 0.0
O280 O 0.07263 0.45351 0.97882 0.0
O281 O 0.98928 0.46941 0.97543 0.0
O282 O 0.00429 0.43986 0.00466 0.0
Co283 Co 0.5244 0.45833 0.01218 0.0
Co284 Co 0.53795 0.4754 0.0733 0.0
Co285 Co 0.49677 0.50465 0.04099 0.0
O286 O 0.52781 0.48968 0.03316 0.0
H287 H 0.54196 0.5013 0.02394 0.0
O288 O 0.4659 0.51974 0.04804 0.0
Co289 Co 0.46792 0.55242 0.06354 0.0
Co290 Co 0.45687 0.53102 0.00518 0.0
H291 H 0.45179 0.50843 0.05795 0.0
O292 O 0.57076 0.46803 0.07857 0.0
O293 O 0.53607 0.44427 0.0557 0.0
O294 O 0.51511 0.47346 0.11202 0.0
O295 O 0.48226 0.48048 0.07872 0.0
O296 O 0.51611 0.52597 0.07613 0.0
O297 O 0.46652 0.58191 0.07957 0.0
O298 O 0.43482 0.54923 0.0759 0.0
O299 O 0.50374 0.55953 0.0546 0.0
O300 O 0.51147 0.52878 0.00363 0.0
O301 O 0.47952 0.52955 0.96633 0.0
O302 O 0.4592 0.56365 0.01596 0.0
O303 O 0.42455 0.53745 0.99661 0.0
C304 C 0.54731 0.44084 0.98292 0.0
C305 C 0.47466 0.46029 0.00722 0.0
C306 C 0.49117 0.47285 0.10715 0.0
C307 C 0.55993 0.44722 0.06595 0.0
C308 C 0.44281 0.57177 0.08523 0.0
C309 C 0.51852 0.54926 0.07435 0.0
C310 C 0.50339 0.53269 0.97313 0.0
C311 C 0.43614 0.55967 0.00236 0.0
O312 O 0.52421 0.43028 0.99111 0.0
O313 O 0.55636 0.46255 0.99472 0.0
O314 O 0.47707 0.48353 0.00578 0.0
O315 O 0.48997 0.45034 0.02626 0.0
Co316 Co 0.06029 0.47206 0.50647 0.0
Co317 Co 0.03555 0.47165 0.44771 0.0
Co318 Co 0.01064 0.50475 0.50258 0.0
O319 O 0.02543 0.4743 0.49351 0.0
H320 H 0.01369 0.45966 0.50026 0.0
O321 O 0.99597 0.53528 0.51154 0.0
Co322 Co 0.96098 0.5375 0.49962 0.0
Co323 Co 0.98692 0.53812 0.55773 0.0
H324 H 0.00761 0.54988 0.5044 0.0
O325 O 0.03874 0.44119 0.42924 0.0
O326 O 0.06885 0.46681 0.45776 0.0
O327 O 0.03875 0.50116 0.4199 0.0
O328 O 0.02822 0.52422 0.46243 0.0
O329 O 0.98045 0.49115 0.47301 0.0
O330 O 0.92958 0.54228 0.48778 0.0
O331 O 0.9657 0.57035 0.49058 0.0
O332 O 0.95141 0.50338 0.50634 0.0
O333 O 0.99272 0.48527 0.54249 0.0
O334 O 0.98356 0.50851 0.58554 0.0
O335 O 0.95334 0.54267 0.54855 0.0
O336 O 0.98359 0.56857 0.57634 0.0
C337 C 0.07999 0.44461 0.522 0.0
C338 C 0.06381 0.52079 0.52201 0.0
C339 C 0.03706 0.52193 0.43225 0.0
C340 C 0.06211 0.44656 0.44101 0.0
C341 C 0.94103 0.5649 0.48417 0.0
C342 C 0.95744 0.48877 0.48412 0.0
C343 C 0.98395 0.48762 0.57269 0.0
C344 C 0.96005 0.56285 0.5654 0.0
O345 O 0.09135 0.46732 0.51934 0.0
O346 O 0.05539 0.43918 0.51509 0.0
O347 O 0.04065 0.51838 0.53243 0.0
O348 O 0.07015 0.50623 0.49994 0.0
Co349 Co 0.55936 0.96606 0.51104 0.0
Co350 Co 0.54184 0.97364 0.45055 0.0
Co351 Co 0.50786 0.99695 0.50718 0.0
O352 O 0.52613 0.97006 0.49293 0.0
H353 H 0.51449 0.95456 0.49343 0.0
O354 O 0.48994 0.0239 0.52149 0.0
Co355 Co 0.45659 0.02744 0.50497 0.0
Co356 Co 0.47612 0.02111 0.56514 0.0
H357 H 0.50128 0.03951 0.51976 0.0
O358 O 0.54404 0.94615 0.42523 0.0
O359 O 0.57299 0.96501 0.46341 0.0
O360 O 0.54637 0.006 0.43075 0.0
O361 O 0.52256 0.0211 0.46977 0.0
O362 O 0.47852 0.98277 0.47675 0.0
O363 O 0.4265 0.03423 0.48916 0.0
O364 O 0.46291 0.06041 0.50073 0.0
O365 O 0.44602 0.99275 0.50629 0.0
O366 O 0.4931 0.97283 0.54464 0.0
O367 O 0.47214 0.98891 0.58599 0.0
O368 O 0.44467 0.02934 0.55328 0.0
O369 O 0.47471 0.04945 0.58921 0.0
C370 C 0.57626 0.9365 0.52537 0.0
C371 C 0.56003 0.01636 0.52799 0.0
C372 C 0.53687 0.02365 0.44304 0.0
C373 C 0.56608 0.94765 0.44118 0.0
C374 C 0.43904 0.05662 0.49011 0.0
C375 C 0.45545 0.97775 0.48765 0.0
C376 C 0.48015 0.97078 0.57263 0.0
C377 C 0.45237 0.04741 0.57401 0.0
O378 O 0.58876 0.95879 0.52812 0.0
O379 O 0.55273 0.93305 0.51344 0.0
O380 O 0.53679 0.0112 0.53783 0.0
O381 O 0.57056 0.00094 0.5116 0.0
H382 H 0.19742 0.14177 0.29715 0.0
H383 H 0.16257 0.11074 0.31908 0.0
H384 H 0.1085 0.16031 0.2997 0.0
H385 H 0.14321 0.1916 0.27816 0.0
H386 H 0.10829 0.14315 0.36666 0.0
H387 H 0.10135 0.0657 0.27635 0.0
H388 H 0.13346 0.07636 0.29164 0.0
H389 H 0.11727 0.09636 0.26519 0.0
C390 C 0.17804 0.14593 0.29687 0.0
C391 C 0.17316 0.16928 0.28619 0.0
C392 C 0.1581 0.12807 0.30919 0.0
C393 C 0.13293 0.13316 0.31073 0.0
C394 C 0.1278 0.15601 0.29858 0.0
H395 H 0.99591 0.03976 0.39179 0.0
H396 H 0.02738 0.06379 0.35304 0.0
C397 C 0.1477 0.17388 0.28635 0.0
C398 C 0.1127 0.116 0.32901 0.0
H399 H 0.08056 0.05698 0.33111 0.0
C400 C 0.10205 0.12439 0.35865 0.0
C401 C 0.10454 0.09158 0.31843 0.0
C402 C 0.11455 0.08198 0.28597 0.0
C403 C 0.08395 0.10884 0.37855 0.0
C404 C 0.07656 0.08416 0.36881 0.0
C405 C 0.08657 0.07587 0.33863 0.0
C406 C 0.05862 0.06686 0.39023 0.0
C407 C 0.07289 0.1189 0.40998 0.0
C408 C 0.06612 0.06007 0.42347 0.0
C409 C 0.04827 0.04645 0.44567 0.0
C410 C 0.02257 0.03936 0.43498 0.0
C411 C 0.0155 0.04505 0.40091 0.0
C412 C 0.03343 0.05871 0.37869 0.0
H413 H 0.07627 0.1393 0.40965 0.0
H414 H 0.05187 0.11222 0.41172 0.0
H415 H 0.08214 0.11247 0.43362 0.0
H416 H 0.08561 0.06604 0.43262 0.0
H417 H 0.05446 0.04217 0.47159 0.0
H418 H 0.80942 0.22533 0.37164 0.0
H419 H 0.83661 0.20056 0.40293 0.0
H420 H 0.84249 0.15877 0.31128 0.0
H421 H 0.81562 0.18405 0.27928 0.0
H422 H 0.82527 0.15225 0.41604 0.0
H423 H 0.91676 0.17321 0.3438 0.0
H424 H 0.89139 0.19139 0.33873 0.0
H425 H 0.8895 0.16283 0.31659 0.0
C426 C 0.81665 0.21101 0.35795 0.0
C427 C 0.81026 0.20653 0.323 0.0
C428 C 0.83225 0.19692 0.3759 0.0
C429 C 0.84174 0.17799 0.35938 0.0
C430 C 0.8358 0.17365 0.32431 0.0
H431 H 0.88508 0.04782 0.44593 0.0
H432 H 0.86368 0.08014 0.42122 0.0
C433 C 0.82033 0.18798 0.30612 0.0
C434 C 0.85624 0.16177 0.37974 0.0
H435 H 0.91237 0.1386 0.38296 0.0
C436 C 0.84442 0.14945 0.40898 0.0
C437 C 0.88137 0.15849 0.37083 0.0
C438 C 0.89563 0.17237 0.34098 0.0
C439 C 0.85672 0.13327 0.42891 0.0
C440 C 0.88121 0.12896 0.41885 0.0
C441 C 0.89346 0.14189 0.39038 0.0
C442 C 0.89364 0.10983 0.43606 0.0
C443 C 0.84338 0.12085 0.46048 0.0
C444 C 0.91764 0.1159 0.45247 0.0
C445 C 0.93003 0.09741 0.4666 0.0
C446 C 0.91866 0.07261 0.46412 0.0
C447 C 0.89438 0.06673 0.44825 0.0
C448 C 0.88203 0.08517 0.43426 0.0
H449 H 0.82865 0.13121 0.47024 0.0
H450 H 0.83351 0.10223 0.45363 0.0
H451 H 0.85739 0.11887 0.48162 0.0
H452 H 0.92687 0.13489 0.45397 0.0
H453 H 0.9487 0.10252 0.47875 0.0
H454 H 0.82681 0.8608 0.26279 0.0
H455 H 0.85675 0.88716 0.2999 0.0
H456 H 0.90224 0.82944 0.31368 0.0
H457 H 0.8728 0.80312 0.27614 0.0
H458 H 0.86064 0.87178 0.3676 0.0
H459 H 0.95731 0.89039 0.30787 0.0
H460 H 0.92836 0.88027 0.28316 0.0
H461 H 0.94297 0.85855 0.3086 0.0
C462 C 0.84367 0.85399 0.2727 0.0
C463 C 0.84717 0.8297 0.26697 0.0
C464 C 0.86073 0.86908 0.29395 0.0
C465 C 0.88161 0.8602 0.30962 0.0
C466 C 0.88645 0.83678 0.30148 0.0
H467 H 0.9789 0.90863 0.48729 0.0
H468 H 0.95538 0.88368 0.44183 0.0
C469 C 0.86948 0.8217 0.28007 0.0
C470 C 0.89559 0.87364 0.33854 0.0
H471 H 0.95513 0.899 0.36788 0.0
C472 C 0.88128 0.87791 0.36752 0.0
C473 C 0.92254 0.88119 0.33857 0.0
C474 C 0.9387 0.87758 0.30777 0.0
C475 C 0.8932 0.88957 0.39661 0.0
C476 C 0.92007 0.89734 0.39652 0.0
C477 C 0.9345 0.89284 0.36778 0.0
C478 C 0.93325 0.91159 0.42517 0.0
C479 C 0.87701 0.89332 0.42735 0.0
C480 C 0.92828 0.93531 0.43085 0.0
C481 C 0.9416 0.94954 0.45658 0.0
C482 C 0.96021 0.94031 0.47706 0.0
C483 C 0.96463 0.91621 0.472 0.0
C484 C 0.95135 0.902 0.44599 0.0
H485 H 0.85802 0.88111 0.42679 0.0
H486 H 0.88704 0.88988 0.45195 0.0
H487 H 0.87357 0.91262 0.4271 0.0
H488 H 0.91451 0.94305 0.41479 0.0
H489 H 0.93773 0.96803 0.45985 0.0
H490 H 0.20836 0.86674 0.27444 0.0
H491 H 0.18539 0.89077 0.31179 0.0
H492 H 0.1223 0.83039 0.31899 0.0
H493 H 0.14509 0.80607 0.28173 0.0
H494 H 0.13178 0.90277 0.30941 0.0
H495 H 0.15342 0.84305 0.42002 0.0
H496 H 0.17046 0.84479 0.37956 0.0
H497 H 0.13861 0.82742 0.38279 0.0
C498 C 0.18937 0.85871 0.28336 0.0
C499 C 0.1787 0.83436 0.27555 0.0
C500 C 0.17631 0.87249 0.30465 0.0
C501 C 0.15248 0.86209 0.31849 0.0
C502 C 0.14089 0.83851 0.30876 0.0
H503 H 0.04811 0.89535 0.46877 0.0
H504 H 0.07464 0.87741 0.42859 0.0
C505 C 0.15388 0.82473 0.28734 0.0
C506 C 0.14076 0.87505 0.34535 0.0
H507 H 0.1264 0.87214 0.43122 0.0
C508 C 0.13067 0.89625 0.33611 0.0
C509 C 0.13974 0.86648 0.38009 0.0
C510 C 0.15129 0.8443 0.39145 0.0
C511 C 0.11851 0.90863 0.36066 0.0
C512 C 0.117 0.89974 0.39531 0.0
C513 C 0.1277 0.87888 0.40463 0.0
C514 C 0.10249 0.91055 0.42166 0.0
C515 C 0.10652 0.9305 0.3491 0.0
C516 C 0.10993 0.93492 0.43192 0.0
C517 C 0.09474 0.94532 0.45495 0.0
C518 C 0.07199 0.9314 0.46798 0.0
C519 C 0.0654 0.90664 0.45895 0.0
C520 C 0.08053 0.89632 0.43601 0.0
H521 H 0.105 0.93198 0.32047 0.0
H522 H 0.08701 0.92939 0.36018 0.0
H523 H 0.11855 0.94754 0.35841 0.0
H524 H 0.12716 0.946 0.42161 0.0
H525 H 0.10036 0.96441 0.46161 0.0
H526 H 0.16517 0.77829 0.6979 0.0
H527 H 0.13939 0.80211 0.66223 0.0
H528 H 0.19755 0.86637 0.67267 0.0
H529 H 0.22386 0.84258 0.70784 0.0
H530 H 0.11977 0.84236 0.68013 0.0
H531 H 0.18511 0.86457 0.56861 0.0
H532 H 0.18916 0.84121 0.60071 0.0
H533 H 0.20052 0.87309 0.60917 0.0
C534 C 0.17254 0.7975 0.69265 0.0
C535 C 0.19661 0.80856 0.70564 0.0
C536 C 0.15782 0.81101 0.67212 0.0
C537 C 0.16688 0.83577 0.66423 0.0
C538 C 0.19061 0.84705 0.6777 0.0
H539 H 0.10946 0.96136 0.59671 0.0
H540 H 0.1351 0.92974 0.61228 0.0
C541 C 0.20546 0.83352 0.69811 0.0
C542 C 0.15076 0.85022 0.64368 0.0
H543 H 0.15124 0.88866 0.57332 0.0
C544 C 0.12642 0.85215 0.65644 0.0
C545 C 0.15955 0.86277 0.61271 0.0
C546 C 0.18491 0.86013 0.59678 0.0
C547 C 0.1111 0.86743 0.64002 0.0
C548 C 0.12039 0.88084 0.60995 0.0
C549 C 0.1443 0.87823 0.5964 0.0
C550 C 0.10667 0.89964 0.59476 0.0
C551 C 0.08569 0.8701 0.65588 0.0
C552 C 0.08265 0.89303 0.57869 0.0
C553 C 0.06785 0.91103 0.5699 0.0
C554 C 0.07696 0.93579 0.57721 0.0
C555 C 0.10178 0.94241 0.59122 0.0
C556 C 0.11653 0.92442 0.59991 0.0
H557 H 0.08292 0.86084 0.68169 0.0
H558 H 0.08429 0.88981 0.65866 0.0
H559 H 0.06976 0.86187 0.63864 0.0
H560 H 0.07494 0.87391 0.57433 0.0
H561 H 0.04892 0.90543 0.55872 0.0
H562 H 0.18201 0.1811 0.75772 0.0
H563 H 0.1458 0.15154 0.73535 0.0
H564 H 0.16427 0.17789 0.63139 0.0
H565 H 0.20024 0.20692 0.65302 0.0
H566 H 0.10243 0.15992 0.69298 0.0
H567 H 0.16435 0.10354 0.62712 0.0
H568 H 0.1765 0.12529 0.65996 0.0
H569 H 0.17204 0.13566 0.61621 0.0
C570 C 0.17832 0.18053 0.73012 0.0
C571 C 0.19424 0.19612 0.70715 0.0
C572 C 0.15766 0.16371 0.71743 0.0
C573 C 0.15276 0.1623 0.6817 0.0
C574 C 0.16812 0.17833 0.65897 0.0
H575 H 0.02202 0.10143 0.5571 0.0
H576 H 0.05532 0.12802 0.58971 0.0
C577 C 0.18869 0.19495 0.67149 0.0
C578 C 0.13175 0.14413 0.6675 0.0
H579 H 0.12017 0.09782 0.60969 0.0
C580 C 0.10622 0.14611 0.6751 0.0
C581 C 0.13686 0.12604 0.64446 0.0
C582 C 0.16393 0.1223 0.63668 0.0
C583 C 0.08558 0.13098 0.65913 0.0
C584 C 0.09076 0.11381 0.63467 0.0
C585 C 0.11628 0.11126 0.62811 0.0
C586 C 0.07007 0.09802 0.61571 0.0
C587 C 0.05845 0.13346 0.66856 0.0
C588 C 0.06783 0.07244 0.61893 0.0
C589 C 0.0491 0.05728 0.60018 0.0
C590 C 0.03227 0.06741 0.57766 0.0
C591 C 0.03467 0.09308 0.57424 0.0
C592 C 0.0535 0.10828 0.59309 0.0
H593 H 0.05778 0.1427 0.69368 0.0
H594 H 0.05043 0.14467 0.64832 0.0
H595 H 0.04596 0.1152 0.6701 0.0
H596 H 0.08059 0.0642 0.63604 0.0
H597 H 0.04784 0.03758 0.60343 0.0
H598 H 0.80209 0.19248 0.74487 0.0
H599 H 0.82514 0.16201 0.72011 0.0
H600 H 0.82209 0.19692 0.61955 0.0
H601 H 0.79863 0.22701 0.64375 0.0
H602 H 0.80739 0.14664 0.61821 0.0
H603 H 0.89988 0.1727 0.68936 0.0
H604 H 0.87193 0.16521 0.71608 0.0
H605 H 0.87528 0.19189 0.68797 0.0
C606 C 0.8066 0.1938 0.71757 0.0
C607 C 0.79861 0.21213 0.69624 0.0
C608 C 0.81974 0.17641 0.7035 0.0
C609 C 0.82538 0.17738 0.6681 0.0
C610 C 0.81778 0.19586 0.64692 0.0
H611 H 0.93687 0.11939 0.55429 0.0
H612 H 0.90781 0.14354 0.58072 0.0
C613 C 0.80448 0.21307 0.66084 0.0
C614 C 0.83906 0.15912 0.65265 0.0
H615 H 0.89681 0.13909 0.65224 0.0
C616 C 0.8269 0.14482 0.62573 0.0
C617 C 0.8645 0.15703 0.66252 0.0
C618 C 0.87881 0.17264 0.69035 0.0
C619 C 0.83981 0.12883 0.60776 0.0
C620 C 0.86528 0.1269 0.61753 0.0
C621 C 0.87719 0.14069 0.64502 0.0
C622 C 0.88075 0.11199 0.59824 0.0
C623 C 0.82659 0.11488 0.57768 0.0
C624 C 0.87465 0.08628 0.59866 0.0
C625 C 0.89119 0.07238 0.58338 0.0
C626 C 0.9141 0.08412 0.568 0.0
C627 C 0.9195 0.10987 0.56639 0.0
C628 C 0.90294 0.12369 0.5814 0.0
H629 H 0.80867 0.12171 0.56972 0.0
H630 H 0.83963 0.11628 0.55511 0.0
H631 H 0.8215 0.09517 0.58515 0.0
H632 H 0.85769 0.077 0.61191 0.0
H633 H 0.88665 0.05253 0.58498 0.0
H634 H 0.82542 0.80352 0.68487 0.0
H635 H 0.85877 0.83866 0.67276 0.0
H636 H 0.85686 0.86107 0.7786 0.0
H637 H 0.82326 0.82561 0.79126 0.0
H638 H 0.85408 0.89936 0.72177 0.0
H639 H 0.93535 0.8477 0.71063 0.0
H640 H 0.90658 0.83443 0.68804 0.0
H641 H 0.90645 0.83592 0.73441 0.0
C642 C 0.83207 0.8158 0.70572 0.0
C643 C 0.82168 0.81172 0.73909 0.0
C644 C 0.85121 0.83583 0.69873 0.0
C645 C 0.86034 0.85226 0.72486 0.0
C646 C 0.85006 0.84845 0.7582 0.0
H647 H 0.99454 0.9593 0.66554 0.0
H648 H 0.96428 0.93307 0.7032 0.0
C649 C 0.83097 0.82818 0.76536 0.0
C650 C 0.88026 0.87359 0.71646 0.0
H651 H 0.94086 0.88775 0.68412 0.0
C652 C 0.87326 0.89701 0.71418 0.0
C653 C 0.90529 0.87044 0.70701 0.0
C654 C 0.91403 0.84581 0.7104 0.0
C655 C 0.89022 0.91716 0.70052 0.0
C656 C 0.91457 0.91357 0.68857 0.0
C657 C 0.92211 0.89046 0.69303 0.0
C658 C 0.93169 0.93271 0.6686 0.0
C659 C 0.88173 0.94193 0.6983 0.0
C660 C 0.92329 0.94155 0.63689 0.0
C661 C 0.94053 0.95654 0.61522 0.0
C662 C 0.96658 0.96277 0.62475 0.0
C663 C 0.97465 0.95478 0.65728 0.0
C664 C 0.95739 0.93981 0.67891 0.0
H665 H 0.86711 0.94354 0.71822 0.0
H666 H 0.89826 0.95702 0.70156 0.0
H667 H 0.87285 0.94426 0.67254 0.0
H668 H 0.90369 0.93587 0.62805 0.0
H669 H 0.93364 0.96233 0.59038 0.0
H670 H 0.28551 0.15618 0.21063 0.0
H671 H 0.31213 0.13359 0.17652 0.0
H672 H 0.32868 0.19517 0.1053 0.0
H673 H 0.30198 0.2181 0.13929 0.0
H674 H 0.31758 0.14504 0.07438 0.0
H675 H 0.39249 0.15521 0.17787 0.0
H676 H 0.36034 0.1432 0.1917 0.0
H677 H 0.36767 0.17418 0.17514 0.0
C678 C 0.29453 0.16492 0.18752 0.0
C679 C 0.29174 0.18912 0.17795 0.0
C680 C 0.30978 0.15194 0.16808 0.0
C681 C 0.32259 0.16281 0.13864 0.0
C682 C 0.31897 0.18648 0.128 0.0
H683 H 0.45756 0.12114 0.0475 0.0
H684 H 0.42517 0.14265 0.07154 0.0
C685 C 0.30373 0.19956 0.14751 0.0
C686 C 0.34102 0.15001 0.12043 0.0
H687 H 0.39861 0.13003 0.13121 0.0
C688 C 0.33534 0.14177 0.08669 0.0
C689 C 0.36426 0.14599 0.13647 0.0
C690 C 0.37178 0.15524 0.17218 0.0
C691 C 0.35218 0.12926 0.06876 0.0
C692 C 0.37518 0.12479 0.08515 0.0
C693 C 0.38092 0.13333 0.11872 0.0
C694 C 0.39407 0.1119 0.0679 0.0
C695 C 0.34536 0.12123 0.03234 0.0
C696 C 0.38738 0.08741 0.05758 0.0
C697 C 0.40596 0.07497 0.04373 0.0
C698 C 0.43161 0.08676 0.04023 0.0
C699 C 0.43806 0.1114 0.05003 0.0
C700 C 0.41954 0.12378 0.06376 0.0
H701 H 0.33144 0.13196 0.02014 0.0
H702 H 0.36275 0.12314 0.01598 0.0
H703 H 0.33636 0.10159 0.03294 0.0
H704 H 0.36795 0.07773 0.06101 0.0
H705 H 0.40032 0.05603 0.03634 0.0
H706 H 0.84639 0.27871 0.19722 0.0
H707 H 0.88287 0.3077 0.17345 0.0
H708 H 0.83227 0.35978 0.14962 0.0
H709 H 0.79603 0.33128 0.17333 0.0
H710 H 0.87832 0.34689 0.09651 0.0
H711 H 0.90079 0.38012 0.23035 0.0
H712 H 0.89094 0.34783 0.22231 0.0
H713 H 0.86807 0.36838 0.21774 0.0
C714 C 0.84299 0.29607 0.18605 0.0
C715 C 0.81847 0.30285 0.18733 0.0
C716 C 0.86379 0.31259 0.17267 0.0
C717 C 0.86011 0.33582 0.16009 0.0
C718 C 0.83538 0.34192 0.15929 0.0
H719 H 0.94519 0.4664 0.06637 0.0
H720 H 0.91228 0.43378 0.089 0.0
C721 C 0.81476 0.32563 0.17289 0.0
C722 C 0.88209 0.35486 0.15067 0.0
H723 H 0.9233 0.40269 0.1848 0.0
C724 C 0.88843 0.35896 0.11573 0.0
C725 C 0.89503 0.37047 0.17596 0.0
C726 C 0.88853 0.36666 0.21379 0.0
C727 C 0.90733 0.37864 0.10529 0.0
C728 C 0.91958 0.39492 0.13051 0.0
C729 C 0.91369 0.39034 0.16556 0.0
C730 C 0.93868 0.41672 0.12089 0.0
C731 C 0.91409 0.38174 0.06743 0.0
C732 C 0.964 0.41903 0.13347 0.0
C733 C 0.98283 0.43794 0.12109 0.0
C734 C 0.9766 0.45478 0.09578 0.0
C735 C 0.95072 0.45361 0.08556 0.0
C736 C 0.93192 0.43479 0.09813 0.0
H737 H 0.90826 0.3644 0.05325 0.0
H738 H 0.90383 0.39586 0.05545 0.0
H739 H 0.93507 0.38789 0.06397 0.0
H740 H 0.9695 0.40546 0.15149 0.0
H741 H 0.00253 0.43827 0.12961 0.0
H742 H 0.74363 0.84989 0.16777 0.0
H743 H 0.71516 0.87178 0.13331 0.0
H744 H 0.68341 0.80462 0.08284 0.0
H745 H 0.71183 0.78242 0.11722 0.0
H746 H 0.70343 0.87485 0.05622 0.0
H747 H 0.62321 0.82776 0.13869 0.0
H748 H 0.65646 0.82921 0.1515 0.0
H749 H 0.64324 0.80924 0.11756 0.0
C750 C 0.731 0.83981 0.14886 0.0
C751 C 0.72979 0.81431 0.14563 0.0
C752 C 0.7148 0.85239 0.1291 0.0
C753 C 0.69704 0.83973 0.10588 0.0
C754 C 0.69691 0.81464 0.10084 0.0
H755 H 0.56125 0.90205 0.03764 0.0
H756 H 0.59218 0.87344 0.04147 0.0
C757 C 0.71322 0.80202 0.12048 0.0
C758 C 0.67687 0.85234 0.09026 0.0
H759 H 0.61442 0.8594 0.10158 0.0
C760 C 0.68385 0.87126 0.06568 0.0
C761 C 0.65131 0.84743 0.10246 0.0
C762 C 0.64294 0.8274 0.12912 0.0
C763 C 0.6661 0.88608 0.05398 0.0
C764 C 0.64104 0.88222 0.06798 0.0
C765 C 0.63369 0.86239 0.09102 0.0
C766 C 0.62308 0.89998 0.06221 0.0
C767 C 0.67447 0.90598 0.02723 0.0
C768 C 0.63014 0.92432 0.0728 0.0
C769 C 0.61253 0.94063 0.07081 0.0
C770 C 0.58744 0.93291 0.05828 0.0
C771 C 0.58043 0.90856 0.04743 0.0
C772 C 0.59809 0.89221 0.04948 0.0
H773 H 0.68964 0.90098 0.01034 0.0
H774 H 0.65805 0.90961 0.01079 0.0
H775 H 0.68261 0.92318 0.04048 0.0
H776 H 0.64911 0.93055 0.08349 0.0
H777 H 0.61857 0.95927 0.07927 0.0
H778 H 0.20862 0.72598 0.10723 0.0
H779 H 0.18284 0.69415 0.0728 0.0
H780 H 0.1191 0.69307 0.14204 0.0
H781 H 0.14437 0.72513 0.17605 0.0
H782 H 0.16379 0.64802 0.09467 0.0
H783 H 0.08364 0.69402 0.0494 0.0
H784 H 0.11293 0.71075 0.06743 0.0
H785 H 0.08773 0.69583 0.0954 0.0
C786 C 0.18892 0.71937 0.11471 0.0
C787 C 0.17858 0.72818 0.14444 0.0
C788 C 0.17425 0.70109 0.09506 0.0
C789 C 0.14896 0.69137 0.10463 0.0
C790 C 0.13836 0.70065 0.13367 0.0
H791 H 0.05835 0.54911 0.0775 0.0
H792 H 0.09121 0.58377 0.09405 0.0
C793 C 0.15293 0.71897 0.15321 0.0
C794 C 0.13423 0.67027 0.0861 0.0
H795 H 0.07571 0.64983 0.04946 0.0
C796 C 0.14467 0.6485 0.0843 0.0
C797 C 0.10948 0.67099 0.07204 0.0
C798 C 0.09791 0.69425 0.07081 0.0
C799 C 0.13052 0.62711 0.07029 0.0
C800 C 0.10505 0.62737 0.05856 0.0
C801 C 0.09511 0.64947 0.05889 0.0
C802 C 0.08792 0.60494 0.0468 0.0
C803 C 0.14301 0.6045 0.06821 0.0
C804 C 0.07522 0.60521 0.01476 0.0
C805 C 0.05625 0.58567 0.00558 0.0
C806 C 0.04958 0.5654 0.02825 0.0
C807 C 0.06323 0.56444 0.0595 0.0
C808 C 0.08209 0.5842 0.06886 0.0
H809 H 0.1643 0.60938 0.06715 0.0
H810 H 0.13814 0.5928 0.09168 0.0
H811 H 0.13618 0.5936 0.04515 0.0
H812 H 0.07936 0.62096 0.99732 0.0
H813 H 0.04626 0.58677 0.98109 0.0
H814 H 0.29456 0.79546 0.89601 0.0
H815 H 0.32537 0.82393 0.92965 0.0
H816 H 0.32842 0.87828 0.84747 0.0
H817 H 0.2977 0.85016 0.8136 0.0
H818 H 0.37794 0.85196 0.87787 0.0
H819 H 0.32308 0.90357 0.96449 0.0
H820 H 0.31167 0.87168 0.95515 0.0
H821 H 0.31079 0.89468 0.92198 0.0
C822 C 0.30121 0.8137 0.88543 0.0
C823 C 0.29383 0.8204 0.8519 0.0
C824 C 0.3188 0.82992 0.90473 0.0
C825 C 0.32905 0.85312 0.89095 0.0
C826 C 0.32054 0.86046 0.85854 0.0
H827 H 0.44857 0.97281 0.94479 0.0
H828 H 0.40844 0.94704 0.92699 0.0
C829 C 0.30301 0.8443 0.83921 0.0
C830 C 0.35128 0.86825 0.90779 0.0
H831 H 0.36839 0.91431 0.96511 0.0
C832 C 0.37593 0.86543 0.89722 0.0
C833 C 0.34839 0.88587 0.93265 0.0
C834 C 0.3221 0.88932 0.94446 0.0
C835 C 0.39795 0.88 0.91071 0.0
C836 C 0.39517 0.89764 0.93577 0.0
C837 C 0.37044 0.90053 0.94627 0.0
C838 C 0.41792 0.91365 0.95027 0.0
C839 C 0.42398 0.87691 0.8973 0.0
C840 C 0.43617 0.9035 0.97007 0.0
C841 C 0.45918 0.91809 0.98013 0.0
C842 C 0.46433 0.94315 0.97056 0.0
C843 C 0.44539 0.9535 0.95217 0.0
C844 C 0.42237 0.93887 0.94215 0.0
H845 H 0.42243 0.86637 0.87302 0.0
H846 H 0.43615 0.89505 0.89241 0.0
H847 H 0.43389 0.86679 0.91699 0.0
H848 H 0.43288 0.88413 0.97702 0.0
H849 H 0.47313 0.90959 0.99472 0.0
H850 H 0.24295 0.33524 0.82585 0.0
H851 H 0.21642 0.35794 0.85969 0.0
H852 H 0.15871 0.29305 0.86947 0.0
H853 H 0.18574 0.26987 0.83635 0.0
H854 H 0.17053 0.36755 0.84106 0.0
H855 H 0.16162 0.31705 0.96704 0.0
H856 H 0.18491 0.31232 0.9351 0.0
H857 H 0.15189 0.29781 0.93088 0.0
C858 C 0.22478 0.32564 0.83565 0.0
C859 C 0.21639 0.30075 0.82834 0.0
C860 C 0.20963 0.33868 0.855 0.0
C861 C 0.18562 0.32723 0.86737 0.0
C862 C 0.17741 0.30218 0.86089 0.0
H863 H 0.05731 0.38142 0.958 0.0
H864 H 0.08712 0.35707 0.93381 0.0
C865 C 0.1928 0.28896 0.84183 0.0
C866 C 0.16859 0.3422 0.8845 0.0
H867 H 0.13371 0.34647 0.95728 0.0
C868 C 0.16277 0.3631 0.86671 0.0
C869 C 0.15828 0.33631 0.91784 0.0
C870 C 0.16467 0.31479 0.93899 0.0
C871 C 0.14676 0.37811 0.88109 0.0
C872 C 0.13647 0.37223 0.91439 0.0
C873 C 0.14202 0.35119 0.93206 0.0
C874 C 0.11903 0.38712 0.93067 0.0
C875 C 0.14037 0.39969 0.86001 0.0
C876 C 0.12721 0.41208 0.93765 0.0
C877 C 0.11011 0.4262 0.95138 0.0
C878 C 0.08457 0.41553 0.95852 0.0
C879 C 0.07675 0.39035 0.95247 0.0
C880 C 0.0938 0.37631 0.93876 0.0
H881 H 0.14458 0.39815 0.83213 0.0
H882 H 0.11978 0.40134 0.86265 0.0
H883 H 0.15215 0.41682 0.86945 0.0
H884 H 0.1468 0.42066 0.93231 0.0
H885 H 0.11684 0.44544 0.9562 0.0
H886 H 0.73744 0.18242 0.82897 0.0
H887 H 0.71631 0.1442 0.85701 0.0
H888 H 0.64594 0.17409 0.8632 0.0
H889 H 0.6667 0.21214 0.83525 0.0
H890 H 0.66047 0.14416 0.92431 0.0
H891 H 0.65942 0.10054 0.79538 0.0
H892 H 0.68935 0.11633 0.81269 0.0
H893 H 0.66472 0.13349 0.79941 0.0
C894 C 0.71766 0.18106 0.83712 0.0
C895 C 0.70358 0.20012 0.82953 0.0
C896 C 0.70565 0.15922 0.85299 0.0
C897 C 0.67958 0.15638 0.86171 0.0
C898 C 0.6661 0.17603 0.85654 0.0
H899 H 0.5404 0.06724 0.87573 0.0
H900 H 0.58147 0.09143 0.85858 0.0
C901 C 0.67796 0.1977 0.84047 0.0
C902 C 0.66513 0.13232 0.87252 0.0
H903 H 0.63224 0.07992 0.83793 0.0
C904 C 0.65482 0.1297 0.90588 0.0
C905 C 0.65778 0.11374 0.84809 0.0
C906 C 0.66824 0.11599 0.81179 0.0
C907 C 0.63601 0.1096 0.91485 0.0
C908 C 0.62751 0.09179 0.88968 0.0
C909 C 0.63899 0.09363 0.85705 0.0
C910 C 0.6041 0.07356 0.89514 0.0
C911 C 0.62397 0.10848 0.95023 0.0
C912 C 0.60359 0.05469 0.92002 0.0
C913 C 0.58016 0.04077 0.92984 0.0
C914 C 0.55692 0.04566 0.91502 0.0
C915 C 0.55786 0.06311 0.88785 0.0
C916 C 0.58132 0.07695 0.87801 0.0
H917 H 0.63112 0.12505 0.96552 0.0
H918 H 0.60272 0.10657 0.94782 0.0
H919 H 0.62842 0.09215 0.96487 0.0
H920 H 0.6211 0.05167 0.93315 0.0
H921 H 0.58021 0.02728 0.95062 0.0
H922 H 0.81509 0.67978 0.80478 0.0
H923 H 0.83972 0.65502 0.84043 0.0
H924 H 0.81989 0.69104 0.93175 0.0
H925 H 0.79558 0.71685 0.89544 0.0
H926 H 0.87063 0.68131 0.93362 0.0
H927 H 0.80338 0.59807 0.89869 0.0
H928 H 0.8153 0.61472 0.86034 0.0
H929 H 0.79624 0.62854 0.8903 0.0
C930 C 0.81611 0.68262 0.83244 0.0
C931 C 0.80311 0.69994 0.84747 0.0
C932 C 0.8301 0.66837 0.85281 0.0
C933 C 0.83093 0.67059 0.88885 0.0
C934 C 0.81918 0.68882 0.90399 0.0
H935 H 0.89033 0.54214 0.97057 0.0
H936 H 0.86266 0.57365 0.96665 0.0
C937 C 0.80539 0.70355 0.88331 0.0
C938 C 0.84347 0.65299 0.90988 0.0
H939 H 0.84637 0.59189 0.91501 0.0
C940 C 0.86509 0.66169 0.93028 0.0
C941 C 0.83572 0.62737 0.90665 0.0
C942 C 0.8112 0.61665 0.88813 0.0
C943 C 0.88043 0.64547 0.94499 0.0
C944 C 0.87441 0.62001 0.93804 0.0
C945 C 0.85152 0.61132 0.92005 0.0
C946 C 0.89225 0.60223 0.94623 0.0
C947 C 0.90298 0.65601 0.96739 0.0
C948 C 0.91833 0.60769 0.93693 0.0
C949 C 0.93431 0.5899 0.94038 0.0
C950 C 0.92426 0.56596 0.95161 0.0
C951 C 0.89835 0.5604 0.96119 0.0
C952 C 0.88261 0.57846 0.95909 0.0
H953 H 0.89832 0.67152 0.98257 0.0
H954 H 0.90876 0.64205 0.98558 0.0
H955 H 0.91955 0.66341 0.95067 0.0
H956 H 0.92622 0.62542 0.92571 0.0
H957 H 0.95428 0.59458 0.93285 0.0
H958 H 0.23292 0.30006 0.14242 0.0
H959 H 0.21082 0.32934 0.11023 0.0
H960 H 0.13957 0.29873 0.15983 0.0
H961 H 0.16135 0.26962 0.19223 0.0
H962 H 0.16392 0.325 0.06606 0.0
H963 H 0.15641 0.37189 0.19022 0.0
H964 H 0.1777 0.34981 0.18466 0.0
H965 H 0.14391 0.33958 0.19125 0.0
C966 C 0.21243 0.29919 0.14592 0.0
C967 C 0.19899 0.28273 0.17031 0.0
C968 C 0.19986 0.31594 0.12751 0.0
C969 C 0.17371 0.31643 0.13318 0.0
C970 C 0.15987 0.29886 0.15552 0.0
H971 H 0.06265 0.3976 0.04111 0.0
H972 H 0.08933 0.36657 0.05614 0.0
C973 C 0.17237 0.28221 0.17399 0.0
C974 C 0.16132 0.33661 0.11848 0.0
H975 H 0.13354 0.38523 0.14232 0.0
C976 C 0.15736 0.33827 0.08262 0.0
C977 C 0.15325 0.35414 0.14015 0.0
C978 C 0.1582 0.354 0.17868 0.0
C979 C 0.14474 0.35666 0.06798 0.0
C980 C 0.13568 0.37349 0.08987 0.0
C981 C 0.14034 0.37219 0.12559 0.0
C982 C 0.1209 0.39247 0.07672 0.0
C983 C 0.14138 0.35802 0.02927 0.0
C984 C 0.12979 0.41732 0.08321 0.0
C985 C 0.11456 0.43508 0.0748 0.0
C986 C 0.09001 0.42831 0.05998 0.0
C987 C 0.08145 0.40346 0.05251 0.0
C988 C 0.09677 0.3857 0.06085 0.0
H989 H 0.15555 0.34877 0.01585 0.0
H990 H 0.1218 0.34864 0.02223 0.0
H991 H 0.14348 0.37736 0.01972 0.0
H992 H 0.14833 0.42292 0.09554 0.0
H993 H 0.12182 0.45405 0.08073 0.0
H994 H 0.15084 0.71802 0.81328 0.0
H995 H 0.11933 0.68368 0.83455 0.0
H996 H 0.17776 0.65859 0.89859 0.0
H997 H 0.20931 0.69327 0.87798 0.0
H998 H 0.1259 0.63684 0.82065 0.0
H999 H 0.11589 0.64697 0.96217 0.0
H1000 H 0.12971 0.67219 0.93414 0.0
H1001 H 0.1485 0.6493 0.94795 0.0
C1002 C 0.15679 0.70565 0.83277 0.0
C1003 C 0.18257 0.70824 0.84381 0.0
C1004 C 0.13878 0.686 0.8448 0.0
C1005 C 0.14621 0.66854 0.86805 0.0
C1006 C 0.1715 0.67204 0.88106 0.0
H1007 H 0.06852 0.52663 0.94222 0.0
H1008 H 0.10158 0.56034 0.92316 0.0
C1009 C 0.18953 0.69189 0.86926 0.0
C1010 C 0.12847 0.64526 0.87488 0.0
H1011 H 0.09754 0.60856 0.93866 0.0
C1012 C 0.11958 0.63072 0.84646 0.0
C1013 C 0.12055 0.63718 0.90858 0.0
C1014 C 0.12895 0.65229 0.93996 0.0
C1015 C 0.10295 0.60831 0.85079 0.0
C1016 C 0.09478 0.60039 0.8844 0.0
C1017 C 0.10392 0.61472 0.9129 0.0
C1018 C 0.07591 0.5778 0.89066 0.0
C1019 C 0.09455 0.59318 0.81943 0.0
C1020 C 0.05076 0.57593 0.87749 0.0
C1021 C 0.03176 0.55657 0.88816 0.0
C1022 C 0.03759 0.53897 0.91255 0.0
C1023 C 0.06331 0.5399 0.92351 0.0
C1024 C 0.08224 0.55923 0.91282 0.0
H1025 H 0.10793 0.59818 0.79746 0.0
H1026 H 0.09331 0.57326 0.82544 0.0
H1027 H 0.07522 0.59655 0.81101 0.0
H1028 H 0.04541 0.59025 0.86068 0.0
H1029 H 0.01217 0.55657 0.8794 0.0
H1030 H 0.26944 0.17706 0.83898 0.0
H1031 H 0.29119 0.14817 0.87288 0.0
H1032 H 0.35786 0.20432 0.88406 0.0
H1033 H 0.33645 0.23301 0.85034 0.0
H1034 H 0.33808 0.13676 0.84687 0.0
H1035 H 0.35197 0.17073 0.98066 0.0
H1036 H 0.32705 0.17864 0.9521 0.0
H1037 H 0.35966 0.1941 0.94764 0.0
C1038 C 0.28837 0.18343 0.8497 0.0
C1039 C 0.30131 0.20722 0.84187 0.0
C1040 C 0.3008 0.16692 0.86896 0.0
C1041 C 0.32606 0.17417 0.88127 0.0
C1042 C 0.33823 0.19843 0.87543 0.0
H1043 H 0.45821 0.11171 0.94917 0.0
H1044 H 0.42566 0.13798 0.93733 0.0
C1045 C 0.32601 0.21477 0.8559 0.0
C1046 C 0.34137 0.15576 0.89504 0.0
H1047 H 0.37972 0.14319 0.96269 0.0
C1048 C 0.34674 0.13777 0.87249 0.0
C1049 C 0.35307 0.15751 0.92818 0.0
C1050 C 0.34751 0.17616 0.95371 0.0
C1051 C 0.36428 0.12209 0.88155 0.0
C1052 C 0.37619 0.12387 0.91467 0.0
C1053 C 0.37043 0.14161 0.93751 0.0
C1054 C 0.39517 0.1079 0.92542 0.0
C1055 C 0.37087 0.10473 0.85468 0.0
C1056 C 0.38866 0.08226 0.92402 0.0
C1057 C 0.40731 0.06735 0.92992 0.0
C1058 C 0.43274 0.07771 0.93833 0.0
C1059 C 0.43886 0.10325 0.94224 0.0
C1060 C 0.42024 0.11825 0.93563 0.0
H1061 H 0.36616 0.11074 0.82809 0.0
H1062 H 0.39161 0.10321 0.85573 0.0
H1063 H 0.35949 0.08623 0.8595 0.0
H1064 H 0.36924 0.07376 0.91752 0.0
H1065 H 0.40183 0.04766 0.92764 0.0
H1066 H 0.79631 0.34554 0.82057 0.0
H1067 H 0.82882 0.36638 0.85977 0.0
H1068 H 0.84996 0.29685 0.8909 0.0
H1069 H 0.81764 0.2757 0.85104 0.0
H1070 H 0.83574 0.36183 0.93089 0.0
H1071 H 0.91818 0.3367 0.85888 0.0
H1072 H 0.88599 0.33264 0.84115 0.0
H1073 H 0.8945 0.31149 0.87354 0.0
C1074 C 0.80777 0.33457 0.83576 0.0
C1075 C 0.80449 0.30891 0.83236 0.0
C1076 C 0.82633 0.34655 0.85827 0.0
C1077 C 0.84204 0.33322 0.8779 0.0
C1078 C 0.83835 0.30754 0.87548 0.0
H1079 H 0.97714 0.39754 0.99937 0.0
H1080 H 0.9406 0.36795 0.97897 0.0
C1081 C 0.8198 0.29548 0.85279 0.0
C1082 C 0.8627 0.34659 0.89992 0.0
H1083 H 0.92799 0.36176 0.90705 0.0
C1084 C 0.85591 0.36164 0.92592 0.0
C1085 C 0.88901 0.34625 0.89344 0.0
C1086 C 0.89749 0.33108 0.8651 0.0
C1087 C 0.87475 0.37684 0.94499 0.0
C1088 C 0.90098 0.37719 0.93755 0.0
C1089 C 0.90781 0.3614 0.91264 0.0
C1090 C 0.9216 0.39522 0.9531 0.0
C1091 C 0.86648 0.39267 0.97263 0.0
C1092 C 0.92288 0.42035 0.94546 0.0
C1093 C 0.94378 0.4373 0.95685 0.0
C1094 C 0.96384 0.4294 0.97602 0.0
C1095 C 0.96209 0.40425 0.98452 0.0
C1096 C 0.94122 0.3873 0.97295 0.0
H1097 H 0.84668 0.3855 0.98167 0.0
H1098 H 0.87985 0.39385 0.99516 0.0
H1099 H 0.86668 0.41152 0.96192 0.0
H1100 H 0.90811 0.42679 0.9297 0.0
H1101 H 0.94445 0.45653 0.94996 0.0
H1102 H 0.74338 0.80862 0.87246 0.0
H1103 H 0.72451 0.83905 0.9047 0.0
H1104 H 0.65259 0.81828 0.8505 0.0
H1105 H 0.67103 0.78809 0.81835 0.0
H1106 H 0.6734 0.87055 0.84989 0.0
H1107 H 0.66778 0.82774 0.98212 0.0
H1108 H 0.69758 0.83039 0.95894 0.0
H1109 H 0.66989 0.80991 0.94395 0.0
C1110 C 0.72346 0.81034 0.86768 0.0
C1111 C 0.70878 0.79587 0.84269 0.0
C1112 C 0.71271 0.82772 0.8862 0.0
C1113 C 0.68712 0.83086 0.88005 0.0
C1114 C 0.67238 0.81616 0.85563 0.0
H1115 H 0.5652 0.89083 0.96138 0.0
H1116 H 0.59759 0.86722 0.94268 0.0
C1117 C 0.683 0.79885 0.83728 0.0
C1118 C 0.67563 0.8501 0.89754 0.0
H1119 H 0.64922 0.86338 0.97373 0.0
C1120 C 0.66851 0.86927 0.87711 0.0
C1121 C 0.66928 0.84832 0.93304 0.0
C1122 C 0.67636 0.82797 0.95598 0.0
C1123 C 0.65424 0.88609 0.89085 0.0
C1124 C 0.64698 0.88373 0.92598 0.0
C1125 C 0.65497 0.86518 0.94683 0.0
C1126 C 0.62837 0.89832 0.94008 0.0
C1127 C 0.64579 0.90547 0.86727 0.0
C1128 C 0.63504 0.92368 0.94525 0.0
C1129 C 0.61649 0.93733 0.95616 0.0
C1130 C 0.59094 0.92586 0.96159 0.0
C1131 C 0.58458 0.90037 0.95696 0.0
C1132 C 0.60312 0.88676 0.94653 0.0
H1133 H 0.65096 0.90334 0.83987 0.0
H1134 H 0.62464 0.90466 0.86884 0.0
H1135 H 0.65505 0.92392 0.87572 0.0
H1136 H 0.65451 0.93289 0.9406 0.0
H1137 H 0.62207 0.95688 0.95984 0.0
H1138 H 0.85195 0.7241 0.17825 0.0
H1139 H 0.87116 0.6939 0.14699 0.0
H1140 H 0.79909 0.67024 0.09438 0.0
H1141 H 0.77961 0.70069 0.12539 0.0
H1142 H 0.85274 0.64301 0.15259 0.0
H1143 H 0.85278 0.67689 0.01581 0.0
H1144 H 0.84969 0.69649 0.05178 0.0
H1145 H 0.82291 0.67403 0.03877 0.0
C1146 C 0.84022 0.71279 0.15964 0.0
C1147 C 0.81418 0.71479 0.15447 0.0
C1148 C 0.85125 0.6955 0.14181 0.0
C1149 C 0.83658 0.67987 0.11834 0.0
C1150 C 0.81084 0.68234 0.11206 0.0
H1151 H 0.8975 0.5482 0.05236 0.0
H1152 H 0.86626 0.57387 0.07038 0.0
C1153 C 0.79974 0.69974 0.12988 0.0
C1154 C 0.84797 0.6599 0.10274 0.0
H1155 H 0.86953 0.64044 0.02696 0.0
C1156 C 0.85621 0.6423 0.12507 0.0
C1157 C 0.85232 0.65899 0.06681 0.0
C1158 C 0.84415 0.67765 0.04177 0.0
C1159 C 0.86964 0.62441 0.11266 0.0
C1160 C 0.87471 0.62397 0.07692 0.0
C1161 C 0.86557 0.64091 0.05434 0.0
C1162 C 0.8923 0.60821 0.06343 0.0
C1163 C 0.87944 0.60685 0.13802 0.0
C1164 C 0.91702 0.61908 0.05317 0.0
C1165 C 0.93484 0.60459 0.04316 0.0
C1166 C 0.92829 0.57884 0.04314 0.0
C1167 C 0.90322 0.56795 0.05254 0.0
C1168 C 0.88536 0.58256 0.0627 0.0
H1169 H 0.87614 0.6113 0.1653 0.0
H1170 H 0.86949 0.58789 0.13325 0.0
H1171 H 0.90036 0.60718 0.13435 0.0
H1172 H 0.92273 0.63885 0.05361 0.0
H1173 H 0.95382 0.61364 0.03558 0.0
H1174 H 0.30684 0.8136 0.12678 0.0
H1175 H 0.34051 0.84568 0.10423 0.0
H1176 H 0.3001 0.90125 0.14277 0.0
H1177 H 0.26679 0.86928 0.16637 0.0
H1178 H 0.34622 0.88784 0.06239 0.0
H1179 H 0.36604 0.9095 0.20084 0.0
H1180 H 0.34392 0.88286 0.18742 0.0
H1181 H 0.33426 0.91263 0.18625 0.0
C1182 C 0.30471 0.83265 0.12943 0.0
C1183 C 0.28456 0.83902 0.14889 0.0
C1184 C 0.32398 0.85095 0.11664 0.0
C1185 C 0.3231 0.87574 0.12288 0.0
C1186 C 0.3014 0.88216 0.1386 0.0
H1187 H 0.44434 0.99253 0.05292 0.0
H1188 H 0.40223 0.96972 0.06833 0.0
C1189 C 0.28236 0.86391 0.15186 0.0
C1190 C 0.34623 0.89435 0.11705 0.0
H1191 H 0.39266 0.93314 0.15988 0.0
C1192 C 0.35628 0.89793 0.08359 0.0
C1193 C 0.35955 0.90702 0.14504 0.0
C1194 C 0.35059 0.9027 0.18196 0.0
C1195 C 0.37945 0.91383 0.07735 0.0
C1196 C 0.39242 0.92682 0.10524 0.0
C1197 C 0.38234 0.92336 0.13861 0.0
C1198 C 0.41741 0.94285 0.10049 0.0
C1199 C 0.39035 0.91588 0.04126 0.0
C1200 C 0.43968 0.93605 0.11529 0.0
C1201 C 0.46385 0.94906 0.10669 0.0
C1202 C 0.46596 0.96904 0.08313 0.0
C1203 C 0.44341 0.97702 0.07079 0.0
C1204 C 0.41932 0.96398 0.07938 0.0
H1205 H 0.38136 0.90044 0.02496 0.0
H1206 H 0.38673 0.9333 0.02878 0.0
H1207 H 0.41147 0.91615 0.04192 0.0
H1208 H 0.43844 0.91985 0.13194 0.0
H1209 H 0.4808 0.94247 0.1167 0.0
H1210 H 0.68815 0.16772 0.22227 0.0
H1211 H 0.66186 0.14166 0.18094 0.0
H1212 H 0.71051 0.17449 0.09781 0.0
H1213 H 0.7374 0.20051 0.13955 0.0
H1214 H 0.63643 0.16474 0.12834 0.0
H1215 H 0.69566 0.09988 0.07489 0.0
H1216 H 0.70319 0.11468 0.11579 0.0
H1217 H 0.70963 0.13189 0.07611 0.0
C1218 C 0.69375 0.16886 0.19533 0.0
C1219 C 0.71477 0.18615 0.18408 0.0
C1220 C 0.67867 0.15401 0.17173 0.0
C1221 C 0.68413 0.1562 0.13629 0.0
C1222 C 0.70612 0.1723 0.12509 0.0
H1223 H 0.5524 0.10398 0.9996 0.0
H1224 H 0.59161 0.1297 0.02079 0.0
C1225 C 0.7215 0.1871 0.14894 0.0
C1226 C 0.66483 0.14381 0.11147 0.0
H1227 H 0.65296 0.09693 0.05434 0.0
C1228 C 0.64009 0.15008 0.11184 0.0
C1229 C 0.66974 0.12476 0.09001 0.0
C1230 C 0.69592 0.11718 0.0891 0.0
C1231 C 0.61979 0.13713 0.0926 0.0
C1232 C 0.62447 0.11766 0.07166 0.0
C1233 C 0.64948 0.11196 0.07023 0.0
C1234 C 0.60301 0.10142 0.05438 0.0
C1235 C 0.5932 0.14354 0.09643 0.0
C1236 C 0.59709 0.07669 0.06491 0.0
C1237 C 0.57486 0.06192 0.05273 0.0
C1238 C 0.55798 0.07162 0.02979 0.0
C1239 C 0.56469 0.09606 0.01778 0.0
C1240 C 0.58709 0.1108 0.02985 0.0
H1241 H 0.59203 0.15563 0.11874 0.0
H1242 H 0.5881 0.15339 0.07268 0.0
H1243 H 0.57867 0.12669 0.09991 0.0
H1244 H 0.60913 0.06904 0.08374 0.0
H1245 H 0.57052 0.04311 0.06221 0.0
H1246 H 0.64324 0.69464 0.79067 0.0
H1247 H 0.6096 0.66443 0.81709 0.0
H1248 H 0.66 0.61037 0.81766 0.0
H1249 H 0.69395 0.64044 0.79117 0.0
H1250 H 0.60303 0.5941 0.79774 0.0
H1251 H 0.6225 0.64318 0.92186 0.0
H1252 H 0.61763 0.66171 0.88426 0.0
H1253 H 0.64536 0.64674 0.88696 0.0
C1254 C 0.64714 0.67625 0.79589 0.0
C1255 C 0.67145 0.67007 0.78918 0.0
C1256 C 0.62785 0.65902 0.81095 0.0
C1257 C 0.63247 0.63533 0.81951 0.0
C1258 C 0.65614 0.62862 0.81118 0.0
H1259 H 0.55569 0.53848 0.97718 0.0
H1260 H 0.58678 0.56086 0.93691 0.0
C1261 C 0.67552 0.64586 0.79616 0.0
C1262 C 0.61354 0.61843 0.84011 0.0
H1263 H 0.5879 0.61025 0.92088 0.0
C1264 C 0.59965 0.59753 0.82466 0.0
C1265 C 0.60952 0.62293 0.87528 0.0
C1266 C 0.62461 0.64474 0.89331 0.0
C1267 C 0.58146 0.58108 0.84356 0.0
C1268 C 0.5771 0.58588 0.87858 0.0
C1269 C 0.59125 0.60667 0.89399 0.0
C1270 C 0.55819 0.56962 0.90021 0.0
C1271 C 0.56734 0.55857 0.82616 0.0
C1272 C 0.53178 0.56682 0.89263 0.0
C1273 C 0.51386 0.55397 0.91565 0.0
C1274 C 0.52211 0.54396 0.94678 0.0
C1275 C 0.54864 0.5461 0.9536 0.0
C1276 C 0.56647 0.55884 0.93057 0.0
H1277 H 0.57707 0.55456 0.80212 0.0
H1278 H 0.56569 0.54227 0.84385 0.0
H1279 H 0.54761 0.56161 0.81918 0.0
H1280 H 0.52497 0.57538 0.86962 0.0
H1281 H 0.49356 0.5527 0.90967 0.0
H1282 H 0.33914 0.69713 0.78073 0.0
H1283 H 0.36859 0.67482 0.81333 0.0
H1284 H 0.32401 0.67781 0.90554 0.0
H1285 H 0.29513 0.70042 0.87373 0.0
H1286 H 0.37583 0.68962 0.91775 0.0
H1287 H 0.35203 0.60312 0.84429 0.0
H1288 H 0.36387 0.63028 0.81911 0.0
H1289 H 0.33329 0.62758 0.84014 0.0
C1290 C 0.33561 0.69289 0.8079 0.0
C1291 C 0.3148 0.70045 0.82464 0.0
C1292 C 0.35241 0.68018 0.82645 0.0
C1293 C 0.34833 0.67458 0.86176 0.0
C1294 C 0.32757 0.6821 0.87836 0.0
H1295 H 0.38537 0.55993 0.99068 0.0
H1296 H 0.36635 0.59093 0.95816 0.0
C1297 C 0.31102 0.69493 0.86006 0.0
C1298 C 0.36505 0.66038 0.88182 0.0
H1299 H 0.38093 0.6032 0.89087 0.0
C1300 C 0.37721 0.67078 0.91177 0.0
C1301 C 0.36657 0.6358 0.87393 0.0
C1302 C 0.35312 0.62338 0.8428 0.0
C1303 C 0.39006 0.65692 0.93484 0.0
C1304 C 0.39112 0.63223 0.92724 0.0
C1305 C 0.37991 0.62216 0.89658 0.0
C1306 C 0.40231 0.61581 0.95152 0.0
C1307 C 0.4013 0.6684 0.96784 0.0
C1308 C 0.42865 0.62008 0.95968 0.0
C1309 C 0.43951 0.6025 0.97873 0.0
C1310 C 0.4242 0.58032 0.98917 0.0
C1311 C 0.39762 0.57678 0.98264 0.0
C1312 C 0.38677 0.59443 0.96404 0.0
H1313 H 0.39412 0.68576 0.97317 0.0
H1314 H 0.39668 0.65554 0.99022 0.0
H1315 H 0.42254 0.67265 0.96559 0.0
H1316 H 0.441 0.63634 0.94986 0.0
H1317 H 0.4601 0.60558 0.98327 0.0
H1318 H 0.37376 0.30573 0.78334 0.0
H1319 H 0.40248 0.33411 0.81942 0.0
H1320 H 0.35175 0.38757 0.80801 0.0
H1321 H 0.32274 0.35939 0.7719 0.0
H1322 H 0.41625 0.40167 0.80921 0.0
H1323 H 0.36299 0.34814 0.91749 0.0
H1324 H 0.37246 0.33203 0.88101 0.0
H1325 H 0.34824 0.35111 0.87556 0.0
C1326 C 0.36902 0.32378 0.78759 0.0
C1327 C 0.34569 0.33012 0.77526 0.0
C1328 C 0.38549 0.33996 0.80818 0.0
C1329 C 0.37897 0.36269 0.81647 0.0
C1330 C 0.35698 0.37002 0.80174 0.0
H1331 H 0.44339 0.47658 0.95815 0.0
H1332 H 0.42042 0.45315 0.91127 0.0
C1333 C 0.34044 0.35386 0.78117 0.0
C1334 C 0.39289 0.37705 0.84442 0.0
H1335 H 0.39611 0.38014 0.93233 0.0
C1336 C 0.41193 0.39709 0.83615 0.0
C1337 C 0.38709 0.37078 0.87937 0.0
C1338 C 0.36654 0.3494 0.88919 0.0
C1339 C 0.42564 0.41102 0.8623 0.0
C1340 C 0.41963 0.40489 0.89735 0.0
C1341 C 0.40059 0.38477 0.90544 0.0
C1342 C 0.43298 0.41898 0.92616 0.0
C1343 C 0.44676 0.43179 0.85224 0.0
C1344 C 0.44669 0.40722 0.95088 0.0
C1345 C 0.45955 0.42045 0.97798 0.0
C1346 C 0.45894 0.44569 0.98076 0.0
C1347 C 0.44444 0.45721 0.95658 0.0
C1348 C 0.4315 0.44393 0.92957 0.0
H1349 H 0.45337 0.43002 0.82538 0.0
H1350 H 0.43942 0.44945 0.85372 0.0
H1351 H 0.46352 0.43253 0.87009 0.0
H1352 H 0.44777 0.38787 0.94887 0.0
H1353 H 0.4704 0.41099 0.99629 0.0
H1354 H 0.70206 0.35639 0.7808 0.0
H1355 H 0.67628 0.38004 0.81449 0.0
H1356 H 0.61642 0.31687 0.82329 0.0
H1357 H 0.6422 0.29282 0.78995 0.0
H1358 H 0.62553 0.3909 0.80741 0.0
H1359 H 0.63795 0.33338 0.92428 0.0
H1360 H 0.65681 0.33282 0.88576 0.0
H1361 H 0.62434 0.31664 0.88735 0.0
C1362 C 0.68325 0.34755 0.78944 0.0
C1363 C 0.67436 0.32257 0.78313 0.0
C1364 C 0.66856 0.36114 0.80866 0.0
C1365 C 0.64477 0.35 0.82194 0.0
C1366 C 0.63502 0.32559 0.81378 0.0
H1367 H 0.5355 0.39395 0.96054 0.0
H1368 H 0.55999 0.37295 0.92123 0.0
C1369 C 0.64971 0.31194 0.79455 0.0
C1370 C 0.63099 0.36351 0.84605 0.0
H1371 H 0.61097 0.36331 0.92964 0.0
C1372 C 0.62235 0.38495 0.83415 0.0
C1373 C 0.62718 0.35574 0.88097 0.0
C1374 C 0.63723 0.33352 0.89556 0.0
C1375 C 0.60935 0.39854 0.85616 0.0
C1376 C 0.60533 0.3906 0.89097 0.0
C1377 C 0.61415 0.36928 0.9029 0.0
C1378 C 0.59107 0.40357 0.91517 0.0
C1379 C 0.59949 0.42092 0.84187 0.0
C1380 C 0.60078 0.42759 0.92528 0.0
C1381 C 0.58683 0.43971 0.94788 0.0
C1382 C 0.563 0.42791 0.96062 0.0
C1383 C 0.5537 0.40364 0.95099 0.0
C1384 C 0.56765 0.39157 0.92856 0.0
H1385 H 0.59955 0.42166 0.81314 0.0
H1386 H 0.57963 0.42123 0.85089 0.0
H1387 H 0.61197 0.43768 0.85128 0.0
H1388 H 0.6191 0.43694 0.91565 0.0
H1389 H 0.59453 0.45836 0.95497 0.0
H1390 H 0.65789 0.26725 0.18587 0.0
H1391 H 0.632 0.28522 0.14258 0.0
H1392 H 0.68294 0.35459 0.14977 0.0
H1393 H 0.70917 0.33681 0.19262 0.0
H1394 H 0.60693 0.32359 0.1525 0.0
H1395 H 0.67561 0.34643 0.04554 0.0
H1396 H 0.6803 0.32493 0.08005 0.0
H1397 H 0.68973 0.35747 0.08579 0.0
C1398 C 0.66366 0.28633 0.17817 0.0
C1399 C 0.68559 0.30065 0.19273 0.0
C1400 C 0.64895 0.29646 0.15324 0.0
C1401 C 0.65601 0.32098 0.14235 0.0
C1402 C 0.6777 0.33537 0.15705 0.0
H1403 H 0.60962 0.44693 0.08569 0.0
H1404 H 0.63101 0.41123 0.09269 0.0
C1405 C 0.69243 0.32529 0.18192 0.0
C1406 C 0.63933 0.33255 0.11854 0.0
H1407 H 0.64232 0.37231 0.04951 0.0
C1408 C 0.61427 0.33364 0.1293 0.0
C1409 C 0.64896 0.3453 0.08813 0.0
C1410 C 0.67505 0.34324 0.07401 0.0
C1411 C 0.59957 0.34939 0.11262 0.0
C1412 C 0.61025 0.36402 0.08421 0.0
C1413 C 0.63432 0.36113 0.07143 0.0
C1414 C 0.59911 0.38555 0.07245 0.0
C1415 C 0.57379 0.35192 0.12751 0.0
C1416 C 0.57453 0.38294 0.05744 0.0
C1417 C 0.56208 0.4033 0.05386 0.0
C1418 C 0.5742 0.42647 0.06502 0.0
C1419 C 0.59964 0.42927 0.07735 0.0
C1420 C 0.61197 0.40893 0.08108 0.0
H1421 H 0.56954 0.34089 0.15175 0.0
H1422 H 0.57312 0.37145 0.13306 0.0
H1423 H 0.55837 0.34565 0.10842 0.0
H1424 H 0.56451 0.36502 0.05025 0.0
H1425 H 0.54259 0.40063 0.04379 0.0
H1426 H 0.68944 0.67871 0.27726 0.0
H1427 H 0.65321 0.64597 0.26358 0.0
H1428 H 0.64509 0.67976 0.16337 0.0
H1429 H 0.68093 0.7121 0.17642 0.0
H1430 H 0.59593 0.65869 0.21703 0.0
H1431 H 0.66308 0.5984 0.17088 0.0
H1432 H 0.67012 0.61697 0.20876 0.0
H1433 H 0.6722 0.63128 0.16661 0.0
C1434 C 0.67965 0.67927 0.25255 0.0
C1435 C 0.68816 0.69778 0.22776 0.0
C1436 C 0.65906 0.66063 0.24482 0.0
C1437 C 0.64672 0.66061 0.21249 0.0
C1438 C 0.65449 0.67958 0.18844 0.0
H1439 H 0.53104 0.5993 0.07515 0.0
H1440 H 0.56063 0.6239 0.11472 0.0
C1441 C 0.67505 0.69795 0.19592 0.0
C1442 C 0.6268 0.64017 0.20195 0.0
H1443 H 0.61978 0.58914 0.15262 0.0
C1444 C 0.60095 0.64308 0.2037 0.0
C1445 C 0.63358 0.61994 0.18473 0.0
C1446 C 0.66123 0.61622 0.18255 0.0
C1447 C 0.5817 0.62683 0.18693 0.0
C1448 C 0.58875 0.60773 0.16721 0.0
C1449 C 0.61444 0.60393 0.16748 0.0
C1450 C 0.5703 0.59271 0.14398 0.0
C1451 C 0.55412 0.63063 0.18986 0.0
C1452 C 0.56672 0.567 0.1464 0.0
C1453 C 0.5502 0.55288 0.12338 0.0
C1454 C 0.53697 0.56424 0.09751 0.0
C1455 C 0.54083 0.59 0.0949 0.0
C1456 C 0.5575 0.60409 0.11777 0.0
H1457 H 0.55093 0.63968 0.21445 0.0
H1458 H 0.54954 0.64281 0.16827 0.0
H1459 H 0.54062 0.61297 0.18857 0.0
H1460 H 0.57667 0.55787 0.16617 0.0
H1461 H 0.54762 0.53306 0.12613 0.0
H1462 H 0.2971 0.69533 0.25841 0.0
H1463 H 0.32282 0.66457 0.24088 0.0
H1464 H 0.33496 0.70079 0.14102 0.0
H1465 H 0.30899 0.7311 0.15789 0.0
H1466 H 0.31881 0.65128 0.13638 0.0
H1467 H 0.40052 0.67154 0.22929 0.0
H1468 H 0.36913 0.66499 0.2483 0.0
H1469 H 0.3777 0.69217 0.22179 0.0
C1470 C 0.30552 0.69687 0.23288 0.0
C1471 C 0.30097 0.7156 0.2095 0.0
C1472 C 0.32023 0.67933 0.22295 0.0
C1473 C 0.33088 0.68052 0.18973 0.0
C1474 C 0.32681 0.69951 0.16673 0.0
H1475 H 0.45177 0.62056 0.09898 0.0
H1476 H 0.42291 0.64448 0.12629 0.0
C1477 C 0.31199 0.71684 0.17646 0.0
C1478 C 0.34559 0.66168 0.17802 0.0
H1479 H 0.40136 0.63893 0.19124 0.0
C1480 C 0.33678 0.64841 0.14848 0.0
C1481 C 0.36904 0.65815 0.19386 0.0
C1482 C 0.37985 0.67257 0.2249 0.0
C1483 C 0.35121 0.63223 0.13363 0.0
C1484 C 0.37475 0.62883 0.14932 0.0
C1485 C 0.38319 0.64154 0.17946 0.0
C1486 C 0.39197 0.6138 0.13326 0.0
C1487 C 0.34172 0.61985 0.10041 0.0
C1488 C 0.3841 0.58859 0.1282 0.0
C1489 C 0.4005 0.57485 0.11222 0.0
C1490 C 0.42511 0.58611 0.10151 0.0
C1491 C 0.43295 0.61132 0.10697 0.0
C1492 C 0.41652 0.62502 0.12267 0.0
H1493 H 0.32629 0.62853 0.08788 0.0
H1494 H 0.35771 0.62046 0.0818 0.0
H1495 H 0.33379 0.6003 0.10608 0.0
H1496 H 0.36535 0.57953 0.13672 0.0
H1497 H 0.39401 0.55542 0.10858 0.0
H1498 H 0.32831 0.30413 0.19138 0.0
H1499 H 0.3633 0.33798 0.18032 0.0
H1500 H 0.36149 0.35987 0.28644 0.0
H1501 H 0.32617 0.32583 0.29798 0.0
H1502 H 0.36213 0.39899 0.23468 0.0
H1503 H 0.43886 0.34331 0.21495 0.0
H1504 H 0.41002 0.33253 0.1909 0.0
H1505 H 0.40937 0.33152 0.23741 0.0
C1506 C 0.33534 0.31601 0.21252 0.0
C1507 C 0.32445 0.3122 0.24562 0.0
C1508 C 0.35545 0.33529 0.20615 0.0
C1509 C 0.36515 0.35116 0.23268 0.0
C1510 C 0.35433 0.34764 0.26573 0.0
H1511 H 0.50255 0.45305 0.16996 0.0
H1512 H 0.47292 0.42708 0.20878 0.0
C1513 C 0.33421 0.32819 0.27225 0.0
C1514 C 0.38605 0.37182 0.22497 0.0
H1515 H 0.44581 0.38402 0.18966 0.0
C1516 C 0.38066 0.39586 0.2255 0.0
C1517 C 0.41032 0.36768 0.21365 0.0
C1518 C 0.41764 0.34238 0.21449 0.0
C1519 C 0.39833 0.41573 0.21254 0.0
C1520 C 0.42169 0.41125 0.19832 0.0
C1521 C 0.42778 0.38743 0.20022 0.0
C1522 C 0.43892 0.43022 0.17823 0.0
C1523 C 0.39155 0.44119 0.21346 0.0
C1524 C 0.42958 0.44092 0.14845 0.0
C1525 C 0.44642 0.45579 0.12621 0.0
C1526 C 0.47302 0.46 0.1331 0.0
C1527 C 0.4822 0.45011 0.16375 0.0
C1528 C 0.4653 0.43529 0.18604 0.0
H1529 H 0.37844 0.44288 0.23525 0.0
H1530 H 0.409 0.45537 0.21599 0.0
H1531 H 0.3814 0.44492 0.1891 0.0
H1532 H 0.4094 0.4368 0.14143 0.0
H1533 H 0.43868 0.46308 0.10286 0.0
H1534 H 0.77809 0.65283 0.69958 0.0
H1535 H 0.80802 0.63049 0.67124 0.0
H1536 H 0.83981 0.69605 0.61383 0.0
H1537 H 0.80978 0.71872 0.64201 0.0
H1538 H 0.83307 0.64957 0.57511 0.0
H1539 H 0.88572 0.64596 0.69993 0.0
H1540 H 0.85175 0.63485 0.70202 0.0
H1541 H 0.86305 0.66668 0.6919 0.0
C1542 C 0.79113 0.6625 0.68054 0.0
C1543 C 0.79167 0.68771 0.67342 0.0
C1544 C 0.80828 0.64967 0.66443 0.0
C1545 C 0.8264 0.66172 0.6409 0.0
C1546 C 0.82603 0.68645 0.63205 0.0
H1547 H 0.96837 0.60846 0.59377 0.0
H1548 H 0.93631 0.63381 0.6086 0.0
C1549 C 0.80882 0.69937 0.64819 0.0
C1550 C 0.84684 0.6489 0.62769 0.0
H1551 H 0.89808 0.6225 0.65448 0.0
C1552 C 0.84738 0.64373 0.59236 0.0
C1553 C 0.86571 0.64164 0.65017 0.0
C1554 C 0.86679 0.64771 0.68808 0.0
C1555 C 0.86595 0.63085 0.5791 0.0
C1556 C 0.88424 0.62278 0.60188 0.0
C1557 C 0.884 0.62855 0.63703 0.0
C1558 C 0.90372 0.60813 0.5902 0.0
C1559 C 0.86588 0.62619 0.54082 0.0
C1560 C 0.89612 0.58523 0.57486 0.0
C1561 C 0.91443 0.57068 0.56638 0.0
C1562 C 0.94072 0.57865 0.57325 0.0
C1563 C 0.94829 0.6017 0.58825 0.0
C1564 C 0.92998 0.61625 0.59667 0.0
H1565 H 0.85714 0.64017 0.5258 0.0
H1566 H 0.88563 0.6262 0.53123 0.0
H1567 H 0.85427 0.60794 0.5358 0.0
H1568 H 0.87596 0.57831 0.57024 0.0
H1569 H 0.9079 0.55297 0.55501 0.0
H1570 H 0.35032 0.76207 0.68635 0.0
H1571 H 0.3877 0.78559 0.65633 0.0
H1572 H 0.34709 0.84699 0.64373 0.0
H1573 H 0.31002 0.82386 0.67325 0.0
H1574 H 0.37667 0.83715 0.58441 0.0
H1575 H 0.4316 0.84384 0.70899 0.0
H1576 H 0.41815 0.81392 0.69347 0.0
H1577 H 0.39721 0.83412 0.70778 0.0
C1578 C 0.34925 0.7804 0.67651 0.0
C1579 C 0.32741 0.79126 0.68253 0.0
C1580 C 0.37061 0.79381 0.65955 0.0
C1581 C 0.37018 0.81809 0.64823 0.0
C1582 C 0.34779 0.82829 0.65233 0.0
H1583 H 0.45071 0.95773 0.63005 0.0
H1584 H 0.42943 0.91657 0.64677 0.0
C1585 C 0.32667 0.81508 0.66938 0.0
C1586 C 0.3934 0.83417 0.635 0.0
H1587 H 0.44738 0.87112 0.66414 0.0
C1588 C 0.3926 0.84413 0.60138 0.0
C1589 C 0.41394 0.8433 0.65748 0.0
C1590 C 0.41544 0.83342 0.69402 0.0
C1591 C 0.41085 0.86419 0.59042 0.0
C1592 C 0.43048 0.87427 0.6137 0.0
C1593 C 0.4323 0.86324 0.64645 0.0
C1594 C 0.44667 0.8983 0.60644 0.0
C1595 C 0.40783 0.87562 0.55505 0.0
C1596 C 0.46419 0.90147 0.5791 0.0
C1597 C 0.47642 0.92501 0.56944 0.0
C1598 C 0.47129 0.94576 0.587 0.0
C1599 C 0.45503 0.94224 0.61586 0.0
C1600 C 0.44286 0.91871 0.62547 0.0
H1601 H 0.38973 0.86736 0.54187 0.0
H1602 H 0.40803 0.89568 0.5571 0.0
H1603 H 0.4242 0.873 0.53855 0.0
H1604 H 0.46764 0.88587 0.56444 0.0
H1605 H 0.48894 0.92698 0.54719 0.0
H1606 H 0.23652 0.34449 0.67688 0.0
H1607 H 0.2065 0.36337 0.64094 0.0
H1608 H 0.19738 0.3018 0.57284 0.0
H1609 H 0.22745 0.28249 0.6088 0.0
H1610 H 0.20258 0.35538 0.54162 0.0
H1611 H 0.12687 0.32816 0.64025 0.0
H1612 H 0.15775 0.34191 0.65699 0.0
H1613 H 0.15439 0.31275 0.6363 0.0
C1614 C 0.22855 0.33506 0.65397 0.0
C1615 C 0.23425 0.31182 0.64598 0.0
C1616 C 0.21134 0.34589 0.63351 0.0
C1617 C 0.19952 0.33377 0.60463 0.0
C1618 C 0.20627 0.31133 0.59519 0.0
H1619 H 0.06471 0.39442 0.52584 0.0
H1620 H 0.09197 0.36319 0.53888 0.0
C1621 C 0.2235 0.30039 0.61574 0.0
C1622 C 0.17895 0.3441 0.58602 0.0
H1623 H 0.11962 0.35913 0.59907 0.0
C1624 C 0.18423 0.35584 0.55378 0.0
C1625 C 0.15487 0.34422 0.60164 0.0
C1626 C 0.14792 0.33091 0.63559 0.0
C1627 C 0.16668 0.3693 0.53796 0.0
C1628 C 0.14349 0.37118 0.55511 0.0
C1629 C 0.13744 0.35782 0.58603 0.0
C1630 C 0.12708 0.3894 0.54422 0.0
C1631 C 0.17365 0.38208 0.50368 0.0
C1632 C 0.13772 0.41439 0.54335 0.0
C1633 C 0.12228 0.43211 0.53637 0.0
C1634 C 0.09573 0.42532 0.53022 0.0
C1635 C 0.08503 0.40024 0.5308 0.0
C1636 C 0.10059 0.38241 0.53798 0.0
H1637 H 0.18415 0.37076 0.48737 0.0
H1638 H 0.15646 0.38606 0.48923 0.0
H1639 H 0.18661 0.3997 0.50828 0.0
H1640 H 0.15797 0.42026 0.54887 0.0
H1641 H 0.13125 0.45123 0.53598 0.0
H1642 H 0.69021 0.23175 0.60775 0.0
H1643 H 0.66584 0.19845 0.57402 0.0
H1644 H 0.63292 0.16412 0.66819 0.0
H1645 H 0.65569 0.19781 0.70138 0.0
H1646 H 0.66839 0.153 0.57179 0.0
H1647 H 0.56975 0.15704 0.61281 0.0
H1648 H 0.59613 0.18104 0.62291 0.0
H1649 H 0.58895 0.15404 0.65061 0.0
C1650 C 0.6772 0.21741 0.62106 0.0
C1651 C 0.67459 0.21768 0.6572 0.0
C1652 C 0.6634 0.19828 0.60179 0.0
C1653 C 0.647 0.17887 0.61833 0.0
C1654 C 0.64451 0.17922 0.65444 0.0
H1655 H 0.60949 0.02844 0.5521 0.0
H1656 H 0.63113 0.06908 0.56984 0.0
C1657 C 0.65774 0.19855 0.67352 0.0
C1658 C 0.63382 0.15738 0.59858 0.0
H1659 H 0.5773 0.11735 0.59362 0.0
C1660 C 0.64832 0.14546 0.57611 0.0
C1661 C 0.60744 0.14771 0.60318 0.0
C1662 C 0.58968 0.16086 0.62337 0.0
C1663 C 0.63756 0.12363 0.55964 0.0
C1664 C 0.61192 0.11267 0.56714 0.0
C1665 C 0.59713 0.12525 0.58828 0.0
C1666 C 0.59993 0.08816 0.55393 0.0
C1667 C 0.65376 0.11288 0.53403 0.0
C1668 C 0.57496 0.08497 0.53979 0.0
C1669 C 0.56236 0.06168 0.53089 0.0
C1670 C 0.57449 0.04101 0.53531 0.0
C1671 C 0.5998 0.04414 0.54818 0.0
C1672 C 0.61224 0.06745 0.55799 0.0
H1673 H 0.66799 0.12746 0.52158 0.0
H1674 H 0.66467 0.09999 0.54781 0.0
H1675 H 0.64178 0.10283 0.51346 0.0
H1676 H 0.56494 0.10048 0.53617 0.0
H1677 H 0.54301 0.05987 0.52061 0.0
H1678 H 0.79665 0.30179 0.3854 0.0
H1679 H 0.82563 0.33313 0.41603 0.0
H1680 H 0.80165 0.3893 0.34986 0.0
H1681 H 0.77325 0.3578 0.31798 0.0
H1682 H 0.85174 0.39413 0.35156 0.0
H1683 H 0.81784 0.38259 0.48653 0.0
H1684 H 0.82428 0.35418 0.47002 0.0
H1685 H 0.79901 0.36853 0.45085 0.0
C1686 C 0.79703 0.32084 0.3778 0.0
C1687 C 0.78267 0.32727 0.34911 0.0
C1688 C 0.81356 0.33881 0.39555 0.0
C1689 C 0.81564 0.36364 0.38557 0.0
C1690 C 0.80034 0.37024 0.35805 0.0
H1691 H 0.90593 0.48334 0.49569 0.0
H1692 H 0.87203 0.45273 0.47206 0.0
C1693 C 0.78406 0.35223 0.33992 0.0
C1694 C 0.8357 0.38228 0.40132 0.0
H1695 H 0.86086 0.40416 0.47839 0.0
C1696 C 0.85353 0.39652 0.3793 0.0
C1697 C 0.838 0.38551 0.43749 0.0
C1698 C 0.81858 0.37206 0.46252 0.0
C1699 C 0.87377 0.41363 0.39239 0.0
C1700 C 0.87682 0.41599 0.42861 0.0
C1701 C 0.85877 0.40205 0.45065 0.0
C1702 C 0.89785 0.4337 0.44409 0.0
C1703 C 0.89134 0.42935 0.36718 0.0
C1704 C 0.92376 0.43286 0.43688 0.0
C1705 C 0.9433 0.45061 0.45004 0.0
C1706 C 0.93722 0.46923 0.47109 0.0
C1707 C 0.91132 0.46937 0.47936 0.0
C1708 C 0.89186 0.45183 0.46593 0.0
H1709 H 0.8822 0.43021 0.34124 0.0
H1710 H 0.89682 0.44837 0.37658 0.0
H1711 H 0.90912 0.42132 0.36412 0.0
H1712 H 0.92887 0.4186 0.42087 0.0
H1713 H 0.96309 0.44979 0.44364 0.0
H1714 H 0.74067 0.84433 0.31347 0.0
H1715 H 0.71354 0.86801 0.3445 0.0
H1716 H 0.6657 0.80106 0.37898 0.0
H1717 H 0.69319 0.77697 0.34813 0.0
H1718 H 0.66314 0.86694 0.328 0.0
H1719 H 0.67378 0.84256 0.46682 0.0
H1720 H 0.69568 0.83574 0.43424 0.0
H1721 H 0.66482 0.81668 0.43931 0.0
C1722 C 0.72462 0.83452 0.32805 0.0
C1723 C 0.71899 0.8087 0.32803 0.0
C1724 C 0.70914 0.84814 0.34588 0.0
C1725 C 0.6876 0.83637 0.36416 0.0
C1726 C 0.68244 0.81056 0.3655 0.0
H1727 H 0.55554 0.9072 0.40095 0.0
H1728 H 0.58445 0.87902 0.38528 0.0
C1729 C 0.69812 0.79681 0.34773 0.0
C1730 C 0.66931 0.85137 0.37835 0.0
H1731 H 0.64115 0.86637 0.45242 0.0
C1732 C 0.6584 0.86681 0.35523 0.0
C1733 C 0.66326 0.85136 0.41392 0.0
C1734 C 0.67514 0.83587 0.44013 0.0
C1735 C 0.64163 0.88217 0.36655 0.0
C1736 C 0.63506 0.88177 0.40194 0.0
C1737 C 0.64607 0.86649 0.42525 0.0
C1738 C 0.61685 0.89729 0.41479 0.0
C1739 C 0.63146 0.89907 0.34052 0.0
C1740 C 0.62518 0.91643 0.43765 0.0
C1741 C 0.60865 0.93267 0.4467 0.0
C1742 C 0.58345 0.92995 0.43317 0.0
C1743 C 0.57492 0.91011 0.41145 0.0
C1744 C 0.59141 0.89392 0.40247 0.0
H1745 H 0.64326 0.90167 0.31669 0.0
H1746 H 0.61154 0.89099 0.33298 0.0
H1747 H 0.63101 0.91735 0.35167 0.0
H1748 H 0.64472 0.91927 0.44759 0.0
H1749 H 0.61578 0.94762 0.46373 0.0
H1750 H 0.1535 0.72879 0.31551 0.0
H1751 H 0.12507 0.69401 0.34133 0.0
H1752 H 0.18921 0.65522 0.35555 0.0
H1753 H 0.21806 0.69026 0.32985 0.0
H1754 H 0.11885 0.64769 0.31015 0.0
H1755 H 0.14936 0.64343 0.44809 0.0
H1756 H 0.15718 0.67087 0.42138 0.0
H1757 H 0.17459 0.64582 0.41666 0.0
C1758 C 0.16171 0.71308 0.32476 0.0
C1759 C 0.18797 0.71213 0.32039 0.0
C1760 C 0.14542 0.69324 0.33949 0.0
C1761 C 0.15505 0.6721 0.3502 0.0
C1762 C 0.18151 0.67154 0.34775 0.0
H1763 H 0.06736 0.52549 0.37461 0.0
H1764 H 0.09502 0.56234 0.3525 0.0
C1765 C 0.19794 0.69154 0.33309 0.0
C1766 C 0.13684 0.64995 0.36056 0.0
H1767 H 0.11821 0.61071 0.42825 0.0
C1768 C 0.11867 0.63957 0.33598 0.0
C1769 C 0.13668 0.6396 0.39427 0.0
C1770 C 0.15534 0.65054 0.42181 0.0
C1771 C 0.10021 0.61905 0.34426 0.0
C1772 C 0.1002 0.60853 0.37786 0.0
C1773 C 0.11837 0.61888 0.40247 0.0
C1774 C 0.08139 0.58682 0.38823 0.0
C1775 C 0.08057 0.60908 0.31728 0.0
C1776 C 0.06426 0.58857 0.41512 0.0
C1777 C 0.04842 0.56762 0.42779 0.0
C1778 C 0.04961 0.54447 0.41396 0.0
C1779 C 0.06584 0.54301 0.38572 0.0
C1780 C 0.0817 0.56404 0.37307 0.0
H1781 H 0.07951 0.6225 0.29568 0.0
H1782 H 0.08597 0.59224 0.30637 0.0
H1783 H 0.06119 0.60409 0.32888 0.0
H1784 H 0.06373 0.60606 0.42701 0.0
H1785 H 0.0361 0.56945 0.44947 0.0
H1786 H 0.32606 0.2386 0.37449 0.0
H1787 H 0.35625 0.2188 0.40994 0.0
H1788 H 0.31343 0.14769 0.38604 0.0
H1789 H 0.28344 0.16704 0.35073 0.0
H1790 H 0.33536 0.16547 0.46616 0.0
H1791 H 0.40138 0.16732 0.35419 0.0
H1792 H 0.38461 0.19262 0.36234 0.0
H1793 H 0.36719 0.16439 0.34649 0.0
C1794 C 0.32283 0.21878 0.37731 0.0
C1795 C 0.30243 0.2044 0.35958 0.0
C1796 C 0.34011 0.20753 0.39747 0.0
C1797 C 0.33702 0.18183 0.40038 0.0
C1798 C 0.31608 0.16756 0.38403 0.0
H1799 H 0.38752 0.05601 0.48137 0.0
H1800 H 0.36561 0.09019 0.46467 0.0
C1801 C 0.29901 0.17869 0.3638 0.0
C1802 C 0.35629 0.16933 0.41839 0.0
H1803 H 0.40794 0.14151 0.40172 0.0
C1804 C 0.35158 0.16064 0.45242 0.0
C1805 C 0.37745 0.16321 0.40039 0.0
C1806 C 0.3832 0.17234 0.36382 0.0
C1807 C 0.36686 0.14494 0.46837 0.0
C1808 C 0.38686 0.13731 0.44944 0.0
C1809 C 0.39251 0.14725 0.41615 0.0
C1810 C 0.40033 0.11721 0.46215 0.0
C1811 C 0.36108 0.13616 0.50504 0.0
C1812 C 0.42721 0.12093 0.46584 0.0
C1813 C 0.43985 0.10132 0.47528 0.0
C1814 C 0.42584 0.07758 0.48069 0.0
C1815 C 0.39892 0.074 0.47719 0.0
C1816 C 0.38632 0.0936 0.46802 0.0
H1817 H 0.35159 0.14935 0.51941 0.0
H1818 H 0.34778 0.11837 0.50464 0.0
H1819 H 0.37889 0.13339 0.51913 0.0
H1820 H 0.43841 0.13896 0.46117 0.0
H1821 H 0.46061 0.10469 0.47787 0.0
H1822 H 0.65814 0.75754 0.68084 0.0
H1823 H 0.6333 0.78121 0.64338 0.0
H1824 H 0.70346 0.81898 0.5976 0.0
H1825 H 0.72844 0.79483 0.63438 0.0
H1826 H 0.63687 0.82919 0.64843 0.0
H1827 H 0.65741 0.80842 0.51345 0.0
H1828 H 0.66594 0.79015 0.54971 0.0
H1829 H 0.68644 0.81837 0.53745 0.0
C1830 C 0.66828 0.77048 0.66223 0.0
C1831 C 0.69529 0.77444 0.66077 0.0
C1832 C 0.65403 0.78397 0.64079 0.0
C1833 C 0.66646 0.80182 0.61753 0.0
C1834 C 0.69337 0.80498 0.61478 0.0
H1835 H 0.62666 0.93742 0.54316 0.0
H1836 H 0.64754 0.90281 0.56141 0.0
C1837 C 0.70765 0.79124 0.636 0.0
C1838 C 0.65163 0.81924 0.59991 0.0
H1839 H 0.64011 0.84587 0.52181 0.0
C1840 C 0.63728 0.83249 0.62067 0.0
C1841 C 0.6522 0.82366 0.56367 0.0
C1842 C 0.66614 0.8092 0.53977 0.0
C1843 C 0.62413 0.85045 0.6064 0.0
C1844 C 0.62545 0.85543 0.57048 0.0
C1845 C 0.63928 0.84196 0.54943 0.0
C1846 C 0.61347 0.87554 0.55513 0.0
C1847 C 0.60937 0.86453 0.62982 0.0
C1848 C 0.58747 0.87147 0.54521 0.0
C1849 C 0.57539 0.89123 0.53488 0.0
C1850 C 0.58914 0.91534 0.53459 0.0
C1851 C 0.61543 0.91914 0.5435 0.0
C1852 C 0.62747 0.89939 0.55365 0.0
H1853 H 0.60976 0.85805 0.6572 0.0
H1854 H 0.61767 0.88435 0.62845 0.0
H1855 H 0.58904 0.86265 0.62097 0.0
H1856 H 0.57639 0.85312 0.54645 0.0
H1857 H 0.55518 0.88768 0.52793 0.0
H1858 H 0.70149 0.20083 0.38174 0.0
H1859 H 0.66647 0.17171 0.40736 0.0
H1860 H 0.611 0.20926 0.35495 0.0
H1861 H 0.64605 0.23762 0.32772 0.0
H1862 H 0.62329 0.16915 0.44504 0.0
H1863 H 0.59852 0.14389 0.30881 0.0
H1864 H 0.62683 0.16528 0.32006 0.0
H1865 H 0.5958 0.17487 0.319 0.0
C1866 C 0.68184 0.2033 0.37651 0.0
C1867 C 0.67638 0.22107 0.35226 0.0
C1868 C 0.66182 0.18665 0.39113 0.0
C1869 C 0.63616 0.18785 0.38207 0.0
C1870 C 0.63069 0.20755 0.36132 0.0
H1871 H 0.52019 0.0661 0.4611 0.0
H1872 H 0.54036 0.10813 0.44651 0.0
C1873 C 0.65069 0.22381 0.34601 0.0
C1874 C 0.61588 0.16667 0.39028 0.0
H1875 H 0.57545 0.11997 0.35214 0.0
C1876 C 0.61252 0.15856 0.42483 0.0
C1877 C 0.60219 0.15268 0.36368 0.0
C1878 C 0.60611 0.15943 0.3258 0.0
C1879 C 0.59657 0.13634 0.43342 0.0
C1880 C 0.58315 0.12232 0.40675 0.0
C1881 C 0.58564 0.13096 0.37244 0.0
C1882 C 0.56901 0.09725 0.4132 0.0
C1883 C 0.59546 0.12736 0.47062 0.0
C1884 C 0.5776 0.07733 0.39782 0.0
C1885 C 0.56602 0.05334 0.40576 0.0
C1886 C 0.54563 0.04882 0.42935 0.0
C1887 C 0.53604 0.06891 0.4431 0.0
C1888 C 0.54765 0.09295 0.43506 0.0
H1889 H 0.61051 0.13819 0.48693 0.0
H1890 H 0.57642 0.12892 0.48146 0.0
H1891 H 0.59784 0.10775 0.47237 0.0
H1892 H 0.59396 0.08032 0.38064 0.0
H1893 H 0.5739 0.03837 0.39466 0.0
H1894 H 0.84708 0.72836 0.32003 0.0
H1895 H 0.86853 0.70242 0.35828 0.0
H1896 H 0.79527 0.66837 0.3993 0.0
H1897 H 0.77333 0.69435 0.36053 0.0
H1898 H 0.86829 0.69523 0.43166 0.0
H1899 H 0.8274 0.61078 0.3609 0.0
H1900 H 0.82634 0.64119 0.34345 0.0
H1901 H 0.80482 0.62868 0.37737 0.0
C1902 C 0.8354 0.71548 0.33726 0.0
C1903 C 0.80839 0.71324 0.33686 0.0
C1904 C 0.84778 0.70074 0.35928 0.0
C1905 C 0.83352 0.68328 0.38131 0.0
C1906 C 0.80661 0.68155 0.38212 0.0
H1907 H 0.88917 0.56176 0.48839 0.0
H1908 H 0.86275 0.5917 0.46867 0.0
C1909 C 0.79412 0.69647 0.36009 0.0
C1910 C 0.84708 0.66615 0.40171 0.0
H1911 H 0.85683 0.60659 0.40552 0.0
C1912 C 0.86561 0.67577 0.42632 0.0
C1913 C 0.84366 0.64084 0.39448 0.0
C1914 C 0.82464 0.62965 0.36747 0.0
C1915 C 0.88097 0.66077 0.44375 0.0
C1916 C 0.87809 0.63554 0.43577 0.0
C1917 C 0.85908 0.62589 0.41172 0.0
C1918 C 0.89475 0.61873 0.45116 0.0
C1919 C 0.9001 0.67226 0.4704 0.0
C1920 C 0.92171 0.62397 0.4484 0.0
C1921 C 0.937 0.60689 0.46014 0.0
C1922 C 0.92553 0.58405 0.47409 0.0
C1923 C 0.89862 0.57906 0.47737 0.0
C1924 C 0.88345 0.59621 0.46614 0.0
H1925 H 0.89345 0.68813 0.48254 0.0
H1926 H 0.90355 0.65891 0.49106 0.0
H1927 H 0.91865 0.6792 0.4575 0.0
H1928 H 0.93091 0.64094 0.43618 0.0
H1929 H 0.95767 0.6112 0.45716 0.0
H1930 H 0.30157 0.78607 0.36527 0.0
H1931 H 0.33007 0.8097 0.40786 0.0
H1932 H 0.3387 0.87301 0.33907 0.0
H1933 H 0.31032 0.85001 0.2971 0.0
H1934 H 0.38128 0.83554 0.40396 0.0
H1935 H 0.31269 0.89875 0.42801 0.0
H1936 H 0.30339 0.86996 0.4064 0.0
H1937 H 0.31858 0.8968 0.38267 0.0
C1938 C 0.30967 0.80499 0.35925 0.0
C1939 C 0.30333 0.81625 0.32801 0.0
C1940 C 0.3259 0.81845 0.38358 0.0
C1941 C 0.33596 0.84328 0.37694 0.0
C1942 C 0.33058 0.85409 0.34514 0.0
H1943 H 0.46305 0.94755 0.43505 0.0
H1944 H 0.43412 0.9112 0.41565 0.0
C1945 C 0.31437 0.84083 0.32109 0.0
C1946 C 0.35191 0.85846 0.40285 0.0
H1947 H 0.3572 0.91403 0.44129 0.0
C1948 C 0.37587 0.85248 0.41275 0.0
C1949 C 0.34457 0.88021 0.41513 0.0
C1950 C 0.31827 0.88667 0.40782 0.0
C1951 C 0.39346 0.86868 0.43243 0.0
C1952 C 0.3871 0.89164 0.44155 0.0
C1953 C 0.36236 0.89665 0.43387 0.0
C1954 C 0.40624 0.91166 0.45626 0.0
C1955 C 0.41875 0.86115 0.4428 0.0
C1956 C 0.40018 0.92433 0.48533 0.0
C1957 C 0.41641 0.94553 0.49596 0.0
C1958 C 0.43912 0.95444 0.47779 0.0
C1959 C 0.44571 0.94117 0.44959 0.0
C1960 C 0.42929 0.92017 0.43872 0.0
H1961 H 0.41676 0.84087 0.44595 0.0
H1962 H 0.43304 0.86696 0.42214 0.0
H1963 H 0.42628 0.86972 0.46736 0.0
H1964 H 0.3825 0.91817 0.49928 0.0
H1965 H 0.41099 0.95513 0.51811 0.0
H1966 H 0.24072 0.31742 0.36578 0.0
H1967 H 0.21832 0.34636 0.39588 0.0
H1968 H 0.1453 0.30374 0.36767 0.0
H1969 H 0.16731 0.27491 0.33786 0.0
H1970 H 0.18459 0.37401 0.36371 0.0
H1971 H 0.13516 0.31701 0.46982 0.0
H1972 H 0.16182 0.30838 0.44681 0.0
H1973 H 0.12978 0.30225 0.42889 0.0
C1974 C 0.2199 0.31395 0.36663 0.0
C1975 C 0.20583 0.29384 0.34932 0.0
C1976 C 0.20713 0.33054 0.38376 0.0
C1977 C 0.18011 0.32708 0.38441 0.0
C1978 C 0.16613 0.30657 0.36816 0.0
H1979 H 0.05267 0.40029 0.41496 0.0
H1980 H 0.08346 0.37258 0.40525 0.0
C1981 C 0.1788 0.29017 0.35086 0.0
C1982 C 0.16624 0.34592 0.39885 0.0
H1983 H 0.11686 0.35273 0.45238 0.0
C1984 C 0.17014 0.36955 0.38361 0.0
C1985 C 0.14739 0.34009 0.42483 0.0
C1986 C 0.14345 0.31562 0.4438 0.0
C1987 C 0.15467 0.38698 0.3921 0.0
C1988 C 0.13495 0.3807 0.41682 0.0
C1989 C 0.13177 0.35743 0.43313 0.0
C1990 C 0.1164 0.39743 0.4244 0.0
C1991 C 0.15865 0.4115 0.37319 0.0
C1992 C 0.12461 0.42054 0.43883 0.0
C1993 C 0.10705 0.43657 0.44409 0.0
C1994 C 0.08087 0.42968 0.43544 0.0
C1995 C 0.07268 0.4063 0.42168 0.0
C1996 C 0.09024 0.39035 0.41631 0.0
H1997 H 0.17115 0.41163 0.35024 0.0
H1998 H 0.13994 0.41643 0.36461 0.0
H1999 H 0.16796 0.4259 0.39091 0.0
H2000 H 0.14461 0.42621 0.4459 0.0
H2001 H 0.11402 0.45438 0.45492 0.0
H2002 H 0.35327 0.21061 0.71171 0.0
H2003 H 0.37585 0.18153 0.68391 0.0
H2004 H 0.33062 0.18635 0.59108 0.0
H2005 H 0.30693 0.21499 0.61948 0.0
H2006 H 0.33345 0.14002 0.60627 0.0
H2007 H 0.43154 0.19258 0.61433 0.0
H2008 H 0.41757 0.18931 0.65649 0.0
H2009 H 0.40354 0.20628 0.62295 0.0
C2010 C 0.34829 0.20586 0.68518 0.0
C2011 C 0.32837 0.21533 0.66774 0.0
C2012 C 0.36139 0.18927 0.66921 0.0
C2013 C 0.3554 0.18214 0.63509 0.0
C2014 C 0.33572 0.19174 0.61734 0.0
H2015 H 0.46245 0.09445 0.55088 0.0
H2016 H 0.43639 0.12668 0.55823 0.0
C2017 C 0.32227 0.20816 0.63355 0.0
C2018 C 0.36888 0.16365 0.61909 0.0
H2019 H 0.42852 0.14862 0.60988 0.0
C2020 C 0.35427 0.14204 0.60643 0.0
C2021 C 0.39603 0.16645 0.61849 0.0
C2022 C 0.41302 0.19005 0.62844 0.0
C2023 C 0.36605 0.12265 0.59488 0.0
C2024 C 0.39318 0.12461 0.59719 0.0
C2025 C 0.40774 0.14675 0.60837 0.0
C2026 C 0.40709 0.10402 0.58903 0.0
C2027 C 0.34914 0.10053 0.58004 0.0
C2028 C 0.39927 0.08027 0.6032 0.0
C2029 C 0.41353 0.06152 0.59735 0.0
C2030 C 0.43647 0.06652 0.57871 0.0
C2031 C 0.44465 0.09022 0.56514 0.0
C2032 C 0.42981 0.10864 0.56953 0.0
H2033 H 0.3315 0.10568 0.56798 0.0
H2034 H 0.35937 0.09158 0.56028 0.0
H2035 H 0.34288 0.08704 0.60119 0.0
H2036 H 0.38255 0.07632 0.61959 0.0
H2037 H 0.40716 0.04337 0.60844 0.0
H2038 H 0.79706 0.30831 0.62304 0.0
H2039 H 0.83509 0.3357 0.60116 0.0
H2040 H 0.81958 0.39246 0.6687 0.0
H2041 H 0.78165 0.3654 0.69071 0.0
H2042 H 0.84461 0.38962 0.57452 0.0
H2043 H 0.89085 0.37073 0.7001 0.0
H2044 H 0.86263 0.35119 0.68363 0.0
H2045 H 0.85975 0.37995 0.7027 0.0
C2046 C 0.80124 0.32689 0.63243 0.0
C2047 C 0.78656 0.33455 0.65903 0.0
C2048 C 0.82304 0.34245 0.62 0.0
C2049 C 0.8303 0.36581 0.63394 0.0
C2050 C 0.81439 0.37431 0.65805 0.0
H2051 H 0.95487 0.48536 0.6314 0.0
H2052 H 0.91934 0.45285 0.64686 0.0
C2053 C 0.79268 0.35883 0.6705 0.0
C2054 C 0.85572 0.38042 0.62622 0.0
H2055 H 0.91384 0.40165 0.66373 0.0
C2056 C 0.85989 0.39211 0.59378 0.0
C2057 C 0.87552 0.38345 0.65153 0.0
C2058 C 0.87217 0.37054 0.6864 0.0
C2059 C 0.88314 0.40768 0.58646 0.0
C2060 C 0.90278 0.41109 0.61208 0.0
C2061 C 0.89876 0.39891 0.6442 0.0
C2062 C 0.92695 0.42847 0.60664 0.0
C2063 C 0.88611 0.42112 0.55191 0.0
C2064 C 0.94392 0.42475 0.58041 0.0
C2065 C 0.96438 0.4432 0.57164 0.0
C2066 C 0.96811 0.46575 0.58889 0.0
C2067 C 0.95253 0.46835 0.61742 0.0
C2068 C 0.9321 0.44983 0.6262 0.0
H2069 H 0.8673 0.42093 0.53857 0.0
H2070 H 0.8954 0.44051 0.55501 0.0
H2071 H 0.8985 0.41211 0.53502 0.0
H2072 H 0.94055 0.40811 0.56557 0.0
H2073 H 0.9761 0.44042 0.54972 0.0
H2074 H 0.25132 0.67078 0.6675 0.0
H2075 H 0.22883 0.63948 0.62849 0.0
H2076 H 0.15817 0.66761 0.64303 0.0
H2077 H 0.18009 0.69866 0.68099 0.0
H2078 H 0.18684 0.60318 0.64436 0.0
H2079 H 0.1604 0.66342 0.53866 0.0
H2080 H 0.18488 0.67396 0.57044 0.0
H2081 H 0.15139 0.67337 0.5799 0.0
C2082 C 0.23107 0.67042 0.66198 0.0
C2083 C 0.21758 0.68729 0.67739 0.0
C2084 C 0.21826 0.65256 0.63975 0.0
C2085 C 0.19193 0.65157 0.63232 0.0
C2086 C 0.1786 0.66842 0.6476 0.0
H2087 H 0.05736 0.5588 0.56374 0.0
H2088 H 0.09098 0.59015 0.5876 0.0
C2089 C 0.19123 0.68609 0.66966 0.0
C2090 C 0.17745 0.63207 0.61068 0.0
H2091 H 0.1334 0.62356 0.54472 0.0
C2092 C 0.17561 0.60753 0.62207 0.0
C2093 C 0.16281 0.63779 0.58157 0.0
C2094 C 0.16518 0.66356 0.56672 0.0
C2095 C 0.15829 0.58879 0.60646 0.0
C2096 C 0.14255 0.59482 0.57881 0.0
C2097 C 0.14528 0.61911 0.56629 0.0
C2098 C 0.12238 0.57627 0.56352 0.0
C2099 C 0.15598 0.56283 0.62055 0.0
C2100 C 0.129 0.5584 0.5418 0.0
C2101 C 0.1099 0.54057 0.52803 0.0
C2102 C 0.08381 0.54026 0.53586 0.0
C2103 C 0.07725 0.55845 0.55734 0.0
C2104 C 0.0964 0.57638 0.57093 0.0
H2105 H 0.16784 0.56158 0.64426 0.0
H2106 H 0.13559 0.55544 0.62658 0.0
H2107 H 0.16233 0.55099 0.60065 0.0
H2108 H 0.14896 0.55818 0.53564 0.0
H2109 H 0.11566 0.52687 0.51155 0.0
loop_
_geom_bond_atom_site_label_1
_geom_bond_atom_site_label_2
_geom_bond_distance
_geom_bond_site_symmetry_2
_ccdc_geom_bond_type
O0 Zn1 1.953 . S
O0 C16 1.225 . S
Zn1 O0 1.953 . S
Zn1 O2 1.949 . S
Zn1 O8 1.919 . S
Zn1 O13 1.924 . S
O2 Zn1 1.949 . S
O2 Zn3 1.923 . S
O2 Zn4 1.950 . S
O2 Zn5 1.945 . S
Zn3 O2 1.923 . S
Zn3 O6 1.933 . S
Zn3 O9 1.941 . S
Zn3 O10 1.965 . S
Zn4 O2 1.950 . S
Zn4 O11 1.938 . S
Zn4 O12 1.906 . S
Zn4 O22 1.953 . S
Zn5 O2 1.945 . S
Zn5 O7 1.932 . S
Zn5 O14 1.977 . S
Zn5 O15 1.910 . S
O6 Zn3 1.933 . S
O6 C17 1.226 . S
O7 Zn5 1.932 . S
O7 C17 1.307 . S
O8 Zn1 1.919 . S
O8 C19 1.253 . S
O9 Zn3 1.941 . S
O9 C19 1.283 . S
O10 Zn3 1.965 . S
O10 C18 1.303 . S
O11 Zn4 1.938 . S
O11 C18 1.247 . S
O12 Zn4 1.906 . S
O12 C20 1.304 . S
O13 Zn1 1.924 . S
O13 C21 1.311 . S
O14 Zn5 1.977 . S
O14 C20 1.272 . S
O15 Zn5 1.910 . S
O15 C21 1.231 . S
C16 O0 1.225 . S
C16 O22 1.298 . S
C17 O6 1.226 . S
C17 O7 1.307 . S
C18 O10 1.303 . S
C18 O11 1.247 . S
C19 O8 1.253 . S
C19 O9 1.283 . S
C20 O12 1.304 . S
C20 O14 1.272 . S
C21 O13 1.311 . S
C21 O15 1.231 . S
O22 Zn4 1.953 . S
O22 C16 1.298 . S
O23 Zn24 1.953 . S
O23 C39 1.225 . S
Zn24 O23 1.953 . S
Zn24 O25 1.949 . S
Zn24 O31 1.919 . S
Zn24 O36 1.924 . S
O25 Zn24 1.949 . S
O25 Zn26 1.923 . S
O25 Zn27 1.950 . S
O25 Zn28 1.945 . S
Zn26 O25 1.923 . S
Zn26 O29 1.933 . S
Zn26 O32 1.941 . S
Zn26 O33 1.965 . S
Zn27 O25 1.950 . S
Zn27 O34 1.938 . S
Zn27 O35 1.906 . S
Zn27 O45 1.953 . S
Zn28 O25 1.945 . S
Zn28 O30 1.932 . S
Zn28 O37 1.977 . S
Zn28 O38 1.910 . S
O29 Zn26 1.933 . S
O29 C40 1.226 . S
O30 Zn28 1.932 . S
O30 C40 1.307 . S
O31 Zn24 1.919 . S
O31 C42 1.253 . S
O32 Zn26 1.941 . S
O32 C42 1.283 . S
O33 Zn26 1.965 . S
O33 C41 1.303 . S
O34 Zn27 1.938 . S
O34 C41 1.247 . S
O35 Zn27 1.906 . S
O35 C43 1.304 . S
O36 Zn24 1.924 . S
O36 C44 1.311 . S
O37 Zn28 1.977 . S
O37 C43 1.272 . S
O38 Zn28 1.910 . S
O38 C44 1.231 . S
C39 O23 1.225 . S
C39 O45 1.298 . S
C40 O29 1.226 . S
C40 O30 1.307 . S
C41 O33 1.303 . S
C41 O34 1.247 . S
C42 O31 1.253 . S
C42 O32 1.283 . S
C43 O35 1.304 . S
C43 O37 1.272 . S
C44 O36 1.311 . S
C44 O38 1.231 . S
O45 Zn27 1.953 . S
O45 C39 1.298 . S
O46 Zn47 1.953 . S
O46 C62 1.225 . S
Zn47 O46 1.953 . S
Zn47 O48 1.949 . S
Zn47 O54 1.919 . S
Zn47 O59 1.924 . S
O48 Zn47 1.949 . S
O48 Zn49 1.923 . S
O48 Zn50 1.950 . S
O48 Zn51 1.945 . S
Zn49 O48 1.923 . S
Zn49 O52 1.933 . S
Zn49 O55 1.941 . S
Zn49 O56 1.965 . S
Zn50 O48 1.950 . S
Zn50 O57 1.938 . S
Zn50 O58 1.906 . S
Zn50 O68 1.953 . S
Zn51 O48 1.945 . S
Zn51 O53 1.932 . S
Zn51 O60 1.977 . S
Zn51 O61 1.910 . S
O52 Zn49 1.933 . S
O52 C63 1.226 . S
O53 Zn51 1.932 . S
O53 C63 1.307 . S
O54 Zn47 1.919 . S
O54 C65 1.253 . S
O55 Zn49 1.941 . S
O55 C65 1.283 . S
O56 Zn49 1.965 . S
O56 C64 1.303 . S
O57 Zn50 1.938 . S
O57 C64 1.247 . S
O58 Zn50 1.906 . S
O58 C66 1.304 . S
O59 Zn47 1.924 . S
O59 C67 1.311 . S
O60 Zn51 1.977 . S
O60 C66 1.272 . S
O61 Zn51 1.910 . S
O61 C67 1.231 . S
C62 O46 1.225 . S
C62 O68 1.298 . S
C63 O52 1.226 . S
C63 O53 1.307 . S
C64 O56 1.303 . S
C64 O57 1.247 . S
C65 O54 1.253 . S
C65 O55 1.283 . S
C66 O58 1.304 . S
C66 O60 1.272 . S
C67 O59 1.311 . S
C67 O61 1.231 . S
O68 Zn50 1.953 . S
O68 C62 1.298 . S
O69 Zn70 1.953 . S
O69 C85 1.225 . S
Zn70 O69 1.953 . S
Zn70 O71 1.949 . S
Zn70 O77 1.919 . S
Zn70 O82 1.924 . S
O71 Zn70 1.949 . S
O71 Zn72 1.923 . S
O71 Zn73 1.950 . S
O71 Zn74 1.945 . S
Zn72 O71 1.923 . S
Zn72 O75 1.933 . S
Zn72 O78 1.941 . S
Zn72 O79 1.965 . S
Zn73 O71 1.950 . S
Zn73 O80 1.938 . S
Zn73 O81 1.906 . S
Zn73 O91 1.953 . S
Zn74 O71 1.945 . S
Zn74 O76 1.932 . S
Zn74 O83 1.977 . S
Zn74 O84 1.910 . S
O75 Zn72 1.933 . S
O75 C86 1.226 . S
O76 Zn74 1.932 . S
O76 C86 1.307 . S
O77 Zn70 1.919 . S
O77 C88 1.253 . S
O78 Zn72 1.941 . S
O78 C88 1.283 . S
O79 Zn72 1.965 . S
O79 C87 1.303 . S
O80 Zn73 1.938 . S
O80 C87 1.247 . S
O81 Zn73 1.906 . S
O81 C89 1.304 . S
O82 Zn70 1.924 . S
O82 C90 1.311 . S
O83 Zn74 1.977 . S
O83 C89 1.272 . S
O84 Zn74 1.910 . S
O84 C90 1.231 . S
C85 O69 1.225 . S
C85 O91 1.298 . S
C86 O75 1.226 . S
C86 O76 1.307 . S
C87 O79 1.303 . S
C87 O80 1.247 . S
C88 O77 1.253 . S
C88 O78 1.283 . S
C89 O81 1.304 . S
C89 O83 1.272 . S
C90 O82 1.311 . S
C90 O84 1.231 . S
O91 Zn73 1.953 . S
O91 C85 1.298 . S
O92 Zn93 1.953 . S
O92 C108 1.225 . S
Zn93 O92 1.953 . S
Zn93 O94 1.949 . S
Zn93 O100 1.919 . S
Zn93 O105 1.924 . S
O94 Zn93 1.949 . S
O94 Zn95 1.923 . S
O94 Zn96 1.950 . S
O94 Zn97 1.945 . S
Zn95 O94 1.923 . S
Zn95 O98 1.933 . S
Zn95 O101 1.941 . S
Zn95 O102 1.965 . S
Zn96 O94 1.950 . S
Zn96 O103 1.938 . S
Zn96 O104 1.906 . S
Zn96 O114 1.953 . S
Zn97 O94 1.945 . S
Zn97 O99 1.932 . S
Zn97 O106 1.977 . S
Zn97 O107 1.910 . S
O98 Zn95 1.933 . S
O98 C109 1.226 . S
O99 Zn97 1.932 . S
O99 C109 1.307 . S
O100 Zn93 1.919 . S
O100 C111 1.253 . S
O101 Zn95 1.941 . S
O101 C111 1.283 . S
O102 Zn95 1.965 . S
O102 C110 1.303 . S
O103 Zn96 1.938 . S
O103 C110 1.247 . S
O104 Zn96 1.906 . S
O104 C112 1.304 . S
O105 Zn93 1.924 . S
O105 C113 1.311 . S
O106 Zn97 1.977 . S
O106 C112 1.272 . S
O107 Zn97 1.910 . S
O107 C113 1.231 . S
C108 O92 1.225 . S
C108 O114 1.298 . S
C109 O98 1.226 . S
C109 O99 1.307 . S
C110 O102 1.303 . S
C110 O103 1.247 . S
C111 O100 1.253 . S
C111 O101 1.283 . S
C112 O104 1.304 . S
C112 O106 1.272 . S
C113 O105 1.311 . S
C113 O107 1.231 . S
O114 Zn96 1.953 . S
O114 C108 1.298 . S
O115 Zn116 1.953 . S
O115 C131 1.225 . S
Zn116 O115 1.953 . S
Zn116 O117 1.949 . S
Zn116 O123 1.919 . S
Zn116 O128 1.924 . S
O117 Zn116 1.949 . S
O117 Zn118 1.923 . S
O117 Zn119 1.950 . S
O117 Zn120 1.945 . S
Zn118 O117 1.923 . S
Zn118 O121 1.933 . S
Zn118 O124 1.941 . S
Zn118 O125 1.965 . S
Zn119 O117 1.950 . S
Zn119 O126 1.938 . S
Zn119 O127 1.906 . S
Zn119 O137 1.953 . S
Zn120 O117 1.945 . S
Zn120 O122 1.932 . S
Zn120 O129 1.977 . S
Zn120 O130 1.910 . S
O121 Zn118 1.933 . S
O121 C132 1.226 . S
O122 Zn120 1.932 . S
O122 C132 1.307 . S
O123 Zn116 1.919 . S
O123 C134 1.253 . S
O124 Zn118 1.941 . S
O124 C134 1.283 . S
O125 Zn118 1.965 . S
O125 C133 1.303 . S
O126 Zn119 1.938 . S
O126 C133 1.247 . S
O127 Zn119 1.906 . S
O127 C135 1.304 . S
O128 Zn116 1.924 . S
O128 C136 1.311 . S
O129 Zn120 1.977 . S
O129 C135 1.272 . S
O130 Zn120 1.910 . S
O130 C136 1.231 . S
C131 O115 1.225 . S
C131 O137 1.298 . S
C132 O121 1.226 . S
C132 O122 1.307 . S
C133 O125 1.303 . S
C133 O126 1.247 . S
C134 O123 1.253 . S
C134 O124 1.283 . S
C135 O127 1.304 . S
C135 O129 1.272 . S
C136 O128 1.311 . S
C136 O130 1.231 . S
O137 Zn119 1.953 . S
O137 C131 1.298 . S
O138 Zn139 1.953 . S
O138 C154 1.225 . S
Zn139 O138 1.953 . S
Zn139 O140 1.949 . S
Zn139 O146 1.919 . S
Zn139 O151 1.924 . S
O140 Zn139 1.949 . S
O140 Zn141 1.923 . S
O140 Zn142 1.950 . S
O140 Zn143 1.945 . S
Zn141 O140 1.923 . S
Zn141 O144 1.933 . S
Zn141 O147 1.941 . S
Zn141 O148 1.965 . S
Zn142 O140 1.950 . S
Zn142 O149 1.938 . S
Zn142 O150 1.906 . S
Zn142 O160 1.953 . S
Zn143 O140 1.945 . S
Zn143 O145 1.932 . S
Zn143 O152 1.977 . S
Zn143 O153 1.910 . S
O144 Zn141 1.933 . S
O144 C155 1.226 . S
O145 Zn143 1.932 . S
O145 C155 1.307 . S
O146 Zn139 1.919 . S
O146 C157 1.253 . S
O147 Zn141 1.941 . S
O147 C157 1.283 . S
O148 Zn141 1.965 . S
O148 C156 1.303 . S
O149 Zn142 1.938 . S
O149 C156 1.247 . S
O150 Zn142 1.906 . S
O150 C158 1.304 . S
O151 Zn139 1.924 . S
O151 C159 1.311 . S
O152 Zn143 1.977 . S
O152 C158 1.272 . S
O153 Zn143 1.910 . S
O153 C159 1.231 . S
C154 O138 1.225 . S
C154 O160 1.298 . S
C155 O144 1.226 . S
C155 O145 1.307 . S
C156 O148 1.303 . S
C156 O149 1.247 . S
C157 O146 1.253 . S
C157 O147 1.283 . S
C158 O150 1.304 . S
C158 O152 1.272 . S
C159 O151 1.311 . S
C159 O153 1.231 . S
O160 Zn142 1.953 . S
O160 C154 1.298 . S
O161 Zn162 1.953 . S
O161 C177 1.225 . S
Zn162 O161 1.953 . S
Zn162 O163 1.949 . S
Zn162 O169 1.919 . S
Zn162 O174 1.924 . S
O163 Zn162 1.949 . S
O163 Zn164 1.923 . S
O163 Zn165 1.950 . S
O163 Zn166 1.945 . S
Zn164 O163 1.923 . S
Zn164 O167 1.933 . S
Zn164 O170 1.941 . S
Zn164 O171 1.965 . S
Zn165 O163 1.950 . S
Zn165 O172 1.938 . S
Zn165 O173 1.906 . S
Zn165 O183 1.953 . S
Zn166 O163 1.945 . S
Zn166 O168 1.932 . S
Zn166 O175 1.977 . S
Zn166 O176 1.910 . S
O167 Zn164 1.933 . S
O167 C178 1.226 . S
O168 Zn166 1.932 . S
O168 C178 1.307 . S
O169 Zn162 1.919 . S
O169 C180 1.253 . S
O170 Zn164 1.941 . S
O170 C180 1.283 . S
O171 Zn164 1.965 . S
O171 C179 1.303 . S
O172 Zn165 1.938 . S
O172 C179 1.247 . S
O173 Zn165 1.906 . S
O173 C181 1.304 . S
O174 Zn162 1.924 . S
O174 C182 1.311 . S
O175 Zn166 1.977 . S
O175 C181 1.272 . S
O176 Zn166 1.910 . S
O176 C182 1.231 . S
C177 O161 1.225 . S
C177 O183 1.298 . S
C178 O167 1.226 . S
C178 O168 1.307 . S
C179 O171 1.303 . S
C179 O172 1.247 . S
C180 O169 1.253 . S
C180 O170 1.283 . S
C181 O173 1.304 . S
C181 O175 1.272 . S
C182 O174 1.311 . S
C182 O176 1.231 . S
O183 Zn165 1.953 . S
O183 C177 1.298 . S
Co184 O187 2.042 . S
Co184 O194 2.264 . S
Co184 O213 2.286 . S
Co184 O214 2.069 . S
Co184 O216 2.015 1_455 S
Co185 O187 2.122 . S
Co185 O193 2.073 . S
Co185 O194 2.327 . S
Co185 O195 1.976 1_455 S
Co186 O187 2.087 1_545 S
Co186 O189 2.087 1_455 S
Co186 O196 2.111 1_445 S
Co186 O197 2.143 . S
Co186 O201 2.111 . S
Co186 O215 2.143 1_445 S
O187 Co184 2.042 . S
O187 Co185 2.122 . S
O187 Co186 2.087 1_565 S
O187 H188 0.980 . S
H188 O187 0.980 . S
O189 Co186 2.087 1_655 S
O189 Co190 2.042 . S
O189 Co191 2.122 . S
O189 H192 0.980 . S
Co190 O189 2.042 . S
Co190 O198 2.286 . S
Co190 O199 2.069 . S
Co190 O200 2.015 1_655 S
Co190 O203 2.264 . S
Co191 O189 2.122 . S
Co191 O202 1.976 1_655 S
Co191 O203 2.327 . S
Co191 O204 2.073 . S
H192 O189 0.980 . S
O193 Co185 2.073 . S
O193 C208 1.245 . S
O194 Co184 2.264 . S
O194 Co185 2.327 . S
O194 C208 1.257 . S
O195 Co185 1.976 1_655 S
O195 C207 1.251 . S
O196 Co186 2.111 1_665 S
O196 C207 1.274 . S
O197 Co186 2.143 . S
O197 C210 1.246 . S
O198 Co190 2.286 . S
O198 C209 1.259 . S
O199 Co190 2.069 . S
O199 C209 1.289 . S
O200 Co190 2.015 1_455 S
O200 C210 1.257 . S
O201 Co186 2.111 . S
O201 C211 1.274 . S
O202 Co191 1.976 1_455 S
O202 C211 1.251 . S
O203 Co190 2.264 . S
O203 Co191 2.327 . S
O203 C212 1.257 . S
O204 Co191 2.073 . S
O204 C212 1.245 . S
C205 O213 1.259 . S
C205 O214 1.289 . S
C206 O215 1.246 . S
C206 O216 1.257 . S
C207 O195 1.251 . S
C207 O196 1.274 . S
C208 O193 1.245 . S
C208 O194 1.257 . S
C209 O198 1.259 . S
C209 O199 1.289 . S
C210 O197 1.246 . S
C210 O200 1.257 . S
C211 O201 1.274 . S
C211 O202 1.251 . S
C212 O203 1.257 . S
C212 O204 1.245 . S
O213 Co184 2.286 . S
O213 C205 1.259 . S
O214 Co184 2.069 . S
O214 C205 1.289 . S
O215 Co186 2.143 1_665 S
O215 C206 1.246 . S
O216 Co184 2.015 1_655 S
O216 C206 1.257 . S
Co217 O220 2.042 1_556 S
Co217 O227 2.264 1_556 S
Co217 O246 2.286 . S
Co217 O247 2.069 . S
Co217 O249 2.015 . S
Co218 O220 2.122 . S
Co218 O226 2.073 . S
Co218 O227 2.327 . S
Co218 O228 1.976 . S
Co219 O220 2.087 1_545 S
Co219 O222 2.087 . S
Co219 O229 2.111 1_545 S
Co219 O230 2.143 . S
Co219 O234 2.111 1_554 S
Co219 O248 2.143 1_544 S
O220 Co217 2.042 1_554 S
O220 Co218 2.122 . S
O220 Co219 2.087 1_565 S
O220 H221 0.980 . S
H221 O220 0.980 . S
O222 Co219 2.087 . S
O222 Co223 2.042 . S
O222 Co224 2.122 1_554 S
O222 H225 0.980 . S
Co223 O222 2.042 . S
Co223 O231 2.286 . S
Co223 O232 2.069 . S
Co223 O233 2.015 . S
Co223 O236 2.264 1_554 S
Co224 O222 2.122 1_556 S
Co224 O235 1.976 . S
Co224 O236 2.327 . S
Co224 O237 2.073 . S
H225 O222 0.980 . S
O226 Co218 2.073 . S
O226 C241 1.245 . S
O227 Co217 2.264 1_554 S
O227 Co218 2.327 . S
O227 C241 1.257 . S
O228 Co218 1.976 . S
O228 C240 1.251 . S
O229 Co219 2.111 1_565 S
O229 C240 1.274 . S
O230 Co219 2.143 . S
O230 C243 1.246 . S
O231 Co223 2.286 . S
O231 C242 1.259 . S
O232 Co223 2.069 . S
O232 C242 1.289 . S
O233 Co223 2.015 . S
O233 C243 1.257 . S
O234 Co219 2.111 1_556 S
O234 C244 1.274 . S
O235 Co224 1.976 . S
O235 C244 1.251 . S
O236 Co223 2.264 1_556 S
O236 Co224 2.327 . S
O236 C245 1.257 . S
O237 Co224 2.073 . S
O237 C245 1.245 . S
C238 O246 1.259 . S
C238 O247 1.289 . S
C239 O248 1.246 . S
C239 O249 1.257 . S
C240 O228 1.251 . S
C240 O229 1.274 . S
C241 O226 1.245 . S
C241 O227 1.257 . S
C242 O231 1.259 . S
C242 O232 1.289 . S
C243 O230 1.246 . S
C243 O233 1.257 . S
C244 O234 1.274 . S
C244 O235 1.251 . S
C245 O236 1.257 . S
C245 O237 1.245 . S
O246 Co217 2.286 . S
O246 C238 1.259 . S
O247 Co217 2.069 . S
O247 C238 1.289 . S
O248 Co219 2.143 1_566 S
O248 C239 1.246 . S
O249 Co217 2.015 . S
O249 C239 1.257 . S
Co250 O253 2.042 1_556 S
Co250 O260 2.264 1_556 S
Co250 O279 2.286 . S
Co250 O280 2.069 . S
Co250 O282 2.015 1_455 S
Co251 O253 2.122 . S
Co251 O259 2.073 . S
Co251 O260 2.327 . S
Co251 O261 1.976 1_455 S
Co252 O253 2.087 . S
Co252 O255 2.087 1_454 S
Co252 O262 2.111 1_455 S
Co252 O263 2.143 . S
Co252 O267 2.111 1_554 S
Co252 O281 2.143 1_454 S
O253 Co250 2.042 1_554 S
O253 Co251 2.122 . S
O253 Co252 2.087 . S
O253 H254 0.980 . S
H254 O253 0.980 . S
O255 Co252 2.087 1_656 S
O255 Co256 2.042 1_556 S
O255 Co257 2.122 . S
O255 H258 0.980 . S
Co256 O255 2.042 1_554 S
Co256 O264 2.286 . S
Co256 O265 2.069 . S
Co256 O266 2.015 1_655 S
Co256 O269 2.264 1_554 S
Co257 O255 2.122 . S
Co257 O268 1.976 1_655 S
Co257 O269 2.327 . S
Co257 O270 2.073 . S
H258 O255 0.980 . S
O259 Co251 2.073 . S
O259 C274 1.245 . S
O260 Co250 2.264 1_554 S
O260 Co251 2.327 . S
O260 C274 1.257 . S
O261 Co251 1.976 1_655 S
O261 C273 1.251 . S
O262 Co252 2.111 1_655 S
O262 C273 1.274 . S
O263 Co252 2.143 . S
O263 C276 1.246 . S
O264 Co256 2.286 . S
O264 C275 1.259 . S
O265 Co256 2.069 . S
O265 C275 1.289 . S
O266 Co256 2.015 1_455 S
O266 C276 1.257 . S
O267 Co252 2.111 1_556 S
O267 C277 1.274 . S
O268 Co257 1.976 1_455 S
O268 C277 1.251 . S
O269 Co256 2.264 1_556 S
O269 Co257 2.327 . S
O269 C278 1.257 . S
O270 Co257 2.073 . S
O270 C278 1.245 . S
C271 O279 1.259 . S
C271 O280 1.289 . S
C272 O281 1.246 . S
C272 O282 1.257 . S
C273 O261 1.251 . S
C273 O262 1.274 . S
C274 O259 1.245 . S
C274 O260 1.257 . S
C275 O264 1.259 . S
C275 O265 1.289 . S
C276 O263 1.246 . S
C276 O266 1.257 . S
C277 O267 1.274 . S
C277 O268 1.251 . S
C278 O269 1.257 . S
C278 O270 1.245 . S
O279 Co250 2.286 . S
O279 C271 1.259 . S
O280 Co250 2.069 . S
O280 C271 1.289 . S
O281 Co252 2.143 1_656 S
O281 C272 1.246 . S
O282 Co250 2.015 1_655 S
O282 C272 1.257 . S
Co283 O286 2.042 1_556 S
Co283 O293 2.264 1_556 S
Co283 O312 2.286 . S
Co283 O313 2.069 . S
Co283 O315 2.015 . S
Co284 O286 2.122 . S
Co284 O292 2.073 . S
Co284 O293 2.327 . S
Co284 O294 1.976 . S
Co285 O286 2.087 . S
Co285 O288 2.087 1_554 S
Co285 O295 2.111 . S
Co285 O296 2.143 . S
Co285 O300 2.111 1_554 S
Co285 O314 2.143 1_554 S
O286 Co283 2.042 1_554 S
O286 Co284 2.122 . S
O286 Co285 2.087 . S
O286 H287 0.980 . S
H287 O286 0.980 . S
O288 Co285 2.087 1_556 S
O288 Co289 2.042 1_556 S
O288 Co290 2.122 . S
O288 H291 0.980 . S
Co289 O288 2.042 1_554 S
Co289 O297 2.286 . S
Co289 O298 2.069 . S
Co289 O299 2.015 . S
Co289 O302 2.264 1_554 S
Co290 O288 2.122 . S
Co290 O301 1.976 . S
Co290 O302 2.327 . S
Co290 O303 2.073 . S
H291 O288 0.980 . S
O292 Co284 2.073 . S
O292 C307 1.245 . S
O293 Co283 2.264 1_554 S
O293 Co284 2.327 . S
O293 C307 1.257 . S
O294 Co284 1.976 . S
O294 C306 1.251 . S
O295 Co285 2.111 . S
O295 C306 1.274 . S
O296 Co285 2.143 . S
O296 C309 1.246 . S
O297 Co289 2.286 . S
O297 C308 1.259 . S
O298 Co289 2.069 . S
O298 C308 1.289 . S
O299 Co289 2.015 . S
O299 C309 1.257 . S
O300 Co285 2.111 1_556 S
O300 C310 1.274 . S
O301 Co290 1.976 . S
O301 C310 1.251 . S
O302 Co289 2.264 1_556 S
O302 Co290 2.327 . S
O302 C311 1.257 . S
O303 Co290 2.073 . S
O303 C311 1.245 . S
C304 O312 1.259 . S
C304 O313 1.289 . S
C305 O314 1.246 . S
C305 O315 1.257 . S
C306 O294 1.251 . S
C306 O295 1.274 . S
C307 O292 1.245 . S
C307 O293 1.257 . S
C308 O297 1.259 . S
C308 O298 1.289 . S
C309 O296 1.246 . S
C309 O299 1.257 . S
C310 O300 1.274 . S
C310 O301 1.251 . S
C311 O302 1.257 . S
C311 O303 1.245 . S
O312 Co283 2.286 . S
O312 C304 1.259 . S
O313 Co283 2.069 . S
O313 C304 1.289 . S
O314 Co285 2.143 1_556 S
O314 C305 1.246 . S
O315 Co283 2.015 . S
O315 C305 1.257 . S
Co316 O319 2.042 . S
Co316 O326 2.264 . S
Co316 O345 2.286 . S
Co316 O346 2.069 . S
Co316 O348 2.015 . S
Co317 O319 2.122 . S
Co317 O325 2.073 . S
Co317 O326 2.327 . S
Co317 O327 1.976 . S
Co318 O319 2.087 . S
Co318 O321 2.087 1_455 S
Co318 O328 2.111 . S
Co318 O329 2.143 1_455 S
Co318 O333 2.111 1_455 S
Co318 O347 2.143 . S
O319 Co316 2.042 . S
O319 Co317 2.122 . S
O319 Co318 2.087 . S
O319 H320 0.980 . S
H320 O319 0.980 . S
O321 Co318 2.087 1_655 S
O321 Co322 2.042 . S
O321 Co323 2.122 . S
O321 H324 0.980 . S
Co322 O321 2.042 . S
Co322 O330 2.286 . S
Co322 O331 2.069 . S
Co322 O332 2.015 . S
Co322 O335 2.264 . S
Co323 O321 2.122 . S
Co323 O334 1.976 . S
Co323 O335 2.327 . S
Co323 O336 2.073 . S
H324 O321 0.980 . S
O325 Co317 2.073 . S
O325 C340 1.245 . S
O326 Co316 2.264 . S
O326 Co317 2.327 . S
O326 C340 1.257 . S
O327 Co317 1.976 . S
O327 C339 1.251 . S
O328 Co318 2.111 . S
O328 C339 1.274 . S
O329 Co318 2.143 1_655 S
O329 C342 1.246 . S
O330 Co322 2.286 . S
O330 C341 1.259 . S
O331 Co322 2.069 . S
O331 C341 1.289 . S
O332 Co322 2.015 . S
O332 C342 1.257 . S
O333 Co318 2.111 1_655 S
O333 C343 1.274 . S
O334 Co323 1.976 . S
O334 C343 1.251 . S
O335 Co322 2.264 . S
O335 Co323 2.327 . S
O335 C344 1.257 . S
O336 Co323 2.073 . S
O336 C344 1.245 . S
C337 O345 1.259 . S
C337 O346 1.289 . S
C338 O347 1.246 . S
C338 O348 1.257 . S
C339 O327 1.251 . S
C339 O328 1.274 . S
C340 O325 1.245 . S
C340 O326 1.257 . S
C341 O330 1.259 . S
C341 O331 1.289 . S
C342 O329 1.246 . S
C342 O332 1.257 . S
C343 O333 1.274 . S
C343 O334 1.251 . S
C344 O335 1.257 . S
C344 O336 1.245 . S
O345 Co316 2.286 . S
O345 C337 1.259 . S
O346 Co316 2.069 . S
O346 C337 1.289 . S
O347 Co318 2.143 . S
O347 C338 1.246 . S
O348 Co316 2.015 . S
O348 C338 1.257 . S
Co349 O352 2.042 . S
Co349 O359 2.264 . S
Co349 O378 2.286 . S
Co349 O379 2.069 . S
Co349 O381 2.015 1_565 S
Co350 O352 2.122 . S
Co350 O358 2.073 . S
Co350 O359 2.327 . S
Co350 O360 1.976 1_565 S
Co351 O352 2.087 1_545 S
Co351 O354 2.087 . S
Co351 O361 2.111 . S
Co351 O362 2.143 1_545 S
Co351 O366 2.111 1_545 S
Co351 O380 2.143 . S
O352 Co349 2.042 . S
O352 Co350 2.122 . S
O352 Co351 2.087 1_565 S
O352 H353 0.980 . S
H353 O352 0.980 . S
O354 Co351 2.087 . S
O354 Co355 2.042 . S
O354 Co356 2.122 . S
O354 H357 0.980 . S
Co355 O354 2.042 . S
Co355 O363 2.286 . S
Co355 O364 2.069 . S
Co355 O365 2.015 1_545 S
Co355 O368 2.264 . S
Co356 O354 2.122 . S
Co356 O367 1.976 1_545 S
Co356 O368 2.327 . S
Co356 O369 2.073 . S
H357 O354 0.980 . S
O358 Co350 2.073 . S
O358 C373 1.245 . S
O359 Co349 2.264 . S
O359 Co350 2.327 . S
O359 C373 1.257 . S
O360 Co350 1.976 1_545 S
O360 C372 1.251 . S
O361 Co351 2.111 . S
O361 C372 1.274 . S
O362 Co351 2.143 1_565 S
O362 C375 1.246 . S
O363 Co355 2.286 . S
O363 C374 1.259 . S
O364 Co355 2.069 . S
O364 C374 1.289 . S
O365 Co355 2.015 1_565 S
O365 C375 1.257 . S
O366 Co351 2.111 1_565 S
O366 C376 1.274 . S
O367 Co356 1.976 1_565 S
O367 C376 1.251 . S
O368 Co355 2.264 . S
O368 Co356 2.327 . S
O368 C377 1.257 . S
O369 Co356 2.073 . S
O369 C377 1.245 . S
C370 O378 1.259 . S
C370 O379 1.289 . S
C371 O380 1.246 . S
C371 O381 1.257 . S
C372 O360 1.251 . S
C372 O361 1.274 . S
C373 O358 1.245 . S
C373 O359 1.257 . S
C374 O363 1.259 . S
C374 O364 1.289 . S
C375 O362 1.246 . S
C375 O365 1.257 . S
C376 O366 1.274 . S
C376 O367 1.251 . S
C377 O368 1.257 . S
C377 O369 1.245 . S
O378 Co349 2.286 . S
O378 C370 1.259 . S
O379 Co349 2.069 . S
O379 C370 1.289 . S
O380 Co351 2.143 . S
O380 C371 1.246 . S
O381 Co349 2.015 1_545 S
O381 C371 1.257 . S
H382 C390 0.929 . S
H383 C392 0.930 . S
H384 C394 0.930 . S
H385 C397 0.929 . S
H386 C400 0.930 . S
H387 C402 0.960 . S
H388 C402 0.960 . S
H389 C402 0.960 . S
C390 H382 0.929 . S
C390 C391 1.377 . S
C390 C392 1.384 . S
C391 C390 1.377 . S
C391 C397 1.390 . S
C392 H383 0.930 . S
C392 C390 1.384 . S
C392 C393 1.372 . S
C393 C392 1.372 . S
C393 C394 1.400 . S
C393 C398 1.490 . S
C394 H384 0.930 . S
C394 C393 1.400 . S
C394 C397 1.386 . S
H395 C411 0.930 . S
H396 C412 0.931 . S
C397 H385 0.929 . S
C397 C391 1.390 . S
C397 C394 1.386 . S
C398 C393 1.490 . S
C398 C400 1.395 . S
C398 C401 1.403 . S
H399 C405 0.930 . S
C400 H386 0.930 . S
C400 C398 1.395 . S
C400 C403 1.403 . S
C401 C398 1.403 . S
C401 C402 1.524 . S
C401 C405 1.400 . S
C402 H387 0.960 . S
C402 H388 0.960 . S
C402 H389 0.960 . S
C402 C401 1.524 . S
C403 C400 1.403 . S
C403 C404 1.392 . S
C403 C407 1.495 . S
C404 C403 1.392 . S
C404 C405 1.385 . S
C404 C406 1.478 . S
C405 H399 0.930 . S
C405 C401 1.400 . S
C405 C404 1.385 . S
C406 C404 1.478 . S
C406 C408 1.381 . S
C406 C412 1.383 . S
C407 C403 1.495 . S
C407 H413 0.959 . S
C407 H414 0.961 . S
C407 H415 0.960 . S
C408 C406 1.381 . S
C408 C409 1.394 . S
C408 H416 0.930 . S
C409 C408 1.394 . S
C409 C410 1.383 . S
C409 H417 0.929 . S
C410 C409 1.383 . S
C410 C411 1.377 . S
C411 H395 0.930 . S
C411 C410 1.377 . S
C411 C412 1.379 . S
C412 H396 0.931 . S
C412 C406 1.383 . S
C412 C411 1.379 . S
H413 C407 0.959 . S
H414 C407 0.961 . S
H415 C407 0.960 . S
H416 C408 0.930 . S
H417 C409 0.929 . S
H418 C426 0.929 . S
H419 C428 0.930 . S
H420 C430 0.930 . S
H421 C433 0.929 . S
H422 C436 0.930 . S
H423 C438 0.960 . S
H424 C438 0.960 . S
H425 C438 0.960 . S
C426 H418 0.929 . S
C426 C427 1.377 . S
C426 C428 1.384 . S
C427 C426 1.377 . S
C427 C433 1.390 . S
C428 H419 0.930 . S
C428 C426 1.384 . S
C428 C429 1.372 . S
C429 C428 1.372 . S
C429 C430 1.400 . S
C429 C434 1.490 . S
C430 H420 0.930 . S
C430 C429 1.400 . S
C430 C433 1.386 . S
H431 C447 0.930 . S
H432 C448 0.931 . S
C433 H421 0.929 . S
C433 C427 1.390 . S
C433 C430 1.386 . S
C434 C429 1.490 . S
C434 C436 1.395 . S
C434 C437 1.403 . S
H435 C441 0.930 . S
C436 H422 0.930 . S
C436 C434 1.395 . S
C436 C439 1.403 . S
C437 C434 1.403 . S
C437 C438 1.524 . S
C437 C441 1.400 . S
C438 H423 0.960 . S
C438 H424 0.960 . S
C438 H425 0.960 . S
C438 C437 1.524 . S
C439 C436 1.403 . S
C439 C440 1.392 . S
C439 C443 1.495 . S
C440 C439 1.392 . S
C440 C441 1.385 . S
C440 C442 1.478 . S
C441 H435 0.930 . S
C441 C437 1.400 . S
C441 C440 1.385 . S
C442 C440 1.478 . S
C442 C444 1.381 . S
C442 C448 1.383 . S
C443 C439 1.495 . S
C443 H449 0.959 . S
C443 H450 0.961 . S
C443 H451 0.960 . S
C444 C442 1.381 . S
C444 C445 1.394 . S
C444 H452 0.930 . S
C445 C444 1.394 . S
C445 C446 1.383 . S
C445 H453 0.929 . S
C446 C445 1.383 . S
C446 C447 1.377 . S
C447 H431 0.930 . S
C447 C446 1.377 . S
C447 C448 1.379 . S
C448 H432 0.931 . S
C448 C442 1.383 . S
C448 C447 1.379 . S
H449 C443 0.959 . S
H450 C443 0.961 . S
H451 C443 0.960 . S
H452 C444 0.930 . S
H453 C445 0.929 . S
H454 C462 0.929 . S
H455 C464 0.930 . S
H456 C466 0.930 . S
H457 C469 0.929 . S
H458 C472 0.930 . S
H459 C474 0.960 . S
H460 C474 0.960 . S
H461 C474 0.960 . S
C462 H454 0.929 . S
C462 C463 1.377 . S
C462 C464 1.384 . S
C463 C462 1.377 . S
C463 C469 1.390 . S
C464 H455 0.930 . S
C464 C462 1.384 . S
C464 C465 1.372 . S
C465 C464 1.372 . S
C465 C466 1.400 . S
C465 C470 1.490 . S
C466 H456 0.930 . S
C466 C465 1.400 . S
C466 C469 1.386 . S
H467 C483 0.930 . S
H468 C484 0.931 . S
C469 H457 0.929 . S
C469 C463 1.390 . S
C469 C466 1.386 . S
C470 C465 1.490 . S
C470 C472 1.395 . S
C470 C473 1.403 . S
H471 C477 0.930 . S
C472 H458 0.930 . S
C472 C470 1.395 . S
C472 C475 1.403 . S
C473 C470 1.403 . S
C473 C474 1.524 . S
C473 C477 1.400 . S
C474 H459 0.960 . S
C474 H460 0.960 . S
C474 H461 0.960 . S
C474 C473 1.524 . S
C475 C472 1.403 . S
C475 C476 1.392 . S
C475 C479 1.495 . S
C476 C475 1.392 . S
C476 C477 1.385 . S
C476 C478 1.478 . S
C477 H471 0.930 . S
C477 C473 1.400 . S
C477 C476 1.385 . S
C478 C476 1.478 . S
C478 C480 1.381 . S
C478 C484 1.383 . S
C479 C475 1.495 . S
C479 H485 0.959 . S
C479 H486 0.961 . S
C479 H487 0.960 . S
C480 C478 1.381 . S
C480 C481 1.394 . S
C480 H488 0.930 . S
C481 C480 1.394 . S
C481 C482 1.383 . S
C481 H489 0.929 . S
C482 C481 1.383 . S
C482 C483 1.377 . S
C483 H467 0.930 . S
C483 C482 1.377 . S
C483 C484 1.379 . S
C484 H468 0.931 . S
C484 C478 1.383 . S
C484 C483 1.379 . S
H485 C479 0.959 . S
H486 C479 0.961 . S
H487 C479 0.960 . S
H488 C480 0.930 . S
H489 C481 0.929 . S
H490 C498 0.929 . S
H491 C500 0.930 . S
H492 C502 0.930 . S
H493 C505 0.929 . S
H494 C508 0.930 . S
H495 C510 0.960 . S
H496 C510 0.960 . S
H497 C510 0.960 . S
C498 H490 0.929 . S
C498 C499 1.377 . S
C498 C500 1.384 . S
C499 C498 1.377 . S
C499 C505 1.390 . S
C500 H491 0.930 . S
C500 C498 1.384 . S
C500 C501 1.372 . S
C501 C500 1.372 . S
C501 C502 1.400 . S
C501 C506 1.490 . S
C502 H492 0.930 . S
C502 C501 1.400 . S
C502 C505 1.386 . S
H503 C519 0.930 . S
H504 C520 0.931 . S
C505 H493 0.929 . S
C505 C499 1.390 . S
C505 C502 1.386 . S
C506 C501 1.490 . S
C506 C508 1.395 . S
C506 C509 1.403 . S
H507 C513 0.930 . S
C508 H494 0.930 . S
C508 C506 1.395 . S
C508 C511 1.403 . S
C509 C506 1.403 . S
C509 C510 1.524 . S
C509 C513 1.400 . S
C510 H495 0.960 . S
C510 H496 0.960 . S
C510 H497 0.960 . S
C510 C509 1.524 . S
C511 C508 1.403 . S
C511 C512 1.392 . S
C511 C515 1.495 . S
C512 C511 1.392 . S
C512 C513 1.385 . S
C512 C514 1.478 . S
C513 H507 0.930 . S
C513 C509 1.400 . S
C513 C512 1.385 . S
C514 C512 1.478 . S
C514 C516 1.381 . S
C514 C520 1.383 . S
C515 C511 1.495 . S
C515 H521 0.959 . S
C515 H522 0.961 . S
C515 H523 0.960 . S
C516 C514 1.381 . S
C516 C517 1.394 . S
C516 H524 0.930 . S
C517 C516 1.394 . S
C517 C518 1.383 . S
C517 H525 0.929 . S
C518 C517 1.383 . S
C518 C519 1.377 . S
C519 H503 0.930 . S
C519 C518 1.377 . S
C519 C520 1.379 . S
C520 H504 0.931 . S
C520 C514 1.383 . S
C520 C519 1.379 . S
H521 C515 0.959 . S
H522 C515 0.961 . S
H523 C515 0.960 . S
H524 C516 0.930 . S
H525 C517 0.929 . S
H526 C534 0.929 . S
H527 C536 0.930 . S
H528 C538 0.930 . S
H529 C541 0.929 . S
H530 C544 0.930 . S
H531 C546 0.960 . S
H532 C546 0.960 . S
H533 C546 0.960 . S
C534 H526 0.929 . S
C534 C535 1.377 . S
C534 C536 1.384 . S
C535 C534 1.377 . S
C535 C541 1.390 . S
C536 H527 0.930 . S
C536 C534 1.384 . S
C536 C537 1.372 . S
C537 C536 1.372 . S
C537 C538 1.400 . S
C537 C542 1.490 . S
C538 H528 0.930 . S
C538 C537 1.400 . S
C538 C541 1.386 . S
H539 C555 0.930 . S
H540 C556 0.931 . S
C541 H529 0.929 . S
C541 C535 1.390 . S
C541 C538 1.386 . S
C542 C537 1.490 . S
C542 C544 1.395 . S
C542 C545 1.403 . S
H543 C549 0.930 . S
C544 H530 0.930 . S
C544 C542 1.395 . S
C544 C547 1.403 . S
C545 C542 1.403 . S
C545 C546 1.524 . S
C545 C549 1.400 . S
C546 H531 0.960 . S
C546 H532 0.960 . S
C546 H533 0.960 . S
C546 C545 1.524 . S
C547 C544 1.403 . S
C547 C548 1.392 . S
C547 C551 1.495 . S
C548 C547 1.392 . S
C548 C549 1.385 . S
C548 C550 1.478 . S
C549 H543 0.930 . S
C549 C545 1.400 . S
C549 C548 1.385 . S
C550 C548 1.478 . S
C550 C552 1.381 . S
C550 C556 1.383 . S
C551 C547 1.495 . S
C551 H557 0.959 . S
C551 H558 0.961 . S
C551 H559 0.960 . S
C552 C550 1.381 . S
C552 C553 1.394 . S
C552 H560 0.930 . S
C553 C552 1.394 . S
C553 C554 1.383 . S
C553 H561 0.929 . S
C554 C553 1.383 . S
C554 C555 1.377 . S
C555 H539 0.930 . S
C555 C554 1.377 . S
C555 C556 1.379 . S
C556 H540 0.931 . S
C556 C550 1.383 . S
C556 C555 1.379 . S
H557 C551 0.959 . S
H558 C551 0.961 . S
H559 C551 0.960 . S
H560 C552 0.930 . S
H561 C553 0.929 . S
H562 C570 0.929 . S
H563 C572 0.930 . S
H564 C574 0.930 . S
H565 C577 0.929 . S
H566 C580 0.930 . S
H567 C582 0.960 . S
H568 C582 0.960 . S
H569 C582 0.960 . S
C570 H562 0.929 . S
C570 C571 1.377 . S
C570 C572 1.384 . S
C571 C570 1.377 . S
C571 C577 1.390 . S
C572 H563 0.930 . S
C572 C570 1.384 . S
C572 C573 1.372 . S
C573 C572 1.372 . S
C573 C574 1.400 . S
C573 C578 1.490 . S
C574 H564 0.930 . S
C574 C573 1.400 . S
C574 C577 1.386 . S
H575 C591 0.930 . S
H576 C592 0.931 . S
C577 H565 0.929 . S
C577 C571 1.390 . S
C577 C574 1.386 . S
C578 C573 1.490 . S
C578 C580 1.395 . S
C578 C581 1.403 . S
H579 C585 0.930 . S
C580 H566 0.930 . S
C580 C578 1.395 . S
C580 C583 1.403 . S
C581 C578 1.403 . S
C581 C582 1.524 . S
C581 C585 1.400 . S
C582 H567 0.960 . S
C582 H568 0.960 . S
C582 H569 0.960 . S
C582 C581 1.524 . S
C583 C580 1.403 . S
C583 C584 1.392 . S
C583 C587 1.495 . S
C584 C583 1.392 . S
C584 C585 1.385 . S
C584 C586 1.478 . S
C585 H579 0.930 . S
C585 C581 1.400 . S
C585 C584 1.385 . S
C586 C584 1.478 . S
C586 C588 1.381 . S
C586 C592 1.383 . S
C587 C583 1.495 . S
C587 H593 0.959 . S
C587 H594 0.961 . S
C587 H595 0.960 . S
C588 C586 1.381 . S
C588 C589 1.394 . S
C588 H596 0.930 . S
C589 C588 1.394 . S
C589 C590 1.383 . S
C589 H597 0.929 . S
C590 C589 1.383 . S
C590 C591 1.377 . S
C591 H575 0.930 . S
C591 C590 1.377 . S
C591 C592 1.379 . S
C592 H576 0.931 . S
C592 C586 1.383 . S
C592 C591 1.379 . S
H593 C587 0.959 . S
H594 C587 0.961 . S
H595 C587 0.960 . S
H596 C588 0.930 . S
H597 C589 0.929 . S
H598 C606 0.929 . S
H599 C608 0.930 . S
H600 C610 0.930 . S
H601 C613 0.929 . S
H602 C616 0.930 . S
H603 C618 0.960 . S
H604 C618 0.960 . S
H605 C618 0.960 . S
C606 H598 0.929 . S
C606 C607 1.377 . S
C606 C608 1.384 . S
C607 C606 1.377 . S
C607 C613 1.390 . S
C608 H599 0.930 . S
C608 C606 1.384 . S
C608 C609 1.372 . S
C609 C608 1.372 . S
C609 C610 1.400 . S
C609 C614 1.490 . S
C610 H600 0.930 . S
C610 C609 1.400 . S
C610 C613 1.386 . S
H611 C627 0.930 . S
H612 C628 0.931 . S
C613 H601 0.929 . S
C613 C607 1.390 . S
C613 C610 1.386 . S
C614 C609 1.490 . S
C614 C616 1.395 . S
C614 C617 1.403 . S
H615 C621 0.930 . S
C616 H602 0.930 . S
C616 C614 1.395 . S
C616 C619 1.403 . S
C617 C614 1.403 . S
C617 C618 1.524 . S
C617 C621 1.400 . S
C618 H603 0.960 . S
C618 H604 0.960 . S
C618 H605 0.960 . S
C618 C617 1.524 . S
C619 C616 1.403 . S
C619 C620 1.392 . S
C619 C623 1.495 . S
C620 C619 1.392 . S
C620 C621 1.385 . S
C620 C622 1.478 . S
C621 H615 0.930 . S
C621 C617 1.400 . S
C621 C620 1.385 . S
C622 C620 1.478 . S
C622 C624 1.381 . S
C622 C628 1.383 . S
C623 C619 1.495 . S
C623 H629 0.959 . S
C623 H630 0.961 . S
C623 H631 0.960 . S
C624 C622 1.381 . S
C624 C625 1.394 . S
C624 H632 0.930 . S
C625 C624 1.394 . S
C625 C626 1.383 . S
C625 H633 0.929 . S
C626 C625 1.383 . S
C626 C627 1.377 . S
C627 H611 0.930 . S
C627 C626 1.377 . S
C627 C628 1.379 . S
C628 H612 0.931 . S
C628 C622 1.383 . S
C628 C627 1.379 . S
H629 C623 0.959 . S
H630 C623 0.961 . S
H631 C623 0.960 . S
H632 C624 0.930 . S
H633 C625 0.929 . S
H634 C642 0.929 . S
H635 C644 0.930 . S
H636 C646 0.930 . S
H637 C649 0.929 . S
H638 C652 0.930 . S
H639 C654 0.960 . S
H640 C654 0.960 . S
H641 C654 0.960 . S
C642 H634 0.929 . S
C642 C643 1.377 . S
C642 C644 1.384 . S
C643 C642 1.377 . S
C643 C649 1.390 . S
C644 H635 0.930 . S
C644 C642 1.384 . S
C644 C645 1.372 . S
C645 C644 1.372 . S
C645 C646 1.400 . S
C645 C650 1.490 . S
C646 H636 0.930 . S
C646 C645 1.400 . S
C646 C649 1.386 . S
H647 C663 0.930 . S
H648 C664 0.931 . S
C649 H637 0.929 . S
C649 C643 1.390 . S
C649 C646 1.386 . S
C650 C645 1.490 . S
C650 C652 1.395 . S
C650 C653 1.403 . S
H651 C657 0.930 . S
C652 H638 0.930 . S
C652 C650 1.395 . S
C652 C655 1.403 . S
C653 C650 1.403 . S
C653 C654 1.524 . S
C653 C657 1.400 . S
C654 H639 0.960 . S
C654 H640 0.960 . S
C654 H641 0.960 . S
C654 C653 1.524 . S
C655 C652 1.403 . S
C655 C656 1.392 . S
C655 C659 1.495 . S
C656 C655 1.392 . S
C656 C657 1.385 . S
C656 C658 1.478 . S
C657 H651 0.930 . S
C657 C653 1.400 . S
C657 C656 1.385 . S
C658 C656 1.478 . S
C658 C660 1.381 . S
C658 C664 1.383 . S
C659 C655 1.495 . S
C659 H665 0.959 . S
C659 H666 0.961 . S
C659 H667 0.960 . S
C660 C658 1.381 . S
C660 C661 1.394 . S
C660 H668 0.930 . S
C661 C660 1.394 . S
C661 C662 1.383 . S
C661 H669 0.929 . S
C662 C661 1.383 . S
C662 C663 1.377 . S
C663 H647 0.930 . S
C663 C662 1.377 . S
C663 C664 1.379 . S
C664 H648 0.931 . S
C664 C658 1.383 . S
C664 C663 1.379 . S
H665 C659 0.959 . S
H666 C659 0.961 . S
H667 C659 0.960 . S
H668 C660 0.930 . S
H669 C661 0.929 . S
H670 C678 0.929 . S
H671 C680 0.930 . S
H672 C682 0.930 . S
H673 C685 0.929 . S
H674 C688 0.930 . S
H675 C690 0.960 . S
H676 C690 0.960 . S
H677 C690 0.960 . S
C678 H670 0.929 . S
C678 C679 1.377 . S
C678 C680 1.384 . S
C679 C678 1.377 . S
C679 C685 1.390 . S
C680 H671 0.930 . S
C680 C678 1.384 . S
C680 C681 1.372 . S
C681 C680 1.372 . S
C681 C682 1.400 . S
C681 C686 1.490 . S
C682 H672 0.930 . S
C682 C681 1.400 . S
C682 C685 1.386 . S
H683 C699 0.930 . S
H684 C700 0.931 . S
C685 H673 0.929 . S
C685 C679 1.390 . S
C685 C682 1.386 . S
C686 C681 1.490 . S
C686 C688 1.395 . S
C686 C689 1.403 . S
H687 C693 0.930 . S
C688 H674 0.930 . S
C688 C686 1.395 . S
C688 C691 1.403 . S
C689 C686 1.403 . S
C689 C690 1.524 . S
C689 C693 1.400 . S
C690 H675 0.960 . S
C690 H676 0.960 . S
C690 H677 0.960 . S
C690 C689 1.524 . S
C691 C688 1.403 . S
C691 C692 1.392 . S
C691 C695 1.495 . S
C692 C691 1.392 . S
C692 C693 1.385 . S
C692 C694 1.478 . S
C693 H687 0.930 . S
C693 C689 1.400 . S
C693 C692 1.385 . S
C694 C692 1.478 . S
C694 C696 1.381 . S
C694 C700 1.383 . S
C695 C691 1.495 . S
C695 H701 0.959 . S
C695 H702 0.961 . S
C695 H703 0.960 . S
C696 C694 1.381 . S
C696 C697 1.394 . S
C696 H704 0.930 . S
C697 C696 1.394 . S
C697 C698 1.383 . S
C697 H705 0.929 . S
C698 C697 1.383 . S
C698 C699 1.377 . S
C699 H683 0.930 . S
C699 C698 1.377 . S
C699 C700 1.379 . S
C700 H684 0.931 . S
C700 C694 1.383 . S
C700 C699 1.379 . S
H701 C695 0.959 . S
H702 C695 0.961 . S
H703 C695 0.960 . S
H704 C696 0.930 . S
H705 C697 0.929 . S
H706 C714 0.929 . S
H707 C716 0.930 . S
H708 C718 0.930 . S
H709 C721 0.929 . S
H710 C724 0.930 . S
H711 C726 0.960 . S
H712 C726 0.960 . S
H713 C726 0.960 . S
C714 H706 0.929 . S
C714 C715 1.377 . S
C714 C716 1.384 . S
C715 C714 1.377 . S
C715 C721 1.390 . S
C716 H707 0.930 . S
C716 C714 1.384 . S
C716 C717 1.372 . S
C717 C716 1.372 . S
C717 C718 1.400 . S
C717 C722 1.490 . S
C718 H708 0.930 . S
C718 C717 1.400 . S
C718 C721 1.386 . S
H719 C735 0.930 . S
H720 C736 0.931 . S
C721 H709 0.929 . S
C721 C715 1.390 . S
C721 C718 1.386 . S
C722 C717 1.490 . S
C722 C724 1.395 . S
C722 C725 1.403 . S
H723 C729 0.930 . S
C724 H710 0.930 . S
C724 C722 1.395 . S
C724 C727 1.403 . S
C725 C722 1.403 . S
C725 C726 1.524 . S
C725 C729 1.400 . S
C726 H711 0.960 . S
C726 H712 0.960 . S
C726 H713 0.960 . S
C726 C725 1.524 . S
C727 C724 1.403 . S
C727 C728 1.392 . S
C727 C731 1.495 . S
C728 C727 1.392 . S
C728 C729 1.385 . S
C728 C730 1.478 . S
C729 H723 0.930 . S
C729 C725 1.400 . S
C729 C728 1.385 . S
C730 C728 1.478 . S
C730 C732 1.381 . S
C730 C736 1.383 . S
C731 C727 1.495 . S
C731 H737 0.959 . S
C731 H738 0.961 . S
C731 H739 0.960 . S
C732 C730 1.381 . S
C732 C733 1.394 . S
C732 H740 0.930 . S
C733 C732 1.394 . S
C733 C734 1.383 . S
C733 H741 0.929 . S
C734 C733 1.383 . S
C734 C735 1.377 . S
C735 H719 0.930 . S
C735 C734 1.377 . S
C735 C736 1.379 . S
C736 H720 0.931 . S
C736 C730 1.383 . S
C736 C735 1.379 . S
H737 C731 0.959 . S
H738 C731 0.961 . S
H739 C731 0.960 . S
H740 C732 0.930 . S
H741 C733 0.929 . S
H742 C750 0.929 . S
H743 C752 0.930 . S
H744 C754 0.930 . S
H745 C757 0.929 . S
H746 C760 0.930 . S
H747 C762 0.960 . S
H748 C762 0.960 . S
H749 C762 0.960 . S
C750 H742 0.929 . S
C750 C751 1.377 . S
C750 C752 1.384 . S
C751 C750 1.377 . S
C751 C757 1.390 . S
C752 H743 0.930 . S
C752 C750 1.384 . S
C752 C753 1.372 . S
C753 C752 1.372 . S
C753 C754 1.400 . S
C753 C758 1.490 . S
C754 H744 0.930 . S
C754 C753 1.400 . S
C754 C757 1.386 . S
H755 C771 0.930 . S
H756 C772 0.931 . S
C757 H745 0.929 . S
C757 C751 1.390 . S
C757 C754 1.386 . S
C758 C753 1.490 . S
C758 C760 1.395 . S
C758 C761 1.403 . S
H759 C765 0.930 . S
C760 H746 0.930 . S
C760 C758 1.395 . S
C760 C763 1.403 . S
C761 C758 1.403 . S
C761 C762 1.524 . S
C761 C765 1.400 . S
C762 H747 0.960 . S
C762 H748 0.960 . S
C762 H749 0.960 . S
C762 C761 1.524 . S
C763 C760 1.403 . S
C763 C764 1.392 . S
C763 C767 1.495 . S
C764 C763 1.392 . S
C764 C765 1.385 . S
C764 C766 1.478 . S
C765 H759 0.930 . S
C765 C761 1.400 . S
C765 C764 1.385 . S
C766 C764 1.478 . S
C766 C768 1.381 . S
C766 C772 1.383 . S
C767 C763 1.495 . S
C767 H773 0.959 . S
C767 H774 0.961 . S
C767 H775 0.960 . S
C768 C766 1.381 . S
C768 C769 1.394 . S
C768 H776 0.930 . S
C769 C768 1.394 . S
C769 C770 1.383 . S
C769 H777 0.929 . S
C770 C769 1.383 . S
C770 C771 1.377 . S
C771 H755 0.930 . S
C771 C770 1.377 . S
C771 C772 1.379 . S
C772 H756 0.931 . S
C772 C766 1.383 . S
C772 C771 1.379 . S
H773 C767 0.959 . S
H774 C767 0.961 . S
H775 C767 0.960 . S
H776 C768 0.930 . S
H777 C769 0.929 . S
H778 C786 0.929 . S
H779 C788 0.930 . S
H780 C790 0.930 . S
H781 C793 0.929 . S
H782 C796 0.930 . S
H783 C798 0.960 . S
H784 C798 0.960 . S
H785 C798 0.960 . S
C786 H778 0.929 . S
C786 C787 1.377 . S
C786 C788 1.384 . S
C787 C786 1.377 . S
C787 C793 1.390 . S
C788 H779 0.930 . S
C788 C786 1.384 . S
C788 C789 1.372 . S
C789 C788 1.372 . S
C789 C790 1.400 . S
C789 C794 1.490 . S
C790 H780 0.930 . S
C790 C789 1.400 . S
C790 C793 1.386 . S
H791 C807 0.930 . S
H792 C808 0.931 . S
C793 H781 0.929 . S
C793 C787 1.390 . S
C793 C790 1.386 . S
C794 C789 1.490 . S
C794 C796 1.395 . S
C794 C797 1.403 . S
H795 C801 0.930 . S
C796 H782 0.930 . S
C796 C794 1.395 . S
C796 C799 1.403 . S
C797 C794 1.403 . S
C797 C798 1.524 . S
C797 C801 1.400 . S
C798 H783 0.960 . S
C798 H784 0.960 . S
C798 H785 0.960 . S
C798 C797 1.524 . S
C799 C796 1.403 . S
C799 C800 1.392 . S
C799 C803 1.495 . S
C800 C799 1.392 . S
C800 C801 1.385 . S
C800 C802 1.478 . S
C801 H795 0.930 . S
C801 C797 1.400 . S
C801 C800 1.385 . S
C802 C800 1.478 . S
C802 C804 1.381 . S
C802 C808 1.383 . S
C803 C799 1.495 . S
C803 H809 0.959 . S
C803 H810 0.961 . S
C803 H811 0.960 . S
C804 C802 1.381 . S
C804 C805 1.394 . S
C804 H812 0.930 . S
C805 C804 1.394 . S
C805 C806 1.383 . S
C805 H813 0.929 . S
C806 C805 1.383 . S
C806 C807 1.377 . S
C807 H791 0.930 . S
C807 C806 1.377 . S
C807 C808 1.379 . S
C808 H792 0.931 . S
C808 C802 1.383 . S
C808 C807 1.379 . S
H809 C803 0.959 . S
H810 C803 0.961 . S
H811 C803 0.960 . S
H812 C804 0.930 . S
H813 C805 0.929 . S
H814 C822 0.929 . S
H815 C824 0.930 . S
H816 C826 0.930 . S
H817 C829 0.929 . S
H818 C832 0.930 . S
H819 C834 0.960 . S
H820 C834 0.960 . S
H821 C834 0.960 . S
C822 H814 0.929 . S
C822 C823 1.377 . S
C822 C824 1.384 . S
C823 C822 1.377 . S
C823 C829 1.390 . S
C824 H815 0.930 . S
C824 C822 1.384 . S
C824 C825 1.372 . S
C825 C824 1.372 . S
C825 C826 1.400 . S
C825 C830 1.490 . S
C826 H816 0.930 . S
C826 C825 1.400 . S
C826 C829 1.386 . S
H827 C843 0.930 . S
H828 C844 0.931 . S
C829 H817 0.929 . S
C829 C823 1.390 . S
C829 C826 1.386 . S
C830 C825 1.490 . S
C830 C832 1.395 . S
C830 C833 1.403 . S
H831 C837 0.930 . S
C832 H818 0.930 . S
C832 C830 1.395 . S
C832 C835 1.403 . S
C833 C830 1.403 . S
C833 C834 1.524 . S
C833 C837 1.400 . S
C834 H819 0.960 . S
C834 H820 0.960 . S
C834 H821 0.960 . S
C834 C833 1.524 . S
C835 C832 1.403 . S
C835 C836 1.392 . S
C835 C839 1.495 . S
C836 C835 1.392 . S
C836 C837 1.385 . S
C836 C838 1.478 . S
C837 H831 0.930 . S
C837 C833 1.400 . S
C837 C836 1.385 . S
C838 C836 1.478 . S
C838 C840 1.381 . S
C838 C844 1.383 . S
C839 C835 1.495 . S
C839 H845 0.959 . S
C839 H846 0.961 . S
C839 H847 0.960 . S
C840 C838 1.381 . S
C840 C841 1.394 . S
C840 H848 0.930 . S
C841 C840 1.394 . S
C841 C842 1.383 . S
C841 H849 0.929 . S
C842 C841 1.383 . S
C842 C843 1.377 . S
C843 H827 0.930 . S
C843 C842 1.377 . S
C843 C844 1.379 . S
C844 H828 0.931 . S
C844 C838 1.383 . S
C844 C843 1.379 . S
H845 C839 0.959 . S
H846 C839 0.961 . S
H847 C839 0.960 . S
H848 C840 0.930 . S
H849 C841 0.929 . S
H850 C858 0.929 . S
H851 C860 0.930 . S
H852 C862 0.930 . S
H853 C865 0.929 . S
H854 C868 0.930 . S
H855 C870 0.960 . S
H856 C870 0.960 . S
H857 C870 0.960 . S
C858 H850 0.929 . S
C858 C859 1.377 . S
C858 C860 1.384 . S
C859 C858 1.377 . S
C859 C865 1.390 . S
C860 H851 0.930 . S
C860 C858 1.384 . S
C860 C861 1.372 . S
C861 C860 1.372 . S
C861 C862 1.400 . S
C861 C866 1.490 . S
C862 H852 0.930 . S
C862 C861 1.400 . S
C862 C865 1.386 . S
H863 C879 0.930 . S
H864 C880 0.931 . S
C865 H853 0.929 . S
C865 C859 1.390 . S
C865 C862 1.386 . S
C866 C861 1.490 . S
C866 C868 1.395 . S
C866 C869 1.403 . S
H867 C873 0.930 . S
C868 H854 0.930 . S
C868 C866 1.395 . S
C868 C871 1.403 . S
C869 C866 1.403 . S
C869 C870 1.524 . S
C869 C873 1.400 . S
C870 H855 0.960 . S
C870 H856 0.960 . S
C870 H857 0.960 . S
C870 C869 1.524 . S
C871 C868 1.403 . S
C871 C872 1.392 . S
C871 C875 1.495 . S
C872 C871 1.392 . S
C872 C873 1.385 . S
C872 C874 1.478 . S
C873 H867 0.930 . S
C873 C869 1.400 . S
C873 C872 1.385 . S
C874 C872 1.478 . S
C874 C876 1.381 . S
C874 C880 1.383 . S
C875 C871 1.495 . S
C875 H881 0.959 . S
C875 H882 0.961 . S
C875 H883 0.960 . S
C876 C874 1.381 . S
C876 C877 1.394 . S
C876 H884 0.930 . S
C877 C876 1.394 . S
C877 C878 1.383 . S
C877 H885 0.929 . S
C878 C877 1.383 . S
C878 C879 1.377 . S
C879 H863 0.930 . S
C879 C878 1.377 . S
C879 C880 1.379 . S
C880 H864 0.931 . S
C880 C874 1.383 . S
C880 C879 1.379 . S
H881 C875 0.959 . S
H882 C875 0.961 . S
H883 C875 0.960 . S
H884 C876 0.930 . S
H885 C877 0.929 . S
H886 C894 0.929 . S
H887 C896 0.930 . S
H888 C898 0.930 . S
H889 C901 0.929 . S
H890 C904 0.930 . S
H891 C906 0.960 . S
H892 C906 0.960 . S
H893 C906 0.960 . S
C894 H886 0.929 . S
C894 C895 1.377 . S
C894 C896 1.384 . S
C895 C894 1.377 . S
C895 C901 1.390 . S
C896 H887 0.930 . S
C896 C894 1.384 . S
C896 C897 1.372 . S
C897 C896 1.372 . S
C897 C898 1.400 . S
C897 C902 1.490 . S
C898 H888 0.930 . S
C898 C897 1.400 . S
C898 C901 1.386 . S
H899 C915 0.930 1_554 S
H900 C916 0.931 . S
C901 H889 0.929 . S
C901 C895 1.390 . S
C901 C898 1.386 . S
C902 C897 1.490 . S
C902 C904 1.395 . S
C902 C905 1.403 . S
H903 C909 0.930 . S
C904 H890 0.930 . S
C904 C902 1.395 . S
C904 C907 1.403 . S
C905 C902 1.403 . S
C905 C906 1.524 . S
C905 C909 1.400 . S
C906 H891 0.960 . S
C906 H892 0.960 . S
C906 H893 0.960 . S
C906 C905 1.524 . S
C907 C904 1.403 . S
C907 C908 1.392 . S
C907 C911 1.495 . S
C908 C907 1.392 . S
C908 C909 1.385 . S
C908 C910 1.478 . S
C909 H903 0.930 . S
C909 C905 1.400 . S
C909 C908 1.385 . S
C910 C908 1.478 . S
C910 C912 1.381 . S
C910 C916 1.383 . S
C911 C907 1.495 . S
C911 H917 0.959 . S
C911 H918 0.961 . S
C911 H919 0.960 . S
C912 C910 1.381 . S
C912 C913 1.394 . S
C912 H920 0.930 . S
C913 C912 1.394 . S
C913 C914 1.383 . S
C913 H921 0.929 . S
C914 C913 1.383 . S
C914 C915 1.377 . S
C915 H899 0.930 1_556 S
C915 C914 1.377 . S
C915 C916 1.379 . S
C916 H900 0.931 . S
C916 C910 1.383 . S
C916 C915 1.379 . S
H917 C911 0.959 . S
H918 C911 0.961 . S
H919 C911 0.960 . S
H920 C912 0.930 . S
H921 C913 0.929 . S
H922 C930 0.929 . S
H923 C932 0.930 . S
H924 C934 0.930 . S
H925 C937 0.929 . S
H926 C940 0.930 . S
H927 C942 0.960 . S
H928 C942 0.960 . S
H929 C942 0.960 . S
C930 H922 0.929 . S
C930 C931 1.377 . S
C930 C932 1.384 . S
C931 C930 1.377 . S
C931 C937 1.390 . S
C932 H923 0.930 . S
C932 C930 1.384 . S
C932 C933 1.372 . S
C933 C932 1.372 . S
C933 C934 1.400 . S
C933 C938 1.490 . S
C934 H924 0.930 . S
C934 C933 1.400 . S
C934 C937 1.386 . S
H935 C951 0.930 . S
H936 C952 0.931 . S
C937 H925 0.929 . S
C937 C931 1.390 . S
C937 C934 1.386 . S
C938 C933 1.490 . S
C938 C940 1.395 . S
C938 C941 1.403 . S
H939 C945 0.930 . S
C940 H926 0.930 . S
C940 C938 1.395 . S
C940 C943 1.403 . S
C941 C938 1.403 . S
C941 C942 1.524 . S
C941 C945 1.400 . S
C942 H927 0.960 . S
C942 H928 0.960 . S
C942 H929 0.960 . S
C942 C941 1.524 . S
C943 C940 1.403 . S
C943 C944 1.392 . S
C943 C947 1.495 . S
C944 C943 1.392 . S
C944 C945 1.385 . S
C944 C946 1.478 . S
C945 H939 0.930 . S
C945 C941 1.400 . S
C945 C944 1.385 . S
C946 C944 1.478 . S
C946 C948 1.381 . S
C946 C952 1.383 . S
C947 C943 1.495 . S
C947 H953 0.959 . S
C947 H954 0.961 . S
C947 H955 0.960 . S
C948 C946 1.381 . S
C948 C949 1.394 . S
C948 H956 0.930 . S
C949 C948 1.394 . S
C949 C950 1.383 . S
C949 H957 0.929 . S
C950 C949 1.383 . S
C950 C951 1.377 . S
C951 H935 0.930 . S
C951 C950 1.377 . S
C951 C952 1.379 . S
C952 H936 0.931 . S
C952 C946 1.383 . S
C952 C951 1.379 . S
H953 C947 0.959 . S
H954 C947 0.961 . S
H955 C947 0.960 . S
H956 C948 0.930 . S
H957 C949 0.929 . S
H958 C966 0.929 . S
H959 C968 0.930 . S
H960 C970 0.930 . S
H961 C973 0.929 . S
H962 C976 0.930 . S
H963 C978 0.960 . S
H964 C978 0.960 . S
H965 C978 0.960 . S
C966 H958 0.929 . S
C966 C967 1.377 . S
C966 C968 1.384 . S
C967 C966 1.377 . S
C967 C973 1.390 . S
C968 H959 0.930 . S
C968 C966 1.384 . S
C968 C969 1.372 . S
C969 C968 1.372 . S
C969 C970 1.400 . S
C969 C974 1.490 . S
C970 H960 0.930 . S
C970 C969 1.400 . S
C970 C973 1.386 . S
H971 C987 0.930 . S
H972 C988 0.931 . S
C973 H961 0.929 . S
C973 C967 1.390 . S
C973 C970 1.386 . S
C974 C969 1.490 . S
C974 C976 1.395 . S
C974 C977 1.403 . S
H975 C981 0.930 . S
C976 H962 0.930 . S
C976 C974 1.395 . S
C976 C979 1.403 . S
C977 C974 1.403 . S
C977 C978 1.524 . S
C977 C981 1.400 . S
C978 H963 0.960 . S
C978 H964 0.960 . S
C978 H965 0.960 . S
C978 C977 1.524 . S
C979 C976 1.403 . S
C979 C980 1.392 . S
C979 C983 1.495 . S
C980 C979 1.392 . S
C980 C981 1.385 . S
C980 C982 1.478 . S
C981 H975 0.930 . S
C981 C977 1.400 . S
C981 C980 1.385 . S
C982 C980 1.478 . S
C982 C984 1.381 . S
C982 C988 1.383 . S
C983 C979 1.495 . S
C983 H989 0.959 . S
C983 H990 0.961 . S
C983 H991 0.960 . S
C984 C982 1.381 . S
C984 C985 1.394 . S
C984 H992 0.930 . S
C985 C984 1.394 . S
C985 C986 1.383 . S
C985 H993 0.929 . S
C986 C985 1.383 . S
C986 C987 1.377 . S
C987 H971 0.930 . S
C987 C986 1.377 . S
C987 C988 1.379 . S
C988 H972 0.931 . S
C988 C982 1.383 . S
C988 C987 1.379 . S
H989 C983 0.959 . S
H990 C983 0.961 . S
H991 C983 0.960 . S
H992 C984 0.930 . S
H993 C985 0.929 . S
H994 C1002 0.929 . S
H995 C1004 0.930 . S
H996 C1006 0.930 . S
H997 C1009 0.929 . S
H998 C1012 0.930 . S
H999 C1014 0.960 . S
H1000 C1014 0.960 . S
H1001 C1014 0.960 . S
C1002 H994 0.929 . S
C1002 C1003 1.377 . S
C1002 C1004 1.384 . S
C1003 C1002 1.377 . S
C1003 C1009 1.390 . S
C1004 H995 0.930 . S
C1004 C1002 1.384 . S
C1004 C1005 1.372 . S
C1005 C1004 1.372 . S
C1005 C1006 1.400 . S
C1005 C1010 1.490 . S
C1006 H996 0.930 . S
C1006 C1005 1.400 . S
C1006 C1009 1.386 . S
H1007 C1023 0.930 . S
H1008 C1024 0.931 . S
C1009 H997 0.929 . S
C1009 C1003 1.390 . S
C1009 C1006 1.386 . S
C1010 C1005 1.490 . S
C1010 C1012 1.395 . S
C1010 C1013 1.403 . S
H1011 C1017 0.930 . S
C1012 H998 0.930 . S
C1012 C1010 1.395 . S
C1012 C1015 1.403 . S
C1013 C1010 1.403 . S
C1013 C1014 1.524 . S
C1013 C1017 1.400 . S
C1014 H999 0.960 . S
C1014 H1000 0.960 . S
C1014 H1001 0.960 . S
C1014 C1013 1.524 . S
C1015 C1012 1.403 . S
C1015 C1016 1.392 . S
C1015 C1019 1.495 . S
C1016 C1015 1.392 . S
C1016 C1017 1.385 . S
C1016 C1018 1.478 . S
C1017 H1011 0.930 . S
C1017 C1013 1.400 . S
C1017 C1016 1.385 . S
C1018 C1016 1.478 . S
C1018 C1020 1.381 . S
C1018 C1024 1.383 . S
C1019 C1015 1.495 . S
C1019 H1025 0.959 . S
C1019 H1026 0.961 . S
C1019 H1027 0.960 . S
C1020 C1018 1.381 . S
C1020 C1021 1.394 . S
C1020 H1028 0.930 . S
C1021 C1020 1.394 . S
C1021 C1022 1.383 . S
C1021 H1029 0.929 . S
C1022 C1021 1.383 . S
C1022 C1023 1.377 . S
C1023 H1007 0.930 . S
C1023 C1022 1.377 . S
C1023 C1024 1.379 . S
C1024 H1008 0.931 . S
C1024 C1018 1.383 . S
C1024 C1023 1.379 . S
H1025 C1019 0.959 . S
H1026 C1019 0.961 . S
H1027 C1019 0.960 . S
H1028 C1020 0.930 . S
H1029 C1021 0.929 . S
H1030 C1038 0.929 . S
H1031 C1040 0.930 . S
H1032 C1042 0.930 . S
H1033 C1045 0.929 . S
H1034 C1048 0.930 . S
H1035 C1050 0.960 . S
H1036 C1050 0.960 . S
H1037 C1050 0.960 . S
C1038 H1030 0.929 . S
C1038 C1039 1.377 . S
C1038 C1040 1.384 . S
C1039 C1038 1.377 . S
C1039 C1045 1.390 . S
C1040 H1031 0.930 . S
C1040 C1038 1.384 . S
C1040 C1041 1.372 . S
C1041 C1040 1.372 . S
C1041 C1042 1.400 . S
C1041 C1046 1.490 . S
C1042 H1032 0.930 . S
C1042 C1041 1.400 . S
C1042 C1045 1.386 . S
H1043 C1059 0.930 . S
H1044 C1060 0.931 . S
C1045 H1033 0.929 . S
C1045 C1039 1.390 . S
C1045 C1042 1.386 . S
C1046 C1041 1.490 . S
C1046 C1048 1.395 . S
C1046 C1049 1.403 . S
H1047 C1053 0.930 . S
C1048 H1034 0.930 . S
C1048 C1046 1.395 . S
C1048 C1051 1.403 . S
C1049 C1046 1.403 . S
C1049 C1050 1.524 . S
C1049 C1053 1.400 . S
C1050 H1035 0.960 . S
C1050 H1036 0.960 . S
C1050 H1037 0.960 . S
C1050 C1049 1.524 . S
C1051 C1048 1.403 . S
C1051 C1052 1.392 . S
C1051 C1055 1.495 . S
C1052 C1051 1.392 . S
C1052 C1053 1.385 . S
C1052 C1054 1.478 . S
C1053 H1047 0.930 . S
C1053 C1049 1.400 . S
C1053 C1052 1.385 . S
C1054 C1052 1.478 . S
C1054 C1056 1.381 . S
C1054 C1060 1.383 . S
C1055 C1051 1.495 . S
C1055 H1061 0.959 . S
C1055 H1062 0.961 . S
C1055 H1063 0.960 . S
C1056 C1054 1.381 . S
C1056 C1057 1.394 . S
C1056 H1064 0.930 . S
C1057 C1056 1.394 . S
C1057 C1058 1.383 . S
C1057 H1065 0.929 . S
C1058 C1057 1.383 . S
C1058 C1059 1.377 . S
C1059 H1043 0.930 . S
C1059 C1058 1.377 . S
C1059 C1060 1.379 . S
C1060 H1044 0.931 . S
C1060 C1054 1.383 . S
C1060 C1059 1.379 . S
H1061 C1055 0.959 . S
H1062 C1055 0.961 . S
H1063 C1055 0.960 . S
H1064 C1056 0.930 . S
H1065 C1057 0.929 . S
H1066 C1074 0.929 . S
H1067 C1076 0.930 . S
H1068 C1078 0.930 . S
H1069 C1081 0.929 . S
H1070 C1084 0.930 . S
H1071 C1086 0.960 . S
H1072 C1086 0.960 . S
H1073 C1086 0.960 . S
C1074 H1066 0.929 . S
C1074 C1075 1.377 . S
C1074 C1076 1.384 . S
C1075 C1074 1.377 . S
C1075 C1081 1.390 . S
C1076 H1067 0.930 . S
C1076 C1074 1.384 . S
C1076 C1077 1.372 . S
C1077 C1076 1.372 . S
C1077 C1078 1.400 . S
C1077 C1082 1.490 . S
C1078 H1068 0.930 . S
C1078 C1077 1.400 . S
C1078 C1081 1.386 . S
H1079 C1095 0.930 . S
H1080 C1096 0.931 . S
C1081 H1069 0.929 . S
C1081 C1075 1.390 . S
C1081 C1078 1.386 . S
C1082 C1077 1.490 . S
C1082 C1084 1.395 . S
C1082 C1085 1.403 . S
H1083 C1089 0.930 . S
C1084 H1070 0.930 . S
C1084 C1082 1.395 . S
C1084 C1087 1.403 . S
C1085 C1082 1.403 . S
C1085 C1086 1.524 . S
C1085 C1089 1.400 . S
C1086 H1071 0.960 . S
C1086 H1072 0.960 . S
C1086 H1073 0.960 . S
C1086 C1085 1.524 . S
C1087 C1084 1.403 . S
C1087 C1088 1.392 . S
C1087 C1091 1.495 . S
C1088 C1087 1.392 . S
C1088 C1089 1.385 . S
C1088 C1090 1.478 . S
C1089 H1083 0.930 . S
C1089 C1085 1.400 . S
C1089 C1088 1.385 . S
C1090 C1088 1.478 . S
C1090 C1092 1.381 . S
C1090 C1096 1.383 . S
C1091 C1087 1.495 . S
C1091 H1097 0.959 . S
C1091 H1098 0.961 . S
C1091 H1099 0.960 . S
C1092 C1090 1.381 . S
C1092 C1093 1.394 . S
C1092 H1100 0.930 . S
C1093 C1092 1.394 . S
C1093 C1094 1.383 . S
C1093 H1101 0.929 . S
C1094 C1093 1.383 . S
C1094 C1095 1.377 . S
C1095 H1079 0.930 . S
C1095 C1094 1.377 . S
C1095 C1096 1.379 . S
C1096 H1080 0.931 . S
C1096 C1090 1.383 . S
C1096 C1095 1.379 . S
H1097 C1091 0.959 . S
H1098 C1091 0.961 . S
H1099 C1091 0.960 . S
H1100 C1092 0.930 . S
H1101 C1093 0.929 . S
H1102 C1110 0.929 . S
H1103 C1112 0.930 . S
H1104 C1114 0.930 . S
H1105 C1117 0.929 . S
H1106 C1120 0.930 . S
H1107 C1122 0.960 . S
H1108 C1122 0.960 . S
H1109 C1122 0.960 . S
C1110 H1102 0.929 . S
C1110 C1111 1.377 . S
C1110 C1112 1.384 . S
C1111 C1110 1.377 . S
C1111 C1117 1.390 . S
C1112 H1103 0.930 . S
C1112 C1110 1.384 . S
C1112 C1113 1.372 . S
C1113 C1112 1.372 . S
C1113 C1114 1.400 . S
C1113 C1118 1.490 . S
C1114 H1104 0.930 . S
C1114 C1113 1.400 . S
C1114 C1117 1.386 . S
H1115 C1131 0.930 . S
H1116 C1132 0.931 . S
C1117 H1105 0.929 . S
C1117 C1111 1.390 . S
C1117 C1114 1.386 . S
C1118 C1113 1.490 . S
C1118 C1120 1.395 . S
C1118 C1121 1.403 . S
H1119 C1125 0.930 . S
C1120 H1106 0.930 . S
C1120 C1118 1.395 . S
C1120 C1123 1.403 . S
C1121 C1118 1.403 . S
C1121 C1122 1.524 . S
C1121 C1125 1.400 . S
C1122 H1107 0.960 . S
C1122 H1108 0.960 . S
C1122 H1109 0.960 . S
C1122 C1121 1.524 . S
C1123 C1120 1.403 . S
C1123 C1124 1.392 . S
C1123 C1127 1.495 . S
C1124 C1123 1.392 . S
C1124 C1125 1.385 . S
C1124 C1126 1.478 . S
C1125 H1119 0.930 . S
C1125 C1121 1.400 . S
C1125 C1124 1.385 . S
C1126 C1124 1.478 . S
C1126 C1128 1.381 . S
C1126 C1132 1.383 . S
C1127 C1123 1.495 . S
C1127 H1133 0.959 . S
C1127 H1134 0.961 . S
C1127 H1135 0.960 . S
C1128 C1126 1.381 . S
C1128 C1129 1.394 . S
C1128 H1136 0.930 . S
C1129 C1128 1.394 . S
C1129 C1130 1.383 . S
C1129 H1137 0.929 . S
C1130 C1129 1.383 . S
C1130 C1131 1.377 . S
C1131 H1115 0.930 . S
C1131 C1130 1.377 . S
C1131 C1132 1.379 . S
C1132 H1116 0.931 . S
C1132 C1126 1.383 . S
C1132 C1131 1.379 . S
H1133 C1127 0.959 . S
H1134 C1127 0.961 . S
H1135 C1127 0.960 . S
H1136 C1128 0.930 . S
H1137 C1129 0.929 . S
H1138 C1146 0.929 . S
H1139 C1148 0.930 . S
H1140 C1150 0.930 . S
H1141 C1153 0.929 . S
H1142 C1156 0.930 . S
H1143 C1158 0.960 . S
H1144 C1158 0.960 . S
H1145 C1158 0.960 . S
C1146 H1138 0.929 . S
C1146 C1147 1.377 . S
C1146 C1148 1.384 . S
C1147 C1146 1.377 . S
C1147 C1153 1.390 . S
C1148 H1139 0.930 . S
C1148 C1146 1.384 . S
C1148 C1149 1.372 . S
C1149 C1148 1.372 . S
C1149 C1150 1.400 . S
C1149 C1154 1.490 . S
C1150 H1140 0.930 . S
C1150 C1149 1.400 . S
C1150 C1153 1.386 . S
H1151 C1167 0.930 . S
H1152 C1168 0.931 . S
C1153 H1141 0.929 . S
C1153 C1147 1.390 . S
C1153 C1150 1.386 . S
C1154 C1149 1.490 . S
C1154 C1156 1.395 . S
C1154 C1157 1.403 . S
H1155 C1161 0.930 . S
C1156 H1142 0.930 . S
C1156 C1154 1.395 . S
C1156 C1159 1.403 . S
C1157 C1154 1.403 . S
C1157 C1158 1.524 . S
C1157 C1161 1.400 . S
C1158 H1143 0.960 . S
C1158 H1144 0.960 . S
C1158 H1145 0.960 . S
C1158 C1157 1.524 . S
C1159 C1156 1.403 . S
C1159 C1160 1.392 . S
C1159 C1163 1.495 . S
C1160 C1159 1.392 . S
C1160 C1161 1.385 . S
C1160 C1162 1.478 . S
C1161 H1155 0.930 . S
C1161 C1157 1.400 . S
C1161 C1160 1.385 . S
C1162 C1160 1.478 . S
C1162 C1164 1.381 . S
C1162 C1168 1.383 . S
C1163 C1159 1.495 . S
C1163 H1169 0.959 . S
C1163 H1170 0.961 . S
C1163 H1171 0.960 . S
C1164 C1162 1.381 . S
C1164 C1165 1.394 . S
C1164 H1172 0.930 . S
C1165 C1164 1.394 . S
C1165 C1166 1.383 . S
C1165 H1173 0.929 . S
C1166 C1165 1.383 . S
C1166 C1167 1.377 . S
C1167 H1151 0.930 . S
C1167 C1166 1.377 . S
C1167 C1168 1.379 . S
C1168 H1152 0.931 . S
C1168 C1162 1.383 . S
C1168 C1167 1.379 . S
H1169 C1163 0.959 . S
H1170 C1163 0.961 . S
H1171 C1163 0.960 . S
H1172 C1164 0.930 . S
H1173 C1165 0.929 . S
H1174 C1182 0.929 . S
H1175 C1184 0.930 . S
H1176 C1186 0.930 . S
H1177 C1189 0.929 . S
H1178 C1192 0.930 . S
H1179 C1194 0.960 . S
H1180 C1194 0.960 . S
H1181 C1194 0.960 . S
C1182 H1174 0.929 . S
C1182 C1183 1.377 . S
C1182 C1184 1.384 . S
C1183 C1182 1.377 . S
C1183 C1189 1.390 . S
C1184 H1175 0.930 . S
C1184 C1182 1.384 . S
C1184 C1185 1.372 . S
C1185 C1184 1.372 . S
C1185 C1186 1.400 . S
C1185 C1190 1.490 . S
C1186 H1176 0.930 . S
C1186 C1185 1.400 . S
C1186 C1189 1.386 . S
H1187 C1203 0.930 . S
H1188 C1204 0.931 . S
C1189 H1177 0.929 . S
C1189 C1183 1.390 . S
C1189 C1186 1.386 . S
C1190 C1185 1.490 . S
C1190 C1192 1.395 . S
C1190 C1193 1.403 . S
H1191 C1197 0.930 . S
C1192 H1178 0.930 . S
C1192 C1190 1.395 . S
C1192 C1195 1.403 . S
C1193 C1190 1.403 . S
C1193 C1194 1.524 . S
C1193 C1197 1.400 . S
C1194 H1179 0.960 . S
C1194 H1180 0.960 . S
C1194 H1181 0.960 . S
C1194 C1193 1.524 . S
C1195 C1192 1.403 . S
C1195 C1196 1.392 . S
C1195 C1199 1.495 . S
C1196 C1195 1.392 . S
C1196 C1197 1.385 . S
C1196 C1198 1.478 . S
C1197 H1191 0.930 . S
C1197 C1193 1.400 . S
C1197 C1196 1.385 . S
C1198 C1196 1.478 . S
C1198 C1200 1.381 . S
C1198 C1204 1.383 . S
C1199 C1195 1.495 . S
C1199 H1205 0.959 . S
C1199 H1206 0.961 . S
C1199 H1207 0.960 . S
C1200 C1198 1.381 . S
C1200 C1201 1.394 . S
C1200 H1208 0.930 . S
C1201 C1200 1.394 . S
C1201 C1202 1.383 . S
C1201 H1209 0.929 . S
C1202 C1201 1.383 . S
C1202 C1203 1.377 . S
C1203 H1187 0.930 . S
C1203 C1202 1.377 . S
C1203 C1204 1.379 . S
C1204 H1188 0.931 . S
C1204 C1198 1.383 . S
C1204 C1203 1.379 . S
H1205 C1199 0.959 . S
H1206 C1199 0.961 . S
H1207 C1199 0.960 . S
H1208 C1200 0.930 . S
H1209 C1201 0.929 . S
H1210 C1218 0.929 . S
H1211 C1220 0.930 . S
H1212 C1222 0.930 . S
H1213 C1225 0.929 . S
H1214 C1228 0.930 . S
H1215 C1230 0.960 . S
H1216 C1230 0.960 . S
H1217 C1230 0.960 . S
C1218 H1210 0.929 . S
C1218 C1219 1.377 . S
C1218 C1220 1.384 . S
C1219 C1218 1.377 . S
C1219 C1225 1.390 . S
C1220 H1211 0.930 . S
C1220 C1218 1.384 . S
C1220 C1221 1.372 . S
C1221 C1220 1.372 . S
C1221 C1222 1.400 . S
C1221 C1226 1.490 . S
C1222 H1212 0.930 . S
C1222 C1221 1.400 . S
C1222 C1225 1.386 . S
H1223 C1239 0.930 . S
H1224 C1240 0.931 . S
C1225 H1213 0.929 . S
C1225 C1219 1.390 . S
C1225 C1222 1.386 . S
C1226 C1221 1.490 . S
C1226 C1228 1.395 . S
C1226 C1229 1.403 . S
H1227 C1233 0.930 . S
C1228 H1214 0.930 . S
C1228 C1226 1.395 . S
C1228 C1231 1.403 . S
C1229 C1226 1.403 . S
C1229 C1230 1.524 . S
C1229 C1233 1.400 . S
C1230 H1215 0.960 . S
C1230 H1216 0.960 . S
C1230 H1217 0.960 . S
C1230 C1229 1.524 . S
C1231 C1228 1.403 . S
C1231 C1232 1.392 . S
C1231 C1235 1.495 . S
C1232 C1231 1.392 . S
C1232 C1233 1.385 . S
C1232 C1234 1.478 . S
C1233 H1227 0.930 . S
C1233 C1229 1.400 . S
C1233 C1232 1.385 . S
C1234 C1232 1.478 . S
C1234 C1236 1.381 . S
C1234 C1240 1.383 . S
C1235 C1231 1.495 . S
C1235 H1241 0.959 . S
C1235 H1242 0.961 . S
C1235 H1243 0.960 . S
C1236 C1234 1.381 . S
C1236 C1237 1.394 . S
C1236 H1244 0.930 . S
C1237 C1236 1.394 . S
C1237 C1238 1.383 . S
C1237 H1245 0.929 . S
C1238 C1237 1.383 . S
C1238 C1239 1.377 . S
C1239 H1223 0.930 . S
C1239 C1238 1.377 . S
C1239 C1240 1.379 . S
C1240 H1224 0.931 . S
C1240 C1234 1.383 . S
C1240 C1239 1.379 . S
H1241 C1235 0.959 . S
H1242 C1235 0.961 . S
H1243 C1235 0.960 . S
H1244 C1236 0.930 . S
H1245 C1237 0.929 . S
H1246 C1254 0.929 . S
H1247 C1256 0.930 . S
H1248 C1258 0.930 . S
H1249 C1261 0.929 . S
H1250 C1264 0.930 . S
H1251 C1266 0.960 . S
H1252 C1266 0.960 . S
H1253 C1266 0.960 . S
C1254 H1246 0.929 . S
C1254 C1255 1.377 . S
C1254 C1256 1.384 . S
C1255 C1254 1.377 . S
C1255 C1261 1.390 . S
C1256 H1247 0.930 . S
C1256 C1254 1.384 . S
C1256 C1257 1.372 . S
C1257 C1256 1.372 . S
C1257 C1258 1.400 . S
C1257 C1262 1.490 . S
C1258 H1248 0.930 . S
C1258 C1257 1.400 . S
C1258 C1261 1.386 . S
H1259 C1275 0.930 . S
H1260 C1276 0.931 . S
C1261 H1249 0.929 . S
C1261 C1255 1.390 . S
C1261 C1258 1.386 . S
C1262 C1257 1.490 . S
C1262 C1264 1.395 . S
C1262 C1265 1.403 . S
H1263 C1269 0.930 . S
C1264 H1250 0.930 . S
C1264 C1262 1.395 . S
C1264 C1267 1.403 . S
C1265 C1262 1.403 . S
C1265 C1266 1.524 . S
C1265 C1269 1.400 . S
C1266 H1251 0.960 . S
C1266 H1252 0.960 . S
C1266 H1253 0.960 . S
C1266 C1265 1.524 . S
C1267 C1264 1.403 . S
C1267 C1268 1.392 . S
C1267 C1271 1.495 . S
C1268 C1267 1.392 . S
C1268 C1269 1.385 . S
C1268 C1270 1.478 . S
C1269 H1263 0.930 . S
C1269 C1265 1.400 . S
C1269 C1268 1.385 . S
C1270 C1268 1.478 . S
C1270 C1272 1.381 . S
C1270 C1276 1.383 . S
C1271 C1267 1.495 . S
C1271 H1277 0.959 . S
C1271 H1278 0.961 . S
C1271 H1279 0.960 . S
C1272 C1270 1.381 . S
C1272 C1273 1.394 . S
C1272 H1280 0.930 . S
C1273 C1272 1.394 . S
C1273 C1274 1.383 . S
C1273 H1281 0.929 . S
C1274 C1273 1.383 . S
C1274 C1275 1.377 . S
C1275 H1259 0.930 . S
C1275 C1274 1.377 . S
C1275 C1276 1.379 . S
C1276 H1260 0.931 . S
C1276 C1270 1.383 . S
C1276 C1275 1.379 . S
H1277 C1271 0.959 . S
H1278 C1271 0.961 . S
H1279 C1271 0.960 . S
H1280 C1272 0.930 . S
H1281 C1273 0.929 . S
H1282 C1290 0.929 . S
H1283 C1292 0.930 . S
H1284 C1294 0.930 . S
H1285 C1297 0.929 . S
H1286 C1300 0.930 . S
H1287 C1302 0.960 . S
H1288 C1302 0.960 . S
H1289 C1302 0.960 . S
C1290 H1282 0.929 . S
C1290 C1291 1.377 . S
C1290 C1292 1.384 . S
C1291 C1290 1.377 . S
C1291 C1297 1.390 . S
C1292 H1283 0.930 . S
C1292 C1290 1.384 . S
C1292 C1293 1.372 . S
C1293 C1292 1.372 . S
C1293 C1294 1.400 . S
C1293 C1298 1.490 . S
C1294 H1284 0.930 . S
C1294 C1293 1.400 . S
C1294 C1297 1.386 . S
H1295 C1311 0.930 . S
H1296 C1312 0.931 . S
C1297 H1285 0.929 . S
C1297 C1291 1.390 . S
C1297 C1294 1.386 . S
C1298 C1293 1.490 . S
C1298 C1300 1.395 . S
C1298 C1301 1.403 . S
H1299 C1305 0.930 . S
C1300 H1286 0.930 . S
C1300 C1298 1.395 . S
C1300 C1303 1.403 . S
C1301 C1298 1.403 . S
C1301 C1302 1.524 . S
C1301 C1305 1.400 . S
C1302 H1287 0.960 . S
C1302 H1288 0.960 . S
C1302 H1289 0.960 . S
C1302 C1301 1.524 . S
C1303 C1300 1.403 . S
C1303 C1304 1.392 . S
C1303 C1307 1.495 . S
C1304 C1303 1.392 . S
C1304 C1305 1.385 . S
C1304 C1306 1.478 . S
C1305 H1299 0.930 . S
C1305 C1301 1.400 . S
C1305 C1304 1.385 . S
C1306 C1304 1.478 . S
C1306 C1308 1.381 . S
C1306 C1312 1.383 . S
C1307 C1303 1.495 . S
C1307 H1313 0.959 . S
C1307 H1314 0.961 . S
C1307 H1315 0.960 . S
C1308 C1306 1.381 . S
C1308 C1309 1.394 . S
C1308 H1316 0.930 . S
C1309 C1308 1.394 . S
C1309 C1310 1.383 . S
C1309 H1317 0.929 . S
C1310 C1309 1.383 . S
C1310 C1311 1.377 . S
C1311 H1295 0.930 . S
C1311 C1310 1.377 . S
C1311 C1312 1.379 . S
C1312 H1296 0.931 . S
C1312 C1306 1.383 . S
C1312 C1311 1.379 . S
H1313 C1307 0.959 . S
H1314 C1307 0.961 . S
H1315 C1307 0.960 . S
H1316 C1308 0.930 . S
H1317 C1309 0.929 . S
H1318 C1326 0.929 . S
H1319 C1328 0.930 . S
H1320 C1330 0.930 . S
H1321 C1333 0.929 . S
H1322 C1336 0.930 . S
H1323 C1338 0.960 . S
H1324 C1338 0.960 . S
H1325 C1338 0.960 . S
C1326 H1318 0.929 . S
C1326 C1327 1.377 . S
C1326 C1328 1.384 . S
C1327 C1326 1.377 . S
C1327 C1333 1.390 . S
C1328 H1319 0.930 . S
C1328 C1326 1.384 . S
C1328 C1329 1.372 . S
C1329 C1328 1.372 . S
C1329 C1330 1.400 . S
C1329 C1334 1.490 . S
C1330 H1320 0.930 . S
C1330 C1329 1.400 . S
C1330 C1333 1.386 . S
H1331 C1347 0.930 . S
H1332 C1348 0.931 . S
C1333 H1321 0.929 . S
C1333 C1327 1.390 . S
C1333 C1330 1.386 . S
C1334 C1329 1.490 . S
C1334 C1336 1.395 . S
C1334 C1337 1.403 . S
H1335 C1341 0.930 . S
C1336 H1322 0.930 . S
C1336 C1334 1.395 . S
C1336 C1339 1.403 . S
C1337 C1334 1.403 . S
C1337 C1338 1.524 . S
C1337 C1341 1.400 . S
C1338 H1323 0.960 . S
C1338 H1324 0.960 . S
C1338 H1325 0.960 . S
C1338 C1337 1.524 . S
C1339 C1336 1.403 . S
C1339 C1340 1.392 . S
C1339 C1343 1.495 . S
C1340 C1339 1.392 . S
C1340 C1341 1.385 . S
C1340 C1342 1.478 . S
C1341 H1335 0.930 . S
C1341 C1337 1.400 . S
C1341 C1340 1.385 . S
C1342 C1340 1.478 . S
C1342 C1344 1.381 . S
C1342 C1348 1.383 . S
C1343 C1339 1.495 . S
C1343 H1349 0.959 . S
C1343 H1350 0.961 . S
C1343 H1351 0.960 . S
C1344 C1342 1.381 . S
C1344 C1345 1.394 . S
C1344 H1352 0.930 . S
C1345 C1344 1.394 . S
C1345 C1346 1.383 . S
C1345 H1353 0.929 . S
C1346 C1345 1.383 . S
C1346 C1347 1.377 . S
C1347 H1331 0.930 . S
C1347 C1346 1.377 . S
C1347 C1348 1.379 . S
C1348 H1332 0.931 . S
C1348 C1342 1.383 . S
C1348 C1347 1.379 . S
H1349 C1343 0.959 . S
H1350 C1343 0.961 . S
H1351 C1343 0.960 . S
H1352 C1344 0.930 . S
H1353 C1345 0.929 . S
H1354 C1362 0.929 . S
H1355 C1364 0.930 . S
H1356 C1366 0.930 . S
H1357 C1369 0.929 . S
H1358 C1372 0.930 . S
H1359 C1374 0.960 . S
H1360 C1374 0.960 . S
H1361 C1374 0.960 . S
C1362 H1354 0.929 . S
C1362 C1363 1.377 . S
C1362 C1364 1.384 . S
C1363 C1362 1.377 . S
C1363 C1369 1.390 . S
C1364 H1355 0.930 . S
C1364 C1362 1.384 . S
C1364 C1365 1.372 . S
C1365 C1364 1.372 . S
C1365 C1366 1.400 . S
C1365 C1370 1.490 . S
C1366 H1356 0.930 . S
C1366 C1365 1.400 . S
C1366 C1369 1.386 . S
H1367 C1383 0.930 . S
H1368 C1384 0.931 . S
C1369 H1357 0.929 . S
C1369 C1363 1.390 . S
C1369 C1366 1.386 . S
C1370 C1365 1.490 . S
C1370 C1372 1.395 . S
C1370 C1373 1.403 . S
H1371 C1377 0.930 . S
C1372 H1358 0.930 . S
C1372 C1370 1.395 . S
C1372 C1375 1.403 . S
C1373 C1370 1.403 . S
C1373 C1374 1.524 . S
C1373 C1377 1.400 . S
C1374 H1359 0.960 . S
C1374 H1360 0.960 . S
C1374 H1361 0.960 . S
C1374 C1373 1.524 . S
C1375 C1372 1.403 . S
C1375 C1376 1.392 . S
C1375 C1379 1.495 . S
C1376 C1375 1.392 . S
C1376 C1377 1.385 . S
C1376 C1378 1.478 . S
C1377 H1371 0.930 . S
C1377 C1373 1.400 . S
C1377 C1376 1.385 . S
C1378 C1376 1.478 . S
C1378 C1380 1.381 . S
C1378 C1384 1.383 . S
C1379 C1375 1.495 . S
C1379 H1385 0.959 . S
C1379 H1386 0.961 . S
C1379 H1387 0.960 . S
C1380 C1378 1.381 . S
C1380 C1381 1.394 . S
C1380 H1388 0.930 . S
C1381 C1380 1.394 . S
C1381 C1382 1.383 . S
C1381 H1389 0.907 1_556 S
C1382 C1381 1.383 . S
C1382 C1383 1.377 . S
C1383 H1367 0.930 . S
C1383 C1382 1.377 . S
C1383 C1384 1.379 . S
C1384 H1368 0.931 . S
C1384 C1378 1.383 . S
C1384 C1383 1.379 . S
H1385 C1379 0.959 . S
H1386 C1379 0.961 . S
H1387 C1379 0.960 . S
H1388 C1380 0.930 . S
H1389 C1381 0.907 1_554 S
H1390 C1398 0.929 . S
H1391 C1400 0.930 . S
H1392 C1402 0.930 . S
H1393 C1405 0.929 . S
H1394 C1408 0.930 . S
H1395 C1410 0.960 . S
H1396 C1410 0.960 . S
H1397 C1410 0.960 . S
C1398 H1390 0.929 . S
C1398 C1399 1.377 . S
C1398 C1400 1.384 . S
C1399 C1398 1.377 . S
C1399 C1405 1.390 . S
C1400 H1391 0.930 . S
C1400 C1398 1.384 . S
C1400 C1401 1.372 . S
C1401 C1400 1.372 . S
C1401 C1402 1.400 . S
C1401 C1406 1.490 . S
C1402 H1392 0.930 . S
C1402 C1401 1.400 . S
C1402 C1405 1.386 . S
H1403 C1419 0.930 . S
H1404 C1420 0.931 . S
C1405 H1393 0.929 . S
C1405 C1399 1.390 . S
C1405 C1402 1.386 . S
C1406 C1401 1.490 . S
C1406 C1408 1.395 . S
C1406 C1409 1.403 . S
H1407 C1413 0.930 . S
C1408 H1394 0.930 . S
C1408 C1406 1.395 . S
C1408 C1411 1.403 . S
C1409 C1406 1.403 . S
C1409 C1410 1.524 . S
C1409 C1413 1.400 . S
C1410 H1395 0.960 . S
C1410 H1396 0.960 . S
C1410 H1397 0.960 . S
C1410 C1409 1.524 . S
C1411 C1408 1.403 . S
C1411 C1412 1.392 . S
C1411 C1415 1.495 . S
C1412 C1411 1.392 . S
C1412 C1413 1.385 . S
C1412 C1414 1.478 . S
C1413 H1407 0.930 . S
C1413 C1409 1.400 . S
C1413 C1412 1.385 . S
C1414 C1412 1.478 . S
C1414 C1416 1.381 . S
C1414 C1420 1.383 . S
C1415 C1411 1.495 . S
C1415 H1421 0.959 . S
C1415 H1422 0.961 . S
C1415 H1423 0.960 . S
C1416 C1414 1.381 . S
C1416 C1417 1.394 . S
C1416 H1424 0.930 . S
C1417 C1416 1.394 . S
C1417 C1418 1.383 . S
C1417 H1425 0.929 . S
C1418 C1417 1.383 . S
C1418 C1419 1.377 . S
C1419 H1403 0.930 . S
C1419 C1418 1.377 . S
C1419 C1420 1.379 . S
C1420 H1404 0.931 . S
C1420 C1414 1.383 . S
C1420 C1419 1.379 . S
H1421 C1415 0.959 . S
H1422 C1415 0.961 . S
H1423 C1415 0.960 . S
H1424 C1416 0.930 . S
H1425 C1417 0.929 . S
H1426 C1434 0.929 . S
H1427 C1436 0.930 . S
H1428 C1438 0.930 . S
H1429 C1441 0.929 . S
H1430 C1444 0.930 . S
H1431 C1446 0.960 . S
H1432 C1446 0.960 . S
H1433 C1446 0.960 . S
C1434 H1426 0.929 . S
C1434 C1435 1.377 . S
C1434 C1436 1.384 . S
C1435 C1434 1.377 . S
C1435 C1441 1.390 . S
C1436 H1427 0.930 . S
C1436 C1434 1.384 . S
C1436 C1437 1.372 . S
C1437 C1436 1.372 . S
C1437 C1438 1.400 . S
C1437 C1442 1.490 . S
C1438 H1428 0.930 . S
C1438 C1437 1.400 . S
C1438 C1441 1.386 . S
H1439 C1455 0.930 . S
H1440 C1456 0.931 . S
C1441 H1429 0.929 . S
C1441 C1435 1.390 . S
C1441 C1438 1.386 . S
C1442 C1437 1.490 . S
C1442 C1444 1.395 . S
C1442 C1445 1.403 . S
H1443 C1449 0.930 . S
C1444 H1430 0.930 . S
C1444 C1442 1.395 . S
C1444 C1447 1.403 . S
C1445 C1442 1.403 . S
C1445 C1446 1.524 . S
C1445 C1449 1.400 . S
C1446 H1431 0.960 . S
C1446 H1432 0.960 . S
C1446 H1433 0.960 . S
C1446 C1445 1.524 . S
C1447 C1444 1.403 . S
C1447 C1448 1.392 . S
C1447 C1451 1.495 . S
C1448 C1447 1.392 . S
C1448 C1449 1.385 . S
C1448 C1450 1.478 . S
C1449 H1443 0.930 . S
C1449 C1445 1.400 . S
C1449 C1448 1.385 . S
C1450 C1448 1.478 . S
C1450 C1452 1.381 . S
C1450 C1456 1.383 . S
C1451 C1447 1.495 . S
C1451 H1457 0.959 . S
C1451 H1458 0.961 . S
C1451 H1459 0.960 . S
C1452 C1450 1.381 . S
C1452 C1453 1.394 . S
C1452 H1460 0.930 . S
C1453 C1452 1.394 . S
C1453 C1454 1.383 . S
C1453 H1461 0.929 . S
C1454 C1453 1.383 . S
C1454 C1455 1.377 . S
C1455 H1439 0.930 . S
C1455 C1454 1.377 . S
C1455 C1456 1.379 . S
C1456 H1440 0.931 . S
C1456 C1450 1.383 . S
C1456 C1455 1.379 . S
H1457 C1451 0.959 . S
H1458 C1451 0.961 . S
H1459 C1451 0.960 . S
H1460 C1452 0.930 . S
H1461 C1453 0.929 . S
H1462 C1470 0.929 . S
H1463 C1472 0.930 . S
H1464 C1474 0.930 . S
H1465 C1477 0.929 . S
H1466 C1480 0.930 . S
H1467 C1482 0.960 . S
H1468 C1482 0.960 . S
H1469 C1482 0.960 . S
C1470 H1462 0.929 . S
C1470 C1471 1.377 . S
C1470 C1472 1.384 . S
C1471 C1470 1.377 . S
C1471 C1477 1.390 . S
C1472 H1463 0.930 . S
C1472 C1470 1.384 . S
C1472 C1473 1.372 . S
C1473 C1472 1.372 . S
C1473 C1474 1.400 . S
C1473 C1478 1.490 . S
C1474 H1464 0.930 . S
C1474 C1473 1.400 . S
C1474 C1477 1.386 . S
H1475 C1491 0.930 . S
H1476 C1492 0.931 . S
C1477 H1465 0.929 . S
C1477 C1471 1.390 . S
C1477 C1474 1.386 . S
C1478 C1473 1.490 . S
C1478 C1480 1.395 . S
C1478 C1481 1.403 . S
H1479 C1485 0.930 . S
C1480 H1466 0.930 . S
C1480 C1478 1.395 . S
C1480 C1483 1.403 . S
C1481 C1478 1.403 . S
C1481 C1482 1.524 . S
C1481 C1485 1.400 . S
C1482 H1467 0.960 . S
C1482 H1468 0.960 . S
C1482 H1469 0.960 . S
C1482 C1481 1.524 . S
C1483 C1480 1.403 . S
C1483 C1484 1.392 . S
C1483 C1487 1.495 . S
C1484 C1483 1.392 . S
C1484 C1485 1.385 . S
C1484 C1486 1.478 . S
C1485 H1479 0.930 . S
C1485 C1481 1.400 . S
C1485 C1484 1.385 . S
C1486 C1484 1.478 . S
C1486 C1488 1.381 . S
C1486 C1492 1.383 . S
C1487 C1483 1.495 . S
C1487 H1493 0.959 . S
C1487 H1494 0.961 . S
C1487 H1495 0.960 . S
C1488 C1486 1.381 . S
C1488 C1489 1.394 . S
C1488 H1496 0.930 . S
C1489 C1488 1.394 . S
C1489 C1490 1.383 . S
C1489 H1497 0.929 . S
C1490 C1489 1.383 . S
C1490 C1491 1.377 . S
C1491 H1475 0.930 . S
C1491 C1490 1.377 . S
C1491 C1492 1.379 . S
C1492 H1476 0.931 . S
C1492 C1486 1.383 . S
C1492 C1491 1.379 . S
H1493 C1487 0.959 . S
H1494 C1487 0.961 . S
H1495 C1487 0.960 . S
H1496 C1488 0.930 . S
H1497 C1489 0.929 . S
H1498 C1506 0.929 . S
H1499 C1508 0.930 . S
H1500 C1510 0.930 . S
H1501 C1513 0.929 . S
H1502 C1516 0.930 . S
H1503 C1518 0.960 . S
H1504 C1518 0.960 . S
H1505 C1518 0.960 . S
C1506 H1498 0.929 . S
C1506 C1507 1.377 . S
C1506 C1508 1.384 . S
C1507 C1506 1.377 . S
C1507 C1513 1.390 . S
C1508 H1499 0.930 . S
C1508 C1506 1.384 . S
C1508 C1509 1.372 . S
C1509 C1508 1.372 . S
C1509 C1510 1.400 . S
C1509 C1514 1.490 . S
C1510 H1500 0.930 . S
C1510 C1509 1.400 . S
C1510 C1513 1.386 . S
H1511 C1527 0.930 . S
H1512 C1528 0.931 . S
C1513 H1501 0.929 . S
C1513 C1507 1.390 . S
C1513 C1510 1.386 . S
C1514 C1509 1.490 . S
C1514 C1516 1.395 . S
C1514 C1517 1.403 . S
H1515 C1521 0.930 . S
C1516 H1502 0.930 . S
C1516 C1514 1.395 . S
C1516 C1519 1.403 . S
C1517 C1514 1.403 . S
C1517 C1518 1.524 . S
C1517 C1521 1.400 . S
C1518 H1503 0.960 . S
C1518 H1504 0.960 . S
C1518 H1505 0.960 . S
C1518 C1517 1.524 . S
C1519 C1516 1.403 . S
C1519 C1520 1.392 . S
C1519 C1523 1.495 . S
C1520 C1519 1.392 . S
C1520 C1521 1.385 . S
C1520 C1522 1.478 . S
C1521 H1515 0.930 . S
C1521 C1517 1.400 . S
C1521 C1520 1.385 . S
C1522 C1520 1.478 . S
C1522 C1524 1.381 . S
C1522 C1528 1.383 . S
C1523 C1519 1.495 . S
C1523 H1529 0.959 . S
C1523 H1530 0.961 . S
C1523 H1531 0.960 . S
C1524 C1522 1.381 . S
C1524 C1525 1.394 . S
C1524 H1532 0.930 . S
C1525 C1524 1.394 . S
C1525 C1526 1.383 . S
C1525 H1533 0.929 . S
C1526 C1525 1.383 . S
C1526 C1527 1.377 . S
C1527 H1511 0.930 . S
C1527 C1526 1.377 . S
C1527 C1528 1.379 . S
C1528 H1512 0.931 . S
C1528 C1522 1.383 . S
C1528 C1527 1.379 . S
H1529 C1523 0.959 . S
H1530 C1523 0.961 . S
H1531 C1523 0.960 . S
H1532 C1524 0.930 . S
H1533 C1525 0.929 . S
H1534 C1542 0.929 . S
H1535 C1544 0.930 . S
H1536 C1546 0.930 . S
H1537 C1549 0.929 . S
H1538 C1552 0.930 . S
H1539 C1554 0.960 . S
H1540 C1554 0.960 . S
H1541 C1554 0.960 . S
C1542 H1534 0.929 . S
C1542 C1543 1.377 . S
C1542 C1544 1.384 . S
C1543 C1542 1.377 . S
C1543 C1549 1.390 . S
C1544 H1535 0.930 . S
C1544 C1542 1.384 . S
C1544 C1545 1.372 . S
C1545 C1544 1.372 . S
C1545 C1546 1.400 . S
C1545 C1550 1.490 . S
C1546 H1536 0.930 . S
C1546 C1545 1.400 . S
C1546 C1549 1.386 . S
H1547 C1563 0.930 . S
H1548 C1564 0.931 . S
C1549 H1537 0.929 . S
C1549 C1543 1.390 . S
C1549 C1546 1.386 . S
C1550 C1545 1.490 . S
C1550 C1552 1.395 . S
C1550 C1553 1.403 . S
H1551 C1557 0.930 . S
C1552 H1538 0.930 . S
C1552 C1550 1.395 . S
C1552 C1555 1.403 . S
C1553 C1550 1.403 . S
C1553 C1554 1.524 . S
C1553 C1557 1.400 . S
C1554 H1539 0.960 . S
C1554 H1540 0.960 . S
C1554 H1541 0.960 . S
C1554 C1553 1.524 . S
C1555 C1552 1.403 . S
C1555 C1556 1.392 . S
C1555 C1559 1.495 . S
C1556 C1555 1.392 . S
C1556 C1557 1.385 . S
C1556 C1558 1.478 . S
C1557 H1551 0.930 . S
C1557 C1553 1.400 . S
C1557 C1556 1.385 . S
C1558 C1556 1.478 . S
C1558 C1560 1.381 . S
C1558 C1564 1.383 . S
C1559 C1555 1.495 . S
C1559 H1565 0.959 . S
C1559 H1566 0.961 . S
C1559 H1567 0.960 . S
C1560 C1558 1.381 . S
C1560 C1561 1.394 . S
C1560 H1568 0.930 . S
C1561 C1560 1.394 . S
C1561 C1562 1.383 . S
C1561 H1569 0.929 . S
C1562 C1561 1.383 . S
C1562 C1563 1.377 . S
C1563 H1547 0.930 . S
C1563 C1562 1.377 . S
C1563 C1564 1.379 . S
C1564 H1548 0.931 . S
C1564 C1558 1.383 . S
C1564 C1563 1.379 . S
H1565 C1559 0.959 . S
H1566 C1559 0.961 . S
H1567 C1559 0.960 . S
H1568 C1560 0.930 . S
H1569 C1561 0.929 . S
H1570 C1578 0.929 . S
H1571 C1580 0.930 . S
H1572 C1582 0.930 . S
H1573 C1585 0.929 . S
H1574 C1588 0.930 . S
H1575 C1590 0.960 . S
H1576 C1590 0.960 . S
H1577 C1590 0.960 . S
C1578 H1570 0.929 . S
C1578 C1579 1.377 . S
C1578 C1580 1.384 . S
C1579 C1578 1.377 . S
C1579 C1585 1.390 . S
C1580 H1571 0.930 . S
C1580 C1578 1.384 . S
C1580 C1581 1.372 . S
C1581 C1580 1.372 . S
C1581 C1582 1.400 . S
C1581 C1586 1.490 . S
C1582 H1572 0.930 . S
C1582 C1581 1.400 . S
C1582 C1585 1.386 . S
H1583 C1599 0.930 . S
H1584 C1600 0.931 . S
C1585 H1573 0.929 . S
C1585 C1579 1.390 . S
C1585 C1582 1.386 . S
C1586 C1581 1.490 . S
C1586 C1588 1.395 . S
C1586 C1589 1.403 . S
H1587 C1593 0.930 . S
C1588 H1574 0.930 . S
C1588 C1586 1.395 . S
C1588 C1591 1.403 . S
C1589 C1586 1.403 . S
C1589 C1590 1.524 . S
C1589 C1593 1.400 . S
C1590 H1575 0.960 . S
C1590 H1576 0.960 . S
C1590 H1577 0.960 . S
C1590 C1589 1.524 . S
C1591 C1588 1.403 . S
C1591 C1592 1.392 . S
C1591 C1595 1.495 . S
C1592 C1591 1.392 . S
C1592 C1593 1.385 . S
C1592 C1594 1.478 . S
C1593 H1587 0.930 . S
C1593 C1589 1.400 . S
C1593 C1592 1.385 . S
C1594 C1592 1.478 . S
C1594 C1596 1.381 . S
C1594 C1600 1.383 . S
C1595 C1591 1.495 . S
C1595 H1601 0.959 . S
C1595 H1602 0.961 . S
C1595 H1603 0.960 . S
C1596 C1594 1.381 . S
C1596 C1597 1.394 . S
C1596 H1604 0.930 . S
C1597 C1596 1.394 . S
C1597 C1598 1.383 . S
C1597 H1605 0.929 . S
C1598 C1597 1.383 . S
C1598 C1599 1.377 . S
C1599 H1583 0.930 . S
C1599 C1598 1.377 . S
C1599 C1600 1.379 . S
C1600 H1584 0.931 . S
C1600 C1594 1.383 . S
C1600 C1599 1.379 . S
H1601 C1595 0.959 . S
H1602 C1595 0.961 . S
H1603 C1595 0.960 . S
H1604 C1596 0.930 . S
H1605 C1597 0.929 . S
H1606 C1614 0.929 . S
H1607 C1616 0.930 . S
H1608 C1618 0.930 . S
H1609 C1621 0.929 . S
H1610 C1624 0.930 . S
H1611 C1626 0.960 . S
H1612 C1626 0.960 . S
H1613 C1626 0.960 . S
C1614 H1606 0.929 . S
C1614 C1615 1.377 . S
C1614 C1616 1.384 . S
C1615 C1614 1.377 . S
C1615 C1621 1.390 . S
C1616 H1607 0.930 . S
C1616 C1614 1.384 . S
C1616 C1617 1.372 . S
C1617 C1616 1.372 . S
C1617 C1618 1.400 . S
C1617 C1622 1.490 . S
C1618 H1608 0.930 . S
C1618 C1617 1.400 . S
C1618 C1621 1.386 . S
H1619 C1635 0.930 . S
H1620 C1636 0.931 . S
C1621 H1609 0.929 . S
C1621 C1615 1.390 . S
C1621 C1618 1.386 . S
C1622 C1617 1.490 . S
C1622 C1624 1.395 . S
C1622 C1625 1.403 . S
H1623 C1629 0.930 . S
C1624 H1610 0.930 . S
C1624 C1622 1.395 . S
C1624 C1627 1.403 . S
C1625 C1622 1.403 . S
C1625 C1626 1.524 . S
C1625 C1629 1.400 . S
C1626 H1611 0.960 . S
C1626 H1612 0.960 . S
C1626 H1613 0.960 . S
C1626 C1625 1.524 . S
C1627 C1624 1.403 . S
C1627 C1628 1.392 . S
C1627 C1631 1.495 . S
C1628 C1627 1.392 . S
C1628 C1629 1.385 . S
C1628 C1630 1.478 . S
C1629 H1623 0.930 . S
C1629 C1625 1.400 . S
C1629 C1628 1.385 . S
C1630 C1628 1.478 . S
C1630 C1632 1.381 . S
C1630 C1636 1.383 . S
C1631 C1627 1.495 . S
C1631 H1637 0.959 . S
C1631 H1638 0.961 . S
C1631 H1639 0.960 . S
C1632 C1630 1.381 . S
C1632 C1633 1.394 . S
C1632 H1640 0.930 . S
C1633 C1632 1.394 . S
C1633 C1634 1.383 . S
C1633 H1641 0.929 . S
C1634 C1633 1.383 . S
C1634 C1635 1.377 . S
C1635 H1619 0.930 . S
C1635 C1634 1.377 . S
C1635 C1636 1.379 . S
C1636 H1620 0.931 . S
C1636 C1630 1.383 . S
C1636 C1635 1.379 . S
H1637 C1631 0.959 . S
H1638 C1631 0.961 . S
H1639 C1631 0.960 . S
H1640 C1632 0.930 . S
H1641 C1633 0.929 . S
H1642 C1650 0.929 . S
H1643 C1652 0.930 . S
H1644 C1654 0.930 . S
H1645 C1657 0.929 . S
H1646 C1660 0.930 . S
H1647 C1662 0.960 . S
H1648 C1662 0.960 . S
H1649 C1662 0.960 . S
C1650 H1642 0.929 . S
C1650 C1651 1.377 . S
C1650 C1652 1.384 . S
C1651 C1650 1.377 . S
C1651 C1657 1.390 . S
C1652 H1643 0.930 . S
C1652 C1650 1.384 . S
C1652 C1653 1.372 . S
C1653 C1652 1.372 . S
C1653 C1654 1.400 . S
C1653 C1658 1.490 . S
C1654 H1644 0.930 . S
C1654 C1653 1.400 . S
C1654 C1657 1.386 . S
H1655 C1671 0.930 . S
H1656 C1672 0.931 . S
C1657 H1645 0.929 . S
C1657 C1651 1.390 . S
C1657 C1654 1.386 . S
C1658 C1653 1.490 . S
C1658 C1660 1.395 . S
C1658 C1661 1.403 . S
H1659 C1665 0.930 . S
C1660 H1646 0.930 . S
C1660 C1658 1.395 . S
C1660 C1663 1.403 . S
C1661 C1658 1.403 . S
C1661 C1662 1.524 . S
C1661 C1665 1.400 . S
C1662 H1647 0.960 . S
C1662 H1648 0.960 . S
C1662 H1649 0.960 . S
C1662 C1661 1.524 . S
C1663 C1660 1.403 . S
C1663 C1664 1.392 . S
C1663 C1667 1.495 . S
C1664 C1663 1.392 . S
C1664 C1665 1.385 . S
C1664 C1666 1.478 . S
C1665 H1659 0.930 . S
C1665 C1661 1.400 . S
C1665 C1664 1.385 . S
C1666 C1664 1.478 . S
C1666 C1668 1.381 . S
C1666 C1672 1.383 . S
C1667 C1663 1.495 . S
C1667 H1673 0.959 . S
C1667 H1674 0.961 . S
C1667 H1675 0.960 . S
C1668 C1666 1.381 . S
C1668 C1669 1.394 . S
C1668 H1676 0.930 . S
C1669 C1668 1.394 . S
C1669 C1670 1.383 . S
C1669 H1677 0.929 . S
C1670 C1669 1.383 . S
C1670 C1671 1.377 . S
C1671 H1655 0.930 . S
C1671 C1670 1.377 . S
C1671 C1672 1.379 . S
C1672 H1656 0.931 . S
C1672 C1666 1.383 . S
C1672 C1671 1.379 . S
H1673 C1667 0.959 . S
H1674 C1667 0.961 . S
H1675 C1667 0.960 . S
H1676 C1668 0.930 . S
H1677 C1669 0.929 . S
H1678 C1686 0.929 . S
H1679 C1688 0.930 . S
H1680 C1690 0.930 . S
H1681 C1693 0.929 . S
H1682 C1696 0.930 . S
H1683 C1698 0.960 . S
H1684 C1698 0.960 . S
H1685 C1698 0.960 . S
C1686 H1678 0.929 . S
C1686 C1687 1.377 . S
C1686 C1688 1.384 . S
C1687 C1686 1.377 . S
C1687 C1693 1.390 . S
C1688 H1679 0.930 . S
C1688 C1686 1.384 . S
C1688 C1689 1.372 . S
C1689 C1688 1.372 . S
C1689 C1690 1.400 . S
C1689 C1694 1.490 . S
C1690 H1680 0.930 . S
C1690 C1689 1.400 . S
C1690 C1693 1.386 . S
H1691 C1707 0.930 . S
H1692 C1708 0.931 . S
C1693 H1681 0.929 . S
C1693 C1687 1.390 . S
C1693 C1690 1.386 . S
C1694 C1689 1.490 . S
C1694 C1696 1.395 . S
C1694 C1697 1.403 . S
H1695 C1701 0.930 . S
C1696 H1682 0.930 . S
C1696 C1694 1.395 . S
C1696 C1699 1.403 . S
C1697 C1694 1.403 . S
C1697 C1698 1.524 . S
C1697 C1701 1.400 . S
C1698 H1683 0.960 . S
C1698 H1684 0.960 . S
C1698 H1685 0.960 . S
C1698 C1697 1.524 . S
C1699 C1696 1.403 . S
C1699 C1700 1.392 . S
C1699 C1703 1.495 . S
C1700 C1699 1.392 . S
C1700 C1701 1.385 . S
C1700 C1702 1.478 . S
C1701 H1695 0.930 . S
C1701 C1697 1.400 . S
C1701 C1700 1.385 . S
C1702 C1700 1.478 . S
C1702 C1704 1.381 . S
C1702 C1708 1.383 . S
C1703 C1699 1.495 . S
C1703 H1709 0.959 . S
C1703 H1710 0.961 . S
C1703 H1711 0.960 . S
C1704 C1702 1.381 . S
C1704 C1705 1.394 . S
C1704 H1712 0.930 . S
C1705 C1704 1.394 . S
C1705 C1706 1.383 . S
C1705 H1713 0.929 . S
C1706 C1705 1.383 . S
C1706 C1707 1.377 . S
C1707 H1691 0.930 . S
C1707 C1706 1.377 . S
C1707 C1708 1.379 . S
C1708 H1692 0.931 . S
C1708 C1702 1.383 . S
C1708 C1707 1.379 . S
H1709 C1703 0.959 . S
H1710 C1703 0.961 . S
H1711 C1703 0.960 . S
H1712 C1704 0.930 . S
H1713 C1705 0.929 . S
H1714 C1722 0.929 . S
H1715 C1724 0.930 . S
H1716 C1726 0.930 . S
H1717 C1729 0.929 . S
H1718 C1732 0.930 . S
H1719 C1734 0.960 . S
H1720 C1734 0.960 . S
H1721 C1734 0.960 . S
C1722 H1714 0.929 . S
C1722 C1723 1.377 . S
C1722 C1724 1.384 . S
C1723 C1722 1.377 . S
C1723 C1729 1.390 . S
C1724 H1715 0.930 . S
C1724 C1722 1.384 . S
C1724 C1725 1.372 . S
C1725 C1724 1.372 . S
C1725 C1726 1.400 . S
C1725 C1730 1.490 . S
C1726 H1716 0.930 . S
C1726 C1725 1.400 . S
C1726 C1729 1.386 . S
H1727 C1743 0.930 . S
H1728 C1744 0.931 . S
C1729 H1717 0.929 . S
C1729 C1723 1.390 . S
C1729 C1726 1.386 . S
C1730 C1725 1.490 . S
C1730 C1732 1.395 . S
C1730 C1733 1.403 . S
H1731 C1737 0.930 . S
C1732 H1718 0.930 . S
C1732 C1730 1.395 . S
C1732 C1735 1.403 . S
C1733 C1730 1.403 . S
C1733 C1734 1.524 . S
C1733 C1737 1.400 . S
C1734 H1719 0.960 . S
C1734 H1720 0.960 . S
C1734 H1721 0.960 . S
C1734 C1733 1.524 . S
C1735 C1732 1.403 . S
C1735 C1736 1.392 . S
C1735 C1739 1.495 . S
C1736 C1735 1.392 . S
C1736 C1737 1.385 . S
C1736 C1738 1.478 . S
C1737 H1731 0.930 . S
C1737 C1733 1.400 . S
C1737 C1736 1.385 . S
C1738 C1736 1.478 . S
C1738 C1740 1.381 . S
C1738 C1744 1.383 . S
C1739 C1735 1.495 . S
C1739 H1745 0.959 . S
C1739 H1746 0.961 . S
C1739 H1747 0.960 . S
C1740 C1738 1.381 . S
C1740 C1741 1.394 . S
C1740 H1748 0.930 . S
C1741 C1740 1.394 . S
C1741 C1742 1.383 . S
C1741 H1749 0.929 . S
C1742 C1741 1.383 . S
C1742 C1743 1.377 . S
C1743 H1727 0.930 . S
C1743 C1742 1.377 . S
C1743 C1744 1.379 . S
C1744 H1728 0.931 . S
C1744 C1738 1.383 . S
C1744 C1743 1.379 . S
H1745 C1739 0.959 . S
H1746 C1739 0.961 . S
H1747 C1739 0.960 . S
H1748 C1740 0.930 . S
H1749 C1741 0.929 . S
H1750 C1758 0.929 . S
H1751 C1760 0.930 . S
H1752 C1762 0.930 . S
H1753 C1765 0.929 . S
H1754 C1768 0.930 . S
H1755 C1770 0.960 . S
H1756 C1770 0.960 . S
H1757 C1770 0.960 . S
C1758 H1750 0.929 . S
C1758 C1759 1.377 . S
C1758 C1760 1.384 . S
C1759 C1758 1.377 . S
C1759 C1765 1.390 . S
C1760 H1751 0.930 . S
C1760 C1758 1.384 . S
C1760 C1761 1.372 . S
C1761 C1760 1.372 . S
C1761 C1762 1.400 . S
C1761 C1766 1.490 . S
C1762 H1752 0.930 . S
C1762 C1761 1.400 . S
C1762 C1765 1.386 . S
H1763 C1779 0.930 . S
H1764 C1780 0.931 . S
C1765 H1753 0.929 . S
C1765 C1759 1.390 . S
C1765 C1762 1.386 . S
C1766 C1761 1.490 . S
C1766 C1768 1.395 . S
C1766 C1769 1.403 . S
H1767 C1773 0.930 . S
C1768 H1754 0.930 . S
C1768 C1766 1.395 . S
C1768 C1771 1.403 . S
C1769 C1766 1.403 . S
C1769 C1770 1.524 . S
C1769 C1773 1.400 . S
C1770 H1755 0.960 . S
C1770 H1756 0.960 . S
C1770 H1757 0.960 . S
C1770 C1769 1.524 . S
C1771 C1768 1.403 . S
C1771 C1772 1.392 . S
C1771 C1775 1.495 . S
C1772 C1771 1.392 . S
C1772 C1773 1.385 . S
C1772 C1774 1.478 . S
C1773 H1767 0.930 . S
C1773 C1769 1.400 . S
C1773 C1772 1.385 . S
C1774 C1772 1.478 . S
C1774 C1776 1.381 . S
C1774 C1780 1.383 . S
C1775 C1771 1.495 . S
C1775 H1781 0.959 . S
C1775 H1782 0.961 . S
C1775 H1783 0.960 . S
C1776 C1774 1.381 . S
C1776 C1777 1.394 . S
C1776 H1784 0.930 . S
C1777 C1776 1.394 . S
C1777 C1778 1.383 . S
C1777 H1785 0.929 . S
C1778 C1777 1.383 . S
C1778 C1779 1.377 . S
C1779 H1763 0.930 . S
C1779 C1778 1.377 . S
C1779 C1780 1.379 . S
C1780 H1764 0.931 . S
C1780 C1774 1.383 . S
C1780 C1779 1.379 . S
H1781 C1775 0.959 . S
H1782 C1775 0.961 . S
H1783 C1775 0.960 . S
H1784 C1776 0.930 . S
H1785 C1777 0.929 . S
H1786 C1794 0.929 . S
H1787 C1796 0.930 . S
H1788 C1798 0.930 . S
H1789 C1801 0.929 . S
H1790 C1804 0.930 . S
H1791 C1806 0.960 . S
H1792 C1806 0.960 . S
H1793 C1806 0.960 . S
C1794 H1786 0.929 . S
C1794 C1795 1.377 . S
C1794 C1796 1.384 . S
C1795 C1794 1.377 . S
C1795 C1801 1.390 . S
C1796 H1787 0.930 . S
C1796 C1794 1.384 . S
C1796 C1797 1.372 . S
C1797 C1796 1.372 . S
C1797 C1798 1.400 . S
C1797 C1802 1.490 . S
C1798 H1788 0.930 . S
C1798 C1797 1.400 . S
C1798 C1801 1.386 . S
H1799 C1815 0.930 . S
H1800 C1816 0.931 . S
C1801 H1789 0.929 . S
C1801 C1795 1.390 . S
C1801 C1798 1.386 . S
C1802 C1797 1.490 . S
C1802 C1804 1.395 . S
C1802 C1805 1.403 . S
H1803 C1809 0.930 . S
C1804 H1790 0.930 . S
C1804 C1802 1.395 . S
C1804 C1807 1.403 . S
C1805 C1802 1.403 . S
C1805 C1806 1.524 . S
C1805 C1809 1.400 . S
C1806 H1791 0.960 . S
C1806 H1792 0.960 . S
C1806 H1793 0.960 . S
C1806 C1805 1.524 . S
C1807 C1804 1.403 . S
C1807 C1808 1.392 . S
C1807 C1811 1.495 . S
C1808 C1807 1.392 . S
C1808 C1809 1.385 . S
C1808 C1810 1.478 . S
C1809 H1803 0.930 . S
C1809 C1805 1.400 . S
C1809 C1808 1.385 . S
C1810 C1808 1.478 . S
C1810 C1812 1.381 . S
C1810 C1816 1.383 . S
C1811 C1807 1.495 . S
C1811 H1817 0.959 . S
C1811 H1818 0.961 . S
C1811 H1819 0.960 . S
C1812 C1810 1.381 . S
C1812 C1813 1.394 . S
C1812 H1820 0.930 . S
C1813 C1812 1.394 . S
C1813 C1814 1.383 . S
C1813 H1821 0.929 . S
C1814 C1813 1.383 . S
C1814 C1815 1.377 . S
C1815 H1799 0.930 . S
C1815 C1814 1.377 . S
C1815 C1816 1.379 . S
C1816 H1800 0.931 . S
C1816 C1810 1.383 . S
C1816 C1815 1.379 . S
H1817 C1811 0.959 . S
H1818 C1811 0.961 . S
H1819 C1811 0.960 . S
H1820 C1812 0.930 . S
H1821 C1813 0.929 . S
H1822 C1830 0.929 . S
H1823 C1832 0.930 . S
H1824 C1834 0.930 . S
H1825 C1837 0.929 . S
H1826 C1840 0.930 . S
H1827 C1842 0.960 . S
H1828 C1842 0.960 . S
H1829 C1842 0.960 . S
C1830 H1822 0.929 . S
C1830 C1831 1.377 . S
C1830 C1832 1.384 . S
C1831 C1830 1.377 . S
C1831 C1837 1.390 . S
C1832 H1823 0.930 . S
C1832 C1830 1.384 . S
C1832 C1833 1.372 . S
C1833 C1832 1.372 . S
C1833 C1834 1.400 . S
C1833 C1838 1.490 . S
C1834 H1824 0.930 . S
C1834 C1833 1.400 . S
C1834 C1837 1.386 . S
H1835 C1851 0.930 . S
H1836 C1852 0.931 . S
C1837 H1825 0.929 . S
C1837 C1831 1.390 . S
C1837 C1834 1.386 . S
C1838 C1833 1.490 . S
C1838 C1840 1.395 . S
C1838 C1841 1.403 . S
H1839 C1845 0.930 . S
C1840 H1826 0.930 . S
C1840 C1838 1.395 . S
C1840 C1843 1.403 . S
C1841 C1838 1.403 . S
C1841 C1842 1.524 . S
C1841 C1845 1.400 . S
C1842 H1827 0.960 . S
C1842 H1828 0.960 . S
C1842 H1829 0.960 . S
C1842 C1841 1.524 . S
C1843 C1840 1.403 . S
C1843 C1844 1.392 . S
C1843 C1847 1.495 . S
C1844 C1843 1.392 . S
C1844 C1845 1.385 . S
C1844 C1846 1.478 . S
C1845 H1839 0.930 . S
C1845 C1841 1.400 . S
C1845 C1844 1.385 . S
C1846 C1844 1.478 . S
C1846 C1848 1.381 . S
C1846 C1852 1.383 . S
C1847 C1843 1.495 . S
C1847 H1853 0.959 . S
C1847 H1854 0.961 . S
C1847 H1855 0.960 . S
C1848 C1846 1.381 . S
C1848 C1849 1.394 . S
C1848 H1856 0.930 . S
C1849 C1848 1.394 . S
C1849 C1850 1.383 . S
C1849 H1857 0.929 . S
C1850 C1849 1.383 . S
C1850 C1851 1.377 . S
C1851 H1835 0.930 . S
C1851 C1850 1.377 . S
C1851 C1852 1.379 . S
C1852 H1836 0.931 . S
C1852 C1846 1.383 . S
C1852 C1851 1.379 . S
H1853 C1847 0.959 . S
H1854 C1847 0.961 . S
H1855 C1847 0.960 . S
H1856 C1848 0.930 . S
H1857 C1849 0.929 . S
H1858 C1866 0.929 . S
H1859 C1868 0.930 . S
H1860 C1870 0.930 . S
H1861 C1873 0.929 . S
H1862 C1876 0.930 . S
H1863 C1878 0.960 . S
H1864 C1878 0.960 . S
H1865 C1878 0.960 . S
C1866 H1858 0.929 . S
C1866 C1867 1.377 . S
C1866 C1868 1.384 . S
C1867 C1866 1.377 . S
C1867 C1873 1.390 . S
C1868 H1859 0.930 . S
C1868 C1866 1.384 . S
C1868 C1869 1.372 . S
C1869 C1868 1.372 . S
C1869 C1870 1.400 . S
C1869 C1874 1.490 . S
C1870 H1860 0.930 . S
C1870 C1869 1.400 . S
C1870 C1873 1.386 . S
H1871 C1887 0.930 . S
H1872 C1888 0.931 . S
C1873 H1861 0.929 . S
C1873 C1867 1.390 . S
C1873 C1870 1.386 . S
C1874 C1869 1.490 . S
C1874 C1876 1.395 . S
C1874 C1877 1.403 . S
H1875 C1881 0.930 . S
C1876 H1862 0.930 . S
C1876 C1874 1.395 . S
C1876 C1879 1.403 . S
C1877 C1874 1.403 . S
C1877 C1878 1.524 . S
C1877 C1881 1.400 . S
C1878 H1863 0.960 . S
C1878 H1864 0.960 . S
C1878 H1865 0.960 . S
C1878 C1877 1.524 . S
C1879 C1876 1.403 . S
C1879 C1880 1.392 . S
C1879 C1883 1.495 . S
C1880 C1879 1.392 . S
C1880 C1881 1.385 . S
C1880 C1882 1.478 . S
C1881 H1875 0.930 . S
C1881 C1877 1.400 . S
C1881 C1880 1.385 . S
C1882 C1880 1.478 . S
C1882 C1884 1.381 . S
C1882 C1888 1.383 . S
C1883 C1879 1.495 . S
C1883 H1889 0.959 . S
C1883 H1890 0.961 . S
C1883 H1891 0.960 . S
C1884 C1882 1.381 . S
C1884 C1885 1.394 . S
C1884 H1892 0.930 . S
C1885 C1884 1.394 . S
C1885 C1886 1.383 . S
C1885 H1893 0.929 . S
C1886 C1885 1.383 . S
C1886 C1887 1.377 . S
C1887 H1871 0.930 . S
C1887 C1886 1.377 . S
C1887 C1888 1.379 . S
C1888 H1872 0.931 . S
C1888 C1882 1.383 . S
C1888 C1887 1.379 . S
H1889 C1883 0.959 . S
H1890 C1883 0.961 . S
H1891 C1883 0.960 . S
H1892 C1884 0.930 . S
H1893 C1885 0.929 . S
H1894 C1902 0.929 . S
H1895 C1904 0.930 . S
H1896 C1906 0.930 . S
H1897 C1909 0.929 . S
H1898 C1912 0.930 . S
H1899 C1914 0.960 . S
H1900 C1914 0.960 . S
H1901 C1914 0.960 . S
C1902 H1894 0.929 . S
C1902 C1903 1.377 . S
C1902 C1904 1.384 . S
C1903 C1902 1.377 . S
C1903 C1909 1.390 . S
C1904 H1895 0.930 . S
C1904 C1902 1.384 . S
C1904 C1905 1.372 . S
C1905 C1904 1.372 . S
C1905 C1906 1.400 . S
C1905 C1910 1.490 . S
C1906 H1896 0.930 . S
C1906 C1905 1.400 . S
C1906 C1909 1.386 . S
H1907 C1923 0.930 . S
H1908 C1924 0.931 . S
C1909 H1897 0.929 . S
C1909 C1903 1.390 . S
C1909 C1906 1.386 . S
C1910 C1905 1.490 . S
C1910 C1912 1.395 . S
C1910 C1913 1.403 . S
H1911 C1917 0.930 . S
C1912 H1898 0.930 . S
C1912 C1910 1.395 . S
C1912 C1915 1.403 . S
C1913 C1910 1.403 . S
C1913 C1914 1.524 . S
C1913 C1917 1.400 . S
C1914 H1899 0.960 . S
C1914 H1900 0.960 . S
C1914 H1901 0.960 . S
C1914 C1913 1.524 . S
C1915 C1912 1.403 . S
C1915 C1916 1.392 . S
C1915 C1919 1.495 . S
C1916 C1915 1.392 . S
C1916 C1917 1.385 . S
C1916 C1918 1.478 . S
C1917 H1911 0.930 . S
C1917 C1913 1.400 . S
C1917 C1916 1.385 . S
C1918 C1916 1.478 . S
C1918 C1920 1.381 . S
C1918 C1924 1.383 . S
C1919 C1915 1.495 . S
C1919 H1925 0.959 . S
C1919 H1926 0.961 . S
C1919 H1927 0.960 . S
C1920 C1918 1.381 . S
C1920 C1921 1.394 . S
C1920 H1928 0.930 . S
C1921 C1920 1.394 . S
C1921 C1922 1.383 . S
C1921 H1929 0.929 . S
C1922 C1921 1.383 . S
C1922 C1923 1.377 . S
C1923 H1907 0.930 . S
C1923 C1922 1.377 . S
C1923 C1924 1.379 . S
C1924 H1908 0.931 . S
C1924 C1918 1.383 . S
C1924 C1923 1.379 . S
H1925 C1919 0.959 . S
H1926 C1919 0.961 . S
H1927 C1919 0.960 . S
H1928 C1920 0.930 . S
H1929 C1921 0.929 . S
H1930 C1938 0.929 . S
H1931 C1940 0.930 . S
H1932 C1942 0.930 . S
H1933 C1945 0.929 . S
H1934 C1948 0.930 . S
H1935 C1950 0.960 . S
H1936 C1950 0.960 . S
H1937 C1950 0.960 . S
C1938 H1930 0.929 . S
C1938 C1939 1.377 . S
C1938 C1940 1.384 . S
C1939 C1938 1.377 . S
C1939 C1945 1.390 . S
C1940 H1931 0.930 . S
C1940 C1938 1.384 . S
C1940 C1941 1.372 . S
C1941 C1940 1.372 . S
C1941 C1942 1.400 . S
C1941 C1946 1.490 . S
C1942 H1932 0.930 . S
C1942 C1941 1.400 . S
C1942 C1945 1.386 . S
H1943 C1959 0.930 . S
H1944 C1960 0.931 . S
C1945 H1933 0.929 . S
C1945 C1939 1.390 . S
C1945 C1942 1.386 . S
C1946 C1941 1.490 . S
C1946 C1948 1.395 . S
C1946 C1949 1.403 . S
H1947 C1953 0.930 . S
C1948 H1934 0.930 . S
C1948 C1946 1.395 . S
C1948 C1951 1.403 . S
C1949 C1946 1.403 . S
C1949 C1950 1.524 . S
C1949 C1953 1.400 . S
C1950 H1935 0.960 . S
C1950 H1936 0.960 . S
C1950 H1937 0.960 . S
C1950 C1949 1.524 . S
C1951 C1948 1.403 . S
C1951 C1952 1.392 . S
C1951 C1955 1.495 . S
C1952 C1951 1.392 . S
C1952 C1953 1.385 . S
C1952 C1954 1.478 . S
C1953 H1947 0.930 . S
C1953 C1949 1.400 . S
C1953 C1952 1.385 . S
C1954 C1952 1.478 . S
C1954 C1956 1.381 . S
C1954 C1960 1.383 . S
C1955 C1951 1.495 . S
C1955 H1961 0.959 . S
C1955 H1962 0.961 . S
C1955 H1963 0.960 . S
C1956 C1954 1.381 . S
C1956 C1957 1.394 . S
C1956 H1964 0.930 . S
C1957 C1956 1.394 . S
C1957 C1958 1.383 . S
C1957 H1965 0.929 . S
C1958 C1957 1.383 . S
C1958 C1959 1.377 . S
C1959 H1943 0.930 . S
C1959 C1958 1.377 . S
C1959 C1960 1.379 . S
C1960 H1944 0.931 . S
C1960 C1954 1.383 . S
C1960 C1959 1.379 . S
H1961 C1955 0.959 . S
H1962 C1955 0.961 . S
H1963 C1955 0.960 . S
H1964 C1956 0.930 . S
H1965 C1957 0.929 . S
H1966 C1974 0.929 . S
H1967 C1976 0.930 . S
H1968 C1978 0.930 . S
H1969 C1981 0.929 . S
H1970 C1984 0.930 . S
H1971 C1986 0.960 . S
H1972 C1986 0.960 . S
H1973 C1986 0.960 . S
C1974 H1966 0.929 . S
C1974 C1975 1.377 . S
C1974 C1976 1.384 . S
C1975 C1974 1.377 . S
C1975 C1981 1.390 . S
C1976 H1967 0.930 . S
C1976 C1974 1.384 . S
C1976 C1977 1.372 . S
C1977 C1976 1.372 . S
C1977 C1978 1.400 . S
C1977 C1982 1.490 . S
C1978 H1968 0.930 . S
C1978 C1977 1.400 . S
C1978 C1981 1.386 . S
H1979 C1995 0.930 . S
H1980 C1996 0.931 . S
C1981 H1969 0.929 . S
C1981 C1975 1.390 . S
C1981 C1978 1.386 . S
C1982 C1977 1.490 . S
C1982 C1984 1.395 . S
C1982 C1985 1.403 . S
H1983 C1989 0.930 . S
C1984 H1970 0.930 . S
C1984 C1982 1.395 . S
C1984 C1987 1.403 . S
C1985 C1982 1.403 . S
C1985 C1986 1.524 . S
C1985 C1989 1.400 . S
C1986 H1971 0.960 . S
C1986 H1972 0.960 . S
C1986 H1973 0.960 . S
C1986 C1985 1.524 . S
C1987 C1984 1.403 . S
C1987 C1988 1.392 . S
C1987 C1991 1.495 . S
C1988 C1987 1.392 . S
C1988 C1989 1.385 . S
C1988 C1990 1.478 . S
C1989 H1983 0.930 . S
C1989 C1985 1.400 . S
C1989 C1988 1.385 . S
C1990 C1988 1.478 . S
C1990 C1992 1.381 . S
C1990 C1996 1.383 . S
C1991 C1987 1.495 . S
C1991 H1997 0.959 . S
C1991 H1998 0.961 . S
C1991 H1999 0.960 . S
C1992 C1990 1.381 . S
C1992 C1993 1.394 . S
C1992 H2000 0.930 . S
C1993 C1992 1.394 . S
C1993 C1994 1.383 . S
C1993 H2001 0.929 . S
C1994 C1993 1.383 . S
C1994 C1995 1.377 . S
C1995 H1979 0.930 . S
C1995 C1994 1.377 . S
C1995 C1996 1.379 . S
C1996 H1980 0.931 . S
C1996 C1990 1.383 . S
C1996 C1995 1.379 . S
H1997 C1991 0.959 . S
H1998 C1991 0.961 . S
H1999 C1991 0.960 . S
H2000 C1992 0.930 . S
H2001 C1993 0.929 . S
H2002 C2010 0.929 . S
H2003 C2012 0.930 . S
H2004 C2014 0.930 . S
H2005 C2017 0.929 . S
H2006 C2020 0.930 . S
H2007 C2022 0.960 . S
H2008 C2022 0.960 . S
H2009 C2022 0.960 . S
C2010 H2002 0.929 . S
C2010 C2011 1.377 . S
C2010 C2012 1.384 . S
C2011 C2010 1.377 . S
C2011 C2017 1.390 . S
C2012 H2003 0.930 . S
C2012 C2010 1.384 . S
C2012 C2013 1.372 . S
C2013 C2012 1.372 . S
C2013 C2014 1.400 . S
C2013 C2018 1.490 . S
C2014 H2004 0.930 . S
C2014 C2013 1.400 . S
C2014 C2017 1.386 . S
H2015 C2031 0.930 . S
H2016 C2032 0.931 . S
C2017 H2005 0.929 . S
C2017 C2011 1.390 . S
C2017 C2014 1.386 . S
C2018 C2013 1.490 . S
C2018 C2020 1.395 . S
C2018 C2021 1.403 . S
H2019 C2025 0.930 . S
C2020 H2006 0.930 . S
C2020 C2018 1.395 . S
C2020 C2023 1.403 . S
C2021 C2018 1.403 . S
C2021 C2022 1.524 . S
C2021 C2025 1.400 . S
C2022 H2007 0.960 . S
C2022 H2008 0.960 . S
C2022 H2009 0.960 . S
C2022 C2021 1.524 . S
C2023 C2020 1.403 . S
C2023 C2024 1.392 . S
C2023 C2027 1.495 . S
C2024 C2023 1.392 . S
C2024 C2025 1.385 . S
C2024 C2026 1.478 . S
C2025 H2019 0.930 . S
C2025 C2021 1.400 . S
C2025 C2024 1.385 . S
C2026 C2024 1.478 . S
C2026 C2028 1.381 . S
C2026 C2032 1.383 . S
C2027 C2023 1.495 . S
C2027 H2033 0.959 . S
C2027 H2034 0.961 . S
C2027 H2035 0.960 . S
C2028 C2026 1.381 . S
C2028 C2029 1.394 . S
C2028 H2036 0.930 . S
C2029 C2028 1.394 . S
C2029 C2030 1.383 . S
C2029 H2037 0.929 . S
C2030 C2029 1.383 . S
C2030 C2031 1.377 . S
C2031 H2015 0.930 . S
C2031 C2030 1.377 . S
C2031 C2032 1.379 . S
C2032 H2016 0.931 . S
C2032 C2026 1.383 . S
C2032 C2031 1.379 . S
H2033 C2027 0.959 . S
H2034 C2027 0.961 . S
H2035 C2027 0.960 . S
H2036 C2028 0.930 . S
H2037 C2029 0.929 . S
H2038 C2046 0.929 . S
H2039 C2048 0.930 . S
H2040 C2050 0.930 . S
H2041 C2053 0.929 . S
H2042 C2056 0.930 . S
H2043 C2058 0.960 . S
H2044 C2058 0.960 . S
H2045 C2058 0.960 . S
C2046 H2038 0.929 . S
C2046 C2047 1.377 . S
C2046 C2048 1.384 . S
C2047 C2046 1.377 . S
C2047 C2053 1.390 . S
C2048 H2039 0.930 . S
C2048 C2046 1.384 . S
C2048 C2049 1.372 . S
C2049 C2048 1.372 . S
C2049 C2050 1.400 . S
C2049 C2054 1.490 . S
C2050 H2040 0.930 . S
C2050 C2049 1.400 . S
C2050 C2053 1.386 . S
H2051 C2067 0.930 . S
H2052 C2068 0.931 . S
C2053 H2041 0.929 . S
C2053 C2047 1.390 . S
C2053 C2050 1.386 . S
C2054 C2049 1.490 . S
C2054 C2056 1.395 . S
C2054 C2057 1.403 . S
H2055 C2061 0.930 . S
C2056 H2042 0.930 . S
C2056 C2054 1.395 . S
C2056 C2059 1.403 . S
C2057 C2054 1.403 . S
C2057 C2058 1.524 . S
C2057 C2061 1.400 . S
C2058 H2043 0.960 . S
C2058 H2044 0.960 . S
C2058 H2045 0.960 . S
C2058 C2057 1.524 . S
C2059 C2056 1.403 . S
C2059 C2060 1.392 . S
C2059 C2063 1.495 . S
C2060 C2059 1.392 . S
C2060 C2061 1.385 . S
C2060 C2062 1.478 . S
C2061 H2055 0.930 . S
C2061 C2057 1.400 . S
C2061 C2060 1.385 . S
C2062 C2060 1.478 . S
C2062 C2064 1.381 . S
C2062 C2068 1.383 . S
C2063 C2059 1.495 . S
C2063 H2069 0.959 . S
C2063 H2070 0.961 . S
C2063 H2071 0.960 . S
C2064 C2062 1.381 . S
C2064 C2065 1.394 . S
C2064 H2072 0.930 . S
C2065 C2064 1.394 . S
C2065 C2066 1.383 . S
C2065 H2073 0.929 . S
C2066 C2065 1.383 . S
C2066 C2067 1.377 . S
C2067 H2051 0.930 . S
C2067 C2066 1.377 . S
C2067 C2068 1.379 . S
C2068 H2052 0.931 . S
C2068 C2062 1.383 . S
C2068 C2067 1.379 . S
H2069 C2063 0.959 . S
H2070 C2063 0.961 . S
H2071 C2063 0.960 . S
H2072 C2064 0.930 . S
H2073 C2065 0.929 . S
H2074 C2082 0.929 . S
H2075 C2084 0.930 . S
H2076 C2086 0.930 . S
H2077 C2089 0.929 . S
H2078 C2092 0.930 . S
H2079 C2094 0.960 . S
H2080 C2094 0.960 . S
H2081 C2094 0.960 . S
C2082 H2074 0.929 . S
C2082 C2083 1.377 . S
C2082 C2084 1.384 . S
C2083 C2082 1.377 . S
C2083 C2089 1.390 . S
C2084 H2075 0.930 . S
C2084 C2082 1.384 . S
C2084 C2085 1.372 . S
C2085 C2084 1.372 . S
C2085 C2086 1.400 . S
C2085 C2090 1.490 . S
C2086 H2076 0.930 . S
C2086 C2085 1.400 . S
C2086 C2089 1.386 . S
H2087 C2103 0.930 . S
H2088 C2104 0.931 . S
C2089 H2077 0.929 . S
C2089 C2083 1.390 . S
C2089 C2086 1.386 . S
C2090 C2085 1.490 . S
C2090 C2092 1.395 . S
C2090 C2093 1.403 . S
H2091 C2097 0.930 . S
C2092 H2078 0.930 . S
C2092 C2090 1.395 . S
C2092 C2095 1.403 . S
C2093 C2090 1.403 . S
C2093 C2094 1.524 . S
C2093 C2097 1.400 . S
C2094 H2079 0.960 . S
C2094 H2080 0.960 . S
C2094 H2081 0.960 . S
C2094 C2093 1.524 . S
C2095 C2092 1.403 . S
C2095 C2096 1.392 . S
C2095 C2099 1.495 . S
C2096 C2095 1.392 . S
C2096 C2097 1.385 . S
C2096 C2098 1.478 . S
C2097 H2091 0.930 . S
C2097 C2093 1.400 . S
C2097 C2096 1.385 . S
C2098 C2096 1.478 . S
C2098 C2100 1.381 . S
C2098 C2104 1.383 . S
C2099 C2095 1.495 . S
C2099 H2105 0.959 . S
C2099 H2106 0.961 . S
C2099 H2107 0.960 . S
C2100 C2098 1.381 . S
C2100 C2101 1.394 . S
C2100 H2108 0.930 . S
C2101 C2100 1.394 . S
C2101 C2102 1.383 . S
C2101 H2109 0.929 . S
C2102 C2101 1.383 . S
C2102 C2103 1.377 . S
C2103 H2087 0.930 . S
C2103 C2102 1.377 . S
C2103 C2104 1.379 . S
C2104 H2088 0.931 . S
C2104 C2098 1.383 . S
C2104 C2103 1.379 . S
H2105 C2099 0.959 . S
H2106 C2099 0.961 . S
H2107 C2099 0.960 . S
H2108 C2100 0.930 . S
H2109 C2101 0.929 . S
C410 C211 1.043 . S
C391 C17 1.062 . S
C446 C212 1.701 . S
C427 C44 1.700 . S
C482 C206 1.131 . S
C463 C63 1.130 . S
C499 C87 0.933 . S
C518 C205 0.940 . S
C535 C110 1.628 . S
C554 C208 1.541 . S
C590 C210 1.084 . S
C571 C131 1.131 . S
C607 C159 1.024 . S
C626 C209 1.064 . S
C643 C177 1.070 . S
C662 C207 1.017 . S
C698 C242 1.469 . S
C679 C20 1.340 . S
C715 C42 1.399 . S
C734 C273 1.315 . S
C770 C241 1.379 . S
C751 C66 1.271 . S
C806 C276 1.024 . S
C787 C86 1.007 . S
C823 C109 1.245 . S
C842 C239 1.211 . S
C878 C271 1.445 . S
C859 C136 1.378 . S
C895 C157 1.110 . S
C914 C244 1.103 . S
C931 C182 1.273 . S
C950 C278 1.278 . S
C967 C18 1.352 . S
C986 C274 1.331 . S
C1003 C112 1.259 . S
C1022 C277 1.276 . S
C1058 C245 1.267 . S
C1039 C134 1.285 . S
C1094 C272 1.182 . S
C1075 C154 1.163 . S
C1111 C180 1.387 . S
C1130 C238 1.429 . S
C1147 C64 1.430 . S
C1166 C275 1.415 . S
C1202 C240 1.145 . S
C1183 C89 1.030 . S
C1219 C39 1.424 . S
C1238 C243 1.384 . S
C1255 C178 1.051 . S
C1274 C310 0.941 . S
C1291 C113 1.224 . S
C1310 C311 1.234 . S
C1346 C305 1.075 . S
C1327 C132 1.117 . S
C1382 C304 1.479 . S
C1363 C156 1.471 . S
C1399 C41 1.083 . S
C1418 C307 0.982 . S
C1454 C309 1.068 . S
C1435 C62 1.128 . S
C1471 C90 1.496 . S
C1490 C308 1.547 . S
C1507 C16 1.067 . S
C1526 C306 0.986 . S
C1543 C181 1.439 . S
C1562 C344 1.509 . S
C1598 C376 1.132 . S
C1579 C111 1.140 . S
C1615 C135 1.134 . S
C1634 C337 1.213 . S
C1651 C155 1.292 . S
C1670 C371 1.270 . S
C1706 C342 0.996 . S
C1687 C40 0.987 . S
C1723 C67 1.583 . S
C1742 C373 1.634 . S
C1778 C339 1.325 . S
C1759 C88 1.385 . S
C1814 C374 1.299 . S
C1795 C21 1.215 . S
C1850 C370 1.250 . S
C1831 C179 1.258 . S
C1867 C43 1.036 . S
C1886 C372 1.164 . S
C1903 C65 1.176 . S
C1922 C341 1.243 . S
C1958 C375 1.465 . S
C1939 C85 1.450 . S
C1975 C19 1.510 . S
C1994 C340 1.489 . S
C2011 C133 1.611 . S
C2030 C377 1.546 . S
C2066 C343 1.291 . S
C2047 C158 1.271 . S
C2102 C338 1.129 . S
C2083 C108 1.168 . S
