# Generated by pormake.
# Topology sit, (3,6)-cn, num edge types: 1
# Building blocks:
#     Node 0, Type 0, BuildingBlock: WUSLED_clean_sbu_0, # of connection points: 3
#     Node 1, Type 0, BuildingBlock: WUSLED_clean_sbu_0, # of connection points: 3
#     Node 2, Type 0, BuildingBlock: WUSLED_clean_sbu_0, # of connection points: 3
#     Node 3, Type 0, BuildingBlock: WUSLED_clean_sbu_0, # of connection points: 3
#     Node 4, Type 1, BuildingBlock: MIDCAF_clean_sbu_0, # of connection points: 6
#     Node 5, Type 1, BuildingBlock: MIDCAF_clean_sbu_0, # of connection points: 6
#     Edge 6, Type (0, 1), BuildingBlock: XUDNAN_clean_linker_2, # of connection points: 2
#     Edge 7, Type (0, 1), BuildingBlock: XUDNAN_clean_linker_2, # of connection points: 2
#     Edge 8, Type (0, 1), BuildingBlock: XUDNAN_clean_linker_2, # of connection points: 2
#     Edge 9, Type (0, 1), BuildingBlock: XUDNAN_clean_linker_2, # of connection points: 2
#     Edge 10, Type (0, 1), BuildingBlock: XUDNAN_clean_linker_2, # of connection points: 2
#     Edge 11, Type (0, 1), BuildingBlock: XUDNAN_clean_linker_2, # of connection points: 2
#     Edge 12, Type (0, 1), BuildingBlock: XUDNAN_clean_linker_2, # of connection points: 2
#     Edge 13, Type (0, 1), BuildingBlock: XUDNAN_clean_linker_2, # of connection points: 2
#     Edge 14, Type (0, 1), BuildingBlock: XUDNAN_clean_linker_2, # of connection points: 2
#     Edge 15, Type (0, 1), BuildingBlock: XUDNAN_clean_linker_2, # of connection points: 2
#     Edge 16, Type (0, 1), BuildingBlock: XUDNAN_clean_linker_2, # of connection points: 2
#     Edge 17, Type (0, 1), BuildingBlock: XUDNAN_clean_linker_2, # of connection points: 2
# Relax obj value: 0.107
# Max RMSD: 0.192
# Mean RMSD: 0.104
data_MOF--net-sit--node1-WUSLED_clean_sbu_0--node2-MIDCAF_clean_sbu_0--edge1-XUDNAN_clean_linker_2
_symmetry_space_group_name_H-M    P1
_symmetry_Int_Tables_number       1
_symmetry_cell_setting            triclinic
loop_
_symmetry_equiv_pos_as_xyz
'x, y, z'
_cell_length_a     29.911896
_cell_length_b     41.570741
_cell_length_c     45.990327
_cell_angle_alpha  90.05734
_cell_angle_beta   88.876161
_cell_angle_gamma 84.040228
loop_
_atom_site_label
_atom_site_type_symbol
_atom_site_fract_x
_atom_site_fract_y
_atom_site_fract_z
_atom_type_partial_charge
C0 C 0.98166 0.30381 1.00125 0.0
C1 C 0.99299 0.3324 0.98796 0.0
C2 C 0.91493 0.34641 0.97504 0.0
C3 C 0.95972 0.35366 0.97505 0.0
C4 C 0.90404 0.31722 0.98721 0.0
C5 C 0.93718 0.29608 1.00025 0.0
U6 U 0.10269 0.27834 0.02306 0.0
O7 O 0.131 0.26827 0.06631 0.0
O8 O 0.13798 0.2305 0.0326 0.0
C9 C 0.14545 0.23818 0.0597 0.0
C10 C 0.01493 0.28306 0.01794 0.0
C11 C 0.13829 0.21377 0.082 0.0
C12 C 0.09208 0.17778 0.10772 0.0
C13 C 0.09674 0.2015 0.08646 0.0
C14 C 0.17013 0.17894 0.12036 0.0
C15 C 0.12892 0.16603 0.12481 0.0
C16 C 0.17471 0.20245 0.09917 0.0
C17 C 0.19384 0.32531 0.98563 0.0
C18 C 0.27343 0.32313 0.99652 0.0
C19 C 0.24163 0.3595 0.9594 0.0
C20 C 0.19968 0.34855 0.9643 0.0
C21 C 0.2788 0.34728 0.97567 0.0
C22 C 0.23098 0.31234 1.00166 0.0
C23 C 0.14806 0.31657 0.99113 0.0
O24 O 0.04242 0.26245 0.00275 0.0
O25 O 0.03527 0.29799 0.03824 0.0
O26 O 0.12987 0.32498 0.01661 0.0
O27 O 0.13952 0.28773 0.9825 0.0
H28 H 0.02719 0.33876 0.98845 0.0
H29 H 0.96863 0.37621 0.96592 0.0
H30 H 0.86955 0.31141 0.98761 0.0
H31 H 0.92779 0.27419 0.0104 0.0
H32 H 0.05989 0.1683 0.11042 0.0
H33 H 0.06815 0.21005 0.07344 0.0
H34 H 0.19892 0.17116 0.13346 0.0
H35 H 0.20696 0.21184 0.09615 0.0
H36 H 0.30171 0.31324 0.00923 0.0
H37 H 0.24505 0.3776 0.94279 0.0
H38 H 0.17146 0.35865 0.95163 0.0
H39 H 0.22702 0.29432 0.01825 0.0
C40 C 0.89739 0.73718 0.00439 0.0
C41 C 0.91857 0.71008 0.98949 0.0
C42 C 0.84583 0.69162 0.97927 0.0
C43 C 0.89302 0.68743 0.97717 0.0
C44 C 0.82465 0.71955 0.99302 0.0
C45 C 0.85028 0.74206 0.00564 0.0
U46 U 0.01145 0.76292 0.02145 0.0
O47 O 0.03476 0.81095 0.02891 0.0
O48 O 0.04274 0.77354 0.06261 0.0
C49 C 0.04698 0.80375 0.05565 0.0
C50 C 0.9244 0.75919 0.01995 0.0
C51 C 0.0329 0.82778 0.07852 0.0
C52 C 0.98238 0.84655 0.11843 0.0
C53 C 0.99143 0.82772 0.09332 0.0
C54 C 0.0547 0.86745 0.11306 0.0
C55 C 0.01464 0.86572 0.12917 0.0
C56 C 0.06377 0.84854 0.088 0.0
C57 C 0.10462 0.70693 0.97696 0.0
C58 C 0.18645 0.69808 0.97616 0.0
C59 C 0.14339 0.66754 0.944 0.0
C60 C 0.10374 0.68361 0.95518 0.0
C61 C 0.1854 0.6747 0.95396 0.0
C62 C 0.14614 0.71416 0.98766 0.0
C63 C 0.0608 0.72154 0.98809 0.0
O64 O 0.95031 0.74529 0.04006 0.0
O65 O 0.94503 0.77915 0.00353 0.0
O66 O 0.04628 0.75088 0.97953 0.0
O67 O 0.04932 0.71514 0.01501 0.0
H68 H 0.95492 0.70602 0.98806 0.0
H69 H 0.91015 0.66637 0.96633 0.0
H70 H 0.78833 0.72332 0.99498 0.0
H71 H 0.83335 0.76284 0.017 0.0
H72 H 0.95104 0.84491 0.13028 0.0
H73 H 0.96708 0.81191 0.08633 0.0
H74 H 0.08039 0.88164 0.12091 0.0
H75 H 0.09602 0.84881 0.07691 0.0
H76 H 0.21821 0.70417 0.98436 0.0
H77 H 0.14087 0.64905 0.92769 0.0
H78 H 0.07199 0.67742 0.94694 0.0
H79 H 0.14735 0.73201 0.00472 0.0
C80 C 0.48157 0.80708 0.50437 0.0
C81 C 0.49816 0.82495 0.48139 0.0
C82 C 0.4221 0.84853 0.47075 0.0
C83 C 0.4687 0.84543 0.46469 0.0
C84 C 0.4058 0.8305 0.49383 0.0
C85 C 0.43527 0.81001 0.51046 0.0
U86 U 0.59995 0.77735 0.52706 0.0
O87 O 0.62867 0.76493 0.56969 0.0
O88 O 0.63216 0.72808 0.53512 0.0
C89 C 0.64138 0.73481 0.56215 0.0
C90 C 0.5122 0.78549 0.52217 0.0
C91 C 0.63564 0.70996 0.58427 0.0
C92 C 0.59109 0.68289 0.61976 0.0
C93 C 0.59356 0.7044 0.59631 0.0
C94 C 0.67227 0.67192 0.61841 0.0
C95 C 0.63067 0.66719 0.63148 0.0
C96 C 0.67466 0.69301 0.59506 0.0
C97 C 0.69282 0.82152 0.48673 0.0
C98 C 0.7694 0.83218 0.49777 0.0
C99 C 0.74042 0.84204 0.44941 0.0
C100 C 0.69965 0.83155 0.45815 0.0
C101 C 0.77579 0.84265 0.46901 0.0
C102 C 0.72808 0.82151 0.50659 0.0
C103 C 0.64716 0.81407 0.49488 0.0
O104 O 0.53817 0.76333 0.50765 0.0
O105 O 0.53369 0.7999 0.54227 0.0
O106 O 0.63186 0.82229 0.52111 0.0
O107 O 0.63518 0.78628 0.48582 0.0
H108 H 0.5339 0.82312 0.47643 0.0
H109 H 0.48251 0.85919 0.44732 0.0
H110 H 0.37013 0.83188 0.49886 0.0
H111 H 0.42185 0.79637 0.52807 0.0
H112 H 0.55864 0.67979 0.62963 0.0
H113 H 0.56303 0.71737 0.58826 0.0
H114 H 0.70323 0.66004 0.62691 0.0
H115 H 0.70738 0.697 0.58605 0.0
H116 H 0.79612 0.83236 0.51331 0.0
H117 H 0.74372 0.85064 0.42732 0.0
H118 H 0.67278 0.83214 0.44262 0.0
H119 H 0.72342 0.8139 0.52887 0.0
C120 C 0.39374 0.23225 0.50585 0.0
C121 C 0.40658 0.20457 0.48888 0.0
C122 C 0.32785 0.19789 0.48062 0.0
C123 C 0.37377 0.18742 0.47638 0.0
C124 C 0.31548 0.22551 0.49781 0.0
C125 C 0.3481 0.24251 0.51022 0.0
U126 U 0.51443 0.25173 0.51949 0.0
O127 O 0.54 0.29884 0.52694 0.0
O128 O 0.54507 0.26173 0.56115 0.0
C129 C 0.55077 0.29165 0.55392 0.0
C130 C 0.42689 0.25044 0.51999 0.0
C131 C 0.53933 0.31718 0.57608 0.0
C132 C 0.51252 0.33441 0.62472 0.0
C133 C 0.51389 0.31222 0.60152 0.0
C134 C 0.55856 0.36776 0.59626 0.0
C135 C 0.53678 0.36157 0.6227 0.0
C136 C 0.55992 0.34579 0.57329 0.0
C137 C 0.61141 0.20125 0.47646 0.0
C138 C 0.69219 0.19984 0.48293 0.0
C139 C 0.66285 0.16327 0.44884 0.0
C140 C 0.61921 0.17668 0.45562 0.0
C141 C 0.70002 0.17425 0.46266 0.0
C142 C 0.64814 0.21321 0.48985 0.0
C143 C 0.56442 0.2119 0.4848 0.0
O144 O 0.45359 0.23389 0.53819 0.0
O145 O 0.44778 0.26987 0.50318 0.0
O146 O 0.54823 0.24115 0.47698 0.0
O147 O 0.55163 0.20413 0.51114 0.0
H148 H 0.44182 0.19631 0.48531 0.0
H149 H 0.38426 0.16644 0.46298 0.0
H150 H 0.2804 0.23397 0.50179 0.0
H151 H 0.33761 0.2637 0.52338 0.0
H152 H 0.49542 0.32912 0.64487 0.0
H153 H 0.49729 0.29042 0.60414 0.0
H154 H 0.57718 0.38867 0.59405 0.0
H155 H 0.57961 0.35023 0.55395 0.0
H156 H 0.71998 0.20924 0.49369 0.0
H157 H 0.66713 0.14332 0.43355 0.0
H158 H 0.59126 0.16707 0.44516 0.0
H159 H 0.64273 0.23228 0.50598 0.0
Zn160 Zn 0.03798 0.09101 0.35063 0.0
Zn161 Zn 0.08052 0.9613 0.38025 0.0
Zn162 Zn 0.07179 0.01439 0.36466 0.0
C163 C 0.0545 0.96383 0.32044 0.0
C164 C 0.00862 0.97738 0.40874 0.0
O165 O 0.12855 0.03124 0.38805 0.0
O166 O 0.08818 0.07333 0.37314 0.0
C167 C 0.06353 0.05163 0.29996 0.0
O168 O 0.068 0.99216 0.32147 0.0
O169 O 0.05277 0.94784 0.34373 0.0
O170 O 0.04398 0.96111 0.41687 0.0
O171 O 0.01162 0.99822 0.3882 0.0
O172 O 0.04632 0.07838 0.31032 0.0
O173 O 0.07438 0.02681 0.31644 0.0
O174 O 0.00674 0.03561 0.38715 0.0
O175 O 0.98151 0.08423 0.36957 0.0
C176 C 0.97676 0.06045 0.38604 0.0
O177 O 0.14136 0.99896 0.3846 0.0
O178 O 0.14343 0.94571 0.38347 0.0
C179 C 0.12076 0.06192 0.38776 0.0
C180 C 0.16312 0.97054 0.38752 0.0
Zn181 Zn 0.54477 0.57043 0.86533 0.0
Zn182 Zn 0.5809 0.42616 0.8594 0.0
Zn183 Zn 0.56294 0.51284 0.86818 0.0
C184 C 0.56722 0.46614 0.80691 0.0
C185 C 0.50978 0.4696 0.89288 0.0
O186 O 0.62197 0.5285 0.89134 0.0
O187 O 0.5992 0.57995 0.88461 0.0
C188 C 0.56445 0.55494 0.80917 0.0
O189 O 0.56464 0.49258 0.82221 0.0
O190 O 0.57409 0.43816 0.81806 0.0
O191 O 0.54177 0.45907 0.87679 0.0
O192 O 0.50285 0.50018 0.89334 0.0
O193 O 0.54628 0.57886 0.8234 0.0
O194 O 0.57251 0.52743 0.82193 0.0
O195 O 0.49364 0.5321 0.88858 0.0
O196 O 0.4896 0.5854 0.8862 0.0
C197 C 0.47229 0.56036 0.89375 0.0
O198 O 0.62518 0.49016 0.89071 0.0
O199 O 0.63687 0.43734 0.8778 0.0
C200 C 0.62814 0.55859 0.89416 0.0
C201 C 0.64909 0.46211 0.8905 0.0
H202 H 0.0573 0.15935 0.162 0.0
H203 H 0.1914 0.11542 0.13919 0.0
H204 H 0.18585 0.07512 0.17814 0.0
H205 H 0.06848 0.15037 0.23778 0.0
H206 H 0.01094 0.14263 0.2441 0.0
H207 H 0.02532 0.16662 0.21348 0.0
H208 H 0.98892 0.12764 0.17903 0.0
H209 H 0.9751 0.10329 0.20967 0.0
H210 H 0.00783 0.08501 0.17952 0.0
H211 H 0.16741 0.04217 0.22317 0.0
H212 H 0.13897 0.0231 0.27059 0.0
H213 H 0.01496 0.08515 0.25956 0.0
C214 C 0.08512 0.14081 0.16462 0.0
C215 C 0.12468 0.14061 0.14732 0.0
C216 C 0.16082 0.1164 0.15229 0.0
C217 C 0.15785 0.09314 0.17421 0.0
C218 C 0.11829 0.09403 0.19082 0.0
C219 C 0.0826 0.11731 0.1862 0.0
C220 C 0.04494 0.11453 0.20811 0.0
C221 C 0.03698 0.14535 0.22698 0.0
C222 C 0.00164 0.10718 0.19317 0.0
C223 C 0.06472 0.08593 0.22562 0.0
C224 C 0.10719 0.0744 0.21563 0.0
C225 C 0.13373 0.05051 0.23077 0.0
C226 C 0.11715 0.03939 0.25748 0.0
C227 C 0.07449 0.05221 0.26849 0.0
C228 C 0.04732 0.07435 0.25139 0.0
H229 H 0.03111 0.92671 0.14904 0.0
H230 H 0.98977 0.83446 0.1774 0.0
H231 H 0.99002 0.85248 0.22817 0.0
H232 H 0.1057 0.93914 0.20361 0.0
H233 H 0.08935 0.98168 0.20947 0.0
H234 H 0.081 0.96374 0.17462 0.0
H235 H 0.99636 0.98435 0.17763 0.0
H236 H 0.00468 1.00263 0.21245 0.0
H237 H 0.96329 0.97437 0.20887 0.0
H238 H 0.00162 0.87634 0.27474 0.0
H239 H 0.02151 0.90604 0.31722 0.0
H240 H 0.05578 0.9853 0.26208 0.0
C241 C 0.02133 0.91066 0.16601 0.0
C242 C 0.00986 0.87924 0.15918 0.0
C243 C 0.9976 0.85881 0.18194 0.0
C244 C 0.99787 0.86878 0.21091 0.0
C245 C 0.00985 0.8995 0.21695 0.0
C246 C 0.0207 0.92051 0.19535 0.0
C247 C 0.03304 0.95202 0.20861 0.0
C248 C 0.0801 0.95956 0.19848 0.0
C249 C 0.99723 0.98001 0.20146 0.0
C250 C 0.03146 0.94397 0.24092 0.0
C251 C 0.01663 0.91384 0.24483 0.0
C252 C 0.01281 0.90011 0.27207 0.0
C253 C 0.02457 0.91737 0.29617 0.0
C254 C 0.04069 0.9482 0.29331 0.0
C255 C 0.04368 0.96191 0.26514 0.0
H256 H 0.58177 0.61612 0.64613 0.0
H257 H 0.67776 0.67768 0.67941 0.0
H258 H 0.67938 0.64821 0.7258 0.0
H259 H 0.51664 0.61 0.70899 0.0
H260 H 0.50949 0.56761 0.70549 0.0
H261 H 0.51954 0.59102 0.67361 0.0
H262 H 0.58808 0.55012 0.65993 0.0
H263 H 0.57862 0.52687 0.69219 0.0
H264 H 0.63242 0.54165 0.68563 0.0
H265 H 0.66866 0.61524 0.76872 0.0
H266 H 0.63775 0.58541 0.8092 0.0
H267 H 0.54586 0.54525 0.75078 0.0
C268 C 0.60323 0.62311 0.66322 0.0
C269 C 0.63004 0.64894 0.65916 0.0
C270 C 0.65762 0.65761 0.68194 0.0
C271 C 0.65892 0.64093 0.70831 0.0
C272 C 0.63281 0.6153 0.71155 0.0
C273 C 0.60529 0.60636 0.68982 0.0
C274 C 0.57907 0.57883 0.69999 0.0
C275 C 0.52816 0.58742 0.69685 0.0
C276 C 0.59549 0.54751 0.68344 0.0
C277 C 0.59267 0.57618 0.73165 0.0
C278 C 0.62554 0.59636 0.73718 0.0
C279 C 0.64334 0.59909 0.76464 0.0
C280 C 0.62575 0.58189 0.78744 0.0
C281 C 0.58995 0.56283 0.78293 0.0
C282 C 0.5739 0.55912 0.75455 0.0
H283 H 0.47763 0.39414 0.66332 0.0
H284 H 0.61903 0.37024 0.64159 0.0
H285 H 0.63967 0.40371 0.68223 0.0
H286 H 0.4888 0.47817 0.68712 0.0
H287 H 0.44852 0.47742 0.7167 0.0
H288 H 0.44301 0.45341 0.68452 0.0
H289 H 0.44338 0.40154 0.71565 0.0
H290 H 0.44742 0.42558 0.74784 0.0
H291 H 0.48856 0.39153 0.74053 0.0
H292 H 0.64653 0.43932 0.72368 0.0
H293 H 0.64013 0.46431 0.77234 0.0
H294 H 0.49552 0.46363 0.7711 0.0
C295 C 0.51282 0.39616 0.66721 0.0
C296 C 0.54682 0.38036 0.64881 0.0
C297 C 0.59252 0.38297 0.65485 0.0
C298 C 0.60459 0.40201 0.67782 0.0
C299 C 0.57062 0.41844 0.69475 0.0
C300 C 0.52568 0.41525 0.69035 0.0
C301 C 0.49654 0.43404 0.71344 0.0
C302 C 0.46748 0.46244 0.69962 0.0
C303 C 0.4673 0.41183 0.73038 0.0
C304 C 0.53252 0.44632 0.73233 0.0
C305 C 0.57476 0.43826 0.72015 0.0
C306 C 0.61367 0.44609 0.73342 0.0
C307 C 0.60972 0.46075 0.76085 0.0
C308 C 0.56739 0.46664 0.77501 0.0
C309 C 0.52809 0.46045 0.76018 0.0
H310 H 0.29546 0.4105 0.97394 0.0
H311 H 0.36026 0.3128 0.96408 0.0
H312 H 0.43013 0.33461 0.94707 0.0
H313 H 0.33605 0.44269 0.91249 0.0
H314 H 0.34523 0.48159 0.92732 0.0
H315 H 0.30349 0.45877 0.94361 0.0
H316 H 0.34178 0.4609 0.99357 0.0
H317 H 0.38335 0.48427 0.97748 0.0
H318 H 0.4007 0.44725 0.9964 0.0
H319 H 0.48759 0.36623 0.92439 0.0
H320 H 0.53111 0.40524 0.89946 0.0
H321 H 0.42971 0.48344 0.92403 0.0
C322 C 0.3248 0.39379 0.96886 0.0
C323 C 0.32268 0.36001 0.97029 0.0
C324 C 0.36148 0.33874 0.96344 0.0
C325 C 0.40119 0.35093 0.95373 0.0
C326 C 0.40162 0.3844 0.95158 0.0
C327 C 0.36473 0.40557 0.95946 0.0
C328 C 0.37297 0.44034 0.9533 0.0
C329 C 0.33733 0.45679 0.93296 0.0
C330 C 0.37482 0.45932 0.98188 0.0
C331 C 0.4189 0.43528 0.93854 0.0
C332 C 0.43516 0.40285 0.9385 0.0
C333 C 0.47555 0.3917 0.9247 0.0
C334 C 0.49984 0.4141 0.91038 0.0
C335 C 0.48368 0.44739 0.90967 0.0
C336 C 0.44297 0.45819 0.92437 0.0
H337 H 0.77256 0.69861 0.94382 0.0
H338 H 0.85857 0.627 0.99082 0.0
H339 H 0.81375 0.58407 0.97384 0.0
H340 H 0.66859 0.66486 0.95684 0.0
H341 H 0.64746 0.67397 0.92103 0.0
H342 H 0.68621 0.69891 0.937 0.0
H343 H 0.7397 0.68868 0.89202 0.0
H344 H 0.70111 0.66356 0.87606 0.0
H345 H 0.75873 0.6477 0.88139 0.0
H346 H 0.75802 0.54862 0.95137 0.0
H347 H 0.6966 0.52543 0.92565 0.0
H348 H 0.6497 0.62044 0.89374 0.0
C349 C 0.78185 0.67389 0.95055 0.0
C350 C 0.81906 0.66604 0.96856 0.0
C351 C 0.83043 0.63341 0.97675 0.0
C352 C 0.8051 0.6089 0.96731 0.0
C353 C 0.76874 0.61736 0.94942 0.0
C354 C 0.7573 0.64909 0.94102 0.0
C355 C 0.7172 0.65181 0.92135 0.0
C356 C 0.67753 0.67368 0.93488 0.0
C357 C 0.72997 0.66364 0.89091 0.0
C358 C 0.70739 0.61689 0.92047 0.0
C359 C 0.73737 0.59721 0.9366 0.0
C360 C 0.7343 0.56397 0.93873 0.0
C361 C 0.69931 0.55079 0.92418 0.0
C362 C 0.66771 0.57069 0.90812 0.0
C363 C 0.67269 0.60416 0.90608 0.0
H364 H 0.87442 0.3514 0.92194 0.0
H365 H 0.87323 0.39513 0.00749 0.0
H366 H 0.80815 0.43371 0.9941 0.0
H367 H 0.84385 0.42602 0.88133 0.0
H368 H 0.80857 0.40702 0.85659 0.0
H369 H 0.85606 0.38371 0.87246 0.0
H370 H 0.80379 0.34257 0.8924 0.0
H371 H 0.75627 0.36567 0.87647 0.0
H372 H 0.75563 0.35679 0.9148 0.0
H373 H 0.73658 0.46177 0.97368 0.0
H374 H 0.66857 0.48056 0.94591 0.0
H375 H 0.72304 0.42468 0.8715 0.0
C376 C 0.86078 0.36954 0.93755 0.0
C377 C 0.87866 0.37072 0.96563 0.0
C378 C 0.85988 0.39425 0.9858 0.0
C379 C 0.82301 0.41615 0.9784 0.0
C380 C 0.80573 0.41437 0.95059 0.0
C381 C 0.8243 0.3919 0.93034 0.0
C382 C 0.7985 0.3945 0.90229 0.0
C383 C 0.82855 0.40336 0.87666 0.0
C384 C 0.77731 0.36302 0.89614 0.0
C385 C 0.7628 0.42196 0.90992 0.0
C386 C 0.7669 0.4327 0.93805 0.0
C387 C 0.73404 0.45465 0.95119 0.0
C388 C 0.69586 0.46563 0.93518 0.0
C389 C 0.69204 0.45602 0.90595 0.0
C390 C 0.72623 0.43396 0.89331 0.0
H391 H 0.2653 0.65195 0.98072 0.0
H392 H 0.20063 0.65858 0.89682 0.0
H393 H 0.26281 0.62254 0.87548 0.0
H394 H 0.37861 0.6549 0.95034 0.0
H395 H 0.40439 0.62761 0.97706 0.0
H396 H 0.35345 0.65284 0.98616 0.0
H397 H 0.31622 0.6016 1.00112 0.0
H398 H 0.36664 0.57613 0.99101 0.0
H399 H 0.31383 0.56941 0.97507 0.0
H400 H 0.32821 0.5834 0.86346 0.0
H401 H 0.40481 0.55567 0.85745 0.0
H402 H 0.4334 0.57893 0.94655 0.0
C403 C 0.26447 0.64615 0.9578 0.0
C404 C 0.227 0.65723 0.94076 0.0
C405 C 0.22781 0.64935 0.91071 0.0
C406 C 0.26305 0.62888 0.8983 0.0
C407 C 0.29808 0.61696 0.91596 0.0
C408 C 0.30014 0.62617 0.94474 0.0
C409 C 0.34381 0.61167 0.958 0.0
C410 C 0.37172 0.63835 0.96849 0.0
C411 C 0.33456 0.58832 0.98278 0.0
C412 C 0.36601 0.59344 0.93196 0.0
C413 C 0.33807 0.59593 0.90833 0.0
C414 C 0.35051 0.58124 0.88176 0.0
C415 C 0.39378 0.5651 0.87867 0.0
C416 C 0.42435 0.56458 0.90172 0.0
C417 C 0.41002 0.57819 0.92894 0.0
H418 H 0.82439 0.88706 0.4961 0.0
H419 H 0.82164 0.82792 0.41841 0.0
H420 H 0.87751 0.85911 0.39471 0.0
H421 H 0.83371 0.96034 0.46286 0.0
H422 H 0.87388 0.97527 0.48682 0.0
H423 H 0.83698 0.94669 0.50002 0.0
H424 H 0.90473 0.90707 0.51562 0.0
H425 H 0.94182 0.93615 0.50373 0.0
H426 H 0.94946 0.89542 0.48966 0.0
H427 H 0.92015 0.90236 0.37608 0.0
H428 H 0.97049 0.94476 0.36791 0.0
H429 H 0.95691 0.97213 0.45892 0.0
C430 C 0.83679 0.87999 0.47451 0.0
C431 C 0.81782 0.85558 0.45878 0.0
C432 C 0.83487 0.84705 0.43055 0.0
C433 C 0.86652 0.86465 0.41688 0.0
C434 C 0.88189 0.89012 0.43202 0.0
C435 C 0.86951 0.89692 0.46065 0.0
C436 C 0.89214 0.92561 0.47166 0.0
C437 C 0.85708 0.95363 0.48089 0.0
C438 C 0.92394 0.91544 0.49664 0.0
C439 C 0.91804 0.93416 0.44447 0.0
C440 C 0.91038 0.91379 0.42176 0.0
C441 C 0.92736 0.91803 0.39382 0.0
C442 C 0.95526 0.94255 0.38928 0.0
C443 C 0.96716 0.96178 0.41271 0.0
C444 C 0.94773 0.95798 0.44061 0.0
H445 H 0.32074 0.13203 0.47572 0.0
H446 H 0.25533 0.22657 0.4527 0.0
H447 H 0.19456 0.20085 0.43003 0.0
H448 H 0.29644 0.09104 0.41053 0.0
H449 H 0.28518 0.05386 0.42807 0.0
H450 H 0.3229 0.07943 0.44436 0.0
H451 H 0.27473 0.08177 0.49197 0.0
H452 H 0.23687 0.05626 0.47564 0.0
H453 H 0.21552 0.09506 0.49061 0.0
H454 H 0.14287 0.16733 0.40956 0.0
H455 H 0.10168 0.12638 0.38813 0.0
H456 H 0.19848 0.05045 0.42145 0.0
C457 C 0.29362 0.14719 0.46581 0.0
C458 C 0.29251 0.18139 0.46628 0.0
C459 C 0.25647 0.20045 0.45316 0.0
C460 C 0.22181 0.18607 0.44017 0.0
C461 C 0.22359 0.15254 0.44037 0.0
C462 C 0.25836 0.13312 0.45264 0.0
C463 C 0.25169 0.09752 0.44885 0.0
C464 C 0.29142 0.07939 0.43193 0.0
C465 C 0.24426 0.08171 0.47853 0.0
C466 C 0.20889 0.10023 0.43128 0.0
C467 C 0.19321 0.1324 0.42747 0.0
C468 C 0.15471 0.14204 0.41227 0.0
C469 C 0.13163 0.11831 0.40006 0.0
C470 C 0.14704 0.08497 0.40271 0.0
C471 C 0.18606 0.07568 0.4189 0.0
H472 H 0.34798 0.88821 0.48995 0.0
H473 H 0.42415 0.85797 0.41156 0.0
H474 H 0.37102 0.89345 0.38239 0.0
H475 H 0.24039 0.88842 0.45972 0.0
H476 H 0.21617 0.92322 0.48012 0.0
H477 H 0.26257 0.89761 0.49458 0.0
H478 H 0.30726 0.94747 0.49962 0.0
H479 H 0.26119 0.97319 0.48461 0.0
H480 H 0.31651 0.97187 0.46812 0.0
H481 H 0.30666 0.92929 0.36141 0.0
H482 H 0.23295 0.95861 0.34994 0.0
H483 H 0.19806 0.96494 0.44163 0.0
C484 C 0.35361 0.88903 0.46665 0.0
C485 C 0.39057 0.8704 0.45313 0.0
C486 C 0.39668 0.87243 0.42255 0.0
C487 C 0.36659 0.89249 0.40577 0.0
C488 C 0.33066 0.9106 0.41986 0.0
C489 C 0.32392 0.90888 0.44959 0.0
C490 C 0.28129 0.92931 0.45925 0.0
C491 C 0.24815 0.90839 0.47428 0.0
C492 C 0.29222 0.95711 0.47908 0.0
C493 C 0.26419 0.94202 0.43019 0.0
C494 C 0.29366 0.93143 0.40779 0.0
C495 C 0.28386 0.93832 0.37881 0.0
C496 C 0.24221 0.95538 0.37249 0.0
C497 C 0.21085 0.96526 0.39498 0.0
C498 C 0.22243 0.9591 0.4242 0.0
H499 H 0.73626 0.14966 0.41075 0.0
H500 H 0.76813 0.16025 0.50172 0.0
H501 H 0.84046 0.12677 0.49328 0.0
H502 H 0.77952 0.06707 0.40349 0.0
H503 H 0.80145 0.07139 0.36707 0.0
H504 H 0.75329 0.09764 0.37975 0.0
H505 H 0.79399 0.14823 0.36761 0.0
H506 H 0.8416 0.12217 0.35402 0.0
H507 H 0.849 0.15147 0.38197 0.0
H508 H 0.90951 0.09023 0.47454 0.0
H509 H 0.97233 0.06154 0.44549 0.0
H510 H 0.89186 0.07296 0.36832 0.0
C511 C 0.7582 0.1449 0.42903 0.0
C512 C 0.74598 0.15741 0.45702 0.0
C513 C 0.7766 0.1512 0.48002 0.0
C514 C 0.81762 0.13184 0.47552 0.0
C515 C 0.82754 0.11871 0.44793 0.0
C516 C 0.7989 0.12547 0.425 0.0
C517 C 0.81739 0.10906 0.39731 0.0
C518 C 0.78603 0.08485 0.38627 0.0
C519 C 0.82602 0.13423 0.37386 0.0
C520 C 0.86086 0.09181 0.40818 0.0
C521 C 0.86626 0.09745 0.43745 0.0
C522 C 0.90531 0.08532 0.45169 0.0
C523 C 0.94051 0.06849 0.43521 0.0
C524 C 0.93626 0.06418 0.40492 0.0
C525 C 0.89526 0.07492 0.39165 0.0
loop_
_geom_bond_atom_site_label_1
_geom_bond_atom_site_label_2
_geom_bond_distance
_geom_bond_site_symmetry_2
_ccdc_geom_bond_type
C0 C1 1.264 . S
C0 C5 1.479 . S
C0 C10 1.465 1_656 S
C1 C0 1.264 . S
C1 C3 1.339 . S
C1 H28 0.931 1_655 S
C2 C3 1.395 . S
C2 C4 1.320 . S
C3 C1 1.339 . S
C3 C2 1.395 . S
C3 H29 0.929 . S
C4 C2 1.320 . S
C4 C5 1.405 . S
C4 H30 0.930 . S
C5 C0 1.479 . S
C5 C4 1.405 . S
C5 H31 0.931 1_556 S
U6 O7 2.454 . S
U6 O8 2.458 . S
U6 C9 2.984 . S
U6 C10 2.847 . S
U6 C23 2.882 . S
U6 O24 2.441 . S
U6 O25 2.420 . S
U6 O26 2.455 . S
U6 O27 2.449 . S
O7 U6 2.454 . S
O7 C9 1.353 . S
O8 U6 2.458 . S
O8 C9 1.286 . S
C9 U6 2.984 . S
C9 O7 1.353 . S
C9 O8 1.286 . S
C9 C11 1.363 . S
C10 C0 1.465 1_454 S
C10 U6 2.847 . S
C10 O24 1.249 . S
C10 O25 1.202 . S
C11 C9 1.363 . S
C11 C13 1.408 . S
C11 C16 1.342 . S
C12 C13 1.310 . S
C12 C15 1.461 . S
C12 H32 0.932 . S
C13 C11 1.408 . S
C13 C12 1.310 . S
C13 H33 0.930 . S
C14 C15 1.474 . S
C14 C16 1.285 . S
C14 H34 0.929 . S
C15 C12 1.461 . S
C15 C14 1.474 . S
C16 C11 1.342 . S
C16 C14 1.285 . S
C16 H35 0.930 . S
C17 C20 1.424 . S
C17 C22 1.245 1_556 S
C17 C23 1.428 1_556 S
C18 C21 1.260 . S
C18 C22 1.477 1_556 S
C18 H36 0.932 . S
C19 C20 1.384 . S
C19 C21 1.479 . S
C19 H37 0.929 . S
C20 C17 1.424 . S
C20 C19 1.384 . S
C20 H38 0.928 . S
C21 C18 1.260 . S
C21 C19 1.479 . S
C22 C17 1.245 1_554 S
C22 C18 1.477 1_554 S
C22 H39 0.932 . S
C23 U6 2.882 . S
C23 C17 1.428 1_554 S
C23 O26 1.301 . S
C23 O27 1.282 . S
O24 U6 2.441 . S
O24 C10 1.249 . S
O25 U6 2.420 . S
O25 C10 1.202 . S
O26 U6 2.455 . S
O26 C23 1.301 . S
O27 U6 2.449 . S
O27 C23 1.282 . S
H28 C1 0.931 1_455 S
H29 C3 0.929 . S
H30 C4 0.930 . S
H31 C5 0.931 1_554 S
H32 C12 0.932 . S
H33 C13 0.930 . S
H34 C14 0.929 . S
H35 C16 0.930 . S
H36 C18 0.932 . S
H37 C19 0.929 . S
H38 C20 0.928 . S
H39 C22 0.932 . S
C40 C41 1.264 . S
C40 C45 1.479 . S
C40 C50 1.465 . S
C41 C40 1.264 . S
C41 C43 1.339 . S
C41 H68 0.931 . S
C42 C43 1.395 . S
C42 C44 1.320 . S
C43 C41 1.339 . S
C43 C42 1.395 . S
C43 H69 0.929 . S
C44 C42 1.320 . S
C44 C45 1.405 . S
C44 H70 0.930 . S
C45 C40 1.479 . S
C45 C44 1.405 . S
C45 H71 0.931 1_556 S
U46 O47 2.454 . S
U46 O48 2.458 1_655 S
U46 C49 2.984 . S
U46 C50 2.847 1_554 S
U46 C63 2.882 1_654 S
U46 O64 2.441 . S
U46 O65 2.420 1_554 S
U46 O66 2.455 1_655 S
U46 O67 2.449 1_654 S
O47 U46 2.454 . S
O47 C49 1.353 . S
O48 U46 2.458 1_455 S
O48 C49 1.286 1_455 S
C49 U46 2.984 . S
C49 O47 1.353 . S
C49 O48 1.286 1_655 S
C49 C51 1.363 . S
C50 C40 1.465 . S
C50 U46 2.847 1_556 S
C50 O64 1.249 1_556 S
C50 O65 1.202 . S
C51 C49 1.363 . S
C51 C53 1.408 . S
C51 C56 1.342 1_655 S
C52 C53 1.310 . S
C52 C55 1.484 . S
C52 H72 0.932 . S
C53 C51 1.408 . S
C53 C52 1.310 . S
C53 H73 0.930 . S
C54 C55 1.454 1_455 S
C54 C56 1.285 . S
C54 H74 0.929 . S
C55 C52 1.484 . S
C55 C54 1.454 1_655 S
C56 C51 1.342 1_455 S
C56 C54 1.285 . S
C56 H75 0.930 . S
C57 C60 1.424 . S
C57 C62 1.245 . S
C57 C63 1.428 . S
C58 C61 1.260 . S
C58 C62 1.477 . S
C58 H76 0.932 . S
C59 C60 1.384 . S
C59 C61 1.479 . S
C59 H77 0.929 . S
C60 C57 1.424 . S
C60 C59 1.384 . S
C60 H78 0.928 . S
C61 C58 1.260 . S
C61 C59 1.479 . S
C62 C57 1.245 . S
C62 C58 1.477 . S
C62 H79 0.935 . S
C63 U46 2.882 1_456 S
C63 C57 1.428 . S
C63 O66 1.301 1_556 S
C63 O67 1.282 . S
O64 U46 2.441 . S
O64 C50 1.249 1_554 S
O65 U46 2.420 1_556 S
O65 C50 1.202 . S
O66 U46 2.455 1_455 S
O66 C63 1.301 1_554 S
O67 U46 2.449 1_456 S
O67 C63 1.282 . S
H68 C41 0.931 . S
H69 C43 0.929 . S
H70 C44 0.930 . S
H71 C45 0.931 1_554 S
H72 C52 0.932 . S
H73 C53 0.930 . S
H74 C54 0.929 . S
H75 C56 0.930 . S
H76 C58 0.932 . S
H77 C59 0.929 . S
H78 C60 0.928 . S
H79 C62 0.935 . S
C80 C81 1.264 . S
C80 C85 1.479 . S
C80 C90 1.465 . S
C81 C80 1.264 . S
C81 C83 1.339 . S
C81 H108 0.931 . S
C82 C83 1.395 . S
C82 C84 1.320 . S
C83 C81 1.339 . S
C83 C82 1.395 . S
C83 H109 0.929 . S
C84 C82 1.320 . S
C84 C85 1.405 . S
C84 H110 0.930 . S
C85 C80 1.479 . S
C85 C84 1.405 . S
C85 H111 0.931 . S
U86 O87 2.454 . S
U86 O88 2.458 . S
U86 C89 2.984 . S
U86 C90 2.847 . S
U86 C103 2.882 . S
U86 O104 2.441 . S
U86 O105 2.420 . S
U86 O106 2.455 . S
U86 O107 2.449 . S
O87 U86 2.454 . S
O87 C89 1.353 . S
O88 U86 2.458 . S
O88 C89 1.286 . S
C89 U86 2.984 . S
C89 O87 1.353 . S
C89 O88 1.286 . S
C89 C91 1.363 . S
C90 C80 1.465 . S
C90 U86 2.847 . S
C90 O104 1.249 . S
C90 O105 1.202 . S
C91 C89 1.363 . S
C91 C93 1.408 . S
C91 C96 1.342 . S
C92 C93 1.310 . S
C92 C95 1.461 . S
C92 H112 0.932 . S
C93 C91 1.408 . S
C93 C92 1.310 . S
C93 H113 0.930 . S
C94 C95 1.474 . S
C94 C96 1.285 . S
C94 H114 0.929 . S
C95 C92 1.461 . S
C95 C94 1.474 . S
C96 C91 1.342 . S
C96 C94 1.285 . S
C96 H115 0.930 . S
C97 C100 1.424 . S
C97 C102 1.245 . S
C97 C103 1.428 . S
C98 C101 1.260 . S
C98 C102 1.477 . S
C98 H116 0.932 . S
C99 C100 1.384 . S
C99 C101 1.479 . S
C99 H117 0.929 . S
C100 C97 1.424 . S
C100 C99 1.384 . S
C100 H118 0.928 . S
C101 C98 1.260 . S
C101 C99 1.479 . S
C102 C97 1.245 . S
C102 C98 1.477 . S
C102 H119 0.932 . S
C103 U86 2.882 . S
C103 C97 1.428 . S
C103 O106 1.301 . S
C103 O107 1.282 . S
O104 U86 2.441 . S
O104 C90 1.249 . S
O105 U86 2.420 . S
O105 C90 1.202 . S
O106 U86 2.455 . S
O106 C103 1.301 . S
O107 U86 2.449 . S
O107 C103 1.282 . S
H108 C81 0.931 . S
H109 C83 0.929 . S
H110 C84 0.930 . S
H111 C85 0.931 . S
H112 C92 0.932 . S
H113 C93 0.930 . S
H114 C94 0.929 . S
H115 C96 0.930 . S
H116 C98 0.932 . S
H117 C99 0.929 . S
H118 C100 0.928 . S
H119 C102 0.932 . S
C120 C121 1.264 . S
C120 C125 1.479 . S
C120 C130 1.465 . S
C121 C120 1.264 . S
C121 C123 1.339 . S
C121 H148 0.931 . S
C122 C123 1.395 . S
C122 C124 1.320 . S
C123 C121 1.339 . S
C123 C122 1.395 . S
C123 H149 0.929 . S
C124 C122 1.320 . S
C124 C125 1.405 . S
C124 H150 0.930 . S
C125 C120 1.479 . S
C125 C124 1.405 . S
C125 H151 0.931 . S
U126 O127 2.454 . S
U126 O128 2.458 . S
U126 C129 2.984 . S
U126 C130 2.847 . S
U126 C143 2.882 . S
U126 O144 2.441 . S
U126 O145 2.420 . S
U126 O146 2.455 . S
U126 O147 2.449 . S
O127 U126 2.454 . S
O127 C129 1.353 . S
O128 U126 2.458 . S
O128 C129 1.286 . S
C129 U126 2.984 . S
C129 O127 1.353 . S
C129 O128 1.286 . S
C129 C131 1.363 . S
C130 C120 1.465 . S
C130 U126 2.847 . S
C130 O144 1.249 . S
C130 O145 1.202 . S
C131 C129 1.363 . S
C131 C133 1.408 . S
C131 C136 1.342 . S
C132 C133 1.310 . S
C132 C135 1.461 . S
C132 H152 0.932 . S
C133 C131 1.408 . S
C133 C132 1.310 . S
C133 H153 0.930 . S
C134 C135 1.474 . S
C134 C136 1.285 . S
C134 H154 0.929 . S
C135 C132 1.461 . S
C135 C134 1.474 . S
C136 C131 1.342 . S
C136 C134 1.285 . S
C136 H155 0.930 . S
C137 C140 1.424 . S
C137 C142 1.245 . S
C137 C143 1.428 . S
C138 C141 1.260 . S
C138 C142 1.477 . S
C138 H156 0.932 . S
C139 C140 1.384 . S
C139 C141 1.479 . S
C139 H157 0.929 . S
C140 C137 1.424 . S
C140 C139 1.384 . S
C140 H158 0.928 . S
C141 C138 1.260 . S
C141 C139 1.479 . S
C142 C137 1.245 . S
C142 C138 1.477 . S
C142 H159 0.932 . S
C143 U126 2.882 . S
C143 C137 1.428 . S
C143 O146 1.301 . S
C143 O147 1.282 . S
O144 U126 2.441 . S
O144 C130 1.249 . S
O145 U126 2.420 . S
O145 C130 1.202 . S
O146 U126 2.455 . S
O146 C143 1.301 . S
O147 U126 2.449 . S
O147 C143 1.282 . S
H148 C121 0.931 . S
H149 C123 0.929 . S
H150 C124 0.930 . S
H151 C125 0.931 . S
H152 C132 0.932 . S
H153 C133 0.930 . S
H154 C134 0.929 . S
H155 C136 0.930 . S
H156 C138 0.932 . S
H157 C139 0.929 . S
H158 C140 0.928 . S
H159 C142 0.932 . S
Zn160 O166 1.920 . S
Zn160 O172 1.898 . S
Zn160 O175 1.905 1_455 S
Zn161 O169 1.905 . S
Zn161 O170 1.898 . S
Zn161 O178 1.920 . S
Zn162 O165 2.080 . S
Zn162 O168 2.114 1_545 S
Zn162 O171 2.120 1_545 S
Zn162 O173 2.120 . S
Zn162 O174 2.114 . S
Zn162 O177 2.080 1_545 S
C163 O168 1.166 . S
C163 O169 1.182 . S
C164 O170 1.167 . S
C164 O171 1.299 . S
O165 Zn162 2.080 . S
O165 C179 1.305 . S
O166 Zn160 1.920 . S
O166 C179 1.234 . S
C167 O172 1.167 . S
C167 O173 1.299 . S
O168 Zn162 2.114 1_565 S
O168 C163 1.166 . S
O169 Zn161 1.905 . S
O169 C163 1.182 . S
O170 Zn161 1.898 . S
O170 C164 1.167 . S
O171 Zn162 2.120 1_565 S
O171 C164 1.299 . S
O172 Zn160 1.898 . S
O172 C167 1.167 . S
O173 Zn162 2.120 . S
O173 C167 1.299 . S
O174 Zn162 2.114 . S
O174 C176 1.166 1_455 S
O175 Zn160 1.905 1_655 S
O175 C176 1.182 . S
C176 O174 1.166 1_655 S
C176 O175 1.182 . S
O177 Zn162 2.080 1_565 S
O177 C180 1.305 . S
O178 Zn161 1.920 . S
O178 C180 1.234 . S
C179 O165 1.305 . S
C179 O166 1.234 . S
C180 O177 1.305 . S
C180 O178 1.234 . S
Zn181 O187 1.920 . S
Zn181 O193 1.898 . S
Zn181 O196 1.905 . S
Zn182 O190 1.905 . S
Zn182 O191 1.898 . S
Zn182 O199 1.920 . S
Zn183 O186 2.080 . S
Zn183 O189 2.114 . S
Zn183 O192 2.120 . S
Zn183 O194 2.120 . S
Zn183 O195 2.114 . S
Zn183 O198 2.080 . S
C184 O189 1.166 . S
C184 O190 1.182 . S
C185 O191 1.167 . S
C185 O192 1.299 . S
O186 Zn183 2.080 . S
O186 C200 1.305 . S
O187 Zn181 1.920 . S
O187 C200 1.234 . S
C188 O193 1.167 . S
C188 O194 1.299 . S
O189 Zn183 2.114 . S
O189 C184 1.166 . S
O190 Zn182 1.905 . S
O190 C184 1.182 . S
O191 Zn182 1.898 . S
O191 C185 1.167 . S
O192 Zn183 2.120 . S
O192 C185 1.299 . S
O193 Zn181 1.898 . S
O193 C188 1.167 . S
O194 Zn183 2.120 . S
O194 C188 1.299 . S
O195 Zn183 2.114 . S
O195 C197 1.166 . S
O196 Zn181 1.905 . S
O196 C197 1.182 . S
C197 O195 1.166 . S
C197 O196 1.182 . S
O198 Zn183 2.080 . S
O198 C201 1.305 . S
O199 Zn182 1.920 . S
O199 C201 1.234 . S
C200 O186 1.305 . S
C200 O187 1.234 . S
C201 O198 1.305 . S
C201 O199 1.234 . S
H202 C214 0.930 . S
H203 C216 0.930 . S
H204 C217 0.930 . S
H205 C221 0.959 . S
H206 C221 0.959 . S
H207 C221 0.961 . S
H208 C222 0.960 . S
H209 C222 0.961 1_655 S
H210 C222 0.959 . S
H211 C225 0.929 . S
H212 C226 0.931 . S
H213 C228 0.930 . S
C214 H202 0.930 . S
C214 C215 1.399 . S
C214 C219 1.399 . S
C215 C214 1.399 . S
C215 C216 1.376 . S
C216 H203 0.930 . S
C216 C215 1.376 . S
C216 C217 1.388 . S
C217 H204 0.930 . S
C217 C216 1.388 . S
C217 C218 1.390 . S
C218 C217 1.390 . S
C218 C219 1.394 . S
C218 C224 1.465 . S
C219 C214 1.399 . S
C219 C218 1.394 . S
C219 C220 1.516 . S
C220 C219 1.516 . S
C220 C221 1.502 . S
C220 C222 1.561 . S
C220 C223 1.526 . S
C221 H205 0.959 . S
C221 H206 0.959 . S
C221 H207 0.961 . S
C221 C220 1.502 . S
C222 H208 0.960 . S
C222 H209 0.961 1_455 S
C222 H210 0.959 . S
C222 C220 1.561 . S
C223 C220 1.526 . S
C223 C224 1.396 . S
C223 C228 1.390 . S
C224 C218 1.465 . S
C224 C223 1.396 . S
C224 C225 1.399 . S
C225 H211 0.929 . S
C225 C224 1.399 . S
C225 C226 1.385 . S
C226 H212 0.931 . S
C226 C225 1.385 . S
C226 C227 1.389 . S
C227 C226 1.389 . S
C227 C228 1.387 . S
C228 H213 0.930 . S
C228 C223 1.390 . S
C228 C227 1.387 . S
H229 C241 0.930 . S
H230 C243 0.934 . S
H231 C244 0.930 . S
H232 C248 0.959 . S
H233 C248 0.959 . S
H234 C248 0.961 . S
H235 C249 0.960 . S
H236 C249 0.961 . S
H237 C249 0.959 . S
H238 C252 0.929 . S
H239 C253 0.931 . S
H240 C255 0.930 . S
C241 H229 0.930 . S
C241 C242 1.403 . S
C241 C246 1.399 . S
C242 C241 1.403 . S
C242 C243 1.374 1_455 S
C243 H230 0.934 . S
C243 C242 1.374 1_655 S
C243 C244 1.386 1_655 S
C244 H231 0.930 . S
C244 C243 1.386 1_455 S
C244 C245 1.390 . S
C245 C244 1.390 . S
C245 C246 1.394 . S
C245 C251 1.465 . S
C246 C241 1.399 . S
C246 C245 1.394 . S
C246 C247 1.516 . S
C247 C246 1.516 . S
C247 C248 1.502 . S
C247 C249 1.561 1_455 S
C247 C250 1.526 . S
C248 H232 0.959 . S
C248 H233 0.959 . S
C248 H234 0.961 . S
C248 C247 1.502 . S
C249 H235 0.960 . S
C249 H236 0.961 . S
C249 H237 0.959 . S
C249 C247 1.561 1_655 S
C250 C247 1.526 . S
C250 C251 1.396 . S
C250 C255 1.390 . S
C251 C245 1.465 . S
C251 C250 1.396 . S
C251 C252 1.399 . S
C252 H238 0.929 . S
C252 C251 1.399 . S
C252 C253 1.385 . S
C253 H239 0.931 . S
C253 C252 1.385 . S
C253 C254 1.389 . S
C254 C253 1.389 . S
C254 C255 1.387 . S
C255 H240 0.930 . S
C255 C250 1.390 . S
C255 C254 1.387 . S
H256 C268 0.930 . S
H257 C270 0.930 . S
H258 C271 0.930 . S
H259 C275 0.959 . S
H260 C275 0.959 . S
H261 C275 0.961 . S
H262 C276 0.960 . S
H263 C276 0.961 . S
H264 C276 0.959 . S
H265 C279 0.929 . S
H266 C280 0.931 . S
H267 C282 0.930 . S
C268 H256 0.930 . S
C268 C269 1.399 . S
C268 C273 1.399 . S
C269 C268 1.399 . S
C269 C270 1.376 . S
C270 H257 0.930 . S
C270 C269 1.376 . S
C270 C271 1.388 . S
C271 H258 0.930 . S
C271 C270 1.388 . S
C271 C272 1.390 . S
C272 C271 1.390 . S
C272 C273 1.394 . S
C272 C278 1.465 . S
C273 C268 1.399 . S
C273 C272 1.394 . S
C273 C274 1.516 . S
C274 C273 1.516 . S
C274 C275 1.502 . S
C274 C276 1.561 . S
C274 C277 1.526 . S
C275 H259 0.959 . S
C275 H260 0.959 . S
C275 H261 0.961 . S
C275 C274 1.502 . S
C276 H262 0.960 . S
C276 H263 0.961 . S
C276 H264 0.959 . S
C276 C274 1.561 . S
C277 C274 1.526 . S
C277 C278 1.396 . S
C277 C282 1.390 . S
C278 C272 1.465 . S
C278 C277 1.396 . S
C278 C279 1.399 . S
C279 H265 0.929 . S
C279 C278 1.399 . S
C279 C280 1.385 . S
C280 H266 0.931 . S
C280 C279 1.385 . S
C280 C281 1.389 . S
C281 C280 1.389 . S
C281 C282 1.387 . S
C282 H267 0.930 . S
C282 C277 1.390 . S
C282 C281 1.387 . S
H283 C295 0.930 . S
H284 C297 0.930 . S
H285 C298 0.930 . S
H286 C302 0.959 . S
H287 C302 0.959 . S
H288 C302 0.961 . S
H289 C303 0.960 . S
H290 C303 0.961 . S
H291 C303 0.959 . S
H292 C306 0.929 . S
H293 C307 0.931 . S
H294 C309 0.930 . S
C295 H283 0.930 . S
C295 C296 1.399 . S
C295 C300 1.399 . S
C296 C295 1.399 . S
C296 C297 1.376 . S
C297 H284 0.930 . S
C297 C296 1.376 . S
C297 C298 1.388 . S
C298 H285 0.930 . S
C298 C297 1.388 . S
C298 C299 1.390 . S
C299 C298 1.390 . S
C299 C300 1.394 . S
C299 C305 1.465 . S
C300 C295 1.399 . S
C300 C299 1.394 . S
C300 C301 1.516 . S
C301 C300 1.516 . S
C301 C302 1.502 . S
C301 C303 1.561 . S
C301 C304 1.526 . S
C302 H286 0.959 . S
C302 H287 0.959 . S
C302 H288 0.961 . S
C302 C301 1.502 . S
C303 H289 0.960 . S
C303 H290 0.961 . S
C303 H291 0.959 . S
C303 C301 1.561 . S
C304 C301 1.526 . S
C304 C305 1.396 . S
C304 C309 1.390 . S
C305 C299 1.465 . S
C305 C304 1.396 . S
C305 C306 1.399 . S
C306 H292 0.929 . S
C306 C305 1.399 . S
C306 C307 1.385 . S
C307 H293 0.931 . S
C307 C306 1.385 . S
C307 C308 1.389 . S
C308 C307 1.389 . S
C308 C309 1.387 . S
C309 H294 0.930 . S
C309 C304 1.390 . S
C309 C308 1.387 . S
H310 C322 0.930 . S
H311 C324 0.930 . S
H312 C325 0.930 . S
H313 C329 0.959 . S
H314 C329 0.959 . S
H315 C329 0.961 . S
H316 C330 0.960 . S
H317 C330 0.961 . S
H318 C330 0.959 . S
H319 C333 0.929 . S
H320 C334 0.931 . S
H321 C336 0.930 . S
C322 H310 0.930 . S
C322 C323 1.399 . S
C322 C327 1.399 . S
C323 C322 1.399 . S
C323 C324 1.376 . S
C324 H311 0.930 . S
C324 C323 1.376 . S
C324 C325 1.388 . S
C325 H312 0.930 . S
C325 C324 1.388 . S
C325 C326 1.390 . S
C326 C325 1.390 . S
C326 C327 1.394 . S
C326 C332 1.465 . S
C327 C322 1.399 . S
C327 C326 1.394 . S
C327 C328 1.516 . S
C328 C327 1.516 . S
C328 C329 1.502 . S
C328 C330 1.561 . S
C328 C331 1.526 . S
C329 H313 0.959 . S
C329 H314 0.959 . S
C329 H315 0.961 . S
C329 C328 1.502 . S
C330 H316 0.960 . S
C330 H317 0.961 . S
C330 H318 0.959 . S
C330 C328 1.561 . S
C331 C328 1.526 . S
C331 C332 1.396 . S
C331 C336 1.390 . S
C332 C326 1.465 . S
C332 C331 1.396 . S
C332 C333 1.399 . S
C333 H319 0.929 . S
C333 C332 1.399 . S
C333 C334 1.385 . S
C334 H320 0.931 . S
C334 C333 1.385 . S
C334 C335 1.389 . S
C335 C334 1.389 . S
C335 C336 1.387 . S
C336 H321 0.930 . S
C336 C331 1.390 . S
C336 C335 1.387 . S
H337 C349 0.930 . S
H338 C351 0.930 . S
H339 C352 0.930 . S
H340 C356 0.959 . S
H341 C356 0.959 . S
H342 C356 0.961 . S
H343 C357 0.960 . S
H344 C357 0.961 . S
H345 C357 0.959 . S
H346 C360 0.929 . S
H347 C361 0.931 . S
H348 C363 0.930 . S
C349 H337 0.930 . S
C349 C350 1.399 . S
C349 C354 1.399 . S
C350 C349 1.399 . S
C350 C351 1.376 . S
C351 H338 0.930 . S
C351 C350 1.376 . S
C351 C352 1.388 . S
C352 H339 0.930 . S
C352 C351 1.388 . S
C352 C353 1.390 . S
C353 C352 1.390 . S
C353 C354 1.394 . S
C353 C359 1.465 . S
C354 C349 1.399 . S
C354 C353 1.394 . S
C354 C355 1.516 . S
C355 C354 1.516 . S
C355 C356 1.502 . S
C355 C357 1.561 . S
C355 C358 1.526 . S
C356 H340 0.959 . S
C356 H341 0.959 . S
C356 H342 0.961 . S
C356 C355 1.502 . S
C357 H343 0.960 . S
C357 H344 0.961 . S
C357 H345 0.959 . S
C357 C355 1.561 . S
C358 C355 1.526 . S
C358 C359 1.396 . S
C358 C363 1.390 . S
C359 C353 1.465 . S
C359 C358 1.396 . S
C359 C360 1.399 . S
C360 H346 0.929 . S
C360 C359 1.399 . S
C360 C361 1.385 . S
C361 H347 0.931 . S
C361 C360 1.385 . S
C361 C362 1.389 . S
C362 C361 1.389 . S
C362 C363 1.387 . S
C363 H348 0.930 . S
C363 C358 1.390 . S
C363 C362 1.387 . S
H364 C376 0.930 . S
H365 C378 0.930 . S
H366 C379 0.930 . S
H367 C383 0.959 . S
H368 C383 0.959 . S
H369 C383 0.961 . S
H370 C384 0.960 . S
H371 C384 0.961 . S
H372 C384 0.959 . S
H373 C387 0.929 . S
H374 C388 0.931 . S
H375 C390 0.930 . S
C376 H364 0.930 . S
C376 C377 1.399 . S
C376 C381 1.399 . S
C377 C376 1.399 . S
C377 C378 1.376 . S
C378 H365 0.930 . S
C378 C377 1.376 . S
C378 C379 1.388 . S
C379 H366 0.930 . S
C379 C378 1.388 . S
C379 C380 1.390 . S
C380 C379 1.390 . S
C380 C381 1.394 . S
C380 C386 1.465 . S
C381 C376 1.399 . S
C381 C380 1.394 . S
C381 C382 1.516 . S
C382 C381 1.516 . S
C382 C383 1.502 . S
C382 C384 1.561 . S
C382 C385 1.526 . S
C383 H367 0.959 . S
C383 H368 0.959 . S
C383 H369 0.961 . S
C383 C382 1.502 . S
C384 H370 0.960 . S
C384 H371 0.961 . S
C384 H372 0.959 . S
C384 C382 1.561 . S
C385 C382 1.526 . S
C385 C386 1.396 . S
C385 C390 1.390 . S
C386 C380 1.465 . S
C386 C385 1.396 . S
C386 C387 1.399 . S
C387 H373 0.929 . S
C387 C386 1.399 . S
C387 C388 1.385 . S
C388 H374 0.931 . S
C388 C387 1.385 . S
C388 C389 1.389 . S
C389 C388 1.389 . S
C389 C390 1.387 . S
C390 H375 0.930 . S
C390 C385 1.390 . S
C390 C389 1.387 . S
H391 C403 0.930 . S
H392 C405 0.930 . S
H393 C406 0.930 . S
H394 C410 0.959 . S
H395 C410 0.959 . S
H396 C410 0.961 . S
H397 C411 0.960 . S
H398 C411 0.961 . S
H399 C411 0.959 . S
H400 C414 0.929 . S
H401 C415 0.931 . S
H402 C417 0.930 . S
C403 H391 0.930 . S
C403 C404 1.399 . S
C403 C408 1.399 . S
C404 C403 1.399 . S
C404 C405 1.376 . S
C405 H392 0.930 . S
C405 C404 1.376 . S
C405 C406 1.388 . S
C406 H393 0.930 . S
C406 C405 1.388 . S
C406 C407 1.390 . S
C407 C406 1.390 . S
C407 C408 1.394 . S
C407 C413 1.465 . S
C408 C403 1.399 . S
C408 C407 1.394 . S
C408 C409 1.516 . S
C409 C408 1.516 . S
C409 C410 1.502 . S
C409 C411 1.561 . S
C409 C412 1.526 . S
C410 H394 0.959 . S
C410 H395 0.959 . S
C410 H396 0.961 . S
C410 C409 1.502 . S
C411 H397 0.960 . S
C411 H398 0.961 . S
C411 H399 0.959 . S
C411 C409 1.561 . S
C412 C409 1.526 . S
C412 C413 1.396 . S
C412 C417 1.390 . S
C413 C407 1.465 . S
C413 C412 1.396 . S
C413 C414 1.399 . S
C414 H400 0.929 . S
C414 C413 1.399 . S
C414 C415 1.385 . S
C415 H401 0.931 . S
C415 C414 1.385 . S
C415 C416 1.389 . S
C416 C415 1.389 . S
C416 C417 1.387 . S
C417 H402 0.930 . S
C417 C412 1.390 . S
C417 C416 1.387 . S
H418 C430 0.930 . S
H419 C432 0.930 . S
H420 C433 0.930 . S
H421 C437 0.959 . S
H422 C437 0.959 . S
H423 C437 0.961 . S
H424 C438 0.960 . S
H425 C438 0.961 . S
H426 C438 0.959 . S
H427 C441 0.929 . S
H428 C442 0.935 . S
H429 C444 0.930 . S
C430 H418 0.930 . S
C430 C431 1.399 . S
C430 C435 1.399 . S
C431 C430 1.399 . S
C431 C432 1.376 . S
C432 H419 0.930 . S
C432 C431 1.376 . S
C432 C433 1.388 . S
C433 H420 0.930 . S
C433 C432 1.388 . S
C433 C434 1.390 . S
C434 C433 1.390 . S
C434 C435 1.394 . S
C434 C440 1.465 . S
C435 C430 1.399 . S
C435 C434 1.394 . S
C435 C436 1.516 . S
C436 C435 1.516 . S
C436 C437 1.502 . S
C436 C438 1.561 . S
C436 C439 1.526 . S
C437 H421 0.959 . S
C437 H422 0.959 . S
C437 H423 0.961 . S
C437 C436 1.502 . S
C438 H424 0.960 . S
C438 H425 0.961 . S
C438 H426 0.959 . S
C438 C436 1.561 . S
C439 C436 1.526 . S
C439 C440 1.396 . S
C439 C444 1.390 . S
C440 C434 1.465 . S
C440 C439 1.396 . S
C440 C441 1.399 . S
C441 H427 0.929 . S
C441 C440 1.399 . S
C441 C442 1.382 1_655 S
C442 H428 0.935 . S
C442 C441 1.382 1_455 S
C442 C443 1.389 1_455 S
C443 C442 1.389 1_655 S
C443 C444 1.387 . S
C444 H429 0.930 . S
C444 C439 1.390 . S
C444 C443 1.387 . S
H445 C457 0.930 . S
H446 C459 0.930 . S
H447 C460 0.930 . S
H448 C464 0.959 . S
H449 C464 0.959 . S
H450 C464 0.961 . S
H451 C465 0.960 . S
H452 C465 0.961 . S
H453 C465 0.959 . S
H454 C468 0.929 . S
H455 C469 0.931 . S
H456 C471 0.930 . S
C457 H445 0.930 . S
C457 C458 1.399 . S
C457 C462 1.399 . S
C458 C457 1.399 . S
C458 C459 1.376 . S
C459 H446 0.930 . S
C459 C458 1.376 . S
C459 C460 1.388 . S
C460 H447 0.930 . S
C460 C459 1.388 . S
C460 C461 1.390 . S
C461 C460 1.390 . S
C461 C462 1.394 . S
C461 C467 1.465 . S
C462 C457 1.399 . S
C462 C461 1.394 . S
C462 C463 1.516 . S
C463 C462 1.516 . S
C463 C464 1.502 . S
C463 C465 1.561 . S
C463 C466 1.526 . S
C464 H448 0.959 . S
C464 H449 0.959 . S
C464 H450 0.961 . S
C464 C463 1.502 . S
C465 H451 0.960 . S
C465 H452 0.961 . S
C465 H453 0.959 . S
C465 C463 1.561 . S
C466 C463 1.526 . S
C466 C467 1.396 . S
C466 C471 1.390 . S
C467 C461 1.465 . S
C467 C466 1.396 . S
C467 C468 1.399 . S
C468 H454 0.929 . S
C468 C467 1.399 . S
C468 C469 1.385 . S
C469 H455 0.931 . S
C469 C468 1.385 . S
C469 C470 1.389 . S
C470 C469 1.389 . S
C470 C471 1.387 . S
C471 H456 0.930 . S
C471 C466 1.390 . S
C471 C470 1.387 . S
H472 C484 0.930 . S
H473 C486 0.930 . S
H474 C487 0.930 . S
H475 C491 0.959 . S
H476 C491 0.959 . S
H477 C491 0.961 . S
H478 C492 0.960 . S
H479 C492 0.961 . S
H480 C492 0.959 . S
H481 C495 0.929 . S
H482 C496 0.931 . S
H483 C498 0.930 . S
C484 H472 0.930 . S
C484 C485 1.399 . S
C484 C489 1.399 . S
C485 C484 1.399 . S
C485 C486 1.376 . S
C486 H473 0.930 . S
C486 C485 1.376 . S
C486 C487 1.388 . S
C487 H474 0.930 . S
C487 C486 1.388 . S
C487 C488 1.390 . S
C488 C487 1.390 . S
C488 C489 1.394 . S
C488 C494 1.465 . S
C489 C484 1.399 . S
C489 C488 1.394 . S
C489 C490 1.516 . S
C490 C489 1.516 . S
C490 C491 1.502 . S
C490 C492 1.561 . S
C490 C493 1.526 . S
C491 H475 0.959 . S
C491 H476 0.959 . S
C491 H477 0.961 . S
C491 C490 1.502 . S
C492 H478 0.960 . S
C492 H479 0.961 . S
C492 H480 0.959 . S
C492 C490 1.561 . S
C493 C490 1.526 . S
C493 C494 1.396 . S
C493 C498 1.390 . S
C494 C488 1.465 . S
C494 C493 1.396 . S
C494 C495 1.399 . S
C495 H481 0.929 . S
C495 C494 1.399 . S
C495 C496 1.385 . S
C496 H482 0.931 . S
C496 C495 1.385 . S
C496 C497 1.389 . S
C497 C496 1.389 . S
C497 C498 1.387 . S
C498 H483 0.930 . S
C498 C493 1.390 . S
C498 C497 1.387 . S
H499 C511 0.930 . S
H500 C513 0.930 . S
H501 C514 0.930 . S
H502 C518 0.959 . S
H503 C518 0.959 . S
H504 C518 0.961 . S
H505 C519 0.960 . S
H506 C519 0.961 . S
H507 C519 0.959 . S
H508 C522 0.929 . S
H509 C523 0.931 . S
H510 C525 0.930 . S
C511 H499 0.930 . S
C511 C512 1.399 . S
C511 C516 1.399 . S
C512 C511 1.399 . S
C512 C513 1.376 . S
C513 H500 0.930 . S
C513 C512 1.376 . S
C513 C514 1.388 . S
C514 H501 0.930 . S
C514 C513 1.388 . S
C514 C515 1.390 . S
C515 C514 1.390 . S
C515 C516 1.394 . S
C515 C521 1.465 . S
C516 C511 1.399 . S
C516 C515 1.394 . S
C516 C517 1.516 . S
C517 C516 1.516 . S
C517 C518 1.502 . S
C517 C519 1.561 . S
C517 C520 1.526 . S
C518 H502 0.959 . S
C518 H503 0.959 . S
C518 H504 0.961 . S
C518 C517 1.502 . S
C519 H505 0.960 . S
C519 H506 0.961 . S
C519 H507 0.959 . S
C519 C517 1.561 . S
C520 C517 1.526 . S
C520 C521 1.396 . S
C520 C525 1.390 . S
C521 C515 1.465 . S
C521 C520 1.396 . S
C521 C522 1.399 . S
C522 H508 0.929 . S
C522 C521 1.399 . S
C522 C523 1.385 . S
C523 H509 0.931 . S
C523 C522 1.385 . S
C523 C524 1.389 . S
C524 C523 1.389 . S
C524 C525 1.387 . S
C525 H510 0.930 . S
C525 C520 1.390 . S
C525 C524 1.387 . S
C227 C167 1.500 . S
C215 C15 1.569 . S
C254 C163 1.419 . S
C242 C55 1.528 1_455 S
C281 C188 1.432 . S
C269 C95 1.542 . S
C296 C135 1.520 . S
C308 C184 1.435 . S
C323 C21 1.239 . S
C335 C185 0.990 . S
C362 C200 1.172 . S
C350 C42 1.242 . S
C377 C2 1.671 . S
C389 C201 1.580 . S
C416 C197 1.605 . S
C404 C61 1.730 . S
C443 C164 0.984 1_655 S
C431 C101 1.245 . S
C458 C122 1.273 . S
C470 C179 1.001 . S
C497 C180 1.567 . S
C485 C82 1.703 . S
C524 C176 1.567 . S
C512 C141 1.754 . S
