# Generated by pormake.
# Topology gar, (4,6)-cn, num edge types: 1
# Building blocks:
#     Node 0, Type 0, BuildingBlock: GALJAG_clean_sbu_0, # of connection points: 4
#     Node 1, Type 0, BuildingBlock: GALJAG_clean_sbu_0, # of connection points: 4
#     Node 2, Type 0, BuildingBlock: GALJAG_clean_sbu_0, # of connection points: 4
#     Node 3, Type 0, BuildingBlock: GALJAG_clean_sbu_0, # of connection points: 4
#     Node 4, Type 0, BuildingBlock: GALJAG_clean_sbu_0, # of connection points: 4
#     Node 5, Type 0, BuildingBlock: GALJAG_clean_sbu_0, # of connection points: 4
#     Node 6, Type 0, BuildingBlock: GALJAG_clean_sbu_0, # of connection points: 4
#     Node 7, Type 0, BuildingBlock: GALJAG_clean_sbu_0, # of connection points: 4
#     Node 8, Type 0, BuildingBlock: GALJAG_clean_sbu_0, # of connection points: 4
#     Node 9, Type 0, BuildingBlock: GALJAG_clean_sbu_0, # of connection points: 4
#     Node 10, Type 0, BuildingBlock: GALJAG_clean_sbu_0, # of connection points: 4
#     Node 11, Type 0, BuildingBlock: GALJAG_clean_sbu_0, # of connection points: 4
#     Node 12, Type 0, BuildingBlock: GALJAG_clean_sbu_0, # of connection points: 4
#     Node 13, Type 0, BuildingBlock: GALJAG_clean_sbu_0, # of connection points: 4
#     Node 14, Type 0, BuildingBlock: GALJAG_clean_sbu_0, # of connection points: 4
#     Node 15, Type 0, BuildingBlock: GALJAG_clean_sbu_0, # of connection points: 4
#     Node 16, Type 0, BuildingBlock: GALJAG_clean_sbu_0, # of connection points: 4
#     Node 17, Type 0, BuildingBlock: GALJAG_clean_sbu_0, # of connection points: 4
#     Node 18, Type 0, BuildingBlock: GALJAG_clean_sbu_0, # of connection points: 4
#     Node 19, Type 0, BuildingBlock: GALJAG_clean_sbu_0, # of connection points: 4
#     Node 20, Type 0, BuildingBlock: GALJAG_clean_sbu_0, # of connection points: 4
#     Node 21, Type 0, BuildingBlock: GALJAG_clean_sbu_0, # of connection points: 4
#     Node 22, Type 0, BuildingBlock: GALJAG_clean_sbu_0, # of connection points: 4
#     Node 23, Type 0, BuildingBlock: GALJAG_clean_sbu_0, # of connection points: 4
#     Node 24, Type 1, BuildingBlock: KUMBOL_clean_sbu_0, # of connection points: 6
#     Node 25, Type 1, BuildingBlock: KUMBOL_clean_sbu_0, # of connection points: 6
#     Node 26, Type 1, BuildingBlock: KUMBOL_clean_sbu_0, # of connection points: 6
#     Node 27, Type 1, BuildingBlock: KUMBOL_clean_sbu_0, # of connection points: 6
#     Node 28, Type 1, BuildingBlock: KUMBOL_clean_sbu_0, # of connection points: 6
#     Node 29, Type 1, BuildingBlock: KUMBOL_clean_sbu_0, # of connection points: 6
#     Node 30, Type 1, BuildingBlock: KUMBOL_clean_sbu_0, # of connection points: 6
#     Node 31, Type 1, BuildingBlock: KUMBOL_clean_sbu_0, # of connection points: 6
#     Node 32, Type 1, BuildingBlock: KUMBOL_clean_sbu_0, # of connection points: 6
#     Node 33, Type 1, BuildingBlock: KUMBOL_clean_sbu_0, # of connection points: 6
#     Node 34, Type 1, BuildingBlock: KUMBOL_clean_sbu_0, # of connection points: 6
#     Node 35, Type 1, BuildingBlock: KUMBOL_clean_sbu_0, # of connection points: 6
#     Node 36, Type 1, BuildingBlock: KUMBOL_clean_sbu_0, # of connection points: 6
#     Node 37, Type 1, BuildingBlock: KUMBOL_clean_sbu_0, # of connection points: 6
#     Node 38, Type 1, BuildingBlock: KUMBOL_clean_sbu_0, # of connection points: 6
#     Node 39, Type 1, BuildingBlock: KUMBOL_clean_sbu_0, # of connection points: 6
#     Edge 40, Type (0, 1), BuildingBlock: KIFKEQ_clean_linker_1, # of connection points: 2
#     Edge 41, Type (0, 1), BuildingBlock: KIFKEQ_clean_linker_1, # of connection points: 2
#     Edge 42, Type (0, 1), BuildingBlock: KIFKEQ_clean_linker_1, # of connection points: 2
#     Edge 43, Type (0, 1), BuildingBlock: KIFKEQ_clean_linker_1, # of connection points: 2
#     Edge 44, Type (0, 1), BuildingBlock: KIFKEQ_clean_linker_1, # of connection points: 2
#     Edge 45, Type (0, 1), BuildingBlock: KIFKEQ_clean_linker_1, # of connection points: 2
#     Edge 46, Type (0, 1), BuildingBlock: KIFKEQ_clean_linker_1, # of connection points: 2
#     Edge 47, Type (0, 1), BuildingBlock: KIFKEQ_clean_linker_1, # of connection points: 2
#     Edge 48, Type (0, 1), BuildingBlock: KIFKEQ_clean_linker_1, # of connection points: 2
#     Edge 49, Type (0, 1), BuildingBlock: KIFKEQ_clean_linker_1, # of connection points: 2
#     Edge 50, Type (0, 1), BuildingBlock: KIFKEQ_clean_linker_1, # of connection points: 2
#     Edge 51, Type (0, 1), BuildingBlock: KIFKEQ_clean_linker_1, # of connection points: 2
#     Edge 52, Type (0, 1), BuildingBlock: KIFKEQ_clean_linker_1, # of connection points: 2
#     Edge 53, Type (0, 1), BuildingBlock: KIFKEQ_clean_linker_1, # of connection points: 2
#     Edge 54, Type (0, 1), BuildingBlock: KIFKEQ_clean_linker_1, # of connection points: 2
#     Edge 55, Type (0, 1), BuildingBlock: KIFKEQ_clean_linker_1, # of connection points: 2
#     Edge 56, Type (0, 1), BuildingBlock: KIFKEQ_clean_linker_1, # of connection points: 2
#     Edge 57, Type (0, 1), BuildingBlock: KIFKEQ_clean_linker_1, # of connection points: 2
#     Edge 58, Type (0, 1), BuildingBlock: KIFKEQ_clean_linker_1, # of connection points: 2
#     Edge 59, Type (0, 1), BuildingBlock: KIFKEQ_clean_linker_1, # of connection points: 2
#     Edge 60, Type (0, 1), BuildingBlock: KIFKEQ_clean_linker_1, # of connection points: 2
#     Edge 61, Type (0, 1), BuildingBlock: KIFKEQ_clean_linker_1, # of connection points: 2
#     Edge 62, Type (0, 1), BuildingBlock: KIFKEQ_clean_linker_1, # of connection points: 2
#     Edge 63, Type (0, 1), BuildingBlock: KIFKEQ_clean_linker_1, # of connection points: 2
#     Edge 64, Type (0, 1), BuildingBlock: KIFKEQ_clean_linker_1, # of connection points: 2
#     Edge 65, Type (0, 1), BuildingBlock: KIFKEQ_clean_linker_1, # of connection points: 2
#     Edge 66, Type (0, 1), BuildingBlock: KIFKEQ_clean_linker_1, # of connection points: 2
#     Edge 67, Type (0, 1), BuildingBlock: KIFKEQ_clean_linker_1, # of connection points: 2
#     Edge 68, Type (0, 1), BuildingBlock: KIFKEQ_clean_linker_1, # of connection points: 2
#     Edge 69, Type (0, 1), BuildingBlock: KIFKEQ_clean_linker_1, # of connection points: 2
#     Edge 70, Type (0, 1), BuildingBlock: KIFKEQ_clean_linker_1, # of connection points: 2
#     Edge 71, Type (0, 1), BuildingBlock: KIFKEQ_clean_linker_1, # of connection points: 2
#     Edge 72, Type (0, 1), BuildingBlock: KIFKEQ_clean_linker_1, # of connection points: 2
#     Edge 73, Type (0, 1), BuildingBlock: KIFKEQ_clean_linker_1, # of connection points: 2
#     Edge 74, Type (0, 1), BuildingBlock: KIFKEQ_clean_linker_1, # of connection points: 2
#     Edge 75, Type (0, 1), BuildingBlock: KIFKEQ_clean_linker_1, # of connection points: 2
#     Edge 76, Type (0, 1), BuildingBlock: KIFKEQ_clean_linker_1, # of connection points: 2
#     Edge 77, Type (0, 1), BuildingBlock: KIFKEQ_clean_linker_1, # of connection points: 2
#     Edge 78, Type (0, 1), BuildingBlock: KIFKEQ_clean_linker_1, # of connection points: 2
#     Edge 79, Type (0, 1), BuildingBlock: KIFKEQ_clean_linker_1, # of connection points: 2
#     Edge 80, Type (0, 1), BuildingBlock: KIFKEQ_clean_linker_1, # of connection points: 2
#     Edge 81, Type (0, 1), BuildingBlock: KIFKEQ_clean_linker_1, # of connection points: 2
#     Edge 82, Type (0, 1), BuildingBlock: KIFKEQ_clean_linker_1, # of connection points: 2
#     Edge 83, Type (0, 1), BuildingBlock: KIFKEQ_clean_linker_1, # of connection points: 2
#     Edge 84, Type (0, 1), BuildingBlock: KIFKEQ_clean_linker_1, # of connection points: 2
#     Edge 85, Type (0, 1), BuildingBlock: KIFKEQ_clean_linker_1, # of connection points: 2
#     Edge 86, Type (0, 1), BuildingBlock: KIFKEQ_clean_linker_1, # of connection points: 2
#     Edge 87, Type (0, 1), BuildingBlock: KIFKEQ_clean_linker_1, # of connection points: 2
#     Edge 88, Type (0, 1), BuildingBlock: KIFKEQ_clean_linker_1, # of connection points: 2
#     Edge 89, Type (0, 1), BuildingBlock: KIFKEQ_clean_linker_1, # of connection points: 2
#     Edge 90, Type (0, 1), BuildingBlock: KIFKEQ_clean_linker_1, # of connection points: 2
#     Edge 91, Type (0, 1), BuildingBlock: KIFKEQ_clean_linker_1, # of connection points: 2
#     Edge 92, Type (0, 1), BuildingBlock: KIFKEQ_clean_linker_1, # of connection points: 2
#     Edge 93, Type (0, 1), BuildingBlock: KIFKEQ_clean_linker_1, # of connection points: 2
#     Edge 94, Type (0, 1), BuildingBlock: KIFKEQ_clean_linker_1, # of connection points: 2
#     Edge 95, Type (0, 1), BuildingBlock: KIFKEQ_clean_linker_1, # of connection points: 2
#     Edge 96, Type (0, 1), BuildingBlock: KIFKEQ_clean_linker_1, # of connection points: 2
#     Edge 97, Type (0, 1), BuildingBlock: KIFKEQ_clean_linker_1, # of connection points: 2
#     Edge 98, Type (0, 1), BuildingBlock: KIFKEQ_clean_linker_1, # of connection points: 2
#     Edge 99, Type (0, 1), BuildingBlock: KIFKEQ_clean_linker_1, # of connection points: 2
#     Edge 100, Type (0, 1), BuildingBlock: KIFKEQ_clean_linker_1, # of connection points: 2
#     Edge 101, Type (0, 1), BuildingBlock: KIFKEQ_clean_linker_1, # of connection points: 2
#     Edge 102, Type (0, 1), BuildingBlock: KIFKEQ_clean_linker_1, # of connection points: 2
#     Edge 103, Type (0, 1), BuildingBlock: KIFKEQ_clean_linker_1, # of connection points: 2
#     Edge 104, Type (0, 1), BuildingBlock: KIFKEQ_clean_linker_1, # of connection points: 2
#     Edge 105, Type (0, 1), BuildingBlock: KIFKEQ_clean_linker_1, # of connection points: 2
#     Edge 106, Type (0, 1), BuildingBlock: KIFKEQ_clean_linker_1, # of connection points: 2
#     Edge 107, Type (0, 1), BuildingBlock: KIFKEQ_clean_linker_1, # of connection points: 2
#     Edge 108, Type (0, 1), BuildingBlock: KIFKEQ_clean_linker_1, # of connection points: 2
#     Edge 109, Type (0, 1), BuildingBlock: KIFKEQ_clean_linker_1, # of connection points: 2
#     Edge 110, Type (0, 1), BuildingBlock: KIFKEQ_clean_linker_1, # of connection points: 2
#     Edge 111, Type (0, 1), BuildingBlock: KIFKEQ_clean_linker_1, # of connection points: 2
#     Edge 112, Type (0, 1), BuildingBlock: KIFKEQ_clean_linker_1, # of connection points: 2
#     Edge 113, Type (0, 1), BuildingBlock: KIFKEQ_clean_linker_1, # of connection points: 2
#     Edge 114, Type (0, 1), BuildingBlock: KIFKEQ_clean_linker_1, # of connection points: 2
#     Edge 115, Type (0, 1), BuildingBlock: KIFKEQ_clean_linker_1, # of connection points: 2
#     Edge 116, Type (0, 1), BuildingBlock: KIFKEQ_clean_linker_1, # of connection points: 2
#     Edge 117, Type (0, 1), BuildingBlock: KIFKEQ_clean_linker_1, # of connection points: 2
#     Edge 118, Type (0, 1), BuildingBlock: KIFKEQ_clean_linker_1, # of connection points: 2
#     Edge 119, Type (0, 1), BuildingBlock: KIFKEQ_clean_linker_1, # of connection points: 2
#     Edge 120, Type (0, 1), BuildingBlock: KIFKEQ_clean_linker_1, # of connection points: 2
#     Edge 121, Type (0, 1), BuildingBlock: KIFKEQ_clean_linker_1, # of connection points: 2
#     Edge 122, Type (0, 1), BuildingBlock: KIFKEQ_clean_linker_1, # of connection points: 2
#     Edge 123, Type (0, 1), BuildingBlock: KIFKEQ_clean_linker_1, # of connection points: 2
#     Edge 124, Type (0, 1), BuildingBlock: KIFKEQ_clean_linker_1, # of connection points: 2
#     Edge 125, Type (0, 1), BuildingBlock: KIFKEQ_clean_linker_1, # of connection points: 2
#     Edge 126, Type (0, 1), BuildingBlock: KIFKEQ_clean_linker_1, # of connection points: 2
#     Edge 127, Type (0, 1), BuildingBlock: KIFKEQ_clean_linker_1, # of connection points: 2
#     Edge 128, Type (0, 1), BuildingBlock: KIFKEQ_clean_linker_1, # of connection points: 2
#     Edge 129, Type (0, 1), BuildingBlock: KIFKEQ_clean_linker_1, # of connection points: 2
#     Edge 130, Type (0, 1), BuildingBlock: KIFKEQ_clean_linker_1, # of connection points: 2
#     Edge 131, Type (0, 1), BuildingBlock: KIFKEQ_clean_linker_1, # of connection points: 2
#     Edge 132, Type (0, 1), BuildingBlock: KIFKEQ_clean_linker_1, # of connection points: 2
#     Edge 133, Type (0, 1), BuildingBlock: KIFKEQ_clean_linker_1, # of connection points: 2
#     Edge 134, Type (0, 1), BuildingBlock: KIFKEQ_clean_linker_1, # of connection points: 2
#     Edge 135, Type (0, 1), BuildingBlock: KIFKEQ_clean_linker_1, # of connection points: 2
# Relax obj value: 0.135
# Max RMSD: 0.322
# Mean RMSD: 0.168
data_MOF--net-gar--node1-GALJAG_clean_sbu_0--node2-KUMBOL_clean_sbu_0--edge1-KIFKEQ_clean_linker_1
_symmetry_space_group_name_H-M    P1
_symmetry_Int_Tables_number       1
_symmetry_cell_setting            triclinic
loop_
_symmetry_equiv_pos_as_xyz
'x, y, z'
_cell_length_a     62.4309
_cell_length_b     57.384121
_cell_length_c     57.340854
_cell_angle_alpha  100.26979
_cell_angle_beta   93.39573
_cell_angle_gamma 101.8937
loop_
_atom_site_label
_atom_site_type_symbol
_atom_site_fract_x
_atom_site_fract_y
_atom_site_fract_z
_atom_type_partial_charge
In0 In 0.10577 0.32418 0.38496 0.0
O1 O 0.12421 0.31778 0.35203 0.0
O2 O 0.14309 0.32796 0.38563 0.0
C3 C 0.06643 0.32126 0.36139 0.0
C4 C 0.09836 0.28618 0.40786 0.0
C5 C 0.11023 0.37101 0.40657 0.0
O6 O 0.0825 0.31599 0.35086 0.0
O7 O 0.06995 0.32682 0.38379 0.0
O8 O 0.11045 0.35423 0.41806 0.0
O9 O 0.10891 0.36436 0.38426 0.0
C10 C 0.143 0.32256 0.36332 0.0
O11 O 0.10716 0.30757 0.41829 0.0
O12 O 0.09362 0.28379 0.38576 0.0
In13 In 0.01306 0.78611 0.67964 0.0
O14 O 0.99706 0.79561 0.64697 0.0
O15 O 0.02045 0.82376 0.66988 0.0
C16 C 0.0212 0.74862 0.6486 0.0
C17 C 0.04698 0.79112 0.71295 0.0
C18 C 0.97724 0.78277 0.70375 0.0
O19 O 1.00299 0.7479 0.65717 0.0
O20 O 0.03515 0.76834 0.65542 0.0
O21 O 0.98214 0.76464 0.69113 0.0
O22 O 0.99054 0.80276 0.70438 0.0
C23 C 0.00742 0.81746 0.65104 0.0
O24 O 0.02925 0.77554 0.71158 0.0
O25 O 0.04726 0.80503 0.69817 0.0
In26 In 0.60848 0.8252 0.89171 0.0
O27 O 0.62566 0.81462 0.85869 0.0
O28 O 0.64567 0.83116 0.89102 0.0
C29 C 0.56709 0.81666 0.87088 0.0
C30 C 0.60496 0.79439 0.92266 0.0
C31 C 0.6128 0.87351 0.90482 0.0
O32 O 0.58272 0.81155 0.85942 0.0
O33 O 0.57221 0.82466 0.89287 0.0
O34 O 0.6172 0.86045 0.91917 0.0
O35 O 0.60728 0.86236 0.88363 0.0
C36 C 0.64483 0.82259 0.86907 0.0
O37 O 0.60864 0.81712 0.9291 0.0
O38 O 0.60344 0.78695 0.9004 0.0
In39 In 0.50796 0.26708 0.17013 0.0
O40 O 0.49041 0.23417 0.14216 0.0
O41 O 0.508 0.22803 0.17247 0.0
C42 C 0.51659 0.29719 0.13888 0.0
C43 C 0.47247 0.27185 0.19379 0.0
C44 C 0.54855 0.27174 0.19171 0.0
O45 O 0.51322 0.27444 0.13318 0.0
O46 O 0.51549 0.3052 0.1607 0.0
O47 O 0.53451 0.28191 0.20193 0.0
O48 O 0.54232 0.26057 0.17064 0.0
C49 C 0.49689 0.21901 0.15269 0.0
O50 O 0.49062 0.27129 0.20428 0.0
O51 O 0.47258 0.27107 0.1717 0.0
In52 In 0.0973 0.81352 0.12343 0.0
O53 O 0.10036 0.78107 0.09257 0.0
O54 O 0.08244 0.77264 0.12104 0.0
C55 C 0.09544 0.85439 0.10223 0.0
C56 C 0.06171 0.81284 0.14958 0.0
C57 C 0.1378 0.81612 0.14845 0.0
O58 O 0.08843 0.83262 0.09142 0.0
O59 O 0.10434 0.8555 0.12287 0.0
O60 O 0.12135 0.82148 0.15814 0.0
O61 O 0.13442 0.81077 0.12597 0.0
C62 C 0.08966 0.76443 0.10193 0.0
O63 O 0.0814 0.81818 0.15887 0.0
O64 O 0.05989 0.80813 0.12707 0.0
In65 In 0.52279 0.76875 0.43012 0.0
O66 O 0.53833 0.7649 0.39448 0.0
O67 O 0.56017 0.77395 0.42598 0.0
C68 C 0.48276 0.76683 0.40424 0.0
C69 C 0.52466 0.72702 0.45021 0.0
C70 C 0.53064 0.81748 0.4535 0.0
O71 O 0.49967 0.7624 0.39494 0.0
O72 O 0.48541 0.77098 0.42678 0.0
O73 O 0.51896 0.80044 0.46154 0.0
O74 O 0.53868 0.80983 0.43474 0.0
C75 C 0.55808 0.76979 0.40347 0.0
O76 O 0.53146 0.74864 0.46151 0.0
O77 O 0.51591 0.72643 0.42962 0.0
In78 In 0.59793 0.31566 0.62717 0.0
O79 O 0.58793 0.28243 0.59418 0.0
O80 O 0.5997 0.27574 0.62694 0.0
C81 C 0.59476 0.35699 0.60696 0.0
C82 C 0.56144 0.31059 0.65214 0.0
C83 C 0.63903 0.32203 0.6526 0.0
O84 O 0.60181 0.33923 0.59609 0.0
O85 O 0.59006 0.35405 0.62745 0.0
O86 O 0.62179 0.3248 0.66215 0.0
O87 O 0.63611 0.31779 0.63007 0.0
C88 C 0.59263 0.26674 0.60551 0.0
O89 O 0.5803 0.32255 0.6612 0.0
O90 O 0.56082 0.30097 0.63042 0.0
In91 In 0.02136 0.26725 0.93225 0.0
O92 O 0.0306 0.24802 0.96406 0.0
O93 O 0.01461 0.22527 0.93258 0.0
C94 C 0.02889 0.31606 0.95463 0.0
C95 C 0.05723 0.2676 0.90649 0.0
C96 C 0.98096 0.26554 0.90719 0.0
O97 O 0.01904 0.29906 0.96417 0.0
O98 O 0.0351 0.30833 0.93474 0.0
O99 O 0.99828 0.26341 0.8975 0.0
O100 O 0.98352 0.26743 0.92956 0.0
C101 C 0.02361 0.22628 0.95314 0.0
O102 O 0.03779 0.25745 0.8977 0.0
O103 O 0.05867 0.27728 0.92827 0.0
In104 In 0.43296 0.0444 0.29569 0.0
O105 O 0.45013 0.05682 0.26464 0.0
O106 O 0.46127 0.02978 0.28 0.0
C107 C 0.45578 0.05671 0.33934 0.0
C108 C 0.40875 0.07699 0.28762 0.0
C109 C 0.4087 0.99826 0.28784 0.0
O110 O 0.46474 0.05694 0.32026 0.0
O111 O 0.43501 0.05088 0.3366 0.0
O112 O 0.41694 1.00817 0.27155 0.0
O113 O 0.41233 0.01176 0.30825 0.0
C114 C 0.46347 0.04299 0.26454 0.0
O115 O 0.40168 0.05437 0.2815 0.0
O116 O 0.42775 0.08326 0.29861 0.0
In117 In 0.29785 0.18961 0.51625 0.0
O118 O 0.29359 0.22172 0.54567 0.0
O119 O 0.31093 0.19651 0.5556 0.0
C120 C 0.30171 0.20924 0.47574 0.0
C121 C 0.32919 0.16277 0.51663 0.0
C122 C 0.25533 0.16453 0.51403 0.0
O123 O 0.30946 0.22133 0.49621 0.0
O124 O 0.29229 0.18763 0.47581 0.0
O125 O 0.27084 0.15453 0.50785 0.0
O126 O 0.26113 0.18724 0.52096 0.0
C127 C 0.30341 0.21506 0.56237 0.0
O128 O 0.30899 0.1543 0.51753 0.0
O129 O 0.33378 0.18495 0.51507 0.0
In130 In 0.17993 0.01103 0.77411 0.0
O131 O 0.17633 0.00996 0.73097 0.0
O132 O 0.14744 0.00979 0.74654 0.0
C133 C 0.15813 0.01422 0.81881 0.0
C134 C 0.20233 0.969 0.77315 0.0
C135 C 0.20531 0.06012 0.77937 0.0
O136 O 0.14927 1.00194 0.79858 0.0
O137 O 0.17778 0.02456 0.81675 0.0
O138 O 0.21377 0.04177 0.77908 0.0
O139 O 0.18458 0.05393 0.77787 0.0
C140 C 0.15629 0.01072 0.72724 0.0
O141 O 0.21133 0.99035 0.77085 0.0
O142 O 0.18208 0.96838 0.77545 0.0
In143 In 0.32744 0.92961 0.03296 0.0
O144 O 0.32408 0.8983 0.05327 0.0
O145 O 0.34069 0.9335 0.07155 0.0
C146 C 0.32179 0.89386 0.99405 0.0
C147 C 0.29491 0.9544 0.03835 0.0
C148 C 0.36584 0.95845 0.02713 0.0
O149 O 0.33922 0.90054 0.00802 0.0
O150 O 0.30671 0.9047 1.00006 0.0
O151 O 0.36026 0.95506 0.04724 0.0
O152 O 0.35159 0.94812 0.00987 0.0
C153 C 0.33447 0.91134 0.07228 0.0
O154 O 0.31214 0.96185 0.02902 0.0
O155 O 0.29388 0.93427 0.04459 0.0
In156 In 0.32361 0.39138 0.03974 0.0
O157 O 0.30898 0.36011 0.05937 0.0
O158 O 0.33417 0.3887 0.07822 0.0
C159 C 0.31718 0.36472 0.99411 0.0
C160 C 0.29327 0.41977 0.0406 0.0
C161 C 0.3655 0.41804 0.04164 0.0
O162 O 0.32844 0.35931 0.01062 0.0
O163 O 0.30872 0.38259 1.00092 0.0
O164 O 0.3518 0.42442 0.0554 0.0
O165 O 0.35822 0.3982 0.02724 0.0
C166 C 0.32089 0.36911 0.07877 0.0
O167 O 0.31313 0.42704 0.03731 0.0
O168 O 0.28863 0.39825 0.04403 0.0
In169 In 0.78927 0.13652 0.01547 0.0
O170 O 0.80218 0.10394 0.02457 0.0
O171 O 0.81908 0.12401 1.0011 0.0
C172 C 0.7455 0.11941 1.00587 0.0
C173 C 0.79419 0.16401 0.05989 0.0
C174 C 0.79341 0.1593 0.97846 0.0
O175 O 0.75842 0.10546 0.00811 0.0
O176 O 0.75467 0.14156 0.00861 0.0
O177 O 0.80134 0.16992 0.9994 0.0
O178 O 0.78403 0.1372 0.97629 0.0
C179 C 0.81773 0.10636 0.01154 0.0
O180 O 0.80656 0.16963 0.04422 0.0
O181 O 0.78026 0.14427 0.05343 0.0
In182 In 0.18814 0.54185 0.26818 0.0
O183 O 0.21581 0.52918 0.28676 0.0
O184 O 0.19042 0.50199 0.26593 0.0
C185 C 0.21162 0.58682 0.26739 0.0
C186 C 0.16777 0.52845 0.22347 0.0
C187 C 0.16265 0.55096 0.30368 0.0
O188 O 0.22016 0.56849 0.26486 0.0
O189 O 0.19129 0.58229 0.26964 0.0
O190 O 0.15484 0.5421 0.28246 0.0
O191 O 0.18328 0.55466 0.30715 0.0
C192 C 0.20802 0.50684 0.2795 0.0
O193 O 0.15867 0.52286 0.24136 0.0
O194 O 0.18759 0.53994 0.22793 0.0
In195 In 0.82442 0.89224 0.53693 0.0
O196 O 0.81413 0.86004 0.55678 0.0
O197 O 0.82989 0.89416 0.57745 0.0
C198 C 0.82323 0.86908 0.4904 0.0
C199 C 0.79208 0.91814 0.53511 0.0
C200 C 0.86746 0.91576 0.54283 0.0
O201 O 0.81561 0.85785 0.50623 0.0
O202 O 0.83089 0.8914 0.498 0.0
O203 O 0.85192 0.92636 0.54738 0.0
O204 O 0.86142 0.89296 0.53609 0.0
C205 C 0.82128 0.87226 0.57736 0.0
O206 O 0.81234 0.92746 0.53713 0.0
O207 O 0.78778 0.89552 0.53426 0.0
In208 In 0.93773 0.06822 0.27747 0.0
O209 O 0.96881 0.07772 0.25363 0.0
O210 O 0.94108 0.0538 0.23527 0.0
C211 C 0.96188 0.07003 0.32434 0.0
C212 C 0.91452 0.10957 0.27835 0.0
C213 C 0.91242 0.01911 0.27301 0.0
O214 O 0.97032 0.06937 0.30467 0.0
O215 O 0.94202 0.07169 0.32092 0.0
O216 O 0.90481 0.03601 0.26635 0.0
O217 O 0.93234 0.02672 0.28121 0.0
C218 C 0.96055 0.06482 0.23345 0.0
O219 O 0.90646 0.0889 0.28304 0.0
O220 O 0.93428 0.10991 0.27386 0.0
In221 In 0.29949 0.65618 0.51895 0.0
O222 O 0.33243 0.64994 0.53301 0.0
O223 O 0.31181 0.62134 0.50792 0.0
C224 C 0.25665 0.63411 0.50831 0.0
C225 C 0.29906 0.68245 0.56279 0.0
C226 C 0.3068 0.6816 0.48383 0.0
O227 O 0.26989 0.62529 0.51975 0.0
O228 O 0.26508 0.6538 0.5023 0.0
O229 O 0.30515 0.69133 0.50497 0.0
O230 O 0.30591 0.65908 0.4806 0.0
C231 C 0.32965 0.62867 0.52115 0.0
O232 O 0.31332 0.68875 0.54907 0.0
O233 O 0.28545 0.66274 0.55459 0.0
In234 In 0.43693 0.56641 0.77727 0.0
O235 O 0.4053 0.5865 0.78308 0.0
O236 O 0.43328 0.60848 0.77541 0.0
C237 C 0.41169 0.51741 0.77371 0.0
C238 C 0.45943 0.56309 0.7329 0.0
C239 C 0.46186 0.56794 0.82348 0.0
O240 O 0.40445 0.53368 0.76536 0.0
O241 O 0.43116 0.5256 0.78321 0.0
O242 O 0.4697 0.56627 0.80344 0.0
O243 O 0.4423 0.57077 0.8207 0.0
C244 C 0.41337 0.60766 0.77956 0.0
O245 O 0.46752 0.57657 0.75287 0.0
O246 O 0.44026 0.55147 0.73509 0.0
In247 In 0.68738 0.04846 0.7717 0.0
O248 O 0.71711 0.03362 0.78185 0.0
O249 O 0.68668 1.00833 0.7716 0.0
C250 C 0.70955 0.09423 0.77207 0.0
C251 C 0.66353 0.03782 0.72866 0.0
C252 C 0.66874 0.05582 0.81276 0.0
O253 O 0.71817 0.07614 0.7667 0.0
O254 O 0.68968 0.08903 0.77614 0.0
O255 O 0.65806 0.04323 0.79371 0.0
O256 O 0.68883 0.06393 0.81118 0.0
C257 C 0.70673 0.01186 0.77897 0.0
O258 O 0.6551 0.04105 0.74808 0.0
O259 O 0.68409 0.03967 0.73084 0.0
In260 In 0.79635 0.68639 0.01174 0.0
O261 O 0.8113 0.65292 1.00441 0.0
O262 O 0.83311 0.68634 0.02002 0.0
C263 C 0.75369 0.66053 0.00667 0.0
C264 C 0.7993 0.70864 0.05874 0.0
C265 C 0.80175 0.7074 0.97211 0.0
O266 O 0.76996 0.65071 1.00535 0.0
O267 O 0.7588 0.68339 0.0102 0.0
O268 O 0.80269 0.71975 0.99287 0.0
O269 O 0.7984 0.68489 0.97148 0.0
C270 C 0.83071 0.66373 0.01264 0.0
O271 O 0.79677 0.71975 0.04195 0.0
O272 O 0.80057 0.6869 0.05178 0.0
In273 In 0.92967 0.54999 0.79976 0.0
O274 O 0.89885 0.56597 0.80082 0.0
O275 O 0.92793 0.58734 0.79197 0.0
C276 C 0.90101 0.50733 0.7976 0.0
C277 C 0.95642 0.54619 0.76463 0.0
C278 C 0.95633 0.55464 0.83989 0.0
O279 O 0.90472 0.51666 0.77947 0.0
O280 O 0.91127 0.51986 0.8169 0.0
O281 O 0.95543 0.53849 0.82161 0.0
O282 O 0.94346 0.56879 0.83823 0.0
C283 C 0.90781 0.58536 0.79461 0.0
O284 O 0.96125 0.56237 0.78326 0.0
O285 O 0.93781 0.53212 0.7634 0.0
In286 In 0.83563 0.43912 0.52215 0.0
O287 O 0.84986 0.40847 0.53189 0.0
O288 O 0.82852 0.42275 0.55522 0.0
C289 C 0.82864 0.41184 0.47809 0.0
C290 C 0.80282 0.46336 0.52907 0.0
C291 C 0.8759 0.46814 0.52625 0.0
O292 O 0.81885 0.40503 0.49515 0.0
O293 O 0.84107 0.43273 0.48308 0.0
O294 O 0.86309 0.46271 0.50729 0.0
O295 O 0.86791 0.46007 0.54372 0.0
C296 C 0.84031 0.40743 0.55051 0.0
O297 O 0.82258 0.47295 0.53676 0.0
O298 O 0.79972 0.4418 0.51793 0.0
In299 In 0.68084 0.51256 0.27305 0.0
O300 O 0.71187 0.49155 0.26706 0.0
O301 O 0.68357 0.47007 0.27457 0.0
C302 C 0.70603 0.5617 0.27846 0.0
C303 C 0.65675 0.51249 0.22664 0.0
C304 C 0.65945 0.51611 0.31811 0.0
O305 O 0.71456 0.54347 0.27864 0.0
O306 O 0.68528 0.5554 0.27654 0.0
O307 O 0.65016 0.50459 0.29778 0.0
O308 O 0.67934 0.52553 0.316 0.0
C309 C 0.7034 0.47042 0.27033 0.0
O310 O 0.64769 0.50808 0.24513 0.0
O311 O 0.67734 0.51514 0.2309 0.0
Gd312 Gd 0.08504 0.05936 0.04144 0.0
Gd313 Gd 0.03578 0.02066 0.01166 0.0
C314 C 0.02433 0.93802 1.0046 0.0
C315 C 0.02263 0.92429 0.96181 0.0
C316 C 0.02785 0.9673 0.97877 0.0
C317 C 0.02786 0.96228 1.00135 0.0
C318 C 0.02457 0.94832 0.95865 0.0
C319 C 0.0225 0.91913 0.98479 0.0
C320 C 0.02164 0.93337 0.02749 0.0
C321 C 0.02143 0.95254 0.04615 0.0
N322 N 0.0293 0.98096 0.01996 0.0
C323 C 0.02488 0.97626 0.04196 0.0
H324 H 0.02476 0.99074 0.05671 0.0
C325 C 0.02557 0.99595 0.95439 0.0
N326 N 0.02916 0.9906 0.97644 0.0
C327 C 0.02247 0.97783 0.93389 0.0
C328 C 0.02235 0.95395 0.936 0.0
H329 H 0.02581 0.01441 0.95256 0.0
H330 H 0.0201 0.90043 0.98697 0.0
H331 H 0.09497 0.09354 0.99952 0.0
H332 H 0.01893 0.91501 0.03076 0.0
H333 H 0.01872 0.94912 0.06382 0.0
H334 H 0.02037 0.90949 0.9466 0.0
H335 H 0.09939 0.06164 0.09993 0.0
H336 H 0.09663 0.16722 0.03134 0.0
H337 H 0.09889 0.13632 0.99606 0.0
H338 H 0.09666 0.16537 0.11432 0.0
H339 H 0.02023 0.98231 0.91648 0.0
H340 H 0.0198 0.9399 0.9201 0.0
H341 H 0.09505 0.17775 0.07548 0.0
H342 H 0.10435 0.09118 0.1377 0.0
N343 N 0.08921 0.09972 0.03613 0.0
C344 C 0.09477 0.14839 0.03295 0.0
C345 C 0.09614 0.13103 0.01303 0.0
C346 C 0.09236 0.14148 0.05502 0.0
C347 C 0.09004 0.11672 0.05617 0.0
C348 C 0.09379 0.10672 0.01506 0.0
N349 N 0.09164 0.0863 0.07864 0.0
C350 C 0.09126 0.10979 0.0781 0.0
C351 C 0.1004 0.09657 0.1211 0.0
C352 C 0.09835 0.12032 0.12103 0.0
C353 C 0.09745 0.07983 0.09961 0.0
C354 C 0.09436 0.12739 0.09933 0.0
H355 H 0.10085 0.13331 0.1377 0.0
O356 O 0.11256 0.0412 0.04175 0.0
O357 O 0.06794 0.01987 0.03053 0.0
O358 O 0.03047 0.03182 0.05225 0.0
O359 O 0.06022 0.06237 0.07034 0.0
O360 O 0.0825 0.03172 0.06519 0.0
O361 O 0.11855 0.07936 0.04125 0.0
O362 O 0.00677 0.02679 0.99294 0.0
O363 O 0.05284 0.0602 0.02263 0.0
O364 O 0.08914 0.05075 1.0003 0.0
O365 O 0.06213 0.01633 0.98462 0.0
O366 O 0.0381 0.04872 0.98829 0.0
O367 O 1.00467 0.01617 0.0272 0.0
C368 C 0.07186 0.01282 0.0501 0.0
C369 C 0.09462 0.15168 0.09819 0.0
C370 C 0.09367 0.15873 0.07606 0.0
C371 C 0.12731 0.06104 0.04297 0.0
C372 C 0.14662 0.06539 0.06049 0.0
C373 C 0.15044 0.08441 0.08045 0.0
C374 C 0.16199 0.05074 0.05655 0.0
C375 C 0.18114 0.05494 0.07231 0.0
C376 C 0.16926 0.08851 0.09633 0.0
C377 C 0.18456 0.07393 0.09232 0.0
C378 C 0.04033 0.04854 0.07138 0.0
C379 C 0.04857 0.06755 1.00337 0.0
C380 C 0.99414 0.02142 0.00929 0.0
C381 C 0.97198 1.00671 1.00122 0.0
C382 C 0.96806 0.98169 0.99228 0.0
C383 C 0.95439 0.0184 1.00253 0.0
C384 C 0.93274 1.00546 0.99464 0.0
C385 C 0.94655 0.96855 0.98468 0.0
C386 C 0.92896 0.98031 0.98581 0.0
C387 C 0.08063 0.03205 0.98229 0.0
H388 H 0.13907 0.09627 0.08366 0.0
H389 H 0.15927 0.03646 0.04081 0.0
H390 H 0.17209 0.10315 0.11172 0.0
H391 H 0.19902 0.07746 0.10492 0.0
H392 H 0.98153 0.97242 0.9912 0.0
H393 H 0.95766 0.03769 0.0099 0.0
H394 H 0.94352 0.94922 0.97774 0.0
H395 H 0.91252 0.96981 0.97942 0.0
Gd396 Gd 0.30192 0.80904 0.30096 0.0
Gd397 Gd 0.31971 0.77407 0.24824 0.0
C398 C 0.27872 0.71368 0.18987 0.0
C399 C 0.28024 0.67739 0.20554 0.0
C400 C 0.29979 0.71713 0.22768 0.0
C401 C 0.292 0.72794 0.21031 0.0
C402 C 0.2944 0.6916 0.22518 0.0
C403 C 0.27243 0.68841 0.18789 0.0
C404 C 0.27277 0.72514 0.17168 0.0
C405 C 0.28066 0.75008 0.17375 0.0
N406 N 0.29849 0.75232 0.21267 0.0
C407 C 0.29378 0.76342 0.19434 0.0
H408 H 0.29969 0.78278 0.19598 0.0
C409 C 0.32358 0.72094 0.26233 0.0
N410 N 0.31344 0.73145 0.24646 0.0
C411 C 0.31873 0.69575 0.26057 0.0
C412 C 0.30381 0.68102 0.24215 0.0
H413 H 0.335 0.73157 0.27694 0.0
H414 H 0.26203 0.67719 0.17248 0.0
H415 H 0.31802 0.79746 0.35381 0.0
H416 H 0.26262 0.71482 0.15571 0.0
H417 H 0.27656 0.75908 0.15959 0.0
H418 H 0.2757 0.65781 0.20353 0.0
H419 H 0.2897 0.85398 0.27305 0.0
H420 H 0.35563 0.86348 0.39688 0.0
H421 H 0.33963 0.81949 0.39156 0.0
H422 H 0.34847 0.92318 0.35027 0.0
H423 H 0.32642 0.68772 0.2736 0.0
H424 H 0.30003 0.66152 0.24092 0.0
H425 H 0.3593 0.90192 0.38108 0.0
H426 H 0.30018 0.89789 0.27823 0.0
N427 N 0.32193 0.82859 0.33773 0.0
C428 C 0.34609 0.8539 0.38029 0.0
C429 C 0.33702 0.82911 0.3774 0.0
C430 C 0.34203 0.86624 0.3621 0.0
C431 C 0.32947 0.85296 0.3408 0.0
C432 C 0.32468 0.81672 0.35604 0.0
N433 N 0.31001 0.85177 0.30368 0.0
C434 C 0.32328 0.8649 0.32337 0.0
C435 C 0.30691 0.88884 0.291 0.0
C436 C 0.32157 0.90234 0.31022 0.0
C437 C 0.30101 0.86357 0.28817 0.0
C438 C 0.32963 0.8905 0.32695 0.0
H439 H 0.32611 0.92192 0.31232 0.0
O440 O 0.26625 0.79684 0.2965 0.0
O441 O 0.29855 0.77324 0.27765 0.0
O442 O 0.28471 0.77892 0.23901 0.0
O443 O 0.28219 0.81268 0.26726 0.0
O444 O 0.29955 0.77344 0.3137 0.0
O445 O 0.28233 0.81857 0.32984 0.0
O446 O 0.35486 0.77513 0.25084 0.0
O447 O 0.32373 0.80997 0.27202 0.0
O448 O 0.33611 0.80333 0.31212 0.0
O449 O 0.3417 0.77301 0.28152 0.0
O450 O 0.3229 0.81 0.23604 0.0
O451 O 0.33782 0.776 0.21731 0.0
C452 C 0.2972 0.75982 0.29284 0.0
C453 C 0.34322 0.90358 0.34745 0.0
C454 C 0.34941 0.89149 0.36499 0.0
C455 C 0.26403 0.80513 0.31857 0.0
C456 C 0.25124 0.78757 0.33107 0.0
C457 C 0.22837 0.78025 0.32585 0.0
C458 C 0.26189 0.77697 0.34724 0.0
C459 C 0.24999 0.75901 0.35808 0.0
C460 C 0.21633 0.7625 0.33667 0.0
C461 C 0.22703 0.75185 0.35265 0.0
C462 C 0.27498 0.79701 0.24686 0.0
C463 C 0.32566 0.82352 0.25693 0.0
C464 C 0.35682 0.78021 0.2297 0.0
C465 C 0.37234 0.80307 0.22816 0.0
C466 C 0.3883 0.81527 0.24713 0.0
C467 C 0.36951 0.81429 0.20867 0.0
C468 C 0.38152 0.83779 0.20849 0.0
C469 C 0.40062 0.83849 0.24685 0.0
C470 C 0.39709 0.84987 0.2278 0.0
C471 C 0.34737 0.78709 0.30306 0.0
H472 H 0.21988 0.7881 0.31326 0.0
H473 H 0.27955 0.78236 0.35104 0.0
H474 H 0.19865 0.75691 0.3326 0.0
H475 H 0.21732 0.73827 0.36095 0.0
H476 H 0.39083 0.80719 0.26248 0.0
H477 H 0.35703 0.80526 0.19411 0.0
H478 H 0.41264 0.8479 0.26167 0.0
H479 H 0.40651 0.86805 0.22813 0.0
Gd480 Gd 0.53379 0.0354 0.5425 0.0
Gd481 Gd 0.58756 0.0481 0.51958 0.0
C482 C 0.62515 0.12497 0.51759 0.0
C483 C 0.62418 0.12443 0.47506 0.0
C484 C 0.60748 0.08828 0.4896 0.0
C485 C 0.61327 0.10061 0.51279 0.0
C486 C 0.61318 0.09989 0.47043 0.0
C487 C 0.63016 0.13696 0.49862 0.0
C488 C 0.63214 0.13634 0.54127 0.0
C489 C 0.62789 0.12316 0.55935 0.0
N490 N 0.6083 0.08839 0.53064 0.0
C491 C 0.61617 0.099 0.55366 0.0
H492 H 0.613 0.08923 0.56792 0.0
C493 C 0.5929 0.05094 0.46323 0.0
N494 N 0.59706 0.06456 0.48581 0.0
C495 C 0.5981 0.06167 0.44362 0.0
C496 C 0.60808 0.08632 0.44721 0.0
H497 H 0.58504 0.03192 0.46025 0.0
H498 H 0.63909 0.15573 0.50196 0.0
H499 H 0.5084 0.99407 0.4944 0.0
H500 H 0.64123 0.15504 0.54572 0.0
H501 H 0.63356 0.13163 0.5777 0.0
H502 H 0.62855 0.13373 0.46058 0.0
H503 H 0.53496 0.0523 0.60161 0.0
H504 H 0.48068 0.92822 0.51687 0.0
H505 H 0.48811 0.95152 0.48476 0.0
H506 H 0.49255 0.95031 0.60203 0.0
H507 H 0.59436 0.05092 0.42575 0.0
H508 H 0.61215 0.09457 0.43199 0.0
H509 H 0.48264 0.92785 0.56072 0.0
H510 H 0.52517 0.03371 0.63625 0.0
N511 N 0.51326 0.99501 0.53167 0.0
C512 C 0.48967 0.94697 0.52125 0.0
C513 C 0.49377 0.96008 0.50309 0.0
C514 C 0.49655 0.95849 0.5449 0.0
C515 C 0.50829 0.9829 0.54959 0.0
C516 C 0.50534 0.98431 0.50869 0.0
N517 N 0.52386 0.01928 0.57634 0.0
C518 C 0.51374 0.99548 0.57272 0.0
C519 C 0.52192 0.02272 0.61848 0.0
C520 C 0.51233 0.99798 0.61509 0.0
C521 C 0.52739 0.0332 0.59879 0.0
C522 C 0.50781 0.98409 0.59197 0.0
H523 H 0.50805 0.98991 0.63036 0.0
O524 O 0.51252 0.05847 0.558 0.0
O525 O 0.56141 0.0649 0.53619 0.0
O526 O 0.59005 0.04928 0.55937 0.0
O527 O 0.55793 0.02453 0.56718 0.0
O528 O 0.54781 0.07119 0.5678 0.0
O529 O 0.50434 0.03821 0.52197 0.0
O530 O 0.60853 0.02507 0.50331 0.0
O531 O 0.56 0.01852 0.52599 0.0
O532 O 0.53166 0.03414 0.5027 0.0
O533 O 0.56341 0.06005 0.49586 0.0
O534 O 0.57322 0.01257 0.49407 0.0
O535 O 0.61722 0.0449 0.53947 0.0
C536 C 0.56218 0.08071 0.55506 0.0
C537 C 0.49707 0.95946 0.58748 0.0
C538 C 0.49145 0.94667 0.56397 0.0
C539 C 0.4984 0.05291 0.53914 0.0
C540 C 0.47489 0.04774 0.543 0.0
C541 C 0.46554 0.02682 0.55136 0.0
C542 C 0.46151 0.06354 0.53766 0.0
C543 C 0.43877 0.05824 0.54033 0.0
C544 C 0.44314 0.02158 0.55427 0.0
C545 C 0.42983 0.03707 0.54875 0.0
C546 C 0.57892 0.03545 0.57272 0.0
C547 C 0.55907 1.00288 0.50692 0.0
C548 C 0.62289 0.03033 0.52195 0.0
C549 C 0.64632 0.03543 0.51769 0.0
C550 C 0.65576 0.05691 0.51031 0.0
C551 C 0.65953 0.01898 0.52161 0.0
C552 C 0.68221 0.02423 0.51858 0.0
C553 C 0.67809 0.06209 0.50703 0.0
C554 C 0.69124 0.04599 0.51121 0.0
C555 C 0.54251 0.04894 0.49004 0.0
H556 H 0.47555 0.0145 0.55553 0.0
H557 H 0.4687 0.07962 0.53098 0.0
H558 H 0.43602 1.0054 0.56077 0.0
H559 H 0.41252 0.03258 0.55132 0.0
H560 H 0.6459 0.06971 0.50719 0.0
H561 H 0.65229 1.00243 0.52749 0.0
H562 H 0.68528 0.07872 0.50132 0.0
H563 H 0.7085 0.05047 0.50844 0.0
Gd564 Gd 0.33563 0.2816 0.78284 0.0
Gd565 Gd 0.28149 0.29612 0.77332 0.0
C566 C 0.25236 0.29371 0.69749 0.0
C567 C 0.25165 0.33601 0.69828 0.0
C568 C 0.26488 0.32345 0.73377 0.0
C569 C 0.26149 0.29989 0.72148 0.0
C570 C 0.25922 0.34165 0.72262 0.0
C571 C 0.24825 0.31204 0.68571 0.0
C572 C 0.24659 0.26919 0.68649 0.0
C573 C 0.24881 0.25154 0.69979 0.0
N574 N 0.26512 0.28265 0.73365 0.0
C575 C 0.25775 0.25862 0.7236 0.0
H576 H 0.25943 0.24471 0.7335 0.0
C577 C 0.27125 0.34987 0.7713 0.0
N578 N 0.27168 0.32803 0.75733 0.0
C579 C 0.26587 0.36857 0.76108 0.0
C580 C 0.26027 0.3646 0.73653 0.0
H581 H 0.27572 0.3531 0.79028 0.0
H582 H 0.24155 0.30771 0.6672 0.0
H583 H 0.3581 0.33377 0.82142 0.0
H584 H 0.23959 0.26366 0.66808 0.0
H585 H 0.24375 0.23247 0.6917 0.0
H586 H 0.24751 0.34981 0.68929 0.0
H587 H 0.34053 0.22411 0.76741 0.0
H588 H 0.37841 0.31658 0.88758 0.0
H589 H 0.3742 0.347 0.86304 0.0
H590 H 0.36945 0.23017 0.86877 0.0
H591 H 0.26612 0.38603 0.77212 0.0
H592 H 0.25601 0.37907 0.72865 0.0
H593 H 0.37607 0.27275 0.88972 0.0
H594 H 0.3497 0.19165 0.78664 0.0
N595 N 0.35229 0.29602 0.82229 0.0
C596 C 0.37125 0.31062 0.86925 0.0
C597 C 0.36899 0.32783 0.85543 0.0
C598 C 0.36522 0.28592 0.85889 0.0
C599 C 0.3559 0.27916 0.83498 0.0
C600 C 0.35981 0.32018 0.83174 0.0
N601 N 0.34511 0.2501 0.79979 0.0
C602 C 0.35213 0.25532 0.82332 0.0
C603 C 0.3503 0.20943 0.79722 0.0
C604 C 0.35612 0.21409 0.82177 0.0
C605 C 0.34517 0.22786 0.78639 0.0
C606 C 0.35762 0.23743 0.83506 0.0
H607 H 0.36022 0.19984 0.83011 0.0
O608 O 0.35697 0.26926 0.75669 0.0
O609 O 0.30993 0.28548 0.75576 0.0
O610 O 0.27741 0.25482 0.77327 0.0
O611 O 0.31025 0.24848 0.78995 0.0
O612 O 0.32329 0.25497 0.74888 0.0
O613 O 0.36802 0.3038 0.78024 0.0
O614 O 0.26004 0.30736 0.79987 0.0
O615 O 0.30727 0.29236 0.80039 0.0
O616 O 0.33976 0.32275 0.78183 0.0
O617 O 0.3066 0.32946 0.76629 0.0
O618 O 0.29379 0.32272 0.80736 0.0
O619 O 0.24917 0.27346 0.77529 0.0
C620 C 0.30983 0.26639 0.74056 0.0
C621 C 0.36544 0.24372 0.85933 0.0
C622 C 0.36921 0.26796 0.87125 0.0
C623 C 0.37318 0.28802 0.76346 0.0
C624 C 0.39547 0.28297 0.76648 0.0
C625 C 0.40074 0.27171 0.78513 0.0
C626 C 0.41153 0.2891 0.75075 0.0
C627 C 0.43275 0.28401 0.75383 0.0
C628 C 0.42133 0.26624 0.78801 0.0
C629 C 0.43711 0.27218 0.77255 0.0
C630 C 0.28889 0.24053 0.78213 0.0
C631 C 0.3074 0.31143 0.81562 0.0
C632 C 0.2439 0.28865 0.79254 0.0
C633 C 0.22158 0.29366 0.78978 0.0
C634 C 0.21617 0.3052 0.77141 0.0
C635 C 0.2056 0.28717 0.80549 0.0
C636 C 0.18434 0.29223 0.80269 0.0
C637 C 0.19554 0.31063 0.7688 0.0
C638 C 0.17985 0.30437 0.78426 0.0
C639 C 0.32813 0.33715 0.77338 0.0
H640 H 0.38889 0.26705 0.79746 0.0
H641 H 0.40762 0.29808 0.73648 0.0
H642 H 0.4251 0.25728 0.80234 0.0
H643 H 0.45279 0.26726 0.77522 0.0
H644 H 0.22795 0.31012 0.75908 0.0
H645 H 0.20963 0.27795 0.81953 0.0
H646 H 0.19167 0.31982 0.7547 0.0
H647 H 0.16416 0.30931 0.78183 0.0
Gd648 Gd 0.06658 0.01604 0.51042 0.0
Gd649 Gd 0.05298 0.06769 0.5416 0.0
C650 C 0.05621 0.07995 0.62267 0.0
C651 C 0.01764 0.07531 0.62934 0.0
C652 C 0.02853 0.07231 0.58902 0.0
C653 C 0.05045 0.07576 0.59783 0.0
C654 C 0.01202 0.07266 0.60481 0.0
C655 C 0.03967 0.07896 0.63825 0.0
C656 C 0.07847 0.08602 0.63126 0.0
C657 C 0.09438 0.08886 0.61535 0.0
N658 N 0.06622 0.07685 0.58238 0.0
C659 C 0.08796 0.08457 0.59092 0.0
H660 H 0.10071 0.08697 0.57921 0.0
C661 C 1.00259 0.06992 0.55632 0.0
N662 N 0.0235 0.07006 0.56519 0.0
C663 C 0.98576 0.07014 0.57131 0.0
C664 C 0.99041 0.07112 0.59559 0.0
H665 H 0.9986 0.06908 0.53761 0.0
H666 H 0.04382 0.0818 0.65732 0.0
H667 H 0.01953 0.99788 0.47206 0.0
H668 H 0.08353 0.08935 0.65019 0.0
H669 H 0.11165 0.09423 0.62187 0.0
H670 H 1.00514 0.07533 0.64167 0.0
H671 H 0.11991 0.01061 0.51519 0.0
H672 H 0.038 0.99535 0.40148 0.0
H673 H 0.00929 0.99084 0.42921 0.0
H674 H 0.11619 1.00696 0.41154 0.0
H675 H 0.96918 0.06948 0.56409 0.0
H676 H 0.97732 0.07134 0.60716 0.0
H677 H 0.07792 1.00204 0.39515 0.0
H678 H 0.14982 1.00935 0.48943 0.0
N679 N 0.05414 1.00752 0.46948 0.0
C680 C 0.04273 0.99859 0.42047 0.0
C681 C 0.02648 0.99595 0.43604 0.0
C682 C 0.06487 1.0042 0.42948 0.0
C683 C 0.07018 1.00821 0.45438 0.0
C684 C 0.03249 1.00014 0.46056 0.0
N685 N 0.09623 0.01231 0.48743 0.0
C686 C 0.09182 0.01067 0.4636 0.0
C687 C 0.13364 0.00993 0.48198 0.0
C688 C 0.12974 0.00984 0.45776 0.0
C689 C 0.11655 0.01074 0.49658 0.0
C690 C 0.10855 0.00964 0.44817 0.0
H691 H 0.14301 1.00908 0.44648 0.0
O692 O 0.06566 0.97839 0.4946 0.0
O693 O 0.06694 0.03567 0.54896 0.0
O694 O 0.08975 0.07535 0.53889 0.0
O695 O 0.09373 0.04715 0.50627 0.0
O696 O 0.09416 0.02262 0.54071 0.0
O697 O 0.05818 0.98756 0.53085 0.0
O698 O 0.0651 0.09742 0.52349 0.0
O699 O 0.05248 0.0481 0.50315 0.0
O700 O 0.02988 1.00863 0.51279 0.0
O701 O 0.02701 0.03567 0.54656 0.0
O702 O 0.02535 0.06124 0.51141 0.0
O703 O 0.05036 0.10447 0.55633 0.0
C704 C 0.08563 0.03332 0.55844 0.0
C705 C 0.10349 1.00747 0.42359 0.0
C706 C 0.0817 1.00471 0.41426 0.0
C707 C 0.0582 0.97019 0.51295 0.0
C708 C 0.03869 0.94995 0.50873 0.0
C709 C 0.02508 0.9435 0.48714 0.0
C710 C 0.03342 0.93714 0.52704 0.0
C711 C 0.01475 0.91799 0.52401 0.0
C712 C 0.00641 0.9246 0.48407 0.0
C713 C 1.00125 0.91186 0.50235 0.0
C714 C 0.10107 0.06781 0.52144 0.0
C715 C 0.03383 0.05055 0.49367 0.0
C716 C 0.05771 0.11319 0.53819 0.0
C717 C 0.04467 0.12804 0.52744 0.0
C718 C 0.02255 0.12686 0.5316 0.0
C719 C 0.05445 0.14361 0.5128 0.0
C720 C 0.04228 0.15789 0.5023 0.0
C721 C 0.01043 0.14094 0.5213 0.0
C722 C 0.02016 0.15635 0.50679 0.0
C723 C 0.01928 0.0153 0.53113 0.0
H724 H 0.02874 0.95307 0.47272 0.0
H725 H 0.04412 0.94187 0.54356 0.0
H726 H 0.9959 0.91981 0.46746 0.0
H727 H 0.98668 0.89729 0.49959 0.0
H728 H 0.01461 0.1152 0.54288 0.0
H729 H 0.07146 0.14439 0.5094 0.0
H730 H 0.99343 0.14001 0.5247 0.0
H731 H 0.01044 0.16739 0.49939 0.0
Gd732 Gd 0.28115 0.76832 0.78234 0.0
Gd733 Gd 0.32976 0.80557 0.77371 0.0
C734 C 0.33217 0.87867 0.75144 0.0
C735 C 0.3456 0.87204 0.71244 0.0
C736 C 0.34039 0.83986 0.73542 0.0
C737 C 0.3328 0.85462 0.75333 0.0
C738 C 0.34723 0.84854 0.71493 0.0
C739 C 0.33811 0.88709 0.73068 0.0
C740 C 0.3263 0.89382 0.77079 0.0
C741 C 0.32192 0.88513 0.79161 0.0
N742 N 0.32743 0.84603 0.77328 0.0
C743 C 0.32278 0.86117 0.79265 0.0
H744 H 0.31936 0.85484 0.80893 0.0
C745 C 0.35171 0.80323 0.72246 0.0
N746 N 0.34208 0.8174 0.73855 0.0
C747 C 0.35856 0.81097 0.70179 0.0
C748 C 0.35608 0.83362 0.69786 0.0
H749 H 0.35368 0.78565 0.72518 0.0
H750 H 0.33751 0.90541 0.72882 0.0
H751 H 0.29386 0.71777 0.75221 0.0
H752 H 0.32563 0.9124 0.77004 0.0
H753 H 0.31777 0.89683 0.80686 0.0
H754 H 0.35062 0.87895 0.69675 0.0
H755 H 0.25007 0.78843 0.82477 0.0
H756 H 0.28645 0.66434 0.79604 0.0
H757 H 0.29608 0.67698 0.75828 0.0
H758 H 0.25479 0.70075 0.86327 0.0
H759 H 0.36572 0.79944 0.68888 0.0
H760 H 0.36149 0.83962 0.68188 0.0
H761 H 0.27152 0.6736 0.83544 0.0
H762 H 0.23504 0.77664 0.86051 0.0
N763 N 0.28394 0.72887 0.7866 0.0
C764 C 0.28557 0.68241 0.79354 0.0
C765 C 0.29094 0.68944 0.77219 0.0
C766 C 0.27816 0.69838 0.81098 0.0
C767 C 0.27725 0.7217 0.80682 0.0
C768 C 0.28981 0.71274 0.7689 0.0
N769 N 0.26557 0.75844 0.81688 0.0
C770 C 0.2677 0.73691 0.8224 0.0
C771 C 0.24441 0.76543 0.85011 0.0
C772 C 0.24766 0.74413 0.85682 0.0
C773 C 0.25321 0.77216 0.82981 0.0
C774 C 0.25902 0.72931 0.84268 0.0
H775 H 0.24071 0.7389 0.87249 0.0
O776 O 0.24936 0.7743 0.77042 0.0
O777 O 0.29305 0.80537 0.77144 0.0
O778 O 0.32191 0.81422 0.81204 0.0
O779 O 0.29783 0.78055 0.81923 0.0
O780 O 0.27187 0.80438 0.797 0.0
O781 O 0.25622 0.7388 0.76094 0.0
O782 O 0.36415 0.80371 0.77504 0.0
O783 O 0.31822 0.76852 0.78442 0.0
O784 O 0.29129 0.75788 0.74557 0.0
O785 O 0.31025 0.79386 0.73785 0.0
O786 O 0.34001 0.77012 0.75944 0.0
O787 O 0.35342 0.82983 0.80131 0.0
C788 C 0.28173 0.81875 0.78416 0.0
C789 C 0.26116 0.70676 0.84765 0.0
C790 C 0.2707 0.69132 0.83182 0.0
C791 C 0.24128 0.75156 0.76151 0.0
C792 C 0.21984 0.7413 0.76918 0.0
C793 C 0.21713 0.72218 0.78177 0.0
C794 C 0.20195 0.75168 0.76464 0.0
C795 C 0.18136 0.74315 0.77245 0.0
C796 C 0.1968 0.71371 0.78974 0.0
C797 C 0.179 0.72408 0.78514 0.0
C798 C 0.31193 0.80133 0.82678 0.0
C799 C 0.33012 0.75554 0.77201 0.0
C800 C 0.37004 0.82176 0.79303 0.0
C801 C 0.39012 0.83964 0.79149 0.0
C802 C 0.38959 0.86169 0.78437 0.0
C803 C 0.41036 0.83433 0.7976 0.0
C804 C 0.43014 0.85098 0.79705 0.0
C805 C 0.40924 0.87829 0.78357 0.0
C806 C 0.42945 0.87308 0.79002 0.0
C807 C 0.29867 0.7716 0.73043 0.0
H808 H 0.23067 0.71387 0.78558 0.0
H809 H 0.20423 0.76673 0.75531 0.0
H810 H 0.19481 0.69899 0.79945 0.0
H811 H 0.16331 0.71688 0.79115 0.0
H812 H 0.37412 0.86616 0.77966 0.0
H813 H 0.41066 0.81742 0.80344 0.0
H814 H 0.40879 0.89532 0.77813 0.0
H815 H 0.44449 0.88625 0.78948 0.0
Gd816 Gd 0.53593 0.06532 0.98363 0.0
Gd817 Gd 0.56641 0.04913 0.03379 0.0
C818 C 0.64129 0.07243 0.04796 0.0
C819 C 0.65219 0.03367 0.04153 0.0
C820 C 0.61356 0.03509 0.03657 0.0
C821 C 0.6191 0.0601 0.04202 0.0
C822 C 0.62998 0.02152 0.03673 0.0
C823 C 0.65783 0.0591 0.04729 0.0
C824 C 0.64611 0.09772 0.05502 0.0
C825 C 0.62897 0.11 0.05638 0.0
N826 N 0.60268 0.07233 0.04263 0.0
C827 C 0.60723 0.09695 0.05015 0.0
H828 H 0.59419 0.1067 0.05114 0.0
C829 C 0.58551 0.99947 0.03109 0.0
N830 N 0.59194 0.02403 0.03274 0.0
C831 C 0.60115 0.98514 0.03056 0.0
C832 C 0.62351 0.99619 0.03305 0.0
H833 H 0.56825 0.99095 0.02972 0.0
H834 H 0.67498 0.06825 0.05161 0.0
H835 H 0.55323 0.04898 0.92962 0.0
H836 H 0.66294 0.10787 0.05972 0.0
H837 H 0.63249 0.12954 0.06203 0.0
H838 H 0.66507 0.02359 0.04157 0.0
H839 H 0.48898 0.07898 1.00506 0.0
H840 H 0.50231 0.99323 0.88763 0.0
H841 H 0.53998 0.01887 0.89259 0.0
H842 H 0.44053 0.99542 0.93291 0.0
H843 H 0.59594 0.96563 0.02849 0.0
H844 H 0.63561 0.98509 0.03297 0.0
H845 H 0.46533 0.98402 0.90323 0.0
H846 H 0.44954 0.06088 0.99999 0.0
N847 N 0.52372 0.03975 0.94607 0.0
C848 C 0.5081 1.00634 0.90401 0.0
C849 C 0.52932 0.02085 0.90669 0.0
C850 C 0.49418 0.00987 0.92196 0.0
C851 C 0.50255 0.02714 0.94295 0.0
C852 C 0.53674 0.03796 0.9277 0.0
N853 N 0.49707 0.05185 0.97842 0.0
C854 C 0.48871 0.03344 0.9597 0.0
C855 C 0.46042 0.05267 0.98878 0.0
C856 C 0.45189 0.03223 0.97108 0.0
C857 C 0.48306 0.06261 0.99189 0.0
C858 C 0.46597 0.02282 0.95577 0.0
H859 H 0.43434 0.02465 0.96865 0.0
O860 O 0.5429 0.1046 0.99449 0.0
O861 O 0.56764 0.07199 1.00622 0.0
O862 O 0.55604 0.08479 0.0441 0.0
O863 O 0.52402 0.0777 0.01921 0.0
O864 O 0.5692 0.07086 0.96978 0.0
O865 O 0.52871 0.08811 0.95891 0.0
O866 O 0.55172 0.02966 0.06013 0.0
O867 O 0.53426 0.04641 0.0137 0.0
O868 O 0.5466 0.02973 0.97077 0.0
O869 O 0.57285 0.02587 1.00042 0.0
O870 O 0.5384 0.01559 0.02507 0.0
O871 O 0.57168 0.06596 0.0713 0.0
C872 C 0.58045 0.07369 0.98998 0.0
C873 C 0.45786 1.00413 0.93593 0.0
C874 C 0.47198 0.99765 0.91903 0.0
C875 C 0.53828 0.10822 0.97333 0.0
C876 C 0.55603 0.12459 0.96462 0.0
C877 C 0.5633 0.14873 0.97676 0.0
C878 C 0.56789 0.11535 0.9465 0.0
C879 C 0.58745 0.12955 0.94137 0.0
C880 C 0.58254 0.16317 0.97126 0.0
C881 C 0.59481 0.15352 0.95388 0.0
C882 C 0.53637 0.08878 0.03918 0.0
C883 C 0.52503 0.02475 0.01338 0.0
C884 C 0.56061 0.04694 0.07801 0.0
C885 C 0.5705 0.03966 0.09856 0.0
C886 C 0.58903 0.02938 0.09729 0.0
C887 C 0.56065 0.04262 0.11981 0.0
C888 C 0.56885 0.03499 0.13977 0.0
C889 C 0.59731 0.02173 0.11714 0.0
C890 C 0.58717 0.02431 0.13828 0.0
C891 C 0.56178 0.01922 0.97902 0.0
H892 H 0.55451 0.15613 0.991 0.0
H893 H 0.56259 0.09666 0.93714 0.0
H894 H 0.58823 0.18169 0.98088 0.0
H895 H 0.60994 0.16472 0.95015 0.0
H896 H 0.59696 0.02713 0.08106 0.0
H897 H 0.5462 0.05038 0.12062 0.0
H898 H 0.61153 0.01367 0.11609 0.0
H899 H 0.59368 0.01817 0.15347 0.0
Gd900 Gd 0.28683 0.26134 0.26278 0.0
Gd901 Gd 0.32561 0.31921 0.29288 0.0
C902 C 0.38982 0.35615 0.26714 0.0
C903 C 0.41589 0.33374 0.27981 0.0
C904 C 0.37792 0.32452 0.28942 0.0
C905 C 0.37318 0.34193 0.2775 0.0
C906 C 0.39951 0.3205 0.29106 0.0
C907 C 0.41106 0.35158 0.2679 0.0
C908 C 0.38475 0.37494 0.25685 0.0
C909 C 0.36377 0.37971 0.25782 0.0
N910 N 0.3525 0.34574 0.27694 0.0
C911 C 0.3479 0.36513 0.26833 0.0
H912 H 0.33164 0.36889 0.26897 0.0
C913 C 0.36634 0.29575 0.31328 0.0
N914 N 0.36155 0.31181 0.29974 0.0
C915 C 0.38749 0.29131 0.31555 0.0
C916 C 0.40408 0.30348 0.30412 0.0
H917 H 0.35402 0.28534 0.32184 0.0
H918 H 0.42398 0.36208 0.25978 0.0
H919 H 0.27558 0.21378 0.2903 0.0
H920 H 0.39706 0.38626 0.24872 0.0
H921 H 0.35978 0.39456 0.25044 0.0
H922 H 0.43244 0.33063 0.28061 0.0
H923 H 0.26267 0.29446 0.22829 0.0
H924 H 0.2091 0.20424 0.30785 0.0
H925 H 0.24477 0.19189 0.30851 0.0
H926 H 0.1809 0.26129 0.2704 0.0
H927 H 0.39087 0.27818 0.32586 0.0
H928 H 0.42039 0.2998 0.30571 0.0
H929 H 0.18558 0.23061 0.29405 0.0
H930 H 0.2275 0.30513 0.22215 0.0
N931 N 0.25767 0.23857 0.27949 0.0
C932 C 0.22253 0.21381 0.29965 0.0
C933 C 0.24259 0.20674 0.3 0.0
C934 C 0.21978 0.23254 0.28795 0.0
C935 C 0.23778 0.24438 0.27747 0.0
C936 C 0.25997 0.21915 0.28955 0.0
N937 N 0.25253 0.27138 0.25306 0.0
C938 C 0.23509 0.26127 0.26382 0.0
C939 C 0.2294 0.29281 0.234 0.0
C940 C 0.21178 0.28344 0.24585 0.0
C941 C 0.24963 0.28651 0.23768 0.0
C942 C 0.21437 0.26724 0.26073 0.0
H943 H 0.19617 0.28852 0.24308 0.0
O944 O 0.28443 0.24715 0.22461 0.0
O945 O 0.32073 0.28328 0.26945 0.0
O946 O 0.32019 0.32164 0.25389 0.0
O947 O 0.29591 0.2852 0.23531 0.0
O948 O 0.31739 0.24711 0.27036 0.0
O949 O 0.28417 0.22302 0.24954 0.0
O950 O 0.32628 0.32904 0.33144 0.0
O951 O 0.29159 0.2974 0.28601 0.0
O952 O 0.29117 0.26007 0.30219 0.0
O953 O 0.31983 0.2933 0.31895 0.0
O954 O 0.29543 0.33356 0.28452 0.0
O955 O 0.327 0.35642 0.31005 0.0
C956 C 0.33137 0.26721 0.27092 0.0
C957 C 0.19679 0.25662 0.27229 0.0
C958 C 0.19947 0.23922 0.28581 0.0
C959 C 0.28667 0.22577 0.22778 0.0
C960 C 0.30492 0.21633 0.21684 0.0
C961 C 0.31305 0.22393 0.19647 0.0
C962 C 0.31519 0.20063 0.22755 0.0
C963 C 0.33359 0.193 0.21848 0.0
C964 C 0.33127 0.21637 0.1873 0.0
C965 C 0.34156 0.20112 0.19824 0.0
C966 C 0.30826 0.30698 0.23492 0.0
C967 C 0.28123 0.31361 0.28393 0.0
C968 C 0.32336 0.35073 0.33063 0.0
C969 C 0.30385 0.35753 0.34122 0.0
C970 C 0.29365 0.34529 0.35816 0.0
C971 C 0.29429 0.37515 0.33305 0.0
C972 C 0.27466 0.38035 0.34128 0.0
C973 C 0.27417 0.35033 0.36644 0.0
C974 C 0.26467 0.36766 0.35805 0.0
C975 C 0.30544 0.27309 0.32026 0.0
H976 H 0.3055 0.23594 0.18779 0.0
H977 H 0.30926 0.19485 0.24343 0.0
H978 H 0.33749 0.22243 0.17167 0.0
H979 H 0.35555 0.1954 0.19064 0.0
H980 H 0.30048 0.33151 0.36471 0.0
H981 H 0.30177 0.38431 0.31963 0.0
H982 H 0.26633 0.34066 0.37934 0.0
H983 H 0.24966 0.37129 0.36493 0.0
Gd984 Gd 0.56554 0.51426 0.01083 0.0
Gd985 Gd 0.5536 0.56825 0.03961 0.0
C986 C 0.55994 0.59131 0.12091 0.0
C987 C 0.52244 0.59322 0.1286 0.0
C988 C 0.53158 0.58246 0.08798 0.0
C989 C 0.55314 0.58428 0.09628 0.0
C990 C 0.51604 0.58742 0.10399 0.0
C991 C 0.54437 0.59515 0.13705 0.0
C992 C 0.5823 0.59515 0.12852 0.0
C993 C 0.59732 0.59296 0.11165 0.0
N994 N 0.56776 0.5808 0.08014 0.0
C995 C 0.58978 0.58613 0.08744 0.0
H996 H 0.60174 0.58463 0.07479 0.0
C997 C 0.50551 0.57786 0.055 0.0
N998 N 0.52607 0.57712 0.06412 0.0
C999 C 0.48953 0.58267 0.07015 0.0
C1000 C 0.49472 0.58713 0.09477 0.0
H1001 H 0.50117 0.57431 0.03603 0.0
H1002 H 0.54924 0.60032 0.15604 0.0
H1003 H 0.51728 0.49693 0.97597 0.0
H1004 H 0.58819 0.60052 0.14726 0.0
H1005 H 0.61474 0.59647 0.11727 0.0
H1006 H 0.5107 0.59688 0.14119 0.0
H1007 H 0.61881 0.51097 0.01419 0.0
H1008 H 0.53064 0.48118 0.90339 0.0
H1009 H 0.50413 0.48476 0.9335 0.0
H1010 H 0.60852 0.48733 0.90904 0.0
H1011 H 0.47319 0.58281 0.0628 0.0
H1012 H 0.48231 0.59088 0.10646 0.0
H1013 H 0.56968 0.4824 0.89442 0.0
H1014 H 0.64698 0.50387 0.9872 0.0
N1015 N 0.55124 0.50129 0.97043 0.0
C1016 C 0.53658 0.48667 0.92212 0.0
C1017 C 0.52158 0.4886 0.93905 0.0
C1018 C 0.55901 0.49102 0.92962 0.0
C1019 C 0.56589 0.49819 0.95423 0.0
C1020 C 0.5292 0.49561 0.96324 0.0
N1021 N 0.59335 0.50656 0.98625 0.0
C1022 C 0.58764 0.50082 0.96241 0.0
C1023 C 0.63037 0.50303 0.97997 0.0
C1024 C 0.62491 0.49806 0.95537 0.0
C1025 C 0.61427 0.50702 0.99524 0.0
C1026 C 0.60328 0.49658 0.94629 0.0
H1027 H 0.6374 0.49493 0.94358 0.0
O1028 O 0.57727 0.4849 0.02296 0.0
O1029 O 0.56545 0.53557 0.04873 0.0
O1030 O 0.5897 0.57271 0.03349 0.0
O1031 O 0.59079 0.54378 1.00048 0.0
O1032 O 0.59292 0.5228 0.04121 0.0
O1033 O 0.54341 0.47919 0.00818 0.0
O1034 O 0.54271 0.59842 0.02814 0.0
O1035 O 0.55337 0.54668 1.00189 0.0
O1036 O 0.52955 0.50901 0.0174 0.0
O1037 O 0.52733 0.53906 0.04917 0.0
O1038 O 0.52613 0.5598 0.00919 0.0
O1039 O 0.57677 0.60242 0.04107 0.0
C1040 C 0.58413 0.53354 0.05853 0.0
C1041 C 0.59672 0.49047 0.92171 0.0
C1042 C 0.57462 0.48769 0.91339 0.0
C1043 C 0.55822 0.46989 0.01779 0.0
C1044 C 0.55785 0.4443 0.00889 0.0
C1045 C 0.5626 0.43569 0.98579 0.0
C1046 C 0.55239 0.42818 0.02435 0.0
C1047 C 0.55138 0.40326 0.01702 0.0
C1048 C 0.56184 0.41091 0.97833 0.0
C1049 C 0.55628 0.39475 0.99381 0.0
C1050 C 0.59952 0.56455 0.01497 0.0
C1051 C 0.53472 0.54857 0.992 0.0
C1052 C 0.56214 0.61272 0.03266 0.0
C1053 C 0.56353 0.63826 0.043 0.0
C1054 C 0.55958 0.64584 0.06664 0.0
C1055 C 0.56942 0.65542 0.02863 0.0
C1056 C 0.57167 0.68033 0.03764 0.0
C1057 C 0.56156 0.67056 0.07575 0.0
C1058 C 0.56757 0.68774 0.0614 0.0
C1059 C 0.51924 0.5177 0.03529 0.0
H1060 H 0.56684 0.44802 0.97367 0.0
H1061 H 0.54913 0.43522 0.04232 0.0
H1062 H 0.56548 0.40419 0.96048 0.0
H1063 H 0.55555 0.37563 0.98752 0.0
H1064 H 0.55506 0.63274 0.07795 0.0
H1065 H 0.57209 0.64922 0.01026 0.0
H1066 H 0.55855 0.67645 0.09403 0.0
H1067 H 0.56931 0.70679 0.069 0.0
Gd1068 Gd 0.78429 0.27051 0.27711 0.0
Gd1069 Gd 0.83096 0.3055 0.26076 0.0
C1070 C 0.83153 0.37352 0.22923 0.0
C1071 C 0.84248 0.36168 0.18968 0.0
C1072 C 0.83892 0.33356 0.21712 0.0
C1073 C 0.83239 0.35038 0.23393 0.0
C1074 C 0.84438 0.33915 0.19491 0.0
C1075 C 0.83611 0.37886 0.20684 0.0
C1076 C 0.82692 0.39092 0.24746 0.0
C1077 C 0.82396 0.3853 0.26989 0.0
N1078 N 0.82834 0.34473 0.25547 0.0
C1079 C 0.8249 0.36209 0.27363 0.0
H1080 H 0.82251 0.35812 0.29106 0.0
C1081 C 0.84952 0.29604 0.20768 0.0
N1082 N 0.84092 0.31214 0.22291 0.0
C1083 C 0.85498 0.30069 0.18541 0.0
C1084 C 0.85217 0.32222 0.17887 0.0
H1085 H 0.85179 0.27927 0.21233 0.0
H1086 H 0.83533 0.39644 0.20284 0.0
H1087 H 0.79369 0.21793 0.24759 0.0
H1088 H 0.82615 0.40891 0.24459 0.0
H1089 H 0.8208 0.39876 0.28428 0.0
H1090 H 0.84645 0.36623 0.17267 0.0
H1091 H 0.76229 0.29663 0.32504 0.0
H1092 H 0.79011 0.16782 0.29474 0.0
H1093 H 0.79591 0.17765 0.25501 0.0
H1094 H 0.76848 0.2106 0.36578 0.0
H1095 H 0.86133 0.28763 0.17328 0.0
H1096 H 0.85651 0.32582 0.16163 0.0
H1097 H 0.78026 0.18043 0.33614 0.0
H1098 H 0.75268 0.28854 0.36403 0.0
N1099 N 0.78708 0.23145 0.28286 0.0
C1100 C 0.78911 0.18565 0.29158 0.0
C1101 C 0.79232 0.19109 0.26914 0.0
C1102 C 0.784 0.20303 0.30948 0.0
C1103 C 0.78287 0.22598 0.30444 0.0
C1104 C 0.79109 0.2141 0.26503 0.0
N1105 N 0.77391 0.26412 0.31494 0.0
C1106 C 0.77605 0.24282 0.32099 0.0
C1107 C 0.75935 0.27557 0.35215 0.0
C1108 C 0.76236 0.25424 0.35898 0.0
C1109 C 0.76492 0.28009 0.32988 0.0
C1110 C 0.77046 0.23737 0.34322 0.0
H1111 H 0.75791 0.25074 0.37621 0.0
O1112 O 0.75075 0.27521 0.2732 0.0
O1113 O 0.79437 0.30581 0.26231 0.0
O1114 O 0.82479 0.3186 0.29875 0.0
O1115 O 0.80593 0.28498 0.31124 0.0
O1116 O 0.77554 0.3071 0.29004 0.0
O1117 O 0.75865 0.24201 0.25548 0.0
O1118 O 0.86545 0.30403 0.26115 0.0
O1119 O 0.82094 0.27057 0.27574 0.0
O1120 O 0.79069 0.2569 0.2392 0.0
O1121 O 0.809 0.29072 0.22677 0.0
O1122 O 0.84056 0.26908 0.24891 0.0
O1123 O 0.85536 0.33178 0.28608 0.0
C1124 C 0.78398 0.32012 0.2754 0.0
C1125 C 0.77255 0.21502 0.34875 0.0
C1126 C 0.77928 0.19786 0.33189 0.0
C1127 C 0.74316 0.25357 0.26067 0.0
C1128 C 0.72272 0.24007 0.26769 0.0
C1129 C 0.72245 0.22108 0.28014 0.0
C1130 C 0.70304 0.24682 0.26196 0.0
C1131 C 0.68299 0.23457 0.26823 0.0
C1132 C 0.70256 0.20886 0.28655 0.0
C1133 C 0.68289 0.21543 0.28052 0.0
C1134 C 0.81838 0.307 0.31586 0.0
C1135 C 0.83175 0.25622 0.26349 0.0
C1136 C 0.87176 0.3232 0.27789 0.0
C1137 C 0.89152 0.3407 0.27467 0.0
C1138 C 0.89045 0.36148 0.26534 0.0
C1139 C 0.91199 0.33652 0.28174 0.0
C1140 C 0.93149 0.35311 0.28002 0.0
C1141 C 0.90983 0.37801 0.2634 0.0
C1142 C 0.93028 0.374 0.27087 0.0
C1143 C 0.79714 0.26841 0.22204 0.0
H1144 H 0.73748 0.21565 0.28483 0.0
H1145 H 0.7033 0.26135 0.25212 0.0
H1146 H 0.70238 0.19418 0.29611 0.0
H1147 H 0.66763 0.20566 0.28552 0.0
H1148 H 0.87478 0.36504 0.25981 0.0
H1149 H 0.9127 0.32061 0.28927 0.0
H1150 H 0.90898 0.39409 0.25628 0.0
H1151 H 0.94511 0.3871 0.26944 0.0
Gd1152 Gd 0.04846 0.57123 0.49234 0.0
Gd1153 Gd 0.07962 0.55926 0.54373 0.0
C1154 C 0.15452 0.57195 0.55287 0.0
C1155 C 0.16022 0.53097 0.55002 0.0
C1156 C 0.1231 0.53795 0.54657 0.0
C1157 C 0.13157 0.56262 0.54905 0.0
C1158 C 0.13736 0.52191 0.54751 0.0
C1159 C 0.16878 0.55596 0.55284 0.0
C1160 C 0.16245 0.59712 0.55735 0.0
C1161 C 0.14762 0.61234 0.55848 0.0
N1162 N 0.11737 0.57764 0.5491 0.0
C1163 C 0.12502 0.60226 0.55444 0.0
H1164 H 0.11383 0.61432 0.55542 0.0
C1165 C 0.09211 0.50624 0.54619 0.0
N1166 N 0.10093 0.52983 0.54483 0.0
C1167 C 0.10554 0.4896 0.54661 0.0
C1168 C 0.12826 0.49737 0.5469 0.0
H1169 H 0.07465 0.49997 0.54653 0.0
H1170 H 0.18645 0.56278 0.55559 0.0
H1171 H 0.06696 0.552 0.43885 0.0
H1172 H 0.17996 0.60499 0.5604 0.0
H1173 H 0.15357 0.63185 0.56231 0.0
H1174 H 0.17141 0.5189 0.55061 0.0
H1175 H 1.00266 0.5807 0.5175 0.0
H1176 H 0.01495 0.49874 0.39623 0.0
H1177 H 0.05329 0.52257 0.40192 0.0
H1178 H 0.95303 0.50259 0.44067 0.0
H1179 H 0.09838 0.47082 0.54696 0.0
H1180 H 0.13866 0.48449 0.54752 0.0
H1181 H 0.97775 0.49102 0.41106 0.0
H1182 H 0.96292 0.56422 0.51109 0.0
N1183 N 0.03701 0.54443 0.45515 0.0
C1184 C 0.02092 0.51156 0.41275 0.0
C1185 C 0.04253 0.52502 0.41586 0.0
C1186 C 0.00696 0.51564 0.4305 0.0
C1187 C 0.01553 0.53251 0.45175 0.0
C1188 C 0.05021 0.54182 0.43699 0.0
N1189 N 0.01012 0.556 0.48827 0.0
C1190 C 1.00165 0.53864 0.46869 0.0
C1191 C 0.97365 0.55662 0.4992 0.0
C1192 C 0.96484 0.53769 0.4801 0.0
C1193 C 0.99638 0.56577 0.5029 0.0
C1194 C 0.9788 0.52862 0.4644 0.0
H1195 H 0.94719 0.53084 0.47716 0.0
O1196 O 0.06161 0.60953 0.49285 0.0
O1197 O 0.08078 0.57904 0.51387 0.0
O1198 O 0.07516 0.59781 0.54765 0.0
O1199 O 0.04057 0.58886 0.52828 0.0
O1200 O 0.08102 0.57508 0.47695 0.0
O1201 O 0.03062 0.59183 0.47296 0.0
O1202 O 0.0593 0.55415 0.57281 0.0
O1203 O 0.04646 0.55627 0.52513 0.0
O1204 O 0.05766 0.53453 0.48146 0.0
O1205 O 0.08368 0.53174 0.51199 0.0
O1206 O 0.05158 0.52622 0.53808 0.0
O1207 O 0.09296 0.57374 0.58055 0.0
C1208 C 0.09287 0.57833 0.4969 0.0
C1209 C 0.97046 0.51078 0.444 0.0
C1210 C 0.98454 0.50421 0.42713 0.0
C1211 C 0.04577 0.61165 0.47832 0.0
C1212 C 0.0525 0.62342 0.45848 0.0
C1213 C 0.04803 0.64612 0.45721 0.0
C1214 C 0.06401 0.61238 0.44111 0.0
C1215 C 0.07135 0.62397 0.42258 0.0
C1216 C 0.05517 0.65774 0.43872 0.0
C1217 C 0.06688 0.64681 0.42152 0.0
C1218 C 0.05581 0.60319 0.54441 0.0
C1219 C 0.03773 0.53471 0.52631 0.0
C1220 C 0.07537 0.5639 0.58923 0.0
C1221 C 0.07821 0.54978 0.60773 0.0
C1222 C 0.09559 0.53774 0.60868 0.0
C1223 C 0.06282 0.54794 0.62446 0.0
C1224 C 0.06458 0.5342 0.64218 0.0
C1225 C 0.09748 0.52408 0.62627 0.0
C1226 C 0.08211 0.52233 0.643 0.0
C1227 C 0.07241 0.52403 0.49069 0.0
H1228 H 0.03917 0.65489 0.47058 0.0
H1229 H 0.0677 0.59502 0.44237 0.0
H1230 H 0.05174 0.6753 0.43779 0.0
H1231 H 0.07231 0.6561 0.40733 0.0
H1232 H 0.10766 0.53886 0.59589 0.0
H1233 H 0.04958 0.5575 0.6238 0.0
H1234 H 0.11088 0.5148 0.62692 0.0
H1235 H 0.0838 0.51153 0.6564 0.0
Gd1236 Gd 0.8359 0.78313 0.27949 0.0
Gd1237 Gd 0.7814 0.79688 0.26943 0.0
C1238 C 0.75171 0.79144 0.19302 0.0
C1239 C 0.7509 0.83341 0.19214 0.0
C1240 C 0.76424 0.82232 0.22843 0.0
C1241 C 0.76097 0.79853 0.21694 0.0
C1242 C 0.75847 0.83994 0.21648 0.0
C1243 C 0.74753 0.80915 0.1804 0.0
C1244 C 0.74573 0.76668 0.18296 0.0
C1245 C 0.74783 0.74975 0.19714 0.0
N1246 N 0.76463 0.78195 0.22995 0.0
C1247 C 0.75695 0.75773 0.22083 0.0
H1248 H 0.75849 0.74429 0.23135 0.0
C1249 C 0.77044 0.84988 0.26523 0.0
N1250 N 0.77097 0.82769 0.25201 0.0
C1251 C 0.76497 0.86803 0.25422 0.0
C1252 C 0.75941 0.8632 0.22962 0.0
H1253 H 0.77503 0.85383 0.28423 0.0
H1254 H 0.74075 0.80412 0.16191 0.0
H1255 H 0.85843 0.83667 0.31664 0.0
H1256 H 0.73859 0.76046 0.16464 0.0
H1257 H 0.74253 0.73051 0.18982 0.0
H1258 H 0.74669 0.84675 0.18254 0.0
H1259 H 0.84086 0.72554 0.26625 0.0
H1260 H 0.88039 0.8223 0.3834 0.0
H1261 H 0.87512 0.85141 0.35773 0.0
H1262 H 0.8722 0.73597 0.36765 0.0
H1263 H 0.76518 0.88576 0.26468 0.0
H1264 H 0.75507 0.87725 0.22112 0.0
H1265 H 0.87875 0.77901 0.38711 0.0
H1266 H 0.85074 0.69424 0.2867 0.0
N1267 N 0.85316 0.79915 0.31865 0.0
C1268 C 0.87293 0.81561 0.36524 0.0
C1269 C 0.87006 0.83208 0.35079 0.0
C1270 C 0.86708 0.79073 0.35572 0.0
C1271 C 0.85735 0.78302 0.33199 0.0
C1272 C 0.86049 0.82352 0.32731 0.0
N1273 N 0.84628 0.75282 0.29775 0.0
C1274 C 0.85373 0.75897 0.32114 0.0
C1275 C 0.85155 0.71234 0.29666 0.0
C1276 C 0.85797 0.71804 0.32111 0.0
C1277 C 0.84605 0.73014 0.28513 0.0
C1278 C 0.85961 0.74174 0.33357 0.0
H1279 H 0.86234 0.70428 0.33 0.0
O1280 O 0.85878 0.76927 0.25616 0.0
O1281 O 0.80989 0.78599 0.2521 0.0
O1282 O 0.77759 0.75579 0.27 0.0
O1283 O 0.81057 0.75001 0.28686 0.0
O1284 O 0.82387 0.75592 0.24576 0.0
O1285 O 0.86591 0.80697 0.27277 0.0
O1286 O 0.75877 0.80972 0.29374 0.0
O1287 O 0.80735 0.79378 0.29666 0.0
O1288 O 0.83981 0.82407 0.27825 0.0
O1289 O 0.80652 0.83066 0.26303 0.0
O1290 O 0.79324 0.82367 0.3035 0.0
O1291 O 0.75093 0.77282 0.2747 0.0
C1292 C 0.81003 0.76675 0.23723 0.0
C1293 C 0.86786 0.74898 0.35769 0.0
C1294 C 0.87158 0.77348 0.36877 0.0
C1295 C 0.87298 0.78989 0.25941 0.0
C1296 C 0.89641 0.78936 0.26449 0.0
C1297 C 0.90375 0.78519 0.28663 0.0
C1298 C 0.91173 0.79369 0.24759 0.0
C1299 C 0.9343 0.79434 0.25316 0.0
C1300 C 0.92587 0.78549 0.29208 0.0
C1301 C 0.94102 0.79011 0.2756 0.0
C1302 C 0.78922 0.7418 0.2791 0.0
C1303 C 0.80711 0.81275 0.31184 0.0
C1304 C 0.74422 0.78933 0.28925 0.0
C1305 C 0.72095 0.79076 0.28479 0.0
C1306 C 0.71352 0.79568 0.26302 0.0
C1307 C 0.70587 0.78661 0.30195 0.0
C1308 C 0.68342 0.78688 0.29703 0.0
C1309 C 0.69151 0.79628 0.25821 0.0
C1310 C 0.67658 0.79183 0.27494 0.0
C1311 C 0.82806 0.83846 0.27006 0.0
H1312 H 0.89237 0.78185 0.29979 0.0
H1313 H 0.90621 0.79708 0.23049 0.0
H1314 H 0.93135 0.78223 0.30924 0.0
H1315 H 0.95809 0.79017 0.28038 0.0
H1316 H 0.72474 0.79891 0.24967 0.0
H1317 H 0.71148 0.78266 0.31877 0.0
H1318 H 0.68594 0.80011 0.24134 0.0
H1319 H 0.6596 0.79247 0.27066 0.0
Gd1320 Gd 0.80225 0.31638 0.80704 0.0
Gd1321 Gd 0.81905 0.2811 0.75449 0.0
C1322 C 0.81332 0.19916 0.74373 0.0
C1323 C 0.85159 0.19622 0.7473 0.0
C1324 C 0.84218 0.23574 0.75129 0.0
C1325 C 0.82006 0.22472 0.74823 0.0
C1326 C 0.8582 0.22157 0.75019 0.0
C1327 C 0.82917 0.18503 0.74406 0.0
C1328 C 0.79094 0.18855 0.73785 0.0
C1329 C 0.77603 0.20331 0.73576 0.0
N1330 N 0.80518 0.23886 0.74765 0.0
C1331 C 0.78351 0.22856 0.74053 0.0
H1332 H 0.77186 0.2398 0.73872 0.0
C1333 C 0.86948 0.27149 0.75296 0.0
N1334 N 0.84799 0.26026 0.75367 0.0
C1335 C 0.88595 0.25822 0.75208 0.0
C1336 C 0.88034 0.2332 0.75106 0.0
H1337 H 0.87407 0.29075 0.75348 0.0
H1338 H 0.82428 0.1654 0.74095 0.0
H1339 H 0.86062 0.33182 0.81813 0.0
H1340 H 0.78512 0.169 0.73406 0.0
H1341 H 0.75877 0.19527 0.73057 0.0
H1342 H 0.86366 0.18506 0.7467 0.0
H1343 H 0.76069 0.34313 0.79699 0.0
H1344 H 0.87948 0.40233 0.86023 0.0
H1345 H 0.88843 0.36364 0.84231 0.0
H1346 H 0.81548 0.43439 0.85245 0.0
H1347 H 0.90297 0.2673 0.7521 0.0
H1348 H 0.89313 0.22295 0.75023 0.0
H1349 H 0.85236 0.42864 0.86344 0.0
H1350 H 0.75115 0.38265 0.80686 0.0
N1351 N 0.83338 0.34857 0.82591 0.0
C1352 C 0.86652 0.38751 0.85071 0.0
C1353 C 0.87158 0.36568 0.8408 0.0
C1354 C 0.84515 0.39056 0.84658 0.0
C1355 C 0.8288 0.37064 0.83394 0.0
C1356 C 0.85506 0.34682 0.82783 0.0
N1357 N 0.79353 0.35519 0.81389 0.0
C1358 C 0.80828 0.37408 0.82749 0.0
C1359 C 0.76736 0.38061 0.81268 0.0
C1360 C 0.78251 0.40025 0.82629 0.0
C1361 C 0.77307 0.35815 0.80684 0.0
C1362 C 0.80324 0.39718 0.83389 0.0
H1363 H 0.77807 0.41767 0.83081 0.0
O1364 O 0.76706 0.30628 0.80754 0.0
O1365 O 0.79591 0.28056 0.78219 0.0
O1366 O 0.78332 0.28461 0.74756 0.0
O1367 O 0.78426 0.32125 0.7724 0.0
O1368 O 0.80023 0.28064 0.81862 0.0
O1369 O 0.78784 0.3186 0.8409 0.0
O1370 O 0.8301 0.29941 0.72586 0.0
O1371 O 0.81718 0.31752 0.77382 0.0
O1372 O 0.83131 0.30149 0.82082 0.0
O1373 O 0.84114 0.27753 0.7869 0.0
O1374 O 0.84678 0.31471 0.7605 0.0
O1375 O 0.80722 0.26476 0.7176 0.0
C1376 C 0.79547 0.26722 0.79761 0.0
C1377 C 0.8191 0.41661 0.84733 0.0
C1378 C 0.84003 0.4133 0.85368 0.0
C1379 C 0.76802 0.30855 0.83056 0.0
C1380 C 0.75545 0.28722 0.83861 0.0
C1381 C 0.73371 0.27716 0.82847 0.0
C1382 C 0.76543 0.27513 0.85396 0.0
C1383 C 0.75419 0.25266 0.85812 0.0
C1384 C 0.72245 0.25494 0.83282 0.0
C1385 C 0.73271 0.24255 0.84733 0.0
C1386 C 0.77531 0.30438 0.75329 0.0
C1387 C 0.83607 0.32927 0.77188 0.0
C1388 C 0.81931 0.28193 0.70919 0.0
C1389 C 0.83138 0.27473 0.68901 0.0
C1390 C 0.84359 0.25669 0.68845 0.0
C1391 C 0.83122 0.28716 0.67024 0.0
C1392 C 0.84328 0.28204 0.65085 0.0
C1393 C 0.85571 0.25147 0.66917 0.0
C1394 C 0.85573 0.2642 0.65047 0.0
C1395 C 0.8439 0.28714 0.81022 0.0
H1396 H 0.7257 0.28613 0.81654 0.0
H1397 H 0.78219 0.28258 0.8619 0.0
H1398 H 0.70585 0.24714 0.82463 0.0
H1399 H 0.72381 0.22523 0.8504 0.0
H1400 H 0.84387 0.24686 0.70286 0.0
H1401 H 0.82206 0.30139 0.67106 0.0
H1402 H 0.86522 0.23765 0.66879 0.0
H1403 H 0.86528 0.26006 0.63573 0.0
Gd1404 Gd 0.78551 0.76468 0.76102 0.0
Gd1405 Gd 0.82381 0.82223 0.79216 0.0
C1406 C 0.8896 0.8624 0.77232 0.0
C1407 C 0.9157 0.84178 0.78815 0.0
C1408 C 0.87665 0.82943 0.79272 0.0
C1409 C 0.87231 0.84689 0.78058 0.0
C1410 C 0.89851 0.82679 0.79676 0.0
C1411 C 0.91125 0.8595 0.77588 0.0
C1412 C 0.88471 0.88077 0.76125 0.0
C1413 C 0.86317 0.88391 0.75943 0.0
N1414 N 0.85127 0.84934 0.77756 0.0
C1415 C 0.84669 0.86829 0.76814 0.0
H1416 H 0.8301 0.87118 0.76712 0.0
C1417 C 0.86372 0.79841 0.81373 0.0
N1418 N 0.85958 0.81514 0.80069 0.0
C1419 C 0.88506 0.79516 0.81812 0.0
C1420 C 0.90252 0.80927 0.80946 0.0
H1421 H 0.85083 0.78667 0.82034 0.0
H1422 H 0.92471 0.87112 0.76954 0.0
H1423 H 0.76772 0.72117 0.7927 0.0
H1424 H 0.89752 0.893 0.75465 0.0
H1425 H 0.85926 0.89848 0.75149 0.0
H1426 H 0.93253 0.83989 0.791 0.0
H1427 H 0.76507 0.79385 0.71962 0.0
H1428 H 0.704 0.72669 0.813 0.0
H1429 H 0.73647 0.70846 0.81515 0.0
H1430 H 0.68281 0.78004 0.76534 0.0
H1431 H 0.88798 0.78155 0.82805 0.0
H1432 H 0.91903 0.80661 0.81282 0.0
H1433 H 0.68414 0.7535 0.79435 0.0
H1434 H 0.73257 0.80893 0.71136 0.0
N1435 N 0.75463 0.74873 0.78028 0.0
C1436 C 0.71798 0.73278 0.80356 0.0
C1437 C 0.73627 0.72253 0.80488 0.0
C1438 C 0.71741 0.74968 0.78887 0.0
C1439 C 0.7361 0.75707 0.77698 0.0
C1440 C 0.75419 0.73021 0.79251 0.0
N1441 N 0.75336 0.77785 0.74886 0.0
C1442 C 0.73534 0.77186 0.7606 0.0
C1443 C 0.73319 0.79877 0.72549 0.0
C1444 C 0.71515 0.7939 0.73835 0.0
C1445 C 0.75203 0.79033 0.7307 0.0
C1446 C 0.71589 0.77996 0.75587 0.0
H1447 H 0.70057 0.80048 0.73426 0.0
O1448 O 0.78181 0.74796 0.72336 0.0
O1449 O 0.81944 0.78673 0.76797 0.0
O1450 O 0.81864 0.82525 0.75327 0.0
O1451 O 0.79776 0.78733 0.7334 0.0
O1452 O 0.81629 0.75005 0.76611 0.0
O1453 O 0.77717 0.72557 0.75004 0.0
O1454 O 0.82311 0.83177 0.83056 0.0
O1455 O 0.78977 0.80028 0.78526 0.0
O1456 O 0.79407 0.7596 0.79864 0.0
O1457 O 0.81714 0.79638 0.81814 0.0
O1458 O 0.79386 0.83635 0.78299 0.0
O1459 O 0.82545 0.85947 0.80935 0.0
C1460 C 0.83016 0.77054 0.7684 0.0
C1461 C 0.69771 0.77372 0.76856 0.0
C1462 C 0.69848 0.75866 0.78509 0.0
C1463 C 0.77942 0.72609 0.72772 0.0
C1464 C 0.79351 0.7108 0.71585 0.0
C1465 C 0.7936 0.70716 0.69103 0.0
C1466 C 0.80677 0.6996 0.72901 0.0
C1467 C 0.81996 0.68485 0.71756 0.0
C1468 C 0.8067 0.69263 0.67952 0.0
C1469 C 0.81978 0.68151 0.69263 0.0
C1470 C 0.80876 0.8099 0.73365 0.0
C1471 C 0.77956 0.81663 0.78304 0.0
C1472 C 0.82112 0.85377 0.82977 0.0
C1473 C 0.80189 0.86143 0.84018 0.0
C1474 C 0.79275 0.85152 0.859 0.0
C1475 C 0.79188 0.87795 0.83057 0.0
C1476 C 0.77304 0.88463 0.8395 0.0
C1477 C 0.77392 0.85783 0.86784 0.0
C1478 C 0.76409 0.87425 0.8582 0.0
C1479 C 0.80589 0.77395 0.81781 0.0
H1480 H 0.78348 0.71553 0.68054 0.0
H1481 H 0.80698 0.7025 0.74821 0.0
H1482 H 0.80661 0.68984 0.66034 0.0
H1483 H 0.82942 0.66994 0.68316 0.0
H1484 H 0.8 0.83867 0.8667 0.0
H1485 H 0.79852 0.88527 0.8157 0.0
H1486 H 0.76691 0.84999 0.88225 0.0
H1487 H 0.74973 0.87909 0.8657 0.0
Gd1488 Gd 0.58493 0.56123 0.54147 0.0
Gd1489 Gd 0.53674 0.52192 0.5114 0.0
C1490 C 0.53025 0.43999 0.50337 0.0
C1491 C 0.5298 0.42736 0.46059 0.0
C1492 C 0.53199 0.46979 0.47806 0.0
C1493 C 0.53236 0.46435 0.50069 0.0
C1494 C 0.52982 0.45116 0.45776 0.0
C1495 C 0.52998 0.42178 0.48337 0.0
C1496 C 0.52715 0.43436 0.52584 0.0
C1497 C 0.52513 0.45255 0.54467 0.0
N1498 N 0.53232 0.48231 0.51973 0.0
C1499 C 0.52741 0.47642 0.54121 0.0
H1500 H 0.52593 0.48994 0.55624 0.0
C1501 C 0.52599 0.49771 0.45393 0.0
N1502 N 0.53134 0.49279 0.47578 0.0
C1503 C 0.52392 0.4799 0.43333 0.0
C1504 C 0.52641 0.45667 0.43521 0.0
H1505 H 0.52396 0.5156 0.4523 0.0
H1506 H 0.5288 0.4031 0.48521 0.0
H1507 H 0.59893 0.58944 0.49427 0.0
H1508 H 0.52541 0.4159 0.52861 0.0
H1509 H 0.52203 0.44827 0.56197 0.0
H1510 H 0.52851 0.41291 0.44522 0.0
H1511 H 0.59196 0.572 0.60169 0.0
H1512 H 0.59859 0.66415 0.51526 0.0
H1513 H 0.60319 0.62965 0.48497 0.0
H1514 H 0.59099 0.67392 0.59848 0.0
H1515 H 0.52042 0.4841 0.41603 0.0
H1516 H 0.52464 0.44285 0.41922 0.0
H1517 H 0.59331 0.6803 0.5574 0.0
H1518 H 0.59436 0.60603 0.63532 0.0
N1519 N 0.5907 0.59967 0.52989 0.0
C1520 C 0.5966 0.64627 0.51965 0.0
C1521 C 0.59925 0.62686 0.50254 0.0
C1522 C 0.59246 0.64261 0.54254 0.0
C1523 C 0.58994 0.6189 0.54735 0.0
C1524 C 0.59668 0.60375 0.50807 0.0
N1525 N 0.58843 0.59289 0.57506 0.0
C1526 C 0.58866 0.61537 0.57057 0.0
C1527 C 0.59266 0.60891 0.61721 0.0
C1528 C 0.59128 0.63171 0.61285 0.0
C1529 C 0.59155 0.58972 0.59807 0.0
C1530 C 0.58979 0.63533 0.58938 0.0
H1531 H 0.5922 0.64658 0.62773 0.0
O1532 O 0.6126 0.54457 0.53287 0.0
O1533 O 0.56844 0.52145 0.53203 0.0
O1534 O 0.53 0.52967 0.55163 0.0
O1535 O 0.55831 0.56202 0.56906 0.0
O1536 O 0.58197 0.53501 0.56684 0.0
O1537 O 0.61806 0.5787 0.55755 0.0
O1538 O 0.50276 0.50353 0.49946 0.0
O1539 O 0.55337 0.56164 0.52114 0.0
O1540 O 0.59172 0.55104 0.5012 0.0
O1541 O 0.56229 0.52021 0.48303 0.0
O1542 O 0.53995 0.54869 0.48637 0.0
O1543 O 0.51024 0.54097 0.51748 0.0
C1544 C 0.57234 0.51537 0.5521 0.0
C1545 C 0.5905 0.65849 0.58431 0.0
C1546 C 0.59182 0.66212 0.56092 0.0
C1547 C 0.62664 0.56091 0.54808 0.0
C1548 C 0.64077 0.55187 0.56424 0.0
C1549 C 0.63526 0.54973 0.58726 0.0
C1550 C 0.65997 0.54517 0.55654 0.0
C1551 C 0.67371 0.53653 0.57177 0.0
C1552 C 0.64881 0.54127 0.60245 0.0
C1553 C 0.66792 0.53472 0.59483 0.0
C1554 C 0.53897 0.54719 0.57041 0.0
C1555 C 0.54982 0.56813 0.50123 0.0
C1556 C 0.49485 0.52199 0.50854 0.0
C1557 C 0.47614 0.51726 0.52268 0.0
C1558 C 0.475 0.50095 0.53835 0.0
C1559 C 0.45944 0.53003 0.52097 0.0
C1560 C 0.44168 0.52679 0.53491 0.0
C1561 C 0.45746 0.49771 0.55235 0.0
C1562 C 0.4409 0.5106 0.55075 0.0
C1563 C 0.58213 0.53417 0.48205 0.0
H1564 H 0.62052 0.55454 0.59352 0.0
H1565 H 0.66426 0.54688 0.53878 0.0
H1566 H 0.64441 0.53966 0.62017 0.0
H1567 H 0.67794 0.52779 0.60684 0.0
H1568 H 0.48769 0.4909 0.5399 0.0
H1569 H 0.46052 0.54286 0.50907 0.0
H1570 H 0.45673 0.48521 0.56451 0.0
H1571 H 0.42738 0.50771 0.56165 0.0
Gd1572 Gd 0.03408 0.53453 0.04294 0.0
Gd1573 Gd 0.08793 0.54608 0.0198 0.0
C1574 C 0.1259 0.62336 0.02074 0.0
C1575 C 0.12487 0.62463 0.97855 0.0
C1576 C 0.10799 0.58764 0.99157 0.0
C1577 C 0.11389 0.59907 0.01506 0.0
C1578 C 0.11375 0.60012 0.973 0.0
C1579 C 0.13093 0.63624 1.00238 0.0
C1580 C 0.133 0.63375 0.04463 0.0
C1581 C 0.12875 0.61968 0.06204 0.0
N1582 N 0.10887 0.58603 0.0323 0.0
C1583 C 0.11688 0.59562 0.05549 0.0
H1584 H 0.11366 0.58506 0.06918 0.0
C1585 C 0.09337 0.5511 0.96397 0.0
N1586 N 0.09746 0.56392 0.98688 0.0
C1587 C 0.0986 0.56272 0.94493 0.0
C1588 C 0.10863 0.58742 0.94945 0.0
H1589 H 0.08546 0.53205 0.96038 0.0
H1590 H 0.13996 0.65498 0.0064 0.0
H1591 H 0.00908 0.49253 0.99524 0.0
H1592 H 0.1422 0.65238 0.04975 0.0
H1593 H 0.13454 0.62739 0.08052 0.0
H1594 H 0.12929 0.63461 0.96454 0.0
H1595 H 0.03222 0.55328 0.10136 0.0
H1596 H 0.98048 0.42749 0.01868 0.0
H1597 H 0.98866 0.44998 0.98609 0.0
H1598 H 0.98985 0.45178 0.10371 0.0
H1599 H 0.09488 0.55264 0.9268 0.0
H1600 H 0.11275 0.59636 0.93467 0.0
H1601 H 0.9813 0.42823 0.0627 0.0
H1602 H 0.02063 0.536 0.13617 0.0
N1603 N 0.01337 0.49417 0.03264 0.0
C1604 C 0.98956 0.44621 0.02281 0.0
C1605 C 0.99406 0.45887 1.00439 0.0
C1606 C 0.99601 0.45821 0.04641 0.0
C1607 C 0.00788 0.48256 0.05077 0.0
C1608 C 1.0057 0.48308 0.00969 0.0
N1609 N 0.02277 0.5195 0.07693 0.0
C1610 C 0.01269 0.49571 0.07373 0.0
C1611 C 0.01843 0.52441 0.11873 0.0
C1612 C 0.00914 0.49965 0.11589 0.0
C1613 C 0.02499 0.53414 0.09891 0.0
C1614 C 1.00579 0.48502 0.09312 0.0
H1615 H 1.00403 0.49216 0.13125 0.0
O1616 O 0.01529 0.56124 0.05624 0.0
O1617 O 0.06227 0.56334 0.03664 0.0
O1618 O 0.09072 0.54438 0.05907 0.0
O1619 O 0.05718 0.52317 0.06839 0.0
O1620 O 0.04949 0.56956 0.06874 0.0
O1621 O 1.00319 0.53545 0.02365 0.0
O1622 O 0.10842 0.52309 1.00239 0.0
O1623 O 0.05997 0.51705 0.02613 0.0
O1624 O 0.03208 0.53315 1.00312 0.0
O1625 O 0.06407 0.55886 0.99658 0.0
O1626 O 0.07312 0.51089 0.99408 0.0
O1627 O 0.11817 0.54299 0.03844 0.0
C1628 C 0.06382 0.57888 0.05583 0.0
C1629 C 0.99506 0.4604 0.08903 0.0
C1630 C 0.9902 0.44699 0.06569 0.0
C1631 C 0.99939 0.55329 0.03915 0.0
C1632 C 0.97681 0.55084 0.04625 0.0
C1633 C 0.96895 0.53416 0.06053 0.0
C1634 C 0.96309 0.56555 0.03904 0.0
C1635 C 0.94155 0.56361 0.04612 0.0
C1636 C 0.94785 0.53227 0.06779 0.0
C1637 C 0.9343 0.54687 0.06077 0.0
C1638 C 0.07877 0.53146 0.07263 0.0
C1639 C 0.05887 0.50143 0.00701 0.0
C1640 C 0.12332 0.52841 0.02058 0.0
C1641 C 0.14654 0.53351 0.01556 0.0
C1642 C 0.15516 0.55383 1.00593 0.0
C1643 C 0.1604 0.51826 0.0211 0.0
C1644 C 0.1829 0.52347 0.01726 0.0
C1645 C 0.17731 0.55899 1.00189 0.0
C1646 C 0.19109 0.54402 0.00753 0.0
C1647 C 0.04323 0.54776 0.99049 0.0
H1648 H 0.97917 0.5227 0.06619 0.0
H1649 H 0.96912 0.57822 0.02774 0.0
H1650 H 0.94198 0.5195 0.07901 0.0
H1651 H 0.91817 0.54518 0.06713 0.0
H1652 H 0.1448 0.56575 1.00162 0.0
H1653 H 0.15378 0.50269 0.0288 0.0
H1654 H 0.18385 0.5747 0.99439 0.0
H1655 H 0.20816 0.54841 1.00401 0.0
H1656 H 0.04321 0.22257 0.99723 0.0
H1657 H 0.01139 0.1782 0.9307 0.0
H1658 H 0.04962 0.18603 0.01093 0.0
H1659 H 0.01747 0.14198 0.94425 0.0
H1660 H 0.05039 0.08286 0.96151 0.0
H1661 H 0.04459 0.12043 0.95102 0.0
H1662 H 0.03544 0.14734 0.02408 0.0
H1663 H 0.04146 0.10907 0.03463 0.0
C1664 C 0.03739 0.20507 0.98551 0.0
C1665 C 0.02673 0.20377 0.96266 0.0
C1666 C 0.04103 0.1839 0.99346 0.0
C1667 C 0.03437 0.16048 0.97883 0.0
C1668 C 0.02341 0.15934 0.95616 0.0
C1669 C 0.01969 0.18036 0.94833 0.0
C1670 C 0.04726 0.09676 0.97552 0.0
C1671 C 0.04674 0.09262 0.99905 0.0
C1672 C 0.04369 0.11852 0.96939 0.0
C1673 C 0.03915 0.13745 0.98642 0.0
C1674 C 0.03891 0.13356 0.01022 0.0
C1675 C 0.04244 0.11148 0.01639 0.0
H1676 H 0.17354 0.79886 0.13216 0.0
H1677 H 0.14935 0.82942 0.19689 0.0
H1678 H 0.20627 0.79447 0.15529 0.0
H1679 H 0.18189 0.82496 0.22005 0.0
H1680 H 0.25259 0.83421 0.25402 0.0
H1681 H 0.22074 0.83943 0.23041 0.0
H1682 H 0.21933 0.77174 0.18277 0.0
H1683 H 0.25109 0.76643 0.20658 0.0
C1684 C 0.17521 0.8048 0.15132 0.0
C1685 C 0.15863 0.81464 0.16249 0.0
C1686 C 0.19401 0.80208 0.16471 0.0
C1687 C 0.19707 0.80928 0.1898 0.0
C1688 C 0.18055 0.81941 0.20086 0.0
C1689 C 0.1617 0.82193 0.1875 0.0
C1690 C 0.24564 0.8204 0.23848 0.0
C1691 C 0.25506 0.80007 0.23217 0.0
C1692 C 0.22711 0.82335 0.22489 0.0
C1693 C 0.21717 0.80614 0.20433 0.0
C1694 C 0.22654 0.78575 0.19808 0.0
C1695 C 0.24497 0.7827 0.21181 0.0
H1696 H 0.51462 0.84103 0.49368 0.0
H1697 H 0.55459 0.85553 0.43694 0.0
H1698 H 0.51943 0.88509 0.50835 0.0
H1699 H 0.55951 0.8989 0.45146 0.0
H1700 H 0.55316 0.96978 0.53809 0.0
H1701 H 0.54537 0.92499 0.52697 0.0
H1702 H 0.53929 0.92989 0.45276 0.0
H1703 H 0.5471 0.9739 0.46382 0.0
C1704 C 0.52453 0.85351 0.48438 0.0
C1705 C 0.5341 0.84438 0.46393 0.0
C1706 C 0.52736 0.8789 0.49287 0.0
C1707 C 0.53966 0.89603 0.48105 0.0
C1708 C 0.5495 0.88669 0.46093 0.0
C1709 C 0.54679 0.86154 0.4526 0.0
C1710 C 0.5497 0.96119 0.51945 0.0
C1711 C 0.55065 0.97565 0.50188 0.0
C1712 C 0.54531 0.93541 0.513 0.0
C1713 C 0.54209 0.92338 0.4888 0.0
C1714 C 0.54221 0.93807 0.47152 0.0
C1715 C 0.5465 0.96352 0.47791 0.0
H1716 H 0.55757 0.33599 0.69622 0.0
H1717 H 0.52061 0.27989 0.63948 0.0
H1718 H 0.52605 0.33214 0.71934 0.0
H1719 H 0.48915 0.27508 0.66307 0.0
H1720 H 0.42965 0.28198 0.70492 0.0
H1721 H 0.45968 0.2899 0.67976 0.0
H1722 H 0.50665 0.30781 0.74219 0.0
H1723 H 0.47689 0.30144 0.76706 0.0
C1724 C 0.54272 0.32266 0.68872 0.0
C1725 C 0.54177 0.30817 0.666 0.0
C1726 C 0.52454 0.32029 0.70211 0.0
C1727 C 0.50481 0.30304 0.69343 0.0
C1728 C 0.5038 0.28877 0.67045 0.0
C1729 C 0.52196 0.29138 0.65691 0.0
C1730 C 0.44637 0.28806 0.71328 0.0
C1731 C 0.45066 0.29077 0.73813 0.0
C1732 C 0.46372 0.2923 0.69878 0.0
C1733 C 0.4859 0.29943 0.70869 0.0
C1734 C 0.48999 0.3027 0.73362 0.0
C1735 C 0.47276 0.29864 0.74801 0.0
H1736 H 0.97849 0.8085 0.61134 0.0
H1737 H 0.03206 0.86301 0.65244 0.0
H1738 H 0.97724 0.83371 0.58151 0.0
H1739 H 0.0313 0.88797 0.62227 0.0
H1740 H 0.01558 0.93549 0.57171 0.0
H1741 H 0.0111 0.91224 0.60355 0.0
H1742 H 0.9995 0.84553 0.55122 0.0
H1743 H 1.00362 0.86878 0.51952 0.0
C1744 C 0.98993 0.82595 0.61405 0.0
C1745 C 1.00546 0.83374 0.63415 0.0
C1746 C 0.98931 0.84033 0.59688 0.0
C1747 C 1.00429 0.86279 0.59935 0.0
C1748 C 0.01935 0.87091 0.6199 0.0
C1749 C 0.01988 0.85657 0.63715 0.0
C1750 C 0.01195 0.91584 0.56708 0.0
C1751 C 0.01005 0.90393 0.54316 0.0
C1752 C 0.00944 0.90253 0.58529 0.0
C1753 C 1.00507 0.87701 0.57999 0.0
C1754 C 1.00253 0.86513 0.55597 0.0
C1755 C 1.00492 0.87845 0.53777 0.0
H1756 H 0.55244 0.80307 0.82342 0.0
H1757 H 0.53352 0.83255 0.8919 0.0
H1758 H 0.51935 0.81079 0.80381 0.0
H1759 H 0.50072 0.84028 0.87234 0.0
H1760 H 0.46309 0.88054 0.82861 0.0
H1761 H 0.49585 0.87003 0.84553 0.0
H1762 H 0.47713 0.79843 0.80123 0.0
H1763 H 0.44437 0.80902 0.78415 0.0
C1764 C 0.54104 0.81076 0.83428 0.0
C1765 C 0.54559 0.8173 0.85917 0.0
C1766 C 0.52217 0.81522 0.82307 0.0
C1767 C 0.50775 0.82651 0.83657 0.0
C1768 C 0.51182 0.83199 0.8615 0.0
C1769 C 0.53049 0.82734 0.87269 0.0
C1770 C 0.46619 0.86273 0.8222 0.0
C1771 C 0.45121 0.84557 0.80515 0.0
C1772 C 0.48476 0.85662 0.83206 0.0
C1773 C 0.48882 0.83332 0.82487 0.0
C1774 C 0.47436 0.8165 0.80707 0.0
C1775 C 0.45563 0.82252 0.7974 0.0
H1776 H 0.46873 0.1922 0.11466 0.0
H1777 H 0.52385 0.19003 0.16273 0.0
H1778 H 0.47365 0.15542 0.08885 0.0
H1779 H 0.53002 0.15478 0.13637 0.0
H1780 H 0.53901 0.09019 0.08684 0.0
H1781 H 0.52321 0.11555 0.1167 0.0
H1782 H 0.49781 0.14804 0.06139 0.0
H1783 H 0.51213 0.12115 0.03165 0.0
C1784 C 0.48165 0.18356 0.11987 0.0
C1785 C 0.49607 0.19403 0.14046 0.0
C1786 C 0.48471 0.1627 0.10495 0.0
C1787 C 0.50268 0.15243 0.11001 0.0
C1788 C 0.5159 0.16187 0.13175 0.0
C1789 C 0.51244 0.18227 0.14695 0.0
C1790 C 0.52994 0.10274 0.08123 0.0
C1791 C 0.52702 0.10415 0.05715 0.0
C1792 C 0.52087 0.11731 0.09829 0.0
C1793 C 0.50933 0.13416 0.09166 0.0
C1794 C 0.50612 0.13504 0.06731 0.0
C1795 C 0.51461 0.11991 0.05022 0.0
H1796 H 0.18464 0.32748 0.3839 0.0
H1797 H 0.14697 0.3163 0.3156 0.0
H1798 H 0.21795 0.32572 0.36389 0.0
H1799 H 0.18036 0.31457 0.29564 0.0
H1800 H 0.25204 0.34091 0.27469 0.0
H1801 H 0.21805 0.3436 0.29351 0.0
H1802 H 0.23031 0.29182 0.33597 0.0
H1803 H 0.26379 0.28892 0.31708 0.0
C1804 C 0.18349 0.3247 0.36464 0.0
C1805 C 0.16321 0.32192 0.3513 0.0
C1806 C 0.20251 0.32363 0.35321 0.0
C1807 C 0.20164 0.31998 0.32825 0.0
C1808 C 0.18146 0.3176 0.31491 0.0
C1809 C 0.16238 0.31844 0.32633 0.0
C1810 C 0.24722 0.32993 0.28783 0.0
C1811 C 0.26015 0.31423 0.29398 0.0
C1812 C 0.22787 0.33146 0.29857 0.0
C1813 C 0.22166 0.31795 0.3162 0.0
C1814 C 0.23481 0.30254 0.32254 0.0
C1815 C 0.25385 0.30069 0.31154 0.0
H1816 H 1.00367 0.08647 0.22447 0.0
H1817 H 0.94513 0.03812 0.18708 0.0
H1818 H 0.022 0.08282 0.18779 0.0
H1819 H 0.96304 0.03465 0.15025 0.0
H1820 H 1.00107 0.02076 0.08344 0.0
H1821 H 0.98312 0.02427 0.12022 0.0
H1822 H 0.03429 0.08657 0.15186 0.0
H1823 H 0.0522 0.08264 0.11502 0.0
C1824 C 0.99444 0.075 0.20847 0.0
C1825 C 0.97242 0.06268 0.20978 0.0
C1826 C 1.00516 0.0729 0.18679 0.0
C1827 C 0.99473 0.05828 0.16456 0.0
C1828 C 0.97261 0.04599 0.16605 0.0
C1829 C 0.96195 0.0481 0.18772 0.0
C1830 C 0.00869 0.03533 0.09812 0.0
C1831 C 0.02868 0.05124 0.09519 0.0
C1832 C 0.99809 0.03752 0.11983 0.0
C1833 C 0.00652 0.05587 0.14052 0.0
C1834 C 0.02657 0.07182 0.13744 0.0
C1835 C 0.03717 0.06958 0.1157 0.0
H1836 H 0.30439 0.66328 0.43612 0.0
H1837 H 0.30539 0.72904 0.4868 0.0
H1838 H 0.29429 0.6826 0.4037 0.0
H1839 H 0.29471 0.74804 0.45471 0.0
H1840 H 0.28429 0.78161 0.39189 0.0
H1841 H 0.3034 0.76361 0.41972 0.0
H1842 H 0.26071 0.6935 0.39114 0.0
H1843 H 0.24243 0.71127 0.36231 0.0
C1844 C 0.3029 0.68201 0.44027 0.0
C1845 C 0.30548 0.69459 0.46399 0.0
C1846 C 0.29689 0.69299 0.42175 0.0
C1847 C 0.29334 0.71673 0.42664 0.0
C1848 C 0.29745 0.72981 0.45023 0.0
C1849 C 0.30351 0.71888 0.46869 0.0
C1850 C 0.27922 0.76227 0.39123 0.0
C1851 C 0.2617 0.7479 0.37497 0.0
C1852 C 0.29007 0.75199 0.40735 0.0
C1853 C 0.28355 0.72714 0.40776 0.0
C1854 C 0.26635 0.71266 0.39114 0.0
C1855 C 0.25559 0.72292 0.37489 0.0
H1856 H 0.67807 0.03176 0.68444 0.0
H1857 H 0.61939 0.03444 0.72017 0.0
H1858 H 0.65698 0.0281 0.64624 0.0
H1859 H 0.59836 0.03124 0.68202 0.0
H1860 H 0.564 1.0076 0.6055 0.0
H1861 H 0.58392 1.00516 0.64277 0.0
H1862 H 0.64038 0.05589 0.62781 0.0
H1863 H 0.62082 0.05829 0.59097 0.0
C1864 C 0.66064 0.0314 0.68411 0.0
C1865 C 0.65044 0.03358 0.70532 0.0
C1866 C 0.64856 0.02943 0.66225 0.0
C1867 C 0.62601 0.02961 0.6611 0.0
C1868 C 0.61564 0.03085 0.68224 0.0
C1869 C 0.62774 0.03284 0.70412 0.0
C1870 C 0.58061 0.01831 0.61024 0.0
C1871 C 0.59065 0.03332 0.59526 0.0
C1872 C 0.59204 0.01688 0.63158 0.0
C1873 C 0.6138 0.03024 0.63821 0.0
C1874 C 0.62381 0.04502 0.62309 0.0
C1875 C 0.61243 0.04653 0.60196 0.0
H1876 H 0.29326 0.37424 0.95723 0.0
H1877 H 0.33738 0.32885 0.97257 0.0
H1878 H 0.29293 0.35904 0.91485 0.0
H1879 H 0.33706 0.31348 0.92952 0.0
H1880 H 0.30799 0.27908 0.84653 0.0
H1881 H 0.31112 0.28948 0.89052 0.0
H1882 H 0.32202 0.36551 0.88717 0.0
H1883 H 0.31894 0.35522 0.84394 0.0
C1884 C 0.30278 0.36083 0.95159 0.0
C1885 C 0.31547 0.35295 0.96842 0.0
C1886 C 0.30268 0.35217 0.92718 0.0
C1887 C 0.31524 0.33529 0.91868 0.0
C1888 C 0.32721 0.32647 0.93546 0.0
C1889 C 0.32741 0.3353 0.9601 0.0
C1890 C 0.31161 0.29798 0.85534 0.0
C1891 C 0.31336 0.31637 0.84181 0.0
C1892 C 0.31331 0.30395 0.88049 0.0
C1893 C 0.3164 0.32834 0.89238 0.0
C1894 C 0.31918 0.34655 0.87867 0.0
C1895 C 0.31756 0.34066 0.85386 0.0
H1896 H 1.0048 0.06306 0.33646 0.0
H1897 H 0.94617 0.07105 0.36958 0.0
H1898 H 0.0221 0.0579 0.37429 0.0
H1899 H 0.96326 0.06646 0.40732 0.0
H1900 H 0.99124 0.04684 0.47539 0.0
H1901 H 0.97533 0.05109 0.43718 0.0
H1902 H 0.03975 0.06274 0.41233 0.0
H1903 H 0.05565 0.05801 0.45123 0.0
C1904 C 0.9954 0.06392 0.35173 0.0
C1905 C 0.97358 0.06768 0.34887 0.0
C1906 C 1.00557 0.06092 0.37405 0.0
C1907 C 0.99474 0.06137 0.39538 0.0
C1908 C 0.97293 0.06535 0.39233 0.0
C1909 C 0.96282 0.06829 0.37008 0.0
C1910 C 1.00228 0.05012 0.46188 0.0
C1911 C 0.02509 0.05155 0.46744 0.0
C1912 C 0.99293 0.0529 0.43932 0.0
C1913 C 1.00558 0.05773 0.42013 0.0
C1914 C 0.0286 0.05903 0.42561 0.0
C1915 C 0.03803 0.05619 0.44843 0.0
H1916 H 0.32891 0.72271 0.58673 0.0
H1917 H 0.26666 0.67537 0.59202 0.0
H1918 H 0.32748 0.74586 0.62657 0.0
H1919 H 0.26485 0.69883 0.63132 0.0
H1920 H 0.28392 0.72375 0.7109 0.0
H1921 H 0.28352 0.70381 0.66999 0.0
H1922 H 0.30831 0.77316 0.65074 0.0
H1923 H 0.30904 0.79335 0.69225 0.0
C1924 C 0.31486 0.7174 0.59634 0.0
C1925 C 0.29804 0.69708 0.58645 0.0
C1926 C 0.31394 0.73076 0.61905 0.0
C1927 C 0.29612 0.7241 0.63218 0.0
C1928 C 0.27901 0.70418 0.62188 0.0
C1929 C 0.28002 0.69076 0.59933 0.0
C1930 C 0.28917 0.7349 0.69802 0.0
C1931 C 0.29679 0.76016 0.70495 0.0
C1932 C 0.2888 0.72341 0.67444 0.0
C1933 C 0.29586 0.73686 0.65705 0.0
C1934 C 0.30304 0.76224 0.66379 0.0
C1935 C 0.30342 0.77381 0.68754 0.0
H1936 H 0.6271 0.0375 0.82258 0.0
H1937 H 0.68641 0.09108 0.85127 0.0
H1938 H 0.60811 0.0536 0.85564 0.0
H1939 H 0.66728 0.10793 0.88365 0.0
H1940 H 0.62976 0.12479 0.94783 0.0
H1941 H 0.65008 0.10369 0.91892 0.0
H1942 H 0.59408 0.08884 0.86605 0.0
H1943 H 0.57372 0.10896 0.8953 0.0
C1944 C 0.6361 0.05259 0.83608 0.0
C1945 C 0.65813 0.06316 0.83429 0.0
C1946 C 0.6252 0.06198 0.8549 0.0
C1947 C 0.63604 0.08237 0.87209 0.0
C1948 C 0.65844 0.09213 0.87088 0.0
C1949 C 0.6694 0.08252 0.85224 0.0
C1950 C 0.62201 0.11713 0.92992 0.0
C1951 C 0.60036 0.11861 0.92355 0.0
C1952 C 0.63355 0.10501 0.91339 0.0
C1953 C 0.62369 0.09443 0.89015 0.0
C1954 C 0.60204 0.09624 0.8839 0.0
C1955 C 0.59045 0.10803 0.90049 0.0
H1956 H 0.34698 0.38478 0.12088 0.0
H1957 H 0.29081 0.32941 0.08676 0.0
H1958 H 0.34383 0.36904 0.1575 0.0
H1959 H 0.28716 0.31388 0.12381 0.0
H1960 H 0.31928 0.35359 0.22711 0.0
H1961 H 0.32218 0.36738 0.18959 0.0
H1962 H 0.30201 0.29313 0.15151 0.0
H1963 H 0.29891 0.27938 0.18943 0.0
C1964 C 0.33388 0.36922 0.12119 0.0
C1965 C 0.31913 0.35845 0.10078 0.0
C1966 C 0.33194 0.36025 0.14237 0.0
C1967 C 0.31506 0.34024 0.14399 0.0
C1968 C 0.3005 0.32916 0.12338 0.0
C1969 C 0.30251 0.33814 0.10208 0.0
C1970 C 0.31576 0.34011 0.21085 0.0
C1971 C 0.30927 0.31529 0.21156 0.0
C1972 C 0.3174 0.34805 0.18912 0.0
C1973 C 0.31263 0.33146 0.1672 0.0
C1974 C 0.3057 0.30659 0.16786 0.0
C1975 C 0.30399 0.29865 0.1897 0.0
H1976 H 0.25732 0.94271 0.05973 0.0
H1977 H 0.29384 0.99814 0.02643 0.0
H1978 H 0.22979 0.96691 0.06811 0.0
H1979 H 0.26612 0.02215 0.03439 0.0
H1980 H 0.22593 0.07017 0.0765 0.0
H1981 H 0.25312 0.04557 0.06822 0.0
H1982 H 0.20094 0.98118 0.04809 0.0
H1983 H 0.17378 1.0057 0.05718 0.0
C1984 C 0.25936 0.95997 0.05403 0.0
C1985 C 0.27773 0.96854 0.04245 0.0
C1986 C 0.24355 0.9738 0.05874 0.0
C1987 C 0.24578 0.99649 0.05197 0.0
C1988 C 0.26407 1.00491 0.04015 0.0
C1989 C 0.27988 0.99109 0.03544 0.0
C1990 C 0.22028 0.05073 0.07058 0.0
C1991 C 0.1977 0.03988 0.06754 0.0
C1992 C 0.23585 0.03666 0.06554 0.0
C1993 C 0.2292 0.01142 0.0574 0.0
C1994 C 0.20662 1.00055 0.05451 0.0
C1995 C 0.19105 0.01463 0.0595 0.0
H1996 H 0.71645 0.67799 0.01335 0.0
H1997 H 0.73881 0.61112 0.99696 0.0
H1998 H 0.67894 0.65486 0.01335 0.0
H1999 H 0.70128 0.58794 0.99713 0.0
H2000 H 0.62659 0.55448 0.97985 0.0
H2001 H 0.66347 0.57745 0.97603 0.0
H2002 H 0.65937 0.62963 0.039 0.0
H2003 H 0.62292 0.60683 0.04296 0.0
C2004 C 0.71334 0.65834 0.00961 0.0
C2005 C 0.73066 0.64642 1.00526 0.0
C2006 C 0.69184 0.64506 0.00973 0.0
C2007 C 0.68706 0.6195 1.00538 0.0
C2008 C 0.7043 0.60757 1.00036 0.0
C2009 C 0.72585 0.62087 1.0004 0.0
C2010 C 0.6336 0.57076 0.99295 0.0
C2011 C 0.62173 0.57858 0.01183 0.0
C2012 C 0.65476 0.58395 0.99075 0.0
C2013 C 0.66441 0.60546 0.00718 0.0
C2014 C 0.65239 0.61337 0.02583 0.0
C2015 C 0.63143 0.60013 0.02815 0.0
H2016 H 0.74289 0.46207 0.25058 0.0
H2017 H 0.69267 0.42687 0.28856 0.0
H2018 H 0.76159 0.42799 0.24976 0.0
H2019 H 0.71162 0.39332 0.28848 0.0
H2020 H 0.76042 0.34505 0.30621 0.0
H2021 H 0.74219 0.37832 0.30415 0.0
H2022 H 0.76482 0.38334 0.23554 0.0
H2023 H 0.7825 0.34856 0.23713 0.0
C2024 C 0.73558 0.44723 0.25891 0.0
C2025 C 0.7156 0.44836 0.26965 0.0
C2026 C 0.74655 0.42713 0.25836 0.0
C2027 C 0.73886 0.40668 0.26909 0.0
C2028 C 0.71896 0.40799 0.27997 0.0
C2029 C 0.70771 0.42773 0.27997 0.0
C2030 C 0.76175 0.35285 0.29036 0.0
C2031 C 0.77386 0.343 0.27208 0.0
C2032 C 0.75086 0.3725 0.28916 0.0
C2033 C 0.75126 0.3848 0.26967 0.0
C2034 C 0.76361 0.37531 0.25124 0.0
C2035 C 0.77412 0.35491 0.25217 0.0
H2036 H 0.89875 0.476 0.4885 0.0
H2037 H 0.9059 0.48627 0.56528 0.0
H2038 H 0.93815 0.49126 0.4888 0.0
H2039 H 0.94544 0.50204 0.56563 0.0
H2040 H 0.01221 0.4951 0.49705 0.0
H2041 H 0.97269 0.47905 0.49775 0.0
H2042 H 0.97142 0.53706 0.55687 0.0
H2043 H 0.01083 0.55282 0.55605 0.0
C2044 C 0.90871 0.48193 0.50548 0.0
C2045 C 0.89926 0.4801 0.52689 0.0
C2046 C 0.93132 0.49051 0.50564 0.0
C2047 C 0.9449 0.4979 0.52723 0.0
C2048 C 0.93535 0.49667 0.54871 0.0
C2049 C 0.91275 0.48768 0.54853 0.0
C2050 C 1.00331 0.50432 0.51005 0.0
C2051 C 0.01409 0.52543 0.52605 0.0
C2052 C 0.9808 0.49524 0.51048 0.0
C2053 C 0.96893 0.50692 0.52728 0.0
C2054 C 0.98011 0.5276 0.54384 0.0
C2055 C 1.00253 0.53675 0.54323 0.0
H2056 H 0.42132 0.12657 0.29721 0.0
H2057 H 0.36901 0.06716 0.26127 0.0
H2058 H 0.40279 0.1553 0.28223 0.0
H2059 H 0.35079 0.09568 0.24578 0.0
H2060 H 0.31386 0.15394 0.23682 0.0
H2061 H 0.33135 0.12722 0.25612 0.0
H2062 H 0.39523 0.1675 0.24506 0.0
H2063 H 0.37773 0.195 0.22679 0.0
C2064 C 0.40579 0.11967 0.28625 0.0
C2065 C 0.39662 0.09461 0.28042 0.0
C2066 C 0.39526 0.13611 0.27748 0.0
C2067 C 0.37535 0.12784 0.26265 0.0
C2068 C 0.36595 0.10277 0.25737 0.0
C2069 C 0.37644 0.08637 0.26618 0.0
C2070 C 0.33165 0.15733 0.23879 0.0
C2071 C 0.34437 0.17663 0.2302 0.0
C2072 C 0.34169 0.14181 0.24963 0.0
C2073 C 0.36472 0.14509 0.2521 0.0
C2074 C 0.37746 0.16455 0.24372 0.0
C2075 C 0.36742 0.18014 0.23292 0.0
H2076 H 0.37387 0.17572 0.51387 0.0
H2077 H 0.32259 0.11629 0.52386 0.0
H2078 H 0.40116 0.15111 0.51771 0.0
H2079 H 0.34965 0.0921 0.52845 0.0
H2080 H 0.39826 0.04487 0.51501 0.0
H2081 H 0.37288 0.07032 0.50765 0.0
H2082 H 0.42033 0.13376 0.54524 0.0
H2083 H 0.44601 0.10811 0.55204 0.0
C2084 C 0.36842 0.15742 0.51688 0.0
C2085 C 0.346 0.14796 0.51842 0.0
C2086 C 0.3841 0.14333 0.51926 0.0
C2087 C 0.37775 0.11944 0.52329 0.0
C2088 C 0.35527 0.11014 0.52485 0.0
C2089 C 0.33967 0.12413 0.52236 0.0
C2090 C 0.40331 0.06427 0.52168 0.0
C2091 C 0.42411 0.07438 0.53434 0.0
C2092 C 0.38868 0.07892 0.51755 0.0
C2093 C 0.39426 0.1042 0.52614 0.0
C2094 C 0.4154 0.11445 0.53816 0.0
C2095 C 0.43016 0.09973 0.54212 0.0
H2096 H 0.75157 0.58112 0.28158 0.0
H2097 H 0.68992 0.60324 0.27754 0.0
H2098 H 0.77129 0.62292 0.28195 0.0
H2099 H 0.70935 0.64492 0.27838 0.0
H2100 H 0.74672 0.71658 0.26093 0.0
H2101 H 0.72797 0.67493 0.26082 0.0
H2102 H 0.78547 0.66391 0.29907 0.0
H2103 H 0.80431 0.70576 0.29883 0.0
C2104 C 0.74208 0.59483 0.28091 0.0
C2105 C 0.71882 0.58809 0.27952 0.0
C2106 C 0.75353 0.61924 0.28123 0.0
C2107 C 0.7424 0.63835 0.28009 0.0
C2108 C 0.7191 0.63143 0.27886 0.0
C2109 C 0.70771 0.60712 0.27857 0.0
C2110 C 0.75557 0.70546 0.26939 0.0
C2111 C 0.77749 0.71535 0.27973 0.0
C2112 C 0.74455 0.68111 0.26949 0.0
C2113 C 0.75468 0.66496 0.27999 0.0
C2114 C 0.77667 0.6749 0.29038 0.0
C2115 C 0.7877 0.69935 0.29031 0.0
H2116 H 0.90062 0.47845 0.83052 0.0
H2117 H 0.87158 0.48022 0.76075 0.0
H2118 H 0.88268 0.43544 0.82537 0.0
H2119 H 0.85325 0.4373 0.75594 0.0
H2120 H 0.81112 0.36328 0.77147 0.0
H2121 H 0.82417 0.4076 0.77967 0.0
H2122 H 0.89099 0.39927 0.79006 0.0
H2123 H 0.87802 0.35508 0.78144 0.0
C2124 C 0.89002 0.46981 0.81433 0.0
C2125 C 0.8876 0.48259 0.79594 0.0
C2126 C 0.87985 0.44525 0.8114 0.0
C2127 C 0.86673 0.43323 0.79025 0.0
C2128 C 0.86324 0.44631 0.77243 0.0
C2129 C 0.87376 0.47077 0.77516 0.0
C2130 C 0.82853 0.37097 0.77579 0.0
C2131 C 0.84355 0.35589 0.77662 0.0
C2132 C 0.83597 0.39623 0.7803 0.0
C2133 C 0.85849 0.40667 0.78585 0.0
C2134 C 0.8735 0.39156 0.78622 0.0
C2135 C 0.86612 0.36638 0.78116 0.0
H2136 H 0.10843 0.90268 0.12393 0.0
H2137 H 0.07525 0.85765 0.0583 0.0
H2138 H 0.10248 0.93873 0.10996 0.0
H2139 H 0.06889 0.89399 0.04421 0.0
H2140 H 0.07677 0.97009 0.01905 0.0
H2141 H 0.08236 0.93187 0.03007 0.0
H2142 H 0.07617 0.961 0.10346 0.0
H2143 H 0.07085 0.99851 0.0925 0.0
C2144 C 0.09984 0.90034 0.10642 0.0
C2145 C 0.0924 0.8768 0.09246 0.0
C2146 C 0.09618 0.92127 0.09834 0.0
C2147 C 0.08484 0.9199 0.07581 0.0
C2148 C 0.07777 0.89632 0.06156 0.0
C2149 C 0.08139 0.87526 0.06974 0.0
C2150 C 0.07634 0.96818 0.03747 0.0
C2151 C 0.07311 0.9877 0.05477 0.0
C2152 C 0.07962 0.94613 0.04392 0.0
C2153 C 0.08017 0.94287 0.06795 0.0
C2154 C 0.07653 0.9624 0.08491 0.0
C2155 C 0.07322 0.98414 0.07852 0.0
H2156 H 0.94204 0.27406 0.92418 0.0
H2157 H 0.97206 0.26091 0.85876 0.0
H2158 H 0.90876 0.27809 0.90178 0.0
H2159 H 0.93911 0.26527 0.83638 0.0
H2160 H 0.87009 0.25409 0.79861 0.0
H2161 H 0.90191 0.24817 0.82164 0.0
H2162 H 0.89257 0.30286 0.87996 0.0
H2163 H 0.86065 0.30867 0.85679 0.0
C2164 C 0.94157 0.27193 0.905 0.0
C2165 C 0.95995 0.26702 0.89344 0.0
C2166 C 0.92243 0.27445 0.89204 0.0
C2167 C 0.92082 0.27206 0.86697 0.0
C2168 C 0.93921 0.26693 0.85549 0.0
C2169 C 0.95834 0.26452 0.86843 0.0
C2170 C 0.87483 0.26505 0.81622 0.0
C2171 C 0.86268 0.28221 0.82535 0.0
C2172 C 0.89329 0.26165 0.82961 0.0
C2173 C 0.90038 0.27515 0.85289 0.0
C2174 C 0.88784 0.29186 0.8623 0.0
C2175 C 0.86939 0.2953 0.84884 0.0
H2176 H 0.57032 0.23838 0.56268 0.0
H2177 H 0.6096 0.23378 0.62534 0.0
H2178 H 0.56503 0.19424 0.54879 0.0
H2179 H 0.60525 0.19048 0.61132 0.0
H2180 H 0.57277 0.11047 0.59789 0.0
H2181 H 0.58056 0.15435 0.60812 0.0
H2182 H 0.57752 0.15787 0.53341 0.0
H2183 H 0.56873 0.11308 0.52323 0.0
C2184 C 0.57804 0.22808 0.57341 0.0
C2185 C 0.5902 0.23993 0.59538 0.0
C2186 C 0.57511 0.20261 0.56536 0.0
C2187 C 0.58434 0.18809 0.57894 0.0
C2188 C 0.59716 0.20035 0.60044 0.0
C2189 C 0.59986 0.22553 0.60852 0.0
C2190 C 0.57409 0.12052 0.58353 0.0
C2191 C 0.5705 0.10795 0.55972 0.0
C2192 C 0.57872 0.14601 0.58943 0.0
C2193 C 0.57998 0.1604 0.57177 0.0
C2194 C 0.5766 0.14782 0.54773 0.0
C2195 C 0.57188 0.122 0.54179 0.0
H2196 H 0.55728 0.76678 0.3553 0.0
H2197 H 0.60212 0.77634 0.41816 0.0
H2198 H 0.58801 0.77011 0.33104 0.0
H2199 H 0.63307 0.77878 0.39375 0.0
H2200 H 0.68553 0.8069 0.34485 0.0
H2201 H 0.65597 0.80234 0.3711 0.0
H2202 H 0.61399 0.75042 0.31425 0.0
H2203 H 0.64316 0.75572 0.28811 0.0
C2204 C 0.57373 0.76934 0.36394 0.0
C2205 C 0.57713 0.77122 0.38873 0.0
C2206 C 0.59148 0.77108 0.34995 0.0
C2207 C 0.6133 0.77453 0.36019 0.0
C2208 C 0.61667 0.7764 0.38507 0.0
C2209 C 0.59886 0.77483 0.39913 0.0
C2210 C 0.67005 0.79431 0.33813 0.0
C2211 C 0.66669 0.78187 0.31428 0.0
C2212 C 0.65302 0.79164 0.35319 0.0
C2213 C 0.63221 0.77627 0.34487 0.0
C2214 C 0.62938 0.76301 0.3213 0.0
C2215 C 0.64624 0.76588 0.30626 0.0
H2216 H 0.10568 0.2878 0.45557 0.0
H2217 H 0.07841 0.23886 0.3894 0.0
H2218 H 0.09381 0.25539 0.47738 0.0
H2219 H 0.06695 0.20621 0.41114 0.0
H2220 H 0.02412 0.1662 0.46081 0.0
H2221 H 0.03942 0.19607 0.43758 0.0
H2222 H 0.0993 0.21689 0.48529 0.0
H2223 H 0.08356 0.18763 0.50918 0.0
C2224 C 0.0974 0.27001 0.44565 0.0
C2225 C 0.09286 0.26592 0.42078 0.0
C2226 C 0.09071 0.25137 0.45814 0.0
C2227 C 0.07933 0.22818 0.44605 0.0
C2228 C 0.07538 0.22394 0.42106 0.0
C2229 C 0.08206 0.2426 0.40858 0.0
C2230 C 0.04053 0.17719 0.46641 0.0
C2231 C 0.05251 0.17466 0.48701 0.0
C2232 C 0.04943 0.19413 0.45289 0.0
C2233 C 0.0706 0.20896 0.45956 0.0
C2234 C 0.08285 0.20597 0.4798 0.0
C2235 C 0.07392 0.189 0.49335 0.0
H2236 H 0.5777 0.24614 0.17358 0.0
H2237 H 0.56625 0.29242 0.23767 0.0
H2238 H 0.60948 0.23802 0.19459 0.0
H2239 H 0.59859 0.28438 0.25876 0.0
H2240 H 0.67425 0.27987 0.27301 0.0
H2241 H 0.64162 0.29084 0.25598 0.0
H2242 H 0.61269 0.21497 0.22906 0.0
H2243 H 0.6452 0.20401 0.24601 0.0
C2244 C 0.58214 0.25486 0.1921 0.0
C2245 C 0.56941 0.26986 0.20402 0.0
C2246 C 0.60024 0.25002 0.20416 0.0
C2247 C 0.60623 0.26026 0.22835 0.0
C2248 C 0.59421 0.2762 0.2401 0.0
C2249 C 0.57579 0.28083 0.22805 0.0
C2250 C 0.66077 0.26557 0.26368 0.0
C2251 C 0.66226 0.24109 0.26069 0.0
C2252 C 0.64211 0.27184 0.25408 0.0
C2253 C 0.6248 0.25376 0.24105 0.0
C2254 C 0.62594 0.22926 0.23886 0.0
C2255 C 0.64444 0.22298 0.2487 0.0
H2256 H 0.62312 0.90091 0.94945 0.0
H2257 H 0.59619 0.90229 0.87865 0.0
H2258 H 0.61112 0.93798 0.96492 0.0
H2259 H 0.58391 0.93933 0.89428 0.0
H2260 H 0.57942 0.01736 0.93647 0.0
H2261 H 0.59509 0.98406 0.91622 0.0
H2262 H 0.57189 0.94146 0.96837 0.0
H2263 H 0.55624 0.97435 0.98809 0.0
C2264 C 0.61507 0.90942 0.93712 0.0
C2265 C 0.61029 0.89855 0.91294 0.0
C2266 C 0.60807 0.93053 0.94598 0.0
C2267 C 0.59613 0.9411 0.93084 0.0
C2268 C 0.59301 0.93145 0.90631 0.0
C2269 C 0.60004 0.91028 0.89741 0.0
C2270 C 0.57727 1.00055 0.94306 0.0
C2271 C 0.5669 0.99822 0.96382 0.0
C2272 C 0.58636 0.98169 0.93169 0.0
C2273 C 0.58521 0.96052 0.94118 0.0
C2274 C 0.57361 0.95787 0.96113 0.0
C2275 C 0.56454 0.97655 0.97231 0.0
H2276 H 0.9481 0.74138 0.70733 0.0
H2277 H 0.96055 0.81956 0.72731 0.0
H2278 H 0.91303 0.73808 0.72455 0.0
H2279 H 0.92557 0.81626 0.74453 0.0
H2280 H 0.85092 0.80191 0.74241 0.0
H2281 H 0.88717 0.80459 0.72872 0.0
H2282 H 0.89562 0.74462 0.76183 0.0
H2283 H 0.85877 0.74183 0.77536 0.0
C2284 C 0.94344 0.75784 0.71565 0.0
C2285 C 0.95696 0.78075 0.71588 0.0
C2286 C 0.92343 0.75594 0.72564 0.0
C2287 C 0.91652 0.77691 0.73589 0.0
C2288 C 0.93037 0.79978 0.73665 0.0
C2289 C 0.95043 0.80168 0.72684 0.0
C2290 C 0.86054 0.78944 0.74697 0.0
C2291 C 0.85235 0.77214 0.76055 0.0
C2292 C 0.88139 0.79103 0.73919 0.0
C2293 C 0.89443 0.77509 0.74452 0.0
C2294 C 0.88596 0.7572 0.7575 0.0
C2295 C 0.86498 0.75564 0.76531 0.0
H2296 H 0.17406 0.04158 0.86486 0.0
H2297 H 0.11538 0.99241 0.82873 0.0
H2298 H 0.15659 0.0455 0.90206 0.0
H2299 H 0.09761 0.99639 0.86582 0.0
H2300 H 0.07036 0.99545 0.94029 0.0
H2301 H 0.08777 0.99124 0.90307 0.0
H2302 H 0.13518 0.05791 0.93096 0.0
H2303 H 0.11767 0.06189 0.96812 0.0
C2304 C 0.15733 0.03148 0.86457 0.0
C2305 C 0.14665 0.01656 0.84274 0.0
C2306 C 0.14695 0.03387 0.88643 0.0
C2307 C 0.125 0.02144 0.88836 0.0
C2308 C 0.11437 1.00642 0.86641 0.0
C2309 C 0.12475 1.00413 0.84451 0.0
C2310 C 0.08441 1.00945 0.9387 0.0
C2311 C 0.092 0.02919 0.95827 0.0
C2312 C 0.09469 1.00704 0.91675 0.0
C2313 C 0.11354 0.0241 0.91258 0.0
C2314 C 0.12114 0.0438 0.93232 0.0
C2315 C 0.11079 0.04624 0.95421 0.0
H2316 H 0.81866 0.39883 0.58907 0.0
H2317 H 0.8657 0.37395 0.54392 0.0
H2318 H 0.81992 0.3664 0.61112 0.0
H2319 H 0.86678 0.34136 0.56584 0.0
H2320 H 0.87875 0.3055 0.63196 0.0
H2321 H 0.87879 0.33556 0.60651 0.0
H2322 H 0.80783 0.32138 0.60235 0.0
H2323 H 0.80783 0.29149 0.62767 0.0
C2324 C 0.82931 0.38649 0.58393 0.0
C2325 C 0.84201 0.38883 0.56477 0.0
C2326 C 0.82991 0.36782 0.5964 0.0
C2327 C 0.84327 0.35122 0.58998 0.0
C2328 C 0.85639 0.35394 0.57119 0.0
C2329 C 0.85571 0.37255 0.55864 0.0
C2330 C 0.86319 0.30842 0.62506 0.0
C2331 C 0.84331 0.29644 0.63192 0.0
C2332 C 0.8632 0.32566 0.61063 0.0
C2333 C 0.84333 0.33112 0.6029 0.0
C2334 C 0.82341 0.31796 0.60855 0.0
C2335 C 0.8234 0.30077 0.62289 0.0
H2336 H 0.50036 0.06545 0.34798 0.0
H2337 H 0.44075 0.05642 0.38316 0.0
H2338 H 0.52176 0.06621 0.38512 0.0
H2339 H 0.46225 0.05794 0.4206 0.0
H2340 H 0.50147 0.02473 0.47018 0.0
H2341 H 0.4811 0.03024 0.43518 0.0
H2342 H 0.53525 0.08703 0.42555 0.0
H2343 H 0.55608 0.08118 0.46076 0.0
C2344 C 0.49187 0.0641 0.36379 0.0
C2345 C 0.46883 0.0606 0.36261 0.0
C2346 C 0.50418 0.06468 0.38513 0.0
C2347 C 0.49372 0.06185 0.4058 0.0
C2348 C 0.47078 0.05966 0.40488 0.0
C2349 C 0.45845 0.05896 0.38349 0.0
C2350 C 0.50916 0.03846 0.46073 0.0
C2351 C 0.53052 0.05246 0.46831 0.0
C2352 C 0.4973 0.04178 0.4407 0.0
C2353 C 0.50639 0.05926 0.42765 0.0
C2354 C 0.5278 0.0733 0.43513 0.0
C2355 C 0.53975 0.06994 0.45529 0.0
H2356 H 0.81364 0.69108 0.09624 0.0
H2357 H 0.78749 0.75088 0.07987 0.0
H2358 H 0.8144 0.70688 0.13842 0.0
H2359 H 0.78727 0.76645 0.12267 0.0
H2360 H 0.81129 0.79743 0.20462 0.0
H2361 H 0.80802 0.78495 0.16092 0.0
H2362 H 0.79086 0.70977 0.16792 0.0
H2363 H 0.79526 0.72225 0.21092 0.0
C2364 C 0.80787 0.70759 0.10168 0.0
C2365 C 0.80037 0.71957 0.08457 0.0
C2366 C 0.80808 0.71662 0.12603 0.0
C2367 C 0.8004 0.73777 0.1343 0.0
C2368 C 0.79334 0.75017 0.11716 0.0
C2369 C 0.7934 0.7412 0.09258 0.0
C2370 C 0.80642 0.77831 0.19663 0.0
C2371 C 0.80345 0.76079 0.21116 0.0
C2372 C 0.80459 0.77109 0.17158 0.0
C2373 C 0.79975 0.74623 0.16064 0.0
C2374 C 0.79543 0.72901 0.17542 0.0
C2375 C 0.79765 0.73616 0.20019 0.0
H2376 H 0.11295 0.01634 0.71463 0.0
H2377 H 0.17292 0.01248 0.68277 0.0
H2378 H 0.09599 0.0224 0.67702 0.0
H2379 H 0.15623 0.01796 0.64525 0.0
H2380 H 0.12814 0.0369 0.57695 0.0
H2381 H 0.14377 0.03206 0.61501 0.0
H2382 H 0.07916 0.02029 0.63944 0.0
H2383 H 0.06356 0.02564 0.60068 0.0
C2384 C 0.12273 0.01659 0.69967 0.0
C2385 C 0.1448 0.01369 0.70283 0.0
C2386 C 0.11277 0.02013 0.67747 0.0
C2387 C 0.12406 0.02109 0.65653 0.0
C2388 C 0.14614 0.01797 0.65989 0.0
C2389 C 0.15605 0.01451 0.68203 0.0
C2390 C 0.117 0.03348 0.59034 0.0
C2391 C 0.09423 0.03217 0.58467 0.0
C2392 C 0.12619 0.03036 0.61284 0.0
C2393 C 0.11341 0.02524 0.63187 0.0
C2394 C 0.09042 0.02413 0.62631 0.0
C2395 C 0.08116 0.02738 0.60355 0.0
H2396 H 0.85725 0.41677 0.44478 0.0
H2397 H 0.79763 0.37059 0.45925 0.0
H2398 H 0.85673 0.38967 0.40699 0.0
H2399 H 0.79631 0.34393 0.42058 0.0
H2400 H 0.8101 0.29039 0.35729 0.0
H2401 H 0.81319 0.3149 0.39737 0.0
H2402 H 0.83708 0.37968 0.36951 0.0
H2403 H 0.83496 0.35543 0.33027 0.0
C2404 C 0.84381 0.40097 0.43964 0.0
C2405 C 0.82733 0.39588 0.45474 0.0
C2406 C 0.84347 0.38543 0.41796 0.0
C2407 C 0.82636 0.36471 0.4106 0.0
C2408 C 0.80988 0.35956 0.42582 0.0
C2409 C 0.81047 0.37493 0.44781 0.0
C2410 C 0.81616 0.30985 0.35987 0.0
C2411 C 0.82203 0.32096 0.34053 0.0
C2412 C 0.81781 0.32391 0.38277 0.0
C2413 C 0.82533 0.3493 0.38668 0.0
C2414 C 0.8316 0.36018 0.36734 0.0
C2415 C 0.83019 0.34619 0.34466 0.0
H2416 H 0.46836 0.06577 0.22681 0.0
H2417 H 0.49697 0.01913 0.26471 0.0
H2418 H 0.49613 0.06455 0.19886 0.0
H2419 H 0.52531 0.01855 0.2372 0.0
H2420 H 0.55358 0.99979 0.16466 0.0
H2421 H 0.52937 1.00233 0.19653 0.0
H2422 H 0.53439 0.07849 0.19578 0.0
H2423 H 0.55796 0.07559 0.16346 0.0
C2424 C 0.48073 0.05543 0.22927 0.0
C2425 C 0.4805 0.0425 0.24786 0.0
C2426 C 0.49677 0.05488 0.21338 0.0
C2427 C 0.51306 0.04157 0.21588 0.0
C2428 C 0.51288 0.02876 0.23463 0.0
C2429 C 0.49671 0.02917 0.25042 0.0
C2430 C 0.5498 0.01713 0.1717 0.0
C2431 C 0.55742 0.03744 0.16158 0.0
C2432 C 0.53596 0.01863 0.18994 0.0
C2433 C 0.52968 0.04055 0.19847 0.0
C2434 C 0.53844 0.06119 0.18921 0.0
C2435 C 0.55206 0.05961 0.17086 0.0
H2436 H 0.80821 0.68505 0.92772 0.0
H2437 H 0.79993 0.75371 0.96648 0.0
H2438 H 0.81069 0.70132 0.89139 0.0
H2439 H 0.80126 0.76988 0.92979 0.0
H2440 H 0.82115 0.7993 0.86333 0.0
H2441 H 0.82147 0.78405 0.90034 0.0
H2442 H 0.7913 0.71191 0.86129 0.0
H2443 H 0.79258 0.72687 0.82441 0.0
C2444 C 0.80678 0.70366 0.92846 0.0
C2445 C 0.80384 0.71802 0.95011 0.0
C2446 C 0.80799 0.71302 0.90744 0.0
C2447 C 0.80594 0.73701 0.90719 0.0
C2448 C 0.80322 0.75146 0.92902 0.0
C2449 C 0.80232 0.74215 0.95017 0.0
C2450 C 0.81472 0.78013 0.86258 0.0
C2451 C 0.80647 0.76448 0.84061 0.0
C2452 C 0.81468 0.77135 0.884 0.0
C2453 C 0.8063 0.7466 0.88425 0.0
C2454 C 0.79821 0.731 0.86218 0.0
C2455 C 0.7985 0.73973 0.84081 0.0
H2456 H 0.84504 0.10214 0.97678 0.0
H2457 H 0.82472 0.07307 0.0384 0.0
H2458 H 0.8709 0.0758 0.971 0.0
H2459 H 0.85151 0.04729 0.03335 0.0
H2460 H 0.89082 0.9905 0.00685 0.0
H2461 H 0.86161 0.01314 0.00962 0.0
H2462 H 0.90489 0.07325 0.98853 0.0
H2463 H 0.93326 0.05018 0.98428 0.0
C2464 C 0.84624 0.0902 0.98922 0.0
C2465 C 0.83302 0.08981 0.00817 0.0
C2466 C 0.86117 0.07515 0.98599 0.0
C2467 C 0.86357 0.05959 1.00188 0.0
C2468 C 0.84999 0.05886 0.02062 0.0
C2469 C 0.83476 0.07374 0.02365 0.0
C2470 C 0.89391 1.00838 1.00241 0.0
C2471 C 0.91446 0.01855 0.99549 0.0
C2472 C 0.87727 0.02151 1.00432 0.0
C2473 C 0.88084 0.04509 0.99936 0.0
C2474 C 0.90133 0.05504 0.99217 0.0
C2475 C 0.9178 0.0419 0.99008 0.0
H2476 H 0.38949 0.4538 0.07743 0.0
H2477 H 0.39237 0.41591 1.00604 0.0
H2478 H 0.42684 0.47747 0.07759 0.0
H2479 H 0.42888 0.44044 1.00535 0.0
H2480 H 0.50104 0.47047 0.01492 0.0
H2481 H 0.46506 0.44668 0.01811 0.0
H2482 H 0.4504 0.5082 0.06476 0.0
H2483 H 0.48747 0.5314 0.06306 0.0
C2484 C 0.39807 0.4507 0.06168 0.0
C2485 C 0.38806 0.43284 0.0418 0.0
C2486 C 0.41949 0.46443 0.06166 0.0
C2487 C 0.43128 0.46097 0.04155 0.0
C2488 C 0.42087 0.44333 0.02152 0.0
C2489 C 0.39974 0.4293 0.02177 0.0
C2490 C 0.49028 0.47901 0.02601 0.0
C2491 C 0.4972 0.50318 0.03839 0.0
C2492 C 0.46933 0.46533 0.02763 0.0
C2493 C 0.45426 0.47545 0.04124 0.0
C2494 C 0.46137 0.49952 0.05412 0.0
C2495 C 0.48265 0.51306 0.05293 0.0
H2496 H 0.42394 0.65151 0.76187 0.0
H2497 H 0.37284 0.61464 0.79769 0.0
H2498 H 0.40433 0.68441 0.76127 0.0
H2499 H 0.35337 0.648 0.79774 0.0
H2500 H 0.32954 0.72545 0.80904 0.0
H2501 H 0.34787 0.69127 0.81115 0.0
H2502 H 0.37479 0.69976 0.74515 0.0
H2503 H 0.35608 0.73259 0.74261 0.0
C2504 C 0.40854 0.65014 0.76983 0.0
C2505 C 0.40065 0.62927 0.77978 0.0
C2506 C 0.3969 0.66949 0.76941 0.0
C2507 C 0.37649 0.67011 0.77942 0.0
C2508 C 0.36877 0.6494 0.78978 0.0
C2509 C 0.38019 0.62971 0.78969 0.0
C2510 C 0.33906 0.72001 0.79468 0.0
C2511 C 0.34038 0.73276 0.77534 0.0
C2512 C 0.34994 0.69995 0.79591 0.0
C2513 C 0.36367 0.6916 0.77841 0.0
C2514 C 0.36506 0.70469 0.75947 0.0
C2515 C 0.35388 0.72406 0.75796 0.0
H2516 H 0.22603 0.65018 0.48364 0.0
H2517 H 0.23361 0.59383 0.52233 0.0
H2518 H 0.18635 0.63493 0.4787 0.0
H2519 H 0.19374 0.57867 0.51757 0.0
H2520 H 0.12102 0.548 0.48976 0.0
H2521 H 0.16106 0.55966 0.48951 0.0
H2522 H 0.15779 0.63535 0.50516 0.0
H2523 H 0.11792 0.62346 0.50516 0.0
C2524 C 0.21921 0.63443 0.49098 0.0
C2525 C 0.23287 0.62334 0.5036 0.0
C2526 C 0.19646 0.62578 0.48826 0.0
C2527 C 0.18687 0.60586 0.49812 0.0
C2528 C 0.20063 0.59407 0.50981 0.0
C2529 C 0.22344 0.60278 0.51259 0.0
C2530 C 0.12906 0.56707 0.49343 0.0
C2531 C 0.11683 0.58495 0.49855 0.0
C2532 C 0.15187 0.57375 0.49318 0.0
C2533 C 0.16261 0.59842 0.49741 0.0
C2534 C 0.15003 0.6162 0.50162 0.0
C2535 C 0.12731 0.60948 0.50199 0.0
H2536 H 0.74641 0.01736 0.80394 0.0
H2537 H 0.68965 0.96287 0.76948 0.0
H2538 H 0.76192 0.98633 0.81805 0.0
H2539 H 0.70566 0.9314 0.7826 0.0
H2540 H 0.7292 0.88541 0.83221 0.0
H2541 H 0.71337 0.91567 0.81677 0.0
H2542 H 0.77847 0.95385 0.80681 0.0
H2543 H 0.79432 0.92488 0.82396 0.0
C2544 C 0.73743 0.99863 0.79901 0.0
C2545 C 0.71684 0.99254 0.7856 0.0
C2546 C 0.74637 0.98075 0.80701 0.0
C2547 C 0.73511 0.95622 0.80147 0.0
C2548 C 0.71466 0.9501 0.78757 0.0
C2549 C 0.70556 0.96809 0.77984 0.0
C2550 C 0.74016 0.90045 0.82703 0.0
C2551 C 0.76308 0.90263 0.82942 0.0
C2552 C 0.73104 0.91763 0.81779 0.0
C2553 C 0.7446 0.93733 0.81052 0.0
C2554 C 0.76747 0.93923 0.81257 0.0
C2555 C 0.77658 0.92229 0.82208 0.0
H2556 H 0.79855 0.96556 0.53104 0.0
H2557 H 0.74711 0.90386 0.5352 0.0
H2558 H 0.7714 0.98989 0.52777 0.0
H2559 H 0.71968 0.92857 0.53283 0.0
H2560 H 0.67498 0.97466 0.50343 0.0
H2561 H 0.70067 0.94838 0.50788 0.0
H2562 H 0.7478 0.00991 0.54938 0.0
H2563 H 0.72248 0.03601 0.54419 0.0
C2564 C 0.78139 0.95722 0.5315 0.0
C2565 C 0.77506 0.93274 0.53347 0.0
C2566 C 0.76573 0.97129 0.5298 0.0
C2567 C 0.74317 0.96145 0.53028 0.0
C2568 C 0.7368 0.93684 0.53217 0.0
C2569 C 0.75255 0.92266 0.53368 0.0
C2570 C 0.69077 0.98245 0.51368 0.0
C2571 C 0.69676 1.0075 0.5232 0.0
C2572 C 0.70554 0.96737 0.51629 0.0
C2573 C 0.72661 0.97694 0.52871 0.0
C2574 C 0.73209 1.00186 0.53908 0.0
C2575 C 0.71748 0.01689 0.53624 0.0
H2576 H 0.37068 0.49163 0.74955 0.0
H2577 H 0.42318 0.48247 0.79662 0.0
H2578 H 0.35126 0.44975 0.7486 0.0
H2579 H 0.40371 0.44126 0.79675 0.0
H2580 H 0.37219 0.3604 0.78632 0.0
H2581 H 0.39131 0.40157 0.78557 0.0
H2582 H 0.33061 0.41672 0.75867 0.0
H2583 H 0.31194 0.37491 0.7583 0.0
C2584 C 0.37815 0.48082 0.75988 0.0
C2585 C 0.39888 0.49112 0.77308 0.0
C2586 C 0.36679 0.45636 0.75951 0.0
C2587 C 0.37534 0.44074 0.77252 0.0
C2588 C 0.39606 0.45142 0.78587 0.0
C2589 C 0.40746 0.47568 0.786 0.0
C2590 C 0.36275 0.37236 0.78015 0.0
C2591 C 0.34005 0.36351 0.77258 0.0
C2592 C 0.3739 0.39665 0.7799 0.0
C2593 C 0.36307 0.41394 0.77231 0.0
C2594 C 0.34028 0.4049 0.76459 0.0
C2595 C 0.3292 0.38046 0.7646 0.0
H2596 H 0.25637 0.60283 0.273 0.0
H2597 H 0.19582 0.62739 0.26591 0.0
H2598 H 0.27732 0.64489 0.27882 0.0
H2599 H 0.21675 0.66927 0.27156 0.0
H2600 H 0.26487 0.73722 0.25733 0.0
H2601 H 0.24432 0.69502 0.25005 0.0
H2602 H 0.28078 0.68325 0.31167 0.0
H2603 H 0.30132 0.72565 0.31897 0.0
C2604 C 0.24757 0.61717 0.27246 0.0
C2605 C 0.22447 0.61186 0.26904 0.0
C2606 C 0.25953 0.6412 0.27595 0.0
C2607 C 0.24862 0.66029 0.27576 0.0
C2608 C 0.22557 0.65489 0.27168 0.0
C2609 C 0.21361 0.63093 0.26851 0.0
C2610 C 0.26857 0.72553 0.2692 0.0
C2611 C 0.28506 0.73434 0.28831 0.0
C2612 C 0.25671 0.70149 0.26515 0.0
C2613 C 0.26115 0.68583 0.28015 0.0
C2614 C 0.27734 0.69484 0.29959 0.0
C2615 C 0.28899 0.71902 0.30383 0.0
H2616 H 0.54351 0.72273 0.49441 0.0
H2617 H 0.5132 0.679 0.42702 0.0
H2618 H 0.54989 0.6861 0.50785 0.0
H2619 H 0.51925 0.6426 0.44033 0.0
H2620 H 0.55116 0.58272 0.45871 0.0
H2621 H 0.54532 0.62016 0.44774 0.0
H2622 H 0.53622 0.64779 0.52065 0.0
H2623 H 0.54222 0.60976 0.5316 0.0
C2624 C 0.53802 0.70534 0.48242 0.0
C2625 C 0.52776 0.70429 0.45944 0.0
C2626 C 0.54164 0.68409 0.49023 0.0
C2627 C 0.53537 0.66075 0.47534 0.0
C2628 C 0.52487 0.65985 0.45249 0.0
C2629 C 0.52116 0.68098 0.44478 0.0
C2630 C 0.54802 0.59676 0.47257 0.0
C2631 C 0.54762 0.59293 0.49621 0.0
C2632 C 0.54443 0.61845 0.46617 0.0
C2633 C 0.53997 0.63762 0.48303 0.0
C2634 C 0.5397 0.63392 0.50689 0.0
C2635 C 0.54324 0.61195 0.5133 0.0
H2636 H 0.65085 0.33696 0.70089 0.0
H2637 H 0.67494 0.30489 0.63673 0.0
H2638 H 0.68361 0.33326 0.72437 0.0
H2639 H 0.70767 0.3009 0.66025 0.0
H2640 H 0.75078 0.27272 0.71417 0.0
H2641 H 0.71916 0.27783 0.68977 0.0
H2642 H 0.72385 0.34876 0.73281 0.0
H2643 H 0.75577 0.34398 0.75667 0.0
C2644 C 0.66322 0.3293 0.69169 0.0
C2645 C 0.6601 0.32141 0.66674 0.0
C2646 C 0.68214 0.32719 0.70524 0.0
C2647 C 0.69856 0.31668 0.69443 0.0
C2648 C 0.69547 0.30887 0.66942 0.0
C2649 C 0.67669 0.31137 0.65582 0.0
C2650 C 0.74518 0.28948 0.71849 0.0
C2651 C 0.75591 0.3077 0.73796 0.0
C2652 C 0.72696 0.29246 0.70433 0.0
C2653 C 0.71855 0.31368 0.70921 0.0
C2654 C 0.72939 0.33196 0.72857 0.0
C2655 C 0.7478 0.32913 0.74247 0.0
H2656 H 0.05129 0.35368 0.9364 0.0
H2657 H 0.01498 0.34002 0.99602 0.0
H2658 H 0.05672 0.39708 0.95071 0.0
H2659 H 0.0201 0.38415 0.01039 0.0
H2660 H 0.05369 0.46865 0.03839 0.0
H2661 H 0.04561 0.42386 0.02751 0.0
H2662 H 0.03744 0.42836 0.95328 0.0
H2663 H 0.04582 0.47237 0.96412 0.0
C2664 C 0.04435 0.35989 0.95263 0.0
C2665 C 0.03256 0.34297 0.96486 0.0
C2666 C 0.04733 0.38506 0.96084 0.0
C2667 C 0.03859 0.39466 0.98166 0.0
C2668 C 0.02718 0.37776 0.99433 0.0
C2669 C 0.02416 0.35233 0.98603 0.0
C2670 C 0.04978 0.45996 0.01981 0.0
C2671 C 0.05035 0.47428 1.00215 0.0
C2672 C 0.04519 0.43419 0.01349 0.0
C2673 C 0.04128 0.42204 0.98933 0.0
C2674 C 0.04096 0.43661 0.97199 0.0
C2675 C 0.04555 0.46207 0.97825 0.0
H2676 H 0.06179 0.81711 0.19788 0.0
H2677 H 0.0178 0.80492 0.13389 0.0
H2678 H 0.03056 0.81347 0.22144 0.0
H2679 H 0.98635 0.80214 0.15755 0.0
H2680 H 0.93346 0.77353 0.20573 0.0
H2681 H 0.96355 0.77849 0.18019 0.0
H2682 H 1.00358 0.83243 0.23697 0.0
H2683 H 0.97389 0.82675 0.26242 0.0
C2684 C 0.04542 0.81391 0.18883 0.0
C2685 C 0.0424 0.81138 0.16394 0.0
C2686 C 0.02738 0.81198 0.20241 0.0
C2687 C 1.00564 0.80766 0.19162 0.0
C2688 C 1.00267 0.80518 0.16664 0.0
C2689 C 0.02077 0.80696 0.15302 0.0
C2690 C 0.94861 0.78665 0.21257 0.0
C2691 C 0.95129 0.79956 0.23622 0.0
C2692 C 0.96596 0.78955 0.19792 0.0
C2693 C 0.98639 0.80562 0.20646 0.0
C2694 C 0.98851 0.81932 0.22979 0.0
C2695 C 0.97134 0.81623 0.24442 0.0
H2696 H 0.52301 0.28296 0.09252 0.0
H2697 H 0.52153 0.3466 0.14503 0.0
H2698 H 0.53107 0.30809 0.06275 0.0
H2699 H 0.52979 0.37189 0.11511 0.0
H2700 H 0.51969 0.40362 0.04799 0.0
H2701 H 0.51163 0.37835 0.07768 0.0
H2702 H 0.56125 0.33965 0.05389 0.0
H2703 H 0.5696 0.36521 0.02434 0.0
C2704 C 0.52445 0.30236 0.09773 0.0
C2705 C 0.52161 0.31282 0.12113 0.0
C2706 C 0.5292 0.31676 0.08067 0.0
C2707 C 0.5311 0.34196 0.08657 0.0
C2708 C 0.52822 0.35247 0.10998 0.0
C2709 C 0.5236 0.33804 0.12714 0.0
C2710 C 0.52902 0.38984 0.04918 0.0
C2711 C 0.54543 0.38657 0.03388 0.0
C2712 C 0.52439 0.37539 0.06622 0.0
C2713 C 0.53592 0.35715 0.06827 0.0
C2714 C 0.55197 0.35346 0.05263 0.0
C2715 C 0.5567 0.36803 0.03563 0.0
H2716 H 0.03361 0.3408 0.38012 0.0
H2717 H 0.05365 0.30778 0.3136 0.0
H2718 H 1.00189 0.34887 0.35864 0.0
H2719 H 0.02171 0.3158 0.29208 0.0
H2720 H 0.94675 0.31157 0.27016 0.0
H2721 H 0.9797 0.30296 0.289 0.0
H2722 H 0.99683 0.37642 0.32943 0.0
H2723 H 0.96384 0.38499 0.31064 0.0
C2724 C 0.03109 0.33501 0.36093 0.0
C2725 C 0.04608 0.32364 0.34852 0.0
C2726 C 0.01307 0.33986 0.34864 0.0
C2727 C 0.00953 0.33321 0.32371 0.0
C2728 C 0.02409 0.3211 0.31132 0.0
C2729 C 0.04231 0.3165 0.32361 0.0
C2730 C 0.95773 0.32592 0.28288 0.0
C2731 C 0.95278 0.34891 0.28904 0.0
C2732 C 0.97657 0.32103 0.29357 0.0
C2733 C 0.99065 0.33896 0.31081 0.0
C2734 C 0.98608 0.3622 0.31638 0.0
C2735 C 0.96738 0.36717 0.30548 0.0
H2736 H 0.99378 0.70454 0.63144 0.0
H2737 H 0.05975 0.74565 0.6296 0.0
H2738 H 1.00238 0.6695 0.60597 0.0
H2739 H 0.06824 0.71073 0.60384 0.0
H2740 H 0.08176 0.63434 0.58189 0.0
H2741 H 0.07329 0.66983 0.6067 0.0
H2742 H 0.01062 0.65677 0.56486 0.0
H2743 H 0.01892 0.62123 0.54024 0.0
C2744 C 0.01006 0.70612 0.62545 0.0
C2745 C 0.0261 0.72777 0.63247 0.0
C2746 C 0.01495 0.68612 0.6108 0.0
C2747 C 0.03599 0.68739 0.60295 0.0
C2748 C 0.05198 0.70913 0.60986 0.0
C2749 C 0.04707 0.72915 0.62446 0.0
C2750 C 0.06619 0.63907 0.57797 0.0
C2751 C 0.05095 0.6249 0.5592 0.0
C2752 C 0.0614 0.65945 0.5921 0.0
C2753 C 0.04127 0.66602 0.58774 0.0
C2754 C 0.02612 0.65194 0.56886 0.0
C2755 C 0.03092 0.6316 0.55472 0.0
H2756 H 0.64709 0.81365 0.82105 0.0
H2757 H 0.68739 0.83247 0.88845 0.0
H2758 H 0.68015 0.81446 0.80004 0.0
H2759 H 0.72035 0.83296 0.86739 0.0
H2760 H 0.76612 0.79565 0.81991 0.0
H2761 H 0.7338 0.79894 0.84086 0.0
H2762 H 0.71612 0.84562 0.79514 0.0
H2763 H 0.74897 0.8425 0.77412 0.0
C2764 C 0.663 0.81789 0.83135 0.0
C2765 C 0.6647 0.82279 0.85637 0.0
C2766 C 0.68187 0.81855 0.81933 0.0
C2767 C 0.7027 0.82372 0.83214 0.0
C2768 C 0.70442 0.82878 0.85714 0.0
C2769 C 0.68559 0.82848 0.86916 0.0
C2770 C 0.75527 0.80648 0.81419 0.0
C2771 C 0.75957 0.81826 0.79495 0.0
C2772 C 0.73692 0.80855 0.82635 0.0
C2773 C 0.7225 0.82246 0.81954 0.0
C2774 C 0.72695 0.8346 0.80054 0.0
C2775 C 0.74561 0.83283 0.78856 0.0
H2776 H 0.50143 0.58709 0.72287 0.0
H2777 H 0.44488 0.53395 0.68724 0.0
H2778 H 0.51959 0.58348 0.68605 0.0
H2779 H 0.4627 0.5304 0.65026 0.0
H2780 H 0.5024 0.51625 0.58436 0.0
H2781 H 0.48432 0.51976 0.62112 0.0
H2782 H 0.53001 0.58769 0.64913 0.0
H2783 H 0.54783 0.58398 0.61225 0.0
C2784 C 0.4926 0.57456 0.70725 0.0
C2785 C 0.47118 0.56092 0.7091 0.0
C2786 C 0.50321 0.57247 0.68548 0.0
C2787 C 0.49331 0.5565 0.66371 0.0
C2788 C 0.47182 0.54286 0.66573 0.0
C2789 C 0.46122 0.545 0.68747 0.0
C2790 C 0.50873 0.53212 0.59817 0.0
C2791 C 0.52723 0.54965 0.59423 0.0
C2792 C 0.49807 0.53426 0.61989 0.0
C2793 C 0.50504 0.55413 0.63961 0.0
C2794 C 0.52356 0.57169 0.63553 0.0
C2795 C 0.53415 0.56955 0.61377 0.0
H2796 H 0.81604 0.20496 0.97633 0.0
H2797 H 0.76911 0.14283 0.9357 0.0
H2798 H 0.81136 0.22774 0.94495 0.0
H2799 H 0.76348 0.16572 0.90512 0.0
H2800 H 0.76114 0.20693 0.84719 0.0
H2801 H 0.77596 0.18432 0.87412 0.0
H2802 H 0.78452 0.24666 0.9316 0.0
H2803 H 0.77091 0.26942 0.90418 0.0
C2804 C 0.80486 0.19615 0.9606 0.0
C2805 C 0.79284 0.17222 0.95849 0.0
C2806 C 0.80203 0.20922 0.9427 0.0
C2807 C 0.78685 0.19872 0.92254 0.0
C2808 C 0.77558 0.17438 0.9201 0.0
C2809 C 0.77868 0.16124 0.93777 0.0
C2810 C 0.76652 0.21575 0.86554 0.0
C2811 C 0.76477 0.23972 0.87381 0.0
C2812 C 0.7749 0.20284 0.88102 0.0
C2813 C 0.78121 0.2135 0.90519 0.0
C2814 C 0.78017 0.23789 0.9131 0.0
C2815 C 0.7722 0.25092 0.89748 0.0
H2816 H 0.18094 0.5472 0.18492 0.0
H2817 H 0.12634 0.50109 0.20887 0.0
H2818 H 0.15882 0.54517 0.14798 0.0
H2819 H 0.10434 0.49814 0.17139 0.0
H2820 H 0.06403 0.52576 0.116 0.0
H2821 H 0.08559 0.5221 0.1515 0.0
H2822 H 0.14212 0.52108 0.11157 0.0
H2823 H 0.12082 0.52574 0.07669 0.0
C2824 C 0.16435 0.53615 0.18203 0.0
C2825 C 0.15537 0.52435 0.19979 0.0
C2826 C 0.15163 0.53489 0.16077 0.0
C2827 C 0.12968 0.52153 0.15662 0.0
C2828 C 0.12101 0.50895 0.1741 0.0
C2829 C 0.13368 0.51044 0.19549 0.0
C2830 C 0.08097 0.52462 0.11482 0.0
C2831 C 0.09077 0.52662 0.09366 0.0
C2832 C 0.09339 0.52237 0.13515 0.0
C2833 C 0.11579 0.52165 0.13459 0.0
C2834 C 0.12516 0.52232 0.11297 0.0
C2835 C 0.11287 0.52495 0.09287 0.0
H2836 H 0.79901 0.82493 0.4649 0.0
H2837 H 0.84846 0.88742 0.4582 0.0
H2838 H 0.79777 0.80903 0.42195 0.0
H2839 H 0.84796 0.87131 0.41601 0.0
H2840 H 0.81806 0.85694 0.33938 0.0
H2841 H 0.8234 0.86815 0.3824 0.0
H2842 H 0.81542 0.79258 0.38715 0.0
H2843 H 0.80937 0.7813 0.34329 0.0
C2844 C 0.80984 0.83507 0.45436 0.0
C2845 C 0.82354 0.85767 0.46494 0.0
C2846 C 0.80925 0.82589 0.42974 0.0
C2847 C 0.8225 0.83903 0.41523 0.0
C2848 C 0.83703 0.86094 0.42629 0.0
C2849 C 0.8374 0.87018 0.45062 0.0
C2850 C 0.8178 0.84269 0.34956 0.0
C2851 C 0.81376 0.8183 0.3379 0.0
C2852 C 0.82098 0.84912 0.37435 0.0
C2853 C 0.82008 0.83137 0.38854 0.0
C2854 C 0.81616 0.80679 0.37689 0.0
C2855 C 0.813 0.8003 0.35178 0.0
H2856 H 0.50381 0.55783 0.83416 0.0
H2857 H 0.44765 0.57158 0.86945 0.0
H2858 H 0.52139 0.55228 0.8717 0.0
H2859 H 0.46505 0.56669 0.90686 0.0
H2860 H 0.4925 0.54678 0.97453 0.0
H2861 H 0.47645 0.55084 0.93645 0.0
H2862 H 0.53987 0.55664 0.90936 0.0
H2863 H 0.55596 0.55199 0.94827 0.0
C2864 C 0.49504 0.5599 0.84986 0.0
C2865 C 0.47381 0.56536 0.84773 0.0
C2866 C 0.50537 0.55666 0.87198 0.0
C2867 C 0.49528 0.55859 0.89379 0.0
C2868 C 0.47409 0.56431 0.89146 0.0
C2869 C 0.46381 0.56746 0.86941 0.0
C2870 C 0.50332 0.54874 0.96058 0.0
C2871 C 0.52592 0.54877 0.96561 0.0
C2872 C 0.49388 0.55144 0.93808 0.0
C2873 C 0.50623 0.55472 0.91836 0.0
C2874 C 0.52899 0.5543 0.92315 0.0
C2875 C 0.53852 0.55149 0.94596 0.0
H2876 H 0.76463 0.15813 0.0923 0.0
H2877 H 0.82422 0.20598 0.0801 0.0
H2878 H 0.76373 0.18459 0.13012 0.0
H2879 H 0.82385 0.23223 0.11871 0.0
H2880 H 0.80541 0.28496 0.18052 0.0
H2881 H 0.80468 0.26044 0.1408 0.0
H2882 H 0.78259 0.19526 0.16856 0.0
H2883 H 0.78279 0.2195 0.20761 0.0
C2884 C 0.77772 0.1742 0.09787 0.0
C2885 C 0.79461 0.17986 0.08333 0.0
C2886 C 0.77725 0.18938 0.11962 0.0
C2887 C 0.7938 0.2105 0.12761 0.0
C2888 C 0.8107 0.21626 0.113 0.0
C2889 C 0.81105 0.20112 0.09101 0.0
C2890 C 0.80034 0.26539 0.17805 0.0
C2891 C 0.79449 0.25422 0.19738 0.0
C2892 C 0.80002 0.25133 0.15532 0.0
C2893 C 0.79369 0.22583 0.15145 0.0
C2894 C 0.78728 0.21483 0.17071 0.0
C2895 C 0.78752 0.22881 0.19327 0.0
H2896 H 0.17656 0.57693 0.34851 0.0
H2897 H 0.11791 0.54278 0.3008 0.0
H2898 H 0.1541 0.5936 0.37783 0.0
H2899 H 0.09549 0.55951 0.33013 0.0
H2900 H 0.06229 0.57677 0.39911 0.0
H2901 H 0.0845 0.55712 0.37145 0.0
H2902 H 0.13148 0.62538 0.37864 0.0
H2903 H 0.10947 0.64493 0.40658 0.0
C2904 C 0.15886 0.57275 0.34442 0.0
C2905 C 0.14896 0.55866 0.32237 0.0
C2906 C 0.14605 0.58242 0.36111 0.0
C2907 C 0.12311 0.57801 0.35612 0.0
C2908 C 0.11313 0.5631 0.33446 0.0
C2909 C 0.12596 0.55359 0.31768 0.0
C2910 C 0.07739 0.58753 0.39479 0.0
C2911 C 0.08418 0.61237 0.40491 0.0
C2912 C 0.09001 0.57632 0.3789 0.0
C2913 C 0.10973 0.58972 0.37303 0.0
C2914 C 0.11647 0.61458 0.3831 0.0
C2915 C 0.10376 0.62582 0.39882 0.0
H2916 H 0.84172 0.89354 0.62174 0.0
H2917 H 0.79731 0.82815 0.5838 0.0
H2918 H 0.83926 0.878 0.65846 0.0
H2919 H 0.79387 0.81284 0.62089 0.0
H2920 H 0.8058 0.78255 0.6884 0.0
H2921 H 0.80926 0.79671 0.65076 0.0
H2922 H 0.81771 0.87071 0.68865 0.0
H2923 H 0.81502 0.85653 0.726 0.0
C2924 C 0.83125 0.87584 0.62126 0.0
C2925 C 0.81969 0.86217 0.59971 0.0
C2926 C 0.82965 0.86692 0.64251 0.0
C2927 C 0.81615 0.8441 0.64311 0.0
C2928 C 0.80468 0.83032 0.6214 0.0
C2929 C 0.80652 0.83917 0.60002 0.0
C2930 C 0.80847 0.80186 0.68866 0.0
C2931 C 0.81048 0.81839 0.71043 0.0
C2932 C 0.81033 0.81005 0.66696 0.0
C2933 C 0.81397 0.83504 0.66628 0.0
C2934 C 0.81556 0.85143 0.68814 0.0
C2935 C 0.81397 0.84326 0.70978 0.0
H2936 H 0.75906 0.44434 0.51749 0.0
H2937 H 0.80541 0.51063 0.55033 0.0
H2938 H 0.72869 0.46403 0.52627 0.0
H2939 H 0.77495 0.53066 0.5586 0.0
H2940 H 0.71427 0.54543 0.59658 0.0
H2941 H 0.74595 0.52921 0.58472 0.0
H2942 H 0.71037 0.49448 0.51624 0.0
H2943 H 0.67834 0.50988 0.52852 0.0
C2944 C 0.76276 0.46324 0.52635 0.0
C2945 C 0.7846 0.47592 0.53333 0.0
C2946 C 0.74534 0.47459 0.53123 0.0
C2947 C 0.74936 0.49895 0.54312 0.0
C2948 C 0.77127 0.51179 0.54968 0.0
C2949 C 0.78872 0.50037 0.54487 0.0
C2950 C 0.71322 0.53431 0.579 0.0
C2951 C 0.69372 0.52873 0.56359 0.0
C2952 C 0.73147 0.52525 0.57208 0.0
C2953 C 0.73067 0.51041 0.54957 0.0
C2954 C 0.71143 0.50557 0.53384 0.0
C2955 C 0.69316 0.51462 0.54076 0.0
H2956 H 0.2195 0.18212 0.52766 0.0
H2957 H 0.23934 0.11553 0.50035 0.0
H2958 H 0.1821 0.15918 0.52865 0.0
H2959 H 0.20208 0.09251 0.50175 0.0
H2960 H 0.12796 0.06116 0.48581 0.0
H2961 H 0.16475 0.08454 0.4833 0.0
H2962 H 0.16159 0.13121 0.55042 0.0
H2963 H 0.12475 0.10796 0.55283 0.0
C2964 C 0.21587 0.16258 0.52185 0.0
C2965 C 0.23241 0.15067 0.51393 0.0
C2966 C 0.19444 0.14938 0.52257 0.0
C2967 C 0.189 0.12393 0.51536 0.0
C2968 C 0.20554 0.11209 0.50718 0.0
C2969 C 0.22697 0.12528 0.50649 0.0
C2970 C 0.13515 0.07625 0.50016 0.0
C2971 C 0.12341 0.08237 0.5197 0.0
C2972 C 0.15631 0.0897 0.49871 0.0
C2973 C 0.16628 0.10977 0.51669 0.0
C2974 C 0.1544 0.11607 0.53609 0.0
C2975 C 0.13326 0.10259 0.53755 0.0
H2976 H 0.18933 0.92442 0.78916 0.0
H2977 H 0.24384 0.96177 0.75811 0.0
H2978 H 0.20802 0.8909 0.79068 0.0
H2979 H 0.26238 0.9278 0.75892 0.0
H2980 H 0.28461 0.84955 0.74778 0.0
H2981 H 0.26729 0.88431 0.74504 0.0
H2982 H 0.23634 0.87463 0.80864 0.0
H2983 H 0.2542 0.84125 0.81192 0.0
C2984 C 0.2053 0.92577 0.78245 0.0
C2985 C 0.21443 0.94698 0.77352 0.0
C2986 C 0.21639 0.90606 0.78341 0.0
C2987 C 0.23744 0.90537 0.77498 0.0
C2988 C 0.24642 0.92643 0.76564 0.0
C2989 C 0.23554 0.94647 0.76523 0.0
C2990 C 0.27447 0.85487 0.76153 0.0
C2991 C 0.27176 0.84162 0.78045 0.0
C2992 C 0.26414 0.87525 0.75991 0.0
C2993 C 0.24962 0.88347 0.77651 0.0
C2994 C 0.2468 0.86985 0.79501 0.0
C2995 C 0.25746 0.85015 0.79696 0.0
H2996 H 0.39852 0.98178 0.06186 0.0
H2997 H 0.38385 0.96308 0.98537 0.0
H2998 H 0.43672 0.99839 0.05716 0.0
H2999 H 0.42227 0.98023 0.98062 0.0
H3000 H 0.49818 0.98478 0.98545 0.0
H3001 H 0.45861 0.97012 0.9877 0.0
H3002 H 0.45971 0.03172 0.0439 0.0
H3003 H 0.49897 0.04576 0.04189 0.0
C3004 C 0.4034 0.9816 0.04402 0.0
C3005 C 0.38822 0.97115 0.02399 0.0
C3006 C 0.4253 0.99117 0.04132 0.0
C3007 C 0.43252 0.99056 0.01851 0.0
C3008 C 0.41721 0.98068 0.99841 0.0
C3009 C 0.39522 0.9711 1.00113 0.0
C3010 C 0.48974 0.99511 0.99807 0.0
C3011 C 0.50124 0.01656 0.01312 0.0
C3012 C 0.46719 0.98687 0.99932 0.0
C3013 C 0.45606 0.99981 0.01597 0.0
C3014 C 0.46782 0.02124 0.03105 0.0
C3015 C 0.49021 0.02945 0.0297 0.0
H3016 H 0.92409 0.62964 0.78383 0.0
H3017 H 0.86329 0.58037 0.79015 0.0
H3018 H 0.90341 0.65614 0.76815 0.0
H3019 H 0.84257 0.60625 0.77363 0.0
H3020 H 0.80931 0.66419 0.75618 0.0
H3021 H 0.83117 0.64351 0.77849 0.0
H3022 H 0.88272 0.65578 0.73207 0.0
H3023 H 0.86148 0.67786 0.71078 0.0
C3024 C 0.90628 0.6246 0.78205 0.0
C3025 C 0.8953 0.6029 0.78812 0.0
C3026 C 0.89441 0.63966 0.77286 0.0
C3027 C 0.87129 0.63324 0.7693 0.0
C3028 C 0.86033 0.61198 0.77633 0.0
C3029 C 0.87221 0.59704 0.78574 0.0
C3030 C 0.82549 0.66292 0.751 0.0
C3031 C 0.83357 0.67266 0.73157 0.0
C3032 C 0.83794 0.65075 0.76364 0.0
C3033 C 0.8587 0.6478 0.75706 0.0
C3034 C 0.86693 0.65791 0.73789 0.0
C3035 C 0.85457 0.67027 0.72538 0.0
H3036 H 0.83085 0.61739 0.99118 0.0
H3037 H 0.87103 0.67977 0.03898 0.0
H3038 H 0.85861 0.59415 0.9966 0.0
H3039 H 0.89859 0.6562 0.04535 0.0
H3040 H 0.95163 0.61164 0.0411 0.0
H3041 H 0.92634 0.63637 0.03064 0.0
H3042 H 0.87179 0.57483 0.02488 0.0
H3043 H 0.897 0.55 0.0338 0.0
C3044 C 0.84567 0.62617 1.00288 0.0
C3045 C 0.84864 0.65042 0.01472 0.0
C3046 C 0.86159 0.61274 1.00618 0.0
C3047 C 0.88088 0.62302 0.02174 0.0
C3048 C 0.88414 0.6476 0.03306 0.0
C3049 C 0.86826 0.66114 0.02951 0.0
C3050 C 0.93428 0.60328 0.03717 0.0
C3051 C 0.92646 0.57876 0.03851 0.0
C3052 C 0.91968 0.61759 0.03147 0.0
C3053 C 0.89684 0.60778 0.02692 0.0
C3054 C 0.88919 0.58314 0.02788 0.0
C3055 C 0.90372 0.56888 0.03341 0.0
H3056 H 0.25087 0.07947 0.78244 0.0
H3057 H 0.18927 0.10177 0.77893 0.0
H3058 H 0.27064 0.12136 0.78328 0.0
H3059 H 0.20877 0.14353 0.78018 0.0
H3060 H 0.24647 0.21551 0.76335 0.0
H3061 H 0.22758 0.17374 0.76273 0.0
H3062 H 0.28471 0.16225 0.80125 0.0
H3063 H 0.30364 0.20421 0.80162 0.0
C3064 C 0.2414 0.09324 0.78197 0.0
C3065 C 0.21814 0.08652 0.7806 0.0
C3066 C 0.25288 0.11768 0.78257 0.0
C3067 C 0.24178 0.13687 0.78172 0.0
C3068 C 0.21848 0.12998 0.78047 0.0
C3069 C 0.20706 0.10563 0.77993 0.0
C3070 C 0.25519 0.20426 0.77179 0.0
C3071 C 0.27704 0.21404 0.78239 0.0
C3072 C 0.2441 0.17985 0.77157 0.0
C3073 C 0.25411 0.16354 0.78197 0.0
C3074 C 0.27602 0.17337 0.79262 0.0
C3075 C 0.2871 0.19788 0.79288 0.0
H3076 H 0.39141 0.97177 0.32024 0.0
H3077 H 0.3984 0.96689 0.24514 0.0
H3078 H 0.37187 0.92921 0.3125 0.0
H3079 H 0.37914 0.92442 0.23744 0.0
H3080 H 0.32266 0.85723 0.23011 0.0
H3081 H 0.34281 0.89956 0.23749 0.0
H3082 H 0.37832 0.88842 0.30014 0.0
H3083 H 0.35768 0.84624 0.29293 0.0
C3084 C 0.38875 0.96161 0.30209 0.0
C3085 C 0.39639 0.97268 0.2833 0.0
C3086 C 0.3777 0.93719 0.29767 0.0
C3087 C 0.37396 0.92336 0.27434 0.0
C3088 C 0.38153 0.93455 0.25557 0.0
C3089 C 0.39264 0.9589 0.26 0.0
C3090 C 0.33473 0.86396 0.24548 0.0
C3091 C 0.33814 0.84887 0.26141 0.0
C3092 C 0.34638 0.88811 0.24965 0.0
C3093 C 0.36204 0.89747 0.26956 0.0
C3094 C 0.36606 0.88194 0.28494 0.0
C3095 C 0.35427 0.85783 0.28084 0.0
H3096 H 0.60843 0.37318 0.56546 0.0
H3097 H 0.57301 0.39192 0.62564 0.0
H3098 H 0.60317 0.40979 0.5512 0.0
H3099 H 0.56679 0.42736 0.61118 0.0
H3100 H 0.57264 0.5024 0.59526 0.0
H3101 H 0.57863 0.46571 0.60717 0.0
H3102 H 0.58422 0.43482 0.53399 0.0
H3103 H 0.57925 0.47285 0.52234 0.0
C3104 C 0.59941 0.38496 0.57567 0.0
C3105 C 0.59143 0.37927 0.59703 0.0
C3106 C 0.5962 0.40616 0.56735 0.0
C3107 C 0.5847 0.42259 0.5799 0.0
C3108 C 0.57636 0.41631 0.60096 0.0
C3109 C 0.57979 0.39546 0.60933 0.0
C3110 C 0.575 0.48779 0.58153 0.0
C3111 C 0.57482 0.49084 0.55765 0.0
C3112 C 0.57829 0.46623 0.58841 0.0
C3113 C 0.58158 0.44616 0.57178 0.0
C3114 C 0.58184 0.44936 0.54773 0.0
C3115 C 0.57868 0.47127 0.54084 0.0
H3116 H 0.47352 0.75706 0.35546 0.0
H3117 H 0.44535 0.78112 0.4198 0.0
H3118 H 0.44158 0.7619 0.33164 0.0
H3119 H 0.41311 0.78574 0.39598 0.0
H3120 H 0.3683 0.81505 0.34609 0.0
H3121 H 0.3996 0.80951 0.37041 0.0
H3122 H 0.40375 0.74689 0.31809 0.0
H3123 H 0.37245 0.75246 0.29388 0.0
C3124 C 0.46041 0.76319 0.36462 0.0
C3125 C 0.46223 0.76856 0.38974 0.0
C3126 C 0.44187 0.7659 0.35084 0.0
C3127 C 0.42435 0.77428 0.36158 0.0
C3128 C 0.42615 0.77955 0.38678 0.0
C3129 C 0.44468 0.77668 0.40056 0.0
C3130 C 0.37556 0.79983 0.33986 0.0
C3131 C 0.36716 0.78398 0.31799 0.0
C3132 C 0.39374 0.79664 0.35392 0.0
C3133 C 0.40454 0.77759 0.3466 0.0
C3134 C 0.39629 0.76194 0.32454 0.0
C3135 C 0.37804 0.76507 0.31057 0.0
H3136 H 0.06681 0.72737 0.12061 0.0
H3137 H 0.10521 0.73969 0.06215 0.0
H3138 H 0.06244 0.68385 0.10791 0.0
H3139 H 0.10104 0.69548 0.04937 0.0
H3140 H 0.06857 0.61038 0.02329 0.0
H3141 H 0.07574 0.65515 0.03268 0.0
H3142 H 0.08302 0.65344 0.10763 0.0
H3143 H 0.07573 0.60935 0.09824 0.0
C3144 C 0.07438 0.72084 0.10495 0.0
C3145 C 0.08646 0.73741 0.09257 0.0
C3146 C 0.07201 0.69562 0.0977 0.0
C3147 C 0.08163 0.68566 0.07769 0.0
C3148 C 0.0933 0.70218 0.06482 0.0
C3149 C 0.09576 0.72765 0.0722 0.0
C3150 C 0.07215 0.61967 0.04172 0.0
C3151 C 0.0717 0.6061 0.06 0.0
C3152 C 0.07619 0.64543 0.04717 0.0
C3153 C 0.07957 0.65832 0.07105 0.0
C3154 C 0.07995 0.64454 0.08907 0.0
C3155 C 0.07597 0.61906 0.08366 0.0
H3156 H 0.0989 0.296 0.91879 0.0
H3157 H 0.05955 0.24216 0.86179 0.0
H3158 H 0.12984 0.29998 0.89457 0.0
H3159 H 0.09066 0.24508 0.83794 0.0
H3160 H 0.14 0.27545 0.78995 0.0
H3161 H 0.11057 0.26898 0.81522 0.0
H3162 H 0.15829 0.28482 0.87683 0.0
H3163 H 0.18796 0.29299 0.85137 0.0
C3164 C 0.09694 0.28474 0.90117 0.0
C3165 C 0.07661 0.26888 0.89222 0.0
C3166 C 0.11482 0.28688 0.88725 0.0
C3167 C 0.11303 0.27302 0.86398 0.0
C3168 C 0.09279 0.25661 0.85541 0.0
C3169 C 0.07486 0.25473 0.86921 0.0
C3170 C 0.14437 0.2778 0.80892 0.0
C3171 C 0.16658 0.28523 0.81849 0.0
C3172 C 0.12731 0.27365 0.82353 0.0
C3173 C 0.1317 0.27636 0.84836 0.0
C3174 C 0.154 0.28292 0.85792 0.0
C3175 C 0.17116 0.28729 0.84322 0.0
H3176 H 0.59899 0.74488 0.91387 0.0
H3177 H 0.60326 0.80688 0.9705 0.0
H3178 H 0.5919 0.7179 0.94246 0.0
H3179 H 0.59627 0.77998 0.999 0.0
H3180 H 0.55582 0.72103 0.03468 0.0
H3181 H 0.56498 0.74894 0.00739 0.0
H3182 H 0.61091 0.70779 0.97763 0.0
H3183 H 0.60213 0.68018 1.00515 0.0
C3184 C 0.59855 0.75273 0.93243 0.0
C3185 C 0.60167 0.77797 0.93994 0.0
C3186 C 0.59458 0.73732 0.9488 0.0
C3187 C 0.59347 0.74683 0.97297 0.0
C3188 C 0.59678 0.77209 0.98047 0.0
C3189 C 0.60092 0.78749 0.96415 0.0
C3190 C 0.56813 0.71815 0.02259 0.0
C3191 C 0.5781 0.69823 0.02203 0.0
C3192 C 0.57333 0.7341 0.0069 0.0
C3193 C 0.58855 0.73044 0.99024 0.0
C3194 C 0.59883 0.71083 0.98997 0.0
C3195 C 0.59375 0.695 1.00574 0.0
H3196 H 0.05004 0.76253 0.74562 0.0
H3197 H 0.08886 0.8172 0.71316 0.0
H3198 H 0.08359 0.75458 0.76337 0.0
H3199 H 0.12248 0.80943 0.73118 0.0
H3200 H 0.17018 0.75695 0.73101 0.0
H3201 H 0.13876 0.77352 0.72123 0.0
H3202 H 0.11768 0.76988 0.79113 0.0
H3203 H 0.14951 0.75356 0.80118 0.0
C3204 C 0.06574 0.7733 0.7428 0.0
C3205 C 0.06685 0.79027 0.72777 0.0
C3206 C 0.08496 0.7688 0.75304 0.0
C3207 C 0.10566 0.78113 0.74837 0.0
C3208 C 0.10673 0.79936 0.73475 0.0
C3209 C 0.08749 0.80393 0.72458 0.0
C3210 C 0.15913 0.7601 0.74451 0.0
C3211 C 0.16239 0.7539 0.76689 0.0
C3212 C 0.14112 0.76967 0.7389 0.0
C3213 C 0.12581 0.77316 0.75547 0.0
C3214 C 0.12915 0.76725 0.77797 0.0
C3215 C 0.14729 0.75779 0.78365 0.0
H3216 H 0.11743 0.39136 0.45386 0.0
H3217 H 0.09796 0.40568 0.38523 0.0
H3218 H 0.10917 0.42939 0.4733 0.0
H3219 H 0.08871 0.44317 0.40461 0.0
H3220 H 0.089 0.51901 0.44772 0.0
H3221 H 0.10077 0.48336 0.42687 0.0
H3222 H 0.0773 0.44404 0.48145 0.0
H3223 H 0.06629 0.47986 0.50227 0.0
C3224 C 0.11155 0.40276 0.44294 0.0
C3225 C 0.10827 0.39553 0.41807 0.0
C3226 C 0.10656 0.42444 0.45406 0.0
C3227 C 0.09784 0.43919 0.44057 0.0
C3228 C 0.0955 0.43241 0.41559 0.0
C3229 C 0.10078 0.41087 0.40445 0.0
C3230 C 0.08615 0.50254 0.45491 0.0
C3231 C 0.07683 0.50197 0.47649 0.0
C3232 C 0.09292 0.48216 0.44309 0.0
C3233 C 0.09031 0.46086 0.45263 0.0
C3234 C 0.08022 0.46028 0.4739 0.0
C3235 C 0.07371 0.48068 0.48576 0.0
H3236 H 0.46704 0.27003 0.24055 0.0
H3237 H 0.43199 0.27236 0.17403 0.0
H3238 H 0.43276 0.2677 0.25968 0.0
H3239 H 0.39793 0.26965 0.19294 0.0
H3240 H 0.34922 0.2958 0.24103 0.0
H3241 H 0.38346 0.29666 0.22331 0.0
H3242 H 0.39517 0.23878 0.25785 0.0
H3243 H 0.36043 0.23822 0.27614 0.0
C3244 C 0.45206 0.27011 0.23007 0.0
C3245 C 0.4522 0.27157 0.20585 0.0
C3246 C 0.43245 0.26851 0.24094 0.0
C3247 C 0.41272 0.26846 0.22778 0.0
C3248 C 0.41294 0.26991 0.20359 0.0
C3249 C 0.43245 0.27146 0.19276 0.0
C3250 C 0.35906 0.28335 0.24506 0.0
C3251 C 0.35245 0.26742 0.26052 0.0
C3252 C 0.37865 0.2837 0.23469 0.0
C3253 C 0.39202 0.26784 0.23923 0.0
C3254 C 0.38529 0.25146 0.25434 0.0
C3255 C 0.36547 0.25106 0.2647 0.0
H3256 H 0.61601 0.49663 0.32785 0.0
H3257 H 0.6764 0.5415 0.36472 0.0
H3258 H 0.59844 0.50078 0.36501 0.0
H3259 H 0.65912 0.54554 0.40205 0.0
H3260 H 0.62158 0.56169 0.46946 0.0
H3261 H 0.63909 0.55778 0.43228 0.0
H3262 H 0.5874 0.49577 0.40147 0.0
H3263 H 0.57005 0.49997 0.43862 0.0
C3264 C 0.62582 0.50742 0.34382 0.0
C3265 C 0.64812 0.51859 0.34219 0.0
C3266 C 0.61554 0.5098 0.36579 0.0
C3267 C 0.62669 0.52365 0.38803 0.0
C3268 C 0.64907 0.53484 0.38624 0.0
C3269 C 0.65933 0.53238 0.36428 0.0
C3270 C 0.61373 0.54711 0.45489 0.0
C3271 C 0.59374 0.53138 0.45813 0.0
C3272 C 0.62408 0.5447 0.43296 0.0
C3273 C 0.61531 0.52633 0.41235 0.0
C3274 C 0.59531 0.51056 0.41578 0.0
C3275 C 0.58503 0.51298 0.43771 0.0
H3276 H 0.32107 0.86498 0.07941 0.0
H3277 H 0.36147 0.93515 0.11212 0.0
H3278 H 0.33279 0.84804 0.11285 0.0
H3279 H 0.3738 0.91811 0.14514 0.0
H3280 H 0.37493 0.88374 0.21154 0.0
H3281 H 0.36262 0.90199 0.1793 0.0
H3282 H 0.36495 0.83731 0.12851 0.0
H3283 H 0.37663 0.81898 0.16086 0.0
C3284 C 0.33243 0.87677 0.09377 0.0
C3285 C 0.34037 0.90135 0.09316 0.0
C3286 C 0.33931 0.86704 0.11284 0.0
C3287 C 0.35443 0.88165 0.1316 0.0
C3288 C 0.36199 0.90638 0.13115 0.0
C3289 C 0.35499 0.91613 0.11217 0.0
C3290 C 0.37301 0.87361 0.19345 0.0
C3291 C 0.37657 0.84992 0.18871 0.0
C3292 C 0.36596 0.88402 0.17495 0.0
C3293 C 0.36254 0.87101 0.1513 0.0
C3294 C 0.36686 0.84761 0.14655 0.0
C3295 C 0.37371 0.83717 0.16505 0.0
H3296 H 0.96671 0.59093 0.87981 0.0
H3297 H 0.97895 0.52114 0.8487 0.0
H3298 H 0.98997 0.5913 0.91613 0.0
H3299 H 1.00164 0.52146 0.88482 0.0
H3300 H 0.00703 0.5172 0.96518 0.0
H3301 H 0.9877 0.52111 0.92855 0.0
H3302 H 0.03397 0.58816 0.92811 0.0
H3303 H 0.05389 0.58414 0.96503 0.0
C3304 C 0.97443 0.57581 0.88068 0.0
C3305 C 0.9709 0.55593 0.86153 0.0
C3306 C 0.9878 0.57611 0.90132 0.0
C3307 C 0.99749 0.55639 0.90312 0.0
C3308 C 0.99429 0.53684 0.8838 0.0
C3309 C 0.98128 0.53668 0.86317 0.0
C3310 C 0.01319 0.53282 0.9574 0.0
C3311 C 0.03201 0.55036 0.968 0.0
C3312 C 1.00211 0.53499 0.93639 0.0
C3313 C 0.00938 0.55492 0.92565 0.0
C3314 C 0.02806 0.5727 0.93623 0.0
C3315 C 0.03947 0.5703 0.95718 0.0
H3316 H 0.32543 0.20379 0.59956 0.0
H3317 H 0.28399 0.25168 0.58358 0.0
H3318 H 0.3249 0.21849 0.64189 0.0
H3319 H 0.28332 0.26645 0.62656 0.0
H3320 H 0.31008 0.29908 0.70998 0.0
H3321 H 0.3078 0.28905 0.66605 0.0
H3322 H 0.29563 0.2128 0.6688 0.0
H3323 H 0.29805 0.22277 0.712 0.0
C3324 C 0.31629 0.21762 0.60507 0.0
C3325 C 0.30462 0.22639 0.58808 0.0
C3326 C 0.31588 0.22598 0.62944 0.0
C3327 C 0.30374 0.24337 0.63772 0.0
C3328 C 0.2928 0.25303 0.6208 0.0
C3329 C 0.29317 0.24455 0.5962 0.0
C3330 C 0.30639 0.28022 0.70103 0.0
C3331 C 0.30418 0.26167 0.71438 0.0
C3332 C 0.30516 0.27446 0.67592 0.0
C3333 C 0.30201 0.25011 0.6639 0.0
C3334 C 0.29861 0.23174 0.67741 0.0
C3335 C 0.29983 0.23744 0.7022 0.0
H3336 H 0.61128 0.50757 0.21135 0.0
H3337 H 0.67468 0.52525 0.18573 0.0
H3338 H 0.59367 0.51327 0.17383 0.0
H3339 H 0.65762 0.53154 0.14886 0.0
H3340 H 0.62565 0.53175 0.07508 0.0
H3341 H 0.6414 0.52656 0.11273 0.0
H3342 H 0.57947 0.52756 0.14188 0.0
H3343 H 0.56336 0.53214 0.10292 0.0
C3344 C 0.62172 0.51263 0.19783 0.0
C3345 C 0.64491 0.51555 0.20253 0.0
C3346 C 0.61141 0.51614 0.17579 0.0
C3347 C 0.62347 0.52291 0.15669 0.0
C3348 C 0.64672 0.52596 0.16174 0.0
C3349 C 0.65693 0.52238 0.18361 0.0
C3350 C 0.61509 0.53108 0.08937 0.0
C3351 C 0.59285 0.53274 0.0848 0.0
C3352 C 0.62445 0.52812 0.11179 0.0
C3353 C 0.61247 0.52655 0.13203 0.0
C3354 C 0.59002 0.52839 0.12763 0.0
C3355 C 0.58052 0.53131 0.10484 0.0
H3356 H 0.35532 0.87824 0.97265 0.0
H3357 H 0.28488 0.87098 0.96391 0.0
H3358 H 0.35369 0.85349 0.93297 0.0
H3359 H 0.28329 0.84569 0.92427 0.0
H3360 H 0.2916 0.78302 0.86291 0.0
H3361 H 0.29356 0.80323 0.9045 0.0
H3362 H 0.34194 0.86352 0.89103 0.0
H3363 H 0.33937 0.84399 0.84927 0.0
C3364 C 0.33944 0.87099 0.96242 0.0
C3365 C 0.32021 0.87659 0.9713 0.0
C3366 C 0.33856 0.85693 0.93972 0.0
C3367 C 0.31839 0.84781 0.92566 0.0
C3368 C 0.29901 0.85245 0.9349 0.0
C3369 C 0.29994 0.86694 0.95748 0.0
C3370 C 0.30251 0.80065 0.8687 0.0
C3371 C 0.31492 0.8121 0.85255 0.0
C3372 C 0.30368 0.81214 0.89253 0.0
C3373 C 0.31779 0.83493 0.90082 0.0
C3374 C 0.33096 0.84589 0.88502 0.0
C3375 C 0.32943 0.83468 0.8611 0.0
H3376 H 0.94997 0.51256 0.7232 0.0
H3377 H 0.99764 0.57342 0.7649 0.0
H3378 H 0.97611 0.50732 0.69361 0.0
H3379 H 0.02357 0.56842 0.73526 0.0
H3380 H 0.07255 0.5386 0.69029 0.0
H3381 H 0.04603 0.53972 0.71988 0.0
H3382 H 0.99353 0.52887 0.66379 0.0
H3383 H 0.01994 0.52701 0.6342 0.0
C3384 C 0.96598 0.52487 0.72596 0.0
C3385 C 0.97178 0.54341 0.7463 0.0
C3386 C 0.98091 0.5219 0.70903 0.0
C3387 C 1.00192 0.53738 0.7122 0.0
C3388 C 0.00764 0.55596 0.73253 0.0
C3389 C 0.99272 0.55896 0.74939 0.0
C3390 C 0.0553 0.53604 0.68429 0.0
C3391 C 0.04833 0.53288 0.65997 0.0
C3392 C 0.04015 0.53694 0.70122 0.0
C3393 C 0.01774 0.53461 0.69416 0.0
C3394 C 0.01067 0.5306 0.66977 0.0
C3395 C 0.02582 0.52977 0.65286 0.0
H3396 H 0.31885 0.25616 0.47049 0.0
H3397 H 0.28773 0.18505 0.43016 0.0
H3398 H 0.31992 0.27229 0.43365 0.0
H3399 H 0.28919 0.20088 0.39348 0.0
H3400 H 0.2729 0.24073 0.33534 0.0
H3401 H 0.27258 0.22593 0.37243 0.0
H3402 H 0.33649 0.27265 0.3966 0.0
H3403 H 0.33674 0.28744 0.35919 0.0
C3404 C 0.31236 0.24393 0.45377 0.0
C3405 C 0.30312 0.2193 0.45339 0.0
C3406 C 0.31306 0.25315 0.43257 0.0
C3407 C 0.30452 0.23801 0.41038 0.0
C3408 C 0.29555 0.21331 0.41012 0.0
C3409 C 0.29484 0.20415 0.43123 0.0
C3410 C 0.28712 0.24749 0.34821 0.0
C3411 C 0.30513 0.26471 0.34362 0.0
C3412 C 0.28691 0.23907 0.36973 0.0
C3413 C 0.30466 0.24772 0.38763 0.0
C3414 C 0.32246 0.26551 0.38338 0.0
C3415 C 0.32266 0.2739 0.36175 0.0
H3416 H 0.36724 0.63929 0.55135 0.0
H3417 H 0.32831 0.58349 0.49538 0.0
H3418 H 0.39368 0.61383 0.55487 0.0
H3419 H 0.3547 0.55795 0.49902 0.0
H3420 H 0.42082 0.53376 0.49441 0.0
H3421 H 0.39344 0.55816 0.49118 0.0
H3422 H 0.39556 0.57506 0.56788 0.0
H3423 H 0.42331 0.55101 0.57112 0.0
C3424 C 0.36434 0.62158 0.53981 0.0
C3425 C 0.34576 0.61338 0.52305 0.0
C3426 C 0.37939 0.60695 0.54195 0.0
C3427 C 0.37622 0.58388 0.52726 0.0
C3428 C 0.35766 0.57573 0.51044 0.0
C3429 C 0.34253 0.5903 0.50841 0.0
C3430 C 0.41545 0.54274 0.51057 0.0
C3431 C 0.42424 0.54057 0.53302 0.0
C3432 C 0.39965 0.55652 0.50872 0.0
C3433 C 0.39241 0.56855 0.52928 0.0
C3434 C 0.401 0.56617 0.55174 0.0
C3435 C 0.41671 0.55223 0.55359 0.0
H3436 H 0.8839 0.96436 0.5582 0.0
H3437 H 0.90325 0.89808 0.52864 0.0
H3438 H 0.92094 0.98749 0.5563 0.0
H3439 H 0.94056 0.92126 0.527 0.0
H3440 H 0.995 0.9754 0.49991 0.0
H3441 H 0.95942 0.95043 0.50442 0.0
H3442 H 0.95891 0.99513 0.57339 0.0
H3443 H 0.99461 0.01988 0.56901 0.0
C3444 C 0.89615 0.95467 0.55156 0.0
C3445 C 0.89058 0.92936 0.54357 0.0
C3446 C 0.91746 0.96795 0.55056 0.0
C3447 C 0.9338 0.9563 0.54144 0.0
C3448 C 0.92834 0.93088 0.53386 0.0
C3449 C 0.907 0.91756 0.53497 0.0
C3450 C 0.98741 0.97983 0.51612 0.0
C3451 C 0.99765 0.99989 0.53396 0.0
C3452 C 0.96699 0.96542 0.51874 0.0
C3453 C 0.95616 0.9708 0.53922 0.0
C3454 C 0.96656 0.99067 0.5572 0.0
C3455 C 0.98705 1.00493 0.55466 0.0
H3456 H 0.92466 0.15155 0.25767 0.0
H3457 H 0.87474 0.11827 0.29718 0.0
H3458 H 0.90518 0.1843 0.25551 0.0
H3459 H 0.85545 0.15156 0.29567 0.0
H3460 H 0.83284 0.22968 0.30321 0.0
H3461 H 0.85103 0.19575 0.30706 0.0
H3462 H 0.87485 0.19823 0.23857 0.0
H3463 H 0.85619 0.23073 0.23435 0.0
C3464 C 0.90957 0.15096 0.26614 0.0
C3465 C 0.90194 0.13113 0.27762 0.0
C3466 C 0.898 0.17022 0.2648 0.0
C3467 C 0.87799 0.1718 0.27533 0.0
C3468 C 0.87054 0.15216 0.28722 0.0
C3469 C 0.88186 0.13252 0.28804 0.0
C3470 C 0.8416 0.22293 0.28866 0.0
C3471 C 0.84208 0.23389 0.26811 0.0
C3472 C 0.85241 0.20304 0.29092 0.0
C3473 C 0.86524 0.19313 0.27326 0.0
C3474 C 0.86582 0.20445 0.25309 0.0
C3475 C 0.85467 0.22363 0.25059 0.0
H3476 H 0.71699 0.14398 0.9896 0.0
H3477 H 0.71985 0.07588 0.01033 0.0
H3478 H 0.67716 0.13179 0.98321 0.0
H3479 H 0.67976 0.06387 1.00485 0.0
H3480 H 0.60717 0.04232 0.9783 0.0
H3481 H 0.64713 0.05227 0.97908 0.0
H3482 H 0.64734 0.12787 1.00542 0.0
H3483 H 0.60735 0.11767 1.00371 0.0
C3484 C 0.70903 0.1264 0.9929 0.0
C3485 C 0.72145 0.11098 1.00073 0.0
C3486 C 0.68615 0.11946 0.98942 0.0
C3487 C 0.67509 0.09708 0.99408 0.0
C3488 C 0.68764 0.08126 1.00111 0.0
C3489 C 0.71062 0.08812 1.00433 0.0
C3490 C 0.61588 0.06094 0.98464 0.0
C3491 C 0.6045 0.0791 0.99235 0.0
C3492 C 0.63878 0.0667 0.98501 0.0
C3493 C 0.65063 0.09085 0.99261 0.0
C3494 C 0.63889 0.10909 0.99927 0.0
C3495 C 0.61603 0.10328 0.99878 0.0
H3496 H 0.19475 0.45745 0.26585 0.0
H3497 H 0.24387 0.51383 0.31142 0.0
H3498 H 0.21081 0.42662 0.28031 0.0
H3499 H 0.25949 0.48322 0.32638 0.0
H3500 H 0.29589 0.4236 0.33116 0.0
H3501 H 0.27998 0.45314 0.31479 0.0
H3502 H 0.21483 0.4095 0.31547 0.0
H3503 H 0.23083 0.37924 0.33078 0.0
C3504 C 0.20898 0.46324 0.27893 0.0
C3505 C 0.21811 0.48805 0.28743 0.0
C3506 C 0.21808 0.44559 0.28738 0.0
C3507 C 0.23645 0.4524 0.30454 0.0
C3508 C 0.24558 0.47727 0.3129 0.0
C3509 C 0.23656 0.49486 0.30439 0.0
C3510 C 0.27818 0.42007 0.32753 0.0
C3511 C 0.2647 0.39885 0.33213 0.0
C3512 C 0.26902 0.43722 0.31842 0.0
C3513 C 0.2461 0.43377 0.31382 0.0
C3514 C 0.23256 0.41262 0.31851 0.0
C3515 C 0.24175 0.39538 0.32757 0.0
H3516 H 0.29958 0.46515 0.03027 0.0
H3517 H 0.24936 0.40862 0.04737 0.0
H3518 H 0.27248 0.48945 0.02592 0.0
H3519 H 0.22215 0.4333 0.04371 0.0
H3520 H 0.17549 0.47355 0.00849 0.0
H3521 H 0.20157 0.44843 0.01542 0.0
H3522 H 0.25054 0.51305 0.04714 0.0
H3523 H 0.22467 0.53798 0.03977 0.0
C3524 C 0.28276 0.458 0.03338 0.0
C3525 C 0.27669 0.43493 0.03922 0.0
C3526 C 0.26716 0.47204 0.03102 0.0
C3527 C 0.24499 0.46352 0.03456 0.0
C3528 C 0.23895 0.44044 0.04058 0.0
C3529 C 0.2546 0.42632 0.04286 0.0
C3530 C 0.19175 0.48234 0.01718 0.0
C3531 C 0.19803 0.50782 0.02331 0.0
C3532 C 0.20675 0.46792 0.0212 0.0
C3533 C 0.22839 0.47861 0.03161 0.0
C3534 C 0.2343 0.50408 0.03852 0.0
C3535 C 0.21939 0.51844 0.03436 0.0
H3536 H 0.92483 0.98265 0.29288 0.0
H3537 H 0.87024 0.99474 0.25097 0.0
H3538 H 0.90517 0.94139 0.29242 0.0
H3539 H 0.85056 0.95284 0.24937 0.0
H3540 H 0.81156 0.87733 0.25769 0.0
H3541 H 0.83044 0.91918 0.25864 0.0
H3542 H 0.89172 0.90208 0.28089 0.0
H3543 H 0.87247 0.86089 0.28108 0.0
C3544 C 0.90859 0.9765 0.28326 0.0
C3545 C 0.8995 0.99277 0.27197 0.0
C3546 C 0.89706 0.95221 0.28278 0.0
C3547 C 0.87568 0.94232 0.27066 0.0
C3548 C 0.86662 0.95877 0.25928 0.0
C3549 C 0.87813 0.98326 0.26003 0.0
C3550 C 0.82902 0.88243 0.26302 0.0
C3551 C 0.83999 0.8649 0.26954 0.0
C3552 C 0.84022 0.90692 0.26339 0.0
C3553 C 0.86324 0.91546 0.27003 0.0
C3554 C 0.87416 0.8976 0.27614 0.0
C3555 C 0.86292 0.87327 0.27603 0.0
H3556 H 0.75226 0.11074 0.76376 0.0
H3557 H 0.69517 0.13514 0.78867 0.0
H3558 H 0.77309 0.15277 0.7713 0.0
H3559 H 0.71605 0.17696 0.79686 0.0
H3560 H 0.75244 0.25012 0.78235 0.0
H3561 H 0.73141 0.20832 0.777 0.0
H3562 H 0.78946 0.18665 0.80266 0.0
H3563 H 0.81044 0.22862 0.80747 0.0
C3564 C 0.74416 0.12509 0.77078 0.0
C3565 C 0.72204 0.11966 0.77542 0.0
C3566 C 0.75614 0.14917 0.77533 0.0
C3567 C 0.74626 0.16831 0.78468 0.0
C3568 C 0.72411 0.16277 0.78929 0.0
C3569 C 0.71213 0.13875 0.78464 0.0
C3570 C 0.7606 0.23627 0.78667 0.0
C3571 C 0.7831 0.24209 0.7944 0.0
C3572 C 0.74857 0.21241 0.78392 0.0
C3573 C 0.75881 0.19398 0.78909 0.0
C3574 C 0.7812 0.20024 0.79793 0.0
C3575 C 0.7932 0.22418 0.80076 0.0
loop_
_geom_bond_atom_site_label_1
_geom_bond_atom_site_label_2
_geom_bond_distance
_geom_bond_site_symmetry_2
_ccdc_geom_bond_type
In0 O1 2.294 . S
In0 O2 2.326 . S
In0 O6 2.266 . S
In0 O7 2.326 . S
In0 O8 2.266 . S
In0 O9 2.326 . S
In0 O11 2.294 . S
In0 O12 2.326 . S
O1 In0 2.294 . S
O1 C10 1.240 . S
O2 In0 2.326 . S
O2 C10 1.252 . S
C3 O6 1.252 . S
C3 O7 1.260 . S
C4 O11 1.240 . S
C4 O12 1.252 . S
C5 O8 1.252 . S
C5 O9 1.260 . S
O6 In0 2.266 . S
O6 C3 1.252 . S
O7 In0 2.326 . S
O7 C3 1.260 . S
O8 In0 2.266 . S
O8 C5 1.252 . S
O9 In0 2.326 . S
O9 C5 1.260 . S
C10 O1 1.240 . S
C10 O2 1.252 . S
O11 In0 2.294 . S
O11 C4 1.240 . S
O12 In0 2.326 . S
O12 C4 1.252 . S
In13 O14 2.294 . S
In13 O15 2.326 . S
In13 O19 2.266 1_455 S
In13 O20 2.326 1_455 S
In13 O21 2.262 1_455 S
In13 O22 2.319 1_455 S
In13 O24 2.298 . S
In13 O25 2.332 . S
O14 In13 2.294 . S
O14 C23 1.240 . S
O15 In13 2.326 . S
O15 C23 1.252 . S
C16 O19 1.252 . S
C16 O20 1.260 . S
C17 O24 1.240 . S
C17 O25 1.252 . S
C18 O21 1.252 . S
C18 O22 1.260 . S
O19 In13 2.266 1_655 S
O19 C16 1.252 . S
O20 In13 2.326 1_655 S
O20 C16 1.260 . S
O21 In13 2.262 1_655 S
O21 C18 1.252 . S
O22 In13 2.319 1_655 S
O22 C18 1.260 . S
C23 O14 1.240 . S
C23 O15 1.252 . S
O24 In13 2.298 . S
O24 C17 1.240 . S
O25 In13 2.332 . S
O25 C17 1.252 . S
In26 O27 2.294 . S
In26 O28 2.326 . S
In26 O32 2.266 . S
In26 O33 2.326 . S
In26 O34 2.266 . S
In26 O35 2.326 . S
In26 O37 2.294 . S
In26 O38 2.326 . S
O27 In26 2.294 . S
O27 C36 1.240 . S
O28 In26 2.326 . S
O28 C36 1.252 . S
C29 O32 1.252 . S
C29 O33 1.260 . S
C30 O37 1.240 . S
C30 O38 1.252 . S
C31 O34 1.252 . S
C31 O35 1.260 . S
O32 In26 2.266 . S
O32 C29 1.252 . S
O33 In26 2.326 . S
O33 C29 1.260 . S
O34 In26 2.266 . S
O34 C31 1.252 . S
O35 In26 2.326 . S
O35 C31 1.260 . S
C36 O27 1.240 . S
C36 O28 1.252 . S
O37 In26 2.294 . S
O37 C30 1.240 . S
O38 In26 2.326 . S
O38 C30 1.252 . S
In39 O40 2.294 . S
In39 O41 2.326 . S
In39 O45 2.266 . S
In39 O46 2.326 . S
In39 O47 2.266 . S
In39 O48 2.326 . S
In39 O50 2.294 . S
In39 O51 2.326 . S
O40 In39 2.294 . S
O40 C49 1.240 . S
O41 In39 2.326 . S
O41 C49 1.252 . S
C42 O45 1.252 . S
C42 O46 1.260 . S
C43 O50 1.240 . S
C43 O51 1.252 . S
C44 O47 1.252 . S
C44 O48 1.260 . S
O45 In39 2.266 . S
O45 C42 1.252 . S
O46 In39 2.326 . S
O46 C42 1.260 . S
O47 In39 2.266 . S
O47 C44 1.252 . S
O48 In39 2.326 . S
O48 C44 1.260 . S
C49 O40 1.240 . S
C49 O41 1.252 . S
O50 In39 2.294 . S
O50 C43 1.240 . S
O51 In39 2.326 . S
O51 C43 1.252 . S
In52 O53 2.294 . S
In52 O54 2.326 . S
In52 O58 2.266 . S
In52 O59 2.326 . S
In52 O60 2.266 . S
In52 O61 2.326 . S
In52 O63 2.294 . S
In52 O64 2.326 . S
O53 In52 2.294 . S
O53 C62 1.240 . S
O54 In52 2.326 . S
O54 C62 1.252 . S
C55 O58 1.252 . S
C55 O59 1.260 . S
C56 O63 1.240 . S
C56 O64 1.252 . S
C57 O60 1.252 . S
C57 O61 1.260 . S
O58 In52 2.266 . S
O58 C55 1.252 . S
O59 In52 2.326 . S
O59 C55 1.260 . S
O60 In52 2.266 . S
O60 C57 1.252 . S
O61 In52 2.326 . S
O61 C57 1.260 . S
C62 O53 1.240 . S
C62 O54 1.252 . S
O63 In52 2.294 . S
O63 C56 1.240 . S
O64 In52 2.326 . S
O64 C56 1.252 . S
In65 O66 2.294 . S
In65 O67 2.326 . S
In65 O71 2.266 . S
In65 O72 2.326 . S
In65 O73 2.266 . S
In65 O74 2.326 . S
In65 O76 2.294 . S
In65 O77 2.326 . S
O66 In65 2.294 . S
O66 C75 1.240 . S
O67 In65 2.326 . S
O67 C75 1.252 . S
C68 O71 1.252 . S
C68 O72 1.260 . S
C69 O76 1.240 . S
C69 O77 1.252 . S
C70 O73 1.252 . S
C70 O74 1.260 . S
O71 In65 2.266 . S
O71 C68 1.252 . S
O72 In65 2.326 . S
O72 C68 1.260 . S
O73 In65 2.266 . S
O73 C70 1.252 . S
O74 In65 2.326 . S
O74 C70 1.260 . S
C75 O66 1.240 . S
C75 O67 1.252 . S
O76 In65 2.294 . S
O76 C69 1.240 . S
O77 In65 2.326 . S
O77 C69 1.252 . S
In78 O79 2.294 . S
In78 O80 2.326 . S
In78 O84 2.266 . S
In78 O85 2.326 . S
In78 O86 2.266 . S
In78 O87 2.326 . S
In78 O89 2.294 . S
In78 O90 2.326 . S
O79 In78 2.294 . S
O79 C88 1.240 . S
O80 In78 2.326 . S
O80 C88 1.252 . S
C81 O84 1.252 . S
C81 O85 1.260 . S
C82 O89 1.240 . S
C82 O90 1.252 . S
C83 O86 1.252 . S
C83 O87 1.260 . S
O84 In78 2.266 . S
O84 C81 1.252 . S
O85 In78 2.326 . S
O85 C81 1.260 . S
O86 In78 2.266 . S
O86 C83 1.252 . S
O87 In78 2.326 . S
O87 C83 1.260 . S
C88 O79 1.240 . S
C88 O80 1.252 . S
O89 In78 2.294 . S
O89 C82 1.240 . S
O90 In78 2.326 . S
O90 C82 1.252 . S
In91 O92 2.294 . S
In91 O93 2.326 . S
In91 O97 2.266 . S
In91 O98 2.326 . S
In91 O99 2.266 1_455 S
In91 O100 2.326 1_455 S
In91 O102 2.294 . S
In91 O103 2.326 . S
O92 In91 2.294 . S
O92 C101 1.240 . S
O93 In91 2.326 . S
O93 C101 1.252 . S
C94 O97 1.252 . S
C94 O98 1.260 . S
C95 O102 1.240 . S
C95 O103 1.252 . S
C96 O99 1.252 . S
C96 O100 1.260 . S
O97 In91 2.266 . S
O97 C94 1.252 . S
O98 In91 2.326 . S
O98 C94 1.260 . S
O99 In91 2.266 1_655 S
O99 C96 1.252 . S
O100 In91 2.326 1_655 S
O100 C96 1.260 . S
C101 O92 1.240 . S
C101 O93 1.252 . S
O102 In91 2.294 . S
O102 C95 1.240 . S
O103 In91 2.326 . S
O103 C95 1.252 . S
In104 O105 2.294 . S
In104 O106 2.326 . S
In104 O110 2.266 . S
In104 O111 2.326 . S
In104 O112 2.266 1_545 S
In104 O113 2.326 1_545 S
In104 O115 2.294 . S
In104 O116 2.326 . S
O105 In104 2.294 . S
O105 C114 1.240 . S
O106 In104 2.326 . S
O106 C114 1.252 . S
C107 O110 1.252 . S
C107 O111 1.260 . S
C108 O115 1.240 . S
C108 O116 1.252 . S
C109 O112 1.252 . S
C109 O113 1.260 . S
O110 In104 2.266 . S
O110 C107 1.252 . S
O111 In104 2.326 . S
O111 C107 1.260 . S
O112 In104 2.266 1_565 S
O112 C109 1.252 . S
O113 In104 2.326 1_565 S
O113 C109 1.260 . S
C114 O105 1.240 . S
C114 O106 1.252 . S
O115 In104 2.294 . S
O115 C108 1.240 . S
O116 In104 2.326 . S
O116 C108 1.252 . S
In117 O118 2.294 . S
In117 O119 2.326 . S
In117 O123 2.266 . S
In117 O124 2.326 . S
In117 O125 2.266 . S
In117 O126 2.326 . S
In117 O128 2.294 . S
In117 O129 2.326 . S
O118 In117 2.294 . S
O118 C127 1.240 . S
O119 In117 2.326 . S
O119 C127 1.252 . S
C120 O123 1.252 . S
C120 O124 1.260 . S
C121 O128 1.240 . S
C121 O129 1.252 . S
C122 O125 1.252 . S
C122 O126 1.260 . S
O123 In117 2.266 . S
O123 C120 1.252 . S
O124 In117 2.326 . S
O124 C120 1.260 . S
O125 In117 2.266 . S
O125 C122 1.252 . S
O126 In117 2.326 . S
O126 C122 1.260 . S
C127 O118 1.240 . S
C127 O119 1.252 . S
O128 In117 2.294 . S
O128 C121 1.240 . S
O129 In117 2.326 . S
O129 C121 1.252 . S
In130 O131 2.294 1_545 S
In130 O132 2.326 1_545 S
In130 O136 2.266 . S
In130 O137 2.326 . S
In130 O138 2.264 . S
In130 O139 2.322 . S
In130 O141 2.296 1_545 S
In130 O142 2.330 1_545 S
O131 In130 2.294 1_565 S
O131 C140 1.240 . S
O132 In130 2.326 1_565 S
O132 C140 1.252 . S
C133 O136 1.252 . S
C133 O137 1.260 . S
C134 O141 1.240 . S
C134 O142 1.252 . S
C135 O138 1.252 . S
C135 O139 1.260 . S
O136 In130 2.266 . S
O136 C133 1.252 . S
O137 In130 2.326 . S
O137 C133 1.260 . S
O138 In130 2.264 . S
O138 C135 1.252 . S
O139 In130 2.322 . S
O139 C135 1.260 . S
C140 O131 1.240 . S
C140 O132 1.252 . S
O141 In130 2.296 1_565 S
O141 C134 1.240 . S
O142 In130 2.330 1_565 S
O142 C134 1.252 . S
In143 O144 2.294 . S
In143 O145 2.326 . S
In143 O149 2.266 1_554 S
In143 O150 2.326 1_554 S
In143 O151 2.266 . S
In143 O152 2.326 . S
In143 O154 2.294 . S
In143 O155 2.326 . S
O144 In143 2.294 . S
O144 C153 1.240 . S
O145 In143 2.326 . S
O145 C153 1.252 . S
C146 O149 1.252 . S
C146 O150 1.260 . S
C147 O154 1.240 . S
C147 O155 1.252 . S
C148 O151 1.252 . S
C148 O152 1.260 . S
O149 In143 2.266 1_556 S
O149 C146 1.252 . S
O150 In143 2.326 1_556 S
O150 C146 1.260 . S
O151 In143 2.266 . S
O151 C148 1.252 . S
O152 In143 2.326 . S
O152 C148 1.260 . S
C153 O144 1.240 . S
C153 O145 1.252 . S
O154 In143 2.294 . S
O154 C147 1.240 . S
O155 In143 2.326 . S
O155 C147 1.252 . S
In156 O157 2.294 . S
In156 O158 2.326 . S
In156 O162 2.266 . S
In156 O163 2.326 1_554 S
In156 O164 2.266 . S
In156 O165 2.326 . S
In156 O167 2.294 . S
In156 O168 2.326 . S
O157 In156 2.294 . S
O157 C166 1.240 . S
O158 In156 2.326 . S
O158 C166 1.252 . S
C159 O162 1.252 1_556 S
C159 O163 1.260 . S
C160 O167 1.240 . S
C160 O168 1.252 . S
C161 O164 1.252 . S
C161 O165 1.260 . S
O162 In156 2.266 . S
O162 C159 1.252 1_554 S
O163 In156 2.326 1_556 S
O163 C159 1.260 . S
O164 In156 2.266 . S
O164 C161 1.252 . S
O165 In156 2.326 . S
O165 C161 1.260 . S
C166 O157 1.240 . S
C166 O158 1.252 . S
O167 In156 2.294 . S
O167 C160 1.240 . S
O168 In156 2.326 . S
O168 C160 1.252 . S
In169 O170 2.294 . S
In169 O171 2.326 . S
In169 O175 2.266 . S
In169 O176 2.326 . S
In169 O177 2.266 . S
In169 O178 2.326 1_554 S
In169 O180 2.294 . S
In169 O181 2.326 . S
O170 In169 2.294 . S
O170 C179 1.240 . S
O171 In169 2.326 . S
O171 C179 1.252 . S
C172 O175 1.252 . S
C172 O176 1.260 . S
C173 O180 1.240 . S
C173 O181 1.252 . S
C174 O177 1.252 1_556 S
C174 O178 1.260 . S
O175 In169 2.266 . S
O175 C172 1.252 . S
O176 In169 2.326 . S
O176 C172 1.260 . S
O177 In169 2.266 . S
O177 C174 1.252 1_554 S
O178 In169 2.326 1_556 S
O178 C174 1.260 . S
C179 O170 1.240 . S
C179 O171 1.252 . S
O180 In169 2.294 . S
O180 C173 1.240 . S
O181 In169 2.326 . S
O181 C173 1.252 . S
In182 O183 2.294 . S
In182 O184 2.326 . S
In182 O188 2.266 . S
In182 O189 2.326 . S
In182 O190 2.266 . S
In182 O191 2.326 . S
In182 O193 2.294 . S
In182 O194 2.326 . S
O183 In182 2.294 . S
O183 C192 1.240 . S
O184 In182 2.326 . S
O184 C192 1.252 . S
C185 O188 1.252 . S
C185 O189 1.260 . S
C186 O193 1.240 . S
C186 O194 1.252 . S
C187 O190 1.252 . S
C187 O191 1.260 . S
O188 In182 2.266 . S
O188 C185 1.252 . S
O189 In182 2.326 . S
O189 C185 1.260 . S
O190 In182 2.266 . S
O190 C187 1.252 . S
O191 In182 2.326 . S
O191 C187 1.260 . S
C192 O183 1.240 . S
C192 O184 1.252 . S
O193 In182 2.294 . S
O193 C186 1.240 . S
O194 In182 2.326 . S
O194 C186 1.252 . S
In195 O196 2.294 . S
In195 O197 2.326 . S
In195 O201 2.266 . S
In195 O202 2.326 . S
In195 O203 2.266 . S
In195 O204 2.326 . S
In195 O206 2.294 . S
In195 O207 2.326 . S
O196 In195 2.294 . S
O196 C205 1.240 . S
O197 In195 2.326 . S
O197 C205 1.252 . S
C198 O201 1.252 . S
C198 O202 1.260 . S
C199 O206 1.240 . S
C199 O207 1.252 . S
C200 O203 1.252 . S
C200 O204 1.260 . S
O201 In195 2.266 . S
O201 C198 1.252 . S
O202 In195 2.326 . S
O202 C198 1.260 . S
O203 In195 2.266 . S
O203 C200 1.252 . S
O204 In195 2.326 . S
O204 C200 1.260 . S
C205 O196 1.240 . S
C205 O197 1.252 . S
O206 In195 2.294 . S
O206 C199 1.240 . S
O207 In195 2.326 . S
O207 C199 1.252 . S
In208 O209 2.294 . S
In208 O210 2.326 . S
In208 O214 2.266 . S
In208 O215 2.326 . S
In208 O216 2.266 . S
In208 O217 2.326 . S
In208 O219 2.294 . S
In208 O220 2.326 . S
O209 In208 2.294 . S
O209 C218 1.240 . S
O210 In208 2.326 . S
O210 C218 1.252 . S
C211 O214 1.252 . S
C211 O215 1.260 . S
C212 O219 1.240 . S
C212 O220 1.252 . S
C213 O216 1.252 . S
C213 O217 1.260 . S
O214 In208 2.266 . S
O214 C211 1.252 . S
O215 In208 2.326 . S
O215 C211 1.260 . S
O216 In208 2.266 . S
O216 C213 1.252 . S
O217 In208 2.326 . S
O217 C213 1.260 . S
C218 O209 1.240 . S
C218 O210 1.252 . S
O219 In208 2.294 . S
O219 C212 1.240 . S
O220 In208 2.326 . S
O220 C212 1.252 . S
In221 O222 2.294 . S
In221 O223 2.326 . S
In221 O227 2.266 . S
In221 O228 2.326 . S
In221 O229 2.266 . S
In221 O230 2.326 . S
In221 O232 2.294 . S
In221 O233 2.326 . S
O222 In221 2.294 . S
O222 C231 1.240 . S
O223 In221 2.326 . S
O223 C231 1.252 . S
C224 O227 1.252 . S
C224 O228 1.260 . S
C225 O232 1.240 . S
C225 O233 1.252 . S
C226 O229 1.252 . S
C226 O230 1.260 . S
O227 In221 2.266 . S
O227 C224 1.252 . S
O228 In221 2.326 . S
O228 C224 1.260 . S
O229 In221 2.266 . S
O229 C226 1.252 . S
O230 In221 2.326 . S
O230 C226 1.260 . S
C231 O222 1.240 . S
C231 O223 1.252 . S
O232 In221 2.294 . S
O232 C225 1.240 . S
O233 In221 2.326 . S
O233 C225 1.252 . S
In234 O235 2.294 . S
In234 O236 2.326 . S
In234 O240 2.266 . S
In234 O241 2.326 . S
In234 O242 2.266 . S
In234 O243 2.326 . S
In234 O245 2.294 . S
In234 O246 2.326 . S
O235 In234 2.294 . S
O235 C244 1.240 . S
O236 In234 2.326 . S
O236 C244 1.252 . S
C237 O240 1.252 . S
C237 O241 1.260 . S
C238 O245 1.240 . S
C238 O246 1.252 . S
C239 O242 1.252 . S
C239 O243 1.260 . S
O240 In234 2.266 . S
O240 C237 1.252 . S
O241 In234 2.326 . S
O241 C237 1.260 . S
O242 In234 2.266 . S
O242 C239 1.252 . S
O243 In234 2.326 . S
O243 C239 1.260 . S
C244 O235 1.240 . S
C244 O236 1.252 . S
O245 In234 2.294 . S
O245 C238 1.240 . S
O246 In234 2.326 . S
O246 C238 1.252 . S
In247 O248 2.294 . S
In247 O249 2.326 . S
In247 O253 2.266 . S
In247 O254 2.326 . S
In247 O255 2.266 . S
In247 O256 2.326 . S
In247 O258 2.294 . S
In247 O259 2.326 . S
O248 In247 2.294 . S
O248 C257 1.240 . S
O249 In247 2.326 . S
O249 C257 1.252 . S
C250 O253 1.252 . S
C250 O254 1.260 . S
C251 O258 1.240 . S
C251 O259 1.252 . S
C252 O255 1.252 . S
C252 O256 1.260 . S
O253 In247 2.266 . S
O253 C250 1.252 . S
O254 In247 2.326 . S
O254 C250 1.260 . S
O255 In247 2.266 . S
O255 C252 1.252 . S
O256 In247 2.326 . S
O256 C252 1.260 . S
C257 O248 1.240 . S
C257 O249 1.252 . S
O258 In247 2.294 . S
O258 C251 1.240 . S
O259 In247 2.326 . S
O259 C251 1.252 . S
In260 O261 2.297 . S
In260 O262 2.327 . S
In260 O266 2.265 1_554 S
In260 O267 2.325 1_554 S
In260 O268 2.254 1_554 S
In260 O269 2.309 1_554 S
In260 O271 2.304 . S
In260 O272 2.343 . S
O261 In260 2.297 . S
O261 C270 1.240 . S
O262 In260 2.327 . S
O262 C270 1.252 . S
C263 O266 1.252 . S
C263 O267 1.260 . S
C264 O271 1.240 . S
C264 O272 1.252 . S
C265 O268 1.252 . S
C265 O269 1.260 . S
O266 In260 2.265 1_556 S
O266 C263 1.252 . S
O267 In260 2.325 1_556 S
O267 C263 1.260 . S
O268 In260 2.254 1_556 S
O268 C265 1.252 . S
O269 In260 2.309 1_556 S
O269 C265 1.260 . S
C270 O261 1.240 . S
C270 O262 1.252 . S
O271 In260 2.304 . S
O271 C264 1.240 . S
O272 In260 2.343 . S
O272 C264 1.252 . S
In273 O274 2.294 . S
In273 O275 2.326 . S
In273 O279 2.266 . S
In273 O280 2.326 . S
In273 O281 2.266 . S
In273 O282 2.326 . S
In273 O284 2.294 . S
In273 O285 2.326 . S
O274 In273 2.294 . S
O274 C283 1.240 . S
O275 In273 2.326 . S
O275 C283 1.252 . S
C276 O279 1.252 . S
C276 O280 1.260 . S
C277 O284 1.240 . S
C277 O285 1.252 . S
C278 O281 1.252 . S
C278 O282 1.260 . S
O279 In273 2.266 . S
O279 C276 1.252 . S
O280 In273 2.326 . S
O280 C276 1.260 . S
O281 In273 2.266 . S
O281 C278 1.252 . S
O282 In273 2.326 . S
O282 C278 1.260 . S
C283 O274 1.240 . S
C283 O275 1.252 . S
O284 In273 2.294 . S
O284 C277 1.240 . S
O285 In273 2.326 . S
O285 C277 1.252 . S
In286 O287 2.294 . S
In286 O288 2.326 . S
In286 O292 2.266 . S
In286 O293 2.326 . S
In286 O294 2.266 . S
In286 O295 2.326 . S
In286 O297 2.294 . S
In286 O298 2.326 . S
O287 In286 2.294 . S
O287 C296 1.240 . S
O288 In286 2.326 . S
O288 C296 1.252 . S
C289 O292 1.252 . S
C289 O293 1.260 . S
C290 O297 1.240 . S
C290 O298 1.252 . S
C291 O294 1.252 . S
C291 O295 1.260 . S
O292 In286 2.266 . S
O292 C289 1.252 . S
O293 In286 2.326 . S
O293 C289 1.260 . S
O294 In286 2.266 . S
O294 C291 1.252 . S
O295 In286 2.326 . S
O295 C291 1.260 . S
C296 O287 1.240 . S
C296 O288 1.252 . S
O297 In286 2.294 . S
O297 C290 1.240 . S
O298 In286 2.326 . S
O298 C290 1.252 . S
In299 O300 2.294 . S
In299 O301 2.326 . S
In299 O305 2.266 . S
In299 O306 2.326 . S
In299 O307 2.266 . S
In299 O308 2.326 . S
In299 O310 2.294 . S
In299 O311 2.326 . S
O300 In299 2.294 . S
O300 C309 1.240 . S
O301 In299 2.326 . S
O301 C309 1.252 . S
C302 O305 1.252 . S
C302 O306 1.260 . S
C303 O310 1.240 . S
C303 O311 1.252 . S
C304 O307 1.252 . S
C304 O308 1.260 . S
O305 In299 2.266 . S
O305 C302 1.252 . S
O306 In299 2.326 . S
O306 C302 1.260 . S
O307 In299 2.266 . S
O307 C304 1.252 . S
O308 In299 2.326 . S
O308 C304 1.260 . S
C309 O300 1.240 . S
C309 O301 1.252 . S
O310 In299 2.294 . S
O310 C303 1.240 . S
O311 In299 2.326 . S
O311 C303 1.252 . S
Gd312 N343 2.661 . S
Gd312 N349 2.601 . S
Gd312 O356 2.545 . S
Gd312 O357 2.606 . S
Gd312 O359 2.429 . S
Gd312 O360 2.545 . S
Gd312 O361 2.412 . S
Gd312 O363 2.362 . S
Gd312 O364 2.324 . S
Gd312 C371 2.828 . S
Gd313 N322 2.661 1_545 S
Gd313 N326 2.601 1_544 S
Gd313 O357 2.362 . S
Gd313 O358 2.324 . S
Gd313 O362 2.545 1_554 S
Gd313 O363 2.606 . S
Gd313 O365 2.429 1_554 S
Gd313 O366 2.545 . S
Gd313 O367 2.412 1_455 S
Gd313 C380 2.828 1_455 S
C314 C317 1.411 1_655 S
C314 C319 1.437 . S
C314 C320 1.414 1_655 S
C315 C318 1.437 . S
C315 C319 1.317 1_556 S
C315 H334 0.929 . S
C316 C317 1.426 1_556 S
C316 C318 1.413 1_455 S
C316 N326 1.359 . S
C317 C314 1.411 1_455 S
C317 C316 1.426 1_554 S
C317 N322 1.350 . S
C318 C315 1.437 . S
C318 C316 1.413 1_655 S
C318 C328 1.391 . S
C319 C314 1.437 . S
C319 C315 1.317 1_554 S
C319 H330 0.930 . S
C320 C314 1.414 1_455 S
C320 C321 1.361 . S
C320 H332 0.924 1_455 S
C321 C320 1.361 . S
C321 C323 1.402 . S
C321 H333 0.930 . S
N322 Gd313 2.661 1_565 S
N322 C317 1.350 . S
N322 C323 1.307 . S
C323 C321 1.402 . S
C323 N322 1.307 . S
C323 H324 0.930 1_565 S
H324 C323 0.930 1_545 S
C325 N326 1.334 . S
C325 C327 1.394 . S
C325 H329 0.930 1_565 S
N326 Gd313 2.601 1_566 S
N326 C316 1.359 . S
N326 C325 1.334 . S
C327 C325 1.394 . S
C327 C328 1.359 1_455 S
C327 H339 0.930 . S
C328 C318 1.391 . S
C328 C327 1.359 1_655 S
C328 H340 0.929 . S
H329 C325 0.930 1_545 S
H330 C319 0.930 . S
H331 C348 0.930 1_556 S
H332 C320 0.924 1_655 S
H333 C321 0.930 . S
H334 C315 0.929 . S
H335 C353 0.930 . S
H336 C344 0.930 . S
H337 C345 0.930 . S
H338 C369 0.929 . S
H339 C327 0.930 . S
H340 C328 0.929 . S
H341 C370 0.930 . S
H342 C351 0.930 . S
N343 Gd312 2.661 . S
N343 C347 1.350 . S
N343 C348 1.307 . S
C344 H336 0.930 . S
C344 C345 1.355 1_554 S
C344 C346 1.412 . S
C345 H337 0.930 . S
C345 C344 1.355 1_556 S
C345 C348 1.402 1_556 S
C346 C344 1.412 . S
C346 C347 1.417 . S
C346 C370 1.431 . S
C347 N343 1.350 . S
C347 C346 1.417 . S
C347 C350 1.426 . S
C348 H331 0.930 1_554 S
C348 N343 1.307 . S
C348 C345 1.402 1_554 S
N349 Gd312 2.601 . S
N349 C350 1.359 . S
N349 C353 1.334 . S
C350 C347 1.426 . S
C350 N349 1.359 . S
C350 C354 1.413 . S
C351 H342 0.930 . S
C351 C352 1.359 . S
C351 C353 1.394 . S
C352 C351 1.359 . S
C352 C354 1.391 . S
C352 H355 0.929 . S
C353 H335 0.930 . S
C353 N349 1.334 . S
C353 C351 1.394 . S
C354 C350 1.413 . S
C354 C352 1.391 . S
C354 C369 1.437 . S
H355 C352 0.929 . S
O356 Gd312 2.545 . S
O356 C371 1.258 . S
O357 Gd312 2.606 . S
O357 Gd313 2.362 . S
O357 C368 1.284 . S
O358 Gd313 2.324 . S
O358 C378 1.254 . S
O359 Gd312 2.429 . S
O359 C378 1.268 . S
O360 Gd312 2.545 . S
O360 C368 1.250 . S
O361 Gd312 2.412 . S
O361 C371 1.252 . S
O362 Gd313 2.545 1_556 S
O362 C380 1.258 1_456 S
O363 Gd312 2.362 . S
O363 Gd313 2.606 . S
O363 C379 1.284 . S
O364 Gd312 2.324 . S
O364 C387 1.254 1_554 S
O365 Gd313 2.429 1_556 S
O365 C387 1.268 . S
O366 Gd313 2.545 . S
O366 C379 1.250 . S
O367 Gd313 2.412 1_655 S
O367 C380 1.252 . S
C368 O357 1.284 . S
C368 O360 1.250 . S
C369 H338 0.929 . S
C369 C354 1.437 . S
C369 C370 1.317 . S
C370 H341 0.930 . S
C370 C346 1.431 . S
C370 C369 1.317 . S
C371 Gd312 2.828 . S
C371 O356 1.258 . S
C371 O361 1.252 . S
C371 C372 1.497 . S
C372 C371 1.497 . S
C372 C373 1.395 . S
C372 C374 1.380 . S
C373 C372 1.395 . S
C373 C376 1.398 . S
C373 H388 0.930 . S
C374 C372 1.380 . S
C374 C375 1.391 . S
C374 H389 0.930 . S
C375 C374 1.391 . S
C375 C377 1.387 . S
C376 C373 1.398 . S
C376 C377 1.380 . S
C376 H390 0.930 . S
C377 C375 1.387 . S
C377 C376 1.380 . S
C377 H391 0.930 . S
C378 O358 1.254 . S
C378 O359 1.268 . S
C379 O363 1.284 . S
C379 O366 1.250 . S
C380 Gd313 2.828 1_655 S
C380 O362 1.258 1_654 S
C380 O367 1.252 . S
C380 C381 1.497 . S
C381 C380 1.497 . S
C381 C382 1.393 1_554 S
C381 C383 1.382 . S
C382 C381 1.393 1_556 S
C382 C385 1.398 . S
C382 H392 0.930 . S
C383 C381 1.382 . S
C383 C384 1.391 . S
C383 H393 0.930 . S
C384 C383 1.391 . S
C384 C386 1.387 1_554 S
C385 C382 1.398 . S
C385 C386 1.380 . S
C385 H394 0.930 . S
C386 C384 1.387 1_556 S
C386 C385 1.380 . S
C386 H395 0.930 . S
C387 O364 1.254 1_556 S
C387 O365 1.268 . S
H388 C373 0.930 . S
H389 C374 0.930 . S
H390 C376 0.930 . S
H391 C377 0.930 . S
H392 C382 0.930 . S
H393 C383 0.930 . S
H394 C385 0.930 . S
H395 C386 0.930 . S
Gd396 N427 2.661 . S
Gd396 N433 2.601 . S
Gd396 O440 2.545 . S
Gd396 O441 2.606 . S
Gd396 O443 2.429 . S
Gd396 O444 2.545 . S
Gd396 O445 2.412 . S
Gd396 O447 2.362 . S
Gd396 O448 2.324 . S
Gd396 C455 2.828 . S
Gd397 N406 2.661 . S
Gd397 N410 2.601 . S
Gd397 O441 2.362 . S
Gd397 O442 2.324 . S
Gd397 O446 2.545 . S
Gd397 O447 2.606 . S
Gd397 O449 2.429 . S
Gd397 O450 2.545 . S
Gd397 O451 2.412 . S
Gd397 C464 2.828 . S
C398 C401 1.417 . S
C398 C403 1.431 . S
C398 C404 1.412 . S
C399 C402 1.437 . S
C399 C403 1.317 . S
C399 H418 0.929 . S
C400 C401 1.426 . S
C400 C402 1.413 . S
C400 N410 1.359 . S
C401 C398 1.417 . S
C401 C400 1.426 . S
C401 N406 1.350 . S
C402 C399 1.437 . S
C402 C400 1.413 . S
C402 C412 1.391 . S
C403 C398 1.431 . S
C403 C399 1.317 . S
C403 H414 0.930 . S
C404 C398 1.412 . S
C404 C405 1.355 . S
C404 H416 0.930 . S
C405 C404 1.355 . S
C405 C407 1.402 . S
C405 H417 0.930 . S
N406 Gd397 2.661 . S
N406 C401 1.350 . S
N406 C407 1.307 . S
C407 C405 1.402 . S
C407 N406 1.307 . S
C407 H408 0.930 . S
H408 C407 0.930 . S
C409 N410 1.334 . S
C409 C411 1.394 . S
C409 H413 0.930 . S
N410 Gd397 2.601 . S
N410 C400 1.359 . S
N410 C409 1.334 . S
C411 C409 1.394 . S
C411 C412 1.359 . S
C411 H423 0.930 . S
C412 C402 1.391 . S
C412 C411 1.359 . S
C412 H424 0.929 . S
H413 C409 0.930 . S
H414 C403 0.930 . S
H415 C432 0.930 . S
H416 C404 0.930 . S
H417 C405 0.930 . S
H418 C399 0.929 . S
H419 C437 0.930 . S
H420 C428 0.930 . S
H421 C429 0.930 . S
H422 C453 0.929 . S
H423 C411 0.930 . S
H424 C412 0.929 . S
H425 C454 0.930 . S
H426 C435 0.930 . S
N427 Gd396 2.661 . S
N427 C431 1.350 . S
N427 C432 1.307 . S
C428 H420 0.930 . S
C428 C429 1.355 . S
C428 C430 1.412 . S
C429 H421 0.930 . S
C429 C428 1.355 . S
C429 C432 1.402 . S
C430 C428 1.412 . S
C430 C431 1.417 . S
C430 C454 1.431 . S
C431 N427 1.350 . S
C431 C430 1.417 . S
C431 C434 1.426 . S
C432 H415 0.930 . S
C432 N427 1.307 . S
C432 C429 1.402 . S
N433 Gd396 2.601 . S
N433 C434 1.359 . S
N433 C437 1.334 . S
C434 C431 1.426 . S
C434 N433 1.359 . S
C434 C438 1.413 . S
C435 H426 0.930 . S
C435 C436 1.359 . S
C435 C437 1.394 . S
C436 C435 1.359 . S
C436 C438 1.391 . S
C436 H439 0.929 . S
C437 H419 0.930 . S
C437 N433 1.334 . S
C437 C435 1.394 . S
C438 C434 1.413 . S
C438 C436 1.391 . S
C438 C453 1.437 . S
H439 C436 0.929 . S
O440 Gd396 2.545 . S
O440 C455 1.258 . S
O441 Gd396 2.606 . S
O441 Gd397 2.362 . S
O441 C452 1.284 . S
O442 Gd397 2.324 . S
O442 C462 1.254 . S
O443 Gd396 2.429 . S
O443 C462 1.268 . S
O444 Gd396 2.545 . S
O444 C452 1.250 . S
O445 Gd396 2.412 . S
O445 C455 1.252 . S
O446 Gd397 2.545 . S
O446 C464 1.258 . S
O447 Gd396 2.362 . S
O447 Gd397 2.606 . S
O447 C463 1.284 . S
O448 Gd396 2.324 . S
O448 C471 1.254 . S
O449 Gd397 2.429 . S
O449 C471 1.268 . S
O450 Gd397 2.545 . S
O450 C463 1.250 . S
O451 Gd397 2.412 . S
O451 C464 1.252 . S
C452 O441 1.284 . S
C452 O444 1.250 . S
C453 H422 0.929 . S
C453 C438 1.437 . S
C453 C454 1.317 . S
C454 H425 0.930 . S
C454 C430 1.431 . S
C454 C453 1.317 . S
C455 Gd396 2.828 . S
C455 O440 1.258 . S
C455 O445 1.252 . S
C455 C456 1.497 . S
C456 C455 1.497 . S
C456 C457 1.395 . S
C456 C458 1.380 . S
C457 C456 1.395 . S
C457 C460 1.398 . S
C457 H472 0.930 . S
C458 C456 1.380 . S
C458 C459 1.391 . S
C458 H473 0.930 . S
C459 C458 1.391 . S
C459 C461 1.387 . S
C460 C457 1.398 . S
C460 C461 1.380 . S
C460 H474 0.930 . S
C461 C459 1.387 . S
C461 C460 1.380 . S
C461 H475 0.930 . S
C462 O442 1.254 . S
C462 O443 1.268 . S
C463 O447 1.284 . S
C463 O450 1.250 . S
C464 Gd397 2.828 . S
C464 O446 1.258 . S
C464 O451 1.252 . S
C464 C465 1.497 . S
C465 C464 1.497 . S
C465 C466 1.395 . S
C465 C467 1.380 . S
C466 C465 1.395 . S
C466 C469 1.398 . S
C466 H476 0.930 . S
C467 C465 1.380 . S
C467 C468 1.391 . S
C467 H477 0.930 . S
C468 C467 1.391 . S
C468 C470 1.387 . S
C469 C466 1.398 . S
C469 C470 1.380 . S
C469 H478 0.930 . S
C470 C468 1.387 . S
C470 C469 1.380 . S
C470 H479 0.930 . S
C471 O448 1.254 . S
C471 O449 1.268 . S
H472 C457 0.930 . S
H473 C458 0.930 . S
H474 C460 0.930 . S
H475 C461 0.930 . S
H476 C466 0.930 . S
H477 C467 0.930 . S
H478 C469 0.930 . S
H479 C470 0.930 . S
Gd480 N511 2.661 1_545 S
Gd480 N517 2.601 1_545 S
Gd480 O524 2.545 . S
Gd480 O525 2.606 . S
Gd480 O527 2.429 . S
Gd480 O528 2.545 . S
Gd480 O529 2.412 . S
Gd480 O531 2.362 1_545 S
Gd480 O532 2.324 . S
Gd480 C539 2.828 . S
Gd481 N490 2.661 . S
Gd481 N494 2.601 . S
Gd481 O525 2.362 . S
Gd481 O526 2.324 . S
Gd481 O530 2.545 . S
Gd481 O531 2.606 1_545 S
Gd481 O533 2.429 . S
Gd481 O534 2.545 1_545 S
Gd481 O535 2.412 . S
Gd481 C548 2.828 . S
C482 C485 1.417 . S
C482 C487 1.431 . S
C482 C488 1.412 . S
C483 C486 1.437 . S
C483 C487 1.317 . S
C483 H502 0.929 . S
C484 C485 1.426 . S
C484 C486 1.413 . S
C484 N494 1.359 . S
C485 C482 1.417 . S
C485 C484 1.426 . S
C485 N490 1.350 . S
C486 C483 1.437 . S
C486 C484 1.413 . S
C486 C496 1.391 . S
C487 C482 1.431 . S
C487 C483 1.317 . S
C487 H498 0.930 . S
C488 C482 1.412 . S
C488 C489 1.355 . S
C488 H500 0.930 . S
C489 C488 1.355 . S
C489 C491 1.402 . S
C489 H501 0.930 . S
N490 Gd481 2.661 . S
N490 C485 1.350 . S
N490 C491 1.307 . S
C491 C489 1.402 . S
C491 N490 1.307 . S
C491 H492 0.930 . S
H492 C491 0.930 . S
C493 N494 1.334 . S
C493 C495 1.394 . S
C493 H497 0.930 . S
N494 Gd481 2.601 . S
N494 C484 1.359 . S
N494 C493 1.334 . S
C495 C493 1.394 . S
C495 C496 1.359 . S
C495 H507 0.930 . S
C496 C486 1.391 . S
C496 C495 1.359 . S
C496 H508 0.929 . S
H497 C493 0.930 . S
H498 C487 0.930 . S
H499 C516 0.930 . S
H500 C488 0.930 . S
H501 C489 0.930 . S
H502 C483 0.929 . S
H503 C521 0.930 . S
H504 C512 0.930 . S
H505 C513 0.930 . S
H506 C537 0.929 . S
H507 C495 0.930 . S
H508 C496 0.929 . S
H509 C538 0.930 . S
H510 C519 0.930 . S
N511 Gd480 2.661 1_565 S
N511 C515 1.350 . S
N511 C516 1.307 . S
C512 H504 0.930 . S
C512 C513 1.355 . S
C512 C514 1.412 . S
C513 H505 0.930 . S
C513 C512 1.355 . S
C513 C516 1.402 . S
C514 C512 1.412 . S
C514 C515 1.417 . S
C514 C538 1.431 . S
C515 N511 1.350 . S
C515 C514 1.417 . S
C515 C518 1.426 . S
C516 H499 0.930 . S
C516 N511 1.307 . S
C516 C513 1.402 . S
N517 Gd480 2.601 1_565 S
N517 C518 1.359 . S
N517 C521 1.334 1_565 S
C518 C515 1.426 . S
C518 N517 1.359 . S
C518 C522 1.413 . S
C519 H510 0.930 . S
C519 C520 1.359 . S
C519 C521 1.394 1_565 S
C520 C519 1.359 . S
C520 C522 1.391 . S
C520 H523 0.929 . S
C521 H503 0.930 . S
C521 N517 1.334 1_545 S
C521 C519 1.394 1_545 S
C522 C518 1.413 . S
C522 C520 1.391 . S
C522 C537 1.437 . S
H523 C520 0.929 . S
O524 Gd480 2.545 . S
O524 C539 1.258 . S
O525 Gd480 2.606 . S
O525 Gd481 2.362 . S
O525 C536 1.284 . S
O526 Gd481 2.324 . S
O526 C546 1.254 . S
O527 Gd480 2.429 . S
O527 C546 1.268 . S
O528 Gd480 2.545 . S
O528 C536 1.250 . S
O529 Gd480 2.412 . S
O529 C539 1.252 . S
O530 Gd481 2.545 . S
O530 C548 1.258 . S
O531 Gd480 2.362 1_565 S
O531 Gd481 2.606 1_565 S
O531 C547 1.284 . S
O532 Gd480 2.324 . S
O532 C555 1.254 . S
O533 Gd481 2.429 . S
O533 C555 1.268 . S
O534 Gd481 2.545 1_565 S
O534 C547 1.250 . S
O535 Gd481 2.412 . S
O535 C548 1.252 . S
C536 O525 1.284 . S
C536 O528 1.250 . S
C537 H506 0.929 . S
C537 C522 1.437 . S
C537 C538 1.317 . S
C538 H509 0.930 . S
C538 C514 1.431 . S
C538 C537 1.317 . S
C539 Gd480 2.828 . S
C539 O524 1.258 . S
C539 O529 1.252 . S
C539 C540 1.497 . S
C540 C539 1.497 . S
C540 C541 1.395 . S
C540 C542 1.380 . S
C541 C540 1.395 . S
C541 C544 1.398 . S
C541 H556 0.930 . S
C542 C540 1.380 . S
C542 C543 1.391 . S
C542 H557 0.930 . S
C543 C542 1.391 . S
C543 C545 1.387 . S
C544 C541 1.398 . S
C544 C545 1.380 . S
C544 H558 0.930 . S
C545 C543 1.387 . S
C545 C544 1.380 . S
C545 H559 0.930 . S
C546 O526 1.254 . S
C546 O527 1.268 . S
C547 O531 1.284 . S
C547 O534 1.250 . S
C548 Gd481 2.828 . S
C548 O530 1.258 . S
C548 O535 1.252 . S
C548 C549 1.497 1_545 S
C549 C548 1.497 1_565 S
C549 C550 1.395 . S
C549 C551 1.380 . S
C550 C549 1.395 . S
C550 C553 1.398 . S
C550 H560 0.914 1_565 S
C551 C549 1.380 . S
C551 C552 1.391 . S
C551 H561 0.930 . S
C552 C551 1.391 . S
C552 C554 1.387 . S
C553 C550 1.398 . S
C553 C554 1.380 . S
C553 H562 0.930 . S
C554 C552 1.387 . S
C554 C553 1.380 . S
C554 H563 0.930 . S
C555 O532 1.254 . S
C555 O533 1.268 . S
H556 C541 0.930 . S
H557 C542 0.930 . S
H558 C544 0.930 . S
H559 C545 0.930 . S
H560 C550 0.914 1_545 S
H561 C551 0.930 . S
H562 C553 0.930 . S
H563 C554 0.930 . S
Gd564 N595 2.661 . S
Gd564 N601 2.601 . S
Gd564 O608 2.545 . S
Gd564 O609 2.606 . S
Gd564 O611 2.429 . S
Gd564 O612 2.545 . S
Gd564 O613 2.412 . S
Gd564 O615 2.362 . S
Gd564 O616 2.324 . S
Gd564 C623 2.828 . S
Gd565 N574 2.661 . S
Gd565 N578 2.601 . S
Gd565 O609 2.362 . S
Gd565 O610 2.324 . S
Gd565 O614 2.545 . S
Gd565 O615 2.606 . S
Gd565 O617 2.429 . S
Gd565 O618 2.545 . S
Gd565 O619 2.412 . S
Gd565 C632 2.828 . S
C566 C569 1.417 . S
C566 C571 1.431 . S
C566 C572 1.412 . S
C567 C570 1.437 . S
C567 C571 1.317 . S
C567 H586 0.929 . S
C568 C569 1.426 . S
C568 C570 1.413 . S
C568 N578 1.359 . S
C569 C566 1.417 . S
C569 C568 1.426 . S
C569 N574 1.350 . S
C570 C567 1.437 . S
C570 C568 1.413 . S
C570 C580 1.391 . S
C571 C566 1.431 . S
C571 C567 1.317 . S
C571 H582 0.930 . S
C572 C566 1.412 . S
C572 C573 1.355 . S
C572 H584 0.930 . S
C573 C572 1.355 . S
C573 C575 1.402 . S
C573 H585 0.930 . S
N574 Gd565 2.661 . S
N574 C569 1.350 . S
N574 C575 1.307 . S
C575 C573 1.402 . S
C575 N574 1.307 . S
C575 H576 0.930 . S
H576 C575 0.930 . S
C577 N578 1.334 . S
C577 C579 1.394 . S
C577 H581 0.930 . S
N578 Gd565 2.601 . S
N578 C568 1.359 . S
N578 C577 1.334 . S
C579 C577 1.394 . S
C579 C580 1.359 . S
C579 H591 0.930 . S
C580 C570 1.391 . S
C580 C579 1.359 . S
C580 H592 0.929 . S
H581 C577 0.930 . S
H582 C571 0.930 . S
H583 C600 0.930 . S
H584 C572 0.930 . S
H585 C573 0.930 . S
H586 C567 0.929 . S
H587 C605 0.930 . S
H588 C596 0.930 . S
H589 C597 0.930 . S
H590 C621 0.929 . S
H591 C579 0.930 . S
H592 C580 0.929 . S
H593 C622 0.930 . S
H594 C603 0.930 . S
N595 Gd564 2.661 . S
N595 C599 1.350 . S
N595 C600 1.307 . S
C596 H588 0.930 . S
C596 C597 1.355 . S
C596 C598 1.412 . S
C597 H589 0.930 . S
C597 C596 1.355 . S
C597 C600 1.402 . S
C598 C596 1.412 . S
C598 C599 1.417 . S
C598 C622 1.431 . S
C599 N595 1.350 . S
C599 C598 1.417 . S
C599 C602 1.426 . S
C600 H583 0.930 . S
C600 N595 1.307 . S
C600 C597 1.402 . S
N601 Gd564 2.601 . S
N601 C602 1.359 . S
N601 C605 1.334 . S
C602 C599 1.426 . S
C602 N601 1.359 . S
C602 C606 1.413 . S
C603 H594 0.930 . S
C603 C604 1.359 . S
C603 C605 1.394 . S
C604 C603 1.359 . S
C604 C606 1.391 . S
C604 H607 0.929 . S
C605 H587 0.930 . S
C605 N601 1.334 . S
C605 C603 1.394 . S
C606 C602 1.413 . S
C606 C604 1.391 . S
C606 C621 1.437 . S
H607 C604 0.929 . S
O608 Gd564 2.545 . S
O608 C623 1.258 . S
O609 Gd564 2.606 . S
O609 Gd565 2.362 . S
O609 C620 1.284 . S
O610 Gd565 2.324 . S
O610 C630 1.254 . S
O611 Gd564 2.429 . S
O611 C630 1.268 . S
O612 Gd564 2.545 . S
O612 C620 1.250 . S
O613 Gd564 2.412 . S
O613 C623 1.252 . S
O614 Gd565 2.545 . S
O614 C632 1.258 . S
O615 Gd564 2.362 . S
O615 Gd565 2.606 . S
O615 C631 1.284 . S
O616 Gd564 2.324 . S
O616 C639 1.254 . S
O617 Gd565 2.429 . S
O617 C639 1.268 . S
O618 Gd565 2.545 . S
O618 C631 1.250 . S
O619 Gd565 2.412 . S
O619 C632 1.252 . S
C620 O609 1.284 . S
C620 O612 1.250 . S
C621 H590 0.929 . S
C621 C606 1.437 . S
C621 C622 1.317 . S
C622 H593 0.930 . S
C622 C598 1.431 . S
C622 C621 1.317 . S
C623 Gd564 2.828 . S
C623 O608 1.258 . S
C623 O613 1.252 . S
C623 C624 1.497 . S
C624 C623 1.497 . S
C624 C625 1.395 . S
C624 C626 1.380 . S
C625 C624 1.395 . S
C625 C628 1.398 . S
C625 H640 0.930 . S
C626 C624 1.380 . S
C626 C627 1.391 . S
C626 H641 0.930 . S
C627 C626 1.391 . S
C627 C629 1.387 . S
C628 C625 1.398 . S
C628 C629 1.380 . S
C628 H642 0.930 . S
C629 C627 1.387 . S
C629 C628 1.380 . S
C629 H643 0.930 . S
C630 O610 1.254 . S
C630 O611 1.268 . S
C631 O615 1.284 . S
C631 O618 1.250 . S
C632 Gd565 2.828 . S
C632 O614 1.258 . S
C632 O619 1.252 . S
C632 C633 1.497 . S
C633 C632 1.497 . S
C633 C634 1.395 . S
C633 C635 1.380 . S
C634 C633 1.395 . S
C634 C637 1.398 . S
C634 H644 0.930 . S
C635 C633 1.380 . S
C635 C636 1.391 . S
C635 H645 0.930 . S
C636 C635 1.391 . S
C636 C638 1.387 . S
C637 C634 1.398 . S
C637 C638 1.380 . S
C637 H646 0.930 . S
C638 C636 1.387 . S
C638 C637 1.380 . S
C638 H647 0.930 . S
C639 O616 1.254 . S
C639 O617 1.268 . S
H640 C625 0.930 . S
H641 C626 0.930 . S
H642 C628 0.930 . S
H643 C629 0.930 . S
H644 C634 0.930 . S
H645 C635 0.930 . S
H646 C637 0.930 . S
H647 C638 0.930 . S
Gd648 N679 2.661 . S
Gd648 N685 2.601 . S
Gd648 O692 2.545 . S
Gd648 O693 2.606 1_565 S
Gd648 O695 2.429 1_565 S
Gd648 O696 2.545 . S
Gd648 O697 2.412 . S
Gd648 O699 2.362 1_565 S
Gd648 O700 2.324 . S
Gd648 C707 2.828 . S
Gd649 N658 2.661 . S
Gd649 N662 2.601 . S
Gd649 O693 2.362 . S
Gd649 O694 2.324 . S
Gd649 O698 2.545 . S
Gd649 O699 2.606 . S
Gd649 O701 2.429 . S
Gd649 O702 2.545 . S
Gd649 O703 2.412 . S
Gd649 C716 2.828 . S
C650 C653 1.417 . S
C650 C655 1.431 . S
C650 C656 1.412 . S
C651 C654 1.437 . S
C651 C655 1.317 . S
C651 H670 0.929 . S
C652 C653 1.426 . S
C652 C654 1.413 . S
C652 N662 1.359 . S
C653 C650 1.417 . S
C653 C652 1.426 . S
C653 N658 1.350 . S
C654 C651 1.437 . S
C654 C652 1.413 . S
C654 C664 1.391 . S
C655 C650 1.431 . S
C655 C651 1.317 . S
C655 H666 0.930 . S
C656 C650 1.412 . S
C656 C657 1.355 . S
C656 H668 0.930 . S
C657 C656 1.355 . S
C657 C659 1.402 . S
C657 H669 0.930 . S
N658 Gd649 2.661 . S
N658 C653 1.350 . S
N658 C659 1.307 . S
C659 C657 1.402 . S
C659 N658 1.307 . S
C659 H660 0.930 . S
H660 C659 0.930 . S
C661 N662 1.334 . S
C661 C663 1.394 . S
C661 H665 0.930 . S
N662 Gd649 2.601 . S
N662 C652 1.359 . S
N662 C661 1.334 . S
C663 C661 1.394 . S
C663 C664 1.359 . S
C663 H675 0.930 1_455 S
C664 C654 1.391 . S
C664 C663 1.359 . S
C664 H676 0.929 . S
H665 C661 0.930 . S
H666 C655 0.930 . S
H667 C684 0.930 . S
H668 C656 0.930 . S
H669 C657 0.930 . S
H670 C651 0.929 . S
H671 C689 0.930 . S
H672 C680 0.930 . S
H673 C681 0.930 1_655 S
H674 C705 0.929 . S
H675 C663 0.930 1_655 S
H676 C664 0.929 . S
H677 C706 0.930 . S
H678 C687 0.930 . S
N679 Gd648 2.661 . S
N679 C683 1.350 . S
N679 C684 1.307 . S
C680 H672 0.930 . S
C680 C681 1.355 . S
C680 C682 1.412 . S
C681 H673 0.930 1_455 S
C681 C680 1.355 . S
C681 C684 1.402 . S
C682 C680 1.412 . S
C682 C683 1.417 . S
C682 C706 1.431 . S
C683 N679 1.350 . S
C683 C682 1.417 . S
C683 C686 1.426 . S
C684 H667 0.930 . S
C684 N679 1.307 . S
C684 C681 1.402 . S
N685 Gd648 2.601 . S
N685 C686 1.359 . S
N685 C689 1.334 . S
C686 C683 1.426 . S
C686 N685 1.359 . S
C686 C690 1.413 . S
C687 H678 0.930 . S
C687 C688 1.359 . S
C687 C689 1.394 . S
C688 C687 1.359 . S
C688 C690 1.391 . S
C688 H691 0.929 . S
C689 H671 0.930 . S
C689 N685 1.334 . S
C689 C687 1.394 . S
C690 C686 1.413 . S
C690 C688 1.391 . S
C690 C705 1.437 . S
H691 C688 0.929 . S
O692 Gd648 2.545 . S
O692 C707 1.258 . S
O693 Gd648 2.606 1_545 S
O693 Gd649 2.362 . S
O693 C704 1.284 . S
O694 Gd649 2.324 . S
O694 C714 1.254 . S
O695 Gd648 2.429 1_545 S
O695 C714 1.268 . S
O696 Gd648 2.545 . S
O696 C704 1.250 1_565 S
O697 Gd648 2.412 . S
O697 C707 1.252 . S
O698 Gd649 2.545 . S
O698 C716 1.258 . S
O699 Gd648 2.362 1_545 S
O699 Gd649 2.606 . S
O699 C715 1.284 . S
O700 Gd648 2.324 . S
O700 C723 1.254 1_565 S
O701 Gd649 2.429 . S
O701 C723 1.268 . S
O702 Gd649 2.545 . S
O702 C715 1.250 . S
O703 Gd649 2.412 . S
O703 C716 1.252 . S
C704 O693 1.284 . S
C704 O696 1.250 1_545 S
C705 H674 0.929 . S
C705 C690 1.437 . S
C705 C706 1.317 . S
C706 H677 0.930 . S
C706 C682 1.431 . S
C706 C705 1.317 . S
C707 Gd648 2.828 . S
C707 O692 1.258 . S
C707 O697 1.252 . S
C707 C708 1.497 . S
C708 C707 1.497 . S
C708 C709 1.395 . S
C708 C710 1.380 . S
C709 C708 1.395 . S
C709 C712 1.398 . S
C709 H724 0.930 . S
C710 C708 1.380 . S
C710 C711 1.391 . S
C710 H725 0.930 . S
C711 C710 1.391 . S
C711 C713 1.387 . S
C712 C709 1.398 . S
C712 C713 1.380 . S
C712 H726 0.930 . S
C713 C711 1.387 . S
C713 C712 1.380 . S
C713 H727 0.930 . S
C714 O694 1.254 . S
C714 O695 1.268 . S
C715 O699 1.284 . S
C715 O702 1.250 . S
C716 Gd649 2.828 . S
C716 O698 1.258 . S
C716 O703 1.252 . S
C716 C717 1.497 . S
C717 C716 1.497 . S
C717 C718 1.395 . S
C717 C719 1.380 . S
C718 C717 1.395 . S
C718 C721 1.398 . S
C718 H728 0.930 . S
C719 C717 1.380 . S
C719 C720 1.391 . S
C719 H729 0.930 . S
C720 C719 1.391 . S
C720 C722 1.387 . S
C721 C718 1.398 . S
C721 C722 1.380 . S
C721 H730 0.930 . S
C722 C720 1.387 . S
C722 C721 1.380 . S
C722 H731 0.930 . S
C723 O700 1.254 1_545 S
C723 O701 1.268 . S
H724 C709 0.930 . S
H725 C710 0.930 . S
H726 C712 0.930 . S
H727 C713 0.930 . S
H728 C718 0.930 . S
H729 C719 0.930 . S
H730 C721 0.930 . S
H731 C722 0.930 . S
Gd732 N763 2.661 . S
Gd732 N769 2.601 . S
Gd732 O776 2.545 . S
Gd732 O777 2.606 . S
Gd732 O779 2.429 . S
Gd732 O780 2.545 . S
Gd732 O781 2.412 . S
Gd732 O783 2.362 . S
Gd732 O784 2.324 . S
Gd732 C791 2.828 . S
Gd733 N742 2.661 . S
Gd733 N746 2.601 . S
Gd733 O777 2.362 . S
Gd733 O778 2.324 . S
Gd733 O782 2.545 . S
Gd733 O783 2.606 . S
Gd733 O785 2.429 . S
Gd733 O786 2.545 . S
Gd733 O787 2.412 . S
Gd733 C800 2.828 . S
C734 C737 1.417 . S
C734 C739 1.431 . S
C734 C740 1.412 . S
C735 C738 1.437 . S
C735 C739 1.317 . S
C735 H754 0.929 . S
C736 C737 1.426 . S
C736 C738 1.413 . S
C736 N746 1.359 . S
C737 C734 1.417 . S
C737 C736 1.426 . S
C737 N742 1.350 . S
C738 C735 1.437 . S
C738 C736 1.413 . S
C738 C748 1.391 . S
C739 C734 1.431 . S
C739 C735 1.317 . S
C739 H750 0.930 . S
C740 C734 1.412 . S
C740 C741 1.355 . S
C740 H752 0.930 . S
C741 C740 1.355 . S
C741 C743 1.402 . S
C741 H753 0.930 . S
N742 Gd733 2.661 . S
N742 C737 1.350 . S
N742 C743 1.307 . S
C743 C741 1.402 . S
C743 N742 1.307 . S
C743 H744 0.930 . S
H744 C743 0.930 . S
C745 N746 1.334 . S
C745 C747 1.394 . S
C745 H749 0.930 . S
N746 Gd733 2.601 . S
N746 C736 1.359 . S
N746 C745 1.334 . S
C747 C745 1.394 . S
C747 C748 1.359 . S
C747 H759 0.930 . S
C748 C738 1.391 . S
C748 C747 1.359 . S
C748 H760 0.929 . S
H749 C745 0.930 . S
H750 C739 0.930 . S
H751 C768 0.930 . S
H752 C740 0.930 . S
H753 C741 0.930 . S
H754 C735 0.929 . S
H755 C773 0.930 . S
H756 C764 0.930 . S
H757 C765 0.930 . S
H758 C789 0.929 . S
H759 C747 0.930 . S
H760 C748 0.929 . S
H761 C790 0.930 . S
H762 C771 0.930 . S
N763 Gd732 2.661 . S
N763 C767 1.350 . S
N763 C768 1.307 . S
C764 H756 0.930 . S
C764 C765 1.355 . S
C764 C766 1.412 . S
C765 H757 0.930 . S
C765 C764 1.355 . S
C765 C768 1.402 . S
C766 C764 1.412 . S
C766 C767 1.417 . S
C766 C790 1.431 . S
C767 N763 1.350 . S
C767 C766 1.417 . S
C767 C770 1.426 . S
C768 H751 0.930 . S
C768 N763 1.307 . S
C768 C765 1.402 . S
N769 Gd732 2.601 . S
N769 C770 1.359 . S
N769 C773 1.334 . S
C770 C767 1.426 . S
C770 N769 1.359 . S
C770 C774 1.413 . S
C771 H762 0.930 . S
C771 C772 1.359 . S
C771 C773 1.394 . S
C772 C771 1.359 . S
C772 C774 1.391 . S
C772 H775 0.929 . S
C773 H755 0.930 . S
C773 N769 1.334 . S
C773 C771 1.394 . S
C774 C770 1.413 . S
C774 C772 1.391 . S
C774 C789 1.437 . S
H775 C772 0.929 . S
O776 Gd732 2.545 . S
O776 C791 1.258 . S
O777 Gd732 2.606 . S
O777 Gd733 2.362 . S
O777 C788 1.284 . S
O778 Gd733 2.324 . S
O778 C798 1.254 . S
O779 Gd732 2.429 . S
O779 C798 1.268 . S
O780 Gd732 2.545 . S
O780 C788 1.250 . S
O781 Gd732 2.412 . S
O781 C791 1.252 . S
O782 Gd733 2.545 . S
O782 C800 1.258 . S
O783 Gd732 2.362 . S
O783 Gd733 2.606 . S
O783 C799 1.284 . S
O784 Gd732 2.324 . S
O784 C807 1.254 . S
O785 Gd733 2.429 . S
O785 C807 1.268 . S
O786 Gd733 2.545 . S
O786 C799 1.250 . S
O787 Gd733 2.412 . S
O787 C800 1.252 . S
C788 O777 1.284 . S
C788 O780 1.250 . S
C789 H758 0.929 . S
C789 C774 1.437 . S
C789 C790 1.317 . S
C790 H761 0.930 . S
C790 C766 1.431 . S
C790 C789 1.317 . S
C791 Gd732 2.828 . S
C791 O776 1.258 . S
C791 O781 1.252 . S
C791 C792 1.497 . S
C792 C791 1.497 . S
C792 C793 1.395 . S
C792 C794 1.380 . S
C793 C792 1.395 . S
C793 C796 1.398 . S
C793 H808 0.930 . S
C794 C792 1.380 . S
C794 C795 1.391 . S
C794 H809 0.930 . S
C795 C794 1.391 . S
C795 C797 1.387 . S
C796 C793 1.398 . S
C796 C797 1.380 . S
C796 H810 0.930 . S
C797 C795 1.387 . S
C797 C796 1.380 . S
C797 H811 0.930 . S
C798 O778 1.254 . S
C798 O779 1.268 . S
C799 O783 1.284 . S
C799 O786 1.250 . S
C800 Gd733 2.828 . S
C800 O782 1.258 . S
C800 O787 1.252 . S
C800 C801 1.497 . S
C801 C800 1.497 . S
C801 C802 1.395 . S
C801 C803 1.380 . S
C802 C801 1.395 . S
C802 C805 1.398 . S
C802 H812 0.930 . S
C803 C801 1.380 . S
C803 C804 1.391 . S
C803 H813 0.930 . S
C804 C803 1.391 . S
C804 C806 1.387 . S
C805 C802 1.398 . S
C805 C806 1.380 . S
C805 H814 0.930 . S
C806 C804 1.387 . S
C806 C805 1.380 . S
C806 H815 0.930 . S
C807 O784 1.254 . S
C807 O785 1.268 . S
H808 C793 0.930 . S
H809 C794 0.930 . S
H810 C796 0.930 . S
H811 C797 0.930 . S
H812 C802 0.930 . S
H813 C803 0.930 . S
H814 C805 0.930 . S
H815 C806 0.930 . S
Gd816 N847 2.661 . S
Gd816 N853 2.601 . S
Gd816 O860 2.545 . S
Gd816 O861 2.606 1_556 S
Gd816 O863 2.429 1_556 S
Gd816 O864 2.545 . S
Gd816 O865 2.412 . S
Gd816 O867 2.362 1_556 S
Gd816 O868 2.324 . S
Gd816 C875 2.828 . S
Gd817 N826 2.661 . S
Gd817 N830 2.601 . S
Gd817 O861 2.362 . S
Gd817 O862 2.324 . S
Gd817 O866 2.545 . S
Gd817 O867 2.606 . S
Gd817 O869 2.429 . S
Gd817 O870 2.545 . S
Gd817 O871 2.412 . S
Gd817 C884 2.828 . S
C818 C821 1.417 . S
C818 C823 1.431 . S
C818 C824 1.412 . S
C819 C822 1.437 . S
C819 C823 1.317 . S
C819 H838 0.929 . S
C820 C821 1.426 . S
C820 C822 1.413 . S
C820 N830 1.359 . S
C821 C818 1.417 . S
C821 C820 1.426 . S
C821 N826 1.350 . S
C822 C819 1.437 . S
C822 C820 1.413 . S
C822 C832 1.391 1_545 S
C823 C818 1.431 . S
C823 C819 1.317 . S
C823 H834 0.930 . S
C824 C818 1.412 . S
C824 C825 1.355 . S
C824 H836 0.930 . S
C825 C824 1.355 . S
C825 C827 1.402 . S
C825 H837 0.930 . S
N826 Gd817 2.661 . S
N826 C821 1.350 . S
N826 C827 1.307 . S
C827 C825 1.402 . S
C827 N826 1.307 . S
C827 H828 0.930 . S
H828 C827 0.930 . S
C829 N830 1.334 1_565 S
C829 C831 1.394 . S
C829 H833 0.930 . S
N830 Gd817 2.601 . S
N830 C820 1.359 . S
N830 C829 1.334 1_545 S
C831 C829 1.394 . S
C831 C832 1.359 . S
C831 H843 0.930 . S
C832 C822 1.391 1_565 S
C832 C831 1.359 . S
C832 H844 0.929 . S
H833 C829 0.930 . S
H834 C823 0.930 . S
H835 C852 0.930 1_565 S
H836 C824 0.930 . S
H837 C825 0.930 . S
H838 C819 0.929 . S
H839 C857 0.930 . S
H840 C848 0.930 . S
H841 C849 0.930 . S
H842 C873 0.929 . S
H843 C831 0.930 . S
H844 C832 0.929 . S
H845 C874 0.930 . S
H846 C855 0.930 . S
N847 Gd816 2.661 . S
N847 C851 1.350 . S
N847 C852 1.307 . S
C848 H840 0.930 . S
C848 C849 1.355 . S
C848 C850 1.412 1_565 S
C849 H841 0.930 . S
C849 C848 1.355 . S
C849 C852 1.402 1_565 S
C850 C848 1.412 1_545 S
C850 C851 1.417 . S
C850 C874 1.431 . S
C851 N847 1.350 . S
C851 C850 1.417 . S
C851 C854 1.426 . S
C852 H835 0.930 1_545 S
C852 N847 1.307 . S
C852 C849 1.402 1_545 S
N853 Gd816 2.601 . S
N853 C854 1.359 . S
N853 C857 1.334 . S
C854 C851 1.426 . S
C854 N853 1.359 . S
C854 C858 1.413 . S
C855 H846 0.930 . S
C855 C856 1.359 . S
C855 C857 1.394 . S
C856 C855 1.359 . S
C856 C858 1.391 . S
C856 H859 0.929 . S
C857 H839 0.930 . S
C857 N853 1.334 . S
C857 C855 1.394 . S
C858 C854 1.413 . S
C858 C856 1.391 . S
C858 C873 1.437 . S
H859 C856 0.929 . S
O860 Gd816 2.545 . S
O860 C875 1.258 . S
O861 Gd816 2.606 1_554 S
O861 Gd817 2.362 . S
O861 C872 1.284 . S
O862 Gd817 2.324 . S
O862 C882 1.254 . S
O863 Gd816 2.429 1_554 S
O863 C882 1.268 . S
O864 Gd816 2.545 . S
O864 C872 1.250 1_556 S
O865 Gd816 2.412 . S
O865 C875 1.252 . S
O866 Gd817 2.545 . S
O866 C884 1.258 . S
O867 Gd816 2.362 1_554 S
O867 Gd817 2.606 . S
O867 C883 1.284 . S
O868 Gd816 2.324 . S
O868 C891 1.254 . S
O869 Gd817 2.429 . S
O869 C891 1.268 1_554 S
O870 Gd817 2.545 . S
O870 C883 1.250 . S
O871 Gd817 2.412 . S
O871 C884 1.252 . S
C872 O861 1.284 . S
C872 O864 1.250 1_554 S
C873 H842 0.929 . S
C873 C858 1.437 . S
C873 C874 1.317 . S
C874 H845 0.930 . S
C874 C850 1.431 . S
C874 C873 1.317 . S
C875 Gd816 2.828 . S
C875 O860 1.258 . S
C875 O865 1.252 . S
C875 C876 1.497 . S
C876 C875 1.497 . S
C876 C877 1.395 . S
C876 C878 1.380 . S
C877 C876 1.395 . S
C877 C880 1.398 . S
C877 H892 0.930 . S
C878 C876 1.380 . S
C878 C879 1.391 . S
C878 H893 0.930 . S
C879 C878 1.391 . S
C879 C881 1.387 . S
C880 C877 1.398 . S
C880 C881 1.380 . S
C880 H894 0.930 . S
C881 C879 1.387 . S
C881 C880 1.380 . S
C881 H895 0.930 . S
C882 O862 1.254 . S
C882 O863 1.268 . S
C883 O867 1.284 . S
C883 O870 1.250 . S
C884 Gd817 2.828 . S
C884 O866 1.258 . S
C884 O871 1.252 . S
C884 C885 1.497 . S
C885 C884 1.497 . S
C885 C886 1.395 1_545 S
C885 C887 1.380 . S
C886 C885 1.395 1_565 S
C886 C889 1.398 . S
C886 H896 0.930 . S
C887 C885 1.380 . S
C887 C888 1.391 . S
C887 H897 0.930 . S
C888 C887 1.391 . S
C888 C890 1.426 . S
C889 C886 1.398 . S
C889 C890 1.354 1_565 S
C889 H898 0.930 . S
C890 C888 1.426 . S
C890 C889 1.354 1_545 S
C890 H899 0.919 1_545 S
C891 O868 1.254 . S
C891 O869 1.268 1_556 S
H892 C877 0.930 . S
H893 C878 0.930 . S
H894 C880 0.930 . S
H895 C881 0.930 . S
H896 C886 0.930 . S
H897 C887 0.930 . S
H898 C889 0.930 . S
H899 C890 0.919 1_565 S
Gd900 N931 2.661 . S
Gd900 N937 2.601 . S
Gd900 O944 2.545 . S
Gd900 O945 2.606 . S
Gd900 O947 2.429 . S
Gd900 O948 2.545 . S
Gd900 O949 2.412 . S
Gd900 O951 2.362 . S
Gd900 O952 2.324 . S
Gd900 C959 2.828 . S
Gd901 N910 2.661 . S
Gd901 N914 2.601 . S
Gd901 O945 2.362 . S
Gd901 O946 2.324 . S
Gd901 O950 2.545 . S
Gd901 O951 2.606 . S
Gd901 O953 2.429 . S
Gd901 O954 2.545 . S
Gd901 O955 2.412 . S
Gd901 C968 2.828 . S
C902 C905 1.417 . S
C902 C907 1.431 . S
C902 C908 1.412 . S
C903 C906 1.437 . S
C903 C907 1.317 . S
C903 H922 0.929 . S
C904 C905 1.426 . S
C904 C906 1.413 . S
C904 N914 1.359 . S
C905 C902 1.417 . S
C905 C904 1.426 . S
C905 N910 1.350 . S
C906 C903 1.437 . S
C906 C904 1.413 . S
C906 C916 1.391 . S
C907 C902 1.431 . S
C907 C903 1.317 . S
C907 H918 0.930 . S
C908 C902 1.412 . S
C908 C909 1.355 . S
C908 H920 0.930 . S
C909 C908 1.355 . S
C909 C911 1.402 . S
C909 H921 0.930 . S
N910 Gd901 2.661 . S
N910 C905 1.350 . S
N910 C911 1.307 . S
C911 C909 1.402 . S
C911 N910 1.307 . S
C911 H912 0.930 . S
H912 C911 0.930 . S
C913 N914 1.334 . S
C913 C915 1.394 . S
C913 H917 0.930 . S
N914 Gd901 2.601 . S
N914 C904 1.359 . S
N914 C913 1.334 . S
C915 C913 1.394 . S
C915 C916 1.359 . S
C915 H927 0.930 . S
C916 C906 1.391 . S
C916 C915 1.359 . S
C916 H928 0.929 . S
H917 C913 0.930 . S
H918 C907 0.930 . S
H919 C936 0.930 . S
H920 C908 0.930 . S
H921 C909 0.930 . S
H922 C903 0.929 . S
H923 C941 0.930 . S
H924 C932 0.930 . S
H925 C933 0.930 . S
H926 C957 0.929 . S
H927 C915 0.930 . S
H928 C916 0.929 . S
H929 C958 0.930 . S
H930 C939 0.930 . S
N931 Gd900 2.661 . S
N931 C935 1.350 . S
N931 C936 1.307 . S
C932 H924 0.930 . S
C932 C933 1.355 . S
C932 C934 1.412 . S
C933 H925 0.930 . S
C933 C932 1.355 . S
C933 C936 1.402 . S
C934 C932 1.412 . S
C934 C935 1.417 . S
C934 C958 1.431 . S
C935 N931 1.350 . S
C935 C934 1.417 . S
C935 C938 1.426 . S
C936 H919 0.930 . S
C936 N931 1.307 . S
C936 C933 1.402 . S
N937 Gd900 2.601 . S
N937 C938 1.359 . S
N937 C941 1.334 . S
C938 C935 1.426 . S
C938 N937 1.359 . S
C938 C942 1.413 . S
C939 H930 0.930 . S
C939 C940 1.359 . S
C939 C941 1.394 . S
C940 C939 1.359 . S
C940 C942 1.391 . S
C940 H943 0.929 . S
C941 H923 0.930 . S
C941 N937 1.334 . S
C941 C939 1.394 . S
C942 C938 1.413 . S
C942 C940 1.391 . S
C942 C957 1.437 . S
H943 C940 0.929 . S
O944 Gd900 2.545 . S
O944 C959 1.258 . S
O945 Gd900 2.606 . S
O945 Gd901 2.362 . S
O945 C956 1.284 . S
O946 Gd901 2.324 . S
O946 C966 1.254 . S
O947 Gd900 2.429 . S
O947 C966 1.268 . S
O948 Gd900 2.545 . S
O948 C956 1.250 . S
O949 Gd900 2.412 . S
O949 C959 1.252 . S
O950 Gd901 2.545 . S
O950 C968 1.258 . S
O951 Gd900 2.362 . S
O951 Gd901 2.606 . S
O951 C967 1.284 . S
O952 Gd900 2.324 . S
O952 C975 1.254 . S
O953 Gd901 2.429 . S
O953 C975 1.268 . S
O954 Gd901 2.545 . S
O954 C967 1.250 . S
O955 Gd901 2.412 . S
O955 C968 1.252 . S
C956 O945 1.284 . S
C956 O948 1.250 . S
C957 H926 0.929 . S
C957 C942 1.437 . S
C957 C958 1.317 . S
C958 H929 0.930 . S
C958 C934 1.431 . S
C958 C957 1.317 . S
C959 Gd900 2.828 . S
C959 O944 1.258 . S
C959 O949 1.252 . S
C959 C960 1.497 . S
C960 C959 1.497 . S
C960 C961 1.395 . S
C960 C962 1.380 . S
C961 C960 1.395 . S
C961 C964 1.398 . S
C961 H976 0.930 . S
C962 C960 1.380 . S
C962 C963 1.391 . S
C962 H977 0.930 . S
C963 C962 1.391 . S
C963 C965 1.387 . S
C964 C961 1.398 . S
C964 C965 1.380 . S
C964 H978 0.930 . S
C965 C963 1.387 . S
C965 C964 1.380 . S
C965 H979 0.930 . S
C966 O946 1.254 . S
C966 O947 1.268 . S
C967 O951 1.284 . S
C967 O954 1.250 . S
C968 Gd901 2.828 . S
C968 O950 1.258 . S
C968 O955 1.252 . S
C968 C969 1.497 . S
C969 C968 1.497 . S
C969 C970 1.395 . S
C969 C971 1.380 . S
C970 C969 1.395 . S
C970 C973 1.398 . S
C970 H980 0.930 . S
C971 C969 1.380 . S
C971 C972 1.391 . S
C971 H981 0.930 . S
C972 C971 1.391 . S
C972 C974 1.387 . S
C973 C970 1.398 . S
C973 C974 1.380 . S
C973 H982 0.930 . S
C974 C972 1.387 . S
C974 C973 1.380 . S
C974 H983 0.930 . S
C975 O952 1.254 . S
C975 O953 1.268 . S
H976 C961 0.930 . S
H977 C962 0.930 . S
H978 C964 0.930 . S
H979 C965 0.930 . S
H980 C970 0.930 . S
H981 C971 0.930 . S
H982 C973 0.930 . S
H983 C974 0.930 . S
Gd984 N1015 2.661 1_554 S
Gd984 N1021 2.601 1_554 S
Gd984 O1028 2.545 . S
Gd984 O1029 2.606 . S
Gd984 O1031 2.429 . S
Gd984 O1032 2.545 . S
Gd984 O1033 2.412 . S
Gd984 O1035 2.362 1_554 S
Gd984 O1036 2.324 . S
Gd984 C1043 2.828 . S
Gd985 N994 2.661 . S
Gd985 N998 2.601 . S
Gd985 O1029 2.362 . S
Gd985 O1030 2.324 . S
Gd985 O1034 2.545 . S
Gd985 O1035 2.606 1_554 S
Gd985 O1037 2.429 . S
Gd985 O1038 2.545 1_554 S
Gd985 O1039 2.412 . S
Gd985 C1052 2.828 . S
C986 C989 1.417 . S
C986 C991 1.431 . S
C986 C992 1.412 . S
C987 C990 1.437 . S
C987 C991 1.317 . S
C987 H1006 0.929 . S
C988 C989 1.426 . S
C988 C990 1.413 . S
C988 N998 1.359 . S
C989 C986 1.417 . S
C989 C988 1.426 . S
C989 N994 1.350 . S
C990 C987 1.437 . S
C990 C988 1.413 . S
C990 C1000 1.391 . S
C991 C986 1.431 . S
C991 C987 1.317 . S
C991 H1002 0.930 . S
C992 C986 1.412 . S
C992 C993 1.355 . S
C992 H1004 0.930 . S
C993 C992 1.355 . S
C993 C995 1.402 . S
C993 H1005 0.930 . S
N994 Gd985 2.661 . S
N994 C989 1.350 . S
N994 C995 1.307 . S
C995 C993 1.402 . S
C995 N994 1.307 . S
C995 H996 0.930 . S
H996 C995 0.930 . S
C997 N998 1.334 . S
C997 C999 1.394 . S
C997 H1001 0.930 . S
N998 Gd985 2.601 . S
N998 C988 1.359 . S
N998 C997 1.334 . S
C999 C997 1.394 . S
C999 C1000 1.359 . S
C999 H1011 0.930 . S
C1000 C990 1.391 . S
C1000 C999 1.359 . S
C1000 H1012 0.929 . S
H1001 C997 0.930 . S
H1002 C991 0.930 . S
H1003 C1020 0.930 . S
H1004 C992 0.930 . S
H1005 C993 0.930 . S
H1006 C987 0.929 . S
H1007 C1025 0.930 . S
H1008 C1016 0.930 . S
H1009 C1017 0.930 . S
H1010 C1041 0.929 . S
H1011 C999 0.930 . S
H1012 C1000 0.929 . S
H1013 C1042 0.930 . S
H1014 C1023 0.930 . S
N1015 Gd984 2.661 1_556 S
N1015 C1019 1.350 . S
N1015 C1020 1.307 . S
C1016 H1008 0.930 . S
C1016 C1017 1.355 . S
C1016 C1018 1.412 . S
C1017 H1009 0.930 . S
C1017 C1016 1.355 . S
C1017 C1020 1.402 . S
C1018 C1016 1.412 . S
C1018 C1019 1.417 . S
C1018 C1042 1.431 . S
C1019 N1015 1.350 . S
C1019 C1018 1.417 . S
C1019 C1022 1.426 . S
C1020 H1003 0.930 . S
C1020 N1015 1.307 . S
C1020 C1017 1.402 . S
N1021 Gd984 2.601 1_556 S
N1021 C1022 1.359 . S
N1021 C1025 1.334 . S
C1022 C1019 1.426 . S
C1022 N1021 1.359 . S
C1022 C1026 1.413 . S
C1023 H1014 0.930 . S
C1023 C1024 1.359 . S
C1023 C1025 1.394 . S
C1024 C1023 1.359 . S
C1024 C1026 1.391 . S
C1024 H1027 0.929 . S
C1025 H1007 0.930 . S
C1025 N1021 1.334 . S
C1025 C1023 1.394 . S
C1026 C1022 1.413 . S
C1026 C1024 1.391 . S
C1026 C1041 1.437 . S
H1027 C1024 0.929 . S
O1028 Gd984 2.545 . S
O1028 C1043 1.258 . S
O1029 Gd984 2.606 . S
O1029 Gd985 2.362 . S
O1029 C1040 1.284 . S
O1030 Gd985 2.324 . S
O1030 C1050 1.254 . S
O1031 Gd984 2.429 . S
O1031 C1050 1.268 . S
O1032 Gd984 2.545 . S
O1032 C1040 1.250 . S
O1033 Gd984 2.412 . S
O1033 C1043 1.252 . S
O1034 Gd985 2.545 . S
O1034 C1052 1.258 . S
O1035 Gd984 2.362 1_556 S
O1035 Gd985 2.606 1_556 S
O1035 C1051 1.284 . S
O1036 Gd984 2.324 . S
O1036 C1059 1.254 . S
O1037 Gd985 2.429 . S
O1037 C1059 1.268 . S
O1038 Gd985 2.545 1_556 S
O1038 C1051 1.250 . S
O1039 Gd985 2.412 . S
O1039 C1052 1.252 . S
C1040 O1029 1.284 . S
C1040 O1032 1.250 . S
C1041 H1010 0.929 . S
C1041 C1026 1.437 . S
C1041 C1042 1.317 . S
C1042 H1013 0.930 . S
C1042 C1018 1.431 . S
C1042 C1041 1.317 . S
C1043 Gd984 2.828 . S
C1043 O1028 1.258 . S
C1043 O1033 1.252 . S
C1043 C1044 1.497 . S
C1044 C1043 1.497 . S
C1044 C1045 1.395 . S
C1044 C1046 1.380 . S
C1045 C1044 1.395 . S
C1045 C1048 1.398 . S
C1045 H1060 0.900 1_554 S
C1046 C1044 1.380 . S
C1046 C1047 1.391 . S
C1046 H1061 0.930 . S
C1047 C1046 1.391 . S
C1047 C1049 1.387 . S
C1048 C1045 1.398 . S
C1048 C1049 1.380 . S
C1048 H1062 0.930 . S
C1049 C1047 1.387 . S
C1049 C1048 1.380 . S
C1049 H1063 0.930 . S
C1050 O1030 1.254 . S
C1050 O1031 1.268 . S
C1051 O1035 1.284 . S
C1051 O1038 1.250 . S
C1052 Gd985 2.828 . S
C1052 O1034 1.258 . S
C1052 O1039 1.252 . S
C1052 C1053 1.497 . S
C1053 C1052 1.497 . S
C1053 C1054 1.395 . S
C1053 C1055 1.380 1_554 S
C1054 C1053 1.395 . S
C1054 C1057 1.398 . S
C1054 H1064 0.930 . S
C1055 C1053 1.380 1_556 S
C1055 C1056 1.391 . S
C1055 H1065 0.930 . S
C1056 C1055 1.391 . S
C1056 C1058 1.387 . S
C1057 C1054 1.398 . S
C1057 C1058 1.380 1_554 S
C1057 H1066 0.930 . S
C1058 C1056 1.387 . S
C1058 C1057 1.380 1_556 S
C1058 H1067 0.930 . S
C1059 O1036 1.254 . S
C1059 O1037 1.268 . S
H1060 C1045 0.900 1_556 S
H1061 C1046 0.930 . S
H1062 C1048 0.930 . S
H1063 C1049 0.930 . S
H1064 C1054 0.930 . S
H1065 C1055 0.930 . S
H1066 C1057 0.930 . S
H1067 C1058 0.930 . S
Gd1068 N1099 2.661 . S
Gd1068 N1105 2.601 . S
Gd1068 O1112 2.545 . S
Gd1068 O1113 2.606 . S
Gd1068 O1115 2.429 . S
Gd1068 O1116 2.545 . S
Gd1068 O1117 2.412 . S
Gd1068 O1119 2.362 . S
Gd1068 O1120 2.324 . S
Gd1068 C1127 2.828 . S
Gd1069 N1078 2.661 . S
Gd1069 N1082 2.601 . S
Gd1069 O1113 2.362 . S
Gd1069 O1114 2.324 . S
Gd1069 O1118 2.545 . S
Gd1069 O1119 2.606 . S
Gd1069 O1121 2.429 . S
Gd1069 O1122 2.545 . S
Gd1069 O1123 2.412 . S
Gd1069 C1136 2.828 . S
C1070 C1073 1.417 . S
C1070 C1075 1.431 . S
C1070 C1076 1.412 . S
C1071 C1074 1.437 . S
C1071 C1075 1.317 . S
C1071 H1090 0.929 . S
C1072 C1073 1.426 . S
C1072 C1074 1.413 . S
C1072 N1082 1.359 . S
C1073 C1070 1.417 . S
C1073 C1072 1.426 . S
C1073 N1078 1.350 . S
C1074 C1071 1.437 . S
C1074 C1072 1.413 . S
C1074 C1084 1.391 . S
C1075 C1070 1.431 . S
C1075 C1071 1.317 . S
C1075 H1086 0.930 . S
C1076 C1070 1.412 . S
C1076 C1077 1.355 . S
C1076 H1088 0.930 . S
C1077 C1076 1.355 . S
C1077 C1079 1.402 . S
C1077 H1089 0.930 . S
N1078 Gd1069 2.661 . S
N1078 C1073 1.350 . S
N1078 C1079 1.307 . S
C1079 C1077 1.402 . S
C1079 N1078 1.307 . S
C1079 H1080 0.930 . S
H1080 C1079 0.930 . S
C1081 N1082 1.334 . S
C1081 C1083 1.394 . S
C1081 H1085 0.930 . S
N1082 Gd1069 2.601 . S
N1082 C1072 1.359 . S
N1082 C1081 1.334 . S
C1083 C1081 1.394 . S
C1083 C1084 1.359 . S
C1083 H1095 0.930 . S
C1084 C1074 1.391 . S
C1084 C1083 1.359 . S
C1084 H1096 0.929 . S
H1085 C1081 0.930 . S
H1086 C1075 0.930 . S
H1087 C1104 0.930 . S
H1088 C1076 0.930 . S
H1089 C1077 0.930 . S
H1090 C1071 0.929 . S
H1091 C1109 0.930 . S
H1092 C1100 0.930 . S
H1093 C1101 0.930 . S
H1094 C1125 0.929 . S
H1095 C1083 0.930 . S
H1096 C1084 0.929 . S
H1097 C1126 0.930 . S
H1098 C1107 0.930 . S
N1099 Gd1068 2.661 . S
N1099 C1103 1.350 . S
N1099 C1104 1.307 . S
C1100 H1092 0.930 . S
C1100 C1101 1.355 . S
C1100 C1102 1.412 . S
C1101 H1093 0.930 . S
C1101 C1100 1.355 . S
C1101 C1104 1.402 . S
C1102 C1100 1.412 . S
C1102 C1103 1.417 . S
C1102 C1126 1.431 . S
C1103 N1099 1.350 . S
C1103 C1102 1.417 . S
C1103 C1106 1.426 . S
C1104 H1087 0.930 . S
C1104 N1099 1.307 . S
C1104 C1101 1.402 . S
N1105 Gd1068 2.601 . S
N1105 C1106 1.359 . S
N1105 C1109 1.334 . S
C1106 C1103 1.426 . S
C1106 N1105 1.359 . S
C1106 C1110 1.413 . S
C1107 H1098 0.930 . S
C1107 C1108 1.359 . S
C1107 C1109 1.394 . S
C1108 C1107 1.359 . S
C1108 C1110 1.391 . S
C1108 H1111 0.929 . S
C1109 H1091 0.930 . S
C1109 N1105 1.334 . S
C1109 C1107 1.394 . S
C1110 C1106 1.413 . S
C1110 C1108 1.391 . S
C1110 C1125 1.437 . S
H1111 C1108 0.929 . S
O1112 Gd1068 2.545 . S
O1112 C1127 1.258 . S
O1113 Gd1068 2.606 . S
O1113 Gd1069 2.362 . S
O1113 C1124 1.284 . S
O1114 Gd1069 2.324 . S
O1114 C1134 1.254 . S
O1115 Gd1068 2.429 . S
O1115 C1134 1.268 . S
O1116 Gd1068 2.545 . S
O1116 C1124 1.250 . S
O1117 Gd1068 2.412 . S
O1117 C1127 1.252 . S
O1118 Gd1069 2.545 . S
O1118 C1136 1.258 . S
O1119 Gd1068 2.362 . S
O1119 Gd1069 2.606 . S
O1119 C1135 1.284 . S
O1120 Gd1068 2.324 . S
O1120 C1143 1.254 . S
O1121 Gd1069 2.429 . S
O1121 C1143 1.268 . S
O1122 Gd1069 2.545 . S
O1122 C1135 1.250 . S
O1123 Gd1069 2.412 . S
O1123 C1136 1.252 . S
C1124 O1113 1.284 . S
C1124 O1116 1.250 . S
C1125 H1094 0.929 . S
C1125 C1110 1.437 . S
C1125 C1126 1.317 . S
C1126 H1097 0.930 . S
C1126 C1102 1.431 . S
C1126 C1125 1.317 . S
C1127 Gd1068 2.828 . S
C1127 O1112 1.258 . S
C1127 O1117 1.252 . S
C1127 C1128 1.497 . S
C1128 C1127 1.497 . S
C1128 C1129 1.395 . S
C1128 C1130 1.380 . S
C1129 C1128 1.395 . S
C1129 C1132 1.398 . S
C1129 H1144 0.930 . S
C1130 C1128 1.380 . S
C1130 C1131 1.391 . S
C1130 H1145 0.930 . S
C1131 C1130 1.391 . S
C1131 C1133 1.387 . S
C1132 C1129 1.398 . S
C1132 C1133 1.380 . S
C1132 H1146 0.930 . S
C1133 C1131 1.387 . S
C1133 C1132 1.380 . S
C1133 H1147 0.930 . S
C1134 O1114 1.254 . S
C1134 O1115 1.268 . S
C1135 O1119 1.284 . S
C1135 O1122 1.250 . S
C1136 Gd1069 2.828 . S
C1136 O1118 1.258 . S
C1136 O1123 1.252 . S
C1136 C1137 1.497 . S
C1137 C1136 1.497 . S
C1137 C1138 1.395 . S
C1137 C1139 1.380 . S
C1138 C1137 1.395 . S
C1138 C1141 1.398 . S
C1138 H1148 0.930 . S
C1139 C1137 1.380 . S
C1139 C1140 1.391 . S
C1139 H1149 0.930 . S
C1140 C1139 1.391 . S
C1140 C1142 1.387 . S
C1141 C1138 1.398 . S
C1141 C1142 1.380 . S
C1141 H1150 0.930 . S
C1142 C1140 1.387 . S
C1142 C1141 1.380 . S
C1142 H1151 0.930 . S
C1143 O1120 1.254 . S
C1143 O1121 1.268 . S
H1144 C1129 0.930 . S
H1145 C1130 0.930 . S
H1146 C1132 0.930 . S
H1147 C1133 0.930 . S
H1148 C1138 0.930 . S
H1149 C1139 0.930 . S
H1150 C1141 0.930 . S
H1151 C1142 0.930 . S
Gd1152 N1183 2.661 . S
Gd1152 N1189 2.601 . S
Gd1152 O1196 2.545 . S
Gd1152 O1197 2.606 . S
Gd1152 O1199 2.429 . S
Gd1152 O1200 2.545 . S
Gd1152 O1201 2.412 . S
Gd1152 O1203 2.362 . S
Gd1152 O1204 2.324 . S
Gd1152 C1211 2.828 . S
Gd1153 N1162 2.661 . S
Gd1153 N1166 2.601 . S
Gd1153 O1197 2.362 . S
Gd1153 O1198 2.324 . S
Gd1153 O1202 2.545 . S
Gd1153 O1203 2.606 . S
Gd1153 O1205 2.429 . S
Gd1153 O1206 2.545 . S
Gd1153 O1207 2.412 . S
Gd1153 C1220 2.828 . S
C1154 C1157 1.417 . S
C1154 C1159 1.431 . S
C1154 C1160 1.412 . S
C1155 C1158 1.437 . S
C1155 C1159 1.317 . S
C1155 H1174 0.929 . S
C1156 C1157 1.426 . S
C1156 C1158 1.413 . S
C1156 N1166 1.359 . S
C1157 C1154 1.417 . S
C1157 C1156 1.426 . S
C1157 N1162 1.350 . S
C1158 C1155 1.437 . S
C1158 C1156 1.413 . S
C1158 C1168 1.391 . S
C1159 C1154 1.431 . S
C1159 C1155 1.317 . S
C1159 H1170 0.930 . S
C1160 C1154 1.412 . S
C1160 C1161 1.355 . S
C1160 H1172 0.930 . S
C1161 C1160 1.355 . S
C1161 C1163 1.402 . S
C1161 H1173 0.930 . S
N1162 Gd1153 2.661 . S
N1162 C1157 1.350 . S
N1162 C1163 1.307 . S
C1163 C1161 1.402 . S
C1163 N1162 1.307 . S
C1163 H1164 0.930 . S
H1164 C1163 0.930 . S
C1165 N1166 1.334 . S
C1165 C1167 1.394 . S
C1165 H1169 0.930 . S
N1166 Gd1153 2.601 . S
N1166 C1156 1.359 . S
N1166 C1165 1.334 . S
C1167 C1165 1.394 . S
C1167 C1168 1.359 . S
C1167 H1179 0.930 . S
C1168 C1158 1.391 . S
C1168 C1167 1.359 . S
C1168 H1180 0.929 . S
H1169 C1165 0.930 . S
H1170 C1159 0.930 . S
H1171 C1188 0.930 . S
H1172 C1160 0.930 . S
H1173 C1161 0.930 . S
H1174 C1155 0.929 . S
H1175 C1193 0.930 . S
H1176 C1184 0.930 . S
H1177 C1185 0.930 . S
H1178 C1209 0.929 . S
H1179 C1167 0.930 . S
H1180 C1168 0.929 . S
H1181 C1210 0.930 . S
H1182 C1191 0.930 . S
N1183 Gd1152 2.661 . S
N1183 C1187 1.350 1_455 S
N1183 C1188 1.307 . S
C1184 H1176 0.930 . S
C1184 C1185 1.355 . S
C1184 C1186 1.412 . S
C1185 H1177 0.930 . S
C1185 C1184 1.355 . S
C1185 C1188 1.402 1_655 S
C1186 C1184 1.412 . S
C1186 C1187 1.417 . S
C1186 C1210 1.431 . S
C1187 N1183 1.350 1_655 S
C1187 C1186 1.417 . S
C1187 C1190 1.426 . S
C1188 H1171 0.930 . S
C1188 N1183 1.307 . S
C1188 C1185 1.402 1_455 S
N1189 Gd1152 2.601 . S
N1189 C1190 1.359 1_455 S
N1189 C1193 1.334 . S
C1190 C1187 1.426 . S
C1190 N1189 1.359 1_655 S
C1190 C1194 1.413 . S
C1191 H1182 0.930 . S
C1191 C1192 1.359 . S
C1191 C1193 1.394 1_655 S
C1192 C1191 1.359 . S
C1192 C1194 1.391 . S
C1192 H1195 0.929 . S
C1193 H1175 0.930 . S
C1193 N1189 1.334 . S
C1193 C1191 1.394 1_455 S
C1194 C1190 1.413 . S
C1194 C1192 1.391 . S
C1194 C1209 1.437 . S
H1195 C1192 0.929 . S
O1196 Gd1152 2.545 . S
O1196 C1211 1.258 . S
O1197 Gd1152 2.606 . S
O1197 Gd1153 2.362 . S
O1197 C1208 1.284 . S
O1198 Gd1153 2.324 . S
O1198 C1218 1.254 . S
O1199 Gd1152 2.429 . S
O1199 C1218 1.268 . S
O1200 Gd1152 2.545 . S
O1200 C1208 1.250 . S
O1201 Gd1152 2.412 . S
O1201 C1211 1.252 . S
O1202 Gd1153 2.545 . S
O1202 C1220 1.258 . S
O1203 Gd1152 2.362 . S
O1203 Gd1153 2.606 . S
O1203 C1219 1.284 . S
O1204 Gd1152 2.324 . S
O1204 C1227 1.254 . S
O1205 Gd1153 2.429 . S
O1205 C1227 1.268 . S
O1206 Gd1153 2.545 . S
O1206 C1219 1.250 . S
O1207 Gd1153 2.412 . S
O1207 C1220 1.252 . S
C1208 O1197 1.284 . S
C1208 O1200 1.250 . S
C1209 H1178 0.929 . S
C1209 C1194 1.437 . S
C1209 C1210 1.317 . S
C1210 H1181 0.930 . S
C1210 C1186 1.431 . S
C1210 C1209 1.317 . S
C1211 Gd1152 2.828 . S
C1211 O1196 1.258 . S
C1211 O1201 1.252 . S
C1211 C1212 1.497 . S
C1212 C1211 1.497 . S
C1212 C1213 1.395 . S
C1212 C1214 1.380 . S
C1213 C1212 1.395 . S
C1213 C1216 1.398 . S
C1213 H1228 0.930 . S
C1214 C1212 1.380 . S
C1214 C1215 1.391 . S
C1214 H1229 0.930 . S
C1215 C1214 1.391 . S
C1215 C1217 1.387 . S
C1216 C1213 1.398 . S
C1216 C1217 1.380 . S
C1216 H1230 0.930 . S
C1217 C1215 1.387 . S
C1217 C1216 1.380 . S
C1217 H1231 0.930 . S
C1218 O1198 1.254 . S
C1218 O1199 1.268 . S
C1219 O1203 1.284 . S
C1219 O1206 1.250 . S
C1220 Gd1153 2.828 . S
C1220 O1202 1.258 . S
C1220 O1207 1.252 . S
C1220 C1221 1.497 . S
C1221 C1220 1.497 . S
C1221 C1222 1.395 . S
C1221 C1223 1.380 . S
C1222 C1221 1.395 . S
C1222 C1225 1.398 . S
C1222 H1232 0.930 . S
C1223 C1221 1.380 . S
C1223 C1224 1.391 1_455 S
C1223 H1233 0.930 . S
C1224 C1223 1.391 1_655 S
C1224 C1226 1.387 . S
C1225 C1222 1.398 . S
C1225 C1226 1.380 1_455 S
C1225 H1234 0.930 . S
C1226 C1224 1.387 . S
C1226 C1225 1.380 1_655 S
C1226 H1235 0.930 . S
C1227 O1204 1.254 . S
C1227 O1205 1.268 . S
H1228 C1213 0.930 . S
H1229 C1214 0.930 . S
H1230 C1216 0.930 . S
H1231 C1217 0.930 . S
H1232 C1222 0.930 . S
H1233 C1223 0.930 . S
H1234 C1225 0.930 . S
H1235 C1226 0.930 . S
Gd1236 N1267 2.661 . S
Gd1236 N1273 2.601 . S
Gd1236 O1280 2.545 . S
Gd1236 O1281 2.606 . S
Gd1236 O1283 2.429 . S
Gd1236 O1284 2.545 . S
Gd1236 O1285 2.412 . S
Gd1236 O1287 2.362 . S
Gd1236 O1288 2.324 . S
Gd1236 C1295 2.828 . S
Gd1237 N1246 2.661 . S
Gd1237 N1250 2.601 . S
Gd1237 O1281 2.362 . S
Gd1237 O1282 2.324 . S
Gd1237 O1286 2.545 . S
Gd1237 O1287 2.606 . S
Gd1237 O1289 2.429 . S
Gd1237 O1290 2.545 . S
Gd1237 O1291 2.412 . S
Gd1237 C1304 2.828 . S
C1238 C1241 1.417 . S
C1238 C1243 1.431 . S
C1238 C1244 1.412 . S
C1239 C1242 1.437 . S
C1239 C1243 1.317 . S
C1239 H1258 0.929 . S
C1240 C1241 1.426 . S
C1240 C1242 1.413 . S
C1240 N1250 1.359 . S
C1241 C1238 1.417 . S
C1241 C1240 1.426 . S
C1241 N1246 1.350 . S
C1242 C1239 1.437 . S
C1242 C1240 1.413 . S
C1242 C1252 1.391 . S
C1243 C1238 1.431 . S
C1243 C1239 1.317 . S
C1243 H1254 0.930 . S
C1244 C1238 1.412 . S
C1244 C1245 1.355 . S
C1244 H1256 0.930 . S
C1245 C1244 1.355 . S
C1245 C1247 1.402 . S
C1245 H1257 0.930 . S
N1246 Gd1237 2.661 . S
N1246 C1241 1.350 . S
N1246 C1247 1.307 . S
C1247 C1245 1.402 . S
C1247 N1246 1.307 . S
C1247 H1248 0.930 . S
H1248 C1247 0.930 . S
C1249 N1250 1.334 . S
C1249 C1251 1.394 . S
C1249 H1253 0.930 . S
N1250 Gd1237 2.601 . S
N1250 C1240 1.359 . S
N1250 C1249 1.334 . S
C1251 C1249 1.394 . S
C1251 C1252 1.359 . S
C1251 H1263 0.930 . S
C1252 C1242 1.391 . S
C1252 C1251 1.359 . S
C1252 H1264 0.929 . S
H1253 C1249 0.930 . S
H1254 C1243 0.930 . S
H1255 C1272 0.930 . S
H1256 C1244 0.930 . S
H1257 C1245 0.930 . S
H1258 C1239 0.929 . S
H1259 C1277 0.930 . S
H1260 C1268 0.930 . S
H1261 C1269 0.930 . S
H1262 C1293 0.929 . S
H1263 C1251 0.930 . S
H1264 C1252 0.929 . S
H1265 C1294 0.930 . S
H1266 C1275 0.930 . S
N1267 Gd1236 2.661 . S
N1267 C1271 1.350 . S
N1267 C1272 1.307 . S
C1268 H1260 0.930 . S
C1268 C1269 1.355 . S
C1268 C1270 1.412 . S
C1269 H1261 0.930 . S
C1269 C1268 1.355 . S
C1269 C1272 1.402 . S
C1270 C1268 1.412 . S
C1270 C1271 1.417 . S
C1270 C1294 1.431 . S
C1271 N1267 1.350 . S
C1271 C1270 1.417 . S
C1271 C1274 1.426 . S
C1272 H1255 0.930 . S
C1272 N1267 1.307 . S
C1272 C1269 1.402 . S
N1273 Gd1236 2.601 . S
N1273 C1274 1.359 . S
N1273 C1277 1.334 . S
C1274 C1271 1.426 . S
C1274 N1273 1.359 . S
C1274 C1278 1.413 . S
C1275 H1266 0.930 . S
C1275 C1276 1.359 . S
C1275 C1277 1.394 . S
C1276 C1275 1.359 . S
C1276 C1278 1.391 . S
C1276 H1279 0.929 . S
C1277 H1259 0.930 . S
C1277 N1273 1.334 . S
C1277 C1275 1.394 . S
C1278 C1274 1.413 . S
C1278 C1276 1.391 . S
C1278 C1293 1.437 . S
H1279 C1276 0.929 . S
O1280 Gd1236 2.545 . S
O1280 C1295 1.258 . S
O1281 Gd1236 2.606 . S
O1281 Gd1237 2.362 . S
O1281 C1292 1.284 . S
O1282 Gd1237 2.324 . S
O1282 C1302 1.254 . S
O1283 Gd1236 2.429 . S
O1283 C1302 1.268 . S
O1284 Gd1236 2.545 . S
O1284 C1292 1.250 . S
O1285 Gd1236 2.412 . S
O1285 C1295 1.252 . S
O1286 Gd1237 2.545 . S
O1286 C1304 1.258 . S
O1287 Gd1236 2.362 . S
O1287 Gd1237 2.606 . S
O1287 C1303 1.284 . S
O1288 Gd1236 2.324 . S
O1288 C1311 1.254 . S
O1289 Gd1237 2.429 . S
O1289 C1311 1.268 . S
O1290 Gd1237 2.545 . S
O1290 C1303 1.250 . S
O1291 Gd1237 2.412 . S
O1291 C1304 1.252 . S
C1292 O1281 1.284 . S
C1292 O1284 1.250 . S
C1293 H1262 0.929 . S
C1293 C1278 1.437 . S
C1293 C1294 1.317 . S
C1294 H1265 0.930 . S
C1294 C1270 1.431 . S
C1294 C1293 1.317 . S
C1295 Gd1236 2.828 . S
C1295 O1280 1.258 . S
C1295 O1285 1.252 . S
C1295 C1296 1.497 . S
C1296 C1295 1.497 . S
C1296 C1297 1.395 . S
C1296 C1298 1.380 . S
C1297 C1296 1.395 . S
C1297 C1300 1.398 . S
C1297 H1312 0.930 . S
C1298 C1296 1.380 . S
C1298 C1299 1.391 . S
C1298 H1313 0.930 . S
C1299 C1298 1.391 . S
C1299 C1301 1.387 . S
C1300 C1297 1.398 . S
C1300 C1301 1.380 . S
C1300 H1314 0.930 . S
C1301 C1299 1.387 . S
C1301 C1300 1.380 . S
C1301 H1315 0.930 . S
C1302 O1282 1.254 . S
C1302 O1283 1.268 . S
C1303 O1287 1.284 . S
C1303 O1290 1.250 . S
C1304 Gd1237 2.828 . S
C1304 O1286 1.258 . S
C1304 O1291 1.252 . S
C1304 C1305 1.497 . S
C1305 C1304 1.497 . S
C1305 C1306 1.395 . S
C1305 C1307 1.380 . S
C1306 C1305 1.395 . S
C1306 C1309 1.398 . S
C1306 H1316 0.930 . S
C1307 C1305 1.380 . S
C1307 C1308 1.391 . S
C1307 H1317 0.930 . S
C1308 C1307 1.391 . S
C1308 C1310 1.387 . S
C1309 C1306 1.398 . S
C1309 C1310 1.380 . S
C1309 H1318 0.930 . S
C1310 C1308 1.387 . S
C1310 C1309 1.380 . S
C1310 H1319 0.930 . S
C1311 O1288 1.254 . S
C1311 O1289 1.268 . S
H1312 C1297 0.930 . S
H1313 C1298 0.930 . S
H1314 C1300 0.930 . S
H1315 C1301 0.930 . S
H1316 C1306 0.930 . S
H1317 C1307 0.930 . S
H1318 C1309 0.930 . S
H1319 C1310 0.930 . S
Gd1320 N1351 2.661 . S
Gd1320 N1357 2.601 . S
Gd1320 O1364 2.545 . S
Gd1320 O1365 2.606 . S
Gd1320 O1367 2.429 . S
Gd1320 O1368 2.545 . S
Gd1320 O1369 2.412 . S
Gd1320 O1371 2.362 . S
Gd1320 O1372 2.324 . S
Gd1320 C1379 2.828 . S
Gd1321 N1330 2.661 . S
Gd1321 N1334 2.601 . S
Gd1321 O1365 2.362 . S
Gd1321 O1366 2.324 . S
Gd1321 O1370 2.545 . S
Gd1321 O1371 2.606 . S
Gd1321 O1373 2.429 . S
Gd1321 O1374 2.545 . S
Gd1321 O1375 2.412 . S
Gd1321 C1388 2.828 . S
C1322 C1325 1.417 . S
C1322 C1327 1.431 . S
C1322 C1328 1.412 . S
C1323 C1326 1.437 . S
C1323 C1327 1.317 . S
C1323 H1342 0.929 . S
C1324 C1325 1.426 . S
C1324 C1326 1.413 . S
C1324 N1334 1.359 . S
C1325 C1322 1.417 . S
C1325 C1324 1.426 . S
C1325 N1330 1.350 . S
C1326 C1323 1.437 . S
C1326 C1324 1.413 . S
C1326 C1336 1.391 . S
C1327 C1322 1.431 . S
C1327 C1323 1.317 . S
C1327 H1338 0.930 . S
C1328 C1322 1.412 . S
C1328 C1329 1.355 . S
C1328 H1340 0.930 . S
C1329 C1328 1.355 . S
C1329 C1331 1.402 . S
C1329 H1341 0.930 . S
N1330 Gd1321 2.661 . S
N1330 C1325 1.350 . S
N1330 C1331 1.307 . S
C1331 C1329 1.402 . S
C1331 N1330 1.307 . S
C1331 H1332 0.930 . S
H1332 C1331 0.930 . S
C1333 N1334 1.334 . S
C1333 C1335 1.394 . S
C1333 H1337 0.930 . S
N1334 Gd1321 2.601 . S
N1334 C1324 1.359 . S
N1334 C1333 1.334 . S
C1335 C1333 1.394 . S
C1335 C1336 1.359 . S
C1335 H1347 0.930 . S
C1336 C1326 1.391 . S
C1336 C1335 1.359 . S
C1336 H1348 0.929 . S
H1337 C1333 0.930 . S
H1338 C1327 0.930 . S
H1339 C1356 0.930 . S
H1340 C1328 0.930 . S
H1341 C1329 0.930 . S
H1342 C1323 0.929 . S
H1343 C1361 0.930 . S
H1344 C1352 0.930 . S
H1345 C1353 0.930 . S
H1346 C1377 0.929 . S
H1347 C1335 0.930 . S
H1348 C1336 0.929 . S
H1349 C1378 0.930 . S
H1350 C1359 0.930 . S
N1351 Gd1320 2.661 . S
N1351 C1355 1.350 . S
N1351 C1356 1.307 . S
C1352 H1344 0.930 . S
C1352 C1353 1.355 . S
C1352 C1354 1.412 . S
C1353 H1345 0.930 . S
C1353 C1352 1.355 . S
C1353 C1356 1.402 . S
C1354 C1352 1.412 . S
C1354 C1355 1.417 . S
C1354 C1378 1.431 . S
C1355 N1351 1.350 . S
C1355 C1354 1.417 . S
C1355 C1358 1.426 . S
C1356 H1339 0.930 . S
C1356 N1351 1.307 . S
C1356 C1353 1.402 . S
N1357 Gd1320 2.601 . S
N1357 C1358 1.359 . S
N1357 C1361 1.334 . S
C1358 C1355 1.426 . S
C1358 N1357 1.359 . S
C1358 C1362 1.413 . S
C1359 H1350 0.930 . S
C1359 C1360 1.359 . S
C1359 C1361 1.394 . S
C1360 C1359 1.359 . S
C1360 C1362 1.391 . S
C1360 H1363 0.929 . S
C1361 H1343 0.930 . S
C1361 N1357 1.334 . S
C1361 C1359 1.394 . S
C1362 C1358 1.413 . S
C1362 C1360 1.391 . S
C1362 C1377 1.437 . S
H1363 C1360 0.929 . S
O1364 Gd1320 2.545 . S
O1364 C1379 1.258 . S
O1365 Gd1320 2.606 . S
O1365 Gd1321 2.362 . S
O1365 C1376 1.284 . S
O1366 Gd1321 2.324 . S
O1366 C1386 1.254 . S
O1367 Gd1320 2.429 . S
O1367 C1386 1.268 . S
O1368 Gd1320 2.545 . S
O1368 C1376 1.250 . S
O1369 Gd1320 2.412 . S
O1369 C1379 1.252 . S
O1370 Gd1321 2.545 . S
O1370 C1388 1.258 . S
O1371 Gd1320 2.362 . S
O1371 Gd1321 2.606 . S
O1371 C1387 1.284 . S
O1372 Gd1320 2.324 . S
O1372 C1395 1.254 . S
O1373 Gd1321 2.429 . S
O1373 C1395 1.268 . S
O1374 Gd1321 2.545 . S
O1374 C1387 1.250 . S
O1375 Gd1321 2.412 . S
O1375 C1388 1.252 . S
C1376 O1365 1.284 . S
C1376 O1368 1.250 . S
C1377 H1346 0.929 . S
C1377 C1362 1.437 . S
C1377 C1378 1.317 . S
C1378 H1349 0.930 . S
C1378 C1354 1.431 . S
C1378 C1377 1.317 . S
C1379 Gd1320 2.828 . S
C1379 O1364 1.258 . S
C1379 O1369 1.252 . S
C1379 C1380 1.497 . S
C1380 C1379 1.497 . S
C1380 C1381 1.395 . S
C1380 C1382 1.380 . S
C1381 C1380 1.395 . S
C1381 C1384 1.398 . S
C1381 H1396 0.930 . S
C1382 C1380 1.380 . S
C1382 C1383 1.391 . S
C1382 H1397 0.930 . S
C1383 C1382 1.391 . S
C1383 C1385 1.387 . S
C1384 C1381 1.398 . S
C1384 C1385 1.380 . S
C1384 H1398 0.930 . S
C1385 C1383 1.387 . S
C1385 C1384 1.380 . S
C1385 H1399 0.930 . S
C1386 O1366 1.254 . S
C1386 O1367 1.268 . S
C1387 O1371 1.284 . S
C1387 O1374 1.250 . S
C1388 Gd1321 2.828 . S
C1388 O1370 1.258 . S
C1388 O1375 1.252 . S
C1388 C1389 1.497 . S
C1389 C1388 1.497 . S
C1389 C1390 1.395 . S
C1389 C1391 1.380 . S
C1390 C1389 1.395 . S
C1390 C1393 1.398 . S
C1390 H1400 0.930 . S
C1391 C1389 1.380 . S
C1391 C1392 1.391 . S
C1391 H1401 0.930 . S
C1392 C1391 1.391 . S
C1392 C1394 1.387 . S
C1393 C1390 1.398 . S
C1393 C1394 1.380 . S
C1393 H1402 0.930 . S
C1394 C1392 1.387 . S
C1394 C1393 1.380 . S
C1394 H1403 0.930 . S
C1395 O1372 1.254 . S
C1395 O1373 1.268 . S
H1396 C1381 0.930 . S
H1397 C1382 0.930 . S
H1398 C1384 0.930 . S
H1399 C1385 0.930 . S
H1400 C1390 0.930 . S
H1401 C1391 0.930 . S
H1402 C1393 0.930 . S
H1403 C1394 0.930 . S
Gd1404 N1435 2.661 . S
Gd1404 N1441 2.601 . S
Gd1404 O1448 2.545 . S
Gd1404 O1449 2.606 . S
Gd1404 O1451 2.429 . S
Gd1404 O1452 2.545 . S
Gd1404 O1453 2.412 . S
Gd1404 O1455 2.362 . S
Gd1404 O1456 2.324 . S
Gd1404 C1463 2.828 . S
Gd1405 N1414 2.661 . S
Gd1405 N1418 2.601 . S
Gd1405 O1449 2.362 . S
Gd1405 O1450 2.324 . S
Gd1405 O1454 2.545 . S
Gd1405 O1455 2.606 . S
Gd1405 O1457 2.429 . S
Gd1405 O1458 2.545 . S
Gd1405 O1459 2.412 . S
Gd1405 C1472 2.828 . S
C1406 C1409 1.417 . S
C1406 C1411 1.431 . S
C1406 C1412 1.412 . S
C1407 C1410 1.437 . S
C1407 C1411 1.317 . S
C1407 H1426 0.929 . S
C1408 C1409 1.426 . S
C1408 C1410 1.413 . S
C1408 N1418 1.359 . S
C1409 C1406 1.417 . S
C1409 C1408 1.426 . S
C1409 N1414 1.350 . S
C1410 C1407 1.437 . S
C1410 C1408 1.413 . S
C1410 C1420 1.391 . S
C1411 C1406 1.431 . S
C1411 C1407 1.317 . S
C1411 H1422 0.930 . S
C1412 C1406 1.412 . S
C1412 C1413 1.355 . S
C1412 H1424 0.930 . S
C1413 C1412 1.355 . S
C1413 C1415 1.402 . S
C1413 H1425 0.930 . S
N1414 Gd1405 2.661 . S
N1414 C1409 1.350 . S
N1414 C1415 1.307 . S
C1415 C1413 1.402 . S
C1415 N1414 1.307 . S
C1415 H1416 0.930 . S
H1416 C1415 0.930 . S
C1417 N1418 1.334 . S
C1417 C1419 1.394 . S
C1417 H1421 0.930 . S
N1418 Gd1405 2.601 . S
N1418 C1408 1.359 . S
N1418 C1417 1.334 . S
C1419 C1417 1.394 . S
C1419 C1420 1.359 . S
C1419 H1431 0.930 . S
C1420 C1410 1.391 . S
C1420 C1419 1.359 . S
C1420 H1432 0.929 . S
H1421 C1417 0.930 . S
H1422 C1411 0.930 . S
H1423 C1440 0.930 . S
H1424 C1412 0.930 . S
H1425 C1413 0.930 . S
H1426 C1407 0.929 . S
H1427 C1445 0.930 . S
H1428 C1436 0.930 . S
H1429 C1437 0.930 . S
H1430 C1461 0.929 . S
H1431 C1419 0.930 . S
H1432 C1420 0.929 . S
H1433 C1462 0.930 . S
H1434 C1443 0.930 . S
N1435 Gd1404 2.661 . S
N1435 C1439 1.350 . S
N1435 C1440 1.307 . S
C1436 H1428 0.930 . S
C1436 C1437 1.355 . S
C1436 C1438 1.412 . S
C1437 H1429 0.930 . S
C1437 C1436 1.355 . S
C1437 C1440 1.402 . S
C1438 C1436 1.412 . S
C1438 C1439 1.417 . S
C1438 C1462 1.431 . S
C1439 N1435 1.350 . S
C1439 C1438 1.417 . S
C1439 C1442 1.426 . S
C1440 H1423 0.930 . S
C1440 N1435 1.307 . S
C1440 C1437 1.402 . S
N1441 Gd1404 2.601 . S
N1441 C1442 1.359 . S
N1441 C1445 1.334 . S
C1442 C1439 1.426 . S
C1442 N1441 1.359 . S
C1442 C1446 1.413 . S
C1443 H1434 0.930 . S
C1443 C1444 1.359 . S
C1443 C1445 1.394 . S
C1444 C1443 1.359 . S
C1444 C1446 1.391 . S
C1444 H1447 0.929 . S
C1445 H1427 0.930 . S
C1445 N1441 1.334 . S
C1445 C1443 1.394 . S
C1446 C1442 1.413 . S
C1446 C1444 1.391 . S
C1446 C1461 1.437 . S
H1447 C1444 0.929 . S
O1448 Gd1404 2.545 . S
O1448 C1463 1.258 . S
O1449 Gd1404 2.606 . S
O1449 Gd1405 2.362 . S
O1449 C1460 1.284 . S
O1450 Gd1405 2.324 . S
O1450 C1470 1.254 . S
O1451 Gd1404 2.429 . S
O1451 C1470 1.268 . S
O1452 Gd1404 2.545 . S
O1452 C1460 1.250 . S
O1453 Gd1404 2.412 . S
O1453 C1463 1.252 . S
O1454 Gd1405 2.545 . S
O1454 C1472 1.258 . S
O1455 Gd1404 2.362 . S
O1455 Gd1405 2.606 . S
O1455 C1471 1.284 . S
O1456 Gd1404 2.324 . S
O1456 C1479 1.254 . S
O1457 Gd1405 2.429 . S
O1457 C1479 1.268 . S
O1458 Gd1405 2.545 . S
O1458 C1471 1.250 . S
O1459 Gd1405 2.412 . S
O1459 C1472 1.252 . S
C1460 O1449 1.284 . S
C1460 O1452 1.250 . S
C1461 H1430 0.929 . S
C1461 C1446 1.437 . S
C1461 C1462 1.317 . S
C1462 H1433 0.930 . S
C1462 C1438 1.431 . S
C1462 C1461 1.317 . S
C1463 Gd1404 2.828 . S
C1463 O1448 1.258 . S
C1463 O1453 1.252 . S
C1463 C1464 1.497 . S
C1464 C1463 1.497 . S
C1464 C1465 1.395 . S
C1464 C1466 1.380 . S
C1465 C1464 1.395 . S
C1465 C1468 1.398 . S
C1465 H1480 0.930 . S
C1466 C1464 1.380 . S
C1466 C1467 1.391 . S
C1466 H1481 0.930 . S
C1467 C1466 1.391 . S
C1467 C1469 1.387 . S
C1468 C1465 1.398 . S
C1468 C1469 1.380 . S
C1468 H1482 0.930 . S
C1469 C1467 1.387 . S
C1469 C1468 1.380 . S
C1469 H1483 0.930 . S
C1470 O1450 1.254 . S
C1470 O1451 1.268 . S
C1471 O1455 1.284 . S
C1471 O1458 1.250 . S
C1472 Gd1405 2.828 . S
C1472 O1454 1.258 . S
C1472 O1459 1.252 . S
C1472 C1473 1.497 . S
C1473 C1472 1.497 . S
C1473 C1474 1.395 . S
C1473 C1475 1.380 . S
C1474 C1473 1.395 . S
C1474 C1477 1.398 . S
C1474 H1484 0.930 . S
C1475 C1473 1.380 . S
C1475 C1476 1.391 . S
C1475 H1485 0.930 . S
C1476 C1475 1.391 . S
C1476 C1478 1.387 . S
C1477 C1474 1.398 . S
C1477 C1478 1.380 . S
C1477 H1486 0.930 . S
C1478 C1476 1.387 . S
C1478 C1477 1.380 . S
C1478 H1487 0.930 . S
C1479 O1456 1.254 . S
C1479 O1457 1.268 . S
H1480 C1465 0.930 . S
H1481 C1466 0.930 . S
H1482 C1468 0.930 . S
H1483 C1469 0.930 . S
H1484 C1474 0.930 . S
H1485 C1475 0.930 . S
H1486 C1477 0.930 . S
H1487 C1478 0.930 . S
Gd1488 N1519 2.661 . S
Gd1488 N1525 2.601 . S
Gd1488 O1532 2.545 . S
Gd1488 O1533 2.606 . S
Gd1488 O1535 2.429 . S
Gd1488 O1536 2.545 . S
Gd1488 O1537 2.412 . S
Gd1488 O1539 2.362 . S
Gd1488 O1540 2.324 . S
Gd1488 C1547 2.828 . S
Gd1489 N1498 2.661 . S
Gd1489 N1502 2.601 . S
Gd1489 O1533 2.362 . S
Gd1489 O1534 2.324 . S
Gd1489 O1538 2.545 . S
Gd1489 O1539 2.606 . S
Gd1489 O1541 2.429 . S
Gd1489 O1542 2.545 . S
Gd1489 O1543 2.412 . S
Gd1489 C1556 2.828 . S
C1490 C1493 1.417 . S
C1490 C1495 1.431 . S
C1490 C1496 1.412 . S
C1491 C1494 1.437 . S
C1491 C1495 1.317 . S
C1491 H1510 0.929 . S
C1492 C1493 1.426 . S
C1492 C1494 1.413 . S
C1492 N1502 1.359 . S
C1493 C1490 1.417 . S
C1493 C1492 1.426 . S
C1493 N1498 1.350 . S
C1494 C1491 1.437 . S
C1494 C1492 1.413 . S
C1494 C1504 1.391 . S
C1495 C1490 1.431 . S
C1495 C1491 1.317 . S
C1495 H1506 0.930 . S
C1496 C1490 1.412 . S
C1496 C1497 1.355 . S
C1496 H1508 0.930 . S
C1497 C1496 1.355 . S
C1497 C1499 1.402 . S
C1497 H1509 0.930 . S
N1498 Gd1489 2.661 . S
N1498 C1493 1.350 . S
N1498 C1499 1.307 . S
C1499 C1497 1.402 . S
C1499 N1498 1.307 . S
C1499 H1500 0.930 . S
H1500 C1499 0.930 . S
C1501 N1502 1.334 . S
C1501 C1503 1.394 . S
C1501 H1505 0.930 . S
N1502 Gd1489 2.601 . S
N1502 C1492 1.359 . S
N1502 C1501 1.334 . S
C1503 C1501 1.394 . S
C1503 C1504 1.359 . S
C1503 H1515 0.930 . S
C1504 C1494 1.391 . S
C1504 C1503 1.359 . S
C1504 H1516 0.929 . S
H1505 C1501 0.930 . S
H1506 C1495 0.930 . S
H1507 C1524 0.930 . S
H1508 C1496 0.930 . S
H1509 C1497 0.930 . S
H1510 C1491 0.929 . S
H1511 C1529 0.930 . S
H1512 C1520 0.930 . S
H1513 C1521 0.930 . S
H1514 C1545 0.929 . S
H1515 C1503 0.930 . S
H1516 C1504 0.929 . S
H1517 C1546 0.930 . S
H1518 C1527 0.930 . S
N1519 Gd1488 2.661 . S
N1519 C1523 1.350 . S
N1519 C1524 1.307 . S
C1520 H1512 0.930 . S
C1520 C1521 1.355 . S
C1520 C1522 1.412 . S
C1521 H1513 0.930 . S
C1521 C1520 1.355 . S
C1521 C1524 1.402 . S
C1522 C1520 1.412 . S
C1522 C1523 1.417 . S
C1522 C1546 1.431 . S
C1523 N1519 1.350 . S
C1523 C1522 1.417 . S
C1523 C1526 1.426 . S
C1524 H1507 0.930 . S
C1524 N1519 1.307 . S
C1524 C1521 1.402 . S
N1525 Gd1488 2.601 . S
N1525 C1526 1.359 . S
N1525 C1529 1.334 . S
C1526 C1523 1.426 . S
C1526 N1525 1.359 . S
C1526 C1530 1.413 . S
C1527 H1518 0.930 . S
C1527 C1528 1.359 . S
C1527 C1529 1.394 . S
C1528 C1527 1.359 . S
C1528 C1530 1.391 . S
C1528 H1531 0.929 . S
C1529 H1511 0.930 . S
C1529 N1525 1.334 . S
C1529 C1527 1.394 . S
C1530 C1526 1.413 . S
C1530 C1528 1.391 . S
C1530 C1545 1.437 . S
H1531 C1528 0.929 . S
O1532 Gd1488 2.545 . S
O1532 C1547 1.258 . S
O1533 Gd1488 2.606 . S
O1533 Gd1489 2.362 . S
O1533 C1544 1.284 . S
O1534 Gd1489 2.324 . S
O1534 C1554 1.254 . S
O1535 Gd1488 2.429 . S
O1535 C1554 1.268 . S
O1536 Gd1488 2.545 . S
O1536 C1544 1.250 . S
O1537 Gd1488 2.412 . S
O1537 C1547 1.252 . S
O1538 Gd1489 2.545 . S
O1538 C1556 1.258 . S
O1539 Gd1488 2.362 . S
O1539 Gd1489 2.606 . S
O1539 C1555 1.284 . S
O1540 Gd1488 2.324 . S
O1540 C1563 1.254 . S
O1541 Gd1489 2.429 . S
O1541 C1563 1.268 . S
O1542 Gd1489 2.545 . S
O1542 C1555 1.250 . S
O1543 Gd1489 2.412 . S
O1543 C1556 1.252 . S
C1544 O1533 1.284 . S
C1544 O1536 1.250 . S
C1545 H1514 0.929 . S
C1545 C1530 1.437 . S
C1545 C1546 1.317 . S
C1546 H1517 0.930 . S
C1546 C1522 1.431 . S
C1546 C1545 1.317 . S
C1547 Gd1488 2.828 . S
C1547 O1532 1.258 . S
C1547 O1537 1.252 . S
C1547 C1548 1.497 . S
C1548 C1547 1.497 . S
C1548 C1549 1.395 . S
C1548 C1550 1.380 . S
C1549 C1548 1.395 . S
C1549 C1552 1.398 . S
C1549 H1564 0.930 . S
C1550 C1548 1.380 . S
C1550 C1551 1.391 . S
C1550 H1565 0.930 . S
C1551 C1550 1.391 . S
C1551 C1553 1.387 . S
C1552 C1549 1.398 . S
C1552 C1553 1.380 . S
C1552 H1566 0.930 . S
C1553 C1551 1.387 . S
C1553 C1552 1.380 . S
C1553 H1567 0.930 . S
C1554 O1534 1.254 . S
C1554 O1535 1.268 . S
C1555 O1539 1.284 . S
C1555 O1542 1.250 . S
C1556 Gd1489 2.828 . S
C1556 O1538 1.258 . S
C1556 O1543 1.252 . S
C1556 C1557 1.497 . S
C1557 C1556 1.497 . S
C1557 C1558 1.395 . S
C1557 C1559 1.380 . S
C1558 C1557 1.395 . S
C1558 C1561 1.398 . S
C1558 H1568 0.930 . S
C1559 C1557 1.380 . S
C1559 C1560 1.391 . S
C1559 H1569 0.930 . S
C1560 C1559 1.391 . S
C1560 C1562 1.387 . S
C1561 C1558 1.398 . S
C1561 C1562 1.380 . S
C1561 H1570 0.930 . S
C1562 C1560 1.387 . S
C1562 C1561 1.380 . S
C1562 H1571 0.930 . S
C1563 O1540 1.254 . S
C1563 O1541 1.268 . S
H1564 C1549 0.930 . S
H1565 C1550 0.930 . S
H1566 C1552 0.930 . S
H1567 C1553 0.930 . S
H1568 C1558 0.930 . S
H1569 C1559 0.930 . S
H1570 C1561 0.930 . S
H1571 C1562 0.930 . S
Gd1572 N1603 2.661 1_455 S
Gd1572 N1609 2.601 . S
Gd1572 O1616 2.545 1_455 S
Gd1572 O1617 2.606 . S
Gd1572 O1619 2.429 . S
Gd1572 O1620 2.545 . S
Gd1572 O1621 2.412 1_455 S
Gd1572 O1623 2.362 . S
Gd1572 O1624 2.324 . S
Gd1572 C1631 2.828 1_455 S
Gd1573 N1582 2.661 . S
Gd1573 N1586 2.601 1_554 S
Gd1573 O1617 2.362 . S
Gd1573 O1618 2.324 . S
Gd1573 O1622 2.545 1_554 S
Gd1573 O1623 2.606 . S
Gd1573 O1625 2.429 1_554 S
Gd1573 O1626 2.545 . S
Gd1573 O1627 2.412 . S
Gd1573 C1640 2.828 . S
C1574 C1577 1.417 . S
C1574 C1579 1.431 . S
C1574 C1580 1.412 . S
C1575 C1578 1.437 . S
C1575 C1579 1.317 1_556 S
C1575 H1594 0.929 . S
C1576 C1577 1.426 1_556 S
C1576 C1578 1.413 . S
C1576 N1586 1.359 . S
C1577 C1574 1.417 . S
C1577 C1576 1.426 1_554 S
C1577 N1582 1.350 . S
C1578 C1575 1.437 . S
C1578 C1576 1.413 . S
C1578 C1588 1.391 . S
C1579 C1574 1.431 . S
C1579 C1575 1.317 1_554 S
C1579 H1590 0.930 . S
C1580 C1574 1.412 . S
C1580 C1581 1.355 . S
C1580 H1592 0.930 . S
C1581 C1580 1.355 . S
C1581 C1583 1.402 . S
C1581 H1593 0.930 . S
N1582 Gd1573 2.661 . S
N1582 C1577 1.350 . S
N1582 C1583 1.307 . S
C1583 C1581 1.402 . S
C1583 N1582 1.307 . S
C1583 H1584 0.930 . S
H1584 C1583 0.930 . S
C1585 N1586 1.334 . S
C1585 C1587 1.394 . S
C1585 H1589 0.930 . S
N1586 Gd1573 2.601 1_556 S
N1586 C1576 1.359 . S
N1586 C1585 1.334 . S
C1587 C1585 1.394 . S
C1587 C1588 1.359 . S
C1587 H1599 0.930 . S
C1588 C1578 1.391 . S
C1588 C1587 1.359 . S
C1588 H1600 0.929 . S
H1589 C1585 0.930 . S
H1590 C1579 0.930 . S
H1591 C1608 0.930 1_556 S
H1592 C1580 0.930 . S
H1593 C1581 0.930 . S
H1594 C1575 0.929 . S
H1595 C1613 0.930 . S
H1596 C1604 0.931 . S
H1597 C1605 0.930 . S
H1598 C1629 0.929 . S
H1599 C1587 0.930 . S
H1600 C1588 0.929 . S
H1601 C1630 0.930 . S
H1602 C1611 0.930 . S
N1603 Gd1572 2.661 1_655 S
N1603 C1607 1.350 . S
N1603 C1608 1.307 . S
C1604 H1596 0.931 . S
C1604 C1605 1.355 1_554 S
C1604 C1606 1.412 . S
C1605 H1597 0.930 . S
C1605 C1604 1.355 1_556 S
C1605 C1608 1.402 1_556 S
C1606 C1604 1.412 . S
C1606 C1607 1.417 . S
C1606 C1630 1.431 . S
C1607 N1603 1.350 . S
C1607 C1606 1.417 . S
C1607 C1610 1.426 . S
C1608 H1591 0.930 1_554 S
C1608 N1603 1.307 . S
C1608 C1605 1.402 1_554 S
N1609 Gd1572 2.601 . S
N1609 C1610 1.360 1_455 S
N1609 C1613 1.334 . S
C1610 C1607 1.426 . S
C1610 N1609 1.360 1_655 S
C1610 C1614 1.413 . S
C1611 H1602 0.930 . S
C1611 C1612 1.359 . S
C1611 C1613 1.394 1_655 S
C1612 C1611 1.359 . S
C1612 C1614 1.391 . S
C1612 H1615 0.929 . S
C1613 H1595 0.930 . S
C1613 N1609 1.334 . S
C1613 C1611 1.394 1_455 S
C1614 C1610 1.413 . S
C1614 C1612 1.391 . S
C1614 C1629 1.437 . S
H1615 C1612 0.929 . S
O1616 Gd1572 2.545 1_655 S
O1616 C1631 1.258 . S
O1617 Gd1572 2.606 . S
O1617 Gd1573 2.362 . S
O1617 C1628 1.284 . S
O1618 Gd1573 2.324 . S
O1618 C1638 1.254 . S
O1619 Gd1572 2.429 . S
O1619 C1638 1.268 . S
O1620 Gd1572 2.545 . S
O1620 C1628 1.250 . S
O1621 Gd1572 2.412 1_655 S
O1621 C1631 1.252 . S
O1622 Gd1573 2.545 1_556 S
O1622 C1640 1.258 1_556 S
O1623 Gd1572 2.362 . S
O1623 Gd1573 2.606 . S
O1623 C1639 1.284 . S
O1624 Gd1572 2.324 . S
O1624 C1647 1.254 1_554 S
O1625 Gd1573 2.429 1_556 S
O1625 C1647 1.268 . S
O1626 Gd1573 2.545 . S
O1626 C1639 1.250 . S
O1627 Gd1573 2.412 . S
O1627 C1640 1.252 . S
C1628 O1617 1.284 . S
C1628 O1620 1.250 . S
C1629 H1598 0.929 . S
C1629 C1614 1.437 . S
C1629 C1630 1.317 . S
C1630 H1601 0.930 . S
C1630 C1606 1.431 . S
C1630 C1629 1.317 . S
C1631 Gd1572 2.828 1_655 S
C1631 O1616 1.258 . S
C1631 O1621 1.252 . S
C1631 C1632 1.497 . S
C1632 C1631 1.497 . S
C1632 C1633 1.395 . S
C1632 C1634 1.380 . S
C1633 C1632 1.395 . S
C1633 C1636 1.398 . S
C1633 H1648 0.930 . S
C1634 C1632 1.380 . S
C1634 C1635 1.391 . S
C1634 H1649 0.930 . S
C1635 C1634 1.391 . S
C1635 C1637 1.387 . S
C1636 C1633 1.398 . S
C1636 C1637 1.380 . S
C1636 H1650 0.930 . S
C1637 C1635 1.387 . S
C1637 C1636 1.380 . S
C1637 H1651 0.930 . S
C1638 O1618 1.254 . S
C1638 O1619 1.268 . S
C1639 O1623 1.284 . S
C1639 O1626 1.250 . S
C1640 Gd1573 2.828 . S
C1640 O1622 1.258 1_554 S
C1640 O1627 1.252 . S
C1640 C1641 1.497 1_554 S
C1641 C1640 1.497 1_556 S
C1641 C1642 1.395 . S
C1641 C1643 1.380 1_556 S
C1642 C1641 1.395 . S
C1642 C1645 1.398 . S
C1642 H1652 0.930 . S
C1643 C1641 1.380 1_554 S
C1643 C1644 1.391 . S
C1643 H1653 0.930 . S
C1644 C1643 1.391 . S
C1644 C1646 1.387 1_554 S
C1645 C1642 1.398 . S
C1645 C1646 1.380 . S
C1645 H1654 0.930 . S
C1646 C1644 1.387 1_556 S
C1646 C1645 1.380 . S
C1646 H1655 0.930 . S
C1647 O1624 1.254 1_556 S
C1647 O1625 1.268 . S
H1648 C1633 0.930 . S
H1649 C1634 0.930 . S
H1650 C1636 0.930 . S
H1651 C1637 0.930 . S
H1652 C1642 0.930 . S
H1653 C1643 0.930 . S
H1654 C1645 0.930 . S
H1655 C1646 0.930 . S
H1656 C1664 0.950 . S
H1657 C1669 0.950 1_655 S
H1658 C1666 0.950 . S
H1659 C1668 0.950 . S
H1660 C1670 0.950 . S
H1661 C1672 0.950 1_556 S
H1662 C1674 0.950 . S
H1663 C1675 0.950 . S
C1664 H1656 0.950 . S
C1664 C1665 1.386 . S
C1664 C1666 1.391 . S
C1665 C1664 1.386 . S
C1665 C1669 1.393 . S
C1666 H1658 0.950 . S
C1666 C1664 1.391 . S
C1666 C1667 1.400 . S
C1667 C1666 1.400 . S
C1667 C1668 1.398 . S
C1667 C1673 1.475 1_556 S
C1668 H1659 0.950 . S
C1668 C1667 1.398 . S
C1668 C1669 1.391 . S
C1669 H1657 0.950 1_455 S
C1669 C1665 1.393 . S
C1669 C1668 1.391 . S
C1670 H1660 0.950 . S
C1670 C1671 1.386 . S
C1670 C1672 1.391 . S
C1671 C1670 1.386 . S
C1671 C1675 1.393 . S
C1672 H1661 0.950 1_554 S
C1672 C1670 1.391 . S
C1672 C1673 1.409 . S
C1673 C1667 1.475 1_554 S
C1673 C1672 1.409 . S
C1673 C1674 1.406 . S
C1674 H1662 0.950 . S
C1674 C1673 1.406 . S
C1674 C1675 1.391 . S
C1675 H1663 0.950 . S
C1675 C1671 1.393 . S
C1675 C1674 1.391 . S
H1676 C1684 0.950 . S
H1677 C1689 0.950 . S
H1678 C1686 0.950 . S
H1679 C1688 0.950 . S
H1680 C1690 0.950 . S
H1681 C1692 0.950 . S
H1682 C1694 0.950 . S
H1683 C1695 0.950 . S
C1684 H1676 0.950 . S
C1684 C1685 1.386 . S
C1684 C1686 1.391 . S
C1685 C1684 1.386 . S
C1685 C1689 1.393 . S
C1686 H1678 0.950 . S
C1686 C1684 1.391 . S
C1686 C1687 1.400 . S
C1687 C1686 1.400 . S
C1687 C1688 1.398 . S
C1687 C1693 1.491 . S
C1688 H1679 0.950 . S
C1688 C1687 1.398 . S
C1688 C1689 1.391 . S
C1689 H1677 0.950 . S
C1689 C1685 1.393 . S
C1689 C1688 1.391 . S
C1690 H1680 0.950 . S
C1690 C1691 1.386 . S
C1690 C1692 1.391 . S
C1691 C1690 1.386 . S
C1691 C1695 1.393 . S
C1692 H1681 0.950 . S
C1692 C1690 1.391 . S
C1692 C1693 1.400 . S
C1693 C1687 1.491 . S
C1693 C1692 1.400 . S
C1693 C1694 1.398 . S
C1694 H1682 0.950 . S
C1694 C1693 1.398 . S
C1694 C1695 1.391 . S
C1695 H1683 0.950 . S
C1695 C1691 1.393 . S
C1695 C1694 1.391 . S
H1696 C1704 0.950 . S
H1697 C1709 0.950 . S
H1698 C1706 0.950 . S
H1699 C1708 0.950 . S
H1700 C1710 0.950 . S
H1701 C1712 0.950 . S
H1702 C1714 0.950 . S
H1703 C1715 0.950 . S
C1704 H1696 0.950 . S
C1704 C1705 1.386 . S
C1704 C1706 1.391 . S
C1705 C1704 1.386 . S
C1705 C1709 1.393 . S
C1706 H1698 0.950 . S
C1706 C1704 1.391 . S
C1706 C1707 1.400 . S
C1707 C1706 1.400 . S
C1707 C1708 1.398 . S
C1707 C1713 1.491 . S
C1708 H1699 0.950 . S
C1708 C1707 1.398 . S
C1708 C1709 1.391 . S
C1709 H1697 0.950 . S
C1709 C1705 1.393 . S
C1709 C1708 1.391 . S
C1710 H1700 0.950 . S
C1710 C1711 1.386 . S
C1710 C1712 1.391 . S
C1711 C1710 1.386 . S
C1711 C1715 1.393 . S
C1712 H1701 0.950 . S
C1712 C1710 1.391 . S
C1712 C1713 1.400 . S
C1713 C1707 1.491 . S
C1713 C1712 1.400 . S
C1713 C1714 1.398 . S
C1714 H1702 0.950 . S
C1714 C1713 1.398 . S
C1714 C1715 1.391 . S
C1715 H1703 0.950 . S
C1715 C1711 1.393 . S
C1715 C1714 1.391 . S
H1716 C1724 0.950 . S
H1717 C1729 0.950 . S
H1718 C1726 0.950 . S
H1719 C1728 0.950 . S
H1720 C1730 0.950 . S
H1721 C1732 0.950 . S
H1722 C1734 0.950 . S
H1723 C1735 0.950 . S
C1724 H1716 0.950 . S
C1724 C1725 1.386 . S
C1724 C1726 1.391 . S
C1725 C1724 1.386 . S
C1725 C1729 1.393 . S
C1726 H1718 0.950 . S
C1726 C1724 1.391 . S
C1726 C1727 1.400 . S
C1727 C1726 1.400 . S
C1727 C1728 1.398 . S
C1727 C1733 1.491 . S
C1728 H1719 0.950 . S
C1728 C1727 1.398 . S
C1728 C1729 1.391 . S
C1729 H1717 0.950 . S
C1729 C1725 1.393 . S
C1729 C1728 1.391 . S
C1730 H1720 0.950 . S
C1730 C1731 1.386 . S
C1730 C1732 1.391 . S
C1731 C1730 1.386 . S
C1731 C1735 1.393 . S
C1732 H1721 0.950 . S
C1732 C1730 1.391 . S
C1732 C1733 1.400 . S
C1733 C1727 1.491 . S
C1733 C1732 1.400 . S
C1733 C1734 1.398 . S
C1734 H1722 0.950 . S
C1734 C1733 1.398 . S
C1734 C1735 1.391 . S
C1735 H1723 0.950 . S
C1735 C1731 1.393 . S
C1735 C1734 1.391 . S
H1736 C1744 0.950 . S
H1737 C1749 0.920 1_655 S
H1738 C1746 0.950 . S
H1739 C1748 0.950 1_655 S
H1740 C1750 0.950 . S
H1741 C1752 0.950 . S
H1742 C1754 0.950 . S
H1743 C1755 0.950 . S
C1744 H1736 0.950 . S
C1744 C1745 1.386 . S
C1744 C1746 1.391 . S
C1745 C1744 1.386 . S
C1745 C1749 1.416 . S
C1746 H1738 0.950 . S
C1746 C1744 1.391 . S
C1746 C1747 1.400 . S
C1747 C1746 1.400 . S
C1747 C1748 1.398 . S
C1747 C1753 1.491 . S
C1748 H1739 0.950 1_455 S
C1748 C1747 1.398 . S
C1748 C1749 1.397 . S
C1749 H1737 0.920 1_455 S
C1749 C1745 1.416 . S
C1749 C1748 1.397 . S
C1750 H1740 0.950 . S
C1750 C1751 1.386 . S
C1750 C1752 1.391 . S
C1751 C1750 1.386 . S
C1751 C1755 1.393 . S
C1752 H1741 0.950 . S
C1752 C1750 1.391 . S
C1752 C1753 1.400 . S
C1753 C1747 1.491 . S
C1753 C1752 1.400 . S
C1753 C1754 1.398 . S
C1754 H1742 0.950 . S
C1754 C1753 1.398 . S
C1754 C1755 1.391 . S
C1755 H1743 0.950 . S
C1755 C1751 1.393 . S
C1755 C1754 1.391 . S
H1756 C1764 0.950 . S
H1757 C1769 0.950 . S
H1758 C1766 0.950 . S
H1759 C1768 0.950 . S
H1760 C1770 0.950 . S
H1761 C1772 0.950 . S
H1762 C1774 0.950 . S
H1763 C1775 0.950 . S
C1764 H1756 0.950 . S
C1764 C1765 1.386 . S
C1764 C1766 1.391 . S
C1765 C1764 1.386 . S
C1765 C1769 1.393 . S
C1766 H1758 0.950 . S
C1766 C1764 1.391 . S
C1766 C1767 1.400 . S
C1767 C1766 1.400 . S
C1767 C1768 1.398 . S
C1767 C1773 1.491 . S
C1768 H1759 0.950 . S
C1768 C1767 1.398 . S
C1768 C1769 1.391 . S
C1769 H1757 0.950 . S
C1769 C1765 1.393 . S
C1769 C1768 1.391 . S
C1770 H1760 0.950 . S
C1770 C1771 1.386 . S
C1770 C1772 1.391 . S
C1771 C1770 1.386 . S
C1771 C1775 1.393 . S
C1772 H1761 0.950 . S
C1772 C1770 1.391 . S
C1772 C1773 1.400 . S
C1773 C1767 1.491 . S
C1773 C1772 1.400 . S
C1773 C1774 1.398 . S
C1774 H1762 0.950 . S
C1774 C1773 1.398 . S
C1774 C1775 1.391 . S
C1775 H1763 0.950 . S
C1775 C1771 1.393 . S
C1775 C1774 1.391 . S
H1776 C1784 0.950 . S
H1777 C1789 0.950 . S
H1778 C1786 0.950 . S
H1779 C1788 0.950 . S
H1780 C1790 0.950 . S
H1781 C1792 0.950 . S
H1782 C1794 0.950 . S
H1783 C1795 0.950 . S
C1784 H1776 0.950 . S
C1784 C1785 1.386 . S
C1784 C1786 1.391 . S
C1785 C1784 1.386 . S
C1785 C1789 1.393 . S
C1786 H1778 0.950 . S
C1786 C1784 1.391 . S
C1786 C1787 1.400 . S
C1787 C1786 1.400 . S
C1787 C1788 1.398 . S
C1787 C1793 1.491 . S
C1788 H1779 0.950 . S
C1788 C1787 1.398 . S
C1788 C1789 1.391 . S
C1789 H1777 0.950 . S
C1789 C1785 1.393 . S
C1789 C1788 1.391 . S
C1790 H1780 0.950 . S
C1790 C1791 1.386 . S
C1790 C1792 1.391 . S
C1791 C1790 1.386 . S
C1791 C1795 1.393 . S
C1792 H1781 0.950 . S
C1792 C1790 1.391 . S
C1792 C1793 1.400 . S
C1793 C1787 1.491 . S
C1793 C1792 1.400 . S
C1793 C1794 1.398 . S
C1794 H1782 0.950 . S
C1794 C1793 1.398 . S
C1794 C1795 1.391 . S
C1795 H1783 0.950 . S
C1795 C1791 1.393 . S
C1795 C1794 1.391 . S
H1796 C1804 0.950 . S
H1797 C1809 0.950 . S
H1798 C1806 0.950 . S
H1799 C1808 0.950 . S
H1800 C1810 0.950 . S
H1801 C1812 0.950 . S
H1802 C1814 0.950 . S
H1803 C1815 0.950 . S
C1804 H1796 0.950 . S
C1804 C1805 1.386 . S
C1804 C1806 1.391 . S
C1805 C1804 1.386 . S
C1805 C1809 1.393 . S
C1806 H1798 0.950 . S
C1806 C1804 1.391 . S
C1806 C1807 1.400 . S
C1807 C1806 1.400 . S
C1807 C1808 1.398 . S
C1807 C1813 1.491 . S
C1808 H1799 0.950 . S
C1808 C1807 1.398 . S
C1808 C1809 1.391 . S
C1809 H1797 0.950 . S
C1809 C1805 1.393 . S
C1809 C1808 1.391 . S
C1810 H1800 0.950 . S
C1810 C1811 1.386 . S
C1810 C1812 1.391 . S
C1811 C1810 1.386 . S
C1811 C1815 1.393 . S
C1812 H1801 0.950 . S
C1812 C1810 1.391 . S
C1812 C1813 1.400 . S
C1813 C1807 1.491 . S
C1813 C1812 1.400 . S
C1813 C1814 1.398 . S
C1814 H1802 0.950 . S
C1814 C1813 1.398 . S
C1814 C1815 1.391 . S
C1815 H1803 0.950 . S
C1815 C1811 1.393 . S
C1815 C1814 1.391 . S
H1816 C1824 0.950 . S
H1817 C1829 0.950 . S
H1818 C1826 0.948 . S
H1819 C1828 0.950 . S
H1820 C1830 0.950 . S
H1821 C1832 0.950 . S
H1822 C1834 0.950 . S
H1823 C1835 0.950 . S
C1824 H1816 0.950 . S
C1824 C1825 1.386 . S
C1824 C1826 1.394 1_655 S
C1825 C1824 1.386 . S
C1825 C1829 1.393 . S
C1826 H1818 0.948 . S
C1826 C1824 1.394 1_455 S
C1826 C1827 1.405 1_455 S
C1827 C1826 1.405 1_655 S
C1827 C1828 1.407 . S
C1827 C1833 1.478 1_655 S
C1828 H1819 0.950 . S
C1828 C1827 1.407 . S
C1828 C1829 1.391 . S
C1829 H1817 0.950 . S
C1829 C1825 1.393 . S
C1829 C1828 1.391 . S
C1830 H1820 0.950 . S
C1830 C1831 1.386 . S
C1830 C1832 1.391 . S
C1831 C1830 1.386 . S
C1831 C1835 1.393 . S
C1832 H1821 0.950 . S
C1832 C1830 1.391 . S
C1832 C1833 1.400 . S
C1833 C1827 1.478 1_455 S
C1833 C1832 1.400 . S
C1833 C1834 1.398 . S
C1834 H1822 0.950 . S
C1834 C1833 1.398 . S
C1834 C1835 1.391 . S
C1835 H1823 0.950 . S
C1835 C1831 1.393 . S
C1835 C1834 1.391 . S
H1836 C1844 0.950 . S
H1837 C1849 0.950 . S
H1838 C1846 0.950 . S
H1839 C1848 0.950 . S
H1840 C1850 0.950 . S
H1841 C1852 0.950 . S
H1842 C1854 0.950 . S
H1843 C1855 0.950 . S
C1844 H1836 0.950 . S
C1844 C1845 1.386 . S
C1844 C1846 1.391 . S
C1845 C1844 1.386 . S
C1845 C1849 1.393 . S
C1846 H1838 0.950 . S
C1846 C1844 1.391 . S
C1846 C1847 1.400 . S
C1847 C1846 1.400 . S
C1847 C1848 1.398 . S
C1847 C1853 1.491 . S
C1848 H1839 0.950 . S
C1848 C1847 1.398 . S
C1848 C1849 1.391 . S
C1849 H1837 0.950 . S
C1849 C1845 1.393 . S
C1849 C1848 1.391 . S
C1850 H1840 0.950 . S
C1850 C1851 1.386 . S
C1850 C1852 1.391 . S
C1851 C1850 1.386 . S
C1851 C1855 1.393 . S
C1852 H1841 0.950 . S
C1852 C1850 1.391 . S
C1852 C1853 1.400 . S
C1853 C1847 1.491 . S
C1853 C1852 1.400 . S
C1853 C1854 1.398 . S
C1854 H1842 0.950 . S
C1854 C1853 1.398 . S
C1854 C1855 1.391 . S
C1855 H1843 0.950 . S
C1855 C1851 1.393 . S
C1855 C1854 1.391 . S
H1856 C1864 0.950 . S
H1857 C1869 0.950 . S
H1858 C1866 0.935 1_565 S
H1859 C1868 0.950 . S
H1860 C1870 0.950 . S
H1861 C1872 0.950 . S
H1862 C1874 0.950 1_565 S
H1863 C1875 0.950 1_565 S
C1864 H1856 0.950 . S
C1864 C1865 1.386 . S
C1864 C1866 1.391 . S
C1865 C1864 1.386 . S
C1865 C1869 1.393 . S
C1866 H1858 0.935 1_545 S
C1866 C1864 1.391 . S
C1866 C1867 1.400 . S
C1867 C1866 1.400 . S
C1867 C1868 1.398 . S
C1867 C1873 1.491 . S
C1868 H1859 0.950 . S
C1868 C1867 1.398 . S
C1868 C1869 1.391 . S
C1869 H1857 0.950 . S
C1869 C1865 1.393 . S
C1869 C1868 1.391 . S
C1870 H1860 0.950 . S
C1870 C1871 1.386 . S
C1870 C1872 1.391 . S
C1871 C1870 1.386 . S
C1871 C1875 1.393 . S
C1872 H1861 0.950 . S
C1872 C1870 1.391 . S
C1872 C1873 1.400 . S
C1873 C1867 1.491 . S
C1873 C1872 1.400 . S
C1873 C1874 1.398 . S
C1874 H1862 0.950 1_545 S
C1874 C1873 1.398 . S
C1874 C1875 1.391 . S
C1875 H1863 0.950 1_545 S
C1875 C1871 1.393 . S
C1875 C1874 1.391 . S
H1876 C1884 0.950 . S
H1877 C1889 0.950 . S
H1878 C1886 0.950 . S
H1879 C1888 0.950 . S
H1880 C1890 0.950 . S
H1881 C1892 0.950 . S
H1882 C1894 0.950 . S
H1883 C1895 0.950 . S
C1884 H1876 0.950 . S
C1884 C1885 1.386 . S
C1884 C1886 1.391 . S
C1885 C1884 1.386 . S
C1885 C1889 1.393 . S
C1886 H1878 0.950 . S
C1886 C1884 1.391 . S
C1886 C1887 1.400 . S
C1887 C1886 1.400 . S
C1887 C1888 1.398 . S
C1887 C1893 1.491 . S
C1888 H1879 0.950 . S
C1888 C1887 1.398 . S
C1888 C1889 1.391 . S
C1889 H1877 0.950 . S
C1889 C1885 1.393 . S
C1889 C1888 1.391 . S
C1890 H1880 0.950 . S
C1890 C1891 1.386 . S
C1890 C1892 1.391 . S
C1891 C1890 1.386 . S
C1891 C1895 1.393 . S
C1892 H1881 0.950 . S
C1892 C1890 1.391 . S
C1892 C1893 1.400 . S
C1893 C1887 1.491 . S
C1893 C1892 1.400 . S
C1893 C1894 1.398 . S
C1894 H1882 0.950 . S
C1894 C1893 1.398 . S
C1894 C1895 1.391 . S
C1895 H1883 0.950 . S
C1895 C1891 1.393 . S
C1895 C1894 1.391 . S
H1896 C1904 0.976 . S
H1897 C1909 0.950 . S
H1898 C1906 0.950 . S
H1899 C1908 0.950 . S
H1900 C1910 0.950 . S
H1901 C1912 0.950 1_655 S
H1902 C1914 0.950 . S
H1903 C1915 0.950 . S
C1904 H1896 0.976 . S
C1904 C1905 1.330 1_455 S
C1904 C1906 1.423 . S
C1905 C1904 1.330 1_655 S
C1905 C1909 1.393 . S
C1906 H1898 0.950 . S
C1906 C1904 1.423 . S
C1906 C1907 1.400 . S
C1907 C1906 1.400 . S
C1907 C1908 1.398 1_455 S
C1907 C1913 1.491 . S
C1908 H1899 0.950 . S
C1908 C1907 1.398 1_655 S
C1908 C1909 1.391 . S
C1909 H1897 0.950 . S
C1909 C1905 1.393 . S
C1909 C1908 1.391 . S
C1910 H1900 0.950 . S
C1910 C1911 1.386 . S
C1910 C1912 1.391 . S
C1911 C1910 1.386 . S
C1911 C1915 1.393 . S
C1912 H1901 0.950 1_455 S
C1912 C1910 1.391 . S
C1912 C1913 1.400 . S
C1913 C1907 1.491 . S
C1913 C1912 1.400 . S
C1913 C1914 1.398 . S
C1914 H1902 0.950 . S
C1914 C1913 1.398 . S
C1914 C1915 1.391 . S
C1915 H1903 0.950 . S
C1915 C1911 1.393 . S
C1915 C1914 1.391 . S
H1916 C1924 0.950 . S
H1917 C1929 0.950 . S
H1918 C1926 0.950 . S
H1919 C1928 0.950 . S
H1920 C1930 0.950 . S
H1921 C1932 0.950 . S
H1922 C1934 0.950 . S
H1923 C1935 0.950 . S
C1924 H1916 0.950 . S
C1924 C1925 1.386 . S
C1924 C1926 1.391 . S
C1925 C1924 1.386 . S
C1925 C1929 1.393 . S
C1926 H1918 0.950 . S
C1926 C1924 1.391 . S
C1926 C1927 1.400 . S
C1927 C1926 1.400 . S
C1927 C1928 1.398 . S
C1927 C1933 1.491 . S
C1928 H1919 0.950 . S
C1928 C1927 1.398 . S
C1928 C1929 1.391 . S
C1929 H1917 0.950 . S
C1929 C1925 1.393 . S
C1929 C1928 1.391 . S
C1930 H1920 0.950 . S
C1930 C1931 1.386 . S
C1930 C1932 1.391 . S
C1931 C1930 1.386 . S
C1931 C1935 1.393 . S
C1932 H1921 0.950 . S
C1932 C1930 1.391 . S
C1932 C1933 1.400 . S
C1933 C1927 1.491 . S
C1933 C1932 1.400 . S
C1933 C1934 1.398 . S
C1934 H1922 0.950 . S
C1934 C1933 1.398 . S
C1934 C1935 1.391 . S
C1935 H1923 0.950 . S
C1935 C1931 1.393 . S
C1935 C1934 1.391 . S
H1936 C1944 0.950 . S
H1937 C1949 0.950 . S
H1938 C1946 0.950 . S
H1939 C1948 0.950 . S
H1940 C1950 0.950 . S
H1941 C1952 0.950 . S
H1942 C1954 0.950 . S
H1943 C1955 0.950 . S
C1944 H1936 0.950 . S
C1944 C1945 1.386 . S
C1944 C1946 1.391 . S
C1945 C1944 1.386 . S
C1945 C1949 1.393 . S
C1946 H1938 0.950 . S
C1946 C1944 1.391 . S
C1946 C1947 1.400 . S
C1947 C1946 1.400 . S
C1947 C1948 1.398 . S
C1947 C1953 1.491 . S
C1948 H1939 0.950 . S
C1948 C1947 1.398 . S
C1948 C1949 1.391 . S
C1949 H1937 0.950 . S
C1949 C1945 1.393 . S
C1949 C1948 1.391 . S
C1950 H1940 0.950 . S
C1950 C1951 1.386 . S
C1950 C1952 1.391 . S
C1951 C1950 1.386 . S
C1951 C1955 1.393 . S
C1952 H1941 0.950 . S
C1952 C1950 1.391 . S
C1952 C1953 1.400 . S
C1953 C1947 1.491 . S
C1953 C1952 1.400 . S
C1953 C1954 1.398 . S
C1954 H1942 0.950 . S
C1954 C1953 1.398 . S
C1954 C1955 1.391 . S
C1955 H1943 0.950 . S
C1955 C1951 1.393 . S
C1955 C1954 1.391 . S
H1956 C1964 0.950 . S
H1957 C1969 0.950 . S
H1958 C1966 0.950 . S
H1959 C1968 0.950 . S
H1960 C1970 0.950 . S
H1961 C1972 0.950 . S
H1962 C1974 0.950 . S
H1963 C1975 0.950 . S
C1964 H1956 0.950 . S
C1964 C1965 1.386 . S
C1964 C1966 1.391 . S
C1965 C1964 1.386 . S
C1965 C1969 1.393 . S
C1966 H1958 0.950 . S
C1966 C1964 1.391 . S
C1966 C1967 1.400 . S
C1967 C1966 1.400 . S
C1967 C1968 1.398 . S
C1967 C1973 1.491 . S
C1968 H1959 0.950 . S
C1968 C1967 1.398 . S
C1968 C1969 1.391 . S
C1969 H1957 0.950 . S
C1969 C1965 1.393 . S
C1969 C1968 1.391 . S
C1970 H1960 0.950 . S
C1970 C1971 1.386 . S
C1970 C1972 1.391 . S
C1971 C1970 1.386 . S
C1971 C1975 1.393 . S
C1972 H1961 0.950 . S
C1972 C1970 1.391 . S
C1972 C1973 1.400 . S
C1973 C1967 1.491 . S
C1973 C1972 1.400 . S
C1973 C1974 1.398 . S
C1974 H1962 0.950 . S
C1974 C1973 1.398 . S
C1974 C1975 1.391 . S
C1975 H1963 0.950 . S
C1975 C1971 1.393 . S
C1975 C1974 1.391 . S
H1976 C1984 0.950 . S
H1977 C1989 0.950 1_556 S
H1978 C1986 0.950 . S
H1979 C1988 0.950 1_556 S
H1980 C1990 0.950 . S
H1981 C1992 0.984 . S
H1982 C1994 0.950 . S
H1983 C1995 0.950 . S
C1984 H1976 0.950 . S
C1984 C1985 1.386 . S
C1984 C1986 1.391 . S
C1985 C1984 1.386 . S
C1985 C1989 1.393 . S
C1986 H1978 0.950 . S
C1986 C1984 1.391 . S
C1986 C1987 1.400 . S
C1987 C1986 1.400 . S
C1987 C1988 1.398 . S
C1987 C1993 1.491 . S
C1988 H1979 0.950 1_554 S
C1988 C1987 1.398 . S
C1988 C1989 1.391 . S
C1989 H1977 0.950 1_554 S
C1989 C1985 1.393 . S
C1989 C1988 1.391 . S
C1990 H1980 0.950 . S
C1990 C1991 1.386 . S
C1990 C1992 1.391 . S
C1991 C1990 1.386 . S
C1991 C1995 1.393 . S
C1992 H1981 0.984 . S
C1992 C1990 1.391 . S
C1992 C1993 1.400 1_545 S
C1993 C1987 1.491 . S
C1993 C1992 1.400 1_565 S
C1993 C1994 1.398 . S
C1994 H1982 0.950 . S
C1994 C1993 1.398 . S
C1994 C1995 1.391 1_565 S
C1995 H1983 0.950 . S
C1995 C1991 1.393 . S
C1995 C1994 1.391 1_545 S
H1996 C2004 0.950 . S
H1997 C2009 0.950 . S
H1998 C2006 0.950 . S
H1999 C2008 0.950 . S
H2000 C2010 0.950 . S
H2001 C2012 0.950 . S
H2002 C2014 0.950 . S
H2003 C2015 0.950 . S
C2004 H1996 0.950 . S
C2004 C2005 1.386 1_554 S
C2004 C2006 1.391 . S
C2005 C2004 1.386 1_556 S
C2005 C2009 1.393 . S
C2006 H1998 0.950 . S
C2006 C2004 1.391 . S
C2006 C2007 1.400 1_554 S
C2007 C2006 1.400 1_556 S
C2007 C2008 1.398 . S
C2007 C2013 1.491 . S
C2008 H1999 0.950 . S
C2008 C2007 1.398 . S
C2008 C2009 1.391 . S
C2009 H1997 0.950 . S
C2009 C2005 1.393 . S
C2009 C2008 1.391 . S
C2010 H2000 0.950 . S
C2010 C2011 1.386 . S
C2010 C2012 1.391 . S
C2011 C2010 1.386 . S
C2011 C2015 1.393 1_556 S
C2012 H2001 0.950 . S
C2012 C2010 1.391 . S
C2012 C2013 1.400 . S
C2013 C2007 1.491 . S
C2013 C2012 1.400 . S
C2013 C2014 1.398 1_556 S
C2014 H2002 0.950 . S
C2014 C2013 1.398 1_554 S
C2014 C2015 1.391 . S
C2015 H2003 0.950 . S
C2015 C2011 1.393 1_554 S
C2015 C2014 1.391 . S
H2016 C2024 0.950 . S
H2017 C2029 0.950 . S
H2018 C2026 0.950 . S
H2019 C2028 0.950 . S
H2020 C2030 0.950 . S
H2021 C2032 0.950 . S
H2022 C2034 0.950 . S
H2023 C2035 0.950 . S
C2024 H2016 0.950 . S
C2024 C2025 1.386 . S
C2024 C2026 1.391 . S
C2025 C2024 1.386 . S
C2025 C2029 1.393 . S
C2026 H2018 0.950 . S
C2026 C2024 1.391 . S
C2026 C2027 1.400 . S
C2027 C2026 1.400 . S
C2027 C2028 1.398 . S
C2027 C2033 1.491 . S
C2028 H2019 0.950 . S
C2028 C2027 1.398 . S
C2028 C2029 1.391 . S
C2029 H2017 0.950 . S
C2029 C2025 1.393 . S
C2029 C2028 1.391 . S
C2030 H2020 0.950 . S
C2030 C2031 1.386 . S
C2030 C2032 1.391 . S
C2031 C2030 1.386 . S
C2031 C2035 1.393 . S
C2032 H2021 0.950 . S
C2032 C2030 1.391 . S
C2032 C2033 1.400 . S
C2033 C2027 1.491 . S
C2033 C2032 1.400 . S
C2033 C2034 1.398 . S
C2034 H2022 0.950 . S
C2034 C2033 1.398 . S
C2034 C2035 1.391 . S
C2035 H2023 0.950 . S
C2035 C2031 1.393 . S
C2035 C2034 1.391 . S
H2036 C2044 0.950 . S
H2037 C2049 0.950 . S
H2038 C2046 0.950 . S
H2039 C2048 0.950 . S
H2040 C2050 0.950 1_455 S
H2041 C2052 0.950 . S
H2042 C2054 0.950 . S
H2043 C2055 0.950 . S
C2044 H2036 0.950 . S
C2044 C2045 1.386 . S
C2044 C2046 1.391 . S
C2045 C2044 1.386 . S
C2045 C2049 1.393 . S
C2046 H2038 0.950 . S
C2046 C2044 1.391 . S
C2046 C2047 1.400 . S
C2047 C2046 1.400 . S
C2047 C2048 1.398 . S
C2047 C2053 1.491 . S
C2048 H2039 0.950 . S
C2048 C2047 1.398 . S
C2048 C2049 1.391 . S
C2049 H2037 0.950 . S
C2049 C2045 1.393 . S
C2049 C2048 1.391 . S
C2050 H2040 0.950 1_655 S
C2050 C2051 1.386 . S
C2050 C2052 1.391 . S
C2051 C2050 1.386 . S
C2051 C2055 1.393 . S
C2052 H2041 0.950 . S
C2052 C2050 1.391 . S
C2052 C2053 1.400 . S
C2053 C2047 1.491 . S
C2053 C2052 1.400 . S
C2053 C2054 1.398 . S
C2054 H2042 0.950 . S
C2054 C2053 1.398 . S
C2054 C2055 1.391 . S
C2055 H2043 0.950 . S
C2055 C2051 1.393 . S
C2055 C2054 1.391 . S
H2056 C2064 0.950 . S
H2057 C2069 0.950 . S
H2058 C2066 0.950 . S
H2059 C2068 0.950 . S
H2060 C2070 0.950 . S
H2061 C2072 0.950 . S
H2062 C2074 0.950 . S
H2063 C2075 0.950 . S
C2064 H2056 0.950 . S
C2064 C2065 1.386 . S
C2064 C2066 1.391 . S
C2065 C2064 1.386 . S
C2065 C2069 1.393 . S
C2066 H2058 0.950 . S
C2066 C2064 1.391 . S
C2066 C2067 1.400 . S
C2067 C2066 1.400 . S
C2067 C2068 1.398 . S
C2067 C2073 1.491 . S
C2068 H2059 0.950 . S
C2068 C2067 1.398 . S
C2068 C2069 1.391 . S
C2069 H2057 0.950 . S
C2069 C2065 1.393 . S
C2069 C2068 1.391 . S
C2070 H2060 0.950 . S
C2070 C2071 1.386 . S
C2070 C2072 1.391 . S
C2071 C2070 1.386 . S
C2071 C2075 1.393 . S
C2072 H2061 0.950 . S
C2072 C2070 1.391 . S
C2072 C2073 1.400 . S
C2073 C2067 1.491 . S
C2073 C2072 1.400 . S
C2073 C2074 1.398 . S
C2074 H2062 0.950 . S
C2074 C2073 1.398 . S
C2074 C2075 1.391 . S
C2075 H2063 0.950 . S
C2075 C2071 1.393 . S
C2075 C2074 1.391 . S
H2076 C2084 0.950 . S
H2077 C2089 0.950 . S
H2078 C2086 0.950 . S
H2079 C2088 0.950 . S
H2080 C2090 0.950 . S
H2081 C2092 0.950 . S
H2082 C2094 0.950 . S
H2083 C2095 0.950 . S
C2084 H2076 0.950 . S
C2084 C2085 1.386 . S
C2084 C2086 1.391 . S
C2085 C2084 1.386 . S
C2085 C2089 1.393 . S
C2086 H2078 0.950 . S
C2086 C2084 1.391 . S
C2086 C2087 1.400 . S
C2087 C2086 1.400 . S
C2087 C2088 1.398 . S
C2087 C2093 1.491 . S
C2088 H2079 0.950 . S
C2088 C2087 1.398 . S
C2088 C2089 1.391 . S
C2089 H2077 0.950 . S
C2089 C2085 1.393 . S
C2089 C2088 1.391 . S
C2090 H2080 0.950 . S
C2090 C2091 1.386 . S
C2090 C2092 1.391 . S
C2091 C2090 1.386 . S
C2091 C2095 1.393 . S
C2092 H2081 0.950 . S
C2092 C2090 1.391 . S
C2092 C2093 1.400 . S
C2093 C2087 1.491 . S
C2093 C2092 1.400 . S
C2093 C2094 1.398 . S
C2094 H2082 0.950 . S
C2094 C2093 1.398 . S
C2094 C2095 1.391 . S
C2095 H2083 0.950 . S
C2095 C2091 1.393 . S
C2095 C2094 1.391 . S
H2096 C2104 0.950 . S
H2097 C2109 0.950 . S
H2098 C2106 0.950 . S
H2099 C2108 0.950 . S
H2100 C2110 0.950 . S
H2101 C2112 0.950 . S
H2102 C2114 0.950 . S
H2103 C2115 0.950 . S
C2104 H2096 0.950 . S
C2104 C2105 1.386 . S
C2104 C2106 1.391 . S
C2105 C2104 1.386 . S
C2105 C2109 1.393 . S
C2106 H2098 0.950 . S
C2106 C2104 1.391 . S
C2106 C2107 1.400 . S
C2107 C2106 1.400 . S
C2107 C2108 1.398 . S
C2107 C2113 1.491 . S
C2108 H2099 0.950 . S
C2108 C2107 1.398 . S
C2108 C2109 1.391 . S
C2109 H2097 0.950 . S
C2109 C2105 1.393 . S
C2109 C2108 1.391 . S
C2110 H2100 0.950 . S
C2110 C2111 1.386 . S
C2110 C2112 1.391 . S
C2111 C2110 1.386 . S
C2111 C2115 1.393 . S
C2112 H2101 0.950 . S
C2112 C2110 1.391 . S
C2112 C2113 1.400 . S
C2113 C2107 1.491 . S
C2113 C2112 1.400 . S
C2113 C2114 1.398 . S
C2114 H2102 0.950 . S
C2114 C2113 1.398 . S
C2114 C2115 1.391 . S
C2115 H2103 0.950 . S
C2115 C2111 1.393 . S
C2115 C2114 1.391 . S
H2116 C2124 0.950 . S
H2117 C2129 0.950 . S
H2118 C2126 0.950 . S
H2119 C2128 0.950 . S
H2120 C2130 0.950 . S
H2121 C2132 0.950 . S
H2122 C2134 0.950 . S
H2123 C2135 0.950 . S
C2124 H2116 0.950 . S
C2124 C2125 1.386 . S
C2124 C2126 1.391 . S
C2125 C2124 1.386 . S
C2125 C2129 1.393 . S
C2126 H2118 0.950 . S
C2126 C2124 1.391 . S
C2126 C2127 1.400 . S
C2127 C2126 1.400 . S
C2127 C2128 1.398 . S
C2127 C2133 1.491 . S
C2128 H2119 0.950 . S
C2128 C2127 1.398 . S
C2128 C2129 1.391 . S
C2129 H2117 0.950 . S
C2129 C2125 1.393 . S
C2129 C2128 1.391 . S
C2130 H2120 0.950 . S
C2130 C2131 1.386 . S
C2130 C2132 1.391 . S
C2131 C2130 1.386 . S
C2131 C2135 1.393 . S
C2132 H2121 0.950 . S
C2132 C2130 1.391 . S
C2132 C2133 1.400 . S
C2133 C2127 1.491 . S
C2133 C2132 1.400 . S
C2133 C2134 1.398 . S
C2134 H2122 0.950 . S
C2134 C2133 1.398 . S
C2134 C2135 1.391 . S
C2135 H2123 0.950 . S
C2135 C2131 1.393 . S
C2135 C2134 1.391 . S
H2136 C2144 0.950 . S
H2137 C2149 0.950 . S
H2138 C2146 0.950 . S
H2139 C2148 0.950 . S
H2140 C2150 0.950 . S
H2141 C2152 0.950 . S
H2142 C2154 0.950 . S
H2143 C2155 0.950 . S
C2144 H2136 0.950 . S
C2144 C2145 1.386 . S
C2144 C2146 1.391 . S
C2145 C2144 1.386 . S
C2145 C2149 1.393 . S
C2146 H2138 0.950 . S
C2146 C2144 1.391 . S
C2146 C2147 1.400 . S
C2147 C2146 1.400 . S
C2147 C2148 1.398 . S
C2147 C2153 1.491 . S
C2148 H2139 0.950 . S
C2148 C2147 1.398 . S
C2148 C2149 1.391 . S
C2149 H2137 0.950 . S
C2149 C2145 1.393 . S
C2149 C2148 1.391 . S
C2150 H2140 0.950 . S
C2150 C2151 1.386 . S
C2150 C2152 1.391 . S
C2151 C2150 1.386 . S
C2151 C2155 1.393 . S
C2152 H2141 0.950 . S
C2152 C2150 1.391 . S
C2152 C2153 1.400 . S
C2153 C2147 1.491 . S
C2153 C2152 1.400 . S
C2153 C2154 1.398 . S
C2154 H2142 0.950 . S
C2154 C2153 1.398 . S
C2154 C2155 1.391 . S
C2155 H2143 0.950 . S
C2155 C2151 1.393 . S
C2155 C2154 1.391 . S
H2156 C2164 0.950 . S
H2157 C2169 0.950 . S
H2158 C2166 0.950 . S
H2159 C2168 0.950 . S
H2160 C2170 0.950 . S
H2161 C2172 0.950 . S
H2162 C2174 0.950 . S
H2163 C2175 0.950 . S
C2164 H2156 0.950 . S
C2164 C2165 1.386 . S
C2164 C2166 1.391 . S
C2165 C2164 1.386 . S
C2165 C2169 1.393 . S
C2166 H2158 0.950 . S
C2166 C2164 1.391 . S
C2166 C2167 1.400 . S
C2167 C2166 1.400 . S
C2167 C2168 1.398 . S
C2167 C2173 1.491 . S
C2168 H2159 0.950 . S
C2168 C2167 1.398 . S
C2168 C2169 1.391 . S
C2169 H2157 0.950 . S
C2169 C2165 1.393 . S
C2169 C2168 1.391 . S
C2170 H2160 0.950 . S
C2170 C2171 1.386 . S
C2170 C2172 1.391 . S
C2171 C2170 1.386 . S
C2171 C2175 1.393 . S
C2172 H2161 0.950 . S
C2172 C2170 1.391 . S
C2172 C2173 1.400 . S
C2173 C2167 1.491 . S
C2173 C2172 1.400 . S
C2173 C2174 1.398 . S
C2174 H2162 0.950 . S
C2174 C2173 1.398 . S
C2174 C2175 1.391 . S
C2175 H2163 0.950 . S
C2175 C2171 1.393 . S
C2175 C2174 1.391 . S
H2176 C2184 0.950 . S
H2177 C2189 0.950 . S
H2178 C2186 0.950 . S
H2179 C2188 0.950 . S
H2180 C2190 0.950 . S
H2181 C2192 0.950 . S
H2182 C2194 0.950 . S
H2183 C2195 0.950 . S
C2184 H2176 0.950 . S
C2184 C2185 1.386 . S
C2184 C2186 1.391 . S
C2185 C2184 1.386 . S
C2185 C2189 1.393 . S
C2186 H2178 0.950 . S
C2186 C2184 1.391 . S
C2186 C2187 1.400 . S
C2187 C2186 1.400 . S
C2187 C2188 1.398 . S
C2187 C2193 1.491 . S
C2188 H2179 0.950 . S
C2188 C2187 1.398 . S
C2188 C2189 1.391 . S
C2189 H2177 0.950 . S
C2189 C2185 1.393 . S
C2189 C2188 1.391 . S
C2190 H2180 0.950 . S
C2190 C2191 1.386 . S
C2190 C2192 1.391 . S
C2191 C2190 1.386 . S
C2191 C2195 1.393 . S
C2192 H2181 0.950 . S
C2192 C2190 1.391 . S
C2192 C2193 1.400 . S
C2193 C2187 1.491 . S
C2193 C2192 1.400 . S
C2193 C2194 1.398 . S
C2194 H2182 0.950 . S
C2194 C2193 1.398 . S
C2194 C2195 1.391 . S
C2195 H2183 0.950 . S
C2195 C2191 1.393 . S
C2195 C2194 1.391 . S
H2196 C2204 0.950 . S
H2197 C2209 0.950 . S
H2198 C2206 0.950 . S
H2199 C2208 0.950 . S
H2200 C2210 0.950 . S
H2201 C2212 0.950 . S
H2202 C2214 0.950 . S
H2203 C2215 0.950 . S
C2204 H2196 0.950 . S
C2204 C2205 1.386 . S
C2204 C2206 1.391 . S
C2205 C2204 1.386 . S
C2205 C2209 1.393 . S
C2206 H2198 0.950 . S
C2206 C2204 1.391 . S
C2206 C2207 1.400 . S
C2207 C2206 1.400 . S
C2207 C2208 1.398 . S
C2207 C2213 1.491 . S
C2208 H2199 0.950 . S
C2208 C2207 1.398 . S
C2208 C2209 1.391 . S
C2209 H2197 0.950 . S
C2209 C2205 1.393 . S
C2209 C2208 1.391 . S
C2210 H2200 0.950 . S
C2210 C2211 1.386 . S
C2210 C2212 1.391 . S
C2211 C2210 1.386 . S
C2211 C2215 1.393 . S
C2212 H2201 0.950 . S
C2212 C2210 1.391 . S
C2212 C2213 1.400 . S
C2213 C2207 1.491 . S
C2213 C2212 1.400 . S
C2213 C2214 1.398 . S
C2214 H2202 0.950 . S
C2214 C2213 1.398 . S
C2214 C2215 1.391 . S
C2215 H2203 0.950 . S
C2215 C2211 1.393 . S
C2215 C2214 1.391 . S
H2216 C2224 0.950 . S
H2217 C2229 0.950 . S
H2218 C2226 0.950 . S
H2219 C2228 0.950 . S
H2220 C2230 0.950 . S
H2221 C2232 0.950 . S
H2222 C2234 0.950 . S
H2223 C2235 0.950 . S
C2224 H2216 0.950 . S
C2224 C2225 1.386 . S
C2224 C2226 1.391 . S
C2225 C2224 1.386 . S
C2225 C2229 1.393 . S
C2226 H2218 0.950 . S
C2226 C2224 1.391 . S
C2226 C2227 1.400 . S
C2227 C2226 1.400 . S
C2227 C2228 1.398 . S
C2227 C2233 1.491 . S
C2228 H2219 0.950 . S
C2228 C2227 1.398 . S
C2228 C2229 1.391 . S
C2229 H2217 0.950 . S
C2229 C2225 1.393 . S
C2229 C2228 1.391 . S
C2230 H2220 0.950 . S
C2230 C2231 1.386 . S
C2230 C2232 1.391 . S
C2231 C2230 1.386 . S
C2231 C2235 1.393 . S
C2232 H2221 0.950 . S
C2232 C2230 1.391 . S
C2232 C2233 1.400 . S
C2233 C2227 1.491 . S
C2233 C2232 1.400 . S
C2233 C2234 1.398 . S
C2234 H2222 0.950 . S
C2234 C2233 1.398 . S
C2234 C2235 1.391 . S
C2235 H2223 0.950 . S
C2235 C2231 1.393 . S
C2235 C2234 1.391 . S
H2236 C2244 0.950 . S
H2237 C2249 0.950 . S
H2238 C2246 0.950 . S
H2239 C2248 0.950 . S
H2240 C2250 0.950 . S
H2241 C2252 0.950 . S
H2242 C2254 0.950 . S
H2243 C2255 0.950 . S
C2244 H2236 0.950 . S
C2244 C2245 1.386 . S
C2244 C2246 1.391 . S
C2245 C2244 1.386 . S
C2245 C2249 1.393 . S
C2246 H2238 0.950 . S
C2246 C2244 1.391 . S
C2246 C2247 1.400 . S
C2247 C2246 1.400 . S
C2247 C2248 1.398 . S
C2247 C2253 1.491 . S
C2248 H2239 0.950 . S
C2248 C2247 1.398 . S
C2248 C2249 1.391 . S
C2249 H2237 0.950 . S
C2249 C2245 1.393 . S
C2249 C2248 1.391 . S
C2250 H2240 0.950 . S
C2250 C2251 1.386 . S
C2250 C2252 1.391 . S
C2251 C2250 1.386 . S
C2251 C2255 1.393 . S
C2252 H2241 0.950 . S
C2252 C2250 1.391 . S
C2252 C2253 1.400 . S
C2253 C2247 1.491 . S
C2253 C2252 1.400 . S
C2253 C2254 1.398 . S
C2254 H2242 0.950 . S
C2254 C2253 1.398 . S
C2254 C2255 1.391 . S
C2255 H2243 0.950 . S
C2255 C2251 1.393 . S
C2255 C2254 1.391 . S
H2256 C2264 0.950 . S
H2257 C2269 0.950 . S
H2258 C2266 0.950 . S
H2259 C2268 0.950 . S
H2260 C2270 0.950 . S
H2261 C2272 0.950 . S
H2262 C2274 0.950 . S
H2263 C2275 0.950 1_554 S
C2264 H2256 0.950 . S
C2264 C2265 1.386 . S
C2264 C2266 1.391 . S
C2265 C2264 1.386 . S
C2265 C2269 1.393 . S
C2266 H2258 0.950 . S
C2266 C2264 1.391 . S
C2266 C2267 1.400 . S
C2267 C2266 1.400 . S
C2267 C2268 1.398 . S
C2267 C2273 1.491 . S
C2268 H2259 0.950 . S
C2268 C2267 1.398 . S
C2268 C2269 1.391 . S
C2269 H2257 0.950 . S
C2269 C2265 1.393 . S
C2269 C2268 1.391 . S
C2270 H2260 0.950 . S
C2270 C2271 1.386 . S
C2270 C2272 1.391 . S
C2271 C2270 1.386 . S
C2271 C2275 1.393 . S
C2272 H2261 0.950 . S
C2272 C2270 1.391 . S
C2272 C2273 1.400 . S
C2273 C2267 1.491 . S
C2273 C2272 1.400 . S
C2273 C2274 1.398 . S
C2274 H2262 0.950 . S
C2274 C2273 1.398 . S
C2274 C2275 1.391 . S
C2275 H2263 0.950 1_556 S
C2275 C2271 1.393 . S
C2275 C2274 1.391 . S
H2276 C2284 0.950 . S
H2277 C2289 0.950 . S
H2278 C2286 0.950 . S
H2279 C2288 0.950 . S
H2280 C2290 0.950 . S
H2281 C2292 0.950 . S
H2282 C2294 0.950 . S
H2283 C2295 0.950 . S
C2284 H2276 0.950 . S
C2284 C2285 1.386 . S
C2284 C2286 1.391 . S
C2285 C2284 1.386 . S
C2285 C2289 1.393 . S
C2286 H2278 0.950 . S
C2286 C2284 1.391 . S
C2286 C2287 1.400 . S
C2287 C2286 1.400 . S
C2287 C2288 1.398 . S
C2287 C2293 1.491 . S
C2288 H2279 0.950 . S
C2288 C2287 1.398 . S
C2288 C2289 1.391 . S
C2289 H2277 0.950 . S
C2289 C2285 1.393 . S
C2289 C2288 1.391 . S
C2290 H2280 0.950 . S
C2290 C2291 1.386 . S
C2290 C2292 1.391 . S
C2291 C2290 1.386 . S
C2291 C2295 1.393 . S
C2292 H2281 0.950 . S
C2292 C2290 1.391 . S
C2292 C2293 1.400 . S
C2293 C2287 1.491 . S
C2293 C2292 1.400 . S
C2293 C2294 1.398 . S
C2294 H2282 0.950 . S
C2294 C2293 1.398 . S
C2294 C2295 1.391 . S
C2295 H2283 0.950 . S
C2295 C2291 1.393 . S
C2295 C2294 1.391 . S
H2296 C2304 0.945 1_565 S
H2297 C2309 0.950 . S
H2298 C2306 0.950 . S
H2299 C2308 0.950 . S
H2300 C2310 0.950 . S
H2301 C2312 0.950 . S
H2302 C2314 0.950 . S
H2303 C2315 0.950 . S
C2304 H2296 0.945 1_545 S
C2304 C2305 1.386 . S
C2304 C2306 1.391 . S
C2305 C2304 1.386 . S
C2305 C2309 1.393 . S
C2306 H2298 0.950 . S
C2306 C2304 1.391 . S
C2306 C2307 1.400 . S
C2307 C2306 1.400 . S
C2307 C2308 1.398 . S
C2307 C2313 1.491 . S
C2308 H2299 0.950 . S
C2308 C2307 1.398 . S
C2308 C2309 1.391 . S
C2309 H2297 0.950 . S
C2309 C2305 1.393 . S
C2309 C2308 1.391 . S
C2310 H2300 0.950 . S
C2310 C2311 1.386 . S
C2310 C2312 1.391 . S
C2311 C2310 1.386 . S
C2311 C2315 1.393 . S
C2312 H2301 0.950 . S
C2312 C2310 1.391 . S
C2312 C2313 1.400 . S
C2313 C2307 1.491 . S
C2313 C2312 1.400 . S
C2313 C2314 1.398 . S
C2314 H2302 0.950 . S
C2314 C2313 1.398 . S
C2314 C2315 1.391 . S
C2315 H2303 0.950 . S
C2315 C2311 1.393 . S
C2315 C2314 1.391 . S
H2316 C2324 0.950 . S
H2317 C2329 0.950 . S
H2318 C2326 0.950 . S
H2319 C2328 0.950 . S
H2320 C2330 0.950 . S
H2321 C2332 0.950 . S
H2322 C2334 0.950 . S
H2323 C2335 0.950 . S
C2324 H2316 0.950 . S
C2324 C2325 1.386 . S
C2324 C2326 1.391 . S
C2325 C2324 1.386 . S
C2325 C2329 1.393 . S
C2326 H2318 0.950 . S
C2326 C2324 1.391 . S
C2326 C2327 1.400 . S
C2327 C2326 1.400 . S
C2327 C2328 1.398 . S
C2327 C2333 1.491 . S
C2328 H2319 0.950 . S
C2328 C2327 1.398 . S
C2328 C2329 1.391 . S
C2329 H2317 0.950 . S
C2329 C2325 1.393 . S
C2329 C2328 1.391 . S
C2330 H2320 0.950 . S
C2330 C2331 1.386 . S
C2330 C2332 1.391 . S
C2331 C2330 1.386 . S
C2331 C2335 1.393 . S
C2332 H2321 0.950 . S
C2332 C2330 1.391 . S
C2332 C2333 1.400 . S
C2333 C2327 1.491 . S
C2333 C2332 1.400 . S
C2333 C2334 1.398 . S
C2334 H2322 0.950 . S
C2334 C2333 1.398 . S
C2334 C2335 1.391 . S
C2335 H2323 0.950 . S
C2335 C2331 1.393 . S
C2335 C2334 1.391 . S
H2336 C2344 0.950 . S
H2337 C2349 0.950 1_565 S
H2338 C2346 0.950 . S
H2339 C2348 0.950 1_565 S
H2340 C2350 0.950 1_565 S
H2341 C2352 0.950 1_565 S
H2342 C2354 0.950 . S
H2343 C2355 0.950 . S
C2344 H2336 0.950 . S
C2344 C2345 1.386 . S
C2344 C2346 1.391 . S
C2345 C2344 1.386 . S
C2345 C2349 1.393 . S
C2346 H2338 0.950 . S
C2346 C2344 1.391 . S
C2346 C2347 1.400 . S
C2347 C2346 1.400 . S
C2347 C2348 1.398 . S
C2347 C2353 1.491 . S
C2348 H2339 0.950 1_545 S
C2348 C2347 1.398 . S
C2348 C2349 1.391 . S
C2349 H2337 0.950 1_545 S
C2349 C2345 1.393 . S
C2349 C2348 1.391 . S
C2350 H2340 0.950 1_545 S
C2350 C2351 1.386 . S
C2350 C2352 1.391 . S
C2351 C2350 1.386 . S
C2351 C2355 1.393 . S
C2352 H2341 0.950 1_545 S
C2352 C2350 1.391 . S
C2352 C2353 1.400 . S
C2353 C2347 1.491 . S
C2353 C2352 1.400 . S
C2353 C2354 1.398 . S
C2354 H2342 0.950 . S
C2354 C2353 1.398 . S
C2354 C2355 1.391 . S
C2355 H2343 0.950 . S
C2355 C2351 1.393 . S
C2355 C2354 1.391 . S
H2356 C2364 0.950 . S
H2357 C2369 0.950 . S
H2358 C2366 0.950 . S
H2359 C2368 0.950 . S
H2360 C2370 0.950 . S
H2361 C2372 0.950 . S
H2362 C2374 0.950 . S
H2363 C2375 0.950 . S
C2364 H2356 0.950 . S
C2364 C2365 1.386 . S
C2364 C2366 1.391 . S
C2365 C2364 1.386 . S
C2365 C2369 1.393 . S
C2366 H2358 0.950 . S
C2366 C2364 1.391 . S
C2366 C2367 1.400 . S
C2367 C2366 1.400 . S
C2367 C2368 1.398 . S
C2367 C2373 1.491 . S
C2368 H2359 0.950 . S
C2368 C2367 1.398 . S
C2368 C2369 1.391 . S
C2369 H2357 0.950 . S
C2369 C2365 1.393 . S
C2369 C2368 1.391 . S
C2370 H2360 0.950 . S
C2370 C2371 1.386 . S
C2370 C2372 1.391 . S
C2371 C2370 1.386 . S
C2371 C2375 1.393 . S
C2372 H2361 0.950 . S
C2372 C2370 1.391 . S
C2372 C2373 1.400 . S
C2373 C2367 1.491 . S
C2373 C2372 1.400 . S
C2373 C2374 1.398 . S
C2374 H2362 0.950 . S
C2374 C2373 1.398 . S
C2374 C2375 1.391 . S
C2375 H2363 0.950 . S
C2375 C2371 1.393 . S
C2375 C2374 1.391 . S
H2376 C2384 0.950 . S
H2377 C2389 0.950 . S
H2378 C2386 0.950 . S
H2379 C2388 0.950 . S
H2380 C2390 0.950 . S
H2381 C2392 0.950 . S
H2382 C2394 0.950 . S
H2383 C2395 0.950 . S
C2384 H2376 0.950 . S
C2384 C2385 1.386 1_545 S
C2384 C2386 1.391 . S
C2385 C2384 1.386 1_565 S
C2385 C2389 1.393 . S
C2386 H2378 0.950 . S
C2386 C2384 1.391 . S
C2386 C2387 1.401 . S
C2387 C2386 1.401 . S
C2387 C2388 1.397 1_545 S
C2387 C2393 1.491 . S
C2388 H2379 0.950 . S
C2388 C2387 1.397 1_565 S
C2388 C2389 1.391 . S
C2389 H2377 0.950 . S
C2389 C2385 1.393 . S
C2389 C2388 1.391 . S
C2390 H2380 0.950 . S
C2390 C2391 1.386 1_565 S
C2390 C2392 1.391 . S
C2391 C2390 1.386 1_545 S
C2391 C2395 1.393 . S
C2392 H2381 0.950 . S
C2392 C2390 1.391 . S
C2392 C2393 1.400 1_565 S
C2393 C2387 1.491 . S
C2393 C2392 1.400 1_545 S
C2393 C2394 1.398 . S
C2394 H2382 0.950 . S
C2394 C2393 1.398 . S
C2394 C2395 1.391 . S
C2395 H2383 0.950 . S
C2395 C2391 1.393 . S
C2395 C2394 1.391 . S
H2396 C2404 0.950 . S
H2397 C2409 0.950 . S
H2398 C2406 0.950 . S
H2399 C2408 0.950 . S
H2400 C2410 0.950 . S
H2401 C2412 0.950 . S
H2402 C2414 0.950 . S
H2403 C2415 0.950 . S
C2404 H2396 0.950 . S
C2404 C2405 1.386 . S
C2404 C2406 1.391 . S
C2405 C2404 1.386 . S
C2405 C2409 1.393 . S
C2406 H2398 0.950 . S
C2406 C2404 1.391 . S
C2406 C2407 1.400 . S
C2407 C2406 1.400 . S
C2407 C2408 1.398 . S
C2407 C2413 1.491 . S
C2408 H2399 0.950 . S
C2408 C2407 1.398 . S
C2408 C2409 1.391 . S
C2409 H2397 0.950 . S
C2409 C2405 1.393 . S
C2409 C2408 1.391 . S
C2410 H2400 0.950 . S
C2410 C2411 1.386 . S
C2410 C2412 1.391 . S
C2411 C2410 1.386 . S
C2411 C2415 1.393 . S
C2412 H2401 0.950 . S
C2412 C2410 1.391 . S
C2412 C2413 1.400 . S
C2413 C2407 1.491 . S
C2413 C2412 1.400 . S
C2413 C2414 1.398 . S
C2414 H2402 0.950 . S
C2414 C2413 1.398 . S
C2414 C2415 1.391 . S
C2415 H2403 0.950 . S
C2415 C2411 1.393 . S
C2415 C2414 1.391 . S
H2416 C2424 0.950 . S
H2417 C2429 0.950 . S
H2418 C2426 0.950 . S
H2419 C2428 0.951 1_565 S
H2420 C2430 0.950 1_565 S
H2421 C2432 0.950 1_565 S
H2422 C2434 0.950 . S
H2423 C2435 0.950 . S
C2424 H2416 0.950 . S
C2424 C2425 1.386 . S
C2424 C2426 1.391 . S
C2425 C2424 1.386 . S
C2425 C2429 1.393 1_545 S
C2426 H2418 0.950 . S
C2426 C2424 1.391 . S
C2426 C2427 1.400 . S
C2427 C2426 1.400 . S
C2427 C2428 1.397 . S
C2427 C2433 1.491 . S
C2428 H2419 0.951 1_545 S
C2428 C2427 1.397 . S
C2428 C2429 1.391 1_545 S
C2429 H2417 0.950 . S
C2429 C2425 1.393 1_565 S
C2429 C2428 1.391 1_565 S
C2430 H2420 0.950 1_545 S
C2430 C2431 1.386 . S
C2430 C2432 1.391 . S
C2431 C2430 1.386 . S
C2431 C2435 1.393 . S
C2432 H2421 0.950 1_545 S
C2432 C2430 1.391 . S
C2432 C2433 1.400 . S
C2433 C2427 1.491 . S
C2433 C2432 1.400 . S
C2433 C2434 1.398 . S
C2434 H2422 0.950 . S
C2434 C2433 1.398 . S
C2434 C2435 1.391 . S
C2435 H2423 0.950 . S
C2435 C2431 1.393 . S
C2435 C2434 1.391 . S
H2436 C2444 0.950 . S
H2437 C2449 0.950 . S
H2438 C2446 0.950 . S
H2439 C2448 0.950 . S
H2440 C2450 0.950 . S
H2441 C2452 0.950 . S
H2442 C2454 0.950 . S
H2443 C2455 0.950 . S
C2444 H2436 0.950 . S
C2444 C2445 1.386 . S
C2444 C2446 1.391 . S
C2445 C2444 1.386 . S
C2445 C2449 1.393 . S
C2446 H2438 0.950 . S
C2446 C2444 1.391 . S
C2446 C2447 1.400 . S
C2447 C2446 1.400 . S
C2447 C2448 1.398 . S
C2447 C2453 1.491 . S
C2448 H2439 0.950 . S
C2448 C2447 1.398 . S
C2448 C2449 1.391 . S
C2449 H2437 0.950 . S
C2449 C2445 1.393 . S
C2449 C2448 1.391 . S
C2450 H2440 0.950 . S
C2450 C2451 1.386 . S
C2450 C2452 1.391 . S
C2451 C2450 1.386 . S
C2451 C2455 1.393 . S
C2452 H2441 0.950 . S
C2452 C2450 1.391 . S
C2452 C2453 1.400 . S
C2453 C2447 1.491 . S
C2453 C2452 1.400 . S
C2453 C2454 1.398 . S
C2454 H2442 0.950 . S
C2454 C2453 1.398 . S
C2454 C2455 1.391 . S
C2455 H2443 0.950 . S
C2455 C2451 1.393 . S
C2455 C2454 1.391 . S
H2456 C2464 0.950 . S
H2457 C2469 0.950 . S
H2458 C2466 0.950 . S
H2459 C2468 0.950 . S
H2460 C2470 0.950 . S
H2461 C2472 0.950 . S
H2462 C2474 0.950 1_556 S
H2463 C2475 0.950 1_556 S
C2464 H2456 0.950 . S
C2464 C2465 1.386 . S
C2464 C2466 1.391 . S
C2465 C2464 1.386 . S
C2465 C2469 1.393 . S
C2466 H2458 0.950 . S
C2466 C2464 1.391 . S
C2466 C2467 1.400 . S
C2467 C2466 1.400 . S
C2467 C2468 1.398 . S
C2467 C2473 1.491 . S
C2468 H2459 0.950 . S
C2468 C2467 1.398 . S
C2468 C2469 1.391 . S
C2469 H2457 0.950 . S
C2469 C2465 1.393 . S
C2469 C2468 1.391 . S
C2470 H2460 0.950 . S
C2470 C2471 1.386 . S
C2470 C2472 1.391 . S
C2471 C2470 1.386 . S
C2471 C2475 1.393 . S
C2472 H2461 0.950 . S
C2472 C2470 1.391 . S
C2472 C2473 1.400 . S
C2473 C2467 1.491 . S
C2473 C2472 1.400 . S
C2473 C2474 1.398 . S
C2474 H2462 0.950 1_554 S
C2474 C2473 1.398 . S
C2474 C2475 1.391 . S
C2475 H2463 0.950 1_554 S
C2475 C2471 1.393 . S
C2475 C2474 1.391 . S
H2476 C2484 0.950 . S
H2477 C2489 0.950 . S
H2478 C2486 0.950 . S
H2479 C2488 0.950 . S
H2480 C2490 0.920 1_556 S
H2481 C2492 0.950 . S
H2482 C2494 0.950 . S
H2483 C2495 0.950 . S
C2484 H2476 0.950 . S
C2484 C2485 1.386 . S
C2484 C2486 1.391 . S
C2485 C2484 1.386 . S
C2485 C2489 1.393 . S
C2486 H2478 0.950 . S
C2486 C2484 1.391 . S
C2486 C2487 1.400 . S
C2487 C2486 1.400 . S
C2487 C2488 1.398 . S
C2487 C2493 1.491 . S
C2488 H2479 0.950 . S
C2488 C2487 1.398 . S
C2488 C2489 1.391 . S
C2489 H2477 0.950 . S
C2489 C2485 1.393 . S
C2489 C2488 1.391 . S
C2490 H2480 0.920 1_554 S
C2490 C2491 1.386 . S
C2490 C2492 1.391 . S
C2491 C2490 1.386 . S
C2491 C2495 1.393 . S
C2492 H2481 0.950 . S
C2492 C2490 1.391 . S
C2492 C2493 1.400 . S
C2493 C2487 1.491 . S
C2493 C2492 1.400 . S
C2493 C2494 1.398 . S
C2494 H2482 0.950 . S
C2494 C2493 1.398 . S
C2494 C2495 1.391 . S
C2495 H2483 0.950 . S
C2495 C2491 1.393 . S
C2495 C2494 1.391 . S
H2496 C2504 0.950 . S
H2497 C2509 0.950 . S
H2498 C2506 0.950 . S
H2499 C2508 0.950 . S
H2500 C2510 0.950 . S
H2501 C2512 0.950 . S
H2502 C2514 0.950 . S
H2503 C2515 0.950 . S
C2504 H2496 0.950 . S
C2504 C2505 1.386 . S
C2504 C2506 1.391 . S
C2505 C2504 1.386 . S
C2505 C2509 1.393 . S
C2506 H2498 0.950 . S
C2506 C2504 1.391 . S
C2506 C2507 1.400 . S
C2507 C2506 1.400 . S
C2507 C2508 1.398 . S
C2507 C2513 1.491 . S
C2508 H2499 0.950 . S
C2508 C2507 1.398 . S
C2508 C2509 1.391 . S
C2509 H2497 0.950 . S
C2509 C2505 1.393 . S
C2509 C2508 1.391 . S
C2510 H2500 0.950 . S
C2510 C2511 1.386 . S
C2510 C2512 1.391 . S
C2511 C2510 1.386 . S
C2511 C2515 1.393 . S
C2512 H2501 0.950 . S
C2512 C2510 1.391 . S
C2512 C2513 1.400 . S
C2513 C2507 1.491 . S
C2513 C2512 1.400 . S
C2513 C2514 1.398 . S
C2514 H2502 0.950 . S
C2514 C2513 1.398 . S
C2514 C2515 1.391 . S
C2515 H2503 0.950 . S
C2515 C2511 1.393 . S
C2515 C2514 1.391 . S
H2516 C2524 0.950 . S
H2517 C2529 0.950 . S
H2518 C2526 0.950 . S
H2519 C2528 0.950 . S
H2520 C2530 0.950 . S
H2521 C2532 0.950 . S
H2522 C2534 0.950 . S
H2523 C2535 0.950 . S
C2524 H2516 0.950 . S
C2524 C2525 1.386 . S
C2524 C2526 1.391 . S
C2525 C2524 1.386 . S
C2525 C2529 1.393 . S
C2526 H2518 0.950 . S
C2526 C2524 1.391 . S
C2526 C2527 1.400 . S
C2527 C2526 1.400 . S
C2527 C2528 1.398 . S
C2527 C2533 1.491 . S
C2528 H2519 0.950 . S
C2528 C2527 1.398 . S
C2528 C2529 1.391 . S
C2529 H2517 0.950 . S
C2529 C2525 1.393 . S
C2529 C2528 1.391 . S
C2530 H2520 0.950 . S
C2530 C2531 1.386 . S
C2530 C2532 1.391 . S
C2531 C2530 1.386 . S
C2531 C2535 1.393 . S
C2532 H2521 0.950 . S
C2532 C2530 1.391 . S
C2532 C2533 1.400 . S
C2533 C2527 1.491 . S
C2533 C2532 1.400 . S
C2533 C2534 1.398 . S
C2534 H2522 0.950 . S
C2534 C2533 1.398 . S
C2534 C2535 1.391 . S
C2535 H2523 0.950 . S
C2535 C2531 1.393 . S
C2535 C2534 1.391 . S
H2536 C2544 0.950 1_545 S
H2537 C2549 0.950 . S
H2538 C2546 0.950 . S
H2539 C2548 0.950 . S
H2540 C2550 0.950 . S
H2541 C2552 0.950 . S
H2542 C2554 0.950 . S
H2543 C2555 0.950 . S
C2544 H2536 0.950 1_565 S
C2544 C2545 1.386 . S
C2544 C2546 1.391 . S
C2545 C2544 1.386 . S
C2545 C2549 1.393 . S
C2546 H2538 0.950 . S
C2546 C2544 1.391 . S
C2546 C2547 1.400 . S
C2547 C2546 1.400 . S
C2547 C2548 1.398 . S
C2547 C2553 1.491 . S
C2548 H2539 0.950 . S
C2548 C2547 1.398 . S
C2548 C2549 1.391 . S
C2549 H2537 0.950 . S
C2549 C2545 1.393 . S
C2549 C2548 1.391 . S
C2550 H2540 0.950 . S
C2550 C2551 1.386 . S
C2550 C2552 1.391 . S
C2551 C2550 1.386 . S
C2551 C2555 1.393 . S
C2552 H2541 0.950 . S
C2552 C2550 1.391 . S
C2552 C2553 1.400 . S
C2553 C2547 1.491 . S
C2553 C2552 1.400 . S
C2553 C2554 1.398 . S
C2554 H2542 0.950 . S
C2554 C2553 1.398 . S
C2554 C2555 1.391 . S
C2555 H2543 0.950 . S
C2555 C2551 1.393 . S
C2555 C2554 1.391 . S
H2556 C2564 0.950 . S
H2557 C2569 0.950 . S
H2558 C2566 0.950 . S
H2559 C2568 0.950 . S
H2560 C2570 0.950 . S
H2561 C2572 0.950 . S
H2562 C2574 0.950 . S
H2563 C2575 0.950 . S
C2564 H2556 0.950 . S
C2564 C2565 1.386 . S
C2564 C2566 1.391 . S
C2565 C2564 1.386 . S
C2565 C2569 1.393 . S
C2566 H2558 0.950 . S
C2566 C2564 1.391 . S
C2566 C2567 1.400 . S
C2567 C2566 1.400 . S
C2567 C2568 1.398 . S
C2567 C2573 1.491 . S
C2568 H2559 0.950 . S
C2568 C2567 1.398 . S
C2568 C2569 1.391 . S
C2569 H2557 0.950 . S
C2569 C2565 1.393 . S
C2569 C2568 1.391 . S
C2570 H2560 0.950 . S
C2570 C2571 1.386 . S
C2570 C2572 1.391 . S
C2571 C2570 1.386 . S
C2571 C2575 1.393 . S
C2572 H2561 0.950 . S
C2572 C2570 1.391 . S
C2572 C2573 1.400 . S
C2573 C2567 1.491 . S
C2573 C2572 1.400 . S
C2573 C2574 1.398 . S
C2574 H2562 0.950 . S
C2574 C2573 1.398 . S
C2574 C2575 1.391 . S
C2575 H2563 0.950 . S
C2575 C2571 1.393 . S
C2575 C2574 1.391 . S
H2576 C2584 0.950 . S
H2577 C2589 0.950 . S
H2578 C2586 0.950 . S
H2579 C2588 0.950 . S
H2580 C2590 0.950 . S
H2581 C2592 0.950 . S
H2582 C2594 0.950 . S
H2583 C2595 0.950 . S
C2584 H2576 0.950 . S
C2584 C2585 1.386 . S
C2584 C2586 1.391 . S
C2585 C2584 1.386 . S
C2585 C2589 1.393 . S
C2586 H2578 0.950 . S
C2586 C2584 1.391 . S
C2586 C2587 1.400 . S
C2587 C2586 1.400 . S
C2587 C2588 1.398 . S
C2587 C2593 1.491 . S
C2588 H2579 0.950 . S
C2588 C2587 1.398 . S
C2588 C2589 1.391 . S
C2589 H2577 0.950 . S
C2589 C2585 1.393 . S
C2589 C2588 1.391 . S
C2590 H2580 0.950 . S
C2590 C2591 1.386 . S
C2590 C2592 1.391 . S
C2591 C2590 1.386 . S
C2591 C2595 1.393 . S
C2592 H2581 0.950 . S
C2592 C2590 1.391 . S
C2592 C2593 1.400 . S
C2593 C2587 1.491 . S
C2593 C2592 1.400 . S
C2593 C2594 1.398 . S
C2594 H2582 0.950 . S
C2594 C2593 1.398 . S
C2594 C2595 1.391 . S
C2595 H2583 0.950 . S
C2595 C2591 1.393 . S
C2595 C2594 1.391 . S
H2596 C2604 0.950 . S
H2597 C2609 0.950 . S
H2598 C2606 0.950 . S
H2599 C2608 0.950 . S
H2600 C2610 0.950 . S
H2601 C2612 0.950 . S
H2602 C2614 0.950 . S
H2603 C2615 0.950 . S
C2604 H2596 0.950 . S
C2604 C2605 1.386 . S
C2604 C2606 1.391 . S
C2605 C2604 1.386 . S
C2605 C2609 1.393 . S
C2606 H2598 0.950 . S
C2606 C2604 1.391 . S
C2606 C2607 1.400 . S
C2607 C2606 1.400 . S
C2607 C2608 1.398 . S
C2607 C2613 1.491 . S
C2608 H2599 0.950 . S
C2608 C2607 1.398 . S
C2608 C2609 1.391 . S
C2609 H2597 0.950 . S
C2609 C2605 1.393 . S
C2609 C2608 1.391 . S
C2610 H2600 0.950 . S
C2610 C2611 1.386 . S
C2610 C2612 1.391 . S
C2611 C2610 1.386 . S
C2611 C2615 1.393 . S
C2612 H2601 0.950 . S
C2612 C2610 1.391 . S
C2612 C2613 1.400 . S
C2613 C2607 1.491 . S
C2613 C2612 1.400 . S
C2613 C2614 1.398 . S
C2614 H2602 0.950 . S
C2614 C2613 1.398 . S
C2614 C2615 1.391 . S
C2615 H2603 0.950 . S
C2615 C2611 1.393 . S
C2615 C2614 1.391 . S
H2616 C2624 0.950 . S
H2617 C2629 0.950 . S
H2618 C2626 0.950 . S
H2619 C2628 0.950 . S
H2620 C2630 0.950 . S
H2621 C2632 0.950 . S
H2622 C2634 0.950 . S
H2623 C2635 0.950 . S
C2624 H2616 0.950 . S
C2624 C2625 1.386 . S
C2624 C2626 1.391 . S
C2625 C2624 1.386 . S
C2625 C2629 1.393 . S
C2626 H2618 0.950 . S
C2626 C2624 1.391 . S
C2626 C2627 1.400 . S
C2627 C2626 1.400 . S
C2627 C2628 1.398 . S
C2627 C2633 1.491 . S
C2628 H2619 0.950 . S
C2628 C2627 1.398 . S
C2628 C2629 1.391 . S
C2629 H2617 0.950 . S
C2629 C2625 1.393 . S
C2629 C2628 1.391 . S
C2630 H2620 0.950 . S
C2630 C2631 1.386 . S
C2630 C2632 1.391 . S
C2631 C2630 1.386 . S
C2631 C2635 1.393 . S
C2632 H2621 0.950 . S
C2632 C2630 1.391 . S
C2632 C2633 1.400 . S
C2633 C2627 1.491 . S
C2633 C2632 1.400 . S
C2633 C2634 1.398 . S
C2634 H2622 0.950 . S
C2634 C2633 1.398 . S
C2634 C2635 1.391 . S
C2635 H2623 0.950 . S
C2635 C2631 1.393 . S
C2635 C2634 1.391 . S
H2636 C2644 0.950 . S
H2637 C2649 0.950 . S
H2638 C2646 0.950 . S
H2639 C2648 0.950 . S
H2640 C2650 0.950 . S
H2641 C2652 0.950 . S
H2642 C2654 0.950 . S
H2643 C2655 0.950 . S
C2644 H2636 0.950 . S
C2644 C2645 1.386 . S
C2644 C2646 1.391 . S
C2645 C2644 1.386 . S
C2645 C2649 1.393 . S
C2646 H2638 0.950 . S
C2646 C2644 1.391 . S
C2646 C2647 1.400 . S
C2647 C2646 1.400 . S
C2647 C2648 1.398 . S
C2647 C2653 1.491 . S
C2648 H2639 0.950 . S
C2648 C2647 1.398 . S
C2648 C2649 1.391 . S
C2649 H2637 0.950 . S
C2649 C2645 1.393 . S
C2649 C2648 1.391 . S
C2650 H2640 0.950 . S
C2650 C2651 1.386 . S
C2650 C2652 1.391 . S
C2651 C2650 1.386 . S
C2651 C2655 1.393 . S
C2652 H2641 0.950 . S
C2652 C2650 1.391 . S
C2652 C2653 1.400 . S
C2653 C2647 1.491 . S
C2653 C2652 1.400 . S
C2653 C2654 1.398 . S
C2654 H2642 0.950 . S
C2654 C2653 1.398 . S
C2654 C2655 1.391 . S
C2655 H2643 0.950 . S
C2655 C2651 1.393 . S
C2655 C2654 1.391 . S
H2656 C2664 0.950 . S
H2657 C2669 0.950 1_554 S
H2658 C2666 0.950 . S
H2659 C2668 0.950 . S
H2660 C2670 0.950 . S
H2661 C2672 0.950 . S
H2662 C2674 0.950 . S
H2663 C2675 0.953 1_556 S
C2664 H2656 0.950 . S
C2664 C2665 1.386 . S
C2664 C2666 1.391 . S
C2665 C2664 1.386 . S
C2665 C2669 1.393 . S
C2666 H2658 0.950 . S
C2666 C2664 1.391 . S
C2666 C2667 1.400 . S
C2667 C2666 1.400 . S
C2667 C2668 1.398 1_556 S
C2667 C2673 1.491 1_556 S
C2668 H2659 0.950 . S
C2668 C2667 1.398 1_554 S
C2668 C2669 1.391 1_554 S
C2669 H2657 0.950 1_556 S
C2669 C2665 1.393 . S
C2669 C2668 1.391 1_556 S
C2670 H2660 0.950 . S
C2670 C2671 1.386 . S
C2670 C2672 1.391 . S
C2671 C2670 1.386 . S
C2671 C2675 1.389 . S
C2672 H2661 0.950 . S
C2672 C2670 1.391 . S
C2672 C2673 1.400 . S
C2673 C2667 1.491 1_554 S
C2673 C2672 1.400 . S
C2673 C2674 1.398 1_554 S
C2674 H2662 0.950 . S
C2674 C2673 1.398 1_556 S
C2674 C2675 1.391 1_556 S
C2675 H2663 0.953 1_554 S
C2675 C2671 1.389 . S
C2675 C2674 1.391 1_554 S
H2676 C2684 0.950 . S
H2677 C2689 0.950 . S
H2678 C2686 0.950 . S
H2679 C2688 0.950 . S
H2680 C2690 0.950 . S
H2681 C2692 0.950 . S
H2682 C2694 0.950 . S
H2683 C2695 0.950 . S
C2684 H2676 0.950 . S
C2684 C2685 1.386 . S
C2684 C2686 1.391 . S
C2685 C2684 1.386 . S
C2685 C2689 1.393 . S
C2686 H2678 0.950 . S
C2686 C2684 1.391 . S
C2686 C2687 1.400 1_455 S
C2687 C2686 1.400 1_655 S
C2687 C2688 1.398 . S
C2687 C2693 1.491 . S
C2688 H2679 0.950 . S
C2688 C2687 1.398 . S
C2688 C2689 1.391 1_655 S
C2689 H2677 0.950 . S
C2689 C2685 1.393 . S
C2689 C2688 1.391 1_455 S
C2690 H2680 0.950 . S
C2690 C2691 1.386 . S
C2690 C2692 1.391 . S
C2691 C2690 1.386 . S
C2691 C2695 1.393 . S
C2692 H2681 0.950 . S
C2692 C2690 1.391 . S
C2692 C2693 1.400 . S
C2693 C2687 1.491 . S
C2693 C2692 1.400 . S
C2693 C2694 1.398 . S
C2694 H2682 0.950 . S
C2694 C2693 1.398 . S
C2694 C2695 1.391 . S
C2695 H2683 0.950 . S
C2695 C2691 1.393 . S
C2695 C2694 1.391 . S
H2696 C2704 0.950 . S
H2697 C2709 0.950 . S
H2698 C2706 0.950 . S
H2699 C2708 0.950 . S
H2700 C2710 0.950 . S
H2701 C2712 0.950 . S
H2702 C2714 0.950 . S
H2703 C2715 0.950 . S
C2704 H2696 0.950 . S
C2704 C2705 1.386 . S
C2704 C2706 1.391 . S
C2705 C2704 1.386 . S
C2705 C2709 1.393 . S
C2706 H2698 0.950 . S
C2706 C2704 1.391 . S
C2706 C2707 1.400 . S
C2707 C2706 1.400 . S
C2707 C2708 1.398 . S
C2707 C2713 1.491 . S
C2708 H2699 0.950 . S
C2708 C2707 1.398 . S
C2708 C2709 1.391 . S
C2709 H2697 0.950 . S
C2709 C2705 1.393 . S
C2709 C2708 1.391 . S
C2710 H2700 0.950 . S
C2710 C2711 1.386 . S
C2710 C2712 1.391 . S
C2711 C2710 1.386 . S
C2711 C2715 1.393 . S
C2712 H2701 0.950 . S
C2712 C2710 1.391 . S
C2712 C2713 1.400 . S
C2713 C2707 1.491 . S
C2713 C2712 1.400 . S
C2713 C2714 1.398 . S
C2714 H2702 0.950 . S
C2714 C2713 1.398 . S
C2714 C2715 1.391 . S
C2715 H2703 0.950 . S
C2715 C2711 1.393 . S
C2715 C2714 1.391 . S
H2716 C2724 0.950 . S
H2717 C2729 0.950 . S
H2718 C2726 0.950 . S
H2719 C2728 0.950 . S
H2720 C2730 0.950 . S
H2721 C2732 0.950 1_455 S
H2722 C2734 0.950 . S
H2723 C2735 0.950 . S
C2724 H2716 0.950 . S
C2724 C2725 1.386 . S
C2724 C2726 1.391 . S
C2725 C2724 1.386 . S
C2725 C2729 1.393 . S
C2726 H2718 0.950 . S
C2726 C2724 1.391 . S
C2726 C2727 1.400 . S
C2727 C2726 1.400 . S
C2727 C2728 1.398 . S
C2727 C2733 1.491 1_455 S
C2728 H2719 0.950 . S
C2728 C2727 1.398 . S
C2728 C2729 1.391 . S
C2729 H2717 0.950 . S
C2729 C2725 1.393 . S
C2729 C2728 1.391 . S
C2730 H2720 0.950 . S
C2730 C2731 1.386 . S
C2730 C2732 1.391 . S
C2731 C2730 1.386 . S
C2731 C2735 1.393 . S
C2732 H2721 0.950 1_655 S
C2732 C2730 1.391 . S
C2732 C2733 1.400 . S
C2733 C2727 1.491 1_655 S
C2733 C2732 1.400 . S
C2733 C2734 1.398 . S
C2734 H2722 0.950 . S
C2734 C2733 1.398 . S
C2734 C2735 1.391 . S
C2735 H2723 0.950 . S
C2735 C2731 1.393 . S
C2735 C2734 1.391 . S
H2736 C2744 0.950 . S
H2737 C2749 0.950 . S
H2738 C2746 0.950 . S
H2739 C2748 0.950 . S
H2740 C2750 0.950 . S
H2741 C2752 0.950 . S
H2742 C2754 0.950 . S
H2743 C2755 0.950 1_655 S
C2744 H2736 0.950 . S
C2744 C2745 1.386 . S
C2744 C2746 1.391 . S
C2745 C2744 1.386 . S
C2745 C2749 1.393 1_655 S
C2746 H2738 0.950 . S
C2746 C2744 1.391 . S
C2746 C2747 1.400 1_655 S
C2747 C2746 1.400 1_455 S
C2747 C2748 1.398 . S
C2747 C2753 1.491 . S
C2748 H2739 0.950 . S
C2748 C2747 1.398 . S
C2748 C2749 1.391 . S
C2749 H2737 0.950 . S
C2749 C2745 1.393 1_455 S
C2749 C2748 1.391 . S
C2750 H2740 0.950 . S
C2750 C2751 1.386 . S
C2750 C2752 1.391 . S
C2751 C2750 1.386 . S
C2751 C2755 1.393 . S
C2752 H2741 0.950 . S
C2752 C2750 1.391 . S
C2752 C2753 1.400 . S
C2753 C2747 1.491 . S
C2753 C2752 1.400 . S
C2753 C2754 1.398 1_455 S
C2754 H2742 0.950 . S
C2754 C2753 1.398 1_655 S
C2754 C2755 1.391 1_655 S
C2755 H2743 0.950 1_455 S
C2755 C2751 1.393 . S
C2755 C2754 1.391 1_455 S
H2756 C2764 0.950 . S
H2757 C2769 0.950 . S
H2758 C2766 0.950 . S
H2759 C2768 0.950 . S
H2760 C2770 0.950 . S
H2761 C2772 0.950 . S
H2762 C2774 0.950 . S
H2763 C2775 0.950 . S
C2764 H2756 0.950 . S
C2764 C2765 1.386 . S
C2764 C2766 1.391 . S
C2765 C2764 1.386 . S
C2765 C2769 1.393 . S
C2766 H2758 0.950 . S
C2766 C2764 1.391 . S
C2766 C2767 1.400 . S
C2767 C2766 1.400 . S
C2767 C2768 1.398 . S
C2767 C2773 1.491 . S
C2768 H2759 0.950 . S
C2768 C2767 1.398 . S
C2768 C2769 1.391 . S
C2769 H2757 0.950 . S
C2769 C2765 1.393 . S
C2769 C2768 1.391 . S
C2770 H2760 0.950 . S
C2770 C2771 1.386 . S
C2770 C2772 1.391 . S
C2771 C2770 1.386 . S
C2771 C2775 1.393 . S
C2772 H2761 0.950 . S
C2772 C2770 1.391 . S
C2772 C2773 1.400 . S
C2773 C2767 1.491 . S
C2773 C2772 1.400 . S
C2773 C2774 1.398 . S
C2774 H2762 0.950 . S
C2774 C2773 1.398 . S
C2774 C2775 1.391 . S
C2775 H2763 0.950 . S
C2775 C2771 1.393 . S
C2775 C2774 1.391 . S
H2776 C2784 0.950 . S
H2777 C2789 0.950 . S
H2778 C2786 0.950 . S
H2779 C2788 0.950 . S
H2780 C2790 0.950 . S
H2781 C2792 0.950 . S
H2782 C2794 0.950 . S
H2783 C2795 0.950 . S
C2784 H2776 0.950 . S
C2784 C2785 1.386 . S
C2784 C2786 1.391 . S
C2785 C2784 1.386 . S
C2785 C2789 1.393 . S
C2786 H2778 0.950 . S
C2786 C2784 1.391 . S
C2786 C2787 1.400 . S
C2787 C2786 1.400 . S
C2787 C2788 1.398 . S
C2787 C2793 1.491 . S
C2788 H2779 0.950 . S
C2788 C2787 1.398 . S
C2788 C2789 1.391 . S
C2789 H2777 0.950 . S
C2789 C2785 1.393 . S
C2789 C2788 1.391 . S
C2790 H2780 0.950 . S
C2790 C2791 1.386 . S
C2790 C2792 1.391 . S
C2791 C2790 1.386 . S
C2791 C2795 1.393 . S
C2792 H2781 0.950 . S
C2792 C2790 1.391 . S
C2792 C2793 1.400 . S
C2793 C2787 1.491 . S
C2793 C2792 1.400 . S
C2793 C2794 1.398 . S
C2794 H2782 0.950 . S
C2794 C2793 1.398 . S
C2794 C2795 1.391 . S
C2795 H2783 0.950 . S
C2795 C2791 1.393 . S
C2795 C2794 1.391 . S
H2796 C2804 0.950 . S
H2797 C2809 0.950 . S
H2798 C2806 0.950 . S
H2799 C2808 0.950 . S
H2800 C2810 0.950 . S
H2801 C2812 0.950 . S
H2802 C2814 0.950 . S
H2803 C2815 0.950 . S
C2804 H2796 0.950 . S
C2804 C2805 1.386 . S
C2804 C2806 1.391 . S
C2805 C2804 1.386 . S
C2805 C2809 1.393 . S
C2806 H2798 0.950 . S
C2806 C2804 1.391 . S
C2806 C2807 1.400 . S
C2807 C2806 1.400 . S
C2807 C2808 1.398 . S
C2807 C2813 1.491 . S
C2808 H2799 0.950 . S
C2808 C2807 1.398 . S
C2808 C2809 1.391 . S
C2809 H2797 0.950 . S
C2809 C2805 1.393 . S
C2809 C2808 1.391 . S
C2810 H2800 0.950 . S
C2810 C2811 1.386 . S
C2810 C2812 1.391 . S
C2811 C2810 1.386 . S
C2811 C2815 1.393 . S
C2812 H2801 0.950 . S
C2812 C2810 1.391 . S
C2812 C2813 1.400 . S
C2813 C2807 1.491 . S
C2813 C2812 1.400 . S
C2813 C2814 1.398 . S
C2814 H2802 0.950 . S
C2814 C2813 1.398 . S
C2814 C2815 1.391 . S
C2815 H2803 0.950 . S
C2815 C2811 1.393 . S
C2815 C2814 1.391 . S
H2816 C2824 0.950 . S
H2817 C2829 0.950 . S
H2818 C2826 0.950 . S
H2819 C2828 0.950 . S
H2820 C2830 0.950 . S
H2821 C2832 0.950 . S
H2822 C2834 0.950 . S
H2823 C2835 0.950 . S
C2824 H2816 0.950 . S
C2824 C2825 1.386 . S
C2824 C2826 1.391 . S
C2825 C2824 1.386 . S
C2825 C2829 1.393 . S
C2826 H2818 0.950 . S
C2826 C2824 1.391 . S
C2826 C2827 1.400 . S
C2827 C2826 1.400 . S
C2827 C2828 1.398 . S
C2827 C2833 1.491 . S
C2828 H2819 0.950 . S
C2828 C2827 1.398 . S
C2828 C2829 1.391 . S
C2829 H2817 0.950 . S
C2829 C2825 1.393 . S
C2829 C2828 1.391 . S
C2830 H2820 0.950 . S
C2830 C2831 1.386 . S
C2830 C2832 1.391 . S
C2831 C2830 1.386 . S
C2831 C2835 1.393 . S
C2832 H2821 0.950 . S
C2832 C2830 1.391 . S
C2832 C2833 1.400 . S
C2833 C2827 1.491 . S
C2833 C2832 1.400 . S
C2833 C2834 1.398 . S
C2834 H2822 0.950 . S
C2834 C2833 1.398 . S
C2834 C2835 1.391 . S
C2835 H2823 0.950 . S
C2835 C2831 1.393 . S
C2835 C2834 1.391 . S
H2836 C2844 0.950 . S
H2837 C2849 0.950 . S
H2838 C2846 0.950 . S
H2839 C2848 0.950 . S
H2840 C2850 0.950 . S
H2841 C2852 0.950 . S
H2842 C2854 0.950 . S
H2843 C2855 0.950 . S
C2844 H2836 0.950 . S
C2844 C2845 1.386 . S
C2844 C2846 1.391 . S
C2845 C2844 1.386 . S
C2845 C2849 1.393 . S
C2846 H2838 0.950 . S
C2846 C2844 1.391 . S
C2846 C2847 1.400 . S
C2847 C2846 1.400 . S
C2847 C2848 1.398 . S
C2847 C2853 1.491 . S
C2848 H2839 0.950 . S
C2848 C2847 1.398 . S
C2848 C2849 1.391 . S
C2849 H2837 0.950 . S
C2849 C2845 1.393 . S
C2849 C2848 1.391 . S
C2850 H2840 0.950 . S
C2850 C2851 1.386 . S
C2850 C2852 1.391 . S
C2851 C2850 1.386 . S
C2851 C2855 1.393 . S
C2852 H2841 0.950 . S
C2852 C2850 1.391 . S
C2852 C2853 1.400 . S
C2853 C2847 1.491 . S
C2853 C2852 1.400 . S
C2853 C2854 1.398 . S
C2854 H2842 0.950 . S
C2854 C2853 1.398 . S
C2854 C2855 1.391 . S
C2855 H2843 0.950 . S
C2855 C2851 1.393 . S
C2855 C2854 1.391 . S
H2856 C2864 0.950 . S
H2857 C2869 0.950 . S
H2858 C2866 0.950 . S
H2859 C2868 0.950 . S
H2860 C2870 0.950 . S
H2861 C2872 0.950 . S
H2862 C2874 0.950 . S
H2863 C2875 0.950 . S
C2864 H2856 0.950 . S
C2864 C2865 1.386 . S
C2864 C2866 1.391 . S
C2865 C2864 1.386 . S
C2865 C2869 1.393 . S
C2866 H2858 0.950 . S
C2866 C2864 1.391 . S
C2866 C2867 1.400 . S
C2867 C2866 1.400 . S
C2867 C2868 1.398 . S
C2867 C2873 1.491 . S
C2868 H2859 0.950 . S
C2868 C2867 1.398 . S
C2868 C2869 1.391 . S
C2869 H2857 0.950 . S
C2869 C2865 1.393 . S
C2869 C2868 1.391 . S
C2870 H2860 0.950 . S
C2870 C2871 1.386 . S
C2870 C2872 1.391 . S
C2871 C2870 1.386 . S
C2871 C2875 1.393 . S
C2872 H2861 0.950 . S
C2872 C2870 1.391 . S
C2872 C2873 1.400 . S
C2873 C2867 1.491 . S
C2873 C2872 1.400 . S
C2873 C2874 1.398 . S
C2874 H2862 0.950 . S
C2874 C2873 1.398 . S
C2874 C2875 1.391 . S
C2875 H2863 0.950 . S
C2875 C2871 1.393 . S
C2875 C2874 1.391 . S
H2876 C2884 0.950 . S
H2877 C2889 0.950 . S
H2878 C2886 0.950 . S
H2879 C2888 0.950 . S
H2880 C2890 0.950 . S
H2881 C2892 0.950 . S
H2882 C2894 0.950 . S
H2883 C2895 0.950 . S
C2884 H2876 0.950 . S
C2884 C2885 1.386 . S
C2884 C2886 1.391 . S
C2885 C2884 1.386 . S
C2885 C2889 1.393 . S
C2886 H2878 0.950 . S
C2886 C2884 1.391 . S
C2886 C2887 1.400 . S
C2887 C2886 1.400 . S
C2887 C2888 1.398 . S
C2887 C2893 1.491 . S
C2888 H2879 0.950 . S
C2888 C2887 1.398 . S
C2888 C2889 1.391 . S
C2889 H2877 0.950 . S
C2889 C2885 1.393 . S
C2889 C2888 1.391 . S
C2890 H2880 0.950 . S
C2890 C2891 1.386 . S
C2890 C2892 1.391 . S
C2891 C2890 1.386 . S
C2891 C2895 1.393 . S
C2892 H2881 0.950 . S
C2892 C2890 1.391 . S
C2892 C2893 1.400 . S
C2893 C2887 1.491 . S
C2893 C2892 1.400 . S
C2893 C2894 1.398 . S
C2894 H2882 0.950 . S
C2894 C2893 1.398 . S
C2894 C2895 1.391 . S
C2895 H2883 0.950 . S
C2895 C2891 1.393 . S
C2895 C2894 1.391 . S
H2896 C2904 0.950 . S
H2897 C2909 0.950 . S
H2898 C2906 0.950 . S
H2899 C2908 0.950 . S
H2900 C2910 0.950 . S
H2901 C2912 0.950 . S
H2902 C2914 0.950 . S
H2903 C2915 0.950 . S
C2904 H2896 0.950 . S
C2904 C2905 1.386 . S
C2904 C2906 1.391 . S
C2905 C2904 1.386 . S
C2905 C2909 1.393 . S
C2906 H2898 0.950 . S
C2906 C2904 1.391 . S
C2906 C2907 1.400 . S
C2907 C2906 1.400 . S
C2907 C2908 1.398 . S
C2907 C2913 1.491 . S
C2908 H2899 0.950 . S
C2908 C2907 1.398 . S
C2908 C2909 1.391 . S
C2909 H2897 0.950 . S
C2909 C2905 1.393 . S
C2909 C2908 1.391 . S
C2910 H2900 0.950 . S
C2910 C2911 1.386 . S
C2910 C2912 1.391 . S
C2911 C2910 1.386 . S
C2911 C2915 1.393 . S
C2912 H2901 0.950 . S
C2912 C2910 1.391 . S
C2912 C2913 1.400 . S
C2913 C2907 1.491 . S
C2913 C2912 1.400 . S
C2913 C2914 1.398 . S
C2914 H2902 0.950 . S
C2914 C2913 1.398 . S
C2914 C2915 1.391 . S
C2915 H2903 0.950 . S
C2915 C2911 1.393 . S
C2915 C2914 1.391 . S
H2916 C2924 0.950 . S
H2917 C2929 0.950 . S
H2918 C2926 0.950 . S
H2919 C2928 0.950 . S
H2920 C2930 0.950 . S
H2921 C2932 0.950 . S
H2922 C2934 0.950 . S
H2923 C2935 0.950 . S
C2924 H2916 0.950 . S
C2924 C2925 1.386 . S
C2924 C2926 1.391 . S
C2925 C2924 1.386 . S
C2925 C2929 1.393 . S
C2926 H2918 0.950 . S
C2926 C2924 1.391 . S
C2926 C2927 1.400 . S
C2927 C2926 1.400 . S
C2927 C2928 1.398 . S
C2927 C2933 1.491 . S
C2928 H2919 0.950 . S
C2928 C2927 1.398 . S
C2928 C2929 1.391 . S
C2929 H2917 0.950 . S
C2929 C2925 1.393 . S
C2929 C2928 1.391 . S
C2930 H2920 0.950 . S
C2930 C2931 1.386 . S
C2930 C2932 1.391 . S
C2931 C2930 1.386 . S
C2931 C2935 1.393 . S
C2932 H2921 0.950 . S
C2932 C2930 1.391 . S
C2932 C2933 1.400 . S
C2933 C2927 1.491 . S
C2933 C2932 1.400 . S
C2933 C2934 1.398 . S
C2934 H2922 0.950 . S
C2934 C2933 1.398 . S
C2934 C2935 1.391 . S
C2935 H2923 0.950 . S
C2935 C2931 1.393 . S
C2935 C2934 1.391 . S
H2936 C2944 0.950 . S
H2937 C2949 0.950 . S
H2938 C2946 0.950 . S
H2939 C2948 0.950 . S
H2940 C2950 0.950 . S
H2941 C2952 0.950 . S
H2942 C2954 0.950 . S
H2943 C2955 0.950 . S
C2944 H2936 0.950 . S
C2944 C2945 1.386 . S
C2944 C2946 1.391 . S
C2945 C2944 1.386 . S
C2945 C2949 1.393 . S
C2946 H2938 0.950 . S
C2946 C2944 1.391 . S
C2946 C2947 1.400 . S
C2947 C2946 1.400 . S
C2947 C2948 1.398 . S
C2947 C2953 1.491 . S
C2948 H2939 0.950 . S
C2948 C2947 1.398 . S
C2948 C2949 1.391 . S
C2949 H2937 0.950 . S
C2949 C2945 1.393 . S
C2949 C2948 1.391 . S
C2950 H2940 0.950 . S
C2950 C2951 1.386 . S
C2950 C2952 1.391 . S
C2951 C2950 1.386 . S
C2951 C2955 1.393 . S
C2952 H2941 0.950 . S
C2952 C2950 1.391 . S
C2952 C2953 1.400 . S
C2953 C2947 1.491 . S
C2953 C2952 1.400 . S
C2953 C2954 1.398 . S
C2954 H2942 0.950 . S
C2954 C2953 1.398 . S
C2954 C2955 1.391 . S
C2955 H2943 0.950 . S
C2955 C2951 1.393 . S
C2955 C2954 1.391 . S
H2956 C2964 0.950 . S
H2957 C2969 0.950 . S
H2958 C2966 0.950 . S
H2959 C2968 0.950 . S
H2960 C2970 0.950 . S
H2961 C2972 0.950 . S
H2962 C2974 0.950 . S
H2963 C2975 0.950 . S
C2964 H2956 0.950 . S
C2964 C2965 1.386 . S
C2964 C2966 1.391 . S
C2965 C2964 1.386 . S
C2965 C2969 1.393 . S
C2966 H2958 0.950 . S
C2966 C2964 1.391 . S
C2966 C2967 1.400 . S
C2967 C2966 1.400 . S
C2967 C2968 1.398 . S
C2967 C2973 1.491 . S
C2968 H2959 0.950 . S
C2968 C2967 1.398 . S
C2968 C2969 1.391 . S
C2969 H2957 0.950 . S
C2969 C2965 1.393 . S
C2969 C2968 1.391 . S
C2970 H2960 0.950 . S
C2970 C2971 1.386 . S
C2970 C2972 1.391 . S
C2971 C2970 1.386 . S
C2971 C2975 1.393 . S
C2972 H2961 0.950 . S
C2972 C2970 1.391 . S
C2972 C2973 1.400 . S
C2973 C2967 1.491 . S
C2973 C2972 1.400 . S
C2973 C2974 1.398 . S
C2974 H2962 0.950 . S
C2974 C2973 1.398 . S
C2974 C2975 1.391 . S
C2975 H2963 0.950 . S
C2975 C2971 1.393 . S
C2975 C2974 1.391 . S
H2976 C2984 0.950 . S
H2977 C2989 0.950 . S
H2978 C2986 0.950 . S
H2979 C2988 0.950 . S
H2980 C2990 0.950 . S
H2981 C2992 0.950 . S
H2982 C2994 0.950 . S
H2983 C2995 0.950 . S
C2984 H2976 0.950 . S
C2984 C2985 1.386 . S
C2984 C2986 1.391 . S
C2985 C2984 1.386 . S
C2985 C2989 1.393 . S
C2986 H2978 0.950 . S
C2986 C2984 1.391 . S
C2986 C2987 1.400 . S
C2987 C2986 1.400 . S
C2987 C2988 1.398 . S
C2987 C2993 1.491 . S
C2988 H2979 0.950 . S
C2988 C2987 1.398 . S
C2988 C2989 1.391 . S
C2989 H2977 0.950 . S
C2989 C2985 1.393 . S
C2989 C2988 1.391 . S
C2990 H2980 0.950 . S
C2990 C2991 1.386 . S
C2990 C2992 1.391 . S
C2991 C2990 1.386 . S
C2991 C2995 1.393 . S
C2992 H2981 0.950 . S
C2992 C2990 1.391 . S
C2992 C2993 1.400 . S
C2993 C2987 1.491 . S
C2993 C2992 1.400 . S
C2993 C2994 1.398 . S
C2994 H2982 0.950 . S
C2994 C2993 1.398 . S
C2994 C2995 1.391 . S
C2995 H2983 0.950 . S
C2995 C2991 1.393 . S
C2995 C2994 1.391 . S
H2996 C3004 0.950 . S
H2997 C3009 0.950 1_556 S
H2998 C3006 0.950 1_545 S
H2999 C3008 0.950 1_556 S
H3000 C3010 0.934 1_565 S
H3001 C3012 0.950 . S
H3002 C3014 0.950 . S
H3003 C3015 0.950 . S
C3004 H2996 0.950 . S
C3004 C3005 1.386 . S
C3004 C3006 1.391 . S
C3005 C3004 1.386 . S
C3005 C3009 1.393 . S
C3006 H2998 0.950 1_565 S
C3006 C3004 1.391 . S
C3006 C3007 1.400 . S
C3007 C3006 1.400 . S
C3007 C3008 1.398 . S
C3007 C3013 1.498 . S
C3008 H2999 0.950 1_554 S
C3008 C3007 1.398 . S
C3008 C3009 1.391 . S
C3009 H2997 0.950 1_554 S
C3009 C3005 1.393 . S
C3009 C3008 1.391 . S
C3010 H3000 0.934 1_545 S
C3010 C3011 1.386 1_556 S
C3010 C3012 1.391 1_545 S
C3011 C3010 1.386 1_554 S
C3011 C3015 1.393 . S
C3012 H3001 0.950 . S
C3012 C3010 1.391 1_565 S
C3012 C3013 1.408 1_556 S
C3013 C3007 1.498 . S
C3013 C3012 1.408 1_554 S
C3013 C3014 1.382 1_565 S
C3014 H3002 0.950 . S
C3014 C3013 1.382 1_545 S
C3014 C3015 1.391 . S
C3015 H3003 0.950 . S
C3015 C3011 1.393 . S
C3015 C3014 1.391 . S
H3016 C3024 0.950 . S
H3017 C3029 0.950 . S
H3018 C3026 0.950 . S
H3019 C3028 0.950 . S
H3020 C3030 0.950 . S
H3021 C3032 0.950 . S
H3022 C3034 0.950 . S
H3023 C3035 0.950 . S
C3024 H3016 0.950 . S
C3024 C3025 1.386 . S
C3024 C3026 1.391 . S
C3025 C3024 1.386 . S
C3025 C3029 1.393 . S
C3026 H3018 0.950 . S
C3026 C3024 1.391 . S
C3026 C3027 1.400 . S
C3027 C3026 1.400 . S
C3027 C3028 1.398 . S
C3027 C3033 1.491 . S
C3028 H3019 0.950 . S
C3028 C3027 1.398 . S
C3028 C3029 1.391 . S
C3029 H3017 0.950 . S
C3029 C3025 1.393 . S
C3029 C3028 1.391 . S
C3030 H3020 0.950 . S
C3030 C3031 1.386 . S
C3030 C3032 1.391 . S
C3031 C3030 1.386 . S
C3031 C3035 1.393 . S
C3032 H3021 0.950 . S
C3032 C3030 1.391 . S
C3032 C3033 1.400 . S
C3033 C3027 1.491 . S
C3033 C3032 1.400 . S
C3033 C3034 1.398 . S
C3034 H3022 0.950 . S
C3034 C3033 1.398 . S
C3034 C3035 1.391 . S
C3035 H3023 0.950 . S
C3035 C3031 1.393 . S
C3035 C3034 1.391 . S
H3036 C3044 0.950 1_556 S
H3037 C3049 0.950 . S
H3038 C3046 0.950 . S
H3039 C3048 0.950 . S
H3040 C3050 0.950 . S
H3041 C3052 0.950 . S
H3042 C3054 0.950 . S
H3043 C3055 0.950 . S
C3044 H3036 0.950 1_554 S
C3044 C3045 1.386 . S
C3044 C3046 1.391 . S
C3045 C3044 1.386 . S
C3045 C3049 1.393 . S
C3046 H3038 0.950 . S
C3046 C3044 1.391 . S
C3046 C3047 1.400 . S
C3047 C3046 1.400 . S
C3047 C3048 1.398 . S
C3047 C3053 1.491 . S
C3048 H3039 0.950 . S
C3048 C3047 1.398 . S
C3048 C3049 1.391 . S
C3049 H3037 0.950 . S
C3049 C3045 1.393 . S
C3049 C3048 1.391 . S
C3050 H3040 0.950 . S
C3050 C3051 1.386 . S
C3050 C3052 1.391 . S
C3051 C3050 1.386 . S
C3051 C3055 1.393 . S
C3052 H3041 0.950 . S
C3052 C3050 1.391 . S
C3052 C3053 1.400 . S
C3053 C3047 1.491 . S
C3053 C3052 1.400 . S
C3053 C3054 1.398 . S
C3054 H3042 0.950 . S
C3054 C3053 1.398 . S
C3054 C3055 1.391 . S
C3055 H3043 0.950 . S
C3055 C3051 1.393 . S
C3055 C3054 1.391 . S
H3056 C3064 0.950 . S
H3057 C3069 0.950 . S
H3058 C3066 0.950 . S
H3059 C3068 0.950 . S
H3060 C3070 0.950 . S
H3061 C3072 0.950 . S
H3062 C3074 0.950 . S
H3063 C3075 0.950 . S
C3064 H3056 0.950 . S
C3064 C3065 1.386 . S
C3064 C3066 1.391 . S
C3065 C3064 1.386 . S
C3065 C3069 1.393 . S
C3066 H3058 0.950 . S
C3066 C3064 1.391 . S
C3066 C3067 1.400 . S
C3067 C3066 1.400 . S
C3067 C3068 1.398 . S
C3067 C3073 1.491 . S
C3068 H3059 0.950 . S
C3068 C3067 1.398 . S
C3068 C3069 1.391 . S
C3069 H3057 0.950 . S
C3069 C3065 1.393 . S
C3069 C3068 1.391 . S
C3070 H3060 0.950 . S
C3070 C3071 1.386 . S
C3070 C3072 1.391 . S
C3071 C3070 1.386 . S
C3071 C3075 1.393 . S
C3072 H3061 0.950 . S
C3072 C3070 1.391 . S
C3072 C3073 1.400 . S
C3073 C3067 1.491 . S
C3073 C3072 1.400 . S
C3073 C3074 1.398 . S
C3074 H3062 0.950 . S
C3074 C3073 1.398 . S
C3074 C3075 1.391 . S
C3075 H3063 0.950 . S
C3075 C3071 1.393 . S
C3075 C3074 1.391 . S
H3076 C3084 0.950 . S
H3077 C3089 0.950 . S
H3078 C3086 0.950 . S
H3079 C3088 0.950 . S
H3080 C3090 0.950 . S
H3081 C3092 0.950 . S
H3082 C3094 0.950 . S
H3083 C3095 0.950 . S
C3084 H3076 0.950 . S
C3084 C3085 1.386 . S
C3084 C3086 1.391 . S
C3085 C3084 1.386 . S
C3085 C3089 1.393 . S
C3086 H3078 0.950 . S
C3086 C3084 1.391 . S
C3086 C3087 1.400 . S
C3087 C3086 1.400 . S
C3087 C3088 1.398 . S
C3087 C3093 1.491 . S
C3088 H3079 0.950 . S
C3088 C3087 1.398 . S
C3088 C3089 1.391 . S
C3089 H3077 0.950 . S
C3089 C3085 1.393 . S
C3089 C3088 1.391 . S
C3090 H3080 0.950 . S
C3090 C3091 1.386 . S
C3090 C3092 1.391 . S
C3091 C3090 1.386 . S
C3091 C3095 1.393 . S
C3092 H3081 0.950 . S
C3092 C3090 1.391 . S
C3092 C3093 1.400 . S
C3093 C3087 1.491 . S
C3093 C3092 1.400 . S
C3093 C3094 1.398 . S
C3094 H3082 0.950 . S
C3094 C3093 1.398 . S
C3094 C3095 1.391 . S
C3095 H3083 0.950 . S
C3095 C3091 1.393 . S
C3095 C3094 1.391 . S
H3096 C3104 0.950 . S
H3097 C3109 0.950 . S
H3098 C3106 0.950 . S
H3099 C3108 0.950 . S
H3100 C3110 0.950 . S
H3101 C3112 0.950 . S
H3102 C3114 0.950 . S
H3103 C3115 0.950 . S
C3104 H3096 0.950 . S
C3104 C3105 1.386 . S
C3104 C3106 1.391 . S
C3105 C3104 1.386 . S
C3105 C3109 1.393 . S
C3106 H3098 0.950 . S
C3106 C3104 1.391 . S
C3106 C3107 1.400 . S
C3107 C3106 1.400 . S
C3107 C3108 1.398 . S
C3107 C3113 1.491 . S
C3108 H3099 0.950 . S
C3108 C3107 1.398 . S
C3108 C3109 1.391 . S
C3109 H3097 0.950 . S
C3109 C3105 1.393 . S
C3109 C3108 1.391 . S
C3110 H3100 0.950 . S
C3110 C3111 1.386 . S
C3110 C3112 1.391 . S
C3111 C3110 1.386 . S
C3111 C3115 1.393 . S
C3112 H3101 0.950 . S
C3112 C3110 1.391 . S
C3112 C3113 1.400 . S
C3113 C3107 1.491 . S
C3113 C3112 1.400 . S
C3113 C3114 1.398 . S
C3114 H3102 0.950 . S
C3114 C3113 1.398 . S
C3114 C3115 1.391 . S
C3115 H3103 0.950 . S
C3115 C3111 1.393 . S
C3115 C3114 1.391 . S
H3116 C3124 0.950 . S
H3117 C3129 0.950 . S
H3118 C3126 0.950 . S
H3119 C3128 0.950 . S
H3120 C3130 0.950 . S
H3121 C3132 0.950 . S
H3122 C3134 0.950 . S
H3123 C3135 0.950 . S
C3124 H3116 0.950 . S
C3124 C3125 1.386 . S
C3124 C3126 1.391 . S
C3125 C3124 1.386 . S
C3125 C3129 1.393 . S
C3126 H3118 0.950 . S
C3126 C3124 1.391 . S
C3126 C3127 1.400 . S
C3127 C3126 1.400 . S
C3127 C3128 1.398 . S
C3127 C3133 1.491 . S
C3128 H3119 0.950 . S
C3128 C3127 1.398 . S
C3128 C3129 1.391 . S
C3129 H3117 0.950 . S
C3129 C3125 1.393 . S
C3129 C3128 1.391 . S
C3130 H3120 0.950 . S
C3130 C3131 1.386 . S
C3130 C3132 1.391 . S
C3131 C3130 1.386 . S
C3131 C3135 1.393 . S
C3132 H3121 0.950 . S
C3132 C3130 1.391 . S
C3132 C3133 1.400 . S
C3133 C3127 1.491 . S
C3133 C3132 1.400 . S
C3133 C3134 1.398 . S
C3134 H3122 0.950 . S
C3134 C3133 1.398 . S
C3134 C3135 1.391 . S
C3135 H3123 0.950 . S
C3135 C3131 1.393 . S
C3135 C3134 1.391 . S
H3136 C3144 0.950 . S
H3137 C3149 0.950 . S
H3138 C3146 0.950 . S
H3139 C3148 0.950 . S
H3140 C3150 0.950 . S
H3141 C3152 0.950 . S
H3142 C3154 0.950 . S
H3143 C3155 0.950 . S
C3144 H3136 0.950 . S
C3144 C3145 1.386 . S
C3144 C3146 1.391 . S
C3145 C3144 1.386 . S
C3145 C3149 1.393 . S
C3146 H3138 0.950 . S
C3146 C3144 1.391 . S
C3146 C3147 1.400 . S
C3147 C3146 1.400 . S
C3147 C3148 1.398 . S
C3147 C3153 1.491 . S
C3148 H3139 0.950 . S
C3148 C3147 1.398 . S
C3148 C3149 1.391 . S
C3149 H3137 0.950 . S
C3149 C3145 1.393 . S
C3149 C3148 1.391 . S
C3150 H3140 0.950 . S
C3150 C3151 1.386 . S
C3150 C3152 1.391 . S
C3151 C3150 1.386 . S
C3151 C3155 1.393 . S
C3152 H3141 0.950 . S
C3152 C3150 1.391 . S
C3152 C3153 1.400 . S
C3153 C3147 1.491 . S
C3153 C3152 1.400 . S
C3153 C3154 1.398 . S
C3154 H3142 0.950 . S
C3154 C3153 1.398 . S
C3154 C3155 1.391 . S
C3155 H3143 0.950 . S
C3155 C3151 1.393 . S
C3155 C3154 1.391 . S
H3156 C3164 0.950 . S
H3157 C3169 0.950 . S
H3158 C3166 0.950 . S
H3159 C3168 0.950 . S
H3160 C3170 0.950 . S
H3161 C3172 0.950 . S
H3162 C3174 0.950 . S
H3163 C3175 0.950 . S
C3164 H3156 0.950 . S
C3164 C3165 1.386 . S
C3164 C3166 1.391 . S
C3165 C3164 1.386 . S
C3165 C3169 1.393 . S
C3166 H3158 0.950 . S
C3166 C3164 1.391 . S
C3166 C3167 1.400 . S
C3167 C3166 1.400 . S
C3167 C3168 1.398 . S
C3167 C3173 1.491 . S
C3168 H3159 0.950 . S
C3168 C3167 1.398 . S
C3168 C3169 1.391 . S
C3169 H3157 0.950 . S
C3169 C3165 1.393 . S
C3169 C3168 1.391 . S
C3170 H3160 0.950 . S
C3170 C3171 1.386 . S
C3170 C3172 1.391 . S
C3171 C3170 1.386 . S
C3171 C3175 1.393 . S
C3172 H3161 0.950 . S
C3172 C3170 1.391 . S
C3172 C3173 1.400 . S
C3173 C3167 1.491 . S
C3173 C3172 1.400 . S
C3173 C3174 1.398 . S
C3174 H3162 0.950 . S
C3174 C3173 1.398 . S
C3174 C3175 1.391 . S
C3175 H3163 0.950 . S
C3175 C3171 1.393 . S
C3175 C3174 1.391 . S
H3176 C3184 0.950 . S
H3177 C3189 0.950 . S
H3178 C3186 0.950 . S
H3179 C3188 0.950 . S
H3180 C3190 0.950 . S
H3181 C3192 0.950 . S
H3182 C3194 0.950 . S
H3183 C3195 0.950 . S
C3184 H3176 0.950 . S
C3184 C3185 1.386 . S
C3184 C3186 1.391 . S
C3185 C3184 1.386 . S
C3185 C3189 1.393 . S
C3186 H3178 0.950 . S
C3186 C3184 1.391 . S
C3186 C3187 1.400 . S
C3187 C3186 1.400 . S
C3187 C3188 1.398 . S
C3187 C3193 1.491 . S
C3188 H3179 0.950 . S
C3188 C3187 1.398 . S
C3188 C3189 1.391 . S
C3189 H3177 0.950 . S
C3189 C3185 1.393 . S
C3189 C3188 1.391 . S
C3190 H3180 0.950 . S
C3190 C3191 1.386 . S
C3190 C3192 1.391 . S
C3191 C3190 1.386 . S
C3191 C3195 1.393 . S
C3192 H3181 0.950 . S
C3192 C3190 1.391 . S
C3192 C3193 1.400 . S
C3193 C3187 1.491 . S
C3193 C3192 1.400 . S
C3193 C3194 1.398 . S
C3194 H3182 0.950 . S
C3194 C3193 1.398 . S
C3194 C3195 1.391 . S
C3195 H3183 0.950 . S
C3195 C3191 1.393 . S
C3195 C3194 1.391 . S
H3196 C3204 0.950 . S
H3197 C3209 0.950 . S
H3198 C3206 0.950 . S
H3199 C3208 0.950 . S
H3200 C3210 0.950 . S
H3201 C3212 0.950 . S
H3202 C3214 0.950 . S
H3203 C3215 0.950 . S
C3204 H3196 0.950 . S
C3204 C3205 1.386 . S
C3204 C3206 1.391 . S
C3205 C3204 1.386 . S
C3205 C3209 1.393 . S
C3206 H3198 0.950 . S
C3206 C3204 1.391 . S
C3206 C3207 1.400 . S
C3207 C3206 1.400 . S
C3207 C3208 1.398 . S
C3207 C3213 1.491 . S
C3208 H3199 0.950 . S
C3208 C3207 1.398 . S
C3208 C3209 1.391 . S
C3209 H3197 0.950 . S
C3209 C3205 1.393 . S
C3209 C3208 1.391 . S
C3210 H3200 0.950 . S
C3210 C3211 1.386 . S
C3210 C3212 1.391 . S
C3211 C3210 1.386 . S
C3211 C3215 1.393 . S
C3212 H3201 0.950 . S
C3212 C3210 1.391 . S
C3212 C3213 1.400 . S
C3213 C3207 1.491 . S
C3213 C3212 1.400 . S
C3213 C3214 1.398 . S
C3214 H3202 0.950 . S
C3214 C3213 1.398 . S
C3214 C3215 1.391 . S
C3215 H3203 0.950 . S
C3215 C3211 1.393 . S
C3215 C3214 1.391 . S
H3216 C3224 0.950 . S
H3217 C3229 0.950 . S
H3218 C3226 0.950 . S
H3219 C3228 0.950 . S
H3220 C3230 0.950 . S
H3221 C3232 0.950 . S
H3222 C3234 0.950 . S
H3223 C3235 0.950 . S
C3224 H3216 0.950 . S
C3224 C3225 1.386 . S
C3224 C3226 1.391 . S
C3225 C3224 1.386 . S
C3225 C3229 1.393 . S
C3226 H3218 0.950 . S
C3226 C3224 1.391 . S
C3226 C3227 1.400 . S
C3227 C3226 1.400 . S
C3227 C3228 1.398 . S
C3227 C3233 1.491 . S
C3228 H3219 0.950 . S
C3228 C3227 1.398 . S
C3228 C3229 1.391 . S
C3229 H3217 0.950 . S
C3229 C3225 1.393 . S
C3229 C3228 1.391 . S
C3230 H3220 0.950 . S
C3230 C3231 1.386 . S
C3230 C3232 1.391 . S
C3231 C3230 1.386 . S
C3231 C3235 1.393 . S
C3232 H3221 0.950 . S
C3232 C3230 1.391 . S
C3232 C3233 1.400 . S
C3233 C3227 1.491 . S
C3233 C3232 1.400 . S
C3233 C3234 1.398 . S
C3234 H3222 0.950 . S
C3234 C3233 1.398 . S
C3234 C3235 1.391 . S
C3235 H3223 0.950 . S
C3235 C3231 1.393 . S
C3235 C3234 1.391 . S
H3236 C3244 0.950 . S
H3237 C3249 0.950 . S
H3238 C3246 0.950 . S
H3239 C3248 0.950 . S
H3240 C3250 0.950 . S
H3241 C3252 0.950 . S
H3242 C3254 0.950 . S
H3243 C3255 0.950 . S
C3244 H3236 0.950 . S
C3244 C3245 1.386 . S
C3244 C3246 1.391 . S
C3245 C3244 1.386 . S
C3245 C3249 1.393 . S
C3246 H3238 0.950 . S
C3246 C3244 1.391 . S
C3246 C3247 1.400 . S
C3247 C3246 1.400 . S
C3247 C3248 1.398 . S
C3247 C3253 1.491 . S
C3248 H3239 0.950 . S
C3248 C3247 1.398 . S
C3248 C3249 1.391 . S
C3249 H3237 0.950 . S
C3249 C3245 1.393 . S
C3249 C3248 1.391 . S
C3250 H3240 0.950 . S
C3250 C3251 1.386 . S
C3250 C3252 1.391 . S
C3251 C3250 1.386 . S
C3251 C3255 1.393 . S
C3252 H3241 0.950 . S
C3252 C3250 1.391 . S
C3252 C3253 1.400 . S
C3253 C3247 1.491 . S
C3253 C3252 1.400 . S
C3253 C3254 1.398 . S
C3254 H3242 0.950 . S
C3254 C3253 1.398 . S
C3254 C3255 1.391 . S
C3255 H3243 0.950 . S
C3255 C3251 1.393 . S
C3255 C3254 1.391 . S
H3256 C3264 0.950 . S
H3257 C3269 0.950 . S
H3258 C3266 0.950 . S
H3259 C3268 0.950 . S
H3260 C3270 0.950 . S
H3261 C3272 0.950 . S
H3262 C3274 0.950 . S
H3263 C3275 0.950 . S
C3264 H3256 0.950 . S
C3264 C3265 1.386 . S
C3264 C3266 1.391 . S
C3265 C3264 1.386 . S
C3265 C3269 1.393 . S
C3266 H3258 0.950 . S
C3266 C3264 1.391 . S
C3266 C3267 1.400 . S
C3267 C3266 1.400 . S
C3267 C3268 1.398 . S
C3267 C3273 1.491 . S
C3268 H3259 0.950 . S
C3268 C3267 1.398 . S
C3268 C3269 1.391 . S
C3269 H3257 0.950 . S
C3269 C3265 1.393 . S
C3269 C3268 1.391 . S
C3270 H3260 0.950 . S
C3270 C3271 1.386 . S
C3270 C3272 1.391 . S
C3271 C3270 1.386 . S
C3271 C3275 1.393 . S
C3272 H3261 0.950 . S
C3272 C3270 1.391 . S
C3272 C3273 1.400 . S
C3273 C3267 1.491 . S
C3273 C3272 1.400 . S
C3273 C3274 1.398 . S
C3274 H3262 0.950 . S
C3274 C3273 1.398 . S
C3274 C3275 1.391 . S
C3275 H3263 0.950 . S
C3275 C3271 1.393 . S
C3275 C3274 1.391 . S
H3276 C3284 0.950 . S
H3277 C3289 0.950 . S
H3278 C3286 0.950 . S
H3279 C3288 0.950 . S
H3280 C3290 0.950 . S
H3281 C3292 0.950 . S
H3282 C3294 0.950 . S
H3283 C3295 0.950 . S
C3284 H3276 0.950 . S
C3284 C3285 1.386 . S
C3284 C3286 1.391 . S
C3285 C3284 1.386 . S
C3285 C3289 1.393 . S
C3286 H3278 0.950 . S
C3286 C3284 1.391 . S
C3286 C3287 1.400 . S
C3287 C3286 1.400 . S
C3287 C3288 1.398 . S
C3287 C3293 1.491 . S
C3288 H3279 0.950 . S
C3288 C3287 1.398 . S
C3288 C3289 1.391 . S
C3289 H3277 0.950 . S
C3289 C3285 1.393 . S
C3289 C3288 1.391 . S
C3290 H3280 0.950 . S
C3290 C3291 1.386 . S
C3290 C3292 1.391 . S
C3291 C3290 1.386 . S
C3291 C3295 1.393 . S
C3292 H3281 0.950 . S
C3292 C3290 1.391 . S
C3292 C3293 1.400 . S
C3293 C3287 1.491 . S
C3293 C3292 1.400 . S
C3293 C3294 1.398 . S
C3294 H3282 0.950 . S
C3294 C3293 1.398 . S
C3294 C3295 1.391 . S
C3295 H3283 0.950 . S
C3295 C3291 1.393 . S
C3295 C3294 1.391 . S
H3296 C3304 0.950 . S
H3297 C3309 0.950 . S
H3298 C3306 0.950 . S
H3299 C3308 0.950 . S
H3300 C3310 0.950 . S
H3301 C3312 0.950 . S
H3302 C3314 0.950 . S
H3303 C3315 0.950 . S
C3304 H3296 0.950 . S
C3304 C3305 1.386 . S
C3304 C3306 1.391 . S
C3305 C3304 1.386 . S
C3305 C3309 1.393 . S
C3306 H3298 0.950 . S
C3306 C3304 1.391 . S
C3306 C3307 1.400 . S
C3307 C3306 1.400 . S
C3307 C3308 1.398 . S
C3307 C3313 1.491 . S
C3308 H3299 0.950 . S
C3308 C3307 1.398 . S
C3308 C3309 1.391 . S
C3309 H3297 0.950 . S
C3309 C3305 1.393 . S
C3309 C3308 1.391 . S
C3310 H3300 0.950 . S
C3310 C3311 1.386 1_655 S
C3310 C3312 1.391 . S
C3311 C3310 1.386 1_455 S
C3311 C3315 1.393 . S
C3312 H3301 0.950 . S
C3312 C3310 1.391 . S
C3312 C3313 1.400 . S
C3313 C3307 1.491 . S
C3313 C3312 1.400 . S
C3313 C3314 1.398 1_655 S
C3314 H3302 0.950 . S
C3314 C3313 1.398 1_455 S
C3314 C3315 1.391 . S
C3315 H3303 0.950 . S
C3315 C3311 1.393 . S
C3315 C3314 1.391 . S
H3316 C3324 0.950 . S
H3317 C3329 0.950 . S
H3318 C3326 0.950 . S
H3319 C3328 0.950 . S
H3320 C3330 0.950 . S
H3321 C3332 0.950 . S
H3322 C3334 0.950 . S
H3323 C3335 0.950 . S
C3324 H3316 0.950 . S
C3324 C3325 1.386 . S
C3324 C3326 1.391 . S
C3325 C3324 1.386 . S
C3325 C3329 1.393 . S
C3326 H3318 0.950 . S
C3326 C3324 1.391 . S
C3326 C3327 1.400 . S
C3327 C3326 1.400 . S
C3327 C3328 1.398 . S
C3327 C3333 1.491 . S
C3328 H3319 0.950 . S
C3328 C3327 1.398 . S
C3328 C3329 1.391 . S
C3329 H3317 0.950 . S
C3329 C3325 1.393 . S
C3329 C3328 1.391 . S
C3330 H3320 0.950 . S
C3330 C3331 1.386 . S
C3330 C3332 1.391 . S
C3331 C3330 1.386 . S
C3331 C3335 1.393 . S
C3332 H3321 0.950 . S
C3332 C3330 1.391 . S
C3332 C3333 1.400 . S
C3333 C3327 1.491 . S
C3333 C3332 1.400 . S
C3333 C3334 1.398 . S
C3334 H3322 0.950 . S
C3334 C3333 1.398 . S
C3334 C3335 1.391 . S
C3335 H3323 0.950 . S
C3335 C3331 1.393 . S
C3335 C3334 1.391 . S
H3336 C3344 0.950 . S
H3337 C3349 0.950 . S
H3338 C3346 0.950 . S
H3339 C3348 0.950 . S
H3340 C3350 0.950 . S
H3341 C3352 0.950 . S
H3342 C3354 0.950 . S
H3343 C3355 0.950 . S
C3344 H3336 0.950 . S
C3344 C3345 1.386 . S
C3344 C3346 1.391 . S
C3345 C3344 1.386 . S
C3345 C3349 1.393 . S
C3346 H3338 0.950 . S
C3346 C3344 1.391 . S
C3346 C3347 1.400 . S
C3347 C3346 1.400 . S
C3347 C3348 1.398 . S
C3347 C3353 1.491 . S
C3348 H3339 0.950 . S
C3348 C3347 1.398 . S
C3348 C3349 1.391 . S
C3349 H3337 0.950 . S
C3349 C3345 1.393 . S
C3349 C3348 1.391 . S
C3350 H3340 0.950 . S
C3350 C3351 1.386 . S
C3350 C3352 1.391 . S
C3351 C3350 1.386 . S
C3351 C3355 1.393 . S
C3352 H3341 0.950 . S
C3352 C3350 1.391 . S
C3352 C3353 1.400 . S
C3353 C3347 1.491 . S
C3353 C3352 1.400 . S
C3353 C3354 1.398 . S
C3354 H3342 0.950 . S
C3354 C3353 1.398 . S
C3354 C3355 1.391 . S
C3355 H3343 0.950 . S
C3355 C3351 1.393 . S
C3355 C3354 1.391 . S
H3356 C3364 0.950 . S
H3357 C3369 0.950 . S
H3358 C3366 0.950 . S
H3359 C3368 0.950 . S
H3360 C3370 0.950 . S
H3361 C3372 0.950 . S
H3362 C3374 0.950 . S
H3363 C3375 0.950 . S
C3364 H3356 0.950 . S
C3364 C3365 1.386 . S
C3364 C3366 1.391 . S
C3365 C3364 1.386 . S
C3365 C3369 1.393 . S
C3366 H3358 0.950 . S
C3366 C3364 1.391 . S
C3366 C3367 1.400 . S
C3367 C3366 1.400 . S
C3367 C3368 1.398 . S
C3367 C3373 1.491 . S
C3368 H3359 0.950 . S
C3368 C3367 1.398 . S
C3368 C3369 1.391 . S
C3369 H3357 0.950 . S
C3369 C3365 1.393 . S
C3369 C3368 1.391 . S
C3370 H3360 0.950 . S
C3370 C3371 1.386 . S
C3370 C3372 1.391 . S
C3371 C3370 1.386 . S
C3371 C3375 1.393 . S
C3372 H3361 0.950 . S
C3372 C3370 1.391 . S
C3372 C3373 1.400 . S
C3373 C3367 1.491 . S
C3373 C3372 1.400 . S
C3373 C3374 1.398 . S
C3374 H3362 0.950 . S
C3374 C3373 1.398 . S
C3374 C3375 1.391 . S
C3375 H3363 0.950 . S
C3375 C3371 1.393 . S
C3375 C3374 1.391 . S
H3376 C3384 0.950 . S
H3377 C3389 0.950 . S
H3378 C3386 0.950 . S
H3379 C3388 0.950 . S
H3380 C3390 0.950 1_455 S
H3381 C3392 0.950 . S
H3382 C3394 0.950 . S
H3383 C3395 0.950 . S
C3384 H3376 0.950 . S
C3384 C3385 1.386 . S
C3384 C3386 1.391 . S
C3385 C3384 1.386 . S
C3385 C3389 1.393 . S
C3386 H3378 0.950 . S
C3386 C3384 1.391 . S
C3386 C3387 1.400 . S
C3387 C3386 1.400 . S
C3387 C3388 1.398 . S
C3387 C3393 1.491 . S
C3388 H3379 0.950 . S
C3388 C3387 1.398 . S
C3388 C3389 1.391 . S
C3389 H3377 0.950 . S
C3389 C3385 1.393 . S
C3389 C3388 1.391 . S
C3390 H3380 0.950 1_655 S
C3390 C3391 1.386 . S
C3390 C3392 1.391 . S
C3391 C3390 1.386 . S
C3391 C3395 1.393 . S
C3392 H3381 0.950 . S
C3392 C3390 1.391 . S
C3392 C3393 1.400 . S
C3393 C3387 1.491 . S
C3393 C3392 1.400 . S
C3393 C3394 1.398 . S
C3394 H3382 0.950 . S
C3394 C3393 1.398 . S
C3394 C3395 1.391 . S
C3395 H3383 0.950 . S
C3395 C3391 1.393 . S
C3395 C3394 1.391 . S
H3396 C3404 0.950 . S
H3397 C3409 0.950 . S
H3398 C3406 0.950 . S
H3399 C3408 0.950 . S
H3400 C3410 0.950 . S
H3401 C3412 0.950 . S
H3402 C3414 0.950 . S
H3403 C3415 0.950 . S
C3404 H3396 0.950 . S
C3404 C3405 1.386 . S
C3404 C3406 1.391 . S
C3405 C3404 1.386 . S
C3405 C3409 1.393 . S
C3406 H3398 0.950 . S
C3406 C3404 1.391 . S
C3406 C3407 1.400 . S
C3407 C3406 1.400 . S
C3407 C3408 1.398 . S
C3407 C3413 1.491 . S
C3408 H3399 0.950 . S
C3408 C3407 1.398 . S
C3408 C3409 1.391 . S
C3409 H3397 0.950 . S
C3409 C3405 1.393 . S
C3409 C3408 1.391 . S
C3410 H3400 0.950 . S
C3410 C3411 1.386 . S
C3410 C3412 1.391 . S
C3411 C3410 1.386 . S
C3411 C3415 1.393 . S
C3412 H3401 0.950 . S
C3412 C3410 1.391 . S
C3412 C3413 1.400 . S
C3413 C3407 1.491 . S
C3413 C3412 1.400 . S
C3413 C3414 1.398 . S
C3414 H3402 0.950 . S
C3414 C3413 1.398 . S
C3414 C3415 1.391 . S
C3415 H3403 0.950 . S
C3415 C3411 1.393 . S
C3415 C3414 1.391 . S
H3416 C3424 0.950 . S
H3417 C3429 0.950 . S
H3418 C3426 0.950 . S
H3419 C3428 0.950 . S
H3420 C3430 0.950 . S
H3421 C3432 0.950 . S
H3422 C3434 0.950 . S
H3423 C3435 0.950 . S
C3424 H3416 0.950 . S
C3424 C3425 1.386 . S
C3424 C3426 1.391 . S
C3425 C3424 1.386 . S
C3425 C3429 1.393 . S
C3426 H3418 0.950 . S
C3426 C3424 1.391 . S
C3426 C3427 1.400 . S
C3427 C3426 1.400 . S
C3427 C3428 1.398 . S
C3427 C3433 1.491 . S
C3428 H3419 0.950 . S
C3428 C3427 1.398 . S
C3428 C3429 1.391 . S
C3429 H3417 0.950 . S
C3429 C3425 1.393 . S
C3429 C3428 1.391 . S
C3430 H3420 0.950 . S
C3430 C3431 1.386 . S
C3430 C3432 1.391 . S
C3431 C3430 1.386 . S
C3431 C3435 1.393 . S
C3432 H3421 0.950 . S
C3432 C3430 1.391 . S
C3432 C3433 1.400 . S
C3433 C3427 1.491 . S
C3433 C3432 1.400 . S
C3433 C3434 1.398 . S
C3434 H3422 0.950 . S
C3434 C3433 1.398 . S
C3434 C3435 1.391 . S
C3435 H3423 0.950 . S
C3435 C3431 1.393 . S
C3435 C3434 1.391 . S
H3436 C3444 0.950 . S
H3437 C3449 0.950 . S
H3438 C3446 0.950 . S
H3439 C3448 0.950 . S
H3440 C3450 0.950 1_455 S
H3441 C3452 0.950 . S
H3442 C3454 0.950 . S
H3443 C3455 0.950 1_545 S
C3444 H3436 0.950 . S
C3444 C3445 1.386 . S
C3444 C3446 1.391 . S
C3445 C3444 1.386 . S
C3445 C3449 1.393 . S
C3446 H3438 0.950 . S
C3446 C3444 1.391 . S
C3446 C3447 1.400 . S
C3447 C3446 1.400 . S
C3447 C3448 1.398 . S
C3447 C3453 1.491 . S
C3448 H3439 0.950 . S
C3448 C3447 1.398 . S
C3448 C3449 1.391 . S
C3449 H3437 0.950 . S
C3449 C3445 1.393 . S
C3449 C3448 1.391 . S
C3450 H3440 0.950 1_655 S
C3450 C3451 1.386 . S
C3450 C3452 1.391 . S
C3451 C3450 1.386 . S
C3451 C3455 1.393 . S
C3452 H3441 0.950 . S
C3452 C3450 1.391 . S
C3452 C3453 1.400 . S
C3453 C3447 1.491 . S
C3453 C3452 1.400 . S
C3453 C3454 1.398 . S
C3454 H3442 0.950 . S
C3454 C3453 1.398 . S
C3454 C3455 1.391 . S
C3455 H3443 0.950 1_565 S
C3455 C3451 1.393 . S
C3455 C3454 1.391 . S
H3456 C3464 0.950 . S
H3457 C3469 0.950 . S
H3458 C3466 0.950 . S
H3459 C3468 0.950 . S
H3460 C3470 0.950 . S
H3461 C3472 0.950 . S
H3462 C3474 0.950 . S
H3463 C3475 0.950 . S
C3464 H3456 0.950 . S
C3464 C3465 1.386 . S
C3464 C3466 1.391 . S
C3465 C3464 1.386 . S
C3465 C3469 1.393 . S
C3466 H3458 0.950 . S
C3466 C3464 1.391 . S
C3466 C3467 1.400 . S
C3467 C3466 1.400 . S
C3467 C3468 1.398 . S
C3467 C3473 1.491 . S
C3468 H3459 0.950 . S
C3468 C3467 1.398 . S
C3468 C3469 1.391 . S
C3469 H3457 0.950 . S
C3469 C3465 1.393 . S
C3469 C3468 1.391 . S
C3470 H3460 0.950 . S
C3470 C3471 1.386 . S
C3470 C3472 1.391 . S
C3471 C3470 1.386 . S
C3471 C3475 1.393 . S
C3472 H3461 0.950 . S
C3472 C3470 1.391 . S
C3472 C3473 1.400 . S
C3473 C3467 1.491 . S
C3473 C3472 1.400 . S
C3473 C3474 1.398 . S
C3474 H3462 0.950 . S
C3474 C3473 1.398 . S
C3474 C3475 1.391 . S
C3475 H3463 0.950 . S
C3475 C3471 1.393 . S
C3475 C3474 1.391 . S
H3476 C3484 0.930 1_556 S
H3477 C3489 0.950 . S
H3478 C3486 0.950 1_556 S
H3479 C3488 0.950 . S
H3480 C3490 0.950 . S
H3481 C3492 0.950 . S
H3482 C3494 0.950 1_556 S
H3483 C3495 0.950 . S
C3484 H3476 0.930 1_554 S
C3484 C3485 1.386 . S
C3484 C3486 1.391 . S
C3485 C3484 1.386 . S
C3485 C3489 1.393 . S
C3486 H3478 0.950 1_554 S
C3486 C3484 1.391 . S
C3486 C3487 1.400 . S
C3487 C3486 1.400 . S
C3487 C3488 1.398 . S
C3487 C3493 1.491 . S
C3488 H3479 0.950 . S
C3488 C3487 1.398 . S
C3488 C3489 1.391 . S
C3489 H3477 0.950 . S
C3489 C3485 1.393 . S
C3489 C3488 1.391 . S
C3490 H3480 0.950 . S
C3490 C3491 1.386 . S
C3490 C3492 1.391 . S
C3491 C3490 1.386 . S
C3491 C3495 1.393 1_554 S
C3492 H3481 0.950 . S
C3492 C3490 1.391 . S
C3492 C3493 1.400 . S
C3493 C3487 1.491 . S
C3493 C3492 1.400 . S
C3493 C3494 1.398 . S
C3494 H3482 0.950 1_554 S
C3494 C3493 1.398 . S
C3494 C3495 1.391 1_554 S
C3495 H3483 0.950 . S
C3495 C3491 1.393 1_556 S
C3495 C3494 1.391 1_556 S
H3496 C3504 0.950 . S
H3497 C3509 0.950 . S
H3498 C3506 0.950 . S
H3499 C3508 0.950 . S
H3500 C3510 0.950 . S
H3501 C3512 0.950 . S
H3502 C3514 0.950 . S
H3503 C3515 0.950 . S
C3504 H3496 0.950 . S
C3504 C3505 1.386 . S
C3504 C3506 1.391 . S
C3505 C3504 1.386 . S
C3505 C3509 1.393 . S
C3506 H3498 0.950 . S
C3506 C3504 1.391 . S
C3506 C3507 1.400 . S
C3507 C3506 1.400 . S
C3507 C3508 1.398 . S
C3507 C3513 1.491 . S
C3508 H3499 0.950 . S
C3508 C3507 1.398 . S
C3508 C3509 1.391 . S
C3509 H3497 0.950 . S
C3509 C3505 1.393 . S
C3509 C3508 1.391 . S
C3510 H3500 0.950 . S
C3510 C3511 1.386 . S
C3510 C3512 1.391 . S
C3511 C3510 1.386 . S
C3511 C3515 1.393 . S
C3512 H3501 0.950 . S
C3512 C3510 1.391 . S
C3512 C3513 1.400 . S
C3513 C3507 1.491 . S
C3513 C3512 1.400 . S
C3513 C3514 1.398 . S
C3514 H3502 0.950 . S
C3514 C3513 1.398 . S
C3514 C3515 1.391 . S
C3515 H3503 0.950 . S
C3515 C3511 1.393 . S
C3515 C3514 1.391 . S
H3516 C3524 0.950 . S
H3517 C3529 0.950 . S
H3518 C3526 0.950 . S
H3519 C3528 0.950 . S
H3520 C3530 0.950 . S
H3521 C3532 0.950 . S
H3522 C3534 0.950 . S
H3523 C3535 0.950 . S
C3524 H3516 0.950 . S
C3524 C3525 1.386 . S
C3524 C3526 1.391 . S
C3525 C3524 1.386 . S
C3525 C3529 1.393 . S
C3526 H3518 0.950 . S
C3526 C3524 1.391 . S
C3526 C3527 1.400 . S
C3527 C3526 1.400 . S
C3527 C3528 1.398 . S
C3527 C3533 1.491 . S
C3528 H3519 0.950 . S
C3528 C3527 1.398 . S
C3528 C3529 1.391 . S
C3529 H3517 0.950 . S
C3529 C3525 1.393 . S
C3529 C3528 1.391 . S
C3530 H3520 0.950 . S
C3530 C3531 1.386 . S
C3530 C3532 1.391 . S
C3531 C3530 1.386 . S
C3531 C3535 1.393 . S
C3532 H3521 0.950 . S
C3532 C3530 1.391 . S
C3532 C3533 1.400 . S
C3533 C3527 1.491 . S
C3533 C3532 1.400 . S
C3533 C3534 1.398 . S
C3534 H3522 0.950 . S
C3534 C3533 1.398 . S
C3534 C3535 1.391 . S
C3535 H3523 0.950 . S
C3535 C3531 1.393 . S
C3535 C3534 1.391 . S
H3536 C3544 0.950 . S
H3537 C3549 0.950 . S
H3538 C3546 0.950 . S
H3539 C3548 0.950 . S
H3540 C3550 0.950 . S
H3541 C3552 0.950 . S
H3542 C3554 0.950 . S
H3543 C3555 0.950 . S
C3544 H3536 0.950 . S
C3544 C3545 1.386 . S
C3544 C3546 1.391 . S
C3545 C3544 1.386 . S
C3545 C3549 1.393 . S
C3546 H3538 0.950 . S
C3546 C3544 1.391 . S
C3546 C3547 1.400 . S
C3547 C3546 1.400 . S
C3547 C3548 1.398 . S
C3547 C3553 1.491 . S
C3548 H3539 0.950 . S
C3548 C3547 1.398 . S
C3548 C3549 1.391 . S
C3549 H3537 0.950 . S
C3549 C3545 1.393 . S
C3549 C3548 1.391 . S
C3550 H3540 0.950 . S
C3550 C3551 1.386 . S
C3550 C3552 1.391 . S
C3551 C3550 1.386 . S
C3551 C3555 1.393 . S
C3552 H3541 0.950 . S
C3552 C3550 1.391 . S
C3552 C3553 1.400 . S
C3553 C3547 1.491 . S
C3553 C3552 1.400 . S
C3553 C3554 1.398 . S
C3554 H3542 0.950 . S
C3554 C3553 1.398 . S
C3554 C3555 1.391 . S
C3555 H3543 0.950 . S
C3555 C3551 1.393 . S
C3555 C3554 1.391 . S
H3556 C3564 0.950 . S
H3557 C3569 0.950 . S
H3558 C3566 0.950 . S
H3559 C3568 0.950 . S
H3560 C3570 0.950 . S
H3561 C3572 0.950 . S
H3562 C3574 0.950 . S
H3563 C3575 0.950 . S
C3564 H3556 0.950 . S
C3564 C3565 1.386 . S
C3564 C3566 1.391 . S
C3565 C3564 1.386 . S
C3565 C3569 1.393 . S
C3566 H3558 0.950 . S
C3566 C3564 1.391 . S
C3566 C3567 1.400 . S
C3567 C3566 1.400 . S
C3567 C3568 1.398 . S
C3567 C3573 1.491 . S
C3568 H3559 0.950 . S
C3568 C3567 1.398 . S
C3568 C3569 1.391 . S
C3569 H3557 0.950 . S
C3569 C3565 1.393 . S
C3569 C3568 1.391 . S
C3570 H3560 0.950 . S
C3570 C3571 1.386 . S
C3570 C3572 1.391 . S
C3571 C3570 1.386 . S
C3571 C3575 1.393 . S
C3572 H3561 0.950 . S
C3572 C3570 1.391 . S
C3572 C3573 1.400 . S
C3573 C3567 1.491 . S
C3573 C3572 1.400 . S
C3573 C3574 1.398 . S
C3574 H3562 0.950 . S
C3574 C3573 1.398 . S
C3574 C3575 1.391 . S
C3575 H3563 0.950 . S
C3575 C3571 1.393 . S
C3575 C3574 1.391 . S
C1665 C101 1.720 . S
C1671 C379 1.543 . S
C1685 C57 2.174 . S
C1691 C462 2.125 . S
C1705 C70 1.396 . S
C1711 C547 1.268 . S
C1731 C627 1.455 . S
C1725 C82 1.564 . S
C1745 C23 1.596 . S
C1751 C711 1.588 . S
C1771 C804 0.864 . S
C1765 C29 0.920 . S
C1791 C882 0.815 . S
C1785 C49 0.772 . S
C1805 C10 1.542 . S
C1811 C967 1.319 . S
C1831 C378 1.936 . S
C1825 C218 2.025 . S
C1845 C226 0.724 . S
C1851 C459 0.758 . S
C1871 C546 1.201 . S
C1865 C251 1.244 . S
C1891 C631 1.400 . S
C1885 C159 1.537 . S
C1905 C211 2.092 . S
C1911 C715 1.898 . S
C1931 C807 1.106 . S
C1925 C225 1.215 . S
C1951 C879 0.760 . S
C1945 C252 0.802 . S
C1971 C966 1.451 . S
C1965 C166 1.604 . S
C1991 C375 1.431 . S
C1985 C147 1.486 . S
C2005 C263 1.888 . S
C2011 C1050 1.822 1_556 S
C2031 C1124 2.152 . S
C2025 C309 2.360 . S
C2051 C1219 0.613 1_655 S
C2045 C291 0.345 . S
C2065 C108 1.078 . S
C2071 C963 1.138 . S
C2085 C121 1.485 . S
C2091 C543 1.493 . S
C2105 C302 2.179 . S
C2111 C1302 2.107 . S
C2131 C1387 0.668 . S
C2125 C276 0.671 . S
C2151 C368 1.812 1_565 S
C2145 C55 1.932 . S
C2171 C1395 2.354 . S
C2165 C96 2.392 . S
C2185 C88 1.758 . S
C2191 C536 1.656 . S
C2205 C75 1.784 . S
C2211 C1308 1.652 . S
C2231 C720 1.619 . S
C2225 C4 1.656 . S
C2245 C44 1.164 . S
C2251 C1131 1.043 . S
C2271 C891 1.206 1_565 S
C2265 C31 1.210 . S
C2291 C1460 1.497 . S
C2285 C18 1.631 . S
C2311 C387 2.203 . S
C2305 C133 2.299 . S
C2331 C1392 0.856 . S
C2325 C296 0.871 . S
C2345 C107 1.422 . S
C2351 C555 1.370 . S
C2365 C264 1.868 . S
C2371 C1292 1.755 . S
C2385 C140 2.286 . S
C2391 C704 2.145 . S
C2411 C1134 1.246 . S
C2405 C289 1.349 . S
C2425 C114 0.994 . S
C2431 C888 0.947 . S
C2445 C265 1.849 . S
C2451 C1479 1.738 . S
C2465 C179 1.592 . S
C2471 C384 1.463 . S
C2485 C161 2.138 . S
C2491 C1059 2.048 . S
C2505 C244 2.602 . S
C2511 C799 2.437 . S
C2525 C224 0.843 . S
C2531 C1208 0.827 . S
C2551 C1476 0.944 . S
C2545 C257 0.930 1_565 S
C2565 C199 1.586 . S
C2571 C552 1.516 . S
C2591 C639 2.335 . S
C2585 C237 2.442 . S
C2611 C452 0.945 . S
C2605 C185 0.987 . S
C2625 C69 1.720 . S
C2631 C1555 1.542 . S
C2651 C1386 2.134 . S
C2645 C83 2.170 . S
C2665 C94 1.397 . S
C2671 C1639 1.282 . S
C2685 C56 1.556 . S
C2691 C1299 1.447 . S
C2705 C42 1.609 . S
C2711 C1047 1.600 . S
C2731 C1140 0.892 . S
C2725 C3 0.913 . S
C2751 C1218 0.813 . S
C2745 C16 0.769 . S
C2771 C1471 1.328 . S
C2765 C36 1.550 . S
C2791 C1554 1.940 . S
C2785 C238 2.026 . S
C2805 C174 0.743 . S
C2811 C1383 0.734 . S
C2831 C1638 1.205 . S
C2825 C186 1.263 . S
C2851 C1303 1.434 . S
C2845 C198 1.536 . S
C2871 C1051 1.900 . S
C2865 C239 2.094 . S
C2885 C173 1.207 . S
C2891 C1143 1.114 . S
C2911 C1215 0.813 . S
C2905 C187 0.791 . S
C2925 C205 1.597 . S
C2931 C1470 1.438 . S
C2951 C1551 1.434 . S
C2945 C290 1.484 . S
C2965 C122 1.890 . S
C2971 C714 1.823 . S
C2991 C788 2.169 . S
C2985 C134 2.380 . S
C3011 C883 0.622 . S
C3005 C148 0.350 . S
C3031 C1467 1.132 . S
C3025 C283 1.069 . S
C3045 C270 1.502 . S
C3051 C1635 1.467 . S
C3071 C630 2.107 . S
C3065 C135 2.170 . S
C3091 C463 0.665 . S
C3085 C109 0.664 . S
C3105 C81 1.924 . S
C3111 C1544 1.798 . S
C3131 C471 2.340 . S
C3125 C68 2.397 . S
C3145 C62 1.758 . S
C3151 C1628 1.660 . S
C3165 C95 1.788 . S
C3171 C636 1.622 . S
C3185 C30 1.661 . S
C3191 C1056 1.606 . S
C3211 C795 1.055 . S
C3205 C17 1.150 . S
C3225 C5 1.205 . S
C3231 C1227 1.211 . S
C3245 C43 1.634 . S
C3251 C956 1.512 . S
C3271 C1563 2.186 . S
C3265 C304 2.299 . S
C3285 C153 0.870 . S
C3291 C468 0.859 . S
C3311 C1647 1.363 . S
C3305 C278 1.423 . S
C3325 C127 1.867 . S
C3331 C620 1.754 . S
C3345 C303 2.272 . S
C3351 C1040 2.122 . S
C3371 C798 1.263 . S
C3365 C146 1.348 . S
C3385 C277 0.994 . S
C3391 C1224 0.889 . S
C3411 C975 1.711 . S
C3405 C120 1.842 . S
C3431 C1560 1.493 . S
C3425 C231 1.591 . S
C3451 C723 2.044 1_665 S
C3445 C200 2.136 . S
C3465 C212 2.604 . S
C3471 C1135 2.436 . S
C3491 C872 0.826 . S
C3485 C172 0.842 . S
C3505 C192 0.948 . S
C3511 C972 0.925 . S
C3525 C160 1.584 . S
C3531 C1644 1.520 . S
C3551 C1311 2.351 . S
C3545 C213 2.444 1_565 S
C3571 C1376 0.948 . S
C3565 C250 0.989 . S
