# Generated by pormake.
# Topology tsx, (6,3)-cn, num edge types: 1
# Building blocks:
#     Node 0, Type 0, BuildingBlock: LEVNOQ01_clean_sbu_1, # of connection points: 6
#     Node 1, Type 0, BuildingBlock: LEVNOQ01_clean_sbu_1, # of connection points: 6
#     Node 2, Type 1, BuildingBlock: OLANEW_clean_sbu_2, # of connection points: 3
#     Node 3, Type 1, BuildingBlock: OLANEW_clean_sbu_2, # of connection points: 3
#     Node 4, Type 1, BuildingBlock: OLANEW_clean_sbu_2, # of connection points: 3
#     Node 5, Type 1, BuildingBlock: OLANEW_clean_sbu_2, # of connection points: 3
#     Edge 6, Type (0, 1), BuildingBlock: XUDNAN_clean_linker_2, # of connection points: 2
#     Edge 7, Type (0, 1), BuildingBlock: XUDNAN_clean_linker_2, # of connection points: 2
#     Edge 8, Type (0, 1), BuildingBlock: XUDNAN_clean_linker_2, # of connection points: 2
#     Edge 9, Type (0, 1), BuildingBlock: XUDNAN_clean_linker_2, # of connection points: 2
#     Edge 10, Type (0, 1), BuildingBlock: XUDNAN_clean_linker_2, # of connection points: 2
#     Edge 11, Type (0, 1), BuildingBlock: XUDNAN_clean_linker_2, # of connection points: 2
#     Edge 12, Type (0, 1), BuildingBlock: XUDNAN_clean_linker_2, # of connection points: 2
#     Edge 13, Type (0, 1), BuildingBlock: XUDNAN_clean_linker_2, # of connection points: 2
#     Edge 14, Type (0, 1), BuildingBlock: XUDNAN_clean_linker_2, # of connection points: 2
#     Edge 15, Type (0, 1), BuildingBlock: XUDNAN_clean_linker_2, # of connection points: 2
#     Edge 16, Type (0, 1), BuildingBlock: XUDNAN_clean_linker_2, # of connection points: 2
#     Edge 17, Type (0, 1), BuildingBlock: XUDNAN_clean_linker_2, # of connection points: 2
# Relax obj value: 0.040
# Max RMSD: 0.095
# Mean RMSD: 0.049
data_MOF--net-tsx--node1-LEVNOQ01_clean_sbu_1--node2-OLANEW_clean_sbu_2--edge1-XUDNAN_clean_linker_2
_symmetry_space_group_name_H-M    P1
_symmetry_Int_Tables_number       1
_symmetry_cell_setting            triclinic
loop_
_symmetry_equiv_pos_as_xyz
'x, y, z'
_cell_length_a     20.481493
_cell_length_b     24.567365
_cell_length_c     34.632977
_cell_angle_alpha  103.18973
_cell_angle_beta   90.583839
_cell_angle_gamma 90.798133
loop_
_atom_site_label
_atom_site_type_symbol
_atom_site_fract_x
_atom_site_fract_y
_atom_site_fract_z
_atom_type_partial_charge
O0 O 0.15374 0.04976 0.10088 0.0
Mg1 Mg 0.1967 0.03118 0.04428 0.0
O2 O 0.05362 0.0224 0.07848 0.0
Mg3 Mg 0.04985 0.01075 0.00905 0.0
O4 O 0.14033 0.06614 0.00799 0.0
O5 O 0.24344 0.09289 0.02266 0.0
O6 O 0.04543 -0.00123 0.94047 0.0
O7 O 0.9957 0.09874 0.01701 0.0
Mg8 Mg 0.92188 0.01298 0.99334 0.0
O9 O 0.96235 0.9467 0.0098 0.0
O10 O 0.94292 0.0224 0.9353 0.0
O11 O 0.89938 0.08247 0.03808 0.0
O12 O 0.85641 0.95136 0.99256 0.0
C13 C 0.16599 0.91111 0.00531 0.0
C14 C 0.09456 0.03873 0.1071 0.0
C15 C 0.18865 0.09985 0.00587 0.0
C16 C 0.99802 0.01005 0.91962 0.0
C17 C 0.94159 0.11728 0.03229 0.0
C18 C 0.90363 0.92509 0.0047 0.0
O19 O 0.21122 0.94555 0.02015 0.0
O20 O 0.10832 0.92755 0.00015 0.0
O21 O 0.61166 0.55215 0.61534 0.0
Mg22 Mg 0.6705 0.53956 0.56549 0.0
O23 O 0.52458 0.51969 0.57821 0.0
Mg24 Mg 0.54749 0.51788 0.51119 0.0
O25 O 0.63628 0.57921 0.52349 0.0
O26 O 0.72902 0.60373 0.55822 0.0
O27 O 0.57041 0.51723 0.44462 0.0
O28 O 0.48123 0.59687 0.51828 0.0
Mg29 Mg 0.42474 0.48918 0.45463 0.0
O30 O 0.46177 0.45369 0.49732 0.0
O31 O 0.48665 0.48015 0.40618 0.0
O32 O 0.39152 0.56912 0.48203 0.0
O33 O 0.37297 0.42063 0.46124 0.0
C34 C 0.66574 0.42376 0.51612 0.0
C35 C 0.55258 0.53608 0.61209 0.0
C36 C 0.68734 0.61191 0.53199 0.0
C37 C 0.54461 0.49918 0.41027 0.0
C38 C 0.42419 0.60631 0.50627 0.0
C39 C 0.4136 0.41777 0.48942 0.0
O40 O 0.70037 0.45775 0.54136 0.0
O41 O 0.6118 0.4388 0.50337 0.0
O42 O 0.01955 0.88324 0.35409 0.0
Cd43 Cd 0.99112 0.86751 0.41946 0.0
O44 O 0.04969 0.95952 0.39582 0.0
Cd45 Cd 0.06715 0.04789 0.42062 0.0
O46 O 0.99888 0.11444 0.43898 0.0
C47 C 0.9436 0.10408 0.42169 0.0
O48 O 0.93517 0.05745 0.39452 0.0
C49 C 0.04128 0.9331 0.35994 0.0
C50 C 0.09809 0.84537 0.46329 0.0
O51 O 0.05919 0.80631 0.44519 0.0
O52 O 0.08695 0.89559 0.46069 0.0
O53 O 0.97581 0.15315 0.67224 0.0
Cd54 Cd 0.97502 0.21052 0.62411 0.0
O55 O 0.00915 0.0834 0.62591 0.0
Cd56 Cd 0.02489 -0.00391 0.59773 0.0
O57 O 0.97228 0.92722 0.55843 0.0
C58 C 0.91853 0.94014 0.54436 0.0
O59 O 0.90093 0.99271 0.55307 0.0
C60 C 0.99373 0.10275 0.66182 0.0
C61 C 0.10378 0.23175 0.60746 0.0
O62 O 0.07552 0.26108 0.63786 0.0
O63 O 0.07071 0.19263 0.58433 0.0
O64 O 0.51216 0.4311 0.87986 0.0
Cd65 Cd 0.51635 0.41162 0.94626 0.0
O66 O 0.52901 0.51957 0.90902 0.0
Cd67 Cd 0.51325 0.51179 0.96951 0.0
O68 O 0.42855 0.55993 0.99257 0.0
C69 C 0.37798 0.55234 0.97026 0.0
O70 O 0.37758 0.51174 0.93812 0.0
C71 C 0.52092 0.48161 0.8775 0.0
C72 C 0.63476 0.37261 0.96885 0.0
O73 O 0.58531 0.3397 0.95881 0.0
O74 O 0.6292 0.424 0.96752 0.0
O75 O 0.53728 0.57486 0.13203 0.0
Cd76 Cd 0.50539 0.5805 0.06532 0.0
O77 O 0.54196 0.48322 0.11636 0.0
Cd78 Cd 0.49501 0.47616 0.05846 0.0
O79 O 0.42067 0.43385 0.01634 0.0
C80 C 0.36085 0.44658 0.02111 0.0
O81 O 0.34534 0.49013 0.04909 0.0
C82 C 0.55104 0.52934 0.14143 0.0
C83 C 0.60917 0.63698 0.04098 0.0
O84 O 0.56176 0.66312 0.06043 0.0
O85 O 0.60586 0.58347 0.03081 0.0
H86 H 0.2727 0.13594 0.95753 0.0
H87 H 0.09481 0.17785 0.0225 0.0
H88 H 0.10496 0.27501 0.01479 0.0
H89 H 0.35833 0.2392 0.00384 0.0
H90 H 0.40596 0.25437 0.96395 0.0
H91 H 0.3719 0.1858 0.9595 0.0
H92 H 0.31224 0.1915 0.89429 0.0
H93 H 0.34714 0.26042 0.89821 0.0
H94 H 0.25994 0.24961 0.89336 0.0
H95 H 0.15215 0.36959 0.0195 0.0
H96 H 0.22909 0.44981 0.03515 0.0
H97 H 0.37837 0.34838 0.96716 0.0
C98 C 0.23387 0.165 0.9677 0.0
C99 C 0.18166 0.14941 0.98925 0.0
C100 C 0.13311 0.18854 0.0041 0.0
C101 C 0.1391 0.24402 0.00017 0.0
C102 C 0.19375 0.25933 0.98098 0.0
C103 C 0.23966 0.22042 0.96408 0.0
C104 C 0.30004 0.2486 0.95218 0.0
C105 C 0.36262 0.23098 0.97105 0.0
C106 C 0.30511 0.23684 0.90681 0.0
C107 C 0.28437 0.30925 0.96918 0.0
C108 C 0.22183 0.31488 0.9842 0.0
C109 C 0.20032 0.36591 0.0067 0.0
C110 C 0.24455 0.41135 0.01558 0.0
C111 C 0.3099 0.4052 0.00254 0.0
C112 C 0.32855 0.35444 0.97722 0.0
H113 H 0.25883 0.86186 0.04127 0.0
H114 H 0.10538 0.82443 0.95146 0.0
H115 H 0.13492 0.72415 0.93727 0.0
H116 H 0.376 0.77299 0.99184 0.0
H117 H 0.40679 0.75278 0.03538 0.0
H118 H 0.36939 0.81965 0.04001 0.0
H119 H 0.28753 0.79541 0.09054 0.0
H120 H 0.32464 0.72815 0.08582 0.0
H121 H 0.23823 0.73244 0.07686 0.0
H122 H 0.19029 0.62973 0.92878 0.0
H123 H 0.26484 0.55088 0.92682 0.0
H124 H 0.3772 0.65175 0.02498 0.0
C125 C 0.2311 0.8326 0.0187 0.0
C126 C 0.18037 0.85084 0.99707 0.0
C127 C 0.1446 0.81118 0.96825 0.0
C128 C 0.16091 0.75426 0.96014 0.0
C129 C 0.21192 0.73786 0.98184 0.0
C130 C 0.24586 0.77599 0.01086 0.0
C131 C 0.30001 0.74874 0.02921 0.0
C132 C 0.36697 0.77509 0.02375 0.0
C133 C 0.28678 0.75135 0.07322 0.0
C134 C 0.29355 0.6896 0.00475 0.0
C135 C 0.24204 0.68375 0.97788 0.0
C136 C 0.22996 0.63368 0.95017 0.0
C137 C 0.27258 0.58911 0.9493 0.0
C138 C 0.32669 0.59508 0.97588 0.0
C139 C 0.33583 0.64551 0.00463 0.0
H140 H 0.83152 0.90673 0.06455 0.0
H141 H 0.93568 0.82274 0.96046 0.0
H142 H 0.88006 0.73327 0.96301 0.0
H143 H 0.82127 0.78103 0.1133 0.0
H144 H 0.74116 0.8019 0.13146 0.0
H145 H 0.80157 0.85413 0.12698 0.0
H146 H 0.71999 0.89461 0.08359 0.0
H147 H 0.66025 0.84175 0.08674 0.0
H148 H 0.68677 0.84981 0.03885 0.0
H149 H 0.79741 0.65834 0.97001 0.0
H150 H 0.7005 0.60384 0.98305 0.0
H151 H 0.64986 0.73977 0.08137 0.0
C152 C 0.84499 0.8687 0.04368 0.0
C153 C 0.88858 0.87061 0.01296 0.0
C154 C 0.90364 0.82114 0.98489 0.0
C155 C 0.87202 0.77041 0.98605 0.0
C156 C 0.82643 0.77032 0.01575 0.0
C157 C 0.81416 0.81808 0.04463 0.0
C158 C 0.75788 0.80923 0.07049 0.0
C159 C 0.78191 0.8117 0.11308 0.0
C160 C 0.70303 0.85133 0.06981 0.0
C161 C 0.73702 0.75057 0.04987 0.0
C162 C 0.778 0.72802 0.01906 0.0
C163 C 0.7658 0.67524 0.99454 0.0
C164 C 0.71055 0.64477 0.00195 0.0
C165 C 0.66765 0.66795 0.03296 0.0
C166 C 0.68158 0.72124 0.05724 0.0
H167 H 0.83456 0.16902 0.06815 0.0
H168 H 0.99422 0.19126 0.99183 0.0
H169 H 0.94021 0.2734 0.97728 0.0
H170 H 0.71794 0.18286 0.00493 0.0
H171 H 0.6596 0.21882 0.03996 0.0
H172 H 0.71897 0.1749 0.05543 0.0
H173 H 0.76023 0.25725 0.11157 0.0
H174 H 0.69975 0.30149 0.09685 0.0
H175 H 0.7847 0.32233 0.09987 0.0
H176 H 0.85911 0.34207 0.9612 0.0
H177 H 0.75855 0.38689 0.94367 0.0
H178 H 0.64769 0.31059 0.02373 0.0
C179 C 0.85966 0.19275 0.04985 0.0
C180 C 0.91968 0.17451 0.03208 0.0
C181 C 0.94986 0.20564 0.00723 0.0
C182 C 0.91897 0.25219 0.99842 0.0
C183 C 0.8578 0.26694 0.01457 0.0
C184 C 0.82872 0.23824 0.04007 0.0
C185 C 0.75855 0.25544 0.04807 0.0
C186 C 0.71104 0.20501 0.03636 0.0
C187 C 0.75034 0.28595 0.09168 0.0
C188 C 0.75111 0.29526 0.02095 0.0
C189 C 0.80947 0.30328 0.0031 0.0
C190 C 0.81349 0.33664 0.97548 0.0
C191 C 0.75631 0.36176 0.96559 0.0
C192 C 0.69589 0.35164 0.98227 0.0
C193 C 0.69355 0.31868 0.01059 0.0
H194 H 0.80239 0.63195 0.50161 0.0
H195 H 0.60622 0.69445 0.52008 0.0
H196 H 0.64344 0.78489 0.50709 0.0
H197 H 0.87881 0.73621 0.55422 0.0
H198 H 0.95005 0.73884 0.52447 0.0
H199 H 0.9055 0.67441 0.51944 0.0
H200 H 0.88908 0.66692 0.4442 0.0
H201 H 0.93519 0.73125 0.44881 0.0
H202 H 0.85425 0.72436 0.42715 0.0
H203 H 0.70671 0.87348 0.51195 0.0
H204 H 0.78748 0.95015 0.53252 0.0
H205 H 0.94398 0.83042 0.51236 0.0
C206 C 0.7668 0.66383 0.50065 0.0
C207 C 0.70167 0.65672 0.51146 0.0
C208 C 0.65608 0.6991 0.51104 0.0
C209 C 0.677 0.75053 0.50373 0.0
C210 C 0.7431 0.75792 0.49606 0.0
C211 C 0.78708 0.71496 0.49336 0.0
C212 C 0.85688 0.73559 0.49188 0.0
C213 C 0.90022 0.72041 0.52447 0.0
C214 C 0.88552 0.71321 0.45055 0.0
C215 C 0.84607 0.79778 0.49923 0.0
C216 C 0.78015 0.80972 0.49964 0.0
C217 C 0.75833 0.86454 0.51049 0.0
C218 C 0.80467 0.90788 0.52233 0.0
C219 C 0.87197 0.89604 0.52418 0.0
C220 C 0.89284 0.84055 0.51101 0.0
H221 H 0.7738 0.3775 0.5411 0.0
H222 H 0.61454 0.34226 0.45481 0.0
H223 H 0.66397 0.25149 0.42443 0.0
H224 H 0.89728 0.32828 0.47705 0.0
H225 H 0.94419 0.29863 0.51129 0.0
H226 H 0.89163 0.3565 0.52973 0.0
H227 H 0.83125 0.29919 0.57313 0.0
H228 H 0.88434 0.24127 0.55513 0.0
H229 H 0.79702 0.23134 0.55033 0.0
H230 H 0.73687 0.16947 0.39961 0.0
H231 H 0.82656 0.10234 0.38266 0.0
H232 H 0.93808 0.19372 0.48484 0.0
C233 C 0.7485 0.35038 0.51625 0.0
C234 C 0.6904 0.36699 0.50023 0.0
C235 C 0.65905 0.33029 0.46761 0.0
C236 C 0.68668 0.27866 0.45023 0.0
C237 C 0.7451 0.26439 0.46614 0.0
C238 C 0.77526 0.29902 0.49868 0.0
C239 C 0.83997 0.2762 0.50848 0.0
C240 C 0.89657 0.31735 0.50648 0.0
C241 C 0.83799 0.26109 0.54918 0.0
C242 C 0.843 0.22448 0.47528 0.0
C243 C 0.78737 0.21774 0.45159 0.0
C244 C 0.7803 0.17397 0.4182 0.0
C245 C 0.83156 0.13622 0.40875 0.0
C246 C 0.88928 0.14306 0.43236 0.0
C247 C 0.89462 0.18753 0.46617 0.0
H248 H 0.35044 0.31892 0.46434 0.0
H249 H 0.44327 0.4251 0.56795 0.0
H250 H 0.39014 0.36957 0.61035 0.0
H251 H 0.20592 0.31875 0.50006 0.0
H252 H 0.18107 0.24762 0.47817 0.0
H253 H 0.24275 0.28093 0.45495 0.0
H254 H 0.32346 0.20184 0.45799 0.0
H255 H 0.26123 0.16734 0.48065 0.0
H256 H 0.3399 0.18357 0.50465 0.0
H257 H 0.30323 0.32397 0.64159 0.0
H258 H 0.19722 0.28752 0.65881 0.0
H259 H 0.16084 0.20906 0.53504 0.0
C260 C 0.36203 0.32865 0.49578 0.0
C261 C 0.40069 0.3761 0.51304 0.0
C262 C 0.4144 0.38842 0.55419 0.0
C263 C 0.38428 0.35705 0.57844 0.0
C264 C 0.34198 0.31303 0.56079 0.0
C265 C 0.33226 0.29785 0.52012 0.0
C266 C 0.27649 0.25589 0.5088 0.0
C267 C 0.22349 0.27714 0.4841 0.0
C268 C 0.30181 0.19876 0.48674 0.0
C269 C 0.25232 0.25369 0.5495 0.0
C270 C 0.29171 0.28571 0.57913 0.0
C271 C 0.27338 0.29723 0.61879 0.0
C272 C 0.21282 0.27679 0.62826 0.0
C273 C 0.17133 0.24524 0.59821 0.0
C274 C 0.1925 0.2319 0.55864 0.0
H275 H 0.30281 0.62352 0.53359 0.0
H276 H 0.4748 0.71007 0.50547 0.0
H277 H 0.40922 0.79469 0.50725 0.0
H278 H 0.20424 0.65842 0.47155 0.0
H279 H 0.13094 0.66809 0.50057 0.0
H280 H 0.19329 0.62343 0.51158 0.0
H281 H 0.20142 0.68103 0.58415 0.0
H282 H 0.13763 0.72564 0.57361 0.0
H283 H 0.21483 0.75562 0.59398 0.0
H284 H 0.32028 0.85898 0.49489 0.0
H285 H 0.21958 0.89505 0.47005 0.0
H286 H 0.10615 0.7637 0.50371 0.0
C287 C 0.32711 0.66146 0.52997 0.0
C288 C 0.39349 0.66097 0.51983 0.0
C289 C 0.42411 0.71035 0.51414 0.0
C290 C 0.38709 0.75846 0.51503 0.0
C291 C 0.32016 0.75641 0.52243 0.0
C292 C 0.29085 0.70931 0.53077 0.0
C293 C 0.21721 0.71317 0.53096 0.0
C294 C 0.18462 0.66285 0.50191 0.0
C295 C 0.19126 0.71924 0.57319 0.0
C296 C 0.20916 0.76673 0.51721 0.0
C297 C 0.26878 0.7926 0.51416 0.0
C298 C 0.27338 0.83982 0.49819 0.0
C299 C 0.21606 0.85996 0.48406 0.0
C300 C 0.15558 0.83177 0.48496 0.0
C301 C 0.152 0.7859 0.50288 0.0
H302 H 0.02022 0.96212 0.13454 0.0
H303 H 0.13202 0.11659 0.1725 0.0
H304 H 0.12278 0.10974 0.2422 0.0
H305 H 0.91177 0.98016 0.2236 0.0
H306 H 0.91526 0.90695 0.2238 0.0
H307 H 0.92056 0.92881 0.17765 0.0
H308 H 0.02942 0.87637 0.16297 0.0
H309 H 0.02531 0.85519 0.20933 0.0
H310 H 0.09608 0.89306 0.1983 0.0
H311 H 0.11945 0.07819 0.30502 0.0
H312 H 0.11092 0.02948 0.35921 0.0
H313 H 0.99636 0.89682 0.28304 0.0
C314 C 0.04025 -0.00441 0.15776 0.0
C315 C 0.076 0.0404 0.14838 0.0
C316 C 0.10395 0.08232 0.17927 0.0
C317 C 0.09904 0.0787 0.21888 0.0
C318 C 0.06619 0.03275 0.22713 0.0
C319 C 0.03638 0.99225 0.19762 0.0
C320 C 0.00953 0.94459 0.21435 0.0
C321 C 0.93483 0.93989 0.20957 0.0
C322 C 0.04204 0.88904 0.19508 0.0
C323 C 0.03 0.96429 0.25761 0.0
C324 C 0.06265 0.01519 0.26419 0.0
C325 C 0.09163 0.03944 0.3007 0.0
C326 C 0.08579 0.01168 0.33163 0.0
C327 C 0.05003 0.96071 0.32633 0.0
C328 C 0.0226 0.93647 0.28848 0.0
H329 H 0.91764 0.05724 0.87417 0.0
H330 H 0.09742 0.96481 0.86957 0.0
H331 H 0.10904 0.96746 0.79873 0.0
H332 H 0.85838 -0.00389 0.7739 0.0
H333 H 0.82703 0.06171 0.76746 0.0
H334 H 0.83006 0.04716 0.81614 0.0
H335 H 0.89821 0.13811 0.84266 0.0
H336 H 0.89458 0.15327 0.79432 0.0
H337 H 0.97261 0.14948 0.81803 0.0
H338 H 0.10194 0.98471 0.72831 0.0
H339 H 0.08452 0.02454 0.66934 0.0
H340 H 0.91187 0.10778 0.72323 0.0
C341 C 0.95904 0.03668 0.85823 0.0
C342 C 0.00624 0.01024 0.87725 0.0
C343 C 0.06047 0.98509 0.85548 0.0
C344 C 0.06719 0.98608 0.81521 0.0
C345 C 0.01939 0.01254 0.79737 0.0
C346 C 0.96675 0.03782 0.8185 0.0
C347 C 0.92498 0.06793 0.79415 0.0
C348 C 0.85603 0.04164 0.78752 0.0
C349 C 0.92251 0.1309 0.81343 0.0
C350 C 0.96286 0.05684 0.7561 0.0
C351 C 0.01643 0.02382 0.75797 0.0
C352 C 0.05984 0.01018 0.7265 0.0
C353 C 0.04934 0.03255 0.69302 0.0
C354 C 0.99667 0.06886 0.69183 0.0
C355 C 0.95223 0.07977 0.72333 0.0
H356 H 0.52387 0.44607 0.64248 0.0
H357 H 0.51343 0.62643 0.66575 0.0
H358 H 0.49179 0.6303 0.73626 0.0
H359 H 0.40009 0.42642 0.72172 0.0
H360 H 0.44772 0.37096 0.73333 0.0
H361 H 0.44555 0.38112 0.68338 0.0
H362 H 0.57171 0.3878 0.68454 0.0
H363 H 0.57461 0.37952 0.73477 0.0
H364 H 0.61278 0.43985 0.72251 0.0
H365 H 0.49599 0.61717 0.80428 0.0
H366 H 0.51054 0.58735 0.8667 0.0
H367 H 0.51804 0.41408 0.80146 0.0
C368 C 0.51306 0.48585 0.66215 0.0
C369 C 0.51813 0.53593 0.64887 0.0
C370 C 0.50758 0.58774 0.67546 0.0
C371 C 0.49574 0.59026 0.71552 0.0
C372 C 0.49463 0.54048 0.72836 0.0
C373 C 0.50144 0.489 0.70245 0.0
C374 C 0.50583 0.44267 0.72484 0.0
C375 C 0.44624 0.40295 0.71525 0.0
C376 C 0.57006 0.41062 0.71613 0.0
C377 C 0.50439 0.47659 0.76732 0.0
C378 C 0.49715 0.53279 0.76846 0.0
C379 C 0.49993 0.57316 0.80387 0.0
C380 C 0.50899 0.55571 0.8392 0.0
C381 C 0.51523 0.49826 0.8391 0.0
C382 C 0.51279 0.4582 0.80255 0.0
H383 H 0.54064 0.42581 0.33927 0.0
H384 H 0.61975 0.58748 0.3998 0.0
H385 H 0.64729 0.6079 0.335 0.0
H386 H 0.65749 0.40147 0.25144 0.0
H387 H 0.59252 0.36835 0.2185 0.0
H388 H 0.59463 0.36173 0.2693 0.0
H389 H 0.47723 0.40007 0.27834 0.0
H390 H 0.47511 0.40808 0.22814 0.0
H391 H 0.4604 0.46743 0.26834 0.0
H392 H 0.63978 0.61913 0.26468 0.0
H393 H 0.61068 0.61591 0.19469 0.0
H394 H 0.5411 0.44486 0.18016 0.0
C395 C 0.56658 0.46439 0.33882 0.0
C396 C 0.57859 0.50498 0.37421 0.0
C397 C 0.6113 0.55555 0.37287 0.0
C398 C 0.62677 0.5675 0.33621 0.0
C399 C 0.61061 0.52778 0.30154 0.0
C400 C 0.58291 0.47649 0.30265 0.0
C401 C 0.56332 0.44349 0.26166 0.0
C402 C 0.60447 0.39063 0.24951 0.0
C403 C 0.48968 0.42898 0.259 0.0
C404 C 0.5804 0.4855 0.23746 0.0
C405 C 0.60822 0.53368 0.26082 0.0
C406 C 0.62011 0.58096 0.24587 0.0
C407 C 0.60296 0.57891 0.20621 0.0
C408 C 0.57445 0.52987 0.18197 0.0
C409 C 0.5644 0.48238 0.19772 0.0
loop_
_geom_bond_atom_site_label_1
_geom_bond_atom_site_label_2
_geom_bond_distance
_geom_bond_site_symmetry_2
_ccdc_geom_bond_type
O0 Mg1 1.990 . S
O0 C14 1.253 . S
Mg1 O0 1.990 . S
Mg1 O4 2.180 . S
Mg1 O5 2.117 . S
Mg1 O19 2.030 1_545 S
O2 Mg3 2.072 . S
O2 C14 1.260 . S
Mg3 O2 2.072 . S
Mg3 O4 2.099 . S
Mg3 O6 2.079 1_554 S
Mg3 O7 2.072 1_455 S
Mg3 O9 2.099 1_444 S
Mg3 O20 2.079 1_544 S
O4 Mg1 2.180 . S
O4 Mg3 2.099 . S
O4 C15 1.279 . S
O5 Mg1 2.117 . S
O5 C15 1.250 . S
O6 Mg3 2.079 1_556 S
O6 C16 1.264 . S
O7 Mg3 2.072 1_655 S
O7 C17 1.260 . S
Mg8 O9 2.180 . S
Mg8 O10 2.030 1_565 S
Mg8 O11 1.990 1_565 S
Mg8 O12 2.117 . S
O9 Mg3 2.099 1_666 S
O9 Mg8 2.180 . S
O9 C18 1.270 1_556 S
O10 Mg8 2.030 1_545 S
O10 C16 1.248 1_655 S
O11 Mg8 1.990 1_545 S
O11 C17 1.253 1_556 S
O12 Mg8 2.117 . S
O12 C18 1.245 1_556 S
C13 O19 1.248 . S
C13 O20 1.264 1_554 S
C14 O0 1.253 . S
C14 O2 1.260 . S
C15 O4 1.279 . S
C15 O5 1.250 . S
C16 O6 1.264 . S
C16 O10 1.248 1_455 S
C17 O7 1.260 . S
C17 O11 1.253 1_554 S
C18 O9 1.270 1_554 S
C18 O12 1.245 1_554 S
O19 Mg1 2.030 1_565 S
O19 C13 1.248 . S
O20 Mg3 2.079 1_566 S
O20 C13 1.264 1_556 S
O21 Mg22 1.990 . S
O21 C35 1.253 . S
Mg22 O21 1.990 . S
Mg22 O25 2.180 . S
Mg22 O26 2.117 . S
Mg22 O40 2.030 . S
O23 Mg24 2.072 . S
O23 C35 1.260 . S
Mg24 O23 2.072 . S
Mg24 O25 2.099 . S
Mg24 O27 2.079 . S
Mg24 O28 2.072 . S
Mg24 O30 2.099 . S
Mg24 O41 2.079 . S
O25 Mg22 2.180 . S
O25 Mg24 2.099 . S
O25 C36 1.279 . S
O26 Mg22 2.117 . S
O26 C36 1.250 . S
O27 Mg24 2.079 . S
O27 C37 1.264 . S
O28 Mg24 2.072 . S
O28 C38 1.260 . S
Mg29 O30 2.180 . S
Mg29 O31 2.030 . S
Mg29 O32 1.990 . S
Mg29 O33 2.117 . S
O30 Mg24 2.099 . S
O30 Mg29 2.180 . S
O30 C39 1.279 . S
O31 Mg29 2.030 . S
O31 C37 1.248 . S
O32 Mg29 1.990 . S
O32 C38 1.253 . S
O33 Mg29 2.117 . S
O33 C39 1.250 . S
C34 O40 1.248 . S
C34 O41 1.264 . S
C35 O21 1.253 . S
C35 O23 1.260 . S
C36 O25 1.279 . S
C36 O26 1.250 . S
C37 O27 1.264 . S
C37 O31 1.248 . S
C38 O28 1.260 . S
C38 O32 1.253 . S
C39 O30 1.279 . S
C39 O33 1.250 . S
O40 Mg22 2.030 . S
O40 C34 1.248 . S
O41 Mg24 2.079 . S
O41 C34 1.264 . S
O42 Cd43 2.300 . S
O42 C49 1.275 1_565 S
Cd43 O42 2.300 . S
Cd43 O51 2.381 . S
Cd43 O52 2.378 . S
O44 Cd45 2.385 . S
O44 C49 1.255 . S
Cd45 O44 2.385 . S
Cd45 O46 2.317 1_455 S
O46 Cd45 2.317 1_655 S
O46 C47 1.232 . S
C47 O46 1.232 . S
C47 O48 1.218 . S
O48 C47 1.218 . S
C49 O42 1.275 1_545 S
C49 O44 1.255 . S
C50 O51 1.258 . S
C50 O52 1.256 . S
O51 Cd43 2.381 . S
O51 C50 1.258 . S
O52 Cd43 2.378 . S
O52 C50 1.256 . S
O53 Cd54 2.300 . S
O53 C60 1.275 . S
Cd54 O53 2.300 . S
Cd54 O62 2.381 . S
Cd54 O63 2.378 . S
O55 Cd56 2.385 . S
O55 C60 1.255 1_565 S
Cd56 O55 2.385 . S
Cd56 O57 2.317 1_455 S
O57 Cd56 2.317 1_655 S
O57 C58 1.232 . S
C58 O57 1.232 . S
C58 O59 1.218 . S
O59 C58 1.218 . S
C60 O53 1.275 . S
C60 O55 1.255 1_545 S
C61 O62 1.258 . S
C61 O63 1.256 . S
O62 Cd54 2.381 . S
O62 C61 1.258 . S
O63 Cd54 2.378 . S
O63 C61 1.256 . S
O64 Cd65 2.300 . S
O64 C71 1.275 . S
Cd65 O64 2.300 . S
Cd65 O73 2.381 . S
Cd65 O74 2.378 . S
O66 Cd67 2.385 . S
O66 C71 1.255 . S
Cd67 O66 2.385 . S
Cd67 O68 2.317 . S
O68 Cd67 2.317 . S
O68 C69 1.232 . S
C69 O68 1.232 . S
C69 O70 1.218 . S
O70 C69 1.218 . S
C71 O64 1.275 . S
C71 O66 1.255 . S
C72 O73 1.258 . S
C72 O74 1.256 . S
O73 Cd65 2.381 . S
O73 C72 1.258 . S
O74 Cd65 2.378 . S
O74 C72 1.256 . S
O75 Cd76 2.300 . S
O75 C82 1.275 . S
Cd76 O75 2.300 . S
Cd76 O84 2.381 . S
Cd76 O85 2.378 . S
O77 Cd78 2.385 . S
O77 C82 1.255 . S
Cd78 O77 2.385 . S
Cd78 O79 2.317 . S
O79 Cd78 2.317 . S
O79 C80 1.232 . S
C80 O79 1.232 . S
C80 O81 1.218 . S
O81 C80 1.218 . S
C82 O75 1.275 . S
C82 O77 1.255 . S
C83 O84 1.258 . S
C83 O85 1.256 . S
O84 Cd76 2.381 . S
O84 C83 1.258 . S
O85 Cd76 2.378 . S
O85 C83 1.256 . S
H86 C98 0.930 . S
H87 C100 0.930 . S
H88 C101 0.930 . S
H89 C105 0.959 . S
H90 C105 0.959 . S
H91 C105 0.961 . S
H92 C106 0.960 . S
H93 C106 0.961 . S
H94 C106 0.959 . S
H95 C109 0.929 . S
H96 C110 0.931 . S
H97 C112 0.930 1_556 S
C98 H86 0.930 . S
C98 C99 1.399 1_556 S
C98 C103 1.399 1_556 S
C99 C98 1.399 1_554 S
C99 C100 1.376 . S
C100 H87 0.930 . S
C100 C99 1.376 . S
C100 C101 1.388 . S
C101 H88 0.930 . S
C101 C100 1.388 . S
C101 C102 1.390 . S
C102 C101 1.390 . S
C102 C103 1.394 . S
C102 C108 1.465 . S
C103 C98 1.399 1_554 S
C103 C102 1.394 . S
C103 C104 1.516 1_554 S
C104 C103 1.516 1_556 S
C104 C105 1.502 . S
C104 C106 1.561 . S
C104 C107 1.526 1_556 S
C105 H89 0.959 . S
C105 H90 0.959 . S
C105 H91 0.961 . S
C105 C104 1.502 . S
C106 H92 0.960 . S
C106 H93 0.961 . S
C106 H94 0.959 . S
C106 C104 1.561 . S
C107 C104 1.526 1_554 S
C107 C108 1.396 . S
C107 C112 1.390 . S
C108 C102 1.465 . S
C108 C107 1.396 . S
C108 C109 1.399 . S
C109 H95 0.929 . S
C109 C108 1.399 . S
C109 C110 1.385 . S
C110 H96 0.931 . S
C110 C109 1.385 . S
C110 C111 1.389 . S
C111 C110 1.389 . S
C111 C112 1.387 . S
C112 H97 0.930 1_554 S
C112 C107 1.390 . S
C112 C111 1.387 . S
H113 C125 0.930 . S
H114 C127 0.930 . S
H115 C128 0.930 . S
H116 C132 0.959 . S
H117 C132 0.959 . S
H118 C132 0.961 . S
H119 C133 0.960 . S
H120 C133 0.961 . S
H121 C133 0.959 . S
H122 C136 0.929 . S
H123 C137 0.931 . S
H124 C139 0.930 . S
C125 H113 0.930 . S
C125 C126 1.399 1_554 S
C125 C130 1.399 . S
C126 C125 1.399 1_556 S
C126 C127 1.376 . S
C127 H114 0.930 . S
C127 C126 1.376 . S
C127 C128 1.388 . S
C128 H115 0.930 . S
C128 C127 1.388 . S
C128 C129 1.390 . S
C129 C128 1.390 . S
C129 C130 1.394 1_556 S
C129 C135 1.465 . S
C130 C125 1.399 . S
C130 C129 1.394 1_554 S
C130 C131 1.516 . S
C131 C130 1.516 . S
C131 C132 1.502 . S
C131 C133 1.561 . S
C131 C134 1.526 . S
C132 H116 0.959 . S
C132 H117 0.959 . S
C132 H118 0.961 . S
C132 C131 1.502 . S
C133 H119 0.960 . S
C133 H120 0.961 . S
C133 H121 0.959 . S
C133 C131 1.561 . S
C134 C131 1.526 . S
C134 C135 1.396 1_554 S
C134 C139 1.390 . S
C135 C129 1.465 . S
C135 C134 1.396 1_556 S
C135 C136 1.399 . S
C136 H122 0.929 . S
C136 C135 1.399 . S
C136 C137 1.385 . S
C137 H123 0.931 . S
C137 C136 1.385 . S
C137 C138 1.389 . S
C138 C137 1.389 . S
C138 C139 1.387 1_556 S
C139 H124 0.930 . S
C139 C134 1.390 . S
C139 C138 1.387 1_554 S
H140 C152 0.930 . S
H141 C154 0.930 . S
H142 C155 0.930 . S
H143 C159 0.959 . S
H144 C159 0.959 . S
H145 C159 0.961 . S
H146 C160 0.960 . S
H147 C160 0.961 . S
H148 C160 0.959 . S
H149 C163 0.929 . S
H150 C164 0.931 . S
H151 C166 0.930 . S
C152 H140 0.930 . S
C152 C153 1.399 . S
C152 C157 1.399 . S
C153 C152 1.399 . S
C153 C154 1.376 1_554 S
C154 H141 0.930 . S
C154 C153 1.376 1_556 S
C154 C155 1.388 . S
C155 H142 0.930 . S
C155 C154 1.388 . S
C155 C156 1.390 1_556 S
C156 C155 1.390 1_554 S
C156 C157 1.394 . S
C156 C162 1.465 . S
C157 C152 1.399 . S
C157 C156 1.394 . S
C157 C158 1.516 . S
C158 C157 1.516 . S
C158 C159 1.502 . S
C158 C160 1.561 . S
C158 C161 1.526 . S
C159 H143 0.959 . S
C159 H144 0.959 . S
C159 H145 0.961 . S
C159 C158 1.502 . S
C160 H146 0.960 . S
C160 H147 0.961 . S
C160 H148 0.959 . S
C160 C158 1.561 . S
C161 C158 1.526 . S
C161 C162 1.396 . S
C161 C166 1.390 . S
C162 C156 1.465 . S
C162 C161 1.396 . S
C162 C163 1.399 1_554 S
C163 H149 0.929 . S
C163 C162 1.399 1_556 S
C163 C164 1.385 . S
C164 H150 0.931 . S
C164 C163 1.385 . S
C164 C165 1.389 1_556 S
C165 C164 1.389 1_554 S
C165 C166 1.387 . S
C166 H151 0.930 . S
C166 C161 1.390 . S
C166 C165 1.387 . S
H167 C179 0.930 . S
H168 C181 0.930 . S
H169 C182 0.930 . S
H170 C186 0.959 . S
H171 C186 0.959 . S
H172 C186 0.961 . S
H173 C187 0.960 . S
H174 C187 0.961 . S
H175 C187 0.959 . S
H176 C190 0.929 . S
H177 C191 0.931 . S
H178 C193 0.930 . S
C179 H167 0.930 . S
C179 C180 1.411 . S
C179 C184 1.399 . S
C180 C179 1.411 . S
C180 C181 1.356 1_554 S
C181 H168 0.930 . S
C181 C180 1.356 1_556 S
C181 C182 1.388 . S
C182 H169 0.930 . S
C182 C181 1.388 . S
C182 C183 1.390 . S
C183 C182 1.390 . S
C183 C184 1.394 1_556 S
C183 C189 1.465 . S
C184 C179 1.399 . S
C184 C183 1.394 1_554 S
C184 C185 1.516 . S
C185 C184 1.516 . S
C185 C186 1.502 . S
C185 C187 1.561 . S
C185 C188 1.526 . S
C186 H170 0.959 . S
C186 H171 0.959 . S
C186 H172 0.961 . S
C186 C185 1.502 . S
C187 H173 0.960 . S
C187 H174 0.961 . S
C187 H175 0.959 . S
C187 C185 1.561 . S
C188 C185 1.526 . S
C188 C189 1.396 1_554 S
C188 C193 1.390 . S
C189 C183 1.465 . S
C189 C188 1.396 1_556 S
C189 C190 1.399 . S
C190 H176 0.929 . S
C190 C189 1.399 . S
C190 C191 1.385 . S
C191 H177 0.931 . S
C191 C190 1.385 . S
C191 C192 1.389 . S
C192 C191 1.389 . S
C192 C193 1.387 1_556 S
C193 H178 0.930 . S
C193 C188 1.390 . S
C193 C192 1.387 1_554 S
H194 C206 0.930 . S
H195 C208 0.930 . S
H196 C209 0.930 . S
H197 C213 0.959 . S
H198 C213 0.959 . S
H199 C213 0.961 . S
H200 C214 0.960 . S
H201 C214 0.961 . S
H202 C214 0.959 . S
H203 C217 0.929 . S
H204 C218 0.931 . S
H205 C220 0.930 . S
C206 H194 0.930 . S
C206 C207 1.399 . S
C206 C211 1.399 . S
C207 C206 1.399 . S
C207 C208 1.376 . S
C208 H195 0.930 . S
C208 C207 1.376 . S
C208 C209 1.388 . S
C209 H196 0.930 . S
C209 C208 1.388 . S
C209 C210 1.390 . S
C210 C209 1.390 . S
C210 C211 1.394 . S
C210 C216 1.465 . S
C211 C206 1.399 . S
C211 C210 1.394 . S
C211 C212 1.516 . S
C212 C211 1.516 . S
C212 C213 1.502 . S
C212 C214 1.561 . S
C212 C215 1.526 . S
C213 H197 0.959 . S
C213 H198 0.959 . S
C213 H199 0.961 . S
C213 C212 1.502 . S
C214 H200 0.960 . S
C214 H201 0.961 . S
C214 H202 0.959 . S
C214 C212 1.561 . S
C215 C212 1.526 . S
C215 C216 1.396 . S
C215 C220 1.390 . S
C216 C210 1.465 . S
C216 C215 1.396 . S
C216 C217 1.399 . S
C217 H203 0.929 . S
C217 C216 1.399 . S
C217 C218 1.385 . S
C218 H204 0.931 . S
C218 C217 1.385 . S
C218 C219 1.389 . S
C219 C218 1.389 . S
C219 C220 1.387 . S
C220 H205 0.930 . S
C220 C215 1.390 . S
C220 C219 1.387 . S
H221 C233 0.930 . S
H222 C235 0.930 . S
H223 C236 0.930 . S
H224 C240 0.959 . S
H225 C240 0.959 . S
H226 C240 0.961 . S
H227 C241 0.960 . S
H228 C241 0.961 . S
H229 C241 0.959 . S
H230 C244 0.929 . S
H231 C245 0.931 . S
H232 C247 0.930 . S
C233 H221 0.930 . S
C233 C234 1.399 . S
C233 C238 1.399 . S
C234 C233 1.399 . S
C234 C235 1.376 . S
C235 H222 0.930 . S
C235 C234 1.376 . S
C235 C236 1.388 . S
C236 H223 0.930 . S
C236 C235 1.388 . S
C236 C237 1.390 . S
C237 C236 1.390 . S
C237 C238 1.394 . S
C237 C243 1.465 . S
C238 C233 1.399 . S
C238 C237 1.394 . S
C238 C239 1.516 . S
C239 C238 1.516 . S
C239 C240 1.502 . S
C239 C241 1.561 . S
C239 C242 1.526 . S
C240 H224 0.959 . S
C240 H225 0.959 . S
C240 H226 0.961 . S
C240 C239 1.502 . S
C241 H227 0.960 . S
C241 H228 0.961 . S
C241 H229 0.959 . S
C241 C239 1.561 . S
C242 C239 1.526 . S
C242 C243 1.396 . S
C242 C247 1.390 . S
C243 C237 1.465 . S
C243 C242 1.396 . S
C243 C244 1.399 . S
C244 H230 0.929 . S
C244 C243 1.399 . S
C244 C245 1.385 . S
C245 H231 0.931 . S
C245 C244 1.385 . S
C245 C246 1.389 . S
C246 C245 1.389 . S
C246 C247 1.387 . S
C247 H232 0.930 . S
C247 C242 1.390 . S
C247 C246 1.387 . S
H248 C260 0.930 . S
H249 C262 0.930 . S
H250 C263 0.930 . S
H251 C267 0.959 . S
H252 C267 0.959 . S
H253 C267 0.961 . S
H254 C268 0.960 . S
H255 C268 0.961 . S
H256 C268 0.959 . S
H257 C271 0.929 . S
H258 C272 0.931 . S
H259 C274 0.930 . S
C260 H248 0.930 . S
C260 C261 1.399 . S
C260 C265 1.399 . S
C261 C260 1.399 . S
C261 C262 1.376 . S
C262 H249 0.930 . S
C262 C261 1.376 . S
C262 C263 1.388 . S
C263 H250 0.930 . S
C263 C262 1.388 . S
C263 C264 1.390 . S
C264 C263 1.390 . S
C264 C265 1.394 . S
C264 C270 1.465 . S
C265 C260 1.399 . S
C265 C264 1.394 . S
C265 C266 1.516 . S
C266 C265 1.516 . S
C266 C267 1.502 . S
C266 C268 1.561 . S
C266 C269 1.526 . S
C267 H251 0.959 . S
C267 H252 0.959 . S
C267 H253 0.961 . S
C267 C266 1.502 . S
C268 H254 0.960 . S
C268 H255 0.961 . S
C268 H256 0.959 . S
C268 C266 1.561 . S
C269 C266 1.526 . S
C269 C270 1.396 . S
C269 C274 1.390 . S
C270 C264 1.465 . S
C270 C269 1.396 . S
C270 C271 1.399 . S
C271 H257 0.929 . S
C271 C270 1.399 . S
C271 C272 1.385 . S
C272 H258 0.931 . S
C272 C271 1.385 . S
C272 C273 1.389 . S
C273 C272 1.389 . S
C273 C274 1.387 . S
C274 H259 0.930 . S
C274 C269 1.390 . S
C274 C273 1.387 . S
H275 C287 0.930 . S
H276 C289 0.930 . S
H277 C290 0.930 . S
H278 C294 0.959 . S
H279 C294 0.959 . S
H280 C294 0.961 . S
H281 C295 0.960 . S
H282 C295 0.961 . S
H283 C295 0.959 . S
H284 C298 0.929 . S
H285 C299 0.931 . S
H286 C301 0.930 . S
C287 H275 0.930 . S
C287 C288 1.399 . S
C287 C292 1.399 . S
C288 C287 1.399 . S
C288 C289 1.376 . S
C289 H276 0.930 . S
C289 C288 1.376 . S
C289 C290 1.388 . S
C290 H277 0.930 . S
C290 C289 1.388 . S
C290 C291 1.390 . S
C291 C290 1.390 . S
C291 C292 1.394 . S
C291 C297 1.465 . S
C292 C287 1.399 . S
C292 C291 1.394 . S
C292 C293 1.516 . S
C293 C292 1.516 . S
C293 C294 1.502 . S
C293 C295 1.561 . S
C293 C296 1.526 . S
C294 H278 0.959 . S
C294 H279 0.959 . S
C294 H280 0.961 . S
C294 C293 1.502 . S
C295 H281 0.960 . S
C295 H282 0.961 . S
C295 H283 0.959 . S
C295 C293 1.561 . S
C296 C293 1.526 . S
C296 C297 1.396 . S
C296 C301 1.390 . S
C297 C291 1.465 . S
C297 C296 1.396 . S
C297 C298 1.399 . S
C298 H284 0.929 . S
C298 C297 1.399 . S
C298 C299 1.385 . S
C299 H285 0.931 . S
C299 C298 1.385 . S
C299 C300 1.389 . S
C300 C299 1.389 . S
C300 C301 1.387 . S
C301 H286 0.930 . S
C301 C296 1.390 . S
C301 C300 1.387 . S
H302 C314 0.930 . S
H303 C316 0.930 . S
H304 C317 0.930 . S
H305 C321 0.959 . S
H306 C321 0.959 . S
H307 C321 0.961 . S
H308 C322 0.960 . S
H309 C322 0.961 . S
H310 C322 0.959 . S
H311 C325 0.929 . S
H312 C326 0.931 . S
H313 C328 0.930 . S
C314 H302 0.930 . S
C314 C315 1.399 1_565 S
C314 C319 1.399 . S
C315 C314 1.399 1_545 S
C315 C316 1.376 . S
C316 H303 0.930 . S
C316 C315 1.376 . S
C316 C317 1.388 . S
C317 H304 0.930 . S
C317 C316 1.388 . S
C317 C318 1.390 . S
C318 C317 1.390 . S
C318 C319 1.394 1_545 S
C318 C324 1.465 . S
C319 C314 1.399 . S
C319 C318 1.394 1_565 S
C319 C320 1.516 . S
C320 C319 1.516 . S
C320 C321 1.502 1_455 S
C320 C322 1.561 . S
C320 C323 1.526 . S
C321 H305 0.959 . S
C321 H306 0.959 . S
C321 H307 0.961 . S
C321 C320 1.502 1_655 S
C322 H308 0.960 . S
C322 H309 0.961 . S
C322 H310 0.959 . S
C322 C320 1.561 . S
C323 C320 1.526 . S
C323 C324 1.396 1_565 S
C323 C328 1.390 . S
C324 C318 1.465 . S
C324 C323 1.396 1_545 S
C324 C325 1.399 . S
C325 H311 0.929 . S
C325 C324 1.399 . S
C325 C326 1.385 . S
C326 H312 0.931 . S
C326 C325 1.385 . S
C326 C327 1.389 . S
C327 C326 1.389 . S
C327 C328 1.387 1_545 S
C328 H313 0.930 . S
C328 C323 1.390 . S
C328 C327 1.387 1_565 S
H329 C341 0.930 . S
H330 C343 0.930 . S
H331 C344 0.930 . S
H332 C348 0.959 . S
H333 C348 0.959 . S
H334 C348 0.961 . S
H335 C349 0.960 . S
H336 C349 0.961 . S
H337 C349 0.959 . S
H338 C352 0.929 1_565 S
H339 C353 0.929 1_565 S
H340 C355 0.930 . S
C341 H329 0.930 . S
C341 C342 1.399 1_655 S
C341 C346 1.399 . S
C342 C341 1.399 1_455 S
C342 C343 1.376 1_545 S
C343 H330 0.930 . S
C343 C342 1.376 1_565 S
C343 C344 1.388 . S
C344 H331 0.930 . S
C344 C343 1.388 . S
C344 C345 1.390 1_565 S
C345 C344 1.390 1_545 S
C345 C346 1.394 1_455 S
C345 C351 1.465 . S
C346 C341 1.399 . S
C346 C345 1.394 1_655 S
C346 C347 1.516 . S
C347 C346 1.516 . S
C347 C348 1.502 . S
C347 C349 1.561 . S
C347 C350 1.526 . S
C348 H332 0.959 . S
C348 H333 0.959 . S
C348 H334 0.961 . S
C348 C347 1.502 . S
C349 H335 0.960 . S
C349 H336 0.961 . S
C349 H337 0.959 . S
C349 C347 1.561 . S
C350 C347 1.526 . S
C350 C351 1.396 1_655 S
C350 C355 1.390 . S
C351 C345 1.465 . S
C351 C350 1.396 1_455 S
C351 C352 1.399 . S
C352 H338 0.929 1_545 S
C352 C351 1.399 . S
C352 C353 1.385 . S
C353 H339 0.929 1_545 S
C353 C352 1.385 . S
C353 C354 1.389 . S
C354 C353 1.389 . S
C354 C355 1.387 1_455 S
C355 H340 0.930 . S
C355 C350 1.390 . S
C355 C354 1.387 1_655 S
H356 C368 0.930 . S
H357 C370 0.930 . S
H358 C371 0.930 . S
H359 C375 0.959 . S
H360 C375 0.959 . S
H361 C375 0.961 . S
H362 C376 0.960 . S
H363 C376 0.961 . S
H364 C376 0.959 . S
H365 C379 0.929 . S
H366 C380 0.931 . S
H367 C382 0.930 . S
C368 H356 0.930 . S
C368 C369 1.399 . S
C368 C373 1.399 . S
C369 C368 1.399 . S
C369 C370 1.376 . S
C370 H357 0.930 . S
C370 C369 1.376 . S
C370 C371 1.388 . S
C371 H358 0.930 . S
C371 C370 1.388 . S
C371 C372 1.390 . S
C372 C371 1.390 . S
C372 C373 1.394 . S
C372 C378 1.465 . S
C373 C368 1.399 . S
C373 C372 1.394 . S
C373 C374 1.516 . S
C374 C373 1.516 . S
C374 C375 1.502 . S
C374 C376 1.561 . S
C374 C377 1.526 . S
C375 H359 0.959 . S
C375 H360 0.959 . S
C375 H361 0.961 . S
C375 C374 1.502 . S
C376 H362 0.960 . S
C376 H363 0.961 . S
C376 H364 0.959 . S
C376 C374 1.561 . S
C377 C374 1.526 . S
C377 C378 1.396 . S
C377 C382 1.390 . S
C378 C372 1.465 . S
C378 C377 1.396 . S
C378 C379 1.399 . S
C379 H365 0.929 . S
C379 C378 1.399 . S
C379 C380 1.385 . S
C380 H366 0.931 . S
C380 C379 1.385 . S
C380 C381 1.389 . S
C381 C380 1.389 . S
C381 C382 1.387 . S
C382 H367 0.930 . S
C382 C377 1.390 . S
C382 C381 1.387 . S
H383 C395 0.930 . S
H384 C397 0.930 . S
H385 C398 0.930 . S
H386 C402 0.959 . S
H387 C402 0.959 . S
H388 C402 0.961 . S
H389 C403 0.960 . S
H390 C403 0.961 . S
H391 C403 0.959 . S
H392 C406 0.929 . S
H393 C407 0.931 . S
H394 C409 0.930 . S
C395 H383 0.930 . S
C395 C396 1.399 . S
C395 C400 1.399 . S
C396 C395 1.399 . S
C396 C397 1.376 . S
C397 H384 0.930 . S
C397 C396 1.376 . S
C397 C398 1.388 . S
C398 H385 0.930 . S
C398 C397 1.388 . S
C398 C399 1.390 . S
C399 C398 1.390 . S
C399 C400 1.394 . S
C399 C405 1.465 . S
C400 C395 1.399 . S
C400 C399 1.394 . S
C400 C401 1.516 . S
C401 C400 1.516 . S
C401 C402 1.502 . S
C401 C403 1.561 . S
C401 C404 1.526 . S
C402 H386 0.959 . S
C402 H387 0.959 . S
C402 H388 0.961 . S
C402 C401 1.502 . S
C403 H389 0.960 . S
C403 H390 0.961 . S
C403 H391 0.959 . S
C403 C401 1.561 . S
C404 C401 1.526 . S
C404 C405 1.396 . S
C404 C409 1.390 . S
C405 C399 1.465 . S
C405 C404 1.396 . S
C405 C406 1.399 . S
C406 H392 0.929 . S
C406 C405 1.399 . S
C406 C407 1.385 . S
C407 H393 0.931 . S
C407 C406 1.385 . S
C407 C408 1.389 . S
C408 C407 1.389 . S
C408 C409 1.387 . S
C409 H394 0.930 . S
C409 C404 1.390 . S
C409 C408 1.387 . S
C111 C80 1.183 . S
C99 C15 1.249 . S
C126 C13 1.490 1_556 S
C138 C69 1.254 . S
C153 C18 1.216 . S
C165 C83 1.461 . S
C180 C17 1.370 . S
C192 C72 1.363 . S
C207 C36 1.325 . S
C219 C58 1.264 . S
C234 C34 1.492 . S
C246 C47 1.295 . S
C273 C61 1.398 . S
C261 C39 1.352 . S
C300 C50 1.360 . S
C288 C38 1.386 . S
C315 C14 1.472 . S
C327 C49 1.499 . S
C342 C16 1.413 . S
C354 C60 1.328 . S
C381 C71 1.494 . S
C369 C35 1.471 . S
C396 C37 1.343 . S
C408 C82 1.389 . S
