# Generated by pormake.
# Topology gar, (4,6)-cn, num edge types: 1
# Building blocks:
#     Node 0, Type 0, BuildingBlock: AZAVOO_clean_sbu_0, # of connection points: 4
#     Node 1, Type 0, BuildingBlock: AZAVOO_clean_sbu_0, # of connection points: 4
#     Node 2, Type 0, BuildingBlock: AZAVOO_clean_sbu_0, # of connection points: 4
#     Node 3, Type 0, BuildingBlock: AZAVOO_clean_sbu_0, # of connection points: 4
#     Node 4, Type 0, BuildingBlock: AZAVOO_clean_sbu_0, # of connection points: 4
#     Node 5, Type 0, BuildingBlock: AZAVOO_clean_sbu_0, # of connection points: 4
#     Node 6, Type 0, BuildingBlock: AZAVOO_clean_sbu_0, # of connection points: 4
#     Node 7, Type 0, BuildingBlock: AZAVOO_clean_sbu_0, # of connection points: 4
#     Node 8, Type 0, BuildingBlock: AZAVOO_clean_sbu_0, # of connection points: 4
#     Node 9, Type 0, BuildingBlock: AZAVOO_clean_sbu_0, # of connection points: 4
#     Node 10, Type 0, BuildingBlock: AZAVOO_clean_sbu_0, # of connection points: 4
#     Node 11, Type 0, BuildingBlock: AZAVOO_clean_sbu_0, # of connection points: 4
#     Node 12, Type 0, BuildingBlock: AZAVOO_clean_sbu_0, # of connection points: 4
#     Node 13, Type 0, BuildingBlock: AZAVOO_clean_sbu_0, # of connection points: 4
#     Node 14, Type 0, BuildingBlock: AZAVOO_clean_sbu_0, # of connection points: 4
#     Node 15, Type 0, BuildingBlock: AZAVOO_clean_sbu_0, # of connection points: 4
#     Node 16, Type 0, BuildingBlock: AZAVOO_clean_sbu_0, # of connection points: 4
#     Node 17, Type 0, BuildingBlock: AZAVOO_clean_sbu_0, # of connection points: 4
#     Node 18, Type 0, BuildingBlock: AZAVOO_clean_sbu_0, # of connection points: 4
#     Node 19, Type 0, BuildingBlock: AZAVOO_clean_sbu_0, # of connection points: 4
#     Node 20, Type 0, BuildingBlock: AZAVOO_clean_sbu_0, # of connection points: 4
#     Node 21, Type 0, BuildingBlock: AZAVOO_clean_sbu_0, # of connection points: 4
#     Node 22, Type 0, BuildingBlock: AZAVOO_clean_sbu_0, # of connection points: 4
#     Node 23, Type 0, BuildingBlock: AZAVOO_clean_sbu_0, # of connection points: 4
#     Node 24, Type 1, BuildingBlock: GEDQOX_clean_sbu_0, # of connection points: 6
#     Node 25, Type 1, BuildingBlock: GEDQOX_clean_sbu_0, # of connection points: 6
#     Node 26, Type 1, BuildingBlock: GEDQOX_clean_sbu_0, # of connection points: 6
#     Node 27, Type 1, BuildingBlock: GEDQOX_clean_sbu_0, # of connection points: 6
#     Node 28, Type 1, BuildingBlock: GEDQOX_clean_sbu_0, # of connection points: 6
#     Node 29, Type 1, BuildingBlock: GEDQOX_clean_sbu_0, # of connection points: 6
#     Node 30, Type 1, BuildingBlock: GEDQOX_clean_sbu_0, # of connection points: 6
#     Node 31, Type 1, BuildingBlock: GEDQOX_clean_sbu_0, # of connection points: 6
#     Node 32, Type 1, BuildingBlock: GEDQOX_clean_sbu_0, # of connection points: 6
#     Node 33, Type 1, BuildingBlock: GEDQOX_clean_sbu_0, # of connection points: 6
#     Node 34, Type 1, BuildingBlock: GEDQOX_clean_sbu_0, # of connection points: 6
#     Node 35, Type 1, BuildingBlock: GEDQOX_clean_sbu_0, # of connection points: 6
#     Node 36, Type 1, BuildingBlock: GEDQOX_clean_sbu_0, # of connection points: 6
#     Node 37, Type 1, BuildingBlock: GEDQOX_clean_sbu_0, # of connection points: 6
#     Node 38, Type 1, BuildingBlock: GEDQOX_clean_sbu_0, # of connection points: 6
#     Node 39, Type 1, BuildingBlock: GEDQOX_clean_sbu_0, # of connection points: 6
#     Edge 40, Type (0, 1), BuildingBlock: ZUJKAS_clean_linker_0, # of connection points: 2
#     Edge 41, Type (0, 1), BuildingBlock: ZUJKAS_clean_linker_0, # of connection points: 2
#     Edge 42, Type (0, 1), BuildingBlock: ZUJKAS_clean_linker_0, # of connection points: 2
#     Edge 43, Type (0, 1), BuildingBlock: ZUJKAS_clean_linker_0, # of connection points: 2
#     Edge 44, Type (0, 1), BuildingBlock: ZUJKAS_clean_linker_0, # of connection points: 2
#     Edge 45, Type (0, 1), BuildingBlock: ZUJKAS_clean_linker_0, # of connection points: 2
#     Edge 46, Type (0, 1), BuildingBlock: ZUJKAS_clean_linker_0, # of connection points: 2
#     Edge 47, Type (0, 1), BuildingBlock: ZUJKAS_clean_linker_0, # of connection points: 2
#     Edge 48, Type (0, 1), BuildingBlock: ZUJKAS_clean_linker_0, # of connection points: 2
#     Edge 49, Type (0, 1), BuildingBlock: ZUJKAS_clean_linker_0, # of connection points: 2
#     Edge 50, Type (0, 1), BuildingBlock: ZUJKAS_clean_linker_0, # of connection points: 2
#     Edge 51, Type (0, 1), BuildingBlock: ZUJKAS_clean_linker_0, # of connection points: 2
#     Edge 52, Type (0, 1), BuildingBlock: ZUJKAS_clean_linker_0, # of connection points: 2
#     Edge 53, Type (0, 1), BuildingBlock: ZUJKAS_clean_linker_0, # of connection points: 2
#     Edge 54, Type (0, 1), BuildingBlock: ZUJKAS_clean_linker_0, # of connection points: 2
#     Edge 55, Type (0, 1), BuildingBlock: ZUJKAS_clean_linker_0, # of connection points: 2
#     Edge 56, Type (0, 1), BuildingBlock: ZUJKAS_clean_linker_0, # of connection points: 2
#     Edge 57, Type (0, 1), BuildingBlock: ZUJKAS_clean_linker_0, # of connection points: 2
#     Edge 58, Type (0, 1), BuildingBlock: ZUJKAS_clean_linker_0, # of connection points: 2
#     Edge 59, Type (0, 1), BuildingBlock: ZUJKAS_clean_linker_0, # of connection points: 2
#     Edge 60, Type (0, 1), BuildingBlock: ZUJKAS_clean_linker_0, # of connection points: 2
#     Edge 61, Type (0, 1), BuildingBlock: ZUJKAS_clean_linker_0, # of connection points: 2
#     Edge 62, Type (0, 1), BuildingBlock: ZUJKAS_clean_linker_0, # of connection points: 2
#     Edge 63, Type (0, 1), BuildingBlock: ZUJKAS_clean_linker_0, # of connection points: 2
#     Edge 64, Type (0, 1), BuildingBlock: ZUJKAS_clean_linker_0, # of connection points: 2
#     Edge 65, Type (0, 1), BuildingBlock: ZUJKAS_clean_linker_0, # of connection points: 2
#     Edge 66, Type (0, 1), BuildingBlock: ZUJKAS_clean_linker_0, # of connection points: 2
#     Edge 67, Type (0, 1), BuildingBlock: ZUJKAS_clean_linker_0, # of connection points: 2
#     Edge 68, Type (0, 1), BuildingBlock: ZUJKAS_clean_linker_0, # of connection points: 2
#     Edge 69, Type (0, 1), BuildingBlock: ZUJKAS_clean_linker_0, # of connection points: 2
#     Edge 70, Type (0, 1), BuildingBlock: ZUJKAS_clean_linker_0, # of connection points: 2
#     Edge 71, Type (0, 1), BuildingBlock: ZUJKAS_clean_linker_0, # of connection points: 2
#     Edge 72, Type (0, 1), BuildingBlock: ZUJKAS_clean_linker_0, # of connection points: 2
#     Edge 73, Type (0, 1), BuildingBlock: ZUJKAS_clean_linker_0, # of connection points: 2
#     Edge 74, Type (0, 1), BuildingBlock: ZUJKAS_clean_linker_0, # of connection points: 2
#     Edge 75, Type (0, 1), BuildingBlock: ZUJKAS_clean_linker_0, # of connection points: 2
#     Edge 76, Type (0, 1), BuildingBlock: ZUJKAS_clean_linker_0, # of connection points: 2
#     Edge 77, Type (0, 1), BuildingBlock: ZUJKAS_clean_linker_0, # of connection points: 2
#     Edge 78, Type (0, 1), BuildingBlock: ZUJKAS_clean_linker_0, # of connection points: 2
#     Edge 79, Type (0, 1), BuildingBlock: ZUJKAS_clean_linker_0, # of connection points: 2
#     Edge 80, Type (0, 1), BuildingBlock: ZUJKAS_clean_linker_0, # of connection points: 2
#     Edge 81, Type (0, 1), BuildingBlock: ZUJKAS_clean_linker_0, # of connection points: 2
#     Edge 82, Type (0, 1), BuildingBlock: ZUJKAS_clean_linker_0, # of connection points: 2
#     Edge 83, Type (0, 1), BuildingBlock: ZUJKAS_clean_linker_0, # of connection points: 2
#     Edge 84, Type (0, 1), BuildingBlock: ZUJKAS_clean_linker_0, # of connection points: 2
#     Edge 85, Type (0, 1), BuildingBlock: ZUJKAS_clean_linker_0, # of connection points: 2
#     Edge 86, Type (0, 1), BuildingBlock: ZUJKAS_clean_linker_0, # of connection points: 2
#     Edge 87, Type (0, 1), BuildingBlock: ZUJKAS_clean_linker_0, # of connection points: 2
#     Edge 88, Type (0, 1), BuildingBlock: ZUJKAS_clean_linker_0, # of connection points: 2
#     Edge 89, Type (0, 1), BuildingBlock: ZUJKAS_clean_linker_0, # of connection points: 2
#     Edge 90, Type (0, 1), BuildingBlock: ZUJKAS_clean_linker_0, # of connection points: 2
#     Edge 91, Type (0, 1), BuildingBlock: ZUJKAS_clean_linker_0, # of connection points: 2
#     Edge 92, Type (0, 1), BuildingBlock: ZUJKAS_clean_linker_0, # of connection points: 2
#     Edge 93, Type (0, 1), BuildingBlock: ZUJKAS_clean_linker_0, # of connection points: 2
#     Edge 94, Type (0, 1), BuildingBlock: ZUJKAS_clean_linker_0, # of connection points: 2
#     Edge 95, Type (0, 1), BuildingBlock: ZUJKAS_clean_linker_0, # of connection points: 2
#     Edge 96, Type (0, 1), BuildingBlock: ZUJKAS_clean_linker_0, # of connection points: 2
#     Edge 97, Type (0, 1), BuildingBlock: ZUJKAS_clean_linker_0, # of connection points: 2
#     Edge 98, Type (0, 1), BuildingBlock: ZUJKAS_clean_linker_0, # of connection points: 2
#     Edge 99, Type (0, 1), BuildingBlock: ZUJKAS_clean_linker_0, # of connection points: 2
#     Edge 100, Type (0, 1), BuildingBlock: ZUJKAS_clean_linker_0, # of connection points: 2
#     Edge 101, Type (0, 1), BuildingBlock: ZUJKAS_clean_linker_0, # of connection points: 2
#     Edge 102, Type (0, 1), BuildingBlock: ZUJKAS_clean_linker_0, # of connection points: 2
#     Edge 103, Type (0, 1), BuildingBlock: ZUJKAS_clean_linker_0, # of connection points: 2
#     Edge 104, Type (0, 1), BuildingBlock: ZUJKAS_clean_linker_0, # of connection points: 2
#     Edge 105, Type (0, 1), BuildingBlock: ZUJKAS_clean_linker_0, # of connection points: 2
#     Edge 106, Type (0, 1), BuildingBlock: ZUJKAS_clean_linker_0, # of connection points: 2
#     Edge 107, Type (0, 1), BuildingBlock: ZUJKAS_clean_linker_0, # of connection points: 2
#     Edge 108, Type (0, 1), BuildingBlock: ZUJKAS_clean_linker_0, # of connection points: 2
#     Edge 109, Type (0, 1), BuildingBlock: ZUJKAS_clean_linker_0, # of connection points: 2
#     Edge 110, Type (0, 1), BuildingBlock: ZUJKAS_clean_linker_0, # of connection points: 2
#     Edge 111, Type (0, 1), BuildingBlock: ZUJKAS_clean_linker_0, # of connection points: 2
#     Edge 112, Type (0, 1), BuildingBlock: ZUJKAS_clean_linker_0, # of connection points: 2
#     Edge 113, Type (0, 1), BuildingBlock: ZUJKAS_clean_linker_0, # of connection points: 2
#     Edge 114, Type (0, 1), BuildingBlock: ZUJKAS_clean_linker_0, # of connection points: 2
#     Edge 115, Type (0, 1), BuildingBlock: ZUJKAS_clean_linker_0, # of connection points: 2
#     Edge 116, Type (0, 1), BuildingBlock: ZUJKAS_clean_linker_0, # of connection points: 2
#     Edge 117, Type (0, 1), BuildingBlock: ZUJKAS_clean_linker_0, # of connection points: 2
#     Edge 118, Type (0, 1), BuildingBlock: ZUJKAS_clean_linker_0, # of connection points: 2
#     Edge 119, Type (0, 1), BuildingBlock: ZUJKAS_clean_linker_0, # of connection points: 2
#     Edge 120, Type (0, 1), BuildingBlock: ZUJKAS_clean_linker_0, # of connection points: 2
#     Edge 121, Type (0, 1), BuildingBlock: ZUJKAS_clean_linker_0, # of connection points: 2
#     Edge 122, Type (0, 1), BuildingBlock: ZUJKAS_clean_linker_0, # of connection points: 2
#     Edge 123, Type (0, 1), BuildingBlock: ZUJKAS_clean_linker_0, # of connection points: 2
#     Edge 124, Type (0, 1), BuildingBlock: ZUJKAS_clean_linker_0, # of connection points: 2
#     Edge 125, Type (0, 1), BuildingBlock: ZUJKAS_clean_linker_0, # of connection points: 2
#     Edge 126, Type (0, 1), BuildingBlock: ZUJKAS_clean_linker_0, # of connection points: 2
#     Edge 127, Type (0, 1), BuildingBlock: ZUJKAS_clean_linker_0, # of connection points: 2
#     Edge 128, Type (0, 1), BuildingBlock: ZUJKAS_clean_linker_0, # of connection points: 2
#     Edge 129, Type (0, 1), BuildingBlock: ZUJKAS_clean_linker_0, # of connection points: 2
#     Edge 130, Type (0, 1), BuildingBlock: ZUJKAS_clean_linker_0, # of connection points: 2
#     Edge 131, Type (0, 1), BuildingBlock: ZUJKAS_clean_linker_0, # of connection points: 2
#     Edge 132, Type (0, 1), BuildingBlock: ZUJKAS_clean_linker_0, # of connection points: 2
#     Edge 133, Type (0, 1), BuildingBlock: ZUJKAS_clean_linker_0, # of connection points: 2
#     Edge 134, Type (0, 1), BuildingBlock: ZUJKAS_clean_linker_0, # of connection points: 2
#     Edge 135, Type (0, 1), BuildingBlock: ZUJKAS_clean_linker_0, # of connection points: 2
# Relax obj value: 0.249
# Max RMSD: 0.383
# Mean RMSD: 0.202
data_MOF--net-gar--node1-AZAVOO_clean_sbu_0--node2-GEDQOX_clean_sbu_0--edge1-ZUJKAS_clean_linker_0
_symmetry_space_group_name_H-M    P1
_symmetry_Int_Tables_number       1
_symmetry_cell_setting            triclinic
loop_
_symmetry_equiv_pos_as_xyz
'x, y, z'
_cell_length_a     78.018628
_cell_length_b     73.117644
_cell_length_c     69.170865
_cell_angle_alpha  99.246093
_cell_angle_beta   96.605033
_cell_angle_gamma 101.18285
loop_
_atom_site_label
_atom_site_type_symbol
_atom_site_fract_x
_atom_site_fract_y
_atom_site_fract_z
_atom_type_partial_charge
Mg0 Mg 0.06676 0.32579 0.47725 0.0
O1 O 0.07509 0.35825 0.4841 0.0
O2 O 0.05109 0.37118 0.48583 0.0
Mg3 Mg 0.02323 0.35163 0.47922 0.0
C4 C 0.0678 0.3725 0.48666 0.0
C5 C 0.09049 0.33909 0.44853 0.0
O6 O 0.10015 0.34563 0.46602 0.0
O7 O 0.04398 0.334 0.48994 0.0
O8 O 0.02471 0.34001 0.50827 0.0
O9 O 0.05368 0.32269 0.44407 0.0
O10 O 0.03872 0.3299 0.46684 0.0
C11 C 0.03712 0.3316 0.50534 0.0
C12 C 0.03914 0.32594 0.44855 0.0
O13 O 0.075 0.32907 0.44734 0.0
Mg14 Mg 1.00567 0.79353 0.65536 0.0
O15 O 1.00059 0.7624 0.65216 0.0
O16 O 0.97267 0.75446 0.63654 0.0
Mg17 Mg 0.95846 0.7785 0.64691 0.0
C18 C 0.98761 0.75037 0.64149 0.0
C19 C 0.04618 0.78906 0.64922 0.0
O20 O 0.05839 0.7902 0.63761 0.0
O21 O 0.99352 0.78677 0.62343 0.0
O22 O 0.96917 0.79723 0.62519 0.0
O23 O 1.00727 0.79587 0.68852 0.0
O24 O 0.983 0.79274 0.66752 0.0
C25 C 0.9834 0.79706 0.61787 0.0
C26 C 0.99021 0.79319 0.68519 0.0
O27 O 0.03208 0.79436 0.64415 0.0
Mg28 Mg 0.56592 0.84437 0.96567 0.0
O29 O 0.58193 0.87224 0.98294 0.0
O30 O 0.5663 0.87953 0.00689 0.0
Mg31 Mg 0.53916 0.85999 1.00175 0.0
C32 C 0.58017 0.88261 0.99877 0.0
C33 C 0.58483 0.83639 0.93342 0.0
O34 O 0.5679 0.83284 0.92645 0.0
O35 O 0.57171 0.82854 0.99017 0.0
O36 O 0.55113 0.83553 0.00836 0.0
O37 O 0.55272 0.85955 0.94534 0.0
O38 O 0.54175 0.84993 0.97091 0.0
C39 C 0.56257 0.82582 1.00403 0.0
C40 C 0.53972 0.85727 0.95537 0.0
O41 O 0.5897 0.84044 0.952 0.0
Mg42 Mg 0.49508 0.28517 0.16573 0.0
O43 O 0.48888 0.25942 0.14195 0.0
O44 O 0.46229 0.25522 0.12405 0.0
Mg45 Mg 0.45187 0.28087 0.13737 0.0
C46 C 0.47688 0.25019 0.1279 0.0
C47 C 0.52829 0.26792 0.17001 0.0
O48 O 0.51649 0.25216 0.16892 0.0
O49 O 0.50004 0.30175 0.1427 0.0
O50 O 0.47379 0.29983 0.12483 0.0
O51 O 0.48351 0.26873 0.1861 0.0
O52 O 0.46877 0.2836 0.16637 0.0
C53 C 0.49061 0.3055 0.12831 0.0
C54 C 0.46873 0.27276 0.17942 0.0
O55 O 0.52332 0.28334 0.16942 0.0
Mg56 Mg 0.02458 0.80621 0.23347 0.0
O57 O 0.01935 0.77775 0.21153 0.0
O58 O 0.99438 0.77467 0.19079 0.0
Mg59 Mg 0.98216 0.80016 0.19952 0.0
C60 C 1.00801 0.76864 0.19661 0.0
C61 C 0.06522 0.81366 0.25702 0.0
O62 O 0.05945 0.82622 0.26892 0.0
O63 O 0.03198 0.82212 0.20814 0.0
O64 O 1.00551 0.81804 0.18943 0.0
O65 O 1.00584 0.79405 0.25458 0.0
O66 O 0.99691 0.80634 0.22968 0.0
C67 C 0.02216 0.8247 0.19308 0.0
C68 C 0.99294 0.79869 0.24438 0.0
O69 O 0.05443 0.80345 0.24208 0.0
Mg70 Mg 0.5353 0.81602 0.37783 0.0
O71 O 0.53693 0.84368 0.40084 0.0
O72 O 0.51224 0.83811 0.41467 0.0
Mg73 Mg 0.49583 0.8083 0.40374 0.0
C74 C 0.52662 0.84895 0.41273 0.0
C75 C 0.57284 0.81128 0.36699 0.0
O76 O 0.56335 0.79384 0.36375 0.0
O77 O 0.54327 0.80093 0.40317 0.0
O78 O 0.5185 0.79661 0.41702 0.0
O79 O 0.5163 0.82558 0.35486 0.0
O80 O 0.50727 0.80882 0.37654 0.0
C81 C 0.53435 0.79487 0.41613 0.0
C82 C 0.5032 0.81733 0.3625 0.0
O83 O 0.56537 0.8248 0.37311 0.0
Mg84 Mg 0.52427 0.30587 0.73432 0.0
O85 O 0.5194 0.27754 0.71217 0.0
O86 O 0.49498 0.27524 0.6908 0.0
Mg87 Mg 0.48248 0.30051 0.69957 0.0
C88 C 0.50832 0.26885 0.69684 0.0
C89 C 0.56755 0.31592 0.7449 0.0
O90 O 0.5653 0.33165 0.7391 0.0
O91 O 0.53235 0.32212 0.70944 0.0
O92 O 0.50604 0.31932 0.69084 0.0
O93 O 0.50529 0.29364 0.75498 0.0
O94 O 0.4966 0.30594 0.72995 0.0
C95 C 0.52272 0.32564 0.69476 0.0
C96 C 0.49247 0.29825 0.7446 0.0
O97 O 0.5538 0.30299 0.74471 0.0
Mg98 Mg 0.03523 0.31586 0.87926 0.0
O99 O 0.0366 0.34277 0.90298 0.0
O100 O 1.0114 0.33724 0.91586 0.0
Mg101 Mg 0.99306 0.30923 0.90059 0.0
C102 C 0.02646 0.34758 0.91529 0.0
C103 C 0.0717 0.31617 0.86195 0.0
O104 O 0.05997 0.3051 0.84757 0.0
O105 O 0.04005 0.29893 0.90451 0.0
O106 O 0.01333 0.29501 0.91405 0.0
O107 O 0.01847 0.32758 0.85574 0.0
O108 O 1.00713 0.30974 0.87543 0.0
C109 C 0.02897 0.2921 0.91525 0.0
C110 C 1.00451 0.31902 0.86173 0.0
O111 O 0.06607 0.32378 0.8773 0.0
Mg112 Mg 0.44653 0.1325 0.31283 0.0
O113 O 0.42494 0.10517 0.3085 0.0
O114 O 0.41139 0.10683 0.33531 0.0
Mg115 Mg 0.42388 0.13476 0.35639 0.0
C116 C 0.41325 0.09821 0.31837 0.0
C117 C 0.45514 0.10977 0.2754 0.0
O118 O 0.45595 0.09838 0.2882 0.0
O119 O 0.42567 0.14943 0.30565 0.0
O120 O 0.41269 0.14996 0.33294 0.0
O121 O 0.4652 0.1184 0.32849 0.0
O122 O 0.44849 0.13557 0.34365 0.0
C123 C 0.4141 0.15423 0.31591 0.0
C124 C 0.45961 0.12471 0.34462 0.0
O125 O 0.45055 0.12537 0.28061 0.0
Mg126 Mg 0.26024 0.13052 0.47924 0.0
O127 O 0.27191 0.15301 0.50687 0.0
O128 O 0.30113 0.1619 0.50772 0.0
Mg129 Mg 0.30788 0.14594 0.47947 0.0
C130 C 0.28705 0.16292 0.5152 0.0
C131 C 0.22228 0.11585 0.48093 0.0
O132 O 0.22772 0.10143 0.47159 0.0
O133 O 0.26173 0.15421 0.4616 0.0
O134 O 0.29105 0.16195 0.46243 0.0
O135 O 0.26655 0.10907 0.49632 0.0
O136 O 0.28456 0.12357 0.47818 0.0
C137 C 0.2755 0.16419 0.45712 0.0
C138 C 0.28212 0.11307 0.49129 0.0
O139 O 0.23289 0.13192 0.48568 0.0
Mg140 Mg 0.1581 0.03774 0.82096 0.0
O141 O 0.17729 0.06782 0.82276 0.0
O142 O 0.19543 0.07345 0.85119 0.0
Mg143 Mg 0.18699 0.04825 0.8677 0.0
C144 C 0.1902 0.07862 0.83512 0.0
C145 C 0.13197 0.03627 0.78275 0.0
O146 O 0.12193 0.03473 0.79666 0.0
O147 O 0.17915 0.01847 0.81526 0.0
O148 O 0.1943 0.02393 0.84573 0.0
O149 O 0.13856 0.05144 0.83694 0.0
O150 O 0.15872 0.04011 0.8529 0.0
C151 C 0.19076 0.01459 0.82788 0.0
C152 C 0.1452 0.04785 0.85354 0.0
O153 O 0.14852 0.03733 0.78742 0.0
Mg154 Mg 0.22811 0.91975 0.06925 0.0
O155 O 0.22787 0.9003 0.03823 0.0
O156 O 0.25259 0.88913 0.04222 0.0
Mg157 Mg 0.26919 0.90163 0.07236 0.0
C158 C 0.2384 0.89011 0.03163 0.0
C159 C 0.19563 0.9351 0.07685 0.0
O160 O 0.20671 0.9401 0.09356 0.0
O161 O 0.22202 0.8947 0.08639 0.0
O162 O 0.24847 0.8868 0.08837 0.0
O163 O 0.24374 0.94487 0.05936 0.0
O164 O 0.25535 0.92484 0.07448 0.0
C165 C 0.23282 0.88492 0.0926 0.0
C166 C 0.25766 0.93959 0.06652 0.0
O167 O 0.19958 0.92412 0.06255 0.0
Mg168 Mg 0.30675 0.48943 0.13584 0.0
O169 O 0.3038 0.46799 0.10714 0.0
O170 O 0.32775 0.4556 0.10541 0.0
Mg171 Mg 0.34467 0.46652 0.1358 0.0
C172 C 0.31255 0.45737 0.09797 0.0
C173 C 0.27542 0.49414 0.10938 0.0
O174 O 0.28836 0.49591 0.09876 0.0
O175 O 0.29832 0.46451 0.15079 0.0
O176 O 0.32185 0.45142 0.14911 0.0
O177 O 0.32184 0.5121 0.12278 0.0
O178 O 0.33401 0.49237 0.13819 0.0
C179 C 0.30648 0.45146 0.15371 0.0
C180 C 0.33557 0.50541 0.12757 0.0
O181 O 0.27855 0.4916 0.12708 0.0
Mg182 Mg 0.84159 0.19602 0.04656 0.0
O183 O 0.84146 0.21496 0.07658 0.0
O184 O 0.86572 0.23776 0.08294 0.0
Mg185 Mg 0.88136 0.23159 0.05677 0.0
C186 C 0.85117 0.22979 0.0877 0.0
C187 C 0.80337 0.17445 0.03132 0.0
O188 O 0.81057 0.17075 0.01527 0.0
O189 O 0.83497 0.21817 0.02887 0.0
O190 O 0.86085 0.23874 0.03322 0.0
O191 O 0.85537 0.17706 0.06137 0.0
O192 O 0.86941 0.20025 0.04829 0.0
C193 C 0.84473 0.23282 0.02492 0.0
C194 C 0.87004 0.18591 0.05697 0.0
O195 O 0.81285 0.18468 0.04685 0.0
Mg196 Mg 0.12055 0.4908 0.30576 0.0
O197 O 0.14063 0.51923 0.31343 0.0
O198 O 0.15458 0.52266 0.34434 0.0
Mg199 Mg 0.14268 0.49719 0.35739 0.0
C200 C 0.15214 0.5286 0.32808 0.0
C201 C 0.11042 0.5087 0.27077 0.0
O202 O 0.11 0.52113 0.28659 0.0
O203 O 0.14331 0.47526 0.30271 0.0
O204 O 0.15329 0.47807 0.33503 0.0
O205 O 0.09967 0.50405 0.31788 0.0
O206 O 0.11874 0.49249 0.33586 0.0
C207 C 0.15336 0.47151 0.31683 0.0
C208 C 0.10613 0.50146 0.33503 0.0
O209 O 0.11569 0.49365 0.27309 0.0
Mg210 Mg 0.80429 0.98924 0.63338 0.0
O211 O 0.80299 0.96703 0.60613 0.0
O212 O 0.82705 0.95476 0.60823 0.0
Mg213 Mg 0.84419 0.97006 0.6377 0.0
C214 C 0.81211 0.9556 0.59913 0.0
C215 C 0.7722 1.00401 0.62055 0.0
O216 O 0.78474 0.0195 0.62554 0.0
O217 O 0.79712 0.96561 0.65038 0.0
O218 O 0.82255 0.95572 0.65336 0.0
O219 O 0.81867 0.01074 0.61835 0.0
O220 O 0.83163 0.99446 0.63777 0.0
C221 C 0.80666 0.95486 0.65666 0.0
C222 C 0.83291 1.00614 0.62569 0.0
O223 O 0.77577 0.98835 0.62323 0.0
Mg224 Mg 0.90315 0.07985 0.29181 0.0
O225 O 0.88305 0.04968 0.28933 0.0
O226 O 0.87061 0.05267 0.31687 0.0
Mg227 Mg 0.88244 0.08192 0.3372 0.0
C228 C 0.87248 0.04266 0.30062 0.0
C229 C 0.92256 0.08578 0.25449 0.0
O230 O 0.92972 0.10114 0.26778 0.0
O231 O 0.88197 0.09956 0.28707 0.0
O232 O 0.87281 0.10097 0.31658 0.0
O233 O 0.92425 0.06834 0.30871 0.0
O234 O 0.90653 0.08388 0.32339 0.0
C235 C 0.87311 0.10658 0.30001 0.0
C236 C 0.91919 0.07508 0.325 0.0
O237 O 0.90981 0.07389 0.25879 0.0
Mg238 Mg 0.3401 0.69539 0.54554 0.0
O239 O 0.34012 0.71414 0.57569 0.0
O240 O 0.3638 0.73765 0.58125 0.0
Mg241 Mg 0.37985 0.73101 0.55559 0.0
C242 C 0.34954 0.72939 0.58638 0.0
C243 C 0.30312 0.66991 0.53262 0.0
O244 O 0.31182 0.66207 0.51958 0.0
O245 O 0.33358 0.71763 0.52799 0.0
O246 O 0.35951 0.73802 0.53182 0.0
O247 O 0.35366 0.67628 0.5602 0.0
O248 O 0.36791 0.69961 0.54747 0.0
C249 C 0.34333 0.73213 0.52376 0.0
C250 C 0.36843 0.68519 0.55607 0.0
O251 O 0.31124 0.68419 0.54557 0.0
Mg252 Mg 0.40355 0.58043 0.79269 0.0
O253 O 0.38347 0.54991 0.78977 0.0
O254 O 0.37007 0.55302 0.81665 0.0
Mg255 Mg 0.38116 0.58225 0.83705 0.0
C256 C 0.37249 0.54292 0.80072 0.0
C257 C 0.42693 0.57498 0.75813 0.0
O258 O 0.43767 0.57621 0.77459 0.0
O259 O 0.38245 0.59995 0.78772 0.0
O260 O 0.37107 0.60101 0.81603 0.0
O261 O 0.42477 0.56967 0.81008 0.0
O262 O 0.40594 0.58375 0.8243 0.0
C263 C 0.37243 0.60647 0.79951 0.0
C264 C 0.41907 0.57559 0.82622 0.0
O265 O 0.41077 0.57569 0.75955 0.0
Mg266 Mg 0.62216 0.9912 0.80761 0.0
O267 O 0.64276 0.01902 0.81548 0.0
O268 O 0.65639 0.02236 0.84646 0.0
Mg269 Mg 0.64453 0.99629 0.85879 0.0
C270 C 0.65413 0.02837 0.83022 0.0
C271 C 0.602 0.99777 0.77015 0.0
O272 O 0.59072 0.99642 0.7828 0.0
O273 O 0.6441 0.97461 0.8038 0.0
O274 O 0.65552 0.97762 0.8358 0.0
O275 O 0.60292 1.00607 0.82118 0.0
O276 O 0.62033 0.99131 0.83755 0.0
C277 C 0.65493 0.97117 0.81741 0.0
C278 C 0.60863 1.00144 0.83756 0.0
O279 O 0.61749 0.99525 0.77521 0.0
Mg280 Mg 0.76048 0.63113 0.97892 0.0
O281 O 0.77133 0.65312 0.00736 0.0
O282 O 0.8007 0.66256 0.00962 0.0
Mg283 Mg 0.80772 0.65015 0.98012 0.0
C284 C 0.78629 0.66271 0.01662 0.0
C285 C 0.72192 0.61497 0.97973 0.0
O286 O 0.72676 0.60111 0.96861 0.0
O287 O 0.76043 0.65547 0.96253 0.0
O288 O 0.78965 0.66704 0.96595 0.0
O289 O 0.76801 0.60932 0.99459 0.0
O290 O 0.78553 0.62604 0.97761 0.0
C291 C 0.77369 0.66779 0.96033 0.0
C292 C 0.78359 0.61469 0.99003 0.0
O293 O 0.73291 0.63068 0.98577 0.0
Mg294 Mg 0.94775 0.63226 0.81248 0.0
O295 O 0.92669 0.60477 0.80975 0.0
O296 O 0.91387 0.60798 0.83703 0.0
Mg297 Mg 0.92741 0.63594 0.85773 0.0
C298 C 0.91522 0.59855 0.82025 0.0
C299 C 0.95678 0.60978 0.77561 0.0
O300 O 0.95933 0.59964 0.78929 0.0
O301 O 0.92604 0.64825 0.80578 0.0
O302 O 0.91656 0.65223 0.8352 0.0
O303 O 0.9681 0.61977 0.82768 0.0
O304 O 0.95102 0.63571 0.84347 0.0
C305 C 0.91647 0.65525 0.81751 0.0
C306 C 0.9629 0.62572 0.84416 0.0
O307 O 0.95068 0.62458 0.77999 0.0
Mg308 Mg 0.72673 0.41971 0.57015 0.0
O309 O 0.72912 0.40045 0.53952 0.0
O310 O 0.75638 0.39527 0.54585 0.0
Mg311 Mg 0.77121 0.40901 0.57641 0.0
C312 C 0.742 0.39319 0.53406 0.0
C313 C 0.69512 0.43471 0.57665 0.0
O314 O 0.70807 0.44212 0.5914 0.0
O315 O 0.72316 0.39454 0.58742 0.0
O316 O 0.75123 0.39113 0.59098 0.0
O317 O 0.73934 0.44602 0.55983 0.0
O318 O 0.75384 0.4286 0.57594 0.0
C319 C 0.73534 0.38667 0.59426 0.0
C320 C 0.75418 0.44267 0.56706 0.0
O321 O 0.69739 0.42143 0.56339 0.0
Mg322 Mg 0.65824 0.53821 0.32157 0.0
O323 O 0.67791 0.56808 0.32329 0.0
O324 O 0.69538 0.57419 0.35223 0.0
Mg325 Mg 0.68748 0.54826 0.36793 0.0
C326 C 0.69043 0.57914 0.33595 0.0
C327 C 0.63707 0.52619 0.27664 0.0
O328 O 0.63146 0.51011 0.28242 0.0
O329 O 0.67878 0.51838 0.31544 0.0
O330 O 0.69493 0.52416 0.34545 0.0
O331 O 0.63907 0.55211 0.33793 0.0
O332 O 0.65899 0.54024 0.35363 0.0
C333 C 0.69085 0.51468 0.32765 0.0
C334 C 0.64564 0.54826 0.35444 0.0
O335 O 0.64857 0.53924 0.28844 0.0
Nd336 Nd 0.04073 0.07685 0.0572 0.0
Nd337 Nd 0.01949 0.0368 0.04604 0.0
C338 C 0.05539 0.11273 0.07211 0.0
C339 C 0.05514 0.12989 0.06333 0.0
C340 C 0.04403 0.14219 0.06905 0.0
C341 C 0.04241 0.15723 0.05919 0.0
C342 C 0.05195 0.16029 0.04353 0.0
C343 C 0.06315 0.14809 0.03802 0.0
C344 C 0.06476 0.13314 0.0478 0.0
C345 C 0.04166 0.06097 0.01766 0.0
C346 C 0.99944 0.07034 0.0381 0.0
C347 C 1.00795 1.00027 0.0316 0.0
C348 C 1.00882 0.98411 0.04195 0.0
C349 C 0.01797 0.97028 0.03491 0.0
C350 C 0.02113 0.95653 0.04604 0.0
C351 C 0.01524 0.95635 0.06451 0.0
C352 C 1.00564 0.96989 0.07126 0.0
C353 C 1.00249 0.98361 0.06016 0.0
C354 C 0.01399 0.04942 0.08442 0.0
C355 C 0.05993 0.04328 0.06864 0.0
O356 O 0.04023 0.10424 0.0761 0.0
O357 O 0.06422 0.10071 0.06419 0.0
O358 O 0.0406 0.07836 0.02401 0.0
O359 O 0.04194 0.05266 0.03241 0.0
O360 O 0.01318 0.08203 0.04924 0.0
O361 O 0.99945 0.05227 0.03194 0.0
O362 O 0.02318 0.0098 0.02885 0.0
O363 O 0.99745 0.01136 0.03726 0.0
O364 O 1.00819 0.03243 0.07445 0.0
O365 O 0.02363 0.05929 0.07458 0.0
O366 O 0.04496 0.03126 0.06098 0.0
O367 O 0.0617 0.06183 0.06999 0.0
H368 H 0.03633 0.13997 0.08088 0.0
H369 H 0.03372 0.16644 0.06383 0.0
H370 H 0.0704 0.14979 0.02575 0.0
H371 H 0.07325 0.12385 0.04278 0.0
H372 H 0.0232 0.97048 0.02108 0.0
H373 H 0.02871 0.94644 0.04046 0.0
H374 H 1.00063 0.96998 0.08524 0.0
H375 H 0.99546 0.99408 0.06613 0.0
Nd376 Nd 0.28586 0.8326 0.32005 0.0
Nd377 Nd 0.28171 0.78926 0.29819 0.0
C378 C 0.28219 0.86733 0.332 0.0
C379 C 0.29208 0.88536 0.32788 0.0
C380 C 0.28389 0.89486 0.31464 0.0
C381 C 0.2936 0.91054 0.30861 0.0
C382 C 0.31173 0.91716 0.31579 0.0
C383 C 0.31986 0.90787 0.32935 0.0
C384 C 0.31017 0.89213 0.3353 0.0
C385 C 0.31907 0.82551 0.31443 0.0
C386 C 0.28107 0.82165 0.27109 0.0
C387 C 0.28609 0.75486 0.28567 0.0
C388 C 0.27629 0.73623 0.28829 0.0
C389 C 0.28466 0.72572 0.30018 0.0
C390 C 0.27512 0.70918 0.3048 0.0
C391 C 0.25701 0.70271 0.29746 0.0
C392 C 0.24871 0.71305 0.28521 0.0
C393 C 0.25822 0.72968 0.28074 0.0
C394 C 0.24824 0.79667 0.30201 0.0
C395 C 0.28689 0.80025 0.34724 0.0
O396 O 0.27207 0.85588 0.31665 0.0
O397 O 0.29087 0.8584 0.34341 0.0
O398 O 0.31638 0.84185 0.3221 0.0
O399 O 0.30421 0.81422 0.30919 0.0
O400 O 0.27983 0.83363 0.28709 0.0
O401 O 0.28459 0.80474 0.27188 0.0
O402 O 0.29519 0.76583 0.3019 0.0
O403 O 0.27779 0.76408 0.27426 0.0
O404 O 0.25116 0.78038 0.29443 0.0
O405 O 0.26315 0.80774 0.30838 0.0
O406 O 0.28791 0.78827 0.33114 0.0
O407 O 0.2833 0.81717 0.34658 0.0
H408 H 0.27003 0.88983 0.30849 0.0
H409 H 0.28698 0.91723 0.29798 0.0
H410 H 0.33372 0.9128 0.33545 0.0
H411 H 0.31698 0.88509 0.34541 0.0
H412 H 0.29851 0.7306 0.30639 0.0
H413 H 0.28186 0.70172 0.31451 0.0
H414 H 0.23484 0.70829 0.27906 0.0
H415 H 0.25131 0.73754 0.27167 0.0
Nd416 Nd 0.5503 0.06962 0.55172 0.0
Nd417 Nd 0.51361 0.05369 0.56115 0.0
C418 C 0.57712 0.07895 0.53326 0.0
C419 C 0.59335 0.07144 0.53378 0.0
C420 C 0.59615 0.05925 0.51711 0.0
C421 C 0.61013 0.0499 0.51839 0.0
C422 C 0.6216 0.05284 0.53629 0.0
C423 C 0.61896 0.06518 0.55286 0.0
C424 C 0.60496 0.07436 0.55166 0.0
C425 C 0.555 0.05459 0.5858 0.0
C426 C 0.53351 0.02411 0.54089 0.0
C427 C 0.48367 0.0463 0.57526 0.0
C428 C 0.46801 0.05452 0.57295 0.0
C429 C 0.46124 0.06172 0.58979 0.0
C430 C 0.44693 0.0705 0.58784 0.0
C431 C 0.4392 0.07202 0.569 0.0
C432 C 0.44621 0.06517 0.55219 0.0
C433 C 0.46058 0.0566 0.55415 0.0
C434 C 0.51395 0.06392 0.52445 0.0
C435 C 0.53259 0.09887 0.5778 0.0
O436 O 0.56261 0.06678 0.52444 0.0
O437 O 0.57506 0.08935 0.54981 0.0
O438 O 0.56785 0.06284 0.57784 0.0
O439 O 0.54055 0.05484 0.57594 0.0
O440 O 0.5426 0.03878 0.53493 0.0
O441 O 0.52309 0.02619 0.55438 0.0
O442 O 0.49784 0.05785 0.58552 0.0
O443 O 0.48687 0.03596 0.55938 0.0
O444 O 0.50359 0.04906 0.52776 0.0
O445 O 0.52314 0.07328 0.54038 0.0
O446 O 0.5205 0.08403 0.57934 0.0
O447 O 0.5446 0.09767 0.56604 0.0
H448 H 0.58722 0.05655 0.50326 0.0
H449 H 0.612 0.0404 0.50545 0.0
H450 H 0.62752 0.0674 0.56691 0.0
H451 H 0.60302 0.08331 0.56495 0.0
H452 H 0.46706 0.06059 0.60443 0.0
H453 H 0.44167 0.0757 0.60097 0.0
H454 H 0.44056 0.06648 0.53754 0.0
H455 H 0.46589 0.05168 0.54094 0.0
Nd456 Nd 0.29173 0.31094 0.82709 0.0
Nd457 Nd 0.27586 0.30536 0.79038 0.0
C458 C 0.30048 0.31436 0.86567 0.0
C459 C 0.29344 0.32355 0.88259 0.0
C460 C 0.27699 0.31537 0.88742 0.0
C461 C 0.26999 0.32487 0.90272 0.0
C462 C 0.27926 0.34271 0.91329 0.0
C463 C 0.29569 0.35084 0.9085 0.0
C464 C 0.30275 0.3413 0.89336 0.0
C465 C 0.30084 0.34406 0.81172 0.0
C466 C 0.25076 0.31672 0.82049 0.0
C467 C 0.26701 0.3046 0.75219 0.0
C468 C 0.27243 0.2964 0.73389 0.0
C469 C 0.27071 0.30513 0.71743 0.0
C470 C 0.27551 0.2973 0.69969 0.0
C471 C 0.28202 0.28059 0.69823 0.0
C472 C 0.28419 0.27218 0.71499 0.0
C473 C 0.27949 0.2801 0.73276 0.0
C474 C 0.26625 0.27185 0.80501 0.0
C475 C 0.31663 0.29885 0.79706 0.0
O476 O 0.2902 0.2992 0.85457 0.0
O477 O 0.30859 0.32575 0.85532 0.0
O478 O 0.31197 0.33554 0.81989 0.0
O479 O 0.28519 0.33438 0.81055 0.0
O480 O 0.26308 0.31272 0.83281 0.0
O481 O 0.25366 0.3177 0.80238 0.0
O482 O 0.27884 0.3182 0.76373 0.0
O483 O 0.2587 0.29262 0.76181 0.0
O484 O 0.25557 0.27977 0.79522 0.0
O485 O 0.28196 0.2818 0.80728 0.0
O486 O 0.30442 0.30312 0.78481 0.0
O487 O 0.3137 0.29788 0.81519 0.0
H488 H 0.26943 0.30173 0.87931 0.0
H489 H 0.25733 0.31833 0.90625 0.0
H490 H 0.30328 0.36441 0.91676 0.0
H491 H 0.31546 0.34789 0.88997 0.0
H492 H 0.26551 0.3179 0.71827 0.0
H493 H 0.27399 0.30422 0.68707 0.0
H494 H 0.28901 0.25919 0.71421 0.0
H495 H 0.2811 0.27335 0.74551 0.0
Nd496 Nd 0.02423 0.07793 0.56491 0.0
Nd497 Nd 0.03169 0.04286 0.54411 0.0
C498 C 1.01066 0.10713 0.57593 0.0
C499 C 1.01077 0.1229 0.56537 0.0
C500 C 0.99534 0.12954 0.56132 0.0
C501 C 0.99493 0.14288 0.54904 0.0
C502 C 1.00999 0.14974 0.54074 0.0
C503 C 0.02534 0.14284 0.5447 0.0
C504 C 0.02569 0.12944 0.55674 0.0
C505 C 0.05689 0.08278 0.55329 0.0
C506 C 0.01284 0.06538 0.51577 0.0
C507 C 0.04558 0.01389 0.53242 0.0
C508 C 0.04859 0.99908 0.54326 0.0
C509 C 0.06094 0.98827 0.53843 0.0
C510 C 0.06341 0.97392 0.54882 0.0
C511 C 0.05344 0.97023 0.564 0.0
C512 C 0.04163 0.98175 0.56932 0.0
C513 C 0.03931 0.99615 0.55909 0.0
C514 C 0.99896 0.03853 0.55578 0.0
C515 C 0.04349 0.05531 0.59282 0.0
O516 O 1.00092 0.09093 0.56616 0.0
O517 O 0.02617 0.10566 0.5842 0.0
O518 O 0.05393 0.09136 0.57004 0.0
O519 O 0.04285 0.07302 0.54291 0.0
O520 O 1.00979 0.07494 0.53255 0.0
O521 O 0.02361 0.05361 0.51609 0.0
O522 O 0.0552 0.03074 0.54023 0.0
O523 O 0.02894 0.01391 0.52718 0.0
O524 O 1.00171 0.03026 0.53878 0.0
O525 O 0.01314 0.04783 0.56617 0.0
O526 O 0.04712 0.04669 0.57593 0.0
O527 O 0.03185 0.06618 0.59267 0.0
H528 H 0.98357 0.12416 0.56735 0.0
H529 H 0.98287 0.14787 0.54607 0.0
H530 H 0.03728 0.14811 0.5389 0.0
H531 H 0.03762 0.12408 0.55913 0.0
H532 H 0.06842 0.99073 0.52649 0.0
H533 H 0.07273 0.96534 0.5446 0.0
H534 H 0.03352 0.97907 0.58069 0.0
H535 H 0.02992 1.00469 0.5632 0.0
Nd536 Nd 0.29573 0.82086 0.81129 0.0
Nd537 Nd 0.26418 0.79767 0.79429 0.0
C538 C 0.32579 0.84593 0.82215 0.0
C539 C 0.344 0.84425 0.82728 0.0
C540 C 0.35138 0.83138 0.8153 0.0
C541 C 0.36801 0.82838 0.82175 0.0
C542 C 0.3773 0.83808 0.84029 0.0
C543 C 0.36979 0.85084 0.85224 0.0
C544 C 0.35332 0.85399 0.84571 0.0
C545 C 0.27507 0.81309 0.84026 0.0
C546 C 0.29663 0.77656 0.8071 0.0
C547 C 0.23412 0.77241 0.78336 0.0
C548 C 0.2153 0.77199 0.78282 0.0
C549 C 0.20911 0.78396 0.79708 0.0
C550 C 0.19123 0.78458 0.79504 0.0
C551 C 0.17942 0.77335 0.77864 0.0
C552 C 0.18577 0.76127 0.76456 0.0
C553 C 0.20355 0.76057 0.76669 0.0
C554 C 0.28552 0.80446 0.7657 0.0
C555 C 0.26375 0.84202 0.79965 0.0
O556 O 0.31852 0.84009 0.80362 0.0
O557 O 0.3154 0.84053 0.83458 0.0
O558 O 0.29135 0.81144 0.84082 0.0
O559 O 0.26988 0.8175 0.824 0.0
O560 O 0.30687 0.79355 0.8089 0.0
O561 O 0.27928 0.77491 0.80392 0.0
O562 O 0.24366 0.77495 0.8008 0.0
O563 O 0.24179 0.78223 0.77137 0.0
O564 O 0.26942 0.80682 0.76462 0.0
O565 O 0.29021 0.80029 0.78219 0.0
O566 O 0.25363 0.82539 0.79989 0.0
O567 O 0.28088 0.84306 0.80016 0.0
H568 H 0.3442 0.82338 0.80118 0.0
H569 H 0.3736 0.81851 0.81229 0.0
H570 H 0.37652 0.85814 0.86682 0.0
H571 H 0.34759 0.86359 0.85533 0.0
H572 H 0.21814 0.79311 0.8095 0.0
H573 H 0.18669 0.79403 0.80608 0.0
H574 H 0.17713 0.75287 0.75145 0.0
H575 H 0.20825 0.75155 0.75538 0.0
Nd576 Nd 0.5118 0.05622 0.04586 0.0
Nd577 Nd 0.55102 0.06085 0.06522 0.0
C578 C 0.47986 0.05597 0.02909 0.0
C579 C 0.46246 0.04787 0.03397 0.0
C580 C 0.45119 0.05991 0.03948 0.0
C581 C 0.43538 0.05279 0.04596 0.0
C582 C 0.43052 0.03344 0.04689 0.0
C583 C 0.44178 0.02137 0.04125 0.0
C584 C 0.45764 0.02852 0.03493 0.0
C585 C 0.51929 0.02647 0.06238 0.0
C586 C 0.52216 0.06785 0.09292 0.0
C587 C 0.58346 0.05743 0.07604 0.0
C588 C 0.60029 0.06743 0.07149 0.0
C589 C 0.61211 0.05703 0.06386 0.0
C590 C 0.62757 0.06635 0.05822 0.0
C591 C 0.63143 0.08622 0.06021 0.0
C592 C 0.61954 0.09659 0.06777 0.0
C593 C 0.60404 0.08729 0.07325 0.0
C594 C 0.54228 0.09398 0.05924 0.0
C595 C 0.54185 0.05289 0.01679 0.0
O596 O 0.48936 0.07042 0.04218 0.0
O597 O 0.48907 0.04382 0.02222 0.0
O598 O 0.50373 0.0303 0.06113 0.0
O599 O 0.52879 0.03643 0.05302 0.0
O600 O 0.51341 0.07215 0.07739 0.0
O601 O 0.53538 0.05911 0.09118 0.0
O602 O 0.57294 0.04604 0.061 0.0
O603 O 0.57516 0.06764 0.08742 0.0
O604 O 0.55408 0.09302 0.07362 0.0
O605 O 0.53672 0.07823 0.04786 0.0
O606 O 0.55414 0.05671 0.03255 0.0
O607 O 0.52491 0.05206 0.01792 0.0
H608 H 0.45478 0.07492 0.03915 0.0
H609 H 0.42708 0.06248 0.05047 0.0
H610 H 0.43828 1.00634 0.04151 0.0
H611 H 0.46617 0.01889 0.03104 0.0
H612 H 0.60927 0.0417 0.06209 0.0
H613 H 0.63661 0.05806 0.0525 0.0
H614 H 0.62209 0.11189 0.06915 0.0
H615 H 0.59493 0.09564 0.07864 0.0
Nd616 Nd 0.27013 0.30144 0.30448 0.0
Nd617 Nd 0.30594 0.33092 0.32605 0.0
C618 C 0.23823 0.28543 0.28582 0.0
C619 C 0.22181 0.29202 0.28792 0.0
C620 C 0.22165 0.31131 0.28868 0.0
C621 C 0.20818 0.31879 0.29626 0.0
C622 C 0.19464 0.30716 0.30317 0.0
C623 C 0.19408 0.28761 0.30108 0.0
C624 C 0.20761 0.2801 0.29351 0.0
C625 C 0.28287 0.29855 0.34169 0.0
C626 C 0.26981 0.34601 0.32458 0.0
C627 C 0.33525 0.34623 0.3504 0.0
C628 C 0.35329 0.34577 0.34633 0.0
C629 C 0.36268 0.33412 0.35548 0.0
C630 C 0.37651 0.328 0.34712 0.0
C631 C 0.3812 0.33357 0.32961 0.0
C632 C 0.37314 0.34693 0.3218 0.0
C633 C 0.35931 0.353 0.33009 0.0
C634 C 0.30028 0.33138 0.2861 0.0
C635 C 0.30658 0.28815 0.30147 0.0
O636 O 0.25002 0.29572 0.2776 0.0
O637 O 0.24512 0.28037 0.30175 0.0
O638 O 0.27571 0.28399 0.32782 0.0
O639 O 0.28247 0.3141 0.33619 0.0
O640 O 0.26127 0.32924 0.31425 0.0
O641 O 0.28676 0.35011 0.33189 0.0
O642 O 0.32559 0.32959 0.35117 0.0
O643 O 0.32662 0.35627 0.34031 0.0
O644 O 0.31397 0.34201 0.29793 0.0
O645 O 0.29136 0.3212 0.29579 0.0
O646 O 0.31422 0.30286 0.3157 0.0
O647 O 0.29016 0.28558 0.29246 0.0
H648 H 0.2325 0.32092 0.28468 0.0
H649 H 0.20884 0.33386 0.29763 0.0
H650 H 0.1839 0.27838 0.30655 0.0
H651 H 0.20766 0.26527 0.29339 0.0
H652 H 0.3583 0.32836 0.368 0.0
H653 H 0.3827 0.31788 0.35356 0.0
H654 H 0.37636 0.35138 0.3082 0.0
H655 H 0.35238 0.36198 0.32262 0.0
Nd656 Nd 0.52431 0.57644 0.06477 0.0
Nd657 Nd 0.53239 0.54097 0.04365 0.0
C658 C 0.50973 0.60492 0.07598 0.0
C659 C 0.50825 0.62053 0.06545 0.0
C660 C 0.49155 0.62381 0.0592 0.0
C661 C 0.48981 0.63653 0.04642 0.0
C662 C 0.50476 0.64595 0.03968 0.0
C663 C 0.52147 0.64283 0.04619 0.0
C664 C 0.52321 0.6302 0.05888 0.0
C665 C 0.55662 0.5815 0.05232 0.0
C666 C 0.51211 0.56325 0.01591 0.0
C667 C 0.54678 0.51269 0.03084 0.0
C668 C 0.54921 0.49624 0.03971 0.0
C669 C 0.56553 0.49639 0.05079 0.0
C670 C 0.56715 0.48216 0.06164 0.0
C671 C 0.55244 0.4677 0.06157 0.0
C672 C 0.53632 0.46716 0.04998 0.0
C673 C 0.53471 0.48125 0.03908 0.0
C674 C 0.50018 0.53613 0.05645 0.0
C675 C 0.54439 0.55381 0.09262 0.0
O676 O 0.50042 0.58835 0.06668 0.0
O677 O 0.52575 0.60433 0.08352 0.0
O678 O 0.5538 0.59065 0.06887 0.0
O679 O 0.54254 0.57133 0.04244 0.0
O680 O 0.5088 0.5723 0.0328 0.0
O681 O 0.52365 0.55227 0.01605 0.0
O682 O 0.55616 0.52916 0.04044 0.0
O683 O 0.53044 0.51322 0.02456 0.0
O684 O 0.50272 0.52689 0.03979 0.0
O685 O 0.51438 0.54616 0.06607 0.0
O686 O 0.54728 0.54427 0.07574 0.0
O687 O 0.53341 0.56547 0.09256 0.0
H688 H 0.47983 0.61616 0.06377 0.0
H689 H 0.47683 0.63888 0.04166 0.0
H690 H 0.53329 0.65034 0.04166 0.0
H691 H 0.53625 0.62773 0.06312 0.0
H692 H 0.57689 0.50781 0.05154 0.0
H693 H 0.57971 0.48267 0.07044 0.0
H694 H 0.52492 0.45581 0.04938 0.0
H695 H 0.52196 0.48063 0.03064 0.0
Nd696 Nd 0.79981 0.32309 0.31259 0.0
Nd697 Nd 0.76785 0.2992 0.29742 0.0
C698 C 0.83007 0.34803 0.32084 0.0
C699 C 0.84826 0.34579 0.32373 0.0
C700 C 0.85298 0.32975 0.31345 0.0
C701 C 0.86916 0.32542 0.31945 0.0
C702 C 0.88049 0.3369 0.33596 0.0
C703 C 0.87606 0.35333 0.34566 0.0
C704 C 0.86003 0.35778 0.33952 0.0
C705 C 0.78043 0.3166 0.34274 0.0
C706 C 0.80094 0.27873 0.30885 0.0
C707 C 0.73812 0.27364 0.29181 0.0
C708 C 0.72027 0.27567 0.29381 0.0
C709 C 0.71748 0.29335 0.30248 0.0
C710 C 0.70067 0.29714 0.29982 0.0
C711 C 0.68659 0.28319 0.28861 0.0
C712 C 0.6892 0.26496 0.2815 0.0
C713 C 0.70605 0.26126 0.284 0.0
C714 C 0.78737 0.30456 0.26705 0.0
C715 C 0.76672 0.34369 0.30137 0.0
O716 O 0.8213 0.34247 0.30288 0.0
O717 O 0.82105 0.34242 0.33435 0.0
O718 O 0.7967 0.31493 0.34297 0.0
O719 O 0.77454 0.32019 0.3263 0.0
O720 O 0.81101 0.2957 0.30992 0.0
O721 O 0.78363 0.277 0.30662 0.0
O722 O 0.74924 0.27774 0.30832 0.0
O723 O 0.74447 0.28122 0.27756 0.0
O724 O 0.77091 0.30566 0.26631 0.0
O725 O 0.79319 0.30173 0.28387 0.0
O726 O 0.75667 0.32664 0.29998 0.0
O727 O 0.78407 0.34546 0.30361 0.0
H728 H 0.84383 0.32008 0.3015 0.0
H729 H 0.8724 0.31265 0.31191 0.0
H730 H 0.88477 0.36239 0.35836 0.0
H731 H 0.85639 0.36998 0.34779 0.0
H732 H 0.72847 0.30462 0.31006 0.0
H733 H 0.69889 0.31127 0.30535 0.0
H734 H 0.67855 0.2541 0.27252 0.0
H735 H 0.70816 0.24766 0.27707 0.0
Nd736 Nd 1.01092 0.551 0.54297 0.0
Nd737 Nd 0.04916 0.55691 0.56471 0.0
C738 C 0.97759 0.54968 0.52964 0.0
C739 C 0.96091 0.54099 0.53542 0.0
C740 C 0.94815 0.55183 0.53824 0.0
C741 C 0.9326 0.54427 0.5449 0.0
C742 C 0.92961 0.52573 0.54877 0.0
C743 C 0.94252 0.51495 0.54617 0.0
C744 C 0.95813 0.52258 0.53966 0.0
C745 C 0.02195 0.51884 0.54998 0.0
C746 C 0.01906 0.56099 0.59152 0.0
C747 C 0.08188 0.55483 0.57632 0.0
C748 C 0.09856 0.56449 0.57121 0.0
C749 C 0.11222 0.55482 0.56887 0.0
C750 C 0.12786 0.56374 0.56324 0.0
C751 C 0.13002 0.58247 0.5599 0.0
C752 C 0.1162 0.59204 0.56202 0.0
C753 C 0.10054 0.58308 0.56751 0.0
C754 C 0.04046 0.58968 0.55749 0.0
C755 C 0.04105 0.54955 0.51603 0.0
O756 O 0.98736 0.56365 0.54282 0.0
O757 O 0.98667 0.53815 0.52139 0.0
O758 O 1.01117 0.51939 0.53453 0.0
O759 O 0.0249 0.53438 0.56173 0.0
O760 O 1.00924 0.56275 0.57534 0.0
O761 O 0.03393 0.55501 0.59082 0.0
O762 O 0.07151 0.54249 0.56185 0.0
O763 O 0.07344 0.56571 0.58675 0.0
O764 O 0.0518 0.589 0.5724 0.0
O765 O 0.03541 0.57391 0.54596 0.0
O766 O 0.05088 0.54703 0.53185 0.0
O767 O 0.02594 0.55492 0.51713 0.0
H768 H 0.95025 0.56617 0.53536 0.0
H769 H 0.92276 0.55278 0.5466 0.0
H770 H 0.94055 0.50068 0.54924 0.0
H771 H 0.96803 0.51413 0.53806 0.0
H772 H 0.11076 0.54038 0.57135 0.0
H773 H 0.13837 0.5561 0.5618 0.0
H774 H 0.11742 0.60636 0.55923 0.0
H775 H 0.08996 0.59065 0.56876 0.0
Nd776 Nd 0.79221 0.81223 0.32622 0.0
Nd777 Nd 0.77607 0.80333 0.28888 0.0
C778 C 0.80375 0.81871 0.3646 0.0
C779 C 0.79642 0.82465 0.38248 0.0
C780 C 0.77923 0.81626 0.38509 0.0
C781 C 0.7717 0.82422 0.4009 0.0
C782 C 0.78117 0.84079 0.41377 0.0
C783 C 0.79844 0.84884 0.41136 0.0
C784 C 0.80604 0.84075 0.3959 0.0
C785 C 0.80187 0.84277 0.30727 0.0
C786 C 0.75061 0.81481 0.32004 0.0
C787 C 0.7619 0.80166 0.25203 0.0
C788 C 0.76621 0.79305 0.23307 0.0
C789 C 0.77252 0.80479 0.22011 0.0
C790 C 0.77877 0.79722 0.2032 0.0
C791 C 0.77869 0.77778 0.19897 0.0
C792 C 0.77203 0.76598 0.21175 0.0
C793 C 0.76591 0.77355 0.22871 0.0
C794 C 0.77413 0.76968 0.30375 0.0
C795 C 0.81636 0.79868 0.29528 0.0
O796 O 0.79717 0.80167 0.3543 0.0
O797 O 0.80621 0.83154 0.35359 0.0
O798 O 0.81286 0.83461 0.31623 0.0
O799 O 0.78617 0.83353 0.30677 0.0
O800 O 0.76521 0.81886 0.33304 0.0
O801 O 0.75112 0.80816 0.30141 0.0
O802 O 0.77396 0.81603 0.26203 0.0
O803 O 0.75528 0.79012 0.26318 0.0
O804 O 0.77945 0.77227 0.28708 0.0
O805 O 0.77144 0.78519 0.31277 0.0
O806 O 0.80487 0.80416 0.28328 0.0
O807 O 0.81254 0.79665 0.31295 0.0
H808 H 0.77147 0.80398 0.37467 0.0
H809 H 0.7584 0.81782 0.40274 0.0
H810 H 0.806 0.86151 0.4214 0.0
H811 H 0.81923 0.8475 0.39396 0.0
H812 H 0.77305 0.8199 0.22336 0.0
H813 H 0.78391 0.80662 0.19361 0.0
H814 H 0.77143 0.75085 0.20859 0.0
H815 H 0.76126 0.76416 0.23852 0.0
Nd816 Nd 0.7862 0.33312 0.82135 0.0
Nd817 Nd 0.78163 0.29004 0.80064 0.0
C818 C 0.7826 0.368 0.83312 0.0
C819 C 0.79252 0.38602 0.82926 0.0
C820 C 0.78342 0.39967 0.82403 0.0
C821 C 0.79238 0.41585 0.81812 0.0
C822 C 0.81061 0.41859 0.81722 0.0
C823 C 0.81972 0.40493 0.82258 0.0
C824 C 0.81077 0.38883 0.82856 0.0
C825 C 0.8196 0.32648 0.81629 0.0
C826 C 0.78034 0.3215 0.77251 0.0
C827 C 0.78564 0.25551 0.78785 0.0
C828 C 0.77521 0.23702 0.78977 0.0
C829 C 0.78383 0.22294 0.79478 0.0
C830 C 0.77417 0.20615 0.79883 0.0
C831 C 0.75571 0.20322 0.798 0.0
C832 C 0.7471 0.2173 0.79277 0.0
C833 C 0.75675 0.23403 0.7887 0.0
C834 C 0.74821 0.2973 0.80464 0.0
C835 C 0.78612 0.30116 0.8495 0.0
O836 O 0.77287 0.35668 0.81749 0.0
O837 O 0.79122 0.35906 0.84456 0.0
O838 O 0.81635 0.34266 0.82338 0.0
O839 O 0.805 0.31456 0.81103 0.0
O840 O 0.77964 0.33384 0.78842 0.0
O841 O 0.78375 0.30463 0.77361 0.0
O842 O 0.79432 0.26603 0.80452 0.0
O843 O 0.77787 0.26514 0.77646 0.0
O844 O 0.75116 0.28087 0.79775 0.0
O845 O 0.763 0.30876 0.8103 0.0
O846 O 0.78664 0.28869 0.8336 0.0
O847 O 0.7839 0.31853 0.84851 0.0
H848 H 0.7693 0.39761 0.82412 0.0
H849 H 0.78497 0.42603 0.81389 0.0
H850 H 0.8338 0.40676 0.82231 0.0
H851 H 0.81814 0.3785 0.83238 0.0
H852 H 0.79807 0.2251 0.79595 0.0
H853 H 0.78115 0.19548 0.80262 0.0
H854 H 0.73295 0.21562 0.7923 0.0
H855 H 0.74977 0.24476 0.78513 0.0
Nd856 Nd 0.77354 0.80091 0.79841 0.0
Nd857 Nd 0.80722 0.82988 0.82494 0.0
C858 C 0.74242 0.78552 0.77748 0.0
C859 C 0.7259 0.79171 0.78048 0.0
C860 C 0.7244 0.81029 0.77879 0.0
C861 C 0.7122 0.81858 0.78824 0.0
C862 C 0.70155 0.80847 0.79962 0.0
C863 C 0.70176 0.78935 0.79969 0.0
C864 C 0.71372 0.78094 0.78996 0.0
C865 C 0.78367 0.79441 0.83512 0.0
C866 C 0.77041 0.8432 0.82333 0.0
C867 C 0.83629 0.84202 0.85008 0.0
C868 C 0.85379 0.84093 0.84445 0.0
C869 C 0.86312 0.82838 0.85202 0.0
C870 C 0.87638 0.82231 0.84239 0.0
C871 C 0.88053 0.82872 0.82504 0.0
C872 C 0.87204 0.84229 0.81832 0.0
C873 C 0.85888 0.84839 0.82795 0.0
C874 C 0.80418 0.8355 0.78624 0.0
C875 C 0.81037 0.78914 0.79734 0.0
O876 O 0.75441 0.79721 0.77101 0.0
O877 O 0.7491 0.77851 0.79214 0.0
O878 O 0.77824 0.78103 0.81964 0.0
O879 O 0.78317 0.8106 0.83127 0.0
O880 O 0.76327 0.82747 0.81019 0.0
O881 O 0.78684 0.84711 0.83258 0.0
O882 O 0.82594 0.8254 0.84937 0.0
O883 O 0.82811 0.85379 0.84221 0.0
O884 O 0.81654 0.84563 0.80012 0.0
O885 O 0.79505 0.82309 0.79352 0.0
O886 O 0.81627 0.80265 0.81321 0.0
O887 O 0.79486 0.78722 0.78642 0.0
H888 H 0.73361 0.81903 0.77165 0.0
H889 H 0.71213 0.83332 0.78802 0.0
H890 H 0.69339 0.78129 0.80824 0.0
H891 H 0.71459 0.76661 0.79148 0.0
H892 H 0.85928 0.82221 0.86452 0.0
H893 H 0.8829 0.81206 0.84809 0.0
H894 H 0.87473 0.84735 0.80486 0.0
H895 H 0.85184 0.85787 0.82149 0.0
Nd896 Nd 0.54077 0.57767 0.55694 0.0
Nd897 Nd 0.51709 0.53544 0.54569 0.0
C898 C 0.55283 0.61397 0.57167 0.0
C899 C 0.55255 0.63022 0.5616 0.0
C900 C 0.54927 0.64715 0.57161 0.0
C901 C 0.54697 0.66177 0.56139 0.0
C902 C 0.54779 0.6596 0.54094 0.0
C903 C 0.55125 0.64266 0.53105 0.0
C904 C 0.55355 0.62815 0.54125 0.0
C905 C 0.54357 0.56245 0.51787 0.0
C906 C 0.49844 0.57031 0.53771 0.0
C907 C 0.50507 0.49892 0.53198 0.0
C908 C 0.50709 0.48261 0.54179 0.0
C909 C 0.52218 0.47481 0.5407 0.0
C910 C 0.52521 0.46104 0.55179 0.0
C911 C 0.51322 0.45464 0.56421 0.0
C912 C 0.49789 0.46203 0.56488 0.0
C913 C 0.49485 0.47582 0.55379 0.0
C914 C 0.51581 0.55012 0.58522 0.0
C915 C 0.55947 0.54292 0.56376 0.0
O916 O 0.53724 0.60476 0.57385 0.0
O917 O 0.56314 0.60265 0.56582 0.0
O918 O 0.5513 0.57931 0.52722 0.0
O919 O 0.5341 0.5546 0.52934 0.0
O920 O 0.5134 0.58227 0.54589 0.0
O921 O 0.4967 0.55163 0.53419 0.0
O922 O 0.51951 0.50855 0.52737 0.0
O923 O 0.49509 0.50994 0.53933 0.0
O924 O 0.50876 0.53291 0.57639 0.0
O925 O 0.52447 0.55835 0.57343 0.0
O926 O 0.54503 0.53131 0.55367 0.0
O927 O 0.56043 0.56127 0.56996 0.0
H928 H 0.5481 0.64889 0.58722 0.0
H929 H 0.54417 0.67458 0.56939 0.0
H930 H 0.55228 0.64063 0.5154 0.0
H931 H 0.55587 0.61519 0.53308 0.0
H932 H 0.53196 0.47972 0.53171 0.0
H933 H 0.53726 0.45584 0.55109 0.0
H934 H 0.48824 0.45722 0.57406 0.0
H935 H 0.48308 0.48146 0.55499 0.0
Nd936 Nd 0.04964 0.57026 0.051 0.0
Nd937 Nd 1.01001 0.55367 0.06219 0.0
C938 C 0.07702 0.57802 0.03297 0.0
C939 C 0.09132 0.56776 0.03361 0.0
C940 C 0.10704 0.574 0.02642 0.0
C941 C 0.12101 0.56476 0.02911 0.0
C942 C 0.11934 0.54945 0.03925 0.0
C943 C 0.10333 0.54288 0.04577 0.0
C944 C 0.08941 0.5519 0.04287 0.0
C945 C 0.05109 0.55499 0.08539 0.0
C946 C 0.02983 0.52491 0.03737 0.0
C947 C 0.98284 0.54471 0.08015 0.0
C948 C 0.96662 0.55225 0.07861 0.0
C949 C 0.96309 0.56428 0.09494 0.0
C950 C 0.94952 0.57409 0.09271 0.0
C951 C 0.93926 0.572 0.0741 0.0
C952 C 0.94248 0.55954 0.05792 0.0
C953 C 0.95602 0.54982 0.06011 0.0
C954 C 1.00786 0.56779 0.02729 0.0
C955 C 0.02954 0.5995 0.07469 0.0
O956 O 0.06177 0.56773 0.02362 0.0
O957 O 0.07584 0.58803 0.05013 0.0
O958 O 0.06508 0.56287 0.07891 0.0
O959 O 0.03795 0.55589 0.07378 0.0
O960 O 0.04087 0.53972 0.03375 0.0
O961 O 0.01858 0.5263 0.05023 0.0
O962 O 0.9972 0.55712 0.08905 0.0
O963 O 0.98532 0.53378 0.06413 0.0
O964 O 0.99416 0.55992 0.03436 0.0
O965 O 0.02142 0.5676 0.03884 0.0
O966 O 0.01792 0.58488 0.07789 0.0
O967 O 0.04176 0.59785 0.06311 0.0
H968 H 0.10866 0.58622 0.01925 0.0
H969 H 0.13333 0.57005 0.02405 0.0
H970 H 0.1017 0.53098 0.05343 0.0
H971 H 0.07726 0.54676 0.04832 0.0
H972 H 0.97125 0.56663 0.10925 0.0
H973 H 0.94736 0.58368 0.1054 0.0
H974 H 0.93454 0.55733 0.04348 0.0
H975 H 0.95847 0.54084 0.04712 0.0
H976 H 1.00642 0.27215 0.93524 0.0
H977 H 0.01261 0.25184 0.95824 0.0
H978 H 0.0676 0.26354 0.95107 0.0
H979 H 0.06155 0.28445 0.92764 0.0
H980 H 0.02701 0.21927 0.94869 0.0
H981 H 0.06685 0.27237 0.01277 0.0
H982 H 0.05267 0.27881 0.99364 0.0
H983 H 0.07341 0.27345 0.98877 0.0
C984 C 0.01994 0.27066 0.93851 0.0
C985 C 0.03353 0.28001 0.92948 0.0
C986 C 0.0234 0.25896 0.95173 0.0
C987 C 0.04052 0.2563 0.95642 0.0
C988 C 0.05429 0.26564 0.94772 0.0
H989 H 0.07825 0.18395 0.03116 0.0
H990 H 0.07529 0.20743 0.0103 0.0
C991 C 0.05081 0.27745 0.93428 0.0
C992 C 0.04337 0.24288 0.96969 0.0
H993 H 0.06161 0.24024 0.01613 0.0
C994 C 0.03466 0.22379 0.9634 0.0
C995 C 0.05315 0.24898 0.98891 0.0
C996 C 0.06199 0.26953 0.99661 0.0
C997 C 0.03557 0.21053 0.9758 0.0
C998 C 0.04528 0.2166 0.99509 0.0
C999 C 0.05414 0.23568 1.00134 0.0
C1000 C 0.04692 0.20319 0.00873 0.0
C1001 C 0.02627 0.19009 0.96803 0.0
C1002 C 0.03195 0.19334 0.01513 0.0
C1003 C 0.03357 0.17973 0.02692 0.0
C1004 C 0.05021 0.17586 0.03257 0.0
C1005 C 0.06521 0.18635 0.02676 0.0
C1006 C 0.06357 0.19987 0.01496 0.0
H1007 H 0.02305 0.18699 0.95161 0.0
H1008 H 0.0345 0.18029 0.97266 0.0
H1009 H 0.0137 0.18713 0.97415 0.0
H1010 H 0.019 0.19597 0.01074 0.0
H1011 H 0.02175 0.17184 0.03107 0.0
H1012 H 0.08429 0.79276 0.23382 0.0
H1013 H 0.11552 0.79099 0.24124 0.0
H1014 H 0.12053 0.82928 0.29684 0.0
H1015 H 0.08962 0.831 0.28969 0.0
H1016 H 0.14684 0.81875 0.24849 0.0
H1017 H 0.14001 0.7864 0.31496 0.0
H1018 H 0.12117 0.78746 0.29775 0.0
H1019 H 0.13188 0.80783 0.31646 0.0
C1020 C 0.092 0.8007 0.24769 0.0
C1021 C 0.08419 0.81192 0.26118 0.0
C1022 C 0.10995 0.79973 0.25192 0.0
C1023 C 0.12053 0.80974 0.26984 0.0
C1024 C 0.11275 0.82104 0.28314 0.0
H1025 H 0.23293 0.82376 0.32308 0.0
H1026 H 0.20242 0.82841 0.31545 0.0
C1027 C 0.09495 0.82209 0.27892 0.0
C1028 C 0.13968 0.80874 0.27469 0.0
H1029 H 0.1694 0.79876 0.31001 0.0
C1030 C 0.1517 0.81429 0.26191 0.0
C1031 C 0.1463 0.80295 0.2922 0.0
C1032 C 0.13416 0.79564 0.30604 0.0
C1033 C 0.16994 0.81454 0.26632 0.0
C1034 C 0.17654 0.80896 0.28394 0.0
C1035 C 0.16455 0.80338 0.29669 0.0
C1036 C 0.19546 0.80719 0.28849 0.0
C1037 C 0.18208 0.82102 0.25213 0.0
C1038 C 0.20182 0.79374 0.27607 0.0
C1039 C 0.21898 0.7909 0.28057 0.0
C1040 C 0.23056 0.80153 0.29755 0.0
C1041 C 0.22445 0.8154 0.30985 0.0
C1042 C 0.20697 0.81801 0.3055 0.0
H1043 H 0.17619 0.82961 0.2424 0.0
H1044 H 0.195 0.82956 0.26025 0.0
H1045 H 0.18457 0.80841 0.24253 0.0
H1046 H 0.19332 0.78502 0.26303 0.0
H1047 H 0.22316 0.78014 0.27066 0.0
H1048 H 0.55855 0.87009 0.43335 0.0
H1049 H 0.56304 0.90021 0.45723 0.0
H1050 H 0.50808 0.90126 0.44226 0.0
H1051 H 0.5035 0.87135 0.41897 0.0
H1052 H 0.55505 0.93728 0.45274 0.0
H1053 H 0.51458 0.90169 0.50251 0.0
H1054 H 0.52376 0.88871 0.48327 0.0
H1055 H 0.50412 0.89732 0.47721 0.0
C1056 C 0.54757 0.87699 0.43497 0.0
C1057 C 0.53064 0.86837 0.42452 0.0
C1058 C 0.55011 0.89408 0.44864 0.0
C1059 C 0.53576 0.90263 0.45182 0.0
C1060 C 0.5192 0.89462 0.44039 0.0
H1061 H 0.50621 0.99471 0.52384 0.0
H1062 H 0.50822 0.96486 0.50313 0.0
C1063 C 0.51663 0.87759 0.42703 0.0
C1064 C 0.53758 0.9196 0.46743 0.0
H1065 H 0.52075 0.93542 0.50881 0.0
C1066 C 0.54779 0.93691 0.46519 0.0
C1067 C 0.52796 0.91899 0.48353 0.0
C1068 C 0.5171 0.90065 0.48693 0.0
C1069 C 0.54792 0.9539 0.47808 0.0
C1070 C 0.53801 0.95336 0.49404 0.0
C1071 C 0.52829 0.93587 0.4966 0.0
C1072 C 0.53688 0.97081 0.50771 0.0
C1073 C 0.55793 0.97229 0.47378 0.0
C1074 C 0.55225 0.98376 0.51772 0.0
C1075 C 0.55108 1.00097 0.52901 0.0
C1076 C 0.53453 1.00509 0.53122 0.0
C1077 C 0.51911 0.99166 0.52241 0.0
C1078 C 0.52028 0.97469 0.51057 0.0
H1079 H 0.56033 0.97079 0.45813 0.0
H1080 H 0.55068 0.98384 0.47676 0.0
H1081 H 0.571 0.97655 0.48335 0.0
H1082 H 0.56517 0.98078 0.51645 0.0
H1083 H 0.56312 0.01116 0.53587 0.0
H1084 H 0.46345 0.30644 0.72414 0.0
H1085 H 0.43395 0.30492 0.733 0.0
H1086 H 0.44949 0.28346 0.78527 0.0
H1087 H 0.47928 0.2849 0.77639 0.0
H1088 H 0.40808 0.27589 0.73855 0.0
H1089 H 0.42996 0.32829 0.80872 0.0
H1090 H 0.44442 0.32454 0.79059 0.0
H1091 H 0.44021 0.30824 0.80726 0.0
C1092 C 0.46067 0.30112 0.7374 0.0
C1093 C 0.47394 0.29567 0.74944 0.0
C1094 C 0.44367 0.30036 0.74252 0.0
C1095 C 0.43938 0.29439 0.76002 0.0
C1096 C 0.45245 0.28851 0.77189 0.0
H1097 H 0.34486 0.29009 0.81867 0.0
H1098 H 0.37392 0.28838 0.80935 0.0
C1099 C 0.46949 0.28916 0.76669 0.0
C1100 C 0.4213 0.29446 0.76569 0.0
H1101 H 0.39967 0.31319 0.80187 0.0
C1102 C 0.40627 0.28405 0.75241 0.0
C1103 C 0.41875 0.30512 0.78375 0.0
C1104 C 0.43415 0.31733 0.79835 0.0
C1105 C 0.38895 0.28365 0.7568 0.0
C1106 C 0.38636 0.29443 0.77482 0.0
C1107 C 0.40143 0.30486 0.78809 0.0
C1108 C 0.36824 0.2951 0.78024 0.0
C1109 C 0.37368 0.27115 0.74222 0.0
C1110 C 0.35511 0.29965 0.76723 0.0
C1111 C 0.3383 0.30035 0.77244 0.0
C1112 C 0.33416 0.29687 0.79101 0.0
C1113 C 0.34739 0.29262 0.80415 0.0
C1114 C 0.36414 0.29174 0.79885 0.0
H1115 H 0.37791 0.25942 0.733 0.0
H1116 H 0.36286 0.2649 0.74986 0.0
H1117 H 0.36842 0.27974 0.73207 0.0
H1118 H 0.35791 0.303 0.75308 0.0
H1119 H 0.32864 0.30398 0.76201 0.0
H1120 H 0.97231 0.81255 0.58653 0.0
H1121 H 0.98806 0.84156 0.57691 0.0
H1122 H 0.02898 0.84922 0.627 0.0
H1123 H 0.01371 0.82044 0.6362 0.0
H1124 H 0.99586 0.87694 0.59863 0.0
H1125 H 0.05802 0.85554 0.58327 0.0
H1126 H 0.03865 0.83867 0.58597 0.0
H1127 H 0.05333 0.85269 0.6075 0.0
C1128 C 0.98474 0.82045 0.59525 0.0
C1129 C 0.99203 0.81427 0.6118 0.0
C1130 C 0.99372 0.83684 0.58978 0.0
C1131 C 1.0099 0.84711 0.60098 0.0
C1132 C 0.01689 0.84108 0.61776 0.0
H1133 H 0.05228 0.96595 0.60251 0.0
H1134 H 0.04413 0.93573 0.61371 0.0
C1135 C 1.0081 0.82472 0.62304 0.0
C1136 C 0.01887 0.86502 0.59624 0.0
H1137 H 0.05855 0.88885 0.58775 0.0
C1138 C 1.00952 0.87952 0.59607 0.0
C1139 C 0.03672 0.86823 0.59305 0.0
C1140 C 0.04719 0.85287 0.59226 0.0
C1141 C 0.01756 0.89731 0.59283 0.0
C1142 C 0.03552 0.90067 0.5902 0.0
C1143 C 0.04488 0.88618 0.59024 0.0
C1144 C 0.04409 0.91854 0.58516 0.0
C1145 C 1.00668 0.91221 0.5918 0.0
C1146 C 0.04766 0.91856 0.56581 0.0
C1147 C 0.05217 0.93564 0.55936 0.0
C1148 C 0.05324 0.95288 0.57226 0.0
C1149 C 0.05126 0.95281 0.59221 0.0
C1150 C 0.04666 0.93566 0.59862 0.0
H1151 H 0.9923 0.90612 0.59049 0.0
H1152 H 1.01064 0.92323 0.60548 0.0
H1153 H 1.009 0.91924 0.57896 0.0
H1154 H 0.04568 0.90537 0.5553 0.0
H1155 H 0.0534 0.93521 0.54387 0.0
H1156 H 0.51553 0.82501 0.95007 0.0
H1157 H 0.48886 0.81524 0.92583 0.0
H1158 H 0.49693 0.87158 0.91199 0.0
H1159 H 0.52482 0.88089 0.93517 0.0
H1160 H 0.45966 0.82427 0.92214 0.0
H1161 H 0.49103 0.84192 0.85797 0.0
H1162 H 0.50386 0.84272 0.88164 0.0
H1163 H 0.49463 0.86266 0.87687 0.0
C1164 C 0.51143 0.83543 0.9421 0.0
C1165 C 0.52197 0.85376 0.94449 0.0
C1166 C 0.4963 0.82976 0.92813 0.0
C1167 C 0.49122 0.8425 0.9167 0.0
C1168 C 0.50108 0.86129 0.92009 0.0
H1169 H 0.40603 0.86509 0.85798 0.0
H1170 H 0.43413 0.86038 0.87317 0.0
C1171 C 0.5167 0.86677 0.93358 0.0
C1172 C 0.47538 0.83609 0.90156 0.0
H1173 H 0.45921 0.839 0.85458 0.0
C1174 C 0.45966 0.82703 0.90719 0.0
C1175 C 0.47552 0.83917 0.8819 0.0
C1176 C 0.49225 0.84694 0.87421 0.0
C1177 C 0.44373 0.82261 0.89422 0.0
C1178 C 0.44364 0.82773 0.87542 0.0
C1179 C 0.4595 0.83524 0.86915 0.0
C1180 C 0.42725 0.82978 0.86437 0.0
C1181 C 0.42692 0.81394 0.90121 0.0
C1182 C 0.41432 0.81404 0.85429 0.0
C1183 C 0.39809 0.81667 0.84578 0.0
C1184 C 0.39481 0.83507 0.84739 0.0
C1185 C 0.40814 0.85076 0.85683 0.0
C1186 C 0.42421 0.84812 0.86532 0.0
H1187 H 0.42941 0.81054 0.91623 0.0
H1188 H 0.41779 0.82386 0.90149 0.0
H1189 H 0.42018 0.80066 0.89073 0.0
H1190 H 0.41662 0.79981 0.85349 0.0
H1191 H 0.38793 0.80436 0.83863 0.0
H1192 H 0.45365 0.2214 0.10165 0.0
H1193 H 0.46085 0.19313 0.08268 0.0
H1194 H 0.51591 0.2141 0.10704 0.0
H1195 H 0.50907 0.24202 0.12588 0.0
H1196 H 0.49126 0.19179 0.0555 0.0
H1197 H 0.49676 0.16036 0.12346 0.0
H1198 H 0.48405 0.17824 0.12067 0.0
H1199 H 0.50772 0.18486 0.12649 0.0
C1200 C 0.46728 0.21999 0.10278 0.0
C1201 C 0.48073 0.23369 0.11548 0.0
C1202 C 0.47133 0.20397 0.09194 0.0
C1203 C 0.48882 0.20173 0.09372 0.0
C1204 C 0.50232 0.21572 0.10569 0.0
H1205 H 0.55684 0.12949 0.07888 0.0
H1206 H 0.54245 0.15634 0.08198 0.0
C1207 C 0.49833 0.23155 0.11653 0.0
C1208 C 0.49326 0.18426 0.08439 0.0
H1209 H 0.51022 0.14761 0.09678 0.0
C1210 C 0.49507 0.18179 0.06427 0.0
C1211 C 0.49821 0.17153 0.09614 0.0
C1212 C 0.49648 0.17375 0.11787 0.0
C1213 C 0.50292 0.16737 0.05582 0.0
C1214 C 0.50875 0.15533 0.06791 0.0
C1215 C 0.50584 0.15711 0.08768 0.0
C1216 C 0.51909 0.14154 0.06121 0.0
C1217 C 0.50583 0.16572 0.03449 0.0
C1218 C 0.51107 0.12492 0.04755 0.0
C1219 C 0.51951 0.10974 0.04541 0.0
C1220 C 0.53556 0.11096 0.0575 0.0
C1221 C 0.54425 0.12818 0.06975 0.0
C1222 C 0.53611 0.14348 0.07146 0.0
H1223 H 0.5028 0.17788 0.028 0.0
H1224 H 0.51973 0.16487 0.03322 0.0
H1225 H 0.49716 0.15246 0.02565 0.0
H1226 H 0.49787 0.12322 0.03966 0.0
H1227 H 0.51296 0.09669 0.03539 0.0
H1228 H 0.08009 0.31845 0.41109 0.0
H1229 H 0.0965 0.32043 0.38312 0.0
H1230 H 0.13379 0.3695 0.41752 0.0
H1231 H 0.11782 0.36726 0.44573 0.0
H1232 H 0.11035 0.34861 0.3607 0.0
H1233 H 0.16197 0.32734 0.40957 0.0
H1234 H 0.13998 0.32685 0.41541 0.0
H1235 H 0.15582 0.349 0.41935 0.0
C1236 C 0.09158 0.32988 0.41252 0.0
C1237 C 0.09806 0.34237 0.43065 0.0
C1238 C 0.10084 0.33106 0.39653 0.0
C1239 C 0.11647 0.34487 0.39854 0.0
C1240 C 0.12189 0.35856 0.41593 0.0
H1241 H 0.20319 0.33811 0.33248 0.0
H1242 H 0.18385 0.35121 0.35359 0.0
C1243 C 0.11283 0.3572 0.43201 0.0
C1244 C 0.12847 0.34303 0.38382 0.0
H1245 H 0.16752 0.33041 0.3776 0.0
C1246 C 0.12295 0.34484 0.36434 0.0
C1247 C 0.14479 0.33796 0.38878 0.0
C1248 C 0.15099 0.335 0.40935 0.0
C1249 C 0.1334 0.34155 0.34951 0.0
C1250 C 0.14951 0.33607 0.3544 0.0
C1251 C 0.15518 0.33474 0.374 0.0
C1252 C 0.1603 0.33036 0.33937 0.0
C1253 C 0.12713 0.34389 0.32879 0.0
C1254 C 0.15339 0.31445 0.3243 0.0
C1255 C 0.16438 0.30723 0.31192 0.0
C1256 C 0.18244 0.31575 0.31463 0.0
C1257 C 0.18921 0.33182 0.32957 0.0
C1258 C 0.17822 0.33916 0.34175 0.0
H1259 H 0.11761 0.35339 0.32876 0.0
H1260 H 0.1384 0.34971 0.32151 0.0
H1261 H 0.12029 0.32982 0.31986 0.0
H1262 H 0.13969 0.30712 0.32266 0.0
H1263 H 0.15888 0.29473 0.30061 0.0
H1264 H 0.92206 0.05178 0.22931 0.0
H1265 H 0.93854 0.04707 0.20126 0.0
H1266 H 0.95725 0.10762 0.20879 0.0
H1267 H 0.94162 0.11225 0.23712 0.0
H1268 H 0.93837 0.05593 0.16633 0.0
H1269 H 1.00351 0.09413 0.20817 0.0
H1270 H 0.98436 0.08879 0.22022 0.0
H1271 H 0.98798 0.10923 0.20847 0.0
C1272 C 0.92962 0.06409 0.22492 0.0
C1273 C 0.93053 0.08241 0.23572 0.0
C1274 C 0.93916 0.06139 0.20885 0.0
C1275 C 0.94982 0.07693 0.20304 0.0
C1276 C 0.94991 0.09523 0.21324 0.0
H1277 H 0.01225 0.08572 0.10326 0.0
H1278 H 0.9972 0.09346 0.13216 0.0
C1279 C 0.94068 0.0979 0.22941 0.0
C1280 C 0.96055 0.07412 0.18626 0.0
H1281 H 1.00185 0.08665 0.17309 0.0
C1282 C 0.95226 0.06261 0.16797 0.0
C1283 C 0.97882 0.08277 0.188 0.0
C1284 C 0.98922 0.09425 0.20733 0.0
C1285 C 0.96146 0.05975 0.15164 0.0
C1286 C 0.97963 0.06847 0.15339 0.0
C1287 C 0.98793 0.08009 0.17154 0.0
C1288 C 0.99034 0.06455 0.13696 0.0
C1289 C 0.95152 0.04748 0.13247 0.0
C1290 C 0.99228 0.04597 0.13045 0.0
C1291 C 1.00088 0.04161 0.11415 0.0
C1292 C 1.00802 0.05567 0.1038 0.0
C1293 C 1.00704 0.07455 0.11092 0.0
C1294 C 0.9983 0.07895 0.12738 0.0
H1295 H 0.93701 0.04613 0.13168 0.0
H1296 H 0.9558 0.05332 0.11951 0.0
H1297 H 0.95424 0.03304 0.13138 0.0
H1298 H 0.98674 0.03464 0.13774 0.0
H1299 H 1.00146 0.02694 0.10925 0.0
H1300 H 0.36076 0.76069 0.50714 0.0
H1301 H 0.34959 0.77322 0.4787 0.0
H1302 H 0.29834 0.73678 0.4753 0.0
H1303 H 0.30954 0.72374 0.50335 0.0
H1304 H 0.30702 0.73505 0.43993 0.0
H1305 H 0.31946 0.81096 0.47415 0.0
H1306 H 0.33927 0.802 0.47655 0.0
H1307 H 0.32107 0.79273 0.48859 0.0
C1308 C 0.34703 0.75551 0.50056 0.0
C1309 C 0.33607 0.74127 0.50775 0.0
C1310 C 0.34061 0.76281 0.4843 0.0
C1311 C 0.32298 0.75628 0.47497 0.0
C1312 C 0.31195 0.7422 0.48224 0.0
H1313 H 0.27727 0.81246 0.3837 0.0
H1314 H 0.28474 0.80166 0.41494 0.0
C1315 C 0.31839 0.7348 0.49841 0.0
C1316 C 0.3163 0.76336 0.45701 0.0
H1317 H 0.31387 0.80368 0.43861 0.0
C1318 C 0.30838 0.75007 0.43975 0.0
C1319 C 0.31768 0.78293 0.45671 0.0
C1320 C 0.32465 0.79795 0.47506 0.0
C1321 C 0.30231 0.75575 0.42219 0.0
C1322 C 0.30476 0.77538 0.42149 0.0
C1323 C 0.31217 0.78866 0.43892 0.0
C1324 C 0.30025 0.78231 0.4027 0.0
C1325 C 0.29305 0.74053 0.40468 0.0
C1326 C 0.30679 0.77552 0.38551 0.0
C1327 C 0.30221 0.7813 0.36769 0.0
C1328 C 0.29138 0.79453 0.36659 0.0
C1329 C 0.28546 0.80209 0.38398 0.0
C1330 C 0.28977 0.79595 0.40185 0.0
H1331 H 0.28663 0.72746 0.40956 0.0
H1332 H 0.28283 0.74539 0.39549 0.0
H1333 H 0.30292 0.73664 0.39533 0.0
H1334 H 0.31553 0.76571 0.38582 0.0
H1335 H 0.30745 0.77554 0.35476 0.0
H1336 H 0.57435 0.0138 0.76075 0.0
H1337 H 0.56453 0.02217 0.72923 0.0
H1338 H 0.60732 1.00233 0.70444 0.0
H1339 H 0.6174 0.99392 0.73623 0.0
H1340 H 0.58411 0.04754 0.70827 0.0
H1341 H 0.56161 0.97411 0.66485 0.0
H1342 H 0.56526 0.97932 0.69161 0.0
H1343 H 0.58371 0.97964 0.67827 0.0
C1344 C 0.58167 0.0111 0.74859 0.0
C1345 C 0.59659 1.00302 0.75093 0.0
C1346 C 0.57604 0.01596 0.7306 0.0
C1347 C 0.58503 0.01263 0.71445 0.0
C1348 C 0.60005 1.00475 0.71669 0.0
H1349 H 0.58453 0.0452 0.60185 0.0
H1350 H 0.58979 0.03427 0.63317 0.0
C1351 C 0.60585 1.00005 0.73485 0.0
C1352 C 0.57878 0.01779 0.69541 0.0
H1353 H 0.56205 0.99925 0.64683 0.0
C1354 C 0.57918 0.03698 0.69486 0.0
C1355 C 0.57209 1.00394 0.67805 0.0
C1356 C 0.57045 0.98307 0.67814 0.0
C1357 C 0.57366 0.04274 0.67719 0.0
C1358 C 0.56755 0.02896 0.65971 0.0
C1359 C 0.56673 0.00974 0.66032 0.0
C1360 C 0.5636 0.03454 0.64034 0.0
C1361 C 0.57477 0.06354 0.67707 0.0
C1362 C 0.54698 0.038 0.63392 0.0
C1363 C 0.54385 0.04406 0.61583 0.0
C1364 C 0.55741 0.04695 0.60418 0.0
C1365 C 0.57389 0.04319 0.6106 0.0
C1366 C 0.57691 0.03692 0.62844 0.0
H1367 H 0.57988 0.07253 0.69193 0.0
H1368 H 0.58358 0.06821 0.66645 0.0
H1369 H 0.56147 0.06586 0.67197 0.0
H1370 H 0.53656 0.03625 0.643 0.0
H1371 H 0.53105 0.04695 0.61122 0.0
H1372 H 0.27823 0.4391 0.08622 0.0
H1373 H 0.26547 0.4179 0.05446 0.0
H1374 H 0.31566 0.43082 0.03351 0.0
H1375 H 0.32868 0.45108 0.0656 0.0
H1376 H 0.26124 0.42122 0.01563 0.0
H1377 H 0.30741 0.37419 0.0286 0.0
H1378 H 0.30497 0.39304 0.04769 0.0
H1379 H 0.31894 0.39805 0.02932 0.0
C1380 C 0.28647 0.4374 0.07475 0.0
C1381 C 0.3045 0.44627 0.07834 0.0
C1382 C 0.27917 0.42539 0.05666 0.0
C1383 C 0.28978 0.42242 0.04191 0.0
C1384 C 0.30744 0.43243 0.04501 0.0
H1385 H 0.27728 0.37982 0.92151 0.0
H1386 H 0.27377 0.39727 0.95345 0.0
C1387 C 0.31485 0.444 0.06324 0.0
C1388 C 0.28281 0.40807 0.02372 0.0
H1389 H 0.29247 0.3699 0.99548 0.0
C1390 C 0.26788 0.40982 0.0113 0.0
C1391 C 0.29117 0.39287 0.01843 0.0
C1392 C 0.30638 0.38929 0.03183 0.0
C1393 C 0.26184 0.39742 0.99304 0.0
C1394 C 0.27115 0.38327 0.98711 0.0
C1395 C 0.28537 0.38084 1.00006 0.0
C1396 C 0.26808 0.37232 0.96675 0.0
C1397 C 0.24579 0.39974 0.98008 0.0
C1398 C 0.26555 0.35248 0.96353 0.0
C1399 C 0.26778 0.34253 0.94537 0.0
C1400 C 0.27269 0.35237 0.93034 0.0
C1401 C 0.27367 0.372 0.93301 0.0
C1402 C 0.27143 0.38193 0.95114 0.0
H1403 H 0.23694 0.40649 0.98902 0.0
H1404 H 0.25007 0.40904 0.96955 0.0
H1405 H 0.23818 0.38585 0.97137 0.0
H1406 H 0.26314 0.34488 0.97551 0.0
H1407 H 0.26707 0.3274 0.94368 0.0
H1408 H 0.92201 0.09913 0.36027 0.0
H1409 H 0.93869 0.09838 0.39221 0.0
H1410 H 0.95219 0.04618 0.36665 0.0
H1411 H 0.93656 0.0477 0.33434 0.0
H1412 H 0.93591 0.07667 0.41727 0.0
H1413 H 0.99993 0.07299 0.39163 0.0
H1414 H 0.98163 0.07714 0.3758 0.0
H1415 H 0.9828 0.05335 0.37889 0.0
C1416 C 0.92858 0.08751 0.36146 0.0
C1417 C 0.92807 0.07354 0.34472 0.0
C1418 C 0.93816 0.08709 0.37978 0.0
C1419 C 0.94725 0.0725 0.38195 0.0
C1420 C 0.94604 0.05806 0.36537 0.0
H1421 H 1.0071 0.04058 0.48048 0.0
H1422 H 0.99135 0.04312 0.44872 0.0
C1423 C 0.93687 0.05878 0.3469 0.0
C1424 C 0.95754 0.07226 0.40164 0.0
H1425 H 0.99736 0.06718 0.42417 0.0
C1426 C 0.9494 0.07475 0.41873 0.0
C1427 C 0.97524 0.06982 0.40381 0.0
C1428 C 0.98546 0.06838 0.38658 0.0
C1429 C 0.95815 0.07436 0.43762 0.0
C1430 C 0.97571 0.07159 0.43971 0.0
C1431 C 0.9839 0.06923 0.42268 0.0
C1432 C 0.98563 0.07048 0.45925 0.0
C1433 C 0.94821 0.07638 0.45505 0.0
C1434 C 0.98803 0.08513 0.47591 0.0
C1435 C 0.99682 0.08355 0.49428 0.0
C1436 C 1.00382 0.0675 0.49631 0.0
C1437 C 1.00192 0.05316 0.47948 0.0
C1438 C 0.99289 0.0546 0.46125 0.0
H1439 H 0.93369 0.07306 0.45025 0.0
H1440 H 0.95133 0.06694 0.46539 0.0
H1441 H 0.95206 0.09127 0.46322 0.0
H1442 H 0.98315 0.09785 0.47472 0.0
H1443 H 0.99827 0.09497 0.50685 0.0
H1444 H 0.36238 0.76462 0.61017 0.0
H1445 H 0.35208 0.77816 0.64023 0.0
H1446 H 0.31316 0.72634 0.63552 0.0
H1447 H 0.32288 0.71305 0.60501 0.0
H1448 H 0.29852 0.75419 0.64546 0.0
H1449 H 0.36243 0.77002 0.69505 0.0
H1450 H 0.36392 0.78205 0.6745 0.0
H1451 H 0.35931 0.75647 0.67026 0.0
C1452 C 0.35168 0.75604 0.61555 0.0
C1453 C 0.34359 0.73764 0.6051 0.0
C1454 C 0.34586 0.76377 0.63294 0.0
C1455 C 0.33205 0.7532 0.64064 0.0
C1456 C 0.32389 0.73487 0.63011 0.0
H1457 H 0.31 0.78243 0.7617 0.0
H1458 H 0.32065 0.7701 0.73142 0.0
C1459 C 0.32952 0.72723 0.6126 0.0
C1460 C 0.32574 0.76131 0.65927 0.0
H1461 H 0.33962 0.7836 0.70759 0.0
C1462 C 0.30755 0.76052 0.65906 0.0
C1463 C 0.33732 0.76935 0.67729 0.0
C1464 C 0.35679 0.76935 0.67938 0.0
C1465 C 0.30069 0.76755 0.67607 0.0
C1466 C 0.31238 0.77645 0.69382 0.0
C1467 C 0.33056 0.77709 0.69406 0.0
C1468 C 0.30608 0.78455 0.71245 0.0
C1469 C 0.28088 0.76468 0.67488 0.0
C1470 C 0.2946 0.79724 0.71232 0.0
C1471 C 0.28817 0.80402 0.72964 0.0
C1472 C 0.29351 0.79877 0.7477 0.0
C1473 C 0.30564 0.78683 0.74807 0.0
C1474 C 0.31174 0.77973 0.73067 0.0
H1475 H 0.27393 0.75252 0.66301 0.0
H1476 H 0.27654 0.76208 0.68911 0.0
H1477 H 0.27671 0.77756 0.67125 0.0
H1478 H 0.29048 0.80188 0.69878 0.0
H1479 H 0.27895 0.8133 0.72889 0.0
H1480 H 0.58815 0.97903 0.85679 0.0
H1481 H 0.57542 0.98883 0.88649 0.0
H1482 H 0.60262 0.04687 0.88952 0.0
H1483 H 0.61441 0.03711 0.85896 0.0
H1484 H 0.58999 1.00383 0.92255 0.0
H1485 H 0.55393 0.05439 0.8934 0.0
H1486 H 0.56401 0.03874 0.8777 0.0
H1487 H 0.57719 0.06051 0.8926 0.0
C1488 C 0.59123 0.99388 0.86381 0.0
C1489 C 0.60191 1.00745 0.85574 0.0
C1490 C 0.58403 0.99946 0.88071 0.0
C1491 C 0.58773 0.01865 0.88992 0.0
C1492 C 0.59907 0.03212 0.88222 0.0
H1493 H 0.5751 0.0627 0.0082 0.0
H1494 H 0.58521 0.05452 0.97652 0.0
C1495 C 0.6059 0.02657 0.86497 0.0
C1496 C 0.57999 0.02433 0.90783 0.0
H1497 H 0.5557 0.05446 0.92811 0.0
C1498 C 0.5824 0.01481 0.92369 0.0
C1499 C 0.5699 0.03851 0.90917 0.0
C1500 C 0.56594 0.04848 0.89222 0.0
C1501 C 0.57526 0.01935 0.941 0.0
C1502 C 0.56581 0.03398 0.94256 0.0
C1503 C 0.56309 0.04331 0.92671 0.0
C1504 C 0.55925 0.04017 0.96098 0.0
C1505 C 0.57777 0.00847 0.95754 0.0
C1506 C 0.54122 0.03518 0.96233 0.0
C1507 C 0.53535 0.03986 0.98042 0.0
C1508 C 0.5475 0.04951 0.99725 0.0
C1509 C 0.56546 0.05506 0.99554 0.0
C1510 C 0.57127 0.05045 0.9775 0.0
H1511 H 0.58311 0.99571 0.95282 0.0
H1512 H 0.58712 0.01781 0.97018 0.0
H1513 H 0.56501 1.00396 0.96289 0.0
H1514 H 0.53184 0.02722 0.94958 0.0
H1515 H 0.52144 0.03538 0.98137 0.0
H1516 H 0.27956 0.45068 0.17605 0.0
H1517 H 0.26977 0.42656 0.19576 0.0
H1518 H 0.30542 0.39352 0.17234 0.0
H1519 H 0.31532 0.41731 0.15282 0.0
H1520 H 0.26343 0.37538 0.18003 0.0
H1521 H 0.31576 0.42049 0.23983 0.0
H1522 H 0.30255 0.43088 0.22327 0.0
H1523 H 0.3191 0.41926 0.21434 0.0
C1524 C 0.28499 0.43806 0.17479 0.0
C1525 C 0.29842 0.436 0.16321 0.0
C1526 C 0.27933 0.42432 0.18594 0.0
C1527 C 0.2869 0.40839 0.18532 0.0
C1528 C 0.2994 0.40572 0.17279 0.0
H1529 H 0.31979 0.33807 0.25743 0.0
H1530 H 0.31233 0.35415 0.23029 0.0
C1531 C 0.30514 0.41942 0.16183 0.0
C1532 C 0.28412 0.39595 0.19981 0.0
H1533 H 0.30403 0.38949 0.24381 0.0
C1534 C 0.27198 0.3785 0.1942 0.0
C1535 C 0.29548 0.40023 0.21808 0.0
C1536 C 0.30898 0.41873 0.2244 0.0
C1537 C 0.2715 0.36468 0.20619 0.0
C1538 C 0.2835 0.36864 0.224 0.0
C1539 C 0.29495 0.38652 0.23001 0.0
C1540 C 0.28567 0.35423 0.23615 0.0
C1541 C 0.25889 0.34569 0.19937 0.0
C1542 C 0.27275 0.34801 0.24757 0.0
C1543 C 0.27689 0.33836 0.26276 0.0
C1544 C 0.29408 0.33533 0.26681 0.0
C1545 C 0.30646 0.34021 0.25439 0.0
C1546 C 0.30221 0.34942 0.23899 0.0
H1547 H 0.25205 0.34406 0.18399 0.0
H1548 H 0.26605 0.33404 0.20013 0.0
H1549 H 0.24876 0.34419 0.20936 0.0
H1550 H 0.26003 0.3519 0.2458 0.0
H1551 H 0.26728 0.33498 0.27249 0.0
H1552 H 0.17907 0.95006 0.10603 0.0
H1553 H 0.15637 0.96861 0.10341 0.0
H1554 H 0.15574 0.96116 0.04017 0.0
H1555 H 0.17805 0.94181 0.04266 0.0
H1556 H 0.15812 1.00128 0.09261 0.0
H1557 H 0.10396 0.94949 0.04147 0.0
H1558 H 0.12328 0.94269 0.05251 0.0
H1559 H 0.12415 0.95402 0.03127 0.0
C1560 C 0.17385 0.95202 0.09148 0.0
C1561 C 0.18026 0.94425 0.07453 0.0
C1562 C 0.16091 0.96276 0.09001 0.0
C1563 C 0.15412 0.96625 0.07158 0.0
C1564 C 0.16036 0.95834 0.05452 0.0
H1565 H 0.09473 0.05746 0.06605 0.0
H1566 H 0.11853 0.03985 0.06604 0.0
C1567 C 0.17316 0.94727 0.05596 0.0
C1568 C 0.14116 0.97884 0.07064 0.0
H1569 H 0.09985 0.98088 0.04969 0.0
C1570 C 0.14538 0.99677 0.08321 0.0
C1571 C 0.12446 0.97305 0.05845 0.0
C1572 C 0.11859 0.9537 0.0453 0.0
C1573 C 0.13333 0.00881 0.08423 0.0
C1574 C 0.11671 1.00308 0.07194 0.0
C1575 C 0.11262 0.98534 0.05907 0.0
C1576 C 0.10288 0.01457 0.07309 0.0
C1577 C 0.13825 0.02723 0.09907 0.0
C1578 C 0.08618 1.00635 0.07708 0.0
C1579 C 0.07263 0.01632 0.07703 0.0
C1580 C 0.07542 0.03485 0.07305 0.0
C1581 C 0.09231 0.04342 0.06972 0.0
C1582 C 0.1059 0.0333 0.06959 0.0
H1583 H 0.14935 0.02726 0.1107 0.0
H1584 H 0.14249 0.0391 0.0913 0.0
H1585 H 0.1268 0.02995 0.10637 0.0
H1586 H 0.08348 0.99197 0.07985 0.0
H1587 H 0.05972 0.00922 0.07942 0.0
H1588 H 0.69306 0.5867 0.96423 0.0
H1589 H 0.6649 0.5804 0.97689 0.0
H1590 H 0.68438 0.62843 0.02472 0.0
H1591 H 0.71223 0.63529 0.01168 0.0
H1592 H 0.65764 0.5716 0.01148 0.0
H1593 H 0.63837 0.63947 1.00368 0.0
H1594 H 0.65658 0.63234 0.99291 0.0
H1595 H 0.65943 0.64294 0.01876 0.0
C1596 C 0.69123 0.59606 0.97729 0.0
C1597 C 0.7047 0.61164 0.9868 0.0
C1598 C 0.67519 0.5924 0.98455 0.0
C1599 C 0.67245 0.60416 1.00152 0.0
C1600 C 0.68603 0.61952 0.01126 0.0
H1601 H 0.5877 0.60425 0.07119 0.0
H1602 H 0.61631 0.60826 0.05927 0.0
C1603 C 0.70194 0.62339 1.00382 0.0
C1604 C 0.65549 0.60016 0.00919 0.0
H1605 H 0.62133 0.61999 0.02208 0.0
C1606 C 0.64964 0.58213 0.01369 0.0
C1607 C 0.64507 0.61393 0.01199 0.0
C1608 C 0.65009 0.63318 0.00639 0.0
C1609 C 0.63375 0.57762 0.02125 0.0
C1610 C 0.62356 0.5915 0.02431 0.0
C1611 C 0.62935 0.60947 0.0198 0.0
C1612 C 0.6067 0.58777 0.03208 0.0
C1613 C 0.6281 0.55819 0.0262 0.0
C1614 C 0.59197 0.57489 0.02065 0.0
C1615 C 0.57563 0.57266 0.02736 0.0
C1616 C 0.57388 0.58335 0.04552 0.0
C1617 C 0.58873 0.59594 0.05709 0.0
C1618 C 0.60503 0.5982 0.05036 0.0
H1619 H 0.63909 0.55056 0.02683 0.0
H1620 H 0.62307 0.55926 0.04063 0.0
H1621 H 0.61721 0.5496 0.01463 0.0
H1622 H 0.59301 0.56694 0.00636 0.0
H1623 H 0.56435 0.56279 0.01823 0.0
H1624 H 0.7224 0.50809 0.34446 0.0
H1625 H 0.73456 0.47968 0.33837 0.0
H1626 H 0.68917 0.45264 0.29438 0.0
H1627 H 0.67764 0.48162 0.29953 0.0
H1628 H 0.7276 0.44709 0.3441 0.0
H1629 H 0.72212 0.43496 0.26255 0.0
H1630 H 0.71785 0.45622 0.27638 0.0
H1631 H 0.70091 0.43463 0.27012 0.0
C1632 C 0.71517 0.4963 0.33308 0.0
C1633 C 0.69912 0.49764 0.32222 0.0
C1634 C 0.72212 0.47976 0.32968 0.0
C1635 C 0.71324 0.46357 0.31549 0.0
C1636 C 0.69701 0.46482 0.30481 0.0
H1637 H 0.73178 0.34594 0.29156 0.0
H1638 H 0.71891 0.37427 0.29485 0.0
C1639 C 0.69025 0.48157 0.30787 0.0
C1640 C 0.72068 0.44548 0.31268 0.0
H1641 H 0.72841 0.40968 0.27793 0.0
C1642 C 0.72785 0.43917 0.32951 0.0
C1643 C 0.72123 0.43453 0.29379 0.0
C1644 C 0.71529 0.44054 0.27471 0.0
C1645 C 0.73522 0.42276 0.32806 0.0
C1646 C 0.7355 0.41181 0.30925 0.0
C1647 C 0.7282 0.41784 0.29242 0.0
C1648 C 0.74354 0.39432 0.3068 0.0
C1649 C 0.74252 0.41708 0.34681 0.0
C1650 C 0.76183 0.39577 0.31204 0.0
C1651 C 0.7693 0.37954 0.30982 0.0
C1652 C 0.75876 0.36115 0.30247 0.0
C1653 C 0.74044 0.35972 0.29719 0.0
C1654 C 0.73301 0.37602 0.2991 0.0
H1655 H 0.7383 0.42457 0.36013 0.0
H1656 H 0.73825 0.40153 0.34595 0.0
H1657 H 0.75718 0.42064 0.34869 0.0
H1658 H 0.77042 0.40955 0.31785 0.0
H1659 H 0.7834 0.38141 0.31424 0.0
H1660 H 0.77743 0.4299 0.54544 0.0
H1661 H 0.80788 0.44637 0.54499 0.0
H1662 H 0.79975 0.49561 0.58338 0.0
H1663 H 0.76907 0.4792 0.58357 0.0
H1664 H 0.81839 0.48862 0.53602 0.0
H1665 H 0.84515 0.4735 0.60874 0.0
H1666 H 0.82576 0.45818 0.59338 0.0
H1667 H 0.82448 0.48111 0.60611 0.0
C1668 C 0.7821 0.44436 0.55343 0.0
C1669 C 0.77109 0.45354 0.56427 0.0
C1670 C 0.79941 0.45365 0.55327 0.0
C1671 C 0.80588 0.47203 0.56428 0.0
C1672 C 0.79481 0.48138 0.57485 0.0
H1673 H 0.91181 0.54178 0.57629 0.0
H1674 H 0.88167 0.52923 0.582 0.0
C1675 C 0.77737 0.47216 0.57478 0.0
C1676 C 0.82431 0.48132 0.56458 0.0
H1677 H 0.86557 0.48929 0.59102 0.0
C1678 C 0.82872 0.48897 0.54808 0.0
C1679 C 0.83755 0.48157 0.58041 0.0
C1680 C 0.83315 0.47313 0.59822 0.0
C1681 C 0.8463 0.49674 0.54685 0.0
C1682 C 0.85961 0.49654 0.56242 0.0
C1683 C 0.85518 0.48932 0.57918 0.0
C1684 C 0.87829 0.50306 0.56093 0.0
C1685 C 0.85058 0.50491 0.52884 0.0
C1686 C 0.88626 0.49212 0.54765 0.0
C1687 C 0.90333 0.4992 0.54434 0.0
C1688 C 0.91257 0.51732 0.55427 0.0
C1689 C 0.90482 0.52786 0.5683 0.0
C1690 C 0.88774 0.52071 0.57165 0.0
H1691 H 0.83861 0.50715 0.51999 0.0
H1692 H 0.86034 0.51865 0.53328 0.0
H1693 H 0.85656 0.49497 0.51926 0.0
H1694 H 0.87903 0.4784 0.53934 0.0
H1695 H 0.90896 0.49088 0.53334 0.0
H1696 H 0.37907 0.14908 0.3173 0.0
H1697 H 0.35954 0.16998 0.30914 0.0
H1698 H 0.40301 0.20696 0.29183 0.0
H1699 H 0.42222 0.1852 0.29867 0.0
H1700 H 0.36145 0.20349 0.3268 0.0
H1701 H 0.3663 0.20786 0.24836 0.0
H1702 H 0.37512 0.19071 0.26019 0.0
H1703 H 0.38755 0.21481 0.26351 0.0
C1704 C 0.38428 0.16141 0.31122 0.0
C1705 C 0.40205 0.16553 0.30845 0.0
C1706 C 0.37316 0.17339 0.30663 0.0
C1707 C 0.37969 0.19 0.29965 0.0
C1708 C 0.39745 0.19396 0.29657 0.0
H1709 H 0.34214 0.2929 0.30348 0.0
H1710 H 0.35911 0.26796 0.30083 0.0
C1711 C 0.40847 0.18161 0.30059 0.0
C1712 C 0.3683 0.20384 0.29747 0.0
H1713 H 0.35368 0.23141 0.26645 0.0
C1714 C 0.35957 0.20931 0.31344 0.0
C1715 C 0.36591 0.21165 0.28012 0.0
C1716 C 0.37409 0.2058 0.26203 0.0
C1717 C 0.34866 0.22236 0.31258 0.0
C1718 C 0.34659 0.23031 0.29542 0.0
C1719 C 0.3553 0.22507 0.2795 0.0
C1720 C 0.33614 0.24492 0.29436 0.0
C1721 C 0.33964 0.22787 0.33013 0.0
C1722 C 0.31763 0.23995 0.29091 0.0
C1723 C 0.30786 0.25411 0.29204 0.0
C1724 C 0.31657 0.27332 0.29695 0.0
C1725 C 0.33512 0.27818 0.29969 0.0
C1726 C 0.34483 0.26404 0.29821 0.0
H1727 H 0.34378 0.22154 0.34299 0.0
H1728 H 0.3426 0.24356 0.33476 0.0
H1729 H 0.32511 0.22304 0.32582 0.0
H1730 H 0.31079 0.22518 0.28797 0.0
H1731 H 0.29357 0.25003 0.29012 0.0
H1732 H 0.28687 0.11392 0.53097 0.0
H1733 H 0.31449 0.1139 0.55178 0.0
H1734 H 0.33958 0.1056 0.49951 0.0
H1735 H 0.31233 0.10662 0.47888 0.0
H1736 H 0.33221 0.08782 0.55351 0.0
H1737 H 0.37593 0.14793 0.53268 0.0
H1738 H 0.3522 0.14318 0.52609 0.0
H1739 H 0.36539 0.13112 0.5108 0.0
C1740 C 0.29827 0.11187 0.52399 0.0
C1741 C 0.29757 0.11004 0.50339 0.0
C1742 C 0.31405 0.11211 0.53586 0.0
C1743 C 0.32921 0.11034 0.52723 0.0
C1744 C 0.32825 0.10777 0.50655 0.0
H1745 H 0.40883 0.05575 0.54428 0.0
H1746 H 0.38229 0.06847 0.53941 0.0
C1747 C 0.31262 0.10794 0.49475 0.0
C1748 C 0.3457 0.10962 0.53955 0.0
H1749 H 0.39047 0.12382 0.544 0.0
C1750 C 0.34491 0.09611 0.55188 0.0
C1751 C 0.36227 0.12073 0.53781 0.0
C1752 C 0.36394 0.13669 0.52629 0.0
C1753 C 0.36035 0.09214 0.56098 0.0
C1754 C 0.37681 0.10165 0.55727 0.0
C1755 C 0.37771 0.1164 0.54654 0.0
C1756 C 0.39271 0.09417 0.56125 0.0
C1757 C 0.35895 0.077 0.57352 0.0
C1758 C 0.40731 0.10466 0.57494 0.0
C1759 C 0.42251 0.09739 0.57776 0.0
C1760 C 0.42324 0.07978 0.56662 0.0
C1761 C 0.40858 0.06943 0.55291 0.0
C1762 C 0.39342 0.07657 0.55025 0.0
H1763 H 0.3463 0.07511 0.57965 0.0
H1764 H 0.35942 0.06328 0.56425 0.0
H1765 H 0.37011 0.08053 0.58595 0.0
H1766 H 0.40692 0.11839 0.58334 0.0
H1767 H 0.43377 0.10562 0.58832 0.0
H1768 H 0.69853 0.59051 0.30088 0.0
H1769 H 0.71303 0.62207 0.29602 0.0
H1770 H 0.71379 0.64434 0.35781 0.0
H1771 H 0.70099 0.61262 0.36291 0.0
H1772 H 0.70763 0.6538 0.29592 0.0
H1773 H 0.76156 0.66969 0.35907 0.0
H1774 H 0.74698 0.64666 0.35209 0.0
H1775 H 0.7407 0.6658 0.36776 0.0
C1776 C 0.70206 0.60209 0.3135 0.0
C1777 C 0.69882 0.59868 0.33241 0.0
C1778 C 0.71038 0.62037 0.31072 0.0
C1779 C 0.71542 0.63613 0.32662 0.0
C1780 C 0.71128 0.63274 0.34529 0.0
H1781 H 0.75801 0.76012 0.33565 0.0
H1782 H 0.74383 0.72848 0.34082 0.0
C1783 C 0.7036 0.6144 0.34821 0.0
C1784 C 0.72442 0.65594 0.32357 0.0
H1785 H 0.75682 0.69585 0.34431 0.0
C1786 C 0.71852 0.66275 0.30653 0.0
C1787 C 0.7388 0.66828 0.33711 0.0
C1788 C 0.74749 0.66214 0.35489 0.0
C1789 C 0.72611 0.681 0.30291 0.0
C1790 C 0.74015 0.69337 0.31667 0.0
C1791 C 0.74602 0.68671 0.33372 0.0
C1792 C 0.74909 0.713 0.31353 0.0
C1793 C 0.71868 0.68701 0.28442 0.0
C1794 C 0.75732 0.71536 0.29669 0.0
C1795 C 0.76562 0.73353 0.2938 0.0
C1796 C 0.76606 0.75016 0.30762 0.0
C1797 C 0.75805 0.74781 0.32462 0.0
C1798 C 0.74985 0.72958 0.32758 0.0
H1799 H 0.70517 0.67851 0.27827 0.0
H1800 H 0.71819 0.70226 0.28736 0.0
H1801 H 0.72731 0.68481 0.27296 0.0
H1802 H 0.75747 0.70306 0.28572 0.0
H1803 H 0.7716 0.73453 0.28053 0.0
H1804 H 0.88565 0.58364 0.83478 0.0
H1805 H 0.86762 0.5515 0.82553 0.0
H1806 H 0.89971 0.53806 0.78076 0.0
H1807 H 0.91802 0.57039 0.78995 0.0
H1808 H 0.84855 0.52995 0.78651 0.0
H1809 H 0.90268 0.49922 0.81924 0.0
H1810 H 0.90302 0.52426 0.82513 0.0
H1811 H 0.90731 0.5141 0.80129 0.0
C1812 C 0.88887 0.57395 0.82287 0.0
C1813 C 0.90343 0.57954 0.81328 0.0
C1814 C 0.87847 0.55561 0.81754 0.0
C1815 C 0.88246 0.54242 0.80262 0.0
C1816 C 0.89655 0.54805 0.79245 0.0
H1817 H 0.83587 0.42119 0.79266 0.0
H1818 H 0.8528 0.4501 0.78445 0.0
C1819 C 0.90695 0.56652 0.79769 0.0
C1820 C 0.87234 0.52257 0.79882 0.0
H1821 H 0.8746 0.47926 0.81003 0.0
C1822 C 0.85428 0.51874 0.79129 0.0
C1823 C 0.87992 0.50798 0.80493 0.0
C1824 C 0.89928 0.51146 0.81319 0.0
C1825 C 0.84339 0.50087 0.79055 0.0
C1826 C 0.85072 0.48671 0.79804 0.0
C1827 C 0.869 0.49018 0.80441 0.0
C1828 C 0.8395 0.46903 0.80139 0.0
C1829 C 0.8241 0.49747 0.7821 0.0
C1830 C 0.8265 0.4701 0.81372 0.0
C1831 C 0.81687 0.45369 0.81846 0.0
C1832 C 0.82019 0.43585 0.81116 0.0
C1833 C 0.83313 0.43476 0.79866 0.0
C1834 C 0.84272 0.45122 0.79386 0.0
H1835 H 0.82202 0.50643 0.77086 0.0
H1836 H 0.81868 0.48235 0.77514 0.0
H1837 H 0.81652 0.50136 0.79418 0.0
H1838 H 0.82416 0.48373 0.82023 0.0
H1839 H 0.80725 0.45504 0.82841 0.0
H1840 H 0.03648 0.86247 0.20228 0.0
H1841 H 0.03926 0.88412 0.17859 0.0
H1842 H 0.02626 0.83613 0.13016 0.0
H1843 H 0.02253 0.8146 0.15381 0.0
H1844 H 0.05744 0.8913 0.14902 0.0
H1845 H 0.98684 0.8619 0.11771 0.0
H1846 H 0.9971 0.8555 0.1396 0.0
H1847 H 1.00019 0.84453 0.11538 0.0
C1848 C 0.03482 0.8566 0.1866 0.0
C1849 C 0.02944 0.83695 0.17979 0.0
C1850 C 0.03625 0.86895 0.17305 0.0
C1851 C 0.03243 0.86176 0.15255 0.0
C1852 C 0.02871 0.84203 0.14586 0.0
H1853 H 0.01477 0.91858 0.05232 0.0
H1854 H 0.02091 0.89559 0.07285 0.0
C1855 C 0.02689 0.82973 0.15936 0.0
C1856 C 0.03104 0.87486 0.13834 0.0
H1857 H 1.00245 0.88504 0.10236 0.0
C1858 C 0.04543 0.8899 0.13879 0.0
C1859 C 0.01531 0.87311 0.12501 0.0
C1860 C 0.99893 0.85801 0.12449 0.0
C1861 C 0.04455 0.90317 0.12628 0.0
C1862 C 0.0288 0.90146 0.1131 0.0
C1863 C 0.01454 0.88626 0.11239 0.0
C1864 C 0.02642 0.91574 0.10054 0.0
C1865 C 0.06054 0.91882 0.12721 0.0
C1866 C 0.02738 0.93468 0.10928 0.0
C1867 C 0.02395 0.94786 0.09759 0.0
C1868 C 0.01933 0.94236 0.07688 0.0
C1869 C 0.01849 0.92337 0.06817 0.0
C1870 C 0.02192 0.91019 0.07989 0.0
H1871 H 0.07286 0.91501 0.13346 0.0
H1872 H 0.06201 0.92216 0.11231 0.0
H1873 H 0.059 0.93183 0.13698 0.0
H1874 H 0.03044 0.9392 0.12522 0.0
H1875 H 0.02494 0.96239 0.1048 0.0
H1876 H 0.99001 0.34979 0.85561 0.0
H1877 H 0.95843 0.34964 0.84697 0.0
H1878 H 0.94582 0.28868 0.84095 0.0
H1879 H 0.97692 0.28907 0.85091 0.0
H1880 H 0.93446 0.3366 0.81706 0.0
H1881 H 0.91076 0.29821 0.87472 0.0
H1882 H 0.93396 0.30628 0.87405 0.0
H1883 H 0.92174 0.28419 0.85875 0.0
C1884 C 0.98045 0.3364 0.85232 0.0
C1885 C 0.98598 0.31944 0.85388 0.0
C1886 C 0.96233 0.33628 0.84747 0.0
C1887 C 0.94935 0.31917 0.84384 0.0
C1888 C 0.95516 0.3022 0.8445 0.0
H1889 H 0.83211 0.29281 0.80949 0.0
H1890 H 0.86334 0.28989 0.81481 0.0
C1891 C 0.97309 0.3024 0.84986 0.0
C1892 C 0.92991 0.31895 0.83885 0.0
H1893 H 0.88861 0.30121 0.84938 0.0
C1894 C 0.92453 0.32891 0.82428 0.0
C1895 C 0.91661 0.30891 0.84808 0.0
C1896 C 0.92109 0.29898 0.8649 0.0
C1897 C 0.90657 0.329 0.8186 0.0
C1898 C 0.89331 0.31888 0.8277 0.0
C1899 C 0.8986 0.30875 0.84212 0.0
C1900 C 0.8742 0.32011 0.82373 0.0
C1901 C 0.90201 0.3399 0.80268 0.0
C1902 C 0.86972 0.3379 0.82711 0.0
C1903 C 0.85211 0.33955 0.82391 0.0
C1904 C 0.83815 0.32347 0.81748 0.0
C1905 C 0.84248 0.30551 0.81415 0.0
C1906 C 0.86034 0.30385 0.81732 0.0
H1907 H 0.91229 0.34134 0.79282 0.0
H1908 H 0.88907 0.33296 0.79349 0.0
H1909 H 0.9013 0.35442 0.80975 0.0
H1910 H 0.87989 0.35064 0.8326 0.0
H1911 H 0.84942 0.35364 0.82691 0.0
H1912 H 0.53474 0.24985 0.70467 0.0
H1913 H 0.54043 0.2218 0.684 0.0
H1914 H 0.4953 0.22061 0.64119 0.0
H1915 H 0.48937 0.24844 0.66166 0.0
H1916 H 0.49702 0.1852 0.65284 0.0
H1917 H 0.55952 0.21936 0.62968 0.0
H1918 H 0.55806 0.22463 0.65569 0.0
H1919 H 0.54365 0.23255 0.63826 0.0
C1920 C 0.526 0.24362 0.69087 0.0
C1921 C 0.51155 0.25141 0.68489 0.0
C1922 C 0.52936 0.22769 0.67902 0.0
C1923 C 0.51842 0.21935 0.66097 0.0
C1924 C 0.50393 0.22693 0.65504 0.0
H1925 H 0.53678 0.13362 0.567 0.0
H1926 H 0.53373 0.16341 0.58719 0.0
C1927 C 0.50055 0.24282 0.66684 0.0
C1928 C 0.52156 0.20223 0.64856 0.0
H1929 H 0.55073 0.18595 0.62061 0.0
C1930 C 0.50875 0.18533 0.64577 0.0
C1931 C 0.53669 0.20262 0.63906 0.0
C1932 C 0.55026 0.22076 0.64061 0.0
C1933 C 0.51076 0.16866 0.63394 0.0
C1934 C 0.5263 0.16877 0.62513 0.0
C1935 C 0.53896 0.18581 0.6276 0.0
C1936 C 0.52954 0.15131 0.61334 0.0
C1937 C 0.49596 0.15124 0.63069 0.0
C1938 C 0.52882 0.13486 0.62152 0.0
C1939 C 0.53001 0.11787 0.6099 0.0
C1940 C 0.53266 0.1172 0.59012 0.0
C1941 C 0.53465 0.13388 0.58224 0.0
C1942 C 0.53293 0.15083 0.59375 0.0
H1943 H 0.48313 0.15509 0.63287 0.0
H1944 H 0.4945 0.14271 0.61557 0.0
H1945 H 0.49884 0.14227 0.64164 0.0
H1946 H 0.52694 0.13506 0.63682 0.0
H1947 H 0.52881 0.10521 0.61636 0.0
H1948 H 0.58968 0.78486 0.35003 0.0
H1949 H 0.62005 0.78876 0.3435 0.0
H1950 H 0.62991 0.84837 0.36851 0.0
H1951 H 0.59914 0.84457 0.37518 0.0
H1952 H 0.63702 0.81246 0.31958 0.0
H1953 H 0.67201 0.83101 0.39712 0.0
H1954 H 0.64865 0.82047 0.3912 0.0
H1955 H 0.65654 0.845 0.39023 0.0
C1956 C 0.59821 0.79888 0.35426 0.0
C1957 C 0.59174 0.8144 0.36319 0.0
C1958 C 0.6157 0.80106 0.35047 0.0
C1959 C 0.62751 0.8188 0.35564 0.0
C1960 C 0.62122 0.83443 0.36461 0.0
H1961 H 0.74225 0.84249 0.34736 0.0
H1962 H 0.71272 0.845 0.35524 0.0
C1963 C 0.60354 0.83228 0.36831 0.0
C1964 C 0.64608 0.82062 0.3509 0.0
H1965 H 0.68949 0.82841 0.37181 0.0
C1966 C 0.64851 0.81607 0.33102 0.0
C1967 C 0.66121 0.82557 0.36569 0.0
C1968 C 0.6596 0.8307 0.3873 0.0
C1969 C 0.66541 0.81626 0.32551 0.0
C1970 C 0.68055 0.82019 0.34037 0.0
C1971 C 0.67812 0.8252 0.36028 0.0
C1972 C 0.6988 0.81878 0.33567 0.0
C1973 C 0.66668 0.81272 0.30366 0.0
C1974 C 0.70129 0.80307 0.32242 0.0
C1975 C 0.71804 0.80205 0.31739 0.0
C1976 C 0.73308 0.81619 0.32617 0.0
C1977 C 0.73092 0.8314 0.34026 0.0
C1978 C 0.71397 0.83279 0.34478 0.0
H1979 H 0.65597 0.8174 0.29501 0.0
H1980 H 0.67955 0.82025 0.30055 0.0
H1981 H 0.66502 0.79726 0.29824 0.0
H1982 H 0.69027 0.79145 0.3159 0.0
H1983 H 0.71927 0.78992 0.30679 0.0
H1984 H 0.06595 0.31525 0.50662 0.0
H1985 H 0.06377 0.28181 0.50819 0.0
H1986 H 0.01452 0.28029 0.53115 0.0
H1987 H 0.01579 0.31322 0.52782 0.0
H1988 H 0.05868 0.25708 0.53373 0.0
H1989 H 0.99961 0.24511 0.47692 0.0
H1990 H 0.01478 0.26786 0.48465 0.0
H1991 H 0.99771 0.26065 0.49906 0.0
C1992 C 0.05469 0.30782 0.51204 0.0
C1993 C 0.04041 0.31633 0.51571 0.0
C1994 C 0.05359 0.28879 0.51316 0.0
C1995 C 0.03849 0.27849 0.5187 0.0
C1996 C 0.02588 0.28797 0.52597 0.0
H1997 H 0.99618 0.18082 0.54968 0.0
H1998 H 1.00318 0.21021 0.53728 0.0
C1999 C 0.02678 0.30686 0.52439 0.0
C2000 C 0.03488 0.25767 0.51495 0.0
H2001 H 1.00264 0.21889 0.49327 0.0
C2002 C 0.04665 0.24864 0.52457 0.0
C2003 C 0.01947 0.24677 0.50233 0.0
C2004 C 1.00729 0.25559 0.48996 0.0
C2005 C 0.04245 0.22899 0.52349 0.0
C2006 C 0.02612 0.21844 0.51262 0.0
C2007 C 0.0151 0.22722 0.50165 0.0
C2008 C 0.01882 0.19949 0.51604 0.0
C2009 C 0.0548 0.21975 0.53509 0.0
C2010 C 0.02461 0.18365 0.50728 0.0
C2011 C 0.02037 0.16665 0.5141 0.0
C2012 C 1.01057 0.16558 0.52992 0.0
C2013 C 1.0036 0.18111 0.53738 0.0
C2014 C 1.00767 0.19795 0.53041 0.0
H2015 H 0.0672 0.22995 0.54242 0.0
H2016 H 0.04813 0.21353 0.54661 0.0
H2017 H 0.05825 0.20801 0.52506 0.0
H2018 H 0.03317 0.18476 0.49605 0.0
H2019 H 0.02561 0.15472 0.50783 0.0
H2020 H 0.55561 0.29588 0.16666 0.0
H2021 H 0.58561 0.30207 0.18455 0.0
H2022 H 0.5735 0.24872 0.20442 0.0
H2023 H 0.54337 0.24235 0.18661 0.0
H2024 H 0.58166 0.28875 0.2336 0.0
H2025 H 0.63119 0.27513 0.18396 0.0
H2026 H 0.61274 0.28495 0.17563 0.0
H2027 H 0.60895 0.2608 0.179 0.0
C2028 C 0.55951 0.28517 0.17431 0.0
C2029 C 0.54714 0.26883 0.17569 0.0
C2030 C 0.57663 0.2887 0.18438 0.0
C2031 C 0.5815 0.27587 0.19574 0.0
C2032 C 0.56978 0.25867 0.19555 0.0
H2033 H 0.65293 0.26436 0.28821 0.0
H2034 H 0.62687 0.26767 0.26699 0.0
C2035 C 0.55264 0.25507 0.1854 0.0
C2036 C 0.59725 0.28198 0.21074 0.0
H2037 H 0.64159 0.28507 0.21822 0.0
C2038 C 0.59483 0.28813 0.23029 0.0
C2039 C 0.61424 0.28154 0.20604 0.0
C2040 C 0.61712 0.27526 0.18504 0.0
C2041 C 0.60908 0.29305 0.24565 0.0
C2042 C 0.62595 0.29144 0.24119 0.0
C2043 C 0.62853 0.28629 0.22145 0.0
C2044 C 0.6405 0.29228 0.25688 0.0
C2045 C 0.60596 0.2994 0.26656 0.0
C2046 C 0.65649 0.30538 0.25849 0.0
C2047 C 0.67132 0.30353 0.27061 0.0
C2048 C 0.67026 0.28839 0.28095 0.0
C2049 C 0.65393 0.27616 0.28041 0.0
C2050 C 0.63911 0.27808 0.26838 0.0
H2051 H 0.59393 0.3054 0.26677 0.0
H2052 H 0.60404 0.28701 0.27407 0.0
H2053 H 0.61746 0.31022 0.27514 0.0
H2054 H 0.6577 0.31631 0.24953 0.0
H2055 H 0.68389 0.31293 0.27057 0.0
H2056 H 0.59981 0.89766 0.0348 0.0
H2057 H 0.59866 0.92971 0.05008 0.0
H2058 H 0.58241 0.94158 0.99254 0.0
H2059 H 0.58468 0.90999 0.97717 0.0
H2060 H 0.59348 0.97509 0.02592 0.0
H2061 H 0.54223 0.91467 0.03683 0.0
H2062 H 0.56454 0.91361 0.04552 0.0
H2063 H 0.55751 0.91217 0.0195 0.0
C2064 C 0.59763 0.9077 0.02533 0.0
C2065 C 0.59164 0.90138 0.00502 0.0
C2066 C 0.59686 0.926 0.03406 0.0
C2067 C 0.58956 0.93743 0.02243 0.0
C2068 C 0.58776 0.93272 1.00174 0.0
H2069 H 0.50338 0.99146 0.04239 0.0
H2070 H 0.52084 0.96784 0.03354 0.0
C2071 C 0.58912 0.91463 0.99296 0.0
C2072 C 0.578 0.94908 0.03103 0.0
H2073 H 0.53964 0.94509 0.0508 0.0
C2074 C 0.58183 0.96866 0.03159 0.0
C2075 C 0.56223 0.94032 0.03726 0.0
C2076 C 0.55622 0.91902 0.03462 0.0
C2077 C 0.57056 0.97989 0.03907 0.0
C2078 C 0.5556 0.97123 0.04676 0.0
C2079 C 0.55147 0.95161 0.0455 0.0
C2080 C 0.54361 0.98226 0.05539 0.0
C2081 C 0.57446 1.00075 0.03815 0.0
C2082 C 0.55008 0.99687 0.07181 0.0
C2083 C 0.54004 0.01012 0.07702 0.0
C2084 C 0.52353 0.00875 0.06581 0.0
C2085 C 0.51596 0.99251 0.05142 0.0
C2086 C 0.52608 0.97929 0.0461 0.0
H2087 H 0.58333 1.00397 0.0271 0.0
H2088 H 0.56209 1.00563 0.0343 0.0
H2089 H 0.58114 0.00901 0.05287 0.0
H2090 H 0.56345 0.99898 0.07943 0.0
H2091 H 0.54614 0.02275 0.08798 0.0
H2092 H 0.95721 0.79911 0.68509 0.0
H2093 H 0.93906 0.79675 0.71121 0.0
H2094 H 0.97912 0.77684 0.74541 0.0
H2095 H 0.99796 0.78029 0.71952 0.0
H2096 H 0.92415 0.77018 0.72913 0.0
H2097 H 0.97606 0.82324 0.78275 0.0
H2098 H 0.97787 0.81748 0.75689 0.0
H2099 H 0.98242 0.80164 0.77327 0.0
C2100 C 0.96216 0.7942 0.69816 0.0
C2101 C 0.97912 0.79032 0.7006 0.0
C2102 C 0.95171 0.79269 0.713 0.0
C2103 C 0.95789 0.78696 0.73041 0.0
C2104 C 0.97435 0.78181 0.73232 0.0
H2105 H 0.88349 0.79162 0.81731 0.0
H2106 H 0.90235 0.77781 0.79582 0.0
C2107 C 0.98507 0.78379 0.7176 0.0
C2108 C 0.94761 0.78828 0.747 0.0
H2109 H 0.94879 0.81408 0.79294 0.0
C2110 C 0.92955 0.77952 0.74325 0.0
C2111 C 0.95474 0.80066 0.76528 0.0
C2112 C 0.97378 0.81144 0.7698 0.0
C2113 C 0.91817 0.78384 0.75674 0.0
C2114 C 0.92528 0.79663 0.77473 0.0
C2115 C 0.9435 0.80425 0.77909 0.0
C2116 C 0.91396 0.80449 0.788 0.0
C2117 C 0.89855 0.77591 0.75098 0.0
C2118 C 0.91466 0.82406 0.79108 0.0
C2119 C 0.90421 0.832 0.80357 0.0
C2120 C 0.89273 0.82047 0.81313 0.0
C2121 C 0.89226 0.80086 0.81025 0.0
C2122 C 0.90284 0.79292 0.79779 0.0
H2123 H 0.89503 0.7687 0.7352 0.0
H2124 H 0.89413 0.76543 0.7603 0.0
H2125 H 0.89114 0.78739 0.75352 0.0
H2126 H 0.92324 0.83322 0.78367 0.0
H2127 H 0.90508 0.84717 0.80568 0.0
H2128 H 0.11434 0.06009 0.85681 0.0
H2129 H 0.09691 0.06017 0.88405 0.0
H2130 H 0.13557 0.03823 0.91764 0.0
H2131 H 0.15321 0.03809 0.89027 0.0
H2132 H 0.09489 0.01949 0.91507 0.0
H2133 H 0.11301 0.09781 0.94037 0.0
H2134 H 0.10753 0.0886 0.91414 0.0
H2135 H 0.12728 0.08501 0.92756 0.0
C2136 C 0.11935 0.05547 0.87005 0.0
C2137 C 0.13547 0.04934 0.87125 0.0
C2138 C 0.10922 0.05542 0.88566 0.0
C2139 C 0.11478 0.04923 0.90311 0.0
C2140 C 0.13084 0.04305 0.90441 0.0
H2141 H 0.07702 0.07393 0.01749 0.0
H2142 H 0.09419 0.0694 0.99018 0.0
C2143 C 0.14105 0.04313 0.88875 0.0
C2144 C 0.10403 0.04978 0.92002 0.0
H2145 H 0.09223 0.0806 0.9564 0.0
C2146 C 0.09436 0.03285 0.92416 0.0
C2147 C 0.10313 0.06712 0.93197 0.0
C2148 C 0.11331 0.08574 0.92849 0.0
C2149 C 0.08395 0.03284 0.93976 0.0
C2150 C 0.083 0.05028 0.95177 0.0
C2151 C 0.09278 0.06715 0.94752 0.0
C2152 C 0.0724 0.05161 0.96899 0.0
C2153 C 0.0744 0.014 0.9434 0.0
C2154 C 0.05421 0.04307 0.96677 0.0
C2155 C 0.04435 0.04554 0.98262 0.0
C2156 C 0.05226 0.05681 1.00115 0.0
C2157 C 0.07044 0.06514 1.00347 0.0
C2158 C 0.0803 0.06257 0.98773 0.0
H2159 H 0.08036 1.00219 0.93706 0.0
H2160 H 0.07451 0.01412 0.95949 0.0
H2161 H 0.06045 0.01102 0.93613 0.0
H2162 H 0.04741 0.03493 0.95257 0.0
H2163 H 0.03039 0.03903 0.9802 0.0
H2164 H 0.71813 0.39139 0.62652 0.0
H2165 H 0.72322 0.37752 0.65629 0.0
H2166 H 0.75311 0.34142 0.62589 0.0
H2167 H 0.74809 0.35511 0.59629 0.0
H2168 H 0.72087 0.33235 0.66103 0.0
H2169 H 0.78624 0.38316 0.6768 0.0
H2170 H 0.76721 0.38802 0.66268 0.0
H2171 H 0.77835 0.37065 0.65173 0.0
C2172 C 0.72502 0.37984 0.62589 0.0
C2173 C 0.73255 0.37418 0.609 0.0
C2174 C 0.72811 0.37209 0.64297 0.0
C2175 C 0.73868 0.35857 0.6433 0.0
C2176 C 0.74494 0.35183 0.62594 0.0
H2177 H 0.77758 0.29999 0.73508 0.0
H2178 H 0.76718 0.30807 0.70324 0.0
C2179 C 0.74193 0.35956 0.60899 0.0
C2180 C 0.74489 0.35294 0.66214 0.0
H2181 H 0.78078 0.36157 0.69831 0.0
C2182 C 0.73394 0.3387 0.66921 0.0
C2183 C 0.76198 0.36128 0.67274 0.0
C2184 C 0.7742 0.3767 0.66576 0.0
C2185 C 0.73971 0.33253 0.68662 0.0
C2186 C 0.75685 0.3408 0.69714 0.0
C2187 C 0.76772 0.35513 0.69011 0.0
C2188 C 0.76335 0.33568 0.71617 0.0
C2189 C 0.72739 0.3175 0.69397 0.0
C2190 C 0.76502 0.34867 0.73388 0.0
C2191 C 0.77103 0.34419 0.75198 0.0
C2192 C 0.7756 0.32658 0.75286 0.0
C2193 C 0.77424 0.31368 0.735 0.0
C2194 C 0.76817 0.31821 0.71681 0.0
H2195 H 0.71401 0.31361 0.68501 0.0
H2196 H 0.73292 0.30457 0.69334 0.0
H2197 H 0.72619 0.32257 0.70967 0.0
H2198 H 0.76144 0.36225 0.73372 0.0
H2199 H 0.77177 0.35451 0.76533 0.0
H2200 H 0.46392 0.08984 0.35021 0.0
H2201 H 0.47419 0.08075 0.38137 0.0
H2202 H 0.48044 0.1386 0.41182 0.0
H2203 H 0.46867 0.14718 0.38101 0.0
H2204 H 0.50339 0.08959 0.4038 0.0
H2205 H 0.45566 0.11409 0.4497 0.0
H2206 H 0.45324 0.11362 0.42341 0.0
H2207 H 0.46791 0.13323 0.44038 0.0
C2208 C 0.46723 0.10048 0.36368 0.0
C2209 C 0.46537 0.11912 0.36338 0.0
C2210 C 0.47317 0.09533 0.38147 0.0
C2211 C 0.4778 0.10887 0.39918 0.0
C2212 C 0.47631 0.12766 0.39866 0.0
H2213 H 0.52582 0.09988 0.51767 0.0
H2214 H 0.51899 0.11173 0.48694 0.0
C2215 C 0.46974 0.13262 0.38102 0.0
C2216 C 0.48478 0.1034 0.4179 0.0
H2217 H 0.48034 0.10566 0.46681 0.0
C2218 C 0.49824 0.09307 0.41751 0.0
C2219 C 0.47814 0.10788 0.43594 0.0
C2220 C 0.46282 0.11763 0.43734 0.0
C2221 C 0.5051 0.08704 0.43448 0.0
C2222 C 0.49861 0.09175 0.45243 0.0
C2223 C 0.48544 0.10235 0.45303 0.0
C2224 C 0.50422 0.08449 0.47038 0.0
C2225 C 0.51913 0.07551 0.43312 0.0
C2226 C 0.49827 0.06529 0.4711 0.0
C2227 C 0.50197 0.05858 0.48857 0.0
C2228 C 0.51175 0.07094 0.50563 0.0
C2229 C 0.51827 0.09006 0.50471 0.0
C2230 C 0.51436 0.09683 0.48723 0.0
H2231 H 0.52507 0.07604 0.41932 0.0
H2232 H 0.52976 0.08063 0.44609 0.0
H2233 H 0.51312 0.06047 0.43324 0.0
H2234 H 0.49029 0.0556 0.45829 0.0
H2235 H 0.49683 0.04377 0.48884 0.0
H2236 H 0.813 0.67195 0.04774 0.0
H2237 H 0.81417 0.69257 0.07967 0.0
H2238 H 0.76278 0.70251 0.06006 0.0
H2239 H 0.76118 0.68116 0.02854 0.0
H2240 H 0.81395 0.72915 0.08843 0.0
H2241 H 0.75525 0.68759 0.1119 0.0
H2242 H 0.76475 0.6784 0.09082 0.0
H2243 H 0.74995 0.6943 0.08851 0.0
C2244 C 0.80191 0.67843 0.05037 0.0
C2245 C 0.78692 0.67486 0.03587 0.0
C2246 C 0.8026 0.6902 0.06854 0.0
C2247 C 0.78842 0.69875 0.07233 0.0
C2248 C 0.77361 0.69555 0.05765 0.0
H2249 H 0.77181 0.78537 0.16194 0.0
H2250 H 0.77769 0.76786 0.13109 0.0
C2251 C 0.77274 0.68344 0.03966 0.0
C2252 C 0.78928 0.71132 0.0915 0.0
H2253 H 0.76682 0.71892 0.13043 0.0
C2254 C 0.80372 0.72683 0.09769 0.0
C2255 C 0.77598 0.70812 0.10361 0.0
C2256 C 0.76072 0.69108 0.09847 0.0
C2257 C 0.80497 0.73951 0.11553 0.0
C2258 C 0.79137 0.73659 0.12712 0.0
C2259 C 0.77711 0.72102 0.12119 0.0
C2260 C 0.79144 0.74959 0.14554 0.0
C2261 C 0.82063 0.75597 0.12196 0.0
C2262 C 0.79774 0.74526 0.16364 0.0
C2263 C 0.79451 0.75526 0.18124 0.0
C2264 C 0.78475 0.7695 0.18083 0.0
C2265 C 0.77945 0.77455 0.16268 0.0
C2266 C 0.78275 0.76459 0.14509 0.0
H2267 H 0.83043 0.75594 0.11151 0.0
H2268 H 0.81605 0.76951 0.1231 0.0
H2269 H 0.82723 0.75544 0.13691 0.0
H2270 H 0.80438 0.73359 0.16405 0.0
H2271 H 0.79902 0.75134 0.1951 0.0
H2272 H 0.14758 0.03859 0.74886 0.0
H2273 H 0.13345 0.04151 0.71607 0.0
H2274 H 0.08381 0.0398 0.73804 0.0
H2275 H 0.09759 0.03679 0.77049 0.0
H2276 H 0.09944 0.01515 0.69093 0.0
H2277 H 0.09452 0.09014 0.71411 0.0
H2278 H 0.11035 0.07967 0.72723 0.0
H2279 H 0.08747 0.07396 0.73012 0.0
C2280 C 0.13366 0.03878 0.74669 0.0
C2281 C 0.12381 0.03752 0.76245 0.0
C2282 C 0.12558 0.04044 0.72792 0.0
C2283 C 0.10758 0.04107 0.72463 0.0
C2284 C 0.09773 0.03956 0.74024 0.0
H2285 H 0.0344 0.06305 0.63006 0.0
H2286 H 0.04985 0.05893 0.66144 0.0
C2287 C 0.1057 0.03778 0.75884 0.0
C2288 C 0.0989 0.04341 0.70502 0.0
H2289 H 0.08004 0.07442 0.68223 0.0
C2290 C 0.09532 0.02815 0.68893 0.0
C2291 C 0.0932 0.06022 0.70252 0.0
C2292 C 0.09663 0.07703 0.71933 0.0
C2293 C 0.0859 0.02911 0.67056 0.0
C2294 C 0.08047 0.04611 0.66787 0.0
C2295 C 0.08417 0.06139 0.68405 0.0
C2296 C 0.0709 0.04837 0.64855 0.0
C2297 C 0.08125 0.01152 0.65456 0.0
C2298 C 0.07753 0.04409 0.63067 0.0
C2299 C 0.06846 0.04602 0.61263 0.0
C2300 C 0.05278 0.05285 0.61202 0.0
C2301 C 0.04639 0.05766 0.62994 0.0
C2302 C 0.05527 0.05535 0.64795 0.0
H2303 H 0.08083 0.99845 0.66094 0.0
H2304 H 0.06824 0.01031 0.6455 0.0
H2305 H 0.09152 0.0121 0.6447 0.0
H2306 H 0.08986 0.03941 0.63061 0.0
H2307 H 0.07396 0.04248 0.59919 0.0
H2308 H 0.71564 0.38587 0.50091 0.0
H2309 H 0.71731 0.37055 0.4668 0.0
H2310 H 0.76985 0.36379 0.48609 0.0
H2311 H 0.76819 0.37813 0.51951 0.0
H2312 H 0.74111 0.3806 0.44081 0.0
H2313 H 0.74746 0.31079 0.4579 0.0
H2314 H 0.7403 0.32814 0.47496 0.0
H2315 H 0.76349 0.32964 0.47385 0.0
C2316 C 0.7274 0.38083 0.4979 0.0
C2317 C 0.74164 0.38313 0.51325 0.0
C2318 C 0.7284 0.37215 0.47836 0.0
C2319 C 0.74358 0.36555 0.47385 0.0
C2320 C 0.75776 0.36812 0.48912 0.0
H2321 H 0.79614 0.32037 0.38103 0.0
H2322 H 0.78525 0.33187 0.41143 0.0
C2323 C 0.75676 0.37654 0.50841 0.0
C2324 C 0.74531 0.35645 0.45333 0.0
H2325 H 0.75795 0.31822 0.42816 0.0
C2326 C 0.74446 0.3668 0.43791 0.0
C2327 C 0.74978 0.33845 0.44944 0.0
C2328 C 0.75014 0.32605 0.46488 0.0
C2329 C 0.7489 0.36016 0.41919 0.0
C2330 C 0.75404 0.34246 0.41559 0.0
C2331 C 0.75418 0.33182 0.4308 0.0
C2332 C 0.76027 0.33509 0.3967 0.0
C2333 C 0.74893 0.37267 0.40384 0.0
C2334 C 0.74979 0.33257 0.37808 0.0
C2335 C 0.75611 0.32609 0.36056 0.0
C2336 C 0.77293 0.32169 0.36126 0.0
C2337 C 0.78312 0.32358 0.3799 0.0
C2338 C 0.77689 0.33021 0.39735 0.0
H2339 H 0.74925 0.38762 0.41055 0.0
H2340 H 0.76044 0.37242 0.39581 0.0
H2341 H 0.73669 0.36742 0.39289 0.0
H2342 H 0.73673 0.33563 0.37705 0.0
H2343 H 0.74789 0.32472 0.34645 0.0
H2344 H 0.46626 0.07796 0.26069 0.0
H2345 H 0.47854 0.0714 0.23009 0.0
H2346 H 0.46993 0.12444 0.21556 0.0
H2347 H 0.45792 0.13135 0.24645 0.0
H2348 H 0.46378 0.06761 0.19158 0.0
H2349 H 0.52201 0.128 0.21113 0.0
H2350 H 0.50835 0.12071 0.22908 0.0
H2351 H 0.50122 0.1349 0.21208 0.0
C2352 C 0.46693 0.08825 0.251 0.0
C2353 C 0.46121 0.10524 0.25607 0.0
C2354 C 0.47396 0.08446 0.23351 0.0
C2355 C 0.47546 0.0976 0.22078 0.0
C2356 C 0.46928 0.11432 0.22545 0.0
H2357 H 0.50037 0.09153 0.10286 0.0
H2358 H 0.4899 0.09851 0.13458 0.0
C2359 C 0.46227 0.11816 0.243 0.0
C2360 C 0.48331 0.09355 0.20252 0.0
H2361 H 0.51695 0.11039 0.17817 0.0
C2362 C 0.47546 0.07691 0.18871 0.0
C2363 C 0.49864 0.10566 0.19891 0.0
C2364 C 0.50817 0.12323 0.21365 0.0
C2365 C 0.48235 0.07223 0.17119 0.0
C2366 C 0.49741 0.08452 0.16748 0.0
C2367 C 0.50539 0.10106 0.18125 0.0
C2368 C 0.5045 0.08078 0.1488 0.0
C2369 C 0.47344 0.05438 0.15654 0.0
C2370 C 0.51631 0.06866 0.14658 0.0
C2371 C 0.5224 0.06465 0.12847 0.0
C2372 C 0.51662 0.07267 0.11241 0.0
C2373 C 0.50497 0.08503 0.11491 0.0
C2374 C 0.49901 0.08909 0.13299 0.0
H2375 H 0.46158 0.04648 0.16147 0.0
H2376 H 0.46941 0.05799 0.14194 0.0
H2377 H 0.4829 0.04494 0.15441 0.0
H2378 H 0.52061 0.06215 0.15875 0.0
H2379 H 0.53132 0.05503 0.12694 0.0
H2380 H 0.78032 0.70408 0.97921 0.0
H2381 H 0.7808 0.73216 0.96394 0.0
H2382 H 0.76326 0.6958 0.90652 0.0
H2383 H 0.762 0.66778 0.922 0.0
H2384 H 0.80207 0.74153 0.93817 0.0
H2385 H 0.73292 0.73374 0.90321 0.0
H2386 H 0.7388 0.7202 0.92163 0.0
H2387 H 0.74113 0.71278 0.89612 0.0
C2388 C 0.77601 0.70222 0.96342 0.0
C2389 C 0.77086 0.68402 0.95167 0.0
C2390 C 0.77636 0.71817 0.95473 0.0
C2391 C 0.77182 0.71605 0.93416 0.0
C2392 C 0.76627 0.69775 0.92249 0.0
H2393 H 0.80311 0.77004 0.84524 0.0
H2394 H 0.80271 0.75608 0.87501 0.0
C2395 C 0.7656 0.68179 0.93126 0.0
C2396 C 0.7747 0.73284 0.92468 0.0
H2397 H 0.75537 0.75374 0.89003 0.0
C2398 C 0.79175 0.74448 0.92799 0.0
C2399 C 0.7612 0.73673 0.91153 0.0
C2400 C 0.74245 0.72529 0.90807 0.0
C2401 C 0.79591 0.75924 0.91756 0.0
C2402 C 0.78272 0.76226 0.90347 0.0
C2403 C 0.76543 0.75139 0.90099 0.0
C2404 C 0.78702 0.77431 0.88887 0.0
C2405 C 0.8145 0.77104 0.92106 0.0
C2406 C 0.77891 0.78965 0.8873 0.0
C2407 C 0.7794 0.79785 0.87041 0.0
C2408 C 0.78757 0.79032 0.85489 0.0
C2409 C 0.79678 0.77598 0.85716 0.0
C2410 C 0.79661 0.76809 0.87415 0.0
H2411 H 0.82168 0.77046 0.93571 0.0
H2412 H 0.82185 0.7655 0.90942 0.0
H2413 H 0.81445 0.78607 0.92023 0.0
H2414 H 0.77129 0.79441 0.89849 0.0
H2415 H 0.77207 0.8088 0.86871 0.0
H2416 H 0.87883 0.16131 0.0803 0.0
H2417 H 0.90071 0.14165 0.07623 0.0
H2418 H 0.91595 0.16746 0.02717 0.0
H2419 H 0.89481 0.18784 0.03195 0.0
H2420 H 0.90202 0.1152 0.04708 0.0
H2421 H 0.96364 0.16977 0.05435 0.0
H2422 H 0.9433 0.17583 0.0603 0.0
H2423 H 0.94717 0.17165 0.03493 0.0
C2424 C 0.88725 0.16321 0.06906 0.0
C2425 C 0.88531 0.17645 0.05674 0.0
C2426 C 0.89967 0.15181 0.06659 0.0
C2427 C 0.91033 0.15314 0.05157 0.0
C2428 C 0.90846 0.16649 0.03933 0.0
H2429 H 0.99099 0.09337 0.01285 0.0
H2430 H 0.96802 0.11197 0.01479 0.0
C2431 C 0.8963 0.1782 0.04207 0.0
C2432 C 0.92259 0.13984 0.04812 0.0
H2433 H 0.96528 0.13794 0.04264 0.0
C2434 C 0.91588 0.12022 0.0462 0.0
C2435 C 0.9407 0.14621 0.04678 0.0
C2436 C 0.94917 0.16702 0.04939 0.0
C2437 C 0.92656 0.10689 0.04276 0.0
C2438 C 0.94471 0.11325 0.04153 0.0
C2439 C 0.9514 0.13288 0.04341 0.0
C2440 C 0.95714 0.10003 0.03863 0.0
C2441 C 0.91803 0.08608 0.04001 0.0
C2442 C 0.95865 0.08672 0.05101 0.0
C2443 C 0.97136 0.07557 0.04932 0.0
C2444 C 0.98312 0.07771 0.03551 0.0
C2445 C 0.98163 0.09088 0.02306 0.0
C2446 C 0.96866 0.10174 0.02442 0.0
H2447 H 0.90366 0.08337 0.03446 0.0
H2448 H 0.92421 0.07722 0.0295 0.0
H2449 H 0.91947 0.0815 0.05454 0.0
H2450 H 0.9506 0.08554 0.06267 0.0
H2451 H 0.97278 0.06618 0.05975 0.0
H2452 H 0.34988 0.54042 0.12092 0.0
H2453 H 0.37778 0.5499 0.10807 0.0
H2454 H 0.38514 0.49245 0.10224 0.0
H2455 H 0.35747 0.48293 0.11435 0.0
H2456 H 0.41462 0.52637 0.12609 0.0
H2457 H 0.3884 0.52884 0.04828 0.0
H2458 H 0.37797 0.53833 0.06846 0.0
H2459 H 0.37635 0.51326 0.06224 0.0
C2460 C 0.35749 0.52987 0.11683 0.0
C2461 C 0.35186 0.51107 0.11933 0.0
C2462 C 0.37331 0.53528 0.10952 0.0
C2463 C 0.38341 0.52184 0.10448 0.0
C2464 C 0.37753 0.503 0.10637 0.0
H2465 H 0.46921 0.51099 0.04118 0.0
H2466 H 0.44086 0.50947 0.0535 0.0
C2467 C 0.36183 0.49765 0.11363 0.0
C2468 C 0.40049 0.52723 0.09779 0.0
H2469 H 0.41923 0.53333 0.05658 0.0
C2470 C 0.41577 0.52819 0.111 0.0
C2471 C 0.40161 0.52914 0.07801 0.0
C2472 C 0.38526 0.52732 0.06328 0.0
C2473 C 0.43235 0.53056 0.10476 0.0
C2474 C 0.43357 0.5325 0.08489 0.0
C2475 C 0.41823 0.53196 0.07182 0.0
C2476 C 0.45048 0.534 0.07708 0.0
C2477 C 0.44818 0.52999 0.11927 0.0
C2478 C 0.46513 0.54842 0.0861 0.0
C2479 C 0.48137 0.54893 0.07947 0.0
C2480 C 0.48302 0.53544 0.06328 0.0
C2481 C 0.46822 0.52148 0.05374 0.0
C2482 C 0.45206 0.52067 0.0607 0.0
H2483 H 0.44421 0.52315 0.13178 0.0
H2484 H 0.45725 0.52218 0.11191 0.0
H2485 H 0.45554 0.54471 0.1256 0.0
H2486 H 0.46405 0.55915 0.09838 0.0
H2487 H 0.49261 0.55992 0.087 0.0
H2488 H 0.38713 0.64081 0.78985 0.0
H2489 H 0.37478 0.6694 0.79143 0.0
H2490 H 0.32549 0.63758 0.8026 0.0
H2491 H 0.33835 0.60965 0.80266 0.0
H2492 H 0.35184 0.68286 0.77428 0.0
H2493 H 0.32853 0.6788 0.846 0.0
H2494 H 0.34151 0.66287 0.83583 0.0
H2495 H 0.31784 0.65791 0.82831 0.0
C2496 C 0.37356 0.63984 0.79236 0.0
C2497 C 0.36374 0.62267 0.7959 0.0
C2498 C 0.36646 0.65637 0.79344 0.0
C2499 C 0.34918 0.65633 0.79789 0.0
C2500 C 0.33907 0.63876 0.80016 0.0
H2501 H 0.27967 0.73891 0.80378 0.0
H2502 H 0.29256 0.71068 0.80151 0.0
C2503 C 0.34633 0.62247 0.7997 0.0
C2504 C 0.34178 0.67439 0.79997 0.0
H2505 H 0.31739 0.70007 0.82769 0.0
C2506 C 0.34447 0.68656 0.78614 0.0
C2507 C 0.33216 0.67991 0.81547 0.0
C2508 C 0.33002 0.6693 0.83234 0.0
C2509 C 0.33758 0.70326 0.78699 0.0
C2510 C 0.32748 0.70831 0.80205 0.0
C2511 C 0.32486 0.6963 0.81594 0.0
C2512 C 0.31962 0.72591 0.80373 0.0
C2513 C 0.3409 0.71519 0.77136 0.0
C2514 C 0.33034 0.74428 0.80618 0.0
C2515 C 0.32296 0.76056 0.80762 0.0
C2516 C 0.30456 0.75915 0.80673 0.0
C2517 C 0.29386 0.74078 0.80459 0.0
C2518 C 0.30127 0.72449 0.80325 0.0
H2519 H 0.34478 0.70714 0.75815 0.0
H2520 H 0.329 0.7205 0.76658 0.0
H2521 H 0.35185 0.72763 0.77761 0.0
H2522 H 0.34453 0.7461 0.80709 0.0
H2523 H 0.33175 0.77432 0.80927 0.0
H2524 H 0.28268 0.63718 0.51 0.0
H2525 H 0.25189 0.62314 0.51179 0.0
H2526 H 0.25047 0.67026 0.55747 0.0
H2527 H 0.28116 0.68445 0.55581 0.0
H2528 H 0.24022 0.614 0.54818 0.0
H2529 H 0.20507 0.66432 0.51659 0.0
H2530 H 0.227 0.66216 0.51199 0.0
H2531 H 0.2239 0.67482 0.53535 0.0
C2532 C 0.27576 0.64466 0.52026 0.0
C2533 C 0.28433 0.66188 0.53278 0.0
C2534 C 0.25821 0.63663 0.52124 0.0
C2535 C 0.24898 0.64583 0.53458 0.0
C2536 C 0.25737 0.66316 0.54686 0.0
H2537 H 0.14867 0.6185 0.5751 0.0
H2538 H 0.17727 0.63389 0.56765 0.0
C2539 C 0.27491 0.67116 0.54596 0.0
C2540 C 0.23098 0.63661 0.53674 0.0
H2541 H 0.18818 0.64139 0.53157 0.0
C2542 C 0.22878 0.61984 0.54439 0.0
C2543 C 0.21627 0.64452 0.53196 0.0
C2544 C 0.21806 0.66238 0.52337 0.0
C2545 C 0.21216 0.61085 0.54776 0.0
C2546 C 0.19739 0.61866 0.54288 0.0
C2547 C 0.19958 0.63543 0.53516 0.0
C2548 C 0.17962 0.60982 0.5462 0.0
C2549 C 0.21065 0.5934 0.55708 0.0
C2550 C 0.17141 0.5914 0.53622 0.0
C2551 C 0.15513 0.58258 0.54046 0.0
C2552 C 0.14679 0.59214 0.5546 0.0
C2553 C 0.15477 0.61085 0.56405 0.0
C2554 C 0.17108 0.61963 0.55986 0.0
H2555 H 0.2237 0.59198 0.56426 0.0
H2556 H 0.2016 0.59374 0.56834 0.0
H2557 H 0.2052 0.58059 0.54543 0.0
H2558 H 0.17769 0.5838 0.52533 0.0
H2559 H 0.14909 0.56828 0.53271 0.0
H2560 H 0.64813 0.93453 0.82048 0.0
H2561 H 0.66928 0.9138 0.82085 0.0
H2562 H 0.70853 0.95735 0.80576 0.0
H2563 H 0.68731 0.97828 0.80572 0.0
H2564 H 0.68843 0.90029 0.79185 0.0
H2565 H 0.73264 0.94664 0.85761 0.0
H2566 H 0.71056 0.94956 0.85002 0.0
H2567 H 0.72813 0.95769 0.83674 0.0
C2568 C 0.66111 0.93939 0.81666 0.0
C2569 C 0.66609 0.9577 0.81262 0.0
C2570 C 0.67321 0.92767 0.81706 0.0
C2571 C 0.69051 0.93419 0.81364 0.0
C2572 C 0.6953 0.95222 0.80874 0.0
H2573 H 0.78093 0.88099 0.82455 0.0
H2574 H 0.76175 0.90367 0.8223 0.0
C2575 C 0.68315 0.964 0.80837 0.0
C2576 C 0.70348 0.92209 0.81569 0.0
H2577 H 0.741 0.9186 0.84419 0.0
C2578 C 0.69999 0.9043 0.80321 0.0
C2579 C 0.71853 0.92746 0.83054 0.0
C2580 C 0.7227 0.94631 0.84463 0.0
C2581 C 0.71118 0.89165 0.80507 0.0
C2582 C 0.72594 0.8967 0.82035 0.0
C2583 C 0.72961 0.91468 0.83262 0.0
C2584 C 0.73776 0.88355 0.82372 0.0
C2585 C 0.70716 0.87319 0.79035 0.0
C2586 C 0.73078 0.86501 0.82619 0.0
C2587 C 0.74164 0.852 0.82704 0.0
C2588 C 0.75974 0.85756 0.82622 0.0
C2589 C 0.767 0.87649 0.82538 0.0
C2590 C 0.75605 0.88938 0.82399 0.0
H2591 H 0.69932 0.87428 0.77628 0.0
H2592 H 0.71944 0.86872 0.78689 0.0
H2593 H 0.69915 0.86203 0.79668 0.0
H2594 H 0.71684 0.86041 0.82683 0.0
H2595 H 0.73585 0.83748 0.82786 0.0
H2596 H 0.76004 0.03521 0.61398 0.0
H2597 H 0.73247 0.03603 0.5939 0.0
H2598 H 0.71808 0.97484 0.5821 0.0
H2599 H 0.7456 0.97383 0.60244 0.0
H2600 H 0.72213 0.01827 0.55282 0.0
H2601 H 0.67416 0.99204 0.60137 0.0
H2602 H 0.6974 1.0009 0.61057 0.0
H2603 H 0.68994 0.97805 0.59477 0.0
C2604 C 0.75094 0.02192 0.60731 0.0
C2605 C 0.75493 1.00447 0.60983 0.0
C2606 C 0.73526 0.02241 0.5958 0.0
C2607 C 0.72333 1.00549 0.58663 0.0
C2608 C 0.72709 0.98802 0.58928 0.0
H2609 H 0.62032 0.01481 0.52715 0.0
H2610 H 0.64461 0.99874 0.53444 0.0
C2611 C 0.74279 0.9875 0.60089 0.0
C2612 C 0.7072 1.00648 0.57395 0.0
H2613 H 0.66306 1.0034 0.57374 0.0
C2614 C 0.70913 0.01466 0.55712 0.0
C2615 C 0.69031 1.0015 0.57955 0.0
C2616 C 0.6877 0.99271 0.59759 0.0
C2617 C 0.69472 0.01923 0.54646 0.0
C2618 C 0.67813 0.01566 0.55299 0.0
C2619 C 0.67587 1.00606 0.56883 0.0
C2620 C 0.664 0.02482 0.5461 0.0
C2621 C 0.69756 0.02872 0.52892 0.0
C2622 C 0.66703 0.04468 0.55026 0.0
C2623 C 0.65332 0.05377 0.54624 0.0
C2624 C 0.63636 0.04313 0.53805 0.0
C2625 C 0.6334 0.02325 0.53327 0.0
C2626 C 0.64716 0.0141 0.53745 0.0
H2627 H 0.70874 0.02471 0.52188 0.0
H2628 H 0.68549 0.02497 0.51764 0.0
H2629 H 0.70086 0.04435 0.53402 0.0
H2630 H 0.67985 0.05314 0.55735 0.0
H2631 H 0.65585 0.06911 0.55004 0.0
H2632 H 0.34158 0.52641 0.81222 0.0
H2633 H 0.32925 0.49281 0.81128 0.0
H2634 H 0.37101 0.47767 0.78074 0.0
H2635 H 0.38342 0.51152 0.7815 0.0
H2636 H 0.31717 0.46042 0.77945 0.0
H2637 H 0.37452 0.45133 0.82959 0.0
H2638 H 0.37079 0.47446 0.82686 0.0
H2639 H 0.3794 0.46073 0.80789 0.0
C2640 C 0.34807 0.51599 0.80496 0.0
C2641 C 0.36355 0.522 0.79682 0.0
C2642 C 0.34096 0.49662 0.8045 0.0
C2643 C 0.34919 0.48236 0.79622 0.0
C2644 C 0.36438 0.48819 0.78751 0.0
H2645 H 0.33265 0.36047 0.80271 0.0
H2646 H 0.3433 0.39278 0.79767 0.0
C2647 C 0.3714 0.50767 0.78771 0.0
C2648 C 0.34197 0.46166 0.79722 0.0
H2649 H 0.35147 0.42453 0.8181 0.0
C2650 C 0.32473 0.45256 0.78785 0.0
C2651 C 0.35164 0.45108 0.80808 0.0
C2652 C 0.37007 0.45984 0.81883 0.0
C2653 C 0.31713 0.43342 0.78866 0.0
C2654 C 0.3266 0.42289 0.80001 0.0
C2655 C 0.3439 0.43212 0.80937 0.0
C2656 C 0.31921 0.40238 0.80211 0.0
C2657 C 0.29923 0.42461 0.77658 0.0
C2658 C 0.30186 0.39611 0.80622 0.0
C2659 C 0.29547 0.37713 0.80847 0.0
C2660 C 0.30641 0.36387 0.80743 0.0
C2661 C 0.32374 0.37014 0.80358 0.0
C2662 C 0.32993 0.38886 0.8008 0.0
H2663 H 0.29673 0.43171 0.76381 0.0
H2664 H 0.29793 0.40926 0.7708 0.0
H2665 H 0.28884 0.42638 0.78598 0.0
H2666 H 0.29325 0.40599 0.8082 0.0
H2667 H 0.28219 0.37306 0.81178 0.0
H2668 H 0.18216 0.54922 0.35232 0.0
H2669 H 0.2004 0.57929 0.3487 0.0
H2670 H 0.16498 0.57974 0.29616 0.0
H2671 H 0.14689 0.54945 0.29935 0.0
H2672 H 0.19944 0.58739 0.29099 0.0
H2673 H 0.19035 0.63205 0.36034 0.0
H2674 H 0.19829 0.61123 0.36407 0.0
H2675 H 0.1766 0.60878 0.35056 0.0
C2676 C 0.17818 0.55577 0.34006 0.0
C2677 C 0.16304 0.54696 0.32615 0.0
C2678 C 0.18856 0.57301 0.33809 0.0
C2679 C 0.18385 0.58188 0.32237 0.0
C2680 C 0.16877 0.57314 0.30846 0.0
H2681 H 0.22325 0.69624 0.30629 0.0
H2682 H 0.20603 0.66679 0.31282 0.0
C2683 C 0.15847 0.55582 0.3103 0.0
C2684 C 0.19501 0.59987 0.31986 0.0
H2685 H 0.21186 0.64602 0.34229 0.0
C2686 C 0.20213 0.60023 0.30218 0.0
C2687 C 0.19836 0.61659 0.33446 0.0
C2688 C 0.19037 0.61726 0.35335 0.0
C2689 C 0.21256 0.61688 0.29865 0.0
C2690 C 0.21626 0.63348 0.31343 0.0
C2691 C 0.20911 0.63317 0.3311 0.0
C2692 C 0.22704 0.65148 0.31045 0.0
C2693 C 0.21916 0.61664 0.27895 0.0
C2694 C 0.24463 0.65267 0.30734 0.0
C2695 C 0.25441 0.66935 0.30327 0.0
C2696 C 0.24682 0.68521 0.3025 0.0
C2697 C 0.22936 0.68415 0.30634 0.0
C2698 C 0.21957 0.66742 0.31027 0.0
H2699 H 0.21157 0.60436 0.2676 0.0
H2700 H 0.2183 0.62991 0.27338 0.0
H2701 H 0.23322 0.61553 0.28079 0.0
H2702 H 0.25073 0.64061 0.3078 0.0
H2703 H 0.26777 0.66964 0.3003 0.0
H2704 H 0.53334 0.75761 0.4069 0.0
H2705 H 0.5366 0.73629 0.43029 0.0
H2706 H 0.55316 0.78455 0.47835 0.0
H2707 H 0.54889 0.80581 0.45492 0.0
H2708 H 0.56224 0.7309 0.45461 0.0
H2709 H 0.51309 0.75508 0.4989 0.0
H2710 H 0.51692 0.76271 0.47595 0.0
H2711 H 0.5317 0.77369 0.49856 0.0
C2712 C 0.53816 0.76362 0.42239 0.0
C2713 C 0.54123 0.78324 0.42918 0.0
C2714 C 0.53986 0.75147 0.43577 0.0
C2715 C 0.54472 0.75878 0.45616 0.0
C2716 C 0.54889 0.77855 0.46278 0.0
H2717 H 0.56065 0.69789 0.55296 0.0
H2718 H 0.55917 0.72271 0.53326 0.0
C2719 C 0.54684 0.7907 0.4494 0.0
C2720 C 0.54501 0.74551 0.47028 0.0
H2721 H 0.52778 0.7326 0.51062 0.0
C2722 C 0.5547 0.73131 0.46685 0.0
C2723 C 0.53505 0.74595 0.48621 0.0
C2724 C 0.52346 0.76005 0.49004 0.0
C2725 C 0.55469 0.71756 0.4788 0.0
C2726 C 0.5448 0.71805 0.49466 0.0
C2727 C 0.53536 0.73238 0.49842 0.0
C2728 C 0.54395 0.70349 0.50724 0.0
C2729 C 0.56524 0.70255 0.47435 0.0
C2730 C 0.53534 0.68466 0.49926 0.0
C2731 C 0.53604 0.6705 0.51047 0.0
C2732 C 0.54541 0.67494 0.52986 0.0
C2733 C 0.55328 0.69401 0.53812 0.0
C2734 C 0.55252 0.70819 0.52688 0.0
H2735 H 0.57495 0.70641 0.46433 0.0
H2736 H 0.57241 0.70015 0.48822 0.0
H2737 H 0.5561 0.68898 0.46699 0.0
H2738 H 0.52842 0.68087 0.48419 0.0
H2739 H 0.52948 0.65602 0.50383 0.0
H2740 H 0.57881 0.28514 0.75717 0.0
H2741 H 0.60927 0.28271 0.76842 0.0
H2742 H 0.62872 0.33934 0.7589 0.0
H2743 H 0.59861 0.34194 0.74792 0.0
H2744 H 0.63911 0.28542 0.7493 0.0
H2745 H 0.65254 0.34325 0.81503 0.0
H2746 H 0.63052 0.33315 0.80186 0.0
H2747 H 0.64535 0.35046 0.79241 0.0
C2748 C 0.58955 0.29712 0.75757 0.0
C2749 C 0.58603 0.31381 0.75173 0.0
C2750 C 0.60704 0.29571 0.76401 0.0
C2751 C 0.62148 0.311 0.765 0.0
C2752 C 0.61796 0.32749 0.75887 0.0
H2753 H 0.73767 0.33092 0.80018 0.0
H2754 H 0.70724 0.33452 0.7903 0.0
C2755 C 0.60059 0.32889 0.75241 0.0
C2756 C 0.64022 0.30968 0.77192 0.0
H2757 H 0.67721 0.33127 0.8058 0.0
C2758 C 0.64736 0.29538 0.76175 0.0
C2759 C 0.6513 0.32279 0.78802 0.0
C2760 C 0.64453 0.33818 0.8001 0.0
C2761 C 0.66509 0.29401 0.76692 0.0
C2762 C 0.67612 0.30694 0.78325 0.0
C2763 C 0.66899 0.32131 0.79334 0.0
C2764 C 0.69476 0.30535 0.79042 0.0
C2765 C 0.67192 0.279 0.75428 0.0
C2766 C 0.6981 0.2881 0.79469 0.0
C2767 C 0.7154 0.28606 0.80022 0.0
C2768 C 0.73003 0.3013 0.80222 0.0
C2769 C 0.72675 0.31894 0.79905 0.0
C2770 C 0.7093 0.32094 0.79322 0.0
H2771 H 0.66439 0.27503 0.73903 0.0
H2772 H 0.68613 0.28386 0.75327 0.0
H2773 H 0.67028 0.26602 0.76088 0.0
H2774 H 0.6873 0.27599 0.79347 0.0
H2775 H 0.71737 0.27226 0.80256 0.0
H2776 H 0.0218 0.35374 0.95372 0.0
H2777 H 0.0256 0.38434 0.97592 0.0
H2778 H 0.04619 0.41313 0.93105 0.0
H2779 H 0.04274 0.38233 0.90875 0.0
H2780 H 0.06005 0.42158 0.98545 0.0
H2781 H 0.99419 0.42541 0.94719 0.0
H2782 H 1.00002 0.40291 0.94877 0.0
H2783 H 1.01012 0.41736 0.93281 0.0
C2784 C 0.02751 0.36657 0.94874 0.0
C2785 C 0.03186 0.36575 0.9295 0.0
C2786 C 0.02973 0.38399 0.96145 0.0
C2787 C 0.03608 0.40088 0.95503 0.0
C2788 C 0.04134 0.40014 0.93622 0.0
H2789 H 0.03974 0.51775 1.00116 0.0
H2790 H 0.04108 0.48713 0.98198 0.0
C2791 C 0.0394 0.38261 0.92355 0.0
C2792 C 0.03516 0.4191 0.96715 0.0
H2793 H 1.00799 0.45028 0.97363 0.0
C2794 C 0.04873 0.42792 0.98289 0.0
C2795 C 0.02023 0.4271 0.96381 0.0
C2796 C 1.00521 0.41779 0.94729 0.0
C2797 C 0.0478 0.4448 0.99529 0.0
C2798 C 0.03288 0.45277 0.99189 0.0
C2799 C 0.01931 0.44394 0.9762 0.0
C2800 C 0.03169 0.47101 1.00369 0.0
C2801 C 0.06276 0.45425 0.01183 0.0
C2802 C 0.02569 0.47189 0.02211 0.0
C2803 C 0.02473 0.48941 0.0331 0.0
C2804 C 0.02998 0.50618 0.02583 0.0
C2805 C 0.03581 0.50509 0.00727 0.0
C2806 C 0.03655 0.48765 0.99625 0.0
H2807 H 0.07378 0.44665 0.01207 0.0
H2808 H 0.06792 0.4691 0.01022 0.0
H2809 H 0.05778 0.45481 0.02627 0.0
H2810 H 0.02184 0.45908 0.02797 0.0
H2811 H 0.02023 0.48988 0.04738 0.0
H2812 H 0.96468 0.80959 0.22577 0.0
H2813 H 0.93516 0.80782 0.23458 0.0
H2814 H 0.94905 0.78043 0.28302 0.0
H2815 H 0.97896 0.7824 0.27434 0.0
H2816 H 0.90848 0.77964 0.23628 0.0
H2817 H 0.93009 0.82233 0.31201 0.0
H2818 H 0.94512 0.82017 0.29424 0.0
H2819 H 0.93906 0.80148 0.30782 0.0
C2820 C 0.96153 0.80298 0.23821 0.0
C2821 C 0.97441 0.79607 0.24927 0.0
C2822 C 0.94451 0.80206 0.2433 0.0
C2823 C 0.93973 0.79434 0.25976 0.0
C2824 C 0.95238 0.78694 0.27057 0.0
H2825 H 0.84281 0.78554 0.31525 0.0
H2826 H 0.87205 0.78369 0.30633 0.0
C2827 C 0.96951 0.78788 0.26546 0.0
C2828 C 0.92155 0.79412 0.26536 0.0
H2829 H 0.89956 0.8087 0.30318 0.0
C2830 C 0.90658 0.786 0.25094 0.0
C2831 C 0.91881 0.80243 0.28445 0.0
C2832 C 0.93411 0.81226 0.30047 0.0
C2833 C 0.8892 0.78564 0.25508 0.0
C2834 C 0.88645 0.79409 0.27414 0.0
C2835 C 0.90143 0.80214 0.28858 0.0
C2836 C 0.86829 0.7949 0.27938 0.0
C2837 C 0.87399 0.77569 0.23899 0.0
C2838 C 0.85621 0.80204 0.26752 0.0
C2839 C 0.83933 0.80278 0.27242 0.0
C2840 C 0.83405 0.79681 0.28963 0.0
C2841 C 0.84625 0.79005 0.30177 0.0
C2842 C 0.86308 0.78908 0.2967 0.0
H2843 H 0.87788 0.76476 0.22829 0.0
H2844 H 0.86248 0.76872 0.24522 0.0
H2845 H 0.86984 0.78622 0.2306 0.0
H2846 H 0.8599 0.80736 0.25452 0.0
H2847 H 0.83051 0.80841 0.26286 0.0
H2848 H 0.5251 0.30999 0.12389 0.0
H2849 H 0.54245 0.33565 0.11126 0.0
H2850 H 0.49496 0.35429 0.09312 0.0
H2851 H 0.47732 0.32863 0.10597 0.0
H2852 H 0.52559 0.35503 0.06668 0.0
H2853 H 0.54247 0.3909 0.14612 0.0
H2854 H 0.54459 0.36667 0.13949 0.0
H2855 H 0.5231 0.37211 0.13726 0.0
C2856 C 0.51826 0.31929 0.11681 0.0
C2857 C 0.49992 0.31771 0.11629 0.0
C2858 C 0.5282 0.33382 0.10957 0.0
C2859 C 0.5199 0.34679 0.10164 0.0
C2860 C 0.50144 0.34425 0.09933 0.0
H2861 H 0.5308 0.45595 0.08707 0.0
H2862 H 0.52841 0.42632 0.09954 0.0
C2863 C 0.49142 0.32966 0.10661 0.0
C2864 C 0.53056 0.36438 0.09827 0.0
H2865 H 0.55171 0.40874 0.12245 0.0
C2866 C 0.53166 0.36672 0.07878 0.0
C2867 C 0.53832 0.37936 0.11431 0.0
C2868 C 0.53709 0.37731 0.13552 0.0
C2869 C 0.53962 0.38425 0.07478 0.0
C2870 C 0.54672 0.39952 0.0908 0.0
C2871 C 0.54644 0.39682 0.11034 0.0
C2872 C 0.5511 0.41899 0.08739 0.0
C2873 C 0.53921 0.38671 0.05348 0.0
C2874 C 0.56519 0.42493 0.0774 0.0
C2875 C 0.56652 0.4418 0.07019 0.0
C2876 C 0.55373 0.45268 0.07297 0.0
C2877 C 0.54064 0.44755 0.08458 0.0
C2878 C 0.53934 0.43077 0.09177 0.0
H2879 H 0.53166 0.37381 0.04291 0.0
H2880 H 0.53316 0.39886 0.05103 0.0
H2881 H 0.55292 0.38983 0.05008 0.0
H2882 H 0.57442 0.41596 0.07412 0.0
H2883 H 0.57671 0.4456 0.06126 0.0
H2884 H 0.0388 0.32825 0.4093 0.0
H2885 H 0.01301 0.32921 0.3856 0.0
H2886 H 0.98015 0.32525 0.43148 0.0
H2887 H 1.00544 0.32395 0.45489 0.0
H2888 H 0.97783 0.30044 0.37683 0.0
H2889 H 0.974 0.3741 0.40862 0.0
H2890 H 0.99404 0.36533 0.41231 0.0
H2891 H 0.97657 0.35908 0.42644 0.0
C2892 C 0.02605 0.32761 0.41423 0.0
C2893 C 0.02413 0.32646 0.43397 0.0
C2894 C 1.01143 0.32816 0.40077 0.0
C2895 C 0.99491 0.3276 0.40704 0.0
C2896 C 0.99294 0.32606 0.42658 0.0
H2897 H 0.88908 0.33149 0.37317 0.0
H2898 H 0.91753 0.32694 0.38814 0.0
C2899 C 1.00742 0.32545 0.43993 0.0
C2900 C 0.9794 0.32845 0.39337 0.0
H2901 H 0.94845 0.35488 0.38746 0.0
C2902 C 0.97152 0.31244 0.37878 0.0
C2903 C 0.97129 0.34412 0.39629 0.0
C2904 C 0.97946 0.36172 0.41166 0.0
C2905 C 0.95509 0.31135 0.36756 0.0
C2906 C 0.94673 0.32678 0.37098 0.0
C2907 C 0.95499 0.34307 0.38502 0.0
C2908 C 0.92895 0.32615 0.36101 0.0
C2909 C 0.94634 0.29344 0.35291 0.0
C2910 C 0.92597 0.3266 0.34074 0.0
C2911 C 0.90971 0.32908 0.33216 0.0
C2912 C 0.89654 0.33142 0.34394 0.0
C2913 C 0.89925 0.32995 0.36397 0.0
C2914 C 0.91537 0.32731 0.37246 0.0
H2915 H 0.95334 0.28173 0.35424 0.0
H2916 H 0.9324 0.28869 0.35508 0.0
H2917 H 0.94623 0.29633 0.33764 0.0
H2918 H 0.93645 0.32597 0.33182 0.0
H2919 H 0.90776 0.33021 0.31667 0.0
H2920 H 0.01965 0.74118 0.64168 0.0
H2921 H 0.02657 0.71377 0.62222 0.0
H2922 H 0.97108 0.69095 0.60092 0.0
H2923 H 0.9639 0.71908 0.61984 0.0
H2924 H 0.01742 0.67732 0.62353 0.0
H2925 H 0.99162 0.69039 0.54977 0.0
H2926 H 0.99401 0.70762 0.57226 0.0
H2927 H 0.97555 0.68763 0.56628 0.0
C2928 C 1.00881 0.73032 0.63303 0.0
C2929 C 0.99118 0.73233 0.63215 0.0
C2930 C 0.01284 0.7147 0.62186 0.0
C2931 C 0.99935 0.70068 0.60986 0.0
C2932 C 0.98166 0.70201 0.60971 0.0
H2933 H 1.00674 0.59233 0.55521 0.0
H2934 H 0.99583 0.62117 0.56244 0.0
C2935 C 0.97758 0.71791 0.62068 0.0
C2936 C 1.00415 0.68468 0.59774 0.0
H2937 H 1.00272 0.6624 0.55015 0.0
C2938 C 0.01428 0.6741 0.60749 0.0
C2939 C 1.00003 0.68073 0.57683 0.0
C2940 C 0.98984 0.69229 0.56562 0.0
C2941 C 0.02049 0.65958 0.59685 0.0
C2942 C 0.01633 0.65562 0.576 0.0
C2943 C 1.00599 0.6659 0.56617 0.0
C2944 C 0.02151 0.63961 0.56463 0.0
C2945 C 0.03129 0.6484 0.60795 0.0
C2946 C 0.0393 0.64069 0.56249 0.0
C2947 C 0.04539 0.62405 0.55816 0.0
C2948 C 0.03362 0.60647 0.55566 0.0
C2949 C 0.01563 0.60561 0.55593 0.0
C2950 C 1.00951 0.62213 0.5603 0.0
H2951 H 0.03199 0.65233 0.62427 0.0
H2952 H 0.02556 0.63296 0.60332 0.0
H2953 H 0.04496 0.65106 0.60438 0.0
H2954 H 0.04867 0.65422 0.56607 0.0
H2955 H 0.05942 0.62487 0.55826 0.0
H2956 H 0.57944 0.84281 0.89603 0.0
H2957 H 0.60079 0.8455 0.87299 0.0
H2958 H 0.64073 0.83663 0.91699 0.0
H2959 H 0.61951 0.83462 0.94053 0.0
H2960 H 0.6533 0.86436 0.89526 0.0
H2961 H 0.61444 0.79758 0.84681 0.0
H2962 H 0.60209 0.8157 0.85148 0.0
H2963 H 0.6103 0.80537 0.87157 0.0
C2964 C 0.59276 0.8414 0.9008 0.0
C2965 C 0.59781 0.83806 0.91983 0.0
C2966 C 0.60491 0.84303 0.88768 0.0
C2967 C 0.62211 0.84088 0.89327 0.0
C2968 C 0.62742 0.83824 0.9125 0.0
H2969 H 0.70537 0.81131 0.83928 0.0
H2970 H 0.68722 0.82476 0.86193 0.0
C2971 C 0.61532 0.83695 0.92581 0.0
C2972 C 0.63415 0.84001 0.87856 0.0
H2973 H 0.63922 0.81363 0.83522 0.0
C2974 C 0.65023 0.85339 0.88204 0.0
C2975 C 0.63 0.82555 0.86147 0.0
C2976 C 0.61336 0.81012 0.85765 0.0
C2977 C 0.66247 0.8525 0.86882 0.0
C2978 C 0.65833 0.83798 0.85187 0.0
C2979 C 0.64208 0.82495 0.84813 0.0
C2980 C 0.67146 0.83412 0.83918 0.0
C2981 C 0.67985 0.86675 0.87316 0.0
C2982 C 0.66855 0.83518 0.81905 0.0
C2983 C 0.67883 0.82743 0.80611 0.0
C2984 C 0.69178 0.8183 0.81322 0.0
C2985 C 0.6952 0.81808 0.83353 0.0
C2986 C 0.68509 0.82598 0.84646 0.0
H2987 H 0.67942 0.87943 0.88421 0.0
H2988 H 0.69036 0.86003 0.87921 0.0
H2989 H 0.68353 0.87137 0.85938 0.0
H2990 H 0.65785 0.84121 0.81327 0.0
H2991 H 0.67615 0.82779 0.79047 0.0
H2992 H 0.41442 0.58298 0.72143 0.0
H2993 H 0.42893 0.58161 0.69138 0.0
H2994 H 0.47106 0.56155 0.72133 0.0
H2995 H 0.45698 0.56304 0.75107 0.0
H2996 H 0.47135 0.60036 0.69113 0.0
H2997 H 0.44812 0.5225 0.66499 0.0
H2998 H 0.43565 0.53641 0.67952 0.0
H2999 H 0.45537 0.53106 0.69114 0.0
C3000 C 0.42669 0.57813 0.72155 0.0
C3001 C 0.43439 0.57307 0.73885 0.0
C3002 C 0.43507 0.57748 0.70438 0.0
C3003 C 0.45121 0.57151 0.70397 0.0
C3004 C 0.4587 0.56625 0.72111 0.0
H3005 H 0.51731 0.53575 0.61888 0.0
H3006 H 0.50231 0.54292 0.64736 0.0
C3007 C 0.45052 0.56709 0.7382 0.0
C3008 C 0.46037 0.57037 0.68585 0.0
H3009 H 0.46975 0.53836 0.64884 0.0
C3010 C 0.47086 0.58684 0.68172 0.0
C3011 C 0.46006 0.55277 0.67366 0.0
C3012 C 0.44916 0.5346 0.67735 0.0
C3013 C 0.48134 0.58608 0.66623 0.0
C3014 C 0.48111 0.56837 0.654 0.0
C3015 C 0.47023 0.552 0.658 0.0
C3016 C 0.49236 0.56608 0.63755 0.0
C3017 C 0.49318 0.60424 0.66383 0.0
C3018 C 0.49263 0.57702 0.62241 0.0
C3019 C 0.50189 0.57329 0.60626 0.0
C3020 C 0.51089 0.55829 0.60459 0.0
C3021 C 0.51096 0.54773 0.61991 0.0
C3022 C 0.50207 0.55168 0.63615 0.0
H3023 H 0.496 0.61507 0.67769 0.0
H3024 H 0.50593 0.60172 0.65955 0.0
H3025 H 0.48646 0.6102 0.65208 0.0
H3026 H 0.48494 0.58784 0.62246 0.0
H3027 H 0.5009 0.58121 0.59437 0.0
H3028 H 0.86252 0.26115 0.0083 0.0
H3029 H 0.85151 0.27418 0.98007 0.0
H3030 H 0.80007 0.23807 0.9763 0.0
H3031 H 0.8109 0.22501 0.00457 0.0
H3032 H 0.83759 0.25438 0.94173 0.0
H3033 H 0.78844 0.29027 0.97472 0.0
H3034 H 0.80538 0.28268 0.98955 0.0
H3035 H 0.78591 0.26574 0.97679 0.0
C3036 C 0.84878 0.25616 1.00171 0.0
C3037 C 0.83761 0.24209 0.00893 0.0
C3038 C 0.84252 0.26359 0.98547 0.0
C3039 C 0.82489 0.25731 0.97615 0.0
C3040 C 0.81363 0.24344 0.98343 0.0
H3041 H 0.78327 0.26517 0.8567 0.0
H3042 H 0.79222 0.25529 0.88765 0.0
C3043 C 0.81989 0.23594 0.99962 0.0
C3044 C 0.81855 0.26467 0.95829 0.0
H3045 H 0.78815 0.28804 0.93997 0.0
C3046 C 0.82683 0.2618 0.9414 0.0
C3047 C 0.8046 0.27451 0.95784 0.0
C3048 C 0.79564 0.27867 0.97573 0.0
C3049 C 0.82135 0.26818 0.92403 0.0
C3050 C 0.80706 0.27755 0.92337 0.0
C3051 C 0.79902 0.28077 0.94039 0.0
C3052 C 0.80018 0.28373 0.90498 0.0
C3053 C 0.83107 0.26498 0.90656 0.0
C3054 C 0.80083 0.30303 0.90451 0.0
C3055 C 0.79551 0.30879 0.88672 0.0
C3056 C 0.78941 0.29534 0.86908 0.0
C3057 C 0.78806 0.27599 0.8699 0.0
C3058 C 0.79328 0.27027 0.88761 0.0
H3059 H 0.84432 0.26219 0.91105 0.0
H3060 H 0.82334 0.25245 0.89566 0.0
H3061 H 0.83273 0.27743 0.8991 0.0
H3062 H 0.806 0.31368 0.91776 0.0
H3063 H 0.79683 0.3238 0.88665 0.0
H3064 H 0.10069 0.54052 0.26204 0.0
H3065 H 0.08772 0.54572 0.2302 0.0
H3066 H 0.09117 0.48956 0.20268 0.0
H3067 H 0.10405 0.48406 0.23481 0.0
H3068 H 0.10269 0.54516 0.19601 0.0
H3069 H 0.03963 0.49127 0.18359 0.0
H3070 H 0.05343 0.49892 0.20747 0.0
H3071 H 0.05935 0.48247 0.18853 0.0
C3072 C 0.09871 0.5292 0.24926 0.0
C3073 C 0.10344 0.51185 0.25099 0.0
C3074 C 0.09124 0.53221 0.23105 0.0
C3075 C 0.08822 0.51795 0.21411 0.0
C3076 C 0.09307 0.50064 0.21565 0.0
H3077 H 0.05398 0.51975 0.09048 0.0
H3078 H 0.06125 0.50981 0.12219 0.0
C3079 C 0.1006 0.49759 0.23396 0.0
C3080 C 0.08079 0.52181 0.1948 0.0
H3081 H 0.04538 0.50816 0.15767 0.0
C3082 C 0.09014 0.53708 0.18765 0.0
C3083 C 0.06442 0.51125 0.18392 0.0
C3084 C 0.0535 0.49515 0.19128 0.0
C3085 C 0.08368 0.54203 0.16988 0.0
C3086 C 0.06723 0.53162 0.15908 0.0
C3087 C 0.05792 0.51619 0.16606 0.0
C3088 C 0.05986 0.53641 0.14022 0.0
C3089 C 0.09471 0.55819 0.16267 0.0
C3090 C 0.05586 0.5543 0.1399 0.0
C3091 C 0.05166 0.55992 0.12184 0.0
C3092 C 0.05121 0.54764 0.10392 0.0
C3093 C 0.05408 0.52933 0.10421 0.0
C3094 C 0.05827 0.52369 0.12227 0.0
H3095 H 0.10869 0.5616 0.17001 0.0
H3096 H 0.09445 0.55478 0.14639 0.0
H3097 H 0.08925 0.57107 0.16609 0.0
H3098 H 0.05678 0.56423 0.1536 0.0
H3099 H 0.04967 0.57419 0.12188 0.0
H3100 H 0.78683 0.96 0.57062 0.0
H3101 H 0.77504 0.93899 0.53872 0.0
H3102 H 0.80849 0.90095 0.55291 0.0
H3103 H 0.82071 0.92213 0.58465 0.0
H3104 H 0.8114 0.91164 0.51699 0.0
H3105 H 0.74065 0.88726 0.52392 0.0
H3106 H 0.74891 0.91252 0.52952 0.0
H3107 H 0.75743 0.89792 0.54512 0.0
C3108 C 0.79158 0.94708 0.56701 0.0
C3109 C 0.8048 0.94275 0.58005 0.0
C3110 C 0.78469 0.93501 0.54888 0.0
C3111 C 0.79068 0.9183 0.54368 0.0
C3112 C 0.80365 0.91378 0.55679 0.0
H3113 H 0.77249 0.82657 0.44597 0.0
H3114 H 0.77008 0.84564 0.47773 0.0
C3115 C 0.8107 0.92593 0.57481 0.0
C3116 C 0.78484 0.90644 0.52379 0.0
H3117 H 0.74898 0.87867 0.49228 0.0
C3118 C 0.79777 0.90439 0.51162 0.0
C3119 C 0.767 0.89715 0.51687 0.0
C3120 C 0.75268 0.89865 0.52957 0.0
C3121 C 0.7934 0.89315 0.49271 0.0
C3122 C 0.77559 0.8839 0.48577 0.0
C3123 C 0.76257 0.88595 0.49779 0.0
C3124 C 0.7708 0.87155 0.4662 0.0
C3125 C 0.80788 0.89104 0.48031 0.0
C3126 C 0.77097 0.87973 0.44925 0.0
C3127 C 0.77246 0.86894 0.43127 0.0
C3128 C 0.77364 0.84991 0.43017 0.0
C3129 C 0.77141 0.8412 0.44659 0.0
C3130 C 0.77004 0.85204 0.46465 0.0
H3131 H 0.82126 0.8973 0.48887 0.0
H3132 H 0.80713 0.87582 0.47435 0.0
H3133 H 0.80615 0.89828 0.46753 0.0
H3134 H 0.77168 0.89481 0.45034 0.0
H3135 H 0.77424 0.87584 0.41867 0.0
H3136 H 0.40789 0.58226 0.86264 0.0
H3137 H 0.42342 0.58058 0.89508 0.0
H3138 H 0.46597 0.5638 0.86717 0.0
H3139 H 0.45049 0.56515 0.83471 0.0
H3140 H 0.44147 0.54295 0.90285 0.0
H3141 H 0.48332 0.61612 0.91673 0.0
H3142 H 0.4614 0.61044 0.90254 0.0
H3143 H 0.47897 0.6019 0.89211 0.0
C3144 C 0.42047 0.57805 0.86334 0.0
C3145 C 0.42783 0.57369 0.84596 0.0
C3146 C 0.42935 0.57715 0.88193 0.0
C3147 C 0.44588 0.57212 0.88356 0.0
C3148 C 0.45323 0.56771 0.86627 0.0
H3149 H 0.51698 0.54827 0.97842 0.0
H3150 H 0.50081 0.55053 0.94668 0.0
C3151 C 0.4443 0.56841 0.8477 0.0
C3152 C 0.4555 0.57142 0.90326 0.0
H3153 H 0.4879 0.59726 0.94068 0.0
C3154 C 0.45159 0.55482 0.91115 0.0
C3155 C 0.46874 0.5869 0.91404 0.0
C3156 C 0.47346 0.60494 0.90608 0.0
C3157 C 0.46064 0.55329 0.92948 0.0
C3158 C 0.4739 0.56876 0.94026 0.0
C3159 C 0.47772 0.58542 0.93244 0.0
C3160 C 0.48396 0.56777 0.95963 0.0
C3161 C 0.45596 0.53518 0.93734 0.0
C3162 C 0.48004 0.57691 0.97753 0.0
C3163 C 0.48926 0.57564 0.99578 0.0
C3164 C 0.50268 0.56526 0.99654 0.0
C3165 C 0.50672 0.55634 0.9785 0.0
C3166 C 0.49747 0.55759 0.96029 0.0
H3167 H 0.44437 0.52504 0.92803 0.0
H3168 H 0.46741 0.52823 0.93785 0.0
H3169 H 0.45304 0.53841 0.95271 0.0
H3170 H 0.46967 0.58485 0.97738 0.0
H3171 H 0.48574 0.58266 0.0093 0.0
H3172 H 0.81822 0.22155 0.09881 0.0
H3173 H 0.80825 0.23518 0.12904 0.0
H3174 H 0.8607 0.26933 0.15004 0.0
H3175 H 0.87054 0.25637 0.11941 0.0
H3176 H 0.81599 0.23443 0.16626 0.0
H3177 H 0.83415 0.30987 0.15936 0.0
H3178 H 0.83503 0.29085 0.13964 0.0
H3179 H 0.85287 0.29904 0.1601 0.0
C3180 C 0.82765 0.23207 0.10978 0.0
C3181 C 0.8452 0.23796 0.10645 0.0
C3182 C 0.82191 0.23987 0.12717 0.0
C3183 C 0.83354 0.25371 0.14186 0.0
C3184 C 0.8512 0.25923 0.13879 0.0
H3185 H 0.81846 0.29265 0.26451 0.0
H3186 H 0.82972 0.28027 0.23444 0.0
C3187 C 0.85689 0.25165 0.12125 0.0
C3188 C 0.82723 0.26199 0.16044 0.0
H3189 H 0.8257 0.30387 0.19013 0.0
C3190 C 0.81813 0.24963 0.17137 0.0
C3191 C 0.82974 0.28187 0.16726 0.0
C3192 C 0.83831 0.29616 0.15587 0.0
C3193 C 0.81182 0.25652 0.18884 0.0
C3194 C 0.81473 0.2763 0.1958 0.0
C3195 C 0.82364 0.28869 0.1849 0.0
C3196 C 0.80818 0.28433 0.21411 0.0
C3197 C 0.8018 0.24266 0.19969 0.0
C3198 C 0.79246 0.29101 0.21273 0.0
C3199 C 0.78597 0.29809 0.22989 0.0
C3200 C 0.79512 0.29876 0.24885 0.0
C3201 C 0.8111 0.29243 0.25017 0.0
C3202 C 0.81753 0.28526 0.23299 0.0
H3203 H 0.79983 0.22772 0.1919 0.0
H3204 H 0.80912 0.24412 0.2148 0.0
H3205 H 0.78868 0.24596 0.20136 0.0
H3206 H 0.78502 0.29044 0.19834 0.0
H3207 H 0.7736 0.30272 0.22829 0.0
H3208 H 0.07306 0.50689 0.33795 0.0
H3209 H 0.0612 0.51667 0.36831 0.0
H3210 H 0.11239 0.52265 0.40275 0.0
H3211 H 0.12418 0.51291 0.37273 0.0
H3212 H 0.08522 0.50112 0.4169 0.0
H3213 H 0.06924 0.56916 0.40294 0.0
H3214 H 0.05994 0.54907 0.38346 0.0
H3215 H 0.08352 0.55737 0.38905 0.0
C3216 C 0.08179 0.51051 0.35199 0.0
C3217 C 0.09947 0.50883 0.35302 0.0
C3218 C 0.07504 0.51614 0.36926 0.0
C3219 C 0.086 0.52048 0.38765 0.0
C3220 C 0.10374 0.51926 0.38864 0.0
H3221 H 0.0748 0.54952 0.51008 0.0
H3222 H 0.08546 0.54314 0.47843 0.0
C3223 C 0.11043 0.51351 0.37145 0.0
C3224 C 0.07885 0.52539 0.40605 0.0
H3225 H 0.05957 0.558 0.43106 0.0
C3226 C 0.07964 0.51357 0.42005 0.0
C3227 C 0.07159 0.54162 0.40994 0.0
C3228 C 0.07113 0.55515 0.39565 0.0
C3229 C 0.07319 0.51748 0.43794 0.0
C3230 C 0.06604 0.53379 0.44189 0.0
C3231 C 0.06508 0.54552 0.42783 0.0
C3232 C 0.05978 0.53904 0.46077 0.0
C3233 C 0.0739 0.50403 0.45232 0.0
C3234 C 0.04197 0.53966 0.4611 0.0
C3235 C 0.03587 0.54357 0.47914 0.0
C3236 C 0.04753 0.54679 0.49698 0.0
C3237 C 0.06547 0.54678 0.49653 0.0
C3238 C 0.07158 0.5431 0.47852 0.0
H3239 H 0.07534 0.48987 0.44491 0.0
H3240 H 0.08549 0.50994 0.46407 0.0
H3241 H 0.06183 0.50216 0.45951 0.0
H3242 H 0.03276 0.53667 0.44743 0.0
H3243 H 0.02197 0.54354 0.47914 0.0
H3244 H 0.77215 0.93591 0.65315 0.0
H3245 H 0.76095 0.90926 0.66933 0.0
H3246 H 0.81334 0.9148 0.70066 0.0
H3247 H 0.82456 0.941 0.68459 0.0
H3248 H 0.79284 0.87589 0.67571 0.0
H3249 H 0.75923 0.91206 0.73266 0.0
H3250 H 0.75675 0.91582 0.7074 0.0
H3251 H 0.77727 0.92583 0.72349 0.0
C3252 C 0.78115 0.93155 0.66372 0.0
C3253 C 0.79922 0.94038 0.66762 0.0
C3254 C 0.77477 0.91635 0.67281 0.0
C3255 C 0.78641 0.91014 0.68598 0.0
C3256 C 0.80426 0.91939 0.69035 0.0
H3257 H 0.82186 0.86506 0.77266 0.0
H3258 H 0.8117 0.8787 0.74468 0.0
C3259 C 0.81063 0.93433 0.68121 0.0
C3260 C 0.78063 0.89372 0.6952 0.0
H3261 H 0.7689 0.88454 0.73913 0.0
C3262 C 0.78687 0.8773 0.68913 0.0
C3263 C 0.77292 0.8958 0.71267 0.0
C3264 C 0.76607 0.91328 0.71955 0.0
C3265 C 0.78732 0.86379 0.70128 0.0
C3266 C 0.78135 0.86691 0.71975 0.0
C3267 C 0.77336 0.88225 0.72483 0.0
C3268 C 0.78734 0.85749 0.73564 0.0
C3269 C 0.79589 0.84736 0.69541 0.0
C3270 C 0.77711 0.84083 0.73934 0.0
C3271 C 0.783 0.83289 0.75529 0.0
C3272 C 0.79901 0.84168 0.76767 0.0
C3273 C 0.80945 0.85799 0.76337 0.0
C3274 C 0.80364 0.86584 0.74749 0.0
H3275 H 0.79743 0.84529 0.67948 0.0
H3276 H 0.80918 0.85008 0.70439 0.0
H3277 H 0.78795 0.83409 0.69847 0.0
H3278 H 0.76454 0.8342 0.73016 0.0
H3279 H 0.77488 0.82027 0.75823 0.0
H3280 H 0.67142 0.4341 0.54339 0.0
H3281 H 0.64871 0.45313 0.54098 0.0
H3282 H 0.66114 0.47468 0.60387 0.0
H3283 H 0.68386 0.45619 0.6063 0.0
H3284 H 0.61883 0.45453 0.55896 0.0
H3285 H 0.66678 0.52346 0.58258 0.0
H3286 H 0.67362 0.5014 0.57582 0.0
H3287 H 0.66791 0.50796 0.60009 0.0
C3288 C 0.66913 0.4427 0.55671 0.0
C3289 C 0.67953 0.44366 0.57502 0.0
C3290 C 0.65623 0.45368 0.55531 0.0
C3291 C 0.65354 0.46579 0.57217 0.0
C3292 C 0.66331 0.46597 0.59054 0.0
H3293 H 0.58476 0.54615 0.59647 0.0
H3294 H 0.60786 0.52745 0.59879 0.0
C3295 C 0.67621 0.45519 0.59193 0.0
C3296 C 0.64053 0.47824 0.57077 0.0
H3297 H 0.6364 0.52443 0.58116 0.0
C3298 C 0.6227 0.46982 0.56369 0.0
C3299 C 0.64551 0.49822 0.57709 0.0
C3300 C 0.66452 0.50833 0.58415 0.0
C3301 C 0.60968 0.48072 0.56317 0.0
C3302 C 0.61468 0.50073 0.56942 0.0
C3303 C 0.63252 0.50914 0.57647 0.0
C3304 C 0.60169 0.51318 0.56804 0.0
C3305 C 0.59063 0.47051 0.55644 0.0
C3306 C 0.59118 0.51213 0.54987 0.0
C3307 C 0.57802 0.52251 0.54865 0.0
C3308 C 0.57531 0.53466 0.56542 0.0
C3309 C 0.5866 0.53688 0.58335 0.0
C3310 C 0.59969 0.52613 0.58466 0.0
H3311 H 0.58842 0.45557 0.55868 0.0
H3312 H 0.58152 0.47771 0.56447 0.0
H3313 H 0.58717 0.47019 0.54035 0.0
H3314 H 0.59289 0.50294 0.53664 0.0
H3315 H 0.56966 0.52073 0.53454 0.0
H3316 H 0.2105 0.13955 0.50857 0.0
H3317 H 0.18271 0.13302 0.52189 0.0
H3318 H 0.1671 0.07892 0.4819 0.0
H3319 H 0.19506 0.08506 0.46896 0.0
H3320 H 0.14927 0.12686 0.50413 0.0
H3321 H 0.15977 0.06328 0.53403 0.0
H3322 H 0.17719 0.07868 0.52558 0.0
H3323 H 0.16115 0.06085 0.50807 0.0
C3324 C 0.20112 0.1263 0.50257 0.0
C3325 C 0.20495 0.11277 0.48778 0.0
C3326 C 0.1853 0.12256 0.51024 0.0
C3327 C 0.17307 0.10531 0.50319 0.0
C3328 C 0.17661 0.09207 0.48796 0.0
H3329 H 0.06512 0.06458 0.51925 0.0
H3330 H 0.09386 0.06964 0.50751 0.0
C3331 C 0.1925 0.09569 0.48045 0.0
C3332 C 0.15635 0.10142 0.51133 0.0
H3333 H 0.13069 0.06936 0.53269 0.0
C3334 C 0.14528 0.11437 0.51051 0.0
C3335 C 0.15123 0.08512 0.5197 0.0
C3336 C 0.16304 0.0713 0.5221 0.0
C3337 C 0.12904 0.11126 0.51752 0.0
C3338 C 0.12382 0.09482 0.52547 0.0
C3339 C 0.13483 0.08189 0.52641 0.0
C3340 C 0.10693 0.09099 0.53304 0.0
C3341 C 0.11742 0.12542 0.51622 0.0
C3342 C 0.10507 0.10116 0.55136 0.0
C3343 C 0.08877 0.09829 0.5581 0.0
C3344 C 0.07417 0.08529 0.54652 0.0
C3345 C 0.07619 0.07481 0.52835 0.0
C3346 C 0.09253 0.07761 0.52168 0.0
H3347 H 0.12245 0.13629 0.50753 0.0
H3348 H 0.10375 0.11802 0.50932 0.0
H3349 H 0.11677 0.13276 0.53138 0.0
H3350 H 0.11617 0.11147 0.56029 0.0
H3351 H 0.08754 0.10643 0.57222 0.0
H3352 H 0.18454 0.98699 0.79327 0.0
H3353 H 0.1967 0.95835 0.78704 0.0
H3354 H 0.22759 0.97417 0.84525 0.0
H3355 H 0.21591 1.00282 0.85134 0.0
H3356 H 0.24726 0.961 0.82102 0.0
H3357 H 0.18334 0.90911 0.80533 0.0
H3358 H 0.18473 0.92588 0.78898 0.0
H3359 H 0.18514 0.93391 0.81507 0.0
C3360 C 0.19405 0.98452 0.80471 0.0
C3361 C 0.19916 0.99761 0.82284 0.0
C3362 C 0.20088 0.96785 0.80122 0.0
C3363 C 0.21297 0.96352 0.81577 0.0
C3364 C 0.21832 0.9768 0.83365 0.0
H3365 H 0.23445 0.84911 0.81564 0.0
H3366 H 0.22328 0.87833 0.81974 0.0
C3367 C 0.21156 0.99339 0.83713 0.0
C3368 C 0.22032 0.94555 0.81253 0.0
H3369 H 0.2086 0.89691 0.79938 0.0
C3370 C 0.23873 0.947 0.81632 0.0
C3371 C 0.20945 0.92698 0.80678 0.0
C3372 C 0.18957 0.92378 0.804 0.0
C3373 C 0.24646 0.93085 0.8145 0.0
C3374 C 0.23565 0.91226 0.80792 0.0
C3375 C 0.2172 0.91086 0.80422 0.0
C3376 C 0.24292 0.89415 0.8054 0.0
C3377 C 0.26619 0.93414 0.82052 0.0
C3378 C 0.25777 0.89253 0.79579 0.0
C3379 C 0.26455 0.87583 0.794 0.0
C3380 C 0.2563 0.85974 0.80094 0.0
C3381 C 0.24114 0.86105 0.80992 0.0
C3382 C 0.23469 0.87793 0.81226 0.0
H3383 H 0.27138 0.94764 0.83132 0.0
H3384 H 0.26988 0.92242 0.8273 0.0
H3385 H 0.2728 0.93527 0.80726 0.0
H3386 H 0.26417 0.90415 0.78944 0.0
H3387 H 0.27616 0.87543 0.78687 0.0
H3388 H 0.26783 0.96887 0.04714 0.0
H3389 H 0.2982 0.98597 0.04699 0.0
H3390 H 0.31816 0.95102 0.08492 0.0
H3391 H 0.28819 0.93403 0.08523 0.0
H3392 H 0.32476 1.00564 0.08139 0.0
H3393 H 0.34439 0.94513 0.03618 0.0
H3394 H 0.32157 0.94599 0.03747 0.0
H3395 H 0.33474 0.94004 0.05761 0.0
C3396 C 0.27872 0.9648 0.05532 0.0
C3397 C 0.27567 0.94987 0.06584 0.0
C3398 C 0.29598 0.97458 0.05529 0.0
C3399 C 0.31028 0.96947 0.06571 0.0
C3400 C 0.30725 0.95486 0.0765 0.0
H3401 H 0.42377 1.007 0.07054 0.0
H3402 H 0.39494 0.99232 0.07806 0.0
C3403 C 0.2901 0.94512 0.07655 0.0
C3404 C 0.32849 0.97931 0.06528 0.0
H3405 H 0.36675 0.9726 0.04891 0.0
C3406 C 0.33398 0.99849 0.07428 0.0
C3407 C 0.34043 0.96971 0.05626 0.0
C3408 C 0.33501 0.94912 0.04619 0.0
C3409 C 0.35122 0.00848 0.07434 0.0
C3410 C 0.363 0.99903 0.06481 0.0
C3411 C 0.35762 0.97972 0.05622 0.0
C3412 C 0.38054 0.00918 0.06217 0.0
C3413 C 0.35673 0.02898 0.08463 0.0
C3414 C 0.38184 0.02346 0.05078 0.0
C3415 C 0.39817 0.03169 0.04629 0.0
C3416 C 0.41347 0.02572 0.05305 0.0
C3417 C 0.41217 0.01171 0.0649 0.0
C3418 C 0.39579 1.00343 0.06934 0.0
H3419 H 0.34829 0.03233 0.09603 0.0
H3420 H 0.37074 0.03247 0.09182 0.0
H3421 H 0.35533 0.03821 0.07355 0.0
H3422 H 0.37012 0.02772 0.04473 0.0
H3423 H 0.39869 0.0422 0.03686 0.0
H3424 H 0.89994 0.65447 0.78 0.0
H3425 H 0.88045 0.67533 0.77031 0.0
H3426 H 0.88883 0.70537 0.83073 0.0
H3427 H 0.90799 0.68468 0.84053 0.0
H3428 H 0.84965 0.68757 0.8051 0.0
H3429 H 0.89897 0.73882 0.77695 0.0
H3430 H 0.89881 0.71376 0.7723 0.0
H3431 H 0.90573 0.72737 0.79688 0.0
C3432 C 0.89767 0.66561 0.79113 0.0
C3433 C 0.90533 0.66791 0.81102 0.0
C3434 C 0.88656 0.67742 0.7856 0.0
C3435 C 0.88327 0.69173 0.79988 0.0
C3436 C 0.89117 0.69426 0.8196 0.0
H3437 H 0.8438 0.79058 0.81459 0.0
H3438 H 0.85971 0.76505 0.81242 0.0
C3439 C 0.90206 0.68242 0.82515 0.0
C3440 C 0.87138 0.70409 0.79464 0.0
H3441 H 0.87143 0.74655 0.78037 0.0
C3442 C 0.85418 0.70028 0.79927 0.0
C3443 C 0.87763 0.72074 0.78745 0.0
C3444 C 0.89629 0.72558 0.78306 0.0
C3445 C 0.84315 0.71314 0.79751 0.0
C3446 C 0.84949 0.72998 0.79055 0.0
C3447 C 0.86655 0.73346 0.78537 0.0
C3448 C 0.8396 0.74527 0.79087 0.0
C3449 C 0.82527 0.70917 0.80422 0.0
C3450 C 0.82297 0.74254 0.77933 0.0
C3451 C 0.81361 0.75709 0.78071 0.0
C3452 C 0.82086 0.77454 0.79355 0.0
C3453 C 0.83778 0.77733 0.80454 0.0
C3454 C 0.84698 0.76281 0.80328 0.0
H3455 H 0.82382 0.69737 0.81265 0.0
H3456 H 0.82305 0.72201 0.8137 0.0
H3457 H 0.81481 0.70515 0.79107 0.0
H3458 H 0.81717 0.72912 0.7695 0.0
H3459 H 0.80054 0.75446 0.77219 0.0
H3460 H 0.78584 0.60468 0.0264 0.0
H3461 H 0.8127 0.60297 0.04747 0.0
H3462 H 0.84344 0.61634 1.00158 0.0
H3463 H 0.81675 0.61823 0.98055 0.0
H3464 H 0.8345 0.57925 0.03985 0.0
H3465 H 0.87197 0.65335 0.04957 0.0
H3466 H 0.84862 0.64632 0.04014 0.0
H3467 H 0.86469 0.64289 0.02394 0.0
C3468 C 0.79831 0.60711 0.02077 0.0
C3469 C 0.79927 0.61159 1.00186 0.0
C3470 C 0.81363 0.60636 0.03289 0.0
C3471 C 0.83005 0.61008 0.02626 0.0
C3472 C 0.83095 0.61408 0.00721 0.0
H3473 H 0.93134 0.58975 0.0435 0.0
H3474 H 0.90481 0.60195 0.03618 0.0
C3475 C 0.81568 0.61492 0.99513 0.0
C3476 C 0.8461 0.60814 0.03849 0.0
H3477 H 0.88911 0.63005 0.05566 0.0
C3478 C 0.84635 0.59047 0.04374 0.0
C3479 C 0.86145 0.62287 0.0435 0.0
C3480 C 0.86163 0.64248 0.03917 0.0
C3481 C 0.86193 0.58665 0.05271 0.0
C3482 C 0.87753 0.60108 0.05681 0.0
C3483 C 0.87707 0.61908 0.05249 0.0
C3484 C 0.89477 0.59689 0.06318 0.0
C3485 C 0.8618 0.56686 0.05652 0.0
C3486 C 0.89815 0.59076 0.08115 0.0
C3487 C 0.91314 0.58345 0.08521 0.0
C3488 C 0.92495 0.58237 0.0714 0.0
C3489 C 0.9222 0.58997 0.05417 0.0
C3490 C 0.90719 0.59713 0.05007 0.0
H3491 H 0.84938 0.55661 0.04935 0.0
H3492 H 0.87312 0.56162 0.051 0.0
H3493 H 0.86308 0.5671 0.07271 0.0
H3494 H 0.88878 0.59078 0.09155 0.0
H3495 H 0.91495 0.57774 0.09862 0.0
H3496 H 0.21643 0.10648 0.85948 0.0
H3497 H 0.2295 0.1383 0.85452 0.0
H3498 H 0.19732 0.1272 0.79724 0.0
H3499 H 0.18382 0.09547 0.80237 0.0
H3500 H 0.24913 0.15237 0.82957 0.0
H3501 H 0.18675 0.17702 0.81781 0.0
H3502 H 0.18761 0.15504 0.82614 0.0
H3503 H 0.18702 0.15622 0.80027 0.0
C3504 C 0.21202 0.11071 0.84578 0.0
C3505 C 0.19883 0.09806 0.83142 0.0
C3506 C 0.21961 0.12911 0.84293 0.0
C3507 C 0.21433 0.13579 0.82564 0.0
C3508 C 0.20145 0.12301 0.81105 0.0
H3509 H 0.23993 0.24363 0.78282 0.0
H3510 H 0.2289 0.21152 0.788 0.0
C3511 C 0.19378 0.1046 0.81392 0.0
C3512 C 0.22248 0.15585 0.82294 0.0
H3513 H 0.21244 0.19712 0.81189 0.0
C3514 C 0.24104 0.16213 0.82574 0.0
C3515 C 0.21223 0.16899 0.81795 0.0
C3516 C 0.19232 0.16408 0.81555 0.0
C3517 C 0.24946 0.18048 0.82314 0.0
C3518 C 0.23921 0.19368 0.81812 0.0
C3519 C 0.22063 0.1874 0.81558 0.0
C3520 C 0.24716 0.21365 0.81475 0.0
C3521 C 0.26935 0.18509 0.82511 0.0
C3522 C 0.26146 0.22633 0.82777 0.0
C3523 C 0.26829 0.24484 0.82435 0.0
C3524 C 0.26068 0.2516 0.80817 0.0
C3525 C 0.24629 0.23908 0.7954 0.0
C3526 C 0.23983 0.22053 0.79848 0.0
H3527 H 0.27467 0.17201 0.82249 0.0
H3528 H 0.274 0.19417 0.81453 0.0
H3529 H 0.27495 0.19269 0.84042 0.0
H3530 H 0.26717 0.22219 0.84094 0.0
H3531 H 0.27909 0.25409 0.83481 0.0
H3532 H 0.38049 0.08432 0.32649 0.0
H3533 H 0.36367 0.05151 0.31781 0.0
H3534 H 0.40376 0.03595 0.28454 0.0
H3535 H 0.42068 0.06896 0.29293 0.0
H3536 H 0.35648 0.02092 0.27214 0.0
H3537 H 0.39583 0.00949 0.34008 0.0
H3538 H 0.39045 0.0323 0.33932 0.0
H3539 H 0.40579 0.0245 0.32422 0.0
C3540 C 0.38559 0.07401 0.31703 0.0
C3541 C 0.402 0.07913 0.31059 0.0
C3542 C 0.37591 0.05533 0.31199 0.0
C3543 C 0.38254 0.04144 0.3006 0.0
C3544 C 0.39844 0.0466 0.29324 0.0
H3545 H 0.34552 0.92229 0.30697 0.0
H3546 H 0.36331 0.95093 0.29935 0.0
C3547 C 0.40807 0.06541 0.29807 0.0
C3548 C 0.37388 0.02132 0.29879 0.0
H3549 H 0.37145 0.98528 0.32474 0.0
C3550 C 0.35988 0.01294 0.28341 0.0
C3551 C 0.37846 0.01107 0.3135 0.0
C3552 C 0.39346 0.01966 0.33027 0.0
C3553 C 0.34989 0.9946 0.28278 0.0
C3554 C 0.3539 0.98473 0.29812 0.0
C3555 C 0.36841 0.99288 0.31299 0.0
C3556 C 0.3425 0.96663 0.30009 0.0
C3557 C 0.33505 0.98603 0.26586 0.0
C3558 C 0.3249 0.96597 0.30299 0.0
C3559 C 0.31477 0.94973 0.30756 0.0
C3560 C 0.32209 0.93386 0.30945 0.0
C3561 C 0.33958 0.93438 0.30596 0.0
C3562 C 0.34971 0.95065 0.30141 0.0
H3563 H 0.33716 0.99246 0.25258 0.0
H3564 H 0.33369 0.97044 0.26176 0.0
H3565 H 0.32245 0.98875 0.2704 0.0
H3566 H 0.31922 0.97832 0.30256 0.0
H3567 H 0.30144 0.94992 0.31041 0.0
H3568 H 0.53298 0.31784 0.65864 0.0
H3569 H 0.53708 0.33972 0.63523 0.0
H3570 H 0.52974 0.385 0.67975 0.0
H3571 H 0.52667 0.36344 0.70324 0.0
H3572 H 0.51328 0.35554 0.62056 0.0
H3573 H 0.56855 0.41408 0.65824 0.0
H3574 H 0.56386 0.39184 0.66678 0.0
H3575 H 0.5522 0.41024 0.67415 0.0
C3576 C 0.53322 0.33273 0.66363 0.0
C3577 C 0.5302 0.33923 0.68288 0.0
C3578 C 0.53531 0.34516 0.65021 0.0
C3579 C 0.53407 0.36419 0.65576 0.0
C3580 C 0.53148 0.37068 0.67524 0.0
H3581 H 0.5081 0.45468 0.60273 0.0
H3582 H 0.51419 0.43183 0.62339 0.0
C3583 C 0.52973 0.35836 0.68871 0.0
C3584 C 0.53336 0.37663 0.64074 0.0
H3585 H 0.54784 0.4219 0.6336 0.0
C3586 C 0.52112 0.36992 0.62324 0.0
C3587 C 0.54357 0.39543 0.64414 0.0
C3588 C 0.5579 0.40321 0.66176 0.0
C3589 C 0.51819 0.38173 0.60962 0.0
C3590 C 0.52773 0.40079 0.61362 0.0
C3591 C 0.5404 0.40733 0.6307 0.0
C3592 C 0.52411 0.41445 0.60081 0.0
C3593 C 0.50441 0.374 0.59147 0.0
C3594 C 0.52777 0.41229 0.58128 0.0
C3595 C 0.52418 0.42527 0.56936 0.0
C3596 C 0.5169 0.44067 0.57676 0.0
C3597 C 0.5134 0.44282 0.59642 0.0
C3598 C 0.51701 0.42987 0.60831 0.0
H3599 H 0.49611 0.36004 0.59228 0.0
H3600 H 0.49569 0.38409 0.58946 0.0
H3601 H 0.51107 0.37212 0.57818 0.0
H3602 H 0.53345 0.40061 0.57529 0.0
H3603 H 0.52696 0.42312 0.55428 0.0
H3604 H 0.47383 0.79726 0.37368 0.0
H3605 H 0.44291 0.79747 0.36405 0.0
H3606 H 0.45796 0.83853 0.32741 0.0
H3607 H 0.48927 0.83832 0.33704 0.0
H3608 H 0.42412 0.82379 0.36909 0.0
H3609 H 0.42118 0.80005 0.2884 0.0
H3610 H 0.43993 0.79966 0.30608 0.0
H3611 H 0.43753 0.82144 0.29818 0.0
C3612 C 0.47071 0.80652 0.36369 0.0
C3613 C 0.48425 0.8179 0.35628 0.0
C3614 C 0.45286 0.80654 0.35809 0.0
C3615 C 0.44782 0.81777 0.34471 0.0
C3616 C 0.4613 0.82934 0.33738 0.0
H3617 H 0.34901 0.84959 0.31095 0.0
H3618 H 0.37959 0.84612 0.31763 0.0
C3619 C 0.47928 0.82933 0.34301 0.0
C3620 C 0.42852 0.81739 0.33879 0.0
H3621 H 0.39595 0.81033 0.29881 0.0
C3622 C 0.418 0.82069 0.3537 0.0
C3623 C 0.42025 0.81317 0.31872 0.0
C3624 C 0.43024 0.80818 0.30192 0.0
C3625 C 0.39981 0.82038 0.34912 0.0
C3626 C 0.39171 0.81663 0.32909 0.0
C3627 C 0.4021 0.81315 0.31417 0.0
C3628 C 0.37281 0.81766 0.32344 0.0
C3629 C 0.38933 0.82446 0.3657 0.0
C3630 C 0.35862 0.80258 0.32392 0.0
C3631 C 0.34092 0.80439 0.31964 0.0
C3632 C 0.33715 0.82142 0.31508 0.0
C3633 C 0.35142 0.83622 0.3142 0.0
C3634 C 0.36896 0.8343 0.31812 0.0
H3635 H 0.39764 0.82782 0.38051 0.0
H3636 H 0.38311 0.8366 0.36372 0.0
H3637 H 0.37854 0.81194 0.36522 0.0
H3638 H 0.36123 0.7896 0.32804 0.0
H3639 H 0.33028 0.79289 0.3209 0.0
H3640 H 0.98991 0.7488 0.16078 0.0
H3641 H 0.99643 0.72135 0.1402 0.0
H3642 H 0.04051 0.72193 0.18417 0.0
H3643 H 0.03415 0.74949 0.20501 0.0
H3644 H 0.02989 0.71852 0.12547 0.0
H3645 H 1.00887 0.66683 0.17371 0.0
H3646 H 1.0021 0.68921 0.17537 0.0
H3647 H 0.02416 0.68857 0.1855 0.0
C3648 C 1.00092 0.74305 0.16623 0.0
C3649 C 1.01142 0.7513 0.18468 0.0
C3650 C 1.00469 0.72744 0.15435 0.0
C3651 C 0.0189 0.71964 0.16072 0.0
C3652 C 0.0294 0.72771 0.17909 0.0
H3653 H 0.05648 0.63112 0.08557 0.0
H3654 H 0.05554 0.66145 0.10622 0.0
C3655 C 0.02572 0.74344 0.19097 0.0
C3656 C 0.02247 0.70286 0.14814 0.0
H3657 H 0.01971 0.65534 0.14491 0.0
C3658 C 0.02781 0.7047 0.12971 0.0
C3659 C 0.01958 0.68491 0.15375 0.0
C3660 C 0.01325 0.68209 0.17309 0.0
C3661 C 0.0301 0.6889 0.11656 0.0
C3662 C 0.02708 0.67092 0.12215 0.0
C3663 C 0.02207 0.66919 0.14074 0.0
C3664 C 0.02774 0.65338 0.1085 0.0
C3665 C 0.03507 0.69142 0.09656 0.0
C3666 C 0.01246 0.63888 0.10301 0.0
C3667 C 0.01302 0.62159 0.09153 0.0
C3668 C 0.02886 0.61848 0.0852 0.0
C3669 C 0.04406 0.63322 0.09012 0.0
C3670 C 0.04353 0.65053 0.10185 0.0
H3671 H 0.03344 0.70534 0.09303 0.0
H3672 H 0.04913 0.69067 0.09648 0.0
H3673 H 0.02693 0.67995 0.0847 0.0
H3674 H 1.00014 0.64084 0.10792 0.0
H3675 H 1.00106 0.61056 0.08782 0.0
H3676 H 0.086 0.30685 0.8285 0.0
H3677 H 0.11692 0.30917 0.82451 0.0
H3678 H 0.13275 0.3337 0.88646 0.0
H3679 H 0.10148 0.33134 0.89064 0.0
H3680 H 0.14472 0.34063 0.83081 0.0
H3681 H 0.15978 0.29067 0.8797 0.0
H3682 H 0.13742 0.29238 0.87147 0.0
H3683 H 0.15123 0.31031 0.8908 0.0
C3684 C 0.09596 0.31278 0.84138 0.0
C3685 C 0.09103 0.31885 0.85994 0.0
C3686 C 0.11377 0.31411 0.83903 0.0
C3687 C 0.12737 0.32135 0.85517 0.0
C3688 C 0.1226 0.32772 0.87376 0.0
H3689 H 0.24188 0.3242 0.85805 0.0
H3690 H 0.21281 0.32681 0.86716 0.0
C3691 C 0.10466 0.32652 0.87612 0.0
C3692 C 0.14635 0.32235 0.85208 0.0
H3693 H 0.18282 0.30434 0.86391 0.0
C3694 C 0.15306 0.33275 0.83815 0.0
C3695 C 0.15747 0.31226 0.8617 0.0
C3696 C 0.15115 0.30064 0.87666 0.0
C3697 C 0.17032 0.33334 0.83356 0.0
C3698 C 0.18123 0.32258 0.84252 0.0
C3699 C 0.17464 0.31252 0.85683 0.0
C3700 C 0.19922 0.32125 0.83699 0.0
C3701 C 0.17671 0.34596 0.81942 0.0
C3702 C 0.20159 0.31696 0.817 0.0
C3703 C 0.21831 0.31598 0.81178 0.0
C3704 C 0.23319 0.31863 0.82637 0.0
C3705 C 0.2308 0.32228 0.84639 0.0
C3706 C 0.21409 0.32369 0.85161 0.0
H3707 H 0.16998 0.35806 0.81987 0.0
H3708 H 0.19119 0.35173 0.82288 0.0
H3709 H 0.17351 0.33765 0.80407 0.0
H3710 H 0.19043 0.3141 0.80529 0.0
H3711 H 0.21948 0.31269 0.79621 0.0
H3712 H 0.57764 0.79607 0.99135 0.0
H3713 H 0.56577 0.76306 0.99341 0.0
H3714 H 0.53106 0.78118 0.03314 0.0
H3715 H 0.54298 0.81416 0.03168 0.0
H3716 H 0.55782 0.74676 0.03473 0.0
H3717 H 0.50283 0.74371 0.97432 0.0
H3718 H 0.52427 0.75926 0.97634 0.0
H3719 H 0.50959 0.76466 0.99347 0.0
C3720 C 0.568 0.79314 1.00114 0.0
C3721 C 0.561 0.80771 0.01103 0.0
C3722 C 0.56108 0.77429 1.00204 0.0
C3723 C 0.54725 0.76998 0.01288 0.0
C3724 C 0.54155 0.78447 0.02441 0.0
H3725 H 0.48755 0.67473 0.04584 0.0
H3726 H 0.49458 0.70445 0.03367 0.0
C3727 C 0.54854 0.80327 0.0237 0.0
C3728 C 0.53833 0.75031 0.01186 0.0
H3729 H 0.50136 0.717 0.98992 0.0
C3730 C 0.5456 0.74012 0.02484 0.0
C3731 C 0.52234 0.74207 0.99895 0.0
C3732 C 0.51423 0.75288 0.98487 0.0
C3733 C 0.53703 0.72169 0.02552 0.0
C3734 C 0.52098 0.7134 0.01268 0.0
C3735 C 0.51375 0.72353 0.99954 0.0
C3736 C 0.51151 0.69436 0.01366 0.0
C3737 C 0.54499 0.71129 0.0402 0.0
C3738 C 0.51776 0.67871 0.00521 0.0
C3739 C 0.51376 0.66176 0.01209 0.0
C3740 C 0.50359 0.66051 0.02751 0.0
C3741 C 0.49541 0.67539 0.03394 0.0
C3742 C 0.49939 0.69234 0.02702 0.0
H3743 H 0.55673 0.72045 0.05022 0.0
H3744 H 0.53504 0.70595 0.04938 0.0
H3745 H 0.54906 0.69885 0.03211 0.0
H3746 H 0.52717 0.68022 0.99489 0.0
H3747 H 0.51999 0.6503 0.00674 0.0
H3748 H 0.04148 0.80594 0.68557 0.0
H3749 H 0.05705 0.80228 0.71714 0.0
H3750 H 0.07577 0.75557 0.6866 0.0
H3751 H 0.06028 0.7592 0.65513 0.0
H3752 H 0.0663 0.76285 0.73652 0.0
H3753 H 0.11546 0.81241 0.70616 0.0
H3754 H 0.09208 0.81166 0.70135 0.0
H3755 H 0.10092 0.79279 0.68921 0.0
C3756 C 0.04803 0.7942 0.68583 0.0
C3757 C 0.04979 0.78286 0.66809 0.0
C3758 C 0.05695 0.79216 0.70381 0.0
C3759 C 0.06753 0.77871 0.70404 0.0
C3760 C 0.06752 0.76591 0.68664 0.0
H3761 H 0.15023 0.74496 0.76508 0.0
H3762 H 0.12098 0.74847 0.752 0.0
C3763 C 0.05878 0.76806 0.6687 0.0
C3764 C 0.0819 0.78109 0.72056 0.0
H3765 H 0.12607 0.79956 0.73288 0.0
C3766 C 0.07932 0.77115 0.73606 0.0
C3767 C 0.09876 0.79206 0.71983 0.0
C3768 C 0.10209 0.80294 0.70332 0.0
C3769 C 0.09356 0.7713 0.75054 0.0
C3770 C 0.11065 0.78133 0.74908 0.0
C3771 C 0.11293 0.79202 0.7341 0.0
C3772 C 0.12677 0.77906 0.76103 0.0
C3773 C 0.09026 0.7604 0.76698 0.0
C3774 C 0.13974 0.79509 0.77057 0.0
C3775 C 0.15667 0.79316 0.77758 0.0
C3776 C 0.16083 0.77514 0.77512 0.0
C3777 C 0.14744 0.75903 0.76693 0.0
C3778 C 0.1306 0.76099 0.75976 0.0
H3779 H 0.07659 0.75967 0.77035 0.0
H3780 H 0.09177 0.74564 0.76222 0.0
H3781 H 0.09974 0.76693 0.78071 0.0
H3782 H 0.13708 0.80918 0.77148 0.0
H3783 H 0.16676 0.80585 0.78364 0.0
H3784 H 0.09616 0.38455 0.51562 0.0
H3785 H 0.10622 0.41746 0.5333 0.0
H3786 H 0.07431 0.43579 0.48812 0.0
H3787 H 0.06403 0.40303 0.47074 0.0
H3788 H 0.1055 0.46541 0.5134 0.0
H3789 H 0.05656 0.42351 0.55155 0.0
H3790 H 0.07686 0.41596 0.54848 0.0
H3791 H 0.06062 0.41412 0.52725 0.0
C3792 C 0.09214 0.39578 0.50896 0.0
C3793 C 0.07902 0.3915 0.49227 0.0
C3794 C 0.09798 0.41454 0.51897 0.0
C3795 C 0.0907 0.42884 0.51215 0.0
C3796 C 0.08002 0.42486 0.4936 0.0
H3797 H 0.03183 0.50257 0.51634 0.0
H3798 H 0.05577 0.48585 0.51359 0.0
C3799 C 0.07399 0.40617 0.48379 0.0
C3800 C 0.08866 0.44523 0.52629 0.0
H3801 H 0.05879 0.45595 0.55608 0.0
C3802 C 0.09586 0.46353 0.52343 0.0
C3803 C 0.07586 0.44255 0.53913 0.0
C3804 C 0.06692 0.42302 0.54183 0.0
C3805 C 0.08936 0.47909 0.53175 0.0
C3806 C 0.07539 0.47601 0.54294 0.0
C3807 C 0.06966 0.45815 0.54762 0.0
C3808 C 0.06343 0.48911 0.54528 0.0
C3809 C 0.09638 0.49838 0.52718 0.0
C3810 C 0.05958 0.49599 0.56404 0.0
C3811 C 0.04575 0.50545 0.56565 0.0
C3812 C 0.03545 0.50762 0.5485 0.0
C3813 C 0.03937 0.50072 0.52978 0.0
C3814 C 0.05332 0.49162 0.5282 0.0
H3815 H 0.1104 0.50001 0.52484 0.0
H3816 H 0.08857 0.49999 0.51334 0.0
H3817 H 0.09531 0.50988 0.53931 0.0
H3818 H 0.06703 0.49372 0.57732 0.0
H3819 H 0.04303 0.51098 0.5802 0.0
H3820 H 0.44095 0.29005 0.17938 0.0
H3821 H 0.42298 0.29231 0.20582 0.0
H3822 H 0.44426 0.24895 0.22964 0.0
H3823 H 0.46275 0.24696 0.20347 0.0
H3824 H 0.3991 0.2693 0.2239 0.0
H3825 H 0.46481 0.29773 0.27107 0.0
H3826 H 0.46226 0.29307 0.24438 0.0
H3827 H 0.46113 0.27379 0.25769 0.0
C3828 C 0.44129 0.28043 0.18975 0.0
C3829 C 0.45354 0.2687 0.18979 0.0
C3830 C 0.43104 0.28178 0.20488 0.0
C3831 C 0.4328 0.27119 0.21989 0.0
C3832 C 0.44313 0.25751 0.21834 0.0
H3833 H 0.37909 0.2955 0.32215 0.0
H3834 H 0.39229 0.27776 0.29697 0.0
C3835 C 0.45356 0.25633 0.20336 0.0
C3836 C 0.42607 0.27672 0.23842 0.0
H3837 H 0.43978 0.29995 0.28621 0.0
C3838 C 0.40789 0.27567 0.23767 0.0
C3839 C 0.4378 0.28538 0.25613 0.0
C3840 C 0.4576 0.28775 0.25745 0.0
C3841 C 0.40109 0.28355 0.25412 0.0
C3842 C 0.41284 0.2924 0.27169 0.0
C3843 C 0.43093 0.29294 0.27266 0.0
C3844 C 0.40677 0.30283 0.28855 0.0
C3845 C 0.38158 0.28327 0.2523 0.0
C3846 C 0.41134 0.32271 0.29258 0.0
C3847 C 0.40397 0.33288 0.30701 0.0
C3848 C 0.392 0.32325 0.31759 0.0
C3849 C 0.38839 0.30329 0.31434 0.0
C3850 C 0.39573 0.29314 0.29986 0.0
H3851 H 0.37474 0.2781 0.23682 0.0
H3852 H 0.37539 0.27379 0.26177 0.0
H3853 H 0.37944 0.29771 0.25753 0.0
H3854 H 0.41999 0.33033 0.28397 0.0
H3855 H 0.40706 0.34824 0.30933 0.0
H3856 H 0.61274 0.55597 0.35625 0.0
H3857 H 0.5954 0.55566 0.38351 0.0
H3858 H 0.63821 0.54273 0.4202 0.0
H3859 H 0.65568 0.54278 0.39271 0.0
H3860 H 0.58387 0.52596 0.40423 0.0
H3861 H 0.62645 0.58845 0.45577 0.0
H3862 H 0.62806 0.58352 0.42969 0.0
H3863 H 0.63763 0.57041 0.44627 0.0
C3864 C 0.61867 0.55328 0.37016 0.0
C3865 C 0.63587 0.54965 0.37214 0.0
C3866 C 0.60859 0.55298 0.38581 0.0
C3867 C 0.61536 0.54935 0.40422 0.0
C3868 C 0.6326 0.54585 0.40637 0.0
H3869 H 0.575 0.55188 0.51835 0.0
H3870 H 0.59167 0.54717 0.4907 0.0
C3871 C 0.64266 0.54589 0.39056 0.0
C3872 C 0.60427 0.54908 0.42088 0.0
H3873 H 0.60242 0.57148 0.46797 0.0
C3874 C 0.58797 0.53594 0.41816 0.0
C3875 C 0.60937 0.56202 0.43921 0.0
C3876 C 0.62624 0.57703 0.44298 0.0
C3877 C 0.57697 0.53517 0.43315 0.0
C3878 C 0.582 0.54823 0.45146 0.0
C3879 C 0.59834 0.56135 0.45414 0.0
C3880 C 0.57071 0.54865 0.46802 0.0
C3881 C 0.56025 0.51995 0.42932 0.0
C3882 C 0.55297 0.55063 0.46491 0.0
C3883 C 0.54326 0.55307 0.48089 0.0
C3884 C 0.55089 0.55343 0.50047 0.0
C3885 C 0.56838 0.55087 0.50344 0.0
C3886 C 0.57809 0.54849 0.48756 0.0
H3887 H 0.56101 0.50777 0.41781 0.0
H3888 H 0.55749 0.51461 0.44304 0.0
H3889 H 0.54898 0.52593 0.42391 0.0
H3890 H 0.54689 0.55135 0.45027 0.0
H3891 H 0.53017 0.55588 0.47807 0.0
H3892 H 0.22174 0.89608 0.12777 0.0
H3893 H 0.22797 0.88328 0.15794 0.0
H3894 H 0.24399 0.83665 0.12352 0.0
H3895 H 0.23817 0.84961 0.09357 0.0
H3896 H 0.21875 0.84882 0.17169 0.0
H3897 H 0.28922 0.86381 0.16132 0.0
H3898 H 0.2726 0.87246 0.14725 0.0
H3899 H 0.27492 0.84836 0.14046 0.0
C3900 C 0.22576 0.88262 0.12652 0.0
C3901 C 0.22927 0.87372 0.10826 0.0
C3902 C 0.22958 0.87545 0.14382 0.0
C3903 C 0.23694 0.85929 0.14308 0.0
C3904 C 0.23873 0.84938 0.12455 0.0
H3905 H 0.2751 0.79942 0.23371 0.0
H3906 H 0.26434 0.80807 0.20231 0.0
C3907 C 0.23508 0.8566 0.10737 0.0
C3908 C 0.24406 0.85359 0.16163 0.0
H3909 H 0.2821 0.84707 0.187 0.0
C3910 C 0.23259 0.84845 0.17502 0.0
C3911 C 0.26222 0.85334 0.16617 0.0
C3912 C 0.27551 0.85997 0.15316 0.0
C3913 C 0.23871 0.84267 0.19254 0.0
C3914 C 0.25673 0.84202 0.19676 0.0
C3915 C 0.26824 0.84729 0.18352 0.0
C3916 C 0.26403 0.83689 0.21544 0.0
C3917 C 0.22595 0.83723 0.2065 0.0
C3918 C 0.26784 0.85037 0.23305 0.0
C3919 C 0.27411 0.84558 0.25089 0.0
C3920 C 0.2767 0.82712 0.25158 0.0
C3921 C 0.27339 0.81377 0.23374 0.0
C3922 C 0.26713 0.81865 0.21581 0.0
H3923 H 0.21207 0.83683 0.20028 0.0
H3924 H 0.22684 0.8231 0.20994 0.0
H3925 H 0.22955 0.84766 0.22065 0.0
H3926 H 0.2657 0.86458 0.23303 0.0
H3927 H 0.27655 0.8563 0.26425 0.0
H3928 H 0.98888 0.60619 0.84964 0.0
H3929 H 1.00051 0.59722 0.88022 0.0
H3930 H 0.96446 0.62408 0.91137 0.0
H3931 H 0.95301 0.63356 0.88093 0.0
H3932 H 1.00063 0.63214 0.93168 0.0
H3933 H 0.97257 0.55496 0.9049 0.0
H3934 H 0.98536 0.56697 0.88883 0.0
H3935 H 0.96478 0.57296 0.89349 0.0
C3936 C 0.98339 0.6102 0.86298 0.0
C3937 C 0.96986 0.62041 0.86278 0.0
C3938 C 0.99006 0.60503 0.88042 0.0
C3939 C 0.98321 0.60982 0.89795 0.0
C3940 C 0.9699 0.62025 0.89794 0.0
H3941 H 0.97826 0.56505 1.00202 0.0
H3942 H 0.97519 0.57554 0.97046 0.0
C3943 C 0.96328 0.62554 0.8805 0.0
C3944 C 0.98964 0.60353 0.91621 0.0
H3945 H 0.98953 0.56403 0.93661 0.0
C3946 C 0.99836 0.61725 0.93278 0.0
C3947 C 0.98659 0.5841 0.9175 0.0
C3948 C 0.97671 0.56884 0.90033 0.0
C3949 C 1.00381 0.61205 0.95082 0.0
C3950 C 1.00053 0.59262 0.95219 0.0
C3951 C 0.99221 0.5789 0.93543 0.0
C3952 C 1.00319 0.58633 0.97144 0.0
C3953 C 0.01232 0.62737 0.9685 0.0
C3954 C 0.02005 0.58883 0.98253 0.0
C3955 C 0.02186 0.58281 1.00082 0.0
C3956 C 1.00683 0.57421 0.0081 0.0
C3957 C 0.9901 0.57165 0.99683 0.0
C3958 C 0.98831 0.5776 0.97874 0.0
H3959 H 1.01161 0.64177 0.96569 0.0
H3960 H 1.00585 0.62498 0.98163 0.0
H3961 H 0.02644 0.62692 0.97211 0.0
H3962 H 0.03173 0.59535 0.97702 0.0
H3963 H 0.03491 0.58493 0.00924 0.0
H3964 H 0.31555 0.19024 0.53478 0.0
H3965 H 0.31734 0.21195 0.56615 0.0
H3966 H 0.26314 0.18733 0.56955 0.0
H3967 H 0.26113 0.16554 0.53827 0.0
H3968 H 0.29389 0.23845 0.57521 0.0
H3969 H 0.29304 0.18405 0.62305 0.0
H3970 H 0.29881 0.18044 0.59836 0.0
H3971 H 0.27607 0.1782 0.60175 0.0
C3972 C 0.30402 0.18938 0.54222 0.0
C3973 C 0.28823 0.17608 0.53409 0.0
C3974 C 0.30507 0.20181 0.56007 0.0
C3975 C 0.29043 0.20099 0.5701 0.0
C3976 C 0.27462 0.18792 0.56202 0.0
H3977 H 0.26168 0.27549 0.66235 0.0
H3978 H 0.26601 0.25791 0.63088 0.0
C3979 C 0.27351 0.17556 0.54414 0.0
C3980 C 0.29161 0.21388 0.58904 0.0
H3981 H 0.28982 0.21445 0.63807 0.0
C3982 C 0.29318 0.23331 0.58903 0.0
C3983 C 0.29083 0.207 0.60691 0.0
C3984 C 0.28974 0.1863 0.60767 0.0
C3985 C 0.29346 0.24606 0.60653 0.0
C3986 C 0.29198 0.23905 0.62427 0.0
C3987 C 0.29095 0.21971 0.62436 0.0
C3988 C 0.29049 0.25127 0.64277 0.0
C3989 C 0.2952 0.26686 0.60588 0.0
C3990 C 0.30279 0.25317 0.6598 0.0
C3991 C 0.30036 0.2632 0.67781 0.0
C3992 C 0.28552 0.27134 0.67899 0.0
C3993 C 0.27342 0.26968 0.66179 0.0
C3994 C 0.27586 0.25967 0.64381 0.0
H3995 H 0.30127 0.27064 0.5929 0.0
H3996 H 0.28186 0.27016 0.60461 0.0
H3997 H 0.30328 0.27589 0.61959 0.0
H3998 H 0.31409 0.24661 0.6592 0.0
H3999 H 0.30995 0.2644 0.69084 0.0
H4000 H 0.63481 0.56028 0.26557 0.0
H4001 H 0.61836 0.56547 0.23525 0.0
H4002 H 0.6044 0.50503 0.2134 0.0
H4003 H 0.61991 0.49979 0.24409 0.0
H4004 H 0.6207 0.55996 0.19837 0.0
H4005 H 0.55672 0.51477 0.20414 0.0
H4006 H 0.57517 0.52032 0.22389 0.0
H4007 H 0.57347 0.50116 0.20327 0.0
C4008 C 0.62824 0.54809 0.25428 0.0
C4009 C 0.62862 0.5296 0.25738 0.0
C4010 C 0.61877 0.55107 0.23691 0.0
C4011 C 0.60956 0.53564 0.22205 0.0
C4012 C 0.61066 0.51722 0.22481 0.0
H4013 H 0.56168 0.52564 0.0997 0.0
H4014 H 0.57705 0.52185 0.13133 0.0
C4015 C 0.61978 0.51422 0.24233 0.0
C4016 C 0.59919 0.53882 0.20359 0.0
H4017 H 0.55951 0.52372 0.17261 0.0
C4018 C 0.60727 0.55211 0.19293 0.0
C4019 C 0.58148 0.52885 0.19634 0.0
C4020 C 0.57116 0.51566 0.20765 0.0
C4021 C 0.59845 0.55521 0.17516 0.0
C4022 C 0.58114 0.54464 0.16758 0.0
C4023 C 0.57289 0.53163 0.17829 0.0
C4024 C 0.57148 0.54687 0.14847 0.0
C4025 C 0.60771 0.56962 0.16436 0.0
C4026 C 0.56303 0.56209 0.14759 0.0
C4027 C 0.55406 0.5642 0.12955 0.0
C4028 C 0.55348 0.55123 0.11191 0.0
C4029 C 0.56191 0.53595 0.1129 0.0
C4030 C 0.5707 0.53374 0.131 0.0
H4031 H 0.62158 0.57585 0.17143 0.0
H4032 H 0.60765 0.56294 0.14875 0.0
H4033 H 0.60046 0.58126 0.16409 0.0
H4034 H 0.56341 0.57237 0.16088 0.0
H4035 H 0.54779 0.57616 0.12938 0.0
H4036 H 0.24223 0.85452 0.01779 0.0
H4037 H 0.24543 0.84111 0.98394 0.0
H4038 H 0.23341 0.89071 0.96402 0.0
H4039 H 0.22999 0.90418 0.99804 0.0
H4040 H 0.2174 0.84788 0.93803 0.0
H4041 H 0.29037 0.87093 0.96015 0.0
H4042 H 0.27737 0.86071 0.97723 0.0
H4043 H 0.27526 0.88339 0.97179 0.0
C4044 C 0.23972 0.86232 0.00609 0.0
C4045 C 0.23566 0.88032 0.01057 0.0
C4046 C 0.24166 0.85468 0.98677 0.0
C4047 C 0.2398 0.86494 0.97146 0.0
C4048 C 0.23482 0.88249 0.97559 0.0
H4049 H 0.28287 0.84931 0.86036 0.0
H4050 H 0.27363 0.86187 0.89165 0.0
C4051 C 0.2327 0.89011 0.995 0.0
C4052 C 0.24451 0.85791 0.9517 0.0
H4053 H 0.28002 0.85298 0.92811 0.0
C4054 C 0.23107 0.84904 0.9358 0.0
C4055 C 0.26235 0.85948 0.94878 0.0
C4056 C 0.27727 0.86919 0.96529 0.0
C4057 C 0.23503 0.84153 0.91713 0.0
C4058 C 0.25291 0.84272 0.91431 0.0
C4059 C 0.26632 0.85189 0.9302 0.0
C4060 C 0.25806 0.83493 0.89495 0.0
C4061 C 0.22 0.83266 0.90049 0.0
C4062 C 0.25256 0.81553 0.8863 0.0
C4063 C 0.25786 0.80835 0.86835 0.0
C4064 C 0.26878 0.82041 0.85878 0.0
C4065 C 0.27432 0.83975 0.86741 0.0
C4066 C 0.26908 0.84691 0.88531 0.0
H4067 H 0.20765 0.83735 0.90336 0.0
H4068 H 0.22335 0.83625 0.88618 0.0
H4069 H 0.21737 0.817 0.89905 0.0
H4070 H 0.24441 0.80587 0.89358 0.0
H4071 H 0.25356 0.79336 0.86206 0.0
H4072 H 0.97373 0.58164 0.76407 0.0
H4073 H 0.98488 0.57445 0.73289 0.0
H4074 H 0.96397 0.61931 0.71181 0.0
H4075 H 0.95308 0.62698 0.74334 0.0
H4076 H 0.96683 0.56317 0.69559 0.0
H4077 H 0.01495 0.63149 0.70189 0.0
H4078 H 1.00461 0.62486 0.72252 0.0
H4079 H 0.9927 0.63391 0.7037 0.0
C4080 C 0.97146 0.59 0.75283 0.0
C4081 C 0.96254 0.60491 0.75619 0.0
C4082 C 0.97787 0.58588 0.73503 0.0
C4083 C 0.97549 0.59654 0.7202 0.0
C4084 C 0.96629 0.6112 0.72328 0.0
H4085 H 0.99148 0.57758 0.5985 0.0
H4086 H 0.98154 0.58625 0.63021 0.0
C4087 C 0.95994 0.61544 0.74121 0.0
C4088 C 0.98232 0.59182 0.70139 0.0
H4089 H 1.0106 0.60964 0.67145 0.0
C4090 C 0.97645 0.57331 0.69036 0.0
C4091 C 0.99495 0.60508 0.6947 0.0
C4092 C 1.00232 0.6249 0.70639 0.0
C4093 C 0.98275 0.56776 0.67268 0.0
C4094 C 0.99515 0.58106 0.66594 0.0
C4095 C 1.00108 0.59955 0.67686 0.0
C4096 C 1.00159 0.57612 0.64709 0.0
C4097 C 0.97611 0.54778 0.66113 0.0
C4098 C 0.01617 0.56761 0.64635 0.0
C4099 C 0.02194 0.5626 0.62824 0.0
C4100 C 0.0131 0.566 0.61073 0.0
C4101 C 0.99851 0.57463 0.61169 0.0
C4102 C 0.99283 0.57968 0.62975 0.0
H4103 H 0.96627 0.53915 0.66831 0.0
H4104 H 0.96995 0.54815 0.64595 0.0
H4105 H 0.98739 0.54071 0.65967 0.0
H4106 H 0.02301 0.56479 0.65973 0.0
H4107 H 0.03323 0.55602 0.62796 0.0
H4108 H 0.25044 0.18578 0.4578 0.0
H4109 H 0.25077 0.21438 0.44313 0.0
H4110 H 0.29776 0.20633 0.41867 0.0
H4111 H 0.2976 0.17804 0.43314 0.0
H4112 H 0.2877 0.24804 0.44881 0.0
H4113 H 0.25482 0.21066 0.37312 0.0
H4114 H 0.25035 0.20129 0.39512 0.0
H4115 H 0.27066 0.19999 0.38574 0.0
C4116 C 0.26064 0.19 0.44901 0.0
C4117 C 0.27398 0.17976 0.44651 0.0
C4118 C 0.26091 0.20635 0.44089 0.0
C4119 C 0.27438 0.21234 0.43008 0.0
C4120 C 0.28737 0.20186 0.42714 0.0
H4121 H 0.30897 0.28221 0.35384 0.0
H4122 H 0.30883 0.26545 0.38167 0.0
C4123 C 0.2872 0.18571 0.43531 0.0
C4124 C 0.2751 0.22939 0.42139 0.0
H4125 H 0.27012 0.24262 0.37653 0.0
C4126 C 0.28351 0.24707 0.43311 0.0
C4127 C 0.2698 0.22777 0.40092 0.0
C4128 C 0.2608 0.20894 0.38791 0.0
C4129 C 0.28744 0.26321 0.4245 0.0
C4130 C 0.28278 0.26136 0.4039 0.0
C4131 C 0.27371 0.24383 0.39239 0.0
C4132 C 0.28779 0.27697 0.39335 0.0
C4133 C 0.29723 0.2819 0.43709 0.0
C4134 C 0.27688 0.28996 0.39176 0.0
C4135 C 0.27717 0.29978 0.37604 0.0
C4136 C 0.28818 0.29633 0.36185 0.0
C4137 C 0.30056 0.28516 0.36487 0.0
C4138 C 0.30045 0.27558 0.38068 0.0
H4139 H 0.30018 0.28093 0.45295 0.0
H4140 H 0.30984 0.28678 0.43158 0.0
H4141 H 0.28923 0.29278 0.43583 0.0
H4142 H 0.26688 0.29092 0.4013 0.0
H4143 H 0.26731 0.3081 0.37362 0.0
H4144 H 0.37465 0.65748 0.57639 0.0
H4145 H 0.39669 0.63811 0.57234 0.0
H4146 H 0.41794 0.67082 0.53058 0.0
H4147 H 0.39625 0.69066 0.53509 0.0
H4148 H 0.40042 0.61522 0.53982 0.0
H4149 H 0.46278 0.6695 0.56387 0.0
H4150 H 0.4416 0.67449 0.56797 0.0
H4151 H 0.44859 0.67456 0.54407 0.0
C4152 C 0.38432 0.66091 0.56675 0.0
C4153 C 0.3838 0.67584 0.55629 0.0
C4154 C 0.39686 0.64968 0.56431 0.0
C4155 C 0.4092 0.65302 0.55131 0.0
C4156 C 0.40894 0.66818 0.54111 0.0
H4157 H 0.49469 0.59905 0.51821 0.0
H4158 H 0.4718 0.61766 0.51985 0.0
C4159 C 0.3965 0.67958 0.54372 0.0
C4160 C 0.42164 0.64001 0.54776 0.0
H4161 H 0.46534 0.63884 0.54909 0.0
C4162 C 0.41464 0.62039 0.54189 0.0
C4163 C 0.4402 0.64666 0.55029 0.0
C4164 C 0.44877 0.66743 0.55707 0.0
C4165 C 0.42554 0.60733 0.5382 0.0
C4166 C 0.44416 0.61395 0.54094 0.0
C4167 C 0.45113 0.63361 0.54683 0.0
C4168 C 0.45675 0.60097 0.5379 0.0
C4169 C 0.41682 0.58667 0.53086 0.0
C4170 C 0.45589 0.58496 0.54701 0.0
C4171 C 0.4686 0.57381 0.54529 0.0
C4172 C 0.48278 0.57876 0.53497 0.0
C4173 C 0.48363 0.59462 0.52578 0.0
C4174 C 0.47065 0.60542 0.52698 0.0
H4175 H 0.40317 0.58498 0.52308 0.0
H4176 H 0.42444 0.57949 0.5206 0.0
H4177 H 0.41584 0.5794 0.54372 0.0
H4178 H 0.44587 0.58153 0.55623 0.0
H4179 H 0.46804 0.56212 0.55321 0.0
H4180 H 0.83798 0.01409 0.58933 0.0
H4181 H 0.86624 0.02078 0.5768 0.0
H4182 H 0.89386 0.01886 0.63399 0.0
H4183 H 0.86566 0.01108 0.64613 0.0
H4184 H 0.8945 0.0484 0.58652 0.0
H4185 H 0.91365 0.98185 0.59979 0.0
H4186 H 0.89192 0.98602 0.60226 0.0
H4187 H 0.91005 0.99569 0.62217 0.0
C4188 C 0.85013 0.01519 0.59919 0.0
C4189 C 0.84976 0.012 0.61862 0.0
C4190 C 0.86622 0.01896 0.59204 0.0
C4191 C 0.88211 0.01984 0.60433 0.0
C4192 C 0.88173 0.01758 0.62405 0.0
H4193 H 0.99194 0.05305 0.59201 0.0
H4194 H 0.96298 0.0499 0.60317 0.0
C4195 C 0.86566 0.01334 0.63102 0.0
C4196 C 0.89907 0.02306 0.59653 0.0
H4197 H 0.93618 1.00548 0.59207 0.0
C4198 C 0.90355 0.03895 0.58762 0.0
C4199 C 0.91079 0.01057 0.5978 0.0
C4200 C 0.90627 0.99248 0.60583 0.0
C4201 C 0.91962 0.04286 0.5803 0.0
C4202 C 0.93145 0.03073 0.58221 0.0
C4203 C 0.927 0.0148 0.59091 0.0
C4204 C 0.94852 0.0341 0.57498 0.0
C4205 C 0.92398 0.05987 0.57057 0.0
C4206 C 0.94972 0.02625 0.55547 0.0
C4207 C 0.96619 0.02787 0.54911 0.0
C4208 C 0.98157 0.03732 0.56224 0.0
C4209 C 0.98025 0.04558 0.58165 0.0
C4210 C 0.96379 0.04388 0.58802 0.0
H4211 H 0.91348 0.06819 0.57061 0.0
H4212 H 0.93665 0.06925 0.57834 0.0
H4213 H 0.92577 0.0551 0.555 0.0
H4214 H 0.93797 0.01859 0.54533 0.0
H4215 H 0.96689 0.02155 0.53402 0.0
H4216 H 0.8539 0.12351 0.32548 0.0
H4217 H 0.84266 0.15216 0.32508 0.0
H4218 H 0.86171 0.15782 0.26988 0.0
H4219 H 0.87328 0.12872 0.27018 0.0
H4220 H 0.8596 0.18833 0.32682 0.0
H4221 H 0.81162 0.16556 0.25732 0.0
H4222 H 0.82173 0.14903 0.26888 0.0
H4223 H 0.83392 0.16389 0.25454 0.0
C4224 C 0.85562 0.13053 0.31297 0.0
C4225 C 0.86451 0.12328 0.29771 0.0
C4226 C 0.84916 0.1472 0.31287 0.0
C4227 C 0.85104 0.15743 0.29742 0.0
C4228 C 0.85968 0.15022 0.28191 0.0
H4229 H 0.8352 0.27546 0.30514 0.0
H4230 H 0.84742 0.24678 0.30195 0.0
C4231 C 0.86634 0.13344 0.28206 0.0
C4232 C 0.84429 0.1757 0.29821 0.0
H4233 H 0.81514 0.1973 0.27395 0.0
C4234 C 0.84997 0.19025 0.31512 0.0
C4235 C 0.83147 0.17846 0.28324 0.0
C4236 C 0.82416 0.16339 0.26503 0.0
C4237 C 0.84342 0.20715 0.31736 0.0
C4238 C 0.83072 0.20993 0.30235 0.0
C4239 C 0.82493 0.19541 0.28549 0.0
C4240 C 0.82314 0.22765 0.30419 0.0
C4241 C 0.84976 0.22178 0.33612 0.0
C4242 C 0.80528 0.22678 0.30636 0.0
C4243 C 0.79822 0.24328 0.30826 0.0
C4244 C 0.80877 0.26126 0.30799 0.0
C4245 C 0.82664 0.26207 0.30575 0.0
C4246 C 0.83368 0.24556 0.30386 0.0
H4247 H 0.8579 0.21659 0.34744 0.0
H4248 H 0.85786 0.23475 0.33267 0.0
H4249 H 0.8383 0.22584 0.34251 0.0
H4250 H 0.79676 0.21329 0.30672 0.0
H4251 H 0.78441 0.2419 0.30986 0.0
H4252 H 0.78465 0.18088 0.06167 0.0
H4253 H 0.75404 0.16623 0.06304 0.0
H4254 H 0.74904 0.13511 1.00343 0.0
H4255 H 0.77979 0.14963 1.00189 0.0
H4256 H 0.72221 0.16619 0.03607 0.0
H4257 H 0.73565 0.09445 0.03865 0.0
H4258 H 0.75299 0.11568 0.04403 0.0
H4259 H 0.74317 0.10559 0.01888 0.0
C4260 C 0.77706 0.17097 0.0488 0.0
C4261 C 0.78464 0.16628 0.0317 0.0
C4262 C 0.75958 0.16268 0.04962 0.0
C4263 C 0.74948 0.14953 0.03341 0.0
C4264 C 0.75681 0.14512 0.01614 0.0
H4265 H 0.64565 0.07698 0.02668 0.0
H4266 H 0.67352 0.09316 0.01812 0.0
C4267 C 0.77431 0.15344 0.01528 0.0
C4268 C 0.73137 0.14015 0.03488 0.0
H4269 H 0.7063 0.09773 0.03908 0.0
C4270 C 0.71863 0.1512 0.0366 0.0
C4271 C 0.72692 0.12062 0.03555 0.0
C4272 C 0.74038 0.10834 0.03433 0.0
C4273 C 0.7014 0.14318 0.03906 0.0
C4274 C 0.69705 0.12374 0.04023 0.0
C4275 C 0.70973 0.11262 0.03811 0.0
C4276 C 0.67974 0.11479 0.04472 0.0
C4277 C 0.68804 0.15557 0.04032 0.0
C4278 C 0.67419 0.12157 0.06256 0.0
C4279 C 0.65835 0.11241 0.06744 0.0
C4280 C 0.64794 0.09617 0.05468 0.0
C4281 C 0.65353 0.08939 0.03682 0.0
C4282 C 0.66934 0.09864 0.03188 0.0
H4283 H 0.69165 0.16794 0.033 0.0
H4284 H 0.6746 0.14746 0.03338 0.0
H4285 H 0.68763 0.16112 0.05613 0.0
H4286 H 0.68231 0.13369 0.07292 0.0
H4287 H 0.65445 0.11774 0.08144 0.0
H4288 H 0.15473 0.44183 0.3345 0.0
H4289 H 0.17652 0.422 0.33308 0.0
H4290 H 0.19995 0.45143 0.29006 0.0
H4291 H 0.1778 0.47144 0.29131 0.0
H4292 H 0.18545 0.3996 0.29434 0.0
H4293 H 0.23911 0.45523 0.34289 0.0
H4294 H 0.2161 0.45523 0.34403 0.0
H4295 H 0.2256 0.46128 0.32291 0.0
C4296 C 0.16433 0.44383 0.32446 0.0
C4297 C 0.16464 0.45798 0.3129 0.0
C4298 C 0.17676 0.4326 0.32374 0.0
C4299 C 0.18982 0.4355 0.31164 0.0
C4300 C 0.1899 0.44918 0.29953 0.0
H4301 H 0.27998 0.38106 0.31635 0.0
H4302 H 0.26115 0.40385 0.31232 0.0
C4303 C 0.17724 0.46038 0.30008 0.0
C4304 C 0.20337 0.42415 0.31219 0.0
H4305 H 0.24442 0.42451 0.33542 0.0
C4306 C 0.19848 0.40504 0.303 0.0
C4307 C 0.22019 0.43144 0.32367 0.0
C4308 C 0.2257 0.45192 0.33404 0.0
C4309 C 0.20999 0.39281 0.30517 0.0
C4310 C 0.22658 0.39984 0.31744 0.0
C4311 C 0.23167 0.41916 0.32614 0.0
C4312 C 0.2386 0.38723 0.32178 0.0
C4313 C 0.20414 0.3725 0.29429 0.0
C4314 C 0.23244 0.37091 0.32936 0.0
C4315 C 0.24292 0.35769 0.33109 0.0
C4316 C 0.26004 0.36117 0.32625 0.0
C4317 C 0.26682 0.37826 0.32033 0.0
C4318 C 0.25607 0.39118 0.31793 0.0
H4319 H 0.19437 0.37122 0.28085 0.0
H4320 H 0.2155 0.3667 0.28975 0.0
H4321 H 0.19758 0.36371 0.30413 0.0
H4322 H 0.2193 0.3682 0.33333 0.0
H4323 H 0.23755 0.34458 0.33577 0.0
H4324 H 0.24786 0.50006 0.12885 0.0
H4325 H 0.21954 0.50563 0.11438 0.0
H4326 H 0.23503 0.49733 0.0563 0.0
H4327 H 0.2633 0.49179 0.07049 0.0
H4328 H 0.22357 0.53652 0.07977 0.0
H4329 H 0.17819 0.46506 0.06463 0.0
H4330 H 0.19496 0.47213 0.08631 0.0
H4331 H 0.20133 0.46772 0.06223 0.0
C4332 C 0.2451 0.49913 0.11297 0.0
C4333 C 0.25779 0.49571 0.1008 0.0
C4334 C 0.22898 0.50227 0.10477 0.0
C4335 C 0.22539 0.50177 0.08437 0.0
C4336 C 0.2377 0.49765 0.07209 0.0
H4337 H 0.14119 0.53662 0.01467 0.0
H4338 H 0.16716 0.52367 0.02404 0.0
C4339 C 0.25382 0.49462 0.08025 0.0
C4340 C 0.20958 0.50746 0.07609 0.0
H4341 H 0.16599 0.49082 0.05735 0.0
C4342 C 0.21098 0.52657 0.07473 0.0
C4343 C 0.19339 0.49427 0.06955 0.0
C4344 C 0.1917 0.47359 0.07066 0.0
C4345 C 0.1963 0.53298 0.06723 0.0
C4346 C 0.18001 0.51988 0.06103 0.0
C4347 C 0.17865 0.50069 0.06208 0.0
C4348 C 0.16398 0.52634 0.05495 0.0
C4349 C 0.19807 0.55375 0.06641 0.0
C4350 C 0.15385 0.53188 0.06933 0.0
C4351 C 0.13919 0.53922 0.06408 0.0
C4352 C 0.13457 0.54114 0.04439 0.0
C4353 C 0.14466 0.53537 0.02995 0.0
C4354 C 0.15932 0.52791 0.03522 0.0
H4355 H 0.21194 0.5619 0.07079 0.0
H4356 H 0.19323 0.5554 0.05118 0.0
H4357 H 0.18973 0.55996 0.07649 0.0
H4358 H 0.15749 0.53085 0.08465 0.0
H4359 H 0.1317 0.54378 0.0755 0.0
H4360 H 0.84198 0.02589 0.31285 0.0
H4361 H 0.82963 0.99211 0.31117 0.0
H4362 H 0.87069 0.97763 0.27904 0.0
H4363 H 0.88301 0.01161 0.28035 0.0
H4364 H 0.81875 0.95902 0.27501 0.0
H4365 H 0.87308 0.95192 0.3309 0.0
H4366 H 0.8678 0.97464 0.32905 0.0
H4367 H 0.87887 0.96349 0.31072 0.0
C4368 C 0.84827 0.01558 0.30506 0.0
C4369 C 0.86351 0.02177 0.29659 0.0
C4370 C 0.84116 0.99613 0.30418 0.0
C4371 C 0.84919 0.98203 0.29514 0.0
C4372 C 0.86418 0.98806 0.28621 0.0
H4373 H 0.83451 0.86038 0.30136 0.0
H4374 H 0.84504 0.89302 0.29719 0.0
C4375 C 0.87115 1.00759 0.2868 0.0
C4376 C 0.84214 0.96126 0.29569 0.0
H4377 H 0.85069 0.92479 0.3183 0.0
C4378 C 0.82578 0.95152 0.28443 0.0
C4379 C 0.85117 0.95118 0.30785 0.0
C4380 C 0.86867 0.96074 0.32045 0.0
C4381 C 0.81846 0.93218 0.2847 0.0
C4382 C 0.82724 0.92214 0.29733 0.0
C4383 C 0.84366 0.93203 0.30858 0.0
C4384 C 0.82005 0.90146 0.29888 0.0
C4385 C 0.80165 0.92264 0.27076 0.0
C4386 C 0.80227 0.89451 0.30116 0.0
C4387 C 0.79604 0.87539 0.30301 0.0
C4388 C 0.80747 0.86266 0.30326 0.0
C4389 C 0.8252 0.86962 0.30115 0.0
C4390 C 0.83132 0.88851 0.29888 0.0
H4391 H 0.80013 0.92967 0.25776 0.0
H4392 H 0.80132 0.90743 0.26527 0.0
H4393 H 0.79017 0.92371 0.27861 0.0
H4394 H 0.79319 0.90396 0.30203 0.0
H4395 H 0.7824 0.87079 0.30496 0.0
H4396 H 0.64914 0.04885 0.8011 0.0
H4397 H 0.66702 0.0793 0.79797 0.0
H4398 H 0.70126 0.08028 0.85185 0.0
H4399 H 0.68345 0.04978 0.85523 0.0
H4400 H 0.67597 0.11518 0.8289 0.0
H4401 H 0.73363 0.08676 0.80692 0.0
H4402 H 0.7118 0.07188 0.80425 0.0
H4403 H 0.72488 0.07987 0.8283 0.0
C4404 C 0.66049 0.05548 0.81229 0.0
C4405 C 0.66491 0.04684 0.82839 0.0
C4406 C 0.67063 0.0729 0.81049 0.0
C4407 C 0.68545 0.08186 0.82461 0.0
C4408 C 0.68989 0.07342 0.84075 0.0
H4409 H 0.76459 0.18469 0.8278 0.0
H4410 H 0.74755 0.15568 0.83558 0.0
C4411 C 0.67968 0.05605 0.84267 0.0
C4412 C 0.6963 0.10004 0.82232 0.0
H4413 H 0.73594 0.11974 0.81008 0.0
C4414 C 0.6891 0.11625 0.82484 0.0
C4415 C 0.71341 0.10125 0.81712 0.0
C4416 C 0.72144 0.08404 0.81384 0.0
C4417 C 0.69865 0.13378 0.82224 0.0
C4418 C 0.71561 0.13491 0.81658 0.0
C4419 C 0.72291 0.11875 0.81441 0.0
C4420 C 0.72574 0.15258 0.81211 0.0
C4421 C 0.69058 0.15097 0.82569 0.0
C4422 C 0.71917 0.16018 0.79617 0.0
C4423 C 0.72892 0.1766 0.79157 0.0
C4424 C 0.74545 0.18566 0.8028 0.0
C4425 C 0.75202 0.17791 0.81871 0.0
C4426 C 0.74226 0.16144 0.82327 0.0
H4427 H 0.67987 0.1489 0.83493 0.0
H4428 H 0.70074 0.1638 0.83305 0.0
H4429 H 0.6848 0.15356 0.81122 0.0
H4430 H 0.7066 0.15327 0.78713 0.0
H4431 H 0.72362 0.18204 0.77903 0.0
loop_
_geom_bond_atom_site_label_1
_geom_bond_atom_site_label_2
_geom_bond_distance
_geom_bond_site_symmetry_2
_ccdc_geom_bond_type
Mg0 O1 2.028 . S
Mg0 O7 1.986 . S
Mg0 O9 2.114 . S
Mg0 O10 2.251 . S
Mg0 O13 2.010 . S
O1 Mg0 2.028 . S
O1 C4 1.250 . S
O2 Mg3 2.028 . S
O2 C4 1.248 . S
Mg3 O2 2.028 . S
Mg3 O8 2.032 . S
Mg3 O10 2.079 . S
C4 O1 1.250 . S
C4 O2 1.248 . S
C5 O6 1.264 . S
C5 O13 1.249 . S
O6 C5 1.264 . S
O7 Mg0 1.986 . S
O7 C11 1.246 . S
O8 Mg3 2.032 . S
O8 C11 1.259 . S
O9 Mg0 2.114 . S
O9 C12 1.252 . S
O10 Mg0 2.251 . S
O10 Mg3 2.079 . S
O10 C12 1.273 . S
C11 O7 1.246 . S
C11 O8 1.259 . S
C12 O9 1.252 . S
C12 O10 1.273 . S
O13 Mg0 2.010 . S
O13 C5 1.249 . S
Mg14 O15 2.028 . S
Mg14 O21 1.986 . S
Mg14 O23 2.114 1_455 S
Mg14 O24 2.251 1_455 S
Mg14 O27 2.010 . S
O15 Mg14 2.028 . S
O15 C18 1.250 1_455 S
O16 Mg17 2.028 . S
O16 C18 1.248 . S
Mg17 O16 2.028 . S
Mg17 O22 2.032 . S
Mg17 O24 2.079 . S
C18 O15 1.250 1_655 S
C18 O16 1.248 . S
C19 O20 1.264 . S
C19 O27 1.249 . S
O20 C19 1.264 . S
O21 Mg14 1.986 . S
O21 C25 1.246 1_455 S
O22 Mg17 2.032 . S
O22 C25 1.259 . S
O23 Mg14 2.114 1_655 S
O23 C26 1.252 . S
O24 Mg14 2.251 1_655 S
O24 Mg17 2.079 . S
O24 C26 1.273 . S
C25 O21 1.246 1_655 S
C25 O22 1.259 . S
C26 O23 1.252 . S
C26 O24 1.273 . S
O27 Mg14 2.010 . S
O27 C19 1.249 . S
Mg28 O29 2.028 . S
Mg28 O35 1.986 . S
Mg28 O37 2.114 . S
Mg28 O38 2.251 . S
Mg28 O41 2.010 . S
O29 Mg28 2.028 . S
O29 C32 1.250 . S
O30 Mg31 2.028 . S
O30 C32 1.248 . S
Mg31 O30 2.028 . S
Mg31 O36 2.032 . S
Mg31 O38 2.079 . S
C32 O29 1.250 . S
C32 O30 1.248 . S
C33 O34 1.264 . S
C33 O41 1.249 . S
O34 C33 1.264 . S
O35 Mg28 1.986 . S
O35 C39 1.246 . S
O36 Mg31 2.032 . S
O36 C39 1.259 . S
O37 Mg28 2.114 . S
O37 C40 1.252 . S
O38 Mg28 2.251 . S
O38 Mg31 2.079 . S
O38 C40 1.273 . S
C39 O35 1.246 . S
C39 O36 1.259 . S
C40 O37 1.252 . S
C40 O38 1.273 . S
O41 Mg28 2.010 . S
O41 C33 1.249 . S
Mg42 O43 2.028 . S
Mg42 O49 1.986 . S
Mg42 O51 2.114 . S
Mg42 O52 2.251 . S
Mg42 O55 2.010 . S
O43 Mg42 2.028 . S
O43 C46 1.250 . S
O44 Mg45 2.028 . S
O44 C46 1.248 . S
Mg45 O44 2.028 . S
Mg45 O50 2.032 . S
Mg45 O52 2.079 . S
C46 O43 1.250 . S
C46 O44 1.248 . S
C47 O48 1.264 . S
C47 O55 1.249 . S
O48 C47 1.264 . S
O49 Mg42 1.986 . S
O49 C53 1.246 . S
O50 Mg45 2.032 . S
O50 C53 1.259 . S
O51 Mg42 2.114 . S
O51 C54 1.252 . S
O52 Mg42 2.251 . S
O52 Mg45 2.079 . S
O52 C54 1.273 . S
C53 O49 1.246 . S
C53 O50 1.259 . S
C54 O51 1.252 . S
C54 O52 1.273 . S
O55 Mg42 2.010 . S
O55 C47 1.249 . S
Mg56 O57 2.028 . S
Mg56 O63 1.986 . S
Mg56 O65 2.114 . S
Mg56 O66 2.251 1_455 S
Mg56 O69 2.010 . S
O57 Mg56 2.028 . S
O57 C60 1.250 . S
O58 Mg59 2.028 . S
O58 C60 1.248 1_655 S
Mg59 O58 2.028 . S
Mg59 O64 2.031 . S
Mg59 O66 2.079 . S
C60 O57 1.250 . S
C60 O58 1.248 1_455 S
C61 O62 1.264 . S
C61 O69 1.249 . S
O62 C61 1.264 . S
O63 Mg56 1.986 . S
O63 C67 1.246 . S
O64 Mg59 2.031 . S
O64 C67 1.261 1_655 S
O65 Mg56 2.114 . S
O65 C68 1.252 1_455 S
O66 Mg56 2.251 1_655 S
O66 Mg59 2.079 . S
O66 C68 1.273 . S
C67 O63 1.246 . S
C67 O64 1.261 1_455 S
C68 O65 1.252 1_655 S
C68 O66 1.273 . S
O69 Mg56 2.010 . S
O69 C61 1.249 . S
Mg70 O71 2.028 . S
Mg70 O77 1.986 . S
Mg70 O79 2.114 . S
Mg70 O80 2.251 . S
Mg70 O83 2.010 . S
O71 Mg70 2.028 . S
O71 C74 1.250 . S
O72 Mg73 2.028 . S
O72 C74 1.248 . S
Mg73 O72 2.028 . S
Mg73 O78 2.032 . S
Mg73 O80 2.079 . S
C74 O71 1.250 . S
C74 O72 1.248 . S
C75 O76 1.264 . S
C75 O83 1.249 . S
O76 C75 1.264 . S
O77 Mg70 1.986 . S
O77 C81 1.246 . S
O78 Mg73 2.032 . S
O78 C81 1.259 . S
O79 Mg70 2.114 . S
O79 C82 1.252 . S
O80 Mg70 2.251 . S
O80 Mg73 2.079 . S
O80 C82 1.273 . S
C81 O77 1.246 . S
C81 O78 1.259 . S
C82 O79 1.252 . S
C82 O80 1.273 . S
O83 Mg70 2.010 . S
O83 C75 1.249 . S
Mg84 O85 2.028 . S
Mg84 O91 1.986 . S
Mg84 O93 2.114 . S
Mg84 O94 2.251 . S
Mg84 O97 2.010 . S
O85 Mg84 2.028 . S
O85 C88 1.250 . S
O86 Mg87 2.028 . S
O86 C88 1.248 . S
Mg87 O86 2.028 . S
Mg87 O92 2.032 . S
Mg87 O94 2.079 . S
C88 O85 1.250 . S
C88 O86 1.248 . S
C89 O90 1.264 . S
C89 O97 1.249 . S
O90 C89 1.264 . S
O91 Mg84 1.986 . S
O91 C95 1.246 . S
O92 Mg87 2.032 . S
O92 C95 1.259 . S
O93 Mg84 2.114 . S
O93 C96 1.252 . S
O94 Mg84 2.251 . S
O94 Mg87 2.079 . S
O94 C96 1.273 . S
C95 O91 1.246 . S
C95 O92 1.259 . S
C96 O93 1.252 . S
C96 O94 1.273 . S
O97 Mg84 2.010 . S
O97 C89 1.249 . S
Mg98 O99 2.028 . S
Mg98 O105 1.986 . S
Mg98 O107 2.114 . S
Mg98 O108 2.251 1_455 S
Mg98 O111 2.010 . S
O99 Mg98 2.028 . S
O99 C102 1.250 . S
O100 Mg101 2.028 1_455 S
O100 C102 1.248 . S
Mg101 O100 2.028 1_655 S
Mg101 O106 2.032 1_655 S
Mg101 O108 2.079 . S
C102 O99 1.250 . S
C102 O100 1.248 . S
C103 O104 1.264 . S
C103 O111 1.249 . S
O104 C103 1.264 . S
O105 Mg98 1.986 . S
O105 C109 1.246 . S
O106 Mg101 2.032 1_455 S
O106 C109 1.259 . S
O107 Mg98 2.114 . S
O107 C110 1.252 1_455 S
O108 Mg98 2.251 1_655 S
O108 Mg101 2.079 . S
O108 C110 1.273 . S
C109 O105 1.246 . S
C109 O106 1.259 . S
C110 O107 1.252 1_655 S
C110 O108 1.273 . S
O111 Mg98 2.010 . S
O111 C103 1.249 . S
Mg112 O113 2.028 . S
Mg112 O119 1.986 . S
Mg112 O121 2.114 . S
Mg112 O122 2.251 . S
Mg112 O125 2.010 . S
O113 Mg112 2.028 . S
O113 C116 1.250 . S
O114 Mg115 2.028 . S
O114 C116 1.248 . S
Mg115 O114 2.028 . S
Mg115 O120 2.032 . S
Mg115 O122 2.079 . S
C116 O113 1.250 . S
C116 O114 1.248 . S
C117 O118 1.264 . S
C117 O125 1.249 . S
O118 C117 1.264 . S
O119 Mg112 1.986 . S
O119 C123 1.246 . S
O120 Mg115 2.032 . S
O120 C123 1.259 . S
O121 Mg112 2.114 . S
O121 C124 1.252 . S
O122 Mg112 2.251 . S
O122 Mg115 2.079 . S
O122 C124 1.273 . S
C123 O119 1.246 . S
C123 O120 1.259 . S
C124 O121 1.252 . S
C124 O122 1.273 . S
O125 Mg112 2.010 . S
O125 C117 1.249 . S
Mg126 O127 2.028 . S
Mg126 O133 1.986 . S
Mg126 O135 2.114 . S
Mg126 O136 2.251 . S
Mg126 O139 2.010 . S
O127 Mg126 2.028 . S
O127 C130 1.250 . S
O128 Mg129 2.028 . S
O128 C130 1.248 . S
Mg129 O128 2.028 . S
Mg129 O134 2.032 . S
Mg129 O136 2.079 . S
C130 O127 1.250 . S
C130 O128 1.248 . S
C131 O132 1.264 . S
C131 O139 1.249 . S
O132 C131 1.264 . S
O133 Mg126 1.986 . S
O133 C137 1.246 . S
O134 Mg129 2.032 . S
O134 C137 1.259 . S
O135 Mg126 2.114 . S
O135 C138 1.252 . S
O136 Mg126 2.251 . S
O136 Mg129 2.079 . S
O136 C138 1.273 . S
C137 O133 1.246 . S
C137 O134 1.259 . S
C138 O135 1.252 . S
C138 O136 1.273 . S
O139 Mg126 2.010 . S
O139 C131 1.249 . S
Mg140 O141 2.028 . S
Mg140 O147 1.986 . S
Mg140 O149 2.114 . S
Mg140 O150 2.251 . S
Mg140 O153 2.010 . S
O141 Mg140 2.028 . S
O141 C144 1.250 . S
O142 Mg143 2.028 . S
O142 C144 1.248 . S
Mg143 O142 2.028 . S
Mg143 O148 2.032 . S
Mg143 O150 2.079 . S
C144 O141 1.250 . S
C144 O142 1.248 . S
C145 O146 1.264 . S
C145 O153 1.249 . S
O146 C145 1.264 . S
O147 Mg140 1.986 . S
O147 C151 1.270 . S
O148 Mg143 2.032 . S
O148 C151 1.278 . S
O149 Mg140 2.114 . S
O149 C152 1.252 . S
O150 Mg140 2.251 . S
O150 Mg143 2.079 . S
O150 C152 1.273 . S
C151 O147 1.270 . S
C151 O148 1.278 . S
C152 O149 1.252 . S
C152 O150 1.273 . S
O153 Mg140 2.010 . S
O153 C145 1.249 . S
Mg154 O155 2.028 . S
Mg154 O161 1.986 . S
Mg154 O163 2.114 . S
Mg154 O164 2.251 . S
Mg154 O167 2.010 . S
O155 Mg154 2.028 . S
O155 C158 1.250 . S
O156 Mg157 2.028 . S
O156 C158 1.248 . S
Mg157 O156 2.028 . S
Mg157 O162 2.032 . S
Mg157 O164 2.079 . S
C158 O155 1.250 . S
C158 O156 1.248 . S
C159 O160 1.264 . S
C159 O167 1.249 . S
O160 C159 1.264 . S
O161 Mg154 1.986 . S
O161 C165 1.246 . S
O162 Mg157 2.032 . S
O162 C165 1.259 . S
O163 Mg154 2.114 . S
O163 C166 1.252 . S
O164 Mg154 2.251 . S
O164 Mg157 2.079 . S
O164 C166 1.273 . S
C165 O161 1.246 . S
C165 O162 1.259 . S
C166 O163 1.252 . S
C166 O164 1.273 . S
O167 Mg154 2.010 . S
O167 C159 1.249 . S
Mg168 O169 2.028 . S
Mg168 O175 1.986 . S
Mg168 O177 2.114 . S
Mg168 O178 2.251 . S
Mg168 O181 2.010 . S
O169 Mg168 2.028 . S
O169 C172 1.250 . S
O170 Mg171 2.028 . S
O170 C172 1.248 . S
Mg171 O170 2.028 . S
Mg171 O176 2.032 . S
Mg171 O178 2.079 . S
C172 O169 1.250 . S
C172 O170 1.248 . S
C173 O174 1.264 . S
C173 O181 1.249 . S
O174 C173 1.264 . S
O175 Mg168 1.986 . S
O175 C179 1.246 . S
O176 Mg171 2.032 . S
O176 C179 1.259 . S
O177 Mg168 2.114 . S
O177 C180 1.252 . S
O178 Mg168 2.251 . S
O178 Mg171 2.079 . S
O178 C180 1.273 . S
C179 O175 1.246 . S
C179 O176 1.259 . S
C180 O177 1.252 . S
C180 O178 1.273 . S
O181 Mg168 2.010 . S
O181 C173 1.249 . S
Mg182 O183 2.028 . S
Mg182 O189 1.986 . S
Mg182 O191 2.114 . S
Mg182 O192 2.251 . S
Mg182 O195 2.010 . S
O183 Mg182 2.028 . S
O183 C186 1.250 . S
O184 Mg185 2.028 . S
O184 C186 1.248 . S
Mg185 O184 2.028 . S
Mg185 O190 2.032 . S
Mg185 O192 2.079 . S
C186 O183 1.250 . S
C186 O184 1.248 . S
C187 O188 1.264 . S
C187 O195 1.249 . S
O188 C187 1.264 . S
O189 Mg182 1.986 . S
O189 C193 1.246 . S
O190 Mg185 2.032 . S
O190 C193 1.259 . S
O191 Mg182 2.114 . S
O191 C194 1.252 . S
O192 Mg182 2.251 . S
O192 Mg185 2.079 . S
O192 C194 1.273 . S
C193 O189 1.246 . S
C193 O190 1.259 . S
C194 O191 1.252 . S
C194 O192 1.273 . S
O195 Mg182 2.010 . S
O195 C187 1.249 . S
Mg196 O197 2.028 . S
Mg196 O203 1.986 . S
Mg196 O205 2.114 . S
Mg196 O206 2.251 . S
Mg196 O209 2.010 . S
O197 Mg196 2.028 . S
O197 C200 1.250 . S
O198 Mg199 2.028 . S
O198 C200 1.248 . S
Mg199 O198 2.028 . S
Mg199 O204 2.032 . S
Mg199 O206 2.079 . S
C200 O197 1.250 . S
C200 O198 1.248 . S
C201 O202 1.264 . S
C201 O209 1.249 . S
O202 C201 1.264 . S
O203 Mg196 1.986 . S
O203 C207 1.246 . S
O204 Mg199 2.032 . S
O204 C207 1.259 . S
O205 Mg196 2.114 . S
O205 C208 1.252 . S
O206 Mg196 2.251 . S
O206 Mg199 2.079 . S
O206 C208 1.273 . S
C207 O203 1.246 . S
C207 O204 1.259 . S
C208 O205 1.252 . S
C208 O206 1.273 . S
O209 Mg196 2.010 . S
O209 C201 1.249 . S
Mg210 O211 2.028 . S
Mg210 O217 1.986 . S
Mg210 O219 2.114 . S
Mg210 O220 2.251 . S
Mg210 O223 2.010 . S
O211 Mg210 2.028 . S
O211 C214 1.250 . S
O212 Mg213 2.028 . S
O212 C214 1.248 . S
Mg213 O212 2.028 . S
Mg213 O218 2.032 . S
Mg213 O220 2.079 . S
C214 O211 1.250 . S
C214 O212 1.248 . S
C215 O216 1.264 1_565 S
C215 O223 1.249 . S
O216 C215 1.264 1_545 S
O217 Mg210 1.986 . S
O217 C221 1.246 . S
O218 Mg213 2.032 . S
O218 C221 1.259 . S
O219 Mg210 2.114 . S
O219 C222 1.252 . S
O220 Mg210 2.251 . S
O220 Mg213 2.079 . S
O220 C222 1.273 . S
C221 O217 1.246 . S
C221 O218 1.259 . S
C222 O219 1.252 . S
C222 O220 1.273 . S
O223 Mg210 2.010 . S
O223 C215 1.249 . S
Mg224 O225 2.028 . S
Mg224 O231 1.986 . S
Mg224 O233 2.114 . S
Mg224 O234 2.251 . S
Mg224 O237 2.010 . S
O225 Mg224 2.028 . S
O225 C228 1.250 . S
O226 Mg227 2.028 . S
O226 C228 1.248 . S
Mg227 O226 2.028 . S
Mg227 O232 2.032 . S
Mg227 O234 2.079 . S
C228 O225 1.250 . S
C228 O226 1.248 . S
C229 O230 1.264 . S
C229 O237 1.249 . S
O230 C229 1.264 . S
O231 Mg224 1.986 . S
O231 C235 1.246 . S
O232 Mg227 2.032 . S
O232 C235 1.259 . S
O233 Mg224 2.114 . S
O233 C236 1.252 . S
O234 Mg224 2.251 . S
O234 Mg227 2.079 . S
O234 C236 1.273 . S
C235 O231 1.246 . S
C235 O232 1.259 . S
C236 O233 1.252 . S
C236 O234 1.273 . S
O237 Mg224 2.010 . S
O237 C229 1.249 . S
Mg238 O239 2.028 . S
Mg238 O245 1.986 . S
Mg238 O247 2.114 . S
Mg238 O248 2.251 . S
Mg238 O251 2.010 . S
O239 Mg238 2.028 . S
O239 C242 1.250 . S
O240 Mg241 2.028 . S
O240 C242 1.248 . S
Mg241 O240 2.028 . S
Mg241 O246 2.032 . S
Mg241 O248 2.079 . S
C242 O239 1.250 . S
C242 O240 1.248 . S
C243 O244 1.264 . S
C243 O251 1.249 . S
O244 C243 1.264 . S
O245 Mg238 1.986 . S
O245 C249 1.246 . S
O246 Mg241 2.032 . S
O246 C249 1.259 . S
O247 Mg238 2.114 . S
O247 C250 1.252 . S
O248 Mg238 2.251 . S
O248 Mg241 2.079 . S
O248 C250 1.273 . S
C249 O245 1.246 . S
C249 O246 1.259 . S
C250 O247 1.252 . S
C250 O248 1.273 . S
O251 Mg238 2.010 . S
O251 C243 1.249 . S
Mg252 O253 2.028 . S
Mg252 O259 1.986 . S
Mg252 O261 2.114 . S
Mg252 O262 2.251 . S
Mg252 O265 2.010 . S
O253 Mg252 2.028 . S
O253 C256 1.250 . S
O254 Mg255 2.028 . S
O254 C256 1.248 . S
Mg255 O254 2.028 . S
Mg255 O260 2.032 . S
Mg255 O262 2.079 . S
C256 O253 1.250 . S
C256 O254 1.248 . S
C257 O258 1.264 . S
C257 O265 1.249 . S
O258 C257 1.264 . S
O259 Mg252 1.986 . S
O259 C263 1.246 . S
O260 Mg255 2.032 . S
O260 C263 1.259 . S
O261 Mg252 2.114 . S
O261 C264 1.252 . S
O262 Mg252 2.251 . S
O262 Mg255 2.079 . S
O262 C264 1.273 . S
C263 O259 1.246 . S
C263 O260 1.259 . S
C264 O261 1.252 . S
C264 O262 1.273 . S
O265 Mg252 2.010 . S
O265 C257 1.249 . S
Mg266 O267 2.028 1_565 S
Mg266 O273 1.986 . S
Mg266 O275 2.114 1_565 S
Mg266 O276 2.251 . S
Mg266 O279 2.010 . S
O267 Mg266 2.028 1_545 S
O267 C270 1.250 . S
O268 Mg269 2.028 . S
O268 C270 1.248 . S
Mg269 O268 2.028 . S
Mg269 O274 2.032 1_545 S
Mg269 O276 2.079 1_545 S
C270 O267 1.250 . S
C270 O268 1.248 . S
C271 O272 1.264 . S
C271 O279 1.249 . S
O272 C271 1.264 . S
O273 Mg266 1.986 . S
O273 C277 1.246 . S
O274 Mg269 2.032 1_565 S
O274 C277 1.259 . S
O275 Mg266 2.114 1_545 S
O275 C278 1.252 . S
O276 Mg266 2.251 . S
O276 Mg269 2.079 1_565 S
O276 C278 1.273 1_565 S
C277 O273 1.246 . S
C277 O274 1.259 . S
C278 O275 1.252 . S
C278 O276 1.273 1_545 S
O279 Mg266 2.010 . S
O279 C271 1.249 . S
Mg280 O281 2.028 1_556 S
Mg280 O287 1.986 . S
Mg280 O289 2.114 1_556 S
Mg280 O290 2.251 . S
Mg280 O293 2.010 . S
O281 Mg280 2.028 1_554 S
O281 C284 1.250 . S
O282 Mg283 2.028 . S
O282 C284 1.248 . S
Mg283 O282 2.028 . S
Mg283 O288 2.032 1_554 S
Mg283 O290 2.079 1_554 S
C284 O281 1.250 . S
C284 O282 1.248 . S
C285 O286 1.264 . S
C285 O293 1.249 . S
O286 C285 1.264 . S
O287 Mg280 1.986 . S
O287 C291 1.246 . S
O288 Mg283 2.032 1_556 S
O288 C291 1.259 . S
O289 Mg280 2.114 1_554 S
O289 C292 1.252 . S
O290 Mg280 2.251 . S
O290 Mg283 2.079 1_556 S
O290 C292 1.273 1_556 S
C291 O287 1.246 . S
C291 O288 1.259 . S
C292 O289 1.252 . S
C292 O290 1.273 1_554 S
O293 Mg280 2.010 . S
O293 C285 1.249 . S
Mg294 O295 2.028 . S
Mg294 O301 1.986 . S
Mg294 O303 2.114 . S
Mg294 O304 2.251 . S
Mg294 O307 2.010 . S
O295 Mg294 2.028 . S
O295 C298 1.250 . S
O296 Mg297 2.028 . S
O296 C298 1.248 . S
Mg297 O296 2.028 . S
Mg297 O302 2.032 . S
Mg297 O304 2.079 . S
C298 O295 1.250 . S
C298 O296 1.248 . S
C299 O300 1.264 . S
C299 O307 1.249 . S
O300 C299 1.264 . S
O301 Mg294 1.986 . S
O301 C305 1.246 . S
O302 Mg297 2.032 . S
O302 C305 1.259 . S
O303 Mg294 2.114 . S
O303 C306 1.252 . S
O304 Mg294 2.251 . S
O304 Mg297 2.079 . S
O304 C306 1.273 . S
C305 O301 1.246 . S
C305 O302 1.259 . S
C306 O303 1.252 . S
C306 O304 1.273 . S
O307 Mg294 2.010 . S
O307 C299 1.249 . S
Mg308 O309 2.028 . S
Mg308 O315 1.986 . S
Mg308 O317 2.114 . S
Mg308 O318 2.251 . S
Mg308 O321 2.010 . S
O309 Mg308 2.028 . S
O309 C312 1.250 . S
O310 Mg311 2.028 . S
O310 C312 1.248 . S
Mg311 O310 2.028 . S
Mg311 O316 2.032 . S
Mg311 O318 2.079 . S
C312 O309 1.250 . S
C312 O310 1.248 . S
C313 O314 1.264 . S
C313 O321 1.249 . S
O314 C313 1.264 . S
O315 Mg308 1.986 . S
O315 C319 1.246 . S
O316 Mg311 2.032 . S
O316 C319 1.259 . S
O317 Mg308 2.114 . S
O317 C320 1.252 . S
O318 Mg308 2.251 . S
O318 Mg311 2.079 . S
O318 C320 1.273 . S
C319 O315 1.246 . S
C319 O316 1.259 . S
C320 O317 1.252 . S
C320 O318 1.273 . S
O321 Mg308 2.010 . S
O321 C313 1.249 . S
Mg322 O323 2.028 . S
Mg322 O329 1.986 . S
Mg322 O331 2.114 . S
Mg322 O332 2.251 . S
Mg322 O335 2.010 . S
O323 Mg322 2.028 . S
O323 C326 1.250 . S
O324 Mg325 2.028 . S
O324 C326 1.248 . S
Mg325 O324 2.028 . S
Mg325 O330 2.032 . S
Mg325 O332 2.079 . S
C326 O323 1.250 . S
C326 O324 1.248 . S
C327 O328 1.264 . S
C327 O335 1.249 . S
O328 C327 1.264 . S
O329 Mg322 1.986 . S
O329 C333 1.246 . S
O330 Mg325 2.032 . S
O330 C333 1.259 . S
O331 Mg322 2.114 . S
O331 C334 1.252 . S
O332 Mg322 2.251 . S
O332 Mg325 2.079 . S
O332 C334 1.273 . S
C333 O329 1.246 . S
C333 O330 1.259 . S
C334 O331 1.252 . S
C334 O332 1.273 . S
O335 Mg322 2.010 . S
O335 C327 1.249 . S
Nd336 C338 2.836 . S
Nd336 O356 2.500 . S
Nd336 O357 2.492 . S
Nd336 O358 2.487 . S
Nd336 O359 2.682 . S
Nd336 O360 2.410 . S
Nd336 O365 2.414 . S
Nd336 O367 2.424 . S
Nd337 C347 2.834 1_545 S
Nd337 O359 2.409 . S
Nd337 O361 2.429 1_455 S
Nd337 O362 2.496 1_545 S
Nd337 O363 2.491 1_445 S
Nd337 O364 2.489 1_455 S
Nd337 O365 2.681 . S
Nd337 O366 2.403 . S
C338 Nd336 2.836 . S
C338 C339 1.498 . S
C338 O356 1.258 . S
C338 O357 1.239 . S
C339 C338 1.498 . S
C339 C340 1.366 . S
C339 C344 1.407 . S
C340 C339 1.366 . S
C340 C341 1.392 . S
C340 H368 0.930 . S
C341 C340 1.392 . S
C341 C342 1.398 . S
C341 H369 0.929 . S
C342 C341 1.398 . S
C342 C343 1.352 . S
C343 C342 1.352 . S
C343 C344 1.384 . S
C343 H370 0.930 . S
C344 C339 1.407 . S
C344 C343 1.384 . S
C344 H371 0.929 . S
C345 O358 1.241 . S
C345 O359 1.273 . S
C346 O360 1.251 1_655 S
C346 O361 1.268 . S
C347 Nd337 2.834 1_565 S
C347 C348 1.498 . S
C347 O362 1.258 . S
C347 O363 1.239 1_455 S
C348 C347 1.498 . S
C348 C349 1.366 . S
C348 C353 1.434 . S
C349 C348 1.366 . S
C349 C350 1.392 . S
C349 H372 0.930 . S
C350 C349 1.392 . S
C350 C351 1.398 . S
C350 H373 0.929 . S
C351 C350 1.398 . S
C351 C352 1.352 . S
C352 C351 1.352 . S
C352 C353 1.404 . S
C352 H374 0.930 1_455 S
C353 C348 1.434 . S
C353 C352 1.404 . S
C353 H375 0.886 1_455 S
C354 O364 1.241 1_455 S
C354 O365 1.273 . S
C355 O366 1.251 . S
C355 O367 1.268 . S
O356 Nd336 2.500 . S
O356 C338 1.258 . S
O357 Nd336 2.492 . S
O357 C338 1.239 . S
O358 Nd336 2.487 . S
O358 C345 1.241 . S
O359 Nd336 2.682 . S
O359 Nd337 2.409 . S
O359 C345 1.273 . S
O360 Nd336 2.410 . S
O360 C346 1.251 1_455 S
O361 Nd337 2.429 1_655 S
O361 C346 1.268 . S
O362 Nd337 2.496 1_565 S
O362 C347 1.258 . S
O363 Nd337 2.491 1_665 S
O363 C347 1.239 1_655 S
O364 Nd337 2.489 1_655 S
O364 C354 1.241 1_655 S
O365 Nd336 2.414 . S
O365 Nd337 2.681 . S
O365 C354 1.273 . S
O366 Nd337 2.403 . S
O366 C355 1.251 . S
O367 Nd336 2.424 . S
O367 C355 1.268 . S
H368 C340 0.930 . S
H369 C341 0.929 . S
H370 C343 0.930 . S
H371 C344 0.929 . S
H372 C349 0.930 . S
H373 C350 0.929 . S
H374 C352 0.930 1_655 S
H375 C353 0.886 1_655 S
Nd376 C378 2.836 . S
Nd376 O396 2.500 . S
Nd376 O397 2.492 . S
Nd376 O398 2.487 . S
Nd376 O399 2.682 . S
Nd376 O400 2.410 . S
Nd376 O405 2.414 . S
Nd376 O407 2.424 . S
Nd377 C387 2.836 . S
Nd377 O399 2.414 . S
Nd377 O401 2.424 . S
Nd377 O402 2.500 . S
Nd377 O403 2.492 . S
Nd377 O404 2.487 . S
Nd377 O405 2.682 . S
Nd377 O406 2.410 . S
C378 Nd376 2.836 . S
C378 C379 1.498 . S
C378 O396 1.258 . S
C378 O397 1.239 . S
C379 C378 1.498 . S
C379 C380 1.366 . S
C379 C384 1.407 . S
C380 C379 1.366 . S
C380 C381 1.392 . S
C380 H408 0.930 . S
C381 C380 1.392 . S
C381 C382 1.398 . S
C381 H409 0.929 . S
C382 C381 1.398 . S
C382 C383 1.352 . S
C383 C382 1.352 . S
C383 C384 1.384 . S
C383 H410 0.930 . S
C384 C379 1.407 . S
C384 C383 1.384 . S
C384 H411 0.929 . S
C385 O398 1.241 . S
C385 O399 1.273 . S
C386 O400 1.251 . S
C386 O401 1.268 . S
C387 Nd377 2.836 . S
C387 C388 1.498 . S
C387 O402 1.258 . S
C387 O403 1.239 . S
C388 C387 1.498 . S
C388 C389 1.366 . S
C388 C393 1.407 . S
C389 C388 1.366 . S
C389 C390 1.392 . S
C389 H412 0.930 . S
C390 C389 1.392 . S
C390 C391 1.398 . S
C390 H413 0.929 . S
C391 C390 1.398 . S
C391 C392 1.352 . S
C392 C391 1.352 . S
C392 C393 1.384 . S
C392 H414 0.930 . S
C393 C388 1.407 . S
C393 C392 1.384 . S
C393 H415 0.929 . S
C394 O404 1.241 . S
C394 O405 1.273 . S
C395 O406 1.251 . S
C395 O407 1.268 . S
O396 Nd376 2.500 . S
O396 C378 1.258 . S
O397 Nd376 2.492 . S
O397 C378 1.239 . S
O398 Nd376 2.487 . S
O398 C385 1.241 . S
O399 Nd376 2.682 . S
O399 Nd377 2.414 . S
O399 C385 1.273 . S
O400 Nd376 2.410 . S
O400 C386 1.251 . S
O401 Nd377 2.424 . S
O401 C386 1.268 . S
O402 Nd377 2.500 . S
O402 C387 1.258 . S
O403 Nd377 2.492 . S
O403 C387 1.239 . S
O404 Nd377 2.487 . S
O404 C394 1.241 . S
O405 Nd376 2.414 . S
O405 Nd377 2.682 . S
O405 C394 1.273 . S
O406 Nd377 2.410 . S
O406 C395 1.251 . S
O407 Nd376 2.424 . S
O407 C395 1.268 . S
H408 C380 0.930 . S
H409 C381 0.929 . S
H410 C383 0.930 . S
H411 C384 0.929 . S
H412 C389 0.930 . S
H413 C390 0.929 . S
H414 C392 0.930 . S
H415 C393 0.929 . S
Nd416 C418 2.836 . S
Nd416 O436 2.500 . S
Nd416 O437 2.492 . S
Nd416 O438 2.487 . S
Nd416 O439 2.682 . S
Nd416 O440 2.410 . S
Nd416 O445 2.414 . S
Nd416 O447 2.424 . S
Nd417 C427 2.836 . S
Nd417 O439 2.414 . S
Nd417 O441 2.424 . S
Nd417 O442 2.500 . S
Nd417 O443 2.492 . S
Nd417 O444 2.487 . S
Nd417 O445 2.682 . S
Nd417 O446 2.410 . S
C418 Nd416 2.836 . S
C418 C419 1.498 . S
C418 O436 1.258 . S
C418 O437 1.239 . S
C419 C418 1.498 . S
C419 C420 1.366 . S
C419 C424 1.407 . S
C420 C419 1.366 . S
C420 C421 1.392 . S
C420 H448 0.930 . S
C421 C420 1.392 . S
C421 C422 1.398 . S
C421 H449 0.929 . S
C422 C421 1.398 . S
C422 C423 1.352 . S
C423 C422 1.352 . S
C423 C424 1.384 . S
C423 H450 0.930 . S
C424 C419 1.407 . S
C424 C423 1.384 . S
C424 H451 0.929 . S
C425 O438 1.241 . S
C425 O439 1.273 . S
C426 O440 1.251 . S
C426 O441 1.268 . S
C427 Nd417 2.836 . S
C427 C428 1.498 . S
C427 O442 1.258 . S
C427 O443 1.239 . S
C428 C427 1.498 . S
C428 C429 1.366 . S
C428 C433 1.407 . S
C429 C428 1.366 . S
C429 C430 1.392 . S
C429 H452 0.930 . S
C430 C429 1.392 . S
C430 C431 1.398 . S
C430 H453 0.929 . S
C431 C430 1.398 . S
C431 C432 1.352 . S
C432 C431 1.352 . S
C432 C433 1.384 . S
C432 H454 0.930 . S
C433 C428 1.407 . S
C433 C432 1.384 . S
C433 H455 0.929 . S
C434 O444 1.241 . S
C434 O445 1.273 . S
C435 O446 1.251 . S
C435 O447 1.268 . S
O436 Nd416 2.500 . S
O436 C418 1.258 . S
O437 Nd416 2.492 . S
O437 C418 1.239 . S
O438 Nd416 2.487 . S
O438 C425 1.241 . S
O439 Nd416 2.682 . S
O439 Nd417 2.414 . S
O439 C425 1.273 . S
O440 Nd416 2.410 . S
O440 C426 1.251 . S
O441 Nd417 2.424 . S
O441 C426 1.268 . S
O442 Nd417 2.500 . S
O442 C427 1.258 . S
O443 Nd417 2.492 . S
O443 C427 1.239 . S
O444 Nd417 2.487 . S
O444 C434 1.241 . S
O445 Nd416 2.414 . S
O445 Nd417 2.682 . S
O445 C434 1.273 . S
O446 Nd417 2.410 . S
O446 C435 1.251 . S
O447 Nd416 2.424 . S
O447 C435 1.268 . S
H448 C420 0.930 . S
H449 C421 0.929 . S
H450 C423 0.930 . S
H451 C424 0.929 . S
H452 C429 0.930 . S
H453 C430 0.929 . S
H454 C432 0.930 . S
H455 C433 0.929 . S
Nd456 C458 2.836 . S
Nd456 O476 2.500 . S
Nd456 O477 2.492 . S
Nd456 O478 2.487 . S
Nd456 O479 2.682 . S
Nd456 O480 2.410 . S
Nd456 O485 2.414 . S
Nd456 O487 2.424 . S
Nd457 C467 2.836 . S
Nd457 O479 2.414 . S
Nd457 O481 2.424 . S
Nd457 O482 2.500 . S
Nd457 O483 2.492 . S
Nd457 O484 2.487 . S
Nd457 O485 2.682 . S
Nd457 O486 2.410 . S
C458 Nd456 2.836 . S
C458 C459 1.498 . S
C458 O476 1.258 . S
C458 O477 1.239 . S
C459 C458 1.498 . S
C459 C460 1.366 . S
C459 C464 1.407 . S
C460 C459 1.366 . S
C460 C461 1.392 . S
C460 H488 0.930 . S
C461 C460 1.392 . S
C461 C462 1.398 . S
C461 H489 0.929 . S
C462 C461 1.398 . S
C462 C463 1.352 . S
C463 C462 1.352 . S
C463 C464 1.384 . S
C463 H490 0.930 . S
C464 C459 1.407 . S
C464 C463 1.384 . S
C464 H491 0.929 . S
C465 O478 1.241 . S
C465 O479 1.273 . S
C466 O480 1.251 . S
C466 O481 1.268 . S
C467 Nd457 2.836 . S
C467 C468 1.498 . S
C467 O482 1.258 . S
C467 O483 1.239 . S
C468 C467 1.498 . S
C468 C469 1.366 . S
C468 C473 1.407 . S
C469 C468 1.366 . S
C469 C470 1.392 . S
C469 H492 0.930 . S
C470 C469 1.392 . S
C470 C471 1.398 . S
C470 H493 0.929 . S
C471 C470 1.398 . S
C471 C472 1.352 . S
C472 C471 1.352 . S
C472 C473 1.384 . S
C472 H494 0.930 . S
C473 C468 1.407 . S
C473 C472 1.384 . S
C473 H495 0.929 . S
C474 O484 1.241 . S
C474 O485 1.273 . S
C475 O486 1.251 . S
C475 O487 1.268 . S
O476 Nd456 2.500 . S
O476 C458 1.258 . S
O477 Nd456 2.492 . S
O477 C458 1.239 . S
O478 Nd456 2.487 . S
O478 C465 1.241 . S
O479 Nd456 2.682 . S
O479 Nd457 2.414 . S
O479 C465 1.273 . S
O480 Nd456 2.410 . S
O480 C466 1.251 . S
O481 Nd457 2.424 . S
O481 C466 1.268 . S
O482 Nd457 2.500 . S
O482 C467 1.258 . S
O483 Nd457 2.492 . S
O483 C467 1.239 . S
O484 Nd457 2.487 . S
O484 C474 1.241 . S
O485 Nd456 2.414 . S
O485 Nd457 2.682 . S
O485 C474 1.273 . S
O486 Nd457 2.410 . S
O486 C475 1.251 . S
O487 Nd456 2.424 . S
O487 C475 1.268 . S
H488 C460 0.930 . S
H489 C461 0.929 . S
H490 C463 0.930 . S
H491 C464 0.929 . S
H492 C469 0.930 . S
H493 C470 0.929 . S
H494 C472 0.930 . S
H495 C473 0.929 . S
Nd496 C498 2.836 . S
Nd496 O516 2.449 1_455 S
Nd496 O517 2.492 . S
Nd496 O518 2.487 . S
Nd496 O519 2.682 . S
Nd496 O520 2.410 . S
Nd496 O525 2.414 1_455 S
Nd496 O527 2.424 . S
Nd497 C507 2.836 1_545 S
Nd497 O519 2.414 . S
Nd497 O521 2.412 1_455 S
Nd497 O522 2.500 . S
Nd497 O523 2.492 1_545 S
Nd497 O524 2.487 1_455 S
Nd497 O525 2.682 1_455 S
Nd497 O526 2.410 . S
C498 Nd496 2.836 . S
C498 C499 1.498 . S
C498 O516 1.216 1_455 S
C498 O517 1.239 . S
C499 C498 1.498 . S
C499 C500 1.366 1_455 S
C499 C504 1.407 . S
C500 C499 1.366 1_655 S
C500 C501 1.392 . S
C500 H528 0.930 . S
C501 C500 1.392 . S
C501 C502 1.398 . S
C501 H529 0.929 . S
C502 C501 1.398 . S
C502 C503 1.352 1_655 S
C503 C502 1.352 1_455 S
C503 C504 1.384 . S
C503 H530 0.930 . S
C504 C499 1.407 . S
C504 C503 1.384 . S
C504 H531 0.929 . S
C505 O518 1.241 . S
C505 O519 1.273 . S
C506 O520 1.251 . S
C506 O521 1.272 1_455 S
C507 Nd497 2.836 1_565 S
C507 C508 1.498 . S
C507 O522 1.258 1_565 S
C507 O523 1.239 . S
C508 C507 1.498 . S
C508 C509 1.366 . S
C508 C513 1.407 . S
C509 C508 1.366 . S
C509 C510 1.392 . S
C509 H532 0.930 . S
C510 C509 1.392 . S
C510 C511 1.398 . S
C510 H533 0.929 . S
C511 C510 1.398 . S
C511 C512 1.352 . S
C512 C511 1.352 . S
C512 C513 1.384 . S
C512 H534 0.930 . S
C513 C508 1.407 . S
C513 C512 1.384 . S
C513 H535 0.929 1_455 S
C514 O524 1.241 . S
C514 O525 1.273 . S
C515 O526 1.251 . S
C515 O527 1.268 . S
O516 Nd496 2.449 1_655 S
O516 C498 1.216 1_655 S
O517 Nd496 2.492 . S
O517 C498 1.239 . S
O518 Nd496 2.487 . S
O518 C505 1.241 . S
O519 Nd496 2.682 . S
O519 Nd497 2.414 . S
O519 C505 1.273 . S
O520 Nd496 2.410 . S
O520 C506 1.251 . S
O521 Nd497 2.412 1_655 S
O521 C506 1.272 1_655 S
O522 Nd497 2.500 . S
O522 C507 1.258 1_545 S
O523 Nd497 2.492 1_565 S
O523 C507 1.239 . S
O524 Nd497 2.487 1_655 S
O524 C514 1.241 . S
O525 Nd496 2.414 1_655 S
O525 Nd497 2.682 1_655 S
O525 C514 1.273 . S
O526 Nd497 2.410 . S
O526 C515 1.251 . S
O527 Nd496 2.424 . S
O527 C515 1.268 . S
H528 C500 0.930 . S
H529 C501 0.929 . S
H530 C503 0.930 . S
H531 C504 0.929 . S
H532 C509 0.930 . S
H533 C510 0.929 . S
H534 C512 0.930 . S
H535 C513 0.929 1_655 S
Nd536 C538 2.836 . S
Nd536 O556 2.500 . S
Nd536 O557 2.492 . S
Nd536 O558 2.487 . S
Nd536 O559 2.682 . S
Nd536 O560 2.410 . S
Nd536 O565 2.414 . S
Nd536 O567 2.424 . S
Nd537 C547 2.836 . S
Nd537 O559 2.414 . S
Nd537 O561 2.424 . S
Nd537 O562 2.500 . S
Nd537 O563 2.492 . S
Nd537 O564 2.487 . S
Nd537 O565 2.682 . S
Nd537 O566 2.410 . S
C538 Nd536 2.836 . S
C538 C539 1.498 . S
C538 O556 1.258 . S
C538 O557 1.239 . S
C539 C538 1.498 . S
C539 C540 1.366 . S
C539 C544 1.407 . S
C540 C539 1.366 . S
C540 C541 1.392 . S
C540 H568 0.930 . S
C541 C540 1.392 . S
C541 C542 1.398 . S
C541 H569 0.929 . S
C542 C541 1.398 . S
C542 C543 1.352 . S
C543 C542 1.352 . S
C543 C544 1.384 . S
C543 H570 0.930 . S
C544 C539 1.407 . S
C544 C543 1.384 . S
C544 H571 0.929 . S
C545 O558 1.241 . S
C545 O559 1.273 . S
C546 O560 1.251 . S
C546 O561 1.268 . S
C547 Nd537 2.836 . S
C547 C548 1.498 . S
C547 O562 1.258 . S
C547 O563 1.239 . S
C548 C547 1.498 . S
C548 C549 1.366 . S
C548 C553 1.407 . S
C549 C548 1.366 . S
C549 C550 1.392 . S
C549 H572 0.930 . S
C550 C549 1.392 . S
C550 C551 1.398 . S
C550 H573 0.929 . S
C551 C550 1.398 . S
C551 C552 1.352 . S
C552 C551 1.352 . S
C552 C553 1.384 . S
C552 H574 0.930 . S
C553 C548 1.407 . S
C553 C552 1.384 . S
C553 H575 0.929 . S
C554 O564 1.241 . S
C554 O565 1.273 . S
C555 O566 1.251 . S
C555 O567 1.268 . S
O556 Nd536 2.500 . S
O556 C538 1.258 . S
O557 Nd536 2.492 . S
O557 C538 1.239 . S
O558 Nd536 2.487 . S
O558 C545 1.241 . S
O559 Nd536 2.682 . S
O559 Nd537 2.414 . S
O559 C545 1.273 . S
O560 Nd536 2.410 . S
O560 C546 1.251 . S
O561 Nd537 2.424 . S
O561 C546 1.268 . S
O562 Nd537 2.500 . S
O562 C547 1.258 . S
O563 Nd537 2.492 . S
O563 C547 1.239 . S
O564 Nd537 2.487 . S
O564 C554 1.241 . S
O565 Nd536 2.414 . S
O565 Nd537 2.682 . S
O565 C554 1.273 . S
O566 Nd537 2.410 . S
O566 C555 1.251 . S
O567 Nd536 2.424 . S
O567 C555 1.268 . S
H568 C540 0.930 . S
H569 C541 0.929 . S
H570 C543 0.930 . S
H571 C544 0.929 . S
H572 C549 0.930 . S
H573 C550 0.929 . S
H574 C552 0.930 . S
H575 C553 0.929 . S
Nd576 C578 2.836 . S
Nd576 O596 2.500 . S
Nd576 O597 2.492 . S
Nd576 O598 2.487 . S
Nd576 O599 2.682 . S
Nd576 O600 2.410 . S
Nd576 O605 2.414 . S
Nd576 O607 2.424 . S
Nd577 C587 2.836 . S
Nd577 O599 2.414 . S
Nd577 O601 2.424 . S
Nd577 O602 2.500 . S
Nd577 O603 2.492 . S
Nd577 O604 2.487 . S
Nd577 O605 2.682 . S
Nd577 O606 2.410 . S
C578 Nd576 2.836 . S
C578 C579 1.498 . S
C578 O596 1.258 . S
C578 O597 1.239 . S
C579 C578 1.498 . S
C579 C580 1.366 . S
C579 C584 1.407 . S
C580 C579 1.366 . S
C580 C581 1.392 . S
C580 H608 0.930 . S
C581 C580 1.392 . S
C581 C582 1.398 . S
C581 H609 0.929 . S
C582 C581 1.398 . S
C582 C583 1.352 . S
C583 C582 1.352 . S
C583 C584 1.384 . S
C583 H610 0.930 1_545 S
C584 C579 1.407 . S
C584 C583 1.384 . S
C584 H611 0.929 1_545 S
C585 O598 1.241 . S
C585 O599 1.273 . S
C586 O600 1.251 . S
C586 O601 1.268 . S
C587 Nd577 2.836 . S
C587 C588 1.498 . S
C587 O602 1.258 . S
C587 O603 1.239 . S
C588 C587 1.498 . S
C588 C589 1.366 . S
C588 C593 1.407 . S
C589 C588 1.366 . S
C589 C590 1.392 . S
C589 H612 0.930 . S
C590 C589 1.392 . S
C590 C591 1.398 . S
C590 H613 0.929 . S
C591 C590 1.398 . S
C591 C592 1.352 . S
C592 C591 1.352 . S
C592 C593 1.384 . S
C592 H614 0.930 . S
C593 C588 1.407 . S
C593 C592 1.384 . S
C593 H615 0.929 . S
C594 O604 1.241 . S
C594 O605 1.273 . S
C595 O606 1.251 . S
C595 O607 1.268 . S
O596 Nd576 2.500 . S
O596 C578 1.258 . S
O597 Nd576 2.492 . S
O597 C578 1.239 . S
O598 Nd576 2.487 . S
O598 C585 1.241 . S
O599 Nd576 2.682 . S
O599 Nd577 2.414 . S
O599 C585 1.273 . S
O600 Nd576 2.410 . S
O600 C586 1.251 . S
O601 Nd577 2.424 . S
O601 C586 1.268 . S
O602 Nd577 2.500 . S
O602 C587 1.258 . S
O603 Nd577 2.492 . S
O603 C587 1.239 . S
O604 Nd577 2.487 . S
O604 C594 1.241 . S
O605 Nd576 2.414 . S
O605 Nd577 2.682 . S
O605 C594 1.273 . S
O606 Nd577 2.410 . S
O606 C595 1.251 . S
O607 Nd576 2.424 . S
O607 C595 1.268 . S
H608 C580 0.930 . S
H609 C581 0.929 . S
H610 C583 0.930 1_565 S
H611 C584 0.929 1_565 S
H612 C589 0.930 . S
H613 C590 0.929 . S
H614 C592 0.930 . S
H615 C593 0.929 . S
Nd616 C618 2.836 . S
Nd616 O636 2.500 . S
Nd616 O637 2.492 . S
Nd616 O638 2.487 . S
Nd616 O639 2.682 . S
Nd616 O640 2.410 . S
Nd616 O645 2.414 . S
Nd616 O647 2.424 . S
Nd617 C627 2.836 . S
Nd617 O639 2.414 . S
Nd617 O641 2.424 . S
Nd617 O642 2.500 . S
Nd617 O643 2.492 . S
Nd617 O644 2.487 . S
Nd617 O645 2.682 . S
Nd617 O646 2.410 . S
C618 Nd616 2.836 . S
C618 C619 1.498 . S
C618 O636 1.258 . S
C618 O637 1.239 . S
C619 C618 1.498 . S
C619 C620 1.366 . S
C619 C624 1.407 . S
C620 C619 1.366 . S
C620 C621 1.392 . S
C620 H648 0.930 . S
C621 C620 1.392 . S
C621 C622 1.398 . S
C621 H649 0.929 . S
C622 C621 1.398 . S
C622 C623 1.352 . S
C623 C622 1.352 . S
C623 C624 1.384 . S
C623 H650 0.930 . S
C624 C619 1.407 . S
C624 C623 1.384 . S
C624 H651 0.929 . S
C625 O638 1.241 . S
C625 O639 1.273 . S
C626 O640 1.251 . S
C626 O641 1.268 . S
C627 Nd617 2.836 . S
C627 C628 1.498 . S
C627 O642 1.258 . S
C627 O643 1.239 . S
C628 C627 1.498 . S
C628 C629 1.366 . S
C628 C633 1.407 . S
C629 C628 1.366 . S
C629 C630 1.392 . S
C629 H652 0.930 . S
C630 C629 1.392 . S
C630 C631 1.398 . S
C630 H653 0.929 . S
C631 C630 1.398 . S
C631 C632 1.352 . S
C632 C631 1.352 . S
C632 C633 1.384 . S
C632 H654 0.930 . S
C633 C628 1.407 . S
C633 C632 1.384 . S
C633 H655 0.929 . S
C634 O644 1.241 . S
C634 O645 1.273 . S
C635 O646 1.251 . S
C635 O647 1.268 . S
O636 Nd616 2.500 . S
O636 C618 1.258 . S
O637 Nd616 2.492 . S
O637 C618 1.239 . S
O638 Nd616 2.487 . S
O638 C625 1.241 . S
O639 Nd616 2.682 . S
O639 Nd617 2.414 . S
O639 C625 1.273 . S
O640 Nd616 2.410 . S
O640 C626 1.251 . S
O641 Nd617 2.424 . S
O641 C626 1.268 . S
O642 Nd617 2.500 . S
O642 C627 1.258 . S
O643 Nd617 2.492 . S
O643 C627 1.239 . S
O644 Nd617 2.487 . S
O644 C634 1.241 . S
O645 Nd616 2.414 . S
O645 Nd617 2.682 . S
O645 C634 1.273 . S
O646 Nd617 2.410 . S
O646 C635 1.251 . S
O647 Nd616 2.424 . S
O647 C635 1.268 . S
H648 C620 0.930 . S
H649 C621 0.929 . S
H650 C623 0.930 . S
H651 C624 0.929 . S
H652 C629 0.930 . S
H653 C630 0.929 . S
H654 C632 0.930 . S
H655 C633 0.929 . S
Nd656 C658 2.836 . S
Nd656 O676 2.500 . S
Nd656 O677 2.492 . S
Nd656 O678 2.487 . S
Nd656 O679 2.682 . S
Nd656 O680 2.410 . S
Nd656 O685 2.414 . S
Nd656 O687 2.424 . S
Nd657 C667 2.836 . S
Nd657 O679 2.414 . S
Nd657 O681 2.424 . S
Nd657 O682 2.500 . S
Nd657 O683 2.492 . S
Nd657 O684 2.487 . S
Nd657 O685 2.682 . S
Nd657 O686 2.410 . S
C658 Nd656 2.836 . S
C658 C659 1.498 . S
C658 O676 1.258 . S
C658 O677 1.239 . S
C659 C658 1.498 . S
C659 C660 1.366 . S
C659 C664 1.407 . S
C660 C659 1.366 . S
C660 C661 1.392 . S
C660 H688 0.930 . S
C661 C660 1.392 . S
C661 C662 1.398 . S
C661 H689 0.929 . S
C662 C661 1.398 . S
C662 C663 1.352 . S
C663 C662 1.352 . S
C663 C664 1.384 . S
C663 H690 0.930 . S
C664 C659 1.407 . S
C664 C663 1.384 . S
C664 H691 0.929 . S
C665 O678 1.241 . S
C665 O679 1.273 . S
C666 O680 1.251 . S
C666 O681 1.268 . S
C667 Nd657 2.836 . S
C667 C668 1.498 . S
C667 O682 1.258 . S
C667 O683 1.239 . S
C668 C667 1.498 . S
C668 C669 1.366 . S
C668 C673 1.407 . S
C669 C668 1.366 . S
C669 C670 1.392 . S
C669 H692 0.930 . S
C670 C669 1.392 . S
C670 C671 1.398 . S
C670 H693 0.929 . S
C671 C670 1.398 . S
C671 C672 1.352 . S
C672 C671 1.352 . S
C672 C673 1.384 . S
C672 H694 0.930 . S
C673 C668 1.407 . S
C673 C672 1.384 . S
C673 H695 0.929 . S
C674 O684 1.241 . S
C674 O685 1.273 . S
C675 O686 1.251 . S
C675 O687 1.268 . S
O676 Nd656 2.500 . S
O676 C658 1.258 . S
O677 Nd656 2.492 . S
O677 C658 1.239 . S
O678 Nd656 2.487 . S
O678 C665 1.241 . S
O679 Nd656 2.682 . S
O679 Nd657 2.414 . S
O679 C665 1.273 . S
O680 Nd656 2.410 . S
O680 C666 1.251 . S
O681 Nd657 2.424 . S
O681 C666 1.268 . S
O682 Nd657 2.500 . S
O682 C667 1.258 . S
O683 Nd657 2.492 . S
O683 C667 1.239 . S
O684 Nd657 2.487 . S
O684 C674 1.241 . S
O685 Nd656 2.414 . S
O685 Nd657 2.682 . S
O685 C674 1.273 . S
O686 Nd657 2.410 . S
O686 C675 1.251 . S
O687 Nd656 2.424 . S
O687 C675 1.268 . S
H688 C660 0.930 . S
H689 C661 0.929 . S
H690 C663 0.930 . S
H691 C664 0.929 . S
H692 C669 0.930 . S
H693 C670 0.929 . S
H694 C672 0.930 . S
H695 C673 0.929 . S
Nd696 C698 2.836 . S
Nd696 O716 2.500 . S
Nd696 O717 2.492 . S
Nd696 O718 2.487 . S
Nd696 O719 2.682 . S
Nd696 O720 2.410 . S
Nd696 O725 2.414 . S
Nd696 O727 2.424 . S
Nd697 C707 2.836 . S
Nd697 O719 2.414 . S
Nd697 O721 2.424 . S
Nd697 O722 2.500 . S
Nd697 O723 2.492 . S
Nd697 O724 2.487 . S
Nd697 O725 2.682 . S
Nd697 O726 2.410 . S
C698 Nd696 2.836 . S
C698 C699 1.498 . S
C698 O716 1.258 . S
C698 O717 1.239 . S
C699 C698 1.498 . S
C699 C700 1.366 . S
C699 C704 1.407 . S
C700 C699 1.366 . S
C700 C701 1.392 . S
C700 H728 0.930 . S
C701 C700 1.392 . S
C701 C702 1.398 . S
C701 H729 0.929 . S
C702 C701 1.398 . S
C702 C703 1.352 . S
C703 C702 1.352 . S
C703 C704 1.384 . S
C703 H730 0.930 . S
C704 C699 1.407 . S
C704 C703 1.384 . S
C704 H731 0.929 . S
C705 O718 1.241 . S
C705 O719 1.273 . S
C706 O720 1.251 . S
C706 O721 1.268 . S
C707 Nd697 2.836 . S
C707 C708 1.498 . S
C707 O722 1.258 . S
C707 O723 1.239 . S
C708 C707 1.498 . S
C708 C709 1.366 . S
C708 C713 1.407 . S
C709 C708 1.366 . S
C709 C710 1.392 . S
C709 H732 0.930 . S
C710 C709 1.392 . S
C710 C711 1.398 . S
C710 H733 0.929 . S
C711 C710 1.398 . S
C711 C712 1.352 . S
C712 C711 1.352 . S
C712 C713 1.384 . S
C712 H734 0.930 . S
C713 C708 1.407 . S
C713 C712 1.384 . S
C713 H735 0.929 . S
C714 O724 1.241 . S
C714 O725 1.273 . S
C715 O726 1.251 . S
C715 O727 1.268 . S
O716 Nd696 2.500 . S
O716 C698 1.258 . S
O717 Nd696 2.492 . S
O717 C698 1.239 . S
O718 Nd696 2.487 . S
O718 C705 1.241 . S
O719 Nd696 2.682 . S
O719 Nd697 2.414 . S
O719 C705 1.273 . S
O720 Nd696 2.410 . S
O720 C706 1.251 . S
O721 Nd697 2.424 . S
O721 C706 1.268 . S
O722 Nd697 2.500 . S
O722 C707 1.258 . S
O723 Nd697 2.492 . S
O723 C707 1.239 . S
O724 Nd697 2.487 . S
O724 C714 1.241 . S
O725 Nd696 2.414 . S
O725 Nd697 2.682 . S
O725 C714 1.273 . S
O726 Nd697 2.410 . S
O726 C715 1.251 . S
O727 Nd696 2.424 . S
O727 C715 1.268 . S
H728 C700 0.930 . S
H729 C701 0.929 . S
H730 C703 0.930 . S
H731 C704 0.929 . S
H732 C709 0.930 . S
H733 C710 0.929 . S
H734 C712 0.930 . S
H735 C713 0.929 . S
Nd736 C738 2.836 . S
Nd736 O756 2.500 . S
Nd736 O757 2.492 . S
Nd736 O758 2.487 1_655 S
Nd736 O759 2.682 1_655 S
Nd736 O760 2.410 . S
Nd736 O765 2.414 1_655 S
Nd736 O767 2.424 1_655 S
Nd737 C747 2.836 . S
Nd737 O759 2.414 . S
Nd737 O761 2.424 . S
Nd737 O762 2.500 . S
Nd737 O763 2.492 . S
Nd737 O764 2.487 . S
Nd737 O765 2.682 . S
Nd737 O766 2.410 . S
C738 Nd736 2.836 . S
C738 C739 1.498 . S
C738 O756 1.258 . S
C738 O757 1.239 . S
C739 C738 1.498 . S
C739 C740 1.366 . S
C739 C744 1.407 . S
C740 C739 1.366 . S
C740 C741 1.392 . S
C740 H768 0.930 . S
C741 C740 1.392 . S
C741 C742 1.398 . S
C741 H769 0.929 . S
C742 C741 1.398 . S
C742 C743 1.352 . S
C743 C742 1.352 . S
C743 C744 1.384 . S
C743 H770 0.930 . S
C744 C739 1.407 . S
C744 C743 1.384 . S
C744 H771 0.929 . S
C745 O758 1.241 . S
C745 O759 1.273 . S
C746 O760 1.251 1_455 S
C746 O761 1.268 . S
C747 Nd737 2.836 . S
C747 C748 1.498 . S
C747 O762 1.258 . S
C747 O763 1.239 . S
C748 C747 1.498 . S
C748 C749 1.366 . S
C748 C753 1.407 . S
C749 C748 1.366 . S
C749 C750 1.392 . S
C749 H772 0.930 . S
C750 C749 1.392 . S
C750 C751 1.398 . S
C750 H773 0.929 . S
C751 C750 1.398 . S
C751 C752 1.352 . S
C752 C751 1.352 . S
C752 C753 1.384 . S
C752 H774 0.930 . S
C753 C748 1.407 . S
C753 C752 1.384 . S
C753 H775 0.929 . S
C754 O764 1.241 . S
C754 O765 1.273 . S
C755 O766 1.251 . S
C755 O767 1.268 . S
O756 Nd736 2.500 . S
O756 C738 1.258 . S
O757 Nd736 2.492 . S
O757 C738 1.239 . S
O758 Nd736 2.487 1_455 S
O758 C745 1.241 . S
O759 Nd736 2.682 1_455 S
O759 Nd737 2.414 . S
O759 C745 1.273 . S
O760 Nd736 2.410 . S
O760 C746 1.251 1_655 S
O761 Nd737 2.424 . S
O761 C746 1.268 . S
O762 Nd737 2.500 . S
O762 C747 1.258 . S
O763 Nd737 2.492 . S
O763 C747 1.239 . S
O764 Nd737 2.487 . S
O764 C754 1.241 . S
O765 Nd736 2.414 1_455 S
O765 Nd737 2.682 . S
O765 C754 1.273 . S
O766 Nd737 2.410 . S
O766 C755 1.251 . S
O767 Nd736 2.424 1_455 S
O767 C755 1.268 . S
H768 C740 0.930 . S
H769 C741 0.929 . S
H770 C743 0.930 . S
H771 C744 0.929 . S
H772 C749 0.930 . S
H773 C750 0.929 . S
H774 C752 0.930 . S
H775 C753 0.929 . S
Nd776 C778 2.836 . S
Nd776 O796 2.500 . S
Nd776 O797 2.492 . S
Nd776 O798 2.487 . S
Nd776 O799 2.682 . S
Nd776 O800 2.410 . S
Nd776 O805 2.414 . S
Nd776 O807 2.424 . S
Nd777 C787 2.836 . S
Nd777 O799 2.414 . S
Nd777 O801 2.424 . S
Nd777 O802 2.500 . S
Nd777 O803 2.492 . S
Nd777 O804 2.487 . S
Nd777 O805 2.682 . S
Nd777 O806 2.410 . S
C778 Nd776 2.836 . S
C778 C779 1.498 . S
C778 O796 1.258 . S
C778 O797 1.239 . S
C779 C778 1.498 . S
C779 C780 1.366 . S
C779 C784 1.407 . S
C780 C779 1.366 . S
C780 C781 1.392 . S
C780 H808 0.930 . S
C781 C780 1.392 . S
C781 C782 1.398 . S
C781 H809 0.929 . S
C782 C781 1.398 . S
C782 C783 1.352 . S
C783 C782 1.352 . S
C783 C784 1.384 . S
C783 H810 0.930 . S
C784 C779 1.407 . S
C784 C783 1.384 . S
C784 H811 0.929 . S
C785 O798 1.241 . S
C785 O799 1.273 . S
C786 O800 1.251 . S
C786 O801 1.268 . S
C787 Nd777 2.836 . S
C787 C788 1.498 . S
C787 O802 1.258 . S
C787 O803 1.239 . S
C788 C787 1.498 . S
C788 C789 1.366 . S
C788 C793 1.407 . S
C789 C788 1.366 . S
C789 C790 1.392 . S
C789 H812 0.930 . S
C790 C789 1.392 . S
C790 C791 1.398 . S
C790 H813 0.929 . S
C791 C790 1.398 . S
C791 C792 1.352 . S
C792 C791 1.352 . S
C792 C793 1.384 . S
C792 H814 0.930 . S
C793 C788 1.407 . S
C793 C792 1.384 . S
C793 H815 0.929 . S
C794 O804 1.241 . S
C794 O805 1.273 . S
C795 O806 1.251 . S
C795 O807 1.268 . S
O796 Nd776 2.500 . S
O796 C778 1.258 . S
O797 Nd776 2.492 . S
O797 C778 1.239 . S
O798 Nd776 2.487 . S
O798 C785 1.241 . S
O799 Nd776 2.682 . S
O799 Nd777 2.414 . S
O799 C785 1.273 . S
O800 Nd776 2.410 . S
O800 C786 1.251 . S
O801 Nd777 2.424 . S
O801 C786 1.268 . S
O802 Nd777 2.500 . S
O802 C787 1.258 . S
O803 Nd777 2.492 . S
O803 C787 1.239 . S
O804 Nd777 2.487 . S
O804 C794 1.241 . S
O805 Nd776 2.414 . S
O805 Nd777 2.682 . S
O805 C794 1.273 . S
O806 Nd777 2.410 . S
O806 C795 1.251 . S
O807 Nd776 2.424 . S
O807 C795 1.268 . S
H808 C780 0.930 . S
H809 C781 0.929 . S
H810 C783 0.930 . S
H811 C784 0.929 . S
H812 C789 0.930 . S
H813 C790 0.929 . S
H814 C792 0.930 . S
H815 C793 0.929 . S
Nd816 C818 2.836 . S
Nd816 O836 2.500 . S
Nd816 O837 2.492 . S
Nd816 O838 2.487 . S
Nd816 O839 2.682 . S
Nd816 O840 2.410 . S
Nd816 O845 2.414 . S
Nd816 O847 2.424 . S
Nd817 C827 2.836 . S
Nd817 O839 2.414 . S
Nd817 O841 2.424 . S
Nd817 O842 2.500 . S
Nd817 O843 2.492 . S
Nd817 O844 2.487 . S
Nd817 O845 2.682 . S
Nd817 O846 2.410 . S
C818 Nd816 2.836 . S
C818 C819 1.498 . S
C818 O836 1.258 . S
C818 O837 1.239 . S
C819 C818 1.498 . S
C819 C820 1.366 . S
C819 C824 1.407 . S
C820 C819 1.366 . S
C820 C821 1.392 . S
C820 H848 0.930 . S
C821 C820 1.392 . S
C821 C822 1.398 . S
C821 H849 0.929 . S
C822 C821 1.398 . S
C822 C823 1.352 . S
C823 C822 1.352 . S
C823 C824 1.384 . S
C823 H850 0.930 . S
C824 C819 1.407 . S
C824 C823 1.384 . S
C824 H851 0.929 . S
C825 O838 1.241 . S
C825 O839 1.273 . S
C826 O840 1.251 . S
C826 O841 1.268 . S
C827 Nd817 2.836 . S
C827 C828 1.498 . S
C827 O842 1.258 . S
C827 O843 1.239 . S
C828 C827 1.498 . S
C828 C829 1.366 . S
C828 C833 1.407 . S
C829 C828 1.366 . S
C829 C830 1.392 . S
C829 H852 0.930 . S
C830 C829 1.392 . S
C830 C831 1.398 . S
C830 H853 0.929 . S
C831 C830 1.398 . S
C831 C832 1.352 . S
C832 C831 1.352 . S
C832 C833 1.384 . S
C832 H854 0.930 . S
C833 C828 1.407 . S
C833 C832 1.384 . S
C833 H855 0.929 . S
C834 O844 1.241 . S
C834 O845 1.273 . S
C835 O846 1.251 . S
C835 O847 1.268 . S
O836 Nd816 2.500 . S
O836 C818 1.258 . S
O837 Nd816 2.492 . S
O837 C818 1.239 . S
O838 Nd816 2.487 . S
O838 C825 1.241 . S
O839 Nd816 2.682 . S
O839 Nd817 2.414 . S
O839 C825 1.273 . S
O840 Nd816 2.410 . S
O840 C826 1.251 . S
O841 Nd817 2.424 . S
O841 C826 1.268 . S
O842 Nd817 2.500 . S
O842 C827 1.258 . S
O843 Nd817 2.492 . S
O843 C827 1.239 . S
O844 Nd817 2.487 . S
O844 C834 1.241 . S
O845 Nd816 2.414 . S
O845 Nd817 2.682 . S
O845 C834 1.273 . S
O846 Nd817 2.410 . S
O846 C835 1.251 . S
O847 Nd816 2.424 . S
O847 C835 1.268 . S
H848 C820 0.930 . S
H849 C821 0.929 . S
H850 C823 0.930 . S
H851 C824 0.929 . S
H852 C829 0.930 . S
H853 C830 0.929 . S
H854 C832 0.930 . S
H855 C833 0.929 . S
Nd856 C858 2.836 . S
Nd856 O876 2.500 . S
Nd856 O877 2.492 . S
Nd856 O878 2.487 . S
Nd856 O879 2.682 . S
Nd856 O880 2.410 . S
Nd856 O885 2.414 . S
Nd856 O887 2.424 . S
Nd857 C867 2.836 . S
Nd857 O879 2.414 . S
Nd857 O881 2.424 . S
Nd857 O882 2.500 . S
Nd857 O883 2.492 . S
Nd857 O884 2.487 . S
Nd857 O885 2.682 . S
Nd857 O886 2.410 . S
C858 Nd856 2.836 . S
C858 C859 1.498 . S
C858 O876 1.258 . S
C858 O877 1.239 . S
C859 C858 1.498 . S
C859 C860 1.366 . S
C859 C864 1.407 . S
C860 C859 1.366 . S
C860 C861 1.392 . S
C860 H888 0.930 . S
C861 C860 1.392 . S
C861 C862 1.398 . S
C861 H889 0.929 . S
C862 C861 1.398 . S
C862 C863 1.352 . S
C863 C862 1.352 . S
C863 C864 1.384 . S
C863 H890 0.930 . S
C864 C859 1.407 . S
C864 C863 1.384 . S
C864 H891 0.929 . S
C865 O878 1.241 . S
C865 O879 1.273 . S
C866 O880 1.251 . S
C866 O881 1.268 . S
C867 Nd857 2.836 . S
C867 C868 1.498 . S
C867 O882 1.258 . S
C867 O883 1.239 . S
C868 C867 1.498 . S
C868 C869 1.366 . S
C868 C873 1.407 . S
C869 C868 1.366 . S
C869 C870 1.392 . S
C869 H892 0.930 . S
C870 C869 1.392 . S
C870 C871 1.398 . S
C870 H893 0.929 . S
C871 C870 1.398 . S
C871 C872 1.352 . S
C872 C871 1.352 . S
C872 C873 1.384 . S
C872 H894 0.930 . S
C873 C868 1.407 . S
C873 C872 1.384 . S
C873 H895 0.929 . S
C874 O884 1.241 . S
C874 O885 1.273 . S
C875 O886 1.251 . S
C875 O887 1.268 . S
O876 Nd856 2.500 . S
O876 C858 1.258 . S
O877 Nd856 2.492 . S
O877 C858 1.239 . S
O878 Nd856 2.487 . S
O878 C865 1.241 . S
O879 Nd856 2.682 . S
O879 Nd857 2.414 . S
O879 C865 1.273 . S
O880 Nd856 2.410 . S
O880 C866 1.251 . S
O881 Nd857 2.424 . S
O881 C866 1.268 . S
O882 Nd857 2.500 . S
O882 C867 1.258 . S
O883 Nd857 2.492 . S
O883 C867 1.239 . S
O884 Nd857 2.487 . S
O884 C874 1.241 . S
O885 Nd856 2.414 . S
O885 Nd857 2.682 . S
O885 C874 1.273 . S
O886 Nd857 2.410 . S
O886 C875 1.251 . S
O887 Nd856 2.424 . S
O887 C875 1.268 . S
H888 C860 0.930 . S
H889 C861 0.929 . S
H890 C863 0.930 . S
H891 C864 0.929 . S
H892 C869 0.930 . S
H893 C870 0.929 . S
H894 C872 0.930 . S
H895 C873 0.929 . S
Nd896 C898 2.836 . S
Nd896 O916 2.500 . S
Nd896 O917 2.492 . S
Nd896 O918 2.487 . S
Nd896 O919 2.682 . S
Nd896 O920 2.410 . S
Nd896 O925 2.414 . S
Nd896 O927 2.424 . S
Nd897 C907 2.836 . S
Nd897 O919 2.414 . S
Nd897 O921 2.424 . S
Nd897 O922 2.500 . S
Nd897 O923 2.492 . S
Nd897 O924 2.487 . S
Nd897 O925 2.682 . S
Nd897 O926 2.410 . S
C898 Nd896 2.836 . S
C898 C899 1.498 . S
C898 O916 1.258 . S
C898 O917 1.239 . S
C899 C898 1.498 . S
C899 C900 1.366 . S
C899 C904 1.407 . S
C900 C899 1.366 . S
C900 C901 1.392 . S
C900 H928 0.930 . S
C901 C900 1.392 . S
C901 C902 1.398 . S
C901 H929 0.929 . S
C902 C901 1.398 . S
C902 C903 1.352 . S
C903 C902 1.352 . S
C903 C904 1.384 . S
C903 H930 0.930 . S
C904 C899 1.407 . S
C904 C903 1.384 . S
C904 H931 0.929 . S
C905 O918 1.241 . S
C905 O919 1.273 . S
C906 O920 1.251 . S
C906 O921 1.268 . S
C907 Nd897 2.836 . S
C907 C908 1.498 . S
C907 O922 1.258 . S
C907 O923 1.239 . S
C908 C907 1.498 . S
C908 C909 1.366 . S
C908 C913 1.407 . S
C909 C908 1.366 . S
C909 C910 1.392 . S
C909 H932 0.930 . S
C910 C909 1.392 . S
C910 C911 1.398 . S
C910 H933 0.929 . S
C911 C910 1.398 . S
C911 C912 1.352 . S
C912 C911 1.352 . S
C912 C913 1.384 . S
C912 H934 0.930 . S
C913 C908 1.407 . S
C913 C912 1.384 . S
C913 H935 0.929 . S
C914 O924 1.241 . S
C914 O925 1.273 . S
C915 O926 1.251 . S
C915 O927 1.268 . S
O916 Nd896 2.500 . S
O916 C898 1.258 . S
O917 Nd896 2.492 . S
O917 C898 1.239 . S
O918 Nd896 2.487 . S
O918 C905 1.241 . S
O919 Nd896 2.682 . S
O919 Nd897 2.414 . S
O919 C905 1.273 . S
O920 Nd896 2.410 . S
O920 C906 1.251 . S
O921 Nd897 2.424 . S
O921 C906 1.268 . S
O922 Nd897 2.500 . S
O922 C907 1.258 . S
O923 Nd897 2.492 . S
O923 C907 1.239 . S
O924 Nd897 2.487 . S
O924 C914 1.241 . S
O925 Nd896 2.414 . S
O925 Nd897 2.682 . S
O925 C914 1.273 . S
O926 Nd897 2.410 . S
O926 C915 1.251 . S
O927 Nd896 2.424 . S
O927 C915 1.268 . S
H928 C900 0.930 . S
H929 C901 0.929 . S
H930 C903 0.930 . S
H931 C904 0.929 . S
H932 C909 0.930 . S
H933 C910 0.929 . S
H934 C912 0.930 . S
H935 C913 0.929 . S
Nd936 C938 2.836 . S
Nd936 O956 2.500 . S
Nd936 O957 2.492 . S
Nd936 O958 2.487 . S
Nd936 O959 2.682 . S
Nd936 O960 2.410 . S
Nd936 O965 2.414 . S
Nd936 O967 2.424 . S
Nd937 C947 2.836 . S
Nd937 O959 2.414 1_655 S
Nd937 O961 2.424 1_655 S
Nd937 O962 2.500 . S
Nd937 O963 2.492 . S
Nd937 O964 2.487 . S
Nd937 O965 2.682 1_655 S
Nd937 O966 2.410 1_655 S
C938 Nd936 2.836 . S
C938 C939 1.498 . S
C938 O956 1.258 . S
C938 O957 1.239 . S
C939 C938 1.498 . S
C939 C940 1.366 . S
C939 C944 1.407 . S
C940 C939 1.366 . S
C940 C941 1.392 . S
C940 H968 0.930 . S
C941 C940 1.392 . S
C941 C942 1.398 . S
C941 H969 0.874 1_554 S
C942 C941 1.398 . S
C942 C943 1.352 . S
C943 C942 1.352 . S
C943 C944 1.384 . S
C943 H970 0.930 . S
C944 C939 1.407 . S
C944 C943 1.384 . S
C944 H971 0.929 . S
C945 O958 1.241 . S
C945 O959 1.273 . S
C946 O960 1.251 . S
C946 O961 1.268 . S
C947 Nd937 2.836 . S
C947 C948 1.498 . S
C947 O962 1.258 . S
C947 O963 1.239 . S
C948 C947 1.498 . S
C948 C949 1.366 . S
C948 C953 1.407 . S
C949 C948 1.366 . S
C949 C950 1.392 . S
C949 H972 0.930 . S
C950 C949 1.392 . S
C950 C951 1.398 . S
C950 H973 0.929 . S
C951 C950 1.398 . S
C951 C952 1.352 . S
C952 C951 1.352 . S
C952 C953 1.384 . S
C952 H974 0.930 . S
C953 C948 1.407 . S
C953 C952 1.384 . S
C953 H975 0.929 . S
C954 O964 1.241 1_455 S
C954 O965 1.273 . S
C955 O966 1.251 . S
C955 O967 1.268 . S
O956 Nd936 2.500 . S
O956 C938 1.258 . S
O957 Nd936 2.492 . S
O957 C938 1.239 . S
O958 Nd936 2.487 . S
O958 C945 1.241 . S
O959 Nd936 2.682 . S
O959 Nd937 2.414 1_455 S
O959 C945 1.273 . S
O960 Nd936 2.410 . S
O960 C946 1.251 . S
O961 Nd937 2.424 1_455 S
O961 C946 1.268 . S
O962 Nd937 2.500 . S
O962 C947 1.258 . S
O963 Nd937 2.492 . S
O963 C947 1.239 . S
O964 Nd937 2.487 . S
O964 C954 1.241 1_655 S
O965 Nd936 2.414 . S
O965 Nd937 2.682 1_455 S
O965 C954 1.273 . S
O966 Nd937 2.410 1_455 S
O966 C955 1.251 . S
O967 Nd936 2.424 . S
O967 C955 1.268 . S
H968 C940 0.930 . S
H969 C941 0.874 1_556 S
H970 C943 0.930 . S
H971 C944 0.929 . S
H972 C949 0.930 . S
H973 C950 0.929 . S
H974 C952 0.930 . S
H975 C953 0.929 . S
H976 C984 0.929 1_655 S
H977 C986 0.930 1_655 S
H978 C988 0.930 . S
H979 C991 0.929 . S
H980 C994 0.930 . S
H981 C996 0.974 . S
H982 C996 0.959 1_556 S
H983 C996 0.952 1_556 S
C984 H976 0.929 1_455 S
C984 C985 1.377 . S
C984 C986 1.384 . S
C985 C984 1.377 . S
C985 C991 1.390 . S
C986 H977 0.930 1_455 S
C986 C984 1.384 . S
C986 C987 1.372 . S
C987 C986 1.372 . S
C987 C988 1.400 . S
C987 C992 1.490 . S
C988 H978 0.930 . S
C988 C987 1.400 . S
C988 C991 1.386 . S
H989 C1005 0.930 . S
H990 C1006 0.931 . S
C991 H979 0.929 . S
C991 C985 1.390 . S
C991 C988 1.386 . S
C992 C987 1.490 . S
C992 C994 1.395 . S
C992 C995 1.403 . S
H993 C999 0.899 1_554 S
C994 H980 0.930 . S
C994 C992 1.395 . S
C994 C997 1.403 . S
C995 C992 1.403 . S
C995 C996 1.520 1_556 S
C995 C999 1.422 . S
C996 H981 0.974 . S
C996 H982 0.959 1_554 S
C996 H983 0.952 1_554 S
C996 C995 1.520 1_554 S
C997 C994 1.403 . S
C997 C998 1.392 . S
C997 C1001 1.495 . S
C998 C997 1.392 . S
C998 C999 1.393 . S
C998 C1000 1.478 1_556 S
C999 H993 0.899 1_556 S
C999 C995 1.422 . S
C999 C998 1.393 . S
C1000 C998 1.478 1_554 S
C1000 C1002 1.381 . S
C1000 C1006 1.383 . S
C1001 C997 1.495 . S
C1001 H1007 0.959 1_455 S
C1001 H1008 0.961 . S
C1001 H1009 0.960 1_455 S
C1002 C1000 1.381 . S
C1002 C1003 1.394 . S
C1002 H1010 0.930 1_455 S
C1003 C1002 1.394 . S
C1003 C1004 1.383 . S
C1003 H1011 0.929 1_455 S
C1004 C1003 1.383 . S
C1004 C1005 1.377 . S
C1005 H989 0.930 . S
C1005 C1004 1.377 . S
C1005 C1006 1.379 . S
C1006 H990 0.931 . S
C1006 C1000 1.383 . S
C1006 C1005 1.379 . S
H1007 C1001 0.959 1_655 S
H1008 C1001 0.961 . S
H1009 C1001 0.960 1_655 S
H1010 C1002 0.930 1_655 S
H1011 C1003 0.929 1_655 S
H1012 C1020 0.929 . S
H1013 C1022 0.930 . S
H1014 C1024 0.930 . S
H1015 C1027 0.929 . S
H1016 C1030 0.930 . S
H1017 C1032 0.960 . S
H1018 C1032 0.960 . S
H1019 C1032 0.960 . S
C1020 H1012 0.929 . S
C1020 C1021 1.377 . S
C1020 C1022 1.384 . S
C1021 C1020 1.377 . S
C1021 C1027 1.390 . S
C1022 H1013 0.930 . S
C1022 C1020 1.384 . S
C1022 C1023 1.372 . S
C1023 C1022 1.372 . S
C1023 C1024 1.400 . S
C1023 C1028 1.490 . S
C1024 H1014 0.930 . S
C1024 C1023 1.400 . S
C1024 C1027 1.386 . S
H1025 C1041 0.930 . S
H1026 C1042 0.931 . S
C1027 H1015 0.929 . S
C1027 C1021 1.390 . S
C1027 C1024 1.386 . S
C1028 C1023 1.490 . S
C1028 C1030 1.395 . S
C1028 C1031 1.403 . S
H1029 C1035 0.930 . S
C1030 H1016 0.930 . S
C1030 C1028 1.395 . S
C1030 C1033 1.403 . S
C1031 C1028 1.403 . S
C1031 C1032 1.524 . S
C1031 C1035 1.400 . S
C1032 H1017 0.960 . S
C1032 H1018 0.960 . S
C1032 H1019 0.960 . S
C1032 C1031 1.524 . S
C1033 C1030 1.403 . S
C1033 C1034 1.392 . S
C1033 C1037 1.495 . S
C1034 C1033 1.392 . S
C1034 C1035 1.385 . S
C1034 C1036 1.478 . S
C1035 H1029 0.930 . S
C1035 C1031 1.400 . S
C1035 C1034 1.385 . S
C1036 C1034 1.478 . S
C1036 C1038 1.381 . S
C1036 C1042 1.383 . S
C1037 C1033 1.495 . S
C1037 H1043 0.959 . S
C1037 H1044 0.961 . S
C1037 H1045 0.960 . S
C1038 C1036 1.381 . S
C1038 C1039 1.394 . S
C1038 H1046 0.930 . S
C1039 C1038 1.394 . S
C1039 C1040 1.383 . S
C1039 H1047 0.929 . S
C1040 C1039 1.383 . S
C1040 C1041 1.377 . S
C1041 H1025 0.930 . S
C1041 C1040 1.377 . S
C1041 C1042 1.379 . S
C1042 H1026 0.931 . S
C1042 C1036 1.383 . S
C1042 C1041 1.379 . S
H1043 C1037 0.959 . S
H1044 C1037 0.961 . S
H1045 C1037 0.960 . S
H1046 C1038 0.930 . S
H1047 C1039 0.929 . S
H1048 C1056 0.929 . S
H1049 C1058 0.930 . S
H1050 C1060 0.930 . S
H1051 C1063 0.929 . S
H1052 C1066 0.930 . S
H1053 C1068 0.960 . S
H1054 C1068 0.960 . S
H1055 C1068 0.960 . S
C1056 H1048 0.929 . S
C1056 C1057 1.377 . S
C1056 C1058 1.384 . S
C1057 C1056 1.377 . S
C1057 C1063 1.390 . S
C1058 H1049 0.930 . S
C1058 C1056 1.384 . S
C1058 C1059 1.372 . S
C1059 C1058 1.372 . S
C1059 C1060 1.400 . S
C1059 C1064 1.490 . S
C1060 H1050 0.930 . S
C1060 C1059 1.400 . S
C1060 C1063 1.386 . S
H1061 C1077 0.930 . S
H1062 C1078 0.931 . S
C1063 H1051 0.929 . S
C1063 C1057 1.390 . S
C1063 C1060 1.386 . S
C1064 C1059 1.490 . S
C1064 C1066 1.395 . S
C1064 C1067 1.403 . S
H1065 C1071 0.930 . S
C1066 H1052 0.930 . S
C1066 C1064 1.395 . S
C1066 C1069 1.403 . S
C1067 C1064 1.403 . S
C1067 C1068 1.524 . S
C1067 C1071 1.400 . S
C1068 H1053 0.960 . S
C1068 H1054 0.960 . S
C1068 H1055 0.960 . S
C1068 C1067 1.524 . S
C1069 C1066 1.403 . S
C1069 C1070 1.392 . S
C1069 C1073 1.495 . S
C1070 C1069 1.392 . S
C1070 C1071 1.385 . S
C1070 C1072 1.478 . S
C1071 H1065 0.930 . S
C1071 C1067 1.400 . S
C1071 C1070 1.385 . S
C1072 C1070 1.478 . S
C1072 C1074 1.381 . S
C1072 C1078 1.383 . S
C1073 C1069 1.495 . S
C1073 H1079 0.959 . S
C1073 H1080 0.961 . S
C1073 H1081 0.960 . S
C1074 C1072 1.381 . S
C1074 C1075 1.394 . S
C1074 H1082 0.930 . S
C1075 C1074 1.394 . S
C1075 C1076 1.383 1_565 S
C1075 H1083 0.929 1_565 S
C1076 C1075 1.383 1_545 S
C1076 C1077 1.377 1_545 S
C1077 H1061 0.930 . S
C1077 C1076 1.377 1_565 S
C1077 C1078 1.379 . S
C1078 H1062 0.931 . S
C1078 C1072 1.383 . S
C1078 C1077 1.379 . S
H1079 C1073 0.959 . S
H1080 C1073 0.961 . S
H1081 C1073 0.960 . S
H1082 C1074 0.930 . S
H1083 C1075 0.929 1_545 S
H1084 C1092 0.929 . S
H1085 C1094 0.930 . S
H1086 C1096 0.930 . S
H1087 C1099 0.929 . S
H1088 C1102 0.930 . S
H1089 C1104 0.960 . S
H1090 C1104 0.960 . S
H1091 C1104 0.960 . S
C1092 H1084 0.929 . S
C1092 C1093 1.377 . S
C1092 C1094 1.384 . S
C1093 C1092 1.377 . S
C1093 C1099 1.390 . S
C1094 H1085 0.930 . S
C1094 C1092 1.384 . S
C1094 C1095 1.372 . S
C1095 C1094 1.372 . S
C1095 C1096 1.400 . S
C1095 C1100 1.490 . S
C1096 H1086 0.930 . S
C1096 C1095 1.400 . S
C1096 C1099 1.386 . S
H1097 C1113 0.930 . S
H1098 C1114 0.931 . S
C1099 H1087 0.929 . S
C1099 C1093 1.390 . S
C1099 C1096 1.386 . S
C1100 C1095 1.490 . S
C1100 C1102 1.395 . S
C1100 C1103 1.403 . S
H1101 C1107 0.930 . S
C1102 H1088 0.930 . S
C1102 C1100 1.395 . S
C1102 C1105 1.403 . S
C1103 C1100 1.403 . S
C1103 C1104 1.524 . S
C1103 C1107 1.400 . S
C1104 H1089 0.960 . S
C1104 H1090 0.960 . S
C1104 H1091 0.960 . S
C1104 C1103 1.524 . S
C1105 C1102 1.403 . S
C1105 C1106 1.392 . S
C1105 C1109 1.495 . S
C1106 C1105 1.392 . S
C1106 C1107 1.385 . S
C1106 C1108 1.478 . S
C1107 H1101 0.930 . S
C1107 C1103 1.400 . S
C1107 C1106 1.385 . S
C1108 C1106 1.478 . S
C1108 C1110 1.381 . S
C1108 C1114 1.383 . S
C1109 C1105 1.495 . S
C1109 H1115 0.959 . S
C1109 H1116 0.961 . S
C1109 H1117 0.960 . S
C1110 C1108 1.381 . S
C1110 C1111 1.394 . S
C1110 H1118 0.930 . S
C1111 C1110 1.394 . S
C1111 C1112 1.383 . S
C1111 H1119 0.929 . S
C1112 C1111 1.383 . S
C1112 C1113 1.377 . S
C1113 H1097 0.930 . S
C1113 C1112 1.377 . S
C1113 C1114 1.379 . S
C1114 H1098 0.931 . S
C1114 C1108 1.383 . S
C1114 C1113 1.379 . S
H1115 C1109 0.959 . S
H1116 C1109 0.961 . S
H1117 C1109 0.960 . S
H1118 C1110 0.930 . S
H1119 C1111 0.929 . S
H1120 C1128 0.929 . S
H1121 C1130 0.930 . S
H1122 C1132 0.930 . S
H1123 C1135 0.929 . S
H1124 C1138 0.930 . S
H1125 C1140 0.960 . S
H1126 C1140 0.960 . S
H1127 C1140 0.960 . S
C1128 H1120 0.929 . S
C1128 C1129 1.386 . S
C1128 C1130 1.384 . S
C1129 C1128 1.386 . S
C1129 C1135 1.380 1_655 S
C1130 H1121 0.930 . S
C1130 C1128 1.384 . S
C1130 C1131 1.372 1_655 S
C1131 C1130 1.372 1_455 S
C1131 C1132 1.400 . S
C1131 C1136 1.490 . S
C1132 H1122 0.930 . S
C1132 C1131 1.400 . S
C1132 C1135 1.386 . S
H1133 C1149 0.930 . S
H1134 C1150 0.931 . S
C1135 H1123 0.929 . S
C1135 C1129 1.380 1_455 S
C1135 C1132 1.386 . S
C1136 C1131 1.490 . S
C1136 C1138 1.395 1_455 S
C1136 C1139 1.403 . S
H1137 C1143 0.930 . S
C1138 H1124 0.930 . S
C1138 C1136 1.395 1_655 S
C1138 C1141 1.406 1_655 S
C1139 C1136 1.403 . S
C1139 C1140 1.524 . S
C1139 C1143 1.400 . S
C1140 H1125 0.960 . S
C1140 H1126 0.960 . S
C1140 H1127 0.960 . S
C1140 C1139 1.524 . S
C1141 C1138 1.406 1_455 S
C1141 C1142 1.442 . S
C1141 C1145 1.446 1_455 S
C1142 C1141 1.442 . S
C1142 C1143 1.385 . S
C1142 C1144 1.478 . S
C1143 H1137 0.930 . S
C1143 C1139 1.400 . S
C1143 C1142 1.385 . S
C1144 C1142 1.478 . S
C1144 C1146 1.381 . S
C1144 C1150 1.383 . S
C1145 C1141 1.446 1_655 S
C1145 H1151 0.959 . S
C1145 H1152 0.961 . S
C1145 H1153 0.960 . S
C1146 C1144 1.381 . S
C1146 C1147 1.394 . S
C1146 H1154 0.930 . S
C1147 C1146 1.394 . S
C1147 C1148 1.383 . S
C1147 H1155 0.929 . S
C1148 C1147 1.383 . S
C1148 C1149 1.377 . S
C1149 H1133 0.930 . S
C1149 C1148 1.377 . S
C1149 C1150 1.379 . S
C1150 H1134 0.931 . S
C1150 C1144 1.383 . S
C1150 C1149 1.379 . S
H1151 C1145 0.959 . S
H1152 C1145 0.961 . S
H1153 C1145 0.960 . S
H1154 C1146 0.930 . S
H1155 C1147 0.929 . S
H1156 C1164 0.929 . S
H1157 C1166 0.930 . S
H1158 C1168 0.930 . S
H1159 C1171 0.929 . S
H1160 C1174 0.930 . S
H1161 C1176 0.960 . S
H1162 C1176 0.960 . S
H1163 C1176 0.960 . S
C1164 H1156 0.929 . S
C1164 C1165 1.377 . S
C1164 C1166 1.384 . S
C1165 C1164 1.377 . S
C1165 C1171 1.390 . S
C1166 H1157 0.930 . S
C1166 C1164 1.384 . S
C1166 C1167 1.372 . S
C1167 C1166 1.372 . S
C1167 C1168 1.400 . S
C1167 C1172 1.490 . S
C1168 H1158 0.930 . S
C1168 C1167 1.400 . S
C1168 C1171 1.386 . S
H1169 C1185 0.930 . S
H1170 C1186 0.931 . S
C1171 H1159 0.929 . S
C1171 C1165 1.390 . S
C1171 C1168 1.386 . S
C1172 C1167 1.490 . S
C1172 C1174 1.395 . S
C1172 C1175 1.403 . S
H1173 C1179 0.930 . S
C1174 H1160 0.930 . S
C1174 C1172 1.395 . S
C1174 C1177 1.403 . S
C1175 C1172 1.403 . S
C1175 C1176 1.524 . S
C1175 C1179 1.400 . S
C1176 H1161 0.960 . S
C1176 H1162 0.960 . S
C1176 H1163 0.960 . S
C1176 C1175 1.524 . S
C1177 C1174 1.403 . S
C1177 C1178 1.392 . S
C1177 C1181 1.495 . S
C1178 C1177 1.392 . S
C1178 C1179 1.385 . S
C1178 C1180 1.478 . S
C1179 H1173 0.930 . S
C1179 C1175 1.400 . S
C1179 C1178 1.385 . S
C1180 C1178 1.478 . S
C1180 C1182 1.381 . S
C1180 C1186 1.383 . S
C1181 C1177 1.495 . S
C1181 H1187 0.959 . S
C1181 H1188 0.961 . S
C1181 H1189 0.960 . S
C1182 C1180 1.381 . S
C1182 C1183 1.394 . S
C1182 H1190 0.930 . S
C1183 C1182 1.394 . S
C1183 C1184 1.383 . S
C1183 H1191 0.929 . S
C1184 C1183 1.383 . S
C1184 C1185 1.377 . S
C1185 H1169 0.930 . S
C1185 C1184 1.377 . S
C1185 C1186 1.379 . S
C1186 H1170 0.931 . S
C1186 C1180 1.383 . S
C1186 C1185 1.379 . S
H1187 C1181 0.959 . S
H1188 C1181 0.961 . S
H1189 C1181 0.960 . S
H1190 C1182 0.930 . S
H1191 C1183 0.929 . S
H1192 C1200 0.929 . S
H1193 C1202 0.930 . S
H1194 C1204 0.930 . S
H1195 C1207 0.929 . S
H1196 C1210 0.930 . S
H1197 C1212 0.960 . S
H1198 C1212 0.960 . S
H1199 C1212 0.960 . S
C1200 H1192 0.929 . S
C1200 C1201 1.377 . S
C1200 C1202 1.384 . S
C1201 C1200 1.377 . S
C1201 C1207 1.390 . S
C1202 H1193 0.930 . S
C1202 C1200 1.384 . S
C1202 C1203 1.372 . S
C1203 C1202 1.372 . S
C1203 C1204 1.400 . S
C1203 C1208 1.490 . S
C1204 H1194 0.930 . S
C1204 C1203 1.400 . S
C1204 C1207 1.386 . S
H1205 C1221 0.930 . S
H1206 C1222 0.931 . S
C1207 H1195 0.929 . S
C1207 C1201 1.390 . S
C1207 C1204 1.386 . S
C1208 C1203 1.490 . S
C1208 C1210 1.395 . S
C1208 C1211 1.403 . S
H1209 C1215 0.930 . S
C1210 H1196 0.930 . S
C1210 C1208 1.395 . S
C1210 C1213 1.403 . S
C1211 C1208 1.403 . S
C1211 C1212 1.524 . S
C1211 C1215 1.400 . S
C1212 H1197 0.960 . S
C1212 H1198 0.960 . S
C1212 H1199 0.960 . S
C1212 C1211 1.524 . S
C1213 C1210 1.403 . S
C1213 C1214 1.392 . S
C1213 C1217 1.495 . S
C1214 C1213 1.392 . S
C1214 C1215 1.385 . S
C1214 C1216 1.478 . S
C1215 H1209 0.930 . S
C1215 C1211 1.400 . S
C1215 C1214 1.385 . S
C1216 C1214 1.478 . S
C1216 C1218 1.381 . S
C1216 C1222 1.383 . S
C1217 C1213 1.495 . S
C1217 H1223 0.959 . S
C1217 H1224 0.961 . S
C1217 H1225 0.960 . S
C1218 C1216 1.381 . S
C1218 C1219 1.394 . S
C1218 H1226 0.930 . S
C1219 C1218 1.394 . S
C1219 C1220 1.383 . S
C1219 H1227 0.929 . S
C1220 C1219 1.383 . S
C1220 C1221 1.377 . S
C1221 H1205 0.930 . S
C1221 C1220 1.377 . S
C1221 C1222 1.379 . S
C1222 H1206 0.931 . S
C1222 C1216 1.383 . S
C1222 C1221 1.379 . S
H1223 C1217 0.959 . S
H1224 C1217 0.961 . S
H1225 C1217 0.960 . S
H1226 C1218 0.930 . S
H1227 C1219 0.929 . S
H1228 C1236 0.929 . S
H1229 C1238 0.930 . S
H1230 C1240 0.930 . S
H1231 C1243 0.929 . S
H1232 C1246 0.930 . S
H1233 C1248 0.960 . S
H1234 C1248 0.960 . S
H1235 C1248 0.960 . S
C1236 H1228 0.929 . S
C1236 C1237 1.377 . S
C1236 C1238 1.384 . S
C1237 C1236 1.377 . S
C1237 C1243 1.390 . S
C1238 H1229 0.930 . S
C1238 C1236 1.384 . S
C1238 C1239 1.372 . S
C1239 C1238 1.372 . S
C1239 C1240 1.400 . S
C1239 C1244 1.490 . S
C1240 H1230 0.930 . S
C1240 C1239 1.400 . S
C1240 C1243 1.386 . S
H1241 C1257 0.930 . S
H1242 C1258 0.931 . S
C1243 H1231 0.929 . S
C1243 C1237 1.390 . S
C1243 C1240 1.386 . S
C1244 C1239 1.490 . S
C1244 C1246 1.395 . S
C1244 C1247 1.403 . S
H1245 C1251 0.930 . S
C1246 H1232 0.930 . S
C1246 C1244 1.395 . S
C1246 C1249 1.403 . S
C1247 C1244 1.403 . S
C1247 C1248 1.524 . S
C1247 C1251 1.400 . S
C1248 H1233 0.960 . S
C1248 H1234 0.960 . S
C1248 H1235 0.960 . S
C1248 C1247 1.524 . S
C1249 C1246 1.403 . S
C1249 C1250 1.392 . S
C1249 C1253 1.495 . S
C1250 C1249 1.392 . S
C1250 C1251 1.385 . S
C1250 C1252 1.478 . S
C1251 H1245 0.930 . S
C1251 C1247 1.400 . S
C1251 C1250 1.385 . S
C1252 C1250 1.478 . S
C1252 C1254 1.381 . S
C1252 C1258 1.383 . S
C1253 C1249 1.495 . S
C1253 H1259 0.959 . S
C1253 H1260 0.961 . S
C1253 H1261 0.960 . S
C1254 C1252 1.381 . S
C1254 C1255 1.394 . S
C1254 H1262 0.930 . S
C1255 C1254 1.394 . S
C1255 C1256 1.383 . S
C1255 H1263 0.929 . S
C1256 C1255 1.383 . S
C1256 C1257 1.377 . S
C1257 H1241 0.930 . S
C1257 C1256 1.377 . S
C1257 C1258 1.379 . S
C1258 H1242 0.931 . S
C1258 C1252 1.383 . S
C1258 C1257 1.379 . S
H1259 C1253 0.959 . S
H1260 C1253 0.961 . S
H1261 C1253 0.960 . S
H1262 C1254 0.930 . S
H1263 C1255 0.929 . S
H1264 C1272 0.929 . S
H1265 C1274 0.930 . S
H1266 C1276 0.930 . S
H1267 C1279 0.929 . S
H1268 C1282 0.930 . S
H1269 C1284 0.960 . S
H1270 C1284 0.960 . S
H1271 C1284 0.960 . S
C1272 H1264 0.929 . S
C1272 C1273 1.377 . S
C1272 C1274 1.384 . S
C1273 C1272 1.377 . S
C1273 C1279 1.390 . S
C1274 H1265 0.930 . S
C1274 C1272 1.384 . S
C1274 C1275 1.372 . S
C1275 C1274 1.372 . S
C1275 C1276 1.400 . S
C1275 C1280 1.490 . S
C1276 H1266 0.930 . S
C1276 C1275 1.400 . S
C1276 C1279 1.386 . S
H1277 C1293 0.930 . S
H1278 C1294 0.931 . S
C1279 H1267 0.929 . S
C1279 C1273 1.390 . S
C1279 C1276 1.386 . S
C1280 C1275 1.490 . S
C1280 C1282 1.395 . S
C1280 C1283 1.403 . S
H1281 C1287 0.930 . S
C1282 H1268 0.930 . S
C1282 C1280 1.395 . S
C1282 C1285 1.403 . S
C1283 C1280 1.403 . S
C1283 C1284 1.524 . S
C1283 C1287 1.400 . S
C1284 H1269 0.960 . S
C1284 H1270 0.960 . S
C1284 H1271 0.960 . S
C1284 C1283 1.524 . S
C1285 C1282 1.403 . S
C1285 C1286 1.392 . S
C1285 C1289 1.495 . S
C1286 C1285 1.392 . S
C1286 C1287 1.385 . S
C1286 C1288 1.478 . S
C1287 H1281 0.930 . S
C1287 C1283 1.400 . S
C1287 C1286 1.385 . S
C1288 C1286 1.478 . S
C1288 C1290 1.381 . S
C1288 C1294 1.383 . S
C1289 C1285 1.495 . S
C1289 H1295 0.959 . S
C1289 H1296 0.961 . S
C1289 H1297 0.960 . S
C1290 C1288 1.381 . S
C1290 C1291 1.394 . S
C1290 H1298 0.930 . S
C1291 C1290 1.394 . S
C1291 C1292 1.383 . S
C1291 H1299 0.929 . S
C1292 C1291 1.383 . S
C1292 C1293 1.377 . S
C1293 H1277 0.930 . S
C1293 C1292 1.377 . S
C1293 C1294 1.379 . S
C1294 H1278 0.931 . S
C1294 C1288 1.383 . S
C1294 C1293 1.379 . S
H1295 C1289 0.959 . S
H1296 C1289 0.961 . S
H1297 C1289 0.960 . S
H1298 C1290 0.930 . S
H1299 C1291 0.929 . S
H1300 C1308 0.929 . S
H1301 C1310 0.930 . S
H1302 C1312 0.930 . S
H1303 C1315 0.929 . S
H1304 C1318 0.930 . S
H1305 C1320 0.960 . S
H1306 C1320 0.960 . S
H1307 C1320 0.960 . S
C1308 H1300 0.929 . S
C1308 C1309 1.377 . S
C1308 C1310 1.384 . S
C1309 C1308 1.377 . S
C1309 C1315 1.390 . S
C1310 H1301 0.930 . S
C1310 C1308 1.384 . S
C1310 C1311 1.372 . S
C1311 C1310 1.372 . S
C1311 C1312 1.400 . S
C1311 C1316 1.490 . S
C1312 H1302 0.930 . S
C1312 C1311 1.400 . S
C1312 C1315 1.386 . S
H1313 C1329 0.930 . S
H1314 C1330 0.931 . S
C1315 H1303 0.929 . S
C1315 C1309 1.390 . S
C1315 C1312 1.386 . S
C1316 C1311 1.490 . S
C1316 C1318 1.395 . S
C1316 C1319 1.403 . S
H1317 C1323 0.930 . S
C1318 H1304 0.930 . S
C1318 C1316 1.395 . S
C1318 C1321 1.403 . S
C1319 C1316 1.403 . S
C1319 C1320 1.524 . S
C1319 C1323 1.400 . S
C1320 H1305 0.960 . S
C1320 H1306 0.960 . S
C1320 H1307 0.960 . S
C1320 C1319 1.524 . S
C1321 C1318 1.403 . S
C1321 C1322 1.392 . S
C1321 C1325 1.495 . S
C1322 C1321 1.392 . S
C1322 C1323 1.385 . S
C1322 C1324 1.478 . S
C1323 H1317 0.930 . S
C1323 C1319 1.400 . S
C1323 C1322 1.385 . S
C1324 C1322 1.478 . S
C1324 C1326 1.381 . S
C1324 C1330 1.383 . S
C1325 C1321 1.495 . S
C1325 H1331 0.959 . S
C1325 H1332 0.961 . S
C1325 H1333 0.960 . S
C1326 C1324 1.381 . S
C1326 C1327 1.394 . S
C1326 H1334 0.930 . S
C1327 C1326 1.394 . S
C1327 C1328 1.383 . S
C1327 H1335 0.929 . S
C1328 C1327 1.383 . S
C1328 C1329 1.377 . S
C1329 H1313 0.930 . S
C1329 C1328 1.377 . S
C1329 C1330 1.379 . S
C1330 H1314 0.931 . S
C1330 C1324 1.383 . S
C1330 C1329 1.379 . S
H1331 C1325 0.959 . S
H1332 C1325 0.961 . S
H1333 C1325 0.960 . S
H1334 C1326 0.930 . S
H1335 C1327 0.929 . S
H1336 C1344 0.929 . S
H1337 C1346 0.930 . S
H1338 C1348 0.930 . S
H1339 C1351 0.929 . S
H1340 C1354 0.930 . S
H1341 C1356 0.960 . S
H1342 C1356 0.960 . S
H1343 C1356 0.960 . S
C1344 H1336 0.929 . S
C1344 C1345 1.384 . S
C1344 C1346 1.384 . S
C1345 C1344 1.384 . S
C1345 C1351 1.388 1_545 S
C1346 H1337 0.930 . S
C1346 C1344 1.384 . S
C1346 C1347 1.372 . S
C1347 C1346 1.372 . S
C1347 C1348 1.400 1_545 S
C1347 C1352 1.490 . S
C1348 H1338 0.930 . S
C1348 C1347 1.400 1_565 S
C1348 C1351 1.386 . S
H1349 C1365 0.930 . S
H1350 C1366 0.931 . S
C1351 H1339 0.929 . S
C1351 C1345 1.388 1_565 S
C1351 C1348 1.386 . S
C1352 C1347 1.490 . S
C1352 C1354 1.395 . S
C1352 C1355 1.403 . S
H1353 C1359 0.930 . S
C1354 H1340 0.930 . S
C1354 C1352 1.395 . S
C1354 C1357 1.403 . S
C1355 C1352 1.403 . S
C1355 C1356 1.524 1_545 S
C1355 C1359 1.400 . S
C1356 H1341 0.960 . S
C1356 H1342 0.960 . S
C1356 H1343 0.960 . S
C1356 C1355 1.524 1_565 S
C1357 C1354 1.403 . S
C1357 C1358 1.392 . S
C1357 C1361 1.495 . S
C1358 C1357 1.392 . S
C1358 C1359 1.385 . S
C1358 C1360 1.478 . S
C1359 H1353 0.930 . S
C1359 C1355 1.400 . S
C1359 C1358 1.385 . S
C1360 C1358 1.478 . S
C1360 C1362 1.381 . S
C1360 C1366 1.383 . S
C1361 C1357 1.495 . S
C1361 H1367 0.959 . S
C1361 H1368 0.961 . S
C1361 H1369 0.960 . S
C1362 C1360 1.381 . S
C1362 C1363 1.394 . S
C1362 H1370 0.930 . S
C1363 C1362 1.394 . S
C1363 C1364 1.383 . S
C1363 H1371 0.929 . S
C1364 C1363 1.383 . S
C1364 C1365 1.377 . S
C1365 H1349 0.930 . S
C1365 C1364 1.377 . S
C1365 C1366 1.379 . S
C1366 H1350 0.931 . S
C1366 C1360 1.383 . S
C1366 C1365 1.379 . S
H1367 C1361 0.959 . S
H1368 C1361 0.961 . S
H1369 C1361 0.960 . S
H1370 C1362 0.930 . S
H1371 C1363 0.929 . S
H1372 C1380 0.929 . S
H1373 C1382 0.930 . S
H1374 C1384 0.930 . S
H1375 C1387 0.929 . S
H1376 C1390 0.930 . S
H1377 C1392 0.960 . S
H1378 C1392 0.960 . S
H1379 C1392 0.960 . S
C1380 H1372 0.929 . S
C1380 C1381 1.377 . S
C1380 C1382 1.384 . S
C1381 C1380 1.377 . S
C1381 C1387 1.390 . S
C1382 H1373 0.930 . S
C1382 C1380 1.384 . S
C1382 C1383 1.372 . S
C1383 C1382 1.372 . S
C1383 C1384 1.400 . S
C1383 C1388 1.490 . S
C1384 H1374 0.930 . S
C1384 C1383 1.400 . S
C1384 C1387 1.386 . S
H1385 C1401 0.930 . S
H1386 C1402 0.931 . S
C1387 H1375 0.929 . S
C1387 C1381 1.390 . S
C1387 C1384 1.386 . S
C1388 C1383 1.490 . S
C1388 C1390 1.395 . S
C1388 C1391 1.403 . S
H1389 C1395 0.930 . S
C1390 H1376 0.930 . S
C1390 C1388 1.395 . S
C1390 C1393 1.403 1_554 S
C1391 C1388 1.403 . S
C1391 C1392 1.524 . S
C1391 C1395 1.400 1_554 S
C1392 H1377 0.960 . S
C1392 H1378 0.960 . S
C1392 H1379 0.960 . S
C1392 C1391 1.524 . S
C1393 C1390 1.403 1_556 S
C1393 C1394 1.392 . S
C1393 C1397 1.495 . S
C1394 C1393 1.392 . S
C1394 C1395 1.385 . S
C1394 C1396 1.478 . S
C1395 H1389 0.930 . S
C1395 C1391 1.400 1_556 S
C1395 C1394 1.385 . S
C1396 C1394 1.478 . S
C1396 C1398 1.381 . S
C1396 C1402 1.383 . S
C1397 C1393 1.495 . S
C1397 H1403 0.959 . S
C1397 H1404 0.961 . S
C1397 H1405 0.960 . S
C1398 C1396 1.381 . S
C1398 C1399 1.394 . S
C1398 H1406 0.930 . S
C1399 C1398 1.394 . S
C1399 C1400 1.383 . S
C1399 H1407 0.929 . S
C1400 C1399 1.383 . S
C1400 C1401 1.377 . S
C1401 H1385 0.930 . S
C1401 C1400 1.377 . S
C1401 C1402 1.379 . S
C1402 H1386 0.931 . S
C1402 C1396 1.383 . S
C1402 C1401 1.379 . S
H1403 C1397 0.959 . S
H1404 C1397 0.961 . S
H1405 C1397 0.960 . S
H1406 C1398 0.930 . S
H1407 C1399 0.929 . S
H1408 C1416 0.929 . S
H1409 C1418 0.930 . S
H1410 C1420 0.930 . S
H1411 C1423 0.929 . S
H1412 C1426 0.930 . S
H1413 C1428 0.960 . S
H1414 C1428 0.960 . S
H1415 C1428 0.960 . S
C1416 H1408 0.929 . S
C1416 C1417 1.377 . S
C1416 C1418 1.384 . S
C1417 C1416 1.377 . S
C1417 C1423 1.390 . S
C1418 H1409 0.930 . S
C1418 C1416 1.384 . S
C1418 C1419 1.372 . S
C1419 C1418 1.372 . S
C1419 C1420 1.400 . S
C1419 C1424 1.490 . S
C1420 H1410 0.930 . S
C1420 C1419 1.400 . S
C1420 C1423 1.386 . S
H1421 C1437 0.930 . S
H1422 C1438 0.931 . S
C1423 H1411 0.929 . S
C1423 C1417 1.390 . S
C1423 C1420 1.386 . S
C1424 C1419 1.490 . S
C1424 C1426 1.395 . S
C1424 C1427 1.403 . S
H1425 C1431 0.930 . S
C1426 H1412 0.930 . S
C1426 C1424 1.395 . S
C1426 C1429 1.403 . S
C1427 C1424 1.403 . S
C1427 C1428 1.524 . S
C1427 C1431 1.400 . S
C1428 H1413 0.960 . S
C1428 H1414 0.960 . S
C1428 H1415 0.960 . S
C1428 C1427 1.524 . S
C1429 C1426 1.403 . S
C1429 C1430 1.392 . S
C1429 C1433 1.495 . S
C1430 C1429 1.392 . S
C1430 C1431 1.385 . S
C1430 C1432 1.478 . S
C1431 H1425 0.930 . S
C1431 C1427 1.400 . S
C1431 C1430 1.385 . S
C1432 C1430 1.478 . S
C1432 C1434 1.381 . S
C1432 C1438 1.383 . S
C1433 C1429 1.495 . S
C1433 H1439 0.959 . S
C1433 H1440 0.961 . S
C1433 H1441 0.960 . S
C1434 C1432 1.381 . S
C1434 C1435 1.394 . S
C1434 H1442 0.930 . S
C1435 C1434 1.394 . S
C1435 C1436 1.383 . S
C1435 H1443 0.929 1_655 S
C1436 C1435 1.383 . S
C1436 C1437 1.377 . S
C1437 H1421 0.930 . S
C1437 C1436 1.377 . S
C1437 C1438 1.379 . S
C1438 H1422 0.931 . S
C1438 C1432 1.383 . S
C1438 C1437 1.379 . S
H1439 C1433 0.959 . S
H1440 C1433 0.961 . S
H1441 C1433 0.960 . S
H1442 C1434 0.930 . S
H1443 C1435 0.929 1_455 S
H1444 C1452 0.929 . S
H1445 C1454 0.930 . S
H1446 C1456 0.930 . S
H1447 C1459 0.929 . S
H1448 C1462 0.930 . S
H1449 C1464 0.960 . S
H1450 C1464 0.960 . S
H1451 C1464 0.960 . S
C1452 H1444 0.929 . S
C1452 C1453 1.377 . S
C1452 C1454 1.384 . S
C1453 C1452 1.377 . S
C1453 C1459 1.390 . S
C1454 H1445 0.930 . S
C1454 C1452 1.384 . S
C1454 C1455 1.372 . S
C1455 C1454 1.372 . S
C1455 C1456 1.400 . S
C1455 C1460 1.490 . S
C1456 H1446 0.930 . S
C1456 C1455 1.400 . S
C1456 C1459 1.386 . S
H1457 C1473 0.930 . S
H1458 C1474 0.931 . S
C1459 H1447 0.929 . S
C1459 C1453 1.390 . S
C1459 C1456 1.386 . S
C1460 C1455 1.490 . S
C1460 C1462 1.395 . S
C1460 C1463 1.403 . S
H1461 C1467 0.930 . S
C1462 H1448 0.930 . S
C1462 C1460 1.395 . S
C1462 C1465 1.403 . S
C1463 C1460 1.403 . S
C1463 C1464 1.524 . S
C1463 C1467 1.400 . S
C1464 H1449 0.960 . S
C1464 H1450 0.960 . S
C1464 H1451 0.960 . S
C1464 C1463 1.524 . S
C1465 C1462 1.403 . S
C1465 C1466 1.392 . S
C1465 C1469 1.495 . S
C1466 C1465 1.392 . S
C1466 C1467 1.385 . S
C1466 C1468 1.478 . S
C1467 H1461 0.930 . S
C1467 C1463 1.400 . S
C1467 C1466 1.385 . S
C1468 C1466 1.478 . S
C1468 C1470 1.381 . S
C1468 C1474 1.383 . S
C1469 C1465 1.495 . S
C1469 H1475 0.959 . S
C1469 H1476 0.961 . S
C1469 H1477 0.960 . S
C1470 C1468 1.381 . S
C1470 C1471 1.394 . S
C1470 H1478 0.930 . S
C1471 C1470 1.394 . S
C1471 C1472 1.383 . S
C1471 H1479 0.929 . S
C1472 C1471 1.383 . S
C1472 C1473 1.377 . S
C1473 H1457 0.930 . S
C1473 C1472 1.377 . S
C1473 C1474 1.379 . S
C1474 H1458 0.931 . S
C1474 C1468 1.383 . S
C1474 C1473 1.379 . S
H1475 C1469 0.959 . S
H1476 C1469 0.961 . S
H1477 C1469 0.960 . S
H1478 C1470 0.930 . S
H1479 C1471 0.929 . S
H1480 C1488 0.929 . S
H1481 C1490 0.930 . S
H1482 C1492 0.930 . S
H1483 C1495 0.929 . S
H1484 C1498 0.930 . S
H1485 C1500 0.960 . S
H1486 C1500 0.960 . S
H1487 C1500 0.960 . S
C1488 H1480 0.929 . S
C1488 C1489 1.377 1_565 S
C1488 C1490 1.384 . S
C1489 C1488 1.377 1_545 S
C1489 C1495 1.390 . S
C1490 H1481 0.930 . S
C1490 C1488 1.384 . S
C1490 C1491 1.372 1_565 S
C1491 C1490 1.372 1_545 S
C1491 C1492 1.400 . S
C1491 C1496 1.490 . S
C1492 H1482 0.930 . S
C1492 C1491 1.400 . S
C1492 C1495 1.386 . S
H1493 C1509 0.930 1_554 S
H1494 C1510 0.931 . S
C1495 H1483 0.929 . S
C1495 C1489 1.390 . S
C1495 C1492 1.386 . S
C1496 C1491 1.490 . S
C1496 C1498 1.395 . S
C1496 C1499 1.403 . S
H1497 C1503 0.930 . S
C1498 H1484 0.930 . S
C1498 C1496 1.395 . S
C1498 C1501 1.403 . S
C1499 C1496 1.403 . S
C1499 C1500 1.524 . S
C1499 C1503 1.400 . S
C1500 H1485 0.960 . S
C1500 H1486 0.960 . S
C1500 H1487 0.960 . S
C1500 C1499 1.524 . S
C1501 C1498 1.403 . S
C1501 C1502 1.392 . S
C1501 C1505 1.495 . S
C1502 C1501 1.392 . S
C1502 C1503 1.385 . S
C1502 C1504 1.478 . S
C1503 H1497 0.930 . S
C1503 C1499 1.400 . S
C1503 C1502 1.385 . S
C1504 C1502 1.478 . S
C1504 C1506 1.381 . S
C1504 C1510 1.383 . S
C1505 C1501 1.495 . S
C1505 H1511 0.959 1_545 S
C1505 H1512 0.961 . S
C1505 H1513 0.952 1_545 S
C1506 C1504 1.381 . S
C1506 C1507 1.394 . S
C1506 H1514 0.930 . S
C1507 C1506 1.394 . S
C1507 C1508 1.383 1_556 S
C1507 H1515 0.929 . S
C1508 C1507 1.383 1_554 S
C1508 C1509 1.377 1_554 S
C1509 H1493 0.930 1_556 S
C1509 C1508 1.377 1_556 S
C1509 C1510 1.379 . S
C1510 H1494 0.931 . S
C1510 C1504 1.383 . S
C1510 C1509 1.379 . S
H1511 C1505 0.959 1_565 S
H1512 C1505 0.961 . S
H1513 C1505 0.952 1_565 S
H1514 C1506 0.930 . S
H1515 C1507 0.929 . S
H1516 C1524 0.929 . S
H1517 C1526 0.930 . S
H1518 C1528 0.930 . S
H1519 C1531 0.929 . S
H1520 C1534 0.930 . S
H1521 C1536 0.960 . S
H1522 C1536 0.960 . S
H1523 C1536 0.960 . S
C1524 H1516 0.929 . S
C1524 C1525 1.377 . S
C1524 C1526 1.384 . S
C1525 C1524 1.377 . S
C1525 C1531 1.390 . S
C1526 H1517 0.930 . S
C1526 C1524 1.384 . S
C1526 C1527 1.372 . S
C1527 C1526 1.372 . S
C1527 C1528 1.400 . S
C1527 C1532 1.490 . S
C1528 H1518 0.930 . S
C1528 C1527 1.400 . S
C1528 C1531 1.386 . S
H1529 C1545 0.930 . S
H1530 C1546 0.931 . S
C1531 H1519 0.929 . S
C1531 C1525 1.390 . S
C1531 C1528 1.386 . S
C1532 C1527 1.490 . S
C1532 C1534 1.395 . S
C1532 C1535 1.403 . S
H1533 C1539 0.930 . S
C1534 H1520 0.930 . S
C1534 C1532 1.395 . S
C1534 C1537 1.403 . S
C1535 C1532 1.403 . S
C1535 C1536 1.524 . S
C1535 C1539 1.400 . S
C1536 H1521 0.960 . S
C1536 H1522 0.960 . S
C1536 H1523 0.960 . S
C1536 C1535 1.524 . S
C1537 C1534 1.403 . S
C1537 C1538 1.392 . S
C1537 C1541 1.495 . S
C1538 C1537 1.392 . S
C1538 C1539 1.385 . S
C1538 C1540 1.478 . S
C1539 H1533 0.930 . S
C1539 C1535 1.400 . S
C1539 C1538 1.385 . S
C1540 C1538 1.478 . S
C1540 C1542 1.381 . S
C1540 C1546 1.383 . S
C1541 C1537 1.495 . S
C1541 H1547 0.959 . S
C1541 H1548 0.961 . S
C1541 H1549 0.960 . S
C1542 C1540 1.381 . S
C1542 C1543 1.394 . S
C1542 H1550 0.930 . S
C1543 C1542 1.394 . S
C1543 C1544 1.383 . S
C1543 H1551 0.929 . S
C1544 C1543 1.383 . S
C1544 C1545 1.377 . S
C1545 H1529 0.930 . S
C1545 C1544 1.377 . S
C1545 C1546 1.379 . S
C1546 H1530 0.931 . S
C1546 C1540 1.383 . S
C1546 C1545 1.379 . S
H1547 C1541 0.959 . S
H1548 C1541 0.961 . S
H1549 C1541 0.960 . S
H1550 C1542 0.930 . S
H1551 C1543 0.929 . S
H1552 C1560 0.929 . S
H1553 C1562 0.930 . S
H1554 C1564 0.930 . S
H1555 C1567 0.929 . S
H1556 C1570 0.930 . S
H1557 C1572 0.960 . S
H1558 C1572 0.960 . S
H1559 C1572 0.960 . S
C1560 H1552 0.929 . S
C1560 C1561 1.377 . S
C1560 C1562 1.384 . S
C1561 C1560 1.377 . S
C1561 C1567 1.390 . S
C1562 H1553 0.930 . S
C1562 C1560 1.384 . S
C1562 C1563 1.372 . S
C1563 C1562 1.372 . S
C1563 C1564 1.400 . S
C1563 C1568 1.490 . S
C1564 H1554 0.930 . S
C1564 C1563 1.400 . S
C1564 C1567 1.386 . S
H1565 C1581 0.930 . S
H1566 C1582 0.931 . S
C1567 H1555 0.929 . S
C1567 C1561 1.390 . S
C1567 C1564 1.386 . S
C1568 C1563 1.490 . S
C1568 C1570 1.395 . S
C1568 C1571 1.403 . S
H1569 C1575 0.930 . S
C1570 H1556 0.930 . S
C1570 C1568 1.395 . S
C1570 C1573 1.403 . S
C1571 C1568 1.403 . S
C1571 C1572 1.524 . S
C1571 C1575 1.400 . S
C1572 H1557 0.960 . S
C1572 H1558 0.960 . S
C1572 H1559 0.960 . S
C1572 C1571 1.524 . S
C1573 C1570 1.403 . S
C1573 C1574 1.392 . S
C1573 C1577 1.495 1_565 S
C1574 C1573 1.392 . S
C1574 C1575 1.385 . S
C1574 C1576 1.478 1_565 S
C1575 H1569 0.930 . S
C1575 C1571 1.400 . S
C1575 C1574 1.385 . S
C1576 C1574 1.478 1_545 S
C1576 C1578 1.381 . S
C1576 C1582 1.383 . S
C1577 C1573 1.495 1_545 S
C1577 H1583 0.959 . S
C1577 H1584 0.961 . S
C1577 H1585 0.960 . S
C1578 C1576 1.381 . S
C1578 C1579 1.394 . S
C1578 H1586 0.958 . S
C1579 C1578 1.394 . S
C1579 C1580 1.383 . S
C1579 H1587 0.929 . S
C1580 C1579 1.383 . S
C1580 C1581 1.377 . S
C1581 H1565 0.930 . S
C1581 C1580 1.377 . S
C1581 C1582 1.379 . S
C1582 H1566 0.931 . S
C1582 C1576 1.383 . S
C1582 C1581 1.379 . S
H1583 C1577 0.959 . S
H1584 C1577 0.961 . S
H1585 C1577 0.960 . S
H1586 C1578 0.958 . S
H1587 C1579 0.929 . S
H1588 C1596 0.929 . S
H1589 C1598 0.930 . S
H1590 C1600 0.930 . S
H1591 C1603 0.929 . S
H1592 C1606 0.930 . S
H1593 C1608 0.960 . S
H1594 C1608 0.960 . S
H1595 C1608 0.960 . S
C1596 H1588 0.929 . S
C1596 C1597 1.402 . S
C1596 C1598 1.384 . S
C1597 C1596 1.402 . S
C1597 C1603 1.344 1_556 S
C1598 H1589 0.930 . S
C1598 C1596 1.384 . S
C1598 C1599 1.372 1_556 S
C1599 C1598 1.372 1_554 S
C1599 C1600 1.400 . S
C1599 C1604 1.490 . S
C1600 H1590 0.930 . S
C1600 C1599 1.400 . S
C1600 C1603 1.386 . S
H1601 C1617 0.930 . S
H1602 C1618 0.931 . S
C1603 H1591 0.929 . S
C1603 C1597 1.344 1_554 S
C1603 C1600 1.386 . S
C1604 C1599 1.490 . S
C1604 C1606 1.395 . S
C1604 C1607 1.403 . S
H1605 C1611 0.930 . S
C1606 H1592 0.930 . S
C1606 C1604 1.395 . S
C1606 C1609 1.403 . S
C1607 C1604 1.403 . S
C1607 C1608 1.524 . S
C1607 C1611 1.400 . S
C1608 H1593 0.960 . S
C1608 H1594 0.960 . S
C1608 H1595 0.960 . S
C1608 C1607 1.524 . S
C1609 C1606 1.403 . S
C1609 C1610 1.392 . S
C1609 C1613 1.495 . S
C1610 C1609 1.392 . S
C1610 C1611 1.385 . S
C1610 C1612 1.478 . S
C1611 H1605 0.930 . S
C1611 C1607 1.400 . S
C1611 C1610 1.385 . S
C1612 C1610 1.478 . S
C1612 C1614 1.381 . S
C1612 C1618 1.383 . S
C1613 C1609 1.495 . S
C1613 H1619 0.959 . S
C1613 H1620 0.961 . S
C1613 H1621 0.960 . S
C1614 C1612 1.381 . S
C1614 C1615 1.394 . S
C1614 H1622 0.930 . S
C1615 C1614 1.394 . S
C1615 C1616 1.383 . S
C1615 H1623 0.929 . S
C1616 C1615 1.383 . S
C1616 C1617 1.377 . S
C1617 H1601 0.930 . S
C1617 C1616 1.377 . S
C1617 C1618 1.379 . S
C1618 H1602 0.931 . S
C1618 C1612 1.383 . S
C1618 C1617 1.379 . S
H1619 C1613 0.959 . S
H1620 C1613 0.961 . S
H1621 C1613 0.960 . S
H1622 C1614 0.930 . S
H1623 C1615 0.929 . S
H1624 C1632 0.929 . S
H1625 C1634 0.930 . S
H1626 C1636 0.930 . S
H1627 C1639 0.929 . S
H1628 C1642 0.930 . S
H1629 C1644 0.960 . S
H1630 C1644 0.960 . S
H1631 C1644 0.960 . S
C1632 H1624 0.929 . S
C1632 C1633 1.377 . S
C1632 C1634 1.384 . S
C1633 C1632 1.377 . S
C1633 C1639 1.390 . S
C1634 H1625 0.930 . S
C1634 C1632 1.384 . S
C1634 C1635 1.372 . S
C1635 C1634 1.372 . S
C1635 C1636 1.400 . S
C1635 C1640 1.490 . S
C1636 H1626 0.930 . S
C1636 C1635 1.400 . S
C1636 C1639 1.386 . S
H1637 C1653 0.930 . S
H1638 C1654 0.931 . S
C1639 H1627 0.929 . S
C1639 C1633 1.390 . S
C1639 C1636 1.386 . S
C1640 C1635 1.490 . S
C1640 C1642 1.395 . S
C1640 C1643 1.403 . S
H1641 C1647 0.930 . S
C1642 H1628 0.930 . S
C1642 C1640 1.395 . S
C1642 C1645 1.403 . S
C1643 C1640 1.403 . S
C1643 C1644 1.524 . S
C1643 C1647 1.400 . S
C1644 H1629 0.960 . S
C1644 H1630 0.960 . S
C1644 H1631 0.960 . S
C1644 C1643 1.524 . S
C1645 C1642 1.403 . S
C1645 C1646 1.392 . S
C1645 C1649 1.495 . S
C1646 C1645 1.392 . S
C1646 C1647 1.385 . S
C1646 C1648 1.478 . S
C1647 H1641 0.930 . S
C1647 C1643 1.400 . S
C1647 C1646 1.385 . S
C1648 C1646 1.478 . S
C1648 C1650 1.381 . S
C1648 C1654 1.383 . S
C1649 C1645 1.495 . S
C1649 H1655 0.959 . S
C1649 H1656 0.961 . S
C1649 H1657 0.960 . S
C1650 C1648 1.381 . S
C1650 C1651 1.394 . S
C1650 H1658 0.930 . S
C1651 C1650 1.394 . S
C1651 C1652 1.383 . S
C1651 H1659 0.929 . S
C1652 C1651 1.383 . S
C1652 C1653 1.377 . S
C1653 H1637 0.930 . S
C1653 C1652 1.377 . S
C1653 C1654 1.379 . S
C1654 H1638 0.931 . S
C1654 C1648 1.383 . S
C1654 C1653 1.379 . S
H1655 C1649 0.959 . S
H1656 C1649 0.961 . S
H1657 C1649 0.960 . S
H1658 C1650 0.930 . S
H1659 C1651 0.929 . S
H1660 C1668 0.929 . S
H1661 C1670 0.930 . S
H1662 C1672 0.930 . S
H1663 C1675 0.929 . S
H1664 C1678 0.930 . S
H1665 C1680 0.960 . S
H1666 C1680 0.960 . S
H1667 C1680 0.960 . S
C1668 H1660 0.929 . S
C1668 C1669 1.377 . S
C1668 C1670 1.384 . S
C1669 C1668 1.377 . S
C1669 C1675 1.390 . S
C1670 H1661 0.930 . S
C1670 C1668 1.384 . S
C1670 C1671 1.372 . S
C1671 C1670 1.372 . S
C1671 C1672 1.400 . S
C1671 C1676 1.490 . S
C1672 H1662 0.930 . S
C1672 C1671 1.400 . S
C1672 C1675 1.386 . S
H1673 C1689 0.930 . S
H1674 C1690 0.931 . S
C1675 H1663 0.929 . S
C1675 C1669 1.390 . S
C1675 C1672 1.386 . S
C1676 C1671 1.490 . S
C1676 C1678 1.395 . S
C1676 C1679 1.403 . S
H1677 C1683 0.930 . S
C1678 H1664 0.930 . S
C1678 C1676 1.395 . S
C1678 C1681 1.403 . S
C1679 C1676 1.403 . S
C1679 C1680 1.524 . S
C1679 C1683 1.400 . S
C1680 H1665 0.960 . S
C1680 H1666 0.960 . S
C1680 H1667 0.960 . S
C1680 C1679 1.524 . S
C1681 C1678 1.403 . S
C1681 C1682 1.392 . S
C1681 C1685 1.495 . S
C1682 C1681 1.392 . S
C1682 C1683 1.385 . S
C1682 C1684 1.478 . S
C1683 H1677 0.930 . S
C1683 C1679 1.400 . S
C1683 C1682 1.385 . S
C1684 C1682 1.478 . S
C1684 C1686 1.381 . S
C1684 C1690 1.383 . S
C1685 C1681 1.495 . S
C1685 H1691 0.959 . S
C1685 H1692 0.961 . S
C1685 H1693 0.960 . S
C1686 C1684 1.381 . S
C1686 C1687 1.394 . S
C1686 H1694 0.930 . S
C1687 C1686 1.394 . S
C1687 C1688 1.383 . S
C1687 H1695 0.929 . S
C1688 C1687 1.383 . S
C1688 C1689 1.377 . S
C1689 H1673 0.930 . S
C1689 C1688 1.377 . S
C1689 C1690 1.379 . S
C1690 H1674 0.931 . S
C1690 C1684 1.383 . S
C1690 C1689 1.379 . S
H1691 C1685 0.959 . S
H1692 C1685 0.961 . S
H1693 C1685 0.960 . S
H1694 C1686 0.930 . S
H1695 C1687 0.929 . S
H1696 C1704 0.929 . S
H1697 C1706 0.930 . S
H1698 C1708 0.930 . S
H1699 C1711 0.929 . S
H1700 C1714 0.930 . S
H1701 C1716 0.960 . S
H1702 C1716 0.960 . S
H1703 C1716 0.960 . S
C1704 H1696 0.929 . S
C1704 C1705 1.377 . S
C1704 C1706 1.384 . S
C1705 C1704 1.377 . S
C1705 C1711 1.390 . S
C1706 H1697 0.930 . S
C1706 C1704 1.384 . S
C1706 C1707 1.372 . S
C1707 C1706 1.372 . S
C1707 C1708 1.400 . S
C1707 C1712 1.490 . S
C1708 H1698 0.930 . S
C1708 C1707 1.400 . S
C1708 C1711 1.386 . S
H1709 C1725 0.930 . S
H1710 C1726 0.931 . S
C1711 H1699 0.929 . S
C1711 C1705 1.390 . S
C1711 C1708 1.386 . S
C1712 C1707 1.490 . S
C1712 C1714 1.395 . S
C1712 C1715 1.403 . S
H1713 C1719 0.930 . S
C1714 H1700 0.930 . S
C1714 C1712 1.395 . S
C1714 C1717 1.403 . S
C1715 C1712 1.403 . S
C1715 C1716 1.524 . S
C1715 C1719 1.400 . S
C1716 H1701 0.960 . S
C1716 H1702 0.960 . S
C1716 H1703 0.960 . S
C1716 C1715 1.524 . S
C1717 C1714 1.403 . S
C1717 C1718 1.392 . S
C1717 C1721 1.495 . S
C1718 C1717 1.392 . S
C1718 C1719 1.385 . S
C1718 C1720 1.478 . S
C1719 H1713 0.930 . S
C1719 C1715 1.400 . S
C1719 C1718 1.385 . S
C1720 C1718 1.478 . S
C1720 C1722 1.381 . S
C1720 C1726 1.383 . S
C1721 C1717 1.495 . S
C1721 H1727 0.959 . S
C1721 H1728 0.961 . S
C1721 H1729 0.960 . S
C1722 C1720 1.381 . S
C1722 C1723 1.394 . S
C1722 H1730 0.930 . S
C1723 C1722 1.394 . S
C1723 C1724 1.383 . S
C1723 H1731 0.929 . S
C1724 C1723 1.383 . S
C1724 C1725 1.377 . S
C1725 H1709 0.930 . S
C1725 C1724 1.377 . S
C1725 C1726 1.379 . S
C1726 H1710 0.931 . S
C1726 C1720 1.383 . S
C1726 C1725 1.379 . S
H1727 C1721 0.959 . S
H1728 C1721 0.961 . S
H1729 C1721 0.960 . S
H1730 C1722 0.930 . S
H1731 C1723 0.929 . S
H1732 C1740 0.929 . S
H1733 C1742 0.930 . S
H1734 C1744 0.930 . S
H1735 C1747 0.929 . S
H1736 C1750 0.930 . S
H1737 C1752 0.960 . S
H1738 C1752 0.960 . S
H1739 C1752 0.960 . S
C1740 H1732 0.929 . S
C1740 C1741 1.377 . S
C1740 C1742 1.384 . S
C1741 C1740 1.377 . S
C1741 C1747 1.390 . S
C1742 H1733 0.930 . S
C1742 C1740 1.384 . S
C1742 C1743 1.372 . S
C1743 C1742 1.372 . S
C1743 C1744 1.400 . S
C1743 C1748 1.490 . S
C1744 H1734 0.930 . S
C1744 C1743 1.400 . S
C1744 C1747 1.386 . S
H1745 C1761 0.930 . S
H1746 C1762 0.931 . S
C1747 H1735 0.929 . S
C1747 C1741 1.390 . S
C1747 C1744 1.386 . S
C1748 C1743 1.490 . S
C1748 C1750 1.395 . S
C1748 C1751 1.403 . S
H1749 C1755 0.930 . S
C1750 H1736 0.930 . S
C1750 C1748 1.395 . S
C1750 C1753 1.403 . S
C1751 C1748 1.403 . S
C1751 C1752 1.524 . S
C1751 C1755 1.400 . S
C1752 H1737 0.960 . S
C1752 H1738 0.960 . S
C1752 H1739 0.960 . S
C1752 C1751 1.524 . S
C1753 C1750 1.403 . S
C1753 C1754 1.392 . S
C1753 C1757 1.495 . S
C1754 C1753 1.392 . S
C1754 C1755 1.385 . S
C1754 C1756 1.478 . S
C1755 H1749 0.930 . S
C1755 C1751 1.400 . S
C1755 C1754 1.385 . S
C1756 C1754 1.478 . S
C1756 C1758 1.381 . S
C1756 C1762 1.383 . S
C1757 C1753 1.495 . S
C1757 H1763 0.959 . S
C1757 H1764 0.961 . S
C1757 H1765 0.960 . S
C1758 C1756 1.381 . S
C1758 C1759 1.394 . S
C1758 H1766 0.930 . S
C1759 C1758 1.394 . S
C1759 C1760 1.383 . S
C1759 H1767 0.929 . S
C1760 C1759 1.383 . S
C1760 C1761 1.377 . S
C1761 H1745 0.930 . S
C1761 C1760 1.377 . S
C1761 C1762 1.379 . S
C1762 H1746 0.931 . S
C1762 C1756 1.383 . S
C1762 C1761 1.379 . S
H1763 C1757 0.959 . S
H1764 C1757 0.961 . S
H1765 C1757 0.960 . S
H1766 C1758 0.930 . S
H1767 C1759 0.929 . S
H1768 C1776 0.929 . S
H1769 C1778 0.930 . S
H1770 C1780 0.930 . S
H1771 C1783 0.929 . S
H1772 C1786 0.930 . S
H1773 C1788 0.960 . S
H1774 C1788 0.960 . S
H1775 C1788 0.960 . S
C1776 H1768 0.929 . S
C1776 C1777 1.377 . S
C1776 C1778 1.384 . S
C1777 C1776 1.377 . S
C1777 C1783 1.390 . S
C1778 H1769 0.930 . S
C1778 C1776 1.384 . S
C1778 C1779 1.372 . S
C1779 C1778 1.372 . S
C1779 C1780 1.400 . S
C1779 C1784 1.490 . S
C1780 H1770 0.930 . S
C1780 C1779 1.400 . S
C1780 C1783 1.386 . S
H1781 C1797 0.930 . S
H1782 C1798 0.931 . S
C1783 H1771 0.929 . S
C1783 C1777 1.390 . S
C1783 C1780 1.386 . S
C1784 C1779 1.490 . S
C1784 C1786 1.395 . S
C1784 C1787 1.403 . S
H1785 C1791 0.930 . S
C1786 H1772 0.930 . S
C1786 C1784 1.395 . S
C1786 C1789 1.403 . S
C1787 C1784 1.403 . S
C1787 C1788 1.524 . S
C1787 C1791 1.400 . S
C1788 H1773 0.960 . S
C1788 H1774 0.960 . S
C1788 H1775 0.960 . S
C1788 C1787 1.524 . S
C1789 C1786 1.403 . S
C1789 C1790 1.392 . S
C1789 C1793 1.495 . S
C1790 C1789 1.392 . S
C1790 C1791 1.385 . S
C1790 C1792 1.478 . S
C1791 H1785 0.930 . S
C1791 C1787 1.400 . S
C1791 C1790 1.385 . S
C1792 C1790 1.478 . S
C1792 C1794 1.381 . S
C1792 C1798 1.383 . S
C1793 C1789 1.495 . S
C1793 H1799 0.959 . S
C1793 H1800 0.961 . S
C1793 H1801 0.960 . S
C1794 C1792 1.381 . S
C1794 C1795 1.394 . S
C1794 H1802 0.930 . S
C1795 C1794 1.394 . S
C1795 C1796 1.383 . S
C1795 H1803 0.929 . S
C1796 C1795 1.383 . S
C1796 C1797 1.377 . S
C1797 H1781 0.930 . S
C1797 C1796 1.377 . S
C1797 C1798 1.379 . S
C1798 H1782 0.931 . S
C1798 C1792 1.383 . S
C1798 C1797 1.379 . S
H1799 C1793 0.959 . S
H1800 C1793 0.961 . S
H1801 C1793 0.960 . S
H1802 C1794 0.930 . S
H1803 C1795 0.929 . S
H1804 C1812 0.929 . S
H1805 C1814 0.930 . S
H1806 C1816 0.930 . S
H1807 C1819 0.929 . S
H1808 C1822 0.930 . S
H1809 C1824 0.960 . S
H1810 C1824 0.960 . S
H1811 C1824 0.960 . S
C1812 H1804 0.929 . S
C1812 C1813 1.377 . S
C1812 C1814 1.384 . S
C1813 C1812 1.377 . S
C1813 C1819 1.390 . S
C1814 H1805 0.930 . S
C1814 C1812 1.384 . S
C1814 C1815 1.372 . S
C1815 C1814 1.372 . S
C1815 C1816 1.400 . S
C1815 C1820 1.490 . S
C1816 H1806 0.930 . S
C1816 C1815 1.400 . S
C1816 C1819 1.386 . S
H1817 C1833 0.930 . S
H1818 C1834 0.931 . S
C1819 H1807 0.929 . S
C1819 C1813 1.390 . S
C1819 C1816 1.386 . S
C1820 C1815 1.490 . S
C1820 C1822 1.395 . S
C1820 C1823 1.403 . S
H1821 C1827 0.930 . S
C1822 H1808 0.930 . S
C1822 C1820 1.395 . S
C1822 C1825 1.403 . S
C1823 C1820 1.403 . S
C1823 C1824 1.524 . S
C1823 C1827 1.400 . S
C1824 H1809 0.960 . S
C1824 H1810 0.960 . S
C1824 H1811 0.960 . S
C1824 C1823 1.524 . S
C1825 C1822 1.403 . S
C1825 C1826 1.392 . S
C1825 C1829 1.495 . S
C1826 C1825 1.392 . S
C1826 C1827 1.385 . S
C1826 C1828 1.478 . S
C1827 H1821 0.930 . S
C1827 C1823 1.400 . S
C1827 C1826 1.385 . S
C1828 C1826 1.478 . S
C1828 C1830 1.381 . S
C1828 C1834 1.383 . S
C1829 C1825 1.495 . S
C1829 H1835 0.959 . S
C1829 H1836 0.961 . S
C1829 H1837 0.960 . S
C1830 C1828 1.381 . S
C1830 C1831 1.394 . S
C1830 H1838 0.930 . S
C1831 C1830 1.394 . S
C1831 C1832 1.383 . S
C1831 H1839 0.929 . S
C1832 C1831 1.383 . S
C1832 C1833 1.377 . S
C1833 H1817 0.930 . S
C1833 C1832 1.377 . S
C1833 C1834 1.379 . S
C1834 H1818 0.931 . S
C1834 C1828 1.383 . S
C1834 C1833 1.379 . S
H1835 C1829 0.959 . S
H1836 C1829 0.961 . S
H1837 C1829 0.960 . S
H1838 C1830 0.930 . S
H1839 C1831 0.929 . S
H1840 C1848 0.929 . S
H1841 C1850 0.930 . S
H1842 C1852 0.930 . S
H1843 C1855 0.929 . S
H1844 C1858 0.930 . S
H1845 C1860 0.960 . S
H1846 C1860 0.960 . S
H1847 C1860 0.960 . S
C1848 H1840 0.929 . S
C1848 C1849 1.377 . S
C1848 C1850 1.384 . S
C1849 C1848 1.377 . S
C1849 C1855 1.390 . S
C1850 H1841 0.930 . S
C1850 C1848 1.384 . S
C1850 C1851 1.372 . S
C1851 C1850 1.372 . S
C1851 C1852 1.400 . S
C1851 C1856 1.490 . S
C1852 H1842 0.930 . S
C1852 C1851 1.400 . S
C1852 C1855 1.386 . S
H1853 C1869 0.930 . S
H1854 C1870 0.931 . S
C1855 H1843 0.929 . S
C1855 C1849 1.390 . S
C1855 C1852 1.386 . S
C1856 C1851 1.490 . S
C1856 C1858 1.395 . S
C1856 C1859 1.403 . S
H1857 C1863 0.930 1_655 S
C1858 H1844 0.930 . S
C1858 C1856 1.395 . S
C1858 C1861 1.403 . S
C1859 C1856 1.403 . S
C1859 C1860 1.524 1_455 S
C1859 C1863 1.400 . S
C1860 H1845 0.960 . S
C1860 H1846 0.960 . S
C1860 H1847 0.960 . S
C1860 C1859 1.524 1_655 S
C1861 C1858 1.403 . S
C1861 C1862 1.392 . S
C1861 C1865 1.495 . S
C1862 C1861 1.392 . S
C1862 C1863 1.385 . S
C1862 C1864 1.478 . S
C1863 H1857 0.930 1_455 S
C1863 C1859 1.400 . S
C1863 C1862 1.385 . S
C1864 C1862 1.478 . S
C1864 C1866 1.381 . S
C1864 C1870 1.383 . S
C1865 C1861 1.495 . S
C1865 H1871 0.959 . S
C1865 H1872 0.961 . S
C1865 H1873 0.960 . S
C1866 C1864 1.381 . S
C1866 C1867 1.394 . S
C1866 H1874 0.930 . S
C1867 C1866 1.394 . S
C1867 C1868 1.383 . S
C1867 H1875 0.929 . S
C1868 C1867 1.383 . S
C1868 C1869 1.377 . S
C1869 H1853 0.930 . S
C1869 C1868 1.377 . S
C1869 C1870 1.379 . S
C1870 H1854 0.931 . S
C1870 C1864 1.383 . S
C1870 C1869 1.379 . S
H1871 C1865 0.959 . S
H1872 C1865 0.961 . S
H1873 C1865 0.960 . S
H1874 C1866 0.930 . S
H1875 C1867 0.929 . S
H1876 C1884 0.929 . S
H1877 C1886 0.930 . S
H1878 C1888 0.930 . S
H1879 C1891 0.929 . S
H1880 C1894 0.930 . S
H1881 C1896 0.960 . S
H1882 C1896 0.960 . S
H1883 C1896 0.960 . S
C1884 H1876 0.929 . S
C1884 C1885 1.377 . S
C1884 C1886 1.384 . S
C1885 C1884 1.377 . S
C1885 C1891 1.390 . S
C1886 H1877 0.930 . S
C1886 C1884 1.384 . S
C1886 C1887 1.372 . S
C1887 C1886 1.372 . S
C1887 C1888 1.400 . S
C1887 C1892 1.490 . S
C1888 H1878 0.930 . S
C1888 C1887 1.400 . S
C1888 C1891 1.386 . S
H1889 C1905 0.930 . S
H1890 C1906 0.931 . S
C1891 H1879 0.929 . S
C1891 C1885 1.390 . S
C1891 C1888 1.386 . S
C1892 C1887 1.490 . S
C1892 C1894 1.395 . S
C1892 C1895 1.403 . S
H1893 C1899 0.930 . S
C1894 H1880 0.930 . S
C1894 C1892 1.395 . S
C1894 C1897 1.403 . S
C1895 C1892 1.403 . S
C1895 C1896 1.524 . S
C1895 C1899 1.400 . S
C1896 H1881 0.960 . S
C1896 H1882 0.960 . S
C1896 H1883 0.960 . S
C1896 C1895 1.524 . S
C1897 C1894 1.403 . S
C1897 C1898 1.392 . S
C1897 C1901 1.495 . S
C1898 C1897 1.392 . S
C1898 C1899 1.385 . S
C1898 C1900 1.478 . S
C1899 H1893 0.930 . S
C1899 C1895 1.400 . S
C1899 C1898 1.385 . S
C1900 C1898 1.478 . S
C1900 C1902 1.381 . S
C1900 C1906 1.383 . S
C1901 C1897 1.495 . S
C1901 H1907 0.959 . S
C1901 H1908 0.961 . S
C1901 H1909 0.960 . S
C1902 C1900 1.381 . S
C1902 C1903 1.394 . S
C1902 H1910 0.930 . S
C1903 C1902 1.394 . S
C1903 C1904 1.383 . S
C1903 H1911 0.929 . S
C1904 C1903 1.383 . S
C1904 C1905 1.377 . S
C1905 H1889 0.930 . S
C1905 C1904 1.377 . S
C1905 C1906 1.379 . S
C1906 H1890 0.931 . S
C1906 C1900 1.383 . S
C1906 C1905 1.379 . S
H1907 C1901 0.959 . S
H1908 C1901 0.961 . S
H1909 C1901 0.960 . S
H1910 C1902 0.930 . S
H1911 C1903 0.929 . S
H1912 C1920 0.929 . S
H1913 C1922 0.930 . S
H1914 C1924 0.930 . S
H1915 C1927 0.929 . S
H1916 C1930 0.930 . S
H1917 C1932 0.960 . S
H1918 C1932 0.960 . S
H1919 C1932 0.960 . S
C1920 H1912 0.929 . S
C1920 C1921 1.377 . S
C1920 C1922 1.384 . S
C1921 C1920 1.377 . S
C1921 C1927 1.390 . S
C1922 H1913 0.930 . S
C1922 C1920 1.384 . S
C1922 C1923 1.372 . S
C1923 C1922 1.372 . S
C1923 C1924 1.400 . S
C1923 C1928 1.490 . S
C1924 H1914 0.930 . S
C1924 C1923 1.400 . S
C1924 C1927 1.386 . S
H1925 C1941 0.930 . S
H1926 C1942 0.931 . S
C1927 H1915 0.929 . S
C1927 C1921 1.390 . S
C1927 C1924 1.386 . S
C1928 C1923 1.490 . S
C1928 C1930 1.395 . S
C1928 C1931 1.403 . S
H1929 C1935 0.930 . S
C1930 H1916 0.930 . S
C1930 C1928 1.395 . S
C1930 C1933 1.403 . S
C1931 C1928 1.403 . S
C1931 C1932 1.524 . S
C1931 C1935 1.400 . S
C1932 H1917 0.960 . S
C1932 H1918 0.960 . S
C1932 H1919 0.960 . S
C1932 C1931 1.524 . S
C1933 C1930 1.403 . S
C1933 C1934 1.392 . S
C1933 C1937 1.495 . S
C1934 C1933 1.392 . S
C1934 C1935 1.385 . S
C1934 C1936 1.478 . S
C1935 H1929 0.930 . S
C1935 C1931 1.400 . S
C1935 C1934 1.385 . S
C1936 C1934 1.478 . S
C1936 C1938 1.381 . S
C1936 C1942 1.383 . S
C1937 C1933 1.495 . S
C1937 H1943 0.959 . S
C1937 H1944 0.961 . S
C1937 H1945 0.960 . S
C1938 C1936 1.381 . S
C1938 C1939 1.394 . S
C1938 H1946 0.930 . S
C1939 C1938 1.394 . S
C1939 C1940 1.383 . S
C1939 H1947 0.929 . S
C1940 C1939 1.383 . S
C1940 C1941 1.377 . S
C1941 H1925 0.930 . S
C1941 C1940 1.377 . S
C1941 C1942 1.379 . S
C1942 H1926 0.931 . S
C1942 C1936 1.383 . S
C1942 C1941 1.379 . S
H1943 C1937 0.959 . S
H1944 C1937 0.961 . S
H1945 C1937 0.960 . S
H1946 C1938 0.930 . S
H1947 C1939 0.929 . S
H1948 C1956 0.929 . S
H1949 C1958 0.930 . S
H1950 C1960 0.930 . S
H1951 C1963 0.929 . S
H1952 C1966 0.930 . S
H1953 C1968 0.960 . S
H1954 C1968 0.960 . S
H1955 C1968 0.960 . S
C1956 H1948 0.929 . S
C1956 C1957 1.377 . S
C1956 C1958 1.384 . S
C1957 C1956 1.377 . S
C1957 C1963 1.390 . S
C1958 H1949 0.930 . S
C1958 C1956 1.384 . S
C1958 C1959 1.372 . S
C1959 C1958 1.372 . S
C1959 C1960 1.400 . S
C1959 C1964 1.490 . S
C1960 H1950 0.930 . S
C1960 C1959 1.400 . S
C1960 C1963 1.386 . S
H1961 C1977 0.930 . S
H1962 C1978 0.931 . S
C1963 H1951 0.929 . S
C1963 C1957 1.390 . S
C1963 C1960 1.386 . S
C1964 C1959 1.490 . S
C1964 C1966 1.395 . S
C1964 C1967 1.403 . S
H1965 C1971 0.930 . S
C1966 H1952 0.930 . S
C1966 C1964 1.395 . S
C1966 C1969 1.403 . S
C1967 C1964 1.403 . S
C1967 C1968 1.524 . S
C1967 C1971 1.400 . S
C1968 H1953 0.960 . S
C1968 H1954 0.960 . S
C1968 H1955 0.960 . S
C1968 C1967 1.524 . S
C1969 C1966 1.403 . S
C1969 C1970 1.392 . S
C1969 C1973 1.495 . S
C1970 C1969 1.392 . S
C1970 C1971 1.385 . S
C1970 C1972 1.478 . S
C1971 H1965 0.930 . S
C1971 C1967 1.400 . S
C1971 C1970 1.385 . S
C1972 C1970 1.478 . S
C1972 C1974 1.381 . S
C1972 C1978 1.383 . S
C1973 C1969 1.495 . S
C1973 H1979 0.959 . S
C1973 H1980 0.961 . S
C1973 H1981 0.960 . S
C1974 C1972 1.381 . S
C1974 C1975 1.394 . S
C1974 H1982 0.930 . S
C1975 C1974 1.394 . S
C1975 C1976 1.383 . S
C1975 H1983 0.929 . S
C1976 C1975 1.383 . S
C1976 C1977 1.377 . S
C1977 H1961 0.930 . S
C1977 C1976 1.377 . S
C1977 C1978 1.379 . S
C1978 H1962 0.931 . S
C1978 C1972 1.383 . S
C1978 C1977 1.379 . S
H1979 C1973 0.959 . S
H1980 C1973 0.961 . S
H1981 C1973 0.960 . S
H1982 C1974 0.930 . S
H1983 C1975 0.929 . S
H1984 C1992 0.929 . S
H1985 C1994 0.930 . S
H1986 C1996 0.930 . S
H1987 C1999 0.929 . S
H1988 C2002 0.930 . S
H1989 C2004 0.960 . S
H1990 C2004 0.960 . S
H1991 C2004 0.960 . S
C1992 H1984 0.929 . S
C1992 C1993 1.377 . S
C1992 C1994 1.384 . S
C1993 C1992 1.377 . S
C1993 C1999 1.390 . S
C1994 H1985 0.930 . S
C1994 C1992 1.384 . S
C1994 C1995 1.372 . S
C1995 C1994 1.372 . S
C1995 C1996 1.400 . S
C1995 C2000 1.490 . S
C1996 H1986 0.930 . S
C1996 C1995 1.400 . S
C1996 C1999 1.386 . S
H1997 C2013 0.930 . S
H1998 C2014 0.931 . S
C1999 H1987 0.929 . S
C1999 C1993 1.390 . S
C1999 C1996 1.386 . S
C2000 C1995 1.490 . S
C2000 C2002 1.395 . S
C2000 C2003 1.403 . S
H2001 C2007 0.930 1_655 S
C2002 H1988 0.930 . S
C2002 C2000 1.395 . S
C2002 C2005 1.403 . S
C2003 C2000 1.403 . S
C2003 C2004 1.524 1_455 S
C2003 C2007 1.400 . S
C2004 H1989 0.960 . S
C2004 H1990 0.960 . S
C2004 H1991 0.960 . S
C2004 C2003 1.524 1_655 S
C2005 C2002 1.403 . S
C2005 C2006 1.392 . S
C2005 C2009 1.495 . S
C2006 C2005 1.392 . S
C2006 C2007 1.385 . S
C2006 C2008 1.478 . S
C2007 H2001 0.930 1_455 S
C2007 C2003 1.400 . S
C2007 C2006 1.385 . S
C2008 C2006 1.478 . S
C2008 C2010 1.381 . S
C2008 C2014 1.383 1_455 S
C2009 C2005 1.495 . S
C2009 H2015 0.959 . S
C2009 H2016 0.961 . S
C2009 H2017 0.960 . S
C2010 C2008 1.381 . S
C2010 C2011 1.394 . S
C2010 H2018 0.930 . S
C2011 C2010 1.394 . S
C2011 C2012 1.383 1_455 S
C2011 H2019 0.929 . S
C2012 C2011 1.383 1_655 S
C2012 C2013 1.377 . S
C2013 H1997 0.930 . S
C2013 C2012 1.377 . S
C2013 C2014 1.379 . S
C2014 H1998 0.931 . S
C2014 C2008 1.383 1_655 S
C2014 C2013 1.379 . S
H2015 C2009 0.959 . S
H2016 C2009 0.961 . S
H2017 C2009 0.960 . S
H2018 C2010 0.930 . S
H2019 C2011 0.929 . S
H2020 C2028 0.929 . S
H2021 C2030 0.930 . S
H2022 C2032 0.930 . S
H2023 C2035 0.929 . S
H2024 C2038 0.930 . S
H2025 C2040 0.960 . S
H2026 C2040 0.960 . S
H2027 C2040 0.960 . S
C2028 H2020 0.929 . S
C2028 C2029 1.377 . S
C2028 C2030 1.384 . S
C2029 C2028 1.377 . S
C2029 C2035 1.390 . S
C2030 H2021 0.930 . S
C2030 C2028 1.384 . S
C2030 C2031 1.372 . S
C2031 C2030 1.372 . S
C2031 C2032 1.400 . S
C2031 C2036 1.490 . S
C2032 H2022 0.930 . S
C2032 C2031 1.400 . S
C2032 C2035 1.386 . S
H2033 C2049 0.930 . S
H2034 C2050 0.931 . S
C2035 H2023 0.929 . S
C2035 C2029 1.390 . S
C2035 C2032 1.386 . S
C2036 C2031 1.490 . S
C2036 C2038 1.395 . S
C2036 C2039 1.403 . S
H2037 C2043 0.930 . S
C2038 H2024 0.930 . S
C2038 C2036 1.395 . S
C2038 C2041 1.403 . S
C2039 C2036 1.403 . S
C2039 C2040 1.524 . S
C2039 C2043 1.400 . S
C2040 H2025 0.960 . S
C2040 H2026 0.960 . S
C2040 H2027 0.960 . S
C2040 C2039 1.524 . S
C2041 C2038 1.403 . S
C2041 C2042 1.392 . S
C2041 C2045 1.495 . S
C2042 C2041 1.392 . S
C2042 C2043 1.385 . S
C2042 C2044 1.478 . S
C2043 H2037 0.930 . S
C2043 C2039 1.400 . S
C2043 C2042 1.385 . S
C2044 C2042 1.478 . S
C2044 C2046 1.381 . S
C2044 C2050 1.383 . S
C2045 C2041 1.495 . S
C2045 H2051 0.959 . S
C2045 H2052 0.961 . S
C2045 H2053 0.960 . S
C2046 C2044 1.381 . S
C2046 C2047 1.394 . S
C2046 H2054 0.930 . S
C2047 C2046 1.394 . S
C2047 C2048 1.383 . S
C2047 H2055 0.929 . S
C2048 C2047 1.383 . S
C2048 C2049 1.377 . S
C2049 H2033 0.930 . S
C2049 C2048 1.377 . S
C2049 C2050 1.379 . S
C2050 H2034 0.931 . S
C2050 C2044 1.383 . S
C2050 C2049 1.379 . S
H2051 C2045 0.959 . S
H2052 C2045 0.961 . S
H2053 C2045 0.960 . S
H2054 C2046 0.930 . S
H2055 C2047 0.929 . S
H2056 C2064 0.929 1_554 S
H2057 C2066 0.930 . S
H2058 C2068 0.930 . S
H2059 C2071 0.929 . S
H2060 C2074 0.930 1_556 S
H2061 C2076 0.960 . S
H2062 C2076 0.960 . S
H2063 C2076 0.960 . S
C2064 H2056 0.929 1_556 S
C2064 C2065 1.377 . S
C2064 C2066 1.384 1_556 S
C2065 C2064 1.377 . S
C2065 C2071 1.390 . S
C2066 H2057 0.930 . S
C2066 C2064 1.384 1_554 S
C2066 C2067 1.372 . S
C2067 C2066 1.372 . S
C2067 C2068 1.400 1_554 S
C2067 C2072 1.490 . S
C2068 H2058 0.930 . S
C2068 C2067 1.400 1_556 S
C2068 C2071 1.386 . S
H2069 C2085 0.930 . S
H2070 C2086 0.931 . S
C2071 H2059 0.929 . S
C2071 C2065 1.390 . S
C2071 C2068 1.386 . S
C2072 C2067 1.490 . S
C2072 C2074 1.395 . S
C2072 C2075 1.403 . S
H2073 C2079 0.930 . S
C2074 H2060 0.930 1_554 S
C2074 C2072 1.395 . S
C2074 C2077 1.403 . S
C2075 C2072 1.403 . S
C2075 C2076 1.524 . S
C2075 C2079 1.400 . S
C2076 H2061 0.960 . S
C2076 H2062 0.960 . S
C2076 H2063 0.960 . S
C2076 C2075 1.524 . S
C2077 C2074 1.403 . S
C2077 C2078 1.392 . S
C2077 C2081 1.495 . S
C2078 C2077 1.392 . S
C2078 C2079 1.385 . S
C2078 C2080 1.478 . S
C2079 H2073 0.930 . S
C2079 C2075 1.400 . S
C2079 C2078 1.385 . S
C2080 C2078 1.478 . S
C2080 C2082 1.381 . S
C2080 C2086 1.383 . S
C2081 C2077 1.495 . S
C2081 H2087 0.959 1_554 S
C2081 H2088 0.961 1_554 S
C2081 H2089 0.960 . S
C2082 C2080 1.381 . S
C2082 C2083 1.394 1_565 S
C2082 H2090 0.930 . S
C2083 C2082 1.394 1_545 S
C2083 C2084 1.383 . S
C2083 H2091 0.929 . S
C2084 C2083 1.383 . S
C2084 C2085 1.377 . S
C2085 H2069 0.930 . S
C2085 C2084 1.377 . S
C2085 C2086 1.379 1_545 S
C2086 H2070 0.931 . S
C2086 C2080 1.383 . S
C2086 C2085 1.379 1_565 S
H2087 C2081 0.959 1_556 S
H2088 C2081 0.961 1_556 S
H2089 C2081 0.960 . S
H2090 C2082 0.930 . S
H2091 C2083 0.929 . S
H2092 C2100 0.929 . S
H2093 C2102 0.930 . S
H2094 C2104 0.930 . S
H2095 C2107 0.929 . S
H2096 C2110 0.930 . S
H2097 C2112 0.960 . S
H2098 C2112 0.960 . S
H2099 C2112 0.960 . S
C2100 H2092 0.929 . S
C2100 C2101 1.377 . S
C2100 C2102 1.384 . S
C2101 C2100 1.377 . S
C2101 C2107 1.390 . S
C2102 H2093 0.930 . S
C2102 C2100 1.384 . S
C2102 C2103 1.372 . S
C2103 C2102 1.372 . S
C2103 C2104 1.400 . S
C2103 C2108 1.490 . S
C2104 H2094 0.930 . S
C2104 C2103 1.400 . S
C2104 C2107 1.386 . S
H2105 C2121 0.930 . S
H2106 C2122 0.931 . S
C2107 H2095 0.929 . S
C2107 C2101 1.390 . S
C2107 C2104 1.386 . S
C2108 C2103 1.490 . S
C2108 C2110 1.395 . S
C2108 C2111 1.403 . S
H2109 C2115 0.930 . S
C2110 H2096 0.930 . S
C2110 C2108 1.395 . S
C2110 C2113 1.403 . S
C2111 C2108 1.403 . S
C2111 C2112 1.524 . S
C2111 C2115 1.400 . S
C2112 H2097 0.960 . S
C2112 H2098 0.960 . S
C2112 H2099 0.960 . S
C2112 C2111 1.524 . S
C2113 C2110 1.403 . S
C2113 C2114 1.392 . S
C2113 C2117 1.495 . S
C2114 C2113 1.392 . S
C2114 C2115 1.385 . S
C2114 C2116 1.478 . S
C2115 H2109 0.930 . S
C2115 C2111 1.400 . S
C2115 C2114 1.385 . S
C2116 C2114 1.478 . S
C2116 C2118 1.381 . S
C2116 C2122 1.383 . S
C2117 C2113 1.495 . S
C2117 H2123 0.959 . S
C2117 H2124 0.961 . S
C2117 H2125 0.960 . S
C2118 C2116 1.381 . S
C2118 C2119 1.394 . S
C2118 H2126 0.930 . S
C2119 C2118 1.394 . S
C2119 C2120 1.383 . S
C2119 H2127 0.929 . S
C2120 C2119 1.383 . S
C2120 C2121 1.377 . S
C2121 H2105 0.930 . S
C2121 C2120 1.377 . S
C2121 C2122 1.379 . S
C2122 H2106 0.931 . S
C2122 C2116 1.383 . S
C2122 C2121 1.379 . S
H2123 C2117 0.959 . S
H2124 C2117 0.961 . S
H2125 C2117 0.960 . S
H2126 C2118 0.930 . S
H2127 C2119 0.929 . S
H2128 C2136 0.929 . S
H2129 C2138 0.930 . S
H2130 C2140 0.930 . S
H2131 C2143 0.929 . S
H2132 C2146 0.930 . S
H2133 C2148 0.960 . S
H2134 C2148 0.960 . S
H2135 C2148 0.960 . S
C2136 H2128 0.929 . S
C2136 C2137 1.377 . S
C2136 C2138 1.384 . S
C2137 C2136 1.377 . S
C2137 C2143 1.390 . S
C2138 H2129 0.930 . S
C2138 C2136 1.384 . S
C2138 C2139 1.372 . S
C2139 C2138 1.372 . S
C2139 C2140 1.400 . S
C2139 C2144 1.490 . S
C2140 H2130 0.930 . S
C2140 C2139 1.400 . S
C2140 C2143 1.386 . S
H2141 C2157 0.930 1_554 S
H2142 C2158 0.931 . S
C2143 H2131 0.929 . S
C2143 C2137 1.390 . S
C2143 C2140 1.386 . S
C2144 C2139 1.490 . S
C2144 C2146 1.395 . S
C2144 C2147 1.403 . S
H2145 C2151 0.930 . S
C2146 H2132 0.930 . S
C2146 C2144 1.395 . S
C2146 C2149 1.403 . S
C2147 C2144 1.403 . S
C2147 C2148 1.524 . S
C2147 C2151 1.400 . S
C2148 H2133 0.960 . S
C2148 H2134 0.960 . S
C2148 H2135 0.960 . S
C2148 C2147 1.524 . S
C2149 C2146 1.403 . S
C2149 C2150 1.392 . S
C2149 C2153 1.495 1_545 S
C2150 C2149 1.392 . S
C2150 C2151 1.385 . S
C2150 C2152 1.478 . S
C2151 H2145 0.930 . S
C2151 C2147 1.400 . S
C2151 C2150 1.385 . S
C2152 C2150 1.478 . S
C2152 C2154 1.381 . S
C2152 C2158 1.383 . S
C2153 C2149 1.495 1_565 S
C2153 H2159 0.959 . S
C2153 H2160 0.961 . S
C2153 H2161 0.960 . S
C2154 C2152 1.381 . S
C2154 C2155 1.394 . S
C2154 H2162 0.930 . S
C2155 C2154 1.394 . S
C2155 C2156 1.383 . S
C2155 H2163 0.929 . S
C2156 C2155 1.383 . S
C2156 C2157 1.377 . S
C2157 H2141 0.930 1_556 S
C2157 C2156 1.377 . S
C2157 C2158 1.379 . S
C2158 H2142 0.931 . S
C2158 C2152 1.383 . S
C2158 C2157 1.379 . S
H2159 C2153 0.959 . S
H2160 C2153 0.961 . S
H2161 C2153 0.960 . S
H2162 C2154 0.930 . S
H2163 C2155 0.929 . S
H2164 C2172 0.929 . S
H2165 C2174 0.930 . S
H2166 C2176 0.930 . S
H2167 C2179 0.929 . S
H2168 C2182 0.930 . S
H2169 C2184 0.960 . S
H2170 C2184 0.960 . S
H2171 C2184 0.960 . S
C2172 H2164 0.929 . S
C2172 C2173 1.377 . S
C2172 C2174 1.384 . S
C2173 C2172 1.377 . S
C2173 C2179 1.390 . S
C2174 H2165 0.930 . S
C2174 C2172 1.384 . S
C2174 C2175 1.372 . S
C2175 C2174 1.372 . S
C2175 C2176 1.400 . S
C2175 C2180 1.490 . S
C2176 H2166 0.930 . S
C2176 C2175 1.400 . S
C2176 C2179 1.386 . S
H2177 C2193 0.930 . S
H2178 C2194 0.931 . S
C2179 H2167 0.929 . S
C2179 C2173 1.390 . S
C2179 C2176 1.386 . S
C2180 C2175 1.490 . S
C2180 C2182 1.395 . S
C2180 C2183 1.403 . S
H2181 C2187 0.930 . S
C2182 H2168 0.930 . S
C2182 C2180 1.395 . S
C2182 C2185 1.403 . S
C2183 C2180 1.403 . S
C2183 C2184 1.524 . S
C2183 C2187 1.400 . S
C2184 H2169 0.960 . S
C2184 H2170 0.960 . S
C2184 H2171 0.960 . S
C2184 C2183 1.524 . S
C2185 C2182 1.403 . S
C2185 C2186 1.392 . S
C2185 C2189 1.495 . S
C2186 C2185 1.392 . S
C2186 C2187 1.385 . S
C2186 C2188 1.478 . S
C2187 H2181 0.930 . S
C2187 C2183 1.400 . S
C2187 C2186 1.385 . S
C2188 C2186 1.478 . S
C2188 C2190 1.381 . S
C2188 C2194 1.383 . S
C2189 C2185 1.495 . S
C2189 H2195 0.959 . S
C2189 H2196 0.961 . S
C2189 H2197 0.960 . S
C2190 C2188 1.381 . S
C2190 C2191 1.394 . S
C2190 H2198 0.930 . S
C2191 C2190 1.394 . S
C2191 C2192 1.383 . S
C2191 H2199 0.929 . S
C2192 C2191 1.383 . S
C2192 C2193 1.377 . S
C2193 H2177 0.930 . S
C2193 C2192 1.377 . S
C2193 C2194 1.379 . S
C2194 H2178 0.931 . S
C2194 C2188 1.383 . S
C2194 C2193 1.379 . S
H2195 C2189 0.959 . S
H2196 C2189 0.961 . S
H2197 C2189 0.960 . S
H2198 C2190 0.930 . S
H2199 C2191 0.929 . S
H2200 C2208 0.929 . S
H2201 C2210 0.930 . S
H2202 C2212 0.930 . S
H2203 C2215 0.929 . S
H2204 C2218 0.930 . S
H2205 C2220 0.960 . S
H2206 C2220 0.960 . S
H2207 C2220 0.960 . S
C2208 H2200 0.929 . S
C2208 C2209 1.377 . S
C2208 C2210 1.384 . S
C2209 C2208 1.377 . S
C2209 C2215 1.390 . S
C2210 H2201 0.930 . S
C2210 C2208 1.384 . S
C2210 C2211 1.372 . S
C2211 C2210 1.372 . S
C2211 C2212 1.400 . S
C2211 C2216 1.490 . S
C2212 H2202 0.930 . S
C2212 C2211 1.400 . S
C2212 C2215 1.386 . S
H2213 C2229 0.930 . S
H2214 C2230 0.931 . S
C2215 H2203 0.929 . S
C2215 C2209 1.390 . S
C2215 C2212 1.386 . S
C2216 C2211 1.490 . S
C2216 C2218 1.395 . S
C2216 C2219 1.403 . S
H2217 C2223 0.930 . S
C2218 H2204 0.930 . S
C2218 C2216 1.395 . S
C2218 C2221 1.403 . S
C2219 C2216 1.403 . S
C2219 C2220 1.524 . S
C2219 C2223 1.400 . S
C2220 H2205 0.960 . S
C2220 H2206 0.960 . S
C2220 H2207 0.960 . S
C2220 C2219 1.524 . S
C2221 C2218 1.403 . S
C2221 C2222 1.392 . S
C2221 C2225 1.495 . S
C2222 C2221 1.392 . S
C2222 C2223 1.385 . S
C2222 C2224 1.478 . S
C2223 H2217 0.930 . S
C2223 C2219 1.400 . S
C2223 C2222 1.385 . S
C2224 C2222 1.478 . S
C2224 C2226 1.381 . S
C2224 C2230 1.383 . S
C2225 C2221 1.495 . S
C2225 H2231 0.959 . S
C2225 H2232 0.961 . S
C2225 H2233 0.960 . S
C2226 C2224 1.381 . S
C2226 C2227 1.394 . S
C2226 H2234 0.930 . S
C2227 C2226 1.394 . S
C2227 C2228 1.383 . S
C2227 H2235 0.929 . S
C2228 C2227 1.383 . S
C2228 C2229 1.377 . S
C2229 H2213 0.930 . S
C2229 C2228 1.377 . S
C2229 C2230 1.379 . S
C2230 H2214 0.931 . S
C2230 C2224 1.383 . S
C2230 C2229 1.379 . S
H2231 C2225 0.959 . S
H2232 C2225 0.961 . S
H2233 C2225 0.960 . S
H2234 C2226 0.930 . S
H2235 C2227 0.929 . S
H2236 C2244 0.929 . S
H2237 C2246 0.930 . S
H2238 C2248 0.930 . S
H2239 C2251 0.929 . S
H2240 C2254 0.930 . S
H2241 C2256 0.960 . S
H2242 C2256 0.960 . S
H2243 C2256 0.960 . S
C2244 H2236 0.929 . S
C2244 C2245 1.377 . S
C2244 C2246 1.384 . S
C2245 C2244 1.377 . S
C2245 C2251 1.390 . S
C2246 H2237 0.930 . S
C2246 C2244 1.384 . S
C2246 C2247 1.372 . S
C2247 C2246 1.372 . S
C2247 C2248 1.400 . S
C2247 C2252 1.490 . S
C2248 H2238 0.930 . S
C2248 C2247 1.400 . S
C2248 C2251 1.386 . S
H2249 C2265 0.930 . S
H2250 C2266 0.931 . S
C2251 H2239 0.929 . S
C2251 C2245 1.390 . S
C2251 C2248 1.386 . S
C2252 C2247 1.490 . S
C2252 C2254 1.395 . S
C2252 C2255 1.403 . S
H2253 C2259 0.930 . S
C2254 H2240 0.930 . S
C2254 C2252 1.395 . S
C2254 C2257 1.403 . S
C2255 C2252 1.403 . S
C2255 C2256 1.524 . S
C2255 C2259 1.400 . S
C2256 H2241 0.960 . S
C2256 H2242 0.960 . S
C2256 H2243 0.960 . S
C2256 C2255 1.524 . S
C2257 C2254 1.403 . S
C2257 C2258 1.392 . S
C2257 C2261 1.495 . S
C2258 C2257 1.392 . S
C2258 C2259 1.385 . S
C2258 C2260 1.478 . S
C2259 H2253 0.930 . S
C2259 C2255 1.400 . S
C2259 C2258 1.385 . S
C2260 C2258 1.478 . S
C2260 C2262 1.381 . S
C2260 C2266 1.383 . S
C2261 C2257 1.495 . S
C2261 H2267 0.959 . S
C2261 H2268 0.961 . S
C2261 H2269 0.960 . S
C2262 C2260 1.381 . S
C2262 C2263 1.394 . S
C2262 H2270 0.930 . S
C2263 C2262 1.394 . S
C2263 C2264 1.383 . S
C2263 H2271 0.929 . S
C2264 C2263 1.383 . S
C2264 C2265 1.377 . S
C2265 H2249 0.930 . S
C2265 C2264 1.377 . S
C2265 C2266 1.379 . S
C2266 H2250 0.931 . S
C2266 C2260 1.383 . S
C2266 C2265 1.379 . S
H2267 C2261 0.959 . S
H2268 C2261 0.961 . S
H2269 C2261 0.960 . S
H2270 C2262 0.930 . S
H2271 C2263 0.929 . S
H2272 C2280 0.929 . S
H2273 C2282 0.930 . S
H2274 C2284 0.930 . S
H2275 C2287 0.929 . S
H2276 C2290 0.930 . S
H2277 C2292 0.960 . S
H2278 C2292 0.960 . S
H2279 C2292 0.960 . S
C2280 H2272 0.929 . S
C2280 C2281 1.377 . S
C2280 C2282 1.384 . S
C2281 C2280 1.377 . S
C2281 C2287 1.390 . S
C2282 H2273 0.930 . S
C2282 C2280 1.384 . S
C2282 C2283 1.372 . S
C2283 C2282 1.372 . S
C2283 C2284 1.400 . S
C2283 C2288 1.490 . S
C2284 H2274 0.930 . S
C2284 C2283 1.400 . S
C2284 C2287 1.386 . S
H2285 C2301 0.930 . S
H2286 C2302 0.931 . S
C2287 H2275 0.929 . S
C2287 C2281 1.390 . S
C2287 C2284 1.386 . S
C2288 C2283 1.490 . S
C2288 C2290 1.395 . S
C2288 C2291 1.403 . S
H2289 C2295 0.930 . S
C2290 H2276 0.930 . S
C2290 C2288 1.395 . S
C2290 C2293 1.403 . S
C2291 C2288 1.403 . S
C2291 C2292 1.524 . S
C2291 C2295 1.400 . S
C2292 H2277 0.960 . S
C2292 H2278 0.960 . S
C2292 H2279 0.960 . S
C2292 C2291 1.524 . S
C2293 C2290 1.403 . S
C2293 C2294 1.392 . S
C2293 C2297 1.495 . S
C2294 C2293 1.392 . S
C2294 C2295 1.385 . S
C2294 C2296 1.478 . S
C2295 H2289 0.930 . S
C2295 C2291 1.400 . S
C2295 C2294 1.385 . S
C2296 C2294 1.478 . S
C2296 C2298 1.381 . S
C2296 C2302 1.383 . S
C2297 C2293 1.495 . S
C2297 H2303 0.959 1_545 S
C2297 H2304 0.961 1_545 S
C2297 H2305 0.960 . S
C2298 C2296 1.381 . S
C2298 C2299 1.394 . S
C2298 H2306 0.930 . S
C2299 C2298 1.394 . S
C2299 C2300 1.383 . S
C2299 H2307 0.929 . S
C2300 C2299 1.383 . S
C2300 C2301 1.377 . S
C2301 H2285 0.930 . S
C2301 C2300 1.377 . S
C2301 C2302 1.379 . S
C2302 H2286 0.931 . S
C2302 C2296 1.383 . S
C2302 C2301 1.379 . S
H2303 C2297 0.959 1_565 S
H2304 C2297 0.961 1_565 S
H2305 C2297 0.960 . S
H2306 C2298 0.930 . S
H2307 C2299 0.929 . S
H2308 C2316 0.929 . S
H2309 C2318 0.930 . S
H2310 C2320 0.930 . S
H2311 C2323 0.929 . S
H2312 C2326 0.930 . S
H2313 C2328 0.960 . S
H2314 C2328 0.960 . S
H2315 C2328 0.960 . S
C2316 H2308 0.929 . S
C2316 C2317 1.377 . S
C2316 C2318 1.384 . S
C2317 C2316 1.377 . S
C2317 C2323 1.390 . S
C2318 H2309 0.930 . S
C2318 C2316 1.384 . S
C2318 C2319 1.372 . S
C2319 C2318 1.372 . S
C2319 C2320 1.400 . S
C2319 C2324 1.490 . S
C2320 H2310 0.930 . S
C2320 C2319 1.400 . S
C2320 C2323 1.386 . S
H2321 C2337 0.930 . S
H2322 C2338 0.931 . S
C2323 H2311 0.929 . S
C2323 C2317 1.390 . S
C2323 C2320 1.386 . S
C2324 C2319 1.490 . S
C2324 C2326 1.395 . S
C2324 C2327 1.403 . S
H2325 C2331 0.930 . S
C2326 H2312 0.930 . S
C2326 C2324 1.395 . S
C2326 C2329 1.403 . S
C2327 C2324 1.403 . S
C2327 C2328 1.524 . S
C2327 C2331 1.400 . S
C2328 H2313 0.960 . S
C2328 H2314 0.960 . S
C2328 H2315 0.960 . S
C2328 C2327 1.524 . S
C2329 C2326 1.403 . S
C2329 C2330 1.392 . S
C2329 C2333 1.495 . S
C2330 C2329 1.392 . S
C2330 C2331 1.385 . S
C2330 C2332 1.478 . S
C2331 H2325 0.930 . S
C2331 C2327 1.400 . S
C2331 C2330 1.385 . S
C2332 C2330 1.478 . S
C2332 C2334 1.381 . S
C2332 C2338 1.383 . S
C2333 C2329 1.495 . S
C2333 H2339 0.959 . S
C2333 H2340 0.961 . S
C2333 H2341 0.960 . S
C2334 C2332 1.381 . S
C2334 C2335 1.394 . S
C2334 H2342 0.930 . S
C2335 C2334 1.394 . S
C2335 C2336 1.383 . S
C2335 H2343 0.929 . S
C2336 C2335 1.383 . S
C2336 C2337 1.377 . S
C2337 H2321 0.930 . S
C2337 C2336 1.377 . S
C2337 C2338 1.379 . S
C2338 H2322 0.931 . S
C2338 C2332 1.383 . S
C2338 C2337 1.379 . S
H2339 C2333 0.959 . S
H2340 C2333 0.961 . S
H2341 C2333 0.960 . S
H2342 C2334 0.930 . S
H2343 C2335 0.929 . S
H2344 C2352 0.929 . S
H2345 C2354 0.930 . S
H2346 C2356 0.930 . S
H2347 C2359 0.929 . S
H2348 C2362 0.930 . S
H2349 C2364 0.960 . S
H2350 C2364 0.960 . S
H2351 C2364 0.960 . S
C2352 H2344 0.929 . S
C2352 C2353 1.377 . S
C2352 C2354 1.384 . S
C2353 C2352 1.377 . S
C2353 C2359 1.390 . S
C2354 H2345 0.930 . S
C2354 C2352 1.384 . S
C2354 C2355 1.372 . S
C2355 C2354 1.372 . S
C2355 C2356 1.400 . S
C2355 C2360 1.490 . S
C2356 H2346 0.930 . S
C2356 C2355 1.400 . S
C2356 C2359 1.386 . S
H2357 C2373 0.930 . S
H2358 C2374 0.931 . S
C2359 H2347 0.929 . S
C2359 C2353 1.390 . S
C2359 C2356 1.386 . S
C2360 C2355 1.490 . S
C2360 C2362 1.395 . S
C2360 C2363 1.403 . S
H2361 C2367 0.930 . S
C2362 H2348 0.930 . S
C2362 C2360 1.395 . S
C2362 C2365 1.403 . S
C2363 C2360 1.403 . S
C2363 C2364 1.524 . S
C2363 C2367 1.400 . S
C2364 H2349 0.960 . S
C2364 H2350 0.960 . S
C2364 H2351 0.960 . S
C2364 C2363 1.524 . S
C2365 C2362 1.403 . S
C2365 C2366 1.392 . S
C2365 C2369 1.495 . S
C2366 C2365 1.392 . S
C2366 C2367 1.385 . S
C2366 C2368 1.478 . S
C2367 H2361 0.930 . S
C2367 C2363 1.400 . S
C2367 C2366 1.385 . S
C2368 C2366 1.478 . S
C2368 C2370 1.381 . S
C2368 C2374 1.383 . S
C2369 C2365 1.495 . S
C2369 H2375 0.959 . S
C2369 H2376 0.961 . S
C2369 H2377 0.960 . S
C2370 C2368 1.381 . S
C2370 C2371 1.394 . S
C2370 H2378 0.930 . S
C2371 C2370 1.394 . S
C2371 C2372 1.383 . S
C2371 H2379 0.929 . S
C2372 C2371 1.383 . S
C2372 C2373 1.377 . S
C2373 H2357 0.930 . S
C2373 C2372 1.377 . S
C2373 C2374 1.379 . S
C2374 H2358 0.931 . S
C2374 C2368 1.383 . S
C2374 C2373 1.379 . S
H2375 C2369 0.959 . S
H2376 C2369 0.961 . S
H2377 C2369 0.960 . S
H2378 C2370 0.930 . S
H2379 C2371 0.929 . S
H2380 C2388 0.929 . S
H2381 C2390 0.930 . S
H2382 C2392 0.930 . S
H2383 C2395 0.929 . S
H2384 C2398 0.930 . S
H2385 C2400 0.960 . S
H2386 C2400 0.960 . S
H2387 C2400 0.960 . S
C2388 H2380 0.929 . S
C2388 C2389 1.377 . S
C2388 C2390 1.384 . S
C2389 C2388 1.377 . S
C2389 C2395 1.390 . S
C2390 H2381 0.930 . S
C2390 C2388 1.384 . S
C2390 C2391 1.372 . S
C2391 C2390 1.372 . S
C2391 C2392 1.400 . S
C2391 C2396 1.490 . S
C2392 H2382 0.930 . S
C2392 C2391 1.400 . S
C2392 C2395 1.386 . S
H2393 C2409 0.930 . S
H2394 C2410 0.931 . S
C2395 H2383 0.929 . S
C2395 C2389 1.390 . S
C2395 C2392 1.386 . S
C2396 C2391 1.490 . S
C2396 C2398 1.395 . S
C2396 C2399 1.403 . S
H2397 C2403 0.930 . S
C2398 H2384 0.930 . S
C2398 C2396 1.395 . S
C2398 C2401 1.403 . S
C2399 C2396 1.403 . S
C2399 C2400 1.524 . S
C2399 C2403 1.400 . S
C2400 H2385 0.960 . S
C2400 H2386 0.960 . S
C2400 H2387 0.960 . S
C2400 C2399 1.524 . S
C2401 C2398 1.403 . S
C2401 C2402 1.392 . S
C2401 C2405 1.495 . S
C2402 C2401 1.392 . S
C2402 C2403 1.385 . S
C2402 C2404 1.478 . S
C2403 H2397 0.930 . S
C2403 C2399 1.400 . S
C2403 C2402 1.385 . S
C2404 C2402 1.478 . S
C2404 C2406 1.381 . S
C2404 C2410 1.383 . S
C2405 C2401 1.495 . S
C2405 H2411 0.959 . S
C2405 H2412 0.961 . S
C2405 H2413 0.960 . S
C2406 C2404 1.381 . S
C2406 C2407 1.394 . S
C2406 H2414 0.930 . S
C2407 C2406 1.394 . S
C2407 C2408 1.383 . S
C2407 H2415 0.929 . S
C2408 C2407 1.383 . S
C2408 C2409 1.377 . S
C2409 H2393 0.930 . S
C2409 C2408 1.377 . S
C2409 C2410 1.379 . S
C2410 H2394 0.931 . S
C2410 C2404 1.383 . S
C2410 C2409 1.379 . S
H2411 C2405 0.959 . S
H2412 C2405 0.961 . S
H2413 C2405 0.960 . S
H2414 C2406 0.930 . S
H2415 C2407 0.929 . S
H2416 C2424 0.929 . S
H2417 C2426 0.930 . S
H2418 C2428 0.930 . S
H2419 C2431 0.929 . S
H2420 C2434 0.930 . S
H2421 C2436 0.960 . S
H2422 C2436 0.960 . S
H2423 C2436 0.960 . S
C2424 H2416 0.929 . S
C2424 C2425 1.377 . S
C2424 C2426 1.384 . S
C2425 C2424 1.377 . S
C2425 C2431 1.390 . S
C2426 H2417 0.930 . S
C2426 C2424 1.384 . S
C2426 C2427 1.372 . S
C2427 C2426 1.372 . S
C2427 C2428 1.400 . S
C2427 C2432 1.490 . S
C2428 H2418 0.930 . S
C2428 C2427 1.400 . S
C2428 C2431 1.386 . S
H2429 C2445 0.930 . S
H2430 C2446 0.931 . S
C2431 H2419 0.929 . S
C2431 C2425 1.390 . S
C2431 C2428 1.386 . S
C2432 C2427 1.490 . S
C2432 C2434 1.395 . S
C2432 C2435 1.403 . S
H2433 C2439 0.930 . S
C2434 H2420 0.930 . S
C2434 C2432 1.395 . S
C2434 C2437 1.403 . S
C2435 C2432 1.403 . S
C2435 C2436 1.524 . S
C2435 C2439 1.400 . S
C2436 H2421 0.960 . S
C2436 H2422 0.960 . S
C2436 H2423 0.960 . S
C2436 C2435 1.524 . S
C2437 C2434 1.403 . S
C2437 C2438 1.392 . S
C2437 C2441 1.495 . S
C2438 C2437 1.392 . S
C2438 C2439 1.385 . S
C2438 C2440 1.478 . S
C2439 H2433 0.930 . S
C2439 C2435 1.400 . S
C2439 C2438 1.385 . S
C2440 C2438 1.478 . S
C2440 C2442 1.381 . S
C2440 C2446 1.383 . S
C2441 C2437 1.495 . S
C2441 H2447 0.959 . S
C2441 H2448 0.961 . S
C2441 H2449 0.960 . S
C2442 C2440 1.381 . S
C2442 C2443 1.394 . S
C2442 H2450 0.930 . S
C2443 C2442 1.394 . S
C2443 C2444 1.383 . S
C2443 H2451 0.929 . S
C2444 C2443 1.383 . S
C2444 C2445 1.377 . S
C2445 H2429 0.930 . S
C2445 C2444 1.377 . S
C2445 C2446 1.379 . S
C2446 H2430 0.931 . S
C2446 C2440 1.383 . S
C2446 C2445 1.379 . S
H2447 C2441 0.959 . S
H2448 C2441 0.961 . S
H2449 C2441 0.960 . S
H2450 C2442 0.930 . S
H2451 C2443 0.929 . S
H2452 C2460 0.929 . S
H2453 C2462 0.930 . S
H2454 C2464 0.930 . S
H2455 C2467 0.929 . S
H2456 C2470 0.930 . S
H2457 C2472 0.960 . S
H2458 C2472 0.960 . S
H2459 C2472 0.960 . S
C2460 H2452 0.929 . S
C2460 C2461 1.377 . S
C2460 C2462 1.384 . S
C2461 C2460 1.377 . S
C2461 C2467 1.390 . S
C2462 H2453 0.930 . S
C2462 C2460 1.384 . S
C2462 C2463 1.372 . S
C2463 C2462 1.372 . S
C2463 C2464 1.400 . S
C2463 C2468 1.490 . S
C2464 H2454 0.930 . S
C2464 C2463 1.400 . S
C2464 C2467 1.386 . S
H2465 C2481 0.930 . S
H2466 C2482 0.931 . S
C2467 H2455 0.929 . S
C2467 C2461 1.390 . S
C2467 C2464 1.386 . S
C2468 C2463 1.490 . S
C2468 C2470 1.395 . S
C2468 C2471 1.403 . S
H2469 C2475 0.930 . S
C2470 H2456 0.930 . S
C2470 C2468 1.395 . S
C2470 C2473 1.403 . S
C2471 C2468 1.403 . S
C2471 C2472 1.524 . S
C2471 C2475 1.400 . S
C2472 H2457 0.960 . S
C2472 H2458 0.960 . S
C2472 H2459 0.960 . S
C2472 C2471 1.524 . S
C2473 C2470 1.403 . S
C2473 C2474 1.392 . S
C2473 C2477 1.495 . S
C2474 C2473 1.392 . S
C2474 C2475 1.385 . S
C2474 C2476 1.478 . S
C2475 H2469 0.930 . S
C2475 C2471 1.400 . S
C2475 C2474 1.385 . S
C2476 C2474 1.478 . S
C2476 C2478 1.381 . S
C2476 C2482 1.383 . S
C2477 C2473 1.495 . S
C2477 H2483 0.959 . S
C2477 H2484 0.961 . S
C2477 H2485 0.960 . S
C2478 C2476 1.381 . S
C2478 C2479 1.394 . S
C2478 H2486 0.930 . S
C2479 C2478 1.394 . S
C2479 C2480 1.383 . S
C2479 H2487 0.929 . S
C2480 C2479 1.383 . S
C2480 C2481 1.377 . S
C2481 H2465 0.930 . S
C2481 C2480 1.377 . S
C2481 C2482 1.379 . S
C2482 H2466 0.931 . S
C2482 C2476 1.383 . S
C2482 C2481 1.379 . S
H2483 C2477 0.959 . S
H2484 C2477 0.961 . S
H2485 C2477 0.960 . S
H2486 C2478 0.930 . S
H2487 C2479 0.929 . S
H2488 C2496 0.929 . S
H2489 C2498 0.930 . S
H2490 C2500 0.930 . S
H2491 C2503 0.929 . S
H2492 C2506 0.930 . S
H2493 C2508 0.960 . S
H2494 C2508 0.960 . S
H2495 C2508 0.960 . S
C2496 H2488 0.929 . S
C2496 C2497 1.377 . S
C2496 C2498 1.384 . S
C2497 C2496 1.377 . S
C2497 C2503 1.390 . S
C2498 H2489 0.930 . S
C2498 C2496 1.384 . S
C2498 C2499 1.372 . S
C2499 C2498 1.372 . S
C2499 C2500 1.400 . S
C2499 C2504 1.490 . S
C2500 H2490 0.930 . S
C2500 C2499 1.400 . S
C2500 C2503 1.386 . S
H2501 C2517 0.930 . S
H2502 C2518 0.931 . S
C2503 H2491 0.929 . S
C2503 C2497 1.390 . S
C2503 C2500 1.386 . S
C2504 C2499 1.490 . S
C2504 C2506 1.395 . S
C2504 C2507 1.403 . S
H2505 C2511 0.930 . S
C2506 H2492 0.930 . S
C2506 C2504 1.395 . S
C2506 C2509 1.403 . S
C2507 C2504 1.403 . S
C2507 C2508 1.524 . S
C2507 C2511 1.400 . S
C2508 H2493 0.960 . S
C2508 H2494 0.960 . S
C2508 H2495 0.960 . S
C2508 C2507 1.524 . S
C2509 C2506 1.403 . S
C2509 C2510 1.392 . S
C2509 C2513 1.495 . S
C2510 C2509 1.392 . S
C2510 C2511 1.385 . S
C2510 C2512 1.478 . S
C2511 H2505 0.930 . S
C2511 C2507 1.400 . S
C2511 C2510 1.385 . S
C2512 C2510 1.478 . S
C2512 C2514 1.381 . S
C2512 C2518 1.383 . S
C2513 C2509 1.495 . S
C2513 H2519 0.959 . S
C2513 H2520 0.961 . S
C2513 H2521 0.960 . S
C2514 C2512 1.381 . S
C2514 C2515 1.394 . S
C2514 H2522 0.930 . S
C2515 C2514 1.394 . S
C2515 C2516 1.383 . S
C2515 H2523 0.929 . S
C2516 C2515 1.383 . S
C2516 C2517 1.377 . S
C2517 H2501 0.930 . S
C2517 C2516 1.377 . S
C2517 C2518 1.379 . S
C2518 H2502 0.931 . S
C2518 C2512 1.383 . S
C2518 C2517 1.379 . S
H2519 C2513 0.959 . S
H2520 C2513 0.961 . S
H2521 C2513 0.960 . S
H2522 C2514 0.930 . S
H2523 C2515 0.929 . S
H2524 C2532 0.929 . S
H2525 C2534 0.930 . S
H2526 C2536 0.930 . S
H2527 C2539 0.929 . S
H2528 C2542 0.930 . S
H2529 C2544 0.960 . S
H2530 C2544 0.960 . S
H2531 C2544 0.960 . S
C2532 H2524 0.929 . S
C2532 C2533 1.377 . S
C2532 C2534 1.384 . S
C2533 C2532 1.377 . S
C2533 C2539 1.390 . S
C2534 H2525 0.930 . S
C2534 C2532 1.384 . S
C2534 C2535 1.372 . S
C2535 C2534 1.372 . S
C2535 C2536 1.400 . S
C2535 C2540 1.490 . S
C2536 H2526 0.930 . S
C2536 C2535 1.400 . S
C2536 C2539 1.386 . S
H2537 C2553 0.930 . S
H2538 C2554 0.931 . S
C2539 H2527 0.929 . S
C2539 C2533 1.390 . S
C2539 C2536 1.386 . S
C2540 C2535 1.490 . S
C2540 C2542 1.395 . S
C2540 C2543 1.403 . S
H2541 C2547 0.930 . S
C2542 H2528 0.930 . S
C2542 C2540 1.395 . S
C2542 C2545 1.403 . S
C2543 C2540 1.403 . S
C2543 C2544 1.524 . S
C2543 C2547 1.400 . S
C2544 H2529 0.960 . S
C2544 H2530 0.960 . S
C2544 H2531 0.960 . S
C2544 C2543 1.524 . S
C2545 C2542 1.403 . S
C2545 C2546 1.392 . S
C2545 C2549 1.495 . S
C2546 C2545 1.392 . S
C2546 C2547 1.385 . S
C2546 C2548 1.478 . S
C2547 H2541 0.930 . S
C2547 C2543 1.400 . S
C2547 C2546 1.385 . S
C2548 C2546 1.478 . S
C2548 C2550 1.381 . S
C2548 C2554 1.383 . S
C2549 C2545 1.495 . S
C2549 H2555 0.959 . S
C2549 H2556 0.961 . S
C2549 H2557 0.960 . S
C2550 C2548 1.381 . S
C2550 C2551 1.394 . S
C2550 H2558 0.930 . S
C2551 C2550 1.394 . S
C2551 C2552 1.383 . S
C2551 H2559 0.929 . S
C2552 C2551 1.383 . S
C2552 C2553 1.377 . S
C2553 H2537 0.930 . S
C2553 C2552 1.377 . S
C2553 C2554 1.379 . S
C2554 H2538 0.931 . S
C2554 C2548 1.383 . S
C2554 C2553 1.379 . S
H2555 C2549 0.959 . S
H2556 C2549 0.961 . S
H2557 C2549 0.960 . S
H2558 C2550 0.930 . S
H2559 C2551 0.929 . S
H2560 C2568 0.929 . S
H2561 C2570 0.930 . S
H2562 C2572 0.930 . S
H2563 C2575 0.929 . S
H2564 C2578 0.930 . S
H2565 C2580 0.960 . S
H2566 C2580 0.960 . S
H2567 C2580 0.960 . S
C2568 H2560 0.929 . S
C2568 C2569 1.377 . S
C2568 C2570 1.384 . S
C2569 C2568 1.377 . S
C2569 C2575 1.390 . S
C2570 H2561 0.930 . S
C2570 C2568 1.384 . S
C2570 C2571 1.372 . S
C2571 C2570 1.372 . S
C2571 C2572 1.400 . S
C2571 C2576 1.490 . S
C2572 H2562 0.930 . S
C2572 C2571 1.400 . S
C2572 C2575 1.386 . S
H2573 C2589 0.930 . S
H2574 C2590 0.931 . S
C2575 H2563 0.929 . S
C2575 C2569 1.390 . S
C2575 C2572 1.386 . S
C2576 C2571 1.490 . S
C2576 C2578 1.395 . S
C2576 C2579 1.403 . S
H2577 C2583 0.930 . S
C2578 H2564 0.930 . S
C2578 C2576 1.395 . S
C2578 C2581 1.403 . S
C2579 C2576 1.403 . S
C2579 C2580 1.524 . S
C2579 C2583 1.400 . S
C2580 H2565 0.960 . S
C2580 H2566 0.960 . S
C2580 H2567 0.960 . S
C2580 C2579 1.524 . S
C2581 C2578 1.403 . S
C2581 C2582 1.392 . S
C2581 C2585 1.495 . S
C2582 C2581 1.392 . S
C2582 C2583 1.385 . S
C2582 C2584 1.478 . S
C2583 H2577 0.930 . S
C2583 C2579 1.400 . S
C2583 C2582 1.385 . S
C2584 C2582 1.478 . S
C2584 C2586 1.381 . S
C2584 C2590 1.383 . S
C2585 C2581 1.495 . S
C2585 H2591 0.959 . S
C2585 H2592 0.961 . S
C2585 H2593 0.960 . S
C2586 C2584 1.381 . S
C2586 C2587 1.394 . S
C2586 H2594 0.930 . S
C2587 C2586 1.394 . S
C2587 C2588 1.383 . S
C2587 H2595 0.929 . S
C2588 C2587 1.383 . S
C2588 C2589 1.377 . S
C2589 H2573 0.930 . S
C2589 C2588 1.377 . S
C2589 C2590 1.379 . S
C2590 H2574 0.931 . S
C2590 C2584 1.383 . S
C2590 C2589 1.379 . S
H2591 C2585 0.959 . S
H2592 C2585 0.961 . S
H2593 C2585 0.960 . S
H2594 C2586 0.930 . S
H2595 C2587 0.929 . S
H2596 C2604 0.929 . S
H2597 C2606 0.930 . S
H2598 C2608 0.930 . S
H2599 C2611 0.929 . S
H2600 C2614 0.930 . S
H2601 C2616 0.960 . S
H2602 C2616 0.960 . S
H2603 C2616 0.960 . S
C2604 H2596 0.929 . S
C2604 C2605 1.377 1_545 S
C2604 C2606 1.384 . S
C2605 C2604 1.377 1_565 S
C2605 C2611 1.390 . S
C2606 H2597 0.930 . S
C2606 C2604 1.384 . S
C2606 C2607 1.372 1_545 S
C2607 C2606 1.372 1_565 S
C2607 C2608 1.400 . S
C2607 C2612 1.490 . S
C2608 H2598 0.930 . S
C2608 C2607 1.400 . S
C2608 C2611 1.386 . S
H2609 C2625 0.939 . S
H2610 C2626 0.931 . S
C2611 H2599 0.929 . S
C2611 C2605 1.390 . S
C2611 C2608 1.386 . S
C2612 C2607 1.490 . S
C2612 C2614 1.395 1_565 S
C2612 C2615 1.403 . S
H2613 C2619 0.930 . S
C2614 H2600 0.930 . S
C2614 C2612 1.395 1_545 S
C2614 C2617 1.403 . S
C2615 C2612 1.403 . S
C2615 C2616 1.524 . S
C2615 C2619 1.400 . S
C2616 H2601 0.960 . S
C2616 H2602 0.960 . S
C2616 H2603 0.960 . S
C2616 C2615 1.524 . S
C2617 C2614 1.403 . S
C2617 C2618 1.392 . S
C2617 C2621 1.495 . S
C2618 C2617 1.392 . S
C2618 C2619 1.385 1_545 S
C2618 C2620 1.478 . S
C2619 H2613 0.930 . S
C2619 C2615 1.400 . S
C2619 C2618 1.385 1_565 S
C2620 C2618 1.478 . S
C2620 C2622 1.381 . S
C2620 C2626 1.383 1_545 S
C2621 C2617 1.495 . S
C2621 H2627 0.959 . S
C2621 H2628 0.961 . S
C2621 H2629 0.960 . S
C2622 C2620 1.381 . S
C2622 C2623 1.394 . S
C2622 H2630 0.930 . S
C2623 C2622 1.394 . S
C2623 C2624 1.383 . S
C2623 H2631 0.929 . S
C2624 C2623 1.383 . S
C2624 C2625 1.360 1_545 S
C2625 H2609 0.939 . S
C2625 C2624 1.360 1_565 S
C2625 C2626 1.387 . S
C2626 H2610 0.931 . S
C2626 C2620 1.383 1_565 S
C2626 C2625 1.387 . S
H2627 C2621 0.959 . S
H2628 C2621 0.961 . S
H2629 C2621 0.960 . S
H2630 C2622 0.930 . S
H2631 C2623 0.929 . S
H2632 C2640 0.929 . S
H2633 C2642 0.930 . S
H2634 C2644 0.930 . S
H2635 C2647 0.929 . S
H2636 C2650 0.930 . S
H2637 C2652 0.960 . S
H2638 C2652 0.960 . S
H2639 C2652 0.960 . S
C2640 H2632 0.929 . S
C2640 C2641 1.377 . S
C2640 C2642 1.384 . S
C2641 C2640 1.377 . S
C2641 C2647 1.390 . S
C2642 H2633 0.930 . S
C2642 C2640 1.384 . S
C2642 C2643 1.372 . S
C2643 C2642 1.372 . S
C2643 C2644 1.400 . S
C2643 C2648 1.490 . S
C2644 H2634 0.930 . S
C2644 C2643 1.400 . S
C2644 C2647 1.386 . S
H2645 C2661 0.930 . S
H2646 C2662 0.931 . S
C2647 H2635 0.929 . S
C2647 C2641 1.390 . S
C2647 C2644 1.386 . S
C2648 C2643 1.490 . S
C2648 C2650 1.395 . S
C2648 C2651 1.403 . S
H2649 C2655 0.930 . S
C2650 H2636 0.930 . S
C2650 C2648 1.395 . S
C2650 C2653 1.403 . S
C2651 C2648 1.403 . S
C2651 C2652 1.524 . S
C2651 C2655 1.400 . S
C2652 H2637 0.960 . S
C2652 H2638 0.960 . S
C2652 H2639 0.960 . S
C2652 C2651 1.524 . S
C2653 C2650 1.403 . S
C2653 C2654 1.392 . S
C2653 C2657 1.495 . S
C2654 C2653 1.392 . S
C2654 C2655 1.385 . S
C2654 C2656 1.478 . S
C2655 H2649 0.930 . S
C2655 C2651 1.400 . S
C2655 C2654 1.385 . S
C2656 C2654 1.478 . S
C2656 C2658 1.381 . S
C2656 C2662 1.383 . S
C2657 C2653 1.495 . S
C2657 H2663 0.959 . S
C2657 H2664 0.961 . S
C2657 H2665 0.960 . S
C2658 C2656 1.381 . S
C2658 C2659 1.394 . S
C2658 H2666 0.930 . S
C2659 C2658 1.394 . S
C2659 C2660 1.383 . S
C2659 H2667 0.929 . S
C2660 C2659 1.383 . S
C2660 C2661 1.377 . S
C2661 H2645 0.930 . S
C2661 C2660 1.377 . S
C2661 C2662 1.379 . S
C2662 H2646 0.931 . S
C2662 C2656 1.383 . S
C2662 C2661 1.379 . S
H2663 C2657 0.959 . S
H2664 C2657 0.961 . S
H2665 C2657 0.960 . S
H2666 C2658 0.930 . S
H2667 C2659 0.929 . S
H2668 C2676 0.929 . S
H2669 C2678 0.930 . S
H2670 C2680 0.930 . S
H2671 C2683 0.929 . S
H2672 C2686 0.930 . S
H2673 C2688 0.960 . S
H2674 C2688 0.960 . S
H2675 C2688 0.960 . S
C2676 H2668 0.929 . S
C2676 C2677 1.377 . S
C2676 C2678 1.384 . S
C2677 C2676 1.377 . S
C2677 C2683 1.390 . S
C2678 H2669 0.930 . S
C2678 C2676 1.384 . S
C2678 C2679 1.372 . S
C2679 C2678 1.372 . S
C2679 C2680 1.400 . S
C2679 C2684 1.490 . S
C2680 H2670 0.930 . S
C2680 C2679 1.400 . S
C2680 C2683 1.386 . S
H2681 C2697 0.930 . S
H2682 C2698 0.931 . S
C2683 H2671 0.929 . S
C2683 C2677 1.390 . S
C2683 C2680 1.386 . S
C2684 C2679 1.490 . S
C2684 C2686 1.395 . S
C2684 C2687 1.403 . S
H2685 C2691 0.930 . S
C2686 H2672 0.930 . S
C2686 C2684 1.395 . S
C2686 C2689 1.403 . S
C2687 C2684 1.403 . S
C2687 C2688 1.524 . S
C2687 C2691 1.400 . S
C2688 H2673 0.960 . S
C2688 H2674 0.960 . S
C2688 H2675 0.960 . S
C2688 C2687 1.524 . S
C2689 C2686 1.403 . S
C2689 C2690 1.392 . S
C2689 C2693 1.495 . S
C2690 C2689 1.392 . S
C2690 C2691 1.385 . S
C2690 C2692 1.478 . S
C2691 H2685 0.930 . S
C2691 C2687 1.400 . S
C2691 C2690 1.385 . S
C2692 C2690 1.478 . S
C2692 C2694 1.381 . S
C2692 C2698 1.383 . S
C2693 C2689 1.495 . S
C2693 H2699 0.959 . S
C2693 H2700 0.961 . S
C2693 H2701 0.960 . S
C2694 C2692 1.381 . S
C2694 C2695 1.394 . S
C2694 H2702 0.930 . S
C2695 C2694 1.394 . S
C2695 C2696 1.383 . S
C2695 H2703 0.929 . S
C2696 C2695 1.383 . S
C2696 C2697 1.377 . S
C2697 H2681 0.930 . S
C2697 C2696 1.377 . S
C2697 C2698 1.379 . S
C2698 H2682 0.931 . S
C2698 C2692 1.383 . S
C2698 C2697 1.379 . S
H2699 C2693 0.959 . S
H2700 C2693 0.961 . S
H2701 C2693 0.960 . S
H2702 C2694 0.930 . S
H2703 C2695 0.929 . S
H2704 C2712 0.929 . S
H2705 C2714 0.930 . S
H2706 C2716 0.930 . S
H2707 C2719 0.929 . S
H2708 C2722 0.930 . S
H2709 C2724 0.960 . S
H2710 C2724 0.960 . S
H2711 C2724 0.960 . S
C2712 H2704 0.929 . S
C2712 C2713 1.377 . S
C2712 C2714 1.384 . S
C2713 C2712 1.377 . S
C2713 C2719 1.390 . S
C2714 H2705 0.930 . S
C2714 C2712 1.384 . S
C2714 C2715 1.372 . S
C2715 C2714 1.372 . S
C2715 C2716 1.400 . S
C2715 C2720 1.490 . S
C2716 H2706 0.930 . S
C2716 C2715 1.400 . S
C2716 C2719 1.386 . S
H2717 C2733 0.930 . S
H2718 C2734 0.931 . S
C2719 H2707 0.929 . S
C2719 C2713 1.390 . S
C2719 C2716 1.386 . S
C2720 C2715 1.490 . S
C2720 C2722 1.395 . S
C2720 C2723 1.403 . S
H2721 C2727 0.930 . S
C2722 H2708 0.930 . S
C2722 C2720 1.395 . S
C2722 C2725 1.403 . S
C2723 C2720 1.403 . S
C2723 C2724 1.524 . S
C2723 C2727 1.400 . S
C2724 H2709 0.960 . S
C2724 H2710 0.960 . S
C2724 H2711 0.960 . S
C2724 C2723 1.524 . S
C2725 C2722 1.403 . S
C2725 C2726 1.392 . S
C2725 C2729 1.495 . S
C2726 C2725 1.392 . S
C2726 C2727 1.385 . S
C2726 C2728 1.478 . S
C2727 H2721 0.930 . S
C2727 C2723 1.400 . S
C2727 C2726 1.385 . S
C2728 C2726 1.478 . S
C2728 C2730 1.381 . S
C2728 C2734 1.383 . S
C2729 C2725 1.495 . S
C2729 H2735 0.959 . S
C2729 H2736 0.961 . S
C2729 H2737 0.960 . S
C2730 C2728 1.381 . S
C2730 C2731 1.394 . S
C2730 H2738 0.930 . S
C2731 C2730 1.394 . S
C2731 C2732 1.383 . S
C2731 H2739 0.929 . S
C2732 C2731 1.383 . S
C2732 C2733 1.377 . S
C2733 H2717 0.930 . S
C2733 C2732 1.377 . S
C2733 C2734 1.379 . S
C2734 H2718 0.931 . S
C2734 C2728 1.383 . S
C2734 C2733 1.379 . S
H2735 C2729 0.959 . S
H2736 C2729 0.961 . S
H2737 C2729 0.960 . S
H2738 C2730 0.930 . S
H2739 C2731 0.929 . S
H2740 C2748 0.929 . S
H2741 C2750 0.930 . S
H2742 C2752 0.930 . S
H2743 C2755 0.929 . S
H2744 C2758 0.930 . S
H2745 C2760 0.960 . S
H2746 C2760 0.960 . S
H2747 C2760 0.960 . S
C2748 H2740 0.929 . S
C2748 C2749 1.377 . S
C2748 C2750 1.384 . S
C2749 C2748 1.377 . S
C2749 C2755 1.390 . S
C2750 H2741 0.930 . S
C2750 C2748 1.384 . S
C2750 C2751 1.372 . S
C2751 C2750 1.372 . S
C2751 C2752 1.400 . S
C2751 C2756 1.490 . S
C2752 H2742 0.930 . S
C2752 C2751 1.400 . S
C2752 C2755 1.386 . S
H2753 C2769 0.930 . S
H2754 C2770 0.931 . S
C2755 H2743 0.929 . S
C2755 C2749 1.390 . S
C2755 C2752 1.386 . S
C2756 C2751 1.490 . S
C2756 C2758 1.395 . S
C2756 C2759 1.403 . S
H2757 C2763 0.930 . S
C2758 H2744 0.930 . S
C2758 C2756 1.395 . S
C2758 C2761 1.403 . S
C2759 C2756 1.403 . S
C2759 C2760 1.524 . S
C2759 C2763 1.400 . S
C2760 H2745 0.960 . S
C2760 H2746 0.960 . S
C2760 H2747 0.960 . S
C2760 C2759 1.524 . S
C2761 C2758 1.403 . S
C2761 C2762 1.392 . S
C2761 C2765 1.495 . S
C2762 C2761 1.392 . S
C2762 C2763 1.385 . S
C2762 C2764 1.478 . S
C2763 H2757 0.930 . S
C2763 C2759 1.400 . S
C2763 C2762 1.385 . S
C2764 C2762 1.478 . S
C2764 C2766 1.381 . S
C2764 C2770 1.383 . S
C2765 C2761 1.495 . S
C2765 H2771 0.959 . S
C2765 H2772 0.961 . S
C2765 H2773 0.960 . S
C2766 C2764 1.381 . S
C2766 C2767 1.394 . S
C2766 H2774 0.930 . S
C2767 C2766 1.394 . S
C2767 C2768 1.383 . S
C2767 H2775 0.929 . S
C2768 C2767 1.383 . S
C2768 C2769 1.377 . S
C2769 H2753 0.930 . S
C2769 C2768 1.377 . S
C2769 C2770 1.379 . S
C2770 H2754 0.931 . S
C2770 C2764 1.383 . S
C2770 C2769 1.379 . S
H2771 C2765 0.959 . S
H2772 C2765 0.961 . S
H2773 C2765 0.960 . S
H2774 C2766 0.930 . S
H2775 C2767 0.929 . S
H2776 C2784 0.929 . S
H2777 C2786 0.930 . S
H2778 C2788 0.930 . S
H2779 C2791 0.929 . S
H2780 C2794 0.930 . S
H2781 C2796 0.960 . S
H2782 C2796 0.960 . S
H2783 C2796 0.960 . S
C2784 H2776 0.929 . S
C2784 C2785 1.377 . S
C2784 C2786 1.384 . S
C2785 C2784 1.377 . S
C2785 C2791 1.390 . S
C2786 H2777 0.930 . S
C2786 C2784 1.384 . S
C2786 C2787 1.372 . S
C2787 C2786 1.372 . S
C2787 C2788 1.400 . S
C2787 C2792 1.490 . S
C2788 H2778 0.930 . S
C2788 C2787 1.400 . S
C2788 C2791 1.386 . S
H2789 C2805 0.930 1_556 S
H2790 C2806 0.931 . S
C2791 H2779 0.929 . S
C2791 C2785 1.390 . S
C2791 C2788 1.386 . S
C2792 C2787 1.490 . S
C2792 C2794 1.395 . S
C2792 C2795 1.403 . S
H2793 C2799 0.930 . S
C2794 H2780 0.930 . S
C2794 C2792 1.395 . S
C2794 C2797 1.403 . S
C2795 C2792 1.403 . S
C2795 C2796 1.524 1_455 S
C2795 C2799 1.400 . S
C2796 H2781 0.960 . S
C2796 H2782 0.960 . S
C2796 H2783 0.960 . S
C2796 C2795 1.524 1_655 S
C2797 C2794 1.403 . S
C2797 C2798 1.392 . S
C2797 C2801 1.495 1_556 S
C2798 C2797 1.392 . S
C2798 C2799 1.385 . S
C2798 C2800 1.478 1_556 S
C2799 H2793 0.930 . S
C2799 C2795 1.400 . S
C2799 C2798 1.385 . S
C2800 C2798 1.478 1_554 S
C2800 C2802 1.381 . S
C2800 C2806 1.383 1_554 S
C2801 C2797 1.495 1_554 S
C2801 H2807 0.959 . S
C2801 H2808 0.961 . S
C2801 H2809 0.960 . S
C2802 C2800 1.381 . S
C2802 C2803 1.394 . S
C2802 H2810 0.930 . S
C2803 C2802 1.394 . S
C2803 C2804 1.383 . S
C2803 H2811 0.929 . S
C2804 C2803 1.383 . S
C2804 C2805 1.377 . S
C2805 H2789 0.930 1_554 S
C2805 C2804 1.377 . S
C2805 C2806 1.379 1_554 S
C2806 H2790 0.931 . S
C2806 C2800 1.383 1_556 S
C2806 C2805 1.379 1_556 S
H2807 C2801 0.959 . S
H2808 C2801 0.961 . S
H2809 C2801 0.960 . S
H2810 C2802 0.930 . S
H2811 C2803 0.929 . S
H2812 C2820 0.929 . S
H2813 C2822 0.930 . S
H2814 C2824 0.930 . S
H2815 C2827 0.929 . S
H2816 C2830 0.930 . S
H2817 C2832 0.960 . S
H2818 C2832 0.960 . S
H2819 C2832 0.960 . S
C2820 H2812 0.929 . S
C2820 C2821 1.377 . S
C2820 C2822 1.384 . S
C2821 C2820 1.377 . S
C2821 C2827 1.390 . S
C2822 H2813 0.930 . S
C2822 C2820 1.384 . S
C2822 C2823 1.372 . S
C2823 C2822 1.372 . S
C2823 C2824 1.400 . S
C2823 C2828 1.490 . S
C2824 H2814 0.930 . S
C2824 C2823 1.400 . S
C2824 C2827 1.386 . S
H2825 C2841 0.930 . S
H2826 C2842 0.931 . S
C2827 H2815 0.929 . S
C2827 C2821 1.390 . S
C2827 C2824 1.386 . S
C2828 C2823 1.490 . S
C2828 C2830 1.395 . S
C2828 C2831 1.403 . S
H2829 C2835 0.930 . S
C2830 H2816 0.930 . S
C2830 C2828 1.395 . S
C2830 C2833 1.403 . S
C2831 C2828 1.403 . S
C2831 C2832 1.524 . S
C2831 C2835 1.400 . S
C2832 H2817 0.960 . S
C2832 H2818 0.960 . S
C2832 H2819 0.960 . S
C2832 C2831 1.524 . S
C2833 C2830 1.403 . S
C2833 C2834 1.392 . S
C2833 C2837 1.495 . S
C2834 C2833 1.392 . S
C2834 C2835 1.385 . S
C2834 C2836 1.478 . S
C2835 H2829 0.930 . S
C2835 C2831 1.400 . S
C2835 C2834 1.385 . S
C2836 C2834 1.478 . S
C2836 C2838 1.381 . S
C2836 C2842 1.383 . S
C2837 C2833 1.495 . S
C2837 H2843 0.959 . S
C2837 H2844 0.961 . S
C2837 H2845 0.960 . S
C2838 C2836 1.381 . S
C2838 C2839 1.394 . S
C2838 H2846 0.930 . S
C2839 C2838 1.394 . S
C2839 C2840 1.383 . S
C2839 H2847 0.929 . S
C2840 C2839 1.383 . S
C2840 C2841 1.377 . S
C2841 H2825 0.930 . S
C2841 C2840 1.377 . S
C2841 C2842 1.379 . S
C2842 H2826 0.931 . S
C2842 C2836 1.383 . S
C2842 C2841 1.379 . S
H2843 C2837 0.959 . S
H2844 C2837 0.961 . S
H2845 C2837 0.960 . S
H2846 C2838 0.930 . S
H2847 C2839 0.929 . S
H2848 C2856 0.929 . S
H2849 C2858 0.930 . S
H2850 C2860 0.930 . S
H2851 C2863 0.929 . S
H2852 C2866 0.930 . S
H2853 C2868 0.960 . S
H2854 C2868 0.960 . S
H2855 C2868 0.960 . S
C2856 H2848 0.929 . S
C2856 C2857 1.377 . S
C2856 C2858 1.384 . S
C2857 C2856 1.377 . S
C2857 C2863 1.390 . S
C2858 H2849 0.930 . S
C2858 C2856 1.384 . S
C2858 C2859 1.372 . S
C2859 C2858 1.372 . S
C2859 C2860 1.400 . S
C2859 C2864 1.490 . S
C2860 H2850 0.930 . S
C2860 C2859 1.400 . S
C2860 C2863 1.386 . S
H2861 C2877 0.930 . S
H2862 C2878 0.931 . S
C2863 H2851 0.929 . S
C2863 C2857 1.390 . S
C2863 C2860 1.386 . S
C2864 C2859 1.490 . S
C2864 C2866 1.395 . S
C2864 C2867 1.403 . S
H2865 C2871 0.930 . S
C2866 H2852 0.930 . S
C2866 C2864 1.395 . S
C2866 C2869 1.403 . S
C2867 C2864 1.403 . S
C2867 C2868 1.524 . S
C2867 C2871 1.400 . S
C2868 H2853 0.960 . S
C2868 H2854 0.960 . S
C2868 H2855 0.960 . S
C2868 C2867 1.524 . S
C2869 C2866 1.403 . S
C2869 C2870 1.392 . S
C2869 C2873 1.495 . S
C2870 C2869 1.392 . S
C2870 C2871 1.385 . S
C2870 C2872 1.478 . S
C2871 H2865 0.930 . S
C2871 C2867 1.400 . S
C2871 C2870 1.385 . S
C2872 C2870 1.478 . S
C2872 C2874 1.381 . S
C2872 C2878 1.383 . S
C2873 C2869 1.495 . S
C2873 H2879 0.959 . S
C2873 H2880 0.961 . S
C2873 H2881 0.960 . S
C2874 C2872 1.381 . S
C2874 C2875 1.394 . S
C2874 H2882 0.930 . S
C2875 C2874 1.394 . S
C2875 C2876 1.383 . S
C2875 H2883 0.929 . S
C2876 C2875 1.383 . S
C2876 C2877 1.377 . S
C2877 H2861 0.930 . S
C2877 C2876 1.377 . S
C2877 C2878 1.379 . S
C2878 H2862 0.931 . S
C2878 C2872 1.383 . S
C2878 C2877 1.379 . S
H2879 C2873 0.959 . S
H2880 C2873 0.961 . S
H2881 C2873 0.960 . S
H2882 C2874 0.930 . S
H2883 C2875 0.929 . S
H2884 C2892 0.929 . S
H2885 C2894 0.930 . S
H2886 C2896 0.930 . S
H2887 C2899 0.929 . S
H2888 C2902 0.930 . S
H2889 C2904 0.960 . S
H2890 C2904 0.960 . S
H2891 C2904 0.960 . S
C2892 H2884 0.929 . S
C2892 C2893 1.377 . S
C2892 C2894 1.384 1_455 S
C2893 C2892 1.377 . S
C2893 C2899 1.390 1_455 S
C2894 H2885 0.930 . S
C2894 C2892 1.384 1_655 S
C2894 C2895 1.372 . S
C2895 C2894 1.372 . S
C2895 C2896 1.400 . S
C2895 C2900 1.490 . S
C2896 H2886 0.930 . S
C2896 C2895 1.400 . S
C2896 C2899 1.386 . S
H2897 C2913 0.930 . S
H2898 C2914 0.931 . S
C2899 H2887 0.929 . S
C2899 C2893 1.390 1_655 S
C2899 C2896 1.386 . S
C2900 C2895 1.490 . S
C2900 C2902 1.395 . S
C2900 C2903 1.403 . S
H2901 C2907 0.930 . S
C2902 H2888 0.930 . S
C2902 C2900 1.395 . S
C2902 C2905 1.403 . S
C2903 C2900 1.403 . S
C2903 C2904 1.524 . S
C2903 C2907 1.400 . S
C2904 H2889 0.960 . S
C2904 H2890 0.960 . S
C2904 H2891 0.960 . S
C2904 C2903 1.524 . S
C2905 C2902 1.403 . S
C2905 C2906 1.392 . S
C2905 C2909 1.495 . S
C2906 C2905 1.392 . S
C2906 C2907 1.385 . S
C2906 C2908 1.478 . S
C2907 H2901 0.930 . S
C2907 C2903 1.400 . S
C2907 C2906 1.385 . S
C2908 C2906 1.478 . S
C2908 C2910 1.381 . S
C2908 C2914 1.383 . S
C2909 C2905 1.495 . S
C2909 H2915 0.959 . S
C2909 H2916 0.961 . S
C2909 H2917 0.960 . S
C2910 C2908 1.381 . S
C2910 C2911 1.394 . S
C2910 H2918 0.930 . S
C2911 C2910 1.394 . S
C2911 C2912 1.383 . S
C2911 H2919 0.929 . S
C2912 C2911 1.383 . S
C2912 C2913 1.377 . S
C2913 H2897 0.930 . S
C2913 C2912 1.377 . S
C2913 C2914 1.379 . S
C2914 H2898 0.931 . S
C2914 C2908 1.383 . S
C2914 C2913 1.379 . S
H2915 C2909 0.959 . S
H2916 C2909 0.961 . S
H2917 C2909 0.960 . S
H2918 C2910 0.930 . S
H2919 C2911 0.929 . S
H2920 C2928 0.929 . S
H2921 C2930 0.930 . S
H2922 C2932 0.930 . S
H2923 C2935 0.929 . S
H2924 C2938 0.930 . S
H2925 C2940 0.960 . S
H2926 C2940 0.960 . S
H2927 C2940 0.960 . S
C2928 H2920 0.929 . S
C2928 C2929 1.377 1_455 S
C2928 C2930 1.384 . S
C2929 C2928 1.377 1_655 S
C2929 C2935 1.390 . S
C2930 H2921 0.930 . S
C2930 C2928 1.384 . S
C2930 C2931 1.372 1_455 S
C2931 C2930 1.372 1_655 S
C2931 C2932 1.400 . S
C2931 C2936 1.490 1_655 S
C2932 H2922 0.930 . S
C2932 C2931 1.400 . S
C2932 C2935 1.386 . S
H2933 C2949 0.971 . S
H2934 C2950 0.931 . S
C2935 H2923 0.929 . S
C2935 C2929 1.390 . S
C2935 C2932 1.386 . S
C2936 C2931 1.490 1_455 S
C2936 C2938 1.395 . S
C2936 C2939 1.403 1_455 S
H2937 C2943 0.930 . S
C2938 H2924 0.930 . S
C2938 C2936 1.395 . S
C2938 C2941 1.403 . S
C2939 C2936 1.403 1_655 S
C2939 C2940 1.524 . S
C2939 C2943 1.400 . S
C2940 H2925 0.960 . S
C2940 H2926 0.960 . S
C2940 H2927 0.960 . S
C2940 C2939 1.524 . S
C2941 C2938 1.403 . S
C2941 C2942 1.392 . S
C2941 C2945 1.495 . S
C2942 C2941 1.392 . S
C2942 C2943 1.385 1_455 S
C2942 C2944 1.478 . S
C2943 H2937 0.930 . S
C2943 C2939 1.400 . S
C2943 C2942 1.385 1_655 S
C2944 C2942 1.478 . S
C2944 C2946 1.381 . S
C2944 C2950 1.383 1_455 S
C2945 C2941 1.495 . S
C2945 H2951 0.959 . S
C2945 H2952 0.961 . S
C2945 H2953 0.960 . S
C2946 C2944 1.381 . S
C2946 C2947 1.394 . S
C2946 H2954 0.930 . S
C2947 C2946 1.394 . S
C2947 C2948 1.383 . S
C2947 H2955 0.929 . S
C2948 C2947 1.383 . S
C2948 C2949 1.314 1_455 S
C2949 H2933 0.971 . S
C2949 C2948 1.314 1_655 S
C2949 C2950 1.404 . S
C2950 H2934 0.931 . S
C2950 C2944 1.383 1_655 S
C2950 C2949 1.404 . S
H2951 C2945 0.959 . S
H2952 C2945 0.961 . S
H2953 C2945 0.960 . S
H2954 C2946 0.930 . S
H2955 C2947 0.929 . S
H2956 C2964 0.929 . S
H2957 C2966 0.930 . S
H2958 C2968 0.930 . S
H2959 C2971 0.929 . S
H2960 C2974 0.930 . S
H2961 C2976 0.960 . S
H2962 C2976 0.960 . S
H2963 C2976 0.960 . S
C2964 H2956 0.929 . S
C2964 C2965 1.377 . S
C2964 C2966 1.384 . S
C2965 C2964 1.377 . S
C2965 C2971 1.390 . S
C2966 H2957 0.930 . S
C2966 C2964 1.384 . S
C2966 C2967 1.372 . S
C2967 C2966 1.372 . S
C2967 C2968 1.400 . S
C2967 C2972 1.490 . S
C2968 H2958 0.930 . S
C2968 C2967 1.400 . S
C2968 C2971 1.386 . S
H2969 C2985 0.930 . S
H2970 C2986 0.931 . S
C2971 H2959 0.929 . S
C2971 C2965 1.390 . S
C2971 C2968 1.386 . S
C2972 C2967 1.490 . S
C2972 C2974 1.395 . S
C2972 C2975 1.403 . S
H2973 C2979 0.930 . S
C2974 H2960 0.930 . S
C2974 C2972 1.395 . S
C2974 C2977 1.403 . S
C2975 C2972 1.403 . S
C2975 C2976 1.524 . S
C2975 C2979 1.400 . S
C2976 H2961 0.960 . S
C2976 H2962 0.960 . S
C2976 H2963 0.960 . S
C2976 C2975 1.524 . S
C2977 C2974 1.403 . S
C2977 C2978 1.392 . S
C2977 C2981 1.495 . S
C2978 C2977 1.392 . S
C2978 C2979 1.385 . S
C2978 C2980 1.478 . S
C2979 H2973 0.930 . S
C2979 C2975 1.400 . S
C2979 C2978 1.385 . S
C2980 C2978 1.478 . S
C2980 C2982 1.381 . S
C2980 C2986 1.383 . S
C2981 C2977 1.495 . S
C2981 H2987 0.959 . S
C2981 H2988 0.961 . S
C2981 H2989 0.960 . S
C2982 C2980 1.381 . S
C2982 C2983 1.394 . S
C2982 H2990 0.930 . S
C2983 C2982 1.394 . S
C2983 C2984 1.383 . S
C2983 H2991 0.929 . S
C2984 C2983 1.383 . S
C2984 C2985 1.377 . S
C2985 H2969 0.930 . S
C2985 C2984 1.377 . S
C2985 C2986 1.379 . S
C2986 H2970 0.931 . S
C2986 C2980 1.383 . S
C2986 C2985 1.379 . S
H2987 C2981 0.959 . S
H2988 C2981 0.961 . S
H2989 C2981 0.960 . S
H2990 C2982 0.930 . S
H2991 C2983 0.929 . S
H2992 C3000 0.929 . S
H2993 C3002 0.930 . S
H2994 C3004 0.930 . S
H2995 C3007 0.929 . S
H2996 C3010 0.930 . S
H2997 C3012 0.960 . S
H2998 C3012 0.960 . S
H2999 C3012 0.960 . S
C3000 H2992 0.929 . S
C3000 C3001 1.377 . S
C3000 C3002 1.384 . S
C3001 C3000 1.377 . S
C3001 C3007 1.390 . S
C3002 H2993 0.930 . S
C3002 C3000 1.384 . S
C3002 C3003 1.372 . S
C3003 C3002 1.372 . S
C3003 C3004 1.400 . S
C3003 C3008 1.490 . S
C3004 H2994 0.930 . S
C3004 C3003 1.400 . S
C3004 C3007 1.386 . S
H3005 C3021 0.930 . S
H3006 C3022 0.931 . S
C3007 H2995 0.929 . S
C3007 C3001 1.390 . S
C3007 C3004 1.386 . S
C3008 C3003 1.490 . S
C3008 C3010 1.395 . S
C3008 C3011 1.403 . S
H3009 C3015 0.930 . S
C3010 H2996 0.930 . S
C3010 C3008 1.395 . S
C3010 C3013 1.403 . S
C3011 C3008 1.403 . S
C3011 C3012 1.524 . S
C3011 C3015 1.400 . S
C3012 H2997 0.960 . S
C3012 H2998 0.960 . S
C3012 H2999 0.960 . S
C3012 C3011 1.524 . S
C3013 C3010 1.403 . S
C3013 C3014 1.392 . S
C3013 C3017 1.495 . S
C3014 C3013 1.392 . S
C3014 C3015 1.385 . S
C3014 C3016 1.478 . S
C3015 H3009 0.930 . S
C3015 C3011 1.400 . S
C3015 C3014 1.385 . S
C3016 C3014 1.478 . S
C3016 C3018 1.381 . S
C3016 C3022 1.383 . S
C3017 C3013 1.495 . S
C3017 H3023 0.959 . S
C3017 H3024 0.961 . S
C3017 H3025 0.960 . S
C3018 C3016 1.381 . S
C3018 C3019 1.394 . S
C3018 H3026 0.930 . S
C3019 C3018 1.394 . S
C3019 C3020 1.383 . S
C3019 H3027 0.929 . S
C3020 C3019 1.383 . S
C3020 C3021 1.377 . S
C3021 H3005 0.930 . S
C3021 C3020 1.377 . S
C3021 C3022 1.379 . S
C3022 H3006 0.931 . S
C3022 C3016 1.383 . S
C3022 C3021 1.379 . S
H3023 C3017 0.959 . S
H3024 C3017 0.961 . S
H3025 C3017 0.960 . S
H3026 C3018 0.930 . S
H3027 C3019 0.929 . S
H3028 C3036 0.929 . S
H3029 C3038 0.930 . S
H3030 C3040 0.930 . S
H3031 C3043 0.929 . S
H3032 C3046 0.930 . S
H3033 C3048 0.960 . S
H3034 C3048 0.960 . S
H3035 C3048 0.960 . S
C3036 H3028 0.929 . S
C3036 C3037 1.377 . S
C3036 C3038 1.384 . S
C3037 C3036 1.377 . S
C3037 C3043 1.390 . S
C3038 H3029 0.930 . S
C3038 C3036 1.384 . S
C3038 C3039 1.372 . S
C3039 C3038 1.372 . S
C3039 C3040 1.400 . S
C3039 C3044 1.490 . S
C3040 H3030 0.930 . S
C3040 C3039 1.400 . S
C3040 C3043 1.386 . S
H3041 C3057 0.930 . S
H3042 C3058 0.931 . S
C3043 H3031 0.929 . S
C3043 C3037 1.390 . S
C3043 C3040 1.386 . S
C3044 C3039 1.490 . S
C3044 C3046 1.395 . S
C3044 C3047 1.403 . S
H3045 C3051 0.930 . S
C3046 H3032 0.930 . S
C3046 C3044 1.395 . S
C3046 C3049 1.403 . S
C3047 C3044 1.403 . S
C3047 C3048 1.524 . S
C3047 C3051 1.400 . S
C3048 H3033 0.960 . S
C3048 H3034 0.960 . S
C3048 H3035 0.960 . S
C3048 C3047 1.524 . S
C3049 C3046 1.403 . S
C3049 C3050 1.392 . S
C3049 C3053 1.495 . S
C3050 C3049 1.392 . S
C3050 C3051 1.385 . S
C3050 C3052 1.478 . S
C3051 H3045 0.930 . S
C3051 C3047 1.400 . S
C3051 C3050 1.385 . S
C3052 C3050 1.478 . S
C3052 C3054 1.381 . S
C3052 C3058 1.383 . S
C3053 C3049 1.495 . S
C3053 H3059 0.959 . S
C3053 H3060 0.961 . S
C3053 H3061 0.960 . S
C3054 C3052 1.381 . S
C3054 C3055 1.394 . S
C3054 H3062 0.930 . S
C3055 C3054 1.394 . S
C3055 C3056 1.383 . S
C3055 H3063 0.929 . S
C3056 C3055 1.383 . S
C3056 C3057 1.377 . S
C3057 H3041 0.930 . S
C3057 C3056 1.377 . S
C3057 C3058 1.379 . S
C3058 H3042 0.931 . S
C3058 C3052 1.383 . S
C3058 C3057 1.379 . S
H3059 C3053 0.959 . S
H3060 C3053 0.961 . S
H3061 C3053 0.960 . S
H3062 C3054 0.930 . S
H3063 C3055 0.929 . S
H3064 C3072 0.929 . S
H3065 C3074 0.930 . S
H3066 C3076 0.930 . S
H3067 C3079 0.929 . S
H3068 C3082 0.930 . S
H3069 C3084 0.960 . S
H3070 C3084 0.960 . S
H3071 C3084 0.960 . S
C3072 H3064 0.929 . S
C3072 C3073 1.377 . S
C3072 C3074 1.384 . S
C3073 C3072 1.377 . S
C3073 C3079 1.390 . S
C3074 H3065 0.930 . S
C3074 C3072 1.384 . S
C3074 C3075 1.372 . S
C3075 C3074 1.372 . S
C3075 C3076 1.400 . S
C3075 C3080 1.490 . S
C3076 H3066 0.930 . S
C3076 C3075 1.400 . S
C3076 C3079 1.386 . S
H3077 C3093 0.930 . S
H3078 C3094 0.931 . S
C3079 H3067 0.929 . S
C3079 C3073 1.390 . S
C3079 C3076 1.386 . S
C3080 C3075 1.490 . S
C3080 C3082 1.395 . S
C3080 C3083 1.403 . S
H3081 C3087 0.930 . S
C3082 H3068 0.930 . S
C3082 C3080 1.395 . S
C3082 C3085 1.403 . S
C3083 C3080 1.403 . S
C3083 C3084 1.524 . S
C3083 C3087 1.400 . S
C3084 H3069 0.960 . S
C3084 H3070 0.960 . S
C3084 H3071 0.960 . S
C3084 C3083 1.524 . S
C3085 C3082 1.403 . S
C3085 C3086 1.392 . S
C3085 C3089 1.495 . S
C3086 C3085 1.392 . S
C3086 C3087 1.385 . S
C3086 C3088 1.478 . S
C3087 H3081 0.930 . S
C3087 C3083 1.400 . S
C3087 C3086 1.385 . S
C3088 C3086 1.478 . S
C3088 C3090 1.381 . S
C3088 C3094 1.383 . S
C3089 C3085 1.495 . S
C3089 H3095 0.959 . S
C3089 H3096 0.961 . S
C3089 H3097 0.960 . S
C3090 C3088 1.381 . S
C3090 C3091 1.394 . S
C3090 H3098 0.930 . S
C3091 C3090 1.394 . S
C3091 C3092 1.383 . S
C3091 H3099 0.929 . S
C3092 C3091 1.383 . S
C3092 C3093 1.377 . S
C3093 H3077 0.930 . S
C3093 C3092 1.377 . S
C3093 C3094 1.379 . S
C3094 H3078 0.931 . S
C3094 C3088 1.383 . S
C3094 C3093 1.379 . S
H3095 C3089 0.959 . S
H3096 C3089 0.961 . S
H3097 C3089 0.960 . S
H3098 C3090 0.930 . S
H3099 C3091 0.929 . S
H3100 C3108 0.929 . S
H3101 C3110 0.930 . S
H3102 C3112 0.930 . S
H3103 C3115 0.929 . S
H3104 C3118 0.930 . S
H3105 C3120 0.960 . S
H3106 C3120 0.960 . S
H3107 C3120 0.960 . S
C3108 H3100 0.929 . S
C3108 C3109 1.377 . S
C3108 C3110 1.384 . S
C3109 C3108 1.377 . S
C3109 C3115 1.390 . S
C3110 H3101 0.930 . S
C3110 C3108 1.384 . S
C3110 C3111 1.372 . S
C3111 C3110 1.372 . S
C3111 C3112 1.400 . S
C3111 C3116 1.490 . S
C3112 H3102 0.930 . S
C3112 C3111 1.400 . S
C3112 C3115 1.386 . S
H3113 C3129 0.930 . S
H3114 C3130 0.931 . S
C3115 H3103 0.929 . S
C3115 C3109 1.390 . S
C3115 C3112 1.386 . S
C3116 C3111 1.490 . S
C3116 C3118 1.395 . S
C3116 C3119 1.403 . S
H3117 C3123 0.930 . S
C3118 H3104 0.930 . S
C3118 C3116 1.395 . S
C3118 C3121 1.403 . S
C3119 C3116 1.403 . S
C3119 C3120 1.524 . S
C3119 C3123 1.400 . S
C3120 H3105 0.960 . S
C3120 H3106 0.960 . S
C3120 H3107 0.960 . S
C3120 C3119 1.524 . S
C3121 C3118 1.403 . S
C3121 C3122 1.392 . S
C3121 C3125 1.495 . S
C3122 C3121 1.392 . S
C3122 C3123 1.385 . S
C3122 C3124 1.478 . S
C3123 H3117 0.930 . S
C3123 C3119 1.400 . S
C3123 C3122 1.385 . S
C3124 C3122 1.478 . S
C3124 C3126 1.381 . S
C3124 C3130 1.383 . S
C3125 C3121 1.495 . S
C3125 H3131 0.959 . S
C3125 H3132 0.961 . S
C3125 H3133 0.960 . S
C3126 C3124 1.381 . S
C3126 C3127 1.394 . S
C3126 H3134 0.930 . S
C3127 C3126 1.394 . S
C3127 C3128 1.383 . S
C3127 H3135 0.929 . S
C3128 C3127 1.383 . S
C3128 C3129 1.377 . S
C3129 H3113 0.930 . S
C3129 C3128 1.377 . S
C3129 C3130 1.379 . S
C3130 H3114 0.931 . S
C3130 C3124 1.383 . S
C3130 C3129 1.379 . S
H3131 C3125 0.959 . S
H3132 C3125 0.961 . S
H3133 C3125 0.960 . S
H3134 C3126 0.930 . S
H3135 C3127 0.929 . S
H3136 C3144 0.929 . S
H3137 C3146 0.930 . S
H3138 C3148 0.930 . S
H3139 C3151 0.929 . S
H3140 C3154 0.930 . S
H3141 C3156 0.960 . S
H3142 C3156 0.960 . S
H3143 C3156 0.960 . S
C3144 H3136 0.929 . S
C3144 C3145 1.377 . S
C3144 C3146 1.384 . S
C3145 C3144 1.377 . S
C3145 C3151 1.390 . S
C3146 H3137 0.930 . S
C3146 C3144 1.384 . S
C3146 C3147 1.372 . S
C3147 C3146 1.372 . S
C3147 C3148 1.400 . S
C3147 C3152 1.490 . S
C3148 H3138 0.930 . S
C3148 C3147 1.400 . S
C3148 C3151 1.386 . S
H3149 C3165 0.930 . S
H3150 C3166 0.931 . S
C3151 H3139 0.929 . S
C3151 C3145 1.390 . S
C3151 C3148 1.386 . S
C3152 C3147 1.490 . S
C3152 C3154 1.395 . S
C3152 C3155 1.403 . S
H3153 C3159 0.930 . S
C3154 H3140 0.930 . S
C3154 C3152 1.395 . S
C3154 C3157 1.403 . S
C3155 C3152 1.403 . S
C3155 C3156 1.524 . S
C3155 C3159 1.400 . S
C3156 H3141 0.960 . S
C3156 H3142 0.960 . S
C3156 H3143 0.960 . S
C3156 C3155 1.524 . S
C3157 C3154 1.403 . S
C3157 C3158 1.392 . S
C3157 C3161 1.495 . S
C3158 C3157 1.392 . S
C3158 C3159 1.385 . S
C3158 C3160 1.478 . S
C3159 H3153 0.930 . S
C3159 C3155 1.400 . S
C3159 C3158 1.385 . S
C3160 C3158 1.478 . S
C3160 C3162 1.381 . S
C3160 C3166 1.383 . S
C3161 C3157 1.495 . S
C3161 H3167 0.959 . S
C3161 H3168 0.961 . S
C3161 H3169 0.960 . S
C3162 C3160 1.381 . S
C3162 C3163 1.394 . S
C3162 H3170 0.930 . S
C3163 C3162 1.394 . S
C3163 C3164 1.383 . S
C3163 H3171 0.929 . S
C3164 C3163 1.383 . S
C3164 C3165 1.377 . S
C3165 H3149 0.930 . S
C3165 C3164 1.377 . S
C3165 C3166 1.379 . S
C3166 H3150 0.931 . S
C3166 C3160 1.383 . S
C3166 C3165 1.379 . S
H3167 C3161 0.959 . S
H3168 C3161 0.961 . S
H3169 C3161 0.960 . S
H3170 C3162 0.930 . S
H3171 C3163 0.929 . S
H3172 C3180 0.929 . S
H3173 C3182 0.930 . S
H3174 C3184 0.930 . S
H3175 C3187 0.929 . S
H3176 C3190 0.930 . S
H3177 C3192 0.960 . S
H3178 C3192 0.960 . S
H3179 C3192 0.960 . S
C3180 H3172 0.929 . S
C3180 C3181 1.377 . S
C3180 C3182 1.384 . S
C3181 C3180 1.377 . S
C3181 C3187 1.390 . S
C3182 H3173 0.930 . S
C3182 C3180 1.384 . S
C3182 C3183 1.372 . S
C3183 C3182 1.372 . S
C3183 C3184 1.400 . S
C3183 C3188 1.490 . S
C3184 H3174 0.930 . S
C3184 C3183 1.400 . S
C3184 C3187 1.386 . S
H3185 C3201 0.930 . S
H3186 C3202 0.931 . S
C3187 H3175 0.929 . S
C3187 C3181 1.390 . S
C3187 C3184 1.386 . S
C3188 C3183 1.490 . S
C3188 C3190 1.395 . S
C3188 C3191 1.403 . S
H3189 C3195 0.930 . S
C3190 H3176 0.930 . S
C3190 C3188 1.395 . S
C3190 C3193 1.403 . S
C3191 C3188 1.403 . S
C3191 C3192 1.524 . S
C3191 C3195 1.400 . S
C3192 H3177 0.960 . S
C3192 H3178 0.960 . S
C3192 H3179 0.960 . S
C3192 C3191 1.524 . S
C3193 C3190 1.403 . S
C3193 C3194 1.392 . S
C3193 C3197 1.495 . S
C3194 C3193 1.392 . S
C3194 C3195 1.385 . S
C3194 C3196 1.478 . S
C3195 H3189 0.930 . S
C3195 C3191 1.400 . S
C3195 C3194 1.385 . S
C3196 C3194 1.478 . S
C3196 C3198 1.381 . S
C3196 C3202 1.383 . S
C3197 C3193 1.495 . S
C3197 H3203 0.959 . S
C3197 H3204 0.961 . S
C3197 H3205 0.960 . S
C3198 C3196 1.381 . S
C3198 C3199 1.394 . S
C3198 H3206 0.930 . S
C3199 C3198 1.394 . S
C3199 C3200 1.383 . S
C3199 H3207 0.929 . S
C3200 C3199 1.383 . S
C3200 C3201 1.377 . S
C3201 H3185 0.930 . S
C3201 C3200 1.377 . S
C3201 C3202 1.379 . S
C3202 H3186 0.931 . S
C3202 C3196 1.383 . S
C3202 C3201 1.379 . S
H3203 C3197 0.959 . S
H3204 C3197 0.961 . S
H3205 C3197 0.960 . S
H3206 C3198 0.930 . S
H3207 C3199 0.929 . S
H3208 C3216 0.929 . S
H3209 C3218 0.930 . S
H3210 C3220 0.930 . S
H3211 C3223 0.929 . S
H3212 C3226 0.930 . S
H3213 C3228 0.960 . S
H3214 C3228 0.960 . S
H3215 C3228 0.960 . S
C3216 H3208 0.929 . S
C3216 C3217 1.377 . S
C3216 C3218 1.384 . S
C3217 C3216 1.377 . S
C3217 C3223 1.390 . S
C3218 H3209 0.930 . S
C3218 C3216 1.384 . S
C3218 C3219 1.372 . S
C3219 C3218 1.372 . S
C3219 C3220 1.400 . S
C3219 C3224 1.490 . S
C3220 H3210 0.930 . S
C3220 C3219 1.400 . S
C3220 C3223 1.386 . S
H3221 C3237 0.930 . S
H3222 C3238 0.931 . S
C3223 H3211 0.929 . S
C3223 C3217 1.390 . S
C3223 C3220 1.386 . S
C3224 C3219 1.490 . S
C3224 C3226 1.395 . S
C3224 C3227 1.403 . S
H3225 C3231 0.930 . S
C3226 H3212 0.930 . S
C3226 C3224 1.395 . S
C3226 C3229 1.403 . S
C3227 C3224 1.403 . S
C3227 C3228 1.524 . S
C3227 C3231 1.400 . S
C3228 H3213 0.960 . S
C3228 H3214 0.960 . S
C3228 H3215 0.960 . S
C3228 C3227 1.524 . S
C3229 C3226 1.403 . S
C3229 C3230 1.392 . S
C3229 C3233 1.495 . S
C3230 C3229 1.392 . S
C3230 C3231 1.385 . S
C3230 C3232 1.478 . S
C3231 H3225 0.930 . S
C3231 C3227 1.400 . S
C3231 C3230 1.385 . S
C3232 C3230 1.478 . S
C3232 C3234 1.381 . S
C3232 C3238 1.383 . S
C3233 C3229 1.495 . S
C3233 H3239 0.959 . S
C3233 H3240 0.961 . S
C3233 H3241 0.960 . S
C3234 C3232 1.381 . S
C3234 C3235 1.394 . S
C3234 H3242 0.930 . S
C3235 C3234 1.394 . S
C3235 C3236 1.383 . S
C3235 H3243 0.929 . S
C3236 C3235 1.383 . S
C3236 C3237 1.377 . S
C3237 H3221 0.930 . S
C3237 C3236 1.377 . S
C3237 C3238 1.379 . S
C3238 H3222 0.931 . S
C3238 C3232 1.383 . S
C3238 C3237 1.379 . S
H3239 C3233 0.959 . S
H3240 C3233 0.961 . S
H3241 C3233 0.960 . S
H3242 C3234 0.930 . S
H3243 C3235 0.929 . S
H3244 C3252 0.929 . S
H3245 C3254 0.930 . S
H3246 C3256 0.930 . S
H3247 C3259 0.929 . S
H3248 C3262 0.930 . S
H3249 C3264 0.960 . S
H3250 C3264 0.960 . S
H3251 C3264 0.960 . S
C3252 H3244 0.929 . S
C3252 C3253 1.377 . S
C3252 C3254 1.384 . S
C3253 C3252 1.377 . S
C3253 C3259 1.390 . S
C3254 H3245 0.930 . S
C3254 C3252 1.384 . S
C3254 C3255 1.372 . S
C3255 C3254 1.372 . S
C3255 C3256 1.400 . S
C3255 C3260 1.490 . S
C3256 H3246 0.930 . S
C3256 C3255 1.400 . S
C3256 C3259 1.386 . S
H3257 C3273 0.930 . S
H3258 C3274 0.931 . S
C3259 H3247 0.929 . S
C3259 C3253 1.390 . S
C3259 C3256 1.386 . S
C3260 C3255 1.490 . S
C3260 C3262 1.395 . S
C3260 C3263 1.403 . S
H3261 C3267 0.930 . S
C3262 H3248 0.930 . S
C3262 C3260 1.395 . S
C3262 C3265 1.403 . S
C3263 C3260 1.403 . S
C3263 C3264 1.524 . S
C3263 C3267 1.400 . S
C3264 H3249 0.960 . S
C3264 H3250 0.960 . S
C3264 H3251 0.960 . S
C3264 C3263 1.524 . S
C3265 C3262 1.403 . S
C3265 C3266 1.392 . S
C3265 C3269 1.495 . S
C3266 C3265 1.392 . S
C3266 C3267 1.385 . S
C3266 C3268 1.478 . S
C3267 H3261 0.930 . S
C3267 C3263 1.400 . S
C3267 C3266 1.385 . S
C3268 C3266 1.478 . S
C3268 C3270 1.381 . S
C3268 C3274 1.383 . S
C3269 C3265 1.495 . S
C3269 H3275 0.959 . S
C3269 H3276 0.961 . S
C3269 H3277 0.960 . S
C3270 C3268 1.381 . S
C3270 C3271 1.394 . S
C3270 H3278 0.930 . S
C3271 C3270 1.394 . S
C3271 C3272 1.383 . S
C3271 H3279 0.929 . S
C3272 C3271 1.383 . S
C3272 C3273 1.377 . S
C3273 H3257 0.930 . S
C3273 C3272 1.377 . S
C3273 C3274 1.379 . S
C3274 H3258 0.931 . S
C3274 C3268 1.383 . S
C3274 C3273 1.379 . S
H3275 C3269 0.959 . S
H3276 C3269 0.961 . S
H3277 C3269 0.960 . S
H3278 C3270 0.930 . S
H3279 C3271 0.929 . S
H3280 C3288 0.929 . S
H3281 C3290 0.930 . S
H3282 C3292 0.930 . S
H3283 C3295 0.929 . S
H3284 C3298 0.930 . S
H3285 C3300 0.960 . S
H3286 C3300 0.960 . S
H3287 C3300 0.960 . S
C3288 H3280 0.929 . S
C3288 C3289 1.377 . S
C3288 C3290 1.384 . S
C3289 C3288 1.377 . S
C3289 C3295 1.390 . S
C3290 H3281 0.930 . S
C3290 C3288 1.384 . S
C3290 C3291 1.372 . S
C3291 C3290 1.372 . S
C3291 C3292 1.400 . S
C3291 C3296 1.490 . S
C3292 H3282 0.930 . S
C3292 C3291 1.400 . S
C3292 C3295 1.386 . S
H3293 C3309 0.930 . S
H3294 C3310 0.931 . S
C3295 H3283 0.929 . S
C3295 C3289 1.390 . S
C3295 C3292 1.386 . S
C3296 C3291 1.490 . S
C3296 C3298 1.395 . S
C3296 C3299 1.403 . S
H3297 C3303 0.930 . S
C3298 H3284 0.930 . S
C3298 C3296 1.395 . S
C3298 C3301 1.403 . S
C3299 C3296 1.403 . S
C3299 C3300 1.524 . S
C3299 C3303 1.400 . S
C3300 H3285 0.960 . S
C3300 H3286 0.960 . S
C3300 H3287 0.960 . S
C3300 C3299 1.524 . S
C3301 C3298 1.403 . S
C3301 C3302 1.392 . S
C3301 C3305 1.495 . S
C3302 C3301 1.392 . S
C3302 C3303 1.385 . S
C3302 C3304 1.478 . S
C3303 H3297 0.930 . S
C3303 C3299 1.400 . S
C3303 C3302 1.385 . S
C3304 C3302 1.478 . S
C3304 C3306 1.381 . S
C3304 C3310 1.383 . S
C3305 C3301 1.495 . S
C3305 H3311 0.959 . S
C3305 H3312 0.961 . S
C3305 H3313 0.960 . S
C3306 C3304 1.381 . S
C3306 C3307 1.394 . S
C3306 H3314 0.930 . S
C3307 C3306 1.394 . S
C3307 C3308 1.383 . S
C3307 H3315 0.929 . S
C3308 C3307 1.383 . S
C3308 C3309 1.377 . S
C3309 H3293 0.930 . S
C3309 C3308 1.377 . S
C3309 C3310 1.379 . S
C3310 H3294 0.931 . S
C3310 C3304 1.383 . S
C3310 C3309 1.379 . S
H3311 C3305 0.959 . S
H3312 C3305 0.961 . S
H3313 C3305 0.960 . S
H3314 C3306 0.930 . S
H3315 C3307 0.929 . S
H3316 C3324 0.929 . S
H3317 C3326 0.930 . S
H3318 C3328 0.930 . S
H3319 C3331 0.929 . S
H3320 C3334 0.930 . S
H3321 C3336 0.960 . S
H3322 C3336 0.960 . S
H3323 C3336 0.960 . S
C3324 H3316 0.929 . S
C3324 C3325 1.377 . S
C3324 C3326 1.384 . S
C3325 C3324 1.377 . S
C3325 C3331 1.390 . S
C3326 H3317 0.930 . S
C3326 C3324 1.384 . S
C3326 C3327 1.372 . S
C3327 C3326 1.372 . S
C3327 C3328 1.400 . S
C3327 C3332 1.490 . S
C3328 H3318 0.930 . S
C3328 C3327 1.400 . S
C3328 C3331 1.386 . S
H3329 C3345 0.930 . S
H3330 C3346 0.931 . S
C3331 H3319 0.929 . S
C3331 C3325 1.390 . S
C3331 C3328 1.386 . S
C3332 C3327 1.490 . S
C3332 C3334 1.395 . S
C3332 C3335 1.403 . S
H3333 C3339 0.930 . S
C3334 H3320 0.930 . S
C3334 C3332 1.395 . S
C3334 C3337 1.403 . S
C3335 C3332 1.403 . S
C3335 C3336 1.524 . S
C3335 C3339 1.400 . S
C3336 H3321 0.960 . S
C3336 H3322 0.960 . S
C3336 H3323 0.960 . S
C3336 C3335 1.524 . S
C3337 C3334 1.403 . S
C3337 C3338 1.392 . S
C3337 C3341 1.495 . S
C3338 C3337 1.392 . S
C3338 C3339 1.385 . S
C3338 C3340 1.478 . S
C3339 H3333 0.930 . S
C3339 C3335 1.400 . S
C3339 C3338 1.385 . S
C3340 C3338 1.478 . S
C3340 C3342 1.381 . S
C3340 C3346 1.383 . S
C3341 C3337 1.495 . S
C3341 H3347 0.959 . S
C3341 H3348 0.961 . S
C3341 H3349 0.960 . S
C3342 C3340 1.381 . S
C3342 C3343 1.394 . S
C3342 H3350 0.930 . S
C3343 C3342 1.394 . S
C3343 C3344 1.383 . S
C3343 H3351 0.929 . S
C3344 C3343 1.383 . S
C3344 C3345 1.377 . S
C3345 H3329 0.930 . S
C3345 C3344 1.377 . S
C3345 C3346 1.379 . S
C3346 H3330 0.931 . S
C3346 C3340 1.383 . S
C3346 C3345 1.379 . S
H3347 C3341 0.959 . S
H3348 C3341 0.961 . S
H3349 C3341 0.960 . S
H3350 C3342 0.930 . S
H3351 C3343 0.929 . S
H3352 C3360 0.929 . S
H3353 C3362 0.930 . S
H3354 C3364 0.930 . S
H3355 C3367 0.929 . S
H3356 C3370 0.930 . S
H3357 C3372 0.960 . S
H3358 C3372 0.960 . S
H3359 C3372 0.960 . S
C3360 H3352 0.929 . S
C3360 C3361 1.377 . S
C3360 C3362 1.384 . S
C3361 C3360 1.377 . S
C3361 C3367 1.390 . S
C3362 H3353 0.930 . S
C3362 C3360 1.384 . S
C3362 C3363 1.372 . S
C3363 C3362 1.372 . S
C3363 C3364 1.400 . S
C3363 C3368 1.490 . S
C3364 H3354 0.930 . S
C3364 C3363 1.400 . S
C3364 C3367 1.386 . S
H3365 C3381 0.930 . S
H3366 C3382 0.931 . S
C3367 H3355 0.929 . S
C3367 C3361 1.390 . S
C3367 C3364 1.386 . S
C3368 C3363 1.490 . S
C3368 C3370 1.395 . S
C3368 C3371 1.403 . S
H3369 C3375 0.930 . S
C3370 H3356 0.930 . S
C3370 C3368 1.395 . S
C3370 C3373 1.403 . S
C3371 C3368 1.403 . S
C3371 C3372 1.524 . S
C3371 C3375 1.400 . S
C3372 H3357 0.960 . S
C3372 H3358 0.960 . S
C3372 H3359 0.960 . S
C3372 C3371 1.524 . S
C3373 C3370 1.403 . S
C3373 C3374 1.392 . S
C3373 C3377 1.495 . S
C3374 C3373 1.392 . S
C3374 C3375 1.385 . S
C3374 C3376 1.478 . S
C3375 H3369 0.930 . S
C3375 C3371 1.400 . S
C3375 C3374 1.385 . S
C3376 C3374 1.478 . S
C3376 C3378 1.381 . S
C3376 C3382 1.383 . S
C3377 C3373 1.495 . S
C3377 H3383 0.959 . S
C3377 H3384 0.961 . S
C3377 H3385 0.960 . S
C3378 C3376 1.381 . S
C3378 C3379 1.394 . S
C3378 H3386 0.930 . S
C3379 C3378 1.394 . S
C3379 C3380 1.383 . S
C3379 H3387 0.929 . S
C3380 C3379 1.383 . S
C3380 C3381 1.377 . S
C3381 H3365 0.930 . S
C3381 C3380 1.377 . S
C3381 C3382 1.379 . S
C3382 H3366 0.931 . S
C3382 C3376 1.383 . S
C3382 C3381 1.379 . S
H3383 C3377 0.959 . S
H3384 C3377 0.961 . S
H3385 C3377 0.960 . S
H3386 C3378 0.930 . S
H3387 C3379 0.929 . S
H3388 C3396 0.929 . S
H3389 C3398 0.930 . S
H3390 C3400 0.930 . S
H3391 C3403 0.929 . S
H3392 C3406 0.930 . S
H3393 C3408 0.960 . S
H3394 C3408 0.960 . S
H3395 C3408 0.960 . S
C3396 H3388 0.929 . S
C3396 C3397 1.377 . S
C3396 C3398 1.384 . S
C3397 C3396 1.377 . S
C3397 C3403 1.390 . S
C3398 H3389 0.930 . S
C3398 C3396 1.384 . S
C3398 C3399 1.372 . S
C3399 C3398 1.372 . S
C3399 C3400 1.400 . S
C3399 C3404 1.490 . S
C3400 H3390 0.930 . S
C3400 C3399 1.400 . S
C3400 C3403 1.386 . S
H3401 C3417 0.930 1_565 S
H3402 C3418 0.931 . S
C3403 H3391 0.929 . S
C3403 C3397 1.390 . S
C3403 C3400 1.386 . S
C3404 C3399 1.490 . S
C3404 C3406 1.395 . S
C3404 C3407 1.403 . S
H3405 C3411 0.930 . S
C3406 H3392 0.930 . S
C3406 C3404 1.395 . S
C3406 C3409 1.403 . S
C3407 C3404 1.403 . S
C3407 C3408 1.524 . S
C3407 C3411 1.400 . S
C3408 H3393 0.960 . S
C3408 H3394 0.960 . S
C3408 H3395 0.960 . S
C3408 C3407 1.524 . S
C3409 C3406 1.403 . S
C3409 C3410 1.392 . S
C3409 C3413 1.495 1_565 S
C3410 C3409 1.392 . S
C3410 C3411 1.385 . S
C3410 C3412 1.478 . S
C3411 H3405 0.930 . S
C3411 C3407 1.400 . S
C3411 C3410 1.385 . S
C3412 C3410 1.478 . S
C3412 C3414 1.381 1_565 S
C3412 C3418 1.383 . S
C3413 C3409 1.495 1_545 S
C3413 H3419 0.959 . S
C3413 H3420 0.961 . S
C3413 H3421 0.960 . S
C3414 C3412 1.381 1_545 S
C3414 C3415 1.394 . S
C3414 H3422 0.930 . S
C3415 C3414 1.394 . S
C3415 C3416 1.383 . S
C3415 H3423 0.929 . S
C3416 C3415 1.383 . S
C3416 C3417 1.377 . S
C3417 H3401 0.930 1_545 S
C3417 C3416 1.377 . S
C3417 C3418 1.379 1_545 S
C3418 H3402 0.931 . S
C3418 C3412 1.383 . S
C3418 C3417 1.379 1_565 S
H3419 C3413 0.959 . S
H3420 C3413 0.961 . S
H3421 C3413 0.960 . S
H3422 C3414 0.930 . S
H3423 C3415 0.929 . S
H3424 C3432 0.929 . S
H3425 C3434 0.930 . S
H3426 C3436 0.930 . S
H3427 C3439 0.929 . S
H3428 C3442 0.930 . S
H3429 C3444 0.960 . S
H3430 C3444 0.960 . S
H3431 C3444 0.960 . S
C3432 H3424 0.929 . S
C3432 C3433 1.377 . S
C3432 C3434 1.384 . S
C3433 C3432 1.377 . S
C3433 C3439 1.390 . S
C3434 H3425 0.930 . S
C3434 C3432 1.384 . S
C3434 C3435 1.372 . S
C3435 C3434 1.372 . S
C3435 C3436 1.400 . S
C3435 C3440 1.490 . S
C3436 H3426 0.930 . S
C3436 C3435 1.400 . S
C3436 C3439 1.386 . S
H3437 C3453 0.930 . S
H3438 C3454 0.931 . S
C3439 H3427 0.929 . S
C3439 C3433 1.390 . S
C3439 C3436 1.386 . S
C3440 C3435 1.490 . S
C3440 C3442 1.395 . S
C3440 C3443 1.403 . S
H3441 C3447 0.930 . S
C3442 H3428 0.930 . S
C3442 C3440 1.395 . S
C3442 C3445 1.403 . S
C3443 C3440 1.403 . S
C3443 C3444 1.524 . S
C3443 C3447 1.400 . S
C3444 H3429 0.960 . S
C3444 H3430 0.960 . S
C3444 H3431 0.960 . S
C3444 C3443 1.524 . S
C3445 C3442 1.403 . S
C3445 C3446 1.392 . S
C3445 C3449 1.495 . S
C3446 C3445 1.392 . S
C3446 C3447 1.385 . S
C3446 C3448 1.478 . S
C3447 H3441 0.930 . S
C3447 C3443 1.400 . S
C3447 C3446 1.385 . S
C3448 C3446 1.478 . S
C3448 C3450 1.381 . S
C3448 C3454 1.383 . S
C3449 C3445 1.495 . S
C3449 H3455 0.959 . S
C3449 H3456 0.961 . S
C3449 H3457 0.960 . S
C3450 C3448 1.381 . S
C3450 C3451 1.394 . S
C3450 H3458 0.930 . S
C3451 C3450 1.394 . S
C3451 C3452 1.383 . S
C3451 H3459 0.929 . S
C3452 C3451 1.383 . S
C3452 C3453 1.377 . S
C3453 H3437 0.930 . S
C3453 C3452 1.377 . S
C3453 C3454 1.379 . S
C3454 H3438 0.931 . S
C3454 C3448 1.383 . S
C3454 C3453 1.379 . S
H3455 C3449 0.959 . S
H3456 C3449 0.961 . S
H3457 C3449 0.960 . S
H3458 C3450 0.930 . S
H3459 C3451 0.929 . S
H3460 C3468 0.929 . S
H3461 C3470 0.930 . S
H3462 C3472 0.930 1_556 S
H3463 C3475 0.929 . S
H3464 C3478 0.930 . S
H3465 C3480 0.960 . S
H3466 C3480 0.960 . S
H3467 C3480 0.960 . S
C3468 H3460 0.929 . S
C3468 C3469 1.377 . S
C3468 C3470 1.384 . S
C3469 C3468 1.377 . S
C3469 C3475 1.390 1_554 S
C3470 H3461 0.930 . S
C3470 C3468 1.384 . S
C3470 C3471 1.372 . S
C3471 C3470 1.372 . S
C3471 C3472 1.400 . S
C3471 C3476 1.490 . S
C3472 H3462 0.930 1_554 S
C3472 C3471 1.400 . S
C3472 C3475 1.386 1_554 S
H3473 C3489 0.930 . S
H3474 C3490 0.931 . S
C3475 H3463 0.929 . S
C3475 C3469 1.390 1_556 S
C3475 C3472 1.386 1_556 S
C3476 C3471 1.490 . S
C3476 C3478 1.395 . S
C3476 C3479 1.403 . S
H3477 C3483 0.930 . S
C3478 H3464 0.930 . S
C3478 C3476 1.395 . S
C3478 C3481 1.403 . S
C3479 C3476 1.403 . S
C3479 C3480 1.524 . S
C3479 C3483 1.400 . S
C3480 H3465 0.960 . S
C3480 H3466 0.960 . S
C3480 H3467 0.960 . S
C3480 C3479 1.524 . S
C3481 C3478 1.403 . S
C3481 C3482 1.392 . S
C3481 C3485 1.495 . S
C3482 C3481 1.392 . S
C3482 C3483 1.385 . S
C3482 C3484 1.478 . S
C3483 H3477 0.930 . S
C3483 C3479 1.400 . S
C3483 C3482 1.385 . S
C3484 C3482 1.478 . S
C3484 C3486 1.381 . S
C3484 C3490 1.383 . S
C3485 C3481 1.495 . S
C3485 H3491 0.959 . S
C3485 H3492 0.961 . S
C3485 H3493 0.960 . S
C3486 C3484 1.381 . S
C3486 C3487 1.394 . S
C3486 H3494 0.930 . S
C3487 C3486 1.394 . S
C3487 C3488 1.383 . S
C3487 H3495 0.929 . S
C3488 C3487 1.383 . S
C3488 C3489 1.377 . S
C3489 H3473 0.930 . S
C3489 C3488 1.377 . S
C3489 C3490 1.379 . S
C3490 H3474 0.931 . S
C3490 C3484 1.383 . S
C3490 C3489 1.379 . S
H3491 C3485 0.959 . S
H3492 C3485 0.961 . S
H3493 C3485 0.960 . S
H3494 C3486 0.930 . S
H3495 C3487 0.929 . S
H3496 C3504 0.929 . S
H3497 C3506 0.930 . S
H3498 C3508 0.930 . S
H3499 C3511 0.929 . S
H3500 C3514 0.930 . S
H3501 C3516 0.960 . S
H3502 C3516 0.960 . S
H3503 C3516 0.960 . S
C3504 H3496 0.929 . S
C3504 C3505 1.377 . S
C3504 C3506 1.384 . S
C3505 C3504 1.377 . S
C3505 C3511 1.390 . S
C3506 H3497 0.930 . S
C3506 C3504 1.384 . S
C3506 C3507 1.372 . S
C3507 C3506 1.372 . S
C3507 C3508 1.400 . S
C3507 C3512 1.490 . S
C3508 H3498 0.930 . S
C3508 C3507 1.400 . S
C3508 C3511 1.386 . S
H3509 C3525 0.930 . S
H3510 C3526 0.931 . S
C3511 H3499 0.929 . S
C3511 C3505 1.390 . S
C3511 C3508 1.386 . S
C3512 C3507 1.490 . S
C3512 C3514 1.395 . S
C3512 C3515 1.403 . S
H3513 C3519 0.930 . S
C3514 H3500 0.930 . S
C3514 C3512 1.395 . S
C3514 C3517 1.403 . S
C3515 C3512 1.403 . S
C3515 C3516 1.524 . S
C3515 C3519 1.400 . S
C3516 H3501 0.960 . S
C3516 H3502 0.960 . S
C3516 H3503 0.960 . S
C3516 C3515 1.524 . S
C3517 C3514 1.403 . S
C3517 C3518 1.392 . S
C3517 C3521 1.495 . S
C3518 C3517 1.392 . S
C3518 C3519 1.385 . S
C3518 C3520 1.478 . S
C3519 H3513 0.930 . S
C3519 C3515 1.400 . S
C3519 C3518 1.385 . S
C3520 C3518 1.478 . S
C3520 C3522 1.381 . S
C3520 C3526 1.383 . S
C3521 C3517 1.495 . S
C3521 H3527 0.959 . S
C3521 H3528 0.961 . S
C3521 H3529 0.960 . S
C3522 C3520 1.381 . S
C3522 C3523 1.394 . S
C3522 H3530 0.930 . S
C3523 C3522 1.394 . S
C3523 C3524 1.383 . S
C3523 H3531 0.929 . S
C3524 C3523 1.383 . S
C3524 C3525 1.377 . S
C3525 H3509 0.930 . S
C3525 C3524 1.377 . S
C3525 C3526 1.379 . S
C3526 H3510 0.931 . S
C3526 C3520 1.383 . S
C3526 C3525 1.379 . S
H3527 C3521 0.959 . S
H3528 C3521 0.961 . S
H3529 C3521 0.960 . S
H3530 C3522 0.930 . S
H3531 C3523 0.929 . S
H3532 C3540 0.929 . S
H3533 C3542 0.930 . S
H3534 C3544 0.930 . S
H3535 C3547 0.929 . S
H3536 C3550 0.930 . S
H3537 C3552 0.960 . S
H3538 C3552 0.960 . S
H3539 C3552 0.960 . S
C3540 H3532 0.929 . S
C3540 C3541 1.377 . S
C3540 C3542 1.384 . S
C3541 C3540 1.377 . S
C3541 C3547 1.390 . S
C3542 H3533 0.930 . S
C3542 C3540 1.384 . S
C3542 C3543 1.372 . S
C3543 C3542 1.372 . S
C3543 C3544 1.400 . S
C3543 C3548 1.490 . S
C3544 H3534 0.930 . S
C3544 C3543 1.400 . S
C3544 C3547 1.386 . S
H3545 C3561 0.930 . S
H3546 C3562 0.931 . S
C3547 H3535 0.929 . S
C3547 C3541 1.390 . S
C3547 C3544 1.386 . S
C3548 C3543 1.490 . S
C3548 C3550 1.395 . S
C3548 C3551 1.403 . S
H3549 C3555 0.930 . S
C3550 H3536 0.930 . S
C3550 C3548 1.395 . S
C3550 C3553 1.403 1_545 S
C3551 C3548 1.403 . S
C3551 C3552 1.524 . S
C3551 C3555 1.400 1_545 S
C3552 H3537 0.960 . S
C3552 H3538 0.960 . S
C3552 H3539 0.960 . S
C3552 C3551 1.524 . S
C3553 C3550 1.403 1_565 S
C3553 C3554 1.392 . S
C3553 C3557 1.495 . S
C3554 C3553 1.392 . S
C3554 C3555 1.385 . S
C3554 C3556 1.478 . S
C3555 H3549 0.930 . S
C3555 C3551 1.400 1_565 S
C3555 C3554 1.385 . S
C3556 C3554 1.478 . S
C3556 C3558 1.381 . S
C3556 C3562 1.383 . S
C3557 C3553 1.495 . S
C3557 H3563 0.959 . S
C3557 H3564 0.961 . S
C3557 H3565 0.960 . S
C3558 C3556 1.381 . S
C3558 C3559 1.394 . S
C3558 H3566 0.930 . S
C3559 C3558 1.394 . S
C3559 C3560 1.383 . S
C3559 H3567 0.929 . S
C3560 C3559 1.383 . S
C3560 C3561 1.377 . S
C3561 H3545 0.930 . S
C3561 C3560 1.377 . S
C3561 C3562 1.379 . S
C3562 H3546 0.931 . S
C3562 C3556 1.383 . S
C3562 C3561 1.379 . S
H3563 C3557 0.959 . S
H3564 C3557 0.961 . S
H3565 C3557 0.960 . S
H3566 C3558 0.930 . S
H3567 C3559 0.929 . S
H3568 C3576 0.929 . S
H3569 C3578 0.930 . S
H3570 C3580 0.930 . S
H3571 C3583 0.929 . S
H3572 C3586 0.930 . S
H3573 C3588 0.960 . S
H3574 C3588 0.960 . S
H3575 C3588 0.960 . S
C3576 H3568 0.929 . S
C3576 C3577 1.377 . S
C3576 C3578 1.384 . S
C3577 C3576 1.377 . S
C3577 C3583 1.390 . S
C3578 H3569 0.930 . S
C3578 C3576 1.384 . S
C3578 C3579 1.372 . S
C3579 C3578 1.372 . S
C3579 C3580 1.400 . S
C3579 C3584 1.490 . S
C3580 H3570 0.930 . S
C3580 C3579 1.400 . S
C3580 C3583 1.386 . S
H3581 C3597 0.930 . S
H3582 C3598 0.931 . S
C3583 H3571 0.929 . S
C3583 C3577 1.390 . S
C3583 C3580 1.386 . S
C3584 C3579 1.490 . S
C3584 C3586 1.395 . S
C3584 C3587 1.403 . S
H3585 C3591 0.930 . S
C3586 H3572 0.930 . S
C3586 C3584 1.395 . S
C3586 C3589 1.403 . S
C3587 C3584 1.403 . S
C3587 C3588 1.524 . S
C3587 C3591 1.400 . S
C3588 H3573 0.960 . S
C3588 H3574 0.960 . S
C3588 H3575 0.960 . S
C3588 C3587 1.524 . S
C3589 C3586 1.403 . S
C3589 C3590 1.392 . S
C3589 C3593 1.495 . S
C3590 C3589 1.392 . S
C3590 C3591 1.385 . S
C3590 C3592 1.478 . S
C3591 H3585 0.930 . S
C3591 C3587 1.400 . S
C3591 C3590 1.385 . S
C3592 C3590 1.478 . S
C3592 C3594 1.381 . S
C3592 C3598 1.383 . S
C3593 C3589 1.495 . S
C3593 H3599 0.959 . S
C3593 H3600 0.961 . S
C3593 H3601 0.960 . S
C3594 C3592 1.381 . S
C3594 C3595 1.394 . S
C3594 H3602 0.930 . S
C3595 C3594 1.394 . S
C3595 C3596 1.383 . S
C3595 H3603 0.929 . S
C3596 C3595 1.383 . S
C3596 C3597 1.377 . S
C3597 H3581 0.930 . S
C3597 C3596 1.377 . S
C3597 C3598 1.379 . S
C3598 H3582 0.931 . S
C3598 C3592 1.383 . S
C3598 C3597 1.379 . S
H3599 C3593 0.959 . S
H3600 C3593 0.961 . S
H3601 C3593 0.960 . S
H3602 C3594 0.930 . S
H3603 C3595 0.929 . S
H3604 C3612 0.929 . S
H3605 C3614 0.930 . S
H3606 C3616 0.930 . S
H3607 C3619 0.929 . S
H3608 C3622 0.930 . S
H3609 C3624 0.960 . S
H3610 C3624 0.960 . S
H3611 C3624 0.960 . S
C3612 H3604 0.929 . S
C3612 C3613 1.377 . S
C3612 C3614 1.384 . S
C3613 C3612 1.377 . S
C3613 C3619 1.390 . S
C3614 H3605 0.930 . S
C3614 C3612 1.384 . S
C3614 C3615 1.372 . S
C3615 C3614 1.372 . S
C3615 C3616 1.400 . S
C3615 C3620 1.490 . S
C3616 H3606 0.930 . S
C3616 C3615 1.400 . S
C3616 C3619 1.386 . S
H3617 C3633 0.930 . S
H3618 C3634 0.931 . S
C3619 H3607 0.929 . S
C3619 C3613 1.390 . S
C3619 C3616 1.386 . S
C3620 C3615 1.490 . S
C3620 C3622 1.395 . S
C3620 C3623 1.403 . S
H3621 C3627 0.930 . S
C3622 H3608 0.930 . S
C3622 C3620 1.395 . S
C3622 C3625 1.403 . S
C3623 C3620 1.403 . S
C3623 C3624 1.524 . S
C3623 C3627 1.400 . S
C3624 H3609 0.960 . S
C3624 H3610 0.960 . S
C3624 H3611 0.960 . S
C3624 C3623 1.524 . S
C3625 C3622 1.403 . S
C3625 C3626 1.392 . S
C3625 C3629 1.495 . S
C3626 C3625 1.392 . S
C3626 C3627 1.385 . S
C3626 C3628 1.478 . S
C3627 H3621 0.930 . S
C3627 C3623 1.400 . S
C3627 C3626 1.385 . S
C3628 C3626 1.478 . S
C3628 C3630 1.381 . S
C3628 C3634 1.383 . S
C3629 C3625 1.495 . S
C3629 H3635 0.959 . S
C3629 H3636 0.961 . S
C3629 H3637 0.960 . S
C3630 C3628 1.381 . S
C3630 C3631 1.394 . S
C3630 H3638 0.930 . S
C3631 C3630 1.394 . S
C3631 C3632 1.383 . S
C3631 H3639 0.929 . S
C3632 C3631 1.383 . S
C3632 C3633 1.377 . S
C3633 H3617 0.930 . S
C3633 C3632 1.377 . S
C3633 C3634 1.379 . S
C3634 H3618 0.931 . S
C3634 C3628 1.383 . S
C3634 C3633 1.379 . S
H3635 C3629 0.959 . S
H3636 C3629 0.961 . S
H3637 C3629 0.960 . S
H3638 C3630 0.930 . S
H3639 C3631 0.929 . S
H3640 C3648 0.929 1_655 S
H3641 C3650 0.930 1_655 S
H3642 C3652 0.930 . S
H3643 C3655 0.929 . S
H3644 C3658 0.930 . S
H3645 C3660 0.960 . S
H3646 C3660 0.953 . S
H3647 C3660 0.964 1_455 S
C3648 H3640 0.929 1_455 S
C3648 C3649 1.377 . S
C3648 C3650 1.384 . S
C3649 C3648 1.377 . S
C3649 C3655 1.390 . S
C3650 H3641 0.930 1_455 S
C3650 C3648 1.384 . S
C3650 C3651 1.372 . S
C3651 C3650 1.372 . S
C3651 C3652 1.400 . S
C3651 C3656 1.490 . S
C3652 H3642 0.930 . S
C3652 C3651 1.400 . S
C3652 C3655 1.386 . S
H3653 C3669 0.930 . S
H3654 C3670 0.931 . S
C3655 H3643 0.929 . S
C3655 C3649 1.390 . S
C3655 C3652 1.386 . S
C3656 C3651 1.490 . S
C3656 C3658 1.395 . S
C3656 C3659 1.403 . S
H3657 C3663 0.930 . S
C3658 H3644 0.930 . S
C3658 C3656 1.395 . S
C3658 C3661 1.403 . S
C3659 C3656 1.403 . S
C3659 C3660 1.527 1_455 S
C3659 C3663 1.400 . S
C3660 H3645 0.960 . S
C3660 H3646 0.953 . S
C3660 H3647 0.964 1_655 S
C3660 C3659 1.527 1_655 S
C3661 C3658 1.403 . S
C3661 C3662 1.392 . S
C3661 C3665 1.495 . S
C3662 C3661 1.392 . S
C3662 C3663 1.385 . S
C3662 C3664 1.478 . S
C3663 H3657 0.930 . S
C3663 C3659 1.400 . S
C3663 C3662 1.385 . S
C3664 C3662 1.478 . S
C3664 C3666 1.381 . S
C3664 C3670 1.383 . S
C3665 C3661 1.495 . S
C3665 H3671 0.959 . S
C3665 H3672 0.961 . S
C3665 H3673 0.960 . S
C3666 C3664 1.381 . S
C3666 C3667 1.394 . S
C3666 H3674 0.930 1_455 S
C3667 C3666 1.394 . S
C3667 C3668 1.383 . S
C3667 H3675 0.929 1_455 S
C3668 C3667 1.383 . S
C3668 C3669 1.377 . S
C3669 H3653 0.930 . S
C3669 C3668 1.377 . S
C3669 C3670 1.379 . S
C3670 H3654 0.931 . S
C3670 C3664 1.383 . S
C3670 C3669 1.379 . S
H3671 C3665 0.959 . S
H3672 C3665 0.961 . S
H3673 C3665 0.960 . S
H3674 C3666 0.930 1_655 S
H3675 C3667 0.929 1_655 S
H3676 C3684 0.929 . S
H3677 C3686 0.930 . S
H3678 C3688 0.930 . S
H3679 C3691 0.929 . S
H3680 C3694 0.930 . S
H3681 C3696 0.960 . S
H3682 C3696 0.960 . S
H3683 C3696 0.960 . S
C3684 H3676 0.929 . S
C3684 C3685 1.377 . S
C3684 C3686 1.384 . S
C3685 C3684 1.377 . S
C3685 C3691 1.390 . S
C3686 H3677 0.930 . S
C3686 C3684 1.384 . S
C3686 C3687 1.372 . S
C3687 C3686 1.372 . S
C3687 C3688 1.400 . S
C3687 C3692 1.490 . S
C3688 H3678 0.930 . S
C3688 C3687 1.400 . S
C3688 C3691 1.386 . S
H3689 C3705 0.930 . S
H3690 C3706 0.931 . S
C3691 H3679 0.929 . S
C3691 C3685 1.390 . S
C3691 C3688 1.386 . S
C3692 C3687 1.490 . S
C3692 C3694 1.395 . S
C3692 C3695 1.403 . S
H3693 C3699 0.930 . S
C3694 H3680 0.930 . S
C3694 C3692 1.395 . S
C3694 C3697 1.403 . S
C3695 C3692 1.403 . S
C3695 C3696 1.524 . S
C3695 C3699 1.400 . S
C3696 H3681 0.960 . S
C3696 H3682 0.960 . S
C3696 H3683 0.960 . S
C3696 C3695 1.524 . S
C3697 C3694 1.403 . S
C3697 C3698 1.392 . S
C3697 C3701 1.495 . S
C3698 C3697 1.392 . S
C3698 C3699 1.385 . S
C3698 C3700 1.478 . S
C3699 H3693 0.930 . S
C3699 C3695 1.400 . S
C3699 C3698 1.385 . S
C3700 C3698 1.478 . S
C3700 C3702 1.381 . S
C3700 C3706 1.383 . S
C3701 C3697 1.495 . S
C3701 H3707 0.959 . S
C3701 H3708 0.961 . S
C3701 H3709 0.960 . S
C3702 C3700 1.381 . S
C3702 C3703 1.394 . S
C3702 H3710 0.930 . S
C3703 C3702 1.394 . S
C3703 C3704 1.383 . S
C3703 H3711 0.929 . S
C3704 C3703 1.383 . S
C3704 C3705 1.377 . S
C3705 H3689 0.930 . S
C3705 C3704 1.377 . S
C3705 C3706 1.379 . S
C3706 H3690 0.931 . S
C3706 C3700 1.383 . S
C3706 C3705 1.379 . S
H3707 C3701 0.959 . S
H3708 C3701 0.961 . S
H3709 C3701 0.960 . S
H3710 C3702 0.930 . S
H3711 C3703 0.929 . S
H3712 C3720 0.929 . S
H3713 C3722 0.930 . S
H3714 C3724 0.930 1_554 S
H3715 C3727 0.929 . S
H3716 C3730 0.930 . S
H3717 C3732 0.960 . S
H3718 C3732 0.960 . S
H3719 C3732 0.960 . S
C3720 H3712 0.929 . S
C3720 C3721 1.377 . S
C3720 C3722 1.384 . S
C3721 C3720 1.377 . S
C3721 C3727 1.390 . S
C3722 H3713 0.930 . S
C3722 C3720 1.384 . S
C3722 C3723 1.372 . S
C3723 C3722 1.372 . S
C3723 C3724 1.400 . S
C3723 C3728 1.490 1_556 S
C3724 H3714 0.930 1_556 S
C3724 C3723 1.400 . S
C3724 C3727 1.386 . S
H3725 C3741 0.930 . S
H3726 C3742 0.931 . S
C3727 H3715 0.929 . S
C3727 C3721 1.390 . S
C3727 C3724 1.386 . S
C3728 C3723 1.490 1_554 S
C3728 C3730 1.395 . S
C3728 C3731 1.403 1_554 S
H3729 C3735 0.930 . S
C3730 H3716 0.930 . S
C3730 C3728 1.395 . S
C3730 C3733 1.403 . S
C3731 C3728 1.403 1_556 S
C3731 C3732 1.524 . S
C3731 C3735 1.400 . S
C3732 H3717 0.960 . S
C3732 H3718 0.960 . S
C3732 H3719 0.960 . S
C3732 C3731 1.524 . S
C3733 C3730 1.403 . S
C3733 C3734 1.392 . S
C3733 C3737 1.495 . S
C3734 C3733 1.392 . S
C3734 C3735 1.385 1_554 S
C3734 C3736 1.478 . S
C3735 H3729 0.930 . S
C3735 C3731 1.400 . S
C3735 C3734 1.385 1_556 S
C3736 C3734 1.478 . S
C3736 C3738 1.381 . S
C3736 C3742 1.383 . S
C3737 C3733 1.495 . S
C3737 H3743 0.959 . S
C3737 H3744 0.961 . S
C3737 H3745 0.960 . S
C3738 C3736 1.381 . S
C3738 C3739 1.394 . S
C3738 H3746 0.930 . S
C3739 C3738 1.394 . S
C3739 C3740 1.383 . S
C3739 H3747 0.929 . S
C3740 C3739 1.383 . S
C3740 C3741 1.377 . S
C3741 H3725 0.930 . S
C3741 C3740 1.377 . S
C3741 C3742 1.379 . S
C3742 H3726 0.931 . S
C3742 C3736 1.383 . S
C3742 C3741 1.379 . S
H3743 C3737 0.959 . S
H3744 C3737 0.961 . S
H3745 C3737 0.960 . S
H3746 C3738 0.930 . S
H3747 C3739 0.929 . S
H3748 C3756 0.929 . S
H3749 C3758 0.930 . S
H3750 C3760 0.930 . S
H3751 C3763 0.929 . S
H3752 C3766 0.930 . S
H3753 C3768 0.960 . S
H3754 C3768 0.960 . S
H3755 C3768 0.960 . S
C3756 H3748 0.929 . S
C3756 C3757 1.377 . S
C3756 C3758 1.384 . S
C3757 C3756 1.377 . S
C3757 C3763 1.390 . S
C3758 H3749 0.930 . S
C3758 C3756 1.384 . S
C3758 C3759 1.372 . S
C3759 C3758 1.372 . S
C3759 C3760 1.400 . S
C3759 C3764 1.490 . S
C3760 H3750 0.930 . S
C3760 C3759 1.400 . S
C3760 C3763 1.386 . S
H3761 C3777 0.930 . S
H3762 C3778 0.931 . S
C3763 H3751 0.929 . S
C3763 C3757 1.390 . S
C3763 C3760 1.386 . S
C3764 C3759 1.490 . S
C3764 C3766 1.395 . S
C3764 C3767 1.403 . S
H3765 C3771 0.930 . S
C3766 H3752 0.930 . S
C3766 C3764 1.395 . S
C3766 C3769 1.403 . S
C3767 C3764 1.403 . S
C3767 C3768 1.524 . S
C3767 C3771 1.400 . S
C3768 H3753 0.960 . S
C3768 H3754 0.960 . S
C3768 H3755 0.960 . S
C3768 C3767 1.524 . S
C3769 C3766 1.403 . S
C3769 C3770 1.392 . S
C3769 C3773 1.495 . S
C3770 C3769 1.392 . S
C3770 C3771 1.385 . S
C3770 C3772 1.478 . S
C3771 H3765 0.930 . S
C3771 C3767 1.400 . S
C3771 C3770 1.385 . S
C3772 C3770 1.478 . S
C3772 C3774 1.381 . S
C3772 C3778 1.383 . S
C3773 C3769 1.495 . S
C3773 H3779 0.959 . S
C3773 H3780 0.961 . S
C3773 H3781 0.960 . S
C3774 C3772 1.381 . S
C3774 C3775 1.394 . S
C3774 H3782 0.930 . S
C3775 C3774 1.394 . S
C3775 C3776 1.383 . S
C3775 H3783 0.929 . S
C3776 C3775 1.383 . S
C3776 C3777 1.377 . S
C3777 H3761 0.930 . S
C3777 C3776 1.377 . S
C3777 C3778 1.379 . S
C3778 H3762 0.931 . S
C3778 C3772 1.383 . S
C3778 C3777 1.379 . S
H3779 C3773 0.959 . S
H3780 C3773 0.961 . S
H3781 C3773 0.960 . S
H3782 C3774 0.930 . S
H3783 C3775 0.929 . S
H3784 C3792 0.929 . S
H3785 C3794 0.930 . S
H3786 C3796 0.930 . S
H3787 C3799 0.929 . S
H3788 C3802 0.930 . S
H3789 C3804 0.960 1_655 S
H3790 C3804 0.960 . S
H3791 C3804 0.960 . S
C3792 H3784 0.929 . S
C3792 C3793 1.377 . S
C3792 C3794 1.384 . S
C3793 C3792 1.377 . S
C3793 C3799 1.390 . S
C3794 H3785 0.930 . S
C3794 C3792 1.384 . S
C3794 C3795 1.372 . S
C3795 C3794 1.372 . S
C3795 C3796 1.400 . S
C3795 C3800 1.490 . S
C3796 H3786 0.930 . S
C3796 C3795 1.400 . S
C3796 C3799 1.386 . S
H3797 C3813 0.930 . S
H3798 C3814 0.931 . S
C3799 H3787 0.929 . S
C3799 C3793 1.390 . S
C3799 C3796 1.386 . S
C3800 C3795 1.490 . S
C3800 C3802 1.395 . S
C3800 C3803 1.403 . S
H3801 C3807 0.930 . S
C3802 H3788 0.930 . S
C3802 C3800 1.395 . S
C3802 C3805 1.403 . S
C3803 C3800 1.403 . S
C3803 C3804 1.524 . S
C3803 C3807 1.400 . S
C3804 H3789 0.960 1_455 S
C3804 H3790 0.960 . S
C3804 H3791 0.960 . S
C3804 C3803 1.524 . S
C3805 C3802 1.403 . S
C3805 C3806 1.392 . S
C3805 C3809 1.495 . S
C3806 C3805 1.392 . S
C3806 C3807 1.385 . S
C3806 C3808 1.478 . S
C3807 H3801 0.930 . S
C3807 C3803 1.400 . S
C3807 C3806 1.385 . S
C3808 C3806 1.478 . S
C3808 C3810 1.381 . S
C3808 C3814 1.383 . S
C3809 C3805 1.495 . S
C3809 H3815 0.959 . S
C3809 H3816 0.961 . S
C3809 H3817 0.960 . S
C3810 C3808 1.381 . S
C3810 C3811 1.394 . S
C3810 H3818 0.930 . S
C3811 C3810 1.394 . S
C3811 C3812 1.383 . S
C3811 H3819 0.929 . S
C3812 C3811 1.383 . S
C3812 C3813 1.377 . S
C3813 H3797 0.930 . S
C3813 C3812 1.377 . S
C3813 C3814 1.379 . S
C3814 H3798 0.931 . S
C3814 C3808 1.383 . S
C3814 C3813 1.379 . S
H3815 C3809 0.959 . S
H3816 C3809 0.961 . S
H3817 C3809 0.960 . S
H3818 C3810 0.930 . S
H3819 C3811 0.929 . S
H3820 C3828 0.929 . S
H3821 C3830 0.930 . S
H3822 C3832 0.930 . S
H3823 C3835 0.929 . S
H3824 C3838 0.930 . S
H3825 C3840 0.960 . S
H3826 C3840 0.960 . S
H3827 C3840 0.960 . S
C3828 H3820 0.929 . S
C3828 C3829 1.377 . S
C3828 C3830 1.384 . S
C3829 C3828 1.377 . S
C3829 C3835 1.390 . S
C3830 H3821 0.930 . S
C3830 C3828 1.384 . S
C3830 C3831 1.372 . S
C3831 C3830 1.372 . S
C3831 C3832 1.400 . S
C3831 C3836 1.490 . S
C3832 H3822 0.930 . S
C3832 C3831 1.400 . S
C3832 C3835 1.386 . S
H3833 C3849 0.930 . S
H3834 C3850 0.931 . S
C3835 H3823 0.929 . S
C3835 C3829 1.390 . S
C3835 C3832 1.386 . S
C3836 C3831 1.490 . S
C3836 C3838 1.395 . S
C3836 C3839 1.403 . S
H3837 C3843 0.930 . S
C3838 H3824 0.930 . S
C3838 C3836 1.395 . S
C3838 C3841 1.403 . S
C3839 C3836 1.403 . S
C3839 C3840 1.524 . S
C3839 C3843 1.400 . S
C3840 H3825 0.960 . S
C3840 H3826 0.960 . S
C3840 H3827 0.960 . S
C3840 C3839 1.524 . S
C3841 C3838 1.403 . S
C3841 C3842 1.392 . S
C3841 C3845 1.495 . S
C3842 C3841 1.392 . S
C3842 C3843 1.385 . S
C3842 C3844 1.478 . S
C3843 H3837 0.930 . S
C3843 C3839 1.400 . S
C3843 C3842 1.385 . S
C3844 C3842 1.478 . S
C3844 C3846 1.381 . S
C3844 C3850 1.383 . S
C3845 C3841 1.495 . S
C3845 H3851 0.959 . S
C3845 H3852 0.961 . S
C3845 H3853 0.960 . S
C3846 C3844 1.381 . S
C3846 C3847 1.394 . S
C3846 H3854 0.930 . S
C3847 C3846 1.394 . S
C3847 C3848 1.383 . S
C3847 H3855 0.929 . S
C3848 C3847 1.383 . S
C3848 C3849 1.377 . S
C3849 H3833 0.930 . S
C3849 C3848 1.377 . S
C3849 C3850 1.379 . S
C3850 H3834 0.931 . S
C3850 C3844 1.383 . S
C3850 C3849 1.379 . S
H3851 C3845 0.959 . S
H3852 C3845 0.961 . S
H3853 C3845 0.960 . S
H3854 C3846 0.930 . S
H3855 C3847 0.929 . S
H3856 C3864 0.929 . S
H3857 C3866 0.930 . S
H3858 C3868 0.930 . S
H3859 C3871 0.929 . S
H3860 C3874 0.930 . S
H3861 C3876 0.960 . S
H3862 C3876 0.960 . S
H3863 C3876 0.960 . S
C3864 H3856 0.929 . S
C3864 C3865 1.377 . S
C3864 C3866 1.384 . S
C3865 C3864 1.377 . S
C3865 C3871 1.390 . S
C3866 H3857 0.930 . S
C3866 C3864 1.384 . S
C3866 C3867 1.372 . S
C3867 C3866 1.372 . S
C3867 C3868 1.400 . S
C3867 C3872 1.490 . S
C3868 H3858 0.930 . S
C3868 C3867 1.400 . S
C3868 C3871 1.386 . S
H3869 C3885 0.930 . S
H3870 C3886 0.931 . S
C3871 H3859 0.929 . S
C3871 C3865 1.390 . S
C3871 C3868 1.386 . S
C3872 C3867 1.490 . S
C3872 C3874 1.395 . S
C3872 C3875 1.403 . S
H3873 C3879 0.930 . S
C3874 H3860 0.930 . S
C3874 C3872 1.395 . S
C3874 C3877 1.403 . S
C3875 C3872 1.403 . S
C3875 C3876 1.524 . S
C3875 C3879 1.400 . S
C3876 H3861 0.960 . S
C3876 H3862 0.960 . S
C3876 H3863 0.960 . S
C3876 C3875 1.524 . S
C3877 C3874 1.403 . S
C3877 C3878 1.392 . S
C3877 C3881 1.495 . S
C3878 C3877 1.392 . S
C3878 C3879 1.385 . S
C3878 C3880 1.478 . S
C3879 H3873 0.930 . S
C3879 C3875 1.400 . S
C3879 C3878 1.385 . S
C3880 C3878 1.478 . S
C3880 C3882 1.381 . S
C3880 C3886 1.383 . S
C3881 C3877 1.495 . S
C3881 H3887 0.959 . S
C3881 H3888 0.961 . S
C3881 H3889 0.960 . S
C3882 C3880 1.381 . S
C3882 C3883 1.394 . S
C3882 H3890 0.930 . S
C3883 C3882 1.394 . S
C3883 C3884 1.383 . S
C3883 H3891 0.929 . S
C3884 C3883 1.383 . S
C3884 C3885 1.377 . S
C3885 H3869 0.930 . S
C3885 C3884 1.377 . S
C3885 C3886 1.379 . S
C3886 H3870 0.931 . S
C3886 C3880 1.383 . S
C3886 C3885 1.379 . S
H3887 C3881 0.959 . S
H3888 C3881 0.961 . S
H3889 C3881 0.960 . S
H3890 C3882 0.930 . S
H3891 C3883 0.929 . S
H3892 C3900 0.929 . S
H3893 C3902 0.930 . S
H3894 C3904 0.930 . S
H3895 C3907 0.929 . S
H3896 C3910 0.930 . S
H3897 C3912 0.960 . S
H3898 C3912 0.960 . S
H3899 C3912 0.960 . S
C3900 H3892 0.929 . S
C3900 C3901 1.377 . S
C3900 C3902 1.384 . S
C3901 C3900 1.377 . S
C3901 C3907 1.390 . S
C3902 H3893 0.930 . S
C3902 C3900 1.384 . S
C3902 C3903 1.372 . S
C3903 C3902 1.372 . S
C3903 C3904 1.400 . S
C3903 C3908 1.490 . S
C3904 H3894 0.930 . S
C3904 C3903 1.400 . S
C3904 C3907 1.386 . S
H3905 C3921 0.930 . S
H3906 C3922 0.931 . S
C3907 H3895 0.929 . S
C3907 C3901 1.390 . S
C3907 C3904 1.386 . S
C3908 C3903 1.490 . S
C3908 C3910 1.395 . S
C3908 C3911 1.403 . S
H3909 C3915 0.930 . S
C3910 H3896 0.930 . S
C3910 C3908 1.395 . S
C3910 C3913 1.403 . S
C3911 C3908 1.403 . S
C3911 C3912 1.524 . S
C3911 C3915 1.400 . S
C3912 H3897 0.960 . S
C3912 H3898 0.960 . S
C3912 H3899 0.960 . S
C3912 C3911 1.524 . S
C3913 C3910 1.403 . S
C3913 C3914 1.392 . S
C3913 C3917 1.495 . S
C3914 C3913 1.392 . S
C3914 C3915 1.385 . S
C3914 C3916 1.478 . S
C3915 H3909 0.930 . S
C3915 C3911 1.400 . S
C3915 C3914 1.385 . S
C3916 C3914 1.478 . S
C3916 C3918 1.381 . S
C3916 C3922 1.383 . S
C3917 C3913 1.495 . S
C3917 H3923 0.959 . S
C3917 H3924 0.961 . S
C3917 H3925 0.960 . S
C3918 C3916 1.381 . S
C3918 C3919 1.394 . S
C3918 H3926 0.930 . S
C3919 C3918 1.394 . S
C3919 C3920 1.383 . S
C3919 H3927 0.929 . S
C3920 C3919 1.383 . S
C3920 C3921 1.377 . S
C3921 H3905 0.930 . S
C3921 C3920 1.377 . S
C3921 C3922 1.379 . S
C3922 H3906 0.931 . S
C3922 C3916 1.383 . S
C3922 C3921 1.379 . S
H3923 C3917 0.959 . S
H3924 C3917 0.961 . S
H3925 C3917 0.960 . S
H3926 C3918 0.930 . S
H3927 C3919 0.929 . S
H3928 C3936 0.929 . S
H3929 C3938 0.930 . S
H3930 C3940 0.930 . S
H3931 C3943 0.929 . S
H3932 C3946 0.930 . S
H3933 C3948 0.960 . S
H3934 C3948 0.960 . S
H3935 C3948 0.960 . S
C3936 H3928 0.929 . S
C3936 C3937 1.377 . S
C3936 C3938 1.384 . S
C3937 C3936 1.377 . S
C3937 C3943 1.390 . S
C3938 H3929 0.930 . S
C3938 C3936 1.384 . S
C3938 C3939 1.372 . S
C3939 C3938 1.372 . S
C3939 C3940 1.400 . S
C3939 C3944 1.490 . S
C3940 H3930 0.930 . S
C3940 C3939 1.400 . S
C3940 C3943 1.386 . S
H3941 C3957 0.930 . S
H3942 C3958 0.931 . S
C3943 H3931 0.929 . S
C3943 C3937 1.390 . S
C3943 C3940 1.386 . S
C3944 C3939 1.490 . S
C3944 C3946 1.395 . S
C3944 C3947 1.403 . S
H3945 C3951 0.930 . S
C3946 H3932 0.930 . S
C3946 C3944 1.395 . S
C3946 C3949 1.403 . S
C3947 C3944 1.403 . S
C3947 C3948 1.524 . S
C3947 C3951 1.400 . S
C3948 H3933 0.960 . S
C3948 H3934 0.960 . S
C3948 H3935 0.960 . S
C3948 C3947 1.524 . S
C3949 C3946 1.403 . S
C3949 C3950 1.392 . S
C3949 C3953 1.495 1_655 S
C3950 C3949 1.392 . S
C3950 C3951 1.385 . S
C3950 C3952 1.478 . S
C3951 H3945 0.930 . S
C3951 C3947 1.400 . S
C3951 C3950 1.385 . S
C3952 C3950 1.478 . S
C3952 C3954 1.381 1_655 S
C3952 C3958 1.383 . S
C3953 C3949 1.495 1_455 S
C3953 H3959 0.959 . S
C3953 H3960 0.961 1_455 S
C3953 H3961 0.960 . S
C3954 C3952 1.381 1_455 S
C3954 C3955 1.394 . S
C3954 H3962 0.930 . S
C3955 C3954 1.394 . S
C3955 C3956 1.383 . S
C3955 H3963 0.929 . S
C3956 C3955 1.383 . S
C3956 C3957 1.377 1_455 S
C3957 H3941 0.930 . S
C3957 C3956 1.377 1_655 S
C3957 C3958 1.379 . S
C3958 H3942 0.931 . S
C3958 C3952 1.383 . S
C3958 C3957 1.379 . S
H3959 C3953 0.959 . S
H3960 C3953 0.961 1_655 S
H3961 C3953 0.960 . S
H3962 C3954 0.930 . S
H3963 C3955 0.929 . S
H3964 C3972 0.929 . S
H3965 C3974 0.930 . S
H3966 C3976 0.930 . S
H3967 C3979 0.929 . S
H3968 C3982 0.930 . S
H3969 C3984 0.960 . S
H3970 C3984 0.960 . S
H3971 C3984 0.960 . S
C3972 H3964 0.929 . S
C3972 C3973 1.377 . S
C3972 C3974 1.384 . S
C3973 C3972 1.377 . S
C3973 C3979 1.390 . S
C3974 H3965 0.930 . S
C3974 C3972 1.384 . S
C3974 C3975 1.372 . S
C3975 C3974 1.372 . S
C3975 C3976 1.400 . S
C3975 C3980 1.490 . S
C3976 H3966 0.930 . S
C3976 C3975 1.400 . S
C3976 C3979 1.386 . S
H3977 C3993 0.930 . S
H3978 C3994 0.931 . S
C3979 H3967 0.929 . S
C3979 C3973 1.390 . S
C3979 C3976 1.386 . S
C3980 C3975 1.490 . S
C3980 C3982 1.395 . S
C3980 C3983 1.403 . S
H3981 C3987 0.930 . S
C3982 H3968 0.930 . S
C3982 C3980 1.395 . S
C3982 C3985 1.403 . S
C3983 C3980 1.403 . S
C3983 C3984 1.524 . S
C3983 C3987 1.400 . S
C3984 H3969 0.960 . S
C3984 H3970 0.960 . S
C3984 H3971 0.960 . S
C3984 C3983 1.524 . S
C3985 C3982 1.403 . S
C3985 C3986 1.392 . S
C3985 C3989 1.495 . S
C3986 C3985 1.392 . S
C3986 C3987 1.385 . S
C3986 C3988 1.478 . S
C3987 H3981 0.930 . S
C3987 C3983 1.400 . S
C3987 C3986 1.385 . S
C3988 C3986 1.478 . S
C3988 C3990 1.381 . S
C3988 C3994 1.383 . S
C3989 C3985 1.495 . S
C3989 H3995 0.959 . S
C3989 H3996 0.961 . S
C3989 H3997 0.960 . S
C3990 C3988 1.381 . S
C3990 C3991 1.394 . S
C3990 H3998 0.930 . S
C3991 C3990 1.394 . S
C3991 C3992 1.383 . S
C3991 H3999 0.929 . S
C3992 C3991 1.383 . S
C3992 C3993 1.377 . S
C3993 H3977 0.930 . S
C3993 C3992 1.377 . S
C3993 C3994 1.379 . S
C3994 H3978 0.931 . S
C3994 C3988 1.383 . S
C3994 C3993 1.379 . S
H3995 C3989 0.959 . S
H3996 C3989 0.961 . S
H3997 C3989 0.960 . S
H3998 C3990 0.930 . S
H3999 C3991 0.929 . S
H4000 C4008 0.929 . S
H4001 C4010 0.930 . S
H4002 C4012 0.930 . S
H4003 C4015 0.929 . S
H4004 C4018 0.930 . S
H4005 C4020 0.960 . S
H4006 C4020 0.960 . S
H4007 C4020 0.960 . S
C4008 H4000 0.929 . S
C4008 C4009 1.377 . S
C4008 C4010 1.384 . S
C4009 C4008 1.377 . S
C4009 C4015 1.390 . S
C4010 H4001 0.930 . S
C4010 C4008 1.384 . S
C4010 C4011 1.372 . S
C4011 C4010 1.372 . S
C4011 C4012 1.400 . S
C4011 C4016 1.490 . S
C4012 H4002 0.930 . S
C4012 C4011 1.400 . S
C4012 C4015 1.386 . S
H4013 C4029 0.930 . S
H4014 C4030 0.931 . S
C4015 H4003 0.929 . S
C4015 C4009 1.390 . S
C4015 C4012 1.386 . S
C4016 C4011 1.490 . S
C4016 C4018 1.395 . S
C4016 C4019 1.403 . S
H4017 C4023 0.930 . S
C4018 H4004 0.930 . S
C4018 C4016 1.395 . S
C4018 C4021 1.403 . S
C4019 C4016 1.403 . S
C4019 C4020 1.524 . S
C4019 C4023 1.400 . S
C4020 H4005 0.960 . S
C4020 H4006 0.960 . S
C4020 H4007 0.960 . S
C4020 C4019 1.524 . S
C4021 C4018 1.403 . S
C4021 C4022 1.392 . S
C4021 C4025 1.495 . S
C4022 C4021 1.392 . S
C4022 C4023 1.385 . S
C4022 C4024 1.478 . S
C4023 H4017 0.930 . S
C4023 C4019 1.400 . S
C4023 C4022 1.385 . S
C4024 C4022 1.478 . S
C4024 C4026 1.381 . S
C4024 C4030 1.383 . S
C4025 C4021 1.495 . S
C4025 H4031 0.959 . S
C4025 H4032 0.961 . S
C4025 H4033 0.960 . S
C4026 C4024 1.381 . S
C4026 C4027 1.394 . S
C4026 H4034 0.930 . S
C4027 C4026 1.394 . S
C4027 C4028 1.383 . S
C4027 H4035 0.929 . S
C4028 C4027 1.383 . S
C4028 C4029 1.377 . S
C4029 H4013 0.930 . S
C4029 C4028 1.377 . S
C4029 C4030 1.379 . S
C4030 H4014 0.931 . S
C4030 C4024 1.383 . S
C4030 C4029 1.379 . S
H4031 C4025 0.959 . S
H4032 C4025 0.961 . S
H4033 C4025 0.960 . S
H4034 C4026 0.930 . S
H4035 C4027 0.929 . S
H4036 C4044 0.929 . S
H4037 C4046 0.930 . S
H4038 C4048 0.930 . S
H4039 C4051 0.929 . S
H4040 C4054 0.930 . S
H4041 C4056 0.960 . S
H4042 C4056 0.960 . S
H4043 C4056 0.960 . S
C4044 H4036 0.929 . S
C4044 C4045 1.377 . S
C4044 C4046 1.384 1_554 S
C4045 C4044 1.377 . S
C4045 C4051 1.390 . S
C4046 H4037 0.930 . S
C4046 C4044 1.384 1_556 S
C4046 C4047 1.372 . S
C4047 C4046 1.372 . S
C4047 C4048 1.400 . S
C4047 C4052 1.490 . S
C4048 H4038 0.930 . S
C4048 C4047 1.400 . S
C4048 C4051 1.386 1_556 S
H4049 C4065 0.930 . S
H4050 C4066 0.931 . S
C4051 H4039 0.929 . S
C4051 C4045 1.390 . S
C4051 C4048 1.386 1_554 S
C4052 C4047 1.490 . S
C4052 C4054 1.395 . S
C4052 C4055 1.403 . S
H4053 C4059 0.930 . S
C4054 H4040 0.930 . S
C4054 C4052 1.395 . S
C4054 C4057 1.403 . S
C4055 C4052 1.403 . S
C4055 C4056 1.524 . S
C4055 C4059 1.400 . S
C4056 H4041 0.960 . S
C4056 H4042 0.960 . S
C4056 H4043 0.960 . S
C4056 C4055 1.524 . S
C4057 C4054 1.403 . S
C4057 C4058 1.392 . S
C4057 C4061 1.495 . S
C4058 C4057 1.392 . S
C4058 C4059 1.385 . S
C4058 C4060 1.478 . S
C4059 H4053 0.930 . S
C4059 C4055 1.400 . S
C4059 C4058 1.385 . S
C4060 C4058 1.478 . S
C4060 C4062 1.381 . S
C4060 C4066 1.383 . S
C4061 C4057 1.495 . S
C4061 H4067 0.959 . S
C4061 H4068 0.961 . S
C4061 H4069 0.960 . S
C4062 C4060 1.381 . S
C4062 C4063 1.394 . S
C4062 H4070 0.930 . S
C4063 C4062 1.394 . S
C4063 C4064 1.383 . S
C4063 H4071 0.929 . S
C4064 C4063 1.383 . S
C4064 C4065 1.377 . S
C4065 H4049 0.930 . S
C4065 C4064 1.377 . S
C4065 C4066 1.379 . S
C4066 H4050 0.931 . S
C4066 C4060 1.383 . S
C4066 C4065 1.379 . S
H4067 C4061 0.959 . S
H4068 C4061 0.961 . S
H4069 C4061 0.960 . S
H4070 C4062 0.930 . S
H4071 C4063 0.929 . S
H4072 C4080 0.929 . S
H4073 C4082 0.930 . S
H4074 C4084 0.930 . S
H4075 C4087 0.929 . S
H4076 C4090 0.930 . S
H4077 C4092 0.960 1_455 S
H4078 C4092 0.960 1_455 S
H4079 C4092 0.960 . S
C4080 H4072 0.929 . S
C4080 C4081 1.377 . S
C4080 C4082 1.384 . S
C4081 C4080 1.377 . S
C4081 C4087 1.390 . S
C4082 H4073 0.930 . S
C4082 C4080 1.384 . S
C4082 C4083 1.372 . S
C4083 C4082 1.372 . S
C4083 C4084 1.400 . S
C4083 C4088 1.490 . S
C4084 H4074 0.930 . S
C4084 C4083 1.400 . S
C4084 C4087 1.386 . S
H4085 C4101 0.930 . S
H4086 C4102 0.931 . S
C4087 H4075 0.929 . S
C4087 C4081 1.390 . S
C4087 C4084 1.386 . S
C4088 C4083 1.490 . S
C4088 C4090 1.395 . S
C4088 C4091 1.403 . S
H4089 C4095 0.930 . S
C4090 H4076 0.930 . S
C4090 C4088 1.395 . S
C4090 C4093 1.403 . S
C4091 C4088 1.403 . S
C4091 C4092 1.524 . S
C4091 C4095 1.400 . S
C4092 H4077 0.960 1_655 S
C4092 H4078 0.960 1_655 S
C4092 H4079 0.960 . S
C4092 C4091 1.524 . S
C4093 C4090 1.403 . S
C4093 C4094 1.392 . S
C4093 C4097 1.495 . S
C4094 C4093 1.392 . S
C4094 C4095 1.385 . S
C4094 C4096 1.478 . S
C4095 H4089 0.930 . S
C4095 C4091 1.400 . S
C4095 C4094 1.385 . S
C4096 C4094 1.478 . S
C4096 C4098 1.381 . S
C4096 C4102 1.383 . S
C4097 C4093 1.495 . S
C4097 H4103 0.959 . S
C4097 H4104 0.961 . S
C4097 H4105 0.960 . S
C4098 C4096 1.381 . S
C4098 C4099 1.394 1_655 S
C4098 H4106 0.930 . S
C4099 C4098 1.394 1_455 S
C4099 C4100 1.385 1_455 S
C4099 H4107 0.929 . S
C4100 C4099 1.385 1_655 S
C4100 C4101 1.371 . S
C4101 H4085 0.930 . S
C4101 C4100 1.371 . S
C4101 C4102 1.379 . S
C4102 H4086 0.931 . S
C4102 C4096 1.383 . S
C4102 C4101 1.379 . S
H4103 C4097 0.959 . S
H4104 C4097 0.961 . S
H4105 C4097 0.960 . S
H4106 C4098 0.930 . S
H4107 C4099 0.929 . S
H4108 C4116 0.929 . S
H4109 C4118 0.930 . S
H4110 C4120 0.930 . S
H4111 C4123 0.929 . S
H4112 C4126 0.930 . S
H4113 C4128 0.960 . S
H4114 C4128 0.960 . S
H4115 C4128 0.960 . S
C4116 H4108 0.929 . S
C4116 C4117 1.377 . S
C4116 C4118 1.384 . S
C4117 C4116 1.377 . S
C4117 C4123 1.390 . S
C4118 H4109 0.930 . S
C4118 C4116 1.384 . S
C4118 C4119 1.372 . S
C4119 C4118 1.372 . S
C4119 C4120 1.400 . S
C4119 C4124 1.490 . S
C4120 H4110 0.930 . S
C4120 C4119 1.400 . S
C4120 C4123 1.386 . S
H4121 C4137 0.930 . S
H4122 C4138 0.931 . S
C4123 H4111 0.929 . S
C4123 C4117 1.390 . S
C4123 C4120 1.386 . S
C4124 C4119 1.490 . S
C4124 C4126 1.395 . S
C4124 C4127 1.403 . S
H4125 C4131 0.930 . S
C4126 H4112 0.930 . S
C4126 C4124 1.395 . S
C4126 C4129 1.403 . S
C4127 C4124 1.403 . S
C4127 C4128 1.524 . S
C4127 C4131 1.400 . S
C4128 H4113 0.960 . S
C4128 H4114 0.960 . S
C4128 H4115 0.960 . S
C4128 C4127 1.524 . S
C4129 C4126 1.403 . S
C4129 C4130 1.392 . S
C4129 C4133 1.495 . S
C4130 C4129 1.392 . S
C4130 C4131 1.385 . S
C4130 C4132 1.478 . S
C4131 H4125 0.930 . S
C4131 C4127 1.400 . S
C4131 C4130 1.385 . S
C4132 C4130 1.478 . S
C4132 C4134 1.381 . S
C4132 C4138 1.383 . S
C4133 C4129 1.495 . S
C4133 H4139 0.959 . S
C4133 H4140 0.961 . S
C4133 H4141 0.960 . S
C4134 C4132 1.381 . S
C4134 C4135 1.394 . S
C4134 H4142 0.930 . S
C4135 C4134 1.394 . S
C4135 C4136 1.383 . S
C4135 H4143 0.929 . S
C4136 C4135 1.383 . S
C4136 C4137 1.377 . S
C4137 H4121 0.930 . S
C4137 C4136 1.377 . S
C4137 C4138 1.379 . S
C4138 H4122 0.931 . S
C4138 C4132 1.383 . S
C4138 C4137 1.379 . S
H4139 C4133 0.959 . S
H4140 C4133 0.961 . S
H4141 C4133 0.960 . S
H4142 C4134 0.930 . S
H4143 C4135 0.929 . S
H4144 C4152 0.929 . S
H4145 C4154 0.930 . S
H4146 C4156 0.930 . S
H4147 C4159 0.929 . S
H4148 C4162 0.930 . S
H4149 C4164 0.960 . S
H4150 C4164 0.960 . S
H4151 C4164 0.960 . S
C4152 H4144 0.929 . S
C4152 C4153 1.377 . S
C4152 C4154 1.384 . S
C4153 C4152 1.377 . S
C4153 C4159 1.390 . S
C4154 H4145 0.930 . S
C4154 C4152 1.384 . S
C4154 C4155 1.372 . S
C4155 C4154 1.372 . S
C4155 C4156 1.400 . S
C4155 C4160 1.490 . S
C4156 H4146 0.930 . S
C4156 C4155 1.400 . S
C4156 C4159 1.386 . S
H4157 C4173 0.930 . S
H4158 C4174 0.931 . S
C4159 H4147 0.929 . S
C4159 C4153 1.390 . S
C4159 C4156 1.386 . S
C4160 C4155 1.490 . S
C4160 C4162 1.395 . S
C4160 C4163 1.403 . S
H4161 C4167 0.930 . S
C4162 H4148 0.930 . S
C4162 C4160 1.395 . S
C4162 C4165 1.403 . S
C4163 C4160 1.403 . S
C4163 C4164 1.524 . S
C4163 C4167 1.400 . S
C4164 H4149 0.960 . S
C4164 H4150 0.960 . S
C4164 H4151 0.960 . S
C4164 C4163 1.524 . S
C4165 C4162 1.403 . S
C4165 C4166 1.392 . S
C4165 C4169 1.495 . S
C4166 C4165 1.392 . S
C4166 C4167 1.385 . S
C4166 C4168 1.478 . S
C4167 H4161 0.930 . S
C4167 C4163 1.400 . S
C4167 C4166 1.385 . S
C4168 C4166 1.478 . S
C4168 C4170 1.381 . S
C4168 C4174 1.383 . S
C4169 C4165 1.495 . S
C4169 H4175 0.959 . S
C4169 H4176 0.961 . S
C4169 H4177 0.960 . S
C4170 C4168 1.381 . S
C4170 C4171 1.394 . S
C4170 H4178 0.930 . S
C4171 C4170 1.394 . S
C4171 C4172 1.383 . S
C4171 H4179 0.929 . S
C4172 C4171 1.383 . S
C4172 C4173 1.377 . S
C4173 H4157 0.930 . S
C4173 C4172 1.377 . S
C4173 C4174 1.379 . S
C4174 H4158 0.931 . S
C4174 C4168 1.383 . S
C4174 C4173 1.379 . S
H4175 C4169 0.959 . S
H4176 C4169 0.961 . S
H4177 C4169 0.960 . S
H4178 C4170 0.930 . S
H4179 C4171 0.929 . S
H4180 C4188 0.929 . S
H4181 C4190 0.930 . S
H4182 C4192 0.930 . S
H4183 C4195 0.929 . S
H4184 C4198 0.930 . S
H4185 C4200 0.960 . S
H4186 C4200 0.960 . S
H4187 C4200 0.960 . S
C4188 H4180 0.929 . S
C4188 C4189 1.377 . S
C4188 C4190 1.384 . S
C4189 C4188 1.377 . S
C4189 C4195 1.390 1_565 S
C4190 H4181 0.930 . S
C4190 C4188 1.384 . S
C4190 C4191 1.372 1_565 S
C4191 C4190 1.372 1_545 S
C4191 C4192 1.400 . S
C4191 C4196 1.490 . S
C4192 H4182 0.930 . S
C4192 C4191 1.400 . S
C4192 C4195 1.386 . S
H4193 C4209 0.930 . S
H4194 C4210 0.931 . S
C4195 H4183 0.929 . S
C4195 C4189 1.390 1_545 S
C4195 C4192 1.386 . S
C4196 C4191 1.490 . S
C4196 C4198 1.395 . S
C4196 C4199 1.403 . S
H4197 C4203 0.930 . S
C4198 H4184 0.930 . S
C4198 C4196 1.395 . S
C4198 C4201 1.403 . S
C4199 C4196 1.403 . S
C4199 C4200 1.524 1_545 S
C4199 C4203 1.400 . S
C4200 H4185 0.960 . S
C4200 H4186 0.960 . S
C4200 H4187 0.960 . S
C4200 C4199 1.524 1_565 S
C4201 C4198 1.403 . S
C4201 C4202 1.392 . S
C4201 C4205 1.495 . S
C4202 C4201 1.392 . S
C4202 C4203 1.385 . S
C4202 C4204 1.478 . S
C4203 H4197 0.930 . S
C4203 C4199 1.400 . S
C4203 C4202 1.385 . S
C4204 C4202 1.478 . S
C4204 C4206 1.381 . S
C4204 C4210 1.383 . S
C4205 C4201 1.495 . S
C4205 H4211 0.959 . S
C4205 H4212 0.961 . S
C4205 H4213 0.960 . S
C4206 C4204 1.381 . S
C4206 C4207 1.394 . S
C4206 H4214 0.930 . S
C4207 C4206 1.394 . S
C4207 C4208 1.383 . S
C4207 H4215 0.929 . S
C4208 C4207 1.383 . S
C4208 C4209 1.377 . S
C4209 H4193 0.930 . S
C4209 C4208 1.377 . S
C4209 C4210 1.379 . S
C4210 H4194 0.931 . S
C4210 C4204 1.383 . S
C4210 C4209 1.379 . S
H4211 C4205 0.959 . S
H4212 C4205 0.961 . S
H4213 C4205 0.960 . S
H4214 C4206 0.930 . S
H4215 C4207 0.929 . S
H4216 C4224 0.929 . S
H4217 C4226 0.930 . S
H4218 C4228 0.930 . S
H4219 C4231 0.929 . S
H4220 C4234 0.930 . S
H4221 C4236 0.960 . S
H4222 C4236 0.960 . S
H4223 C4236 0.960 . S
C4224 H4216 0.929 . S
C4224 C4225 1.377 . S
C4224 C4226 1.384 . S
C4225 C4224 1.377 . S
C4225 C4231 1.390 . S
C4226 H4217 0.930 . S
C4226 C4224 1.384 . S
C4226 C4227 1.372 . S
C4227 C4226 1.372 . S
C4227 C4228 1.400 . S
C4227 C4232 1.490 . S
C4228 H4218 0.930 . S
C4228 C4227 1.400 . S
C4228 C4231 1.386 . S
H4229 C4245 0.930 . S
H4230 C4246 0.931 . S
C4231 H4219 0.929 . S
C4231 C4225 1.390 . S
C4231 C4228 1.386 . S
C4232 C4227 1.490 . S
C4232 C4234 1.395 . S
C4232 C4235 1.403 . S
H4233 C4239 0.930 . S
C4234 H4220 0.930 . S
C4234 C4232 1.395 . S
C4234 C4237 1.403 . S
C4235 C4232 1.403 . S
C4235 C4236 1.524 . S
C4235 C4239 1.400 . S
C4236 H4221 0.960 . S
C4236 H4222 0.960 . S
C4236 H4223 0.960 . S
C4236 C4235 1.524 . S
C4237 C4234 1.403 . S
C4237 C4238 1.392 . S
C4237 C4241 1.495 . S
C4238 C4237 1.392 . S
C4238 C4239 1.385 . S
C4238 C4240 1.478 . S
C4239 H4233 0.930 . S
C4239 C4235 1.400 . S
C4239 C4238 1.385 . S
C4240 C4238 1.478 . S
C4240 C4242 1.381 . S
C4240 C4246 1.383 . S
C4241 C4237 1.495 . S
C4241 H4247 0.959 . S
C4241 H4248 0.961 . S
C4241 H4249 0.960 . S
C4242 C4240 1.381 . S
C4242 C4243 1.394 . S
C4242 H4250 0.930 . S
C4243 C4242 1.394 . S
C4243 C4244 1.383 . S
C4243 H4251 0.929 . S
C4244 C4243 1.383 . S
C4244 C4245 1.377 . S
C4245 H4229 0.930 . S
C4245 C4244 1.377 . S
C4245 C4246 1.379 . S
C4246 H4230 0.931 . S
C4246 C4240 1.383 . S
C4246 C4245 1.379 . S
H4247 C4241 0.959 . S
H4248 C4241 0.961 . S
H4249 C4241 0.960 . S
H4250 C4242 0.930 . S
H4251 C4243 0.929 . S
H4252 C4260 0.929 . S
H4253 C4262 0.930 . S
H4254 C4264 0.930 . S
H4255 C4267 0.929 . S
H4256 C4270 0.930 . S
H4257 C4272 0.960 . S
H4258 C4272 0.960 . S
H4259 C4272 0.960 . S
C4260 H4252 0.929 . S
C4260 C4261 1.377 . S
C4260 C4262 1.384 . S
C4261 C4260 1.377 . S
C4261 C4267 1.390 . S
C4262 H4253 0.930 . S
C4262 C4260 1.384 . S
C4262 C4263 1.372 . S
C4263 C4262 1.372 . S
C4263 C4264 1.400 . S
C4263 C4268 1.490 . S
C4264 H4254 0.930 . S
C4264 C4263 1.400 . S
C4264 C4267 1.386 . S
H4265 C4281 0.930 . S
H4266 C4282 0.931 . S
C4267 H4255 0.929 . S
C4267 C4261 1.390 . S
C4267 C4264 1.386 . S
C4268 C4263 1.490 . S
C4268 C4270 1.395 . S
C4268 C4271 1.403 . S
H4269 C4275 0.930 . S
C4270 H4256 0.930 . S
C4270 C4268 1.395 . S
C4270 C4273 1.403 . S
C4271 C4268 1.403 . S
C4271 C4272 1.524 . S
C4271 C4275 1.400 . S
C4272 H4257 0.960 . S
C4272 H4258 0.960 . S
C4272 H4259 0.960 . S
C4272 C4271 1.524 . S
C4273 C4270 1.403 . S
C4273 C4274 1.392 . S
C4273 C4277 1.495 . S
C4274 C4273 1.392 . S
C4274 C4275 1.385 . S
C4274 C4276 1.478 . S
C4275 H4269 0.930 . S
C4275 C4271 1.400 . S
C4275 C4274 1.385 . S
C4276 C4274 1.478 . S
C4276 C4278 1.381 . S
C4276 C4282 1.383 . S
C4277 C4273 1.495 . S
C4277 H4283 0.959 . S
C4277 H4284 0.961 . S
C4277 H4285 0.960 . S
C4278 C4276 1.381 . S
C4278 C4279 1.394 . S
C4278 H4286 0.930 . S
C4279 C4278 1.394 . S
C4279 C4280 1.383 . S
C4279 H4287 0.929 . S
C4280 C4279 1.383 . S
C4280 C4281 1.377 . S
C4281 H4265 0.930 . S
C4281 C4280 1.377 . S
C4281 C4282 1.379 . S
C4282 H4266 0.931 . S
C4282 C4276 1.383 . S
C4282 C4281 1.379 . S
H4283 C4277 0.959 . S
H4284 C4277 0.961 . S
H4285 C4277 0.960 . S
H4286 C4278 0.930 . S
H4287 C4279 0.929 . S
H4288 C4296 0.929 . S
H4289 C4298 0.930 . S
H4290 C4300 0.930 . S
H4291 C4303 0.929 . S
H4292 C4306 0.930 . S
H4293 C4308 0.960 . S
H4294 C4308 0.960 . S
H4295 C4308 0.960 . S
C4296 H4288 0.929 . S
C4296 C4297 1.377 . S
C4296 C4298 1.384 . S
C4297 C4296 1.377 . S
C4297 C4303 1.390 . S
C4298 H4289 0.930 . S
C4298 C4296 1.384 . S
C4298 C4299 1.372 . S
C4299 C4298 1.372 . S
C4299 C4300 1.400 . S
C4299 C4304 1.490 . S
C4300 H4290 0.930 . S
C4300 C4299 1.400 . S
C4300 C4303 1.386 . S
H4301 C4317 0.930 . S
H4302 C4318 0.931 . S
C4303 H4291 0.929 . S
C4303 C4297 1.390 . S
C4303 C4300 1.386 . S
C4304 C4299 1.490 . S
C4304 C4306 1.395 . S
C4304 C4307 1.403 . S
H4305 C4311 0.930 . S
C4306 H4292 0.930 . S
C4306 C4304 1.395 . S
C4306 C4309 1.403 . S
C4307 C4304 1.403 . S
C4307 C4308 1.524 . S
C4307 C4311 1.400 . S
C4308 H4293 0.960 . S
C4308 H4294 0.960 . S
C4308 H4295 0.960 . S
C4308 C4307 1.524 . S
C4309 C4306 1.403 . S
C4309 C4310 1.392 . S
C4309 C4313 1.495 . S
C4310 C4309 1.392 . S
C4310 C4311 1.385 . S
C4310 C4312 1.478 . S
C4311 H4305 0.930 . S
C4311 C4307 1.400 . S
C4311 C4310 1.385 . S
C4312 C4310 1.478 . S
C4312 C4314 1.381 . S
C4312 C4318 1.383 . S
C4313 C4309 1.495 . S
C4313 H4319 0.959 . S
C4313 H4320 0.961 . S
C4313 H4321 0.960 . S
C4314 C4312 1.381 . S
C4314 C4315 1.394 . S
C4314 H4322 0.930 . S
C4315 C4314 1.394 . S
C4315 C4316 1.383 . S
C4315 H4323 0.929 . S
C4316 C4315 1.383 . S
C4316 C4317 1.377 . S
C4317 H4301 0.930 . S
C4317 C4316 1.377 . S
C4317 C4318 1.379 . S
C4318 H4302 0.931 . S
C4318 C4312 1.383 . S
C4318 C4317 1.379 . S
H4319 C4313 0.959 . S
H4320 C4313 0.961 . S
H4321 C4313 0.960 . S
H4322 C4314 0.930 . S
H4323 C4315 0.929 . S
H4324 C4332 0.929 . S
H4325 C4334 0.930 . S
H4326 C4336 0.930 . S
H4327 C4339 0.929 . S
H4328 C4342 0.930 . S
H4329 C4344 0.960 . S
H4330 C4344 0.960 . S
H4331 C4344 0.960 . S
C4332 H4324 0.929 . S
C4332 C4333 1.377 . S
C4332 C4334 1.384 . S
C4333 C4332 1.377 . S
C4333 C4339 1.390 . S
C4334 H4325 0.930 . S
C4334 C4332 1.384 . S
C4334 C4335 1.372 . S
C4335 C4334 1.372 . S
C4335 C4336 1.400 . S
C4335 C4340 1.490 . S
C4336 H4326 0.930 . S
C4336 C4335 1.400 . S
C4336 C4339 1.386 . S
H4337 C4353 0.969 . S
H4338 C4354 0.931 . S
C4339 H4327 0.929 . S
C4339 C4333 1.390 . S
C4339 C4336 1.386 . S
C4340 C4335 1.490 . S
C4340 C4342 1.395 . S
C4340 C4343 1.403 . S
H4341 C4347 0.930 . S
C4342 H4328 0.930 . S
C4342 C4340 1.395 . S
C4342 C4345 1.403 . S
C4343 C4340 1.403 . S
C4343 C4344 1.524 . S
C4343 C4347 1.400 . S
C4344 H4329 0.960 . S
C4344 H4330 0.960 . S
C4344 H4331 0.960 . S
C4344 C4343 1.524 . S
C4345 C4342 1.403 . S
C4345 C4346 1.392 . S
C4345 C4349 1.495 . S
C4346 C4345 1.392 . S
C4346 C4347 1.385 . S
C4346 C4348 1.478 . S
C4347 H4341 0.930 . S
C4347 C4343 1.400 . S
C4347 C4346 1.385 . S
C4348 C4346 1.478 . S
C4348 C4350 1.381 . S
C4348 C4354 1.383 . S
C4349 C4345 1.495 . S
C4349 H4355 0.959 . S
C4349 H4356 0.961 . S
C4349 H4357 0.960 . S
C4350 C4348 1.381 . S
C4350 C4351 1.394 . S
C4350 H4358 0.930 . S
C4351 C4350 1.394 . S
C4351 C4352 1.383 . S
C4351 H4359 0.929 . S
C4352 C4351 1.383 . S
C4352 C4353 1.377 . S
C4353 H4337 0.969 . S
C4353 C4352 1.377 . S
C4353 C4354 1.379 . S
C4354 H4338 0.931 . S
C4354 C4348 1.383 . S
C4354 C4353 1.379 . S
H4355 C4349 0.959 . S
H4356 C4349 0.961 . S
H4357 C4349 0.960 . S
H4358 C4350 0.930 . S
H4359 C4351 0.929 . S
H4360 C4368 0.929 . S
H4361 C4370 0.930 . S
H4362 C4372 0.930 . S
H4363 C4375 0.929 . S
H4364 C4378 0.930 . S
H4365 C4380 0.960 . S
H4366 C4380 0.960 . S
H4367 C4380 0.960 . S
C4368 H4360 0.929 . S
C4368 C4369 1.377 . S
C4368 C4370 1.384 1_545 S
C4369 C4368 1.377 . S
C4369 C4375 1.390 . S
C4370 H4361 0.930 . S
C4370 C4368 1.384 1_565 S
C4370 C4371 1.372 . S
C4371 C4370 1.372 . S
C4371 C4372 1.400 . S
C4371 C4376 1.490 . S
C4372 H4362 0.930 . S
C4372 C4371 1.400 . S
C4372 C4375 1.386 1_565 S
H4373 C4389 0.930 . S
H4374 C4390 0.931 . S
C4375 H4363 0.929 . S
C4375 C4369 1.390 . S
C4375 C4372 1.386 1_545 S
C4376 C4371 1.490 . S
C4376 C4378 1.395 . S
C4376 C4379 1.403 . S
H4377 C4383 0.930 . S
C4378 H4364 0.930 . S
C4378 C4376 1.395 . S
C4378 C4381 1.403 . S
C4379 C4376 1.403 . S
C4379 C4380 1.524 . S
C4379 C4383 1.400 . S
C4380 H4365 0.960 . S
C4380 H4366 0.960 . S
C4380 H4367 0.960 . S
C4380 C4379 1.524 . S
C4381 C4378 1.403 . S
C4381 C4382 1.392 . S
C4381 C4385 1.495 . S
C4382 C4381 1.392 . S
C4382 C4383 1.385 . S
C4382 C4384 1.478 . S
C4383 H4377 0.930 . S
C4383 C4379 1.400 . S
C4383 C4382 1.385 . S
C4384 C4382 1.478 . S
C4384 C4386 1.381 . S
C4384 C4390 1.383 . S
C4385 C4381 1.495 . S
C4385 H4391 0.959 . S
C4385 H4392 0.961 . S
C4385 H4393 0.960 . S
C4386 C4384 1.381 . S
C4386 C4387 1.394 . S
C4386 H4394 0.930 . S
C4387 C4386 1.394 . S
C4387 C4388 1.383 . S
C4387 H4395 0.929 . S
C4388 C4387 1.383 . S
C4388 C4389 1.377 . S
C4389 H4373 0.930 . S
C4389 C4388 1.377 . S
C4389 C4390 1.379 . S
C4390 H4374 0.931 . S
C4390 C4384 1.383 . S
C4390 C4389 1.379 . S
H4391 C4385 0.959 . S
H4392 C4385 0.961 . S
H4393 C4385 0.960 . S
H4394 C4386 0.930 . S
H4395 C4387 0.929 . S
H4396 C4404 0.929 . S
H4397 C4406 0.930 . S
H4398 C4408 0.930 . S
H4399 C4411 0.929 . S
H4400 C4414 0.930 . S
H4401 C4416 0.960 . S
H4402 C4416 0.960 . S
H4403 C4416 0.960 . S
C4404 H4396 0.929 . S
C4404 C4405 1.377 . S
C4404 C4406 1.384 . S
C4405 C4404 1.377 . S
C4405 C4411 1.390 . S
C4406 H4397 0.930 . S
C4406 C4404 1.384 . S
C4406 C4407 1.372 . S
C4407 C4406 1.372 . S
C4407 C4408 1.400 . S
C4407 C4412 1.490 . S
C4408 H4398 0.930 . S
C4408 C4407 1.400 . S
C4408 C4411 1.386 . S
H4409 C4425 0.930 . S
H4410 C4426 0.931 . S
C4411 H4399 0.929 . S
C4411 C4405 1.390 . S
C4411 C4408 1.386 . S
C4412 C4407 1.490 . S
C4412 C4414 1.395 . S
C4412 C4415 1.403 . S
H4413 C4419 0.930 . S
C4414 H4400 0.930 . S
C4414 C4412 1.395 . S
C4414 C4417 1.403 . S
C4415 C4412 1.403 . S
C4415 C4416 1.524 . S
C4415 C4419 1.400 . S
C4416 H4401 0.960 . S
C4416 H4402 0.960 . S
C4416 H4403 0.960 . S
C4416 C4415 1.524 . S
C4417 C4414 1.403 . S
C4417 C4418 1.392 . S
C4417 C4421 1.495 . S
C4418 C4417 1.392 . S
C4418 C4419 1.385 . S
C4418 C4420 1.478 . S
C4419 H4413 0.930 . S
C4419 C4415 1.400 . S
C4419 C4418 1.385 . S
C4420 C4418 1.478 . S
C4420 C4422 1.381 . S
C4420 C4426 1.383 . S
C4421 C4417 1.495 . S
C4421 H4427 0.959 . S
C4421 H4428 0.961 . S
C4421 H4429 0.960 . S
C4422 C4420 1.381 . S
C4422 C4423 1.394 . S
C4422 H4430 0.930 . S
C4423 C4422 1.394 . S
C4423 C4424 1.383 . S
C4423 H4431 0.929 . S
C4424 C4423 1.383 . S
C4424 C4425 1.377 . S
C4425 H4409 0.930 . S
C4425 C4424 1.377 . S
C4425 C4426 1.379 . S
C4426 H4410 0.931 . S
C4426 C4420 1.383 . S
C4426 C4425 1.379 . S
H4427 C4421 0.959 . S
H4428 C4421 0.961 . S
H4429 C4421 0.960 . S
H4430 C4422 0.930 . S
H4431 C4423 0.929 . S
C985 C109 1.012 . S
C1004 C342 0.967 . S
C1021 C61 1.648 . S
C1040 C394 1.744 . S
C1057 C74 1.174 . S
C1076 C426 1.233 . S
C1112 C475 2.576 . S
C1093 C96 2.565 . S
C1129 C25 0.726 . S
C1148 C511 0.675 . S
C1184 C542 0.308 . S
C1165 C40 0.147 . S
C1220 C594 0.490 . S
C1201 C46 0.154 . S
C1237 C5 0.736 . S
C1256 C622 0.832 . S
C1292 C354 1.612 1_655 S
C1273 C229 1.498 . S
C1309 C249 1.444 . S
C1328 C395 1.437 . S
C1364 C425 1.742 . S
C1345 C271 1.769 1_545 S
C1400 C462 0.363 . S
C1381 C172 0.338 . S
C1417 C236 1.742 . S
C1436 C506 1.750 1_655 S
C1472 C554 2.099 . S
C1453 C242 2.203 . S
C1508 C595 1.318 . S
C1489 C278 1.327 . S
C1544 C634 1.480 . S
C1525 C179 1.553 . S
C1580 C355 2.211 . S
C1561 C159 1.866 . S
C1597 C285 1.575 . S
C1616 C665 1.588 . S
C1652 C715 2.281 . S
C1633 C333 2.282 . S
C1688 C742 0.868 . S
C1669 C320 0.868 . S
C1705 C123 2.270 . S
C1724 C635 2.270 . S
C1741 C138 0.931 . S
C1760 C431 0.945 . S
C1777 C326 2.577 . S
C1796 C794 2.451 . S
C1832 C822 0.984 . S
C1813 C298 0.928 . S
C1868 C351 1.026 . S
C1849 C67 1.055 . S
C1904 C825 1.707 . S
C1885 C110 1.828 . S
C1921 C88 1.219 . S
C1940 C435 1.230 . S
C1957 C75 2.148 . S
C1976 C786 2.487 . S
C2012 C502 0.697 . S
C1993 C11 0.743 . S
C2029 C47 0.961 . S
C2048 C711 0.421 . S
C2084 C585 0.442 . S
C2065 C32 0.491 . S
C2120 C871 0.921 . S
C2101 C26 1.004 . S
C2156 C345 1.788 1_556 S
C2137 C152 1.919 . S
C2192 C826 1.455 . S
C2173 C319 1.416 . S
C2209 C124 1.868 . S
C2228 C434 1.780 . S
C2245 C284 0.367 . S
C2264 C791 0.434 . S
C2281 C145 1.603 . S
C2300 C515 1.769 . S
C2336 C705 2.037 . S
C2317 C312 1.998 . S
C2353 C117 1.072 . S
C2372 C586 1.181 . S
C2389 C291 1.558 . S
C2408 C865 1.480 . S
C2425 C194 2.223 . S
C2444 C346 2.212 . S
C2461 C180 1.504 . S
C2480 C674 1.430 . S
C2497 C263 2.108 . S
C2516 C546 2.128 . S
C2533 C243 0.752 . S
C2552 C751 0.791 . S
C2588 C866 2.335 . S
C2569 C277 2.324 . S
C2605 C215 0.835 . S
C2624 C422 0.889 . S
C2660 C465 2.390 . S
C2641 C256 2.404 . S
C2696 C391 1.016 . S
C2677 C200 1.022 . S
C2713 C81 1.013 . S
C2732 C902 0.961 . S
C2768 C834 1.709 . S
C2749 C89 1.639 . S
C2785 C102 1.168 . S
C2804 C946 1.229 . S
C2821 C68 2.565 . S
C2840 C795 2.577 . S
C2857 C53 0.715 . S
C2876 C671 0.711 . S
C2912 C702 0.390 . S
C2893 C12 0.160 . S
C2948 C754 0.333 . S
C2929 C18 0.168 . S
C2984 C862 0.742 . S
C2965 C33 0.742 . S
C3020 C914 1.672 . S
C3001 C257 1.503 . S
C3037 C193 1.444 1_556 S
C3056 C835 1.428 . S
C3092 C945 1.725 . S
C3073 C201 1.778 . S
C3128 C782 0.250 . S
C3109 C214 0.368 . S
C3164 C666 1.740 1_556 S
C3145 C264 1.741 . S
C3181 C186 2.203 . S
C3200 C714 2.099 . S
C3236 C755 1.317 . S
C3217 C208 1.327 . S
C3253 C221 1.552 . S
C3272 C874 1.440 . S
C3308 C915 2.206 . S
C3289 C313 1.866 . S
C3325 C131 1.549 . S
C3344 C505 1.532 . S
C3380 C555 2.280 . S
C3361 C151 2.238 1_565 S
C3416 C582 0.889 . S
C3397 C166 0.867 . S
C3452 C875 2.276 . S
C3433 C305 2.271 . S
C3469 C292 0.928 . S
C3488 C951 0.918 . S
C3524 C474 2.481 . S
C3505 C144 2.577 . S
C3560 C382 0.964 . S
C3541 C116 0.927 . S
C3577 C95 1.062 . S
C3596 C911 1.065 . S
C3632 C385 1.696 . S
C3613 C82 1.830 . S
C3649 C60 1.212 . S
C3668 C955 1.211 . S
C3685 C103 2.144 . S
C3704 C466 2.487 . S
C3721 C39 0.748 . S
C3740 C662 0.706 . S
C3776 C551 0.391 . S
C3757 C19 0.953 . S
C3793 C4 0.479 . S
C3812 C745 0.487 . S
C3829 C54 1.002 . S
C3848 C631 0.920 . S
C3884 C905 1.792 . S
C3865 C334 1.919 . S
C3901 C165 1.413 . S
C3920 C386 1.455 . S
C3956 C954 1.758 1_556 S
C3937 C306 1.870 . S
C3973 C130 0.345 . S
C3992 C471 0.411 . S
C4009 C327 1.594 . S
C4028 C675 1.767 . S
C4064 C545 2.057 . S
C4045 C158 1.993 . S
C4081 C299 1.070 . S
C4100 C746 1.187 1_655 S
C4136 C625 1.467 . S
C4117 C137 1.560 . S
C4172 C906 2.213 . S
C4153 C250 2.223 . S
C4208 C514 1.466 . S
C4189 C222 1.497 . S
C4225 C235 2.108 . S
C4244 C706 2.136 . S
C4280 C591 0.760 . S
C4261 C187 0.779 . S
C4297 C207 2.324 . S
C4316 C626 2.336 . S
C4333 C173 0.842 . S
C4352 C942 0.837 . S
C4388 C785 2.393 . S
C4369 C228 2.404 . S
C4424 C831 0.980 . S
C4405 C270 1.030 . S
