# Generated by pormake.
# Topology gar, (4,6)-cn, num edge types: 1
# Building blocks:
#     Node 0, Type 0, BuildingBlock: QUQFOY_clean_sbu_1, # of connection points: 4
#     Node 1, Type 0, BuildingBlock: QUQFOY_clean_sbu_1, # of connection points: 4
#     Node 2, Type 0, BuildingBlock: QUQFOY_clean_sbu_1, # of connection points: 4
#     Node 3, Type 0, BuildingBlock: QUQFOY_clean_sbu_1, # of connection points: 4
#     Node 4, Type 0, BuildingBlock: QUQFOY_clean_sbu_1, # of connection points: 4
#     Node 5, Type 0, BuildingBlock: QUQFOY_clean_sbu_1, # of connection points: 4
#     Node 6, Type 0, BuildingBlock: QUQFOY_clean_sbu_1, # of connection points: 4
#     Node 7, Type 0, BuildingBlock: QUQFOY_clean_sbu_1, # of connection points: 4
#     Node 8, Type 0, BuildingBlock: QUQFOY_clean_sbu_1, # of connection points: 4
#     Node 9, Type 0, BuildingBlock: QUQFOY_clean_sbu_1, # of connection points: 4
#     Node 10, Type 0, BuildingBlock: QUQFOY_clean_sbu_1, # of connection points: 4
#     Node 11, Type 0, BuildingBlock: QUQFOY_clean_sbu_1, # of connection points: 4
#     Node 12, Type 0, BuildingBlock: QUQFOY_clean_sbu_1, # of connection points: 4
#     Node 13, Type 0, BuildingBlock: QUQFOY_clean_sbu_1, # of connection points: 4
#     Node 14, Type 0, BuildingBlock: QUQFOY_clean_sbu_1, # of connection points: 4
#     Node 15, Type 0, BuildingBlock: QUQFOY_clean_sbu_1, # of connection points: 4
#     Node 16, Type 0, BuildingBlock: QUQFOY_clean_sbu_1, # of connection points: 4
#     Node 17, Type 0, BuildingBlock: QUQFOY_clean_sbu_1, # of connection points: 4
#     Node 18, Type 0, BuildingBlock: QUQFOY_clean_sbu_1, # of connection points: 4
#     Node 19, Type 0, BuildingBlock: QUQFOY_clean_sbu_1, # of connection points: 4
#     Node 20, Type 0, BuildingBlock: QUQFOY_clean_sbu_1, # of connection points: 4
#     Node 21, Type 0, BuildingBlock: QUQFOY_clean_sbu_1, # of connection points: 4
#     Node 22, Type 0, BuildingBlock: QUQFOY_clean_sbu_1, # of connection points: 4
#     Node 23, Type 0, BuildingBlock: QUQFOY_clean_sbu_1, # of connection points: 4
#     Node 24, Type 1, BuildingBlock: PAMTUU_clean_sbu_0, # of connection points: 6
#     Node 25, Type 1, BuildingBlock: PAMTUU_clean_sbu_0, # of connection points: 6
#     Node 26, Type 1, BuildingBlock: PAMTUU_clean_sbu_0, # of connection points: 6
#     Node 27, Type 1, BuildingBlock: PAMTUU_clean_sbu_0, # of connection points: 6
#     Node 28, Type 1, BuildingBlock: PAMTUU_clean_sbu_0, # of connection points: 6
#     Node 29, Type 1, BuildingBlock: PAMTUU_clean_sbu_0, # of connection points: 6
#     Node 30, Type 1, BuildingBlock: PAMTUU_clean_sbu_0, # of connection points: 6
#     Node 31, Type 1, BuildingBlock: PAMTUU_clean_sbu_0, # of connection points: 6
#     Node 32, Type 1, BuildingBlock: PAMTUU_clean_sbu_0, # of connection points: 6
#     Node 33, Type 1, BuildingBlock: PAMTUU_clean_sbu_0, # of connection points: 6
#     Node 34, Type 1, BuildingBlock: PAMTUU_clean_sbu_0, # of connection points: 6
#     Node 35, Type 1, BuildingBlock: PAMTUU_clean_sbu_0, # of connection points: 6
#     Node 36, Type 1, BuildingBlock: PAMTUU_clean_sbu_0, # of connection points: 6
#     Node 37, Type 1, BuildingBlock: PAMTUU_clean_sbu_0, # of connection points: 6
#     Node 38, Type 1, BuildingBlock: PAMTUU_clean_sbu_0, # of connection points: 6
#     Node 39, Type 1, BuildingBlock: PAMTUU_clean_sbu_0, # of connection points: 6
#     Edge 40, Type (0, 1), None
#     Edge 41, Type (0, 1), None
#     Edge 42, Type (0, 1), None
#     Edge 43, Type (0, 1), None
#     Edge 44, Type (0, 1), None
#     Edge 45, Type (0, 1), None
#     Edge 46, Type (0, 1), None
#     Edge 47, Type (0, 1), None
#     Edge 48, Type (0, 1), None
#     Edge 49, Type (0, 1), None
#     Edge 50, Type (0, 1), None
#     Edge 51, Type (0, 1), None
#     Edge 52, Type (0, 1), None
#     Edge 53, Type (0, 1), None
#     Edge 54, Type (0, 1), None
#     Edge 55, Type (0, 1), None
#     Edge 56, Type (0, 1), None
#     Edge 57, Type (0, 1), None
#     Edge 58, Type (0, 1), None
#     Edge 59, Type (0, 1), None
#     Edge 60, Type (0, 1), None
#     Edge 61, Type (0, 1), None
#     Edge 62, Type (0, 1), None
#     Edge 63, Type (0, 1), None
#     Edge 64, Type (0, 1), None
#     Edge 65, Type (0, 1), None
#     Edge 66, Type (0, 1), None
#     Edge 67, Type (0, 1), None
#     Edge 68, Type (0, 1), None
#     Edge 69, Type (0, 1), None
#     Edge 70, Type (0, 1), None
#     Edge 71, Type (0, 1), None
#     Edge 72, Type (0, 1), None
#     Edge 73, Type (0, 1), None
#     Edge 74, Type (0, 1), None
#     Edge 75, Type (0, 1), None
#     Edge 76, Type (0, 1), None
#     Edge 77, Type (0, 1), None
#     Edge 78, Type (0, 1), None
#     Edge 79, Type (0, 1), None
#     Edge 80, Type (0, 1), None
#     Edge 81, Type (0, 1), None
#     Edge 82, Type (0, 1), None
#     Edge 83, Type (0, 1), None
#     Edge 84, Type (0, 1), None
#     Edge 85, Type (0, 1), None
#     Edge 86, Type (0, 1), None
#     Edge 87, Type (0, 1), None
#     Edge 88, Type (0, 1), None
#     Edge 89, Type (0, 1), None
#     Edge 90, Type (0, 1), None
#     Edge 91, Type (0, 1), None
#     Edge 92, Type (0, 1), None
#     Edge 93, Type (0, 1), None
#     Edge 94, Type (0, 1), None
#     Edge 95, Type (0, 1), None
#     Edge 96, Type (0, 1), None
#     Edge 97, Type (0, 1), None
#     Edge 98, Type (0, 1), None
#     Edge 99, Type (0, 1), None
#     Edge 100, Type (0, 1), None
#     Edge 101, Type (0, 1), None
#     Edge 102, Type (0, 1), None
#     Edge 103, Type (0, 1), None
#     Edge 104, Type (0, 1), None
#     Edge 105, Type (0, 1), None
#     Edge 106, Type (0, 1), None
#     Edge 107, Type (0, 1), None
#     Edge 108, Type (0, 1), None
#     Edge 109, Type (0, 1), None
#     Edge 110, Type (0, 1), None
#     Edge 111, Type (0, 1), None
#     Edge 112, Type (0, 1), None
#     Edge 113, Type (0, 1), None
#     Edge 114, Type (0, 1), None
#     Edge 115, Type (0, 1), None
#     Edge 116, Type (0, 1), None
#     Edge 117, Type (0, 1), None
#     Edge 118, Type (0, 1), None
#     Edge 119, Type (0, 1), None
#     Edge 120, Type (0, 1), None
#     Edge 121, Type (0, 1), None
#     Edge 122, Type (0, 1), None
#     Edge 123, Type (0, 1), None
#     Edge 124, Type (0, 1), None
#     Edge 125, Type (0, 1), None
#     Edge 126, Type (0, 1), None
#     Edge 127, Type (0, 1), None
#     Edge 128, Type (0, 1), None
#     Edge 129, Type (0, 1), None
#     Edge 130, Type (0, 1), None
#     Edge 131, Type (0, 1), None
#     Edge 132, Type (0, 1), None
#     Edge 133, Type (0, 1), None
#     Edge 134, Type (0, 1), None
#     Edge 135, Type (0, 1), None
# Relax obj value: 0.407
# Max RMSD: 0.474
# Mean RMSD: 0.219
data_MOF--net-gar--node1-QUQFOY_clean_sbu_1--node2-PAMTUU_clean_sbu_0--edge1-none
_symmetry_space_group_name_H-M    P1
_symmetry_Int_Tables_number       1
_symmetry_cell_setting            triclinic
loop_
_symmetry_equiv_pos_as_xyz
'x, y, z'
_cell_length_a     30.0186
_cell_length_b     26.918335
_cell_length_c     29.805391
_cell_angle_alpha  94.465876
_cell_angle_beta   96.214239
_cell_angle_gamma 112.59922
loop_
_atom_site_label
_atom_site_type_symbol
_atom_site_fract_x
_atom_site_fract_y
_atom_site_fract_z
_atom_type_partial_charge
O0 O 0.17369 0.30318 0.48469 0.0
Cd1 Cd 0.18817 0.35639 0.42751 0.0
Cd2 Cd 0.13121 0.41372 0.52673 0.0
O3 O 0.14599 0.33665 0.54312 0.0
O4 O 0.23406 0.32907 0.38224 0.0
O5 O 0.26945 0.40537 0.42209 0.0
C6 C 0.27589 0.3701 0.39393 0.0
C7 C 0.13871 0.50458 0.5738 0.0
C8 C 0.1586 0.29859 0.5244 0.0
C9 C 1.07502 0.38005 0.42057 0.0
O10 O 1.08076 0.39475 0.46381 0.0
O11 O 0.11036 0.3687 0.40318 0.0
O12 O 0.10576 0.45713 0.5767 0.0
O13 O 0.16961 0.50145 0.54767 0.0
O14 O 0.11775 0.81791 0.73638 0.0
Cd15 Cd 0.12507 0.87971 0.79706 0.0
Cd16 Cd 0.19408 0.94909 0.71443 0.0
O17 O 0.16033 0.86276 0.6837 0.0
O18 O 1.05825 0.85179 0.83695 0.0
O19 O 1.07401 0.92518 0.81004 0.0
C20 C 1.04369 0.89136 0.83269 0.0
C21 C 0.18885 1.03131 0.6736 0.0
C22 C 0.13605 0.81721 0.69832 0.0
C23 C 0.25423 0.92105 0.8027 0.0
O24 O 0.25319 0.94612 0.76687 0.0
O25 O 0.21237 0.89918 0.81988 0.0
O26 O 0.21322 1.0031 0.66157 0.0
O27 O 0.16776 1.0148 0.70851 0.0
O28 O 0.75686 0.89308 0.97298 0.0
Cd29 Cd 0.70476 0.87562 1.02769 0.0
Cd30 Cd 0.64942 0.9351 0.93435 0.0
O31 O 0.72457 0.92328 0.91438 0.0
O32 O 0.72408 0.83007 0.07969 0.0
O33 O 0.66285 0.78703 1.02815 0.0
C34 C 0.69011 0.78316 0.06334 0.0
C35 C 0.55894 0.92398 0.89708 0.0
C36 C 0.76074 0.90956 0.93263 0.0
C37 C 0.67118 0.98683 0.04321 0.0
O38 O 0.66176 0.98549 0.99967 0.0
O39 O 0.6846 0.94886 0.05851 0.0
O40 O 0.59947 0.96213 0.89071 0.0
O41 O 0.56826 0.88867 0.91944 0.0
O42 O 0.64196 0.28329 0.23189 0.0
Cd43 Cd 0.65035 0.34581 0.29169 0.0
Cd44 Cd 0.72075 0.41666 0.21849 0.0
O45 O 0.68974 0.33161 0.1844 0.0
O46 O 0.58204 0.31865 0.32841 0.0
O47 O 0.59915 0.39136 0.29967 0.0
C48 C 0.56769 0.35784 0.32154 0.0
C49 C 0.71177 0.50007 0.18522 0.0
C50 C 0.6631 0.28475 0.19556 0.0
C51 C 0.78043 0.39036 0.30451 0.0
O52 O 0.78089 0.41687 0.2697 0.0
O53 O 0.73719 0.36618 0.31876 0.0
O54 O 0.73933 0.47687 0.17122 0.0
O55 O 0.68936 0.47748 0.21772 0.0
O56 O 0.19551 0.81537 0.17813 0.0
Cd57 Cd 0.18642 0.87269 0.21859 0.0
Cd58 Cd 0.23491 0.94467 0.15924 0.0
O59 O 0.22168 0.8616 0.12157 0.0
O60 O 0.14961 0.82276 0.25883 0.0
O61 O 0.12195 0.87575 0.2219 0.0
C62 C 0.11666 0.84149 0.25095 0.0
C63 C 0.20723 1.0203 0.13818 0.0
C64 C 0.20884 0.81633 0.13943 0.0
C65 C 0.28362 0.94918 0.25948 0.0
O66 O 0.28933 0.96289 0.21943 0.0
O67 O 0.2423 0.91816 0.26713 0.0
O68 O 0.24677 1.01715 0.12729 0.0
O69 O 0.18209 0.9803 0.15868 0.0
O70 O 0.65816 0.87819 0.51351 0.0
Cd71 Cd 0.64379 0.8802 0.57847 0.0
Cd72 Cd 0.56432 0.92124 0.5034 0.0
O73 O 0.60367 0.89271 0.46536 0.0
O74 O 0.69258 0.85208 0.61213 0.0
O75 O 0.61437 0.80231 0.59784 0.0
C76 C 0.65763 0.80545 0.61242 0.0
C77 C 0.50003 0.92822 0.45159 0.0
C78 C 0.64109 0.882 0.47361 0.0
C79 C 0.643 0.99981 0.5867 0.0
O80 O 0.60848 0.98686 0.55304 0.0
O81 O 0.65825 0.96461 0.60242 0.0
O82 O 0.54493 0.96054 0.45428 0.0
O83 O 0.48999 0.89368 0.48046 0.0
O84 O 0.73742 0.34164 0.71399 0.0
Cd85 Cd 0.72762 0.40055 0.75337 0.0
Cd86 Cd 0.76116 0.45718 0.68719 0.0
O87 O 0.73695 0.37412 0.64859 0.0
O88 O 0.6939 0.35378 0.79735 0.0
O89 O 0.6596 0.39582 0.75341 0.0
C90 C 0.65614 0.36281 0.78329 0.0
C91 C 0.73216 0.53393 0.67277 0.0
C92 C 0.73544 0.33446 0.67126 0.0
C93 C 0.82582 0.46038 0.77951 0.0
O94 O 0.82439 0.46427 0.73668 0.0
O95 O 0.78714 0.45146 0.79645 0.0
O96 O 0.76848 0.52886 0.65593 0.0
O97 O 0.71151 0.49618 0.69729 0.0
O98 O 0.08993 0.24941 1.00147 0.0
Cd99 Cd 1.08045 0.30076 0.95583 0.0
Cd100 Cd 0.10274 0.38548 1.03004 0.0
O101 O 0.12186 0.3167 0.05812 0.0
O102 O 0.11773 0.30442 0.90386 0.0
O103 O 0.13763 0.37088 0.96068 0.0
C104 C 0.14551 0.35325 0.92223 0.0
C105 C 0.14324 0.48125 0.06217 0.0
C106 C 0.11229 0.2665 0.04209 0.0
C107 C 1.01532 0.35361 0.94138 0.0
O108 O 1.04534 0.38491 0.97586 0.0
O109 O 1.01642 0.30762 0.93046 0.0
O110 O 0.10836 0.44676 0.07948 0.0
O111 O 0.15914 0.46116 1.02983 0.0
O112 O 0.49049 0.14837 0.35966 0.0
Cd113 Cd 0.42959 0.12856 0.39311 0.0
Cd114 Cd 0.52444 0.12538 0.47979 0.0
O115 O 0.54197 0.13708 0.41412 0.0
O116 O 0.36676 0.07463 0.35797 0.0
O117 O 0.37981 0.15851 0.38728 0.0
C118 C 0.34996 0.11119 0.36671 0.0
C119 C 0.58898 0.15315 0.53582 0.0
C120 C 0.53154 0.14612 0.37365 0.0
C121 C 0.4342 0.06162 0.45946 0.0
O122 O 0.46575 0.05658 0.48784 0.0
O123 O 0.44011 0.10974 0.4546 0.0
O124 O 0.57944 0.11184 0.50602 0.0
O125 O 0.561 0.17952 0.53445 0.0
O126 O 0.38082 0.29215 0.6953 0.0
Cd127 Cd 0.39548 0.2561 0.63928 0.0
Cd128 Cd 0.39789 0.34243 0.58852 0.0
O129 O 0.41058 0.37233 0.67125 0.0
O130 O 0.41121 0.1987 0.66638 0.0
O131 O 0.46553 0.26733 0.63965 0.0
C132 C 0.45583 0.22534 0.66109 0.0
C133 C 0.41628 0.35183 0.50217 0.0
C134 C 0.39548 0.34299 0.70496 0.0
C135 C 0.30902 0.23997 0.57973 0.0
O136 O 0.32553 0.29142 0.58231 0.0
O137 O 0.33743 0.21621 0.58892 0.0
O138 O 0.40664 0.38667 0.528 0.0
O139 O 0.42043 0.31434 0.52514 0.0
O140 O 0.15901 0.08241 0.85732 0.0
Cd141 Cd 0.23291 0.11252 0.85088 0.0
Cd142 Cd 0.18414 0.17892 0.91184 0.0
O143 O 0.11683 0.12623 0.87783 0.0
O144 O 0.25476 0.08368 0.79859 0.0
O145 O 0.27941 0.08109 0.87153 0.0
C146 C 0.28602 0.07855 0.82924 0.0
C147 C 0.19694 0.16292 0.98327 0.0
C148 C 0.13373 0.10952 0.84594 0.0
C149 C 0.27285 0.23924 0.86995 0.0
O150 O 0.2375 0.24332 0.88774 0.0
O151 O 0.27362 0.19359 0.8579 0.0
O152 O 0.17954 0.19858 0.97367 0.0
O153 O 0.20965 0.13756 0.95183 0.0
O154 O 0.42492 0.11847 0.11656 0.0
Cd155 Cd 0.45116 0.16082 0.06527 0.0
Cd156 Cd 0.41765 0.05344 0.03672 0.0
O157 O 0.36858 0.04329 0.08031 0.0
O158 O 0.47059 0.23348 0.10063 0.0
O159 O 0.41217 0.20186 0.04138 0.0
C160 C 0.43352 0.23687 0.0772 0.0
C161 C 0.40041 1.00051 0.96816 0.0
C162 C 0.38983 0.07364 0.11733 0.0
C163 C 0.52299 0.11481 0.06574 0.0
O164 O 0.48708 0.07095 0.06732 0.0
O165 O 0.51632 0.15648 0.05447 0.0
O166 O 0.4 0.97991 1.00572 0.0
O167 O 0.40701 0.05095 0.96926 0.0
O168 O 0.43106 0.47575 0.21207 0.0
Cd169 Cd 0.44659 0.51891 0.15662 0.0
Cd170 Cd 0.44671 0.42947 0.09843 0.0
O171 O 0.42959 0.4014 0.17315 0.0
O172 O 0.4247 0.57967 0.15872 0.0
O173 O 0.39838 0.51215 0.1019 0.0
C174 C 0.40056 0.55898 0.11853 0.0
C175 C 0.41723 0.40019 1.00992 0.0
C176 C 0.42704 0.42691 0.21232 0.0
C177 C 0.54076 0.53851 0.12384 0.0
O178 O 0.5198 0.49009 0.10291 0.0
O179 O 0.51822 0.55723 0.14932 0.0
O180 O 0.44103 0.37868 0.03529 0.0
O181 O 0.40464 0.43345 0.03411 0.0
O182 O 0.92033 0.22841 0.25368 0.0
Cd183 Cd 0.89106 0.17048 0.19603 0.0
Cd184 Cd 0.87785 0.25618 0.17449 0.0
O185 O 0.94288 0.29562 0.21316 0.0
O186 O 0.9086 0.10703 0.19109 0.0
O187 O 0.92723 0.17095 0.14462 0.0
C188 C 0.92504 0.12407 0.15433 0.0
C189 C 0.86078 0.27946 0.10533 0.0
C190 C 0.94145 0.27903 0.25156 0.0
C191 C 0.79471 0.17107 0.18584 0.0
O192 O 0.81754 0.21952 0.20413 0.0
O193 O 0.8185 0.14427 0.1729 0.0
O194 O 0.86221 0.3091 0.14206 0.0
O195 O 0.87169 0.23766 0.10832 0.0
O196 O 0.32804 0.66845 0.2 0.0
Cd197 Cd 0.38727 0.70497 0.24975 0.0
Cd198 Cd 0.30943 0.68168 0.30564 0.0
O199 O 0.27058 0.64281 0.24451 0.0
O200 O 0.44186 0.68106 0.25115 0.0
O201 O 0.39174 0.66919 0.30339 0.0
C202 C 0.42964 0.66492 0.28953 0.0
C203 C 0.26612 0.66734 0.36803 0.0
C204 C 0.28354 0.64656 0.20541 0.0
C205 C 0.3799 0.79825 0.29197 0.0
O206 O 0.34477 0.76305 0.30678 0.0
O207 O 0.40652 0.7853 0.26735 0.0
O208 O 0.25351 0.68668 0.33325 0.0
O209 O 0.30193 0.65235 0.36657 0.0
O210 O 0.9239 1.00284 0.7324 0.0
Cd211 Cd 0.94493 0.0428 0.67661 0.0
Cd212 Cd 0.9329 0.95241 0.61624 0.0
O213 O 0.91167 0.92499 0.69219 0.0
O214 O 0.92515 0.10396 0.67153 0.0
O215 O 0.89944 1.03224 0.61899 0.0
C216 C 0.90294 0.08074 0.63138 0.0
C217 C 0.90715 0.92509 0.5278 0.0
C218 C 0.91198 0.95207 0.73196 0.0
C219 C 1.03132 0.06053 0.63641 0.0
O220 O 1.00479 1.01367 0.61458 0.0
O221 O 1.01672 0.07851 0.6698 0.0
O222 O 0.92786 0.9012 0.55396 0.0
O223 O 0.89358 0.95801 0.55113 0.0
O224 O 0.08665 0.1563 0.24596 0.0
Cd225 Cd 1.04428 0.12977 0.29967 0.0
Cd226 Cd 1.04834 0.04151 0.25294 0.0
O227 O 1.05074 0.08044 0.19799 0.0
O228 O 0.9761 0.12429 0.28766 0.0
O229 O 1.03494 0.18648 0.33836 0.0
C230 C 0.98902 0.16133 0.32241 0.0
C231 C 0.12069 0.0515 0.29766 0.0
C232 C 1.07867 0.13041 0.20607 0.0
C233 C 1.00026 1.03039 0.32911 0.0
O234 O 0.9887 1.01673 0.28642 0.0
O235 O 1.03904 0.07159 0.34408 0.0
O236 O 0.09523 1.00644 0.27166 0.0
O237 O 0.10747 0.09102 0.29406 0.0
O238 O 0.40184 0.76787 0.75165 0.0
Cd239 Cd 0.36999 0.6986 0.70352 0.0
Cd240 Cd 0.36877 0.77655 0.6615 0.0
O241 O 0.42393 0.83017 0.70554 0.0
O242 O 0.39547 0.64101 0.70928 0.0
O243 O 0.40425 0.69001 0.65156 0.0
C244 C 0.4111 0.65162 0.67095 0.0
C245 C 0.35691 0.79975 0.59003 0.0
C246 C 0.42185 0.81753 0.74528 0.0
C247 C 0.27714 0.70232 0.69114 0.0
O248 O 0.30408 0.75011 0.68567 0.0
O249 O 0.29466 0.66647 0.69315 0.0
O250 O 0.35423 0.82791 0.62554 0.0
O251 O 0.36973 0.75974 0.59519 0.0
O252 O 0.59881 0.66723 0.7855 0.0
Cd253 Cd 0.53843 0.62643 0.81934 0.0
Cd254 Cd 0.57821 0.55028 0.77222 0.0
O255 O 0.57509 0.60126 0.72843 0.0
O256 O 0.47623 0.63672 0.80021 0.0
O257 O 0.52564 0.67701 0.86461 0.0
C258 C 0.48495 0.66688 0.83872 0.0
C259 C 0.64619 0.57258 0.82474 0.0
C260 C 0.60213 0.64931 0.74568 0.0
C261 C 0.50902 0.50386 0.82769 0.0
O262 O 0.51936 0.4937 0.78892 0.0
O263 O 0.52035 0.55236 0.846 0.0
O264 O 0.63981 0.53907 0.78876 0.0
O265 O 0.61522 0.59423 0.82891 0.0
O266 O 0.83163 0.12437 0.67979 0.0
Cd267 Cd 0.88723 0.1785 0.72763 0.0
Cd268 Cd 0.7827 0.14751 0.78312 0.0
O269 O 0.79448 0.09822 0.73665 0.0
O270 O 0.95497 0.18132 0.74103 0.0
O271 O 0.89674 0.1505 0.78473 0.0
C272 C 0.94159 0.16362 0.77852 0.0
C273 C 0.74392 0.13029 0.8437 0.0
C274 C 0.79266 0.11147 0.69703 0.0
C275 C 0.85897 0.26306 0.77405 0.0
O276 O 0.82319 0.22851 0.78869 0.0
O277 O 0.88405 0.25064 0.74691 0.0
O278 O 0.72066 0.13304 0.80532 0.0
O279 O 0.78648 0.12844 0.84484 0.0
O280 O 0.94417 0.86788 0.22379 0.0
Cd281 Cd 0.92653 0.80655 0.17393 0.0
Cd282 Cd 0.88455 0.85894 0.10924 0.0
O283 O 0.88619 0.88871 0.18952 0.0
O284 O 0.95081 0.76129 0.20993 0.0
O285 O 0.97338 0.78428 0.14378 0.0
C286 C 0.97461 0.75745 0.17759 0.0
C287 C 0.89995 0.88088 1.02524 0.0
C288 C 0.91193 0.88646 0.22787 0.0
C289 C 0.82433 0.74588 0.12967 0.0
O290 O 0.83097 0.77973 0.10084 0.0
O291 O 0.85569 0.75406 0.16421 0.0
O292 O 0.86835 0.89141 0.04657 0.0
O293 O 0.92655 0.86357 0.05179 0.0
O294 O 0.96009 0.6539 0.87643 0.0
Cd295 Cd 0.93564 0.62618 0.93627 0.0
Cd296 Cd 1.03635 0.66665 0.94388 0.0
O297 O 1.02363 0.72324 0.91006 0.0
O298 O 0.86589 0.58541 0.91156 0.0
O299 O 0.89246 0.65709 0.96376 0.0
C300 C 0.85716 0.62212 0.93465 0.0
C301 C 0.095 0.6743 0.99973 0.0
C302 C 0.99764 0.6958 0.87324 0.0
C303 C 0.97837 0.55263 0.92947 0.0
O304 O 1.00815 0.59024 0.91159 0.0
O305 O 0.95297 0.56387 0.95671 0.0
O306 O 0.10591 0.6829 0.95954 0.0
O307 O 1.0523 0.66893 1.009 0.0
O308 O 0.92561 0.5742 0.6261 0.0
Cd309 Cd 0.93339 0.63312 0.58408 0.0
Cd310 Cd 0.91941 0.52743 0.53286 0.0
O311 O 0.88135 0.49664 0.58334 0.0
O312 O 0.96238 0.69604 0.63329 0.0
O313 O 0.89539 0.68002 0.58561 0.0
C314 C 0.92679 0.70926 0.62022 0.0
C315 C 0.9149 0.47161 0.46834 0.0
C316 C 0.90288 0.52302 0.62201 0.0
C317 C 1.01331 0.61985 0.5565 0.0
O318 O 0.99001 0.57006 0.55807 0.0
O319 O 0.99064 0.6501 0.5492 0.0
O320 O 0.92547 0.46076 0.50819 0.0
O321 O 0.90325 0.5126 0.46452 0.0
O322 O 0.78625 0.57984 0.39024 0.0
Cd323 Cd 0.83849 0.64664 0.37137 0.0
Cd324 Cd 0.75923 0.6776 0.45913 0.0
O325 O 0.74214 0.59829 0.43422 0.0
O326 O 0.86141 0.63265 0.3142 0.0
O327 O 0.90641 0.65332 0.38285 0.0
C328 C 0.90227 0.6414 0.33925 0.0
C329 C 0.73897 0.68214 0.53034 0.0
C330 C 0.74862 0.58935 0.39389 0.0
C331 C 0.81607 0.75355 0.39188 0.0
O332 O 0.78868 0.74448 0.42297 0.0
O333 O 0.8321 0.71953 0.37616 0.0
O334 O 0.70791 0.67678 0.49479 0.0
O335 O 0.78349 0.69038 0.52572 0.0
Tb336 Tb 0.20534 0.19337 0.13062 0.0
Tb337 Tb 0.10901 0.09936 0.07582 0.0
C338 C 0.1092 0.15245 0.17158 0.0
C339 C 0.33281 0.27745 0.14376 0.0
C340 C 0.40685 0.26576 0.09907 0.0
C341 C 0.41245 0.27364 0.14698 0.0
C342 C 0.37517 0.27814 0.16903 0.0
C343 C 0.33034 0.27727 0.09626 0.0
C344 C 0.36684 0.27085 0.07403 0.0
C345 C 0.28803 0.26399 0.16486 0.0
O346 O 0.22103 0.11702 0.1244 0.0
O347 O 0.14304 0.05535 0.1184 0.0
O348 O 0.16534 0.10277 0.0354 0.0
O349 O 0.21219 0.19164 0.0599 0.0
O350 O 1.05362 1.02349 0.07856 0.0
O351 O 1.05246 0.06502 1.01987 0.0
O352 O 0.10837 0.17408 0.04864 0.0
O353 O 0.16091 0.24005 0.10489 0.0
O354 O 0.15652 0.1673 0.18088 0.0
O355 O 0.08755 0.14 0.12957 0.0
C356 C 0.1901 0.06636 0.12666 0.0
O357 O 0.25365 0.27564 0.14405 0.0
O358 O 0.27056 0.21515 0.17616 0.0
C359 C 0.19761 0.14965 1.02896 0.0
C360 C 0.98308 1.03759 0.05822 0.0
C361 C 0.94006 0.08541 0.12013 0.0
C362 C 0.95684 0.11071 0.07901 0.0
C363 C 0.97707 0.08565 0.04961 0.0
C364 C 0.96041 1.00724 0.09205 0.0
C365 C 0.93931 1.02718 0.12455 0.0
C366 C 1.02618 1.03008 0.04455 0.0
C367 C 0.12747 0.22559 0.06762 0.0
H368 H 0.44274 0.26972 0.16744 0.0
H369 H 0.37761 0.2773 0.20539 0.0
H370 H 0.29815 0.27691 0.07574 0.0
H371 H 0.36154 0.26497 0.03715 0.0
H372 H 0.95641 0.14966 0.07291 0.0
H373 H 0.99321 0.1076 1.02253 0.0
H374 H 0.96423 0.96956 0.09691 0.0
H375 H 0.93699 0.05734 0.12852 0.0
Tb376 Tb 0.3492 0.90273 0.37687 0.0
Tb377 Tb 0.43345 0.97312 0.32743 0.0
C378 C 0.32518 0.95779 0.29535 0.0
C379 C 0.30098 0.82165 0.45911 0.0
C380 C 0.34064 0.80997 0.54509 0.0
C381 C 0.31131 0.83988 0.54107 0.0
C382 C 0.29106 0.84503 0.4984 0.0
C383 C 0.33124 0.79262 0.46333 0.0
C384 C 0.35061 0.78651 0.506 0.0
C385 C 0.28782 0.83611 0.41469 0.0
O386 O 0.3488 0.86301 0.31133 0.0
O387 O 0.42971 0.89152 0.31745 0.0
O388 O 0.47789 0.96637 0.387 0.0
O389 O 0.41603 0.89833 0.41329 0.0
O390 O 0.47346 0.97354 0.27331 0.0
O391 O 0.47747 0.04739 0.3105 0.0
O392 O 0.42752 1.02933 0.38104 0.0
O393 O 0.38696 0.97041 0.42861 0.0
O394 O 0.31628 0.94791 0.3367 0.0
O395 O 0.36566 0.95832 0.28295 0.0
C396 C 0.38683 0.85386 0.30344 0.0
O397 O 0.29146 0.88616 0.41496 0.0
O398 O 0.30719 0.82141 0.38165 0.0
C399 C 0.46269 0.93104 0.41588 0.0
C400 C 0.45493 1.0356 0.23159 0.0
C401 C 0.39567 0.04927 0.15819 0.0
C402 C 0.41242 1.00728 0.15419 0.0
C403 C 0.44231 1.00091 0.19045 0.0
C404 C 0.43497 0.07498 0.23642 0.0
C405 C 0.40542 0.08151 0.20013 0.0
C406 C 0.48075 1.02431 0.27174 0.0
C407 C 0.41294 1.01919 0.4207 0.0
H408 H 0.30272 0.85801 0.5709 0.0
H409 H 0.26867 0.8684 0.4961 0.0
H410 H 0.34056 0.77497 0.43372 0.0
H411 H 0.37306 0.76322 0.50836 0.0
H412 H 0.40662 0.98294 0.12168 0.0
H413 H 0.45599 0.96927 0.18612 0.0
H414 H 0.44261 0.10143 0.26807 0.0
H415 H 0.39388 0.11499 0.20353 0.0
Tb416 Tb 0.66438 0.15745 0.66941 0.0
Tb417 Tb 0.73763 0.18131 0.5946 0.0
C418 C 0.76103 0.13994 0.68403 0.0
C419 C 0.56819 0.1766 0.71735 0.0
C420 C 0.49467 0.20926 0.68105 0.0
C421 C 0.4825 0.15987 0.69921 0.0
C422 C 0.51894 0.14359 0.71695 0.0
C423 C 0.58052 0.22729 0.70125 0.0
C424 C 0.54406 0.24344 0.68323 0.0
C425 C 0.60454 0.1525 0.72304 0.0
O426 O 0.71821 0.2415 0.68229 0.0
O427 O 0.72913 0.25964 0.61058 0.0
O428 O 0.66756 0.15841 0.556 0.0
O429 O 0.63045 0.18258 0.61208 0.0
O430 O 0.80588 0.2304 0.57832 0.0
O431 O 0.75698 0.16043 0.53223 0.0
O432 O 0.70832 0.09133 0.59578 0.0
O433 O 0.63905 0.07864 0.62772 0.0
O434 O 0.71607 0.12256 0.69289 0.0
O435 O 0.77692 0.17893 0.65889 0.0
C436 C 0.72668 0.27665 0.6526 0.0
O437 O 0.59753 0.11381 0.69071 0.0
O438 O 0.65035 0.18589 0.73209 0.0
C439 C 0.63176 0.16859 0.56932 0.0
C440 C 0.83763 0.16776 0.55286 0.0
C441 C 0.88383 0.11027 0.60041 0.0
C442 C 0.84504 0.08261 0.56511 0.0
C443 C 0.82201 0.11119 0.54144 0.0
C444 C 0.88096 0.19581 0.58343 0.0
C445 C 0.90343 0.16724 0.60748 0.0
C446 C 0.80236 0.19355 0.54537 0.0
C447 C 0.66578 0.05873 0.60636 0.0
H448 H 0.44474 0.13277 0.69807 0.0
H449 H 0.50868 0.10363 0.72752 0.0
H450 H 0.61825 0.25317 0.70017 0.0
H451 H 0.55458 0.28214 0.67019 0.0
H452 H 0.83019 1.03874 0.55816 0.0
H453 H 0.78921 0.08827 0.51746 0.0
H454 H 0.89451 0.23939 0.59243 0.0
H455 H 0.93455 0.18968 0.63347 0.0
Tb456 Tb 0.43023 0.3364 0.86134 0.0
Tb457 Tb 0.36995 0.41019 0.85228 0.0
C458 C 0.31644 0.28686 0.86536 0.0
C459 C 0.52519 0.29296 0.83996 0.0
C460 C 0.6105 0.33586 0.80115 0.0
C461 C 0.61023 0.30976 0.8403 0.0
C462 C 0.56776 0.28879 0.85985 0.0
C463 C 0.52456 0.3151 0.79888 0.0
C464 C 0.56702 0.33675 0.77974 0.0
C465 C 0.48606 0.28715 0.8667 0.0
O466 O 0.41178 0.32858 0.78551 0.0
O467 O 0.38558 0.39701 0.77828 0.0
O468 O 0.4441 0.46699 0.86855 0.0
O469 O 0.47447 0.41038 0.83608 0.0
O470 O 0.31669 0.42573 0.81135 0.0
O471 O 0.3538 0.47681 0.87427 0.0
O472 O 0.38125 0.40907 0.92955 0.0
O473 O 0.43184 0.3635 0.93509 0.0
O474 O 0.35714 0.27963 0.86489 0.0
O475 O 0.31348 0.33344 0.8613 0.0
C476 C 0.40021 0.36035 0.75854 0.0
O477 O 0.49376 0.33152 0.89308 0.0
O478 O 0.4418 0.26552 0.84425 0.0
C479 C 0.47745 0.45927 0.84843 0.0
C480 C 0.26777 0.44527 0.86022 0.0
C481 C 0.18557 0.38805 0.90022 0.0
C482 C 0.22531 0.4315 0.92603 0.0
C483 C 0.2662 0.45991 0.90618 0.0
C484 C 0.22556 0.40597 0.83341 0.0
C485 C 0.18498 0.3773 0.8534 0.0
C486 C 0.31517 0.46061 0.84337 0.0
C487 C 0.40883 0.39 0.95567 0.0
H488 H 0.64334 0.308 0.85714 0.0
H489 H 0.56894 0.27253 0.89189 0.0
H490 H 0.49213 0.31899 0.78309 0.0
H491 H 0.56607 0.35562 0.74905 0.0
H492 H 0.22609 0.44144 0.96211 0.0
H493 H 0.29781 0.49048 0.92767 0.0
H494 H 0.22516 0.39439 0.79768 0.0
H495 H 0.15375 0.34555 0.83254 0.0
Tb496 Tb 0.17751 0.19984 0.64223 0.0
Tb497 Tb 0.1568 0.12062 0.55251 0.0
C498 C 1.07781 0.09622 0.62153 0.0
C499 C 0.19565 0.22878 0.75914 0.0
C500 C 0.1521 0.14929 0.81422 0.0
C501 C 0.1431 0.19717 0.81587 0.0
C502 C 0.16401 0.23613 0.78768 0.0
C503 C 0.20677 0.18272 0.76016 0.0
C504 C 0.18147 0.14134 0.78385 0.0
C505 C 0.20209 0.25541 0.7181 0.0
O506 O 0.18957 0.12631 0.6665 0.0
O507 O 0.16821 0.06645 0.60177 0.0
O508 O 0.23543 0.15907 0.5684 0.0
O509 O 0.23567 0.23657 0.60309 0.0
O510 O 0.11327 0.08133 0.48992 0.0
O511 O 0.1795 0.07035 0.51227 0.0
O512 O 0.15987 0.20252 0.5288 0.0
O513 O 0.15471 0.24908 0.59427 0.0
O514 O 0.10385 0.1431 0.64626 0.0
O515 O 0.09046 0.08167 0.58334 0.0
C516 C 0.18222 0.07703 0.64628 0.0
O517 O 0.23383 0.24771 0.69469 0.0
O518 O 0.16087 0.24628 0.6924 0.0
C519 C 0.25737 0.21089 0.58144 0.0
C520 C 0.15408 0.05757 0.43418 0.0
C521 C 0.15097 0.05377 0.34041 0.0
C522 C 0.14098 1.0059 0.36034 0.0
C523 C 0.14158 1.00773 0.40729 0.0
C524 C 0.17313 0.10596 0.41539 0.0
C525 C 0.17215 0.10404 0.36854 0.0
C526 C 0.14259 0.05781 0.48029 0.0
C527 C 0.15687 0.2474 0.54993 0.0
H528 H 0.11921 0.20406 0.8381 0.0
H529 H 0.15334 0.2701 0.78609 0.0
H530 H 0.23202 0.17623 0.73957 0.0
H531 H 0.18508 0.10312 0.77875 0.0
H532 H 0.12596 0.9668 0.33957 0.0
H533 H 0.12823 0.97004 0.42194 0.0
H534 H 0.18441 0.14482 0.4362 0.0
H535 H 0.18116 0.14178 0.35403 0.0
Tb536 Tb 0.42814 0.96684 0.82566 0.0
Tb537 Tb 0.3823 0.8608 0.86993 0.0
C538 C 0.42571 0.85872 0.78174 0.0
C539 C 0.42249 0.08307 0.79583 0.0
C540 C 0.3329 0.08086 0.81718 0.0
C541 C 0.3379 0.06871 0.77183 0.0
C542 C 0.38246 0.06998 0.76116 0.0
C543 C 0.41935 0.10434 0.83948 0.0
C544 C 0.37463 0.10176 0.85036 0.0
C545 C 0.45442 0.05304 0.79258 0.0
O546 O 0.34815 0.95544 0.81187 0.0
O547 O 0.31288 0.87712 0.84234 0.0
O548 O 0.38928 0.91688 0.92731 0.0
O549 O 0.41094 0.99287 0.89034 0.0
O550 O 0.33661 0.77891 0.84837 0.0
O551 O 0.37076 0.8063 0.9187 0.0
O552 O 0.46464 0.88489 0.89334 0.0
O553 O 0.49786 0.95627 0.85342 0.0
O554 O 0.41573 0.90038 0.77315 0.0
O555 O 0.42534 0.84516 0.82216 0.0
C556 C 0.30708 0.91795 0.82161 0.0
O557 O 0.47681 0.04881 0.83134 0.0
O558 O 0.43376 1.00616 0.76699 0.0
C559 C 0.3986 0.9682 0.92611 0.0
C560 C 0.3817 0.73165 0.87989 0.0
C561 C 0.44887 0.68794 0.85346 0.0
C562 C 0.40186 0.6708 0.82839 0.0
C563 C 0.36871 0.69238 0.84142 0.0
C564 C 0.4278 0.74641 0.90636 0.0
C565 C 0.46085 0.72482 0.89334 0.0
C566 C 0.35257 0.76517 0.88612 0.0
C567 C 0.5048 0.92164 0.88062 0.0
H568 H 0.30678 0.0553 0.74506 0.0
H569 H 0.38372 0.05418 0.72697 0.0
H570 H 0.44979 0.11658 0.86685 0.0
H571 H 0.37258 0.1149 0.88509 0.0
H572 H 0.3909 0.64143 0.79816 0.0
H573 H 0.33379 0.6804 0.81999 0.0
H574 H 0.43956 0.77681 0.936 0.0
H575 H 0.49644 0.73839 0.91389 0.0
Tb576 Tb 0.63675 0.09945 0.15814 0.0
Tb577 Tb 0.6805 0.16563 0.08092 0.0
C578 C 0.74595 0.15596 0.16263 0.0
C579 C 0.59188 0.0935 0.26564 0.0
C580 C 0.56246 0.13993 0.33948 0.0
C581 C 0.58873 0.1068 0.34668 0.0
C582 C 0.60282 0.0834 0.31003 0.0
C583 C 0.57119 0.13198 0.2593 0.0
C584 C 0.55646 0.15478 0.2958 0.0
C585 C 0.59969 0.06233 0.22602 0.0
O586 O 0.63409 0.18192 0.17747 0.0
O587 O 0.68823 0.23375 0.13451 0.0
O588 O 0.60866 0.16398 0.08203 0.0
O589 O 0.57881 0.07967 0.10076 0.0
O590 O 0.7358 0.21803 0.04887 0.0
O591 O 0.66017 0.18229 1.01674 0.0
O592 O 0.66627 0.07902 0.05279 0.0
O593 O 0.65929 1.03802 0.11753 0.0
O594 O 0.71074 0.15255 0.18541 0.0
O595 O 0.73922 0.15165 0.11835 0.0
C596 C 0.66095 0.23113 0.1675 0.0
O597 O 0.57387 0.05998 0.18721 0.0
O598 O 0.6448 0.07136 0.22157 0.0
C599 C 0.57195 0.11866 0.08161 0.0
C600 C 0.71706 0.18985 0.96932 0.0
C601 C 0.72854 0.14313 0.88649 0.0
C602 C 0.7018 0.17597 0.88711 0.0
C603 C 0.69655 0.19957 0.92827 0.0
C604 C 0.7421 0.15528 0.96902 0.0
C605 C 0.74845 0.13266 0.92773 0.0
C606 C 0.70524 0.20937 1.01148 0.0
C607 C 0.66633 1.03662 0.07358 0.0
H608 H 0.59422 0.09449 0.37987 0.0
H609 H 0.61967 0.05495 0.31604 0.0
H610 H 0.56289 0.14146 0.22559 0.0
H611 H 0.53665 0.18026 0.28904 0.0
H612 H 0.68692 0.18568 0.85584 0.0
H613 H 0.67604 0.22508 0.92808 0.0
H614 H 0.75688 0.14602 1.00056 0.0
H615 H 0.76973 0.10802 0.92802 0.0
Tb616 Tb 0.39902 0.31846 0.33567 0.0
Tb617 Tb 0.44862 0.43263 0.36953 0.0
C618 C 0.42224 0.40569 0.26122 0.0
C619 C 0.29943 0.18302 0.29632 0.0
C620 C 0.30097 0.10387 0.34585 0.0
C621 C 0.29295 0.09169 0.29829 0.0
C622 C 0.29352 0.13321 0.2728 0.0
C623 C 0.28427 0.1832 0.33921 0.0
C624 C 0.28414 0.14168 0.36445 0.0
C625 C 0.34384 0.22856 0.29115 0.0
O626 O 0.47558 0.31858 0.33473 0.0
O627 O 0.51247 0.40979 0.34736 0.0
O628 O 0.44912 0.40489 0.43826 0.0
O629 O 0.40145 0.31616 0.41429 0.0
O630 O 0.5135 0.50238 0.3732 0.0
O631 O 0.45432 0.50511 0.40589 0.0
O632 O 0.36957 0.4196 0.38325 0.0
O633 O 0.33272 0.3302 0.3586 0.0
O634 O 0.42052 0.35789 0.27108 0.0
O635 O 0.42316 0.43878 0.297 0.0
C636 C 0.51684 0.36236 0.33553 0.0
O637 O 0.33931 0.27396 0.28522 0.0
O638 O 0.38226 0.2357 0.32074 0.0
C639 C 0.42313 0.35677 0.44938 0.0
C640 C 0.49336 0.57853 0.36874 0.0
C641 C 0.45741 0.641 0.31712 0.0
C642 C 0.47972 0.61001 0.29645 0.0
C643 C 0.49727 0.57842 0.3221 0.0
C644 C 0.47629 0.61447 0.39015 0.0
C645 C 0.45785 0.64507 0.36438 0.0
C646 C 0.49509 0.53352 0.39241 0.0
C647 C 0.32821 0.37409 0.37778 0.0
H648 H 0.30088 0.05913 0.28238 0.0
H649 H 0.3015 0.1309 0.23827 0.0
H650 H 0.28482 0.22015 0.35696 0.0
H651 H 0.28486 0.14822 0.40091 0.0
H652 H 0.48006 0.60679 0.26003 0.0
H653 H 0.51022 0.55092 0.30469 0.0
H654 H 0.47305 0.61512 0.42604 0.0
H655 H 0.44163 0.66973 0.38107 0.0
Tb656 Tb 0.687 0.66138 0.17126 0.0
Tb657 Tb 0.68757 0.60537 0.07577 0.0
C658 C 0.59185 0.57407 0.11949 0.0
C659 C 0.70865 0.67468 0.29135 0.0
C660 C 0.73407 0.61892 0.35907 0.0
C661 C 0.70359 0.64668 0.36672 0.0
C662 C 0.69106 0.67458 0.33302 0.0
C663 C 0.73772 0.64573 0.28338 0.0
C664 C 0.74885 0.61681 0.31618 0.0
C665 C 0.69092 0.69627 0.25286 0.0
O666 O 0.68568 0.57934 0.18546 0.0
O667 O 0.7178 0.56149 0.12393 0.0
O668 O 0.75136 0.6802 0.08572 0.0
O669 O 0.76197 0.67809 0.16147 0.0
O670 O 0.65017 0.56058 1.01332 0.0
O671 O 0.72651 0.57615 0.03407 0.0
O672 O 0.67529 0.68146 0.05781 0.0
O673 O 0.69114 0.72918 0.12928 0.0
O674 O 0.61103 0.6243 0.13945 0.0
O675 O 0.61867 0.55518 0.09768 0.0
C676 C 0.70509 0.54918 0.16418 0.0
O677 O 0.72352 0.72092 0.22767 0.0
O678 O 0.65119 0.66132 0.22811 0.0
C679 C 0.77838 0.6985 0.12519 0.0
C680 C 0.69835 0.56734 0.95644 0.0
C681 C 0.67998 0.57732 0.8652 0.0
C682 C 0.68541 0.53047 0.8774 0.0
C683 C 0.69431 0.52538 0.92332 0.0
C684 C 0.70072 0.61716 0.94399 0.0
C685 C 0.69174 0.62222 0.89832 0.0
C686 C 0.68907 0.55512 1.00182 0.0
C687 C 0.6839 0.72834 0.08415 0.0
H688 H 0.689 0.64644 0.39838 0.0
H689 H 0.66692 0.69489 0.33904 0.0
H690 H 0.75064 0.6439 0.25102 0.0
H691 H 0.76903 0.5925 0.30776 0.0
H692 H 0.67629 0.49534 0.85232 0.0
H693 H 0.69273 0.48678 0.93289 0.0
H694 H 0.70445 0.65005 0.96949 0.0
H695 H 0.68819 0.65893 0.88935 0.0
Tb696 Tb 0.9547 0.42939 0.33369 0.0
Tb697 Tb 0.90047 0.327 0.37944 0.0
C698 C 0.94262 0.31693 0.28975 0.0
C699 C 0.99047 0.56409 0.29948 0.0
C700 C 0.9399 0.62851 0.31974 0.0
C701 C 0.92761 0.5965 0.27721 0.0
C702 C 0.9528 0.56415 0.26713 0.0
C703 C 1.00914 0.60484 0.33713 0.0
C704 C 0.98356 0.63668 0.3475 0.0
C705 C 1.00046 0.51476 0.30081 0.0
O706 O 0.87519 0.42115 0.31439 0.0
O707 O 0.8354 0.34777 0.34959 0.0
O708 O 0.91112 0.38839 0.43382 0.0
O709 O 0.93067 0.46024 0.39226 0.0
O710 O 0.84466 0.24915 0.3629 0.0
O711 O 0.88468 0.27632 0.4311 0.0
O712 O 0.98062 0.34391 0.4064 0.0
O713 O 1.01981 0.41074 0.36497 0.0
O714 O 0.94035 0.36282 0.2818 0.0
O715 O 0.93526 0.29964 0.32875 0.0
C716 C 0.83249 0.38682 0.32509 0.0
O717 O 1.01312 0.50525 0.34149 0.0
O718 O 0.96775 0.47086 0.27656 0.0
C719 C 0.91791 0.43833 0.42912 0.0
C720 C 0.88437 0.1964 0.3914 0.0
C721 C 0.95209 0.17044 0.3468 0.0
C722 C 0.966 0.19872 0.39099 0.0
C723 C 0.93228 0.2106 0.41347 0.0
C724 C 0.86881 0.16122 0.35009 0.0
C725 C 0.90252 0.1485 0.32784 0.0
C726 C 0.86052 0.23442 0.40007 0.0
C727 C 1.02298 0.37566 0.39353 0.0
H728 H 0.89504 0.59108 0.25431 0.0
H729 H 0.93902 0.53481 0.2367 0.0
H730 H 1.03952 0.60725 0.36169 0.0
H731 H 0.99478 0.6628 0.37974 0.0
H732 H 1.00348 0.2137 0.40763 0.0
H733 H 0.94549 0.23645 0.44586 0.0
H734 H 0.83201 0.149 0.33238 0.0
H735 H 0.89032 0.12444 0.29461 0.0
Tb736 Tb 0.11628 0.63369 0.67458 0.0
Tb737 Tb 0.16929 0.69276 0.59854 0.0
C738 C 0.22502 0.68949 0.68475 0.0
C739 C 1.05941 0.63305 0.77405 0.0
C740 C 1.02319 0.68768 0.83556 0.0
C741 C 1.06984 0.68737 0.84629 0.0
C742 C 0.08705 0.65896 0.81649 0.0
C743 C 1.01579 0.63976 0.7608 0.0
C744 C 0.99702 0.66532 0.79184 0.0
C745 C 1.07862 0.60305 0.74316 0.0
O746 O 0.12724 0.72015 0.6969 0.0
O747 O 0.14866 0.75854 0.63246 0.0
O748 O 0.09784 0.64505 0.5642 0.0
O749 O 1.0633 0.64823 0.62759 0.0
O750 O 0.23636 0.71749 0.57461 0.0
O751 O 0.1761 0.7333 0.54065 0.0
O752 O 0.16957 0.60785 0.58708 0.0
O753 O 0.11045 0.56054 0.62803 0.0
O754 O 0.19189 0.64096 0.68369 0.0
O755 O 0.21156 0.72335 0.66471 0.0
C756 C 0.13545 0.76239 0.67385 0.0
O757 O 1.05487 0.5851 0.70179 0.0
O758 O 0.12576 0.62542 0.74373 0.0
C759 C 1.0607 0.64292 0.58327 0.0
C760 C 0.22349 0.70486 0.49392 0.0
C761 C 0.24513 0.67094 0.41016 0.0
C762 C 0.21151 0.69563 0.41141 0.0
C763 C 0.20103 0.7127 0.45289 0.0
C764 C 0.25322 0.6752 0.49246 0.0
C765 C 0.26409 0.65855 0.45089 0.0
C766 C 0.21831 0.73058 0.53764 0.0
C767 C 0.13974 0.55997 0.59757 0.0
H768 H 0.09141 0.70501 0.87933 0.0
H769 H 0.12175 0.65648 0.82709 0.0
H770 H 0.99534 0.62378 0.72709 0.0
H771 H 0.96107 0.66524 0.78255 0.0
H772 H 0.19586 0.70537 0.38056 0.0
H773 H 0.17753 0.73479 0.4529 0.0
H774 H 0.27058 0.6677 0.52349 0.0
H775 H 0.28987 0.63935 0.45101 0.0
Tb776 Tb 0.94088 0.88118 0.38412 0.0
Tb777 Tb 0.85976 0.92591 0.3689 0.0
C778 C 0.83615 0.80708 0.37657 0.0
C779 C 1.03048 0.83648 0.35435 0.0
C780 C 1.08024 0.83285 0.28133 0.0
C781 C 1.0746 0.79513 0.31275 0.0
C782 C 1.04884 0.79631 0.34882 0.0
C783 C 1.03552 0.87319 0.32249 0.0
C784 C 1.05859 0.87015 0.2854 0.0
C785 C 1.00136 0.83807 0.38981 0.0
O786 O 0.93874 0.89146 0.31004 0.0
O787 O 0.86746 0.90289 0.29494 0.0
O788 O 0.92186 0.9886 0.34871 0.0
O789 O 0.98297 0.96697 0.38246 0.0
O790 O 0.78994 0.90746 0.33432 0.0
O791 O 0.82817 0.98203 0.38098 0.0
O792 O 0.88432 0.94434 0.44642 0.0
O793 O 0.92156 0.88533 0.45452 0.0
O794 O 0.87235 0.81751 0.3538 0.0
O795 O 0.82903 0.84808 0.39478 0.0
C796 C 0.90538 0.89645 0.27951 0.0
O797 O 1.01073 0.88657 0.40982 0.0
O798 O 0.95485 0.81058 0.37704 0.0
C799 C 0.96816 0.9983 0.35898 0.0
C800 C 0.74691 0.92929 0.38573 0.0
C801 C 0.6728 0.88825 0.43855 0.0
C802 C 0.66454 0.91091 0.39895 0.0
C803 C 0.70159 0.93118 0.37242 0.0
C804 C 0.75409 0.90412 0.42363 0.0
C805 C 0.7172 0.88295 0.44935 0.0
C806 C 0.78608 0.9477 0.35861 0.0
C807 C 0.90306 0.91753 0.47387 0.0
H808 H 0.09114 0.76584 0.31014 0.0
H809 H 1.04421 0.76698 0.37268 0.0
H810 H 1.02293 0.90555 0.32692 0.0
H811 H 1.06269 0.89983 0.26197 0.0
H812 H 0.63058 0.9156 0.38979 0.0
H813 H 0.69529 0.94917 0.34237 0.0
H814 H 0.78868 0.90166 0.43399 0.0
H815 H 0.72476 0.86555 0.47937 0.0
Tb816 Tb 0.87977 0.38365 0.88589 0.0
Tb817 Tb 0.96171 0.42386 0.82137 0.0
C818 C 0.86499 0.44902 0.80729 0.0
C819 C 0.81934 0.31971 0.9765 0.0
C820 C 0.84582 0.29256 0.06105 0.0
C821 C 0.82564 0.33168 0.05844 0.0
C822 C 0.81216 0.34489 1.01634 0.0
C823 C 0.83785 0.27912 0.97908 0.0
C824 C 0.85073 0.26546 1.02106 0.0
C825 C 0.81483 0.34164 0.9337 0.0
O826 O 0.85318 0.33661 0.81896 0.0
O827 O 0.92699 0.33795 0.81159 0.0
O828 O 1.00193 0.40562 0.88057 0.0
O829 O 0.9353 0.35324 0.91244 0.0
O830 O 0.97995 0.40008 0.75947 0.0
O831 O 1.02142 0.48014 0.79616 0.0
O832 O 0.96813 0.49488 0.86333 0.0
O833 O 0.935 0.45671 0.92452 0.0
O834 O 0.8595 0.4411 0.84964 0.0
O835 O 0.89611 0.43396 0.7879 0.0
C836 C 0.88023 0.31655 0.79916 0.0
O837 O 0.83865 0.39395 0.93575 0.0
O838 O 0.82107 0.31527 0.89801 0.0
C839 C 0.98286 0.37283 0.91089 0.0
C840 C 0.98353 0.47205 0.72049 0.0
C841 C 0.92126 0.4965 0.65628 0.0
C842 C 0.94315 0.46099 0.64292 0.0
C843 C 0.97388 0.44862 0.67489 0.0
C844 C 0.96055 0.50646 0.73363 0.0
C845 C 0.92968 0.5183 0.70199 0.0
C846 C 1.00613 0.4506 0.7562 0.0
C847 C 0.96161 0.49843 0.90587 0.0
H848 H 0.82068 0.35249 0.08889 0.0
H849 H 0.79812 0.37639 1.015 0.0
H850 H 0.84395 0.25899 0.94888 0.0
H851 H 0.8656 0.23466 1.02217 0.0
H852 H 0.93837 0.44484 0.60747 0.0
H853 H 0.98957 0.42033 0.66421 0.0
H854 H 0.9657 0.52375 0.7688 0.0
H855 H 0.91394 0.54648 0.71292 0.0
Tb856 Tb 0.87566 0.84918 0.86077 0.0
Tb857 Tb 0.92938 0.96571 0.89284 0.0
C858 C 0.90371 0.9319 0.7815 0.0
C859 C 0.79885 0.70622 0.86037 0.0
C860 C 0.81673 0.63608 0.91589 0.0
C861 C 0.79758 0.61767 0.86956 0.0
C862 C 0.78968 0.65345 0.8415 0.0
C863 C 0.8036 0.71819 0.90781 0.0
C864 C 0.81348 0.68333 0.93579 0.0
C865 C 0.82556 0.74997 0.83539 0.0
O866 O 0.95293 0.85302 0.852 0.0
O867 O 0.99129 0.9441 0.86481 0.0
O868 O 0.92884 0.93835 0.96218 0.0
O869 O 0.88495 0.84888 0.93861 0.0
O870 O 0.99615 1.0306 0.91998 0.0
O871 O 0.92952 0.04298 0.90479 0.0
O872 O 0.8524 0.95452 0.91302 0.0
O873 O 0.81122 0.86608 0.88636 0.0
O874 O 0.88662 0.88081 0.79093 0.0
O875 O 0.91496 0.9698 0.81727 0.0
C876 C 0.99421 0.89647 0.85081 0.0
O877 O 0.80883 0.78742 0.82929 0.0
O878 O 0.87237 0.77053 0.8497 0.0
C879 C 0.90548 0.88935 0.9732 0.0
C880 C 0.99817 0.10852 0.88689 0.0
C881 C 0.97568 0.15748 0.81416 0.0
C882 C 0.99408 0.1176 0.80642 0.0
C883 C 1.00513 0.09274 0.84294 0.0
C884 C 0.99029 0.15615 0.89535 0.0
C885 C 0.97797 0.17998 0.85881 0.0
C886 C 0.97682 0.06615 0.91524 0.0
C887 C 0.80932 0.91093 0.90792 0.0
H888 H 0.79744 0.58009 0.85344 0.0
H889 H 0.78458 0.64297 0.80491 0.0
H890 H 0.80868 0.75822 0.92293 0.0
H891 H 0.82616 0.69754 0.97172 0.0
H892 H 0.99317 0.10047 0.77205 0.0
H893 H 1.0116 0.0562 0.83576 0.0
H894 H 0.98506 0.16907 0.92905 0.0
H895 H 0.96432 0.21135 0.86517 0.0
Tb896 Tb 0.73685 0.70761 0.68174 0.0
Tb897 Tb 0.63406 0.62688 0.62669 0.0
C898 C 0.64041 0.67926 0.72042 0.0
C899 C 0.86368 0.78568 0.7041 0.0
C900 C 0.91709 0.74965 0.64881 0.0
C901 C 0.92807 0.75408 0.69642 0.0
C902 C 0.90113 0.77194 0.72412 0.0
C903 C 0.86077 0.79253 0.65767 0.0
C904 C 0.88672 0.7735 0.62992 0.0
C905 C 0.81861 0.77051 0.72439 0.0
O906 O 0.74907 0.63167 0.66657 0.0
O907 O 0.66916 0.57433 0.65861 0.0
O908 O 0.67873 0.63624 0.57403 0.0
O909 O 0.74973 0.70605 0.61105 0.0
O910 O 0.57219 0.56162 0.63826 0.0
O911 O 0.57448 0.593 0.57359 0.0
O912 O 0.63566 0.70694 0.61038 0.0
O913 O 0.70656 0.76524 0.65603 0.0
O914 O 0.68338 0.67719 0.7284 0.0
O915 O 0.6247 0.68018 0.67881 0.0
C916 C 0.71601 0.5818 0.6653 0.0
O917 O 0.78637 0.7875 0.70669 0.0
O918 O 0.79858 0.71908 0.72856 0.0
C919 C 0.72208 0.6744 0.57422 0.0
C920 C 0.5037 0.57665 0.60956 0.0
C921 C 0.43892 0.61712 0.64841 0.0
C922 C 0.46888 0.64546 0.61421 0.0
C923 C 0.50015 0.62452 0.59663 0.0
C924 C 0.47267 0.54514 0.63818 0.0
C925 C 0.4404 0.56141 0.65942 0.0
C926 C 0.54655 0.56478 0.60118 0.0
C927 C 0.66718 0.75697 0.62677 0.0
H928 H 0.95218 0.7367 0.71182 0.0
H929 H 0.9044 0.767 0.75991 0.0
H930 H 0.83308 0.80452 0.64138 0.0
H931 H 0.8788 0.7718 0.59335 0.0
H932 H 0.46908 0.68361 0.60488 0.0
H933 H 0.52416 0.64813 0.57453 0.0
H934 H 0.47578 0.50814 0.64683 0.0
H935 H 0.43467 0.58963 0.65835 0.0
Tb936 Tb 0.14431 0.63575 0.13251 0.0
Tb937 Tb 0.23002 0.66642 0.06937 0.0
C938 C 0.24644 0.64118 0.1679 0.0
C939 C 1.04533 0.6475 0.17911 0.0
C940 C 0.99961 0.72043 0.17831 0.0
C941 C 1.00884 0.70017 0.21882 0.0
C942 C 1.03263 0.66479 0.21938 0.0
C943 C 1.03448 0.66629 0.13836 0.0
C944 C 1.01216 0.70285 0.13802 0.0
C945 C 1.07828 0.61946 0.18064 0.0
O946 O 0.16028 0.72108 0.12434 0.0
O947 O 0.23624 0.74728 0.10309 0.0
O948 O 0.17501 0.68333 1.02879 0.0
O949 O 0.11019 0.63772 0.06569 0.0
O950 O 0.30325 0.71434 0.06621 0.0
O951 O 0.25977 0.65115 1.01145 0.0
O952 O 0.18581 0.57749 0.05121 0.0
O953 O 0.14857 0.55755 0.11459 0.0
O954 O 0.21152 0.65595 0.17688 0.0
O955 O 0.2543 0.63362 0.12646 0.0
C956 C 0.20082 0.76001 0.11693 0.0
O957 O 1.07375 0.58716 0.14385 0.0
O958 O 0.1236 0.65163 0.19516 0.0
C959 C 0.12876 0.66569 1.03334 0.0
C960 C 0.3359 0.65155 0.04434 0.0
C961 C 0.37925 0.59033 0.09138 0.0
C962 C 0.34122 0.5648 0.05486 0.0
C963 C 0.3194 0.59506 1.03177 0.0
C964 C 0.37713 0.67738 0.07787 0.0
C965 C 0.39802 0.64707 0.10158 0.0
C966 C 0.30387 0.68057 1.03261 0.0
C967 C 0.16136 0.54161 0.07711 0.0
H968 H 0.99873 0.71264 0.25023 0.0
H969 H 1.04267 0.65254 0.25136 0.0
H970 H 1.04492 0.65442 0.10698 0.0
H971 H 1.00474 0.71722 0.10624 0.0
H972 H 0.32674 0.5212 0.04562 0.0
H973 H 0.28773 0.57363 1.00613 0.0
H974 H 0.39092 0.72073 0.08833 0.0
H975 H 0.42831 0.66811 0.12868 0.0
loop_
_geom_bond_atom_site_label_1
_geom_bond_atom_site_label_2
_geom_bond_distance
_geom_bond_site_symmetry_2
_ccdc_geom_bond_type
O0 Cd1 2.223 . S
O0 C8 1.315 . S
Cd1 O0 2.223 . S
Cd1 O4 2.297 . S
Cd1 O5 2.439 . S
Cd1 O11 2.240 . S
Cd2 O3 2.240 . S
Cd2 O10 2.223 1_455 S
Cd2 O12 2.297 . S
Cd2 O13 2.439 . S
O3 Cd2 2.240 . S
O3 C8 1.279 . S
O4 Cd1 2.297 . S
O4 C6 1.247 . S
O5 Cd1 2.439 . S
O5 C6 1.208 . S
C6 O4 1.247 . S
C6 O5 1.208 . S
C7 O12 1.247 . S
C7 O13 1.208 . S
C8 O0 1.315 . S
C8 O3 1.279 . S
C9 O10 1.315 . S
C9 O11 1.279 1_655 S
O10 Cd2 2.223 1_655 S
O10 C9 1.315 . S
O11 Cd1 2.240 . S
O11 C9 1.279 1_455 S
O12 Cd2 2.297 . S
O12 C7 1.247 . S
O13 Cd2 2.439 . S
O13 C7 1.208 . S
O14 Cd15 2.223 . S
O14 C22 1.315 . S
Cd15 O14 2.223 . S
Cd15 O18 2.297 1_455 S
Cd15 O19 2.439 . S
Cd15 O25 2.240 . S
Cd16 O17 2.240 . S
Cd16 O24 2.223 . S
Cd16 O26 2.297 . S
Cd16 O27 2.439 . S
O17 Cd16 2.240 . S
O17 C22 1.279 . S
O18 Cd15 2.297 1_655 S
O18 C20 1.247 . S
O19 Cd15 2.439 . S
O19 C20 1.208 1_455 S
C20 O18 1.247 . S
C20 O19 1.208 1_655 S
C21 O26 1.247 . S
C21 O27 1.208 . S
C22 O14 1.315 . S
C22 O17 1.279 . S
C23 O24 1.315 . S
C23 O25 1.279 . S
O24 Cd16 2.223 . S
O24 C23 1.315 . S
O25 Cd15 2.240 . S
O25 C23 1.279 . S
O26 Cd16 2.297 . S
O26 C21 1.247 . S
O27 Cd16 2.439 . S
O27 C21 1.208 . S
O28 Cd29 2.223 . S
O28 C36 1.315 . S
Cd29 O28 2.223 . S
Cd29 O32 2.297 . S
Cd29 O33 2.439 . S
Cd29 O39 2.240 . S
Cd30 O31 2.240 . S
Cd30 O38 2.223 . S
Cd30 O40 2.297 . S
Cd30 O41 2.439 . S
O31 Cd30 2.240 . S
O31 C36 1.279 . S
O32 Cd29 2.297 . S
O32 C34 1.247 . S
O33 Cd29 2.439 . S
O33 C34 1.208 . S
C34 O32 1.247 . S
C34 O33 1.208 . S
C35 O40 1.247 . S
C35 O41 1.208 . S
C36 O28 1.315 . S
C36 O31 1.279 . S
C37 O38 1.315 . S
C37 O39 1.279 . S
O38 Cd30 2.223 . S
O38 C37 1.315 . S
O39 Cd29 2.240 . S
O39 C37 1.279 . S
O40 Cd30 2.297 . S
O40 C35 1.247 . S
O41 Cd30 2.439 . S
O41 C35 1.208 . S
O42 Cd43 2.223 . S
O42 C50 1.315 . S
Cd43 O42 2.223 . S
Cd43 O46 2.297 . S
Cd43 O47 2.439 . S
Cd43 O53 2.240 . S
Cd44 O45 2.240 . S
Cd44 O52 2.223 . S
Cd44 O54 2.297 . S
Cd44 O55 2.439 . S
O45 Cd44 2.240 . S
O45 C50 1.279 . S
O46 Cd43 2.297 . S
O46 C48 1.247 . S
O47 Cd43 2.439 . S
O47 C48 1.208 . S
C48 O46 1.247 . S
C48 O47 1.208 . S
C49 O54 1.247 . S
C49 O55 1.208 . S
C50 O42 1.315 . S
C50 O45 1.279 . S
C51 O52 1.315 . S
C51 O53 1.279 . S
O52 Cd44 2.223 . S
O52 C51 1.315 . S
O53 Cd43 2.240 . S
O53 C51 1.279 . S
O54 Cd44 2.297 . S
O54 C49 1.247 . S
O55 Cd44 2.439 . S
O55 C49 1.208 . S
O56 Cd57 2.223 . S
O56 C64 1.315 . S
Cd57 O56 2.223 . S
Cd57 O60 2.297 . S
Cd57 O61 2.439 . S
Cd57 O67 2.240 . S
Cd58 O59 2.240 . S
Cd58 O66 2.223 . S
Cd58 O68 2.297 . S
Cd58 O69 2.439 . S
O59 Cd58 2.240 . S
O59 C64 1.279 . S
O60 Cd57 2.297 . S
O60 C62 1.247 . S
O61 Cd57 2.439 . S
O61 C62 1.208 . S
C62 O60 1.247 . S
C62 O61 1.208 . S
C63 O68 1.247 1_545 S
C63 O69 1.208 1_545 S
C64 O56 1.315 . S
C64 O59 1.279 . S
C65 O66 1.315 . S
C65 O67 1.279 . S
O66 Cd58 2.223 . S
O66 C65 1.315 . S
O67 Cd57 2.240 . S
O67 C65 1.279 . S
O68 Cd58 2.297 . S
O68 C63 1.247 1_565 S
O69 Cd58 2.439 . S
O69 C63 1.208 1_565 S
O70 Cd71 2.223 . S
O70 C78 1.315 . S
Cd71 O70 2.223 . S
Cd71 O74 2.297 . S
Cd71 O75 2.439 . S
Cd71 O81 2.240 . S
Cd72 O73 2.240 . S
Cd72 O80 2.223 . S
Cd72 O82 2.297 . S
Cd72 O83 2.439 . S
O73 Cd72 2.240 . S
O73 C78 1.279 . S
O74 Cd71 2.297 . S
O74 C76 1.247 . S
O75 Cd71 2.439 . S
O75 C76 1.208 . S
C76 O74 1.247 . S
C76 O75 1.208 . S
C77 O82 1.247 . S
C77 O83 1.208 . S
C78 O70 1.315 . S
C78 O73 1.279 . S
C79 O80 1.315 . S
C79 O81 1.279 . S
O80 Cd72 2.223 . S
O80 C79 1.315 . S
O81 Cd71 2.240 . S
O81 C79 1.279 . S
O82 Cd72 2.297 . S
O82 C77 1.247 . S
O83 Cd72 2.439 . S
O83 C77 1.208 . S
O84 Cd85 2.223 . S
O84 C92 1.315 . S
Cd85 O84 2.223 . S
Cd85 O88 2.297 . S
Cd85 O89 2.439 . S
Cd85 O95 2.240 . S
Cd86 O87 2.240 . S
Cd86 O94 2.223 . S
Cd86 O96 2.297 . S
Cd86 O97 2.439 . S
O87 Cd86 2.240 . S
O87 C92 1.279 . S
O88 Cd85 2.297 . S
O88 C90 1.247 . S
O89 Cd85 2.439 . S
O89 C90 1.208 . S
C90 O88 1.247 . S
C90 O89 1.208 . S
C91 O96 1.247 . S
C91 O97 1.208 . S
C92 O84 1.315 . S
C92 O87 1.279 . S
C93 O94 1.315 . S
C93 O95 1.279 . S
O94 Cd86 2.223 . S
O94 C93 1.315 . S
O95 Cd85 2.240 . S
O95 C93 1.279 . S
O96 Cd86 2.297 . S
O96 C91 1.247 . S
O97 Cd86 2.439 . S
O97 C91 1.208 . S
O98 Cd99 2.223 . S
O98 C106 1.315 . S
Cd99 O98 2.223 . S
Cd99 O102 2.297 1_655 S
Cd99 O103 2.439 1_655 S
Cd99 O109 2.240 . S
Cd100 O101 2.240 1_655 S
Cd100 O108 2.223 1_554 S
Cd100 O110 2.297 . S
Cd100 O111 2.439 1_655 S
O101 Cd100 2.240 1_455 S
O101 C106 1.279 1_454 S
O102 Cd99 2.297 1_455 S
O102 C104 1.247 . S
O103 Cd99 2.439 1_455 S
O103 C104 1.208 . S
C104 O102 1.247 . S
C104 O103 1.208 . S
C105 O110 1.247 1_455 S
C105 O111 1.208 . S
C106 O98 1.315 . S
C106 O101 1.279 1_656 S
C107 O108 1.315 . S
C107 O109 1.279 . S
O108 Cd100 2.223 1_556 S
O108 C107 1.315 . S
O109 Cd99 2.240 . S
O109 C107 1.279 . S
O110 Cd100 2.297 . S
O110 C105 1.247 1_655 S
O111 Cd100 2.439 1_455 S
O111 C105 1.208 . S
O112 Cd113 2.223 . S
O112 C120 1.315 . S
Cd113 O112 2.223 . S
Cd113 O116 2.297 . S
Cd113 O117 2.439 . S
Cd113 O123 2.240 1_545 S
Cd114 O115 2.240 . S
Cd114 O122 2.223 1_545 S
Cd114 O124 2.297 . S
Cd114 O125 2.439 . S
O115 Cd114 2.240 . S
O115 C120 1.279 . S
O116 Cd113 2.297 . S
O116 C118 1.247 . S
O117 Cd113 2.439 . S
O117 C118 1.208 . S
C118 O116 1.247 . S
C118 O117 1.208 . S
C119 O124 1.247 . S
C119 O125 1.208 . S
C120 O112 1.315 . S
C120 O115 1.279 . S
C121 O122 1.315 . S
C121 O123 1.279 . S
O122 Cd114 2.223 1_565 S
O122 C121 1.315 . S
O123 Cd113 2.240 1_565 S
O123 C121 1.279 . S
O124 Cd114 2.297 . S
O124 C119 1.247 . S
O125 Cd114 2.439 . S
O125 C119 1.208 . S
O126 Cd127 2.223 . S
O126 C134 1.315 . S
Cd127 O126 2.223 . S
Cd127 O130 2.297 . S
Cd127 O131 2.439 . S
Cd127 O137 2.240 . S
Cd128 O129 2.240 . S
Cd128 O136 2.223 . S
Cd128 O138 2.297 . S
Cd128 O139 2.439 . S
O129 Cd128 2.240 . S
O129 C134 1.279 . S
O130 Cd127 2.297 . S
O130 C132 1.247 . S
O131 Cd127 2.439 . S
O131 C132 1.208 . S
C132 O130 1.247 . S
C132 O131 1.208 . S
C133 O138 1.247 . S
C133 O139 1.208 . S
C134 O126 1.315 . S
C134 O129 1.279 . S
C135 O136 1.315 . S
C135 O137 1.279 . S
O136 Cd128 2.223 . S
O136 C135 1.315 . S
O137 Cd127 2.240 . S
O137 C135 1.279 . S
O138 Cd128 2.297 . S
O138 C133 1.247 . S
O139 Cd128 2.439 . S
O139 C133 1.208 . S
O140 Cd141 2.223 . S
O140 C148 1.315 . S
Cd141 O140 2.223 . S
Cd141 O144 2.297 . S
Cd141 O145 2.439 . S
Cd141 O151 2.240 . S
Cd142 O143 2.240 . S
Cd142 O150 2.223 . S
Cd142 O152 2.297 1_556 S
Cd142 O153 2.439 1_556 S
O143 Cd142 2.240 . S
O143 C148 1.279 . S
O144 Cd141 2.297 . S
O144 C146 1.247 . S
O145 Cd141 2.439 . S
O145 C146 1.208 . S
C146 O144 1.247 . S
C146 O145 1.208 . S
C147 O152 1.247 . S
C147 O153 1.208 . S
C148 O140 1.315 . S
C148 O143 1.279 . S
C149 O150 1.315 . S
C149 O151 1.279 . S
O150 Cd142 2.223 . S
O150 C149 1.315 . S
O151 Cd141 2.240 . S
O151 C149 1.279 . S
O152 Cd142 2.297 1_554 S
O152 C147 1.247 . S
O153 Cd142 2.439 1_554 S
O153 C147 1.208 . S
O154 Cd155 2.223 . S
O154 C162 1.315 1_545 S
Cd155 O154 2.223 . S
Cd155 O158 2.297 . S
Cd155 O159 2.439 1_554 S
Cd155 O165 2.229 1_554 S
Cd156 O157 2.240 1_556 S
Cd156 O164 2.223 1_556 S
Cd156 O166 2.297 . S
Cd156 O167 2.439 . S
O157 Cd156 2.240 1_554 S
O157 C162 1.279 . S
O158 Cd155 2.297 . S
O158 C160 1.247 . S
O159 Cd155 2.439 1_556 S
O159 C160 1.208 1_556 S
C160 O158 1.247 . S
C160 O159 1.208 1_554 S
C161 O166 1.247 . S
C161 O167 1.208 . S
C162 O154 1.315 1_565 S
C162 O157 1.279 . S
C163 O164 1.315 1_545 S
C163 O165 1.273 1_554 S
O164 Cd156 2.223 1_554 S
O164 C163 1.315 1_565 S
O165 Cd155 2.229 1_556 S
O165 C163 1.273 1_556 S
O166 Cd156 2.297 . S
O166 C161 1.247 . S
O167 Cd156 2.439 . S
O167 C161 1.208 . S
O168 Cd169 2.223 . S
O168 C176 1.315 . S
Cd169 O168 2.223 . S
Cd169 O172 2.297 . S
Cd169 O173 2.439 . S
Cd169 O179 2.240 . S
Cd170 O171 2.240 . S
Cd170 O178 2.223 . S
Cd170 O180 2.297 1_554 S
Cd170 O181 2.449 . S
O171 Cd170 2.240 . S
O171 C176 1.279 . S
O172 Cd169 2.297 . S
O172 C174 1.247 . S
O173 Cd169 2.439 . S
O173 C174 1.208 . S
C174 O172 1.247 . S
C174 O173 1.208 . S
C175 O180 1.247 . S
C175 O181 1.201 1_556 S
C176 O168 1.315 . S
C176 O171 1.279 . S
C177 O178 1.315 . S
C177 O179 1.279 . S
O178 Cd170 2.223 . S
O178 C177 1.315 . S
O179 Cd169 2.240 . S
O179 C177 1.279 . S
O180 Cd170 2.297 1_556 S
O180 C175 1.247 . S
O181 Cd170 2.449 . S
O181 C175 1.201 1_554 S
O182 Cd183 2.223 . S
O182 C190 1.315 . S
Cd183 O182 2.223 . S
Cd183 O186 2.297 . S
Cd183 O187 2.439 . S
Cd183 O193 2.240 . S
Cd184 O185 2.240 . S
Cd184 O192 2.223 . S
Cd184 O194 2.297 . S
Cd184 O195 2.439 . S
O185 Cd184 2.240 . S
O185 C190 1.279 . S
O186 Cd183 2.297 . S
O186 C188 1.247 . S
O187 Cd183 2.439 . S
O187 C188 1.208 . S
C188 O186 1.247 . S
C188 O187 1.208 . S
C189 O194 1.247 . S
C189 O195 1.208 . S
C190 O182 1.315 . S
C190 O185 1.279 . S
C191 O192 1.315 . S
C191 O193 1.279 . S
O192 Cd184 2.223 . S
O192 C191 1.315 . S
O193 Cd183 2.240 . S
O193 C191 1.279 . S
O194 Cd184 2.297 . S
O194 C189 1.247 . S
O195 Cd184 2.439 . S
O195 C189 1.208 . S
O196 Cd197 2.223 . S
O196 C204 1.315 . S
Cd197 O196 2.223 . S
Cd197 O200 2.297 . S
Cd197 O201 2.439 . S
Cd197 O207 2.240 . S
Cd198 O199 2.240 . S
Cd198 O206 2.223 . S
Cd198 O208 2.297 . S
Cd198 O209 2.439 . S
O199 Cd198 2.240 . S
O199 C204 1.279 . S
O200 Cd197 2.297 . S
O200 C202 1.247 . S
O201 Cd197 2.439 . S
O201 C202 1.208 . S
C202 O200 1.247 . S
C202 O201 1.208 . S
C203 O208 1.247 . S
C203 O209 1.208 . S
C204 O196 1.315 . S
C204 O199 1.279 . S
C205 O206 1.315 . S
C205 O207 1.279 . S
O206 Cd198 2.223 . S
O206 C205 1.315 . S
O207 Cd197 2.240 . S
O207 C205 1.279 . S
O208 Cd198 2.297 . S
O208 C203 1.247 . S
O209 Cd198 2.439 . S
O209 C203 1.208 . S
O210 Cd211 2.223 . S
O210 C218 1.315 . S
Cd211 O210 2.223 . S
Cd211 O214 2.297 1_565 S
Cd211 O215 2.439 . S
Cd211 O221 2.240 . S
Cd212 O213 2.240 . S
Cd212 O220 2.223 . S
Cd212 O222 2.297 . S
Cd212 O223 2.439 . S
O213 Cd212 2.240 . S
O213 C218 1.279 . S
O214 Cd211 2.297 1_545 S
O214 C216 1.247 1_545 S
O215 Cd211 2.439 . S
O215 C216 1.208 . S
C216 O214 1.247 1_565 S
C216 O215 1.208 . S
C217 O222 1.247 . S
C217 O223 1.208 . S
C218 O210 1.315 . S
C218 O213 1.279 . S
C219 O220 1.315 . S
C219 O221 1.279 . S
O220 Cd212 2.223 . S
O220 C219 1.315 . S
O221 Cd211 2.240 . S
O221 C219 1.279 . S
O222 Cd212 2.297 . S
O222 C217 1.247 . S
O223 Cd212 2.439 . S
O223 C217 1.208 . S
O224 Cd225 2.223 . S
O224 C232 1.315 . S
Cd225 O224 2.223 . S
Cd225 O228 2.297 1_565 S
Cd225 O229 2.439 1_565 S
Cd225 O235 2.240 . S
Cd226 O227 2.240 1_565 S
Cd226 O234 2.223 . S
Cd226 O236 2.297 . S
Cd226 O237 2.439 1_565 S
O227 Cd226 2.240 1_545 S
O227 C232 1.279 1_545 S
O228 Cd225 2.297 1_545 S
O228 C230 1.247 . S
O229 Cd225 2.439 1_545 S
O229 C230 1.208 . S
C230 O228 1.247 . S
C230 O229 1.208 . S
C231 O236 1.247 1_545 S
C231 O237 1.208 . S
C232 O224 1.315 . S
C232 O227 1.279 1_565 S
C233 O234 1.315 . S
C233 O235 1.279 . S
O234 Cd226 2.223 . S
O234 C233 1.315 . S
O235 Cd225 2.240 . S
O235 C233 1.279 . S
O236 Cd226 2.297 . S
O236 C231 1.247 1_565 S
O237 Cd226 2.439 1_545 S
O237 C231 1.208 . S
O238 Cd239 2.223 . S
O238 C246 1.315 . S
Cd239 O238 2.223 . S
Cd239 O242 2.297 . S
Cd239 O243 2.439 . S
Cd239 O249 2.240 . S
Cd240 O241 2.240 . S
Cd240 O248 2.223 . S
Cd240 O250 2.297 . S
Cd240 O251 2.439 . S
O241 Cd240 2.240 . S
O241 C246 1.279 . S
O242 Cd239 2.297 . S
O242 C244 1.247 . S
O243 Cd239 2.439 . S
O243 C244 1.208 . S
C244 O242 1.247 . S
C244 O243 1.208 . S
C245 O250 1.247 . S
C245 O251 1.208 . S
C246 O238 1.315 . S
C246 O241 1.279 . S
C247 O248 1.315 . S
C247 O249 1.279 . S
O248 Cd240 2.223 . S
O248 C247 1.315 . S
O249 Cd239 2.240 . S
O249 C247 1.279 . S
O250 Cd240 2.297 . S
O250 C245 1.247 . S
O251 Cd240 2.439 . S
O251 C245 1.208 . S
O252 Cd253 2.223 . S
O252 C260 1.315 . S
Cd253 O252 2.223 . S
Cd253 O256 2.297 . S
Cd253 O257 2.439 . S
Cd253 O263 2.240 . S
Cd254 O255 2.240 . S
Cd254 O262 2.223 . S
Cd254 O264 2.297 . S
Cd254 O265 2.439 . S
O255 Cd254 2.240 . S
O255 C260 1.279 . S
O256 Cd253 2.297 . S
O256 C258 1.247 . S
O257 Cd253 2.439 . S
O257 C258 1.208 . S
C258 O256 1.247 . S
C258 O257 1.208 . S
C259 O264 1.247 . S
C259 O265 1.208 . S
C260 O252 1.315 . S
C260 O255 1.279 . S
C261 O262 1.315 . S
C261 O263 1.279 . S
O262 Cd254 2.223 . S
O262 C261 1.315 . S
O263 Cd253 2.240 . S
O263 C261 1.279 . S
O264 Cd254 2.297 . S
O264 C259 1.247 . S
O265 Cd254 2.439 . S
O265 C259 1.208 . S
O266 Cd267 2.223 . S
O266 C274 1.315 . S
Cd267 O266 2.223 . S
Cd267 O270 2.297 . S
Cd267 O271 2.439 . S
Cd267 O277 2.240 . S
Cd268 O269 2.240 . S
Cd268 O276 2.223 . S
Cd268 O278 2.297 . S
Cd268 O279 2.439 . S
O269 Cd268 2.240 . S
O269 C274 1.279 . S
O270 Cd267 2.297 . S
O270 C272 1.247 . S
O271 Cd267 2.439 . S
O271 C272 1.208 . S
C272 O270 1.247 . S
C272 O271 1.208 . S
C273 O278 1.247 . S
C273 O279 1.208 . S
C274 O266 1.315 . S
C274 O269 1.279 . S
C275 O276 1.315 . S
C275 O277 1.279 . S
O276 Cd268 2.223 . S
O276 C275 1.315 . S
O277 Cd267 2.240 . S
O277 C275 1.279 . S
O278 Cd268 2.297 . S
O278 C273 1.247 . S
O279 Cd268 2.439 . S
O279 C273 1.208 . S
O280 Cd281 2.223 . S
O280 C288 1.315 . S
Cd281 O280 2.223 . S
Cd281 O284 2.297 . S
Cd281 O285 2.439 . S
Cd281 O291 2.240 . S
Cd282 O283 2.240 . S
Cd282 O290 2.223 . S
Cd282 O292 2.297 . S
Cd282 O293 2.439 . S
O283 Cd282 2.240 . S
O283 C288 1.279 . S
O284 Cd281 2.297 . S
O284 C286 1.247 . S
O285 Cd281 2.439 . S
O285 C286 1.208 . S
C286 O284 1.247 . S
C286 O285 1.208 . S
C287 O292 1.247 1_556 S
C287 O293 1.208 1_556 S
C288 O280 1.315 . S
C288 O283 1.279 . S
C289 O290 1.315 . S
C289 O291 1.279 . S
O290 Cd282 2.223 . S
O290 C289 1.315 . S
O291 Cd281 2.240 . S
O291 C289 1.279 . S
O292 Cd282 2.297 . S
O292 C287 1.247 1_554 S
O293 Cd282 2.439 . S
O293 C287 1.208 1_554 S
O294 Cd295 2.223 . S
O294 C302 1.315 . S
Cd295 O294 2.223 . S
Cd295 O298 2.297 . S
Cd295 O299 2.439 . S
Cd295 O305 2.240 . S
Cd296 O297 2.240 1_455 S
Cd296 O304 2.223 1_455 S
Cd296 O306 2.297 . S
Cd296 O307 2.442 . S
O297 Cd296 2.240 1_655 S
O297 C302 1.279 . S
O298 Cd295 2.297 . S
O298 C300 1.247 . S
O299 Cd295 2.439 . S
O299 C300 1.208 . S
C300 O298 1.247 . S
C300 O299 1.208 . S
C301 O306 1.247 1_554 S
C301 O307 1.213 1_554 S
C302 O294 1.315 . S
C302 O297 1.279 . S
C303 O304 1.315 . S
C303 O305 1.279 . S
O304 Cd296 2.223 1_655 S
O304 C303 1.315 . S
O305 Cd295 2.240 . S
O305 C303 1.279 . S
O306 Cd296 2.297 . S
O306 C301 1.247 1_556 S
O307 Cd296 2.442 . S
O307 C301 1.213 1_556 S
O308 Cd309 2.223 . S
O308 C316 1.315 . S
Cd309 O308 2.223 . S
Cd309 O312 2.297 . S
Cd309 O313 2.439 . S
Cd309 O319 2.240 . S
Cd310 O311 2.240 . S
Cd310 O318 2.223 . S
Cd310 O320 2.297 . S
Cd310 O321 2.439 . S
O311 Cd310 2.240 . S
O311 C316 1.279 . S
O312 Cd309 2.297 . S
O312 C314 1.247 . S
O313 Cd309 2.439 . S
O313 C314 1.208 . S
C314 O312 1.247 . S
C314 O313 1.208 . S
C315 O320 1.247 . S
C315 O321 1.208 . S
C316 O308 1.315 . S
C316 O311 1.279 . S
C317 O318 1.315 . S
C317 O319 1.279 . S
O318 Cd310 2.223 . S
O318 C317 1.315 . S
O319 Cd309 2.240 . S
O319 C317 1.279 . S
O320 Cd310 2.297 . S
O320 C315 1.247 . S
O321 Cd310 2.439 . S
O321 C315 1.208 . S
O322 Cd323 2.223 . S
O322 C330 1.315 . S
Cd323 O322 2.223 . S
Cd323 O326 2.297 . S
Cd323 O327 2.439 . S
Cd323 O333 2.240 . S
Cd324 O325 2.240 . S
Cd324 O332 2.223 . S
Cd324 O334 2.297 . S
Cd324 O335 2.439 . S
O325 Cd324 2.240 . S
O325 C330 1.279 . S
O326 Cd323 2.297 . S
O326 C328 1.247 . S
O327 Cd323 2.439 . S
O327 C328 1.208 . S
C328 O326 1.247 . S
C328 O327 1.208 . S
C329 O334 1.247 . S
C329 O335 1.208 . S
C330 O322 1.315 . S
C330 O325 1.279 . S
C331 O332 1.315 . S
C331 O333 1.279 . S
O332 Cd324 2.223 . S
O332 C331 1.315 . S
O333 Cd323 2.240 . S
O333 C331 1.279 . S
O334 Cd324 2.297 . S
O334 C329 1.247 . S
O335 Cd324 2.439 . S
O335 C329 1.208 . S
Tb336 C345 2.764 . S
Tb336 O346 2.325 . S
Tb336 O349 2.303 . S
Tb336 O353 2.322 . S
Tb336 O354 2.349 . S
Tb336 O357 2.415 . S
Tb336 O358 2.399 . S
Tb337 O347 2.322 . S
Tb337 O348 2.349 . S
Tb337 O350 2.415 1_455 S
Tb337 O351 2.399 1_455 S
Tb337 O352 2.325 . S
Tb337 O355 2.303 . S
Tb337 C366 2.764 1_455 S
C338 O354 1.261 . S
C338 O355 1.257 . S
C339 C342 1.358 . S
C339 C343 1.332 . S
C339 C345 1.504 . S
C340 C341 1.373 . S
C340 C344 1.308 . S
C341 C340 1.373 . S
C341 C342 1.429 . S
C341 H368 0.932 . S
C342 C339 1.358 . S
C342 C341 1.429 . S
C342 H369 0.930 . S
C343 C339 1.332 . S
C343 C344 1.394 . S
C343 H370 0.932 . S
C344 C340 1.308 . S
C344 C343 1.394 . S
C344 H371 0.929 . S
C345 Tb336 2.764 . S
C345 C339 1.504 . S
C345 O357 1.239 . S
C345 O358 1.263 . S
O346 Tb336 2.325 . S
O346 C356 1.236 . S
O347 Tb337 2.322 . S
O347 C356 1.257 . S
O348 Tb337 2.349 . S
O348 C359 1.261 . S
O349 Tb336 2.303 . S
O349 C359 1.257 . S
O350 Tb337 2.415 1_655 S
O350 C366 1.239 . S
O351 Tb337 2.399 1_655 S
O351 C366 1.263 . S
O352 Tb337 2.325 . S
O352 C367 1.236 . S
O353 Tb336 2.322 . S
O353 C367 1.257 . S
O354 Tb336 2.349 . S
O354 C338 1.261 . S
O355 Tb337 2.303 . S
O355 C338 1.257 . S
C356 O346 1.236 . S
C356 O347 1.257 . S
O357 Tb336 2.415 . S
O357 C345 1.239 . S
O358 Tb336 2.399 . S
O358 C345 1.263 . S
C359 O348 1.261 . S
C359 O349 1.257 . S
C360 C363 1.358 1_554 S
C360 C364 1.332 . S
C360 C366 1.504 . S
C361 C362 1.373 1_554 S
C361 C365 1.308 . S
C362 C361 1.373 1_556 S
C362 C363 1.429 . S
C362 H372 0.932 . S
C363 C360 1.358 1_556 S
C363 C362 1.429 . S
C363 H373 0.930 . S
C364 C360 1.332 . S
C364 C365 1.394 . S
C364 H374 0.932 . S
C365 C361 1.308 . S
C365 C364 1.394 . S
C365 H375 0.929 . S
C366 Tb337 2.764 1_655 S
C366 O350 1.239 . S
C366 O351 1.263 . S
C366 C360 1.504 . S
C367 O352 1.236 . S
C367 O353 1.257 . S
H368 C341 0.932 . S
H369 C342 0.930 . S
H370 C343 0.932 . S
H371 C344 0.929 . S
H372 C362 0.932 . S
H373 C363 0.930 . S
H374 C364 0.932 . S
H375 C365 0.929 . S
Tb376 C385 2.764 . S
Tb376 O386 2.325 . S
Tb376 O389 2.303 . S
Tb376 O393 2.322 . S
Tb376 O394 2.349 . S
Tb376 O397 2.415 . S
Tb376 O398 2.399 . S
Tb377 O387 2.322 . S
Tb377 O388 2.349 . S
Tb377 O390 2.415 . S
Tb377 O391 2.399 . S
Tb377 O392 2.325 . S
Tb377 O395 2.303 . S
Tb377 C406 2.764 . S
C378 O394 1.261 . S
C378 O395 1.257 . S
C379 C382 1.358 . S
C379 C383 1.332 . S
C379 C385 1.504 . S
C380 C381 1.373 . S
C380 C384 1.308 . S
C381 C380 1.373 . S
C381 C382 1.429 . S
C381 H408 0.932 . S
C382 C379 1.358 . S
C382 C381 1.429 . S
C382 H409 0.930 . S
C383 C379 1.332 . S
C383 C384 1.394 . S
C383 H410 0.932 . S
C384 C380 1.308 . S
C384 C383 1.394 . S
C384 H411 0.929 . S
C385 Tb376 2.764 . S
C385 C379 1.504 . S
C385 O397 1.239 . S
C385 O398 1.263 . S
O386 Tb376 2.325 . S
O386 C396 1.236 . S
O387 Tb377 2.322 . S
O387 C396 1.257 . S
O388 Tb377 2.349 . S
O388 C399 1.261 . S
O389 Tb376 2.303 . S
O389 C399 1.257 . S
O390 Tb377 2.415 . S
O390 C406 1.239 . S
O391 Tb377 2.399 . S
O391 C406 1.263 . S
O392 Tb377 2.325 . S
O392 C407 1.236 . S
O393 Tb376 2.322 . S
O393 C407 1.257 . S
O394 Tb376 2.349 . S
O394 C378 1.261 . S
O395 Tb377 2.303 . S
O395 C378 1.257 . S
C396 O386 1.236 . S
C396 O387 1.257 . S
O397 Tb376 2.415 . S
O397 C385 1.239 . S
O398 Tb376 2.399 . S
O398 C385 1.263 . S
C399 O388 1.261 . S
C399 O389 1.257 . S
C400 C403 1.358 . S
C400 C404 1.332 . S
C400 C406 1.504 . S
C401 C402 1.373 1_545 S
C401 C405 1.308 . S
C402 C401 1.373 1_565 S
C402 C403 1.429 . S
C402 H412 0.932 . S
C403 C400 1.358 . S
C403 C402 1.429 . S
C403 H413 0.930 . S
C404 C400 1.332 . S
C404 C405 1.394 1_565 S
C404 H414 0.932 1_565 S
C405 C401 1.308 . S
C405 C404 1.394 1_545 S
C405 H415 0.929 . S
C406 Tb377 2.764 . S
C406 O390 1.239 . S
C406 O391 1.263 . S
C406 C400 1.504 . S
C407 O392 1.236 . S
C407 O393 1.257 . S
H408 C381 0.932 . S
H409 C382 0.930 . S
H410 C383 0.932 . S
H411 C384 0.929 . S
H412 C402 0.932 . S
H413 C403 0.930 . S
H414 C404 0.932 1_545 S
H415 C405 0.929 . S
Tb416 C425 2.764 . S
Tb416 O426 2.325 . S
Tb416 O429 2.303 . S
Tb416 O433 2.322 . S
Tb416 O434 2.349 . S
Tb416 O437 2.415 . S
Tb416 O438 2.399 . S
Tb417 O427 2.322 . S
Tb417 O428 2.349 . S
Tb417 O430 2.415 . S
Tb417 O431 2.399 . S
Tb417 O432 2.325 . S
Tb417 O435 2.303 . S
Tb417 C446 2.764 . S
C418 O434 1.261 . S
C418 O435 1.257 . S
C419 C422 1.358 . S
C419 C423 1.332 . S
C419 C425 1.504 . S
C420 C421 1.373 . S
C420 C424 1.308 . S
C421 C420 1.373 . S
C421 C422 1.429 . S
C421 H448 0.932 . S
C422 C419 1.358 . S
C422 C421 1.429 . S
C422 H449 0.930 . S
C423 C419 1.332 . S
C423 C424 1.394 . S
C423 H450 0.932 . S
C424 C420 1.308 . S
C424 C423 1.394 . S
C424 H451 0.929 . S
C425 Tb416 2.764 . S
C425 C419 1.504 . S
C425 O437 1.239 . S
C425 O438 1.263 . S
O426 Tb416 2.325 . S
O426 C436 1.236 . S
O427 Tb417 2.322 . S
O427 C436 1.257 . S
O428 Tb417 2.349 . S
O428 C439 1.261 . S
O429 Tb416 2.303 . S
O429 C439 1.257 . S
O430 Tb417 2.415 . S
O430 C446 1.239 . S
O431 Tb417 2.399 . S
O431 C446 1.263 . S
O432 Tb417 2.325 . S
O432 C447 1.236 . S
O433 Tb416 2.322 . S
O433 C447 1.257 . S
O434 Tb416 2.349 . S
O434 C418 1.261 . S
O435 Tb417 2.303 . S
O435 C418 1.257 . S
C436 O426 1.236 . S
C436 O427 1.257 . S
O437 Tb416 2.415 . S
O437 C425 1.239 . S
O438 Tb416 2.399 . S
O438 C425 1.263 . S
C439 O428 1.261 . S
C439 O429 1.257 . S
C440 C443 1.358 . S
C440 C444 1.332 . S
C440 C446 1.504 . S
C441 C442 1.373 . S
C441 C445 1.308 . S
C442 C441 1.373 . S
C442 C443 1.429 . S
C442 H452 0.932 . S
C443 C440 1.358 . S
C443 C442 1.429 . S
C443 H453 0.930 . S
C444 C440 1.332 . S
C444 C445 1.394 . S
C444 H454 0.932 . S
C445 C441 1.308 . S
C445 C444 1.394 . S
C445 H455 0.929 1_545 S
C446 Tb417 2.764 . S
C446 O430 1.239 . S
C446 O431 1.263 . S
C446 C440 1.504 . S
C447 O432 1.236 . S
C447 O433 1.257 . S
H448 C421 0.932 . S
H449 C422 0.930 . S
H450 C423 0.932 . S
H451 C424 0.929 . S
H452 C442 0.932 . S
H453 C443 0.930 . S
H454 C444 0.932 . S
H455 C445 0.929 1_565 S
Tb456 C465 2.764 . S
Tb456 O466 2.325 . S
Tb456 O469 2.303 . S
Tb456 O473 2.322 . S
Tb456 O474 2.349 . S
Tb456 O477 2.415 . S
Tb456 O478 2.399 . S
Tb457 O467 2.322 . S
Tb457 O468 2.349 . S
Tb457 O470 2.415 . S
Tb457 O471 2.399 . S
Tb457 O472 2.325 . S
Tb457 O475 2.303 . S
Tb457 C486 2.764 . S
C458 O474 1.261 . S
C458 O475 1.257 . S
C459 C462 1.358 . S
C459 C463 1.332 . S
C459 C465 1.504 . S
C460 C461 1.373 . S
C460 C464 1.308 . S
C461 C460 1.373 . S
C461 C462 1.429 . S
C461 H488 0.932 . S
C462 C459 1.358 . S
C462 C461 1.429 . S
C462 H489 0.930 . S
C463 C459 1.332 . S
C463 C464 1.394 . S
C463 H490 0.932 . S
C464 C460 1.308 . S
C464 C463 1.394 . S
C464 H491 0.929 . S
C465 Tb456 2.764 . S
C465 C459 1.504 . S
C465 O477 1.239 . S
C465 O478 1.263 . S
O466 Tb456 2.325 . S
O466 C476 1.236 . S
O467 Tb457 2.322 . S
O467 C476 1.257 . S
O468 Tb457 2.349 . S
O468 C479 1.261 . S
O469 Tb456 2.303 . S
O469 C479 1.257 . S
O470 Tb457 2.415 . S
O470 C486 1.239 . S
O471 Tb457 2.399 . S
O471 C486 1.263 . S
O472 Tb457 2.325 . S
O472 C487 1.236 . S
O473 Tb456 2.322 . S
O473 C487 1.257 . S
O474 Tb456 2.349 . S
O474 C458 1.261 . S
O475 Tb457 2.303 . S
O475 C458 1.257 . S
C476 O466 1.236 . S
C476 O467 1.257 . S
O477 Tb456 2.415 . S
O477 C465 1.239 . S
O478 Tb456 2.399 . S
O478 C465 1.263 . S
C479 O468 1.261 . S
C479 O469 1.257 . S
C480 C483 1.358 . S
C480 C484 1.332 . S
C480 C486 1.504 . S
C481 C482 1.373 . S
C481 C485 1.308 . S
C482 C481 1.373 . S
C482 C483 1.429 . S
C482 H492 0.932 . S
C483 C480 1.358 . S
C483 C482 1.429 . S
C483 H493 0.930 . S
C484 C480 1.332 . S
C484 C485 1.394 . S
C484 H494 0.932 . S
C485 C481 1.308 . S
C485 C484 1.394 . S
C485 H495 0.929 . S
C486 Tb457 2.764 . S
C486 O470 1.239 . S
C486 O471 1.263 . S
C486 C480 1.504 . S
C487 O472 1.236 . S
C487 O473 1.257 . S
H488 C461 0.932 . S
H489 C462 0.930 . S
H490 C463 0.932 . S
H491 C464 0.929 . S
H492 C482 0.932 . S
H493 C483 0.930 . S
H494 C484 0.932 . S
H495 C485 0.929 . S
Tb496 C505 2.764 . S
Tb496 O506 2.325 . S
Tb496 O509 2.303 . S
Tb496 O513 2.322 . S
Tb496 O514 2.349 . S
Tb496 O517 2.415 . S
Tb496 O518 2.399 . S
Tb497 O507 2.322 . S
Tb497 O508 2.349 . S
Tb497 O510 2.415 . S
Tb497 O511 2.399 . S
Tb497 O512 2.325 . S
Tb497 O515 2.303 . S
Tb497 C526 2.764 . S
C498 O514 1.261 . S
C498 O515 1.257 . S
C499 C502 1.358 . S
C499 C503 1.332 . S
C499 C505 1.504 . S
C500 C501 1.373 . S
C500 C504 1.308 . S
C501 C500 1.373 . S
C501 C502 1.429 . S
C501 H528 0.932 . S
C502 C499 1.358 . S
C502 C501 1.429 . S
C502 H529 0.930 . S
C503 C499 1.332 . S
C503 C504 1.394 . S
C503 H530 0.932 . S
C504 C500 1.308 . S
C504 C503 1.394 . S
C504 H531 0.929 . S
C505 Tb496 2.764 . S
C505 C499 1.504 . S
C505 O517 1.239 . S
C505 O518 1.263 . S
O506 Tb496 2.325 . S
O506 C516 1.236 . S
O507 Tb497 2.322 . S
O507 C516 1.257 . S
O508 Tb497 2.349 . S
O508 C519 1.261 . S
O509 Tb496 2.303 . S
O509 C519 1.257 . S
O510 Tb497 2.415 . S
O510 C526 1.239 . S
O511 Tb497 2.399 . S
O511 C526 1.263 . S
O512 Tb497 2.325 . S
O512 C527 1.236 . S
O513 Tb496 2.322 . S
O513 C527 1.257 . S
O514 Tb496 2.349 . S
O514 C498 1.261 . S
O515 Tb497 2.303 . S
O515 C498 1.257 . S
C516 O506 1.236 . S
C516 O507 1.257 . S
O517 Tb496 2.415 . S
O517 C505 1.239 . S
O518 Tb496 2.399 . S
O518 C505 1.263 . S
C519 O508 1.261 . S
C519 O509 1.257 . S
C520 C523 1.358 . S
C520 C524 1.332 1_455 S
C520 C526 1.504 . S
C521 C522 1.373 1_655 S
C521 C525 1.308 . S
C522 C521 1.373 1_455 S
C522 C523 1.429 . S
C522 H532 0.932 . S
C523 C520 1.358 . S
C523 C522 1.429 . S
C523 H533 0.930 . S
C524 C520 1.332 1_655 S
C524 C525 1.394 . S
C524 H534 0.932 . S
C525 C521 1.308 . S
C525 C524 1.394 . S
C525 H535 0.929 . S
C526 Tb497 2.764 . S
C526 O510 1.239 . S
C526 O511 1.263 . S
C526 C520 1.504 . S
C527 O512 1.236 . S
C527 O513 1.257 . S
H528 C501 0.932 . S
H529 C502 0.930 . S
H530 C503 0.932 . S
H531 C504 0.929 . S
H532 C522 0.932 . S
H533 C523 0.930 . S
H534 C524 0.932 . S
H535 C525 0.929 . S
Tb536 C545 2.764 1_565 S
Tb536 O546 2.325 . S
Tb536 O549 2.303 . S
Tb536 O553 2.322 . S
Tb536 O554 2.349 . S
Tb536 O557 2.415 . S
Tb536 O558 2.399 . S
Tb537 O547 2.322 . S
Tb537 O548 2.349 . S
Tb537 O550 2.415 . S
Tb537 O551 2.399 . S
Tb537 O552 2.325 . S
Tb537 O555 2.303 . S
Tb537 C566 2.764 . S
C538 O554 1.261 . S
C538 O555 1.257 . S
C539 C542 1.358 . S
C539 C543 1.332 . S
C539 C545 1.504 . S
C540 C541 1.373 . S
C540 C544 1.308 . S
C541 C540 1.373 . S
C541 C542 1.429 . S
C541 H568 0.932 . S
C542 C539 1.358 . S
C542 C541 1.429 . S
C542 H569 0.930 . S
C543 C539 1.332 . S
C543 C544 1.394 . S
C543 H570 0.932 . S
C544 C540 1.308 . S
C544 C543 1.394 . S
C544 H571 0.929 . S
C545 Tb536 2.764 1_545 S
C545 C539 1.504 . S
C545 O557 1.239 1_545 S
C545 O558 1.263 1_545 S
O546 Tb536 2.325 . S
O546 C556 1.236 . S
O547 Tb537 2.322 . S
O547 C556 1.257 . S
O548 Tb537 2.349 . S
O548 C559 1.261 . S
O549 Tb536 2.303 . S
O549 C559 1.257 . S
O550 Tb537 2.415 . S
O550 C566 1.239 . S
O551 Tb537 2.399 . S
O551 C566 1.263 . S
O552 Tb537 2.325 . S
O552 C567 1.236 . S
O553 Tb536 2.322 . S
O553 C567 1.257 . S
O554 Tb536 2.349 . S
O554 C538 1.261 . S
O555 Tb537 2.303 . S
O555 C538 1.257 . S
C556 O546 1.236 . S
C556 O547 1.257 . S
O557 Tb536 2.415 . S
O557 C545 1.239 1_565 S
O558 Tb536 2.399 . S
O558 C545 1.263 1_565 S
C559 O548 1.261 . S
C559 O549 1.257 . S
C560 C563 1.358 . S
C560 C564 1.332 . S
C560 C566 1.504 . S
C561 C562 1.373 . S
C561 C565 1.308 . S
C562 C561 1.373 . S
C562 C563 1.429 . S
C562 H572 0.932 . S
C563 C560 1.358 . S
C563 C562 1.429 . S
C563 H573 0.930 . S
C564 C560 1.332 . S
C564 C565 1.394 . S
C564 H574 0.932 . S
C565 C561 1.308 . S
C565 C564 1.394 . S
C565 H575 0.929 . S
C566 Tb537 2.764 . S
C566 O550 1.239 . S
C566 O551 1.263 . S
C566 C560 1.504 . S
C567 O552 1.236 . S
C567 O553 1.257 . S
H568 C541 0.932 . S
H569 C542 0.930 . S
H570 C543 0.932 . S
H571 C544 0.929 . S
H572 C562 0.932 . S
H573 C563 0.930 . S
H574 C564 0.932 . S
H575 C565 0.929 . S
Tb576 C585 2.764 . S
Tb576 O586 2.325 . S
Tb576 O589 2.303 . S
Tb576 O593 2.322 . S
Tb576 O594 2.349 . S
Tb576 O597 2.415 . S
Tb576 O598 2.399 . S
Tb577 O587 2.322 . S
Tb577 O588 2.349 . S
Tb577 O590 2.415 1_554 S
Tb577 O591 2.399 1_554 S
Tb577 O592 2.325 . S
Tb577 O595 2.303 . S
Tb577 C606 2.764 1_554 S
C578 O594 1.261 . S
C578 O595 1.257 . S
C579 C582 1.358 . S
C579 C583 1.332 . S
C579 C585 1.504 . S
C580 C581 1.373 . S
C580 C584 1.308 . S
C581 C580 1.373 . S
C581 C582 1.429 . S
C581 H608 0.932 . S
C582 C579 1.358 . S
C582 C581 1.429 . S
C582 H609 0.930 . S
C583 C579 1.332 . S
C583 C584 1.394 . S
C583 H610 0.932 . S
C584 C580 1.308 . S
C584 C583 1.394 . S
C584 H611 0.929 . S
C585 Tb576 2.764 . S
C585 C579 1.504 . S
C585 O597 1.239 . S
C585 O598 1.263 . S
O586 Tb576 2.325 . S
O586 C596 1.236 . S
O587 Tb577 2.322 . S
O587 C596 1.257 . S
O588 Tb577 2.349 . S
O588 C599 1.261 . S
O589 Tb576 2.303 . S
O589 C599 1.257 . S
O590 Tb577 2.415 1_556 S
O590 C606 1.239 . S
O591 Tb577 2.399 1_556 S
O591 C606 1.263 . S
O592 Tb577 2.325 . S
O592 C607 1.236 . S
O593 Tb576 2.322 . S
O593 C607 1.257 . S
O594 Tb576 2.349 . S
O594 C578 1.261 . S
O595 Tb577 2.303 . S
O595 C578 1.257 . S
C596 O586 1.236 . S
C596 O587 1.257 . S
O597 Tb576 2.415 . S
O597 C585 1.239 . S
O598 Tb576 2.399 . S
O598 C585 1.263 . S
C599 O588 1.261 . S
C599 O589 1.257 . S
C600 C603 1.358 . S
C600 C604 1.332 . S
C600 C606 1.504 . S
C601 C602 1.373 . S
C601 C605 1.308 . S
C602 C601 1.373 . S
C602 C603 1.429 . S
C602 H612 0.932 . S
C603 C600 1.358 . S
C603 C602 1.429 . S
C603 H613 0.930 . S
C604 C600 1.332 . S
C604 C605 1.394 . S
C604 H614 0.932 . S
C605 C601 1.308 . S
C605 C604 1.394 . S
C605 H615 0.929 . S
C606 Tb577 2.764 1_556 S
C606 O590 1.239 . S
C606 O591 1.263 . S
C606 C600 1.504 . S
C607 O592 1.236 . S
C607 O593 1.257 . S
H608 C581 0.932 . S
H609 C582 0.930 . S
H610 C583 0.932 . S
H611 C584 0.929 . S
H612 C602 0.932 . S
H613 C603 0.930 . S
H614 C604 0.932 . S
H615 C605 0.929 . S
Tb616 C625 2.764 . S
Tb616 O626 2.325 . S
Tb616 O629 2.303 . S
Tb616 O633 2.322 . S
Tb616 O634 2.349 . S
Tb616 O637 2.415 . S
Tb616 O638 2.399 . S
Tb617 O627 2.322 . S
Tb617 O628 2.349 . S
Tb617 O630 2.415 . S
Tb617 O631 2.399 . S
Tb617 O632 2.325 . S
Tb617 O635 2.303 . S
Tb617 C646 2.764 . S
C618 O634 1.261 . S
C618 O635 1.257 . S
C619 C622 1.358 . S
C619 C623 1.332 . S
C619 C625 1.504 . S
C620 C621 1.373 . S
C620 C624 1.308 . S
C621 C620 1.373 . S
C621 C622 1.429 . S
C621 H648 0.932 . S
C622 C619 1.358 . S
C622 C621 1.429 . S
C622 H649 0.930 . S
C623 C619 1.332 . S
C623 C624 1.394 . S
C623 H650 0.932 . S
C624 C620 1.308 . S
C624 C623 1.394 . S
C624 H651 0.929 . S
C625 Tb616 2.764 . S
C625 C619 1.504 . S
C625 O637 1.239 . S
C625 O638 1.263 . S
O626 Tb616 2.325 . S
O626 C636 1.236 . S
O627 Tb617 2.322 . S
O627 C636 1.257 . S
O628 Tb617 2.349 . S
O628 C639 1.261 . S
O629 Tb616 2.303 . S
O629 C639 1.257 . S
O630 Tb617 2.415 . S
O630 C646 1.239 . S
O631 Tb617 2.399 . S
O631 C646 1.263 . S
O632 Tb617 2.325 . S
O632 C647 1.236 . S
O633 Tb616 2.322 . S
O633 C647 1.257 . S
O634 Tb616 2.349 . S
O634 C618 1.261 . S
O635 Tb617 2.303 . S
O635 C618 1.257 . S
C636 O626 1.236 . S
C636 O627 1.257 . S
O637 Tb616 2.415 . S
O637 C625 1.239 . S
O638 Tb616 2.399 . S
O638 C625 1.263 . S
C639 O628 1.261 . S
C639 O629 1.257 . S
C640 C643 1.358 . S
C640 C644 1.332 . S
C640 C646 1.504 . S
C641 C642 1.373 . S
C641 C645 1.308 . S
C642 C641 1.373 . S
C642 C643 1.429 . S
C642 H652 0.932 . S
C643 C640 1.358 . S
C643 C642 1.429 . S
C643 H653 0.930 . S
C644 C640 1.332 . S
C644 C645 1.394 . S
C644 H654 0.932 . S
C645 C641 1.308 . S
C645 C644 1.394 . S
C645 H655 0.929 . S
C646 Tb617 2.764 . S
C646 O630 1.239 . S
C646 O631 1.263 . S
C646 C640 1.504 . S
C647 O632 1.236 . S
C647 O633 1.257 . S
H648 C621 0.932 . S
H649 C622 0.930 . S
H650 C623 0.932 . S
H651 C624 0.929 . S
H652 C642 0.932 . S
H653 C643 0.930 . S
H654 C644 0.932 . S
H655 C645 0.929 . S
Tb656 C665 2.764 . S
Tb656 O666 2.325 . S
Tb656 O669 2.303 . S
Tb656 O673 2.322 . S
Tb656 O674 2.349 . S
Tb656 O677 2.415 . S
Tb656 O678 2.399 . S
Tb657 O667 2.322 . S
Tb657 O668 2.349 . S
Tb657 O670 2.415 1_554 S
Tb657 O671 2.399 1_554 S
Tb657 O672 2.325 . S
Tb657 O675 2.303 . S
Tb657 C686 2.764 1_554 S
C658 O674 1.261 . S
C658 O675 1.257 . S
C659 C662 1.358 . S
C659 C663 1.332 . S
C659 C665 1.504 . S
C660 C661 1.373 . S
C660 C664 1.308 . S
C661 C660 1.373 . S
C661 C662 1.429 . S
C661 H688 0.932 . S
C662 C659 1.358 . S
C662 C661 1.429 . S
C662 H689 0.930 . S
C663 C659 1.332 . S
C663 C664 1.394 . S
C663 H690 0.932 . S
C664 C660 1.308 . S
C664 C663 1.394 . S
C664 H691 0.929 . S
C665 Tb656 2.764 . S
C665 C659 1.504 . S
C665 O677 1.239 . S
C665 O678 1.263 . S
O666 Tb656 2.325 . S
O666 C676 1.236 . S
O667 Tb657 2.322 . S
O667 C676 1.257 . S
O668 Tb657 2.349 . S
O668 C679 1.261 . S
O669 Tb656 2.303 . S
O669 C679 1.257 . S
O670 Tb657 2.415 1_556 S
O670 C686 1.239 . S
O671 Tb657 2.399 1_556 S
O671 C686 1.263 . S
O672 Tb657 2.325 . S
O672 C687 1.236 . S
O673 Tb656 2.322 . S
O673 C687 1.257 . S
O674 Tb656 2.349 . S
O674 C658 1.261 . S
O675 Tb657 2.303 . S
O675 C658 1.257 . S
C676 O666 1.236 . S
C676 O667 1.257 . S
O677 Tb656 2.415 . S
O677 C665 1.239 . S
O678 Tb656 2.399 . S
O678 C665 1.263 . S
C679 O668 1.261 . S
C679 O669 1.257 . S
C680 C683 1.358 . S
C680 C684 1.332 . S
C680 C686 1.504 . S
C681 C682 1.373 . S
C681 C685 1.308 . S
C682 C681 1.373 . S
C682 C683 1.429 . S
C682 H692 0.932 . S
C683 C680 1.358 . S
C683 C682 1.429 . S
C683 H693 0.930 . S
C684 C680 1.332 . S
C684 C685 1.394 . S
C684 H694 0.932 . S
C685 C681 1.308 . S
C685 C684 1.394 . S
C685 H695 0.929 . S
C686 Tb657 2.764 1_556 S
C686 O670 1.239 . S
C686 O671 1.263 . S
C686 C680 1.504 . S
C687 O672 1.236 . S
C687 O673 1.257 . S
H688 C661 0.932 . S
H689 C662 0.930 . S
H690 C663 0.932 . S
H691 C664 0.929 . S
H692 C682 0.932 . S
H693 C683 0.930 . S
H694 C684 0.932 . S
H695 C685 0.929 . S
Tb696 C705 2.764 . S
Tb696 O706 2.325 . S
Tb696 O709 2.303 . S
Tb696 O713 2.322 . S
Tb696 O714 2.349 . S
Tb696 O717 2.415 . S
Tb696 O718 2.399 . S
Tb697 O707 2.322 . S
Tb697 O708 2.349 . S
Tb697 O710 2.415 . S
Tb697 O711 2.399 . S
Tb697 O712 2.325 . S
Tb697 O715 2.303 . S
Tb697 C726 2.764 . S
C698 O714 1.261 . S
C698 O715 1.257 . S
C699 C702 1.358 . S
C699 C703 1.332 . S
C699 C705 1.504 . S
C700 C701 1.373 . S
C700 C704 1.308 . S
C701 C700 1.373 . S
C701 C702 1.429 . S
C701 H728 0.932 . S
C702 C699 1.358 . S
C702 C701 1.429 . S
C702 H729 0.930 . S
C703 C699 1.332 . S
C703 C704 1.394 . S
C703 H730 0.932 . S
C704 C700 1.308 . S
C704 C703 1.394 . S
C704 H731 0.929 . S
C705 Tb696 2.764 . S
C705 C699 1.504 . S
C705 O717 1.239 . S
C705 O718 1.263 . S
O706 Tb696 2.325 . S
O706 C716 1.236 . S
O707 Tb697 2.322 . S
O707 C716 1.257 . S
O708 Tb697 2.349 . S
O708 C719 1.261 . S
O709 Tb696 2.303 . S
O709 C719 1.257 . S
O710 Tb697 2.415 . S
O710 C726 1.239 . S
O711 Tb697 2.399 . S
O711 C726 1.263 . S
O712 Tb697 2.325 . S
O712 C727 1.236 . S
O713 Tb696 2.322 . S
O713 C727 1.257 . S
O714 Tb696 2.349 . S
O714 C698 1.261 . S
O715 Tb697 2.303 . S
O715 C698 1.257 . S
C716 O706 1.236 . S
C716 O707 1.257 . S
O717 Tb696 2.415 . S
O717 C705 1.239 . S
O718 Tb696 2.399 . S
O718 C705 1.263 . S
C719 O708 1.261 . S
C719 O709 1.257 . S
C720 C723 1.358 . S
C720 C724 1.332 . S
C720 C726 1.504 . S
C721 C722 1.373 . S
C721 C725 1.308 . S
C722 C721 1.373 . S
C722 C723 1.429 . S
C722 H732 0.932 . S
C723 C720 1.358 . S
C723 C722 1.429 . S
C723 H733 0.930 . S
C724 C720 1.332 . S
C724 C725 1.394 . S
C724 H734 0.932 . S
C725 C721 1.308 . S
C725 C724 1.394 . S
C725 H735 0.929 . S
C726 Tb697 2.764 . S
C726 O710 1.239 . S
C726 O711 1.263 . S
C726 C720 1.504 . S
C727 O712 1.236 . S
C727 O713 1.257 . S
H728 C701 0.932 . S
H729 C702 0.930 . S
H730 C703 0.932 . S
H731 C704 0.929 . S
H732 C722 0.932 . S
H733 C723 0.930 . S
H734 C724 0.932 . S
H735 C725 0.929 . S
Tb736 C745 2.764 . S
Tb736 O746 2.325 . S
Tb736 O749 2.303 . S
Tb736 O753 2.322 . S
Tb736 O754 2.349 . S
Tb736 O757 2.415 . S
Tb736 O758 2.399 . S
Tb737 O747 2.322 . S
Tb737 O748 2.367 . S
Tb737 O750 2.415 . S
Tb737 O751 2.399 . S
Tb737 O752 2.325 . S
Tb737 O755 2.303 . S
Tb737 C766 2.764 . S
C738 O754 1.261 . S
C738 O755 1.257 . S
C739 C742 1.358 . S
C739 C743 1.332 1_455 S
C739 C745 1.504 . S
C740 C741 1.373 1_655 S
C740 C744 1.308 . S
C741 C740 1.373 1_455 S
C741 C742 1.429 . S
C741 H768 0.932 . S
C742 C739 1.358 . S
C742 C741 1.429 . S
C742 H769 0.930 . S
C743 C739 1.332 1_655 S
C743 C744 1.394 . S
C743 H770 0.932 . S
C744 C740 1.308 . S
C744 C743 1.394 . S
C744 H771 0.929 . S
C745 Tb736 2.764 . S
C745 C739 1.504 . S
C745 O757 1.239 . S
C745 O758 1.263 . S
O746 Tb736 2.325 . S
O746 C756 1.236 . S
O747 Tb737 2.322 . S
O747 C756 1.257 . S
O748 Tb737 2.367 . S
O748 C759 1.258 1_455 S
O749 Tb736 2.303 . S
O749 C759 1.257 1_455 S
O750 Tb737 2.415 . S
O750 C766 1.239 . S
O751 Tb737 2.399 . S
O751 C766 1.263 . S
O752 Tb737 2.325 . S
O752 C767 1.236 . S
O753 Tb736 2.322 . S
O753 C767 1.257 . S
O754 Tb736 2.349 . S
O754 C738 1.261 . S
O755 Tb737 2.303 . S
O755 C738 1.257 . S
C756 O746 1.236 . S
C756 O747 1.257 . S
O757 Tb736 2.415 . S
O757 C745 1.239 . S
O758 Tb736 2.399 . S
O758 C745 1.263 . S
C759 O748 1.258 1_655 S
C759 O749 1.257 1_655 S
C760 C763 1.358 . S
C760 C764 1.332 . S
C760 C766 1.504 . S
C761 C762 1.373 . S
C761 C765 1.308 . S
C762 C761 1.373 . S
C762 C763 1.429 . S
C762 H772 0.932 . S
C763 C760 1.358 . S
C763 C762 1.429 . S
C763 H773 0.930 . S
C764 C760 1.332 . S
C764 C765 1.394 . S
C764 H774 0.932 . S
C765 C761 1.308 . S
C765 C764 1.394 . S
C765 H775 0.929 . S
C766 Tb737 2.764 . S
C766 O750 1.239 . S
C766 O751 1.263 . S
C766 C760 1.504 . S
C767 O752 1.236 . S
C767 O753 1.257 . S
H768 C741 0.932 . S
H769 C742 0.930 . S
H770 C743 0.932 . S
H771 C744 0.929 . S
H772 C762 0.932 . S
H773 C763 0.930 . S
H774 C764 0.932 . S
H775 C765 0.929 . S
Tb776 C785 2.764 . S
Tb776 O786 2.325 . S
Tb776 O789 2.303 . S
Tb776 O793 2.322 . S
Tb776 O794 2.349 . S
Tb776 O797 2.415 . S
Tb776 O798 2.399 . S
Tb777 O787 2.322 . S
Tb777 O788 2.349 . S
Tb777 O790 2.415 . S
Tb777 O791 2.399 . S
Tb777 O792 2.325 . S
Tb777 O795 2.303 . S
Tb777 C806 2.764 . S
C778 O794 1.261 . S
C778 O795 1.257 . S
C779 C782 1.358 . S
C779 C783 1.332 . S
C779 C785 1.504 . S
C780 C781 1.373 . S
C780 C784 1.308 . S
C781 C780 1.373 . S
C781 C782 1.429 1_455 S
C781 H808 0.932 . S
C782 C779 1.358 . S
C782 C781 1.429 1_655 S
C782 H809 0.930 . S
C783 C779 1.332 . S
C783 C784 1.394 1_655 S
C783 H810 0.932 . S
C784 C780 1.308 . S
C784 C783 1.394 1_455 S
C784 H811 0.929 . S
C785 Tb776 2.764 . S
C785 C779 1.504 . S
C785 O797 1.239 . S
C785 O798 1.263 . S
O786 Tb776 2.325 . S
O786 C796 1.236 . S
O787 Tb777 2.322 . S
O787 C796 1.257 . S
O788 Tb777 2.349 . S
O788 C799 1.261 . S
O789 Tb776 2.303 . S
O789 C799 1.257 . S
O790 Tb777 2.415 . S
O790 C806 1.239 . S
O791 Tb777 2.399 . S
O791 C806 1.263 . S
O792 Tb777 2.325 . S
O792 C807 1.236 . S
O793 Tb776 2.322 . S
O793 C807 1.257 . S
O794 Tb776 2.349 . S
O794 C778 1.261 . S
O795 Tb777 2.303 . S
O795 C778 1.257 . S
C796 O786 1.236 . S
C796 O787 1.257 . S
O797 Tb776 2.415 . S
O797 C785 1.239 . S
O798 Tb776 2.399 . S
O798 C785 1.263 . S
C799 O788 1.261 . S
C799 O789 1.257 . S
C800 C803 1.358 . S
C800 C804 1.332 . S
C800 C806 1.504 . S
C801 C802 1.373 . S
C801 C805 1.308 . S
C802 C801 1.373 . S
C802 C803 1.429 . S
C802 H812 0.932 . S
C803 C800 1.358 . S
C803 C802 1.429 . S
C803 H813 0.930 . S
C804 C800 1.332 . S
C804 C805 1.394 . S
C804 H814 0.932 . S
C805 C801 1.308 . S
C805 C804 1.394 . S
C805 H815 0.929 . S
C806 Tb777 2.764 . S
C806 O790 1.239 . S
C806 O791 1.263 . S
C806 C800 1.504 . S
C807 O792 1.236 . S
C807 O793 1.257 . S
H808 C781 0.932 . S
H809 C782 0.930 . S
H810 C783 0.932 . S
H811 C784 0.929 . S
H812 C802 0.932 . S
H813 C803 0.930 . S
H814 C804 0.932 . S
H815 C805 0.929 . S
Tb816 C825 2.764 . S
Tb816 O826 2.325 . S
Tb816 O829 2.303 . S
Tb816 O833 2.322 . S
Tb816 O834 2.349 . S
Tb816 O837 2.415 . S
Tb816 O838 2.399 . S
Tb817 O827 2.322 . S
Tb817 O828 2.349 . S
Tb817 O830 2.415 . S
Tb817 O831 2.399 . S
Tb817 O832 2.325 . S
Tb817 O835 2.303 . S
Tb817 C846 2.764 . S
C818 O834 1.261 . S
C818 O835 1.257 . S
C819 C822 1.358 . S
C819 C823 1.332 . S
C819 C825 1.504 . S
C820 C821 1.373 . S
C820 C824 1.308 . S
C821 C820 1.373 . S
C821 C822 1.429 1_554 S
C821 H848 0.932 . S
C822 C819 1.358 . S
C822 C821 1.429 1_556 S
C822 H849 0.930 . S
C823 C819 1.332 . S
C823 C824 1.394 1_556 S
C823 H850 0.932 . S
C824 C820 1.308 . S
C824 C823 1.394 1_554 S
C824 H851 0.929 . S
C825 Tb816 2.764 . S
C825 C819 1.504 . S
C825 O837 1.239 . S
C825 O838 1.263 . S
O826 Tb816 2.325 . S
O826 C836 1.236 . S
O827 Tb817 2.322 . S
O827 C836 1.257 . S
O828 Tb817 2.349 . S
O828 C839 1.261 . S
O829 Tb816 2.303 . S
O829 C839 1.257 . S
O830 Tb817 2.415 . S
O830 C846 1.239 . S
O831 Tb817 2.399 . S
O831 C846 1.263 . S
O832 Tb817 2.325 . S
O832 C847 1.236 . S
O833 Tb816 2.322 . S
O833 C847 1.257 . S
O834 Tb816 2.349 . S
O834 C818 1.261 . S
O835 Tb817 2.303 . S
O835 C818 1.257 . S
C836 O826 1.236 . S
C836 O827 1.257 . S
O837 Tb816 2.415 . S
O837 C825 1.239 . S
O838 Tb816 2.399 . S
O838 C825 1.263 . S
C839 O828 1.261 . S
C839 O829 1.257 . S
C840 C843 1.358 . S
C840 C844 1.332 . S
C840 C846 1.504 . S
C841 C842 1.373 . S
C841 C845 1.308 . S
C842 C841 1.373 . S
C842 C843 1.429 . S
C842 H852 0.932 1_655 S
C843 C840 1.358 . S
C843 C842 1.429 . S
C843 H853 0.930 . S
C844 C840 1.332 . S
C844 C845 1.394 . S
C844 H854 0.932 . S
C845 C841 1.308 . S
C845 C844 1.394 . S
C845 H855 0.929 . S
C846 Tb817 2.764 . S
C846 O830 1.239 . S
C846 O831 1.263 . S
C846 C840 1.504 . S
C847 O832 1.236 . S
C847 O833 1.257 . S
H848 C821 0.932 . S
H849 C822 0.930 . S
H850 C823 0.932 . S
H851 C824 0.929 . S
H852 C842 0.932 1_455 S
H853 C843 0.930 . S
H854 C844 0.932 . S
H855 C845 0.929 . S
Tb856 C865 2.764 . S
Tb856 O866 2.325 . S
Tb856 O869 2.303 . S
Tb856 O873 2.322 . S
Tb856 O874 2.349 . S
Tb856 O877 2.415 . S
Tb856 O878 2.399 . S
Tb857 O867 2.322 . S
Tb857 O868 2.349 . S
Tb857 O870 2.415 . S
Tb857 O871 2.399 . S
Tb857 O872 2.325 . S
Tb857 O875 2.303 . S
Tb857 C886 2.764 1_565 S
C858 O874 1.261 . S
C858 O875 1.257 . S
C859 C862 1.358 . S
C859 C863 1.332 . S
C859 C865 1.504 . S
C860 C861 1.373 . S
C860 C864 1.308 . S
C861 C860 1.373 . S
C861 C862 1.429 . S
C861 H888 0.932 . S
C862 C859 1.358 . S
C862 C861 1.429 . S
C862 H889 0.930 . S
C863 C859 1.332 . S
C863 C864 1.394 . S
C863 H890 0.932 . S
C864 C860 1.308 . S
C864 C863 1.394 . S
C864 H891 0.929 . S
C865 Tb856 2.764 . S
C865 C859 1.504 . S
C865 O877 1.239 . S
C865 O878 1.263 . S
O866 Tb856 2.325 . S
O866 C876 1.236 . S
O867 Tb857 2.322 . S
O867 C876 1.257 . S
O868 Tb857 2.349 . S
O868 C879 1.261 . S
O869 Tb856 2.303 . S
O869 C879 1.257 . S
O870 Tb857 2.415 . S
O870 C886 1.239 1_565 S
O871 Tb857 2.399 . S
O871 C886 1.263 1_565 S
O872 Tb857 2.325 . S
O872 C887 1.236 . S
O873 Tb856 2.322 . S
O873 C887 1.257 . S
O874 Tb856 2.349 . S
O874 C858 1.261 . S
O875 Tb857 2.303 . S
O875 C858 1.257 . S
C876 O866 1.236 . S
C876 O867 1.257 . S
O877 Tb856 2.415 . S
O877 C865 1.239 . S
O878 Tb856 2.399 . S
O878 C865 1.263 . S
C879 O868 1.261 . S
C879 O869 1.257 . S
C880 C883 1.358 . S
C880 C884 1.332 . S
C880 C886 1.504 . S
C881 C882 1.373 . S
C881 C885 1.308 . S
C882 C881 1.373 . S
C882 C883 1.429 . S
C882 H892 0.932 . S
C883 C880 1.358 . S
C883 C882 1.429 . S
C883 H893 0.930 . S
C884 C880 1.332 . S
C884 C885 1.394 . S
C884 H894 0.932 . S
C885 C881 1.308 . S
C885 C884 1.394 . S
C885 H895 0.929 . S
C886 Tb857 2.764 1_545 S
C886 O870 1.239 1_545 S
C886 O871 1.263 1_545 S
C886 C880 1.504 . S
C887 O872 1.236 . S
C887 O873 1.257 . S
H888 C861 0.932 . S
H889 C862 0.930 . S
H890 C863 0.932 . S
H891 C864 0.929 . S
H892 C882 0.932 . S
H893 C883 0.930 . S
H894 C884 0.932 . S
H895 C885 0.929 . S
Tb896 C905 2.764 . S
Tb896 O906 2.325 . S
Tb896 O909 2.303 . S
Tb896 O913 2.322 . S
Tb896 O914 2.349 . S
Tb896 O917 2.415 . S
Tb896 O918 2.399 . S
Tb897 O907 2.322 . S
Tb897 O908 2.349 . S
Tb897 O910 2.415 . S
Tb897 O911 2.399 . S
Tb897 O912 2.325 . S
Tb897 O915 2.303 . S
Tb897 C926 2.764 . S
C898 O914 1.261 . S
C898 O915 1.257 . S
C899 C902 1.358 . S
C899 C903 1.332 . S
C899 C905 1.504 . S
C900 C901 1.373 . S
C900 C904 1.308 . S
C901 C900 1.373 . S
C901 C902 1.429 . S
C901 H928 0.932 . S
C902 C899 1.358 . S
C902 C901 1.429 . S
C902 H929 0.930 . S
C903 C899 1.332 . S
C903 C904 1.394 . S
C903 H930 0.932 . S
C904 C900 1.308 . S
C904 C903 1.394 . S
C904 H931 0.929 . S
C905 Tb896 2.764 . S
C905 C899 1.504 . S
C905 O917 1.239 . S
C905 O918 1.263 . S
O906 Tb896 2.325 . S
O906 C916 1.236 . S
O907 Tb897 2.322 . S
O907 C916 1.257 . S
O908 Tb897 2.349 . S
O908 C919 1.261 . S
O909 Tb896 2.303 . S
O909 C919 1.257 . S
O910 Tb897 2.415 . S
O910 C926 1.239 . S
O911 Tb897 2.399 . S
O911 C926 1.263 . S
O912 Tb897 2.325 . S
O912 C927 1.236 . S
O913 Tb896 2.322 . S
O913 C927 1.257 . S
O914 Tb896 2.349 . S
O914 C898 1.261 . S
O915 Tb897 2.303 . S
O915 C898 1.257 . S
C916 O906 1.236 . S
C916 O907 1.257 . S
O917 Tb896 2.415 . S
O917 C905 1.239 . S
O918 Tb896 2.399 . S
O918 C905 1.263 . S
C919 O908 1.261 . S
C919 O909 1.257 . S
C920 C923 1.358 . S
C920 C924 1.332 . S
C920 C926 1.504 . S
C921 C922 1.373 . S
C921 C925 1.308 . S
C922 C921 1.373 . S
C922 C923 1.429 . S
C922 H932 0.932 . S
C923 C920 1.358 . S
C923 C922 1.429 . S
C923 H933 0.930 . S
C924 C920 1.332 . S
C924 C925 1.394 . S
C924 H934 0.932 . S
C925 C921 1.308 . S
C925 C924 1.394 . S
C925 H935 0.929 . S
C926 Tb897 2.764 . S
C926 O910 1.239 . S
C926 O911 1.263 . S
C926 C920 1.504 . S
C927 O912 1.236 . S
C927 O913 1.257 . S
H928 C901 0.932 . S
H929 C902 0.930 . S
H930 C903 0.932 . S
H931 C904 0.929 . S
H932 C922 0.932 . S
H933 C923 0.930 . S
H934 C924 0.932 . S
H935 C925 0.929 . S
Tb936 C945 2.764 1_455 S
Tb936 O946 2.325 . S
Tb936 O949 2.303 . S
Tb936 O953 2.322 . S
Tb936 O954 2.349 . S
Tb936 O957 2.415 1_455 S
Tb936 O958 2.399 1_455 S
Tb937 O947 2.322 . S
Tb937 O948 2.349 . S
Tb937 O950 2.415 . S
Tb937 O951 2.399 . S
Tb937 O952 2.325 . S
Tb937 O955 2.303 . S
Tb937 C966 2.764 . S
C938 O954 1.261 . S
C938 O955 1.257 . S
C939 C942 1.358 . S
C939 C943 1.332 . S
C939 C945 1.504 . S
C940 C941 1.373 . S
C940 C944 1.308 . S
C941 C940 1.373 . S
C941 C942 1.429 . S
C941 H968 0.932 . S
C942 C939 1.358 . S
C942 C941 1.429 . S
C942 H969 0.930 . S
C943 C939 1.332 . S
C943 C944 1.394 . S
C943 H970 0.932 . S
C944 C940 1.308 . S
C944 C943 1.394 . S
C944 H971 0.929 . S
C945 Tb936 2.764 1_655 S
C945 C939 1.504 . S
C945 O957 1.239 . S
C945 O958 1.263 . S
O946 Tb936 2.325 . S
O946 C956 1.236 . S
O947 Tb937 2.322 . S
O947 C956 1.257 . S
O948 Tb937 2.349 . S
O948 C959 1.261 . S
O949 Tb936 2.303 . S
O949 C959 1.257 . S
O950 Tb937 2.415 . S
O950 C966 1.239 . S
O951 Tb937 2.399 . S
O951 C966 1.263 . S
O952 Tb937 2.325 . S
O952 C967 1.236 . S
O953 Tb936 2.322 . S
O953 C967 1.257 . S
O954 Tb936 2.349 . S
O954 C938 1.261 . S
O955 Tb937 2.303 . S
O955 C938 1.257 . S
C956 O946 1.236 . S
C956 O947 1.257 . S
O957 Tb936 2.415 1_655 S
O957 C945 1.239 . S
O958 Tb936 2.399 1_655 S
O958 C945 1.263 . S
C959 O948 1.261 . S
C959 O949 1.257 . S
C960 C963 1.358 . S
C960 C964 1.332 . S
C960 C966 1.504 . S
C961 C962 1.373 . S
C961 C965 1.308 . S
C962 C961 1.373 . S
C962 C963 1.429 . S
C962 H972 0.924 1_554 S
C963 C960 1.358 . S
C963 C962 1.429 . S
C963 H973 0.930 . S
C964 C960 1.332 . S
C964 C965 1.394 . S
C964 H974 0.932 . S
C965 C961 1.308 . S
C965 C964 1.394 . S
C965 H975 0.929 . S
C966 Tb937 2.764 . S
C966 O950 1.239 . S
C966 O951 1.263 . S
C966 C960 1.504 . S
C967 O952 1.236 . S
C967 O953 1.257 . S
H968 C941 0.932 . S
H969 C942 0.930 . S
H970 C943 0.932 . S
H971 C944 0.929 . S
H972 C962 0.924 1_556 S
H973 C963 0.930 . S
H974 C964 0.932 . S
H975 C965 0.929 . S
C106 C367 4.998 1_656 S
C65 C378 3.320 . S
C79 C447 3.194 1_565 S
C460 C90 1.280 . S
C21 C516 3.240 1_565 S
C567 C35 3.496 . S
C596 C50 3.395 . S
C6 C647 3.873 . S
C338 C232 4.299 1_445 S
C245 C380 1.918 . S
C418 C274 2.103 . S
C487 C175 2.759 . S
C231 C521 0.711 . S
C538 C246 2.810 . S
C601 C273 1.192 . S
C618 C176 3.534 . S
C340 C160 5.605 . S
C289 C679 2.805 . S
C700 C328 4.469 . S
C759 C317 1.345 . S
C118 C620 2.968 . S
C132 C420 2.179 . S
C331 C778 3.368 . S
C847 C303 2.200 . S
C356 C63 4.164 . S
C839 C107 4.108 . S
C92 C436 2.714 . S
C78 C801 1.371 . S
C527 C8 4.438 . S
C51 C716 3.710 . S
C607 C37 4.025 1_544 S
C876 C20 3.859 . S
C359 C147 3.204 . S
C841 C316 2.291 . S
C119 C439 1.624 . S
C288 C796 2.896 . S
C148 C500 0.850 . S
C719 C315 1.973 . S
C120 C580 0.615 . S
C287 C879 3.387 . S
C188 C361 5.436 . S
C177 C658 2.731 . S
C258 C561 4.397 . S
C247 C738 0.743 . S
C881 C272 2.936 . S
C216 C441 2.416 1_565 S
C479 C261 3.250 . S
C396 C205 1.502 . S
C76 C927 3.953 . S
C818 C93 3.416 . S
C105 C967 2.458 . S
C62 C780 1.128 . S
C49 C676 3.172 . S
C727 C9 4.536 . S
C756 C22 3.229 . S
C887 C36 4.795 . S
C898 C260 4.351 . S
C189 C820 1.823 . S
C938 C204 2.180 . S
C807 C217 2.787 . S
C681 C259 0.821 . S
C190 C698 2.875 . S
C761 C203 0.928 . S
C218 C858 3.604 . S
C900 C314 5.506 . S
C135 C519 2.633 . S
C540 C146 4.459 . S
C599 C163 1.322 . S
C860 C300 2.995 . S
C286 C940 2.427 . S
C458 C149 3.748 . S
C407 C121 2.475 . S
C91 C916 4.174 . S
C399 C77 2.955 . S
C64 C956 2.636 . S
C104 C481 1.160 . S
C34 C687 3.533 1_556 S
C556 C23 3.651 . S
C7 C767 3.046 . S
C48 C636 3.829 . S
C919 C329 2.868 . S
C162 C401 2.163 1_565 S
C959 C301 1.286 . S
C134 C476 2.959 . S
C330 C660 0.858 . S
C559 C161 1.578 . S
C302 C740 0.662 . S
C639 C133 3.301 . S
C921 C244 5.344 . S
C498 C219 2.903 1_445 S
C230 C721 4.528 . S
C578 C191 0.996 . S
C202 C641 2.855 . S
C174 C961 2.194 . S
C799 C233 3.569 . S
C836 C275 1.829 . S
