# Generated by pormake.
# Topology ctn, (3,4)-cn, num edge types: 1
# Building blocks:
#     Node 0, Type 0, BuildingBlock: OLANEW_clean_sbu_2, # of connection points: 3
#     Node 1, Type 0, BuildingBlock: OLANEW_clean_sbu_2, # of connection points: 3
#     Node 2, Type 0, BuildingBlock: OLANEW_clean_sbu_2, # of connection points: 3
#     Node 3, Type 0, BuildingBlock: OLANEW_clean_sbu_2, # of connection points: 3
#     Node 4, Type 0, BuildingBlock: OLANEW_clean_sbu_2, # of connection points: 3
#     Node 5, Type 0, BuildingBlock: OLANEW_clean_sbu_2, # of connection points: 3
#     Node 6, Type 0, BuildingBlock: OLANEW_clean_sbu_2, # of connection points: 3
#     Node 7, Type 0, BuildingBlock: OLANEW_clean_sbu_2, # of connection points: 3
#     Node 8, Type 0, BuildingBlock: OLANEW_clean_sbu_2, # of connection points: 3
#     Node 9, Type 0, BuildingBlock: OLANEW_clean_sbu_2, # of connection points: 3
#     Node 10, Type 0, BuildingBlock: OLANEW_clean_sbu_2, # of connection points: 3
#     Node 11, Type 0, BuildingBlock: OLANEW_clean_sbu_2, # of connection points: 3
#     Node 12, Type 0, BuildingBlock: OLANEW_clean_sbu_2, # of connection points: 3
#     Node 13, Type 0, BuildingBlock: OLANEW_clean_sbu_2, # of connection points: 3
#     Node 14, Type 0, BuildingBlock: OLANEW_clean_sbu_2, # of connection points: 3
#     Node 15, Type 0, BuildingBlock: OLANEW_clean_sbu_2, # of connection points: 3
#     Node 16, Type 1, BuildingBlock: NAHDIM_clean_sbu_0, # of connection points: 4
#     Node 17, Type 1, BuildingBlock: NAHDIM_clean_sbu_0, # of connection points: 4
#     Node 18, Type 1, BuildingBlock: NAHDIM_clean_sbu_0, # of connection points: 4
#     Node 19, Type 1, BuildingBlock: NAHDIM_clean_sbu_0, # of connection points: 4
#     Node 20, Type 1, BuildingBlock: NAHDIM_clean_sbu_0, # of connection points: 4
#     Node 21, Type 1, BuildingBlock: NAHDIM_clean_sbu_0, # of connection points: 4
#     Node 22, Type 1, BuildingBlock: NAHDIM_clean_sbu_0, # of connection points: 4
#     Node 23, Type 1, BuildingBlock: NAHDIM_clean_sbu_0, # of connection points: 4
#     Node 24, Type 1, BuildingBlock: NAHDIM_clean_sbu_0, # of connection points: 4
#     Node 25, Type 1, BuildingBlock: NAHDIM_clean_sbu_0, # of connection points: 4
#     Node 26, Type 1, BuildingBlock: NAHDIM_clean_sbu_0, # of connection points: 4
#     Node 27, Type 1, BuildingBlock: NAHDIM_clean_sbu_0, # of connection points: 4
#     Edge 28, Type (0, 1), BuildingBlock: XUDNAN_clean_linker_2, # of connection points: 2
#     Edge 29, Type (0, 1), BuildingBlock: XUDNAN_clean_linker_2, # of connection points: 2
#     Edge 30, Type (0, 1), BuildingBlock: XUDNAN_clean_linker_2, # of connection points: 2
#     Edge 31, Type (0, 1), BuildingBlock: XUDNAN_clean_linker_2, # of connection points: 2
#     Edge 32, Type (0, 1), BuildingBlock: XUDNAN_clean_linker_2, # of connection points: 2
#     Edge 33, Type (0, 1), BuildingBlock: XUDNAN_clean_linker_2, # of connection points: 2
#     Edge 34, Type (0, 1), BuildingBlock: XUDNAN_clean_linker_2, # of connection points: 2
#     Edge 35, Type (0, 1), BuildingBlock: XUDNAN_clean_linker_2, # of connection points: 2
#     Edge 36, Type (0, 1), BuildingBlock: XUDNAN_clean_linker_2, # of connection points: 2
#     Edge 37, Type (0, 1), BuildingBlock: XUDNAN_clean_linker_2, # of connection points: 2
#     Edge 38, Type (0, 1), BuildingBlock: XUDNAN_clean_linker_2, # of connection points: 2
#     Edge 39, Type (0, 1), BuildingBlock: XUDNAN_clean_linker_2, # of connection points: 2
#     Edge 40, Type (0, 1), BuildingBlock: XUDNAN_clean_linker_2, # of connection points: 2
#     Edge 41, Type (0, 1), BuildingBlock: XUDNAN_clean_linker_2, # of connection points: 2
#     Edge 42, Type (0, 1), BuildingBlock: XUDNAN_clean_linker_2, # of connection points: 2
#     Edge 43, Type (0, 1), BuildingBlock: XUDNAN_clean_linker_2, # of connection points: 2
#     Edge 44, Type (0, 1), BuildingBlock: XUDNAN_clean_linker_2, # of connection points: 2
#     Edge 45, Type (0, 1), BuildingBlock: XUDNAN_clean_linker_2, # of connection points: 2
#     Edge 46, Type (0, 1), BuildingBlock: XUDNAN_clean_linker_2, # of connection points: 2
#     Edge 47, Type (0, 1), BuildingBlock: XUDNAN_clean_linker_2, # of connection points: 2
#     Edge 48, Type (0, 1), BuildingBlock: XUDNAN_clean_linker_2, # of connection points: 2
#     Edge 49, Type (0, 1), BuildingBlock: XUDNAN_clean_linker_2, # of connection points: 2
#     Edge 50, Type (0, 1), BuildingBlock: XUDNAN_clean_linker_2, # of connection points: 2
#     Edge 51, Type (0, 1), BuildingBlock: XUDNAN_clean_linker_2, # of connection points: 2
#     Edge 52, Type (0, 1), BuildingBlock: XUDNAN_clean_linker_2, # of connection points: 2
#     Edge 53, Type (0, 1), BuildingBlock: XUDNAN_clean_linker_2, # of connection points: 2
#     Edge 54, Type (0, 1), BuildingBlock: XUDNAN_clean_linker_2, # of connection points: 2
#     Edge 55, Type (0, 1), BuildingBlock: XUDNAN_clean_linker_2, # of connection points: 2
#     Edge 56, Type (0, 1), BuildingBlock: XUDNAN_clean_linker_2, # of connection points: 2
#     Edge 57, Type (0, 1), BuildingBlock: XUDNAN_clean_linker_2, # of connection points: 2
#     Edge 58, Type (0, 1), BuildingBlock: XUDNAN_clean_linker_2, # of connection points: 2
#     Edge 59, Type (0, 1), BuildingBlock: XUDNAN_clean_linker_2, # of connection points: 2
#     Edge 60, Type (0, 1), BuildingBlock: XUDNAN_clean_linker_2, # of connection points: 2
#     Edge 61, Type (0, 1), BuildingBlock: XUDNAN_clean_linker_2, # of connection points: 2
#     Edge 62, Type (0, 1), BuildingBlock: XUDNAN_clean_linker_2, # of connection points: 2
#     Edge 63, Type (0, 1), BuildingBlock: XUDNAN_clean_linker_2, # of connection points: 2
#     Edge 64, Type (0, 1), BuildingBlock: XUDNAN_clean_linker_2, # of connection points: 2
#     Edge 65, Type (0, 1), BuildingBlock: XUDNAN_clean_linker_2, # of connection points: 2
#     Edge 66, Type (0, 1), BuildingBlock: XUDNAN_clean_linker_2, # of connection points: 2
#     Edge 67, Type (0, 1), BuildingBlock: XUDNAN_clean_linker_2, # of connection points: 2
#     Edge 68, Type (0, 1), BuildingBlock: XUDNAN_clean_linker_2, # of connection points: 2
#     Edge 69, Type (0, 1), BuildingBlock: XUDNAN_clean_linker_2, # of connection points: 2
#     Edge 70, Type (0, 1), BuildingBlock: XUDNAN_clean_linker_2, # of connection points: 2
#     Edge 71, Type (0, 1), BuildingBlock: XUDNAN_clean_linker_2, # of connection points: 2
#     Edge 72, Type (0, 1), BuildingBlock: XUDNAN_clean_linker_2, # of connection points: 2
#     Edge 73, Type (0, 1), BuildingBlock: XUDNAN_clean_linker_2, # of connection points: 2
#     Edge 74, Type (0, 1), BuildingBlock: XUDNAN_clean_linker_2, # of connection points: 2
#     Edge 75, Type (0, 1), BuildingBlock: XUDNAN_clean_linker_2, # of connection points: 2
# Relax obj value: 0.051
# Max RMSD: 0.166
# Mean RMSD: 0.095
data_MOF--net-ctn--node1-OLANEW_clean_sbu_2--node2-NAHDIM_clean_sbu_0--edge1-XUDNAN_clean_linker_2
_symmetry_space_group_name_H-M    P1
_symmetry_Int_Tables_number       1
_symmetry_cell_setting            triclinic
loop_
_symmetry_equiv_pos_as_xyz
'x, y, z'
_cell_length_a     57.828572
_cell_length_b     59.594235
_cell_length_c     55.849752
_cell_angle_alpha  92.392173
_cell_angle_beta   94.359682
_cell_angle_gamma 97.816374
loop_
_atom_site_label
_atom_site_type_symbol
_atom_site_fract_x
_atom_site_fract_y
_atom_site_fract_z
_atom_type_partial_charge
O0 O 0.01787 0.04251 0.9655 0.0
Cd1 Cd 0.01484 0.00121 0.96699 0.0
O2 O 0.00871 0.0433 0.00271 0.0
Cd3 Cd 0.99822 0.05654 0.03672 0.0
O4 O 0.98571 0.05548 0.07261 0.0
C5 C 0.98128 0.03576 0.08043 0.0
O6 O 0.98453 0.01819 0.06671 0.0
C7 C 0.0137 0.05387 0.98405 0.0
C8 C 0.05791 0.98497 0.96809 0.0
O9 O 0.04694 0.98881 0.94819 0.0
O10 O 0.04862 0.98902 0.98765 0.0
O11 O 0.29401 0.77627 0.27691 0.0
Cd12 Cd 0.25626 0.76848 0.25272 0.0
O13 O 0.30725 0.74612 0.26212 0.0
Cd14 Cd 0.27385 0.73168 0.24341 0.0
O15 O 0.24493 0.70396 0.23889 0.0
C16 C 0.23705 0.69629 0.25801 0.0
O17 O 0.2457 0.70624 0.27883 0.0
C18 C 0.31039 0.7641 0.2757 0.0
C19 C 0.2573 0.78358 0.206 0.0
O20 O 0.25189 0.79631 0.22318 0.0
O21 O 0.26242 0.76396 0.211 0.0
O22 O 0.96538 0.47338 0.08146 0.0
Cd23 Cd 0.93376 0.46494 0.04945 0.0
O24 O 0.95343 0.44324 0.10101 0.0
Cd25 Cd 0.93453 0.42718 0.06817 0.0
O26 O 0.9433 0.40939 0.03589 0.0
C27 C 0.94556 0.3885 0.03661 0.0
O28 O 0.94042 0.37776 0.056 0.0
C29 C 0.96679 0.46192 0.10011 0.0
C30 C 0.90249 0.49652 0.0531 0.0
O31 O 0.90065 0.47871 0.06528 0.0
O32 O 0.91894 0.49929 0.0389 0.0
O33 O 0.75296 0.8444 0.23945 0.0
Cd34 Cd 0.72276 0.81177 0.22853 0.0
O35 O 0.75001 0.83988 0.27805 0.0
Cd36 Cd 0.72074 0.81248 0.27312 0.0
O37 O 0.68575 0.79526 0.27763 0.0
C38 C 0.66894 0.79504 0.26154 0.0
O39 O 0.67305 0.80429 0.24106 0.0
C40 C 0.75952 0.85055 0.26128 0.0
C41 C 0.72763 0.78816 0.18537 0.0
O42 O 0.7166 0.80541 0.18581 0.0
O43 O 0.73676 0.78225 0.20537 0.0
O44 O 0.14867 0.9455 0.49325 0.0
Cd45 Cd 0.13162 0.90671 0.4804 0.0
O46 O 0.11421 0.95521 0.48344 0.0
Cd47 Cd 0.08892 0.9785 0.47532 0.0
O48 O 0.06077 0.9961 0.46066 0.0
C49 C 0.05702 0.99565 0.43792 0.0
O50 O 0.07051 0.98523 0.42462 0.0
C51 C 0.13548 0.96084 0.49144 0.0
C52 C 0.10128 0.88702 0.51255 0.0
O53 O 0.12301 0.88453 0.51417 0.0
O54 O 0.09391 0.89896 0.49578 0.0
O55 O 0.29713 0.78126 0.83417 0.0
Cd56 Cd 0.31594 0.76381 0.80196 0.0
O57 O 0.26332 0.77915 0.81297 0.0
Cd58 Cd 0.22752 0.78659 0.80548 0.0
O59 O 0.19297 0.79516 0.7941 0.0
C60 C 0.1774 0.78006 0.78367 0.0
O61 O 0.18232 0.75933 0.78036 0.0
C62 C 0.27593 0.78486 0.8325 0.0
C63 C 0.32069 0.71896 0.81072 0.0
O64 O 0.33466 0.73543 0.82152 0.0
O65 O 0.30443 0.72358 0.79561 0.0
O66 O 0.98131 0.54696 0.45755 0.0
Cd67 Cd 0.96253 0.55933 0.4927 0.0
O68 O 0.01395 0.54174 0.47813 0.0
Cd69 Cd 0.00207 0.55386 0.51187 0.0
O70 O 0.99369 0.57408 0.54271 0.0
C71 C 0.9934 0.5951 0.54 0.0
O72 O 0.99767 0.60321 0.51901 0.0
C73 C 0.00171 0.54112 0.45815 0.0
C74 C 0.93108 0.52463 0.50891 0.0
O75 O 0.92435 0.5379 0.49313 0.0
O76 O 0.95269 0.52777 0.51698 0.0
O77 O 0.79153 0.7716 0.85232 0.0
Cd78 Cd 0.79151 0.80217 0.82444 0.0
O79 O 0.75316 0.76466 0.85209 0.0
Cd80 Cd 0.74693 0.79293 0.82995 0.0
O81 O 0.73263 0.82279 0.81717 0.0
C82 C 0.73066 0.83845 0.83273 0.0
O83 O 0.73804 0.83627 0.85524 0.0
C84 C 0.77332 0.76006 0.85921 0.0
C85 C 0.82293 0.79726 0.7897 0.0
O86 O 0.82971 0.80781 0.81002 0.0
O87 O 0.80121 0.78921 0.78569 0.0
O88 O 0.2719 0.27914 0.34935 0.0
Cd89 Cd 0.26453 0.30698 0.31963 0.0
O90 O 0.23545 0.27355 0.35901 0.0
Cd91 Cd 0.22525 0.30126 0.338 0.0
O92 O 0.2157 0.3337 0.32671 0.0
C93 C 0.23041 0.35147 0.33158 0.0
O94 O 0.25097 0.34953 0.34241 0.0
C95 C 0.25624 0.2687 0.36121 0.0
C96 C 0.30288 0.31722 0.29257 0.0
O97 O 0.30037 0.32952 0.31133 0.0
O98 O 0.28719 0.30019 0.28654 0.0
O99 O 0.47305 0.97918 0.60812 0.0
Cd100 Cd 0.45754 0.97574 0.56597 0.0
O101 O 0.49168 0.94938 0.60592 0.0
Cd102 Cd 0.48274 0.94055 0.56773 0.0
O103 O 0.48524 0.92358 0.53278 0.0
C104 C 0.48885 0.903 0.53255 0.0
O105 O 0.49011 0.89292 0.553 0.0
C106 C 0.48584 0.96591 0.61811 0.0
C107 C 0.43454 0.01275 0.55474 0.0
O108 O 0.42347 0.99469 0.56239 0.0
O109 O 0.45645 0.01323 0.5522 0.0
O110 O 0.23284 0.34137 0.71265 0.0
Cd111 Cd 0.20909 0.30441 0.71503 0.0
O112 O 0.24647 0.34328 0.75065 0.0
Cd113 Cd 0.22368 0.31315 0.75986 0.0
O114 O 0.1971 0.29344 0.77914 0.0
C115 C 0.17634 0.29829 0.77681 0.0
O116 O 0.17161 0.31396 0.76205 0.0
C117 C 0.24602 0.35168 0.73009 0.0
C118 C 0.22483 0.27144 0.68579 0.0
O119 O 0.20965 0.28353 0.6775 0.0
O120 O 0.23249 0.27486 0.70797 0.0
O121 O 0.81308 0.24264 0.76033 0.0
Cd122 Cd 0.77474 0.23102 0.73856 0.0
O123 O 0.82288 0.20825 0.76124 0.0
Cd124 Cd 0.78867 0.19153 0.74632 0.0
O125 O 0.75707 0.1676 0.74902 0.0
C126 C 0.74447 0.17148 0.76598 0.0
O127 O 0.75027 0.19019 0.77966 0.0
C128 C 0.82794 0.22947 0.76601 0.0
C129 C 0.76931 0.25723 0.69875 0.0
O130 O 0.76314 0.2635 0.71927 0.0
O131 O 0.7778 0.2385 0.69706 0.0
O132 O 0.54082 0.56463 0.50348 0.0
Cd133 Cd 0.54054 0.53335 0.53079 0.0
O134 O 0.52246 0.58419 0.52838 0.0
Cd135 Cd 0.51938 0.56016 0.55674 0.0
O136 O 0.50521 0.55145 0.59077 0.0
C137 C 0.50652 0.56795 0.6062 0.0
O138 O 0.51712 0.58788 0.601 0.0
C139 C 0.53169 0.58232 0.50858 0.0
C140 C 0.58136 0.51289 0.5348 0.0
O141 O 0.5649 0.50611 0.51837 0.0
O142 O 0.57875 0.52966 0.54901 0.0
O143 O 0.61952 0.45528 0.01045 0.0
Cd144 Cd 0.60123 0.41638 0.9997 0.0
O145 O 0.58776 0.46525 0.99286 0.0
Cd146 Cd 0.56477 0.48746 0.97634 0.0
O147 O 0.53707 0.50001 0.95427 0.0
C148 C 0.53194 0.49093 0.93321 0.0
O149 O 0.54383 0.47508 0.92573 0.0
C150 C 0.60795 0.4709 0.00378 0.0
C151 C 0.58733 0.39159 0.03864 0.0
O152 O 0.60795 0.39195 0.03156 0.0
O153 O 0.57332 0.4033 0.02751 0.0
O154 O 0.76789 0.25878 0.34795 0.0
Cd155 Cd 0.77024 0.23765 0.30989 0.0
O156 O 0.73104 0.25665 0.33519 0.0
Cd157 Cd 0.69467 0.26324 0.33292 0.0
O158 O 0.6575 0.26422 0.32397 0.0
C159 C 0.65085 0.28122 0.31386 0.0
O160 O 0.6666 0.29839 0.30977 0.0
C161 C 0.74761 0.26367 0.35118 0.0
C162 C 0.79984 0.20444 0.31107 0.0
O163 O 0.80749 0.22501 0.30696 0.0
O164 O 0.77827 0.19968 0.31526 0.0
O165 O 0.49138 0.03395 0.00252 0.0
Cd166 Cd 0.46839 0.04715 0.03384 0.0
O167 O 0.52488 0.0444 0.02406 0.0
Cd168 Cd 0.50866 0.06255 0.05164 0.0
O169 O 0.4955 0.08843 0.07375 0.0
C170 C 0.47945 0.09898 0.06487 0.0
O171 O 0.47062 0.09362 0.04267 0.0
C172 C 0.51354 0.03488 0.00508 0.0
C173 C 0.4233 0.02332 0.03125 0.0
O174 O 0.42774 0.0416 0.02013 0.0
O175 O 0.44023 0.01632 0.04363 0.0
C176 C 0.20138 0.91494 0.99702 0.0
O177 O 0.21892 0.91463 0.98342 0.0
O178 O 0.23222 0.86995 0.99192 0.0
Zn179 Zn 0.23171 0.89053 0.02169 0.0
O180 O 0.25881 0.9159 0.02309 0.0
C181 C 0.24428 0.85517 0.0507 0.0
O182 O 0.2536 0.85027 0.03075 0.0
O183 O 0.20223 0.90511 0.01681 0.0
C184 C 0.27887 0.91583 0.03406 0.0
O185 O 0.28307 0.89814 0.04608 0.0
C186 C 0.24982 0.87057 0.97952 0.0
O187 O 0.26889 0.88463 0.98642 0.0
O188 O 0.2333 0.87228 0.05164 0.0
C189 C 0.15708 0.48736 0.29707 0.0
O190 O 0.16525 0.50897 0.30106 0.0
O191 O 0.09316 0.5102 0.30362 0.0
Zn192 Zn 0.1159 0.50572 0.27886 0.0
O193 O 0.13544 0.53517 0.27272 0.0
C194 C 0.07734 0.48532 0.24424 0.0
O195 O 0.06777 0.4762 0.26278 0.0
O196 O 0.13619 0.48177 0.28784 0.0
C197 C 0.14105 0.55266 0.28684 0.0
O198 O 0.13474 0.55234 0.30894 0.0
C199 C 0.09761 0.50949 0.32618 0.0
O200 O 0.11851 0.50583 0.33467 0.0
O201 O 0.09745 0.4971 0.24727 0.0
C202 C 0.79891 0.61331 0.03572 0.0
O203 O 0.79896 0.61954 0.01343 0.0
O204 O 0.76862 0.65202 0.00532 0.0
Zn205 Zn 0.7588 0.63752 0.0358 0.0
O206 O 0.72981 0.61446 0.02878 0.0
C207 C 0.74453 0.67936 0.0525 0.0
O208 O 0.73892 0.68021 0.02936 0.0
O209 O 0.78395 0.61983 0.04904 0.0
C210 C 0.70874 0.61764 0.03086 0.0
O211 O 0.70428 0.63787 0.03765 0.0
C212 C 0.75442 0.65339 0.98708 0.0
O213 O 0.73234 0.64468 0.98752 0.0
O214 O 0.75333 0.66227 0.06008 0.0
C215 C 0.87186 0.06495 0.29596 0.0
O216 O 0.85741 0.04742 0.30175 0.0
O217 O 0.92891 0.03052 0.31248 0.0
Zn218 Zn 0.90322 0.03153 0.28643 0.0
O219 O 0.87787 0.00547 0.29032 0.0
C220 C 0.92315 0.04276 0.24112 0.0
O221 O 0.9224 0.06389 0.24835 0.0
O222 O 0.89163 0.0619 0.28889 0.0
C223 C 0.86631 0.99448 0.27225 0.0
O224 O 0.86998 0.00112 0.25055 0.0
C225 C 0.92651 0.03668 0.33411 0.0
O226 O 0.90706 0.0442 0.33929 0.0
O227 O 0.91613 0.02686 0.25442 0.0
C228 C 0.32758 0.12583 0.52768 0.0
O229 O 0.33084 0.14625 0.51943 0.0
O230 O 0.28232 0.15315 0.49879 0.0
Zn231 Zn 0.27869 0.13329 0.52719 0.0
O232 O 0.25107 0.10861 0.5205 0.0
C233 C 0.26433 0.16942 0.55685 0.0
O234 O 0.25524 0.17523 0.53614 0.0
O235 O 0.30715 0.11738 0.53239 0.0
C236 C 0.23061 0.10955 0.527 0.0
O237 O 0.2262 0.12798 0.53849 0.0
C238 C 0.26496 0.15714 0.48504 0.0
O239 O 0.24376 0.14794 0.48913 0.0
O240 O 0.27515 0.15221 0.55737 0.0
C241 C 0.35421 0.5629 0.80561 0.0
O242 O 0.36066 0.54993 0.82262 0.0
O243 O 0.39586 0.52716 0.80623 0.0
Zn244 Zn 0.37586 0.53217 0.77643 0.0
O245 O 0.35415 0.50361 0.76574 0.0
C246 C 0.40457 0.52904 0.73543 0.0
O247 O 0.39695 0.5072 0.73447 0.0
O248 O 0.35789 0.55799 0.78398 0.0
C249 C 0.34254 0.50128 0.74532 0.0
O250 O 0.34454 0.51807 0.73077 0.0
C251 C 0.41136 0.51397 0.80656 0.0
O252 O 0.4142 0.50228 0.7868 0.0
O253 O 0.39757 0.54203 0.75114 0.0
C254 C 0.7062 0.41632 0.52858 0.0
O255 O 0.70265 0.40355 0.50854 0.0
O256 O 0.74043 0.37857 0.50236 0.0
Zn257 Zn 0.7492 0.39588 0.53431 0.0
O258 O 0.78018 0.41613 0.53299 0.0
C259 C 0.7482 0.37189 0.58016 0.0
O260 O 0.74034 0.38949 0.58995 0.0
O261 O 0.72447 0.41542 0.54251 0.0
C262 C 0.79876 0.41271 0.54516 0.0
O263 O 0.79795 0.39557 0.55926 0.0
C264 C 0.75619 0.37116 0.49083 0.0
O265 O 0.77822 0.37615 0.49925 0.0
O266 O 0.75255 0.37182 0.5582 0.0
C267 C 0.64291 0.96809 0.8257 0.0
O268 O 0.6446 0.97871 0.84698 0.0
O269 O 0.5976 0.99666 0.84824 0.0
Zn270 Zn 0.60864 0.99812 0.81488 0.0
O271 O 0.62747 0.02871 0.81258 0.0
C272 C 0.5771 0.97868 0.77411 0.0
O273 O 0.59004 0.96221 0.77519 0.0
O274 O 0.6288 0.97366 0.80916 0.0
C275 C 0.6396 0.03334 0.79494 0.0
O276 O 0.64032 0.01752 0.77801 0.0
C277 C 0.57668 0.99821 0.85286 0.0
O278 O 0.56091 1.00005 0.83511 0.0
O279 O 0.58149 0.99531 0.78952 0.0
C280 C 0.01267 0.21232 0.9425 0.0
O281 O 0.02027 0.23135 0.95509 0.0
O282 O 0.97966 0.24158 0.87911 0.0
Zn283 Zn 0.00731 0.24283 0.90412 0.0
O284 O 0.00494 0.26817 0.92872 0.0
C285 C 0.03995 0.2577 0.86866 0.0
O286 O 0.02175 0.26541 0.85815 0.0
O287 O 0.00588 0.21306 0.92037 0.0
C288 C 0.01557 0.2882 0.92774 0.0
O289 O 0.02999 0.29262 0.91093 0.0
C290 C 0.97198 0.2599 0.87363 0.0
O291 O 0.98236 0.27918 0.88403 0.0
O292 O 0.03789 0.24789 0.88833 0.0
C293 C 0.50443 0.71586 0.41847 0.0
O294 O 0.49863 0.7316 0.43314 0.0
O295 O 0.46997 0.75028 0.36642 0.0
Zn296 Zn 0.50255 0.74998 0.38238 0.0
O297 O 0.50861 0.77581 0.40761 0.0
C298 C 0.5216 0.75666 0.33572 0.0
O299 O 0.49958 0.75448 0.32715 0.0
O300 O 0.50633 0.71993 0.3965 0.0
C301 C 0.50909 0.79569 0.40004 0.0
O302 O 0.5073 0.79817 0.37674 0.0
C303 C 0.45489 0.75901 0.37786 0.0
O304 O 0.46011 0.76585 0.40052 0.0
O305 O 0.52649 0.75544 0.35817 0.0
C306 C 0.01866 0.79476 0.6296 0.0
O307 O 0.03225 0.78024 0.63754 0.0
O308 O 0.9596 0.77503 0.67535 0.0
Zn309 Zn 0.99023 0.77096 0.66155 0.0
O310 O 0.98716 0.74033 0.64421 0.0
C311 C 0.02667 0.79282 0.69607 0.0
O312 O 0.01798 0.81101 0.68927 0.0
O313 O 0.99854 0.79437 0.63744 0.0
C314 C 0.98328 0.72194 0.65486 0.0
O315 O 0.9808 0.72277 0.67806 0.0
C316 C 0.95799 0.77967 0.69755 0.0
O317 O 0.97695 0.78219 0.71245 0.0
O318 O 0.01715 0.77348 0.68718 0.0
C319 C 0.50602 0.29683 0.15466 0.0
O320 O 0.51219 0.27845 0.164 0.0
O321 O 0.43933 0.29345 0.19169 0.0
Zn322 Zn 0.46808 0.28168 0.18072 0.0
O323 O 0.45888 0.25148 0.1622 0.0
C324 C 0.505 0.29387 0.21876 0.0
O325 O 0.50644 0.31362 0.20897 0.0
O326 O 0.48632 0.30265 0.15904 0.0
C327 C 0.46954 0.23456 0.16643 0.0
O328 O 0.48621 0.23641 0.18401 0.0
C329 C 0.4401 0.31345 0.20085 0.0
O330 O 0.4598 0.32743 0.20166 0.0
O331 O 0.48948 0.2778 0.21014 0.0
H332 H 0.30016 0.81633 0.86501 0.0
H333 H 0.2313 0.77799 0.84711 0.0
H334 H 0.21669 0.79633 0.8824 0.0
H335 H 0.30017 0.81263 0.92851 0.0
H336 H 0.3155 0.84086 0.93529 0.0
H337 H 0.32011 0.82543 0.90806 0.0
H338 H 0.30854 0.85838 0.88291 0.0
H339 H 0.30398 0.87396 0.91007 0.0
H340 H 0.28077 0.8682 0.8863 0.0
H341 H 0.21017 0.81806 0.92067 0.0
H342 H 0.21192 0.84211 0.95809 0.0
H343 H 0.2853 0.86581 0.95073 0.0
C344 C 0.28196 0.8119 0.86844 0.0
C345 C 0.26669 0.79616 0.85303 0.0
C346 C 0.24306 0.79063 0.85818 0.0
C347 C 0.2347 0.80075 0.87835 0.0
C348 C 0.25024 0.81629 0.89316 0.0
C349 C 0.27336 0.82187 0.88838 0.0
C350 C 0.28659 0.83881 0.9072 0.0
C351 C 0.30678 0.82883 0.92055 0.0
C352 C 0.29549 0.86116 0.89594 0.0
C353 C 0.26736 0.84183 0.92343 0.0
C354 C 0.24652 0.82868 0.91508 0.0
C355 C 0.22638 0.82848 0.92732 0.0
C356 C 0.22756 0.84216 0.94858 0.0
C357 C 0.24874 0.85587 0.95733 0.0
C358 C 0.26883 0.8556 0.94451 0.0
H359 H 0.04596 0.53088 0.45247 0.0
H360 H 0.97981 0.53692 0.41259 0.0
H361 H 0.99682 0.52818 0.37468 0.0
H362 H 0.0826 0.55717 0.41071 0.0
H363 H 0.10472 0.53876 0.41479 0.0
H364 H 0.08701 0.54417 0.43897 0.0
H365 H 0.0742 0.50099 0.44145 0.0
H366 H 0.09196 0.49543 0.41732 0.0
H367 H 0.06121 0.48443 0.41485 0.0
H368 H 0.02146 0.52063 0.34102 0.0
H369 H 0.05186 0.51412 0.31388 0.0
H370 H 0.10201 0.51291 0.37563 0.0
C371 C 0.03494 0.53012 0.43581 0.0
C372 C 0.01151 0.53456 0.43555 0.0
C373 C 0.99779 0.53357 0.41329 0.0
C374 C 0.00728 0.5286 0.39165 0.0
C375 C 0.03051 0.52461 0.39254 0.0
C376 C 0.04414 0.52522 0.41403 0.0
C377 C 0.06882 0.52095 0.40995 0.0
C378 C 0.08684 0.54149 0.41915 0.0
C379 C 0.07436 0.49915 0.42158 0.0
C380 C 0.067 0.51811 0.38277 0.0
C381 C 0.04473 0.52022 0.3731 0.0
C382 C 0.03893 0.51881 0.34838 0.0
C383 C 0.05635 0.51516 0.33311 0.0
C384 C 0.07934 0.51297 0.34261 0.0
C385 C 0.0846 0.51439 0.3678 0.0
H386 H 0.73793 0.73194 0.87722 0.0
H387 H 0.8137 0.7477 0.8805 0.0
H388 H 0.81722 0.71979 0.91155 0.0
H389 H 0.73361 0.72713 0.93893 0.0
H390 H 0.70987 0.70396 0.93592 0.0
H391 H 0.71335 0.72359 0.91242 0.0
H392 H 0.71472 0.69028 0.88143 0.0
H393 H 0.71116 0.67051 0.90486 0.0
H394 H 0.73576 0.67097 0.88681 0.0
H395 H 0.81237 0.69278 0.94483 0.0
H396 H 0.79947 0.66804 0.9771 0.0
H397 H 0.72696 0.66941 0.95138 0.0
C398 C 0.7553 0.72931 0.88417 0.0
C399 C 0.77554 0.74203 0.87638 0.0
C400 C 0.79792 0.73813 0.88611 0.0
C401 C 0.80011 0.72229 0.90375 0.0
C402 C 0.77977 0.71033 0.9113 0.0
C403 C 0.7578 0.71352 0.90169 0.0
C404 C 0.73869 0.69933 0.9137 0.0
C405 C 0.72296 0.71441 0.92597 0.0
C406 C 0.72423 0.68173 0.89562 0.0
C407 C 0.75333 0.68807 0.93199 0.0
C408 C 0.77699 0.69454 0.93024 0.0
C409 C 0.79389 0.68736 0.94616 0.0
C410 C 0.7864 0.67336 0.96446 0.0
C411 C 0.76222 0.66667 0.96666 0.0
C412 C 0.74556 0.67393 0.94996 0.0
H413 H 0.04335 0.9955 0.38991 0.0
H414 H 0.02537 0.01796 0.46022 0.0
H415 H 0.99092 0.0327 0.44113 0.0
H416 H 0.02533 0.04283 0.3573 0.0
H417 H 0.01407 0.02513 0.33089 0.0
H418 H 0.03804 0.01765 0.35004 0.0
H419 H 0.01444 0.97811 0.35491 0.0
H420 H 0.99041 0.98549 0.33584 0.0
H421 H 0.98565 0.97629 0.36563 0.0
H422 H 0.95725 0.04316 0.4144 0.0
H423 H 0.92715 0.04863 0.38215 0.0
H424 H 0.96752 0.01925 0.32959 0.0
C425 C 0.03235 0.00373 0.40132 0.0
C426 C 0.03709 0.00561 0.42656 0.0
C427 C 0.02212 0.01636 0.44083 0.0
C428 C 0.00252 0.02481 0.43016 0.0
C429 C 0.99822 0.02243 0.40522 0.0
C430 C 0.01276 0.01222 0.39099 0.0
C431 C 0.00384 0.01102 0.36473 0.0
C432 C 0.02137 0.02499 0.34987 0.0
C433 C 0.99825 0.98626 0.3547 0.0
C434 C 0.9818 0.02184 0.36641 0.0
C435 C 0.9789 0.02843 0.38989 0.0
C436 C 0.95942 0.03821 0.39593 0.0
C437 C 0.94241 0.04122 0.37749 0.0
C438 C 0.94499 0.03441 0.35333 0.0
C439 C 0.96507 0.02476 0.34783 0.0
H440 H 0.21483 0.26303 0.63719 0.0
H441 H 0.25425 0.2409 0.69899 0.0
H442 H 0.26866 0.21227 0.67281 0.0
H443 H 0.19765 0.20793 0.60746 0.0
H444 H 0.20068 0.21807 0.57775 0.0
H445 H 0.19335 0.23663 0.60143 0.0
H446 H 0.22912 0.26602 0.59408 0.0
H447 H 0.23658 0.24753 0.5704 0.0
H448 H 0.25788 0.25742 0.59513 0.0
H449 H 0.27859 0.18585 0.63976 0.0
H450 H 0.28371 0.16413 0.60232 0.0
H451 H 0.23827 0.20414 0.56225 0.0
C452 C 0.22645 0.25214 0.64526 0.0
C453 C 0.23338 0.25418 0.67016 0.0
C454 C 0.2487 0.23965 0.67996 0.0
C455 C 0.25697 0.22333 0.66524 0.0
C456 C 0.24982 0.2218 0.64076 0.0
C457 C 0.23494 0.23585 0.63084 0.0
C458 C 0.23009 0.23093 0.60398 0.0
C459 C 0.20389 0.22291 0.59727 0.0
C460 C 0.23895 0.25171 0.59008 0.0
C461 C 0.24454 0.2119 0.60033 0.0
C462 C 0.25574 0.20683 0.62175 0.0
C463 C 0.26993 0.18971 0.62287 0.0
C464 C 0.27272 0.17746 0.60151 0.0
C465 C 0.26145 0.18245 0.57933 0.0
C466 C 0.24722 0.19995 0.57887 0.0
H467 H 0.47953 0.53012 0.6209 0.0
H468 H 0.50619 0.6004 0.64211 0.0
H469 H 0.48395 0.59757 0.67803 0.0
H470 H 0.42217 0.53129 0.63817 0.0
H471 H 0.41877 0.50312 0.64919 0.0
H472 H 0.43796 0.51002 0.62584 0.0
H473 H 0.47241 0.49715 0.65172 0.0
H474 H 0.45327 0.49006 0.67509 0.0
H475 H 0.47999 0.5094 0.68182 0.0
H476 H 0.45707 0.58811 0.71007 0.0
H477 H 0.42843 0.57201 0.73742 0.0
H478 H 0.4194 0.50766 0.69596 0.0
C479 C 0.48095 0.54482 0.63326 0.0
C480 C 0.49463 0.56549 0.62867 0.0
C481 C 0.49586 0.58438 0.64522 0.0
C482 C 0.48328 0.58296 0.66569 0.0
C483 C 0.46965 0.5625 0.66945 0.0
C484 C 0.46852 0.5437 0.65384 0.0
C485 C 0.452 0.52395 0.66178 0.0
C486 C 0.43151 0.51668 0.6426 0.0
C487 C 0.46521 0.50396 0.66798 0.0
C488 C 0.44378 0.53471 0.68409 0.0
C489 C 0.45422 0.55695 0.68817 0.0
C490 C 0.44892 0.57065 0.70721 0.0
C491 C 0.43255 0.56136 0.72259 0.0
C492 C 0.42171 0.53855 0.71888 0.0
C493 C 0.4275 0.52509 0.69937 0.0
H494 H 0.75334 0.2986 0.6969 0.0
H495 H 0.78028 0.24778 0.65298 0.0
H496 H 0.77732 0.27143 0.61798 0.0
H497 H 0.71187 0.31429 0.6509 0.0
H498 H 0.71683 0.34397 0.66036 0.0
H499 H 0.72068 0.32288 0.68196 0.0
H500 H 0.76306 0.34241 0.69384 0.0
H501 H 0.75936 0.36353 0.67226 0.0
H502 H 0.78325 0.34712 0.67091 0.0
H503 H 0.77205 0.30061 0.58798 0.0
H504 H 0.76473 0.33345 0.56467 0.0
H505 H 0.74119 0.36564 0.6279 0.0
C506 C 0.75853 0.29239 0.6799 0.0
C507 C 0.76702 0.27129 0.67769 0.0
C508 C 0.7737 0.26385 0.65513 0.0
C509 C 0.77209 0.27716 0.63513 0.0
C510 C 0.76374 0.29788 0.63796 0.0
C511 C 0.75704 0.30548 0.65974 0.0
C512 C 0.7489 0.32854 0.65793 0.0
C513 C 0.72303 0.32734 0.66309 0.0
C514 C 0.76459 0.34645 0.67473 0.0
C515 C 0.75218 0.33274 0.63174 0.0
C516 C 0.76072 0.3148 0.62059 0.0
C517 C 0.76532 0.31474 0.59649 0.0
C518 C 0.76109 0.33352 0.58341 0.0
C519 C 0.75235 0.35217 0.59442 0.0
C520 C 0.74784 0.35168 0.61894 0.0
H521 H 0.51429 0.94123 0.64442 0.0
H522 H 0.47797 0.0002 0.64962 0.0
H523 H 0.49507 0.00831 0.6915 0.0
H524 H 0.50908 0.92464 0.70653 0.0
H525 H 0.53783 0.91605 0.70903 0.0
H526 H 0.52112 0.91387 0.68024 0.0
H527 H 0.55542 0.93832 0.66215 0.0
H528 H 0.5722 0.9406 0.69083 0.0
H529 H 0.56673 0.96589 0.67601 0.0
H530 H 0.51854 0.01152 0.73177 0.0
H531 H 0.5465 0.00963 0.7671 0.0
H532 H 0.5671 0.94842 0.73525 0.0
C533 C 0.50962 0.95569 0.65442 0.0
C534 C 0.49473 0.97006 0.64371 0.0
C535 C 0.48928 0.98891 0.65743 0.0
C536 C 0.49887 0.99363 0.68125 0.0
C537 C 0.51375 0.97927 0.69111 0.0
C538 C 0.519 0.96062 0.67814 0.0
C539 C 0.53639 0.94851 0.69239 0.0
C540 C 0.52544 0.92434 0.69734 0.0
C541 C 0.55902 0.94834 0.67958 0.0
C542 C 0.54055 0.96355 0.71523 0.0
C543 C 0.5272 0.98109 0.71425 0.0
C544 C 0.5289 0.99772 0.73284 0.0
C545 C 0.54485 0.99652 0.75281 0.0
C546 C 0.55895 0.97884 0.75398 0.0
C547 C 0.55645 0.96203 0.73503 0.0
H548 H 0.86091 0.20554 0.78657 0.0
H549 H 0.84597 0.27411 0.77609 0.0
H550 H 0.88237 0.28927 0.80081 0.0
H551 H 0.88228 0.21471 0.84735 0.0
H552 H 0.90476 0.19665 0.84562 0.0
H553 H 0.87861 0.19114 0.82545 0.0
H554 H 0.90371 0.19312 0.78888 0.0
H555 H 0.92998 0.19853 0.80896 0.0
H556 H 0.92471 0.21793 0.7859 0.0
H557 H 0.91891 0.2969 0.82851 0.0
H558 H 0.9534 0.29663 0.85717 0.0
H559 H 0.9445 0.22304 0.84995 0.0
C560 C 0.86544 0.22377 0.78914 0.0
C561 C 0.85061 0.23865 0.7793 0.0
C562 C 0.85707 0.26237 0.78339 0.0
C563 C 0.87772 0.27115 0.79738 0.0
C564 C 0.89173 0.25599 0.80711 0.0
C565 C 0.88593 0.23281 0.80312 0.0
C566 C 0.90345 0.22019 0.81659 0.0
C567 C 0.89156 0.20477 0.83483 0.0
C568 C 0.91622 0.20665 0.79903 0.0
C569 C 0.91981 0.2399 0.8291 0.0
C570 C 0.9128 0.26039 0.82324 0.0
C571 C 0.92468 0.28097 0.83309 0.0
C572 C 0.94424 0.28062 0.84941 0.0
C573 C 0.95169 0.25981 0.8558 0.0
C574 C 0.93933 0.23922 0.84534 0.0
H575 H 0.49407 0.85818 0.52586 0.0
H576 H 0.49177 0.92004 0.48785 0.0
H577 H 0.49857 0.89965 0.45017 0.0
H578 H 0.53942 0.8373 0.49399 0.0
H579 H 0.52623 0.80807 0.49359 0.0
H580 H 0.52167 0.82761 0.5177 0.0
H581 H 0.47672 0.81767 0.50866 0.0
H582 H 0.48115 0.79801 0.48463 0.0
H583 H 0.46378 0.8204 0.4787 0.0
H584 H 0.50523 0.87245 0.41661 0.0
H585 H 0.50945 0.84003 0.38914 0.0
H586 H 0.50716 0.79587 0.44909 0.0
C587 C 0.49504 0.86749 0.50964 0.0
C588 C 0.49244 0.89074 0.50982 0.0
C589 C 0.4937 0.90223 0.48816 0.0
C590 C 0.49763 0.89082 0.46668 0.0
C591 C 0.50023 0.86793 0.46718 0.0
C592 C 0.49887 0.85636 0.48806 0.0
C593 C 0.50165 0.83165 0.48362 0.0
C594 C 0.52355 0.82582 0.49809 0.0
C595 C 0.4795 0.81602 0.48923 0.0
C596 C 0.50467 0.8311 0.45692 0.0
C597 C 0.50393 0.85222 0.44782 0.0
C598 C 0.50589 0.85584 0.42354 0.0
C599 C 0.50832 0.83731 0.40809 0.0
C600 C 0.50869 0.8154 0.41695 0.0
C601 C 0.50711 0.81241 0.44177 0.0
H602 H 0.13037 0.30503 0.77585 0.0
H603 H 0.18145 0.26833 0.81223 0.0
H604 H 0.15187 0.25322 0.83927 0.0
H605 H 0.1038 0.3212 0.82764 0.0
H606 H 0.07455 0.31776 0.81305 0.0
H607 H 0.09935 0.32476 0.7958 0.0
H608 H 0.08526 0.28951 0.76697 0.0
H609 H 0.06032 0.28248 0.78406 0.0
H610 H 0.07984 0.26191 0.77913 0.0
H611 H 0.11721 0.24381 0.86377 0.0
H612 H 0.07964 0.23947 0.88261 0.0
H613 H 0.05138 0.28201 0.82968 0.0
C614 C 0.13531 0.29364 0.78933 0.0
C615 C 0.15825 0.28787 0.79191 0.0
C616 C 0.16398 0.27296 0.80986 0.0
C617 C 0.14731 0.26431 0.82533 0.0
C618 C 0.12497 0.27063 0.82252 0.0
C619 C 0.11891 0.28482 0.80484 0.0
C620 C 0.09387 0.28936 0.80585 0.0
C621 C 0.09285 0.31478 0.81089 0.0
C622 C 0.07894 0.28027 0.78263 0.0
C623 C 0.08685 0.27572 0.82703 0.0
C624 C 0.10501 0.26504 0.83642 0.0
C625 C 0.10281 0.25196 0.85645 0.0
C626 C 0.08143 0.24965 0.86707 0.0
C627 C 0.06254 0.26033 0.85758 0.0
C628 C 0.06541 0.2735 0.83729 0.0
H629 H 0.51681 0.6235 0.51617 0.0
H630 H 0.5442 0.58233 0.46197 0.0
H631 H 0.54028 0.61207 0.43289 0.0
H632 H 0.47417 0.64462 0.47748 0.0
H633 H 0.4783 0.67247 0.49234 0.0
H634 H 0.48397 0.6483 0.509 0.0
H635 H 0.52615 0.66788 0.52192 0.0
H636 H 0.52056 0.69218 0.50543 0.0
H637 H 0.5451 0.67779 0.49925 0.0
H638 H 0.53184 0.6459 0.40936 0.0
H639 H 0.52143 0.68172 0.3938 0.0
H640 H 0.50004 0.70061 0.46386 0.0
C641 C 0.52214 0.62071 0.49824 0.0
C642 C 0.53079 0.60052 0.49135 0.0
C643 C 0.53758 0.59766 0.46769 0.0
C644 C 0.53536 0.61444 0.45104 0.0
C645 C 0.52646 0.63399 0.45838 0.0
C646 C 0.52013 0.63725 0.48149 0.0
C647 C 0.51094 0.65968 0.48493 0.0
C648 C 0.48533 0.65604 0.49131 0.0
C649 C 0.52663 0.6753 0.50401 0.0
C650 C 0.5129 0.66853 0.46006 0.0
C651 C 0.52184 0.65346 0.44499 0.0
C652 C 0.52493 0.65785 0.42105 0.0
C653 C 0.51889 0.67823 0.41237 0.0
C654 C 0.50993 0.69403 0.4276 0.0
C655 C 0.50688 0.68896 0.45174 0.0
H656 H 0.87083 0.8054 0.79599 0.0
H657 H 0.81316 0.78173 0.74265 0.0
H658 H 0.84143 0.77571 0.71276 0.0
H659 H 0.90948 0.83465 0.7558 0.0
H660 H 0.93548 0.82625 0.77064 0.0
H661 H 0.91068 0.82958 0.78744 0.0
H662 H 0.90972 0.78844 0.80108 0.0
H663 H 0.93449 0.78498 0.78431 0.0
H664 H 0.9078 0.76538 0.77875 0.0
H665 H 0.87615 0.77193 0.68882 0.0
H666 H 0.91458 0.76942 0.67312 0.0
H667 H 0.94929 0.79458 0.74262 0.0
C668 C 0.86411 0.79912 0.77797 0.0
C669 C 0.83978 0.79414 0.7716 0.0
C670 C 0.83173 0.78569 0.74792 0.0
C671 C 0.84764 0.78226 0.73081 0.0
C672 C 0.87153 0.78725 0.73772 0.0
C673 C 0.87973 0.79542 0.76076 0.0
C674 C 0.90622 0.7987 0.76388 0.0
C675 C 0.91603 0.82379 0.76978 0.0
C676 C 0.91507 0.78346 0.78314 0.0
C677 C 0.91167 0.79101 0.73902 0.0
C678 C 0.89145 0.78463 0.72413 0.0
C679 C 0.8921 0.77689 0.70032 0.0
C680 C 0.91402 0.77555 0.69156 0.0
C681 C 0.93495 0.78175 0.70664 0.0
C682 C 0.93363 0.78964 0.73064 0.0
H683 H 0.11046 0.85628 0.54584 0.0
H684 H 0.05556 0.89292 0.51701 0.0
H685 H 0.02848 0.87404 0.54454 0.0
H686 H 0.07383 0.80396 0.55151 0.0
H687 H 0.08932 0.7974 0.579 0.0
H688 H 0.10452 0.8145 0.55771 0.0
H689 H 0.11746 0.84636 0.59097 0.0
H690 H 0.1023 0.82934 0.61237 0.0
H691 H 0.09562 0.85756 0.60752 0.0
H692 H 0.00729 0.85067 0.57515 0.0
H693 H 0.99351 0.82404 0.60555 0.0
H694 H 0.0623 0.80243 0.61336 0.0
C695 C 0.0928 0.86047 0.5454 0.0
C696 C 0.08514 0.87613 0.52933 0.0
C697 C 0.06181 0.88098 0.52919 0.0
C698 C 0.04632 0.87037 0.54478 0.0
C699 C 0.05442 0.85492 0.56032 0.0
C700 C 0.0771 0.84996 0.56069 0.0
C701 C 0.08132 0.83229 0.5786 0.0
C702 C 0.08761 0.81077 0.56594 0.0
C703 C 0.1003 0.84198 0.59854 0.0
C704 C 0.05745 0.82801 0.5882 0.0
C705 C 0.04218 0.84129 0.57757 0.0
C706 C 0.0191 0.84019 0.5836 0.0
C707 C 0.01144 0.82504 0.60088 0.0
C708 C 0.02679 0.81112 0.61179 0.0
C709 C 0.05009 0.81277 0.60533 0.0
H710 H 0.14114 0.75217 0.75866 0.0
H711 H 0.1619 0.82146 0.7873 0.0
H712 H 0.12447 0.83177 0.76993 0.0
H713 H 0.11437 0.76575 0.70327 0.0
H714 H 0.09097 0.74231 0.70176 0.0
H715 H 0.11866 0.74002 0.71782 0.0
H716 H 0.09762 0.73021 0.75619 0.0
H717 H 0.06983 0.73245 0.74021 0.0
H718 H 0.07889 0.74918 0.7678 0.0
H719 H 0.08588 0.83507 0.74734 0.0
H720 H 0.04883 0.83102 0.72146 0.0
H721 H 0.0532 0.75949 0.70798 0.0
C722 C 0.13774 0.76946 0.76153 0.0
C723 C 0.15446 0.786 0.77438 0.0
C724 C 0.14935 0.80848 0.77756 0.0
C725 C 0.12813 0.8145 0.76779 0.0
C726 C 0.11215 0.79784 0.755 0.0
C727 C 0.11665 0.77576 0.75193 0.0
C728 C 0.09696 0.76128 0.73666 0.0
C729 C 0.10577 0.75179 0.71351 0.0
C730 C 0.08512 0.74215 0.75108 0.0
C731 C 0.08084 0.77875 0.73129 0.0
C732 C 0.08986 0.79971 0.74212 0.0
C733 C 0.07853 0.8187 0.73896 0.0
C734 C 0.05752 0.81623 0.72419 0.0
C735 C 0.04805 0.79493 0.71278 0.0
C736 C 0.05983 0.77595 0.71664 0.0
H737 H 0.99464 0.64118 0.54038 0.0
H738 H 0.98324 0.58385 0.58561 0.0
H739 H 0.97799 0.60991 0.61977 0.0
H740 H 0.0279 0.67915 0.58464 0.0
H741 H 0.01568 0.70374 0.57465 0.0
H742 H 0.01735 0.68045 0.55358 0.0
H743 H 0.97268 0.67714 0.54217 0.0
H744 H 0.97087 0.70047 0.56319 0.0
H745 H 0.9527 0.67368 0.56543 0.0
H746 H 0.9754 0.64264 0.6494 0.0
H747 H 0.97569 0.67926 0.672 0.0
H748 H 0.98894 0.71477 0.60703 0.0
C749 C 0.99085 0.63403 0.55739 0.0
C750 C 0.98932 0.61045 0.5603 0.0
C751 C 0.98447 0.60185 0.58294 0.0
C752 C 0.98144 0.61652 0.60244 0.0
C753 C 0.98328 0.6397 0.59898 0.0
C754 C 0.98783 0.64838 0.57699 0.0
C755 C 0.9896 0.67398 0.57809 0.0
C756 C 0.01409 0.68497 0.57241 0.0
C757 C 0.97031 0.68177 0.56122 0.0
C758 C 0.98556 0.6784 0.6042 0.0
C759 C 0.98185 0.65844 0.61596 0.0
C760 C 0.97817 0.65836 0.64034 0.0
C761 C 0.97839 0.67925 0.65302 0.0
C762 C 0.98231 0.6999 0.64131 0.0
C763 C 0.98581 0.69932 0.61653 0.0
H764 H 0.77981 0.881 0.23058 0.0
H765 H 0.77865 0.86641 0.30608 0.0
H766 H 0.80553 0.90168 0.317 0.0
H767 H 0.84115 0.90556 0.23341 0.0
H768 H 0.83591 0.92682 0.2124 0.0
H769 H 0.81716 0.89997 0.21044 0.0
H770 H 0.78097 0.92094 0.21345 0.0
H771 H 0.79963 0.94785 0.21564 0.0
H772 H 0.78009 0.94064 0.23865 0.0
H773 H 0.83143 0.93906 0.31999 0.0
H774 H 0.8562 0.97531 0.31462 0.0
H775 H 0.8406 0.96575 0.23726 0.0
C776 C 0.78541 0.88508 0.24939 0.0
C777 C 0.7771 0.87087 0.26746 0.0
C778 C 0.78474 0.87697 0.29188 0.0
C779 C 0.8 0.897 0.2983 0.0
C780 C 0.80752 0.91079 0.2801 0.0
C781 C 0.80063 0.90506 0.25614 0.0
C782 C 0.81108 0.92305 0.24017 0.0
C783 C 0.82729 0.91326 0.2231 0.0
C784 C 0.79179 0.93375 0.22616 0.0
C785 C 0.82483 0.93979 0.25892 0.0
C786 C 0.8225 0.9324 0.28184 0.0
C787 C 0.83347 0.94501 0.30212 0.0
C788 C 0.84745 0.96561 0.29889 0.0
C789 C 0.85037 0.9734 0.27553 0.0
C790 C 0.83872 0.96031 0.25535 0.0
H791 H 0.78827 0.15892 0.31728 0.0
H792 H 0.84602 0.20939 0.30187 0.0
H793 H 0.87096 0.17927 0.29733 0.0
H794 H 0.8235 0.1228 0.35122 0.0
H795 H 0.80577 0.09695 0.33929 0.0
H796 H 0.79282 0.12264 0.34248 0.0
H797 H 0.77821 0.11862 0.29727 0.0
H798 H 0.79123 0.09301 0.29391 0.0
H799 H 0.79896 0.11626 0.27509 0.0
H800 H 0.88899 0.14359 0.29247 0.0
H801 H 0.89937 0.10487 0.28889 0.0
H802 H 0.82998 0.07757 0.30774 0.0
C803 C 0.80624 0.16369 0.31321 0.0
C804 C 0.8152 0.18654 0.30996 0.0
C805 C 0.83877 0.19202 0.3045 0.0
C806 C 0.85308 0.17503 0.30186 0.0
C807 C 0.84359 0.15265 0.30485 0.0
C808 C 0.82077 0.14695 0.31054 0.0
C809 C 0.81472 0.12154 0.31224 0.0
C810 C 0.80886 0.11564 0.33783 0.0
C811 C 0.79459 0.11179 0.29351 0.0
C812 C 0.83763 0.11384 0.30632 0.0
C813 C 0.85405 0.13206 0.30216 0.0
C814 C 0.87634 0.12919 0.29584 0.0
C815 C 0.88203 0.10711 0.2938 0.0
C816 C 0.86551 0.08815 0.29808 0.0
C817 C 0.84304 0.09168 0.30445 0.0
H818 H 0.40883 0.98289 0.051 0.0
H819 H 0.38363 0.03498 0.00796 0.0
H820 H 0.34375 0.01361 0.00498 0.0
H821 H 0.37374 0.93564 0.01872 0.0
H822 H 0.36853 0.91985 0.04508 0.0
H823 H 0.39497 0.93957 0.04444 0.0
H824 H 0.38533 0.96052 0.08326 0.0
H825 H 0.35884 0.94087 0.08401 0.0
H826 H 0.35752 0.97092 0.08408 0.0
H827 H 0.30686 0.98634 0.00601 0.0
H828 H 0.27547 0.95478 0.01057 0.0
H829 H 0.3247 0.92037 0.05291 0.0
C830 C 0.39492 0.98987 0.04104 0.0
C831 C 0.39935 0.01064 0.02974 0.0
C832 C 0.38066 0.01912 0.01677 0.0
C833 C 0.35794 0.00712 0.015 0.0
C834 C 0.3542 0.98669 0.02629 0.0
C835 C 0.37215 0.97811 0.03905 0.0
C836 C 0.36352 0.95555 0.04911 0.0
C837 C 0.37593 0.93653 0.03871 0.0
C838 C 0.36648 0.95707 0.07676 0.0
C839 C 0.33793 0.95273 0.0399 0.0
C840 C 0.33292 0.97092 0.02685 0.0
C841 C 0.31055 0.97203 0.01625 0.0
C842 C 0.29283 0.954 0.01895 0.0
C843 C 0.29759 0.93509 0.03213 0.0
C844 C 0.32045 0.9346 0.04281 0.0
H845 H 0.18823 0.36183 0.31219 0.0
H846 H 0.25817 0.39248 0.33966 0.0
H847 H 0.2472 0.43046 0.33308 0.0
H848 H 0.18003 0.40187 0.26591 0.0
H849 H 0.14945 0.40186 0.27023 0.0
H850 H 0.16308 0.37701 0.27626 0.0
H851 H 0.14975 0.37777 0.31951 0.0
H852 H 0.13617 0.40266 0.31366 0.0
H853 H 0.15773 0.4031 0.3388 0.0
H854 H 0.22829 0.46512 0.32496 0.0
H855 H 0.20298 0.49412 0.315 0.0
H856 H 0.14532 0.44097 0.29271 0.0
C857 C 0.20132 0.3765 0.31663 0.0
C858 C 0.22409 0.37415 0.32643 0.0
C859 C 0.24063 0.39382 0.33212 0.0
C860 C 0.23457 0.41549 0.32845 0.0
C861 C 0.21191 0.41721 0.31903 0.0
C862 C 0.19557 0.39826 0.3131 0.0
C863 C 0.17228 0.40484 0.30367 0.0
C864 C 0.16584 0.39586 0.27746 0.0
C865 C 0.15284 0.39661 0.31988 0.0
C866 C 0.17805 0.43045 0.30543 0.0
C867 C 0.20101 0.43722 0.3143 0.0
C868 C 0.21031 0.46003 0.31789 0.0
C869 C 0.19576 0.47638 0.31221 0.0
C870 C 0.17216 0.46985 0.30304 0.0
C871 C 0.16329 0.44653 0.29962 0.0
H872 H 0.18013 0.98104 0.48751 0.0
H873 H 0.11308 0.99439 0.51038 0.0
H874 H 0.12963 0.0344 0.52061 0.0
H875 H 0.21555 0.01565 0.53389 0.0
H876 H 0.23821 0.02524 0.51474 0.0
H877 H 0.22074 0.99795 0.50844 0.0
H878 H 0.20912 0.00936 0.46534 0.0
H879 H 0.22655 0.0367 0.47153 0.0
H880 H 0.19598 0.03485 0.46135 0.0
H881 H 0.15406 0.07278 0.52946 0.0
H882 H 0.18435 0.10642 0.53616 0.0
H883 H 0.23532 0.0676 0.50755 0.0
C884 C 0.16892 0.99241 0.4946 0.0
C885 C 0.14517 0.98478 0.49764 0.0
C886 C 0.13108 1.00009 0.50711 0.0
C887 C 0.1404 0.02278 0.51321 0.0
C888 C 0.16385 0.02982 0.50976 0.0
C889 C 0.17791 0.01508 0.50068 0.0
C890 C 0.20261 0.02676 0.49901 0.0
C891 C 0.22031 0.01574 0.51498 0.0
C892 C 0.20892 0.02693 0.47275 0.0
C893 C 0.20033 0.05035 0.50877 0.0
C894 C 0.17785 0.05181 0.51486 0.0
C895 C 0.1717 0.07185 0.52466 0.0
C896 C 0.18903 0.09087 0.52841 0.0
C897 C 0.2122 0.08969 0.52234 0.0
C898 C 0.21777 0.06913 0.51228 0.0
H899 H 0.73111 0.12883 0.74462 0.0
H900 H 0.71454 0.17484 0.80118 0.0
H901 H 0.6848 0.14489 0.81367 0.0
H902 H 0.67118 0.09987 0.72989 0.0
H903 H 0.68076 0.07267 0.72468 0.0
H904 H 0.69953 0.09827 0.71905 0.0
H905 H 0.7326 0.08628 0.74762 0.0
H906 H 0.7139 0.06075 0.75348 0.0
H907 H 0.72695 0.07997 0.7781 0.0
H908 H 0.65897 0.10931 0.82189 0.0
H909 H 0.63757 0.07084 0.82426 0.0
H910 H 0.6707 0.04799 0.7622 0.0
C911 C 0.72097 0.13275 0.75939 0.0
C912 C 0.72514 0.15422 0.7719 0.0
C913 C 0.71165 0.15855 0.79128 0.0
C914 C 0.6947 0.14165 0.79853 0.0
C915 C 0.69138 0.12054 0.78614 0.0
C916 C 0.70399 0.11607 0.76686 0.0
C917 C 0.69763 0.0917 0.7572 0.0
C918 C 0.68662 0.09057 0.73116 0.0
C919 C 0.71904 0.07893 0.75923 0.0
C920 C 0.67975 0.08308 0.77431 0.0
C921 C 0.67637 0.10001 0.79081 0.0
C922 C 0.6613 0.09596 0.80893 0.0
C923 C 0.64929 0.07402 0.81017 0.0
C924 C 0.6524 0.0564 0.79338 0.0
C925 C 0.66782 0.06111 0.7752 0.0
H926 H 0.38825 0.01681 0.55858 0.0
H927 H 0.45347 0.05346 0.53854 0.0
H928 H 0.43337 0.08657 0.52979 0.0
H929 H 0.3505 0.03797 0.51337 0.0
H930 H 0.32719 0.03967 0.53274 0.0
H931 H 0.34678 0.01894 0.53748 0.0
H932 H 0.35686 0.03459 0.58158 0.0
H933 H 0.33733 0.0554 0.57696 0.0
H934 H 0.36753 0.0643 0.58761 0.0
H935 H 0.40602 0.11575 0.52321 0.0
H936 H 0.37344 0.13854 0.51889 0.0
H937 H 0.32628 0.08267 0.54333 0.0
C938 C 0.39833 0.03178 0.55233 0.0
C939 C 0.42245 0.03253 0.54924 0.0
C940 C 0.43498 0.05247 0.54103 0.0
C941 C 0.42372 0.07138 0.53604 0.0
C942 C 0.39994 0.07008 0.53933 0.0
C943 C 0.38739 0.05079 0.54727 0.0
C944 C 0.362 0.05371 0.54927 0.0
C945 C 0.34566 0.03656 0.53219 0.0
C946 C 0.35556 0.0519 0.57541 0.0
C947 C 0.3622 0.07767 0.5412 0.0
C948 C 0.38425 0.08684 0.53556 0.0
C949 C 0.38868 0.10874 0.52758 0.0
C950 C 0.37006 0.12156 0.5252 0.0
C951 C 0.34729 0.11243 0.53078 0.0
C952 C 0.34346 0.09019 0.53895 0.0
H953 H 0.59288 0.47818 0.50614 0.0
H954 H 0.61744 0.52119 0.57018 0.0
H955 H 0.65181 0.50091 0.57592 0.0
H956 H 0.61003 0.4268 0.52808 0.0
H957 H 0.6189 0.41716 0.49962 0.0
H958 H 0.59635 0.43519 0.50041 0.0
H959 H 0.61995 0.46397 0.47479 0.0
H960 H 0.64252 0.44598 0.47382 0.0
H961 H 0.64982 0.47513 0.48486 0.0
H962 H 0.68323 0.47537 0.57505 0.0
H963 H 0.71003 0.44758 0.56671 0.0
H964 H 0.66503 0.42164 0.50301 0.0
C965 C 0.60551 0.4834 0.52134 0.0
C966 C 0.60244 0.50129 0.53772 0.0
C967 C 0.61942 0.50758 0.55736 0.0
C968 C 0.63898 0.49612 0.56081 0.0
C969 C 0.64138 0.47847 0.54442 0.0
C970 C 0.62517 0.47222 0.525 0.0
C971 C 0.63188 0.45276 0.50993 0.0
C972 C 0.61318 0.43173 0.5095 0.0
C973 C 0.63631 0.4599 0.48434 0.0
C974 C 0.65437 0.44899 0.52394 0.0
C975 C 0.65952 0.46393 0.54381 0.0
C976 C 0.67939 0.46361 0.5595 0.0
C977 C 0.69449 0.44773 0.55464 0.0
C978 C 0.68968 0.43241 0.53419 0.0
C979 C 0.66925 0.43309 0.51878 0.0
H980 H 0.78039 0.29378 0.37793 0.0
H981 H 0.70692 0.26546 0.3734 0.0
H982 H 0.70063 0.29151 0.40697 0.0
H983 H 0.78738 0.29869 0.44271 0.0
H984 H 0.80768 0.32456 0.4438 0.0
H985 H 0.80601 0.3044 0.41859 0.0
H986 H 0.79815 0.33582 0.38953 0.0
H987 H 0.79962 0.35604 0.41468 0.0
H988 H 0.774 0.35141 0.39364 0.0
H989 H 0.70231 0.32118 0.44081 0.0
H990 H 0.71251 0.34967 0.47471 0.0
H991 H 0.7854 0.35682 0.45879 0.0
C992 C 0.76296 0.29305 0.38398 0.0
C993 C 0.74392 0.27818 0.37234 0.0
C994 C 0.7215 0.27751 0.38109 0.0
C995 C 0.71783 0.29205 0.40042 0.0
C996 C 0.73686 0.3069 0.41107 0.0
C997 C 0.75905 0.30727 0.40339 0.0
C998 C 0.77672 0.32419 0.41853 0.0
C999 C 0.79555 0.31224 0.43169 0.0
C1000 C 0.78776 0.34298 0.40317 0.0
C1001 C 0.76098 0.33331 0.43591 0.0
C1002 C 0.73801 0.32327 0.43118 0.0
C1003 C 0.72026 0.3291 0.44475 0.0
C1004 C 0.72621 0.34536 0.4639 0.0
C1005 C 0.74976 0.35543 0.46944 0.0
C1006 C 0.76726 0.34939 0.45507 0.0
H1007 H 0.49702 0.02382 0.95817 0.0
H1008 H 0.55897 0.0263 0.00778 0.0
H1009 H 0.58098 0.01391 0.9746 0.0
H1010 H 0.50709 0.97471 0.92004 0.0
H1011 H 0.49658 0.98665 0.89285 0.0
H1012 H 0.48502 0.99331 0.92096 0.0
H1013 H 0.49636 0.03621 0.91509 0.0
H1014 H 0.50798 0.02969 0.88705 0.0
H1015 H 0.52625 0.04695 0.91033 0.0
H1016 H 0.59692 0.00372 0.93569 0.0
H1017 H 0.60604 0.99776 0.89366 0.0
H1018 H 0.53391 0.00284 0.86926 0.0
C1019 C 0.51509 0.02133 0.96216 0.0
C1020 C 0.52624 0.02588 0.9856 0.0
C1021 C 0.55005 0.02287 0.98997 0.0
C1022 C 0.56267 0.01575 0.97127 0.0
C1023 C 0.55125 0.01176 0.9483 0.0
C1024 C 0.528 0.01445 0.94367 0.0
C1025 C 0.52033 0.01069 0.9171 0.0
C1026 C 0.50112 0.99011 0.91247 0.0
C1027 C 0.51226 0.03216 0.9068 0.0
C1028 C 0.54303 0.00591 0.90744 0.0
C1029 C 0.56056 0.00632 0.92577 0.0
C1030 C 0.58328 0.00318 0.9212 0.0
C1031 C 0.58829 0.99982 0.89725 0.0
C1032 C 0.5707 0.99982 0.87813 0.0
C1033 C 0.54772 0.00262 0.88344 0.0
H1034 H 0.22636 0.24086 0.3866 0.0
H1035 H 0.29978 0.25744 0.37407 0.0
H1036 H 0.30994 0.22976 0.40344 0.0
H1037 H 0.23472 0.2349 0.44942 0.0
H1038 H 0.21156 0.21145 0.44998 0.0
H1039 H 0.20999 0.23188 0.42728 0.0
H1040 H 0.20555 0.19962 0.39396 0.0
H1041 H 0.20707 0.17906 0.41658 0.0
H1042 H 0.22719 0.18053 0.39339 0.0
H1043 H 0.31228 0.20168 0.4358 0.0
H1044 H 0.30644 0.17446 0.46773 0.0
H1045 H 0.23141 0.17572 0.45824 0.0
C1046 C 0.24458 0.23859 0.38988 0.0
C1047 C 0.26227 0.25137 0.37802 0.0
C1048 C 0.28589 0.24784 0.38288 0.0
C1049 C 0.29185 0.23216 0.39954 0.0
C1050 C 0.27399 0.22002 0.41106 0.0
C1051 C 0.25081 0.22294 0.40633 0.0
C1052 C 0.23498 0.20804 0.42139 0.0
C1053 C 0.22206 0.22243 0.438 0.0
C1054 C 0.21768 0.19079 0.40537 0.0
C1055 C 0.25289 0.19648 0.43558 0.0
C1056 C 0.27529 0.2036 0.42937 0.0
C1057 C 0.2948 0.19583 0.44066 0.0
C1058 C 0.2913 0.18041 0.45881 0.0
C1059 C 0.26847 0.17287 0.4654 0.0
C1060 C 0.24907 0.18097 0.45346 0.0
H1061 H 0.51769 0.47559 0.8868 0.0
H1062 H 0.50202 0.5211 0.94427 0.0
H1063 H 0.46895 0.53137 0.91835 0.0
H1064 H 0.50489 0.51081 0.83825 0.0
H1065 H 0.49223 0.4873 0.81793 0.0
H1066 H 0.51453 0.48345 0.84111 0.0
H1067 H 0.48674 0.4505 0.85693 0.0
H1068 H 0.46433 0.45431 0.83386 0.0
H1069 H 0.45817 0.45538 0.86501 0.0
H1070 H 0.43753 0.53653 0.88624 0.0
H1071 H 0.41071 0.53715 0.84982 0.0
H1072 H 0.44715 0.48838 0.81332 0.0
C1073 C 0.50733 0.48773 0.89397 0.0
C1074 C 0.51243 0.49752 0.91759 0.0
C1075 C 0.49846 0.51338 0.92623 0.0
C1076 C 0.47961 0.51929 0.91166 0.0
C1077 C 0.47502 0.50923 0.88852 0.0
C1078 C 0.48852 0.49385 0.87969 0.0
C1079 C 0.48004 0.48565 0.85409 0.0
C1080 C 0.49906 0.4922 0.83683 0.0
C1081 C 0.47183 0.45993 0.85239 0.0
C1082 C 0.45965 0.49884 0.84989 0.0
C1083 C 0.457 0.51229 0.86999 0.0
C1084 C 0.43943 0.52608 0.87039 0.0
C1085 C 0.42427 0.52629 0.84961 0.0
C1086 C 0.42682 0.51282 0.82869 0.0
C1087 C 0.4447 0.49885 0.82899 0.0
H1088 H 0.74574 0.74815 0.17899 0.0
H1089 H 0.71284 0.7986 0.14005 0.0
H1090 H 0.71412 0.77643 0.102 0.0
H1091 H 0.7845 0.73556 0.13365 0.0
H1092 H 0.78134 0.70568 0.1388 0.0
H1093 H 0.77847 0.72583 0.16297 0.0
H1094 H 0.73745 0.70449 0.16931 0.0
H1095 H 0.74015 0.68432 0.14511 0.0
H1096 H 0.71539 0.69974 0.14435 0.0
H1097 H 0.71824 0.74868 0.06838 0.0
H1098 H 0.72501 0.71712 0.04111 0.0
H1099 H 0.75497 0.68422 0.10167 0.0
C1100 C 0.73896 0.75463 0.16244 0.0
C1101 C 0.72923 0.77517 0.16251 0.0
C1102 C 0.72039 0.78294 0.14047 0.0
C1103 C 0.72104 0.77047 0.11875 0.0
C1104 C 0.73057 0.75024 0.11935 0.0
C1105 C 0.73939 0.74234 0.14058 0.0
C1106 C 0.74827 0.71983 0.13622 0.0
C1107 C 0.77472 0.72186 0.14333 0.0
C1108 C 0.73449 0.70098 0.14954 0.0
C1109 C 0.74297 0.71629 0.10922 0.0
C1110 C 0.73281 0.73408 0.09989 0.0
C1111 C 0.72622 0.73467 0.07546 0.0
C1112 C 0.73014 0.71662 0.06011 0.0
C1113 C 0.74052 0.69815 0.06921 0.0
C1114 C 0.74699 0.69806 0.09414 0.0
H1115 H 0.97272 0.06836 0.11377 0.0
H1116 H 0.97002 0.99557 0.10138 0.0
H1117 H 0.95523 0.98962 0.14119 0.0
H1118 H 0.99171 0.07054 0.17702 0.0
H1119 H 0.9742 0.09212 0.18493 0.0
H1120 H 0.98474 0.09079 0.15544 0.0
H1121 H 0.94222 0.08826 0.13608 0.0
H1122 H 0.93157 0.08959 0.16551 0.0
H1123 H 0.92014 0.06627 0.14442 0.0
H1124 H 0.94048 0.99137 0.18196 0.0
H1125 H 0.92666 0.00073 0.22134 0.0
H1126 H 0.93894 0.07241 0.20754 0.0
C1127 C 0.96905 0.05117 0.11943 0.0
C1128 C 0.97254 0.03243 0.10443 0.0
C1129 C 0.9675 0.01021 0.11253 0.0
C1130 C 0.9591 0.00663 0.13513 0.0
C1131 C 0.95583 0.02545 0.14944 0.0
C1132 C 0.96065 0.04728 0.14197 0.0
C1133 C 0.95549 0.06451 0.16086 0.0
C1134 C 0.97787 0.08042 0.17011 0.0
C1135 C 0.93621 0.07794 0.15113 0.0
C1136 C 0.94695 0.04891 0.18005 0.0
C1137 C 0.94732 0.02646 0.17308 0.0
C1138 C 0.94013 0.00889 0.18767 0.0
C1139 C 0.93231 0.0144 0.21001 0.0
C1140 C 0.93173 0.03731 0.21757 0.0
C1141 C 0.9392 0.05474 0.20232 0.0
H1142 H 0.24263 0.82224 0.18834 0.0
H1143 H 0.27186 0.76174 0.16712 0.0
H1144 H 0.27136 0.77353 0.12532 0.0
H1145 H 0.2038 0.82274 0.13491 0.0
H1146 H 0.20802 0.8532 0.13375 0.0
H1147 H 0.21097 0.84032 0.16224 0.0
H1148 H 0.25277 0.86243 0.17082 0.0
H1149 H 0.24992 0.87542 0.1424 0.0
H1150 H 0.27415 0.86004 0.14932 0.0
H1151 H 0.26794 0.79164 0.08608 0.0
H1152 H 0.26167 0.81495 0.05146 0.0
H1153 H 0.23393 0.86365 0.09747 0.0
C1154 C 0.249 0.81151 0.17492 0.0
C1155 C 0.25733 0.79106 0.18104 0.0
C1156 C 0.2654 0.77746 0.1629 0.0
C1157 C 0.26519 0.78401 0.13909 0.0
C1158 C 0.25678 0.80417 0.13365 0.0
C1159 C 0.24881 0.81774 0.15098 0.0
C1160 C 0.24049 0.83849 0.14019 0.0
C1161 C 0.21426 0.83869 0.14294 0.0
C1162 C 0.25522 0.86039 0.15135 0.0
C1163 C 0.24508 0.83444 0.11409 0.0
C1164 C 0.25452 0.81455 0.1108 0.0
C1165 C 0.26052 0.80724 0.08841 0.0
C1166 C 0.2569 0.82064 0.06884 0.0
C1167 C 0.24726 0.84113 0.0717 0.0
C1168 C 0.24119 0.84802 0.09467 0.0
H1169 H 0.97084 0.44544 0.14524 0.0
H1170 H 0.00406 0.49537 0.09958 0.0
H1171 H 0.03612 0.50619 0.13134 0.0
H1172 H 0.98562 0.47947 0.20128 0.0
H1173 H 0.99039 0.45543 0.21863 0.0
H1174 H 0.96985 0.4518 0.19238 0.0
H1175 H 0.99205 0.42083 0.1747 0.0
H1176 H 0.01279 0.42451 0.20078 0.0
H1177 H 0.02293 0.42742 0.17119 0.0
H1178 H 0.06543 0.51024 0.16684 0.0
H1179 H 0.08861 0.50995 0.20563 0.0
H1180 H 0.03581 0.4584 0.22914 0.0
C1181 C 0.98478 0.45875 0.14198 0.0
C1182 C 0.98498 0.46952 0.1199 0.0
C1183 C 0.00349 0.48692 0.11637 0.0
C1184 C 0.02183 0.49313 0.13426 0.0
C1185 C 0.02128 0.48194 0.15563 0.0
C1186 C 0.00311 0.46534 0.15974 0.0
C1187 C 0.00668 0.45619 0.18447 0.0
C1188 C 0.98696 0.46102 0.20011 0.0
C1189 C 0.00874 0.43073 0.18266 0.0
C1190 C 0.02981 0.47012 0.19351 0.0
C1191 C 0.03797 0.48473 0.17649 0.0
C1192 C 0.05917 0.499 0.1804 0.0
C1193 C 0.07225 0.49862 0.20248 0.0
C1194 C 0.064 0.48419 0.22047 0.0
C1195 C 0.04254 0.46967 0.2158 0.0
H1196 H 0.3506 0.74468 0.27398 0.0
H1197 H 0.3192 0.7949 0.31426 0.0
H1198 H 0.3534 0.7998 0.34424 0.0
H1199 H 0.37341 0.71808 0.32321 0.0
H1200 H 0.40019 0.71339 0.31049 0.0
H1201 H 0.3743 0.71515 0.29104 0.0
H1202 H 0.39676 0.74754 0.26883 0.0
H1203 H 0.42286 0.74569 0.28802 0.0
H1204 H 0.41168 0.77239 0.28585 0.0
H1205 H 0.38892 0.79628 0.37187 0.0
H1206 H 0.42531 0.78757 0.39321 0.0
H1207 H 0.43423 0.74055 0.33422 0.0
C1208 C 0.35108 0.75701 0.28887 0.0
C1209 C 0.33219 0.76941 0.29177 0.0
C1210 C 0.3335 0.78532 0.31157 0.0
C1211 C 0.35281 0.78815 0.32875 0.0
C1212 C 0.37078 0.77516 0.32569 0.0
C1213 C 0.37028 0.76019 0.30604 0.0
C1214 C 0.39157 0.74788 0.30728 0.0
C1215 C 0.38443 0.72211 0.30805 0.0
C1216 C 0.40661 0.75374 0.28624 0.0
C1217 C 0.40388 0.7579 0.33098 0.0
C1218 C 0.39156 0.77355 0.34134 0.0
C1219 C 0.39887 0.78428 0.36379 0.0
C1220 C 0.41949 0.77909 0.37583 0.0
C1221 C 0.43263 0.76342 0.36534 0.0
C1222 C 0.42465 0.75272 0.34261 0.0
H1223 H 0.94794 0.34309 0.02959 0.0
H1224 H 0.96834 0.40842 4e-05 0.0
H1225 H 0.98967 0.38999 0.96988 0.0
H1226 H 0.00122 0.32057 0.0227 0.0
H1227 H 0.98718 0.29218 0.01418 0.0
H1228 H 0.97323 0.31037 0.03334 0.0
H1229 H 0.93607 0.30478 0.0035 0.0
H1230 H 0.94981 0.28635 0.9844 0.0
H1231 H 0.93873 0.31077 0.97238 0.0
H1232 H 0.01028 0.36471 0.94414 0.0
H1233 H 0.02512 0.33378 0.92177 0.0
H1234 H 0.99015 0.28482 0.96727 0.0
C1235 C 0.95676 0.35351 0.01668 0.0
C1236 C 0.95652 0.3772 0.01721 0.0
C1237 C 0.96821 0.39022 -7e-05 0.0
C1238 C 0.98048 0.37994 0.98281 0.0
C1239 C 0.98073 0.35661 0.98307 0.0
C1240 C 0.96889 0.3435 0.99932 0.0
C1241 C 0.97153 0.3187 0.99545 0.0
C1242 C 0.98404 0.30995 0.01774 0.0
C1243 C 0.94761 0.30431 0.98851 0.0
C1244 C 0.98678 0.31993 0.97456 0.0
C1245 C 0.99208 0.34197 0.96784 0.0
C1246 C 0.00615 0.34736 0.94914 0.0
C1247 C 0.0146 0.32968 0.93663 0.0
C1248 C 0.00876 0.30688 0.94273 0.0
C1249 C 0.99488 0.30207 0.96214 0.0
H1250 H 0.6542 0.78039 0.30434 0.0
H1251 H 0.62881 0.79144 0.2312 0.0
H1252 H 0.58809 0.78074 0.24154 0.0
H1253 H 0.61 0.73223 0.31422 0.0
H1254 H 0.60819 0.74143 0.3451 0.0
H1255 H 0.63524 0.74793 0.33119 0.0
H1256 H 0.63562 0.79067 0.34232 0.0
H1257 H 0.60852 0.78432 0.35609 0.0
H1258 H 0.61073 0.80423 0.33266 0.0
H1259 H 0.54997 0.77116 0.26081 0.0
H1260 H 0.51776 0.76332 0.2873 0.0
H1261 H 0.56868 0.7593 0.34769 0.0
C1262 C 0.64015 0.7802 0.29033 0.0
C1263 C 0.64471 0.78667 0.26692 0.0
C1264 C 0.62574 0.78647 0.24924 0.0
C1265 C 0.60256 0.7804 0.25494 0.0
C1266 C 0.59869 0.77456 0.27836 0.0
C1267 C 0.61699 0.77432 0.29573 0.0
C1268 C 0.6082 0.76858 0.31986 0.0
C1269 C 0.61586 0.74621 0.32807 0.0
C1270 C 0.61624 0.78812 0.33884 0.0
C1271 C 0.58207 0.76602 0.3135 0.0
C1272 C 0.57687 0.76933 0.28945 0.0
C1273 C 0.55384 0.76837 0.27963 0.0
C1274 C 0.53567 0.76395 0.29482 0.0
C1275 C 0.54069 0.7607 0.31956 0.0
C1276 C 0.56423 0.76167 0.32886 0.0
H1277 H 0.0046 0.0777 0.94464 0.0
H1278 H 0.02422 0.08617 0.02133 0.0
H1279 H 0.02463 0.12758 0.0194 0.0
H1280 H 0.04082 0.12711 0.92828 0.0
H1281 H 0.01999 0.13378 0.9049 0.0
H1282 H 0.02036 0.1048 0.91263 0.0
H1283 H 0.97642 0.10134 0.92042 0.0
H1284 H 0.97592 0.13033 0.91272 0.0
H1285 H 0.96686 0.12129 0.94137 0.0
H1286 H 0.02415 0.1683 0.00863 0.0
H1287 H 0.02264 0.20502 0.99006 0.0
H1288 H 0.00338 0.16968 0.92035 0.0
C1289 C 0.00889 0.08826 0.96106 0.0
C1290 C 0.01389 0.07867 0.98325 0.0
C1291 C 0.01956 0.09305 0.0043 0.0
C1292 C 0.02007 0.11662 0.00331 0.0
C1293 C 0.01488 0.1255 0.98114 0.0
C1294 C 0.00939 0.11174 0.9604 0.0
C1295 C 0.00485 0.12549 0.93877 0.0
C1296 C 0.02256 0.12262 0.92005 0.0
C1297 C 0.9795 0.11924 0.92767 0.0
C1298 C 0.00884 0.14919 0.95053 0.0
C1299 C 0.01461 0.14885 0.97497 0.0
C1300 C 0.01955 0.16875 0.98953 0.0
C1301 C 0.01867 0.18953 0.9788 0.0
C1302 C 0.01283 0.19026 0.95375 0.0
C1303 C 0.00775 0.16973 0.93955 0.0
H1304 H 0.31748 0.29002 0.25762 0.0
H1305 H 0.3353 0.35551 0.29637 0.0
H1306 H 0.3708 0.3631 0.27436 0.0
H1307 H 0.37489 0.27656 0.25935 0.0
H1308 H 0.37151 0.26249 0.22983 0.0
H1309 H 0.34642 0.2632 0.24689 0.0
H1310 H 0.32518 0.2814 0.21171 0.0
H1311 H 0.35026 0.28077 0.19453 0.0
H1312 H 0.33911 0.30715 0.2001 0.0
H1313 H 0.40544 0.36263 0.24976 0.0
H1314 H 0.43746 0.35343 0.22591 0.0
H1315 H 0.39727 0.28792 0.20386 0.0
C1316 C 0.32865 0.30612 0.26122 0.0
C1317 C 0.32355 0.32224 0.27862 0.0
C1318 C 0.33884 0.34293 0.28309 0.0
C1319 C 0.35898 0.34743 0.27061 0.0
C1320 C 0.36361 0.33106 0.25375 0.0
C1321 C 0.3489 0.3108 0.24908 0.0
C1322 C 0.35863 0.29542 0.23128 0.0
C1323 C 0.36313 0.27311 0.24252 0.0
C1324 C 0.34232 0.29093 0.20802 0.0
C1325 C 0.38133 0.31003 0.227 0.0
C1326 C 0.38374 0.33063 0.23988 0.0
C1327 C 0.40366 0.34661 0.23946 0.0
C1328 C 0.42176 0.34123 0.22583 0.0
C1329 C 0.4199 0.31996 0.21298 0.0
C1330 C 0.3992 0.30437 0.21334 0.0
H1331 H 0.54426 0.38621 0.05713 0.0
H1332 H 0.61313 0.36469 0.06492 0.0
H1333 H 0.60007 0.33942 0.09656 0.0
H1334 H 0.53352 0.38536 0.12086 0.0
H1335 H 0.50283 0.37479 0.11476 0.0
H1336 H 0.51789 0.39215 0.09354 0.0
H1337 H 0.50482 0.36073 0.0599 0.0
H1338 H 0.48979 0.34325 0.08101 0.0
H1339 H 0.51166 0.33246 0.06416 0.0
H1340 H 0.5792 0.31498 0.12541 0.0
H1341 H 0.55203 0.29339 0.1507 0.0
H1342 H 0.49659 0.33093 0.125 0.0
C1343 C 0.55668 0.37637 0.06567 0.0
C1344 C 0.57975 0.37746 0.05855 0.0
C1345 C 0.5954 0.36419 0.07008 0.0
C1346 C 0.58815 0.34978 0.08808 0.0
C1347 C 0.56524 0.34892 0.09446 0.0
C1348 C 0.54975 0.36192 0.08374 0.0
C1349 C 0.5259 0.35727 0.09352 0.0
C1350 C 0.51967 0.37867 0.10644 0.0
C1351 C 0.50693 0.34787 0.07345 0.0
C1352 C 0.53034 0.33937 0.11115 0.0
C1353 C 0.55318 0.33488 0.1114 0.0
C1354 C 0.56132 0.31846 0.12553 0.0
C1355 C 0.5457 0.30623 0.13978 0.0
C1356 C 0.52219 0.31049 0.13986 0.0
C1357 C 0.5145 0.32743 0.12546 0.0
H1358 H 0.63152 0.31334 0.28835 0.0
H1359 H 0.61416 0.24782 0.31861 0.0
H1360 H 0.57359 0.24551 0.30047 0.0
H1361 H 0.57443 0.33334 0.29474 0.0
H1362 H 0.57513 0.34709 0.26661 0.0
H1363 H 0.60209 0.34467 0.28412 0.0
H1364 H 0.61711 0.32478 0.24736 0.0
H1365 H 0.59022 0.32707 0.2298 0.0
H1366 H 0.59977 0.29971 0.23299 0.0
H1367 H 0.53619 0.24849 0.27561 0.0
H1368 H 0.50456 0.257 0.24654 0.0
H1369 H 0.54624 0.32082 0.2332 0.0
C1370 C 0.6191 0.29869 0.29157 0.0
C1371 C 0.62602 0.28078 0.30494 0.0
C1372 C 0.60926 0.26179 0.30848 0.0
C1373 C 0.58615 0.26033 0.29829 0.0
C1374 C 0.58003 0.27808 0.28479 0.0
C1375 C 0.59598 0.29698 0.28156 0.0
C1376 C 0.58539 0.31306 0.26505 0.0
C1377 C 0.58419 0.33589 0.27844 0.0
C1378 C 0.59892 0.31633 0.24247 0.0
C1379 C 0.5612 0.29997 0.25899 0.0
C1380 C 0.55838 0.27991 0.27067 0.0
C1381 C 0.53804 0.26431 0.26665 0.0
C1382 C 0.52021 0.26927 0.25008 0.0
C1383 C 0.52286 0.28964 0.23776 0.0
C1384 C 0.54351 0.30527 0.24261 0.0
H1385 H 0.4985 0.1184 0.10862 0.0
H1386 H 0.44381 0.12313 0.05208 0.0
H1387 H 0.43316 0.15675 0.07365 0.0
H1388 H 0.46716 0.13724 0.15903 0.0
H1389 H 0.49337 0.15296 0.17426 0.0
H1390 H 0.49519 0.12803 0.15549 0.0
H1391 H 0.52507 0.15152 0.13075 0.0
H1392 H 0.5233 0.17649 0.14938 0.0
H1393 H 0.51737 0.17673 0.11724 0.0
H1394 H 0.43046 0.19156 0.09982 0.0
H1395 H 0.43611 0.22494 0.12846 0.0
H1396 H 0.49258 0.19735 0.16776 0.0
C1397 C 0.48402 0.12625 0.10095 0.0
C1398 C 0.47194 0.11807 0.07868 0.0
C1399 C 0.4533 0.12905 0.06913 0.0
C1400 C 0.44707 0.14814 0.08128 0.0
C1401 C 0.45959 0.15598 0.103 0.0
C1402 C 0.47762 0.14534 0.11279 0.0
C1403 C 0.48921 0.15792 0.13563 0.0
C1404 C 0.48603 0.14315 0.15739 0.0
C1405 C 0.51527 0.16615 0.13308 0.0
C1406 C 0.47521 0.17756 0.13688 0.0
C1407 C 0.45807 0.17605 0.11803 0.0
C1408 C 0.44366 0.1928 0.11481 0.0
C1409 C 0.44702 0.21171 0.13116 0.0
C1410 C 0.46473 0.21375 0.15041 0.0
C1411 C 0.47875 0.19624 0.15338 0.0
H1412 H 0.27674 0.37752 0.76345 0.0
H1413 H 0.24704 0.37621 0.68952 0.0
H1414 H 0.26903 0.41415 0.68503 0.0
H1415 H 0.27455 0.43569 0.77762 0.0
H1416 H 0.30187 0.44005 0.79612 0.0
H1417 H 0.28456 0.41244 0.79317 0.0
H1418 H 0.32002 0.39487 0.77869 0.0
H1419 H 0.33749 0.42242 0.7817 0.0
H1420 H 0.33436 0.40622 0.75337 0.0
H1421 H 0.29312 0.45304 0.68926 0.0
H1422 H 0.31835 0.4892 0.70149 0.0
H1423 H 0.3323 0.46453 0.77248 0.0
C1424 C 0.27496 0.38509 0.74623 0.0
C1425 C 0.26014 0.37385 0.72683 0.0
C1426 C 0.25831 0.38444 0.70464 0.0
C1427 C 0.27071 0.406 0.70191 0.0
C1428 C 0.28494 0.41669 0.7215 0.0
C1429 C 0.28722 0.40652 0.74318 0.0
C1430 C 0.30335 0.42168 0.76158 0.0
C1431 C 0.29029 0.42782 0.7834 0.0
C1432 C 0.32509 0.41064 0.76928 0.0
C1433 C 0.30964 0.44209 0.74694 0.0
C1434 C 0.29887 0.43891 0.72387 0.0
C1435 C 0.30174 0.45566 0.70724 0.0
C1436 C 0.31606 0.47616 0.71437 0.0
C1437 C 0.32734 0.4797 0.73792 0.0
C1438 C 0.32402 0.46235 0.75432 0.0
H1439 H 0.31287 0.6822 0.77877 0.0
H1440 H 0.33578 0.70281 0.85311 0.0
H1441 H 0.34242 0.66354 0.86087 0.0
H1442 H 0.28514 0.62406 0.78835 0.0
H1443 H 0.29591 0.61233 0.76179 0.0
H1444 H 0.2898 0.64121 0.76285 0.0
H1445 H 0.33217 0.65515 0.75264 0.0
H1446 H 0.33838 0.62637 0.75151 0.0
H1447 H 0.35649 0.64754 0.77122 0.0
H1448 H 0.34824 0.62277 0.86012 0.0
H1449 H 0.35713 0.58435 0.8501 0.0
H1450 H 0.33329 0.59084 0.77542 0.0
C1451 C 0.3188 0.67826 0.79678 0.0
C1452 C 0.32352 0.69533 0.81547 0.0
C1453 C 0.33197 0.68985 0.83863 0.0
C1454 C 0.33564 0.66761 0.84322 0.0
C1455 C 0.33108 0.65117 0.82435 0.0
C1456 C 0.3231 0.65625 0.80151 0.0
C1457 C 0.32204 0.63608 0.78383 0.0
C1458 C 0.29671 0.62794 0.77361 0.0
C1459 C 0.33824 0.64162 0.76362 0.0
C1460 C 0.33108 0.619 0.80021 0.0
C1461 C 0.33565 0.6279 0.82361 0.0
C1462 C 0.34464 0.61557 0.84189 0.0
C1463 C 0.34958 0.59373 0.83601 0.0
C1464 C 0.34595 0.58462 0.81197 0.0
C1465 C 0.33622 0.59734 0.79396 0.0
H1466 H 0.88416 0.51368 0.49508 0.0
H1467 H 0.94024 0.49403 0.54238 0.0
H1468 H 0.91245 0.46341 0.55692 0.0
H1469 H 0.83884 0.50368 0.5356 0.0
H1470 H 0.81641 0.49284 0.51222 0.0
H1471 H 0.84072 0.5132 0.50551 0.0
H1472 H 0.85041 0.48566 0.47174 0.0
H1473 H 0.82612 0.46521 0.47834 0.0
H1474 H 0.85513 0.45729 0.47876 0.0
H1475 H 0.87862 0.43487 0.56622 0.0
H1476 H 0.84114 0.41037 0.56961 0.0
H1477 H 0.80711 0.44871 0.51628 0.0
C1478 C 0.89062 0.50295 0.5085 0.0
C1479 C 0.9144 0.50626 0.5176 0.0
C1480 C 0.92212 0.49183 0.53514 0.0
C1481 C 0.90647 0.47439 0.54352 0.0
C1482 C 0.88316 0.4716 0.53418 0.0
C1483 C 0.87525 0.48547 0.51706 0.0
C1484 C 0.84934 0.47885 0.50993 0.0
C1485 C 0.83552 0.4983 0.5162 0.0
C1486 C 0.84501 0.4713 0.4831 0.0
C1487 C 0.84391 0.45908 0.52572 0.0
C1488 C 0.86366 0.45518 0.53957 0.0
C1489 C 0.86303 0.43776 0.55548 0.0
C1490 C 0.84164 0.42394 0.55727 0.0
C1491 C 0.82115 0.4276 0.54323 0.0
C1492 C 0.82241 0.44547 0.52729 0.0
H1493 H 0.7224 0.87379 0.86235 0.0
H1494 H 0.71176 0.84735 0.78811 0.0
H1495 H 0.68976 0.87885 0.77773 0.0
H1496 H 0.66638 0.88989 0.86598 0.0
H1497 H 0.67636 0.91525 0.8847 0.0
H1498 H 0.69268 0.89161 0.8859 0.0
H1499 H 0.73003 0.91768 0.87608 0.0
H1500 H 0.71383 0.94145 0.87493 0.0
H1501 H 0.72923 0.9339 0.84956 0.0
H1502 H 0.66682 0.91192 0.77605 0.0
H1503 H 0.64526 0.94431 0.78305 0.0
H1504 H 0.67123 0.94906 0.85837 0.0
C1505 C 0.71571 0.87473 0.84383 0.0
C1506 C 0.71884 0.8581 0.82603 0.0
C1507 C 0.70964 0.85992 0.80205 0.0
C1508 C 0.69713 0.87776 0.79597 0.0
C1509 C 0.69408 0.89368 0.81405 0.0
C1510 C 0.70322 0.89239 0.83746 0.0
C1511 C 0.69678 0.91116 0.85371 0.0
C1512 C 0.68218 0.90138 0.87375 0.0
C1513 C 0.71878 0.92698 0.86418 0.0
C1514 C 0.68224 0.92299 0.83587 0.0
C1515 C 0.68098 0.91273 0.81307 0.0
C1516 C 0.66785 0.92021 0.79379 0.0
C1517 C 0.65563 0.93859 0.79796 0.0
C1518 C 0.6566 0.94928 0.82125 0.0
C1519 C 0.67025 0.94139 0.84034 0.0
H1520 H 0.6543 0.48779 0.00617 0.0
H1521 H 0.58554 0.50813 0.01112 0.0
H1522 H 0.60361 0.54821 0.01739 0.0
H1523 H 0.68436 0.52712 0.052 0.0
H1524 H 0.71073 0.53231 0.03665 0.0
H1525 H 0.69219 0.50542 0.03193 0.0
H1526 H 0.689 0.51055 0.98598 0.0
H1527 H 0.70752 0.53748 0.99058 0.0
H1528 H 0.67898 0.53575 0.97466 0.0
H1529 H 0.62966 0.58613 0.02421 0.0
H1530 H 0.66137 0.61863 0.03071 0.0
H1531 H 0.71282 0.573 0.02114 0.0
C1532 C 0.64304 0.50069 0.00854 0.0
C1533 C 0.61848 0.49492 0.00769 0.0
C1534 C 0.60432 0.51224 0.01094 0.0
C1535 C 0.61446 0.53503 0.01476 0.0
C1536 C 0.63876 0.54015 0.01527 0.0
C1537 C 0.65284 0.52345 0.01223 0.0
C1538 C 0.67847 0.53331 0.01371 0.0
C1539 C 0.69224 0.52399 0.03483 0.0
C1540 C 0.68911 0.52902 0.98981 0.0
C1541 C 0.67666 0.55819 0.01825 0.0
C1542 C 0.65364 0.56184 0.0191 0.0
C1543 C 0.64774 0.58347 0.02349 0.0
C1544 C 0.66587 0.60182 0.02717 0.0
C1545 C 0.68958 0.5984 0.02638 0.0
C1546 C 0.69489 0.57625 0.02175 0.0
H1547 H 0.21734 0.67534 0.29583 0.0
H1548 H 0.21896 0.66931 0.21822 0.0
H1549 H 0.19352 0.63244 0.21719 0.0
H1550 H 0.22037 0.61793 0.30651 0.0
H1551 H 0.20071 0.61636 0.33012 0.0
H1552 H 0.21774 0.643 0.32474 0.0
H1553 H 0.17985 0.66164 0.31936 0.0
H1554 H 0.16269 0.63508 0.32492 0.0
H1555 H 0.15645 0.64915 0.2977 0.0
H1556 H 0.17043 0.59522 0.22483 0.0
H1557 H 0.14926 0.56084 0.24029 0.0
H1558 H 0.162 0.59126 0.31296 0.0
C1559 C 0.21212 0.66643 0.27857 0.0
C1560 C 0.22015 0.67522 0.25709 0.0
C1561 C 0.21298 0.66295 0.2349 0.0
C1562 C 0.19856 0.64198 0.23413 0.0
C1563 C 0.19134 0.63362 0.25568 0.0
C1564 C 0.19767 0.64553 0.27746 0.0
C1565 C 0.18801 0.63246 0.29806 0.0
C1566 C 0.2079 0.62712 0.3159 0.0
C1567 C 0.17072 0.64535 0.31075 0.0
C1568 C 0.17556 0.61116 0.28449 0.0
C1569 C 0.17771 0.61221 0.26006 0.0
C1570 C 0.16843 0.59428 0.24389 0.0
C1571 C 0.15652 0.57478 0.25289 0.0
C1572 C 0.15391 0.57337 0.27784 0.0
C1573 C 0.16354 0.59188 0.29378 0.0
H1574 H 0.89543 0.5308 0.02325 0.0
H1575 H 0.87266 0.50042 0.0883 0.0
H1576 H 0.84549 0.52869 0.09243 0.0
H1577 H 0.89229 0.58939 0.04187 0.0
H1578 H 0.88127 0.59643 0.01247 0.0
H1579 H 0.89993 0.57465 0.01539 0.0
H1580 H 0.86833 0.54605 0.9907 0.0
H1581 H 0.84965 0.56774 0.98762 0.0
H1582 H 0.83906 0.54132 0.00026 0.0
H1583 H 0.82036 0.55996 0.08913 0.0
H1584 H 0.79708 0.59003 0.07702 0.0
H1585 H 0.83538 0.5991 0.0134 0.0
C1586 C 0.88487 0.5302 0.03847 0.0
C1587 C 0.88624 0.51348 0.05553 0.0
C1588 C 0.87189 0.51308 0.07501 0.0
C1589 C 0.85649 0.52913 0.07758 0.0
C1590 C 0.85554 0.54538 0.06043 0.0
C1591 C 0.86922 0.54593 0.04116 0.0
C1592 C 0.86398 0.56438 0.02455 0.0
C1593 C 0.88566 0.58227 0.02352 0.0
C1594 C 0.8547 0.55426 0.99929 0.0
C1595 C 0.84506 0.57398 0.03738 0.0
C1596 C 0.84065 0.56299 0.05819 0.0
C1597 C 0.82369 0.56872 0.07289 0.0
C1598 C 0.8106 0.58587 0.06589 0.0
C1599 C 0.81438 0.59692 0.04425 0.0
C1600 C 0.83206 0.591 0.03004 0.0
H1601 H 0.08137 0.967 0.00582 0.0
H1602 H 0.08534 0.98216 0.93074 0.0
H1603 H 0.12256 0.96635 0.93047 0.0
H1604 H 0.14351 0.97962 0.02372 0.0
H1605 H 0.14359 0.95661 0.04366 0.0
H1606 H 0.11754 0.96977 0.03831 0.0
H1607 H 0.09382 0.93062 0.02494 0.0
H1608 H 0.11979 0.91734 0.03019 0.0
H1609 H 0.10352 0.91373 0.00114 0.0
H1610 H 0.15899 0.94909 0.93803 0.0
H1611 H 0.19232 0.93035 0.95261 0.0
H1612 H 0.16466 0.92501 0.02264 0.0
C1613 C 0.09016 0.96712 0.98938 0.0
C1614 C 0.08049 0.9759 0.9683 0.0
C1615 C 0.0924 0.97553 0.94708 0.0
C1616 C 0.11357 0.96662 0.94675 0.0
C1617 C 0.12255 0.958 0.96775 0.0
C1618 C 0.11125 0.95807 0.98866 0.0
C1619 C 0.12447 0.94718 0.00853 0.0
C1620 C 0.13277 0.96432 0.02981 0.0
C1621 C 0.10951 0.92596 0.01667 0.0
C1622 C 0.14495 0.94097 0.99547 0.0
C1623 C 0.14349 0.94752 0.97201 0.0
C1624 C 0.16034 0.94386 0.95635 0.0
C1625 C 0.17923 0.9332 0.96485 0.0
C1626 C 0.18112 0.92617 0.98877 0.0
C1627 C 0.16366 0.9301 0.00425 0.0
loop_
_geom_bond_atom_site_label_1
_geom_bond_atom_site_label_2
_geom_bond_distance
_geom_bond_site_symmetry_2
_ccdc_geom_bond_type
O0 Cd1 2.300 . S
O0 C7 1.275 . S
Cd1 O0 2.300 . S
Cd1 O9 2.381 . S
Cd1 O10 2.378 . S
O2 Cd3 2.385 . S
O2 C7 1.255 . S
Cd3 O2 2.385 . S
Cd3 O4 2.317 . S
O4 Cd3 2.317 . S
O4 C5 1.232 1_455 S
C5 O4 1.232 1_655 S
C5 O6 1.218 . S
O6 C5 1.218 . S
C7 O0 1.275 . S
C7 O2 1.255 . S
C8 O9 1.258 . S
C8 O10 1.256 . S
O9 Cd1 2.381 . S
O9 C8 1.258 . S
O10 Cd1 2.378 . S
O10 C8 1.256 . S
O11 Cd12 2.300 . S
O11 C18 1.275 . S
Cd12 O11 2.300 . S
Cd12 O20 2.381 . S
Cd12 O21 2.378 . S
O13 Cd14 2.385 . S
O13 C18 1.255 . S
Cd14 O13 2.385 . S
Cd14 O15 2.317 . S
O15 Cd14 2.317 . S
O15 C16 1.232 . S
C16 O15 1.232 . S
C16 O17 1.218 . S
O17 C16 1.218 . S
C18 O11 1.275 . S
C18 O13 1.255 . S
C19 O20 1.258 . S
C19 O21 1.256 . S
O20 Cd12 2.381 . S
O20 C19 1.258 . S
O21 Cd12 2.378 . S
O21 C19 1.256 . S
O22 Cd23 2.300 . S
O22 C29 1.275 . S
Cd23 O22 2.300 . S
Cd23 O31 2.381 . S
Cd23 O32 2.378 . S
O24 Cd25 2.385 1_655 S
O24 C29 1.255 . S
Cd25 O24 2.385 1_455 S
Cd25 O26 2.317 1_455 S
O26 Cd25 2.317 1_655 S
O26 C27 1.232 . S
C27 O26 1.232 . S
C27 O28 1.218 1_655 S
O28 C27 1.218 1_455 S
C29 O22 1.275 . S
C29 O24 1.255 . S
C30 O31 1.258 . S
C30 O32 1.256 . S
O31 Cd23 2.381 . S
O31 C30 1.258 . S
O32 Cd23 2.378 . S
O32 C30 1.256 . S
O33 Cd34 2.300 . S
O33 C40 1.275 . S
Cd34 O33 2.300 . S
Cd34 O42 2.381 . S
Cd34 O43 2.378 . S
O35 Cd36 2.385 . S
O35 C40 1.255 . S
Cd36 O35 2.385 . S
Cd36 O37 2.317 . S
O37 Cd36 2.317 . S
O37 C38 1.232 . S
C38 O37 1.232 . S
C38 O39 1.218 . S
O39 C38 1.218 . S
C40 O33 1.275 . S
C40 O35 1.255 . S
C41 O42 1.258 . S
C41 O43 1.256 . S
O42 Cd34 2.381 . S
O42 C41 1.258 . S
O43 Cd34 2.378 . S
O43 C41 1.256 . S
O44 Cd45 2.300 . S
O44 C51 1.275 1_565 S
Cd45 O44 2.300 . S
Cd45 O53 2.381 . S
Cd45 O54 2.378 . S
O46 Cd47 2.385 . S
O46 C51 1.255 . S
Cd47 O46 2.385 . S
Cd47 O48 2.317 1_545 S
O48 Cd47 2.317 1_565 S
O48 C49 1.232 1_565 S
C49 O48 1.232 1_545 S
C49 O50 1.218 . S
O50 C49 1.218 . S
C51 O44 1.275 1_545 S
C51 O46 1.255 . S
C52 O53 1.258 . S
C52 O54 1.256 . S
O53 Cd45 2.381 . S
O53 C52 1.258 . S
O54 Cd45 2.378 . S
O54 C52 1.256 . S
O55 Cd56 2.300 . S
O55 C62 1.275 . S
Cd56 O55 2.300 . S
Cd56 O64 2.381 . S
Cd56 O65 2.378 . S
O57 Cd58 2.385 . S
O57 C62 1.255 . S
Cd58 O57 2.385 . S
Cd58 O59 2.317 . S
O59 Cd58 2.317 . S
O59 C60 1.232 . S
C60 O59 1.232 . S
C60 O61 1.218 . S
O61 C60 1.218 . S
C62 O55 1.275 . S
C62 O57 1.255 . S
C63 O64 1.258 . S
C63 O65 1.256 . S
O64 Cd56 2.381 . S
O64 C63 1.258 . S
O65 Cd56 2.378 . S
O65 C63 1.256 . S
O66 Cd67 2.300 . S
O66 C73 1.275 . S
Cd67 O66 2.300 . S
Cd67 O75 2.381 . S
Cd67 O76 2.378 . S
O68 Cd69 2.385 . S
O68 C73 1.255 1_455 S
Cd69 O68 2.385 . S
Cd69 O70 2.317 1_455 S
O70 Cd69 2.317 1_655 S
O70 C71 1.232 1_655 S
C71 O70 1.232 1_455 S
C71 O72 1.218 . S
O72 C71 1.218 . S
C73 O66 1.275 . S
C73 O68 1.255 1_655 S
C74 O75 1.258 . S
C74 O76 1.256 . S
O75 Cd67 2.381 . S
O75 C74 1.258 . S
O76 Cd67 2.378 . S
O76 C74 1.256 . S
O77 Cd78 2.300 . S
O77 C84 1.275 . S
Cd78 O77 2.300 . S
Cd78 O86 2.381 . S
Cd78 O87 2.378 . S
O79 Cd80 2.385 . S
O79 C84 1.255 . S
Cd80 O79 2.385 . S
Cd80 O81 2.317 . S
O81 Cd80 2.317 . S
O81 C82 1.232 . S
C82 O81 1.232 . S
C82 O83 1.218 . S
O83 C82 1.218 . S
C84 O77 1.275 . S
C84 O79 1.255 . S
C85 O86 1.258 . S
C85 O87 1.256 . S
O86 Cd78 2.381 . S
O86 C85 1.258 . S
O87 Cd78 2.378 . S
O87 C85 1.256 . S
O88 Cd89 2.300 . S
O88 C95 1.275 . S
Cd89 O88 2.300 . S
Cd89 O97 2.381 . S
Cd89 O98 2.378 . S
O90 Cd91 2.385 . S
O90 C95 1.255 . S
Cd91 O90 2.385 . S
Cd91 O92 2.317 . S
O92 Cd91 2.317 . S
O92 C93 1.232 . S
C93 O92 1.232 . S
C93 O94 1.218 . S
O94 C93 1.218 . S
C95 O88 1.275 . S
C95 O90 1.255 . S
C96 O97 1.258 . S
C96 O98 1.256 . S
O97 Cd89 2.381 . S
O97 C96 1.258 . S
O98 Cd89 2.378 . S
O98 C96 1.256 . S
O99 Cd100 2.300 1_565 S
O99 C106 1.275 . S
Cd100 O99 2.300 1_545 S
Cd100 O108 2.381 . S
Cd100 O109 2.378 . S
O101 Cd102 2.385 . S
O101 C106 1.255 . S
Cd102 O101 2.385 . S
Cd102 O103 2.317 . S
O103 Cd102 2.317 . S
O103 C104 1.232 . S
C104 O103 1.232 . S
C104 O105 1.218 . S
O105 C104 1.218 . S
C106 O99 1.275 . S
C106 O101 1.255 . S
C107 O108 1.258 . S
C107 O109 1.256 . S
O108 Cd100 2.381 . S
O108 C107 1.258 . S
O109 Cd100 2.378 . S
O109 C107 1.256 . S
O110 Cd111 2.300 . S
O110 C117 1.275 . S
Cd111 O110 2.300 . S
Cd111 O119 2.381 . S
Cd111 O120 2.378 . S
O112 Cd113 2.385 . S
O112 C117 1.255 . S
Cd113 O112 2.385 . S
Cd113 O114 2.317 . S
O114 Cd113 2.317 . S
O114 C115 1.232 . S
C115 O114 1.232 . S
C115 O116 1.218 . S
O116 C115 1.218 . S
C117 O110 1.275 . S
C117 O112 1.255 . S
C118 O119 1.258 . S
C118 O120 1.256 . S
O119 Cd111 2.381 . S
O119 C118 1.258 . S
O120 Cd111 2.378 . S
O120 C118 1.256 . S
O121 Cd122 2.300 . S
O121 C128 1.275 . S
Cd122 O121 2.300 . S
Cd122 O130 2.381 . S
Cd122 O131 2.378 . S
O123 Cd124 2.385 . S
O123 C128 1.255 . S
Cd124 O123 2.385 . S
Cd124 O125 2.317 . S
O125 Cd124 2.317 . S
O125 C126 1.232 . S
C126 O125 1.232 . S
C126 O127 1.218 . S
O127 C126 1.218 . S
C128 O121 1.275 . S
C128 O123 1.255 . S
C129 O130 1.258 . S
C129 O131 1.256 . S
O130 Cd122 2.381 . S
O130 C129 1.258 . S
O131 Cd122 2.378 . S
O131 C129 1.256 . S
O132 Cd133 2.300 . S
O132 C139 1.275 . S
Cd133 O132 2.300 . S
Cd133 O141 2.381 . S
Cd133 O142 2.378 . S
O134 Cd135 2.385 . S
O134 C139 1.255 . S
Cd135 O134 2.385 . S
Cd135 O136 2.317 . S
O136 Cd135 2.317 . S
O136 C137 1.232 . S
C137 O136 1.232 . S
C137 O138 1.218 . S
O138 C137 1.218 . S
C139 O132 1.275 . S
C139 O134 1.255 . S
C140 O141 1.258 . S
C140 O142 1.256 . S
O141 Cd133 2.381 . S
O141 C140 1.258 . S
O142 Cd133 2.378 . S
O142 C140 1.256 . S
O143 Cd144 2.300 1_556 S
O143 C150 1.275 . S
Cd144 O143 2.300 1_554 S
Cd144 O152 2.381 . S
Cd144 O153 2.378 . S
O145 Cd146 2.385 . S
O145 C150 1.255 . S
Cd146 O145 2.385 . S
Cd146 O147 2.317 . S
O147 Cd146 2.317 . S
O147 C148 1.232 . S
C148 O147 1.232 . S
C148 O149 1.218 . S
O149 C148 1.218 . S
C150 O143 1.275 . S
C150 O145 1.255 . S
C151 O152 1.258 . S
C151 O153 1.256 . S
O152 Cd144 2.381 . S
O152 C151 1.258 . S
O153 Cd144 2.378 . S
O153 C151 1.256 . S
O154 Cd155 2.300 . S
O154 C161 1.275 . S
Cd155 O154 2.300 . S
Cd155 O163 2.381 . S
Cd155 O164 2.378 . S
O156 Cd157 2.385 . S
O156 C161 1.255 . S
Cd157 O156 2.385 . S
Cd157 O158 2.317 . S
O158 Cd157 2.317 . S
O158 C159 1.232 . S
C159 O158 1.232 . S
C159 O160 1.218 . S
O160 C159 1.218 . S
C161 O154 1.275 . S
C161 O156 1.255 . S
C162 O163 1.258 . S
C162 O164 1.256 . S
O163 Cd155 2.381 . S
O163 C162 1.258 . S
O164 Cd155 2.378 . S
O164 C162 1.256 . S
O165 Cd166 2.300 1_556 S
O165 C172 1.275 . S
Cd166 O165 2.300 1_554 S
Cd166 O174 2.381 1_554 S
Cd166 O175 2.378 . S
O167 Cd168 2.385 1_556 S
O167 C172 1.255 . S
Cd168 O167 2.385 1_554 S
Cd168 O169 2.317 . S
O169 Cd168 2.317 . S
O169 C170 1.232 . S
C170 O169 1.232 . S
C170 O171 1.218 . S
O171 C170 1.218 . S
C172 O165 1.275 . S
C172 O167 1.255 . S
C173 O174 1.258 1_564 S
C173 O175 1.256 1_565 S
O174 Cd166 2.381 1_556 S
O174 C173 1.258 1_546 S
O175 Cd166 2.378 . S
O175 C173 1.256 1_545 S
C176 O177 1.160 1_554 S
C176 O183 1.185 . S
O177 C176 1.160 1_556 S
O178 Zn179 1.899 1_556 S
O178 C186 1.284 . S
Zn179 O178 1.899 1_554 S
Zn179 O180 2.032 . S
Zn179 O183 2.086 . S
Zn179 O188 1.977 . S
O180 Zn179 2.032 . S
O180 C184 1.278 . S
C181 O182 1.203 . S
C181 O188 1.267 . S
O182 C181 1.203 . S
O183 C176 1.185 . S
O183 Zn179 2.086 . S
C184 O180 1.278 . S
C184 O185 1.211 . S
O185 C184 1.211 . S
C186 O178 1.284 . S
C186 O187 1.273 . S
O187 C186 1.273 . S
O188 Zn179 1.977 . S
O188 C181 1.267 . S
C189 O190 1.160 . S
C189 O196 1.185 . S
O190 C189 1.160 . S
O191 Zn192 1.899 . S
O191 C199 1.284 . S
Zn192 O191 1.899 . S
Zn192 O193 2.032 . S
Zn192 O196 2.086 . S
Zn192 O201 1.977 . S
O193 Zn192 2.032 . S
O193 C197 1.278 . S
C194 O195 1.203 . S
C194 O201 1.267 . S
O195 C194 1.203 . S
O196 C189 1.185 . S
O196 Zn192 2.086 . S
C197 O193 1.278 . S
C197 O198 1.211 . S
O198 C197 1.211 . S
C199 O191 1.284 . S
C199 O200 1.273 . S
O200 C199 1.273 . S
O201 Zn192 1.977 . S
O201 C194 1.267 . S
C202 O203 1.160 1_554 S
C202 O209 1.185 . S
O203 C202 1.160 1_556 S
O204 Zn205 1.899 1_556 S
O204 C212 1.284 . S
Zn205 O204 1.899 1_554 S
Zn205 O206 2.032 . S
Zn205 O209 2.086 . S
Zn205 O214 1.977 . S
O206 Zn205 2.032 . S
O206 C210 1.278 . S
C207 O208 1.203 . S
C207 O214 1.267 . S
O208 C207 1.203 . S
O209 C202 1.185 . S
O209 Zn205 2.086 . S
C210 O206 1.278 . S
C210 O211 1.211 . S
O211 C210 1.211 . S
C212 O204 1.284 . S
C212 O213 1.273 . S
O213 C212 1.273 . S
O214 Zn205 1.977 . S
O214 C207 1.267 . S
C215 O216 1.160 . S
C215 O222 1.185 . S
O216 C215 1.160 . S
O217 Zn218 1.899 . S
O217 C225 1.284 . S
Zn218 O217 1.899 . S
Zn218 O219 2.032 . S
Zn218 O222 2.086 . S
Zn218 O227 1.977 . S
O219 Zn218 2.032 . S
O219 C223 1.278 1_545 S
C220 O221 1.203 . S
C220 O227 1.267 . S
O221 C220 1.203 . S
O222 C215 1.185 . S
O222 Zn218 2.086 . S
C223 O219 1.278 1_565 S
C223 O224 1.211 . S
O224 C223 1.211 . S
C225 O217 1.284 . S
C225 O226 1.255 1_545 S
O226 C225 1.255 1_565 S
O227 Zn218 1.977 . S
O227 C220 1.267 . S
C228 O229 1.160 . S
C228 O235 1.185 . S
O229 C228 1.160 . S
O230 Zn231 1.899 . S
O230 C238 1.284 . S
Zn231 O230 1.899 . S
Zn231 O232 2.032 . S
Zn231 O235 2.086 . S
Zn231 O240 1.977 . S
O232 Zn231 2.032 . S
O232 C236 1.278 . S
C233 O234 1.203 . S
C233 O240 1.267 . S
O234 C233 1.203 . S
O235 C228 1.185 . S
O235 Zn231 2.086 . S
C236 O232 1.278 . S
C236 O237 1.211 . S
O237 C236 1.211 . S
C238 O230 1.284 . S
C238 O239 1.273 . S
O239 C238 1.273 . S
O240 Zn231 1.977 . S
O240 C233 1.267 . S
C241 O242 1.160 . S
C241 O248 1.185 . S
O242 C241 1.160 . S
O243 Zn244 1.899 . S
O243 C251 1.284 . S
Zn244 O243 1.899 . S
Zn244 O245 2.032 . S
Zn244 O248 2.086 . S
Zn244 O253 1.977 . S
O245 Zn244 2.032 . S
O245 C249 1.278 . S
C246 O247 1.203 . S
C246 O253 1.267 . S
O247 C246 1.203 . S
O248 C241 1.185 . S
O248 Zn244 2.086 . S
C249 O245 1.278 . S
C249 O250 1.211 . S
O250 C249 1.211 . S
C251 O243 1.284 . S
C251 O252 1.273 . S
O252 C251 1.273 . S
O253 Zn244 1.977 . S
O253 C246 1.267 . S
C254 O255 1.160 . S
C254 O261 1.185 . S
O255 C254 1.160 . S
O256 Zn257 1.899 . S
O256 C264 1.284 . S
Zn257 O256 1.899 . S
Zn257 O258 2.032 . S
Zn257 O261 2.086 . S
Zn257 O266 1.977 . S
O258 Zn257 2.032 . S
O258 C262 1.278 . S
C259 O260 1.203 . S
C259 O266 1.267 . S
O260 C259 1.203 . S
O261 C254 1.185 . S
O261 Zn257 2.086 . S
C262 O258 1.278 . S
C262 O263 1.211 . S
O263 C262 1.211 . S
C264 O256 1.284 . S
C264 O265 1.273 . S
O265 C264 1.273 . S
O266 Zn257 1.977 . S
O266 C259 1.267 . S
C267 O268 1.160 . S
C267 O274 1.185 . S
O268 C267 1.160 . S
O269 Zn270 1.899 . S
O269 C277 1.284 1_565 S
Zn270 O269 1.899 . S
Zn270 O271 2.032 1_565 S
Zn270 O274 2.086 . S
Zn270 O279 1.977 . S
O271 Zn270 2.032 1_545 S
O271 C275 1.278 . S
C272 O273 1.203 1_565 S
C272 O279 1.267 . S
O273 C272 1.203 1_545 S
O274 C267 1.185 . S
O274 Zn270 2.086 . S
C275 O271 1.278 . S
C275 O276 1.211 . S
O276 C275 1.211 . S
C277 O269 1.284 1_545 S
C277 O278 1.273 . S
O278 C277 1.273 . S
O279 Zn270 1.977 . S
O279 C272 1.267 . S
C280 O281 1.160 1_455 S
C280 O287 1.185 . S
O281 C280 1.160 1_655 S
O282 Zn283 1.899 1_655 S
O282 C290 1.284 . S
Zn283 O282 1.899 1_455 S
Zn283 O284 2.032 . S
Zn283 O287 2.086 . S
Zn283 O292 1.977 . S
O284 Zn283 2.032 . S
O284 C288 1.278 . S
C285 O286 1.203 . S
C285 O292 1.267 . S
O286 C285 1.203 . S
O287 C280 1.185 . S
O287 Zn283 2.086 . S
C288 O284 1.278 . S
C288 O289 1.211 . S
O289 C288 1.211 . S
C290 O282 1.284 . S
C290 O291 1.273 . S
O291 C290 1.273 . S
O292 Zn283 1.977 . S
O292 C285 1.267 . S
C293 O294 1.160 . S
C293 O300 1.185 . S
O294 C293 1.160 . S
O295 Zn296 1.899 . S
O295 C303 1.284 . S
Zn296 O295 1.899 . S
Zn296 O297 2.032 . S
Zn296 O300 2.086 . S
Zn296 O305 1.977 . S
O297 Zn296 2.032 . S
O297 C301 1.278 . S
C298 O299 1.203 . S
C298 O305 1.267 . S
O299 C298 1.203 . S
O300 C293 1.185 . S
O300 Zn296 2.086 . S
C301 O297 1.278 . S
C301 O302 1.211 . S
O302 C301 1.211 . S
C303 O295 1.284 . S
C303 O304 1.273 . S
O304 C303 1.273 . S
O305 Zn296 1.977 . S
O305 C298 1.267 . S
C306 O307 1.160 . S
C306 O313 1.185 . S
O307 C306 1.160 . S
O308 Zn309 1.899 . S
O308 C316 1.284 1_455 S
Zn309 O308 1.899 . S
Zn309 O310 2.032 . S
Zn309 O313 2.086 . S
Zn309 O318 1.977 . S
O310 Zn309 2.032 . S
O310 C314 1.278 . S
C311 O312 1.203 . S
C311 O318 1.267 . S
O312 C311 1.203 . S
O313 C306 1.185 . S
O313 Zn309 2.086 . S
C314 O310 1.278 . S
C314 O315 1.211 . S
O315 C314 1.211 . S
C316 O308 1.284 1_655 S
C316 O317 1.273 . S
O317 C316 1.273 . S
O318 Zn309 1.977 . S
O318 C311 1.267 . S
C319 O320 1.160 . S
C319 O326 1.185 . S
O320 C319 1.160 . S
O321 Zn322 1.899 . S
O321 C329 1.284 . S
Zn322 O321 1.899 . S
Zn322 O323 2.032 . S
Zn322 O326 2.086 . S
Zn322 O331 1.977 . S
O323 Zn322 2.032 . S
O323 C327 1.278 . S
C324 O325 1.203 . S
C324 O331 1.267 . S
O325 C324 1.203 . S
O326 C319 1.185 . S
O326 Zn322 2.086 . S
C327 O323 1.278 . S
C327 O328 1.211 . S
O328 C327 1.211 . S
C329 O321 1.284 . S
C329 O330 1.273 . S
O330 C329 1.273 . S
O331 Zn322 1.977 . S
O331 C324 1.267 . S
H332 C344 0.930 . S
H333 C346 0.930 . S
H334 C347 0.930 . S
H335 C351 0.959 . S
H336 C351 0.959 . S
H337 C351 0.961 . S
H338 C352 0.960 . S
H339 C352 0.961 . S
H340 C352 0.959 . S
H341 C355 0.929 . S
H342 C356 0.931 . S
H343 C358 0.930 . S
C344 H332 0.930 . S
C344 C345 1.399 . S
C344 C349 1.399 . S
C345 C344 1.399 . S
C345 C346 1.376 . S
C346 H333 0.930 . S
C346 C345 1.376 . S
C346 C347 1.388 . S
C347 H334 0.930 . S
C347 C346 1.388 . S
C347 C348 1.390 . S
C348 C347 1.390 . S
C348 C349 1.394 . S
C348 C354 1.465 . S
C349 C344 1.399 . S
C349 C348 1.394 . S
C349 C350 1.516 . S
C350 C349 1.516 . S
C350 C351 1.502 . S
C350 C352 1.561 . S
C350 C353 1.526 . S
C351 H335 0.959 . S
C351 H336 0.959 . S
C351 H337 0.961 . S
C351 C350 1.502 . S
C352 H338 0.960 . S
C352 H339 0.961 . S
C352 H340 0.959 . S
C352 C350 1.561 . S
C353 C350 1.526 . S
C353 C354 1.396 . S
C353 C358 1.390 . S
C354 C348 1.465 . S
C354 C353 1.396 . S
C354 C355 1.399 . S
C355 H341 0.929 . S
C355 C354 1.399 . S
C355 C356 1.385 . S
C356 H342 0.931 . S
C356 C355 1.385 . S
C356 C357 1.389 . S
C357 C356 1.389 . S
C357 C358 1.387 . S
C358 H343 0.930 . S
C358 C353 1.390 . S
C358 C357 1.387 . S
H359 C371 0.930 . S
H360 C373 0.930 1_655 S
H361 C374 0.930 . S
H362 C378 0.959 . S
H363 C378 0.959 . S
H364 C378 0.961 . S
H365 C379 0.960 . S
H366 C379 0.961 . S
H367 C379 0.959 . S
H368 C382 0.929 . S
H369 C383 0.931 . S
H370 C385 0.930 . S
C371 H359 0.930 . S
C371 C372 1.399 . S
C371 C376 1.399 . S
C372 C371 1.399 . S
C372 C373 1.376 . S
C373 H360 0.930 1_455 S
C373 C372 1.376 . S
C373 C374 1.388 . S
C374 H361 0.930 . S
C374 C373 1.388 . S
C374 C375 1.390 . S
C375 C374 1.390 . S
C375 C376 1.394 . S
C375 C381 1.465 . S
C376 C371 1.399 . S
C376 C375 1.394 . S
C376 C377 1.516 . S
C377 C376 1.516 . S
C377 C378 1.502 . S
C377 C379 1.561 . S
C377 C380 1.526 . S
C378 H362 0.959 . S
C378 H363 0.959 . S
C378 H364 0.961 . S
C378 C377 1.502 . S
C379 H365 0.960 . S
C379 H366 0.961 . S
C379 H367 0.959 . S
C379 C377 1.561 . S
C380 C377 1.526 . S
C380 C381 1.396 . S
C380 C385 1.390 . S
C381 C375 1.465 . S
C381 C380 1.396 . S
C381 C382 1.399 . S
C382 H368 0.929 . S
C382 C381 1.399 . S
C382 C383 1.385 . S
C383 H369 0.931 . S
C383 C382 1.385 . S
C383 C384 1.389 . S
C384 C383 1.389 . S
C384 C385 1.387 . S
C385 H370 0.930 . S
C385 C380 1.390 . S
C385 C384 1.387 . S
H386 C398 0.930 . S
H387 C400 0.930 . S
H388 C401 0.930 . S
H389 C405 0.959 . S
H390 C405 0.959 . S
H391 C405 0.961 . S
H392 C406 0.960 . S
H393 C406 0.961 . S
H394 C406 0.959 . S
H395 C409 0.929 . S
H396 C410 0.931 . S
H397 C412 0.930 . S
C398 H386 0.930 . S
C398 C399 1.399 . S
C398 C403 1.399 . S
C399 C398 1.399 . S
C399 C400 1.376 . S
C400 H387 0.930 . S
C400 C399 1.376 . S
C400 C401 1.388 . S
C401 H388 0.930 . S
C401 C400 1.388 . S
C401 C402 1.390 . S
C402 C401 1.390 . S
C402 C403 1.394 . S
C402 C408 1.465 . S
C403 C398 1.399 . S
C403 C402 1.394 . S
C403 C404 1.516 . S
C404 C403 1.516 . S
C404 C405 1.502 . S
C404 C406 1.561 . S
C404 C407 1.526 . S
C405 H389 0.959 . S
C405 H390 0.959 . S
C405 H391 0.961 . S
C405 C404 1.502 . S
C406 H392 0.960 . S
C406 H393 0.961 . S
C406 H394 0.959 . S
C406 C404 1.561 . S
C407 C404 1.526 . S
C407 C408 1.396 . S
C407 C412 1.390 . S
C408 C402 1.465 . S
C408 C407 1.396 . S
C408 C409 1.399 . S
C409 H395 0.929 . S
C409 C408 1.399 . S
C409 C410 1.385 . S
C410 H396 0.931 . S
C410 C409 1.385 . S
C410 C411 1.389 . S
C411 C410 1.389 . S
C411 C412 1.387 . S
C412 H397 0.930 . S
C412 C407 1.390 . S
C412 C411 1.387 . S
H413 C425 0.930 . S
H414 C427 0.930 . S
H415 C428 0.930 . S
H416 C432 0.959 . S
H417 C432 0.959 . S
H418 C432 0.961 . S
H419 C433 0.960 1_455 S
H420 C433 0.961 . S
H421 C433 0.959 . S
H422 C436 0.929 . S
H423 C437 0.931 . S
H424 C439 0.930 . S
C425 H413 0.930 . S
C425 C426 1.375 1_545 S
C425 C430 1.399 1_455 S
C426 C425 1.375 1_565 S
C426 C427 1.397 1_455 S
C427 H414 0.930 . S
C427 C426 1.397 1_655 S
C427 C428 1.388 . S
C428 H415 0.930 . S
C428 C427 1.388 . S
C428 C429 1.390 . S
C429 C428 1.390 . S
C429 C430 1.394 1_565 S
C429 C435 1.465 1_565 S
C430 C425 1.399 1_655 S
C430 C429 1.394 1_545 S
C430 C431 1.516 . S
C431 C430 1.516 . S
C431 C432 1.502 . S
C431 C433 1.561 . S
C431 C434 1.526 . S
C432 H416 0.959 . S
C432 H417 0.959 . S
C432 H418 0.961 . S
C432 C431 1.502 . S
C433 H419 0.960 1_655 S
C433 H420 0.961 . S
C433 H421 0.959 . S
C433 C431 1.561 . S
C434 C431 1.526 . S
C434 C435 1.396 . S
C434 C439 1.390 . S
C435 C429 1.465 1_545 S
C435 C434 1.396 . S
C435 C436 1.399 1_545 S
C436 H422 0.929 . S
C436 C435 1.399 1_565 S
C436 C437 1.385 . S
C437 H423 0.931 . S
C437 C436 1.385 . S
C437 C438 1.389 1_565 S
C438 C437 1.389 1_545 S
C438 C439 1.387 . S
C439 H424 0.930 . S
C439 C434 1.390 . S
C439 C438 1.387 . S
H440 C452 0.930 . S
H441 C454 0.930 . S
H442 C455 0.930 . S
H443 C459 0.959 . S
H444 C459 0.959 . S
H445 C459 0.961 . S
H446 C460 0.960 . S
H447 C460 0.961 . S
H448 C460 0.959 . S
H449 C463 0.929 . S
H450 C464 0.931 . S
H451 C466 0.930 . S
C452 H440 0.930 . S
C452 C453 1.399 . S
C452 C457 1.399 . S
C453 C452 1.399 . S
C453 C454 1.376 . S
C454 H441 0.930 . S
C454 C453 1.376 . S
C454 C455 1.388 . S
C455 H442 0.930 . S
C455 C454 1.388 . S
C455 C456 1.390 . S
C456 C455 1.390 . S
C456 C457 1.394 . S
C456 C462 1.465 . S
C457 C452 1.399 . S
C457 C456 1.394 . S
C457 C458 1.516 . S
C458 C457 1.516 . S
C458 C459 1.502 . S
C458 C460 1.561 . S
C458 C461 1.526 . S
C459 H443 0.959 . S
C459 H444 0.959 . S
C459 H445 0.961 . S
C459 C458 1.502 . S
C460 H446 0.960 . S
C460 H447 0.961 . S
C460 H448 0.959 . S
C460 C458 1.561 . S
C461 C458 1.526 . S
C461 C462 1.396 . S
C461 C466 1.390 . S
C462 C456 1.465 . S
C462 C461 1.396 . S
C462 C463 1.399 . S
C463 H449 0.929 . S
C463 C462 1.399 . S
C463 C464 1.385 . S
C464 H450 0.931 . S
C464 C463 1.385 . S
C464 C465 1.389 . S
C465 C464 1.389 . S
C465 C466 1.387 . S
C466 H451 0.930 . S
C466 C461 1.390 . S
C466 C465 1.387 . S
H467 C479 0.930 . S
H468 C481 0.930 . S
H469 C482 0.930 . S
H470 C486 0.959 . S
H471 C486 0.959 . S
H472 C486 0.961 . S
H473 C487 0.960 . S
H474 C487 0.961 . S
H475 C487 0.959 . S
H476 C490 0.929 . S
H477 C491 0.931 . S
H478 C493 0.930 . S
C479 H467 0.930 . S
C479 C480 1.399 . S
C479 C484 1.399 . S
C480 C479 1.399 . S
C480 C481 1.376 . S
C481 H468 0.930 . S
C481 C480 1.376 . S
C481 C482 1.388 . S
C482 H469 0.930 . S
C482 C481 1.388 . S
C482 C483 1.390 . S
C483 C482 1.390 . S
C483 C484 1.394 . S
C483 C489 1.465 . S
C484 C479 1.399 . S
C484 C483 1.394 . S
C484 C485 1.516 . S
C485 C484 1.516 . S
C485 C486 1.502 . S
C485 C487 1.561 . S
C485 C488 1.526 . S
C486 H470 0.959 . S
C486 H471 0.959 . S
C486 H472 0.961 . S
C486 C485 1.502 . S
C487 H473 0.960 . S
C487 H474 0.961 . S
C487 H475 0.959 . S
C487 C485 1.561 . S
C488 C485 1.526 . S
C488 C489 1.396 . S
C488 C493 1.390 . S
C489 C483 1.465 . S
C489 C488 1.396 . S
C489 C490 1.399 . S
C490 H476 0.929 . S
C490 C489 1.399 . S
C490 C491 1.385 . S
C491 H477 0.931 . S
C491 C490 1.385 . S
C491 C492 1.389 . S
C492 C491 1.389 . S
C492 C493 1.387 . S
C493 H478 0.930 . S
C493 C488 1.390 . S
C493 C492 1.387 . S
H494 C506 0.930 . S
H495 C508 0.930 . S
H496 C509 0.930 . S
H497 C513 0.959 . S
H498 C513 0.959 . S
H499 C513 0.961 . S
H500 C514 0.960 . S
H501 C514 0.961 . S
H502 C514 0.959 . S
H503 C517 0.929 . S
H504 C518 0.931 . S
H505 C520 0.930 . S
C506 H494 0.930 . S
C506 C507 1.399 . S
C506 C511 1.399 . S
C507 C506 1.399 . S
C507 C508 1.376 . S
C508 H495 0.930 . S
C508 C507 1.376 . S
C508 C509 1.388 . S
C509 H496 0.930 . S
C509 C508 1.388 . S
C509 C510 1.390 . S
C510 C509 1.390 . S
C510 C511 1.394 . S
C510 C516 1.465 . S
C511 C506 1.399 . S
C511 C510 1.394 . S
C511 C512 1.516 . S
C512 C511 1.516 . S
C512 C513 1.502 . S
C512 C514 1.561 . S
C512 C515 1.526 . S
C513 H497 0.959 . S
C513 H498 0.959 . S
C513 H499 0.961 . S
C513 C512 1.502 . S
C514 H500 0.960 . S
C514 H501 0.961 . S
C514 H502 0.959 . S
C514 C512 1.561 . S
C515 C512 1.526 . S
C515 C516 1.396 . S
C515 C520 1.390 . S
C516 C510 1.465 . S
C516 C515 1.396 . S
C516 C517 1.399 . S
C517 H503 0.929 . S
C517 C516 1.399 . S
C517 C518 1.385 . S
C518 H504 0.931 . S
C518 C517 1.385 . S
C518 C519 1.389 . S
C519 C518 1.389 . S
C519 C520 1.387 . S
C520 H505 0.930 . S
C520 C515 1.390 . S
C520 C519 1.387 . S
H521 C533 0.930 . S
H522 C535 0.930 . S
H523 C536 0.930 . S
H524 C540 0.959 . S
H525 C540 0.959 . S
H526 C540 0.961 . S
H527 C541 0.960 . S
H528 C541 0.961 . S
H529 C541 0.959 . S
H530 C544 0.929 . S
H531 C545 0.931 . S
H532 C547 0.930 . S
C533 H521 0.930 . S
C533 C534 1.399 . S
C533 C538 1.399 . S
C534 C533 1.399 . S
C534 C535 1.376 1_565 S
C535 H522 0.930 . S
C535 C534 1.376 1_545 S
C535 C536 1.388 . S
C536 H523 0.930 . S
C536 C535 1.388 . S
C536 C537 1.390 1_545 S
C537 C536 1.390 1_565 S
C537 C538 1.394 . S
C537 C543 1.465 . S
C538 C533 1.399 . S
C538 C537 1.394 . S
C538 C539 1.516 . S
C539 C538 1.516 . S
C539 C540 1.502 . S
C539 C541 1.561 . S
C539 C542 1.526 . S
C540 H524 0.959 . S
C540 H525 0.959 . S
C540 H526 0.961 . S
C540 C539 1.502 . S
C541 H527 0.960 . S
C541 H528 0.961 . S
C541 H529 0.959 . S
C541 C539 1.561 . S
C542 C539 1.526 . S
C542 C543 1.396 . S
C542 C547 1.390 . S
C543 C537 1.465 . S
C543 C542 1.396 . S
C543 C544 1.399 1_565 S
C544 H530 0.929 . S
C544 C543 1.399 1_545 S
C544 C545 1.385 . S
C545 H531 0.931 . S
C545 C544 1.385 . S
C545 C546 1.389 1_545 S
C546 C545 1.389 1_565 S
C546 C547 1.387 . S
C547 H532 0.930 . S
C547 C542 1.390 . S
C547 C546 1.387 . S
H548 C560 0.930 . S
H549 C562 0.930 . S
H550 C563 0.930 . S
H551 C567 0.959 . S
H552 C567 0.959 . S
H553 C567 0.961 . S
H554 C568 0.960 . S
H555 C568 0.961 . S
H556 C568 0.959 . S
H557 C571 0.929 . S
H558 C572 0.931 . S
H559 C574 0.930 . S
C560 H548 0.930 . S
C560 C561 1.399 . S
C560 C565 1.399 . S
C561 C560 1.399 . S
C561 C562 1.376 . S
C562 H549 0.930 . S
C562 C561 1.376 . S
C562 C563 1.388 . S
C563 H550 0.930 . S
C563 C562 1.388 . S
C563 C564 1.390 . S
C564 C563 1.390 . S
C564 C565 1.394 . S
C564 C570 1.465 . S
C565 C560 1.399 . S
C565 C564 1.394 . S
C565 C566 1.516 . S
C566 C565 1.516 . S
C566 C567 1.502 . S
C566 C568 1.561 . S
C566 C569 1.526 . S
C567 H551 0.959 . S
C567 H552 0.959 . S
C567 H553 0.961 . S
C567 C566 1.502 . S
C568 H554 0.960 . S
C568 H555 0.961 . S
C568 H556 0.959 . S
C568 C566 1.561 . S
C569 C566 1.526 . S
C569 C570 1.396 . S
C569 C574 1.390 . S
C570 C564 1.465 . S
C570 C569 1.396 . S
C570 C571 1.399 . S
C571 H557 0.929 . S
C571 C570 1.399 . S
C571 C572 1.385 . S
C572 H558 0.931 . S
C572 C571 1.385 . S
C572 C573 1.389 . S
C573 C572 1.389 . S
C573 C574 1.387 . S
C574 H559 0.930 . S
C574 C569 1.390 . S
C574 C573 1.387 . S
H575 C587 0.930 . S
H576 C589 0.930 . S
H577 C590 0.930 . S
H578 C594 0.959 . S
H579 C594 0.959 . S
H580 C594 0.961 . S
H581 C595 0.960 . S
H582 C595 0.961 . S
H583 C595 0.959 . S
H584 C598 0.929 . S
H585 C599 0.931 . S
H586 C601 0.930 . S
C587 H575 0.930 . S
C587 C588 1.399 . S
C587 C592 1.399 . S
C588 C587 1.399 . S
C588 C589 1.376 . S
C589 H576 0.930 . S
C589 C588 1.376 . S
C589 C590 1.388 . S
C590 H577 0.930 . S
C590 C589 1.388 . S
C590 C591 1.390 . S
C591 C590 1.390 . S
C591 C592 1.394 . S
C591 C597 1.465 . S
C592 C587 1.399 . S
C592 C591 1.394 . S
C592 C593 1.516 . S
C593 C592 1.516 . S
C593 C594 1.502 . S
C593 C595 1.561 . S
C593 C596 1.526 . S
C594 H578 0.959 . S
C594 H579 0.959 . S
C594 H580 0.961 . S
C594 C593 1.502 . S
C595 H581 0.960 . S
C595 H582 0.961 . S
C595 H583 0.959 . S
C595 C593 1.561 . S
C596 C593 1.526 . S
C596 C597 1.396 . S
C596 C601 1.390 . S
C597 C591 1.465 . S
C597 C596 1.396 . S
C597 C598 1.399 . S
C598 H584 0.929 . S
C598 C597 1.399 . S
C598 C599 1.385 . S
C599 H585 0.931 . S
C599 C598 1.385 . S
C599 C600 1.389 . S
C600 C599 1.389 . S
C600 C601 1.387 . S
C601 H586 0.930 . S
C601 C596 1.390 . S
C601 C600 1.387 . S
H602 C614 0.930 . S
H603 C616 0.930 . S
H604 C617 0.930 . S
H605 C621 0.959 . S
H606 C621 0.959 . S
H607 C621 0.961 . S
H608 C622 0.960 . S
H609 C622 0.961 . S
H610 C622 0.959 . S
H611 C625 0.929 . S
H612 C626 0.931 . S
H613 C628 0.930 . S
C614 H602 0.930 . S
C614 C615 1.399 . S
C614 C619 1.399 . S
C615 C614 1.399 . S
C615 C616 1.376 . S
C616 H603 0.930 . S
C616 C615 1.376 . S
C616 C617 1.388 . S
C617 H604 0.930 . S
C617 C616 1.388 . S
C617 C618 1.390 . S
C618 C617 1.390 . S
C618 C619 1.394 . S
C618 C624 1.465 . S
C619 C614 1.399 . S
C619 C618 1.394 . S
C619 C620 1.516 . S
C620 C619 1.516 . S
C620 C621 1.502 . S
C620 C622 1.561 . S
C620 C623 1.526 . S
C621 H605 0.959 . S
C621 H606 0.959 . S
C621 H607 0.961 . S
C621 C620 1.502 . S
C622 H608 0.960 . S
C622 H609 0.961 . S
C622 H610 0.959 . S
C622 C620 1.561 . S
C623 C620 1.526 . S
C623 C624 1.396 . S
C623 C628 1.390 . S
C624 C618 1.465 . S
C624 C623 1.396 . S
C624 C625 1.399 . S
C625 H611 0.929 . S
C625 C624 1.399 . S
C625 C626 1.385 . S
C626 H612 0.931 . S
C626 C625 1.385 . S
C626 C627 1.389 . S
C627 C626 1.389 . S
C627 C628 1.387 . S
C628 H613 0.930 . S
C628 C623 1.390 . S
C628 C627 1.387 . S
H629 C641 0.930 . S
H630 C643 0.930 . S
H631 C644 0.930 . S
H632 C648 0.959 . S
H633 C648 0.959 . S
H634 C648 0.961 . S
H635 C649 0.960 . S
H636 C649 0.961 . S
H637 C649 0.959 . S
H638 C652 0.929 . S
H639 C653 0.931 . S
H640 C655 0.930 . S
C641 H629 0.930 . S
C641 C642 1.399 . S
C641 C646 1.399 . S
C642 C641 1.399 . S
C642 C643 1.376 . S
C643 H630 0.930 . S
C643 C642 1.376 . S
C643 C644 1.388 . S
C644 H631 0.930 . S
C644 C643 1.388 . S
C644 C645 1.390 . S
C645 C644 1.390 . S
C645 C646 1.394 . S
C645 C651 1.465 . S
C646 C641 1.399 . S
C646 C645 1.394 . S
C646 C647 1.516 . S
C647 C646 1.516 . S
C647 C648 1.502 . S
C647 C649 1.561 . S
C647 C650 1.526 . S
C648 H632 0.959 . S
C648 H633 0.959 . S
C648 H634 0.961 . S
C648 C647 1.502 . S
C649 H635 0.960 . S
C649 H636 0.961 . S
C649 H637 0.959 . S
C649 C647 1.561 . S
C650 C647 1.526 . S
C650 C651 1.396 . S
C650 C655 1.390 . S
C651 C645 1.465 . S
C651 C650 1.396 . S
C651 C652 1.399 . S
C652 H638 0.929 . S
C652 C651 1.399 . S
C652 C653 1.385 . S
C653 H639 0.931 . S
C653 C652 1.385 . S
C653 C654 1.389 . S
C654 C653 1.389 . S
C654 C655 1.387 . S
C655 H640 0.930 . S
C655 C650 1.390 . S
C655 C654 1.387 . S
H656 C668 0.930 . S
H657 C670 0.930 . S
H658 C671 0.930 . S
H659 C675 0.959 . S
H660 C675 0.959 . S
H661 C675 0.961 . S
H662 C676 0.960 . S
H663 C676 0.961 . S
H664 C676 0.959 . S
H665 C679 0.929 . S
H666 C680 0.931 . S
H667 C682 0.930 . S
C668 H656 0.930 . S
C668 C669 1.399 . S
C668 C673 1.399 . S
C669 C668 1.399 . S
C669 C670 1.376 . S
C670 H657 0.930 . S
C670 C669 1.376 . S
C670 C671 1.388 . S
C671 H658 0.930 . S
C671 C670 1.388 . S
C671 C672 1.390 . S
C672 C671 1.390 . S
C672 C673 1.394 . S
C672 C678 1.465 . S
C673 C668 1.399 . S
C673 C672 1.394 . S
C673 C674 1.516 . S
C674 C673 1.516 . S
C674 C675 1.502 . S
C674 C676 1.561 . S
C674 C677 1.526 . S
C675 H659 0.959 . S
C675 H660 0.959 . S
C675 H661 0.961 . S
C675 C674 1.502 . S
C676 H662 0.960 . S
C676 H663 0.961 . S
C676 H664 0.959 . S
C676 C674 1.561 . S
C677 C674 1.526 . S
C677 C678 1.396 . S
C677 C682 1.390 . S
C678 C672 1.465 . S
C678 C677 1.396 . S
C678 C679 1.399 . S
C679 H665 0.929 . S
C679 C678 1.399 . S
C679 C680 1.385 . S
C680 H666 0.931 . S
C680 C679 1.385 . S
C680 C681 1.389 . S
C681 C680 1.389 . S
C681 C682 1.387 . S
C682 H667 0.930 . S
C682 C677 1.390 . S
C682 C681 1.387 . S
H683 C695 0.930 . S
H684 C697 0.930 . S
H685 C698 0.930 . S
H686 C702 0.959 1_655 S
H687 C702 0.959 1_655 S
H688 C702 0.958 1_655 S
H689 C703 0.960 . S
H690 C703 0.961 . S
H691 C703 0.959 . S
H692 C706 0.929 . S
H693 C707 0.931 . S
H694 C709 0.930 . S
C695 H683 0.930 . S
C695 C696 1.399 . S
C695 C700 1.399 . S
C696 C695 1.399 . S
C696 C697 1.376 . S
C697 H684 0.930 . S
C697 C696 1.376 . S
C697 C698 1.388 . S
C698 H685 0.930 . S
C698 C697 1.388 . S
C698 C699 1.390 . S
C699 C698 1.390 . S
C699 C700 1.394 . S
C699 C705 1.465 . S
C700 C695 1.399 . S
C700 C699 1.394 . S
C700 C701 1.516 . S
C701 C700 1.516 . S
C701 C702 1.502 . S
C701 C703 1.561 . S
C701 C704 1.526 . S
C702 H686 0.959 1_455 S
C702 H687 0.959 1_455 S
C702 H688 0.958 1_455 S
C702 C701 1.502 . S
C703 H689 0.960 . S
C703 H690 0.961 . S
C703 H691 0.959 . S
C703 C701 1.561 . S
C704 C701 1.526 . S
C704 C705 1.396 . S
C704 C709 1.390 . S
C705 C699 1.465 . S
C705 C704 1.396 . S
C705 C706 1.399 . S
C706 H692 0.929 . S
C706 C705 1.399 . S
C706 C707 1.385 . S
C707 H693 0.931 . S
C707 C706 1.385 . S
C707 C708 1.389 . S
C708 C707 1.389 . S
C708 C709 1.387 . S
C709 H694 0.930 . S
C709 C704 1.390 . S
C709 C708 1.387 . S
H710 C722 0.930 . S
H711 C724 0.930 . S
H712 C725 0.930 . S
H713 C729 0.959 . S
H714 C729 0.959 . S
H715 C729 0.961 . S
H716 C730 0.960 . S
H717 C730 0.961 . S
H718 C730 0.959 . S
H719 C733 0.929 . S
H720 C734 0.931 . S
H721 C736 0.930 . S
C722 H710 0.930 . S
C722 C723 1.399 . S
C722 C727 1.399 . S
C723 C722 1.399 . S
C723 C724 1.376 . S
C724 H711 0.930 . S
C724 C723 1.376 . S
C724 C725 1.388 . S
C725 H712 0.930 . S
C725 C724 1.388 . S
C725 C726 1.390 . S
C726 C725 1.390 . S
C726 C727 1.394 . S
C726 C732 1.465 . S
C727 C722 1.399 . S
C727 C726 1.394 . S
C727 C728 1.516 . S
C728 C727 1.516 . S
C728 C729 1.502 . S
C728 C730 1.561 . S
C728 C731 1.526 . S
C729 H713 0.959 . S
C729 H714 0.959 . S
C729 H715 0.961 . S
C729 C728 1.502 . S
C730 H716 0.960 . S
C730 H717 0.961 . S
C730 H718 0.959 . S
C730 C728 1.561 . S
C731 C728 1.526 . S
C731 C732 1.396 . S
C731 C736 1.390 . S
C732 C726 1.465 . S
C732 C731 1.396 . S
C732 C733 1.399 . S
C733 H719 0.929 . S
C733 C732 1.399 . S
C733 C734 1.385 . S
C734 H720 0.931 . S
C734 C733 1.385 . S
C734 C735 1.389 . S
C735 C734 1.389 . S
C735 C736 1.387 . S
C736 H721 0.930 . S
C736 C731 1.390 . S
C736 C735 1.387 . S
H737 C749 0.930 . S
H738 C751 0.930 . S
H739 C752 0.930 . S
H740 C756 0.959 . S
H741 C756 0.959 . S
H742 C756 0.961 . S
H743 C757 0.960 . S
H744 C757 0.961 . S
H745 C757 0.959 1_655 S
H746 C760 0.929 . S
H747 C761 0.931 . S
H748 C763 0.930 . S
C749 H737 0.930 . S
C749 C750 1.399 1_455 S
C749 C754 1.399 . S
C750 C749 1.399 1_655 S
C750 C751 1.376 . S
C751 H738 0.930 . S
C751 C750 1.376 . S
C751 C752 1.388 . S
C752 H739 0.930 . S
C752 C751 1.388 . S
C752 C753 1.390 . S
C753 C752 1.390 . S
C753 C754 1.394 1_655 S
C753 C759 1.465 . S
C754 C749 1.399 . S
C754 C753 1.394 1_455 S
C754 C755 1.516 . S
C755 C754 1.516 . S
C755 C756 1.502 . S
C755 C757 1.561 . S
C755 C758 1.526 . S
C756 H740 0.959 . S
C756 H741 0.959 . S
C756 H742 0.961 . S
C756 C755 1.502 . S
C757 H743 0.960 . S
C757 H744 0.961 . S
C757 H745 0.959 1_455 S
C757 C755 1.561 . S
C758 C755 1.526 . S
C758 C759 1.396 1_455 S
C758 C763 1.390 . S
C759 C753 1.465 . S
C759 C758 1.396 1_655 S
C759 C760 1.399 . S
C760 H746 0.929 . S
C760 C759 1.399 . S
C760 C761 1.385 . S
C761 H747 0.931 . S
C761 C760 1.385 . S
C761 C762 1.389 1_655 S
C762 C761 1.389 1_455 S
C762 C763 1.387 . S
C763 H748 0.930 . S
C763 C758 1.390 . S
C763 C762 1.387 . S
H764 C776 0.930 . S
H765 C778 0.930 . S
H766 C779 0.930 . S
H767 C783 0.959 . S
H768 C783 0.959 . S
H769 C783 0.961 . S
H770 C784 0.960 . S
H771 C784 0.961 . S
H772 C784 0.959 . S
H773 C787 0.929 . S
H774 C788 0.931 . S
H775 C790 0.930 . S
C776 H764 0.930 . S
C776 C777 1.399 . S
C776 C781 1.399 . S
C777 C776 1.399 . S
C777 C778 1.376 . S
C778 H765 0.930 . S
C778 C777 1.376 . S
C778 C779 1.388 . S
C779 H766 0.930 . S
C779 C778 1.388 . S
C779 C780 1.390 . S
C780 C779 1.390 . S
C780 C781 1.394 . S
C780 C786 1.465 . S
C781 C776 1.399 . S
C781 C780 1.394 . S
C781 C782 1.516 . S
C782 C781 1.516 . S
C782 C783 1.502 . S
C782 C784 1.561 . S
C782 C785 1.526 . S
C783 H767 0.959 . S
C783 H768 0.959 . S
C783 H769 0.961 . S
C783 C782 1.502 . S
C784 H770 0.960 . S
C784 H771 0.961 . S
C784 H772 0.959 . S
C784 C782 1.561 . S
C785 C782 1.526 . S
C785 C786 1.396 . S
C785 C790 1.390 . S
C786 C780 1.465 . S
C786 C785 1.396 . S
C786 C787 1.399 . S
C787 H773 0.929 . S
C787 C786 1.399 . S
C787 C788 1.385 . S
C788 H774 0.931 . S
C788 C787 1.385 . S
C788 C789 1.389 . S
C789 C788 1.389 . S
C789 C790 1.387 . S
C790 H775 0.930 . S
C790 C785 1.390 . S
C790 C789 1.387 . S
H791 C803 0.930 . S
H792 C805 0.930 . S
H793 C806 0.930 . S
H794 C810 0.959 . S
H795 C810 0.959 . S
H796 C810 0.961 . S
H797 C811 0.960 . S
H798 C811 0.961 . S
H799 C811 0.959 . S
H800 C814 0.929 . S
H801 C815 0.931 . S
H802 C817 0.930 . S
C803 H791 0.930 . S
C803 C804 1.399 . S
C803 C808 1.399 . S
C804 C803 1.399 . S
C804 C805 1.376 . S
C805 H792 0.930 . S
C805 C804 1.376 . S
C805 C806 1.388 . S
C806 H793 0.930 . S
C806 C805 1.388 . S
C806 C807 1.390 . S
C807 C806 1.390 . S
C807 C808 1.394 . S
C807 C813 1.465 . S
C808 C803 1.399 . S
C808 C807 1.394 . S
C808 C809 1.516 . S
C809 C808 1.516 . S
C809 C810 1.502 . S
C809 C811 1.561 . S
C809 C812 1.526 . S
C810 H794 0.959 . S
C810 H795 0.959 . S
C810 H796 0.961 . S
C810 C809 1.502 . S
C811 H797 0.960 . S
C811 H798 0.961 . S
C811 H799 0.959 . S
C811 C809 1.561 . S
C812 C809 1.526 . S
C812 C813 1.396 . S
C812 C817 1.390 . S
C813 C807 1.465 . S
C813 C812 1.396 . S
C813 C814 1.399 . S
C814 H800 0.929 . S
C814 C813 1.399 . S
C814 C815 1.385 . S
C815 H801 0.931 . S
C815 C814 1.385 . S
C815 C816 1.389 . S
C816 C815 1.389 . S
C816 C817 1.387 . S
C817 H802 0.930 . S
C817 C812 1.390 . S
C817 C816 1.387 . S
H818 C830 0.930 . S
H819 C832 0.930 . S
H820 C833 0.930 . S
H821 C837 0.959 . S
H822 C837 0.959 . S
H823 C837 0.961 . S
H824 C838 0.960 . S
H825 C838 0.961 . S
H826 C838 0.959 . S
H827 C841 0.929 . S
H828 C842 0.931 . S
H829 C844 0.930 . S
C830 H818 0.930 . S
C830 C831 1.401 1_554 S
C830 C835 1.399 . S
C831 C830 1.401 1_556 S
C831 C832 1.375 . S
C832 H819 0.930 . S
C832 C831 1.375 . S
C832 C833 1.388 . S
C833 H820 0.930 . S
C833 C832 1.388 . S
C833 C834 1.390 . S
C834 C833 1.390 . S
C834 C835 1.394 1_556 S
C834 C840 1.465 . S
C835 C830 1.399 . S
C835 C834 1.394 1_554 S
C835 C836 1.516 . S
C836 C835 1.516 . S
C836 C837 1.502 . S
C836 C838 1.561 . S
C836 C839 1.526 . S
C837 H821 0.959 . S
C837 H822 0.959 . S
C837 H823 0.961 . S
C837 C836 1.502 . S
C838 H824 0.960 . S
C838 H825 0.961 . S
C838 H826 0.959 . S
C838 C836 1.561 . S
C839 C836 1.526 . S
C839 C840 1.396 1_554 S
C839 C844 1.390 . S
C840 C834 1.465 . S
C840 C839 1.396 1_556 S
C840 C841 1.399 . S
C841 H827 0.929 . S
C841 C840 1.399 . S
C841 C842 1.385 . S
C842 H828 0.931 . S
C842 C841 1.385 . S
C842 C843 1.389 1_556 S
C843 C842 1.389 1_554 S
C843 C844 1.387 . S
C844 H829 0.930 . S
C844 C839 1.390 . S
C844 C843 1.387 . S
H845 C857 0.930 . S
H846 C859 0.930 . S
H847 C860 0.930 . S
H848 C864 0.959 . S
H849 C864 0.959 . S
H850 C864 0.961 . S
H851 C865 0.960 . S
H852 C865 0.961 . S
H853 C865 0.959 . S
H854 C868 0.929 . S
H855 C869 0.931 . S
H856 C871 0.930 . S
C857 H845 0.930 . S
C857 C858 1.399 . S
C857 C862 1.399 . S
C858 C857 1.399 . S
C858 C859 1.376 . S
C859 H846 0.930 . S
C859 C858 1.376 . S
C859 C860 1.388 . S
C860 H847 0.930 . S
C860 C859 1.388 . S
C860 C861 1.390 . S
C861 C860 1.390 . S
C861 C862 1.394 . S
C861 C867 1.465 . S
C862 C857 1.399 . S
C862 C861 1.394 . S
C862 C863 1.516 . S
C863 C862 1.516 . S
C863 C864 1.502 . S
C863 C865 1.561 . S
C863 C866 1.526 . S
C864 H848 0.959 . S
C864 H849 0.959 . S
C864 H850 0.961 . S
C864 C863 1.502 . S
C865 H851 0.960 . S
C865 H852 0.961 . S
C865 H853 0.959 . S
C865 C863 1.561 . S
C866 C863 1.526 . S
C866 C867 1.396 . S
C866 C871 1.390 . S
C867 C861 1.465 . S
C867 C866 1.396 . S
C867 C868 1.399 . S
C868 H854 0.929 . S
C868 C867 1.399 . S
C868 C869 1.385 . S
C869 H855 0.931 . S
C869 C868 1.385 . S
C869 C870 1.389 . S
C870 C869 1.389 . S
C870 C871 1.387 . S
C871 H856 0.930 . S
C871 C866 1.390 . S
C871 C870 1.387 . S
H872 C884 0.930 . S
H873 C886 0.930 . S
H874 C887 0.930 . S
H875 C891 0.959 . S
H876 C891 0.959 . S
H877 C891 0.961 . S
H878 C892 0.960 . S
H879 C892 0.961 . S
H880 C892 0.959 . S
H881 C895 0.929 . S
H882 C896 0.931 . S
H883 C898 0.930 . S
C884 H872 0.930 . S
C884 C885 1.399 . S
C884 C889 1.399 . S
C885 C884 1.399 . S
C885 C886 1.376 . S
C886 H873 0.930 . S
C886 C885 1.376 . S
C886 C887 1.388 . S
C887 H874 0.930 . S
C887 C886 1.388 . S
C887 C888 1.390 . S
C888 C887 1.390 . S
C888 C889 1.394 . S
C888 C894 1.465 . S
C889 C884 1.399 . S
C889 C888 1.394 . S
C889 C890 1.516 . S
C890 C889 1.516 . S
C890 C891 1.502 . S
C890 C892 1.561 . S
C890 C893 1.526 . S
C891 H875 0.959 . S
C891 H876 0.959 . S
C891 H877 0.961 . S
C891 C890 1.502 . S
C892 H878 0.960 . S
C892 H879 0.961 . S
C892 H880 0.959 . S
C892 C890 1.561 . S
C893 C890 1.526 . S
C893 C894 1.396 . S
C893 C898 1.390 . S
C894 C888 1.465 . S
C894 C893 1.396 . S
C894 C895 1.399 . S
C895 H881 0.929 . S
C895 C894 1.399 . S
C895 C896 1.385 . S
C896 H882 0.931 . S
C896 C895 1.385 . S
C896 C897 1.389 . S
C897 C896 1.389 . S
C897 C898 1.387 . S
C898 H883 0.930 . S
C898 C893 1.390 . S
C898 C897 1.387 . S
H899 C911 0.930 . S
H900 C913 0.930 . S
H901 C914 0.930 . S
H902 C918 0.959 . S
H903 C918 0.959 . S
H904 C918 0.961 . S
H905 C919 0.960 . S
H906 C919 0.961 . S
H907 C919 0.959 . S
H908 C922 0.929 . S
H909 C923 0.931 . S
H910 C925 0.930 . S
C911 H899 0.930 . S
C911 C912 1.399 . S
C911 C916 1.399 . S
C912 C911 1.399 . S
C912 C913 1.376 . S
C913 H900 0.930 . S
C913 C912 1.376 . S
C913 C914 1.388 . S
C914 H901 0.930 . S
C914 C913 1.388 . S
C914 C915 1.390 . S
C915 C914 1.390 . S
C915 C916 1.394 . S
C915 C921 1.465 . S
C916 C911 1.399 . S
C916 C915 1.394 . S
C916 C917 1.516 . S
C917 C916 1.516 . S
C917 C918 1.502 . S
C917 C919 1.561 . S
C917 C920 1.526 . S
C918 H902 0.959 . S
C918 H903 0.959 . S
C918 H904 0.961 . S
C918 C917 1.502 . S
C919 H905 0.960 . S
C919 H906 0.961 . S
C919 H907 0.959 . S
C919 C917 1.561 . S
C920 C917 1.526 . S
C920 C921 1.396 . S
C920 C925 1.390 . S
C921 C915 1.465 . S
C921 C920 1.396 . S
C921 C922 1.399 . S
C922 H908 0.929 . S
C922 C921 1.399 . S
C922 C923 1.385 . S
C923 H909 0.931 . S
C923 C922 1.385 . S
C923 C924 1.389 . S
C924 C923 1.389 . S
C924 C925 1.387 . S
C925 H910 0.930 . S
C925 C920 1.390 . S
C925 C924 1.387 . S
H926 C938 0.930 . S
H927 C940 0.930 . S
H928 C941 0.930 . S
H929 C945 0.959 . S
H930 C945 0.959 . S
H931 C945 0.961 . S
H932 C946 0.960 . S
H933 C946 0.961 . S
H934 C946 0.959 . S
H935 C949 0.929 . S
H936 C950 0.931 . S
H937 C952 0.930 . S
C938 H926 0.930 . S
C938 C939 1.399 . S
C938 C943 1.399 . S
C939 C938 1.399 . S
C939 C940 1.376 . S
C940 H927 0.930 . S
C940 C939 1.376 . S
C940 C941 1.388 . S
C941 H928 0.930 . S
C941 C940 1.388 . S
C941 C942 1.390 . S
C942 C941 1.390 . S
C942 C943 1.394 . S
C942 C948 1.465 . S
C943 C938 1.399 . S
C943 C942 1.394 . S
C943 C944 1.516 . S
C944 C943 1.516 . S
C944 C945 1.502 . S
C944 C946 1.561 . S
C944 C947 1.526 . S
C945 H929 0.959 . S
C945 H930 0.959 . S
C945 H931 0.961 . S
C945 C944 1.502 . S
C946 H932 0.960 . S
C946 H933 0.961 . S
C946 H934 0.959 . S
C946 C944 1.561 . S
C947 C944 1.526 . S
C947 C948 1.396 . S
C947 C952 1.390 . S
C948 C942 1.465 . S
C948 C947 1.396 . S
C948 C949 1.399 . S
C949 H935 0.929 . S
C949 C948 1.399 . S
C949 C950 1.385 . S
C950 H936 0.931 . S
C950 C949 1.385 . S
C950 C951 1.389 . S
C951 C950 1.389 . S
C951 C952 1.387 . S
C952 H937 0.930 . S
C952 C947 1.390 . S
C952 C951 1.387 . S
H953 C965 0.930 . S
H954 C967 0.930 . S
H955 C968 0.930 . S
H956 C972 0.959 . S
H957 C972 0.959 . S
H958 C972 0.961 . S
H959 C973 0.960 . S
H960 C973 0.961 . S
H961 C973 0.959 . S
H962 C976 0.929 . S
H963 C977 0.931 . S
H964 C979 0.930 . S
C965 H953 0.930 . S
C965 C966 1.399 . S
C965 C970 1.399 . S
C966 C965 1.399 . S
C966 C967 1.376 . S
C967 H954 0.930 . S
C967 C966 1.376 . S
C967 C968 1.388 . S
C968 H955 0.930 . S
C968 C967 1.388 . S
C968 C969 1.390 . S
C969 C968 1.390 . S
C969 C970 1.394 . S
C969 C975 1.465 . S
C970 C965 1.399 . S
C970 C969 1.394 . S
C970 C971 1.516 . S
C971 C970 1.516 . S
C971 C972 1.502 . S
C971 C973 1.561 . S
C971 C974 1.526 . S
C972 H956 0.959 . S
C972 H957 0.959 . S
C972 H958 0.961 . S
C972 C971 1.502 . S
C973 H959 0.960 . S
C973 H960 0.961 . S
C973 H961 0.959 . S
C973 C971 1.561 . S
C974 C971 1.526 . S
C974 C975 1.396 . S
C974 C979 1.390 . S
C975 C969 1.465 . S
C975 C974 1.396 . S
C975 C976 1.399 . S
C976 H962 0.929 . S
C976 C975 1.399 . S
C976 C977 1.385 . S
C977 H963 0.931 . S
C977 C976 1.385 . S
C977 C978 1.389 . S
C978 C977 1.389 . S
C978 C979 1.387 . S
C979 H964 0.930 . S
C979 C974 1.390 . S
C979 C978 1.387 . S
H980 C992 0.930 . S
H981 C994 0.930 . S
H982 C995 0.930 . S
H983 C999 0.959 . S
H984 C999 0.959 . S
H985 C999 0.961 . S
H986 C1000 0.960 . S
H987 C1000 0.961 . S
H988 C1000 0.959 . S
H989 C1003 0.929 . S
H990 C1004 0.931 . S
H991 C1006 0.930 . S
C992 H980 0.930 . S
C992 C993 1.399 . S
C992 C997 1.399 . S
C993 C992 1.399 . S
C993 C994 1.376 . S
C994 H981 0.930 . S
C994 C993 1.376 . S
C994 C995 1.388 . S
C995 H982 0.930 . S
C995 C994 1.388 . S
C995 C996 1.390 . S
C996 C995 1.390 . S
C996 C997 1.394 . S
C996 C1002 1.465 . S
C997 C992 1.399 . S
C997 C996 1.394 . S
C997 C998 1.516 . S
C998 C997 1.516 . S
C998 C999 1.502 . S
C998 C1000 1.561 . S
C998 C1001 1.526 . S
C999 H983 0.959 . S
C999 H984 0.959 . S
C999 H985 0.961 . S
C999 C998 1.502 . S
C1000 H986 0.960 . S
C1000 H987 0.961 . S
C1000 H988 0.959 . S
C1000 C998 1.561 . S
C1001 C998 1.526 . S
C1001 C1002 1.396 . S
C1001 C1006 1.390 . S
C1002 C996 1.465 . S
C1002 C1001 1.396 . S
C1002 C1003 1.399 . S
C1003 H989 0.929 . S
C1003 C1002 1.399 . S
C1003 C1004 1.385 . S
C1004 H990 0.931 . S
C1004 C1003 1.385 . S
C1004 C1005 1.389 . S
C1005 C1004 1.389 . S
C1005 C1006 1.387 . S
C1006 H991 0.930 . S
C1006 C1001 1.390 . S
C1006 C1005 1.387 . S
H1007 C1019 0.930 . S
H1008 C1021 0.930 . S
H1009 C1022 0.930 1_565 S
H1010 C1026 0.959 . S
H1011 C1026 0.959 . S
H1012 C1026 0.961 . S
H1013 C1027 0.960 . S
H1014 C1027 0.961 . S
H1015 C1027 0.959 . S
H1016 C1030 0.929 . S
H1017 C1031 0.931 . S
H1018 C1033 0.930 . S
C1019 H1007 0.930 . S
C1019 C1020 1.399 . S
C1019 C1024 1.399 . S
C1020 C1019 1.399 . S
C1020 C1021 1.376 . S
C1021 H1008 0.930 . S
C1021 C1020 1.376 . S
C1021 C1022 1.388 . S
C1022 H1009 0.930 1_545 S
C1022 C1021 1.388 . S
C1022 C1023 1.390 . S
C1023 C1022 1.390 . S
C1023 C1024 1.394 . S
C1023 C1029 1.465 . S
C1024 C1019 1.399 . S
C1024 C1023 1.394 . S
C1024 C1025 1.516 . S
C1025 C1024 1.516 . S
C1025 C1026 1.502 . S
C1025 C1027 1.561 . S
C1025 C1028 1.526 . S
C1026 H1010 0.959 . S
C1026 H1011 0.959 . S
C1026 H1012 0.961 . S
C1026 C1025 1.502 . S
C1027 H1013 0.960 . S
C1027 H1014 0.961 . S
C1027 H1015 0.959 . S
C1027 C1025 1.561 . S
C1028 C1025 1.526 . S
C1028 C1029 1.396 . S
C1028 C1033 1.390 . S
C1029 C1023 1.465 . S
C1029 C1028 1.396 . S
C1029 C1030 1.399 1_545 S
C1030 H1016 0.929 . S
C1030 C1029 1.399 1_565 S
C1030 C1031 1.385 . S
C1031 H1017 0.931 . S
C1031 C1030 1.385 . S
C1031 C1032 1.389 1_565 S
C1032 C1031 1.389 1_545 S
C1032 C1033 1.387 . S
C1033 H1018 0.930 . S
C1033 C1028 1.390 . S
C1033 C1032 1.387 . S
H1034 C1046 0.930 . S
H1035 C1048 0.930 . S
H1036 C1049 0.930 . S
H1037 C1053 0.959 . S
H1038 C1053 0.959 . S
H1039 C1053 0.961 . S
H1040 C1054 0.960 . S
H1041 C1054 0.961 . S
H1042 C1054 0.959 . S
H1043 C1057 0.929 . S
H1044 C1058 0.931 . S
H1045 C1060 0.930 . S
C1046 H1034 0.930 . S
C1046 C1047 1.399 . S
C1046 C1051 1.399 . S
C1047 C1046 1.399 . S
C1047 C1048 1.376 . S
C1048 H1035 0.930 . S
C1048 C1047 1.376 . S
C1048 C1049 1.388 . S
C1049 H1036 0.930 . S
C1049 C1048 1.388 . S
C1049 C1050 1.390 . S
C1050 C1049 1.390 . S
C1050 C1051 1.394 . S
C1050 C1056 1.465 . S
C1051 C1046 1.399 . S
C1051 C1050 1.394 . S
C1051 C1052 1.516 . S
C1052 C1051 1.516 . S
C1052 C1053 1.502 . S
C1052 C1054 1.561 . S
C1052 C1055 1.526 . S
C1053 H1037 0.959 . S
C1053 H1038 0.959 . S
C1053 H1039 0.961 . S
C1053 C1052 1.502 . S
C1054 H1040 0.960 . S
C1054 H1041 0.961 . S
C1054 H1042 0.959 . S
C1054 C1052 1.561 . S
C1055 C1052 1.526 . S
C1055 C1056 1.396 . S
C1055 C1060 1.390 . S
C1056 C1050 1.465 . S
C1056 C1055 1.396 . S
C1056 C1057 1.399 . S
C1057 H1043 0.929 . S
C1057 C1056 1.399 . S
C1057 C1058 1.385 . S
C1058 H1044 0.931 . S
C1058 C1057 1.385 . S
C1058 C1059 1.389 . S
C1059 C1058 1.389 . S
C1059 C1060 1.387 . S
C1060 H1045 0.930 . S
C1060 C1055 1.390 . S
C1060 C1059 1.387 . S
H1061 C1073 0.930 . S
H1062 C1075 0.930 . S
H1063 C1076 0.930 . S
H1064 C1080 0.959 . S
H1065 C1080 0.959 . S
H1066 C1080 0.961 . S
H1067 C1081 0.960 . S
H1068 C1081 0.961 . S
H1069 C1081 0.959 . S
H1070 C1084 0.929 . S
H1071 C1085 0.931 . S
H1072 C1087 0.930 . S
C1073 H1061 0.930 . S
C1073 C1074 1.399 . S
C1073 C1078 1.399 . S
C1074 C1073 1.399 . S
C1074 C1075 1.376 . S
C1075 H1062 0.930 . S
C1075 C1074 1.376 . S
C1075 C1076 1.388 . S
C1076 H1063 0.930 . S
C1076 C1075 1.388 . S
C1076 C1077 1.390 . S
C1077 C1076 1.390 . S
C1077 C1078 1.394 . S
C1077 C1083 1.465 . S
C1078 C1073 1.399 . S
C1078 C1077 1.394 . S
C1078 C1079 1.516 . S
C1079 C1078 1.516 . S
C1079 C1080 1.502 . S
C1079 C1081 1.561 . S
C1079 C1082 1.526 . S
C1080 H1064 0.959 . S
C1080 H1065 0.959 . S
C1080 H1066 0.961 . S
C1080 C1079 1.502 . S
C1081 H1067 0.960 . S
C1081 H1068 0.961 . S
C1081 H1069 0.959 . S
C1081 C1079 1.561 . S
C1082 C1079 1.526 . S
C1082 C1083 1.396 . S
C1082 C1087 1.390 . S
C1083 C1077 1.465 . S
C1083 C1082 1.396 . S
C1083 C1084 1.399 . S
C1084 H1070 0.929 . S
C1084 C1083 1.399 . S
C1084 C1085 1.385 . S
C1085 H1071 0.931 . S
C1085 C1084 1.385 . S
C1085 C1086 1.389 . S
C1086 C1085 1.389 . S
C1086 C1087 1.387 . S
C1087 H1072 0.930 . S
C1087 C1082 1.390 . S
C1087 C1086 1.387 . S
H1088 C1100 0.930 . S
H1089 C1102 0.930 . S
H1090 C1103 0.930 . S
H1091 C1107 0.959 . S
H1092 C1107 0.959 . S
H1093 C1107 0.961 . S
H1094 C1108 0.960 . S
H1095 C1108 0.961 . S
H1096 C1108 0.959 . S
H1097 C1111 0.929 . S
H1098 C1112 0.931 . S
H1099 C1114 0.930 . S
C1100 H1088 0.930 . S
C1100 C1101 1.399 . S
C1100 C1105 1.399 . S
C1101 C1100 1.399 . S
C1101 C1102 1.376 . S
C1102 H1089 0.930 . S
C1102 C1101 1.376 . S
C1102 C1103 1.388 . S
C1103 H1090 0.930 . S
C1103 C1102 1.388 . S
C1103 C1104 1.390 . S
C1104 C1103 1.390 . S
C1104 C1105 1.394 . S
C1104 C1110 1.465 . S
C1105 C1100 1.399 . S
C1105 C1104 1.394 . S
C1105 C1106 1.516 . S
C1106 C1105 1.516 . S
C1106 C1107 1.502 . S
C1106 C1108 1.561 . S
C1106 C1109 1.526 . S
C1107 H1091 0.959 . S
C1107 H1092 0.959 . S
C1107 H1093 0.961 . S
C1107 C1106 1.502 . S
C1108 H1094 0.960 . S
C1108 H1095 0.961 . S
C1108 H1096 0.959 . S
C1108 C1106 1.561 . S
C1109 C1106 1.526 . S
C1109 C1110 1.396 . S
C1109 C1114 1.390 . S
C1110 C1104 1.465 . S
C1110 C1109 1.396 . S
C1110 C1111 1.399 . S
C1111 H1097 0.929 . S
C1111 C1110 1.399 . S
C1111 C1112 1.385 . S
C1112 H1098 0.931 . S
C1112 C1111 1.385 . S
C1112 C1113 1.389 . S
C1113 C1112 1.389 . S
C1113 C1114 1.387 . S
C1114 H1099 0.930 . S
C1114 C1109 1.390 . S
C1114 C1113 1.387 . S
H1115 C1127 0.930 . S
H1116 C1129 0.930 . S
H1117 C1130 0.930 . S
H1118 C1134 0.959 . S
H1119 C1134 0.959 . S
H1120 C1134 0.961 . S
H1121 C1135 0.960 . S
H1122 C1135 0.961 . S
H1123 C1135 0.959 . S
H1124 C1138 0.929 1_565 S
H1125 C1139 0.931 . S
H1126 C1141 0.930 . S
C1127 H1115 0.930 . S
C1127 C1128 1.399 . S
C1127 C1132 1.399 . S
C1128 C1127 1.399 . S
C1128 C1129 1.376 . S
C1129 H1116 0.930 . S
C1129 C1128 1.376 . S
C1129 C1130 1.388 . S
C1130 H1117 0.930 . S
C1130 C1129 1.388 . S
C1130 C1131 1.390 . S
C1131 C1130 1.390 . S
C1131 C1132 1.394 . S
C1131 C1137 1.465 . S
C1132 C1127 1.399 . S
C1132 C1131 1.394 . S
C1132 C1133 1.516 . S
C1133 C1132 1.516 . S
C1133 C1134 1.502 . S
C1133 C1135 1.561 . S
C1133 C1136 1.526 . S
C1134 H1118 0.959 . S
C1134 H1119 0.959 . S
C1134 H1120 0.961 . S
C1134 C1133 1.502 . S
C1135 H1121 0.960 . S
C1135 H1122 0.961 . S
C1135 H1123 0.959 . S
C1135 C1133 1.561 . S
C1136 C1133 1.526 . S
C1136 C1137 1.396 . S
C1136 C1141 1.390 . S
C1137 C1131 1.465 . S
C1137 C1136 1.396 . S
C1137 C1138 1.399 . S
C1138 H1124 0.929 1_545 S
C1138 C1137 1.399 . S
C1138 C1139 1.385 . S
C1139 H1125 0.931 . S
C1139 C1138 1.385 . S
C1139 C1140 1.389 . S
C1140 C1139 1.389 . S
C1140 C1141 1.387 . S
C1141 H1126 0.930 . S
C1141 C1136 1.390 . S
C1141 C1140 1.387 . S
H1142 C1154 0.930 . S
H1143 C1156 0.930 . S
H1144 C1157 0.930 . S
H1145 C1161 0.959 . S
H1146 C1161 0.959 . S
H1147 C1161 0.961 . S
H1148 C1162 0.960 . S
H1149 C1162 0.961 . S
H1150 C1162 0.959 . S
H1151 C1165 0.929 . S
H1152 C1166 0.931 . S
H1153 C1168 0.930 . S
C1154 H1142 0.930 . S
C1154 C1155 1.399 . S
C1154 C1159 1.399 . S
C1155 C1154 1.399 . S
C1155 C1156 1.376 . S
C1156 H1143 0.930 . S
C1156 C1155 1.376 . S
C1156 C1157 1.388 . S
C1157 H1144 0.930 . S
C1157 C1156 1.388 . S
C1157 C1158 1.390 . S
C1158 C1157 1.390 . S
C1158 C1159 1.394 . S
C1158 C1164 1.465 . S
C1159 C1154 1.399 . S
C1159 C1158 1.394 . S
C1159 C1160 1.516 . S
C1160 C1159 1.516 . S
C1160 C1161 1.502 . S
C1160 C1162 1.561 . S
C1160 C1163 1.526 . S
C1161 H1145 0.959 . S
C1161 H1146 0.959 . S
C1161 H1147 0.961 . S
C1161 C1160 1.502 . S
C1162 H1148 0.960 . S
C1162 H1149 0.961 . S
C1162 H1150 0.959 . S
C1162 C1160 1.561 . S
C1163 C1160 1.526 . S
C1163 C1164 1.396 . S
C1163 C1168 1.390 . S
C1164 C1158 1.465 . S
C1164 C1163 1.396 . S
C1164 C1165 1.399 . S
C1165 H1151 0.929 . S
C1165 C1164 1.399 . S
C1165 C1166 1.385 . S
C1166 H1152 0.931 . S
C1166 C1165 1.385 . S
C1166 C1167 1.389 . S
C1167 C1166 1.389 . S
C1167 C1168 1.387 . S
C1168 H1153 0.930 . S
C1168 C1163 1.390 . S
C1168 C1167 1.387 . S
H1169 C1181 0.930 1_655 S
H1170 C1183 0.930 . S
H1171 C1184 0.930 . S
H1172 C1188 0.959 . S
H1173 C1188 0.959 . S
H1174 C1188 0.961 1_655 S
H1175 C1189 0.960 . S
H1176 C1189 0.961 . S
H1177 C1189 0.959 . S
H1178 C1192 0.929 . S
H1179 C1193 0.931 . S
H1180 C1195 0.930 . S
C1181 H1169 0.930 1_455 S
C1181 C1182 1.399 . S
C1181 C1186 1.399 . S
C1182 C1181 1.399 . S
C1182 C1183 1.376 . S
C1183 H1170 0.930 . S
C1183 C1182 1.376 . S
C1183 C1184 1.388 . S
C1184 H1171 0.930 . S
C1184 C1183 1.388 . S
C1184 C1185 1.390 . S
C1185 C1184 1.390 . S
C1185 C1186 1.394 . S
C1185 C1191 1.465 . S
C1186 C1181 1.399 . S
C1186 C1185 1.394 . S
C1186 C1187 1.516 . S
C1187 C1186 1.516 . S
C1187 C1188 1.502 . S
C1187 C1189 1.561 . S
C1187 C1190 1.526 . S
C1188 H1172 0.959 . S
C1188 H1173 0.959 . S
C1188 H1174 0.961 1_455 S
C1188 C1187 1.502 . S
C1189 H1175 0.960 . S
C1189 H1176 0.961 . S
C1189 H1177 0.959 . S
C1189 C1187 1.561 . S
C1190 C1187 1.526 . S
C1190 C1191 1.396 . S
C1190 C1195 1.390 . S
C1191 C1185 1.465 . S
C1191 C1190 1.396 . S
C1191 C1192 1.399 . S
C1192 H1178 0.929 . S
C1192 C1191 1.399 . S
C1192 C1193 1.385 . S
C1193 H1179 0.931 . S
C1193 C1192 1.385 . S
C1193 C1194 1.389 . S
C1194 C1193 1.389 . S
C1194 C1195 1.387 . S
C1195 H1180 0.930 . S
C1195 C1190 1.390 . S
C1195 C1194 1.387 . S
H1196 C1208 0.930 . S
H1197 C1210 0.930 . S
H1198 C1211 0.930 . S
H1199 C1215 0.959 . S
H1200 C1215 0.959 . S
H1201 C1215 0.961 . S
H1202 C1216 0.960 . S
H1203 C1216 0.961 . S
H1204 C1216 0.959 . S
H1205 C1219 0.929 . S
H1206 C1220 0.931 . S
H1207 C1222 0.930 . S
C1208 H1196 0.930 . S
C1208 C1209 1.399 . S
C1208 C1213 1.399 . S
C1209 C1208 1.399 . S
C1209 C1210 1.376 . S
C1210 H1197 0.930 . S
C1210 C1209 1.376 . S
C1210 C1211 1.388 . S
C1211 H1198 0.930 . S
C1211 C1210 1.388 . S
C1211 C1212 1.390 . S
C1212 C1211 1.390 . S
C1212 C1213 1.394 . S
C1212 C1218 1.465 . S
C1213 C1208 1.399 . S
C1213 C1212 1.394 . S
C1213 C1214 1.516 . S
C1214 C1213 1.516 . S
C1214 C1215 1.502 . S
C1214 C1216 1.561 . S
C1214 C1217 1.526 . S
C1215 H1199 0.959 . S
C1215 H1200 0.959 . S
C1215 H1201 0.961 . S
C1215 C1214 1.502 . S
C1216 H1202 0.960 . S
C1216 H1203 0.961 . S
C1216 H1204 0.959 . S
C1216 C1214 1.561 . S
C1217 C1214 1.526 . S
C1217 C1218 1.396 . S
C1217 C1222 1.390 . S
C1218 C1212 1.465 . S
C1218 C1217 1.396 . S
C1218 C1219 1.399 . S
C1219 H1205 0.929 . S
C1219 C1218 1.399 . S
C1219 C1220 1.385 . S
C1220 H1206 0.931 . S
C1220 C1219 1.385 . S
C1220 C1221 1.389 . S
C1221 C1220 1.389 . S
C1221 C1222 1.387 . S
C1222 H1207 0.930 . S
C1222 C1217 1.390 . S
C1222 C1221 1.387 . S
H1223 C1235 0.930 . S
H1224 C1237 0.940 . S
H1225 C1238 0.923 1_556 S
H1226 C1242 0.959 . S
H1227 C1242 0.959 . S
H1228 C1242 0.961 . S
H1229 C1243 0.960 1_554 S
H1230 C1243 0.961 . S
H1231 C1243 0.959 . S
H1232 C1246 0.929 . S
H1233 C1247 0.931 . S
H1234 C1249 0.930 . S
C1235 H1223 0.930 . S
C1235 C1236 1.399 . S
C1235 C1240 1.399 . S
C1236 C1235 1.399 . S
C1236 C1237 1.353 1_655 S
C1237 H1224 0.940 . S
C1237 C1236 1.353 1_455 S
C1237 C1238 1.402 . S
C1238 H1225 0.923 1_554 S
C1238 C1237 1.402 . S
C1238 C1239 1.390 1_455 S
C1239 C1238 1.390 1_655 S
C1239 C1240 1.394 . S
C1239 C1245 1.465 1_654 S
C1240 C1235 1.399 . S
C1240 C1239 1.394 . S
C1240 C1241 1.516 . S
C1241 C1240 1.516 . S
C1241 C1242 1.502 . S
C1241 C1243 1.561 1_554 S
C1241 C1244 1.526 1_554 S
C1242 H1226 0.959 . S
C1242 H1227 0.959 . S
C1242 H1228 0.961 . S
C1242 C1241 1.502 . S
C1243 H1229 0.960 1_556 S
C1243 H1230 0.961 . S
C1243 H1231 0.959 . S
C1243 C1241 1.561 1_556 S
C1244 C1241 1.526 1_556 S
C1244 C1245 1.396 1_655 S
C1244 C1249 1.390 . S
C1245 C1239 1.465 1_456 S
C1245 C1244 1.396 1_455 S
C1245 C1246 1.399 . S
C1246 H1232 0.929 . S
C1246 C1245 1.399 . S
C1246 C1247 1.385 . S
C1247 H1233 0.931 . S
C1247 C1246 1.385 . S
C1247 C1248 1.389 . S
C1248 C1247 1.389 . S
C1248 C1249 1.387 1_455 S
C1249 H1234 0.930 . S
C1249 C1244 1.390 . S
C1249 C1248 1.387 1_655 S
H1250 C1262 0.930 . S
H1251 C1264 0.930 . S
H1252 C1265 0.930 . S
H1253 C1269 0.959 . S
H1254 C1269 0.959 . S
H1255 C1269 0.961 . S
H1256 C1270 0.960 . S
H1257 C1270 0.961 . S
H1258 C1270 0.959 . S
H1259 C1273 0.929 . S
H1260 C1274 0.931 . S
H1261 C1276 0.930 . S
C1262 H1250 0.930 . S
C1262 C1263 1.399 . S
C1262 C1267 1.399 . S
C1263 C1262 1.399 . S
C1263 C1264 1.376 . S
C1264 H1251 0.930 . S
C1264 C1263 1.376 . S
C1264 C1265 1.388 . S
C1265 H1252 0.930 . S
C1265 C1264 1.388 . S
C1265 C1266 1.390 . S
C1266 C1265 1.390 . S
C1266 C1267 1.394 . S
C1266 C1272 1.465 . S
C1267 C1262 1.399 . S
C1267 C1266 1.394 . S
C1267 C1268 1.516 . S
C1268 C1267 1.516 . S
C1268 C1269 1.502 . S
C1268 C1270 1.561 . S
C1268 C1271 1.526 . S
C1269 H1253 0.959 . S
C1269 H1254 0.959 . S
C1269 H1255 0.961 . S
C1269 C1268 1.502 . S
C1270 H1256 0.960 . S
C1270 H1257 0.961 . S
C1270 H1258 0.959 . S
C1270 C1268 1.561 . S
C1271 C1268 1.526 . S
C1271 C1272 1.396 . S
C1271 C1276 1.390 . S
C1272 C1266 1.465 . S
C1272 C1271 1.396 . S
C1272 C1273 1.399 . S
C1273 H1259 0.929 . S
C1273 C1272 1.399 . S
C1273 C1274 1.385 . S
C1274 H1260 0.931 . S
C1274 C1273 1.385 . S
C1274 C1275 1.389 . S
C1275 C1274 1.389 . S
C1275 C1276 1.387 . S
C1276 H1261 0.930 . S
C1276 C1271 1.390 . S
C1276 C1275 1.387 . S
H1277 C1289 0.930 1_556 S
H1278 C1291 0.930 . S
H1279 C1292 0.930 . S
H1280 C1296 0.959 . S
H1281 C1296 0.959 . S
H1282 C1296 0.961 . S
H1283 C1297 0.960 . S
H1284 C1297 0.961 . S
H1285 C1297 0.959 . S
H1286 C1300 0.929 . S
H1287 C1301 0.931 1_554 S
H1288 C1303 0.930 . S
C1289 H1277 0.930 1_554 S
C1289 C1290 1.399 . S
C1289 C1294 1.399 1_554 S
C1290 C1289 1.399 . S
C1290 C1291 1.376 . S
C1291 H1278 0.930 . S
C1291 C1290 1.376 . S
C1291 C1292 1.388 . S
C1292 H1279 0.930 . S
C1292 C1291 1.388 . S
C1292 C1293 1.390 . S
C1293 C1292 1.390 . S
C1293 C1294 1.394 1_554 S
C1293 C1299 1.465 . S
C1294 C1289 1.399 1_556 S
C1294 C1293 1.394 1_556 S
C1294 C1295 1.516 . S
C1295 C1294 1.516 . S
C1295 C1296 1.502 . S
C1295 C1297 1.561 1_455 S
C1295 C1298 1.526 . S
C1296 H1280 0.959 . S
C1296 H1281 0.959 . S
C1296 H1282 0.961 . S
C1296 C1295 1.502 . S
C1297 H1283 0.960 . S
C1297 H1284 0.961 . S
C1297 H1285 0.959 . S
C1297 C1295 1.561 1_655 S
C1298 C1295 1.526 . S
C1298 C1299 1.396 1_556 S
C1298 C1303 1.390 . S
C1299 C1293 1.465 . S
C1299 C1298 1.396 1_554 S
C1299 C1300 1.399 . S
C1300 H1286 0.929 . S
C1300 C1299 1.399 . S
C1300 C1301 1.386 1_554 S
C1301 H1287 0.931 1_556 S
C1301 C1300 1.386 1_556 S
C1301 C1302 1.388 . S
C1302 C1301 1.388 . S
C1302 C1303 1.387 . S
C1303 H1288 0.930 . S
C1303 C1298 1.390 . S
C1303 C1302 1.387 . S
H1304 C1316 0.930 . S
H1305 C1318 0.930 . S
H1306 C1319 0.930 . S
H1307 C1323 0.959 . S
H1308 C1323 0.959 . S
H1309 C1323 0.961 . S
H1310 C1324 0.960 . S
H1311 C1324 0.961 . S
H1312 C1324 0.959 . S
H1313 C1327 0.929 . S
H1314 C1328 0.931 . S
H1315 C1330 0.930 . S
C1316 H1304 0.930 . S
C1316 C1317 1.399 . S
C1316 C1321 1.399 . S
C1317 C1316 1.399 . S
C1317 C1318 1.376 . S
C1318 H1305 0.930 . S
C1318 C1317 1.376 . S
C1318 C1319 1.388 . S
C1319 H1306 0.930 . S
C1319 C1318 1.388 . S
C1319 C1320 1.390 . S
C1320 C1319 1.390 . S
C1320 C1321 1.394 . S
C1320 C1326 1.465 . S
C1321 C1316 1.399 . S
C1321 C1320 1.394 . S
C1321 C1322 1.516 . S
C1322 C1321 1.516 . S
C1322 C1323 1.502 . S
C1322 C1324 1.561 . S
C1322 C1325 1.526 . S
C1323 H1307 0.959 . S
C1323 H1308 0.959 . S
C1323 H1309 0.961 . S
C1323 C1322 1.502 . S
C1324 H1310 0.960 . S
C1324 H1311 0.961 . S
C1324 H1312 0.959 . S
C1324 C1322 1.561 . S
C1325 C1322 1.526 . S
C1325 C1326 1.396 . S
C1325 C1330 1.390 . S
C1326 C1320 1.465 . S
C1326 C1325 1.396 . S
C1326 C1327 1.399 . S
C1327 H1313 0.929 . S
C1327 C1326 1.399 . S
C1327 C1328 1.385 . S
C1328 H1314 0.931 . S
C1328 C1327 1.385 . S
C1328 C1329 1.389 . S
C1329 C1328 1.389 . S
C1329 C1330 1.387 . S
C1330 H1315 0.930 . S
C1330 C1325 1.390 . S
C1330 C1329 1.387 . S
H1331 C1343 0.930 . S
H1332 C1345 0.930 . S
H1333 C1346 0.930 . S
H1334 C1350 0.959 . S
H1335 C1350 0.959 . S
H1336 C1350 0.961 . S
H1337 C1351 0.960 . S
H1338 C1351 0.961 . S
H1339 C1351 0.959 . S
H1340 C1354 0.929 . S
H1341 C1355 0.931 . S
H1342 C1357 0.930 . S
C1343 H1331 0.930 . S
C1343 C1344 1.399 . S
C1343 C1348 1.399 . S
C1344 C1343 1.399 . S
C1344 C1345 1.376 . S
C1345 H1332 0.930 . S
C1345 C1344 1.376 . S
C1345 C1346 1.388 . S
C1346 H1333 0.930 . S
C1346 C1345 1.388 . S
C1346 C1347 1.390 . S
C1347 C1346 1.390 . S
C1347 C1348 1.394 . S
C1347 C1353 1.465 . S
C1348 C1343 1.399 . S
C1348 C1347 1.394 . S
C1348 C1349 1.516 . S
C1349 C1348 1.516 . S
C1349 C1350 1.502 . S
C1349 C1351 1.561 . S
C1349 C1352 1.526 . S
C1350 H1334 0.959 . S
C1350 H1335 0.959 . S
C1350 H1336 0.961 . S
C1350 C1349 1.502 . S
C1351 H1337 0.960 . S
C1351 H1338 0.961 . S
C1351 H1339 0.959 . S
C1351 C1349 1.561 . S
C1352 C1349 1.526 . S
C1352 C1353 1.396 . S
C1352 C1357 1.390 . S
C1353 C1347 1.465 . S
C1353 C1352 1.396 . S
C1353 C1354 1.399 . S
C1354 H1340 0.929 . S
C1354 C1353 1.399 . S
C1354 C1355 1.385 . S
C1355 H1341 0.931 . S
C1355 C1354 1.385 . S
C1355 C1356 1.389 . S
C1356 C1355 1.389 . S
C1356 C1357 1.387 . S
C1357 H1342 0.930 . S
C1357 C1352 1.390 . S
C1357 C1356 1.387 . S
H1358 C1370 0.930 . S
H1359 C1372 0.930 . S
H1360 C1373 0.930 . S
H1361 C1377 0.959 . S
H1362 C1377 0.959 . S
H1363 C1377 0.961 . S
H1364 C1378 0.960 . S
H1365 C1378 0.961 . S
H1366 C1378 0.959 . S
H1367 C1381 0.929 . S
H1368 C1382 0.931 . S
H1369 C1384 0.930 . S
C1370 H1358 0.930 . S
C1370 C1371 1.399 . S
C1370 C1375 1.399 . S
C1371 C1370 1.399 . S
C1371 C1372 1.376 . S
C1372 H1359 0.930 . S
C1372 C1371 1.376 . S
C1372 C1373 1.388 . S
C1373 H1360 0.930 . S
C1373 C1372 1.388 . S
C1373 C1374 1.390 . S
C1374 C1373 1.390 . S
C1374 C1375 1.394 . S
C1374 C1380 1.465 . S
C1375 C1370 1.399 . S
C1375 C1374 1.394 . S
C1375 C1376 1.516 . S
C1376 C1375 1.516 . S
C1376 C1377 1.502 . S
C1376 C1378 1.561 . S
C1376 C1379 1.526 . S
C1377 H1361 0.959 . S
C1377 H1362 0.959 . S
C1377 H1363 0.961 . S
C1377 C1376 1.502 . S
C1378 H1364 0.960 . S
C1378 H1365 0.961 . S
C1378 H1366 0.959 . S
C1378 C1376 1.561 . S
C1379 C1376 1.526 . S
C1379 C1380 1.396 . S
C1379 C1384 1.390 . S
C1380 C1374 1.465 . S
C1380 C1379 1.396 . S
C1380 C1381 1.399 . S
C1381 H1367 0.929 . S
C1381 C1380 1.399 . S
C1381 C1382 1.385 . S
C1382 H1368 0.931 . S
C1382 C1381 1.385 . S
C1382 C1383 1.389 . S
C1383 C1382 1.389 . S
C1383 C1384 1.387 . S
C1384 H1369 0.930 . S
C1384 C1379 1.390 . S
C1384 C1383 1.387 . S
H1385 C1397 0.930 . S
H1386 C1399 0.930 . S
H1387 C1400 0.930 . S
H1388 C1404 0.959 . S
H1389 C1404 0.959 . S
H1390 C1404 0.961 . S
H1391 C1405 0.960 . S
H1392 C1405 0.961 . S
H1393 C1405 0.959 . S
H1394 C1408 0.929 . S
H1395 C1409 0.931 . S
H1396 C1411 0.930 . S
C1397 H1385 0.930 . S
C1397 C1398 1.399 . S
C1397 C1402 1.399 . S
C1398 C1397 1.399 . S
C1398 C1399 1.376 . S
C1399 H1386 0.930 . S
C1399 C1398 1.376 . S
C1399 C1400 1.388 . S
C1400 H1387 0.930 . S
C1400 C1399 1.388 . S
C1400 C1401 1.390 . S
C1401 C1400 1.390 . S
C1401 C1402 1.394 . S
C1401 C1407 1.465 . S
C1402 C1397 1.399 . S
C1402 C1401 1.394 . S
C1402 C1403 1.516 . S
C1403 C1402 1.516 . S
C1403 C1404 1.502 . S
C1403 C1405 1.561 . S
C1403 C1406 1.526 . S
C1404 H1388 0.959 . S
C1404 H1389 0.959 . S
C1404 H1390 0.961 . S
C1404 C1403 1.502 . S
C1405 H1391 0.960 . S
C1405 H1392 0.961 . S
C1405 H1393 0.959 . S
C1405 C1403 1.561 . S
C1406 C1403 1.526 . S
C1406 C1407 1.396 . S
C1406 C1411 1.390 . S
C1407 C1401 1.465 . S
C1407 C1406 1.396 . S
C1407 C1408 1.399 . S
C1408 H1394 0.929 . S
C1408 C1407 1.399 . S
C1408 C1409 1.385 . S
C1409 H1395 0.931 . S
C1409 C1408 1.385 . S
C1409 C1410 1.389 . S
C1410 C1409 1.389 . S
C1410 C1411 1.387 . S
C1411 H1396 0.930 . S
C1411 C1406 1.390 . S
C1411 C1410 1.387 . S
H1412 C1424 0.930 . S
H1413 C1426 0.930 . S
H1414 C1427 0.930 . S
H1415 C1431 0.959 . S
H1416 C1431 0.959 . S
H1417 C1431 0.961 . S
H1418 C1432 0.960 . S
H1419 C1432 0.961 . S
H1420 C1432 0.959 . S
H1421 C1435 0.929 . S
H1422 C1436 0.931 . S
H1423 C1438 0.930 . S
C1424 H1412 0.930 . S
C1424 C1425 1.399 . S
C1424 C1429 1.399 . S
C1425 C1424 1.399 . S
C1425 C1426 1.376 . S
C1426 H1413 0.930 . S
C1426 C1425 1.376 . S
C1426 C1427 1.388 . S
C1427 H1414 0.930 . S
C1427 C1426 1.388 . S
C1427 C1428 1.390 . S
C1428 C1427 1.390 . S
C1428 C1429 1.394 . S
C1428 C1434 1.465 . S
C1429 C1424 1.399 . S
C1429 C1428 1.394 . S
C1429 C1430 1.516 . S
C1430 C1429 1.516 . S
C1430 C1431 1.502 . S
C1430 C1432 1.561 . S
C1430 C1433 1.526 . S
C1431 H1415 0.959 . S
C1431 H1416 0.959 . S
C1431 H1417 0.961 . S
C1431 C1430 1.502 . S
C1432 H1418 0.960 . S
C1432 H1419 0.961 . S
C1432 H1420 0.959 . S
C1432 C1430 1.561 . S
C1433 C1430 1.526 . S
C1433 C1434 1.396 . S
C1433 C1438 1.390 . S
C1434 C1428 1.465 . S
C1434 C1433 1.396 . S
C1434 C1435 1.399 . S
C1435 H1421 0.929 . S
C1435 C1434 1.399 . S
C1435 C1436 1.385 . S
C1436 H1422 0.931 . S
C1436 C1435 1.385 . S
C1436 C1437 1.389 . S
C1437 C1436 1.389 . S
C1437 C1438 1.387 . S
C1438 H1423 0.930 . S
C1438 C1433 1.390 . S
C1438 C1437 1.387 . S
H1439 C1451 0.930 . S
H1440 C1453 0.930 . S
H1441 C1454 0.930 . S
H1442 C1458 0.959 . S
H1443 C1458 0.959 . S
H1444 C1458 0.961 . S
H1445 C1459 0.960 . S
H1446 C1459 0.961 . S
H1447 C1459 0.959 . S
H1448 C1462 0.929 . S
H1449 C1463 0.931 . S
H1450 C1465 0.930 . S
C1451 H1439 0.930 . S
C1451 C1452 1.399 . S
C1451 C1456 1.399 . S
C1452 C1451 1.399 . S
C1452 C1453 1.376 . S
C1453 H1440 0.930 . S
C1453 C1452 1.376 . S
C1453 C1454 1.388 . S
C1454 H1441 0.930 . S
C1454 C1453 1.388 . S
C1454 C1455 1.390 . S
C1455 C1454 1.390 . S
C1455 C1456 1.394 . S
C1455 C1461 1.465 . S
C1456 C1451 1.399 . S
C1456 C1455 1.394 . S
C1456 C1457 1.516 . S
C1457 C1456 1.516 . S
C1457 C1458 1.502 . S
C1457 C1459 1.561 . S
C1457 C1460 1.526 . S
C1458 H1442 0.959 . S
C1458 H1443 0.959 . S
C1458 H1444 0.961 . S
C1458 C1457 1.502 . S
C1459 H1445 0.960 . S
C1459 H1446 0.961 . S
C1459 H1447 0.959 . S
C1459 C1457 1.561 . S
C1460 C1457 1.526 . S
C1460 C1461 1.396 . S
C1460 C1465 1.390 . S
C1461 C1455 1.465 . S
C1461 C1460 1.396 . S
C1461 C1462 1.399 . S
C1462 H1448 0.929 . S
C1462 C1461 1.399 . S
C1462 C1463 1.385 . S
C1463 H1449 0.931 . S
C1463 C1462 1.385 . S
C1463 C1464 1.389 . S
C1464 C1463 1.389 . S
C1464 C1465 1.387 . S
C1465 H1450 0.930 . S
C1465 C1460 1.390 . S
C1465 C1464 1.387 . S
H1466 C1478 0.930 . S
H1467 C1480 0.930 . S
H1468 C1481 0.930 . S
H1469 C1485 0.959 . S
H1470 C1485 0.959 . S
H1471 C1485 0.961 . S
H1472 C1486 0.960 . S
H1473 C1486 0.961 . S
H1474 C1486 0.959 . S
H1475 C1489 0.929 . S
H1476 C1490 0.931 . S
H1477 C1492 0.930 . S
C1478 H1466 0.930 . S
C1478 C1479 1.399 . S
C1478 C1483 1.399 . S
C1479 C1478 1.399 . S
C1479 C1480 1.376 . S
C1480 H1467 0.930 . S
C1480 C1479 1.376 . S
C1480 C1481 1.388 . S
C1481 H1468 0.930 . S
C1481 C1480 1.388 . S
C1481 C1482 1.390 . S
C1482 C1481 1.390 . S
C1482 C1483 1.394 . S
C1482 C1488 1.465 . S
C1483 C1478 1.399 . S
C1483 C1482 1.394 . S
C1483 C1484 1.516 . S
C1484 C1483 1.516 . S
C1484 C1485 1.502 . S
C1484 C1486 1.561 . S
C1484 C1487 1.526 . S
C1485 H1469 0.959 . S
C1485 H1470 0.959 . S
C1485 H1471 0.961 . S
C1485 C1484 1.502 . S
C1486 H1472 0.960 . S
C1486 H1473 0.961 . S
C1486 H1474 0.959 . S
C1486 C1484 1.561 . S
C1487 C1484 1.526 . S
C1487 C1488 1.396 . S
C1487 C1492 1.390 . S
C1488 C1482 1.465 . S
C1488 C1487 1.396 . S
C1488 C1489 1.399 . S
C1489 H1475 0.929 . S
C1489 C1488 1.399 . S
C1489 C1490 1.385 . S
C1490 H1476 0.931 . S
C1490 C1489 1.385 . S
C1490 C1491 1.389 . S
C1491 C1490 1.389 . S
C1491 C1492 1.387 . S
C1492 H1477 0.930 . S
C1492 C1487 1.390 . S
C1492 C1491 1.387 . S
H1493 C1505 0.930 . S
H1494 C1507 0.930 . S
H1495 C1508 0.930 . S
H1496 C1512 0.959 . S
H1497 C1512 0.959 . S
H1498 C1512 0.961 . S
H1499 C1513 0.960 . S
H1500 C1513 0.961 . S
H1501 C1513 0.959 . S
H1502 C1516 0.929 . S
H1503 C1517 0.931 . S
H1504 C1519 0.930 . S
C1505 H1493 0.930 . S
C1505 C1506 1.399 . S
C1505 C1510 1.399 . S
C1506 C1505 1.399 . S
C1506 C1507 1.376 . S
C1507 H1494 0.930 . S
C1507 C1506 1.376 . S
C1507 C1508 1.388 . S
C1508 H1495 0.930 . S
C1508 C1507 1.388 . S
C1508 C1509 1.390 . S
C1509 C1508 1.390 . S
C1509 C1510 1.394 . S
C1509 C1515 1.465 . S
C1510 C1505 1.399 . S
C1510 C1509 1.394 . S
C1510 C1511 1.516 . S
C1511 C1510 1.516 . S
C1511 C1512 1.502 . S
C1511 C1513 1.561 . S
C1511 C1514 1.526 . S
C1512 H1496 0.959 . S
C1512 H1497 0.959 . S
C1512 H1498 0.961 . S
C1512 C1511 1.502 . S
C1513 H1499 0.960 . S
C1513 H1500 0.961 . S
C1513 H1501 0.959 . S
C1513 C1511 1.561 . S
C1514 C1511 1.526 . S
C1514 C1515 1.396 . S
C1514 C1519 1.390 . S
C1515 C1509 1.465 . S
C1515 C1514 1.396 . S
C1515 C1516 1.399 . S
C1516 H1502 0.929 . S
C1516 C1515 1.399 . S
C1516 C1517 1.385 . S
C1517 H1503 0.931 . S
C1517 C1516 1.385 . S
C1517 C1518 1.389 . S
C1518 C1517 1.389 . S
C1518 C1519 1.387 . S
C1519 H1504 0.930 . S
C1519 C1514 1.390 . S
C1519 C1518 1.387 . S
H1520 C1532 0.930 . S
H1521 C1534 0.930 . S
H1522 C1535 0.930 . S
H1523 C1539 0.959 . S
H1524 C1539 0.959 . S
H1525 C1539 0.961 . S
H1526 C1540 0.960 . S
H1527 C1540 0.961 . S
H1528 C1540 0.959 . S
H1529 C1543 0.929 . S
H1530 C1544 0.931 . S
H1531 C1546 0.930 . S
C1532 H1520 0.930 . S
C1532 C1533 1.399 . S
C1532 C1537 1.399 . S
C1533 C1532 1.399 . S
C1533 C1534 1.376 1_556 S
C1534 H1521 0.930 . S
C1534 C1533 1.376 1_554 S
C1534 C1535 1.388 . S
C1535 H1522 0.930 . S
C1535 C1534 1.388 . S
C1535 C1536 1.390 1_554 S
C1536 C1535 1.390 1_556 S
C1536 C1537 1.394 . S
C1536 C1542 1.464 1_556 S
C1537 C1532 1.399 . S
C1537 C1536 1.394 . S
C1537 C1538 1.516 . S
C1538 C1537 1.516 . S
C1538 C1539 1.502 . S
C1538 C1540 1.561 . S
C1538 C1541 1.526 . S
C1539 H1523 0.959 . S
C1539 H1524 0.959 . S
C1539 H1525 0.961 . S
C1539 C1538 1.502 . S
C1540 H1526 0.960 . S
C1540 H1527 0.961 . S
C1540 H1528 0.959 . S
C1540 C1538 1.561 . S
C1541 C1538 1.526 . S
C1541 C1542 1.364 1_556 S
C1541 C1546 1.390 . S
C1542 C1536 1.464 1_554 S
C1542 C1541 1.364 1_554 S
C1542 C1543 1.426 . S
C1543 H1529 0.929 . S
C1543 C1542 1.426 . S
C1543 C1544 1.385 . S
C1544 H1530 0.931 . S
C1544 C1543 1.385 . S
C1544 C1545 1.389 1_554 S
C1545 C1544 1.389 1_556 S
C1545 C1546 1.387 . S
C1546 H1531 0.930 . S
C1546 C1541 1.390 . S
C1546 C1545 1.387 . S
H1547 C1559 0.930 . S
H1548 C1561 0.930 . S
H1549 C1562 0.930 . S
H1550 C1566 0.959 . S
H1551 C1566 0.959 . S
H1552 C1566 0.961 . S
H1553 C1567 0.960 . S
H1554 C1567 0.961 . S
H1555 C1567 0.959 . S
H1556 C1570 0.929 . S
H1557 C1571 0.931 . S
H1558 C1573 0.930 . S
C1559 H1547 0.930 . S
C1559 C1560 1.399 . S
C1559 C1564 1.399 . S
C1560 C1559 1.399 . S
C1560 C1561 1.376 . S
C1561 H1548 0.930 . S
C1561 C1560 1.376 . S
C1561 C1562 1.388 . S
C1562 H1549 0.930 . S
C1562 C1561 1.388 . S
C1562 C1563 1.390 . S
C1563 C1562 1.390 . S
C1563 C1564 1.394 . S
C1563 C1569 1.465 . S
C1564 C1559 1.399 . S
C1564 C1563 1.394 . S
C1564 C1565 1.516 . S
C1565 C1564 1.516 . S
C1565 C1566 1.502 . S
C1565 C1567 1.561 . S
C1565 C1568 1.526 . S
C1566 H1550 0.959 . S
C1566 H1551 0.959 . S
C1566 H1552 0.961 . S
C1566 C1565 1.502 . S
C1567 H1553 0.960 . S
C1567 H1554 0.961 . S
C1567 H1555 0.959 . S
C1567 C1565 1.561 . S
C1568 C1565 1.526 . S
C1568 C1569 1.396 . S
C1568 C1573 1.390 . S
C1569 C1563 1.465 . S
C1569 C1568 1.396 . S
C1569 C1570 1.399 . S
C1570 H1556 0.929 . S
C1570 C1569 1.399 . S
C1570 C1571 1.385 . S
C1571 H1557 0.931 . S
C1571 C1570 1.385 . S
C1571 C1572 1.389 . S
C1572 C1571 1.389 . S
C1572 C1573 1.387 . S
C1573 H1558 0.930 . S
C1573 C1568 1.390 . S
C1573 C1572 1.387 . S
H1574 C1586 0.930 . S
H1575 C1588 0.930 . S
H1576 C1589 0.930 . S
H1577 C1593 0.959 . S
H1578 C1593 0.959 1_556 S
H1579 C1593 0.958 1_556 S
H1580 C1594 0.973 . S
H1581 C1594 0.996 . S
H1582 C1594 0.937 1_554 S
H1583 C1597 0.929 . S
H1584 C1598 0.931 . S
H1585 C1600 0.936 . S
C1586 H1574 0.930 . S
C1586 C1587 1.399 . S
C1586 C1591 1.399 . S
C1587 C1586 1.399 . S
C1587 C1588 1.376 . S
C1588 H1575 0.930 . S
C1588 C1587 1.376 . S
C1588 C1589 1.388 . S
C1589 H1576 0.930 . S
C1589 C1588 1.388 . S
C1589 C1590 1.390 . S
C1590 C1589 1.390 . S
C1590 C1591 1.394 . S
C1590 C1596 1.465 . S
C1591 C1586 1.399 . S
C1591 C1590 1.394 . S
C1591 C1592 1.516 . S
C1592 C1591 1.516 . S
C1592 C1593 1.502 . S
C1592 C1594 1.537 1_554 S
C1592 C1595 1.526 . S
C1593 H1577 0.959 . S
C1593 H1578 0.959 1_554 S
C1593 H1579 0.958 1_554 S
C1593 C1592 1.502 . S
C1594 H1580 0.973 . S
C1594 H1581 0.996 . S
C1594 H1582 0.937 1_556 S
C1594 C1592 1.537 1_556 S
C1595 C1592 1.526 . S
C1595 C1596 1.396 . S
C1595 C1600 1.390 . S
C1596 C1590 1.465 . S
C1596 C1595 1.396 . S
C1596 C1597 1.399 . S
C1597 H1583 0.929 . S
C1597 C1596 1.399 . S
C1597 C1598 1.385 . S
C1598 H1584 0.931 . S
C1598 C1597 1.385 . S
C1598 C1599 1.389 . S
C1599 C1598 1.389 . S
C1599 C1600 1.387 . S
C1600 H1585 0.936 . S
C1600 C1595 1.390 . S
C1600 C1599 1.387 . S
H1601 C1613 0.930 . S
H1602 C1615 0.930 1_556 S
H1603 C1616 0.930 1_556 S
H1604 C1620 0.959 . S
H1605 C1620 0.959 . S
H1606 C1620 0.961 . S
H1607 C1621 0.960 . S
H1608 C1621 0.961 . S
H1609 C1621 0.959 . S
H1610 C1624 0.929 . S
H1611 C1625 0.931 . S
H1612 C1627 0.930 . S
C1613 H1601 0.930 . S
C1613 C1614 1.399 . S
C1613 C1618 1.399 . S
C1614 C1613 1.399 . S
C1614 C1615 1.376 . S
C1615 H1602 0.930 1_554 S
C1615 C1614 1.376 . S
C1615 C1616 1.388 . S
C1616 H1603 0.930 1_554 S
C1616 C1615 1.388 . S
C1616 C1617 1.390 . S
C1617 C1616 1.390 . S
C1617 C1618 1.394 . S
C1617 C1623 1.465 . S
C1618 C1613 1.399 . S
C1618 C1617 1.394 . S
C1618 C1619 1.516 . S
C1619 C1618 1.516 . S
C1619 C1620 1.502 . S
C1619 C1621 1.561 . S
C1619 C1622 1.526 . S
C1620 H1604 0.959 . S
C1620 H1605 0.959 . S
C1620 H1606 0.961 . S
C1620 C1619 1.502 . S
C1621 H1607 0.960 . S
C1621 H1608 0.961 . S
C1621 H1609 0.959 . S
C1621 C1619 1.561 . S
C1622 C1619 1.526 . S
C1622 C1623 1.396 . S
C1622 C1627 1.390 . S
C1623 C1617 1.465 . S
C1623 C1622 1.396 . S
C1623 C1624 1.399 1_554 S
C1624 H1610 0.929 . S
C1624 C1623 1.399 1_556 S
C1624 C1625 1.385 . S
C1625 H1611 0.931 . S
C1625 C1624 1.385 . S
C1625 C1626 1.389 1_556 S
C1626 C1625 1.389 1_554 S
C1626 C1627 1.387 . S
C1627 H1612 0.930 . S
C1627 C1622 1.390 . S
C1627 C1626 1.387 . S
C357 C186 1.127 . S
C345 C62 1.080 . S
C384 C199 1.629 . S
C372 C73 1.576 1_455 S
C399 C84 1.420 . S
C411 C212 1.513 . S
C438 C225 1.272 . S
C426 C49 1.180 1_565 S
C465 C233 1.391 . S
C453 C118 1.345 . S
C492 C246 1.531 . S
C480 C137 1.255 . S
C507 C129 1.563 . S
C519 C259 1.541 . S
C546 C272 1.835 . S
C534 C106 1.794 . S
C561 C128 1.693 . S
C573 C290 1.757 . S
C600 C301 1.612 . S
C588 C104 1.408 . S
C615 C115 1.505 . S
C627 C285 1.753 . S
C654 C293 1.672 . S
C642 C139 1.656 . S
C669 C85 1.560 . S
C681 C316 1.561 . S
C696 C52 1.201 . S
C708 C306 1.183 . S
C723 C60 0.862 . S
C735 C311 0.977 . S
C750 C71 1.470 1_655 S
C762 C314 1.567 . S
C777 C40 1.655 . S
C789 C223 1.715 . S
C804 C162 1.051 . S
C816 C215 1.085 . S
C843 C184 1.198 . S
C831 C173 1.203 1_556 S
C870 C189 1.735 . S
C858 C93 1.584 . S
C885 C51 1.407 . S
C897 C236 1.431 . S
C924 C275 1.534 . S
C912 C126 1.366 . S
C951 C228 1.740 . S
C939 C107 1.739 . S
C978 C254 1.566 . S
C966 C140 1.529 . S
C1005 C264 1.129 . S
C993 C161 1.100 . S
C1020 C172 1.559 . S
C1032 C277 1.646 . S
C1047 C95 1.435 . S
C1059 C238 1.526 . S
C1086 C251 1.307 . S
C1074 C148 1.061 . S
C1101 C41 1.393 . S
C1113 C207 1.334 . S
C1140 C220 1.525 . S
C1128 C5 1.400 . S
C1167 C181 1.524 . S
C1155 C19 1.539 . S
C1194 C194 1.839 . S
C1182 C29 1.799 1_455 S
C1209 C18 1.711 . S
C1221 C303 1.747 . S
C1236 C27 1.415 . S
C1248 C288 1.607 . S
C1263 C38 1.547 . S
C1275 C298 1.720 . S
C1290 C7 1.677 . S
C1302 C280 1.711 . S
C1329 C329 1.562 . S
C1317 C96 1.578 . S
C1356 C319 1.194 . S
C1344 C151 1.209 . S
C1383 C324 1.040 . S
C1371 C159 1.024 . S
C1398 C170 1.474 . S
C1410 C327 1.584 . S
C1425 C117 1.587 . S
C1437 C249 1.675 . S
C1464 C241 1.006 . S
C1452 C63 1.075 . S
C1491 C262 1.136 . S
C1479 C74 1.174 . S
C1518 C267 1.759 . S
C1506 C82 1.606 . S
C1533 C150 1.402 . S
C1545 C210 1.433 1_556 S
C1572 C197 1.482 . S
C1560 C16 1.350 . S
C1587 C30 1.765 . S
C1599 C202 1.761 . S
C1626 C176 1.524 . S
C1614 C8 1.569 1_565 S
