# Generated by pormake.
# Topology gar, (4,6)-cn, num edge types: 1
# Building blocks:
#     Node 0, Type 0, BuildingBlock: NAHDIM_clean_sbu_0, # of connection points: 4
#     Node 1, Type 0, BuildingBlock: NAHDIM_clean_sbu_0, # of connection points: 4
#     Node 2, Type 0, BuildingBlock: NAHDIM_clean_sbu_0, # of connection points: 4
#     Node 3, Type 0, BuildingBlock: NAHDIM_clean_sbu_0, # of connection points: 4
#     Node 4, Type 0, BuildingBlock: NAHDIM_clean_sbu_0, # of connection points: 4
#     Node 5, Type 0, BuildingBlock: NAHDIM_clean_sbu_0, # of connection points: 4
#     Node 6, Type 0, BuildingBlock: NAHDIM_clean_sbu_0, # of connection points: 4
#     Node 7, Type 0, BuildingBlock: NAHDIM_clean_sbu_0, # of connection points: 4
#     Node 8, Type 0, BuildingBlock: NAHDIM_clean_sbu_0, # of connection points: 4
#     Node 9, Type 0, BuildingBlock: NAHDIM_clean_sbu_0, # of connection points: 4
#     Node 10, Type 0, BuildingBlock: NAHDIM_clean_sbu_0, # of connection points: 4
#     Node 11, Type 0, BuildingBlock: NAHDIM_clean_sbu_0, # of connection points: 4
#     Node 12, Type 0, BuildingBlock: NAHDIM_clean_sbu_0, # of connection points: 4
#     Node 13, Type 0, BuildingBlock: NAHDIM_clean_sbu_0, # of connection points: 4
#     Node 14, Type 0, BuildingBlock: NAHDIM_clean_sbu_0, # of connection points: 4
#     Node 15, Type 0, BuildingBlock: NAHDIM_clean_sbu_0, # of connection points: 4
#     Node 16, Type 0, BuildingBlock: NAHDIM_clean_sbu_0, # of connection points: 4
#     Node 17, Type 0, BuildingBlock: NAHDIM_clean_sbu_0, # of connection points: 4
#     Node 18, Type 0, BuildingBlock: NAHDIM_clean_sbu_0, # of connection points: 4
#     Node 19, Type 0, BuildingBlock: NAHDIM_clean_sbu_0, # of connection points: 4
#     Node 20, Type 0, BuildingBlock: NAHDIM_clean_sbu_0, # of connection points: 4
#     Node 21, Type 0, BuildingBlock: NAHDIM_clean_sbu_0, # of connection points: 4
#     Node 22, Type 0, BuildingBlock: NAHDIM_clean_sbu_0, # of connection points: 4
#     Node 23, Type 0, BuildingBlock: NAHDIM_clean_sbu_0, # of connection points: 4
#     Node 24, Type 1, BuildingBlock: KUMJIN_clean_sbu_1, # of connection points: 6
#     Node 25, Type 1, BuildingBlock: KUMJIN_clean_sbu_1, # of connection points: 6
#     Node 26, Type 1, BuildingBlock: KUMJIN_clean_sbu_1, # of connection points: 6
#     Node 27, Type 1, BuildingBlock: KUMJIN_clean_sbu_1, # of connection points: 6
#     Node 28, Type 1, BuildingBlock: KUMJIN_clean_sbu_1, # of connection points: 6
#     Node 29, Type 1, BuildingBlock: KUMJIN_clean_sbu_1, # of connection points: 6
#     Node 30, Type 1, BuildingBlock: KUMJIN_clean_sbu_1, # of connection points: 6
#     Node 31, Type 1, BuildingBlock: KUMJIN_clean_sbu_1, # of connection points: 6
#     Node 32, Type 1, BuildingBlock: KUMJIN_clean_sbu_1, # of connection points: 6
#     Node 33, Type 1, BuildingBlock: KUMJIN_clean_sbu_1, # of connection points: 6
#     Node 34, Type 1, BuildingBlock: KUMJIN_clean_sbu_1, # of connection points: 6
#     Node 35, Type 1, BuildingBlock: KUMJIN_clean_sbu_1, # of connection points: 6
#     Node 36, Type 1, BuildingBlock: KUMJIN_clean_sbu_1, # of connection points: 6
#     Node 37, Type 1, BuildingBlock: KUMJIN_clean_sbu_1, # of connection points: 6
#     Node 38, Type 1, BuildingBlock: KUMJIN_clean_sbu_1, # of connection points: 6
#     Node 39, Type 1, BuildingBlock: KUMJIN_clean_sbu_1, # of connection points: 6
#     Edge 40, Type (0, 1), BuildingBlock: EZIPEK_clean_linker_0, # of connection points: 2
#     Edge 41, Type (0, 1), BuildingBlock: EZIPEK_clean_linker_0, # of connection points: 2
#     Edge 42, Type (0, 1), BuildingBlock: EZIPEK_clean_linker_0, # of connection points: 2
#     Edge 43, Type (0, 1), BuildingBlock: EZIPEK_clean_linker_0, # of connection points: 2
#     Edge 44, Type (0, 1), BuildingBlock: EZIPEK_clean_linker_0, # of connection points: 2
#     Edge 45, Type (0, 1), BuildingBlock: EZIPEK_clean_linker_0, # of connection points: 2
#     Edge 46, Type (0, 1), BuildingBlock: EZIPEK_clean_linker_0, # of connection points: 2
#     Edge 47, Type (0, 1), BuildingBlock: EZIPEK_clean_linker_0, # of connection points: 2
#     Edge 48, Type (0, 1), BuildingBlock: EZIPEK_clean_linker_0, # of connection points: 2
#     Edge 49, Type (0, 1), BuildingBlock: EZIPEK_clean_linker_0, # of connection points: 2
#     Edge 50, Type (0, 1), BuildingBlock: EZIPEK_clean_linker_0, # of connection points: 2
#     Edge 51, Type (0, 1), BuildingBlock: EZIPEK_clean_linker_0, # of connection points: 2
#     Edge 52, Type (0, 1), BuildingBlock: EZIPEK_clean_linker_0, # of connection points: 2
#     Edge 53, Type (0, 1), BuildingBlock: EZIPEK_clean_linker_0, # of connection points: 2
#     Edge 54, Type (0, 1), BuildingBlock: EZIPEK_clean_linker_0, # of connection points: 2
#     Edge 55, Type (0, 1), BuildingBlock: EZIPEK_clean_linker_0, # of connection points: 2
#     Edge 56, Type (0, 1), BuildingBlock: EZIPEK_clean_linker_0, # of connection points: 2
#     Edge 57, Type (0, 1), BuildingBlock: EZIPEK_clean_linker_0, # of connection points: 2
#     Edge 58, Type (0, 1), BuildingBlock: EZIPEK_clean_linker_0, # of connection points: 2
#     Edge 59, Type (0, 1), BuildingBlock: EZIPEK_clean_linker_0, # of connection points: 2
#     Edge 60, Type (0, 1), BuildingBlock: EZIPEK_clean_linker_0, # of connection points: 2
#     Edge 61, Type (0, 1), BuildingBlock: EZIPEK_clean_linker_0, # of connection points: 2
#     Edge 62, Type (0, 1), BuildingBlock: EZIPEK_clean_linker_0, # of connection points: 2
#     Edge 63, Type (0, 1), BuildingBlock: EZIPEK_clean_linker_0, # of connection points: 2
#     Edge 64, Type (0, 1), BuildingBlock: EZIPEK_clean_linker_0, # of connection points: 2
#     Edge 65, Type (0, 1), BuildingBlock: EZIPEK_clean_linker_0, # of connection points: 2
#     Edge 66, Type (0, 1), BuildingBlock: EZIPEK_clean_linker_0, # of connection points: 2
#     Edge 67, Type (0, 1), BuildingBlock: EZIPEK_clean_linker_0, # of connection points: 2
#     Edge 68, Type (0, 1), BuildingBlock: EZIPEK_clean_linker_0, # of connection points: 2
#     Edge 69, Type (0, 1), BuildingBlock: EZIPEK_clean_linker_0, # of connection points: 2
#     Edge 70, Type (0, 1), BuildingBlock: EZIPEK_clean_linker_0, # of connection points: 2
#     Edge 71, Type (0, 1), BuildingBlock: EZIPEK_clean_linker_0, # of connection points: 2
#     Edge 72, Type (0, 1), BuildingBlock: EZIPEK_clean_linker_0, # of connection points: 2
#     Edge 73, Type (0, 1), BuildingBlock: EZIPEK_clean_linker_0, # of connection points: 2
#     Edge 74, Type (0, 1), BuildingBlock: EZIPEK_clean_linker_0, # of connection points: 2
#     Edge 75, Type (0, 1), BuildingBlock: EZIPEK_clean_linker_0, # of connection points: 2
#     Edge 76, Type (0, 1), BuildingBlock: EZIPEK_clean_linker_0, # of connection points: 2
#     Edge 77, Type (0, 1), BuildingBlock: EZIPEK_clean_linker_0, # of connection points: 2
#     Edge 78, Type (0, 1), BuildingBlock: EZIPEK_clean_linker_0, # of connection points: 2
#     Edge 79, Type (0, 1), BuildingBlock: EZIPEK_clean_linker_0, # of connection points: 2
#     Edge 80, Type (0, 1), BuildingBlock: EZIPEK_clean_linker_0, # of connection points: 2
#     Edge 81, Type (0, 1), BuildingBlock: EZIPEK_clean_linker_0, # of connection points: 2
#     Edge 82, Type (0, 1), BuildingBlock: EZIPEK_clean_linker_0, # of connection points: 2
#     Edge 83, Type (0, 1), BuildingBlock: EZIPEK_clean_linker_0, # of connection points: 2
#     Edge 84, Type (0, 1), BuildingBlock: EZIPEK_clean_linker_0, # of connection points: 2
#     Edge 85, Type (0, 1), BuildingBlock: EZIPEK_clean_linker_0, # of connection points: 2
#     Edge 86, Type (0, 1), BuildingBlock: EZIPEK_clean_linker_0, # of connection points: 2
#     Edge 87, Type (0, 1), BuildingBlock: EZIPEK_clean_linker_0, # of connection points: 2
#     Edge 88, Type (0, 1), BuildingBlock: EZIPEK_clean_linker_0, # of connection points: 2
#     Edge 89, Type (0, 1), BuildingBlock: EZIPEK_clean_linker_0, # of connection points: 2
#     Edge 90, Type (0, 1), BuildingBlock: EZIPEK_clean_linker_0, # of connection points: 2
#     Edge 91, Type (0, 1), BuildingBlock: EZIPEK_clean_linker_0, # of connection points: 2
#     Edge 92, Type (0, 1), BuildingBlock: EZIPEK_clean_linker_0, # of connection points: 2
#     Edge 93, Type (0, 1), BuildingBlock: EZIPEK_clean_linker_0, # of connection points: 2
#     Edge 94, Type (0, 1), BuildingBlock: EZIPEK_clean_linker_0, # of connection points: 2
#     Edge 95, Type (0, 1), BuildingBlock: EZIPEK_clean_linker_0, # of connection points: 2
#     Edge 96, Type (0, 1), BuildingBlock: EZIPEK_clean_linker_0, # of connection points: 2
#     Edge 97, Type (0, 1), BuildingBlock: EZIPEK_clean_linker_0, # of connection points: 2
#     Edge 98, Type (0, 1), BuildingBlock: EZIPEK_clean_linker_0, # of connection points: 2
#     Edge 99, Type (0, 1), BuildingBlock: EZIPEK_clean_linker_0, # of connection points: 2
#     Edge 100, Type (0, 1), BuildingBlock: EZIPEK_clean_linker_0, # of connection points: 2
#     Edge 101, Type (0, 1), BuildingBlock: EZIPEK_clean_linker_0, # of connection points: 2
#     Edge 102, Type (0, 1), BuildingBlock: EZIPEK_clean_linker_0, # of connection points: 2
#     Edge 103, Type (0, 1), BuildingBlock: EZIPEK_clean_linker_0, # of connection points: 2
#     Edge 104, Type (0, 1), BuildingBlock: EZIPEK_clean_linker_0, # of connection points: 2
#     Edge 105, Type (0, 1), BuildingBlock: EZIPEK_clean_linker_0, # of connection points: 2
#     Edge 106, Type (0, 1), BuildingBlock: EZIPEK_clean_linker_0, # of connection points: 2
#     Edge 107, Type (0, 1), BuildingBlock: EZIPEK_clean_linker_0, # of connection points: 2
#     Edge 108, Type (0, 1), BuildingBlock: EZIPEK_clean_linker_0, # of connection points: 2
#     Edge 109, Type (0, 1), BuildingBlock: EZIPEK_clean_linker_0, # of connection points: 2
#     Edge 110, Type (0, 1), BuildingBlock: EZIPEK_clean_linker_0, # of connection points: 2
#     Edge 111, Type (0, 1), BuildingBlock: EZIPEK_clean_linker_0, # of connection points: 2
#     Edge 112, Type (0, 1), BuildingBlock: EZIPEK_clean_linker_0, # of connection points: 2
#     Edge 113, Type (0, 1), BuildingBlock: EZIPEK_clean_linker_0, # of connection points: 2
#     Edge 114, Type (0, 1), BuildingBlock: EZIPEK_clean_linker_0, # of connection points: 2
#     Edge 115, Type (0, 1), BuildingBlock: EZIPEK_clean_linker_0, # of connection points: 2
#     Edge 116, Type (0, 1), BuildingBlock: EZIPEK_clean_linker_0, # of connection points: 2
#     Edge 117, Type (0, 1), BuildingBlock: EZIPEK_clean_linker_0, # of connection points: 2
#     Edge 118, Type (0, 1), BuildingBlock: EZIPEK_clean_linker_0, # of connection points: 2
#     Edge 119, Type (0, 1), BuildingBlock: EZIPEK_clean_linker_0, # of connection points: 2
#     Edge 120, Type (0, 1), BuildingBlock: EZIPEK_clean_linker_0, # of connection points: 2
#     Edge 121, Type (0, 1), BuildingBlock: EZIPEK_clean_linker_0, # of connection points: 2
#     Edge 122, Type (0, 1), BuildingBlock: EZIPEK_clean_linker_0, # of connection points: 2
#     Edge 123, Type (0, 1), BuildingBlock: EZIPEK_clean_linker_0, # of connection points: 2
#     Edge 124, Type (0, 1), BuildingBlock: EZIPEK_clean_linker_0, # of connection points: 2
#     Edge 125, Type (0, 1), BuildingBlock: EZIPEK_clean_linker_0, # of connection points: 2
#     Edge 126, Type (0, 1), BuildingBlock: EZIPEK_clean_linker_0, # of connection points: 2
#     Edge 127, Type (0, 1), BuildingBlock: EZIPEK_clean_linker_0, # of connection points: 2
#     Edge 128, Type (0, 1), BuildingBlock: EZIPEK_clean_linker_0, # of connection points: 2
#     Edge 129, Type (0, 1), BuildingBlock: EZIPEK_clean_linker_0, # of connection points: 2
#     Edge 130, Type (0, 1), BuildingBlock: EZIPEK_clean_linker_0, # of connection points: 2
#     Edge 131, Type (0, 1), BuildingBlock: EZIPEK_clean_linker_0, # of connection points: 2
#     Edge 132, Type (0, 1), BuildingBlock: EZIPEK_clean_linker_0, # of connection points: 2
#     Edge 133, Type (0, 1), BuildingBlock: EZIPEK_clean_linker_0, # of connection points: 2
#     Edge 134, Type (0, 1), BuildingBlock: EZIPEK_clean_linker_0, # of connection points: 2
#     Edge 135, Type (0, 1), BuildingBlock: EZIPEK_clean_linker_0, # of connection points: 2
# Relax obj value: 0.112
# Max RMSD: 0.216
# Mean RMSD: 0.140
data_MOF--net-gar--node1-NAHDIM_clean_sbu_0--node2-KUMJIN_clean_sbu_1--edge1-EZIPEK_clean_linker_0
_symmetry_space_group_name_H-M    P1
_symmetry_Int_Tables_number       1
_symmetry_cell_setting            triclinic
loop_
_symmetry_equiv_pos_as_xyz
'x, y, z'
_cell_length_a     46.731434
_cell_length_b     46.038072
_cell_length_c     41.090826
_cell_angle_alpha  97.660442
_cell_angle_beta   97.624946
_cell_angle_gamma 103.22833
loop_
_atom_site_label
_atom_site_type_symbol
_atom_site_fract_x
_atom_site_fract_y
_atom_site_fract_z
_atom_type_partial_charge
C0 C 0.12059 0.31576 0.33629 0.0
O1 O 0.10802 0.28926 0.34326 0.0
O2 O 0.0604 0.29674 0.38285 0.0
Zn3 Zn 0.06212 0.33446 0.36104 0.0
O4 O 0.06866 0.3732 0.39965 0.0
C5 C 0.9921 0.32449 0.35182 0.0
O6 O 0.99898 0.32935 0.38445 0.0
O7 O 0.10558 0.33656 0.33894 0.0
C8 C 0.05276 0.39267 0.40144 0.0
O9 O 0.03045 0.38996 0.37724 0.0
C10 C 0.05167 0.29327 0.41042 0.0
O11 O 0.04459 0.31571 0.42792 0.0
O12 O 0.01416 0.32578 0.33512 0.0
C13 C 0.96737 0.75659 0.73844 0.0
O14 O 0.95815 0.74132 0.70805 0.0
O15 O 0.03059 0.7103 0.69764 0.0
Zn16 Zn 0.03562 0.75513 0.72422 0.0
O17 O 0.03597 0.78351 0.6892 0.0
C18 C 0.10374 0.75303 0.74671 0.0
O19 O 0.09483 0.7253 0.73003 0.0
O20 O 0.99607 0.76311 0.75002 0.0
C21 C 0.05184 0.81072 0.69727 0.0
O22 O 0.06698 0.8198 0.72764 0.0
C23 C 0.03463 0.70471 0.66727 0.0
O24 O 0.03874 0.72709 0.65027 0.0
O25 O 0.08376 0.76841 0.74986 0.0
C26 C 0.6295 0.82598 0.84514 0.0
O27 O 0.62892 0.81506 0.87305 0.0
O28 O 0.56258 0.79798 0.88109 0.0
Zn29 Zn 0.56432 0.83542 0.85867 0.0
O30 O 0.57144 0.87372 0.898 0.0
C31 C 0.4937 0.82726 0.84839 0.0
O32 O 0.49979 0.83314 0.88105 0.0
O33 O 0.60635 0.83568 0.83392 0.0
C34 C 0.55649 0.89402 0.89923 0.0
O35 O 0.53603 0.89315 0.87369 0.0
C36 C 0.55266 0.79474 0.90811 0.0
O37 O 0.54418 0.81705 0.92409 0.0
O38 O 0.51617 0.82727 0.83252 0.0
C39 C 0.46398 0.25635 0.24227 0.0
O40 O 0.45528 0.23059 0.22134 0.0
O41 O 0.52209 0.21313 0.19611 0.0
Zn42 Zn 0.53237 0.25729 0.22628 0.0
O43 O 0.53655 0.2859 0.19212 0.0
C44 C 0.6044 0.27417 0.24255 0.0
O45 O 0.60226 0.28257 0.21323 0.0
O46 O 0.49271 0.26899 0.24918 0.0
C47 C 0.54936 0.31391 0.20125 0.0
O48 O 0.55951 0.32423 0.23307 0.0
C49 C 0.54196 0.20544 0.18031 0.0
O50 O 0.56797 0.22492 0.18401 0.0
O51 O 0.57973 0.26473 0.25401 0.0
C52 C 0.03001 0.80529 0.13686 0.0
O53 O 0.02131 0.80611 0.10533 0.0
O54 O 0.08009 0.76224 0.09666 0.0
Zn55 Zn 0.08943 0.81158 0.11811 0.0
O56 O 0.08144 0.85085 0.09212 0.0
C57 C 0.14842 0.80591 0.15531 0.0
O58 O 0.14741 0.78636 0.1286 0.0
O59 O 0.05751 0.80822 0.14766 0.0
C60 C 0.09543 0.87951 0.09668 0.0
O61 O 0.12075 0.88855 0.11763 0.0
C62 C 0.08515 0.74299 0.0734 0.0
O63 O 0.10029 0.75347 0.05091 0.0
O64 O 0.12854 0.8211 0.15529 0.0
C65 C 0.56753 0.7911 0.44277 0.0
O66 O 0.57745 0.79488 0.47487 0.0
O67 O 0.51594 0.73406 0.48303 0.0
Zn68 Zn 0.5089 0.7774 0.46424 0.0
O69 O 0.51854 0.82449 0.49378 0.0
C70 C 0.44688 0.78299 0.43153 0.0
O71 O 0.44813 0.80271 0.4582 0.0
O72 O 0.53948 0.78315 0.43241 0.0
C73 C 0.51613 0.84774 0.47964 0.0
O74 O 0.50678 0.84251 0.44733 0.0
C75 C 0.51 0.71804 0.50638 0.0
O76 O 0.49578 0.72837 0.52902 0.0
O77 O 0.46798 0.76944 0.43004 0.0
C78 C 0.52984 0.30099 0.63824 0.0
O79 O 0.52043 0.3039 0.60756 0.0
O80 O 0.57993 0.2599 0.5938 0.0
Zn81 Zn 0.58837 0.30881 0.61722 0.0
O82 O 0.5803 0.3514 0.59825 0.0
C83 C 0.64952 0.30537 0.65019 0.0
O84 O 0.64958 0.28924 0.62138 0.0
O85 O 0.55737 0.30301 0.64769 0.0
C86 C 0.59183 0.37126 0.58069 0.0
O87 O 0.61418 0.3664 0.56632 0.0
C88 C 0.58285 0.24077 0.56898 0.0
O89 O 0.59468 0.25139 0.54438 0.0
O90 O 0.62779 0.31763 0.65322 0.0
C91 C 0.06935 0.29664 0.94691 0.0
O92 O 0.07843 0.30385 0.97925 0.0
O93 O 0.01675 0.23743 0.98415 0.0
Zn94 Zn 1.01082 0.28124 0.96639 0.0
O95 O 0.02188 0.32749 0.99678 0.0
C96 C 0.9437 0.26707 0.92857 0.0
O97 O 0.93389 0.25136 0.95104 0.0
O98 O 0.04168 0.28608 0.93568 0.0
C99 C 0.01971 0.3505 0.98224 0.0
O100 O 1.0103 0.34488 0.94993 0.0
C101 C 1.01155 0.22164 0.0078 0.0
O102 O 0.99826 0.23235 0.03119 0.0
O103 O 0.97181 0.27854 0.93132 0.0
C104 C 0.3773 0.08861 0.34839 0.0
O105 O 0.40179 0.09412 0.37034 0.0
O106 O 0.41195 0.03102 0.29811 0.0
Zn107 Zn 0.38582 0.03067 0.33326 0.0
O108 O 0.40924 0.03589 0.37762 0.0
C109 C 0.36146 0.97021 0.30617 0.0
O110 O 0.38466 0.97495 0.29101 0.0
O111 O 0.36627 0.06264 0.33108 0.0
C112 C 0.42637 0.01837 0.37873 0.0
O113 O 0.42352 0.99672 0.35339 0.0
C114 C 0.44009 0.03972 0.30089 0.0
O115 O 0.45657 0.05406 0.32928 0.0
O116 O 0.35593 0.99169 0.32483 0.0
C117 C 0.32766 0.17348 0.5361 0.0
O118 O 0.33546 0.20068 0.55418 0.0
O119 O 0.2762 0.20943 0.57154 0.0
Zn120 Zn 0.27088 0.18873 0.52247 0.0
O121 O 0.27627 0.21805 0.48818 0.0
C122 C 0.21087 0.161 0.53229 0.0
O123 O 0.21588 0.18584 0.55426 0.0
O124 O 0.30157 0.16401 0.51908 0.0
C125 C 0.27726 0.20827 0.45782 0.0
O126 O 0.27314 0.17903 0.44815 0.0
C127 C 0.28684 0.23703 0.58516 0.0
O128 O 0.29711 0.2571 0.56689 0.0
O129 O 0.2302 0.15787 0.5138 0.0
C130 C 0.16867 0.01902 0.8064 0.0
O131 O 0.14309 0.00917 0.81618 0.0
O132 O 0.12643 0.07256 0.76538 0.0
Zn133 Zn 0.15276 0.07644 0.81109 0.0
O134 O 0.13386 0.06744 0.85269 0.0
C135 C 0.18393 0.13536 0.79947 0.0
O136 O 0.16383 0.12774 0.77225 0.0
O137 O 0.17723 0.04656 0.80325 0.0
C138 C 0.10999 0.07236 0.86134 0.0
O139 O 0.0933 0.08475 0.84199 0.0
C140 C 0.1025 0.05367 0.75014 0.0
O141 O 0.08844 0.03311 0.76572 0.0
O142 O 0.18316 0.11768 0.82086 0.0
C143 C 0.28277 0.99366 0.01833 0.0
O144 O 0.30791 0.99977 0.03944 0.0
O145 O 0.31741 0.9389 0.0315 0.0
Zn146 Zn 0.31378 0.95877 0.99113 0.0
O147 O 0.3079 0.92758 0.95224 0.0
C148 C 0.37341 0.97657 1.00074 0.0
O149 O 0.36755 0.94771 0.00288 0.0
O150 O 0.27986 0.97675 0.99064 0.0
C151 C 0.31851 0.93169 0.92606 0.0
O152 O 0.33303 0.95867 0.92234 0.0
C153 C 0.31068 0.91035 0.02962 0.0
O154 O 0.2982 0.89272 0.00107 0.0
O155 O 0.35223 0.98904 0.99464 0.0
C156 C 0.27337 0.41534 0.04853 0.0
O157 O 0.2626 0.38653 0.04938 0.0
O158 O 0.32222 0.38539 0.10462 0.0
Zn159 Zn 0.32917 0.39959 0.05989 0.0
O160 O 0.32008 0.36718 0.01719 0.0
C161 C 0.39466 0.4319 0.07751 0.0
O162 O 0.39833 0.41492 0.10022 0.0
O163 O 0.30133 0.42617 0.05323 0.0
C164 C 0.32634 0.37815 0.99126 0.0
O165 O 0.33766 0.40747 0.99448 0.0
C166 C 0.32434 0.36126 0.11575 0.0
O167 O 0.33353 0.34054 0.09776 0.0
O168 O 0.36905 0.42849 0.06052 0.0
C169 C 0.84081 0.11995 0.07864 0.0
O170 O 0.84845 0.14938 0.07973 0.0
O171 O 0.78685 0.15312 0.13135 0.0
Zn172 Zn 0.78664 0.13133 0.08618 0.0
O173 O 0.79334 0.15979 0.05358 0.0
C174 C 0.72544 0.10662 0.07882 0.0
O175 O 0.72904 0.12695 0.10554 0.0
O176 O 0.816 0.10754 0.08589 0.0
C177 C 0.77585 0.17678 0.04925 0.0
O178 O 0.75718 0.17939 0.06996 0.0
C179 C 0.80282 0.18004 0.13892 0.0
O180 O 0.82029 0.19116 0.11868 0.0
O181 O 0.74775 0.1029 0.06616 0.0
C182 C 0.24076 0.51085 0.23407 0.0
O183 O 0.22911 0.51338 0.20403 0.0
O184 O 0.18897 0.55275 0.21681 0.0
Zn185 Zn 0.21399 0.55708 0.26055 0.0
O186 O 0.19036 0.55363 0.29769 0.0
C187 C 0.24432 0.61376 0.24782 0.0
O188 O 0.23282 0.60194 0.21667 0.0
O189 O 0.237 0.52716 0.25968 0.0
C190 C 0.16803 0.56496 0.29725 0.0
O191 O 0.15882 0.57594 0.27115 0.0
C192 C 0.16311 0.53536 0.20894 0.0
O193 O 0.1529 0.51679 0.22875 0.0
O194 O 0.24065 0.598 0.27064 0.0
C195 C 0.7729 0.92038 0.56639 0.0
O196 O 0.77115 0.90706 0.59262 0.0
O197 O 0.8234 0.88221 0.60387 0.0
Zn198 Zn 0.82629 0.89757 0.55911 0.0
O199 O 0.8217 0.86563 0.5165 0.0
C200 C 0.88957 0.92751 0.55869 0.0
O201 O 0.8928 0.90014 0.54975 0.0
O202 O 0.79367 0.91899 0.54964 0.0
C203 C 0.83076 0.87541 0.49101 0.0
O204 O 0.8443 0.90415 0.49397 0.0
C205 C 0.80756 0.8573 0.60902 0.0
O206 O 0.79151 0.8373 0.58354 0.0
O207 O 0.86452 0.93097 0.56491 0.0
C208 C 0.93252 0.07696 0.28465 0.0
O209 O 0.96168 0.08704 0.28995 0.0
O210 O 0.9626 0.0192 0.2308 0.0
Zn211 Zn 0.94641 0.01945 0.27538 0.0
O212 O 0.97636 0.03325 0.31966 0.0
C213 C 0.91044 0.95455 0.25966 0.0
O214 O 0.92369 0.95098 0.23367 0.0
O215 O 0.92079 0.0488 0.27616 0.0
C216 C 0.98651 0.0148 0.33557 0.0
O217 O 0.98127 0.98644 0.32123 0.0
C218 C 0.98943 0.03013 0.2273 0.0
O219 O 1.01007 0.04095 0.25383 0.0
O220 O 0.91729 0.98006 0.27882 0.0
C221 C 0.34281 0.61916 0.57526 0.0
O222 O 0.35031 0.64887 0.58194 0.0
O223 O 0.30202 0.65017 0.63923 0.0
Zn224 Zn 0.29178 0.63052 0.59137 0.0
O225 O 0.29468 0.66263 0.56155 0.0
C226 C 0.23236 0.60189 0.59823 0.0
O227 O 0.24095 0.61306 0.62986 0.0
O228 O 0.31814 0.6047 0.58102 0.0
C229 C 0.27783 0.65581 0.53325 0.0
O230 O 0.26049 0.62838 0.52361 0.0
C231 C 0.28955 0.67163 0.64432 0.0
O232 O 0.27145 0.67682 0.61981 0.0
O233 O 0.25067 0.60516 0.57832 0.0
C234 C 0.43409 0.57224 0.79011 0.0
O235 O 0.46208 0.58286 0.80447 0.0
O236 O 0.47089 0.51675 0.73321 0.0
Zn237 Zn 0.45257 0.51753 0.77615 0.0
O238 O 0.48052 0.53146 0.82141 0.0
C239 C 0.40458 0.46209 0.75559 0.0
O240 O 0.40066 0.47228 0.72739 0.0
O241 O 0.42527 0.54526 0.77442 0.0
C242 C 0.49267 0.51356 0.83609 0.0
O243 O 0.4913 0.48664 0.81963 0.0
C244 C 0.48795 0.53969 0.72536 0.0
O245 O 0.49632 0.56525 0.74663 0.0
O246 O 0.42576 0.47669 0.77879 0.0
C247 C 0.72306 0.9998 0.75549 0.0
O248 O 0.69396 0.99443 0.7525 0.0
O249 O 0.6896 0.05547 0.71274 0.0
Zn250 Zn 0.71497 0.05529 0.75543 0.0
O251 O 0.69052 0.04763 0.79173 0.0
C252 C 0.73564 0.11736 0.76339 0.0
O253 O 0.71154 0.1129 0.74115 0.0
O254 O 0.73771 0.02469 0.74973 0.0
C255 C 0.67338 0.06481 0.79712 0.0
O256 O 0.67012 0.08432 0.7774 0.0
C257 C 0.66272 0.0402 0.70703 0.0
O258 O 0.65232 0.02308 0.72801 0.0
O259 O 0.7433 0.09501 0.77326 0.0
C260 C 0.82897 0.67284 0.03711 0.0
O261 O 0.83634 0.69912 0.05707 0.0
O262 O 0.78058 0.70981 0.07239 0.0
Zn263 Zn 0.77331 0.68955 0.02271 0.0
O264 O 0.77994 0.71962 0.98945 0.0
C265 C 0.711 0.66173 0.0269 0.0
O266 O 0.71376 0.68671 0.04782 0.0
O267 O 0.80347 0.66434 0.01866 0.0
C268 C 0.774 0.71014 0.95805 0.0
O269 O 0.76189 0.68121 0.94704 0.0
C270 C 0.77107 0.73171 0.08546 0.0
O271 O 0.75556 0.74528 0.06627 0.0
O272 O 0.73256 0.65857 0.01197 0.0
C273 C 0.87718 0.58576 0.8377 0.0
O274 O 0.90622 0.59035 0.84046 0.0
O275 O 0.90716 0.53023 0.80574 0.0
Zn276 Zn 0.88472 0.53173 0.84496 0.0
O277 O 0.91242 0.54046 0.88674 0.0
C278 C 0.86086 0.47066 0.82314 0.0
O279 O 0.88155 0.47496 0.8044 0.0
O280 O 0.8617 0.56108 0.84274 0.0
C281 C 0.92964 0.52303 0.88478 0.0
O282 O 0.92459 0.50147 0.85888 0.0
C283 C 0.93452 0.54061 0.80434 0.0
O284 O 0.95292 0.55753 0.83035 0.0
O285 O 0.85677 0.49253 0.84243 0.0
C286 C 0.75934 0.47518 0.47938 0.0
O287 O 0.75506 0.44589 0.46991 0.0
O288 O 0.8165 0.45018 0.53306 0.0
Zn289 Zn 0.81694 0.469 0.49116 0.0
O290 O 0.80979 0.43574 0.45255 0.0
C291 C 0.87705 0.48497 0.50208 0.0
O292 O 0.87059 0.45615 0.5043 0.0
O293 O 0.78593 0.49099 0.48797 0.0
C294 C 0.8257 0.43484 0.42997 0.0
O295 O 0.84703 0.45839 0.42841 0.0
C296 C 0.81862 0.42303 0.53206 0.0
O297 O 0.81862 0.4066 0.50338 0.0
O298 O 0.85633 0.49776 0.49524 0.0
C299 C 0.66817 0.51523 0.30413 0.0
O300 O 0.63925 0.50662 0.29377 0.0
O301 O 0.63142 0.56599 0.26446 0.0
Zn302 Zn 0.65429 0.57234 0.31235 0.0
O303 O 0.63256 0.56339 0.35154 0.0
C304 C 0.68418 0.63195 0.30214 0.0
O305 O 0.66728 0.623 0.27271 0.0
O306 O 0.68025 0.54347 0.31112 0.0
C307 C 0.60972 0.57066 0.36038 0.0
O308 O 0.5954 0.58578 0.34196 0.0
C309 C 0.60415 0.56239 0.25211 0.0
O310 O 0.58417 0.56145 0.27185 0.0
O311 O 0.6823 0.61449 0.32369 0.0
Eu312 Eu 0.09024 0.06952 0.06894 0.0
C313 C 1.00125 0.95623 0.98074 0.0
N314 N 0.01415 0.98476 0.97594 0.0
C315 C 0.02426 0.96445 0.92304 0.0
C316 C 1.00088 0.93066 0.95742 0.0
C317 C 0.0238 0.98913 0.94661 0.0
C318 C 0.01341 0.9351 0.92882 0.0
C319 C 0.97257 0.9234 0.01314 0.0
C320 C 0.98719 0.95251 0.0084 0.0
C321 C 0.97306 0.89795 0.99046 0.0
C322 C 0.98735 0.90157 0.96284 0.0
Eu323 Eu 0.01181 0.02419 0.01809 0.0
N324 N 0.98776 0.97741 0.03064 0.0
C325 C 0.95753 0.92077 0.04035 0.0
C326 C 0.97208 0.97518 0.05633 0.0
C327 C 0.95694 0.94681 0.06175 0.0
H328 H 0.03037 0.01145 0.94058 0.0
H329 H 0.94496 0.94504 0.0825 0.0
H330 H 0.06994 0.08477 0.1454 0.0
H331 H 0.15127 0.14709 0.99771 0.0
H332 H 0.9714 0.99525 0.07283 0.0
H333 H 0.94595 0.89879 0.04476 0.0
H334 H 0.12799 0.09731 0.01094 0.0
H335 H 0.03258 0.96811 0.90017 0.0
H336 H 0.96216 0.87537 0.99383 0.0
H337 H 0.98731 0.88172 0.94541 0.0
H338 H 0.06826 0.12901 0.18438 0.0
H339 H 0.01382 0.91606 0.91046 0.0
H340 H 0.1507 0.19396 0.03459 0.0
N341 N 0.0874 0.1101 0.10944 0.0
C342 C 0.10056 0.13827 0.10381 0.0
C343 C 0.07689 0.13194 0.16153 0.0
C344 C 0.101 0.16439 0.12636 0.0
C345 C 0.07707 0.1067 0.13867 0.0
C346 C 0.0884 0.1609 0.1551 0.0
N347 N 0.11246 0.11578 0.05338 0.0
C348 C 0.1268 0.1176 0.02661 0.0
C349 C 0.12684 0.17009 0.06878 0.0
C350 C 0.11343 0.14117 0.07519 0.0
C351 C 0.14014 0.17214 0.0403 0.0
C352 C 0.14042 0.14577 0.01935 0.0
H353 H 0.0881 0.1804 0.17288 0.0
H354 H 0.11404 0.21343 0.13647 0.0
H355 H 0.1368 0.21838 0.08633 0.0
O356 O 0.13721 0.07455 0.06752 0.0
O357 O 0.06048 0.10082 0.05014 0.0
O358 O 0.01678 0.07481 0.01509 0.0
O359 O 0.12189 0.07508 0.11487 0.0
O360 O 0.08982 0.04901 0.01517 0.0
O361 O 0.04387 0.05017 0.98847 0.0
O362 O 0.96878 0.0303 0.02546 0.0
O363 O 0.03775 0.99225 0.04134 0.0
O364 O 0.08583 0.0176 0.06643 0.0
O365 O 0.97509 0.01253 0.97511 0.0
O366 O 0.01275 0.04177 0.07297 0.0
O367 O 0.05978 0.04461 0.09978 0.0
C368 C 0.03558 0.10067 0.03008 0.0
C369 C 0.16272 0.05396 0.10817 0.0
C370 C 0.19884 0.02638 0.09385 0.0
C371 C 0.20159 0.01824 0.12558 0.0
C372 C 0.1656 0.04596 0.14008 0.0
C373 C 0.18476 0.02785 0.14855 0.0
C374 C 0.17895 0.04345 0.08498 0.0
C375 C 0.07243 0.05226 0.98874 0.0
C376 C 0.14421 0.0744 0.09921 0.0
C377 C 0.1138 0.19316 0.11956 0.0
C378 C 0.12673 0.19599 0.09095 0.0
C379 C 0.0644 0.99206 0.05686 0.0
C380 C 0.92595 0.01888 0.98261 0.0
C381 C 0.88254 0.03555 0.99419 0.0
C382 C 0.86471 0.01381 0.96768 0.0
C383 C 0.90851 0.99734 0.95572 0.0
C384 C 0.91303 0.0384 0.00096 0.0
C385 C 0.87785 0.99498 0.94819 0.0
C386 C 0.03112 0.04048 0.09968 0.0
C387 C 0.95693 0.0198 0.99434 0.0
H388 H 0.21693 1.00483 0.13258 0.0
H389 H 0.15332 0.05389 0.1585 0.0
H390 H 0.18697 0.02172 0.17311 0.0
H391 H 0.17724 0.0495 0.06029 0.0
H392 H 0.84093 0.01165 0.96209 0.0
H393 H 0.91834 0.98195 0.94131 0.0
H394 H 0.92656 0.05547 0.02144 0.0
H395 H 0.86422 0.97823 0.92765 0.0
Eu396 Eu 0.27535 0.79919 0.33808 0.0
C397 C 0.34517 0.73907 0.21955 0.0
N398 N 0.35379 0.76582 0.24086 0.0
C399 C 0.40478 0.76313 0.24598 0.0
C400 C 0.36598 0.72261 0.21146 0.0
C401 C 0.38327 0.77871 0.25287 0.0
C402 C 0.39605 0.73473 0.22553 0.0
C403 C 0.30589 0.70198 0.18099 0.0
C404 C 0.31568 0.72893 0.20454 0.0
C405 C 0.32624 0.68486 0.17368 0.0
C406 C 0.35625 0.69515 0.18892 0.0
Eu407 Eu 0.31617 0.79045 0.25233 0.0
N408 N 0.29685 0.74629 0.21174 0.0
C409 C 0.27615 0.69354 0.16485 0.0
C410 C 0.26826 0.73902 0.19488 0.0
C411 C 0.25734 0.71236 0.17157 0.0
H412 H 0.39012 0.80099 0.26801 0.0
H413 H 0.23452 0.7065 0.15864 0.0
H414 H 0.2149 0.82369 0.3161 0.0
H415 H 0.36745 0.8491 0.44342 0.0
H416 H 0.2538 0.75376 0.19944 0.0
H417 H 0.26774 0.67301 0.14658 0.0
H418 H 0.33419 0.80784 0.40209 0.0
H419 H 0.42808 0.77313 0.2562 0.0
H420 H 0.31914 0.66399 0.15582 0.0
H421 H 0.37185 0.68206 0.18254 0.0
H422 H 0.19794 0.87059 0.3255 0.0
H423 H 0.41276 0.72279 0.21999 0.0
H424 H 0.35757 0.89985 0.45089 0.0
N425 N 0.25686 0.84242 0.34769 0.0
C426 C 0.27414 0.8661 0.37045 0.0
C427 C 0.21955 0.86976 0.33803 0.0
C428 C 0.2653 0.89333 0.37668 0.0
C429 C 0.22931 0.8433 0.3326 0.0
C430 C 0.23783 0.89507 0.35978 0.0
N431 N 0.30734 0.83555 0.38263 0.0
C432 C 0.33023 0.83011 0.40346 0.0
C433 C 0.31816 0.88668 0.41273 0.0
C434 C 0.30026 0.8627 0.38816 0.0
C435 C 0.34317 0.88195 0.43193 0.0
C436 C 0.34889 0.85337 0.42769 0.0
H437 H 0.2302 0.91556 0.36397 0.0
H438 H 0.27751 0.93886 0.40489 0.0
H439 H 0.32384 0.93309 0.43642 0.0
O440 O 0.26416 0.79145 0.38659 0.0
O441 O 0.28503 0.83844 0.31094 0.0
O442 O 0.32526 0.82513 0.29761 0.0
O443 O 0.23189 0.77132 0.34212 0.0
O444 O 0.32172 0.78847 0.34546 0.0
O445 O 0.34644 0.7849 0.29914 0.0
O446 O 0.3131 0.80661 0.20443 0.0
O447 O 0.278 0.75752 0.26494 0.0
O448 O 0.28475 0.75446 0.31971 0.0
O449 O 0.34385 0.83394 0.24741 0.0
O450 O 0.26964 0.79989 0.24365 0.0
O451 O 0.24316 0.79225 0.288 0.0
C452 C 0.30931 0.84474 0.29852 0.0
C453 C 0.23213 0.7433 0.38635 0.0
C454 C 0.24225 0.71143 0.42701 0.0
C455 C 0.21662 0.68914 0.41128 0.0
C456 C 0.20664 0.72049 0.37075 0.0
C457 C 0.19907 0.69348 0.38309 0.0
C458 C 0.25023 0.73842 0.41436 0.0
C459 C 0.34509 0.78481 0.33136 0.0
C460 C 0.2387 0.77237 0.37406 0.0
C461 C 0.28376 0.91764 0.40002 0.0
C462 C 0.31014 0.91434 0.41797 0.0
C463 C 0.28237 0.74212 0.28861 0.0
C464 C 0.35358 0.84454 0.19456 0.0
C465 C 0.35886 0.86916 0.1463 0.0
C466 C 0.38968 0.87916 0.15744 0.0
C467 C 0.38458 0.85428 0.20537 0.0
C468 C 0.34097 0.85142 0.16464 0.0
C469 C 0.40257 0.87142 0.18663 0.0
C470 C 0.24528 0.79826 0.25743 0.0
C471 C 0.3333 0.83168 0.2161 0.0
H472 H 0.21024 0.66849 0.42116 0.0
H473 H 0.19234 0.72369 0.34921 0.0
H474 H 0.17935 0.67605 0.37107 0.0
H475 H 0.27001 0.75562 0.42681 0.0
H476 H 0.40346 0.89312 0.14351 0.0
H477 H 0.39476 0.8495 0.22865 0.0
H478 H 0.317 0.84441 0.15647 0.0
H479 H 0.42639 0.87934 0.19517 0.0
Eu480 Eu 0.51531 0.04048 0.55901 0.0
C481 C 0.61373 0.10297 0.4774 0.0
N482 N 0.59281 0.07595 0.47113 0.0
C483 C 0.57962 0.08242 0.41457 0.0
C484 C 0.61759 0.12118 0.45248 0.0
C485 C 0.57672 0.06498 0.43986 0.0
C486 C 0.59987 0.11077 0.42099 0.0
C487 C 0.65458 0.1395 0.51517 0.0
C488 C 0.63217 0.11209 0.50849 0.0
C489 C 0.65779 0.15797 0.49066 0.0
C490 C 0.63938 0.14884 0.45943 0.0
Eu491 Eu 0.59014 0.04949 0.51666 0.0
N492 N 0.62873 0.09391 0.53192 0.0
C493 C 0.67353 0.14726 0.5461 0.0
C494 C 0.64803 0.10053 0.56141 0.0
C495 C 0.67048 0.1275 0.56913 0.0
H496 H 0.56185 0.04265 0.43386 0.0
H497 H 0.68543 0.133 0.59281 0.0
H498 H 0.53795 0.05362 0.64257 0.0
H499 H 0.41995 0.95682 0.48286 0.0
H500 H 0.64611 0.08512 0.57913 0.0
H501 H 0.69098 0.16813 0.55215 0.0
H502 H 0.46078 1.00392 0.4957 0.0
H503 H 0.56647 0.0738 0.39 0.0
H504 H 0.6748 0.17915 0.49542 0.0
H505 H 0.64254 0.16312 0.4406 0.0
H506 H 0.52796 0.02759 0.69029 0.0
H507 H 0.60221 0.1241 0.40122 0.0
H508 H 0.41039 0.9253 0.52644 0.0
N509 N 0.50756 0.01877 0.60692 0.0
C510 C 0.48569 0.9926 0.60159 0.0
C511 C 0.51615 0.01736 0.66545 0.0
C512 C 0.47914 0.97708 0.62813 0.0
C513 C 0.52189 0.03194 0.63843 0.0
C514 C 0.49498 0.9896 0.66023 0.0
N515 N 0.47494 0.99756 0.54471 0.0
C516 C 0.45708 0.98968 0.51427 0.0
C517 C 0.44575 0.95505 0.56382 0.0
C518 C 0.46901 0.98172 0.56972 0.0
C519 C 0.42846 0.94567 0.53194 0.0
C520 C 0.43386 0.96334 0.50721 0.0
H521 H 0.49054 0.97837 0.68125 0.0
H522 H 0.4515 0.93762 0.64206 0.0
H523 H 0.42242 0.91829 0.58582 0.0
O524 O 0.47415 0.05522 0.54318 0.0
O525 O 0.51837 0.99363 0.53174 0.0
O526 O 0.56759 1.00025 0.52284 0.0
O527 O 0.49926 0.06889 0.59436 0.0
O528 O 0.52199 0.05389 0.50999 0.0
O529 O 0.54766 0.02594 0.48259 0.0
O530 O 0.62777 0.03046 0.53379 0.0
O531 O 0.57455 0.09401 0.52717 0.0
O532 O 0.54784 0.08849 0.57083 0.0
O533 O 0.61545 0.03349 0.481 0.0
O534 O 0.59211 0.06134 0.57142 0.0
O535 O 0.55437 0.02977 0.58863 0.0
C536 C 0.54113 0.98237 0.52445 0.0
C537 C 0.45456 0.08613 0.58476 0.0
C538 C 0.4151 0.11221 0.57493 0.0
C539 C 0.4151 0.11774 0.60934 0.0
C540 C 0.45399 0.0919 0.61913 0.0
C541 C 0.43441 0.10759 0.63126 0.0
C542 C 0.43485 0.09626 0.56247 0.0
C543 C 0.52321 0.03442 0.48456 0.0
C544 C 0.47615 0.06985 0.57331 0.0
C545 C 0.45663 0.94998 0.62202 0.0
C546 C 0.44004 0.93897 0.58997 0.0
C547 C 0.56215 0.10567 0.55146 0.0
C548 C 0.65707 0.01181 0.49385 0.0
C549 C 0.6946 0.98398 0.50573 0.0
C550 C 0.69978 0.98292 0.47281 0.0
C551 C 0.66271 0.01061 0.46096 0.0
C552 C 0.67336 0.99865 0.51642 0.0
C553 C 0.68397 0.9963 0.45061 0.0
C554 C 0.5827 0.04181 0.59012 0.0
C555 C 0.63304 0.02527 0.50335 0.0
H556 H 0.4 0.12993 0.61923 0.0
H557 H 0.46871 0.08419 0.63681 0.0
H558 H 0.4342 0.1119 0.65776 0.0
H559 H 0.43495 0.092 0.5359 0.0
H560 H 0.71615 0.97173 0.46436 0.0
H561 H 0.65048 0.02051 0.44304 0.0
H562 H 0.66921 0.99921 0.54181 0.0
H563 H 0.68806 0.99541 0.42522 0.0
Eu564 Eu 0.33767 0.28566 0.79238 0.0
C565 C 0.22467 0.31761 0.70934 0.0
N566 N 0.24378 0.33482 0.73666 0.0
C567 C 0.24512 0.37937 0.71177 0.0
C568 C 0.21621 0.33066 0.68152 0.0
C569 C 0.25266 0.36558 0.73882 0.0
C570 C 0.22721 0.36179 0.68279 0.0
C571 C 0.19219 0.26891 0.6818 0.0
C572 C 0.21262 0.28699 0.70942 0.0
C573 C 0.18473 0.28167 0.65368 0.0
C574 C 0.19667 0.31245 0.65357 0.0
Eu575 Eu 0.25543 0.30812 0.78022 0.0
N576 N 0.22041 0.27493 0.73676 0.0
C577 C 0.17934 0.23866 0.68354 0.0
C578 C 0.20601 0.24631 0.73974 0.0
C579 C 0.18583 0.22748 0.71289 0.0
H580 H 0.26511 0.3798 0.76158 0.0
H581 H 0.17516 0.20445 0.71491 0.0
H582 H 0.31824 0.21012 0.79544 0.0
H583 H 0.42294 0.37585 0.87563 0.0
H584 H 0.21037 0.23806 0.76275 0.0
H585 H 0.16377 0.22403 0.66272 0.0
H586 H 0.38628 0.35282 0.82473 0.0
H587 H 0.25278 0.40365 0.7135 0.0
H588 H 0.16925 0.26806 0.63214 0.0
H589 H 0.19021 0.32209 0.63192 0.0
H590 H 0.32563 0.17654 0.83573 0.0
H591 H 0.22125 0.37261 0.66193 0.0
H592 H 0.43237 0.3452 0.91902 0.0
N593 N 0.34503 0.25017 0.82747 0.0
C594 C 0.36486 0.26153 0.85624 0.0
C595 C 0.33651 0.20046 0.84199 0.0
C596 C 0.37027 0.24281 0.8797 0.0
C597 C 0.33197 0.21981 0.81942 0.0
C598 C 0.35541 0.21207 0.87246 0.0
N599 N 0.37451 0.30952 0.83928 0.0
C600 C 0.38998 0.33915 0.84346 0.0
C601 C 0.4009 0.30431 0.89178 0.0
C602 C 0.38014 0.29194 0.86222 0.0
C603 C 0.41621 0.33489 0.89667 0.0
C604 C 0.41091 0.35229 0.87226 0.0
H605 H 0.35893 0.19699 0.88987 0.0
H606 H 0.39474 0.24119 0.9278 0.0
H607 H 0.42148 0.29501 0.93839 0.0
O608 O 0.37787 0.30003 0.77092 0.0
O609 O 0.32656 0.30679 0.84092 0.0
O610 O 0.28452 0.32616 0.83149 0.0
O611 O 0.3555 0.25254 0.76364 0.0
O612 O 0.34091 0.33376 0.7846 0.0
O613 O 0.29527 0.34696 0.77706 0.0
O614 O 0.2168 0.29325 0.80459 0.0
O615 O 0.26414 0.27533 0.73775 0.0
O616 O 0.31358 0.29477 0.74513 0.0
O617 O 0.22717 0.33817 0.79241 0.0
O618 O 0.26408 0.27187 0.80945 0.0
O619 O 0.29448 0.24832 0.78257 0.0
C620 C 0.30749 0.32168 0.85117 0.0
C621 C 0.40659 0.26553 0.75773 0.0
C622 C 0.45117 0.2679 0.7324 0.0
C623 C 0.46106 0.25039 0.75484 0.0
C624 C 0.41679 0.24826 0.78022 0.0
C625 C 0.44398 0.24075 0.77871 0.0
C626 C 0.42396 0.27557 0.73408 0.0
C627 C 0.32462 0.353 0.7789 0.0
C628 C 0.37764 0.27279 0.7575 0.0
C629 C 0.39051 0.25521 0.90943 0.0
C630 C 0.40578 0.28585 0.91544 0.0
C631 C 0.28955 0.27673 0.72712 0.0
C632 C 0.2026 0.33154 0.83874 0.0
C633 C 0.16771 0.3296 0.87811 0.0
C634 C 0.1853 0.35722 0.89649 0.0
C635 C 0.22013 0.35906 0.85776 0.0
C636 C 0.17642 0.31671 0.84921 0.0
C637 C 0.21133 0.37184 0.88633 0.0
C638 C 0.27089 0.2471 0.7971 0.0
C639 C 0.21007 0.31925 0.80681 0.0
H640 H 0.48201 0.24426 0.75387 0.0
H641 H 0.40371 0.24048 0.7987 0.0
H642 H 0.45177 0.2273 0.79597 0.0
H643 H 0.41616 0.28897 0.71666 0.0
H644 H 0.17871 0.36756 0.91862 0.0
H645 H 0.24026 0.37105 0.85017 0.0
H646 H 0.16255 0.29562 0.83463 0.0
H647 H 0.2244 0.39341 0.90037 0.0
Eu648 Eu 0.06218 1.00531 0.53673 0.0
C649 C 0.02669 0.11908 0.61467 0.0
N650 N 1.01141 0.09478 0.59128 0.0
C651 C 0.96957 0.08863 0.62004 0.0
C652 C 0.01395 0.12876 0.64212 0.0
C653 C 0.98295 0.07999 0.59315 0.0
C654 C 0.98517 0.11301 0.64474 0.0
C655 C 0.07101 0.16034 0.63442 0.0
C656 C 0.05507 0.13457 0.61097 0.0
C657 C 0.05848 0.1698 0.66193 0.0
C658 C 0.03008 0.15402 0.66581 0.0
Eu659 Eu 0.03586 0.08328 0.54639 0.0
N660 N 0.06706 0.12463 0.58448 0.0
C661 C 0.09912 0.17593 0.62951 0.0
C662 C 0.09376 0.14062 0.57869 0.0
C663 C 0.11045 0.16614 0.60141 0.0
H664 H 0.97006 0.06201 0.57362 0.0
H665 H 0.13183 0.17852 0.59696 0.0
H666 H 0.1308 0.02552 0.51679 0.0
H667 H 0.96393 0.91845 0.471 0.0
H668 H 0.10195 0.13428 0.5562 0.0
H669 H 0.11196 0.19581 0.64697 0.0
H670 H 0.99415 0.95675 0.51817 0.0
H671 H 0.94704 0.07675 0.62145 0.0
H672 H 0.07052 0.18942 0.68028 0.0
H673 H 0.02064 0.16174 0.68705 0.0
H674 H 0.15549 0.01642 0.46836 0.0
H675 H 0.97462 0.11979 0.66543 0.0
H676 H 0.98411 0.90891 0.41901 0.0
N677 N 0.08845 0.99768 0.49261 0.0
C678 C 0.07263 0.97768 0.4652 0.0
C679 C 0.13214 0.00555 0.46708 0.0
C680 C 0.08605 0.97138 0.43721 0.0
C681 C 0.11799 0.01092 0.49436 0.0
C682 C 0.11607 0.98588 0.43829 0.0
N683 N 0.03032 0.97007 0.49245 0.0
C684 C 1.00295 0.95328 0.49541 0.0
C685 C 0.02639 0.94167 0.43765 0.0
C686 C 0.04286 0.96339 0.4652 0.0
C687 C 0.99742 0.92588 0.43958 0.0
C688 C 0.98592 0.93125 0.46887 0.0
H689 H 0.12716 0.98167 0.41726 0.0
H690 H 0.0792 0.94559 0.38748 0.0
H691 H 0.02718 0.91932 0.38803 0.0
O692 O 0.04893 0.96398 0.55808 0.0
O693 O 0.05168 0.02588 0.48955 0.0
O694 O 0.01439 0.0487 0.50004 0.0
O695 O 0.09364 0.97797 0.54781 0.0
O696 O 0.01934 1.00545 0.55739 0.0
O697 O 0.99823 0.041 0.53601 0.0
O698 O 0.04449 0.11881 0.51495 0.0
O699 O 0.04936 0.06761 0.59604 0.0
O700 O 0.08059 0.03564 0.58698 0.0
O701 O 1.00238 0.10757 0.53396 0.0
O702 O 0.07883 0.08123 0.52668 0.0
O703 O 0.10017 0.04775 0.55215 0.0
C704 C 0.02874 0.03633 0.47909 0.0
C705 C 0.08664 0.94824 0.59101 0.0
C706 C 0.08246 0.91039 0.6281 0.0
C707 C 0.11068 0.92604 0.64614 0.0
C708 C 0.11464 0.96361 0.60988 0.0
C709 C 0.12651 0.9525 0.6372 0.0
C710 C 0.07033 0.92176 0.6006 0.0
C711 C 0.99602 0.01591 0.54845 0.0
C712 C 0.07513 0.95846 0.56025 0.0
C713 C 0.06927 0.95065 0.40925 0.0
C714 C 0.03959 0.93575 0.40953 0.0
C715 C 0.06817 0.05204 0.60691 0.0
C716 C 1.00724 0.14715 0.50018 0.0
C717 C 0.01402 0.1898 0.4699 0.0
C718 C 0.98437 0.19074 0.47108 0.0
C719 C 0.97762 0.14868 0.50097 0.0
C720 C 0.02547 0.16773 0.48425 0.0
C721 C 0.96632 0.17027 0.48645 0.0
C722 C 0.10236 0.0732 0.54018 0.0
C723 C 0.01851 0.12433 0.51663 0.0
H724 H 0.12036 0.91782 0.66742 0.0
H725 H 0.12758 0.98404 0.60334 0.0
H726 H 0.14818 0.9644 0.65146 0.0
H727 H 0.0486 0.90977 0.58646 0.0
H728 H 0.97521 0.20749 0.46009 0.0
H729 H 0.96306 0.13318 0.51292 0.0
H730 H 0.04836 0.16692 0.48335 0.0
H731 H 0.94349 0.17122 0.48725 0.0
Eu732 Eu 0.30324 0.8365 0.77445 0.0
C733 C 0.25438 0.72546 0.86943 0.0
N734 N 0.28251 0.74235 0.86987 0.0
C735 C 0.29313 0.74649 0.92934 0.0
C736 C 0.24399 0.72011 0.89934 0.0
C737 C 0.30252 0.75097 0.89905 0.0
C738 C 0.26355 0.73163 0.92954 0.0
C739 C 0.20814 0.69211 0.83779 0.0
C740 C 0.23665 0.71137 0.83897 0.0
C741 C 0.19706 0.68848 0.86748 0.0
C742 C 0.21494 0.70242 0.89819 0.0
Eu743 Eu 0.29385 0.75124 0.81677 0.0
N744 N 0.24791 0.71498 0.8106 0.0
C745 C 0.19197 0.67634 0.80684 0.0
C746 C 0.23301 0.69828 0.78066 0.0
C747 C 0.20473 0.67902 0.77821 0.0
H748 H 0.3255 0.76233 0.89894 0.0
H749 H 0.19287 0.66623 0.75429 0.0
H750 H 0.27867 0.82783 0.69132 0.0
H751 H 0.3987 0.92016 0.85074 0.0
H752 H 0.24304 0.70002 0.75873 0.0
H753 H 0.17004 0.66132 0.80493 0.0
H754 H 0.34965 0.88302 0.83966 0.0
H755 H 0.30871 0.75444 0.9525 0.0
H756 H 0.17506 0.67413 0.86702 0.0
H757 H 0.20644 0.69851 0.92093 0.0
H758 H 0.29939 0.84147 0.64144 0.0
H759 H 0.25638 0.72806 0.95304 0.0
H760 H 0.42471 0.93252 0.80376 0.0
N761 N 0.31909 0.84926 0.7248 0.0
C762 C 0.34665 0.86854 0.72905 0.0
C763 C 0.31303 0.84889 0.66588 0.0
C764 C 0.35915 0.87727 0.70135 0.0
C765 C 0.30147 0.84107 0.69409 0.0
C766 C 0.34223 0.86654 0.66946 0.0
N767 N 0.34845 0.8741 0.78756 0.0
C768 C 0.36092 0.88838 0.81926 0.0
C769 C 0.38956 0.90258 0.76627 0.0
C770 C 0.36161 0.8814 0.76123 0.0
C771 C 0.40322 0.91621 0.7989 0.0
C772 C 0.38863 0.90935 0.82549 0.0
H773 H 0.35107 0.87272 0.64757 0.0
H774 H 0.39766 0.90393 0.68531 0.0
H775 H 0.42434 0.92584 0.7421 0.0
O776 O 0.29718 0.87817 0.80185 0.0
O777 O 0.3484 0.8273 0.79867 0.0
O778 O 0.34212 0.77983 0.81608 0.0
O779 O 0.26635 0.85471 0.75691 0.0
O780 O 0.29862 0.81183 0.81656 0.0
O781 O 0.29991 0.79047 0.85969 0.0
O782 O 0.29524 0.70605 0.79244 0.0
O783 O 0.2492 0.76065 0.79199 0.0
O784 O 0.25472 0.80802 0.77403 0.0
O785 O 0.33391 0.73545 0.82495 0.0
O786 O 0.29507 0.77398 0.77265 0.0
O787 O 0.29943 0.79814 0.73145 0.0
C788 C 0.35956 0.80555 0.8105 0.0
C789 C 0.27294 0.90689 0.76913 0.0
C790 C 0.24856 0.94786 0.76707 0.0
C791 C 0.26522 0.95824 0.74306 0.0
C792 C 0.28972 0.91739 0.74524 0.0
C793 C 0.28581 0.94303 0.73226 0.0
C794 C 0.25248 0.9222 0.78006 0.0
C795 C 0.30121 0.81561 0.84845 0.0
C796 C 0.27407 0.87838 0.78038 0.0
C797 C 0.38757 0.89732 0.70634 0.0
C798 C 0.40274 0.90989 0.73869 0.0
C799 C 0.23783 0.78222 0.78008 0.0
C800 C 0.32809 0.68411 0.82454 0.0
C801 C 0.35657 0.64649 0.82928 0.0
C802 C 0.352 0.64642 0.86242 0.0
C803 C 0.32284 0.6831 0.85729 0.0
C804 C 0.34405 0.66501 0.81022 0.0
C805 C 0.33475 0.66428 0.87611 0.0
C806 C 0.29679 0.77227 0.74147 0.0
C807 C 0.32216 0.70865 0.80763 0.0
H808 H 0.2623 0.97808 0.73284 0.0
H809 H 0.3053 0.9055 0.7362 0.0
H810 H 0.29858 0.95097 0.71364 0.0
H811 H 0.23904 0.91384 0.79802 0.0
H812 H 0.3617 0.63242 0.87756 0.0
H813 H 0.31056 0.69766 0.86871 0.0
H814 H 0.34819 0.66577 0.78495 0.0
H815 H 0.33121 0.66409 0.9016 0.0
Eu816 Eu 0.55322 0.06898 0.00978 0.0
C817 C 0.61087 0.99947 0.11462 0.0
N818 N 0.58444 0.98855 0.09375 0.0
C819 C 0.59266 0.93863 0.08761 0.0
C820 C 0.63005 0.98064 0.12155 0.0
C821 C 0.57447 0.95823 0.08158 0.0
C822 C 0.62082 0.94997 0.10725 0.0
C823 C 0.64471 0.04115 0.15342 0.0
C824 C 0.61786 0.02906 0.1306 0.0
C825 C 0.66467 0.02302 0.15916 0.0
C826 C 0.65728 0.99275 0.14336 0.0
Eu827 Eu 0.55476 0.02292 0.08328 0.0
N828 N 0.59769 0.04557 0.1251 0.0
C829 C 0.65034 0.0708 0.17045 0.0
C830 C 0.60253 0.07409 0.14287 0.0
C831 C 0.62899 0.08723 0.16538 0.0
H832 H 0.55247 0.94912 0.06686 0.0
H833 H 0.63284 0.11002 0.17886 0.0
H834 H 0.5267 0.12993 0.03282 0.0
H835 H 0.53094 1.00248 0.88328 0.0
H836 H 0.58646 0.08726 0.13959 0.0
H837 H 0.67073 0.08095 0.1881 0.0
H838 H 0.56169 0.02758 0.93746 0.0
H839 H 0.58485 0.91476 0.07729 0.0
H840 H 0.68546 0.03194 0.17645 0.0
H841 H 0.67244 0.97872 0.14877 0.0
H842 H 0.483 0.14899 0.0166 0.0
H843 H 0.63483 0.93472 0.11208 0.0
H844 H 0.48117 0.01154 0.86744 0.0
N845 N 0.51435 0.09198 0.99331 0.0
C846 C 0.49539 0.07842 0.9646 0.0
C847 C 0.48594 0.12884 0.002 0.0
C848 C 0.47003 0.08877 0.95425 0.0
C849 C 0.51065 0.11767 0.01132 0.0
C850 C 0.46519 0.11397 0.97371 0.0
N851 N 0.52828 0.04772 0.95417 0.0
C852 C 0.53955 0.03081 0.93151 0.0
C853 C 0.48459 0.04254 0.91313 0.0
C854 C 0.50254 0.05554 0.94442 0.0
C855 C 0.49436 0.02213 0.8916 0.0
C856 C 0.52239 0.01691 0.90047 0.0
H857 H 0.4461 0.12275 0.96649 0.0
H858 H 0.43114 0.08173 0.91618 0.0
H859 H 0.44388 0.04113 0.88011 0.0
O860 O 0.59521 0.07684 0.99087 0.0
O861 O 0.50891 0.05504 0.02597 0.0
O862 O 0.51544 0.01107 0.0418 0.0
O863 O 0.57408 0.11358 0.99952 0.0
O864 O 0.55325 0.01923 0.99231 0.0
O865 O 0.55974 0.99268 0.03633 0.0
O866 O 0.53628 0.02238 0.12944 0.0
O867 O 0.58031 0.05549 0.05451 0.0
O868 O 0.5801 0.05601 0.05332 0.0
O869 O 0.51838 0.98517 0.08695 0.0
O870 O 0.54272 0.06828 0.09901 0.0
O871 O 0.55271 0.09925 0.0594 0.0
C872 C 0.49837 0.02885 0.03442 0.0
C873 C 0.60209 0.11374 0.95554 0.0
C874 C 0.62146 0.10531 0.90408 0.0
C875 C 0.61974 0.13425 0.89831 0.0
C876 C 0.6006 0.14276 0.94958 0.0
C877 C 0.6092 0.15283 0.92095 0.0
C878 C 0.61231 0.0949 0.93241 0.0
C879 C 0.55735 0.99482 0.00427 0.0
C880 C 0.59528 0.10445 0.98705 0.0
C881 C 0.45096 0.0744 0.92427 0.0
C882 C 0.45821 0.05128 0.90375 0.0
C883 C 0.60625 0.07279 0.0693 0.0
C884 C 0.49629 0.98069 0.13637 0.0
C885 C 0.47051 0.98169 0.18361 0.0
C886 C 0.45529 0.95121 0.17252 0.0
C887 C 0.48102 0.95024 0.12523 0.0
C888 C 0.49122 0.99623 0.16573 0.0
C889 C 0.46086 0.93551 0.14349 0.0
C890 C 0.54563 0.09501 0.0891 0.0
C891 C 0.51748 0.99627 0.11748 0.0
H892 H 0.62684 0.1425 0.87644 0.0
H893 H 0.59319 0.15782 0.96731 0.0
H894 H 0.60811 0.17525 0.91656 0.0
H895 H 0.61407 0.07258 0.9367 0.0
H896 H 0.43945 0.93968 0.18648 0.0
H897 H 0.48488 0.93774 0.10266 0.0
H898 H 0.50301 0.01975 0.1746 0.0
H899 H 0.44984 0.91187 0.13506 0.0
Eu900 Eu 0.27956 0.26192 0.26905 0.0
C901 C 0.38621 0.35477 0.36225 0.0
N902 N 0.35817 0.34137 0.36689 0.0
C903 C 0.37655 0.34137 0.42424 0.0
C904 C 0.41051 0.36181 0.38872 0.0
C905 C 0.35304 0.33516 0.3975 0.0
C906 C 0.40538 0.35475 0.41985 0.0
C907 C 0.41974 0.37483 0.32544 0.0
C908 C 0.39081 0.3615 0.33088 0.0
C909 C 0.44373 0.3824 0.35201 0.0
C910 C 0.43911 0.37587 0.38347 0.0
Eu911 Eu 0.32025 0.33899 0.32182 0.0
N912 N 0.3672 0.35405 0.30544 0.0
C913 C 0.42379 0.37989 0.29332 0.0
C914 C 0.37121 0.35822 0.27402 0.0
C915 C 0.39945 0.37115 0.26741 0.0
H916 H 0.33077 0.32684 0.40207 0.0
H917 H 0.40239 0.37436 0.24232 0.0
H918 H 0.26887 0.25913 0.1857 0.0
H919 H 0.20361 0.2078 0.34599 0.0
H920 H 0.35288 0.35095 0.25395 0.0
H921 H 0.44567 0.39007 0.28818 0.0
H922 H 0.25163 0.2337 0.33315 0.0
H923 H 0.3723 0.33651 0.44847 0.0
H924 H 0.46603 0.39302 0.34841 0.0
H925 H 0.45789 0.38156 0.40353 0.0
H926 H 0.22771 0.24063 0.13785 0.0
H927 H 0.42342 0.35976 0.44075 0.0
H928 H 0.15867 0.19365 0.30239 0.0
N929 N 0.24128 0.24806 0.22178 0.0
C930 C 0.21378 0.23395 0.22717 0.0
C931 C 0.2234 0.23905 0.16288 0.0
C932 C 0.18978 0.2227 0.20044 0.0
C933 C 0.24653 0.24997 0.19008 0.0
C934 C 0.19481 0.22578 0.16812 0.0
N935 N 0.23398 0.23806 0.28415 0.0
C936 C 0.23217 0.22934 0.31446 0.0
C937 C 0.18216 0.21262 0.26501 0.0
C938 C 0.21004 0.2287 0.25912 0.0
C939 C 0.17968 0.20597 0.29693 0.0
C940 C 0.20494 0.21397 0.32162 0.0
H941 H 0.17704 0.21712 0.14694 0.0
H942 H 0.14329 0.19899 0.18635 0.0
H943 H 0.1364 0.19028 0.2427 0.0
O944 O 0.2938 0.22316 0.28381 0.0
O945 O 0.24428 0.28612 0.28681 0.0
O946 O 0.26866 0.33212 0.32019 0.0
O947 O 0.27585 0.22243 0.23146 0.0
O948 O 0.30065 0.2632 0.32326 0.0
O949 O 0.29522 0.30682 0.35082 0.0
O950 O 0.33325 0.38703 0.32086 0.0
O951 O 0.3503 0.30563 0.30918 0.0
O952 O 0.3274 0.27876 0.25828 0.0
O953 O 0.31981 0.37199 0.36528 0.0
O954 O 0.29887 0.34335 0.26997 0.0
O955 O 0.29432 0.29759 0.23674 0.0
C956 C 0.24356 0.31152 0.30581 0.0
C957 C 0.28946 0.17764 0.24464 0.0
C958 C 0.31046 0.13782 0.26093 0.0
C959 C 0.29683 0.119 0.23052 0.0
C960 C 0.27559 0.15918 0.21398 0.0
C961 C 0.27932 0.1298 0.20699 0.0
C962 C 0.30685 0.16687 0.26779 0.0
C963 C 0.29787 0.27937 0.35112 0.0
C964 C 0.28591 0.208 0.25346 0.0
C965 C 0.16184 0.20761 0.20652 0.0
C966 C 0.15798 0.20265 0.23867 0.0
C967 C 0.35214 0.2894 0.28052 0.0
C968 C 0.30751 0.41616 0.35148 0.0
C969 C 0.28073 0.44753 0.32366 0.0
C970 C 0.27074 0.45646 0.35319 0.0
C971 C 0.29773 0.4252 0.38121 0.0
C972 C 0.29889 0.42756 0.32289 0.0
C973 C 0.27932 0.44527 0.38197 0.0
C974 C 0.29608 0.32692 0.24043 0.0
C975 C 0.32655 0.39492 0.34995 0.0
H976 H 0.29986 0.09633 0.22509 0.0
H977 H 0.26186 0.16732 0.1957 0.0
H978 H 0.26867 0.11548 0.18343 0.0
H979 H 0.31789 0.18111 0.29141 0.0
H980 H 0.2566 0.4721 0.35394 0.0
H981 H 0.30426 0.41673 0.40369 0.0
H982 H 0.30635 0.42127 0.29976 0.0
H983 H 0.27176 0.45219 0.40487 0.0
Eu984 Eu 0.56575 0.50843 0.04321 0.0
C985 C 0.51883 0.61886 0.11108 0.0
N986 N 0.50507 0.59626 0.0851 0.0
C987 C 0.45865 0.5915 0.10521 0.0
C988 C 0.50282 0.62845 0.13545 0.0
C989 C 0.47539 0.58265 0.0817 0.0
C990 C 0.4724 0.6145 0.13218 0.0
C991 C 0.56442 0.65398 0.14174 0.0
C992 C 0.54939 0.63139 0.11427 0.0
C993 C 0.54844 0.66371 0.16586 0.0
C994 C 0.51775 0.65103 0.16271 0.0
Eu995 Eu 0.53508 0.58418 0.0462 0.0
N996 N 0.5645 0.62106 0.09094 0.0
C997 C 0.59508 0.66621 0.14411 0.0
C998 C 0.59393 0.63425 0.0921 0.0
C999 C 0.60983 0.65652 0.11897 0.0
H1000 H 0.46435 0.5654 0.06049 0.0
H1001 H 0.63333 0.66655 0.11999 0.0
H1002 H 0.63121 0.52966 0.01618 0.0
H1003 H 0.47199 0.41005 0.99544 0.0
H1004 H 0.60507 0.62841 0.07197 0.0
H1005 H 0.60744 0.68356 0.16485 0.0
H1006 H 0.50167 0.45457 0.03592 0.0
H1007 H 0.43512 0.58067 0.10242 0.0
H1008 H 0.55965 0.681 0.18714 0.0
H1009 H 0.50582 0.65862 0.18169 0.0
H1010 H 0.65367 0.51624 0.96722 0.0
H1011 H 0.45937 0.6212 0.15044 0.0
H1012 H 0.49021 0.39467 0.94357 0.0
N1013 N 0.59026 0.49636 0.99868 0.0
C1014 C 0.57482 0.4724 0.97497 0.0
C1015 C 0.63141 0.50387 0.96898 0.0
C1016 C 0.58707 0.46362 0.9468 0.0
C1017 C 0.61845 0.51166 0.99655 0.0
C1018 C 0.61559 0.47989 0.94387 0.0
N1019 N 0.53523 0.46579 0.00616 0.0
C1020 C 0.50943 0.44873 0.01297 0.0
C1021 C 0.5306 0.43103 0.95529 0.0
C1022 C 0.54665 0.4566 0.97892 0.0
C1023 C 0.5032 0.41447 0.96112 0.0
C1024 C 0.49277 0.42314 0.9903 0.0
H1025 H 0.62575 0.47386 0.92258 0.0
H1026 H 0.57964 0.43184 0.90077 0.0
H1027 H 0.53038 0.40313 0.90835 0.0
O1028 O 0.55839 0.47519 0.07716 0.0
O1029 O 0.55206 0.52206 0.99243 0.0
O1030 O 0.51631 0.54845 1.00004 0.0
O1031 O 0.6012 0.48732 0.05973 0.0
O1032 O 0.52252 0.50784 0.06256 0.0
O1033 O 0.4992 0.53985 0.03652 0.0
O1034 O 0.5472 0.62339 0.02001 0.0
O1035 O 0.54636 0.56956 0.09671 0.0
O1036 O 0.58276 0.54755 0.08591 0.0
O1037 O 0.50146 0.60615 0.02788 0.0
O1038 O 0.5784 0.58437 0.02585 0.0
O1039 O 0.60164 0.55231 0.05209 0.0
C1040 C 0.53098 0.53458 0.98062 0.0
C1041 C 0.5969 0.45054 0.0974 0.0
C1042 C 0.5899 0.40824 0.12835 0.0
C1043 C 0.621 0.41346 0.13639 0.0
C1044 C 0.6279 0.45515 0.10582 0.0
C1045 C 0.63981 0.43674 0.12519 0.0
C1046 C 0.57778 0.42687 0.10868 0.0
C1047 C 0.49849 0.51621 0.05159 0.0
C1048 C 0.58517 0.47125 0.07779 0.0
C1049 C 0.57064 0.43883 0.92265 0.0
C1050 C 0.54254 0.42252 0.92694 0.0
C1051 C 0.56736 0.55677 0.10753 0.0
C1052 C 0.50921 0.64925 0.99943 0.0
C1053 C 0.51677 0.69205 0.96939 0.0
C1054 C 0.4869 0.6927 0.96936 0.0
C1055 C 0.47937 0.65055 0.99903 0.0
C1056 C 0.52803 0.67016 0.9844 0.0
C1057 C 0.46837 0.67208 0.98408 0.0
C1058 C 0.60246 0.57567 0.03656 0.0
C1059 C 0.51981 0.62609 0.01601 0.0
H1060 H 0.63074 0.39942 0.15145 0.0
H1061 H 0.64304 0.47331 0.09776 0.0
H1062 H 0.66374 0.44058 0.13164 0.0
H1063 H 0.55379 0.42295 0.10235 0.0
H1064 H 0.47795 0.70936 0.95794 0.0
H1065 H 0.46437 0.63493 0.01043 0.0
H1066 H 0.55108 0.66957 0.98443 0.0
H1067 H 0.44538 0.67284 0.98399 0.0
Eu1068 Eu 0.8032 0.33351 0.28163 0.0
C1069 C 0.73565 0.22462 0.35762 0.0
N1070 N 0.76232 0.24579 0.36702 0.0
C1071 C 0.75305 0.25319 0.42334 0.0
C1072 C 0.71638 0.21777 0.38081 0.0
C1073 C 0.77172 0.25891 0.39982 0.0
C1074 C 0.72511 0.23291 0.41373 0.0
C1075 C 0.70199 0.18446 0.3158 0.0
C1076 C 0.72826 0.20807 0.32525 0.0
C1077 C 0.6824 0.17859 0.33856 0.0
C1078 C 0.68952 0.19524 0.3709 0.0
Eu1079 Eu 0.79036 0.25268 0.32306 0.0
N1080 N 0.7474 0.21396 0.30346 0.0
C1081 C 0.69668 0.16671 0.28407 0.0
C1082 C 0.74324 0.19599 0.27321 0.0
C1083 C 0.71766 0.17219 0.2629 0.0
H1084 H 0.79381 0.27322 0.40883 0.0
H1085 H 0.71405 0.15822 0.23863 0.0
H1086 H 0.77722 0.31291 0.19931 0.0
H1087 H 0.89787 0.42486 0.3474 0.0
H1088 H 0.75956 0.20027 0.25696 0.0
H1089 H 0.67681 0.14829 0.27599 0.0
H1090 H 0.85039 0.38619 0.34173 0.0
H1091 H 0.76051 0.26401 0.44909 0.0
H1092 H 0.66201 0.16069 0.33165 0.0
H1093 H 0.6745 0.18986 0.38842 0.0
H1094 H 0.79509 0.32185 0.14641 0.0
H1095 H 0.71094 0.22822 0.43222 0.0
H1096 H 0.92096 0.43349 0.29756 0.0
N1097 N 0.81675 0.341 0.22968 0.0
C1098 C 0.84325 0.36137 0.23107 0.0
C1099 C 0.80892 0.33291 0.17005 0.0
C1100 C 0.85415 0.36737 0.20163 0.0
C1101 C 0.79889 0.32784 0.19988 0.0
C1102 C 0.83684 0.35243 0.17093 0.0
N1103 N 0.84733 0.37241 0.28984 0.0
C1104 C 0.86049 0.38964 0.32009 0.0
C1105 C 0.88582 0.3996 0.26385 0.0
C1106 C 0.85887 0.37752 0.2619 0.0
C1107 C 0.9002 0.41638 0.29506 0.0
C1108 C 0.88728 0.4116 0.32326 0.0
H1109 H 0.84448 0.35642 0.14776 0.0
H1110 H 0.89035 0.39327 0.18128 0.0
H1111 H 0.91808 0.42132 0.2357 0.0
O1112 O 0.79629 0.3753 0.30807 0.0
O1113 O 0.84802 0.32729 0.30906 0.0
O1114 O 0.83999 0.27777 0.32114 0.0
O1115 O 0.76809 0.35229 0.26079 0.0
O1116 O 0.79274 0.30987 0.32291 0.0
O1117 O 0.81043 0.29231 0.36466 0.0
O1118 O 0.81275 0.22044 0.29989 0.0
O1119 O 0.74542 0.26601 0.30376 0.0
O1120 O 0.7535 0.30467 0.27091 0.0
O1121 O 0.79846 0.21567 0.34741 0.0
O1122 O 0.78142 0.26081 0.27073 0.0
O1123 O 0.81064 0.29473 0.24744 0.0
C1124 C 0.85822 0.30388 0.31742 0.0
C1125 C 0.77426 0.40442 0.27315 0.0
C1126 C 0.74934 0.44492 0.27012 0.0
C1127 C 0.76482 0.45418 0.24476 0.0
C1128 C 0.78986 0.41377 0.24788 0.0
C1129 C 0.78519 0.43869 0.23385 0.0
C1130 C 0.75429 0.42021 0.2844 0.0
C1131 C 0.80635 0.31611 0.35354 0.0
C1132 C 0.77474 0.37583 0.2845 0.0
C1133 C 0.8815 0.3886 0.20364 0.0
C1134 C 0.89729 0.40463 0.23464 0.0
C1135 C 0.73531 0.28424 0.28432 0.0
C1136 C 0.84098 0.19908 0.33776 0.0
C1137 C 0.87644 0.16842 0.33199 0.0
C1138 C 0.89303 0.18349 0.36306 0.0
C1139 C 0.85746 0.21366 0.36914 0.0
C1140 C 0.85055 0.17643 0.3192 0.0
C1141 C 0.88355 0.20606 0.38152 0.0
C1142 C 0.80148 0.26676 0.25173 0.0
C1143 C 0.81287 0.20587 0.32503 0.0
H1144 H 0.7611 0.47328 0.23354 0.0
H1145 H 0.80487 0.40133 0.23838 0.0
H1146 H 0.797 0.4457 0.21413 0.0
H1147 H 0.74178 0.41267 0.30348 0.0
H1148 H 0.91299 0.17733 0.37323 0.0
H1149 H 0.85002 0.23066 0.38426 0.0
H1150 H 0.83754 0.16449 0.29536 0.0
H1151 H 0.8962 0.21739 0.40567 0.0
Eu1152 Eu 0.05305 0.56939 0.51101 0.0
C1153 C 0.11659 0.50627 0.62258 0.0
N1154 N 0.09032 0.49242 0.60217 0.0
C1155 C 0.10309 0.44466 0.60022 0.0
C1156 C 0.1381 0.49016 0.63067 0.0
C1157 C 0.08262 0.46171 0.59274 0.0
C1158 C 0.13131 0.4591 0.61846 0.0
C1159 C 0.14672 0.5504 0.66128 0.0
C1160 C 0.12074 0.53584 0.63797 0.0
C1161 C 0.16932 0.53531 0.66724 0.0
C1162 C 0.16494 0.50515 0.65208 0.0
Eu1163 Eu 0.05706 0.52304 0.59003 0.0
N1164 N 0.09827 0.54959 0.63202 0.0
C1165 C 0.1485 0.57906 0.67912 0.0
C1166 C 0.0985 0.57593 0.65206 0.0
C1167 C 0.12394 0.59152 0.6751 0.0
H1168 H 0.06078 0.45038 0.57858 0.0
H1169 H 0.12449 0.61299 0.68991 0.0
H1170 H 0.02777 0.62636 0.54668 0.0
H1171 H 0.02046 0.51039 0.38189 0.0
H1172 H 0.07935 0.58529 0.64963 0.0
H1173 H 0.1681 0.59103 0.69721 0.0
H1174 H 0.05419 0.53154 0.43545 0.0
H1175 H 0.09709 0.42042 0.59183 0.0
H1176 H 0.18965 0.54627 0.68466 0.0
H1177 H 0.18195 0.49329 0.65807 0.0
H1178 H 0.98424 0.64763 0.53844 0.0
H1179 H 0.14713 0.44585 0.62426 0.0
H1180 H 0.97154 0.52277 0.37201 0.0
N1181 N 0.01256 0.59205 0.50378 0.0
C1182 C 0.99217 0.58135 0.47553 0.0
C1183 C 0.98591 0.62867 0.52078 0.0
C1184 C 0.96718 0.59338 0.46925 0.0
C1185 C 1.01037 0.61617 0.52571 0.0
C1186 C 0.96396 0.61694 0.49264 0.0
N1187 N 0.02326 0.55102 0.45751 0.0
C1188 C 0.03223 0.53498 0.43222 0.0
C1189 C 0.97818 0.5502 0.42079 0.0
C1190 C 0.99765 0.5601 0.45167 0.0
C1191 C 0.98591 0.53096 0.396 0.0
C1192 C 0.01341 0.52383 0.40152 0.0
H1193 H 0.94521 0.62695 0.48862 0.0
H1194 H 0.92755 0.59131 0.43412 0.0
H1195 H 0.93713 0.55336 0.39166 0.0
O1196 O 0.09347 0.58285 0.49027 0.0
O1197 O 0.01353 0.55306 0.535 0.0
O1198 O 0.01798 0.50726 0.54784 0.0
O1199 O 0.067 0.61474 0.49833 0.0
O1200 O 0.05298 0.51937 0.49355 0.0
O1201 O 0.06085 0.49429 0.53926 0.0
O1202 O 0.03372 0.52909 0.63223 0.0
O1203 O 0.09602 0.5604 0.58627 0.0
O1204 O 0.09116 0.55153 0.53054 0.0
O1205 O 0.0373 0.48459 0.61242 0.0
O1206 O 0.039 0.56565 0.59682 0.0
O1207 O 0.06314 0.59718 0.564 0.0
C1208 C 1.00215 0.52459 0.53565 0.0
C1209 C 0.09164 0.61585 0.45142 0.0
C1210 C 0.1097 0.60704 0.39911 0.0
C1211 C 0.09967 0.6314 0.38897 0.0
C1212 C 0.08172 0.64027 0.44107 0.0
C1213 C 0.08557 0.64783 0.40985 0.0
C1214 C 0.1053 0.59902 0.43 0.0
C1215 C 0.05906 0.49582 0.50649 0.0
C1216 C 0.08906 0.60873 0.48493 0.0
C1217 C 0.94695 0.58247 0.43929 0.0
C1218 C 0.95242 0.56088 0.41511 0.0
C1219 C 0.10718 0.56347 0.55935 0.0
C1220 C 0.99802 0.48733 0.64276 0.0
C1221 C 0.96523 0.48736 0.68368 0.0
C1222 C 0.94754 0.45912 0.66718 0.0
C1223 C 0.97962 0.45947 0.62548 0.0
C1224 C 0.99031 0.50142 0.67141 0.0
C1225 C 0.95436 0.44549 0.63772 0.0
C1226 C 0.04952 0.59301 0.58994 0.0
C1227 C 0.02717 0.50052 0.6344 0.0
H1228 H 0.10295 0.63776 0.36502 0.0
H1229 H 0.07123 0.65364 0.45718 0.0
H1230 H 0.07792 0.66668 0.402 0.0
H1231 H 0.11333 0.58019 0.43749 0.0
H1232 H 0.92885 0.44764 0.67746 0.0
H1233 H 0.98519 0.44811 0.60327 0.0
H1234 H 1.00452 0.52278 0.68507 0.0
H1235 H 0.94052 0.42375 0.62486 0.0
Eu1236 Eu 0.83632 0.7844 0.29307 0.0
C1237 C 0.73375 0.82939 0.21403 0.0
N1238 N 0.75226 0.84318 0.24312 0.0
C1239 C 0.76108 0.89068 0.22351 0.0
C1240 C 0.72925 0.84572 0.18791 0.0
C1241 C 0.76489 0.87362 0.2487 0.0
C1242 C 0.74351 0.87661 0.19282 0.0
C1243 C 0.6993 0.78427 0.18065 0.0
C1244 C 0.71886 0.7989 0.21047 0.0
C1245 C 0.69547 0.80033 0.15433 0.0
C1246 C 0.71037 0.83094 0.15795 0.0
Eu1247 Eu 0.75762 0.81211 0.28357 0.0
N1248 N 0.7233 0.78366 0.23618 0.0
C1249 C 0.68376 0.75403 0.17832 0.0
C1250 C 0.70689 0.7547 0.23468 0.0
C1251 C 0.68721 0.73937 0.20564 0.0
H1252 H 0.77795 0.88494 0.27256 0.0
H1253 H 0.6747 0.71622 0.20436 0.0
H1254 H 0.82549 0.71058 0.30168 0.0
H1255 H 0.92562 0.87958 0.36067 0.0
H1256 H 0.70872 0.74307 0.25564 0.0
H1257 H 0.66854 0.74202 0.15584 0.0
H1258 H 0.88674 0.85061 0.31299 0.0
H1259 H 0.77162 0.91469 0.22783 0.0
H1260 H 0.68067 0.78938 0.1312 0.0
H1261 H 0.7068 0.84311 0.13756 0.0
H1262 H 0.83826 0.68079 0.34452 0.0
H1263 H 0.7406 0.88991 0.17336 0.0
H1264 H 0.93727 0.85558 0.40952 0.0
N1265 N 0.8501 0.75292 0.33058 0.0
C1266 C 0.87011 0.76706 0.35837 0.0
C1267 C 0.84713 0.7051 0.34893 0.0
C1268 C 0.8785 0.75089 0.38332 0.0
C1269 C 0.83968 0.72212 0.32484 0.0
C1270 C 0.86624 0.71962 0.37858 0.0
N1271 N 0.87566 0.81195 0.33586 0.0
C1272 C 0.89142 0.84049 0.33463 0.0
C1273 C 0.90542 0.81284 0.38863 0.0
C1274 C 0.88334 0.79756 0.36109 0.0
C1275 C 0.92011 0.84303 0.38886 0.0
C1276 C 0.91353 0.8567 0.36136 0.0
H1277 H 0.87207 0.70637 0.39716 0.0
H1278 H 0.90574 0.75435 0.43137 0.0
H1279 H 0.92939 0.80867 0.43599 0.0
O1280 O 0.86967 0.79928 0.2618 0.0
O1281 O 0.83034 0.81647 0.33791 0.0
O1282 O 0.77907 0.80676 0.3351 0.0
O1283 O 0.85674 0.7523 0.26702 0.0
O1284 O 0.83155 0.82541 0.26992 0.0
O1285 O 0.80106 0.84897 0.29704 0.0
O1286 O 0.713 0.80323 0.29773 0.0
O1287 O 0.77688 0.7993 0.23659 0.0
O1288 O 0.79754 0.76175 0.25153 0.0
O1289 O 0.74 0.84893 0.30485 0.0
O1290 O 0.75204 0.7649 0.29569 0.0
O1291 O 0.79634 0.74899 0.30108 0.0
C1292 C 0.8065 0.81739 0.35166 0.0
C1293 C 0.90554 0.77063 0.25639 0.0
C1294 C 0.95038 0.77583 0.23095 0.0
C1295 C 0.96301 0.76206 0.25571 0.0
C1296 C 0.91878 0.75738 0.28131 0.0
C1297 C 0.94735 0.75311 0.28086 0.0
C1298 C 0.92163 0.78029 0.23149 0.0
C1299 C 0.82523 0.84999 0.28366 0.0
C1300 C 0.87438 0.77256 0.2547 0.0
C1301 C 0.89932 0.76631 0.41174 0.0
C1302 C 0.91277 0.79724 0.41439 0.0
C1303 C 0.78749 0.77571 0.2285 0.0
C1304 C 0.70499 0.8386 0.34184 0.0
C1305 C 0.66753 0.82954 0.37839 0.0
C1306 C 0.68377 0.85564 0.40069 0.0
C1307 C 0.72024 0.86511 0.36438 0.0
C1308 C 0.67831 0.82079 0.34901 0.0
C1309 C 0.70992 0.87326 0.3937 0.0
C1310 C 0.76744 0.74483 0.3011 0.0
C1311 C 0.7153 0.83146 0.30963 0.0
H1312 H 0.9851 0.75842 0.25563 0.0
H1313 H 0.90688 0.74988 0.30079 0.0
H1314 H 0.9573 0.74259 0.29991 0.0
H1315 H 0.91162 0.79059 0.21219 0.0
H1316 H 0.67581 0.86272 0.4233 0.0
H1317 H 0.73976 0.88016 0.35899 0.0
H1318 H 0.66559 0.80084 0.33152 0.0
H1319 H 0.72185 0.89377 0.41073 0.0
Eu1320 Eu 0.77577 0.28589 0.82542 0.0
C1321 C 0.84675 0.24103 0.71523 0.0
N1322 N 0.8568 0.267 0.73761 0.0
C1323 C 0.90607 0.25886 0.7445 0.0
C1324 C 0.86564 0.22212 0.70759 0.0
C1325 C 0.88639 0.27678 0.75118 0.0
C1326 C 0.89554 0.23112 0.72303 0.0
C1327 C 0.80688 0.2086 0.67351 0.0
C1328 C 0.81806 0.23453 0.69838 0.0
C1329 C 0.8249 0.18864 0.66706 0.0
C1330 C 0.85433 0.19546 0.68402 0.0
Eu1331 Eu 0.82167 0.29487 0.75114 0.0
N1332 N 0.80178 0.25479 0.70474 0.0
C1333 C 0.77837 0.20413 0.65508 0.0
C1334 C 0.7749 0.25167 0.68509 0.0
C1335 C 0.76253 0.22608 0.66053 0.0
H1336 H 0.89489 0.2984 0.76752 0.0
H1337 H 0.74088 0.22346 0.64566 0.0
H1338 H 0.71269 0.30876 0.80846 0.0
H1339 H 0.85445 0.31882 0.945 0.0
H1340 H 0.76269 0.26872 0.68802 0.0
H1341 H 0.76889 0.18447 0.63583 0.0
H1342 H 0.82513 0.2833 0.89574 0.0
H1343 H 0.92935 0.26652 0.75585 0.0
H1344 H 0.81665 0.16846 0.64827 0.0
H1345 H 0.86837 0.18045 0.67806 0.0
H1346 H 0.69356 0.35313 0.82456 0.0
H1347 H 0.91083 0.21732 0.71776 0.0
H1348 H 0.84426 0.36892 0.95955 0.0
N1349 N 0.75245 0.32411 0.84459 0.0
C1350 C 0.76757 0.34517 0.87126 0.0
C1351 C 0.71455 0.35132 0.83776 0.0
C1352 C 0.75751 0.37107 0.88125 0.0
C1353 C 0.72559 0.32619 0.82864 0.0
C1354 C 0.73086 0.37417 0.86379 0.0
N1355 N 0.80077 0.31428 0.87918 0.0
C1356 C 0.82113 0.30555 0.90049 0.0
C1357 C 0.80825 0.36088 0.91785 0.0
C1358 C 0.79269 0.34022 0.88898 0.0
C1359 C 0.83163 0.35361 0.93732 0.0
C1360 C 0.8375 0.32541 0.92911 0.0
H1361 H 0.72235 0.39372 0.87068 0.0
H1362 H 0.767 0.41302 0.9163 0.0
H1363 H 0.81153 0.40406 0.94851 0.0
O1364 O 0.77017 0.24466 0.84729 0.0
O1365 O 0.78639 0.33217 0.81139 0.0
O1366 O 0.83086 0.329 0.79743 0.0
O1367 O 0.73182 0.2613 0.83253 0.0
O1368 O 0.82307 0.28009 0.83864 0.0
O1369 O 0.85269 0.29047 0.79796 0.0
O1370 O 0.81391 0.32486 0.716 0.0
O1371 O 0.79028 0.26441 0.77689 0.0
O1372 O 0.78969 0.26458 0.77828 0.0
O1373 O 0.85824 0.33078 0.74324 0.0
O1374 O 0.77427 0.30249 0.73875 0.0
O1375 O 0.74428 0.28613 0.7775 0.0
C1376 C 0.81171 0.34472 0.80316 0.0
C1377 C 0.73039 0.23493 0.87814 0.0
C1378 C 0.73645 0.21992 0.9327 0.0
C1379 C 0.70582 0.2161 0.9328 0.0
C1380 C 0.69973 0.23088 0.8786 0.0
C1381 C 0.6876 0.22176 0.90593 0.0
C1382 C 0.74887 0.22986 0.90565 0.0
C1383 C 0.84876 0.28338 0.82765 0.0
C1384 C 0.74192 0.24178 0.84766 0.0
C1385 C 0.77407 0.39271 0.90858 0.0
C1386 C 0.79944 0.38763 0.92686 0.0
C1387 C 0.77827 0.23702 0.76085 0.0
C1388 C 0.85371 0.34133 0.68833 0.0
C1389 C 0.85223 0.36067 0.63626 0.0
C1390 C 0.87454 0.34659 0.62801 0.0
C1391 C 0.87579 0.32689 0.67976 0.0
C1392 C 0.84188 0.35803 0.66638 0.0
C1393 C 0.88619 0.32966 0.64971 0.0
C1394 C 0.74814 0.2961 0.74921 0.0
C1395 C 0.84197 0.33866 0.71941 0.0
H1396 H 0.69598 0.20827 0.9535 0.0
H1397 H 0.68503 0.23426 0.85751 0.0
H1398 H 0.66392 0.21847 0.90598 0.0
H1399 H 0.77251 0.23237 0.90562 0.0
H1400 H 0.88278 0.34863 0.60477 0.0
H1401 H 0.88493 0.31348 0.69613 0.0
H1402 H 0.82467 0.36904 0.6727 0.0
H1403 H 0.90327 0.31863 0.64321 0.0
Eu1404 Eu 0.77991 0.75987 0.76954 0.0
C1405 C 0.89101 0.85772 0.8514 0.0
N1406 N 0.8658 0.83801 0.856 0.0
C1407 C 0.89228 0.82739 0.90526 0.0
C1408 C 0.9182 0.86189 0.87312 0.0
C1409 C 0.86585 0.82393 0.88319 0.0
C1410 C 0.91862 0.84621 0.90005 0.0
C1411 C 0.91582 0.8936 0.81925 0.0
C1412 C 0.88973 0.87376 0.82477 0.0
C1413 C 0.94287 0.89752 0.84081 0.0
C1414 C 0.94402 0.88177 0.86763 0.0
Eu1415 Eu 0.82212 0.83888 0.82084 0.0
N1416 N 0.86322 0.86971 0.80404 0.0
C1417 C 0.91408 0.90878 0.79198 0.0
C1418 C 0.86134 0.88482 0.77768 0.0
C1419 C 0.88678 0.90425 0.77106 0.0
H1420 H 0.84552 0.81099 0.88889 0.0
H1421 H 0.88525 0.91606 0.75007 0.0
H1422 H 0.76669 0.77477 0.69043 0.0
H1423 H 0.70287 0.70371 0.84379 0.0
H1424 H 0.84022 0.8827 0.7622 0.0
H1425 H 0.93369 0.92403 0.78684 0.0
H1426 H 0.75185 0.72755 0.83091 0.0
H1427 H 0.89219 0.81602 0.92668 0.0
H1428 H 0.9631 0.9127 0.83694 0.0
H1429 H 0.96504 0.88506 0.884 0.0
H1430 H 0.72375 0.76833 0.6465 0.0
H1431 H 0.93902 0.8489 0.91734 0.0
H1432 H 0.65732 0.69737 0.80253 0.0
N1433 N 0.74065 0.75838 0.72611 0.0
C1434 C 0.71302 0.74385 0.73103 0.0
C1435 C 0.72035 0.76186 0.67035 0.0
C1436 C 0.68787 0.73874 0.70587 0.0
C1437 C 0.74469 0.76635 0.69584 0.0
C1438 C 0.6918 0.74821 0.67544 0.0
N1439 N 0.73413 0.7384 0.78513 0.0
C1440 C 0.7321 0.72674 0.81382 0.0
C1441 C 0.68125 0.71896 0.76691 0.0
C1442 C 0.70966 0.73374 0.76124 0.0
C1443 C 0.67878 0.70877 0.79728 0.0
C1444 C 0.70438 0.71246 0.82072 0.0
H1445 H 0.67303 0.74453 0.65549 0.0
H1446 H 0.64004 0.72081 0.69312 0.0
H1447 H 0.63428 0.70322 0.74602 0.0
O1448 O 0.7795 0.71376 0.77543 0.0
O1449 O 0.74835 0.7862 0.79411 0.0
O1450 O 0.77155 0.83719 0.8073 0.0
O1451 O 0.77243 0.7248 0.72591 0.0
O1452 O 0.80296 0.76036 0.82178 0.0
O1453 O 0.79849 0.80475 0.84979 0.0
O1454 O 0.83188 0.88768 0.83364 0.0
O1455 O 0.8559 0.81132 0.8035 0.0
O1456 O 0.83086 0.76767 0.76656 0.0
O1457 O 0.81814 0.86035 0.87031 0.0
O1458 O 0.80146 0.8396 0.76736 0.0
O1459 O 0.80302 0.79326 0.73998 0.0
C1460 C 0.74714 0.81463 0.80362 0.0
C1461 C 0.80044 0.68964 0.73524 0.0
C1462 C 0.83181 0.65867 0.75438 0.0
C1463 C 0.85199 0.66906 0.73355 0.0
C1464 C 0.82085 0.70081 0.71479 0.0
C1465 C 0.84628 0.68991 0.71344 0.0
C1466 C 0.80521 0.66726 0.75332 0.0
C1467 C 0.79853 0.77621 0.84874 0.0
C1468 C 0.77754 0.70461 0.7436 0.0
C1469 C 0.6596 0.72433 0.71176 0.0
C1470 C 0.65628 0.71447 0.74209 0.0
C1471 C 0.85636 0.78706 0.78203 0.0
C1472 C 0.80217 0.90512 0.86947 0.0
C1473 C 0.76888 0.93472 0.85014 0.0
C1474 C 0.75965 0.93755 0.88126 0.0
C1475 C 0.79328 0.90825 0.90079 0.0
C1476 C 0.78995 0.91861 0.84434 0.0
C1477 C 0.77191 0.92431 0.90655 0.0
C1478 C 0.80313 0.82175 0.74017 0.0
C1479 C 0.82361 0.88738 0.8626 0.0
H1480 H 0.87222 0.66138 0.7333 0.0
H1481 H 0.81777 0.71857 0.70087 0.0
H1482 H 0.86209 0.69848 0.69786 0.0
H1483 H 0.78964 0.65871 0.7693 0.0
H1484 H 0.7435 0.95043 0.88606 0.0
H1485 H 0.80258 0.89799 0.92055 0.0
H1486 H 0.79686 0.91698 0.82011 0.0
H1487 H 0.76494 0.9266 0.93065 0.0
Eu1488 Eu 0.58881 0.56555 0.5658 0.0
C1489 C 0.4965 0.45094 0.48574 0.0
N1490 N 0.51278 0.47768 0.47966 0.0
C1491 C 0.52596 0.45188 0.43153 0.0
C1492 C 0.49625 0.42335 0.46601 0.0
C1493 C 0.52582 0.47863 0.45194 0.0
C1494 C 0.51169 0.42408 0.43903 0.0
C1495 C 0.464 0.42358 0.51919 0.0
C1496 C 0.48069 0.4511 0.5124 0.0
C1497 C 0.46423 0.39611 0.49988 0.0
C1498 C 0.48054 0.39598 0.47366 0.0
Eu1499 Eu 0.50977 0.52108 0.51497 0.0
N1500 N 0.48222 0.47791 0.53216 0.0
C1501 C 0.4482 0.4244 0.54583 0.0
C1502 C 0.46676 0.47884 0.55812 0.0
C1503 C 0.44959 0.45212 0.56534 0.0
H1504 H 0.53531 0.49991 0.44485 0.0
H1505 H 0.43744 0.45291 0.58597 0.0
H1506 H 0.57634 0.57631 0.64643 0.0
H1507 H 0.64302 0.64799 0.49568 0.0
H1508 H 0.46707 0.50017 0.57288 0.0
H1509 H 0.43514 0.40372 0.55178 0.0
H1510 H 0.62214 0.59698 0.50777 0.0
H1511 H 0.53677 0.45276 0.40983 0.0
H1512 H 0.45197 0.37475 0.50515 0.0
H1513 H 0.48056 0.37454 0.45915 0.0
H1514 H 0.57691 0.61871 0.68961 0.0
H1515 H 0.51205 0.40337 0.42327 0.0
H1516 H 0.64342 0.69333 0.53576 0.0
N1517 N 0.58958 0.60416 0.61073 0.0
C1518 C 0.60083 0.63304 0.60591 0.0
C1519 C 0.58325 0.62306 0.66598 0.0
C1520 C 0.60233 0.65808 0.63054 0.0
C1521 C 0.58224 0.59893 0.64092 0.0
C1522 C 0.59289 0.65276 0.6606 0.0
N1523 N 0.6089 0.61339 0.55263 0.0
C1524 C 0.62146 0.61666 0.5248 0.0
C1525 C 0.62295 0.66733 0.57061 0.0
C1526 C 0.611 0.63777 0.57624 0.0
C1527 C 0.63402 0.67098 0.54096 0.0
C1528 C 0.63371 0.64548 0.5182 0.0
H1529 H 0.59364 0.67139 0.6801 0.0
H1530 H 0.61285 0.70708 0.64209 0.0
H1531 H 0.63207 0.71511 0.59049 0.0
O1532 O 0.63203 0.56286 0.55415 0.0
O1533 O 0.56133 0.59697 0.5429 0.0
O1534 O 0.5115 0.57244 0.52525 0.0
O1535 O 0.62716 0.57321 0.6057 0.0
O1536 O 0.58625 0.54343 0.51218 0.0
O1537 O 0.54159 0.54716 0.48563 0.0
O1538 O 0.46162 0.5126 0.50671 0.0
O1539 O 0.53948 0.48898 0.53182 0.0
O1540 O 0.57904 0.51522 0.57303 0.0
O1541 O 0.48515 0.5207 0.46575 0.0
O1542 O 0.50994 0.54112 0.56889 0.0
O1543 O 0.55656 0.54192 0.59624 0.0
C1544 C 0.53349 0.59753 0.53135 0.0
C1545 C 0.66441 0.54755 0.5936 0.0
C1546 C 0.69874 0.51852 0.57603 0.0
C1547 C 0.7065 0.51443 0.60896 0.0
C1548 C 0.67176 0.54283 0.62644 0.0
C1549 C 0.69263 0.52618 0.63397 0.0
C1550 C 0.67783 0.53504 0.56861 0.0
C1551 C 0.56997 0.54877 0.48617 0.0
C1552 C 0.64485 0.56734 0.58516 0.0
C1553 C 0.61294 0.68759 0.6243 0.0
C1554 C 0.62352 0.6922 0.59463 0.0
C1555 C 0.56188 0.48922 0.55558 0.0
C1556 C 0.4431 0.54045 0.46885 0.0
C1557 C 0.41218 0.57299 0.48677 0.0
C1558 C 0.41582 0.58759 0.45923 0.0
C1559 C 0.44638 0.55479 0.44095 0.0
C1560 C 0.42515 0.54913 0.49109 0.0
C1561 C 0.43272 0.57828 0.43621 0.0
C1562 C 0.52804 0.54002 0.59596 0.0
C1563 C 0.45977 0.51804 0.47634 0.0
H1564 H 0.72312 0.50219 0.61518 0.0
H1565 H 0.66187 0.55241 0.64631 0.0
H1566 H 0.69844 0.52282 0.65933 0.0
H1567 H 0.67268 0.53873 0.54319 0.0
H1568 H 0.40554 0.60602 0.45561 0.0
H1569 H 0.46003 0.54837 0.42329 0.0
H1570 H 0.42178 0.53802 0.51247 0.0
H1571 H 0.43558 0.58953 0.41494 0.0
Eu1572 Eu 0.01803 0.54227 0.06072 0.0
C1573 C 0.11375 0.60419 0.97634 0.0
N1574 N 0.09675 0.57514 0.9719 0.0
C1575 C 0.08597 0.57453 0.91303 0.0
C1576 C 0.11668 0.61974 0.94912 0.0
C1577 C 0.08414 0.55977 0.94057 0.0
C1578 C 0.10195 0.60474 0.91736 0.0
C1579 C 0.1488 0.64732 0.01278 0.0
C1580 C 0.12968 0.61801 0.00791 0.0
C1581 C 0.15092 0.66309 0.98588 0.0
C1582 C 0.13488 0.64938 0.95418 0.0
Eu1583 Eu 0.09454 0.55415 0.02142 0.0
N1584 N 0.12719 0.60245 0.03371 0.0
C1585 C 0.1658 0.65961 0.04441 0.0
C1586 C 0.14486 0.61348 0.064 0.0
C1587 C 0.16417 0.64241 0.06997 0.0
H1588 H 0.07288 0.53602 0.93638 0.0
H1589 H 0.17779 0.6514 0.09423 0.0
H1590 H 0.03874 0.55336 0.14448 0.0
H1591 H 0.92393 0.45995 0.98093 0.0
H1592 H 0.14401 0.60001 0.08364 0.0
H1593 H 0.1808 0.68204 0.04911 0.0
H1594 H 0.96468 0.50712 0.99589 0.0
H1595 H 0.0754 0.56244 0.88837 0.0
H1596 H 0.16538 0.6857 0.98919 0.0
H1597 H 0.13727 0.66165 0.93355 0.0
H1598 H 0.02758 0.52587 0.19089 0.0
H1599 H 0.1036 0.61595 0.89586 0.0
H1600 H 0.9135 0.4269 0.02291 0.0
N1601 N 1.00905 0.51917 0.1075 0.0
C1602 C 0.98733 0.49284 0.10098 0.0
C1603 C 0.01632 0.5162 0.1657 0.0
C1604 C 0.98014 0.47649 0.12673 0.0
C1605 C 0.02271 0.53162 0.13943 0.0
C1606 C 0.99524 0.48832 0.15927 0.0
N1607 N 0.97786 0.49934 0.04449 0.0
C1608 C 0.96065 0.49217 0.01371 0.0
C1609 C 0.9482 0.45587 0.06157 0.0
C1610 C 0.97139 0.48264 0.06869 0.0
C1611 C 0.93154 0.44727 0.02933 0.0
C1612 C 0.93746 0.4658 0.00547 0.0
H1613 H 0.99028 0.47644 0.17971 0.0
H1614 H 0.95212 0.43628 0.13882 0.0
H1615 H 0.92429 0.4182 0.08183 0.0
O1616 O 0.97693 0.55696 0.04459 0.0
O1617 O 0.02273 0.49582 0.03454 0.0
O1618 O 0.07084 0.50342 0.02124 0.0
O1619 O 1.0013 0.56984 0.09617 0.0
O1620 O 0.0259 0.55596 0.01187 0.0
O1621 O 0.05337 0.52933 0.98551 0.0
O1622 O 0.12932 0.53496 0.04474 0.0
O1623 O 0.07719 0.59743 0.03235 0.0
O1624 O 0.05008 0.59038 0.07523 0.0
O1625 O 0.13108 0.54782 0.99612 0.0
O1626 O 0.09384 0.56401 0.07592 0.0
O1627 O 0.05622 0.5304 0.09044 0.0
C1628 C 0.04519 0.48513 0.0251 0.0
C1629 C 0.95668 0.58716 0.08617 0.0
C1630 C 0.91664 0.61241 0.07598 0.0
C1631 C 0.91715 0.61884 0.11043 0.0
C1632 C 0.95662 0.59382 0.12059 0.0
C1633 C 0.937 0.60954 0.13255 0.0
C1634 C 0.93639 0.59638 0.06368 0.0
C1635 C 0.02827 0.5368 0.98663 0.0
C1636 C 0.97842 0.57102 0.0749 0.0
C1637 C 0.95774 0.44926 0.11939 0.0
C1638 C 0.94187 0.43896 0.08692 0.0
C1639 C 0.06404 0.60823 0.05628 0.0
C1640 C 0.14849 0.50545 0.00571 0.0
C1641 C 0.17924 0.46978 0.00914 0.0
C1642 C 0.16177 0.45156 0.97995 0.0
C1643 C 0.1315 0.48736 0.97609 0.0
C1644 C 0.17244 0.49661 0.0222 0.0
C1645 C 0.13798 0.46039 0.96349 0.0
C1646 C 0.08455 0.54277 0.0928 0.0
C1647 C 0.14232 0.53424 0.01854 0.0
H1648 H 0.90206 0.63112 0.12019 0.0
H1649 H 0.9718 0.58684 0.13846 0.0
H1650 H 0.9372 0.61456 0.15909 0.0
H1651 H 0.93609 0.59145 0.03708 0.0
H1652 H 0.16706 0.43092 0.96952 0.0
H1653 H 0.11363 0.49441 0.96234 0.0
H1654 H 0.18622 0.51088 0.04452 0.0
H1655 H 0.12495 0.44667 0.94056 0.0
C1656 C 0.03441 0.1868 0.04242 0.0
C1657 C 0.02055 0.19125 0.0109 0.0
C1658 C 0.01841 0.13666 0.99015 0.0
C1659 C 0.02934 0.13158 0.02291 0.0
N1660 N 0.03792 0.15203 0.08138 0.0
N1661 N 0.99501 0.16724 0.95583 0.0
C1662 C 0.0348 0.15685 0.04922 0.0
C1663 C 1.01155 0.16527 0.98506 0.0
N1664 N 0.04812 0.21151 0.0662 0.0
N1665 N 0.01512 0.11455 0.96327 0.0
H1666 H 0.98984 0.18725 0.95096 0.0
H1667 H 0.98434 0.14854 0.93757 0.0
H1668 H 0.01922 0.09351 0.96502 0.0
H1669 H 1.01107 0.11807 0.93875 0.0
H1670 H 0.06086 0.21007 0.08847 0.0
H1671 H 0.04958 0.23362 0.06201 0.0
H1672 H 0.03875 0.16875 0.10151 0.0
H1673 H 0.03585 0.13051 0.08759 0.0
C1674 C 0.1928 0.83224 0.20203 0.0
C1675 C 0.17007 0.80613 0.18636 0.0
C1676 C 0.19535 0.77508 0.21906 0.0
C1677 C 0.21776 0.80116 0.23541 0.0
N1678 N 0.23145 0.85552 0.24996 0.0
N1679 N 0.14414 0.75581 0.19116 0.0
C1680 C 0.21456 0.83008 0.22916 0.0
C1681 C 0.16973 0.77843 0.19822 0.0
N1682 N 0.19434 0.85889 0.19045 0.0
N1683 N 0.19871 0.74693 0.22254 0.0
H1684 H 0.12427 0.75901 0.17915 0.0
H1685 H 0.14172 0.7359 0.20116 0.0
H1686 H 0.21718 0.74359 0.2373 0.0
H1687 H 0.18453 0.72713 0.20842 0.0
H1688 H 0.2123 0.87779 0.19843 0.0
H1689 H 0.17858 0.86137 0.17122 0.0
H1690 H 0.22839 0.87707 0.24864 0.0
H1691 H 0.24646 0.85455 0.27067 0.0
C1692 C 0.51295 0.89423 0.52237 0.0
C1693 C 0.52636 0.88145 0.49662 0.0
C1694 C 0.54848 0.93421 0.4882 0.0
C1695 C 0.5366 0.9474 0.51535 0.0
N1696 N 0.51523 0.93785 0.56431 0.0
N1697 N 0.56459 0.89115 0.46291 0.0
C1698 C 0.52091 0.92672 0.53406 0.0
C1699 C 0.54644 0.90214 0.48211 0.0
N1700 N 0.49195 0.87556 0.53531 0.0
N1701 N 0.56052 0.95172 0.46664 0.0
H1702 H 0.56479 0.86835 0.45931 0.0
H1703 H 0.58184 0.90501 0.45422 0.0
H1704 H 0.56202 0.97476 0.46859 0.0
H1705 H 0.56609 0.94268 0.44442 0.0
H1706 H 0.47888 0.88358 0.55132 0.0
H1707 H 0.48629 0.85209 0.52812 0.0
H1708 H 0.50605 0.92413 0.58043 0.0
H1709 H 0.52323 0.96063 0.57495 0.0
C1710 C 0.51153 0.31357 0.69201 0.0
C1711 C 0.50828 0.29377 0.66136 0.0
C1712 C 0.46396 0.26037 0.67489 0.0
C1713 C 0.46949 0.27811 0.70712 0.0
N1714 N 0.49891 0.32088 0.74749 0.0
N1715 N 0.48391 0.24615 0.62537 0.0
C1716 C 0.49336 0.30459 0.71597 0.0
C1717 C 0.48496 0.26672 0.65307 0.0
N1718 N 0.53125 0.34143 0.69765 0.0
N1719 N 0.43854 0.23749 0.66508 0.0
H1720 H 0.49926 0.24942 0.60913 0.0
H1721 H 0.46949 0.22459 0.61998 0.0
H1722 H 0.42308 0.23157 0.68071 0.0
H1723 H 0.4315 0.22604 0.64066 0.0
H1724 H 0.53262 0.35818 0.7179 0.0
H1725 H 0.54462 0.34891 0.6805 0.0
H1726 H 0.518 0.33822 0.75693 0.0
H1727 H 0.48512 0.31596 0.76507 0.0
C1728 C 0.04487 0.86086 0.6853 0.0
C1729 C 0.05206 0.83327 0.67416 0.0
C1730 C 0.06759 0.85362 0.62496 0.0
C1731 C 0.06604 0.88278 0.63972 0.0
N1732 N 0.05166 0.91432 0.6829 0.0
N1733 N 0.0703 0.80295 0.63307 0.0
C1734 C 0.05379 0.8863 0.66937 0.0
C1735 C 0.06274 0.82922 0.64343 0.0
N1736 N 0.02892 0.86245 0.71078 0.0
N1737 N 0.07412 0.84942 0.59351 0.0
H1738 H 0.06738 0.78476 0.64594 0.0
H1739 H 0.08128 0.79979 0.61294 0.0
H1740 H 0.07843 0.86698 0.57983 0.0
H1741 H 0.07263 0.82823 0.57986 0.0
H1742 H 0.02056 0.8809 0.71827 0.0
H1743 H 0.02156 0.844 0.72244 0.0
H1744 H 0.04712 0.91959 0.7068 0.0
H1745 H 0.05557 0.93274 0.6704 0.0
C1746 C 0.43985 0.79697 0.84641 0.0
C1747 C 0.45998 0.81844 0.83281 0.0
C1748 C 0.41454 0.82705 0.79957 0.0
C1749 C 0.39446 0.80996 0.81804 0.0
N1750 N 0.39272 0.78345 0.86556 0.0
N1751 N 0.46474 0.85721 0.79869 0.0
C1752 C 0.40847 0.79613 0.84307 0.0
C1753 C 0.44675 0.83439 0.81003 0.0
N1754 N 0.45066 0.77651 0.86236 0.0
N1755 N 0.40335 0.83472 0.77047 0.0
H1756 H 0.48793 0.86258 0.80496 0.0
H1757 H 0.45645 0.87205 0.78524 0.0
H1758 H 0.38093 0.82752 0.75983 0.0
H1759 H 0.41682 0.84479 0.7547 0.0
H1760 H 0.43688 0.75819 0.86968 0.0
H1761 H 0.47298 0.77576 0.86458 0.0
H1762 H 0.40277 0.77637 0.88624 0.0
H1763 H 0.3706 0.78304 0.86642 0.0
C1764 C 0.52794 0.14705 0.16468 0.0
C1765 C 0.53674 0.1762 0.1558 0.0
C1766 C 0.55467 0.15271 0.10795 0.0
C1767 C 0.54219 0.12264 0.11316 0.0
N1768 N 0.50973 0.09319 0.1454 0.0
N1769 N 0.54949 0.20401 0.11188 0.0
C1770 C 0.52669 0.12031 0.14121 0.0
C1771 C 0.54661 0.1779 0.12483 0.0
N1772 N 0.52181 0.14463 0.1959 0.0
N1773 N 0.57747 0.15818 0.09047 0.0
H1774 H 0.54326 0.22277 0.12321 0.0
H1775 H 0.55482 0.20549 0.08818 0.0
H1776 H 0.58972 0.14233 0.08668 0.0
H1777 H 0.58802 0.17979 0.08688 0.0
H1778 H 0.51887 0.12432 0.20515 0.0
H1779 H 0.52211 0.16332 0.21343 0.0
H1780 H 0.49617 0.09111 0.16359 0.0
H1781 H 0.50612 0.07339 0.12865 0.0
C1782 C 0.17443 0.31046 0.35187 0.0
C1783 C 0.15362 0.32031 0.32977 0.0
C1784 C 0.19334 0.32819 0.29328 0.0
C1785 C 0.21265 0.31544 0.31407 0.0
N1786 N 0.21654 0.28796 0.35945 0.0
N1787 N 0.14351 0.33628 0.27709 0.0
C1788 C 0.20167 0.30491 0.34229 0.0
C1789 C 0.16336 0.32879 0.29991 0.0
N1790 N 0.16876 0.30735 0.38316 0.0
N1791 N 0.20364 0.33965 0.26688 0.0
H1792 H 0.1223 0.33746 0.28146 0.0
H1793 H 0.14726 0.33967 0.25333 0.0
H1794 H 0.22466 0.33904 0.26127 0.0
H1795 H 0.19229 0.35113 0.25166 0.0
H1796 H 0.18414 0.30325 0.40168 0.0
H1797 H 0.15016 0.31238 0.39184 0.0
H1798 H 0.20793 0.27606 0.37732 0.0
H1799 H 0.2361 0.28334 0.35333 0.0
C1800 C 0.01411 0.01156 0.18089 0.0
C1801 C 0.99764 0.0314 0.19343 0.0
C1802 C 1.00168 0.05656 0.1441 0.0
C1803 C 0.01993 0.0377 0.13242 0.0
N1804 N 0.05024 1.00308 0.14662 0.0
N1805 N 0.9782 0.07506 0.18945 0.0
C1806 C 0.02811 0.01693 0.15276 0.0
C1807 C 0.99182 0.05434 0.1755 0.0
N1808 N 0.01575 0.98679 0.1954 0.0
N1809 N 0.99483 0.07764 0.126 0.0
H1810 H 0.97019 0.07372 0.21186 0.0
H1811 H 0.97631 0.09459 0.18012 0.0
H1812 H 1.00559 0.08414 0.10654 0.0
H1813 H 0.97819 0.08867 0.13002 0.0
H1814 H 0.02422 0.96934 0.1849 0.0
H1815 H 1.00586 0.98212 0.21608 0.0
H1816 H 0.05951 0.99125 0.16336 0.0
H1817 H 0.06121 1.00485 0.12638 0.0
C1818 C 0.2891 0.67317 0.48065 0.0
C1819 C 0.27749 0.67799 0.51045 0.0
C1820 C 0.25371 0.71528 0.48879 0.0
C1821 C 0.26012 0.7057 0.45696 0.0
N1822 N 0.28616 0.67827 0.42228 0.0
N1823 N 0.25027 0.70455 0.54453 0.0
C1824 C 0.27901 0.68584 0.45295 0.0
C1825 C 0.26085 0.69992 0.51534 0.0
N1826 N 0.30969 0.65642 0.47916 0.0
N1827 N 0.24038 0.73868 0.49332 0.0
H1828 H 0.25614 0.69455 0.56484 0.0
H1829 H 0.23482 0.71721 0.54828 0.0
H1830 H 0.23449 0.74996 0.47409 0.0
H1831 H 0.23747 0.74865 0.51651 0.0
H1832 H 0.32061 0.65332 0.45898 0.0
H1833 H 0.31785 0.64776 0.49968 0.0
H1834 H 0.29693 0.66132 0.41644 0.0
H1835 H 0.2804 0.6886 0.40212 0.0
C1836 C 0.63637 0.01657 0.65012 0.0
C1837 C 0.6432 0.04131 0.67666 0.0
C1838 C 0.61002 0.06636 0.64656 0.0
C1839 C 0.60269 0.04123 0.6203 0.0
N1840 N 0.60439 0.99049 0.5984 0.0
N1841 N 0.64091 0.09175 0.69911 0.0
C1842 C 0.61466 0.01579 0.62235 0.0
C1843 C 0.63129 0.06683 0.6746 0.0
N1844 N 0.65178 0.99464 0.65085 0.0
N1845 N 0.59533 0.08883 0.64543 0.0
H1846 H 0.65563 0.09245 0.7206 0.0
H1847 H 0.63605 0.11251 0.69747 0.0
H1848 H 0.57908 0.08888 0.62553 0.0
H1849 H 0.59719 0.10627 0.66508 0.0
H1850 H 0.6505 0.97792 0.63061 0.0
H1851 H 0.66795 0.99455 0.67093 0.0
H1852 H 0.60986 0.97001 0.6001 0.0
H1853 H 0.58827 0.98905 0.57782 0.0
C1854 C 0.32892 0.33407 0.94756 0.0
C1855 C 0.31816 0.35989 0.95682 0.0
C1856 C 0.30507 0.36268 0.89791 0.0
C1857 C 0.31209 0.33473 0.88794 0.0
N1858 N 0.32363 0.28993 0.90597 0.0
N1859 N 0.28672 0.39175 0.93995 0.0
C1860 C 0.32209 0.31923 0.91351 0.0
C1861 C 0.30314 0.3718 0.93165 0.0
N1862 N 0.3464 0.32418 0.97075 0.0
N1863 N 0.30246 0.38182 0.8758 0.0
H1864 H 0.2825 0.39639 0.96412 0.0
H1865 H 0.27451 0.40045 0.9223 0.0
H1866 H 0.30826 0.37786 0.85243 0.0
H1867 H 0.29923 0.40336 0.88241 0.0
H1868 H 0.35758 0.3076 0.96447 0.0
H1869 H 0.35167 0.33426 0.99577 0.0
H1870 H 0.32845 0.27711 0.92409 0.0
H1871 H 0.3168 0.27728 0.88216 0.0
C1872 C 0.02416 0.04387 0.38655 0.0
C1873 C 0.99662 0.0228 0.37247 0.0
C1874 C 0.98993 0.01101 0.42801 0.0
C1875 C 0.01732 0.03229 0.44239 0.0
N1876 N 0.05535 0.07546 0.43654 0.0
N1877 N 0.94928 0.99371 0.3812 0.0
C1878 C 0.03305 0.05058 0.42197 0.0
C1879 C 0.97837 0.00844 0.39363 0.0
N1880 N 0.04207 0.05706 0.36611 0.0
N1881 N 0.97498 0.9929 0.44714 0.0
H1882 H 0.93953 0.99312 0.3567 0.0
H1883 H 0.9339 0.98513 0.39586 0.0
H1884 H 0.98193 0.99526 0.47263 0.0
H1885 H 0.95694 0.97442 0.43751 0.0
H1886 H 0.0638 0.07012 0.37458 0.0
H1887 H 0.03584 0.05324 0.34026 0.0
H1888 H 0.06593 0.09136 0.42337 0.0
H1889 H 0.06102 0.08192 0.46231 0.0
C1890 C 0.32261 0.7142 0.6865 0.0
C1891 C 0.29536 0.69164 0.67659 0.0
C1892 C 0.26963 0.7225 0.70781 0.0
C1893 C 0.29676 0.74452 0.71968 0.0
N1894 N 0.35039 0.75937 0.72529 0.0
N1895 N 0.24611 0.67041 0.68718 0.0
C1896 C 0.32382 0.73967 0.71079 0.0
C1897 C 0.27017 0.69442 0.69086 0.0
N1898 N 0.34655 0.71229 0.67129 0.0
N1899 N 0.24263 0.72792 0.71076 0.0
H1900 H 0.24744 0.64861 0.67845 0.0
H1901 H 0.22676 0.67203 0.69666 0.0
H1902 H 0.23984 0.74875 0.72114 0.0
H1903 H 0.23984 0.74875 0.72114 0.0
H1904 H 0.36568 0.72994 0.67449 0.0
H1905 H 0.34666 0.69349 0.65412 0.0
H1906 H 0.37101 0.75552 0.72202 0.0
H1907 H 0.35172 0.77851 0.74261 0.0
C1908 C 0.67846 0.08046 0.85845 0.0
C1909 C 0.66009 0.06614 0.82754 0.0
C1910 C 0.61524 0.07002 0.85054 0.0
C1911 C 0.63378 0.08651 0.88046 0.0
N1912 N 0.68125 0.09973 0.91699 0.0
N1913 N 0.6118 0.04034 0.79595 0.0
C1914 C 0.66484 0.08891 0.88584 0.0
C1915 C 0.62861 0.05848 0.82429 0.0
N1916 N 0.70883 0.0881 0.86088 0.0
N1917 N 0.58507 0.06652 0.84704 0.0
H1918 H 0.62139 0.03141 0.77668 0.0
H1919 H 0.58875 0.03217 0.79242 0.0
H1920 H 0.57468 0.07337 0.86663 0.0
H1921 H 0.57035 0.05762 0.82479 0.0
H1922 H 0.72329 0.10195 0.8814 0.0
H1923 H 0.71978 0.08195 0.84158 0.0
H1924 H 0.7034 0.09916 0.92332 0.0
H1925 H 0.67198 0.10686 0.93741 0.0
C1926 C 0.32904 0.37498 0.17845 0.0
C1927 C 0.31426 0.35569 0.14803 0.0
C1928 C 0.27947 0.32687 0.17917 0.0
C1929 C 0.29771 0.342 0.20963 0.0
N1930 N 0.32737 0.39173 0.23637 0.0
N1931 N 0.27407 0.31335 0.11932 0.0
C1932 C 0.31885 0.36957 0.20894 0.0
C1933 C 0.28897 0.33176 0.14834 0.0
N1934 N 0.35385 0.39754 0.17863 0.0
N1935 N 0.25115 0.31117 0.17982 0.0
H1936 H 0.27885 0.31718 0.09595 0.0
H1937 H 0.25795 0.29337 0.11878 0.0
H1938 H 0.24309 0.3097 0.20225 0.0
H1939 H 0.23503 0.30287 0.15847 0.0
H1940 H 0.36773 0.40981 0.20044 0.0
H1941 H 0.36204 0.40236 0.15703 0.0
H1942 H 0.34048 0.41332 0.23638 0.0
H1943 H 0.31808 0.39006 0.25779 0.0
C1944 C 0.2344 0.97846 0.03819 0.0
C1945 C 0.25682 1.00136 0.02983 0.0
C1946 C 0.23973 0.04082 0.06101 0.0
C1947 C 0.21749 0.01797 0.06986 0.0
N1948 N 0.18789 0.96631 0.05922 0.0
N1949 N 0.27524 0.05319 0.02386 0.0
C1950 C 0.21288 0.98714 0.05584 0.0
C1951 C 0.2575 0.03224 0.03804 0.0
N1952 N 0.23472 0.94865 0.03119 0.0
N1953 N 0.24511 0.07035 0.07599 0.0
H1954 H 0.28839 0.04714 0.00674 0.0
H1955 H 0.27462 0.07584 0.02639 0.0
H1956 H 0.23331 0.07764 0.09392 0.0
H1957 H 0.263 0.08732 0.07281 0.0
H1958 H 0.22122 0.93152 0.04053 0.0
H1959 H 0.24982 0.94103 0.01787 0.0
H1960 H 0.18193 0.94406 0.04664 0.0
H1961 H 0.17169 0.97196 0.07224 0.0
C1962 C 0.6837 0.62215 0.05533 0.0
C1963 C 0.68548 0.63552 0.02635 0.0
C1964 C 0.63625 0.60278 0.00109 0.0
C1965 C 0.63206 0.59433 0.03253 0.0
N1966 N 0.65137 0.60046 0.09154 0.0
N1967 N 0.66296 0.63963 0.97153 0.0
C1968 C 0.65578 0.60488 0.06017 0.0
C1969 C 0.66167 0.62601 0.99904 0.0
N1970 N 0.70889 0.62554 0.07801 0.0
N1971 N 0.61666 0.5877 0.97304 0.0
H1972 H 0.68167 0.65601 0.9689 0.0
H1973 H 0.64484 0.63604 0.95243 0.0
H1974 H 0.59913 0.56915 0.97348 0.0
H1975 H 0.61976 0.59128 0.94911 0.0
H1976 H 0.70936 0.6142 0.09832 0.0
H1977 H 0.72992 0.6367 0.07409 0.0
H1978 H 0.66721 0.61051 0.11275 0.0
H1979 H 0.63088 0.58992 0.09711 0.0
C1980 C 0.71798 0.50343 0.31771 0.0
C1981 C 0.68734 0.4932 0.3033 0.0
C1982 C 0.6968 0.44821 0.27212 0.0
C1983 C 0.72789 0.46108 0.28224 0.0
N1984 N 0.76872 0.50025 0.31524 0.0
N1985 N 0.6473 0.44815 0.28336 0.0
C1986 C 0.73868 0.48838 0.30547 0.0
C1987 C 0.67641 0.46325 0.28524 0.0
N1988 N 0.72672 0.52579 0.34507 0.0
N1989 N 0.68677 0.42218 0.24915 0.0
H1990 H 0.63311 0.45643 0.29756 0.0
H1991 H 0.63857 0.42555 0.2724 0.0
H1992 H 0.701 0.41022 0.23932 0.0
H1993 H 0.66453 0.41371 0.2379 0.0
H1994 H 0.74834 0.53286 0.35846 0.0
H1995 H 0.71139 0.53438 0.35716 0.0
H1996 H 0.77806 0.52199 0.32859 0.0
H1997 H 0.78459 0.48905 0.30832 0.0
C1998 C 0.92106 0.51162 0.54418 0.0
C1999 C 0.90812 0.50211 0.51027 0.0
C2000 C 0.95641 0.50422 0.49395 0.0
C2001 C 0.96975 0.51364 0.52777 0.0
N2002 N 0.96582 0.52426 0.58583 0.0
N2003 N 0.91296 0.49973 0.45274 0.0
C2004 C 0.95237 0.51699 0.55322 0.0
C2005 C 0.92567 0.50154 0.48504 0.0
N2006 N 0.90325 0.51638 0.56717 0.0
N2007 N 0.97283 0.49628 0.47071 0.0
H2008 H 0.89098 0.501 0.44656 0.0
H2009 H 0.92496 0.50109 0.43315 0.0
H2010 H 0.99528 0.49665 0.47691 0.0
H2011 H 0.96358 0.48655 0.4461 0.0
H2012 H 0.91083 0.52422 0.59247 0.0
H2013 H 0.88046 0.51428 0.56027 0.0
H2014 H 0.95468 0.52521 0.60606 0.0
H2015 H 0.98869 0.52807 0.59283 0.0
C2016 C 0.33869 0.11534 0.34149 0.0
C2017 C 0.36705 0.11288 0.33558 0.0
C2018 C 0.36024 0.13213 0.28354 0.0
C2019 C 0.32977 0.12851 0.28621 0.0
N2020 N 0.28941 0.11832 0.31764 0.0
N2021 N 0.40645 0.11979 0.30293 0.0
C2022 C 0.31884 0.12103 0.31546 0.0
C2023 C 0.37868 0.12243 0.30762 0.0
N2024 N 0.33081 0.11104 0.37167 0.0
N2025 N 0.37149 0.14507 0.2583 0.0
H2026 H 0.42094 0.11385 0.32097 0.0
H2027 H 0.41468 0.12235 0.28087 0.0
H2028 H 0.35838 0.15177 0.23956 0.0
H2029 H 0.39416 0.15119 0.25719 0.0
H2030 H 0.31106 0.11423 0.37885 0.0
H2031 H 0.34565 0.10668 0.39066 0.0
H2032 H 0.27957 0.11057 0.33717 0.0
H2033 H 0.27415 0.12209 0.29873 0.0
C2034 C 0.34093 0.12396 0.54352 0.0
C2035 C 0.34919 0.15406 0.53677 0.0
C2036 C 0.4019 0.15291 0.54543 0.0
C2037 C 0.39355 0.12337 0.55306 0.0
N2038 N 0.35574 0.07722 0.5482 0.0
N2039 N 0.38609 0.19261 0.52023 0.0
C2040 C 0.36316 0.10763 0.54787 0.0
C2041 C 0.37928 0.16704 0.53407 0.0
N2042 N 0.31272 0.1118 0.54881 0.0
N2043 N 0.43134 0.16799 0.55065 0.0
H2044 H 0.36982 0.2028 0.51054 0.0
H2045 H 0.40724 0.20177 0.51516 0.0
H2046 H 0.44842 0.15774 0.55758 0.0
H2047 H 0.43868 0.19095 0.5497 0.0
H2048 H 0.30672 0.09133 0.55739 0.0
H2049 H 0.29583 0.12311 0.54774 0.0
H2050 H 0.33396 0.0638 0.54164 0.0
H2051 H 0.37189 0.06503 0.55164 0.0
C2052 C 0.70648 0.68686 0.32657 0.0
C2053 C 0.7087 0.65973 0.30754 0.0
C2054 C 0.75182 0.68737 0.28678 0.0
C2055 C 0.7501 0.7148 0.30626 0.0
N2056 N 0.73155 0.73854 0.35222 0.0
N2057 N 0.73844 0.63254 0.27823 0.0
C2058 C 0.72918 0.71386 0.32855 0.0
C2059 C 0.73309 0.6595 0.2906 0.0
N2060 N 0.68225 0.68706 0.3418 0.0
N2061 N 0.76952 0.68772 0.26284 0.0
H2062 H 0.72506 0.61167 0.2806 0.0
H2063 H 0.75776 0.63097 0.26881 0.0
H2064 H 0.78353 0.70716 0.25825 0.0
H2065 H 0.76839 0.66876 0.24529 0.0
H2066 H 0.67758 0.70685 0.35265 0.0
H2067 H 0.66574 0.66745 0.3417 0.0
H2068 H 0.71841 0.73846 0.37081 0.0
H2069 H 0.74889 0.75805 0.35553 0.0
C2070 C 0.82534 0.42577 0.78954 0.0
C2071 C 0.84239 0.44033 0.82082 0.0
C2072 C 0.8393 0.39247 0.8404 0.0
C2073 C 0.82168 0.37764 0.80936 0.0
N2074 N 0.7955 0.37945 0.75519 0.0
N2075 N 0.8591 0.43954 0.87879 0.0
C2076 C 0.81374 0.39412 0.78422 0.0
C2077 C 0.84708 0.42434 0.84727 0.0
N2078 N 0.82104 0.44234 0.76483 0.0
N2079 N 0.85005 0.37622 0.8625 0.0
H2080 H 0.8652 0.46307 0.8848 0.0
H2081 H 0.86027 0.4289 0.8996 0.0
H2082 H 0.84491 0.35266 0.85842 0.0
H2083 H 0.86603 0.38604 0.88363 0.0
H2084 H 0.81233 0.43302 0.74003 0.0
H2085 H 0.82714 0.46598 0.76903 0.0
H2086 H 0.78647 0.39011 0.73708 0.0
H2087 H 0.78786 0.35615 0.74994 0.0
C2088 C 0.09903 0.92105 0.05912 0.0
C2089 C 0.08335 0.90449 0.08127 0.0
C2090 C 0.05236 0.94242 0.08335 0.0
C2091 C 0.07035 0.96116 0.06448 0.0
N2092 N 0.1105 0.9663 0.03296 0.0
N2093 N 0.04616 0.90179 0.11655 0.0
C2094 C 0.0936 0.94974 0.05205 0.0
C2095 C 0.06006 0.91572 0.09347 0.0
N2096 N 0.11865 0.90855 0.04379 0.0
N2097 N 0.02752 0.95002 0.09191 0.0
H2098 H 0.05013 0.8819 0.12351 0.0
H2099 H 0.03218 0.91083 0.1304 0.0
H2100 H 0.02262 0.97034 0.08832 0.0
H2101 H 1.01113 0.93569 0.10125 0.0
H2102 H 0.12882 0.91684 0.02474 0.0
H2103 H 0.12279 0.88797 0.0482 0.0
H2104 H 0.12938 0.96146 0.0251 0.0
H2105 H 0.10606 0.98578 0.0254 0.0
C2106 C 0.91999 0.30098 0.8942 0.0
C2107 C 0.92152 0.27153 0.90027 0.0
C2108 C 0.87464 0.25025 0.86017 0.0
C2109 C 0.87485 0.27915 0.85119 0.0
N2110 N 0.90107 0.33168 0.85691 0.0
N2111 N 0.90392 0.21767 0.88171 0.0
C2112 C 0.89878 0.30433 0.86711 0.0
C2113 C 0.89993 0.24607 0.88098 0.0
N2114 N 0.93731 0.32589 0.91568 0.0
N2115 N 0.84983 0.2268 0.85004 0.0
H2116 H 0.92251 0.21371 0.89577 0.0
H2117 H 0.89058 0.19855 0.86556 0.0
H2118 H 0.83035 0.22898 0.83623 0.0
H2119 H 0.84749 0.20613 0.85843 0.0
H2120 H 0.93496 0.34775 0.91485 0.0
H2121 H 0.95186 0.32441 0.93656 0.0
H2122 H 0.91945 0.35008 0.86535 0.0
H2123 H 0.88581 0.33526 0.83793 0.0
C2124 C 0.59621 0.19234 0.58529 0.0
C2125 C 0.57549 0.20606 0.56815 0.0
C2126 C 0.54461 0.15389 0.54299 0.0
C2127 C 0.56618 0.1403 0.5585 0.0
N2128 N 0.61152 0.14664 0.59665 0.0
N2129 N 0.53129 0.19917 0.52771 0.0
C2130 C 0.59165 0.15969 0.5804 0.0
C2131 C 0.55002 0.18649 0.54631 0.0
N2132 N 0.6209 0.21084 0.60569 0.0
N2133 N 0.51822 0.13547 0.52585 0.0
H2134 H 0.53351 0.22249 0.53064 0.0
H2135 H 0.51463 0.18692 0.50814 0.0
H2136 H 0.51354 0.11193 0.52302 0.0
H2137 H 0.50003 0.14328 0.5168 0.0
H2138 H 0.63725 0.20365 0.61975 0.0
H2139 H 0.62516 0.23427 0.60864 0.0
H2140 H 0.6312 0.15826 0.61246 0.0
H2141 H 0.60815 0.12327 0.59448 0.0
C2142 C 0.61211 0.77972 0.42056 0.0
C2143 C 0.58936 0.79563 0.41921 0.0
C2144 C 0.61321 0.82461 0.37957 0.0
C2145 C 0.63855 0.81296 0.38623 0.0
N2146 N 0.66249 0.77894 0.41229 0.0
N2147 N 0.56814 0.8337 0.3973 0.0
C2148 C 0.63791 0.78999 0.4061 0.0
C2149 C 0.58949 0.81777 0.39808 0.0
N2150 N 0.60865 0.75439 0.43508 0.0
N2151 N 0.61208 0.84247 0.35563 0.0
H2152 H 0.55007 0.82916 0.40979 0.0
H2153 H 0.56925 0.85276 0.38597 0.0
H2154 H 0.62926 0.84787 0.34192 0.0
H2155 H 0.59319 0.8495 0.34717 0.0
H2156 H 0.62303 0.74014 0.43431 0.0
H2157 H 0.58967 0.74592 0.44509 0.0
H2158 H 0.66505 0.765 0.42986 0.0
H2159 H 0.68109 0.78495 0.40078 0.0
C2160 C 0.06195 0.26425 0.45616 0.0
C2161 C 0.04865 0.26401 0.42294 0.0
C2162 C 0.02423 0.21009 0.41824 0.0
C2163 C 0.03207 0.21244 0.45313 0.0
N2164 N 0.05887 0.2415 0.50594 0.0
N2165 N 0.01559 0.23654 0.3723 0.0
C2166 C 0.05159 0.23927 0.47223 0.0
C2167 C 0.02991 0.2367 0.4036 0.0
N2168 N 0.08468 0.2883 0.47214 0.0
N2169 N 1.01081 0.18237 0.39933 0.0
H2170 H 0.01848 0.25543 0.36056 0.0
H2171 H 0.99892 0.21821 0.35886 0.0
H2172 H 1.0065 0.16265 0.40973 0.0
H2173 H 1.0068 0.17856 0.37338 0.0
H2174 H 0.09708 0.28873 0.49529 0.0
H2175 H 0.09312 0.30659 0.46067 0.0
H2176 H 0.0699 0.2617 0.52178 0.0
H2177 H 0.05246 0.22336 0.51836 0.0
C2178 C 0.64817 0.25 0.25797 0.0
C2179 C 0.63641 0.27608 0.26022 0.0
C2180 C 0.68881 0.3071 0.28166 0.0
C2181 C 0.70097 0.2813 0.27613 0.0
N2182 N 0.69073 0.22948 0.24965 0.0
N2183 N 0.64742 0.33046 0.27038 0.0
C2184 C 0.6801 0.25301 0.26222 0.0
C2185 C 0.65739 0.30483 0.27105 0.0
N2186 N 0.62876 0.22203 0.25096 0.0
N2187 N 0.70713 0.33401 0.29801 0.0
H2188 H 0.62482 0.32993 0.26513 0.0
H2189 H 0.66156 0.35202 0.2731 0.0
H2190 H 0.72979 0.33678 0.3058 0.0
H2191 H 0.69957 0.35281 0.30632 0.0
H2192 H 0.63554 0.2021 0.25214 0.0
H2193 H 0.60568 0.2191 0.24715 0.0
H2194 H 0.67711 0.20908 0.23629 0.0
H2195 H 0.71329 0.23211 0.24863 0.0
C2196 C 0.5787 0.9481 0.9301 0.0
C2197 C 0.56074 0.91849 0.92936 0.0
C2198 C 0.54025 0.93868 0.97776 0.0
C2199 C 0.55941 0.968 0.97959 0.0
N2200 N 0.60215 0.99822 0.96211 0.0
N2201 N 0.52869 0.88465 0.95675 0.0
C2202 C 0.58015 0.97197 0.95704 0.0
C2203 C 0.54303 0.91354 0.95471 0.0
N2204 N 0.59389 0.95372 0.90448 0.0
N2205 N 0.51796 0.93505 0.99645 0.0
H2206 H 0.52963 0.86605 0.93989 0.0
H2207 H 0.51821 0.87893 0.97668 0.0
H2208 H 0.51433 0.95279 0.0126 0.0
H2209 H 0.50128 0.91512 0.99369 0.0
H2210 H 0.60419 0.97546 0.90116 0.0
H2211 H 0.59454 0.93671 0.88529 0.0
H2212 H 0.61965 1.00146 0.94864 0.0
H2213 H 0.60452 0.01581 0.98188 0.0
C2214 C 0.92124 0.74553 0.76867 0.0
C2215 C 0.94301 0.76693 0.75672 0.0
C2216 C 0.91007 0.80294 0.76424 0.0
C2217 C 0.88725 0.78093 0.77455 0.0
N2218 N 0.87719 0.73407 0.79532 0.0
N2219 N 0.95636 0.81593 0.74126 0.0
C2220 C 0.89462 0.75297 0.7789 0.0
C2221 C 0.93699 0.79575 0.75464 0.0
N2222 N 0.9256 0.71726 0.76939 0.0
N2223 N 0.90638 0.83135 0.7639 0.0
H2224 H 0.97647 0.81215 0.73569 0.0
H2225 H 0.95213 0.83554 0.73399 0.0
H2226 H 0.88663 0.83671 0.7675 0.0
H2227 H 0.92307 0.84985 0.76156 0.0
H2228 H 0.90974 0.69908 0.774 0.0
H2229 H 0.94506 0.71162 0.76403 0.0
H2230 H 0.88336 0.71585 0.80403 0.0
H2231 H 0.85827 0.73863 0.80358 0.0
C2232 C 0.09848 0.0382 0.90435 0.0
C2233 C 0.10271 0.06734 0.89497 0.0
C2234 C 0.08778 0.08668 0.94708 0.0
C2235 C 0.08494 0.05798 0.95748 0.0
N2236 N 0.09396 0.00823 0.94871 0.0
N2237 N 0.10973 0.12096 0.91205 0.0
C2238 C 0.09255 0.03439 0.93705 0.0
C2239 C 0.0997 0.09204 0.91766 0.0
N2240 N 0.09846 0.01378 0.88146 0.0
N2241 N 0.07913 0.10911 0.96529 0.0
H2242 H 0.11954 0.12596 0.89142 0.0
H2243 H 0.11136 0.14011 0.92954 0.0
H2244 H 0.07256 0.10705 0.98817 0.0
H2245 H 0.07712 0.12907 0.95697 0.0
H2246 H 0.09219 0.99151 0.88546 0.0
H2247 H 0.10212 0.01555 0.85724 0.0
H2248 H 0.1023 0.99149 0.93648 0.0
H2249 H 0.08873 1.00415 0.97184 0.0
C2250 C 0.80532 0.38111 0.5642 0.0
C2251 C 0.82335 0.4101 0.56283 0.0
C2252 C 0.85395 0.40945 0.61574 0.0
C2253 C 0.83986 0.37845 0.61322 0.0
N2254 N 0.80179 0.33407 0.58569 0.0
N2255 N 0.86705 0.45103 0.58626 0.0
C2256 C 0.81521 0.36409 0.58779 0.0
C2257 C 0.84796 0.42438 0.58863 0.0
N2258 N 0.77849 0.37025 0.5434 0.0
N2259 N 0.87294 0.42472 0.64412 0.0
H2260 H 0.86391 0.46288 0.56686 0.0
H2261 H 0.88736 0.46016 0.60223 0.0
H2262 H 0.87832 0.41429 0.66431 0.0
H2263 H 0.88075 0.44822 0.64883 0.0
H2264 H 0.76308 0.35047 0.54513 0.0
H2265 H 0.77034 0.3827 0.52653 0.0
H2266 H 0.78597 0.32146 0.56551 0.0
H2267 H 0.80774 0.32126 0.60338 0.0
C2268 C 0.47117 0.05274 0.41694 0.0
C2269 C 0.45103 0.0236 0.40653 0.0
C2270 C 0.48396 1.00106 0.44019 0.0
C2271 C 0.50167 0.03041 0.45417 0.0
N2272 N 0.51363 0.08454 0.45577 0.0
N2273 N 0.4348 0.97174 0.41441 0.0
C2274 C 0.49572 0.05637 0.44249 0.0
C2275 C 0.45656 0.99817 0.41969 0.0
N2276 N 0.46792 0.07669 0.40162 0.0
N2277 N 0.49273 0.97596 0.44717 0.0
H2278 H 0.41349 0.96959 0.40163 0.0
H2279 H 0.43662 0.95331 0.42602 0.0
H2280 H 0.51249 0.97717 0.46264 0.0
H2281 H 0.48189 0.95409 0.435 0.0
H2282 H 0.48441 0.0968 0.40468 0.0
H2283 H 0.44971 0.07636 0.38408 0.0
H2284 H 0.50776 0.1046 0.45256 0.0
H2285 H 0.53416 0.08801 0.47108 0.0
C2286 C 0.79578 0.77073 0.13652 0.0
C2287 C 0.77694 0.74175 0.12246 0.0
C2288 C 0.76548 0.73426 0.17816 0.0
C2289 C 0.78509 0.76294 0.19233 0.0
N2290 N 0.82583 0.80337 0.18608 0.0
N2291 N 0.74778 0.69362 0.13061 0.0
C2292 C 0.80207 0.77984 0.17178 0.0
C2293 C 0.76315 0.72275 0.14358 0.0
N2294 N 0.80795 0.78966 0.11625 0.0
N2295 N 0.74821 0.71842 0.19745 0.0
H2296 H 0.74439 0.68492 0.10535 0.0
H2297 H 0.74023 0.67742 0.145 0.0
H2298 H 0.74968 0.7257 0.22283 0.0
H2299 H 0.73091 0.69922 0.18807 0.0
H2300 H 0.81862 0.81242 0.12469 0.0
H2301 H 0.80584 0.78317 0.09057 0.0
H2302 H 0.841 0.81477 0.1728 0.0
H2303 H 0.83243 0.80912 0.21171 0.0
C2304 C 0.09186 0.08051 0.70148 0.0
C2305 C 0.09245 0.05317 0.71372 0.0
C2306 C 0.07337 0.02517 0.65669 0.0
C2307 C 0.07628 0.05272 0.64388 0.0
N2308 N 0.09833 0.10644 0.65475 0.0
N2309 N 0.09201 1.0003 0.69997 0.0
C2310 C 0.08813 0.08042 0.66647 0.0
C2311 C 0.08544 0.02567 0.69052 0.0
N2312 N 0.09432 0.10657 0.72303 0.0
N2313 N 0.05838 0.99835 0.63697 0.0
H2314 H 0.10215 0.99974 0.7239 0.0
H2315 H 0.09071 0.98096 0.68292 0.0
H2316 H 0.04833 0.99695 0.6125 0.0
H2317 H 0.05321 0.97805 0.64608 0.0
H2318 H 0.09142 0.12641 0.71496 0.0
H2319 H 0.096 0.10746 0.74873 0.0
H2320 H 0.10986 0.12672 0.67024 0.0
H2321 H 0.09881 0.10647 0.62957 0.0
C2322 C 0.79476 0.39161 0.38827 0.0
C2323 C 0.82246 0.40561 0.40888 0.0
C2324 C 0.84049 0.3605 0.39429 0.0
C2325 C 0.81215 0.34613 0.37464 0.0
N2326 N 0.75962 0.34409 0.36472 0.0
N2327 N 0.86973 0.40149 0.43734 0.0
C2328 C 0.78845 0.36053 0.37498 0.0
C2329 C 0.84486 0.38958 0.41357 0.0
N2330 N 0.77457 0.40807 0.38094 0.0
N2331 N 0.86361 0.34712 0.39355 0.0
H2332 H 0.87448 0.42317 0.45115 0.0
H2333 H 0.88467 0.38909 0.44502 0.0
H2334 H 0.86089 0.32538 0.38112 0.0
H2335 H 0.8857 0.35823 0.40347 0.0
H2336 H 0.75522 0.39939 0.36329 0.0
H2337 H 0.77863 0.43117 0.39003 0.0
H2338 H 0.74144 0.35311 0.36782 0.0
H2339 H 0.75381 0.32071 0.35673 0.0
C2340 C 0.44737 0.03945 0.24239 0.0
C2341 C 0.45383 0.02935 0.27288 0.0
C2342 C 0.47627 0.99178 0.24558 0.0
C2343 C 0.4654 0.99863 0.21441 0.0
N2344 N 0.43883 0.02744 0.1822 0.0
N2345 N 0.47319 0.995 0.30408 0.0
C2346 C 0.45072 0.02229 0.2125 0.0
C2347 C 0.46829 0.00551 0.2748 0.0
N2348 N 0.43829 0.06563 0.24227 0.0
N2349 N 0.4949 0.97282 0.24731 0.0
H2350 H 0.46984 0.00571 0.32668 0.0
H2351 H 0.47934 0.9748 0.30571 0.0
H2352 H 0.50142 0.96245 0.22637 0.0
H2353 H 0.50602 0.96947 0.26966 0.0
H2354 H 0.43589 0.07588 0.22131 0.0
H2355 H 0.43605 0.07872 0.2641 0.0
H2356 H 0.42536 0.04239 0.17932 0.0
H2357 H 0.44035 0.01496 0.15966 0.0
C2358 C 0.76777 0.75265 0.92669 0.0
C2359 C 0.78325 0.73047 0.93366 0.0
C2360 C 0.81317 0.74354 0.8901 0.0
C2361 C 0.79427 0.76185 0.8793 0.0
N2362 N 0.75 0.77972 0.88498 0.0
N2363 N 0.82004 0.7035 0.9208 0.0
C2364 C 0.77089 0.76574 0.89731 0.0
C2365 C 0.80573 0.72555 0.91496 0.0
N2366 N 0.74962 0.76087 0.94775 0.0
N2367 N 0.83917 0.74452 0.87798 0.0
H2368 H 0.81713 0.69146 0.9404 0.0
H2369 H 0.83362 0.6961 0.90509 0.0
H2370 H 0.84611 0.75814 0.86076 0.0
H2371 H 0.8555 0.73456 0.88783 0.0
H2372 H 0.74044 0.77933 0.94609 0.0
H2373 H 0.74593 0.751 0.96873 0.0
H2374 H 0.73096 0.78066 0.89525 0.0
H2375 H 0.74966 0.78725 0.86223 0.0
C2376 C 0.84905 0.09969 0.02251 0.0
C2377 C 0.85398 0.10041 0.05751 0.0
C2378 C 0.87245 0.05505 0.04998 0.0
C2379 C 0.87032 0.0563 0.01537 0.0
N2380 N 0.86374 0.08417 0.97024 0.0
N2381 N 0.87406 0.08198 0.10541 0.0
C2382 C 0.86068 0.07985 0.00202 0.0
C2383 C 0.86688 0.07904 0.07156 0.0
N2384 N 0.83197 0.11669 0.00845 0.0
N2385 N 0.87912 0.03063 0.06194 0.0
H2386 H 0.87008 0.09944 0.12177 0.0
H2387 H 0.88621 0.06885 0.11717 0.0
H2388 H 0.88271 0.01229 0.04661 0.0
H2389 H 0.87852 0.02722 0.08641 0.0
H2390 H 0.82469 0.11382 0.98285 0.0
H2391 H 0.82277 0.1317 0.02218 0.0
H2392 H 0.86011 0.10321 0.96086 0.0
H2393 H 0.87254 0.07035 0.95424 0.0
C2394 C 0.42574 0.45589 0.03787 0.0
C2395 C 0.42028 0.45496 0.07097 0.0
C2396 C 0.46558 0.49552 0.09159 0.0
C2397 C 0.46956 0.49835 0.05828 0.0
N2398 N 0.4475 0.4868 0.99997 0.0
N2399 N 0.43036 0.48036 0.12809 0.0
C2400 C 0.44762 0.4805 0.03148 0.0
C2401 C 0.43878 0.47674 0.09751 0.0
N2402 N 0.41139 0.43245 0.01277 0.0
N2403 N 0.48757 0.51011 0.11773 0.0
H2404 H 0.41041 0.46768 0.13315 0.0
H2405 H 0.44159 0.49812 0.14726 0.0
H2406 H 0.50758 0.52388 0.11463 0.0
H2407 H 0.48694 0.50636 0.14211 0.0
H2408 H 0.41681 0.43073 0.9889 0.0
H2409 H 0.39666 0.41303 0.01672 0.0
H2410 H 0.43066 0.47557 0.98005 0.0
H2411 H 0.46212 0.50552 0.99455 0.0
C2412 C 0.41808 0.62051 0.79015 0.0
C2413 C 0.41232 0.59026 0.7961 0.0
C2414 C 0.36596 0.59549 0.81474 0.0
C2415 C 0.37467 0.62708 0.81494 0.0
N2416 N 0.41198 0.67068 0.80737 0.0
N2417 N 0.38338 0.55084 0.82077 0.0
C2418 C 0.40143 0.63996 0.8036 0.0
C2419 C 0.38682 0.57806 0.80995 0.0
N2420 N 0.43905 0.6305 0.77124 0.0
N2421 N 0.33771 0.58207 0.81885 0.0
H2422 H 0.39899 0.53795 0.81994 0.0
H2423 H 0.3666 0.54268 0.83404 0.0
H2424 H 0.32146 0.59406 0.8214 0.0
H2425 H 0.32957 0.55867 0.81607 0.0
H2426 H 0.44205 0.65149 0.7635 0.0
H2427 H 0.45117 0.61655 0.7604 0.0
H2428 H 0.43283 0.681 0.80233 0.0
H2429 H 0.40139 0.68594 0.81862 0.0
C2430 C 0.18515 0.61284 0.57483 0.0
C2431 C 0.20073 0.59148 0.58454 0.0
C2432 C 0.15581 0.55059 0.56675 0.0
C2433 C 0.13947 0.57258 0.56269 0.0
N2434 N 0.13742 0.62439 0.56222 0.0
N2435 N 0.20201 0.54045 0.59061 0.0
C2436 C 0.15381 0.60365 0.56622 0.0
C2437 C 0.18645 0.56037 0.5805 0.0
N2438 N 0.20038 0.6416 0.57319 0.0
N2439 N 0.14206 0.52052 0.55703 0.0
H2440 H 0.22481 0.54687 0.60007 0.0
H2441 H 0.1921 0.51797 0.59155 0.0
H2442 H 0.11958 0.51278 0.5466 0.0
H2443 H 0.15328 0.50342 0.55664 0.0
H2444 H 0.19054 0.65719 0.56295 0.0
H2445 H 0.22348 0.64913 0.57942 0.0
H2446 H 0.14615 0.64769 0.56886 0.0
H2447 H 0.11453 0.61819 0.55371 0.0
C2448 C 0.73269 0.95172 0.76903 0.0
C2449 C 0.73822 0.98353 0.77747 0.0
C2450 C 0.76912 0.98298 0.82983 0.0
C2451 C 0.75898 0.95112 0.82431 0.0
N2452 N 0.73003 0.90438 0.78947 0.0
N2453 N 0.75671 0.02902 0.81968 0.0
C2454 C 0.74063 0.93512 0.79396 0.0
C2455 C 0.75532 0.99924 0.80872 0.0
N2456 N 0.72019 0.93758 0.73722 0.0
N2457 N 0.79223 0.99773 0.8549 0.0
H2458 H 0.74555 0.04208 0.80656 0.0
H2459 H 0.76643 0.03999 0.84381 0.0
H2460 H 0.80335 0.98648 0.87081 0.0
H2461 H 0.80232 0.02078 0.85753 0.0
H2462 H 0.71818 0.91474 0.72875 0.0
H2463 H 0.71433 0.94938 0.71843 0.0
H2464 H 0.71428 0.89189 0.76915 0.0
H2465 H 0.73529 0.8915 0.80737 0.0
C2466 C 0.72124 0.92194 0.54204 0.0
C2467 C 0.75104 0.93758 0.55636 0.0
C2468 C 0.74167 0.98537 0.54343 0.0
C2469 C 0.71211 0.96959 0.52849 0.0
N2470 N 0.67132 0.92517 0.52035 0.0
N2471 N 0.78798 0.98456 0.57754 0.0
C2472 C 0.70107 0.9386 0.53023 0.0
C2473 C 0.76073 0.9695 0.55924 0.0
N2474 N 0.71279 0.89103 0.53782 0.0
N2475 N 0.75173 0.01529 0.54136 0.0
H2476 H 0.80243 0.97351 0.58944 0.0
H2477 H 0.79537 0.00804 0.58326 0.0
H2478 H 0.73779 0.02796 0.53169 0.0
H2479 H 0.77399 0.02729 0.54784 0.0
H2480 H 0.69255 0.87803 0.52397 0.0
H2481 H 0.72687 0.87803 0.54629 0.0
H2482 H 0.66126 0.90346 0.52392 0.0
H2483 H 0.65612 0.93675 0.51113 0.0
C2484 C 0.35958 0.4376 0.77876 0.0
C2485 C 0.38315 0.4347 0.76103 0.0
C2486 C 0.36214 0.38005 0.74749 0.0
C2487 C 0.34125 0.38196 0.76953 0.0
N2488 N 0.3197 0.41362 0.80573 0.0
N2489 N 0.40955 0.40285 0.73258 0.0
C2490 C 0.33968 0.41107 0.78487 0.0
C2491 C 0.38523 0.40583 0.74664 0.0
N2492 N 0.35566 0.46575 0.78885 0.0
N2493 N 0.35877 0.35398 0.72559 0.0
H2494 H 0.4268 0.42132 0.73112 0.0
H2495 H 0.41386 0.38195 0.72518 0.0
H2496 H 0.3402 0.33586 0.72266 0.0
H2497 H 0.37187 0.35196 0.70719 0.0
H2498 H 0.33704 0.46945 0.79848 0.0
H2499 H 0.37005 0.48559 0.78533 0.0
H2500 H 0.32075 0.43343 0.82189 0.0
H2501 H 0.30218 0.39571 0.80732 0.0
C2502 C 0.2835 0.6619 0.25625 0.0
C2503 C 0.25394 0.6466 0.25757 0.0
C2504 C 0.24284 0.69401 0.27916 0.0
C2505 C 0.27308 0.70904 0.2802 0.0
N2506 N 0.32367 0.70651 0.27745 0.0
N2507 N 0.2064 0.64654 0.27475 0.0
C2508 C 0.2939 0.69279 0.2709 0.0
C2509 C 0.23389 0.66218 0.27047 0.0
N2510 N 0.30149 0.64696 0.24088 0.0
N2511 N 0.22247 0.7102 0.28541 0.0
H2512 H 0.19813 0.62336 0.26665 0.0
H2513 H 0.19256 0.65615 0.2883 0.0
H2514 H 0.22822 0.73361 0.2922 0.0
H2515 H 0.19953 0.70085 0.28117 0.0
H2516 H 0.32234 0.65777 0.2363 0.0
H2517 H 0.29459 0.62406 0.23035 0.0
H2518 H 0.34016 0.69505 0.27416 0.0
H2519 H 0.33201 0.7289 0.28908 0.0
C2520 C 0.50798 0.66078 0.48543 0.0
C2521 C 0.51896 0.68768 0.50996 0.0
C2522 C 0.53529 0.6547 0.54901 0.0
C2523 C 0.52714 0.6283 0.52385 0.0
N2524 N 0.50806 0.60829 0.46576 0.0
N2525 N 0.54926 0.70969 0.56344 0.0
C2526 C 0.51409 0.63204 0.49143 0.0
C2527 C 0.53443 0.68428 0.54114 0.0
N2528 N 0.49037 0.66217 0.45669 0.0
N2529 N 0.54176 0.65136 0.5814 0.0
H2530 H 0.54998 0.73147 0.55848 0.0
H2531 H 0.56337 0.70919 0.58512 0.0
H2532 H 0.54115 0.63031 0.58831 0.0
H2533 H 0.54433 0.66877 0.60138 0.0
H2534 H 0.47842 0.64314 0.43952 0.0
H2535 H 0.48597 0.68234 0.45117 0.0
H2536 H 0.50231 0.61022 0.44092 0.0
H2537 H 0.51112 0.58709 0.46894 0.0
C2538 C 0.67411 0.2755 0.68743 0.0
C2539 C 0.67193 0.3042 0.67982 0.0
C2540 C 0.7148 0.32753 0.72482 0.0
C2541 C 0.72091 0.29882 0.72664 0.0
N2542 N 0.70667 0.245 0.70624 0.0
N2543 N 0.6918 0.35831 0.69107 0.0
C2544 C 0.70054 0.27264 0.70707 0.0
C2545 C 0.69265 0.33052 0.69862 0.0
N2546 N 0.65019 0.25113 0.67732 0.0
N2547 N 0.72893 0.35162 0.74912 0.0
H2548 H 0.67569 0.36131 0.67256 0.0
H2549 H 0.70831 0.37793 0.7016 0.0
H2550 H 0.74331 0.34946 0.76983 0.0
H2551 H 0.72377 0.37256 0.75066 0.0
H2552 H 0.64948 0.23016 0.68458 0.0
H2553 H 0.62976 0.25316 0.6654 0.0
H2554 H 0.6939 0.22569 0.68997 0.0
H2555 H 0.72617 0.24207 0.71927 0.0
C2556 C 0.04972 0.40449 0.98316 0.0
C2557 C 0.03029 0.38422 0.9987 0.0
C2558 C 0.026 0.4299 0.03619 0.0
C2559 C 0.04083 0.45017 0.01646 0.0
N2560 N 0.06218 0.45329 0.96591 0.0
N2561 N 0.99721 0.37906 0.03885 0.0
C2562 C 0.05162 0.43648 0.9887 0.0
C2563 C 0.01773 0.39738 0.02498 0.0
N2564 N 0.06727 0.3932 0.96336 0.0
N2565 N 0.02135 0.44142 0.06681 0.0
H2566 H 0.99131 0.35556 0.03197 0.0
H2567 H 0.98468 0.38739 0.05531 0.0
H2568 H 0.02954 0.46424 0.07718 0.0
H2569 H 0.01282 0.42793 0.08347 0.0
H2570 H 0.08392 0.40687 0.95368 0.0
H2571 H 0.06763 0.37042 0.96008 0.0
H2572 H 0.06649 0.44363 0.94324 0.0
H2573 H 0.06376 0.4763 0.96758 0.0
C2574 C 0.98447 0.77208 0.15191 0.0
C2575 C 1.00771 0.79924 0.15946 0.0
C2576 C 0.99157 0.81241 0.21286 0.0
C2577 C 0.96791 0.78569 0.20484 0.0
N2578 N 0.93789 0.74339 0.16418 0.0
N2579 N 0.02979 0.84812 0.19364 0.0
C2580 C 0.963 0.7667 0.17342 0.0
C2581 C 1.01024 0.82024 0.18899 0.0
N2582 N 0.98405 0.75042 0.12546 0.0
N2583 N 0.99647 0.83002 0.24359 0.0
H2584 H 0.04351 0.8548 0.17652 0.0
H2585 H 0.03069 0.86562 0.21291 0.0
H2586 H 0.98208 0.8262 0.26081 0.0
H2587 H 0.01551 0.84748 0.25277 0.0
H2588 H 0.96971 0.72883 0.12083 0.0
H2589 H 0.99983 0.75286 0.10966 0.0
H2590 H 0.93126 0.73096 0.14017 0.0
H2591 H 0.92225 0.73802 0.17974 0.0
C2592 C 0.56572 0.3297 0.14811 0.0
C2593 C 0.55261 0.3354 0.17692 0.0
C2594 C 0.55713 0.38812 0.16876 0.0
C2595 C 0.57103 0.38262 0.14071 0.0
N2596 N 0.57922 0.34651 0.09734 0.0
N2597 N 0.52623 0.36644 0.20681 0.0
C2598 C 0.57199 0.35271 0.12821 0.0
C2599 C 0.54519 0.36351 0.18468 0.0
N2600 N 0.57421 0.30339 0.14089 0.0
N2601 N 0.55671 0.41699 0.18133 0.0
H2602 H 0.51626 0.34847 0.21791 0.0
H2603 H 0.51787 0.38545 0.21129 0.0
H2604 H 0.56465 0.4355 0.17002 0.0
H2605 H 0.55017 0.42282 0.20407 0.0
H2606 H 0.58711 0.29982 0.12265 0.0
H2607 H 0.57039 0.28584 0.15454 0.0
H2608 H 0.57768 0.32466 0.08536 0.0
H2609 H 0.58374 0.36306 0.08235 0.0
C2610 C 0.93842 0.29471 0.35165 0.0
C2611 C 0.9582 0.3158 0.33719 0.0
C2612 C 0.9123 0.32387 0.30449 0.0
C2613 C 0.89285 0.30738 0.32385 0.0
N2614 N 0.89163 0.28162 0.37167 0.0
N2615 N 0.96218 0.35366 0.30181 0.0
C2616 C 0.90711 0.2939 0.34882 0.0
C2617 C 0.94457 0.33125 0.31411 0.0
N2618 N 0.94939 0.2744 0.3677 0.0
N2619 N 0.90024 0.33087 0.27538 0.0
H2620 H 0.98539 0.35922 0.30767 0.0
H2621 H 0.95356 0.36805 0.28796 0.0
H2622 H 0.8776 0.32311 0.26554 0.0
H2623 H 0.9131 0.34075 0.25899 0.0
H2624 H 0.93575 0.25647 0.37578 0.0
H2625 H 0.97157 0.27334 0.36926 0.0
H2626 H 0.90205 0.27547 0.39279 0.0
H2627 H 0.8692 0.28033 0.37185 0.0
C2628 C 0.06724 0.67289 0.64309 0.0
C2629 C 0.03898 0.67454 0.65168 0.0
C2630 C 0.01726 0.62292 0.61926 0.0
C2631 C 0.04589 0.6206 0.61235 0.0
N2632 N 0.09912 0.64158 0.62415 0.0
N2633 N 0.98816 0.64886 0.65246 0.0
C2634 C 0.07111 0.64513 0.62608 0.0
C2635 C 0.01443 0.64869 0.64143 0.0
N2636 N 0.09056 0.69814 0.65069 0.0
N2637 N 0.99237 0.60162 0.60272 0.0
H2638 H 0.98503 0.66755 0.66759 0.0
H2639 H 0.9704 0.62974 0.64898 0.0
H2640 H 0.99325 0.58358 0.58503 0.0
H2641 H 0.97072 0.60345 0.60382 0.0
H2642 H 0.11035 0.69974 0.6412 0.0
H2643 H 0.0896 0.7183 0.66487 0.0
H2644 H 0.11853 0.65704 0.63694 0.0
H2645 H 0.10307 0.62172 0.61251 0.0
C2646 C 0.68702 0.84395 0.85034 0.0
C2647 C 0.65899 0.82803 0.83013 0.0
C2648 C 0.68919 0.80944 0.7893 0.0
C2649 C 0.71688 0.82105 0.812 0.0
N2650 N 0.73965 0.84688 0.86753 0.0
N2651 N 0.63484 0.79176 0.78095 0.0
C2652 C 0.715 0.83789 0.84328 0.0
C2653 C 0.6606 0.80978 0.79972 0.0
N2654 N 0.68711 0.86572 0.87641 0.0
N2655 N 0.69014 0.79985 0.75677 0.0
H2656 H 0.61394 0.79196 0.78715 0.0
H2657 H 0.63455 0.77531 0.76076 0.0
H2658 H 0.71031 0.80193 0.74797 0.0
H2659 H 0.67133 0.79361 0.7382 0.0
H2660 H 0.70657 0.88058 0.89 0.0
H2661 H 0.66757 0.87107 0.88197 0.0
H2662 H 0.73903 0.85575 0.89204 0.0
H2663 H 0.76005 0.84264 0.86411 0.0
C2664 C 0.49081 0.55967 0.6712 0.0
C2665 C 0.497 0.53844 0.69159 0.0
C2666 C 0.52171 0.51657 0.64842 0.0
C2667 C 0.51659 0.53876 0.62855 0.0
N2668 N 0.50256 0.58576 0.62543 0.0
N2669 N 0.51568 0.49467 0.69864 0.0
C2670 C 0.50265 0.56133 0.64105 0.0
C2671 C 0.51164 0.51628 0.67984 0.0
N2672 N 0.47207 0.57723 0.67967 0.0
N2673 N 0.53753 0.49659 0.63803 0.0
H2674 H 0.5118 0.49548 0.72308 0.0
H2675 H 0.5218 0.47509 0.68996 0.0
H2676 H 0.54439 0.49513 0.61509 0.0
H2677 H 0.54538 0.48223 0.65244 0.0
H2678 H 0.46391 0.59056 0.66399 0.0
H2679 H 0.462 0.57611 0.7008 0.0
H2680 H 0.49651 0.60493 0.63573 0.0
H2681 H 0.51139 0.58843 0.60375 0.0
C2682 C 0.77487 0.2207 0.02009 0.0
C2683 C 0.77263 0.18929 0.01816 0.0
C2684 C 0.75795 0.18157 0.95759 0.0
C2685 C 0.75467 0.21156 0.9605 0.0
N2686 N 0.76101 0.26063 0.99339 0.0
N2687 N 0.7592 0.13879 0.98539 0.0
C2688 C 0.76385 0.23158 0.99141 0.0
C2689 C 0.76408 0.16945 0.98693 0.0
N2690 N 0.78776 0.23999 0.04928 0.0
N2691 N 0.75451 0.16447 0.92681 0.0
H2692 H 0.76193 0.12835 0.00615 0.0
H2693 H 0.74982 0.12322 0.96369 0.0
H2694 H 0.74895 0.17227 0.90473 0.0
H2695 H 0.76003 0.14374 0.9231 0.0
H2696 H 0.79232 0.26346 0.05175 0.0
H2697 H 0.7963 0.23255 0.07055 0.0
H2698 H 0.76382 0.27538 0.01574 0.0
H2699 H 0.75463 0.26963 0.97239 0.0
C2700 C 0.13449 0.51218 0.15236 0.0
C2701 C 0.14401 0.53748 0.17849 0.0
C2702 C 0.11291 0.56495 0.14921 0.0
C2703 C 0.10414 0.54029 0.12256 0.0
N2704 N 0.10314 0.48918 0.09898 0.0
N2705 N 0.14868 0.59086 0.19774 0.0
C2706 C 0.114 0.51348 0.12412 0.0
C2707 C 0.1352 0.56476 0.17575 0.0
N2708 N 0.14653 0.48782 0.15386 0.0
N2709 N 0.09852 0.58773 0.15023 0.0
H2710 H 0.16539 0.59241 0.21767 0.0
H2711 H 0.14553 0.61198 0.1942 0.0
H2712 H 0.08104 0.58805 0.13183 0.0
H2713 H 0.10153 0.6045 0.17096 0.0
H2714 H 0.14275 0.46954 0.13466 0.0
H2715 H 0.16221 0.48661 0.17388 0.0
H2716 H 0.10721 0.46796 0.09935 0.0
H2717 H 0.08849 0.48971 0.07785 0.0
C2718 C 0.8305 0.83067 0.44687 0.0
C2719 C 0.82107 0.85726 0.45664 0.0
C2720 C 0.8027 0.85795 0.39799 0.0
C2721 C 0.81059 0.83046 0.38802 0.0
N2722 N 0.82476 0.78672 0.40433 0.0
N2723 N 0.79057 0.89086 0.44218 0.0
C2724 C 0.82245 0.81566 0.4129 0.0
C2725 C 0.80488 0.86923 0.43236 0.0
N2726 N 0.848 0.82035 0.46963 0.0
N2727 N 0.79422 0.87422 0.37478 0.0
H2728 H 0.79038 0.89873 0.46716 0.0
H2729 H 0.7763 0.89859 0.42568 0.0
H2730 H 0.79015 0.86612 0.34943 0.0
H2731 H 0.7932 0.89664 0.38078 0.0
H2732 H 0.85839 0.80317 0.46318 0.0
H2733 H 0.85383 0.83048 0.49465 0.0
H2734 H 0.83085 0.77372 0.42167 0.0
H2735 H 0.81759 0.77472 0.38011 0.0
C2736 C 0.48789 0.49948 0.89259 0.0
C2737 C 0.50191 0.52004 0.87318 0.0
C2738 C 0.53113 0.55271 0.92486 0.0
C2739 C 0.52069 0.52978 0.94358 0.0
N2740 N 0.48933 0.48073 0.94477 0.0
N2741 N 0.53862 0.56557 0.87061 0.0
C2742 C 0.49925 0.50293 0.92718 0.0
C2743 C 0.5239 0.54661 0.88928 0.0
N2744 N 0.46235 0.47778 0.87848 0.0
N2745 N 0.54709 0.58073 0.94108 0.0
H2746 H 0.53392 0.5619 0.84464 0.0
H2747 H 0.55704 0.58353 0.88065 0.0
H2748 H 0.55251 0.58603 0.96692 0.0
H2749 H 0.55258 0.59938 0.92922 0.0
H2750 H 0.44928 0.46414 0.89201 0.0
H2751 H 0.45216 0.47554 0.85381 0.0
H2752 H 0.47658 0.45914 0.93383 0.0
H2753 H 0.49528 0.48363 0.97043 0.0
C2754 C 0.77496 0.20975 0.17219 0.0
C2755 C 0.80107 0.19941 0.16956 0.0
C2756 C 0.82697 0.23214 0.2218 0.0
C2757 C 0.80123 0.24326 0.22383 0.0
N2758 N 0.75259 0.24686 0.19892 0.0
N2759 N 0.84912 0.19488 0.1944 0.0
C2760 C 0.77553 0.23292 0.19873 0.0
C2761 C 0.82634 0.20897 0.19511 0.0
N2762 N 0.74951 0.19721 0.14948 0.0
N2763 N 0.85241 0.24476 0.24451 0.0
H2764 H 0.84908 0.17753 0.17524 0.0
H2765 H 0.86681 0.19833 0.21392 0.0
H2766 H 0.85368 0.26196 0.26416 0.0
H2767 H 0.87291 0.23999 0.24273 0.0
H2768 H 0.72865 0.20048 0.15253 0.0
H2769 H 0.74862 0.18162 0.12847 0.0
H2770 H 0.73489 0.24301 0.17932 0.0
H2771 H 0.75223 0.26445 0.21748 0.0
C2772 C 0.12403 0.55626 0.32582 0.0
C2773 C 0.15472 0.56971 0.32727 0.0
C2774 C 0.15686 0.59872 0.38212 0.0
C2775 C 0.12534 0.59032 0.37728 0.0
N2776 N 0.07838 0.55909 0.34681 0.0
N2777 N 0.20052 0.60539 0.35576 0.0
C2778 C 0.10872 0.56814 0.34995 0.0
C2779 C 0.17143 0.59087 0.35546 0.0
N2780 N 0.10983 0.53207 0.3015 0.0
N2781 N 0.1729 0.61412 0.41211 0.0
H2782 H 0.2122 0.60086 0.33657 0.0
H2783 H 0.21244 0.62365 0.37401 0.0
H2784 H 0.16308 0.6217 0.43184 0.0
H2785 H 0.19578 0.61653 0.41836 0.0
H2786 H 0.08806 0.51953 0.30047 0.0
H2787 H 0.12085 0.52285 0.28383 0.0
H2788 H 0.06455 0.5455 0.3257 0.0
H2789 H 0.06681 0.56615 0.36516 0.0
C2790 C 0.83299 0.84701 0.66286 0.0
C2791 C 0.80695 0.85082 0.64374 0.0
C2792 C 0.77975 0.84071 0.6904 0.0
C2793 C 0.8049 0.83348 0.70779 0.0
N2794 N 0.85277 0.82239 0.70555 0.0
N2795 N 0.75427 0.84809 0.63777 0.0
C2796 C 0.83081 0.83473 0.6927 0.0
C2797 C 0.77995 0.84676 0.65711 0.0
N2798 N 0.85988 0.85448 0.65237 0.0
N2799 N 0.75543 0.8413 0.70541 0.0
H2800 H 0.75367 0.85415 0.6142 0.0
H2801 H 0.73322 0.84137 0.64416 0.0
H2802 H 0.75375 0.83539 0.72883 0.0
H2803 H 0.73765 0.84939 0.69564 0.0
H2804 H 0.88007 0.85591 0.66753 0.0
H2805 H 0.86245 0.86153 0.62964 0.0
H2806 H 0.87069 0.81985 0.6938 0.0
H2807 H 0.85134 0.81147 0.72596 0.0
C2808 C 0.71246 0.46791 0.50264 0.0
C2809 C 0.73578 0.48776 0.49229 0.0
C2810 C 0.73228 0.52919 0.53415 0.0
C2811 C 0.71335 0.50759 0.54873 0.0
N2812 N 0.68953 0.45526 0.54953 0.0
N2813 N 0.75858 0.53886 0.48775 0.0
C2814 C 0.70427 0.47664 0.53357 0.0
C2815 C 0.74258 0.51913 0.50471 0.0
N2816 N 0.69774 0.4412 0.48251 0.0
N2817 N 0.74171 0.55876 0.54964 0.0
H2818 H 0.76475 0.53127 0.46524 0.0
H2819 H 0.76341 0.56231 0.49397 0.0
H2820 H 0.73558 0.56655 0.57206 0.0
H2821 H 0.75719 0.57528 0.5418 0.0
H2822 H 0.67898 0.42671 0.48791 0.0
H2823 H 0.7019 0.4359 0.45836 0.0
H2824 H 0.6844 0.43211 0.54045 0.0
H2825 H 0.68583 0.46043 0.57373 0.0
C2826 C 0.18173 0.12435 0.56328 0.0
C2827 C 0.18499 0.13534 0.53291 0.0
C2828 C 0.13827 0.09871 0.50584 0.0
C2829 C 0.13247 0.09164 0.53736 0.0
N2830 N 0.1483 0.09941 0.59694 0.0
N2831 N 0.16504 0.13471 0.47554 0.0
C2832 C 0.15425 0.10466 0.56629 0.0
C2833 C 0.16304 0.12279 0.50413 0.0
N2834 N 0.20535 0.13187 0.58897 0.0
N2835 N 0.12069 0.08163 0.47741 0.0
H2836 H 0.18281 0.15228 0.47324 0.0
H2837 H 0.14792 0.12882 0.45502 0.0
H2838 H 0.1032 0.06307 0.47779 0.0
H2839 H 0.12538 0.08373 0.45362 0.0
H2840 H 0.20531 0.12217 0.61047 0.0
H2841 H 0.22616 0.1454 0.58738 0.0
H2842 H 0.16138 0.11172 0.61918 0.0
H2843 H 0.12923 0.08412 0.6003 0.0
C2844 C 0.21722 1.00506 0.81697 0.0
C2845 C 0.18778 0.99834 0.79888 0.0
C2846 C 0.19682 0.95496 0.764 0.0
C2847 C 0.22725 0.96422 0.77916 0.0
N2848 N 0.26733 0.99818 0.81916 0.0
N2849 N 0.14986 0.96866 0.75337 0.0
C2850 C 0.2377 0.98924 0.80552 0.0
C2851 C 0.17748 0.9735 0.77216 0.0
N2852 N 0.2252 0.02588 0.84572 0.0
N2853 N 0.1864 0.92834 0.74199 0.0
H2854 H 0.13483 0.98142 0.75876 0.0
H2855 H 0.14254 0.95342 0.73107 0.0
H2856 H 0.20014 0.91464 0.73461 0.0
H2857 H 0.16385 0.91863 0.73298 0.0
H2858 H 0.24533 0.02974 0.86187 0.0
H2859 H 0.21053 0.03748 0.85516 0.0
H2860 H 0.27707 0.01838 0.83554 0.0
H2861 H 0.28275 0.98622 0.81262 0.0
C2862 C 0.41746 1.00305 0.04353 0.0
C2863 C 0.40427 0.99442 0.00946 0.0
C2864 C 0.45299 1.0043 0.99268 0.0
C2865 C 0.46617 0.0158 0.02626 0.0
N2866 N 0.46194 0.02725 0.08402 0.0
N2867 N 0.40838 0.99317 0.95152 0.0
C2868 C 0.44865 0.01561 0.05186 0.0
C2869 C 0.42171 0.9972 0.98398 0.0
N2870 N 0.40027 0.99828 0.06773 0.0
N2871 N 0.47019 0.99813 0.96957 0.0
H2872 H 0.38535 0.98869 0.94459 0.0
H2873 H 0.42026 0.99755 0.93221 0.0
H2874 H 0.49317 1.00128 0.97569 0.0
H2875 H 0.46131 0.98684 0.94536 0.0
H2876 H 0.40894 1.00063 0.09289 0.0
H2877 H 0.37707 0.99054 0.06242 0.0
H2878 H 0.45038 0.03116 0.10345 0.0
H2879 H 0.48499 0.03404 0.09088 0.0
C2880 C 0.85761 0.6306 0.83278 0.0
C2881 C 0.86212 0.60308 0.81761 0.0
C2882 C 0.83787 0.60857 0.76343 0.0
C2883 C 0.83832 0.63838 0.77725 0.0
N2884 N 0.84408 0.67716 0.82537 0.0
N2885 N 0.85681 0.56481 0.76906 0.0
C2886 C 0.84647 0.64916 0.81216 0.0
C2887 C 0.85199 0.59152 0.78316 0.0
N2888 N 0.86343 0.63844 0.86678 0.0
N2889 N 0.82304 0.5964 0.7318 0.0
H2890 H 0.86569 0.55057 0.78276 0.0
H2891 H 0.85365 0.55752 0.74344 0.0
H2892 H 0.8119 0.60841 0.71689 0.0
H2893 H 0.81913 0.57363 0.72155 0.0
H2894 H 0.85812 0.65687 0.87989 0.0
H2895 H 0.87195 0.62519 0.88239 0.0
H2896 H 0.85351 0.68798 0.84953 0.0
H2897 H 0.83348 0.69035 0.81178 0.0
C2898 C 0.8801 0.6659 0.03364 0.0
C2899 C 0.85024 0.65326 0.03733 0.0
C2900 C 0.86428 0.60731 0.04999 0.0
C2901 C 0.89467 0.62285 0.0539 0.0
N2902 N 0.93229 0.66654 0.04852 0.0
N2903 N 0.81381 0.61178 0.05053 0.0
C2904 C 0.90284 0.65183 0.04477 0.0
C2905 C 0.84204 0.62355 0.04506 0.0
N2906 N 0.88654 0.69119 0.01926 0.0
N2907 N 0.85694 0.57721 0.05201 0.0
H2908 H 0.79685 0.62298 0.04821 0.0
H2909 H 0.80773 0.59179 0.06001 0.0
H2910 H 0.87312 0.56511 0.05582 0.0
H2911 H 0.83514 0.56379 0.04657 0.0
H2912 H 0.90741 0.70009 0.01332 0.0
H2913 H 0.87014 0.7015 0.01019 0.0
H2914 H 0.93971 0.68923 0.04643 0.0
H2915 H 0.9494 0.65629 0.05529 0.0
C2916 C 0.21599 0.18657 0.8292 0.0
C2917 C 0.20948 0.16213 0.80222 0.0
C2918 C 0.24289 0.19294 0.77193 0.0
C2919 C 0.25126 0.21701 0.79967 0.0
N2920 N 0.25125 0.23271 0.85829 0.0
N2921 N 0.22441 0.13901 0.75324 0.0
C2922 C 0.23948 0.21262 0.82945 0.0
C2923 C 0.22558 0.16432 0.77544 0.0
N2924 N 0.19905 0.1856 0.85387 0.0
N2925 N 0.24879 0.19785 0.74121 0.0
H2926 H 0.21249 0.11745 0.75551 0.0
H2927 H 0.23795 0.13906 0.73501 0.0
H2928 H 0.25777 0.21922 0.73625 0.0
H2929 H 0.24073 0.1816 0.71974 0.0
H2930 H 0.20057 0.20424 0.87203 0.0
H2931 H 0.18182 0.16691 0.85468 0.0
H2932 H 0.24537 0.22911 0.88128 0.0
H2933 H 0.2692 0.25129 0.85996 0.0
C2934 C 0.35037 0.92498 0.33272 0.0
C2935 C 0.34478 0.93921 0.30497 0.0
C2936 C 0.31533 0.89123 0.27218 0.0
C2937 C 0.3234 0.87666 0.29911 0.0
N2938 N 0.35607 0.8788 0.35076 0.0
N2939 N 0.32437 0.93674 0.24741 0.0
C2940 C 0.34314 0.89321 0.32814 0.0
C2941 C 0.32794 0.92256 0.27435 0.0
N2942 N 0.36221 0.94166 0.36358 0.0
N2943 N 0.29586 0.87515 0.24455 0.0
H2944 H 0.33169 0.96013 0.24889 0.0
H2945 H 0.31531 0.92539 0.22332 0.0
H2946 H 0.28788 0.85185 0.24117 0.0
H2947 H 0.28646 0.88486 0.22573 0.0
H2948 H 0.36392 0.93201 0.38508 0.0
H2949 H 0.36749 0.9652 0.36839 0.0
H2950 H 0.37339 0.89018 0.37012 0.0
H2951 H 0.35175 0.85539 0.34856 0.0
C2952 C 0.55271 0.4041 0.57095 0.0
C2953 C 0.58277 0.40165 0.57773 0.0
C2954 C 0.59829 0.45514 0.56751 0.0
C2955 C 0.56861 0.45865 0.56326 0.0
N2956 N 0.51956 0.43751 0.57443 0.0
N2957 N 0.63343 0.43141 0.59548 0.0
C2958 C 0.54631 0.43329 0.56852 0.0
C2959 C 0.60528 0.42907 0.57965 0.0
N2960 N 0.52988 0.37869 0.56614 0.0
N2961 N 0.62021 0.47609 0.55864 0.0
H2962 H 0.63953 0.41384 0.60599 0.0
H2963 H 0.64893 0.45231 0.60261 0.0
H2964 H 0.61618 0.49421 0.54762 0.0
H2965 H 0.6416 0.47321 0.55866 0.0
H2966 H 0.50778 0.37872 0.55799 0.0
H2967 H 0.53337 0.3573 0.56757 0.0
H2968 H 0.50388 0.42127 0.58252 0.0
H2969 H 0.51506 0.45862 0.57549 0.0
C2970 C 0.39287 0.76116 0.40265 0.0
C2971 C 0.42196 0.77909 0.40243 0.0
C2972 C 0.40105 0.80065 0.35541 0.0
C2973 C 0.37213 0.78137 0.35419 0.0
N2974 N 0.34281 0.73798 0.37214 0.0
N2975 N 0.45461 0.81057 0.37336 0.0
C2976 C 0.36875 0.76009 0.37656 0.0
C2977 C 0.42628 0.79693 0.37696 0.0
N2978 N 0.38808 0.74543 0.42818 0.0
N2979 N 0.40432 0.82414 0.33795 0.0
H2980 H 0.47344 0.80852 0.38871 0.0
H2981 H 0.45944 0.82127 0.35323 0.0
H2982 H 0.38659 0.82886 0.32324 0.0
H2983 H 0.42412 0.84086 0.34072 0.0
H2984 H 0.3669 0.73501 0.43223 0.0
H2985 H 0.40533 0.74439 0.44657 0.0
H2986 H 0.33979 0.7202 0.3856 0.0
H2987 H 0.32539 0.73549 0.35253 0.0
C2988 C 0.09282 0.69433 0.09474 0.0
C2989 C 0.07645 0.7083 0.07231 0.0
C2990 C 0.04854 0.65628 0.04318 0.0
C2991 C 0.06713 0.64263 0.06335 0.0
N2992 N 0.10797 0.64933 0.10804 0.0
N2993 N 0.03971 0.70162 0.02322 0.0
C2994 C 0.08937 0.66194 0.08921 0.0
C2995 C 0.05458 0.68887 0.04603 0.0
N2996 N 0.11189 0.71221 0.12164 0.0
N2997 N 0.02417 0.63797 0.02202 0.0
H2998 H 0.04205 0.72492 0.02557 0.0
H2999 H 0.02635 0.68935 0.00114 0.0
H3000 H 0.01882 0.61446 0.01998 0.0
H3001 H 1.00781 0.64596 0.0089 0.0
H3002 H 0.12253 0.70408 0.14102 0.0
H3003 H 0.1153 0.73554 0.12571 0.0
H3004 H 0.12698 0.66161 0.12466 0.0
H3005 H 0.10546 0.62605 0.10537 0.0
C3006 C 0.09034 0.31932 0.89965 0.0
C3007 C 0.09158 0.30018 0.924 0.0
C3008 C 0.14081 0.29532 0.91303 0.0
C3009 C 0.13984 0.31505 0.88945 0.0
N3010 N 0.11111 0.33894 0.85346 0.0
N3011 N 0.11348 0.26301 0.94657 0.0
C3012 C 0.11362 0.32464 0.88041 0.0
C3013 C 0.11547 0.28598 0.9284 0.0
N3014 N 0.06806 0.334 0.89633 0.0
N3015 N 0.16636 0.28642 0.92159 0.0
H3016 H 0.09485 0.25514 0.95741 0.0
H3017 H 0.1288 0.2498 0.94818 0.0
H3018 H 0.1848 0.29168 0.90966 0.0
H3019 H 0.1699 0.2752 0.94156 0.0
H3020 H 0.06808 0.35111 0.88213 0.0
H3021 H 0.05043 0.33071 0.90961 0.0
H3022 H 0.09145 0.34385 0.84344 0.0
H3023 H 0.12797 0.34335 0.83916 0.0
C3024 C 0.53441 0.73767 0.90261 0.0
C3025 C 0.55043 0.76614 0.92202 0.0
C3026 C 0.55199 0.74297 0.97254 0.0
C3027 C 0.53521 0.71495 0.95326 0.0
N3028 N 0.51906 0.68311 0.89969 0.0
N3029 N 0.58249 0.79339 0.973 0.0
C3030 C 0.52963 0.7115 0.91809 0.0
C3031 C 0.56188 0.76793 0.95625 0.0
N3032 N 0.52158 0.73586 0.87027 0.0
N3033 N 0.55711 0.74615 0.00649 0.0
H3034 H 0.59081 0.81166 0.96146 0.0
H3035 H 0.59355 0.79514 0.99719 0.0
H3036 H 0.55123 0.72801 0.01907 0.0
H3037 H 0.5658 0.76695 0.02216 0.0
H3038 H 0.50688 0.71633 0.85631 0.0
H3039 H 0.52346 0.7544 0.85799 0.0
H3040 H 0.51694 0.67866 0.87384 0.0
H3041 H 0.51537 0.66374 0.91076 0.0
C3042 C 0.15604 0.78187 0.73891 0.0
C3043 C 0.13774 0.76556 0.75899 0.0
C3044 C 0.18481 0.76443 0.79537 0.0
C3045 C 0.20317 0.777 0.77279 0.0
N3046 N 0.20357 0.79353 0.71925 0.0
N3047 N 0.13589 0.73759 0.8044 0.0
C3048 C 0.188 0.78488 0.74372 0.0
C3049 C 0.15259 0.75575 0.78655 0.0
N3050 N 0.1428 0.79458 0.71478 0.0
N3051 N 0.19791 0.7624 0.82646 0.0
H3052 H 0.11262 0.73227 0.80017 0.0
H3053 H 0.1451 0.72632 0.82182 0.0
H3054 H 0.22076 0.77031 0.83505 0.0
H3055 H 0.18587 0.75613 0.84508 0.0
H3056 H 0.15473 0.80963 0.70165 0.0
H3057 H 0.11983 0.79234 0.71016 0.0
H3058 H 0.19342 0.79586 0.69595 0.0
H3059 H 0.22631 0.79551 0.72057 0.0
C3060 C 0.05829 0.41514 0.46331 0.0
C3061 C 0.05943 0.41935 0.42976 0.0
C3062 C 0.07171 0.47465 0.44996 0.0
C3063 C 0.06417 0.46988 0.48156 0.0
N3064 N 0.07774 0.43897 0.51994 0.0
N3065 N 0.06814 0.45481 0.39153 0.0
C3066 C 0.06451 0.44084 0.48923 0.0
C3067 C 0.06638 0.44962 0.42323 0.0
N3068 N 0.05088 0.38673 0.47081 0.0
N3069 N 0.08911 0.50207 0.44729 0.0
H3070 H 0.06694 0.43768 0.37167 0.0
H3071 H 0.06941 0.47612 0.38493 0.0
H3072 H 0.09709 0.51952 0.46772 0.0
H3073 H 0.09834 0.50625 0.42611 0.0
H3074 H 0.04745 0.38276 0.49457 0.0
H3075 H 0.04577 0.36744 0.45271 0.0
H3076 H 0.0808 0.41877 0.52687 0.0
H3077 H 0.09178 0.45854 0.53451 0.0
C3078 C 0.41566 0.27505 0.22956 0.0
C3079 C 0.43866 0.27063 0.2538 0.0
C3080 C 0.40615 0.27981 0.29651 0.0
C3081 C 0.38309 0.28456 0.27215 0.0
N3082 N 0.37273 0.29564 0.2166 0.0
N3083 N 0.45742 0.27545 0.31193 0.0
C3084 C 0.38985 0.28453 0.23903 0.0
C3085 C 0.43437 0.27531 0.28771 0.0
N3086 N 0.41837 0.27027 0.19671 0.0
N3087 N 0.40077 0.27777 0.32807 0.0
H3088 H 0.47744 0.27134 0.30644 0.0
H3089 H 0.45786 0.2823 0.33722 0.0
H3090 H 0.38141 0.28082 0.33613 0.0
H3091 H 0.41444 0.27061 0.34576 0.0
H3092 H 0.40078 0.26798 0.17733 0.0
H3093 H 0.43792 0.26723 0.18871 0.0
H3094 H 0.37818 0.29967 0.19357 0.0
H3095 H 0.35504 0.30443 0.22223 0.0
C3096 C 0.59709 0.58931 0.41578 0.0
C3097 C 0.60143 0.56512 0.39341 0.0
C3098 C 0.59228 0.53216 0.4356 0.0
C3099 C 0.5829 0.55493 0.45533 0.0
N3100 N 0.57324 0.60464 0.46113 0.0
N3101 N 0.59874 0.51176 0.38025 0.0
C3102 C 0.58415 0.58321 0.44431 0.0
C3103 C 0.59809 0.53607 0.40293 0.0
N3104 N 0.60701 0.61853 0.41102 0.0
N3105 N 0.59542 0.50663 0.44772 0.0
H3106 H 0.60191 0.51337 0.35585 0.0
H3107 H 0.59315 0.48954 0.38458 0.0
H3108 H 0.59045 0.50227 0.47085 0.0
H3109 H 0.60508 0.49083 0.43585 0.0
H3110 H 0.6073 0.63722 0.42854 0.0
H3111 H 0.61829 0.62427 0.39162 0.0
H3112 H 0.57013 0.62391 0.45187 0.0
H3113 H 0.5659 0.60238 0.48356 0.0
C3114 C 0.34266 0.88049 0.05661 0.0
C3115 C 0.3209 0.89741 0.05858 0.0
C3116 C 0.32541 0.89753 0.11853 0.0
C3117 C 0.34512 0.87829 0.11598 0.0
N3118 N 0.36728 0.84599 0.08148 0.0
N3119 N 0.28706 0.91688 0.08962 0.0
C3120 C 0.35216 0.86808 0.08465 0.0
C3121 C 0.31086 0.90434 0.08903 0.0
N3122 N 0.35548 0.87757 0.0287 0.0
N3123 N 0.32167 0.91046 0.14911 0.0
H3124 H 0.27575 0.92193 0.06831 0.0
H3125 H 0.2768 0.91955 0.11044 0.0
H3126 H 0.33273 0.9069 0.1714 0.0
H3127 H 0.30987 0.92697 0.1524 0.0
H3128 H 0.37393 0.86858 0.02764 0.0
H3129 H 0.34958 0.88658 0.00758 0.0
H3130 H 0.37039 0.83561 0.05855 0.0
H3131 H 0.37419 0.83591 0.10139 0.0
C3132 C 0.96151 0.50127 0.92203 0.0
C3133 C 0.95581 0.52723 0.91018 0.0
C3134 C 1.00219 0.55896 0.94372 0.0
C3135 C 1.00748 0.53286 0.95556 0.0
N3136 N 0.99759 0.47846 0.94868 0.0
N3137 N 0.97282 0.58008 0.90489 0.0
C3138 C 0.98917 0.50372 0.9418 0.0
C3139 C 0.97669 0.55597 0.9196 0.0
N3140 N 0.93965 0.4748 0.91646 0.0
N3141 N 0.0215 0.58663 0.95591 0.0
H3142 H 0.9538 0.57999 0.8886 0.0
H3143 H 0.98925 0.60013 0.90728 0.0
H3144 H 0.04206 0.58917 0.97083 0.0
H3145 H 0.01698 0.60717 0.95223 0.0
H3146 H 0.94176 0.45584 0.9269 0.0
H3147 H 0.91807 0.47267 0.90432 0.0
H3148 H 0.98668 0.45661 0.93653 0.0
H3149 H 0.01717 0.4797 0.96434 0.0
C3150 C 0.27611 0.2718 0.63254 0.0
C3151 C 0.28729 0.24662 0.62162 0.0
C3152 C 0.29821 0.23968 0.68005 0.0
C3153 C 0.28944 0.26648 0.6909 0.0
N3154 N 0.27986 0.313 0.67719 0.0
N3155 N 0.31491 0.21047 0.63621 0.0
C3156 C 0.28118 0.28397 0.66707 0.0
C3157 C 0.29985 0.23149 0.64571 0.0
N3158 N 0.25953 0.28348 0.6102 0.0
N3159 N 0.30502 0.22191 0.70246 0.0
H3160 H 0.31739 0.20429 0.61165 0.0
H3161 H 0.32748 0.20129 0.65303 0.0
H3162 H 0.30589 0.22801 0.72788 0.0
H3163 H 0.30778 0.20024 0.69561 0.0
H3164 H 0.24855 0.29996 0.61748 0.0
H3165 H 0.25405 0.27443 0.58486 0.0
H3166 H 0.27672 0.32771 0.66061 0.0
H3167 H 0.28529 0.32332 0.70212 0.0
C3168 C 0.57754 0.57945 0.20353 0.0
C3169 C 0.59528 0.56088 0.21546 0.0
C3170 C 0.59998 0.54368 0.15768 0.0
C3171 C 0.57715 0.55783 0.14499 0.0
N3172 N 0.53669 0.57909 0.16216 0.0
N3173 N 0.61645 0.5186 0.20226 0.0
C3174 C 0.56376 0.57296 0.16957 0.0
C3175 C 0.60425 0.54083 0.19206 0.0
N3176 N 0.57358 0.60339 0.22432 0.0
N3177 N 0.61897 0.53407 0.13857 0.0
H3178 H 0.61948 0.5154 0.22702 0.0
H3179 H 0.62033 0.50136 0.18553 0.0
H3180 H 0.62124 0.53827 0.11484 0.0
H3181 H 0.63651 0.52566 0.14851 0.0
H3182 H 0.56265 0.61895 0.21559 0.0
H3183 H 0.58401 0.60955 0.24917 0.0
H3184 H 0.52633 0.58847 0.1804 0.0
H3185 H 0.52211 0.5704 0.14 0.0
C3186 C 0.29069 0.89232 0.87924 0.0
C3187 C 0.31725 0.90481 0.90229 0.0
C3188 C 0.33354 0.85828 0.89114 0.0
C3189 C 0.30601 0.84517 0.86944 0.0
N3190 N 0.25572 0.84662 0.84877 0.0
N3191 N 0.36346 0.90045 0.93255 0.0
C3192 C 0.28377 0.86132 0.86516 0.0
C3193 C 0.33863 0.88803 0.90887 0.0
N3194 N 0.27221 0.91026 0.87091 0.0
N3195 N 0.35528 0.84292 0.89346 0.0
H3196 H 0.36932 0.92324 0.94339 0.0
H3197 H 0.37773 0.88813 0.94215 0.0
H3198 H 0.35177 0.82071 0.88174 0.0
H3199 H 0.37714 0.85251 0.90543 0.0
H3200 H 0.25347 0.90308 0.85235 0.0
H3201 H 0.27718 0.93331 0.88067 0.0
H3202 H 0.23779 0.85652 0.84705 0.0
H3203 H 0.24961 0.82345 0.83968 0.0
C3204 C 0.93575 0.53849 0.74379 0.0
C3205 C 0.94583 0.53005 0.77435 0.0
C3206 C 0.97137 0.49606 0.74572 0.0
C3207 C 0.95846 0.50198 0.71488 0.0
N3208 N 0.92719 0.52705 0.68339 0.0
N3209 N 0.97142 0.49941 0.80494 0.0
C3210 C 0.94037 0.5228 0.71356 0.0
C3211 C 0.96342 0.50868 0.77556 0.0
N3212 N 0.92257 0.56214 0.74396 0.0
N3213 N 0.99169 0.47886 0.74647 0.0
H3214 H 0.96792 0.50941 0.8278 0.0
H3215 H 0.98026 0.48074 0.80655 0.0
H3216 H 0.99734 0.46832 0.72502 0.0
H3217 H 1.00458 0.47672 0.76829 0.0
H3218 H 0.91702 0.57134 0.72292 0.0
H3219 H 0.91953 0.57445 0.76591 0.0
H3220 H 0.91124 0.53943 0.68062 0.0
H3221 H 0.93072 0.51648 0.66072 0.0
C3222 C 0.30905 0.22733 0.41602 0.0
C3223 C 0.28529 0.22948 0.43375 0.0
C3224 C 0.27869 0.27263 0.40677 0.0
C3225 C 0.29715 0.26573 0.38306 0.0
N3226 N 0.33371 0.23852 0.36934 0.0
N3227 N 0.24463 0.25213 0.44232 0.0
C3228 C 0.31333 0.24353 0.38891 0.0
C3229 C 0.26943 0.25163 0.42822 0.0
N3230 N 0.32873 0.21119 0.42638 0.0
N3231 N 0.27108 0.29966 0.41078 0.0
H3232 H 0.23663 0.23697 0.45769 0.0
H3233 H 0.23037 0.26568 0.436 0.0
H3234 H 0.27845 0.31735 0.39831 0.0
H3235 H 0.2601 0.30613 0.42996 0.0
H3236 H 0.34829 0.21112 0.41688 0.0
H3237 H 0.32724 0.20033 0.44703 0.0
H3238 H 0.34234 0.21953 0.36835 0.0
H3239 H 0.34198 0.25342 0.35393 0.0
C3240 C 0.3899 0.60573 0.56638 0.0
C3241 C 0.35953 0.60342 0.55451 0.0
C3242 C 0.36275 0.57456 0.50149 0.0
C3243 C 0.39407 0.582 0.51101 0.0
N3244 N 0.43838 0.60534 0.55198 0.0
N3245 N 0.31719 0.58835 0.5093 0.0
C3246 C 0.40798 0.59751 0.54349 0.0
C3247 C 0.34577 0.58822 0.52182 0.0
N3248 N 0.40115 0.61521 0.59954 0.0
N3249 N 0.34922 0.55404 0.47335 0.0
H3250 H 0.30372 0.5986 0.52273 0.0
H3251 H 0.30765 0.58068 0.48434 0.0
H3252 H 0.36107 0.54339 0.45783 0.0
H3253 H 0.32618 0.54535 0.46727 0.0
H3254 H 0.42239 0.61447 0.61028 0.0
H3255 H 0.38815 0.6211 0.6169 0.0
H3256 H 0.44978 0.61922 0.57419 0.0
H3257 H 0.45246 0.59984 0.53578 0.0
C3258 C 0.94095 0.9598 0.58347 0.0
C3259 C 0.91468 0.95427 0.55959 0.0
C3260 C 0.93936 0.99397 0.53085 0.0
C3261 C 0.96619 0.99881 0.5543 0.0
N3262 N 0.98683 0.99612 0.61042 0.0
N3263 N 0.88592 0.97313 0.5177 0.0
C3264 C 0.96528 0.98462 0.58292 0.0
C3265 C 0.9129 0.97364 0.53565 0.0
N3266 N 0.94271 0.94149 0.60684 0.0
N3267 N 0.9388 0.00751 0.50323 0.0
H3268 H 0.86592 0.95885 0.52025 0.0
H3269 H 0.88282 0.98915 0.50282 0.0
H3270 H 0.95552 0.02519 0.49945 0.0
H3271 H 0.92168 1.00012 0.48272 0.0
H3272 H 0.96256 0.94235 0.62233 0.0
H3273 H 0.92469 0.92433 0.6095 0.0
H3274 H 0.98626 0.98816 0.63296 0.0
H3275 H 1.00316 0.01619 0.61193 0.0
C3276 C 0.91498 0.12323 0.27595 0.0
C3277 C 0.91377 0.09793 0.2925 0.0
C3278 C 0.87944 0.11488 0.3263 0.0
C3279 C 0.88536 0.14269 0.31435 0.0
N3280 N 0.90819 0.1741 0.27767 0.0
N3281 N 0.89699 0.07088 0.33598 0.0
C3282 C 0.90266 0.14698 0.28876 0.0
C3283 C 0.89614 0.09371 0.31798 0.0
N3284 N 0.92737 0.12414 0.24766 0.0
N3285 N 0.85791 0.10884 0.3457 0.0
H3286 H 0.90972 0.05532 0.3318 0.0
H3287 H 0.88719 0.06896 0.35718 0.0
H3288 H 0.84535 0.12408 0.35227 0.0
H3289 H 0.85048 0.08771 0.35241 0.0
H3290 H 0.92644 0.14053 0.23265 0.0
H3291 H 0.9362 0.10682 0.23749 0.0
H3292 H 0.92342 0.17992 0.26183 0.0
H3293 H 0.89864 0.19157 0.28575 0.0
C3294 C 0.68096 0.06284 0.06313 0.0
C3295 C 0.69536 0.09268 0.06073 0.0
C3296 C 0.64848 0.1061 0.05072 0.0
C3297 C 0.63344 0.07664 0.05429 0.0
N3298 N 0.63467 0.02426 0.05191 0.0
N3299 N 0.69271 0.13677 0.03649 0.0
C3300 C 0.64945 0.05393 0.0559 0.0
C3301 C 0.67895 0.11219 0.04879 0.0
N3302 N 0.69712 0.04391 0.07449 0.0
N3303 N 0.63431 0.12879 0.05153 0.0
H3304 H 0.71492 0.14014 0.03328 0.0
H3305 H 0.68118 0.15094 0.02569 0.0
H3306 H 0.61156 0.12437 0.0514 0.0
H3307 H 0.64526 0.15149 0.05304 0.0
H3308 H 0.68743 0.0232 0.08093 0.0
H3309 H 0.7204 0.04982 0.07902 0.0
H3310 H 0.64522 0.0066 0.05069 0.0
H3311 H 0.61165 0.01739 0.04638 0.0
C3312 C 0.23563 0.45956 0.24556 0.0
C3313 C 0.25469 0.48642 0.24024 0.0
C3314 C 0.29344 0.48364 0.28449 0.0
C3315 C 0.27282 0.4592 0.29302 0.0
N3316 N 0.2284 0.41818 0.27704 0.0
N3317 N 0.3037 0.51806 0.24492 0.0
C3318 C 0.24525 0.44505 0.27177 0.0
C3319 C 0.28463 0.49592 0.25613 0.0
N3320 N 0.20757 0.44975 0.22727 0.0
N3321 N 0.32052 0.49602 0.3045 0.0
H3322 H 0.29659 0.52723 0.22428 0.0
H3323 H 0.32647 0.52548 0.25401 0.0
H3324 H 0.32769 0.48752 0.32555 0.0
H3325 H 0.33544 0.51557 0.3013 0.0
H3326 H 0.19089 0.4324 0.23208 0.0
H3327 H 0.20094 0.45976 0.20717 0.0
H3328 H 0.20892 0.40581 0.26128 0.0
H3329 H 0.23489 0.40718 0.29631 0.0
C3330 C 0.23078 0.43581 0.06312 0.0
C3331 C 0.25286 0.435 0.04265 0.0
C3332 C 0.23135 0.4664 0.00773 0.0
C3333 C 0.20627 0.46174 0.02404 0.0
N3334 N 0.18158 0.44305 0.06776 0.0
N3335 N 0.27493 0.4502 0.99548 0.0
C3336 C 0.20598 0.44713 0.05225 0.0
C3337 C 0.25376 0.45099 0.01531 0.0
N3338 N 0.23408 0.42654 0.09334 0.0
N3339 N 0.23379 0.48583 0.98521 0.0
H3340 H 0.29289 0.44085 0.0009 0.0
H3341 H 0.27388 0.45743 0.97249 0.0
H3342 H 0.21767 0.49751 0.97919 0.0
H3343 H 0.25291 0.49263 0.9749 0.0
H3344 H 0.22029 0.42924 0.11085 0.0
H3345 H 0.25251 0.41893 0.10232 0.0
H3346 H 0.17858 0.42958 0.08608 0.0
H3347 H 0.16339 0.45185 0.06101 0.0
C3348 C 0.88773 0.92131 0.29865 0.0
C3349 C 0.88681 0.92922 0.26631 0.0
C3350 C 0.84297 0.88662 0.24568 0.0
C3351 C 0.84325 0.87961 0.27837 0.0
N3352 N 0.86068 0.89573 0.33736 0.0
N3353 N 0.85799 0.92475 0.21176 0.0
C3354 C 0.86366 0.89906 0.30536 0.0
C3355 C 0.8628 0.91342 0.24054 0.0
N3356 N 0.91261 0.93323 0.3223 0.0
N3357 N 0.82385 0.86766 0.2194 0.0
H3358 H 0.87121 0.945 0.2076 0.0
H3359 H 0.83905 0.91589 0.19359 0.0
H3360 H 0.80756 0.84904 0.22233 0.0
H3361 H 0.82514 0.86955 0.19462 0.0
H3362 H 0.91552 0.92651 0.34547 0.0
H3363 H 0.93179 0.94733 0.31739 0.0
H3364 H 0.87325 0.91112 0.35804 0.0
H3365 H 0.84404 0.87888 0.34311 0.0
C3366 C 0.78125 0.16013 0.77263 0.0
C3367 C 0.75186 0.14844 0.77793 0.0
C3368 C 0.74171 0.19766 0.78131 0.0
C3369 C 0.77111 0.21015 0.77643 0.0
N3370 N 0.82111 0.2047 0.77465 0.0
N3371 N 0.71017 0.15776 0.80227 0.0
C3372 C 0.79183 0.19188 0.77533 0.0
C3373 C 0.73445 0.16804 0.78802 0.0
N3374 N 0.79797 0.14105 0.76227 0.0
N3375 N 0.71991 0.21256 0.77656 0.0
H3376 H 0.70509 0.13592 0.80794 0.0
H3377 H 0.69766 0.17198 0.81176 0.0
H3378 H 0.72418 0.23425 0.77115 0.0
H3379 H 0.69746 0.20256 0.77636 0.0
H3380 H 0.81786 0.14823 0.75347 0.0
H3381 H 0.79124 0.11767 0.76086 0.0
H3382 H 0.83764 0.1929 0.776 0.0
H3383 H 0.82938 0.22799 0.77647 0.0
loop_
_geom_bond_atom_site_label_1
_geom_bond_atom_site_label_2
_geom_bond_distance
_geom_bond_site_symmetry_2
_ccdc_geom_bond_type
C0 O1 1.160 . S
C0 O7 1.185 . S
O1 C0 1.160 . S
O2 Zn3 1.899 . S
O2 C10 1.284 . S
Zn3 O2 1.899 . S
Zn3 O4 2.032 . S
Zn3 O7 2.086 . S
Zn3 O12 1.977 . S
O4 Zn3 2.032 . S
O4 C8 1.278 . S
C5 O6 1.203 . S
C5 O12 1.267 1_655 S
O6 C5 1.203 . S
O7 C0 1.185 . S
O7 Zn3 2.086 . S
C8 O4 1.278 . S
C8 O9 1.211 . S
O9 C8 1.211 . S
C10 O2 1.284 . S
C10 O11 1.273 . S
O11 C10 1.273 . S
O12 Zn3 1.977 . S
O12 C5 1.267 1_455 S
C13 O14 1.160 . S
C13 O20 1.215 . S
O14 C13 1.160 . S
O15 Zn16 1.899 . S
O15 C23 1.284 . S
Zn16 O15 1.899 . S
Zn16 O17 2.032 . S
Zn16 O20 2.061 1_455 S
Zn16 O25 1.977 . S
O17 Zn16 2.032 . S
O17 C21 1.278 . S
C18 O19 1.203 . S
C18 O25 1.267 . S
O19 C18 1.203 . S
O20 C13 1.215 . S
O20 Zn16 2.061 1_655 S
C21 O17 1.278 . S
C21 O22 1.211 . S
O22 C21 1.211 . S
C23 O15 1.284 . S
C23 O24 1.273 . S
O24 C23 1.273 . S
O25 Zn16 1.977 . S
O25 C18 1.267 . S
C26 O27 1.160 . S
C26 O33 1.185 . S
O27 C26 1.160 . S
O28 Zn29 1.899 . S
O28 C36 1.284 . S
Zn29 O28 1.899 . S
Zn29 O30 2.032 . S
Zn29 O33 2.086 . S
Zn29 O38 1.977 . S
O30 Zn29 2.032 . S
O30 C34 1.278 . S
C31 O32 1.203 . S
C31 O38 1.267 . S
O32 C31 1.203 . S
O33 C26 1.185 . S
O33 Zn29 2.086 . S
C34 O30 1.278 . S
C34 O35 1.211 . S
O35 C34 1.211 . S
C36 O28 1.284 . S
C36 O37 1.273 . S
O37 C36 1.273 . S
O38 Zn29 1.977 . S
O38 C31 1.267 . S
C39 O40 1.160 . S
C39 O46 1.185 . S
O40 C39 1.160 . S
O41 Zn42 1.899 . S
O41 C49 1.284 . S
Zn42 O41 1.899 . S
Zn42 O43 2.032 . S
Zn42 O46 2.086 . S
Zn42 O51 1.977 . S
O43 Zn42 2.032 . S
O43 C47 1.278 . S
C44 O45 1.203 . S
C44 O51 1.267 . S
O45 C44 1.203 . S
O46 C39 1.185 . S
O46 Zn42 2.086 . S
C47 O43 1.278 . S
C47 O48 1.211 . S
O48 C47 1.211 . S
C49 O41 1.284 . S
C49 O50 1.273 . S
O50 C49 1.273 . S
O51 Zn42 1.977 . S
O51 C44 1.267 . S
C52 O53 1.160 . S
C52 O59 1.185 . S
O53 C52 1.160 . S
O54 Zn55 1.899 . S
O54 C62 1.284 . S
Zn55 O54 1.899 . S
Zn55 O56 2.032 . S
Zn55 O59 2.086 . S
Zn55 O64 1.977 . S
O56 Zn55 2.032 . S
O56 C60 1.278 . S
C57 O58 1.203 . S
C57 O64 1.267 . S
O58 C57 1.203 . S
O59 C52 1.185 . S
O59 Zn55 2.086 . S
C60 O56 1.278 . S
C60 O61 1.211 . S
O61 C60 1.211 . S
C62 O54 1.284 . S
C62 O63 1.273 . S
O63 C62 1.273 . S
O64 Zn55 1.977 . S
O64 C57 1.267 . S
C65 O66 1.160 . S
C65 O72 1.185 . S
O66 C65 1.160 . S
O67 Zn68 1.899 . S
O67 C75 1.284 . S
Zn68 O67 1.899 . S
Zn68 O69 2.032 . S
Zn68 O72 2.086 . S
Zn68 O77 1.977 . S
O69 Zn68 2.032 . S
O69 C73 1.278 . S
C70 O71 1.203 . S
C70 O77 1.267 . S
O71 C70 1.203 . S
O72 C65 1.185 . S
O72 Zn68 2.086 . S
C73 O69 1.278 . S
C73 O74 1.211 . S
O74 C73 1.211 . S
C75 O67 1.284 . S
C75 O76 1.273 . S
O76 C75 1.273 . S
O77 Zn68 1.977 . S
O77 C70 1.267 . S
C78 O79 1.160 . S
C78 O85 1.185 . S
O79 C78 1.160 . S
O80 Zn81 1.899 . S
O80 C88 1.284 . S
Zn81 O80 1.899 . S
Zn81 O82 2.032 . S
Zn81 O85 2.086 . S
Zn81 O90 1.977 . S
O82 Zn81 2.032 . S
O82 C86 1.278 . S
C83 O84 1.203 . S
C83 O90 1.267 . S
O84 C83 1.203 . S
O85 C78 1.185 . S
O85 Zn81 2.086 . S
C86 O82 1.278 . S
C86 O87 1.211 . S
O87 C86 1.211 . S
C88 O80 1.284 . S
C88 O89 1.273 . S
O89 C88 1.273 . S
O90 Zn81 1.977 . S
O90 C83 1.267 . S
C91 O92 1.160 . S
C91 O98 1.185 . S
O92 C91 1.160 . S
O93 Zn94 1.899 . S
O93 C101 1.284 1_456 S
Zn94 O93 1.899 . S
Zn94 O95 2.032 . S
Zn94 O98 2.086 . S
Zn94 O103 1.977 1_455 S
O95 Zn94 2.032 . S
O95 C99 1.278 1_556 S
C96 O97 1.203 . S
C96 O103 1.267 . S
O97 C96 1.203 . S
O98 C91 1.185 . S
O98 Zn94 2.086 . S
C99 O95 1.278 1_554 S
C99 O100 1.211 1_455 S
O100 C99 1.211 1_655 S
C101 O93 1.284 1_654 S
C101 O102 1.273 . S
O102 C101 1.273 . S
O103 Zn94 1.977 1_655 S
O103 C96 1.267 . S
C104 O105 1.160 . S
C104 O111 1.185 . S
O105 C104 1.160 . S
O106 Zn107 1.899 . S
O106 C114 1.284 . S
Zn107 O106 1.899 . S
Zn107 O108 2.032 . S
Zn107 O111 2.086 . S
Zn107 O116 1.977 1_545 S
O108 Zn107 2.032 . S
O108 C112 1.278 . S
C109 O110 1.203 . S
C109 O116 1.267 . S
O110 C109 1.203 . S
O111 C104 1.185 . S
O111 Zn107 2.086 . S
C112 O108 1.278 . S
C112 O113 1.211 1_545 S
O113 C112 1.211 1_565 S
C114 O106 1.284 . S
C114 O115 1.273 1_545 S
O115 C114 1.273 1_565 S
O116 Zn107 1.977 1_565 S
O116 C109 1.267 . S
C117 O118 1.160 . S
C117 O124 1.185 . S
O118 C117 1.160 . S
O119 Zn120 1.899 . S
O119 C127 1.284 . S
Zn120 O119 1.899 . S
Zn120 O121 2.032 . S
Zn120 O124 2.086 . S
Zn120 O129 1.977 . S
O121 Zn120 2.032 . S
O121 C125 1.278 . S
C122 O123 1.203 . S
C122 O129 1.267 . S
O123 C122 1.203 . S
O124 C117 1.185 . S
O124 Zn120 2.086 . S
C125 O121 1.278 . S
C125 O126 1.211 . S
O126 C125 1.211 . S
C127 O119 1.284 . S
C127 O128 1.273 . S
O128 C127 1.273 . S
O129 Zn120 1.977 . S
O129 C122 1.267 . S
C130 O131 1.165 . S
C130 O137 1.185 . S
O131 C130 1.165 . S
O132 Zn133 1.899 . S
O132 C140 1.284 . S
Zn133 O132 1.899 . S
Zn133 O134 2.032 . S
Zn133 O137 2.086 . S
Zn133 O142 1.977 . S
O134 Zn133 2.032 . S
O134 C138 1.278 . S
C135 O136 1.203 . S
C135 O142 1.267 . S
O136 C135 1.203 . S
O137 C130 1.185 . S
O137 Zn133 2.086 . S
C138 O134 1.278 . S
C138 O139 1.211 . S
O139 C138 1.211 . S
C140 O132 1.284 . S
C140 O141 1.273 . S
O141 C140 1.273 . S
O142 Zn133 1.977 . S
O142 C135 1.267 . S
C143 O144 1.160 . S
C143 O150 1.185 1_554 S
O144 C143 1.160 . S
O145 Zn146 1.899 . S
O145 C153 1.284 . S
Zn146 O145 1.899 . S
Zn146 O147 2.032 1_554 S
Zn146 O150 2.086 1_554 S
Zn146 O155 1.977 . S
O147 Zn146 2.032 1_556 S
O147 C151 1.278 . S
C148 O149 1.203 . S
C148 O155 1.267 . S
O149 C148 1.203 . S
O150 C143 1.185 1_556 S
O150 Zn146 2.086 1_556 S
C151 O147 1.278 . S
C151 O152 1.211 . S
O152 C151 1.211 . S
C153 O145 1.284 . S
C153 O154 1.273 . S
O154 C153 1.273 . S
O155 Zn146 1.977 . S
O155 C148 1.267 . S
C156 O157 1.160 . S
C156 O163 1.185 . S
O157 C156 1.160 . S
O158 Zn159 1.899 . S
O158 C166 1.284 . S
Zn159 O158 1.899 . S
Zn159 O160 2.032 . S
Zn159 O163 2.086 . S
Zn159 O168 1.977 . S
O160 Zn159 2.032 . S
O160 C164 1.278 . S
C161 O162 1.203 . S
C161 O168 1.267 . S
O162 C161 1.203 . S
O163 C156 1.185 . S
O163 Zn159 2.086 . S
C164 O160 1.278 . S
C164 O165 1.211 . S
O165 C164 1.211 . S
C166 O158 1.284 . S
C166 O167 1.273 . S
O167 C166 1.273 . S
O168 Zn159 1.977 . S
O168 C161 1.267 . S
C169 O170 1.160 . S
C169 O176 1.185 . S
O170 C169 1.160 . S
O171 Zn172 1.899 . S
O171 C179 1.284 . S
Zn172 O171 1.899 . S
Zn172 O173 2.032 . S
Zn172 O176 2.086 . S
Zn172 O181 1.977 . S
O173 Zn172 2.032 . S
O173 C177 1.278 . S
C174 O175 1.203 . S
C174 O181 1.267 . S
O175 C174 1.203 . S
O176 C169 1.185 . S
O176 Zn172 2.086 . S
C177 O173 1.278 . S
C177 O178 1.211 . S
O178 C177 1.211 . S
C179 O171 1.284 . S
C179 O180 1.273 . S
O180 C179 1.273 . S
O181 Zn172 1.977 . S
O181 C174 1.267 . S
C182 O183 1.160 . S
C182 O189 1.185 . S
O183 C182 1.160 . S
O184 Zn185 1.899 . S
O184 C192 1.284 . S
Zn185 O184 1.899 . S
Zn185 O186 2.032 . S
Zn185 O189 2.086 . S
Zn185 O194 1.977 . S
O186 Zn185 2.032 . S
O186 C190 1.278 . S
C187 O188 1.203 . S
C187 O194 1.267 . S
O188 C187 1.203 . S
O189 C182 1.185 . S
O189 Zn185 2.086 . S
C190 O186 1.278 . S
C190 O191 1.211 . S
O191 C190 1.211 . S
C192 O184 1.284 . S
C192 O193 1.273 . S
O193 C192 1.273 . S
O194 Zn185 1.977 . S
O194 C187 1.267 . S
C195 O196 1.160 . S
C195 O202 1.185 . S
O196 C195 1.160 . S
O197 Zn198 1.899 . S
O197 C205 1.284 . S
Zn198 O197 1.899 . S
Zn198 O199 2.032 . S
Zn198 O202 2.086 . S
Zn198 O207 1.977 . S
O199 Zn198 2.032 . S
O199 C203 1.278 . S
C200 O201 1.203 . S
C200 O207 1.267 . S
O201 C200 1.203 . S
O202 C195 1.185 . S
O202 Zn198 2.086 . S
C203 O199 1.278 . S
C203 O204 1.211 . S
O204 C203 1.211 . S
C205 O197 1.284 . S
C205 O206 1.273 . S
O206 C205 1.273 . S
O207 Zn198 1.977 . S
O207 C200 1.267 . S
C208 O209 1.160 . S
C208 O215 1.185 . S
O209 C208 1.160 . S
O210 Zn211 1.899 . S
O210 C218 1.284 . S
Zn211 O210 1.899 . S
Zn211 O212 2.032 . S
Zn211 O215 2.086 . S
Zn211 O220 1.977 1_545 S
O212 Zn211 2.032 . S
O212 C216 1.278 . S
C213 O214 1.203 . S
C213 O220 1.267 . S
O214 C213 1.203 . S
O215 C208 1.185 . S
O215 Zn211 2.086 . S
C216 O212 1.278 . S
C216 O217 1.211 1_545 S
O217 C216 1.211 1_565 S
C218 O210 1.284 . S
C218 O219 1.273 . S
O219 C218 1.273 . S
O220 Zn211 1.977 1_565 S
O220 C213 1.267 . S
C221 O222 1.160 . S
C221 O228 1.185 . S
O222 C221 1.160 . S
O223 Zn224 1.899 . S
O223 C231 1.284 . S
Zn224 O223 1.899 . S
Zn224 O225 2.032 . S
Zn224 O228 2.086 . S
Zn224 O233 1.977 . S
O225 Zn224 2.032 . S
O225 C229 1.278 . S
C226 O227 1.203 . S
C226 O233 1.267 . S
O227 C226 1.203 . S
O228 C221 1.185 . S
O228 Zn224 2.086 . S
C229 O225 1.278 . S
C229 O230 1.211 . S
O230 C229 1.211 . S
C231 O223 1.284 . S
C231 O232 1.273 . S
O232 C231 1.273 . S
O233 Zn224 1.977 . S
O233 C226 1.267 . S
C234 O235 1.160 . S
C234 O241 1.185 . S
O235 C234 1.160 . S
O236 Zn237 1.899 . S
O236 C244 1.284 . S
Zn237 O236 1.899 . S
Zn237 O238 2.032 . S
Zn237 O241 2.086 . S
Zn237 O246 1.977 . S
O238 Zn237 2.032 . S
O238 C242 1.278 . S
C239 O240 1.203 . S
C239 O246 1.267 . S
O240 C239 1.203 . S
O241 C234 1.185 . S
O241 Zn237 2.086 . S
C242 O238 1.278 . S
C242 O243 1.211 . S
O243 C242 1.211 . S
C244 O236 1.284 . S
C244 O245 1.273 . S
O245 C244 1.273 . S
O246 Zn237 1.977 . S
O246 C239 1.267 . S
C247 O248 1.160 . S
C247 O254 1.185 . S
O248 C247 1.160 . S
O249 Zn250 1.899 . S
O249 C257 1.284 . S
Zn250 O249 1.899 . S
Zn250 O251 2.032 . S
Zn250 O254 2.086 . S
Zn250 O259 1.977 . S
O251 Zn250 2.032 . S
O251 C255 1.278 . S
C252 O253 1.203 . S
C252 O259 1.267 . S
O253 C252 1.203 . S
O254 C247 1.185 . S
O254 Zn250 2.086 . S
C255 O251 1.278 . S
C255 O256 1.211 . S
O256 C255 1.211 . S
C257 O249 1.284 . S
C257 O258 1.273 . S
O258 C257 1.273 . S
O259 Zn250 1.977 . S
O259 C252 1.267 . S
C260 O261 1.160 . S
C260 O267 1.185 . S
O261 C260 1.160 . S
O262 Zn263 1.899 . S
O262 C270 1.284 . S
Zn263 O262 1.899 . S
Zn263 O264 2.032 1_554 S
Zn263 O267 2.086 . S
Zn263 O272 1.977 . S
O264 Zn263 2.032 1_556 S
O264 C268 1.278 . S
C265 O266 1.203 . S
C265 O272 1.267 . S
O266 C265 1.203 . S
O267 C260 1.185 . S
O267 Zn263 2.086 . S
C268 O264 1.278 . S
C268 O269 1.211 . S
O269 C268 1.211 . S
C270 O262 1.284 . S
C270 O271 1.273 . S
O271 C270 1.273 . S
O272 Zn263 1.977 . S
O272 C265 1.267 . S
C273 O274 1.160 . S
C273 O280 1.185 . S
O274 C273 1.160 . S
O275 Zn276 1.899 . S
O275 C283 1.284 . S
Zn276 O275 1.899 . S
Zn276 O277 2.032 . S
Zn276 O280 2.086 . S
Zn276 O285 1.977 . S
O277 Zn276 2.032 . S
O277 C281 1.278 . S
C278 O279 1.203 . S
C278 O285 1.267 . S
O279 C278 1.203 . S
O280 C273 1.185 . S
O280 Zn276 2.086 . S
C281 O277 1.278 . S
C281 O282 1.211 . S
O282 C281 1.211 . S
C283 O275 1.284 . S
C283 O284 1.273 . S
O284 C283 1.273 . S
O285 Zn276 1.977 . S
O285 C278 1.267 . S
C286 O287 1.160 . S
C286 O293 1.185 . S
O287 C286 1.160 . S
O288 Zn289 1.899 . S
O288 C296 1.284 . S
Zn289 O288 1.899 . S
Zn289 O290 2.032 . S
Zn289 O293 2.086 . S
Zn289 O298 1.977 . S
O290 Zn289 2.032 . S
O290 C294 1.278 . S
C291 O292 1.203 . S
C291 O298 1.267 . S
O292 C291 1.203 . S
O293 C286 1.185 . S
O293 Zn289 2.086 . S
C294 O290 1.278 . S
C294 O295 1.211 . S
O295 C294 1.211 . S
C296 O288 1.284 . S
C296 O297 1.273 . S
O297 C296 1.273 . S
O298 Zn289 1.977 . S
O298 C291 1.267 . S
C299 O300 1.160 . S
C299 O306 1.185 . S
O300 C299 1.160 . S
O301 Zn302 1.899 . S
O301 C309 1.284 . S
Zn302 O301 1.899 . S
Zn302 O303 2.032 . S
Zn302 O306 2.086 . S
Zn302 O311 1.977 . S
O303 Zn302 2.032 . S
O303 C307 1.278 . S
C304 O305 1.203 . S
C304 O311 1.267 . S
O305 C304 1.203 . S
O306 C299 1.185 . S
O306 Zn302 2.086 . S
C307 O303 1.278 . S
C307 O308 1.211 . S
O308 C307 1.211 . S
C309 O301 1.284 . S
C309 O310 1.273 . S
O310 C309 1.273 . S
O311 Zn302 1.977 . S
O311 C304 1.267 . S
Eu312 N341 2.600 . S
Eu312 N347 2.562 . S
Eu312 O356 2.462 . S
Eu312 O357 2.373 . S
Eu312 O359 2.432 . S
Eu312 O360 2.291 . S
Eu312 O364 2.335 . S
Eu312 O367 2.372 . S
Eu312 C376 2.787 . S
C313 N314 1.365 . S
C313 C316 1.405 . S
C313 C320 1.462 . S
N314 C313 1.365 . S
N314 C317 1.319 . S
N314 Eu323 2.600 1_566 S
C315 C317 1.397 . S
C315 C318 1.367 . S
C315 H335 0.931 . S
C316 C313 1.405 . S
C316 C318 1.403 . S
C316 C322 1.439 . S
C317 N314 1.319 . S
C317 C315 1.397 . S
C317 H328 0.930 . S
C318 C315 1.367 . S
C318 C316 1.403 . S
C318 H339 0.929 . S
C319 C320 1.424 1_554 S
C319 C321 1.387 1_554 S
C319 C325 1.404 . S
C320 C313 1.462 . S
C320 C319 1.424 1_556 S
C320 N324 1.343 1_556 S
C321 C319 1.387 1_556 S
C321 C322 1.374 . S
C321 H336 0.931 . S
C322 C316 1.439 . S
C322 C321 1.374 . S
C322 H337 0.931 . S
Eu323 N314 2.600 1_544 S
Eu323 N324 2.562 1_545 S
Eu323 O358 2.335 1_655 S
Eu323 O361 2.372 1_654 S
Eu323 O362 2.462 . S
Eu323 O363 2.373 1_645 S
Eu323 O365 2.432 1_554 S
Eu323 O366 2.291 1_655 S
Eu323 C387 2.787 . S
N324 C320 1.343 1_554 S
N324 Eu323 2.562 1_565 S
N324 C326 1.325 . S
C325 C319 1.404 . S
C325 C327 1.366 . S
C325 H333 0.930 . S
C326 N324 1.325 . S
C326 C327 1.416 . S
C326 H332 0.929 . S
C327 C325 1.366 . S
C327 C326 1.416 . S
C327 H329 0.930 . S
H328 C317 0.930 . S
H329 C327 0.930 . S
H330 C345 0.930 . S
H331 C352 0.930 1_556 S
H332 C326 0.929 . S
H333 C325 0.930 . S
H334 C348 0.929 . S
H335 C315 0.931 . S
H336 C321 0.931 . S
H337 C322 0.931 . S
H338 C343 0.931 . S
H339 C318 0.929 . S
H340 C351 0.930 . S
N341 Eu312 2.600 . S
N341 C342 1.365 . S
N341 C345 1.319 . S
C342 N341 1.365 . S
C342 C344 1.405 . S
C342 C350 1.448 . S
C343 H338 0.931 . S
C343 C345 1.397 . S
C343 C346 1.367 . S
C344 C342 1.405 . S
C344 C346 1.403 . S
C344 C377 1.439 . S
C345 H330 0.930 . S
C345 N341 1.319 . S
C345 C343 1.397 . S
C346 C343 1.367 . S
C346 C344 1.403 . S
C346 H353 0.929 . S
N347 Eu312 2.562 . S
N347 C348 1.325 . S
N347 C350 1.351 . S
C348 H334 0.929 . S
C348 N347 1.325 . S
C348 C352 1.416 . S
C349 C350 1.430 . S
C349 C351 1.404 . S
C349 C378 1.387 . S
C350 C342 1.448 . S
C350 N347 1.351 . S
C350 C349 1.430 . S
C351 H340 0.930 . S
C351 C349 1.404 . S
C351 C352 1.366 . S
C352 H331 0.930 1_554 S
C352 C348 1.416 . S
C352 C351 1.366 . S
H353 C346 0.929 . S
H354 C377 0.931 . S
H355 C378 0.931 . S
O356 Eu312 2.462 . S
O356 C376 1.252 . S
O357 Eu312 2.373 . S
O357 C368 1.249 . S
O358 Eu323 2.335 1_455 S
O358 C368 1.264 . S
O359 Eu312 2.432 . S
O359 C376 1.268 . S
O360 Eu312 2.291 . S
O360 C375 1.255 1_554 S
O361 Eu323 2.372 1_456 S
O361 C375 1.257 . S
O362 Eu323 2.462 . S
O362 C387 1.252 . S
O363 Eu323 2.373 1_465 S
O363 C379 1.249 . S
O364 Eu312 2.335 . S
O364 C379 1.264 1_545 S
O365 Eu323 2.432 1_556 S
O365 C387 1.268 1_556 S
O366 Eu323 2.291 1_455 S
O366 C386 1.255 . S
O367 Eu312 2.372 . S
O367 C386 1.257 . S
C368 O357 1.249 . S
C368 O358 1.264 . S
C369 C372 1.382 . S
C369 C374 1.390 . S
C369 C376 1.506 . S
C370 C371 1.398 . S
C370 C374 1.392 . S
C371 C370 1.398 . S
C371 C373 1.372 . S
C371 H388 0.931 . S
C372 C369 1.382 . S
C372 C373 1.390 . S
C372 H389 0.931 . S
C373 C371 1.372 . S
C373 C372 1.390 . S
C373 H390 0.929 . S
C374 C369 1.390 . S
C374 C370 1.392 . S
C374 H391 0.930 . S
C375 O360 1.255 1_556 S
C375 O361 1.257 . S
C376 Eu312 2.787 . S
C376 O356 1.252 . S
C376 O359 1.268 . S
C376 C369 1.506 . S
C377 C344 1.439 . S
C377 H354 0.931 . S
C377 C378 1.374 . S
C378 C349 1.387 . S
C378 H355 0.931 . S
C378 C377 1.374 . S
C379 O363 1.249 . S
C379 O364 1.264 1_565 S
C380 C383 1.382 . S
C380 C384 1.390 1_556 S
C380 C387 1.506 1_556 S
C381 C382 1.398 1_554 S
C381 C384 1.392 . S
C382 C381 1.398 1_556 S
C382 C385 1.372 . S
C382 H392 0.931 . S
C383 C380 1.382 . S
C383 C385 1.390 . S
C383 H393 0.931 . S
C384 C380 1.390 1_554 S
C384 C381 1.392 . S
C384 H394 0.930 . S
C385 C382 1.372 . S
C385 C383 1.390 . S
C385 H395 0.929 . S
C386 O366 1.255 . S
C386 O367 1.257 . S
C387 Eu323 2.787 . S
C387 O362 1.252 . S
C387 O365 1.268 1_554 S
C387 C380 1.506 1_554 S
H388 C371 0.931 . S
H389 C372 0.931 . S
H390 C373 0.929 . S
H391 C374 0.930 . S
H392 C382 0.931 . S
H393 C383 0.931 . S
H394 C384 0.930 . S
H395 C385 0.929 . S
Eu396 N425 2.600 . S
Eu396 N431 2.562 . S
Eu396 O440 2.462 . S
Eu396 O441 2.373 . S
Eu396 O443 2.432 . S
Eu396 O444 2.291 . S
Eu396 O448 2.335 . S
Eu396 O451 2.372 . S
Eu396 C460 2.787 . S
C397 N398 1.365 . S
C397 C400 1.405 . S
C397 C404 1.448 . S
N398 C397 1.365 . S
N398 C401 1.319 . S
N398 Eu407 2.600 . S
C399 C401 1.397 . S
C399 C402 1.367 . S
C399 H419 0.931 . S
C400 C397 1.405 . S
C400 C402 1.403 . S
C400 C406 1.439 . S
C401 N398 1.319 . S
C401 C399 1.397 . S
C401 H412 0.930 . S
C402 C399 1.367 . S
C402 C400 1.403 . S
C402 H423 0.929 . S
C403 C404 1.430 . S
C403 C405 1.387 . S
C403 C409 1.404 . S
C404 C397 1.448 . S
C404 C403 1.430 . S
C404 N408 1.351 . S
C405 C403 1.387 . S
C405 C406 1.374 . S
C405 H420 0.931 . S
C406 C400 1.439 . S
C406 C405 1.374 . S
C406 H421 0.931 . S
Eu407 N398 2.600 . S
Eu407 N408 2.562 . S
Eu407 O442 2.335 . S
Eu407 O445 2.372 . S
Eu407 O446 2.462 . S
Eu407 O447 2.373 . S
Eu407 O449 2.432 . S
Eu407 O450 2.291 . S
Eu407 C471 2.787 . S
N408 C404 1.351 . S
N408 Eu407 2.562 . S
N408 C410 1.325 . S
C409 C403 1.404 . S
C409 C411 1.366 . S
C409 H417 0.930 . S
C410 N408 1.325 . S
C410 C411 1.416 . S
C410 H416 0.929 . S
C411 C409 1.366 . S
C411 C410 1.416 . S
C411 H413 0.930 . S
H412 C401 0.930 . S
H413 C411 0.930 . S
H414 C429 0.930 . S
H415 C436 0.930 . S
H416 C410 0.929 . S
H417 C409 0.930 . S
H418 C432 0.929 . S
H419 C399 0.931 . S
H420 C405 0.931 . S
H421 C406 0.931 . S
H422 C427 0.931 . S
H423 C402 0.929 . S
H424 C435 0.930 . S
N425 Eu396 2.600 . S
N425 C426 1.365 . S
N425 C429 1.319 . S
C426 N425 1.365 . S
C426 C428 1.405 . S
C426 C434 1.448 . S
C427 H422 0.931 . S
C427 C429 1.397 . S
C427 C430 1.367 . S
C428 C426 1.405 . S
C428 C430 1.403 . S
C428 C461 1.439 . S
C429 H414 0.930 . S
C429 N425 1.319 . S
C429 C427 1.397 . S
C430 C427 1.367 . S
C430 C428 1.403 . S
C430 H437 0.929 . S
N431 Eu396 2.562 . S
N431 C432 1.325 . S
N431 C434 1.351 . S
C432 H418 0.929 . S
C432 N431 1.325 . S
C432 C436 1.416 . S
C433 C434 1.430 . S
C433 C435 1.404 . S
C433 C462 1.387 . S
C434 C426 1.448 . S
C434 N431 1.351 . S
C434 C433 1.430 . S
C435 H424 0.930 . S
C435 C433 1.404 . S
C435 C436 1.366 . S
C436 H415 0.930 . S
C436 C432 1.416 . S
C436 C435 1.366 . S
H437 C430 0.929 . S
H438 C461 0.931 . S
H439 C462 0.931 . S
O440 Eu396 2.462 . S
O440 C460 1.252 . S
O441 Eu396 2.373 . S
O441 C452 1.249 . S
O442 Eu407 2.335 . S
O442 C452 1.264 . S
O443 Eu396 2.432 . S
O443 C460 1.268 . S
O444 Eu396 2.291 . S
O444 C459 1.255 . S
O445 Eu407 2.372 . S
O445 C459 1.257 . S
O446 Eu407 2.462 . S
O446 C471 1.252 . S
O447 Eu407 2.373 . S
O447 C463 1.249 . S
O448 Eu396 2.335 . S
O448 C463 1.264 . S
O449 Eu407 2.432 . S
O449 C471 1.268 . S
O450 Eu407 2.291 . S
O450 C470 1.255 . S
O451 Eu396 2.372 . S
O451 C470 1.257 . S
C452 O441 1.249 . S
C452 O442 1.264 . S
C453 C456 1.382 . S
C453 C458 1.390 . S
C453 C460 1.506 . S
C454 C455 1.398 . S
C454 C458 1.392 . S
C455 C454 1.398 . S
C455 C457 1.372 . S
C455 H472 0.931 . S
C456 C453 1.382 . S
C456 C457 1.390 . S
C456 H473 0.931 . S
C457 C455 1.372 . S
C457 C456 1.390 . S
C457 H474 0.929 . S
C458 C453 1.390 . S
C458 C454 1.392 . S
C458 H475 0.930 . S
C459 O444 1.255 . S
C459 O445 1.257 . S
C460 Eu396 2.787 . S
C460 O440 1.252 . S
C460 O443 1.268 . S
C460 C453 1.506 . S
C461 C428 1.439 . S
C461 H438 0.931 . S
C461 C462 1.374 . S
C462 C433 1.387 . S
C462 H439 0.931 . S
C462 C461 1.374 . S
C463 O447 1.249 . S
C463 O448 1.264 . S
C464 C467 1.382 . S
C464 C468 1.390 . S
C464 C471 1.506 . S
C465 C466 1.398 . S
C465 C468 1.392 . S
C466 C465 1.398 . S
C466 C469 1.372 . S
C466 H476 0.931 . S
C467 C464 1.382 . S
C467 C469 1.390 . S
C467 H477 0.931 . S
C468 C464 1.390 . S
C468 C465 1.392 . S
C468 H478 0.930 . S
C469 C466 1.372 . S
C469 C467 1.390 . S
C469 H479 0.929 . S
C470 O450 1.255 . S
C470 O451 1.257 . S
C471 Eu407 2.787 . S
C471 O446 1.252 . S
C471 O449 1.268 . S
C471 C464 1.506 . S
H472 C455 0.931 . S
H473 C456 0.931 . S
H474 C457 0.929 . S
H475 C458 0.930 . S
H476 C466 0.931 . S
H477 C467 0.931 . S
H478 C468 0.930 . S
H479 C469 0.929 . S
Eu480 N509 2.600 . S
Eu480 N515 2.562 1_545 S
Eu480 O524 2.462 . S
Eu480 O525 2.373 1_545 S
Eu480 O527 2.432 . S
Eu480 O528 2.291 . S
Eu480 O532 2.335 . S
Eu480 O535 2.372 . S
Eu480 C544 2.787 . S
C481 N482 1.365 . S
C481 C484 1.405 . S
C481 C488 1.448 . S
N482 C481 1.365 . S
N482 C485 1.319 . S
N482 Eu491 2.600 . S
C483 C485 1.397 . S
C483 C486 1.367 . S
C483 H503 0.931 . S
C484 C481 1.405 . S
C484 C486 1.403 . S
C484 C490 1.439 . S
C485 N482 1.319 . S
C485 C483 1.397 . S
C485 H496 0.930 . S
C486 C483 1.367 . S
C486 C484 1.403 . S
C486 H507 0.929 . S
C487 C488 1.430 . S
C487 C489 1.387 . S
C487 C493 1.404 . S
C488 C481 1.448 . S
C488 C487 1.430 . S
C488 N492 1.351 . S
C489 C487 1.387 . S
C489 C490 1.374 . S
C489 H504 0.931 . S
C490 C484 1.439 . S
C490 C489 1.374 . S
C490 H505 0.931 . S
Eu491 N482 2.600 . S
Eu491 N492 2.562 . S
Eu491 O526 2.335 1_545 S
Eu491 O529 2.372 . S
Eu491 O530 2.462 . S
Eu491 O531 2.373 . S
Eu491 O533 2.432 . S
Eu491 O534 2.291 . S
Eu491 C555 2.787 . S
N492 C488 1.351 . S
N492 Eu491 2.562 . S
N492 C494 1.325 . S
C493 C487 1.404 . S
C493 C495 1.366 . S
C493 H501 0.930 . S
C494 N492 1.325 . S
C494 C495 1.416 . S
C494 H500 0.929 . S
C495 C493 1.366 . S
C495 C494 1.416 . S
C495 H497 0.930 . S
H496 C485 0.930 . S
H497 C495 0.930 . S
H498 C513 0.930 . S
H499 C520 0.930 . S
H500 C494 0.929 . S
H501 C493 0.930 . S
H502 C516 0.929 . S
H503 C483 0.931 . S
H504 C489 0.931 . S
H505 C490 0.931 . S
H506 C511 0.931 1_545 S
H507 C486 0.929 . S
H508 C519 0.930 . S
N509 Eu480 2.600 . S
N509 C510 1.365 1_545 S
N509 C513 1.319 . S
C510 N509 1.365 1_565 S
C510 C512 1.405 . S
C510 C518 1.448 . S
C511 H506 0.931 1_565 S
C511 C513 1.397 1_565 S
C511 C514 1.367 . S
C512 C510 1.405 . S
C512 C514 1.403 . S
C512 C545 1.439 . S
C513 H498 0.930 . S
C513 N509 1.319 . S
C513 C511 1.397 1_545 S
C514 C511 1.367 . S
C514 C512 1.403 . S
C514 H521 0.929 . S
N515 Eu480 2.562 1_565 S
N515 C516 1.325 . S
N515 C518 1.351 . S
C516 H502 0.929 . S
C516 N515 1.325 . S
C516 C520 1.416 . S
C517 C518 1.430 . S
C517 C519 1.404 . S
C517 C546 1.387 . S
C518 C510 1.448 . S
C518 N515 1.351 . S
C518 C517 1.430 . S
C519 H508 0.930 . S
C519 C517 1.404 . S
C519 C520 1.366 . S
C520 H499 0.930 . S
C520 C516 1.416 . S
C520 C519 1.366 . S
H521 C514 0.929 . S
H522 C545 0.931 . S
H523 C546 0.931 . S
O524 Eu480 2.462 . S
O524 C544 1.252 . S
O525 Eu480 2.373 1_565 S
O525 C536 1.249 . S
O526 Eu491 2.335 1_565 S
O526 C536 1.264 . S
O527 Eu480 2.432 . S
O527 C544 1.268 . S
O528 Eu480 2.291 . S
O528 C543 1.255 . S
O529 Eu491 2.372 . S
O529 C543 1.257 . S
O530 Eu491 2.462 . S
O530 C555 1.252 . S
O531 Eu491 2.373 . S
O531 C547 1.249 . S
O532 Eu480 2.335 . S
O532 C547 1.264 . S
O533 Eu491 2.432 . S
O533 C555 1.268 . S
O534 Eu491 2.291 . S
O534 C554 1.255 . S
O535 Eu480 2.372 . S
O535 C554 1.257 . S
C536 O525 1.249 . S
C536 O526 1.264 . S
C537 C540 1.382 . S
C537 C542 1.390 . S
C537 C544 1.506 . S
C538 C539 1.398 . S
C538 C542 1.392 . S
C539 C538 1.398 . S
C539 C541 1.372 . S
C539 H556 0.931 . S
C540 C537 1.382 . S
C540 C541 1.390 . S
C540 H557 0.931 . S
C541 C539 1.372 . S
C541 C540 1.390 . S
C541 H558 0.929 . S
C542 C537 1.390 . S
C542 C538 1.392 . S
C542 H559 0.930 . S
C543 O528 1.255 . S
C543 O529 1.257 . S
C544 Eu480 2.787 . S
C544 O524 1.252 . S
C544 O527 1.268 . S
C544 C537 1.506 . S
C545 C512 1.439 . S
C545 H522 0.931 . S
C545 C546 1.374 . S
C546 C517 1.387 . S
C546 H523 0.931 . S
C546 C545 1.374 . S
C547 O531 1.249 . S
C547 O532 1.264 . S
C548 C551 1.382 . S
C548 C552 1.390 . S
C548 C555 1.506 1_565 S
C549 C550 1.398 . S
C549 C552 1.392 . S
C550 C549 1.398 . S
C550 C553 1.372 . S
C550 H560 0.931 . S
C551 C548 1.382 . S
C551 C553 1.390 . S
C551 H561 0.931 . S
C552 C548 1.390 . S
C552 C549 1.392 . S
C552 H562 0.930 . S
C553 C550 1.372 . S
C553 C551 1.390 . S
C553 H563 0.929 . S
C554 O534 1.255 . S
C554 O535 1.257 . S
C555 Eu491 2.787 . S
C555 O530 1.252 . S
C555 O533 1.268 . S
C555 C548 1.506 1_545 S
H556 C539 0.931 . S
H557 C540 0.931 . S
H558 C541 0.929 . S
H559 C542 0.930 . S
H560 C550 0.931 . S
H561 C551 0.931 . S
H562 C552 0.930 . S
H563 C553 0.929 . S
Eu564 N593 2.600 . S
Eu564 N599 2.562 . S
Eu564 O608 2.462 . S
Eu564 O609 2.373 . S
Eu564 O611 2.432 . S
Eu564 O612 2.291 . S
Eu564 O616 2.335 . S
Eu564 O619 2.372 . S
Eu564 C628 2.787 . S
C565 N566 1.365 . S
C565 C568 1.405 . S
C565 C572 1.448 . S
N566 C565 1.365 . S
N566 C569 1.319 . S
N566 Eu575 2.600 . S
C567 C569 1.397 . S
C567 C570 1.367 . S
C567 H587 0.931 . S
C568 C565 1.405 . S
C568 C570 1.403 . S
C568 C574 1.439 . S
C569 N566 1.319 . S
C569 C567 1.397 . S
C569 H580 0.930 . S
C570 C567 1.367 . S
C570 C568 1.403 . S
C570 H591 0.929 . S
C571 C572 1.430 . S
C571 C573 1.387 . S
C571 C577 1.404 . S
C572 C565 1.448 . S
C572 C571 1.430 . S
C572 N576 1.351 . S
C573 C571 1.387 . S
C573 C574 1.374 . S
C573 H588 0.931 . S
C574 C568 1.439 . S
C574 C573 1.374 . S
C574 H589 0.931 . S
Eu575 N566 2.600 . S
Eu575 N576 2.562 . S
Eu575 O610 2.335 . S
Eu575 O613 2.372 . S
Eu575 O614 2.462 . S
Eu575 O615 2.373 . S
Eu575 O617 2.432 . S
Eu575 O618 2.291 . S
Eu575 C639 2.787 . S
N576 C572 1.351 . S
N576 Eu575 2.562 . S
N576 C578 1.325 . S
C577 C571 1.404 . S
C577 C579 1.366 . S
C577 H585 0.930 . S
C578 N576 1.325 . S
C578 C579 1.416 . S
C578 H584 0.929 . S
C579 C577 1.366 . S
C579 C578 1.416 . S
C579 H581 0.930 . S
H580 C569 0.930 . S
H581 C579 0.930 . S
H582 C597 0.930 . S
H583 C604 0.930 . S
H584 C578 0.929 . S
H585 C577 0.930 . S
H586 C600 0.929 . S
H587 C567 0.931 . S
H588 C573 0.931 . S
H589 C574 0.931 . S
H590 C595 0.931 . S
H591 C570 0.929 . S
H592 C603 0.930 . S
N593 Eu564 2.600 . S
N593 C594 1.365 . S
N593 C597 1.319 . S
C594 N593 1.365 . S
C594 C596 1.405 . S
C594 C602 1.448 . S
C595 H590 0.931 . S
C595 C597 1.397 . S
C595 C598 1.367 . S
C596 C594 1.405 . S
C596 C598 1.403 . S
C596 C629 1.439 . S
C597 H582 0.930 . S
C597 N593 1.319 . S
C597 C595 1.397 . S
C598 C595 1.367 . S
C598 C596 1.403 . S
C598 H605 0.929 . S
N599 Eu564 2.562 . S
N599 C600 1.325 . S
N599 C602 1.351 . S
C600 H586 0.929 . S
C600 N599 1.325 . S
C600 C604 1.416 . S
C601 C602 1.430 . S
C601 C603 1.404 . S
C601 C630 1.387 . S
C602 C594 1.448 . S
C602 N599 1.351 . S
C602 C601 1.430 . S
C603 H592 0.930 . S
C603 C601 1.404 . S
C603 C604 1.366 . S
C604 H583 0.930 . S
C604 C600 1.416 . S
C604 C603 1.366 . S
H605 C598 0.929 . S
H606 C629 0.931 . S
H607 C630 0.931 . S
O608 Eu564 2.462 . S
O608 C628 1.252 . S
O609 Eu564 2.373 . S
O609 C620 1.249 . S
O610 Eu575 2.335 . S
O610 C620 1.264 . S
O611 Eu564 2.432 . S
O611 C628 1.268 . S
O612 Eu564 2.291 . S
O612 C627 1.255 . S
O613 Eu575 2.372 . S
O613 C627 1.257 . S
O614 Eu575 2.462 . S
O614 C639 1.252 . S
O615 Eu575 2.373 . S
O615 C631 1.249 . S
O616 Eu564 2.335 . S
O616 C631 1.264 . S
O617 Eu575 2.432 . S
O617 C639 1.268 . S
O618 Eu575 2.291 . S
O618 C638 1.255 . S
O619 Eu564 2.372 . S
O619 C638 1.257 . S
C620 O609 1.249 . S
C620 O610 1.264 . S
C621 C624 1.382 . S
C621 C626 1.390 . S
C621 C628 1.506 . S
C622 C623 1.398 . S
C622 C626 1.392 . S
C623 C622 1.398 . S
C623 C625 1.372 . S
C623 H640 0.931 . S
C624 C621 1.382 . S
C624 C625 1.390 . S
C624 H641 0.931 . S
C625 C623 1.372 . S
C625 C624 1.390 . S
C625 H642 0.929 . S
C626 C621 1.390 . S
C626 C622 1.392 . S
C626 H643 0.930 . S
C627 O612 1.255 . S
C627 O613 1.257 . S
C628 Eu564 2.787 . S
C628 O608 1.252 . S
C628 O611 1.268 . S
C628 C621 1.506 . S
C629 C596 1.439 . S
C629 H606 0.931 . S
C629 C630 1.374 . S
C630 C601 1.387 . S
C630 H607 0.931 . S
C630 C629 1.374 . S
C631 O615 1.249 . S
C631 O616 1.264 . S
C632 C635 1.382 . S
C632 C636 1.390 . S
C632 C639 1.506 . S
C633 C634 1.398 . S
C633 C636 1.392 . S
C634 C633 1.398 . S
C634 C637 1.372 . S
C634 H644 0.931 . S
C635 C632 1.382 . S
C635 C637 1.390 . S
C635 H645 0.931 . S
C636 C632 1.390 . S
C636 C633 1.392 . S
C636 H646 0.930 . S
C637 C634 1.372 . S
C637 C635 1.390 . S
C637 H647 0.929 . S
C638 O618 1.255 . S
C638 O619 1.257 . S
C639 Eu575 2.787 . S
C639 O614 1.252 . S
C639 O617 1.268 . S
C639 C632 1.506 . S
H640 C623 0.931 . S
H641 C624 0.931 . S
H642 C625 0.929 . S
H643 C626 0.930 . S
H644 C634 0.931 . S
H645 C635 0.931 . S
H646 C636 0.930 . S
H647 C637 0.929 . S
Eu648 N677 2.600 1_545 S
Eu648 N683 2.562 1_545 S
Eu648 O692 2.462 1_545 S
Eu648 O693 2.373 . S
Eu648 O695 2.432 1_545 S
Eu648 O696 2.291 . S
Eu648 O700 2.335 . S
Eu648 O703 2.372 . S
Eu648 C712 2.787 1_545 S
C649 N650 1.365 1_455 S
C649 C652 1.405 1_455 S
C649 C656 1.448 . S
N650 C649 1.365 1_655 S
N650 C653 1.319 . S
N650 Eu659 2.600 1_655 S
C651 C653 1.397 . S
C651 C654 1.367 . S
C651 H671 0.931 . S
C652 C649 1.405 1_655 S
C652 C654 1.403 . S
C652 C658 1.439 1_655 S
C653 N650 1.319 . S
C653 C651 1.397 . S
C653 H664 0.930 . S
C654 C651 1.367 . S
C654 C652 1.403 . S
C654 H675 0.929 . S
C655 C656 1.430 . S
C655 C657 1.387 . S
C655 C661 1.404 . S
C656 C649 1.448 . S
C656 C655 1.430 . S
C656 N660 1.351 . S
C657 C655 1.387 . S
C657 C658 1.374 . S
C657 H672 0.931 . S
C658 C652 1.439 1_455 S
C658 C657 1.374 . S
C658 H673 0.906 1_455 S
Eu659 N650 2.600 1_455 S
Eu659 N660 2.562 . S
Eu659 O694 2.335 . S
Eu659 O697 2.372 1_455 S
Eu659 O698 2.462 . S
Eu659 O699 2.373 . S
Eu659 O701 2.432 1_455 S
Eu659 O702 2.291 . S
Eu659 C723 2.787 . S
N660 C656 1.351 . S
N660 Eu659 2.562 . S
N660 C662 1.325 . S
C661 C655 1.404 . S
C661 C663 1.366 . S
C661 H669 0.930 . S
C662 N660 1.325 . S
C662 C663 1.416 . S
C662 H668 0.929 . S
C663 C661 1.366 . S
C663 C662 1.416 . S
C663 H665 0.930 . S
H664 C653 0.930 . S
H665 C663 0.930 . S
H666 C681 0.930 1_545 S
H667 C688 0.930 . S
H668 C662 0.929 . S
H669 C661 0.930 . S
H670 C684 0.929 . S
H671 C651 0.931 . S
H672 C657 0.931 . S
H673 C658 0.906 1_655 S
H674 C679 0.931 1_545 S
H675 C654 0.929 . S
H676 C687 0.930 . S
N677 Eu648 2.600 1_565 S
N677 C678 1.365 . S
N677 C681 1.319 . S
C678 N677 1.365 . S
C678 C680 1.405 . S
C678 C686 1.448 . S
C679 H674 0.931 1_565 S
C679 C681 1.397 . S
C679 C682 1.367 . S
C680 C678 1.405 . S
C680 C682 1.403 . S
C680 C713 1.439 . S
C681 H666 0.930 1_565 S
C681 N677 1.319 . S
C681 C679 1.397 . S
C682 C679 1.367 . S
C682 C680 1.403 . S
C682 H689 0.929 . S
N683 Eu648 2.562 1_565 S
N683 C684 1.325 1_455 S
N683 C686 1.351 . S
C684 H670 0.929 . S
C684 N683 1.325 1_655 S
C684 C688 1.416 . S
C685 C686 1.430 . S
C685 C687 1.404 1_455 S
C685 C714 1.387 . S
C686 C678 1.448 . S
C686 N683 1.351 . S
C686 C685 1.430 . S
C687 H676 0.930 . S
C687 C685 1.404 1_655 S
C687 C688 1.366 . S
C688 H667 0.930 . S
C688 C684 1.416 . S
C688 C687 1.366 . S
H689 C682 0.929 . S
H690 C713 0.931 . S
H691 C714 0.931 . S
O692 Eu648 2.462 1_565 S
O692 C712 1.252 . S
O693 Eu648 2.373 . S
O693 C704 1.249 . S
O694 Eu659 2.335 . S
O694 C704 1.264 . S
O695 Eu648 2.432 1_565 S
O695 C712 1.268 . S
O696 Eu648 2.291 . S
O696 C711 1.255 1_455 S
O697 Eu659 2.372 1_655 S
O697 C711 1.257 . S
O698 Eu659 2.462 . S
O698 C723 1.252 . S
O699 Eu659 2.373 . S
O699 C715 1.249 . S
O700 Eu648 2.335 . S
O700 C715 1.264 . S
O701 Eu659 2.432 1_655 S
O701 C723 1.268 1_655 S
O702 Eu659 2.291 . S
O702 C722 1.255 . S
O703 Eu648 2.372 . S
O703 C722 1.257 . S
C704 O693 1.249 . S
C704 O694 1.264 . S
C705 C708 1.382 . S
C705 C710 1.390 . S
C705 C712 1.506 . S
C706 C707 1.398 . S
C706 C710 1.392 . S
C707 C706 1.398 . S
C707 C709 1.372 . S
C707 H724 0.931 . S
C708 C705 1.382 . S
C708 C709 1.390 . S
C708 H725 0.931 . S
C709 C707 1.372 . S
C709 C708 1.390 . S
C709 H726 0.929 . S
C710 C705 1.390 . S
C710 C706 1.392 . S
C710 H727 0.930 . S
C711 O696 1.255 1_655 S
C711 O697 1.257 . S
C712 Eu648 2.787 1_565 S
C712 O692 1.252 . S
C712 O695 1.268 . S
C712 C705 1.506 . S
C713 C680 1.439 . S
C713 H690 0.931 . S
C713 C714 1.374 . S
C714 C685 1.387 . S
C714 H691 0.931 . S
C714 C713 1.374 . S
C715 O699 1.249 . S
C715 O700 1.264 . S
C716 C719 1.382 1_455 S
C716 C720 1.390 . S
C716 C723 1.506 . S
C717 C718 1.398 1_455 S
C717 C720 1.392 . S
C718 C717 1.398 1_655 S
C718 C721 1.372 . S
C718 H728 0.931 . S
C719 C716 1.382 1_655 S
C719 C721 1.390 . S
C719 H729 0.931 . S
C720 C716 1.390 . S
C720 C717 1.392 . S
C720 H730 0.930 . S
C721 C718 1.372 . S
C721 C719 1.390 . S
C721 H731 0.929 . S
C722 O702 1.255 . S
C722 O703 1.257 . S
C723 Eu659 2.787 . S
C723 O698 1.252 . S
C723 O701 1.268 1_455 S
C723 C716 1.506 . S
H724 C707 0.931 . S
H725 C708 0.931 . S
H726 C709 0.929 . S
H727 C710 0.930 . S
H728 C718 0.931 . S
H729 C719 0.931 . S
H730 C720 0.930 . S
H731 C721 0.929 . S
Eu732 N761 2.600 . S
Eu732 N767 2.562 . S
Eu732 O776 2.462 . S
Eu732 O777 2.373 . S
Eu732 O779 2.432 . S
Eu732 O780 2.291 . S
Eu732 O784 2.335 . S
Eu732 O787 2.372 . S
Eu732 C796 2.787 . S
C733 N734 1.365 . S
C733 C736 1.405 . S
C733 C740 1.448 . S
N734 C733 1.365 . S
N734 C737 1.319 . S
N734 Eu743 2.600 . S
C735 C737 1.397 . S
C735 C738 1.367 . S
C735 H755 0.931 . S
C736 C733 1.405 . S
C736 C738 1.403 . S
C736 C742 1.439 . S
C737 N734 1.319 . S
C737 C735 1.397 . S
C737 H748 0.930 . S
C738 C735 1.367 . S
C738 C736 1.403 . S
C738 H759 0.929 . S
C739 C740 1.430 . S
C739 C741 1.387 . S
C739 C745 1.404 . S
C740 C733 1.448 . S
C740 C739 1.430 . S
C740 N744 1.351 . S
C741 C739 1.387 . S
C741 C742 1.374 . S
C741 H756 0.931 . S
C742 C736 1.439 . S
C742 C741 1.374 . S
C742 H757 0.931 . S
Eu743 N734 2.600 . S
Eu743 N744 2.562 . S
Eu743 O778 2.335 . S
Eu743 O781 2.372 . S
Eu743 O782 2.462 . S
Eu743 O783 2.373 . S
Eu743 O785 2.432 . S
Eu743 O786 2.291 . S
Eu743 C807 2.787 . S
N744 C740 1.351 . S
N744 Eu743 2.562 . S
N744 C746 1.325 . S
C745 C739 1.404 . S
C745 C747 1.366 . S
C745 H753 0.930 . S
C746 N744 1.325 . S
C746 C747 1.416 . S
C746 H752 0.929 . S
C747 C745 1.366 . S
C747 C746 1.416 . S
C747 H749 0.930 . S
H748 C737 0.930 . S
H749 C747 0.930 . S
H750 C765 0.930 . S
H751 C772 0.930 . S
H752 C746 0.929 . S
H753 C745 0.930 . S
H754 C768 0.929 . S
H755 C735 0.931 . S
H756 C741 0.931 . S
H757 C742 0.931 . S
H758 C763 0.931 . S
H759 C738 0.929 . S
H760 C771 0.930 . S
N761 Eu732 2.600 . S
N761 C762 1.365 . S
N761 C765 1.319 . S
C762 N761 1.365 . S
C762 C764 1.405 . S
C762 C770 1.448 . S
C763 H758 0.931 . S
C763 C765 1.397 . S
C763 C766 1.367 . S
C764 C762 1.405 . S
C764 C766 1.403 . S
C764 C797 1.439 . S
C765 H750 0.930 . S
C765 N761 1.319 . S
C765 C763 1.397 . S
C766 C763 1.367 . S
C766 C764 1.403 . S
C766 H773 0.929 . S
N767 Eu732 2.562 . S
N767 C768 1.325 . S
N767 C770 1.351 . S
C768 H754 0.929 . S
C768 N767 1.325 . S
C768 C772 1.416 . S
C769 C770 1.430 . S
C769 C771 1.404 . S
C769 C798 1.387 . S
C770 C762 1.448 . S
C770 N767 1.351 . S
C770 C769 1.430 . S
C771 H760 0.930 . S
C771 C769 1.404 . S
C771 C772 1.366 . S
C772 H751 0.930 . S
C772 C768 1.416 . S
C772 C771 1.366 . S
H773 C766 0.929 . S
H774 C797 0.931 . S
H775 C798 0.931 . S
O776 Eu732 2.462 . S
O776 C796 1.252 . S
O777 Eu732 2.373 . S
O777 C788 1.249 . S
O778 Eu743 2.335 . S
O778 C788 1.264 . S
O779 Eu732 2.432 . S
O779 C796 1.268 . S
O780 Eu732 2.291 . S
O780 C795 1.255 . S
O781 Eu743 2.372 . S
O781 C795 1.257 . S
O782 Eu743 2.462 . S
O782 C807 1.252 . S
O783 Eu743 2.373 . S
O783 C799 1.249 . S
O784 Eu732 2.335 . S
O784 C799 1.264 . S
O785 Eu743 2.432 . S
O785 C807 1.268 . S
O786 Eu743 2.291 . S
O786 C806 1.255 . S
O787 Eu732 2.372 . S
O787 C806 1.257 . S
C788 O777 1.249 . S
C788 O778 1.264 . S
C789 C792 1.382 . S
C789 C794 1.390 . S
C789 C796 1.506 . S
C790 C791 1.398 . S
C790 C794 1.392 . S
C791 C790 1.398 . S
C791 C793 1.372 . S
C791 H808 0.931 . S
C792 C789 1.382 . S
C792 C793 1.390 . S
C792 H809 0.931 . S
C793 C791 1.372 . S
C793 C792 1.390 . S
C793 H810 0.929 . S
C794 C789 1.390 . S
C794 C790 1.392 . S
C794 H811 0.930 . S
C795 O780 1.255 . S
C795 O781 1.257 . S
C796 Eu732 2.787 . S
C796 O776 1.252 . S
C796 O779 1.268 . S
C796 C789 1.506 . S
C797 C764 1.439 . S
C797 H774 0.931 . S
C797 C798 1.374 . S
C798 C769 1.387 . S
C798 H775 0.931 . S
C798 C797 1.374 . S
C799 O783 1.249 . S
C799 O784 1.264 . S
C800 C803 1.382 . S
C800 C804 1.390 . S
C800 C807 1.506 . S
C801 C802 1.398 . S
C801 C804 1.392 . S
C802 C801 1.398 . S
C802 C805 1.372 . S
C802 H812 0.931 . S
C803 C800 1.382 . S
C803 C805 1.390 . S
C803 H813 0.931 . S
C804 C800 1.390 . S
C804 C801 1.392 . S
C804 H814 0.930 . S
C805 C802 1.372 . S
C805 C803 1.390 . S
C805 H815 0.929 . S
C806 O786 1.255 . S
C806 O787 1.257 . S
C807 Eu743 2.787 . S
C807 O782 1.252 . S
C807 O785 1.268 . S
C807 C800 1.506 . S
H808 C791 0.931 . S
H809 C792 0.931 . S
H810 C793 0.929 . S
H811 C794 0.930 . S
H812 C802 0.931 . S
H813 C803 0.931 . S
H814 C804 0.930 . S
H815 C805 0.929 . S
Eu816 N845 2.600 1_554 S
Eu816 N851 2.562 1_554 S
Eu816 O860 2.462 1_554 S
Eu816 O861 2.373 . S
Eu816 O863 2.432 1_554 S
Eu816 O864 2.291 . S
Eu816 O868 2.335 . S
Eu816 O871 2.372 . S
Eu816 C880 2.787 1_554 S
C817 N818 1.365 . S
C817 C820 1.405 . S
C817 C824 1.448 1_565 S
N818 C817 1.365 . S
N818 C821 1.319 . S
N818 Eu827 2.600 1_565 S
C819 C821 1.397 . S
C819 C822 1.367 . S
C819 H839 0.931 . S
C820 C817 1.405 . S
C820 C822 1.403 . S
C820 C826 1.439 . S
C821 N818 1.319 . S
C821 C819 1.397 . S
C821 H832 0.930 . S
C822 C819 1.367 . S
C822 C820 1.403 . S
C822 H843 0.929 . S
C823 C824 1.430 . S
C823 C825 1.387 . S
C823 C829 1.404 . S
C824 C817 1.448 1_545 S
C824 C823 1.430 . S
C824 N828 1.351 . S
C825 C823 1.387 . S
C825 C826 1.374 1_545 S
C825 H840 0.931 . S
C826 C820 1.439 . S
C826 C825 1.374 1_565 S
C826 H841 0.931 . S
Eu827 N818 2.600 1_545 S
Eu827 N828 2.562 . S
Eu827 O862 2.335 . S
Eu827 O865 2.372 1_545 S
Eu827 O866 2.462 . S
Eu827 O867 2.373 . S
Eu827 O869 2.432 1_545 S
Eu827 O870 2.291 . S
Eu827 C891 2.787 1_545 S
N828 C824 1.351 . S
N828 Eu827 2.562 . S
N828 C830 1.325 . S
C829 C823 1.404 . S
C829 C831 1.366 . S
C829 H837 0.930 . S
C830 N828 1.325 . S
C830 C831 1.416 . S
C830 H836 0.929 . S
C831 C829 1.366 . S
C831 C830 1.416 . S
C831 H833 0.930 . S
H832 C821 0.930 . S
H833 C831 0.930 . S
H834 C849 0.924 1_554 S
H835 C856 0.930 . S
H836 C830 0.929 . S
H837 C829 0.930 . S
H838 C852 0.905 1_565 S
H839 C819 0.931 . S
H840 C825 0.931 . S
H841 C826 0.931 . S
H842 C847 0.931 1_554 S
H843 C822 0.929 . S
H844 C855 0.930 1_565 S
N845 Eu816 2.600 1_556 S
N845 C846 1.365 . S
N845 C849 1.322 . S
C846 N845 1.365 . S
C846 C848 1.405 . S
C846 C854 1.448 . S
C847 H842 0.931 1_556 S
C847 C849 1.399 . S
C847 C850 1.367 . S
C848 C846 1.405 . S
C848 C850 1.403 . S
C848 C881 1.439 . S
C849 H834 0.924 1_556 S
C849 N845 1.322 . S
C849 C847 1.399 . S
C850 C847 1.367 . S
C850 C848 1.403 . S
C850 H857 0.929 . S
N851 Eu816 2.562 1_556 S
N851 C852 1.325 . S
N851 C854 1.351 . S
C852 H838 0.905 1_545 S
C852 N851 1.325 . S
C852 C856 1.416 1_545 S
C853 C854 1.430 . S
C853 C855 1.404 . S
C853 C882 1.387 . S
C854 C846 1.448 . S
C854 N851 1.351 . S
C854 C853 1.430 . S
C855 H844 0.930 1_545 S
C855 C853 1.404 . S
C855 C856 1.366 1_545 S
C856 H835 0.930 . S
C856 C852 1.416 1_565 S
C856 C855 1.366 1_565 S
H857 C850 0.929 . S
H858 C881 0.931 . S
H859 C882 0.931 . S
O860 Eu816 2.462 1_556 S
O860 C880 1.252 . S
O861 Eu816 2.373 . S
O861 C872 1.249 . S
O862 Eu827 2.335 . S
O862 C872 1.264 . S
O863 Eu816 2.432 1_556 S
O863 C880 1.268 . S
O864 Eu816 2.291 . S
O864 C879 1.255 1_545 S
O865 Eu827 2.372 1_565 S
O865 C879 1.257 . S
O866 Eu827 2.462 . S
O866 C891 1.252 1_545 S
O867 Eu827 2.373 . S
O867 C883 1.249 . S
O868 Eu816 2.335 . S
O868 C883 1.264 . S
O869 Eu827 2.432 1_565 S
O869 C891 1.268 . S
O870 Eu827 2.291 . S
O870 C890 1.255 . S
O871 Eu816 2.372 . S
O871 C890 1.257 . S
C872 O861 1.249 . S
C872 O862 1.264 . S
C873 C876 1.382 . S
C873 C878 1.390 . S
C873 C880 1.506 . S
C874 C875 1.398 . S
C874 C878 1.392 . S
C875 C874 1.398 . S
C875 C877 1.372 . S
C875 H892 0.931 . S
C876 C873 1.382 . S
C876 C877 1.390 . S
C876 H893 0.931 . S
C877 C875 1.372 . S
C877 C876 1.390 . S
C877 H894 0.929 . S
C878 C873 1.390 . S
C878 C874 1.392 . S
C878 H895 0.930 . S
C879 O864 1.255 1_565 S
C879 O865 1.257 . S
C880 Eu816 2.787 1_556 S
C880 O860 1.252 . S
C880 O863 1.268 . S
C880 C873 1.506 . S
C881 C848 1.439 . S
C881 H858 0.931 . S
C881 C882 1.374 . S
C882 C853 1.387 . S
C882 H859 0.931 . S
C882 C881 1.374 . S
C883 O867 1.249 . S
C883 O868 1.264 . S
C884 C887 1.382 . S
C884 C888 1.390 1_565 S
C884 C891 1.506 . S
C885 C886 1.398 . S
C885 C888 1.392 1_565 S
C886 C885 1.398 . S
C886 C889 1.372 . S
C886 H896 0.931 . S
C887 C884 1.382 . S
C887 C889 1.390 . S
C887 H897 0.931 . S
C888 C884 1.390 1_545 S
C888 C885 1.392 1_545 S
C888 H898 0.930 . S
C889 C886 1.372 . S
C889 C887 1.390 . S
C889 H899 0.929 . S
C890 O870 1.255 . S
C890 O871 1.257 . S
C891 Eu827 2.787 1_565 S
C891 O866 1.252 1_565 S
C891 O869 1.268 . S
C891 C884 1.506 . S
H892 C875 0.931 . S
H893 C876 0.931 . S
H894 C877 0.929 . S
H895 C878 0.930 . S
H896 C886 0.931 . S
H897 C887 0.931 . S
H898 C888 0.930 . S
H899 C889 0.929 . S
Eu900 N929 2.600 . S
Eu900 N935 2.562 . S
Eu900 O944 2.462 . S
Eu900 O945 2.373 . S
Eu900 O947 2.432 . S
Eu900 O948 2.291 . S
Eu900 O952 2.335 . S
Eu900 O955 2.372 . S
Eu900 C964 2.787 . S
C901 N902 1.365 . S
C901 C904 1.405 . S
C901 C908 1.448 . S
N902 C901 1.365 . S
N902 C905 1.319 . S
N902 Eu911 2.600 . S
C903 C905 1.397 . S
C903 C906 1.367 . S
C903 H923 0.931 . S
C904 C901 1.405 . S
C904 C906 1.403 . S
C904 C910 1.439 . S
C905 N902 1.319 . S
C905 C903 1.397 . S
C905 H916 0.930 . S
C906 C903 1.367 . S
C906 C904 1.403 . S
C906 H927 0.929 . S
C907 C908 1.430 . S
C907 C909 1.387 . S
C907 C913 1.404 . S
C908 C901 1.448 . S
C908 C907 1.430 . S
C908 N912 1.351 . S
C909 C907 1.387 . S
C909 C910 1.374 . S
C909 H924 0.931 . S
C910 C904 1.439 . S
C910 C909 1.374 . S
C910 H925 0.931 . S
Eu911 N902 2.600 . S
Eu911 N912 2.562 . S
Eu911 O946 2.335 . S
Eu911 O949 2.372 . S
Eu911 O950 2.462 . S
Eu911 O951 2.373 . S
Eu911 O953 2.432 . S
Eu911 O954 2.291 . S
Eu911 C975 2.787 . S
N912 C908 1.351 . S
N912 Eu911 2.562 . S
N912 C914 1.325 . S
C913 C907 1.404 . S
C913 C915 1.366 . S
C913 H921 0.930 . S
C914 N912 1.325 . S
C914 C915 1.416 . S
C914 H920 0.929 . S
C915 C913 1.366 . S
C915 C914 1.416 . S
C915 H917 0.930 . S
H916 C905 0.930 . S
H917 C915 0.930 . S
H918 C933 0.930 . S
H919 C940 0.930 . S
H920 C914 0.929 . S
H921 C913 0.930 . S
H922 C936 0.929 . S
H923 C903 0.931 . S
H924 C909 0.931 . S
H925 C910 0.931 . S
H926 C931 0.931 . S
H927 C906 0.929 . S
H928 C939 0.930 . S
N929 Eu900 2.600 . S
N929 C930 1.365 . S
N929 C933 1.319 . S
C930 N929 1.365 . S
C930 C932 1.405 . S
C930 C938 1.448 . S
C931 H926 0.931 . S
C931 C933 1.397 . S
C931 C934 1.367 . S
C932 C930 1.405 . S
C932 C934 1.403 . S
C932 C965 1.439 . S
C933 H918 0.930 . S
C933 N929 1.319 . S
C933 C931 1.397 . S
C934 C931 1.367 . S
C934 C932 1.403 . S
C934 H941 0.929 . S
N935 Eu900 2.562 . S
N935 C936 1.325 . S
N935 C938 1.351 . S
C936 H922 0.929 . S
C936 N935 1.325 . S
C936 C940 1.416 . S
C937 C938 1.430 . S
C937 C939 1.404 . S
C937 C966 1.387 . S
C938 C930 1.448 . S
C938 N935 1.351 . S
C938 C937 1.430 . S
C939 H928 0.930 . S
C939 C937 1.404 . S
C939 C940 1.366 . S
C940 H919 0.930 . S
C940 C936 1.416 . S
C940 C939 1.366 . S
H941 C934 0.929 . S
H942 C965 0.931 . S
H943 C966 0.931 . S
O944 Eu900 2.462 . S
O944 C964 1.252 . S
O945 Eu900 2.373 . S
O945 C956 1.249 . S
O946 Eu911 2.335 . S
O946 C956 1.264 . S
O947 Eu900 2.432 . S
O947 C964 1.268 . S
O948 Eu900 2.291 . S
O948 C963 1.255 . S
O949 Eu911 2.372 . S
O949 C963 1.257 . S
O950 Eu911 2.462 . S
O950 C975 1.252 . S
O951 Eu911 2.373 . S
O951 C967 1.249 . S
O952 Eu900 2.335 . S
O952 C967 1.264 . S
O953 Eu911 2.432 . S
O953 C975 1.268 . S
O954 Eu911 2.291 . S
O954 C974 1.255 . S
O955 Eu900 2.372 . S
O955 C974 1.257 . S
C956 O945 1.249 . S
C956 O946 1.264 . S
C957 C960 1.382 . S
C957 C962 1.390 . S
C957 C964 1.506 . S
C958 C959 1.398 . S
C958 C962 1.392 . S
C959 C958 1.398 . S
C959 C961 1.372 . S
C959 H976 0.931 . S
C960 C957 1.382 . S
C960 C961 1.390 . S
C960 H977 0.931 . S
C961 C959 1.372 . S
C961 C960 1.390 . S
C961 H978 0.929 . S
C962 C957 1.390 . S
C962 C958 1.392 . S
C962 H979 0.930 . S
C963 O948 1.255 . S
C963 O949 1.257 . S
C964 Eu900 2.787 . S
C964 O944 1.252 . S
C964 O947 1.268 . S
C964 C957 1.506 . S
C965 C932 1.439 . S
C965 H942 0.931 . S
C965 C966 1.374 . S
C966 C937 1.387 . S
C966 H943 0.931 . S
C966 C965 1.374 . S
C967 O951 1.249 . S
C967 O952 1.264 . S
C968 C971 1.382 . S
C968 C972 1.390 . S
C968 C975 1.506 . S
C969 C970 1.398 . S
C969 C972 1.392 . S
C970 C969 1.398 . S
C970 C973 1.372 . S
C970 H980 0.931 . S
C971 C968 1.382 . S
C971 C973 1.390 . S
C971 H981 0.931 . S
C972 C968 1.390 . S
C972 C969 1.392 . S
C972 H982 0.930 . S
C973 C970 1.372 . S
C973 C971 1.390 . S
C973 H983 0.929 . S
C974 O954 1.255 . S
C974 O955 1.257 . S
C975 Eu911 2.787 . S
C975 O950 1.252 . S
C975 O953 1.268 . S
C975 C968 1.506 . S
H976 C959 0.931 . S
H977 C960 0.931 . S
H978 C961 0.929 . S
H979 C962 0.930 . S
H980 C970 0.931 . S
H981 C971 0.931 . S
H982 C972 0.930 . S
H983 C973 0.929 . S
Eu984 N1013 2.600 1_554 S
Eu984 N1019 2.562 1_554 S
Eu984 O1028 2.462 . S
Eu984 O1029 2.373 1_554 S
Eu984 O1031 2.432 . S
Eu984 O1032 2.291 . S
Eu984 O1036 2.335 . S
Eu984 O1039 2.372 . S
Eu984 C1048 2.787 . S
C985 N986 1.365 . S
C985 C988 1.405 . S
C985 C992 1.448 . S
N986 C985 1.365 . S
N986 C989 1.319 . S
N986 Eu995 2.600 . S
C987 C989 1.397 . S
C987 C990 1.367 . S
C987 H1007 0.931 . S
C988 C985 1.405 . S
C988 C990 1.403 . S
C988 C994 1.439 . S
C989 N986 1.319 . S
C989 C987 1.397 . S
C989 H1000 0.930 . S
C990 C987 1.367 . S
C990 C988 1.403 . S
C990 H1011 0.929 . S
C991 C992 1.430 . S
C991 C993 1.387 . S
C991 C997 1.404 . S
C992 C985 1.448 . S
C992 C991 1.430 . S
C992 N996 1.351 . S
C993 C991 1.387 . S
C993 C994 1.374 . S
C993 H1008 0.931 . S
C994 C988 1.439 . S
C994 C993 1.374 . S
C994 H1009 0.931 . S
Eu995 N986 2.600 . S
Eu995 N996 2.562 . S
Eu995 O1030 2.335 1_554 S
Eu995 O1033 2.372 . S
Eu995 O1034 2.462 . S
Eu995 O1035 2.373 . S
Eu995 O1037 2.432 . S
Eu995 O1038 2.291 . S
Eu995 C1059 2.787 . S
N996 C992 1.351 . S
N996 Eu995 2.562 . S
N996 C998 1.325 . S
C997 C991 1.404 . S
C997 C999 1.366 . S
C997 H1005 0.930 . S
C998 N996 1.325 . S
C998 C999 1.416 . S
C998 H1004 0.929 . S
C999 C997 1.366 . S
C999 C998 1.416 . S
C999 H1001 0.930 . S
H1000 C989 0.930 . S
H1001 C999 0.930 . S
H1002 C1017 0.930 1_554 S
H1003 C1024 0.930 . S
H1004 C998 0.929 . S
H1005 C997 0.930 . S
H1006 C1020 0.929 1_554 S
H1007 C987 0.931 . S
H1008 C993 0.931 . S
H1009 C994 0.931 . S
H1010 C1015 0.931 . S
H1011 C990 0.929 . S
H1012 C1023 0.930 . S
N1013 Eu984 2.600 1_556 S
N1013 C1014 1.365 . S
N1013 C1017 1.319 . S
C1014 N1013 1.365 . S
C1014 C1016 1.405 . S
C1014 C1022 1.448 . S
C1015 H1010 0.931 . S
C1015 C1017 1.397 . S
C1015 C1018 1.367 . S
C1016 C1014 1.405 . S
C1016 C1018 1.403 . S
C1016 C1049 1.439 . S
C1017 H1002 0.930 1_556 S
C1017 N1013 1.319 . S
C1017 C1015 1.397 . S
C1018 C1015 1.367 . S
C1018 C1016 1.403 . S
C1018 H1025 0.929 . S
N1019 Eu984 2.562 1_556 S
N1019 C1020 1.325 . S
N1019 C1022 1.351 . S
C1020 H1006 0.929 1_556 S
C1020 N1019 1.325 . S
C1020 C1024 1.416 . S
C1021 C1022 1.430 . S
C1021 C1023 1.404 . S
C1021 C1050 1.387 . S
C1022 C1014 1.448 . S
C1022 N1019 1.351 . S
C1022 C1021 1.430 . S
C1023 H1012 0.930 . S
C1023 C1021 1.404 . S
C1023 C1024 1.366 . S
C1024 H1003 0.930 . S
C1024 C1020 1.416 . S
C1024 C1023 1.366 . S
H1025 C1018 0.929 . S
H1026 C1049 0.931 . S
H1027 C1050 0.931 . S
O1028 Eu984 2.462 . S
O1028 C1048 1.252 . S
O1029 Eu984 2.373 1_556 S
O1029 C1040 1.249 . S
O1030 Eu995 2.335 1_556 S
O1030 C1040 1.264 . S
O1031 Eu984 2.432 . S
O1031 C1048 1.268 . S
O1032 Eu984 2.291 . S
O1032 C1047 1.255 . S
O1033 Eu995 2.372 . S
O1033 C1047 1.257 . S
O1034 Eu995 2.462 . S
O1034 C1059 1.252 . S
O1035 Eu995 2.373 . S
O1035 C1051 1.249 . S
O1036 Eu984 2.335 . S
O1036 C1051 1.264 . S
O1037 Eu995 2.432 . S
O1037 C1059 1.268 . S
O1038 Eu995 2.291 . S
O1038 C1058 1.255 . S
O1039 Eu984 2.372 . S
O1039 C1058 1.257 . S
C1040 O1029 1.249 . S
C1040 O1030 1.264 . S
C1041 C1044 1.382 . S
C1041 C1046 1.390 . S
C1041 C1048 1.506 . S
C1042 C1043 1.398 . S
C1042 C1046 1.392 . S
C1043 C1042 1.398 . S
C1043 C1045 1.372 . S
C1043 H1060 0.931 . S
C1044 C1041 1.382 . S
C1044 C1045 1.390 . S
C1044 H1061 0.931 . S
C1045 C1043 1.372 . S
C1045 C1044 1.390 . S
C1045 H1062 0.929 . S
C1046 C1041 1.390 . S
C1046 C1042 1.392 . S
C1046 H1063 0.930 . S
C1047 O1032 1.255 . S
C1047 O1033 1.257 . S
C1048 Eu984 2.787 . S
C1048 O1028 1.252 . S
C1048 O1031 1.268 . S
C1048 C1041 1.506 . S
C1049 C1016 1.439 . S
C1049 H1026 0.931 . S
C1049 C1050 1.374 . S
C1050 C1021 1.387 . S
C1050 H1027 0.931 . S
C1050 C1049 1.374 . S
C1051 O1035 1.249 . S
C1051 O1036 1.264 . S
C1052 C1055 1.382 . S
C1052 C1056 1.390 . S
C1052 C1059 1.506 1_556 S
C1053 C1054 1.398 . S
C1053 C1056 1.392 . S
C1054 C1053 1.398 . S
C1054 C1057 1.372 . S
C1054 H1064 0.931 . S
C1055 C1052 1.382 . S
C1055 C1057 1.390 . S
C1055 H1065 0.931 1_556 S
C1056 C1052 1.390 . S
C1056 C1053 1.392 . S
C1056 H1066 0.930 . S
C1057 C1054 1.372 . S
C1057 C1055 1.390 . S
C1057 H1067 0.929 . S
C1058 O1038 1.255 . S
C1058 O1039 1.257 . S
C1059 Eu995 2.787 . S
C1059 O1034 1.252 . S
C1059 O1037 1.268 . S
C1059 C1052 1.506 1_554 S
H1060 C1043 0.931 . S
H1061 C1044 0.931 . S
H1062 C1045 0.929 . S
H1063 C1046 0.930 . S
H1064 C1054 0.931 . S
H1065 C1055 0.931 1_554 S
H1066 C1056 0.930 . S
H1067 C1057 0.929 . S
Eu1068 N1097 2.600 . S
Eu1068 N1103 2.562 . S
Eu1068 O1112 2.462 . S
Eu1068 O1113 2.373 . S
Eu1068 O1115 2.432 . S
Eu1068 O1116 2.291 . S
Eu1068 O1120 2.335 . S
Eu1068 O1123 2.372 . S
Eu1068 C1132 2.787 . S
C1069 N1070 1.365 . S
C1069 C1072 1.405 . S
C1069 C1076 1.448 . S
N1070 C1069 1.365 . S
N1070 C1073 1.319 . S
N1070 Eu1079 2.600 . S
C1071 C1073 1.397 . S
C1071 C1074 1.367 . S
C1071 H1091 0.931 . S
C1072 C1069 1.405 . S
C1072 C1074 1.403 . S
C1072 C1078 1.439 . S
C1073 N1070 1.319 . S
C1073 C1071 1.397 . S
C1073 H1084 0.930 . S
C1074 C1071 1.367 . S
C1074 C1072 1.403 . S
C1074 H1095 0.929 . S
C1075 C1076 1.430 . S
C1075 C1077 1.387 . S
C1075 C1081 1.404 . S
C1076 C1069 1.448 . S
C1076 C1075 1.430 . S
C1076 N1080 1.351 . S
C1077 C1075 1.387 . S
C1077 C1078 1.374 . S
C1077 H1092 0.931 . S
C1078 C1072 1.439 . S
C1078 C1077 1.374 . S
C1078 H1093 0.931 . S
Eu1079 N1070 2.600 . S
Eu1079 N1080 2.562 . S
Eu1079 O1114 2.335 . S
Eu1079 O1117 2.372 . S
Eu1079 O1118 2.462 . S
Eu1079 O1119 2.373 . S
Eu1079 O1121 2.432 . S
Eu1079 O1122 2.291 . S
Eu1079 C1143 2.787 . S
N1080 C1076 1.351 . S
N1080 Eu1079 2.562 . S
N1080 C1082 1.325 . S
C1081 C1075 1.404 . S
C1081 C1083 1.366 . S
C1081 H1089 0.930 . S
C1082 N1080 1.325 . S
C1082 C1083 1.416 . S
C1082 H1088 0.929 . S
C1083 C1081 1.366 . S
C1083 C1082 1.416 . S
C1083 H1085 0.930 . S
H1084 C1073 0.930 . S
H1085 C1083 0.930 . S
H1086 C1101 0.930 . S
H1087 C1108 0.930 . S
H1088 C1082 0.929 . S
H1089 C1081 0.930 . S
H1090 C1104 0.929 . S
H1091 C1071 0.931 . S
H1092 C1077 0.931 . S
H1093 C1078 0.931 . S
H1094 C1099 0.931 . S
H1095 C1074 0.929 . S
H1096 C1107 0.930 . S
N1097 Eu1068 2.600 . S
N1097 C1098 1.365 . S
N1097 C1101 1.319 . S
C1098 N1097 1.365 . S
C1098 C1100 1.405 . S
C1098 C1106 1.448 . S
C1099 H1094 0.931 . S
C1099 C1101 1.397 . S
C1099 C1102 1.367 . S
C1100 C1098 1.405 . S
C1100 C1102 1.403 . S
C1100 C1133 1.439 . S
C1101 H1086 0.930 . S
C1101 N1097 1.319 . S
C1101 C1099 1.397 . S
C1102 C1099 1.367 . S
C1102 C1100 1.403 . S
C1102 H1109 0.929 . S
N1103 Eu1068 2.562 . S
N1103 C1104 1.325 . S
N1103 C1106 1.351 . S
C1104 H1090 0.929 . S
C1104 N1103 1.325 . S
C1104 C1108 1.416 . S
C1105 C1106 1.430 . S
C1105 C1107 1.404 . S
C1105 C1134 1.387 . S
C1106 C1098 1.448 . S
C1106 N1103 1.351 . S
C1106 C1105 1.430 . S
C1107 H1096 0.930 . S
C1107 C1105 1.404 . S
C1107 C1108 1.366 . S
C1108 H1087 0.930 . S
C1108 C1104 1.416 . S
C1108 C1107 1.366 . S
H1109 C1102 0.929 . S
H1110 C1133 0.931 . S
H1111 C1134 0.931 . S
O1112 Eu1068 2.462 . S
O1112 C1132 1.252 . S
O1113 Eu1068 2.373 . S
O1113 C1124 1.249 . S
O1114 Eu1079 2.335 . S
O1114 C1124 1.264 . S
O1115 Eu1068 2.432 . S
O1115 C1132 1.268 . S
O1116 Eu1068 2.291 . S
O1116 C1131 1.255 . S
O1117 Eu1079 2.372 . S
O1117 C1131 1.257 . S
O1118 Eu1079 2.462 . S
O1118 C1143 1.252 . S
O1119 Eu1079 2.373 . S
O1119 C1135 1.249 . S
O1120 Eu1068 2.335 . S
O1120 C1135 1.264 . S
O1121 Eu1079 2.432 . S
O1121 C1143 1.268 . S
O1122 Eu1079 2.291 . S
O1122 C1142 1.255 . S
O1123 Eu1068 2.372 . S
O1123 C1142 1.257 . S
C1124 O1113 1.249 . S
C1124 O1114 1.264 . S
C1125 C1128 1.382 . S
C1125 C1130 1.390 . S
C1125 C1132 1.506 . S
C1126 C1127 1.398 . S
C1126 C1130 1.392 . S
C1127 C1126 1.398 . S
C1127 C1129 1.372 . S
C1127 H1144 0.931 . S
C1128 C1125 1.382 . S
C1128 C1129 1.390 . S
C1128 H1145 0.931 . S
C1129 C1127 1.372 . S
C1129 C1128 1.390 . S
C1129 H1146 0.929 . S
C1130 C1125 1.390 . S
C1130 C1126 1.392 . S
C1130 H1147 0.930 . S
C1131 O1116 1.255 . S
C1131 O1117 1.257 . S
C1132 Eu1068 2.787 . S
C1132 O1112 1.252 . S
C1132 O1115 1.268 . S
C1132 C1125 1.506 . S
C1133 C1100 1.439 . S
C1133 H1110 0.931 . S
C1133 C1134 1.374 . S
C1134 C1105 1.387 . S
C1134 H1111 0.931 . S
C1134 C1133 1.374 . S
C1135 O1119 1.249 . S
C1135 O1120 1.264 . S
C1136 C1139 1.382 . S
C1136 C1140 1.390 . S
C1136 C1143 1.506 . S
C1137 C1138 1.398 . S
C1137 C1140 1.392 . S
C1138 C1137 1.398 . S
C1138 C1141 1.372 . S
C1138 H1148 0.931 . S
C1139 C1136 1.382 . S
C1139 C1141 1.390 . S
C1139 H1149 0.931 . S
C1140 C1136 1.390 . S
C1140 C1137 1.392 . S
C1140 H1150 0.930 . S
C1141 C1138 1.372 . S
C1141 C1139 1.390 . S
C1141 H1151 0.929 . S
C1142 O1122 1.255 . S
C1142 O1123 1.257 . S
C1143 Eu1079 2.787 . S
C1143 O1118 1.252 . S
C1143 O1121 1.268 . S
C1143 C1136 1.506 . S
H1144 C1127 0.931 . S
H1145 C1128 0.931 . S
H1146 C1129 0.929 . S
H1147 C1130 0.930 . S
H1148 C1138 0.931 . S
H1149 C1139 0.931 . S
H1150 C1140 0.930 . S
H1151 C1141 0.929 . S
Eu1152 N1181 2.600 . S
Eu1152 N1187 2.562 1_455 S
Eu1152 O1196 2.462 . S
Eu1152 O1197 2.373 1_455 S
Eu1152 O1199 2.432 . S
Eu1152 O1200 2.291 . S
Eu1152 O1204 2.335 . S
Eu1152 O1207 2.372 . S
Eu1152 C1216 2.787 . S
C1153 N1154 1.365 . S
C1153 C1156 1.405 . S
C1153 C1160 1.448 . S
N1154 C1153 1.365 . S
N1154 C1157 1.319 . S
N1154 Eu1163 2.600 . S
C1155 C1157 1.397 . S
C1155 C1158 1.367 . S
C1155 H1175 0.931 . S
C1156 C1153 1.405 . S
C1156 C1158 1.403 . S
C1156 C1162 1.439 . S
C1157 N1154 1.319 . S
C1157 C1155 1.397 . S
C1157 H1168 0.930 . S
C1158 C1155 1.367 . S
C1158 C1156 1.403 . S
C1158 H1179 0.929 . S
C1159 C1160 1.430 . S
C1159 C1161 1.387 . S
C1159 C1165 1.404 . S
C1160 C1153 1.448 . S
C1160 C1159 1.430 . S
C1160 N1164 1.351 . S
C1161 C1159 1.387 . S
C1161 C1162 1.374 . S
C1161 H1176 0.931 . S
C1162 C1156 1.439 . S
C1162 C1161 1.374 . S
C1162 H1177 0.931 . S
Eu1163 N1154 2.600 . S
Eu1163 N1164 2.562 . S
Eu1163 O1198 2.335 1_455 S
Eu1163 O1201 2.372 . S
Eu1163 O1202 2.462 . S
Eu1163 O1203 2.373 . S
Eu1163 O1205 2.432 . S
Eu1163 O1206 2.291 . S
Eu1163 C1227 2.787 . S
N1164 C1160 1.351 . S
N1164 Eu1163 2.562 . S
N1164 C1166 1.325 . S
C1165 C1159 1.404 . S
C1165 C1167 1.366 . S
C1165 H1173 0.930 . S
C1166 N1164 1.325 . S
C1166 C1167 1.416 . S
C1166 H1172 0.929 . S
C1167 C1165 1.366 . S
C1167 C1166 1.416 . S
C1167 H1169 0.930 . S
H1168 C1157 0.930 . S
H1169 C1167 0.930 . S
H1170 C1185 0.930 . S
H1171 C1192 0.930 . S
H1172 C1166 0.929 . S
H1173 C1165 0.930 . S
H1174 C1188 0.929 1_455 S
H1175 C1155 0.931 . S
H1176 C1161 0.931 . S
H1177 C1162 0.931 . S
H1178 C1183 0.931 . S
H1179 C1158 0.929 . S
H1180 C1191 0.930 . S
N1181 Eu1152 2.600 . S
N1181 C1182 1.365 1_455 S
N1181 C1185 1.319 . S
C1182 N1181 1.365 1_655 S
C1182 C1184 1.405 . S
C1182 C1190 1.448 . S
C1183 H1178 0.931 . S
C1183 C1185 1.397 1_655 S
C1183 C1186 1.367 . S
C1184 C1182 1.405 . S
C1184 C1186 1.403 . S
C1184 C1217 1.439 . S
C1185 H1170 0.930 . S
C1185 N1181 1.319 . S
C1185 C1183 1.397 1_455 S
C1186 C1183 1.367 . S
C1186 C1184 1.403 . S
C1186 H1193 0.929 . S
N1187 Eu1152 2.562 1_655 S
N1187 C1188 1.325 . S
N1187 C1190 1.351 . S
C1188 H1174 0.929 1_655 S
C1188 N1187 1.325 . S
C1188 C1192 1.416 . S
C1189 C1190 1.430 . S
C1189 C1191 1.404 . S
C1189 C1218 1.387 . S
C1190 C1182 1.448 . S
C1190 N1187 1.351 . S
C1190 C1189 1.430 . S
C1191 H1180 0.930 . S
C1191 C1189 1.404 . S
C1191 C1192 1.366 . S
C1192 H1171 0.930 . S
C1192 C1188 1.416 . S
C1192 C1191 1.366 . S
H1193 C1186 0.929 . S
H1194 C1217 0.931 . S
H1195 C1218 0.931 . S
O1196 Eu1152 2.462 . S
O1196 C1216 1.252 . S
O1197 Eu1152 2.373 1_655 S
O1197 C1208 1.249 . S
O1198 Eu1163 2.335 1_655 S
O1198 C1208 1.264 . S
O1199 Eu1152 2.432 . S
O1199 C1216 1.268 . S
O1200 Eu1152 2.291 . S
O1200 C1215 1.255 . S
O1201 Eu1163 2.372 . S
O1201 C1215 1.257 . S
O1202 Eu1163 2.462 . S
O1202 C1227 1.252 . S
O1203 Eu1163 2.373 . S
O1203 C1219 1.249 . S
O1204 Eu1152 2.335 . S
O1204 C1219 1.264 . S
O1205 Eu1163 2.432 . S
O1205 C1227 1.268 . S
O1206 Eu1163 2.291 . S
O1206 C1226 1.255 . S
O1207 Eu1152 2.372 . S
O1207 C1226 1.257 . S
C1208 O1197 1.249 . S
C1208 O1198 1.264 . S
C1209 C1212 1.382 . S
C1209 C1214 1.390 . S
C1209 C1216 1.506 . S
C1210 C1211 1.398 . S
C1210 C1214 1.392 . S
C1211 C1210 1.398 . S
C1211 C1213 1.372 . S
C1211 H1228 0.931 . S
C1212 C1209 1.382 . S
C1212 C1213 1.390 . S
C1212 H1229 0.931 . S
C1213 C1211 1.372 . S
C1213 C1212 1.390 . S
C1213 H1230 0.929 . S
C1214 C1209 1.390 . S
C1214 C1210 1.392 . S
C1214 H1231 0.930 . S
C1215 O1200 1.255 . S
C1215 O1201 1.257 . S
C1216 Eu1152 2.787 . S
C1216 O1196 1.252 . S
C1216 O1199 1.268 . S
C1216 C1209 1.506 . S
C1217 C1184 1.439 . S
C1217 H1194 0.931 . S
C1217 C1218 1.374 . S
C1218 C1189 1.387 . S
C1218 H1195 0.931 . S
C1218 C1217 1.374 . S
C1219 O1203 1.249 . S
C1219 O1204 1.264 . S
C1220 C1223 1.382 . S
C1220 C1224 1.390 . S
C1220 C1227 1.506 1_655 S
C1221 C1222 1.398 . S
C1221 C1224 1.392 . S
C1222 C1221 1.398 . S
C1222 C1225 1.372 . S
C1222 H1232 0.931 . S
C1223 C1220 1.382 . S
C1223 C1225 1.390 . S
C1223 H1233 0.931 . S
C1224 C1220 1.390 . S
C1224 C1221 1.392 . S
C1224 H1234 0.930 . S
C1225 C1222 1.372 . S
C1225 C1223 1.390 . S
C1225 H1235 0.929 . S
C1226 O1206 1.255 . S
C1226 O1207 1.257 . S
C1227 Eu1163 2.787 . S
C1227 O1202 1.252 . S
C1227 O1205 1.268 . S
C1227 C1220 1.506 1_455 S
H1228 C1211 0.931 . S
H1229 C1212 0.931 . S
H1230 C1213 0.929 . S
H1231 C1214 0.930 . S
H1232 C1222 0.931 . S
H1233 C1223 0.931 . S
H1234 C1224 0.930 . S
H1235 C1225 0.929 . S
Eu1236 N1265 2.600 . S
Eu1236 N1271 2.562 . S
Eu1236 O1280 2.462 . S
Eu1236 O1281 2.373 . S
Eu1236 O1283 2.432 . S
Eu1236 O1284 2.291 . S
Eu1236 O1288 2.335 . S
Eu1236 O1291 2.372 . S
Eu1236 C1300 2.787 . S
C1237 N1238 1.365 . S
C1237 C1240 1.405 . S
C1237 C1244 1.448 . S
N1238 C1237 1.365 . S
N1238 C1241 1.319 . S
N1238 Eu1247 2.600 . S
C1239 C1241 1.397 . S
C1239 C1242 1.367 . S
C1239 H1259 0.931 . S
C1240 C1237 1.405 . S
C1240 C1242 1.403 . S
C1240 C1246 1.439 . S
C1241 N1238 1.319 . S
C1241 C1239 1.397 . S
C1241 H1252 0.930 . S
C1242 C1239 1.367 . S
C1242 C1240 1.403 . S
C1242 H1263 0.929 . S
C1243 C1244 1.430 . S
C1243 C1245 1.387 . S
C1243 C1249 1.404 . S
C1244 C1237 1.448 . S
C1244 C1243 1.430 . S
C1244 N1248 1.351 . S
C1245 C1243 1.387 . S
C1245 C1246 1.374 . S
C1245 H1260 0.931 . S
C1246 C1240 1.439 . S
C1246 C1245 1.374 . S
C1246 H1261 0.931 . S
Eu1247 N1238 2.600 . S
Eu1247 N1248 2.562 . S
Eu1247 O1282 2.335 . S
Eu1247 O1285 2.372 . S
Eu1247 O1286 2.462 . S
Eu1247 O1287 2.373 . S
Eu1247 O1289 2.432 . S
Eu1247 O1290 2.291 . S
Eu1247 C1311 2.787 . S
N1248 C1244 1.351 . S
N1248 Eu1247 2.562 . S
N1248 C1250 1.325 . S
C1249 C1243 1.404 . S
C1249 C1251 1.366 . S
C1249 H1257 0.930 . S
C1250 N1248 1.325 . S
C1250 C1251 1.416 . S
C1250 H1256 0.929 . S
C1251 C1249 1.366 . S
C1251 C1250 1.416 . S
C1251 H1253 0.930 . S
H1252 C1241 0.930 . S
H1253 C1251 0.930 . S
H1254 C1269 0.930 . S
H1255 C1276 0.930 . S
H1256 C1250 0.929 . S
H1257 C1249 0.930 . S
H1258 C1272 0.929 . S
H1259 C1239 0.931 . S
H1260 C1245 0.931 . S
H1261 C1246 0.931 . S
H1262 C1267 0.931 . S
H1263 C1242 0.929 . S
H1264 C1275 0.930 . S
N1265 Eu1236 2.600 . S
N1265 C1266 1.365 . S
N1265 C1269 1.319 . S
C1266 N1265 1.365 . S
C1266 C1268 1.405 . S
C1266 C1274 1.448 . S
C1267 H1262 0.931 . S
C1267 C1269 1.397 . S
C1267 C1270 1.367 . S
C1268 C1266 1.405 . S
C1268 C1270 1.403 . S
C1268 C1301 1.439 . S
C1269 H1254 0.930 . S
C1269 N1265 1.319 . S
C1269 C1267 1.397 . S
C1270 C1267 1.367 . S
C1270 C1268 1.403 . S
C1270 H1277 0.929 . S
N1271 Eu1236 2.562 . S
N1271 C1272 1.325 . S
N1271 C1274 1.351 . S
C1272 H1258 0.929 . S
C1272 N1271 1.325 . S
C1272 C1276 1.416 . S
C1273 C1274 1.430 . S
C1273 C1275 1.404 . S
C1273 C1302 1.387 . S
C1274 C1266 1.448 . S
C1274 N1271 1.351 . S
C1274 C1273 1.430 . S
C1275 H1264 0.930 . S
C1275 C1273 1.404 . S
C1275 C1276 1.366 . S
C1276 H1255 0.930 . S
C1276 C1272 1.416 . S
C1276 C1275 1.366 . S
H1277 C1270 0.929 . S
H1278 C1301 0.931 . S
H1279 C1302 0.931 . S
O1280 Eu1236 2.462 . S
O1280 C1300 1.252 . S
O1281 Eu1236 2.373 . S
O1281 C1292 1.249 . S
O1282 Eu1247 2.335 . S
O1282 C1292 1.264 . S
O1283 Eu1236 2.432 . S
O1283 C1300 1.268 . S
O1284 Eu1236 2.291 . S
O1284 C1299 1.255 . S
O1285 Eu1247 2.372 . S
O1285 C1299 1.257 . S
O1286 Eu1247 2.462 . S
O1286 C1311 1.252 . S
O1287 Eu1247 2.373 . S
O1287 C1303 1.249 . S
O1288 Eu1236 2.335 . S
O1288 C1303 1.264 . S
O1289 Eu1247 2.432 . S
O1289 C1311 1.268 . S
O1290 Eu1247 2.291 . S
O1290 C1310 1.255 . S
O1291 Eu1236 2.372 . S
O1291 C1310 1.257 . S
C1292 O1281 1.249 . S
C1292 O1282 1.264 . S
C1293 C1296 1.382 . S
C1293 C1298 1.390 . S
C1293 C1300 1.506 . S
C1294 C1295 1.398 . S
C1294 C1298 1.392 . S
C1295 C1294 1.398 . S
C1295 C1297 1.372 . S
C1295 H1312 0.931 . S
C1296 C1293 1.382 . S
C1296 C1297 1.390 . S
C1296 H1313 0.931 . S
C1297 C1295 1.372 . S
C1297 C1296 1.390 . S
C1297 H1314 0.929 . S
C1298 C1293 1.390 . S
C1298 C1294 1.392 . S
C1298 H1315 0.930 . S
C1299 O1284 1.255 . S
C1299 O1285 1.257 . S
C1300 Eu1236 2.787 . S
C1300 O1280 1.252 . S
C1300 O1283 1.268 . S
C1300 C1293 1.506 . S
C1301 C1268 1.439 . S
C1301 H1278 0.931 . S
C1301 C1302 1.374 . S
C1302 C1273 1.387 . S
C1302 H1279 0.931 . S
C1302 C1301 1.374 . S
C1303 O1287 1.249 . S
C1303 O1288 1.264 . S
C1304 C1307 1.382 . S
C1304 C1308 1.390 . S
C1304 C1311 1.506 . S
C1305 C1306 1.398 . S
C1305 C1308 1.392 . S
C1306 C1305 1.398 . S
C1306 C1309 1.372 . S
C1306 H1316 0.931 . S
C1307 C1304 1.382 . S
C1307 C1309 1.390 . S
C1307 H1317 0.931 . S
C1308 C1304 1.390 . S
C1308 C1305 1.392 . S
C1308 H1318 0.930 . S
C1309 C1306 1.372 . S
C1309 C1307 1.390 . S
C1309 H1319 0.929 . S
C1310 O1290 1.255 . S
C1310 O1291 1.257 . S
C1311 Eu1247 2.787 . S
C1311 O1286 1.252 . S
C1311 O1289 1.268 . S
C1311 C1304 1.506 . S
H1312 C1295 0.931 . S
H1313 C1296 0.931 . S
H1314 C1297 0.929 . S
H1315 C1298 0.930 . S
H1316 C1306 0.931 . S
H1317 C1307 0.931 . S
H1318 C1308 0.930 . S
H1319 C1309 0.929 . S
Eu1320 N1349 2.600 . S
Eu1320 N1355 2.562 . S
Eu1320 O1364 2.462 . S
Eu1320 O1365 2.373 . S
Eu1320 O1367 2.432 . S
Eu1320 O1368 2.291 . S
Eu1320 O1372 2.335 . S
Eu1320 O1375 2.372 . S
Eu1320 C1384 2.787 . S
C1321 N1322 1.365 . S
C1321 C1324 1.405 . S
C1321 C1328 1.448 . S
N1322 C1321 1.365 . S
N1322 C1325 1.319 . S
N1322 Eu1331 2.600 . S
C1323 C1325 1.397 . S
C1323 C1326 1.367 . S
C1323 H1343 0.931 . S
C1324 C1321 1.405 . S
C1324 C1326 1.403 . S
C1324 C1330 1.439 . S
C1325 N1322 1.319 . S
C1325 C1323 1.397 . S
C1325 H1336 0.930 . S
C1326 C1323 1.367 . S
C1326 C1324 1.403 . S
C1326 H1347 0.929 . S
C1327 C1328 1.430 . S
C1327 C1329 1.387 . S
C1327 C1333 1.404 . S
C1328 C1321 1.448 . S
C1328 C1327 1.430 . S
C1328 N1332 1.351 . S
C1329 C1327 1.387 . S
C1329 C1330 1.374 . S
C1329 H1344 0.931 . S
C1330 C1324 1.439 . S
C1330 C1329 1.374 . S
C1330 H1345 0.931 . S
Eu1331 N1322 2.600 . S
Eu1331 N1332 2.562 . S
Eu1331 O1366 2.335 . S
Eu1331 O1369 2.372 . S
Eu1331 O1370 2.462 . S
Eu1331 O1371 2.373 . S
Eu1331 O1373 2.432 . S
Eu1331 O1374 2.291 . S
Eu1331 C1395 2.787 . S
N1332 C1328 1.351 . S
N1332 Eu1331 2.562 . S
N1332 C1334 1.325 . S
C1333 C1327 1.404 . S
C1333 C1335 1.366 . S
C1333 H1341 0.930 . S
C1334 N1332 1.325 . S
C1334 C1335 1.416 . S
C1334 H1340 0.929 . S
C1335 C1333 1.366 . S
C1335 C1334 1.416 . S
C1335 H1337 0.930 . S
H1336 C1325 0.930 . S
H1337 C1335 0.930 . S
H1338 C1353 0.930 . S
H1339 C1360 0.930 . S
H1340 C1334 0.929 . S
H1341 C1333 0.930 . S
H1342 C1356 0.929 . S
H1343 C1323 0.931 . S
H1344 C1329 0.931 . S
H1345 C1330 0.931 . S
H1346 C1351 0.931 . S
H1347 C1326 0.929 . S
H1348 C1359 0.930 . S
N1349 Eu1320 2.600 . S
N1349 C1350 1.365 . S
N1349 C1353 1.319 . S
C1350 N1349 1.365 . S
C1350 C1352 1.405 . S
C1350 C1358 1.448 . S
C1351 H1346 0.931 . S
C1351 C1353 1.397 . S
C1351 C1354 1.367 . S
C1352 C1350 1.405 . S
C1352 C1354 1.403 . S
C1352 C1385 1.439 . S
C1353 H1338 0.930 . S
C1353 N1349 1.319 . S
C1353 C1351 1.397 . S
C1354 C1351 1.367 . S
C1354 C1352 1.403 . S
C1354 H1361 0.929 . S
N1355 Eu1320 2.562 . S
N1355 C1356 1.325 . S
N1355 C1358 1.351 . S
C1356 H1342 0.929 . S
C1356 N1355 1.325 . S
C1356 C1360 1.416 . S
C1357 C1358 1.430 . S
C1357 C1359 1.404 . S
C1357 C1386 1.387 . S
C1358 C1350 1.448 . S
C1358 N1355 1.351 . S
C1358 C1357 1.430 . S
C1359 H1348 0.930 . S
C1359 C1357 1.404 . S
C1359 C1360 1.366 . S
C1360 H1339 0.930 . S
C1360 C1356 1.416 . S
C1360 C1359 1.366 . S
H1361 C1354 0.929 . S
H1362 C1385 0.931 . S
H1363 C1386 0.931 . S
O1364 Eu1320 2.462 . S
O1364 C1384 1.252 . S
O1365 Eu1320 2.373 . S
O1365 C1376 1.249 . S
O1366 Eu1331 2.335 . S
O1366 C1376 1.264 . S
O1367 Eu1320 2.432 . S
O1367 C1384 1.268 . S
O1368 Eu1320 2.291 . S
O1368 C1383 1.255 . S
O1369 Eu1331 2.372 . S
O1369 C1383 1.257 . S
O1370 Eu1331 2.462 . S
O1370 C1395 1.252 . S
O1371 Eu1331 2.373 . S
O1371 C1387 1.249 . S
O1372 Eu1320 2.335 . S
O1372 C1387 1.264 . S
O1373 Eu1331 2.432 . S
O1373 C1395 1.268 . S
O1374 Eu1331 2.291 . S
O1374 C1394 1.255 . S
O1375 Eu1320 2.372 . S
O1375 C1394 1.257 . S
C1376 O1365 1.249 . S
C1376 O1366 1.264 . S
C1377 C1380 1.382 . S
C1377 C1382 1.390 . S
C1377 C1384 1.506 . S
C1378 C1379 1.398 . S
C1378 C1382 1.392 . S
C1379 C1378 1.398 . S
C1379 C1381 1.372 . S
C1379 H1396 0.931 . S
C1380 C1377 1.382 . S
C1380 C1381 1.390 . S
C1380 H1397 0.931 . S
C1381 C1379 1.372 . S
C1381 C1380 1.390 . S
C1381 H1398 0.929 . S
C1382 C1377 1.390 . S
C1382 C1378 1.392 . S
C1382 H1399 0.930 . S
C1383 O1368 1.255 . S
C1383 O1369 1.257 . S
C1384 Eu1320 2.787 . S
C1384 O1364 1.252 . S
C1384 O1367 1.268 . S
C1384 C1377 1.506 . S
C1385 C1352 1.439 . S
C1385 H1362 0.931 . S
C1385 C1386 1.374 . S
C1386 C1357 1.387 . S
C1386 H1363 0.931 . S
C1386 C1385 1.374 . S
C1387 O1371 1.249 . S
C1387 O1372 1.264 . S
C1388 C1391 1.382 . S
C1388 C1392 1.390 . S
C1388 C1395 1.506 . S
C1389 C1390 1.398 . S
C1389 C1392 1.392 . S
C1390 C1389 1.398 . S
C1390 C1393 1.372 . S
C1390 H1400 0.931 . S
C1391 C1388 1.382 . S
C1391 C1393 1.390 . S
C1391 H1401 0.931 . S
C1392 C1388 1.390 . S
C1392 C1389 1.392 . S
C1392 H1402 0.930 . S
C1393 C1390 1.372 . S
C1393 C1391 1.390 . S
C1393 H1403 0.929 . S
C1394 O1374 1.255 . S
C1394 O1375 1.257 . S
C1395 Eu1331 2.787 . S
C1395 O1370 1.252 . S
C1395 O1373 1.268 . S
C1395 C1388 1.506 . S
H1396 C1379 0.931 . S
H1397 C1380 0.931 . S
H1398 C1381 0.929 . S
H1399 C1382 0.930 . S
H1400 C1390 0.931 . S
H1401 C1391 0.931 . S
H1402 C1392 0.930 . S
H1403 C1393 0.929 . S
Eu1404 N1433 2.600 . S
Eu1404 N1439 2.562 . S
Eu1404 O1448 2.462 . S
Eu1404 O1449 2.373 . S
Eu1404 O1451 2.432 . S
Eu1404 O1452 2.291 . S
Eu1404 O1456 2.335 . S
Eu1404 O1459 2.372 . S
Eu1404 C1468 2.787 . S
C1405 N1406 1.365 . S
C1405 C1408 1.405 . S
C1405 C1412 1.448 . S
N1406 C1405 1.365 . S
N1406 C1409 1.319 . S
N1406 Eu1415 2.600 . S
C1407 C1409 1.397 . S
C1407 C1410 1.367 . S
C1407 H1427 0.931 . S
C1408 C1405 1.405 . S
C1408 C1410 1.403 . S
C1408 C1414 1.439 . S
C1409 N1406 1.319 . S
C1409 C1407 1.397 . S
C1409 H1420 0.930 . S
C1410 C1407 1.367 . S
C1410 C1408 1.403 . S
C1410 H1431 0.929 . S
C1411 C1412 1.430 . S
C1411 C1413 1.387 . S
C1411 C1417 1.404 . S
C1412 C1405 1.448 . S
C1412 C1411 1.430 . S
C1412 N1416 1.351 . S
C1413 C1411 1.387 . S
C1413 C1414 1.374 . S
C1413 H1428 0.931 . S
C1414 C1408 1.439 . S
C1414 C1413 1.374 . S
C1414 H1429 0.931 . S
Eu1415 N1406 2.600 . S
Eu1415 N1416 2.562 . S
Eu1415 O1450 2.335 . S
Eu1415 O1453 2.372 . S
Eu1415 O1454 2.462 . S
Eu1415 O1455 2.373 . S
Eu1415 O1457 2.432 . S
Eu1415 O1458 2.291 . S
Eu1415 C1479 2.787 . S
N1416 C1412 1.351 . S
N1416 Eu1415 2.562 . S
N1416 C1418 1.325 . S
C1417 C1411 1.404 . S
C1417 C1419 1.366 . S
C1417 H1425 0.930 . S
C1418 N1416 1.325 . S
C1418 C1419 1.416 . S
C1418 H1424 0.929 . S
C1419 C1417 1.366 . S
C1419 C1418 1.416 . S
C1419 H1421 0.930 . S
H1420 C1409 0.930 . S
H1421 C1419 0.930 . S
H1422 C1437 0.930 . S
H1423 C1444 0.930 . S
H1424 C1418 0.929 . S
H1425 C1417 0.930 . S
H1426 C1440 0.929 . S
H1427 C1407 0.931 . S
H1428 C1413 0.931 . S
H1429 C1414 0.931 . S
H1430 C1435 0.931 . S
H1431 C1410 0.929 . S
H1432 C1443 0.930 . S
N1433 Eu1404 2.600 . S
N1433 C1434 1.365 . S
N1433 C1437 1.319 . S
C1434 N1433 1.365 . S
C1434 C1436 1.405 . S
C1434 C1442 1.448 . S
C1435 H1430 0.931 . S
C1435 C1437 1.397 . S
C1435 C1438 1.367 . S
C1436 C1434 1.405 . S
C1436 C1438 1.403 . S
C1436 C1469 1.439 . S
C1437 H1422 0.930 . S
C1437 N1433 1.319 . S
C1437 C1435 1.397 . S
C1438 C1435 1.367 . S
C1438 C1436 1.403 . S
C1438 H1445 0.929 . S
N1439 Eu1404 2.562 . S
N1439 C1440 1.325 . S
N1439 C1442 1.351 . S
C1440 H1426 0.929 . S
C1440 N1439 1.325 . S
C1440 C1444 1.416 . S
C1441 C1442 1.430 . S
C1441 C1443 1.404 . S
C1441 C1470 1.387 . S
C1442 C1434 1.448 . S
C1442 N1439 1.351 . S
C1442 C1441 1.430 . S
C1443 H1432 0.930 . S
C1443 C1441 1.404 . S
C1443 C1444 1.366 . S
C1444 H1423 0.930 . S
C1444 C1440 1.416 . S
C1444 C1443 1.366 . S
H1445 C1438 0.929 . S
H1446 C1469 0.931 . S
H1447 C1470 0.931 . S
O1448 Eu1404 2.462 . S
O1448 C1468 1.252 . S
O1449 Eu1404 2.373 . S
O1449 C1460 1.249 . S
O1450 Eu1415 2.335 . S
O1450 C1460 1.264 . S
O1451 Eu1404 2.432 . S
O1451 C1468 1.268 . S
O1452 Eu1404 2.291 . S
O1452 C1467 1.255 . S
O1453 Eu1415 2.372 . S
O1453 C1467 1.257 . S
O1454 Eu1415 2.462 . S
O1454 C1479 1.252 . S
O1455 Eu1415 2.373 . S
O1455 C1471 1.249 . S
O1456 Eu1404 2.335 . S
O1456 C1471 1.264 . S
O1457 Eu1415 2.432 . S
O1457 C1479 1.268 . S
O1458 Eu1415 2.291 . S
O1458 C1478 1.255 . S
O1459 Eu1404 2.372 . S
O1459 C1478 1.257 . S
C1460 O1449 1.249 . S
C1460 O1450 1.264 . S
C1461 C1464 1.382 . S
C1461 C1466 1.390 . S
C1461 C1468 1.506 . S
C1462 C1463 1.398 . S
C1462 C1466 1.392 . S
C1463 C1462 1.398 . S
C1463 C1465 1.372 . S
C1463 H1480 0.931 . S
C1464 C1461 1.382 . S
C1464 C1465 1.390 . S
C1464 H1481 0.931 . S
C1465 C1463 1.372 . S
C1465 C1464 1.390 . S
C1465 H1482 0.929 . S
C1466 C1461 1.390 . S
C1466 C1462 1.392 . S
C1466 H1483 0.930 . S
C1467 O1452 1.255 . S
C1467 O1453 1.257 . S
C1468 Eu1404 2.787 . S
C1468 O1448 1.252 . S
C1468 O1451 1.268 . S
C1468 C1461 1.506 . S
C1469 C1436 1.439 . S
C1469 H1446 0.931 . S
C1469 C1470 1.374 . S
C1470 C1441 1.387 . S
C1470 H1447 0.931 . S
C1470 C1469 1.374 . S
C1471 O1455 1.249 . S
C1471 O1456 1.264 . S
C1472 C1475 1.382 . S
C1472 C1476 1.390 . S
C1472 C1479 1.506 . S
C1473 C1474 1.398 . S
C1473 C1476 1.392 . S
C1474 C1473 1.398 . S
C1474 C1477 1.372 . S
C1474 H1484 0.931 . S
C1475 C1472 1.382 . S
C1475 C1477 1.390 . S
C1475 H1485 0.931 . S
C1476 C1472 1.390 . S
C1476 C1473 1.392 . S
C1476 H1486 0.930 . S
C1477 C1474 1.372 . S
C1477 C1475 1.390 . S
C1477 H1487 0.929 . S
C1478 O1458 1.255 . S
C1478 O1459 1.257 . S
C1479 Eu1415 2.787 . S
C1479 O1454 1.252 . S
C1479 O1457 1.268 . S
C1479 C1472 1.506 . S
H1480 C1463 0.931 . S
H1481 C1464 0.931 . S
H1482 C1465 0.929 . S
H1483 C1466 0.930 . S
H1484 C1474 0.931 . S
H1485 C1475 0.931 . S
H1486 C1476 0.930 . S
H1487 C1477 0.929 . S
Eu1488 N1517 2.600 . S
Eu1488 N1523 2.562 . S
Eu1488 O1532 2.462 . S
Eu1488 O1533 2.373 . S
Eu1488 O1535 2.432 . S
Eu1488 O1536 2.291 . S
Eu1488 O1540 2.335 . S
Eu1488 O1543 2.372 . S
Eu1488 C1552 2.787 . S
C1489 N1490 1.365 . S
C1489 C1492 1.405 . S
C1489 C1496 1.448 . S
N1490 C1489 1.365 . S
N1490 C1493 1.319 . S
N1490 Eu1499 2.600 . S
C1491 C1493 1.397 . S
C1491 C1494 1.367 . S
C1491 H1511 0.931 . S
C1492 C1489 1.405 . S
C1492 C1494 1.403 . S
C1492 C1498 1.439 . S
C1493 N1490 1.319 . S
C1493 C1491 1.397 . S
C1493 H1504 0.930 . S
C1494 C1491 1.367 . S
C1494 C1492 1.403 . S
C1494 H1515 0.929 . S
C1495 C1496 1.430 . S
C1495 C1497 1.387 . S
C1495 C1501 1.404 . S
C1496 C1489 1.448 . S
C1496 C1495 1.430 . S
C1496 N1500 1.351 . S
C1497 C1495 1.387 . S
C1497 C1498 1.374 . S
C1497 H1512 0.931 . S
C1498 C1492 1.439 . S
C1498 C1497 1.374 . S
C1498 H1513 0.931 . S
Eu1499 N1490 2.600 . S
Eu1499 N1500 2.562 . S
Eu1499 O1534 2.335 . S
Eu1499 O1537 2.372 . S
Eu1499 O1538 2.462 . S
Eu1499 O1539 2.373 . S
Eu1499 O1541 2.432 . S
Eu1499 O1542 2.291 . S
Eu1499 C1563 2.787 . S
N1500 C1496 1.351 . S
N1500 Eu1499 2.562 . S
N1500 C1502 1.325 . S
C1501 C1495 1.404 . S
C1501 C1503 1.366 . S
C1501 H1509 0.930 . S
C1502 N1500 1.325 . S
C1502 C1503 1.416 . S
C1502 H1508 0.929 . S
C1503 C1501 1.366 . S
C1503 C1502 1.416 . S
C1503 H1505 0.930 . S
H1504 C1493 0.930 . S
H1505 C1503 0.930 . S
H1506 C1521 0.930 . S
H1507 C1528 0.930 . S
H1508 C1502 0.929 . S
H1509 C1501 0.930 . S
H1510 C1524 0.929 . S
H1511 C1491 0.931 . S
H1512 C1497 0.931 . S
H1513 C1498 0.931 . S
H1514 C1519 0.931 . S
H1515 C1494 0.929 . S
H1516 C1527 0.930 . S
N1517 Eu1488 2.600 . S
N1517 C1518 1.365 . S
N1517 C1521 1.319 . S
C1518 N1517 1.365 . S
C1518 C1520 1.405 . S
C1518 C1526 1.448 . S
C1519 H1514 0.931 . S
C1519 C1521 1.397 . S
C1519 C1522 1.367 . S
C1520 C1518 1.405 . S
C1520 C1522 1.403 . S
C1520 C1553 1.439 . S
C1521 H1506 0.930 . S
C1521 N1517 1.319 . S
C1521 C1519 1.397 . S
C1522 C1519 1.367 . S
C1522 C1520 1.403 . S
C1522 H1529 0.929 . S
N1523 Eu1488 2.562 . S
N1523 C1524 1.325 . S
N1523 C1526 1.351 . S
C1524 H1510 0.929 . S
C1524 N1523 1.325 . S
C1524 C1528 1.416 . S
C1525 C1526 1.430 . S
C1525 C1527 1.404 . S
C1525 C1554 1.387 . S
C1526 C1518 1.448 . S
C1526 N1523 1.351 . S
C1526 C1525 1.430 . S
C1527 H1516 0.930 . S
C1527 C1525 1.404 . S
C1527 C1528 1.366 . S
C1528 H1507 0.930 . S
C1528 C1524 1.416 . S
C1528 C1527 1.366 . S
H1529 C1522 0.929 . S
H1530 C1553 0.931 . S
H1531 C1554 0.931 . S
O1532 Eu1488 2.462 . S
O1532 C1552 1.252 . S
O1533 Eu1488 2.373 . S
O1533 C1544 1.249 . S
O1534 Eu1499 2.335 . S
O1534 C1544 1.264 . S
O1535 Eu1488 2.432 . S
O1535 C1552 1.268 . S
O1536 Eu1488 2.291 . S
O1536 C1551 1.255 . S
O1537 Eu1499 2.372 . S
O1537 C1551 1.257 . S
O1538 Eu1499 2.462 . S
O1538 C1563 1.252 . S
O1539 Eu1499 2.373 . S
O1539 C1555 1.249 . S
O1540 Eu1488 2.335 . S
O1540 C1555 1.264 . S
O1541 Eu1499 2.432 . S
O1541 C1563 1.268 . S
O1542 Eu1499 2.291 . S
O1542 C1562 1.255 . S
O1543 Eu1488 2.372 . S
O1543 C1562 1.257 . S
C1544 O1533 1.249 . S
C1544 O1534 1.264 . S
C1545 C1548 1.382 . S
C1545 C1550 1.390 . S
C1545 C1552 1.506 . S
C1546 C1547 1.398 . S
C1546 C1550 1.392 . S
C1547 C1546 1.398 . S
C1547 C1549 1.372 . S
C1547 H1564 0.931 . S
C1548 C1545 1.382 . S
C1548 C1549 1.390 . S
C1548 H1565 0.931 . S
C1549 C1547 1.372 . S
C1549 C1548 1.390 . S
C1549 H1566 0.929 . S
C1550 C1545 1.390 . S
C1550 C1546 1.392 . S
C1550 H1567 0.930 . S
C1551 O1536 1.255 . S
C1551 O1537 1.257 . S
C1552 Eu1488 2.787 . S
C1552 O1532 1.252 . S
C1552 O1535 1.268 . S
C1552 C1545 1.506 . S
C1553 C1520 1.439 . S
C1553 H1530 0.931 . S
C1553 C1554 1.374 . S
C1554 C1525 1.387 . S
C1554 H1531 0.931 . S
C1554 C1553 1.374 . S
C1555 O1539 1.249 . S
C1555 O1540 1.264 . S
C1556 C1559 1.382 . S
C1556 C1560 1.390 . S
C1556 C1563 1.506 . S
C1557 C1558 1.398 . S
C1557 C1560 1.392 . S
C1558 C1557 1.398 . S
C1558 C1561 1.372 . S
C1558 H1568 0.931 . S
C1559 C1556 1.382 . S
C1559 C1561 1.390 . S
C1559 H1569 0.931 . S
C1560 C1556 1.390 . S
C1560 C1557 1.392 . S
C1560 H1570 0.930 . S
C1561 C1558 1.372 . S
C1561 C1559 1.390 . S
C1561 H1571 0.929 . S
C1562 O1542 1.255 . S
C1562 O1543 1.257 . S
C1563 Eu1499 2.787 . S
C1563 O1538 1.252 . S
C1563 O1541 1.268 . S
C1563 C1556 1.506 . S
H1564 C1547 0.931 . S
H1565 C1548 0.931 . S
H1566 C1549 0.929 . S
H1567 C1550 0.930 . S
H1568 C1558 0.931 . S
H1569 C1559 0.931 . S
H1570 C1560 0.930 . S
H1571 C1561 0.929 . S
Eu1572 N1601 2.600 1_455 S
Eu1572 N1607 2.562 1_455 S
Eu1572 O1616 2.462 1_455 S
Eu1572 O1617 2.373 . S
Eu1572 O1619 2.432 1_455 S
Eu1572 O1620 2.291 . S
Eu1572 O1624 2.335 . S
Eu1572 O1627 2.372 . S
Eu1572 C1636 2.787 1_455 S
C1573 N1574 1.365 . S
C1573 C1576 1.405 . S
C1573 C1580 1.448 1_556 S
N1574 C1573 1.365 . S
N1574 C1577 1.319 . S
N1574 Eu1583 2.600 1_556 S
C1575 C1577 1.397 . S
C1575 C1578 1.367 . S
C1575 H1595 0.931 . S
C1576 C1573 1.405 . S
C1576 C1578 1.403 . S
C1576 C1582 1.439 . S
C1577 N1574 1.319 . S
C1577 C1575 1.397 . S
C1577 H1588 0.930 . S
C1578 C1575 1.367 . S
C1578 C1576 1.403 . S
C1578 H1599 0.929 . S
C1579 C1580 1.430 . S
C1579 C1581 1.387 1_554 S
C1579 C1585 1.404 . S
C1580 C1573 1.448 1_554 S
C1580 C1579 1.430 . S
C1580 N1584 1.351 . S
C1581 C1579 1.387 1_556 S
C1581 C1582 1.374 . S
C1581 H1596 0.931 . S
C1582 C1576 1.439 . S
C1582 C1581 1.374 . S
C1582 H1597 0.931 . S
Eu1583 N1574 2.600 1_554 S
Eu1583 N1584 2.562 . S
Eu1583 O1618 2.335 . S
Eu1583 O1621 2.372 1_554 S
Eu1583 O1622 2.462 . S
Eu1583 O1623 2.373 . S
Eu1583 O1625 2.432 1_554 S
Eu1583 O1626 2.291 . S
Eu1583 C1647 2.787 1_554 S
N1584 C1580 1.351 . S
N1584 Eu1583 2.562 . S
N1584 C1586 1.325 . S
C1585 C1579 1.404 . S
C1585 C1587 1.366 . S
C1585 H1593 0.930 . S
C1586 N1584 1.325 . S
C1586 C1587 1.416 . S
C1586 H1592 0.929 . S
C1587 C1585 1.366 . S
C1587 C1586 1.416 . S
C1587 H1589 0.930 . S
H1588 C1577 0.930 . S
H1589 C1587 0.930 . S
H1590 C1605 0.930 . S
H1591 C1612 0.930 1_556 S
H1592 C1586 0.929 . S
H1593 C1585 0.930 . S
H1594 C1608 0.929 . S
H1595 C1575 0.931 . S
H1596 C1581 0.931 . S
H1597 C1582 0.931 . S
H1598 C1603 0.931 . S
H1599 C1578 0.929 . S
H1600 C1611 0.930 . S
N1601 Eu1572 2.600 1_655 S
N1601 C1602 1.365 . S
N1601 C1605 1.319 1_655 S
C1602 N1601 1.365 . S
C1602 C1604 1.405 . S
C1602 C1610 1.448 . S
C1603 H1598 0.931 . S
C1603 C1605 1.397 . S
C1603 C1606 1.367 1_455 S
C1604 C1602 1.405 . S
C1604 C1606 1.403 . S
C1604 C1637 1.439 . S
C1605 H1590 0.930 . S
C1605 N1601 1.319 1_455 S
C1605 C1603 1.397 . S
C1606 C1603 1.367 1_655 S
C1606 C1604 1.403 . S
C1606 H1613 0.929 . S
N1607 Eu1572 2.562 1_655 S
N1607 C1608 1.325 . S
N1607 C1610 1.351 . S
C1608 H1594 0.929 . S
C1608 N1607 1.325 . S
C1608 C1612 1.416 . S
C1609 C1610 1.430 . S
C1609 C1611 1.404 . S
C1609 C1638 1.387 . S
C1610 C1602 1.448 . S
C1610 N1607 1.351 . S
C1610 C1609 1.430 . S
C1611 H1600 0.930 . S
C1611 C1609 1.404 . S
C1611 C1612 1.366 . S
C1612 H1591 0.930 1_554 S
C1612 C1608 1.416 . S
C1612 C1611 1.366 . S
H1613 C1606 0.929 . S
H1614 C1637 0.931 . S
H1615 C1638 0.931 . S
O1616 Eu1572 2.462 1_655 S
O1616 C1636 1.252 . S
O1617 Eu1572 2.373 . S
O1617 C1628 1.249 . S
O1618 Eu1583 2.335 . S
O1618 C1628 1.264 . S
O1619 Eu1572 2.432 1_655 S
O1619 C1636 1.268 . S
O1620 Eu1572 2.291 . S
O1620 C1635 1.255 1_554 S
O1621 Eu1583 2.372 1_556 S
O1621 C1635 1.257 . S
O1622 Eu1583 2.462 . S
O1622 C1647 1.252 1_554 S
O1623 Eu1583 2.373 . S
O1623 C1639 1.249 . S
O1624 Eu1572 2.335 . S
O1624 C1639 1.264 . S
O1625 Eu1583 2.432 1_556 S
O1625 C1647 1.268 . S
O1626 Eu1583 2.291 . S
O1626 C1646 1.255 . S
O1627 Eu1572 2.372 . S
O1627 C1646 1.257 . S
C1628 O1617 1.249 . S
C1628 O1618 1.264 . S
C1629 C1632 1.382 . S
C1629 C1634 1.390 . S
C1629 C1636 1.506 . S
C1630 C1631 1.398 . S
C1630 C1634 1.392 . S
C1631 C1630 1.398 . S
C1631 C1633 1.372 . S
C1631 H1648 0.931 . S
C1632 C1629 1.382 . S
C1632 C1633 1.390 . S
C1632 H1649 0.931 . S
C1633 C1631 1.372 . S
C1633 C1632 1.390 . S
C1633 H1650 0.929 . S
C1634 C1629 1.390 . S
C1634 C1630 1.392 . S
C1634 H1651 0.930 . S
C1635 O1620 1.255 1_556 S
C1635 O1621 1.257 . S
C1636 Eu1572 2.787 1_655 S
C1636 O1616 1.252 . S
C1636 O1619 1.268 . S
C1636 C1629 1.506 . S
C1637 C1604 1.439 . S
C1637 H1614 0.931 . S
C1637 C1638 1.374 . S
C1638 C1609 1.387 . S
C1638 H1615 0.931 . S
C1638 C1637 1.374 . S
C1639 O1623 1.249 . S
C1639 O1624 1.264 . S
C1640 C1643 1.382 . S
C1640 C1644 1.390 1_556 S
C1640 C1647 1.506 . S
C1641 C1642 1.398 1_554 S
C1641 C1644 1.392 . S
C1642 C1641 1.398 1_556 S
C1642 C1645 1.372 . S
C1642 H1652 0.931 . S
C1643 C1640 1.382 . S
C1643 C1645 1.390 . S
C1643 H1653 0.931 . S
C1644 C1640 1.390 1_554 S
C1644 C1641 1.392 . S
C1644 H1654 0.930 . S
C1645 C1642 1.372 . S
C1645 C1643 1.390 . S
C1645 H1655 0.929 . S
C1646 O1626 1.255 . S
C1646 O1627 1.257 . S
C1647 Eu1583 2.787 1_556 S
C1647 O1622 1.252 1_556 S
C1647 O1625 1.268 . S
C1647 C1640 1.506 . S
H1648 C1631 0.931 . S
H1649 C1632 0.931 . S
H1650 C1633 0.929 . S
H1651 C1634 0.930 . S
H1652 C1642 0.931 . S
H1653 C1643 0.931 . S
H1654 C1644 0.930 . S
H1655 C1645 0.929 . S
C1656 C1657 1.363 . S
C1656 C1662 1.379 . S
C1656 N1664 1.356 . S
C1657 C1656 1.363 . S
C1657 C1663 1.363 1_454 S
C1658 C1659 1.363 1_556 S
C1658 C1663 1.379 1_455 S
C1658 N1665 1.354 . S
C1659 C1658 1.363 1_554 S
C1659 C1662 1.363 . S
N1660 C1662 1.356 . S
N1660 H1672 0.984 . S
N1660 H1673 0.985 . S
N1661 C1663 1.356 . S
N1661 H1666 0.984 . S
N1661 H1667 0.985 . S
C1662 C1656 1.379 . S
C1662 C1659 1.363 . S
C1662 N1660 1.356 . S
C1663 C1657 1.363 1_656 S
C1663 C1658 1.379 1_655 S
C1663 N1661 1.356 . S
N1664 C1656 1.356 . S
N1664 H1670 0.984 . S
N1664 H1671 0.984 . S
N1665 C1658 1.354 . S
N1665 H1668 0.994 . S
N1665 H1669 0.978 1_455 S
H1666 N1661 0.984 . S
H1667 N1661 0.985 . S
H1668 N1665 0.994 . S
H1669 N1665 0.978 1_655 S
H1670 N1664 0.984 . S
H1671 N1664 0.984 . S
H1672 N1660 0.984 . S
H1673 N1660 0.985 . S
C1674 C1675 1.363 . S
C1674 C1680 1.379 . S
C1674 N1682 1.356 . S
C1675 C1674 1.363 . S
C1675 C1681 1.363 . S
C1676 C1677 1.363 . S
C1676 C1681 1.379 . S
C1676 N1683 1.356 . S
C1677 C1676 1.363 . S
C1677 C1680 1.363 . S
N1678 C1680 1.356 . S
N1678 H1690 0.984 . S
N1678 H1691 0.985 . S
N1679 C1681 1.356 . S
N1679 H1684 0.984 . S
N1679 H1685 0.985 . S
C1680 C1674 1.379 . S
C1680 C1677 1.363 . S
C1680 N1678 1.356 . S
C1681 C1675 1.363 . S
C1681 C1676 1.379 . S
C1681 N1679 1.356 . S
N1682 C1674 1.356 . S
N1682 H1688 0.984 . S
N1682 H1689 0.984 . S
N1683 C1676 1.356 . S
N1683 H1686 0.984 . S
N1683 H1687 0.985 . S
H1684 N1679 0.984 . S
H1685 N1679 0.985 . S
H1686 N1683 0.984 . S
H1687 N1683 0.985 . S
H1688 N1682 0.984 . S
H1689 N1682 0.984 . S
H1690 N1678 0.984 . S
H1691 N1678 0.985 . S
C1692 C1693 1.363 . S
C1692 C1698 1.379 . S
C1692 N1700 1.356 . S
C1693 C1692 1.363 . S
C1693 C1699 1.363 . S
C1694 C1695 1.363 . S
C1694 C1699 1.379 . S
C1694 N1701 1.356 . S
C1695 C1694 1.363 . S
C1695 C1698 1.363 . S
N1696 C1698 1.356 . S
N1696 H1708 0.984 . S
N1696 H1709 0.985 . S
N1697 C1699 1.356 . S
N1697 H1702 0.984 . S
N1697 H1703 0.985 . S
C1698 C1692 1.379 . S
C1698 C1695 1.363 . S
C1698 N1696 1.356 . S
C1699 C1693 1.363 . S
C1699 C1694 1.379 . S
C1699 N1697 1.356 . S
N1700 C1692 1.356 . S
N1700 H1706 0.984 . S
N1700 H1707 0.984 . S
N1701 C1694 1.356 . S
N1701 H1704 0.984 . S
N1701 H1705 0.985 . S
H1702 N1697 0.984 . S
H1703 N1697 0.985 . S
H1704 N1701 0.984 . S
H1705 N1701 0.985 . S
H1706 N1700 0.984 . S
H1707 N1700 0.984 . S
H1708 N1696 0.984 . S
H1709 N1696 0.985 . S
C1710 C1711 1.363 . S
C1710 C1716 1.379 . S
C1710 N1718 1.356 . S
C1711 C1710 1.363 . S
C1711 C1717 1.363 . S
C1712 C1713 1.363 . S
C1712 C1717 1.379 . S
C1712 N1719 1.356 . S
C1713 C1712 1.363 . S
C1713 C1716 1.363 . S
N1714 C1716 1.356 . S
N1714 H1726 0.984 . S
N1714 H1727 0.985 . S
N1715 C1717 1.356 . S
N1715 H1720 0.984 . S
N1715 H1721 0.985 . S
C1716 C1710 1.379 . S
C1716 C1713 1.363 . S
C1716 N1714 1.356 . S
C1717 C1711 1.363 . S
C1717 C1712 1.379 . S
C1717 N1715 1.356 . S
N1718 C1710 1.356 . S
N1718 H1724 0.984 . S
N1718 H1725 0.984 . S
N1719 C1712 1.356 . S
N1719 H1722 0.984 . S
N1719 H1723 0.985 . S
H1720 N1715 0.984 . S
H1721 N1715 0.985 . S
H1722 N1719 0.984 . S
H1723 N1719 0.985 . S
H1724 N1718 0.984 . S
H1725 N1718 0.984 . S
H1726 N1714 0.984 . S
H1727 N1714 0.985 . S
C1728 C1729 1.363 . S
C1728 C1734 1.379 . S
C1728 N1736 1.356 . S
C1729 C1728 1.363 . S
C1729 C1735 1.363 . S
C1730 C1731 1.363 . S
C1730 C1735 1.379 . S
C1730 N1737 1.356 . S
C1731 C1730 1.363 . S
C1731 C1734 1.363 . S
N1732 C1734 1.356 . S
N1732 H1744 0.984 . S
N1732 H1745 0.985 . S
N1733 C1735 1.356 . S
N1733 H1738 0.984 . S
N1733 H1739 0.985 . S
C1734 C1728 1.379 . S
C1734 C1731 1.363 . S
C1734 N1732 1.356 . S
C1735 C1729 1.363 . S
C1735 C1730 1.379 . S
C1735 N1733 1.356 . S
N1736 C1728 1.356 . S
N1736 H1742 0.984 . S
N1736 H1743 0.984 . S
N1737 C1730 1.356 . S
N1737 H1740 0.984 . S
N1737 H1741 0.985 . S
H1738 N1733 0.984 . S
H1739 N1733 0.985 . S
H1740 N1737 0.984 . S
H1741 N1737 0.985 . S
H1742 N1736 0.984 . S
H1743 N1736 0.984 . S
H1744 N1732 0.984 . S
H1745 N1732 0.985 . S
C1746 C1747 1.363 . S
C1746 C1752 1.379 . S
C1746 N1754 1.356 . S
C1747 C1746 1.363 . S
C1747 C1753 1.363 . S
C1748 C1749 1.363 . S
C1748 C1753 1.379 . S
C1748 N1755 1.356 . S
C1749 C1748 1.363 . S
C1749 C1752 1.363 . S
N1750 C1752 1.356 . S
N1750 H1762 0.984 . S
N1750 H1763 0.985 . S
N1751 C1753 1.356 . S
N1751 H1756 0.984 . S
N1751 H1757 0.985 . S
C1752 C1746 1.379 . S
C1752 C1749 1.363 . S
C1752 N1750 1.356 . S
C1753 C1747 1.363 . S
C1753 C1748 1.379 . S
C1753 N1751 1.356 . S
N1754 C1746 1.356 . S
N1754 H1760 0.984 . S
N1754 H1761 0.984 . S
N1755 C1748 1.356 . S
N1755 H1758 0.984 . S
N1755 H1759 0.985 . S
H1756 N1751 0.984 . S
H1757 N1751 0.985 . S
H1758 N1755 0.984 . S
H1759 N1755 0.985 . S
H1760 N1754 0.984 . S
H1761 N1754 0.984 . S
H1762 N1750 0.984 . S
H1763 N1750 0.985 . S
C1764 C1765 1.363 . S
C1764 C1770 1.379 . S
C1764 N1772 1.356 . S
C1765 C1764 1.363 . S
C1765 C1771 1.363 . S
C1766 C1767 1.363 . S
C1766 C1771 1.379 . S
C1766 N1773 1.356 . S
C1767 C1766 1.363 . S
C1767 C1770 1.363 . S
N1768 C1770 1.356 . S
N1768 H1780 0.984 . S
N1768 H1781 0.985 . S
N1769 C1771 1.356 . S
N1769 H1774 0.984 . S
N1769 H1775 0.985 . S
C1770 C1764 1.379 . S
C1770 C1767 1.363 . S
C1770 N1768 1.356 . S
C1771 C1765 1.363 . S
C1771 C1766 1.379 . S
C1771 N1769 1.356 . S
N1772 C1764 1.356 . S
N1772 H1778 0.984 . S
N1772 H1779 0.984 . S
N1773 C1766 1.356 . S
N1773 H1776 0.984 . S
N1773 H1777 0.985 . S
H1774 N1769 0.984 . S
H1775 N1769 0.985 . S
H1776 N1773 0.984 . S
H1777 N1773 0.985 . S
H1778 N1772 0.984 . S
H1779 N1772 0.984 . S
H1780 N1768 0.984 . S
H1781 N1768 0.985 . S
C1782 C1783 1.363 . S
C1782 C1788 1.379 . S
C1782 N1790 1.356 . S
C1783 C1782 1.363 . S
C1783 C1789 1.363 . S
C1784 C1785 1.363 . S
C1784 C1789 1.379 . S
C1784 N1791 1.356 . S
C1785 C1784 1.363 . S
C1785 C1788 1.363 . S
N1786 C1788 1.356 . S
N1786 H1798 0.984 . S
N1786 H1799 0.985 . S
N1787 C1789 1.356 . S
N1787 H1792 0.984 . S
N1787 H1793 0.985 . S
C1788 C1782 1.379 . S
C1788 C1785 1.363 . S
C1788 N1786 1.356 . S
C1789 C1783 1.363 . S
C1789 C1784 1.379 . S
C1789 N1787 1.356 . S
N1790 C1782 1.356 . S
N1790 H1796 0.984 . S
N1790 H1797 0.984 . S
N1791 C1784 1.356 . S
N1791 H1794 0.984 . S
N1791 H1795 0.985 . S
H1792 N1787 0.984 . S
H1793 N1787 0.985 . S
H1794 N1791 0.984 . S
H1795 N1791 0.985 . S
H1796 N1790 0.984 . S
H1797 N1790 0.984 . S
H1798 N1786 0.984 . S
H1799 N1786 0.985 . S
C1800 C1801 1.363 . S
C1800 C1806 1.379 1_655 S
C1800 N1808 1.356 1_545 S
C1801 C1800 1.363 . S
C1801 C1807 1.363 . S
C1802 C1803 1.363 1_655 S
C1802 C1807 1.379 . S
C1802 N1809 1.356 . S
C1803 C1802 1.363 1_455 S
C1803 C1806 1.363 . S
N1804 C1806 1.356 . S
N1804 H1816 0.984 1_545 S
N1804 H1817 0.985 . S
N1805 C1807 1.356 . S
N1805 H1810 0.984 . S
N1805 H1811 0.985 . S
C1806 C1800 1.379 1_455 S
C1806 C1803 1.363 . S
C1806 N1804 1.356 . S
C1807 C1801 1.363 . S
C1807 C1802 1.379 . S
C1807 N1805 1.356 . S
N1808 C1800 1.356 1_565 S
N1808 H1814 0.984 1_655 S
N1808 H1815 0.984 . S
N1809 C1802 1.356 . S
N1809 H1812 1.010 . S
N1809 H1813 0.985 . S
H1810 N1805 0.984 . S
H1811 N1805 0.985 . S
H1812 N1809 1.010 . S
H1813 N1809 0.985 . S
H1814 N1808 0.984 1_455 S
H1815 N1808 0.984 . S
H1816 N1804 0.984 1_565 S
H1817 N1804 0.985 . S
C1818 C1819 1.363 . S
C1818 C1824 1.379 . S
C1818 N1826 1.356 . S
C1819 C1818 1.363 . S
C1819 C1825 1.363 . S
C1820 C1821 1.363 . S
C1820 C1825 1.379 . S
C1820 N1827 1.356 . S
C1821 C1820 1.363 . S
C1821 C1824 1.363 . S
N1822 C1824 1.356 . S
N1822 H1834 0.984 . S
N1822 H1835 0.985 . S
N1823 C1825 1.356 . S
N1823 H1828 0.984 . S
N1823 H1829 0.985 . S
C1824 C1818 1.379 . S
C1824 C1821 1.363 . S
C1824 N1822 1.356 . S
C1825 C1819 1.363 . S
C1825 C1820 1.379 . S
C1825 N1823 1.356 . S
N1826 C1818 1.356 . S
N1826 H1832 0.984 . S
N1826 H1833 0.984 . S
N1827 C1820 1.356 . S
N1827 H1830 0.984 . S
N1827 H1831 0.985 . S
H1828 N1823 0.984 . S
H1829 N1823 0.985 . S
H1830 N1827 0.984 . S
H1831 N1827 0.985 . S
H1832 N1826 0.984 . S
H1833 N1826 0.984 . S
H1834 N1822 0.984 . S
H1835 N1822 0.985 . S
C1836 C1837 1.363 . S
C1836 C1842 1.379 . S
C1836 N1844 1.356 . S
C1837 C1836 1.363 . S
C1837 C1843 1.363 . S
C1838 C1839 1.363 . S
C1838 C1843 1.379 . S
C1838 N1845 1.356 . S
C1839 C1838 1.363 . S
C1839 C1842 1.363 . S
N1840 C1842 1.356 . S
N1840 H1852 0.984 1_545 S
N1840 H1853 0.985 . S
N1841 C1843 1.356 . S
N1841 H1846 0.984 . S
N1841 H1847 0.985 . S
C1842 C1836 1.379 . S
C1842 C1839 1.363 . S
C1842 N1840 1.356 . S
C1843 C1837 1.363 . S
C1843 C1838 1.379 . S
C1843 N1841 1.356 . S
N1844 C1836 1.356 . S
N1844 H1850 0.984 . S
N1844 H1851 0.984 . S
N1845 C1838 1.356 . S
N1845 H1848 0.984 . S
N1845 H1849 0.985 . S
H1846 N1841 0.984 . S
H1847 N1841 0.985 . S
H1848 N1845 0.984 . S
H1849 N1845 0.985 . S
H1850 N1844 0.984 . S
H1851 N1844 0.984 . S
H1852 N1840 0.984 1_565 S
H1853 N1840 0.985 . S
C1854 C1855 1.363 . S
C1854 C1860 1.379 . S
C1854 N1862 1.356 . S
C1855 C1854 1.363 . S
C1855 C1861 1.363 . S
C1856 C1857 1.363 . S
C1856 C1861 1.379 . S
C1856 N1863 1.356 . S
C1857 C1856 1.363 . S
C1857 C1860 1.363 . S
N1858 C1860 1.356 . S
N1858 H1870 0.984 . S
N1858 H1871 0.985 . S
N1859 C1861 1.356 . S
N1859 H1864 0.984 . S
N1859 H1865 0.985 . S
C1860 C1854 1.379 . S
C1860 C1857 1.363 . S
C1860 N1858 1.356 . S
C1861 C1855 1.363 . S
C1861 C1856 1.379 . S
C1861 N1859 1.356 . S
N1862 C1854 1.356 . S
N1862 H1868 0.984 . S
N1862 H1869 0.984 1_556 S
N1863 C1856 1.356 . S
N1863 H1866 0.984 . S
N1863 H1867 0.985 . S
H1864 N1859 0.984 . S
H1865 N1859 0.985 . S
H1866 N1863 0.984 . S
H1867 N1863 0.985 . S
H1868 N1862 0.984 . S
H1869 N1862 0.984 1_554 S
H1870 N1858 0.984 . S
H1871 N1858 0.985 . S
C1872 C1873 1.363 1_455 S
C1872 C1878 1.379 . S
C1872 N1880 1.356 . S
C1873 C1872 1.363 1_655 S
C1873 C1879 1.363 . S
C1874 C1875 1.363 1_655 S
C1874 C1879 1.379 . S
C1874 N1881 1.356 1_545 S
C1875 C1874 1.363 1_455 S
C1875 C1878 1.363 . S
N1876 C1878 1.356 . S
N1876 H1888 0.984 . S
N1876 H1889 0.985 . S
N1877 C1879 1.356 1_565 S
N1877 H1882 0.984 . S
N1877 H1883 0.985 . S
C1878 C1872 1.379 . S
C1878 C1875 1.363 . S
C1878 N1876 1.356 . S
C1879 C1873 1.363 . S
C1879 C1874 1.379 . S
C1879 N1877 1.356 1_545 S
N1880 C1872 1.356 . S
N1880 H1886 0.984 . S
N1880 H1887 0.984 . S
N1881 C1874 1.356 1_565 S
N1881 H1884 0.984 . S
N1881 H1885 0.985 . S
H1882 N1877 0.984 . S
H1883 N1877 0.985 . S
H1884 N1881 0.984 . S
H1885 N1881 0.985 . S
H1886 N1880 0.984 . S
H1887 N1880 0.984 . S
H1888 N1876 0.984 . S
H1889 N1876 0.985 . S
C1890 C1891 1.363 . S
C1890 C1896 1.379 . S
C1890 N1898 1.356 . S
C1891 C1890 1.363 . S
C1891 C1897 1.363 . S
C1892 C1893 1.363 . S
C1892 C1897 1.379 . S
C1892 N1899 1.356 . S
C1893 C1892 1.363 . S
C1893 C1896 1.363 . S
N1894 C1896 1.356 . S
N1894 H1906 0.984 . S
N1894 H1907 0.985 . S
N1895 C1897 1.356 . S
N1895 H1900 0.984 . S
N1895 H1901 0.985 . S
C1896 C1890 1.379 . S
C1896 C1893 1.363 . S
C1896 N1894 1.356 . S
C1897 C1891 1.363 . S
C1897 C1892 1.379 . S
C1897 N1895 1.356 . S
N1898 C1890 1.356 . S
N1898 H1904 0.984 . S
N1898 H1905 0.984 . S
N1899 C1892 1.356 . S
N1899 H1902 0.984 . S
N1899 H1903 0.985 . S
H1900 N1895 0.984 . S
H1901 N1895 0.985 . S
H1902 N1899 0.984 . S
H1903 N1899 0.985 . S
H1904 N1898 0.984 . S
H1905 N1898 0.984 . S
H1906 N1894 0.984 . S
H1907 N1894 0.985 . S
C1908 C1909 1.363 . S
C1908 C1914 1.379 . S
C1908 N1916 1.356 . S
C1909 C1908 1.363 . S
C1909 C1915 1.363 . S
C1910 C1911 1.363 . S
C1910 C1915 1.379 . S
C1910 N1917 1.356 . S
C1911 C1910 1.363 . S
C1911 C1914 1.363 . S
N1912 C1914 1.356 . S
N1912 H1924 0.984 . S
N1912 H1925 0.985 . S
N1913 C1915 1.356 . S
N1913 H1918 0.984 . S
N1913 H1919 0.985 . S
C1914 C1908 1.379 . S
C1914 C1911 1.363 . S
C1914 N1912 1.356 . S
C1915 C1909 1.363 . S
C1915 C1910 1.379 . S
C1915 N1913 1.356 . S
N1916 C1908 1.356 . S
N1916 H1922 0.984 . S
N1916 H1923 0.984 . S
N1917 C1910 1.356 . S
N1917 H1920 0.984 . S
N1917 H1921 0.985 . S
H1918 N1913 0.984 . S
H1919 N1913 0.985 . S
H1920 N1917 0.984 . S
H1921 N1917 0.985 . S
H1922 N1916 0.984 . S
H1923 N1916 0.984 . S
H1924 N1912 0.984 . S
H1925 N1912 0.985 . S
C1926 C1927 1.363 . S
C1926 C1932 1.379 . S
C1926 N1934 1.356 . S
C1927 C1926 1.363 . S
C1927 C1933 1.363 . S
C1928 C1929 1.363 . S
C1928 C1933 1.379 . S
C1928 N1935 1.356 . S
C1929 C1928 1.363 . S
C1929 C1932 1.363 . S
N1930 C1932 1.356 . S
N1930 H1942 0.984 . S
N1930 H1943 0.985 . S
N1931 C1933 1.356 . S
N1931 H1936 0.984 . S
N1931 H1937 0.985 . S
C1932 C1926 1.379 . S
C1932 C1929 1.363 . S
C1932 N1930 1.356 . S
C1933 C1927 1.363 . S
C1933 C1928 1.379 . S
C1933 N1931 1.356 . S
N1934 C1926 1.356 . S
N1934 H1940 0.984 . S
N1934 H1941 0.984 . S
N1935 C1928 1.356 . S
N1935 H1938 0.984 . S
N1935 H1939 0.985 . S
H1936 N1931 0.984 . S
H1937 N1931 0.985 . S
H1938 N1935 0.984 . S
H1939 N1935 0.985 . S
H1940 N1934 0.984 . S
H1941 N1934 0.984 . S
H1942 N1930 0.984 . S
H1943 N1930 0.985 . S
C1944 C1945 1.363 . S
C1944 C1950 1.379 . S
C1944 N1952 1.356 1_554 S
C1945 C1944 1.363 . S
C1945 C1951 1.363 1_565 S
C1946 C1947 1.363 . S
C1946 C1951 1.379 . S
C1946 N1953 1.356 . S
C1947 C1946 1.363 . S
C1947 C1950 1.363 1_545 S
N1948 C1950 1.356 . S
N1948 H1960 0.984 . S
N1948 H1961 0.985 . S
N1949 C1951 1.356 1_556 S
N1949 H1954 0.984 . S
N1949 H1955 0.984 . S
C1950 C1944 1.379 . S
C1950 C1947 1.363 1_565 S
C1950 N1948 1.356 . S
C1951 C1945 1.363 1_545 S
C1951 C1946 1.379 . S
C1951 N1949 1.356 1_554 S
N1952 C1944 1.356 1_556 S
N1952 H1958 0.984 1_556 S
N1952 H1959 0.984 . S
N1953 C1946 1.356 . S
N1953 H1956 0.984 . S
N1953 H1957 0.985 . S
H1954 N1949 0.984 . S
H1955 N1949 0.984 . S
H1956 N1953 0.984 . S
H1957 N1953 0.985 . S
H1958 N1952 0.984 1_554 S
H1959 N1952 0.984 . S
H1960 N1948 0.984 . S
H1961 N1948 0.985 . S
C1962 C1963 1.363 . S
C1962 C1968 1.379 . S
C1962 N1970 1.356 . S
C1963 C1962 1.363 . S
C1963 C1969 1.363 1_554 S
C1964 C1965 1.363 . S
C1964 C1969 1.379 1_554 S
C1964 N1971 1.356 1_554 S
C1965 C1964 1.363 . S
C1965 C1968 1.363 . S
N1966 C1968 1.356 . S
N1966 H1978 0.984 . S
N1966 H1979 0.985 . S
N1967 C1969 1.356 . S
N1967 H1972 0.984 . S
N1967 H1973 0.985 . S
C1968 C1962 1.379 . S
C1968 C1965 1.363 . S
C1968 N1966 1.356 . S
C1969 C1963 1.363 1_556 S
C1969 C1964 1.379 1_556 S
C1969 N1967 1.356 . S
N1970 C1962 1.356 . S
N1970 H1976 0.984 . S
N1970 H1977 0.984 . S
N1971 C1964 1.356 1_556 S
N1971 H1974 0.984 . S
N1971 H1975 0.985 . S
H1972 N1967 0.984 . S
H1973 N1967 0.985 . S
H1974 N1971 0.984 . S
H1975 N1971 0.985 . S
H1976 N1970 0.984 . S
H1977 N1970 0.984 . S
H1978 N1966 0.984 . S
H1979 N1966 0.985 . S
C1980 C1981 1.363 . S
C1980 C1986 1.379 . S
C1980 N1988 1.356 . S
C1981 C1980 1.363 . S
C1981 C1987 1.363 . S
C1982 C1983 1.363 . S
C1982 C1987 1.379 . S
C1982 N1989 1.356 . S
C1983 C1982 1.363 . S
C1983 C1986 1.363 . S
N1984 C1986 1.356 . S
N1984 H1996 0.984 . S
N1984 H1997 0.985 . S
N1985 C1987 1.356 . S
N1985 H1990 0.984 . S
N1985 H1991 0.985 . S
C1986 C1980 1.379 . S
C1986 C1983 1.363 . S
C1986 N1984 1.356 . S
C1987 C1981 1.363 . S
C1987 C1982 1.379 . S
C1987 N1985 1.356 . S
N1988 C1980 1.356 . S
N1988 H1994 0.984 . S
N1988 H1995 0.984 . S
N1989 C1982 1.356 . S
N1989 H1992 0.984 . S
N1989 H1993 0.985 . S
H1990 N1985 0.984 . S
H1991 N1985 0.985 . S
H1992 N1989 0.984 . S
H1993 N1989 0.985 . S
H1994 N1988 0.984 . S
H1995 N1988 0.984 . S
H1996 N1984 0.984 . S
H1997 N1984 0.985 . S
C1998 C1999 1.363 . S
C1998 C2004 1.379 . S
C1998 N2006 1.356 . S
C1999 C1998 1.363 . S
C1999 C2005 1.363 . S
C2000 C2001 1.363 . S
C2000 C2005 1.379 . S
C2000 N2007 1.356 . S
C2001 C2000 1.363 . S
C2001 C2004 1.363 . S
N2002 C2004 1.356 . S
N2002 H2014 0.984 . S
N2002 H2015 0.985 . S
N2003 C2005 1.356 . S
N2003 H2008 0.984 . S
N2003 H2009 0.985 . S
C2004 C1998 1.379 . S
C2004 C2001 1.363 . S
C2004 N2002 1.356 . S
C2005 C1999 1.363 . S
C2005 C2000 1.379 . S
C2005 N2003 1.356 . S
N2006 C1998 1.356 . S
N2006 H2012 0.984 . S
N2006 H2013 0.984 . S
N2007 C2000 1.356 . S
N2007 H2010 0.984 . S
N2007 H2011 0.985 . S
H2008 N2003 0.984 . S
H2009 N2003 0.985 . S
H2010 N2007 0.984 . S
H2011 N2007 0.985 . S
H2012 N2006 0.984 . S
H2013 N2006 0.984 . S
H2014 N2002 0.984 . S
H2015 N2002 0.985 . S
C2016 C2017 1.363 . S
C2016 C2022 1.379 . S
C2016 N2024 1.356 . S
C2017 C2016 1.363 . S
C2017 C2023 1.363 . S
C2018 C2019 1.363 . S
C2018 C2023 1.379 . S
C2018 N2025 1.356 . S
C2019 C2018 1.363 . S
C2019 C2022 1.363 . S
N2020 C2022 1.356 . S
N2020 H2032 0.984 . S
N2020 H2033 0.985 . S
N2021 C2023 1.356 . S
N2021 H2026 0.984 . S
N2021 H2027 0.985 . S
C2022 C2016 1.379 . S
C2022 C2019 1.363 . S
C2022 N2020 1.356 . S
C2023 C2017 1.363 . S
C2023 C2018 1.379 . S
C2023 N2021 1.356 . S
N2024 C2016 1.356 . S
N2024 H2030 0.984 . S
N2024 H2031 0.984 . S
N2025 C2018 1.356 . S
N2025 H2028 0.984 . S
N2025 H2029 0.985 . S
H2026 N2021 0.984 . S
H2027 N2021 0.985 . S
H2028 N2025 0.984 . S
H2029 N2025 0.985 . S
H2030 N2024 0.984 . S
H2031 N2024 0.984 . S
H2032 N2020 0.984 . S
H2033 N2020 0.985 . S
C2034 C2035 1.363 . S
C2034 C2040 1.379 . S
C2034 N2042 1.356 . S
C2035 C2034 1.363 . S
C2035 C2041 1.363 . S
C2036 C2037 1.363 . S
C2036 C2041 1.379 . S
C2036 N2043 1.356 . S
C2037 C2036 1.363 . S
C2037 C2040 1.363 . S
N2038 C2040 1.356 . S
N2038 H2050 0.984 . S
N2038 H2051 0.985 . S
N2039 C2041 1.356 . S
N2039 H2044 0.984 . S
N2039 H2045 0.985 . S
C2040 C2034 1.379 . S
C2040 C2037 1.363 . S
C2040 N2038 1.356 . S
C2041 C2035 1.363 . S
C2041 C2036 1.379 . S
C2041 N2039 1.356 . S
N2042 C2034 1.356 . S
N2042 H2048 0.984 . S
N2042 H2049 0.984 . S
N2043 C2036 1.356 . S
N2043 H2046 0.984 . S
N2043 H2047 0.985 . S
H2044 N2039 0.984 . S
H2045 N2039 0.985 . S
H2046 N2043 0.984 . S
H2047 N2043 0.985 . S
H2048 N2042 0.984 . S
H2049 N2042 0.984 . S
H2050 N2038 0.984 . S
H2051 N2038 0.985 . S
C2052 C2053 1.363 . S
C2052 C2058 1.379 . S
C2052 N2060 1.356 . S
C2053 C2052 1.363 . S
C2053 C2059 1.363 . S
C2054 C2055 1.363 . S
C2054 C2059 1.379 . S
C2054 N2061 1.356 . S
C2055 C2054 1.363 . S
C2055 C2058 1.363 . S
N2056 C2058 1.356 . S
N2056 H2068 0.984 . S
N2056 H2069 0.985 . S
N2057 C2059 1.356 . S
N2057 H2062 0.984 . S
N2057 H2063 0.985 . S
C2058 C2052 1.379 . S
C2058 C2055 1.363 . S
C2058 N2056 1.356 . S
C2059 C2053 1.363 . S
C2059 C2054 1.379 . S
C2059 N2057 1.356 . S
N2060 C2052 1.356 . S
N2060 H2066 0.984 . S
N2060 H2067 0.984 . S
N2061 C2054 1.356 . S
N2061 H2064 0.984 . S
N2061 H2065 0.985 . S
H2062 N2057 0.984 . S
H2063 N2057 0.985 . S
H2064 N2061 0.984 . S
H2065 N2061 0.985 . S
H2066 N2060 0.984 . S
H2067 N2060 0.984 . S
H2068 N2056 0.984 . S
H2069 N2056 0.985 . S
C2070 C2071 1.363 . S
C2070 C2076 1.379 . S
C2070 N2078 1.356 . S
C2071 C2070 1.363 . S
C2071 C2077 1.363 . S
C2072 C2073 1.363 . S
C2072 C2077 1.379 . S
C2072 N2079 1.356 . S
C2073 C2072 1.363 . S
C2073 C2076 1.363 . S
N2074 C2076 1.356 . S
N2074 H2086 0.984 . S
N2074 H2087 0.985 . S
N2075 C2077 1.356 . S
N2075 H2080 0.984 . S
N2075 H2081 0.985 . S
C2076 C2070 1.379 . S
C2076 C2073 1.363 . S
C2076 N2074 1.356 . S
C2077 C2071 1.363 . S
C2077 C2072 1.379 . S
C2077 N2075 1.356 . S
N2078 C2070 1.356 . S
N2078 H2084 0.984 . S
N2078 H2085 0.984 . S
N2079 C2072 1.356 . S
N2079 H2082 0.984 . S
N2079 H2083 0.985 . S
H2080 N2075 0.984 . S
H2081 N2075 0.985 . S
H2082 N2079 0.984 . S
H2083 N2079 0.985 . S
H2084 N2078 0.984 . S
H2085 N2078 0.984 . S
H2086 N2074 0.984 . S
H2087 N2074 0.985 . S
C2088 C2089 1.363 . S
C2088 C2094 1.379 . S
C2088 N2096 1.356 . S
C2089 C2088 1.363 . S
C2089 C2095 1.363 . S
C2090 C2091 1.363 . S
C2090 C2095 1.379 . S
C2090 N2097 1.356 . S
C2091 C2090 1.363 . S
C2091 C2094 1.363 . S
N2092 C2094 1.356 . S
N2092 H2104 0.984 1_554 S
N2092 H2105 0.985 . S
N2093 C2095 1.356 . S
N2093 H2098 0.984 . S
N2093 H2099 0.985 . S
C2094 C2088 1.379 . S
C2094 C2091 1.363 . S
C2094 N2092 1.356 . S
C2095 C2089 1.363 . S
C2095 C2090 1.379 . S
C2095 N2093 1.356 . S
N2096 C2088 1.356 . S
N2096 H2102 0.984 . S
N2096 H2103 0.984 . S
N2097 C2090 1.356 . S
N2097 H2100 0.984 . S
N2097 H2101 0.985 . S
H2098 N2093 0.984 . S
H2099 N2093 0.985 . S
H2100 N2097 0.984 . S
H2101 N2097 0.985 . S
H2102 N2096 0.984 . S
H2103 N2096 0.984 . S
H2104 N2092 0.984 1_556 S
H2105 N2092 0.985 . S
C2106 C2107 1.363 . S
C2106 C2112 1.379 . S
C2106 N2114 1.356 . S
C2107 C2106 1.363 . S
C2107 C2113 1.363 . S
C2108 C2109 1.363 . S
C2108 C2113 1.379 . S
C2108 N2115 1.356 . S
C2109 C2108 1.363 . S
C2109 C2112 1.363 . S
N2110 C2112 1.356 . S
N2110 H2122 0.984 . S
N2110 H2123 0.985 . S
N2111 C2113 1.356 . S
N2111 H2116 0.984 . S
N2111 H2117 0.985 . S
C2112 C2106 1.379 . S
C2112 C2109 1.363 . S
C2112 N2110 1.356 . S
C2113 C2107 1.363 . S
C2113 C2108 1.379 . S
C2113 N2111 1.356 . S
N2114 C2106 1.356 . S
N2114 H2120 0.984 . S
N2114 H2121 0.984 . S
N2115 C2108 1.356 . S
N2115 H2118 0.984 . S
N2115 H2119 0.985 . S
H2116 N2111 0.984 . S
H2117 N2111 0.985 . S
H2118 N2115 0.984 . S
H2119 N2115 0.985 . S
H2120 N2114 0.984 . S
H2121 N2114 0.984 . S
H2122 N2110 0.984 . S
H2123 N2110 0.985 . S
C2124 C2125 1.363 . S
C2124 C2130 1.379 . S
C2124 N2132 1.356 . S
C2125 C2124 1.363 . S
C2125 C2131 1.363 . S
C2126 C2127 1.363 . S
C2126 C2131 1.379 . S
C2126 N2133 1.356 . S
C2127 C2126 1.363 . S
C2127 C2130 1.363 . S
N2128 C2130 1.356 . S
N2128 H2140 0.984 . S
N2128 H2141 0.985 . S
N2129 C2131 1.356 . S
N2129 H2134 0.984 . S
N2129 H2135 0.985 . S
C2130 C2124 1.379 . S
C2130 C2127 1.363 . S
C2130 N2128 1.356 . S
C2131 C2125 1.363 . S
C2131 C2126 1.379 . S
C2131 N2129 1.356 . S
N2132 C2124 1.356 . S
N2132 H2138 0.984 . S
N2132 H2139 0.984 . S
N2133 C2126 1.356 . S
N2133 H2136 0.984 . S
N2133 H2137 0.985 . S
H2134 N2129 0.984 . S
H2135 N2129 0.985 . S
H2136 N2133 0.984 . S
H2137 N2133 0.985 . S
H2138 N2132 0.984 . S
H2139 N2132 0.984 . S
H2140 N2128 0.984 . S
H2141 N2128 0.985 . S
C2142 C2143 1.363 . S
C2142 C2148 1.379 . S
C2142 N2150 1.356 . S
C2143 C2142 1.363 . S
C2143 C2149 1.363 . S
C2144 C2145 1.363 . S
C2144 C2149 1.379 . S
C2144 N2151 1.356 . S
C2145 C2144 1.363 . S
C2145 C2148 1.363 . S
N2146 C2148 1.356 . S
N2146 H2158 0.984 . S
N2146 H2159 0.985 . S
N2147 C2149 1.356 . S
N2147 H2152 0.984 . S
N2147 H2153 0.985 . S
C2148 C2142 1.379 . S
C2148 C2145 1.363 . S
C2148 N2146 1.356 . S
C2149 C2143 1.363 . S
C2149 C2144 1.379 . S
C2149 N2147 1.356 . S
N2150 C2142 1.356 . S
N2150 H2156 0.984 . S
N2150 H2157 0.984 . S
N2151 C2144 1.356 . S
N2151 H2154 0.984 . S
N2151 H2155 0.985 . S
H2152 N2147 0.984 . S
H2153 N2147 0.985 . S
H2154 N2151 0.984 . S
H2155 N2151 0.985 . S
H2156 N2150 0.984 . S
H2157 N2150 0.984 . S
H2158 N2146 0.984 . S
H2159 N2146 0.985 . S
C2160 C2161 1.363 . S
C2160 C2166 1.379 . S
C2160 N2168 1.356 . S
C2161 C2160 1.363 . S
C2161 C2167 1.363 . S
C2162 C2163 1.363 . S
C2162 C2167 1.379 . S
C2162 N2169 1.356 . S
C2163 C2162 1.363 . S
C2163 C2166 1.363 . S
N2164 C2166 1.356 . S
N2164 H2176 0.984 . S
N2164 H2177 0.985 . S
N2165 C2167 1.356 . S
N2165 H2170 0.984 . S
N2165 H2171 0.985 . S
C2166 C2160 1.379 . S
C2166 C2163 1.363 . S
C2166 N2164 1.356 . S
C2167 C2161 1.363 . S
C2167 C2162 1.379 . S
C2167 N2165 1.356 . S
N2168 C2160 1.356 . S
N2168 H2174 0.984 . S
N2168 H2175 0.984 . S
N2169 C2162 1.356 . S
N2169 H2172 0.984 . S
N2169 H2173 0.985 1_455 S
H2170 N2165 0.984 . S
H2171 N2165 0.985 . S
H2172 N2169 0.984 . S
H2173 N2169 0.985 1_655 S
H2174 N2168 0.984 . S
H2175 N2168 0.984 . S
H2176 N2164 0.984 . S
H2177 N2164 0.985 . S
C2178 C2179 1.363 . S
C2178 C2184 1.379 . S
C2178 N2186 1.356 . S
C2179 C2178 1.363 . S
C2179 C2185 1.363 . S
C2180 C2181 1.363 . S
C2180 C2185 1.379 . S
C2180 N2187 1.356 . S
C2181 C2180 1.363 . S
C2181 C2184 1.363 . S
N2182 C2184 1.356 . S
N2182 H2194 0.984 . S
N2182 H2195 0.985 . S
N2183 C2185 1.356 . S
N2183 H2188 0.984 . S
N2183 H2189 0.985 . S
C2184 C2178 1.379 . S
C2184 C2181 1.363 . S
C2184 N2182 1.356 . S
C2185 C2179 1.363 . S
C2185 C2180 1.379 . S
C2185 N2183 1.356 . S
N2186 C2178 1.356 . S
N2186 H2192 0.984 . S
N2186 H2193 0.984 . S
N2187 C2180 1.356 . S
N2187 H2190 0.984 . S
N2187 H2191 0.985 . S
H2188 N2183 0.984 . S
H2189 N2183 0.985 . S
H2190 N2187 0.984 . S
H2191 N2187 0.985 . S
H2192 N2186 0.984 . S
H2193 N2186 0.984 . S
H2194 N2182 0.984 . S
H2195 N2182 0.985 . S
C2196 C2197 1.363 . S
C2196 C2202 1.379 . S
C2196 N2204 1.356 . S
C2197 C2196 1.363 . S
C2197 C2203 1.363 . S
C2198 C2199 1.363 . S
C2198 C2203 1.379 . S
C2198 N2205 1.356 1_556 S
C2199 C2198 1.363 . S
C2199 C2202 1.363 . S
N2200 C2202 1.356 . S
N2200 H2212 0.984 1_565 S
N2200 H2213 0.985 1_565 S
N2201 C2203 1.356 . S
N2201 H2206 0.984 . S
N2201 H2207 0.985 . S
C2202 C2196 1.379 . S
C2202 C2199 1.363 . S
C2202 N2200 1.356 . S
C2203 C2197 1.363 . S
C2203 C2198 1.379 . S
C2203 N2201 1.356 . S
N2204 C2196 1.356 . S
N2204 H2210 0.984 . S
N2204 H2211 0.984 . S
N2205 C2198 1.356 1_554 S
N2205 H2208 0.984 . S
N2205 H2209 0.985 . S
H2206 N2201 0.984 . S
H2207 N2201 0.985 . S
H2208 N2205 0.984 . S
H2209 N2205 0.985 . S
H2210 N2204 0.984 . S
H2211 N2204 0.984 . S
H2212 N2200 0.984 1_545 S
H2213 N2200 0.985 1_545 S
C2214 C2215 1.363 . S
C2214 C2220 1.379 . S
C2214 N2222 1.356 . S
C2215 C2214 1.363 . S
C2215 C2221 1.363 . S
C2216 C2217 1.363 . S
C2216 C2221 1.379 . S
C2216 N2223 1.356 . S
C2217 C2216 1.363 . S
C2217 C2220 1.363 . S
N2218 C2220 1.356 . S
N2218 H2230 0.984 . S
N2218 H2231 0.985 . S
N2219 C2221 1.356 . S
N2219 H2224 0.984 . S
N2219 H2225 0.985 . S
C2220 C2214 1.379 . S
C2220 C2217 1.363 . S
C2220 N2218 1.356 . S
C2221 C2215 1.363 . S
C2221 C2216 1.379 . S
C2221 N2219 1.356 . S
N2222 C2214 1.356 . S
N2222 H2228 0.984 . S
N2222 H2229 0.984 . S
N2223 C2216 1.356 . S
N2223 H2226 0.984 . S
N2223 H2227 0.985 . S
H2224 N2219 0.984 . S
H2225 N2219 0.985 . S
H2226 N2223 0.984 . S
H2227 N2223 0.985 . S
H2228 N2222 0.984 . S
H2229 N2222 0.984 . S
H2230 N2218 0.984 . S
H2231 N2218 0.985 . S
C2232 C2233 1.363 . S
C2232 C2238 1.379 . S
C2232 N2240 1.356 . S
C2233 C2232 1.363 . S
C2233 C2239 1.363 . S
C2234 C2235 1.363 . S
C2234 C2239 1.379 . S
C2234 N2241 1.356 . S
C2235 C2234 1.363 . S
C2235 C2238 1.363 . S
N2236 C2238 1.356 1_565 S
N2236 H2248 0.984 . S
N2236 H2249 0.985 . S
N2237 C2239 1.356 . S
N2237 H2242 0.984 . S
N2237 H2243 0.985 . S
C2238 C2232 1.379 . S
C2238 C2235 1.363 . S
C2238 N2236 1.356 1_545 S
C2239 C2233 1.363 . S
C2239 C2234 1.379 . S
C2239 N2237 1.356 . S
N2240 C2232 1.356 . S
N2240 H2246 0.984 . S
N2240 H2247 0.984 . S
N2241 C2234 1.356 . S
N2241 H2244 0.984 . S
N2241 H2245 0.985 . S
H2242 N2237 0.984 . S
H2243 N2237 0.985 . S
H2244 N2241 0.984 . S
H2245 N2241 0.985 . S
H2246 N2240 0.984 . S
H2247 N2240 0.984 . S
H2248 N2236 0.984 . S
H2249 N2236 0.985 . S
C2250 C2251 1.363 . S
C2250 C2256 1.379 . S
C2250 N2258 1.356 . S
C2251 C2250 1.363 . S
C2251 C2257 1.363 . S
C2252 C2253 1.363 . S
C2252 C2257 1.379 . S
C2252 N2259 1.356 . S
C2253 C2252 1.363 . S
C2253 C2256 1.363 . S
N2254 C2256 1.356 . S
N2254 H2266 0.984 . S
N2254 H2267 0.985 . S
N2255 C2257 1.356 . S
N2255 H2260 0.984 . S
N2255 H2261 0.985 . S
C2256 C2250 1.379 . S
C2256 C2253 1.363 . S
C2256 N2254 1.356 . S
C2257 C2251 1.363 . S
C2257 C2252 1.379 . S
C2257 N2255 1.356 . S
N2258 C2250 1.356 . S
N2258 H2264 0.984 . S
N2258 H2265 0.984 . S
N2259 C2252 1.356 . S
N2259 H2262 0.984 . S
N2259 H2263 0.985 . S
H2260 N2255 0.984 . S
H2261 N2255 0.985 . S
H2262 N2259 0.984 . S
H2263 N2259 0.985 . S
H2264 N2258 0.984 . S
H2265 N2258 0.984 . S
H2266 N2254 0.984 . S
H2267 N2254 0.985 . S
C2268 C2269 1.363 . S
C2268 C2274 1.379 . S
C2268 N2276 1.356 . S
C2269 C2268 1.363 . S
C2269 C2275 1.363 . S
C2270 C2271 1.363 . S
C2270 C2275 1.379 . S
C2270 N2277 1.378 . S
C2271 C2270 1.363 . S
C2271 C2274 1.363 . S
N2272 C2274 1.356 . S
N2272 H2284 0.984 . S
N2272 H2285 0.985 . S
N2273 C2275 1.356 1_565 S
N2273 H2278 0.984 . S
N2273 H2279 0.985 . S
C2274 C2268 1.379 . S
C2274 C2271 1.363 . S
C2274 N2272 1.356 . S
C2275 C2269 1.363 . S
C2275 C2270 1.379 . S
C2275 N2273 1.356 1_545 S
N2276 C2268 1.356 . S
N2276 H2282 0.984 . S
N2276 H2283 0.984 . S
N2277 C2270 1.378 . S
N2277 H2280 0.992 . S
N2277 H2281 0.957 1_545 S
H2278 N2273 0.984 . S
H2279 N2273 0.985 . S
H2280 N2277 0.992 . S
H2281 N2277 0.957 1_565 S
H2282 N2276 0.984 . S
H2283 N2276 0.984 . S
H2284 N2272 0.984 . S
H2285 N2272 0.985 . S
C2286 C2287 1.363 . S
C2286 C2292 1.379 . S
C2286 N2294 1.356 . S
C2287 C2286 1.363 . S
C2287 C2293 1.363 . S
C2288 C2289 1.363 . S
C2288 C2293 1.379 . S
C2288 N2295 1.356 . S
C2289 C2288 1.363 . S
C2289 C2292 1.363 . S
N2290 C2292 1.356 . S
N2290 H2302 0.984 . S
N2290 H2303 0.985 . S
N2291 C2293 1.356 . S
N2291 H2296 0.984 . S
N2291 H2297 0.985 . S
C2292 C2286 1.379 . S
C2292 C2289 1.363 . S
C2292 N2290 1.356 . S
C2293 C2287 1.363 . S
C2293 C2288 1.379 . S
C2293 N2291 1.356 . S
N2294 C2286 1.356 . S
N2294 H2300 0.984 . S
N2294 H2301 0.984 . S
N2295 C2288 1.356 . S
N2295 H2298 0.984 . S
N2295 H2299 0.985 . S
H2296 N2291 0.984 . S
H2297 N2291 0.985 . S
H2298 N2295 0.984 . S
H2299 N2295 0.985 . S
H2300 N2294 0.984 . S
H2301 N2294 0.984 . S
H2302 N2290 0.984 . S
H2303 N2290 0.985 . S
C2304 C2305 1.363 . S
C2304 C2310 1.379 . S
C2304 N2312 1.356 . S
C2305 C2304 1.363 . S
C2305 C2311 1.363 . S
C2306 C2307 1.363 . S
C2306 C2311 1.379 . S
C2306 N2313 1.356 . S
C2307 C2306 1.363 . S
C2307 C2310 1.363 . S
N2308 C2310 1.356 . S
N2308 H2320 0.984 . S
N2308 H2321 0.985 . S
N2309 C2311 1.356 . S
N2309 H2314 0.984 . S
N2309 H2315 0.960 1_545 S
C2310 C2304 1.379 . S
C2310 C2307 1.363 . S
C2310 N2308 1.356 . S
C2311 C2305 1.363 . S
C2311 C2306 1.379 . S
C2311 N2309 1.356 . S
N2312 C2304 1.356 . S
N2312 H2318 0.984 . S
N2312 H2319 0.984 . S
N2313 C2306 1.356 . S
N2313 H2316 0.984 . S
N2313 H2317 0.985 1_545 S
H2314 N2309 0.984 . S
H2315 N2309 0.960 1_565 S
H2316 N2313 0.984 . S
H2317 N2313 0.985 1_565 S
H2318 N2312 0.984 . S
H2319 N2312 0.984 . S
H2320 N2308 0.984 . S
H2321 N2308 0.985 . S
C2322 C2323 1.363 . S
C2322 C2328 1.379 . S
C2322 N2330 1.356 . S
C2323 C2322 1.363 . S
C2323 C2329 1.363 . S
C2324 C2325 1.363 . S
C2324 C2329 1.379 . S
C2324 N2331 1.356 . S
C2325 C2324 1.363 . S
C2325 C2328 1.363 . S
N2326 C2328 1.356 . S
N2326 H2338 0.984 . S
N2326 H2339 0.985 . S
N2327 C2329 1.356 . S
N2327 H2332 0.984 . S
N2327 H2333 0.985 . S
C2328 C2322 1.379 . S
C2328 C2325 1.363 . S
C2328 N2326 1.356 . S
C2329 C2323 1.363 . S
C2329 C2324 1.379 . S
C2329 N2327 1.356 . S
N2330 C2322 1.356 . S
N2330 H2336 0.984 . S
N2330 H2337 0.984 . S
N2331 C2324 1.356 . S
N2331 H2334 0.984 . S
N2331 H2335 0.985 . S
H2332 N2327 0.984 . S
H2333 N2327 0.985 . S
H2334 N2331 0.984 . S
H2335 N2331 0.985 . S
H2336 N2330 0.984 . S
H2337 N2330 0.984 . S
H2338 N2326 0.984 . S
H2339 N2326 0.985 . S
C2340 C2341 1.363 . S
C2340 C2346 1.379 . S
C2340 N2348 1.356 . S
C2341 C2340 1.363 . S
C2341 C2347 1.363 1_545 S
C2342 C2343 1.363 1_565 S
C2342 C2347 1.379 . S
C2342 N2349 1.356 . S
C2343 C2342 1.363 1_545 S
C2343 C2346 1.363 . S
N2344 C2346 1.356 . S
N2344 H2356 0.984 . S
N2344 H2357 0.985 . S
N2345 C2347 1.356 . S
N2345 H2350 0.984 . S
N2345 H2351 0.985 . S
C2346 C2340 1.379 . S
C2346 C2343 1.363 . S
C2346 N2344 1.356 . S
C2347 C2341 1.363 1_565 S
C2347 C2342 1.379 . S
C2347 N2345 1.356 . S
N2348 C2340 1.356 . S
N2348 H2354 0.984 . S
N2348 H2355 0.984 . S
N2349 C2342 1.356 . S
N2349 H2352 0.984 . S
N2349 H2353 0.985 . S
H2350 N2345 0.984 . S
H2351 N2345 0.985 . S
H2352 N2349 0.984 . S
H2353 N2349 0.985 . S
H2354 N2348 0.984 . S
H2355 N2348 0.984 . S
H2356 N2344 0.984 . S
H2357 N2344 0.985 . S
C2358 C2359 1.363 . S
C2358 C2364 1.379 . S
C2358 N2366 1.356 . S
C2359 C2358 1.363 . S
C2359 C2365 1.363 . S
C2360 C2361 1.363 . S
C2360 C2365 1.379 . S
C2360 N2367 1.356 . S
C2361 C2360 1.363 . S
C2361 C2364 1.363 . S
N2362 C2364 1.356 . S
N2362 H2374 0.984 . S
N2362 H2375 0.985 . S
N2363 C2365 1.356 . S
N2363 H2368 0.984 . S
N2363 H2369 0.985 . S
C2364 C2358 1.379 . S
C2364 C2361 1.363 . S
C2364 N2362 1.356 . S
C2365 C2359 1.363 . S
C2365 C2360 1.379 . S
C2365 N2363 1.356 . S
N2366 C2358 1.356 . S
N2366 H2372 0.984 . S
N2366 H2373 0.984 . S
N2367 C2360 1.356 . S
N2367 H2370 0.984 . S
N2367 H2371 0.985 . S
H2368 N2363 0.984 . S
H2369 N2363 0.985 . S
H2370 N2367 0.984 . S
H2371 N2367 0.985 . S
H2372 N2366 0.984 . S
H2373 N2366 0.984 . S
H2374 N2362 0.984 . S
H2375 N2362 0.985 . S
C2376 C2377 1.363 . S
C2376 C2382 1.379 . S
C2376 N2384 1.356 . S
C2377 C2376 1.363 . S
C2377 C2383 1.363 . S
C2378 C2379 1.363 . S
C2378 C2383 1.379 . S
C2378 N2385 1.356 . S
C2379 C2378 1.363 . S
C2379 C2382 1.363 . S
N2380 C2382 1.356 1_556 S
N2380 H2392 0.984 . S
N2380 H2393 0.985 . S
N2381 C2383 1.356 . S
N2381 H2386 0.984 . S
N2381 H2387 0.985 . S
C2382 C2376 1.379 . S
C2382 C2379 1.363 . S
C2382 N2380 1.356 1_554 S
C2383 C2377 1.363 . S
C2383 C2378 1.379 . S
C2383 N2381 1.356 . S
N2384 C2376 1.356 . S
N2384 H2390 0.984 . S
N2384 H2391 0.984 . S
N2385 C2378 1.356 . S
N2385 H2388 0.984 . S
N2385 H2389 0.985 . S
H2386 N2381 0.984 . S
H2387 N2381 0.985 . S
H2388 N2385 0.984 . S
H2389 N2385 0.985 . S
H2390 N2384 0.984 . S
H2391 N2384 0.984 . S
H2392 N2380 0.984 . S
H2393 N2380 0.985 . S
C2394 C2395 1.363 . S
C2394 C2400 1.379 . S
C2394 N2402 1.356 . S
C2395 C2394 1.363 . S
C2395 C2401 1.363 . S
C2396 C2397 1.363 . S
C2396 C2401 1.379 . S
C2396 N2403 1.356 . S
C2397 C2396 1.363 . S
C2397 C2400 1.363 . S
N2398 C2400 1.356 . S
N2398 H2410 0.984 1_554 S
N2398 H2411 0.985 . S
N2399 C2401 1.356 . S
N2399 H2404 0.984 . S
N2399 H2405 0.985 . S
C2400 C2394 1.379 . S
C2400 C2397 1.363 . S
C2400 N2398 1.356 . S
C2401 C2395 1.363 . S
C2401 C2396 1.379 . S
C2401 N2399 1.356 . S
N2402 C2394 1.356 . S
N2402 H2408 0.984 . S
N2402 H2409 0.984 . S
N2403 C2396 1.356 . S
N2403 H2406 0.984 . S
N2403 H2407 0.985 . S
H2404 N2399 0.984 . S
H2405 N2399 0.985 . S
H2406 N2403 0.984 . S
H2407 N2403 0.985 . S
H2408 N2402 0.984 . S
H2409 N2402 0.984 . S
H2410 N2398 0.984 1_556 S
H2411 N2398 0.985 . S
C2412 C2413 1.363 . S
C2412 C2418 1.379 . S
C2412 N2420 1.356 . S
C2413 C2412 1.363 . S
C2413 C2419 1.363 . S
C2414 C2415 1.363 . S
C2414 C2419 1.379 . S
C2414 N2421 1.356 . S
C2415 C2414 1.363 . S
C2415 C2418 1.363 . S
N2416 C2418 1.356 . S
N2416 H2428 0.984 . S
N2416 H2429 0.985 . S
N2417 C2419 1.356 . S
N2417 H2422 0.984 . S
N2417 H2423 0.985 . S
C2418 C2412 1.379 . S
C2418 C2415 1.363 . S
C2418 N2416 1.356 . S
C2419 C2413 1.363 . S
C2419 C2414 1.379 . S
C2419 N2417 1.356 . S
N2420 C2412 1.356 . S
N2420 H2426 0.984 . S
N2420 H2427 0.984 . S
N2421 C2414 1.356 . S
N2421 H2424 0.984 . S
N2421 H2425 0.985 . S
H2422 N2417 0.984 . S
H2423 N2417 0.985 . S
H2424 N2421 0.984 . S
H2425 N2421 0.985 . S
H2426 N2420 0.984 . S
H2427 N2420 0.984 . S
H2428 N2416 0.984 . S
H2429 N2416 0.985 . S
C2430 C2431 1.363 . S
C2430 C2436 1.379 . S
C2430 N2438 1.356 . S
C2431 C2430 1.363 . S
C2431 C2437 1.363 . S
C2432 C2433 1.363 . S
C2432 C2437 1.379 . S
C2432 N2439 1.356 . S
C2433 C2432 1.363 . S
C2433 C2436 1.363 . S
N2434 C2436 1.356 . S
N2434 H2446 0.984 . S
N2434 H2447 0.985 . S
N2435 C2437 1.356 . S
N2435 H2440 0.984 . S
N2435 H2441 0.985 . S
C2436 C2430 1.379 . S
C2436 C2433 1.363 . S
C2436 N2434 1.356 . S
C2437 C2431 1.363 . S
C2437 C2432 1.379 . S
C2437 N2435 1.356 . S
N2438 C2430 1.356 . S
N2438 H2444 0.984 . S
N2438 H2445 0.984 . S
N2439 C2432 1.356 . S
N2439 H2442 0.984 . S
N2439 H2443 0.985 . S
H2440 N2435 0.984 . S
H2441 N2435 0.985 . S
H2442 N2439 0.984 . S
H2443 N2439 0.985 . S
H2444 N2438 0.984 . S
H2445 N2438 0.984 . S
H2446 N2434 0.984 . S
H2447 N2434 0.985 . S
C2448 C2449 1.363 1_565 S
C2448 C2454 1.379 . S
C2448 N2456 1.356 . S
C2449 C2448 1.363 1_545 S
C2449 C2455 1.363 . S
C2450 C2451 1.363 1_545 S
C2450 C2455 1.379 . S
C2450 N2457 1.356 . S
C2451 C2450 1.363 1_565 S
C2451 C2454 1.363 . S
N2452 C2454 1.356 . S
N2452 H2464 0.984 . S
N2452 H2465 0.985 . S
N2453 C2455 1.356 . S
N2453 H2458 0.984 . S
N2453 H2459 0.985 . S
C2454 C2448 1.379 . S
C2454 C2451 1.363 . S
C2454 N2452 1.356 . S
C2455 C2449 1.363 . S
C2455 C2450 1.379 . S
C2455 N2453 1.356 . S
N2456 C2448 1.356 . S
N2456 H2462 0.984 . S
N2456 H2463 0.984 . S
N2457 C2450 1.356 . S
N2457 H2460 0.984 1_545 S
N2457 H2461 0.985 . S
H2458 N2453 0.984 . S
H2459 N2453 0.985 . S
H2460 N2457 0.984 1_565 S
H2461 N2457 0.985 . S
H2462 N2456 0.984 . S
H2463 N2456 0.984 . S
H2464 N2452 0.984 . S
H2465 N2452 0.985 . S
C2466 C2467 1.363 . S
C2466 C2472 1.379 . S
C2466 N2474 1.356 . S
C2467 C2466 1.363 . S
C2467 C2473 1.363 . S
C2468 C2469 1.363 . S
C2468 C2473 1.379 . S
C2468 N2475 1.356 1_565 S
C2469 C2468 1.363 . S
C2469 C2472 1.363 . S
N2470 C2472 1.356 . S
N2470 H2482 0.984 . S
N2470 H2483 0.985 . S
N2471 C2473 1.356 . S
N2471 H2476 0.984 . S
N2471 H2477 0.985 . S
C2472 C2466 1.379 . S
C2472 C2469 1.363 . S
C2472 N2470 1.356 . S
C2473 C2467 1.363 . S
C2473 C2468 1.379 . S
C2473 N2471 1.356 . S
N2474 C2466 1.356 . S
N2474 H2480 0.984 . S
N2474 H2481 0.984 . S
N2475 C2468 1.356 1_545 S
N2475 H2478 0.984 . S
N2475 H2479 0.985 . S
H2476 N2471 0.984 . S
H2477 N2471 0.985 . S
H2478 N2475 0.984 . S
H2479 N2475 0.985 . S
H2480 N2474 0.984 . S
H2481 N2474 0.984 . S
H2482 N2470 0.984 . S
H2483 N2470 0.985 . S
C2484 C2485 1.363 . S
C2484 C2490 1.379 . S
C2484 N2492 1.356 . S
C2485 C2484 1.363 . S
C2485 C2491 1.363 . S
C2486 C2487 1.363 . S
C2486 C2491 1.379 . S
C2486 N2493 1.356 . S
C2487 C2486 1.363 . S
C2487 C2490 1.363 . S
N2488 C2490 1.356 . S
N2488 H2500 0.984 . S
N2488 H2501 0.985 . S
N2489 C2491 1.356 . S
N2489 H2494 0.984 . S
N2489 H2495 0.985 . S
C2490 C2484 1.379 . S
C2490 C2487 1.363 . S
C2490 N2488 1.356 . S
C2491 C2485 1.363 . S
C2491 C2486 1.379 . S
C2491 N2489 1.356 . S
N2492 C2484 1.356 . S
N2492 H2498 0.984 . S
N2492 H2499 0.984 . S
N2493 C2486 1.356 . S
N2493 H2496 0.984 . S
N2493 H2497 0.985 . S
H2494 N2489 0.984 . S
H2495 N2489 0.985 . S
H2496 N2493 0.984 . S
H2497 N2493 0.985 . S
H2498 N2492 0.984 . S
H2499 N2492 0.984 . S
H2500 N2488 0.984 . S
H2501 N2488 0.985 . S
C2502 C2503 1.363 . S
C2502 C2508 1.379 . S
C2502 N2510 1.356 . S
C2503 C2502 1.363 . S
C2503 C2509 1.363 . S
C2504 C2505 1.363 . S
C2504 C2509 1.379 . S
C2504 N2511 1.356 . S
C2505 C2504 1.363 . S
C2505 C2508 1.363 . S
N2506 C2508 1.356 . S
N2506 H2518 0.984 . S
N2506 H2519 0.985 . S
N2507 C2509 1.356 . S
N2507 H2512 0.984 . S
N2507 H2513 0.985 . S
C2508 C2502 1.379 . S
C2508 C2505 1.363 . S
C2508 N2506 1.356 . S
C2509 C2503 1.363 . S
C2509 C2504 1.379 . S
C2509 N2507 1.356 . S
N2510 C2502 1.356 . S
N2510 H2516 0.984 . S
N2510 H2517 0.984 . S
N2511 C2504 1.356 . S
N2511 H2514 0.984 . S
N2511 H2515 0.985 . S
H2512 N2507 0.984 . S
H2513 N2507 0.985 . S
H2514 N2511 0.984 . S
H2515 N2511 0.985 . S
H2516 N2510 0.984 . S
H2517 N2510 0.984 . S
H2518 N2506 0.984 . S
H2519 N2506 0.985 . S
C2520 C2521 1.363 . S
C2520 C2526 1.379 . S
C2520 N2528 1.356 . S
C2521 C2520 1.363 . S
C2521 C2527 1.363 . S
C2522 C2523 1.363 . S
C2522 C2527 1.379 . S
C2522 N2529 1.356 . S
C2523 C2522 1.363 . S
C2523 C2526 1.363 . S
N2524 C2526 1.356 . S
N2524 H2536 0.984 . S
N2524 H2537 0.985 . S
N2525 C2527 1.356 . S
N2525 H2530 0.984 . S
N2525 H2531 0.985 . S
C2526 C2520 1.379 . S
C2526 C2523 1.363 . S
C2526 N2524 1.356 . S
C2527 C2521 1.363 . S
C2527 C2522 1.379 . S
C2527 N2525 1.356 . S
N2528 C2520 1.356 . S
N2528 H2534 0.984 . S
N2528 H2535 0.984 . S
N2529 C2522 1.356 . S
N2529 H2532 0.984 . S
N2529 H2533 0.985 . S
H2530 N2525 0.984 . S
H2531 N2525 0.985 . S
H2532 N2529 0.984 . S
H2533 N2529 0.985 . S
H2534 N2528 0.984 . S
H2535 N2528 0.984 . S
H2536 N2524 0.984 . S
H2537 N2524 0.985 . S
C2538 C2539 1.363 . S
C2538 C2544 1.379 . S
C2538 N2546 1.356 . S
C2539 C2538 1.363 . S
C2539 C2545 1.363 . S
C2540 C2541 1.363 . S
C2540 C2545 1.379 . S
C2540 N2547 1.356 . S
C2541 C2540 1.363 . S
C2541 C2544 1.363 . S
N2542 C2544 1.356 . S
N2542 H2554 0.984 . S
N2542 H2555 0.985 . S
N2543 C2545 1.356 . S
N2543 H2548 0.984 . S
N2543 H2549 0.985 . S
C2544 C2538 1.379 . S
C2544 C2541 1.363 . S
C2544 N2542 1.356 . S
C2545 C2539 1.363 . S
C2545 C2540 1.379 . S
C2545 N2543 1.356 . S
N2546 C2538 1.356 . S
N2546 H2552 0.984 . S
N2546 H2553 0.984 . S
N2547 C2540 1.356 . S
N2547 H2550 0.984 . S
N2547 H2551 0.985 . S
H2548 N2543 0.984 . S
H2549 N2543 0.985 . S
H2550 N2547 0.984 . S
H2551 N2547 0.985 . S
H2552 N2546 0.984 . S
H2553 N2546 0.984 . S
H2554 N2542 0.984 . S
H2555 N2542 0.985 . S
C2556 C2557 1.363 . S
C2556 C2562 1.379 . S
C2556 N2564 1.356 1_554 S
C2557 C2556 1.363 . S
C2557 C2563 1.363 . S
C2558 C2559 1.363 . S
C2558 C2563 1.379 . S
C2558 N2565 1.356 1_455 S
C2559 C2558 1.363 . S
C2559 C2562 1.363 . S
N2560 C2562 1.356 1_556 S
N2560 H2572 0.984 . S
N2560 H2573 0.985 . S
N2561 C2563 1.356 1_655 S
N2561 H2566 0.984 . S
N2561 H2567 0.985 . S
C2562 C2556 1.379 . S
C2562 C2559 1.363 . S
C2562 N2560 1.356 1_554 S
C2563 C2557 1.363 . S
C2563 C2558 1.379 . S
C2563 N2561 1.356 1_455 S
N2564 C2556 1.356 1_556 S
N2564 H2570 0.984 . S
N2564 H2571 0.984 . S
N2565 C2558 1.356 1_655 S
N2565 H2568 0.984 1_655 S
N2565 H2569 0.985 . S
H2566 N2561 0.984 . S
H2567 N2561 0.985 . S
H2568 N2565 0.984 1_455 S
H2569 N2565 0.985 . S
H2570 N2564 0.984 . S
H2571 N2564 0.984 . S
H2572 N2560 0.984 . S
H2573 N2560 0.985 . S
C2574 C2575 1.364 . S
C2574 C2580 1.379 . S
C2574 N2582 1.356 . S
C2575 C2574 1.364 . S
C2575 C2581 1.356 . S
C2576 C2577 1.363 . S
C2576 C2581 1.399 . S
C2576 N2583 1.356 . S
C2577 C2576 1.363 . S
C2577 C2580 1.363 . S
N2578 C2580 1.356 . S
N2578 H2590 0.984 . S
N2578 H2591 0.985 . S
N2579 C2581 1.339 1_455 S
N2579 H2584 0.984 . S
N2579 H2585 0.985 . S
C2580 C2574 1.379 . S
C2580 C2577 1.363 . S
C2580 N2578 1.356 . S
C2581 C2575 1.356 . S
C2581 C2576 1.399 . S
C2581 N2579 1.339 1_655 S
N2582 C2574 1.356 . S
N2582 H2588 0.984 . S
N2582 H2589 0.984 1_655 S
N2583 C2576 1.356 . S
N2583 H2586 0.984 . S
N2583 H2587 0.985 . S
H2584 N2579 0.984 . S
H2585 N2579 0.985 . S
H2586 N2583 0.984 . S
H2587 N2583 0.985 . S
H2588 N2582 0.984 . S
H2589 N2582 0.984 1_455 S
H2590 N2578 0.984 . S
H2591 N2578 0.985 . S
C2592 C2593 1.363 . S
C2592 C2598 1.379 . S
C2592 N2600 1.356 . S
C2593 C2592 1.363 . S
C2593 C2599 1.363 . S
C2594 C2595 1.363 . S
C2594 C2599 1.379 . S
C2594 N2601 1.356 . S
C2595 C2594 1.363 . S
C2595 C2598 1.363 . S
N2596 C2598 1.356 . S
N2596 H2608 0.984 . S
N2596 H2609 0.985 . S
N2597 C2599 1.356 . S
N2597 H2602 0.984 . S
N2597 H2603 0.985 . S
C2598 C2592 1.379 . S
C2598 C2595 1.363 . S
C2598 N2596 1.356 . S
C2599 C2593 1.363 . S
C2599 C2594 1.379 . S
C2599 N2597 1.356 . S
N2600 C2592 1.356 . S
N2600 H2606 0.984 . S
N2600 H2607 0.984 . S
N2601 C2594 1.356 . S
N2601 H2604 0.984 . S
N2601 H2605 0.985 . S
H2602 N2597 0.984 . S
H2603 N2597 0.985 . S
H2604 N2601 0.984 . S
H2605 N2601 0.985 . S
H2606 N2600 0.984 . S
H2607 N2600 0.984 . S
H2608 N2596 0.984 . S
H2609 N2596 0.985 . S
C2610 C2611 1.363 . S
C2610 C2616 1.379 . S
C2610 N2618 1.356 . S
C2611 C2610 1.363 . S
C2611 C2617 1.363 . S
C2612 C2613 1.363 . S
C2612 C2617 1.379 . S
C2612 N2619 1.356 . S
C2613 C2612 1.363 . S
C2613 C2616 1.363 . S
N2614 C2616 1.356 . S
N2614 H2626 0.984 . S
N2614 H2627 0.985 . S
N2615 C2617 1.356 . S
N2615 H2620 0.984 . S
N2615 H2621 0.985 . S
C2616 C2610 1.379 . S
C2616 C2613 1.363 . S
C2616 N2614 1.356 . S
C2617 C2611 1.363 . S
C2617 C2612 1.379 . S
C2617 N2615 1.356 . S
N2618 C2610 1.356 . S
N2618 H2624 0.984 . S
N2618 H2625 0.984 . S
N2619 C2612 1.356 . S
N2619 H2622 0.984 . S
N2619 H2623 0.985 . S
H2620 N2615 0.984 . S
H2621 N2615 0.985 . S
H2622 N2619 0.984 . S
H2623 N2619 0.985 . S
H2624 N2618 0.984 . S
H2625 N2618 0.984 . S
H2626 N2614 0.984 . S
H2627 N2614 0.985 . S
C2628 C2629 1.363 . S
C2628 C2634 1.379 . S
C2628 N2636 1.356 . S
C2629 C2628 1.363 . S
C2629 C2635 1.365 1_455 S
C2630 C2631 1.363 . S
C2630 C2635 1.380 1_455 S
C2630 N2637 1.356 1_455 S
C2631 C2630 1.363 . S
C2631 C2634 1.363 . S
N2632 C2634 1.356 . S
N2632 H2644 0.984 . S
N2632 H2645 0.985 . S
N2633 C2635 1.353 . S
N2633 H2638 0.984 . S
N2633 H2639 0.985 . S
C2634 C2628 1.379 . S
C2634 C2631 1.363 . S
C2634 N2632 1.356 . S
C2635 C2629 1.365 1_655 S
C2635 C2630 1.380 1_655 S
C2635 N2633 1.353 . S
N2636 C2628 1.356 . S
N2636 H2642 0.984 . S
N2636 H2643 0.984 . S
N2637 C2630 1.356 1_655 S
N2637 H2640 0.984 . S
N2637 H2641 0.985 . S
H2638 N2633 0.984 . S
H2639 N2633 0.985 . S
H2640 N2637 0.984 . S
H2641 N2637 0.985 . S
H2642 N2636 0.984 . S
H2643 N2636 0.984 . S
H2644 N2632 0.984 . S
H2645 N2632 0.985 . S
C2646 C2647 1.363 . S
C2646 C2652 1.379 . S
C2646 N2654 1.356 . S
C2647 C2646 1.363 . S
C2647 C2653 1.363 . S
C2648 C2649 1.363 . S
C2648 C2653 1.379 . S
C2648 N2655 1.356 . S
C2649 C2648 1.363 . S
C2649 C2652 1.363 . S
N2650 C2652 1.356 . S
N2650 H2662 0.984 . S
N2650 H2663 0.985 . S
N2651 C2653 1.356 . S
N2651 H2656 0.984 . S
N2651 H2657 0.985 . S
C2652 C2646 1.379 . S
C2652 C2649 1.363 . S
C2652 N2650 1.356 . S
C2653 C2647 1.363 . S
C2653 C2648 1.379 . S
C2653 N2651 1.356 . S
N2654 C2646 1.356 . S
N2654 H2660 0.984 . S
N2654 H2661 0.984 . S
N2655 C2648 1.356 . S
N2655 H2658 0.984 . S
N2655 H2659 0.985 . S
H2656 N2651 0.984 . S
H2657 N2651 0.985 . S
H2658 N2655 0.984 . S
H2659 N2655 0.985 . S
H2660 N2654 0.984 . S
H2661 N2654 0.984 . S
H2662 N2650 0.984 . S
H2663 N2650 0.985 . S
C2664 C2665 1.363 . S
C2664 C2670 1.379 . S
C2664 N2672 1.356 . S
C2665 C2664 1.363 . S
C2665 C2671 1.363 . S
C2666 C2667 1.363 . S
C2666 C2671 1.379 . S
C2666 N2673 1.356 . S
C2667 C2666 1.363 . S
C2667 C2670 1.363 . S
N2668 C2670 1.356 . S
N2668 H2680 0.984 . S
N2668 H2681 0.985 . S
N2669 C2671 1.356 . S
N2669 H2674 0.984 . S
N2669 H2675 0.985 . S
C2670 C2664 1.379 . S
C2670 C2667 1.363 . S
C2670 N2668 1.356 . S
C2671 C2665 1.363 . S
C2671 C2666 1.379 . S
C2671 N2669 1.356 . S
N2672 C2664 1.356 . S
N2672 H2678 0.984 . S
N2672 H2679 0.984 . S
N2673 C2666 1.356 . S
N2673 H2676 0.984 . S
N2673 H2677 0.985 . S
H2674 N2669 0.984 . S
H2675 N2669 0.985 . S
H2676 N2673 0.984 . S
H2677 N2673 0.985 . S
H2678 N2672 0.984 . S
H2679 N2672 0.984 . S
H2680 N2668 0.984 . S
H2681 N2668 0.985 . S
C2682 C2683 1.363 . S
C2682 C2688 1.379 1_554 S
C2682 N2690 1.356 . S
C2683 C2682 1.363 . S
C2683 C2689 1.363 1_554 S
C2684 C2685 1.363 . S
C2684 C2689 1.379 . S
C2684 N2691 1.356 . S
C2685 C2684 1.363 . S
C2685 C2688 1.363 . S
N2686 C2688 1.356 . S
N2686 H2698 0.984 1_556 S
N2686 H2699 0.985 . S
N2687 C2689 1.356 . S
N2687 H2692 0.984 1_556 S
N2687 H2693 0.985 . S
C2688 C2682 1.379 1_556 S
C2688 C2685 1.363 . S
C2688 N2686 1.356 . S
C2689 C2683 1.363 1_556 S
C2689 C2684 1.379 . S
C2689 N2687 1.356 . S
N2690 C2682 1.356 . S
N2690 H2696 0.984 . S
N2690 H2697 0.984 . S
N2691 C2684 1.356 . S
N2691 H2694 0.984 . S
N2691 H2695 0.985 . S
H2692 N2687 0.984 1_554 S
H2693 N2687 0.985 . S
H2694 N2691 0.984 . S
H2695 N2691 0.985 . S
H2696 N2690 0.984 . S
H2697 N2690 0.984 . S
H2698 N2686 0.984 1_554 S
H2699 N2686 0.985 . S
C2700 C2701 1.363 . S
C2700 C2706 1.379 . S
C2700 N2708 1.356 . S
C2701 C2700 1.363 . S
C2701 C2707 1.363 . S
C2702 C2703 1.363 . S
C2702 C2707 1.379 . S
C2702 N2709 1.356 . S
C2703 C2702 1.363 . S
C2703 C2706 1.363 . S
N2704 C2706 1.356 . S
N2704 H2716 0.984 . S
N2704 H2717 0.985 . S
N2705 C2707 1.356 . S
N2705 H2710 0.984 . S
N2705 H2711 0.985 . S
C2706 C2700 1.379 . S
C2706 C2703 1.363 . S
C2706 N2704 1.356 . S
C2707 C2701 1.363 . S
C2707 C2702 1.379 . S
C2707 N2705 1.356 . S
N2708 C2700 1.356 . S
N2708 H2714 0.984 . S
N2708 H2715 0.984 . S
N2709 C2702 1.356 . S
N2709 H2712 0.984 . S
N2709 H2713 0.985 . S
H2710 N2705 0.984 . S
H2711 N2705 0.985 . S
H2712 N2709 0.984 . S
H2713 N2709 0.985 . S
H2714 N2708 0.984 . S
H2715 N2708 0.984 . S
H2716 N2704 0.984 . S
H2717 N2704 0.985 . S
C2718 C2719 1.363 . S
C2718 C2724 1.379 . S
C2718 N2726 1.356 . S
C2719 C2718 1.363 . S
C2719 C2725 1.363 . S
C2720 C2721 1.363 . S
C2720 C2725 1.379 . S
C2720 N2727 1.356 . S
C2721 C2720 1.363 . S
C2721 C2724 1.363 . S
N2722 C2724 1.356 . S
N2722 H2734 0.984 . S
N2722 H2735 0.985 . S
N2723 C2725 1.356 . S
N2723 H2728 0.984 . S
N2723 H2729 0.985 . S
C2724 C2718 1.379 . S
C2724 C2721 1.363 . S
C2724 N2722 1.356 . S
C2725 C2719 1.363 . S
C2725 C2720 1.379 . S
C2725 N2723 1.356 . S
N2726 C2718 1.356 . S
N2726 H2732 0.984 . S
N2726 H2733 0.984 . S
N2727 C2720 1.356 . S
N2727 H2730 0.984 . S
N2727 H2731 0.985 . S
H2728 N2723 0.984 . S
H2729 N2723 0.985 . S
H2730 N2727 0.984 . S
H2731 N2727 0.985 . S
H2732 N2726 0.984 . S
H2733 N2726 0.984 . S
H2734 N2722 0.984 . S
H2735 N2722 0.985 . S
C2736 C2737 1.363 . S
C2736 C2742 1.379 . S
C2736 N2744 1.356 . S
C2737 C2736 1.363 . S
C2737 C2743 1.363 . S
C2738 C2739 1.363 . S
C2738 C2743 1.379 . S
C2738 N2745 1.356 . S
C2739 C2738 1.363 . S
C2739 C2742 1.363 . S
N2740 C2742 1.356 . S
N2740 H2752 0.984 . S
N2740 H2753 0.985 . S
N2741 C2743 1.356 . S
N2741 H2746 0.984 . S
N2741 H2747 0.985 . S
C2742 C2736 1.379 . S
C2742 C2739 1.363 . S
C2742 N2740 1.356 . S
C2743 C2737 1.363 . S
C2743 C2738 1.379 . S
C2743 N2741 1.356 . S
N2744 C2736 1.356 . S
N2744 H2750 0.984 . S
N2744 H2751 0.984 . S
N2745 C2738 1.356 . S
N2745 H2748 0.984 . S
N2745 H2749 0.985 . S
H2746 N2741 0.984 . S
H2747 N2741 0.985 . S
H2748 N2745 0.984 . S
H2749 N2745 0.985 . S
H2750 N2744 0.984 . S
H2751 N2744 0.984 . S
H2752 N2740 0.984 . S
H2753 N2740 0.985 . S
C2754 C2755 1.363 . S
C2754 C2760 1.379 . S
C2754 N2762 1.356 . S
C2755 C2754 1.363 . S
C2755 C2761 1.363 . S
C2756 C2757 1.363 . S
C2756 C2761 1.379 . S
C2756 N2763 1.356 . S
C2757 C2756 1.363 . S
C2757 C2760 1.363 . S
N2758 C2760 1.356 . S
N2758 H2770 0.984 . S
N2758 H2771 0.985 . S
N2759 C2761 1.356 . S
N2759 H2764 0.984 . S
N2759 H2765 0.985 . S
C2760 C2754 1.379 . S
C2760 C2757 1.363 . S
C2760 N2758 1.356 . S
C2761 C2755 1.363 . S
C2761 C2756 1.379 . S
C2761 N2759 1.356 . S
N2762 C2754 1.356 . S
N2762 H2768 0.984 . S
N2762 H2769 0.984 . S
N2763 C2756 1.356 . S
N2763 H2766 0.984 . S
N2763 H2767 0.985 . S
H2764 N2759 0.984 . S
H2765 N2759 0.985 . S
H2766 N2763 0.984 . S
H2767 N2763 0.985 . S
H2768 N2762 0.984 . S
H2769 N2762 0.984 . S
H2770 N2758 0.984 . S
H2771 N2758 0.985 . S
C2772 C2773 1.363 . S
C2772 C2778 1.379 . S
C2772 N2780 1.356 . S
C2773 C2772 1.363 . S
C2773 C2779 1.363 . S
C2774 C2775 1.363 . S
C2774 C2779 1.379 . S
C2774 N2781 1.356 . S
C2775 C2774 1.363 . S
C2775 C2778 1.363 . S
N2776 C2778 1.356 . S
N2776 H2788 0.984 . S
N2776 H2789 0.985 . S
N2777 C2779 1.356 . S
N2777 H2782 0.984 . S
N2777 H2783 0.985 . S
C2778 C2772 1.379 . S
C2778 C2775 1.363 . S
C2778 N2776 1.356 . S
C2779 C2773 1.363 . S
C2779 C2774 1.379 . S
C2779 N2777 1.356 . S
N2780 C2772 1.356 . S
N2780 H2786 0.984 . S
N2780 H2787 0.984 . S
N2781 C2774 1.356 . S
N2781 H2784 0.984 . S
N2781 H2785 0.985 . S
H2782 N2777 0.984 . S
H2783 N2777 0.985 . S
H2784 N2781 0.984 . S
H2785 N2781 0.985 . S
H2786 N2780 0.984 . S
H2787 N2780 0.984 . S
H2788 N2776 0.984 . S
H2789 N2776 0.985 . S
C2790 C2791 1.363 . S
C2790 C2796 1.379 . S
C2790 N2798 1.356 . S
C2791 C2790 1.363 . S
C2791 C2797 1.363 . S
C2792 C2793 1.363 . S
C2792 C2797 1.379 . S
C2792 N2799 1.356 . S
C2793 C2792 1.363 . S
C2793 C2796 1.363 . S
N2794 C2796 1.356 . S
N2794 H2806 0.984 . S
N2794 H2807 0.985 . S
N2795 C2797 1.356 . S
N2795 H2800 0.984 . S
N2795 H2801 0.985 . S
C2796 C2790 1.379 . S
C2796 C2793 1.363 . S
C2796 N2794 1.356 . S
C2797 C2791 1.363 . S
C2797 C2792 1.379 . S
C2797 N2795 1.356 . S
N2798 C2790 1.356 . S
N2798 H2804 0.984 . S
N2798 H2805 0.984 . S
N2799 C2792 1.356 . S
N2799 H2802 0.984 . S
N2799 H2803 0.985 . S
H2800 N2795 0.984 . S
H2801 N2795 0.985 . S
H2802 N2799 0.984 . S
H2803 N2799 0.985 . S
H2804 N2798 0.984 . S
H2805 N2798 0.984 . S
H2806 N2794 0.984 . S
H2807 N2794 0.985 . S
C2808 C2809 1.363 . S
C2808 C2814 1.379 . S
C2808 N2816 1.356 . S
C2809 C2808 1.363 . S
C2809 C2815 1.363 . S
C2810 C2811 1.363 . S
C2810 C2815 1.379 . S
C2810 N2817 1.356 . S
C2811 C2810 1.363 . S
C2811 C2814 1.363 . S
N2812 C2814 1.356 . S
N2812 H2824 0.984 . S
N2812 H2825 0.985 . S
N2813 C2815 1.356 . S
N2813 H2818 0.984 . S
N2813 H2819 0.985 . S
C2814 C2808 1.379 . S
C2814 C2811 1.363 . S
C2814 N2812 1.356 . S
C2815 C2809 1.363 . S
C2815 C2810 1.379 . S
C2815 N2813 1.356 . S
N2816 C2808 1.356 . S
N2816 H2822 0.984 . S
N2816 H2823 0.984 . S
N2817 C2810 1.356 . S
N2817 H2820 0.984 . S
N2817 H2821 0.985 . S
H2818 N2813 0.984 . S
H2819 N2813 0.985 . S
H2820 N2817 0.984 . S
H2821 N2817 0.985 . S
H2822 N2816 0.984 . S
H2823 N2816 0.984 . S
H2824 N2812 0.984 . S
H2825 N2812 0.985 . S
C2826 C2827 1.363 . S
C2826 C2832 1.379 . S
C2826 N2834 1.356 . S
C2827 C2826 1.363 . S
C2827 C2833 1.363 . S
C2828 C2829 1.363 . S
C2828 C2833 1.379 . S
C2828 N2835 1.356 . S
C2829 C2828 1.363 . S
C2829 C2832 1.363 . S
N2830 C2832 1.356 . S
N2830 H2842 0.984 . S
N2830 H2843 0.985 . S
N2831 C2833 1.356 . S
N2831 H2836 0.984 . S
N2831 H2837 0.985 . S
C2832 C2826 1.379 . S
C2832 C2829 1.363 . S
C2832 N2830 1.356 . S
C2833 C2827 1.363 . S
C2833 C2828 1.379 . S
C2833 N2831 1.356 . S
N2834 C2826 1.356 . S
N2834 H2840 0.984 . S
N2834 H2841 0.984 . S
N2835 C2828 1.356 . S
N2835 H2838 0.984 . S
N2835 H2839 0.985 . S
H2836 N2831 0.984 . S
H2837 N2831 0.985 . S
H2838 N2835 0.984 . S
H2839 N2835 0.985 . S
H2840 N2834 0.984 . S
H2841 N2834 0.984 . S
H2842 N2830 0.984 . S
H2843 N2830 0.985 . S
C2844 C2845 1.363 . S
C2844 C2850 1.379 . S
C2844 N2852 1.356 1_565 S
C2845 C2844 1.363 . S
C2845 C2851 1.363 . S
C2846 C2847 1.363 . S
C2846 C2851 1.379 . S
C2846 N2853 1.356 . S
C2847 C2846 1.363 . S
C2847 C2850 1.363 . S
N2848 C2850 1.356 . S
N2848 H2860 0.984 . S
N2848 H2861 0.985 . S
N2849 C2851 1.356 . S
N2849 H2854 0.984 . S
N2849 H2855 0.985 . S
C2850 C2844 1.379 . S
C2850 C2847 1.363 . S
C2850 N2848 1.356 . S
C2851 C2845 1.363 . S
C2851 C2846 1.379 . S
C2851 N2849 1.356 . S
N2852 C2844 1.356 1_545 S
N2852 H2858 0.984 . S
N2852 H2859 0.984 . S
N2853 C2846 1.356 . S
N2853 H2856 0.984 . S
N2853 H2857 0.985 . S
H2854 N2849 0.984 . S
H2855 N2849 0.985 . S
H2856 N2853 0.984 . S
H2857 N2853 0.985 . S
H2858 N2852 0.984 . S
H2859 N2852 0.984 . S
H2860 N2848 0.984 . S
H2861 N2848 0.985 . S
C2862 C2863 1.363 . S
C2862 C2868 1.379 1_565 S
C2862 N2870 1.356 . S
C2863 C2862 1.363 . S
C2863 C2869 1.363 1_564 S
C2864 C2865 1.363 1_556 S
C2864 C2869 1.379 . S
C2864 N2871 1.356 . S
C2865 C2864 1.363 1_554 S
C2865 C2868 1.363 . S
N2866 C2868 1.356 . S
N2866 H2878 0.984 . S
N2866 H2879 0.985 . S
N2867 C2869 1.356 1_565 S
N2867 H2872 0.984 . S
N2867 H2873 0.985 1_565 S
C2868 C2862 1.379 1_545 S
C2868 C2865 1.363 . S
C2868 N2866 1.356 . S
C2869 C2863 1.363 1_546 S
C2869 C2864 1.379 . S
C2869 N2867 1.356 1_545 S
N2870 C2862 1.356 . S
N2870 H2876 0.984 . S
N2870 H2877 0.984 . S
N2871 C2864 1.356 . S
N2871 H2874 0.984 . S
N2871 H2875 0.985 . S
H2872 N2867 0.984 . S
H2873 N2867 0.985 1_545 S
H2874 N2871 0.984 . S
H2875 N2871 0.985 . S
H2876 N2870 0.984 . S
H2877 N2870 0.984 . S
H2878 N2866 0.984 . S
H2879 N2866 0.985 . S
C2880 C2881 1.363 . S
C2880 C2886 1.379 . S
C2880 N2888 1.356 . S
C2881 C2880 1.363 . S
C2881 C2887 1.363 . S
C2882 C2883 1.363 . S
C2882 C2887 1.379 . S
C2882 N2889 1.356 . S
C2883 C2882 1.363 . S
C2883 C2886 1.363 . S
N2884 C2886 1.356 . S
N2884 H2896 0.984 . S
N2884 H2897 0.985 . S
N2885 C2887 1.356 . S
N2885 H2890 0.984 . S
N2885 H2891 0.985 . S
C2886 C2880 1.379 . S
C2886 C2883 1.363 . S
C2886 N2884 1.356 . S
C2887 C2881 1.363 . S
C2887 C2882 1.379 . S
C2887 N2885 1.356 . S
N2888 C2880 1.356 . S
N2888 H2894 0.984 . S
N2888 H2895 0.984 . S
N2889 C2882 1.356 . S
N2889 H2892 0.984 . S
N2889 H2893 0.985 . S
H2890 N2885 0.984 . S
H2891 N2885 0.985 . S
H2892 N2889 0.984 . S
H2893 N2889 0.985 . S
H2894 N2888 0.984 . S
H2895 N2888 0.984 . S
H2896 N2884 0.984 . S
H2897 N2884 0.985 . S
C2898 C2899 1.363 . S
C2898 C2904 1.379 . S
C2898 N2906 1.356 . S
C2899 C2898 1.363 . S
C2899 C2905 1.363 . S
C2900 C2901 1.363 . S
C2900 C2905 1.379 . S
C2900 N2907 1.356 . S
C2901 C2900 1.363 . S
C2901 C2904 1.363 . S
N2902 C2904 1.356 . S
N2902 H2914 0.984 . S
N2902 H2915 0.985 . S
N2903 C2905 1.356 . S
N2903 H2908 0.984 . S
N2903 H2909 0.985 . S
C2904 C2898 1.379 . S
C2904 C2901 1.363 . S
C2904 N2902 1.356 . S
C2905 C2899 1.363 . S
C2905 C2900 1.379 . S
C2905 N2903 1.356 . S
N2906 C2898 1.356 . S
N2906 H2912 0.984 . S
N2906 H2913 0.984 . S
N2907 C2900 1.356 . S
N2907 H2910 0.984 . S
N2907 H2911 0.985 . S
H2908 N2903 0.984 . S
H2909 N2903 0.985 . S
H2910 N2907 0.984 . S
H2911 N2907 0.985 . S
H2912 N2906 0.984 . S
H2913 N2906 0.984 . S
H2914 N2902 0.984 . S
H2915 N2902 0.985 . S
C2916 C2917 1.363 . S
C2916 C2922 1.379 . S
C2916 N2924 1.356 . S
C2917 C2916 1.363 . S
C2917 C2923 1.363 . S
C2918 C2919 1.363 . S
C2918 C2923 1.379 . S
C2918 N2925 1.356 . S
C2919 C2918 1.363 . S
C2919 C2922 1.363 . S
N2920 C2922 1.356 . S
N2920 H2932 0.984 . S
N2920 H2933 0.985 . S
N2921 C2923 1.356 . S
N2921 H2926 0.984 . S
N2921 H2927 0.985 . S
C2922 C2916 1.379 . S
C2922 C2919 1.363 . S
C2922 N2920 1.356 . S
C2923 C2917 1.363 . S
C2923 C2918 1.379 . S
C2923 N2921 1.356 . S
N2924 C2916 1.356 . S
N2924 H2930 0.984 . S
N2924 H2931 0.984 . S
N2925 C2918 1.356 . S
N2925 H2928 0.984 . S
N2925 H2929 0.985 . S
H2926 N2921 0.984 . S
H2927 N2921 0.985 . S
H2928 N2925 0.984 . S
H2929 N2925 0.985 . S
H2930 N2924 0.984 . S
H2931 N2924 0.984 . S
H2932 N2920 0.984 . S
H2933 N2920 0.985 . S
C2934 C2935 1.363 . S
C2934 C2940 1.379 . S
C2934 N2942 1.356 . S
C2935 C2934 1.363 . S
C2935 C2941 1.363 . S
C2936 C2937 1.363 . S
C2936 C2941 1.379 . S
C2936 N2943 1.356 . S
C2937 C2936 1.363 . S
C2937 C2940 1.363 . S
N2938 C2940 1.356 . S
N2938 H2950 0.984 . S
N2938 H2951 0.985 . S
N2939 C2941 1.356 . S
N2939 H2944 0.984 . S
N2939 H2945 0.985 . S
C2940 C2934 1.379 . S
C2940 C2937 1.363 . S
C2940 N2938 1.356 . S
C2941 C2935 1.363 . S
C2941 C2936 1.379 . S
C2941 N2939 1.356 . S
N2942 C2934 1.356 . S
N2942 H2948 0.984 . S
N2942 H2949 0.984 . S
N2943 C2936 1.356 . S
N2943 H2946 0.984 . S
N2943 H2947 0.985 . S
H2944 N2939 0.984 . S
H2945 N2939 0.985 . S
H2946 N2943 0.984 . S
H2947 N2943 0.985 . S
H2948 N2942 0.984 . S
H2949 N2942 0.984 . S
H2950 N2938 0.984 . S
H2951 N2938 0.985 . S
C2952 C2953 1.363 . S
C2952 C2958 1.379 . S
C2952 N2960 1.356 . S
C2953 C2952 1.363 . S
C2953 C2959 1.363 . S
C2954 C2955 1.363 . S
C2954 C2959 1.379 . S
C2954 N2961 1.356 . S
C2955 C2954 1.363 . S
C2955 C2958 1.363 . S
N2956 C2958 1.356 . S
N2956 H2968 0.984 . S
N2956 H2969 0.985 . S
N2957 C2959 1.356 . S
N2957 H2962 0.984 . S
N2957 H2963 0.985 . S
C2958 C2952 1.379 . S
C2958 C2955 1.363 . S
C2958 N2956 1.356 . S
C2959 C2953 1.363 . S
C2959 C2954 1.379 . S
C2959 N2957 1.356 . S
N2960 C2952 1.356 . S
N2960 H2966 0.984 . S
N2960 H2967 0.984 . S
N2961 C2954 1.356 . S
N2961 H2964 0.984 . S
N2961 H2965 0.985 . S
H2962 N2957 0.984 . S
H2963 N2957 0.985 . S
H2964 N2961 0.984 . S
H2965 N2961 0.985 . S
H2966 N2960 0.984 . S
H2967 N2960 0.984 . S
H2968 N2956 0.984 . S
H2969 N2956 0.985 . S
C2970 C2971 1.363 . S
C2970 C2976 1.379 . S
C2970 N2978 1.356 . S
C2971 C2970 1.363 . S
C2971 C2977 1.363 . S
C2972 C2973 1.363 . S
C2972 C2977 1.379 . S
C2972 N2979 1.356 . S
C2973 C2972 1.363 . S
C2973 C2976 1.363 . S
N2974 C2976 1.356 . S
N2974 H2986 0.984 . S
N2974 H2987 0.985 . S
N2975 C2977 1.356 . S
N2975 H2980 0.984 . S
N2975 H2981 0.985 . S
C2976 C2970 1.379 . S
C2976 C2973 1.363 . S
C2976 N2974 1.356 . S
C2977 C2971 1.363 . S
C2977 C2972 1.379 . S
C2977 N2975 1.356 . S
N2978 C2970 1.356 . S
N2978 H2984 0.984 . S
N2978 H2985 0.984 . S
N2979 C2972 1.356 . S
N2979 H2982 0.984 . S
N2979 H2983 0.985 . S
H2980 N2975 0.984 . S
H2981 N2975 0.985 . S
H2982 N2979 0.984 . S
H2983 N2979 0.985 . S
H2984 N2978 0.984 . S
H2985 N2978 0.984 . S
H2986 N2974 0.984 . S
H2987 N2974 0.985 . S
C2988 C2989 1.363 . S
C2988 C2994 1.379 . S
C2988 N2996 1.356 . S
C2989 C2988 1.363 . S
C2989 C2995 1.363 . S
C2990 C2991 1.363 . S
C2990 C2995 1.379 . S
C2990 N2997 1.356 . S
C2991 C2990 1.363 . S
C2991 C2994 1.363 . S
N2992 C2994 1.356 . S
N2992 H3004 0.984 . S
N2992 H3005 0.985 . S
N2993 C2995 1.356 . S
N2993 H2998 0.984 . S
N2993 H2999 0.985 1_554 S
C2994 C2988 1.379 . S
C2994 C2991 1.363 . S
C2994 N2992 1.356 . S
C2995 C2989 1.363 . S
C2995 C2990 1.379 . S
C2995 N2993 1.356 . S
N2996 C2988 1.356 . S
N2996 H3002 0.984 . S
N2996 H3003 0.984 . S
N2997 C2990 1.356 . S
N2997 H3000 0.984 . S
N2997 H3001 0.985 1_554 S
H2998 N2993 0.984 . S
H2999 N2993 0.985 1_556 S
H3000 N2997 0.984 . S
H3001 N2997 0.985 1_556 S
H3002 N2996 0.984 . S
H3003 N2996 0.984 . S
H3004 N2992 0.984 . S
H3005 N2992 0.985 . S
C3006 C3007 1.363 . S
C3006 C3012 1.379 . S
C3006 N3014 1.356 . S
C3007 C3006 1.363 . S
C3007 C3013 1.363 . S
C3008 C3009 1.363 . S
C3008 C3013 1.379 . S
C3008 N3015 1.356 . S
C3009 C3008 1.363 . S
C3009 C3012 1.363 . S
N3010 C3012 1.356 . S
N3010 H3022 0.984 . S
N3010 H3023 0.985 . S
N3011 C3013 1.356 . S
N3011 H3016 0.984 . S
N3011 H3017 0.985 . S
C3012 C3006 1.379 . S
C3012 C3009 1.363 . S
C3012 N3010 1.356 . S
C3013 C3007 1.363 . S
C3013 C3008 1.379 . S
C3013 N3011 1.356 . S
N3014 C3006 1.356 . S
N3014 H3020 0.984 . S
N3014 H3021 0.984 . S
N3015 C3008 1.356 . S
N3015 H3018 0.984 . S
N3015 H3019 0.985 . S
H3016 N3011 0.984 . S
H3017 N3011 0.985 . S
H3018 N3015 0.984 . S
H3019 N3015 0.985 . S
H3020 N3014 0.984 . S
H3021 N3014 0.984 . S
H3022 N3010 0.984 . S
H3023 N3010 0.985 . S
C3024 C3025 1.363 . S
C3024 C3030 1.379 . S
C3024 N3032 1.356 . S
C3025 C3024 1.363 . S
C3025 C3031 1.363 . S
C3026 C3027 1.363 . S
C3026 C3031 1.379 . S
C3026 N3033 1.356 1_556 S
C3027 C3026 1.363 . S
C3027 C3030 1.363 . S
N3028 C3030 1.356 . S
N3028 H3040 0.984 . S
N3028 H3041 0.985 . S
N3029 C3031 1.356 . S
N3029 H3034 0.984 . S
N3029 H3035 0.985 . S
C3030 C3024 1.379 . S
C3030 C3027 1.363 . S
C3030 N3028 1.356 . S
C3031 C3025 1.363 . S
C3031 C3026 1.379 . S
C3031 N3029 1.356 . S
N3032 C3024 1.356 . S
N3032 H3038 0.984 . S
N3032 H3039 0.984 . S
N3033 C3026 1.356 1_554 S
N3033 H3036 0.984 . S
N3033 H3037 0.985 . S
H3034 N3029 0.984 . S
H3035 N3029 0.985 . S
H3036 N3033 0.984 . S
H3037 N3033 0.985 . S
H3038 N3032 0.984 . S
H3039 N3032 0.984 . S
H3040 N3028 0.984 . S
H3041 N3028 0.985 . S
C3042 C3043 1.363 . S
C3042 C3048 1.379 . S
C3042 N3050 1.356 . S
C3043 C3042 1.363 . S
C3043 C3049 1.363 . S
C3044 C3045 1.363 . S
C3044 C3049 1.379 . S
C3044 N3051 1.356 . S
C3045 C3044 1.363 . S
C3045 C3048 1.363 . S
N3046 C3048 1.356 . S
N3046 H3058 0.984 . S
N3046 H3059 0.985 . S
N3047 C3049 1.356 . S
N3047 H3052 0.984 . S
N3047 H3053 0.985 . S
C3048 C3042 1.379 . S
C3048 C3045 1.363 . S
C3048 N3046 1.356 . S
C3049 C3043 1.363 . S
C3049 C3044 1.379 . S
C3049 N3047 1.356 . S
N3050 C3042 1.356 . S
N3050 H3056 0.984 . S
N3050 H3057 0.984 . S
N3051 C3044 1.356 . S
N3051 H3054 0.984 . S
N3051 H3055 0.985 . S
H3052 N3047 0.984 . S
H3053 N3047 0.985 . S
H3054 N3051 0.984 . S
H3055 N3051 0.985 . S
H3056 N3050 0.984 . S
H3057 N3050 0.984 . S
H3058 N3046 0.984 . S
H3059 N3046 0.985 . S
C3060 C3061 1.363 . S
C3060 C3066 1.379 . S
C3060 N3068 1.356 . S
C3061 C3060 1.363 . S
C3061 C3067 1.363 . S
C3062 C3063 1.363 . S
C3062 C3067 1.379 . S
C3062 N3069 1.356 . S
C3063 C3062 1.363 . S
C3063 C3066 1.363 . S
N3064 C3066 1.356 . S
N3064 H3076 0.984 . S
N3064 H3077 0.985 . S
N3065 C3067 1.356 . S
N3065 H3070 0.984 . S
N3065 H3071 0.985 . S
C3066 C3060 1.379 . S
C3066 C3063 1.363 . S
C3066 N3064 1.356 . S
C3067 C3061 1.363 . S
C3067 C3062 1.379 . S
C3067 N3065 1.356 . S
N3068 C3060 1.356 . S
N3068 H3074 0.984 . S
N3068 H3075 0.984 . S
N3069 C3062 1.356 . S
N3069 H3072 0.984 . S
N3069 H3073 0.985 . S
H3070 N3065 0.984 . S
H3071 N3065 0.985 . S
H3072 N3069 0.984 . S
H3073 N3069 0.985 . S
H3074 N3068 0.984 . S
H3075 N3068 0.984 . S
H3076 N3064 0.984 . S
H3077 N3064 0.985 . S
C3078 C3079 1.363 . S
C3078 C3084 1.379 . S
C3078 N3086 1.356 . S
C3079 C3078 1.363 . S
C3079 C3085 1.363 . S
C3080 C3081 1.363 . S
C3080 C3085 1.379 . S
C3080 N3087 1.356 . S
C3081 C3080 1.363 . S
C3081 C3084 1.363 . S
N3082 C3084 1.356 . S
N3082 H3094 0.984 . S
N3082 H3095 0.985 . S
N3083 C3085 1.356 . S
N3083 H3088 0.984 . S
N3083 H3089 0.985 . S
C3084 C3078 1.379 . S
C3084 C3081 1.363 . S
C3084 N3082 1.356 . S
C3085 C3079 1.363 . S
C3085 C3080 1.379 . S
C3085 N3083 1.356 . S
N3086 C3078 1.356 . S
N3086 H3092 0.984 . S
N3086 H3093 0.984 . S
N3087 C3080 1.356 . S
N3087 H3090 0.984 . S
N3087 H3091 0.985 . S
H3088 N3083 0.984 . S
H3089 N3083 0.985 . S
H3090 N3087 0.984 . S
H3091 N3087 0.985 . S
H3092 N3086 0.984 . S
H3093 N3086 0.984 . S
H3094 N3082 0.984 . S
H3095 N3082 0.985 . S
C3096 C3097 1.363 . S
C3096 C3102 1.379 . S
C3096 N3104 1.356 . S
C3097 C3096 1.363 . S
C3097 C3103 1.363 . S
C3098 C3099 1.363 . S
C3098 C3103 1.379 . S
C3098 N3105 1.356 . S
C3099 C3098 1.363 . S
C3099 C3102 1.363 . S
N3100 C3102 1.356 . S
N3100 H3112 0.984 . S
N3100 H3113 0.985 . S
N3101 C3103 1.356 . S
N3101 H3106 0.984 . S
N3101 H3107 0.985 . S
C3102 C3096 1.379 . S
C3102 C3099 1.363 . S
C3102 N3100 1.356 . S
C3103 C3097 1.363 . S
C3103 C3098 1.379 . S
C3103 N3101 1.356 . S
N3104 C3096 1.356 . S
N3104 H3110 0.984 . S
N3104 H3111 0.984 . S
N3105 C3098 1.356 . S
N3105 H3108 0.984 . S
N3105 H3109 0.985 . S
H3106 N3101 0.984 . S
H3107 N3101 0.985 . S
H3108 N3105 0.984 . S
H3109 N3105 0.985 . S
H3110 N3104 0.984 . S
H3111 N3104 0.984 . S
H3112 N3100 0.984 . S
H3113 N3100 0.985 . S
C3114 C3115 1.363 . S
C3114 C3120 1.379 . S
C3114 N3122 1.356 . S
C3115 C3114 1.363 . S
C3115 C3121 1.363 . S
C3116 C3117 1.363 . S
C3116 C3121 1.379 . S
C3116 N3123 1.356 . S
C3117 C3116 1.363 . S
C3117 C3120 1.363 . S
N3118 C3120 1.356 . S
N3118 H3130 0.984 . S
N3118 H3131 0.985 . S
N3119 C3121 1.356 . S
N3119 H3124 0.984 . S
N3119 H3125 0.985 . S
C3120 C3114 1.379 . S
C3120 C3117 1.363 . S
C3120 N3118 1.356 . S
C3121 C3115 1.363 . S
C3121 C3116 1.379 . S
C3121 N3119 1.356 . S
N3122 C3114 1.356 . S
N3122 H3128 0.984 . S
N3122 H3129 0.984 . S
N3123 C3116 1.356 . S
N3123 H3126 0.984 . S
N3123 H3127 0.985 . S
H3124 N3119 0.984 . S
H3125 N3119 0.985 . S
H3126 N3123 0.984 . S
H3127 N3123 0.985 . S
H3128 N3122 0.984 . S
H3129 N3122 0.984 . S
H3130 N3118 0.984 . S
H3131 N3118 0.985 . S
C3132 C3133 1.363 . S
C3132 C3138 1.379 . S
C3132 N3140 1.356 . S
C3133 C3132 1.363 . S
C3133 C3139 1.363 . S
C3134 C3135 1.363 . S
C3134 C3139 1.379 . S
C3134 N3141 1.356 1_655 S
C3135 C3134 1.363 . S
C3135 C3138 1.363 . S
N3136 C3138 1.356 . S
N3136 H3148 0.984 . S
N3136 H3149 0.985 . S
N3137 C3139 1.356 . S
N3137 H3142 0.984 . S
N3137 H3143 0.985 . S
C3138 C3132 1.379 . S
C3138 C3135 1.363 . S
C3138 N3136 1.356 . S
C3139 C3133 1.363 . S
C3139 C3134 1.379 . S
C3139 N3137 1.356 . S
N3140 C3132 1.356 . S
N3140 H3146 0.984 . S
N3140 H3147 0.984 . S
N3141 C3134 1.356 1_455 S
N3141 H3144 0.984 . S
N3141 H3145 0.985 . S
H3142 N3137 0.984 . S
H3143 N3137 0.985 . S
H3144 N3141 0.984 . S
H3145 N3141 0.985 . S
H3146 N3140 0.984 . S
H3147 N3140 0.984 . S
H3148 N3136 0.984 . S
H3149 N3136 0.985 . S
C3150 C3151 1.363 . S
C3150 C3156 1.379 . S
C3150 N3158 1.356 . S
C3151 C3150 1.363 . S
C3151 C3157 1.363 . S
C3152 C3153 1.363 . S
C3152 C3157 1.379 . S
C3152 N3159 1.356 . S
C3153 C3152 1.363 . S
C3153 C3156 1.363 . S
N3154 C3156 1.356 . S
N3154 H3166 0.984 . S
N3154 H3167 0.985 . S
N3155 C3157 1.356 . S
N3155 H3160 0.984 . S
N3155 H3161 0.985 . S
C3156 C3150 1.379 . S
C3156 C3153 1.363 . S
C3156 N3154 1.356 . S
C3157 C3151 1.363 . S
C3157 C3152 1.379 . S
C3157 N3155 1.356 . S
N3158 C3150 1.356 . S
N3158 H3164 0.984 . S
N3158 H3165 0.984 . S
N3159 C3152 1.356 . S
N3159 H3162 0.984 . S
N3159 H3163 0.985 . S
H3160 N3155 0.984 . S
H3161 N3155 0.985 . S
H3162 N3159 0.984 . S
H3163 N3159 0.985 . S
H3164 N3158 0.984 . S
H3165 N3158 0.984 . S
H3166 N3154 0.984 . S
H3167 N3154 0.985 . S
C3168 C3169 1.363 . S
C3168 C3174 1.379 . S
C3168 N3176 1.356 . S
C3169 C3168 1.363 . S
C3169 C3175 1.363 . S
C3170 C3171 1.363 . S
C3170 C3175 1.379 . S
C3170 N3177 1.356 . S
C3171 C3170 1.363 . S
C3171 C3174 1.363 . S
N3172 C3174 1.356 . S
N3172 H3184 0.984 . S
N3172 H3185 0.985 . S
N3173 C3175 1.356 . S
N3173 H3178 0.984 . S
N3173 H3179 0.985 . S
C3174 C3168 1.379 . S
C3174 C3171 1.363 . S
C3174 N3172 1.356 . S
C3175 C3169 1.363 . S
C3175 C3170 1.379 . S
C3175 N3173 1.356 . S
N3176 C3168 1.356 . S
N3176 H3182 0.984 . S
N3176 H3183 0.984 . S
N3177 C3170 1.356 . S
N3177 H3180 0.984 . S
N3177 H3181 0.985 . S
H3178 N3173 0.984 . S
H3179 N3173 0.985 . S
H3180 N3177 0.984 . S
H3181 N3177 0.985 . S
H3182 N3176 0.984 . S
H3183 N3176 0.984 . S
H3184 N3172 0.984 . S
H3185 N3172 0.985 . S
C3186 C3187 1.363 . S
C3186 C3192 1.379 . S
C3186 N3194 1.356 . S
C3187 C3186 1.363 . S
C3187 C3193 1.363 . S
C3188 C3189 1.363 . S
C3188 C3193 1.379 . S
C3188 N3195 1.356 . S
C3189 C3188 1.363 . S
C3189 C3192 1.363 . S
N3190 C3192 1.356 . S
N3190 H3202 0.984 . S
N3190 H3203 0.985 . S
N3191 C3193 1.356 . S
N3191 H3196 0.984 . S
N3191 H3197 0.985 . S
C3192 C3186 1.379 . S
C3192 C3189 1.363 . S
C3192 N3190 1.356 . S
C3193 C3187 1.363 . S
C3193 C3188 1.379 . S
C3193 N3191 1.356 . S
N3194 C3186 1.356 . S
N3194 H3200 0.984 . S
N3194 H3201 0.984 . S
N3195 C3188 1.356 . S
N3195 H3198 0.984 . S
N3195 H3199 0.985 . S
H3196 N3191 0.984 . S
H3197 N3191 0.985 . S
H3198 N3195 0.984 . S
H3199 N3195 0.985 . S
H3200 N3194 0.984 . S
H3201 N3194 0.984 . S
H3202 N3190 0.984 . S
H3203 N3190 0.985 . S
C3204 C3205 1.363 . S
C3204 C3210 1.379 . S
C3204 N3212 1.356 . S
C3205 C3204 1.363 . S
C3205 C3211 1.363 . S
C3206 C3207 1.363 . S
C3206 C3211 1.379 . S
C3206 N3213 1.356 . S
C3207 C3206 1.363 . S
C3207 C3210 1.363 . S
N3208 C3210 1.356 . S
N3208 H3220 0.984 . S
N3208 H3221 0.985 . S
N3209 C3211 1.356 . S
N3209 H3214 0.984 . S
N3209 H3215 0.985 . S
C3210 C3204 1.379 . S
C3210 C3207 1.363 . S
C3210 N3208 1.356 . S
C3211 C3205 1.363 . S
C3211 C3206 1.379 . S
C3211 N3209 1.356 . S
N3212 C3204 1.356 . S
N3212 H3218 0.984 . S
N3212 H3219 0.984 . S
N3213 C3206 1.356 . S
N3213 H3216 0.984 . S
N3213 H3217 0.985 . S
H3214 N3209 0.984 . S
H3215 N3209 0.985 . S
H3216 N3213 0.984 . S
H3217 N3213 0.985 . S
H3218 N3212 0.984 . S
H3219 N3212 0.984 . S
H3220 N3208 0.984 . S
H3221 N3208 0.985 . S
C3222 C3223 1.363 . S
C3222 C3228 1.379 . S
C3222 N3230 1.356 . S
C3223 C3222 1.363 . S
C3223 C3229 1.363 . S
C3224 C3225 1.363 . S
C3224 C3229 1.379 . S
C3224 N3231 1.356 . S
C3225 C3224 1.363 . S
C3225 C3228 1.363 . S
N3226 C3228 1.356 . S
N3226 H3238 0.984 . S
N3226 H3239 0.985 . S
N3227 C3229 1.356 . S
N3227 H3232 0.984 . S
N3227 H3233 0.985 . S
C3228 C3222 1.379 . S
C3228 C3225 1.363 . S
C3228 N3226 1.356 . S
C3229 C3223 1.363 . S
C3229 C3224 1.379 . S
C3229 N3227 1.356 . S
N3230 C3222 1.356 . S
N3230 H3236 0.984 . S
N3230 H3237 0.984 . S
N3231 C3224 1.356 . S
N3231 H3234 0.984 . S
N3231 H3235 0.985 . S
H3232 N3227 0.984 . S
H3233 N3227 0.985 . S
H3234 N3231 0.984 . S
H3235 N3231 0.985 . S
H3236 N3230 0.984 . S
H3237 N3230 0.984 . S
H3238 N3226 0.984 . S
H3239 N3226 0.985 . S
C3240 C3241 1.363 . S
C3240 C3246 1.379 . S
C3240 N3248 1.356 . S
C3241 C3240 1.363 . S
C3241 C3247 1.363 . S
C3242 C3243 1.363 . S
C3242 C3247 1.379 . S
C3242 N3249 1.356 . S
C3243 C3242 1.363 . S
C3243 C3246 1.363 . S
N3244 C3246 1.356 . S
N3244 H3256 0.984 . S
N3244 H3257 0.985 . S
N3245 C3247 1.356 . S
N3245 H3250 0.984 . S
N3245 H3251 0.985 . S
C3246 C3240 1.379 . S
C3246 C3243 1.363 . S
C3246 N3244 1.356 . S
C3247 C3241 1.363 . S
C3247 C3242 1.379 . S
C3247 N3245 1.356 . S
N3248 C3240 1.356 . S
N3248 H3254 0.984 . S
N3248 H3255 0.984 . S
N3249 C3242 1.356 . S
N3249 H3252 0.984 . S
N3249 H3253 0.985 . S
H3250 N3245 0.984 . S
H3251 N3245 0.985 . S
H3252 N3249 0.984 . S
H3253 N3249 0.985 . S
H3254 N3248 0.984 . S
H3255 N3248 0.984 . S
H3256 N3244 0.984 . S
H3257 N3244 0.985 . S
C3258 C3259 1.363 . S
C3258 C3264 1.379 . S
C3258 N3266 1.356 . S
C3259 C3258 1.363 . S
C3259 C3265 1.363 . S
C3260 C3261 1.363 . S
C3260 C3265 1.379 . S
C3260 N3267 1.356 1_565 S
C3261 C3260 1.363 . S
C3261 C3264 1.363 . S
N3262 C3264 1.356 . S
N3262 H3274 0.984 . S
N3262 H3275 0.985 . S
N3263 C3265 1.356 . S
N3263 H3268 0.984 . S
N3263 H3269 0.985 . S
C3264 C3258 1.379 . S
C3264 C3261 1.363 . S
C3264 N3262 1.356 . S
C3265 C3259 1.363 . S
C3265 C3260 1.379 . S
C3265 N3263 1.356 . S
N3266 C3258 1.356 . S
N3266 H3272 0.984 . S
N3266 H3273 0.984 . S
N3267 C3260 1.356 1_545 S
N3267 H3270 0.984 . S
N3267 H3271 0.985 . S
H3268 N3263 0.984 . S
H3269 N3263 0.985 . S
H3270 N3267 0.984 . S
H3271 N3267 0.985 . S
H3272 N3266 0.984 . S
H3273 N3266 0.984 . S
H3274 N3262 0.984 . S
H3275 N3262 0.985 . S
C3276 C3277 1.363 . S
C3276 C3282 1.379 . S
C3276 N3284 1.356 . S
C3277 C3276 1.363 . S
C3277 C3283 1.363 . S
C3278 C3279 1.363 . S
C3278 C3283 1.379 . S
C3278 N3285 1.356 . S
C3279 C3278 1.363 . S
C3279 C3282 1.363 . S
N3280 C3282 1.356 . S
N3280 H3292 0.984 . S
N3280 H3293 0.985 . S
N3281 C3283 1.356 . S
N3281 H3286 0.984 . S
N3281 H3287 0.985 . S
C3282 C3276 1.379 . S
C3282 C3279 1.363 . S
C3282 N3280 1.356 . S
C3283 C3277 1.363 . S
C3283 C3278 1.379 . S
C3283 N3281 1.356 . S
N3284 C3276 1.356 . S
N3284 H3290 0.984 . S
N3284 H3291 0.984 . S
N3285 C3278 1.356 . S
N3285 H3288 0.984 . S
N3285 H3289 0.985 . S
H3286 N3281 0.984 . S
H3287 N3281 0.985 . S
H3288 N3285 0.984 . S
H3289 N3285 0.985 . S
H3290 N3284 0.984 . S
H3291 N3284 0.984 . S
H3292 N3280 0.984 . S
H3293 N3280 0.985 . S
C3294 C3295 1.363 . S
C3294 C3300 1.379 . S
C3294 N3302 1.356 . S
C3295 C3294 1.363 . S
C3295 C3301 1.363 . S
C3296 C3297 1.363 . S
C3296 C3301 1.379 . S
C3296 N3303 1.356 . S
C3297 C3296 1.363 . S
C3297 C3300 1.363 . S
N3298 C3300 1.356 . S
N3298 H3310 0.984 . S
N3298 H3311 0.985 . S
N3299 C3301 1.356 . S
N3299 H3304 0.984 . S
N3299 H3305 0.985 . S
C3300 C3294 1.379 . S
C3300 C3297 1.363 . S
C3300 N3298 1.356 . S
C3301 C3295 1.363 . S
C3301 C3296 1.379 . S
C3301 N3299 1.356 . S
N3302 C3294 1.356 . S
N3302 H3308 0.984 . S
N3302 H3309 0.984 . S
N3303 C3296 1.356 . S
N3303 H3306 0.984 . S
N3303 H3307 0.985 . S
H3304 N3299 0.984 . S
H3305 N3299 0.985 . S
H3306 N3303 0.984 . S
H3307 N3303 0.985 . S
H3308 N3302 0.984 . S
H3309 N3302 0.984 . S
H3310 N3298 0.984 . S
H3311 N3298 0.985 . S
C3312 C3313 1.363 . S
C3312 C3318 1.379 . S
C3312 N3320 1.356 . S
C3313 C3312 1.363 . S
C3313 C3319 1.363 . S
C3314 C3315 1.363 . S
C3314 C3319 1.379 . S
C3314 N3321 1.356 . S
C3315 C3314 1.363 . S
C3315 C3318 1.363 . S
N3316 C3318 1.356 . S
N3316 H3328 0.984 . S
N3316 H3329 0.985 . S
N3317 C3319 1.356 . S
N3317 H3322 0.984 . S
N3317 H3323 0.985 . S
C3318 C3312 1.379 . S
C3318 C3315 1.363 . S
C3318 N3316 1.356 . S
C3319 C3313 1.363 . S
C3319 C3314 1.379 . S
C3319 N3317 1.356 . S
N3320 C3312 1.356 . S
N3320 H3326 0.984 . S
N3320 H3327 0.984 . S
N3321 C3314 1.356 . S
N3321 H3324 0.984 . S
N3321 H3325 0.985 . S
H3322 N3317 0.984 . S
H3323 N3317 0.985 . S
H3324 N3321 0.984 . S
H3325 N3321 0.985 . S
H3326 N3320 0.984 . S
H3327 N3320 0.984 . S
H3328 N3316 0.984 . S
H3329 N3316 0.985 . S
C3330 C3331 1.363 . S
C3330 C3336 1.379 . S
C3330 N3338 1.356 . S
C3331 C3330 1.363 . S
C3331 C3337 1.363 . S
C3332 C3333 1.363 . S
C3332 C3337 1.379 . S
C3332 N3339 1.356 1_554 S
C3333 C3332 1.363 . S
C3333 C3336 1.363 . S
N3334 C3336 1.356 . S
N3334 H3346 0.984 . S
N3334 H3347 0.985 . S
N3335 C3337 1.356 . S
N3335 H3340 0.984 . S
N3335 H3341 0.985 1_554 S
C3336 C3330 1.379 . S
C3336 C3333 1.363 . S
C3336 N3334 1.356 . S
C3337 C3331 1.363 . S
C3337 C3332 1.379 . S
C3337 N3335 1.356 . S
N3338 C3330 1.356 . S
N3338 H3344 0.984 . S
N3338 H3345 0.984 . S
N3339 C3332 1.356 1_556 S
N3339 H3342 0.984 . S
N3339 H3343 0.985 . S
H3340 N3335 0.984 . S
H3341 N3335 0.985 1_556 S
H3342 N3339 0.984 . S
H3343 N3339 0.985 . S
H3344 N3338 0.984 . S
H3345 N3338 0.984 . S
H3346 N3334 0.984 . S
H3347 N3334 0.985 . S
C3348 C3349 1.363 . S
C3348 C3354 1.379 . S
C3348 N3356 1.356 . S
C3349 C3348 1.363 . S
C3349 C3355 1.363 . S
C3350 C3351 1.363 . S
C3350 C3355 1.379 . S
C3350 N3357 1.356 . S
C3351 C3350 1.363 . S
C3351 C3354 1.363 . S
N3352 C3354 1.356 . S
N3352 H3364 0.984 . S
N3352 H3365 0.985 . S
N3353 C3355 1.356 . S
N3353 H3358 0.984 . S
N3353 H3359 0.985 . S
C3354 C3348 1.379 . S
C3354 C3351 1.363 . S
C3354 N3352 1.356 . S
C3355 C3349 1.363 . S
C3355 C3350 1.379 . S
C3355 N3353 1.356 . S
N3356 C3348 1.356 . S
N3356 H3362 0.984 . S
N3356 H3363 0.984 . S
N3357 C3350 1.356 . S
N3357 H3360 0.984 . S
N3357 H3361 0.985 . S
H3358 N3353 0.984 . S
H3359 N3353 0.985 . S
H3360 N3357 0.984 . S
H3361 N3357 0.985 . S
H3362 N3356 0.984 . S
H3363 N3356 0.984 . S
H3364 N3352 0.984 . S
H3365 N3352 0.985 . S
C3366 C3367 1.363 . S
C3366 C3372 1.379 . S
C3366 N3374 1.356 . S
C3367 C3366 1.363 . S
C3367 C3373 1.363 . S
C3368 C3369 1.363 . S
C3368 C3373 1.379 . S
C3368 N3375 1.356 . S
C3369 C3368 1.363 . S
C3369 C3372 1.363 . S
N3370 C3372 1.356 . S
N3370 H3382 0.984 . S
N3370 H3383 0.985 . S
N3371 C3373 1.356 . S
N3371 H3376 0.984 . S
N3371 H3377 0.985 . S
C3372 C3366 1.379 . S
C3372 C3369 1.363 . S
C3372 N3370 1.356 . S
C3373 C3367 1.363 . S
C3373 C3368 1.379 . S
C3373 N3371 1.356 . S
N3374 C3366 1.356 . S
N3374 H3380 0.984 . S
N3374 H3381 0.984 . S
N3375 C3368 1.356 . S
N3375 H3378 0.984 . S
N3375 H3379 0.985 . S
H3376 N3371 0.984 . S
H3377 N3371 0.985 . S
H3378 N3375 0.984 . S
H3379 N3375 0.985 . S
H3380 N3374 0.984 . S
H3381 N3374 0.984 . S
H3382 N3370 0.984 . S
H3383 N3370 0.985 . S
C1657 C101 2.360 1_455 S
C1659 C368 2.388 . S
C1675 C57 1.914 . S
C1677 C470 1.958 . S
C1693 C73 1.981 . S
C1695 C536 2.117 . S
C1713 C622 1.310 . S
C1711 C78 1.353 . S
C1729 C21 1.436 . S
C1731 C706 1.363 . S
C1749 C788 2.041 . S
C1747 C31 1.890 . S
C1767 C890 1.974 . S
C1765 C49 1.947 . S
C1783 C0 2.103 . S
C1785 C956 2.287 . S
C1803 C386 1.833 . S
C1801 C218 1.884 . S
C1819 C229 0.985 . S
C1821 C454 0.936 . S
C1839 C554 1.184 . S
C1837 C257 1.172 . S
C1857 C620 1.686 . S
C1855 C164 1.610 1_556 S
C1873 C216 1.600 . S
C1875 C704 1.674 . S
C1893 C806 1.207 . S
C1891 C231 1.192 . S
C1911 C874 0.931 . S
C1909 C255 0.980 . S
C1929 C974 1.812 . S
C1927 C166 1.866 . S
C1947 C370 1.194 . S
C1945 C143 1.076 . S
C1963 C265 1.656 . S
C1965 C1058 1.693 . S
C1983 C1126 1.348 . S
C1981 C299 1.324 . S
C2001 C1208 0.928 . S
C1999 C291 0.890 . S
C2017 C104 1.038 . S
C2019 C958 1.135 . S
C2035 C117 1.337 . S
C2037 C538 1.357 . S
C2053 C304 1.610 . S
C2055 C1310 1.643 . S
C2073 C1376 0.811 . S
C2071 C278 0.799 . S
C2091 C379 2.341 . S
C2089 C60 2.313 . S
C2109 C1383 1.885 . S
C2107 C96 1.887 . S
C2125 C88 2.017 . S
C2127 C547 2.026 . S
C2143 C65 1.332 . S
C2145 C1305 1.270 . S
C2163 C717 1.314 . S
C2161 C10 1.396 . S
C2179 C44 1.828 . S
C2181 C1135 1.962 . S
C2199 C879 1.907 1_556 S
C2197 C34 1.814 . S
C2217 C1471 2.227 . S
C2215 C13 2.199 . S
C2235 C375 1.767 . S
C2233 C138 1.830 . S
C2253 C1389 0.897 . S
C2251 C296 0.931 . S
C2269 C112 1.144 . S
C2271 C543 1.139 . S
C2287 C270 1.620 . S
C2289 C1303 1.615 . S
C2305 C140 1.604 . S
C2307 C715 1.598 . S
C2325 C1131 1.160 . S
C2323 C294 1.161 . S
C2341 C114 0.929 . S
C2343 C885 0.895 1_545 S
C2359 C268 1.815 . S
C2361 C1467 1.751 . S
C2377 C169 1.205 . S
C2379 C381 1.204 . S
C2395 C161 1.643 . S
C2397 C1047 1.645 . S
C2413 C234 1.410 . S
C2415 C801 1.362 . S
C2431 C226 0.829 . S
C2433 C1219 0.843 . S
C2451 C1473 1.159 . S
C2449 C247 1.164 . S
C2467 C195 1.414 . S
C2469 C549 1.369 . S
C2487 C627 1.593 . S
C2485 C239 1.593 . S
C2505 C463 0.735 . S
C2503 C187 0.737 . S
C2521 C75 2.360 . S
C2523 C1544 2.388 . S
C2541 C1394 1.958 . S
C2539 C83 1.914 . S
C2557 C99 1.981 . S
C2559 C1628 2.117 . S
C2575 C52 1.351 1_655 S
C2577 C1294 1.310 . S
C2593 C47 1.436 . S
C2595 C1042 1.363 . S
C2613 C1124 2.041 . S
C2611 C5 1.890 . S
C2631 C1226 1.974 . S
C2629 C23 1.947 . S
C2649 C1460 2.287 . S
C2647 C26 2.103 . S
C2667 C1562 1.833 . S
C2665 C244 1.884 . S
C2683 C177 0.985 . S
C2685 C1378 0.936 . S
C2703 C1646 1.184 . S
C2701 C192 1.172 . S
C2721 C1292 1.686 . S
C2719 C203 1.610 . S
C2739 C1040 1.674 . S
C2737 C242 1.600 . S
C2755 C179 1.192 . S
C2757 C1142 1.207 . S
C2775 C1210 0.931 . S
C2773 C190 0.980 . S
C2791 C205 1.866 . S
C2793 C1478 1.812 . S
C2811 C1546 1.194 . S
C2809 C286 1.076 . S
C2827 C122 1.657 . S
C2829 C722 1.693 . S
C2847 C790 1.349 . S
C2845 C130 1.324 1_565 S
C2865 C872 0.928 . S
C2863 C148 0.891 . S
C2883 C1462 1.135 . S
C2881 C273 1.038 . S
C2899 C260 1.337 . S
C2901 C1630 1.357 . S
C2919 C638 1.643 . S
C2917 C135 1.610 . S
C2937 C452 0.812 . S
C2935 C109 0.799 . S
C2953 C86 2.313 . S
C2955 C1555 2.341 . S
C2973 C459 1.885 . S
C2971 C70 1.887 . S
C2989 C62 2.017 . S
C2991 C1639 2.026 . S
C3007 C91 1.332 . S
C3009 C633 1.270 . S
C3025 C36 1.396 . S
C3027 C1053 1.314 . S
C3045 C799 1.962 . S
C3043 C18 1.828 . S
C3061 C8 1.814 . S
C3063 C1215 1.907 . S
C3079 C39 2.199 . S
C3081 C967 2.227 . S
C3099 C1551 1.767 . S
C3097 C307 1.830 . S
C3115 C153 0.931 . S
C3117 C465 0.895 . S
C3135 C1635 1.139 1_655 S
C3133 C281 1.144 . S
C3151 C127 1.621 . S
C3153 C631 1.615 . S
C3169 C309 1.603 . S
C3171 C1051 1.597 . S
C3189 C795 1.160 . S
C3187 C151 1.163 . S
C3205 C283 0.929 . S
C3207 C1221 0.895 . S
C3225 C963 1.751 . S
C3223 C125 1.815 . S
C3243 C1557 1.204 . S
C3241 C221 1.205 . S
C3261 C711 1.645 1_565 S
C3259 C200 1.643 . S
C3277 C208 1.410 . S
C3279 C1137 1.362 . S
C3297 C883 0.843 . S
C3295 C174 0.829 . S
C3313 C182 1.165 . S
C3315 C969 1.159 . S
C3331 C156 1.414 . S
C3333 C1641 1.369 . S
C3351 C1299 1.594 . S
C3349 C213 1.594 . S
C3369 C1387 0.735 . S
C3367 C252 0.737 . S
