# Generated by pormake.
# Topology nia, (6,6)-cn, num edge types: 1
# Building blocks:
#     Node 0, Type 0, BuildingBlock: KUMBOL_clean_sbu_1, # of connection points: 6
#     Node 1, Type 0, BuildingBlock: KUMBOL_clean_sbu_1, # of connection points: 6
#     Node 2, Type 1, BuildingBlock: MIDCAF_clean_sbu_0, # of connection points: 6
#     Node 3, Type 1, BuildingBlock: MIDCAF_clean_sbu_0, # of connection points: 6
#     Edge 4, Type (0, 1), BuildingBlock: TEMPAE_clean_linker_10, # of connection points: 2
#     Edge 5, Type (0, 1), BuildingBlock: TEMPAE_clean_linker_10, # of connection points: 2
#     Edge 6, Type (0, 1), BuildingBlock: TEMPAE_clean_linker_10, # of connection points: 2
#     Edge 7, Type (0, 1), BuildingBlock: TEMPAE_clean_linker_10, # of connection points: 2
#     Edge 8, Type (0, 1), BuildingBlock: TEMPAE_clean_linker_10, # of connection points: 2
#     Edge 9, Type (0, 1), BuildingBlock: TEMPAE_clean_linker_10, # of connection points: 2
#     Edge 10, Type (0, 1), BuildingBlock: TEMPAE_clean_linker_10, # of connection points: 2
#     Edge 11, Type (0, 1), BuildingBlock: TEMPAE_clean_linker_10, # of connection points: 2
#     Edge 12, Type (0, 1), BuildingBlock: TEMPAE_clean_linker_10, # of connection points: 2
#     Edge 13, Type (0, 1), BuildingBlock: TEMPAE_clean_linker_10, # of connection points: 2
#     Edge 14, Type (0, 1), BuildingBlock: TEMPAE_clean_linker_10, # of connection points: 2
#     Edge 15, Type (0, 1), BuildingBlock: TEMPAE_clean_linker_10, # of connection points: 2
# Relax obj value: 0.170
# Max RMSD: 0.279
# Mean RMSD: 0.201
data_MOF--net-nia--node1-KUMBOL_clean_sbu_1--node2-MIDCAF_clean_sbu_0--edge1-TEMPAE_clean_linker_10
_symmetry_space_group_name_H-M    P1
_symmetry_Int_Tables_number       1
_symmetry_cell_setting            triclinic
loop_
_symmetry_equiv_pos_as_xyz
'x, y, z'
_cell_length_a     28.551127
_cell_length_b     28.613132
_cell_length_c     32.403942
_cell_angle_alpha  89.79286
_cell_angle_beta   90.805934
_cell_angle_gamma 135.83212
loop_
_atom_site_label
_atom_site_type_symbol
_atom_site_fract_x
_atom_site_fract_y
_atom_site_fract_z
_atom_type_partial_charge
C0 C 0.96195 0.97486 0.86486 0.0
C1 C 0.84138 0.87789 0.85704 0.0
C2 C 0.89781 0.93113 0.8814 0.0
C3 C 0.85064 0.86675 0.81715 0.0
C4 C 0.97139 0.96421 0.82475 0.0
C5 C 0.91549 0.90938 0.8012 0.0
N6 N 0.01533 0.02735 0.88837 0.0
C7 C 0.07833 0.07389 0.87261 0.0
C8 C 0.03684 0.00937 0.80948 0.0
C9 C 0.09041 0.06497 0.83327 0.0
Gd10 Gd 0.02804 0.97185 0.04991 0.0
Gd11 Gd 0.99067 0.03623 0.95451 0.0
N12 N 0.89062 0.94084 0.92107 0.0
C13 C 0.77726 0.83749 0.87349 0.0
C14 C 0.82805 0.90295 0.93663 0.0
C15 C 0.7706 0.85038 0.91333 0.0
H16 H 0.82167 0.91424 0.96634 0.0
H17 H 0.72115 0.82028 0.92596 0.0
H18 H 0.19841 0.09483 0.03193 0.0
H19 H 0.11889 0.11852 0.89012 0.0
H20 H 0.29921 0.20199 0.06295 0.0
H21 H 0.73262 0.79652 0.85563 0.0
H22 H 0.80791 0.82536 0.79833 0.0
H23 H 0.90963 0.89455 0.12114 0.0
H24 H 0.04652 0.00268 0.77914 0.0
H25 H 0.14079 0.1013 0.82115 0.0
H26 H 0.22558 0.20927 0.19233 0.0
H27 H 0.92176 0.90014 0.77038 0.0
H28 H -0.00368 0.02084 0.22859 0.0
H29 H 0.89815 0.91525 0.19254 0.0
N30 N 0.01326 0.98612 0.11791 0.0
C31 C 0.06839 0.04296 0.13786 0.0
C32 C 0.95289 0.94005 0.13714 0.0
C33 C 0.00163 0.01114 0.19775 0.0
C34 C 0.9462 0.95167 0.17743 0.0
C35 C 0.06362 0.05763 0.1781 0.0
H36 H 0.11761 0.13051 0.22814 0.0
N37 N 0.13232 0.07167 0.07854 0.0
C38 C 0.12932 0.08741 0.11744 0.0
C39 C 0.2481 0.1902 0.1166 0.0
C40 C 0.18692 0.1476 0.13717 0.0
C41 C 0.19324 0.1104 0.0601 0.0
C42 C 0.25148 0.17083 0.07828 0.0
O43 O 0.99168 0.95962 0.93985 0.0
O44 O 0.95277 0.90102 0.99991 0.0
O45 O 0.0757 0.93578 0.05308 0.0
O46 O 0.98364 0.88618 0.08607 0.0
O47 O 0.92282 0.99185 0.00958 0.0
O48 O 0.91986 0.91421 0.03555 0.0
O49 O 0.0218 0.04448 0.06426 0.0
O50 O 0.06222 0.10959 0.00599 0.0
O51 O 0.93339 0.05867 0.9454 0.0
O52 O 0.032 0.12266 0.91839 0.0
O53 O 0.09499 0.01687 0.99381 0.0
O54 O 0.09685 0.09526 0.97322 0.0
C55 C 0.9675 0.9073 0.96104 0.0
C56 C 0.89573 0.93969 0.03252 0.0
C57 C 0.01935 0.83237 0.09206 0.0
C58 C 0.06291 0.78544 0.10609 0.0
C59 C 0.94598 0.71977 0.11949 0.0
C60 C 0.95587 0.77244 0.10574 0.0
C61 C -0.00096 0.72606 0.11966 0.0
C62 C 0.07297 0.83879 0.09238 0.0
C63 C 0.02809 0.88683 0.07703 0.0
C64 C 0.18195 0.16305 0.17691 0.0
C65 C 0.12052 0.11813 0.19735 0.0
H66 H 0.29336 0.23698 0.13062 0.0
C67 C 0.05386 0.10162 0.04619 0.0
C68 C 0.12088 0.06988 0.97214 0.0
C69 C 0.99252 0.17021 0.93375 0.0
C70 C 0.95979 0.22758 0.92186 0.0
C71 C 0.04991 0.27329 0.97078 0.0
C72 C 0.04171 0.21979 0.96247 0.0
C73 C 0.00909 0.27723 0.95071 0.0
C74 C 0.95172 0.17407 0.91391 0.0
C75 C 0.98018 0.11234 0.92416 0.0
H76 H 0.8971 0.67404 0.13025 0.0
H77 H 0.9136 0.76605 0.10574 0.0
H78 H 0.9905 0.68494 0.1313 0.0
H79 H 0.12213 0.88485 0.08205 0.0
H80 H 0.08822 0.31204 0.99253 0.0
H81 H 0.07334 0.21707 0.97834 0.0
H82 H 0.01684 0.31952 0.95716 0.0
H83 H 0.91296 0.13464 0.89236 0.0
C84 C 0.05773 0.06495 0.63085 0.0
C85 C 0.16072 0.18317 0.63995 0.0
C86 C 0.10293 0.13012 0.61646 0.0
C87 C 0.17452 0.16899 0.67701 0.0
C88 C 0.06998 0.0508 0.66881 0.0
C89 C 0.12957 0.10281 0.69121 0.0
N90 N -0.00019 0.01619 0.60898 0.0
C91 C 0.94832 0.95527 0.62641 0.0
C92 C 0.02067 0.98523 0.68377 0.0
C93 C 0.95866 0.93782 0.66318 0.0
Gd94 Gd 0.03458 0.9872 0.45322 0.0
Gd95 Gd 0.99182 0.04802 0.54432 0.0
N96 N 0.08981 0.14169 0.57954 0.0
C97 C 0.20272 0.24876 0.6254 0.0
C98 C 0.12914 0.20551 0.56574 0.0
C99 C 0.18648 0.26001 0.58833 0.0
H100 H 0.11638 0.21409 0.53716 0.0
H101 H 0.2182 0.31056 0.57709 0.0
H102 H 0.93923 0.82418 0.47704 0.0
H103 H 0.8989 0.92048 0.6124 0.0
H104 H 0.83555 0.71245 0.45147 0.0
H105 H 0.24748 0.29099 0.64262 0.0
H106 H 0.21937 0.20888 0.69514 0.0
H107 H 0.08221 0.0937 0.37838 0.0
H108 H 0.02864 0.97142 0.71203 0.0
H109 H 0.9185 0.8883 0.67593 0.0
H110 H 0.78194 0.75604 0.32588 0.0
H111 H 0.14022 0.09279 0.72023 0.0
H112 H 0.92844 0.98465 0.28442 0.0
H113 H 0.03642 0.09241 0.3126 0.0
N114 N -0.0004 0.98907 0.38805 0.0
C115 C 0.94289 0.92912 0.37181 0.0
C116 C 0.03492 0.04691 0.36646 0.0
C117 C 0.94896 0.98528 0.313 0.0
C118 C 0.00944 0.04616 0.32903 0.0
C119 C 0.91605 0.92558 0.33373 0.0
H120 H 0.83717 0.85906 0.2878 0.0
N121 N 0.9398 0.87679 0.42994 0.0
C122 C 0.91189 0.8713 0.39347 0.0
C123 C 0.82505 0.75051 0.39875 0.0
C124 C 0.8536 0.80806 0.377 0.0
C125 C 0.91441 0.82055 0.44993 0.0
C126 C 0.85609 0.75678 0.43509 0.0
O127 O 0.0957 0.09174 0.53583 0.0
O128 O 0.07081 -0.00067 0.51788 0.0
O129 O 0.06732 0.94505 0.42469 0.0
O130 O 0.13834 0.05319 0.43548 0.0
O131 O 0.03124 0.10847 0.48594 0.0
O132 O 0.09763 0.09888 0.45591 0.0
O133 O 0.96492 -0.0011 0.44244 0.0
O134 O 0.90627 0.96394 0.50214 0.0
O135 O 0.96148 0.09821 0.53312 0.0
O136 O 0.93972 0.04929 0.59139 0.0
O137 O 0.99042 0.92519 0.51214 0.0
O138 O 0.92357 0.93572 0.53924 0.0
C139 C 0.10843 0.056 0.53811 0.0
C140 C 0.07956 0.13006 0.46106 0.0
C141 C 0.18472 0.01607 0.40499 0.0
C142 C 0.23452 0.97655 0.38637 0.0
C143 C 0.30249 0.09571 0.38631 0.0
C144 C 0.24724 0.08238 0.39856 0.0
C145 C 0.29643 0.04329 0.3806 0.0
C146 C 0.1783 0.96292 0.39812 0.0
C147 C 0.12913 0.00402 0.4225 0.0
C148 C 0.82655 0.8042 0.33904 0.0
C149 C 0.85784 0.86282 0.31741 0.0
H150 H 0.78015 0.70103 0.3872 0.0
C151 C 0.90829 0.96431 0.46167 0.0
C152 C 0.94014 0.9032 0.5353 0.0
C153 C 0.86544 0.0544 0.56834 0.0
C154 C 0.79523 0.0693 0.58829 0.0
C155 C 0.74496 0.96501 0.55596 0.0
C156 C 0.8085 0.98981 0.5533 0.0
C157 C 0.73811 0.00434 0.57376 0.0
C158 C 0.85866 0.09403 0.58531 0.0
C159 C 0.93222 0.08099 0.56856 0.0
H160 H 0.35046 0.14699 0.38172 0.0
H161 H 0.25387 0.12426 0.40367 0.0
H162 H 0.34015 0.05479 0.37146 0.0
H163 H 0.13073 0.91155 0.40334 0.0
H164 H 0.70098 0.91515 0.54444 0.0
H165 H 0.81315 0.95862 0.54003 0.0
H166 H 0.68866 0.98457 0.57575 0.0
H167 H 0.90277 0.14389 0.59701 0.0
Zn168 Zn 0.36803 0.66893 0.14457 0.0
Zn169 Zn 0.36745 0.64682 0.37502 0.0
Zn170 Zn 0.36843 0.65744 0.24861 0.0
C171 C 0.4761 0.71528 0.30334 0.0
C172 C 0.31091 0.55017 0.29939 0.0
O173 O 0.32911 0.69897 0.25018 0.0
O174 O 0.34387 0.69513 0.186 0.0
C175 C 0.49817 0.74684 0.18537 0.0
O176 O 0.47211 0.7162 0.26422 0.0
O177 O 0.42121 0.68039 0.32215 0.0
O178 O 0.34614 0.60558 0.31822 0.0
O179 O 0.30836 0.55284 0.26033 0.0
O180 O 0.46472 0.72743 0.15197 0.0
O181 O 0.47054 0.72611 0.22125 0.0
O182 O 0.3023 0.55823 0.21684 0.0
O183 O 0.30801 0.57142 0.14805 0.0
C184 C 0.28534 0.53443 0.17955 0.0
O185 O 0.3317 0.68904 0.29421 0.0
O186 O 0.32535 0.68075 0.36454 0.0
C187 C 0.32804 0.71233 0.21306 0.0
C188 C 0.31683 0.69638 0.33009 0.0
Zn189 Zn 0.64974 0.34194 0.81869 0.0
Zn190 Zn 0.6548 0.36189 0.6813 0.0
Zn191 Zn 0.65015 0.36331 0.74963 0.0
C192 C 0.69475 0.47805 0.69312 0.0
C193 C 0.52541 0.25734 0.69287 0.0
O194 O 0.69359 0.32261 0.76632 0.0
O195 O 0.69442 0.31719 0.83435 0.0
C196 C 0.72314 0.47746 0.81333 0.0
O197 O 0.70874 0.46878 0.72836 0.0
O198 O 0.65478 0.42861 0.66892 0.0
O199 O 0.56891 0.26819 0.67157 0.0
O200 O 0.54483 0.29349 0.72549 0.0
O201 O 0.69576 0.43003 0.83807 0.0
O202 O 0.71473 0.46578 0.7742 0.0
O203 O 0.54373 0.29993 0.77184 0.0
O204 O 0.55714 0.2734 0.83115 0.0
C205 C 0.52008 0.26998 0.80693 0.0
O206 O 0.69599 0.33074 0.72447 0.0
O207 O 0.73364 0.38145 0.66425 0.0
C208 C 0.70711 0.30911 0.79979 0.0
C209 C 0.7298 0.3473 0.69145 0.0
C210 C 0.10969 0.73911 0.09625 0.0
C211 C 0.11909 0.79202 0.10943 0.0
C212 C 0.15446 0.73588 0.10861 0.0
C213 C 0.20943 0.78673 0.13489 0.0
C214 C 0.22336 0.84398 0.14435 0.0
C215 C 0.17779 0.84602 0.13141 0.0
C216 C 0.13916 0.67497 0.09674 0.0
C217 C 0.28242 0.89965 0.17169 0.0
C218 C 0.24976 0.72388 0.2161 0.0
C219 C 0.30585 0.74267 0.19916 0.0
C220 C 0.21849 0.73905 0.19553 0.0
C221 C 0.24508 0.77475 0.15783 0.0
C222 C 0.30351 0.79618 0.14164 0.0
C223 C 0.33332 0.78004 0.16265 0.0
C224 C 0.15378 0.71189 0.21229 0.0
C225 C 0.33201 0.83212 0.10091 0.0
H226 H 0.06496 0.69809 0.07841 0.0
H227 H 0.18528 0.88715 0.14141 0.0
H228 H 0.18572 0.68918 0.08896 0.0
H229 H 0.11614 0.64017 0.12322 0.0
H230 H 0.10353 0.64754 0.07003 0.0
H231 H 0.2926 0.9451 0.17057 0.0
H232 H 0.27163 0.88199 0.20406 0.0
H233 H 0.32844 0.9136 0.16258 0.0
H234 H 0.22754 0.69325 0.24356 0.0
H235 H 0.37647 0.79376 0.14932 0.0
H236 H 0.11097 0.66887 0.19289 0.0
H237 H 0.15334 0.75031 0.21103 0.0
H238 H 0.1453 0.69409 0.24448 0.0
H239 H 0.29637 0.7975 0.07551 0.0
H240 H 0.38111 0.85044 0.09461 0.0
H241 H 0.33864 0.87533 0.10033 0.0
C242 C 0.1685 0.03462 0.57557 0.0
C243 C 0.16579 0.07966 0.56317 0.0
C244 C 0.22284 0.05653 0.59934 0.0
C245 C 0.27473 0.1247 0.61165 0.0
C246 C 0.27178 0.17015 0.59956 0.0
C247 C 0.21809 0.1473 0.57465 0.0
C248 C 0.22577 0.00728 0.6102 0.0
C249 C 0.32576 0.24311 0.61255 0.0
C250 C 0.40088 0.18396 0.6969 0.0
C251 C 0.45789 0.21507 0.6738 0.0
C252 C 0.33957 0.15194 0.67719 0.0
C253 C 0.33562 0.15041 0.63349 0.0
C254 C 0.3919 0.17774 0.61014 0.0
C255 C 0.4522 0.20987 0.63052 0.0
C256 C 0.28021 0.12265 0.70306 0.0
C257 C 0.38963 0.17617 0.56347 0.0
H258 H 0.12836 0.98226 0.56648 0.0
H259 H 0.21728 0.1826 0.56395 0.0
H260 H 0.27 0.02272 0.59551 0.0
H261 H 0.23221 0.00726 0.64403 0.0
H262 H 0.17987 0.95536 0.59987 0.0
H263 H 0.31664 0.27215 0.5998 0.0
H264 H 0.32805 0.24691 0.64673 0.0
H265 H 0.37568 0.26678 0.60217 0.0
H266 H 0.40432 0.18471 0.73011 0.0
H267 H 0.49591 0.23347 0.61218 0.0
H268 H 0.23283 0.07388 0.69024 0.0
H269 H 0.27475 0.15733 0.70286 0.0
H270 H 0.28668 0.11526 0.7355 0.0
H271 H 0.34509 0.12469 0.55191 0.0
H272 H 0.43547 0.19329 0.55012 0.0
H273 H 0.38497 0.20927 0.55193 0.0
C274 C 0.15115 0.22234 0.0632 0.0
C275 C 0.0866 0.16035 0.07241 0.0
C276 C 0.18266 0.27903 0.08761 0.0
C277 C 0.14754 0.2737 0.12099 0.0
C278 C 0.08316 0.21062 0.13115 0.0
C279 C 0.05388 0.15439 0.10702 0.0
C280 C 0.25238 0.34512 0.07662 0.0
C281 C 0.04362 0.20318 0.16594 0.0
C282 C 0.25107 0.42707 0.19079 0.0
C283 C 0.24043 0.46264 0.1714 0.0
C284 C 0.21781 0.36304 0.17638 0.0
C285 C 0.17451 0.33546 0.14136 0.0
C286 C 0.16114 0.37001 0.12317 0.0
C287 C 0.19417 0.43312 0.13852 0.0
C288 C 0.23238 0.32705 0.19687 0.0
C289 C 0.11578 0.34264 0.08558 0.0
H290 H 0.17706 0.22638 0.03698 0.0
H291 H 0.00431 0.10634 0.11438 0.0
H292 H 0.24985 0.37935 0.06396 0.0
H293 H 0.28536 0.36959 0.10455 0.0
H294 H 0.27586 0.33897 0.05331 0.0
H295 H -0.00218 0.14974 0.1728 0.0
H296 H 0.07515 0.22813 0.1944 0.0
H297 H 0.02805 0.2281 0.15745 0.0
H298 H 0.28827 0.45083 0.21549 0.0
H299 H 0.18643 0.46109 0.1234 0.0
H300 H 0.26379 0.32797 0.17631 0.0
H301 H 0.18511 0.27369 0.20211 0.0
H302 H 0.2594 0.3506 0.22691 0.0
H303 H 0.13987 0.34284 0.05895 0.0
H304 H 0.10595 0.37277 0.07746 0.0
H305 H 0.06701 0.28996 0.09058 0.0
C306 C 0.82333 0.1739 0.58819 0.0
C307 C 0.78995 0.11241 0.6065 0.0
C308 C 0.82009 0.2164 0.60524 0.0
C309 C 0.78352 0.19719 0.64178 0.0
C310 C 0.75266 0.13666 0.66157 0.0
C311 C 0.75528 0.09423 0.64324 0.0
C312 C 0.85387 0.28075 0.58349 0.0
C313 C 0.71556 0.11606 0.70147 0.0
C314 C 0.80289 0.32868 0.69516 0.0
C315 C 0.74554 0.31057 0.68009 0.0
C316 C 0.81607 0.29178 0.68351 0.0
C317 C 0.77055 0.23607 0.65626 0.0
C318 C 0.71248 0.21802 0.64128 0.0
C319 C 0.70074 0.25558 0.65348 0.0
C320 C 0.87982 0.3144 0.69919 0.0
C321 C 0.66336 0.15987 0.61162 0.0
H322 H 0.85089 0.18802 0.56004 0.0
H323 H 0.73093 0.04726 0.65778 0.0
H324 H 0.81556 0.27936 0.57341 0.0
H325 H 0.8892 0.32396 0.60501 0.0
H326 H 0.88208 0.28939 0.55604 0.0
H327 H 0.70627 0.07538 0.71697 0.0
H328 H 0.74427 0.15956 0.72297 0.0
H329 H 0.66637 0.09786 0.69503 0.0
H330 H 0.83771 0.372 0.71539 0.0
H331 H 0.65634 0.24209 0.64209 0.0
H332 H 0.92143 0.3532 0.67823 0.0
H333 H 0.8755 0.27269 0.70033 0.0
H334 H 0.89396 0.33762 0.73036 0.0
H335 H 0.68968 0.1681 0.58321 0.0
H336 H 0.62097 0.15297 0.60272 0.0
H337 H 0.64242 0.11278 0.62576 0.0
C338 C 0.77572 0.85786 0.0519 0.0
C339 C 0.84304 0.91585 0.06085 0.0
C340 C 0.72535 0.8365 0.0787 0.0
C341 C 0.74371 0.87247 0.11605 0.0
C342 C 0.81208 0.93 0.1256 0.0
C343 C 0.86072 0.95219 0.09705 0.0
C344 C 0.65258 0.77663 0.06652 0.0
C345 C 0.83384 0.96771 0.16592 0.0
C346 C 0.6053 0.84893 0.15686 0.0
C347 C 0.57033 0.79155 0.18082 0.0
C348 C 0.66507 0.87917 0.13773 0.0
C349 C 0.69068 0.85178 0.14359 0.0
C350 C 0.65929 0.79826 0.17141 0.0
C351 C 0.59828 0.76765 0.1891 0.0
C352 C 0.69624 0.93535 0.10769 0.0
C353 C 0.68683 0.76957 0.17949 0.0
H354 H 0.76247 0.83026 0.02358 0.0
H355 H 0.91295 0.99709 0.10352 0.0
H356 H 0.62779 0.73642 0.0897 0.0
H357 H 0.62544 0.79111 0.06577 0.0
H358 H 0.647 0.7559 0.03577 0.0
H359 H 0.8893 0.0115 0.16848 0.0
H360 H 0.81023 0.98566 0.16928 0.0
H361 H 0.81667 0.93353 0.19205 0.0
H362 H 0.58247 0.86622 0.14993 0.0
H363 H 0.56956 0.72149 0.20611 0.0
H364 H 0.68792 0.91653 0.07574 0.0
H365 H 0.75129 0.97726 0.11302 0.0
H366 H 0.67426 0.9552 0.10996 0.0
H367 H 0.67901 0.74192 0.15174 0.0
H368 H 0.66192 0.73447 0.20592 0.0
H369 H 0.74176 0.81047 0.18589 0.0
C370 C 0.93778 0.82561 0.574 0.0
C371 C 0.90501 0.84323 0.56119 0.0
C372 C 0.90651 0.7714 0.60067 0.0
C373 C 0.84095 0.734 0.61493 0.0
C374 C 0.8083 0.75255 0.60275 0.0
C375 C 0.84019 0.80609 0.57547 0.0
C376 C 0.94288 0.75299 0.61271 0.0
C377 C 0.73887 0.71473 0.61768 0.0
C378 C 0.7307 0.54971 0.63232 0.0
C379 C 0.73107 0.54498 0.67559 0.0
C380 C 0.76539 0.61048 0.61276 0.0
C381 C 0.80249 0.66937 0.63671 0.0
C382 C 0.80225 0.66558 0.68044 0.0
C383 C 0.76628 0.60313 0.69945 0.0
C384 C 0.76266 0.61149 0.56612 0.0
C385 C 0.84057 0.72733 0.70706 0.0
H386 H 0.98816 0.85453 0.56343 0.0
H387 H 0.81457 0.81942 0.56559 0.0
H388 H 0.9434 0.74909 0.64677 0.0
H389 H 0.91589 0.70316 0.59941 0.0
H390 H -0.00449 0.79016 0.60176 0.0
H391 H 0.72358 0.73993 0.60908 0.0
H392 H 0.70169 0.66339 0.60417 0.0
H393 H 0.73684 0.70959 0.65174 0.0
H394 H 0.70384 0.50554 0.61311 0.0
H395 H 0.76475 0.59973 0.73267 0.0
H396 H 0.81405 0.64503 0.55365 0.0
H397 H 0.74257 0.6316 0.55621 0.0
H398 H 0.7306 0.56087 0.55206 0.0
H399 H 0.89463 0.75645 0.70754 0.0
H400 H 0.82233 0.71414 0.73926 0.0
H401 H 0.83643 0.76042 0.69457 0.0
C402 C 0.19343 0.87733 0.34713 0.0
C403 C 0.23044 0.92235 0.38032 0.0
C404 C 0.19848 0.8333 0.33691 0.0
C405 C 0.24112 0.83399 0.36062 0.0
C406 C 0.27543 0.87681 0.3957 0.0
C407 C 0.27019 0.92091 0.40486 0.0
C408 C 0.1614 0.78908 0.29928 0.0
C409 C 0.32016 0.87828 0.42252 0.0
C410 C 0.23568 0.697 0.35713 0.0
C411 C 0.2909 0.72631 0.33233 0.0
C412 C 0.21592 0.72932 0.36434 0.0
C413 C 0.25382 0.79369 0.3476 0.0
C414 C 0.30817 0.82228 0.32128 0.0
C415 C 0.32563 0.78793 0.31365 0.0
C416 C 0.15626 0.69585 0.39132 0.0
C417 C 0.35032 0.89091 0.30299 0.0
H418 H 0.16323 0.87898 0.32793 0.0
H419 H 0.29873 0.95577 0.4306 0.0
H420 H 0.19836 0.80898 0.27478 0.0
H421 H 0.13575 0.73724 0.30615 0.0
H422 H 0.12365 0.78756 0.28736 0.0
H423 H 0.33991 0.91121 0.4501 0.0
H424 H 0.29213 0.82695 0.43301 0.0
H425 H 0.36332 0.89662 0.40432 0.0
H426 H 0.20863 0.64919 0.37154 0.0
H427 H 0.36874 0.81097 0.29485 0.0
H428 H 0.12272 0.69848 0.37689 0.0
H429 H 0.17387 0.72255 0.42146 0.0
H430 H 0.1266 0.64241 0.39709 0.0
H431 H 0.31784 0.89325 0.28637 0.0
H432 H 0.38815 0.90437 0.28124 0.0
H433 H 0.37703 0.9291 0.32812 0.0
C434 C 0.22645 0.16982 0.93863 0.0
C435 C 0.1764 0.10026 0.94417 0.0
C436 C 0.27725 0.19946 0.90983 0.0
C437 C 0.27737 0.1582 0.88594 0.0
C438 C 0.22507 0.08757 0.8903 0.0
C439 C 0.1757 0.05943 0.91995 0.0
C440 C 0.33299 0.275 0.90706 0.0
C441 C 0.22305 0.04197 0.86492 0.0
C442 C 0.41017 0.23732 0.80326 0.0
C443 C 0.45483 0.23886 0.8239 0.0
C444 C 0.35072 0.20983 0.82249 0.0
C445 C 0.33906 0.18856 0.86408 0.0
C446 C 0.38621 0.19436 0.88568 0.0
C447 C 0.44145 0.21664 0.86501 0.0
C448 C 0.30015 0.20256 0.79838 0.0
C449 C 0.37879 0.17731 0.931 0.0
H450 H 0.22622 0.20108 0.95725 0.0
H451 H 0.13579 0.00543 0.92362 0.0
H452 H 0.37967 0.29371 0.92112 0.0
H453 H 0.3438 0.2912 0.87443 0.0
H454 H 0.32061 0.29904 0.92341 0.0
H455 H 0.17392 0.98856 0.86707 0.0
H456 H 0.23284 0.05703 0.83203 0.0
H457 H 0.26305 0.04635 0.87598 0.0
H458 H 0.42165 0.25783 0.77256 0.0
H459 H 0.4757 0.21864 0.8822 0.0
H460 H 0.28383 0.22156 0.81644 0.0
H461 H 0.25463 0.14855 0.79213 0.0
H462 H 0.32034 0.22932 0.7685 0.0
H463 H 0.37012 0.20336 0.94906 0.0
H464 H 0.42389 0.19173 0.94419 0.0
H465 H 0.33475 0.12262 0.93523 0.0
C466 C 0.1723 0.22403 0.41525 0.0
C467 C 0.11283 0.19081 0.43637 0.0
C468 C 0.20317 0.28074 0.39119 0.0
C469 C 0.17401 0.30498 0.38829 0.0
C470 C 0.11376 0.27141 0.4093 0.0
C471 C 0.08404 0.21493 0.43312 0.0
C472 C 0.26741 0.31515 0.36926 0.0
C473 C 0.08097 0.29556 0.40696 0.0
C474 C 0.28851 0.48915 0.36378 0.0
C475 C 0.27402 0.48685 0.32187 0.0
C476 C 0.25604 0.43035 0.38568 0.0
C477 C 0.20832 0.36748 0.36511 0.0
C478 C 0.1931 0.36461 0.3228 0.0
C479 C 0.22571 0.42438 0.3018 0.0
C480 C 0.27316 0.43565 0.43086 0.0
C481 C 0.14274 0.29855 0.29969 0.0
H482 H 0.19495 0.20586 0.4176 0.0
H483 H 0.03779 0.1894 0.44901 0.0
H484 H 0.26152 0.31828 0.33575 0.0
H485 H 0.30885 0.36725 0.38112 0.0
H486 H 0.28227 0.28861 0.37341 0.0
H487 H 0.0332 0.26277 0.4242 0.0
H488 H 0.1157 0.34722 0.41979 0.0
H489 H 0.07034 0.29756 0.3743 0.0
H490 H 0.32594 0.53713 0.37953 0.0
H491 H 0.21303 0.42211 0.26977 0.0
H492 H 0.2934 0.41443 0.43604 0.0
H493 H 0.2271 0.40595 0.44948 0.0
H494 H 0.3108 0.48832 0.44238 0.0
H495 H 0.15969 0.27374 0.30008 0.0
H496 H 0.1357 0.30481 0.26706 0.0
H497 H 0.09339 0.26436 0.31512 0.0
C498 C 0.88735 0.24729 0.91963 0.0
C499 C 0.91736 0.23141 0.89908 0.0
C500 C 0.84727 0.25104 0.89796 0.0
C501 C 0.83776 0.23928 0.85474 0.0
C502 C 0.86611 0.22104 0.83417 0.0
C503 C 0.90567 0.21746 0.85657 0.0
C504 C 0.81654 0.26929 0.92111 0.0
C505 C 0.85523 0.20576 0.78849 0.0
C506 C 0.70224 0.22052 0.80914 0.0
C507 C 0.74003 0.28721 0.79944 0.0
C508 C 0.73372 0.20266 0.82464 0.0
C509 C 0.80429 0.2532 0.83083 0.0
C510 C 0.8429 0.31961 0.81781 0.0
C511 C 0.81006 0.33591 0.80239 0.0
C512 C 0.69098 0.13123 0.83774 0.0
C513 C 0.91843 0.37454 0.82329 0.0
H514 H 0.89505 0.25655 0.95265 0.0
H515 H 0.92868 0.205 0.84055 0.0
H516 H 0.83958 0.31912 0.91094 0.0
H517 H 0.76184 0.23242 0.91415 0.0
H518 H 0.82393 0.27118 0.95505 0.0
H519 H 0.89063 0.20497 0.77587 0.0
H520 H 0.80324 0.15585 0.78282 0.0
H521 H 0.86103 0.24314 0.77137 0.0
H522 H 0.6478 0.18347 0.80768 0.0
H523 H 0.83875 0.38774 0.79577 0.0
H524 H 0.68977 0.12871 0.87194 0.0
H525 H 0.71272 0.11346 0.82683 0.0
H526 H 0.63849 0.09663 0.82577 0.0
H527 H 0.9317 0.38491 0.85669 0.0
H528 H 0.94141 0.42186 0.80814 0.0
H529 H 0.94082 0.3584 0.8103 0.0
C530 C 0.792 0.85916 0.44042 0.0
C531 C 0.84644 0.92879 0.43747 0.0
C532 C 0.73315 0.82427 0.41668 0.0
C533 C 0.72765 0.86047 0.39104 0.0
C534 C 0.78294 0.9311 0.38811 0.0
C535 C 0.8423 0.96426 0.41077 0.0
C536 C 0.67715 0.74872 0.41877 0.0
C537 C 0.77905 0.97169 0.36152 0.0
C538 C 0.59343 0.76847 0.30596 0.0
C539 C 0.54068 0.7536 0.32552 0.0
C540 C 0.6546 0.80337 0.32671 0.0
C541 C 0.66357 0.82464 0.36808 0.0
C542 C 0.61073 0.81085 0.38778 0.0
C543 C 0.54956 0.77467 0.36643 0.0
C544 C 0.7084 0.8151 0.30466 0.0
C545 C 0.61892 0.8346 0.43134 0.0
H546 H 0.79621 0.83192 0.46056 0.0
H547 H 0.885 0.0182 0.40844 0.0
H548 H 0.63137 0.73242 0.43132 0.0
H549 H 0.66425 0.72687 0.38727 0.0
H550 H 0.69088 0.72797 0.4384 0.0
H551 H 0.82574 0.02633 0.36358 0.0
H552 H 0.77007 0.95551 0.3288 0.0
H553 H 0.73603 0.96285 0.37103 0.0
H554 H 0.58618 0.75106 0.27475 0.0
H555 H 0.50892 0.7636 0.3816 0.0
H556 H 0.70974 0.77979 0.31679 0.0
H557 H 0.75859 0.86681 0.31021 0.0
H558 H 0.69876 0.80675 0.27084 0.0
H559 H 0.62646 0.81023 0.45294 0.0
H560 H 0.57459 0.82327 0.44135 0.0
H561 H 0.66424 0.88956 0.4338 0.0
C562 C 0.97471 0.83135 0.93464 0.0
C563 C 0.93914 0.84779 0.93804 0.0
C564 C 0.94687 0.77373 0.9126 0.0
C565 C 0.88349 0.73402 0.89256 0.0
C566 C 0.84805 0.7513 0.8959 0.0
C567 C 0.87564 0.80696 0.91973 0.0
C568 C 0.98346 0.75368 0.91243 0.0
C569 C 0.78051 0.71045 0.87479 0.0
C570 C 0.81673 0.60363 0.81026 0.0
C571 C 0.76588 0.54469 0.832 0.0
C572 C 0.85769 0.66656 0.82986 0.0
C573 C 0.84937 0.66968 0.87243 0.0
C574 C 0.80139 0.61013 0.89506 0.0
C575 C 0.7591 0.54873 0.87438 0.0
C576 C 0.90849 0.72956 0.805 0.0
C577 C 0.7924 0.61106 0.94085 0.0
H578 H 0.02342 0.86272 0.94987 0.0
H579 H 0.84717 0.81813 0.92454 0.0
H580 H 0.95346 0.70565 0.92907 0.0
H581 H 0.98929 0.74513 0.88042 0.0
H582 H 0.03395 0.79208 0.92747 0.0
H583 H 0.75783 0.72836 0.88266 0.0
H584 H 0.78655 0.713 0.84083 0.0
H585 H 0.74449 0.65695 0.88354 0.0
H586 H 0.82502 0.60054 0.77836 0.0
H587 H 0.72057 0.50348 0.89185 0.0
H588 H 0.95886 0.76367 0.82004 0.0
H589 H 0.89413 0.75676 0.80373 0.0
H590 H 0.91215 0.71867 0.77304 0.0
H591 H 0.84182 0.64774 0.95717 0.0
H592 H 0.76167 0.561 0.95497 0.0
H593 H 0.7668 0.62662 0.94602 0.0
loop_
_geom_bond_atom_site_label_1
_geom_bond_atom_site_label_2
_geom_bond_distance
_geom_bond_site_symmetry_2
_ccdc_geom_bond_type
C0 C2 1.422 . S
C0 C4 1.415 . S
C0 N6 1.369 1_665 S
C1 C2 1.421 . S
C1 C3 1.417 . S
C1 C13 1.422 . S
C2 C0 1.422 . S
C2 C1 1.421 . S
C2 N12 1.359 . S
C3 C1 1.417 . S
C3 C5 1.329 . S
C3 H22 0.930 . S
C4 C0 1.415 . S
C4 C5 1.437 . S
C4 C8 1.413 1_665 S
C5 C3 1.329 . S
C5 C4 1.437 . S
C5 H27 0.929 . S
N6 C0 1.369 1_445 S
N6 C7 1.338 . S
N6 Gd11 2.622 1_455 S
C7 N6 1.338 . S
C7 C9 1.378 . S
C7 H19 0.929 . S
C8 C4 1.413 1_445 S
C8 C9 1.348 . S
C8 H24 0.931 1_545 S
C9 C7 1.378 . S
C9 C8 1.348 . S
C9 H25 0.930 . S
Gd10 N30 2.622 . S
Gd10 N37 2.570 1_565 S
Gd10 O44 2.353 1_454 S
Gd10 O45 2.468 . S
Gd10 O46 2.427 . S
Gd10 O48 2.388 1_455 S
Gd10 O49 2.386 1_565 S
Gd10 O53 2.307 1_564 S
Gd10 C63 2.805 . S
Gd11 N6 2.622 1_655 S
Gd11 N12 2.570 1_545 S
Gd11 O43 2.386 1_545 S
Gd11 O47 2.307 1_546 S
Gd11 O50 2.353 1_656 S
Gd11 O51 2.468 . S
Gd11 O52 2.427 1_655 S
Gd11 O54 2.388 1_655 S
Gd11 C75 2.805 . S
N12 C2 1.359 . S
N12 Gd11 2.570 1_565 S
N12 C14 1.343 . S
C13 C1 1.422 . S
C13 C15 1.321 . S
C13 H21 0.931 . S
C14 N12 1.343 . S
C14 C15 1.390 . S
C14 H16 0.931 . S
C15 C13 1.321 . S
C15 C14 1.390 . S
C15 H17 0.930 . S
H16 C14 0.931 . S
H17 C15 0.930 . S
H18 C41 0.931 . S
H19 C7 0.929 . S
H20 C42 0.930 . S
H21 C13 0.931 . S
H22 C3 0.930 . S
H23 C32 0.929 . S
H24 C8 0.931 1_565 S
H25 C9 0.930 . S
H26 C64 0.930 . S
H27 C5 0.929 . S
H28 C33 0.931 . S
H29 C34 0.930 . S
N30 Gd10 2.622 . S
N30 C31 1.369 1_565 S
N30 C32 1.338 1_455 S
C31 N30 1.369 1_545 S
C31 C35 1.415 . S
C31 C38 1.422 . S
C32 H23 0.929 . S
C32 N30 1.338 1_655 S
C32 C34 1.378 . S
C33 H28 0.931 . S
C33 C34 1.348 1_545 S
C33 C35 1.413 1_655 S
C34 H29 0.930 . S
C34 C32 1.378 . S
C34 C33 1.348 1_565 S
C35 C31 1.415 . S
C35 C33 1.413 1_455 S
C35 C65 1.437 . S
H36 C65 0.929 . S
N37 Gd10 2.570 1_545 S
N37 C38 1.359 . S
N37 C41 1.343 . S
C38 C31 1.422 . S
C38 N37 1.359 . S
C38 C40 1.421 . S
C39 C40 1.422 . S
C39 C42 1.321 . S
C39 H66 0.931 . S
C40 C38 1.421 . S
C40 C39 1.422 . S
C40 C64 1.417 . S
C41 H18 0.931 . S
C41 N37 1.343 . S
C41 C42 1.390 . S
C42 H20 0.930 . S
C42 C39 1.321 . S
C42 C41 1.390 . S
O43 Gd11 2.386 1_565 S
O43 C55 1.265 . S
O44 Gd10 2.353 1_656 S
O44 C55 1.242 . S
O45 Gd10 2.468 . S
O45 C63 1.263 . S
O46 Gd10 2.427 . S
O46 C63 1.252 . S
O47 Gd11 2.307 1_564 S
O47 C56 1.261 . S
O48 Gd10 2.388 1_655 S
O48 C56 1.252 . S
O49 Gd10 2.386 1_545 S
O49 C67 1.265 . S
O50 Gd11 2.353 1_454 S
O50 C67 1.242 . S
O51 Gd11 2.468 . S
O51 C75 1.263 . S
O52 Gd11 2.427 1_455 S
O52 C75 1.252 1_455 S
O53 Gd10 2.307 1_546 S
O53 C68 1.261 . S
O54 Gd11 2.388 1_455 S
O54 C68 1.252 . S
C55 O43 1.265 . S
C55 O44 1.242 . S
C56 O47 1.261 . S
C56 O48 1.252 . S
C57 C60 1.394 . S
C57 C62 1.370 . S
C57 C63 1.500 . S
C58 C61 1.383 . S
C58 C62 1.395 . S
C59 C60 1.396 . S
C59 C61 1.365 . S
C59 H76 0.929 . S
C60 C57 1.394 . S
C60 C59 1.396 . S
C60 H77 0.930 1_455 S
C61 C58 1.383 . S
C61 C59 1.365 . S
C61 H78 0.931 . S
C62 C57 1.370 . S
C62 C58 1.395 . S
C62 H79 0.930 . S
C63 Gd10 2.805 . S
C63 O45 1.263 . S
C63 O46 1.252 . S
C63 C57 1.500 . S
C64 H26 0.930 . S
C64 C40 1.417 . S
C64 C65 1.329 . S
C65 C35 1.437 . S
C65 H36 0.929 . S
C65 C64 1.329 . S
H66 C39 0.931 . S
C67 O49 1.265 . S
C67 O50 1.242 . S
C68 O53 1.261 . S
C68 O54 1.252 . S
C69 C72 1.394 . S
C69 C74 1.370 . S
C69 C75 1.500 . S
C70 C73 1.383 . S
C70 C74 1.395 . S
C71 C72 1.396 . S
C71 C73 1.365 . S
C71 H80 0.929 1_655 S
C72 C69 1.394 . S
C72 C71 1.396 . S
C72 H81 0.930 1_655 S
C73 C70 1.383 . S
C73 C71 1.365 . S
C73 H82 0.931 . S
C74 C69 1.370 . S
C74 C70 1.395 . S
C74 H83 0.930 . S
C75 Gd11 2.805 . S
C75 O51 1.263 . S
C75 O52 1.252 1_655 S
C75 C69 1.500 . S
H76 C59 0.929 . S
H77 C60 0.930 1_655 S
H78 C61 0.931 . S
H79 C62 0.930 . S
H80 C71 0.929 1_455 S
H81 C72 0.930 1_455 S
H82 C73 0.931 . S
H83 C74 0.930 . S
C84 C86 1.422 . S
C84 C88 1.415 . S
C84 N90 1.369 . S
C85 C86 1.421 . S
C85 C87 1.417 . S
C85 C97 1.422 . S
C86 C84 1.422 . S
C86 C85 1.421 . S
C86 N96 1.359 . S
C87 C85 1.417 . S
C87 C89 1.329 . S
C87 H106 0.930 . S
C88 C84 1.415 . S
C88 C89 1.437 . S
C88 C92 1.413 . S
C89 C87 1.329 . S
C89 C88 1.437 . S
C89 H111 0.929 . S
N90 C84 1.369 . S
N90 C91 1.338 1_445 S
N90 Gd95 2.622 1_455 S
C91 N90 1.338 1_665 S
C91 C93 1.378 . S
C91 H103 0.929 . S
C92 C88 1.413 . S
C92 C93 1.348 1_445 S
C92 H108 0.936 . S
C93 C91 1.378 . S
C93 C92 1.348 1_665 S
C93 H109 0.930 . S
Gd94 N114 2.622 1_565 S
Gd94 N121 2.570 1_455 S
Gd94 O128 2.353 1_565 S
Gd94 O129 2.468 . S
Gd94 O130 2.427 1_565 S
Gd94 O132 2.388 1_565 S
Gd94 O133 2.386 1_455 S
Gd94 O137 2.307 1_455 S
Gd94 C147 2.805 . S
Gd95 N90 2.622 1_655 S
Gd95 N96 2.570 1_655 S
Gd95 O127 2.386 1_655 S
Gd95 O131 2.307 1_655 S
Gd95 O134 2.353 1_545 S
Gd95 O135 2.468 . S
Gd95 O136 2.427 . S
Gd95 O138 2.388 1_545 S
Gd95 C159 2.805 . S
N96 C86 1.359 . S
N96 Gd95 2.570 1_455 S
N96 C98 1.343 . S
C97 C85 1.422 . S
C97 C99 1.321 . S
C97 H105 0.931 . S
C98 N96 1.343 . S
C98 C99 1.390 . S
C98 H100 0.931 . S
C99 C97 1.321 . S
C99 C98 1.390 . S
C99 H101 0.930 . S
H100 C98 0.931 . S
H101 C99 0.930 . S
H102 C125 0.931 . S
H103 C91 0.929 . S
H104 C126 0.930 . S
H105 C97 0.931 . S
H106 C87 0.930 . S
H107 C116 0.929 . S
H108 C92 0.936 . S
H109 C93 0.930 . S
H110 C148 0.930 . S
H111 C89 0.929 . S
H112 C117 0.931 . S
H113 C118 0.930 . S
N114 Gd94 2.622 1_545 S
N114 C115 1.369 1_445 S
N114 C116 1.338 . S
C115 N114 1.369 1_665 S
C115 C119 1.415 . S
C115 C122 1.422 . S
C116 H107 0.929 . S
C116 N114 1.338 . S
C116 C118 1.378 . S
C117 H112 0.931 . S
C117 C118 1.348 . S
C117 C119 1.413 1_445 S
C118 H113 0.930 . S
C118 C116 1.378 . S
C118 C117 1.348 . S
C119 C115 1.415 . S
C119 C117 1.413 1_665 S
C119 C149 1.437 . S
H120 C149 0.929 . S
N121 Gd94 2.570 1_655 S
N121 C122 1.359 . S
N121 C125 1.343 . S
C122 C115 1.422 . S
C122 N121 1.359 . S
C122 C124 1.421 . S
C123 C124 1.422 . S
C123 C126 1.321 . S
C123 H150 0.931 . S
C124 C122 1.421 . S
C124 C123 1.422 . S
C124 C148 1.417 . S
C125 H102 0.931 . S
C125 N121 1.343 . S
C125 C126 1.390 . S
C126 H104 0.930 . S
C126 C123 1.321 . S
C126 C125 1.390 . S
O127 Gd95 2.386 1_455 S
O127 C139 1.265 . S
O128 Gd94 2.353 1_545 S
O128 C139 1.242 . S
O129 Gd94 2.468 . S
O129 C147 1.263 . S
O130 Gd94 2.427 1_545 S
O130 C147 1.252 1_545 S
O131 Gd95 2.307 1_455 S
O131 C140 1.261 . S
O132 Gd94 2.388 1_545 S
O132 C140 1.252 . S
O133 Gd94 2.386 1_655 S
O133 C151 1.265 . S
O134 Gd95 2.353 1_565 S
O134 C151 1.242 . S
O135 Gd95 2.468 . S
O135 C159 1.263 . S
O136 Gd95 2.427 . S
O136 C159 1.252 . S
O137 Gd94 2.307 1_655 S
O137 C152 1.261 . S
O138 Gd95 2.388 1_565 S
O138 C152 1.252 . S
C139 O127 1.265 . S
C139 O128 1.242 . S
C140 O131 1.261 . S
C140 O132 1.252 . S
C141 C144 1.394 . S
C141 C146 1.370 . S
C141 C147 1.500 . S
C142 C145 1.383 . S
C142 C146 1.395 . S
C143 C144 1.396 . S
C143 C145 1.365 . S
C143 H160 0.929 1_565 S
C144 C141 1.394 . S
C144 C143 1.396 . S
C144 H161 0.930 1_565 S
C145 C142 1.383 . S
C145 C143 1.365 . S
C145 H162 0.931 . S
C146 C141 1.370 . S
C146 C142 1.395 . S
C146 H163 0.930 . S
C147 Gd94 2.805 . S
C147 O129 1.263 . S
C147 O130 1.252 1_565 S
C147 C141 1.500 . S
C148 H110 0.930 . S
C148 C124 1.417 . S
C148 C149 1.329 . S
C149 C119 1.437 . S
C149 H120 0.929 . S
C149 C148 1.329 . S
H150 C123 0.931 . S
C151 O133 1.265 . S
C151 O134 1.242 . S
C152 O137 1.261 . S
C152 O138 1.252 . S
C153 C156 1.394 . S
C153 C158 1.370 . S
C153 C159 1.500 . S
C154 C157 1.383 . S
C154 C158 1.395 . S
C155 C156 1.396 . S
C155 C157 1.365 . S
C155 H164 0.929 . S
C156 C153 1.394 . S
C156 C155 1.396 . S
C156 H165 0.930 . S
C157 C154 1.383 . S
C157 C155 1.365 . S
C157 H166 0.931 . S
C158 C153 1.370 . S
C158 C154 1.395 . S
C158 H167 0.930 . S
C159 Gd95 2.805 . S
C159 O135 1.263 . S
C159 O136 1.252 . S
C159 C153 1.500 . S
H160 C143 0.929 1_545 S
H161 C144 0.930 1_545 S
H162 C145 0.931 . S
H163 C146 0.930 . S
H164 C155 0.929 . S
H165 C156 0.930 . S
H166 C157 0.931 . S
H167 C158 0.930 . S
Zn168 O174 1.920 . S
Zn168 O180 1.898 . S
Zn168 O183 1.905 . S
Zn169 O177 1.905 . S
Zn169 O178 1.898 . S
Zn169 O186 1.920 . S
Zn170 O173 2.080 . S
Zn170 O176 2.114 . S
Zn170 O179 2.120 . S
Zn170 O181 2.120 . S
Zn170 O182 2.114 . S
Zn170 O185 2.080 . S
C171 O176 1.166 . S
C171 O177 1.182 . S
C172 O178 1.167 . S
C172 O179 1.299 . S
O173 Zn170 2.080 . S
O173 C187 1.305 . S
O174 Zn168 1.920 . S
O174 C187 1.234 . S
C175 O180 1.167 . S
C175 O181 1.299 . S
O176 Zn170 2.114 . S
O176 C171 1.166 . S
O177 Zn169 1.905 . S
O177 C171 1.182 . S
O178 Zn169 1.898 . S
O178 C172 1.167 . S
O179 Zn170 2.120 . S
O179 C172 1.299 . S
O180 Zn168 1.898 . S
O180 C175 1.167 . S
O181 Zn170 2.120 . S
O181 C175 1.299 . S
O182 Zn170 2.114 . S
O182 C184 1.166 . S
O183 Zn168 1.905 . S
O183 C184 1.182 . S
C184 O182 1.166 . S
C184 O183 1.182 . S
O185 Zn170 2.080 . S
O185 C188 1.305 . S
O186 Zn169 1.920 . S
O186 C188 1.234 . S
C187 O173 1.305 . S
C187 O174 1.234 . S
C188 O185 1.305 . S
C188 O186 1.234 . S
Zn189 O195 1.920 . S
Zn189 O201 1.898 . S
Zn189 O204 1.905 . S
Zn190 O198 1.905 . S
Zn190 O199 1.898 . S
Zn190 O207 1.920 . S
Zn191 O194 2.080 . S
Zn191 O197 2.114 . S
Zn191 O200 2.120 . S
Zn191 O202 2.120 . S
Zn191 O203 2.114 . S
Zn191 O206 2.080 . S
C192 O197 1.166 . S
C192 O198 1.182 . S
C193 O199 1.167 . S
C193 O200 1.299 . S
O194 Zn191 2.080 . S
O194 C208 1.305 . S
O195 Zn189 1.920 . S
O195 C208 1.234 . S
C196 O201 1.167 . S
C196 O202 1.299 . S
O197 Zn191 2.114 . S
O197 C192 1.166 . S
O198 Zn190 1.905 . S
O198 C192 1.182 . S
O199 Zn190 1.898 . S
O199 C193 1.167 . S
O200 Zn191 2.120 . S
O200 C193 1.299 . S
O201 Zn189 1.898 . S
O201 C196 1.167 . S
O202 Zn191 2.120 . S
O202 C196 1.299 . S
O203 Zn191 2.114 . S
O203 C205 1.166 . S
O204 Zn189 1.905 . S
O204 C205 1.182 . S
C205 O203 1.166 . S
C205 O204 1.182 . S
O206 Zn191 2.080 . S
O206 C209 1.305 . S
O207 Zn190 1.920 . S
O207 C209 1.234 . S
C208 O194 1.305 . S
C208 O195 1.234 . S
C209 O206 1.305 . S
C209 O207 1.234 . S
C210 C211 1.391 . S
C210 C212 1.394 . S
C210 H226 0.931 . S
C211 C210 1.391 . S
C211 C215 1.376 . S
C212 C210 1.394 . S
C212 C213 1.369 . S
C212 C216 1.531 . S
C213 C212 1.369 . S
C213 C214 1.410 . S
C213 C221 1.503 . S
C214 C213 1.410 . S
C214 C215 1.392 . S
C214 C217 1.511 . S
C215 C211 1.376 . S
C215 C214 1.392 . S
C215 H227 0.929 . S
C216 C212 1.531 . S
C216 H228 0.960 . S
C216 H229 0.962 . S
C216 H230 0.960 . S
C217 C214 1.511 . S
C217 H231 0.961 . S
C217 H232 0.961 . S
C217 H233 0.961 . S
C218 C219 1.370 . S
C218 C220 1.363 . S
C218 H234 0.931 . S
C219 C218 1.370 . S
C219 C223 1.408 . S
C220 C218 1.363 . S
C220 C221 1.370 . S
C220 C224 1.524 . S
C221 C213 1.503 . S
C221 C220 1.370 . S
C221 C222 1.403 . S
C222 C221 1.403 . S
C222 C223 1.404 . S
C222 C225 1.539 . S
C223 C219 1.408 . S
C223 C222 1.404 . S
C223 H235 0.930 . S
C224 C220 1.524 . S
C224 H236 0.956 . S
C224 H237 0.961 . S
C224 H238 0.961 . S
C225 C222 1.539 . S
C225 H239 0.958 . S
C225 H240 0.961 . S
C225 H241 0.960 . S
H226 C210 0.931 . S
H227 C215 0.929 . S
H228 C216 0.960 . S
H229 C216 0.962 . S
H230 C216 0.960 . S
H231 C217 0.961 . S
H232 C217 0.961 . S
H233 C217 0.961 . S
H234 C218 0.931 . S
H235 C223 0.930 . S
H236 C224 0.956 . S
H237 C224 0.961 . S
H238 C224 0.961 . S
H239 C225 0.958 . S
H240 C225 0.961 . S
H241 C225 0.960 . S
C242 C243 1.391 . S
C242 C244 1.394 . S
C242 H258 0.931 . S
C243 C242 1.391 . S
C243 C247 1.376 . S
C244 C242 1.394 . S
C244 C245 1.369 . S
C244 C248 1.531 . S
C245 C244 1.369 . S
C245 C246 1.410 . S
C245 C253 1.503 . S
C246 C245 1.410 . S
C246 C247 1.392 . S
C246 C249 1.511 . S
C247 C243 1.376 . S
C247 C246 1.392 . S
C247 H259 0.929 . S
C248 C244 1.531 . S
C248 H260 0.960 . S
C248 H261 0.962 . S
C248 H262 0.960 . S
C249 C246 1.511 . S
C249 H263 0.961 . S
C249 H264 0.961 . S
C249 H265 0.961 . S
C250 C251 1.370 . S
C250 C252 1.363 . S
C250 H266 0.931 . S
C251 C250 1.370 . S
C251 C255 1.408 . S
C252 C250 1.363 . S
C252 C253 1.370 . S
C252 C256 1.524 . S
C253 C245 1.503 . S
C253 C252 1.370 . S
C253 C254 1.403 . S
C254 C253 1.403 . S
C254 C255 1.404 . S
C254 C257 1.539 . S
C255 C251 1.408 . S
C255 C254 1.404 . S
C255 H267 0.930 . S
C256 C252 1.524 . S
C256 H268 0.956 . S
C256 H269 0.961 . S
C256 H270 0.961 . S
C257 C254 1.539 . S
C257 H271 0.958 . S
C257 H272 0.961 . S
C257 H273 0.960 . S
H258 C242 0.931 . S
H259 C247 0.929 . S
H260 C248 0.960 . S
H261 C248 0.962 . S
H262 C248 0.960 . S
H263 C249 0.961 . S
H264 C249 0.961 . S
H265 C249 0.961 . S
H266 C250 0.931 . S
H267 C255 0.930 . S
H268 C256 0.956 . S
H269 C256 0.961 . S
H270 C256 0.961 . S
H271 C257 0.958 . S
H272 C257 0.961 . S
H273 C257 0.960 . S
C274 C275 1.391 . S
C274 C276 1.394 . S
C274 H290 0.931 . S
C275 C274 1.391 . S
C275 C279 1.376 . S
C276 C274 1.394 . S
C276 C277 1.369 . S
C276 C280 1.531 . S
C277 C276 1.369 . S
C277 C278 1.410 . S
C277 C285 1.503 . S
C278 C277 1.410 . S
C278 C279 1.392 . S
C278 C281 1.511 . S
C279 C275 1.376 . S
C279 C278 1.392 . S
C279 H291 0.929 . S
C280 C276 1.531 . S
C280 H292 0.960 . S
C280 H293 0.962 . S
C280 H294 0.960 . S
C281 C278 1.511 . S
C281 H295 0.961 . S
C281 H296 0.961 . S
C281 H297 0.961 . S
C282 C283 1.370 . S
C282 C284 1.363 . S
C282 H298 0.931 . S
C283 C282 1.370 . S
C283 C287 1.408 . S
C284 C282 1.363 . S
C284 C285 1.370 . S
C284 C288 1.524 . S
C285 C277 1.503 . S
C285 C284 1.370 . S
C285 C286 1.403 . S
C286 C285 1.403 . S
C286 C287 1.404 . S
C286 C289 1.539 . S
C287 C283 1.408 . S
C287 C286 1.404 . S
C287 H299 0.930 . S
C288 C284 1.524 . S
C288 H300 0.956 . S
C288 H301 0.961 . S
C288 H302 0.961 . S
C289 C286 1.539 . S
C289 H303 0.958 . S
C289 H304 0.961 . S
C289 H305 0.960 . S
H290 C274 0.931 . S
H291 C279 0.929 . S
H292 C280 0.960 . S
H293 C280 0.962 . S
H294 C280 0.960 . S
H295 C281 0.961 . S
H296 C281 0.961 . S
H297 C281 0.961 . S
H298 C282 0.931 . S
H299 C287 0.930 . S
H300 C288 0.956 . S
H301 C288 0.961 . S
H302 C288 0.961 . S
H303 C289 0.958 . S
H304 C289 0.961 . S
H305 C289 0.960 . S
C306 C307 1.391 . S
C306 C308 1.394 . S
C306 H322 0.931 . S
C307 C306 1.391 . S
C307 C311 1.376 . S
C308 C306 1.394 . S
C308 C309 1.369 . S
C308 C312 1.531 . S
C309 C308 1.369 . S
C309 C310 1.410 . S
C309 C317 1.503 . S
C310 C309 1.410 . S
C310 C311 1.392 . S
C310 C313 1.511 . S
C311 C307 1.376 . S
C311 C310 1.392 . S
C311 H323 0.929 . S
C312 C308 1.531 . S
C312 H324 0.960 . S
C312 H325 0.962 . S
C312 H326 0.960 . S
C313 C310 1.511 . S
C313 H327 0.961 . S
C313 H328 0.961 . S
C313 H329 0.961 . S
C314 C315 1.370 . S
C314 C316 1.363 . S
C314 H330 0.931 . S
C315 C314 1.370 . S
C315 C319 1.408 . S
C316 C314 1.363 . S
C316 C317 1.370 . S
C316 C320 1.524 . S
C317 C309 1.503 . S
C317 C316 1.370 . S
C317 C318 1.403 . S
C318 C317 1.403 . S
C318 C319 1.404 . S
C318 C321 1.539 . S
C319 C315 1.408 . S
C319 C318 1.404 . S
C319 H331 0.930 . S
C320 C316 1.524 . S
C320 H332 0.956 . S
C320 H333 0.961 . S
C320 H334 0.961 . S
C321 C318 1.539 . S
C321 H335 0.958 . S
C321 H336 0.961 . S
C321 H337 0.960 . S
H322 C306 0.931 . S
H323 C311 0.929 . S
H324 C312 0.960 . S
H325 C312 0.962 . S
H326 C312 0.960 . S
H327 C313 0.961 . S
H328 C313 0.961 . S
H329 C313 0.961 . S
H330 C314 0.931 . S
H331 C319 0.930 . S
H332 C320 0.956 . S
H333 C320 0.961 . S
H334 C320 0.961 . S
H335 C321 0.958 . S
H336 C321 0.961 . S
H337 C321 0.960 . S
C338 C339 1.391 . S
C338 C340 1.394 . S
C338 H354 0.931 . S
C339 C338 1.391 . S
C339 C343 1.376 . S
C340 C338 1.394 . S
C340 C341 1.369 . S
C340 C344 1.531 . S
C341 C340 1.369 . S
C341 C342 1.410 . S
C341 C349 1.503 . S
C342 C341 1.410 . S
C342 C343 1.392 . S
C342 C345 1.511 . S
C343 C339 1.376 . S
C343 C342 1.392 . S
C343 H355 0.929 . S
C344 C340 1.531 . S
C344 H356 0.960 . S
C344 H357 0.962 . S
C344 H358 0.960 . S
C345 C342 1.511 . S
C345 H359 0.961 . S
C345 H360 0.961 . S
C345 H361 0.961 . S
C346 C347 1.370 . S
C346 C348 1.363 . S
C346 H362 0.931 . S
C347 C346 1.370 . S
C347 C351 1.408 . S
C348 C346 1.363 . S
C348 C349 1.370 . S
C348 C352 1.524 . S
C349 C341 1.503 . S
C349 C348 1.370 . S
C349 C350 1.403 . S
C350 C349 1.403 . S
C350 C351 1.404 . S
C350 C353 1.539 . S
C351 C347 1.408 . S
C351 C350 1.404 . S
C351 H363 0.930 . S
C352 C348 1.524 . S
C352 H364 0.956 . S
C352 H365 0.961 . S
C352 H366 0.961 . S
C353 C350 1.539 . S
C353 H367 0.958 . S
C353 H368 0.961 . S
C353 H369 0.960 . S
H354 C338 0.931 . S
H355 C343 0.929 . S
H356 C344 0.960 . S
H357 C344 0.962 . S
H358 C344 0.960 . S
H359 C345 0.961 . S
H360 C345 0.961 . S
H361 C345 0.961 . S
H362 C346 0.931 . S
H363 C351 0.930 . S
H364 C352 0.956 . S
H365 C352 0.961 . S
H366 C352 0.961 . S
H367 C353 0.958 . S
H368 C353 0.961 . S
H369 C353 0.960 . S
C370 C371 1.391 . S
C370 C372 1.394 . S
C370 H386 0.931 . S
C371 C370 1.391 . S
C371 C375 1.376 . S
C372 C370 1.394 . S
C372 C373 1.369 . S
C372 C376 1.531 . S
C373 C372 1.369 . S
C373 C374 1.410 . S
C373 C381 1.503 . S
C374 C373 1.410 . S
C374 C375 1.392 . S
C374 C377 1.511 . S
C375 C371 1.376 . S
C375 C374 1.392 . S
C375 H387 0.929 . S
C376 C372 1.531 . S
C376 H388 0.960 . S
C376 H389 0.962 . S
C376 H390 0.960 . S
C377 C374 1.511 . S
C377 H391 0.961 . S
C377 H392 0.961 . S
C377 H393 0.961 . S
C378 C379 1.370 . S
C378 C380 1.363 . S
C378 H394 0.931 . S
C379 C378 1.370 . S
C379 C383 1.408 . S
C380 C378 1.363 . S
C380 C381 1.370 . S
C380 C384 1.524 . S
C381 C373 1.503 . S
C381 C380 1.370 . S
C381 C382 1.403 . S
C382 C381 1.403 . S
C382 C383 1.404 . S
C382 C385 1.539 . S
C383 C379 1.408 . S
C383 C382 1.404 . S
C383 H395 0.930 . S
C384 C380 1.524 . S
C384 H396 0.956 . S
C384 H397 0.961 . S
C384 H398 0.961 . S
C385 C382 1.539 . S
C385 H399 0.958 . S
C385 H400 0.961 . S
C385 H401 0.960 . S
H386 C370 0.931 . S
H387 C375 0.929 . S
H388 C376 0.960 . S
H389 C376 0.962 . S
H390 C376 0.960 . S
H391 C377 0.961 . S
H392 C377 0.961 . S
H393 C377 0.961 . S
H394 C378 0.931 . S
H395 C383 0.930 . S
H396 C384 0.956 . S
H397 C384 0.961 . S
H398 C384 0.961 . S
H399 C385 0.958 . S
H400 C385 0.961 . S
H401 C385 0.960 . S
C402 C403 1.391 . S
C402 C404 1.394 . S
C402 H418 0.931 . S
C403 C402 1.391 . S
C403 C407 1.376 . S
C404 C402 1.394 . S
C404 C405 1.369 . S
C404 C408 1.531 . S
C405 C404 1.369 . S
C405 C406 1.410 . S
C405 C413 1.503 . S
C406 C405 1.410 . S
C406 C407 1.392 . S
C406 C409 1.511 . S
C407 C403 1.376 . S
C407 C406 1.392 . S
C407 H419 0.929 . S
C408 C404 1.531 . S
C408 H420 0.960 . S
C408 H421 0.962 . S
C408 H422 0.960 . S
C409 C406 1.511 . S
C409 H423 0.961 . S
C409 H424 0.961 . S
C409 H425 0.961 . S
C410 C411 1.370 . S
C410 C412 1.363 . S
C410 H426 0.931 . S
C411 C410 1.370 . S
C411 C415 1.408 . S
C412 C410 1.363 . S
C412 C413 1.370 . S
C412 C416 1.524 . S
C413 C405 1.503 . S
C413 C412 1.370 . S
C413 C414 1.403 . S
C414 C413 1.403 . S
C414 C415 1.404 . S
C414 C417 1.539 . S
C415 C411 1.408 . S
C415 C414 1.404 . S
C415 H427 0.930 . S
C416 C412 1.524 . S
C416 H428 0.956 . S
C416 H429 0.961 . S
C416 H430 0.961 . S
C417 C414 1.539 . S
C417 H431 0.958 . S
C417 H432 0.961 . S
C417 H433 0.960 . S
H418 C402 0.931 . S
H419 C407 0.929 . S
H420 C408 0.960 . S
H421 C408 0.962 . S
H422 C408 0.960 . S
H423 C409 0.961 . S
H424 C409 0.961 . S
H425 C409 0.961 . S
H426 C410 0.931 . S
H427 C415 0.930 . S
H428 C416 0.956 . S
H429 C416 0.961 . S
H430 C416 0.961 . S
H431 C417 0.958 . S
H432 C417 0.961 . S
H433 C417 0.960 . S
C434 C435 1.391 . S
C434 C436 1.394 . S
C434 H450 0.931 . S
C435 C434 1.391 . S
C435 C439 1.376 . S
C436 C434 1.394 . S
C436 C437 1.369 . S
C436 C440 1.531 . S
C437 C436 1.369 . S
C437 C438 1.410 . S
C437 C445 1.503 . S
C438 C437 1.410 . S
C438 C439 1.392 . S
C438 C441 1.511 . S
C439 C435 1.376 . S
C439 C438 1.392 . S
C439 H451 0.929 . S
C440 C436 1.531 . S
C440 H452 0.960 . S
C440 H453 0.962 . S
C440 H454 0.960 . S
C441 C438 1.511 . S
C441 H455 0.961 . S
C441 H456 0.961 . S
C441 H457 0.961 . S
C442 C443 1.370 . S
C442 C444 1.363 . S
C442 H458 0.931 . S
C443 C442 1.370 . S
C443 C447 1.408 . S
C444 C442 1.363 . S
C444 C445 1.370 . S
C444 C448 1.524 . S
C445 C437 1.503 . S
C445 C444 1.370 . S
C445 C446 1.403 . S
C446 C445 1.403 . S
C446 C447 1.404 . S
C446 C449 1.539 . S
C447 C443 1.408 . S
C447 C446 1.404 . S
C447 H459 0.930 . S
C448 C444 1.524 . S
C448 H460 0.956 . S
C448 H461 0.961 . S
C448 H462 0.961 . S
C449 C446 1.539 . S
C449 H463 0.958 . S
C449 H464 0.961 . S
C449 H465 0.960 . S
H450 C434 0.931 . S
H451 C439 0.929 . S
H452 C440 0.960 . S
H453 C440 0.962 . S
H454 C440 0.960 . S
H455 C441 0.961 . S
H456 C441 0.961 . S
H457 C441 0.961 . S
H458 C442 0.931 . S
H459 C447 0.930 . S
H460 C448 0.956 . S
H461 C448 0.961 . S
H462 C448 0.961 . S
H463 C449 0.958 . S
H464 C449 0.961 . S
H465 C449 0.960 . S
C466 C467 1.391 . S
C466 C468 1.394 . S
C466 H482 0.931 . S
C467 C466 1.391 . S
C467 C471 1.376 . S
C468 C466 1.394 . S
C468 C469 1.369 . S
C468 C472 1.531 . S
C469 C468 1.369 . S
C469 C470 1.410 . S
C469 C477 1.503 . S
C470 C469 1.410 . S
C470 C471 1.392 . S
C470 C473 1.511 . S
C471 C467 1.376 . S
C471 C470 1.392 . S
C471 H483 0.929 . S
C472 C468 1.531 . S
C472 H484 0.960 . S
C472 H485 0.962 . S
C472 H486 0.960 . S
C473 C470 1.511 . S
C473 H487 0.961 . S
C473 H488 0.961 . S
C473 H489 0.961 . S
C474 C475 1.370 . S
C474 C476 1.363 . S
C474 H490 0.931 . S
C475 C474 1.370 . S
C475 C479 1.408 . S
C476 C474 1.363 . S
C476 C477 1.370 . S
C476 C480 1.524 . S
C477 C469 1.503 . S
C477 C476 1.370 . S
C477 C478 1.403 . S
C478 C477 1.403 . S
C478 C479 1.404 . S
C478 C481 1.539 . S
C479 C475 1.408 . S
C479 C478 1.404 . S
C479 H491 0.930 . S
C480 C476 1.524 . S
C480 H492 0.956 . S
C480 H493 0.961 . S
C480 H494 0.961 . S
C481 C478 1.539 . S
C481 H495 0.958 . S
C481 H496 0.961 . S
C481 H497 0.960 . S
H482 C466 0.931 . S
H483 C471 0.929 . S
H484 C472 0.960 . S
H485 C472 0.962 . S
H486 C472 0.960 . S
H487 C473 0.961 . S
H488 C473 0.961 . S
H489 C473 0.961 . S
H490 C474 0.931 . S
H491 C479 0.930 . S
H492 C480 0.956 . S
H493 C480 0.961 . S
H494 C480 0.961 . S
H495 C481 0.958 . S
H496 C481 0.961 . S
H497 C481 0.960 . S
C498 C499 1.391 . S
C498 C500 1.394 . S
C498 H514 0.931 . S
C499 C498 1.391 . S
C499 C503 1.376 . S
C500 C498 1.394 . S
C500 C501 1.369 . S
C500 C504 1.531 . S
C501 C500 1.369 . S
C501 C502 1.410 . S
C501 C509 1.503 . S
C502 C501 1.410 . S
C502 C503 1.392 . S
C502 C505 1.511 . S
C503 C499 1.376 . S
C503 C502 1.392 . S
C503 H515 0.929 . S
C504 C500 1.531 . S
C504 H516 0.960 . S
C504 H517 0.962 . S
C504 H518 0.960 . S
C505 C502 1.511 . S
C505 H519 0.961 . S
C505 H520 0.961 . S
C505 H521 0.961 . S
C506 C507 1.370 . S
C506 C508 1.363 . S
C506 H522 0.931 . S
C507 C506 1.370 . S
C507 C511 1.408 . S
C508 C506 1.363 . S
C508 C509 1.370 . S
C508 C512 1.524 . S
C509 C501 1.503 . S
C509 C508 1.370 . S
C509 C510 1.403 . S
C510 C509 1.403 . S
C510 C511 1.404 . S
C510 C513 1.539 . S
C511 C507 1.408 . S
C511 C510 1.404 . S
C511 H523 0.930 . S
C512 C508 1.524 . S
C512 H524 0.956 . S
C512 H525 0.961 . S
C512 H526 0.961 . S
C513 C510 1.539 . S
C513 H527 0.958 . S
C513 H528 0.961 . S
C513 H529 0.960 . S
H514 C498 0.931 . S
H515 C503 0.929 . S
H516 C504 0.960 . S
H517 C504 0.962 . S
H518 C504 0.960 . S
H519 C505 0.961 . S
H520 C505 0.961 . S
H521 C505 0.961 . S
H522 C506 0.931 . S
H523 C511 0.930 . S
H524 C512 0.956 . S
H525 C512 0.961 . S
H526 C512 0.961 . S
H527 C513 0.958 . S
H528 C513 0.961 . S
H529 C513 0.960 . S
C530 C531 1.391 . S
C530 C532 1.394 . S
C530 H546 0.931 . S
C531 C530 1.391 . S
C531 C535 1.376 . S
C532 C530 1.394 . S
C532 C533 1.369 . S
C532 C536 1.531 . S
C533 C532 1.369 . S
C533 C534 1.410 . S
C533 C541 1.503 . S
C534 C533 1.410 . S
C534 C535 1.392 . S
C534 C537 1.511 . S
C535 C531 1.376 . S
C535 C534 1.392 . S
C535 H547 0.929 1_565 S
C536 C532 1.531 . S
C536 H548 0.960 . S
C536 H549 0.962 . S
C536 H550 0.960 . S
C537 C534 1.511 . S
C537 H551 0.962 . S
C537 H552 0.961 . S
C537 H553 0.961 . S
C538 C539 1.370 . S
C538 C540 1.363 . S
C538 H554 0.931 . S
C539 C538 1.370 . S
C539 C543 1.408 . S
C540 C538 1.363 . S
C540 C541 1.370 . S
C540 C544 1.524 . S
C541 C533 1.503 . S
C541 C540 1.370 . S
C541 C542 1.403 . S
C542 C541 1.403 . S
C542 C543 1.404 . S
C542 C545 1.539 . S
C543 C539 1.408 . S
C543 C542 1.404 . S
C543 H555 0.930 . S
C544 C540 1.524 . S
C544 H556 0.956 . S
C544 H557 0.961 . S
C544 H558 0.961 . S
C545 C542 1.539 . S
C545 H559 0.958 . S
C545 H560 0.961 . S
C545 H561 0.960 . S
H546 C530 0.931 . S
H547 C535 0.929 1_545 S
H548 C536 0.960 . S
H549 C536 0.962 . S
H550 C536 0.960 . S
H551 C537 0.962 . S
H552 C537 0.961 . S
H553 C537 0.961 . S
H554 C538 0.931 . S
H555 C543 0.930 . S
H556 C544 0.956 . S
H557 C544 0.961 . S
H558 C544 0.961 . S
H559 C545 0.958 . S
H560 C545 0.961 . S
H561 C545 0.960 . S
C562 C563 1.391 . S
C562 C564 1.394 . S
C562 H578 0.925 1_655 S
C563 C562 1.391 . S
C563 C567 1.376 . S
C564 C562 1.394 . S
C564 C565 1.369 . S
C564 C568 1.531 . S
C565 C564 1.369 . S
C565 C566 1.410 . S
C565 C573 1.503 . S
C566 C565 1.410 . S
C566 C567 1.392 . S
C566 C569 1.511 . S
C567 C563 1.376 . S
C567 C566 1.392 . S
C567 H579 0.929 . S
C568 C564 1.531 . S
C568 H580 0.960 . S
C568 H581 0.963 . S
C568 H582 0.960 1_655 S
C569 C566 1.511 . S
C569 H583 0.961 . S
C569 H584 0.961 . S
C569 H585 0.961 . S
C570 C571 1.370 . S
C570 C572 1.363 . S
C570 H586 0.931 . S
C571 C570 1.370 . S
C571 C575 1.408 . S
C572 C570 1.363 . S
C572 C573 1.370 . S
C572 C576 1.524 . S
C573 C565 1.503 . S
C573 C572 1.370 . S
C573 C574 1.403 . S
C574 C573 1.403 . S
C574 C575 1.404 . S
C574 C577 1.539 . S
C575 C571 1.408 . S
C575 C574 1.404 . S
C575 H587 0.930 . S
C576 C572 1.524 . S
C576 H588 0.956 . S
C576 H589 0.961 . S
C576 H590 0.961 . S
C577 C574 1.539 . S
C577 H591 0.958 . S
C577 H592 0.961 . S
C577 H593 0.960 . S
H578 C562 0.925 1_455 S
H579 C567 0.929 . S
H580 C568 0.960 . S
H581 C568 0.963 . S
H582 C568 0.960 1_455 S
H583 C569 0.961 . S
H584 C569 0.961 . S
H585 C569 0.961 . S
H586 C570 0.931 . S
H587 C575 0.930 . S
H588 C576 0.956 . S
H589 C576 0.961 . S
H590 C576 0.961 . S
H591 C577 0.958 . S
H592 C577 0.961 . S
H593 C577 0.960 . S
C211 C58 1.239 . S
C219 C187 1.248 . S
C243 C139 1.555 . S
C251 C193 1.380 . S
C275 C67 1.622 . S
C283 C184 1.464 . S
C307 C154 1.231 . S
C315 C209 1.257 . S
C339 C56 1.583 . S
C347 C175 1.443 . S
C379 C192 1.545 . S
C371 C152 1.623 . S
C403 C142 1.120 . S
C411 C188 1.279 . S
C443 C205 1.511 . S
C435 C68 1.632 . S
C475 C172 1.472 . S
C467 C140 1.593 . S
C507 C208 1.262 . S
C499 C70 1.209 . S
C539 C171 1.464 . S
C531 C151 1.623 . S
C571 C196 1.380 . S
C563 C55 1.555 . S
