# Generated by pormake.
# Topology iac, (4,6)-cn, num edge types: 1
# Building blocks:
#     Node 0, Type 0, BuildingBlock: AZAVOO_clean_sbu_0, # of connection points: 4
#     Node 1, Type 0, BuildingBlock: AZAVOO_clean_sbu_0, # of connection points: 4
#     Node 2, Type 0, BuildingBlock: AZAVOO_clean_sbu_0, # of connection points: 4
#     Node 3, Type 0, BuildingBlock: AZAVOO_clean_sbu_0, # of connection points: 4
#     Node 4, Type 0, BuildingBlock: AZAVOO_clean_sbu_0, # of connection points: 4
#     Node 5, Type 0, BuildingBlock: AZAVOO_clean_sbu_0, # of connection points: 4
#     Node 6, Type 0, BuildingBlock: AZAVOO_clean_sbu_0, # of connection points: 4
#     Node 7, Type 0, BuildingBlock: AZAVOO_clean_sbu_0, # of connection points: 4
#     Node 8, Type 0, BuildingBlock: AZAVOO_clean_sbu_0, # of connection points: 4
#     Node 9, Type 0, BuildingBlock: AZAVOO_clean_sbu_0, # of connection points: 4
#     Node 10, Type 0, BuildingBlock: AZAVOO_clean_sbu_0, # of connection points: 4
#     Node 11, Type 0, BuildingBlock: AZAVOO_clean_sbu_0, # of connection points: 4
#     Node 12, Type 0, BuildingBlock: AZAVOO_clean_sbu_0, # of connection points: 4
#     Node 13, Type 0, BuildingBlock: AZAVOO_clean_sbu_0, # of connection points: 4
#     Node 14, Type 0, BuildingBlock: AZAVOO_clean_sbu_0, # of connection points: 4
#     Node 15, Type 0, BuildingBlock: AZAVOO_clean_sbu_0, # of connection points: 4
#     Node 16, Type 0, BuildingBlock: AZAVOO_clean_sbu_0, # of connection points: 4
#     Node 17, Type 0, BuildingBlock: AZAVOO_clean_sbu_0, # of connection points: 4
#     Node 18, Type 0, BuildingBlock: AZAVOO_clean_sbu_0, # of connection points: 4
#     Node 19, Type 0, BuildingBlock: AZAVOO_clean_sbu_0, # of connection points: 4
#     Node 20, Type 0, BuildingBlock: AZAVOO_clean_sbu_0, # of connection points: 4
#     Node 21, Type 0, BuildingBlock: AZAVOO_clean_sbu_0, # of connection points: 4
#     Node 22, Type 0, BuildingBlock: AZAVOO_clean_sbu_0, # of connection points: 4
#     Node 23, Type 0, BuildingBlock: AZAVOO_clean_sbu_0, # of connection points: 4
#     Node 24, Type 1, BuildingBlock: FUNLAD_clean_sbu_0, # of connection points: 6
#     Node 25, Type 1, BuildingBlock: FUNLAD_clean_sbu_0, # of connection points: 6
#     Node 26, Type 1, BuildingBlock: FUNLAD_clean_sbu_0, # of connection points: 6
#     Node 27, Type 1, BuildingBlock: FUNLAD_clean_sbu_0, # of connection points: 6
#     Node 28, Type 1, BuildingBlock: FUNLAD_clean_sbu_0, # of connection points: 6
#     Node 29, Type 1, BuildingBlock: FUNLAD_clean_sbu_0, # of connection points: 6
#     Node 30, Type 1, BuildingBlock: FUNLAD_clean_sbu_0, # of connection points: 6
#     Node 31, Type 1, BuildingBlock: FUNLAD_clean_sbu_0, # of connection points: 6
#     Node 32, Type 1, BuildingBlock: FUNLAD_clean_sbu_0, # of connection points: 6
#     Node 33, Type 1, BuildingBlock: FUNLAD_clean_sbu_0, # of connection points: 6
#     Node 34, Type 1, BuildingBlock: FUNLAD_clean_sbu_0, # of connection points: 6
#     Node 35, Type 1, BuildingBlock: FUNLAD_clean_sbu_0, # of connection points: 6
#     Node 36, Type 1, BuildingBlock: FUNLAD_clean_sbu_0, # of connection points: 6
#     Node 37, Type 1, BuildingBlock: FUNLAD_clean_sbu_0, # of connection points: 6
#     Node 38, Type 1, BuildingBlock: FUNLAD_clean_sbu_0, # of connection points: 6
#     Node 39, Type 1, BuildingBlock: FUNLAD_clean_sbu_0, # of connection points: 6
#     Edge 40, Type (0, 1), BuildingBlock: XUDNAN_clean_linker_2, # of connection points: 2
#     Edge 41, Type (0, 1), BuildingBlock: XUDNAN_clean_linker_2, # of connection points: 2
#     Edge 42, Type (0, 1), BuildingBlock: XUDNAN_clean_linker_2, # of connection points: 2
#     Edge 43, Type (0, 1), BuildingBlock: XUDNAN_clean_linker_2, # of connection points: 2
#     Edge 44, Type (0, 1), BuildingBlock: XUDNAN_clean_linker_2, # of connection points: 2
#     Edge 45, Type (0, 1), BuildingBlock: XUDNAN_clean_linker_2, # of connection points: 2
#     Edge 46, Type (0, 1), BuildingBlock: XUDNAN_clean_linker_2, # of connection points: 2
#     Edge 47, Type (0, 1), BuildingBlock: XUDNAN_clean_linker_2, # of connection points: 2
#     Edge 48, Type (0, 1), BuildingBlock: XUDNAN_clean_linker_2, # of connection points: 2
#     Edge 49, Type (0, 1), BuildingBlock: XUDNAN_clean_linker_2, # of connection points: 2
#     Edge 50, Type (0, 1), BuildingBlock: XUDNAN_clean_linker_2, # of connection points: 2
#     Edge 51, Type (0, 1), BuildingBlock: XUDNAN_clean_linker_2, # of connection points: 2
#     Edge 52, Type (0, 1), BuildingBlock: XUDNAN_clean_linker_2, # of connection points: 2
#     Edge 53, Type (0, 1), BuildingBlock: XUDNAN_clean_linker_2, # of connection points: 2
#     Edge 54, Type (0, 1), BuildingBlock: XUDNAN_clean_linker_2, # of connection points: 2
#     Edge 55, Type (0, 1), BuildingBlock: XUDNAN_clean_linker_2, # of connection points: 2
#     Edge 56, Type (0, 1), BuildingBlock: XUDNAN_clean_linker_2, # of connection points: 2
#     Edge 57, Type (0, 1), BuildingBlock: XUDNAN_clean_linker_2, # of connection points: 2
#     Edge 58, Type (0, 1), BuildingBlock: XUDNAN_clean_linker_2, # of connection points: 2
#     Edge 59, Type (0, 1), BuildingBlock: XUDNAN_clean_linker_2, # of connection points: 2
#     Edge 60, Type (0, 1), BuildingBlock: XUDNAN_clean_linker_2, # of connection points: 2
#     Edge 61, Type (0, 1), BuildingBlock: XUDNAN_clean_linker_2, # of connection points: 2
#     Edge 62, Type (0, 1), BuildingBlock: XUDNAN_clean_linker_2, # of connection points: 2
#     Edge 63, Type (0, 1), BuildingBlock: XUDNAN_clean_linker_2, # of connection points: 2
#     Edge 64, Type (0, 1), BuildingBlock: XUDNAN_clean_linker_2, # of connection points: 2
#     Edge 65, Type (0, 1), BuildingBlock: XUDNAN_clean_linker_2, # of connection points: 2
#     Edge 66, Type (0, 1), BuildingBlock: XUDNAN_clean_linker_2, # of connection points: 2
#     Edge 67, Type (0, 1), BuildingBlock: XUDNAN_clean_linker_2, # of connection points: 2
#     Edge 68, Type (0, 1), BuildingBlock: XUDNAN_clean_linker_2, # of connection points: 2
#     Edge 69, Type (0, 1), BuildingBlock: XUDNAN_clean_linker_2, # of connection points: 2
#     Edge 70, Type (0, 1), BuildingBlock: XUDNAN_clean_linker_2, # of connection points: 2
#     Edge 71, Type (0, 1), BuildingBlock: XUDNAN_clean_linker_2, # of connection points: 2
#     Edge 72, Type (0, 1), BuildingBlock: XUDNAN_clean_linker_2, # of connection points: 2
#     Edge 73, Type (0, 1), BuildingBlock: XUDNAN_clean_linker_2, # of connection points: 2
#     Edge 74, Type (0, 1), BuildingBlock: XUDNAN_clean_linker_2, # of connection points: 2
#     Edge 75, Type (0, 1), BuildingBlock: XUDNAN_clean_linker_2, # of connection points: 2
#     Edge 76, Type (0, 1), BuildingBlock: XUDNAN_clean_linker_2, # of connection points: 2
#     Edge 77, Type (0, 1), BuildingBlock: XUDNAN_clean_linker_2, # of connection points: 2
#     Edge 78, Type (0, 1), BuildingBlock: XUDNAN_clean_linker_2, # of connection points: 2
#     Edge 79, Type (0, 1), BuildingBlock: XUDNAN_clean_linker_2, # of connection points: 2
#     Edge 80, Type (0, 1), BuildingBlock: XUDNAN_clean_linker_2, # of connection points: 2
#     Edge 81, Type (0, 1), BuildingBlock: XUDNAN_clean_linker_2, # of connection points: 2
#     Edge 82, Type (0, 1), BuildingBlock: XUDNAN_clean_linker_2, # of connection points: 2
#     Edge 83, Type (0, 1), BuildingBlock: XUDNAN_clean_linker_2, # of connection points: 2
#     Edge 84, Type (0, 1), BuildingBlock: XUDNAN_clean_linker_2, # of connection points: 2
#     Edge 85, Type (0, 1), BuildingBlock: XUDNAN_clean_linker_2, # of connection points: 2
#     Edge 86, Type (0, 1), BuildingBlock: XUDNAN_clean_linker_2, # of connection points: 2
#     Edge 87, Type (0, 1), BuildingBlock: XUDNAN_clean_linker_2, # of connection points: 2
#     Edge 88, Type (0, 1), BuildingBlock: XUDNAN_clean_linker_2, # of connection points: 2
#     Edge 89, Type (0, 1), BuildingBlock: XUDNAN_clean_linker_2, # of connection points: 2
#     Edge 90, Type (0, 1), BuildingBlock: XUDNAN_clean_linker_2, # of connection points: 2
#     Edge 91, Type (0, 1), BuildingBlock: XUDNAN_clean_linker_2, # of connection points: 2
#     Edge 92, Type (0, 1), BuildingBlock: XUDNAN_clean_linker_2, # of connection points: 2
#     Edge 93, Type (0, 1), BuildingBlock: XUDNAN_clean_linker_2, # of connection points: 2
#     Edge 94, Type (0, 1), BuildingBlock: XUDNAN_clean_linker_2, # of connection points: 2
#     Edge 95, Type (0, 1), BuildingBlock: XUDNAN_clean_linker_2, # of connection points: 2
#     Edge 96, Type (0, 1), BuildingBlock: XUDNAN_clean_linker_2, # of connection points: 2
#     Edge 97, Type (0, 1), BuildingBlock: XUDNAN_clean_linker_2, # of connection points: 2
#     Edge 98, Type (0, 1), BuildingBlock: XUDNAN_clean_linker_2, # of connection points: 2
#     Edge 99, Type (0, 1), BuildingBlock: XUDNAN_clean_linker_2, # of connection points: 2
#     Edge 100, Type (0, 1), BuildingBlock: XUDNAN_clean_linker_2, # of connection points: 2
#     Edge 101, Type (0, 1), BuildingBlock: XUDNAN_clean_linker_2, # of connection points: 2
#     Edge 102, Type (0, 1), BuildingBlock: XUDNAN_clean_linker_2, # of connection points: 2
#     Edge 103, Type (0, 1), BuildingBlock: XUDNAN_clean_linker_2, # of connection points: 2
#     Edge 104, Type (0, 1), BuildingBlock: XUDNAN_clean_linker_2, # of connection points: 2
#     Edge 105, Type (0, 1), BuildingBlock: XUDNAN_clean_linker_2, # of connection points: 2
#     Edge 106, Type (0, 1), BuildingBlock: XUDNAN_clean_linker_2, # of connection points: 2
#     Edge 107, Type (0, 1), BuildingBlock: XUDNAN_clean_linker_2, # of connection points: 2
#     Edge 108, Type (0, 1), BuildingBlock: XUDNAN_clean_linker_2, # of connection points: 2
#     Edge 109, Type (0, 1), BuildingBlock: XUDNAN_clean_linker_2, # of connection points: 2
#     Edge 110, Type (0, 1), BuildingBlock: XUDNAN_clean_linker_2, # of connection points: 2
#     Edge 111, Type (0, 1), BuildingBlock: XUDNAN_clean_linker_2, # of connection points: 2
#     Edge 112, Type (0, 1), BuildingBlock: XUDNAN_clean_linker_2, # of connection points: 2
#     Edge 113, Type (0, 1), BuildingBlock: XUDNAN_clean_linker_2, # of connection points: 2
#     Edge 114, Type (0, 1), BuildingBlock: XUDNAN_clean_linker_2, # of connection points: 2
#     Edge 115, Type (0, 1), BuildingBlock: XUDNAN_clean_linker_2, # of connection points: 2
#     Edge 116, Type (0, 1), BuildingBlock: XUDNAN_clean_linker_2, # of connection points: 2
#     Edge 117, Type (0, 1), BuildingBlock: XUDNAN_clean_linker_2, # of connection points: 2
#     Edge 118, Type (0, 1), BuildingBlock: XUDNAN_clean_linker_2, # of connection points: 2
#     Edge 119, Type (0, 1), BuildingBlock: XUDNAN_clean_linker_2, # of connection points: 2
#     Edge 120, Type (0, 1), BuildingBlock: XUDNAN_clean_linker_2, # of connection points: 2
#     Edge 121, Type (0, 1), BuildingBlock: XUDNAN_clean_linker_2, # of connection points: 2
#     Edge 122, Type (0, 1), BuildingBlock: XUDNAN_clean_linker_2, # of connection points: 2
#     Edge 123, Type (0, 1), BuildingBlock: XUDNAN_clean_linker_2, # of connection points: 2
#     Edge 124, Type (0, 1), BuildingBlock: XUDNAN_clean_linker_2, # of connection points: 2
#     Edge 125, Type (0, 1), BuildingBlock: XUDNAN_clean_linker_2, # of connection points: 2
#     Edge 126, Type (0, 1), BuildingBlock: XUDNAN_clean_linker_2, # of connection points: 2
#     Edge 127, Type (0, 1), BuildingBlock: XUDNAN_clean_linker_2, # of connection points: 2
#     Edge 128, Type (0, 1), BuildingBlock: XUDNAN_clean_linker_2, # of connection points: 2
#     Edge 129, Type (0, 1), BuildingBlock: XUDNAN_clean_linker_2, # of connection points: 2
#     Edge 130, Type (0, 1), BuildingBlock: XUDNAN_clean_linker_2, # of connection points: 2
#     Edge 131, Type (0, 1), BuildingBlock: XUDNAN_clean_linker_2, # of connection points: 2
#     Edge 132, Type (0, 1), BuildingBlock: XUDNAN_clean_linker_2, # of connection points: 2
#     Edge 133, Type (0, 1), BuildingBlock: XUDNAN_clean_linker_2, # of connection points: 2
#     Edge 134, Type (0, 1), BuildingBlock: XUDNAN_clean_linker_2, # of connection points: 2
#     Edge 135, Type (0, 1), BuildingBlock: XUDNAN_clean_linker_2, # of connection points: 2
# Relax obj value: 0.361
# Max RMSD: 0.276
# Mean RMSD: 0.187
data_MOF--net-iac--node1-AZAVOO_clean_sbu_0--node2-FUNLAD_clean_sbu_0--edge1-XUDNAN_clean_linker_2
_symmetry_space_group_name_H-M    P1
_symmetry_Int_Tables_number       1
_symmetry_cell_setting            triclinic
loop_
_symmetry_equiv_pos_as_xyz
'x, y, z'
_cell_length_a     55.876853
_cell_length_b     51.618769
_cell_length_c     58.189051
_cell_angle_alpha  92.28715
_cell_angle_beta   92.255618
_cell_angle_gamma 90.993121
loop_
_atom_site_label
_atom_site_type_symbol
_atom_site_fract_x
_atom_site_fract_y
_atom_site_fract_z
_atom_type_partial_charge
Mg0 Mg 0.04794 0.20669 0.17977 0.0
O1 O 0.01365 0.20737 0.15784 0.0
O2 O 0.98367 0.22851 0.17432 0.0
Mg3 Mg 0.00242 0.24656 0.207 0.0
C4 C 0.9922 0.21537 0.15762 0.0
C5 C 0.08903 0.19249 0.14723 0.0
O6 O 0.0995 0.18364 0.12877 0.0
O7 O 0.05544 0.24664 0.16614 0.0
O8 O 0.02451 0.26753 0.18087 0.0
O9 O 0.03401 0.17344 0.19876 0.0
O10 O 0.02814 0.21463 0.20855 0.0
C11 C 0.04233 0.26655 0.16779 0.0
C12 C 0.02348 0.19049 0.21156 0.0
O13 O 0.0669 0.18771 0.14952 0.0
Mg14 Mg 0.0311 0.74164 0.37438 0.0
O15 O 0.03167 0.77815 0.39834 0.0
O16 O 0.00327 0.77437 0.42394 0.0
Mg17 Mg 0.98252 0.73607 0.41421 0.0
C18 C 0.02052 0.78706 0.41561 0.0
C19 C 0.07558 0.74631 0.34298 0.0
O20 O 0.06124 0.7326 0.32857 0.0
O21 O 0.04652 0.71642 0.4029 0.0
O22 O 0.01422 0.7098 0.42358 0.0
O23 O 0.00574 0.76032 0.34952 0.0
O24 O 0.99421 0.73719 0.37832 0.0
C25 C 0.03589 0.705 0.41884 0.0
C26 C 0.98846 0.75121 0.3612 0.0
O27 O 0.06846 0.75254 0.36292 0.0
Mg28 Mg 0.50942 0.76781 0.72096 0.0
O29 O 0.49945 0.74989 0.68506 0.0
O30 O 0.45951 0.74707 0.68094 0.0
Mg31 Mg 0.44447 0.76271 0.71454 0.0
C32 C 0.48035 0.74385 0.67314 0.0
C33 C 0.55862 0.76274 0.69683 0.0
O34 O 0.55027 0.73958 0.6902 0.0
O35 O 0.49764 0.80622 0.70844 0.0
O36 O 0.45791 0.80288 0.70374 0.0
O37 O 0.51112 0.72835 0.73472 0.0
O38 O 0.47848 0.75235 0.73257 0.0
C39 C 0.47758 0.81563 0.7024 0.0
C40 C 0.48821 0.73039 0.73659 0.0
O41 O 0.54639 0.77734 0.7097 0.0
Mg42 Mg 0.5322 0.26424 0.88234 0.0
O43 O 0.52892 0.29509 0.91252 0.0
O44 O 0.49618 0.28215 0.93025 0.0
Mg45 Mg 0.47788 0.24691 0.91179 0.0
C46 C 0.51409 0.29763 0.92869 0.0
C47 C 0.58627 0.26064 0.86913 0.0
O48 O 0.5823 0.23619 0.87342 0.0
O49 O 0.54459 0.23385 0.90777 0.0
O50 O 0.51018 0.22243 0.92332 0.0
O51 O 0.51038 0.28798 0.85892 0.0
O52 O 0.49483 0.25815 0.88023 0.0
C53 C 0.53273 0.21988 0.92118 0.0
C54 C 0.49151 0.27612 0.86573 0.0
O55 O 0.57029 0.27717 0.87367 0.0
Mg56 Mg 0.13671 0.02148 0.23891 0.0
O57 O 0.16251 0.0572 0.23963 0.0
O58 O 0.18023 0.05859 0.27493 0.0
Mg59 Mg 0.16741 0.02486 0.29559 0.0
C60 C 0.17699 0.06779 0.25501 0.0
C61 C 0.117 0.04103 0.19256 0.0
O62 O 0.11662 0.06265 0.20522 0.0
O63 O 0.16824 0.99476 0.23465 0.0
O64 O 0.18492 0.99596 0.27022 0.0
O65 O 0.10769 0.04543 0.2527 0.0
O66 O 0.13421 0.02533 0.27439 0.0
C67 C 0.18403 0.98732 0.24929 0.0
C68 C 0.11635 0.04075 0.27301 0.0
O69 O 0.12777 0.02163 0.20051 0.0
Mg70 Mg 0.28352 0.92022 0.56016 0.0
O71 O 0.28414 0.89791 0.52518 0.0
O72 O 0.31619 0.87262 0.52534 0.0
Mg73 Mg 0.33615 0.87934 0.56036 0.0
C74 C 0.29756 0.8815 0.51522 0.0
C75 C 0.24177 0.94485 0.53427 0.0
O76 O 0.25997 0.94838 0.52106 0.0
O77 O 0.27167 0.8843 0.57833 0.0
O78 O 0.30507 0.86128 0.58038 0.0
O79 O 0.304 0.95149 0.54529 0.0
O80 O 0.32128 0.91886 0.56259 0.0
C81 C 0.28314 0.86468 0.58514 0.0
C82 C 0.32326 0.93903 0.55024 0.0
O83 O 0.24494 0.93218 0.55241 0.0
Mg84 Mg 0.39762 0.01664 0.7602 0.0
O85 O 0.37768 0.9771 0.75918 0.0
O86 O 0.3666 0.97152 0.79526 0.0
Mg87 Mg 0.38122 0.00487 0.81897 0.0
C88 C 0.36725 0.96389 0.77414 0.0
C89 C 0.40735 0.00415 0.70965 0.0
O90 O 0.41691 0.98425 0.71974 0.0
O91 O 0.36322 0.03844 0.76453 0.0
O92 O 0.3557 0.03352 0.80153 0.0
O93 O 0.43216 0.99719 0.76633 0.0
O94 O 0.40899 0.01136 0.79391 0.0
C95 C 0.3509 0.04336 0.78211 0.0
C96 C 0.42796 0.9993 0.78802 0.0
O97 O 0.39509 0.01981 0.7215 0.0
Mg98 Mg 0.31033 0.10145 -0.00185 0.0
O99 O 0.30873 0.12643 0.03142 0.0
O100 O 0.34269 0.14978 0.03663 0.0
Mg101 Mg 0.36544 0.14054 0.00574 0.0
C102 C 0.32187 0.14324 0.04289 0.0
C103 C 0.25947 0.09343 0.97914 0.0
O104 O 0.27198 0.09645 0.96075 0.0
O105 O 0.30296 0.13765 0.9793 0.0
O106 O 0.33637 0.16201 0.98497 0.0
O107 O 0.32886 0.06995 0.01645 0.0
O108 O 0.34705 0.10251 -2e-05 0.0
C109 C 0.31489 0.15853 0.97692 0.0
C110 C 0.34852 0.08194 0.01168 0.0
O111 O 0.27041 0.09325 -0.0013 0.0
Mg112 Mg 0.80411 0.39885 0.06789 0.0
O113 O 0.79971 0.37551 0.03302 0.0
O114 O 0.83342 0.35306 0.02927 0.0
Mg115 Mg 0.85831 0.36043 0.06084 0.0
C116 C 0.81282 0.35986 0.02165 0.0
C117 C 0.7536 0.42425 0.05462 0.0
O118 O 0.76547 0.43475 0.03819 0.0
O119 O 0.79696 0.36196 0.08733 0.0
O120 O 0.83091 0.34033 0.08298 0.0
O121 O 0.82277 0.43163 0.05082 0.0
O122 O 0.841 0.39791 0.06519 0.0
C123 C 0.81004 0.34237 0.09101 0.0
C124 C 0.84221 0.41872 0.05385 0.0
O125 O 0.76428 0.40886 0.06798 0.0
Mg126 Mg 0.91868 0.51775 0.2607 0.0
O127 O 0.89616 0.47982 0.25932 0.0
O128 O 0.87261 0.48214 0.28959 0.0
Mg129 Mg 0.88031 0.51957 0.31051 0.0
C130 C 0.87992 0.47033 0.27158 0.0
C131 C 0.94343 0.48987 0.22103 0.0
O132 O 0.94487 0.47317 0.23745 0.0
O133 O 0.88616 0.54019 0.24845 0.0
O134 O 0.86535 0.54226 0.28046 0.0
O135 O 0.94662 0.49901 0.2819 0.0
O136 O 0.91609 0.51986 0.29638 0.0
C137 C 0.86819 0.54794 0.25958 0.0
C138 C 0.93438 0.50536 0.29959 0.0
O139 O 0.93149 0.51034 0.22432 0.0
Mg140 Mg 0.81989 0.55921 0.4826 0.0
O141 O 0.81297 0.58227 0.5164 0.0
O142 O 0.83728 0.61726 0.51678 0.0
Mg143 Mg 0.85939 0.61698 0.48483 0.0
C144 C 0.8212 0.60357 0.52587 0.0
C145 C 0.76737 0.53157 0.49372 0.0
O146 O 0.75585 0.5096 0.49648 0.0
O147 O 0.79789 0.5887 0.46261 0.0
O148 O 0.82434 0.62174 0.46395 0.0
O149 O 0.84914 0.53781 0.49979 0.0
O150 O 0.85476 0.57498 0.48318 0.0
C151 C 0.80406 0.61164 0.45739 0.0
C152 C 0.86337 0.55681 0.49539 0.0
O153 O 0.78891 0.53085 0.48761 0.0
Mg154 Mg 0.63553 0.4948 0.76779 0.0
O155 O 0.65587 0.53412 0.77468 0.0
O156 O 0.66915 0.53364 0.8116 0.0
Mg157 Mg 0.66089 0.49502 0.82688 0.0
C158 C 0.66653 0.54494 0.79256 0.0
C159 C 0.62488 0.5212 0.72047 0.0
O160 O 0.62681 0.54271 0.73329 0.0
O161 O 0.67139 0.47451 0.76394 0.0
O162 O 0.68492 0.47598 0.80062 0.0
O163 O 0.60231 0.51227 0.78101 0.0
O164 O 0.62983 0.49376 0.80284 0.0
C165 C 0.68741 0.46984 0.77941 0.0
C166 C 0.61066 0.50726 0.80135 0.0
O167 O 0.63004 0.49974 0.72925 0.0
Mg168 Mg 0.98713 0.78337 0.89891 0.0
O169 O 0.98354 0.82315 0.9162 0.0
O170 O 0.9476 0.82797 0.93071 0.0
Mg171 Mg 0.9273 0.7897 0.92116 0.0
C172 C 0.96863 0.83659 0.92723 0.0
C173 C 0.03326 0.81307 0.88917 0.0
O174 O 0.01672 0.83004 0.88447 0.0
O175 O 0.99047 0.76636 0.93401 0.0
O176 O 0.95295 0.76859 0.94606 0.0
O177 O 0.97318 0.79626 0.86557 0.0
O178 O 0.95026 0.77992 0.89183 0.0
C179 C 0.97482 0.76197 0.94886 0.0
C180 C 0.9521 0.78913 0.87165 0.0
O181 O 0.02709 0.7912 0.89663 0.0
Mg182 Mg 0.02199 0.26096 0.66853 0.0
O183 O 0.01766 0.22811 0.64019 0.0
O184 O 0.98481 0.23781 0.61933 0.0
Mg185 Mg 0.96625 0.27258 0.63638 0.0
C186 C 0.00288 0.22353 0.62312 0.0
C187 C 0.07159 0.25848 0.694 0.0
O188 O 0.05854 0.26917 0.70997 0.0
O189 O 0.03157 0.29096 0.64251 0.0
O190 O 0.99653 0.30032 0.62524 0.0
O191 O 0.00198 0.23786 0.6932 0.0
O192 O 0.9848 0.2652 0.6698 0.0
C193 C 0.01911 0.30422 0.62854 0.0
C194 C 0.9826 0.24872 0.68571 0.0
O195 O 0.06159 0.25179 0.67459 0.0
Mg196 Mg 0.48428 0.32211 0.37763 0.0
O197 O 0.49159 0.35783 0.40175 0.0
O198 O 0.45851 0.36426 0.42135 0.0
Mg199 Mg 0.43028 0.3335 0.40971 0.0
C200 C 0.48001 0.37042 0.41688 0.0
C201 C 0.52381 0.31799 0.34615 0.0
O202 O 0.5035 0.31369 0.33436 0.0
O203 O 0.48897 0.29568 0.40789 0.0
O204 O 0.45462 0.30299 0.42551 0.0
O205 O 0.4683 0.34618 0.35042 0.0
O206 O 0.44743 0.32753 0.37679 0.0
C207 C 0.47456 0.29141 0.42392 0.0
C208 C 0.44773 0.34138 0.3589 0.0
O209 O 0.5233 0.32127 0.36791 0.0
Mg210 Mg 0.52329 0.7839 0.16437 0.0
O211 O 0.5275 0.74301 0.14773 0.0
O212 O 0.49641 0.73467 0.12308 0.0
Mg213 Mg 0.47045 0.76853 0.1267 0.0
C214 C 0.51631 0.72827 0.13259 0.0
C215 C 0.57427 0.76941 0.18618 0.0
O216 O 0.56187 0.75137 0.19602 0.0
O217 O 0.53057 0.8034 0.13084 0.0
O218 O 0.49683 0.79573 0.10952 0.0
O219 O 0.50328 0.76828 0.19415 0.0
O220 O 0.48629 0.77954 0.16128 0.0
C221 C 0.51759 0.80635 0.11262 0.0
C222 C 0.48401 0.77039 0.1813 0.0
O223 O 0.56341 0.78535 0.17357 0.0
Mg224 Mg 0.89513 0.02085 0.77979 0.0
O225 O 0.87798 0.98088 0.77817 0.0
O226 O 0.85478 0.97529 0.80781 0.0
Mg227 Mg 0.86081 0.01191 0.83134 0.0
C228 C 0.86342 0.96721 0.78893 0.0
C229 C 0.91629 0.99174 0.74024 0.0
O230 O 0.92002 0.97741 0.75812 0.0
O231 O 0.85888 0.03826 0.77067 0.0
O232 O 0.84138 0.03626 0.80461 0.0
O233 O 0.92717 0.00792 0.79944 0.0
O234 O 0.89468 0.02273 0.81554 0.0
C235 C 0.84175 0.04365 0.78391 0.0
C236 C 0.91598 0.01389 0.81791 0.0
O237 O 0.90557 0.01317 0.74282 0.0
Mg238 Mg 0.77869 0.10103 0.48152 0.0
O239 O 0.78531 0.12039 0.51671 0.0
O240 O 0.82111 0.14032 0.5198 0.0
Mg241 Mg 0.8395 0.12914 0.48617 0.0
C242 C 0.801 0.13436 0.52801 0.0
C243 C 0.7314 0.08128 0.5019 0.0
O244 O 0.7457 0.06227 0.50711 0.0
O245 O 0.77504 0.14063 0.46544 0.0
O246 O 0.81331 0.15438 0.46626 0.0
O247 O 0.79441 0.06436 0.49427 0.0
O248 O 0.81524 0.09528 0.47856 0.0
C249 C 0.79122 0.15708 0.46046 0.0
C250 C 0.81491 0.07337 0.48829 0.0
O251 O 0.73923 0.0996 0.49012 0.0
Mg252 Mg 0.64915 0.99341 0.31702 0.0
O253 O 0.66603 0.03351 0.31948 0.0
O254 O 0.69307 0.03799 0.34857 0.0
Mg255 Mg 0.68998 -0.00023 0.3677 0.0
C256 C 0.6818 0.04689 0.33119 0.0
C257 C 0.62638 0.02361 0.27776 0.0
O258 O 0.62235 0.03883 0.29576 0.0
O259 O 0.6841 0.97655 0.30485 0.0
O260 O 0.70647 0.977 0.33771 0.0
O261 O 0.6198 0.00649 0.33928 0.0
O262 O 0.6539 0.99021 0.3522 0.0
C263 C 0.70311 0.97081 0.31632 0.0
C264 C 0.63348 1e-05 0.35653 0.0
O265 O 0.63641 0.002 0.28067 0.0
Mg266 Mg 0.7525 0.87434 0.04623 0.0
O267 O 0.75117 0.87866 0.00773 0.0
O268 O 0.78502 0.89752 0.99712 0.0
Mg269 Mg 0.80755 0.90806 0.03012 0.0
C270 C 0.76437 0.88731 0.99234 0.0
C271 C 0.70053 0.84672 0.03611 0.0
O272 O 0.68625 0.82662 0.03122 0.0
O273 O 0.78043 0.8429 0.04328 0.0
O274 O 0.814 0.86526 0.03668 0.0
O275 O 0.73699 0.91444 0.04998 0.0
O276 O 0.77554 0.90638 0.05106 0.0
C277 C 0.80301 0.84406 0.04055 0.0
C278 C 0.75881 0.92296 0.05165 0.0
O279 O 0.72256 0.84318 0.04109 0.0
Mg280 Mg 0.29857 0.59939 0.97984 0.0
O281 O 0.2917 0.62393 0.01228 0.0
O282 O 0.32092 0.6535 0.01912 0.0
Mg283 Mg 0.3479 0.64607 0.9909 0.0
C284 C 0.30116 0.64287 0.02426 0.0
C285 C 0.24237 0.59595 0.98853 0.0
O286 O 0.24385 0.62128 0.99158 0.0
O287 O 0.2889 0.63248 0.95653 0.0
O288 O 0.32041 0.65957 0.96336 0.0
O289 O 0.31783 0.57204 0.00132 0.0
O290 O 0.33594 0.60487 0.98525 0.0
C291 C 0.30047 0.65338 0.95288 0.0
C292 C 0.33718 0.5855 -0.00137 0.0
O293 O 0.26036 0.58358 0.98149 0.0
Mg294 Mg 0.142 0.48511 0.80149 0.0
O295 O 0.15768 0.52543 0.80115 0.0
O296 O 0.17793 0.53944 0.83285 0.0
Mg297 Mg 0.17664 0.50272 0.85438 0.0
C298 C 0.16965 0.543 0.81253 0.0
C299 C 0.12394 0.51135 0.75934 0.0
O300 O 0.11447 0.52435 0.77648 0.0
O301 O 0.17859 0.46923 0.795 0.0
O302 O 0.19922 0.48006 0.82778 0.0
O303 O 0.10995 0.50004 0.81824 0.0
O304 O 0.14235 0.48714 0.83749 0.0
C305 C 0.19786 0.4694 0.8075 0.0
C306 C 0.12131 0.49705 0.83773 0.0
O307 O 0.13469 0.4904 0.76341 0.0
Mg308 Mg 0.27501 0.38299 0.56249 0.0
O309 O 0.26835 0.38236 0.52376 0.0
O310 O 0.30262 0.39343 0.50771 0.0
Mg311 Mg 0.32957 0.40702 0.53673 0.0
C312 C 0.28069 0.38592 0.50615 0.0
C313 C 0.22306 0.35173 0.55654 0.0
O314 O 0.20976 0.33149 0.56111 0.0
O315 O 0.2992 0.34838 0.55845 0.0
O316 O 0.33407 0.36496 0.54747 0.0
O317 O 0.26306 0.42467 0.56577 0.0
O318 O 0.30011 0.41226 0.56049 0.0
C319 C 0.32117 0.346 0.55369 0.0
C320 C 0.28524 0.43069 0.56274 0.0
O321 O 0.24355 0.3547 0.56666 0.0
Mg322 Mg 0.38956 0.53217 0.31496 0.0
O323 O 0.36585 0.49623 0.31819 0.0
O324 O 0.34774 0.50059 0.35155 0.0
Mg325 Mg 0.36472 0.53553 0.37199 0.0
C326 C 0.35055 0.48864 0.33225 0.0
C327 C 0.41037 0.53149 0.26804 0.0
O328 O 0.42333 0.54917 0.27998 0.0
O329 O 0.35611 0.5563 0.31013 0.0
O330 O 0.34454 0.56084 0.3465 0.0
O331 O 0.4221 0.51444 0.33057 0.0
O332 O 0.39586 0.53686 0.35011 0.0
C333 C 0.3424 0.56599 0.3252 0.0
C334 C 0.41571 0.5246 0.35003 0.0
O335 O 0.39234 0.52151 0.27718 0.0
C336 C 0.97283 0.06386 0.97393 0.0
N337 N 0.93289 0.04277 0.02988 0.0
C338 C 0.92308 0.05257 0.04936 0.0
C339 C 0.8986 0.0493 0.0526 0.0
C340 C 0.88415 0.03617 0.03547 0.0
C341 C 0.89479 0.026 0.01572 0.0
C342 C 0.91933 0.0294 0.01332 0.0
Zn343 Zn 0.96765 0.05118 0.02348 0.0
C344 C 0.99357 0.00644 0.00668 0.0
N345 N 0.03869 0.07277 0.00797 0.0
C346 C 0.04378 0.09325 0.99486 0.0
C347 C 0.05625 0.05717 0.01598 0.0
C348 C 0.07999 0.06163 0.01058 0.0
C349 C 0.08573 0.0823 0.9967 0.0
C350 C 0.06732 0.09836 0.98895 0.0
Zn351 Zn 0.0042 0.06387 0.01488 0.0
O352 O 0.95742 0.05747 0.98828 0.0
C353 C 0.97663 0.10807 0.03139 0.0
O354 O 0.99417 0.06892 0.98099 0.0
H355 H 0.05177 0.04091 0.02626 0.0
H356 H 0.93418 0.06334 0.06219 0.0
H357 H 0.02952 0.1054 0.98871 0.0
O358 O 0.96154 0.08966 0.0327 0.0
O359 O 0.99716 0.10345 0.02364 0.0
H360 H 0.92747 0.02167 0.99801 0.0
O361 O 0.01462 0.05866 0.04903 0.0
O362 O 0.97927 0.04406 0.05837 0.0
O363 O 0.01015 0.0236 0.00579 0.0
O364 O 0.97348 0.01285 0.01427 0.0
C365 C 0.00102 0.04992 0.06392 0.0
H366 H 0.89098 0.0572 0.06815 0.0
H367 H 0.8843 0.01518 0.00241 0.0
H368 H 0.09361 0.04858 0.01666 0.0
H369 H 0.07107 0.11465 0.9784 0.0
C370 C 0.32352 0.77577 0.24353 0.0
N371 N 0.2577 0.75495 0.21095 0.0
C372 C 0.27014 0.76365 0.19309 0.0
C373 C 0.2684 0.7507 0.17162 0.0
C374 C 0.25291 0.72899 0.1679 0.0
C375 C 0.23849 0.72208 0.18618 0.0
C376 C 0.24152 0.73504 0.20774 0.0
Zn377 Zn 0.26853 0.76935 0.24316 0.0
C378 C 0.28238 0.72803 0.27406 0.0
N379 N 0.29698 0.80027 0.30833 0.0
C380 C 0.3074 0.82427 0.31152 0.0
C381 C 0.2896 0.78693 0.32662 0.0
C382 C 0.29177 0.79795 0.3489 0.0
C383 C 0.30101 0.82324 0.35245 0.0
C384 C 0.30936 0.83629 0.33354 0.0
Zn385 Zn 0.28636 0.7858 0.27582 0.0
O386 O 0.30419 0.76903 0.23253 0.0
C387 C 0.27103 0.82734 0.24504 0.0
O388 O 0.32248 0.78507 0.26407 0.0
H389 H 0.28064 0.76829 0.32391 0.0
H390 H 0.2827 0.77975 0.19581 0.0
H391 H 0.31305 0.83472 0.29687 0.0
O392 O 0.2641 0.80782 0.23234 0.0
O393 O 0.28166 0.8238 0.26434 0.0
H394 H 0.23171 0.72845 0.22213 0.0
O395 O 0.25067 0.78589 0.28688 0.0
O396 O 0.23301 0.76929 0.25514 0.0
O397 O 0.28984 0.74746 0.28654 0.0
O398 O 0.27283 0.73125 0.25426 0.0
C399 C 0.23167 0.7781 0.27578 0.0
H400 H 0.28029 0.75704 0.15868 0.0
H401 H 0.22556 0.70624 0.18427 0.0
H402 H 0.2848 0.78744 0.36302 0.0
H403 H 0.3166 0.85588 0.33568 0.0
C404 C 0.5055 0.04258 0.58002 0.0
N405 N 0.54063 0.97669 0.56238 0.0
C406 C 0.54836 0.97845 0.58487 0.0
C407 C 0.54202 0.95918 0.59974 0.0
C408 C 0.52776 0.93803 0.59121 0.0
C409 C 0.52298 0.935 0.56738 0.0
C410 C 0.5298 0.95467 0.55311 0.0
Zn411 Zn 0.53338 0.01066 0.54713 0.0
C412 C 0.48303 0.00712 0.5255 0.0
N413 N 0.51183 0.08166 0.51931 0.0
C414 C 0.51534 0.10281 0.53382 0.0
C415 C 0.50387 0.084 0.4971 0.0
C416 C 0.49904 0.1085 0.48876 0.0
C417 C 0.50232 0.13059 0.50353 0.0
C418 C 0.51064 0.12751 0.52628 0.0
Zn419 Zn 0.52018 0.0468 0.53235 0.0
O420 O 0.51899 0.0233 0.57787 0.0
C421 C 0.57072 0.05032 0.55326 0.0
O422 O 0.50269 0.0574 0.56328 0.0
H423 H 0.50132 0.06689 0.48586 0.0
H424 H 0.55668 0.99625 0.59194 0.0
H425 H 0.522 0.10058 0.55131 0.0
O426 O 0.56737 0.02647 0.55701 0.0
O427 O 0.55351 0.06323 0.54494 0.0
H428 H 0.52385 0.95368 0.53518 0.0
O429 O 0.5373 0.03512 0.50166 0.0
O430 O 0.54778 0.9981 0.51632 0.0
O431 O 0.48732 0.0301 0.51955 0.0
O432 O 0.49901 0.99526 0.53679 0.0
C433 C 0.54782 0.01349 0.49981 0.0
H434 H 0.54609 0.96222 0.61801 0.0
H435 H 0.51244 0.91863 0.56014 0.0
H436 H 0.49252 0.11011 0.47111 0.0
H437 H 0.51378 0.14408 0.5381 0.0
C438 C 0.28646 0.21487 0.77348 0.0
N439 N 0.2623 0.27239 0.81842 0.0
C440 C 0.24302 0.2574 0.82318 0.0
C441 C 0.23638 0.25518 0.84589 0.0
C442 C 0.25036 0.26769 0.86384 0.0
C443 C 0.26835 0.28539 0.858 0.0
C444 C 0.27389 0.28758 0.83506 0.0
Zn445 Zn 0.27735 0.26893 0.78732 0.0
C446 C 0.3307 0.27246 0.79203 0.0
N447 N 0.31004 0.26277 0.72224 0.0
C448 C 0.29876 0.24807 0.70503 0.0
C449 C 0.33203 0.27361 0.71931 0.0
C450 C 0.34326 0.27017 0.69844 0.0
C451 C 0.3313 0.25665 0.67972 0.0
C452 C 0.30878 0.24523 0.68354 0.0
Zn453 Zn 0.29401 0.26703 0.75331 0.0
O454 O 0.27678 0.2284 0.78913 0.0
C455 C 0.2407 0.26395 0.74848 0.0
O456 O 0.29554 0.22613 0.75673 0.0
H457 H 0.34099 0.28516 0.73305 0.0
H458 H 0.23383 0.24574 0.8096 0.0
H459 H 0.28167 0.23881 0.70772 0.0
O460 O 0.24262 0.2673 0.77026 0.0
O461 O 0.25956 0.26273 0.73705 0.0
H462 H 0.28883 0.29985 0.83081 0.0
O463 O 0.29208 0.30817 0.75043 0.0
O464 O 0.27825 0.30928 0.78536 0.0
O465 O 0.32795 0.27186 0.7703 0.0
O466 O 0.31244 0.27041 0.80417 0.0
C467 C 0.28493 0.321 0.7679 0.0
H468 H 0.22177 0.24207 0.84941 0.0
H469 H 0.27977 0.29559 0.87094 0.0
H470 H 0.36094 0.27864 0.69708 0.0
H471 H 0.29827 0.23495 0.66999 0.0
C472 C 0.07791 0.00879 0.51767 0.0
N473 N 0.03609 0.03839 0.46403 0.0
C474 C 0.05459 0.05577 0.46308 0.0
C475 C 0.0608 0.06545 0.44208 0.0
C476 C 0.04753 0.05753 0.42204 0.0
C477 C 0.02773 0.04073 0.42362 0.0
C478 C 0.02239 0.03114 0.44494 0.0
Zn479 Zn 0.03069 0.02136 0.49431 0.0
C480 C 0.02945 0.96337 0.48807 0.0
N481 N 0.02148 0.98588 0.55771 0.0
C482 C 0.0317 0.99701 0.57736 0.0
C483 C 0.00459 0.96663 0.55827 0.0
C484 C 0.996 0.95925 0.57923 0.0
C485 C 0.00472 0.9721 0.5996 0.0
C486 C 0.02342 0.99045 0.59867 0.0
Zn487 Zn 0.02716 0.00231 0.52738 0.0
O488 O 0.06822 0.01907 0.50023 0.0
C489 C 0.02817 0.06095 0.53259 0.0
O490 O 0.0647 6e-05 0.53297 0.0
H491 H 0.99656 0.95827 0.5424 0.0
H492 H 0.06509 0.06146 0.47852 0.0
H493 H 0.04516 0.0122 0.57645 0.0
O494 O 0.0303 0.05813 0.51102 0.0
O495 O 0.02698 0.04081 0.54447 0.0
H496 H 0.00787 0.01719 0.4461 0.0
O497 O 0.98968 0.00425 0.52165 0.0
O498 O 0.99304 0.0233 0.48891 0.0
O499 O 0.02714 0.9646 0.50977 0.0
O500 O 0.03107 0.98428 0.47738 0.0
C501 C 0.97992 0.01425 0.50414 0.0
H502 H 0.07621 0.07839 0.44138 0.0
H503 H 0.01733 0.034 0.40837 0.0
H504 H 0.98141 0.94517 0.57934 0.0
H505 H 0.03062 0.00059 0.61415 0.0
C506 C 0.24714 0.76359 0.7176 0.0
N507 N 0.29721 0.71378 0.74727 0.0
C508 C 0.31412 0.72184 0.73288 0.0
C509 C 0.33421 0.70685 0.72918 0.0
C510 C 0.33691 0.68339 0.74046 0.0
C511 C 0.31839 0.67476 0.75398 0.0
C512 C 0.29858 0.69035 0.75717 0.0
Zn513 Zn 0.27088 0.73809 0.75678 0.0
C514 C 0.2884 0.79259 0.76579 0.0
N515 N 0.21581 0.78692 0.7799 0.0
C516 C 0.19303 0.78196 0.77162 0.0
C517 C 0.22056 0.80408 0.79796 0.0
C518 C 0.20184 0.81553 0.80955 0.0
C519 C 0.17818 0.80886 0.80261 0.0
C520 C 0.17378 0.79266 0.78292 0.0
Zn521 Zn 0.24242 0.76384 0.76887 0.0
O522 O 0.26413 0.7484 0.72243 0.0
C523 C 0.22515 0.70931 0.75992 0.0
O524 O 0.23386 0.77176 0.73357 0.0
H525 H 0.23881 0.80751 0.80439 0.0
H526 H 0.31265 0.74053 0.72523 0.0
H527 H 0.18971 0.76833 0.75721 0.0
O528 O 0.24607 0.70699 0.75257 0.0
O529 O 0.21857 0.7311 0.76803 0.0
H530 H 0.28486 0.68427 0.7685 0.0
O531 O 0.25138 0.75625 0.80362 0.0
O532 O 0.27753 0.72813 0.7918 0.0
O533 O 0.26654 0.79566 0.77022 0.0
O534 O 0.29576 0.76999 0.76059 0.0
C535 C 0.26667 0.73913 0.80817 0.0
H536 H 0.34826 0.71454 0.71895 0.0
H537 H 0.31979 0.65681 0.76292 0.0
H538 H 0.20578 0.82781 0.82481 0.0
H539 H 0.15565 0.78726 0.77711 0.0
C540 C 0.55265 0.96542 0.03379 0.0
N541 N 0.57352 0.03464 0.06901 0.0
C542 C 0.55997 0.02479 0.08562 0.0
C543 C 0.5662 0.02984 0.10873 0.0
C544 C 0.58638 0.04545 0.11481 0.0
C545 C 0.59941 0.05654 0.09747 0.0
C546 C 0.5927 0.05066 0.07441 0.0
Zn547 Zn 0.56551 0.02185 0.0361 0.0
C548 C 0.60848 -0.00019 0.01438 0.0
N549 N 0.54888 0.99332 0.96811 0.0
C550 C 0.52818 0.97905 0.96569 0.0
C551 C 0.56153 -0.00042 0.94954 0.0
C552 C 0.55262 0.9926 0.92731 0.0
C553 C 0.53057 0.97913 0.92444 0.0
C554 C 0.51878 0.97156 0.94396 0.0
Zn555 Zn 0.55813 0.00708 0.00045 0.0
O556 O 0.56029 0.98329 0.04799 0.0
C557 C 0.51486 0.02741 0.02363 0.0
O558 O 0.54923 0.97062 0.01285 0.0
H559 H 0.57796 0.01093 0.95191 0.0
H560 H 0.54472 0.01223 0.08096 0.0
H561 H 0.51831 0.97436 0.98062 0.0
O562 O 0.52945 0.02959 0.04082 0.0
O563 O 0.52223 0.01962 0.00421 0.0
H564 H 0.60325 0.05815 0.06088 0.0
O565 O 0.56731 0.04355 0.98803 0.0
O566 O 0.57038 0.06025 0.02341 0.0
O567 O 0.5937 0.99439 0.99761 0.0
O568 O 0.60161 0.01321 0.0316 0.0
C569 C 0.57073 0.06309 0.00178 0.0
H570 H 0.55569 0.02116 0.12176 0.0
H571 H 0.61515 0.0686 0.10169 0.0
H572 H 0.56212 0.99894 0.91262 0.0
H573 H 0.50188 0.96091 0.94242 0.0
C574 C 0.25082 0.24095 0.25651 0.0
N575 N 0.27083 0.29163 0.20698 0.0
C576 C 0.29005 0.27612 0.20413 0.0
C577 C 0.29456 0.26499 0.18262 0.0
C578 C 0.27889 0.26933 0.16385 0.0
C579 C 0.26027 0.28696 0.16674 0.0
C580 C 0.25665 0.29817 0.18861 0.0
Zn581 Zn 0.25943 0.29581 0.24001 0.0
C582 C 0.20614 0.29206 0.24096 0.0
N583 N 0.23542 0.29582 0.30828 0.0
C584 C 0.24774 0.2827 0.32459 0.0
C585 C 0.21961 0.31447 0.31413 0.0
C586 C 0.21742 0.32231 0.33716 0.0
C587 C 0.23164 0.31077 0.35421 0.0
C588 C 0.24606 0.28987 0.34781 0.0
Zn589 Zn 0.24614 0.29309 0.27531 0.0
O590 O 0.25747 0.25449 0.24007 0.0
C591 C 0.29929 0.29824 0.27463 0.0
O592 O 0.24573 0.25227 0.27542 0.0
H593 H 0.2101 0.32472 0.30085 0.0
H594 H 0.30068 0.27022 0.21883 0.0
H595 H 0.26026 0.268 0.31951 0.0
O596 O 0.29494 0.29732 0.25307 0.0
O597 O 0.28215 0.29558 0.28805 0.0
H598 H 0.24138 0.31038 0.19113 0.0
O599 O 0.24668 0.33373 0.27478 0.0
O600 O 0.26147 0.33694 0.24055 0.0
O601 O 0.21045 0.29108 0.2625 0.0
O602 O 0.22341 0.29509 0.2277 0.0
C603 C 0.25475 0.34766 0.25924 0.0
H604 H 0.30887 0.25118 0.18125 0.0
H605 H 0.24787 0.29087 0.15258 0.0
H606 H 0.20618 0.33858 0.34131 0.0
H607 H 0.25698 0.28016 0.36049 0.0
C608 C 0.58947 0.49085 0.05876 0.0
N609 N 0.55732 0.52784 0.00194 0.0
C610 C 0.57287 0.5137 0.98944 0.0
C611 C 0.57762 0.52025 0.9671 0.0
C612 C 0.56607 0.5414 0.95743 0.0
C613 C 0.55072 0.55624 0.97092 0.0
C614 C 0.5467 0.54917 0.99339 0.0
Zn615 Zn 0.54751 0.51391 0.03237 0.0
C616 C 0.53413 0.45734 0.02704 0.0
N617 N 0.52666 0.48367 0.09546 0.0
C618 C 0.53785 0.49125 0.11586 0.0
C619 C 0.5052 0.47075 0.09467 0.0
C620 C 0.49305 0.46719 0.11477 0.0
C621 C 0.50314 0.4769 0.13593 0.0
C622 C 0.52638 0.4879 0.13645 0.0
Zn623 Zn 0.53814 0.4974 0.06544 0.0
O624 O 0.58402 0.50322 0.04081 0.0
C625 C 0.55083 0.55396 0.0707 0.0
O626 O 0.57326 0.48579 0.07271 0.0
H627 H 0.49656 0.46501 0.07826 0.0
H628 H 0.58083 0.49662 0.99643 0.0
H629 H 0.55493 0.50146 0.11606 0.0
O630 O 0.55305 0.55129 0.04907 0.0
O631 O 0.54563 0.53429 0.0821 0.0
H632 H 0.5344 0.56014 0.00367 0.0
O633 O 0.50291 0.50924 0.05808 0.0
O634 O 0.5112 0.52416 0.02463 0.0
O635 O 0.53079 0.46083 0.04842 0.0
O636 O 0.54129 0.47637 0.01574 0.0
C637 C 0.49609 0.52009 0.03987 0.0
H638 H 0.58925 0.50803 0.9571 0.0
H639 H 0.54156 0.57272 0.96401 0.0
H640 H 0.47513 0.45881 0.11343 0.0
H641 H 0.53504 0.49519 0.15246 0.0
C642 C 0.77347 0.25498 0.22908 0.0
N643 N 0.82274 0.22253 0.2755 0.0
C644 C 0.82544 0.20314 0.25934 0.0
C645 C 0.84747 0.19102 0.25745 0.0
C646 C 0.86681 0.19877 0.2725 0.0
C647 C 0.86301 0.21782 0.28983 0.0
C648 C 0.84086 0.22968 0.29086 0.0
Zn649 Zn 0.79179 0.24279 0.27609 0.0
C650 C 0.80214 0.29971 0.27601 0.0
N651 N 0.72811 0.2863 0.27829 0.0
C652 C 0.70936 0.27855 0.26391 0.0
C653 C 0.72568 0.3051 0.29506 0.0
C654 C 0.70333 0.31582 0.29872 0.0
C655 C 0.68342 0.30722 0.28485 0.0
C656 C 0.68675 0.28887 0.26685 0.0
Zn657 Zn 0.75903 0.26625 0.27704 0.0
O658 O 0.78914 0.2417 0.23952 0.0
C659 C 0.74913 0.20903 0.27728 0.0
O660 O 0.75819 0.26724 0.24068 0.0
H661 H 0.74087 0.31096 0.30628 0.0
H662 H 0.81075 0.19767 0.24738 0.0
H663 H 0.71167 0.26342 0.25083 0.0
O664 O 0.77181 0.20818 0.27737 0.0
O665 O 0.73891 0.23076 0.27585 0.0
H666 H 0.83838 0.24516 0.30356 0.0
O667 O 0.76006 0.2651 0.31336 0.0
O668 O 0.79385 0.24431 0.31252 0.0
O669 O 0.77967 0.30127 0.27833 0.0
O670 O 0.81168 0.27758 0.27488 0.0
C671 C 0.77719 0.25427 0.32395 0.0
H672 H 0.84958 0.17667 0.24363 0.0
H673 H 0.87724 0.22411 0.30206 0.0
H674 H 0.70149 0.33011 0.31266 0.0
H675 H 0.6718 0.28148 0.25596 0.0
C676 C 0.0655 0.45798 0.5444 0.0
N677 N 0.09784 0.53032 0.56021 0.0
C678 C 0.08406 0.53323 0.57886 0.0
C679 C 0.09399 0.54311 0.59967 0.0
C680 C 0.11846 0.54932 0.60155 0.0
C681 C 0.13239 0.54662 0.58215 0.0
C682 C 0.1215 0.53735 0.5613 0.0
Zn683 Zn 0.08212 0.51178 0.53191 0.0
C684 C 0.11642 0.47894 0.50617 0.0
N685 N 0.04745 0.47016 0.47579 0.0
C686 C 0.02701 0.45654 0.4796 0.0
C687 C 0.05405 0.475 0.45413 0.0
C688 C 0.03864 0.46826 0.43535 0.0
C689 C 0.01634 0.45641 0.43902 0.0
C690 C 0.01117 0.44928 0.46132 0.0
Zn691 Zn 0.0647 0.48875 0.50311 0.0
O692 O 0.07404 0.47952 0.55269 0.0
C693 C 0.0298 0.52019 0.52831 0.0
O694 O 0.06022 0.45556 0.52301 0.0
H695 H 0.07039 0.48585 0.45157 0.0
H696 H 0.06557 0.52675 0.57799 0.0
H697 H 0.02203 0.45301 0.49698 0.0
O698 O 0.04847 0.52954 0.53893 0.0
O699 O 0.03176 0.50207 0.51327 0.0
H700 H 0.13215 0.53477 0.54629 0.0
O701 O 0.06866 0.52332 0.48374 0.0
O702 O 0.09024 0.54345 0.51155 0.0
O703 O 0.09799 0.47465 0.49298 0.0
O704 O 0.11485 0.49386 0.52396 0.0
C705 C 0.08045 0.54335 0.49149 0.0
H706 H 0.08296 0.54432 0.61458 0.0
H707 H 0.15146 0.55083 0.58332 0.0
H708 H 0.04328 0.47435 0.41846 0.0
H709 H 0.99431 0.43985 0.46482 0.0
C710 C 0.79287 0.71026 0.24666 0.0
N711 N 0.75908 0.7473 0.30106 0.0
C712 C 0.74568 0.72502 0.29991 0.0
C713 C 0.73875 0.71368 0.32001 0.0
C714 C 0.74525 0.72568 0.34153 0.0
C715 C 0.75637 0.7504 0.34193 0.0
C716 C 0.76354 0.7607 0.32141 0.0
Zn717 Zn 0.77724 0.75678 0.27274 0.0
C718 C 0.82947 0.76282 0.28452 0.0
N719 N 0.81646 0.77449 0.21407 0.0
C720 C 0.83504 0.75863 0.2093 0.0
C721 C 0.8084 0.79185 0.19875 0.0
C722 C 0.81815 0.79255 0.17708 0.0
C723 C 0.83599 0.77497 0.17121 0.0
C724 C 0.84493 0.75828 0.18765 0.0
Zn725 Zn 0.79764 0.7675 0.24247 0.0
O726 O 0.78235 0.71664 0.26491 0.0
C727 C 0.74476 0.76165 0.23192 0.0
O728 O 0.80066 0.72786 0.23427 0.0
H729 H 0.79349 0.80407 0.20283 0.0
H730 H 0.74198 0.71487 0.28351 0.0
H731 H 0.84122 0.74501 0.22177 0.0
O732 O 0.74528 0.75558 0.25284 0.0
O733 O 0.76424 0.76776 0.22263 0.0
H734 H 0.77411 0.77848 0.32195 0.0
O735 O 0.79396 0.8072 0.25027 0.0
O736 O 0.77272 0.79717 0.27983 0.0
O737 O 0.83053 0.76738 0.26324 0.0
O738 O 0.80924 0.75804 0.29273 0.0
C739 C 0.78175 0.81421 0.26732 0.0
H740 H 0.73027 0.69465 0.31856 0.0
H741 H 0.76106 0.76088 0.358 0.0
H742 H 0.81075 0.80545 0.16451 0.0
H743 H 0.85857 0.7444 0.18346 0.0
C744 C 0.82442 0.26176 0.7537 0.0
N745 N 0.76114 0.2575 0.71174 0.0
C746 C 0.77736 0.26427 0.69611 0.0
C747 C 0.77697 0.25183 0.67435 0.0
C748 C 0.75922 0.23281 0.66835 0.0
C749 C 0.74075 0.22912 0.68375 0.0
C750 C 0.74233 0.24129 0.7056 0.0
Zn751 Zn 0.76989 0.26369 0.74604 0.0
C752 C 0.77545 0.21148 0.76691 0.0
N753 N 0.79117 0.2706 0.81733 0.0
C754 C 0.80669 0.28985 0.82523 0.0
C755 C 0.77756 0.25741 0.83204 0.0
C756 C 0.77792 0.26468 0.8554 0.0
C757 C 0.79266 0.2855 0.86379 0.0
C758 C 0.80785 0.29754 0.84858 0.0
Zn759 Zn 0.78306 0.26542 0.78275 0.0
O760 O 0.8074 0.2616 0.73851 0.0
C761 C 0.77687 0.3175 0.76077 0.0
O762 O 0.81959 0.26385 0.77485 0.0
H763 H 0.76528 0.24221 0.82545 0.0
H764 H 0.79199 0.27754 0.70113 0.0
H765 H 0.81716 0.30026 0.81322 0.0
O766 O 0.77066 0.30361 0.74297 0.0
O767 O 0.78314 0.30667 0.77931 0.0
H768 H 0.72963 0.23602 0.71824 0.0
O769 O 0.74667 0.26629 0.79058 0.0
O770 O 0.7327 0.26601 0.75483 0.0
O771 O 0.78251 0.22449 0.78501 0.0
O772 O 0.76902 0.22331 0.74907 0.0
C773 C 0.729 0.26655 0.7763 0.0
H774 H 0.79162 0.25565 0.66328 0.0
H775 H 0.72606 0.21557 0.67966 0.0
H776 H 0.76616 0.25472 0.86665 0.0
H777 H 0.81939 0.31376 0.8544 0.0
C778 C 0.7428 0.71371 0.7682 0.0
N779 N 0.78237 0.72798 0.71011 0.0
C780 C 0.78952 0.7032 0.71289 0.0
C781 C 0.79273 0.68666 0.69377 0.0
C782 C 0.78881 0.69582 0.6716 0.0
C783 C 0.78271 0.72188 0.66919 0.0
C784 C 0.77941 0.73769 0.68882 0.0
Zn785 Zn 0.77151 0.74854 0.73834 0.0
C786 C 0.72336 0.77015 0.72988 0.0
N787 N 0.74638 0.78822 0.79783 0.0
C788 C 0.75159 0.77865 0.81885 0.0
C789 C 0.73637 0.81193 0.79568 0.0
C790 C 0.73203 0.82743 0.81525 0.0
C791 C 0.73839 0.81841 0.83697 0.0
C792 C 0.74788 0.79362 0.83877 0.0
Zn793 Zn 0.75734 0.76805 0.76953 0.0
O794 O 0.75428 0.71388 0.74974 0.0
C795 C 0.80667 0.74844 0.77746 0.0
O796 O 0.7414 0.73446 0.78042 0.0
H797 H 0.73261 0.81925 0.77879 0.0
H798 H 0.7918 0.69588 0.72998 0.0
H799 H 0.75949 0.75977 0.82016 0.0
O800 O 0.80364 0.74043 0.75661 0.0
O801 O 0.7897 0.75971 0.78742 0.0
H802 H 0.77347 0.75737 0.68703 0.0
O803 O 0.77304 0.80128 0.75886 0.0
O804 O 0.78847 0.78394 0.7279 0.0
O805 O 0.72587 0.777 0.75104 0.0
O806 O 0.73956 0.75739 0.72011 0.0
C807 C 0.78536 0.80366 0.74126 0.0
H808 H 0.7978 0.66678 0.69629 0.0
H809 H 0.77947 0.72961 0.65234 0.0
H810 H 0.72479 0.84661 0.81342 0.0
H811 H 0.75291 0.78621 0.8554 0.0
C812 C 0.50375 0.58103 0.49111 0.0
N813 N 0.46454 0.55465 0.54481 0.0
C814 C 0.45382 0.56194 0.56459 0.0
C815 C 0.42941 0.55672 0.567 0.0
C816 C 0.41595 0.54426 0.54875 0.0
C817 C 0.42752 0.53686 0.52864 0.0
C818 C 0.45192 0.54209 0.52708 0.0
Zn819 Zn 0.49956 0.56428 0.53969 0.0
C820 C 0.52478 0.52038 0.51812 0.0
N821 N 0.57134 0.58559 0.52508 0.0
C822 C 0.57742 0.60787 0.51479 0.0
C823 C 0.58835 0.56894 0.53239 0.0
C824 C 0.6125 0.57435 0.52947 0.0
C825 C 0.61941 0.59715 0.5189 0.0
C826 C 0.60151 0.61402 0.51142 0.0
Zn827 Zn 0.53651 0.576 0.53082 0.0
O828 O 0.48945 0.57437 0.50628 0.0
C829 C 0.50964 0.6198 0.55128 0.0
O830 O 0.52581 0.58472 0.49668 0.0
H831 H 0.58316 0.55129 0.54043 0.0
H832 H 0.46414 0.57204 0.5784 0.0
H833 H 0.56358 0.62086 0.50917 0.0
O834 O 0.49374 0.60202 0.55167 0.0
O835 O 0.53007 0.61476 0.54344 0.0
H836 H 0.46073 0.53628 0.51154 0.0
O837 O 0.54683 0.56628 0.56477 0.0
O838 O 0.51061 0.55337 0.57315 0.0
O839 O 0.54191 0.53695 0.51798 0.0
O840 O 0.50535 0.52678 0.52715 0.0
C841 C 0.53266 0.55684 0.57892 0.0
H842 H 0.42108 0.56259 0.58283 0.0
H843 H 0.4179 0.52668 0.51438 0.0
H844 H 0.6256 0.56042 0.53497 0.0
H845 H 0.60607 0.63177 0.50315 0.0
C846 C 0.039 0.50299 0.08408 0.0
N847 N 0.06729 0.44695 0.04028 0.0
C848 C 0.08068 0.44127 0.05941 0.0
C849 C 0.08194 0.41577 0.06636 0.0
C850 C 0.06919 0.39612 0.05351 0.0
C851 C 0.05821 0.40209 0.03227 0.0
C852 C 0.0574 0.42787 0.02597 0.0
Zn853 Zn 0.05577 0.48405 0.03784 0.0
C854 C 0.00258 0.48448 0.02883 0.0
N855 N 0.02938 0.56063 0.03663 0.0
C856 C 0.03707 0.57893 0.05289 0.0
C857 C 0.01476 0.56673 0.01848 0.0
C858 C 0.00796 0.59228 0.01574 0.0
C859 C 0.01607 0.61152 0.03196 0.0
C860 C 0.03047 0.60475 0.05092 0.0
Zn861 Zn 0.04122 0.52372 0.03815 0.0
O862 O 0.0479 0.48399 0.07309 0.0
C863 C 0.09472 0.5227 0.04578 0.0
O864 O 0.03522 0.52391 0.07387 0.0
H865 H 0.00883 0.55186 0.00581 0.0
H866 H 0.08831 0.45675 0.0706 0.0
H867 H 0.0488 0.5736 0.06709 0.0
O868 O 0.09042 0.49847 0.04552 0.0
O869 O 0.07734 0.53816 0.04372 0.0
H870 H 0.0469 0.43284 0.01081 0.0
O871 O 0.04684 0.52283 0.00228 0.0
O872 O 0.06328 0.48447 0.00271 0.0
O873 O 0.00561 0.50883 0.03212 0.0
O874 O 0.02064 0.4699 0.02961 0.0
C875 C 0.05707 0.50428 0.9918 0.0
H876 H 0.09047 0.41206 0.08291 0.0
H877 H 0.0484 0.38737 0.02177 0.0
H878 H 0.99687 0.59709 0.00087 0.0
H879 H 0.03712 0.61936 0.06358 0.0
H880 H 0.9566 0.18063 0.14524 0.0
H881 H 0.00089 0.24207 0.12038 0.0
H882 H 0.9918 0.22663 0.08044 0.0
H883 H 0.97595 0.13463 0.11471 0.0
H884 H 0.9489 0.11606 0.10739 0.0
H885 H 0.95031 0.13718 0.13252 0.0
H886 H 0.91299 0.16149 0.11771 0.0
H887 H 0.91111 0.13998 0.09248 0.0
H888 H 0.91247 0.17458 0.08944 0.0
H889 H 0.99206 0.19601 0.04748 0.0
H890 H 0.99551 0.15616 0.02287 0.0
H891 H 0.94761 0.11581 0.06665 0.0
C892 C 0.96277 0.19178 0.13118 0.0
C893 C 0.97892 0.2127 0.13554 0.0
C894 C 0.98795 0.22635 0.1171 0.0
C895 C 0.98291 0.21765 0.09436 0.0
C896 C 0.96849 0.19553 0.09044 0.0
C897 C 0.95771 0.18329 0.10829 0.0
C898 C 0.94664 0.15745 0.10003 0.0
C899 C 0.95605 0.13506 0.1145 0.0
C900 C 0.91917 0.15845 0.0999 0.0
C901 C 0.9554 0.15575 0.07575 0.0
C902 C 0.96754 0.1781 0.0703 0.0
C903 C 0.98157 0.17888 0.05094 0.0
C904 C 0.98364 0.15617 0.03715 0.0
C905 C 0.97144 0.13322 0.04267 0.0
C906 C 0.95641 0.13343 0.0616 0.0
H907 H 0.09796 0.73364 0.30278 0.0
H908 H 0.10757 0.77851 0.36735 0.0
H909 H 0.14743 0.79313 0.35594 0.0
H910 H 0.15838 0.71229 0.30034 0.0
H911 H 0.15976 0.7144 0.26957 0.0
H912 H 0.13149 0.70819 0.28231 0.0
H913 H 0.11357 0.74798 0.26255 0.0
H914 H 0.14185 0.75439 0.24983 0.0
H915 H 0.12814 0.7793 0.26715 0.0
H916 H 0.18635 0.80203 0.33837 0.0
H917 H 0.22289 0.8037 0.31625 0.0
H918 H 0.18876 0.75311 0.2627 0.0
C919 C 0.10839 0.74664 0.31448 0.0
C920 C 0.09957 0.75496 0.33597 0.0
C921 C 0.11389 0.77184 0.35082 0.0
C922 C 0.13655 0.78034 0.34446 0.0
C923 C 0.14468 0.7718 0.32319 0.0
C924 C 0.13114 0.75528 0.30842 0.0
C925 C 0.14453 0.74843 0.28687 0.0
C926 C 0.14879 0.71909 0.28465 0.0
C927 C 0.13122 0.75811 0.26533 0.0
C928 C 0.1678 0.76351 0.29197 0.0
C929 C 0.16736 0.77694 0.31298 0.0
C930 C 0.18689 0.7917 0.32185 0.0
C931 C 0.20759 0.79249 0.30912 0.0
C932 C 0.20871 0.77858 0.28767 0.0
C933 C 0.18838 0.76417 0.27888 0.0
H934 H 0.51568 0.84864 0.69801 0.0
H935 H 0.4408 0.83648 0.67686 0.0
H936 H 0.4448 0.8698 0.64794 0.0
H937 H 0.51909 0.92018 0.68656 0.0
H938 H 0.54902 0.917 0.67648 0.0
H939 H 0.53879 0.89651 0.69861 0.0
H940 H 0.54995 0.85608 0.6737 0.0
H941 H 0.55954 0.8763 0.65124 0.0
H942 H 0.53689 0.85146 0.64496 0.0
H943 H 0.45875 0.89821 0.61698 0.0
H944 H 0.48052 0.92343 0.58903 0.0
H945 H 0.54643 0.91626 0.63008 0.0
C946 C 0.49985 0.85361 0.68791 0.0
C947 C 0.47793 0.8399 0.6897 0.0
C948 C 0.45774 0.84683 0.67595 0.0
C949 C 0.45986 0.86568 0.65939 0.0
C950 C 0.48217 0.8776 0.65709 0.0
C951 C 0.50168 0.87226 0.67133 0.0
C952 C 0.52421 0.88582 0.66399 0.0
C953 C 0.53331 0.90609 0.68251 0.0
C954 C 0.54378 0.86624 0.65812 0.0
C955 C 0.51458 0.89862 0.64273 0.0
C956 C 0.49025 0.8939 0.63917 0.0
C957 C 0.47771 0.90234 0.61979 0.0
C958 C 0.49032 0.91628 0.60384 0.0
C959 C 0.51521 0.92157 0.60734 0.0
C960 C 0.52739 0.91264 0.62708 0.0
H961 H 0.44771 0.25231 0.87304 0.0
H962 H 0.48107 0.31347 0.83552 0.0
H963 H 0.44283 0.32061 0.81473 0.0
H964 H 0.41187 0.22558 0.82727 0.0
H965 H 0.38589 0.21887 0.84361 0.0
H966 H 0.41523 0.21989 0.85759 0.0
H967 H 0.40143 0.25474 0.88719 0.0
H968 H 0.37192 0.25366 0.87343 0.0
H969 H 0.38824 0.28406 0.87716 0.0
H970 H 0.40344 0.31742 0.79425 0.0
H971 H 0.36284 0.30725 0.77788 0.0
H972 H 0.35269 0.2504 0.82972 0.0
C973 C 0.44679 0.2676 0.86085 0.0
C974 C 0.46747 0.28231 0.85593 0.0
C975 C 0.46557 0.30193 0.83964 0.0
C976 C 0.44388 0.30617 0.82769 0.0
C977 C 0.42406 0.2909 0.8324 0.0
C978 C 0.42506 0.27232 0.84884 0.0
C979 C 0.4011 0.25806 0.84979 0.0
C980 C 0.40369 0.22887 0.84423 0.0
C981 C 0.39002 0.26293 0.87329 0.0
C982 C 0.38683 0.27102 0.83082 0.0
C983 C 0.40057 0.28986 0.82105 0.0
C984 C 0.39229 0.30312 0.80204 0.0
C985 C 0.3693 0.2971 0.79278 0.0
C986 C 0.35467 0.27827 0.80269 0.0
C987 C 0.36343 0.26523 0.82212 0.0
H988 H 0.00492 0.81214 0.45525 0.0
H989 H 0.04962 0.82295 0.39682 0.0
H990 H 0.05728 0.86837 0.40977 0.0
H991 H 0.9781 0.87396 0.45565 0.0
H992 H 0.97838 0.87846 0.48654 0.0
H993 H 0.977 0.84622 0.47347 0.0
H994 H 0.01488 0.83405 0.49746 0.0
H995 H 0.01629 0.86623 0.51071 0.0
H996 H 0.04181 0.85361 0.49624 0.0
H997 H 0.05745 0.91336 0.42671 0.0
H998 H 0.0532 0.95459 0.44885 0.0
H999 H 0.01053 0.91526 0.49805 0.0
C1000 C 0.01654 0.82396 0.44532 0.0
C1001 C 0.02662 0.81379 0.42493 0.0
C1002 C 0.04171 0.83006 0.4125 0.0
C1003 C 0.04615 0.856 0.41968 0.0
C1004 C 0.03566 0.86548 0.43955 0.0
C1005 C 0.02145 0.84995 0.45244 0.0
C1006 C 0.01235 0.86525 0.4731 0.0
C1007 C 0.98482 0.86601 0.47212 0.0
C1008 C 0.02191 0.85412 0.49572 0.0
C1009 C 0.02332 0.89187 0.46953 0.0
C1010 C 0.03656 0.89148 0.44995 0.0
C1011 C 0.0474 0.91384 0.44224 0.0
C1012 C 0.04478 0.93721 0.45489 0.0
C1013 C 0.03167 0.93815 0.47525 0.0
C1014 C 0.02092 0.91507 0.48272 0.0
H1015 H 0.46145 0.70521 0.70345 0.0
H1016 H 0.47999 0.70604 0.77616 0.0
H1017 H 0.44575 0.67648 0.78214 0.0
H1018 H 0.40736 0.71735 0.70737 0.0
H1019 H 0.39399 0.69734 0.68401 0.0
H1020 H 0.42472 0.70702 0.68326 0.0
H1021 H 0.43733 0.65927 0.67913 0.0
H1022 H 0.4063 0.64911 0.67953 0.0
H1023 H 0.42794 0.63629 0.69965 0.0
H1024 H 0.40446 0.66161 0.78257 0.0
H1025 H 0.36098 0.66612 0.77834 0.0
H1026 H 0.36665 0.67472 0.70506 0.0
C1027 C 0.45877 0.69802 0.72036 0.0
C1028 C 0.47305 0.70751 0.73934 0.0
C1029 C 0.46927 0.69843 0.76142 0.0
C1030 C 0.44994 0.68154 0.76486 0.0
C1031 C 0.4348 0.67396 0.74598 0.0
C1032 C 0.43931 0.68159 0.72396 0.0
C1033 C 0.41782 0.67645 0.70764 0.0
C1034 C 0.41055 0.70101 0.6949 0.0
C1035 C 0.42264 0.65393 0.69048 0.0
C1036 C 0.39945 0.66853 0.72457 0.0
C1037 C 0.40994 0.66556 0.74629 0.0
C1038 C 0.39615 0.66296 0.76555 0.0
C1039 C 0.37132 0.6655 0.76298 0.0
C1040 C 0.36058 0.67095 0.74132 0.0
C1041 C 0.3746 0.67046 0.72172 0.0
H1042 H 0.51663 0.19375 0.95798 0.0
H1043 H 0.57651 0.19879 0.91295 0.0
H1044 H 0.59511 0.16161 0.93175 0.0
H1045 H 0.55214 0.17482 0.00953 0.0
H1046 H 0.52876 0.15338 0.01845 0.0
H1047 H 0.52119 0.18175 0.0028 0.0
H1048 H 0.49725 0.15292 0.97214 0.0
H1049 H 0.50471 0.12455 0.98768 0.0
H1050 H 0.5119 0.12629 0.95786 0.0
H1051 H 0.60422 0.12022 0.95165 0.0
H1052 H 0.60438 0.07961 0.97299 0.0
H1053 H 0.54042 0.10333 0.00713 0.0
C1054 C 0.53383 0.18731 0.95228 0.0
C1055 C 0.54508 0.19923 0.93392 0.0
C1056 C 0.56759 0.19013 0.92702 0.0
C1057 C 0.57829 0.16899 0.9376 0.0
C1058 C 0.5665 0.15742 0.95535 0.0
C1059 C 0.54492 0.16649 0.96286 0.0
C1060 C 0.53548 0.15002 0.98166 0.0
C1061 C 0.53433 0.16595 0.00446 0.0
C1062 C 0.51089 0.13772 0.97439 0.0
C1063 C 0.55472 0.12975 0.98304 0.0
C1064 C 0.57248 0.13436 0.96772 0.0
C1065 C 0.59082 0.11682 0.96417 0.0
C1066 C 0.59083 0.09387 0.97635 0.0
C1067 C 0.57291 0.08894 0.99218 0.0
C1068 C 0.55487 0.10727 0.99581 0.0
H1069 H 0.12436 0.22831 0.14025 0.0
H1070 H 0.08538 0.19204 0.19371 0.0
H1071 H 0.10578 0.22126 0.22303 0.0
H1072 H 0.17928 0.23077 0.17175 0.0
H1073 H 0.18934 0.26104 0.16069 0.0
H1074 H 0.16868 0.24035 0.14374 0.0
H1075 H 0.1395 0.27856 0.14075 0.0
H1076 H 0.15966 0.2993 0.15837 0.0
H1077 H 0.12919 0.29443 0.16659 0.0
H1078 H 0.13205 0.2517 0.24669 0.0
H1079 H 0.16733 0.27548 0.26389 0.0
H1080 H 0.19151 0.2902 0.19551 0.0
C1081 C 0.11996 0.22683 0.15811 0.0
C1082 C 0.10243 0.20892 0.16469 0.0
C1083 C 0.09768 0.20678 0.18824 0.0
C1084 C 0.10928 0.22318 0.20501 0.0
C1085 C 0.12595 0.24124 0.19796 0.0
C1086 C 0.1317 0.2428 0.17514 0.0
C1087 C 0.15254 0.26143 0.17256 0.0
C1088 C 0.17371 0.24757 0.16155 0.0
C1089 C 0.14474 0.28483 0.15875 0.0
C1090 C 0.15815 0.26929 0.19757 0.0
C1091 C 0.14213 0.25802 0.21185 0.0
C1092 C 0.14459 0.26088 0.23572 0.0
C1093 C 0.16467 0.27451 0.24533 0.0
C1094 C 0.1822 0.28464 0.23103 0.0
C1095 C 0.17829 0.28292 0.20687 0.0
H1096 H 0.09945 0.07763 0.16383 0.0
H1097 H 0.09464 0.99571 0.17748 0.0
H1098 H 0.06096 0.99022 0.14886 0.0
H1099 H 0.03693 0.08887 0.15481 0.0
H1100 H 0.04061 0.11003 0.13125 0.0
H1101 H 0.0641 0.10796 0.15318 0.0
H1102 H 0.09458 0.09566 0.12228 0.0
H1103 H 0.07134 0.09843 0.10026 0.0
H1104 H 0.08776 0.0688 0.1022 0.0
H1105 H 0.02634 0.9941 0.12004 0.0
H1106 H -0.00076 0.00517 0.08722 0.0
H1107 H 0.02857 0.08353 0.09065 0.0
C1108 C 0.09145 0.0585 0.1606 0.0
C1109 C 0.09962 0.03712 0.17287 0.0
C1110 C 0.08881 0.01234 0.16811 0.0
C1111 C 0.06946 0.00908 0.15211 0.0
C1112 C 0.06137 0.0307 0.14077 0.0
C1113 C 0.07245 0.05478 0.14432 0.0
C1114 C 0.06133 0.07448 0.12877 0.0
C1115 C 0.05008 0.09664 0.14285 0.0
C1116 C 0.07985 0.08495 0.1124 0.0
C1117 C 0.0423 0.05771 0.11593 0.0
C1118 C 0.0422 0.03266 0.12346 0.0
C1119 C 0.02625 0.01364 0.11398 0.0
C1120 C 0.01074 0.02013 0.09558 0.0
C1121 C 0.01176 0.0452 0.08675 0.0
C1122 C 0.0273 0.06431 0.0974 0.0
H1123 H 0.31433 0.84005 0.48968 0.0
H1124 H 0.27149 0.90909 0.48423 0.0
H1125 H 0.26857 0.90211 0.44204 0.0
H1126 H 0.34756 0.84775 0.4399 0.0
H1127 H 0.34726 0.81381 0.43126 0.0
H1128 H 0.34541 0.82348 0.46121 0.0
H1129 H 0.30596 0.79677 0.46357 0.0
H1130 H 0.30788 0.78668 0.43371 0.0
H1131 H 0.28134 0.80233 0.44353 0.0
H1132 H 0.27319 0.88984 0.40026 0.0
H1133 H 0.27999 0.86936 0.36195 0.0
H1134 H 0.31767 0.80692 0.39442 0.0
C1135 C 0.30406 0.85351 0.47964 0.0
C1136 C 0.29316 0.87515 0.49031 0.0
C1137 C 0.27985 0.89227 0.47653 0.0
C1138 C 0.27823 0.88858 0.4525 0.0
C1139 C 0.28969 0.86746 0.44251 0.0
C1140 C 0.30191 0.84988 0.45564 0.0
C1141 C 0.31227 0.82856 0.44058 0.0
C1142 C 0.33976 0.82841 0.44341 0.0
C1143 C 0.30119 0.80201 0.44565 0.0
C1144 C 0.30427 0.83712 0.41692 0.0
C1145 C 0.29151 0.85979 0.41842 0.0
C1146 C 0.28295 0.87196 0.39887 0.0
C1147 C 0.28708 0.86034 0.37721 0.0
C1148 C 0.29938 0.83666 0.37531 0.0
C1149 C 0.30817 0.82501 0.39545 0.0
H1150 H 0.4425 0.98162 0.68498 0.0
H1151 H 0.3927 0.04526 0.68439 0.0
H1152 H 0.41285 0.06305 0.65122 0.0
H1153 H 0.49334 0.01804 0.67458 0.0
H1154 H 0.50682 0.99372 0.6564 0.0
H1155 H 0.48678 0.98413 0.6781 0.0
H1156 H 0.46021 0.95861 0.64729 0.0
H1157 H 0.48021 0.96789 0.62541 0.0
H1158 H 0.44878 0.97486 0.62242 0.0
H1159 H 0.4405 0.07533 0.61947 0.0
H1160 H 0.47119 0.07874 0.59002 0.0
H1161 H 0.50353 0.00836 0.61415 0.0
C1162 C 0.43538 0.99893 0.67756 0.0
C1163 C 0.41599 0.01202 0.68725 0.0
C1164 C 0.40748 0.03484 0.67717 0.0
C1165 C 0.41887 0.04516 0.6584 0.0
C1166 C 0.43869 0.03242 0.64999 0.0
C1167 C 0.44664 0.0096 0.65907 0.0
C1168 C 0.46894 0.00022 0.64774 0.0
C1169 C 0.49021 0.99898 0.66526 0.0
C1170 C 0.46423 0.97384 0.63495 0.0
C1171 C 0.47255 0.02157 0.63116 0.0
C1172 C 0.4549 0.03989 0.63248 0.0
C1173 C 0.45443 0.06108 0.61829 0.0
C1174 C 0.47203 0.06302 0.60179 0.0
C1175 C 0.48989 0.044 0.5999 0.0
C1176 C 0.49035 0.02347 0.61525 0.0
H1177 H 0.28178 0.15379 0.94168 0.0
H1178 H 0.32088 0.2107 0.98601 0.0
H1179 H 0.29943 0.24595 0.96675 0.0
H1180 H 0.28771 0.1869 0.89231 0.0
H1181 H 0.25892 0.17691 0.87956 0.0
H1182 H 0.27365 0.15696 0.90007 0.0
H1183 H 0.2359 0.15867 0.92473 0.0
H1184 H 0.22137 0.17936 0.90441 0.0
H1185 H 0.2247 0.18963 0.93435 0.0
H1186 H 0.27634 0.27474 0.94062 0.0
H1187 H 0.26137 0.29464 0.90521 0.0
H1188 H 0.24067 0.21819 0.87642 0.0
C1189 C 0.28544 0.17368 0.94761 0.0
C1190 C 0.30275 0.17968 0.96534 0.0
C1191 C 0.30765 0.20585 0.97234 0.0
C1192 C 0.29529 0.2259 0.96178 0.0
C1193 C 0.27825 0.21934 0.94425 0.0
C1194 C 0.27368 0.19383 0.93696 0.0
C1195 C 0.25778 0.19195 0.91537 0.0
C1196 C 0.27027 0.17735 0.89568 0.0
C1197 C 0.2335 0.17914 0.92 0.0
C1198 C 0.2551 0.22042 0.91091 0.0
C1199 C 0.26612 0.23593 0.92826 0.0
C1200 C 0.26762 0.26279 0.92694 0.0
C1201 C 0.2592 0.2739 0.90665 0.0
C1202 C 0.25034 0.25802 0.88762 0.0
C1203 C 0.24693 0.23115 0.89052 0.0
H1204 H 0.13157 0.0367 0.31807 0.0
H1205 H 0.07585 0.06946 0.27466 0.0
H1206 H 0.05432 0.08302 0.30916 0.0
H1207 H 0.09518 0.00976 0.35634 0.0
H1208 H 0.11415 0.01669 0.38169 0.0
H1209 H 0.12714 0.0134 0.354 0.0
H1210 H 0.14696 0.05907 0.36 0.0
H1211 H 0.13411 0.06246 0.38788 0.0
H1212 H 0.12868 0.08656 0.36681 0.0
H1213 H 0.03548 0.08569 0.34739 0.0
H1214 H 0.02231 0.08001 0.3871 0.0
H1215 H 0.09123 0.04799 0.40566 0.0
C1216 C 0.11523 0.0474 0.31582 0.0
C1217 C 0.10543 0.05205 0.2937 0.0
C1218 C 0.08377 0.06577 0.29148 0.0
C1219 C 0.07142 0.07362 0.31097 0.0
C1220 C 0.08121 0.06803 0.33253 0.0
C1221 C 0.10284 0.05563 0.33509 0.0
C1222 C 0.10853 0.05003 0.36 0.0
C1223 C 0.1114 0.02074 0.36318 0.0
C1224 C 0.1309 0.06546 0.36922 0.0
C1225 C 0.08617 0.06001 0.37087 0.0
C1226 C 0.07068 0.07053 0.3548 0.0
C1227 C 0.04772 0.07824 0.36029 0.0
C1228 C 0.04034 0.07487 0.38276 0.0
C1229 C 0.05601 0.06412 0.39933 0.0
C1230 C 0.07928 0.05707 0.3934 0.0
H1231 H 0.30337 0.82479 0.60881 0.0
H1232 H 0.23631 0.86459 0.59778 0.0
H1233 H 0.21808 0.83891 0.62758 0.0
H1234 H 0.2766 0.76058 0.6216 0.0
H1235 H 0.29955 0.75486 0.64335 0.0
H1236 H 0.30638 0.77387 0.61905 0.0
H1237 H 0.32145 0.81176 0.64678 0.0
H1238 H 0.31464 0.7929 0.67109 0.0
H1239 H 0.30185 0.82447 0.6682 0.0
H1240 H 0.20879 0.8133 0.66223 0.0
H1241 H 0.20914 0.789 0.69805 0.0
H1242 H 0.28165 0.76486 0.68567 0.0
C1243 C 0.28466 0.82767 0.61219 0.0
C1244 C 0.27131 0.84673 0.60079 0.0
C1245 C 0.24697 0.8501 0.60614 0.0
C1246 C 0.2364 0.83554 0.62306 0.0
C1247 C 0.25027 0.81745 0.63439 0.0
C1248 C 0.27381 0.81327 0.62902 0.0
C1249 C 0.28537 0.79412 0.64492 0.0
C1250 C 0.29238 0.76939 0.63142 0.0
C1251 C 0.3071 0.80657 0.65855 0.0
C1252 C 0.26488 0.78877 0.66049 0.0
C1253 C 0.24472 0.80226 0.65406 0.0
C1254 C 0.22429 0.8022 0.66712 0.0
C1255 C 0.22464 0.78835 0.68745 0.0
C1256 C 0.24524 0.77466 0.69448 0.0
C1257 C 0.26537 0.77451 0.68046 0.0
H1258 H 0.42401 0.00087 0.83467 0.0
H1259 H 0.47052 0.97556 0.78049 0.0
H1260 H 0.5011 0.96362 0.80979 0.0
H1261 H 0.46762 0.03051 0.87026 0.0
H1262 H 0.45523 0.02101 0.89686 0.0
H1263 H 0.43589 0.02425 0.87177 0.0
H1264 H 0.42037 0.97693 0.87497 0.0
H1265 H 0.4396 0.97361 0.90024 0.0
H1266 H 0.44147 0.95094 0.87603 0.0
H1267 H 0.52855 0.9599 0.84503 0.0
H1268 H 0.54944 0.96243 0.88351 0.0
H1269 H 0.48424 0.98959 0.91372 0.0
C1270 C 0.44032 0.99219 0.82892 0.0
C1271 C 0.44485 0.98906 0.80534 0.0
C1272 C 0.46664 0.97802 0.79853 0.0
C1273 C 0.48411 0.97116 0.81502 0.0
C1274 C 0.47934 0.97517 0.83819 0.0
C1275 C 0.45783 0.98513 0.84511 0.0
C1276 C 0.45762 0.98923 0.87092 0.0
C1277 C 0.45388 0.01795 0.87784 0.0
C1278 C 0.43864 0.97162 0.88114 0.0
C1279 C 0.48265 0.98084 0.8774 0.0
C1280 C 0.49492 0.97262 0.85838 0.0
C1281 C 0.51897 0.9658 0.86012 0.0
C1282 C 0.53072 0.96744 0.88193 0.0
C1283 C 0.5183 0.97577 0.90154 0.0
C1284 C 0.49397 0.98239 0.89913 0.0
H1285 H 0.34443 0.17905 0.07292 0.0
H1286 H 0.27508 0.14256 0.05546 0.0
H1287 H 0.25623 0.17275 0.0829 0.0
H1288 H 0.33437 0.19045 0.13395 0.0
H1289 H 0.35058 0.221 0.13535 0.0
H1290 H 0.35851 0.19579 0.11491 0.0
H1291 H 0.35281 0.22775 0.08196 0.0
H1292 H 0.34434 0.2529 0.10224 0.0
H1293 H 0.32452 0.24358 0.07801 0.0
H1294 H 0.24455 0.2085 0.11064 0.0
H1295 H 0.24181 0.24312 0.14092 0.0
H1296 H 0.31871 0.25608 0.14024 0.0
C1297 C 0.32533 0.17711 0.07507 0.0
C1298 C 0.31127 0.15841 0.06196 0.0
C1299 C 0.2863 0.1566 0.06536 0.0
C1300 C 0.27537 0.17381 0.08077 0.0
C1301 C 0.28965 0.19259 0.09278 0.0
C1302 C 0.31414 0.19402 0.09045 0.0
C1303 C 0.32546 0.21579 0.10558 0.0
C1304 C 0.34328 0.20511 0.12351 0.0
C1305 C 0.33749 0.23621 0.09107 0.0
C1306 C 0.30348 0.22644 0.11673 0.0
C1307 C 0.28297 0.21297 0.10894 0.0
C1308 C 0.2605 0.21918 0.11688 0.0
C1309 C 0.25908 0.23909 0.13387 0.0
C1310 C 0.28003 0.25238 0.14279 0.0
C1311 C 0.30241 0.24628 0.13368 0.0
H1312 H 0.2281 0.08491 0.01329 0.0
H1313 H 0.23114 0.09972 0.94049 0.0
H1314 H 0.18701 0.0996 0.93728 0.0
H1315 H 0.17692 0.04156 0.00834 0.0
H1316 H 0.16461 0.05336 0.03486 0.0
H1317 H 0.19649 0.05475 0.03143 0.0
H1318 H 0.19683 0.1042 0.0412 0.0
H1319 H 0.16493 0.10298 0.04456 0.0
H1320 H 0.1776 0.12482 0.02469 0.0
H1321 H 0.14262 0.09815 0.94198 0.0
H1322 H 0.1009 0.09355 0.95402 0.0
H1323 H 0.1269 0.07993 0.0237 0.0
C1324 C 0.21949 0.08804 0.99665 0.0
C1325 C 0.23306 0.09226 0.97713 0.0
C1326 C 0.22112 0.09631 0.95567 0.0
C1327 C 0.19606 0.09638 0.95367 0.0
C1328 C 0.18323 0.09231 0.97328 0.0
C1329 C 0.19451 0.08809 0.99433 0.0
C1330 C 0.17653 0.08397 0.01268 0.0
C1331 C 0.17878 0.05679 0.02239 0.0
C1332 C 0.17913 0.10527 0.03191 0.0
C1333 C 0.15339 0.08643 -0.00138 0.0
C1334 C 0.15764 0.09138 0.97597 0.0
C1335 C 0.13904 0.09434 0.95969 0.0
C1336 C 0.11543 0.09186 0.96671 0.0
C1337 C 0.11069 0.08641 0.98978 0.0
C1338 C 0.12999 0.08387 0.0059 0.0
H1339 H 0.72378 0.45416 0.02803 0.0
H1340 H 0.72665 0.41128 0.09079 0.0
H1341 H 0.68577 0.42502 0.09904 0.0
H1342 H 0.69062 0.50827 0.05005 0.0
H1343 H 0.67279 0.51168 0.02389 0.0
H1344 H 0.70244 0.49866 0.02268 0.0
H1345 H 0.68528 0.45743 0.0006 0.0
H1346 H 0.65561 0.47043 0.0016 0.0
H1347 H 0.66153 0.43901 0.01277 0.0
H1348 H 0.64509 0.44375 0.10106 0.0
H1349 H 0.60583 0.46395 0.09544 0.0
H1350 H 0.62836 0.49424 0.03097 0.0
C1351 C 0.7158 0.44761 0.04348 0.0
C1352 C 0.72853 0.43166 0.05879 0.0
C1353 C 0.71733 0.42346 0.07877 0.0
C1354 C 0.69412 0.43124 0.08367 0.0
C1355 C 0.68219 0.44713 0.06839 0.0
C1356 C 0.69249 0.45507 0.04859 0.0
C1357 C 0.67545 0.47172 0.03486 0.0
C1358 C 0.68596 0.49921 0.03275 0.0
C1359 C 0.66909 0.45887 0.01105 0.0
C1360 C 0.65401 0.47189 0.05008 0.0
C1361 C 0.65841 0.4577 0.06939 0.0
C1362 C 0.6414 0.45488 0.086 0.0
C1363 C 0.61914 0.4665 0.08264 0.0
C1364 C 0.61392 0.48073 0.06276 0.0
C1365 C 0.63178 0.48362 0.0464 0.0
H1366 H 0.83696 0.45009 0.2835 0.0
H1367 H 0.90158 0.43079 0.24802 0.0
H1368 H 0.88795 0.38491 0.24422 0.0
H1369 H 0.83379 0.39538 0.31609 0.0
H1370 H 0.80165 0.39149 0.31378 0.0
H1371 H 0.81523 0.42315 0.3118 0.0
H1372 H 0.79355 0.42852 0.27213 0.0
H1373 H 0.77956 0.39702 0.27414 0.0
H1374 H 0.79673 0.40409 0.24949 0.0
H1375 H 0.86964 0.34073 0.24864 0.0
H1376 H 0.8456 0.30178 0.25646 0.0
H1377 H 0.79197 0.35032 0.28754 0.0
C1378 C 0.84805 0.43629 0.27456 0.0
C1379 C 0.87035 0.44391 0.26609 0.0
C1380 C 0.88435 0.42535 0.25446 0.0
C1381 C 0.87681 0.39927 0.25234 0.0
C1382 C 0.85508 0.39228 0.26157 0.0
C1383 C 0.84066 0.41034 0.27202 0.0
C1384 C 0.81839 0.39776 0.28098 0.0
C1385 C 0.81722 0.40221 0.30722 0.0
C1386 C 0.79572 0.40742 0.26843 0.0
C1387 C 0.82285 0.36965 0.27454 0.0
C1388 C 0.84414 0.3669 0.26343 0.0
C1389 C 0.85276 0.34266 0.25698 0.0
C1390 C 0.83906 0.32067 0.26168 0.0
C1391 C 0.8169 0.32309 0.27256 0.0
C1392 C 0.80874 0.34793 0.27904 0.0
H1393 H 0.89053 0.51542 0.50486 0.0
H1394 H 0.89265 0.59946 0.50625 0.0
H1395 H 0.93491 0.59939 0.52053 0.0
H1396 H 0.93055 0.50634 0.55526 0.0
H1397 H 0.94456 0.47873 0.54187 0.0
H1398 H 0.91374 0.48563 0.53456 0.0
H1399 H 0.9235 0.48653 0.49134 0.0
H1400 H 0.95419 0.47938 0.49851 0.0
H1401 H 0.94718 0.50771 0.48262 0.0
H1402 H 0.978 0.58967 0.53239 0.0
H1403 H 0.01857 0.57114 0.53632 0.0
H1404 H 0.98768 0.49382 0.52569 0.0
C1405 C 0.89975 0.53384 0.50858 0.0
C1406 C 0.88833 0.55744 0.50457 0.0
C1407 C 0.90111 0.58114 0.50907 0.0
C1408 C 0.92504 0.58128 0.51743 0.0
C1409 C 0.93587 0.55757 0.52105 0.0
C1410 C 0.92363 0.53428 0.51653 0.0
C1411 C 0.9398 0.51141 0.5194 0.0
C1412 C 0.93167 0.49454 0.53894 0.0
C1413 C 0.94125 0.49534 0.49662 0.0
C1414 C 0.96319 0.52541 0.52586 0.0
C1415 C 0.96058 0.55201 0.52721 0.0
C1416 C 0.98018 0.56887 0.53168 0.0
C1417 C 0.0031 0.55823 0.53405 0.0
C1418 C 0.00603 0.53113 0.53149 0.0
C1419 C 0.98578 0.51461 0.52798 0.0
H1420 H 0.19381 0.105 0.28633 0.0
H1421 H 0.18939 0.08554 0.21304 0.0
H1422 H 0.21182 0.1261 0.20583 0.0
H1423 H 0.18336 0.17194 0.28111 0.0
H1424 H 0.20311 0.18193 0.30519 0.0
H1425 H 0.18863 0.15049 0.30441 0.0
H1426 H 0.23002 0.12901 0.30932 0.0
H1427 H 0.24466 0.16043 0.30988 0.0
H1428 H 0.25293 0.13553 0.28924 0.0
H1429 H 0.23422 0.16921 0.20689 0.0
H1430 H 0.25022 0.21354 0.21526 0.0
H1431 H 0.23805 0.20531 0.28787 0.0
C1432 C 0.19781 0.10906 0.26876 0.0
C1433 C 0.19014 0.09198 0.25023 0.0
C1434 C 0.19519 0.09834 0.22746 0.0
C1435 C 0.20803 0.12121 0.22325 0.0
C1436 C 0.21545 0.13755 0.24198 0.0
C1437 C 0.21022 0.13189 0.26425 0.0
C1438 C 0.21847 0.15352 0.28122 0.0
C1439 C 0.19712 0.16515 0.29371 0.0
C1440 C 0.23766 0.14405 0.29843 0.0
C1441 C 0.22901 0.17244 0.26503 0.0
C1442 C 0.22748 0.1627 0.24252 0.0
C1443 C 0.23555 0.17697 0.22445 0.0
C1444 C 0.24474 0.20212 0.22943 0.0
C1445 C 0.24545 0.21293 0.25226 0.0
C1446 C 0.23793 0.19758 0.27029 0.0
H1447 H 0.36957 0.9279 0.56471 0.0
H1448 H 0.32819 0.96912 0.5136 0.0
H1449 H 0.3653 0.98682 0.49865 0.0
H1450 H 0.41152 0.97769 0.57803 0.0
H1451 H 0.43699 0.95706 0.58159 0.0
H1452 H 0.40742 0.94474 0.58654 0.0
H1453 H 0.41355 0.9069 0.5568 0.0
H1454 H 0.44317 0.91936 0.55186 0.0
H1455 H 0.4218 0.91397 0.52804 0.0
H1456 H 0.4057 0.00464 0.4923 0.0
H1457 H 0.44763 0.02083 0.49475 0.0
H1458 H 0.46363 0.96767 0.549 0.0
C1459 C 0.36844 0.94015 0.55004 0.0
C1460 C 0.34601 0.94713 0.54032 0.0
C1461 C 0.34517 0.96359 0.5214 0.0
C1462 C 0.36616 0.97366 0.51266 0.0
C1463 C 0.38796 0.96702 0.52292 0.0
C1464 C 0.38936 0.95055 0.54111 0.0
C1465 C 0.41507 0.94832 0.55009 0.0
C1466 C 0.41789 0.95751 0.57556 0.0
C1467 C 0.42392 0.92048 0.54647 0.0
C1468 C 0.42759 0.96677 0.53461 0.0
C1469 C 0.41164 0.97713 0.51893 0.0
C1470 C 0.41852 0.99629 0.50416 0.0
C1471 C 0.44232 0.00542 0.50569 0.0
C1472 C 0.4589 0.99528 0.52181 0.0
C1473 C 0.45148 0.97535 0.5361 0.0
H1474 H 0.83078 0.5715 0.27999 0.0
H1475 H 0.86851 0.56726 0.21617 0.0
H1476 H 0.84573 0.60452 0.20244 0.0
H1477 H 0.77205 0.59758 0.25538 0.0
H1478 H 0.76906 0.61809 0.28087 0.0
H1479 H 0.78307 0.58701 0.28292 0.0
H1480 H 0.82064 0.60953 0.30282 0.0
H1481 H 0.80695 0.64054 0.30062 0.0
H1482 H 0.83574 0.63512 0.28852 0.0
H1483 H 0.82606 0.64695 0.19929 0.0
H1484 H 0.81123 0.69096 0.20685 0.0
H1485 H 0.78683 0.66821 0.27313 0.0
C1486 C 0.83365 0.57771 0.26275 0.0
C1487 C 0.85144 0.56643 0.24916 0.0
C1488 C 0.85491 0.5755 0.22687 0.0
C1489 C 0.84196 0.5966 0.21888 0.0
C1490 C 0.82547 0.60816 0.23328 0.0
C1491 C 0.82108 0.59882 0.25467 0.0
C1492 C 0.80545 0.61692 0.26834 0.0
C1493 C 0.78095 0.60414 0.27209 0.0
C1494 C 0.81796 0.62606 0.29141 0.0
C1495 C 0.80312 0.63881 0.25197 0.0
C1496 C 0.8142 0.63306 0.23157 0.0
C1497 C 0.8168 0.65141 0.21491 0.0
C1498 C 0.80844 0.67642 0.21944 0.0
C1499 C 0.79785 0.68294 0.24059 0.0
C1500 C 0.79449 0.66363 0.25667 0.0
H1501 H 0.69206 0.43398 0.74395 0.0
H1502 H 0.73068 0.47164 0.80251 0.0
H1503 H 0.76336 0.44068 0.79841 0.0
H1504 H 0.70154 0.37358 0.75894 0.0
H1505 H 0.70534 0.35899 0.73069 0.0
H1506 H 0.68829 0.38795 0.73383 0.0
H1507 H 0.71573 0.41119 0.7059 0.0
H1508 H 0.73285 0.38208 0.70253 0.0
H1509 H 0.74769 0.41227 0.71158 0.0
H1510 H 0.78606 0.40041 0.79467 0.0
H1511 H 0.7981 0.35474 0.78997 0.0
H1512 H 0.74625 0.34333 0.7329 0.0
C1513 C 0.70793 0.4364 0.75516 0.0
C1514 C 0.70891 0.4552 0.77346 0.0
C1515 C 0.72959 0.45734 0.78835 0.0
C1516 C 0.74833 0.43994 0.78607 0.0
C1517 C 0.74628 0.42065 0.76867 0.0
C1518 C 0.72679 0.419 0.75319 0.0
C1519 C 0.72722 0.39427 0.73832 0.0
C1520 C 0.70425 0.37774 0.74061 0.0
C1521 C 0.73111 0.40032 0.71308 0.0
C1522 C 0.74896 0.38151 0.74897 0.0
C1523 C 0.76 0.39726 0.76615 0.0
C1524 C 0.77817 0.38821 0.78073 0.0
C1525 C 0.78483 0.36224 0.77803 0.0
C1526 C 0.77338 0.34573 0.76084 0.0
C1527 C 0.75584 0.35579 0.74569 0.0
H1528 H 0.94354 0.87078 0.95426 0.0
H1529 H 0.01266 0.86003 0.92388 0.0
H1530 H 0.02742 0.90109 0.94263 0.0
H1531 H 0.94181 0.93994 0.9487 0.0
H1532 H 0.92765 0.94564 0.97569 0.0
H1533 H 0.9226 0.91532 0.95973 0.0
H1534 H 0.937 0.89063 0.99555 0.0
H1535 H 0.9424 0.92094 0.0115 0.0
H1536 H 0.96621 0.89805 0.00869 0.0
H1537 H 0.03474 0.94373 0.96453 0.0
H1538 H 0.03297 0.98579 0.98632 0.0
H1539 H 0.95956 0.96783 0.00289 0.0
C1540 C 0.96174 0.87708 0.95143 0.0
C1541 C 0.97685 0.86211 0.9375 0.0
C1542 C 0.00061 0.87112 0.93436 0.0
C1543 C 0.00926 0.89441 0.94504 0.0
C1544 C 0.994 0.90849 0.95889 0.0
C1545 C 0.97071 0.90026 0.96201 0.0
C1546 C 0.95789 0.91921 0.9775 0.0
C1547 C 0.93621 0.93071 0.96463 0.0
C1548 C 0.95044 0.90643 -0.00038 0.0
C1549 C 0.97759 0.93936 0.9825 0.0
C1550 C -0.00168 0.93284 0.97169 0.0
C1551 C 0.01864 0.94901 0.9732 0.0
C1552 C 0.01752 0.97278 0.98568 0.0
C1553 C 0.99621 0.98005 0.99642 0.0
C1554 C 0.97623 0.96279 0.9951 0.0
H1555 H 0.93729 0.26513 0.67253 0.0
H1556 H 0.97612 0.22424 0.72563 0.0
H1557 H 0.93991 0.22298 0.74832 0.0
H1558 H 0.9031 0.30439 0.70899 0.0
H1559 H 0.87582 0.30216 0.69137 0.0
H1560 H 0.90432 0.29873 0.67828 0.0
H1561 H 0.89073 0.25404 0.66001 0.0
H1562 H 0.86204 0.25748 0.67281 0.0
H1563 H 0.87974 0.22932 0.67814 0.0
H1564 H 0.90124 0.23038 0.76735 0.0
H1565 H 0.86031 0.24025 0.77909 0.0
H1566 H 0.84483 0.27335 0.71285 0.0
C1567 C 0.93803 0.25548 0.68872 0.0
C1568 C 0.95964 0.24481 0.69727 0.0
C1569 C 0.95983 0.23246 0.7186 0.0
C1570 C 0.93935 0.23174 0.73172 0.0
C1571 C 0.91858 0.24305 0.72315 0.0
C1572 C 0.91752 0.25416 0.70192 0.0
C1573 C 0.89279 0.26485 0.69683 0.0
C1574 C 0.8941 0.29428 0.69369 0.0
C1575 C 0.8806 0.25057 0.67569 0.0
C1576 C 0.88038 0.25855 0.71875 0.0
C1577 C 0.89572 0.24618 0.73375 0.0
C1578 C 0.88892 0.23968 0.75561 0.0
C1579 C 0.8657 0.24555 0.7622 0.0
C1580 C 0.84936 0.25746 0.74688 0.0
C1581 C 0.85687 0.26402 0.72485 0.0
H1582 H 0.50065 0.24735 0.4173 0.0
H1583 H 0.45986 0.28988 0.46781 0.0
H1584 H 0.46422 0.254 0.49427 0.0
H1585 H 0.47454 0.18664 0.42603 0.0
H1586 H 0.50138 0.16827 0.42246 0.0
H1587 H 0.49783 0.19846 0.40837 0.0
H1588 H 0.53768 0.21615 0.42776 0.0
H1589 H 0.54154 0.18585 0.44168 0.0
H1590 H 0.54186 0.21586 0.45863 0.0
H1591 H 0.47008 0.21275 0.51392 0.0
H1592 H 0.4781 0.16847 0.52625 0.0
H1593 H 0.51444 0.15186 0.4629 0.0
C1594 C 0.49322 0.24935 0.43417 0.0
C1595 C 0.48008 0.27143 0.44063 0.0
C1596 C 0.47004 0.27312 0.46259 0.0
C1597 C 0.47244 0.25288 0.47774 0.0
C1598 C 0.48485 0.23105 0.47062 0.0
C1599 C 0.4952 0.22913 0.44944 0.0
C1600 C 0.50618 0.20276 0.44548 0.0
C1601 C 0.49426 0.18818 0.42433 0.0
C1602 C 0.53343 0.20532 0.44327 0.0
C1603 C 0.5 0.19008 0.46757 0.0
C1604 C 0.48788 0.20686 0.48188 0.0
C1605 C 0.4798 0.1995 0.50302 0.0
C1606 C 0.48446 0.17435 0.50987 0.0
C1607 C 0.49698 0.15683 0.49558 0.0
C1608 C 0.50472 0.16482 0.4741 0.0
H1609 H 0.60298 0.74527 0.21783 0.0
H1610 H 0.60548 0.79601 0.16022 0.0
H1611 H 0.64967 0.79722 0.16385 0.0
H1612 H 0.65061 0.77699 0.25116 0.0
H1613 H 0.66213 0.74748 0.26248 0.0
H1614 H 0.63081 0.74954 0.25443 0.0
H1615 H 0.63406 0.70885 0.22722 0.0
H1616 H 0.66546 0.70679 0.23508 0.0
H1617 H 0.65593 0.70857 0.20524 0.0
H1618 H 0.6939 0.79308 0.17404 0.0
H1619 H 0.73415 0.78689 0.19216 0.0
H1620 H 0.70226 0.7401 0.24366 0.0
C1621 C 0.61281 0.75652 0.20589 0.0
C1622 C 0.60076 0.77045 0.18869 0.0
C1623 C 0.61431 0.78519 0.17357 0.0
C1624 C 0.63943 0.7859 0.17541 0.0
C1625 C 0.65076 0.77189 0.19253 0.0
C1626 C 0.63787 0.75767 0.20764 0.0
C1627 C 0.65428 0.74539 0.22524 0.0
C1628 C 0.64915 0.75546 0.24977 0.0
C1629 C 0.65231 0.71563 0.22305 0.0
C1630 C 0.67838 0.7551 0.21781 0.0
C1631 C 0.67606 0.77007 0.19873 0.0
C1632 C 0.69594 0.78136 0.18898 0.0
C1633 C 0.71872 0.77765 0.1993 0.0
C1634 C 0.72133 0.76306 0.21931 0.0
C1635 C 0.70086 0.75139 0.22839 0.0
H1636 H 0.01859 0.17405 0.63168 0.0
H1637 H 0.99619 0.22387 0.57683 0.0
H1638 H 0.00206 0.18825 0.54821 0.0
H1639 H 0.06329 0.13761 0.6004 0.0
H1640 H 0.05551 0.107 0.61226 0.0
H1641 H 0.05119 0.13681 0.62864 0.0
H1642 H 0.00649 0.12442 0.63261 0.0
H1643 H 0.01068 0.09458 0.61626 0.0
H1644 H 0.98799 0.11676 0.60708 0.0
H1645 H 0.01047 0.14818 0.52552 0.0
H1646 H 0.01755 0.10432 0.5097 0.0
H1647 H 0.03178 0.07786 0.57878 0.0
C1648 C 0.0152 0.17743 0.61361 0.0
C1649 C 0.00715 0.20182 0.6064 0.0
C1650 C 0.00239 0.20539 0.58269 0.0
C1651 C 0.00575 0.1853 0.56631 0.0
C1652 C 0.01352 0.16149 0.57389 0.0
C1653 C 0.01792 0.15725 0.59695 0.0
C1654 C 0.0247 0.12915 0.60033 0.0
C1655 C 0.05019 0.12756 0.61104 0.0
C1656 C 0.00637 0.11542 0.61493 0.0
C1657 C 0.02345 0.11842 0.57556 0.0
C1658 C 0.01727 0.13764 0.56068 0.0
C1659 C 0.01524 0.13293 0.53698 0.0
C1660 C 0.01939 0.10787 0.52816 0.0
C1661 C 0.02523 0.0875 0.54293 0.0
C1662 C 0.0273 0.09294 0.56702 0.0
H1663 H 0.57034 0.31563 0.36349 0.0
H1664 H 0.52771 0.32587 0.3006 0.0
H1665 H 0.56446 0.32917 0.27893 0.0
H1666 H 0.62093 0.35867 0.34999 0.0
H1667 H 0.64303 0.33765 0.36224 0.0
H1668 H 0.61348 0.33878 0.37355 0.0
H1669 H 0.6085 0.28903 0.36654 0.0
H1670 H 0.63804 0.28776 0.35537 0.0
H1671 H 0.6127 0.27492 0.33817 0.0
H1672 H 0.6051 0.32835 0.26342 0.0
H1673 H 0.64743 0.32106 0.25478 0.0
H1674 H 0.66398 0.31042 0.32725 0.0
C1675 C 0.56882 0.31894 0.34524 0.0
C1676 C 0.5462 0.32056 0.33375 0.0
C1677 C 0.54486 0.32449 0.30977 0.0
C1678 C 0.56563 0.32659 0.2973 0.0
C1679 C 0.58765 0.32469 0.30903 0.0
C1680 C 0.58945 0.32085 0.33242 0.0
C1681 C 0.61529 0.31743 0.3404 0.0
C1682 C 0.62367 0.33945 0.35756 0.0
C1683 C 0.61883 0.29069 0.35072 0.0
C1684 C 0.62756 0.31934 0.31775 0.0
C1685 C 0.6113 0.32392 0.29995 0.0
C1686 C 0.61809 0.32502 0.27722 0.0
C1687 C 0.6421 0.32076 0.27246 0.0
C1688 C 0.65896 0.31533 0.29034 0.0
C1689 C 0.65161 0.31513 0.31331 0.0
H1690 H 0.54529 0.85017 0.12109 0.0
H1691 H 0.5061 0.80572 0.06658 0.0
H1692 H 0.5138 0.84049 0.0397 0.0
H1693 H 0.52172 0.9096 0.10775 0.0
H1694 H 0.54862 0.92863 0.11449 0.0
H1695 H 0.54367 0.89872 0.12859 0.0
H1696 H 0.58415 0.8815 0.11472 0.0
H1697 H 0.58939 0.91156 0.10081 0.0
H1698 H 0.59013 0.88118 0.08449 0.0
H1699 H 0.52239 0.88127 0.01987 0.0
H1700 H 0.53113 0.9256 0.00811 0.0
H1701 H 0.5632 0.94488 0.07599 0.0
C1702 C 0.53904 0.8474 0.10329 0.0
C1703 C 0.52541 0.82509 0.09577 0.0
C1704 C 0.51676 0.82256 0.07259 0.0
C1705 C 0.52106 0.84218 0.05722 0.0
C1706 C 0.5339 0.86429 0.06536 0.0
C1707 C 0.54284 0.86702 0.08782 0.0
C1708 C 0.55405 0.89375 0.09274 0.0
C1709 C 0.54124 0.90854 0.11203 0.0
C1710 C 0.58103 0.89188 0.09853 0.0
C1711 C 0.54948 0.90581 0.0697 0.0
C1712 C 0.53816 0.88831 0.05408 0.0
C1713 C 0.53145 0.89507 0.03187 0.0
C1714 C 0.53644 0.92036 0.02539 0.0
C1715 C 0.54783 0.93877 0.04114 0.0
C1716 C 0.55447 0.93128 0.06357 0.0
H1717 H 0.90382 0.78318 0.87868 0.0
H1718 H 0.95575 0.78749 0.82528 0.0
H1719 H 0.92447 0.77437 0.79602 0.0
H1720 H 0.8705 0.72877 0.85591 0.0
H1721 H 0.8415 0.74096 0.86278 0.0
H1722 H 0.86765 0.75141 0.88001 0.0
H1723 H 0.85852 0.79949 0.87254 0.0
H1724 H 0.83201 0.78919 0.8558 0.0
H1725 H 0.85423 0.80948 0.84335 0.0
H1726 H 0.88911 0.7567 0.77313 0.0
H1727 H 0.84907 0.7452 0.75617 0.0
H1728 H 0.81883 0.75555 0.82349 0.0
C1729 C 0.90845 0.78181 0.86078 0.0
C1730 C 0.93222 0.78623 0.85427 0.0
C1731 C 0.93764 0.78433 0.83068 0.0
C1732 C 0.92006 0.77663 0.81393 0.0
C1733 C 0.89704 0.77143 0.82098 0.0
C1734 C 0.89094 0.77473 0.84368 0.0
C1735 C 0.86453 0.76888 0.84633 0.0
C1736 C 0.86084 0.74615 0.8622 0.0
C1737 C 0.85156 0.79321 0.85501 0.0
C1738 C 0.85696 0.76138 0.82162 0.0
C1739 C 0.87614 0.76254 0.80741 0.0
C1740 C 0.87385 0.75598 0.78399 0.0
C1741 C 0.85107 0.74919 0.77457 0.0
C1742 C 0.83087 0.74948 0.78852 0.0
C1743 C 0.83399 0.75509 0.81244 0.0
H1744 H 0.8967 0.01794 0.8605 0.0
H1745 H 0.96421 0.01542 0.82603 0.0
H1746 H 0.98562 0.0295 0.86229 0.0
H1747 H 0.90818 0.07314 0.89477 0.0
H1748 H 0.89462 0.06202 0.92028 0.0
H1749 H 0.88428 0.04915 0.89236 0.0
H1750 H 0.89254 0.00229 0.90459 0.0
H1751 H 0.90217 0.01495 0.93282 0.0
H1752 H 0.92173 0.99459 0.91645 0.0
H1753 H -0.00123 0.05003 0.89988 0.0
H1754 H 0.00496 0.06576 0.94007 0.0
H1755 H 0.9294 0.05225 0.95149 0.0
C1756 C 0.91604 0.01963 0.86075 0.0
C1757 C 0.92881 0.01573 0.84047 0.0
C1758 C 0.9541 0.01817 0.84142 0.0
C1759 C 0.9664 0.02639 0.86186 0.0
C1760 C 0.95316 0.03148 0.88123 0.0
C1761 C 0.92867 0.02733 0.88115 0.0
C1762 C 0.91885 0.03424 0.90447 0.0
C1763 C 0.90039 0.05593 0.90285 0.0
C1764 C 0.9082 0.01008 0.91522 0.0
C1765 C 0.94157 0.0437 0.91739 0.0
C1766 C 0.96104 0.04221 0.90351 0.0
C1767 C 0.98379 0.05081 0.91111 0.0
C1768 C 0.98702 0.05999 0.93393 0.0
C1769 C 0.96767 0.06008 0.94899 0.0
C1770 C 0.94452 0.05241 0.9404 0.0
H1771 H 0.80958 0.18316 0.54736 0.0
H1772 H 0.77743 0.10819 0.55983 0.0
H1773 H 0.76301 0.12544 0.59687 0.0
H1774 H 0.8274 0.20146 0.60703 0.0
H1775 H 0.81961 0.23495 0.6042 0.0
H1776 H 0.82912 0.21618 0.57954 0.0
H1777 H 0.78995 0.22751 0.5571 0.0
H1778 H 0.78021 0.24607 0.58176 0.0
H1779 H 0.76147 0.22012 0.56906 0.0
H1780 H 0.75226 0.15035 0.63215 0.0
H1781 H 0.74522 0.18145 0.66386 0.0
H1782 H 0.78026 0.24215 0.62682 0.0
C1783 C 0.79996 0.17033 0.55819 0.0
C1784 C 0.79489 0.14428 0.55105 0.0
C1785 C 0.78162 0.12815 0.56521 0.0
C1786 C 0.77334 0.13777 0.5862 0.0
C1787 C 0.77816 0.16366 0.59257 0.0
C1788 C 0.79107 0.17979 0.57903 0.0
C1789 C 0.79256 0.20721 0.58944 0.0
C1790 C 0.81873 0.21543 0.59541 0.0
C1791 C 0.78031 0.22635 0.57338 0.0
C1792 C 0.77859 0.20384 0.61097 0.0
C1793 C 0.77063 0.17853 0.61245 0.0
C1794 C 0.75809 0.17035 0.63107 0.0
C1795 C 0.75386 0.18843 0.64893 0.0
C1796 C 0.76174 0.21468 0.64796 0.0
C1797 C 0.77402 0.22238 0.62841 0.0
H1798 H 0.59447 0.0257 0.37269 0.0
H1799 H 0.65406 0.97805 0.39394 0.0
H1800 H 0.63826 0.97634 0.43275 0.0
H1801 H 0.59173 0.0628 0.42799 0.0
H1802 H 0.55951 0.06434 0.42615 0.0
H1803 H 0.57618 0.06291 0.40026 0.0
H1804 H 0.55107 0.02245 0.38564 0.0
H1805 H 0.53459 0.0235 0.41162 0.0
H1806 H 0.54994 0.99444 0.40313 0.0
H1807 H 0.61445 0.97617 0.46772 0.0
H1808 H 0.58655 0.9825 0.49909 0.0
H1809 H 0.54333 0.03227 0.45638 0.0
C1810 C 0.60435 0.01525 0.38563 0.0
C1811 C 0.62544 0.00196 0.38032 0.0
C1812 C 0.63792 0.98847 0.39766 0.0
C1813 C 0.62904 0.98727 0.41973 0.0
C1814 C 0.60789 -3e-05 0.42424 0.0
C1815 C 0.59592 0.01415 0.40789 0.0
C1816 C 0.57355 0.026 0.41738 0.0
C1817 C 0.57536 0.05578 0.41798 0.0
C1818 C 0.55095 0.01599 0.40362 0.0
C1819 C 0.57459 0.01575 0.44141 0.0
C1820 C 0.59447 0.00062 0.44488 0.0
C1821 C 0.59893 0.98817 0.46533 0.0
C1822 C 0.58285 0.99169 0.48295 0.0
C1823 C 0.56278 0.00779 0.48007 0.0
C1824 C 0.55857 0.01989 0.459 0.0
H1825 H 0.84595 0.84717 0.06289 0.0
H1826 H 0.79099 0.79227 0.03727 0.0
H1827 H 0.80739 0.75961 0.06289 0.0
H1828 H 0.89331 0.79593 0.08572 0.0
H1829 H 0.89947 0.8174 0.11052 0.0
H1830 H 0.89339 0.83054 0.08266 0.0
H1831 H 0.8597 0.858 0.0999 0.0
H1832 H 0.86531 0.8448 0.1274 0.0
H1833 H 0.83567 0.84196 0.11396 0.0
H1834 H 0.81838 0.73997 0.0987 0.0
H1835 H 0.81984 0.73728 0.1409 0.0
H1836 H 0.86401 0.80683 0.14749 0.0
C1837 C 0.83845 0.82767 0.06164 0.0
C1838 C 0.8174 0.82207 0.04808 0.0
C1839 C 0.80732 0.79678 0.04739 0.0
C1840 C 0.81665 0.77809 0.0619 0.0
C1841 C 0.83579 0.78515 0.07721 0.0
C1842 C 0.8468 0.80943 0.07699 0.0
C1843 C 0.86174 0.81536 0.09896 0.0
C1844 C 0.88857 0.81476 0.09418 0.0
C1845 C 0.85514 0.84152 0.11072 0.0
C1846 C 0.85459 0.79253 0.11284 0.0
C1847 C 0.84114 0.77436 0.09942 0.0
C1848 C 0.82952 0.75356 0.10915 0.0
C1849 C 0.83037 0.75217 0.13313 0.0
C1850 C 0.84228 0.77177 0.14703 0.0
C1851 C 0.85542 0.7914 0.13685 0.0
H1852 H 0.93215 0.02256 0.70666 0.0
H1853 H 0.92362 0.94233 0.72485 0.0
H1854 H 0.94474 0.92814 0.69018 0.0
H1855 H 0.92632 0.01156 0.64382 0.0
H1856 H 0.94899 0.03569 0.63873 0.0
H1857 H 0.93092 0.03914 0.66359 0.0
H1858 H 0.96952 0.0425 0.68985 0.0
H1859 H 0.98768 0.03863 0.66512 0.0
H1860 H 0.99099 0.01687 0.68845 0.0
H1861 H 0.96822 0.92283 0.65449 0.0
H1862 H 0.99245 0.92706 0.61998 0.0
H1863 H 0.98733 0.01074 0.62665 0.0
C1864 C 0.93424 0.002 0.70299 0.0
C1865 C 0.92616 0.98348 0.71819 0.0
C1866 C 0.9297 0.95677 0.71327 0.0
C1867 C 0.94163 0.94853 0.69367 0.0
C1868 C 0.95003 0.96731 0.67933 0.0
C1869 C 0.94646 0.99348 0.6837 0.0
C1870 C 0.9586 0.00976 0.66638 0.0
C1871 C 0.9401 0.02492 0.65229 0.0
C1872 C 0.97784 0.02801 0.67817 0.0
C1873 C 0.96973 0.98868 0.65179 0.0
C1874 C 0.96441 0.9643 0.65936 0.0
C1875 C 0.97255 0.94181 0.64838 0.0
C1876 C 0.98631 0.94435 0.62893 0.0
C1877 C 0.99197 0.96919 0.62104 0.0
C1878 C 0.98366 0.99155 0.6327 0.0
H1879 H 0.82129 0.18316 0.43365 0.0
H1880 H 0.74692 0.17824 0.45207 0.0
H1881 H 0.73654 0.21031 0.42291 0.0
H1882 H 0.82295 0.25265 0.4176 0.0
H1883 H 0.84169 0.24522 0.39378 0.0
H1884 H 0.844 0.22666 0.41935 0.0
H1885 H 0.83615 0.18424 0.39457 0.0
H1886 H 0.83385 0.20261 0.36906 0.0
H1887 H 0.80956 0.18123 0.376 0.0
H1888 H 0.73367 0.2385 0.38858 0.0
H1889 H 0.73759 0.25621 0.35009 0.0
H1890 H 0.81357 0.24019 0.35319 0.0
C1891 C 0.80293 0.18947 0.43218 0.0
C1892 C 0.78495 0.17852 0.44537 0.0
C1893 C 0.761 0.18659 0.44227 0.0
C1894 C 0.75499 0.2049 0.42586 0.0
C1895 C 0.77314 0.21481 0.4127 0.0
C1896 C 0.79662 0.20724 0.41567 0.0
C1897 C 0.81217 0.21741 0.3972 0.0
C1898 C 0.83134 0.23663 0.40761 0.0
C1899 C 0.82358 0.19504 0.3834 0.0
C1900 C 0.79361 0.23106 0.38278 0.0
C1901 C 0.77134 0.23006 0.39233 0.0
C1902 C 0.75109 0.23975 0.38114 0.0
C1903 C 0.75351 0.24984 0.35931 0.0
C1904 C 0.77592 0.24959 0.34872 0.0
C1905 C 0.79629 0.24085 0.36098 0.0
H1906 H 0.62018 0.99363 0.23817 0.0
H1907 H 0.62023 0.07339 0.26476 0.0
H1908 H 0.61211 0.08824 0.22539 0.0
H1909 H 0.64794 0.00547 0.18456 0.0
H1910 H 0.62948 0.98172 0.1683 0.0
H1911 H 0.63634 0.97755 0.19842 0.0
H1912 H 0.59099 0.97431 0.20606 0.0
H1913 H 0.58401 0.97833 0.17597 0.0
H1914 H 0.57159 -3e-05 0.19726 0.0
H1915 H 0.60432 0.09427 0.1828 0.0
H1916 H 0.59372 0.09042 0.14092 0.0
H1917 H 0.59709 0.00675 0.14321 0.0
C1918 C 0.61857 0.01422 0.23568 0.0
C1919 C 0.62087 0.03238 0.25441 0.0
C1920 C 0.61839 0.05915 0.25058 0.0
C1921 C 0.61395 0.06778 0.2283 0.0
C1922 C 0.61183 0.04935 0.21015 0.0
C1923 C 0.61381 0.02312 0.21366 0.0
C1924 C 0.60967 0.00717 0.19149 0.0
C1925 C 0.6322 0.9921 0.18533 0.0
C1926 C 0.58776 0.98887 0.19278 0.0
C1927 C 0.6049 0.0285 0.17497 0.0
C1928 C 0.60656 0.05274 0.18593 0.0
C1929 C 0.60292 0.07538 0.17404 0.0
C1930 C 0.59701 0.07307 0.15035 0.0
C1931 C 0.59451 0.04832 0.13914 0.0
C1932 C 0.59876 0.02587 0.15156 0.0
H1933 H 0.79106 0.88069 0.95436 0.0
H1934 H 0.7179 0.88556 0.97617 0.0
H1935 H 0.70298 0.87477 0.93637 0.0
H1936 H 0.78021 0.90396 0.89446 0.0
H1937 H 0.8009 0.881 0.88279 0.0
H1938 H 0.80577 0.89434 0.91174 0.0
H1939 H 0.80703 0.84785 0.92701 0.0
H1940 H 0.80209 0.83443 0.89822 0.0
H1941 H 0.78211 0.8258 0.92038 0.0
H1942 H 0.69608 0.8582 0.89555 0.0
H1943 H 0.69802 0.83486 0.85755 0.0
H1944 H 0.7755 0.83868 0.86324 0.0
C1945 C 0.77193 0.88034 0.95056 0.0
C1946 C 0.75561 0.88421 0.96817 0.0
C1947 C 0.73067 0.88276 0.9628 0.0
C1948 C 0.72203 0.87681 0.94025 0.0
C1949 C 0.7386 0.87229 0.92333 0.0
C1950 C 0.76304 0.87399 0.92822 0.0
C1951 C 0.77704 0.86493 0.90778 0.0
C1952 C 0.79185 0.8874 0.89865 0.0
C1953 C 0.79298 0.84189 0.91371 0.0
C1954 C 0.75669 0.85678 0.89102 0.0
C1955 C 0.73464 0.86183 0.90003 0.0
C1956 C 0.71322 0.85454 0.88816 0.0
C1957 C 0.71444 0.84133 0.8667 0.0
C1958 C 0.73688 0.83526 0.85776 0.0
C1959 C 0.75817 0.84344 0.86983 0.0
H1960 H 0.78738 0.9482 0.08304 0.0
H1961 H 0.74686 0.95773 0.01927 0.0
H1962 H 0.77014 0.99785 0.01286 0.0
H1963 H 0.80111 0.02229 0.0971 0.0
H1964 H 0.83042 0.01405 0.10829 0.0
H1965 H 0.80514 0.99259 0.11194 0.0
H1966 H 0.82829 0.95497 0.09291 0.0
H1967 H 0.85326 0.97614 0.0887 0.0
H1968 H 0.83912 0.95839 0.06437 0.0
H1969 H 0.80523 0.0265 0.00738 0.0
H1970 H 0.84666 0.04333 0.00482 0.0
H1971 H 0.86427 0.01622 0.07274 0.0
C1972 C 0.78249 0.95982 0.06854 0.0
C1973 C 0.76526 0.95051 0.05185 0.0
C1974 C 0.75964 0.96518 0.0325 0.0
C1975 C 0.77285 0.9879 0.02875 0.0
C1976 C 0.79113 0.99571 0.04478 0.0
C1977 C 0.79546 0.98246 0.06472 0.0
C1978 C 0.81858 0.99158 0.07712 0.0
C1979 C 0.8135 0.006 0.09997 0.0
C1980 C 0.8358 0.96893 0.08095 0.0
C1981 C 0.82788 0.01004 0.05991 0.0
C1982 C 0.81153 0.01279 0.04169 0.0
C1983 C 0.81777 0.02534 0.02193 0.0
C1984 C 0.84137 0.03463 0.02052 0.0
C1985 C 0.85842 0.03126 0.03874 0.0
C1986 C 0.85129 0.01974 0.05895 0.0
H1987 H 0.38324 0.59288 0.98467 0.0
H1988 H 0.34182 0.56019 0.03839 0.0
H1989 H 0.37845 0.54175 0.05547 0.0
H1990 H 0.41976 0.53927 0.97622 0.0
H1991 H 0.44686 0.55733 0.97133 0.0
H1992 H 0.41816 0.57114 0.96471 0.0
H1993 H 0.42924 0.61142 0.99124 0.0
H1994 H 0.45814 0.59789 0.99768 0.0
H1995 H 0.43898 0.60706 0.02072 0.0
H1996 H 0.41808 0.52384 0.06493 0.0
H1997 H 0.45945 0.50849 0.06734 0.0
H1998 H 0.47606 0.55139 0.00703 0.0
C1999 C 0.38209 0.58246 0.00039 0.0
C2000 C 0.35978 0.5781 0.01036 0.0
C2001 C 0.35877 0.56379 0.03055 0.0
C2002 C 0.37947 0.55326 0.04039 0.0
C2003 C 0.40105 0.55711 0.02976 0.0
C2004 C 0.40264 0.57149 0.01032 0.0
C2005 C 0.4279 0.5711 0.00158 0.0
C2006 C 0.42817 0.55899 0.977 0.0
C2007 C 0.43923 0.5985 0.00289 0.0
C2008 C 0.43999 0.5538 0.01885 0.0
C2009 C 0.42414 0.54622 0.03504 0.0
C2010 C 0.43075 0.52982 0.05249 0.0
C2011 C 0.45431 0.52113 0.05364 0.0
C2012 C 0.47103 0.5287 0.03736 0.0
C2013 C 0.46368 0.54519 0.01967 0.0
H2014 H 0.18199 0.59162 0.83182 0.0
H2015 H 0.16853 0.54928 0.76643 0.0
H2016 H 0.17683 0.58878 0.74579 0.0
H2017 H 0.15532 0.65282 0.81319 0.0
H2018 H 0.1773 0.67282 0.82939 0.0
H2019 H 0.16891 0.64149 0.83946 0.0
H2020 H 0.2134 0.62812 0.8404 0.0
H2021 H 0.22185 0.65939 0.83036 0.0
H2022 H 0.23025 0.63032 0.81472 0.0
H2023 H 0.19153 0.63083 0.73202 0.0
H2024 H 0.20977 0.67409 0.72635 0.0
H2025 H 0.21032 0.69092 0.79988 0.0
C2026 C 0.18068 0.59076 0.81319 0.0
C2027 C 0.17458 0.56734 0.80079 0.0
C2028 C 0.17297 0.56701 0.77637 0.0
C2029 C 0.17765 0.58937 0.76442 0.0
C2030 C 0.18362 0.61212 0.77708 0.0
C2031 C 0.18492 0.61314 0.80089 0.0
C2032 C 0.19234 0.64007 0.81016 0.0
C2033 C 0.17226 0.65253 0.82386 0.0
C2034 C 0.21586 0.63941 0.82477 0.0
C2035 C 0.19581 0.65362 0.78785 0.0
C2036 C 0.19065 0.63711 0.76896 0.0
C2037 C 0.19498 0.64424 0.74659 0.0
C2038 C 0.20525 0.66876 0.74349 0.0
C2039 C 0.21054 0.68588 0.7626 0.0
C2040 C 0.20539 0.67844 0.78497 0.0
H2041 H 0.22101 0.40384 0.56346 0.0
H2042 H 0.20106 0.34094 0.51484 0.0
H2043 H 0.17817 0.37122 0.49102 0.0
H2044 H 0.16704 0.42966 0.56477 0.0
H2045 H 0.17616 0.46335 0.56749 0.0
H2046 H 0.19621 0.43891 0.57711 0.0
H2047 H 0.22847 0.45642 0.5509 0.0
H2048 H 0.20844 0.48062 0.54039 0.0
H2049 H 0.22206 0.45828 0.52043 0.0
H2050 H 0.15295 0.40591 0.47593 0.0
H2051 H 0.12286 0.44005 0.4738 0.0
H2052 H 0.15781 0.48065 0.53303 0.0
C2053 C 0.21314 0.39698 0.54701 0.0
C2054 C 0.21359 0.37048 0.54034 0.0
C2055 C 0.20133 0.3614 0.51981 0.0
C2056 C 0.1884 0.37847 0.50616 0.0
C2057 C 0.188 0.40457 0.51329 0.0
C2058 C 0.19998 0.41382 0.53332 0.0
C2059 C 0.19291 0.44137 0.53951 0.0
C2060 C 0.18245 0.44341 0.56363 0.0
C2061 C 0.21425 0.46027 0.53768 0.0
C2062 C 0.17401 0.44551 0.52071 0.0
C2063 C 0.17219 0.42448 0.50523 0.0
C2064 C 0.15447 0.4227 0.48768 0.0
C2065 C 0.13742 0.44224 0.48661 0.0
C2066 C 0.13793 0.463 0.50331 0.0
C2067 C 0.15712 0.46519 0.51987 0.0
H2068 H 0.82113 0.94126 0.79463 0.0
H2069 H 0.88723 0.93687 0.75808 0.0
H2070 H 0.87263 0.89638 0.73777 0.0
H2071 H 0.81344 0.87378 0.8026 0.0
H2072 H 0.78134 0.87423 0.79827 0.0
H2073 H 0.79731 0.90287 0.80938 0.0
H2074 H 0.77841 0.9288 0.77614 0.0
H2075 H 0.76281 0.89999 0.76467 0.0
H2076 H 0.78224 0.91784 0.74673 0.0
H2077 H 0.85147 0.85439 0.72333 0.0
H2078 H 0.82622 0.81439 0.71777 0.0
H2079 H 0.77317 0.84929 0.76119 0.0
C2080 C 0.8326 0.93169 0.78248 0.0
C2081 C 0.85534 0.94209 0.77804 0.0
C2082 C 0.8697 0.9292 0.76175 0.0
C2083 C 0.86154 0.90626 0.75005 0.0
C2084 C 0.83882 0.89671 0.75454 0.0
C2085 C 0.82457 0.90908 0.77036 0.0
C2086 C 0.80104 0.89477 0.77239 0.0
C2087 C 0.79813 0.88588 0.79711 0.0
C2088 C 0.77988 0.91135 0.76451 0.0
C2089 C 0.80452 0.87209 0.75571 0.0
C2090 C 0.82633 0.87344 0.74545 0.0
C2091 C 0.83414 0.85331 0.73096 0.0
C2092 C 0.81964 0.83077 0.7277 0.0
C2093 C 0.79774 0.82881 0.73894 0.0
C2094 C 0.78976 0.85025 0.7522 0.0
H2095 H 0.70559 0.04149 0.51922 0.0
H2096 H 0.70275 0.12357 0.50605 0.0
H2097 H 0.66314 0.12574 0.52341 0.0
H2098 H 0.64433 0.02786 0.50431 0.0
H2099 H 0.64101 0.00394 0.52573 0.0
H2100 H 0.66982 0.00967 0.51397 0.0
H2101 H 0.68802 0.01873 0.55531 0.0
H2102 H 0.65907 0.01352 0.56712 0.0
H2103 H 0.67538 0.04353 0.57359 0.0
H2104 H 0.6231 0.1185 0.54031 0.0
H2105 H 0.58378 0.10144 0.55118 0.0
H2106 H 0.61276 0.02408 0.5533 0.0
C2107 C 0.69673 0.05997 0.52016 0.0
C2108 C 0.70728 0.0824 0.5114 0.0
C2109 C 0.69495 0.10613 0.51261 0.0
C2110 C 0.67256 0.1076 0.52263 0.0
C2111 C 0.66274 0.08516 0.53129 0.0
C2112 C 0.67429 0.06172 0.52988 0.0
C2113 C 0.659 0.04004 0.5387 0.0
C2114 C 0.6532 0.01916 0.51954 0.0
C2115 C 0.6711 0.02827 0.55994 0.0
C2116 C 0.63692 0.05488 0.54505 0.0
C2117 C 0.63956 0.08095 0.54093 0.0
C2118 C 0.62092 0.0982 0.54386 0.0
C2119 C 0.59868 0.08834 0.55016 0.0
C2120 C 0.59526 0.06148 0.55333 0.0
C2121 C 0.61494 0.04479 0.55159 0.0
H2122 H 0.19858 0.43601 0.76981 0.0
H2123 H 0.24361 0.46873 0.82654 0.0
H2124 H 0.27587 0.43919 0.81573 0.0
H2125 H 0.21131 0.37393 0.77825 0.0
H2126 H 0.21106 0.36301 0.74843 0.0
H2127 H 0.19412 0.39076 0.75683 0.0
H2128 H 0.21634 0.41832 0.72776 0.0
H2129 H 0.23348 0.39049 0.7193 0.0
H2130 H 0.24861 0.42024 0.72917 0.0
H2131 H 0.29918 0.40073 0.80457 0.0
H2132 H 0.311 0.35591 0.79452 0.0
H2133 H 0.25178 0.34813 0.74449 0.0
C2134 C 0.21554 0.43766 0.77947 0.0
C2135 C 0.21857 0.4548 0.79898 0.0
C2136 C 0.24085 0.45585 0.81149 0.0
C2137 C 0.25937 0.43925 0.80536 0.0
C2138 C 0.25545 0.42187 0.78656 0.0
C2139 C 0.23411 0.42111 0.77367 0.0
C2140 C 0.23295 0.3982 0.75652 0.0
C2141 C 0.21109 0.38044 0.76026 0.0
C2142 C 0.23285 0.40737 0.73171 0.0
C2143 C 0.25626 0.3852 0.7628 0.0
C2144 C 0.26929 0.39955 0.77976 0.0
C2145 C 0.28966 0.38978 0.79073 0.0
C2146 C 0.29631 0.36438 0.78489 0.0
C2147 C 0.28275 0.34921 0.76817 0.0
C2148 C 0.26303 0.35999 0.75646 0.0
H2149 H 0.33693 0.58897 0.28351 0.0
H2150 H 0.30903 0.5886 0.35215 0.0
H2151 H 0.28574 0.62729 0.34397 0.0
H2152 H 0.34682 0.65331 0.28182 0.0
H2153 H 0.33771 0.65727 0.25212 0.0
H2154 H 0.34839 0.6265 0.26113 0.0
H2155 H 0.30915 0.60381 0.24515 0.0
H2156 H 0.2984 0.63454 0.23573 0.0
H2157 H 0.28071 0.61551 0.25433 0.0
H2158 H 0.27326 0.67038 0.33227 0.0
H2159 H 0.26816 0.71324 0.31542 0.0
H2160 H 0.30124 0.68521 0.25332 0.0
C2161 C 0.32525 0.59646 0.29651 0.0
C2162 C 0.32494 0.5858 0.3185 0.0
C2163 C 0.30969 0.59644 0.33519 0.0
C2164 C 0.29627 0.61839 0.3307 0.0
C2165 C 0.29792 0.62921 0.30929 0.0
C2166 C 0.31156 0.61833 0.29224 0.0
C2167 C 0.31197 0.63524 0.27155 0.0
C2168 C 0.33775 0.64357 0.26637 0.0
C2169 C 0.29929 0.62145 0.25044 0.0
C2170 C 0.29767 0.658 0.28026 0.0
C2171 C 0.28958 0.65398 0.30202 0.0
C2172 C 0.27873 0.67347 0.31493 0.0
C2173 C 0.27609 0.69773 0.30537 0.0
C2174 C 0.28398 0.70206 0.28306 0.0
C2175 C 0.29449 0.6819 0.27017 0.0
H2176 H 0.51989 0.72164 0.65471 0.0
H2177 H 0.44507 0.73768 0.63935 0.0
H2178 H 0.44732 0.71382 0.60201 0.0
H2179 H 0.54055 0.72292 0.594 0.0
H2180 H 0.56045 0.69632 0.59854 0.0
H2181 H 0.55441 0.71874 0.62208 0.0
H2182 H 0.54077 0.68053 0.64629 0.0
H2183 H 0.5468 0.65806 0.62295 0.0
H2184 H 0.51746 0.65856 0.63475 0.0
H2185 H 0.45535 0.68295 0.57004 0.0
H2186 H 0.46831 0.64567 0.5461 0.0
H2187 H 0.53821 0.64973 0.58113 0.0
C2188 C 0.50418 0.72082 0.6432 0.0
C2189 C 0.48236 0.73171 0.64988 0.0
C2190 C 0.46201 0.72956 0.63459 0.0
C2191 C 0.46316 0.71622 0.61325 0.0
C2192 C 0.48481 0.70524 0.6074 0.0
C2193 C 0.50499 0.70742 0.62189 0.0
C2194 C 0.52513 0.6911 0.61282 0.0
C2195 C 0.54639 0.70831 0.60648 0.0
C2196 C 0.53298 0.67087 0.63023 0.0
C2197 C 0.51271 0.67844 0.59152 0.0
C2198 C 0.4896 0.68731 0.58851 0.0
C2199 C 0.47358 0.67635 0.57179 0.0
C2200 C 0.48107 0.65521 0.5583 0.0
C2201 C 0.50436 0.64538 0.56155 0.0
C2202 C 0.52063 0.65763 0.57781 0.0
H2203 H 0.63046 0.2385 0.8679 0.0
H2204 H 0.58719 0.29773 0.83689 0.0
H2205 H 0.61818 0.30462 0.80843 0.0
H2206 H 0.68802 0.27244 0.86106 0.0
H2207 H 0.70365 0.24268 0.85575 0.0
H2208 H 0.67814 0.243 0.87374 0.0
H2209 H 0.65804 0.20629 0.84764 0.0
H2210 H 0.68328 0.2062 0.82934 0.0
H2211 H 0.65356 0.21094 0.81724 0.0
H2212 H 0.65275 0.30198 0.78093 0.0
H2213 H 0.6911 0.29561 0.76136 0.0
H2214 H 0.71271 0.24088 0.81244 0.0
C2215 C 0.6277 0.2532 0.85533 0.0
C2216 C 0.60643 0.26758 0.8546 0.0
C2217 C 0.60346 0.28666 0.83791 0.0
C2218 C 0.62087 0.29054 0.82154 0.0
C2219 C 0.64139 0.27556 0.82235 0.0
C2220 C 0.64516 0.25778 0.83923 0.0
C2221 C 0.66907 0.24476 0.83685 0.0
C2222 C 0.6857 0.25111 0.85811 0.0
C2223 C 0.66577 0.2153 0.83251 0.0
C2224 C 0.67795 0.25761 0.81576 0.0
C2225 C 0.66164 0.27505 0.80738 0.0
C2226 C 0.66575 0.28856 0.78751 0.0
C2227 C 0.68741 0.28467 0.77637 0.0
C2228 C 0.70473 0.26778 0.78541 0.0
C2229 C 0.69974 0.25396 0.8052 0.0
H2230 H 0.08213 0.28851 0.14832 0.0
H2231 H 0.00432 0.28704 0.14608 0.0
H2232 H 0.00377 0.31504 0.11303 0.0
H2233 H 0.08728 0.35625 0.13658 0.0
H2234 H 0.11328 0.3528 0.11941 0.0
H2235 H 0.10789 0.3304 0.14165 0.0
H2236 H 0.10946 0.29191 0.11159 0.0
H2237 H 0.11488 0.31446 0.08942 0.0
H2238 H 0.09005 0.29168 0.08613 0.0
H2239 H 0.01069 0.34218 0.08061 0.0
H2240 H 0.02454 0.3754 0.05503 0.0
H2241 H 0.09802 0.36381 0.07908 0.0
C2242 C 0.06508 0.29427 0.14085 0.0
C2243 C 0.04327 0.28573 0.14978 0.0
C2244 C 0.02124 0.29367 0.13971 0.0
C2245 C 0.0207 0.30925 0.1207 0.0
C2246 C 0.04235 0.31718 0.11213 0.0
C2247 C 0.06416 0.31065 0.12213 0.0
C2248 C 0.0846 0.32419 0.11066 0.0
C2249 C 0.09911 0.34197 0.12812 0.0
C2250 C 0.10071 0.30438 0.09874 0.0
C2251 C 0.07068 0.33968 0.09311 0.0
C2252 C 0.04641 0.3345 0.09386 0.0
C2253 C 0.02965 0.34642 0.07973 0.0
C2254 C 0.03777 0.3651 0.06504 0.0
C2255 C 0.06239 0.37203 0.06486 0.0
C2256 C 0.07913 0.3587 0.07872 0.0
H2257 H 0.96985 0.76571 0.31935 0.0
H2258 H 0.94953 0.74606 0.38783 0.0
H2259 H 0.907 0.7496 0.37597 0.0
H2260 H 0.92109 0.81137 0.30778 0.0
H2261 H 0.91715 0.80053 0.27801 0.0
H2262 H 0.94621 0.79911 0.29245 0.0
H2263 H 0.9479 0.75005 0.28151 0.0
H2264 H 0.91882 0.75128 0.26718 0.0
H2265 H 0.92406 0.72871 0.2896 0.0
H2266 H 0.86696 0.75247 0.35646 0.0
H2267 H 0.8314 0.7542 0.33042 0.0
H2268 H 0.87683 0.77089 0.2737 0.0
C2269 C 0.95645 0.76271 0.33198 0.0
C2270 C 0.96307 0.75583 0.35463 0.0
C2271 C 0.94498 0.75144 0.37046 0.0
C2272 C 0.92073 0.75345 0.36388 0.0
C2273 C 0.91479 0.75975 0.34134 0.0
C2274 C 0.93207 0.76435 0.32559 0.0
C2275 C 0.92069 0.76911 0.30203 0.0
C2276 C 0.92664 0.79667 0.29464 0.0
C2277 C 0.92832 0.74856 0.28402 0.0
C2278 C 0.89435 0.76609 0.30698 0.0
C2279 C 0.89145 0.76093 0.32984 0.0
C2280 C 0.86897 0.75667 0.33856 0.0
C2281 C 0.84885 0.75765 0.32355 0.0
C2282 C 0.85125 0.7627 0.29995 0.0
C2283 C 0.87437 0.7671 0.29163 0.0
H2284 H 0.53531 0.34646 0.9257 0.0
H2285 H 0.49989 0.29641 0.97262 0.0
H2286 H 0.50223 0.33132 0.00266 0.0
H2287 H 0.57542 0.38035 0.9691 0.0
H2288 H 0.57262 0.41135 0.95614 0.0
H2289 H 0.56973 0.38189 0.93848 0.0
H2290 H 0.52815 0.3962 0.92295 0.0
H2291 H 0.53087 0.42561 0.94066 0.0
H2292 H 0.50531 0.40421 0.94296 0.0
H2293 H 0.50696 0.37135 0.02735 0.0
H2294 H 0.51377 0.4149 0.04547 0.0
H2295 H 0.54518 0.44062 0.98297 0.0
C2296 C 0.5284 0.3428 0.94242 0.0
C2297 C 0.51745 0.31863 0.9468 0.0
C2298 C 0.50826 0.31475 0.96879 0.0
C2299 C 0.50955 0.33445 0.98603 0.0
C2300 C 0.51998 0.35813 0.9811 0.0
C2301 C 0.52927 0.36251 0.95989 0.0
C2302 C 0.53859 0.3903 0.95904 0.0
C2303 C 0.5657 0.39101 0.95548 0.0
C2304 C 0.52491 0.40494 0.94029 0.0
C2305 C 0.53289 0.40073 0.98298 0.0
C2306 C 0.52231 0.3817 0.99539 0.0
C2307 C 0.51529 0.38644 0.01785 0.0
C2308 C 0.51923 0.41129 0.02799 0.0
C2309 C 0.52997 0.43127 0.01569 0.0
C2310 C 0.53685 0.42582 0.99282 0.0
H2311 H 0.00138 0.22119 0.24291 0.0
H2312 H -0.00011 0.14336 0.21189 0.0
H2313 H 0.96166 0.13426 0.23027 0.0
H2314 H 0.96993 0.20635 0.29696 0.0
H2315 H 0.95396 0.23635 0.29598 0.0
H2316 H 0.98368 0.23444 0.28512 0.0
H2317 H 0.96773 0.25063 0.24588 0.0
H2318 H 0.93806 0.25244 0.25649 0.0
H2319 H 0.9433 0.23324 0.23067 0.0
H2320 H 0.92041 0.13645 0.24629 0.0
H2321 H 0.88033 0.14961 0.25838 0.0
H2322 H 0.90867 0.22686 0.27654 0.0
C2323 C 0.99334 0.20201 0.24043 0.0
C2324 C 0.00349 0.18305 0.2259 0.0
C2325 C 0.99247 0.15815 0.22311 0.0
C2326 C 0.97076 0.15281 0.23349 0.0
C2327 C 0.96054 0.17248 0.24676 0.0
C2328 C 0.97166 0.19653 0.25042 0.0
C2329 C 0.95573 0.21553 0.26261 0.0
C2330 C 0.96647 0.22364 0.28659 0.0
C2331 C 0.95092 0.23933 0.24803 0.0
C2332 C 0.93345 0.19885 0.26429 0.0
C2333 C 0.93667 0.17391 0.25556 0.0
C2334 C 0.91783 0.15578 0.25354 0.0
C2335 C 0.89508 0.16351 0.26025 0.0
C2336 C 0.89131 0.18925 0.26856 0.0
C2337 C 0.91098 0.20683 0.27097 0.0
H2338 H 0.01496 0.66039 0.43231 0.0
H2339 H 0.08383 0.70005 0.43035 0.0
H2340 H 0.1034 0.66247 0.44809 0.0
H2341 H 0.02467 0.62848 0.48563 0.0
H2342 H 0.00924 0.59904 0.47542 0.0
H2343 H 0.00091 0.62958 0.46383 0.0
H2344 H 0.00791 0.61099 0.42265 0.0
H2345 H 0.01647 0.58047 0.43414 0.0
H2346 H 0.03654 0.5975 0.41621 0.0
H2347 H 0.11475 0.62089 0.46827 0.0
H2348 H 0.11728 0.57801 0.48603 0.0
H2349 H 0.04163 0.56419 0.47022 0.0
C2350 C 0.03413 0.66133 0.4359 0.0
C2351 C 0.04787 0.68333 0.43037 0.0
C2352 C 0.07299 0.68349 0.43467 0.0
C2353 C 0.08421 0.66223 0.44471 0.0
C2354 C 0.07011 0.64075 0.44981 0.0
C2355 C 0.04564 0.64008 0.44527 0.0
C2356 C 0.03459 0.61433 0.45129 0.0
C2357 C 0.01628 0.61809 0.47016 0.0
C2358 C 0.02321 0.59998 0.42979 0.0
C2359 C 0.0566 0.60062 0.46019 0.0
C2360 C 0.0769 0.61625 0.45952 0.0
C2361 C 0.09904 0.60834 0.46844 0.0
C2362 C 0.10036 0.58399 0.47843 0.0
C2363 C 0.07982 0.56761 0.47885 0.0
C2364 C 0.05778 0.576 0.46938 0.0
H2365 H 0.59544 0.73204 0.68374 0.0
H2366 H 0.57715 0.81183 0.69997 0.0
H2367 H 0.61977 0.82444 0.70092 0.0
H2368 H 0.6396 0.72815 0.72129 0.0
H2369 H 0.65983 0.70879 0.70475 0.0
H2370 H 0.62832 0.70705 0.69772 0.0
H2371 H 0.6359 0.71937 0.65588 0.0
H2372 H 0.66768 0.72081 0.66269 0.0
H2373 H 0.65303 0.74834 0.65073 0.0
H2374 H 0.66204 0.82594 0.71218 0.0
H2375 H 0.7021 0.81679 0.72903 0.0
H2376 H 0.69493 0.737 0.70352 0.0
C2377 C 0.60042 0.75234 0.68639 0.0
C2378 C 0.58316 0.77093 0.69195 0.0
C2379 C 0.5902 0.79725 0.69584 0.0
C2380 C 0.61436 0.80465 0.69621 0.0
C2381 C 0.63119 0.78558 0.69227 0.0
C2382 C 0.62457 0.76001 0.68687 0.0
C2383 C 0.64616 0.74267 0.68707 0.0
C2384 C 0.64329 0.72039 0.7037 0.0
C2385 C 0.65098 0.73219 0.66263 0.0
C2386 C 0.66546 0.76201 0.69568 0.0
C2387 C 0.65653 0.78679 0.69802 0.0
C2388 C 0.66961 0.80696 0.70951 0.0
C2389 C 0.69218 0.80159 0.7192 0.0
C2390 C 0.70142 0.77639 0.71704 0.0
C2391 C 0.68834 0.75661 0.70455 0.0
H2392 H 0.62247 0.55972 0.68921 0.0
H2393 H 0.59555 0.4825 0.70213 0.0
H2394 H 0.56788 0.4841 0.66818 0.0
H2395 H 0.5679 0.58663 0.66959 0.0
H2396 H 0.58061 0.6046 0.64695 0.0
H2397 H 0.59873 0.59761 0.67216 0.0
H2398 H 0.63009 0.57547 0.64666 0.0
H2399 H 0.61228 0.58281 0.62135 0.0
H2400 H 0.62057 0.54983 0.62621 0.0
H2401 H 0.54038 0.49572 0.63526 0.0
H2402 H 0.52023 0.51319 0.60068 0.0
H2403 H 0.56758 0.58078 0.60662 0.0
C2404 C 0.61097 0.54305 0.68465 0.0
C2405 C 0.61112 0.52102 0.69828 0.0
C2406 C 0.59589 0.4995 0.6918 0.0
C2407 C 0.57995 0.5003 0.67268 0.0
C2408 C 0.57981 0.52253 0.65991 0.0
C2409 C 0.59537 0.54322 0.6652 0.0
C2410 C 0.59217 0.56432 0.64802 0.0
C2411 C 0.58439 0.58979 0.6599 0.0
C2412 C 0.61514 0.56833 0.63477 0.0
C2413 C 0.57215 0.55239 0.63254 0.0
C2414 C 0.56497 0.52849 0.63996 0.0
C2415 C 0.54604 0.51425 0.62906 0.0
C2416 C 0.53458 0.52439 0.60961 0.0
C2417 C 0.54247 0.54819 0.60108 0.0
C2418 C 0.56135 0.56243 0.6128 0.0
H2419 H 0.8404 0.34121 0.98728 0.0
H2420 H 0.76655 0.35549 0.00368 0.0
H2421 H 0.7532 0.3371 0.96521 0.0
H2422 H 0.83452 0.35861 0.92822 0.0
H2423 H 0.85487 0.33427 0.9183 0.0
H2424 H 0.85833 0.34798 0.94721 0.0
H2425 H 0.85597 0.30192 0.96325 0.0
H2426 H 0.85243 0.28805 0.93439 0.0
H2427 H 0.83049 0.2811 0.95531 0.0
H2428 H 0.74812 0.31584 0.92526 0.0
H2429 H 0.75172 0.29666 0.88595 0.0
H2430 H 0.82912 0.29822 0.89547 0.0
C2431 C 0.82138 0.34039 0.98287 0.0
C2432 C 0.80446 0.34955 -0.00144 0.0
C2433 C 0.7798 0.34854 0.99194 0.0
C2434 C 0.77207 0.33806 0.97018 0.0
C2435 C 0.78927 0.32903 0.95521 0.0
C2436 C 0.81343 0.33038 0.96121 0.0
C2437 C 0.82839 0.32012 0.94183 0.0
C2438 C 0.845 0.34153 0.93339 0.0
C2439 C 0.84266 0.29639 0.94914 0.0
C2440 C 0.80888 0.31259 0.92394 0.0
C2441 C 0.78642 0.31766 0.93205 0.0
C2442 C 0.76561 0.31188 0.91873 0.0
C2443 C 0.76784 0.30085 0.89651 0.0
C2444 C 0.7907 0.29594 0.88774 0.0
C2445 C 0.81144 0.30191 0.9017 0.0
H2446 H 0.94775 0.52257 0.18503 0.0
H2447 H 0.97401 0.45049 0.2117 0.0
H2448 H 0.00283 0.44753 0.1808 0.0
H2449 H 0.95273 0.50338 0.12433 0.0
H2450 H 0.96172 0.53544 0.11651 0.0
H2451 H 0.9427 0.53143 0.14044 0.0
H2452 H 0.97321 0.55836 0.16677 0.0
H2453 H 0.99253 0.56199 0.143 0.0
H2454 H 0.0039 0.54826 0.16916 0.0
H2455 H 0.02954 0.45279 0.1479 0.0
H2456 H 0.04981 0.46377 0.11258 0.0
H2457 H 0.00653 0.5325 0.10715 0.0
C2458 C 0.95937 0.50602 0.18423 0.0
C2459 C 0.95864 0.4868 0.20086 0.0
C2460 C 0.97419 0.46547 0.19919 0.0
C2461 C 0.99074 0.46366 0.18176 0.0
C2462 C 0.99144 0.48326 0.16604 0.0
C2463 C 0.97597 0.50384 0.16686 0.0
C2464 C 0.9803 0.52208 0.14761 0.0
C2465 C 0.95805 0.52313 0.13126 0.0
C2466 C 0.98794 0.54928 0.15722 0.0
C2467 C 0.00078 0.50864 0.13602 0.0
C2468 C 0.00694 0.48632 0.14698 0.0
C2469 C 0.02491 0.47024 0.13916 0.0
C2470 C 0.0364 0.47672 0.11915 0.0
C2471 C 0.0299 0.4991 0.10721 0.0
C2472 C 0.0122 0.51552 0.1161 0.0
H2473 H 0.8118 0.6613 0.445 0.0
H2474 H 0.76018 0.59758 0.43631 0.0
H2475 H 0.73493 0.62396 0.41087 0.0
H2476 H 0.76962 0.71559 0.44095 0.0
H2477 H 0.79009 0.73407 0.42456 0.0
H2478 H 0.80148 0.71215 0.44554 0.0
H2479 H 0.82585 0.6885 0.41423 0.0
H2480 H 0.81478 0.71048 0.39337 0.0
H2481 H 0.81056 0.67602 0.38814 0.0
H2482 H 0.71757 0.65608 0.38301 0.0
H2483 H 0.71219 0.68792 0.35279 0.0
H2484 H 0.77758 0.72798 0.37815 0.0
C2485 C 0.79494 0.65294 0.43823 0.0
C2486 C 0.78778 0.62743 0.44313 0.0
C2487 C 0.76579 0.61724 0.43338 0.0
C2488 C 0.75132 0.63213 0.41887 0.0
C2489 C 0.75917 0.65713 0.41421 0.0
C2490 C 0.78059 0.66731 0.42355 0.0
C2491 C 0.78682 0.69305 0.41364 0.0
C2492 C 0.787 0.71501 0.43229 0.0
C2493 C 0.8109 0.69192 0.40163 0.0
C2494 C 0.76599 0.69542 0.39658 0.0
C2495 C 0.74986 0.67494 0.39753 0.0
C2496 C 0.73005 0.67226 0.38224 0.0
C2497 C 0.72724 0.69039 0.365 0.0
C2498 C 0.74451 0.71056 0.36282 0.0
C2499 C 0.76361 0.71341 0.37945 0.0
H2500 H 0.63287 0.52037 0.84296 0.0
H2501 H 0.56385 0.52044 0.80635 0.0
H2502 H 0.54535 0.53693 0.84196 0.0
H2503 H 0.61349 0.49546 0.89275 0.0
H2504 H 0.63388 0.51445 0.91169 0.0
H2505 H 0.64173 0.50681 0.8826 0.0
H2506 H 0.64789 0.55581 0.87577 0.0
H2507 H 0.63989 0.5636 0.90493 0.0
H2508 H 0.62393 0.57789 0.88122 0.0
H2509 H 0.53393 0.54748 0.88288 0.0
H2510 H 0.53034 0.54931 0.92513 0.0
H2511 H 0.60731 0.54244 0.9341 0.0
C2512 C 0.61392 0.52372 0.84227 0.0
C2513 C 0.59975 0.5186 0.82201 0.0
C2514 C 0.57503 0.52419 0.8218 0.0
C2515 C 0.56442 0.53366 0.84188 0.0
C2516 C 0.57894 0.53787 0.86179 0.0
C2517 C 0.60322 0.5332 0.862 0.0
C2518 C 0.6147 0.53698 0.88585 0.0
C2519 C 0.62663 0.51194 0.89367 0.0
C2520 C 0.63266 0.55994 0.887 0.0
C2521 C 0.59286 0.54315 0.89936 0.0
C2522 C 0.57246 0.54418 0.88518 0.0
C2523 C 0.54984 0.54727 0.89409 0.0
C2524 C 0.54797 0.54841 0.91809 0.0
C2525 C 0.56859 0.54612 0.93276 0.0
C2526 C 0.59131 0.5444 0.92321 0.0
H2527 H 0.77603 0.34636 0.12376 0.0
H2528 H 0.8263 0.29294 0.09367 0.0
H2529 H 0.81706 0.26123 0.12277 0.0
H2530 H 0.79231 0.33594 0.17986 0.0
H2531 H 0.7628 0.33828 0.1911 0.0
H2532 H 0.76975 0.35471 0.16548 0.0
H2533 H 0.73409 0.33096 0.14336 0.0
H2534 H 0.727 0.31443 0.16902 0.0
H2535 H 0.73213 0.29604 0.14275 0.0
H2536 H 0.80754 0.23844 0.15829 0.0
H2537 H 0.79846 0.22649 0.19772 0.0
H2538 H 0.75393 0.29416 0.20476 0.0
C2539 C 0.78447 0.32764 0.12282 0.0
C2540 C 0.80177 0.32208 0.10634 0.0
C2541 C 0.81295 0.29763 0.1061 0.0
C2542 C 0.80773 0.27941 0.1225 0.0
C2543 C 0.79118 0.28581 0.13898 0.0
C2544 C 0.77958 0.30927 0.1392 0.0
C2545 C 0.76468 0.31258 0.16029 0.0
C2546 C 0.77289 0.3368 0.17505 0.0
C2547 C 0.73788 0.31355 0.15344 0.0
C2548 C 0.77052 0.28784 0.17234 0.0
C2549 C 0.78554 0.27247 0.15959 0.0
C2550 C 0.79534 0.24998 0.16821 0.0
C2551 C 0.79011 0.24336 0.19064 0.0
C2552 C 0.77525 0.25919 0.2042 0.0
C2553 C 0.76484 0.28129 0.19461 0.0
H2554 H 0.97272 0.47585 0.3111 0.0
H2555 H 0.9101 0.51172 0.33952 0.0
H2556 H 0.92076 0.49462 0.37729 0.0
H2557 H 0.97419 0.418 0.34771 0.0
H2558 H 0.00643 0.41941 0.35071 0.0
H2559 H 0.99153 0.43006 0.3248 0.0
H2560 H 0.01328 0.4748 0.33024 0.0
H2561 H 0.02831 0.46424 0.35597 0.0
H2562 H 0.01084 0.49327 0.35698 0.0
H2563 H 0.94039 0.4787 0.41257 0.0
H2564 H 0.96966 0.46946 0.44358 0.0
H2565 H 0.02031 0.44434 0.39294 0.0
C2566 C 0.96093 0.47961 0.32514 0.0
C2567 C 0.94027 0.49467 0.32219 0.0
C2568 C 0.92569 0.49977 0.34114 0.0
C2569 C 0.93157 0.49004 0.3627 0.0
C2570 C 0.95211 0.47533 0.36503 0.0
C2571 C 0.9667 0.4703 0.34682 0.0
C2572 C 0.98943 0.45712 0.35456 0.0
C2573 C 0.99044 0.4295 0.34381 0.0
C2574 C 0.01177 0.47334 0.34913 0.0
C2575 C 0.98587 0.45668 0.38017 0.0
C2576 C 0.96391 0.46658 0.38573 0.0
C2577 C 0.95741 0.47037 0.40844 0.0
C2578 C 0.97416 0.46487 0.42597 0.0
C2579 C 0.99723 0.45594 0.42067 0.0
C2580 C 0.00275 0.45094 0.39747 0.0
H2581 H 0.83054 0.65064 0.54767 0.0
H2582 H 0.79104 0.57829 0.55441 0.0
H2583 H 0.77763 0.59429 0.59238 0.0
H2584 H 0.85123 0.65917 0.60553 0.0
H2585 H 0.84799 0.69388 0.60651 0.0
H2586 H 0.85363 0.677 0.57967 0.0
H2587 H 0.81552 0.69656 0.56094 0.0
H2588 H 0.80979 0.71361 0.58772 0.0
H2589 H 0.78711 0.69229 0.57409 0.0
H2590 H 0.77075 0.61761 0.63079 0.0
H2591 H 0.76872 0.64725 0.66514 0.0
H2592 H 0.81202 0.7043 0.63203 0.0
C2593 C 0.81902 0.63807 0.55701 0.0
C2594 C 0.81205 0.61307 0.54813 0.0
C2595 C 0.79674 0.59745 0.56091 0.0
C2596 C 0.78904 0.60638 0.58248 0.0
C2597 C 0.79664 0.631 0.59084 0.0
C2598 C 0.81109 0.64669 0.57834 0.0
C2599 C 0.8169 0.6723 0.59101 0.0
C2600 C 0.84405 0.67577 0.59597 0.0
C2601 C 0.80671 0.69503 0.57764 0.0
C2602 C 0.80376 0.66852 0.61284 0.0
C2603 C 0.79222 0.64457 0.61249 0.0
C2604 C 0.77958 0.63646 0.63116 0.0
C2605 C 0.77866 0.65332 0.65061 0.0
C2606 C 0.7902 0.67803 0.65114 0.0
C2607 C 0.80282 0.68565 0.63196 0.0
H2608 H 0.74872 0.55013 0.53285 0.0
H2609 H 0.75415 0.56393 0.46067 0.0
H2610 H 0.72108 0.59499 0.4627 0.0
H2611 H 0.69223 0.5418 0.53229 0.0
H2612 H 0.68536 0.55721 0.55954 0.0
H2613 H 0.7148 0.54528 0.55531 0.0
H2614 H 0.73341 0.59064 0.56586 0.0
H2615 H 0.70388 0.60283 0.57063 0.0
H2616 H 0.723 0.61848 0.55093 0.0
H2617 H 0.68096 0.61201 0.46917 0.0
H2618 H 0.63865 0.61407 0.47944 0.0
H2619 H 0.65804 0.58965 0.54796 0.0
C2620 C 0.74387 0.56116 0.51798 0.0
C2621 C 0.75449 0.55583 0.49683 0.0
C2622 C 0.74704 0.56915 0.47722 0.0
C2623 C 0.72809 0.58657 0.47825 0.0
C2624 C 0.71686 0.59037 0.49911 0.0
C2625 C 0.72485 0.57842 0.51884 0.0
C2626 C 0.70711 0.58136 0.53775 0.0
C2627 C 0.69942 0.55485 0.54669 0.0
C2628 C 0.71746 0.59941 0.55746 0.0
C2629 C 0.68674 0.59406 0.52478 0.0
C2630 C 0.69304 0.60008 0.50283 0.0
C2631 C 0.67607 0.60827 0.48656 0.0
C2632 C 0.65201 0.60938 0.49253 0.0
C2633 C 0.64509 0.60198 0.5145 0.0
C2634 C 0.66289 0.59546 0.53106 0.0
H2635 H 0.19937 0.9408 0.55679 0.0
H2636 H 0.232 0.97718 0.49936 0.0
H2637 H 0.1944 -0.00045 0.49069 0.0
H2638 H 0.14146 0.92995 0.52876 0.0
H2639 H 0.12518 0.93657 0.55441 0.0
H2640 H 0.15498 0.92395 0.55665 0.0
H2641 H 0.1681 0.96287 0.58405 0.0
H2642 H 0.13837 0.97574 0.58171 0.0
H2643 H 0.16383 0.99545 0.5748 0.0
H2644 H 0.15358 0.01767 0.48776 0.0
H2645 H 0.11082 0.02816 0.48914 0.0
H2646 H 0.10404 0.98001 0.54819 0.0
C2647 C 0.1986 0.95349 0.54241 0.0
C2648 C 0.21869 0.95727 0.52881 0.0
C2649 C 0.21689 0.97393 0.51006 0.0
C2650 C 0.19563 0.98685 0.50503 0.0
C2651 C 0.17627 0.9829 0.51886 0.0
C2652 C 0.17742 0.9665 0.53706 0.0
C2653 C 0.15363 0.96505 0.54865 0.0
C2654 C 0.1432 0.93723 0.54701 0.0
C2655 C 0.15615 0.9754 0.57379 0.0
C2656 C 0.13895 0.98305 0.53399 0.0
C2657 C 0.15246 0.99328 0.51705 0.0
C2658 C 0.1428 0.00986 0.501 0.0
C2659 C 0.11849 0.01573 0.50195 0.0
C2660 C 0.10408 0.00497 0.5188 0.0
C2661 C 0.11462 0.98876 0.53525 0.0
H2662 H 0.32988 0.93916 0.79331 0.0
H2663 H 0.38219 0.9298 0.7406 0.0
H2664 H 0.36849 0.88421 0.73328 0.0
H2665 H 0.33456 0.87724 0.8163 0.0
H2666 H 0.30301 0.87323 0.82082 0.0
H2667 H 0.31639 0.90525 0.8214 0.0
H2668 H 0.28588 0.91885 0.78958 0.0
H2669 H 0.27216 0.887 0.78918 0.0
H2670 H 0.28278 0.89975 0.76297 0.0
H2671 H 0.35105 0.83844 0.73423 0.0
H2672 H 0.3273 0.79822 0.73918 0.0
H2673 H 0.28504 0.83887 0.78961 0.0
C2674 C 0.33828 0.92759 0.78004 0.0
C2675 C 0.35713 0.93791 0.76755 0.0
C2676 C 0.36758 0.92228 0.75024 0.0
C2677 C 0.36005 0.89634 0.7461 0.0
C2678 C 0.34179 0.88657 0.75916 0.0
C2679 C 0.3307 0.90192 0.77542 0.0
C2680 C 0.31119 0.88702 0.78684 0.0
C2681 C 0.31663 0.88561 0.81288 0.0
C2682 C 0.28655 0.89886 0.78183 0.0
C2683 C 0.31324 0.86075 0.77472 0.0
C2684 C 0.33117 0.86072 0.75901 0.0
C2685 C 0.33682 0.83832 0.74632 0.0
C2686 C 0.3234 0.81554 0.74938 0.0
C2687 C 0.30438 0.81552 0.76476 0.0
C2688 C 0.29944 0.83839 0.77767 0.0
H2689 H 0.38766 0.08152 0.98603 0.0
H2690 H 0.36206 0.05964 0.05202 0.0
H2691 H 0.40247 0.04353 0.06272 0.0
H2692 H 0.42363 0.02491 0.9775 0.0
H2693 H 0.4466 0.04213 0.96306 0.0
H2694 H 0.41612 0.05289 0.96129 0.0
H2695 H 0.43005 0.09864 0.97704 0.0
H2696 H 0.46056 0.08801 0.97888 0.0
H2697 H 0.44704 0.1019 0.00402 0.0
H2698 H 0.44632 0.03221 0.06656 0.0
H2699 H 0.489 0.02192 0.06187 0.0
H2700 H 0.48408 0.0473 0.99171 0.0
C2701 C 0.39066 0.07348 0.0028 0.0
C2702 C 0.37209 0.07206 0.01842 0.0
C2703 C 0.37628 0.06091 0.03996 0.0
C2704 C 0.39909 0.05182 0.04614 0.0
C2705 C 0.41711 0.05354 0.03029 0.0
C2706 C 0.41299 0.06369 0.0089 0.0
C2707 C 0.43488 0.06211 0.99448 0.0
C2708 C 0.43001 0.04446 0.97281 0.0
C2709 C 0.44365 0.08928 0.98825 0.0
C2710 C 0.4522 0.04992 0.01124 0.0
C2711 C 0.44173 0.04539 0.03189 0.0
C2712 C 0.45461 0.03536 0.05037 0.0
C2713 C 0.47878 0.02967 0.04759 0.0
C2714 C 0.48957 0.03361 0.02636 0.0
C2715 C 0.47608 0.04375 0.00798 0.0
H2716 H 0.68431 0.57057 0.75587 0.0
H2717 H 0.66927 0.57997 0.82837 0.0
H2718 H 0.68641 0.6242 0.82937 0.0
H2719 H 0.74094 0.60364 0.76016 0.0
H2720 H 0.7376 0.61904 0.73299 0.0
H2721 H 0.72252 0.58854 0.73708 0.0
H2722 H 0.68179 0.60868 0.72574 0.0
H2723 H 0.69678 0.63919 0.72144 0.0
H2724 H 0.6725 0.63773 0.74087 0.0
H2725 H 0.70572 0.66627 0.82343 0.0
H2726 H 0.72689 0.70496 0.81072 0.0
H2727 H 0.73139 0.66893 0.74228 0.0
C2728 C 0.68437 0.58214 0.77181 0.0
C2729 C 0.6755 0.57191 0.79205 0.0
C2730 C 0.67614 0.58741 0.81271 0.0
C2731 C 0.68575 0.61257 0.81346 0.0
C2732 C 0.69479 0.62195 0.79343 0.0
C2733 C 0.69426 0.60735 0.77297 0.0
C2734 C 0.70624 0.622 0.7543 0.0
C2735 C 0.72812 0.60743 0.74563 0.0
C2736 C 0.68825 0.62721 0.73441 0.0
C2737 C 0.71369 0.64689 0.76763 0.0
C2738 C 0.70667 0.6464 0.7901 0.0
C2739 C 0.71131 0.66699 0.80587 0.0
C2740 C 0.72336 0.68887 0.79847 0.0
C2741 C 0.73083 0.68993 0.77554 0.0
C2742 C 0.72603 0.66857 0.75995 0.0
H2743 H 0.86494 0.46625 0.05641 0.0
H2744 H 0.87044 0.38764 0.02838 0.0
H2745 H 0.91057 0.39792 0.01474 0.0
H2746 H 0.89961 0.49892 0.01164 0.0
H2747 H 0.91409 0.52138 0.0325 0.0
H2748 H 0.88431 0.50914 0.03707 0.0
H2749 H 0.89869 0.49295 0.07679 0.0
H2750 H 0.92846 0.50504 0.07232 0.0
H2751 H 0.92373 0.47144 0.07847 0.0
H2752 H 0.95137 0.41463 0.00835 0.0
H2753 H 0.99084 0.43681 0.00966 0.0
H2754 H 0.95986 0.50506 0.04176 0.0
C2755 C 0.8744 0.45153 0.0468 0.0
C2756 C 0.86469 0.42619 0.0433 0.0
C2757 C 0.8777 0.40709 0.03131 0.0
C2758 C 0.90042 0.41283 0.02335 0.0
C2759 C 0.90989 0.43776 0.0276 0.0
C2760 C 0.89735 0.45688 0.03899 0.0
C2761 C 0.9127 0.48128 0.0433 0.0
C2762 C 0.90204 0.50403 0.03035 0.0
C2763 C 0.91609 0.48806 0.06925 0.0
C2764 C 0.93594 0.47259 0.03308 0.0
C2765 C 0.93378 0.44751 0.0239 0.0
C2766 C 0.95321 0.43443 0.01509 0.0
C2767 C 0.97557 0.44716 0.01598 0.0
C2768 C 0.97834 0.47273 0.02558 0.0
C2769 C 0.95814 0.48574 0.03385 0.0
H2770 H 0.34545 0.07919 0.74908 0.0
H2771 H 0.31632 0.05476 0.81296 0.0
H2772 H 0.2916 0.09391 0.8145 0.0
H2773 H 0.35385 0.14217 0.76582 0.0
H2774 H 0.34626 0.15577 0.73849 0.0
H2775 H 0.35747 0.12341 0.73942 0.0
H2776 H 0.31981 0.10563 0.71613 0.0
H2777 H 0.30856 0.13809 0.71487 0.0
H2778 H 0.29046 0.11274 0.72624 0.0
H2779 H 0.27541 0.13861 0.81254 0.0
H2780 H 0.26864 0.18508 0.80702 0.0
H2781 H 0.30903 0.18068 0.74479 0.0
C2782 C 0.33319 0.08151 0.76294 0.0
C2783 C 0.33269 0.06379 0.78081 0.0
C2784 C 0.31691 0.06799 0.799 0.0
C2785 C 0.30274 0.09014 0.79999 0.0
C2786 C 0.30448 0.10782 0.7826 0.0
C2787 C 0.31915 0.10362 0.76428 0.0
C2788 C 0.32014 0.12699 0.74941 0.0
C2789 C 0.34595 0.13771 0.74824 0.0
C2790 C 0.30908 0.12047 0.72523 0.0
C2791 C 0.30463 0.14544 0.7628 0.0
C2792 C 0.29538 0.13386 0.78163 0.0
C2793 C 0.28213 0.14772 0.79759 0.0
C2794 C 0.27848 0.17415 0.79435 0.0
C2795 C 0.28825 0.1865 0.77542 0.0
C2796 C 0.30108 0.17174 0.75927 0.0
H2797 H 0.21768 0.96368 0.27648 0.0
H2798 H 0.18786 0.96376 0.20643 0.0
H2799 H 0.21234 0.92606 0.1961 0.0
H2800 H 0.27879 0.94113 0.26187 0.0
H2801 H 0.28076 0.92148 0.28677 0.0
H2802 H 0.264 0.95101 0.28768 0.0
H2803 H 0.22648 0.92533 0.29957 0.0
H2804 H 0.24309 0.89585 0.29871 0.0
H2805 H 0.21555 0.89794 0.28175 0.0
H2806 H 0.23511 0.88467 0.1949 0.0
H2807 H 0.25424 0.84306 0.20306 0.0
H2808 H 0.26989 0.87053 0.27359 0.0
C2809 C 0.21672 0.95626 0.25879 0.0
C2810 C 0.20084 0.9668 0.24227 0.0
C2811 C 0.19992 0.95614 0.21941 0.0
C2812 C 0.21385 0.93475 0.21334 0.0
C2813 C 0.22881 0.92441 0.23022 0.0
C2814 C 0.23049 0.93496 0.25245 0.0
C2815 C 0.24607 0.91876 0.26795 0.0
C2816 C 0.26876 0.93401 0.27657 0.0
C2817 C 0.23194 0.90889 0.28817 0.0
C2818 C 0.25204 0.89685 0.25122 0.0
C2819 C 0.24223 0.90063 0.22945 0.0
C2820 C 0.24333 0.88175 0.21173 0.0
C2821 C 0.2542 0.85817 0.21653 0.0
C2822 C 0.26377 0.85367 0.23889 0.0
C2823 C 0.26325 0.87361 0.25619 0.0
H2824 H 0.46174 0.3997 0.45204 0.0
H2825 H 0.52579 0.39008 0.41286 0.0
H2826 H 0.54598 0.42533 0.43676 0.0
H2827 H 0.46523 0.46853 0.45814 0.0
H2828 H 0.45408 0.46945 0.48679 0.0
H2829 H 0.44533 0.44318 0.46681 0.0
H2830 H 0.46085 0.41025 0.49625 0.0
H2831 H 0.46996 0.43651 0.51617 0.0
H2832 H 0.49144 0.41284 0.5073 0.0
H2833 H 0.55848 0.46331 0.46444 0.0
H2834 H 0.56118 0.50128 0.49194 0.0
H2835 H 0.48925 0.48372 0.51313 0.0
C2836 C 0.48003 0.40489 0.4484 0.0
C2837 C 0.49214 0.39206 0.43053 0.0
C2838 C 0.51609 0.39961 0.42645 0.0
C2839 C 0.52775 0.41955 0.43999 0.0
C2840 C 0.51528 0.43161 0.4576 0.0
C2841 C 0.49191 0.42456 0.46173 0.0
C2842 C 0.48209 0.44087 0.48119 0.0
C2843 C 0.46042 0.45643 0.47272 0.0
C2844 C 0.47572 0.42411 0.50142 0.0
C2845 C 0.50352 0.45838 0.48732 0.0
C2846 C 0.52256 0.45283 0.47363 0.0
C2847 C 0.54376 0.46763 0.47542 0.0
C2848 C 0.54519 0.48907 0.49116 0.0
C2849 C 0.52553 0.49538 0.50484 0.0
C2850 C 0.50476 0.47931 0.5032 0.0
H2851 H 0.46535 0.78208 0.22337 0.0
H2852 H 0.44824 0.74494 0.15646 0.0
H2853 H 0.40599 0.7403 0.16653 0.0
H2854 H 0.4213 0.74424 0.25635 0.0
H2855 H 0.41398 0.77209 0.27421 0.0
H2856 H 0.44355 0.76938 0.26314 0.0
H2857 H 0.43902 0.81415 0.24508 0.0
H2858 H 0.40934 0.81685 0.2558 0.0
H2859 H 0.41394 0.81946 0.22548 0.0
H2860 H 0.36572 0.74356 0.18159 0.0
H2861 H 0.32882 0.75254 0.20144 0.0
H2862 H 0.37032 0.78838 0.2594 0.0
C2863 C 0.45278 0.7722 0.21122 0.0
C2864 C 0.46 0.7636 0.18919 0.0
C2865 C 0.44302 0.7516 0.17338 0.0
C2866 C 0.41901 0.74884 0.17899 0.0
C2867 C 0.41223 0.7583 0.20047 0.0
C2868 C 0.42853 0.76957 0.21648 0.0
C2869 C 0.41592 0.77984 0.23762 0.0
C2870 C 0.42418 0.76553 0.2591 0.0
C2871 C 0.41979 0.80932 0.24119 0.0
C2872 C 0.38998 0.77305 0.23069 0.0
C2873 C 0.38848 0.76048 0.20924 0.0
C2874 C 0.36665 0.7531 0.19851 0.0
C2875 C 0.34572 0.75847 0.20999 0.0
C2876 C 0.34651 0.7712 0.23211 0.0
C2877 C 0.36906 0.77855 0.2426 0.0
H2878 H 0.01361 0.73106 0.95321 0.0
H2879 H 0.95056 0.75612 0.98852 0.0
H2880 H 0.95859 0.72416 0.01823 0.0
H2881 H 0.00328 0.66702 0.95817 0.0
H2882 H 0.03412 0.65787 0.96204 0.0
H2883 H 0.02685 0.68643 0.94679 0.0
H2884 H 0.0549 0.71422 0.97489 0.0
H2885 H 0.06244 0.68559 0.99019 0.0
H2886 H 0.05086 0.71344 0.00545 0.0
H2887 H 0.96978 0.6851 0.04043 0.0
H2888 H 0.98258 0.6416 0.05226 0.0
H2889 H 0.03706 0.64152 0.00144 0.0
C2890 C 0.00198 0.73054 0.96764 0.0
C2891 C 0.98159 0.74623 0.96867 0.0
C2892 C 0.96637 0.74436 0.98747 0.0
C2893 C 0.97086 0.72636 0.00448 0.0
C2894 C 0.99064 0.71045 0.00245 0.0
C2895 C 0.00602 0.71248 0.98452 0.0
C2896 C 0.02395 0.69089 0.98428 0.0
C2897 C 0.0219 0.6746 0.96148 0.0
C2898 C 0.04956 0.70169 0.98899 0.0
C2899 C 0.01561 0.67569 0.00421 0.0
C2900 C 0.99675 0.68756 0.01488 0.0
C2901 C 0.98485 0.67592 0.03255 0.0
C2902 C 0.99216 0.65132 0.03915 0.0
C2903 C 0.01088 0.63874 0.02784 0.0
C2904 C 0.02298 0.65121 0.01052 0.0
H2905 H 0.09791 0.26916 0.73422 0.0
H2906 H 0.10464 0.24232 0.66313 0.0
H2907 H 0.14852 0.24038 0.66954 0.0
H2908 H 0.1503 0.30968 0.73822 0.0
H2909 H 0.15837 0.30197 0.76742 0.0
H2910 H 0.12742 0.30054 0.7575 0.0
H2911 H 0.12407 0.25282 0.76948 0.0
H2912 H 0.155 0.25415 0.77952 0.0
H2913 H 0.14476 0.2294 0.75851 0.0
H2914 H 0.19174 0.24321 0.68319 0.0
H2915 H 0.23118 0.24859 0.70352 0.0
H2916 H 0.19634 0.2727 0.76606 0.0
C2917 C 0.10856 0.2627 0.72002 0.0
C2918 C 0.09779 0.2559 0.69814 0.0
C2919 C 0.11243 0.24757 0.68004 0.0
C2920 C 0.13739 0.24645 0.68351 0.0
C2921 C 0.14743 0.25357 0.7052 0.0
C2922 C 0.13348 0.26135 0.7232 0.0
C2923 C 0.14876 0.26814 0.74479 0.0
C2924 C 0.14605 0.29678 0.75242 0.0
C2925 C 0.14279 0.25004 0.76422 0.0
C2926 C 0.17352 0.26312 0.73608 0.0
C2927 C 0.17233 0.25481 0.71318 0.0
C2928 C 0.19287 0.24955 0.70116 0.0
C2929 C 0.21521 0.25274 0.71287 0.0
C2930 C 0.21689 0.261 0.73642 0.0
C2931 C 0.19568 0.26621 0.74811 0.0
H2932 H 0.50851 0.69909 0.09233 0.0
H2933 H 0.5468 0.69941 0.15869 0.0
H2934 H 0.56183 0.65566 0.14924 0.0
H2935 H 0.49061 0.63294 0.08923 0.0
H2936 H 0.49507 0.6283 0.05884 0.0
H2937 H 0.48794 0.65989 0.07058 0.0
H2938 H 0.52609 0.67925 0.05341 0.0
H2939 H 0.53336 0.64766 0.04164 0.0
H2940 H 0.55483 0.66555 0.0603 0.0
H2941 H 0.5691 0.60999 0.13414 0.0
H2942 H 0.57099 0.56746 0.11304 0.0
H2943 H 0.53136 0.59839 0.05512 0.0
C2944 C 0.52018 0.69002 0.10482 0.0
C2945 C 0.52637 0.70263 0.12632 0.0
C2946 C 0.54185 0.69018 0.1421 0.0
C2947 C 0.55045 0.6653 0.1369 0.0
C2948 C 0.54383 0.65332 0.11564 0.0
C2949 C 0.52935 0.66543 0.0997 0.0
C2950 C 0.52492 0.64834 0.07808 0.0
C2951 C 0.49804 0.64199 0.07396 0.0
C2952 C 0.53543 0.66095 0.05712 0.0
C2953 C 0.53873 0.6245 0.08455 0.0
C2954 C 0.54936 0.62768 0.10636 0.0
C2955 C 0.56133 0.6075 0.11684 0.0
C2956 C 0.56233 0.58344 0.10478 0.0
C2957 C 0.55187 0.57995 0.0823 0.0
C2958 C 0.54019 0.60086 0.072 0.0
H2959 H 0.06496 0.77705 0.87481 0.0
H2960 H 0.05598 0.85983 0.88572 0.0
H2961 H 0.0944 0.86808 0.86733 0.0
H2962 H 0.13155 0.77639 0.88121 0.0
H2963 H 0.13341 0.75194 0.85838 0.0
H2964 H 0.10766 0.75268 0.87608 0.0
H2965 H 0.07999 0.75479 0.83941 0.0
H2966 H 0.1056 0.75453 0.82165 0.0
H2967 H 0.0845 0.78046 0.81981 0.0
H2968 H 0.13203 0.86721 0.84461 0.0
H2969 H 0.1653 0.85708 0.8188 0.0
H2970 H 0.14734 0.77522 0.8208 0.0
C2971 C 0.07152 0.79686 0.87407 0.0
C2972 C 0.05781 0.81782 0.88193 0.0
C2973 C 0.06645 0.84354 0.87993 0.0
C2974 C 0.08822 0.84838 0.86956 0.0
C2975 C 0.10093 0.82728 0.86117 0.0
C2976 C 0.09291 0.80202 0.86337 0.0
C2977 C 0.10837 0.7829 0.85074 0.0
C2978 C 0.121 0.76492 0.86761 0.0
C2979 C 0.09374 0.76727 0.83178 0.0
C2980 C 0.12597 0.80136 0.84061 0.0
C2981 C 0.12173 0.82685 0.84713 0.0
C2982 C 0.13559 0.84731 0.83948 0.0
C2983 C 0.1543 0.84146 0.82482 0.0
C2984 C 0.15845 0.81548 0.81768 0.0
C2985 C 0.14419 0.79528 0.82578 0.0
H2986 H 0.00413 0.329 0.5894 0.0
H2987 H 0.06051 0.32979 0.64296 0.0
H2988 H 0.07848 0.36885 0.6271 0.0
H2989 H 0.04288 0.34982 0.54384 0.0
H2990 H 0.02002 0.36907 0.5305 0.0
H2991 H 0.01173 0.34082 0.54582 0.0
H2992 H 0.98459 0.36902 0.57138 0.0
H2993 H 0.99293 0.39736 0.55626 0.0
H2994 H 0.99725 0.39712 0.58711 0.0
H2995 H 0.08838 0.40999 0.60765 0.0
H2996 H 0.0924 0.44751 0.58286 0.0
H2997 H 0.03177 0.4185 0.53993 0.0
C2998 C 0.02037 0.33727 0.59766 0.0
C2999 C 0.03086 0.3263 0.61749 0.0
C3000 C 0.05219 0.33768 0.62771 0.0
C3001 C 0.06249 0.35998 0.61889 0.0
C3002 C 0.05154 0.37051 0.59957 0.0
C3003 C 0.03121 0.35929 0.58879 0.0
C3004 C 0.02328 0.37435 0.56803 0.0
C3005 C 0.02456 0.35751 0.54573 0.0
C3006 C 0.99801 0.3851 0.57088 0.0
C3007 C 0.04208 0.39599 0.56909 0.0
C3008 C 0.05804 0.39354 0.58758 0.0
C3009 C 0.07621 0.41191 0.59291 0.0
C3010 C 0.07827 0.43321 0.57882 0.0
C3011 C 0.06254 0.43576 0.55941 0.0
C3012 C 0.04425 0.41683 0.55449 0.0
H3013 H 0.40186 0.32983 0.37043 0.0
H3014 H 0.4434 0.36206 0.31654 0.0
H3015 H 0.40843 0.35699 0.28958 0.0
H3016 H 0.37474 0.2819 0.33912 0.0
H3017 H 0.34548 0.28341 0.35104 0.0
H3018 H 0.37135 0.29491 0.36802 0.0
H3019 H 0.35253 0.34005 0.37418 0.0
H3020 H 0.32612 0.3284 0.35793 0.0
H3021 H 0.34167 0.35722 0.3496 0.0
H3022 H 0.37312 0.33926 0.26671 0.0
H3023 H 0.33571 0.31859 0.25074 0.0
H3024 H 0.31625 0.29896 0.31955 0.0
C3025 C 0.40328 0.33691 0.35327 0.0
C3026 C 0.42538 0.34618 0.34554 0.0
C3027 C 0.42664 0.35494 0.32286 0.0
C3028 C 0.40689 0.35204 0.30737 0.0
C3029 C 0.38593 0.34093 0.31503 0.0
C3030 C 0.38365 0.33436 0.33765 0.0
C3031 C 0.35976 0.32092 0.34096 0.0
C3032 C 0.36306 0.29368 0.35033 0.0
C3033 C 0.34409 0.33765 0.35659 0.0
C3034 C 0.34974 0.3195 0.31641 0.0
C3035 C 0.36506 0.33126 0.30177 0.0
C3036 C 0.36066 0.33057 0.27805 0.0
C3037 C 0.33952 0.31843 0.26913 0.0
C3038 C 0.32307 0.30714 0.28391 0.0
C3039 C 0.32844 0.3075 0.30784 0.0
H3040 H 0.40599 0.53928 0.3943 0.0
H3041 H 0.46414 0.51789 0.35048 0.0
H3042 H 0.49346 0.53323 0.38112 0.0
H3043 H 0.43096 0.59659 0.41814 0.0
H3044 H 0.42072 0.59263 0.44681 0.0
H3045 H 0.4041 0.57783 0.42244 0.0
H3046 H 0.40749 0.53253 0.43997 0.0
H3047 H 0.42334 0.54736 0.46478 0.0
H3048 H 0.43657 0.52101 0.44882 0.0
H3049 H 0.51631 0.55492 0.41532 0.0
H3050 H 0.531 0.57292 0.4534 0.0
H3051 H 0.4576 0.57983 0.47432 0.0
C3052 C 0.42487 0.53719 0.39134 0.0
C3053 C 0.43278 0.52744 0.37001 0.0
C3054 C 0.45767 0.5251 0.36679 0.0
C3055 C 0.47446 0.53403 0.38399 0.0
C3056 C 0.46603 0.54488 0.40436 0.0
C3057 C 0.44182 0.54575 0.40836 0.0
C3058 C 0.43737 0.55817 0.43174 0.0
C3059 C 0.4224 0.58276 0.42964 0.0
C3060 C 0.4255 0.5386 0.44724 0.0
C3061 C 0.4628 0.56473 0.44003 0.0
C3062 C 0.47911 0.55707 0.42399 0.0
C3063 C 0.50371 0.56088 0.42806 0.0
C3064 C 0.51188 0.57149 0.44961 0.0
C3065 C 0.49544 0.57792 0.46677 0.0
C3066 C 0.4706 0.57534 0.46149 0.0
H3067 H 0.30005 0.69236 0.04331 0.0
H3068 H 0.27541 0.61345 0.05257 0.0
H3069 H 0.25728 0.62742 0.08897 0.0
H3070 H 0.3151 0.70948 0.10103 0.0
H3071 H 0.30412 0.74207 0.10017 0.0
H3072 H 0.31419 0.72612 0.07435 0.0
H3073 H 0.27317 0.73406 0.05371 0.0
H3074 H 0.26298 0.75012 0.07951 0.0
H3075 H 0.24605 0.72303 0.06633 0.0
H3076 H 0.2467 0.64892 0.12658 0.0
H3077 H 0.24139 0.67665 0.16102 0.0
H3078 H 0.26701 0.74316 0.12459 0.0
C3079 C 0.29068 0.67811 0.05295 0.0
C3080 C 0.28927 0.65181 0.04529 0.0
C3081 C 0.27665 0.63372 0.05817 0.0
C3082 C 0.26631 0.64145 0.07885 0.0
C3083 C 0.26818 0.66749 0.08607 0.0
C3084 C 0.27963 0.68565 0.0733 0.0
C3085 C 0.2791 0.71239 0.08496 0.0
C3086 C 0.30464 0.72313 0.09045 0.0
C3087 C 0.26445 0.73099 0.07025 0.0
C3088 C 0.26644 0.7062 0.1067 0.0
C3089 C 0.26038 0.68021 0.10704 0.0
C3090 C 0.25072 0.66949 0.12627 0.0
C3091 C 0.24753 0.68566 0.14582 0.0
C3092 C 0.25355 0.71256 0.14602 0.0
C3093 C 0.26247 0.72283 0.12568 0.0
H3094 H 0.13247 0.47878 0.88011 0.0
H3095 H 0.08424 0.52998 0.84433 0.0
H3096 H 0.06297 0.53828 0.88028 0.0
H3097 H 0.08839 0.4493 0.91249 0.0
H3098 H 0.10733 0.44647 0.93803 0.0
H3099 H 0.12034 0.44657 0.91022 0.0
H3100 H 0.14814 0.48538 0.92386 0.0
H3101 H 0.13541 0.48519 0.95183 0.0
H3102 H 0.13521 0.51442 0.93589 0.0
H3103 H 0.04644 0.54011 0.91985 0.0
H3104 H 0.03525 0.53458 0.96009 0.0
H3105 H 0.09269 0.4799 0.96905 0.0
C3106 C 0.11773 0.49214 0.87997 0.0
C3107 C 0.11009 0.50396 0.85957 0.0
C3108 C 0.0904 0.52084 0.85986 0.0
C3109 C 0.07824 0.52567 0.88017 0.0
C3110 C 0.08589 0.51326 0.89989 0.0
C3111 C 0.10516 0.49682 0.89996 0.0
C3112 C 0.10889 0.48471 0.92306 0.0
C3113 C 0.10606 0.455 0.9208 0.0
C3114 C 0.13336 0.49293 0.93432 0.0
C3115 C 0.08856 0.4967 0.9359 0.0
C3116 C 0.07569 0.51337 0.92235 0.0
C3117 C 0.05634 0.52706 0.93062 0.0
C3118 C 0.0501 0.52377 0.95343 0.0
C3119 C 0.06295 0.50661 0.96751 0.0
C3120 C 0.08231 0.49283 0.95853 0.0
H3121 H 0.35928 0.34469 0.58247 0.0
H3122 H 0.30738 0.29557 0.54402 0.0
H3123 H 0.3183 0.25889 0.56796 0.0
H3124 H 0.40114 0.28951 0.6066 0.0
H3125 H 0.4032 0.30734 0.6339 0.0
H3126 H 0.40206 0.32446 0.60746 0.0
H3127 H 0.36573 0.35011 0.62179 0.0
H3128 H 0.36674 0.33319 0.64789 0.0
H3129 H 0.33948 0.33256 0.63019 0.0
H3130 H 0.32516 0.23258 0.60168 0.0
H3131 H 0.32147 0.2224 0.64213 0.0
H3132 H 0.36221 0.29265 0.66239 0.0
C3133 C 0.35157 0.32562 0.57821 0.0
C3134 C 0.33307 0.32252 0.56119 0.0
C3135 C 0.32207 0.29795 0.55667 0.0
C3136 C 0.32828 0.27703 0.5702 0.0
C3137 C 0.34503 0.28127 0.58851 0.0
C3138 C 0.35658 0.30514 0.59252 0.0
C3139 C 0.3677 0.30767 0.61669 0.0
C3140 C 0.39516 0.3072 0.61612 0.0
C3141 C 0.35936 0.33228 0.62988 0.0
C3142 C 0.35799 0.2831 0.6265 0.0
C3143 C 0.34665 0.26722 0.6096 0.0
C3144 C 0.33412 0.24484 0.61499 0.0
C3145 C 0.33168 0.23954 0.63822 0.0
C3146 C 0.34053 0.25733 0.6559 0.0
C3147 C 0.35518 0.2784 0.64973 0.0
H3148 H 0.4459 0.55073 0.24236 0.0
H3149 H 0.39556 0.48605 0.24538 0.0
H3150 H 0.41467 0.46411 0.21254 0.0
H3151 H 0.4483 0.54964 0.17971 0.0
H3152 H 0.4797 0.55844 0.18063 0.0
H3153 H 0.46112 0.56922 0.2036 0.0
H3154 H 0.49026 0.54837 0.23301 0.0
H3155 H 0.50862 0.53703 0.21008 0.0
H3156 H 0.4967 0.51435 0.22965 0.0
H3157 H 0.44123 0.44801 0.18102 0.0
H3158 H 0.47003 0.44137 0.15024 0.0
H3159 H 0.50169 0.51745 0.16751 0.0
C3160 C 0.43866 0.53212 0.23593 0.0
C3161 C 0.4193 0.52008 0.24644 0.0
C3162 C 0.41033 0.49571 0.2375 0.0
C3163 C 0.42116 0.48301 0.21896 0.0
C3164 C 0.44074 0.49508 0.20948 0.0
C3165 C 0.44911 0.5193 0.2174 0.0
C3166 C 0.47034 0.52815 0.20422 0.0
C3167 C 0.46451 0.55282 0.19127 0.0
C3168 C 0.4928 0.5322 0.2202 0.0
C3169 C 0.4728 0.505 0.18782 0.0
C3170 C 0.45568 0.48605 0.19117 0.0
C3171 C 0.45458 0.46283 0.17808 0.0
C3172 C 0.47101 0.45924 0.16066 0.0
C3173 C 0.48818 0.47885 0.15643 0.0
C3174 C 0.48918 0.50181 0.17051 0.0
H3175 H 0.29762 0.64078 0.90718 0.0
H3176 H 0.2859 0.70339 0.95699 0.0
H3177 H 0.275 0.73228 0.92525 0.0
H3178 H 0.32624 0.6805 0.86719 0.0
H3179 H 0.31394 0.66273 0.84202 0.0
H3180 H 0.31865 0.64652 0.86861 0.0
H3181 H 0.27412 0.6319 0.8672 0.0
H3182 H 0.26907 0.64812 0.84066 0.0
H3183 H 0.25112 0.65581 0.86504 0.0
H3184 H 0.26541 0.75404 0.88784 0.0
H3185 H 0.26006 0.76793 0.84777 0.0
H3186 H 0.28159 0.69198 0.82251 0.0
C3187 C 0.29227 0.66044 0.91131 0.0
C3188 C 0.29195 0.66988 0.93437 0.0
C3189 C 0.28577 0.69587 0.93933 0.0
C3190 C 0.27964 0.71234 0.92146 0.0
C3191 C 0.28035 0.70256 0.89879 0.0
C3192 C 0.28675 0.67728 0.89368 0.0
C3193 C 0.28768 0.67201 0.86793 0.0
C3194 C 0.31314 0.66504 0.86104 0.0
C3195 C 0.2694 0.6507 0.85972 0.0
C3196 C 0.28063 0.69821 0.8593 0.0
C3197 C 0.27625 0.7155 0.87735 0.0
C3198 C 0.26894 0.74072 0.87359 0.0
C3199 C 0.26597 0.74844 0.85081 0.0
C3200 C 0.27072 0.73114 0.8321 0.0
C3201 C 0.27824 0.70576 0.83649 0.0
H3202 H 0.14154 0.49013 0.71959 0.0
H3203 H 0.1115 0.56048 0.74891 0.0
H3204 H 0.11627 0.58184 0.71229 0.0
H3205 H 0.18441 0.52269 0.68158 0.0
H3206 H 0.1792 0.49838 0.65874 0.0
H3207 H 0.17717 0.48976 0.68834 0.0
H3208 H 0.13397 0.47158 0.67989 0.0
H3209 H 0.13621 0.47956 0.65031 0.0
H3210 H 0.11192 0.492 0.66672 0.0
H3211 H 0.11828 0.59334 0.67176 0.0
H3212 H 0.11374 0.59227 0.62932 0.0
H3213 H 0.14395 0.51571 0.62602 0.0
C3214 C 0.13624 0.51013 0.71836 0.0
C3215 C 0.12608 0.52359 0.73704 0.0
C3216 C 0.11916 0.54967 0.73475 0.0
C3217 C 0.12213 0.56213 0.71412 0.0
C3218 C 0.13219 0.54834 0.69599 0.0
C3219 C 0.13903 0.52286 0.69785 0.0
C3220 C 0.14665 0.51143 0.67501 0.0
C3221 C 0.17345 0.5052 0.67598 0.0
C3222 C 0.13126 0.48724 0.66755 0.0
C3223 C 0.14161 0.53394 0.65975 0.0
C3224 C 0.13392 0.55533 0.67233 0.0
C3225 C 0.12499 0.57712 0.66174 0.0
C3226 C 0.12261 0.57648 0.63769 0.0
C3227 C 0.12924 0.55426 0.62469 0.0
C3228 C 0.13987 0.53332 0.63573 0.0
H3229 H 0.30201 0.36573 0.46805 0.0
H3230 H 0.23408 0.39151 0.49298 0.0
H3231 H 0.21352 0.37485 0.45675 0.0
H3232 H 0.28965 0.38091 0.40735 0.0
H3233 H 0.30528 0.35287 0.39679 0.0
H3234 H 0.31445 0.36846 0.42404 0.0
H3235 H 0.30948 0.3246 0.4437 0.0
H3236 H 0.2999 0.30903 0.41658 0.0
H3237 H 0.28108 0.30742 0.44096 0.0
H3238 H 0.20033 0.35284 0.41885 0.0
H3239 H 0.19572 0.32975 0.38078 0.0
H3240 H 0.27267 0.31945 0.38062 0.0
C3241 C 0.28289 0.36833 0.46564 0.0
C3242 C 0.26939 0.37947 0.48332 0.0
C3243 C 0.24442 0.38235 0.47973 0.0
C3244 C 0.23272 0.37315 0.45921 0.0
C3245 C 0.24638 0.36133 0.44241 0.0
C3246 C 0.27097 0.35923 0.44525 0.0
C3247 C 0.2814 0.3451 0.42479 0.0
C3248 C 0.29871 0.3629 0.41252 0.0
C3249 C 0.29368 0.32005 0.43195 0.0
C3250 C 0.25881 0.33923 0.41022 0.0
C3251 C 0.2388 0.34879 0.42061 0.0
C3252 C 0.21589 0.34543 0.41044 0.0
C3253 C 0.21344 0.33229 0.38888 0.0
C3254 C 0.23378 0.32263 0.37783 0.0
C3255 C 0.25669 0.32611 0.3888 0.0
H3256 H 0.31666 0.45352 0.59304 0.0
H3257 H 0.27604 0.46588 0.52981 0.0
H3258 H 0.30177 0.50426 0.52303 0.0
H3259 H 0.33333 0.52549 0.60801 0.0
H3260 H 0.36244 0.51605 0.61882 0.0
H3261 H 0.3367 0.49508 0.62188 0.0
H3262 H 0.35883 0.45754 0.6015 0.0
H3263 H 0.38432 0.47832 0.59792 0.0
H3264 H 0.36975 0.46189 0.57312 0.0
H3265 H 0.33775 0.53289 0.5184 0.0
H3266 H 0.37889 0.55115 0.51746 0.0
H3267 H 0.39575 0.52047 0.58426 0.0
C3268 C 0.3124 0.46533 0.5785 0.0
C3269 C 0.29421 0.45744 0.5622 0.0
C3270 C 0.28953 0.47231 0.54277 0.0
C3271 C 0.30413 0.49401 0.5388 0.0
C3272 C 0.32294 0.50056 0.55466 0.0
C3273 C 0.32671 0.48696 0.57446 0.0
C3274 C 0.35004 0.49508 0.58702 0.0
C3275 C 0.34534 0.50875 0.61031 0.0
C3276 C 0.3667 0.47183 0.59003 0.0
C3277 C 0.35976 0.51395 0.57038 0.0
C3278 C 0.34371 0.51731 0.55205 0.0
C3279 C 0.35011 0.53108 0.53301 0.0
C3280 C 0.37355 0.5412 0.53254 0.0
C3281 C 0.39032 0.53742 0.55094 0.0
C3282 C 0.38304 0.5243 0.57032 0.0
H3283 H 0.8584 0.08347 0.47072 0.0
H3284 H 0.82223 0.03216 0.51602 0.0
H3285 H 0.86037 0.00964 0.52351 0.0
H3286 H 0.89709 0.03536 0.4459 0.0
H3287 H 0.92204 0.05778 0.44449 0.0
H3288 H 0.89183 0.06938 0.44244 0.0
H3289 H 0.90127 0.10207 0.47672 0.0
H3290 H 0.93152 0.0907 0.47878 0.0
H3291 H 0.91316 0.0904 0.50356 0.0
H3292 H 0.90303 0.99447 0.52751 0.0
H3293 H 0.94664 0.98734 0.52735 0.0
H3294 H 0.95408 0.04767 0.47812 0.0
C3295 C 0.85845 0.06751 0.48225 0.0
C3296 C 0.83742 0.05963 0.49293 0.0
C3297 C 0.83818 0.0385 0.5077 0.0
C3298 C 0.85972 0.0256 0.51201 0.0
C3299 C 0.88016 0.03393 0.5012 0.0
C3300 C 0.87964 0.05433 0.48654 0.0
C3301 C 0.90405 0.05978 0.47726 0.0
C3302 C 0.90372 0.0553 0.45096 0.0
C3303 C 0.91303 0.08737 0.48452 0.0
C3304 C 0.91856 0.03948 0.48924 0.0
C3305 C 0.90447 0.02475 0.50298 0.0
C3306 C 0.91416 0.00568 0.51662 0.0
C3307 C 0.93893 0.00179 0.51642 0.0
C3308 C 0.95366 0.0168 0.50255 0.0
C3309 C 0.94321 0.0356 0.48857 0.0
H3310 H 0.72511 0.07323 0.33378 0.0
H3311 H 0.65076 0.07942 0.31055 0.0
H3312 H 0.65993 0.12131 0.29369 0.0
H3313 H 0.73621 0.14243 0.34742 0.0
H3314 H 0.76616 0.14186 0.33703 0.0
H3315 H 0.75333 0.11321 0.3487 0.0
H3316 H 0.76173 0.08722 0.31091 0.0
H3317 H 0.77424 0.11589 0.29901 0.0
H3318 H 0.74986 0.09837 0.28386 0.0
H3319 H 0.67705 0.16226 0.27903 0.0
H3320 H 0.70134 0.19982 0.26763 0.0
H3321 H 0.76489 0.16587 0.29834 0.0
C3322 C 0.71073 0.08369 0.32553 0.0
C3323 C 0.68722 0.07318 0.32353 0.0
C3324 C 0.66892 0.08712 0.31219 0.0
C3325 C 0.67393 0.11094 0.30259 0.0
C3326 C 0.69738 0.12049 0.30433 0.0
C3327 C 0.7155 0.10739 0.31554 0.0
C3328 C 0.73934 0.12152 0.31412 0.0
C3329 C 0.74934 0.13028 0.33825 0.0
C3330 C 0.75735 0.10474 0.3012 0.0
C3331 C 0.73175 0.14446 0.3003 0.0
C3332 C 0.70745 0.14362 0.29499 0.0
C3333 C 0.69615 0.1631 0.28296 0.0
C3334 C 0.71006 0.18428 0.27649 0.0
C3335 C 0.73499 0.18553 0.2818 0.0
C3336 C 0.74594 0.16517 0.29361 0.0
H3337 H 0.67659 0.86843 0.00021 0.0
H3338 H 0.70157 0.88285 0.07102 0.0
H3339 H 0.68661 0.9277 0.06997 0.0
H3340 H 0.68767 0.93313 0.97902 0.0
H3341 H 0.66011 0.93345 0.96184 0.0
H3342 H 0.67467 0.90319 0.96685 0.0
H3343 H 0.63636 0.88411 0.98378 0.0
H3344 H 0.62126 0.91374 0.97793 0.0
H3345 H 0.62217 0.90186 0.00666 0.0
H3346 H 0.66988 0.9705 0.06121 0.0
H3347 H 0.64181 0.00426 0.04991 0.0
H3348 H 0.62487 0.96125 0.98547 0.0
C3349 C 0.67921 0.8813 0.0153 0.0
C3350 C 0.69107 0.87293 0.03541 0.0
C3351 C 0.69318 0.8895 0.05527 0.0
C3352 C 0.6849 0.91494 0.05476 0.0
C3353 C 0.67447 0.92323 0.03425 0.0
C3354 C 0.67088 0.90669 0.0151 0.0
C3355 C 0.65605 0.9193 0.99644 0.0
C3356 C 0.6705 0.92246 0.97476 0.0
C3357 C 0.63257 0.90384 0.9909 0.0
C3358 C 0.65151 0.94534 0.00828 0.0
C3359 C 0.66305 0.94747 0.02975 0.0
C3360 C 0.66071 0.9691 0.04446 0.0
C3361 C 0.64479 0.98827 0.03779 0.0
C3362 C 0.63093 0.98529 0.01688 0.0
C3363 C 0.63535 0.96423 0.00143 0.0
H3364 H 0.3546 0.4523 0.29673 0.0
H3365 H 0.30642 0.47907 0.34907 0.0
H3366 H 0.27465 0.44975 0.33205 0.0
H3367 H 0.31158 0.44523 0.24973 0.0
H3368 H 0.32374 0.41571 0.23787 0.0
H3369 H 0.34305 0.43886 0.25387 0.0
H3370 H 0.35658 0.40353 0.28199 0.0
H3371 H 0.33802 0.38033 0.26532 0.0
H3372 H 0.33417 0.3848 0.29582 0.0
H3373 H 0.24798 0.41824 0.30937 0.0
H3374 H 0.23045 0.38056 0.28687 0.0
H3375 H 0.29567 0.37373 0.24929 0.0
C3376 C 0.33743 0.45182 0.30474 0.0
C3377 C 0.333 0.46808 0.32421 0.0
C3378 C 0.31034 0.46672 0.33426 0.0
C3379 C 0.29206 0.45035 0.32454 0.0
C3380 C 0.29676 0.43528 0.30491 0.0
C3381 C 0.31904 0.43534 0.29544 0.0
C3382 C 0.31976 0.41607 0.27514 0.0
C3383 C 0.32483 0.4298 0.25283 0.0
C3384 C 0.33822 0.39494 0.27987 0.0
C3385 C 0.29435 0.4052 0.27465 0.0
C3386 C 0.28132 0.41686 0.29181 0.0
C3387 C 0.2579 0.4091 0.29575 0.0
C3388 C 0.24799 0.38789 0.28273 0.0
C3389 C 0.26151 0.37465 0.26603 0.0
C3390 C 0.28461 0.3841 0.26131 0.0
H3391 H 0.19682 0.6128 0.99717 0.0
H3392 H 0.24273 0.54599 0.00179 0.0
H3393 H 0.21126 0.5224 0.02122 0.0
H3394 H 0.16819 0.60664 0.05149 0.0
H3395 H 0.13894 0.61527 0.04044 0.0
H3396 H 0.16541 0.62793 0.02776 0.0
H3397 H 0.15052 0.60923 0.9876 0.0
H3398 H 0.12384 0.59702 0.00011 0.0
H3399 H 0.1425 0.57528 0.98409 0.0
H3400 H 0.17566 0.50601 0.04041 0.0
H3401 H 0.13516 0.49476 0.05232 0.0
H3402 H 0.11083 0.57095 0.03391 0.0
C3403 C 0.20018 0.59319 0.00224 0.0
C3404 C 0.22228 0.58129 0.99801 0.0
C3405 C 0.22592 0.55551 0.0047 0.0
C3406 C 0.20825 0.542 0.01599 0.0
C3407 C 0.18688 0.55439 0.02027 0.0
C3408 C 0.18249 0.57916 0.0132 0.0
C3409 C 0.1572 0.5871 0.01851 0.0
C3410 C 0.15747 0.61064 0.03557 0.0
C3411 C 0.14266 0.59246 0.99625 0.0
C3412 C 0.14812 0.56284 0.02952 0.0
C3413 C 0.16576 0.54447 0.03073 0.0
C3414 C 0.16166 0.5202 0.03956 0.0
C3415 C 0.13858 0.51405 0.04639 0.0
C3416 C 0.11978 0.53195 0.04408 0.0
C3417 C 0.12487 0.55698 0.03621 0.0
H3418 H 0.72676 0.93204 0.33661 0.0
H3419 H 0.71656 0.96895 0.27143 0.0
H3420 H 0.74153 0.93554 0.25281 0.0
H3421 H 0.78807 0.90661 0.32838 0.0
H3422 H 0.78071 0.87672 0.34171 0.0
H3423 H 0.7666 0.90638 0.35071 0.0
H3424 H 0.72484 0.88462 0.3423 0.0
H3425 H 0.73876 0.85503 0.33318 0.0
H3426 H 0.71765 0.87029 0.31405 0.0
H3427 H 0.76444 0.89598 0.24085 0.0
H3428 H 0.77939 0.85146 0.23543 0.0
H3429 H 0.77088 0.83874 0.30791 0.0
C3430 C 0.73052 0.93362 0.31859 0.0
C3431 C 0.72029 0.95332 0.30549 0.0
C3432 C 0.72461 0.95416 0.28175 0.0
C3433 C 0.73882 0.93536 0.27111 0.0
C3434 C 0.74821 0.91577 0.28445 0.0
C3435 C 0.74405 0.91469 0.30766 0.0
C3436 C 0.75294 0.88974 0.31745 0.0
C3437 C 0.77329 0.8952 0.33564 0.0
C3438 C 0.73232 0.874 0.32731 0.0
C3439 C 0.76214 0.87654 0.296 0.0
C3440 C 0.75993 0.89216 0.27729 0.0
C3441 C 0.76645 0.88369 0.25542 0.0
C3442 C 0.77495 0.85842 0.25252 0.0
C3443 C 0.77623 0.84177 0.27128 0.0
C3444 C 0.77011 0.85113 0.29332 0.0
H3445 H 0.81978 0.07826 0.81165 0.0
H3446 H 0.82528 0.05345 0.74001 0.0
H3447 H 0.80111 0.09087 0.72843 0.0
H3448 H 0.75925 0.10975 0.80724 0.0
H3449 H 0.7694 0.13577 0.82702 0.0
H3450 H 0.78113 0.10368 0.8299 0.0
H3451 H 0.82428 0.12246 0.82787 0.0
H3452 H 0.81276 0.15442 0.82477 0.0
H3453 H 0.83206 0.14089 0.80347 0.0
H3454 H 0.7819 0.1338 0.72455 0.0
H3455 H 0.77252 0.18015 0.728 0.0
H3456 H 0.7829 0.17859 0.80226 0.0
C3457 C 0.81499 0.08002 0.79356 0.0
C3458 C 0.82392 0.06271 0.7767 0.0
C3459 C 0.81827 0.06633 0.75317 0.0
C3460 C 0.80448 0.08743 0.74649 0.0
C3461 C 0.79674 0.10475 0.76357 0.0
C3462 C 0.80187 0.10127 0.78665 0.0
C3463 C 0.79537 0.12476 0.80137 0.0
C3464 C 0.77507 0.11809 0.81732 0.0
C3465 C 0.81743 0.1363 0.81516 0.0
C3466 C 0.78683 0.14256 0.78289 0.0
C3467 C 0.78698 0.13034 0.76129 0.0
C3468 C 0.78137 0.14341 0.74139 0.0
C3469 C 0.7761 0.16979 0.74356 0.0
C3470 C 0.77705 0.18297 0.76545 0.0
C3471 C 0.7819 0.16897 0.78535 0.0
loop_
_geom_bond_atom_site_label_1
_geom_bond_atom_site_label_2
_geom_bond_distance
_geom_bond_site_symmetry_2
_ccdc_geom_bond_type
Mg0 O1 2.028 . S
Mg0 O7 1.986 . S
Mg0 O9 2.114 . S
Mg0 O10 2.251 . S
Mg0 O13 2.010 . S
O1 Mg0 2.028 . S
O1 C4 1.250 . S
O2 Mg3 2.028 . S
O2 C4 1.248 . S
Mg3 O2 2.028 . S
Mg3 O8 2.032 . S
Mg3 O10 2.079 . S
C4 O1 1.250 . S
C4 O2 1.248 . S
C5 O6 1.264 . S
C5 O13 1.249 . S
O6 C5 1.264 . S
O7 Mg0 1.986 . S
O7 C11 1.246 . S
O8 Mg3 2.032 . S
O8 C11 1.259 . S
O9 Mg0 2.114 . S
O9 C12 1.252 . S
O10 Mg0 2.251 . S
O10 Mg3 2.079 . S
O10 C12 1.273 . S
C11 O7 1.246 . S
C11 O8 1.259 . S
C12 O9 1.252 . S
C12 O10 1.273 . S
O13 Mg0 2.010 . S
O13 C5 1.249 . S
Mg14 O15 2.028 . S
Mg14 O21 1.986 . S
Mg14 O23 2.114 . S
Mg14 O24 2.251 1_455 S
Mg14 O27 2.010 . S
O15 Mg14 2.028 . S
O15 C18 1.250 . S
O16 Mg17 2.028 1_455 S
O16 C18 1.248 . S
Mg17 O16 2.028 1_655 S
Mg17 O22 2.032 1_655 S
Mg17 O24 2.079 . S
C18 O15 1.250 . S
C18 O16 1.248 . S
C19 O20 1.264 . S
C19 O27 1.249 . S
O20 C19 1.264 . S
O21 Mg14 1.986 . S
O21 C25 1.246 . S
O22 Mg17 2.032 1_455 S
O22 C25 1.259 . S
O23 Mg14 2.114 . S
O23 C26 1.252 1_455 S
O24 Mg14 2.251 1_655 S
O24 Mg17 2.079 . S
O24 C26 1.273 . S
C25 O21 1.246 . S
C25 O22 1.259 . S
C26 O23 1.252 1_655 S
C26 O24 1.273 . S
O27 Mg14 2.010 . S
O27 C19 1.249 . S
Mg28 O29 2.028 . S
Mg28 O35 1.986 . S
Mg28 O37 2.114 . S
Mg28 O38 2.251 . S
Mg28 O41 2.010 . S
O29 Mg28 2.028 . S
O29 C32 1.250 . S
O30 Mg31 2.028 . S
O30 C32 1.248 . S
Mg31 O30 2.028 . S
Mg31 O36 2.032 . S
Mg31 O38 2.079 . S
C32 O29 1.250 . S
C32 O30 1.248 . S
C33 O34 1.264 . S
C33 O41 1.249 . S
O34 C33 1.264 . S
O35 Mg28 1.986 . S
O35 C39 1.246 . S
O36 Mg31 2.032 . S
O36 C39 1.259 . S
O37 Mg28 2.114 . S
O37 C40 1.252 . S
O38 Mg28 2.251 . S
O38 Mg31 2.079 . S
O38 C40 1.273 . S
C39 O35 1.246 . S
C39 O36 1.259 . S
C40 O37 1.252 . S
C40 O38 1.273 . S
O41 Mg28 2.010 . S
O41 C33 1.249 . S
Mg42 O43 2.028 . S
Mg42 O49 1.986 . S
Mg42 O51 2.114 . S
Mg42 O52 2.251 . S
Mg42 O55 2.010 . S
O43 Mg42 2.028 . S
O43 C46 1.250 . S
O44 Mg45 2.028 . S
O44 C46 1.248 . S
Mg45 O44 2.028 . S
Mg45 O50 2.032 . S
Mg45 O52 2.079 . S
C46 O43 1.250 . S
C46 O44 1.248 . S
C47 O48 1.264 . S
C47 O55 1.249 . S
O48 C47 1.264 . S
O49 Mg42 1.986 . S
O49 C53 1.246 . S
O50 Mg45 2.032 . S
O50 C53 1.259 . S
O51 Mg42 2.114 . S
O51 C54 1.252 . S
O52 Mg42 2.251 . S
O52 Mg45 2.079 . S
O52 C54 1.273 . S
C53 O49 1.246 . S
C53 O50 1.259 . S
C54 O51 1.252 . S
C54 O52 1.273 . S
O55 Mg42 2.010 . S
O55 C47 1.249 . S
Mg56 O57 2.028 . S
Mg56 O63 1.986 1_545 S
Mg56 O65 2.114 . S
Mg56 O66 2.251 . S
Mg56 O69 2.010 . S
O57 Mg56 2.028 . S
O57 C60 1.250 . S
O58 Mg59 2.028 . S
O58 C60 1.248 . S
Mg59 O58 2.028 . S
Mg59 O64 2.032 1_545 S
Mg59 O66 2.079 . S
C60 O57 1.250 . S
C60 O58 1.248 . S
C61 O62 1.264 1_545 S
C61 O69 1.249 . S
O62 C61 1.264 1_565 S
O63 Mg56 1.986 1_565 S
O63 C67 1.246 . S
O64 Mg59 2.032 1_565 S
O64 C67 1.259 . S
O65 Mg56 2.114 . S
O65 C68 1.252 . S
O66 Mg56 2.251 . S
O66 Mg59 2.079 . S
O66 C68 1.273 . S
C67 O63 1.246 . S
C67 O64 1.259 . S
C68 O65 1.252 . S
C68 O66 1.273 . S
O69 Mg56 2.010 . S
O69 C61 1.249 . S
Mg70 O71 2.028 . S
Mg70 O77 1.986 . S
Mg70 O79 2.114 . S
Mg70 O80 2.251 . S
Mg70 O83 2.010 . S
O71 Mg70 2.028 . S
O71 C74 1.250 . S
O72 Mg73 2.028 . S
O72 C74 1.248 . S
Mg73 O72 2.028 . S
Mg73 O78 2.032 . S
Mg73 O80 2.079 . S
C74 O71 1.250 . S
C74 O72 1.248 . S
C75 O76 1.264 . S
C75 O83 1.249 . S
O76 C75 1.264 . S
O77 Mg70 1.986 . S
O77 C81 1.246 . S
O78 Mg73 2.032 . S
O78 C81 1.259 . S
O79 Mg70 2.114 . S
O79 C82 1.252 . S
O80 Mg70 2.251 . S
O80 Mg73 2.079 . S
O80 C82 1.273 . S
C81 O77 1.246 . S
C81 O78 1.259 . S
C82 O79 1.252 . S
C82 O80 1.273 . S
O83 Mg70 2.010 . S
O83 C75 1.249 . S
Mg84 O85 2.028 1_545 S
Mg84 O91 1.986 . S
Mg84 O93 2.114 . S
Mg84 O94 2.251 . S
Mg84 O97 2.010 . S
O85 Mg84 2.028 1_565 S
O85 C88 1.250 . S
O86 Mg87 2.028 1_565 S
O86 C88 1.248 . S
Mg87 O86 2.028 1_545 S
Mg87 O92 2.032 . S
Mg87 O94 2.079 . S
C88 O85 1.250 . S
C88 O86 1.248 . S
C89 O90 1.264 . S
C89 O97 1.249 . S
O90 C89 1.264 . S
O91 Mg84 1.986 . S
O91 C95 1.246 . S
O92 Mg87 2.032 . S
O92 C95 1.259 . S
O93 Mg84 2.114 . S
O93 C96 1.252 . S
O94 Mg84 2.251 . S
O94 Mg87 2.079 . S
O94 C96 1.273 . S
C95 O91 1.246 . S
C95 O92 1.259 . S
C96 O93 1.252 . S
C96 O94 1.273 . S
O97 Mg84 2.010 . S
O97 C89 1.249 . S
Mg98 O99 2.028 . S
Mg98 O105 1.986 1_554 S
Mg98 O107 2.114 . S
Mg98 O108 2.251 . S
Mg98 O111 2.010 . S
O99 Mg98 2.028 . S
O99 C102 1.250 . S
O100 Mg101 2.028 . S
O100 C102 1.248 . S
Mg101 O100 2.028 . S
Mg101 O106 2.052 . S
Mg101 O108 2.079 . S
C102 O99 1.250 . S
C102 O100 1.248 . S
C103 O104 1.264 . S
C103 O111 1.249 . S
O104 C103 1.264 . S
O105 Mg98 1.986 1_556 S
O105 C109 1.246 . S
O106 Mg101 2.052 . S
O106 C109 1.248 1_554 S
O107 Mg98 2.114 . S
O107 C110 1.252 . S
O108 Mg98 2.251 . S
O108 Mg101 2.079 . S
O108 C110 1.273 . S
C109 O105 1.246 . S
C109 O106 1.248 1_556 S
C110 O107 1.252 . S
C110 O108 1.273 . S
O111 Mg98 2.010 . S
O111 C103 1.249 . S
Mg112 O113 2.028 . S
Mg112 O119 1.986 . S
Mg112 O121 2.114 . S
Mg112 O122 2.251 . S
Mg112 O125 2.010 . S
O113 Mg112 2.028 . S
O113 C116 1.250 . S
O114 Mg115 2.028 . S
O114 C116 1.248 . S
Mg115 O114 2.028 . S
Mg115 O120 2.032 . S
Mg115 O122 2.079 . S
C116 O113 1.250 . S
C116 O114 1.248 . S
C117 O118 1.264 . S
C117 O125 1.249 . S
O118 C117 1.264 . S
O119 Mg112 1.986 . S
O119 C123 1.246 . S
O120 Mg115 2.032 . S
O120 C123 1.259 . S
O121 Mg112 2.114 . S
O121 C124 1.252 . S
O122 Mg112 2.251 . S
O122 Mg115 2.079 . S
O122 C124 1.273 . S
C123 O119 1.246 . S
C123 O120 1.259 . S
C124 O121 1.252 . S
C124 O122 1.273 . S
O125 Mg112 2.010 . S
O125 C117 1.249 . S
Mg126 O127 2.028 . S
Mg126 O133 1.986 . S
Mg126 O135 2.114 . S
Mg126 O136 2.251 . S
Mg126 O139 2.010 . S
O127 Mg126 2.028 . S
O127 C130 1.250 . S
O128 Mg129 2.028 . S
O128 C130 1.248 . S
Mg129 O128 2.028 . S
Mg129 O134 2.032 . S
Mg129 O136 2.079 . S
C130 O127 1.250 . S
C130 O128 1.248 . S
C131 O132 1.264 . S
C131 O139 1.249 . S
O132 C131 1.264 . S
O133 Mg126 1.986 . S
O133 C137 1.246 . S
O134 Mg129 2.032 . S
O134 C137 1.259 . S
O135 Mg126 2.114 . S
O135 C138 1.252 . S
O136 Mg126 2.251 . S
O136 Mg129 2.079 . S
O136 C138 1.273 . S
C137 O133 1.246 . S
C137 O134 1.259 . S
C138 O135 1.252 . S
C138 O136 1.273 . S
O139 Mg126 2.010 . S
O139 C131 1.249 . S
Mg140 O141 2.028 . S
Mg140 O147 1.986 . S
Mg140 O149 2.114 . S
Mg140 O150 2.251 . S
Mg140 O153 2.010 . S
O141 Mg140 2.028 . S
O141 C144 1.250 . S
O142 Mg143 2.028 . S
O142 C144 1.248 . S
Mg143 O142 2.028 . S
Mg143 O148 2.032 . S
Mg143 O150 2.079 . S
C144 O141 1.250 . S
C144 O142 1.248 . S
C145 O146 1.264 . S
C145 O153 1.249 . S
O146 C145 1.264 . S
O147 Mg140 1.986 . S
O147 C151 1.246 . S
O148 Mg143 2.032 . S
O148 C151 1.259 . S
O149 Mg140 2.114 . S
O149 C152 1.252 . S
O150 Mg140 2.251 . S
O150 Mg143 2.079 . S
O150 C152 1.273 . S
C151 O147 1.246 . S
C151 O148 1.259 . S
C152 O149 1.252 . S
C152 O150 1.273 . S
O153 Mg140 2.010 . S
O153 C145 1.249 . S
Mg154 O155 2.028 . S
Mg154 O161 1.986 . S
Mg154 O163 2.114 . S
Mg154 O164 2.251 . S
Mg154 O167 2.010 . S
O155 Mg154 2.028 . S
O155 C158 1.250 . S
O156 Mg157 2.028 . S
O156 C158 1.248 . S
Mg157 O156 2.028 . S
Mg157 O162 2.032 . S
Mg157 O164 2.079 . S
C158 O155 1.250 . S
C158 O156 1.248 . S
C159 O160 1.264 . S
C159 O167 1.249 . S
O160 C159 1.264 . S
O161 Mg154 1.986 . S
O161 C165 1.246 . S
O162 Mg157 2.032 . S
O162 C165 1.259 . S
O163 Mg154 2.114 . S
O163 C166 1.252 . S
O164 Mg154 2.251 . S
O164 Mg157 2.079 . S
O164 C166 1.273 . S
C165 O161 1.246 . S
C165 O162 1.259 . S
C166 O163 1.252 . S
C166 O164 1.273 . S
O167 Mg154 2.010 . S
O167 C159 1.249 . S
Mg168 O169 2.023 1_655 S
Mg168 O175 1.979 1_655 S
Mg168 O177 2.136 . S
Mg168 O178 2.292 . S
Mg168 O181 1.974 1_655 S
O169 Mg168 2.023 1_455 S
O169 C172 1.250 1_455 S
O170 Mg171 2.028 . S
O170 C172 1.248 . S
Mg171 O170 2.028 . S
Mg171 O176 2.032 . S
Mg171 O178 2.079 . S
C172 O169 1.250 1_655 S
C172 O170 1.248 . S
C173 O174 1.264 . S
C173 O181 1.249 . S
O174 C173 1.264 . S
O175 Mg168 1.979 1_455 S
O175 C179 1.246 1_455 S
O176 Mg171 2.032 . S
O176 C179 1.259 . S
O177 Mg168 2.136 . S
O177 C180 1.252 . S
O178 Mg168 2.292 . S
O178 Mg171 2.079 . S
O178 C180 1.273 . S
C179 O175 1.246 1_655 S
C179 O176 1.259 . S
C180 O177 1.252 . S
C180 O178 1.273 . S
O181 Mg168 1.974 1_455 S
O181 C173 1.249 . S
Mg182 O183 2.028 . S
Mg182 O189 1.986 . S
Mg182 O191 2.114 . S
Mg182 O192 2.251 1_455 S
Mg182 O195 2.010 . S
O183 Mg182 2.028 . S
O183 C186 1.250 . S
O184 Mg185 2.028 1_455 S
O184 C186 1.248 . S
Mg185 O184 2.028 1_655 S
Mg185 O190 2.032 1_655 S
Mg185 O192 2.079 . S
C186 O183 1.250 . S
C186 O184 1.248 . S
C187 O188 1.264 . S
C187 O195 1.249 . S
O188 C187 1.264 . S
O189 Mg182 1.986 . S
O189 C193 1.246 . S
O190 Mg185 2.032 1_455 S
O190 C193 1.259 . S
O191 Mg182 2.114 . S
O191 C194 1.252 1_455 S
O192 Mg182 2.251 1_655 S
O192 Mg185 2.079 . S
O192 C194 1.273 . S
C193 O189 1.246 . S
C193 O190 1.259 . S
C194 O191 1.252 1_655 S
C194 O192 1.273 . S
O195 Mg182 2.010 . S
O195 C187 1.249 . S
Mg196 O197 2.028 . S
Mg196 O203 1.986 . S
Mg196 O205 2.114 . S
Mg196 O206 2.251 . S
Mg196 O209 2.010 . S
O197 Mg196 2.028 . S
O197 C200 1.250 . S
O198 Mg199 2.028 . S
O198 C200 1.248 . S
Mg199 O198 2.028 . S
Mg199 O204 2.032 . S
Mg199 O206 2.079 . S
C200 O197 1.250 . S
C200 O198 1.248 . S
C201 O202 1.264 . S
C201 O209 1.249 . S
O202 C201 1.264 . S
O203 Mg196 1.986 . S
O203 C207 1.246 . S
O204 Mg199 2.032 . S
O204 C207 1.259 . S
O205 Mg196 2.114 . S
O205 C208 1.252 . S
O206 Mg196 2.251 . S
O206 Mg199 2.079 . S
O206 C208 1.273 . S
C207 O203 1.246 . S
C207 O204 1.259 . S
C208 O205 1.252 . S
C208 O206 1.273 . S
O209 Mg196 2.010 . S
O209 C201 1.249 . S
Mg210 O211 2.028 . S
Mg210 O217 1.986 . S
Mg210 O219 2.114 . S
Mg210 O220 2.251 . S
Mg210 O223 2.010 . S
O211 Mg210 2.028 . S
O211 C214 1.250 . S
O212 Mg213 2.028 . S
O212 C214 1.248 . S
Mg213 O212 2.028 . S
Mg213 O218 2.032 . S
Mg213 O220 2.079 . S
C214 O211 1.250 . S
C214 O212 1.248 . S
C215 O216 1.264 . S
C215 O223 1.249 . S
O216 C215 1.264 . S
O217 Mg210 1.986 . S
O217 C221 1.246 . S
O218 Mg213 2.032 . S
O218 C221 1.259 . S
O219 Mg210 2.114 . S
O219 C222 1.252 . S
O220 Mg210 2.251 . S
O220 Mg213 2.079 . S
O220 C222 1.273 . S
C221 O217 1.246 . S
C221 O218 1.259 . S
C222 O219 1.252 . S
C222 O220 1.273 . S
O223 Mg210 2.010 . S
O223 C215 1.249 . S
Mg224 O225 2.028 1_545 S
Mg224 O231 1.986 . S
Mg224 O233 2.116 . S
Mg224 O234 2.251 . S
Mg224 O237 2.010 . S
O225 Mg224 2.028 1_565 S
O225 C228 1.250 . S
O226 Mg227 2.028 1_565 S
O226 C228 1.248 . S
Mg227 O226 2.028 1_545 S
Mg227 O232 2.032 . S
Mg227 O234 2.079 . S
C228 O225 1.250 . S
C228 O226 1.248 . S
C229 O230 1.264 . S
C229 O237 1.249 . S
O230 C229 1.264 . S
O231 Mg224 1.986 . S
O231 C235 1.246 . S
O232 Mg227 2.032 . S
O232 C235 1.259 . S
O233 Mg224 2.116 . S
O233 C236 1.253 . S
O234 Mg224 2.251 . S
O234 Mg227 2.079 . S
O234 C236 1.273 . S
C235 O231 1.246 . S
C235 O232 1.259 . S
C236 O233 1.253 . S
C236 O234 1.273 . S
O237 Mg224 2.010 . S
O237 C229 1.249 . S
Mg238 O239 2.028 . S
Mg238 O245 1.986 . S
Mg238 O247 2.114 . S
Mg238 O248 2.251 . S
Mg238 O251 2.010 . S
O239 Mg238 2.028 . S
O239 C242 1.250 . S
O240 Mg241 2.028 . S
O240 C242 1.248 . S
Mg241 O240 2.028 . S
Mg241 O246 2.032 . S
Mg241 O248 2.079 . S
C242 O239 1.250 . S
C242 O240 1.248 . S
C243 O244 1.264 . S
C243 O251 1.249 . S
O244 C243 1.264 . S
O245 Mg238 1.986 . S
O245 C249 1.246 . S
O246 Mg241 2.032 . S
O246 C249 1.259 . S
O247 Mg238 2.114 . S
O247 C250 1.252 . S
O248 Mg238 2.251 . S
O248 Mg241 2.079 . S
O248 C250 1.273 . S
C249 O245 1.246 . S
C249 O246 1.259 . S
C250 O247 1.252 . S
C250 O248 1.273 . S
O251 Mg238 2.010 . S
O251 C243 1.249 . S
Mg252 O253 2.028 . S
Mg252 O259 1.986 1_545 S
Mg252 O261 2.114 . S
Mg252 O262 2.251 . S
Mg252 O265 2.010 . S
O253 Mg252 2.028 . S
O253 C256 1.250 . S
O254 Mg255 2.028 . S
O254 C256 1.248 . S
Mg255 O254 2.028 . S
Mg255 O260 2.032 1_545 S
Mg255 O262 2.079 . S
C256 O253 1.250 . S
C256 O254 1.248 . S
C257 O258 1.264 1_545 S
C257 O265 1.249 . S
O258 C257 1.264 1_565 S
O259 Mg252 1.986 1_565 S
O259 C263 1.246 . S
O260 Mg255 2.032 1_565 S
O260 C263 1.259 . S
O261 Mg252 2.114 . S
O261 C264 1.252 . S
O262 Mg252 2.251 . S
O262 Mg255 2.079 . S
O262 C264 1.273 . S
C263 O259 1.246 . S
C263 O260 1.259 . S
C264 O261 1.252 . S
C264 O262 1.273 . S
O265 Mg252 2.010 . S
O265 C257 1.249 . S
Mg266 O267 2.028 . S
Mg266 O273 1.986 . S
Mg266 O275 2.114 . S
Mg266 O276 2.251 . S
Mg266 O279 2.010 . S
O267 Mg266 2.028 . S
O267 C270 1.250 1_554 S
O268 Mg269 2.028 . S
O268 C270 1.248 1_554 S
Mg269 O268 2.028 . S
Mg269 O274 2.032 . S
Mg269 O276 2.079 . S
C270 O267 1.250 1_556 S
C270 O268 1.248 1_556 S
C271 O272 1.264 . S
C271 O279 1.249 . S
O272 C271 1.264 . S
O273 Mg266 1.986 . S
O273 C277 1.246 . S
O274 Mg269 2.032 . S
O274 C277 1.259 . S
O275 Mg266 2.114 . S
O275 C278 1.252 . S
O276 Mg266 2.251 . S
O276 Mg269 2.079 . S
O276 C278 1.273 . S
C277 O273 1.246 . S
C277 O274 1.259 . S
C278 O275 1.252 . S
C278 O276 1.273 . S
O279 Mg266 2.010 . S
O279 C271 1.249 . S
Mg280 O281 2.028 1_556 S
Mg280 O287 1.986 . S
Mg280 O289 2.114 1_556 S
Mg280 O290 2.251 . S
Mg280 O293 2.010 . S
O281 Mg280 2.028 1_554 S
O281 C284 1.250 . S
O282 Mg283 2.005 1_554 S
O282 C284 1.248 . S
Mg283 O282 2.005 1_556 S
Mg283 O288 2.054 . S
Mg283 O290 2.082 . S
C284 O281 1.250 . S
C284 O282 1.248 . S
C285 O286 1.264 . S
C285 O293 1.249 . S
O286 C285 1.264 . S
O287 Mg280 1.986 . S
O287 C291 1.246 . S
O288 Mg283 2.054 . S
O288 C291 1.259 . S
O289 Mg280 2.114 1_554 S
O289 C292 1.252 . S
O290 Mg280 2.251 . S
O290 Mg283 2.082 . S
O290 C292 1.273 1_556 S
C291 O287 1.246 . S
C291 O288 1.259 . S
C292 O289 1.252 . S
C292 O290 1.273 1_554 S
O293 Mg280 2.010 . S
O293 C285 1.249 . S
Mg294 O295 2.028 . S
Mg294 O301 1.986 . S
Mg294 O303 2.114 . S
Mg294 O304 2.251 . S
Mg294 O307 2.010 . S
O295 Mg294 2.028 . S
O295 C298 1.250 . S
O296 Mg297 2.028 . S
O296 C298 1.248 . S
Mg297 O296 2.028 . S
Mg297 O302 2.032 . S
Mg297 O304 2.079 . S
C298 O295 1.250 . S
C298 O296 1.248 . S
C299 O300 1.264 . S
C299 O307 1.249 . S
O300 C299 1.264 . S
O301 Mg294 1.986 . S
O301 C305 1.246 . S
O302 Mg297 2.032 . S
O302 C305 1.259 . S
O303 Mg294 2.114 . S
O303 C306 1.252 . S
O304 Mg294 2.251 . S
O304 Mg297 2.079 . S
O304 C306 1.273 . S
C305 O301 1.246 . S
C305 O302 1.259 . S
C306 O303 1.252 . S
C306 O304 1.273 . S
O307 Mg294 2.010 . S
O307 C299 1.249 . S
Mg308 O309 2.028 . S
Mg308 O315 1.986 . S
Mg308 O317 2.114 . S
Mg308 O318 2.251 . S
Mg308 O321 2.010 . S
O309 Mg308 2.028 . S
O309 C312 1.250 . S
O310 Mg311 2.028 . S
O310 C312 1.248 . S
Mg311 O310 2.028 . S
Mg311 O316 2.032 . S
Mg311 O318 2.079 . S
C312 O309 1.250 . S
C312 O310 1.248 . S
C313 O314 1.264 . S
C313 O321 1.249 . S
O314 C313 1.264 . S
O315 Mg308 1.986 . S
O315 C319 1.246 . S
O316 Mg311 2.032 . S
O316 C319 1.259 . S
O317 Mg308 2.114 . S
O317 C320 1.252 . S
O318 Mg308 2.251 . S
O318 Mg311 2.079 . S
O318 C320 1.273 . S
C319 O315 1.246 . S
C319 O316 1.259 . S
C320 O317 1.252 . S
C320 O318 1.273 . S
O321 Mg308 2.010 . S
O321 C313 1.249 . S
Mg322 O323 2.028 . S
Mg322 O329 1.986 . S
Mg322 O331 2.114 . S
Mg322 O332 2.251 . S
Mg322 O335 2.010 . S
O323 Mg322 2.028 . S
O323 C326 1.250 . S
O324 Mg325 2.028 . S
O324 C326 1.248 . S
Mg325 O324 2.028 . S
Mg325 O330 2.032 . S
Mg325 O332 2.079 . S
C326 O323 1.250 . S
C326 O324 1.248 . S
C327 O328 1.264 . S
C327 O335 1.249 . S
O328 C327 1.264 . S
O329 Mg322 1.986 . S
O329 C333 1.246 . S
O330 Mg325 2.032 . S
O330 C333 1.259 . S
O331 Mg322 2.114 . S
O331 C334 1.252 . S
O332 Mg322 2.251 . S
O332 Mg325 2.079 . S
O332 C334 1.273 . S
C333 O329 1.246 . S
C333 O330 1.259 . S
C334 O331 1.252 . S
C334 O332 1.273 . S
O335 Mg322 2.010 . S
O335 C327 1.249 . S
C336 O352 1.251 1_456 S
C336 O354 1.254 . S
N337 C338 1.333 1_565 S
N337 C342 1.307 . S
N337 Zn343 2.024 1_665 S
C338 N337 1.333 1_545 S
C338 C339 1.379 . S
C338 H356 0.952 . S
C339 C338 1.379 . S
C339 C340 1.390 1_545 S
C339 H366 0.949 . S
C340 C339 1.390 1_565 S
C340 C341 1.357 . S
C341 C340 1.357 . S
C341 C342 1.370 . S
C341 H367 0.950 . S
C342 N337 1.307 . S
C342 C341 1.370 . S
C342 H360 0.948 . S
Zn343 N337 2.024 1_445 S
Zn343 O352 2.040 1_455 S
Zn343 O358 2.034 . S
Zn343 O362 2.023 1_545 S
Zn343 O364 2.023 1_545 S
C344 O363 1.246 . S
C344 O364 1.249 . S
N345 C346 1.307 1_554 S
N345 C347 1.333 . S
N345 Zn351 2.020 . S
C346 N345 1.307 1_556 S
C346 C350 1.370 . S
C346 H357 0.948 . S
C347 N345 1.333 . S
C347 C348 1.379 . S
C347 H355 0.952 . S
C348 C347 1.379 . S
C348 C349 1.390 . S
C348 H368 0.949 . S
C349 C348 1.390 . S
C349 C350 1.357 1_554 S
C350 C346 1.370 . S
C350 C349 1.357 1_556 S
C350 H369 0.950 . S
Zn351 N345 2.020 . S
Zn351 O354 2.025 1_554 S
Zn351 O359 2.024 . S
Zn351 O361 2.039 . S
Zn351 O363 2.034 1_545 S
O352 C336 1.251 1_654 S
O352 Zn343 2.040 1_655 S
C353 O358 1.246 . S
C353 O359 1.249 . S
O354 C336 1.254 . S
O354 Zn351 2.025 1_556 S
H355 C347 0.952 . S
H356 C338 0.952 . S
H357 C346 0.948 . S
O358 Zn343 2.034 . S
O358 C353 1.246 . S
O359 Zn351 2.024 . S
O359 C353 1.249 . S
H360 C342 0.948 . S
O361 Zn351 2.039 . S
O361 C365 1.251 . S
O362 Zn343 2.023 1_565 S
O362 C365 1.254 1_565 S
O363 C344 1.246 . S
O363 Zn351 2.034 1_565 S
O364 Zn343 2.023 1_565 S
O364 C344 1.249 . S
C365 O361 1.251 . S
C365 O362 1.254 1_545 S
H366 C339 0.949 . S
H367 C341 0.950 . S
H368 C348 0.949 . S
H369 C350 0.950 . S
C370 O386 1.251 . S
C370 O388 1.254 . S
N371 C372 1.333 . S
N371 C376 1.307 . S
N371 Zn377 2.020 . S
C372 N371 1.333 . S
C372 C373 1.379 . S
C372 H390 0.952 . S
C373 C372 1.379 . S
C373 C374 1.390 . S
C373 H400 0.949 . S
C374 C373 1.390 . S
C374 C375 1.357 . S
C375 C374 1.357 . S
C375 C376 1.370 . S
C375 H401 0.950 . S
C376 N371 1.307 . S
C376 C375 1.370 . S
C376 H394 0.948 . S
Zn377 N371 2.020 . S
Zn377 O386 2.039 . S
Zn377 O392 2.034 . S
Zn377 O396 2.025 . S
Zn377 O398 2.024 . S
C378 O397 1.246 . S
C378 O398 1.249 . S
N379 C380 1.307 . S
N379 C381 1.333 . S
N379 Zn385 2.020 . S
C380 N379 1.307 . S
C380 C384 1.370 . S
C380 H391 0.948 . S
C381 N379 1.333 . S
C381 C382 1.379 . S
C381 H389 0.952 . S
C382 C381 1.379 . S
C382 C383 1.390 . S
C382 H402 0.949 . S
C383 C382 1.390 . S
C383 C384 1.357 . S
C384 C380 1.370 . S
C384 C383 1.357 . S
C384 H403 0.950 . S
Zn385 N379 2.020 . S
Zn385 O388 2.025 . S
Zn385 O393 2.024 . S
Zn385 O395 2.039 . S
Zn385 O397 2.034 . S
O386 C370 1.251 . S
O386 Zn377 2.039 . S
C387 O392 1.246 . S
C387 O393 1.249 . S
O388 C370 1.254 . S
O388 Zn385 2.025 . S
H389 C381 0.952 . S
H390 C372 0.952 . S
H391 C380 0.948 . S
O392 Zn377 2.034 . S
O392 C387 1.246 . S
O393 Zn385 2.024 . S
O393 C387 1.249 . S
H394 C376 0.948 . S
O395 Zn385 2.039 . S
O395 C399 1.251 . S
O396 Zn377 2.025 . S
O396 C399 1.254 . S
O397 C378 1.246 . S
O397 Zn385 2.034 . S
O398 Zn377 2.024 . S
O398 C378 1.249 . S
C399 O395 1.251 . S
C399 O396 1.254 . S
H400 C373 0.949 . S
H401 C375 0.950 . S
H402 C382 0.949 . S
H403 C384 0.950 . S
C404 O420 1.251 . S
C404 O422 1.254 . S
N405 C406 1.333 . S
N405 C410 1.307 . S
N405 Zn411 2.020 . S
C406 N405 1.333 . S
C406 C407 1.379 . S
C406 H424 0.952 . S
C407 C406 1.379 . S
C407 C408 1.390 . S
C407 H434 0.949 . S
C408 C407 1.390 . S
C408 C409 1.357 . S
C409 C408 1.357 . S
C409 C410 1.370 . S
C409 H435 0.950 . S
C410 N405 1.307 . S
C410 C409 1.370 . S
C410 H428 0.948 . S
Zn411 N405 2.020 . S
Zn411 O420 2.039 1_565 S
Zn411 O426 2.034 1_565 S
Zn411 O430 2.025 . S
Zn411 O432 2.024 . S
C412 O431 1.246 1_565 S
C412 O432 1.249 . S
N413 C414 1.307 . S
N413 C415 1.333 . S
N413 Zn419 2.020 . S
C414 N413 1.307 . S
C414 C418 1.370 . S
C414 H425 0.948 . S
C415 N413 1.333 . S
C415 C416 1.379 . S
C415 H423 0.952 . S
C416 C415 1.379 . S
C416 C417 1.390 . S
C416 H436 0.949 . S
C417 C416 1.390 . S
C417 C418 1.357 . S
C418 C414 1.370 . S
C418 C417 1.357 . S
C418 H437 0.950 . S
Zn419 N413 2.020 . S
Zn419 O422 2.025 . S
Zn419 O427 2.024 . S
Zn419 O429 2.039 . S
Zn419 O431 2.034 . S
O420 C404 1.251 . S
O420 Zn411 2.039 1_545 S
C421 O426 1.246 . S
C421 O427 1.249 . S
O422 C404 1.254 . S
O422 Zn419 2.025 . S
H423 C415 0.952 . S
H424 C406 0.952 . S
H425 C414 0.948 . S
O426 Zn411 2.034 1_545 S
O426 C421 1.246 . S
O427 Zn419 2.024 . S
O427 C421 1.249 . S
H428 C410 0.948 . S
O429 Zn419 2.039 . S
O429 C433 1.251 . S
O430 Zn411 2.025 . S
O430 C433 1.254 1_565 S
O431 C412 1.246 1_545 S
O431 Zn419 2.034 . S
O432 Zn411 2.024 . S
O432 C412 1.249 . S
C433 O429 1.251 . S
C433 O430 1.254 1_545 S
H434 C407 0.949 . S
H435 C409 0.950 . S
H436 C416 0.949 . S
H437 C418 0.950 . S
C438 O454 1.251 . S
C438 O456 1.254 . S
N439 C440 1.333 . S
N439 C444 1.307 . S
N439 Zn445 2.020 . S
C440 N439 1.333 . S
C440 C441 1.379 . S
C440 H458 0.952 . S
C441 C440 1.379 . S
C441 C442 1.390 . S
C441 H468 0.949 . S
C442 C441 1.390 . S
C442 C443 1.357 . S
C443 C442 1.357 . S
C443 C444 1.370 . S
C443 H469 0.950 . S
C444 N439 1.307 . S
C444 C443 1.370 . S
C444 H462 0.948 . S
Zn445 N439 2.020 . S
Zn445 O454 2.039 . S
Zn445 O460 2.034 . S
Zn445 O464 2.025 . S
Zn445 O466 2.024 . S
C446 O465 1.246 . S
C446 O466 1.249 . S
N447 C448 1.307 . S
N447 C449 1.333 . S
N447 Zn453 2.020 . S
C448 N447 1.307 . S
C448 C452 1.370 . S
C448 H459 0.948 . S
C449 N447 1.333 . S
C449 C450 1.379 . S
C449 H457 0.952 . S
C450 C449 1.379 . S
C450 C451 1.390 . S
C450 H470 0.949 . S
C451 C450 1.390 . S
C451 C452 1.357 . S
C452 C448 1.370 . S
C452 C451 1.357 . S
C452 H471 0.950 . S
Zn453 N447 2.020 . S
Zn453 O456 2.025 . S
Zn453 O461 2.024 . S
Zn453 O463 2.039 . S
Zn453 O465 2.034 . S
O454 C438 1.251 . S
O454 Zn445 2.039 . S
C455 O460 1.246 . S
C455 O461 1.249 . S
O456 C438 1.254 . S
O456 Zn453 2.025 . S
H457 C449 0.952 . S
H458 C440 0.952 . S
H459 C448 0.948 . S
O460 Zn445 2.034 . S
O460 C455 1.246 . S
O461 Zn453 2.024 . S
O461 C455 1.249 . S
H462 C444 0.948 . S
O463 Zn453 2.039 . S
O463 C467 1.251 . S
O464 Zn445 2.025 . S
O464 C467 1.254 . S
O465 C446 1.246 . S
O465 Zn453 2.034 . S
O466 Zn445 2.024 . S
O466 C446 1.249 . S
C467 O463 1.251 . S
C467 O464 1.254 . S
H468 C441 0.949 . S
H469 C443 0.950 . S
H470 C450 0.949 . S
H471 C452 0.950 . S
C472 O488 1.251 . S
C472 O490 1.254 . S
N473 C474 1.333 . S
N473 C478 1.307 . S
N473 Zn479 2.020 . S
C474 N473 1.333 . S
C474 C475 1.379 . S
C474 H492 0.952 . S
C475 C474 1.379 . S
C475 C476 1.390 . S
C475 H502 0.949 . S
C476 C475 1.390 . S
C476 C477 1.357 . S
C477 C476 1.357 . S
C477 C478 1.370 . S
C477 H503 0.950 . S
C478 N473 1.307 . S
C478 C477 1.370 . S
C478 H496 0.948 . S
Zn479 N473 2.020 . S
Zn479 O488 2.039 . S
Zn479 O494 2.034 . S
Zn479 O498 2.025 . S
Zn479 O500 2.024 1_545 S
C480 O499 1.246 . S
C480 O500 1.249 . S
N481 C482 1.307 . S
N481 C483 1.333 1_455 S
N481 Zn487 2.020 1_565 S
C482 N481 1.307 . S
C482 C486 1.370 . S
C482 H493 0.948 1_565 S
C483 N481 1.333 1_655 S
C483 C484 1.379 . S
C483 H491 0.952 . S
C484 C483 1.379 . S
C484 C485 1.390 . S
C484 H504 0.949 . S
C485 C484 1.390 . S
C485 C486 1.357 1_655 S
C486 C482 1.370 . S
C486 C485 1.357 1_455 S
C486 H505 0.950 . S
Zn487 N481 2.020 1_545 S
Zn487 O490 2.025 . S
Zn487 O495 2.024 . S
Zn487 O497 2.039 1_455 S
Zn487 O499 2.034 1_545 S
O488 C472 1.251 . S
O488 Zn479 2.039 . S
C489 O494 1.246 . S
C489 O495 1.249 . S
O490 C472 1.254 . S
O490 Zn487 2.025 . S
H491 C483 0.952 . S
H492 C474 0.952 . S
H493 C482 0.948 1_545 S
O494 Zn479 2.034 . S
O494 C489 1.246 . S
O495 Zn487 2.024 . S
O495 C489 1.249 . S
H496 C478 0.948 . S
O497 Zn487 2.039 1_655 S
O497 C501 1.251 . S
O498 Zn479 2.025 . S
O498 C501 1.254 1_455 S
O499 C480 1.246 . S
O499 Zn487 2.034 1_565 S
O500 Zn479 2.024 1_565 S
O500 C480 1.249 . S
C501 O497 1.251 . S
C501 O498 1.254 1_655 S
H502 C475 0.949 . S
H503 C477 0.950 . S
H504 C484 0.949 . S
H505 C486 0.950 . S
C506 O522 1.251 . S
C506 O524 1.254 . S
N507 C508 1.333 . S
N507 C512 1.307 . S
N507 Zn513 2.020 . S
C508 N507 1.333 . S
C508 C509 1.379 . S
C508 H526 0.952 . S
C509 C508 1.379 . S
C509 C510 1.390 . S
C509 H536 0.949 . S
C510 C509 1.390 . S
C510 C511 1.357 . S
C511 C510 1.357 . S
C511 C512 1.370 . S
C511 H537 0.950 . S
C512 N507 1.307 . S
C512 C511 1.370 . S
C512 H530 0.948 . S
Zn513 N507 2.020 . S
Zn513 O522 2.039 . S
Zn513 O528 2.034 . S
Zn513 O532 2.025 . S
Zn513 O534 2.024 . S
C514 O533 1.246 . S
C514 O534 1.249 . S
N515 C516 1.307 . S
N515 C517 1.333 . S
N515 Zn521 2.020 . S
C516 N515 1.307 . S
C516 C520 1.370 . S
C516 H527 0.948 . S
C517 N515 1.333 . S
C517 C518 1.379 . S
C517 H525 0.952 . S
C518 C517 1.379 . S
C518 C519 1.390 . S
C518 H538 0.949 . S
C519 C518 1.390 . S
C519 C520 1.357 . S
C520 C516 1.370 . S
C520 C519 1.357 . S
C520 H539 0.950 . S
Zn521 N515 2.020 . S
Zn521 O524 2.025 . S
Zn521 O529 2.024 . S
Zn521 O531 2.039 . S
Zn521 O533 2.034 . S
O522 C506 1.251 . S
O522 Zn513 2.039 . S
C523 O528 1.246 . S
C523 O529 1.249 . S
O524 C506 1.254 . S
O524 Zn521 2.025 . S
H525 C517 0.952 . S
H526 C508 0.952 . S
H527 C516 0.948 . S
O528 Zn513 2.034 . S
O528 C523 1.246 . S
O529 Zn521 2.024 . S
O529 C523 1.249 . S
H530 C512 0.948 . S
O531 Zn521 2.039 . S
O531 C535 1.251 . S
O532 Zn513 2.025 . S
O532 C535 1.254 . S
O533 C514 1.246 . S
O533 Zn521 2.034 . S
O534 Zn513 2.024 . S
O534 C514 1.249 . S
C535 O531 1.251 . S
C535 O532 1.254 . S
H536 C509 0.949 . S
H537 C511 0.950 . S
H538 C518 0.949 . S
H539 C520 0.950 . S
C540 O556 1.251 . S
C540 O558 1.254 . S
N541 C542 1.333 . S
N541 C546 1.307 . S
N541 Zn547 2.020 . S
C542 N541 1.333 . S
C542 C543 1.379 . S
C542 H560 0.952 . S
C543 C542 1.379 . S
C543 C544 1.390 . S
C543 H570 0.949 . S
C544 C543 1.390 . S
C544 C545 1.357 . S
C545 C544 1.357 . S
C545 C546 1.370 . S
C545 H571 0.950 . S
C546 N541 1.307 . S
C546 C545 1.370 . S
C546 H564 0.948 . S
Zn547 N541 2.020 . S
Zn547 O556 2.039 1_545 S
Zn547 O562 2.034 . S
Zn547 O566 2.025 . S
Zn547 O568 2.024 . S
C548 O567 1.246 1_545 S
C548 O568 1.249 . S
N549 C550 1.307 . S
N549 C551 1.333 1_565 S
N549 Zn555 2.020 1_566 S
C550 N549 1.307 . S
C550 C554 1.370 . S
C550 H561 0.948 . S
C551 N549 1.333 1_545 S
C551 C552 1.379 . S
C551 H559 0.952 . S
C552 C551 1.379 . S
C552 C553 1.390 1_545 S
C552 H572 0.949 . S
C553 C552 1.390 1_565 S
C553 C554 1.357 . S
C554 C550 1.370 . S
C554 C553 1.357 . S
C554 H573 0.950 . S
Zn555 N549 2.020 1_544 S
Zn555 O558 2.025 1_545 S
Zn555 O563 2.024 . S
Zn555 O565 2.039 1_554 S
Zn555 O567 2.035 1_545 S
O556 C540 1.251 . S
O556 Zn547 2.039 1_565 S
C557 O562 1.246 . S
C557 O563 1.249 . S
O558 C540 1.254 . S
O558 Zn555 2.025 1_565 S
H559 C551 0.952 . S
H560 C542 0.952 . S
H561 C550 0.948 . S
O562 Zn547 2.034 . S
O562 C557 1.246 . S
O563 Zn555 2.024 . S
O563 C557 1.249 . S
H564 C546 0.948 . S
O565 Zn555 2.039 1_556 S
O565 C569 1.251 1_556 S
O566 Zn547 2.025 . S
O566 C569 1.254 . S
O567 C548 1.246 1_565 S
O567 Zn555 2.035 1_565 S
O568 Zn547 2.024 . S
O568 C548 1.249 . S
C569 O565 1.251 1_554 S
C569 O566 1.254 . S
H570 C543 0.949 . S
H571 C545 0.950 . S
H572 C552 0.949 . S
H573 C554 0.950 . S
C574 O590 1.251 . S
C574 O592 1.254 . S
N575 C576 1.333 . S
N575 C580 1.307 . S
N575 Zn581 2.020 . S
C576 N575 1.333 . S
C576 C577 1.379 . S
C576 H594 0.952 . S
C577 C576 1.379 . S
C577 C578 1.390 . S
C577 H604 0.949 . S
C578 C577 1.390 . S
C578 C579 1.357 . S
C579 C578 1.357 . S
C579 C580 1.370 . S
C579 H605 0.950 . S
C580 N575 1.307 . S
C580 C579 1.370 . S
C580 H598 0.948 . S
Zn581 N575 2.020 . S
Zn581 O590 2.039 . S
Zn581 O596 2.034 . S
Zn581 O600 2.025 . S
Zn581 O602 2.024 . S
C582 O601 1.246 . S
C582 O602 1.249 . S
N583 C584 1.307 . S
N583 C585 1.333 . S
N583 Zn589 2.020 . S
C584 N583 1.307 . S
C584 C588 1.370 . S
C584 H595 0.948 . S
C585 N583 1.333 . S
C585 C586 1.379 . S
C585 H593 0.952 . S
C586 C585 1.379 . S
C586 C587 1.390 . S
C586 H606 0.949 . S
C587 C586 1.390 . S
C587 C588 1.357 . S
C588 C584 1.370 . S
C588 C587 1.357 . S
C588 H607 0.950 . S
Zn589 N583 2.020 . S
Zn589 O592 2.025 . S
Zn589 O597 2.024 . S
Zn589 O599 2.039 . S
Zn589 O601 2.034 . S
O590 C574 1.251 . S
O590 Zn581 2.039 . S
C591 O596 1.246 . S
C591 O597 1.249 . S
O592 C574 1.254 . S
O592 Zn589 2.025 . S
H593 C585 0.952 . S
H594 C576 0.952 . S
H595 C584 0.948 . S
O596 Zn581 2.034 . S
O596 C591 1.246 . S
O597 Zn589 2.024 . S
O597 C591 1.249 . S
H598 C580 0.948 . S
O599 Zn589 2.039 . S
O599 C603 1.251 . S
O600 Zn581 2.025 . S
O600 C603 1.254 . S
O601 C582 1.246 . S
O601 Zn589 2.034 . S
O602 Zn581 2.024 . S
O602 C582 1.249 . S
C603 O599 1.251 . S
C603 O600 1.254 . S
H604 C577 0.949 . S
H605 C579 0.950 . S
H606 C586 0.949 . S
H607 C588 0.950 . S
C608 O624 1.251 . S
C608 O626 1.254 . S
N609 C610 1.333 . S
N609 C614 1.307 . S
N609 Zn615 2.020 1_556 S
C610 N609 1.333 . S
C610 C611 1.379 . S
C610 H628 0.952 . S
C611 C610 1.379 . S
C611 C612 1.390 . S
C611 H638 0.949 . S
C612 C611 1.390 . S
C612 C613 1.357 . S
C613 C612 1.357 . S
C613 C614 1.370 . S
C613 H639 0.950 . S
C614 N609 1.307 . S
C614 C613 1.370 . S
C614 H632 0.948 . S
Zn615 N609 2.020 1_554 S
Zn615 O624 2.039 . S
Zn615 O630 2.034 . S
Zn615 O634 2.025 1_554 S
Zn615 O636 2.024 1_554 S
C616 O635 1.246 . S
C616 O636 1.249 1_554 S
N617 C618 1.307 . S
N617 C619 1.333 . S
N617 Zn623 2.020 . S
C618 N617 1.307 . S
C618 C622 1.370 . S
C618 H629 0.948 . S
C619 N617 1.333 . S
C619 C620 1.379 . S
C619 H627 0.952 . S
C620 C619 1.379 . S
C620 C621 1.390 . S
C620 H640 0.949 . S
C621 C620 1.390 . S
C621 C622 1.357 . S
C622 C618 1.370 . S
C622 C621 1.357 . S
C622 H641 0.950 . S
Zn623 N617 2.020 . S
Zn623 O626 2.025 . S
Zn623 O631 2.024 . S
Zn623 O633 2.039 . S
Zn623 O635 2.034 . S
O624 C608 1.251 . S
O624 Zn615 2.039 . S
C625 O630 1.246 . S
C625 O631 1.249 . S
O626 C608 1.254 . S
O626 Zn623 2.025 . S
H627 C619 0.952 . S
H628 C610 0.952 . S
H629 C618 0.948 . S
O630 Zn615 2.034 . S
O630 C625 1.246 . S
O631 Zn623 2.024 . S
O631 C625 1.249 . S
H632 C614 0.948 . S
O633 Zn623 2.039 . S
O633 C637 1.251 . S
O634 Zn615 2.025 1_556 S
O634 C637 1.254 1_556 S
O635 C616 1.246 . S
O635 Zn623 2.034 . S
O636 Zn615 2.024 1_556 S
O636 C616 1.249 1_556 S
C637 O633 1.251 . S
C637 O634 1.254 1_554 S
H638 C611 0.949 . S
H639 C613 0.950 . S
H640 C620 0.949 . S
H641 C622 0.950 . S
C642 O658 1.251 . S
C642 O660 1.254 . S
N643 C644 1.333 . S
N643 C648 1.307 . S
N643 Zn649 2.020 . S
C644 N643 1.333 . S
C644 C645 1.379 . S
C644 H662 0.952 . S
C645 C644 1.379 . S
C645 C646 1.390 . S
C645 H672 0.949 . S
C646 C645 1.390 . S
C646 C647 1.357 . S
C647 C646 1.357 . S
C647 C648 1.370 . S
C647 H673 0.950 . S
C648 N643 1.307 . S
C648 C647 1.370 . S
C648 H666 0.948 . S
Zn649 N643 2.020 . S
Zn649 O658 2.039 . S
Zn649 O664 2.034 . S
Zn649 O668 2.025 . S
Zn649 O670 2.024 . S
C650 O669 1.246 . S
C650 O670 1.249 . S
N651 C652 1.307 . S
N651 C653 1.333 . S
N651 Zn657 2.020 . S
C652 N651 1.307 . S
C652 C656 1.370 . S
C652 H663 0.948 . S
C653 N651 1.333 . S
C653 C654 1.379 . S
C653 H661 0.952 . S
C654 C653 1.379 . S
C654 C655 1.390 . S
C654 H674 0.949 . S
C655 C654 1.390 . S
C655 C656 1.357 . S
C656 C652 1.370 . S
C656 C655 1.357 . S
C656 H675 0.950 . S
Zn657 N651 2.020 . S
Zn657 O660 2.025 . S
Zn657 O665 2.024 . S
Zn657 O667 2.039 . S
Zn657 O669 2.034 . S
O658 C642 1.251 . S
O658 Zn649 2.039 . S
C659 O664 1.246 . S
C659 O665 1.249 . S
O660 C642 1.254 . S
O660 Zn657 2.025 . S
H661 C653 0.952 . S
H662 C644 0.952 . S
H663 C652 0.948 . S
O664 Zn649 2.034 . S
O664 C659 1.246 . S
O665 Zn657 2.024 . S
O665 C659 1.249 . S
H666 C648 0.948 . S
O667 Zn657 2.039 . S
O667 C671 1.251 . S
O668 Zn649 2.025 . S
O668 C671 1.254 . S
O669 C650 1.246 . S
O669 Zn657 2.034 . S
O670 Zn649 2.024 . S
O670 C650 1.249 . S
C671 O667 1.251 . S
C671 O668 1.254 . S
H672 C645 0.949 . S
H673 C647 0.950 . S
H674 C654 0.949 . S
H675 C656 0.950 . S
C676 O692 1.251 . S
C676 O694 1.254 . S
N677 C678 1.333 . S
N677 C682 1.307 . S
N677 Zn683 2.020 . S
C678 N677 1.333 . S
C678 C679 1.379 . S
C678 H696 0.952 . S
C679 C678 1.379 . S
C679 C680 1.390 . S
C679 H706 0.949 . S
C680 C679 1.390 . S
C680 C681 1.357 . S
C681 C680 1.357 . S
C681 C682 1.370 . S
C681 H707 0.950 . S
C682 N677 1.307 . S
C682 C681 1.370 . S
C682 H700 0.948 . S
Zn683 N677 2.020 . S
Zn683 O692 2.039 . S
Zn683 O698 2.034 1_455 S
Zn683 O702 2.025 . S
Zn683 O704 2.024 . S
C684 O703 1.246 . S
C684 O704 1.249 . S
N685 C686 1.307 1_455 S
N685 C687 1.333 . S
N685 Zn691 2.020 . S
C686 N685 1.307 1_655 S
C686 C690 1.370 . S
C686 H697 0.948 . S
C687 N685 1.333 . S
C687 C688 1.379 . S
C687 H695 0.952 . S
C688 C687 1.379 . S
C688 C689 1.390 1_455 S
C688 H708 0.949 . S
C689 C688 1.390 1_655 S
C689 C690 1.357 . S
C690 C686 1.370 . S
C690 C689 1.357 . S
C690 H709 0.950 . S
Zn691 N685 2.020 . S
Zn691 O694 2.025 . S
Zn691 O699 2.024 1_455 S
Zn691 O701 2.039 . S
Zn691 O703 2.034 . S
O692 C676 1.251 . S
O692 Zn683 2.039 . S
C693 O698 1.246 . S
C693 O699 1.249 . S
O694 C676 1.254 . S
O694 Zn691 2.025 . S
H695 C687 0.952 . S
H696 C678 0.952 . S
H697 C686 0.948 . S
O698 Zn683 2.034 1_655 S
O698 C693 1.246 . S
O699 Zn691 2.024 1_655 S
O699 C693 1.249 . S
H700 C682 0.948 . S
O701 Zn691 2.039 . S
O701 C705 1.251 . S
O702 Zn683 2.025 . S
O702 C705 1.254 . S
O703 C684 1.246 . S
O703 Zn691 2.034 . S
O704 Zn683 2.024 . S
O704 C684 1.249 . S
C705 O701 1.251 . S
C705 O702 1.254 . S
H706 C679 0.949 . S
H707 C681 0.950 . S
H708 C688 0.949 . S
H709 C690 0.950 . S
C710 O726 1.251 . S
C710 O728 1.254 . S
N711 C712 1.333 . S
N711 C716 1.307 . S
N711 Zn717 2.020 . S
C712 N711 1.333 . S
C712 C713 1.379 . S
C712 H730 0.952 . S
C713 C712 1.379 . S
C713 C714 1.390 . S
C713 H740 0.949 . S
C714 C713 1.390 . S
C714 C715 1.357 . S
C715 C714 1.357 . S
C715 C716 1.370 . S
C715 H741 0.950 . S
C716 N711 1.307 . S
C716 C715 1.370 . S
C716 H734 0.948 . S
Zn717 N711 2.020 . S
Zn717 O726 2.039 . S
Zn717 O732 2.034 . S
Zn717 O736 2.025 . S
Zn717 O738 2.024 . S
C718 O737 1.246 . S
C718 O738 1.249 . S
N719 C720 1.307 . S
N719 C721 1.333 . S
N719 Zn725 2.020 . S
C720 N719 1.307 . S
C720 C724 1.370 . S
C720 H731 0.948 . S
C721 N719 1.333 . S
C721 C722 1.379 . S
C721 H729 0.952 . S
C722 C721 1.379 . S
C722 C723 1.390 . S
C722 H742 0.949 . S
C723 C722 1.390 . S
C723 C724 1.357 . S
C724 C720 1.370 . S
C724 C723 1.357 . S
C724 H743 0.950 . S
Zn725 N719 2.020 . S
Zn725 O728 2.025 . S
Zn725 O733 2.024 . S
Zn725 O735 2.039 . S
Zn725 O737 2.034 . S
O726 C710 1.251 . S
O726 Zn717 2.039 . S
C727 O732 1.246 . S
C727 O733 1.249 . S
O728 C710 1.254 . S
O728 Zn725 2.025 . S
H729 C721 0.952 . S
H730 C712 0.952 . S
H731 C720 0.948 . S
O732 Zn717 2.034 . S
O732 C727 1.246 . S
O733 Zn725 2.024 . S
O733 C727 1.249 . S
H734 C716 0.948 . S
O735 Zn725 2.039 . S
O735 C739 1.251 . S
O736 Zn717 2.025 . S
O736 C739 1.254 . S
O737 C718 1.246 . S
O737 Zn725 2.034 . S
O738 Zn717 2.024 . S
O738 C718 1.249 . S
C739 O735 1.251 . S
C739 O736 1.254 . S
H740 C713 0.949 . S
H741 C715 0.950 . S
H742 C722 0.949 . S
H743 C724 0.950 . S
C744 O760 1.251 . S
C744 O762 1.254 . S
N745 C746 1.333 . S
N745 C750 1.307 . S
N745 Zn751 2.020 . S
C746 N745 1.333 . S
C746 C747 1.379 . S
C746 H764 0.952 . S
C747 C746 1.379 . S
C747 C748 1.390 . S
C747 H774 0.949 . S
C748 C747 1.390 . S
C748 C749 1.357 . S
C749 C748 1.357 . S
C749 C750 1.370 . S
C749 H775 0.950 . S
C750 N745 1.307 . S
C750 C749 1.370 . S
C750 H768 0.948 . S
Zn751 N745 2.020 . S
Zn751 O760 2.039 . S
Zn751 O766 2.034 . S
Zn751 O770 2.025 . S
Zn751 O772 2.024 . S
C752 O771 1.246 . S
C752 O772 1.249 . S
N753 C754 1.307 . S
N753 C755 1.333 . S
N753 Zn759 2.020 . S
C754 N753 1.307 . S
C754 C758 1.370 . S
C754 H765 0.948 . S
C755 N753 1.333 . S
C755 C756 1.379 . S
C755 H763 0.952 . S
C756 C755 1.379 . S
C756 C757 1.390 . S
C756 H776 0.949 . S
C757 C756 1.390 . S
C757 C758 1.357 . S
C758 C754 1.370 . S
C758 C757 1.357 . S
C758 H777 0.950 . S
Zn759 N753 2.020 . S
Zn759 O762 2.025 . S
Zn759 O767 2.024 . S
Zn759 O769 2.039 . S
Zn759 O771 2.034 . S
O760 C744 1.251 . S
O760 Zn751 2.039 . S
C761 O766 1.246 . S
C761 O767 1.249 . S
O762 C744 1.254 . S
O762 Zn759 2.025 . S
H763 C755 0.952 . S
H764 C746 0.952 . S
H765 C754 0.948 . S
O766 Zn751 2.034 . S
O766 C761 1.246 . S
O767 Zn759 2.024 . S
O767 C761 1.249 . S
H768 C750 0.948 . S
O769 Zn759 2.039 . S
O769 C773 1.251 . S
O770 Zn751 2.025 . S
O770 C773 1.254 . S
O771 C752 1.246 . S
O771 Zn759 2.034 . S
O772 Zn751 2.024 . S
O772 C752 1.249 . S
C773 O769 1.251 . S
C773 O770 1.254 . S
H774 C747 0.949 . S
H775 C749 0.950 . S
H776 C756 0.949 . S
H777 C758 0.950 . S
C778 O794 1.251 . S
C778 O796 1.254 . S
N779 C780 1.333 . S
N779 C784 1.307 . S
N779 Zn785 2.020 . S
C780 N779 1.333 . S
C780 C781 1.379 . S
C780 H798 0.952 . S
C781 C780 1.379 . S
C781 C782 1.390 . S
C781 H808 0.949 . S
C782 C781 1.390 . S
C782 C783 1.357 . S
C783 C782 1.357 . S
C783 C784 1.370 . S
C783 H809 0.950 . S
C784 N779 1.307 . S
C784 C783 1.370 . S
C784 H802 0.948 . S
Zn785 N779 2.020 . S
Zn785 O794 2.039 . S
Zn785 O800 2.034 . S
Zn785 O804 2.025 . S
Zn785 O806 2.024 . S
C786 O805 1.246 . S
C786 O806 1.249 . S
N787 C788 1.307 . S
N787 C789 1.333 . S
N787 Zn793 2.020 . S
C788 N787 1.307 . S
C788 C792 1.370 . S
C788 H799 0.948 . S
C789 N787 1.333 . S
C789 C790 1.379 . S
C789 H797 0.952 . S
C790 C789 1.379 . S
C790 C791 1.390 . S
C790 H810 0.949 . S
C791 C790 1.390 . S
C791 C792 1.357 . S
C792 C788 1.370 . S
C792 C791 1.357 . S
C792 H811 0.950 . S
Zn793 N787 2.020 . S
Zn793 O796 2.025 . S
Zn793 O801 2.024 . S
Zn793 O803 2.039 . S
Zn793 O805 2.034 . S
O794 C778 1.251 . S
O794 Zn785 2.039 . S
C795 O800 1.246 . S
C795 O801 1.249 . S
O796 C778 1.254 . S
O796 Zn793 2.025 . S
H797 C789 0.952 . S
H798 C780 0.952 . S
H799 C788 0.948 . S
O800 Zn785 2.034 . S
O800 C795 1.246 . S
O801 Zn793 2.024 . S
O801 C795 1.249 . S
H802 C784 0.948 . S
O803 Zn793 2.039 . S
O803 C807 1.251 . S
O804 Zn785 2.025 . S
O804 C807 1.254 . S
O805 C786 1.246 . S
O805 Zn793 2.034 . S
O806 Zn785 2.024 . S
O806 C786 1.249 . S
C807 O803 1.251 . S
C807 O804 1.254 . S
H808 C781 0.949 . S
H809 C783 0.950 . S
H810 C790 0.949 . S
H811 C792 0.950 . S
C812 O828 1.251 . S
C812 O830 1.254 . S
N813 C814 1.333 . S
N813 C818 1.307 . S
N813 Zn819 2.020 . S
C814 N813 1.333 . S
C814 C815 1.379 . S
C814 H832 0.952 . S
C815 C814 1.379 . S
C815 C816 1.390 . S
C815 H842 0.949 . S
C816 C815 1.390 . S
C816 C817 1.357 . S
C817 C816 1.357 . S
C817 C818 1.370 . S
C817 H843 0.950 . S
C818 N813 1.307 . S
C818 C817 1.370 . S
C818 H836 0.948 . S
Zn819 N813 2.020 . S
Zn819 O828 2.039 . S
Zn819 O834 2.034 . S
Zn819 O838 2.025 . S
Zn819 O840 2.024 . S
C820 O839 1.246 . S
C820 O840 1.249 . S
N821 C822 1.307 . S
N821 C823 1.333 . S
N821 Zn827 2.020 . S
C822 N821 1.307 . S
C822 C826 1.370 . S
C822 H833 0.948 . S
C823 N821 1.333 . S
C823 C824 1.379 . S
C823 H831 0.952 . S
C824 C823 1.379 . S
C824 C825 1.390 . S
C824 H844 0.949 . S
C825 C824 1.390 . S
C825 C826 1.357 . S
C826 C822 1.370 . S
C826 C825 1.357 . S
C826 H845 0.950 . S
Zn827 N821 2.020 . S
Zn827 O830 2.025 . S
Zn827 O835 2.024 . S
Zn827 O837 2.039 . S
Zn827 O839 2.034 . S
O828 C812 1.251 . S
O828 Zn819 2.039 . S
C829 O834 1.246 . S
C829 O835 1.249 . S
O830 C812 1.254 . S
O830 Zn827 2.025 . S
H831 C823 0.952 . S
H832 C814 0.952 . S
H833 C822 0.948 . S
O834 Zn819 2.034 . S
O834 C829 1.246 . S
O835 Zn827 2.024 . S
O835 C829 1.249 . S
H836 C818 0.948 . S
O837 Zn827 2.039 . S
O837 C841 1.251 . S
O838 Zn819 2.025 . S
O838 C841 1.254 . S
O839 C820 1.246 . S
O839 Zn827 2.034 . S
O840 Zn819 2.024 . S
O840 C820 1.249 . S
C841 O837 1.251 . S
C841 O838 1.254 . S
H842 C815 0.949 . S
H843 C817 0.950 . S
H844 C824 0.949 . S
H845 C826 0.950 . S
C846 O862 1.251 . S
C846 O864 1.254 . S
N847 C848 1.333 . S
N847 C852 1.307 . S
N847 Zn853 2.020 . S
C848 N847 1.333 . S
C848 C849 1.379 . S
C848 H866 0.952 . S
C849 C848 1.379 . S
C849 C850 1.390 . S
C849 H876 0.949 . S
C850 C849 1.390 . S
C850 C851 1.357 . S
C851 C850 1.357 . S
C851 C852 1.370 . S
C851 H877 0.950 . S
C852 N847 1.307 . S
C852 C851 1.370 . S
C852 H870 0.948 . S
Zn853 N847 2.020 . S
Zn853 O862 2.039 . S
Zn853 O868 2.034 . S
Zn853 O872 2.025 1_554 S
Zn853 O874 1.983 1_455 S
C854 O873 1.246 . S
C854 O874 1.278 . S
N855 C856 1.307 . S
N855 C857 1.333 1_554 S
N855 Zn861 2.020 . S
C856 N855 1.307 . S
C856 C860 1.370 . S
C856 H867 0.948 . S
C857 N855 1.333 1_556 S
C857 C858 1.379 1_455 S
C857 H865 0.952 . S
C858 C857 1.379 1_655 S
C858 C859 1.390 . S
C858 H878 0.949 . S
C859 C858 1.390 . S
C859 C860 1.357 1_656 S
C860 C856 1.370 . S
C860 C859 1.357 1_454 S
C860 H879 0.950 . S
Zn861 N855 2.020 . S
Zn861 O864 2.025 . S
Zn861 O869 2.024 . S
Zn861 O871 2.039 1_554 S
Zn861 O873 2.034 1_455 S
O862 C846 1.251 . S
O862 Zn853 2.039 . S
C863 O868 1.246 . S
C863 O869 1.249 . S
O864 C846 1.254 . S
O864 Zn861 2.025 . S
H865 C857 0.952 . S
H866 C848 0.952 . S
H867 C856 0.948 . S
O868 Zn853 2.034 . S
O868 C863 1.246 . S
O869 Zn861 2.024 . S
O869 C863 1.249 . S
H870 C852 0.948 . S
O871 Zn861 2.039 1_556 S
O871 C875 1.251 . S
O872 Zn853 2.025 1_556 S
O872 C875 1.254 . S
O873 C854 1.246 . S
O873 Zn861 2.034 1_655 S
O874 Zn853 1.983 1_655 S
O874 C854 1.278 . S
C875 O871 1.251 . S
C875 O872 1.254 . S
H876 C849 0.949 . S
H877 C851 0.950 . S
H878 C858 0.949 . S
H879 C860 0.950 . S
H880 C892 0.930 . S
H881 C894 0.930 . S
H882 C895 0.930 . S
H883 C899 0.959 . S
H884 C899 0.959 . S
H885 C899 0.961 . S
H886 C900 0.960 . S
H887 C900 0.966 . S
H888 C900 0.959 1_655 S
H889 C903 0.929 . S
H890 C904 0.931 . S
H891 C906 0.930 . S
C892 H880 0.930 . S
C892 C893 1.399 . S
C892 C897 1.399 . S
C893 C892 1.399 . S
C893 C894 1.376 . S
C894 H881 0.930 . S
C894 C893 1.376 . S
C894 C895 1.388 . S
C895 H882 0.930 . S
C895 C894 1.388 . S
C895 C896 1.390 . S
C896 C895 1.390 . S
C896 C897 1.394 . S
C896 C902 1.465 . S
C897 C892 1.399 . S
C897 C896 1.394 . S
C897 C898 1.516 . S
C898 C897 1.516 . S
C898 C899 1.502 . S
C898 C900 1.561 . S
C898 C901 1.526 . S
C899 H883 0.959 . S
C899 H884 0.959 . S
C899 H885 0.961 . S
C899 C898 1.502 . S
C900 H886 0.960 . S
C900 H887 0.966 . S
C900 H888 0.959 1_455 S
C900 C898 1.561 . S
C901 C898 1.526 . S
C901 C902 1.396 . S
C901 C906 1.390 . S
C902 C896 1.465 . S
C902 C901 1.396 . S
C902 C903 1.399 . S
C903 H889 0.929 . S
C903 C902 1.399 . S
C903 C904 1.385 . S
C904 H890 0.931 . S
C904 C903 1.385 . S
C904 C905 1.389 . S
C905 C904 1.389 . S
C905 C906 1.387 . S
C906 H891 0.930 . S
C906 C901 1.390 . S
C906 C905 1.387 . S
H907 C919 0.930 . S
H908 C921 0.930 . S
H909 C922 0.930 . S
H910 C926 0.959 . S
H911 C926 0.959 . S
H912 C926 0.961 . S
H913 C927 0.960 . S
H914 C927 0.961 . S
H915 C927 0.959 . S
H916 C930 0.929 . S
H917 C931 0.931 . S
H918 C933 0.930 . S
C919 H907 0.930 . S
C919 C920 1.399 . S
C919 C924 1.399 . S
C920 C919 1.399 . S
C920 C921 1.376 . S
C921 H908 0.930 . S
C921 C920 1.376 . S
C921 C922 1.388 . S
C922 H909 0.930 . S
C922 C921 1.388 . S
C922 C923 1.390 . S
C923 C922 1.390 . S
C923 C924 1.394 . S
C923 C929 1.465 . S
C924 C919 1.399 . S
C924 C923 1.394 . S
C924 C925 1.516 . S
C925 C924 1.516 . S
C925 C926 1.502 . S
C925 C927 1.561 . S
C925 C928 1.526 . S
C926 H910 0.959 . S
C926 H911 0.959 . S
C926 H912 0.961 . S
C926 C925 1.502 . S
C927 H913 0.960 . S
C927 H914 0.961 . S
C927 H915 0.959 . S
C927 C925 1.561 . S
C928 C925 1.526 . S
C928 C929 1.396 . S
C928 C933 1.390 . S
C929 C923 1.465 . S
C929 C928 1.396 . S
C929 C930 1.399 . S
C930 H916 0.929 . S
C930 C929 1.399 . S
C930 C931 1.385 . S
C931 H917 0.931 . S
C931 C930 1.385 . S
C931 C932 1.389 . S
C932 C931 1.389 . S
C932 C933 1.387 . S
C933 H918 0.930 . S
C933 C928 1.390 . S
C933 C932 1.387 . S
H934 C946 0.930 . S
H935 C948 0.930 . S
H936 C949 0.930 . S
H937 C953 0.959 . S
H938 C953 0.959 . S
H939 C953 0.961 . S
H940 C954 0.960 . S
H941 C954 0.961 . S
H942 C954 0.959 . S
H943 C957 0.929 . S
H944 C958 0.931 . S
H945 C960 0.930 . S
C946 H934 0.930 . S
C946 C947 1.399 . S
C946 C951 1.399 . S
C947 C946 1.399 . S
C947 C948 1.376 . S
C948 H935 0.930 . S
C948 C947 1.376 . S
C948 C949 1.388 . S
C949 H936 0.930 . S
C949 C948 1.388 . S
C949 C950 1.390 . S
C950 C949 1.390 . S
C950 C951 1.394 . S
C950 C956 1.465 . S
C951 C946 1.399 . S
C951 C950 1.394 . S
C951 C952 1.516 . S
C952 C951 1.516 . S
C952 C953 1.502 . S
C952 C954 1.561 . S
C952 C955 1.526 . S
C953 H937 0.959 . S
C953 H938 0.959 . S
C953 H939 0.961 . S
C953 C952 1.502 . S
C954 H940 0.960 . S
C954 H941 0.961 . S
C954 H942 0.959 . S
C954 C952 1.561 . S
C955 C952 1.526 . S
C955 C956 1.396 . S
C955 C960 1.390 . S
C956 C950 1.465 . S
C956 C955 1.396 . S
C956 C957 1.399 . S
C957 H943 0.929 . S
C957 C956 1.399 . S
C957 C958 1.385 . S
C958 H944 0.931 . S
C958 C957 1.385 . S
C958 C959 1.389 . S
C959 C958 1.389 . S
C959 C960 1.387 . S
C960 H945 0.930 . S
C960 C955 1.390 . S
C960 C959 1.387 . S
H961 C973 0.930 . S
H962 C975 0.930 . S
H963 C976 0.930 . S
H964 C980 0.959 . S
H965 C980 0.959 . S
H966 C980 0.961 . S
H967 C981 0.960 . S
H968 C981 0.961 . S
H969 C981 0.959 . S
H970 C984 0.929 . S
H971 C985 0.931 . S
H972 C987 0.930 . S
C973 H961 0.930 . S
C973 C974 1.399 . S
C973 C978 1.399 . S
C974 C973 1.399 . S
C974 C975 1.376 . S
C975 H962 0.930 . S
C975 C974 1.376 . S
C975 C976 1.388 . S
C976 H963 0.930 . S
C976 C975 1.388 . S
C976 C977 1.390 . S
C977 C976 1.390 . S
C977 C978 1.394 . S
C977 C983 1.465 . S
C978 C973 1.399 . S
C978 C977 1.394 . S
C978 C979 1.516 . S
C979 C978 1.516 . S
C979 C980 1.502 . S
C979 C981 1.561 . S
C979 C982 1.526 . S
C980 H964 0.959 . S
C980 H965 0.959 . S
C980 H966 0.961 . S
C980 C979 1.502 . S
C981 H967 0.960 . S
C981 H968 0.961 . S
C981 H969 0.959 . S
C981 C979 1.561 . S
C982 C979 1.526 . S
C982 C983 1.396 . S
C982 C987 1.390 . S
C983 C977 1.465 . S
C983 C982 1.396 . S
C983 C984 1.399 . S
C984 H970 0.929 . S
C984 C983 1.399 . S
C984 C985 1.385 . S
C985 H971 0.931 . S
C985 C984 1.385 . S
C985 C986 1.389 . S
C986 C985 1.389 . S
C986 C987 1.387 . S
C987 H972 0.930 . S
C987 C982 1.390 . S
C987 C986 1.387 . S
H988 C1000 0.930 . S
H989 C1002 0.930 . S
H990 C1003 0.930 . S
H991 C1007 0.926 1_655 S
H992 C1007 0.954 1_655 S
H993 C1007 0.961 . S
H994 C1008 0.960 . S
H995 C1008 0.961 . S
H996 C1008 0.959 . S
H997 C1011 0.929 . S
H998 C1012 0.931 . S
H999 C1014 0.930 . S
C1000 H988 0.930 . S
C1000 C1001 1.399 . S
C1000 C1005 1.399 . S
C1001 C1000 1.399 . S
C1001 C1002 1.376 . S
C1002 H989 0.930 . S
C1002 C1001 1.376 . S
C1002 C1003 1.388 . S
C1003 H990 0.930 . S
C1003 C1002 1.388 . S
C1003 C1004 1.390 . S
C1004 C1003 1.390 . S
C1004 C1005 1.394 . S
C1004 C1010 1.465 . S
C1005 C1000 1.399 . S
C1005 C1004 1.394 . S
C1005 C1006 1.516 . S
C1006 C1005 1.516 . S
C1006 C1007 1.540 . S
C1006 C1008 1.561 . S
C1006 C1009 1.526 . S
C1007 H991 0.926 1_455 S
C1007 H992 0.954 1_455 S
C1007 H993 0.961 . S
C1007 C1006 1.540 . S
C1008 H994 0.960 . S
C1008 H995 0.961 . S
C1008 H996 0.959 . S
C1008 C1006 1.561 . S
C1009 C1006 1.526 . S
C1009 C1010 1.396 . S
C1009 C1014 1.390 . S
C1010 C1004 1.465 . S
C1010 C1009 1.396 . S
C1010 C1011 1.399 . S
C1011 H997 0.929 . S
C1011 C1010 1.399 . S
C1011 C1012 1.385 . S
C1012 H998 0.931 . S
C1012 C1011 1.385 . S
C1012 C1013 1.389 . S
C1013 C1012 1.389 . S
C1013 C1014 1.387 . S
C1014 H999 0.930 . S
C1014 C1009 1.390 . S
C1014 C1013 1.387 . S
H1015 C1027 0.930 . S
H1016 C1029 0.930 . S
H1017 C1030 0.930 . S
H1018 C1034 0.959 . S
H1019 C1034 0.959 . S
H1020 C1034 0.961 . S
H1021 C1035 0.960 . S
H1022 C1035 0.961 . S
H1023 C1035 0.959 . S
H1024 C1038 0.929 . S
H1025 C1039 0.931 . S
H1026 C1041 0.930 . S
C1027 H1015 0.930 . S
C1027 C1028 1.399 . S
C1027 C1032 1.399 . S
C1028 C1027 1.399 . S
C1028 C1029 1.376 . S
C1029 H1016 0.930 . S
C1029 C1028 1.376 . S
C1029 C1030 1.388 . S
C1030 H1017 0.930 . S
C1030 C1029 1.388 . S
C1030 C1031 1.390 . S
C1031 C1030 1.390 . S
C1031 C1032 1.394 . S
C1031 C1037 1.465 . S
C1032 C1027 1.399 . S
C1032 C1031 1.394 . S
C1032 C1033 1.516 . S
C1033 C1032 1.516 . S
C1033 C1034 1.502 . S
C1033 C1035 1.561 . S
C1033 C1036 1.526 . S
C1034 H1018 0.959 . S
C1034 H1019 0.959 . S
C1034 H1020 0.961 . S
C1034 C1033 1.502 . S
C1035 H1021 0.960 . S
C1035 H1022 0.961 . S
C1035 H1023 0.959 . S
C1035 C1033 1.561 . S
C1036 C1033 1.526 . S
C1036 C1037 1.396 . S
C1036 C1041 1.390 . S
C1037 C1031 1.465 . S
C1037 C1036 1.396 . S
C1037 C1038 1.399 . S
C1038 H1024 0.929 . S
C1038 C1037 1.399 . S
C1038 C1039 1.385 . S
C1039 H1025 0.931 . S
C1039 C1038 1.385 . S
C1039 C1040 1.389 . S
C1040 C1039 1.389 . S
C1040 C1041 1.387 . S
C1041 H1026 0.930 . S
C1041 C1036 1.390 . S
C1041 C1040 1.387 . S
H1042 C1054 0.930 . S
H1043 C1056 0.930 . S
H1044 C1057 0.930 . S
H1045 C1061 0.959 . S
H1046 C1061 0.959 . S
H1047 C1061 0.961 . S
H1048 C1062 0.960 . S
H1049 C1062 0.973 . S
H1050 C1062 0.959 . S
H1051 C1065 0.929 . S
H1052 C1066 0.931 . S
H1053 C1068 0.930 . S
C1054 H1042 0.930 . S
C1054 C1055 1.399 . S
C1054 C1059 1.399 . S
C1055 C1054 1.399 . S
C1055 C1056 1.376 . S
C1056 H1043 0.930 . S
C1056 C1055 1.376 . S
C1056 C1057 1.388 . S
C1057 H1044 0.930 . S
C1057 C1056 1.388 . S
C1057 C1058 1.390 . S
C1058 C1057 1.390 . S
C1058 C1059 1.394 . S
C1058 C1064 1.465 . S
C1059 C1054 1.399 . S
C1059 C1058 1.394 . S
C1059 C1060 1.516 . S
C1060 C1059 1.516 . S
C1060 C1061 1.502 1_556 S
C1060 C1062 1.561 . S
C1060 C1063 1.526 . S
C1061 H1045 0.959 . S
C1061 H1046 0.959 . S
C1061 H1047 0.961 . S
C1061 C1060 1.502 1_554 S
C1062 H1048 0.960 . S
C1062 H1049 0.973 . S
C1062 H1050 0.959 . S
C1062 C1060 1.561 . S
C1063 C1060 1.526 . S
C1063 C1064 1.396 . S
C1063 C1068 1.390 1_556 S
C1064 C1058 1.465 . S
C1064 C1063 1.396 . S
C1064 C1065 1.399 . S
C1065 H1051 0.929 . S
C1065 C1064 1.399 . S
C1065 C1066 1.385 . S
C1066 H1052 0.931 . S
C1066 C1065 1.385 . S
C1066 C1067 1.389 . S
C1067 C1066 1.389 . S
C1067 C1068 1.387 1_556 S
C1068 H1053 0.930 . S
C1068 C1063 1.390 1_554 S
C1068 C1067 1.387 1_554 S
H1069 C1081 0.930 . S
H1070 C1083 0.930 . S
H1071 C1084 0.930 . S
H1072 C1088 0.959 . S
H1073 C1088 0.959 . S
H1074 C1088 0.961 . S
H1075 C1089 0.960 . S
H1076 C1089 0.961 . S
H1077 C1089 0.959 . S
H1078 C1092 0.929 . S
H1079 C1093 0.931 . S
H1080 C1095 0.930 . S
C1081 H1069 0.930 . S
C1081 C1082 1.399 . S
C1081 C1086 1.399 . S
C1082 C1081 1.399 . S
C1082 C1083 1.376 . S
C1083 H1070 0.930 . S
C1083 C1082 1.376 . S
C1083 C1084 1.388 . S
C1084 H1071 0.930 . S
C1084 C1083 1.388 . S
C1084 C1085 1.390 . S
C1085 C1084 1.390 . S
C1085 C1086 1.394 . S
C1085 C1091 1.465 . S
C1086 C1081 1.399 . S
C1086 C1085 1.394 . S
C1086 C1087 1.516 . S
C1087 C1086 1.516 . S
C1087 C1088 1.502 . S
C1087 C1089 1.561 . S
C1087 C1090 1.526 . S
C1088 H1072 0.959 . S
C1088 H1073 0.959 . S
C1088 H1074 0.961 . S
C1088 C1087 1.502 . S
C1089 H1075 0.960 . S
C1089 H1076 0.961 . S
C1089 H1077 0.959 . S
C1089 C1087 1.561 . S
C1090 C1087 1.526 . S
C1090 C1091 1.396 . S
C1090 C1095 1.390 . S
C1091 C1085 1.465 . S
C1091 C1090 1.396 . S
C1091 C1092 1.399 . S
C1092 H1078 0.929 . S
C1092 C1091 1.399 . S
C1092 C1093 1.385 . S
C1093 H1079 0.931 . S
C1093 C1092 1.385 . S
C1093 C1094 1.389 . S
C1094 C1093 1.389 . S
C1094 C1095 1.387 . S
C1095 H1080 0.930 . S
C1095 C1090 1.390 . S
C1095 C1094 1.387 . S
H1096 C1108 0.930 . S
H1097 C1110 0.930 . S
H1098 C1111 0.930 . S
H1099 C1115 0.959 . S
H1100 C1115 0.959 . S
H1101 C1115 0.961 . S
H1102 C1116 0.960 . S
H1103 C1116 0.961 . S
H1104 C1116 0.959 . S
H1105 C1119 0.929 . S
H1106 C1120 0.931 . S
H1107 C1122 0.930 . S
C1108 H1096 0.930 . S
C1108 C1109 1.399 . S
C1108 C1113 1.399 . S
C1109 C1108 1.399 . S
C1109 C1110 1.376 1_545 S
C1110 H1097 0.930 . S
C1110 C1109 1.376 1_565 S
C1110 C1111 1.388 . S
C1111 H1098 0.930 . S
C1111 C1110 1.388 . S
C1111 C1112 1.390 1_565 S
C1112 C1111 1.390 1_545 S
C1112 C1113 1.394 . S
C1112 C1118 1.465 1_545 S
C1113 C1108 1.399 . S
C1113 C1112 1.394 . S
C1113 C1114 1.516 . S
C1114 C1113 1.516 . S
C1114 C1115 1.502 . S
C1114 C1116 1.561 . S
C1114 C1117 1.526 . S
C1115 H1099 0.959 . S
C1115 H1100 0.959 . S
C1115 H1101 0.961 . S
C1115 C1114 1.502 . S
C1116 H1102 0.960 . S
C1116 H1103 0.961 . S
C1116 H1104 0.959 . S
C1116 C1114 1.561 . S
C1117 C1114 1.526 . S
C1117 C1118 1.396 1_545 S
C1117 C1122 1.390 . S
C1118 C1112 1.465 1_565 S
C1118 C1117 1.396 1_565 S
C1118 C1119 1.399 . S
C1119 H1105 0.929 . S
C1119 C1118 1.399 . S
C1119 C1120 1.385 . S
C1120 H1106 0.931 . S
C1120 C1119 1.385 . S
C1120 C1121 1.389 . S
C1121 C1120 1.389 . S
C1121 C1122 1.387 1_565 S
C1122 H1107 0.930 . S
C1122 C1117 1.390 . S
C1122 C1121 1.387 1_545 S
H1123 C1135 0.930 . S
H1124 C1137 0.930 . S
H1125 C1138 0.930 . S
H1126 C1142 0.959 . S
H1127 C1142 0.959 . S
H1128 C1142 0.961 . S
H1129 C1143 0.960 . S
H1130 C1143 0.961 . S
H1131 C1143 0.959 . S
H1132 C1146 0.929 . S
H1133 C1147 0.931 . S
H1134 C1149 0.930 . S
C1135 H1123 0.930 . S
C1135 C1136 1.399 . S
C1135 C1140 1.399 . S
C1136 C1135 1.399 . S
C1136 C1137 1.376 . S
C1137 H1124 0.930 . S
C1137 C1136 1.376 . S
C1137 C1138 1.388 . S
C1138 H1125 0.930 . S
C1138 C1137 1.388 . S
C1138 C1139 1.390 . S
C1139 C1138 1.390 . S
C1139 C1140 1.394 . S
C1139 C1145 1.465 . S
C1140 C1135 1.399 . S
C1140 C1139 1.394 . S
C1140 C1141 1.516 . S
C1141 C1140 1.516 . S
C1141 C1142 1.502 . S
C1141 C1143 1.561 . S
C1141 C1144 1.526 . S
C1142 H1126 0.959 . S
C1142 H1127 0.959 . S
C1142 H1128 0.961 . S
C1142 C1141 1.502 . S
C1143 H1129 0.960 . S
C1143 H1130 0.961 . S
C1143 H1131 0.959 . S
C1143 C1141 1.561 . S
C1144 C1141 1.526 . S
C1144 C1145 1.396 . S
C1144 C1149 1.390 . S
C1145 C1139 1.465 . S
C1145 C1144 1.396 . S
C1145 C1146 1.399 . S
C1146 H1132 0.929 . S
C1146 C1145 1.399 . S
C1146 C1147 1.385 . S
C1147 H1133 0.931 . S
C1147 C1146 1.385 . S
C1147 C1148 1.389 . S
C1148 C1147 1.389 . S
C1148 C1149 1.387 . S
C1149 H1134 0.930 . S
C1149 C1144 1.390 . S
C1149 C1148 1.387 . S
H1150 C1162 0.930 . S
H1151 C1164 0.930 . S
H1152 C1165 0.930 . S
H1153 C1169 0.959 . S
H1154 C1169 0.959 . S
H1155 C1169 0.961 . S
H1156 C1170 0.960 . S
H1157 C1170 0.961 . S
H1158 C1170 0.959 . S
H1159 C1173 0.929 . S
H1160 C1174 0.931 . S
H1161 C1176 0.930 1_565 S
C1162 H1150 0.930 . S
C1162 C1163 1.399 1_565 S
C1162 C1167 1.399 1_565 S
C1163 C1162 1.399 1_545 S
C1163 C1164 1.376 . S
C1164 H1151 0.930 . S
C1164 C1163 1.376 . S
C1164 C1165 1.388 . S
C1165 H1152 0.930 . S
C1165 C1164 1.388 . S
C1165 C1166 1.390 . S
C1166 C1165 1.390 . S
C1166 C1167 1.394 . S
C1166 C1172 1.465 . S
C1167 C1162 1.399 1_545 S
C1167 C1166 1.394 . S
C1167 C1168 1.516 1_545 S
C1168 C1167 1.516 1_565 S
C1168 C1169 1.502 . S
C1168 C1170 1.561 . S
C1168 C1171 1.526 1_565 S
C1169 H1153 0.959 . S
C1169 H1154 0.959 . S
C1169 H1155 0.961 . S
C1169 C1168 1.502 . S
C1170 H1156 0.960 . S
C1170 H1157 0.961 . S
C1170 H1158 0.959 . S
C1170 C1168 1.561 . S
C1171 C1168 1.526 1_545 S
C1171 C1172 1.396 . S
C1171 C1176 1.390 . S
C1172 C1166 1.465 . S
C1172 C1171 1.396 . S
C1172 C1173 1.399 . S
C1173 H1159 0.929 . S
C1173 C1172 1.399 . S
C1173 C1174 1.385 . S
C1174 H1160 0.931 . S
C1174 C1173 1.385 . S
C1174 C1175 1.389 . S
C1175 C1174 1.389 . S
C1175 C1176 1.387 . S
C1176 H1161 0.930 1_545 S
C1176 C1171 1.390 . S
C1176 C1175 1.387 . S
H1177 C1189 0.930 . S
H1178 C1191 0.930 1_554 S
H1179 C1192 0.930 . S
H1180 C1196 0.959 . S
H1181 C1196 0.959 . S
H1182 C1196 0.961 . S
H1183 C1197 0.960 . S
H1184 C1197 0.961 . S
H1185 C1197 0.959 . S
H1186 C1200 0.929 . S
H1187 C1201 0.931 . S
H1188 C1203 0.930 . S
C1189 H1177 0.930 . S
C1189 C1190 1.399 . S
C1189 C1194 1.399 . S
C1190 C1189 1.399 . S
C1190 C1191 1.376 . S
C1191 H1178 0.930 1_556 S
C1191 C1190 1.376 . S
C1191 C1192 1.388 . S
C1192 H1179 0.930 . S
C1192 C1191 1.388 . S
C1192 C1193 1.390 . S
C1193 C1192 1.390 . S
C1193 C1194 1.394 . S
C1193 C1199 1.465 . S
C1194 C1189 1.399 . S
C1194 C1193 1.394 . S
C1194 C1195 1.516 . S
C1195 C1194 1.516 . S
C1195 C1196 1.502 . S
C1195 C1197 1.561 . S
C1195 C1198 1.526 . S
C1196 H1180 0.959 . S
C1196 H1181 0.959 . S
C1196 H1182 0.961 . S
C1196 C1195 1.502 . S
C1197 H1183 0.960 . S
C1197 H1184 0.961 . S
C1197 H1185 0.959 . S
C1197 C1195 1.561 . S
C1198 C1195 1.526 . S
C1198 C1199 1.396 . S
C1198 C1203 1.390 . S
C1199 C1193 1.465 . S
C1199 C1198 1.396 . S
C1199 C1200 1.399 . S
C1200 H1186 0.929 . S
C1200 C1199 1.399 . S
C1200 C1201 1.385 . S
C1201 H1187 0.931 . S
C1201 C1200 1.385 . S
C1201 C1202 1.389 . S
C1202 C1201 1.389 . S
C1202 C1203 1.387 . S
C1203 H1188 0.930 . S
C1203 C1198 1.390 . S
C1203 C1202 1.387 . S
H1204 C1216 0.930 1_565 S
H1205 C1218 0.930 . S
H1206 C1219 0.930 . S
H1207 C1223 0.959 . S
H1208 C1223 0.959 . S
H1209 C1223 0.961 . S
H1210 C1224 0.960 . S
H1211 C1224 0.961 . S
H1212 C1224 0.959 1_545 S
H1213 C1227 0.929 . S
H1214 C1228 0.931 . S
H1215 C1230 0.930 . S
C1216 H1204 0.930 1_545 S
C1216 C1217 1.399 . S
C1216 C1221 1.399 . S
C1217 C1216 1.399 . S
C1217 C1218 1.376 . S
C1218 H1205 0.930 . S
C1218 C1217 1.376 . S
C1218 C1219 1.388 . S
C1219 H1206 0.930 . S
C1219 C1218 1.388 . S
C1219 C1220 1.390 . S
C1220 C1219 1.390 . S
C1220 C1221 1.394 . S
C1220 C1226 1.465 . S
C1221 C1216 1.399 . S
C1221 C1220 1.394 . S
C1221 C1222 1.516 . S
C1222 C1221 1.516 . S
C1222 C1223 1.502 1_545 S
C1222 C1224 1.561 1_545 S
C1222 C1225 1.526 . S
C1223 H1207 0.959 . S
C1223 H1208 0.959 . S
C1223 H1209 0.961 . S
C1223 C1222 1.502 1_565 S
C1224 H1210 0.960 . S
C1224 H1211 0.961 . S
C1224 H1212 0.959 1_565 S
C1224 C1222 1.561 1_565 S
C1225 C1222 1.526 . S
C1225 C1226 1.396 . S
C1225 C1230 1.390 . S
C1226 C1220 1.465 . S
C1226 C1225 1.396 . S
C1226 C1227 1.399 . S
C1227 H1213 0.929 . S
C1227 C1226 1.399 . S
C1227 C1228 1.385 . S
C1228 H1214 0.931 . S
C1228 C1227 1.385 . S
C1228 C1229 1.389 . S
C1229 C1228 1.389 . S
C1229 C1230 1.387 . S
C1230 H1215 0.930 . S
C1230 C1225 1.390 . S
C1230 C1229 1.387 . S
H1231 C1243 0.930 . S
H1232 C1245 0.930 . S
H1233 C1246 0.930 . S
H1234 C1250 0.959 . S
H1235 C1250 0.959 . S
H1236 C1250 0.961 . S
H1237 C1251 0.960 . S
H1238 C1251 0.961 . S
H1239 C1251 0.959 . S
H1240 C1254 0.929 . S
H1241 C1255 0.931 . S
H1242 C1257 0.930 . S
C1243 H1231 0.930 . S
C1243 C1244 1.399 . S
C1243 C1248 1.399 . S
C1244 C1243 1.399 . S
C1244 C1245 1.376 . S
C1245 H1232 0.930 . S
C1245 C1244 1.376 . S
C1245 C1246 1.388 . S
C1246 H1233 0.930 . S
C1246 C1245 1.388 . S
C1246 C1247 1.390 . S
C1247 C1246 1.390 . S
C1247 C1248 1.394 . S
C1247 C1253 1.465 . S
C1248 C1243 1.399 . S
C1248 C1247 1.394 . S
C1248 C1249 1.516 . S
C1249 C1248 1.516 . S
C1249 C1250 1.502 . S
C1249 C1251 1.561 . S
C1249 C1252 1.526 . S
C1250 H1234 0.959 . S
C1250 H1235 0.959 . S
C1250 H1236 0.961 . S
C1250 C1249 1.502 . S
C1251 H1237 0.960 . S
C1251 H1238 0.961 . S
C1251 H1239 0.959 . S
C1251 C1249 1.561 . S
C1252 C1249 1.526 . S
C1252 C1253 1.396 . S
C1252 C1257 1.390 . S
C1253 C1247 1.465 . S
C1253 C1252 1.396 . S
C1253 C1254 1.399 . S
C1254 H1240 0.929 . S
C1254 C1253 1.399 . S
C1254 C1255 1.385 . S
C1255 H1241 0.931 . S
C1255 C1254 1.385 . S
C1255 C1256 1.389 . S
C1256 C1255 1.389 . S
C1256 C1257 1.387 . S
C1257 H1242 0.930 . S
C1257 C1252 1.390 . S
C1257 C1256 1.387 . S
H1258 C1270 0.930 . S
H1259 C1272 0.930 . S
H1260 C1273 0.930 . S
H1261 C1277 0.959 . S
H1262 C1277 0.959 . S
H1263 C1277 0.961 . S
H1264 C1278 0.960 . S
H1265 C1278 0.961 . S
H1266 C1278 0.959 . S
H1267 C1281 0.929 . S
H1268 C1282 0.931 . S
H1269 C1284 0.930 . S
C1270 H1258 0.930 . S
C1270 C1271 1.399 . S
C1270 C1275 1.399 . S
C1271 C1270 1.399 . S
C1271 C1272 1.376 1_545 S
C1272 H1259 0.930 . S
C1272 C1271 1.376 1_565 S
C1272 C1273 1.388 . S
C1273 H1260 0.930 . S
C1273 C1272 1.388 . S
C1273 C1274 1.390 . S
C1274 C1273 1.390 . S
C1274 C1275 1.394 1_565 S
C1274 C1280 1.465 . S
C1275 C1270 1.399 . S
C1275 C1274 1.394 1_545 S
C1275 C1276 1.516 . S
C1276 C1275 1.516 . S
C1276 C1277 1.502 . S
C1276 C1278 1.561 1_545 S
C1276 C1279 1.526 1_545 S
C1277 H1261 0.959 . S
C1277 H1262 0.959 . S
C1277 H1263 0.961 . S
C1277 C1276 1.502 . S
C1278 H1264 0.960 . S
C1278 H1265 0.961 . S
C1278 H1266 0.959 . S
C1278 C1276 1.561 1_565 S
C1279 C1276 1.526 1_565 S
C1279 C1280 1.396 . S
C1279 C1284 1.390 . S
C1280 C1274 1.465 . S
C1280 C1279 1.396 . S
C1280 C1281 1.399 . S
C1281 H1267 0.929 . S
C1281 C1280 1.399 . S
C1281 C1282 1.385 . S
C1282 H1268 0.931 . S
C1282 C1281 1.385 . S
C1282 C1283 1.389 . S
C1283 C1282 1.389 . S
C1283 C1284 1.387 . S
C1284 H1269 0.930 . S
C1284 C1279 1.390 . S
C1284 C1283 1.387 . S
H1285 C1297 0.930 . S
H1286 C1299 0.930 . S
H1287 C1300 0.930 . S
H1288 C1304 0.959 . S
H1289 C1304 0.959 . S
H1290 C1304 0.961 . S
H1291 C1305 0.960 . S
H1292 C1305 0.961 . S
H1293 C1305 0.959 . S
H1294 C1308 0.929 . S
H1295 C1309 0.931 . S
H1296 C1311 0.930 . S
C1297 H1285 0.930 . S
C1297 C1298 1.399 . S
C1297 C1302 1.399 . S
C1298 C1297 1.399 . S
C1298 C1299 1.376 . S
C1299 H1286 0.930 . S
C1299 C1298 1.376 . S
C1299 C1300 1.388 . S
C1300 H1287 0.930 . S
C1300 C1299 1.388 . S
C1300 C1301 1.390 . S
C1301 C1300 1.390 . S
C1301 C1302 1.394 . S
C1301 C1307 1.465 . S
C1302 C1297 1.399 . S
C1302 C1301 1.394 . S
C1302 C1303 1.516 . S
C1303 C1302 1.516 . S
C1303 C1304 1.502 . S
C1303 C1305 1.561 . S
C1303 C1306 1.526 . S
C1304 H1288 0.959 . S
C1304 H1289 0.959 . S
C1304 H1290 0.961 . S
C1304 C1303 1.502 . S
C1305 H1291 0.960 . S
C1305 H1292 0.961 . S
C1305 H1293 0.959 . S
C1305 C1303 1.561 . S
C1306 C1303 1.526 . S
C1306 C1307 1.396 . S
C1306 C1311 1.390 . S
C1307 C1301 1.465 . S
C1307 C1306 1.396 . S
C1307 C1308 1.399 . S
C1308 H1294 0.929 . S
C1308 C1307 1.399 . S
C1308 C1309 1.385 . S
C1309 H1295 0.931 . S
C1309 C1308 1.385 . S
C1309 C1310 1.389 . S
C1310 C1309 1.389 . S
C1310 C1311 1.387 . S
C1311 H1296 0.930 . S
C1311 C1306 1.390 . S
C1311 C1310 1.387 . S
H1312 C1324 0.930 . S
H1313 C1326 0.930 . S
H1314 C1327 0.930 . S
H1315 C1331 0.959 . S
H1316 C1331 0.970 . S
H1317 C1331 0.961 . S
H1318 C1332 0.960 . S
H1319 C1332 0.961 . S
H1320 C1332 0.959 . S
H1321 C1335 0.929 . S
H1322 C1336 0.931 . S
H1323 C1338 0.930 . S
C1324 H1312 0.930 . S
C1324 C1325 1.399 . S
C1324 C1329 1.399 . S
C1325 C1324 1.399 . S
C1325 C1326 1.376 . S
C1326 H1313 0.930 . S
C1326 C1325 1.376 . S
C1326 C1327 1.388 . S
C1327 H1314 0.930 . S
C1327 C1326 1.388 . S
C1327 C1328 1.390 . S
C1328 C1327 1.390 . S
C1328 C1329 1.394 . S
C1328 C1334 1.465 . S
C1329 C1324 1.399 . S
C1329 C1328 1.394 . S
C1329 C1330 1.530 . S
C1330 C1329 1.530 . S
C1330 C1331 1.511 . S
C1330 C1332 1.534 1_554 S
C1330 C1333 1.530 . S
C1331 H1315 0.959 . S
C1331 H1316 0.970 . S
C1331 H1317 0.961 . S
C1331 C1330 1.511 . S
C1332 H1318 0.960 . S
C1332 H1319 0.961 . S
C1332 H1320 0.959 . S
C1332 C1330 1.534 1_556 S
C1333 C1330 1.530 . S
C1333 C1334 1.396 . S
C1333 C1338 1.390 1_554 S
C1334 C1328 1.465 . S
C1334 C1333 1.396 . S
C1334 C1335 1.399 . S
C1335 H1321 0.929 . S
C1335 C1334 1.399 . S
C1335 C1336 1.385 . S
C1336 H1322 0.931 . S
C1336 C1335 1.385 . S
C1336 C1337 1.385 1_554 S
C1337 C1336 1.385 1_556 S
C1337 C1338 1.389 . S
C1338 H1323 0.930 . S
C1338 C1333 1.390 1_556 S
C1338 C1337 1.389 . S
H1339 C1351 0.930 . S
H1340 C1353 0.930 . S
H1341 C1354 0.930 . S
H1342 C1358 0.959 1_554 S
H1343 C1358 0.959 . S
H1344 C1358 0.961 . S
H1345 C1359 0.960 1_556 S
H1346 C1359 0.961 1_556 S
H1347 C1359 0.959 . S
H1348 C1362 0.929 . S
H1349 C1363 0.931 . S
H1350 C1365 0.930 . S
C1351 H1339 0.930 . S
C1351 C1352 1.399 . S
C1351 C1356 1.399 . S
C1352 C1351 1.399 . S
C1352 C1353 1.376 . S
C1353 H1340 0.930 . S
C1353 C1352 1.376 . S
C1353 C1354 1.388 . S
C1354 H1341 0.930 . S
C1354 C1353 1.388 . S
C1354 C1355 1.390 . S
C1355 C1354 1.390 . S
C1355 C1356 1.394 . S
C1355 C1361 1.465 . S
C1356 C1351 1.399 . S
C1356 C1355 1.394 . S
C1356 C1357 1.516 . S
C1357 C1356 1.516 . S
C1357 C1358 1.502 1_554 S
C1357 C1359 1.561 . S
C1357 C1360 1.526 . S
C1358 H1342 0.959 1_556 S
C1358 H1343 0.959 . S
C1358 H1344 0.961 . S
C1358 C1357 1.502 1_556 S
C1359 H1345 0.960 1_554 S
C1359 H1346 0.961 1_554 S
C1359 H1347 0.959 . S
C1359 C1357 1.561 . S
C1360 C1357 1.526 . S
C1360 C1361 1.396 . S
C1360 C1365 1.390 . S
C1361 C1355 1.465 . S
C1361 C1360 1.396 . S
C1361 C1362 1.399 . S
C1362 H1348 0.929 . S
C1362 C1361 1.399 . S
C1362 C1363 1.385 . S
C1363 H1349 0.931 . S
C1363 C1362 1.385 . S
C1363 C1364 1.389 . S
C1364 C1363 1.389 . S
C1364 C1365 1.387 . S
C1365 H1350 0.930 . S
C1365 C1360 1.390 . S
C1365 C1364 1.387 . S
H1366 C1378 0.930 . S
H1367 C1380 0.930 . S
H1368 C1381 0.930 . S
H1369 C1385 0.959 . S
H1370 C1385 0.959 . S
H1371 C1385 0.961 . S
H1372 C1386 0.960 . S
H1373 C1386 0.961 . S
H1374 C1386 0.959 . S
H1375 C1389 0.929 . S
H1376 C1390 0.931 . S
H1377 C1392 0.930 . S
C1378 H1366 0.930 . S
C1378 C1379 1.399 . S
C1378 C1383 1.399 . S
C1379 C1378 1.399 . S
C1379 C1380 1.376 . S
C1380 H1367 0.930 . S
C1380 C1379 1.376 . S
C1380 C1381 1.388 . S
C1381 H1368 0.930 . S
C1381 C1380 1.388 . S
C1381 C1382 1.390 . S
C1382 C1381 1.390 . S
C1382 C1383 1.394 . S
C1382 C1388 1.465 . S
C1383 C1378 1.399 . S
C1383 C1382 1.394 . S
C1383 C1384 1.516 . S
C1384 C1383 1.516 . S
C1384 C1385 1.502 . S
C1384 C1386 1.561 . S
C1384 C1387 1.526 . S
C1385 H1369 0.959 . S
C1385 H1370 0.959 . S
C1385 H1371 0.961 . S
C1385 C1384 1.502 . S
C1386 H1372 0.960 . S
C1386 H1373 0.961 . S
C1386 H1374 0.959 . S
C1386 C1384 1.561 . S
C1387 C1384 1.526 . S
C1387 C1388 1.396 . S
C1387 C1392 1.390 . S
C1388 C1382 1.465 . S
C1388 C1387 1.396 . S
C1388 C1389 1.399 . S
C1389 H1375 0.929 . S
C1389 C1388 1.399 . S
C1389 C1390 1.385 . S
C1390 H1376 0.931 . S
C1390 C1389 1.385 . S
C1390 C1391 1.389 . S
C1391 C1390 1.389 . S
C1391 C1392 1.387 . S
C1392 H1377 0.930 . S
C1392 C1387 1.390 . S
C1392 C1391 1.387 . S
H1393 C1405 0.930 . S
H1394 C1407 0.930 . S
H1395 C1408 0.930 . S
H1396 C1412 0.959 . S
H1397 C1412 0.959 . S
H1398 C1412 0.961 . S
H1399 C1413 0.960 . S
H1400 C1413 0.961 . S
H1401 C1413 0.959 . S
H1402 C1416 0.929 . S
H1403 C1417 0.931 . S
H1404 C1419 0.930 . S
C1405 H1393 0.930 . S
C1405 C1406 1.399 . S
C1405 C1410 1.399 . S
C1406 C1405 1.399 . S
C1406 C1407 1.376 . S
C1407 H1394 0.930 . S
C1407 C1406 1.376 . S
C1407 C1408 1.388 . S
C1408 H1395 0.930 . S
C1408 C1407 1.388 . S
C1408 C1409 1.390 . S
C1409 C1408 1.390 . S
C1409 C1410 1.394 . S
C1409 C1415 1.465 . S
C1410 C1405 1.399 . S
C1410 C1409 1.394 . S
C1410 C1411 1.516 . S
C1411 C1410 1.516 . S
C1411 C1412 1.502 . S
C1411 C1413 1.561 . S
C1411 C1414 1.526 . S
C1412 H1396 0.959 . S
C1412 H1397 0.959 . S
C1412 H1398 0.961 . S
C1412 C1411 1.502 . S
C1413 H1399 0.960 . S
C1413 H1400 0.961 . S
C1413 H1401 0.959 . S
C1413 C1411 1.561 . S
C1414 C1411 1.526 . S
C1414 C1415 1.396 . S
C1414 C1419 1.390 . S
C1415 C1409 1.465 . S
C1415 C1414 1.396 . S
C1415 C1416 1.399 . S
C1416 H1402 0.929 . S
C1416 C1415 1.399 . S
C1416 C1417 1.385 . S
C1417 H1403 0.931 . S
C1417 C1416 1.385 . S
C1417 C1418 1.389 . S
C1418 C1417 1.389 . S
C1418 C1419 1.387 . S
C1419 H1404 0.930 . S
C1419 C1414 1.390 . S
C1419 C1418 1.387 . S
H1420 C1432 0.930 . S
H1421 C1434 0.930 . S
H1422 C1435 0.930 . S
H1423 C1439 0.959 . S
H1424 C1439 0.959 . S
H1425 C1439 0.961 . S
H1426 C1440 0.960 . S
H1427 C1440 0.961 . S
H1428 C1440 0.959 . S
H1429 C1443 0.929 . S
H1430 C1444 0.931 . S
H1431 C1446 0.930 . S
C1432 H1420 0.930 . S
C1432 C1433 1.399 . S
C1432 C1437 1.399 . S
C1433 C1432 1.399 . S
C1433 C1434 1.376 . S
C1434 H1421 0.930 . S
C1434 C1433 1.376 . S
C1434 C1435 1.388 . S
C1435 H1422 0.930 . S
C1435 C1434 1.388 . S
C1435 C1436 1.390 . S
C1436 C1435 1.390 . S
C1436 C1437 1.394 . S
C1436 C1442 1.465 . S
C1437 C1432 1.399 . S
C1437 C1436 1.394 . S
C1437 C1438 1.516 . S
C1438 C1437 1.516 . S
C1438 C1439 1.502 . S
C1438 C1440 1.561 . S
C1438 C1441 1.526 . S
C1439 H1423 0.959 . S
C1439 H1424 0.959 . S
C1439 H1425 0.961 . S
C1439 C1438 1.502 . S
C1440 H1426 0.960 . S
C1440 H1427 0.961 . S
C1440 H1428 0.959 . S
C1440 C1438 1.561 . S
C1441 C1438 1.526 . S
C1441 C1442 1.396 . S
C1441 C1446 1.390 . S
C1442 C1436 1.465 . S
C1442 C1441 1.396 . S
C1442 C1443 1.399 . S
C1443 H1429 0.929 . S
C1443 C1442 1.399 . S
C1443 C1444 1.385 . S
C1444 H1430 0.931 . S
C1444 C1443 1.385 . S
C1444 C1445 1.389 . S
C1445 C1444 1.389 . S
C1445 C1446 1.387 . S
C1446 H1431 0.930 . S
C1446 C1441 1.390 . S
C1446 C1445 1.387 . S
H1447 C1459 0.930 . S
H1448 C1461 0.930 . S
H1449 C1462 0.930 . S
H1450 C1466 0.959 . S
H1451 C1466 0.959 . S
H1452 C1466 0.961 . S
H1453 C1467 0.960 . S
H1454 C1467 0.961 . S
H1455 C1467 0.959 . S
H1456 C1470 0.929 . S
H1457 C1471 0.931 . S
H1458 C1473 0.930 . S
C1459 H1447 0.930 . S
C1459 C1460 1.399 . S
C1459 C1464 1.399 . S
C1460 C1459 1.399 . S
C1460 C1461 1.376 . S
C1461 H1448 0.930 . S
C1461 C1460 1.376 . S
C1461 C1462 1.388 . S
C1462 H1449 0.930 . S
C1462 C1461 1.388 . S
C1462 C1463 1.390 . S
C1463 C1462 1.390 . S
C1463 C1464 1.394 . S
C1463 C1469 1.465 . S
C1464 C1459 1.399 . S
C1464 C1463 1.394 . S
C1464 C1465 1.516 . S
C1465 C1464 1.516 . S
C1465 C1466 1.502 . S
C1465 C1467 1.561 . S
C1465 C1468 1.526 . S
C1466 H1450 0.959 . S
C1466 H1451 0.959 . S
C1466 H1452 0.961 . S
C1466 C1465 1.502 . S
C1467 H1453 0.960 . S
C1467 H1454 0.961 . S
C1467 H1455 0.959 . S
C1467 C1465 1.561 . S
C1468 C1465 1.526 . S
C1468 C1469 1.396 . S
C1468 C1473 1.390 . S
C1469 C1463 1.465 . S
C1469 C1468 1.396 . S
C1469 C1470 1.399 . S
C1470 H1456 0.929 . S
C1470 C1469 1.399 . S
C1470 C1471 1.385 . S
C1471 H1457 0.931 . S
C1471 C1470 1.385 . S
C1471 C1472 1.389 . S
C1472 C1471 1.389 . S
C1472 C1473 1.387 . S
C1473 H1458 0.930 . S
C1473 C1468 1.390 . S
C1473 C1472 1.387 . S
H1474 C1486 0.930 . S
H1475 C1488 0.930 . S
H1476 C1489 0.930 . S
H1477 C1493 0.959 . S
H1478 C1493 0.959 . S
H1479 C1493 0.961 . S
H1480 C1494 0.960 . S
H1481 C1494 0.961 . S
H1482 C1494 0.959 . S
H1483 C1497 0.929 . S
H1484 C1498 0.931 . S
H1485 C1500 0.930 . S
C1486 H1474 0.930 . S
C1486 C1487 1.399 . S
C1486 C1491 1.399 . S
C1487 C1486 1.399 . S
C1487 C1488 1.376 . S
C1488 H1475 0.930 . S
C1488 C1487 1.376 . S
C1488 C1489 1.388 . S
C1489 H1476 0.930 . S
C1489 C1488 1.388 . S
C1489 C1490 1.390 . S
C1490 C1489 1.390 . S
C1490 C1491 1.394 . S
C1490 C1496 1.465 . S
C1491 C1486 1.399 . S
C1491 C1490 1.394 . S
C1491 C1492 1.516 . S
C1492 C1491 1.516 . S
C1492 C1493 1.502 . S
C1492 C1494 1.561 . S
C1492 C1495 1.526 . S
C1493 H1477 0.959 . S
C1493 H1478 0.959 . S
C1493 H1479 0.961 . S
C1493 C1492 1.502 . S
C1494 H1480 0.960 . S
C1494 H1481 0.961 . S
C1494 H1482 0.959 . S
C1494 C1492 1.561 . S
C1495 C1492 1.526 . S
C1495 C1496 1.396 . S
C1495 C1500 1.390 . S
C1496 C1490 1.465 . S
C1496 C1495 1.396 . S
C1496 C1497 1.399 . S
C1497 H1483 0.929 . S
C1497 C1496 1.399 . S
C1497 C1498 1.385 . S
C1498 H1484 0.931 . S
C1498 C1497 1.385 . S
C1498 C1499 1.389 . S
C1499 C1498 1.389 . S
C1499 C1500 1.387 . S
C1500 H1485 0.930 . S
C1500 C1495 1.390 . S
C1500 C1499 1.387 . S
H1501 C1513 0.930 . S
H1502 C1515 0.930 . S
H1503 C1516 0.930 . S
H1504 C1520 0.959 . S
H1505 C1520 0.959 . S
H1506 C1520 0.961 . S
H1507 C1521 0.960 . S
H1508 C1521 0.961 . S
H1509 C1521 0.959 . S
H1510 C1524 0.929 . S
H1511 C1525 0.931 . S
H1512 C1527 0.930 . S
C1513 H1501 0.930 . S
C1513 C1514 1.399 . S
C1513 C1518 1.399 . S
C1514 C1513 1.399 . S
C1514 C1515 1.376 . S
C1515 H1502 0.930 . S
C1515 C1514 1.376 . S
C1515 C1516 1.388 . S
C1516 H1503 0.930 . S
C1516 C1515 1.388 . S
C1516 C1517 1.390 . S
C1517 C1516 1.390 . S
C1517 C1518 1.394 . S
C1517 C1523 1.465 . S
C1518 C1513 1.399 . S
C1518 C1517 1.394 . S
C1518 C1519 1.516 . S
C1519 C1518 1.516 . S
C1519 C1520 1.502 . S
C1519 C1521 1.561 . S
C1519 C1522 1.526 . S
C1520 H1504 0.959 . S
C1520 H1505 0.959 . S
C1520 H1506 0.961 . S
C1520 C1519 1.502 . S
C1521 H1507 0.960 . S
C1521 H1508 0.961 . S
C1521 H1509 0.959 . S
C1521 C1519 1.561 . S
C1522 C1519 1.526 . S
C1522 C1523 1.396 . S
C1522 C1527 1.390 . S
C1523 C1517 1.465 . S
C1523 C1522 1.396 . S
C1523 C1524 1.399 . S
C1524 H1510 0.929 . S
C1524 C1523 1.399 . S
C1524 C1525 1.385 . S
C1525 H1511 0.931 . S
C1525 C1524 1.385 . S
C1525 C1526 1.389 . S
C1526 C1525 1.389 . S
C1526 C1527 1.387 . S
C1527 H1512 0.930 . S
C1527 C1522 1.390 . S
C1527 C1526 1.387 . S
H1528 C1540 0.930 . S
H1529 C1542 0.930 . S
H1530 C1543 0.930 . S
H1531 C1547 0.959 . S
H1532 C1547 0.959 1_554 S
H1533 C1547 0.961 . S
H1534 C1548 0.960 . S
H1535 C1548 0.961 1_554 S
H1536 C1548 0.959 . S
H1537 C1551 0.929 . S
H1538 C1552 0.931 . S
H1539 C1554 0.940 . S
C1540 H1528 0.930 . S
C1540 C1541 1.399 1_655 S
C1540 C1545 1.399 1_655 S
C1541 C1540 1.399 1_455 S
C1541 C1542 1.376 . S
C1542 H1529 0.930 . S
C1542 C1541 1.376 . S
C1542 C1543 1.388 . S
C1543 H1530 0.930 . S
C1543 C1542 1.388 . S
C1543 C1544 1.390 . S
C1544 C1543 1.390 . S
C1544 C1545 1.394 . S
C1544 C1550 1.465 . S
C1545 C1540 1.399 1_455 S
C1545 C1544 1.394 . S
C1545 C1546 1.516 . S
C1546 C1545 1.516 . S
C1546 C1547 1.502 1_455 S
C1546 C1548 1.561 . S
C1546 C1549 1.526 . S
C1547 H1531 0.959 . S
C1547 H1532 0.959 1_556 S
C1547 H1533 0.961 . S
C1547 C1546 1.502 1_655 S
C1548 H1534 0.960 . S
C1548 H1535 0.961 1_556 S
C1548 H1536 0.959 . S
C1548 C1546 1.561 . S
C1549 C1546 1.526 . S
C1549 C1550 1.396 . S
C1549 C1554 1.381 1_556 S
C1550 C1544 1.465 . S
C1550 C1549 1.396 . S
C1550 C1551 1.399 . S
C1551 H1537 0.929 . S
C1551 C1550 1.399 . S
C1551 C1552 1.385 . S
C1552 H1538 0.931 . S
C1552 C1551 1.385 . S
C1552 C1553 1.389 . S
C1553 C1552 1.389 . S
C1553 C1554 1.385 1_556 S
C1554 H1539 0.940 . S
C1554 C1549 1.381 1_554 S
C1554 C1553 1.385 1_554 S
H1555 C1567 0.930 . S
H1556 C1569 0.930 . S
H1557 C1570 0.930 . S
H1558 C1574 0.959 . S
H1559 C1574 0.959 . S
H1560 C1574 0.961 . S
H1561 C1575 0.960 . S
H1562 C1575 0.961 . S
H1563 C1575 0.959 . S
H1564 C1578 0.929 . S
H1565 C1579 0.931 . S
H1566 C1581 0.930 . S
C1567 H1555 0.930 . S
C1567 C1568 1.399 . S
C1567 C1572 1.399 . S
C1568 C1567 1.399 . S
C1568 C1569 1.376 . S
C1569 H1556 0.930 . S
C1569 C1568 1.376 . S
C1569 C1570 1.388 . S
C1570 H1557 0.930 . S
C1570 C1569 1.388 . S
C1570 C1571 1.390 . S
C1571 C1570 1.390 . S
C1571 C1572 1.394 . S
C1571 C1577 1.465 . S
C1572 C1567 1.399 . S
C1572 C1571 1.394 . S
C1572 C1573 1.516 . S
C1573 C1572 1.516 . S
C1573 C1574 1.502 . S
C1573 C1575 1.561 . S
C1573 C1576 1.526 . S
C1574 H1558 0.959 . S
C1574 H1559 0.959 . S
C1574 H1560 0.961 . S
C1574 C1573 1.502 . S
C1575 H1561 0.960 . S
C1575 H1562 0.961 . S
C1575 H1563 0.959 . S
C1575 C1573 1.561 . S
C1576 C1573 1.526 . S
C1576 C1577 1.396 . S
C1576 C1581 1.390 . S
C1577 C1571 1.465 . S
C1577 C1576 1.396 . S
C1577 C1578 1.399 . S
C1578 H1564 0.929 . S
C1578 C1577 1.399 . S
C1578 C1579 1.385 . S
C1579 H1565 0.931 . S
C1579 C1578 1.385 . S
C1579 C1580 1.389 . S
C1580 C1579 1.389 . S
C1580 C1581 1.387 . S
C1581 H1566 0.930 . S
C1581 C1576 1.390 . S
C1581 C1580 1.387 . S
H1582 C1594 0.930 . S
H1583 C1596 0.930 . S
H1584 C1597 0.930 . S
H1585 C1601 0.959 . S
H1586 C1601 0.959 . S
H1587 C1601 0.961 . S
H1588 C1602 0.960 . S
H1589 C1602 0.961 . S
H1590 C1602 0.959 . S
H1591 C1605 0.929 . S
H1592 C1606 0.931 . S
H1593 C1608 0.930 . S
C1594 H1582 0.930 . S
C1594 C1595 1.399 . S
C1594 C1599 1.399 . S
C1595 C1594 1.399 . S
C1595 C1596 1.376 . S
C1596 H1583 0.930 . S
C1596 C1595 1.376 . S
C1596 C1597 1.388 . S
C1597 H1584 0.930 . S
C1597 C1596 1.388 . S
C1597 C1598 1.390 . S
C1598 C1597 1.390 . S
C1598 C1599 1.394 . S
C1598 C1604 1.465 . S
C1599 C1594 1.399 . S
C1599 C1598 1.394 . S
C1599 C1600 1.516 . S
C1600 C1599 1.516 . S
C1600 C1601 1.502 . S
C1600 C1602 1.561 . S
C1600 C1603 1.526 . S
C1601 H1585 0.959 . S
C1601 H1586 0.959 . S
C1601 H1587 0.961 . S
C1601 C1600 1.502 . S
C1602 H1588 0.960 . S
C1602 H1589 0.961 . S
C1602 H1590 0.959 . S
C1602 C1600 1.561 . S
C1603 C1600 1.526 . S
C1603 C1604 1.396 . S
C1603 C1608 1.390 . S
C1604 C1598 1.465 . S
C1604 C1603 1.396 . S
C1604 C1605 1.399 . S
C1605 H1591 0.929 . S
C1605 C1604 1.399 . S
C1605 C1606 1.385 . S
C1606 H1592 0.931 . S
C1606 C1605 1.385 . S
C1606 C1607 1.389 . S
C1607 C1606 1.389 . S
C1607 C1608 1.387 . S
C1608 H1593 0.930 . S
C1608 C1603 1.390 . S
C1608 C1607 1.387 . S
H1609 C1621 0.930 . S
H1610 C1623 0.930 . S
H1611 C1624 0.930 . S
H1612 C1628 0.959 . S
H1613 C1628 0.959 . S
H1614 C1628 0.961 . S
H1615 C1629 0.960 . S
H1616 C1629 0.961 . S
H1617 C1629 0.959 . S
H1618 C1632 0.929 . S
H1619 C1633 0.931 . S
H1620 C1635 0.930 . S
C1621 H1609 0.930 . S
C1621 C1622 1.399 . S
C1621 C1626 1.399 . S
C1622 C1621 1.399 . S
C1622 C1623 1.376 . S
C1623 H1610 0.930 . S
C1623 C1622 1.376 . S
C1623 C1624 1.388 . S
C1624 H1611 0.930 . S
C1624 C1623 1.388 . S
C1624 C1625 1.390 . S
C1625 C1624 1.390 . S
C1625 C1626 1.394 . S
C1625 C1631 1.465 . S
C1626 C1621 1.399 . S
C1626 C1625 1.394 . S
C1626 C1627 1.516 . S
C1627 C1626 1.516 . S
C1627 C1628 1.502 . S
C1627 C1629 1.561 . S
C1627 C1630 1.526 . S
C1628 H1612 0.959 . S
C1628 H1613 0.959 . S
C1628 H1614 0.961 . S
C1628 C1627 1.502 . S
C1629 H1615 0.960 . S
C1629 H1616 0.961 . S
C1629 H1617 0.959 . S
C1629 C1627 1.561 . S
C1630 C1627 1.526 . S
C1630 C1631 1.396 . S
C1630 C1635 1.390 . S
C1631 C1625 1.465 . S
C1631 C1630 1.396 . S
C1631 C1632 1.399 . S
C1632 H1618 0.929 . S
C1632 C1631 1.399 . S
C1632 C1633 1.385 . S
C1633 H1619 0.931 . S
C1633 C1632 1.385 . S
C1633 C1634 1.389 . S
C1634 C1633 1.389 . S
C1634 C1635 1.387 . S
C1635 H1620 0.930 . S
C1635 C1630 1.390 . S
C1635 C1634 1.387 . S
H1636 C1648 0.930 . S
H1637 C1650 0.930 . S
H1638 C1651 0.930 . S
H1639 C1655 0.959 . S
H1640 C1655 0.959 . S
H1641 C1655 0.961 . S
H1642 C1656 0.960 . S
H1643 C1656 0.961 . S
H1644 C1656 0.959 1_655 S
H1645 C1659 0.929 . S
H1646 C1660 0.931 . S
H1647 C1662 0.930 . S
C1648 H1636 0.930 . S
C1648 C1649 1.399 . S
C1648 C1653 1.399 . S
C1649 C1648 1.399 . S
C1649 C1650 1.376 . S
C1650 H1637 0.930 . S
C1650 C1649 1.376 . S
C1650 C1651 1.388 . S
C1651 H1638 0.930 . S
C1651 C1650 1.388 . S
C1651 C1652 1.390 . S
C1652 C1651 1.390 . S
C1652 C1653 1.394 . S
C1652 C1658 1.465 . S
C1653 C1648 1.399 . S
C1653 C1652 1.394 . S
C1653 C1654 1.516 . S
C1654 C1653 1.516 . S
C1654 C1655 1.502 . S
C1654 C1656 1.561 . S
C1654 C1657 1.526 . S
C1655 H1639 0.959 . S
C1655 H1640 0.959 . S
C1655 H1641 0.961 . S
C1655 C1654 1.502 . S
C1656 H1642 0.960 . S
C1656 H1643 0.961 . S
C1656 H1644 0.959 1_455 S
C1656 C1654 1.561 . S
C1657 C1654 1.526 . S
C1657 C1658 1.396 . S
C1657 C1662 1.390 . S
C1658 C1652 1.465 . S
C1658 C1657 1.396 . S
C1658 C1659 1.399 . S
C1659 H1645 0.929 . S
C1659 C1658 1.399 . S
C1659 C1660 1.385 . S
C1660 H1646 0.931 . S
C1660 C1659 1.385 . S
C1660 C1661 1.389 . S
C1661 C1660 1.389 . S
C1661 C1662 1.387 . S
C1662 H1647 0.930 . S
C1662 C1657 1.390 . S
C1662 C1661 1.387 . S
H1663 C1675 0.930 . S
H1664 C1677 0.930 . S
H1665 C1678 0.930 . S
H1666 C1682 0.959 . S
H1667 C1682 0.959 . S
H1668 C1682 0.961 . S
H1669 C1683 0.960 . S
H1670 C1683 0.961 . S
H1671 C1683 0.959 . S
H1672 C1686 0.929 . S
H1673 C1687 0.931 . S
H1674 C1689 0.930 . S
C1675 H1663 0.930 . S
C1675 C1676 1.399 . S
C1675 C1680 1.399 . S
C1676 C1675 1.399 . S
C1676 C1677 1.376 . S
C1677 H1664 0.930 . S
C1677 C1676 1.376 . S
C1677 C1678 1.388 . S
C1678 H1665 0.930 . S
C1678 C1677 1.388 . S
C1678 C1679 1.390 . S
C1679 C1678 1.390 . S
C1679 C1680 1.394 . S
C1679 C1685 1.465 . S
C1680 C1675 1.399 . S
C1680 C1679 1.394 . S
C1680 C1681 1.516 . S
C1681 C1680 1.516 . S
C1681 C1682 1.502 . S
C1681 C1683 1.561 . S
C1681 C1684 1.526 . S
C1682 H1666 0.959 . S
C1682 H1667 0.959 . S
C1682 H1668 0.961 . S
C1682 C1681 1.502 . S
C1683 H1669 0.960 . S
C1683 H1670 0.961 . S
C1683 H1671 0.959 . S
C1683 C1681 1.561 . S
C1684 C1681 1.526 . S
C1684 C1685 1.396 . S
C1684 C1689 1.390 . S
C1685 C1679 1.465 . S
C1685 C1684 1.396 . S
C1685 C1686 1.399 . S
C1686 H1672 0.929 . S
C1686 C1685 1.399 . S
C1686 C1687 1.385 . S
C1687 H1673 0.931 . S
C1687 C1686 1.385 . S
C1687 C1688 1.389 . S
C1688 C1687 1.389 . S
C1688 C1689 1.387 . S
C1689 H1674 0.930 . S
C1689 C1684 1.390 . S
C1689 C1688 1.387 . S
H1690 C1702 0.930 . S
H1691 C1704 0.930 . S
H1692 C1705 0.930 . S
H1693 C1709 0.959 . S
H1694 C1709 0.959 . S
H1695 C1709 0.961 . S
H1696 C1710 0.960 . S
H1697 C1710 0.961 . S
H1698 C1710 0.959 . S
H1699 C1713 0.929 . S
H1700 C1714 0.931 . S
H1701 C1716 0.930 . S
C1702 H1690 0.930 . S
C1702 C1703 1.399 . S
C1702 C1707 1.399 . S
C1703 C1702 1.399 . S
C1703 C1704 1.376 . S
C1704 H1691 0.930 . S
C1704 C1703 1.376 . S
C1704 C1705 1.388 . S
C1705 H1692 0.930 . S
C1705 C1704 1.388 . S
C1705 C1706 1.390 . S
C1706 C1705 1.390 . S
C1706 C1707 1.394 . S
C1706 C1712 1.465 . S
C1707 C1702 1.399 . S
C1707 C1706 1.394 . S
C1707 C1708 1.516 . S
C1708 C1707 1.516 . S
C1708 C1709 1.502 . S
C1708 C1710 1.561 . S
C1708 C1711 1.526 . S
C1709 H1693 0.959 . S
C1709 H1694 0.959 . S
C1709 H1695 0.961 . S
C1709 C1708 1.502 . S
C1710 H1696 0.960 . S
C1710 H1697 0.961 . S
C1710 H1698 0.959 . S
C1710 C1708 1.561 . S
C1711 C1708 1.526 . S
C1711 C1712 1.396 . S
C1711 C1716 1.390 . S
C1712 C1706 1.465 . S
C1712 C1711 1.396 . S
C1712 C1713 1.399 . S
C1713 H1699 0.929 . S
C1713 C1712 1.399 . S
C1713 C1714 1.385 . S
C1714 H1700 0.931 . S
C1714 C1713 1.385 . S
C1714 C1715 1.389 . S
C1715 C1714 1.389 . S
C1715 C1716 1.387 . S
C1716 H1701 0.930 . S
C1716 C1711 1.390 . S
C1716 C1715 1.387 . S
H1717 C1729 0.930 . S
H1718 C1731 0.930 . S
H1719 C1732 0.930 . S
H1720 C1736 0.959 . S
H1721 C1736 0.959 . S
H1722 C1736 0.961 . S
H1723 C1737 0.960 . S
H1724 C1737 0.961 . S
H1725 C1737 0.959 . S
H1726 C1740 0.929 . S
H1727 C1741 0.931 . S
H1728 C1743 0.930 . S
C1729 H1717 0.930 . S
C1729 C1730 1.399 . S
C1729 C1734 1.399 . S
C1730 C1729 1.399 . S
C1730 C1731 1.376 . S
C1731 H1718 0.930 . S
C1731 C1730 1.376 . S
C1731 C1732 1.388 . S
C1732 H1719 0.930 . S
C1732 C1731 1.388 . S
C1732 C1733 1.390 . S
C1733 C1732 1.390 . S
C1733 C1734 1.394 . S
C1733 C1739 1.465 . S
C1734 C1729 1.399 . S
C1734 C1733 1.394 . S
C1734 C1735 1.516 . S
C1735 C1734 1.516 . S
C1735 C1736 1.502 . S
C1735 C1737 1.561 . S
C1735 C1738 1.526 . S
C1736 H1720 0.959 . S
C1736 H1721 0.959 . S
C1736 H1722 0.961 . S
C1736 C1735 1.502 . S
C1737 H1723 0.960 . S
C1737 H1724 0.961 . S
C1737 H1725 0.959 . S
C1737 C1735 1.561 . S
C1738 C1735 1.526 . S
C1738 C1739 1.396 . S
C1738 C1743 1.390 . S
C1739 C1733 1.465 . S
C1739 C1738 1.396 . S
C1739 C1740 1.399 . S
C1740 H1726 0.929 . S
C1740 C1739 1.399 . S
C1740 C1741 1.385 . S
C1741 H1727 0.931 . S
C1741 C1740 1.385 . S
C1741 C1742 1.389 . S
C1742 C1741 1.389 . S
C1742 C1743 1.387 . S
C1743 H1728 0.930 . S
C1743 C1738 1.390 . S
C1743 C1742 1.387 . S
H1744 C1756 0.930 . S
H1745 C1758 0.930 . S
H1746 C1759 0.930 . S
H1747 C1763 0.959 . S
H1748 C1763 0.959 . S
H1749 C1763 0.961 . S
H1750 C1764 0.960 . S
H1751 C1764 0.961 . S
H1752 C1764 0.959 . S
H1753 C1767 0.929 . S
H1754 C1768 0.931 1_565 S
H1755 C1770 0.930 . S
C1756 H1744 0.930 . S
C1756 C1757 1.399 . S
C1756 C1761 1.399 . S
C1757 C1756 1.399 . S
C1757 C1758 1.376 1_545 S
C1758 H1745 0.930 . S
C1758 C1757 1.376 1_565 S
C1758 C1759 1.388 . S
C1759 H1746 0.930 . S
C1759 C1758 1.388 . S
C1759 C1760 1.390 1_565 S
C1760 C1759 1.390 1_545 S
C1760 C1761 1.394 . S
C1760 C1766 1.465 . S
C1761 C1756 1.399 . S
C1761 C1760 1.394 . S
C1761 C1762 1.516 . S
C1762 C1761 1.516 . S
C1762 C1763 1.502 . S
C1762 C1764 1.561 . S
C1762 C1765 1.526 . S
C1763 H1747 0.959 . S
C1763 H1748 0.959 . S
C1763 H1749 0.961 . S
C1763 C1762 1.502 . S
C1764 H1750 0.960 . S
C1764 H1751 0.961 . S
C1764 H1752 0.959 . S
C1764 C1762 1.561 . S
C1765 C1762 1.526 . S
C1765 C1766 1.396 . S
C1765 C1770 1.390 . S
C1766 C1760 1.465 . S
C1766 C1765 1.396 . S
C1766 C1767 1.399 1_545 S
C1767 H1753 0.929 . S
C1767 C1766 1.399 1_565 S
C1767 C1768 1.385 1_565 S
C1768 H1754 0.931 1_545 S
C1768 C1767 1.385 1_545 S
C1768 C1769 1.389 . S
C1769 C1768 1.389 . S
C1769 C1770 1.387 . S
C1770 H1755 0.930 . S
C1770 C1765 1.390 . S
C1770 C1769 1.387 . S
H1771 C1783 0.930 . S
H1772 C1785 0.930 . S
H1773 C1786 0.930 . S
H1774 C1790 0.959 . S
H1775 C1790 0.959 . S
H1776 C1790 0.961 . S
H1777 C1791 0.960 . S
H1778 C1791 0.961 . S
H1779 C1791 0.959 . S
H1780 C1794 0.929 . S
H1781 C1795 0.931 . S
H1782 C1797 0.930 . S
C1783 H1771 0.930 . S
C1783 C1784 1.399 . S
C1783 C1788 1.399 . S
C1784 C1783 1.399 . S
C1784 C1785 1.376 . S
C1785 H1772 0.930 . S
C1785 C1784 1.376 . S
C1785 C1786 1.388 . S
C1786 H1773 0.930 . S
C1786 C1785 1.388 . S
C1786 C1787 1.390 . S
C1787 C1786 1.390 . S
C1787 C1788 1.394 . S
C1787 C1793 1.465 . S
C1788 C1783 1.399 . S
C1788 C1787 1.394 . S
C1788 C1789 1.516 . S
C1789 C1788 1.516 . S
C1789 C1790 1.502 . S
C1789 C1791 1.561 . S
C1789 C1792 1.526 . S
C1790 H1774 0.959 . S
C1790 H1775 0.959 . S
C1790 H1776 0.961 . S
C1790 C1789 1.502 . S
C1791 H1777 0.960 . S
C1791 H1778 0.961 . S
C1791 H1779 0.959 . S
C1791 C1789 1.561 . S
C1792 C1789 1.526 . S
C1792 C1793 1.396 . S
C1792 C1797 1.390 . S
C1793 C1787 1.465 . S
C1793 C1792 1.396 . S
C1793 C1794 1.399 . S
C1794 H1780 0.929 . S
C1794 C1793 1.399 . S
C1794 C1795 1.385 . S
C1795 H1781 0.931 . S
C1795 C1794 1.385 . S
C1795 C1796 1.389 . S
C1796 C1795 1.389 . S
C1796 C1797 1.387 . S
C1797 H1782 0.930 . S
C1797 C1792 1.390 . S
C1797 C1796 1.387 . S
H1798 C1810 0.930 . S
H1799 C1812 0.930 . S
H1800 C1813 0.930 . S
H1801 C1817 0.959 . S
H1802 C1817 0.959 . S
H1803 C1817 0.961 . S
H1804 C1818 0.960 . S
H1805 C1818 0.961 . S
H1806 C1818 0.959 . S
H1807 C1821 0.929 . S
H1808 C1822 0.931 . S
H1809 C1824 0.930 . S
C1810 H1798 0.930 . S
C1810 C1811 1.399 . S
C1810 C1815 1.399 . S
C1811 C1810 1.399 . S
C1811 C1812 1.376 1_545 S
C1812 H1799 0.930 . S
C1812 C1811 1.376 1_565 S
C1812 C1813 1.388 . S
C1813 H1800 0.930 . S
C1813 C1812 1.388 . S
C1813 C1814 1.390 1_565 S
C1814 C1813 1.390 1_545 S
C1814 C1815 1.394 . S
C1814 C1820 1.465 1_545 S
C1815 C1810 1.399 . S
C1815 C1814 1.394 . S
C1815 C1816 1.516 . S
C1816 C1815 1.516 . S
C1816 C1817 1.502 . S
C1816 C1818 1.561 . S
C1816 C1819 1.526 . S
C1817 H1801 0.959 . S
C1817 H1802 0.959 . S
C1817 H1803 0.961 . S
C1817 C1816 1.502 . S
C1818 H1804 0.960 . S
C1818 H1805 0.961 . S
C1818 H1806 0.959 . S
C1818 C1816 1.561 . S
C1819 C1816 1.526 . S
C1819 C1820 1.396 1_545 S
C1819 C1824 1.390 . S
C1820 C1814 1.465 1_565 S
C1820 C1819 1.396 1_565 S
C1820 C1821 1.399 . S
C1821 H1807 0.929 . S
C1821 C1820 1.399 . S
C1821 C1822 1.385 . S
C1822 H1808 0.931 . S
C1822 C1821 1.385 . S
C1822 C1823 1.389 . S
C1823 C1822 1.389 . S
C1823 C1824 1.387 1_565 S
C1824 H1809 0.930 . S
C1824 C1819 1.390 . S
C1824 C1823 1.387 1_545 S
H1825 C1837 0.930 . S
H1826 C1839 0.930 . S
H1827 C1840 0.930 . S
H1828 C1844 0.959 . S
H1829 C1844 0.959 . S
H1830 C1844 0.961 . S
H1831 C1845 0.960 . S
H1832 C1845 0.961 . S
H1833 C1845 0.959 . S
H1834 C1848 0.929 . S
H1835 C1849 0.931 . S
H1836 C1851 0.930 . S
C1837 H1825 0.930 . S
C1837 C1838 1.399 . S
C1837 C1842 1.399 . S
C1838 C1837 1.399 . S
C1838 C1839 1.376 . S
C1839 H1826 0.930 . S
C1839 C1838 1.376 . S
C1839 C1840 1.388 . S
C1840 H1827 0.930 . S
C1840 C1839 1.388 . S
C1840 C1841 1.390 . S
C1841 C1840 1.390 . S
C1841 C1842 1.394 . S
C1841 C1847 1.465 . S
C1842 C1837 1.399 . S
C1842 C1841 1.394 . S
C1842 C1843 1.516 . S
C1843 C1842 1.516 . S
C1843 C1844 1.502 . S
C1843 C1845 1.561 . S
C1843 C1846 1.526 . S
C1844 H1828 0.959 . S
C1844 H1829 0.959 . S
C1844 H1830 0.961 . S
C1844 C1843 1.502 . S
C1845 H1831 0.960 . S
C1845 H1832 0.961 . S
C1845 H1833 0.959 . S
C1845 C1843 1.561 . S
C1846 C1843 1.526 . S
C1846 C1847 1.396 . S
C1846 C1851 1.390 . S
C1847 C1841 1.465 . S
C1847 C1846 1.396 . S
C1847 C1848 1.399 . S
C1848 H1834 0.929 . S
C1848 C1847 1.399 . S
C1848 C1849 1.385 . S
C1849 H1835 0.931 . S
C1849 C1848 1.385 . S
C1849 C1850 1.389 . S
C1850 C1849 1.389 . S
C1850 C1851 1.387 . S
C1851 H1836 0.930 . S
C1851 C1846 1.390 . S
C1851 C1850 1.387 . S
H1852 C1864 0.930 . S
H1853 C1866 0.930 . S
H1854 C1867 0.930 . S
H1855 C1871 0.959 . S
H1856 C1871 0.959 . S
H1857 C1871 0.961 . S
H1858 C1872 0.960 . S
H1859 C1872 0.961 . S
H1860 C1872 0.959 . S
H1861 C1875 0.929 . S
H1862 C1876 0.931 . S
H1863 C1878 0.954 . S
C1864 H1852 0.930 . S
C1864 C1865 1.375 1_545 S
C1864 C1869 1.399 . S
C1865 C1864 1.375 1_565 S
C1865 C1866 1.411 . S
C1866 H1853 0.930 . S
C1866 C1865 1.411 . S
C1866 C1867 1.388 . S
C1867 H1854 0.930 . S
C1867 C1866 1.388 . S
C1867 C1868 1.390 . S
C1868 C1867 1.390 . S
C1868 C1869 1.394 1_565 S
C1868 C1874 1.465 . S
C1869 C1864 1.399 . S
C1869 C1868 1.394 1_545 S
C1869 C1870 1.516 . S
C1870 C1869 1.516 . S
C1870 C1871 1.502 . S
C1870 C1872 1.561 . S
C1870 C1873 1.529 1_545 S
C1871 H1855 0.959 . S
C1871 H1856 0.959 . S
C1871 H1857 0.961 . S
C1871 C1870 1.502 . S
C1872 H1858 0.960 . S
C1872 H1859 0.961 . S
C1872 H1860 0.959 . S
C1872 C1870 1.561 . S
C1873 C1870 1.529 1_565 S
C1873 C1874 1.392 . S
C1873 C1878 1.388 1_565 S
C1874 C1868 1.465 . S
C1874 C1873 1.392 . S
C1874 C1875 1.399 . S
C1875 H1861 0.929 . S
C1875 C1874 1.399 . S
C1875 C1876 1.385 . S
C1876 H1862 0.931 . S
C1876 C1875 1.385 . S
C1876 C1877 1.389 . S
C1877 C1876 1.389 . S
C1877 C1878 1.364 1_565 S
C1878 H1863 0.954 . S
C1878 C1873 1.388 1_545 S
C1878 C1877 1.364 1_545 S
H1879 C1891 0.930 . S
H1880 C1893 0.930 . S
H1881 C1894 0.930 . S
H1882 C1898 0.959 . S
H1883 C1898 0.959 . S
H1884 C1898 0.961 . S
H1885 C1899 0.960 . S
H1886 C1899 0.961 . S
H1887 C1899 0.959 . S
H1888 C1902 0.929 . S
H1889 C1903 0.931 . S
H1890 C1905 0.930 . S
C1891 H1879 0.930 . S
C1891 C1892 1.399 . S
C1891 C1896 1.399 . S
C1892 C1891 1.399 . S
C1892 C1893 1.376 . S
C1893 H1880 0.930 . S
C1893 C1892 1.376 . S
C1893 C1894 1.388 . S
C1894 H1881 0.930 . S
C1894 C1893 1.388 . S
C1894 C1895 1.390 . S
C1895 C1894 1.390 . S
C1895 C1896 1.394 . S
C1895 C1901 1.465 . S
C1896 C1891 1.399 . S
C1896 C1895 1.394 . S
C1896 C1897 1.516 . S
C1897 C1896 1.516 . S
C1897 C1898 1.502 . S
C1897 C1899 1.561 . S
C1897 C1900 1.526 . S
C1898 H1882 0.959 . S
C1898 H1883 0.959 . S
C1898 H1884 0.961 . S
C1898 C1897 1.502 . S
C1899 H1885 0.960 . S
C1899 H1886 0.961 . S
C1899 H1887 0.959 . S
C1899 C1897 1.561 . S
C1900 C1897 1.526 . S
C1900 C1901 1.396 . S
C1900 C1905 1.390 . S
C1901 C1895 1.465 . S
C1901 C1900 1.396 . S
C1901 C1902 1.399 . S
C1902 H1888 0.929 . S
C1902 C1901 1.399 . S
C1902 C1903 1.385 . S
C1903 H1889 0.931 . S
C1903 C1902 1.385 . S
C1903 C1904 1.389 . S
C1904 C1903 1.389 . S
C1904 C1905 1.387 . S
C1905 H1890 0.930 . S
C1905 C1900 1.390 . S
C1905 C1904 1.387 . S
H1906 C1918 0.900 1_565 S
H1907 C1920 0.930 . S
H1908 C1921 0.930 . S
H1909 C1925 0.959 . S
H1910 C1925 0.959 1_565 S
H1911 C1925 0.961 1_565 S
H1912 C1926 0.960 . S
H1913 C1926 0.961 . S
H1914 C1926 0.959 . S
H1915 C1929 0.929 . S
H1916 C1930 0.931 . S
H1917 C1932 0.930 . S
C1918 H1906 0.900 1_545 S
C1918 C1919 1.399 . S
C1918 C1923 1.399 . S
C1919 C1918 1.399 . S
C1919 C1920 1.376 . S
C1920 H1907 0.930 . S
C1920 C1919 1.376 . S
C1920 C1921 1.388 . S
C1921 H1908 0.930 . S
C1921 C1920 1.388 . S
C1921 C1922 1.390 . S
C1922 C1921 1.390 . S
C1922 C1923 1.394 . S
C1922 C1928 1.465 . S
C1923 C1918 1.399 . S
C1923 C1922 1.394 . S
C1923 C1924 1.516 . S
C1924 C1923 1.516 . S
C1924 C1925 1.502 . S
C1924 C1926 1.561 1_545 S
C1924 C1927 1.526 . S
C1925 H1909 0.959 . S
C1925 H1910 0.959 1_545 S
C1925 H1911 0.961 1_545 S
C1925 C1924 1.502 . S
C1926 H1912 0.960 . S
C1926 H1913 0.961 . S
C1926 H1914 0.959 . S
C1926 C1924 1.561 1_565 S
C1927 C1924 1.526 . S
C1927 C1928 1.396 . S
C1927 C1932 1.390 . S
C1928 C1922 1.465 . S
C1928 C1927 1.396 . S
C1928 C1929 1.399 . S
C1929 H1915 0.929 . S
C1929 C1928 1.399 . S
C1929 C1930 1.385 . S
C1930 H1916 0.931 . S
C1930 C1929 1.385 . S
C1930 C1931 1.389 . S
C1931 C1930 1.389 . S
C1931 C1932 1.387 . S
C1932 H1917 0.930 . S
C1932 C1927 1.390 . S
C1932 C1931 1.387 . S
H1933 C1945 0.930 . S
H1934 C1947 0.930 1_554 S
H1935 C1948 0.930 . S
H1936 C1952 0.959 . S
H1937 C1952 0.959 . S
H1938 C1952 0.961 . S
H1939 C1953 0.960 . S
H1940 C1953 0.961 . S
H1941 C1953 0.959 . S
H1942 C1956 0.929 . S
H1943 C1957 0.931 . S
H1944 C1959 0.930 . S
C1945 H1933 0.930 . S
C1945 C1946 1.399 . S
C1945 C1950 1.399 . S
C1946 C1945 1.399 . S
C1946 C1947 1.376 . S
C1947 H1934 0.930 1_556 S
C1947 C1946 1.376 . S
C1947 C1948 1.388 . S
C1948 H1935 0.930 . S
C1948 C1947 1.388 . S
C1948 C1949 1.390 . S
C1949 C1948 1.390 . S
C1949 C1950 1.394 . S
C1949 C1955 1.465 . S
C1950 C1945 1.399 . S
C1950 C1949 1.394 . S
C1950 C1951 1.516 . S
C1951 C1950 1.516 . S
C1951 C1952 1.502 . S
C1951 C1953 1.561 . S
C1951 C1954 1.526 . S
C1952 H1936 0.959 . S
C1952 H1937 0.959 . S
C1952 H1938 0.961 . S
C1952 C1951 1.502 . S
C1953 H1939 0.960 . S
C1953 H1940 0.961 . S
C1953 H1941 0.959 . S
C1953 C1951 1.561 . S
C1954 C1951 1.526 . S
C1954 C1955 1.396 . S
C1954 C1959 1.390 . S
C1955 C1949 1.465 . S
C1955 C1954 1.396 . S
C1955 C1956 1.399 . S
C1956 H1942 0.929 . S
C1956 C1955 1.399 . S
C1956 C1957 1.385 . S
C1957 H1943 0.931 . S
C1957 C1956 1.385 . S
C1957 C1958 1.389 . S
C1958 C1957 1.389 . S
C1958 C1959 1.387 . S
C1959 H1944 0.930 . S
C1959 C1954 1.390 . S
C1959 C1958 1.387 . S
H1960 C1972 0.930 . S
H1961 C1974 0.930 . S
H1962 C1975 0.930 . S
H1963 C1979 0.959 . S
H1964 C1979 0.959 . S
H1965 C1979 0.961 . S
H1966 C1980 0.960 1_545 S
H1967 C1980 0.961 1_545 S
H1968 C1980 0.959 . S
H1969 C1983 0.929 . S
H1970 C1984 0.931 . S
H1971 C1986 0.930 1_545 S
C1972 H1960 0.930 . S
C1972 C1973 1.399 . S
C1972 C1977 1.399 . S
C1973 C1972 1.399 . S
C1973 C1974 1.376 . S
C1974 H1961 0.930 . S
C1974 C1973 1.376 . S
C1974 C1975 1.388 . S
C1975 H1962 0.930 . S
C1975 C1974 1.388 . S
C1975 C1976 1.390 . S
C1976 C1975 1.390 . S
C1976 C1977 1.394 . S
C1976 C1982 1.465 . S
C1977 C1972 1.399 . S
C1977 C1976 1.394 . S
C1977 C1978 1.516 . S
C1978 C1977 1.516 . S
C1978 C1979 1.502 1_565 S
C1978 C1980 1.561 . S
C1978 C1981 1.526 . S
C1979 H1963 0.959 . S
C1979 H1964 0.959 . S
C1979 H1965 0.961 . S
C1979 C1978 1.502 1_545 S
C1980 H1966 0.960 1_565 S
C1980 H1967 0.961 1_565 S
C1980 H1968 0.959 . S
C1980 C1978 1.561 . S
C1981 C1978 1.526 . S
C1981 C1982 1.396 . S
C1981 C1986 1.390 . S
C1982 C1976 1.465 . S
C1982 C1981 1.396 . S
C1982 C1983 1.399 . S
C1983 H1969 0.929 . S
C1983 C1982 1.399 . S
C1983 C1984 1.385 . S
C1984 H1970 0.931 . S
C1984 C1983 1.385 . S
C1984 C1985 1.389 . S
C1985 C1984 1.389 . S
C1985 C1986 1.387 . S
C1986 H1971 0.930 1_565 S
C1986 C1981 1.390 . S
C1986 C1985 1.387 . S
H1987 C1999 0.930 . S
H1988 C2001 0.930 . S
H1989 C2002 0.930 . S
H1990 C2006 0.959 . S
H1991 C2006 0.959 . S
H1992 C2006 0.961 . S
H1993 C2007 0.960 . S
H1994 C2007 0.961 . S
H1995 C2007 0.959 1_554 S
H1996 C2010 0.929 . S
H1997 C2011 0.931 . S
H1998 C2013 0.930 . S
C1999 H1987 0.930 . S
C1999 C2000 1.399 1_556 S
C1999 C2004 1.399 . S
C2000 C1999 1.399 1_554 S
C2000 C2001 1.376 . S
C2001 H1988 0.930 . S
C2001 C2000 1.376 . S
C2001 C2002 1.388 . S
C2002 H1989 0.930 . S
C2002 C2001 1.388 . S
C2002 C2003 1.390 . S
C2003 C2002 1.390 . S
C2003 C2004 1.394 1_554 S
C2003 C2009 1.465 . S
C2004 C1999 1.399 . S
C2004 C2003 1.394 1_556 S
C2004 C2005 1.516 . S
C2005 C2004 1.516 . S
C2005 C2006 1.502 . S
C2005 C2007 1.561 . S
C2005 C2008 1.525 . S
C2006 H1990 0.959 . S
C2006 H1991 0.959 . S
C2006 H1992 0.961 . S
C2006 C2005 1.502 . S
C2007 H1993 0.960 . S
C2007 H1994 0.961 . S
C2007 H1995 0.959 1_556 S
C2007 C2005 1.561 . S
C2008 C2005 1.525 . S
C2008 C2009 1.397 1_556 S
C2008 C2013 1.389 . S
C2009 C2003 1.465 . S
C2009 C2008 1.397 1_554 S
C2009 C2010 1.399 . S
C2010 H1996 0.929 . S
C2010 C2009 1.399 . S
C2010 C2011 1.385 . S
C2011 H1997 0.931 . S
C2011 C2010 1.385 . S
C2011 C2012 1.389 . S
C2012 C2011 1.389 . S
C2012 C2013 1.387 1_554 S
C2013 H1998 0.930 . S
C2013 C2008 1.389 . S
C2013 C2012 1.387 1_556 S
H2014 C2026 0.930 . S
H2015 C2028 0.930 . S
H2016 C2029 0.930 . S
H2017 C2033 0.959 . S
H2018 C2033 0.959 . S
H2019 C2033 0.961 . S
H2020 C2034 0.960 . S
H2021 C2034 0.961 . S
H2022 C2034 0.959 . S
H2023 C2037 0.929 . S
H2024 C2038 0.931 . S
H2025 C2040 0.930 . S
C2026 H2014 0.930 . S
C2026 C2027 1.399 . S
C2026 C2031 1.399 . S
C2027 C2026 1.399 . S
C2027 C2028 1.376 . S
C2028 H2015 0.930 . S
C2028 C2027 1.376 . S
C2028 C2029 1.388 . S
C2029 H2016 0.930 . S
C2029 C2028 1.388 . S
C2029 C2030 1.390 . S
C2030 C2029 1.390 . S
C2030 C2031 1.394 . S
C2030 C2036 1.465 . S
C2031 C2026 1.399 . S
C2031 C2030 1.394 . S
C2031 C2032 1.516 . S
C2032 C2031 1.516 . S
C2032 C2033 1.502 . S
C2032 C2034 1.561 . S
C2032 C2035 1.526 . S
C2033 H2017 0.959 . S
C2033 H2018 0.959 . S
C2033 H2019 0.961 . S
C2033 C2032 1.502 . S
C2034 H2020 0.960 . S
C2034 H2021 0.961 . S
C2034 H2022 0.959 . S
C2034 C2032 1.561 . S
C2035 C2032 1.526 . S
C2035 C2036 1.396 . S
C2035 C2040 1.390 . S
C2036 C2030 1.465 . S
C2036 C2035 1.396 . S
C2036 C2037 1.399 . S
C2037 H2023 0.929 . S
C2037 C2036 1.399 . S
C2037 C2038 1.385 . S
C2038 H2024 0.931 . S
C2038 C2037 1.385 . S
C2038 C2039 1.389 . S
C2039 C2038 1.389 . S
C2039 C2040 1.387 . S
C2040 H2025 0.930 . S
C2040 C2035 1.390 . S
C2040 C2039 1.387 . S
H2041 C2053 0.930 . S
H2042 C2055 0.930 . S
H2043 C2056 0.930 . S
H2044 C2060 0.959 . S
H2045 C2060 0.959 . S
H2046 C2060 0.961 . S
H2047 C2061 0.960 . S
H2048 C2061 0.961 . S
H2049 C2061 0.959 . S
H2050 C2064 0.929 . S
H2051 C2065 0.931 . S
H2052 C2067 0.930 . S
C2053 H2041 0.930 . S
C2053 C2054 1.399 . S
C2053 C2058 1.399 . S
C2054 C2053 1.399 . S
C2054 C2055 1.376 . S
C2055 H2042 0.930 . S
C2055 C2054 1.376 . S
C2055 C2056 1.388 . S
C2056 H2043 0.930 . S
C2056 C2055 1.388 . S
C2056 C2057 1.390 . S
C2057 C2056 1.390 . S
C2057 C2058 1.394 . S
C2057 C2063 1.465 . S
C2058 C2053 1.399 . S
C2058 C2057 1.394 . S
C2058 C2059 1.516 . S
C2059 C2058 1.516 . S
C2059 C2060 1.502 . S
C2059 C2061 1.561 . S
C2059 C2062 1.526 . S
C2060 H2044 0.959 . S
C2060 H2045 0.959 . S
C2060 H2046 0.961 . S
C2060 C2059 1.502 . S
C2061 H2047 0.960 . S
C2061 H2048 0.961 . S
C2061 H2049 0.959 . S
C2061 C2059 1.561 . S
C2062 C2059 1.526 . S
C2062 C2063 1.396 . S
C2062 C2067 1.390 . S
C2063 C2057 1.465 . S
C2063 C2062 1.396 . S
C2063 C2064 1.399 . S
C2064 H2050 0.929 . S
C2064 C2063 1.399 . S
C2064 C2065 1.385 . S
C2065 H2051 0.931 . S
C2065 C2064 1.385 . S
C2065 C2066 1.389 . S
C2066 C2065 1.389 . S
C2066 C2067 1.387 . S
C2067 H2052 0.930 . S
C2067 C2062 1.390 . S
C2067 C2066 1.387 . S
H2068 C2080 0.930 . S
H2069 C2082 0.930 . S
H2070 C2083 0.930 . S
H2071 C2087 0.959 . S
H2072 C2087 0.959 . S
H2073 C2087 0.961 . S
H2074 C2088 0.960 . S
H2075 C2088 0.961 . S
H2076 C2088 0.959 . S
H2077 C2091 0.929 . S
H2078 C2092 0.931 . S
H2079 C2094 0.930 . S
C2080 H2068 0.930 . S
C2080 C2081 1.399 . S
C2080 C2085 1.399 . S
C2081 C2080 1.399 . S
C2081 C2082 1.376 . S
C2082 H2069 0.930 . S
C2082 C2081 1.376 . S
C2082 C2083 1.388 . S
C2083 H2070 0.930 . S
C2083 C2082 1.388 . S
C2083 C2084 1.390 . S
C2084 C2083 1.390 . S
C2084 C2085 1.394 . S
C2084 C2090 1.465 . S
C2085 C2080 1.399 . S
C2085 C2084 1.394 . S
C2085 C2086 1.516 . S
C2086 C2085 1.516 . S
C2086 C2087 1.502 . S
C2086 C2088 1.561 . S
C2086 C2089 1.526 . S
C2087 H2071 0.959 . S
C2087 H2072 0.959 . S
C2087 H2073 0.961 . S
C2087 C2086 1.502 . S
C2088 H2074 0.960 . S
C2088 H2075 0.961 . S
C2088 H2076 0.959 . S
C2088 C2086 1.561 . S
C2089 C2086 1.526 . S
C2089 C2090 1.396 . S
C2089 C2094 1.390 . S
C2090 C2084 1.465 . S
C2090 C2089 1.396 . S
C2090 C2091 1.399 . S
C2091 H2077 0.929 . S
C2091 C2090 1.399 . S
C2091 C2092 1.385 . S
C2092 H2078 0.931 . S
C2092 C2091 1.385 . S
C2092 C2093 1.389 . S
C2093 C2092 1.389 . S
C2093 C2094 1.387 . S
C2094 H2079 0.930 . S
C2094 C2089 1.390 . S
C2094 C2093 1.387 . S
H2095 C2107 0.930 . S
H2096 C2109 0.930 . S
H2097 C2110 0.930 . S
H2098 C2114 0.959 . S
H2099 C2114 0.959 . S
H2100 C2114 0.961 . S
H2101 C2115 0.960 . S
H2102 C2115 0.961 . S
H2103 C2115 0.959 . S
H2104 C2118 0.929 . S
H2105 C2119 0.931 . S
H2106 C2121 0.930 . S
C2107 H2095 0.930 . S
C2107 C2108 1.399 . S
C2107 C2112 1.399 . S
C2108 C2107 1.399 . S
C2108 C2109 1.376 . S
C2109 H2096 0.930 . S
C2109 C2108 1.376 . S
C2109 C2110 1.388 . S
C2110 H2097 0.930 . S
C2110 C2109 1.388 . S
C2110 C2111 1.390 . S
C2111 C2110 1.390 . S
C2111 C2112 1.394 . S
C2111 C2117 1.465 . S
C2112 C2107 1.399 . S
C2112 C2111 1.394 . S
C2112 C2113 1.516 . S
C2113 C2112 1.516 . S
C2113 C2114 1.502 . S
C2113 C2115 1.561 . S
C2113 C2116 1.526 . S
C2114 H2098 0.959 . S
C2114 H2099 0.959 . S
C2114 H2100 0.961 . S
C2114 C2113 1.502 . S
C2115 H2101 0.960 . S
C2115 H2102 0.961 . S
C2115 H2103 0.959 . S
C2115 C2113 1.561 . S
C2116 C2113 1.526 . S
C2116 C2117 1.396 . S
C2116 C2121 1.390 . S
C2117 C2111 1.465 . S
C2117 C2116 1.396 . S
C2117 C2118 1.399 . S
C2118 H2104 0.929 . S
C2118 C2117 1.399 . S
C2118 C2119 1.385 . S
C2119 H2105 0.931 . S
C2119 C2118 1.385 . S
C2119 C2120 1.389 . S
C2120 C2119 1.389 . S
C2120 C2121 1.387 . S
C2121 H2106 0.930 . S
C2121 C2116 1.390 . S
C2121 C2120 1.387 . S
H2122 C2134 0.930 . S
H2123 C2136 0.930 . S
H2124 C2137 0.930 . S
H2125 C2141 0.959 . S
H2126 C2141 0.959 . S
H2127 C2141 0.961 . S
H2128 C2142 0.960 . S
H2129 C2142 0.961 . S
H2130 C2142 0.959 . S
H2131 C2145 0.929 . S
H2132 C2146 0.931 . S
H2133 C2148 0.930 . S
C2134 H2122 0.930 . S
C2134 C2135 1.399 . S
C2134 C2139 1.399 . S
C2135 C2134 1.399 . S
C2135 C2136 1.376 . S
C2136 H2123 0.930 . S
C2136 C2135 1.376 . S
C2136 C2137 1.388 . S
C2137 H2124 0.930 . S
C2137 C2136 1.388 . S
C2137 C2138 1.390 . S
C2138 C2137 1.390 . S
C2138 C2139 1.394 . S
C2138 C2144 1.465 . S
C2139 C2134 1.399 . S
C2139 C2138 1.394 . S
C2139 C2140 1.516 . S
C2140 C2139 1.516 . S
C2140 C2141 1.502 . S
C2140 C2142 1.561 . S
C2140 C2143 1.526 . S
C2141 H2125 0.959 . S
C2141 H2126 0.959 . S
C2141 H2127 0.961 . S
C2141 C2140 1.502 . S
C2142 H2128 0.960 . S
C2142 H2129 0.961 . S
C2142 H2130 0.959 . S
C2142 C2140 1.561 . S
C2143 C2140 1.526 . S
C2143 C2144 1.396 . S
C2143 C2148 1.390 . S
C2144 C2138 1.465 . S
C2144 C2143 1.396 . S
C2144 C2145 1.399 . S
C2145 H2131 0.929 . S
C2145 C2144 1.399 . S
C2145 C2146 1.385 . S
C2146 H2132 0.931 . S
C2146 C2145 1.385 . S
C2146 C2147 1.389 . S
C2147 C2146 1.389 . S
C2147 C2148 1.387 . S
C2148 H2133 0.930 . S
C2148 C2143 1.390 . S
C2148 C2147 1.387 . S
H2149 C2161 0.930 . S
H2150 C2163 0.930 . S
H2151 C2164 0.930 . S
H2152 C2168 0.959 . S
H2153 C2168 0.959 . S
H2154 C2168 0.961 . S
H2155 C2169 0.960 . S
H2156 C2169 0.961 . S
H2157 C2169 0.959 . S
H2158 C2172 0.929 . S
H2159 C2173 0.931 . S
H2160 C2175 0.930 . S
C2161 H2149 0.930 . S
C2161 C2162 1.399 . S
C2161 C2166 1.399 . S
C2162 C2161 1.399 . S
C2162 C2163 1.376 . S
C2163 H2150 0.930 . S
C2163 C2162 1.376 . S
C2163 C2164 1.388 . S
C2164 H2151 0.930 . S
C2164 C2163 1.388 . S
C2164 C2165 1.390 . S
C2165 C2164 1.390 . S
C2165 C2166 1.394 . S
C2165 C2171 1.465 . S
C2166 C2161 1.399 . S
C2166 C2165 1.394 . S
C2166 C2167 1.516 . S
C2167 C2166 1.516 . S
C2167 C2168 1.502 . S
C2167 C2169 1.561 . S
C2167 C2170 1.526 . S
C2168 H2152 0.959 . S
C2168 H2153 0.959 . S
C2168 H2154 0.961 . S
C2168 C2167 1.502 . S
C2169 H2155 0.960 . S
C2169 H2156 0.961 . S
C2169 H2157 0.959 . S
C2169 C2167 1.561 . S
C2170 C2167 1.526 . S
C2170 C2171 1.396 . S
C2170 C2175 1.390 . S
C2171 C2165 1.465 . S
C2171 C2170 1.396 . S
C2171 C2172 1.399 . S
C2172 H2158 0.929 . S
C2172 C2171 1.399 . S
C2172 C2173 1.385 . S
C2173 H2159 0.931 . S
C2173 C2172 1.385 . S
C2173 C2174 1.389 . S
C2174 C2173 1.389 . S
C2174 C2175 1.387 . S
C2175 H2160 0.930 . S
C2175 C2170 1.390 . S
C2175 C2174 1.387 . S
H2176 C2188 0.930 . S
H2177 C2190 0.930 . S
H2178 C2191 0.930 . S
H2179 C2195 0.959 . S
H2180 C2195 0.959 . S
H2181 C2195 0.961 . S
H2182 C2196 0.960 . S
H2183 C2196 0.961 . S
H2184 C2196 0.959 . S
H2185 C2199 0.929 . S
H2186 C2200 0.931 . S
H2187 C2202 0.930 . S
C2188 H2176 0.930 . S
C2188 C2189 1.399 . S
C2188 C2193 1.399 . S
C2189 C2188 1.399 . S
C2189 C2190 1.376 . S
C2190 H2177 0.930 . S
C2190 C2189 1.376 . S
C2190 C2191 1.388 . S
C2191 H2178 0.930 . S
C2191 C2190 1.388 . S
C2191 C2192 1.390 . S
C2192 C2191 1.390 . S
C2192 C2193 1.394 . S
C2192 C2198 1.465 . S
C2193 C2188 1.399 . S
C2193 C2192 1.394 . S
C2193 C2194 1.516 . S
C2194 C2193 1.516 . S
C2194 C2195 1.502 . S
C2194 C2196 1.561 . S
C2194 C2197 1.526 . S
C2195 H2179 0.959 . S
C2195 H2180 0.959 . S
C2195 H2181 0.961 . S
C2195 C2194 1.502 . S
C2196 H2182 0.960 . S
C2196 H2183 0.961 . S
C2196 H2184 0.959 . S
C2196 C2194 1.561 . S
C2197 C2194 1.526 . S
C2197 C2198 1.396 . S
C2197 C2202 1.390 . S
C2198 C2192 1.465 . S
C2198 C2197 1.396 . S
C2198 C2199 1.399 . S
C2199 H2185 0.929 . S
C2199 C2198 1.399 . S
C2199 C2200 1.385 . S
C2200 H2186 0.931 . S
C2200 C2199 1.385 . S
C2200 C2201 1.389 . S
C2201 C2200 1.389 . S
C2201 C2202 1.387 . S
C2202 H2187 0.930 . S
C2202 C2197 1.390 . S
C2202 C2201 1.387 . S
H2203 C2215 0.930 . S
H2204 C2217 0.930 . S
H2205 C2218 0.930 . S
H2206 C2222 0.959 . S
H2207 C2222 0.959 . S
H2208 C2222 0.961 . S
H2209 C2223 0.960 . S
H2210 C2223 0.961 . S
H2211 C2223 0.959 . S
H2212 C2226 0.929 . S
H2213 C2227 0.931 . S
H2214 C2229 0.930 . S
C2215 H2203 0.930 . S
C2215 C2216 1.399 . S
C2215 C2220 1.399 . S
C2216 C2215 1.399 . S
C2216 C2217 1.376 . S
C2217 H2204 0.930 . S
C2217 C2216 1.376 . S
C2217 C2218 1.388 . S
C2218 H2205 0.930 . S
C2218 C2217 1.388 . S
C2218 C2219 1.390 . S
C2219 C2218 1.390 . S
C2219 C2220 1.394 . S
C2219 C2225 1.465 . S
C2220 C2215 1.399 . S
C2220 C2219 1.394 . S
C2220 C2221 1.516 . S
C2221 C2220 1.516 . S
C2221 C2222 1.502 . S
C2221 C2223 1.561 . S
C2221 C2224 1.526 . S
C2222 H2206 0.959 . S
C2222 H2207 0.959 . S
C2222 H2208 0.961 . S
C2222 C2221 1.502 . S
C2223 H2209 0.960 . S
C2223 H2210 0.961 . S
C2223 H2211 0.959 . S
C2223 C2221 1.561 . S
C2224 C2221 1.526 . S
C2224 C2225 1.396 . S
C2224 C2229 1.390 . S
C2225 C2219 1.465 . S
C2225 C2224 1.396 . S
C2225 C2226 1.399 . S
C2226 H2212 0.929 . S
C2226 C2225 1.399 . S
C2226 C2227 1.385 . S
C2227 H2213 0.931 . S
C2227 C2226 1.385 . S
C2227 C2228 1.389 . S
C2228 C2227 1.389 . S
C2228 C2229 1.387 . S
C2229 H2214 0.930 . S
C2229 C2224 1.390 . S
C2229 C2228 1.387 . S
H2230 C2242 0.930 . S
H2231 C2244 0.930 . S
H2232 C2245 0.930 . S
H2233 C2249 0.959 . S
H2234 C2249 0.959 . S
H2235 C2249 0.961 . S
H2236 C2250 0.960 . S
H2237 C2250 0.961 . S
H2238 C2250 0.959 . S
H2239 C2253 0.929 . S
H2240 C2254 0.931 . S
H2241 C2256 0.930 . S
C2242 H2230 0.930 . S
C2242 C2243 1.399 . S
C2242 C2247 1.399 . S
C2243 C2242 1.399 . S
C2243 C2244 1.376 . S
C2244 H2231 0.930 . S
C2244 C2243 1.376 . S
C2244 C2245 1.388 . S
C2245 H2232 0.930 . S
C2245 C2244 1.388 . S
C2245 C2246 1.390 . S
C2246 C2245 1.390 . S
C2246 C2247 1.394 . S
C2246 C2252 1.465 . S
C2247 C2242 1.399 . S
C2247 C2246 1.394 . S
C2247 C2248 1.516 . S
C2248 C2247 1.516 . S
C2248 C2249 1.502 . S
C2248 C2250 1.561 . S
C2248 C2251 1.526 . S
C2249 H2233 0.959 . S
C2249 H2234 0.959 . S
C2249 H2235 0.961 . S
C2249 C2248 1.502 . S
C2250 H2236 0.960 . S
C2250 H2237 0.961 . S
C2250 H2238 0.959 . S
C2250 C2248 1.561 . S
C2251 C2248 1.526 . S
C2251 C2252 1.396 . S
C2251 C2256 1.390 . S
C2252 C2246 1.465 . S
C2252 C2251 1.396 . S
C2252 C2253 1.399 . S
C2253 H2239 0.929 . S
C2253 C2252 1.399 . S
C2253 C2254 1.385 . S
C2254 H2240 0.931 . S
C2254 C2253 1.385 . S
C2254 C2255 1.389 . S
C2255 C2254 1.389 . S
C2255 C2256 1.387 . S
C2256 H2241 0.930 . S
C2256 C2251 1.390 . S
C2256 C2255 1.387 . S
H2257 C2269 0.930 . S
H2258 C2271 0.930 . S
H2259 C2272 0.930 . S
H2260 C2276 0.959 . S
H2261 C2276 0.959 . S
H2262 C2276 0.961 . S
H2263 C2277 0.960 . S
H2264 C2277 0.961 . S
H2265 C2277 0.959 . S
H2266 C2280 0.929 . S
H2267 C2281 0.931 . S
H2268 C2283 0.930 . S
C2269 H2257 0.930 . S
C2269 C2270 1.399 . S
C2269 C2274 1.399 . S
C2270 C2269 1.399 . S
C2270 C2271 1.376 . S
C2271 H2258 0.930 . S
C2271 C2270 1.376 . S
C2271 C2272 1.388 . S
C2272 H2259 0.930 . S
C2272 C2271 1.388 . S
C2272 C2273 1.390 . S
C2273 C2272 1.390 . S
C2273 C2274 1.394 . S
C2273 C2279 1.465 . S
C2274 C2269 1.399 . S
C2274 C2273 1.394 . S
C2274 C2275 1.516 . S
C2275 C2274 1.516 . S
C2275 C2276 1.502 . S
C2275 C2277 1.561 . S
C2275 C2278 1.526 . S
C2276 H2260 0.959 . S
C2276 H2261 0.959 . S
C2276 H2262 0.961 . S
C2276 C2275 1.502 . S
C2277 H2263 0.960 . S
C2277 H2264 0.961 . S
C2277 H2265 0.959 . S
C2277 C2275 1.561 . S
C2278 C2275 1.526 . S
C2278 C2279 1.396 . S
C2278 C2283 1.390 . S
C2279 C2273 1.465 . S
C2279 C2278 1.396 . S
C2279 C2280 1.399 . S
C2280 H2266 0.929 . S
C2280 C2279 1.399 . S
C2280 C2281 1.385 . S
C2281 H2267 0.931 . S
C2281 C2280 1.385 . S
C2281 C2282 1.389 . S
C2282 C2281 1.389 . S
C2282 C2283 1.387 . S
C2283 H2268 0.930 . S
C2283 C2278 1.390 . S
C2283 C2282 1.387 . S
H2284 C2296 0.930 . S
H2285 C2298 0.930 . S
H2286 C2299 0.930 . S
H2287 C2303 0.959 . S
H2288 C2303 0.959 . S
H2289 C2303 0.961 . S
H2290 C2304 0.960 . S
H2291 C2304 0.961 . S
H2292 C2304 0.959 . S
H2293 C2307 0.929 . S
H2294 C2308 0.931 . S
H2295 C2310 0.930 . S
C2296 H2284 0.930 . S
C2296 C2297 1.399 . S
C2296 C2301 1.399 . S
C2297 C2296 1.399 . S
C2297 C2298 1.376 . S
C2298 H2285 0.930 . S
C2298 C2297 1.376 . S
C2298 C2299 1.388 . S
C2299 H2286 0.930 . S
C2299 C2298 1.388 . S
C2299 C2300 1.390 . S
C2300 C2299 1.390 . S
C2300 C2301 1.394 . S
C2300 C2306 1.465 . S
C2301 C2296 1.399 . S
C2301 C2300 1.394 . S
C2301 C2302 1.516 . S
C2302 C2301 1.516 . S
C2302 C2303 1.502 . S
C2302 C2304 1.561 . S
C2302 C2305 1.526 . S
C2303 H2287 0.959 . S
C2303 H2288 0.959 . S
C2303 H2289 0.961 . S
C2303 C2302 1.502 . S
C2304 H2290 0.960 . S
C2304 H2291 0.961 . S
C2304 H2292 0.959 . S
C2304 C2302 1.561 . S
C2305 C2302 1.526 . S
C2305 C2306 1.396 . S
C2305 C2310 1.390 . S
C2306 C2300 1.465 . S
C2306 C2305 1.396 . S
C2306 C2307 1.399 1_556 S
C2307 H2293 0.929 . S
C2307 C2306 1.399 1_554 S
C2307 C2308 1.385 . S
C2308 H2294 0.931 . S
C2308 C2307 1.385 . S
C2308 C2309 1.363 1_554 S
C2309 C2308 1.363 1_556 S
C2309 C2310 1.430 . S
C2310 H2295 0.930 . S
C2310 C2305 1.390 . S
C2310 C2309 1.430 . S
H2311 C2323 0.930 1_455 S
H2312 C2325 0.930 1_455 S
H2313 C2326 0.930 . S
H2314 C2330 0.959 . S
H2315 C2330 0.959 . S
H2316 C2330 0.961 . S
H2317 C2331 0.960 . S
H2318 C2331 0.961 . S
H2319 C2331 0.959 . S
H2320 C2334 0.929 . S
H2321 C2335 0.931 . S
H2322 C2337 0.930 . S
C2323 H2311 0.930 1_655 S
C2323 C2324 1.399 1_655 S
C2323 C2328 1.399 . S
C2324 C2323 1.399 1_455 S
C2324 C2325 1.376 1_455 S
C2325 H2312 0.930 1_655 S
C2325 C2324 1.376 1_655 S
C2325 C2326 1.388 . S
C2326 H2313 0.930 . S
C2326 C2325 1.388 . S
C2326 C2327 1.390 . S
C2327 C2326 1.390 . S
C2327 C2328 1.394 . S
C2327 C2333 1.465 . S
C2328 C2323 1.399 . S
C2328 C2327 1.394 . S
C2328 C2329 1.516 . S
C2329 C2328 1.516 . S
C2329 C2330 1.502 . S
C2329 C2331 1.561 . S
C2329 C2332 1.526 . S
C2330 H2314 0.959 . S
C2330 H2315 0.959 . S
C2330 H2316 0.961 . S
C2330 C2329 1.502 . S
C2331 H2317 0.960 . S
C2331 H2318 0.961 . S
C2331 H2319 0.959 . S
C2331 C2329 1.561 . S
C2332 C2329 1.526 . S
C2332 C2333 1.396 . S
C2332 C2337 1.390 . S
C2333 C2327 1.465 . S
C2333 C2332 1.396 . S
C2333 C2334 1.399 . S
C2334 H2320 0.929 . S
C2334 C2333 1.399 . S
C2334 C2335 1.385 . S
C2335 H2321 0.931 . S
C2335 C2334 1.385 . S
C2335 C2336 1.389 . S
C2336 C2335 1.389 . S
C2336 C2337 1.387 . S
C2337 H2322 0.930 . S
C2337 C2332 1.390 . S
C2337 C2336 1.387 . S
H2338 C2350 0.930 . S
H2339 C2352 0.930 . S
H2340 C2353 0.930 . S
H2341 C2357 0.959 . S
H2342 C2357 0.959 . S
H2343 C2357 0.961 . S
H2344 C2358 0.960 . S
H2345 C2358 0.961 . S
H2346 C2358 0.959 . S
H2347 C2361 0.929 . S
H2348 C2362 0.931 . S
H2349 C2364 0.930 . S
C2350 H2338 0.930 . S
C2350 C2351 1.399 . S
C2350 C2355 1.399 . S
C2351 C2350 1.399 . S
C2351 C2352 1.376 . S
C2352 H2339 0.930 . S
C2352 C2351 1.376 . S
C2352 C2353 1.388 . S
C2353 H2340 0.930 . S
C2353 C2352 1.388 . S
C2353 C2354 1.390 . S
C2354 C2353 1.390 . S
C2354 C2355 1.394 . S
C2354 C2360 1.465 . S
C2355 C2350 1.399 . S
C2355 C2354 1.394 . S
C2355 C2356 1.516 . S
C2356 C2355 1.516 . S
C2356 C2357 1.502 1_455 S
C2356 C2358 1.561 . S
C2356 C2359 1.526 . S
C2357 H2341 0.959 . S
C2357 H2342 0.959 . S
C2357 H2343 0.961 . S
C2357 C2356 1.502 1_655 S
C2358 H2344 0.960 . S
C2358 H2345 0.961 . S
C2358 H2346 0.959 . S
C2358 C2356 1.561 . S
C2359 C2356 1.526 . S
C2359 C2360 1.396 . S
C2359 C2364 1.390 . S
C2360 C2354 1.465 . S
C2360 C2359 1.396 . S
C2360 C2361 1.399 . S
C2361 H2347 0.929 . S
C2361 C2360 1.399 . S
C2361 C2362 1.385 . S
C2362 H2348 0.931 . S
C2362 C2361 1.385 . S
C2362 C2363 1.389 . S
C2363 C2362 1.389 . S
C2363 C2364 1.387 . S
C2364 H2349 0.930 . S
C2364 C2359 1.390 . S
C2364 C2363 1.387 . S
H2365 C2377 0.930 . S
H2366 C2379 0.930 . S
H2367 C2380 0.930 . S
H2368 C2384 0.959 . S
H2369 C2384 0.959 . S
H2370 C2384 0.961 . S
H2371 C2385 0.960 . S
H2372 C2385 0.961 . S
H2373 C2385 0.959 . S
H2374 C2388 0.929 . S
H2375 C2389 0.931 . S
H2376 C2391 0.930 . S
C2377 H2365 0.930 . S
C2377 C2378 1.399 . S
C2377 C2382 1.399 . S
C2378 C2377 1.399 . S
C2378 C2379 1.376 . S
C2379 H2366 0.930 . S
C2379 C2378 1.376 . S
C2379 C2380 1.388 . S
C2380 H2367 0.930 . S
C2380 C2379 1.388 . S
C2380 C2381 1.390 . S
C2381 C2380 1.390 . S
C2381 C2382 1.394 . S
C2381 C2387 1.465 . S
C2382 C2377 1.399 . S
C2382 C2381 1.394 . S
C2382 C2383 1.516 . S
C2383 C2382 1.516 . S
C2383 C2384 1.502 . S
C2383 C2385 1.561 . S
C2383 C2386 1.526 . S
C2384 H2368 0.959 . S
C2384 H2369 0.959 . S
C2384 H2370 0.961 . S
C2384 C2383 1.502 . S
C2385 H2371 0.960 . S
C2385 H2372 0.961 . S
C2385 H2373 0.959 . S
C2385 C2383 1.561 . S
C2386 C2383 1.526 . S
C2386 C2387 1.396 . S
C2386 C2391 1.390 . S
C2387 C2381 1.465 . S
C2387 C2386 1.396 . S
C2387 C2388 1.399 . S
C2388 H2374 0.929 . S
C2388 C2387 1.399 . S
C2388 C2389 1.385 . S
C2389 H2375 0.931 . S
C2389 C2388 1.385 . S
C2389 C2390 1.389 . S
C2390 C2389 1.389 . S
C2390 C2391 1.387 . S
C2391 H2376 0.930 . S
C2391 C2386 1.390 . S
C2391 C2390 1.387 . S
H2392 C2404 0.930 . S
H2393 C2406 0.930 . S
H2394 C2407 0.930 . S
H2395 C2411 0.959 . S
H2396 C2411 0.959 . S
H2397 C2411 0.961 . S
H2398 C2412 0.960 . S
H2399 C2412 0.961 . S
H2400 C2412 0.959 . S
H2401 C2415 0.929 . S
H2402 C2416 0.931 . S
H2403 C2418 0.930 . S
C2404 H2392 0.930 . S
C2404 C2405 1.399 . S
C2404 C2409 1.399 . S
C2405 C2404 1.399 . S
C2405 C2406 1.376 . S
C2406 H2393 0.930 . S
C2406 C2405 1.376 . S
C2406 C2407 1.388 . S
C2407 H2394 0.930 . S
C2407 C2406 1.388 . S
C2407 C2408 1.390 . S
C2408 C2407 1.390 . S
C2408 C2409 1.394 . S
C2408 C2414 1.465 . S
C2409 C2404 1.399 . S
C2409 C2408 1.394 . S
C2409 C2410 1.516 . S
C2410 C2409 1.516 . S
C2410 C2411 1.502 . S
C2410 C2412 1.561 . S
C2410 C2413 1.526 . S
C2411 H2395 0.959 . S
C2411 H2396 0.959 . S
C2411 H2397 0.961 . S
C2411 C2410 1.502 . S
C2412 H2398 0.960 . S
C2412 H2399 0.961 . S
C2412 H2400 0.959 . S
C2412 C2410 1.561 . S
C2413 C2410 1.526 . S
C2413 C2414 1.396 . S
C2413 C2418 1.390 . S
C2414 C2408 1.465 . S
C2414 C2413 1.396 . S
C2414 C2415 1.399 . S
C2415 H2401 0.929 . S
C2415 C2414 1.399 . S
C2415 C2416 1.385 . S
C2416 H2402 0.931 . S
C2416 C2415 1.385 . S
C2416 C2417 1.389 . S
C2417 C2416 1.389 . S
C2417 C2418 1.387 . S
C2418 H2403 0.930 . S
C2418 C2413 1.390 . S
C2418 C2417 1.387 . S
H2419 C2431 0.930 1_554 S
H2420 C2433 0.930 . S
H2421 C2434 0.930 . S
H2422 C2438 0.959 . S
H2423 C2438 0.959 . S
H2424 C2438 0.961 . S
H2425 C2439 0.960 . S
H2426 C2439 0.961 . S
H2427 C2439 0.959 . S
H2428 C2442 0.929 . S
H2429 C2443 0.931 . S
H2430 C2445 0.930 . S
C2431 H2419 0.930 1_556 S
C2431 C2432 1.399 1_556 S
C2431 C2436 1.399 . S
C2432 C2431 1.399 1_554 S
C2432 C2433 1.376 1_554 S
C2433 H2420 0.930 . S
C2433 C2432 1.376 1_556 S
C2433 C2434 1.388 . S
C2434 H2421 0.930 . S
C2434 C2433 1.388 . S
C2434 C2435 1.390 . S
C2435 C2434 1.390 . S
C2435 C2436 1.394 . S
C2435 C2441 1.465 . S
C2436 C2431 1.399 . S
C2436 C2435 1.394 . S
C2436 C2437 1.516 . S
C2437 C2436 1.516 . S
C2437 C2438 1.502 . S
C2437 C2439 1.561 . S
C2437 C2440 1.526 . S
C2438 H2422 0.959 . S
C2438 H2423 0.959 . S
C2438 H2424 0.961 . S
C2438 C2437 1.502 . S
C2439 H2425 0.960 . S
C2439 H2426 0.961 . S
C2439 H2427 0.959 . S
C2439 C2437 1.561 . S
C2440 C2437 1.526 . S
C2440 C2441 1.396 . S
C2440 C2445 1.390 . S
C2441 C2435 1.465 . S
C2441 C2440 1.396 . S
C2441 C2442 1.399 . S
C2442 H2428 0.929 . S
C2442 C2441 1.399 . S
C2442 C2443 1.385 . S
C2443 H2429 0.931 . S
C2443 C2442 1.385 . S
C2443 C2444 1.389 . S
C2444 C2443 1.389 . S
C2444 C2445 1.387 . S
C2445 H2430 0.930 . S
C2445 C2440 1.390 . S
C2445 C2444 1.387 . S
H2446 C2458 0.930 . S
H2447 C2460 0.930 . S
H2448 C2461 0.930 . S
H2449 C2465 0.959 . S
H2450 C2465 0.959 . S
H2451 C2465 0.961 . S
H2452 C2466 0.960 . S
H2453 C2466 0.961 . S
H2454 C2466 0.959 . S
H2455 C2469 0.927 1_455 S
H2456 C2470 0.931 . S
H2457 C2472 0.930 . S
C2458 H2446 0.930 . S
C2458 C2459 1.399 . S
C2458 C2463 1.399 . S
C2459 C2458 1.399 . S
C2459 C2460 1.376 . S
C2460 H2447 0.930 . S
C2460 C2459 1.376 . S
C2460 C2461 1.388 . S
C2461 H2448 0.930 . S
C2461 C2460 1.388 . S
C2461 C2462 1.390 . S
C2462 C2461 1.390 . S
C2462 C2463 1.394 . S
C2462 C2468 1.465 . S
C2463 C2458 1.399 . S
C2463 C2462 1.394 . S
C2463 C2464 1.516 . S
C2464 C2463 1.516 . S
C2464 C2465 1.502 . S
C2464 C2466 1.561 . S
C2464 C2467 1.526 . S
C2465 H2449 0.959 . S
C2465 H2450 0.959 . S
C2465 H2451 0.961 . S
C2465 C2464 1.502 . S
C2466 H2452 0.960 . S
C2466 H2453 0.961 . S
C2466 H2454 0.959 . S
C2466 C2464 1.561 . S
C2467 C2464 1.526 . S
C2467 C2468 1.396 . S
C2467 C2472 1.390 . S
C2468 C2462 1.465 . S
C2468 C2467 1.396 . S
C2468 C2469 1.405 . S
C2469 H2455 0.927 1_655 S
C2469 C2468 1.405 . S
C2469 C2470 1.382 1_655 S
C2470 H2456 0.931 . S
C2470 C2469 1.382 1_455 S
C2470 C2471 1.389 . S
C2471 C2470 1.389 . S
C2471 C2472 1.387 1_455 S
C2472 H2457 0.930 . S
C2472 C2467 1.390 . S
C2472 C2471 1.387 1_655 S
H2473 C2485 0.930 . S
H2474 C2487 0.930 . S
H2475 C2488 0.930 . S
H2476 C2492 0.959 . S
H2477 C2492 0.959 . S
H2478 C2492 0.961 . S
H2479 C2493 0.960 . S
H2480 C2493 0.961 . S
H2481 C2493 0.959 . S
H2482 C2496 0.929 . S
H2483 C2497 0.931 . S
H2484 C2499 0.930 . S
C2485 H2473 0.930 . S
C2485 C2486 1.399 . S
C2485 C2490 1.399 . S
C2486 C2485 1.399 . S
C2486 C2487 1.376 . S
C2487 H2474 0.930 . S
C2487 C2486 1.376 . S
C2487 C2488 1.388 . S
C2488 H2475 0.930 . S
C2488 C2487 1.388 . S
C2488 C2489 1.390 . S
C2489 C2488 1.390 . S
C2489 C2490 1.394 . S
C2489 C2495 1.465 . S
C2490 C2485 1.399 . S
C2490 C2489 1.394 . S
C2490 C2491 1.516 . S
C2491 C2490 1.516 . S
C2491 C2492 1.502 . S
C2491 C2493 1.561 . S
C2491 C2494 1.526 . S
C2492 H2476 0.959 . S
C2492 H2477 0.959 . S
C2492 H2478 0.961 . S
C2492 C2491 1.502 . S
C2493 H2479 0.960 . S
C2493 H2480 0.961 . S
C2493 H2481 0.959 . S
C2493 C2491 1.561 . S
C2494 C2491 1.526 . S
C2494 C2495 1.396 . S
C2494 C2499 1.390 . S
C2495 C2489 1.465 . S
C2495 C2494 1.396 . S
C2495 C2496 1.399 . S
C2496 H2482 0.929 . S
C2496 C2495 1.399 . S
C2496 C2497 1.385 . S
C2497 H2483 0.931 . S
C2497 C2496 1.385 . S
C2497 C2498 1.389 . S
C2498 C2497 1.389 . S
C2498 C2499 1.387 . S
C2499 H2484 0.930 . S
C2499 C2494 1.390 . S
C2499 C2498 1.387 . S
H2500 C2512 0.930 . S
H2501 C2514 0.930 . S
H2502 C2515 0.930 . S
H2503 C2519 0.959 . S
H2504 C2519 0.959 . S
H2505 C2519 0.961 . S
H2506 C2520 0.960 . S
H2507 C2520 0.961 . S
H2508 C2520 0.959 . S
H2509 C2523 0.929 . S
H2510 C2524 0.931 . S
H2511 C2526 0.930 . S
C2512 H2500 0.930 . S
C2512 C2513 1.399 . S
C2512 C2517 1.399 . S
C2513 C2512 1.399 . S
C2513 C2514 1.376 . S
C2514 H2501 0.930 . S
C2514 C2513 1.376 . S
C2514 C2515 1.388 . S
C2515 H2502 0.930 . S
C2515 C2514 1.388 . S
C2515 C2516 1.390 . S
C2516 C2515 1.390 . S
C2516 C2517 1.394 . S
C2516 C2522 1.465 . S
C2517 C2512 1.399 . S
C2517 C2516 1.394 . S
C2517 C2518 1.516 . S
C2518 C2517 1.516 . S
C2518 C2519 1.502 . S
C2518 C2520 1.561 . S
C2518 C2521 1.526 . S
C2519 H2503 0.959 . S
C2519 H2504 0.959 . S
C2519 H2505 0.961 . S
C2519 C2518 1.502 . S
C2520 H2506 0.960 . S
C2520 H2507 0.961 . S
C2520 H2508 0.959 . S
C2520 C2518 1.561 . S
C2521 C2518 1.526 . S
C2521 C2522 1.396 . S
C2521 C2526 1.390 . S
C2522 C2516 1.465 . S
C2522 C2521 1.396 . S
C2522 C2523 1.399 . S
C2523 H2509 0.929 . S
C2523 C2522 1.399 . S
C2523 C2524 1.385 . S
C2524 H2510 0.931 . S
C2524 C2523 1.385 . S
C2524 C2525 1.389 . S
C2525 C2524 1.389 . S
C2525 C2526 1.387 . S
C2526 H2511 0.930 . S
C2526 C2521 1.390 . S
C2526 C2525 1.387 . S
H2527 C2539 0.930 . S
H2528 C2541 0.930 . S
H2529 C2542 0.930 . S
H2530 C2546 0.959 . S
H2531 C2546 0.959 . S
H2532 C2546 0.961 . S
H2533 C2547 0.960 . S
H2534 C2547 0.961 . S
H2535 C2547 0.959 . S
H2536 C2550 0.929 . S
H2537 C2551 0.931 . S
H2538 C2553 0.930 . S
C2539 H2527 0.930 . S
C2539 C2540 1.399 . S
C2539 C2544 1.399 . S
C2540 C2539 1.399 . S
C2540 C2541 1.376 . S
C2541 H2528 0.930 . S
C2541 C2540 1.376 . S
C2541 C2542 1.388 . S
C2542 H2529 0.930 . S
C2542 C2541 1.388 . S
C2542 C2543 1.390 . S
C2543 C2542 1.390 . S
C2543 C2544 1.394 . S
C2543 C2549 1.465 . S
C2544 C2539 1.399 . S
C2544 C2543 1.394 . S
C2544 C2545 1.516 . S
C2545 C2544 1.516 . S
C2545 C2546 1.502 . S
C2545 C2547 1.561 . S
C2545 C2548 1.526 . S
C2546 H2530 0.959 . S
C2546 H2531 0.959 . S
C2546 H2532 0.961 . S
C2546 C2545 1.502 . S
C2547 H2533 0.960 . S
C2547 H2534 0.961 . S
C2547 H2535 0.959 . S
C2547 C2545 1.561 . S
C2548 C2545 1.526 . S
C2548 C2549 1.396 . S
C2548 C2553 1.390 . S
C2549 C2543 1.465 . S
C2549 C2548 1.396 . S
C2549 C2550 1.399 . S
C2550 H2536 0.929 . S
C2550 C2549 1.399 . S
C2550 C2551 1.385 . S
C2551 H2537 0.931 . S
C2551 C2550 1.385 . S
C2551 C2552 1.389 . S
C2552 C2551 1.389 . S
C2552 C2553 1.387 . S
C2553 H2538 0.930 . S
C2553 C2548 1.390 . S
C2553 C2552 1.387 . S
H2554 C2566 0.930 . S
H2555 C2568 0.930 . S
H2556 C2569 0.930 . S
H2557 C2573 0.959 . S
H2558 C2573 0.959 . S
H2559 C2573 0.961 . S
H2560 C2574 0.960 . S
H2561 C2574 0.961 1_455 S
H2562 C2574 0.959 . S
H2563 C2577 0.929 . S
H2564 C2578 0.931 . S
H2565 C2580 0.930 . S
C2566 H2554 0.930 . S
C2566 C2567 1.399 . S
C2566 C2571 1.399 . S
C2567 C2566 1.399 . S
C2567 C2568 1.376 . S
C2568 H2555 0.930 . S
C2568 C2567 1.376 . S
C2568 C2569 1.388 . S
C2569 H2556 0.930 . S
C2569 C2568 1.388 . S
C2569 C2570 1.390 . S
C2570 C2569 1.390 . S
C2570 C2571 1.394 . S
C2570 C2576 1.465 . S
C2571 C2566 1.399 . S
C2571 C2570 1.394 . S
C2571 C2572 1.516 . S
C2572 C2571 1.516 . S
C2572 C2573 1.502 . S
C2572 C2574 1.561 . S
C2572 C2575 1.526 . S
C2573 H2557 0.959 . S
C2573 H2558 0.959 . S
C2573 H2559 0.961 . S
C2573 C2572 1.502 . S
C2574 H2560 0.960 . S
C2574 H2561 0.961 1_655 S
C2574 H2562 0.959 . S
C2574 C2572 1.561 . S
C2575 C2572 1.526 . S
C2575 C2576 1.396 . S
C2575 C2580 1.390 . S
C2576 C2570 1.465 . S
C2576 C2575 1.396 . S
C2576 C2577 1.399 . S
C2577 H2563 0.929 . S
C2577 C2576 1.399 . S
C2577 C2578 1.385 . S
C2578 H2564 0.931 . S
C2578 C2577 1.385 . S
C2578 C2579 1.389 . S
C2579 C2578 1.389 . S
C2579 C2580 1.387 . S
C2580 H2565 0.930 . S
C2580 C2575 1.390 . S
C2580 C2579 1.387 . S
H2581 C2593 0.930 . S
H2582 C2595 0.930 . S
H2583 C2596 0.930 . S
H2584 C2600 0.959 . S
H2585 C2600 0.959 . S
H2586 C2600 0.961 . S
H2587 C2601 0.960 . S
H2588 C2601 0.961 . S
H2589 C2601 0.959 . S
H2590 C2604 0.929 . S
H2591 C2605 0.931 . S
H2592 C2607 0.930 . S
C2593 H2581 0.930 . S
C2593 C2594 1.399 . S
C2593 C2598 1.399 . S
C2594 C2593 1.399 . S
C2594 C2595 1.376 . S
C2595 H2582 0.930 . S
C2595 C2594 1.376 . S
C2595 C2596 1.388 . S
C2596 H2583 0.930 . S
C2596 C2595 1.388 . S
C2596 C2597 1.390 . S
C2597 C2596 1.390 . S
C2597 C2598 1.394 . S
C2597 C2603 1.465 . S
C2598 C2593 1.399 . S
C2598 C2597 1.394 . S
C2598 C2599 1.516 . S
C2599 C2598 1.516 . S
C2599 C2600 1.502 . S
C2599 C2601 1.561 . S
C2599 C2602 1.526 . S
C2600 H2584 0.959 . S
C2600 H2585 0.959 . S
C2600 H2586 0.961 . S
C2600 C2599 1.502 . S
C2601 H2587 0.960 . S
C2601 H2588 0.961 . S
C2601 H2589 0.959 . S
C2601 C2599 1.561 . S
C2602 C2599 1.526 . S
C2602 C2603 1.396 . S
C2602 C2607 1.390 . S
C2603 C2597 1.465 . S
C2603 C2602 1.396 . S
C2603 C2604 1.399 . S
C2604 H2590 0.929 . S
C2604 C2603 1.399 . S
C2604 C2605 1.385 . S
C2605 H2591 0.931 . S
C2605 C2604 1.385 . S
C2605 C2606 1.389 . S
C2606 C2605 1.389 . S
C2606 C2607 1.387 . S
C2607 H2592 0.930 . S
C2607 C2602 1.390 . S
C2607 C2606 1.387 . S
H2608 C2620 0.930 . S
H2609 C2622 0.930 . S
H2610 C2623 0.930 . S
H2611 C2627 0.959 . S
H2612 C2627 0.959 . S
H2613 C2627 0.961 . S
H2614 C2628 0.960 . S
H2615 C2628 0.961 . S
H2616 C2628 0.959 . S
H2617 C2631 0.929 . S
H2618 C2632 0.931 . S
H2619 C2634 0.930 . S
C2620 H2608 0.930 . S
C2620 C2621 1.399 . S
C2620 C2625 1.399 . S
C2621 C2620 1.399 . S
C2621 C2622 1.376 . S
C2622 H2609 0.930 . S
C2622 C2621 1.376 . S
C2622 C2623 1.388 . S
C2623 H2610 0.930 . S
C2623 C2622 1.388 . S
C2623 C2624 1.390 . S
C2624 C2623 1.390 . S
C2624 C2625 1.394 . S
C2624 C2630 1.465 . S
C2625 C2620 1.399 . S
C2625 C2624 1.394 . S
C2625 C2626 1.516 . S
C2626 C2625 1.516 . S
C2626 C2627 1.502 . S
C2626 C2628 1.561 . S
C2626 C2629 1.526 . S
C2627 H2611 0.959 . S
C2627 H2612 0.959 . S
C2627 H2613 0.961 . S
C2627 C2626 1.502 . S
C2628 H2614 0.960 . S
C2628 H2615 0.961 . S
C2628 H2616 0.959 . S
C2628 C2626 1.561 . S
C2629 C2626 1.526 . S
C2629 C2630 1.396 . S
C2629 C2634 1.390 . S
C2630 C2624 1.465 . S
C2630 C2629 1.396 . S
C2630 C2631 1.399 . S
C2631 H2617 0.929 . S
C2631 C2630 1.399 . S
C2631 C2632 1.385 . S
C2632 H2618 0.931 . S
C2632 C2631 1.385 . S
C2632 C2633 1.389 . S
C2633 C2632 1.389 . S
C2633 C2634 1.387 . S
C2634 H2619 0.930 . S
C2634 C2629 1.390 . S
C2634 C2633 1.387 . S
H2635 C2647 0.930 . S
H2636 C2649 0.930 . S
H2637 C2650 0.930 . S
H2638 C2654 0.959 . S
H2639 C2654 0.959 . S
H2640 C2654 0.961 . S
H2641 C2655 0.960 . S
H2642 C2655 0.961 . S
H2643 C2655 0.959 1_545 S
H2644 C2658 0.929 . S
H2645 C2659 0.933 . S
H2646 C2661 0.930 . S
C2647 H2635 0.930 . S
C2647 C2648 1.399 . S
C2647 C2652 1.399 . S
C2648 C2647 1.399 . S
C2648 C2649 1.376 . S
C2649 H2636 0.930 . S
C2649 C2648 1.376 . S
C2649 C2650 1.388 . S
C2650 H2637 0.930 . S
C2650 C2649 1.388 . S
C2650 C2651 1.390 . S
C2651 C2650 1.390 . S
C2651 C2652 1.394 . S
C2651 C2657 1.465 . S
C2652 C2647 1.399 . S
C2652 C2651 1.394 . S
C2652 C2653 1.516 . S
C2653 C2652 1.516 . S
C2653 C2654 1.502 . S
C2653 C2655 1.561 . S
C2653 C2656 1.526 . S
C2654 H2638 0.959 . S
C2654 H2639 0.959 . S
C2654 H2640 0.961 . S
C2654 C2653 1.502 . S
C2655 H2641 0.960 . S
C2655 H2642 0.961 . S
C2655 H2643 0.959 1_565 S
C2655 C2653 1.561 . S
C2656 C2653 1.526 . S
C2656 C2657 1.396 . S
C2656 C2661 1.390 . S
C2657 C2651 1.465 . S
C2657 C2656 1.396 . S
C2657 C2658 1.399 . S
C2658 H2644 0.929 . S
C2658 C2657 1.399 . S
C2658 C2659 1.385 . S
C2659 H2645 0.933 . S
C2659 C2658 1.385 . S
C2659 C2660 1.389 . S
C2660 C2659 1.389 . S
C2660 C2661 1.387 . S
C2661 H2646 0.930 . S
C2661 C2656 1.390 . S
C2661 C2660 1.387 . S
H2662 C2674 0.930 . S
H2663 C2676 0.930 . S
H2664 C2677 0.930 . S
H2665 C2681 0.959 . S
H2666 C2681 0.959 . S
H2667 C2681 0.961 . S
H2668 C2682 0.960 . S
H2669 C2682 0.961 . S
H2670 C2682 0.959 . S
H2671 C2685 0.929 . S
H2672 C2686 0.931 . S
H2673 C2688 0.930 . S
C2674 H2662 0.930 . S
C2674 C2675 1.399 . S
C2674 C2679 1.399 . S
C2675 C2674 1.399 . S
C2675 C2676 1.376 . S
C2676 H2663 0.930 . S
C2676 C2675 1.376 . S
C2676 C2677 1.388 . S
C2677 H2664 0.930 . S
C2677 C2676 1.388 . S
C2677 C2678 1.390 . S
C2678 C2677 1.390 . S
C2678 C2679 1.394 . S
C2678 C2684 1.465 . S
C2679 C2674 1.399 . S
C2679 C2678 1.394 . S
C2679 C2680 1.516 . S
C2680 C2679 1.516 . S
C2680 C2681 1.502 . S
C2680 C2682 1.561 . S
C2680 C2683 1.526 . S
C2681 H2665 0.959 . S
C2681 H2666 0.959 . S
C2681 H2667 0.961 . S
C2681 C2680 1.502 . S
C2682 H2668 0.960 . S
C2682 H2669 0.961 . S
C2682 H2670 0.959 . S
C2682 C2680 1.561 . S
C2683 C2680 1.526 . S
C2683 C2684 1.396 . S
C2683 C2688 1.390 . S
C2684 C2678 1.465 . S
C2684 C2683 1.396 . S
C2684 C2685 1.399 . S
C2685 H2671 0.929 . S
C2685 C2684 1.399 . S
C2685 C2686 1.385 . S
C2686 H2672 0.931 . S
C2686 C2685 1.385 . S
C2686 C2687 1.389 . S
C2687 C2686 1.389 . S
C2687 C2688 1.387 . S
C2688 H2673 0.930 . S
C2688 C2683 1.390 . S
C2688 C2687 1.387 . S
H2689 C2701 0.930 . S
H2690 C2703 0.930 . S
H2691 C2704 0.930 . S
H2692 C2708 1.003 . S
H2693 C2708 0.933 1_556 S
H2694 C2708 0.937 1_556 S
H2695 C2709 0.960 . S
H2696 C2709 0.961 . S
H2697 C2709 0.959 . S
H2698 C2712 0.929 . S
H2699 C2713 0.931 . S
H2700 C2715 0.930 . S
C2701 H2689 0.930 . S
C2701 C2702 1.399 . S
C2701 C2706 1.399 . S
C2702 C2701 1.399 . S
C2702 C2703 1.376 . S
C2703 H2690 0.930 . S
C2703 C2702 1.376 . S
C2703 C2704 1.388 . S
C2704 H2691 0.930 . S
C2704 C2703 1.388 . S
C2704 C2705 1.390 . S
C2705 C2704 1.390 . S
C2705 C2706 1.394 . S
C2705 C2711 1.465 . S
C2706 C2701 1.399 . S
C2706 C2705 1.394 . S
C2706 C2707 1.516 . S
C2707 C2706 1.516 . S
C2707 C2708 1.513 . S
C2707 C2709 1.561 1_554 S
C2707 C2710 1.526 . S
C2708 H2692 1.003 . S
C2708 H2693 0.933 1_554 S
C2708 H2694 0.937 1_554 S
C2708 C2707 1.513 . S
C2709 H2695 0.960 . S
C2709 H2696 0.961 . S
C2709 H2697 0.959 . S
C2709 C2707 1.561 1_556 S
C2710 C2707 1.526 . S
C2710 C2711 1.396 . S
C2710 C2715 1.390 . S
C2711 C2705 1.465 . S
C2711 C2710 1.396 . S
C2711 C2712 1.399 . S
C2712 H2698 0.929 . S
C2712 C2711 1.399 . S
C2712 C2713 1.385 . S
C2713 H2699 0.931 . S
C2713 C2712 1.385 . S
C2713 C2714 1.389 . S
C2714 C2713 1.389 . S
C2714 C2715 1.387 . S
C2715 H2700 0.930 . S
C2715 C2710 1.390 . S
C2715 C2714 1.387 . S
H2716 C2728 0.930 . S
H2717 C2730 0.930 . S
H2718 C2731 0.930 . S
H2719 C2735 0.959 . S
H2720 C2735 0.959 . S
H2721 C2735 0.961 . S
H2722 C2736 0.960 . S
H2723 C2736 0.961 . S
H2724 C2736 0.959 . S
H2725 C2739 0.929 . S
H2726 C2740 0.931 . S
H2727 C2742 0.930 . S
C2728 H2716 0.930 . S
C2728 C2729 1.399 . S
C2728 C2733 1.399 . S
C2729 C2728 1.399 . S
C2729 C2730 1.376 . S
C2730 H2717 0.930 . S
C2730 C2729 1.376 . S
C2730 C2731 1.388 . S
C2731 H2718 0.930 . S
C2731 C2730 1.388 . S
C2731 C2732 1.390 . S
C2732 C2731 1.390 . S
C2732 C2733 1.394 . S
C2732 C2738 1.465 . S
C2733 C2728 1.399 . S
C2733 C2732 1.394 . S
C2733 C2734 1.516 . S
C2734 C2733 1.516 . S
C2734 C2735 1.502 . S
C2734 C2736 1.561 . S
C2734 C2737 1.526 . S
C2735 H2719 0.959 . S
C2735 H2720 0.959 . S
C2735 H2721 0.961 . S
C2735 C2734 1.502 . S
C2736 H2722 0.960 . S
C2736 H2723 0.961 . S
C2736 H2724 0.959 . S
C2736 C2734 1.561 . S
C2737 C2734 1.526 . S
C2737 C2738 1.396 . S
C2737 C2742 1.390 . S
C2738 C2732 1.465 . S
C2738 C2737 1.396 . S
C2738 C2739 1.399 . S
C2739 H2725 0.929 . S
C2739 C2738 1.399 . S
C2739 C2740 1.385 . S
C2740 H2726 0.931 . S
C2740 C2739 1.385 . S
C2740 C2741 1.389 . S
C2741 C2740 1.389 . S
C2741 C2742 1.387 . S
C2742 H2727 0.930 . S
C2742 C2737 1.390 . S
C2742 C2741 1.387 . S
H2743 C2755 0.930 . S
H2744 C2757 0.930 . S
H2745 C2758 0.930 . S
H2746 C2762 0.959 1_556 S
H2747 C2762 0.959 . S
H2748 C2762 0.961 . S
H2749 C2763 0.960 . S
H2750 C2763 0.961 . S
H2751 C2763 0.959 . S
H2752 C2766 0.929 . S
H2753 C2767 0.931 . S
H2754 C2769 0.930 . S
C2755 H2743 0.930 . S
C2755 C2756 1.399 . S
C2755 C2760 1.399 . S
C2756 C2755 1.399 . S
C2756 C2757 1.376 . S
C2757 H2744 0.930 . S
C2757 C2756 1.376 . S
C2757 C2758 1.388 . S
C2758 H2745 0.930 . S
C2758 C2757 1.388 . S
C2758 C2759 1.390 . S
C2759 C2758 1.390 . S
C2759 C2760 1.394 . S
C2759 C2765 1.465 . S
C2760 C2755 1.399 . S
C2760 C2759 1.394 . S
C2760 C2761 1.516 . S
C2761 C2760 1.516 . S
C2761 C2762 1.502 . S
C2761 C2763 1.561 . S
C2761 C2764 1.526 . S
C2762 H2746 0.959 1_554 S
C2762 H2747 0.959 . S
C2762 H2748 0.961 . S
C2762 C2761 1.502 . S
C2763 H2749 0.960 . S
C2763 H2750 0.961 . S
C2763 H2751 0.959 . S
C2763 C2761 1.561 . S
C2764 C2761 1.526 . S
C2764 C2765 1.396 . S
C2764 C2769 1.390 . S
C2765 C2759 1.465 . S
C2765 C2764 1.396 . S
C2765 C2766 1.399 . S
C2766 H2752 0.929 . S
C2766 C2765 1.399 . S
C2766 C2767 1.385 . S
C2767 H2753 0.931 . S
C2767 C2766 1.385 . S
C2767 C2768 1.389 . S
C2768 C2767 1.389 . S
C2768 C2769 1.387 . S
C2769 H2754 0.930 . S
C2769 C2764 1.390 . S
C2769 C2768 1.387 . S
H2770 C2782 0.930 . S
H2771 C2784 0.930 . S
H2772 C2785 0.930 . S
H2773 C2789 0.959 . S
H2774 C2789 0.959 . S
H2775 C2789 0.961 . S
H2776 C2790 0.960 . S
H2777 C2790 0.961 . S
H2778 C2790 0.959 . S
H2779 C2793 0.929 . S
H2780 C2794 0.931 . S
H2781 C2796 0.930 . S
C2782 H2770 0.930 . S
C2782 C2783 1.399 . S
C2782 C2787 1.399 . S
C2783 C2782 1.399 . S
C2783 C2784 1.376 . S
C2784 H2771 0.930 . S
C2784 C2783 1.376 . S
C2784 C2785 1.388 . S
C2785 H2772 0.930 . S
C2785 C2784 1.388 . S
C2785 C2786 1.390 . S
C2786 C2785 1.390 . S
C2786 C2787 1.394 . S
C2786 C2792 1.465 . S
C2787 C2782 1.399 . S
C2787 C2786 1.394 . S
C2787 C2788 1.516 . S
C2788 C2787 1.516 . S
C2788 C2789 1.502 . S
C2788 C2790 1.561 . S
C2788 C2791 1.526 . S
C2789 H2773 0.959 . S
C2789 H2774 0.959 . S
C2789 H2775 0.961 . S
C2789 C2788 1.502 . S
C2790 H2776 0.960 . S
C2790 H2777 0.961 . S
C2790 H2778 0.959 . S
C2790 C2788 1.561 . S
C2791 C2788 1.526 . S
C2791 C2792 1.396 . S
C2791 C2796 1.390 . S
C2792 C2786 1.465 . S
C2792 C2791 1.396 . S
C2792 C2793 1.399 . S
C2793 H2779 0.929 . S
C2793 C2792 1.399 . S
C2793 C2794 1.385 . S
C2794 H2780 0.931 . S
C2794 C2793 1.385 . S
C2794 C2795 1.389 . S
C2795 C2794 1.389 . S
C2795 C2796 1.387 . S
C2796 H2781 0.930 . S
C2796 C2791 1.390 . S
C2796 C2795 1.387 . S
H2797 C2809 0.930 . S
H2798 C2811 0.930 . S
H2799 C2812 0.930 . S
H2800 C2816 0.959 . S
H2801 C2816 0.959 . S
H2802 C2816 0.961 . S
H2803 C2817 0.960 . S
H2804 C2817 0.961 . S
H2805 C2817 0.959 . S
H2806 C2820 0.929 . S
H2807 C2821 0.931 . S
H2808 C2823 0.930 . S
C2809 H2797 0.930 . S
C2809 C2810 1.399 . S
C2809 C2814 1.399 . S
C2810 C2809 1.399 . S
C2810 C2811 1.376 . S
C2811 H2798 0.930 . S
C2811 C2810 1.376 . S
C2811 C2812 1.388 . S
C2812 H2799 0.930 . S
C2812 C2811 1.388 . S
C2812 C2813 1.390 . S
C2813 C2812 1.390 . S
C2813 C2814 1.394 . S
C2813 C2819 1.465 . S
C2814 C2809 1.399 . S
C2814 C2813 1.394 . S
C2814 C2815 1.516 . S
C2815 C2814 1.516 . S
C2815 C2816 1.502 . S
C2815 C2817 1.561 . S
C2815 C2818 1.526 . S
C2816 H2800 0.959 . S
C2816 H2801 0.959 . S
C2816 H2802 0.961 . S
C2816 C2815 1.502 . S
C2817 H2803 0.960 . S
C2817 H2804 0.961 . S
C2817 H2805 0.959 . S
C2817 C2815 1.561 . S
C2818 C2815 1.526 . S
C2818 C2819 1.396 . S
C2818 C2823 1.390 . S
C2819 C2813 1.465 . S
C2819 C2818 1.396 . S
C2819 C2820 1.399 . S
C2820 H2806 0.929 . S
C2820 C2819 1.399 . S
C2820 C2821 1.385 . S
C2821 H2807 0.931 . S
C2821 C2820 1.385 . S
C2821 C2822 1.389 . S
C2822 C2821 1.389 . S
C2822 C2823 1.387 . S
C2823 H2808 0.930 . S
C2823 C2818 1.390 . S
C2823 C2822 1.387 . S
H2824 C2836 0.930 . S
H2825 C2838 0.930 . S
H2826 C2839 0.930 . S
H2827 C2843 0.959 . S
H2828 C2843 0.959 . S
H2829 C2843 0.961 . S
H2830 C2844 0.960 . S
H2831 C2844 0.961 . S
H2832 C2844 0.959 . S
H2833 C2847 0.929 . S
H2834 C2848 0.931 . S
H2835 C2850 0.930 . S
C2836 H2824 0.930 . S
C2836 C2837 1.399 . S
C2836 C2841 1.399 . S
C2837 C2836 1.399 . S
C2837 C2838 1.376 . S
C2838 H2825 0.930 . S
C2838 C2837 1.376 . S
C2838 C2839 1.388 . S
C2839 H2826 0.930 . S
C2839 C2838 1.388 . S
C2839 C2840 1.390 . S
C2840 C2839 1.390 . S
C2840 C2841 1.394 . S
C2840 C2846 1.465 . S
C2841 C2836 1.399 . S
C2841 C2840 1.394 . S
C2841 C2842 1.516 . S
C2842 C2841 1.516 . S
C2842 C2843 1.502 . S
C2842 C2844 1.561 . S
C2842 C2845 1.526 . S
C2843 H2827 0.959 . S
C2843 H2828 0.959 . S
C2843 H2829 0.961 . S
C2843 C2842 1.502 . S
C2844 H2830 0.960 . S
C2844 H2831 0.961 . S
C2844 H2832 0.959 . S
C2844 C2842 1.561 . S
C2845 C2842 1.526 . S
C2845 C2846 1.396 . S
C2845 C2850 1.390 . S
C2846 C2840 1.465 . S
C2846 C2845 1.396 . S
C2846 C2847 1.399 . S
C2847 H2833 0.929 . S
C2847 C2846 1.399 . S
C2847 C2848 1.385 . S
C2848 H2834 0.931 . S
C2848 C2847 1.385 . S
C2848 C2849 1.389 . S
C2849 C2848 1.389 . S
C2849 C2850 1.387 . S
C2850 H2835 0.930 . S
C2850 C2845 1.390 . S
C2850 C2849 1.387 . S
H2851 C2863 0.930 . S
H2852 C2865 0.930 . S
H2853 C2866 0.930 . S
H2854 C2870 0.959 . S
H2855 C2870 0.959 . S
H2856 C2870 0.961 . S
H2857 C2871 0.960 . S
H2858 C2871 0.961 . S
H2859 C2871 0.959 . S
H2860 C2874 0.929 . S
H2861 C2875 0.931 . S
H2862 C2877 0.930 . S
C2863 H2851 0.930 . S
C2863 C2864 1.399 . S
C2863 C2868 1.399 . S
C2864 C2863 1.399 . S
C2864 C2865 1.376 . S
C2865 H2852 0.930 . S
C2865 C2864 1.376 . S
C2865 C2866 1.388 . S
C2866 H2853 0.930 . S
C2866 C2865 1.388 . S
C2866 C2867 1.390 . S
C2867 C2866 1.390 . S
C2867 C2868 1.394 . S
C2867 C2873 1.465 . S
C2868 C2863 1.399 . S
C2868 C2867 1.394 . S
C2868 C2869 1.516 . S
C2869 C2868 1.516 . S
C2869 C2870 1.502 . S
C2869 C2871 1.561 . S
C2869 C2872 1.526 . S
C2870 H2854 0.959 . S
C2870 H2855 0.959 . S
C2870 H2856 0.961 . S
C2870 C2869 1.502 . S
C2871 H2857 0.960 . S
C2871 H2858 0.961 . S
C2871 H2859 0.959 . S
C2871 C2869 1.561 . S
C2872 C2869 1.526 . S
C2872 C2873 1.396 . S
C2872 C2877 1.390 . S
C2873 C2867 1.465 . S
C2873 C2872 1.396 . S
C2873 C2874 1.399 . S
C2874 H2860 0.929 . S
C2874 C2873 1.399 . S
C2874 C2875 1.385 . S
C2875 H2861 0.931 . S
C2875 C2874 1.385 . S
C2875 C2876 1.389 . S
C2876 C2875 1.389 . S
C2876 C2877 1.387 . S
C2877 H2862 0.930 . S
C2877 C2872 1.390 . S
C2877 C2876 1.387 . S
H2878 C2890 0.930 . S
H2879 C2892 0.930 . S
H2880 C2893 0.930 . S
H2881 C2897 0.959 . S
H2882 C2897 0.959 . S
H2883 C2897 0.961 . S
H2884 C2898 0.960 . S
H2885 C2898 0.961 . S
H2886 C2898 0.959 . S
H2887 C2901 0.916 1_554 S
H2888 C2902 0.931 1_554 S
H2889 C2904 0.930 . S
C2890 H2878 0.930 . S
C2890 C2891 1.399 . S
C2890 C2895 1.399 . S
C2891 C2890 1.399 . S
C2891 C2892 1.377 1_655 S
C2892 H2879 0.930 . S
C2892 C2891 1.377 1_455 S
C2892 C2893 1.388 . S
C2893 H2880 0.930 . S
C2893 C2892 1.388 . S
C2893 C2894 1.390 . S
C2894 C2893 1.390 . S
C2894 C2895 1.394 1_455 S
C2894 C2900 1.465 . S
C2895 C2890 1.399 . S
C2895 C2894 1.394 1_655 S
C2895 C2896 1.516 . S
C2896 C2895 1.516 . S
C2896 C2897 1.502 . S
C2896 C2898 1.561 1_655 S
C2896 C2899 1.526 . S
C2897 H2881 0.959 . S
C2897 H2882 0.959 . S
C2897 H2883 0.961 . S
C2897 C2896 1.502 . S
C2898 H2884 0.960 . S
C2898 H2885 0.961 . S
C2898 H2886 0.959 . S
C2898 C2896 1.561 1_455 S
C2899 C2896 1.526 . S
C2899 C2900 1.396 1_655 S
C2899 C2904 1.390 . S
C2900 C2894 1.465 . S
C2900 C2899 1.396 1_455 S
C2900 C2901 1.399 . S
C2901 H2887 0.916 1_556 S
C2901 C2900 1.399 . S
C2901 C2902 1.385 . S
C2902 H2888 0.931 1_556 S
C2902 C2901 1.385 . S
C2902 C2903 1.389 1_455 S
C2903 C2902 1.389 1_655 S
C2903 C2904 1.387 . S
C2904 H2889 0.930 . S
C2904 C2899 1.390 . S
C2904 C2903 1.387 . S
H2905 C2917 0.930 . S
H2906 C2919 0.930 . S
H2907 C2920 0.930 . S
H2908 C2924 0.959 . S
H2909 C2924 0.959 . S
H2910 C2924 0.961 . S
H2911 C2925 0.960 . S
H2912 C2925 0.961 . S
H2913 C2925 0.959 . S
H2914 C2928 0.929 . S
H2915 C2929 0.931 . S
H2916 C2931 0.930 . S
C2917 H2905 0.930 . S
C2917 C2918 1.399 . S
C2917 C2922 1.399 . S
C2918 C2917 1.399 . S
C2918 C2919 1.376 . S
C2919 H2906 0.930 . S
C2919 C2918 1.376 . S
C2919 C2920 1.388 . S
C2920 H2907 0.930 . S
C2920 C2919 1.388 . S
C2920 C2921 1.390 . S
C2921 C2920 1.390 . S
C2921 C2922 1.394 . S
C2921 C2927 1.465 . S
C2922 C2917 1.399 . S
C2922 C2921 1.394 . S
C2922 C2923 1.516 . S
C2923 C2922 1.516 . S
C2923 C2924 1.502 . S
C2923 C2925 1.561 . S
C2923 C2926 1.526 . S
C2924 H2908 0.959 . S
C2924 H2909 0.959 . S
C2924 H2910 0.961 . S
C2924 C2923 1.502 . S
C2925 H2911 0.960 . S
C2925 H2912 0.961 . S
C2925 H2913 0.959 . S
C2925 C2923 1.561 . S
C2926 C2923 1.526 . S
C2926 C2927 1.396 . S
C2926 C2931 1.390 . S
C2927 C2921 1.465 . S
C2927 C2926 1.396 . S
C2927 C2928 1.399 . S
C2928 H2914 0.929 . S
C2928 C2927 1.399 . S
C2928 C2929 1.385 . S
C2929 H2915 0.931 . S
C2929 C2928 1.385 . S
C2929 C2930 1.389 . S
C2930 C2929 1.389 . S
C2930 C2931 1.387 . S
C2931 H2916 0.930 . S
C2931 C2926 1.390 . S
C2931 C2930 1.387 . S
H2932 C2944 0.930 . S
H2933 C2946 0.930 . S
H2934 C2947 0.930 . S
H2935 C2951 0.959 . S
H2936 C2951 0.959 . S
H2937 C2951 0.961 . S
H2938 C2952 0.960 . S
H2939 C2952 0.961 . S
H2940 C2952 0.959 . S
H2941 C2955 0.929 . S
H2942 C2956 0.931 . S
H2943 C2958 0.930 . S
C2944 H2932 0.930 . S
C2944 C2945 1.399 . S
C2944 C2949 1.399 . S
C2945 C2944 1.399 . S
C2945 C2946 1.376 . S
C2946 H2933 0.930 . S
C2946 C2945 1.376 . S
C2946 C2947 1.388 . S
C2947 H2934 0.930 . S
C2947 C2946 1.388 . S
C2947 C2948 1.390 . S
C2948 C2947 1.390 . S
C2948 C2949 1.394 . S
C2948 C2954 1.465 . S
C2949 C2944 1.399 . S
C2949 C2948 1.394 . S
C2949 C2950 1.516 . S
C2950 C2949 1.516 . S
C2950 C2951 1.502 . S
C2950 C2952 1.561 . S
C2950 C2953 1.526 . S
C2951 H2935 0.959 . S
C2951 H2936 0.959 . S
C2951 H2937 0.961 . S
C2951 C2950 1.502 . S
C2952 H2938 0.960 . S
C2952 H2939 0.961 . S
C2952 H2940 0.959 . S
C2952 C2950 1.561 . S
C2953 C2950 1.526 . S
C2953 C2954 1.396 . S
C2953 C2958 1.390 . S
C2954 C2948 1.465 . S
C2954 C2953 1.396 . S
C2954 C2955 1.399 . S
C2955 H2941 0.929 . S
C2955 C2954 1.399 . S
C2955 C2956 1.385 . S
C2956 H2942 0.931 . S
C2956 C2955 1.385 . S
C2956 C2957 1.389 . S
C2957 C2956 1.389 . S
C2957 C2958 1.387 . S
C2958 H2943 0.930 . S
C2958 C2953 1.390 . S
C2958 C2957 1.387 . S
H2959 C2971 0.930 . S
H2960 C2973 0.930 . S
H2961 C2974 0.930 . S
H2962 C2978 0.959 . S
H2963 C2978 0.959 . S
H2964 C2978 0.961 . S
H2965 C2979 0.960 . S
H2966 C2979 0.961 . S
H2967 C2979 0.959 . S
H2968 C2982 0.929 . S
H2969 C2983 0.931 . S
H2970 C2985 0.930 . S
C2971 H2959 0.930 . S
C2971 C2972 1.399 . S
C2971 C2976 1.399 . S
C2972 C2971 1.399 . S
C2972 C2973 1.376 . S
C2973 H2960 0.930 . S
C2973 C2972 1.376 . S
C2973 C2974 1.388 . S
C2974 H2961 0.930 . S
C2974 C2973 1.388 . S
C2974 C2975 1.390 . S
C2975 C2974 1.390 . S
C2975 C2976 1.394 . S
C2975 C2981 1.465 . S
C2976 C2971 1.399 . S
C2976 C2975 1.394 . S
C2976 C2977 1.516 . S
C2977 C2976 1.516 . S
C2977 C2978 1.502 . S
C2977 C2979 1.561 . S
C2977 C2980 1.526 . S
C2978 H2962 0.959 . S
C2978 H2963 0.959 . S
C2978 H2964 0.961 . S
C2978 C2977 1.502 . S
C2979 H2965 0.960 . S
C2979 H2966 0.961 . S
C2979 H2967 0.959 . S
C2979 C2977 1.561 . S
C2980 C2977 1.526 . S
C2980 C2981 1.396 . S
C2980 C2985 1.390 . S
C2981 C2975 1.465 . S
C2981 C2980 1.396 . S
C2981 C2982 1.399 . S
C2982 H2968 0.929 . S
C2982 C2981 1.399 . S
C2982 C2983 1.385 . S
C2983 H2969 0.931 . S
C2983 C2982 1.385 . S
C2983 C2984 1.389 . S
C2984 C2983 1.389 . S
C2984 C2985 1.387 . S
C2985 H2970 0.930 . S
C2985 C2980 1.390 . S
C2985 C2984 1.387 . S
H2986 C2998 0.930 1_655 S
H2987 C3000 0.930 . S
H2988 C3001 0.930 . S
H2989 C3005 0.959 . S
H2990 C3005 0.959 . S
H2991 C3005 0.961 . S
H2992 C3006 0.960 1_655 S
H2993 C3006 0.961 1_655 S
H2994 C3006 0.959 . S
H2995 C3009 0.929 . S
H2996 C3010 0.931 . S
H2997 C3012 0.930 1_655 S
C2998 H2986 0.930 1_455 S
C2998 C2999 1.399 . S
C2998 C3003 1.399 . S
C2999 C2998 1.399 . S
C2999 C3000 1.376 . S
C3000 H2987 0.930 . S
C3000 C2999 1.376 . S
C3000 C3001 1.388 . S
C3001 H2988 0.930 . S
C3001 C3000 1.388 . S
C3001 C3002 1.390 . S
C3002 C3001 1.390 . S
C3002 C3003 1.394 . S
C3002 C3008 1.465 . S
C3003 C2998 1.399 . S
C3003 C3002 1.394 . S
C3003 C3004 1.516 1_455 S
C3004 C3003 1.516 1_655 S
C3004 C3005 1.502 . S
C3004 C3006 1.561 1_655 S
C3004 C3007 1.526 1_655 S
C3005 H2989 0.959 . S
C3005 H2990 0.959 . S
C3005 H2991 0.961 . S
C3005 C3004 1.502 . S
C3006 H2992 0.960 1_455 S
C3006 H2993 0.961 1_455 S
C3006 H2994 0.959 . S
C3006 C3004 1.561 1_455 S
C3007 C3004 1.526 1_455 S
C3007 C3008 1.396 . S
C3007 C3012 1.390 . S
C3008 C3002 1.465 . S
C3008 C3007 1.396 . S
C3008 C3009 1.399 . S
C3009 H2995 0.929 . S
C3009 C3008 1.399 . S
C3009 C3010 1.385 . S
C3010 H2996 0.931 . S
C3010 C3009 1.385 . S
C3010 C3011 1.389 . S
C3011 C3010 1.389 . S
C3011 C3012 1.387 . S
C3012 H2997 0.930 1_455 S
C3012 C3007 1.390 . S
C3012 C3011 1.387 . S
H3013 C3025 0.930 . S
H3014 C3027 0.930 . S
H3015 C3028 0.930 . S
H3016 C3032 0.959 . S
H3017 C3032 0.959 . S
H3018 C3032 0.961 . S
H3019 C3033 0.960 . S
H3020 C3033 0.961 . S
H3021 C3033 0.959 . S
H3022 C3036 0.929 . S
H3023 C3037 0.931 . S
H3024 C3039 0.930 . S
C3025 H3013 0.930 . S
C3025 C3026 1.399 . S
C3025 C3030 1.399 . S
C3026 C3025 1.399 . S
C3026 C3027 1.376 . S
C3027 H3014 0.930 . S
C3027 C3026 1.376 . S
C3027 C3028 1.388 . S
C3028 H3015 0.930 . S
C3028 C3027 1.388 . S
C3028 C3029 1.390 . S
C3029 C3028 1.390 . S
C3029 C3030 1.394 . S
C3029 C3035 1.465 . S
C3030 C3025 1.399 . S
C3030 C3029 1.394 . S
C3030 C3031 1.516 . S
C3031 C3030 1.516 . S
C3031 C3032 1.502 . S
C3031 C3033 1.561 . S
C3031 C3034 1.526 . S
C3032 H3016 0.959 . S
C3032 H3017 0.959 . S
C3032 H3018 0.961 . S
C3032 C3031 1.502 . S
C3033 H3019 0.960 . S
C3033 H3020 0.961 . S
C3033 H3021 0.959 . S
C3033 C3031 1.561 . S
C3034 C3031 1.526 . S
C3034 C3035 1.396 . S
C3034 C3039 1.390 . S
C3035 C3029 1.465 . S
C3035 C3034 1.396 . S
C3035 C3036 1.399 . S
C3036 H3022 0.929 . S
C3036 C3035 1.399 . S
C3036 C3037 1.385 . S
C3037 H3023 0.931 . S
C3037 C3036 1.385 . S
C3037 C3038 1.389 . S
C3038 C3037 1.389 . S
C3038 C3039 1.387 . S
C3039 H3024 0.930 . S
C3039 C3034 1.390 . S
C3039 C3038 1.387 . S
H3040 C3052 0.930 . S
H3041 C3054 0.930 . S
H3042 C3055 0.930 . S
H3043 C3059 0.959 . S
H3044 C3059 0.959 . S
H3045 C3059 0.961 . S
H3046 C3060 0.960 . S
H3047 C3060 0.961 . S
H3048 C3060 0.959 . S
H3049 C3063 0.929 . S
H3050 C3064 0.931 . S
H3051 C3066 0.930 . S
C3052 H3040 0.930 . S
C3052 C3053 1.399 . S
C3052 C3057 1.399 . S
C3053 C3052 1.399 . S
C3053 C3054 1.376 . S
C3054 H3041 0.930 . S
C3054 C3053 1.376 . S
C3054 C3055 1.388 . S
C3055 H3042 0.930 . S
C3055 C3054 1.388 . S
C3055 C3056 1.390 . S
C3056 C3055 1.390 . S
C3056 C3057 1.394 . S
C3056 C3062 1.465 . S
C3057 C3052 1.399 . S
C3057 C3056 1.394 . S
C3057 C3058 1.516 . S
C3058 C3057 1.516 . S
C3058 C3059 1.502 . S
C3058 C3060 1.561 . S
C3058 C3061 1.526 . S
C3059 H3043 0.959 . S
C3059 H3044 0.959 . S
C3059 H3045 0.961 . S
C3059 C3058 1.502 . S
C3060 H3046 0.960 . S
C3060 H3047 0.961 . S
C3060 H3048 0.959 . S
C3060 C3058 1.561 . S
C3061 C3058 1.526 . S
C3061 C3062 1.396 . S
C3061 C3066 1.390 . S
C3062 C3056 1.465 . S
C3062 C3061 1.396 . S
C3062 C3063 1.399 . S
C3063 H3049 0.929 . S
C3063 C3062 1.399 . S
C3063 C3064 1.385 . S
C3064 H3050 0.931 . S
C3064 C3063 1.385 . S
C3064 C3065 1.389 . S
C3065 C3064 1.389 . S
C3065 C3066 1.387 . S
C3066 H3051 0.930 . S
C3066 C3061 1.390 . S
C3066 C3065 1.387 . S
H3067 C3079 0.930 . S
H3068 C3081 0.930 . S
H3069 C3082 0.930 . S
H3070 C3086 0.959 . S
H3071 C3086 0.959 . S
H3072 C3086 0.961 . S
H3073 C3087 0.960 . S
H3074 C3087 0.961 . S
H3075 C3087 0.959 . S
H3076 C3090 0.929 . S
H3077 C3091 0.931 . S
H3078 C3093 0.930 . S
C3079 H3067 0.930 . S
C3079 C3080 1.399 . S
C3079 C3084 1.399 . S
C3080 C3079 1.399 . S
C3080 C3081 1.376 . S
C3081 H3068 0.930 . S
C3081 C3080 1.376 . S
C3081 C3082 1.388 . S
C3082 H3069 0.930 . S
C3082 C3081 1.388 . S
C3082 C3083 1.390 . S
C3083 C3082 1.390 . S
C3083 C3084 1.394 . S
C3083 C3089 1.465 . S
C3084 C3079 1.399 . S
C3084 C3083 1.394 . S
C3084 C3085 1.516 . S
C3085 C3084 1.516 . S
C3085 C3086 1.502 . S
C3085 C3087 1.561 . S
C3085 C3088 1.526 . S
C3086 H3070 0.959 . S
C3086 H3071 0.959 . S
C3086 H3072 0.961 . S
C3086 C3085 1.502 . S
C3087 H3073 0.960 . S
C3087 H3074 0.961 . S
C3087 H3075 0.959 . S
C3087 C3085 1.561 . S
C3088 C3085 1.526 . S
C3088 C3089 1.396 . S
C3088 C3093 1.390 . S
C3089 C3083 1.465 . S
C3089 C3088 1.396 . S
C3089 C3090 1.399 . S
C3090 H3076 0.929 . S
C3090 C3089 1.399 . S
C3090 C3091 1.385 . S
C3091 H3077 0.931 . S
C3091 C3090 1.385 . S
C3091 C3092 1.389 . S
C3092 C3091 1.389 . S
C3092 C3093 1.387 . S
C3093 H3078 0.930 . S
C3093 C3088 1.390 . S
C3093 C3092 1.387 . S
H3094 C3106 0.930 . S
H3095 C3108 0.930 . S
H3096 C3109 0.930 . S
H3097 C3113 0.959 . S
H3098 C3113 0.959 . S
H3099 C3113 0.961 . S
H3100 C3114 0.960 . S
H3101 C3114 0.961 . S
H3102 C3114 0.959 . S
H3103 C3117 0.929 . S
H3104 C3118 0.931 . S
H3105 C3120 0.930 . S
C3106 H3094 0.930 . S
C3106 C3107 1.399 . S
C3106 C3111 1.399 . S
C3107 C3106 1.399 . S
C3107 C3108 1.376 . S
C3108 H3095 0.930 . S
C3108 C3107 1.376 . S
C3108 C3109 1.388 . S
C3109 H3096 0.930 . S
C3109 C3108 1.388 . S
C3109 C3110 1.390 . S
C3110 C3109 1.390 . S
C3110 C3111 1.394 . S
C3110 C3116 1.465 . S
C3111 C3106 1.399 . S
C3111 C3110 1.394 . S
C3111 C3112 1.516 . S
C3112 C3111 1.516 . S
C3112 C3113 1.502 . S
C3112 C3114 1.561 . S
C3112 C3115 1.526 . S
C3113 H3097 0.959 . S
C3113 H3098 0.959 . S
C3113 H3099 0.961 . S
C3113 C3112 1.502 . S
C3114 H3100 0.960 . S
C3114 H3101 0.961 . S
C3114 H3102 0.959 . S
C3114 C3112 1.561 . S
C3115 C3112 1.526 . S
C3115 C3116 1.396 . S
C3115 C3120 1.390 . S
C3116 C3110 1.465 . S
C3116 C3115 1.396 . S
C3116 C3117 1.399 . S
C3117 H3103 0.929 . S
C3117 C3116 1.399 . S
C3117 C3118 1.385 . S
C3118 H3104 0.931 . S
C3118 C3117 1.385 . S
C3118 C3119 1.389 . S
C3119 C3118 1.389 . S
C3119 C3120 1.387 . S
C3120 H3105 0.930 . S
C3120 C3115 1.390 . S
C3120 C3119 1.387 . S
H3121 C3133 0.930 . S
H3122 C3135 0.930 . S
H3123 C3136 0.930 . S
H3124 C3140 0.959 . S
H3125 C3140 0.959 . S
H3126 C3140 0.961 . S
H3127 C3141 0.960 . S
H3128 C3141 0.961 . S
H3129 C3141 0.959 . S
H3130 C3144 0.929 . S
H3131 C3145 0.931 . S
H3132 C3147 0.930 . S
C3133 H3121 0.930 . S
C3133 C3134 1.399 . S
C3133 C3138 1.399 . S
C3134 C3133 1.399 . S
C3134 C3135 1.376 . S
C3135 H3122 0.930 . S
C3135 C3134 1.376 . S
C3135 C3136 1.388 . S
C3136 H3123 0.930 . S
C3136 C3135 1.388 . S
C3136 C3137 1.390 . S
C3137 C3136 1.390 . S
C3137 C3138 1.394 . S
C3137 C3143 1.465 . S
C3138 C3133 1.399 . S
C3138 C3137 1.394 . S
C3138 C3139 1.516 . S
C3139 C3138 1.516 . S
C3139 C3140 1.502 . S
C3139 C3141 1.561 . S
C3139 C3142 1.526 . S
C3140 H3124 0.959 . S
C3140 H3125 0.959 . S
C3140 H3126 0.961 . S
C3140 C3139 1.502 . S
C3141 H3127 0.960 . S
C3141 H3128 0.961 . S
C3141 H3129 0.959 . S
C3141 C3139 1.561 . S
C3142 C3139 1.526 . S
C3142 C3143 1.396 . S
C3142 C3147 1.390 . S
C3143 C3137 1.465 . S
C3143 C3142 1.396 . S
C3143 C3144 1.399 . S
C3144 H3130 0.929 . S
C3144 C3143 1.399 . S
C3144 C3145 1.385 . S
C3145 H3131 0.931 . S
C3145 C3144 1.385 . S
C3145 C3146 1.389 . S
C3146 C3145 1.389 . S
C3146 C3147 1.387 . S
C3147 H3132 0.930 . S
C3147 C3142 1.390 . S
C3147 C3146 1.387 . S
H3148 C3160 0.930 . S
H3149 C3162 0.930 . S
H3150 C3163 0.930 . S
H3151 C3167 0.959 . S
H3152 C3167 0.959 . S
H3153 C3167 0.961 . S
H3154 C3168 0.960 . S
H3155 C3168 0.961 . S
H3156 C3168 0.959 . S
H3157 C3171 0.929 . S
H3158 C3172 0.931 . S
H3159 C3174 0.930 . S
C3160 H3148 0.930 . S
C3160 C3161 1.399 . S
C3160 C3165 1.399 . S
C3161 C3160 1.399 . S
C3161 C3162 1.376 . S
C3162 H3149 0.930 . S
C3162 C3161 1.376 . S
C3162 C3163 1.388 . S
C3163 H3150 0.930 . S
C3163 C3162 1.388 . S
C3163 C3164 1.390 . S
C3164 C3163 1.390 . S
C3164 C3165 1.394 . S
C3164 C3170 1.465 . S
C3165 C3160 1.399 . S
C3165 C3164 1.394 . S
C3165 C3166 1.516 . S
C3166 C3165 1.516 . S
C3166 C3167 1.502 . S
C3166 C3168 1.561 . S
C3166 C3169 1.526 . S
C3167 H3151 0.959 . S
C3167 H3152 0.959 . S
C3167 H3153 0.961 . S
C3167 C3166 1.502 . S
C3168 H3154 0.960 . S
C3168 H3155 0.961 . S
C3168 H3156 0.959 . S
C3168 C3166 1.561 . S
C3169 C3166 1.526 . S
C3169 C3170 1.396 . S
C3169 C3174 1.390 . S
C3170 C3164 1.465 . S
C3170 C3169 1.396 . S
C3170 C3171 1.399 . S
C3171 H3157 0.929 . S
C3171 C3170 1.399 . S
C3171 C3172 1.385 . S
C3172 H3158 0.931 . S
C3172 C3171 1.385 . S
C3172 C3173 1.389 . S
C3173 C3172 1.389 . S
C3173 C3174 1.387 . S
C3174 H3159 0.930 . S
C3174 C3169 1.390 . S
C3174 C3173 1.387 . S
H3175 C3187 0.930 . S
H3176 C3189 0.930 . S
H3177 C3190 0.930 . S
H3178 C3194 0.959 . S
H3179 C3194 0.959 . S
H3180 C3194 0.961 . S
H3181 C3195 0.960 . S
H3182 C3195 0.961 . S
H3183 C3195 0.959 . S
H3184 C3198 0.929 . S
H3185 C3199 0.931 . S
H3186 C3201 0.930 . S
C3187 H3175 0.930 . S
C3187 C3188 1.399 . S
C3187 C3192 1.399 . S
C3188 C3187 1.399 . S
C3188 C3189 1.376 . S
C3189 H3176 0.930 . S
C3189 C3188 1.376 . S
C3189 C3190 1.388 . S
C3190 H3177 0.930 . S
C3190 C3189 1.388 . S
C3190 C3191 1.390 . S
C3191 C3190 1.390 . S
C3191 C3192 1.394 . S
C3191 C3197 1.465 . S
C3192 C3187 1.399 . S
C3192 C3191 1.394 . S
C3192 C3193 1.516 . S
C3193 C3192 1.516 . S
C3193 C3194 1.502 . S
C3193 C3195 1.561 . S
C3193 C3196 1.526 . S
C3194 H3178 0.959 . S
C3194 H3179 0.959 . S
C3194 H3180 0.961 . S
C3194 C3193 1.502 . S
C3195 H3181 0.960 . S
C3195 H3182 0.961 . S
C3195 H3183 0.959 . S
C3195 C3193 1.561 . S
C3196 C3193 1.526 . S
C3196 C3197 1.396 . S
C3196 C3201 1.390 . S
C3197 C3191 1.465 . S
C3197 C3196 1.396 . S
C3197 C3198 1.399 . S
C3198 H3184 0.929 . S
C3198 C3197 1.399 . S
C3198 C3199 1.385 . S
C3199 H3185 0.931 . S
C3199 C3198 1.385 . S
C3199 C3200 1.389 . S
C3200 C3199 1.389 . S
C3200 C3201 1.387 . S
C3201 H3186 0.930 . S
C3201 C3196 1.390 . S
C3201 C3200 1.387 . S
H3202 C3214 0.930 . S
H3203 C3216 0.930 . S
H3204 C3217 0.930 . S
H3205 C3221 0.959 . S
H3206 C3221 0.959 . S
H3207 C3221 0.961 . S
H3208 C3222 0.960 . S
H3209 C3222 0.961 . S
H3210 C3222 0.959 . S
H3211 C3225 0.929 . S
H3212 C3226 0.931 . S
H3213 C3228 0.930 . S
C3214 H3202 0.930 . S
C3214 C3215 1.399 . S
C3214 C3219 1.399 . S
C3215 C3214 1.399 . S
C3215 C3216 1.376 . S
C3216 H3203 0.930 . S
C3216 C3215 1.376 . S
C3216 C3217 1.388 . S
C3217 H3204 0.930 . S
C3217 C3216 1.388 . S
C3217 C3218 1.390 . S
C3218 C3217 1.390 . S
C3218 C3219 1.394 . S
C3218 C3224 1.465 . S
C3219 C3214 1.399 . S
C3219 C3218 1.394 . S
C3219 C3220 1.516 . S
C3220 C3219 1.516 . S
C3220 C3221 1.502 . S
C3220 C3222 1.561 . S
C3220 C3223 1.526 . S
C3221 H3205 0.959 . S
C3221 H3206 0.959 . S
C3221 H3207 0.961 . S
C3221 C3220 1.502 . S
C3222 H3208 0.960 . S
C3222 H3209 0.961 . S
C3222 H3210 0.959 . S
C3222 C3220 1.561 . S
C3223 C3220 1.526 . S
C3223 C3224 1.396 . S
C3223 C3228 1.390 . S
C3224 C3218 1.465 . S
C3224 C3223 1.396 . S
C3224 C3225 1.399 . S
C3225 H3211 0.929 . S
C3225 C3224 1.399 . S
C3225 C3226 1.385 . S
C3226 H3212 0.931 . S
C3226 C3225 1.385 . S
C3226 C3227 1.389 . S
C3227 C3226 1.389 . S
C3227 C3228 1.387 . S
C3228 H3213 0.930 . S
C3228 C3223 1.390 . S
C3228 C3227 1.387 . S
H3229 C3241 0.930 . S
H3230 C3243 0.930 . S
H3231 C3244 0.930 . S
H3232 C3248 0.959 . S
H3233 C3248 0.959 . S
H3234 C3248 0.961 . S
H3235 C3249 0.960 . S
H3236 C3249 0.961 . S
H3237 C3249 0.959 . S
H3238 C3252 0.929 . S
H3239 C3253 0.931 . S
H3240 C3255 0.930 . S
C3241 H3229 0.930 . S
C3241 C3242 1.399 . S
C3241 C3246 1.399 . S
C3242 C3241 1.399 . S
C3242 C3243 1.376 . S
C3243 H3230 0.930 . S
C3243 C3242 1.376 . S
C3243 C3244 1.388 . S
C3244 H3231 0.930 . S
C3244 C3243 1.388 . S
C3244 C3245 1.390 . S
C3245 C3244 1.390 . S
C3245 C3246 1.394 . S
C3245 C3251 1.465 . S
C3246 C3241 1.399 . S
C3246 C3245 1.394 . S
C3246 C3247 1.516 . S
C3247 C3246 1.516 . S
C3247 C3248 1.502 . S
C3247 C3249 1.561 . S
C3247 C3250 1.526 . S
C3248 H3232 0.959 . S
C3248 H3233 0.959 . S
C3248 H3234 0.961 . S
C3248 C3247 1.502 . S
C3249 H3235 0.960 . S
C3249 H3236 0.961 . S
C3249 H3237 0.959 . S
C3249 C3247 1.561 . S
C3250 C3247 1.526 . S
C3250 C3251 1.396 . S
C3250 C3255 1.390 . S
C3251 C3245 1.465 . S
C3251 C3250 1.396 . S
C3251 C3252 1.399 . S
C3252 H3238 0.929 . S
C3252 C3251 1.399 . S
C3252 C3253 1.385 . S
C3253 H3239 0.931 . S
C3253 C3252 1.385 . S
C3253 C3254 1.389 . S
C3254 C3253 1.389 . S
C3254 C3255 1.387 . S
C3255 H3240 0.930 . S
C3255 C3250 1.390 . S
C3255 C3254 1.387 . S
H3256 C3268 0.930 . S
H3257 C3270 0.930 . S
H3258 C3271 0.930 . S
H3259 C3275 0.959 . S
H3260 C3275 0.959 . S
H3261 C3275 0.961 . S
H3262 C3276 0.960 . S
H3263 C3276 0.961 . S
H3264 C3276 0.959 . S
H3265 C3279 0.929 . S
H3266 C3280 0.931 . S
H3267 C3282 0.930 . S
C3268 H3256 0.930 . S
C3268 C3269 1.399 . S
C3268 C3273 1.399 . S
C3269 C3268 1.399 . S
C3269 C3270 1.376 . S
C3270 H3257 0.930 . S
C3270 C3269 1.376 . S
C3270 C3271 1.388 . S
C3271 H3258 0.930 . S
C3271 C3270 1.388 . S
C3271 C3272 1.390 . S
C3272 C3271 1.390 . S
C3272 C3273 1.394 . S
C3272 C3278 1.465 . S
C3273 C3268 1.399 . S
C3273 C3272 1.394 . S
C3273 C3274 1.516 . S
C3274 C3273 1.516 . S
C3274 C3275 1.502 . S
C3274 C3276 1.561 . S
C3274 C3277 1.526 . S
C3275 H3259 0.959 . S
C3275 H3260 0.959 . S
C3275 H3261 0.961 . S
C3275 C3274 1.502 . S
C3276 H3262 0.960 . S
C3276 H3263 0.961 . S
C3276 H3264 0.959 . S
C3276 C3274 1.561 . S
C3277 C3274 1.526 . S
C3277 C3278 1.396 . S
C3277 C3282 1.390 . S
C3278 C3272 1.465 . S
C3278 C3277 1.396 . S
C3278 C3279 1.399 . S
C3279 H3265 0.929 . S
C3279 C3278 1.399 . S
C3279 C3280 1.385 . S
C3280 H3266 0.931 . S
C3280 C3279 1.385 . S
C3280 C3281 1.389 . S
C3281 C3280 1.389 . S
C3281 C3282 1.387 . S
C3282 H3267 0.930 . S
C3282 C3277 1.390 . S
C3282 C3281 1.387 . S
H3283 C3295 0.930 . S
H3284 C3297 0.930 . S
H3285 C3298 0.930 . S
H3286 C3302 0.959 . S
H3287 C3302 0.959 . S
H3288 C3302 0.961 . S
H3289 C3303 0.960 . S
H3290 C3303 0.961 . S
H3291 C3303 0.959 . S
H3292 C3306 0.929 . S
H3293 C3307 0.931 . S
H3294 C3309 0.930 . S
C3295 H3283 0.930 . S
C3295 C3296 1.399 . S
C3295 C3300 1.399 . S
C3296 C3295 1.399 . S
C3296 C3297 1.376 . S
C3297 H3284 0.930 . S
C3297 C3296 1.376 . S
C3297 C3298 1.388 . S
C3298 H3285 0.930 . S
C3298 C3297 1.388 . S
C3298 C3299 1.390 . S
C3299 C3298 1.390 . S
C3299 C3300 1.394 . S
C3299 C3305 1.465 . S
C3300 C3295 1.399 . S
C3300 C3299 1.394 . S
C3300 C3301 1.516 . S
C3301 C3300 1.516 . S
C3301 C3302 1.502 . S
C3301 C3303 1.561 . S
C3301 C3304 1.526 . S
C3302 H3286 0.959 . S
C3302 H3287 0.959 . S
C3302 H3288 0.961 . S
C3302 C3301 1.502 . S
C3303 H3289 0.960 . S
C3303 H3290 0.961 . S
C3303 H3291 0.959 . S
C3303 C3301 1.561 . S
C3304 C3301 1.526 . S
C3304 C3305 1.396 . S
C3304 C3309 1.390 . S
C3305 C3299 1.465 . S
C3305 C3304 1.396 . S
C3305 C3306 1.399 . S
C3306 H3292 0.929 . S
C3306 C3305 1.399 . S
C3306 C3307 1.385 . S
C3307 H3293 0.931 . S
C3307 C3306 1.385 . S
C3307 C3308 1.389 . S
C3308 C3307 1.389 . S
C3308 C3309 1.387 . S
C3309 H3294 0.930 . S
C3309 C3304 1.390 . S
C3309 C3308 1.387 . S
H3310 C3322 0.930 . S
H3311 C3324 0.930 . S
H3312 C3325 0.930 . S
H3313 C3329 0.959 . S
H3314 C3329 0.959 . S
H3315 C3329 0.961 . S
H3316 C3330 0.960 . S
H3317 C3330 0.961 . S
H3318 C3330 0.959 . S
H3319 C3333 0.929 . S
H3320 C3334 0.931 . S
H3321 C3336 0.930 . S
C3322 H3310 0.930 . S
C3322 C3323 1.399 . S
C3322 C3327 1.399 . S
C3323 C3322 1.399 . S
C3323 C3324 1.376 . S
C3324 H3311 0.930 . S
C3324 C3323 1.376 . S
C3324 C3325 1.388 . S
C3325 H3312 0.930 . S
C3325 C3324 1.388 . S
C3325 C3326 1.390 . S
C3326 C3325 1.390 . S
C3326 C3327 1.394 . S
C3326 C3332 1.465 . S
C3327 C3322 1.399 . S
C3327 C3326 1.394 . S
C3327 C3328 1.516 . S
C3328 C3327 1.516 . S
C3328 C3329 1.502 . S
C3328 C3330 1.561 . S
C3328 C3331 1.526 . S
C3329 H3313 0.959 . S
C3329 H3314 0.959 . S
C3329 H3315 0.961 . S
C3329 C3328 1.502 . S
C3330 H3316 0.960 . S
C3330 H3317 0.961 . S
C3330 H3318 0.959 . S
C3330 C3328 1.561 . S
C3331 C3328 1.526 . S
C3331 C3332 1.396 . S
C3331 C3336 1.390 . S
C3332 C3326 1.465 . S
C3332 C3331 1.396 . S
C3332 C3333 1.399 . S
C3333 H3319 0.929 . S
C3333 C3332 1.399 . S
C3333 C3334 1.385 . S
C3334 H3320 0.931 . S
C3334 C3333 1.385 . S
C3334 C3335 1.389 . S
C3335 C3334 1.389 . S
C3335 C3336 1.387 . S
C3336 H3321 0.930 . S
C3336 C3331 1.390 . S
C3336 C3335 1.387 . S
H3337 C3349 0.921 1_556 S
H3338 C3351 0.930 . S
H3339 C3352 0.917 1_545 S
H3340 C3356 0.959 . S
H3341 C3356 0.959 . S
H3342 C3356 0.961 . S
H3343 C3357 0.960 . S
H3344 C3357 0.980 . S
H3345 C3357 0.959 . S
H3346 C3360 0.929 . S
H3347 C3361 0.931 . S
H3348 C3363 0.930 1_556 S
C3349 H3337 0.921 1_554 S
C3349 C3350 1.399 . S
C3349 C3354 1.399 . S
C3350 C3349 1.399 . S
C3350 C3351 1.376 . S
C3351 H3338 0.930 . S
C3351 C3350 1.376 . S
C3351 C3352 1.388 . S
C3352 H3339 0.917 1_565 S
C3352 C3351 1.388 . S
C3352 C3353 1.390 . S
C3353 C3352 1.390 . S
C3353 C3354 1.394 . S
C3353 C3359 1.465 . S
C3354 C3349 1.399 . S
C3354 C3353 1.394 . S
C3354 C3355 1.528 . S
C3355 C3354 1.528 . S
C3355 C3356 1.475 1_554 S
C3355 C3357 1.571 . S
C3355 C3358 1.536 . S
C3356 H3340 0.959 . S
C3356 H3341 0.959 . S
C3356 H3342 0.961 . S
C3356 C3355 1.475 1_556 S
C3357 H3343 0.960 . S
C3357 H3344 0.980 . S
C3357 H3345 0.959 . S
C3357 C3355 1.571 . S
C3358 C3355 1.536 . S
C3358 C3359 1.396 . S
C3358 C3363 1.390 . S
C3359 C3353 1.465 . S
C3359 C3358 1.396 . S
C3359 C3360 1.399 1_565 S
C3360 H3346 0.929 . S
C3360 C3359 1.399 1_545 S
C3360 C3361 1.385 . S
C3361 H3347 0.931 . S
C3361 C3360 1.385 . S
C3361 C3362 1.389 1_545 S
C3362 C3361 1.389 1_565 S
C3362 C3363 1.387 . S
C3363 H3348 0.930 1_554 S
C3363 C3358 1.390 . S
C3363 C3362 1.387 . S
H3364 C3376 0.930 . S
H3365 C3378 0.930 . S
H3366 C3379 0.930 . S
H3367 C3383 0.959 . S
H3368 C3383 0.959 . S
H3369 C3383 0.961 . S
H3370 C3384 0.960 . S
H3371 C3384 0.961 . S
H3372 C3384 0.959 . S
H3373 C3387 0.929 . S
H3374 C3388 0.931 . S
H3375 C3390 0.930 . S
C3376 H3364 0.930 . S
C3376 C3377 1.399 . S
C3376 C3381 1.399 . S
C3377 C3376 1.399 . S
C3377 C3378 1.376 . S
C3378 H3365 0.930 . S
C3378 C3377 1.376 . S
C3378 C3379 1.388 . S
C3379 H3366 0.930 . S
C3379 C3378 1.388 . S
C3379 C3380 1.390 . S
C3380 C3379 1.390 . S
C3380 C3381 1.394 . S
C3380 C3386 1.465 . S
C3381 C3376 1.399 . S
C3381 C3380 1.394 . S
C3381 C3382 1.516 . S
C3382 C3381 1.516 . S
C3382 C3383 1.502 . S
C3382 C3384 1.561 . S
C3382 C3385 1.526 . S
C3383 H3367 0.959 . S
C3383 H3368 0.959 . S
C3383 H3369 0.961 . S
C3383 C3382 1.502 . S
C3384 H3370 0.960 . S
C3384 H3371 0.961 . S
C3384 H3372 0.959 . S
C3384 C3382 1.561 . S
C3385 C3382 1.526 . S
C3385 C3386 1.396 . S
C3385 C3390 1.390 . S
C3386 C3380 1.465 . S
C3386 C3385 1.396 . S
C3386 C3387 1.399 . S
C3387 H3373 0.929 . S
C3387 C3386 1.399 . S
C3387 C3388 1.385 . S
C3388 H3374 0.931 . S
C3388 C3387 1.385 . S
C3388 C3389 1.389 . S
C3389 C3388 1.389 . S
C3389 C3390 1.387 . S
C3390 H3375 0.930 . S
C3390 C3385 1.390 . S
C3390 C3389 1.387 . S
H3391 C3403 0.930 . S
H3392 C3405 0.930 . S
H3393 C3406 0.930 . S
H3394 C3410 0.959 . S
H3395 C3410 0.959 . S
H3396 C3410 0.961 . S
H3397 C3411 0.960 . S
H3398 C3411 0.961 . S
H3399 C3411 0.959 . S
H3400 C3414 0.929 . S
H3401 C3415 0.928 1_556 S
H3402 C3417 0.930 . S
C3403 H3391 0.930 . S
C3403 C3404 1.399 . S
C3403 C3408 1.399 . S
C3404 C3403 1.399 . S
C3404 C3405 1.376 1_554 S
C3405 H3392 0.930 . S
C3405 C3404 1.376 1_556 S
C3405 C3406 1.388 . S
C3406 H3393 0.930 . S
C3406 C3405 1.388 . S
C3406 C3407 1.390 1_556 S
C3407 C3406 1.390 1_554 S
C3407 C3408 1.394 . S
C3407 C3413 1.465 . S
C3408 C3403 1.399 . S
C3408 C3407 1.394 . S
C3408 C3409 1.516 . S
C3409 C3408 1.516 . S
C3409 C3410 1.502 . S
C3409 C3411 1.561 . S
C3409 C3412 1.526 . S
C3410 H3394 0.959 . S
C3410 H3395 0.959 . S
C3410 H3396 0.961 . S
C3410 C3409 1.502 . S
C3411 H3397 0.960 . S
C3411 H3398 0.961 . S
C3411 H3399 0.959 . S
C3411 C3409 1.561 . S
C3412 C3409 1.526 . S
C3412 C3413 1.396 . S
C3412 C3417 1.390 . S
C3413 C3407 1.465 . S
C3413 C3412 1.396 . S
C3413 C3414 1.399 1_554 S
C3414 H3400 0.929 . S
C3414 C3413 1.399 1_556 S
C3414 C3415 1.385 1_556 S
C3415 H3401 0.928 1_554 S
C3415 C3414 1.385 1_554 S
C3415 C3416 1.389 . S
C3416 C3415 1.389 . S
C3416 C3417 1.387 . S
C3417 H3402 0.930 . S
C3417 C3412 1.390 . S
C3417 C3416 1.387 . S
H3418 C3430 0.930 . S
H3419 C3432 0.930 . S
H3420 C3433 0.930 . S
H3421 C3437 0.959 . S
H3422 C3437 0.959 . S
H3423 C3437 0.961 . S
H3424 C3438 0.960 . S
H3425 C3438 0.961 . S
H3426 C3438 0.959 . S
H3427 C3441 0.929 . S
H3428 C3442 0.931 . S
H3429 C3444 0.930 . S
C3430 H3418 0.930 . S
C3430 C3431 1.399 . S
C3430 C3435 1.399 . S
C3431 C3430 1.399 . S
C3431 C3432 1.376 . S
C3432 H3419 0.930 . S
C3432 C3431 1.376 . S
C3432 C3433 1.388 . S
C3433 H3420 0.930 . S
C3433 C3432 1.388 . S
C3433 C3434 1.390 . S
C3434 C3433 1.390 . S
C3434 C3435 1.394 . S
C3434 C3440 1.465 . S
C3435 C3430 1.399 . S
C3435 C3434 1.394 . S
C3435 C3436 1.516 . S
C3436 C3435 1.516 . S
C3436 C3437 1.502 . S
C3436 C3438 1.561 . S
C3436 C3439 1.526 . S
C3437 H3421 0.959 . S
C3437 H3422 0.959 . S
C3437 H3423 0.961 . S
C3437 C3436 1.502 . S
C3438 H3424 0.960 . S
C3438 H3425 0.961 . S
C3438 H3426 0.959 . S
C3438 C3436 1.561 . S
C3439 C3436 1.526 . S
C3439 C3440 1.396 . S
C3439 C3444 1.390 . S
C3440 C3434 1.465 . S
C3440 C3439 1.396 . S
C3440 C3441 1.399 . S
C3441 H3427 0.929 . S
C3441 C3440 1.399 . S
C3441 C3442 1.385 . S
C3442 H3428 0.931 . S
C3442 C3441 1.385 . S
C3442 C3443 1.389 . S
C3443 C3442 1.389 . S
C3443 C3444 1.387 . S
C3444 H3429 0.930 . S
C3444 C3439 1.390 . S
C3444 C3443 1.387 . S
H3445 C3457 0.930 . S
H3446 C3459 0.930 . S
H3447 C3460 0.930 . S
H3448 C3464 0.959 . S
H3449 C3464 0.959 . S
H3450 C3464 0.961 . S
H3451 C3465 0.960 . S
H3452 C3465 0.961 . S
H3453 C3465 0.959 . S
H3454 C3468 0.929 . S
H3455 C3469 0.931 . S
H3456 C3471 0.930 . S
C3457 H3445 0.930 . S
C3457 C3458 1.399 . S
C3457 C3462 1.399 . S
C3458 C3457 1.399 . S
C3458 C3459 1.376 . S
C3459 H3446 0.930 . S
C3459 C3458 1.376 . S
C3459 C3460 1.388 . S
C3460 H3447 0.930 . S
C3460 C3459 1.388 . S
C3460 C3461 1.390 . S
C3461 C3460 1.390 . S
C3461 C3462 1.394 . S
C3461 C3467 1.465 . S
C3462 C3457 1.399 . S
C3462 C3461 1.394 . S
C3462 C3463 1.516 . S
C3463 C3462 1.516 . S
C3463 C3464 1.502 . S
C3463 C3465 1.561 . S
C3463 C3466 1.526 . S
C3464 H3448 0.959 . S
C3464 H3449 0.959 . S
C3464 H3450 0.961 . S
C3464 C3463 1.502 . S
C3465 H3451 0.960 . S
C3465 H3452 0.961 . S
C3465 H3453 0.959 . S
C3465 C3463 1.561 . S
C3466 C3463 1.526 . S
C3466 C3467 1.396 . S
C3466 C3471 1.390 . S
C3467 C3461 1.465 . S
C3467 C3466 1.396 . S
C3467 C3468 1.399 . S
C3468 H3454 0.929 . S
C3468 C3467 1.399 . S
C3468 C3469 1.385 . S
C3469 H3455 0.931 . S
C3469 C3468 1.385 . S
C3469 C3470 1.389 . S
C3470 C3469 1.389 . S
C3470 C3471 1.387 . S
C3471 H3456 0.930 . S
C3471 C3466 1.390 . S
C3471 C3470 1.387 . S
C905 C353 0.961 . S
C893 C4 0.857 . S
C920 C19 1.468 . S
C932 C399 1.737 . S
C947 C39 0.758 . S
C959 C408 0.759 . S
C986 C446 1.545 . S
C974 C54 1.572 . S
C1001 C18 1.511 . S
C1013 C480 1.490 . S
C1040 C510 0.763 . S
C1028 C40 0.800 . S
C1067 C569 1.471 1_556 S
C1055 C53 1.480 . S
C1082 C5 0.723 . S
C1094 C582 0.887 . S
C1109 C61 0.972 . S
C1121 C365 1.215 1_565 S
C1136 C74 1.186 . S
C1148 C383 1.153 . S
C1175 C404 1.455 . S
C1163 C89 1.152 . S
C1202 C442 0.768 . S
C1190 C109 0.723 . S
C1217 C68 1.155 . S
C1229 C476 1.188 . S
C1256 C506 1.506 . S
C1244 C81 1.535 . S
C1283 C553 1.146 . S
C1271 C96 1.131 . S
C1310 C578 0.676 . S
C1298 C102 0.786 . S
C1337 C349 0.574 1_556 S
C1325 C103 0.680 . S
C1364 C608 1.536 . S
C1352 C117 1.292 . S
C1379 C130 1.376 . S
C1391 C650 1.365 . S
C1418 C693 0.552 . S
C1406 C152 0.426 . S
C1433 C60 1.309 . S
C1445 C574 1.297 . S
C1472 C412 1.414 . S
C1460 C82 1.372 . S
C1487 C137 1.239 . S
C1499 C710 1.258 . S
C1526 C761 1.437 . S
C1514 C165 1.424 . S
C1541 C172 0.998 1_455 S
C1553 C344 0.967 1_556 S
C1580 C744 1.859 . S
C1568 C194 1.855 . S
C1595 C207 0.755 . S
C1607 C417 0.803 . S
C1622 C215 1.383 . S
C1634 C727 1.612 . S
C1661 C489 1.603 . S
C1649 C186 1.561 . S
C1688 C655 0.825 . S
C1676 C201 0.814 . S
C1715 C540 1.528 . S
C1703 C221 1.507 . S
C1742 C795 0.844 . S
C1730 C180 0.937 . S
C1769 C336 1.207 1_655 S
C1757 C236 1.272 . S
C1784 C242 1.263 . S
C1796 C748 1.247 . S
C1823 C433 1.613 1_565 S
C1811 C264 1.597 . S
C1838 C277 0.899 . S
C1850 C723 0.768 . S
C1865 C229 0.998 1_565 S
C1877 C485 1.120 . S
C1892 C249 1.536 . S
C1904 C671 1.517 . S
C1931 C544 1.175 . S
C1919 C257 1.036 . S
C1946 C270 0.663 . S
C1958 C791 0.720 . S
C1973 C278 0.550 . S
C1985 C340 0.586 . S
C2000 C292 1.594 . S
C2012 C637 1.588 . S
C2027 C298 1.542 . S
C2039 C523 1.541 . S
C2054 C313 0.738 . S
C2066 C684 0.557 . S
C2093 C807 1.330 . S
C2081 C228 1.362 . S
C2120 C421 1.376 . S
C2108 C243 1.253 . S
C2147 C467 1.260 . S
C2135 C305 1.240 . S
C2174 C378 1.440 . S
C2162 C333 1.428 . S
C2189 C32 0.993 . S
C2201 C829 0.906 . S
C2228 C773 1.738 . S
C2216 C47 1.461 . S
C2255 C850 0.758 . S
C2243 C11 0.758 . S
C2270 C26 1.571 . S
C2282 C718 1.540 . S
C2297 C46 1.447 . S
C2309 C616 1.522 1_556 S
C2336 C646 0.828 . S
C2324 C12 0.794 . S
C2363 C705 1.491 . S
C2351 C25 1.485 . S
C2390 C786 0.833 . S
C2378 C33 0.916 . S
C2417 C841 1.222 . S
C2405 C159 0.945 . S
C2432 C116 1.177 . S
C2444 C757 1.159 . S
C2459 C131 1.168 . S
C2471 C846 1.437 . S
C2498 C714 0.812 . S
C2486 C151 0.718 . S
C2525 C612 1.117 . S
C2513 C166 1.185 . S
C2540 C123 1.542 . S
C2552 C642 1.544 . S
C2579 C689 1.082 . S
C2567 C138 1.149 . S
C2594 C144 0.781 . S
C2606 C782 0.690 . S
C2633 C825 0.646 . S
C2621 C145 0.698 . S
C2660 C472 1.516 1_565 S
C2648 C75 1.371 . S
C2687 C514 1.408 . S
C2675 C88 1.302 . S
C2702 C110 0.424 . S
C2714 C557 0.552 . S
C2741 C778 1.341 . S
C2729 C158 1.248 . S
C2756 C124 1.390 . S
C2768 C854 1.371 . S
C2795 C438 1.229 . S
C2783 C95 1.202 . S
C2822 C387 1.465 . S
C2810 C67 1.460 . S
C2837 C200 1.001 . S
C2849 C820 0.952 . S
C2876 C370 1.842 . S
C2864 C222 1.848 . S
C2903 C859 0.769 . S
C2891 C179 0.812 . S
C2918 C187 1.409 . S
C2930 C455 1.607 . S
C2945 C214 1.600 . S
C2957 C625 1.565 . S
C2972 C173 0.821 . S
C2984 C519 0.821 . S
C2999 C193 1.530 . S
C3011 C676 1.506 . S
C3026 C208 0.864 . S
C3038 C591 0.928 . S
C3065 C812 1.212 . S
C3053 C334 1.264 . S
C3080 C284 1.263 . S
C3092 C374 1.246 . S
C3119 C875 1.613 . S
C3107 C306 1.598 . S
C3134 C319 0.838 . S
C3146 C451 0.829 . S
C3161 C327 1.027 . S
C3173 C621 1.121 . S
C3200 C535 1.531 . S
C3188 C291 1.526 . S
C3215 C299 1.050 . S
C3227 C680 1.175 . S
C3254 C587 0.715 . S
C3242 C312 0.774 . S
C3281 C816 0.615 . S
C3269 C320 0.535 . S
C3308 C501 1.591 . S
C3296 C250 1.581 . S
C3323 C256 1.541 . S
C3335 C659 1.540 . S
C3362 C548 0.475 1_565 S
C3350 C271 0.517 . S
C3389 C603 1.334 . S
C3377 C326 1.372 . S
C3404 C285 1.248 1_554 S
C3416 C863 1.376 . S
C3443 C739 1.233 . S
C3431 C263 1.260 . S
C3470 C752 1.426 . S
C3458 C235 1.439 . S
