# Generated by pormake.
# Topology pth, (4,4)-cn, num edge types: 1
# Building blocks:
#     Node 0, Type 0, BuildingBlock: UXUYUI_clean_sbu_0, # of connection points: 4
#     Node 1, Type 0, BuildingBlock: UXUYUI_clean_sbu_0, # of connection points: 4
#     Node 2, Type 0, BuildingBlock: UXUYUI_clean_sbu_0, # of connection points: 4
#     Node 3, Type 1, BuildingBlock: MUDLON_clean_sbu_0, # of connection points: 4
#     Node 4, Type 1, BuildingBlock: MUDLON_clean_sbu_0, # of connection points: 4
#     Node 5, Type 1, BuildingBlock: MUDLON_clean_sbu_0, # of connection points: 4
#     Edge 6, Type (0, 1), BuildingBlock: OJICUG_clean_linker_0, # of connection points: 2
#     Edge 7, Type (0, 1), BuildingBlock: OJICUG_clean_linker_0, # of connection points: 2
#     Edge 8, Type (0, 1), BuildingBlock: OJICUG_clean_linker_0, # of connection points: 2
#     Edge 9, Type (0, 1), BuildingBlock: OJICUG_clean_linker_0, # of connection points: 2
#     Edge 10, Type (0, 1), BuildingBlock: OJICUG_clean_linker_0, # of connection points: 2
#     Edge 11, Type (0, 1), BuildingBlock: OJICUG_clean_linker_0, # of connection points: 2
#     Edge 12, Type (0, 1), BuildingBlock: OJICUG_clean_linker_0, # of connection points: 2
#     Edge 13, Type (0, 1), BuildingBlock: OJICUG_clean_linker_0, # of connection points: 2
#     Edge 14, Type (0, 1), BuildingBlock: OJICUG_clean_linker_0, # of connection points: 2
#     Edge 15, Type (0, 1), BuildingBlock: OJICUG_clean_linker_0, # of connection points: 2
#     Edge 16, Type (0, 1), BuildingBlock: OJICUG_clean_linker_0, # of connection points: 2
#     Edge 17, Type (0, 1), BuildingBlock: OJICUG_clean_linker_0, # of connection points: 2
# Relax obj value: 0.110
# Max RMSD: 0.229
# Mean RMSD: 0.139
data_MOF--net-pth--node1-UXUYUI_clean_sbu_0--node2-MUDLON_clean_sbu_0--edge1-OJICUG_clean_linker_0
_symmetry_space_group_name_H-M    P1
_symmetry_Int_Tables_number       1
_symmetry_cell_setting            triclinic
loop_
_symmetry_equiv_pos_as_xyz
'x, y, z'
_cell_length_a     21.781179
_cell_length_b     21.784763
_cell_length_c     56.964466
_cell_angle_alpha  90.044871
_cell_angle_beta   89.884886
_cell_angle_gamma 119.9034
loop_
_atom_site_label
_atom_site_type_symbol
_atom_site_fract_x
_atom_site_fract_y
_atom_site_fract_z
_atom_type_partial_charge
Li0 Li 0.08399 0.06606 0.07817 0.0
Li1 Li 0.99443 0.06303 0.10513 0.0
Li2 Li 0.03188 0.97359 0.10589 0.0
Li3 Li 0.95878 0.97099 0.0734 0.0
C4 C 0.15845 0.12495 0.1154 0.0
N5 N 0.30042 0.22548 0.11842 0.0
C6 C 0.17899 0.19526 0.12065 0.0
C7 C 0.2101 0.10558 0.11202 0.0
C8 C 0.25104 0.24536 0.12202 0.0
C9 C 0.28159 0.1572 0.11352 0.0
C10 C 0.95218 0.09358 0.06262 0.0
C11 C 0.83372 0.07587 0.06302 0.0
N12 N 0.85356 0.12836 0.04684 0.0
C13 C 0.97145 0.14736 0.04604 0.0
C14 C 0.88281 0.05752 0.07123 0.0
C15 C 0.92079 0.16416 0.03827 0.0
C16 C 0.20507 0.10535 0.04896 0.0
N17 N 0.16676 0.12939 0.0607 0.0
C18 C 0.24295 0.24691 0.04668 0.0
C19 C 0.18445 0.19859 0.05978 0.0
C20 C 0.28351 0.2238 0.0342 0.0
C21 C 0.26396 0.15189 0.03553 0.0
H22 H 0.18946 0.04992 0.04979 0.0
H23 H 0.15247 0.21603 0.06906 0.0
C24 C 0.91156 0.09189 0.13783 0.0
N25 N 0.96519 0.1204 0.12188 0.0
C26 C 0.89351 0.13549 0.15065 0.0
C27 C 0.98423 0.23649 0.12967 0.0
C28 C 1.00028 0.19096 0.11724 0.0
C29 C 0.93079 0.20916 0.14693 0.0
H30 H 0.88302 0.03536 0.14075 0.0
H31 H 0.04168 0.21205 0.10409 0.0
C32 C 0.05344 0.90588 0.07 0.0
N33 N 0.06789 0.78717 0.06633 0.0
C34 C 0.99613 0.84123 0.06284 0.0
C35 C 0.11826 0.91023 0.07507 0.0
C36 C 1.0045 0.78183 0.06112 0.0
C37 C 0.12442 0.84958 0.07321 0.0
C38 C 0.90437 0.90688 0.12397 0.0
C39 C 0.86246 0.83556 0.11789 0.0
C40 C 0.92028 0.92578 0.14757 0.0
C41 C 0.83689 0.78425 0.13556 0.0
C42 C 0.89388 0.87286 0.16471 0.0
N43 N 0.85305 0.80379 0.1584 0.0
C44 C 0.09335 0.94886 0.1461 0.0
C45 C 0.01863 0.84417 0.125 0.0
C46 C 0.10499 0.90993 0.16325 0.0
N47 N 0.05052 0.91573 0.12745 0.0
C48 C 0.02877 0.80317 0.14173 0.0
C49 C 0.07187 0.83585 0.16137 0.0
H50 H 0.1172 1.00553 0.14803 0.0
H51 H 0.98324 0.81832 0.11049 0.0
C52 C 0.9142 0.92907 0.02766 0.0
N53 N 0.88935 0.91893 0.05002 0.0
C54 C 0.86975 0.8894 1.00931 0.0
C55 C 0.77378 0.83138 0.03715 0.0
C56 C 0.82014 0.87286 0.055 0.0
C57 C 0.79896 0.83804 1.01399 0.0
H58 H 0.9693 0.96683 0.0242 0.0
H59 H 0.80133 0.86694 0.07288 0.0
O60 O 0.08822 0.07537 0.11335 0.0
O61 O 1.00138 0.07689 0.07044 0.0
O62 O 0.04642 0.96476 0.07162 0.0
O63 O 0.93111 0.95783 0.1069 0.0
H64 H 0.13985 0.21111 0.12357 0.0
H65 H 0.19508 0.05133 0.10812 0.0
H66 H 0.26768 0.30006 0.12593 0.0
H67 H 0.32209 0.143 0.11077 0.0
H68 H 0.77985 0.04842 0.06951 0.0
H69 H 0.02504 0.17584 0.03927 0.0
H70 H 0.86698 0.0159 0.08413 0.0
H71 H 0.93493 0.20567 0.02543 0.0
H72 H 0.25505 0.30148 0.04582 0.0
H73 H 0.29378 0.13179 0.02629 0.0
H74 H 0.85103 0.11173 0.16341 0.0
H75 H 0.01509 0.2928 0.12627 0.0
H76 H 0.9455 0.83659 0.05889 0.0
H77 H 0.16331 0.95978 0.08049 0.0
H78 H 0.96049 0.73142 0.05573 0.0
H79 H 0.17418 0.85214 0.07721 0.0
H80 H 0.85091 0.81979 0.0997 0.0
H81 H 0.95377 0.98063 0.15254 0.0
H82 H 0.80468 0.72883 0.1311 0.0
H83 H 0.90617 0.88667 0.18302 0.0
H84 H 0.13893 0.93758 0.178 0.0
H85 H 1.00078 0.74615 0.13975 0.0
H86 H 0.89123 0.89767 0.99169 0.0
H87 H 0.71981 0.79243 0.04165 0.0
Li88 Li 0.99102 0.93858 0.40978 0.0
Li89 Li 0.07855 0.02646 0.43764 0.0
Li90 Li 0.94588 0.98329 0.44053 0.0
Li91 Li 0.01745 0.05786 0.40846 0.0
C92 C 0.98167 0.86181 0.44666 0.0
N93 N 0.95106 0.72279 0.44891 0.0
C94 C 0.03629 0.84632 0.44924 0.0
C95 C 0.91149 0.80681 0.44536 0.0
C96 C 0.0197 0.77562 0.45033 0.0
C97 C 0.89711 0.7368 0.44649 0.0
C98 C 0.11655 0.05495 0.38271 0.0
C99 C 0.20381 0.15825 0.36186 0.0
N100 N 0.17794 0.12388 0.34115 0.0
C101 C 0.09107 0.02051 0.36122 0.0
C102 C 0.17365 0.12424 0.38305 0.0
C103 C 0.12276 0.0563 0.34041 0.0
C104 C 0.90819 0.8167 0.38112 0.0
N105 N 0.97183 0.85705 0.39177 0.0
C106 C 0.01633 0.78594 0.37542 0.0
C107 C 0.02548 0.8428 0.38921 0.0
C108 C 0.95149 0.74355 0.36393 0.0
C109 C 0.89689 0.75948 0.36692 0.0
H110 H 0.8665 0.82937 0.38345 0.0
H111 H 0.07581 0.87641 0.39765 0.0
C112 C 0.14997 0.03741 0.47958 0.0
N113 N 0.16014 0.05055 0.45617 0.0
C114 C 0.20656 0.04923 0.49404 0.0
C115 C 0.28358 0.08995 0.46012 0.0
C116 C 0.22528 0.07673 0.44627 0.0
C117 C 0.27456 0.07518 0.48435 0.0
H118 H 0.09734 0.016 0.4869 0.0
H119 H 0.23178 0.08639 0.42757 0.0
C120 C 0.87009 0.98871 0.40298 0.0
N121 N 0.76683 0.02498 0.39552 0.0
C122 C 0.87437 0.04789 0.41412 0.0
C123 C 0.81334 0.94808 0.38799 0.0
C124 C 0.82166 0.06535 0.41014 0.0
C125 C 0.76164 0.96723 0.38445 0.0
C126 C 0.06341 0.15135 0.44833 0.0
C127 C 0.0258 0.18205 0.45782 0.0
C128 C 0.13676 0.19237 0.44547 0.0
C129 C 0.06212 0.25373 0.46387 0.0
C130 C 0.17117 0.26384 0.45177 0.0
N131 N 0.13343 0.29282 0.46073 0.0
C132 C 0.89514 0.996 0.48405 0.0
C133 C 0.80371 0.91601 0.45882 0.0
C134 C 0.84613 0.98414 0.50177 0.0
N135 N 0.8733 0.96231 0.46309 0.0
C136 C 0.75265 0.90271 0.47608 0.0
C137 C 0.77369 0.93696 0.49796 0.0
H138 H 0.95086 0.03244 0.48695 0.0
H139 H 0.78785 0.88943 0.44203 0.0
C140 C 0.99424 0.09937 0.36512 0.0
N141 N 0.02603 0.12806 0.38594 0.0
C142 C 0.99348 0.14213 0.34709 0.0
C143 C 0.05938 0.24429 0.37189 0.0
C144 C 0.0591 0.19931 0.38951 0.0
C145 C 0.02518 0.21557 0.35045 0.0
H146 H 0.96878 0.04271 0.36257 0.0
H147 H 0.08436 0.22155 0.40604 0.0
O148 O 0.99694 0.93052 0.4449 0.0
O149 O 0.08517 0.02129 0.40325 0.0
O150 O 0.92126 0.97061 0.40646 0.0
O151 O 0.02882 0.08098 0.44264 0.0
H152 H 0.09091 0.88847 0.45018 0.0
H153 H 0.86874 0.81814 0.44324 0.0
H154 H 0.0614 0.76273 0.45221 0.0
H155 H 0.84309 0.69361 0.44537 0.0
H156 H 0.24771 0.21204 0.36186 0.0
H157 H 0.04665 0.96709 0.36058 0.0
H158 H 0.19407 0.15178 0.39947 0.0
H159 H 0.10327 0.03044 0.32366 0.0
H160 H 0.06029 0.7764 0.37328 0.0
H161 H 0.84607 0.72797 0.35846 0.0
H162 H 0.19639 0.03566 0.51246 0.0
H163 H 0.33497 0.11075 0.45186 0.0
H164 H 0.91794 0.08018 0.42562 0.0
H165 H 0.80931 0.90227 0.37912 0.0
H166 H 0.82441 0.11105 0.41866 0.0
H167 H 0.71743 0.93622 0.3729 0.0
H168 H 0.96916 0.15084 0.46056 0.0
H169 H 0.16678 0.16951 0.43832 0.0
H170 H 0.03363 0.27824 0.47114 0.0
H171 H 0.22786 0.29628 0.44951 0.0
H172 H 0.86477 0.01274 0.51816 0.0
H173 H 0.69749 0.86562 0.47242 0.0
H174 H 0.96751 0.11767 0.33073 0.0
H175 H 0.08398 0.30055 0.37532 0.0
Li176 Li 0.04601 0.98052 0.73832 0.0
Li177 Li 0.04688 0.05402 0.7705 0.0
Li178 Li 0.9548 0.93412 0.76861 0.0
Li179 Li 0.95556 0.02279 0.74093 0.0
C180 C 0.12569 0.98562 0.77643 0.0
N181 N 0.26492 0.02289 0.78491 0.0
C182 C 0.18079 0.04474 0.76538 0.0
C183 C 0.14146 0.94557 0.79187 0.0
C184 C 0.25079 0.0627 0.76987 0.0
C185 C 0.21217 0.96522 0.7959 0.0
C186 C 0.09536 0.14807 0.73049 0.0
C187 C 0.10009 0.26065 0.72679 0.0
N188 N 0.16658 0.28925 0.71772 0.0
C189 C 0.16347 0.1784 0.72092 0.0
C190 C 0.06314 0.18932 0.73328 0.0
C191 C 0.19871 0.24994 0.71467 0.0
C192 C 0.10988 0.99388 0.69487 0.0
N193 N 0.09874 0.96055 0.71589 0.0
C194 C 0.16127 0.90223 0.70295 0.0
C195 C 0.12315 0.91508 0.72022 0.0
C196 C 0.1737 0.93607 0.68101 0.0
C197 C 0.14737 0.98247 0.67715 0.0
H198 H 0.08966 0.02961 0.69191 0.0
H199 H 0.11295 0.88873 0.73704 0.0
C200 C 0.10829 0.09624 0.81439 0.0
N201 N 0.10731 0.12432 0.79319 0.0
C202 C 0.1505 0.13944 0.83256 0.0
C203 C 0.1905 0.24065 0.807 0.0
C204 C 0.14683 0.19532 0.78929 0.0
C205 C 0.19352 0.21266 0.82892 0.0
H206 H 0.07642 0.03973 0.81713 0.0
H207 H 0.14578 0.21709 0.77244 0.0
C208 C 0.88999 0.85861 0.73119 0.0
N209 N 0.78324 0.71923 0.728 0.0
C210 C 0.8198 0.84244 0.72833 0.0
C211 C 0.90609 0.80411 0.73227 0.0
C212 C 0.76653 0.77156 0.72678 0.0
C213 C 0.8513 0.73391 0.73068 0.0
C214 C 0.94302 0.04903 0.79587 0.0
C215 C 0.93168 0.01326 0.81721 0.0
C216 C 0.95599 0.11867 0.79572 0.0
C217 C 0.9342 0.04809 0.8381 0.0
C218 C 0.95822 0.15169 0.81699 0.0
N219 N 0.9474 0.11603 0.83756 0.0
C220 C 0.91501 0.80991 0.79623 0.0
C221 C 0.82395 0.83639 0.78827 0.0
C222 C 0.8685 0.7511 0.80971 0.0
N223 N 0.89206 0.85121 0.78598 0.0
C224 C 0.77568 0.778 0.80136 0.0
C225 C 0.79773 0.73457 0.81242 0.0
H226 H 0.96952 0.82296 0.79408 0.0
H227 H 0.80743 0.87063 0.78012 0.0
C228 C 0.89534 0.03399 0.69891 0.0
N229 N 0.89847 0.04729 0.7223 0.0
C230 C 0.85091 0.04635 0.68444 0.0
C231 C 0.81528 0.0879 0.71833 0.0
C232 C 0.85999 0.07411 0.73219 0.0
C233 C 0.80938 0.07301 0.69412 0.0
H234 H 0.92617 0.01207 0.6916 0.0
H235 H 0.86328 0.0839 0.75088 0.0
O236 O 0.05658 0.96708 0.77247 0.0
O237 O 0.05975 0.07787 0.7364 0.0
O238 O 0.94257 0.92745 0.73343 0.0
O239 O 0.94221 0.01627 0.77527 0.0
H240 H 0.16975 0.07658 0.75353 0.0
H241 H 0.0995 0.89983 0.80068 0.0
H242 H 0.2939 0.10835 0.76141 0.0
H243 H 0.22511 0.93467 0.8078 0.0
H244 H 0.07592 0.29326 0.72898 0.0
H245 H 0.18883 0.14701 0.71828 0.0
H246 H 0.01045 0.16675 0.74052 0.0
H247 H 0.25153 0.27417 0.70733 0.0
H248 H 0.18015 0.86573 0.70665 0.0
H249 H 0.15668 0.01076 0.66072 0.0
H250 H 0.14997 0.11541 0.84925 0.0
H251 H 0.22328 0.2966 0.80328 0.0
H252 H 0.8066 0.88418 0.72756 0.0
H253 H 0.96024 0.81595 0.73461 0.0
H254 H 0.71188 0.75815 0.72468 0.0
H255 H 0.86284 0.69109 0.73163 0.0
H256 H 0.92202 0.95954 0.8177 0.0
H257 H 0.96501 0.14724 0.77941 0.0
H258 H 0.92597 0.0212 0.85475 0.0
H259 H 0.96871 0.20573 0.81714 0.0
H260 H 0.88757 0.71888 0.81786 0.0
H261 H 0.72202 0.7681 0.80332 0.0
H262 H 0.84735 0.03267 0.66603 0.0
H263 H 0.78512 0.10925 0.72658 0.0
Mg264 Mg 0.98572 0.49718 0.25327 0.0
C265 C 0.98527 0.3895 0.28207 0.0
O266 O 0.91947 0.36973 0.27648 0.0
C267 C 0.05639 0.64826 0.23576 0.0
O268 O 0.0335 0.65644 0.25622 0.0
C269 C 0.92696 0.42035 0.20706 0.0
O270 O 0.96119 0.48539 0.19892 0.0
O271 O 0.92052 0.41082 0.22918 0.0
O272 O 0.03428 0.44817 0.27397 0.0
O273 O 0.93366 0.53173 0.27885 0.0
C274 C 0.96152 0.54572 0.29922 0.0
O275 O 0.01319 0.53284 0.30355 0.0
O276 O 0.05125 0.58876 0.23098 0.0
Mg277 Mg 0.50719 1.00439 0.58928 0.0
C278 C 0.48078 0.06121 0.54446 0.0
O279 O 0.51542 0.03103 0.53604 0.0
C280 C 0.59037 0.0616 0.63404 0.0
O281 O 0.52566 0.03192 0.64247 0.0
C282 C 0.35688 0.93671 0.60752 0.0
O283 O 0.34708 0.95443 0.5864 0.0
O284 O 0.4171 0.94424 0.61262 0.0
O285 O 0.47572 0.06483 0.56663 0.0
O286 O 0.5375 0.94423 0.56603 0.0
C287 C 0.59013 0.93666 0.57123 0.0
O288 O 0.61728 0.95428 0.59239 0.0
O289 O 0.599 0.06493 0.61187 0.0
Mg290 Mg 0.51972 0.49824 0.92302 0.0
C291 C 0.40625 0.38888 0.89716 0.0
O292 O 0.44922 0.36641 0.90405 0.0
C293 C 0.62739 0.62046 0.94666 0.0
O294 O 0.65511 0.5823 0.93939 0.0
C295 C 0.48695 0.43284 0.97095 0.0
O296 O 0.502 0.49785 0.9757 0.0
O297 O 0.49672 0.41812 0.95011 0.0
O298 O 0.42024 0.45073 0.90342 0.0
O299 O 0.60107 0.52108 0.89629 0.0
C300 C 0.5876 0.53545 0.87592 0.0
O301 O 0.52437 0.52656 0.87187 0.0
O302 O 0.5628 0.59922 0.9417 0.0
C303 C 0.92371 0.32042 0.15229 0.0
C304 C 0.91743 0.25788 0.16177 0.0
H305 H 0.93035 0.42023 0.15909 0.0
C306 C 0.90392 0.2452 0.18598 0.0
H307 H 0.93231 0.33124 0.13366 0.0
C308 C 0.90156 0.29582 0.20053 0.0
C309 C 0.9132 0.3606 0.19125 0.0
H310 H 0.89919 0.19798 0.19399 0.0
H311 H 0.89493 0.28587 0.21925 0.0
C312 C 0.92187 0.37123 0.16686 0.0
C313 C 0.73633 0.9223 0.54031 0.0
C314 C 0.72092 0.9259 0.51655 0.0
H315 H 0.70652 0.92143 0.57615 0.0
C316 C 0.65704 0.9238 0.51092 0.0
H317 H 0.78427 0.9222 0.54525 0.0
C318 C 0.61195 0.92272 0.5287 0.0
C319 C 0.62981 0.92377 0.55248 0.0
H320 H 0.6436 0.92672 0.49282 0.0
H321 H 0.56495 0.92465 0.52376 0.0
C322 C 0.69138 0.92127 0.55804 0.0
C323 C 0.76691 0.66301 0.84975 0.0
C324 C 0.74716 0.67438 0.82736 0.0
H325 H 0.73179 0.60918 0.88282 0.0
C326 C 0.67665 0.63164 0.8201 0.0
H327 H 0.82084 0.6952 0.85587 0.0
C328 C 0.62593 0.58263 0.83546 0.0
C329 C 0.64441 0.57497 0.85846 0.0
H330 H 0.66007 0.63794 0.80278 0.0
H331 H 0.57142 0.55302 0.82962 0.0
C332 C 0.71594 0.61366 0.86519 0.0
C333 C 0.08143 0.73103 0.17538 0.0
C334 C 0.07792 0.79244 0.18049 0.0
H335 H 0.07893 0.63791 0.18879 0.0
C336 C 0.07554 0.80967 0.20415 0.0
H337 H 0.08448 0.71676 0.15737 0.0
C338 C 0.07297 0.76485 0.22215 0.0
C339 C 0.07261 0.70153 0.21699 0.0
H340 H 0.07212 0.85609 0.2088 0.0
H341 H 0.06814 0.77846 0.24009 0.0
C342 C 0.07896 0.68615 0.19342 0.0
C343 C 0.34012 0.10181 0.52291 0.0
C344 C 0.33408 0.08175 0.49913 0.0
H345 H 0.39166 0.11199 0.55587 0.0
C346 C 0.38252 0.06296 0.49001 0.0
H347 H 0.30479 0.11805 0.53046 0.0
C348 C 0.43305 0.06066 0.50448 0.0
C349 C 0.43621 0.07652 0.52854 0.0
H350 H 0.3793 0.04645 0.4719 0.0
H351 H 0.4674 0.0431 0.49698 0.0
C352 C 0.39047 0.09905 0.53745 0.0
C353 C 0.25919 0.3277 0.85167 0.0
C354 C 0.24472 0.25801 0.84732 0.0
H355 H 0.32111 0.42406 0.87112 0.0
C356 C 0.28146 0.2318 0.86031 0.0
H357 H 0.23141 0.34935 0.84209 0.0
C358 C 0.33182 0.27397 0.87689 0.0
C359 C 0.3475 0.34395 0.88099 0.0
H360 H 0.27292 0.17905 0.85721 0.0
H361 H 0.35957 0.25178 0.88621 0.0
C362 C 0.31004 0.37027 0.86842 0.0
C363 C 0.68987 0.06228 0.68848 0.0
C364 C 0.75682 0.08027 0.67933 0.0
H365 H 0.5856 0.04367 0.68153 0.0
C366 C 0.77091 0.10024 0.65555 0.0
H367 H 0.67653 0.04588 0.70659 0.0
C368 C 0.7181 0.09814 0.64102 0.0
C369 C 0.65007 0.07639 0.64995 0.0
H370 H 0.82229 0.11587 0.64799 0.0
H371 H 0.72986 0.11096 0.62259 0.0
C372 C 0.63735 0.06066 0.67401 0.0
C373 C 0.68102 0.76239 0.99367 0.0
C374 C 0.75437 0.78754 0.99528 0.0
H375 H 0.58279 0.6903 0.97669 0.0
C376 C 0.78511 0.76086 0.97955 0.0
H377 H 0.65572 0.78226 1.00539 0.0
C378 C 0.74379 0.70915 0.96319 0.0
C379 C 0.6703 0.68213 0.96205 0.0
H380 H 0.84098 0.77775 0.98044 0.0
H381 H 0.76951 0.68883 0.95183 0.0
C382 C 0.63934 0.71028 0.97711 0.0
C383 C 0.91281 0.67543 0.3259 0.0
C384 C 0.94273 0.68478 0.34842 0.0
H385 H 0.89467 0.62338 0.29249 0.0
C386 C 0.96969 0.64103 0.3554 0.0
H387 H 0.89174 0.7085 0.31999 0.0
C388 C 0.97132 0.5926 0.33975 0.0
C389 C 0.94597 0.58655 0.3167 0.0
H390 H 0.99169 0.64583 0.3728 0.0
H391 H 0.99517 0.56183 0.34548 0.0
C392 C 0.91442 0.62668 0.31015 0.0
C393 C 0.19618 0.92128 0.63864 0.0
C394 C 0.21555 0.92532 0.66238 0.0
H395 H 0.22479 0.92029 0.60277 0.0
C396 C 0.27773 0.9239 0.66793 0.0
H397 H 0.14782 0.92062 0.63375 0.0
C398 C 0.32171 0.92303 0.65011 0.0
C399 C 0.30448 0.92364 0.62634 0.0
H400 H 0.29438 0.92716 0.68601 0.0
H401 H 0.37092 0.92546 0.65499 0.0
C402 C 0.24008 0.92049 0.62086 0.0
C403 C 0.38844 0.34416 0.02665 0.0
C404 C 0.34363 0.27424 0.01913 0.0
H405 H 0.46991 0.44857 1.01749 0.0
C406 C 0.35357 0.25468 0.99648 0.0
H407 H 0.3834 0.36063 0.04416 0.0
C408 C 0.40391 0.30516 0.98118 0.0
C409 C 0.44515 0.37618 0.98824 0.0
H410 H 0.31981 0.20133 0.99008 0.0
H411 H 0.4075 0.28936 0.96343 0.0
C412 C 0.43848 0.39448 1.0114 0.0
C413 C 0.07401 0.32835 0.32654 0.0
C414 C 0.01779 0.2605 0.33227 0.0
H415 H 0.10857 0.42257 0.30582 0.0
C416 C 0.95265 0.23552 0.32077 0.0
H417 H 0.12501 0.34892 0.335 0.0
C418 C 0.94347 0.27714 0.30418 0.0
C419 C 0.99907 0.34516 0.29856 0.0
H420 H 0.90782 0.18416 0.32499 0.0
H421 H 0.89203 0.256 0.29597 0.0
C422 C 0.06482 0.37025 0.30972 0.0
loop_
_geom_bond_atom_site_label_1
_geom_bond_atom_site_label_2
_geom_bond_distance
_geom_bond_site_symmetry_2
_ccdc_geom_bond_type
Li0 N17 1.990 . S
Li0 O60 1.956 . S
Li0 O61 1.970 1_455 S
Li0 O62 1.961 1_545 S
Li1 N25 1.990 . S
Li1 O60 1.970 1_655 S
Li1 O61 1.956 . S
Li1 O63 1.961 1_545 S
Li2 N47 1.990 . S
Li2 O60 1.961 1_565 S
Li2 O62 1.956 . S
Li2 O63 1.970 1_455 S
Li3 N53 1.990 . S
Li3 O61 1.961 1_565 S
Li3 O62 1.970 1_655 S
Li3 O63 1.956 . S
C4 C6 1.348 . S
C4 C7 1.356 . S
C4 O60 1.325 . S
N5 C8 1.314 . S
N5 C9 1.279 . S
C6 C4 1.348 . S
C6 C8 1.353 . S
C6 H64 0.929 . S
C7 C4 1.356 . S
C7 C9 1.358 . S
C7 H65 0.930 . S
C8 N5 1.314 . S
C8 C6 1.353 . S
C8 H66 0.930 . S
C9 N5 1.279 . S
C9 C7 1.358 . S
C9 H67 0.930 . S
C10 C13 1.348 1_655 S
C10 C14 1.356 . S
C10 O61 1.325 . S
C11 N12 1.279 . S
C11 C14 1.358 . S
C11 H68 0.930 . S
N12 C11 1.279 . S
N12 C15 1.314 . S
C13 C10 1.348 1_455 S
C13 C15 1.353 1_455 S
C13 H69 0.929 . S
C14 C10 1.356 . S
C14 C11 1.358 . S
C14 H70 0.930 . S
C15 N12 1.314 . S
C15 C13 1.353 1_655 S
C15 H71 0.930 1_655 S
C16 N17 1.314 . S
C16 C21 1.353 . S
C16 H22 0.930 . S
N17 Li0 1.990 . S
N17 C16 1.314 . S
N17 C19 1.279 . S
C18 C19 1.358 . S
C18 C20 1.356 . S
C18 H72 0.930 . S
C19 N17 1.279 . S
C19 C18 1.358 . S
C19 H23 0.930 . S
C20 C18 1.356 . S
C20 C21 1.348 . S
C21 C16 1.353 . S
C21 C20 1.348 . S
C21 H73 0.929 1_554 S
H22 C16 0.930 . S
H23 C19 0.930 . S
C24 N25 1.314 . S
C24 C26 1.353 . S
C24 H30 0.930 . S
N25 Li1 1.990 . S
N25 C24 1.314 . S
N25 C28 1.279 . S
C26 C24 1.353 . S
C26 C29 1.348 . S
C26 H74 0.929 . S
C27 C28 1.358 . S
C27 C29 1.356 . S
C27 H75 0.930 . S
C28 N25 1.279 . S
C28 C27 1.358 . S
C28 H31 0.930 . S
C29 C26 1.348 . S
C29 C27 1.356 . S
H30 C24 0.930 . S
H31 C28 0.930 . S
C32 C34 1.348 1_455 S
C32 C35 1.356 . S
C32 O62 1.325 . S
N33 C36 1.314 . S
N33 C37 1.279 . S
C34 C32 1.348 1_655 S
C34 C36 1.353 1_655 S
C34 H76 0.929 . S
C35 C32 1.356 . S
C35 C37 1.358 . S
C35 H77 0.930 . S
C36 N33 1.314 . S
C36 C34 1.353 1_455 S
C36 H78 0.930 1_455 S
C37 N33 1.279 . S
C37 C35 1.358 . S
C37 H79 0.930 . S
C38 C39 1.348 . S
C38 C40 1.356 . S
C38 O63 1.325 . S
C39 C38 1.348 . S
C39 C41 1.353 . S
C39 H80 0.929 . S
C40 C38 1.356 . S
C40 C42 1.358 . S
C40 H81 0.930 . S
C41 C39 1.353 . S
C41 N43 1.314 . S
C41 H82 0.930 . S
C42 C40 1.358 . S
C42 N43 1.279 . S
C42 H83 0.930 . S
N43 C41 1.314 . S
N43 C42 1.279 . S
C44 C46 1.353 . S
C44 N47 1.314 . S
C44 H50 0.930 . S
C45 N47 1.279 . S
C45 C48 1.358 . S
C45 H51 0.930 . S
C46 C44 1.353 . S
C46 C49 1.348 . S
C46 H84 0.929 . S
N47 Li2 1.990 . S
N47 C44 1.314 . S
N47 C45 1.279 . S
C48 C45 1.358 . S
C48 C49 1.356 . S
C48 H85 0.930 . S
C49 C46 1.348 . S
C49 C48 1.356 . S
H50 C44 0.930 . S
H51 C45 0.930 . S
C52 N53 1.314 . S
C52 C54 1.353 . S
C52 H58 0.930 . S
N53 Li3 1.990 . S
N53 C52 1.314 . S
N53 C56 1.279 . S
C54 C52 1.353 . S
C54 C57 1.348 . S
C54 H86 0.929 1_554 S
C55 C56 1.358 . S
C55 C57 1.356 . S
C55 H87 0.930 . S
C56 N53 1.279 . S
C56 C55 1.358 . S
C56 H59 0.930 . S
C57 C54 1.348 . S
C57 C55 1.356 . S
H58 C52 0.930 . S
H59 C56 0.930 . S
O60 Li0 1.956 . S
O60 Li1 1.970 1_455 S
O60 Li2 1.961 1_545 S
O60 C4 1.325 . S
O61 Li0 1.970 1_655 S
O61 Li1 1.956 . S
O61 Li3 1.961 1_545 S
O61 C10 1.325 . S
O62 Li0 1.961 1_565 S
O62 Li2 1.956 . S
O62 Li3 1.970 1_455 S
O62 C32 1.325 . S
O63 Li1 1.961 1_565 S
O63 Li2 1.970 1_655 S
O63 Li3 1.956 . S
O63 C38 1.325 . S
H64 C6 0.929 . S
H65 C7 0.930 . S
H66 C8 0.930 . S
H67 C9 0.930 . S
H68 C11 0.930 . S
H69 C13 0.929 . S
H70 C14 0.930 . S
H71 C15 0.930 1_455 S
H72 C18 0.930 . S
H73 C21 0.929 1_556 S
H74 C26 0.929 . S
H75 C27 0.930 . S
H76 C34 0.929 . S
H77 C35 0.930 . S
H78 C36 0.930 1_655 S
H79 C37 0.930 . S
H80 C39 0.929 . S
H81 C40 0.930 . S
H82 C41 0.930 . S
H83 C42 0.930 . S
H84 C46 0.929 . S
H85 C48 0.930 . S
H86 C54 0.929 1_556 S
H87 C55 0.930 . S
Li88 N105 1.990 . S
Li88 O148 1.956 . S
Li88 O149 1.970 1_665 S
Li88 O150 1.961 . S
Li89 N113 1.990 . S
Li89 O148 1.970 1_445 S
Li89 O149 1.956 . S
Li89 O151 1.961 . S
Li90 N135 1.990 . S
Li90 O148 1.961 . S
Li90 O150 1.956 . S
Li90 O151 1.970 1_665 S
Li91 N141 1.990 . S
Li91 O149 1.961 . S
Li91 O150 1.970 1_445 S
Li91 O151 1.956 . S
C92 C94 1.348 1_655 S
C92 C95 1.356 . S
C92 O148 1.325 . S
N93 C96 1.314 . S
N93 C97 1.279 . S
C94 C92 1.348 1_455 S
C94 C96 1.353 1_455 S
C94 H152 0.929 . S
C95 C92 1.356 . S
C95 C97 1.358 . S
C95 H153 0.930 . S
C96 N93 1.314 . S
C96 C94 1.353 1_655 S
C96 H154 0.930 1_655 S
C97 N93 1.279 . S
C97 C95 1.358 . S
C97 H155 0.930 . S
C98 C101 1.348 1_545 S
C98 C102 1.356 . S
C98 O149 1.325 . S
C99 N100 1.279 . S
C99 C102 1.358 . S
C99 H156 0.930 . S
N100 C99 1.279 . S
N100 C103 1.314 . S
C101 C98 1.348 1_565 S
C101 C103 1.353 1_565 S
C101 H157 0.929 . S
C102 C98 1.356 . S
C102 C99 1.358 . S
C102 H158 0.930 . S
C103 N100 1.314 . S
C103 C101 1.353 1_545 S
C103 H159 0.930 1_545 S
C104 N105 1.314 . S
C104 C109 1.353 . S
C104 H110 0.930 . S
N105 Li88 1.990 . S
N105 C104 1.314 . S
N105 C107 1.279 . S
C106 C107 1.358 . S
C106 C108 1.356 . S
C106 H160 0.930 . S
C107 N105 1.279 . S
C107 C106 1.358 . S
C107 H111 0.930 . S
C108 C106 1.356 . S
C108 C109 1.348 . S
C109 C104 1.353 . S
C109 C108 1.348 . S
C109 H161 0.929 . S
H110 C104 0.930 . S
H111 C107 0.930 . S
C112 N113 1.314 . S
C112 C114 1.353 . S
C112 H118 0.930 . S
N113 Li89 1.990 . S
N113 C112 1.314 . S
N113 C116 1.279 . S
C114 C112 1.353 . S
C114 C117 1.348 . S
C114 H162 0.929 . S
C115 C116 1.358 . S
C115 C117 1.356 . S
C115 H163 0.930 . S
C116 N113 1.279 . S
C116 C115 1.358 . S
C116 H119 0.930 . S
C117 C114 1.348 . S
C117 C115 1.356 . S
H118 C112 0.930 . S
H119 C116 0.930 . S
C120 C122 1.348 1_565 S
C120 C123 1.356 . S
C120 O150 1.325 . S
N121 C124 1.314 . S
N121 C125 1.279 . S
C122 C120 1.348 1_545 S
C122 C124 1.353 1_545 S
C122 H164 0.929 . S
C123 C120 1.356 . S
C123 C125 1.358 . S
C123 H165 0.930 . S
C124 N121 1.314 . S
C124 C122 1.353 1_565 S
C124 H166 0.930 1_565 S
C125 N121 1.279 . S
C125 C123 1.358 . S
C125 H167 0.930 . S
C126 C127 1.348 1_455 S
C126 C128 1.356 . S
C126 O151 1.325 . S
C127 C126 1.348 1_655 S
C127 C129 1.353 1_655 S
C127 H168 0.929 . S
C128 C126 1.356 . S
C128 C130 1.358 . S
C128 H169 0.930 . S
C129 C127 1.353 1_455 S
C129 N131 1.314 . S
C129 H170 0.930 1_455 S
C130 C128 1.358 . S
C130 N131 1.279 . S
C130 H171 0.930 . S
N131 C129 1.314 . S
N131 C130 1.279 . S
C132 C134 1.353 . S
C132 N135 1.314 . S
C132 H138 0.930 . S
C133 N135 1.279 . S
C133 C136 1.358 . S
C133 H139 0.930 . S
C134 C132 1.353 . S
C134 C137 1.348 . S
C134 H172 0.929 . S
N135 Li90 1.990 . S
N135 C132 1.314 . S
N135 C133 1.279 . S
C136 C133 1.358 . S
C136 C137 1.356 . S
C136 H173 0.930 . S
C137 C134 1.348 . S
C137 C136 1.356 . S
H138 C132 0.930 . S
H139 C133 0.930 . S
C140 N141 1.314 . S
C140 C142 1.353 . S
C140 H146 0.930 . S
N141 Li91 1.990 . S
N141 C140 1.314 . S
N141 C144 1.279 . S
C142 C140 1.353 . S
C142 C145 1.348 . S
C142 H174 0.929 . S
C143 C144 1.358 . S
C143 C145 1.356 . S
C143 H175 0.930 . S
C144 N141 1.279 . S
C144 C143 1.358 . S
C144 H147 0.930 . S
C145 C142 1.348 . S
C145 C143 1.356 . S
H146 C140 0.930 . S
H147 C144 0.930 . S
O148 Li88 1.956 . S
O148 Li89 1.970 1_665 S
O148 Li90 1.961 . S
O148 C92 1.325 . S
O149 Li88 1.970 1_445 S
O149 Li89 1.956 . S
O149 Li91 1.961 . S
O149 C98 1.325 . S
O150 Li88 1.961 . S
O150 Li90 1.956 . S
O150 Li91 1.970 1_665 S
O150 C120 1.325 . S
O151 Li89 1.961 . S
O151 Li90 1.970 1_445 S
O151 Li91 1.956 . S
O151 C126 1.325 . S
H152 C94 0.929 . S
H153 C95 0.930 . S
H154 C96 0.930 1_455 S
H155 C97 0.930 . S
H156 C99 0.930 . S
H157 C101 0.929 . S
H158 C102 0.930 . S
H159 C103 0.930 1_565 S
H160 C106 0.930 . S
H161 C109 0.929 . S
H162 C114 0.929 . S
H163 C115 0.930 . S
H164 C122 0.929 . S
H165 C123 0.930 . S
H166 C124 0.930 1_545 S
H167 C125 0.930 . S
H168 C127 0.929 . S
H169 C128 0.930 . S
H170 C129 0.930 1_655 S
H171 C130 0.930 . S
H172 C134 0.929 . S
H173 C136 0.930 . S
H174 C142 0.929 . S
H175 C143 0.930 . S
Li176 N193 1.990 . S
Li176 O236 1.956 . S
Li176 O237 1.970 1_565 S
Li176 O238 1.961 1_455 S
Li177 N201 1.990 . S
Li177 O236 1.970 1_545 S
Li177 O237 1.956 . S
Li177 O239 1.961 1_455 S
Li178 N223 1.990 . S
Li178 O236 1.961 1_655 S
Li178 O238 1.956 . S
Li178 O239 1.970 1_565 S
Li179 N229 1.990 . S
Li179 O237 1.961 1_655 S
Li179 O238 1.970 1_545 S
Li179 O239 1.956 . S
C180 C182 1.348 1_565 S
C180 C183 1.356 . S
C180 O236 1.325 . S
N181 C184 1.314 . S
N181 C185 1.279 . S
C182 C180 1.348 1_545 S
C182 C184 1.353 1_545 S
C182 H240 0.929 . S
C183 C180 1.356 . S
C183 C185 1.358 . S
C183 H241 0.930 . S
C184 N181 1.314 . S
C184 C182 1.353 1_565 S
C184 H242 0.930 1_565 S
C185 N181 1.279 . S
C185 C183 1.358 . S
C185 H243 0.930 . S
C186 C189 1.348 . S
C186 C190 1.356 . S
C186 O237 1.325 . S
C187 N188 1.279 . S
C187 C190 1.358 . S
C187 H244 0.930 . S
N188 C187 1.279 . S
N188 C191 1.314 . S
C189 C186 1.348 . S
C189 C191 1.353 . S
C189 H245 0.929 . S
C190 C186 1.356 . S
C190 C187 1.358 . S
C190 H246 0.930 . S
C191 N188 1.314 . S
C191 C189 1.353 . S
C191 H247 0.930 . S
C192 N193 1.314 . S
C192 C197 1.353 . S
C192 H198 0.930 . S
N193 Li176 1.990 . S
N193 C192 1.314 . S
N193 C195 1.279 . S
C194 C195 1.358 . S
C194 C196 1.356 . S
C194 H248 0.930 . S
C195 N193 1.279 . S
C195 C194 1.358 . S
C195 H199 0.930 . S
C196 C194 1.356 . S
C196 C197 1.348 . S
C197 C192 1.353 . S
C197 C196 1.348 . S
C197 H249 0.929 . S
H198 C192 0.930 . S
H199 C195 0.930 . S
C200 N201 1.314 . S
C200 C202 1.353 . S
C200 H206 0.930 . S
N201 Li177 1.990 . S
N201 C200 1.314 . S
N201 C204 1.279 . S
C202 C200 1.353 . S
C202 C205 1.348 . S
C202 H250 0.929 . S
C203 C204 1.358 . S
C203 C205 1.356 . S
C203 H251 0.930 . S
C204 N201 1.279 . S
C204 C203 1.358 . S
C204 H207 0.930 . S
C205 C202 1.348 . S
C205 C203 1.356 . S
H206 C200 0.930 . S
H207 C204 0.930 . S
C208 C210 1.348 . S
C208 C211 1.356 . S
C208 O238 1.325 . S
N209 C212 1.314 . S
N209 C213 1.279 . S
C210 C208 1.348 . S
C210 C212 1.353 . S
C210 H252 0.929 . S
C211 C208 1.356 . S
C211 C213 1.358 . S
C211 H253 0.930 . S
C212 N209 1.314 . S
C212 C210 1.353 . S
C212 H254 0.930 . S
C213 N209 1.279 . S
C213 C211 1.358 . S
C213 H255 0.930 . S
C214 C215 1.348 1_545 S
C214 C216 1.356 . S
C214 O239 1.325 . S
C215 C214 1.348 1_565 S
C215 C217 1.353 1_565 S
C215 H256 0.929 . S
C216 C214 1.356 . S
C216 C218 1.358 . S
C216 H257 0.930 . S
C217 C215 1.353 1_545 S
C217 N219 1.314 . S
C217 H258 0.930 1_545 S
C218 C216 1.358 . S
C218 N219 1.279 . S
C218 H259 0.930 . S
N219 C217 1.314 . S
N219 C218 1.279 . S
C220 C222 1.353 . S
C220 N223 1.314 . S
C220 H226 0.930 . S
C221 N223 1.279 . S
C221 C224 1.358 . S
C221 H227 0.930 . S
C222 C220 1.353 . S
C222 C225 1.348 . S
C222 H260 0.929 . S
N223 Li178 1.990 . S
N223 C220 1.314 . S
N223 C221 1.279 . S
C224 C221 1.358 . S
C224 C225 1.356 . S
C224 H261 0.930 . S
C225 C222 1.348 . S
C225 C224 1.356 . S
H226 C220 0.930 . S
H227 C221 0.930 . S
C228 N229 1.314 . S
C228 C230 1.353 . S
C228 H234 0.930 . S
N229 Li179 1.990 . S
N229 C228 1.314 . S
N229 C232 1.279 . S
C230 C228 1.353 . S
C230 C233 1.348 . S
C230 H262 0.929 . S
C231 C232 1.358 . S
C231 C233 1.356 . S
C231 H263 0.930 . S
C232 N229 1.279 . S
C232 C231 1.358 . S
C232 H235 0.930 . S
C233 C230 1.348 . S
C233 C231 1.356 . S
H234 C228 0.930 . S
H235 C232 0.930 . S
O236 Li176 1.956 . S
O236 Li177 1.970 1_565 S
O236 Li178 1.961 1_455 S
O236 C180 1.325 . S
O237 Li176 1.970 1_545 S
O237 Li177 1.956 . S
O237 Li179 1.961 1_455 S
O237 C186 1.325 . S
O238 Li176 1.961 1_655 S
O238 Li178 1.956 . S
O238 Li179 1.970 1_565 S
O238 C208 1.325 . S
O239 Li177 1.961 1_655 S
O239 Li178 1.970 1_545 S
O239 Li179 1.956 . S
O239 C214 1.325 . S
H240 C182 0.929 . S
H241 C183 0.930 . S
H242 C184 0.930 1_545 S
H243 C185 0.930 . S
H244 C187 0.930 . S
H245 C189 0.929 . S
H246 C190 0.930 . S
H247 C191 0.930 . S
H248 C194 0.930 . S
H249 C197 0.929 . S
H250 C202 0.929 . S
H251 C203 0.930 . S
H252 C210 0.929 . S
H253 C211 0.930 . S
H254 C212 0.930 . S
H255 C213 0.930 . S
H256 C215 0.929 . S
H257 C216 0.930 . S
H258 C217 0.930 1_565 S
H259 C218 0.930 . S
H260 C222 0.929 . S
H261 C224 0.930 . S
H262 C230 0.929 . S
H263 C231 0.930 . S
Mg264 O271 2.141 . S
Mg264 O272 2.048 . S
Mg264 O273 2.048 . S
Mg264 O276 2.141 . S
C265 O266 1.313 . S
C265 O272 1.195 1_655 S
O266 C265 1.313 . S
C267 O268 1.245 . S
C267 O276 1.289 1_655 S
O268 C267 1.245 . S
C269 O270 1.245 . S
C269 O271 1.289 1_655 S
O270 C269 1.245 . S
O271 Mg264 2.141 . S
O271 C269 1.289 1_455 S
O272 Mg264 2.048 . S
O272 C265 1.195 1_455 S
O273 Mg264 2.048 . S
O273 C274 1.195 1_455 S
C274 O273 1.195 1_655 S
C274 O275 1.313 . S
O275 C274 1.313 . S
O276 Mg264 2.141 . S
O276 C267 1.289 1_455 S
Mg277 O284 2.141 . S
Mg277 O285 2.048 . S
Mg277 O286 2.048 . S
Mg277 O289 2.141 . S
C278 O279 1.313 . S
C278 O285 1.195 1_565 S
O279 C278 1.313 . S
C280 O281 1.245 . S
C280 O289 1.289 1_565 S
O281 C280 1.245 . S
C282 O283 1.245 . S
C282 O284 1.289 1_565 S
O283 C282 1.245 . S
O284 Mg277 2.141 . S
O284 C282 1.289 1_545 S
O285 Mg277 2.048 . S
O285 C278 1.195 1_545 S
O286 Mg277 2.048 . S
O286 C287 1.195 1_545 S
C287 O286 1.195 1_565 S
C287 O288 1.313 . S
O288 C287 1.313 . S
O289 Mg277 2.141 . S
O289 C280 1.289 1_545 S
Mg290 O297 2.141 . S
Mg290 O298 2.048 . S
Mg290 O299 2.048 . S
Mg290 O302 2.141 . S
C291 O292 1.313 . S
C291 O298 1.195 . S
O292 C291 1.313 . S
C293 O294 1.245 . S
C293 O302 1.289 . S
O294 C293 1.245 . S
C295 O296 1.245 . S
C295 O297 1.289 . S
O296 C295 1.245 . S
O297 Mg290 2.141 . S
O297 C295 1.289 . S
O298 Mg290 2.048 . S
O298 C291 1.195 . S
O299 Mg290 2.048 . S
O299 C300 1.195 . S
C300 O299 1.195 . S
C300 O301 1.313 . S
O301 C300 1.313 . S
O302 Mg290 2.141 . S
O302 C293 1.289 . S
C303 C304 1.387 . S
C303 H307 0.950 . S
C303 C312 1.390 . S
C304 C303 1.387 . S
C304 C306 1.387 1_655 S
H305 C312 0.950 . S
C306 C304 1.387 1_455 S
C306 C308 1.390 . S
C306 H310 0.950 . S
H307 C303 0.950 . S
C308 C306 1.390 . S
C308 C309 1.387 1_455 S
C308 H311 0.950 . S
C309 C308 1.387 1_655 S
C309 C312 1.387 . S
H310 C306 0.950 . S
H311 C308 0.950 . S
C312 C303 1.390 . S
C312 H305 0.950 . S
C312 C309 1.387 . S
C313 C314 1.387 . S
C313 H317 0.950 . S
C313 C322 1.390 . S
C314 C313 1.387 . S
C314 C316 1.396 . S
H315 C322 0.950 . S
C316 C314 1.396 . S
C316 C318 1.385 1_565 S
C316 H320 0.947 1_565 S
H317 C313 0.950 . S
C318 C316 1.385 1_545 S
C318 C319 1.387 1_545 S
C318 H321 0.950 . S
C319 C318 1.387 1_565 S
C319 C322 1.387 . S
H320 C316 0.947 1_545 S
H321 C318 0.950 . S
C322 C313 1.390 . S
C322 H315 0.950 . S
C322 C319 1.387 . S
C323 C324 1.387 . S
C323 H327 0.950 . S
C323 C332 1.390 . S
C324 C323 1.387 . S
C324 C326 1.387 . S
H325 C332 0.950 . S
C326 C324 1.387 . S
C326 C328 1.390 . S
C326 H330 0.950 . S
H327 C323 0.950 . S
C328 C326 1.390 . S
C328 C329 1.387 . S
C328 H331 0.950 . S
C329 C328 1.387 . S
C329 C332 1.387 . S
H330 C326 0.950 . S
H331 C328 0.950 . S
C332 C323 1.390 . S
C332 H325 0.950 . S
C332 C329 1.387 . S
C333 C334 1.387 . S
C333 H337 0.950 . S
C333 C342 1.390 . S
C334 C333 1.387 . S
C334 C336 1.384 1_455 S
H335 C342 0.950 . S
C336 C334 1.384 1_655 S
C336 C338 1.390 . S
C336 H340 0.953 . S
H337 C333 0.950 . S
C338 C336 1.390 . S
C338 C339 1.387 1_655 S
C338 H341 0.950 . S
C339 C338 1.387 1_455 S
C339 C342 1.387 . S
H340 C336 0.953 . S
H341 C338 0.950 . S
C342 C333 1.390 . S
C342 H335 0.950 . S
C342 C339 1.387 . S
C343 C344 1.387 . S
C343 H347 0.950 . S
C343 C352 1.390 . S
C344 C343 1.387 . S
C344 C346 1.369 1_545 S
H345 C352 0.950 . S
C346 C344 1.369 1_565 S
C346 C348 1.402 . S
C346 H350 0.957 . S
H347 C343 0.950 . S
C348 C346 1.402 . S
C348 C349 1.387 1_565 S
C348 H351 0.950 . S
C349 C348 1.387 1_545 S
C349 C352 1.387 . S
H350 C346 0.957 . S
H351 C348 0.950 . S
C352 C343 1.390 . S
C352 H345 0.950 . S
C352 C349 1.387 . S
C353 C354 1.387 . S
C353 H357 0.950 . S
C353 C362 1.390 . S
C354 C353 1.387 . S
C354 C356 1.387 . S
H355 C362 0.950 . S
C356 C354 1.387 . S
C356 C358 1.390 . S
C356 H360 0.950 . S
H357 C353 0.950 . S
C358 C356 1.390 . S
C358 C359 1.387 . S
C358 H361 0.950 . S
C359 C358 1.387 . S
C359 C362 1.387 . S
H360 C356 0.950 . S
H361 C358 0.950 . S
C362 C353 1.390 . S
C362 H355 0.950 . S
C362 C359 1.387 . S
C363 C364 1.387 1_565 S
C363 H367 0.950 . S
C363 C372 1.390 . S
C364 C363 1.387 1_545 S
C364 C366 1.387 . S
H365 C372 0.950 . S
C366 C364 1.387 . S
C366 C368 1.390 . S
C366 H370 0.950 . S
H367 C363 0.950 . S
C368 C366 1.390 . S
C368 C369 1.387 . S
C368 H371 0.950 . S
C369 C368 1.387 . S
C369 C372 1.387 1_545 S
H370 C366 0.950 . S
H371 C368 0.950 . S
C372 C363 1.390 . S
C372 H365 0.950 . S
C372 C369 1.387 1_565 S
C373 C374 1.387 . S
C373 H377 0.950 . S
C373 C382 1.390 . S
C374 C373 1.387 . S
C374 C376 1.387 . S
H375 C382 0.950 . S
C376 C374 1.387 . S
C376 C378 1.390 . S
C376 H380 0.950 . S
H377 C373 0.950 . S
C378 C376 1.390 . S
C378 C379 1.387 . S
C378 H381 0.950 . S
C379 C378 1.387 . S
C379 C382 1.387 . S
H380 C376 0.950 . S
H381 C378 0.950 . S
C382 C373 1.390 . S
C382 H375 0.950 . S
C382 C379 1.387 . S
C383 C384 1.387 . S
C383 H387 0.950 . S
C383 C392 1.390 1_655 S
C384 C383 1.387 . S
C384 C386 1.387 . S
H385 C392 0.950 . S
C386 C384 1.387 . S
C386 C388 1.390 . S
C386 H390 0.950 . S
H387 C383 0.950 . S
C388 C386 1.390 . S
C388 C389 1.387 . S
C388 H391 0.950 . S
C389 C388 1.387 . S
C389 C392 1.387 1_655 S
H390 C386 0.950 . S
H391 C388 0.950 . S
C392 C383 1.390 1_455 S
C392 H385 0.950 . S
C392 C389 1.387 1_455 S
C393 C394 1.387 . S
C393 H397 0.950 . S
C393 C402 1.390 . S
C394 C393 1.387 . S
C394 C396 1.387 1_565 S
H395 C402 0.950 . S
C396 C394 1.387 1_545 S
C396 C398 1.390 . S
C396 H400 0.950 . S
H397 C393 0.950 . S
C398 C396 1.390 . S
C398 C399 1.387 1_545 S
C398 H401 0.950 . S
C399 C398 1.387 1_565 S
C399 C402 1.387 . S
H400 C396 0.950 . S
H401 C398 0.950 . S
C402 C393 1.390 . S
C402 H395 0.950 . S
C402 C399 1.387 . S
C403 C404 1.387 . S
C403 H407 0.950 . S
C403 C412 1.390 . S
C404 C403 1.387 . S
C404 C406 1.387 . S
H405 C412 0.950 . S
C406 C404 1.387 . S
C406 C408 1.390 . S
C406 H410 0.950 . S
H407 C403 0.950 . S
C408 C406 1.390 . S
C408 C409 1.387 . S
C408 H411 0.950 . S
C409 C408 1.387 . S
C409 C412 1.387 . S
H410 C406 0.950 . S
H411 C408 0.950 . S
C412 C403 1.390 . S
C412 H405 0.950 . S
C412 C409 1.387 . S
C413 C414 1.387 . S
C413 H417 0.950 . S
C413 C422 1.390 . S
C414 C413 1.387 . S
C414 C416 1.387 . S
H415 C422 0.950 . S
C416 C414 1.387 . S
C416 C418 1.390 . S
C416 H420 0.950 . S
H417 C413 0.950 . S
C418 C416 1.390 . S
C418 C419 1.387 . S
C418 H421 0.950 . S
C419 C418 1.387 . S
C419 C422 1.387 . S
H420 C416 0.950 . S
H421 C418 0.950 . S
C422 C413 1.390 . S
C422 H415 0.950 . S
C422 C419 1.387 . S
C309 C269 1.477 . S
C304 C29 1.483 . S
C314 C137 1.543 . S
C319 C287 1.548 . S
C324 C225 1.545 . S
C329 C300 1.551 . S
C334 C49 1.484 . S
C339 C267 1.542 1_455 S
C349 C278 1.594 1_545 S
C344 C117 1.541 . S
C354 C205 1.543 . S
C359 C291 1.594 . S
C369 C280 1.537 1_545 S
C364 C233 1.482 . S
C374 C57 1.484 1_556 S
C379 C293 1.542 . S
C389 C274 1.546 . S
C384 C108 1.544 . S
C399 C282 1.475 . S
C394 C196 1.481 . S
C409 C295 1.476 . S
C404 C20 1.482 1_556 S
C414 C145 1.540 . S
C419 C265 1.591 1_455 S
