# Generated by pormake.
# Topology nia, (6,6)-cn, num edge types: 1
# Building blocks:
#     Node 0, Type 0, BuildingBlock: HISSIN_clean_sbu_0, # of connection points: 6
#     Node 1, Type 0, BuildingBlock: HISSIN_clean_sbu_0, # of connection points: 6
#     Node 2, Type 1, BuildingBlock: MIDCAF_clean_sbu_0, # of connection points: 6
#     Node 3, Type 1, BuildingBlock: MIDCAF_clean_sbu_0, # of connection points: 6
#     Edge 4, Type (0, 1), BuildingBlock: TEMPAE_clean_linker_10, # of connection points: 2
#     Edge 5, Type (0, 1), BuildingBlock: TEMPAE_clean_linker_10, # of connection points: 2
#     Edge 6, Type (0, 1), BuildingBlock: TEMPAE_clean_linker_10, # of connection points: 2
#     Edge 7, Type (0, 1), BuildingBlock: TEMPAE_clean_linker_10, # of connection points: 2
#     Edge 8, Type (0, 1), BuildingBlock: TEMPAE_clean_linker_10, # of connection points: 2
#     Edge 9, Type (0, 1), BuildingBlock: TEMPAE_clean_linker_10, # of connection points: 2
#     Edge 10, Type (0, 1), BuildingBlock: TEMPAE_clean_linker_10, # of connection points: 2
#     Edge 11, Type (0, 1), BuildingBlock: TEMPAE_clean_linker_10, # of connection points: 2
#     Edge 12, Type (0, 1), BuildingBlock: TEMPAE_clean_linker_10, # of connection points: 2
#     Edge 13, Type (0, 1), BuildingBlock: TEMPAE_clean_linker_10, # of connection points: 2
#     Edge 14, Type (0, 1), BuildingBlock: TEMPAE_clean_linker_10, # of connection points: 2
#     Edge 15, Type (0, 1), BuildingBlock: TEMPAE_clean_linker_10, # of connection points: 2
# Relax obj value: 0.353
# Max RMSD: 0.264
# Mean RMSD: 0.253
data_MOF--net-nia--node1-HISSIN_clean_sbu_0--node2-MIDCAF_clean_sbu_0--edge1-TEMPAE_clean_linker_10
_symmetry_space_group_name_H-M    P1
_symmetry_Int_Tables_number       1
_symmetry_cell_setting            triclinic
loop_
_symmetry_equiv_pos_as_xyz
'x, y, z'
_cell_length_a     25.921719
_cell_length_b     25.891546
_cell_length_c     33.966995
_cell_angle_alpha  81.430671
_cell_angle_beta   81.294111
_cell_angle_gamma 116.85533
loop_
_atom_site_label
_atom_site_type_symbol
_atom_site_fract_x
_atom_site_fract_y
_atom_site_fract_z
_atom_type_partial_charge
Eu0 Eu 0.02822 0.08914 0.03962 0.0
Eu1 Eu 0.99604 0.97765 0.99801 0.0
C2 C 0.13118 0.09356 0.96844 0.0
C3 C 0.02159 0.198 0.10403 0.0
C4 C 0.03269 0.2567 0.09049 0.0
C5 C 0.97649 0.19548 0.17293 0.0
C6 C 0.01856 0.28558 0.11833 0.0
C7 C 0.99026 0.16642 0.14497 0.0
C8 C 0.99375 0.25633 0.16028 0.0
C9 C 0.05143 0.17452 0.07735 0.0
O10 O 0.00329 0.94893 0.06244 0.0
O11 O 0.07415 0.04017 0.06394 0.0
C12 C 0.04764 0.98212 0.07711 0.0
O13 O 0.93373 0.02033 0.07702 0.0
O14 O 0.94852 0.91771 0.96173 0.0
O15 O 0.00803 0.9005 0.99344 0.0
O16 O 0.90535 0.95853 0.03352 0.0
C17 C 0.89191 0.97689 0.06571 0.0
O18 O 0.97664 0.10057 0.99439 0.0
O19 O 0.99185 0.04659 0.95071 0.0
O20 O 0.09604 0.03659 0.97089 0.0
O21 O 0.04691 0.12315 0.09322 0.0
O22 O 0.0491 0.18121 0.0389 0.0
O23 O 0.11188 0.12413 0.98815 0.0
C24 C 0.99371 0.86478 0.93393 0.0
C25 C 0.99119 0.80909 0.94237 0.0
C26 C 0.02142 0.87279 0.86082 0.0
C27 C 1.00132 0.78422 0.91047 0.0
C28 C 0.01103 0.89769 0.89302 0.0
C29 C 0.01435 0.8147 0.86926 0.0
C30 C 0.97339 0.88437 0.96851 0.0
C31 C 0.97551 0.08588 0.95901 0.0
H32 H 0.05668 0.28188 0.0591 0.0
H33 H 0.95702 0.17191 0.20504 0.0
H34 H 0.033 0.33269 0.10767 0.0
H35 H 0.98037 0.12072 0.15621 0.0
H36 H 0.97812 0.78324 0.97381 0.0
H37 H 0.03203 0.8977 0.82946 0.0
H38 H 0.99428 0.73905 0.91846 0.0
H39 H 0.014 0.9413 0.88595 0.0
Eu40 Eu 0.9577 0.01864 0.49751 0.0
Eu41 Eu 0.07176 0.05349 0.53643 0.0
C42 C 0.95776 0.91619 0.56642 0.0
C43 C 0.82669 0.9444 0.44986 0.0
C44 C 0.84416 0.90713 0.43233 0.0
C45 C 0.73044 0.89383 0.43522 0.0
C46 C 0.80506 0.86411 0.4153 0.0
C47 C 0.76945 0.93679 0.4519 0.0
C48 C 0.74812 0.85769 0.41622 0.0
C49 C 0.86808 0.99354 0.4643 0.0
O50 O 0.09808 0.04579 0.47165 0.0
O51 O 0.0071 0.97529 0.46886 0.0
C52 C 0.06537 0.00171 0.45646 0.0
O53 O 0.02414 0.11239 0.45979 0.0
O54 O 0.13514 0.10404 0.56965 0.0
O55 O 0.14833 0.04035 0.54036 0.0
O56 O 0.09018 0.1438 0.50008 0.0
C57 C 0.06864 0.15526 0.46921 0.0
O58 O 0.94763 0.07019 0.54334 0.0
O59 O 0.00499 0.05847 0.58517 0.0
O60 O 0.0136 0.9535 0.56543 0.0
O61 O 0.86226 0.98448 0.50393 0.0
O62 O 0.92363 0.02128 0.44323 0.0
O63 O 0.92686 0.93311 0.54555 0.0
C64 C 0.18736 0.05887 0.59811 0.0
C65 C 0.24399 0.06363 0.58985 0.0
C66 C 0.1784 0.03038 0.67127 0.0
C67 C 0.26869 0.05398 0.6219 0.0
C68 C 0.15364 0.04023 0.63893 0.0
C69 C 0.23709 0.03917 0.66307 0.0
C70 C 0.16703 0.07751 0.56347 0.0
C71 C 0.9641 0.0729 0.57801 0.0
H72 H 0.88837 0.91237 0.43084 0.0
H73 H 0.6873 0.89082 0.43557 0.0
H74 H 0.81957 0.83678 0.4008 0.0
H75 H 0.75556 0.96537 0.46528 0.0
H76 H 0.27044 0.07774 0.55848 0.0
H77 H 0.15272 0.01851 0.70259 0.0
H78 H 0.31436 0.06245 0.61415 0.0
H79 H 0.10933 0.03557 0.6458 0.0
Zn80 Zn 0.33171 0.74263 0.18458 0.0
Zn81 Zn 0.30165 0.70863 0.34265 0.0
Zn82 Zn 0.31192 0.72752 0.26461 0.0
C83 C 0.42075 0.75035 0.30423 0.0
C84 C 0.23639 0.59552 0.33481 0.0
O85 O 0.27089 0.78415 0.2454 0.0
O86 O 0.2934 0.79348 0.17833 0.0
C87 C 0.44519 0.79055 0.19218 0.0
O88 O 0.4015 0.75555 0.27197 0.0
O89 O 0.38618 0.73064 0.33967 0.0
O90 O 0.24489 0.62237 0.36324 0.0
O91 O 0.25805 0.62656 0.2969 0.0
O92 O 0.41981 0.78275 0.16304 0.0
O93 O 0.41278 0.77265 0.22968 0.0
O94 O 0.25668 0.64064 0.25466 0.0
O95 O 0.28036 0.65639 0.18695 0.0
C96 C 0.24982 0.62168 0.22191 0.0
O97 O 0.2704 0.78163 0.28827 0.0
O98 O 0.27217 0.76426 0.35357 0.0
C99 C 0.26914 0.80445 0.20877 0.0
C100 C 0.25945 0.78943 0.32475 0.0
Zn101 Zn 0.69457 0.32595 0.84837 0.0
Zn102 Zn 0.72232 0.35321 0.68878 0.0
Zn103 Zn 0.71021 0.3378 0.76856 0.0
C104 C 0.77108 0.46895 0.69634 0.0
C105 C 0.60001 0.27852 0.72966 0.0
O106 O 0.75625 0.28699 0.78995 0.0
O107 O 0.72956 0.27196 0.85741 0.0
C108 C 0.77082 0.44802 0.80736 0.0
O109 O 0.75712 0.43868 0.73405 0.0
O110 O 0.75939 0.44118 0.66854 0.0
O111 O 0.63506 0.30166 0.69417 0.0
O112 O 0.61995 0.28916 0.76167 0.0
O113 O 0.74741 0.41312 0.84289 0.0
O114 O 0.75973 0.42801 0.77542 0.0
O115 O 0.60927 0.29219 0.80299 0.0
O116 O 0.60679 0.29046 0.86843 0.0
C117 C 0.57903 0.27898 0.84064 0.0
O118 O 0.7605 0.2909 0.74731 0.0
O119 O 0.7752 0.31699 0.67989 0.0
C120 C 0.75632 0.26414 0.82646 0.0
C121 C 0.7831 0.2904 0.71081 0.0
C122 C 0.10679 0.98818 0.13009 0.0
C123 C 0.07083 0.95453 0.10644 0.0
C124 C 0.13445 0.96512 0.15463 0.0
C125 C 0.12719 0.90744 0.15491 0.0
C126 C 0.08851 0.87218 0.13271 0.0
C127 C 0.06042 0.89591 0.10909 0.0
C128 C 0.17363 0.00352 0.1788 0.0
C129 C 0.07983 0.81074 0.13169 0.0
C130 C 0.25745 0.87908 0.16141 0.0
C131 C 0.23734 0.83878 0.19998 0.0
C132 C 0.223 0.90326 0.1473 0.0
C133 C 0.16693 0.88778 0.17258 0.0
C134 C 0.14812 0.85052 0.21286 0.0
C135 C 0.18317 0.82567 0.22589 0.0
C136 C 0.24533 0.94276 0.10421 0.0
C137 C 0.08979 0.83457 0.24147 0.0
H138 H 0.11436 0.03321 0.12879 0.0
H139 H 0.03268 0.86952 0.09102 0.0
H140 H 0.16127 0.97795 0.2111 0.0
H141 H 0.22091 0.01656 0.16567 0.0
H142 H 0.17013 0.04476 0.17863 0.0
H143 H 0.04442 0.78692 0.11615 0.0
H144 H 0.12226 0.81467 0.11507 0.0
H145 H 0.06799 0.78332 0.16335 0.0
H146 H 0.29941 0.88972 0.14122 0.0
H147 H 0.1669 0.79401 0.2555 0.0
H148 H 0.24606 0.98581 0.10472 0.0
H149 H 0.21461 0.92075 0.08518 0.0
H150 H 0.29089 0.95234 0.08907 0.0
H151 H 0.0839 0.87454 0.24072 0.0
H152 H 0.08693 0.81492 0.27365 0.0
H153 H 0.05234 0.80153 0.23136 0.0
C154 C 0.26551 0.07718 0.72411 0.0
C155 C 0.27008 0.04433 0.69571 0.0
C156 C 0.31165 0.10372 0.74341 0.0
C157 C 0.36368 0.09842 0.73313 0.0
C158 C 0.36356 0.05683 0.71041 0.0
C159 C 0.31605 0.02942 0.69239 0.0
C160 C 0.30801 0.14403 0.77008 0.0
C161 C 0.41713 0.04779 0.70022 0.0
C162 C 0.5096 0.2431 0.70263 0.0
C163 C 0.53684 0.23599 0.73395 0.0
C164 C 0.45241 0.19929 0.70304 0.0
C165 C 0.42168 0.14678 0.73563 0.0
C166 C 0.44828 0.14025 0.76816 0.0
C167 C 0.50573 0.18513 0.76691 0.0
C168 C 0.42608 0.20825 0.66748 0.0
C169 C 0.41854 0.085 0.80316 0.0
H170 H 0.22956 0.08802 0.72788 0.0
H171 H 0.31828 0.00159 0.67202 0.0
H172 H 0.33605 0.14787 0.79221 0.0
H173 H 0.32416 0.18924 0.75041 0.0
H174 H 0.26121 0.12716 0.78727 0.0
H175 H 0.40701 0.00846 0.68708 0.0
H176 H 0.4539 0.08807 0.67743 0.0
H177 H 0.43325 0.04172 0.72806 0.0
H178 H 0.53377 0.28249 0.67717 0.0
H179 H 0.52725 0.17901 0.79083 0.0
H180 H 0.38357 0.20805 0.67888 0.0
H181 H 0.41601 0.17109 0.65207 0.0
H182 H 0.45654 0.25102 0.64422 0.0
H183 H 0.36952 0.05965 0.80728 0.0
H184 H 0.42816 0.09696 0.83231 0.0
H185 H 0.43742 0.0553 0.79705 0.0
C186 C 0.99076 0.34186 0.18399 0.0
C187 C 1.0013 0.29312 0.19052 0.0
C188 C 0.02036 0.39064 0.20049 0.0
C189 C 0.06154 0.39031 0.22338 0.0
C190 C 0.06469 0.33739 0.23543 0.0
C191 C 0.03412 0.28902 0.21897 0.0
C192 C 0.0138 0.44548 0.18874 0.0
C193 C 0.10711 0.33473 0.26048 0.0
C194 C 0.20854 0.53366 0.19231 0.0
C195 C 0.20389 0.56026 0.22462 0.0
C196 C 0.16268 0.47787 0.19214 0.0
C197 C 0.1109 0.44788 0.22525 0.0
C198 C 0.10675 0.47357 0.25871 0.0
C199 C 0.15312 0.52998 0.25772 0.0
C200 C 0.16923 0.45173 0.15595 0.0
C201 C 0.05286 0.4433 0.29483 0.0
H202 H 0.96429 0.34445 0.16269 0.0
H203 H 0.04225 0.25131 0.22442 0.0
H204 H 0.01214 0.46543 0.21532 0.0
H205 H 0.05311 0.47937 0.16387 0.0
H206 H 0.97293 0.43517 0.17755 0.0
H207 H 0.09106 0.2883 0.27808 0.0
H208 H 0.15133 0.35042 0.23951 0.0
H209 H 0.11327 0.36395 0.28205 0.0
H210 H 0.24777 0.55699 0.16671 0.0
H211 H 0.14859 0.55106 0.28232 0.0
H212 H 0.13289 0.44542 0.14036 0.0
H213 H 0.16542 0.40724 0.16667 0.0
H214 H 0.21268 0.48061 0.13302 0.0
H215 H 0.02099 0.4594 0.28901 0.0
H216 H 0.0657 0.45475 0.32341 0.0
H217 H 0.02951 0.394 0.29991 0.0
C218 C 0.96616 0.12218 0.63737 0.0
C219 C 0.93706 0.09572 0.60828 0.0
C220 C 0.94369 0.15049 0.6621 0.0
C221 C 0.89068 0.15194 0.65788 0.0
C222 C 0.85928 0.12179 0.6305 0.0
C223 C 0.88292 0.09457 0.60601 0.0
C224 C 0.9783 0.18149 0.69114 0.0
C225 C 0.80206 0.12096 0.62538 0.0
C226 C 0.80181 0.20273 0.72767 0.0
C227 C 0.81823 0.259 0.70316 0.0
C228 C 0.8284 0.16873 0.71519 0.0
C229 C 0.87189 0.19136 0.67714 0.0
C230 C 0.89161 0.25007 0.65411 0.0
C231 C 0.86448 0.28282 0.66727 0.0
C232 C 0.80666 0.10704 0.74139 0.0
C233 C 0.93852 0.27694 0.61384 0.0
H234 H 0.00788 0.12319 0.63954 0.0
H235 H 0.85942 0.07345 0.5842 0.0
H236 H 0.99981 0.23058 0.67889 0.0
H237 H 0.94796 0.17014 0.72163 0.0
H238 H 0.01353 0.16944 0.69525 0.0
H239 H 0.77991 0.09066 0.60609 0.0
H240 H 0.77047 0.10655 0.65581 0.0
H241 H 0.81174 0.1667 0.6107 0.0
H242 H 0.76589 0.18381 0.75532 0.0
H243 H 0.8779 0.32657 0.64837 0.0
H244 H 0.84328 0.09578 0.74033 0.0
H245 H 0.77171 0.07386 0.72954 0.0
H246 H 0.78696 0.10278 0.77391 0.0
H247 H 0.97764 0.27121 0.61726 0.0
H248 H 0.95403 0.32528 0.60221 0.0
H249 H 0.91987 0.25349 0.59039 0.0
C250 C 0.81001 0.96436 0.12455 0.0
C251 C 0.82736 0.94833 0.08903 0.0
C252 C 0.74914 0.93893 0.14549 0.0
C253 C 0.70378 0.89666 0.13059 0.0
C254 C 0.72113 0.8796 0.09524 0.0
C255 C 0.78214 0.90533 0.07512 0.0
C256 C 0.73322 0.95807 0.18327 0.0
C257 C 0.67499 0.83471 0.07807 0.0
C258 C 0.543 0.79318 0.19682 0.0
C259 C 0.51203 0.82107 0.18169 0.0
C260 C 0.6055 0.81814 0.18172 0.0
C261 C 0.63822 0.87233 0.15045 0.0
C262 C 0.60709 0.90135 0.13603 0.0
C263 C 0.54475 0.87523 0.15146 0.0
C264 C 0.63583 0.7846 0.19764 0.0
C265 C 0.63931 0.95905 0.10299 0.0
H266 H 0.84402 0.99722 0.13594 0.0
H267 H 0.79428 0.89214 0.04789 0.0
H268 H 0.70924 0.98337 0.17673 0.0
H269 H 0.70266 0.91837 0.20892 0.0
H270 H 0.77326 0.98669 0.1934 0.0
H271 H 0.69548 0.82424 0.05139 0.0
H272 H 0.64602 0.79264 0.10219 0.0
H273 H 0.64587 0.85227 0.06816 0.0
H274 H 0.51795 0.75017 0.21881 0.0
H275 H 0.5211 0.89667 0.1391 0.0
H276 H 0.67943 0.81571 0.20257 0.0
H277 H 0.64467 0.76166 0.17451 0.0
H278 H 0.60785 0.75041 0.22681 0.0
H279 H 0.67797 0.99246 0.1119 0.0
H280 H 0.60977 0.97821 0.09699 0.0
H281 H 0.657 0.95115 0.07398 0.0
C282 C 0.96025 0.83196 0.61364 0.0
C283 C 0.92921 0.8521 0.59065 0.0
C284 C 0.9353 0.77136 0.63466 0.0
C285 C 0.87745 0.72861 0.63288 0.0
C286 C 0.84551 0.74892 0.61027 0.0
C287 C 0.87143 0.80994 0.58976 0.0
C288 C 0.97292 0.75388 0.65727 0.0
C289 C 0.78449 0.70566 0.60652 0.0
C290 C 0.84257 0.56561 0.64469 0.0
C291 C 0.8021 0.53609 0.68349 0.0
C292 C 0.86783 0.62768 0.62861 0.0
C293 C 0.85233 0.66237 0.65147 0.0
C294 C 0.81216 0.63302 0.69116 0.0
C295 C 0.78789 0.57053 0.70671 0.0
C296 C 0.91001 0.6559 0.58637 0.0
C297 C 0.79179 0.66619 0.71686 0.0
H298 H 0.00486 0.86344 0.61482 0.0
H299 H 0.84662 0.82431 0.5722 0.0
H300 H 0.94665 0.70924 0.67875 0.0
H301 H 0.0085 0.75367 0.63466 0.0
H302 H 0.99525 0.78716 0.67472 0.0
H303 H 0.76554 0.72795 0.58747 0.0
H304 H 0.78704 0.67048 0.59256 0.0
H305 H 0.75346 0.68318 0.63748 0.0
H306 H 0.85403 0.53968 0.62635 0.0
H307 H 0.75595 0.54838 0.73636 0.0
H308 H 0.95443 0.68966 0.58851 0.0
H309 H 0.89326 0.67939 0.56618 0.0
H310 H 0.91566 0.62261 0.57166 0.0
H311 H 0.82365 0.71478 0.70872 0.0
H312 H 0.78493 0.64764 0.75006 0.0
H313 H 0.74815 0.66001 0.7121 0.0
C314 C 0.06058 0.93473 0.40855 0.0
C315 C 0.09459 0.97955 0.427 0.0
C316 C 0.08682 0.90882 0.38445 0.0
C317 C 0.14853 0.92744 0.37894 0.0
C318 C 0.18364 0.97506 0.39548 0.0
C319 C 0.1564 0.00057 0.4191 0.0
C320 C 0.04772 0.85896 0.36693 0.0
C321 C 0.24942 0.99636 0.39074 0.0
C322 C 0.19715 0.80948 0.37706 0.0
C323 C 0.22835 0.82372 0.33591 0.0
C324 C 0.1705 0.84219 0.39084 0.0
C325 C 0.17392 0.89057 0.36283 0.0
C326 C 0.20356 0.90428 0.32081 0.0
C327 C 0.23111 0.87115 0.30793 0.0
C328 C 0.13978 0.82558 0.43591 0.0
C329 C 0.20715 0.95457 0.28969 0.0
H330 H 0.01294 0.9185 0.41393 0.0
H331 H 0.18336 0.03535 0.43289 0.0
H332 H 0.06951 0.86542 0.33452 0.0
H333 H 0.04094 0.81577 0.38457 0.0
H334 H 0.00329 0.85589 0.36832 0.0
H335 H 0.27194 0.0384 0.40066 0.0
H336 H 0.2554 0.96154 0.40961 0.0
H337 H 0.27181 0.00377 0.35831 0.0
H338 H 0.19406 0.77263 0.39906 0.0
H339 H 0.25608 0.88339 0.27637 0.0
H340 H 0.09268 0.81545 0.43955 0.0
H341 H 0.16206 0.86376 0.44964 0.0
H342 H 0.14032 0.78619 0.4536 0.0
H343 H 0.16199 0.94955 0.29132 0.0
H344 H 0.22698 0.95626 0.25782 0.0
H345 H 0.23469 0.99781 0.29676 0.0
C346 C 0.23667 0.18175 0.94431 0.0
C347 C 0.1954 0.12318 0.94417 0.0
C348 C 0.29792 0.20808 0.92412 0.0
C349 C 0.31932 0.17571 0.90267 0.0
C350 C 0.27738 0.1172 0.90147 0.0
C351 C 0.21663 0.09189 0.92213 0.0
C352 C 0.34029 0.27001 0.92698 0.0
C353 C 0.29599 0.07924 0.87995 0.0
C354 C 0.47801 0.26273 0.82943 0.0
C355 C 0.51193 0.24923 0.85347 0.0
C356 C 0.41559 0.23931 0.84459 0.0
C357 C 0.38576 0.20093 0.88483 0.0
C358 C 0.41997 0.18643 0.90867 0.0
C359 C 0.48194 0.21065 0.8929 0.0
C360 C 0.38299 0.2585 0.81774 0.0
C361 C 0.39127 0.14616 0.95154 0.0
H362 H 0.22144 0.20676 0.96112 0.0
H363 H 0.18588 0.0467 0.92147 0.0
H364 H 0.37507 0.26865 0.94191 0.0
H365 H 0.36333 0.29991 0.89569 0.0
H366 H 0.31718 0.28952 0.94476 0.0
H367 H 0.26262 0.05466 0.86323 0.0
H368 H 0.34021 0.10581 0.85797 0.0
H369 H 0.2978 0.04549 0.90319 0.0
H370 H 0.50049 0.29332 0.7993 0.0
H371 H 0.50739 0.19975 0.91192 0.0
H372 H 0.40168 0.26346 0.78487 0.0
H373 H 0.38952 0.3029 0.82105 0.0
H374 H 0.33436 0.22693 0.82603 0.0
H375 H 0.36745 0.16391 0.97053 0.0
H376 H 0.42429 0.14161 0.96707 0.0
H377 H 0.35777 0.10107 0.95022 0.0
C378 C 0.06256 0.23315 0.41859 0.0
C379 C 0.09364 0.21846 0.4448 0.0
C380 C 0.08325 0.29257 0.39699 0.0
C381 C 0.13732 0.33932 0.40084 0.0
C382 C 0.16956 0.32461 0.42662 0.0
C383 C 0.14731 0.26477 0.44834 0.0
C384 C 0.04481 0.30425 0.3717 0.0
C385 C 0.22692 0.37255 0.43222 0.0
C386 C 0.22152 0.49477 0.32502 0.0
C387 C 0.2044 0.5286 0.34708 0.0
C388 C 0.19876 0.43282 0.34132 0.0
C389 C 0.15808 0.40386 0.38072 0.0
C390 C 0.13828 0.43735 0.40183 0.0
C391 C 0.16174 0.49888 0.38497 0.0
C392 C 0.22075 0.39933 0.31709 0.0
C393 C 0.09345 0.4085 0.44304 0.0
H394 H 0.02072 0.19831 0.41565 0.0
H395 H 0.17192 0.25436 0.46836 0.0
H396 H 0.06719 0.35009 0.35175 0.0
H397 H 0.03069 0.27181 0.35231 0.0
H398 H 0.00363 0.29703 0.39269 0.0
H399 H 0.24793 0.35397 0.45208 0.0
H400 H 0.25912 0.39791 0.40191 0.0
H401 H 0.218 0.40468 0.44628 0.0
H402 H 0.25481 0.51717 0.29595 0.0
H403 H 0.14781 0.52437 0.40221 0.0
H404 H 0.18514 0.35274 0.32121 0.0
H405 H 0.25813 0.39745 0.32819 0.0
H406 H 0.23735 0.42188 0.28378 0.0
H407 H 0.05197 0.37067 0.44025 0.0
H408 H 0.08186 0.44034 0.45537 0.0
H409 H 0.11154 0.39009 0.46552 0.0
C410 C 0.92758 0.08463 0.89922 0.0
C411 C 0.95239 0.11291 0.92913 0.0
C412 C 0.89901 0.10674 0.87466 0.0
C413 C 0.89572 0.15866 0.87982 0.0
C414 C 0.92413 0.18931 0.9081 0.0
C415 C 0.95156 0.16594 0.93248 0.0
C416 C 0.86971 0.07289 0.84474 0.0
C417 C 0.923 0.24543 0.9142 0.0
C418 C 0.845 0.24718 0.81002 0.0
C419 C 0.78803 0.2294 0.83402 0.0
C420 C 0.8794 0.22129 0.82266 0.0
C421 C 0.85634 0.17701 0.86031 0.0
C422 C 0.797 0.15586 0.88274 0.0
C423 C 0.76391 0.18245 0.86948 0.0
C424 C 0.94186 0.24466 0.79717 0.0
C425 C 0.76968 0.10795 0.9225 0.0
H426 H 0.92806 0.04374 0.89627 0.0
H427 H 0.97135 0.18875 0.95498 0.0
H428 H 0.82048 0.05102 0.85617 0.0
H429 H 0.88197 0.10388 0.81439 0.0
H430 H 0.88232 0.038 0.84054 0.0
H431 H 0.95217 0.26727 0.93415 0.0
H432 H 0.93758 0.27783 0.88413 0.0
H433 H 0.87668 0.23436 0.92857 0.0
H434 H 0.8641 0.28367 0.78271 0.0
H435 H 0.71965 0.16808 0.88799 0.0
H436 H 0.954 0.20865 0.79774 0.0
H437 H 0.97381 0.27913 0.81003 0.0
H438 H 0.94707 0.26544 0.76472 0.0
H439 H 0.77679 0.06964 0.91871 0.0
H440 H 0.72102 0.0913 0.93348 0.0
H441 H 0.79169 0.1262 0.9466 0.0
C442 C 0.64716 0.78652 0.4117 0.0
C443 C 0.70859 0.81855 0.39399 0.0
C444 C 0.60687 0.76689 0.3873 0.0
C445 C 0.62903 0.77774 0.3444 0.0
C446 C 0.69078 0.80119 0.32765 0.0
C447 C 0.73031 0.82238 0.35266 0.0
C448 C 0.5411 0.74086 0.40687 0.0
C449 C 0.71546 0.80852 0.28284 0.0
C450 C 0.49203 0.71239 0.30607 0.0
C451 C 0.48166 0.7612 0.30046 0.0
C452 C 0.54593 0.71906 0.31375 0.0
C453 C 0.58847 0.77516 0.31757 0.0
C454 C 0.58099 0.826 0.30652 0.0
C455 C 0.52712 0.81824 0.29803 0.0
C456 C 0.55402 0.66469 0.32237 0.0
C457 C 0.62587 0.88706 0.30933 0.0
H458 H 0.63065 0.78192 0.44404 0.0
H459 H 0.77798 0.84626 0.33902 0.0
H460 H 0.52487 0.77124 0.39424 0.0
H461 H 0.51509 0.69726 0.39984 0.0
H462 H 0.53156 0.73404 0.44081 0.0
H463 H 0.76076 0.81285 0.27717 0.0
H464 H 0.68566 0.76991 0.27201 0.0
H465 H 0.71875 0.84942 0.2643 0.0
H466 H 0.45661 0.66837 0.30706 0.0
H467 H 0.51859 0.85574 0.29314 0.0
H468 H 0.53326 0.64065 0.35521 0.0
H469 H 0.60191 0.67691 0.31583 0.0
H470 H 0.53164 0.63342 0.30369 0.0
H471 H 0.62387 0.88758 0.34215 0.0
H472 H 0.61711 0.92264 0.29468 0.0
H473 H 0.67178 0.89781 0.29441 0.0
C474 C 0.97408 0.78369 0.80952 0.0
C475 C 0.00844 0.78071 0.83708 0.0
C476 C 0.94679 0.73644 0.79122 0.0
C477 C 0.95296 0.68494 0.80163 0.0
C478 C 0.99588 0.68655 0.82335 0.0
C479 C 0.02399 0.73514 0.84037 0.0
C480 C 0.90483 0.73842 0.76564 0.0
C481 C 0.00585 0.63356 0.83355 0.0
C482 C 0.80832 0.53877 0.83422 0.0
C483 C 0.81424 0.51102 0.80288 0.0
C484 C 0.85272 0.59597 0.83333 0.0
C485 C 0.90457 0.62622 0.8002 0.0
C486 C 0.91011 0.59889 0.76784 0.0
C487 C 0.8647 0.54146 0.7696 0.0
C488 C 0.84497 0.62295 0.86884 0.0
C489 C 0.96473 0.62785 0.73238 0.0
H490 H 0.96266 0.81925 0.80575 0.0
H491 H 0.05295 0.73411 0.86004 0.0
H492 H 0.89975 0.70915 0.7442 0.0
H493 H 0.86032 0.72277 0.78616 0.0
H494 H 0.92101 0.78474 0.74776 0.0
H495 H 0.04584 0.64467 0.84597 0.0
H496 H 0.96627 0.59686 0.85691 0.0
H497 H 0.01128 0.61683 0.80586 0.0
H498 H 0.76932 0.51508 0.85999 0.0
H499 H 0.87003 0.51946 0.74574 0.0
H500 H 0.84438 0.6651 0.85754 0.0
H501 H 0.88303 0.63394 0.88333 0.0
H502 H 0.80297 0.59251 0.89281 0.0
H503 H 0.99138 0.67676 0.7284 0.0
H504 H 0.95179 0.61889 0.70337 0.0
H505 H 0.99351 0.60758 0.73775 0.0
loop_
_geom_bond_atom_site_label_1
_geom_bond_atom_site_label_2
_geom_bond_distance
_geom_bond_site_symmetry_2
_ccdc_geom_bond_type
Eu0 C9 2.828 . S
Eu0 O11 2.392 1_545 S
Eu0 O13 2.418 1_455 S
Eu0 O18 2.373 1_455 S
Eu0 O21 2.488 . S
Eu0 O22 2.471 . S
Eu0 O23 2.349 1_554 S
Eu1 O10 2.373 1_656 S
Eu1 O14 2.488 1_655 S
Eu1 O15 2.471 . S
Eu1 O16 2.349 1_556 S
Eu1 O19 2.392 1_565 S
Eu1 O20 2.418 1_665 S
Eu1 C30 2.828 . S
C2 O20 1.244 . S
C2 O23 1.265 . S
C3 C4 1.379 . S
C3 C7 1.373 . S
C3 C9 1.505 . S
C4 C3 1.379 . S
C4 C6 1.369 . S
C4 H32 0.930 . S
C5 C7 1.383 . S
C5 C8 1.382 . S
C5 H33 0.930 . S
C6 C4 1.369 . S
C6 C8 1.392 . S
C6 H34 0.930 . S
C7 C3 1.373 . S
C7 C5 1.383 . S
C7 H35 0.931 . S
C8 C5 1.382 . S
C8 C6 1.392 . S
C9 Eu0 2.828 . S
C9 C3 1.505 . S
C9 O21 1.249 . S
C9 O22 1.244 . S
O10 Eu1 2.373 1_454 S
O10 C12 1.258 . S
O11 Eu0 2.392 1_565 S
O11 C12 1.242 . S
C12 O10 1.258 . S
C12 O11 1.242 . S
O13 Eu0 2.418 1_655 S
O13 C17 1.244 1_545 S
O14 Eu1 2.488 1_455 S
O14 C30 1.249 1_455 S
O15 Eu1 2.471 . S
O15 C30 1.244 . S
O16 Eu1 2.349 1_554 S
O16 C17 1.265 . S
C17 O13 1.244 1_565 S
C17 O16 1.265 . S
O18 Eu0 2.373 1_655 S
O18 C31 1.258 1_554 S
O19 Eu1 2.392 1_545 S
O19 C31 1.242 . S
O20 Eu1 2.418 1_445 S
O20 C2 1.244 . S
O21 Eu0 2.488 . S
O21 C9 1.249 . S
O22 Eu0 2.471 . S
O22 C9 1.244 . S
O23 Eu0 2.349 1_556 S
O23 C2 1.265 . S
C24 C25 1.379 . S
C24 C28 1.373 . S
C24 C30 1.505 . S
C25 C24 1.379 . S
C25 C27 1.369 . S
C25 H36 0.930 1_556 S
C26 C28 1.383 . S
C26 C29 1.382 . S
C26 H37 0.930 . S
C27 C25 1.369 . S
C27 C29 1.392 . S
C27 H38 0.930 1_556 S
C28 C24 1.373 . S
C28 C26 1.383 . S
C28 H39 0.931 1_655 S
C29 C26 1.382 . S
C29 C27 1.392 . S
C30 Eu1 2.828 . S
C30 O14 1.249 1_655 S
C30 O15 1.244 . S
C30 C24 1.505 . S
C31 O18 1.258 1_556 S
C31 O19 1.242 . S
H32 C4 0.930 . S
H33 C5 0.930 . S
H34 C6 0.930 . S
H35 C7 0.931 . S
H36 C25 0.930 1_554 S
H37 C26 0.930 . S
H38 C27 0.930 1_554 S
H39 C28 0.931 1_455 S
Eu40 C49 2.828 . S
Eu40 O51 2.392 1_655 S
Eu40 O53 2.418 1_665 S
Eu40 O58 2.373 1_565 S
Eu40 O61 2.488 1_565 S
Eu40 O62 2.471 . S
Eu40 O63 2.349 . S
Eu41 O50 2.373 1_545 S
Eu41 O54 2.488 . S
Eu41 O55 2.471 . S
Eu41 O56 2.349 . S
Eu41 O59 2.392 1_455 S
Eu41 O60 2.418 1_445 S
Eu41 C70 2.828 . S
C42 O60 1.244 . S
C42 O63 1.265 . S
C43 C44 1.379 . S
C43 C47 1.373 . S
C43 C49 1.505 . S
C44 C43 1.379 . S
C44 C46 1.369 . S
C44 H72 0.930 . S
C45 C47 1.383 . S
C45 C48 1.382 . S
C45 H73 0.930 . S
C46 C44 1.369 . S
C46 C48 1.392 . S
C46 H74 0.930 . S
C47 C43 1.373 . S
C47 C45 1.383 . S
C47 H75 0.931 1_565 S
C48 C45 1.382 . S
C48 C46 1.392 . S
C49 Eu40 2.828 . S
C49 C43 1.505 . S
C49 O61 1.249 1_565 S
C49 O62 1.244 . S
O50 Eu41 2.373 1_565 S
O50 C52 1.258 . S
O51 Eu40 2.392 1_455 S
O51 C52 1.242 . S
C52 O50 1.258 . S
C52 O51 1.242 . S
O53 Eu40 2.418 1_445 S
O53 C57 1.244 . S
O54 Eu41 2.488 . S
O54 C70 1.249 . S
O55 Eu41 2.471 . S
O55 C70 1.244 . S
O56 Eu41 2.349 . S
O56 C57 1.265 . S
C57 O53 1.244 . S
C57 O56 1.265 . S
O58 Eu40 2.373 1_545 S
O58 C71 1.258 . S
O59 Eu41 2.392 1_655 S
O59 C71 1.242 . S
O60 Eu41 2.418 1_665 S
O60 C42 1.244 . S
O61 Eu40 2.488 1_545 S
O61 C49 1.249 1_545 S
O62 Eu40 2.471 . S
O62 C49 1.244 . S
O63 Eu40 2.349 . S
O63 C42 1.265 . S
C64 C65 1.379 . S
C64 C68 1.373 . S
C64 C70 1.505 . S
C65 C64 1.379 . S
C65 C67 1.369 . S
C65 H76 0.930 . S
C66 C68 1.383 . S
C66 C69 1.382 . S
C66 H77 0.930 . S
C67 C65 1.369 . S
C67 C69 1.392 . S
C67 H78 0.930 . S
C68 C64 1.373 . S
C68 C66 1.383 . S
C68 H79 0.931 . S
C69 C66 1.382 . S
C69 C67 1.392 . S
C70 Eu41 2.828 . S
C70 O54 1.249 . S
C70 O55 1.244 . S
C70 C64 1.505 . S
C71 O58 1.258 . S
C71 O59 1.242 . S
H72 C44 0.930 . S
H73 C45 0.930 . S
H74 C46 0.930 . S
H75 C47 0.931 1_545 S
H76 C65 0.930 . S
H77 C66 0.930 . S
H78 C67 0.930 . S
H79 C68 0.931 . S
Zn80 O86 1.920 . S
Zn80 O92 1.898 . S
Zn80 O95 1.905 . S
Zn81 O89 1.905 . S
Zn81 O90 1.898 . S
Zn81 O98 1.920 . S
Zn82 O85 2.080 . S
Zn82 O88 2.114 . S
Zn82 O91 2.120 . S
Zn82 O93 2.120 . S
Zn82 O94 2.114 . S
Zn82 O97 2.080 . S
C83 O88 1.166 . S
C83 O89 1.182 . S
C84 O90 1.167 . S
C84 O91 1.299 . S
O85 Zn82 2.080 . S
O85 C99 1.305 . S
O86 Zn80 1.920 . S
O86 C99 1.234 . S
C87 O92 1.167 . S
C87 O93 1.299 . S
O88 Zn82 2.114 . S
O88 C83 1.166 . S
O89 Zn81 1.905 . S
O89 C83 1.182 . S
O90 Zn81 1.898 . S
O90 C84 1.167 . S
O91 Zn82 2.120 . S
O91 C84 1.299 . S
O92 Zn80 1.898 . S
O92 C87 1.167 . S
O93 Zn82 2.120 . S
O93 C87 1.299 . S
O94 Zn82 2.114 . S
O94 C96 1.166 . S
O95 Zn80 1.905 . S
O95 C96 1.182 . S
C96 O94 1.166 . S
C96 O95 1.182 . S
O97 Zn82 2.080 . S
O97 C100 1.305 . S
O98 Zn81 1.920 . S
O98 C100 1.234 . S
C99 O85 1.305 . S
C99 O86 1.234 . S
C100 O97 1.305 . S
C100 O98 1.234 . S
Zn101 O107 1.920 . S
Zn101 O113 1.898 . S
Zn101 O116 1.905 . S
Zn102 O110 1.905 . S
Zn102 O111 1.898 . S
Zn102 O119 1.920 . S
Zn103 O106 2.080 . S
Zn103 O109 2.114 . S
Zn103 O112 2.120 . S
Zn103 O114 2.120 . S
Zn103 O115 2.114 . S
Zn103 O118 2.080 . S
C104 O109 1.166 . S
C104 O110 1.182 . S
C105 O111 1.167 . S
C105 O112 1.299 . S
O106 Zn103 2.080 . S
O106 C120 1.305 . S
O107 Zn101 1.920 . S
O107 C120 1.234 . S
C108 O113 1.167 . S
C108 O114 1.299 . S
O109 Zn103 2.114 . S
O109 C104 1.166 . S
O110 Zn102 1.905 . S
O110 C104 1.182 . S
O111 Zn102 1.898 . S
O111 C105 1.167 . S
O112 Zn103 2.120 . S
O112 C105 1.299 . S
O113 Zn101 1.898 . S
O113 C108 1.167 . S
O114 Zn103 2.120 . S
O114 C108 1.299 . S
O115 Zn103 2.114 . S
O115 C117 1.166 . S
O116 Zn101 1.905 . S
O116 C117 1.182 . S
C117 O115 1.166 . S
C117 O116 1.182 . S
O118 Zn103 2.080 . S
O118 C121 1.305 . S
O119 Zn102 1.920 . S
O119 C121 1.234 . S
C120 O106 1.305 . S
C120 O107 1.234 . S
C121 O118 1.305 . S
C121 O119 1.234 . S
C122 C123 1.391 . S
C122 C124 1.394 . S
C122 H138 0.931 . S
C123 C122 1.391 . S
C123 C127 1.376 . S
C124 C122 1.394 . S
C124 C125 1.369 . S
C124 C128 1.531 . S
C125 C124 1.369 . S
C125 C126 1.410 . S
C125 C133 1.503 . S
C126 C125 1.410 . S
C126 C127 1.392 . S
C126 C129 1.511 . S
C127 C123 1.376 . S
C127 C126 1.392 . S
C127 H139 0.929 . S
C128 C124 1.531 . S
C128 H140 0.960 . S
C128 H141 0.962 . S
C128 H142 0.960 . S
C129 C126 1.511 . S
C129 H143 0.961 . S
C129 H144 0.961 . S
C129 H145 0.961 . S
C130 C131 1.370 . S
C130 C132 1.363 . S
C130 H146 0.931 . S
C131 C130 1.370 . S
C131 C135 1.408 . S
C132 C130 1.363 . S
C132 C133 1.370 . S
C132 C136 1.524 . S
C133 C125 1.503 . S
C133 C132 1.370 . S
C133 C134 1.403 . S
C134 C133 1.403 . S
C134 C135 1.404 . S
C134 C137 1.539 . S
C135 C131 1.408 . S
C135 C134 1.404 . S
C135 H147 0.930 . S
C136 C132 1.524 . S
C136 H148 0.956 . S
C136 H149 0.961 . S
C136 H150 0.961 . S
C137 C134 1.539 . S
C137 H151 0.958 . S
C137 H152 0.961 . S
C137 H153 0.960 . S
H138 C122 0.931 . S
H139 C127 0.929 . S
H140 C128 0.960 . S
H141 C128 0.962 . S
H142 C128 0.960 . S
H143 C129 0.961 . S
H144 C129 0.961 . S
H145 C129 0.961 . S
H146 C130 0.931 . S
H147 C135 0.930 . S
H148 C136 0.956 . S
H149 C136 0.961 . S
H150 C136 0.961 . S
H151 C137 0.958 . S
H152 C137 0.961 . S
H153 C137 0.960 . S
C154 C155 1.391 . S
C154 C156 1.394 . S
C154 H170 0.931 . S
C155 C154 1.391 . S
C155 C159 1.376 . S
C156 C154 1.394 . S
C156 C157 1.369 . S
C156 C160 1.531 . S
C157 C156 1.369 . S
C157 C158 1.410 . S
C157 C165 1.503 . S
C158 C157 1.410 . S
C158 C159 1.392 . S
C158 C161 1.511 . S
C159 C155 1.376 . S
C159 C158 1.392 . S
C159 H171 0.929 . S
C160 C156 1.531 . S
C160 H172 0.960 . S
C160 H173 0.962 . S
C160 H174 0.960 . S
C161 C158 1.511 . S
C161 H175 0.961 . S
C161 H176 0.961 . S
C161 H177 0.961 . S
C162 C163 1.370 . S
C162 C164 1.363 . S
C162 H178 0.931 . S
C163 C162 1.370 . S
C163 C167 1.408 . S
C164 C162 1.363 . S
C164 C165 1.370 . S
C164 C168 1.524 . S
C165 C157 1.503 . S
C165 C164 1.370 . S
C165 C166 1.403 . S
C166 C165 1.403 . S
C166 C167 1.404 . S
C166 C169 1.539 . S
C167 C163 1.408 . S
C167 C166 1.404 . S
C167 H179 0.930 . S
C168 C164 1.524 . S
C168 H180 0.956 . S
C168 H181 0.961 . S
C168 H182 0.961 . S
C169 C166 1.539 . S
C169 H183 0.958 . S
C169 H184 0.961 . S
C169 H185 0.960 . S
H170 C154 0.931 . S
H171 C159 0.929 . S
H172 C160 0.960 . S
H173 C160 0.962 . S
H174 C160 0.960 . S
H175 C161 0.961 . S
H176 C161 0.961 . S
H177 C161 0.961 . S
H178 C162 0.931 . S
H179 C167 0.930 . S
H180 C168 0.956 . S
H181 C168 0.961 . S
H182 C168 0.961 . S
H183 C169 0.958 . S
H184 C169 0.961 . S
H185 C169 0.960 . S
C186 C187 1.391 . S
C186 C188 1.394 . S
C186 H202 0.931 . S
C187 C186 1.391 . S
C187 C191 1.376 . S
C188 C186 1.394 . S
C188 C189 1.369 . S
C188 C192 1.531 . S
C189 C188 1.369 . S
C189 C190 1.410 . S
C189 C197 1.503 . S
C190 C189 1.410 . S
C190 C191 1.392 . S
C190 C193 1.511 . S
C191 C187 1.376 . S
C191 C190 1.392 . S
C191 H203 0.929 . S
C192 C188 1.531 . S
C192 H204 0.960 . S
C192 H205 0.962 . S
C192 H206 0.960 . S
C193 C190 1.511 . S
C193 H207 0.961 . S
C193 H208 0.961 . S
C193 H209 0.961 . S
C194 C195 1.370 . S
C194 C196 1.363 . S
C194 H210 0.931 . S
C195 C194 1.370 . S
C195 C199 1.408 . S
C196 C194 1.363 . S
C196 C197 1.370 . S
C196 C200 1.524 . S
C197 C189 1.503 . S
C197 C196 1.370 . S
C197 C198 1.403 . S
C198 C197 1.403 . S
C198 C199 1.404 . S
C198 C201 1.539 . S
C199 C195 1.408 . S
C199 C198 1.404 . S
C199 H211 0.930 . S
C200 C196 1.524 . S
C200 H212 0.956 . S
C200 H213 0.961 . S
C200 H214 0.961 . S
C201 C198 1.539 . S
C201 H215 0.958 . S
C201 H216 0.961 . S
C201 H217 0.960 . S
H202 C186 0.931 . S
H203 C191 0.929 . S
H204 C192 0.960 . S
H205 C192 0.962 . S
H206 C192 0.960 . S
H207 C193 0.961 . S
H208 C193 0.961 . S
H209 C193 0.961 . S
H210 C194 0.931 . S
H211 C199 0.930 . S
H212 C200 0.956 . S
H213 C200 0.961 . S
H214 C200 0.961 . S
H215 C201 0.958 . S
H216 C201 0.961 . S
H217 C201 0.960 . S
C218 C219 1.391 . S
C218 C220 1.394 . S
C218 H234 0.931 . S
C219 C218 1.391 . S
C219 C223 1.376 . S
C220 C218 1.394 . S
C220 C221 1.369 . S
C220 C224 1.531 . S
C221 C220 1.369 . S
C221 C222 1.410 . S
C221 C229 1.503 . S
C222 C221 1.410 . S
C222 C223 1.392 . S
C222 C225 1.511 . S
C223 C219 1.376 . S
C223 C222 1.392 . S
C223 H235 0.929 . S
C224 C220 1.531 . S
C224 H236 0.960 . S
C224 H237 0.962 . S
C224 H238 0.960 . S
C225 C222 1.511 . S
C225 H239 0.961 . S
C225 H240 0.961 . S
C225 H241 0.961 . S
C226 C227 1.370 . S
C226 C228 1.363 . S
C226 H242 0.931 . S
C227 C226 1.370 . S
C227 C231 1.408 . S
C228 C226 1.363 . S
C228 C229 1.370 . S
C228 C232 1.524 . S
C229 C221 1.503 . S
C229 C228 1.370 . S
C229 C230 1.403 . S
C230 C229 1.403 . S
C230 C231 1.404 . S
C230 C233 1.539 . S
C231 C227 1.408 . S
C231 C230 1.404 . S
C231 H243 0.930 . S
C232 C228 1.524 . S
C232 H244 0.956 . S
C232 H245 0.961 . S
C232 H246 0.961 . S
C233 C230 1.539 . S
C233 H247 0.958 . S
C233 H248 0.961 . S
C233 H249 0.960 . S
H234 C218 0.931 . S
H235 C223 0.929 . S
H236 C224 0.960 . S
H237 C224 0.962 . S
H238 C224 0.960 . S
H239 C225 0.961 . S
H240 C225 0.961 . S
H241 C225 0.961 . S
H242 C226 0.931 . S
H243 C231 0.930 . S
H244 C232 0.956 . S
H245 C232 0.961 . S
H246 C232 0.961 . S
H247 C233 0.958 . S
H248 C233 0.961 . S
H249 C233 0.960 . S
C250 C251 1.391 . S
C250 C252 1.394 . S
C250 H266 0.931 . S
C251 C250 1.391 . S
C251 C255 1.376 . S
C252 C250 1.394 . S
C252 C253 1.369 . S
C252 C256 1.531 . S
C253 C252 1.369 . S
C253 C254 1.410 . S
C253 C261 1.503 . S
C254 C253 1.410 . S
C254 C255 1.392 . S
C254 C257 1.511 . S
C255 C251 1.376 . S
C255 C254 1.392 . S
C255 H267 0.929 . S
C256 C252 1.531 . S
C256 H268 0.960 . S
C256 H269 0.962 . S
C256 H270 0.960 1_565 S
C257 C254 1.511 . S
C257 H271 0.961 . S
C257 H272 0.961 . S
C257 H273 0.961 . S
C258 C259 1.370 . S
C258 C260 1.363 . S
C258 H274 0.931 . S
C259 C258 1.370 . S
C259 C263 1.408 . S
C260 C258 1.363 . S
C260 C261 1.370 . S
C260 C264 1.524 . S
C261 C253 1.503 . S
C261 C260 1.370 . S
C261 C262 1.403 . S
C262 C261 1.403 . S
C262 C263 1.404 . S
C262 C265 1.539 . S
C263 C259 1.408 . S
C263 C262 1.404 . S
C263 H275 0.930 . S
C264 C260 1.524 . S
C264 H276 0.956 . S
C264 H277 0.961 . S
C264 H278 0.961 . S
C265 C262 1.539 . S
C265 H279 0.958 1_565 S
C265 H280 0.961 . S
C265 H281 0.960 . S
H266 C250 0.931 . S
H267 C255 0.929 . S
H268 C256 0.960 . S
H269 C256 0.962 . S
H270 C256 0.960 1_545 S
H271 C257 0.961 . S
H272 C257 0.961 . S
H273 C257 0.961 . S
H274 C258 0.931 . S
H275 C263 0.930 . S
H276 C264 0.956 . S
H277 C264 0.961 . S
H278 C264 0.961 . S
H279 C265 0.958 1_545 S
H280 C265 0.961 . S
H281 C265 0.960 . S
C282 C283 1.391 . S
C282 C284 1.394 . S
C282 H298 0.931 . S
C283 C282 1.391 . S
C283 C287 1.376 . S
C284 C282 1.394 . S
C284 C285 1.369 . S
C284 C288 1.531 . S
C285 C284 1.369 . S
C285 C286 1.410 . S
C285 C293 1.503 . S
C286 C285 1.410 . S
C286 C287 1.392 . S
C286 C289 1.511 . S
C287 C283 1.376 . S
C287 C286 1.392 . S
C287 H299 0.929 . S
C288 C284 1.531 . S
C288 H300 0.960 . S
C288 H301 0.962 . S
C288 H302 0.960 . S
C289 C286 1.511 . S
C289 H303 0.961 . S
C289 H304 0.961 . S
C289 H305 0.961 . S
C290 C291 1.370 . S
C290 C292 1.363 . S
C290 H306 0.931 . S
C291 C290 1.370 . S
C291 C295 1.408 . S
C292 C290 1.363 . S
C292 C293 1.370 . S
C292 C296 1.524 . S
C293 C285 1.503 . S
C293 C292 1.370 . S
C293 C294 1.403 . S
C294 C293 1.403 . S
C294 C295 1.404 . S
C294 C297 1.539 . S
C295 C291 1.408 . S
C295 C294 1.404 . S
C295 H307 0.930 . S
C296 C292 1.524 . S
C296 H308 0.956 . S
C296 H309 0.961 . S
C296 H310 0.961 . S
C297 C294 1.539 . S
C297 H311 0.958 . S
C297 H312 0.961 . S
C297 H313 0.960 . S
H298 C282 0.931 . S
H299 C287 0.929 . S
H300 C288 0.960 . S
H301 C288 0.962 . S
H302 C288 0.960 . S
H303 C289 0.961 . S
H304 C289 0.961 . S
H305 C289 0.961 . S
H306 C290 0.931 . S
H307 C295 0.930 . S
H308 C296 0.956 . S
H309 C296 0.961 . S
H310 C296 0.961 . S
H311 C297 0.958 . S
H312 C297 0.961 . S
H313 C297 0.960 . S
C314 C315 1.391 . S
C314 C316 1.394 . S
C314 H330 0.931 . S
C315 C314 1.391 . S
C315 C319 1.376 . S
C316 C314 1.394 . S
C316 C317 1.369 . S
C316 C320 1.531 . S
C317 C316 1.369 . S
C317 C318 1.410 . S
C317 C325 1.503 . S
C318 C317 1.410 . S
C318 C319 1.392 . S
C318 C321 1.511 . S
C319 C315 1.376 . S
C319 C318 1.392 . S
C319 H331 0.929 1_565 S
C320 C316 1.531 . S
C320 H332 0.960 . S
C320 H333 0.962 . S
C320 H334 0.960 . S
C321 C318 1.511 . S
C321 H335 0.961 1_565 S
C321 H336 0.961 . S
C321 H337 0.961 . S
C322 C323 1.370 . S
C322 C324 1.363 . S
C322 H338 0.931 . S
C323 C322 1.370 . S
C323 C327 1.408 . S
C324 C322 1.363 . S
C324 C325 1.370 . S
C324 C328 1.524 . S
C325 C317 1.503 . S
C325 C324 1.370 . S
C325 C326 1.403 . S
C326 C325 1.403 . S
C326 C327 1.404 . S
C326 C329 1.539 . S
C327 C323 1.408 . S
C327 C326 1.404 . S
C327 H339 0.930 . S
C328 C324 1.524 . S
C328 H340 0.956 . S
C328 H341 0.961 . S
C328 H342 0.961 . S
C329 C326 1.539 . S
C329 H343 0.958 . S
C329 H344 0.961 . S
C329 H345 0.960 . S
H330 C314 0.931 . S
H331 C319 0.929 1_545 S
H332 C320 0.960 . S
H333 C320 0.962 . S
H334 C320 0.960 . S
H335 C321 0.961 1_545 S
H336 C321 0.961 . S
H337 C321 0.961 . S
H338 C322 0.931 . S
H339 C327 0.930 . S
H340 C328 0.956 . S
H341 C328 0.961 . S
H342 C328 0.961 . S
H343 C329 0.958 . S
H344 C329 0.961 . S
H345 C329 0.960 . S
C346 C347 1.391 . S
C346 C348 1.394 . S
C346 H362 0.931 . S
C347 C346 1.391 . S
C347 C351 1.376 . S
C348 C346 1.394 . S
C348 C349 1.369 . S
C348 C352 1.531 . S
C349 C348 1.369 . S
C349 C350 1.410 . S
C349 C357 1.503 . S
C350 C349 1.410 . S
C350 C351 1.392 . S
C350 C353 1.511 . S
C351 C347 1.376 . S
C351 C350 1.392 . S
C351 H363 0.929 . S
C352 C348 1.531 . S
C352 H364 0.960 . S
C352 H365 0.962 . S
C352 H366 0.960 . S
C353 C350 1.511 . S
C353 H367 0.961 . S
C353 H368 0.961 . S
C353 H369 0.961 . S
C354 C355 1.370 . S
C354 C356 1.363 . S
C354 H370 0.931 . S
C355 C354 1.370 . S
C355 C359 1.408 . S
C356 C354 1.363 . S
C356 C357 1.370 . S
C356 C360 1.524 . S
C357 C349 1.503 . S
C357 C356 1.370 . S
C357 C358 1.403 . S
C358 C357 1.403 . S
C358 C359 1.404 . S
C358 C361 1.539 . S
C359 C355 1.408 . S
C359 C358 1.404 . S
C359 H371 0.930 . S
C360 C356 1.524 . S
C360 H372 0.956 . S
C360 H373 0.961 . S
C360 H374 0.961 . S
C361 C358 1.539 . S
C361 H375 0.958 . S
C361 H376 0.961 . S
C361 H377 0.960 . S
H362 C346 0.931 . S
H363 C351 0.929 . S
H364 C352 0.960 . S
H365 C352 0.962 . S
H366 C352 0.960 . S
H367 C353 0.961 . S
H368 C353 0.961 . S
H369 C353 0.961 . S
H370 C354 0.931 . S
H371 C359 0.930 . S
H372 C360 0.956 . S
H373 C360 0.961 . S
H374 C360 0.961 . S
H375 C361 0.958 . S
H376 C361 0.961 . S
H377 C361 0.960 . S
C378 C379 1.391 . S
C378 C380 1.394 . S
C378 H394 0.931 . S
C379 C378 1.391 . S
C379 C383 1.376 . S
C380 C378 1.394 . S
C380 C381 1.369 . S
C380 C384 1.531 . S
C381 C380 1.369 . S
C381 C382 1.410 . S
C381 C389 1.503 . S
C382 C381 1.410 . S
C382 C383 1.392 . S
C382 C385 1.511 . S
C383 C379 1.376 . S
C383 C382 1.392 . S
C383 H395 0.929 . S
C384 C380 1.531 . S
C384 H396 0.960 . S
C384 H397 0.962 . S
C384 H398 0.960 . S
C385 C382 1.511 . S
C385 H399 0.961 . S
C385 H400 0.961 . S
C385 H401 0.961 . S
C386 C387 1.370 . S
C386 C388 1.363 . S
C386 H402 0.931 . S
C387 C386 1.370 . S
C387 C391 1.408 . S
C388 C386 1.363 . S
C388 C389 1.370 . S
C388 C392 1.524 . S
C389 C381 1.503 . S
C389 C388 1.370 . S
C389 C390 1.403 . S
C390 C389 1.403 . S
C390 C391 1.404 . S
C390 C393 1.539 . S
C391 C387 1.408 . S
C391 C390 1.404 . S
C391 H403 0.930 . S
C392 C388 1.524 . S
C392 H404 0.956 . S
C392 H405 0.961 . S
C392 H406 0.961 . S
C393 C390 1.539 . S
C393 H407 0.958 . S
C393 H408 0.961 . S
C393 H409 0.960 . S
H394 C378 0.931 . S
H395 C383 0.929 . S
H396 C384 0.960 . S
H397 C384 0.962 . S
H398 C384 0.960 . S
H399 C385 0.961 . S
H400 C385 0.961 . S
H401 C385 0.961 . S
H402 C386 0.931 . S
H403 C391 0.930 . S
H404 C392 0.956 . S
H405 C392 0.961 . S
H406 C392 0.961 . S
H407 C393 0.958 . S
H408 C393 0.961 . S
H409 C393 0.960 . S
C410 C411 1.391 . S
C410 C412 1.394 . S
C410 H426 0.931 1_655 S
C411 C410 1.391 . S
C411 C415 1.376 . S
C412 C410 1.394 . S
C412 C413 1.369 . S
C412 C416 1.531 . S
C413 C412 1.369 . S
C413 C414 1.410 . S
C413 C421 1.503 . S
C414 C413 1.410 . S
C414 C415 1.392 . S
C414 C417 1.511 . S
C415 C411 1.376 . S
C415 C414 1.392 . S
C415 H427 0.929 . S
C416 C412 1.531 . S
C416 H428 0.960 . S
C416 H429 0.962 . S
C416 H430 0.960 . S
C417 C414 1.511 . S
C417 H431 0.961 . S
C417 H432 0.961 . S
C417 H433 0.961 . S
C418 C419 1.370 . S
C418 C420 1.363 . S
C418 H434 0.931 . S
C419 C418 1.370 . S
C419 C423 1.408 . S
C420 C418 1.363 . S
C420 C421 1.370 . S
C420 C424 1.524 . S
C421 C413 1.503 . S
C421 C420 1.370 . S
C421 C422 1.403 . S
C422 C421 1.403 . S
C422 C423 1.404 . S
C422 C425 1.539 . S
C423 C419 1.408 . S
C423 C422 1.404 . S
C423 H435 0.930 . S
C424 C420 1.524 . S
C424 H436 0.956 . S
C424 H437 0.961 . S
C424 H438 0.961 . S
C425 C422 1.539 . S
C425 H439 0.958 . S
C425 H440 0.961 . S
C425 H441 0.960 . S
H426 C410 0.931 1_455 S
H427 C415 0.929 . S
H428 C416 0.960 . S
H429 C416 0.962 . S
H430 C416 0.960 . S
H431 C417 0.961 . S
H432 C417 0.961 . S
H433 C417 0.961 . S
H434 C418 0.931 . S
H435 C423 0.930 . S
H436 C424 0.956 . S
H437 C424 0.961 . S
H438 C424 0.961 . S
H439 C425 0.958 . S
H440 C425 0.961 . S
H441 C425 0.960 . S
C442 C443 1.391 . S
C442 C444 1.394 . S
C442 H458 0.931 . S
C443 C442 1.391 . S
C443 C447 1.376 . S
C444 C442 1.394 . S
C444 C445 1.369 . S
C444 C448 1.531 . S
C445 C444 1.369 . S
C445 C446 1.410 . S
C445 C453 1.503 . S
C446 C445 1.410 . S
C446 C447 1.392 . S
C446 C449 1.511 . S
C447 C443 1.376 . S
C447 C446 1.392 . S
C447 H459 0.929 . S
C448 C444 1.531 . S
C448 H460 0.960 . S
C448 H461 0.962 . S
C448 H462 0.960 . S
C449 C446 1.511 . S
C449 H463 0.961 . S
C449 H464 0.961 . S
C449 H465 0.961 . S
C450 C451 1.370 . S
C450 C452 1.363 . S
C450 H466 0.931 . S
C451 C450 1.370 . S
C451 C455 1.408 . S
C452 C450 1.363 . S
C452 C453 1.370 . S
C452 C456 1.524 . S
C453 C445 1.503 . S
C453 C452 1.370 . S
C453 C454 1.403 . S
C454 C453 1.403 . S
C454 C455 1.404 . S
C454 C457 1.539 . S
C455 C451 1.408 . S
C455 C454 1.404 . S
C455 H467 0.930 . S
C456 C452 1.524 . S
C456 H468 0.956 . S
C456 H469 0.961 . S
C456 H470 0.961 . S
C457 C454 1.539 . S
C457 H471 0.958 . S
C457 H472 0.961 . S
C457 H473 0.960 . S
H458 C442 0.931 . S
H459 C447 0.929 . S
H460 C448 0.960 . S
H461 C448 0.962 . S
H462 C448 0.960 . S
H463 C449 0.961 . S
H464 C449 0.961 . S
H465 C449 0.961 . S
H466 C450 0.931 . S
H467 C455 0.930 . S
H468 C456 0.956 . S
H469 C456 0.961 . S
H470 C456 0.961 . S
H471 C457 0.958 . S
H472 C457 0.961 . S
H473 C457 0.960 . S
C474 C475 1.391 . S
C474 C476 1.394 . S
C474 H490 0.931 . S
C475 C474 1.391 . S
C475 C479 1.376 . S
C476 C474 1.394 . S
C476 C477 1.369 . S
C476 C480 1.531 . S
C477 C476 1.369 . S
C477 C478 1.410 . S
C477 C485 1.503 . S
C478 C477 1.410 . S
C478 C479 1.392 . S
C478 C481 1.511 . S
C479 C475 1.376 . S
C479 C478 1.392 . S
C479 H491 0.929 . S
C480 C476 1.531 . S
C480 H492 0.960 . S
C480 H493 0.962 . S
C480 H494 0.960 . S
C481 C478 1.511 . S
C481 H495 0.961 . S
C481 H496 0.961 . S
C481 H497 0.961 . S
C482 C483 1.370 . S
C482 C484 1.363 . S
C482 H498 0.931 . S
C483 C482 1.370 . S
C483 C487 1.408 . S
C484 C482 1.363 . S
C484 C485 1.370 . S
C484 C488 1.524 . S
C485 C477 1.503 . S
C485 C484 1.370 . S
C485 C486 1.403 . S
C486 C485 1.403 . S
C486 C487 1.404 . S
C486 C489 1.539 . S
C487 C483 1.408 . S
C487 C486 1.404 . S
C487 H499 0.930 . S
C488 C484 1.524 . S
C488 H500 0.956 . S
C488 H501 0.961 . S
C488 H502 0.961 . S
C489 C486 1.539 . S
C489 H503 0.958 . S
C489 H504 0.961 . S
C489 H505 0.960 . S
H490 C474 0.931 . S
H491 C479 0.929 . S
H492 C480 0.960 . S
H493 C480 0.962 . S
H494 C480 0.960 . S
H495 C481 0.961 . S
H496 C481 0.961 . S
H497 C481 0.961 . S
H498 C482 0.931 . S
H499 C487 0.930 . S
H500 C488 0.956 . S
H501 C488 0.961 . S
H502 C488 0.961 . S
H503 C489 0.958 . S
H504 C489 0.961 . S
H505 C489 0.960 . S
C123 C12 1.628 . S
C131 C99 1.507 . S
C155 C69 0.967 . S
C163 C105 0.960 . S
C187 C8 1.127 . S
C195 C96 0.991 . S
C219 C71 1.917 . S
C227 C121 1.740 . S
C251 C17 2.326 . S
C259 C87 2.261 . S
C291 C104 2.079 . S
C283 C42 2.110 . S
C315 C52 1.590 . S
C323 C100 1.514 . S
C355 C117 2.060 . S
C347 C2 2.130 . S
C387 C84 2.273 . S
C379 C57 2.317 . S
C419 C120 1.774 . S
C411 C31 1.880 . S
C451 C83 1.034 . S
C443 C48 1.055 . S
C483 C108 0.933 . S
C475 C29 1.016 . S
