# Generated by pormake.
# Topology cor, (4,6)-cn, num edge types: 1
# Building blocks:
#     Node 0, Type 0, BuildingBlock: NAHDIM_clean_sbu_0, # of connection points: 4
#     Node 1, Type 0, BuildingBlock: NAHDIM_clean_sbu_0, # of connection points: 4
#     Node 2, Type 0, BuildingBlock: NAHDIM_clean_sbu_0, # of connection points: 4
#     Node 3, Type 0, BuildingBlock: NAHDIM_clean_sbu_0, # of connection points: 4
#     Node 4, Type 0, BuildingBlock: NAHDIM_clean_sbu_0, # of connection points: 4
#     Node 5, Type 0, BuildingBlock: NAHDIM_clean_sbu_0, # of connection points: 4
#     Node 6, Type 0, BuildingBlock: NAHDIM_clean_sbu_0, # of connection points: 4
#     Node 7, Type 0, BuildingBlock: NAHDIM_clean_sbu_0, # of connection points: 4
#     Node 8, Type 0, BuildingBlock: NAHDIM_clean_sbu_0, # of connection points: 4
#     Node 9, Type 0, BuildingBlock: NAHDIM_clean_sbu_0, # of connection points: 4
#     Node 10, Type 0, BuildingBlock: NAHDIM_clean_sbu_0, # of connection points: 4
#     Node 11, Type 0, BuildingBlock: NAHDIM_clean_sbu_0, # of connection points: 4
#     Node 12, Type 0, BuildingBlock: NAHDIM_clean_sbu_0, # of connection points: 4
#     Node 13, Type 0, BuildingBlock: NAHDIM_clean_sbu_0, # of connection points: 4
#     Node 14, Type 0, BuildingBlock: NAHDIM_clean_sbu_0, # of connection points: 4
#     Node 15, Type 0, BuildingBlock: NAHDIM_clean_sbu_0, # of connection points: 4
#     Node 16, Type 0, BuildingBlock: NAHDIM_clean_sbu_0, # of connection points: 4
#     Node 17, Type 0, BuildingBlock: NAHDIM_clean_sbu_0, # of connection points: 4
#     Node 18, Type 1, BuildingBlock: MIDCAF_clean_sbu_0, # of connection points: 6
#     Node 19, Type 1, BuildingBlock: MIDCAF_clean_sbu_0, # of connection points: 6
#     Node 20, Type 1, BuildingBlock: MIDCAF_clean_sbu_0, # of connection points: 6
#     Node 21, Type 1, BuildingBlock: MIDCAF_clean_sbu_0, # of connection points: 6
#     Node 22, Type 1, BuildingBlock: MIDCAF_clean_sbu_0, # of connection points: 6
#     Node 23, Type 1, BuildingBlock: MIDCAF_clean_sbu_0, # of connection points: 6
#     Node 24, Type 1, BuildingBlock: MIDCAF_clean_sbu_0, # of connection points: 6
#     Node 25, Type 1, BuildingBlock: MIDCAF_clean_sbu_0, # of connection points: 6
#     Node 26, Type 1, BuildingBlock: MIDCAF_clean_sbu_0, # of connection points: 6
#     Node 27, Type 1, BuildingBlock: MIDCAF_clean_sbu_0, # of connection points: 6
#     Node 28, Type 1, BuildingBlock: MIDCAF_clean_sbu_0, # of connection points: 6
#     Node 29, Type 1, BuildingBlock: MIDCAF_clean_sbu_0, # of connection points: 6
#     Edge 30, Type (0, 1), BuildingBlock: XUDNAN_clean_linker_2, # of connection points: 2
#     Edge 31, Type (0, 1), BuildingBlock: XUDNAN_clean_linker_2, # of connection points: 2
#     Edge 32, Type (0, 1), BuildingBlock: XUDNAN_clean_linker_2, # of connection points: 2
#     Edge 33, Type (0, 1), BuildingBlock: XUDNAN_clean_linker_2, # of connection points: 2
#     Edge 34, Type (0, 1), BuildingBlock: XUDNAN_clean_linker_2, # of connection points: 2
#     Edge 35, Type (0, 1), BuildingBlock: XUDNAN_clean_linker_2, # of connection points: 2
#     Edge 36, Type (0, 1), BuildingBlock: XUDNAN_clean_linker_2, # of connection points: 2
#     Edge 37, Type (0, 1), BuildingBlock: XUDNAN_clean_linker_2, # of connection points: 2
#     Edge 38, Type (0, 1), BuildingBlock: XUDNAN_clean_linker_2, # of connection points: 2
#     Edge 39, Type (0, 1), BuildingBlock: XUDNAN_clean_linker_2, # of connection points: 2
#     Edge 40, Type (0, 1), BuildingBlock: XUDNAN_clean_linker_2, # of connection points: 2
#     Edge 41, Type (0, 1), BuildingBlock: XUDNAN_clean_linker_2, # of connection points: 2
#     Edge 42, Type (0, 1), BuildingBlock: XUDNAN_clean_linker_2, # of connection points: 2
#     Edge 43, Type (0, 1), BuildingBlock: XUDNAN_clean_linker_2, # of connection points: 2
#     Edge 44, Type (0, 1), BuildingBlock: XUDNAN_clean_linker_2, # of connection points: 2
#     Edge 45, Type (0, 1), BuildingBlock: XUDNAN_clean_linker_2, # of connection points: 2
#     Edge 46, Type (0, 1), BuildingBlock: XUDNAN_clean_linker_2, # of connection points: 2
#     Edge 47, Type (0, 1), BuildingBlock: XUDNAN_clean_linker_2, # of connection points: 2
#     Edge 48, Type (0, 1), BuildingBlock: XUDNAN_clean_linker_2, # of connection points: 2
#     Edge 49, Type (0, 1), BuildingBlock: XUDNAN_clean_linker_2, # of connection points: 2
#     Edge 50, Type (0, 1), BuildingBlock: XUDNAN_clean_linker_2, # of connection points: 2
#     Edge 51, Type (0, 1), BuildingBlock: XUDNAN_clean_linker_2, # of connection points: 2
#     Edge 52, Type (0, 1), BuildingBlock: XUDNAN_clean_linker_2, # of connection points: 2
#     Edge 53, Type (0, 1), BuildingBlock: XUDNAN_clean_linker_2, # of connection points: 2
#     Edge 54, Type (0, 1), BuildingBlock: XUDNAN_clean_linker_2, # of connection points: 2
#     Edge 55, Type (0, 1), BuildingBlock: XUDNAN_clean_linker_2, # of connection points: 2
#     Edge 56, Type (0, 1), BuildingBlock: XUDNAN_clean_linker_2, # of connection points: 2
#     Edge 57, Type (0, 1), BuildingBlock: XUDNAN_clean_linker_2, # of connection points: 2
#     Edge 58, Type (0, 1), BuildingBlock: XUDNAN_clean_linker_2, # of connection points: 2
#     Edge 59, Type (0, 1), BuildingBlock: XUDNAN_clean_linker_2, # of connection points: 2
#     Edge 60, Type (0, 1), BuildingBlock: XUDNAN_clean_linker_2, # of connection points: 2
#     Edge 61, Type (0, 1), BuildingBlock: XUDNAN_clean_linker_2, # of connection points: 2
#     Edge 62, Type (0, 1), BuildingBlock: XUDNAN_clean_linker_2, # of connection points: 2
#     Edge 63, Type (0, 1), BuildingBlock: XUDNAN_clean_linker_2, # of connection points: 2
#     Edge 64, Type (0, 1), BuildingBlock: XUDNAN_clean_linker_2, # of connection points: 2
#     Edge 65, Type (0, 1), BuildingBlock: XUDNAN_clean_linker_2, # of connection points: 2
#     Edge 66, Type (0, 1), BuildingBlock: XUDNAN_clean_linker_2, # of connection points: 2
#     Edge 67, Type (0, 1), BuildingBlock: XUDNAN_clean_linker_2, # of connection points: 2
#     Edge 68, Type (0, 1), BuildingBlock: XUDNAN_clean_linker_2, # of connection points: 2
#     Edge 69, Type (0, 1), BuildingBlock: XUDNAN_clean_linker_2, # of connection points: 2
#     Edge 70, Type (0, 1), BuildingBlock: XUDNAN_clean_linker_2, # of connection points: 2
#     Edge 71, Type (0, 1), BuildingBlock: XUDNAN_clean_linker_2, # of connection points: 2
#     Edge 72, Type (0, 1), BuildingBlock: XUDNAN_clean_linker_2, # of connection points: 2
#     Edge 73, Type (0, 1), BuildingBlock: XUDNAN_clean_linker_2, # of connection points: 2
#     Edge 74, Type (0, 1), BuildingBlock: XUDNAN_clean_linker_2, # of connection points: 2
#     Edge 75, Type (0, 1), BuildingBlock: XUDNAN_clean_linker_2, # of connection points: 2
#     Edge 76, Type (0, 1), BuildingBlock: XUDNAN_clean_linker_2, # of connection points: 2
#     Edge 77, Type (0, 1), BuildingBlock: XUDNAN_clean_linker_2, # of connection points: 2
#     Edge 78, Type (0, 1), BuildingBlock: XUDNAN_clean_linker_2, # of connection points: 2
#     Edge 79, Type (0, 1), BuildingBlock: XUDNAN_clean_linker_2, # of connection points: 2
#     Edge 80, Type (0, 1), BuildingBlock: XUDNAN_clean_linker_2, # of connection points: 2
#     Edge 81, Type (0, 1), BuildingBlock: XUDNAN_clean_linker_2, # of connection points: 2
#     Edge 82, Type (0, 1), BuildingBlock: XUDNAN_clean_linker_2, # of connection points: 2
#     Edge 83, Type (0, 1), BuildingBlock: XUDNAN_clean_linker_2, # of connection points: 2
#     Edge 84, Type (0, 1), BuildingBlock: XUDNAN_clean_linker_2, # of connection points: 2
#     Edge 85, Type (0, 1), BuildingBlock: XUDNAN_clean_linker_2, # of connection points: 2
#     Edge 86, Type (0, 1), BuildingBlock: XUDNAN_clean_linker_2, # of connection points: 2
#     Edge 87, Type (0, 1), BuildingBlock: XUDNAN_clean_linker_2, # of connection points: 2
#     Edge 88, Type (0, 1), BuildingBlock: XUDNAN_clean_linker_2, # of connection points: 2
#     Edge 89, Type (0, 1), BuildingBlock: XUDNAN_clean_linker_2, # of connection points: 2
#     Edge 90, Type (0, 1), BuildingBlock: XUDNAN_clean_linker_2, # of connection points: 2
#     Edge 91, Type (0, 1), BuildingBlock: XUDNAN_clean_linker_2, # of connection points: 2
#     Edge 92, Type (0, 1), BuildingBlock: XUDNAN_clean_linker_2, # of connection points: 2
#     Edge 93, Type (0, 1), BuildingBlock: XUDNAN_clean_linker_2, # of connection points: 2
#     Edge 94, Type (0, 1), BuildingBlock: XUDNAN_clean_linker_2, # of connection points: 2
#     Edge 95, Type (0, 1), BuildingBlock: XUDNAN_clean_linker_2, # of connection points: 2
#     Edge 96, Type (0, 1), BuildingBlock: XUDNAN_clean_linker_2, # of connection points: 2
#     Edge 97, Type (0, 1), BuildingBlock: XUDNAN_clean_linker_2, # of connection points: 2
#     Edge 98, Type (0, 1), BuildingBlock: XUDNAN_clean_linker_2, # of connection points: 2
#     Edge 99, Type (0, 1), BuildingBlock: XUDNAN_clean_linker_2, # of connection points: 2
#     Edge 100, Type (0, 1), BuildingBlock: XUDNAN_clean_linker_2, # of connection points: 2
#     Edge 101, Type (0, 1), BuildingBlock: XUDNAN_clean_linker_2, # of connection points: 2
# Relax obj value: 0.160
# Max RMSD: 0.189
# Mean RMSD: 0.174
data_MOF--net-cor--node1-NAHDIM_clean_sbu_0--node2-MIDCAF_clean_sbu_0--edge1-XUDNAN_clean_linker_2
_symmetry_space_group_name_H-M    P1
_symmetry_Int_Tables_number       1
_symmetry_cell_setting            triclinic
loop_
_symmetry_equiv_pos_as_xyz
'x, y, z'
_cell_length_a     39.064543
_cell_length_b     38.572917
_cell_length_c     98.767951
_cell_angle_alpha  91.572951
_cell_angle_beta   89.238871
_cell_angle_gamma 121.2681
loop_
_atom_site_label
_atom_site_type_symbol
_atom_site_fract_x
_atom_site_fract_y
_atom_site_fract_z
_atom_type_partial_charge
C0 C 0.73164 0.08778 0.24035 0.0
O1 O 0.72441 0.05465 0.23379 0.0
O2 O 0.70837 0.00055 0.26692 0.0
Zn3 Zn 0.75667 0.05298 0.2603 0.0
O4 O 0.78569 0.04304 0.24492 0.0
C5 C 0.78976 0.06519 0.2877 0.0
O6 O 0.75509 0.03247 0.29025 0.0
O7 O 0.74286 0.09293 0.25268 0.0
C8 C 0.77004 0.01505 0.23585 0.0
O9 O 0.73225 0.9862 0.23693 0.0
C10 C 0.6726 0.98281 0.26252 0.0
O11 O 0.66402 -0.00176 0.25235 0.0
O12 O 0.79648 0.07976 0.27587 0.0
C13 C 0.06342 0.72451 0.2639 0.0
O14 O 0.03255 0.68748 0.26225 0.0
O15 O 0.96212 0.69139 0.25111 0.0
Zn16 Zn 0.00702 0.74815 0.25541 0.0
O17 O 0.98772 0.76736 0.27128 0.0
C18 C 0.0288 0.78155 0.2279 0.0
O19 O 0.05301 0.76744 0.22746 0.0
O20 O 0.05988 0.75437 0.26093 0.0
C21 C 0.98505 0.75281 0.28293 0.0
O22 O -0.00436 0.72591 0.28443 0.0
C23 C 0.95913 0.67263 0.23999 0.0
O24 O 0.99013 0.68665 0.23186 0.0
O25 O 0.01018 0.77935 0.23882 0.0
C26 C 0.3641 0.31909 0.24328 0.0
O27 O 0.33911 0.32815 0.23798 0.0
O28 O 0.30237 0.33528 0.27207 0.0
Zn29 Zn 0.30333 0.28765 0.2632 0.0
O30 O 0.26498 0.26207 0.24736 0.0
C31 C 0.29201 0.25412 0.29002 0.0
O32 O 0.30333 0.29133 0.29399 0.0
O33 O 0.35691 0.30406 0.25502 0.0
C34 C 0.26368 0.23104 0.24198 0.0
O35 O 0.28328 0.21621 0.24779 0.0
C36 C 0.29073 0.35682 0.26658 0.0
O37 O 0.27909 0.34946 0.25387 0.0
O38 O 0.29008 0.24556 0.2774 0.0
C39 C 0.30921 0.97459 0.77266 0.0
O40 O 0.31969 0.00746 0.78004 0.0
O41 O 0.33394 0.06943 0.75551 0.0
Zn42 Zn 0.28247 0.01506 0.75716 0.0
O43 O 0.24679 0.0097 0.77299 0.0
C44 C 0.22848 0.01689 0.73847 0.0
O45 O 0.2201 0.03105 0.74946 0.0
O46 O 0.29466 0.97143 0.76091 0.0
C47 C 0.25476 0.03081 0.78389 0.0
O48 O 0.28939 0.06488 0.78526 0.0
C49 C 0.33382 0.1006 0.75166 0.0
O50 O 0.29954 0.09892 0.7506 0.0
O51 O 0.25319 0.00495 0.73931 0.0
C52 C 0.96546 0.30223 0.73783 0.0
O53 O -0.00048 0.3211 0.7312 0.0
O54 O 0.06012 0.33105 0.7577 0.0
Zn55 Zn 0.01266 0.27815 0.75064 0.0
O56 O 0.02377 0.26391 0.73175 0.0
C57 C 0.00499 0.23839 0.77635 0.0
O58 O 0.00417 0.26946 0.78176 0.0
O59 O 0.96325 0.28246 0.74827 0.0
C60 C 0.9934 0.23603 0.72534 0.0
O61 O 0.95878 0.21685 0.73163 0.0
C62 C 0.08891 0.33028 0.76331 0.0
O63 O 0.0881 0.29584 0.7636 0.0
O64 O 0.00517 0.23456 0.7635 0.0
C65 C 0.67606 0.73648 0.76484 0.0
O66 O 0.68972 0.72784 0.7755 0.0
O67 O 0.74068 0.68868 0.75122 0.0
Zn68 Zn 0.74761 0.74429 0.7525 0.0
O69 O 0.78107 0.77638 0.76875 0.0
C70 C 0.76323 0.77335 0.72435 0.0
O71 O 0.72533 0.76242 0.72386 0.0
O72 O 0.69486 0.74303 0.75366 0.0
C73 C 0.77984 0.76043 0.77999 0.0
O74 O 0.75764 0.72084 0.78105 0.0
C75 C 0.77292 0.68952 0.74823 0.0
O76 O 0.80656 0.72483 0.74789 0.0
O77 O 0.77802 0.77055 0.73536 0.0
C78 C 0.38272 0.40974 0.58327 0.0
O79 O 0.35492 0.37346 0.57891 0.0
O80 O 0.36197 0.31273 0.59772 0.0
Zn81 Zn 0.41474 0.36506 0.5948 0.0
O82 O 0.4425 0.36399 0.57755 0.0
C83 C 0.43092 0.36416 0.62301 0.0
O84 O 0.39254 0.35128 0.62372 0.0
O85 O 0.40904 0.41316 0.59154 0.0
C86 C 0.42519 0.34255 0.567 0.0
O87 O 0.38729 0.3137 0.56751 0.0
C88 C 0.36395 0.28314 0.60218 0.0
O89 O 0.39919 0.28673 0.60309 0.0
O90 O 0.44856 0.3744 0.61158 0.0
C91 C 0.74464 0.06705 0.60044 0.0
O92 O 0.72 0.05192 0.61073 0.0
O93 O 0.63542 0.02111 0.5827 0.0
Zn94 Zn 0.67995 0.07404 0.591 0.0
O95 O 0.67085 0.08192 0.61074 0.0
C96 C 0.6829 0.12143 0.5679 0.0
O97 O 0.69077 0.09714 0.56077 0.0
O98 O 0.73365 0.07782 0.59008 0.0
C99 C 0.63996 0.07906 0.61624 0.0
O100 O 0.60823 0.06835 0.60878 0.0
C101 C 0.60568 0.02103 0.57752 0.0
O102 O 0.60321 0.05363 0.57884 0.0
O103 O 0.68046 0.1188 0.58074 0.0
C104 C 0.04116 0.64381 0.58111 0.0
O105 O 0.03467 0.67233 0.57736 0.0
O106 O 0.96597 0.66407 0.59596 0.0
Zn107 Zn 0.96307 0.61042 0.59314 0.0
O108 O 0.9299 0.5813 0.57649 0.0
C109 C 0.94658 0.5974 0.62156 0.0
O110 O 0.97148 0.63685 0.62201 0.0
O111 O 0.01646 0.61655 0.58898 0.0
C112 C 0.93444 0.55383 0.57087 0.0
O113 O 0.95687 0.54265 0.57686 0.0
C114 C 0.93412 0.66228 0.60013 0.0
O115 O 0.90143 0.62651 0.60141 0.0
O116 O 0.93908 0.57829 0.61021 0.0
C117 C 0.9705 0.29425 0.10173 0.0
O118 O 0.98811 0.33069 0.10736 0.0
O119 O 0.0018 0.3824 0.07744 0.0
Zn120 Zn 0.94928 0.33606 0.0842 0.0
O121 O 0.92628 0.35012 0.10045 0.0
C122 C 0.92261 0.32521 0.05641 0.0
O123 O 0.95904 0.33308 0.0539 0.0
O124 O 0.95334 0.28842 0.09031 0.0
C125 C 0.94369 0.37555 0.11017 0.0
O126 O 0.98261 0.40086 0.10977 0.0
C127 C 0.00605 0.41701 0.07578 0.0
O128 O 0.97823 0.42392 0.08019 0.0
O129 O 0.91078 0.32174 0.06865 0.0
C130 C 0.60716 0.63001 0.06657 0.0
O131 O 0.63548 0.65243 0.05791 0.0
O132 O 0.71055 0.684 0.0864 0.0
Zn133 Zn 0.67304 0.62879 0.07777 0.0
O134 O 0.68545 0.61861 0.05856 0.0
C135 C 0.65816 0.5806 0.10151 0.0
O136 O 0.6293 0.58807 0.10362 0.0
O137 O 0.61615 0.61699 0.07683 0.0
C138 C 0.71671 0.62312 0.05277 0.0
O139 O 0.75012 0.63779 0.05967 0.0
C140 C 0.74491 0.71129 0.08233 0.0
O141 O 0.75671 0.7081 0.0701 0.0
O142 O 0.67835 0.59207 0.09062 0.0
C143 C 0.32287 0.04285 0.10025 0.0
O144 O 0.34692 0.03386 0.10632 0.0
O145 O 0.38746 0.01672 0.0797 0.0
Zn146 Zn 0.38552 0.06786 0.08188 0.0
O147 O 0.42208 0.1037 0.09702 0.0
C148 C 0.40406 0.07959 0.05324 0.0
O149 O 0.38974 0.04036 0.05332 0.0
O150 O 0.33091 0.05539 0.08815 0.0
C151 C 0.41569 0.13061 0.10201 0.0
O152 O 0.38918 0.13658 0.09619 0.0
C153 C 0.41204 0.01073 0.08598 0.0
O154 O 0.43604 0.03763 0.09508 0.0
O155 O 0.40348 0.09771 0.06416 0.0
C156 C 0.05932 0.74358 0.9062 0.0
O157 O 0.03508 0.71151 0.89871 0.0
O158 O 0.01286 0.64301 0.92465 0.0
Zn159 Zn 0.0681 0.68283 0.91761 0.0
O160 O 0.07939 0.66978 0.89864 0.0
C161 C 0.10731 0.69084 0.94342 0.0
O162 O 0.09163 0.71255 0.94718 0.0
O163 O 0.07695 0.73922 0.91619 0.0
C164 C 0.09719 0.65069 0.89595 0.0
O165 O 0.10568 0.63435 0.90587 0.0
C166 C 0.00258 0.6059 0.92514 0.0
O167 O 0.02532 0.59411 0.91927 0.0
O168 O 0.10403 0.67854 0.93115 0.0
C169 C 0.42294 0.4156 0.93166 0.0
O170 O 0.40097 0.41063 0.94243 0.0
O171 O 0.3134 0.37966 0.91351 0.0
Zn172 Zn 0.36526 0.42996 0.91904 0.0
O173 O 0.36277 0.45658 0.93673 0.0
C174 C 0.37489 0.45226 0.89165 0.0
O175 O 0.37207 0.41686 0.89043 0.0
O176 O 0.41207 0.42165 0.92031 0.0
C177 C 0.34266 0.4382 0.94716 0.0
O178 O 0.31813 0.3987 0.94651 0.0
C179 C 0.29545 0.34339 0.9175 0.0
O180 O 0.31035 0.33366 0.92754 0.0
O181 O 0.37508 0.46649 0.90346 0.0
C182 C 0.67495 0.96381 0.90766 0.0
O183 O 0.65818 0.97944 0.90058 0.0
O184 O 0.61696 -0.00193 0.93009 0.0
Zn185 Zn 0.607 0.94434 0.92289 0.0
O186 O 0.57593 0.92707 0.90517 0.0
C187 C 0.59037 0.91831 0.94981 0.0
O188 O 0.62518 0.95214 0.95131 0.0
O189 O 0.65943 0.9477 0.91891 0.0
C190 C 0.57476 0.89788 0.89841 0.0
O191 O 0.58992 0.87797 0.90379 0.0
C192 C 0.59212 0.00961 0.92871 0.0
O193 O 0.56067 0.98843 0.92087 0.0
O194 O 0.57648 0.90597 0.93791 0.0
C195 C 0.61607 0.59539 0.42591 0.0
O196 O 0.63975 0.62706 0.43366 0.0
O197 O 0.67704 0.69442 0.41031 0.0
Zn198 Zn 0.61795 0.65949 0.41379 0.0
O199 O 0.60144 0.67252 0.4319 0.0
C200 C 0.57878 0.65138 0.38737 0.0
O201 O 0.57786 0.61707 0.38549 0.0
O202 O 0.60275 0.60103 0.41502 0.0
C203 C 0.56616 0.64558 0.43542 0.0
O204 O 0.54406 0.61582 0.42678 0.0
C205 C 0.69035 0.73169 0.40832 0.0
O206 O 0.6661 0.74554 0.41002 0.0
O207 O 0.59187 0.67122 0.39849 0.0
C208 C 0.31137 0.00932 0.41195 0.0
O209 O 0.34908 0.02938 0.40816 0.0
O210 O 0.38958 0.02039 0.43378 0.0
Zn211 Zn 0.34565 0.97132 0.42395 0.0
O212 O 0.36153 0.95925 0.4056 0.0
C213 C 0.33353 0.92929 0.44907 0.0
O214 O 0.32897 0.95827 0.45433 0.0
O215 O 0.3001 0.98043 0.42016 0.0
C216 C 0.33266 0.92913 0.39935 0.0
O217 O 0.29758 0.90938 0.40533 0.0
C218 C 0.42326 0.02391 0.43592 0.0
O219 O 0.43176 -0.00147 0.42987 0.0
O220 O 0.33526 0.92598 0.43626 0.0
C221 C 0.97196 0.41064 0.43097 0.0
O222 O 0.98194 0.38938 0.43834 0.0
O223 O 0.01322 0.35556 0.41051 0.0
Zn224 Zn 0.03475 0.41399 0.4159 0.0
O225 O 0.06656 0.42986 0.43338 0.0
C226 C 0.06433 0.43542 0.38838 0.0
O227 O 0.03157 0.40082 0.38531 0.0
O228 O 0.9896 0.42389 0.41969 0.0
C229 C 0.07601 0.46471 0.43814 0.0
O230 O 0.06711 0.48735 0.43106 0.0
C231 C 0.03807 0.34373 0.40971 0.0
O232 O 0.07535 0.36891 0.41345 0.0
O233 O 0.07097 0.44795 0.40068 0.0
Zn234 Zn 0.01616 0.02162 0.12586 0.0
Zn235 Zn 0.00687 0.01073 0.17694 0.0
Zn236 Zn 0.01063 0.01536 0.15182 0.0
C237 C 0.97511 0.93216 0.16839 0.0
C238 C 0.08659 0.05923 0.17251 0.0
O239 O 0.9828 0.05048 0.1457 0.0
O240 O -0.00368 0.05868 0.12382 0.0
C241 C 0.96574 0.93945 0.13082 0.0
O242 O 0.98442 0.9501 0.15692 0.0
O243 O 0.97943 0.95231 0.17916 0.0
O244 O 0.06317 0.04138 0.18219 0.0
O245 O 0.07286 0.0533 0.1603 0.0
O246 O 0.97903 0.96406 0.12123 0.0
O247 O 0.97617 0.95253 0.14313 0.0
O248 O 0.07513 0.04552 0.1463 0.0
O249 O 0.07375 0.04276 0.12393 0.0
C250 C 0.09328 0.05115 0.13482 0.0
O251 O 0.97231 0.03934 0.15935 0.0
O252 O 0.97643 0.03633 0.18152 0.0
C253 C 0.982 0.06573 0.13432 0.0
C254 C 0.96289 0.04481 0.17146 0.0
Zn255 Zn 0.01978 0.02425 0.33419 0.0
Zn256 Zn 0.01495 0.02309 0.38425 0.0
Zn257 Zn 0.01735 0.02223 0.3598 0.0
C258 C 0.01316 0.08936 0.37753 0.0
C259 C 0.9483 0.95232 0.3765 0.0
O260 O 0.98069 0.95814 0.35221 0.0
O261 O 0.98388 0.96632 0.33009 0.0
C262 C 0.09781 0.05403 0.34218 0.0
O263 O 0.00163 0.06764 0.36651 0.0
O264 O 0.02738 0.07944 0.38704 0.0
O265 O 0.95842 0.97867 0.3859 0.0
O266 O 0.97052 0.96042 0.3659 0.0
O267 O 0.07704 0.04533 0.33158 0.0
O268 O 0.08121 0.04785 0.35395 0.0
O269 O 0.99282 0.06013 0.35263 0.0
O270 O 0.00026 0.06057 0.33038 0.0
C271 C 0.9888 0.07119 0.34082 0.0
O272 O 0.07721 0.03839 0.36779 0.0
O273 O 0.05768 0.01152 0.38791 0.0
C274 C 0.97201 0.94307 0.34004 0.0
C275 C 0.08445 0.02659 0.37893 0.0
Zn276 Zn 0.00585 0.01453 0.89042 0.0
Zn277 Zn 0.00163 -0.00042 0.82306 0.0
Zn278 Zn 0.00818 0.01882 0.86489 0.0
C279 C 0.03185 0.07412 0.84386 0.0
C280 C 0.94411 0.97533 0.84643 0.0
O281 O 0.03961 0.98703 0.86853 0.0
O282 O 0.02888 0.97904 0.89058 0.0
C283 C 0.0565 0.09747 0.88301 0.0
O284 O 0.03423 0.08044 0.85665 0.0
O285 O 0.01582 0.03729 0.84003 0.0
O286 O 0.97613 -0.00023 0.84051 0.0
O287 O 0.94522 0.9798 0.85924 0.0
O288 O 0.04452 0.07352 0.89281 0.0
O289 O 0.04378 0.08356 0.87095 0.0
O290 O 0.9449 0.9891 0.87251 0.0
O291 O 0.9483 0.99299 0.89483 0.0
C292 C 0.92762 0.98363 0.88416 0.0
O293 O 0.04049 0.99208 0.85313 0.0
O294 O 0.03575 0.97867 0.83029 0.0
C295 C 0.04298 0.97311 0.87976 0.0
C296 C 0.04908 0.97872 0.8421 0.0
Zn297 Zn -0.00455 0.01751 0.66513 0.0
Zn298 Zn 0.02612 0.01496 0.61758 0.0
Zn299 Zn 0.01284 0.01504 0.64233 0.0
C300 C 0.99159 0.93533 0.62532 0.0
C301 C 0.09941 0.06692 0.62986 0.0
O302 O 0.99272 0.06015 0.64501 0.0
O303 O -0.00326 0.06799 0.66726 0.0
C304 C 0.9406 0.94176 0.65781 0.0
O305 O 0.98314 0.95052 0.6357 0.0
O306 O 0.0144 0.95836 0.61621 0.0
O307 O 0.08206 0.06032 0.61858 0.0
O308 O 0.07923 0.0481 0.64042 0.0
O309 O 0.94205 0.96863 0.66572 0.0
O310 O 0.96804 0.95171 0.64874 0.0
O311 O 0.06915 0.03553 0.65371 0.0
O312 O 0.04027 0.01684 0.6737 0.0
C313 C 0.07102 0.02953 0.66638 0.0
O314 O 0.98581 0.04555 0.63188 0.0
O315 O 0.98708 0.02794 0.61048 0.0
C316 C 0.99195 0.07893 0.65593 0.0
C317 C 0.97594 0.04416 0.61936 0.0
Zn318 Zn 0.66432 0.38395 0.51127 0.0
Zn319 Zn 0.6551 0.33168 0.4629 0.0
Zn320 Zn 0.66026 0.35406 0.4881 0.0
C321 C 0.73488 0.3895 0.46738 0.0
C322 C 0.62679 0.26186 0.47768 0.0
O323 O 0.61623 0.375 0.49102 0.0
O324 O 0.62707 0.40256 0.51159 0.0
C325 C 0.74149 0.42443 0.50329 0.0
O326 O 0.72169 0.38686 0.47956 0.0
O327 O 0.71128 0.36914 0.45782 0.0
O328 O 0.63692 0.27424 0.46576 0.0
O329 O 0.63278 0.28728 0.48744 0.0
O330 O 0.72022 0.42629 0.51262 0.0
O331 O 0.72493 0.39852 0.49338 0.0
O332 O 0.64071 0.30171 0.50104 0.0
O333 O 0.64696 0.3327 0.52081 0.0
C334 C 0.63839 0.30092 0.51404 0.0
O335 O 0.62369 0.37258 0.47688 0.0
O336 O 0.61604 0.34538 0.45633 0.0
C337 C 0.60752 0.39227 0.50071 0.0
C338 C 0.60953 0.36651 0.46474 0.0
Zn339 Zn 0.67904 0.33816 0.72448 0.0
Zn340 Zn 0.6784 0.33963 0.67816 0.0
Zn341 Zn 0.67868 0.34204 0.70023 0.0
C342 C 0.61968 0.35212 0.68274 0.0
C343 C 0.74976 0.40202 0.68288 0.0
O344 O 0.70699 0.30645 0.7048 0.0
O345 O 0.72222 0.32577 0.72622 0.0
C346 C 0.6 0.29472 0.71681 0.0
O347 O 0.61987 0.332 0.69295 0.0
O348 O 0.65018 0.36872 0.67524 0.0
O349 O 0.73714 0.37014 0.67568 0.0
O350 O 0.72799 0.40164 0.69289 0.0
O351 O 0.62244 0.29354 0.72563 0.0
O352 O 0.61559 0.31726 0.70643 0.0
O353 O 0.71811 0.40545 0.70671 0.0
O354 O 0.69213 0.39536 0.72723 0.0
C355 C 0.71321 0.41949 0.71805 0.0
O356 O 0.68494 0.28993 0.6932 0.0
O357 O 0.64719 0.27995 0.67556 0.0
C358 C 0.72651 0.30927 0.71564 0.0
C359 C 0.66262 0.2666 0.68342 0.0
Zn360 Zn 0.67673 0.3579 0.21358 0.0
Zn361 Zn 0.6752 0.34487 0.16521 0.0
Zn362 Zn 0.67786 0.35579 0.18774 0.0
C363 C 0.68284 0.41787 0.16811 0.0
C364 C 0.60568 0.28536 0.17139 0.0
O365 O 0.70694 0.32303 0.19507 0.0
O366 O 0.69745 0.32206 0.2172 0.0
C367 C 0.72268 0.43828 0.20446 0.0
O368 O 0.70034 0.41566 0.17872 0.0
O369 O 0.66105 0.38617 0.16107 0.0
O370 O 0.63319 0.28687 0.16416 0.0
O371 O 0.61486 0.31345 0.18051 0.0
O372 O 0.713 0.41745 0.21501 0.0
O373 O 0.71104 0.42101 0.19273 0.0
O374 O 0.61441 0.32801 0.19388 0.0
O375 O 0.6191 0.33662 0.21615 0.0
C376 C 0.59811 0.3256 0.20552 0.0
O377 O 0.72022 0.33546 0.18201 0.0
O378 O 0.72962 0.35778 0.16119 0.0
C379 C 0.70949 0.31122 0.20693 0.0
C380 C 0.74025 0.34484 0.17085 0.0
Zn381 Zn 0.66789 0.3629 1.00149 0.0
Zn382 Zn 0.68578 0.34343 0.95309 0.0
Zn383 Zn 0.67628 0.35211 0.97869 0.0
C384 C 0.6387 0.26576 0.96345 0.0
C385 C 0.76231 0.38793 0.96455 0.0
O386 O 0.66449 0.40298 0.98055 0.0
O387 O 0.6824 0.41944 1.00195 0.0
C388 C 0.60171 0.29099 0.99622 0.0
O389 O 0.63998 0.28617 0.97419 0.0
O390 O 0.65724 0.28375 0.95288 0.0
O391 O 0.74498 0.37554 0.95322 0.0
O392 O 0.7415 0.37916 0.97555 0.0
O393 O 0.61086 0.32223 1.00335 0.0
O394 O 0.62584 0.29341 0.98672 0.0
O395 O 0.73286 0.36678 0.98893 0.0
O396 O 0.7062 0.35022 0.0092 0.0
C397 C 0.73495 0.35835 1.00132 0.0
O398 O 0.65461 0.38623 0.96756 0.0
O399 O 0.65766 0.36956 0.94615 0.0
C400 C 0.67349 0.42769 0.99078 0.0
C401 C 0.64778 0.38731 0.95487 0.0
Zn402 Zn 0.36196 0.69505 0.82988 0.0
Zn403 Zn 0.34049 0.68384 0.78379 0.0
Zn404 Zn 0.3522 0.68599 0.80814 0.0
C405 C 0.42276 0.71785 0.78685 0.0
C406 C 0.29736 0.60368 0.79319 0.0
O407 O 0.30594 0.69751 0.81755 0.0
O408 O 0.30614 0.66734 0.83599 0.0
C409 C 0.42181 0.76171 0.82182 0.0
O410 O 0.41299 0.71928 0.79926 0.0
O411 O 0.39581 0.70084 0.77789 0.0
O412 O 0.29801 0.62553 0.78377 0.0
O413 O 0.3208 0.62035 0.80345 0.0
O414 O 0.39395 0.75518 0.82989 0.0
O415 O 0.4156 0.73409 0.81285 0.0
O416 O 0.34033 0.62812 0.81654 0.0
O417 O 0.38861 0.66352 0.83126 0.0
C418 C 0.36452 0.62974 0.82562 0.0
O419 O 0.3185 0.71716 0.80547 0.0
O420 O 0.32483 0.72495 0.78333 0.0
C421 C 0.28859 0.67945 0.8286 0.0
C422 C 0.31515 0.73326 0.79466 0.0
Zn423 Zn 0.32417 0.66698 0.05517 0.0
Zn424 Zn 0.35369 0.69087 0.99303 0.0
Zn425 Zn 0.33861 0.68273 0.02976 0.0
C426 C 0.27116 0.65728 0.00453 0.0
C427 C 0.38521 0.75126 0.01588 0.0
O428 O 0.36537 0.6467 0.03477 0.0
O429 O 0.3485 0.63284 0.05625 0.0
C430 C 0.25038 0.63562 0.04158 0.0
O431 O 0.28351 0.66287 0.017 0.0
O432 O 0.29422 0.66505 0.99436 0.0
O433 O 0.36251 0.71876 0.00975 0.0
O434 O 0.38041 0.74938 0.02859 0.0
O435 O 0.26526 0.64044 0.05325 0.0
O436 O 0.2733 0.6496 0.03118 0.0
O437 O 0.36767 0.74141 0.0418 0.0
O438 O 0.35469 0.72268 0.06315 0.0
C439 C 0.37055 0.75042 0.05458 0.0
O440 O 0.36539 0.6486 0.02008 0.0
O441 O 0.3732 0.65403 0.99739 0.0
C442 C 0.36616 0.63019 0.04582 0.0
C443 C 0.37602 0.63998 0.00856 0.0
Zn444 Zn 0.35181 0.68375 0.54476 0.0
Zn445 Zn 0.34727 0.67285 0.49573 0.0
Zn446 Zn 0.35003 0.67871 0.5211 0.0
C447 C 0.37872 0.75423 0.50141 0.0
C448 C 0.26901 0.62529 0.50342 0.0
O449 O 0.3777 0.64503 0.52861 0.0
O450 O 0.34563 0.63019 0.54809 0.0
C451 C 0.40946 0.75757 0.53761 0.0
O452 O 0.375 0.74148 0.51359 0.0
O453 O 0.3691 0.72989 0.49144 0.0
O454 O 0.28994 0.63624 0.49282 0.0
O455 O 0.2856 0.63828 0.51514 0.0
O456 O 0.40556 0.73344 0.54671 0.0
O457 O 0.38599 0.74381 0.52723 0.0
O458 O 0.28782 0.65125 0.52865 0.0
O459 O 0.30442 0.6894 0.54724 0.0
C460 C 0.27792 0.66558 0.53889 0.0
O461 O 0.38813 0.65333 0.51488 0.0
O462 O 0.38186 0.65074 0.4926 0.0
C463 C 0.36595 0.62393 0.53943 0.0
C464 C 0.39691 0.64554 0.50299 0.0
Zn465 Zn 0.3437 0.68794 0.28956 0.0
Zn466 Zn 0.35827 0.70483 0.33674 0.0
Zn467 Zn 0.34951 0.69564 0.31397 0.0
C468 C 0.42367 0.70546 0.32952 0.0
C469 C 0.29115 0.63204 0.33464 0.0
O470 O 0.31432 0.72357 0.30807 0.0
O471 O 0.29601 0.69287 0.28803 0.0
C472 C 0.42322 0.74556 0.29433 0.0
O473 O 0.41346 0.71651 0.31884 0.0
O474 O 0.39985 0.69176 0.33935 0.0
O475 O 0.30443 0.66288 0.3424 0.0
O476 O 0.30794 0.63542 0.32301 0.0
O477 O 0.39744 0.73523 0.28508 0.0
O478 O 0.41196 0.72925 0.30605 0.0
O479 O 0.31739 0.62906 0.30983 0.0
O480 O 0.33396 0.63229 0.28826 0.0
C481 C 0.31895 0.61153 0.29872 0.0
O482 O 0.3322 0.74025 0.32062 0.0
O483 O 0.37324 0.76225 0.33809 0.0
C484 C 0.29188 0.71312 0.29747 0.0
C485 C 0.35119 0.76699 0.3301 0.0
H486 H 0.23582 0.15436 0.23208 0.0
H487 H 0.24589 0.26815 0.22226 0.0
H488 H 0.214 0.23878 0.2 0.0
H489 H 0.24966 0.12416 0.19743 0.0
H490 H 0.21246 0.07156 0.19996 0.0
H491 H 0.2417 0.10336 0.2141 0.0
H492 H 0.17675 0.08549 0.22723 0.0
H493 H 0.14767 0.05291 0.21333 0.0
H494 H 0.13978 0.09284 0.21928 0.0
H495 H 0.17615 0.19501 0.17956 0.0
H496 H 0.12453 0.13829 0.16545 0.0
H497 H 0.13728 0.053 0.18915 0.0
C498 C 0.23188 0.17331 0.22515 0.0
C499 C 0.24352 0.21358 0.22883 0.0
C500 C 0.23707 0.23715 0.21963 0.0
C501 C 0.2195 0.22089 0.2069 0.0
C502 C 0.20849 0.18101 0.20355 0.0
C503 C 0.21391 0.15739 0.21254 0.0
C504 C 0.19475 0.11395 0.20739 0.0
C505 C 0.22655 0.10261 0.20455 0.0
C506 C 0.16284 0.0846 0.21739 0.0
C507 C 0.17618 0.11627 0.19435 0.0
C508 C 0.18562 0.15549 0.19203 0.0
C509 C 0.16909 0.16434 0.18117 0.0
C510 C 0.14018 0.13202 0.17307 0.0
C511 C 0.12756 0.09152 0.17613 0.0
C512 C 0.14734 0.08386 0.18641 0.0
H513 H 0.84921 0.06909 0.23087 0.0
H514 H 0.7412 0.97124 0.21197 0.0
H515 H 0.77814 0.98111 0.19051 0.0
H516 H 0.89092 0.13281 0.20049 0.0
H517 H 0.94142 0.14733 0.20481 0.0
H518 H 0.90516 0.13671 0.21801 0.0
H519 H 0.91796 0.08258 0.22777 0.0
H520 H 0.95498 0.09416 0.21491 0.0
H521 H 0.91397 0.04268 0.21671 0.0
H522 H 0.82862 0.997 0.17186 0.0
H523 H 0.88922 0.00832 0.15971 0.0
H524 H 0.96356 0.09591 0.1907 0.0
C525 C 0.83312 0.05002 0.22218 0.0
C526 C 0.79228 0.01947 0.22311 0.0
C527 C 0.77254 0.99483 0.21153 0.0
C528 C 0.79314 0.00059 0.19923 0.0
C529 C 0.83339 0.03131 0.19863 0.0
C530 C 0.8532 0.0553 0.20988 0.0
C531 C 0.89746 0.08279 0.20719 0.0
C532 C 0.90943 0.12757 0.20765 0.0
C533 C 0.92254 0.07504 0.21723 0.0
C534 C 0.89997 0.06903 0.1929 0.0
C535 C 0.86254 0.0403 0.18793 0.0
C536 C 0.85797 0.02003 0.17553 0.0
C537 C 0.89255 0.02703 0.16857 0.0
C538 C 0.93085 0.0533 0.17425 0.0
C539 C 0.93452 0.07649 0.18603 0.0
H540 H 0.97027 0.79931 0.22453 0.0
H541 H 0.06541 0.79479 0.20298 0.0
H542 H 0.04878 0.81783 0.18228 0.0
H543 H 0.89992 0.76808 0.19519 0.0
H544 H 0.8836 0.80219 0.20061 0.0
H545 H 0.89885 0.77928 0.21297 0.0
H546 H 0.95132 0.85042 0.22283 0.0
H547 H 0.93525 0.87308 0.21081 0.0
H548 H 0.9873 0.88819 0.21159 0.0
H549 H 0.02804 0.8508 0.16506 0.0
H550 H 0.01208 0.89825 0.15463 0.0
H551 H 0.92829 0.87768 0.18697 0.0
C552 C 0.98735 0.80263 0.21542 0.0
C553 C 0.01925 0.79536 0.2154 0.0
C554 C 0.04084 0.80021 0.20325 0.0
C555 C 0.03131 0.81286 0.1914 0.0
C556 C -0.00039 0.8198 0.19178 0.0
C557 C 0.97801 0.81483 0.20352 0.0
C558 C 0.94837 0.82844 0.20186 0.0
C559 C 0.90512 0.79233 0.20271 0.0
C560 C 0.95606 0.86203 0.21238 0.0
C561 C 0.95836 0.84437 0.18762 0.0
C562 C 0.98715 0.83807 0.18177 0.0
C563 C 0.00483 0.85504 0.16939 0.0
C564 C -0.00481 0.88159 0.1634 0.0
C565 C 0.96879 0.89134 0.16999 0.0
C566 C 0.94792 0.86997 0.18161 0.0
H567 H 0.26376 0.25403 0.31541 0.0
H568 H 0.2855 0.18024 0.28686 0.0
H569 H 0.2523 0.12267 0.30232 0.0
H570 H 0.26652 0.20256 0.34793 0.0
H571 H 0.22588 0.20651 0.35501 0.0
H572 H 0.26173 0.2452 0.34398 0.0
H573 H 0.2041 0.23459 0.32832 0.0
H574 H 0.16846 0.19661 0.33937 0.0
H575 H 0.16926 0.18438 0.32166 0.0
H576 H 0.20475 0.07024 0.31762 0.0
H577 H 0.14156 0.02666 0.32972 0.0
H578 H 0.14894 0.13258 0.3487 0.0
C579 C 0.26297 0.22624 0.31269 0.0
C580 C 0.27754 0.22165 0.30003 0.0
C581 C 0.27473 0.18443 0.29657 0.0
C582 C 0.25628 0.15171 0.30536 0.0
C583 C 0.24083 0.15665 0.3176 0.0
C584 C 0.24401 0.19309 0.32128 0.0
C585 C 0.21841 0.18847 0.33356 0.0
C586 C 0.24472 0.21209 0.34585 0.0
C587 C 0.18828 0.20174 0.33053 0.0
C588 C 0.19774 0.14312 0.33552 0.0
C589 C 0.21241 0.12562 0.32658 0.0
C590 C 0.19394 0.08362 0.32498 0.0
C591 C 0.15819 0.05899 0.33197 0.0
C592 C 0.14136 0.07645 0.3404 0.0
C593 C 0.16247 0.11873 0.34279 0.0
H594 H 0.7906 0.0313 0.31159 0.0
H595 H 0.86283 0.13608 0.28681 0.0
H596 H 0.91981 0.15886 0.30242 0.0
H597 H 0.83903 0.08121 0.34553 0.0
H598 H 0.83579 0.03533 0.35092 0.0
H599 H 0.798 0.03253 0.33986 0.0
H600 H 0.81106 0.98907 0.32248 0.0
H601 H 0.8483 0.99141 0.33352 0.0
H602 H 0.86127 0.00811 0.31634 0.0
H603 H 0.97192 0.16249 0.31747 0.0
H604 H 0.01489 0.14403 0.32957 0.0
H605 H 0.90981 0.03829 0.34523 0.0
C606 C 0.81795 0.05981 0.30971 0.0
C607 C 0.82213 0.08204 0.29801 0.0
C608 C 0.8588 0.11862 0.29572 0.0
C609 C 0.89128 0.13197 0.30461 0.0
C610 C 0.88659 0.10866 0.31583 0.0
C611 C 0.85071 0.07339 0.31844 0.0
C612 C 0.85507 0.0506 0.32991 0.0
C613 C 0.83051 0.04989 0.34229 0.0
C614 C 0.84327 0.00728 0.32527 0.0
C615 C 0.8996 0.07705 0.33272 0.0
C616 C 0.91702 0.11108 0.32477 0.0
C617 C 0.95851 0.13681 0.32409 0.0
C618 C 0.98276 0.12632 0.33107 0.0
C619 C 0.96549 0.0906 0.33867 0.0
C620 C 0.92352 0.06681 0.34003 0.0
H621 H 0.94535 0.79383 0.28277 0.0
H622 H -0.00324 0.74603 0.30976 0.0
H623 H 0.98259 0.77793 0.32932 0.0
H624 H 0.98614 0.88658 0.29708 0.0
H625 H 0.94381 0.89267 0.29494 0.0
H626 H 0.95019 0.85905 0.28377 0.0
H627 H 0.87914 0.80023 0.29006 0.0
H628 H 0.87285 0.83388 0.30145 0.0
H629 H 0.86662 0.78735 0.30757 0.0
H630 H 0.97747 0.82735 0.3448 0.0
H631 H 0.98313 0.88994 0.35428 0.0
H632 H 0.92876 0.90084 0.31802 0.0
C633 C 0.95262 0.78917 0.29285 0.0
C634 C 0.97222 0.76759 0.29476 0.0
C635 C 0.98153 0.76231 0.30807 0.0
C636 C 0.97336 0.78013 0.31925 0.0
C637 C 0.95493 0.80222 0.317 0.0
C638 C 0.94411 0.80621 0.30411 0.0
C639 C 0.92905 0.83526 0.30412 0.0
C640 C 0.9538 0.87046 0.29442 0.0
C641 C 0.88424 0.81283 0.30059 0.0
C642 C 0.93608 0.8495 0.31881 0.0
C643 C 0.95011 0.82941 0.32619 0.0
C644 C 0.96495 0.84216 0.33933 0.0
C645 C 0.96756 0.87751 0.34476 0.0
C646 C 0.95524 0.8995 0.33705 0.0
C647 C 0.93723 0.88385 0.32428 0.0
H648 H 0.83625 0.8416 0.78061 0.0
H649 H 0.76903 0.73851 0.8066 0.0
H650 H 0.80037 0.78319 0.82675 0.0
H651 H 0.92696 0.88842 0.79992 0.0
H652 H 0.93878 0.93931 0.79681 0.0
H653 H 0.90997 0.89922 0.7846 0.0
H654 H 0.85365 0.91588 0.78593 0.0
H655 H 0.88216 0.95579 0.79825 0.0
H656 H 0.83183 0.91596 0.80212 0.0
H657 H 0.83916 0.84002 0.84416 0.0
H658 H 0.88703 0.90258 0.85704 0.0
H659 H 0.92891 0.96711 0.81941 0.0
C660 C 0.82806 0.82836 0.79053 0.0
C661 C 0.8001 0.78659 0.79203 0.0
C662 C 0.79047 0.77043 0.8052 0.0
C663 C 0.80792 0.79561 0.81671 0.0
C664 C 0.83507 0.83679 0.81487 0.0
C665 C 0.84539 0.85292 0.80209 0.0
C666 C 0.87647 0.89776 0.80278 0.0
C667 C 0.91534 0.90668 0.79561 0.0
C668 C 0.86003 0.92281 0.79692 0.0
C669 C 0.88226 0.90435 0.81794 0.0
C670 C 0.85784 0.86902 0.82479 0.0
C671 C 0.85844 0.86785 0.83889 0.0
C672 C 0.88552 0.9035 0.84613 0.0
C673 C 0.91179 0.93948 0.83919 0.0
C674 C 0.90941 0.93993 0.82496 0.0
H675 H 0.2466 0.07153 0.80581 0.0
H676 H 0.20009 0.95115 0.78809 0.0
H677 H 0.15195 0.92172 0.80681 0.0
H678 H 0.22808 0.04038 0.84271 0.0
H679 H 0.21282 0.07626 0.84672 0.0
H680 H 0.25004 0.08742 0.83382 0.0
H681 H 0.20742 0.09812 0.81637 0.0
H682 H 0.17111 0.08825 0.82932 0.0
H683 H 0.15584 0.0587 0.81372 0.0
H684 H 0.10136 0.90637 0.8244 0.0
H685 H 0.0475 0.90841 0.83699 0.0
H686 H 0.12587 0.03718 0.84442 0.0
C687 C 0.22694 0.0389 0.80611 0.0
C688 C 0.22714 0.01367 0.79553 0.0
C689 C 0.20036 0.97117 0.79606 0.0
C690 C 0.17326 0.95406 0.80678 0.0
C691 C 0.17326 0.97972 0.81697 0.0
C692 C 0.19925 0.02132 0.8167 0.0
C693 C 0.18869 0.04263 0.8276 0.0
C694 C 0.22189 0.06287 0.83835 0.0
C695 C 0.18023 0.0737 0.82138 0.0
C696 C 0.15109 0.00683 0.83338 0.0
C697 C 0.14358 0.9706 0.82745 0.0
C698 C 0.10746 0.93425 0.82946 0.0
C699 C 0.07708 0.93547 0.83677 0.0
C700 C 0.08315 0.97274 0.84194 0.0
C701 C 0.12142 0.00812 0.8411 0.0
H702 H -0.00316 0.22973 0.8041 0.0
H703 H 0.03268 0.18928 0.7681 0.0
H704 H 0.05206 0.15074 0.78228 0.0
H705 H 0.07424 0.23871 0.82675 0.0
H706 H 0.0413 0.2189 0.84113 0.0
H707 H 0.03221 0.24576 0.82838 0.0
H708 H 0.96028 0.18424 0.82475 0.0
H709 H 0.96893 0.1576 0.83766 0.0
H710 H 0.95312 0.13489 0.82098 0.0
H711 H 0.0661 0.11549 0.79985 0.0
H712 H 0.06501 0.07726 0.81957 0.0
H713 H 0.01923 0.13824 0.84465 0.0
C714 C 0.0088 0.21277 0.79922 0.0
C715 C 0.01331 0.21266 0.78496 0.0
C716 C 0.02872 0.18976 0.77896 0.0
C717 C 0.04024 0.16808 0.78695 0.0
C718 C 0.036 0.16931 0.80095 0.0
C719 C 0.02006 0.19044 0.80706 0.0
C720 C 0.01605 0.18409 0.82226 0.0
C721 C 0.04254 0.22427 0.83009 0.0
C722 C 0.97198 0.164 0.82667 0.0
C723 C 0.03164 0.15555 0.82367 0.0
C724 C 0.04365 0.14817 0.81123 0.0
C725 C 0.05712 0.12126 0.80965 0.0
C726 C 0.0566 0.09985 0.82093 0.0
C727 C 0.04263 0.10531 0.83363 0.0
C728 C 0.0312 0.13447 0.83514 0.0
H729 H 0.75804 0.81405 0.70297 0.0
H730 H 0.82537 0.76262 0.71811 0.0
H731 H 0.86933 0.78675 0.69803 0.0
H732 H 0.77108 0.80051 0.66558 0.0
H733 H 0.77751 0.84909 0.66195 0.0
H734 H 0.74564 0.81985 0.67572 0.0
H735 H 0.78642 0.88055 0.69246 0.0
H736 H 0.81749 0.90992 0.6787 0.0
H737 H 0.83997 0.90324 0.69346 0.0
H738 H 0.91147 0.8242 0.6782 0.0
H739 H 0.95419 0.88111 0.66317 0.0
H740 H 0.86159 0.91054 0.66133 0.0
C741 C 0.78136 0.80695 0.70183 0.0
C742 C 0.78815 0.78623 0.71199 0.0
C743 C 0.8197 0.77849 0.71041 0.0
C744 C 0.84448 0.79162 0.69895 0.0
C745 C 0.83747 0.81258 0.68916 0.0
C746 C 0.8069 0.82059 0.69057 0.0
C747 C 0.80982 0.8495 0.67993 0.0
C748 C 0.77387 0.82847 0.67022 0.0
C749 C 0.8137 0.88807 0.68653 0.0
C750 C 0.84805 0.85832 0.67281 0.0
C751 C 0.8627 0.83546 0.6779 0.0
C752 C 0.89989 0.84162 0.67392 0.0
C753 C 0.92385 0.87371 0.66525 0.0
C754 C 0.9107 0.89952 0.66096 0.0
C755 C 0.87159 0.89029 0.66418 0.0
H756 H 0.18487 0.05177 0.73337 0.0
H757 H 0.2362 0.9874 0.71354 0.0
H758 H 0.20954 0.99257 0.69153 0.0
H759 H 0.09527 0.00525 0.7154 0.0
H760 H 0.09235 0.05032 0.71486 0.0
H761 H 0.11867 0.04415 0.72846 0.0
H762 H 0.18218 0.11297 0.72267 0.0
H763 H 0.15609 0.11892 0.70887 0.0
H764 H 0.20258 0.12074 0.70579 0.0
H765 H 0.17164 0.00041 0.67186 0.0
H766 H 0.12257 0.00523 0.65748 0.0
H767 H 0.09921 0.06592 0.6906 0.0
C768 C 0.19081 0.0389 0.72442 0.0
C769 C 0.21251 0.01905 0.7252 0.0
C770 C 0.21956 0.00271 0.71319 0.0
C771 C 0.20479 0.00576 0.70063 0.0
C772 C 0.18352 0.02571 0.70024 0.0
C773 C 0.17665 0.04196 0.71188 0.0
C774 C 0.15098 0.05968 0.7091 0.0
C775 C 0.11202 0.03857 0.71744 0.0
C776 C 0.17437 0.10582 0.71177 0.0
C777 C 0.14304 0.04956 0.69417 0.0
C778 C 0.16253 0.03063 0.68908 0.0
C779 C 0.15685 0.01586 0.67569 0.0
C780 C 0.12931 0.01905 0.66754 0.0
C781 C 0.10777 0.03649 0.67292 0.0
C782 C 0.11591 0.0531 0.6862 0.0
H783 H 0.93455 0.17497 0.7099 0.0
H784 H 0.0585 0.2732 0.70831 0.0
H785 H 0.06331 0.25235 0.68482 0.0
H786 H 0.94808 0.10374 0.69553 0.0
H787 H 0.90141 0.0774 0.68633 0.0
H788 H 0.90562 0.10672 0.70125 0.0
H789 H 0.88297 0.14741 0.68726 0.0
H790 H 0.8801 0.11866 0.67215 0.0
H791 H 0.91064 0.17325 0.67235 0.0
H792 H 0.0589 0.21346 0.66375 0.0
H793 H 0.04968 0.15525 0.64981 0.0
H794 H 0.92867 0.08247 0.66456 0.0
C795 C 0.96241 0.19283 0.70448 0.0
C796 C -0.00388 0.22576 0.71094 0.0
C797 C 0.03224 0.24787 0.70358 0.0
C798 C 0.03506 0.23654 0.69015 0.0
C799 C 0.00139 0.20333 0.68415 0.0
C800 C 0.96571 0.18178 0.69113 0.0
C801 C 0.93611 0.14334 0.68345 0.0
C802 C 0.92207 0.10562 0.69215 0.0
C803 C 0.90034 0.14584 0.67851 0.0
C804 C 0.96188 0.14467 0.67164 0.0
C805 C -0.00118 0.18048 0.67185 0.0
C806 C 0.02976 0.1859 0.66323 0.0
C807 C 0.02411 0.15282 0.65513 0.0
C808 C 0.98821 0.11479 0.65601 0.0
C809 C 0.95574 0.1118 0.6634 0.0
H810 H 0.89141 0.57418 0.55467 0.0
H811 H 0.93656 0.49276 0.55679 0.0
H812 H 0.90422 0.46098 0.53491 0.0
H813 H 0.79844 0.50461 0.5435 0.0
H814 H 0.79287 0.53792 0.5325 0.0
H815 H 0.82613 0.55867 0.54673 0.0
H816 H 0.88404 0.60509 0.53052 0.0
H817 H 0.85077 0.58339 0.51617 0.0
H818 H 0.89656 0.58276 0.51651 0.0
H819 H 0.85726 0.43008 0.51523 0.0
H820 H 0.7951 0.39926 0.50169 0.0
H821 H 0.78334 0.50258 0.51135 0.0
C822 C 0.8952 0.55023 0.5504 0.0
C823 C 0.91644 0.53594 0.55746 0.0
C824 C 0.92041 0.50427 0.55157 0.0
C825 C 0.90249 0.48629 0.53906 0.0
C826 C 0.88129 0.50075 0.53241 0.0
C827 C 0.87772 0.53215 0.53789 0.0
C828 C 0.84918 0.53869 0.52973 0.0
C829 C 0.81462 0.53468 0.53864 0.0
C830 C 0.87149 0.57994 0.52282 0.0
C831 C 0.8349 0.50415 0.51941 0.0
C832 C 0.8547 0.48335 0.5208 0.0
C833 C 0.84239 0.4468 0.51374 0.0
C834 C 0.80732 0.42967 0.50588 0.0
C835 C 0.78508 0.44905 0.50531 0.0
C836 C 0.80064 0.48791 0.51136 0.0
H837 H 0.42876 0.29584 0.54618 0.0
H838 H 0.46743 0.41963 0.55828 0.0
H839 H 0.50382 0.44387 0.53672 0.0
H840 H 0.51938 0.31729 0.53422 0.0
H841 H 0.50086 0.28058 0.52038 0.0
H842 H 0.46987 0.27273 0.5349 0.0
H843 H 0.41448 0.26682 0.51905 0.0
H844 H 0.44633 0.27608 0.50451 0.0
H845 H 0.42573 0.30777 0.50796 0.0
H846 H 0.54566 0.45639 0.51667 0.0
H847 H 0.59836 0.45701 0.50258 0.0
H848 H 0.53439 0.32611 0.50241 0.0
C849 C 0.44402 0.32787 0.54404 0.0
C850 C 0.44527 0.35592 0.55378 0.0
C851 C 0.46635 0.39774 0.55091 0.0
C852 C 0.48656 0.41169 0.5386 0.0
C853 C 0.48559 0.38349 0.52924 0.0
C854 C 0.46521 0.34242 0.53186 0.0
C855 C 0.47515 0.31954 0.52136 0.0
C856 C 0.49237 0.29623 0.52812 0.0
C857 C 0.43821 0.29085 0.51271 0.0
C858 C 0.50645 0.35447 0.51304 0.0
C859 C 0.51066 0.39092 0.5174 0.0
C860 C 0.54187 0.42805 0.51285 0.0
C861 C 0.57147 0.42822 0.50464 0.0
C862 C 0.56967 0.39158 0.50113 0.0
C863 C 0.53524 0.35429 0.50445 0.0
H864 H 0.695 0.14591 0.54136 0.0
H865 H 0.63948 0.15182 0.57906 0.0
H866 H 0.61283 0.18894 0.56778 0.0
H867 H 0.72683 0.24587 0.53162 0.0
H868 H 0.71809 0.23374 0.51376 0.0
H869 H 0.72931 0.20379 0.5244 0.0
H870 H 0.66392 0.13904 0.51633 0.0
H871 H 0.65215 0.16906 0.50586 0.0
H872 H 0.61672 0.13646 0.51834 0.0
H873 H 0.5952 0.22801 0.55328 0.0
H874 H 0.59566 0.27577 0.53715 0.0
H875 H 0.663 0.24697 0.50853 0.0
C876 C 0.67701 0.15483 0.54719 0.0
C877 C 0.66926 0.14586 0.5611 0.0
C878 C 0.64603 0.15848 0.56843 0.0
C879 C 0.63031 0.17917 0.56207 0.0
C880 C 0.63815 0.18722 0.54836 0.0
C881 C 0.66139 0.17605 0.54101 0.0
C882 C 0.66831 0.19207 0.52673 0.0
C883 C 0.7133 0.22057 0.52397 0.0
C884 C 0.64913 0.15706 0.51619 0.0
C885 C 0.64636 0.215 0.52739 0.0
C886 C 0.62839 0.21082 0.53989 0.0
C887 C 0.60872 0.2312 0.5434 0.0
C888 C 0.60904 0.25816 0.53417 0.0
C889 C 0.62904 0.26466 0.5216 0.0
C890 C 0.64662 0.24167 0.51794 0.0
H891 H 0.91505 0.51776 0.62773 0.0
H892 H 0.92662 0.62991 0.64288 0.0
H893 H 0.88336 0.59377 0.66237 0.0
H894 H 0.8153 0.45368 0.6354 0.0
H895 H 0.8201 0.4119 0.64052 0.0
H896 H 0.85507 0.44763 0.62867 0.0
H897 H 0.91401 0.46185 0.64431 0.0
H898 H 0.87907 0.42615 0.65627 0.0
H899 H 0.91452 0.47755 0.66171 0.0
H900 H 0.82988 0.54262 0.67809 0.0
H901 H 0.77484 0.48196 0.68911 0.0
H902 H 0.80507 0.40563 0.66522 0.0
C903 C 0.90903 0.53478 0.63529 0.0
C904 C 0.92407 0.57651 0.63383 0.0
C905 C 0.91558 0.5979 0.64389 0.0
C906 C 0.89105 0.57765 0.65499 0.0
C907 C 0.87613 0.53626 0.65605 0.0
C908 C 0.88545 0.51527 0.64658 0.0
C909 C 0.86444 0.4707 0.64969 0.0
C910 C 0.83711 0.44446 0.63787 0.0
C911 C 0.89483 0.45835 0.65321 0.0
C912 C 0.84043 0.46951 0.662 0.0
C913 C 0.84753 0.50754 0.6656 0.0
C914 C 0.8251 0.51288 0.67568 0.0
C915 C 0.79417 0.47834 0.68203 0.0
C916 C 0.78641 0.43919 0.67837 0.0
C917 C 0.81072 0.43519 0.66848 0.0
H918 H 0.51114 0.40875 0.62882 0.0
H919 H 0.39741 0.31243 0.64403 0.0
H920 H 0.43232 0.30302 0.66298 0.0
H921 H 0.56737 0.36516 0.63552 0.0
H922 H 0.61198 0.41179 0.64066 0.0
H923 H 0.57742 0.41288 0.6291 0.0
H924 H 0.57111 0.46349 0.64522 0.0
H925 H 0.60563 0.4624 0.65688 0.0
H926 H 0.55677 0.4504 0.66262 0.0
H927 H 0.48148 0.29775 0.67836 0.0
H928 H 0.53983 0.30035 0.68912 0.0
H929 H 0.61959 0.40502 0.66536 0.0
C930 C 0.49358 0.38616 0.63627 0.0
C931 C 0.45166 0.36138 0.63498 0.0
C932 C 0.42961 0.33204 0.64491 0.0
C933 C 0.44916 0.32642 0.6557 0.0
C934 C 0.49069 0.35105 0.65662 0.0
C935 C 0.51251 0.38083 0.64727 0.0
C936 C 0.55686 0.40242 0.6502 0.0
C937 C 0.57973 0.39775 0.63816 0.0
C938 C 0.57356 0.44734 0.65396 0.0
C939 C 0.55676 0.37916 0.66231 0.0
C940 C 0.51843 0.34963 0.66594 0.0
C941 C 0.51159 0.32166 0.67591 0.0
C942 C 0.54484 0.32358 0.68212 0.0
C943 C 0.58424 0.35353 0.67842 0.0
C944 C 0.58987 0.38215 0.66864 0.0
H945 H 0.58704 0.09416 0.62955 0.0
H946 H 0.69974 0.09945 0.63467 0.0
H947 H 0.71019 0.13608 0.65652 0.0
H948 H 0.62 0.18952 0.63904 0.0
H949 H 0.57554 0.18102 0.64776 0.0
H950 H 0.57171 0.14607 0.63468 0.0
H951 H 0.53674 0.08687 0.65142 0.0
H952 H 0.54062 0.12194 0.66464 0.0
H953 H 0.56079 0.08988 0.66723 0.0
H954 H 0.71549 0.1844 0.67505 0.0
H955 H 0.71587 0.24123 0.68744 0.0
H956 H 0.59987 0.20401 0.67044 0.0
C957 C 0.61311 0.10156 0.63552 0.0
C958 C 0.64245 0.09384 0.63041 0.0
C959 C 0.67672 0.10493 0.63839 0.0
C960 C 0.68281 0.12555 0.65089 0.0
C961 C 0.65416 0.13442 0.65537 0.0
C962 C 0.6197 0.12233 0.64797 0.0
C963 C 0.59661 0.14081 0.65381 0.0
C964 C 0.59068 0.16584 0.6432 0.0
C965 C 0.5563 0.1079 0.65963 0.0
C966 C 0.62488 0.16751 0.665 0.0
C967 C 0.65732 0.16255 0.66607 0.0
C968 C 0.68971 0.18778 0.67456 0.0
C969 C 0.68974 0.21999 0.68161 0.0
C970 C 0.65797 0.22694 0.67988 0.0
C971 C 0.62439 0.19907 0.67204 0.0
H972 H 0.47109 0.12485 0.11697 0.0
H973 H 0.40382 0.18567 0.11605 0.0
H974 H 0.4362 0.22244 0.13735 0.0
H975 H 0.47253 0.1179 0.15458 0.0
H976 H 0.52298 0.12776 0.15439 0.0
H977 H 0.49011 0.10163 0.14021 0.0
H978 H 0.54205 0.1552 0.12388 0.0
H979 H 0.57515 0.18079 0.13793 0.0
H980 H 0.56056 0.20821 0.12729 0.0
H981 H 0.48231 0.25928 0.15686 0.0
H982 H 0.54248 0.29717 0.17121 0.0
H983 H 0.57769 0.21072 0.16023 0.0
C984 C 0.4627 0.14543 0.12136 0.0
C985 C 0.43494 0.15237 0.11484 0.0
C986 C 0.42507 0.17987 0.12084 0.0
C987 C 0.443 0.20061 0.13303 0.0
C988 C 0.4704 0.19321 0.13918 0.0
C989 C 0.48024 0.16631 0.13352 0.0
C990 C 0.51368 0.16699 0.14129 0.0
C991 C 0.49892 0.12613 0.14802 0.0
C992 C 0.54999 0.17851 0.13205 0.0
C993 C 0.52258 0.20002 0.15177 0.0
C994 C 0.49664 0.21409 0.15063 0.0
C995 C 0.50208 0.24778 0.15814 0.0
C996 C 0.53609 0.2689 0.16646 0.0
C997 C 0.56415 0.25633 0.16709 0.0
C998 C 0.55611 0.22034 0.16017 0.0
H999 H 0.86488 0.32049 0.11495 0.0
H1000 H 0.96994 0.42343 0.13344 0.0
H1001 H 0.93041 0.41674 0.15407 0.0
H1002 H 0.7966 0.34587 0.12608 0.0
H1003 H 0.75664 0.29428 0.1286 0.0
H1004 H 0.7951 0.30477 0.1164 0.0
H1005 H 0.80963 0.2548 0.12849 0.0
H1006 H 0.77173 0.24509 0.14097 0.0
H1007 H 0.82224 0.2625 0.14625 0.0
H1008 H 0.87688 0.40346 0.17153 0.0
H1009 H 0.81388 0.39012 0.18252 0.0
H1010 H 0.74548 0.29507 0.15274 0.0
C1011 C 0.87986 0.34144 0.12337 0.0
C1012 C 0.92054 0.37253 0.12256 0.0
C1013 C 0.93878 0.39937 0.13381 0.0
C1014 C 0.91666 0.39553 0.14563 0.0
C1015 C 0.87653 0.36435 0.14609 0.0
C1016 C 0.8584 0.33788 0.13519 0.0
C1017 C 0.81412 0.30949 0.13755 0.0
C1018 C 0.78918 0.31391 0.12652 0.0
C1019 C 0.80385 0.26536 0.13836 0.0
C1020 C 0.80957 0.32534 0.1512 0.0
C1021 C 0.846 0.35632 0.15618 0.0
C1022 C 0.84838 0.37857 0.16791 0.0
C1023 C 0.81254 0.37052 0.17421 0.0
C1024 C 0.77519 0.34083 0.16864 0.0
C1025 C 0.77386 0.3168 0.15744 0.0
H1026 H 0.61079 0.52688 0.12078 0.0
H1027 H 0.7337 0.59744 0.10695 0.0
H1028 H 0.7553 0.57253 0.12589 0.0
H1029 H 0.63094 0.53511 0.15743 0.0
H1030 H 0.59225 0.48318 0.16022 0.0
H1031 H 0.58708 0.51079 0.14676 0.0
H1032 H 0.57784 0.45513 0.12927 0.0
H1033 H 0.58202 0.42711 0.14272 0.0
H1034 H 0.61492 0.44067 0.12829 0.0
H1035 H 0.76305 0.53727 0.14575 0.0
H1036 H 0.75434 0.48487 0.16177 0.0
H1037 H 0.62623 0.4345 0.16156 0.0
C1038 C 0.64229 0.5374 0.12185 0.0
C1039 C 0.67063 0.56421 0.11248 0.0
C1040 C 0.71149 0.57673 0.11401 0.0
C1041 C 0.7241 0.56317 0.12484 0.0
C1042 C 0.69543 0.53683 0.13397 0.0
C1043 C 0.65524 0.52346 0.13242 0.0
C1044 C 0.62981 0.49127 0.14254 0.0
C1045 C 0.60879 0.50598 0.15232 0.0
C1046 C 0.59938 0.45118 0.13527 0.0
C1047 C 0.66179 0.48776 0.14977 0.0
C1048 C 0.69963 0.51521 0.14501 0.0
C1049 C 0.73363 0.51596 0.14967 0.0
C1050 C 0.72855 0.48645 0.15887 0.0
C1051 C 0.68974 0.45635 0.16299 0.0
C1052 C 0.65626 0.45796 0.15877 0.0
H1053 H 0.43351 0.16014 0.04902 0.0
H1054 H 0.42401 0.05246 0.03025 0.0
H1055 H 0.46731 0.09364 0.0115 0.0
H1056 H 0.4371 0.21072 0.01686 0.0
H1057 H 0.47252 0.26009 0.02395 0.0
H1058 H 0.43619 0.22102 0.03474 0.0
H1059 H 0.49343 0.22959 0.05017 0.0
H1060 H 0.5298 0.2685 0.03945 0.0
H1061 H 0.53329 0.22475 0.04282 0.0
H1062 H 0.51979 0.14895 0.99644 0.0
H1063 H 0.57456 0.2125 0.98672 0.0
H1064 H 0.54686 0.28213 0.01514 0.0
C1065 C 0.4397 0.145 0.04081 0.0
C1066 C 0.42532 0.10309 0.04112 0.0
C1067 C 0.43448 0.08453 0.03022 0.0
C1068 C 0.45905 0.10767 0.0195 0.0
C1069 C 0.47369 0.14921 0.0197 0.0
C1070 C 0.46385 0.16753 0.03001 0.0
C1071 C 0.48569 0.21297 0.0285 0.0
C1072 C 0.4561 0.22702 0.02585 0.0
C1073 C 0.51211 0.23523 0.04097 0.0
C1074 C 0.51065 0.21759 0.01609 0.0
C1075 C 0.50316 0.18061 0.011 0.0
C1076 C 0.52536 0.17804 1.00021 0.0
C1077 C 0.55652 0.21427 0.99474 0.0
C1078 C 0.56533 0.25238 1.00013 0.0
C1079 C 0.54106 0.25362 0.01067 0.0
H1080 H 0.84959 0.31848 0.05871 0.0
H1081 H 0.9409 0.33732 0.0293 0.0
H1082 H 0.90328 0.34789 0.01157 0.0
H1083 H 0.76411 0.2657 0.036 0.0
H1084 H 0.73915 0.28946 0.04377 0.0
H1085 H 0.7723 0.28084 0.05366 0.0
H1086 H 0.81324 0.35738 0.06034 0.0
H1087 H 0.78056 0.36633 0.05032 0.0
H1088 H 0.83375 0.39449 0.04723 0.0
H1089 H 0.85571 0.35955 0.99716 0.0
H1090 H 0.80192 0.3679 0.98768 0.0
H1091 H 0.74476 0.34288 0.02715 0.0
C1092 C 0.86148 0.32418 0.0485 0.0
C1093 C 0.89812 0.32688 0.04541 0.0
C1094 C 0.91273 0.33486 0.03192 0.0
C1095 C 0.89164 0.34105 0.02178 0.0
C1096 C 0.85601 0.33914 0.02528 0.0
C1097 C 0.84102 0.33059 0.03833 0.0
C1098 C 0.80288 0.33131 0.03972 0.0
C1099 C 0.76752 0.28933 0.0435 0.0
C1100 C 0.80794 0.36435 0.05001 0.0
C1101 C 0.79879 0.34187 0.02546 0.0
C1102 C 0.82949 0.34624 0.01719 0.0
C1103 C 0.83148 0.35608 1.00357 0.0
C1104 C 0.80095 0.36098 0.99827 0.0
C1105 C 0.76909 0.35617 0.00663 0.0
C1106 C 0.76857 0.34684 0.02041 0.0
H1107 H 0.6496 0.56449 0.03979 0.0
H1108 H 0.77737 0.64479 0.03437 0.0
H1109 H 0.77287 0.61225 0.01201 0.0
H1110 H 0.64738 0.48059 0.02989 0.0
H1111 H 0.59911 0.45573 0.02168 0.0
H1112 H 0.61037 0.49316 0.03476 0.0
H1113 H 0.59336 0.5332 0.01821 0.0
H1114 H 0.58299 0.49597 0.00493 0.0
H1115 H 0.6192 0.54876 1.00224 0.0
H1116 H 0.75772 0.56334 0.99298 0.0
H1117 H 0.737 0.49713 0.98205 0.0
H1118 H 0.61971 0.44606 1.00003 0.0
C1119 C 0.67635 0.57628 0.03364 0.0
C1120 C 0.71375 0.6075 0.0387 0.0
C1121 C 0.74837 0.62111 0.03062 0.0
C1122 C 0.74596 0.60308 0.01784 0.0
C1123 C 0.70873 0.57141 0.01328 0.0
C1124 C 0.67452 0.55797 0.02102 0.0
C1125 C 0.64004 0.5184 0.01535 0.0
C1126 C 0.62332 0.48504 0.02605 0.0
C1127 C 0.60694 0.52447 0.00986 0.0
C1128 C 0.66102 0.50983 1.0039 0.0
C1129 C 0.70005 0.54182 1.0024 0.0
C1130 C 0.72695 0.53865 0.99378 0.0
C1131 C 0.7148 0.50102 0.98743 0.0
C1132 C 0.6765 0.46703 0.99 0.0
C1133 C 0.64851 0.47221 0.99752 0.0
H1134 H 0.56222 0.83341 0.88228 0.0
H1135 H 0.55354 0.94109 0.88253 0.0
H1136 H 0.52856 0.92505 0.85898 0.0
H1137 H 0.58902 0.83483 0.84555 0.0
H1138 H 0.55863 0.78035 0.84389 0.0
H1139 H 0.5826 0.80386 0.85982 0.0
H1140 H 0.51402 0.76631 0.87215 0.0
H1141 H 0.49039 0.74198 0.85638 0.0
H1142 H 0.47321 0.77059 0.86592 0.0
H1143 H 0.49529 0.89243 0.8371 0.0
H1144 H 0.44829 0.84158 0.82047 0.0
H1145 H 0.48006 0.756 0.83366 0.0
C1146 C 0.5558 0.85407 0.87729 0.0
C1147 C 0.55996 0.8886 0.88424 0.0
C1148 C 0.55057 0.91445 0.87743 0.0
C1149 C 0.53683 0.90584 0.86398 0.0
C1150 C 0.53296 0.87146 0.85742 0.0
C1151 C 0.54196 0.84584 0.86389 0.0
C1152 C 0.53019 0.8081 0.85531 0.0
C1153 C 0.56733 0.80673 0.85088 0.0
C1154 C 0.50016 0.7695 0.86289 0.0
C1155 C 0.51096 0.81529 0.84333 0.0
C1156 C 0.51402 0.85266 0.84455 0.0
C1157 C 0.49375 0.8637 0.83579 0.0
C1158 C 0.46749 0.83485 0.82622 0.0
C1159 C 0.46176 0.79554 0.82551 0.0
C1160 C 0.48561 0.78659 0.83356 0.0
H1161 H 0.12786 0.6059 0.88582 0.0
H1162 H 0.10634 0.70145 0.87539 0.0
H1163 H 0.14501 0.71265 0.85426 0.0
H1164 H 0.22507 0.65336 0.87643 0.0
H1165 H 0.22426 0.60901 0.86972 0.0
H1166 H 0.18893 0.60375 0.88252 0.0
H1167 H 0.13025 0.55337 0.86686 0.0
H1168 H 0.16559 0.55848 0.85397 0.0
H1169 H 0.12648 0.56827 0.85007 0.0
H1170 H 0.19638 0.7211 0.83619 0.0
H1171 H 0.25333 0.72452 0.82344 0.0
H1172 H 0.23774 0.62178 0.84554 0.0
C1173 C 0.13025 0.62836 0.8789 0.0
C1174 C 0.11405 0.65271 0.88226 0.0
C1175 C 0.11821 0.68212 0.87299 0.0
C1176 C 0.14014 0.68872 0.86094 0.0
C1177 C 0.157 0.66509 0.85815 0.0
C1178 C 0.15161 0.63499 0.86681 0.0
C1179 C 0.17558 0.61618 0.8623 0.0
C1180 C 0.20521 0.6209 0.8734 0.0
C1181 C 0.14781 0.57142 0.85804 0.0
C1182 C 0.19706 0.64181 0.85021 0.0
C1183 C 0.18569 0.6695 0.84775 0.0
C1184 C 0.20484 0.69892 0.83785 0.0
C1185 C 0.23712 0.70069 0.83063 0.0
C1186 C 0.25003 0.67357 0.83354 0.0
C1187 C 0.22854 0.64295 0.84306 0.0
H1188 H 0.36604 0.51793 0.89076 0.0
H1189 H 0.37951 0.43281 0.86499 0.0
H1190 H 0.37329 0.46541 0.8447 0.0
H1191 H 0.29255 0.52128 0.8702 0.0
H1192 H 0.31259 0.57455 0.87362 0.0
H1193 H 0.31784 0.54419 0.886 0.0
H1194 H 0.39493 0.59328 0.88616 0.0
H1195 H 0.38981 0.62405 0.87395 0.0
H1196 H 0.42213 0.60449 0.87041 0.0
H1197 H 0.36767 0.51012 0.82702 0.0
H1198 H 0.36614 0.56414 0.81424 0.0
H1199 H 0.35342 0.61594 0.85204 0.0
C1200 C 0.36787 0.50617 0.88087 0.0
C1201 C 0.37342 0.47294 0.87947 0.0
C1202 C 0.37535 0.45836 0.86631 0.0
C1203 C 0.37168 0.47655 0.85472 0.0
C1204 C 0.36574 0.50903 0.85647 0.0
C1205 C 0.36392 0.52364 0.86925 0.0
C1206 C 0.35795 0.55915 0.86855 0.0
C1207 C 0.31784 0.54917 0.87497 0.0
C1208 C 0.39331 0.5975 0.87515 0.0
C1209 C 0.3573 0.56276 0.85339 0.0
C1210 C 0.36159 0.53361 0.84649 0.0
C1211 C 0.36375 0.53274 0.83233 0.0
C1212 C 0.36245 0.56312 0.82513 0.0
C1213 C 0.35898 0.59349 0.8322 0.0
C1214 C 0.35562 0.59264 0.84642 0.0
H1215 H 0.51303 0.85393 0.95034 0.0
H1216 H 0.6116 0.93757 0.97655 0.0
H1217 H 0.5687 0.90718 0.99661 0.0
H1218 H 0.43529 0.85518 0.96959 0.0
H1219 H 0.3994 0.80209 0.96651 0.0
H1220 H 0.43802 0.83027 0.95426 0.0
H1221 H 0.46146 0.77862 0.95547 0.0
H1222 H 0.42258 0.75003 0.96757 0.0
H1223 H 0.474 0.76772 0.97167 0.0
H1224 H 0.51399 0.86658 0.01399 0.0
H1225 H 0.45406 0.81643 0.0268 0.0
H1226 H 0.39239 0.76232 0.98883 0.0
C1227 C 0.52577 0.86573 0.96029 0.0
C1228 C 0.56571 0.89806 0.96186 0.0
C1229 C 0.58107 0.91271 0.97508 0.0
C1230 C 0.55689 0.89579 0.98654 0.0
C1231 C 0.51738 0.86436 0.98462 0.0
C1232 C 0.50207 0.84938 0.9718 0.0
C1233 C 0.4589 0.81519 0.9724 0.0
C1234 C 0.43129 0.82637 0.96527 0.0
C1235 C 0.45397 0.77555 0.96643 0.0
C1236 C 0.45238 0.81296 0.98754 0.0
C1237 C 0.48623 0.8416 0.99449 0.0
C1238 C 0.48725 0.84411 0.00864 0.0
C1239 C 0.4531 0.81575 0.01583 0.0
C1240 C 0.41877 0.78541 0.0088 0.0
C1241 C 0.41828 0.78495 0.99451 0.0
H1242 H 0.14769 0.72892 0.96694 0.0
H1243 H 0.10192 0.61764 0.94301 0.0
H1244 H 0.12605 0.59017 0.96026 0.0
H1245 H 0.23743 0.73611 0.97532 0.0
H1246 H 0.24103 0.75745 0.99209 0.0
H1247 H 0.21381 0.76485 0.97912 0.0
H1248 H 0.15135 0.73405 0.99473 0.0
H1249 H 0.17838 0.72558 0.0076 0.0
H1250 H 0.1316 0.6839 1.0012 0.0
H1251 H 0.16076 0.57739 0.97847 0.0
H1252 H 0.21408 0.58548 0.99372 0.0
H1253 H 0.23971 0.7052 0.00584 0.0
C1254 C 0.14222 0.69852 0.9655 0.0
C1255 C 0.12279 0.67528 0.95371 0.0
C1256 C 0.11692 0.636 0.95196 0.0
C1257 C 0.12999 0.61992 0.9618 0.0
C1258 C 0.14913 0.64354 0.97332 0.0
C1259 C 0.15588 0.6823 0.97511 0.0
C1260 C 0.18239 0.70358 0.98734 0.0
C1261 C 0.22094 0.74278 0.98322 0.0
C1262 C 0.15955 0.71228 0.99837 0.0
C1263 C 0.19092 0.67142 0.99178 0.0
C1264 C 0.17023 0.63646 0.98383 0.0
C1265 C 0.17642 0.60416 0.98497 0.0
C1266 C 0.20641 0.60875 0.99378 0.0
C1267 C 0.22992 0.64538 1.00123 0.0
C1268 C 0.22074 0.67621 1.00073 0.0
H1269 H 0.40132 0.51658 0.95299 0.0
H1270 H 0.3003 0.41101 0.97088 0.0
H1271 H 0.31129 0.45001 0.99233 0.0
H1272 H 0.4628 0.55808 0.98515 0.0
H1273 H 0.48048 0.60947 0.98041 0.0
H1274 H 0.46983 0.5711 0.96753 0.0
H1275 H 0.42079 0.58717 0.9557 0.0
H1276 H 0.4323 0.62604 0.96829 0.0
H1277 H 0.38097 0.58622 0.96546 0.0
H1278 H 0.32563 0.50349 0.01015 0.0
H1279 H 0.33591 0.56676 0.02085 0.0
H1280 H 0.42977 0.63677 0.99203 0.0
C1281 C 0.38193 0.50137 0.96149 0.0
C1282 C 0.34987 0.46078 0.96024 0.0
C1283 C 0.3251 0.4421 0.9716 0.0
C1284 C 0.3314 0.4639 0.98388 0.0
C1285 C 0.36311 0.50411 0.98473 0.0
C1286 C 0.38804 0.52256 0.97381 0.0
C1287 C 0.41663 0.56733 0.97663 0.0
C1288 C 0.46001 0.57705 0.97748 0.0
C1289 C 0.41236 0.59317 0.9659 0.0
C1290 C 0.40179 0.57197 0.9904 0.0
C1291 C 0.37187 0.53496 0.99517 0.0
C1292 C 0.34972 0.53248 0.00672 0.0
C1293 C 0.35608 0.56866 0.01288 0.0
C1294 C 0.38381 0.60652 0.00727 0.0
C1295 C 0.409 0.60811 0.99663 0.0
H1296 H 0.10676 0.54058 0.4492 0.0
H1297 H 0.09016 0.42284 0.45725 0.0
H1298 H 0.12532 0.44966 0.47918 0.0
H1299 H 0.20325 0.5963 0.45993 0.0
H1300 H 0.19975 0.63798 0.46697 0.0
H1301 H 0.16658 0.60683 0.45359 0.0
H1302 H 0.10589 0.5923 0.46873 0.0
H1303 H 0.13928 0.62281 0.48231 0.0
H1304 H 0.10057 0.57094 0.48518 0.0
H1305 H 0.17059 0.49191 0.4985 0.0
H1306 H 0.22906 0.5467 0.51097 0.0
H1307 H 0.21615 0.63633 0.49015 0.0
C1308 C 0.10965 0.52008 0.4557 0.0
C1309 C 0.09555 0.47957 0.45154 0.0
C1310 C 0.10068 0.45401 0.46024 0.0
C1311 C 0.12021 0.46888 0.47278 0.0
C1312 C 0.13413 0.50924 0.47652 0.0
C1313 C 0.12919 0.53448 0.46815 0.0
C1314 C 0.15171 0.57792 0.47341 0.0
C1315 C 0.18213 0.60638 0.46286 0.0
C1316 C 0.12261 0.59179 0.47766 0.0
C1317 C 0.17219 0.5738 0.48563 0.0
C1318 C 0.16058 0.53374 0.48759 0.0
C1319 C 0.17912 0.5232 0.49728 0.0
C1320 C 0.21201 0.55445 0.50446 0.0
C1321 C 0.22622 0.59546 0.50168 0.0
C1322 C 0.20471 0.60508 0.49276 0.0
H1323 H 0.4921 0.59171 0.4451 0.0
H1324 H 0.60408 0.70008 0.45667 0.0
H1325 H 0.57536 0.70053 0.47914 0.0
H1326 H 0.43083 0.62184 0.45821 0.0
H1327 H 0.39211 0.57224 0.46351 0.0
H1328 H 0.42461 0.57683 0.4498 0.0
H1329 H 0.44375 0.53129 0.46257 0.0
H1330 H 0.41185 0.5276 0.47652 0.0
H1331 H 0.46399 0.54574 0.47948 0.0
H1332 H 0.53095 0.6947 0.49891 0.0
H1333 H 0.47393 0.68952 0.51187 0.0
H1334 H 0.39176 0.58505 0.4873 0.0
C1335 C 0.51099 0.61513 0.45243 0.0
C1336 C 0.55036 0.64583 0.44912 0.0
C1337 C 0.57381 0.6762 0.45898 0.0
C1338 C 0.55787 0.67641 0.47183 0.0
C1339 C 0.51864 0.64578 0.47471 0.0
C1340 C 0.49557 0.61576 0.46521 0.0
C1341 C 0.45275 0.58954 0.4699 0.0
C1342 C 0.42339 0.59022 0.45977 0.0
C1343 C 0.4425 0.54596 0.47226 0.0
C1344 C 0.45448 0.611 0.48315 0.0
C1345 C 0.49302 0.64248 0.48605 0.0
C1346 C 0.5009 0.66955 0.49692 0.0
C1347 C 0.46838 0.66612 0.50438 0.0
C1348 C 0.4287 0.63645 0.50066 0.0
C1349 C 0.42199 0.60713 0.49054 0.0
H1350 H 0.30341 0.88891 0.47297 0.0
H1351 H 0.40098 0.92789 0.44433 0.0
H1352 H 0.43196 0.90037 0.4587 0.0
H1353 H 0.36109 0.9013 0.50451 0.0
H1354 H 0.32108 0.85516 0.51157 0.0
H1355 H 0.30975 0.88431 0.5005 0.0
H1356 H 0.26936 0.82123 0.48465 0.0
H1357 H 0.27974 0.79194 0.49588 0.0
H1358 H 0.29286 0.79441 0.47822 0.0
H1359 H 0.44924 0.8637 0.47447 0.0
H1360 H 0.44466 0.80872 0.48802 0.0
H1361 H 0.33512 0.78953 0.50634 0.0
C1362 C 0.33154 0.89197 0.46989 0.0
C1363 C 0.34999 0.9106 0.45761 0.0
C1364 C 0.38635 0.91354 0.45369 0.0
C1365 C 0.40446 0.89853 0.46188 0.0
C1366 C 0.38567 0.88023 0.47393 0.0
C1367 C 0.34958 0.87607 0.47782 0.0
C1368 C 0.33277 0.84962 0.49014 0.0
C1369 C 0.33108 0.87407 0.50241 0.0
C1370 C 0.29125 0.81208 0.48703 0.0
C1371 C 0.36418 0.83825 0.49218 0.0
C1372 C 0.39517 0.85757 0.48301 0.0
C1373 C 0.42567 0.84903 0.48191 0.0
C1374 C 0.42312 0.81807 0.48974 0.0
C1375 C 0.39026 0.79598 0.49847 0.0
C1376 C 0.36145 0.80739 0.50018 0.0
H1377 H 0.13929 0.50207 0.39193 0.0
H1378 H 0.05795 0.41995 0.36086 0.0
H1379 H 0.10934 0.45748 0.34338 0.0
H1380 H 0.1804 0.59162 0.3733 0.0
H1381 H 0.23011 0.61277 0.38011 0.0
H1382 H 0.18733 0.57795 0.38991 0.0
H1383 H 0.21714 0.53192 0.39215 0.0
H1384 H 0.25986 0.56647 0.3822 0.0
H1385 H 0.23006 0.51374 0.37708 0.0
H1386 H 0.17061 0.50719 0.32908 0.0
H1387 H 0.2329 0.56567 0.31981 0.0
H1388 H 0.27197 0.61213 0.36073 0.0
C1389 C 0.13217 0.49184 0.38146 0.0
C1390 C 0.09453 0.45813 0.37778 0.0
C1391 C 0.08661 0.44576 0.36394 0.0
C1392 C 0.11568 0.46678 0.35394 0.0
C1393 C 0.15263 0.49986 0.35795 0.0
C1394 C 0.16077 0.51219 0.37142 0.0
C1395 C 0.20204 0.54925 0.37321 0.0
C1396 C 0.19981 0.585 0.37949 0.0
C1397 C 0.22885 0.53976 0.38166 0.0
C1398 C 0.21558 0.55663 0.35863 0.0
C1399 C 0.18715 0.52775 0.3499 0.0
C1400 C 0.19314 0.52981 0.33586 0.0
C1401 C 0.2286 0.56292 0.33067 0.0
C1402 C 0.25706 0.59347 0.33954 0.0
C1403 C 0.25068 0.58937 0.35366 0.0
H1404 H 0.52628 0.61063 0.36645 0.0
H1405 H 0.60488 0.73112 0.38363 0.0
H1406 H 0.5842 0.76033 0.36588 0.0
H1407 H 0.53505 0.64031 0.32995 0.0
H1408 H 0.48264 0.60454 0.32686 0.0
H1409 H 0.50949 0.59366 0.33909 0.0
H1410 H 0.45777 0.58404 0.35763 0.0
H1411 H 0.43056 0.59395 0.34539 0.0
H1412 H 0.44736 0.62391 0.36088 0.0
H1413 H 0.54839 0.77559 0.34867 0.0
H1414 H 0.49392 0.77411 0.33575 0.0
H1415 H 0.4378 0.64443 0.32964 0.0
C1416 C 0.53984 0.64324 0.36623 0.0
C1417 C 0.56735 0.66863 0.37634 0.0
C1418 C 0.58369 0.71107 0.37598 0.0
C1419 C 0.5725 0.72801 0.36584 0.0
C1420 C 0.54489 0.70216 0.35609 0.0
C1421 C 0.52848 0.6606 0.35628 0.0
C1422 C 0.49504 0.63901 0.34598 0.0
C1423 C 0.50624 0.61815 0.33481 0.0
C1424 C 0.45536 0.60847 0.35288 0.0
C1425 C 0.49378 0.67468 0.34049 0.0
C1426 C 0.52371 0.71101 0.34612 0.0
C1427 C 0.52559 0.74755 0.34387 0.0
C1428 C 0.49485 0.74661 0.33636 0.0
C1429 C 0.46276 0.70941 0.33126 0.0
C1430 C 0.4632 0.67342 0.33287 0.0
H1431 H 0.28075 0.85832 0.38592 0.0
H1432 H 0.39686 0.96855 0.38212 0.0
H1433 H 0.40641 0.94334 0.35994 0.0
H1434 H 0.31022 0.79349 0.37451 0.0
H1435 H 0.26419 0.75849 0.36581 0.0
H1436 H 0.2637 0.7888 0.37983 0.0
H1437 H 0.23016 0.81649 0.36454 0.0
H1438 H 0.23136 0.78664 0.35037 0.0
H1439 H 0.25406 0.84072 0.34895 0.0
H1440 H 0.40789 0.90224 0.34025 0.0
H1441 H 0.40466 0.84637 0.32639 0.0
H1442 H 0.28756 0.76293 0.34267 0.0
C1443 C 0.30779 0.87767 0.38028 0.0
C1444 C 0.33796 0.91556 0.38571 0.0
C1445 C 0.37329 0.93948 0.37814 0.0
C1446 C 0.37877 0.92556 0.36547 0.0
C1447 C 0.34857 0.88777 0.36048 0.0
C1448 C 0.3138 0.86409 0.3677 0.0
C1449 C 0.28843 0.82243 0.36109 0.0
C1450 C 0.28126 0.78886 0.37089 0.0
C1451 C 0.24864 0.81622 0.35593 0.0
C1452 C 0.31531 0.82548 0.3494 0.0
C1453 C 0.34934 0.86386 0.34899 0.0
C1454 C 0.3809 0.87252 0.3402 0.0
C1455 C 0.37869 0.84074 0.33225 0.0
C1456 C 0.34522 0.8009 0.33314 0.0
C1457 C 0.31244 0.79361 0.34133 0.0
H1458 H 0.27145 0.0665 0.0917 0.0
H1459 H 0.30356 0.02412 0.12685 0.0
H1460 H 0.25441 0.0314 0.1406 0.0
H1461 H 0.25465 0.1403 0.10978 0.0
H1462 H 0.21254 0.12942 0.09935 0.0
H1463 H 0.25217 0.12349 0.09241 0.0
H1464 H 0.20076 0.04869 0.08556 0.0
H1465 H 0.16105 0.05473 0.09221 0.0
H1466 H 0.16742 0.01471 0.09822 0.0
H1467 H 0.19905 0.03987 0.15029 0.0
H1468 H 0.13721 0.04125 0.15423 0.0
H1469 H 0.14256 0.07959 0.11297 0.0
C1470 C 0.2682 0.05878 0.10229 0.0
C1471 C 0.29139 0.04472 0.10817 0.0
C1472 C 0.28611 0.03488 0.12207 0.0
C1473 C 0.25849 0.03925 0.13002 0.0
C1474 C 0.23648 0.0537 0.12396 0.0
C1475 C 0.2408 0.06299 0.11038 0.0
C1476 C 0.21176 0.07545 0.1061 0.0
C1477 C 0.23413 0.11981 0.10165 0.0
C1478 C 0.18358 0.04667 0.09487 0.0
C1479 C 0.18963 0.07055 0.11929 0.0
C1480 C 0.20475 0.05871 0.12955 0.0
C1481 C 0.18728 0.04968 0.14239 0.0
C1482 C 0.15234 0.05097 0.14459 0.0
C1483 C 0.1352 0.0609 0.13396 0.0
C1484 C 0.15516 0.07233 0.12135 0.0
H1485 H 0.95216 0.21877 0.09208 0.0
H1486 H 0.98219 0.29329 0.1288 0.0
H1487 H 0.97768 0.23771 0.14194 0.0
H1488 H 0.88336 0.12 0.10778 0.0
H1489 H 0.90106 0.09357 0.09727 0.0
H1490 H 0.90153 0.13721 0.09094 0.0
H1491 H 0.97753 0.17181 0.08591 0.0
H1492 H 0.97708 0.12814 0.09205 0.0
H1493 H 0.01119 0.17769 0.09931 0.0
H1494 H 0.97506 0.17614 0.15091 0.0
H1495 H 0.98211 0.11687 0.15428 0.0
H1496 H 0.95462 0.08273 0.11184 0.0
C1497 C 0.9572 0.22311 0.10291 0.0
C1498 C 0.96741 0.26031 0.1094 0.0
C1499 C 0.97446 0.2651 0.12357 0.0
C1500 C 0.97158 0.23355 0.13117 0.0
C1501 C 0.96165 0.19729 0.12448 0.0
C1502 C 0.95488 0.19201 0.11065 0.0
C1503 C 0.94869 0.15166 0.10571 0.0
C1504 C 0.90612 0.12398 0.10009 0.0
C1505 C 0.98053 0.15771 0.09513 0.0
C1506 C 0.95437 0.13578 0.11884 0.0
C1507 C 0.96086 0.16204 0.12962 0.0
C1508 C 0.96943 0.155 0.14258 0.0
C1509 C 0.97304 0.12105 0.14445 0.0
C1510 C 0.96857 0.09503 0.13336 0.0
C1511 C 0.95782 0.10191 0.12054 0.0
H1512 H 0.82227 0.77224 0.07759 0.0
H1513 H 0.73313 0.71972 0.10941 0.0
H1514 H 0.78307 0.76719 0.12614 0.0
H1515 H 0.90709 0.78964 0.09754 0.0
H1516 H 0.94129 0.83713 0.0897 0.0
H1517 H 0.89897 0.79799 0.08031 0.0
H1518 H 0.875 0.84789 0.07558 0.0
H1519 H 0.9177 0.88729 0.08468 0.0
H1520 H 0.86794 0.87453 0.08958 0.0
H1521 H 0.84321 0.82217 0.13942 0.0
H1522 H 0.90492 0.88483 0.14719 0.0
H1523 H 0.95386 0.89971 0.10664 0.0
C1524 C 0.81313 0.77071 0.08806 0.0
C1525 C 0.77372 0.74219 0.09215 0.0
C1526 C 0.7631 0.74137 0.10599 0.0
C1527 C 0.79137 0.76798 0.11561 0.0
C1528 C 0.8302 0.7952 0.11126 0.0
C1529 C 0.8409 0.79698 0.09778 0.0
C1530 C 0.88389 0.83027 0.09555 0.0
C1531 C 0.9093 0.81269 0.09048 0.0
C1532 C 0.88625 0.86186 0.08578 0.0
C1533 C 0.8955 0.84755 0.10983 0.0
C1534 C 0.86446 0.8266 0.11883 0.0
C1535 C 0.86783 0.83859 0.13247 0.0
C1536 C 0.90314 0.87399 0.13685 0.0
C1537 C 0.93421 0.89703 0.12754 0.0
C1538 C 0.93073 0.88257 0.11402 0.0
H1539 H 0.07837 0.30368 0.41122 0.0
H1540 H 0.9716 0.29358 0.39424 0.0
H1541 H 0.95474 0.22851 0.38291 0.0
H1542 H 0.10377 0.26207 0.38264 0.0
H1543 H 0.12022 0.23544 0.39287 0.0
H1544 H 0.12409 0.28148 0.39931 0.0
H1545 H 0.08255 0.24383 0.42045 0.0
H1546 H 0.07894 0.19783 0.41414 0.0
H1547 H 0.0341 0.19838 0.4182 0.0
H1548 H 0.95072 0.16434 0.37302 0.0
H1549 H 0.95646 0.10424 0.36767 0.0
H1550 H 0.06463 0.15709 0.39187 0.0
C1551 C 0.05141 0.28782 0.40512 0.0
C1552 C 0.02636 0.30369 0.40357 0.0
C1553 C 0.99116 0.28183 0.3956 0.0
C1554 C 0.98148 0.24501 0.38906 0.0
C1555 C 0.00716 0.23042 0.39069 0.0
C1556 C 0.04114 0.251 0.39867 0.0
C1557 C 0.06309 0.2284 0.39928 0.0
C1558 C 0.10529 0.25334 0.39316 0.0
C1559 C 0.06474 0.21639 0.41388 0.0
C1560 C 0.03613 0.19174 0.39044 0.0
C1561 C 0.00428 0.1935 0.38539 0.0
C1562 C 0.97557 0.16269 0.37694 0.0
C1563 C 0.97918 0.12888 0.37385 0.0
C1564 C 0.01097 0.12621 0.37935 0.0
C1565 C 0.03989 0.1583 0.38759 0.0
H1566 H 0.73063 0.81402 0.40629 0.0
H1567 H 0.74153 0.70925 0.3976 0.0
H1568 H 0.80729 0.75367 0.38682 0.0
H1569 H 0.77595 0.86716 0.37571 0.0
H1570 H 0.80124 0.91641 0.38403 0.0
H1571 H 0.75475 0.87618 0.39074 0.0
H1572 H 0.78861 0.88471 0.41401 0.0
H1573 H 0.83499 0.92532 0.40743 0.0
H1574 H 0.83341 0.8823 0.41482 0.0
H1575 H 0.87242 0.81063 0.37678 0.0
H1576 H 0.93355 0.87557 0.37082 0.0
H1577 H 0.879 0.94153 0.38651 0.0
C1578 C 0.74681 0.80034 0.40214 0.0
C1579 C 0.73093 0.75819 0.40276 0.0
C1580 C 0.75322 0.74155 0.39729 0.0
C1581 C 0.79044 0.76648 0.39105 0.0
C1582 C 0.80495 0.80792 0.39044 0.0
C1583 C 0.78395 0.8247 0.396 0.0
C1584 C 0.80657 0.8702 0.39456 0.0
C1585 C 0.78323 0.88323 0.38573 0.0
C1586 C 0.81649 0.8919 0.40854 0.0
C1587 C 0.84377 0.87655 0.38743 0.0
C1588 C 0.84222 0.84034 0.38493 0.0
C1589 C 0.8738 0.83911 0.37862 0.0
C1590 C 0.90818 0.87599 0.3751 0.0
C1591 C 0.91059 0.91326 0.37804 0.0
C1592 C 0.87774 0.91332 0.38409 0.0
H1593 H 0.22981 0.97174 0.41609 0.0
H1594 H 0.32825 0.06817 0.39378 0.0
H1595 H 0.28115 0.08246 0.38253 0.0
H1596 H 0.15775 0.93564 0.38916 0.0
H1597 H 0.11631 0.92521 0.40009 0.0
H1598 H 0.15782 0.92267 0.40656 0.0
H1599 H 0.16819 0.97452 0.42573 0.0
H1600 H 0.12655 0.977 0.41937 0.0
H1601 H 0.17482 0.02277 0.42144 0.0
H1602 H 0.22295 0.08593 0.37337 0.0
H1603 H 0.15822 0.07978 0.36804 0.0
H1604 H 0.09828 0.98125 0.39614 0.0
C1605 C 0.24149 0.996 0.40891 0.0
C1606 C 0.28277 0.01879 0.40584 0.0
C1607 C 0.29677 0.05023 0.39633 0.0
C1608 C 0.27024 0.05859 0.38984 0.0
C1609 C 0.22971 0.03533 0.39297 0.0
C1610 C 0.2154 0.00484 0.40233 0.0
C1611 C 0.17047 0.98447 0.40391 0.0
C1612 C 0.14935 0.93933 0.39967 0.0
C1613 C 0.15937 0.99004 0.41847 0.0
C1614 C 0.16186 0.0083 0.394 0.0
C1615 C 0.19634 0.03738 0.38772 0.0
C1616 C 0.19569 0.0631 0.37819 0.0
C1617 C 0.1588 0.05916 0.37509 0.0
C1618 C 0.12322 0.02978 0.38151 0.0
C1619 C 0.125 0.00407 0.39105 0.0
H1620 H 0.73445 0.9604 0.92101 0.0
H1621 H 0.69074 0.96145 0.88095 0.0
H1622 H 0.74658 0.95775 0.87063 0.0
H1623 H 0.83639 0.02573 0.91333 0.0
H1624 H 0.85441 0.00079 0.92372 0.0
H1625 H 0.80833 -0.00162 0.92799 0.0
H1626 H 0.7712 0.91983 0.9275 0.0
H1627 H 0.81723 0.92204 0.92313 0.0
H1628 H 0.77366 0.89348 0.91251 0.0
H1629 H 0.80843 0.95808 0.8646 0.0
H1630 H 0.87604 0.96914 0.86313 0.0
H1631 H 0.88208 0.97027 0.90707 0.0
C1632 C 0.73643 0.95924 0.91008 0.0
C1633 C 0.70832 0.96106 0.90176 0.0
C1634 C 0.71213 0.96027 0.88749 0.0
C1635 C 0.7435 0.95779 0.88154 0.0
C1636 C 0.77096 0.95637 0.88998 0.0
C1637 C 0.76805 0.95744 0.90394 0.0
C1638 C 0.80376 0.95948 0.91064 0.0
C1639 C 0.8271 -0.00159 0.91943 0.0
C1640 C 0.79067 0.92143 0.91893 0.0
C1641 C 0.82756 0.9604 0.89826 0.0
C1642 C 0.80761 0.95771 0.88647 0.0
C1643 C 0.82424 0.95983 0.87375 0.0
C1644 C 0.86283 0.96604 0.87304 0.0
C1645 C 0.88463 0.97047 0.88498 0.0
C1646 C 0.86618 0.96664 0.89774 0.0
H1647 H 0.02189 0.761 0.88657 0.0
H1648 H 0.11526 0.8179 0.91712 0.0
H1649 H 0.12918 0.88528 0.91041 0.0
H1650 H 0.07124 0.84097 0.86101 0.0
H1651 H 0.02476 0.83621 0.85601 0.0
H1652 H 0.02508 0.79267 0.86204 0.0
H1653 H 0.97301 0.78232 0.88052 0.0
H1654 H 0.97204 0.82522 0.87437 0.0
H1655 H 0.98332 0.82395 0.89193 0.0
H1656 H 0.12849 0.94533 0.90204 0.0
H1657 H 0.10881 0.99285 0.89425 0.0
H1658 H 0.0169 0.89787 0.86878 0.0
C1659 C 0.04564 0.78764 0.89175 0.0
C1660 C 0.06761 0.78415 0.90236 0.0
C1661 C 0.09803 0.81977 0.90898 0.0
C1662 C 0.1064 0.8582 0.90514 0.0
C1663 C 0.08425 0.86053 0.89461 0.0
C1664 C 0.05433 0.82618 0.88805 0.0
C1665 C 0.03243 0.83674 0.87794 0.0
C1666 C 0.03877 0.826 0.86339 0.0
C1667 C 0.98756 0.81584 0.88141 0.0
C1668 C 0.05366 0.88229 0.8802 0.0
C1669 C 0.08405 0.89546 0.88967 0.0
C1670 C 0.10543 0.93556 0.89442 0.0
C1671 C 0.09427 0.96241 0.88988 0.0
C1672 C 0.06222 0.94913 0.88066 0.0
C1673 C 0.04258 0.90901 0.8754 0.0
H1674 H 0.2382 0.26824 0.9263 0.0
H1675 H 0.27008 0.34835 0.89232 0.0
H1676 H 0.21013 0.2959 0.8799 0.0
H1677 H 0.2021 0.17677 0.90727 0.0
H1678 H 0.16174 0.14666 0.91877 0.0
H1679 H 0.20653 0.19115 0.92497 0.0
H1680 H 0.16393 0.21979 0.93477 0.0
H1681 H 0.119 0.17539 0.92852 0.0
H1682 H 0.13059 0.22512 0.92375 0.0
H1683 H 0.14829 0.23155 0.87051 0.0
H1684 H 0.08961 0.16269 0.8657 0.0
H1685 H 0.09762 0.12837 0.90652 0.0
C1686 C 0.2325 0.27482 0.91628 0.0
C1687 C 0.25884 0.31229 0.91029 0.0
C1688 C 0.25019 0.31983 0.89715 0.0
C1689 C 0.21622 0.29023 0.89 0.0
C1690 C 0.19085 0.25347 0.89618 0.0
C1691 C 0.19846 0.24592 0.90909 0.0
C1692 C 0.16686 0.20401 0.91348 0.0
C1693 C 0.18542 0.17814 0.91628 0.0
C1694 C 0.14373 0.20623 0.92586 0.0
C1695 C 0.14073 0.18888 0.90096 0.0
C1696 C 0.15487 0.21758 0.89103 0.0
C1697 C 0.1366 0.20903 0.8783 0.0
C1698 C 0.1033 0.16991 0.87564 0.0
C1699 C 0.08861 0.14017 0.88574 0.0
C1700 C 0.10745 0.15039 0.89859 0.0
H1701 H -0.00618 0.74163 0.59682 0.0
H1702 H 0.87592 0.6666 0.61444 0.0
H1703 H 0.87812 0.72802 0.6235 0.0
H1704 H 0.03544 0.81622 0.62377 0.0
H1705 H 0.06339 0.85814 0.61264 0.0
H1706 H 0.05257 0.80821 0.60761 0.0
H1707 H 0.01896 0.81137 0.58559 0.0
H1708 H 0.02993 0.86141 0.59051 0.0
H1709 H 0.97913 0.82194 0.58671 0.0
H1710 H 0.89402 0.79842 0.63106 0.0
H1711 H 0.92061 0.8719 0.63488 0.0
H1712 H 0.02707 0.89974 0.61202 0.0
C1713 C 0.9684 0.73809 0.60255 0.0
C1714 C 0.93472 0.6993 0.60491 0.0
C1715 C 0.90202 0.69602 0.61243 0.0
C1716 C 0.90304 0.73073 0.61769 0.0
C1717 C 0.93687 0.76852 0.61527 0.0
C1718 C 0.96878 0.77238 0.60777 0.0
C1719 C 0.00124 0.81642 0.60636 0.0
C1720 C 0.04047 0.82525 0.61299 0.0
C1721 C 0.00767 0.82848 0.59141 0.0
C1722 C 0.98261 0.83673 0.61421 0.0
C1723 C 0.94564 0.80871 0.6194 0.0
C1724 C 0.92299 0.82062 0.62706 0.0
C1725 C 0.93842 0.86233 0.6293 0.0
C1726 C 0.97592 0.89138 0.62385 0.0
C1727 C -0.00181 0.8782 0.61628 0.0
H1728 H 0.28597 0.26435 0.60134 0.0
H1729 H 0.36145 0.22247 0.6168 0.0
H1730 H 0.30276 0.1659 0.62795 0.0
H1731 H 0.22096 0.23921 0.63066 0.0
H1732 H 0.17679 0.22308 0.6206 0.0
H1733 H 0.22516 0.2615 0.61446 0.0
H1734 H 0.21451 0.21877 0.59245 0.0
H1735 H 0.16593 0.18067 0.59843 0.0
H1736 H 0.20215 0.16696 0.59366 0.0
H1737 H 0.23433 0.11229 0.63712 0.0
H1738 H 0.16184 0.06328 0.64098 0.0
H1739 H 0.13284 0.14069 0.61921 0.0
C1740 C 0.29023 0.24335 0.60708 0.0
C1741 C 0.32832 0.2479 0.60819 0.0
C1742 C 0.33251 0.21956 0.61575 0.0
C1743 C 0.2994 0.18748 0.62223 0.0
C1744 C 0.26229 0.18413 0.62106 0.0
C1745 C 0.25756 0.21114 0.61355 0.0
C1746 C 0.2143 0.19978 0.6132 0.0
C1747 C 0.20901 0.23287 0.62015 0.0
C1748 C 0.19829 0.191 0.59857 0.0
C1749 C 0.19527 0.16167 0.62141 0.0
C1750 C 0.22333 0.15335 0.62611 0.0
C1751 C 0.21214 0.1187 0.63357 0.0
C1752 C 0.17106 0.09121 0.63583 0.0
C1753 C 0.14213 0.09856 0.63046 0.0
C1754 C 0.15457 0.13465 0.62349 0.0
H1755 H 0.77964 0.05617 0.62245 0.0
H1756 H 0.80036 0.08911 0.58015 0.0
H1757 H 0.86632 0.09497 0.58136 0.0
H1758 H 0.88494 0.12282 0.63381 0.0
H1759 H 0.88128 0.08604 0.64552 0.0
H1760 H 0.83766 0.08859 0.64171 0.0
H1761 H 0.79929 0.01227 0.63465 0.0
H1762 H 0.84282 0.00974 0.63845 0.0
H1763 H 0.82037 0.99451 0.62186 0.0
H1764 H 0.92596 0.08998 0.58641 0.0
H1765 H 0.9753 0.07414 0.59487 0.0
H1766 H 0.91738 0.04687 0.63418 0.0
C1767 C 0.79821 0.06509 0.61346 0.0
C1768 C 0.78481 0.07211 0.60117 0.0
C1769 C 0.81001 0.08363 0.58966 0.0
C1770 C 0.84758 0.0872 0.59028 0.0
C1771 C 0.8597 0.07973 0.60252 0.0
C1772 C 0.8359 0.06916 0.61394 0.0
C1773 C 0.8549 0.06039 0.62562 0.0
C1774 C 0.86532 0.09131 0.63735 0.0
C1775 C 0.82773 0.01663 0.63042 0.0
C1776 C 0.8924 0.0661 0.61882 0.0
C1777 C 0.89476 0.07772 0.60554 0.0
C1778 C 0.92483 0.0816 0.59685 0.0
C1779 C 0.95264 0.07244 0.60174 0.0
C1780 C 0.9503 0.05966 0.6152 0.0
C1781 C 0.92041 0.0575 0.62394 0.0
H1782 H 0.92965 0.38611 0.45461 0.0
H1783 H 0.94683 0.45713 0.41906 0.0
H1784 H 0.89568 0.47159 0.4276 0.0
H1785 H 0.82747 0.33824 0.45564 0.0
H1786 H 0.82326 0.3382 0.47384 0.0
H1787 H 0.86569 0.33952 0.46605 0.0
H1788 H 0.91303 0.40496 0.48005 0.0
H1789 H 0.8704 0.40409 0.4877 0.0
H1790 H 0.90766 0.44849 0.47901 0.0
H1791 H 0.83664 0.46979 0.43805 0.0
H1792 H 0.77106 0.44754 0.44868 0.0
H1793 H 0.79267 0.37908 0.47771 0.0
C1794 C 0.92323 0.40536 0.44873 0.0
C1795 C 0.94226 0.42053 0.43616 0.0
C1796 C 0.93264 0.44517 0.42871 0.0
C1797 C 0.90391 0.45388 0.43355 0.0
C1798 C 0.88545 0.43813 0.44593 0.0
C1799 C 0.89474 0.41439 0.45343 0.0
C1800 C 0.86745 0.3973 0.4656 0.0
C1801 C 0.84461 0.35057 0.46525 0.0
C1802 C 0.89106 0.41476 0.47888 0.0
C1803 C 0.83979 0.41316 0.46334 0.0
C1804 C 0.85139 0.43759 0.45214 0.0
C1805 C 0.8279 0.45176 0.44705 0.0
C1806 C 0.79083 0.43916 0.45317 0.0
C1807 C 0.77777 0.41284 0.46425 0.0
C1808 C 0.80311 0.40092 0.46971 0.0
H1809 H 0.63237 0.57534 0.45021 0.0
H1810 H 0.57078 0.5225 0.41211 0.0
H1811 H 0.5512 0.45427 0.42003 0.0
H1812 H 0.67414 0.51646 0.45337 0.0
H1813 H 0.66873 0.51228 0.47151 0.0
H1814 H 0.67274 0.5554 0.46345 0.0
H1815 H 0.60554 0.53971 0.47449 0.0
H1816 H 0.60169 0.49645 0.48252 0.0
H1817 H 0.56141 0.49015 0.472 0.0
H1818 H 0.54612 0.39373 0.43092 0.0
H1819 H 0.5595 0.34694 0.44308 0.0
H1820 H 0.62256 0.43932 0.47436 0.0
C1821 C 0.6143 0.54942 0.44357 0.0
C1822 C 0.60317 0.55422 0.43052 0.0
C1823 C 0.57964 0.5195 0.42215 0.0
C1824 C 0.56813 0.48064 0.42661 0.0
C1825 C 0.57988 0.47708 0.43953 0.0
C1826 C 0.60238 0.5106 0.44789 0.0
C1827 C 0.61427 0.4993 0.46081 0.0
C1828 C 0.66017 0.5222 0.46236 0.0
C1829 C 0.59453 0.50684 0.47319 0.0
C1830 C 0.59678 0.45441 0.45813 0.0
C1831 C 0.57631 0.44197 0.44594 0.0
C1832 C 0.56131 0.40289 0.44061 0.0
C1833 C 0.56901 0.3765 0.4476 0.0
C1834 C 0.59165 0.38938 0.45975 0.0
C1835 C 0.60412 0.4282 0.46534 0.0
H1836 H 0.50494 0.06301 0.43667 0.0
H1837 H 0.40246 0.05045 0.45863 0.0
H1838 H 0.44755 0.09964 0.47606 0.0
H1839 H 0.57228 0.08426 0.46685 0.0
H1840 H 0.61565 0.12167 0.45778 0.0
H1841 H 0.57557 0.07864 0.44878 0.0
H1842 H 0.56835 0.12677 0.43278 0.0
H1843 H 0.6089 0.16947 0.4415 0.0
H1844 H 0.56127 0.16603 0.44002 0.0
H1845 H 0.50309 0.15603 0.48941 0.0
H1846 H 0.56233 0.22347 0.49444 0.0
H1847 H 0.62908 0.20207 0.46343 0.0
C1848 C 0.49209 0.06998 0.44534 0.0
C1849 C 0.45037 0.05292 0.44638 0.0
C1850 C 0.43447 0.0634 0.45764 0.0
C1851 C 0.4598 0.0908 0.4677 0.0
C1852 C 0.50099 0.10758 0.46634 0.0
C1853 C 0.51706 0.09796 0.45532 0.0
C1854 C 0.56216 0.12529 0.45493 0.0
C1855 C 0.58261 0.101 0.45723 0.0
C1856 C 0.57594 0.14826 0.44153 0.0
C1857 C 0.5687 0.15345 0.46693 0.0
C1858 C 0.5333 0.14157 0.47377 0.0
C1859 C 0.53111 0.16527 0.48429 0.0
C1860 C 0.56508 0.20345 0.4872 0.0
C1861 C 0.60013 0.2178 0.47929 0.0
C1862 C 0.60272 0.19138 0.46973 0.0
H1863 H 0.70933 0.6107 0.74805 0.0
H1864 H 0.83514 0.68463 0.73748 0.0
H1865 H 0.83348 0.62406 0.72791 0.0
H1866 H 0.71264 0.52283 0.75785 0.0
H1867 H 0.6637 0.48728 0.75105 0.0
H1868 H 0.67511 0.53661 0.75711 0.0
H1869 H 0.65458 0.54966 0.73382 0.0
H1870 H 0.64352 0.50054 0.72764 0.0
H1871 H 0.67853 0.54543 0.71866 0.0
H1872 H 0.81758 0.55515 0.71886 0.0
H1873 H 0.78933 0.48232 0.71283 0.0
H1874 H 0.67487 0.45426 0.72955 0.0
C1875 C 0.73661 0.61413 0.74382 0.0
C1876 C 0.77233 0.65244 0.74352 0.0
C1877 C 0.80738 0.65558 0.73787 0.0
C1878 C 0.80675 0.62137 0.73234 0.0
C1879 C 0.7709 0.58416 0.7326 0.0
C1880 C 0.73659 0.58027 0.73833 0.0
C1881 C 0.70207 0.53677 0.73749 0.0
C1882 C 0.68754 0.51988 0.75172 0.0
C1883 C 0.66765 0.53289 0.72889 0.0
C1884 C 0.72231 0.51687 0.73042 0.0
C1885 C 0.76193 0.54467 0.72755 0.0
C1886 C 0.78654 0.53313 0.72101 0.0
C1887 C 0.77025 0.49193 0.71748 0.0
C1888 C 0.72994 0.46314 0.72054 0.0
C1889 C 0.70582 0.47587 0.72705 0.0
H1890 H 0.40759 0.10897 0.74878 0.0
H1891 H 0.34364 0.17132 0.74201 0.0
H1892 H 0.40367 0.22674 0.73097 0.0
H1893 H 0.50349 0.19774 0.75618 0.0
H1894 H 0.53081 0.17759 0.74769 0.0
H1895 H 0.48284 0.14371 0.75516 0.0
H1896 H 0.4576 0.10566 0.73201 0.0
H1897 H 0.50532 0.13993 0.72441 0.0
H1898 H 0.46008 0.13353 0.71729 0.0
H1899 H 0.47193 0.27583 0.72049 0.0
H1900 H 0.54312 0.31543 0.71322 0.0
H1901 H 0.55979 0.21897 0.72637 0.0
C1902 C 0.40622 0.13442 0.74512 0.0
C1903 C 0.37089 0.13579 0.74631 0.0
C1904 C 0.37042 0.16962 0.74126 0.0
C1905 C 0.4043 0.20117 0.73491 0.0
C1906 C 0.43838 0.19838 0.73363 0.0
C1907 C 0.43957 0.16595 0.7387 0.0
C1908 C 0.47971 0.17003 0.73616 0.0
C1909 C 0.50043 0.17243 0.7496 0.0
C1910 C 0.47539 0.13522 0.72692 0.0
C1911 C 0.50111 0.21 0.72899 0.0
C1912 C 0.47688 0.22593 0.7275 0.0
C1913 C 0.491 0.26339 0.72149 0.0
C1914 C 0.53121 0.28544 0.71721 0.0
C1915 C 0.55644 0.26974 0.71897 0.0
C1916 C 0.54089 0.23138 0.72476 0.0
H1917 H 0.89586 0.28686 0.75073 0.0
H1918 H 0.95392 0.31139 0.71145 0.0
H1919 H 0.89485 0.307 0.70101 0.0
H1920 H 0.79265 0.21727 0.7387 0.0
H1921 H 0.77135 0.23724 0.75057 0.0
H1922 H 0.81645 0.23801 0.75487 0.0
H1923 H 0.85309 0.31569 0.75943 0.0
H1924 H 0.80805 0.31502 0.75529 0.0
H1925 H 0.85391 0.34797 0.74641 0.0
H1926 H 0.83142 0.30388 0.69491 0.0
H1927 H 0.77105 0.30908 0.69411 0.0
H1928 H 0.75419 0.28812 0.73726 0.0
C1929 C 0.89584 0.29082 0.73992 0.0
C1930 C 0.92945 0.2994 0.73191 0.0
C1931 C 0.92861 0.30503 0.71782 0.0
C1932 C 0.89503 0.30222 0.71175 0.0
C1933 C 0.86245 0.29396 0.71991 0.0
C1934 C 0.86266 0.28872 0.7337 0.0
C1935 C 0.82515 0.28371 0.74031 0.0
C1936 C 0.79991 0.24154 0.74648 0.0
C1937 C 0.83569 0.31762 0.75098 0.0
C1938 C 0.80438 0.28784 0.72812 0.0
C1939 C 0.82601 0.2929 0.71641 0.0
C1940 C 0.81387 0.29933 0.70398 0.0
C1941 C 0.77931 0.30184 0.70359 0.0
C1942 C 0.7575 0.29817 0.71555 0.0
C1943 C 0.76991 0.29034 0.7279 0.0
H1944 H 0.41507 0.29311 0.24982 0.0
H1945 H 0.38631 0.34855 0.21771 0.0
H1946 H 0.43786 0.34781 0.20319 0.0
H1947 H 0.51984 0.34779 0.24485 0.0
H1948 H 0.52575 0.3057 0.24859 0.0
H1949 H 0.48503 0.30872 0.25597 0.0
H1950 H 0.43484 0.23715 0.24595 0.0
H1951 H 0.4755 0.23431 0.23831 0.0
H1952 H 0.43471 0.22761 0.22797 0.0
H1953 H 0.49558 0.3452 0.19276 0.0
H1954 H 0.55823 0.34592 0.18811 0.0
H1955 H 0.54708 0.2893 0.2265 0.0
C1956 C 0.41957 0.30511 0.23974 0.0
C1957 C 0.39668 0.32095 0.23492 0.0
C1958 C 0.40352 0.33632 0.22165 0.0
C1959 C 0.43253 0.33574 0.21328 0.0
C1960 C 0.4542 0.31941 0.21829 0.0
C1961 C 0.4482 0.30458 0.23124 0.0
C1962 C 0.47683 0.2906 0.23446 0.0
C1963 C 0.50344 0.31465 0.24668 0.0
C1964 C 0.4541 0.24468 0.23681 0.0
C1965 C 0.50067 0.30098 0.22144 0.0
C1966 C 0.4868 0.31699 0.21214 0.0
C1967 C 0.50609 0.33174 0.19981 0.0
C1968 C 0.54127 0.33137 0.19712 0.0
C1969 C 0.55653 0.31619 0.20669 0.0
C1970 C 0.53536 0.29997 0.21884 0.0
H1971 H 0.73655 0.15748 0.25061 0.0
H1972 H 0.72553 0.09133 0.21302 0.0
H1973 H 0.72671 0.14563 0.20012 0.0
H1974 H 0.67165 0.19116 0.24099 0.0
H1975 H 0.70005 0.23997 0.24948 0.0
H1976 H 0.7015 0.19729 0.25565 0.0
H1977 H 0.77895 0.23819 0.2537 0.0
H1978 H 0.77762 0.28084 0.24735 0.0
H1979 H 0.80196 0.2594 0.23768 0.0
H1980 H 0.7266 0.20594 0.19122 0.0
H1981 H 0.7179 0.26394 0.18737 0.0
H1982 H 0.72825 0.29032 0.23066 0.0
C1983 C 0.73462 0.15456 0.23967 0.0
C1984 C 0.73103 0.12017 0.23285 0.0
C1985 C 0.72818 0.11731 0.21851 0.0
C1986 C 0.72916 0.14817 0.21105 0.0
C1987 C 0.73293 0.18177 0.21805 0.0
C1988 C 0.73524 0.18499 0.23204 0.0
C1989 C 0.73633 0.22292 0.23713 0.0
C1990 C 0.70023 0.21218 0.24635 0.0
C1991 C 0.77609 0.25206 0.24439 0.0
C1992 C 0.73341 0.23994 0.22384 0.0
C1993 C 0.7322 0.2162 0.21293 0.0
C1994 C 0.72781 0.22498 0.19968 0.0
C1995 C 0.72312 0.25815 0.19757 0.0
C1996 C 0.72242 0.28173 0.2087 0.0
C1997 C 0.72881 0.27302 0.22192 0.0
H1998 H 0.94053 0.61798 0.21875 0.0
H1999 H 0.887 0.65661 0.2499 0.0
H2000 H 0.82011 0.60869 0.24059 0.0
H2001 H 0.86894 0.59906 0.1914 0.0
H2002 H 0.86788 0.5542 0.18512 0.0
H2003 H 0.9125 0.5948 0.19313 0.0
H2004 H 0.91162 0.5448 0.21037 0.0
H2005 H 0.86778 0.5041 0.20216 0.0
H2006 H 0.86686 0.51391 0.22007 0.0
H2007 H 0.75943 0.55445 0.22929 0.0
H2008 H 0.70801 0.48886 0.21915 0.0
H2009 H 0.79894 0.48365 0.19523 0.0
C2010 C 0.9147 0.61645 0.22355 0.0
C2011 C 0.91903 0.64115 0.23502 0.0
C2012 C 0.8845 0.63791 0.24114 0.0
C2013 C 0.84636 0.61118 0.23581 0.0
C2014 C 0.84314 0.58776 0.22438 0.0
C2015 C 0.87622 0.5895 0.21844 0.0
C2016 C 0.86389 0.55772 0.20718 0.0
C2017 C 0.87922 0.57765 0.19339 0.0
C2018 C 0.87837 0.5284 0.21013 0.0
C2019 C 0.81866 0.53693 0.20806 0.0
C2020 C 0.8075 0.55562 0.21781 0.0
C2021 C 0.76765 0.53996 0.22145 0.0
C2022 C 0.73861 0.50294 0.21557 0.0
C2023 C 0.74963 0.48214 0.20618 0.0
C2024 C 0.7898 0.50005 0.20194 0.0
H2025 H 0.56766 0.06228 0.9227 0.0
H2026 H 0.62599 0.0337 0.95376 0.0
H2027 H 0.63235 0.09012 0.96818 0.0
H2028 H 0.63183 0.16711 0.92576 0.0
H2029 H 0.59403 0.17929 0.92245 0.0
H2030 H 0.58849 0.13293 0.91568 0.0
H2031 H 0.51912 0.09233 0.92734 0.0
H2032 H 0.52493 0.13875 0.93434 0.0
H2033 H 0.51522 0.09813 0.94536 0.0
H2034 H 0.63698 0.15248 0.97849 0.0
H2035 H 0.64935 0.22182 0.98217 0.0
H2036 H 0.5913 0.21181 0.94399 0.0
C2037 C 0.58115 0.06758 0.93263 0.0
C2038 C 0.59612 0.04363 0.93717 0.0
C2039 C 0.61445 0.05189 0.95009 0.0
C2040 C 0.61774 0.08352 0.95841 0.0
C2041 C 0.6028 0.10676 0.95364 0.0
C2042 C 0.5854 0.09956 0.94095 0.0
C2043 C 0.57656 0.1321 0.93748 0.0
C2044 C 0.59909 0.15416 0.92459 0.0
C2045 C 0.53126 0.11425 0.93605 0.0
C2046 C 0.59294 0.15944 0.94998 0.0
C2047 C 0.60678 0.14365 0.95938 0.0
C2048 C 0.6257 0.16487 0.97131 0.0
C2049 C 0.63233 0.20404 0.97339 0.0
C2050 C 0.62053 0.22154 0.96348 0.0
C2051 C 0.59958 0.19849 0.95186 0.0
H2052 H 0.95619 0.52348 0.9222 0.0
H2053 H 0.97393 0.62453 0.94786 0.0
H2054 H 0.92137 0.57661 0.96343 0.0
H2055 H 0.85084 0.46841 0.92466 0.0
H2056 H 0.8463 0.41944 0.92423 0.0
H2057 H 0.8883 0.46167 0.91624 0.0
H2058 H 0.93635 0.44995 0.93063 0.0
H2059 H 0.89426 0.40824 0.93891 0.0
H2060 H 0.93257 0.45003 0.94884 0.0
H2061 H 0.86524 0.51748 0.97582 0.0
H2062 H 0.80164 0.45469 0.98125 0.0
H2063 H 0.81851 0.3931 0.9468 0.0
C2064 C 0.94916 0.53545 0.93115 0.0
C2065 C 0.96914 0.57762 0.93388 0.0
C2066 C 0.95875 0.59228 0.94556 0.0
C2067 C 0.92935 0.56527 0.95454 0.0
C2068 C 0.91046 0.52374 0.95165 0.0
C2069 C 0.91941 0.509 0.94007 0.0
C2070 C 0.89174 0.46355 0.93843 0.0
C2071 C 0.86787 0.45265 0.92511 0.0
C2072 C 0.91514 0.44166 0.93926 0.0
C2073 C 0.86507 0.45511 0.95069 0.0
C2074 C 0.87711 0.48996 0.95844 0.0
C2075 C 0.85573 0.48995 0.96988 0.0
C2076 C 0.81986 0.45401 0.973 0.0
C2077 C 0.8054 0.41908 0.96448 0.0
C2078 C 0.82925 0.41926 0.95358 0.0
H2079 H 0.45528 0.40514 0.95457 0.0
H2080 H 0.47843 0.43137 0.9118 0.0
H2081 H 0.54387 0.4369 0.91417 0.0
H2082 H 0.55948 0.47211 0.96633 0.0
H2083 H 0.55545 0.43698 0.97882 0.0
H2084 H 0.5119 0.43879 0.97421 0.0
H2085 H 0.4736 0.36187 0.96808 0.0
H2086 H 0.51673 0.35978 0.97287 0.0
H2087 H 0.49547 0.34257 0.95618 0.0
H2088 H 0.60367 0.43441 0.92059 0.0
H2089 H 0.65165 0.41843 0.93018 0.0
H2090 H 0.59087 0.39479 0.96894 0.0
C2091 C 0.47423 0.41239 0.94572 0.0
C2092 C 0.46173 0.41788 0.93299 0.0
C2093 C 0.48732 0.427 0.92164 0.0
C2094 C 0.5247 0.43056 0.92292 0.0
C2095 C 0.53617 0.42518 0.93561 0.0
C2096 C 0.51169 0.41612 0.94681 0.0
C2097 C 0.52992 0.40878 0.95906 0.0
C2098 C 0.53976 0.44109 0.97026 0.0
C2099 C 0.50229 0.36569 0.96435 0.0
C2100 C 0.56778 0.41364 0.95284 0.0
C2101 C 0.57109 0.42386 0.93937 0.0
C2102 C 0.60175 0.42697 0.93116 0.0
C2103 C 0.62885 0.41786 0.93671 0.0
C2104 C 0.62507 0.40568 0.95031 0.0
C2105 C 0.59499 0.40495 0.9586 0.0
H2106 H 0.62857 0.72277 0.78727 0.0
H2107 H 0.64269 0.75923 0.74536 0.0
H2108 H 0.58365 0.76643 0.74759 0.0
H2109 H 0.52308 0.6628 0.78694 0.0
H2110 H 0.51672 0.67676 0.80394 0.0
H2111 H 0.56192 0.67768 0.79939 0.0
H2112 H 0.60382 0.75293 0.80747 0.0
H2113 H 0.5586 0.75232 0.8119 0.0
H2114 H 0.59403 0.78956 0.80042 0.0
H2115 H 0.52104 0.76512 0.75371 0.0
H2116 H 0.45633 0.75148 0.76288 0.0
H2117 H 0.48252 0.71703 0.80104 0.0
C2118 C 0.61948 0.73261 0.77858 0.0
C2119 C 0.64038 0.74051 0.76612 0.0
C2120 C 0.62724 0.75299 0.75499 0.0
C2121 C 0.59387 0.75742 0.75619 0.0
C2122 C 0.57406 0.74948 0.7686 0.0
C2123 C 0.58624 0.73722 0.7796 0.0
C2124 C 0.55813 0.72822 0.79153 0.0
C2125 C 0.53882 0.68373 0.79569 0.0
C2126 C 0.57996 0.75751 0.80354 0.0
C2127 C 0.52762 0.73628 0.78539 0.0
C2128 C 0.53778 0.74901 0.7722 0.0
C2129 C 0.51305 0.75569 0.76407 0.0
C2130 C 0.47637 0.7479 0.76938 0.0
C2131 C 0.4647 0.73365 0.7827 0.0
C2132 C 0.49119 0.72889 0.79095 0.0
H2133 H 0.2906 0.9019 0.76041 0.0
H2134 H 0.32811 0.96911 0.79873 0.0
H2135 H 0.32528 0.91064 0.80938 0.0
H2136 H 0.22254 0.80245 0.77443 0.0
H2137 H 0.23634 0.77623 0.76222 0.0
H2138 H 0.23878 0.82244 0.75773 0.0
H2139 H 0.31356 0.85449 0.75116 0.0
H2140 H 0.31107 0.80819 0.7554 0.0
H2141 H 0.3482 0.85555 0.76329 0.0
H2142 H 0.32113 0.84578 0.81569 0.0
H2143 H 0.32297 0.78271 0.81637 0.0
H2144 H 0.28776 0.75794 0.77408 0.0
C2145 C 0.29811 0.90429 0.77105 0.0
C2146 C 0.30953 0.9401 0.77872 0.0
C2147 C 0.31936 0.94205 0.79261 0.0
C2148 C 0.31753 0.90886 0.7988 0.0
C2149 C 0.30575 0.87385 0.79099 0.0
C2150 C 0.29656 0.87148 0.77739 0.0
C2151 C 0.28722 0.83134 0.77106 0.0
C2152 C 0.24362 0.80666 0.76607 0.0
C2153 C 0.31678 0.83779 0.75955 0.0
C2154 C 0.2935 0.81194 0.78315 0.0
C2155 C 0.3035 0.83659 0.79462 0.0
C2156 C 0.31285 0.82597 0.80682 0.0
C2157 C 0.31348 0.78992 0.80716 0.0
C2158 C 0.30508 0.76525 0.79533 0.0
C2159 C 0.29384 0.77596 0.78333 0.0
H2160 H 0.10867 0.40908 0.76058 0.0
H2161 H 0.14432 0.33466 0.78109 0.0
H2162 H 0.1996 0.39602 0.79233 0.0
H2163 H 0.20713 0.49019 0.75384 0.0
H2164 H 0.19497 0.52905 0.75635 0.0
H2165 H 0.15697 0.47894 0.75069 0.0
H2166 H 0.11208 0.47445 0.77097 0.0
H2167 H 0.1501 0.52454 0.77673 0.0
H2168 H 0.1315 0.48245 0.78797 0.0
H2169 H 0.25209 0.46703 0.80128 0.0
H2170 H 0.29917 0.54085 0.80541 0.0
H2171 H 0.22936 0.5668 0.77828 0.0
C2172 C 0.12791 0.40562 0.7675 0.0
C2173 C 0.12211 0.36709 0.76998 0.0
C2174 C 0.14826 0.36394 0.779 0.0
C2175 C 0.17963 0.39859 0.7855 0.0
C2176 C 0.18458 0.4362 0.78282 0.0
C2177 C 0.15954 0.43984 0.77395 0.0
C2178 C 0.17226 0.4837 0.77222 0.0
C2179 C 0.18351 0.49619 0.7574 0.0
C2180 C 0.13954 0.49174 0.77728 0.0
C2181 C 0.20859 0.50422 0.78136 0.0
C2182 C 0.2151 0.47653 0.78757 0.0
C2183 C 0.24728 0.48897 0.79643 0.0
C2184 C 0.27384 0.53087 0.79876 0.0
C2185 C 0.26827 0.55952 0.79206 0.0
C2186 C 0.23481 0.5457 0.78345 0.0
H2187 H 0.38289 0.96097 0.06342 0.0
H2188 H 0.4472 0.97895 0.10096 0.0
H2189 H 0.45039 0.91775 0.09559 0.0
H2190 H 0.3231 0.85507 0.06411 0.0
H2191 H 0.32531 0.847 0.04613 0.0
H2192 H 0.33077 0.89375 0.0525 0.0
H2193 H 0.39873 0.93415 0.04002 0.0
H2194 H 0.39359 0.88737 0.0337 0.0
H2195 H 0.43758 0.92333 0.04316 0.0
H2196 H 0.43988 0.851 0.08746 0.0
H2197 H 0.4174 0.7837 0.07689 0.0
H2198 H 0.36424 0.81128 0.04381 0.0
C2199 C 0.39788 0.95218 0.07047 0.0
C2200 C 0.41464 0.97457 0.08265 0.0
C2201 C 0.43419 0.96225 0.09158 0.0
C2202 C 0.43627 0.92763 0.08859 0.0
C2203 C 0.41931 0.90616 0.07652 0.0
C2204 C 0.40079 0.91811 0.06754 0.0
C2205 C 0.38361 0.88883 0.05551 0.0
C2206 C 0.338 0.87005 0.05452 0.0
C2207 C 0.40465 0.90968 0.04232 0.0
C2208 C 0.39406 0.85768 0.05938 0.0
C2209 C 0.41486 0.86842 0.0715 0.0
C2210 C 0.42442 0.84268 0.07782 0.0
C2211 C 0.41157 0.80459 0.07176 0.0
C2212 C 0.38985 0.79286 0.05945 0.0
C2213 C 0.38192 0.82015 0.05301 0.0
H2214 H 0.04957 0.49935 0.07944 0.0
H2215 H 0.03605 0.40179 0.05285 0.0
H2216 H 0.08893 0.45179 0.03788 0.0
H2217 H 0.07754 0.57778 0.05349 0.0
H2218 H 0.11466 0.61762 0.06433 0.0
H2219 H 0.07082 0.57514 0.07161 0.0
H2220 H 0.11565 0.56001 0.08646 0.0
H2221 H 0.15928 0.60293 0.07948 0.0
H2222 H 0.15381 0.55356 0.07847 0.0
H2223 H 0.14616 0.51181 0.02662 0.0
H2224 H 0.2123 0.57366 0.0231 0.0
H2225 H 0.19219 0.63134 0.05797 0.0
C2226 C 0.05742 0.48872 0.07034 0.0
C2227 C 0.03863 0.44692 0.06718 0.0
C2228 C 0.05019 0.4338 0.05541 0.0
C2229 C 0.07977 0.46199 0.04676 0.0
C2230 C 0.09782 0.50316 0.05011 0.0
C2231 C 0.08768 0.51642 0.0618 0.0
C2232 C 0.11579 0.5615 0.06426 0.0
C2233 C 0.09335 0.58435 0.06336 0.0
C2234 C 0.13742 0.56997 0.07797 0.0
C2235 C 0.14425 0.57123 0.05244 0.0
C2236 C 0.13242 0.53756 0.04407 0.0
C2237 C 0.15549 0.5385 0.03301 0.0
C2238 C 0.19283 0.57391 0.03097 0.0
C2239 C 0.20696 0.60719 0.04021 0.0
C2240 C 0.18156 0.60648 0.05063 0.0
H2241 H 0.57986 0.65667 0.04628 0.0
H2242 H 0.53982 0.57847 0.08102 0.0
H2243 H 0.47035 0.56078 0.07674 0.0
H2244 H 0.52013 0.69764 0.05203 0.0
H2245 H 0.50993 0.69997 0.03443 0.0
H2246 H 0.55519 0.70195 0.03914 0.0
H2247 H 0.53637 0.64041 0.023 0.0
H2248 H 0.49057 0.6379 0.01842 0.0
H2249 H 0.4889 0.59394 0.025 0.0
H2250 H 0.40702 0.55696 0.0702 0.0
H2251 H 0.35584 0.57205 0.06322 0.0
H2252 H 0.43652 0.65252 0.03264 0.0
C2253 C 0.55642 0.63533 0.05288 0.0
C2254 C 0.56531 0.61886 0.06398 0.0
C2255 C 0.53379 0.59147 0.07246 0.0
C2256 C 0.49417 0.58096 0.07003 0.0
C2257 C 0.48649 0.59784 0.05903 0.0
C2258 C 0.51674 0.62453 0.0506 0.0
C2259 C 0.50112 0.64141 0.04027 0.0
C2260 C 0.52287 0.68798 0.04156 0.0
C2261 C 0.50445 0.62758 0.02582 0.0
C2262 C 0.45773 0.62152 0.04461 0.0
C2263 C 0.44972 0.59573 0.05524 0.0
C2264 C 0.41274 0.57652 0.06175 0.0
C2265 C 0.38383 0.58524 0.0577 0.0
C2266 C 0.39208 0.61309 0.04729 0.0
C2267 C 0.42896 0.63022 0.04034 0.0
H2268 H 0.1145 0.70359 0.57222 0.0
H2269 H 0.03747 0.57291 0.57435 0.0
H2270 H 0.08657 0.56415 0.56104 0.0
H2271 H 0.15498 0.70811 0.53863 0.0
H2272 H 0.20484 0.74818 0.54322 0.0
H2273 H 0.16217 0.74434 0.55189 0.0
H2274 H 0.19148 0.74175 0.575 0.0
H2275 H 0.23448 0.74635 0.5664 0.0
H2276 H 0.2052 0.70433 0.57738 0.0
H2277 H 0.14408 0.56982 0.54707 0.0
H2278 H 0.21092 0.58957 0.53767 0.0
H2279 H 0.25211 0.71588 0.54662 0.0
C2280 C 0.10803 0.67318 0.56985 0.0
C2281 C 0.07218 0.63895 0.57421 0.0
C2282 C 0.06487 0.59957 0.57112 0.0
C2283 C 0.09236 0.59428 0.56344 0.0
C2284 C 0.12728 0.62868 0.55913 0.0
C2285 C 0.13561 0.66737 0.5625 0.0
C2286 C 0.17692 0.69924 0.55778 0.0
C2287 C 0.17456 0.72657 0.54725 0.0
C2288 C 0.20359 0.72437 0.56986 0.0
C2289 C 0.19068 0.67245 0.55137 0.0
C2290 C 0.16127 0.63188 0.55188 0.0
C2291 C 0.16739 0.6015 0.54664 0.0
C2292 C 0.20519 0.6129 0.54124 0.0
C2293 C 0.23628 0.65409 0.5415 0.0
C2294 C 0.22859 0.68415 0.54631 0.0
H2295 H 0.32474 0.4235 0.57453 0.0
H2296 H 0.45339 0.47683 0.57627 0.0
H2297 H 0.46303 0.53431 0.56274 0.0
H2298 H 0.31856 0.45387 0.54084 0.0
H2299 H 0.28064 0.46553 0.54523 0.0
H2300 H 0.28366 0.42728 0.55429 0.0
H2301 H 0.28977 0.46514 0.57707 0.0
H2302 H 0.28595 0.50296 0.5681 0.0
H2303 H 0.32821 0.51793 0.57904 0.0
H2304 H 0.45818 0.58543 0.54836 0.0
H2305 H 0.43984 0.63201 0.53832 0.0
H2306 H 0.31524 0.54777 0.54783 0.0
C2307 C 0.35489 0.44739 0.57208 0.0
C2308 C 0.38832 0.44588 0.57643 0.0
C2309 C 0.4274 0.47774 0.57314 0.0
C2310 C 0.43314 0.51021 0.56533 0.0
C2311 C 0.3995 0.51064 0.56105 0.0
C2312 C 0.36119 0.4805 0.56459 0.0
C2313 C 0.33026 0.48969 0.55969 0.0
C2314 C 0.30159 0.45715 0.5494 0.0
C2315 C 0.30721 0.49422 0.57169 0.0
C2316 C 0.35712 0.52981 0.55295 0.0
C2317 C 0.39689 0.54096 0.55349 0.0
C2318 C 0.42713 0.57705 0.54791 0.0
C2319 C 0.41651 0.60313 0.54214 0.0
C2320 C 0.37624 0.59322 0.54232 0.0
C2321 C 0.34624 0.55578 0.54752 0.0
H2322 H 0.59047 0.94303 0.57677 0.0
H2323 H 0.55288 0.0203 0.55952 0.0
H2324 H 0.50273 0.96258 0.54549 0.0
H2325 H 0.57663 0.88092 0.54631 0.0
H2326 H 0.55764 0.83498 0.55566 0.0
H2327 H 0.59296 0.88323 0.56348 0.0
H2328 H 0.54353 0.86917 0.5833 0.0
H2329 H 0.5083 0.82084 0.5756 0.0
H2330 H 0.4933 0.85691 0.57965 0.0
H2331 H 0.45466 0.89534 0.53387 0.0
H2332 H 0.40887 0.82296 0.52745 0.0
H2333 H 0.4771 0.79016 0.55278 0.0
C2334 C 0.57196 0.94788 0.56994 0.0
C2335 C 0.57565 0.98615 0.56921 0.0
C2336 C 0.55049 0.99117 0.56029 0.0
C2337 C 0.5221 0.95865 0.55219 0.0
C2338 C 0.51913 0.92124 0.55317 0.0
C2339 C 0.54317 0.91565 0.5619 0.0
C2340 C 0.53207 0.87181 0.56178 0.0
C2341 C 0.5669 0.8675 0.55649 0.0
C2342 C 0.51848 0.85362 0.57592 0.0
C2343 C 0.49757 0.85352 0.55183 0.0
C2344 C 0.49094 0.88254 0.54676 0.0
C2345 C 0.45975 0.87238 0.53771 0.0
C2346 C 0.43405 0.83129 0.53404 0.0
C2347 C 0.43953 0.80109 0.53959 0.0
C2348 C 0.4722 0.81264 0.54836 0.0
H2349 H 0.28051 0.41688 0.25703 0.0
H2350 H 0.30077 0.37202 0.29403 0.0
H2351 H 0.30198 0.42832 0.30706 0.0
H2352 H 0.34692 0.51976 0.26456 0.0
H2353 H 0.31681 0.53679 0.25685 0.0
H2354 H 0.31325 0.49059 0.25087 0.0
H2355 H 0.23662 0.45149 0.25514 0.0
H2356 H 0.24007 0.49767 0.26125 0.0
H2357 H 0.21797 0.45369 0.27174 0.0
H2358 H 0.30483 0.49285 0.31588 0.0
H2359 H 0.31502 0.56172 0.31902 0.0
H2360 H 0.29405 0.56344 0.27611 0.0
C2361 C 0.28461 0.41848 0.2679 0.0
C2362 C 0.29033 0.38988 0.2745 0.0
C2363 C 0.29627 0.39356 0.28873 0.0
C2364 C 0.29676 0.42531 0.29624 0.0
C2365 C 0.29126 0.45319 0.28939 0.0
C2366 C 0.28547 0.45008 0.27552 0.0
C2367 C 0.28348 0.48551 0.27035 0.0
C2368 C 0.31712 0.50958 0.26006 0.0
C2369 C 0.24207 0.47122 0.26426 0.0
C2370 C 0.29002 0.50959 0.2834 0.0
C2371 C 0.29372 0.49029 0.29436 0.0
C2372 C 0.30165 0.50804 0.30737 0.0
C2373 C 0.30719 0.54704 0.30909 0.0
C2374 C 0.3054 0.56788 0.29781 0.0
C2375 C 0.29558 0.54824 0.28494 0.0
H2376 H 0.59478 0.93289 0.25416 0.0
H2377 H 0.67802 0.94875 0.28584 0.0
H2378 H 0.62417 0.88827 0.29719 0.0
H2379 H 0.50995 0.90191 0.27527 0.0
H2380 H 0.47478 0.86532 0.26315 0.0
H2381 H 0.52028 0.90899 0.25738 0.0
H2382 H 0.53858 0.86197 0.24406 0.0
H2383 H 0.4931 0.81813 0.2498 0.0
H2384 H 0.54072 0.82276 0.25283 0.0
H2385 H 0.55949 0.82709 0.30564 0.0
H2386 H 0.49051 0.77043 0.30998 0.0
H2387 H 0.45112 0.79466 0.27248 0.0
C2388 C 0.60182 0.9236 0.26345 0.0
C2389 C 0.64067 0.94567 0.2691 0.0
C2390 C 0.64852 0.93233 0.28128 0.0
C2391 C 0.61811 0.89799 0.28781 0.0
C2392 C 0.58005 0.87707 0.282 0.0
C2393 C 0.57194 0.88929 0.27004 0.0
C2394 C 0.52855 0.86197 0.26594 0.0
C2395 C 0.50714 0.88598 0.26541 0.0
C2396 C 0.52505 0.8399 0.25235 0.0
C2397 C 0.51332 0.83278 0.27753 0.0
C2398 C 0.54336 0.84184 0.28671 0.0
C2399 C 0.53583 0.81962 0.29845 0.0
C2400 C 0.49653 0.78751 0.30088 0.0
C2401 C 0.46531 0.77787 0.29161 0.0
C2402 C 0.47423 0.8008 0.27974 0.0
H2403 H 0.0876 0.66994 0.26616 0.0
H2404 H 0.12339 0.79451 0.27611 0.0
H2405 H 0.1838 0.80443 0.2877 0.0
H2406 H 0.12189 0.64908 0.29691 0.0
H2407 H 0.13915 0.61916 0.28831 0.0
H2408 H 0.09796 0.62158 0.28145 0.0
H2409 H 0.13561 0.64627 0.25863 0.0
H2410 H 0.17662 0.64341 0.26536 0.0
H2411 H 0.18556 0.69028 0.25854 0.0
H2412 H 0.24105 0.7998 0.29855 0.0
H2413 H 0.29254 0.78331 0.30475 0.0
H2414 H 0.21912 0.66334 0.28654 0.0
C2415 C 0.10804 0.6993 0.27081 0.0
C2416 C 0.10068 0.73137 0.27027 0.0
C2417 C 0.12848 0.76948 0.27635 0.0
C2418 C 0.16273 0.77532 0.28305 0.0
C2419 C 0.16891 0.74286 0.2835 0.0
C2420 C 0.14248 0.70577 0.27736 0.0
C2421 C 0.15678 0.67634 0.27852 0.0
C2422 C 0.12718 0.63936 0.28679 0.0
C2423 C 0.16409 0.66334 0.26443 0.0
C2424 C 0.19558 0.70266 0.28613 0.0
C2425 C 0.20197 0.74074 0.28918 0.0
C2426 C 0.2363 0.77006 0.29617 0.0
C2427 C 0.26525 0.76047 0.29973 0.0
C2428 C 0.25978 0.72223 0.29603 0.0
C2429 C 0.22413 0.69294 0.28942 0.0
loop_
_geom_bond_atom_site_label_1
_geom_bond_atom_site_label_2
_geom_bond_distance
_geom_bond_site_symmetry_2
_ccdc_geom_bond_type
C0 O1 1.160 . S
C0 O7 1.185 . S
O1 C0 1.160 . S
O2 Zn3 1.899 1_565 S
O2 C10 1.284 . S
Zn3 O2 1.899 1_545 S
Zn3 O4 2.032 . S
Zn3 O7 2.086 . S
Zn3 O12 1.977 . S
O4 Zn3 2.032 . S
O4 C8 1.278 . S
C5 O6 1.203 1_545 S
C5 O12 1.267 . S
O6 C5 1.203 1_565 S
O7 C0 1.185 . S
O7 Zn3 2.086 . S
C8 O4 1.278 . S
C8 O9 1.211 1_545 S
O9 C8 1.211 1_565 S
C10 O2 1.284 . S
C10 O11 1.273 . S
O11 C10 1.273 . S
O12 Zn3 1.977 . S
O12 C5 1.267 . S
C13 O14 1.160 . S
C13 O20 1.185 . S
O14 C13 1.160 . S
O15 Zn16 1.899 1_655 S
O15 C23 1.284 . S
Zn16 O15 1.899 1_455 S
Zn16 O17 2.032 . S
Zn16 O20 2.086 . S
Zn16 O25 1.977 . S
O17 Zn16 2.032 . S
O17 C21 1.278 . S
C18 O19 1.203 1_455 S
C18 O25 1.267 . S
O19 C18 1.203 1_655 S
O20 C13 1.185 . S
O20 Zn16 2.086 . S
C21 O17 1.278 . S
C21 O22 1.211 1_455 S
O22 C21 1.211 1_655 S
C23 O15 1.284 . S
C23 O24 1.273 . S
O24 C23 1.273 . S
O25 Zn16 1.977 . S
O25 C18 1.267 . S
C26 O27 1.160 . S
C26 O33 1.185 . S
O27 C26 1.160 . S
O28 Zn29 1.899 . S
O28 C36 1.284 . S
Zn29 O28 1.899 . S
Zn29 O30 2.032 . S
Zn29 O33 2.086 . S
Zn29 O38 1.977 . S
O30 Zn29 2.032 . S
O30 C34 1.278 . S
C31 O32 1.203 . S
C31 O38 1.267 . S
O32 C31 1.203 . S
O33 C26 1.185 . S
O33 Zn29 2.086 . S
C34 O30 1.278 . S
C34 O35 1.211 . S
O35 C34 1.211 . S
C36 O28 1.284 . S
C36 O37 1.273 . S
O37 C36 1.273 . S
O38 Zn29 1.977 . S
O38 C31 1.267 . S
C39 O40 1.160 . S
C39 O46 1.185 . S
O40 C39 1.160 . S
O41 Zn42 1.899 . S
O41 C49 1.284 . S
Zn42 O41 1.899 . S
Zn42 O43 2.032 . S
Zn42 O46 2.086 1_545 S
Zn42 O51 1.977 1_545 S
O43 Zn42 2.032 . S
O43 C47 1.278 . S
C44 O45 1.203 . S
C44 O51 1.267 1_545 S
O45 C44 1.203 . S
O46 C39 1.185 . S
O46 Zn42 2.086 1_565 S
C47 O43 1.278 . S
C47 O48 1.211 . S
O48 C47 1.211 . S
C49 O41 1.284 . S
C49 O50 1.273 . S
O50 C49 1.273 . S
O51 Zn42 1.977 1_565 S
O51 C44 1.267 1_565 S
C52 O53 1.160 . S
C52 O59 1.185 . S
O53 C52 1.160 . S
O54 Zn55 1.899 . S
O54 C62 1.284 . S
Zn55 O54 1.899 . S
Zn55 O56 2.032 . S
Zn55 O59 2.086 1_455 S
Zn55 O64 1.977 1_455 S
O56 Zn55 2.032 . S
O56 C60 1.278 . S
C57 O58 1.203 . S
C57 O64 1.267 1_455 S
O58 C57 1.203 . S
O59 C52 1.185 . S
O59 Zn55 2.086 1_655 S
C60 O56 1.278 . S
C60 O61 1.211 . S
O61 C60 1.211 . S
C62 O54 1.284 . S
C62 O63 1.273 . S
O63 C62 1.273 . S
O64 Zn55 1.977 1_655 S
O64 C57 1.267 1_655 S
C65 O66 1.160 . S
C65 O72 1.185 . S
O66 C65 1.160 . S
O67 Zn68 1.899 . S
O67 C75 1.284 . S
Zn68 O67 1.899 . S
Zn68 O69 2.032 . S
Zn68 O72 2.086 . S
Zn68 O77 1.977 . S
O69 Zn68 2.032 . S
O69 C73 1.278 . S
C70 O71 1.203 . S
C70 O77 1.267 . S
O71 C70 1.203 . S
O72 C65 1.185 . S
O72 Zn68 2.086 . S
C73 O69 1.278 . S
C73 O74 1.211 . S
O74 C73 1.211 . S
C75 O67 1.284 . S
C75 O76 1.273 . S
O76 C75 1.273 . S
O77 Zn68 1.977 . S
O77 C70 1.267 . S
C78 O79 1.160 . S
C78 O85 1.185 . S
O79 C78 1.160 . S
O80 Zn81 1.899 . S
O80 C88 1.284 . S
Zn81 O80 1.899 . S
Zn81 O82 2.032 . S
Zn81 O85 2.086 . S
Zn81 O90 1.977 . S
O82 Zn81 2.032 . S
O82 C86 1.278 . S
C83 O84 1.203 . S
C83 O90 1.267 . S
O84 C83 1.203 . S
O85 C78 1.185 . S
O85 Zn81 2.086 . S
C86 O82 1.278 . S
C86 O87 1.211 . S
O87 C86 1.211 . S
C88 O80 1.284 . S
C88 O89 1.273 . S
O89 C88 1.273 . S
O90 Zn81 1.977 . S
O90 C83 1.267 . S
C91 O92 1.160 . S
C91 O98 1.185 . S
O92 C91 1.160 . S
O93 Zn94 1.899 . S
O93 C101 1.284 . S
Zn94 O93 1.899 . S
Zn94 O95 2.032 . S
Zn94 O98 2.086 . S
Zn94 O103 1.977 . S
O95 Zn94 2.032 . S
O95 C99 1.278 . S
C96 O97 1.203 . S
C96 O103 1.267 . S
O97 C96 1.203 . S
O98 C91 1.185 . S
O98 Zn94 2.086 . S
C99 O95 1.278 . S
C99 O100 1.211 . S
O100 C99 1.211 . S
C101 O93 1.284 . S
C101 O102 1.273 . S
O102 C101 1.273 . S
O103 Zn94 1.977 . S
O103 C96 1.267 . S
C104 O105 1.160 . S
C104 O111 1.185 . S
O105 C104 1.160 . S
O106 Zn107 1.899 . S
O106 C114 1.284 . S
Zn107 O106 1.899 . S
Zn107 O108 2.032 . S
Zn107 O111 2.086 1_655 S
Zn107 O116 1.977 . S
O108 Zn107 2.032 . S
O108 C112 1.278 . S
C109 O110 1.203 . S
C109 O116 1.267 . S
O110 C109 1.203 . S
O111 C104 1.185 . S
O111 Zn107 2.086 1_455 S
C112 O108 1.278 . S
C112 O113 1.211 . S
O113 C112 1.211 . S
C114 O106 1.284 . S
C114 O115 1.273 . S
O115 C114 1.273 . S
O116 Zn107 1.977 . S
O116 C109 1.267 . S
C117 O118 1.160 1_655 S
C117 O124 1.185 . S
O118 C117 1.160 1_455 S
O119 Zn120 1.899 1_455 S
O119 C127 1.284 . S
Zn120 O119 1.899 1_655 S
Zn120 O121 2.032 . S
Zn120 O124 2.086 . S
Zn120 O129 1.977 . S
O121 Zn120 2.032 . S
O121 C125 1.278 . S
C122 O123 1.203 . S
C122 O129 1.267 . S
O123 C122 1.203 . S
O124 C117 1.185 . S
O124 Zn120 2.086 . S
C125 O121 1.278 . S
C125 O126 1.211 . S
O126 C125 1.211 . S
C127 O119 1.284 . S
C127 O128 1.273 . S
O128 C127 1.273 . S
O129 Zn120 1.977 . S
O129 C122 1.267 . S
C130 O131 1.160 . S
C130 O137 1.185 . S
O131 C130 1.160 . S
O132 Zn133 1.899 . S
O132 C140 1.284 . S
Zn133 O132 1.899 . S
Zn133 O134 2.032 . S
Zn133 O137 2.086 . S
Zn133 O142 1.977 . S
O134 Zn133 2.032 . S
O134 C138 1.278 . S
C135 O136 1.203 . S
C135 O142 1.267 . S
O136 C135 1.203 . S
O137 C130 1.185 . S
O137 Zn133 2.086 . S
C138 O134 1.278 . S
C138 O139 1.211 . S
O139 C138 1.211 . S
C140 O132 1.284 . S
C140 O141 1.273 . S
O141 C140 1.273 . S
O142 Zn133 1.977 . S
O142 C135 1.267 . S
C143 O144 1.160 . S
C143 O150 1.185 . S
O144 C143 1.160 . S
O145 Zn146 1.899 . S
O145 C153 1.284 . S
Zn146 O145 1.899 . S
Zn146 O147 2.032 . S
Zn146 O150 2.086 . S
Zn146 O155 1.977 . S
O147 Zn146 2.032 . S
O147 C151 1.278 . S
C148 O149 1.203 . S
C148 O155 1.267 . S
O149 C148 1.203 . S
O150 C143 1.185 . S
O150 Zn146 2.086 . S
C151 O147 1.278 . S
C151 O152 1.211 . S
O152 C151 1.211 . S
C153 O145 1.284 . S
C153 O154 1.273 . S
O154 C153 1.273 . S
O155 Zn146 1.977 . S
O155 C148 1.267 . S
C156 O157 1.160 . S
C156 O163 1.185 . S
O157 C156 1.160 . S
O158 Zn159 1.899 . S
O158 C166 1.284 . S
Zn159 O158 1.899 . S
Zn159 O160 2.032 . S
Zn159 O163 2.086 . S
Zn159 O168 1.977 . S
O160 Zn159 2.032 . S
O160 C164 1.278 . S
C161 O162 1.203 . S
C161 O168 1.267 . S
O162 C161 1.203 . S
O163 C156 1.185 . S
O163 Zn159 2.086 . S
C164 O160 1.278 . S
C164 O165 1.211 . S
O165 C164 1.211 . S
C166 O158 1.284 . S
C166 O167 1.273 . S
O167 C166 1.273 . S
O168 Zn159 1.977 . S
O168 C161 1.267 . S
C169 O170 1.160 . S
C169 O176 1.185 . S
O170 C169 1.160 . S
O171 Zn172 1.899 . S
O171 C179 1.284 . S
Zn172 O171 1.899 . S
Zn172 O173 2.032 . S
Zn172 O176 2.086 . S
Zn172 O181 1.977 . S
O173 Zn172 2.032 . S
O173 C177 1.278 . S
C174 O175 1.203 . S
C174 O181 1.267 . S
O175 C174 1.203 . S
O176 C169 1.185 . S
O176 Zn172 2.086 . S
C177 O173 1.278 . S
C177 O178 1.211 . S
O178 C177 1.211 . S
C179 O171 1.284 . S
C179 O180 1.273 . S
O180 C179 1.273 . S
O181 Zn172 1.977 . S
O181 C174 1.267 . S
C182 O183 1.160 1_565 S
C182 O189 1.185 . S
O183 C182 1.160 1_545 S
O184 Zn185 1.899 1_545 S
O184 C192 1.284 . S
Zn185 O184 1.899 1_565 S
Zn185 O186 2.032 . S
Zn185 O189 2.086 . S
Zn185 O194 1.977 . S
O186 Zn185 2.032 . S
O186 C190 1.278 . S
C187 O188 1.203 . S
C187 O194 1.267 . S
O188 C187 1.203 . S
O189 C182 1.185 . S
O189 Zn185 2.086 . S
C190 O186 1.278 . S
C190 O191 1.211 . S
O191 C190 1.211 . S
C192 O184 1.284 . S
C192 O193 1.273 . S
O193 C192 1.273 . S
O194 Zn185 1.977 . S
O194 C187 1.267 . S
C195 O196 1.160 . S
C195 O202 1.185 . S
O196 C195 1.160 . S
O197 Zn198 1.899 . S
O197 C205 1.284 . S
Zn198 O197 1.899 . S
Zn198 O199 2.032 . S
Zn198 O202 2.086 . S
Zn198 O207 1.977 . S
O199 Zn198 2.032 . S
O199 C203 1.278 . S
C200 O201 1.203 . S
C200 O207 1.267 . S
O201 C200 1.203 . S
O202 C195 1.185 . S
O202 Zn198 2.086 . S
C203 O199 1.278 . S
C203 O204 1.211 . S
O204 C203 1.211 . S
C205 O197 1.284 . S
C205 O206 1.273 . S
O206 C205 1.273 . S
O207 Zn198 1.977 . S
O207 C200 1.267 . S
C208 O209 1.160 1_565 S
C208 O215 1.185 . S
O209 C208 1.160 1_545 S
O210 Zn211 1.899 1_545 S
O210 C218 1.284 . S
Zn211 O210 1.899 1_565 S
Zn211 O212 2.032 . S
Zn211 O215 2.086 . S
Zn211 O220 1.977 . S
O212 Zn211 2.032 . S
O212 C216 1.278 . S
C213 O214 1.203 . S
C213 O220 1.267 . S
O214 C213 1.203 . S
O215 C208 1.185 . S
O215 Zn211 2.086 . S
C216 O212 1.278 . S
C216 O217 1.211 . S
O217 C216 1.211 . S
C218 O210 1.284 . S
C218 O219 1.273 . S
O219 C218 1.273 . S
O220 Zn211 1.977 . S
O220 C213 1.267 . S
C221 O222 1.160 . S
C221 O228 1.185 1_655 S
O222 C221 1.160 . S
O223 Zn224 1.899 . S
O223 C231 1.284 . S
Zn224 O223 1.899 . S
Zn224 O225 2.032 . S
Zn224 O228 2.086 . S
Zn224 O233 1.977 . S
O225 Zn224 2.032 . S
O225 C229 1.278 . S
C226 O227 1.203 . S
C226 O233 1.267 . S
O227 C226 1.203 . S
O228 C221 1.185 1_455 S
O228 Zn224 2.086 . S
C229 O225 1.278 . S
C229 O230 1.211 . S
O230 C229 1.211 . S
C231 O223 1.284 . S
C231 O232 1.273 . S
O232 C231 1.273 . S
O233 Zn224 1.977 . S
O233 C226 1.267 . S
Zn234 O240 1.920 1_455 S
Zn234 O246 1.898 1_445 S
Zn234 O249 1.905 . S
Zn235 O243 1.905 1_445 S
Zn235 O244 1.898 . S
Zn235 O252 1.920 1_455 S
Zn236 O239 2.080 . S
Zn236 O242 2.114 1_545 S
Zn236 O245 2.120 . S
Zn236 O247 2.120 1_445 S
Zn236 O248 2.114 . S
Zn236 O251 2.080 1_455 S
C237 O242 1.166 . S
C237 O243 1.182 1_455 S
C238 O244 1.167 . S
C238 O245 1.299 . S
O239 Zn236 2.080 . S
O239 C253 1.305 1_455 S
O240 Zn234 1.920 1_655 S
O240 C253 1.234 . S
C241 O246 1.167 . S
C241 O247 1.299 . S
O242 Zn236 2.114 1_565 S
O242 C237 1.166 . S
O243 Zn235 1.905 1_665 S
O243 C237 1.182 1_655 S
O244 Zn235 1.898 . S
O244 C238 1.167 . S
O245 Zn236 2.120 . S
O245 C238 1.299 . S
O246 Zn234 1.898 1_665 S
O246 C241 1.167 . S
O247 Zn236 2.120 1_665 S
O247 C241 1.299 . S
O248 Zn236 2.114 . S
O248 C250 1.166 . S
O249 Zn234 1.905 . S
O249 C250 1.182 . S
C250 O248 1.166 . S
C250 O249 1.182 . S
O251 Zn236 2.080 1_655 S
O251 C254 1.305 . S
O252 Zn235 1.920 1_655 S
O252 C254 1.234 . S
C253 O239 1.305 1_655 S
C253 O240 1.234 . S
C254 O251 1.305 . S
C254 O252 1.234 . S
Zn255 O261 1.920 1_545 S
Zn255 O267 1.898 . S
Zn255 O270 1.897 1_455 S
Zn256 O264 1.905 . S
Zn256 O265 1.898 1_445 S
Zn256 O273 1.920 1_545 S
Zn257 O260 2.080 1_545 S
Zn257 O263 2.114 . S
Zn257 O266 2.120 1_445 S
Zn257 O268 2.120 . S
Zn257 O269 2.114 1_455 S
Zn257 O272 2.080 . S
C258 O263 1.166 . S
C258 O264 1.182 . S
C259 O265 1.167 . S
C259 O266 1.299 . S
O260 Zn257 2.080 1_565 S
O260 C274 1.305 . S
O261 Zn255 1.920 1_565 S
O261 C274 1.234 . S
C262 O267 1.167 . S
C262 O268 1.299 . S
O263 Zn257 2.114 . S
O263 C258 1.166 . S
O264 Zn256 1.905 . S
O264 C258 1.182 . S
O265 Zn256 1.898 1_665 S
O265 C259 1.167 . S
O266 Zn257 2.120 1_665 S
O266 C259 1.299 . S
O267 Zn255 1.898 . S
O267 C262 1.167 . S
O268 Zn257 2.120 . S
O268 C262 1.299 . S
O269 Zn257 2.114 1_655 S
O269 C271 1.166 . S
O270 Zn255 1.897 1_655 S
O270 C271 1.193 . S
C271 O269 1.166 . S
C271 O270 1.193 . S
O272 Zn257 2.080 . S
O272 C275 1.315 . S
O273 Zn256 1.920 1_565 S
O273 C275 1.236 1_565 S
C274 O260 1.305 . S
C274 O261 1.234 . S
C275 O272 1.315 . S
C275 O273 1.236 1_545 S
Zn276 O282 1.920 1_545 S
Zn276 O288 1.898 . S
Zn276 O291 1.904 1_455 S
Zn277 O285 1.905 . S
Zn277 O286 1.898 1_445 S
Zn277 O294 1.920 . S
Zn278 O281 2.080 1_545 S
Zn278 O284 2.114 . S
Zn278 O287 2.120 1_445 S
Zn278 O289 2.120 . S
Zn278 O290 2.114 1_455 S
Zn278 O293 2.080 . S
C279 O284 1.166 . S
C279 O285 1.182 . S
C280 O286 1.167 . S
C280 O287 1.299 . S
O281 Zn278 2.080 1_565 S
O281 C295 1.305 . S
O282 Zn276 1.920 1_565 S
O282 C295 1.234 . S
C283 O288 1.167 . S
C283 O289 1.299 . S
O284 Zn278 2.114 . S
O284 C279 1.166 . S
O285 Zn277 1.905 . S
O285 C279 1.182 . S
O286 Zn277 1.898 1_665 S
O286 C280 1.167 . S
O287 Zn278 2.120 1_665 S
O287 C280 1.299 . S
O288 Zn276 1.898 . S
O288 C283 1.167 . S
O289 Zn278 2.120 . S
O289 C283 1.299 . S
O290 Zn278 2.114 1_655 S
O290 C292 1.166 . S
O291 Zn276 1.904 1_655 S
O291 C292 1.184 . S
C292 O290 1.166 . S
C292 O291 1.184 . S
O293 Zn278 2.080 . S
O293 C296 1.305 . S
O294 Zn277 1.920 . S
O294 C296 1.234 . S
C295 O281 1.305 . S
C295 O282 1.234 . S
C296 O293 1.305 . S
C296 O294 1.234 . S
Zn297 O303 1.920 . S
Zn297 O309 1.898 1_445 S
Zn297 O312 1.905 . S
Zn298 O306 1.905 1_445 S
Zn298 O307 1.898 . S
Zn298 O315 1.920 1_455 S
Zn299 O302 2.080 . S
Zn299 O305 2.114 1_545 S
Zn299 O308 2.120 . S
Zn299 O310 2.120 1_445 S
Zn299 O311 2.114 . S
Zn299 O314 2.080 1_455 S
C300 O305 1.166 . S
C300 O306 1.182 1_455 S
C301 O307 1.167 . S
C301 O308 1.299 . S
O302 Zn299 2.080 . S
O302 C316 1.305 . S
O303 Zn297 1.920 . S
O303 C316 1.234 . S
C304 O309 1.167 . S
C304 O310 1.299 . S
O305 Zn299 2.114 1_565 S
O305 C300 1.166 . S
O306 Zn298 1.905 1_665 S
O306 C300 1.182 1_655 S
O307 Zn298 1.898 . S
O307 C301 1.167 . S
O308 Zn299 2.120 . S
O308 C301 1.299 . S
O309 Zn297 1.898 1_665 S
O309 C304 1.167 . S
O310 Zn299 2.120 1_665 S
O310 C304 1.299 . S
O311 Zn299 2.114 . S
O311 C313 1.166 . S
O312 Zn297 1.905 . S
O312 C313 1.182 . S
C313 O311 1.166 . S
C313 O312 1.182 . S
O314 Zn299 2.080 1_655 S
O314 C317 1.305 . S
O315 Zn298 1.920 1_655 S
O315 C317 1.234 . S
C316 O302 1.305 . S
C316 O303 1.234 . S
C317 O314 1.305 . S
C317 O315 1.234 . S
Zn318 O324 1.920 . S
Zn318 O330 1.898 . S
Zn318 O333 1.905 . S
Zn319 O327 1.905 . S
Zn319 O328 1.898 . S
Zn319 O336 1.920 . S
Zn320 O323 2.080 . S
Zn320 O326 2.114 . S
Zn320 O329 2.120 . S
Zn320 O331 2.120 . S
Zn320 O332 2.114 . S
Zn320 O335 2.080 . S
C321 O326 1.166 . S
C321 O327 1.182 . S
C322 O328 1.167 . S
C322 O329 1.299 . S
O323 Zn320 2.080 . S
O323 C337 1.305 . S
O324 Zn318 1.920 . S
O324 C337 1.234 . S
C325 O330 1.167 . S
C325 O331 1.299 . S
O326 Zn320 2.114 . S
O326 C321 1.166 . S
O327 Zn319 1.905 . S
O327 C321 1.182 . S
O328 Zn319 1.898 . S
O328 C322 1.167 . S
O329 Zn320 2.120 . S
O329 C322 1.299 . S
O330 Zn318 1.898 . S
O330 C325 1.167 . S
O331 Zn320 2.120 . S
O331 C325 1.299 . S
O332 Zn320 2.114 . S
O332 C334 1.166 . S
O333 Zn318 1.905 . S
O333 C334 1.182 . S
C334 O332 1.166 . S
C334 O333 1.182 . S
O335 Zn320 2.080 . S
O335 C338 1.305 . S
O336 Zn319 1.920 . S
O336 C338 1.234 . S
C337 O323 1.305 . S
C337 O324 1.234 . S
C338 O335 1.305 . S
C338 O336 1.234 . S
Zn339 O345 1.920 . S
Zn339 O351 1.898 . S
Zn339 O354 1.905 . S
Zn340 O348 1.905 . S
Zn340 O349 1.898 . S
Zn340 O357 1.920 . S
Zn341 O344 2.080 . S
Zn341 O347 2.114 . S
Zn341 O350 2.120 . S
Zn341 O352 2.120 . S
Zn341 O353 2.114 . S
Zn341 O356 2.080 . S
C342 O347 1.166 . S
C342 O348 1.182 . S
C343 O349 1.167 . S
C343 O350 1.299 . S
O344 Zn341 2.080 . S
O344 C358 1.305 . S
O345 Zn339 1.920 . S
O345 C358 1.234 . S
C346 O351 1.167 . S
C346 O352 1.299 . S
O347 Zn341 2.114 . S
O347 C342 1.166 . S
O348 Zn340 1.905 . S
O348 C342 1.182 . S
O349 Zn340 1.898 . S
O349 C343 1.167 . S
O350 Zn341 2.120 . S
O350 C343 1.299 . S
O351 Zn339 1.898 . S
O351 C346 1.167 . S
O352 Zn341 2.120 . S
O352 C346 1.299 . S
O353 Zn341 2.114 . S
O353 C355 1.166 . S
O354 Zn339 1.905 . S
O354 C355 1.182 . S
C355 O353 1.166 . S
C355 O354 1.182 . S
O356 Zn341 2.080 . S
O356 C359 1.305 . S
O357 Zn340 1.920 . S
O357 C359 1.234 . S
C358 O344 1.305 . S
C358 O345 1.234 . S
C359 O356 1.305 . S
C359 O357 1.234 . S
Zn360 O366 1.920 . S
Zn360 O372 1.898 . S
Zn360 O375 1.905 . S
Zn361 O369 1.905 . S
Zn361 O370 1.898 . S
Zn361 O378 1.920 . S
Zn362 O365 2.080 . S
Zn362 O368 2.114 . S
Zn362 O371 2.120 . S
Zn362 O373 2.120 . S
Zn362 O374 2.114 . S
Zn362 O377 2.080 . S
C363 O368 1.166 . S
C363 O369 1.182 . S
C364 O370 1.167 . S
C364 O371 1.299 . S
O365 Zn362 2.080 . S
O365 C379 1.305 . S
O366 Zn360 1.920 . S
O366 C379 1.234 . S
C367 O372 1.167 . S
C367 O373 1.299 . S
O368 Zn362 2.114 . S
O368 C363 1.166 . S
O369 Zn361 1.905 . S
O369 C363 1.182 . S
O370 Zn361 1.898 . S
O370 C364 1.167 . S
O371 Zn362 2.120 . S
O371 C364 1.299 . S
O372 Zn360 1.898 . S
O372 C367 1.167 . S
O373 Zn362 2.120 . S
O373 C367 1.299 . S
O374 Zn362 2.114 . S
O374 C376 1.166 . S
O375 Zn360 1.905 . S
O375 C376 1.182 . S
C376 O374 1.166 . S
C376 O375 1.182 . S
O377 Zn362 2.080 . S
O377 C380 1.305 . S
O378 Zn361 1.920 . S
O378 C380 1.234 . S
C379 O365 1.305 . S
C379 O366 1.234 . S
C380 O377 1.305 . S
C380 O378 1.234 . S
Zn381 O387 1.920 . S
Zn381 O393 1.898 . S
Zn381 O396 1.905 . S
Zn382 O390 1.905 . S
Zn382 O391 1.898 . S
Zn382 O399 1.920 . S
Zn383 O386 2.080 . S
Zn383 O389 2.114 . S
Zn383 O392 2.120 . S
Zn383 O394 2.120 . S
Zn383 O395 2.114 . S
Zn383 O398 2.080 . S
C384 O389 1.166 . S
C384 O390 1.182 . S
C385 O391 1.167 . S
C385 O392 1.299 . S
O386 Zn383 2.080 . S
O386 C400 1.305 1_556 S
O387 Zn381 1.920 . S
O387 C400 1.234 . S
C388 O393 1.167 . S
C388 O394 1.299 1_554 S
O389 Zn383 2.114 . S
O389 C384 1.166 . S
O390 Zn382 1.905 . S
O390 C384 1.182 . S
O391 Zn382 1.898 . S
O391 C385 1.167 . S
O392 Zn383 2.120 . S
O392 C385 1.299 . S
O393 Zn381 1.898 . S
O393 C388 1.167 . S
O394 Zn383 2.120 . S
O394 C388 1.299 1_556 S
O395 Zn383 2.114 . S
O395 C397 1.166 1_556 S
O396 Zn381 1.905 . S
O396 C397 1.182 . S
C397 O395 1.166 1_554 S
C397 O396 1.182 . S
O398 Zn383 2.080 . S
O398 C401 1.305 . S
O399 Zn382 1.920 . S
O399 C401 1.234 . S
C400 O386 1.305 1_554 S
C400 O387 1.234 . S
C401 O398 1.305 . S
C401 O399 1.234 . S
Zn402 O408 1.920 . S
Zn402 O414 1.898 . S
Zn402 O417 1.905 . S
Zn403 O411 1.905 . S
Zn403 O412 1.898 . S
Zn403 O420 1.920 . S
Zn404 O407 2.080 . S
Zn404 O410 2.114 . S
Zn404 O413 2.120 . S
Zn404 O415 2.120 . S
Zn404 O416 2.114 . S
Zn404 O419 2.080 . S
C405 O410 1.166 . S
C405 O411 1.182 . S
C406 O412 1.167 . S
C406 O413 1.299 . S
O407 Zn404 2.080 . S
O407 C421 1.305 . S
O408 Zn402 1.920 . S
O408 C421 1.234 . S
C409 O414 1.167 . S
C409 O415 1.299 . S
O410 Zn404 2.114 . S
O410 C405 1.166 . S
O411 Zn403 1.905 . S
O411 C405 1.182 . S
O412 Zn403 1.898 . S
O412 C406 1.167 . S
O413 Zn404 2.120 . S
O413 C406 1.299 . S
O414 Zn402 1.898 . S
O414 C409 1.167 . S
O415 Zn404 2.120 . S
O415 C409 1.299 . S
O416 Zn404 2.114 . S
O416 C418 1.166 . S
O417 Zn402 1.905 . S
O417 C418 1.182 . S
C418 O416 1.166 . S
C418 O417 1.182 . S
O419 Zn404 2.080 . S
O419 C422 1.305 . S
O420 Zn403 1.920 . S
O420 C422 1.234 . S
C421 O407 1.305 . S
C421 O408 1.234 . S
C422 O419 1.305 . S
C422 O420 1.234 . S
Zn423 O429 1.920 . S
Zn423 O435 1.898 . S
Zn423 O438 1.905 . S
Zn424 O432 1.905 . S
Zn424 O433 1.898 . S
Zn424 O441 1.920 . S
Zn425 O428 2.080 . S
Zn425 O431 2.114 . S
Zn425 O434 2.120 . S
Zn425 O436 2.120 . S
Zn425 O437 2.114 . S
Zn425 O440 2.080 . S
C426 O431 1.166 1_556 S
C426 O432 1.182 . S
C427 O433 1.167 . S
C427 O434 1.299 1_556 S
O428 Zn425 2.080 . S
O428 C442 1.305 . S
O429 Zn423 1.920 . S
O429 C442 1.234 . S
C430 O435 1.167 . S
C430 O436 1.299 . S
O431 Zn425 2.114 . S
O431 C426 1.166 1_554 S
O432 Zn424 1.905 . S
O432 C426 1.182 . S
O433 Zn424 1.898 . S
O433 C427 1.167 . S
O434 Zn425 2.120 . S
O434 C427 1.299 1_554 S
O435 Zn423 1.898 . S
O435 C430 1.167 . S
O436 Zn425 2.120 . S
O436 C430 1.299 . S
O437 Zn425 2.114 . S
O437 C439 1.166 . S
O438 Zn423 1.905 . S
O438 C439 1.182 . S
C439 O437 1.166 . S
C439 O438 1.182 . S
O440 Zn425 2.080 . S
O440 C443 1.305 1_554 S
O441 Zn424 1.920 . S
O441 C443 1.234 . S
C442 O428 1.305 . S
C442 O429 1.234 . S
C443 O440 1.305 1_556 S
C443 O441 1.234 . S
Zn444 O450 1.920 . S
Zn444 O456 1.898 . S
Zn444 O459 1.905 . S
Zn445 O453 1.905 . S
Zn445 O454 1.898 . S
Zn445 O462 1.920 . S
Zn446 O449 2.080 . S
Zn446 O452 2.114 . S
Zn446 O455 2.120 . S
Zn446 O457 2.120 . S
Zn446 O458 2.114 . S
Zn446 O461 2.080 . S
C447 O452 1.166 . S
C447 O453 1.182 . S
C448 O454 1.167 . S
C448 O455 1.299 . S
O449 Zn446 2.080 . S
O449 C463 1.305 . S
O450 Zn444 1.920 . S
O450 C463 1.234 . S
C451 O456 1.167 . S
C451 O457 1.299 . S
O452 Zn446 2.114 . S
O452 C447 1.166 . S
O453 Zn445 1.905 . S
O453 C447 1.182 . S
O454 Zn445 1.898 . S
O454 C448 1.167 . S
O455 Zn446 2.120 . S
O455 C448 1.299 . S
O456 Zn444 1.898 . S
O456 C451 1.167 . S
O457 Zn446 2.120 . S
O457 C451 1.299 . S
O458 Zn446 2.114 . S
O458 C460 1.166 . S
O459 Zn444 1.905 . S
O459 C460 1.182 . S
C460 O458 1.166 . S
C460 O459 1.182 . S
O461 Zn446 2.080 . S
O461 C464 1.305 . S
O462 Zn445 1.920 . S
O462 C464 1.234 . S
C463 O449 1.305 . S
C463 O450 1.234 . S
C464 O461 1.305 . S
C464 O462 1.234 . S
Zn465 O471 1.920 . S
Zn465 O477 1.898 . S
Zn465 O480 1.905 . S
Zn466 O474 1.905 . S
Zn466 O475 1.898 . S
Zn466 O483 1.920 . S
Zn467 O470 2.080 . S
Zn467 O473 2.114 . S
Zn467 O476 2.120 . S
Zn467 O478 2.120 . S
Zn467 O479 2.114 . S
Zn467 O482 2.080 . S
C468 O473 1.166 . S
C468 O474 1.182 . S
C469 O475 1.167 . S
C469 O476 1.299 . S
O470 Zn467 2.080 . S
O470 C484 1.305 . S
O471 Zn465 1.920 . S
O471 C484 1.234 . S
C472 O477 1.167 . S
C472 O478 1.299 . S
O473 Zn467 2.114 . S
O473 C468 1.166 . S
O474 Zn466 1.905 . S
O474 C468 1.182 . S
O475 Zn466 1.898 . S
O475 C469 1.167 . S
O476 Zn467 2.120 . S
O476 C469 1.299 . S
O477 Zn465 1.898 . S
O477 C472 1.167 . S
O478 Zn467 2.120 . S
O478 C472 1.299 . S
O479 Zn467 2.114 . S
O479 C481 1.166 . S
O480 Zn465 1.905 . S
O480 C481 1.182 . S
C481 O479 1.166 . S
C481 O480 1.182 . S
O482 Zn467 2.080 . S
O482 C485 1.305 . S
O483 Zn466 1.920 . S
O483 C485 1.234 . S
C484 O470 1.305 . S
C484 O471 1.234 . S
C485 O482 1.305 . S
C485 O483 1.234 . S
H486 C498 0.930 . S
H487 C500 0.930 . S
H488 C501 0.930 . S
H489 C505 0.959 . S
H490 C505 0.959 . S
H491 C505 0.961 . S
H492 C506 0.960 . S
H493 C506 0.961 . S
H494 C506 0.959 . S
H495 C509 0.929 . S
H496 C510 0.931 . S
H497 C512 0.930 . S
C498 H486 0.930 . S
C498 C499 1.399 . S
C498 C503 1.399 . S
C499 C498 1.399 . S
C499 C500 1.376 . S
C500 H487 0.930 . S
C500 C499 1.376 . S
C500 C501 1.388 . S
C501 H488 0.930 . S
C501 C500 1.388 . S
C501 C502 1.390 . S
C502 C501 1.390 . S
C502 C503 1.394 . S
C502 C508 1.465 . S
C503 C498 1.399 . S
C503 C502 1.394 . S
C503 C504 1.516 . S
C504 C503 1.516 . S
C504 C505 1.502 . S
C504 C506 1.561 . S
C504 C507 1.526 . S
C505 H489 0.959 . S
C505 H490 0.959 . S
C505 H491 0.961 . S
C505 C504 1.502 . S
C506 H492 0.960 . S
C506 H493 0.961 . S
C506 H494 0.959 . S
C506 C504 1.561 . S
C507 C504 1.526 . S
C507 C508 1.396 . S
C507 C512 1.390 . S
C508 C502 1.465 . S
C508 C507 1.396 . S
C508 C509 1.399 . S
C509 H495 0.929 . S
C509 C508 1.399 . S
C509 C510 1.385 . S
C510 H496 0.931 . S
C510 C509 1.385 . S
C510 C511 1.389 . S
C511 C510 1.389 . S
C511 C512 1.387 . S
C512 H497 0.930 . S
C512 C507 1.390 . S
C512 C511 1.387 . S
H513 C525 0.930 . S
H514 C527 0.930 . S
H515 C528 0.930 . S
H516 C532 0.959 . S
H517 C532 0.959 . S
H518 C532 0.961 . S
H519 C533 0.960 . S
H520 C533 0.961 . S
H521 C533 0.959 . S
H522 C536 0.929 . S
H523 C537 0.931 . S
H524 C539 0.930 . S
C525 H513 0.930 . S
C525 C526 1.383 1_545 S
C525 C530 1.399 . S
C526 C525 1.383 1_565 S
C526 C527 1.404 . S
C527 H514 0.930 . S
C527 C526 1.404 . S
C527 C528 1.388 . S
C528 H515 0.930 . S
C528 C527 1.388 . S
C528 C529 1.390 . S
C529 C528 1.390 . S
C529 C530 1.394 1_565 S
C529 C535 1.465 1_565 S
C530 C525 1.399 . S
C530 C529 1.394 1_545 S
C530 C531 1.516 . S
C531 C530 1.516 . S
C531 C532 1.502 . S
C531 C533 1.561 . S
C531 C534 1.526 . S
C532 H516 0.959 . S
C532 H517 0.959 . S
C532 H518 0.961 . S
C532 C531 1.502 . S
C533 H519 0.960 . S
C533 H520 0.961 . S
C533 H521 0.959 . S
C533 C531 1.561 . S
C534 C531 1.526 . S
C534 C535 1.396 . S
C534 C539 1.390 . S
C535 C529 1.465 1_545 S
C535 C534 1.396 . S
C535 C536 1.399 1_545 S
C536 H522 0.929 . S
C536 C535 1.399 1_565 S
C536 C537 1.385 . S
C537 H523 0.931 . S
C537 C536 1.385 . S
C537 C538 1.389 1_565 S
C538 C537 1.389 1_545 S
C538 C539 1.387 . S
C539 H524 0.930 . S
C539 C534 1.390 . S
C539 C538 1.387 . S
H540 C552 0.930 . S
H541 C554 0.930 . S
H542 C555 0.930 . S
H543 C559 0.959 . S
H544 C559 0.959 . S
H545 C559 0.961 . S
H546 C560 0.960 . S
H547 C560 0.961 . S
H548 C560 0.959 . S
H549 C563 0.929 . S
H550 C564 0.931 . S
H551 C566 0.930 . S
C552 H540 0.930 . S
C552 C553 1.399 . S
C552 C557 1.399 . S
C553 C552 1.399 . S
C553 C554 1.376 . S
C554 H541 0.930 . S
C554 C553 1.376 . S
C554 C555 1.388 . S
C555 H542 0.930 . S
C555 C554 1.388 . S
C555 C556 1.390 . S
C556 C555 1.390 . S
C556 C557 1.394 . S
C556 C562 1.465 . S
C557 C552 1.399 . S
C557 C556 1.394 . S
C557 C558 1.516 . S
C558 C557 1.516 . S
C558 C559 1.502 1_455 S
C558 C560 1.561 . S
C558 C561 1.526 . S
C559 H543 0.959 . S
C559 H544 0.959 . S
C559 H545 0.961 . S
C559 C558 1.502 1_655 S
C560 H546 0.960 . S
C560 H547 0.961 . S
C560 H548 0.959 . S
C560 C558 1.561 . S
C561 C558 1.526 . S
C561 C562 1.396 . S
C561 C566 1.390 1_455 S
C562 C556 1.465 . S
C562 C561 1.396 . S
C562 C563 1.399 . S
C563 H549 0.929 . S
C563 C562 1.399 . S
C563 C564 1.385 . S
C564 H550 0.931 . S
C564 C563 1.385 . S
C564 C565 1.389 . S
C565 C564 1.389 . S
C565 C566 1.387 1_455 S
C566 H551 0.930 . S
C566 C561 1.390 1_655 S
C566 C565 1.387 1_655 S
H567 C579 0.930 . S
H568 C581 0.930 . S
H569 C582 0.930 . S
H570 C586 0.959 . S
H571 C586 0.959 . S
H572 C586 0.961 . S
H573 C587 0.960 . S
H574 C587 0.961 . S
H575 C587 0.959 . S
H576 C590 0.929 . S
H577 C591 0.931 . S
H578 C593 0.930 . S
C579 H567 0.930 . S
C579 C580 1.399 . S
C579 C584 1.399 . S
C580 C579 1.399 . S
C580 C581 1.376 . S
C581 H568 0.930 . S
C581 C580 1.376 . S
C581 C582 1.388 . S
C582 H569 0.930 . S
C582 C581 1.388 . S
C582 C583 1.390 . S
C583 C582 1.390 . S
C583 C584 1.394 . S
C583 C589 1.465 . S
C584 C579 1.399 . S
C584 C583 1.394 . S
C584 C585 1.516 . S
C585 C584 1.516 . S
C585 C586 1.502 . S
C585 C587 1.561 . S
C585 C588 1.526 . S
C586 H570 0.959 . S
C586 H571 0.959 . S
C586 H572 0.961 . S
C586 C585 1.502 . S
C587 H573 0.960 . S
C587 H574 0.961 . S
C587 H575 0.959 . S
C587 C585 1.561 . S
C588 C585 1.526 . S
C588 C589 1.396 . S
C588 C593 1.390 . S
C589 C583 1.465 . S
C589 C588 1.396 . S
C589 C590 1.399 . S
C590 H576 0.929 . S
C590 C589 1.399 . S
C590 C591 1.385 . S
C591 H577 0.931 . S
C591 C590 1.385 . S
C591 C592 1.389 . S
C592 C591 1.389 . S
C592 C593 1.387 . S
C593 H578 0.930 . S
C593 C588 1.390 . S
C593 C592 1.387 . S
H594 C606 0.930 1_565 S
H595 C608 0.930 . S
H596 C609 0.930 . S
H597 C613 0.959 . S
H598 C613 0.959 . S
H599 C613 0.961 . S
H600 C614 0.960 . S
H601 C614 0.961 . S
H602 C614 0.959 . S
H603 C617 0.929 . S
H604 C618 0.931 . S
H605 C620 0.930 . S
C606 H594 0.930 1_545 S
C606 C607 1.399 . S
C606 C611 1.399 . S
C607 C606 1.399 . S
C607 C608 1.376 . S
C608 H595 0.930 . S
C608 C607 1.376 . S
C608 C609 1.388 . S
C609 H596 0.930 . S
C609 C608 1.388 . S
C609 C610 1.390 . S
C610 C609 1.390 . S
C610 C611 1.394 . S
C610 C616 1.465 . S
C611 C606 1.399 . S
C611 C610 1.394 . S
C611 C612 1.516 1_545 S
C612 C611 1.516 1_565 S
C612 C613 1.502 . S
C612 C614 1.561 . S
C612 C615 1.526 . S
C613 H597 0.959 . S
C613 H598 0.959 . S
C613 H599 0.961 . S
C613 C612 1.502 . S
C614 H600 0.960 . S
C614 H601 0.961 . S
C614 H602 0.959 . S
C614 C612 1.561 . S
C615 C612 1.526 . S
C615 C616 1.396 1_565 S
C615 C620 1.390 . S
C616 C610 1.465 . S
C616 C615 1.396 1_545 S
C616 C617 1.399 . S
C617 H603 0.929 . S
C617 C616 1.399 . S
C617 C618 1.385 . S
C618 H604 0.931 . S
C618 C617 1.385 . S
C618 C619 1.389 . S
C619 C618 1.389 . S
C619 C620 1.387 1_545 S
C620 H605 0.930 . S
C620 C615 1.390 . S
C620 C619 1.387 1_565 S
H621 C633 0.930 . S
H622 C635 0.930 . S
H623 C636 0.930 . S
H624 C640 0.959 . S
H625 C640 0.959 . S
H626 C640 0.961 . S
H627 C641 0.960 . S
H628 C641 0.961 . S
H629 C641 0.959 1_655 S
H630 C644 0.929 . S
H631 C645 0.931 1_655 S
H632 C647 0.930 . S
C633 H621 0.930 . S
C633 C634 1.399 1_455 S
C633 C638 1.399 . S
C634 C633 1.399 1_655 S
C634 C635 1.376 . S
C635 H622 0.930 . S
C635 C634 1.376 . S
C635 C636 1.388 . S
C636 H623 0.930 . S
C636 C635 1.388 . S
C636 C637 1.390 . S
C637 C636 1.390 . S
C637 C638 1.394 1_655 S
C637 C643 1.465 1_655 S
C638 C633 1.399 . S
C638 C637 1.394 1_455 S
C638 C639 1.516 . S
C639 C638 1.516 . S
C639 C640 1.502 . S
C639 C641 1.561 . S
C639 C642 1.526 . S
C640 H624 0.959 . S
C640 H625 0.959 . S
C640 H626 0.961 . S
C640 C639 1.502 . S
C641 H627 0.960 . S
C641 H628 0.961 . S
C641 H629 0.959 1_455 S
C641 C639 1.561 . S
C642 C639 1.526 . S
C642 C643 1.396 . S
C642 C647 1.390 . S
C643 C637 1.465 1_455 S
C643 C642 1.396 . S
C643 C644 1.399 1_455 S
C644 H630 0.929 . S
C644 C643 1.399 1_655 S
C644 C645 1.385 1_655 S
C645 H631 0.931 1_455 S
C645 C644 1.385 1_455 S
C645 C646 1.389 . S
C646 C645 1.389 . S
C646 C647 1.387 . S
C647 H632 0.930 . S
C647 C642 1.390 . S
C647 C646 1.387 . S
H648 C660 0.930 . S
H649 C662 0.930 . S
H650 C663 0.930 . S
H651 C667 0.959 . S
H652 C667 0.959 . S
H653 C667 0.961 . S
H654 C668 0.960 . S
H655 C668 0.961 . S
H656 C668 0.959 . S
H657 C671 0.929 . S
H658 C672 0.931 . S
H659 C674 0.930 . S
C660 H648 0.930 . S
C660 C661 1.399 . S
C660 C665 1.399 . S
C661 C660 1.399 . S
C661 C662 1.376 . S
C662 H649 0.930 . S
C662 C661 1.376 . S
C662 C663 1.388 . S
C663 H650 0.930 . S
C663 C662 1.388 . S
C663 C664 1.390 . S
C664 C663 1.390 . S
C664 C665 1.394 . S
C664 C670 1.465 . S
C665 C660 1.399 . S
C665 C664 1.394 . S
C665 C666 1.516 . S
C666 C665 1.516 . S
C666 C667 1.502 . S
C666 C668 1.561 . S
C666 C669 1.526 . S
C667 H651 0.959 . S
C667 H652 0.959 . S
C667 H653 0.961 . S
C667 C666 1.502 . S
C668 H654 0.960 . S
C668 H655 0.961 . S
C668 H656 0.959 . S
C668 C666 1.561 . S
C669 C666 1.526 . S
C669 C670 1.396 . S
C669 C674 1.390 . S
C670 C664 1.465 . S
C670 C669 1.396 . S
C670 C671 1.399 . S
C671 H657 0.929 . S
C671 C670 1.399 . S
C671 C672 1.385 . S
C672 H658 0.931 . S
C672 C671 1.385 . S
C672 C673 1.389 . S
C673 C672 1.389 . S
C673 C674 1.387 . S
C674 H659 0.930 . S
C674 C669 1.390 . S
C674 C673 1.387 . S
H675 C687 0.930 . S
H676 C689 0.930 . S
H677 C690 0.930 . S
H678 C694 0.959 . S
H679 C694 0.959 . S
H680 C694 0.961 . S
H681 C695 0.960 . S
H682 C695 0.961 . S
H683 C695 0.959 . S
H684 C698 0.929 . S
H685 C699 0.931 . S
H686 C701 0.930 . S
C687 H675 0.930 . S
C687 C688 1.399 . S
C687 C692 1.399 . S
C688 C687 1.399 . S
C688 C689 1.376 1_545 S
C689 H676 0.930 . S
C689 C688 1.376 1_565 S
C689 C690 1.388 . S
C690 H677 0.930 . S
C690 C689 1.388 . S
C690 C691 1.390 1_565 S
C691 C690 1.390 1_545 S
C691 C692 1.394 . S
C691 C697 1.465 . S
C692 C687 1.399 . S
C692 C691 1.394 . S
C692 C693 1.516 . S
C693 C692 1.516 . S
C693 C694 1.502 . S
C693 C695 1.561 . S
C693 C696 1.526 . S
C694 H678 0.959 . S
C694 H679 0.959 . S
C694 H680 0.961 . S
C694 C693 1.502 . S
C695 H681 0.960 . S
C695 H682 0.961 . S
C695 H683 0.959 . S
C695 C693 1.561 . S
C696 C693 1.526 . S
C696 C697 1.396 . S
C696 C701 1.390 . S
C697 C691 1.465 . S
C697 C696 1.396 . S
C697 C698 1.399 1_545 S
C698 H684 0.929 . S
C698 C697 1.399 1_565 S
C698 C699 1.385 . S
C699 H685 0.931 . S
C699 C698 1.385 . S
C699 C700 1.389 1_565 S
C700 C699 1.389 1_545 S
C700 C701 1.387 . S
C701 H686 0.930 . S
C701 C696 1.390 . S
C701 C700 1.387 . S
H702 C714 0.930 . S
H703 C716 0.930 . S
H704 C717 0.930 . S
H705 C721 0.959 . S
H706 C721 0.959 1_655 S
H707 C721 0.961 1_655 S
H708 C722 0.960 . S
H709 C722 0.961 . S
H710 C722 0.959 . S
H711 C725 0.929 . S
H712 C726 0.931 . S
H713 C728 0.930 . S
C714 H702 0.930 . S
C714 C715 1.399 1_655 S
C714 C719 1.399 1_655 S
C715 C714 1.399 1_455 S
C715 C716 1.376 . S
C716 H703 0.930 . S
C716 C715 1.376 . S
C716 C717 1.388 . S
C717 H704 0.930 . S
C717 C716 1.388 . S
C717 C718 1.390 . S
C718 C717 1.390 . S
C718 C719 1.394 . S
C718 C724 1.465 . S
C719 C714 1.399 1_455 S
C719 C718 1.394 . S
C719 C720 1.516 1_455 S
C720 C719 1.516 1_655 S
C720 C721 1.502 1_655 S
C720 C722 1.561 . S
C720 C723 1.526 1_655 S
C721 H705 0.959 . S
C721 H706 0.959 1_455 S
C721 H707 0.961 1_455 S
C721 C720 1.502 1_455 S
C722 H708 0.960 . S
C722 H709 0.961 . S
C722 H710 0.959 . S
C722 C720 1.561 . S
C723 C720 1.526 1_455 S
C723 C724 1.396 . S
C723 C728 1.390 . S
C724 C718 1.465 . S
C724 C723 1.396 . S
C724 C725 1.399 . S
C725 H711 0.929 . S
C725 C724 1.399 . S
C725 C726 1.385 . S
C726 H712 0.931 . S
C726 C725 1.385 . S
C726 C727 1.389 . S
C727 C726 1.389 . S
C727 C728 1.387 . S
C728 H713 0.930 . S
C728 C723 1.390 . S
C728 C727 1.387 . S
H729 C741 0.930 . S
H730 C743 0.930 . S
H731 C744 0.930 . S
H732 C748 0.959 . S
H733 C748 0.959 . S
H734 C748 0.961 . S
H735 C749 0.960 . S
H736 C749 0.961 . S
H737 C749 0.959 . S
H738 C752 0.929 . S
H739 C753 0.931 . S
H740 C755 0.930 . S
C741 H729 0.930 . S
C741 C742 1.399 . S
C741 C746 1.399 . S
C742 C741 1.399 . S
C742 C743 1.376 . S
C743 H730 0.930 . S
C743 C742 1.376 . S
C743 C744 1.388 . S
C744 H731 0.930 . S
C744 C743 1.388 . S
C744 C745 1.390 . S
C745 C744 1.390 . S
C745 C746 1.394 . S
C745 C751 1.465 . S
C746 C741 1.399 . S
C746 C745 1.394 . S
C746 C747 1.516 . S
C747 C746 1.516 . S
C747 C748 1.502 . S
C747 C749 1.561 . S
C747 C750 1.526 . S
C748 H732 0.959 . S
C748 H733 0.959 . S
C748 H734 0.961 . S
C748 C747 1.502 . S
C749 H735 0.960 . S
C749 H736 0.961 . S
C749 H737 0.959 . S
C749 C747 1.561 . S
C750 C747 1.526 . S
C750 C751 1.396 . S
C750 C755 1.390 . S
C751 C745 1.465 . S
C751 C750 1.396 . S
C751 C752 1.399 . S
C752 H738 0.929 . S
C752 C751 1.399 . S
C752 C753 1.385 . S
C753 H739 0.931 . S
C753 C752 1.385 . S
C753 C754 1.389 . S
C754 C753 1.389 . S
C754 C755 1.387 . S
C755 H740 0.930 . S
C755 C750 1.390 . S
C755 C754 1.387 . S
H756 C768 0.930 . S
H757 C770 0.930 . S
H758 C771 0.930 . S
H759 C775 0.959 . S
H760 C775 0.959 . S
H761 C775 0.961 . S
H762 C776 0.960 . S
H763 C776 0.961 . S
H764 C776 0.959 . S
H765 C779 0.929 . S
H766 C780 0.930 1_565 S
H767 C782 0.930 . S
C768 H756 0.930 . S
C768 C769 1.399 . S
C768 C773 1.399 . S
C769 C768 1.399 . S
C769 C770 1.376 1_545 S
C770 H757 0.930 . S
C770 C769 1.376 1_565 S
C770 C771 1.388 . S
C771 H758 0.930 . S
C771 C770 1.388 . S
C771 C772 1.390 1_565 S
C772 C771 1.390 1_545 S
C772 C773 1.394 . S
C772 C778 1.465 . S
C773 C768 1.399 . S
C773 C772 1.394 . S
C773 C774 1.516 . S
C774 C773 1.516 . S
C774 C775 1.502 . S
C774 C776 1.561 . S
C774 C777 1.526 . S
C775 H759 0.959 . S
C775 H760 0.959 . S
C775 H761 0.961 . S
C775 C774 1.502 . S
C776 H762 0.960 . S
C776 H763 0.961 . S
C776 H764 0.959 . S
C776 C774 1.561 . S
C777 C774 1.526 . S
C777 C778 1.396 . S
C777 C782 1.390 . S
C778 C772 1.465 . S
C778 C777 1.396 . S
C778 C779 1.399 1_545 S
C779 H765 0.929 . S
C779 C778 1.399 1_565 S
C779 C780 1.385 1_565 S
C780 H766 0.930 1_545 S
C780 C779 1.385 1_545 S
C780 C781 1.390 . S
C781 C780 1.390 . S
C781 C782 1.387 . S
C782 H767 0.930 . S
C782 C777 1.390 . S
C782 C781 1.387 . S
H783 C795 0.930 . S
H784 C797 0.930 . S
H785 C798 0.930 1_655 S
H786 C802 0.959 . S
H787 C802 0.959 . S
H788 C802 0.961 . S
H789 C803 0.960 1_455 S
H790 C803 0.961 . S
H791 C803 0.959 . S
H792 C806 0.929 . S
H793 C807 0.931 . S
H794 C809 0.930 . S
C795 H783 0.930 . S
C795 C796 1.399 . S
C795 C800 1.399 . S
C796 C795 1.399 . S
C796 C797 1.376 . S
C797 H784 0.930 . S
C797 C796 1.376 . S
C797 C798 1.388 . S
C798 H785 0.930 1_455 S
C798 C797 1.388 . S
C798 C799 1.390 . S
C799 C798 1.390 . S
C799 C800 1.394 . S
C799 C805 1.465 . S
C800 C795 1.399 . S
C800 C799 1.394 . S
C800 C801 1.516 . S
C801 C800 1.516 . S
C801 C802 1.502 . S
C801 C803 1.561 1_455 S
C801 C804 1.526 . S
C802 H786 0.959 . S
C802 H787 0.959 . S
C802 H788 0.961 . S
C802 C801 1.502 . S
C803 H789 0.960 1_655 S
C803 H790 0.961 . S
C803 H791 0.959 . S
C803 C801 1.561 1_655 S
C804 C801 1.526 . S
C804 C805 1.396 . S
C804 C809 1.390 . S
C805 C799 1.465 . S
C805 C804 1.396 . S
C805 C806 1.399 1_455 S
C806 H792 0.929 . S
C806 C805 1.399 1_655 S
C806 C807 1.385 . S
C807 H793 0.931 . S
C807 C806 1.385 . S
C807 C808 1.389 1_655 S
C808 C807 1.389 1_455 S
C808 C809 1.387 . S
C809 H794 0.930 . S
C809 C804 1.390 . S
C809 C808 1.387 . S
H810 C822 0.930 . S
H811 C824 0.930 . S
H812 C825 0.930 . S
H813 C829 0.959 . S
H814 C829 0.959 . S
H815 C829 0.961 . S
H816 C830 0.960 . S
H817 C830 0.961 . S
H818 C830 0.959 . S
H819 C833 0.929 . S
H820 C834 0.931 . S
H821 C836 0.930 . S
C822 H810 0.930 . S
C822 C823 1.399 . S
C822 C827 1.399 . S
C823 C822 1.399 . S
C823 C824 1.376 . S
C824 H811 0.930 . S
C824 C823 1.376 . S
C824 C825 1.388 . S
C825 H812 0.930 . S
C825 C824 1.388 . S
C825 C826 1.390 . S
C826 C825 1.390 . S
C826 C827 1.394 . S
C826 C832 1.465 . S
C827 C822 1.399 . S
C827 C826 1.394 . S
C827 C828 1.516 . S
C828 C827 1.516 . S
C828 C829 1.502 . S
C828 C830 1.561 . S
C828 C831 1.526 . S
C829 H813 0.959 . S
C829 H814 0.959 . S
C829 H815 0.961 . S
C829 C828 1.502 . S
C830 H816 0.960 . S
C830 H817 0.961 . S
C830 H818 0.959 . S
C830 C828 1.561 . S
C831 C828 1.526 . S
C831 C832 1.396 . S
C831 C836 1.390 . S
C832 C826 1.465 . S
C832 C831 1.396 . S
C832 C833 1.399 . S
C833 H819 0.929 . S
C833 C832 1.399 . S
C833 C834 1.385 . S
C834 H820 0.931 . S
C834 C833 1.385 . S
C834 C835 1.389 . S
C835 C834 1.389 . S
C835 C836 1.387 . S
C836 H821 0.930 . S
C836 C831 1.390 . S
C836 C835 1.387 . S
H837 C849 0.930 . S
H838 C851 0.930 . S
H839 C852 0.930 . S
H840 C856 0.959 . S
H841 C856 0.959 . S
H842 C856 0.961 . S
H843 C857 0.960 . S
H844 C857 0.961 . S
H845 C857 0.959 . S
H846 C860 0.929 . S
H847 C861 0.931 . S
H848 C863 0.930 . S
C849 H837 0.930 . S
C849 C850 1.399 . S
C849 C854 1.399 . S
C850 C849 1.399 . S
C850 C851 1.376 . S
C851 H838 0.930 . S
C851 C850 1.376 . S
C851 C852 1.388 . S
C852 H839 0.930 . S
C852 C851 1.388 . S
C852 C853 1.390 . S
C853 C852 1.390 . S
C853 C854 1.394 . S
C853 C859 1.465 . S
C854 C849 1.399 . S
C854 C853 1.394 . S
C854 C855 1.516 . S
C855 C854 1.516 . S
C855 C856 1.502 . S
C855 C857 1.561 . S
C855 C858 1.526 . S
C856 H840 0.959 . S
C856 H841 0.959 . S
C856 H842 0.961 . S
C856 C855 1.502 . S
C857 H843 0.960 . S
C857 H844 0.961 . S
C857 H845 0.959 . S
C857 C855 1.561 . S
C858 C855 1.526 . S
C858 C859 1.396 . S
C858 C863 1.390 . S
C859 C853 1.465 . S
C859 C858 1.396 . S
C859 C860 1.399 . S
C860 H846 0.929 . S
C860 C859 1.399 . S
C860 C861 1.385 . S
C861 H847 0.931 . S
C861 C860 1.385 . S
C861 C862 1.389 . S
C862 C861 1.389 . S
C862 C863 1.387 . S
C863 H848 0.930 . S
C863 C858 1.390 . S
C863 C862 1.387 . S
H864 C876 0.930 . S
H865 C878 0.930 . S
H866 C879 0.930 . S
H867 C883 0.959 . S
H868 C883 0.959 . S
H869 C883 0.961 . S
H870 C884 0.960 . S
H871 C884 0.961 . S
H872 C884 0.959 . S
H873 C887 0.929 . S
H874 C888 0.931 . S
H875 C890 0.930 . S
C876 H864 0.930 . S
C876 C877 1.399 . S
C876 C881 1.399 . S
C877 C876 1.399 . S
C877 C878 1.376 . S
C878 H865 0.930 . S
C878 C877 1.376 . S
C878 C879 1.388 . S
C879 H866 0.930 . S
C879 C878 1.388 . S
C879 C880 1.390 . S
C880 C879 1.390 . S
C880 C881 1.394 . S
C880 C886 1.465 . S
C881 C876 1.399 . S
C881 C880 1.394 . S
C881 C882 1.516 . S
C882 C881 1.516 . S
C882 C883 1.502 . S
C882 C884 1.561 . S
C882 C885 1.526 . S
C883 H867 0.959 . S
C883 H868 0.959 . S
C883 H869 0.961 . S
C883 C882 1.502 . S
C884 H870 0.960 . S
C884 H871 0.961 . S
C884 H872 0.959 . S
C884 C882 1.561 . S
C885 C882 1.526 . S
C885 C886 1.396 . S
C885 C890 1.390 . S
C886 C880 1.465 . S
C886 C885 1.396 . S
C886 C887 1.399 . S
C887 H873 0.929 . S
C887 C886 1.399 . S
C887 C888 1.385 . S
C888 H874 0.931 . S
C888 C887 1.385 . S
C888 C889 1.389 . S
C889 C888 1.389 . S
C889 C890 1.387 . S
C890 H875 0.930 . S
C890 C885 1.390 . S
C890 C889 1.387 . S
H891 C903 0.930 . S
H892 C905 0.930 . S
H893 C906 0.930 . S
H894 C910 0.959 . S
H895 C910 0.959 . S
H896 C910 0.961 . S
H897 C911 0.960 . S
H898 C911 0.961 . S
H899 C911 0.959 . S
H900 C914 0.929 . S
H901 C915 0.931 . S
H902 C917 0.930 . S
C903 H891 0.930 . S
C903 C904 1.399 . S
C903 C908 1.399 . S
C904 C903 1.399 . S
C904 C905 1.376 . S
C905 H892 0.930 . S
C905 C904 1.376 . S
C905 C906 1.388 . S
C906 H893 0.930 . S
C906 C905 1.388 . S
C906 C907 1.390 . S
C907 C906 1.390 . S
C907 C908 1.394 . S
C907 C913 1.465 . S
C908 C903 1.399 . S
C908 C907 1.394 . S
C908 C909 1.516 . S
C909 C908 1.516 . S
C909 C910 1.502 . S
C909 C911 1.561 . S
C909 C912 1.526 . S
C910 H894 0.959 . S
C910 H895 0.959 . S
C910 H896 0.961 . S
C910 C909 1.502 . S
C911 H897 0.960 . S
C911 H898 0.961 . S
C911 H899 0.959 . S
C911 C909 1.561 . S
C912 C909 1.526 . S
C912 C913 1.396 . S
C912 C917 1.390 . S
C913 C907 1.465 . S
C913 C912 1.396 . S
C913 C914 1.399 . S
C914 H900 0.929 . S
C914 C913 1.399 . S
C914 C915 1.385 . S
C915 H901 0.931 . S
C915 C914 1.385 . S
C915 C916 1.389 . S
C916 C915 1.389 . S
C916 C917 1.387 . S
C917 H902 0.930 . S
C917 C912 1.390 . S
C917 C916 1.387 . S
H918 C930 0.930 . S
H919 C932 0.930 . S
H920 C933 0.930 . S
H921 C937 0.959 . S
H922 C937 0.959 . S
H923 C937 0.961 . S
H924 C938 0.960 . S
H925 C938 0.961 . S
H926 C938 0.959 . S
H927 C941 0.929 . S
H928 C942 0.931 . S
H929 C944 0.930 . S
C930 H918 0.930 . S
C930 C931 1.399 . S
C930 C935 1.399 . S
C931 C930 1.399 . S
C931 C932 1.376 . S
C932 H919 0.930 . S
C932 C931 1.376 . S
C932 C933 1.388 . S
C933 H920 0.930 . S
C933 C932 1.388 . S
C933 C934 1.390 . S
C934 C933 1.390 . S
C934 C935 1.394 . S
C934 C940 1.465 . S
C935 C930 1.399 . S
C935 C934 1.394 . S
C935 C936 1.516 . S
C936 C935 1.516 . S
C936 C937 1.502 . S
C936 C938 1.561 . S
C936 C939 1.526 . S
C937 H921 0.959 . S
C937 H922 0.959 . S
C937 H923 0.961 . S
C937 C936 1.502 . S
C938 H924 0.960 . S
C938 H925 0.961 . S
C938 H926 0.959 . S
C938 C936 1.561 . S
C939 C936 1.526 . S
C939 C940 1.396 . S
C939 C944 1.390 . S
C940 C934 1.465 . S
C940 C939 1.396 . S
C940 C941 1.399 . S
C941 H927 0.929 . S
C941 C940 1.399 . S
C941 C942 1.385 . S
C942 H928 0.931 . S
C942 C941 1.385 . S
C942 C943 1.389 . S
C943 C942 1.389 . S
C943 C944 1.387 . S
C944 H929 0.930 . S
C944 C939 1.390 . S
C944 C943 1.387 . S
H945 C957 0.930 . S
H946 C959 0.930 . S
H947 C960 0.930 . S
H948 C964 0.959 . S
H949 C964 0.959 . S
H950 C964 0.961 . S
H951 C965 0.960 . S
H952 C965 0.961 . S
H953 C965 0.959 . S
H954 C968 0.929 . S
H955 C969 0.931 . S
H956 C971 0.930 . S
C957 H945 0.930 . S
C957 C958 1.399 . S
C957 C962 1.399 . S
C958 C957 1.399 . S
C958 C959 1.376 . S
C959 H946 0.930 . S
C959 C958 1.376 . S
C959 C960 1.388 . S
C960 H947 0.930 . S
C960 C959 1.388 . S
C960 C961 1.390 . S
C961 C960 1.390 . S
C961 C962 1.394 . S
C961 C967 1.465 . S
C962 C957 1.399 . S
C962 C961 1.394 . S
C962 C963 1.516 . S
C963 C962 1.516 . S
C963 C964 1.502 . S
C963 C965 1.561 . S
C963 C966 1.526 . S
C964 H948 0.959 . S
C964 H949 0.959 . S
C964 H950 0.961 . S
C964 C963 1.502 . S
C965 H951 0.960 . S
C965 H952 0.961 . S
C965 H953 0.959 . S
C965 C963 1.561 . S
C966 C963 1.526 . S
C966 C967 1.396 . S
C966 C971 1.390 . S
C967 C961 1.465 . S
C967 C966 1.396 . S
C967 C968 1.399 . S
C968 H954 0.929 . S
C968 C967 1.399 . S
C968 C969 1.385 . S
C969 H955 0.931 . S
C969 C968 1.385 . S
C969 C970 1.389 . S
C970 C969 1.389 . S
C970 C971 1.387 . S
C971 H956 0.930 . S
C971 C966 1.390 . S
C971 C970 1.387 . S
H972 C984 0.930 . S
H973 C986 0.930 . S
H974 C987 0.930 . S
H975 C991 0.959 . S
H976 C991 0.959 . S
H977 C991 0.961 . S
H978 C992 0.960 . S
H979 C992 0.961 . S
H980 C992 0.959 . S
H981 C995 0.929 . S
H982 C996 0.931 . S
H983 C998 0.930 . S
C984 H972 0.930 . S
C984 C985 1.399 . S
C984 C989 1.399 . S
C985 C984 1.399 . S
C985 C986 1.376 . S
C986 H973 0.930 . S
C986 C985 1.376 . S
C986 C987 1.388 . S
C987 H974 0.930 . S
C987 C986 1.388 . S
C987 C988 1.390 . S
C988 C987 1.390 . S
C988 C989 1.394 . S
C988 C994 1.465 . S
C989 C984 1.399 . S
C989 C988 1.394 . S
C989 C990 1.516 . S
C990 C989 1.516 . S
C990 C991 1.502 . S
C990 C992 1.561 . S
C990 C993 1.526 . S
C991 H975 0.959 . S
C991 H976 0.959 . S
C991 H977 0.961 . S
C991 C990 1.502 . S
C992 H978 0.960 . S
C992 H979 0.961 . S
C992 H980 0.959 . S
C992 C990 1.561 . S
C993 C990 1.526 . S
C993 C994 1.396 . S
C993 C998 1.390 . S
C994 C988 1.465 . S
C994 C993 1.396 . S
C994 C995 1.399 . S
C995 H981 0.929 . S
C995 C994 1.399 . S
C995 C996 1.385 . S
C996 H982 0.931 . S
C996 C995 1.385 . S
C996 C997 1.389 . S
C997 C996 1.389 . S
C997 C998 1.387 . S
C998 H983 0.930 . S
C998 C993 1.390 . S
C998 C997 1.387 . S
H999 C1011 0.930 . S
H1000 C1013 0.930 . S
H1001 C1014 0.930 . S
H1002 C1018 0.959 . S
H1003 C1018 0.959 . S
H1004 C1018 0.961 . S
H1005 C1019 0.960 . S
H1006 C1019 0.961 . S
H1007 C1019 0.959 . S
H1008 C1022 0.929 . S
H1009 C1023 0.931 . S
H1010 C1025 0.930 . S
C1011 H999 0.930 . S
C1011 C1012 1.399 . S
C1011 C1016 1.399 . S
C1012 C1011 1.399 . S
C1012 C1013 1.376 . S
C1013 H1000 0.930 . S
C1013 C1012 1.376 . S
C1013 C1014 1.388 . S
C1014 H1001 0.930 . S
C1014 C1013 1.388 . S
C1014 C1015 1.390 . S
C1015 C1014 1.390 . S
C1015 C1016 1.394 . S
C1015 C1021 1.465 . S
C1016 C1011 1.399 . S
C1016 C1015 1.394 . S
C1016 C1017 1.516 . S
C1017 C1016 1.516 . S
C1017 C1018 1.502 . S
C1017 C1019 1.561 . S
C1017 C1020 1.526 . S
C1018 H1002 0.959 . S
C1018 H1003 0.959 . S
C1018 H1004 0.961 . S
C1018 C1017 1.502 . S
C1019 H1005 0.960 . S
C1019 H1006 0.961 . S
C1019 H1007 0.959 . S
C1019 C1017 1.561 . S
C1020 C1017 1.526 . S
C1020 C1021 1.396 . S
C1020 C1025 1.390 . S
C1021 C1015 1.465 . S
C1021 C1020 1.396 . S
C1021 C1022 1.399 . S
C1022 H1008 0.929 . S
C1022 C1021 1.399 . S
C1022 C1023 1.385 . S
C1023 H1009 0.931 . S
C1023 C1022 1.385 . S
C1023 C1024 1.389 . S
C1024 C1023 1.389 . S
C1024 C1025 1.387 . S
C1025 H1010 0.930 . S
C1025 C1020 1.390 . S
C1025 C1024 1.387 . S
H1026 C1038 0.930 . S
H1027 C1040 0.930 . S
H1028 C1041 0.930 . S
H1029 C1045 0.959 . S
H1030 C1045 0.959 . S
H1031 C1045 0.961 . S
H1032 C1046 0.960 . S
H1033 C1046 0.961 . S
H1034 C1046 0.959 . S
H1035 C1049 0.929 . S
H1036 C1050 0.931 . S
H1037 C1052 0.930 . S
C1038 H1026 0.930 . S
C1038 C1039 1.399 . S
C1038 C1043 1.399 . S
C1039 C1038 1.399 . S
C1039 C1040 1.376 . S
C1040 H1027 0.930 . S
C1040 C1039 1.376 . S
C1040 C1041 1.388 . S
C1041 H1028 0.930 . S
C1041 C1040 1.388 . S
C1041 C1042 1.390 . S
C1042 C1041 1.390 . S
C1042 C1043 1.394 . S
C1042 C1048 1.465 . S
C1043 C1038 1.399 . S
C1043 C1042 1.394 . S
C1043 C1044 1.516 . S
C1044 C1043 1.516 . S
C1044 C1045 1.502 . S
C1044 C1046 1.561 . S
C1044 C1047 1.526 . S
C1045 H1029 0.959 . S
C1045 H1030 0.959 . S
C1045 H1031 0.961 . S
C1045 C1044 1.502 . S
C1046 H1032 0.960 . S
C1046 H1033 0.961 . S
C1046 H1034 0.959 . S
C1046 C1044 1.561 . S
C1047 C1044 1.526 . S
C1047 C1048 1.396 . S
C1047 C1052 1.390 . S
C1048 C1042 1.465 . S
C1048 C1047 1.396 . S
C1048 C1049 1.399 . S
C1049 H1035 0.929 . S
C1049 C1048 1.399 . S
C1049 C1050 1.385 . S
C1050 H1036 0.931 . S
C1050 C1049 1.385 . S
C1050 C1051 1.389 . S
C1051 C1050 1.389 . S
C1051 C1052 1.387 . S
C1052 H1037 0.930 . S
C1052 C1047 1.390 . S
C1052 C1051 1.387 . S
H1053 C1065 0.930 . S
H1054 C1067 0.930 . S
H1055 C1068 0.930 . S
H1056 C1072 0.959 . S
H1057 C1072 0.959 . S
H1058 C1072 0.961 . S
H1059 C1073 0.960 . S
H1060 C1073 0.961 . S
H1061 C1073 0.959 . S
H1062 C1076 0.929 . S
H1063 C1077 0.877 1_556 S
H1064 C1079 0.930 . S
C1065 H1053 0.930 . S
C1065 C1066 1.399 . S
C1065 C1070 1.399 . S
C1066 C1065 1.399 . S
C1066 C1067 1.376 . S
C1067 H1054 0.930 . S
C1067 C1066 1.376 . S
C1067 C1068 1.388 . S
C1068 H1055 0.930 . S
C1068 C1067 1.388 . S
C1068 C1069 1.390 . S
C1069 C1068 1.390 . S
C1069 C1070 1.394 . S
C1069 C1075 1.465 . S
C1070 C1065 1.399 . S
C1070 C1069 1.394 . S
C1070 C1071 1.516 . S
C1071 C1070 1.516 . S
C1071 C1072 1.502 . S
C1071 C1073 1.561 . S
C1071 C1074 1.526 . S
C1072 H1056 0.959 . S
C1072 H1057 0.959 . S
C1072 H1058 0.961 . S
C1072 C1071 1.502 . S
C1073 H1059 0.960 . S
C1073 H1060 0.961 . S
C1073 H1061 0.959 . S
C1073 C1071 1.561 . S
C1074 C1071 1.526 . S
C1074 C1075 1.396 . S
C1074 C1079 1.390 . S
C1075 C1069 1.465 . S
C1075 C1074 1.396 . S
C1075 C1076 1.399 . S
C1076 H1062 0.929 . S
C1076 C1075 1.399 . S
C1076 C1077 1.430 . S
C1077 H1063 0.877 1_554 S
C1077 C1076 1.430 . S
C1077 C1078 1.401 . S
C1078 C1077 1.401 . S
C1078 C1079 1.387 . S
C1079 H1064 0.930 . S
C1079 C1074 1.390 . S
C1079 C1078 1.387 . S
H1080 C1092 0.930 . S
H1081 C1094 0.930 . S
H1082 C1095 0.930 . S
H1083 C1099 0.959 . S
H1084 C1099 0.959 . S
H1085 C1099 0.961 . S
H1086 C1100 0.960 . S
H1087 C1100 0.961 . S
H1088 C1100 0.959 . S
H1089 C1103 0.929 . S
H1090 C1104 0.927 1_556 S
H1091 C1106 0.930 . S
C1092 H1080 0.930 . S
C1092 C1093 1.399 . S
C1092 C1097 1.399 . S
C1093 C1092 1.399 . S
C1093 C1094 1.376 . S
C1094 H1081 0.930 . S
C1094 C1093 1.376 . S
C1094 C1095 1.388 . S
C1095 H1082 0.930 . S
C1095 C1094 1.388 . S
C1095 C1096 1.390 . S
C1096 C1095 1.390 . S
C1096 C1097 1.394 . S
C1096 C1102 1.465 . S
C1097 C1092 1.399 . S
C1097 C1096 1.394 . S
C1097 C1098 1.516 . S
C1098 C1097 1.516 . S
C1098 C1099 1.502 . S
C1098 C1100 1.561 . S
C1098 C1101 1.526 . S
C1099 H1083 0.959 . S
C1099 H1084 0.959 . S
C1099 H1085 0.961 . S
C1099 C1098 1.502 . S
C1100 H1086 0.960 . S
C1100 H1087 0.961 . S
C1100 H1088 0.959 . S
C1100 C1098 1.561 . S
C1101 C1098 1.526 . S
C1101 C1102 1.396 . S
C1101 C1106 1.390 . S
C1102 C1096 1.465 . S
C1102 C1101 1.396 . S
C1102 C1103 1.399 . S
C1103 H1089 0.929 . S
C1103 C1102 1.399 . S
C1103 C1104 1.385 . S
C1104 H1090 0.927 1_554 S
C1104 C1103 1.385 . S
C1104 C1105 1.389 . S
C1105 C1104 1.389 . S
C1105 C1106 1.387 . S
C1106 H1091 0.930 . S
C1106 C1101 1.390 . S
C1106 C1105 1.387 . S
H1107 C1119 0.930 . S
H1108 C1121 0.930 . S
H1109 C1122 0.930 . S
H1110 C1126 0.959 . S
H1111 C1126 1.004 . S
H1112 C1126 0.961 . S
H1113 C1127 0.960 . S
H1114 C1127 0.961 . S
H1115 C1127 0.959 . S
H1116 C1130 0.929 . S
H1117 C1131 0.931 . S
H1118 C1133 0.930 1_556 S
C1119 H1107 0.930 . S
C1119 C1120 1.399 . S
C1119 C1124 1.399 . S
C1120 C1119 1.399 . S
C1120 C1121 1.376 . S
C1121 H1108 0.930 . S
C1121 C1120 1.376 . S
C1121 C1122 1.388 . S
C1122 H1109 0.930 . S
C1122 C1121 1.388 . S
C1122 C1123 1.390 . S
C1123 C1122 1.390 . S
C1123 C1124 1.394 . S
C1123 C1129 1.465 . S
C1124 C1119 1.399 . S
C1124 C1123 1.394 . S
C1124 C1125 1.516 . S
C1125 C1124 1.516 . S
C1125 C1126 1.502 . S
C1125 C1127 1.561 . S
C1125 C1128 1.526 . S
C1126 H1110 0.959 . S
C1126 H1111 1.004 . S
C1126 H1112 0.961 . S
C1126 C1125 1.502 . S
C1127 H1113 0.960 . S
C1127 H1114 0.961 . S
C1127 H1115 0.959 . S
C1127 C1125 1.561 . S
C1128 C1125 1.526 . S
C1128 C1129 1.396 . S
C1128 C1133 1.390 . S
C1129 C1123 1.465 . S
C1129 C1128 1.396 . S
C1129 C1130 1.399 . S
C1130 H1116 0.929 . S
C1130 C1129 1.399 . S
C1130 C1131 1.385 . S
C1131 H1117 0.931 . S
C1131 C1130 1.385 . S
C1131 C1132 1.389 . S
C1132 C1131 1.389 . S
C1132 C1133 1.387 . S
C1133 H1118 0.930 1_554 S
C1133 C1128 1.390 . S
C1133 C1132 1.387 . S
H1134 C1146 0.930 . S
H1135 C1148 0.930 . S
H1136 C1149 0.930 . S
H1137 C1153 0.959 . S
H1138 C1153 0.959 . S
H1139 C1153 0.961 . S
H1140 C1154 0.960 . S
H1141 C1154 0.961 . S
H1142 C1154 0.959 . S
H1143 C1157 0.929 . S
H1144 C1158 0.931 . S
H1145 C1160 0.930 . S
C1146 H1134 0.930 . S
C1146 C1147 1.399 . S
C1146 C1151 1.399 . S
C1147 C1146 1.399 . S
C1147 C1148 1.376 . S
C1148 H1135 0.930 . S
C1148 C1147 1.376 . S
C1148 C1149 1.388 . S
C1149 H1136 0.930 . S
C1149 C1148 1.388 . S
C1149 C1150 1.390 . S
C1150 C1149 1.390 . S
C1150 C1151 1.394 . S
C1150 C1156 1.465 . S
C1151 C1146 1.399 . S
C1151 C1150 1.394 . S
C1151 C1152 1.516 . S
C1152 C1151 1.516 . S
C1152 C1153 1.502 . S
C1152 C1154 1.561 . S
C1152 C1155 1.526 . S
C1153 H1137 0.959 . S
C1153 H1138 0.959 . S
C1153 H1139 0.961 . S
C1153 C1152 1.502 . S
C1154 H1140 0.960 . S
C1154 H1141 0.961 . S
C1154 H1142 0.959 . S
C1154 C1152 1.561 . S
C1155 C1152 1.526 . S
C1155 C1156 1.396 . S
C1155 C1160 1.390 . S
C1156 C1150 1.465 . S
C1156 C1155 1.396 . S
C1156 C1157 1.399 . S
C1157 H1143 0.929 . S
C1157 C1156 1.399 . S
C1157 C1158 1.385 . S
C1158 H1144 0.931 . S
C1158 C1157 1.385 . S
C1158 C1159 1.389 . S
C1159 C1158 1.389 . S
C1159 C1160 1.387 . S
C1160 H1145 0.930 . S
C1160 C1155 1.390 . S
C1160 C1159 1.387 . S
H1161 C1173 0.930 . S
H1162 C1175 0.930 . S
H1163 C1176 0.930 . S
H1164 C1180 0.959 . S
H1165 C1180 0.959 . S
H1166 C1180 0.961 . S
H1167 C1181 0.960 . S
H1168 C1181 0.961 . S
H1169 C1181 0.959 . S
H1170 C1184 0.929 . S
H1171 C1185 0.931 . S
H1172 C1187 0.930 . S
C1173 H1161 0.930 . S
C1173 C1174 1.399 . S
C1173 C1178 1.399 . S
C1174 C1173 1.399 . S
C1174 C1175 1.376 . S
C1175 H1162 0.930 . S
C1175 C1174 1.376 . S
C1175 C1176 1.388 . S
C1176 H1163 0.930 . S
C1176 C1175 1.388 . S
C1176 C1177 1.390 . S
C1177 C1176 1.390 . S
C1177 C1178 1.394 . S
C1177 C1183 1.465 . S
C1178 C1173 1.399 . S
C1178 C1177 1.394 . S
C1178 C1179 1.516 . S
C1179 C1178 1.516 . S
C1179 C1180 1.502 . S
C1179 C1181 1.561 . S
C1179 C1182 1.526 . S
C1180 H1164 0.959 . S
C1180 H1165 0.959 . S
C1180 H1166 0.961 . S
C1180 C1179 1.502 . S
C1181 H1167 0.960 . S
C1181 H1168 0.961 . S
C1181 H1169 0.959 . S
C1181 C1179 1.561 . S
C1182 C1179 1.526 . S
C1182 C1183 1.396 . S
C1182 C1187 1.390 . S
C1183 C1177 1.465 . S
C1183 C1182 1.396 . S
C1183 C1184 1.399 . S
C1184 H1170 0.929 . S
C1184 C1183 1.399 . S
C1184 C1185 1.385 . S
C1185 H1171 0.931 . S
C1185 C1184 1.385 . S
C1185 C1186 1.389 . S
C1186 C1185 1.389 . S
C1186 C1187 1.387 . S
C1187 H1172 0.930 . S
C1187 C1182 1.390 . S
C1187 C1186 1.387 . S
H1188 C1200 0.930 . S
H1189 C1202 0.930 . S
H1190 C1203 0.930 . S
H1191 C1207 0.959 . S
H1192 C1207 0.959 . S
H1193 C1207 0.961 . S
H1194 C1208 0.960 . S
H1195 C1208 0.961 . S
H1196 C1208 0.959 . S
H1197 C1211 0.929 . S
H1198 C1212 0.931 . S
H1199 C1214 0.930 . S
C1200 H1188 0.930 . S
C1200 C1201 1.399 . S
C1200 C1205 1.399 . S
C1201 C1200 1.399 . S
C1201 C1202 1.376 . S
C1202 H1189 0.930 . S
C1202 C1201 1.376 . S
C1202 C1203 1.388 . S
C1203 H1190 0.930 . S
C1203 C1202 1.388 . S
C1203 C1204 1.390 . S
C1204 C1203 1.390 . S
C1204 C1205 1.394 . S
C1204 C1210 1.465 . S
C1205 C1200 1.399 . S
C1205 C1204 1.394 . S
C1205 C1206 1.516 . S
C1206 C1205 1.516 . S
C1206 C1207 1.502 . S
C1206 C1208 1.561 . S
C1206 C1209 1.526 . S
C1207 H1191 0.959 . S
C1207 H1192 0.959 . S
C1207 H1193 0.961 . S
C1207 C1206 1.502 . S
C1208 H1194 0.960 . S
C1208 H1195 0.961 . S
C1208 H1196 0.959 . S
C1208 C1206 1.561 . S
C1209 C1206 1.526 . S
C1209 C1210 1.396 . S
C1209 C1214 1.390 . S
C1210 C1204 1.465 . S
C1210 C1209 1.396 . S
C1210 C1211 1.399 . S
C1211 H1197 0.929 . S
C1211 C1210 1.399 . S
C1211 C1212 1.385 . S
C1212 H1198 0.931 . S
C1212 C1211 1.385 . S
C1212 C1213 1.389 . S
C1213 C1212 1.389 . S
C1213 C1214 1.387 . S
C1214 H1199 0.930 . S
C1214 C1209 1.390 . S
C1214 C1213 1.387 . S
H1215 C1227 0.930 . S
H1216 C1229 0.930 . S
H1217 C1230 0.930 . S
H1218 C1234 0.959 . S
H1219 C1234 0.959 . S
H1220 C1234 0.961 . S
H1221 C1235 0.960 . S
H1222 C1235 0.961 . S
H1223 C1235 0.959 . S
H1224 C1238 0.912 1_554 S
H1225 C1239 0.931 . S
H1226 C1241 0.930 . S
C1227 H1215 0.930 . S
C1227 C1228 1.399 . S
C1227 C1232 1.399 . S
C1228 C1227 1.399 . S
C1228 C1229 1.376 . S
C1229 H1216 0.930 . S
C1229 C1228 1.376 . S
C1229 C1230 1.388 . S
C1230 H1217 0.930 . S
C1230 C1229 1.388 . S
C1230 C1231 1.390 . S
C1231 C1230 1.390 . S
C1231 C1232 1.394 . S
C1231 C1237 1.465 . S
C1232 C1227 1.399 . S
C1232 C1231 1.394 . S
C1232 C1233 1.516 . S
C1233 C1232 1.516 . S
C1233 C1234 1.502 . S
C1233 C1235 1.561 . S
C1233 C1236 1.526 . S
C1234 H1218 0.959 . S
C1234 H1219 0.959 . S
C1234 H1220 0.961 . S
C1234 C1233 1.502 . S
C1235 H1221 0.960 . S
C1235 H1222 0.961 . S
C1235 H1223 0.959 . S
C1235 C1233 1.561 . S
C1236 C1233 1.526 . S
C1236 C1237 1.396 . S
C1236 C1241 1.390 . S
C1237 C1231 1.465 . S
C1237 C1236 1.396 . S
C1237 C1238 1.399 . S
C1238 H1224 0.912 1_556 S
C1238 C1237 1.399 . S
C1238 C1239 1.385 1_556 S
C1239 H1225 0.931 . S
C1239 C1238 1.385 1_554 S
C1239 C1240 1.389 1_554 S
C1240 C1239 1.389 1_556 S
C1240 C1241 1.387 . S
C1241 H1226 0.930 . S
C1241 C1236 1.390 . S
C1241 C1240 1.387 . S
H1242 C1254 0.930 . S
H1243 C1256 0.930 . S
H1244 C1257 0.930 . S
H1245 C1261 0.959 . S
H1246 C1261 0.959 . S
H1247 C1261 0.961 . S
H1248 C1262 0.960 . S
H1249 C1262 0.961 1_554 S
H1250 C1262 0.959 . S
H1251 C1265 0.929 . S
H1252 C1266 0.931 . S
H1253 C1268 0.930 1_554 S
C1254 H1242 0.930 . S
C1254 C1255 1.399 . S
C1254 C1259 1.399 . S
C1255 C1254 1.399 . S
C1255 C1256 1.376 . S
C1256 H1243 0.930 . S
C1256 C1255 1.376 . S
C1256 C1257 1.388 . S
C1257 H1244 0.930 . S
C1257 C1256 1.388 . S
C1257 C1258 1.390 . S
C1258 C1257 1.390 . S
C1258 C1259 1.394 . S
C1258 C1264 1.465 . S
C1259 C1254 1.399 . S
C1259 C1258 1.394 . S
C1259 C1260 1.516 . S
C1260 C1259 1.516 . S
C1260 C1261 1.502 . S
C1260 C1262 1.561 . S
C1260 C1263 1.526 . S
C1261 H1245 0.959 . S
C1261 H1246 0.959 . S
C1261 H1247 0.961 . S
C1261 C1260 1.502 . S
C1262 H1248 0.960 . S
C1262 H1249 0.961 1_556 S
C1262 H1250 0.959 . S
C1262 C1260 1.561 . S
C1263 C1260 1.526 . S
C1263 C1264 1.396 . S
C1263 C1268 1.390 . S
C1264 C1258 1.465 . S
C1264 C1263 1.396 . S
C1264 C1265 1.399 . S
C1265 H1251 0.929 . S
C1265 C1264 1.399 . S
C1265 C1266 1.385 . S
C1266 H1252 0.931 . S
C1266 C1265 1.385 . S
C1266 C1267 1.389 . S
C1267 C1266 1.389 . S
C1267 C1268 1.387 . S
C1268 H1253 0.930 1_556 S
C1268 C1263 1.390 . S
C1268 C1267 1.387 . S
H1269 C1281 0.930 . S
H1270 C1283 0.930 . S
H1271 C1284 0.930 . S
H1272 C1288 0.959 . S
H1273 C1288 0.959 . S
H1274 C1288 0.961 . S
H1275 C1289 0.960 . S
H1276 C1289 0.961 . S
H1277 C1289 0.959 . S
H1278 C1292 0.929 . S
H1279 C1293 0.931 . S
H1280 C1295 0.925 1_554 S
C1281 H1269 0.930 . S
C1281 C1282 1.399 . S
C1281 C1286 1.399 . S
C1282 C1281 1.399 . S
C1282 C1283 1.376 . S
C1283 H1270 0.930 . S
C1283 C1282 1.376 . S
C1283 C1284 1.388 . S
C1284 H1271 0.930 . S
C1284 C1283 1.388 . S
C1284 C1285 1.390 . S
C1285 C1284 1.390 . S
C1285 C1286 1.394 . S
C1285 C1291 1.465 . S
C1286 C1281 1.399 . S
C1286 C1285 1.394 . S
C1286 C1287 1.516 . S
C1287 C1286 1.516 . S
C1287 C1288 1.502 . S
C1287 C1289 1.561 . S
C1287 C1290 1.526 . S
C1288 H1272 0.959 . S
C1288 H1273 0.959 . S
C1288 H1274 0.961 . S
C1288 C1287 1.502 . S
C1289 H1275 0.960 . S
C1289 H1276 0.961 . S
C1289 H1277 0.959 . S
C1289 C1287 1.561 . S
C1290 C1287 1.526 . S
C1290 C1291 1.396 . S
C1290 C1295 1.390 . S
C1291 C1285 1.465 . S
C1291 C1290 1.396 . S
C1291 C1292 1.399 . S
C1292 H1278 0.929 . S
C1292 C1291 1.399 . S
C1292 C1293 1.385 . S
C1293 H1279 0.931 . S
C1293 C1292 1.385 . S
C1293 C1294 1.389 . S
C1294 C1293 1.389 . S
C1294 C1295 1.387 . S
C1295 H1280 0.925 1_556 S
C1295 C1290 1.390 . S
C1295 C1294 1.387 . S
H1296 C1308 0.930 . S
H1297 C1310 0.930 . S
H1298 C1311 0.930 . S
H1299 C1315 0.959 . S
H1300 C1315 0.959 . S
H1301 C1315 0.961 . S
H1302 C1316 0.960 . S
H1303 C1316 0.961 . S
H1304 C1316 0.959 . S
H1305 C1319 0.929 . S
H1306 C1320 0.931 . S
H1307 C1322 0.930 . S
C1308 H1296 0.930 . S
C1308 C1309 1.399 . S
C1308 C1313 1.399 . S
C1309 C1308 1.399 . S
C1309 C1310 1.376 . S
C1310 H1297 0.930 . S
C1310 C1309 1.376 . S
C1310 C1311 1.388 . S
C1311 H1298 0.930 . S
C1311 C1310 1.388 . S
C1311 C1312 1.390 . S
C1312 C1311 1.390 . S
C1312 C1313 1.394 . S
C1312 C1318 1.465 . S
C1313 C1308 1.399 . S
C1313 C1312 1.394 . S
C1313 C1314 1.516 . S
C1314 C1313 1.516 . S
C1314 C1315 1.502 . S
C1314 C1316 1.561 . S
C1314 C1317 1.526 . S
C1315 H1299 0.959 . S
C1315 H1300 0.959 . S
C1315 H1301 0.961 . S
C1315 C1314 1.502 . S
C1316 H1302 0.960 . S
C1316 H1303 0.961 . S
C1316 H1304 0.959 . S
C1316 C1314 1.561 . S
C1317 C1314 1.526 . S
C1317 C1318 1.396 . S
C1317 C1322 1.390 . S
C1318 C1312 1.465 . S
C1318 C1317 1.396 . S
C1318 C1319 1.399 . S
C1319 H1305 0.929 . S
C1319 C1318 1.399 . S
C1319 C1320 1.385 . S
C1320 H1306 0.931 . S
C1320 C1319 1.385 . S
C1320 C1321 1.389 . S
C1321 C1320 1.389 . S
C1321 C1322 1.387 . S
C1322 H1307 0.930 . S
C1322 C1317 1.390 . S
C1322 C1321 1.387 . S
H1323 C1335 0.930 . S
H1324 C1337 0.930 . S
H1325 C1338 0.930 . S
H1326 C1342 0.959 . S
H1327 C1342 0.959 . S
H1328 C1342 0.961 . S
H1329 C1343 0.960 . S
H1330 C1343 0.961 . S
H1331 C1343 0.959 . S
H1332 C1346 0.929 . S
H1333 C1347 0.931 . S
H1334 C1349 0.930 . S
C1335 H1323 0.930 . S
C1335 C1336 1.399 . S
C1335 C1340 1.399 . S
C1336 C1335 1.399 . S
C1336 C1337 1.376 . S
C1337 H1324 0.930 . S
C1337 C1336 1.376 . S
C1337 C1338 1.388 . S
C1338 H1325 0.930 . S
C1338 C1337 1.388 . S
C1338 C1339 1.390 . S
C1339 C1338 1.390 . S
C1339 C1340 1.394 . S
C1339 C1345 1.465 . S
C1340 C1335 1.399 . S
C1340 C1339 1.394 . S
C1340 C1341 1.516 . S
C1341 C1340 1.516 . S
C1341 C1342 1.502 . S
C1341 C1343 1.561 . S
C1341 C1344 1.526 . S
C1342 H1326 0.959 . S
C1342 H1327 0.959 . S
C1342 H1328 0.961 . S
C1342 C1341 1.502 . S
C1343 H1329 0.960 . S
C1343 H1330 0.961 . S
C1343 H1331 0.959 . S
C1343 C1341 1.561 . S
C1344 C1341 1.526 . S
C1344 C1345 1.396 . S
C1344 C1349 1.390 . S
C1345 C1339 1.465 . S
C1345 C1344 1.396 . S
C1345 C1346 1.399 . S
C1346 H1332 0.929 . S
C1346 C1345 1.399 . S
C1346 C1347 1.385 . S
C1347 H1333 0.931 . S
C1347 C1346 1.385 . S
C1347 C1348 1.389 . S
C1348 C1347 1.389 . S
C1348 C1349 1.387 . S
C1349 H1334 0.930 . S
C1349 C1344 1.390 . S
C1349 C1348 1.387 . S
H1350 C1362 0.930 . S
H1351 C1364 0.930 . S
H1352 C1365 0.930 . S
H1353 C1369 0.959 . S
H1354 C1369 0.959 . S
H1355 C1369 0.961 . S
H1356 C1370 0.960 . S
H1357 C1370 0.961 . S
H1358 C1370 0.959 . S
H1359 C1373 0.929 . S
H1360 C1374 0.931 . S
H1361 C1376 0.930 . S
C1362 H1350 0.930 . S
C1362 C1363 1.399 . S
C1362 C1367 1.399 . S
C1363 C1362 1.399 . S
C1363 C1364 1.376 . S
C1364 H1351 0.930 . S
C1364 C1363 1.376 . S
C1364 C1365 1.388 . S
C1365 H1352 0.930 . S
C1365 C1364 1.388 . S
C1365 C1366 1.390 . S
C1366 C1365 1.390 . S
C1366 C1367 1.394 . S
C1366 C1372 1.465 . S
C1367 C1362 1.399 . S
C1367 C1366 1.394 . S
C1367 C1368 1.516 . S
C1368 C1367 1.516 . S
C1368 C1369 1.502 . S
C1368 C1370 1.561 . S
C1368 C1371 1.526 . S
C1369 H1353 0.959 . S
C1369 H1354 0.959 . S
C1369 H1355 0.961 . S
C1369 C1368 1.502 . S
C1370 H1356 0.960 . S
C1370 H1357 0.961 . S
C1370 H1358 0.959 . S
C1370 C1368 1.561 . S
C1371 C1368 1.526 . S
C1371 C1372 1.396 . S
C1371 C1376 1.390 . S
C1372 C1366 1.465 . S
C1372 C1371 1.396 . S
C1372 C1373 1.399 . S
C1373 H1359 0.929 . S
C1373 C1372 1.399 . S
C1373 C1374 1.385 . S
C1374 H1360 0.931 . S
C1374 C1373 1.385 . S
C1374 C1375 1.389 . S
C1375 C1374 1.389 . S
C1375 C1376 1.387 . S
C1376 H1361 0.930 . S
C1376 C1371 1.390 . S
C1376 C1375 1.387 . S
H1377 C1389 0.930 . S
H1378 C1391 0.930 . S
H1379 C1392 0.930 . S
H1380 C1396 0.959 . S
H1381 C1396 0.959 . S
H1382 C1396 0.961 . S
H1383 C1397 0.960 . S
H1384 C1397 0.961 . S
H1385 C1397 0.959 . S
H1386 C1400 0.929 . S
H1387 C1401 0.931 . S
H1388 C1403 0.930 . S
C1389 H1377 0.930 . S
C1389 C1390 1.399 . S
C1389 C1394 1.399 . S
C1390 C1389 1.399 . S
C1390 C1391 1.376 . S
C1391 H1378 0.930 . S
C1391 C1390 1.376 . S
C1391 C1392 1.388 . S
C1392 H1379 0.930 . S
C1392 C1391 1.388 . S
C1392 C1393 1.390 . S
C1393 C1392 1.390 . S
C1393 C1394 1.394 . S
C1393 C1399 1.465 . S
C1394 C1389 1.399 . S
C1394 C1393 1.394 . S
C1394 C1395 1.516 . S
C1395 C1394 1.516 . S
C1395 C1396 1.502 . S
C1395 C1397 1.561 . S
C1395 C1398 1.526 . S
C1396 H1380 0.959 . S
C1396 H1381 0.959 . S
C1396 H1382 0.961 . S
C1396 C1395 1.502 . S
C1397 H1383 0.960 . S
C1397 H1384 0.961 . S
C1397 H1385 0.959 . S
C1397 C1395 1.561 . S
C1398 C1395 1.526 . S
C1398 C1399 1.396 . S
C1398 C1403 1.390 . S
C1399 C1393 1.465 . S
C1399 C1398 1.396 . S
C1399 C1400 1.399 . S
C1400 H1386 0.929 . S
C1400 C1399 1.399 . S
C1400 C1401 1.385 . S
C1401 H1387 0.931 . S
C1401 C1400 1.385 . S
C1401 C1402 1.389 . S
C1402 C1401 1.389 . S
C1402 C1403 1.387 . S
C1403 H1388 0.930 . S
C1403 C1398 1.390 . S
C1403 C1402 1.387 . S
H1404 C1416 0.930 . S
H1405 C1418 0.930 . S
H1406 C1419 0.930 . S
H1407 C1423 0.959 . S
H1408 C1423 0.959 . S
H1409 C1423 0.961 . S
H1410 C1424 0.960 . S
H1411 C1424 0.961 . S
H1412 C1424 0.959 . S
H1413 C1427 0.929 . S
H1414 C1428 0.931 . S
H1415 C1430 0.930 . S
C1416 H1404 0.930 . S
C1416 C1417 1.399 . S
C1416 C1421 1.399 . S
C1417 C1416 1.399 . S
C1417 C1418 1.376 . S
C1418 H1405 0.930 . S
C1418 C1417 1.376 . S
C1418 C1419 1.388 . S
C1419 H1406 0.930 . S
C1419 C1418 1.388 . S
C1419 C1420 1.390 . S
C1420 C1419 1.390 . S
C1420 C1421 1.394 . S
C1420 C1426 1.465 . S
C1421 C1416 1.399 . S
C1421 C1420 1.394 . S
C1421 C1422 1.516 . S
C1422 C1421 1.516 . S
C1422 C1423 1.502 . S
C1422 C1424 1.561 . S
C1422 C1425 1.526 . S
C1423 H1407 0.959 . S
C1423 H1408 0.959 . S
C1423 H1409 0.961 . S
C1423 C1422 1.502 . S
C1424 H1410 0.960 . S
C1424 H1411 0.961 . S
C1424 H1412 0.959 . S
C1424 C1422 1.561 . S
C1425 C1422 1.526 . S
C1425 C1426 1.396 . S
C1425 C1430 1.390 . S
C1426 C1420 1.465 . S
C1426 C1425 1.396 . S
C1426 C1427 1.399 . S
C1427 H1413 0.929 . S
C1427 C1426 1.399 . S
C1427 C1428 1.385 . S
C1428 H1414 0.931 . S
C1428 C1427 1.385 . S
C1428 C1429 1.389 . S
C1429 C1428 1.389 . S
C1429 C1430 1.387 . S
C1430 H1415 0.930 . S
C1430 C1425 1.390 . S
C1430 C1429 1.387 . S
H1431 C1443 0.930 . S
H1432 C1445 0.930 . S
H1433 C1446 0.930 . S
H1434 C1450 0.959 . S
H1435 C1450 0.959 . S
H1436 C1450 0.961 . S
H1437 C1451 0.960 . S
H1438 C1451 0.961 . S
H1439 C1451 0.959 . S
H1440 C1454 0.929 . S
H1441 C1455 0.931 . S
H1442 C1457 0.930 . S
C1443 H1431 0.930 . S
C1443 C1444 1.399 . S
C1443 C1448 1.399 . S
C1444 C1443 1.399 . S
C1444 C1445 1.376 . S
C1445 H1432 0.930 . S
C1445 C1444 1.376 . S
C1445 C1446 1.388 . S
C1446 H1433 0.930 . S
C1446 C1445 1.388 . S
C1446 C1447 1.390 . S
C1447 C1446 1.390 . S
C1447 C1448 1.394 . S
C1447 C1453 1.465 . S
C1448 C1443 1.399 . S
C1448 C1447 1.394 . S
C1448 C1449 1.516 . S
C1449 C1448 1.516 . S
C1449 C1450 1.502 . S
C1449 C1451 1.561 . S
C1449 C1452 1.526 . S
C1450 H1434 0.959 . S
C1450 H1435 0.959 . S
C1450 H1436 0.961 . S
C1450 C1449 1.502 . S
C1451 H1437 0.960 . S
C1451 H1438 0.961 . S
C1451 H1439 0.959 . S
C1451 C1449 1.561 . S
C1452 C1449 1.526 . S
C1452 C1453 1.396 . S
C1452 C1457 1.390 . S
C1453 C1447 1.465 . S
C1453 C1452 1.396 . S
C1453 C1454 1.399 . S
C1454 H1440 0.929 . S
C1454 C1453 1.399 . S
C1454 C1455 1.385 . S
C1455 H1441 0.931 . S
C1455 C1454 1.385 . S
C1455 C1456 1.389 . S
C1456 C1455 1.389 . S
C1456 C1457 1.387 . S
C1457 H1442 0.930 . S
C1457 C1452 1.390 . S
C1457 C1456 1.387 . S
H1458 C1470 0.930 . S
H1459 C1472 0.930 1_565 S
H1460 C1473 0.930 1_565 S
H1461 C1477 0.959 . S
H1462 C1477 0.959 . S
H1463 C1477 0.961 . S
H1464 C1478 0.960 . S
H1465 C1478 0.961 . S
H1466 C1478 0.959 . S
H1467 C1481 0.929 . S
H1468 C1482 0.932 . S
H1469 C1484 0.930 . S
C1470 H1458 0.930 . S
C1470 C1471 1.399 . S
C1470 C1475 1.399 . S
C1471 C1470 1.399 . S
C1471 C1472 1.376 . S
C1472 H1459 0.930 1_545 S
C1472 C1471 1.376 . S
C1472 C1473 1.388 . S
C1473 H1460 0.930 1_545 S
C1473 C1472 1.388 . S
C1473 C1474 1.390 . S
C1474 C1473 1.390 . S
C1474 C1475 1.394 . S
C1474 C1480 1.465 . S
C1475 C1470 1.399 . S
C1475 C1474 1.394 . S
C1475 C1476 1.516 . S
C1476 C1475 1.516 . S
C1476 C1477 1.502 . S
C1476 C1478 1.561 . S
C1476 C1479 1.526 . S
C1477 H1461 0.959 . S
C1477 H1462 0.959 . S
C1477 H1463 0.961 . S
C1477 C1476 1.502 . S
C1478 H1464 0.960 . S
C1478 H1465 0.961 . S
C1478 H1466 0.959 . S
C1478 C1476 1.561 . S
C1479 C1476 1.526 . S
C1479 C1480 1.396 . S
C1479 C1484 1.390 . S
C1480 C1474 1.465 . S
C1480 C1479 1.396 . S
C1480 C1481 1.399 1_545 S
C1481 H1467 0.929 . S
C1481 C1480 1.399 1_565 S
C1481 C1482 1.387 . S
C1482 H1468 0.932 . S
C1482 C1481 1.387 . S
C1482 C1483 1.386 1_565 S
C1483 C1482 1.386 1_545 S
C1483 C1484 1.387 . S
C1484 H1469 0.930 . S
C1484 C1479 1.390 . S
C1484 C1483 1.387 . S
H1485 C1497 0.930 . S
H1486 C1499 0.930 . S
H1487 C1500 0.930 . S
H1488 C1504 0.959 . S
H1489 C1504 0.959 . S
H1490 C1504 0.961 . S
H1491 C1505 0.960 . S
H1492 C1505 0.961 . S
H1493 C1505 0.959 1_455 S
H1494 C1508 0.929 . S
H1495 C1509 0.931 . S
H1496 C1511 0.930 . S
C1497 H1485 0.930 . S
C1497 C1498 1.399 . S
C1497 C1502 1.399 . S
C1498 C1497 1.399 . S
C1498 C1499 1.375 1_655 S
C1499 H1486 0.930 . S
C1499 C1498 1.375 1_455 S
C1499 C1500 1.391 . S
C1500 H1487 0.930 . S
C1500 C1499 1.391 . S
C1500 C1501 1.390 1_455 S
C1501 C1500 1.390 1_655 S
C1501 C1502 1.394 . S
C1501 C1507 1.465 . S
C1502 C1497 1.399 . S
C1502 C1501 1.394 . S
C1502 C1503 1.516 . S
C1503 C1502 1.516 . S
C1503 C1504 1.502 . S
C1503 C1505 1.561 . S
C1503 C1506 1.526 . S
C1504 H1488 0.959 . S
C1504 H1489 0.959 . S
C1504 H1490 0.961 . S
C1504 C1503 1.502 . S
C1505 H1491 0.960 . S
C1505 H1492 0.961 . S
C1505 H1493 0.959 1_655 S
C1505 C1503 1.561 . S
C1506 C1503 1.526 . S
C1506 C1507 1.396 . S
C1506 C1511 1.390 . S
C1507 C1501 1.465 . S
C1507 C1506 1.396 . S
C1507 C1508 1.399 1_655 S
C1508 H1494 0.929 . S
C1508 C1507 1.399 1_455 S
C1508 C1509 1.385 . S
C1509 H1495 0.931 . S
C1509 C1508 1.385 . S
C1509 C1510 1.389 1_455 S
C1510 C1509 1.389 1_655 S
C1510 C1511 1.387 . S
C1511 H1496 0.930 . S
C1511 C1506 1.390 . S
C1511 C1510 1.387 . S
H1512 C1524 0.930 . S
H1513 C1526 0.930 . S
H1514 C1527 0.930 . S
H1515 C1531 0.959 . S
H1516 C1531 0.959 . S
H1517 C1531 0.961 . S
H1518 C1532 0.960 . S
H1519 C1532 0.961 . S
H1520 C1532 0.959 . S
H1521 C1535 0.929 . S
H1522 C1536 0.931 . S
H1523 C1538 0.930 . S
C1524 H1512 0.930 . S
C1524 C1525 1.399 . S
C1524 C1529 1.399 . S
C1525 C1524 1.399 . S
C1525 C1526 1.376 . S
C1526 H1513 0.930 . S
C1526 C1525 1.376 . S
C1526 C1527 1.388 . S
C1527 H1514 0.930 . S
C1527 C1526 1.388 . S
C1527 C1528 1.390 . S
C1528 C1527 1.390 . S
C1528 C1529 1.394 . S
C1528 C1534 1.465 . S
C1529 C1524 1.399 . S
C1529 C1528 1.394 . S
C1529 C1530 1.516 . S
C1530 C1529 1.516 . S
C1530 C1531 1.502 . S
C1530 C1532 1.561 . S
C1530 C1533 1.526 . S
C1531 H1515 0.959 . S
C1531 H1516 0.959 . S
C1531 H1517 0.961 . S
C1531 C1530 1.502 . S
C1532 H1518 0.960 . S
C1532 H1519 0.961 . S
C1532 H1520 0.959 . S
C1532 C1530 1.561 . S
C1533 C1530 1.526 . S
C1533 C1534 1.396 . S
C1533 C1538 1.390 . S
C1534 C1528 1.465 . S
C1534 C1533 1.396 . S
C1534 C1535 1.399 . S
C1535 H1521 0.929 . S
C1535 C1534 1.399 . S
C1535 C1536 1.385 . S
C1536 H1522 0.931 . S
C1536 C1535 1.385 . S
C1536 C1537 1.389 . S
C1537 C1536 1.389 . S
C1537 C1538 1.387 . S
C1538 H1523 0.930 . S
C1538 C1533 1.390 . S
C1538 C1537 1.387 . S
H1539 C1551 0.930 . S
H1540 C1553 0.930 . S
H1541 C1554 0.930 . S
H1542 C1558 0.959 . S
H1543 C1558 0.959 . S
H1544 C1558 0.961 . S
H1545 C1559 0.960 . S
H1546 C1559 0.961 . S
H1547 C1559 0.959 1_655 S
H1548 C1562 0.929 . S
H1549 C1563 0.931 . S
H1550 C1565 0.930 . S
C1551 H1539 0.930 . S
C1551 C1552 1.399 . S
C1551 C1556 1.399 . S
C1552 C1551 1.399 . S
C1552 C1553 1.376 . S
C1553 H1540 0.930 . S
C1553 C1552 1.376 . S
C1553 C1554 1.388 . S
C1554 H1541 0.930 . S
C1554 C1553 1.388 . S
C1554 C1555 1.390 . S
C1555 C1554 1.390 . S
C1555 C1556 1.394 . S
C1555 C1561 1.465 . S
C1556 C1551 1.399 . S
C1556 C1555 1.394 . S
C1556 C1557 1.516 . S
C1557 C1556 1.516 . S
C1557 C1558 1.502 . S
C1557 C1559 1.561 . S
C1557 C1560 1.526 . S
C1558 H1542 0.959 . S
C1558 H1543 0.959 . S
C1558 H1544 0.961 . S
C1558 C1557 1.502 . S
C1559 H1545 0.960 . S
C1559 H1546 0.961 . S
C1559 H1547 0.959 1_455 S
C1559 C1557 1.561 . S
C1560 C1557 1.526 . S
C1560 C1561 1.396 . S
C1560 C1565 1.390 . S
C1561 C1555 1.465 . S
C1561 C1560 1.396 . S
C1561 C1562 1.399 . S
C1562 H1548 0.929 . S
C1562 C1561 1.399 . S
C1562 C1563 1.385 . S
C1563 H1549 0.931 . S
C1563 C1562 1.385 . S
C1563 C1564 1.389 . S
C1564 C1563 1.389 . S
C1564 C1565 1.387 . S
C1565 H1550 0.930 . S
C1565 C1560 1.390 . S
C1565 C1564 1.387 . S
H1566 C1578 0.930 . S
H1567 C1580 0.930 . S
H1568 C1581 0.930 . S
H1569 C1585 0.959 . S
H1570 C1585 0.959 . S
H1571 C1585 0.961 . S
H1572 C1586 0.960 . S
H1573 C1586 0.961 . S
H1574 C1586 0.959 . S
H1575 C1589 0.929 . S
H1576 C1590 0.931 . S
H1577 C1592 0.930 . S
C1578 H1566 0.930 . S
C1578 C1579 1.399 . S
C1578 C1583 1.399 . S
C1579 C1578 1.399 . S
C1579 C1580 1.376 . S
C1580 H1567 0.930 . S
C1580 C1579 1.376 . S
C1580 C1581 1.388 . S
C1581 H1568 0.930 . S
C1581 C1580 1.388 . S
C1581 C1582 1.390 . S
C1582 C1581 1.390 . S
C1582 C1583 1.394 . S
C1582 C1588 1.465 . S
C1583 C1578 1.399 . S
C1583 C1582 1.394 . S
C1583 C1584 1.516 . S
C1584 C1583 1.516 . S
C1584 C1585 1.502 . S
C1584 C1586 1.561 . S
C1584 C1587 1.526 . S
C1585 H1569 0.959 . S
C1585 H1570 0.959 . S
C1585 H1571 0.961 . S
C1585 C1584 1.502 . S
C1586 H1572 0.960 . S
C1586 H1573 0.961 . S
C1586 H1574 0.959 . S
C1586 C1584 1.561 . S
C1587 C1584 1.526 . S
C1587 C1588 1.396 . S
C1587 C1592 1.390 . S
C1588 C1582 1.465 . S
C1588 C1587 1.396 . S
C1588 C1589 1.399 . S
C1589 H1575 0.929 . S
C1589 C1588 1.399 . S
C1589 C1590 1.385 . S
C1590 H1576 0.931 . S
C1590 C1589 1.385 . S
C1590 C1591 1.389 . S
C1591 C1590 1.389 . S
C1591 C1592 1.387 . S
C1592 H1577 0.930 . S
C1592 C1587 1.390 . S
C1592 C1591 1.387 . S
H1593 C1605 0.930 . S
H1594 C1607 0.930 . S
H1595 C1608 0.930 . S
H1596 C1612 0.959 . S
H1597 C1612 0.959 . S
H1598 C1612 0.961 . S
H1599 C1613 0.960 . S
H1600 C1613 0.961 . S
H1601 C1613 0.959 . S
H1602 C1616 0.929 . S
H1603 C1617 0.931 . S
H1604 C1619 0.930 . S
C1605 H1593 0.930 . S
C1605 C1606 1.399 . S
C1605 C1610 1.399 . S
C1606 C1605 1.399 . S
C1606 C1607 1.376 1_565 S
C1607 H1594 0.930 . S
C1607 C1606 1.376 1_545 S
C1607 C1608 1.388 . S
C1608 H1595 0.930 . S
C1608 C1607 1.388 . S
C1608 C1609 1.390 . S
C1609 C1608 1.390 . S
C1609 C1610 1.394 1_545 S
C1609 C1615 1.465 . S
C1610 C1605 1.399 . S
C1610 C1609 1.394 1_565 S
C1610 C1611 1.516 . S
C1611 C1610 1.516 . S
C1611 C1612 1.502 . S
C1611 C1613 1.561 . S
C1611 C1614 1.526 . S
C1612 H1596 0.959 . S
C1612 H1597 0.959 . S
C1612 H1598 0.961 . S
C1612 C1611 1.502 . S
C1613 H1599 0.960 . S
C1613 H1600 0.961 . S
C1613 H1601 0.959 . S
C1613 C1611 1.561 . S
C1614 C1611 1.526 . S
C1614 C1615 1.396 1_565 S
C1614 C1619 1.390 . S
C1615 C1609 1.465 . S
C1615 C1614 1.396 1_545 S
C1615 C1616 1.399 . S
C1616 H1602 0.929 . S
C1616 C1615 1.399 . S
C1616 C1617 1.385 . S
C1617 H1603 0.931 . S
C1617 C1616 1.385 . S
C1617 C1618 1.389 1_545 S
C1618 C1617 1.389 1_565 S
C1618 C1619 1.387 . S
C1619 H1604 0.930 . S
C1619 C1614 1.390 . S
C1619 C1618 1.387 . S
H1620 C1632 0.930 . S
H1621 C1634 0.930 . S
H1622 C1635 0.930 . S
H1623 C1639 0.959 . S
H1624 C1639 0.959 . S
H1625 C1639 0.961 . S
H1626 C1640 0.960 . S
H1627 C1640 0.961 . S
H1628 C1640 0.959 . S
H1629 C1643 0.929 . S
H1630 C1644 0.931 . S
H1631 C1646 0.930 . S
C1632 H1620 0.930 . S
C1632 C1633 1.399 . S
C1632 C1637 1.399 . S
C1633 C1632 1.399 . S
C1633 C1634 1.376 1_565 S
C1634 H1621 0.930 . S
C1634 C1633 1.376 1_545 S
C1634 C1635 1.388 . S
C1635 H1622 0.930 . S
C1635 C1634 1.388 . S
C1635 C1636 1.390 . S
C1636 C1635 1.390 . S
C1636 C1637 1.394 1_545 S
C1636 C1642 1.465 . S
C1637 C1632 1.399 . S
C1637 C1636 1.394 1_565 S
C1637 C1638 1.516 . S
C1638 C1637 1.516 . S
C1638 C1639 1.502 . S
C1638 C1640 1.561 . S
C1638 C1641 1.526 . S
C1639 H1623 0.959 . S
C1639 H1624 0.959 . S
C1639 H1625 0.961 . S
C1639 C1638 1.502 . S
C1640 H1626 0.960 . S
C1640 H1627 0.961 . S
C1640 H1628 0.959 . S
C1640 C1638 1.561 . S
C1641 C1638 1.526 . S
C1641 C1642 1.396 1_565 S
C1641 C1646 1.390 . S
C1642 C1636 1.465 . S
C1642 C1641 1.396 1_545 S
C1642 C1643 1.399 . S
C1643 H1629 0.929 . S
C1643 C1642 1.399 . S
C1643 C1644 1.385 . S
C1644 H1630 0.931 . S
C1644 C1643 1.385 . S
C1644 C1645 1.378 1_545 S
C1645 C1644 1.378 1_565 S
C1645 C1646 1.391 . S
C1646 H1631 0.930 . S
C1646 C1641 1.390 . S
C1646 C1645 1.391 . S
H1647 C1659 0.930 . S
H1648 C1661 0.930 . S
H1649 C1662 0.930 . S
H1650 C1666 0.959 . S
H1651 C1666 0.959 . S
H1652 C1666 0.961 . S
H1653 C1667 0.960 . S
H1654 C1667 0.961 . S
H1655 C1667 0.959 . S
H1656 C1670 0.929 . S
H1657 C1671 0.931 . S
H1658 C1673 0.930 . S
C1659 H1647 0.930 . S
C1659 C1660 1.399 . S
C1659 C1664 1.399 . S
C1660 C1659 1.399 . S
C1660 C1661 1.376 . S
C1661 H1648 0.930 . S
C1661 C1660 1.376 . S
C1661 C1662 1.388 . S
C1662 H1649 0.930 . S
C1662 C1661 1.388 . S
C1662 C1663 1.390 . S
C1663 C1662 1.390 . S
C1663 C1664 1.394 . S
C1663 C1669 1.465 . S
C1664 C1659 1.399 . S
C1664 C1663 1.394 . S
C1664 C1665 1.516 . S
C1665 C1664 1.516 . S
C1665 C1666 1.502 . S
C1665 C1667 1.561 1_455 S
C1665 C1668 1.526 . S
C1666 H1650 0.959 . S
C1666 H1651 0.959 . S
C1666 H1652 0.961 . S
C1666 C1665 1.502 . S
C1667 H1653 0.960 . S
C1667 H1654 0.961 . S
C1667 H1655 0.959 . S
C1667 C1665 1.561 1_655 S
C1668 C1665 1.526 . S
C1668 C1669 1.396 . S
C1668 C1673 1.390 . S
C1669 C1663 1.465 . S
C1669 C1668 1.396 . S
C1669 C1670 1.399 . S
C1670 H1656 0.929 . S
C1670 C1669 1.399 . S
C1670 C1671 1.385 . S
C1671 H1657 0.931 . S
C1671 C1670 1.385 . S
C1671 C1672 1.389 . S
C1672 C1671 1.389 . S
C1672 C1673 1.387 . S
C1673 H1658 0.930 . S
C1673 C1668 1.390 . S
C1673 C1672 1.387 . S
H1674 C1686 0.930 . S
H1675 C1688 0.930 . S
H1676 C1689 0.930 . S
H1677 C1693 0.959 . S
H1678 C1693 0.959 . S
H1679 C1693 0.961 . S
H1680 C1694 0.960 . S
H1681 C1694 0.961 . S
H1682 C1694 0.959 . S
H1683 C1697 0.929 . S
H1684 C1698 0.931 . S
H1685 C1700 0.930 . S
C1686 H1674 0.930 . S
C1686 C1687 1.399 . S
C1686 C1691 1.399 . S
C1687 C1686 1.399 . S
C1687 C1688 1.376 . S
C1688 H1675 0.930 . S
C1688 C1687 1.376 . S
C1688 C1689 1.388 . S
C1689 H1676 0.930 . S
C1689 C1688 1.388 . S
C1689 C1690 1.390 . S
C1690 C1689 1.390 . S
C1690 C1691 1.394 . S
C1690 C1696 1.465 . S
C1691 C1686 1.399 . S
C1691 C1690 1.394 . S
C1691 C1692 1.516 . S
C1692 C1691 1.516 . S
C1692 C1693 1.502 . S
C1692 C1694 1.561 . S
C1692 C1695 1.526 . S
C1693 H1677 0.959 . S
C1693 H1678 0.959 . S
C1693 H1679 0.961 . S
C1693 C1692 1.502 . S
C1694 H1680 0.960 . S
C1694 H1681 0.961 . S
C1694 H1682 0.959 . S
C1694 C1692 1.561 . S
C1695 C1692 1.526 . S
C1695 C1696 1.396 . S
C1695 C1700 1.390 . S
C1696 C1690 1.465 . S
C1696 C1695 1.396 . S
C1696 C1697 1.399 . S
C1697 H1683 0.929 . S
C1697 C1696 1.399 . S
C1697 C1698 1.385 . S
C1698 H1684 0.931 . S
C1698 C1697 1.385 . S
C1698 C1699 1.389 . S
C1699 C1698 1.389 . S
C1699 C1700 1.387 . S
C1700 H1685 0.930 . S
C1700 C1695 1.390 . S
C1700 C1699 1.387 . S
H1701 C1713 0.930 . S
H1702 C1715 0.930 . S
H1703 C1716 0.930 . S
H1704 C1720 0.959 . S
H1705 C1720 0.959 . S
H1706 C1720 0.961 . S
H1707 C1721 0.960 . S
H1708 C1721 0.961 . S
H1709 C1721 0.959 . S
H1710 C1724 0.929 . S
H1711 C1725 0.931 . S
H1712 C1727 0.930 . S
C1713 H1701 0.930 . S
C1713 C1714 1.399 1_455 S
C1713 C1718 1.401 . S
C1714 C1713 1.399 1_655 S
C1714 C1715 1.376 . S
C1715 H1702 0.930 . S
C1715 C1714 1.376 . S
C1715 C1716 1.388 . S
C1716 H1703 0.930 . S
C1716 C1715 1.388 . S
C1716 C1717 1.390 . S
C1717 C1716 1.390 . S
C1717 C1718 1.390 1_655 S
C1717 C1723 1.465 . S
C1718 C1713 1.401 . S
C1718 C1717 1.390 1_455 S
C1718 C1719 1.517 . S
C1719 C1718 1.517 . S
C1719 C1720 1.502 . S
C1719 C1721 1.561 . S
C1719 C1722 1.526 . S
C1720 H1704 0.959 . S
C1720 H1705 0.959 . S
C1720 H1706 0.961 . S
C1720 C1719 1.502 . S
C1721 H1707 0.960 . S
C1721 H1708 0.961 . S
C1721 H1709 0.959 . S
C1721 C1719 1.561 . S
C1722 C1719 1.526 . S
C1722 C1723 1.396 1_455 S
C1722 C1727 1.390 . S
C1723 C1717 1.465 . S
C1723 C1722 1.396 1_655 S
C1723 C1724 1.399 . S
C1724 H1710 0.929 . S
C1724 C1723 1.399 . S
C1724 C1725 1.385 . S
C1725 H1711 0.931 . S
C1725 C1724 1.385 . S
C1725 C1726 1.389 . S
C1726 C1725 1.389 . S
C1726 C1727 1.387 1_655 S
C1727 H1712 0.930 . S
C1727 C1722 1.390 . S
C1727 C1726 1.387 1_455 S
H1728 C1740 0.930 . S
H1729 C1742 0.930 . S
H1730 C1743 0.930 . S
H1731 C1747 0.959 . S
H1732 C1747 0.959 . S
H1733 C1747 0.961 . S
H1734 C1748 0.960 . S
H1735 C1748 0.961 . S
H1736 C1748 0.959 . S
H1737 C1751 0.929 . S
H1738 C1752 0.931 . S
H1739 C1754 0.930 . S
C1740 H1728 0.930 . S
C1740 C1741 1.399 . S
C1740 C1745 1.399 . S
C1741 C1740 1.399 . S
C1741 C1742 1.376 . S
C1742 H1729 0.930 . S
C1742 C1741 1.376 . S
C1742 C1743 1.388 . S
C1743 H1730 0.930 . S
C1743 C1742 1.388 . S
C1743 C1744 1.390 . S
C1744 C1743 1.390 . S
C1744 C1745 1.394 . S
C1744 C1750 1.465 . S
C1745 C1740 1.399 . S
C1745 C1744 1.394 . S
C1745 C1746 1.516 . S
C1746 C1745 1.516 . S
C1746 C1747 1.502 . S
C1746 C1748 1.561 . S
C1746 C1749 1.526 . S
C1747 H1731 0.959 . S
C1747 H1732 0.959 . S
C1747 H1733 0.961 . S
C1747 C1746 1.502 . S
C1748 H1734 0.960 . S
C1748 H1735 0.961 . S
C1748 H1736 0.959 . S
C1748 C1746 1.561 . S
C1749 C1746 1.526 . S
C1749 C1750 1.396 . S
C1749 C1754 1.390 . S
C1750 C1744 1.465 . S
C1750 C1749 1.396 . S
C1750 C1751 1.399 . S
C1751 H1737 0.929 . S
C1751 C1750 1.399 . S
C1751 C1752 1.385 . S
C1752 H1738 0.931 . S
C1752 C1751 1.385 . S
C1752 C1753 1.389 . S
C1753 C1752 1.389 . S
C1753 C1754 1.387 . S
C1754 H1739 0.930 . S
C1754 C1749 1.390 . S
C1754 C1753 1.387 . S
H1755 C1767 0.930 . S
H1756 C1769 0.930 . S
H1757 C1770 0.930 . S
H1758 C1774 0.959 . S
H1759 C1774 0.959 1_565 S
H1760 C1774 0.961 1_565 S
H1761 C1775 0.960 . S
H1762 C1775 0.961 . S
H1763 C1775 0.959 . S
H1764 C1778 0.929 . S
H1765 C1779 0.931 . S
H1766 C1781 0.930 . S
C1767 H1755 0.930 . S
C1767 C1768 1.399 . S
C1767 C1772 1.399 . S
C1768 C1767 1.399 . S
C1768 C1769 1.376 . S
C1769 H1756 0.930 . S
C1769 C1768 1.376 . S
C1769 C1770 1.388 . S
C1770 H1757 0.930 . S
C1770 C1769 1.388 . S
C1770 C1771 1.390 . S
C1771 C1770 1.390 . S
C1771 C1772 1.394 . S
C1771 C1777 1.465 . S
C1772 C1767 1.399 . S
C1772 C1771 1.394 . S
C1772 C1773 1.516 . S
C1773 C1772 1.516 . S
C1773 C1774 1.502 . S
C1773 C1775 1.561 1_545 S
C1773 C1776 1.526 . S
C1774 H1758 0.959 . S
C1774 H1759 0.959 1_545 S
C1774 H1760 0.961 1_545 S
C1774 C1773 1.502 . S
C1775 H1761 0.960 . S
C1775 H1762 0.961 . S
C1775 H1763 0.959 . S
C1775 C1773 1.561 1_565 S
C1776 C1773 1.526 . S
C1776 C1777 1.396 . S
C1776 C1781 1.390 . S
C1777 C1771 1.465 . S
C1777 C1776 1.396 . S
C1777 C1778 1.399 . S
C1778 H1764 0.929 . S
C1778 C1777 1.399 . S
C1778 C1779 1.385 . S
C1779 H1765 0.931 . S
C1779 C1778 1.385 . S
C1779 C1780 1.389 . S
C1780 C1779 1.389 . S
C1780 C1781 1.387 . S
C1781 H1766 0.930 . S
C1781 C1776 1.390 . S
C1781 C1780 1.387 . S
H1782 C1794 0.930 . S
H1783 C1796 0.930 . S
H1784 C1797 0.930 . S
H1785 C1801 0.959 . S
H1786 C1801 0.959 . S
H1787 C1801 0.961 . S
H1788 C1802 0.960 . S
H1789 C1802 0.961 . S
H1790 C1802 0.959 . S
H1791 C1805 0.929 . S
H1792 C1806 0.931 . S
H1793 C1808 0.930 . S
C1794 H1782 0.930 . S
C1794 C1795 1.399 . S
C1794 C1799 1.399 . S
C1795 C1794 1.399 . S
C1795 C1796 1.376 . S
C1796 H1783 0.930 . S
C1796 C1795 1.376 . S
C1796 C1797 1.388 . S
C1797 H1784 0.930 . S
C1797 C1796 1.388 . S
C1797 C1798 1.390 . S
C1798 C1797 1.390 . S
C1798 C1799 1.394 . S
C1798 C1804 1.465 . S
C1799 C1794 1.399 . S
C1799 C1798 1.394 . S
C1799 C1800 1.516 . S
C1800 C1799 1.516 . S
C1800 C1801 1.502 . S
C1800 C1802 1.561 . S
C1800 C1803 1.526 . S
C1801 H1785 0.959 . S
C1801 H1786 0.959 . S
C1801 H1787 0.961 . S
C1801 C1800 1.502 . S
C1802 H1788 0.960 . S
C1802 H1789 0.961 . S
C1802 H1790 0.959 . S
C1802 C1800 1.561 . S
C1803 C1800 1.526 . S
C1803 C1804 1.396 . S
C1803 C1808 1.390 . S
C1804 C1798 1.465 . S
C1804 C1803 1.396 . S
C1804 C1805 1.399 . S
C1805 H1791 0.929 . S
C1805 C1804 1.399 . S
C1805 C1806 1.385 . S
C1806 H1792 0.931 . S
C1806 C1805 1.385 . S
C1806 C1807 1.389 . S
C1807 C1806 1.389 . S
C1807 C1808 1.387 . S
C1808 H1793 0.930 . S
C1808 C1803 1.390 . S
C1808 C1807 1.387 . S
H1809 C1821 0.930 . S
H1810 C1823 0.930 . S
H1811 C1824 0.930 . S
H1812 C1828 0.959 . S
H1813 C1828 0.959 . S
H1814 C1828 0.961 . S
H1815 C1829 0.960 . S
H1816 C1829 0.961 . S
H1817 C1829 0.959 . S
H1818 C1832 0.929 . S
H1819 C1833 0.931 . S
H1820 C1835 0.930 . S
C1821 H1809 0.930 . S
C1821 C1822 1.399 . S
C1821 C1826 1.399 . S
C1822 C1821 1.399 . S
C1822 C1823 1.376 . S
C1823 H1810 0.930 . S
C1823 C1822 1.376 . S
C1823 C1824 1.388 . S
C1824 H1811 0.930 . S
C1824 C1823 1.388 . S
C1824 C1825 1.390 . S
C1825 C1824 1.390 . S
C1825 C1826 1.394 . S
C1825 C1831 1.465 . S
C1826 C1821 1.399 . S
C1826 C1825 1.394 . S
C1826 C1827 1.516 . S
C1827 C1826 1.516 . S
C1827 C1828 1.502 . S
C1827 C1829 1.561 . S
C1827 C1830 1.526 . S
C1828 H1812 0.959 . S
C1828 H1813 0.959 . S
C1828 H1814 0.961 . S
C1828 C1827 1.502 . S
C1829 H1815 0.960 . S
C1829 H1816 0.961 . S
C1829 H1817 0.959 . S
C1829 C1827 1.561 . S
C1830 C1827 1.526 . S
C1830 C1831 1.396 . S
C1830 C1835 1.390 . S
C1831 C1825 1.465 . S
C1831 C1830 1.396 . S
C1831 C1832 1.399 . S
C1832 H1818 0.929 . S
C1832 C1831 1.399 . S
C1832 C1833 1.385 . S
C1833 H1819 0.931 . S
C1833 C1832 1.385 . S
C1833 C1834 1.389 . S
C1834 C1833 1.389 . S
C1834 C1835 1.387 . S
C1835 H1820 0.930 . S
C1835 C1830 1.390 . S
C1835 C1834 1.387 . S
H1836 C1848 0.930 . S
H1837 C1850 0.930 . S
H1838 C1851 0.930 . S
H1839 C1855 0.959 . S
H1840 C1855 0.959 . S
H1841 C1855 0.961 . S
H1842 C1856 0.960 . S
H1843 C1856 0.961 . S
H1844 C1856 0.959 . S
H1845 C1859 0.929 . S
H1846 C1860 0.931 . S
H1847 C1862 0.930 . S
C1848 H1836 0.930 . S
C1848 C1849 1.399 . S
C1848 C1853 1.399 . S
C1849 C1848 1.399 . S
C1849 C1850 1.376 . S
C1850 H1837 0.930 . S
C1850 C1849 1.376 . S
C1850 C1851 1.388 . S
C1851 H1838 0.930 . S
C1851 C1850 1.388 . S
C1851 C1852 1.390 . S
C1852 C1851 1.390 . S
C1852 C1853 1.394 . S
C1852 C1858 1.465 . S
C1853 C1848 1.399 . S
C1853 C1852 1.394 . S
C1853 C1854 1.516 . S
C1854 C1853 1.516 . S
C1854 C1855 1.502 . S
C1854 C1856 1.561 . S
C1854 C1857 1.526 . S
C1855 H1839 0.959 . S
C1855 H1840 0.959 . S
C1855 H1841 0.961 . S
C1855 C1854 1.502 . S
C1856 H1842 0.960 . S
C1856 H1843 0.961 . S
C1856 H1844 0.959 . S
C1856 C1854 1.561 . S
C1857 C1854 1.526 . S
C1857 C1858 1.396 . S
C1857 C1862 1.390 . S
C1858 C1852 1.465 . S
C1858 C1857 1.396 . S
C1858 C1859 1.399 . S
C1859 H1845 0.929 . S
C1859 C1858 1.399 . S
C1859 C1860 1.385 . S
C1860 H1846 0.931 . S
C1860 C1859 1.385 . S
C1860 C1861 1.389 . S
C1861 C1860 1.389 . S
C1861 C1862 1.387 . S
C1862 H1847 0.930 . S
C1862 C1857 1.390 . S
C1862 C1861 1.387 . S
H1863 C1875 0.930 . S
H1864 C1877 0.930 . S
H1865 C1878 0.930 . S
H1866 C1882 0.959 . S
H1867 C1882 0.959 . S
H1868 C1882 0.961 . S
H1869 C1883 0.960 . S
H1870 C1883 0.961 . S
H1871 C1883 0.959 . S
H1872 C1886 0.929 . S
H1873 C1887 0.931 . S
H1874 C1889 0.930 . S
C1875 H1863 0.930 . S
C1875 C1876 1.399 . S
C1875 C1880 1.399 . S
C1876 C1875 1.399 . S
C1876 C1877 1.376 . S
C1877 H1864 0.930 . S
C1877 C1876 1.376 . S
C1877 C1878 1.388 . S
C1878 H1865 0.930 . S
C1878 C1877 1.388 . S
C1878 C1879 1.390 . S
C1879 C1878 1.390 . S
C1879 C1880 1.394 . S
C1879 C1885 1.465 . S
C1880 C1875 1.399 . S
C1880 C1879 1.394 . S
C1880 C1881 1.516 . S
C1881 C1880 1.516 . S
C1881 C1882 1.502 . S
C1881 C1883 1.561 . S
C1881 C1884 1.526 . S
C1882 H1866 0.959 . S
C1882 H1867 0.959 . S
C1882 H1868 0.961 . S
C1882 C1881 1.502 . S
C1883 H1869 0.960 . S
C1883 H1870 0.961 . S
C1883 H1871 0.959 . S
C1883 C1881 1.561 . S
C1884 C1881 1.526 . S
C1884 C1885 1.396 . S
C1884 C1889 1.390 . S
C1885 C1879 1.465 . S
C1885 C1884 1.396 . S
C1885 C1886 1.399 . S
C1886 H1872 0.929 . S
C1886 C1885 1.399 . S
C1886 C1887 1.385 . S
C1887 H1873 0.931 . S
C1887 C1886 1.385 . S
C1887 C1888 1.389 . S
C1888 C1887 1.389 . S
C1888 C1889 1.387 . S
C1889 H1874 0.930 . S
C1889 C1884 1.390 . S
C1889 C1888 1.387 . S
H1890 C1902 0.930 . S
H1891 C1904 0.930 . S
H1892 C1905 0.930 . S
H1893 C1909 0.959 . S
H1894 C1909 0.959 . S
H1895 C1909 0.961 . S
H1896 C1910 0.960 . S
H1897 C1910 0.961 . S
H1898 C1910 0.959 . S
H1899 C1913 0.929 . S
H1900 C1914 0.931 . S
H1901 C1916 0.930 . S
C1902 H1890 0.930 . S
C1902 C1903 1.399 . S
C1902 C1907 1.399 . S
C1903 C1902 1.399 . S
C1903 C1904 1.376 . S
C1904 H1891 0.930 . S
C1904 C1903 1.376 . S
C1904 C1905 1.388 . S
C1905 H1892 0.930 . S
C1905 C1904 1.388 . S
C1905 C1906 1.390 . S
C1906 C1905 1.390 . S
C1906 C1907 1.394 . S
C1906 C1912 1.465 . S
C1907 C1902 1.399 . S
C1907 C1906 1.394 . S
C1907 C1908 1.516 . S
C1908 C1907 1.516 . S
C1908 C1909 1.502 . S
C1908 C1910 1.561 . S
C1908 C1911 1.526 . S
C1909 H1893 0.959 . S
C1909 H1894 0.959 . S
C1909 H1895 0.961 . S
C1909 C1908 1.502 . S
C1910 H1896 0.960 . S
C1910 H1897 0.961 . S
C1910 H1898 0.959 . S
C1910 C1908 1.561 . S
C1911 C1908 1.526 . S
C1911 C1912 1.396 . S
C1911 C1916 1.390 . S
C1912 C1906 1.465 . S
C1912 C1911 1.396 . S
C1912 C1913 1.399 . S
C1913 H1899 0.929 . S
C1913 C1912 1.399 . S
C1913 C1914 1.385 . S
C1914 H1900 0.931 . S
C1914 C1913 1.385 . S
C1914 C1915 1.389 . S
C1915 C1914 1.389 . S
C1915 C1916 1.387 . S
C1916 H1901 0.930 . S
C1916 C1911 1.390 . S
C1916 C1915 1.387 . S
H1917 C1929 0.930 . S
H1918 C1931 0.930 . S
H1919 C1932 0.930 . S
H1920 C1936 0.959 . S
H1921 C1936 0.959 . S
H1922 C1936 0.961 . S
H1923 C1937 0.960 . S
H1924 C1937 0.961 . S
H1925 C1937 0.959 . S
H1926 C1940 0.929 . S
H1927 C1941 0.931 . S
H1928 C1943 0.930 . S
C1929 H1917 0.930 . S
C1929 C1930 1.399 . S
C1929 C1934 1.399 . S
C1930 C1929 1.399 . S
C1930 C1931 1.376 . S
C1931 H1918 0.930 . S
C1931 C1930 1.376 . S
C1931 C1932 1.388 . S
C1932 H1919 0.930 . S
C1932 C1931 1.388 . S
C1932 C1933 1.390 . S
C1933 C1932 1.390 . S
C1933 C1934 1.394 . S
C1933 C1939 1.465 . S
C1934 C1929 1.399 . S
C1934 C1933 1.394 . S
C1934 C1935 1.516 . S
C1935 C1934 1.516 . S
C1935 C1936 1.502 . S
C1935 C1937 1.561 . S
C1935 C1938 1.526 . S
C1936 H1920 0.959 . S
C1936 H1921 0.959 . S
C1936 H1922 0.961 . S
C1936 C1935 1.502 . S
C1937 H1923 0.960 . S
C1937 H1924 0.961 . S
C1937 H1925 0.959 . S
C1937 C1935 1.561 . S
C1938 C1935 1.526 . S
C1938 C1939 1.396 . S
C1938 C1943 1.390 . S
C1939 C1933 1.465 . S
C1939 C1938 1.396 . S
C1939 C1940 1.399 . S
C1940 H1926 0.929 . S
C1940 C1939 1.399 . S
C1940 C1941 1.385 . S
C1941 H1927 0.931 . S
C1941 C1940 1.385 . S
C1941 C1942 1.389 . S
C1942 C1941 1.389 . S
C1942 C1943 1.387 . S
C1943 H1928 0.930 . S
C1943 C1938 1.390 . S
C1943 C1942 1.387 . S
H1944 C1956 0.930 . S
H1945 C1958 0.930 . S
H1946 C1959 0.930 . S
H1947 C1963 0.959 . S
H1948 C1963 0.959 . S
H1949 C1963 0.961 . S
H1950 C1964 0.960 . S
H1951 C1964 0.961 . S
H1952 C1964 0.959 . S
H1953 C1967 0.929 . S
H1954 C1968 0.931 . S
H1955 C1970 0.930 . S
C1956 H1944 0.930 . S
C1956 C1957 1.399 . S
C1956 C1961 1.399 . S
C1957 C1956 1.399 . S
C1957 C1958 1.376 . S
C1958 H1945 0.930 . S
C1958 C1957 1.376 . S
C1958 C1959 1.388 . S
C1959 H1946 0.930 . S
C1959 C1958 1.388 . S
C1959 C1960 1.390 . S
C1960 C1959 1.390 . S
C1960 C1961 1.394 . S
C1960 C1966 1.465 . S
C1961 C1956 1.399 . S
C1961 C1960 1.394 . S
C1961 C1962 1.516 . S
C1962 C1961 1.516 . S
C1962 C1963 1.502 . S
C1962 C1964 1.561 . S
C1962 C1965 1.526 . S
C1963 H1947 0.959 . S
C1963 H1948 0.959 . S
C1963 H1949 0.961 . S
C1963 C1962 1.502 . S
C1964 H1950 0.960 . S
C1964 H1951 0.961 . S
C1964 H1952 0.959 . S
C1964 C1962 1.561 . S
C1965 C1962 1.526 . S
C1965 C1966 1.396 . S
C1965 C1970 1.390 . S
C1966 C1960 1.465 . S
C1966 C1965 1.396 . S
C1966 C1967 1.399 . S
C1967 H1953 0.929 . S
C1967 C1966 1.399 . S
C1967 C1968 1.385 . S
C1968 H1954 0.931 . S
C1968 C1967 1.385 . S
C1968 C1969 1.389 . S
C1969 C1968 1.389 . S
C1969 C1970 1.387 . S
C1970 H1955 0.930 . S
C1970 C1965 1.390 . S
C1970 C1969 1.387 . S
H1971 C1983 0.930 . S
H1972 C1985 0.930 . S
H1973 C1986 0.930 . S
H1974 C1990 0.959 . S
H1975 C1990 0.959 . S
H1976 C1990 0.961 . S
H1977 C1991 0.960 . S
H1978 C1991 0.961 . S
H1979 C1991 0.959 . S
H1980 C1994 0.929 . S
H1981 C1995 0.931 . S
H1982 C1997 0.930 . S
C1983 H1971 0.930 . S
C1983 C1984 1.399 . S
C1983 C1988 1.399 . S
C1984 C1983 1.399 . S
C1984 C1985 1.376 . S
C1985 H1972 0.930 . S
C1985 C1984 1.376 . S
C1985 C1986 1.388 . S
C1986 H1973 0.930 . S
C1986 C1985 1.388 . S
C1986 C1987 1.390 . S
C1987 C1986 1.390 . S
C1987 C1988 1.394 . S
C1987 C1993 1.465 . S
C1988 C1983 1.399 . S
C1988 C1987 1.394 . S
C1988 C1989 1.516 . S
C1989 C1988 1.516 . S
C1989 C1990 1.502 . S
C1989 C1991 1.561 . S
C1989 C1992 1.526 . S
C1990 H1974 0.959 . S
C1990 H1975 0.959 . S
C1990 H1976 0.961 . S
C1990 C1989 1.502 . S
C1991 H1977 0.960 . S
C1991 H1978 0.961 . S
C1991 H1979 0.959 . S
C1991 C1989 1.561 . S
C1992 C1989 1.526 . S
C1992 C1993 1.396 . S
C1992 C1997 1.390 . S
C1993 C1987 1.465 . S
C1993 C1992 1.396 . S
C1993 C1994 1.399 . S
C1994 H1980 0.929 . S
C1994 C1993 1.399 . S
C1994 C1995 1.385 . S
C1995 H1981 0.931 . S
C1995 C1994 1.385 . S
C1995 C1996 1.389 . S
C1996 C1995 1.389 . S
C1996 C1997 1.387 . S
C1997 H1982 0.930 . S
C1997 C1992 1.390 . S
C1997 C1996 1.387 . S
H1998 C2010 0.930 . S
H1999 C2012 0.930 . S
H2000 C2013 0.930 . S
H2001 C2017 0.959 . S
H2002 C2017 0.959 . S
H2003 C2017 0.961 . S
H2004 C2018 0.960 . S
H2005 C2018 0.961 . S
H2006 C2018 0.959 . S
H2007 C2021 0.929 . S
H2008 C2022 0.931 . S
H2009 C2024 0.930 . S
C2010 H1998 0.930 . S
C2010 C2011 1.399 . S
C2010 C2015 1.399 . S
C2011 C2010 1.399 . S
C2011 C2012 1.376 . S
C2012 H1999 0.930 . S
C2012 C2011 1.376 . S
C2012 C2013 1.388 . S
C2013 H2000 0.930 . S
C2013 C2012 1.388 . S
C2013 C2014 1.390 . S
C2014 C2013 1.390 . S
C2014 C2015 1.394 . S
C2014 C2020 1.465 . S
C2015 C2010 1.399 . S
C2015 C2014 1.394 . S
C2015 C2016 1.516 . S
C2016 C2015 1.516 . S
C2016 C2017 1.502 . S
C2016 C2018 1.561 . S
C2016 C2019 1.526 . S
C2017 H2001 0.959 . S
C2017 H2002 0.959 . S
C2017 H2003 0.961 . S
C2017 C2016 1.502 . S
C2018 H2004 0.960 . S
C2018 H2005 0.961 . S
C2018 H2006 0.959 . S
C2018 C2016 1.561 . S
C2019 C2016 1.526 . S
C2019 C2020 1.396 . S
C2019 C2024 1.390 . S
C2020 C2014 1.465 . S
C2020 C2019 1.396 . S
C2020 C2021 1.399 . S
C2021 H2007 0.929 . S
C2021 C2020 1.399 . S
C2021 C2022 1.385 . S
C2022 H2008 0.931 . S
C2022 C2021 1.385 . S
C2022 C2023 1.389 . S
C2023 C2022 1.389 . S
C2023 C2024 1.387 . S
C2024 H2009 0.930 . S
C2024 C2019 1.390 . S
C2024 C2023 1.387 . S
H2025 C2037 0.930 . S
H2026 C2039 0.930 . S
H2027 C2040 0.930 . S
H2028 C2044 0.959 . S
H2029 C2044 0.959 . S
H2030 C2044 0.961 . S
H2031 C2045 0.960 . S
H2032 C2045 0.961 . S
H2033 C2045 0.959 . S
H2034 C2048 0.929 . S
H2035 C2049 0.931 . S
H2036 C2051 0.930 . S
C2037 H2025 0.930 . S
C2037 C2038 1.399 . S
C2037 C2042 1.399 . S
C2038 C2037 1.399 . S
C2038 C2039 1.376 . S
C2039 H2026 0.930 . S
C2039 C2038 1.376 . S
C2039 C2040 1.388 . S
C2040 H2027 0.930 . S
C2040 C2039 1.388 . S
C2040 C2041 1.390 . S
C2041 C2040 1.390 . S
C2041 C2042 1.394 . S
C2041 C2047 1.465 . S
C2042 C2037 1.399 . S
C2042 C2041 1.394 . S
C2042 C2043 1.516 . S
C2043 C2042 1.516 . S
C2043 C2044 1.502 . S
C2043 C2045 1.561 . S
C2043 C2046 1.526 . S
C2044 H2028 0.959 . S
C2044 H2029 0.959 . S
C2044 H2030 0.961 . S
C2044 C2043 1.502 . S
C2045 H2031 0.960 . S
C2045 H2032 0.961 . S
C2045 H2033 0.959 . S
C2045 C2043 1.561 . S
C2046 C2043 1.526 . S
C2046 C2047 1.396 . S
C2046 C2051 1.390 . S
C2047 C2041 1.465 . S
C2047 C2046 1.396 . S
C2047 C2048 1.399 . S
C2048 H2034 0.929 . S
C2048 C2047 1.399 . S
C2048 C2049 1.385 . S
C2049 H2035 0.931 . S
C2049 C2048 1.385 . S
C2049 C2050 1.389 . S
C2050 C2049 1.389 . S
C2050 C2051 1.387 . S
C2051 H2036 0.930 . S
C2051 C2046 1.390 . S
C2051 C2050 1.387 . S
H2052 C2064 0.930 . S
H2053 C2066 0.930 . S
H2054 C2067 0.930 . S
H2055 C2071 0.959 . S
H2056 C2071 0.959 . S
H2057 C2071 0.961 . S
H2058 C2072 0.960 . S
H2059 C2072 0.961 . S
H2060 C2072 0.959 . S
H2061 C2075 0.929 . S
H2062 C2076 0.931 . S
H2063 C2078 0.930 . S
C2064 H2052 0.930 . S
C2064 C2065 1.399 . S
C2064 C2069 1.399 . S
C2065 C2064 1.399 . S
C2065 C2066 1.376 . S
C2066 H2053 0.930 . S
C2066 C2065 1.376 . S
C2066 C2067 1.388 . S
C2067 H2054 0.930 . S
C2067 C2066 1.388 . S
C2067 C2068 1.390 . S
C2068 C2067 1.390 . S
C2068 C2069 1.394 . S
C2068 C2074 1.465 . S
C2069 C2064 1.399 . S
C2069 C2068 1.394 . S
C2069 C2070 1.516 . S
C2070 C2069 1.516 . S
C2070 C2071 1.502 . S
C2070 C2072 1.561 . S
C2070 C2073 1.526 . S
C2071 H2055 0.959 . S
C2071 H2056 0.959 . S
C2071 H2057 0.961 . S
C2071 C2070 1.502 . S
C2072 H2058 0.960 . S
C2072 H2059 0.961 . S
C2072 H2060 0.959 . S
C2072 C2070 1.561 . S
C2073 C2070 1.526 . S
C2073 C2074 1.396 . S
C2073 C2078 1.390 . S
C2074 C2068 1.465 . S
C2074 C2073 1.396 . S
C2074 C2075 1.399 . S
C2075 H2061 0.929 . S
C2075 C2074 1.399 . S
C2075 C2076 1.385 . S
C2076 H2062 0.931 . S
C2076 C2075 1.385 . S
C2076 C2077 1.389 . S
C2077 C2076 1.389 . S
C2077 C2078 1.387 . S
C2078 H2063 0.930 . S
C2078 C2073 1.390 . S
C2078 C2077 1.387 . S
H2079 C2091 0.930 . S
H2080 C2093 0.930 . S
H2081 C2094 0.930 . S
H2082 C2098 0.959 . S
H2083 C2098 0.959 . S
H2084 C2098 0.961 . S
H2085 C2099 0.960 . S
H2086 C2099 0.961 . S
H2087 C2099 0.959 . S
H2088 C2102 0.929 . S
H2089 C2103 0.931 . S
H2090 C2105 0.930 . S
C2091 H2079 0.930 . S
C2091 C2092 1.399 . S
C2091 C2096 1.399 . S
C2092 C2091 1.399 . S
C2092 C2093 1.376 . S
C2093 H2080 0.930 . S
C2093 C2092 1.376 . S
C2093 C2094 1.388 . S
C2094 H2081 0.930 . S
C2094 C2093 1.388 . S
C2094 C2095 1.390 . S
C2095 C2094 1.390 . S
C2095 C2096 1.394 . S
C2095 C2101 1.465 . S
C2096 C2091 1.399 . S
C2096 C2095 1.394 . S
C2096 C2097 1.516 . S
C2097 C2096 1.516 . S
C2097 C2098 1.502 . S
C2097 C2099 1.561 . S
C2097 C2100 1.526 . S
C2098 H2082 0.959 . S
C2098 H2083 0.959 . S
C2098 H2084 0.961 . S
C2098 C2097 1.502 . S
C2099 H2085 0.960 . S
C2099 H2086 0.961 . S
C2099 H2087 0.959 . S
C2099 C2097 1.561 . S
C2100 C2097 1.526 . S
C2100 C2101 1.396 . S
C2100 C2105 1.390 . S
C2101 C2095 1.465 . S
C2101 C2100 1.396 . S
C2101 C2102 1.399 . S
C2102 H2088 0.929 . S
C2102 C2101 1.399 . S
C2102 C2103 1.385 . S
C2103 H2089 0.931 . S
C2103 C2102 1.385 . S
C2103 C2104 1.389 . S
C2104 C2103 1.389 . S
C2104 C2105 1.387 . S
C2105 H2090 0.930 . S
C2105 C2100 1.390 . S
C2105 C2104 1.387 . S
H2106 C2118 0.930 . S
H2107 C2120 0.930 . S
H2108 C2121 0.930 . S
H2109 C2125 0.959 . S
H2110 C2125 0.959 . S
H2111 C2125 0.961 . S
H2112 C2126 0.960 . S
H2113 C2126 0.961 . S
H2114 C2126 0.959 . S
H2115 C2129 0.929 . S
H2116 C2130 0.931 . S
H2117 C2132 0.930 . S
C2118 H2106 0.930 . S
C2118 C2119 1.399 . S
C2118 C2123 1.399 . S
C2119 C2118 1.399 . S
C2119 C2120 1.376 . S
C2120 H2107 0.930 . S
C2120 C2119 1.376 . S
C2120 C2121 1.388 . S
C2121 H2108 0.930 . S
C2121 C2120 1.388 . S
C2121 C2122 1.390 . S
C2122 C2121 1.390 . S
C2122 C2123 1.394 . S
C2122 C2128 1.465 . S
C2123 C2118 1.399 . S
C2123 C2122 1.394 . S
C2123 C2124 1.516 . S
C2124 C2123 1.516 . S
C2124 C2125 1.502 . S
C2124 C2126 1.561 . S
C2124 C2127 1.526 . S
C2125 H2109 0.959 . S
C2125 H2110 0.959 . S
C2125 H2111 0.961 . S
C2125 C2124 1.502 . S
C2126 H2112 0.960 . S
C2126 H2113 0.961 . S
C2126 H2114 0.959 . S
C2126 C2124 1.561 . S
C2127 C2124 1.526 . S
C2127 C2128 1.396 . S
C2127 C2132 1.390 . S
C2128 C2122 1.465 . S
C2128 C2127 1.396 . S
C2128 C2129 1.399 . S
C2129 H2115 0.929 . S
C2129 C2128 1.399 . S
C2129 C2130 1.385 . S
C2130 H2116 0.931 . S
C2130 C2129 1.385 . S
C2130 C2131 1.389 . S
C2131 C2130 1.389 . S
C2131 C2132 1.387 . S
C2132 H2117 0.930 . S
C2132 C2127 1.390 . S
C2132 C2131 1.387 . S
H2133 C2145 0.930 . S
H2134 C2147 0.930 . S
H2135 C2148 0.930 . S
H2136 C2152 0.959 . S
H2137 C2152 0.959 . S
H2138 C2152 0.961 . S
H2139 C2153 0.960 . S
H2140 C2153 0.961 . S
H2141 C2153 0.959 . S
H2142 C2156 0.929 . S
H2143 C2157 0.931 . S
H2144 C2159 0.930 . S
C2145 H2133 0.930 . S
C2145 C2146 1.399 . S
C2145 C2150 1.399 . S
C2146 C2145 1.399 . S
C2146 C2147 1.376 . S
C2147 H2134 0.930 . S
C2147 C2146 1.376 . S
C2147 C2148 1.388 . S
C2148 H2135 0.930 . S
C2148 C2147 1.388 . S
C2148 C2149 1.390 . S
C2149 C2148 1.390 . S
C2149 C2150 1.394 . S
C2149 C2155 1.465 . S
C2150 C2145 1.399 . S
C2150 C2149 1.394 . S
C2150 C2151 1.516 . S
C2151 C2150 1.516 . S
C2151 C2152 1.502 . S
C2151 C2153 1.561 . S
C2151 C2154 1.526 . S
C2152 H2136 0.959 . S
C2152 H2137 0.959 . S
C2152 H2138 0.961 . S
C2152 C2151 1.502 . S
C2153 H2139 0.960 . S
C2153 H2140 0.961 . S
C2153 H2141 0.959 . S
C2153 C2151 1.561 . S
C2154 C2151 1.526 . S
C2154 C2155 1.396 . S
C2154 C2159 1.390 . S
C2155 C2149 1.465 . S
C2155 C2154 1.396 . S
C2155 C2156 1.399 . S
C2156 H2142 0.929 . S
C2156 C2155 1.399 . S
C2156 C2157 1.385 . S
C2157 H2143 0.931 . S
C2157 C2156 1.385 . S
C2157 C2158 1.389 . S
C2158 C2157 1.389 . S
C2158 C2159 1.387 . S
C2159 H2144 0.930 . S
C2159 C2154 1.390 . S
C2159 C2158 1.387 . S
H2160 C2172 0.930 . S
H2161 C2174 0.930 . S
H2162 C2175 0.930 . S
H2163 C2179 0.959 . S
H2164 C2179 0.959 . S
H2165 C2179 0.961 . S
H2166 C2180 0.960 . S
H2167 C2180 0.961 . S
H2168 C2180 0.959 . S
H2169 C2183 0.929 . S
H2170 C2184 0.931 . S
H2171 C2186 0.930 . S
C2172 H2160 0.930 . S
C2172 C2173 1.399 . S
C2172 C2177 1.399 . S
C2173 C2172 1.399 . S
C2173 C2174 1.376 . S
C2174 H2161 0.930 . S
C2174 C2173 1.376 . S
C2174 C2175 1.388 . S
C2175 H2162 0.930 . S
C2175 C2174 1.388 . S
C2175 C2176 1.390 . S
C2176 C2175 1.390 . S
C2176 C2177 1.394 . S
C2176 C2182 1.465 . S
C2177 C2172 1.399 . S
C2177 C2176 1.394 . S
C2177 C2178 1.516 . S
C2178 C2177 1.516 . S
C2178 C2179 1.502 . S
C2178 C2180 1.561 . S
C2178 C2181 1.526 . S
C2179 H2163 0.959 . S
C2179 H2164 0.959 . S
C2179 H2165 0.961 . S
C2179 C2178 1.502 . S
C2180 H2166 0.960 . S
C2180 H2167 0.961 . S
C2180 H2168 0.959 . S
C2180 C2178 1.561 . S
C2181 C2178 1.526 . S
C2181 C2182 1.396 . S
C2181 C2186 1.390 . S
C2182 C2176 1.465 . S
C2182 C2181 1.396 . S
C2182 C2183 1.399 . S
C2183 H2169 0.929 . S
C2183 C2182 1.399 . S
C2183 C2184 1.385 . S
C2184 H2170 0.931 . S
C2184 C2183 1.385 . S
C2184 C2185 1.389 . S
C2185 C2184 1.389 . S
C2185 C2186 1.387 . S
C2186 H2171 0.930 . S
C2186 C2181 1.390 . S
C2186 C2185 1.387 . S
H2187 C2199 0.930 . S
H2188 C2201 0.930 . S
H2189 C2202 0.930 . S
H2190 C2206 0.959 . S
H2191 C2206 0.959 . S
H2192 C2206 0.961 . S
H2193 C2207 0.960 . S
H2194 C2207 0.961 . S
H2195 C2207 0.959 . S
H2196 C2210 0.929 . S
H2197 C2211 0.931 . S
H2198 C2213 0.930 . S
C2199 H2187 0.930 . S
C2199 C2200 1.399 . S
C2199 C2204 1.399 . S
C2200 C2199 1.399 . S
C2200 C2201 1.376 . S
C2201 H2188 0.930 . S
C2201 C2200 1.376 . S
C2201 C2202 1.388 . S
C2202 H2189 0.930 . S
C2202 C2201 1.388 . S
C2202 C2203 1.390 . S
C2203 C2202 1.390 . S
C2203 C2204 1.394 . S
C2203 C2209 1.465 . S
C2204 C2199 1.399 . S
C2204 C2203 1.394 . S
C2204 C2205 1.516 . S
C2205 C2204 1.516 . S
C2205 C2206 1.502 . S
C2205 C2207 1.561 . S
C2205 C2208 1.526 . S
C2206 H2190 0.959 . S
C2206 H2191 0.959 . S
C2206 H2192 0.961 . S
C2206 C2205 1.502 . S
C2207 H2193 0.960 . S
C2207 H2194 0.961 . S
C2207 H2195 0.959 . S
C2207 C2205 1.561 . S
C2208 C2205 1.526 . S
C2208 C2209 1.396 . S
C2208 C2213 1.390 . S
C2209 C2203 1.465 . S
C2209 C2208 1.396 . S
C2209 C2210 1.399 . S
C2210 H2196 0.929 . S
C2210 C2209 1.399 . S
C2210 C2211 1.385 . S
C2211 H2197 0.931 . S
C2211 C2210 1.385 . S
C2211 C2212 1.389 . S
C2212 C2211 1.389 . S
C2212 C2213 1.387 . S
C2213 H2198 0.930 . S
C2213 C2208 1.390 . S
C2213 C2212 1.387 . S
H2214 C2226 0.930 . S
H2215 C2228 0.930 . S
H2216 C2229 0.930 . S
H2217 C2233 0.959 . S
H2218 C2233 0.959 . S
H2219 C2233 0.961 . S
H2220 C2234 0.960 . S
H2221 C2234 0.961 . S
H2222 C2234 0.959 . S
H2223 C2237 0.929 . S
H2224 C2238 0.931 . S
H2225 C2240 0.930 . S
C2226 H2214 0.930 . S
C2226 C2227 1.399 . S
C2226 C2231 1.399 . S
C2227 C2226 1.399 . S
C2227 C2228 1.376 . S
C2228 H2215 0.930 . S
C2228 C2227 1.376 . S
C2228 C2229 1.388 . S
C2229 H2216 0.930 . S
C2229 C2228 1.388 . S
C2229 C2230 1.390 . S
C2230 C2229 1.390 . S
C2230 C2231 1.394 . S
C2230 C2236 1.465 . S
C2231 C2226 1.399 . S
C2231 C2230 1.394 . S
C2231 C2232 1.516 . S
C2232 C2231 1.516 . S
C2232 C2233 1.502 . S
C2232 C2234 1.561 . S
C2232 C2235 1.526 . S
C2233 H2217 0.959 . S
C2233 H2218 0.959 . S
C2233 H2219 0.961 . S
C2233 C2232 1.502 . S
C2234 H2220 0.960 . S
C2234 H2221 0.961 . S
C2234 H2222 0.959 . S
C2234 C2232 1.561 . S
C2235 C2232 1.526 . S
C2235 C2236 1.396 . S
C2235 C2240 1.390 . S
C2236 C2230 1.465 . S
C2236 C2235 1.396 . S
C2236 C2237 1.399 . S
C2237 H2223 0.929 . S
C2237 C2236 1.399 . S
C2237 C2238 1.385 . S
C2238 H2224 0.931 . S
C2238 C2237 1.385 . S
C2238 C2239 1.389 . S
C2239 C2238 1.389 . S
C2239 C2240 1.387 . S
C2240 H2225 0.930 . S
C2240 C2235 1.390 . S
C2240 C2239 1.387 . S
H2241 C2253 0.930 . S
H2242 C2255 0.930 . S
H2243 C2256 0.930 . S
H2244 C2260 0.959 . S
H2245 C2260 0.959 . S
H2246 C2260 0.961 . S
H2247 C2261 0.960 . S
H2248 C2261 0.961 . S
H2249 C2261 0.959 . S
H2250 C2264 0.929 . S
H2251 C2265 0.931 . S
H2252 C2267 0.930 . S
C2253 H2241 0.930 . S
C2253 C2254 1.399 . S
C2253 C2258 1.399 . S
C2254 C2253 1.399 . S
C2254 C2255 1.376 . S
C2255 H2242 0.930 . S
C2255 C2254 1.376 . S
C2255 C2256 1.388 . S
C2256 H2243 0.930 . S
C2256 C2255 1.388 . S
C2256 C2257 1.390 . S
C2257 C2256 1.390 . S
C2257 C2258 1.394 . S
C2257 C2263 1.465 . S
C2258 C2253 1.399 . S
C2258 C2257 1.394 . S
C2258 C2259 1.516 . S
C2259 C2258 1.516 . S
C2259 C2260 1.502 . S
C2259 C2261 1.561 . S
C2259 C2262 1.526 . S
C2260 H2244 0.959 . S
C2260 H2245 0.959 . S
C2260 H2246 0.961 . S
C2260 C2259 1.502 . S
C2261 H2247 0.960 . S
C2261 H2248 0.961 . S
C2261 H2249 0.959 . S
C2261 C2259 1.561 . S
C2262 C2259 1.526 . S
C2262 C2263 1.396 . S
C2262 C2267 1.390 . S
C2263 C2257 1.465 . S
C2263 C2262 1.396 . S
C2263 C2264 1.399 . S
C2264 H2250 0.929 . S
C2264 C2263 1.399 . S
C2264 C2265 1.385 . S
C2265 H2251 0.931 . S
C2265 C2264 1.385 . S
C2265 C2266 1.389 . S
C2266 C2265 1.389 . S
C2266 C2267 1.387 . S
C2267 H2252 0.930 . S
C2267 C2262 1.390 . S
C2267 C2266 1.387 . S
H2268 C2280 0.930 . S
H2269 C2282 0.930 . S
H2270 C2283 0.930 . S
H2271 C2287 0.959 . S
H2272 C2287 0.959 . S
H2273 C2287 0.961 . S
H2274 C2288 0.960 . S
H2275 C2288 0.961 . S
H2276 C2288 0.959 . S
H2277 C2291 0.929 . S
H2278 C2292 0.931 . S
H2279 C2294 0.930 . S
C2280 H2268 0.930 . S
C2280 C2281 1.399 . S
C2280 C2285 1.399 . S
C2281 C2280 1.399 . S
C2281 C2282 1.376 . S
C2282 H2269 0.930 . S
C2282 C2281 1.376 . S
C2282 C2283 1.388 . S
C2283 H2270 0.930 . S
C2283 C2282 1.388 . S
C2283 C2284 1.390 . S
C2284 C2283 1.390 . S
C2284 C2285 1.394 . S
C2284 C2290 1.465 . S
C2285 C2280 1.399 . S
C2285 C2284 1.394 . S
C2285 C2286 1.516 . S
C2286 C2285 1.516 . S
C2286 C2287 1.502 . S
C2286 C2288 1.561 . S
C2286 C2289 1.526 . S
C2287 H2271 0.959 . S
C2287 H2272 0.959 . S
C2287 H2273 0.961 . S
C2287 C2286 1.502 . S
C2288 H2274 0.960 . S
C2288 H2275 0.961 . S
C2288 H2276 0.959 . S
C2288 C2286 1.561 . S
C2289 C2286 1.526 . S
C2289 C2290 1.396 . S
C2289 C2294 1.390 . S
C2290 C2284 1.465 . S
C2290 C2289 1.396 . S
C2290 C2291 1.399 . S
C2291 H2277 0.929 . S
C2291 C2290 1.399 . S
C2291 C2292 1.385 . S
C2292 H2278 0.931 . S
C2292 C2291 1.385 . S
C2292 C2293 1.389 . S
C2293 C2292 1.389 . S
C2293 C2294 1.387 . S
C2294 H2279 0.930 . S
C2294 C2289 1.390 . S
C2294 C2293 1.387 . S
H2295 C2307 0.930 . S
H2296 C2309 0.930 . S
H2297 C2310 0.930 . S
H2298 C2314 0.959 . S
H2299 C2314 0.959 . S
H2300 C2314 0.961 . S
H2301 C2315 0.960 . S
H2302 C2315 0.961 . S
H2303 C2315 0.959 . S
H2304 C2318 0.929 . S
H2305 C2319 0.931 . S
H2306 C2321 0.930 . S
C2307 H2295 0.930 . S
C2307 C2308 1.399 . S
C2307 C2312 1.399 . S
C2308 C2307 1.399 . S
C2308 C2309 1.376 . S
C2309 H2296 0.930 . S
C2309 C2308 1.376 . S
C2309 C2310 1.388 . S
C2310 H2297 0.930 . S
C2310 C2309 1.388 . S
C2310 C2311 1.390 . S
C2311 C2310 1.390 . S
C2311 C2312 1.394 . S
C2311 C2317 1.465 . S
C2312 C2307 1.399 . S
C2312 C2311 1.394 . S
C2312 C2313 1.516 . S
C2313 C2312 1.516 . S
C2313 C2314 1.502 . S
C2313 C2315 1.561 . S
C2313 C2316 1.526 . S
C2314 H2298 0.959 . S
C2314 H2299 0.959 . S
C2314 H2300 0.961 . S
C2314 C2313 1.502 . S
C2315 H2301 0.960 . S
C2315 H2302 0.961 . S
C2315 H2303 0.959 . S
C2315 C2313 1.561 . S
C2316 C2313 1.526 . S
C2316 C2317 1.396 . S
C2316 C2321 1.390 . S
C2317 C2311 1.465 . S
C2317 C2316 1.396 . S
C2317 C2318 1.399 . S
C2318 H2304 0.929 . S
C2318 C2317 1.399 . S
C2318 C2319 1.385 . S
C2319 H2305 0.931 . S
C2319 C2318 1.385 . S
C2319 C2320 1.389 . S
C2320 C2319 1.389 . S
C2320 C2321 1.387 . S
C2321 H2306 0.930 . S
C2321 C2316 1.390 . S
C2321 C2320 1.387 . S
H2322 C2334 0.930 . S
H2323 C2336 0.930 1_545 S
H2324 C2337 0.930 . S
H2325 C2341 0.959 . S
H2326 C2341 0.959 . S
H2327 C2341 0.961 . S
H2328 C2342 0.960 . S
H2329 C2342 0.961 . S
H2330 C2342 0.959 . S
H2331 C2345 0.929 . S
H2332 C2346 0.931 . S
H2333 C2348 0.930 . S
C2334 H2322 0.930 . S
C2334 C2335 1.399 . S
C2334 C2339 1.399 . S
C2335 C2334 1.399 . S
C2335 C2336 1.376 . S
C2336 H2323 0.930 1_565 S
C2336 C2335 1.376 . S
C2336 C2337 1.388 . S
C2337 H2324 0.930 . S
C2337 C2336 1.388 . S
C2337 C2338 1.390 . S
C2338 C2337 1.390 . S
C2338 C2339 1.394 . S
C2338 C2344 1.465 . S
C2339 C2334 1.399 . S
C2339 C2338 1.394 . S
C2339 C2340 1.516 . S
C2340 C2339 1.516 . S
C2340 C2341 1.502 . S
C2340 C2342 1.561 . S
C2340 C2343 1.526 . S
C2341 H2325 0.959 . S
C2341 H2326 0.959 . S
C2341 H2327 0.961 . S
C2341 C2340 1.502 . S
C2342 H2328 0.960 . S
C2342 H2329 0.961 . S
C2342 H2330 0.959 . S
C2342 C2340 1.561 . S
C2343 C2340 1.526 . S
C2343 C2344 1.396 . S
C2343 C2348 1.390 . S
C2344 C2338 1.465 . S
C2344 C2343 1.396 . S
C2344 C2345 1.399 . S
C2345 H2331 0.929 . S
C2345 C2344 1.399 . S
C2345 C2346 1.385 . S
C2346 H2332 0.931 . S
C2346 C2345 1.385 . S
C2346 C2347 1.389 . S
C2347 C2346 1.389 . S
C2347 C2348 1.387 . S
C2348 H2333 0.930 . S
C2348 C2343 1.390 . S
C2348 C2347 1.387 . S
H2349 C2361 0.930 . S
H2350 C2363 0.930 . S
H2351 C2364 0.930 . S
H2352 C2368 0.959 . S
H2353 C2368 0.959 . S
H2354 C2368 0.961 . S
H2355 C2369 0.960 . S
H2356 C2369 0.961 . S
H2357 C2369 0.959 . S
H2358 C2372 0.929 . S
H2359 C2373 0.931 . S
H2360 C2375 0.930 . S
C2361 H2349 0.930 . S
C2361 C2362 1.399 . S
C2361 C2366 1.399 . S
C2362 C2361 1.399 . S
C2362 C2363 1.376 . S
C2363 H2350 0.930 . S
C2363 C2362 1.376 . S
C2363 C2364 1.388 . S
C2364 H2351 0.930 . S
C2364 C2363 1.388 . S
C2364 C2365 1.390 . S
C2365 C2364 1.390 . S
C2365 C2366 1.394 . S
C2365 C2371 1.465 . S
C2366 C2361 1.399 . S
C2366 C2365 1.394 . S
C2366 C2367 1.516 . S
C2367 C2366 1.516 . S
C2367 C2368 1.502 . S
C2367 C2369 1.561 . S
C2367 C2370 1.526 . S
C2368 H2352 0.959 . S
C2368 H2353 0.959 . S
C2368 H2354 0.961 . S
C2368 C2367 1.502 . S
C2369 H2355 0.960 . S
C2369 H2356 0.961 . S
C2369 H2357 0.959 . S
C2369 C2367 1.561 . S
C2370 C2367 1.526 . S
C2370 C2371 1.396 . S
C2370 C2375 1.390 . S
C2371 C2365 1.465 . S
C2371 C2370 1.396 . S
C2371 C2372 1.399 . S
C2372 H2358 0.929 . S
C2372 C2371 1.399 . S
C2372 C2373 1.385 . S
C2373 H2359 0.931 . S
C2373 C2372 1.385 . S
C2373 C2374 1.389 . S
C2374 C2373 1.389 . S
C2374 C2375 1.387 . S
C2375 H2360 0.930 . S
C2375 C2370 1.390 . S
C2375 C2374 1.387 . S
H2376 C2388 0.930 . S
H2377 C2390 0.930 . S
H2378 C2391 0.930 . S
H2379 C2395 0.959 . S
H2380 C2395 0.959 . S
H2381 C2395 0.961 . S
H2382 C2396 0.960 . S
H2383 C2396 0.961 . S
H2384 C2396 0.959 . S
H2385 C2399 0.929 . S
H2386 C2400 0.931 . S
H2387 C2402 0.930 . S
C2388 H2376 0.930 . S
C2388 C2389 1.399 . S
C2388 C2393 1.399 . S
C2389 C2388 1.399 . S
C2389 C2390 1.376 . S
C2390 H2377 0.930 . S
C2390 C2389 1.376 . S
C2390 C2391 1.388 . S
C2391 H2378 0.930 . S
C2391 C2390 1.388 . S
C2391 C2392 1.390 . S
C2392 C2391 1.390 . S
C2392 C2393 1.394 . S
C2392 C2398 1.465 . S
C2393 C2388 1.399 . S
C2393 C2392 1.394 . S
C2393 C2394 1.516 . S
C2394 C2393 1.516 . S
C2394 C2395 1.502 . S
C2394 C2396 1.561 . S
C2394 C2397 1.526 . S
C2395 H2379 0.959 . S
C2395 H2380 0.959 . S
C2395 H2381 0.961 . S
C2395 C2394 1.502 . S
C2396 H2382 0.960 . S
C2396 H2383 0.961 . S
C2396 H2384 0.959 . S
C2396 C2394 1.561 . S
C2397 C2394 1.526 . S
C2397 C2398 1.396 . S
C2397 C2402 1.390 . S
C2398 C2392 1.465 . S
C2398 C2397 1.396 . S
C2398 C2399 1.399 . S
C2399 H2385 0.929 . S
C2399 C2398 1.399 . S
C2399 C2400 1.385 . S
C2400 H2386 0.931 . S
C2400 C2399 1.385 . S
C2400 C2401 1.389 . S
C2401 C2400 1.389 . S
C2401 C2402 1.387 . S
C2402 H2387 0.930 . S
C2402 C2397 1.390 . S
C2402 C2401 1.387 . S
H2403 C2415 0.930 . S
H2404 C2417 0.930 . S
H2405 C2418 0.930 . S
H2406 C2422 0.959 . S
H2407 C2422 0.959 . S
H2408 C2422 0.961 . S
H2409 C2423 0.960 . S
H2410 C2423 0.961 . S
H2411 C2423 0.959 . S
H2412 C2426 0.929 . S
H2413 C2427 0.931 . S
H2414 C2429 0.930 . S
C2415 H2403 0.930 . S
C2415 C2416 1.399 . S
C2415 C2420 1.399 . S
C2416 C2415 1.399 . S
C2416 C2417 1.376 . S
C2417 H2404 0.930 . S
C2417 C2416 1.376 . S
C2417 C2418 1.388 . S
C2418 H2405 0.930 . S
C2418 C2417 1.388 . S
C2418 C2419 1.390 . S
C2419 C2418 1.390 . S
C2419 C2420 1.394 . S
C2419 C2425 1.465 . S
C2420 C2415 1.399 . S
C2420 C2419 1.394 . S
C2420 C2421 1.516 . S
C2421 C2420 1.516 . S
C2421 C2422 1.502 . S
C2421 C2423 1.561 . S
C2421 C2424 1.526 . S
C2422 H2406 0.959 . S
C2422 H2407 0.959 . S
C2422 H2408 0.961 . S
C2422 C2421 1.502 . S
C2423 H2409 0.960 . S
C2423 H2410 0.961 . S
C2423 H2411 0.959 . S
C2423 C2421 1.561 . S
C2424 C2421 1.526 . S
C2424 C2425 1.396 . S
C2424 C2429 1.390 . S
C2425 C2419 1.465 . S
C2425 C2424 1.396 . S
C2425 C2426 1.399 . S
C2426 H2412 0.929 . S
C2426 C2425 1.399 . S
C2426 C2427 1.385 . S
C2427 H2413 0.931 . S
C2427 C2426 1.385 . S
C2427 C2428 1.389 . S
C2428 C2427 1.389 . S
C2428 C2429 1.387 . S
C2429 H2414 0.930 . S
C2429 C2424 1.390 . S
C2429 C2428 1.387 . S
C499 C34 1.309 . S
C511 C238 1.179 . S
C526 C8 1.242 1_565 S
C538 C254 1.088 . S
C565 C237 1.196 . S
C553 C18 1.292 . S
C592 C262 1.160 . S
C580 C31 1.290 . S
C607 C5 1.301 . S
C619 C271 1.098 . S
C646 C274 1.195 . S
C634 C21 1.314 1_655 S
C661 C73 1.269 . S
C673 C280 1.068 . S
C700 C296 1.133 . S
C688 C47 1.222 . S
C727 C279 1.082 . S
C715 C57 1.235 . S
C742 C70 1.271 . S
C754 C304 1.032 . S
C781 C313 1.201 . S
C769 C44 1.301 . S
C808 C316 1.231 . S
C796 C60 1.290 . S
C835 C325 1.078 . S
C823 C112 1.218 . S
C862 C337 1.190 . S
C850 C86 1.270 . S
C889 C334 1.060 . S
C877 C96 1.231 . S
C904 C109 1.262 . S
C916 C343 1.201 . S
C943 C342 1.232 . S
C931 C83 1.252 . S
C958 C99 1.247 . S
C970 C359 1.149 . S
C997 C364 1.060 . S
C985 C151 1.239 . S
C1024 C380 1.170 . S
C1012 C125 1.321 . S
C1039 C135 1.287 . S
C1051 C363 1.061 . S
C1078 C388 1.189 . S
C1066 C148 1.193 . S
C1105 C397 1.206 . S
C1093 C122 1.219 . S
C1120 C138 1.237 . S
C1132 C400 1.070 . S
C1147 C190 1.305 . S
C1159 C409 1.170 . S
C1186 C421 1.218 . S
C1174 C164 1.293 . S
C1213 C418 1.204 . S
C1201 C174 1.286 . S
C1228 C187 1.261 . S
C1240 C427 1.201 . S
C1267 C426 1.156 . S
C1255 C161 1.218 . S
C1282 C177 1.231 . S
C1294 C443 1.069 . S
C1321 C448 1.225 . S
C1309 C229 1.296 . S
C1348 C464 1.234 . S
C1336 C203 1.295 . S
C1363 C213 1.291 . S
C1375 C447 1.064 . S
C1402 C469 1.199 . S
C1390 C226 1.201 . S
C1429 C468 1.119 . S
C1417 C200 1.247 . S
C1456 C485 1.232 . S
C1444 C216 1.297 . S
C1483 C250 1.330 . S
C1471 C143 1.414 . S
C1498 C117 1.433 . S
C1510 C253 1.403 . S
C1537 C241 1.284 . S
C1525 C140 1.426 . S
C1552 C231 1.466 . S
C1564 C258 1.410 . S
C1579 C205 1.487 . S
C1591 C259 1.407 . S
C1618 C275 1.349 1_565 S
C1606 C208 1.453 . S
C1645 C292 1.333 1_565 S
C1633 C182 1.408 . S
C1672 C295 1.340 . S
C1660 C156 1.466 . S
C1687 C179 1.404 . S
C1699 C283 1.374 . S
C1726 C300 1.374 1_655 S
C1714 C114 1.443 . S
C1741 C88 1.475 . S
C1753 C301 1.336 . S
C1768 C91 1.482 . S
C1780 C317 1.379 . S
C1795 C221 1.454 . S
C1807 C321 1.382 . S
C1822 C195 1.476 . S
C1834 C338 1.335 . S
C1861 C322 1.355 . S
C1849 C218 1.425 . S
C1888 C355 1.399 . S
C1876 C75 1.443 . S
C1915 C346 1.334 . S
C1903 C49 1.467 . S
C1930 C52 1.460 . S
C1942 C358 1.445 . S
C1969 C376 1.354 . S
C1957 C26 1.410 . S
C1996 C379 1.387 . S
C1984 C0 1.437 . S
C2011 C23 1.427 . S
C2023 C367 1.266 . S
C2050 C384 1.414 . S
C2038 C192 1.457 . S
C2077 C385 1.430 . S
C2065 C166 1.469 1_655 S
C2104 C401 1.416 . S
C2092 C169 1.492 . S
C2131 C405 1.309 . S
C2119 C65 1.431 . S
C2158 C422 1.427 . S
C2146 C39 1.449 . S
C2173 C62 1.403 . S
C2185 C406 1.281 . S
C2200 C153 1.449 1_565 S
C2212 C439 1.327 . S
C2227 C127 1.489 . S
C2239 C430 1.370 . S
C2266 C442 1.428 . S
C2254 C130 1.486 . S
C2281 C104 1.455 . S
C2293 C460 1.370 . S
C2308 C78 1.479 . S
C2320 C463 1.414 . S
C2347 C451 1.362 . S
C2335 C101 1.399 1_565 S
C2374 C481 1.332 . S
C2362 C36 1.468 . S
C2401 C472 1.431 . S
C2389 C10 1.467 . S
C2416 C13 1.488 . S
C2428 C484 1.394 . S
