# Generated by pormake.
# Topology gar, (4,6)-cn, num edge types: 1
# Building blocks:
#     Node 0, Type 0, BuildingBlock: GALJAG_clean_sbu_0, # of connection points: 4
#     Node 1, Type 0, BuildingBlock: GALJAG_clean_sbu_0, # of connection points: 4
#     Node 2, Type 0, BuildingBlock: GALJAG_clean_sbu_0, # of connection points: 4
#     Node 3, Type 0, BuildingBlock: GALJAG_clean_sbu_0, # of connection points: 4
#     Node 4, Type 0, BuildingBlock: GALJAG_clean_sbu_0, # of connection points: 4
#     Node 5, Type 0, BuildingBlock: GALJAG_clean_sbu_0, # of connection points: 4
#     Node 6, Type 0, BuildingBlock: GALJAG_clean_sbu_0, # of connection points: 4
#     Node 7, Type 0, BuildingBlock: GALJAG_clean_sbu_0, # of connection points: 4
#     Node 8, Type 0, BuildingBlock: GALJAG_clean_sbu_0, # of connection points: 4
#     Node 9, Type 0, BuildingBlock: GALJAG_clean_sbu_0, # of connection points: 4
#     Node 10, Type 0, BuildingBlock: GALJAG_clean_sbu_0, # of connection points: 4
#     Node 11, Type 0, BuildingBlock: GALJAG_clean_sbu_0, # of connection points: 4
#     Node 12, Type 0, BuildingBlock: GALJAG_clean_sbu_0, # of connection points: 4
#     Node 13, Type 0, BuildingBlock: GALJAG_clean_sbu_0, # of connection points: 4
#     Node 14, Type 0, BuildingBlock: GALJAG_clean_sbu_0, # of connection points: 4
#     Node 15, Type 0, BuildingBlock: GALJAG_clean_sbu_0, # of connection points: 4
#     Node 16, Type 0, BuildingBlock: GALJAG_clean_sbu_0, # of connection points: 4
#     Node 17, Type 0, BuildingBlock: GALJAG_clean_sbu_0, # of connection points: 4
#     Node 18, Type 0, BuildingBlock: GALJAG_clean_sbu_0, # of connection points: 4
#     Node 19, Type 0, BuildingBlock: GALJAG_clean_sbu_0, # of connection points: 4
#     Node 20, Type 0, BuildingBlock: GALJAG_clean_sbu_0, # of connection points: 4
#     Node 21, Type 0, BuildingBlock: GALJAG_clean_sbu_0, # of connection points: 4
#     Node 22, Type 0, BuildingBlock: GALJAG_clean_sbu_0, # of connection points: 4
#     Node 23, Type 0, BuildingBlock: GALJAG_clean_sbu_0, # of connection points: 4
#     Node 24, Type 1, BuildingBlock: KUMBOL_clean_sbu_0, # of connection points: 6
#     Node 25, Type 1, BuildingBlock: KUMBOL_clean_sbu_0, # of connection points: 6
#     Node 26, Type 1, BuildingBlock: KUMBOL_clean_sbu_0, # of connection points: 6
#     Node 27, Type 1, BuildingBlock: KUMBOL_clean_sbu_0, # of connection points: 6
#     Node 28, Type 1, BuildingBlock: KUMBOL_clean_sbu_0, # of connection points: 6
#     Node 29, Type 1, BuildingBlock: KUMBOL_clean_sbu_0, # of connection points: 6
#     Node 30, Type 1, BuildingBlock: KUMBOL_clean_sbu_0, # of connection points: 6
#     Node 31, Type 1, BuildingBlock: KUMBOL_clean_sbu_0, # of connection points: 6
#     Node 32, Type 1, BuildingBlock: KUMBOL_clean_sbu_0, # of connection points: 6
#     Node 33, Type 1, BuildingBlock: KUMBOL_clean_sbu_0, # of connection points: 6
#     Node 34, Type 1, BuildingBlock: KUMBOL_clean_sbu_0, # of connection points: 6
#     Node 35, Type 1, BuildingBlock: KUMBOL_clean_sbu_0, # of connection points: 6
#     Node 36, Type 1, BuildingBlock: KUMBOL_clean_sbu_0, # of connection points: 6
#     Node 37, Type 1, BuildingBlock: KUMBOL_clean_sbu_0, # of connection points: 6
#     Node 38, Type 1, BuildingBlock: KUMBOL_clean_sbu_0, # of connection points: 6
#     Node 39, Type 1, BuildingBlock: KUMBOL_clean_sbu_0, # of connection points: 6
#     Edge 40, Type (0, 1), BuildingBlock: MIFKUJ_clean_linker_0, # of connection points: 2
#     Edge 41, Type (0, 1), BuildingBlock: MIFKUJ_clean_linker_0, # of connection points: 2
#     Edge 42, Type (0, 1), BuildingBlock: MIFKUJ_clean_linker_0, # of connection points: 2
#     Edge 43, Type (0, 1), BuildingBlock: MIFKUJ_clean_linker_0, # of connection points: 2
#     Edge 44, Type (0, 1), BuildingBlock: MIFKUJ_clean_linker_0, # of connection points: 2
#     Edge 45, Type (0, 1), BuildingBlock: MIFKUJ_clean_linker_0, # of connection points: 2
#     Edge 46, Type (0, 1), BuildingBlock: MIFKUJ_clean_linker_0, # of connection points: 2
#     Edge 47, Type (0, 1), BuildingBlock: MIFKUJ_clean_linker_0, # of connection points: 2
#     Edge 48, Type (0, 1), BuildingBlock: MIFKUJ_clean_linker_0, # of connection points: 2
#     Edge 49, Type (0, 1), BuildingBlock: MIFKUJ_clean_linker_0, # of connection points: 2
#     Edge 50, Type (0, 1), BuildingBlock: MIFKUJ_clean_linker_0, # of connection points: 2
#     Edge 51, Type (0, 1), BuildingBlock: MIFKUJ_clean_linker_0, # of connection points: 2
#     Edge 52, Type (0, 1), BuildingBlock: MIFKUJ_clean_linker_0, # of connection points: 2
#     Edge 53, Type (0, 1), BuildingBlock: MIFKUJ_clean_linker_0, # of connection points: 2
#     Edge 54, Type (0, 1), BuildingBlock: MIFKUJ_clean_linker_0, # of connection points: 2
#     Edge 55, Type (0, 1), BuildingBlock: MIFKUJ_clean_linker_0, # of connection points: 2
#     Edge 56, Type (0, 1), BuildingBlock: MIFKUJ_clean_linker_0, # of connection points: 2
#     Edge 57, Type (0, 1), BuildingBlock: MIFKUJ_clean_linker_0, # of connection points: 2
#     Edge 58, Type (0, 1), BuildingBlock: MIFKUJ_clean_linker_0, # of connection points: 2
#     Edge 59, Type (0, 1), BuildingBlock: MIFKUJ_clean_linker_0, # of connection points: 2
#     Edge 60, Type (0, 1), BuildingBlock: MIFKUJ_clean_linker_0, # of connection points: 2
#     Edge 61, Type (0, 1), BuildingBlock: MIFKUJ_clean_linker_0, # of connection points: 2
#     Edge 62, Type (0, 1), BuildingBlock: MIFKUJ_clean_linker_0, # of connection points: 2
#     Edge 63, Type (0, 1), BuildingBlock: MIFKUJ_clean_linker_0, # of connection points: 2
#     Edge 64, Type (0, 1), BuildingBlock: MIFKUJ_clean_linker_0, # of connection points: 2
#     Edge 65, Type (0, 1), BuildingBlock: MIFKUJ_clean_linker_0, # of connection points: 2
#     Edge 66, Type (0, 1), BuildingBlock: MIFKUJ_clean_linker_0, # of connection points: 2
#     Edge 67, Type (0, 1), BuildingBlock: MIFKUJ_clean_linker_0, # of connection points: 2
#     Edge 68, Type (0, 1), BuildingBlock: MIFKUJ_clean_linker_0, # of connection points: 2
#     Edge 69, Type (0, 1), BuildingBlock: MIFKUJ_clean_linker_0, # of connection points: 2
#     Edge 70, Type (0, 1), BuildingBlock: MIFKUJ_clean_linker_0, # of connection points: 2
#     Edge 71, Type (0, 1), BuildingBlock: MIFKUJ_clean_linker_0, # of connection points: 2
#     Edge 72, Type (0, 1), BuildingBlock: MIFKUJ_clean_linker_0, # of connection points: 2
#     Edge 73, Type (0, 1), BuildingBlock: MIFKUJ_clean_linker_0, # of connection points: 2
#     Edge 74, Type (0, 1), BuildingBlock: MIFKUJ_clean_linker_0, # of connection points: 2
#     Edge 75, Type (0, 1), BuildingBlock: MIFKUJ_clean_linker_0, # of connection points: 2
#     Edge 76, Type (0, 1), BuildingBlock: MIFKUJ_clean_linker_0, # of connection points: 2
#     Edge 77, Type (0, 1), BuildingBlock: MIFKUJ_clean_linker_0, # of connection points: 2
#     Edge 78, Type (0, 1), BuildingBlock: MIFKUJ_clean_linker_0, # of connection points: 2
#     Edge 79, Type (0, 1), BuildingBlock: MIFKUJ_clean_linker_0, # of connection points: 2
#     Edge 80, Type (0, 1), BuildingBlock: MIFKUJ_clean_linker_0, # of connection points: 2
#     Edge 81, Type (0, 1), BuildingBlock: MIFKUJ_clean_linker_0, # of connection points: 2
#     Edge 82, Type (0, 1), BuildingBlock: MIFKUJ_clean_linker_0, # of connection points: 2
#     Edge 83, Type (0, 1), BuildingBlock: MIFKUJ_clean_linker_0, # of connection points: 2
#     Edge 84, Type (0, 1), BuildingBlock: MIFKUJ_clean_linker_0, # of connection points: 2
#     Edge 85, Type (0, 1), BuildingBlock: MIFKUJ_clean_linker_0, # of connection points: 2
#     Edge 86, Type (0, 1), BuildingBlock: MIFKUJ_clean_linker_0, # of connection points: 2
#     Edge 87, Type (0, 1), BuildingBlock: MIFKUJ_clean_linker_0, # of connection points: 2
#     Edge 88, Type (0, 1), BuildingBlock: MIFKUJ_clean_linker_0, # of connection points: 2
#     Edge 89, Type (0, 1), BuildingBlock: MIFKUJ_clean_linker_0, # of connection points: 2
#     Edge 90, Type (0, 1), BuildingBlock: MIFKUJ_clean_linker_0, # of connection points: 2
#     Edge 91, Type (0, 1), BuildingBlock: MIFKUJ_clean_linker_0, # of connection points: 2
#     Edge 92, Type (0, 1), BuildingBlock: MIFKUJ_clean_linker_0, # of connection points: 2
#     Edge 93, Type (0, 1), BuildingBlock: MIFKUJ_clean_linker_0, # of connection points: 2
#     Edge 94, Type (0, 1), BuildingBlock: MIFKUJ_clean_linker_0, # of connection points: 2
#     Edge 95, Type (0, 1), BuildingBlock: MIFKUJ_clean_linker_0, # of connection points: 2
#     Edge 96, Type (0, 1), BuildingBlock: MIFKUJ_clean_linker_0, # of connection points: 2
#     Edge 97, Type (0, 1), BuildingBlock: MIFKUJ_clean_linker_0, # of connection points: 2
#     Edge 98, Type (0, 1), BuildingBlock: MIFKUJ_clean_linker_0, # of connection points: 2
#     Edge 99, Type (0, 1), BuildingBlock: MIFKUJ_clean_linker_0, # of connection points: 2
#     Edge 100, Type (0, 1), BuildingBlock: MIFKUJ_clean_linker_0, # of connection points: 2
#     Edge 101, Type (0, 1), BuildingBlock: MIFKUJ_clean_linker_0, # of connection points: 2
#     Edge 102, Type (0, 1), BuildingBlock: MIFKUJ_clean_linker_0, # of connection points: 2
#     Edge 103, Type (0, 1), BuildingBlock: MIFKUJ_clean_linker_0, # of connection points: 2
#     Edge 104, Type (0, 1), BuildingBlock: MIFKUJ_clean_linker_0, # of connection points: 2
#     Edge 105, Type (0, 1), BuildingBlock: MIFKUJ_clean_linker_0, # of connection points: 2
#     Edge 106, Type (0, 1), BuildingBlock: MIFKUJ_clean_linker_0, # of connection points: 2
#     Edge 107, Type (0, 1), BuildingBlock: MIFKUJ_clean_linker_0, # of connection points: 2
#     Edge 108, Type (0, 1), BuildingBlock: MIFKUJ_clean_linker_0, # of connection points: 2
#     Edge 109, Type (0, 1), BuildingBlock: MIFKUJ_clean_linker_0, # of connection points: 2
#     Edge 110, Type (0, 1), BuildingBlock: MIFKUJ_clean_linker_0, # of connection points: 2
#     Edge 111, Type (0, 1), BuildingBlock: MIFKUJ_clean_linker_0, # of connection points: 2
#     Edge 112, Type (0, 1), BuildingBlock: MIFKUJ_clean_linker_0, # of connection points: 2
#     Edge 113, Type (0, 1), BuildingBlock: MIFKUJ_clean_linker_0, # of connection points: 2
#     Edge 114, Type (0, 1), BuildingBlock: MIFKUJ_clean_linker_0, # of connection points: 2
#     Edge 115, Type (0, 1), BuildingBlock: MIFKUJ_clean_linker_0, # of connection points: 2
#     Edge 116, Type (0, 1), BuildingBlock: MIFKUJ_clean_linker_0, # of connection points: 2
#     Edge 117, Type (0, 1), BuildingBlock: MIFKUJ_clean_linker_0, # of connection points: 2
#     Edge 118, Type (0, 1), BuildingBlock: MIFKUJ_clean_linker_0, # of connection points: 2
#     Edge 119, Type (0, 1), BuildingBlock: MIFKUJ_clean_linker_0, # of connection points: 2
#     Edge 120, Type (0, 1), BuildingBlock: MIFKUJ_clean_linker_0, # of connection points: 2
#     Edge 121, Type (0, 1), BuildingBlock: MIFKUJ_clean_linker_0, # of connection points: 2
#     Edge 122, Type (0, 1), BuildingBlock: MIFKUJ_clean_linker_0, # of connection points: 2
#     Edge 123, Type (0, 1), BuildingBlock: MIFKUJ_clean_linker_0, # of connection points: 2
#     Edge 124, Type (0, 1), BuildingBlock: MIFKUJ_clean_linker_0, # of connection points: 2
#     Edge 125, Type (0, 1), BuildingBlock: MIFKUJ_clean_linker_0, # of connection points: 2
#     Edge 126, Type (0, 1), BuildingBlock: MIFKUJ_clean_linker_0, # of connection points: 2
#     Edge 127, Type (0, 1), BuildingBlock: MIFKUJ_clean_linker_0, # of connection points: 2
#     Edge 128, Type (0, 1), BuildingBlock: MIFKUJ_clean_linker_0, # of connection points: 2
#     Edge 129, Type (0, 1), BuildingBlock: MIFKUJ_clean_linker_0, # of connection points: 2
#     Edge 130, Type (0, 1), BuildingBlock: MIFKUJ_clean_linker_0, # of connection points: 2
#     Edge 131, Type (0, 1), BuildingBlock: MIFKUJ_clean_linker_0, # of connection points: 2
#     Edge 132, Type (0, 1), BuildingBlock: MIFKUJ_clean_linker_0, # of connection points: 2
#     Edge 133, Type (0, 1), BuildingBlock: MIFKUJ_clean_linker_0, # of connection points: 2
#     Edge 134, Type (0, 1), BuildingBlock: MIFKUJ_clean_linker_0, # of connection points: 2
#     Edge 135, Type (0, 1), BuildingBlock: MIFKUJ_clean_linker_0, # of connection points: 2
# Relax obj value: 0.128
# Max RMSD: 0.308
# Mean RMSD: 0.166
data_MOF--net-gar--node1-GALJAG_clean_sbu_0--node2-KUMBOL_clean_sbu_0--edge1-MIFKUJ_clean_linker_0
_symmetry_space_group_name_H-M    P1
_symmetry_Int_Tables_number       1
_symmetry_cell_setting            triclinic
loop_
_symmetry_equiv_pos_as_xyz
'x, y, z'
_cell_length_a     77.326367
_cell_length_b     72.630392
_cell_length_c     72.572085
_cell_angle_alpha  99.693494
_cell_angle_beta   92.984074
_cell_angle_gamma 101.72011
loop_
_atom_site_label
_atom_site_type_symbol
_atom_site_fract_x
_atom_site_fract_y
_atom_site_fract_z
_atom_type_partial_charge
In0 In 0.09883 0.32131 0.39332 0.0
O1 O 0.10913 0.30841 0.36727 0.0
O2 O 0.12765 0.32757 0.38847 0.0
C3 C 0.06759 0.32256 0.37754 0.0
C4 C 0.0957 0.29044 0.4088 0.0
C5 C 0.1048 0.35674 0.41182 0.0
O6 O 0.08157 0.32626 0.36944 0.0
O7 O 0.0693 0.31801 0.39344 0.0
O8 O 0.09998 0.34269 0.41996 0.0
O9 O 0.10728 0.35263 0.39476 0.0
C10 C 0.12492 0.31708 0.37246 0.0
O11 O 0.10636 0.30587 0.41619 0.0
O12 O 0.08689 0.29082 0.39383 0.0
In13 In 0.0032 0.76183 0.66232 0.0
O14 O 1.00101 0.77338 0.63602 0.0
O15 O 0.00983 0.79339 0.66162 0.0
C16 C 0.99618 0.726 0.64538 0.0
C17 C 0.03642 0.76406 0.67493 0.0
C18 C 0.97305 0.76109 0.67777 0.0
O19 O 0.99641 0.73967 0.63669 0.0
O20 O 1.00027 0.73048 0.66287 0.0
O21 O 0.98762 0.76941 0.68716 0.0
O22 O 0.97397 0.75437 0.66085 0.0
C23 C 0.00658 0.79051 0.64399 0.0
O24 O 0.02407 0.76256 0.68574 0.0
O25 O 0.03188 0.76457 0.65815 0.0
In26 In 0.6008 0.81977 0.89345 0.0
O27 O 0.61206 0.81787 0.86583 0.0
O28 O 0.62942 0.82009 0.89062 0.0
C29 C 0.56926 0.82074 0.8783 0.0
C30 C 0.59776 0.78744 0.90635 0.0
C31 C 0.60611 0.85497 0.91255 0.0
O32 O 0.58241 0.82083 0.86868 0.0
O33 O 0.57195 0.81937 0.89525 0.0
O34 O 0.59771 0.84085 0.91871 0.0
O35 O 0.61308 0.85109 0.89755 0.0
C36 C 0.62758 0.81924 0.87307 0.0
O37 O 0.60781 0.80275 0.91493 0.0
O38 O 0.58956 0.78846 0.89122 0.0
In39 In 0.50302 0.26336 0.16503 0.0
O40 O 0.49181 0.2382 0.14281 0.0
O41 O 0.50413 0.23343 0.16824 0.0
C42 C 0.50725 0.29047 0.14472 0.0
C43 C 0.4727 0.26212 0.18003 0.0
C44 C 0.53674 0.26695 0.17647 0.0
O45 O 0.50472 0.27297 0.1376 0.0
O46 O 0.50695 0.29438 0.16238 0.0
O47 O 0.5251 0.26747 0.18812 0.0
O48 O 0.53132 0.26509 0.15945 0.0
C49 C 0.49598 0.2265 0.15231 0.0
O50 O 0.48722 0.26876 0.19018 0.0
O51 O 0.47389 0.25796 0.16269 0.0
In52 In 0.07947 0.80744 0.11465 0.0
O53 O 0.06283 0.78024 0.09423 0.0
O54 O 0.08878 0.77939 0.10326 0.0
C55 C 0.08161 0.84008 0.0986 0.0
C56 C 0.04911 0.80523 0.1331 0.0
C57 C 0.11042 0.81272 0.13787 0.0
O58 O 0.07885 0.82335 0.08894 0.0
O59 O 0.08415 0.84039 0.11599 0.0
O60 O 0.09499 0.80832 0.14308 0.0
O61 O 0.11045 0.8153 0.12102 0.0
C62 C 0.07433 0.77021 0.0944 0.0
O63 O 0.06268 0.80014 0.13908 0.0
O64 O 0.05102 0.81203 0.11831 0.0
In65 In 0.51545 0.76599 0.42753 0.0
O66 O 0.53278 0.76209 0.40194 0.0
O67 O 0.54631 0.77202 0.4288 0.0
C68 C 0.48225 0.76403 0.40834 0.0
C69 C 0.51705 0.73578 0.44586 0.0
C70 C 0.5186 0.80201 0.44782 0.0
O71 O 0.49671 0.76552 0.40072 0.0
O72 O 0.4842 0.76228 0.42534 0.0
O73 O 0.51483 0.78727 0.4551 0.0
O74 O 0.52081 0.79859 0.43059 0.0
C75 C 0.54767 0.76741 0.41152 0.0
O76 O 0.52244 0.75315 0.45318 0.0
O77 O 0.5098 0.73325 0.4293 0.0
In78 In 0.57979 0.3075 0.61417 0.0
O79 O 0.58648 0.28213 0.59263 0.0
O80 O 0.56425 0.27609 0.6079 0.0
C81 C 0.58058 0.33989 0.59775 0.0
C82 C 0.549 0.30727 0.63107 0.0
C83 C 0.61041 0.30999 0.63722 0.0
O84 O 0.57592 0.32302 0.58852 0.0
O85 O 0.58542 0.34035 0.61468 0.0
O86 O 0.59506 0.30814 0.64284 0.0
O87 O 0.61048 0.31064 0.61991 0.0
C88 C 0.57369 0.26953 0.59595 0.0
O89 O 0.56414 0.31394 0.63992 0.0
O90 O 0.54943 0.30112 0.61381 0.0
In91 In 0.01525 0.26588 0.92737 0.0
O92 O 0.01311 0.2507 0.95342 0.0
O93 O 0.01866 0.23503 0.92792 0.0
C94 C 0.01961 0.3011 0.94963 0.0
C95 C 0.04737 0.26712 0.91151 0.0
C96 C 0.98306 0.26532 0.90672 0.0
O97 O 0.01046 0.28627 0.95411 0.0
O98 O 0.02679 0.29791 0.93459 0.0
O99 O 0.99754 0.27678 0.90614 0.0
O100 O 0.9848 0.25298 0.91667 0.0
C101 C 0.01684 0.23539 0.94519 0.0
O102 O 0.03248 0.2621 0.90181 0.0
O103 O 0.046 0.2714 0.92888 0.0
In104 In 0.42041 0.042 0.2996 0.0
O105 O 0.44138 0.0395 0.27975 0.0
O106 O 0.41586 0.04297 0.26959 0.0
C107 C 0.43586 0.04376 0.3325 0.0
C108 C 0.40577 0.07135 0.30643 0.0
C109 C 0.40132 0.00746 0.2941 0.0
O110 O 0.4448 0.04943 0.31961 0.0
O111 O 0.41943 0.038 0.32863 0.0
O112 O 0.3947 0.02176 0.29299 0.0
O113 O 0.41799 0.01052 0.29684 0.0
C114 C 0.43107 0.04049 0.266 0.0
O115 O 0.39812 0.05476 0.30808 0.0
O116 O 0.4216 0.07337 0.30208 0.0
In117 In 0.29497 0.19009 0.50694 0.0
O118 O 0.29581 0.21686 0.53036 0.0
O119 O 0.30052 0.19166 0.53863 0.0
C120 C 0.29711 0.2034 0.47365 0.0
C121 C 0.32392 0.17448 0.50659 0.0
C122 C 0.26135 0.16791 0.50353 0.0
O123 O 0.29651 0.21425 0.48909 0.0
O124 O 0.2969 0.18636 0.47519 0.0
O125 O 0.27517 0.16128 0.50386 0.0
O126 O 0.26436 0.18587 0.50514 0.0
C127 C 0.29929 0.20875 0.54381 0.0
O128 O 0.30822 0.16477 0.50337 0.0
O129 O 0.32523 0.19242 0.50982 0.0
In130 In 0.16566 0.00874 0.77119 0.0
O131 O 0.13876 0.00458 0.74997 0.0
O132 O 0.16257 0.00836 0.73787 0.0
C133 C 0.14867 0.00984 0.80644 0.0
C134 C 0.18432 0.97716 0.76888 0.0
C135 C 0.18649 0.04697 0.7761 0.0
O136 O 0.14277 0.0148 0.7918 0.0
O137 O 0.1626 1.00357 0.80326 0.0
O138 O 0.18988 0.03276 0.76544 0.0
O139 O 0.17319 0.04198 0.78486 0.0
C140 C 0.14601 0.00633 0.73487 0.0
O141 O 0.19156 0.99483 0.77268 0.0
O142 O 0.16757 0.97506 0.76638 0.0
In143 In 0.31595 0.92604 0.01487 0.0
O144 O 0.3093 0.89974 0.02767 0.0
O145 O 0.31592 0.92774 0.04518 0.0
C146 C 0.31733 0.91412 0.97917 0.0
C147 C 0.29108 0.94512 0.01504 0.0
C148 C 0.3495 0.93761 0.02558 0.0
O149 O 0.3076 0.90403 0.98885 0.0
O150 O 0.32601 0.93023 0.98747 0.0
O151 O 0.33883 0.94874 0.02798 0.0
O152 O 0.3431 0.92059 0.01742 0.0
C153 C 0.31244 0.90986 0.04398 0.0
O154 O 0.30708 0.95331 0.01491 0.0
O155 O 0.28769 0.92736 0.01478 0.0
In156 In 0.30586 0.39179 0.03777 0.0
O157 O 0.30514 0.36574 0.05222 0.0
O158 O 0.29756 0.38999 0.06747 0.0
C159 C 0.30245 0.37016 0.00273 0.0
C160 C 0.27539 0.40558 0.03836 0.0
C161 C 0.34027 0.41342 0.04008 0.0
O162 O 0.30581 0.36368 0.01732 0.0
O163 O 0.30082 0.38731 0.00587 0.0
O164 O 0.32697 0.4183 0.03312 0.0
O165 O 0.33618 0.39835 0.04674 0.0
C166 C 0.29961 0.37317 0.06716 0.0
O167 O 0.28921 0.41388 0.0491 0.0
O168 O 0.27713 0.39085 0.02725 0.0
In169 In 0.77884 0.13728 0.02584 0.0
O170 O 0.79349 0.11417 0.02965 0.0
O171 O 0.80599 0.1382 0.01799 0.0
C172 C 0.74489 0.12266 0.02438 0.0
C173 C 0.78699 0.15981 0.05858 0.0
C174 C 0.7735 0.15415 0.99761 0.0
O175 O 0.75474 0.11404 0.01434 0.0
O176 O 0.75264 0.13698 0.03627 0.0
O177 O 0.77618 0.16295 0.01436 0.0
O178 O 0.77438 0.13674 0.99491 0.0
C179 C 0.80725 0.12306 0.02367 0.0
O180 O 0.79011 0.16555 0.04336 0.0
O181 O 0.7805 0.14213 0.0573 0.0
In182 In 0.18958 0.54376 0.2426 0.0
O183 O 0.21128 0.52884 0.24487 0.0
O184 O 0.1851 0.51266 0.23357 0.0
C185 C 0.20519 0.57906 0.25177 0.0
C186 C 0.17609 0.54565 0.20989 0.0
C187 C 0.17508 0.54043 0.27383 0.0
O188 O 0.21413 0.56649 0.24709 0.0
O189 O 0.18857 0.5736 0.25067 0.0
O190 O 0.16618 0.5344 0.25809 0.0
O191 O 0.19136 0.54728 0.27361 0.0
C192 C 0.20103 0.51286 0.23846 0.0
O193 O 0.16758 0.54715 0.22425 0.0
O194 O 0.19157 0.54277 0.21194 0.0
In195 In 0.8057 0.89025 0.53738 0.0
O196 O 0.80185 0.86387 0.55107 0.0
O197 O 0.80387 0.89075 0.56897 0.0
C198 C 0.80259 0.87036 0.50167 0.0
C199 C 0.77494 0.90362 0.53748 0.0
C200 C 0.84059 0.91044 0.54115 0.0
O201 O 0.80561 0.86311 0.51578 0.0
O202 O 0.8008 0.8874 0.50557 0.0
O203 O 0.82758 0.91854 0.54261 0.0
O204 O 0.83605 0.89248 0.53859 0.0
C205 C 0.80149 0.87279 0.56749 0.0
O206 O 0.78976 0.91358 0.5349 0.0
O207 O 0.77561 0.88706 0.54012 0.0
In208 In 0.93251 0.0682 0.2762 0.0
O209 O 0.95849 0.07394 0.2594 0.0
O210 O 0.93475 0.06235 0.24281 0.0
C211 C 0.95217 0.06904 0.31138 0.0
C212 C 0.91573 0.10207 0.27831 0.0
C213 C 0.91388 0.02834 0.27267 0.0
O214 O 0.95905 0.07493 0.29741 0.0
O215 O 0.93546 0.06414 0.30827 0.0
O216 O 0.90632 0.042 0.27075 0.0
O217 O 0.93048 0.03453 0.27563 0.0
C218 C 0.95133 0.0683 0.2428 0.0
O219 O 0.90747 0.08479 0.2768 0.0
O220 O 0.93223 0.10252 0.2795 0.0
In221 In 0.28047 0.64028 0.52742 0.0
O222 O 0.29519 0.61643 0.52397 0.0
O223 O 0.30949 0.64571 0.53068 0.0
C224 C 0.24673 0.62516 0.52265 0.0
C225 C 0.28319 0.65885 0.56182 0.0
C226 C 0.27946 0.65495 0.49716 0.0
O227 O 0.25777 0.61477 0.52486 0.0
O228 O 0.25293 0.64269 0.52334 0.0
O229 O 0.27875 0.66443 0.51322 0.0
O230 O 0.28165 0.63808 0.49631 0.0
C231 C 0.30998 0.62826 0.52744 0.0
O232 O 0.29034 0.66625 0.54884 0.0
O233 O 0.27485 0.64166 0.5576 0.0
In234 In 0.43164 0.56822 0.77687 0.0
O235 O 0.40652 0.58417 0.7726 0.0
O236 O 0.43052 0.60244 0.78202 0.0
C237 C 0.41144 0.52902 0.77466 0.0
C238 C 0.45124 0.56939 0.74397 0.0
C239 C 0.45304 0.56742 0.81068 0.0
O240 O 0.41105 0.54298 0.78764 0.0
O241 O 0.42089 0.53488 0.76219 0.0
O242 O 0.4582 0.56535 0.79433 0.0
O243 O 0.43768 0.57096 0.81026 0.0
C244 C 0.41435 0.6017 0.77727 0.0
O245 O 0.45668 0.57952 0.76004 0.0
O246 O 0.43616 0.55871 0.7444 0.0
In247 In 0.68965 0.04217 0.74342 0.0
O248 O 0.71173 0.02769 0.74533 0.0
O249 O 0.68567 0.01114 0.73402 0.0
C250 C 0.70563 0.07725 0.74996 0.0
C251 C 0.67515 0.04323 0.71102 0.0
C252 C 0.67665 0.03962 0.77559 0.0
O253 O 0.71412 0.06436 0.74492 0.0
O254 O 0.68918 0.07221 0.75099 0.0
O255 O 0.66737 0.03229 0.76026 0.0
O256 O 0.69253 0.04758 0.77457 0.0
C257 C 0.70179 0.01171 0.73833 0.0
O258 O 0.66695 0.04509 0.72559 0.0
O259 O 0.69064 0.0404 0.71275 0.0
In260 In 0.79469 0.68994 0.00612 0.0
O261 O 0.80627 0.66386 0.00741 0.0
O262 O 0.82439 0.6902 0.00725 0.0
C263 C 0.76113 0.66774 1.00008 0.0
C264 C 0.79967 0.70904 0.04272 0.0
C265 C 0.7969 0.70463 0.97362 0.0
O266 O 0.77458 0.6616 0.99495 0.0
O267 O 0.76456 0.68507 0.00805 0.0
O268 O 0.78831 0.71073 0.98683 0.0
O269 O 0.80469 0.69183 0.97709 0.0
C270 C 0.82223 0.67257 0.00778 0.0
O271 O 0.80231 0.71774 0.02906 0.0
O272 O 0.79443 0.69121 0.03796 0.0
In273 In 0.92049 0.54265 0.80031 0.0
O274 O 0.89825 0.55671 0.80626 0.0
O275 O 0.92243 0.57382 0.80003 0.0
C276 C 0.90186 0.50761 0.79347 0.0
C277 C 0.93291 0.54 0.76737 0.0
C278 C 0.93556 0.54487 0.83348 0.0
O279 O 0.89511 0.52183 0.79234 0.0
O280 O 0.91826 0.51112 0.7985 0.0
O281 O 0.94461 0.54704 0.81971 0.0
O282 O 0.91899 0.54207 0.83038 0.0
C283 C 0.90649 0.57268 0.80354 0.0
O284 O 0.94328 0.54599 0.78218 0.0
O285 O 0.9166 0.53617 0.76945 0.0
In286 In 0.8157 0.42423 0.51592 0.0
O287 O 0.81005 0.39905 0.53051 0.0
O288 O 0.81732 0.42771 0.54649 0.0
C289 C 0.81653 0.41168 0.48027 0.0
C290 C 0.78955 0.44183 0.51668 0.0
C291 C 0.84952 0.43697 0.52425 0.0
O292 O 0.80942 0.40072 0.49089 0.0
O293 O 0.8227 0.42893 0.48757 0.0
O294 O 0.83858 0.44773 0.52703 0.0
O295 O 0.84327 0.41966 0.517 0.0
C296 C 0.81384 0.40999 0.54638 0.0
O297 O 0.80536 0.45064 0.51651 0.0
O298 O 0.78698 0.42396 0.51577 0.0
In299 In 0.66612 0.50843 0.27148 0.0
O300 O 0.69189 0.49434 0.26561 0.0
O301 O 0.66983 0.47601 0.27226 0.0
C302 C 0.68755 0.54612 0.27638 0.0
C303 C 0.64572 0.50727 0.23596 0.0
C304 C 0.64911 0.5098 0.30671 0.0
O305 O 0.6903 0.53194 0.26502 0.0
O306 O 0.67477 0.54121 0.28592 0.0
O307 O 0.64091 0.50795 0.29061 0.0
O308 O 0.66543 0.51033 0.30503 0.0
C309 C 0.6857 0.47745 0.26806 0.0
O310 O 0.64659 0.49258 0.24298 0.0
O311 O 0.65408 0.52206 0.247 0.0
Gd312 Gd 0.0807 0.05771 0.04201 0.0
Gd313 Gd 0.0374 0.03743 0.0203 0.0
C314 C 0.01003 0.97705 0.02791 0.0
C315 C 1.0012 0.96102 0.99571 0.0
C316 C 0.01737 0.99422 0.00254 0.0
C317 C 0.01786 0.99391 0.02151 0.0
C318 C 0.00876 0.97785 0.98942 0.0
C319 C 1.00186 0.96061 0.01492 0.0
C320 C 0.01048 0.97719 0.0472 0.0
C321 C 0.01839 0.99389 0.05961 0.0
N322 N 0.02588 0.01005 0.0337 0.0
C323 C 0.02585 0.01021 0.05267 0.0
H324 H 0.0322 0.02248 0.0629 0.0
C325 C 0.02288 0.01211 0.97835 0.0
N326 N 0.02472 0.01069 0.99689 0.0
C327 C 0.01459 0.99626 0.96483 0.0
C328 C 0.00764 0.97899 0.97037 0.0
H329 H 0.02775 0.02558 0.97395 0.0
H330 H 0.99584 0.94758 0.0196 0.0
H331 H 0.09296 0.07326 1.0015 0.0
H332 H 0.0047 0.96455 0.05264 0.0
H333 H 0.01882 0.99422 0.07459 0.0
H334 H 0.9946 0.9483 0.98583 0.0
H335 H 0.08911 0.06785 0.08873 0.0
H336 H 0.11555 0.13268 0.01446 0.0
H337 H 0.10702 0.10243 0.99161 0.0
H338 H 0.11666 0.14788 0.08112 0.0
H339 H 0.01339 0.99746 0.95018 0.0
H340 H 1.0011 0.96675 0.95989 0.0
H341 H 0.11857 0.14959 0.04775 0.0
H342 H 0.10034 0.09586 0.11388 0.0
N343 N 0.09306 0.0859 0.03044 0.0
C344 C 0.10931 0.1197 0.0191 0.0
C345 C 0.10463 0.10266 0.00621 0.0
C346 C 0.10657 0.11962 0.03795 0.0
C347 C 0.09851 0.10226 0.04331 0.0
C348 C 0.09658 0.08588 0.0121 0.0
N349 N 0.09122 0.08405 0.06674 0.0
C350 C 0.09748 0.10131 0.06205 0.0
C351 C 0.09942 0.09766 0.09938 0.0
C352 C 0.10492 0.11571 0.09482 0.0
C353 C 0.09297 0.08187 0.08509 0.0
C354 C 0.10441 0.11765 0.07597 0.0
H355 H 0.11018 0.12789 0.10588 0.0
O356 O 0.0985 0.04666 0.05894 0.0
O357 O 0.06193 0.02931 0.03153 0.0
O358 O 0.03455 0.05012 0.05111 0.0
O359 O 0.06248 0.06527 0.06542 0.0
O360 O 0.0718 0.03596 0.05956 0.0
O361 O 0.10617 0.05412 0.03237 0.0
O362 O 0.0195 0.04832 0.00334 0.0
O363 O 0.05659 0.06512 0.03054 0.0
O364 O 0.08298 0.04487 0.01046 0.0
O365 O 0.05477 0.03071 0.99609 0.0
O366 O 0.04645 0.05974 0.00281 0.0
O367 O 0.01303 0.04363 0.03112 0.0
C368 C 0.06347 0.02234 0.04646 0.0
C369 C 0.11142 0.13517 0.07065 0.0
C370 C 0.11251 0.13615 0.05166 0.0
C371 C 0.11061 0.04775 0.04724 0.0
C372 C 0.12884 0.05399 0.0554 0.0
C373 C 0.13445 0.06983 0.06997 0.0
C374 C 0.14039 0.04223 0.04963 0.0
C375 C 0.15735 0.04571 0.05873 0.0
C376 C 0.1515 0.07342 0.07905 0.0
C377 C 0.16292 0.06127 0.07359 0.0
C378 C 0.04502 0.05992 0.0662 0.0
C379 C 0.05587 0.07251 0.01595 0.0
C380 C 0.00833 0.04945 0.01599 0.0
C381 C 0.98958 0.04503 0.00935 0.0
C382 C 0.98274 0.03139 0.99316 0.0
C383 C 0.97883 0.05645 0.01827 0.0
C384 C 0.96138 0.05444 0.01093 0.0
C385 C 0.96526 0.02941 0.98585 0.0
C386 C 0.95459 0.04095 0.99467 0.0
C387 C 0.07222 0.0357 0.99518 0.0
H388 H 0.12566 0.07913 0.07454 0.0
H389 H 0.1359 0.02984 0.03852 0.0
H390 H 0.15579 0.08547 0.09045 0.0
H391 H 0.17607 0.06408 0.08079 0.0
H392 H 0.99095 0.02264 0.98595 0.0
H393 H 0.98415 0.06725 0.0306 0.0
H394 H 0.96006 0.01913 0.9732 0.0
H395 H 0.94113 0.03952 0.98873 0.0
Gd396 Gd 0.28273 0.80643 0.30789 0.0
Gd397 Gd 0.30097 0.79204 0.26346 0.0
C398 C 0.28311 0.73338 0.22646 0.0
C399 C 0.31079 0.72272 0.22398 0.0
C400 C 0.30971 0.75231 0.24506 0.0
C401 C 0.29176 0.74967 0.23966 0.0
C402 C 0.3194 0.73888 0.23708 0.0
C403 C 0.2927 0.72 0.21865 0.0
C404 C 0.26508 0.73106 0.22127 0.0
C405 C 0.25579 0.74413 0.22996 0.0
N406 N 0.28276 0.76297 0.2472 0.0
C407 C 0.26481 0.75993 0.24306 0.0
H408 H 0.25706 0.76933 0.24985 0.0
C409 C 0.33601 0.77253 0.26068 0.0
N410 N 0.31788 0.76839 0.25733 0.0
C411 C 0.34603 0.75948 0.25354 0.0
C412 C 0.33768 0.74246 0.24181 0.0
H413 H 0.34303 0.78641 0.26803 0.0
H414 H 0.28625 0.70751 0.20841 0.0
H415 H 0.32619 0.82751 0.32549 0.0
H416 H 0.25825 0.71911 0.21069 0.0
H417 H 0.24168 0.74218 0.22648 0.0
H418 H 0.31807 0.71239 0.21764 0.0
H419 H 0.24069 0.81261 0.30207 0.0
H420 H 0.32639 0.88261 0.35617 0.0
H421 H 0.3419 0.85677 0.34554 0.0
H422 H 0.26663 0.88923 0.34763 0.0
H423 H 0.36031 0.76292 0.25648 0.0
H424 H 0.34555 0.73257 0.23587 0.0
H425 H 0.29843 0.89446 0.35692 0.0
H426 H 0.22385 0.83687 0.31221 0.0
N427 N 0.30101 0.83556 0.32421 0.0
C428 C 0.31917 0.86954 0.34721 0.0
C429 C 0.32792 0.85496 0.34136 0.0
C430 C 0.3012 0.8671 0.34151 0.0
C431 C 0.29236 0.84987 0.32965 0.0
C432 C 0.31864 0.838 0.33 0.0
N433 N 0.26609 0.83053 0.31253 0.0
C434 C 0.27447 0.84724 0.32377 0.0
C435 C 0.23812 0.84019 0.31519 0.0
C436 C 0.24668 0.85773 0.32582 0.0
C437 C 0.24794 0.82659 0.30904 0.0
C438 C 0.26497 0.86137 0.33048 0.0
H439 H 0.23896 0.86811 0.33093 0.0
O440 O 0.2582 0.79236 0.31737 0.0
O441 O 0.28165 0.78386 0.28311 0.0
O442 O 0.27552 0.79986 0.25406 0.0
O443 O 0.26339 0.80778 0.28254 0.0
O444 O 0.28274 0.776 0.30934 0.0
O445 O 0.28114 0.80771 0.33775 0.0
O446 O 0.32527 0.80709 0.25383 0.0
O447 O 0.30202 0.81459 0.28829 0.0
O448 O 0.30822 0.79775 0.31695 0.0
O449 O 0.32035 0.79004 0.28843 0.0
O450 O 0.30015 0.82232 0.26199 0.0
O451 O 0.3023 0.79108 0.23395 0.0
C452 C 0.28243 0.77039 0.29155 0.0
C453 C 0.27377 0.87835 0.34232 0.0
C454 C 0.29185 0.88128 0.34768 0.0
C455 C 0.26456 0.79861 0.33485 0.0
C456 C 0.25424 0.79416 0.35016 0.0
C457 C 0.24168 0.80474 0.35616 0.0
C458 C 0.25856 0.7808 0.3602 0.0
C459 C 0.25072 0.7782 0.37677 0.0
C460 C 0.23374 0.80219 0.37262 0.0
C461 C 0.23839 0.78918 0.38305 0.0
C462 C 0.26288 0.80544 0.26381 0.0
C463 C 0.30068 0.82789 0.27979 0.0
C464 C 0.31881 0.80043 0.23641 0.0
C465 C 0.32685 0.80758 0.2208 0.0
C466 C 0.34258 0.80245 0.21533 0.0
C467 C 0.31863 0.81877 0.21087 0.0
C468 C 0.32671 0.82556 0.19592 0.0
C469 C 0.35025 0.80869 0.1999 0.0
C470 C 0.34241 0.82036 0.19026 0.0
C471 C 0.32099 0.79225 0.30717 0.0
H472 H 0.23847 0.81533 0.34846 0.0
H473 H 0.26807 0.77253 0.355 0.0
H474 H 0.22423 0.81054 0.3775 0.0
H475 H 0.23244 0.7879 0.39607 0.0
H476 H 0.3488 0.7935 0.22288 0.0
H477 H 0.30652 0.82286 0.21526 0.0
H478 H 0.36237 0.80471 0.19559 0.0
H479 H 0.34871 0.82562 0.17861 0.0
Gd480 Gd 0.51773 0.02965 0.54268 0.0
Gd481 Gd 0.56168 0.03225 0.52417 0.0
C482 C 0.60292 0.08838 0.53134 0.0
C483 C 0.60364 0.09401 0.49932 0.0
C484 C 0.58469 0.06533 0.50617 0.0
C485 C 0.58994 0.07139 0.52511 0.0
C486 C 0.59199 0.07624 0.49301 0.0
C487 C 0.60911 0.10007 0.51847 0.0
C488 C 0.61005 0.09255 0.55007 0.0
C489 C 0.60467 0.0796 0.5619 0.0
N490 N 0.58372 0.05974 0.53717 0.0
C491 C 0.5914 0.06324 0.55524 0.0
H492 H 0.58761 0.0535 0.56472 0.0
C493 C 0.57098 0.0397 0.4819 0.0
N494 N 0.57373 0.04793 0.50049 0.0
C495 C 0.57786 0.04998 0.46831 0.0
C496 C 0.58807 0.06852 0.47387 0.0
H497 H 0.56293 0.02541 0.47761 0.0
H498 H 0.61874 0.11338 0.52306 0.0
H499 H 0.49886 1.00287 0.50008 0.0
H500 H 0.62016 0.10534 0.55532 0.0
H501 H 0.6105 0.08235 0.57625 0.0
H502 H 0.60914 0.10275 0.48943 0.0
H503 H 0.51758 0.03586 0.58901 0.0
H504 H 0.46358 0.95331 0.51018 0.0
H505 H 0.4776 0.9731 0.48822 0.0
H506 H 0.46671 0.96129 0.57708 0.0
H507 H 0.57522 0.04363 0.45357 0.0
H508 H 0.59344 0.07644 0.46332 0.0
H509 H 0.45899 0.94961 0.54328 0.0
H510 H 0.50378 0.0185 0.61301 0.0
N511 N 0.49752 1.00078 0.52907 0.0
C512 C 0.47301 0.9666 0.51562 0.0
C513 C 0.48081 0.97775 0.50321 0.0
C514 C 0.47727 0.97285 0.53492 0.0
C515 C 0.48982 0.99014 0.54132 0.0
C516 C 0.49288 0.99494 0.51017 0.0
N517 N 0.50562 0.01387 0.56614 0.0
C518 C 0.49396 0.99691 0.56039 0.0
C519 C 0.50099 0.01223 0.59827 0.0
C520 C 0.48949 0.99439 0.59266 0.0
C521 C 0.50876 0.02199 0.58472 0.0
C522 C 0.48562 0.98664 0.57353 0.0
H523 H 0.48336 0.98692 0.60317 0.0
O524 O 0.5061 0.05159 0.55798 0.0
O525 O 0.54245 0.04917 0.53683 0.0
O526 O 0.56035 0.03253 0.55507 0.0
O527 O 0.53282 0.0152 0.56001 0.0
O528 O 0.53328 0.05636 0.56216 0.0
O529 O 0.49425 0.03685 0.53025 0.0
O530 O 0.56995 0.00627 0.51214 0.0
O531 O 0.53669 0.01327 0.52937 0.0
O532 O 0.51745 0.03196 0.51295 0.0
O533 O 0.54547 0.04424 0.5043 0.0
O534 O 0.54579 0.0071 0.50333 0.0
O535 O 0.58621 0.02521 0.53511 0.0
C536 C 0.54479 0.06254 0.55108 0.0
C537 C 0.47331 0.96933 0.5672 0.0
C538 C 0.46903 0.96257 0.54795 0.0
C539 C 0.49345 0.04983 0.54479 0.0
C540 C 0.4759 0.05135 0.55091 0.0
C541 C 0.46919 0.04268 0.56569 0.0
C542 C 0.46637 0.06298 0.54279 0.0
C543 C 0.45017 0.0658 0.54937 0.0
C544 C 0.45315 0.04562 0.57232 0.0
C545 C 0.44365 0.05707 0.56419 0.0
C546 C 0.54985 0.02145 0.56434 0.0
C547 C 0.5339 1.00123 0.51418 0.0
C548 C 0.58455 0.00953 0.52291 0.0
C549 C 0.60031 0.00576 0.51325 0.0
C550 C 0.60251 0.01067 0.49552 0.0
C551 C 0.61216 0.99563 0.52057 0.0
C552 C 0.6262 0.99072 0.51017 0.0
C553 C 0.6156 0.00509 0.48489 0.0
C554 C 0.62712 0.99503 0.49195 0.0
C555 C 0.52795 0.03988 0.50153 0.0
H556 H 0.47645 0.0339 0.57229 0.0
H557 H 0.47157 0.06989 0.53149 0.0
H558 H 0.44811 0.0391 0.58387 0.0
H559 H 0.43128 0.0593 0.56957 0.0
H560 H 0.59364 0.0182 0.48952 0.0
H561 H 0.61038 0.99161 0.53415 0.0
H562 H 0.61674 0.00842 0.47095 0.0
H563 H 0.63677 0.99057 0.4829 0.0
Gd564 Gd 0.32566 0.27991 0.77686 0.0
Gd565 Gd 0.28174 0.28919 0.77742 0.0
C566 C 0.25265 0.27372 0.71818 0.0
C567 C 0.24962 0.30484 0.71236 0.0
C568 C 0.26416 0.30193 0.74204 0.0
C569 C 0.26134 0.28226 0.73618 0.0
C570 C 0.25789 0.3133 0.73031 0.0
C571 C 0.24708 0.28512 0.70629 0.0
C572 C 0.24962 0.25391 0.71259 0.0
C573 C 0.25472 0.24294 0.72494 0.0
N574 N 0.26671 0.27145 0.74805 0.0
C575 C 0.26296 0.25183 0.74267 0.0
H576 H 0.26669 0.24243 0.75126 0.0
C577 C 0.27271 0.32873 0.7666 0.0
N578 N 0.27216 0.30992 0.75947 0.0
C579 C 0.26681 0.3405 0.75546 0.0
C580 C 0.25961 0.33282 0.73713 0.0
H581 H 0.27764 0.33481 0.781 0.0
H582 H 0.24048 0.27877 0.69247 0.0
H583 H 0.33954 0.32381 0.80332 0.0
H584 H 0.24317 0.24692 0.69886 0.0
H585 H 0.25234 0.22754 0.7208 0.0
H586 H 0.24485 0.3134 0.70318 0.0
H587 H 0.33012 0.23424 0.77019 0.0
H588 H 0.3682 0.31884 0.85325 0.0
H589 H 0.3567 0.33889 0.83325 0.0
H590 H 0.36527 0.25186 0.84718 0.0
H591 H 0.26763 0.35545 0.76112 0.0
H592 H 0.2549 0.34197 0.72856 0.0
H593 H 0.37037 0.28649 0.859 0.0
H594 H 0.34066 0.21212 0.78833 0.0
N595 N 0.34042 0.29536 0.80638 0.0
C596 C 0.36016 0.31218 0.84035 0.0
C597 C 0.35384 0.32348 0.829 0.0
C598 C 0.35656 0.29236 0.83462 0.0
C599 C 0.34671 0.28426 0.81721 0.0
C600 C 0.34403 0.3148 0.81194 0.0
N601 N 0.33576 0.25786 0.793 0.0
C602 C 0.34403 0.26487 0.81046 0.0
C603 C 0.34156 0.22688 0.79479 0.0
C604 C 0.34909 0.23363 0.8132 0.0
C605 C 0.33549 0.23939 0.78464 0.0
C606 C 0.3509 0.25295 0.82106 0.0
H607 H 0.35407 0.22399 0.82095 0.0
O608 O 0.33961 0.27062 0.75273 0.0
O609 O 0.30273 0.28275 0.75784 0.0
O610 O 0.27805 0.2579 0.78002 0.0
O611 O 0.30654 0.252 0.78223 0.0
O612 O 0.31186 0.25726 0.75365 0.0
O613 O 0.35308 0.29381 0.77393 0.0
O614 O 0.26951 0.30619 0.79858 0.0
O615 O 0.30775 0.29398 0.7946 0.0
O616 O 0.32783 0.31036 0.77029 0.0
O617 O 0.30197 0.31896 0.78007 0.0
O618 O 0.28575 0.27991 0.805 0.0
O619 O 0.25403 0.27931 0.78324 0.0
C620 C 0.30205 0.26704 0.74635 0.0
C621 C 0.35998 0.26081 0.83881 0.0
C622 C 0.36291 0.28051 0.84552 0.0
C623 C 0.35431 0.28299 0.75812 0.0
C624 C 0.37095 0.27602 0.75558 0.0
C625 C 0.37504 0.26236 0.76565 0.0
C626 C 0.3826 0.28251 0.74246 0.0
C627 C 0.39799 0.27512 0.73941 0.0
C628 C 0.39012 0.25491 0.7625 0.0
C629 C 0.4015 0.26119 0.74946 0.0
C630 C 0.28889 0.24624 0.7819 0.0
C631 C 0.30227 0.28747 0.80891 0.0
C632 C 0.25458 0.29354 0.79702 0.0
C633 C 0.23793 0.30013 0.802 0.0
C634 C 0.23552 0.31759 0.79775 0.0
C635 C 0.22492 0.28983 0.81211 0.0
C636 C 0.2097 0.29712 0.81749 0.0
C637 C 0.22086 0.32484 0.80323 0.0
C638 C 0.20817 0.3148 0.81292 0.0
C639 C 0.31839 0.32368 0.77455 0.0
H640 H 0.36659 0.25742 0.77596 0.0
H641 H 0.37967 0.29312 0.73461 0.0
H642 H 0.39302 0.24423 0.77023 0.0
H643 H 0.41317 0.25526 0.74728 0.0
H644 H 0.24513 0.32584 0.79036 0.0
H645 H 0.22656 0.27633 0.8156 0.0
H646 H 0.21932 0.33845 0.79996 0.0
H647 H 0.19697 0.32098 0.81692 0.0
Gd648 Gd 0.0598 0.00795 0.50782 0.0
Gd649 Gd 0.0496 0.05241 0.52354 0.0
C650 C 0.06978 0.08121 0.58421 0.0
C651 C 0.0427 0.08713 0.59717 0.0
C652 C 0.04197 0.07147 0.56465 0.0
C653 C 0.06002 0.07257 0.56682 0.0
C654 C 0.03316 0.0791 0.5797 0.0
C655 C 0.06097 0.08815 0.59943 0.0
C656 C 0.08818 0.08318 0.58569 0.0
C657 C 0.0965 0.07719 0.56993 0.0
N658 N 0.06819 0.06617 0.5517 0.0
C659 C 0.08635 0.069 0.55296 0.0
H660 H 0.09335 0.06434 0.54127 0.0
C661 C 0.01582 0.06486 0.54415 0.0
N662 N 0.03318 0.064 0.54752 0.0
C663 C 0.00647 0.07203 0.55866 0.0
C664 C 0.01513 0.07901 0.57658 0.0
H665 H 0.00914 0.05978 0.5302 0.0
H666 H 0.06824 0.09477 0.61287 0.0
H667 H 0.01635 0.99216 0.48955 0.0
H668 H 0.0961 0.08968 0.5988 0.0
H669 H 0.11077 0.07885 0.57081 0.0
H670 H 0.03614 0.09299 0.6089 0.0
H671 H 0.10119 1.00251 0.50196 0.0
H672 H 0.01533 0.96628 0.43244 0.0
H673 H 0.99974 0.97526 0.46026 0.0
H674 H 0.07635 0.96928 0.42277 0.0
H675 H 0.99264 0.07232 0.55597 0.0
H676 H 0.00792 0.08476 0.58778 0.0
H677 H 0.04393 0.96463 0.41847 0.0
H678 H 0.11876 0.99166 0.47645 0.0
N679 N 0.04199 0.9929 0.47943 0.0
C680 C 0.02292 0.97368 0.4455 0.0
C681 C 0.01409 0.97861 0.46118 0.0
C682 C 0.04144 0.97775 0.44704 0.0
C683 C 0.05073 0.98728 0.46445 0.0
C684 C 0.02381 0.98825 0.47803 0.0
N685 N 0.07728 0.99744 0.48418 0.0
C686 C 0.06894 0.98974 0.46689 0.0
C687 C 0.10479 0.99116 0.47351 0.0
C688 C 0.09659 0.98418 0.4554 0.0
C689 C 0.09481 0.99733 0.48789 0.0
C690 C 0.07839 0.98295 0.45199 0.0
H691 H 0.1043 0.97916 0.44432 0.0
O692 O 0.07413 0.99038 0.52104 0.0
O693 O 0.05805 0.02788 0.53503 0.0
O694 O 0.07665 0.05752 0.51271 0.0
O695 O 0.083 0.02868 0.49947 0.0
O696 O 0.08176 0.01949 0.53098 0.0
O697 O 0.04616 0.97977 0.51183 0.0
O698 O 0.03603 0.07061 0.51026 0.0
O699 O 0.05102 0.0322 0.49677 0.0
O700 O 0.0322 1.00293 0.51819 0.0
O701 O 0.02546 0.03198 0.53036 0.0
O702 O 0.02747 0.0408 0.50029 0.0
O703 O 0.06406 0.08023 0.5192 0.0
C704 C 0.07311 0.02758 0.54351 0.0
C705 C 0.0693 0.97445 0.43439 0.0
C706 C 0.05085 0.97181 0.43194 0.0
C707 C 0.0603 0.97662 0.52017 0.0
C708 C 0.06324 0.95724 0.51728 0.0
C709 C 0.07474 0.95107 0.50444 0.0
C710 C 0.05569 0.94537 0.52931 0.0
C711 C 0.05964 0.92741 0.52864 0.0
C712 C 0.07865 0.93302 0.50375 0.0
C713 C 0.07112 0.92118 0.51584 0.0
C714 C 0.08716 0.04753 0.50389 0.0
C715 C 0.03594 0.03191 0.48816 0.0
C716 C 0.05023 0.08384 0.51071 0.0
C717 C 0.04801 0.10355 0.513 0.0
C718 C 0.0364 0.11023 0.52539 0.0
C719 C 0.05599 0.11505 0.50072 0.0
C720 C 0.05185 0.13288 0.50039 0.0
C721 C 0.03246 0.12812 0.52521 0.0
C722 C 0.04 0.13933 0.51264 0.0
C723 C 0.02126 0.0131 0.52609 0.0
H724 H 0.0809 0.96026 0.49525 0.0
H725 H 0.04704 0.95027 0.53949 0.0
H726 H 0.08769 0.92831 0.49403 0.0
H727 H 0.0744 0.90731 0.51539 0.0
H728 H 0.03005 0.10145 0.53482 0.0
H729 H 0.06473 0.10978 0.49087 0.0
H730 H 0.02329 0.13315 0.53458 0.0
H731 H 0.03657 0.15304 0.51242 0.0
Gd732 Gd 0.28862 0.7846 0.77018 0.0
Gd733 Gd 0.32955 0.81073 0.76175 0.0
C734 C 0.33722 0.87487 0.76118 0.0
C735 C 0.34559 0.87649 0.72964 0.0
C736 C 0.33904 0.84583 0.74003 0.0
C737 C 0.33525 0.85475 0.75733 0.0
C738 C 0.34461 0.85669 0.72616 0.0
C739 C 0.34201 0.88557 0.74714 0.0
C740 C 0.33435 0.88372 0.77907 0.0
C741 C 0.32935 0.87259 0.79254 0.0
N742 N 0.33026 0.84398 0.77056 0.0
C743 C 0.32725 0.85274 0.78805 0.0
H744 H 0.32288 0.84479 0.79879 0.0
C745 C 0.34508 0.81816 0.72167 0.0
N746 N 0.33842 0.82675 0.73713 0.0
C747 C 0.35034 0.82819 0.70738 0.0
C748 C 0.34977 0.84749 0.70948 0.0
H749 H 0.34656 0.80356 0.72064 0.0
H750 H 0.34325 0.90093 0.74979 0.0
H751 H 0.29165 0.7485 0.73379 0.0
H752 H 0.33577 0.89909 0.78255 0.0
H753 H 0.32688 0.87927 0.80636 0.0
H754 H 0.34965 0.885 0.71908 0.0
H755 H 0.27282 0.795 0.81169 0.0
H756 H 0.27664 0.69565 0.75253 0.0
H757 H 0.2851 0.71374 0.72739 0.0
H758 H 0.26579 0.71372 0.81655 0.0
H759 H 0.35519 0.82115 0.69498 0.0
H760 H 0.35411 0.85535 0.69852 0.0
H761 H 0.27042 0.69585 0.78598 0.0
H762 H 0.26411 0.77927 0.83847 0.0
N763 N 0.28584 0.75106 0.76262 0.0
C764 C 0.27912 0.71113 0.7555 0.0
C765 C 0.28398 0.72132 0.7413 0.0
C766 C 0.27745 0.72103 0.77336 0.0
C767 C 0.28059 0.74122 0.77647 0.0
C768 C 0.28755 0.7413 0.74511 0.0
N769 N 0.27927 0.77041 0.79574 0.0
C770 C 0.27769 0.75123 0.79363 0.0
C771 C 0.26818 0.77126 0.82609 0.0
C772 C 0.26778 0.7518 0.82477 0.0
C773 C 0.27345 0.78023 0.81112 0.0
C774 C 0.27199 0.74141 0.80818 0.0
H775 H 0.26343 0.74477 0.83627 0.0
O776 O 0.26414 0.7931 0.77496 0.0
O777 O 0.30019 0.81284 0.76123 0.0
O778 O 0.32753 0.8145 0.79248 0.0
O779 O 0.30447 0.79078 0.79784 0.0
O780 O 0.28548 0.81423 0.78363 0.0
O781 O 0.26462 0.77052 0.75144 0.0
O782 O 0.35435 0.80271 0.75641 0.0
O783 O 0.31774 0.78228 0.7705 0.0
O784 O 0.29209 0.7804 0.73962 0.0
O785 O 0.31422 0.80473 0.73385 0.0
O786 O 0.33347 0.78088 0.74911 0.0
O787 O 0.35367 0.82585 0.7795 0.0
C788 C 0.29242 0.82441 0.77182 0.0
C789 C 0.26996 0.72147 0.80547 0.0
C790 C 0.27255 0.7113 0.78805 0.0
C791 C 0.25508 0.78109 0.7608 0.0
C792 C 0.23675 0.77275 0.76373 0.0
C793 C 0.23166 0.77154 0.78187 0.0
C794 C 0.22372 0.76908 0.74863 0.0
C795 C 0.20573 0.76434 0.75168 0.0
C796 C 0.2138 0.76692 0.78494 0.0
C797 C 0.20088 0.76341 0.76996 0.0
C798 C 0.31818 0.80489 0.80361 0.0
C799 C 0.32552 0.77046 0.76028 0.0
C800 C 0.36338 0.81557 0.77003 0.0
C801 C 0.38136 0.82462 0.76663 0.0
C802 C 0.38605 0.82663 0.74854 0.0
C803 C 0.39462 0.82807 0.78136 0.0
C804 C 0.41255 0.83237 0.77793 0.0
C805 C 0.40379 0.83161 0.74514 0.0
C806 C 0.41701 0.83417 0.75965 0.0
C807 C 0.3008 0.79032 0.72822 0.0
H808 H 0.24136 0.77487 0.79382 0.0
H809 H 0.22753 0.77048 0.73467 0.0
H810 H 0.20996 0.7665 0.79901 0.0
H811 H 0.18705 0.7604 0.77273 0.0
H812 H 0.37625 0.82356 0.73683 0.0
H813 H 0.39093 0.82644 0.7953 0.0
H814 H 0.40731 0.83272 0.73106 0.0
H815 H 0.43069 0.83689 0.75636 0.0
Gd816 Gd 0.5305 0.05326 0.98211 0.0
Gd817 Gd 0.5443 0.04569 0.03024 0.0
C818 C 0.59182 0.06761 0.07421 0.0
C819 C 0.60263 0.03877 0.0755 0.0
C820 C 0.57864 0.03843 0.05218 0.0
C821 C 0.57913 0.05757 0.05925 0.0
C822 C 0.59034 0.02885 0.06047 0.0
C823 C 0.60343 0.05811 0.08226 0.0
C824 C 0.59167 0.08659 0.08168 0.0
C825 C 0.57804 0.09458 0.07561 0.0
N826 N 0.56622 0.06582 0.05297 0.0
C827 C 0.56491 0.08363 0.06196 0.0
H828 H 0.55348 0.08942 0.05943 0.0
C829 C 0.56299 0.00907 0.03404 0.0
N830 N 0.56563 0.02864 0.0387 0.0
C831 C 0.57473 0.99924 0.04121 0.0
C832 C 0.58857 0.0092 0.0544 0.0
H833 H 0.55154 1.00082 0.02493 0.0
H834 H 0.61259 0.06542 0.09428 0.0
H835 H 0.52109 0.01023 0.9518 0.0
H836 H 0.60139 0.09479 0.09291 0.0
H837 H 0.57711 0.10885 0.08213 0.0
H838 H 0.6113 0.03148 0.08233 0.0
H839 H 0.52056 0.09732 0.98665 0.0
H840 H 0.46673 0.99869 0.93128 0.0
H841 H 0.49524 0.98857 0.93369 0.0
H842 H 0.44982 0.05802 0.95063 0.0
H843 H 0.57267 0.98387 0.03707 0.0
H844 H 0.5973 1.00144 0.06047 0.0
H845 H 0.44996 0.02461 0.93768 0.0
H846 H 0.49488 0.1112 0.98086 0.0
N847 N 0.50699 0.03164 0.96262 0.0
C848 C 0.47794 0.00807 0.94001 0.0
C849 C 0.49397 1.00228 0.94139 0.0
C850 C 0.47685 0.02635 0.94898 0.0
C851 C 0.49179 0.03806 0.96032 0.0
C852 C 0.50856 0.01452 0.95226 0.0
N853 N 0.50642 0.06829 0.9778 0.0
C854 C 0.4915 0.05684 0.96811 0.0
C855 C 0.49359 0.09586 0.97752 0.0
C856 C 0.47759 0.08403 0.96949 0.0
C857 C 0.50809 0.08783 0.98086 0.0
C858 C 0.47655 0.06439 0.96407 0.0
H859 H 0.46643 0.09033 0.96655 0.0
O860 O 0.5422 0.07884 0.97192 0.0
O861 O 0.55052 0.06075 0.00668 0.0
O862 O 0.54352 0.07622 0.02906 0.0
O863 O 0.52111 0.07217 0.00545 0.0
O864 O 0.56011 0.05789 0.98055 0.0
O865 O 0.53569 0.05024 0.95304 0.0
O866 O 0.52875 0.02076 0.03829 0.0
O867 O 0.52509 0.03701 0.00475 0.0
O868 O 0.53578 0.02382 0.98084 0.0
O869 O 0.55497 0.0268 0.00774 0.0
O870 O 0.51507 0.04393 0.0305 0.0
O871 O 0.53244 0.04888 0.05674 0.0
C872 C 0.56429 0.0621 0.99834 0.0
C873 C 0.46142 0.05246 0.95368 0.0
C874 C 0.46154 0.03346 0.94624 0.0
C875 C 0.5411 0.06882 0.95496 0.0
C876 C 0.54721 0.07758 0.93947 0.0
C877 C 0.54094 0.09324 0.93508 0.0
C878 C 0.55911 0.06975 0.92865 0.0
C879 C 0.56528 0.07793 0.91364 0.0
C880 C 0.54676 0.1011 0.91964 0.0
C881 C 0.55905 0.09356 0.90898 0.0
C882 C 0.53021 0.08175 0.02108 0.0
C883 C 0.51136 0.03725 0.01289 0.0
C884 C 0.52534 0.03051 0.05405 0.0
C885 C 0.5244 0.02101 0.07028 0.0
C886 C 0.53228 0.00535 0.07113 0.0
C887 C 0.51353 0.02637 0.08409 0.0
C888 C 0.51045 0.01614 0.09872 0.0
C889 C 0.52915 0.99506 0.08562 0.0
C890 C 0.51824 1.00035 0.09934 0.0
C891 C 0.54795 0.01819 0.99071 0.0
H892 H 0.53145 0.09916 0.94341 0.0
H893 H 0.56405 0.05773 0.93231 0.0
H894 H 0.54188 0.11311 0.91606 0.0
H895 H 0.56378 0.09993 0.89721 0.0
H896 H 0.5404 1.00069 0.06039 0.0
H897 H 0.5074 0.03842 0.08334 0.0
H898 H 0.53504 0.98283 0.08612 0.0
H899 H 0.51583 0.99207 0.1104 0.0
Gd900 Gd 0.27121 0.23819 0.24475 0.0
Gd901 Gd 0.28916 0.28741 0.26588 0.0
C902 C 0.34569 0.31482 0.25501 0.0
C903 C 0.35982 0.32683 0.28657 0.0
C904 C 0.32935 0.30838 0.2816 0.0
C905 C 0.33007 0.30655 0.26249 0.0
C906 C 0.34414 0.31888 0.29391 0.0
C907 C 0.36059 0.32479 0.26714 0.0
C908 C 0.34573 0.31329 0.23558 0.0
C909 C 0.33052 0.30355 0.22413 0.0
N910 N 0.3153 0.2972 0.25118 0.0
C911 C 0.31548 0.2956 0.2322 0.0
H912 H 0.30423 0.28806 0.22306 0.0
C913 C 0.31185 0.30509 0.30693 0.0
N914 N 0.31383 0.30098 0.28817 0.0
C915 C 0.32616 0.3151 0.31973 0.0
C916 C 0.34247 0.32184 0.31321 0.0
H917 H 0.29898 0.30114 0.31196 0.0
H918 H 0.37266 0.33126 0.26164 0.0
H919 H 0.25814 0.23289 0.29014 0.0
H920 H 0.35732 0.31978 0.22934 0.0
H921 H 0.33015 0.3023 0.20907 0.0
H922 H 0.37127 0.33495 0.29581 0.0
H923 H 0.25609 0.23585 0.19928 0.0
H924 H 0.20608 0.19926 0.28251 0.0
H925 H 0.23343 0.21499 0.30265 0.0
H926 H 0.18761 0.19554 0.21822 0.0
H927 H 0.32446 0.31806 0.33456 0.0
H928 H 0.35345 0.32993 0.3231 0.0
H929 H 0.18917 0.19239 0.2513 0.0
H930 H 0.22911 0.22285 0.17893 0.0
N931 N 0.24658 0.2267 0.26149 0.0
C932 C 0.21727 0.2069 0.27648 0.0
C933 C 0.23268 0.21573 0.28788 0.0
C934 C 0.21625 0.20852 0.25759 0.0
C935 C 0.23119 0.21879 0.25035 0.0
C936 C 0.24713 0.22569 0.28028 0.0
N937 N 0.24454 0.23081 0.22481 0.0
C938 C 0.23008 0.22113 0.23171 0.0
C939 C 0.229 0.22274 0.19382 0.0
C940 C 0.21389 0.2137 0.2009 0.0
C941 C 0.2443 0.23083 0.20584 0.0
C942 C 0.21434 0.21251 0.21991 0.0
H943 H 0.20215 0.20705 0.19143 0.0
O944 O 0.2786 0.2224 0.21902 0.0
O945 O 0.2944 0.26218 0.2475 0.0
O946 O 0.27491 0.28752 0.23792 0.0
O947 O 0.27443 0.25685 0.22239 0.0
O948 O 0.29923 0.23626 0.25225 0.0
O949 O 0.26514 0.20757 0.23978 0.0
O950 O 0.27752 0.30673 0.28433 0.0
O951 O 0.26419 0.26552 0.25559 0.0
O952 O 0.28232 0.23811 0.27459 0.0
O953 O 0.29558 0.27022 0.28731 0.0
O954 O 0.26707 0.27797 0.28337 0.0
O955 O 0.28846 0.31545 0.25922 0.0
C956 C 0.30646 0.25375 0.25132 0.0
C957 C 0.1997 0.20225 0.22713 0.0
C958 C 0.20063 0.20033 0.24592 0.0
C959 C 0.27074 0.20613 0.22308 0.0
C960 C 0.27657 0.18879 0.216 0.0
C961 C 0.26842 0.17754 0.19894 0.0
C962 C 0.28765 0.18175 0.22745 0.0
C963 C 0.29005 0.16317 0.22215 0.0
C964 C 0.27106 0.15901 0.19358 0.0
C965 C 0.28172 0.15169 0.2053 0.0
C966 C 0.27222 0.27443 0.22247 0.0
C967 C 0.25591 0.26752 0.26992 0.0
C968 C 0.28085 0.32009 0.27441 0.0
C969 C 0.2849 0.33968 0.28447 0.0
C970 C 0.28977 0.34448 0.30387 0.0
C971 C 0.27922 0.35276 0.2751 0.0
C972 C 0.27607 0.3697 0.28512 0.0
C973 C 0.2881 0.36213 0.31381 0.0
C974 C 0.28079 0.37451 0.30461 0.0
C975 C 0.2907 0.25196 0.28858 0.0
H976 H 0.25948 0.18282 0.19017 0.0
H977 H 0.29372 0.19034 0.24081 0.0
H978 H 0.26456 0.1502 0.18056 0.0
H979 H 0.28357 0.13721 0.20122 0.0
H980 H 0.29389 0.33433 0.3115 0.0
H981 H 0.27589 0.34889 0.26004 0.0
H982 H 0.29152 0.36574 0.32882 0.0
H983 H 0.27831 0.38742 0.31287 0.0
Gd984 Gd 0.55935 0.50835 0.00951 0.0
Gd985 Gd 0.55127 0.55363 0.02312 0.0
C986 C 0.57085 0.58802 0.08215 0.0
C987 C 0.54334 0.5924 0.09488 0.0
C988 C 0.54286 0.57359 0.06355 0.0
C989 C 0.56125 0.57671 0.06548 0.0
C990 C 0.5338 0.58155 0.07829 0.0
C991 C 0.5618 0.59571 0.09675 0.0
C992 C 0.58933 0.59107 0.08392 0.0
C993 C 0.59789 0.58246 0.06963 0.0
N994 N 0.56978 0.56862 0.05136 0.0
C995 C 0.58798 0.57116 0.05359 0.0
H996 H 0.59543 0.56413 0.04366 0.0
C997 C 0.51587 0.56198 0.0444 0.0
N998 N 0.53383 0.56344 0.0472 0.0
C999 C 0.5064 0.56921 0.05873 0.0
C1000 C 0.51537 0.57888 0.07582 0.0
H1001 H 0.50864 0.55579 0.03091 0.0
H1002 H 0.56899 0.60424 0.10961 0.0
H1003 H 0.51672 0.49641 0.99082 0.0
H1004 H 0.59707 0.59963 0.09645 0.0
H1005 H 0.61217 0.58425 0.07108 0.0
H1006 H 0.53654 0.59854 0.10626 0.0
H1007 H 0.60049 0.50178 0.004 0.0
H1008 H 0.51539 0.47293 0.93275 0.0
H1009 H 0.49983 0.48265 0.96045 0.0
H1010 H 0.57593 0.47078 0.92426 0.0
H1011 H 0.49221 0.56774 0.05639 0.0
H1012 H 0.508 0.58476 0.08681 0.0
H1013 H 0.54384 0.4687 0.91936 0.0
H1014 H 0.61783 0.48999 0.97861 0.0
N1015 N 0.54194 0.49554 0.9807 0.0
C1016 C 0.52296 0.47925 0.9461 0.0
C1017 C 0.51413 0.48468 0.96169 0.0
C1018 C 0.5414 0.48148 0.94806 0.0
C1019 C 0.55066 0.48979 0.96577 0.0
C1020 C 0.52384 0.49258 0.97898 0.0
N1021 N 0.57704 0.49828 0.98592 0.0
C1022 C 0.56874 0.49115 0.96848 0.0
C1023 C 0.60408 0.4904 0.97552 0.0
C1024 C 0.596 0.48402 0.95728 0.0
C1025 C 0.59427 0.49712 0.98982 0.0
C1026 C 0.57804 0.48397 0.95363 0.0
H1027 H 0.60357 0.4786 0.94626 0.0
O1028 O 0.57178 0.48954 0.02283 0.0
O1029 O 0.55848 0.52935 0.03639 0.0
O1030 O 0.57917 0.55765 0.01606 0.0
O1031 O 0.58278 0.52868 1.00014 0.0
O1032 O 0.58145 0.51972 0.03279 0.0
O1033 O 0.54494 0.47921 0.01003 0.0
O1034 O 0.53393 0.57 0.01203 0.0
O1035 O 0.54414 0.52855 0.99898 0.0
O1036 O 0.53375 0.50452 0.02373 0.0
O1037 O 0.52461 0.5324 0.02152 0.0
O1038 O 0.55603 0.55393 0.99253 0.0
O1039 O 0.56204 0.58276 0.01992 0.0
C1040 C 0.57321 0.52853 0.04528 0.0
C1041 C 0.569 0.47628 0.93584 0.0
C1042 C 0.55072 0.47508 0.93305 0.0
C1043 C 0.55804 0.47552 0.01968 0.0
C1044 C 0.56156 0.45635 0.01625 0.0
C1045 C 0.57434 0.45154 0.00441 0.0
C1046 C 0.55367 0.44356 0.0273 0.0
C1047 C 0.55875 0.42608 0.02695 0.0
C1048 C 0.57937 0.43409 0.0039 0.0
C1049 C 0.57171 0.42144 0.01517 0.0
C1050 C 0.58865 0.54727 0.00621 0.0
C1051 C 0.54809 0.53688 0.98498 0.0
C1052 C 0.54702 0.58462 0.01227 0.0
C1053 C 0.54349 0.60377 0.01371 0.0
C1054 C 0.5311 0.60986 0.02535 0.0
C1055 C 0.55208 0.61574 1.00211 0.0
C1056 C 0.54776 0.63347 1.00158 0.0
C1057 C 0.52707 0.62771 0.02515 0.0
C1058 C 0.53521 0.63939 0.01323 0.0
C1059 C 0.52138 0.51465 0.02474 0.0
H1060 H 0.58071 0.46139 0.99598 0.0
H1061 H 0.54388 0.44745 0.03653 0.0
H1062 H 0.58947 0.43052 0.99502 0.0
H1063 H 0.57618 0.40821 0.01496 0.0
H1064 H 0.52443 0.60077 0.03436 0.0
H1065 H 0.56151 0.61089 0.99289 0.0
H1066 H 0.5174 0.63239 0.03404 0.0
H1067 H 0.53169 0.65306 0.01305 0.0
Gd1068 Gd 0.7894 0.28419 0.27101 0.0
Gd1069 Gd 0.8292 0.3121 0.25933 0.0
C1070 C 0.83183 0.37514 0.25832 0.0
C1071 C 0.83973 0.37739 0.22675 0.0
C1072 C 0.83403 0.34643 0.23665 0.0
C1073 C 0.83093 0.3552 0.25446 0.0
C1074 C 0.83882 0.35763 0.22281 0.0
C1075 C 0.83615 0.38609 0.24439 0.0
C1076 C 0.82852 0.38365 0.27616 0.0
C1077 C 0.82474 0.37249 0.28984 0.0
N1078 N 0.82736 0.34448 0.26806 0.0
C1079 C 0.82454 0.35299 0.28569 0.0
H1080 H 0.82155 0.34496 0.29672 0.0
C1081 C 0.83869 0.31893 0.21655 0.0
N1082 N 0.83332 0.32727 0.23309 0.0
C1083 C 0.84326 0.32942 0.20246 0.0
C1084 C 0.84319 0.34883 0.20554 0.0
H1085 H 0.83954 0.30403 0.21423 0.0
H1086 H 0.837 0.40139 0.24721 0.0
H1087 H 0.80287 0.25189 0.23841 0.0
H1088 H 0.82893 0.39885 0.27954 0.0
H1089 H 0.82205 0.37893 0.30367 0.0
H1090 H 0.84343 0.38615 0.21629 0.0
H1091 H 0.77486 0.29355 0.31304 0.0
H1092 H 0.78629 0.19688 0.25283 0.0
H1093 H 0.79958 0.21715 0.23085 0.0
H1094 H 0.76448 0.21076 0.31311 0.0
H1095 H 0.84716 0.32259 0.18938 0.0
H1096 H 0.84703 0.35702 0.19468 0.0
H1097 H 0.77345 0.19468 0.28365 0.0
H1098 H 0.7635 0.27612 0.33789 0.0
N1099 N 0.79053 0.25166 0.26403 0.0
C1100 C 0.7874 0.21221 0.2561 0.0
C1101 C 0.79487 0.22358 0.24366 0.0
C1102 C 0.78184 0.22081 0.27285 0.0
C1103 C 0.78358 0.24084 0.27645 0.0
C1104 C 0.79647 0.24337 0.24792 0.0
N1105 N 0.78053 0.26913 0.29603 0.0
C1106 C 0.77869 0.24988 0.29308 0.0
C1107 C 0.76795 0.26859 0.32548 0.0
C1108 C 0.76651 0.24883 0.32297 0.0
C1109 C 0.77472 0.27851 0.31161 0.0
C1110 C 0.7717 0.23918 0.30651 0.0
H1111 H 0.76107 0.24112 0.33362 0.0
O1112 O 0.76466 0.29267 0.27579 0.0
O1113 O 0.79959 0.31223 0.26058 0.0
O1114 O 0.8291 0.31568 0.2905 0.0
O1115 O 0.80666 0.29189 0.29768 0.0
O1116 O 0.78691 0.31376 0.28476 0.0
O1117 O 0.76509 0.26895 0.25341 0.0
O1118 O 0.854 0.30945 0.24799 0.0
O1119 O 0.81796 0.28276 0.26621 0.0
O1120 O 0.78914 0.2788 0.24043 0.0
O1121 O 0.81316 0.29932 0.23196 0.0
O1122 O 0.84262 0.28694 0.25813 0.0
O1123 O 0.85364 0.32976 0.27446 0.0
C1124 C 0.79218 0.32345 0.27193 0.0
C1125 C 0.76985 0.21924 0.30297 0.0
C1126 C 0.77489 0.21007 0.28617 0.0
C1127 C 0.75562 0.28009 0.26201 0.0
C1128 C 0.73705 0.27239 0.26464 0.0
C1129 C 0.73171 0.2705 0.28255 0.0
C1130 C 0.72418 0.26979 0.2495 0.0
C1131 C 0.7061 0.26533 0.25228 0.0
C1132 C 0.71374 0.26619 0.28535 0.0
C1133 C 0.70099 0.26366 0.27033 0.0
C1134 C 0.82052 0.30614 0.30232 0.0
C1135 C 0.83153 0.27445 0.26455 0.0
C1136 C 0.86294 0.32247 0.26166 0.0
C1137 C 0.88213 0.32844 0.2622 0.0
C1138 C 0.89017 0.33197 0.24586 0.0
C1139 C 0.89256 0.32917 0.27874 0.0
C1140 C 0.91102 0.33349 0.27895 0.0
C1141 C 0.90862 0.33642 0.24616 0.0
C1142 C 0.91904 0.33717 0.26265 0.0
C1143 C 0.7985 0.28614 0.22796 0.0
H1144 H 0.74135 0.27297 0.29449 0.0
H1145 H 0.72821 0.27169 0.23573 0.0
H1146 H 0.70969 0.26516 0.29926 0.0
H1147 H 0.6871 0.26078 0.27289 0.0
H1148 H 0.8822 0.33117 0.23291 0.0
H1149 H 0.88637 0.32597 0.29124 0.0
H1150 H 0.91486 0.33905 0.23358 0.0
H1151 H 0.93335 0.34024 0.26262 0.0
Gd1152 Gd 0.03089 0.55397 0.48201 0.0
Gd1153 Gd 0.0465 0.54772 0.53119 0.0
C1154 C 0.09954 0.56877 0.56795 0.0
C1155 C 0.11028 0.53955 0.5668 0.0
C1156 C 0.08216 0.53915 0.5497 0.0
C1157 C 0.08446 0.5587 0.55573 0.0
C1158 C 0.09482 0.52932 0.55574 0.0
C1159 C 0.11263 0.55923 0.5729 0.0
C1160 C 0.10063 0.58791 0.57576 0.0
C1161 C 0.08681 0.59653 0.57169 0.0
N1162 N 0.07141 0.56757 0.55098 0.0
C1163 C 0.07236 0.58622 0.55938 0.0
H1164 H 0.0621 0.59365 0.55709 0.0
C1165 C 0.06258 0.5099 0.53698 0.0
N1166 N 0.06693 0.52946 0.53929 0.0
C1167 C 0.07474 0.49959 0.54237 0.0
C1168 C 0.09114 0.50936 0.55141 0.0
H1169 H 0.0495 0.50212 0.53118 0.0
H1170 H 0.12431 0.56683 0.58209 0.0
H1171 H 0.02157 0.51109 0.45117 0.0
H1172 H 0.11179 0.59596 0.58545 0.0
H1173 H 0.08707 0.61111 0.57827 0.0
H1174 H 0.12016 0.53223 0.57139 0.0
H1175 H 0.01969 0.59719 0.48454 0.0
H1176 H 0.96623 0.49693 0.43412 0.0
H1177 H 0.99548 0.48823 0.43463 0.0
H1178 H 0.94812 0.55557 0.45377 0.0
H1179 H 0.07126 0.48412 0.53995 0.0
H1180 H 0.10046 0.50135 0.55591 0.0
H1181 H 0.94872 0.52217 0.44123 0.0
H1182 H 0.99336 0.61012 0.48031 0.0
N1183 N 0.00709 0.53173 0.46292 0.0
C1184 C 0.97759 0.50682 0.44211 0.0
C1185 C 0.99405 0.50186 0.44237 0.0
C1186 C 0.97624 0.525 0.45108 0.0
C1187 C 0.9914 0.53732 0.46152 0.0
C1188 C 0.00881 0.51481 0.45223 0.0
N1189 N 0.00591 0.5678 0.47804 0.0
C1190 C 0.99081 0.55592 0.46927 0.0
C1191 C 0.99225 0.59479 0.47768 0.0
C1192 C 0.97613 0.58253 0.47079 0.0
C1193 C 0.00714 0.58722 0.48056 0.0
C1194 C 0.97538 0.56292 0.46584 0.0
H1195 H 0.96466 0.58846 0.46816 0.0
O1196 O 0.04315 0.57988 0.4726 0.0
O1197 O 0.05206 0.55707 0.50438 0.0
O1198 O 0.05146 0.57833 0.5269 0.0
O1199 O 0.02904 0.57857 0.50475 0.0
O1200 O 0.05933 0.55238 0.4774 0.0
O1201 O 0.03696 0.55161 0.45328 0.0
O1202 O 0.02849 0.52447 0.53974 0.0
O1203 O 0.02535 0.54354 0.50816 0.0
O1204 O 0.03103 0.52333 0.48287 0.0
O1205 O 0.05032 0.52351 0.50902 0.0
O1206 O 0.01911 0.55328 0.53495 0.0
O1207 O 0.03742 0.55206 0.55893 0.0
C1208 C 0.06471 0.55502 0.4949 0.0
C1209 C 0.96008 0.55045 0.45634 0.0
C1210 C 0.96046 0.53146 0.44912 0.0
C1211 C 0.04268 0.57017 0.45563 0.0
C1212 C 0.0496 0.57906 0.44053 0.0
C1213 C 0.0447 0.59566 0.43668 0.0
C1214 C 0.06107 0.57057 0.42965 0.0
C1215 C 0.06808 0.57888 0.41509 0.0
C1216 C 0.05143 0.60373 0.42169 0.0
C1217 C 0.06326 0.59543 0.41092 0.0
C1218 C 0.03917 0.58641 0.52038 0.0
C1219 C 0.0133 0.54789 0.51757 0.0
C1220 C 0.02739 0.53485 0.55605 0.0
C1221 C 0.02487 0.52533 0.57207 0.0
C1222 C 0.03225 0.50961 0.57421 0.0
C1223 C 0.01343 0.53148 0.58481 0.0
C1224 C 0.0091 0.52181 0.59949 0.0
C1225 C 0.02798 0.50001 0.58905 0.0
C1226 C 0.01633 0.50602 0.60165 0.0
C1227 C 0.04176 0.51562 0.49242 0.0
H1228 H 0.0356 0.60217 0.44509 0.0
H1229 H 0.06498 0.55782 0.43285 0.0
H1230 H 0.04762 0.61646 0.41851 0.0
H1231 H 0.06871 0.60188 0.39949 0.0
H1232 H 0.04094 0.50453 0.56434 0.0
H1233 H 0.00757 0.54353 0.58309 0.0
H1234 H 0.03355 0.4878 0.59066 0.0
H1235 H 0.01298 0.49844 0.61306 0.0
Gd1236 Gd 0.82545 0.77937 0.27725 0.0
Gd1237 Gd 0.78129 0.78869 0.27589 0.0
C1238 C 0.74607 0.77266 0.22032 0.0
C1239 C 0.74115 0.80355 0.21576 0.0
C1240 C 0.75976 0.80113 0.24303 0.0
C1241 C 0.75687 0.78143 0.23714 0.0
C1242 C 0.75177 0.8123 0.23242 0.0
C1243 C 0.73825 0.78379 0.20978 0.0
C1244 C 0.74381 0.75298 0.21418 0.0
C1245 C 0.75257 0.74251 0.22432 0.0
N1246 N 0.7653 0.77102 0.24712 0.0
C1247 C 0.76333 0.7517 0.24064 0.0
H1248 H 0.77037 0.7429 0.24721 0.0
C1249 C 0.7714 0.82838 0.26638 0.0
N1250 N 0.77007 0.80942 0.2592 0.0
C1251 C 0.76405 0.84 0.25618 0.0
C1252 C 0.75438 0.83198 0.23899 0.0
H1253 H 0.77802 0.8347 0.28015 0.0
H1254 H 0.73004 0.77726 0.19685 0.0
H1255 H 0.83714 0.82314 0.30519 0.0
H1256 H 0.73565 0.74581 0.20138 0.0
H1257 H 0.75126 0.72732 0.21943 0.0
H1258 H 0.735 0.81195 0.20745 0.0
H1259 H 0.8294 0.73351 0.27097 0.0
H1260 H 0.86257 0.81761 0.35674 0.0
H1261 H 0.85209 0.83771 0.33619 0.0
H1262 H 0.86261 0.75091 0.3488 0.0
H1263 H 0.76559 0.85509 0.26177 0.0
H1264 H 0.74854 0.841 0.23117 0.0
H1265 H 0.86628 0.78522 0.36136 0.0
H1266 H 0.83998 0.71152 0.28922 0.0
N1267 N 0.8389 0.79467 0.30747 0.0
C1268 C 0.85602 0.81105 0.34295 0.0
C1269 C 0.85018 0.82243 0.33139 0.0
C1270 C 0.85351 0.79135 0.3365 0.0
C1271 C 0.84482 0.78346 0.31844 0.0
C1272 C 0.84175 0.81402 0.3136 0.0
N1273 N 0.83478 0.75714 0.29374 0.0
C1274 C 0.84259 0.76412 0.31142 0.0
C1275 C 0.84062 0.72622 0.29571 0.0
C1276 C 0.84783 0.73296 0.31422 0.0
C1277 C 0.83451 0.73865 0.2855 0.0
C1278 C 0.84922 0.75218 0.32219 0.0
H1279 H 0.85277 0.72336 0.32205 0.0
O1280 O 0.84013 0.77179 0.25338 0.0
O1281 O 0.80324 0.78276 0.25734 0.0
O1282 O 0.77747 0.75706 0.27749 0.0
O1283 O 0.80596 0.75163 0.28228 0.0
O1284 O 0.81218 0.75736 0.25286 0.0
O1285 O 0.85372 0.79234 0.27649 0.0
O1286 O 0.76986 0.80566 0.2979 0.0
O1287 O 0.80681 0.79335 0.29381 0.0
O1288 O 0.82902 0.81034 0.27257 0.0
O1289 O 0.80146 0.81817 0.27575 0.0
O1290 O 0.78433 0.77912 0.30342 0.0
O1291 O 0.75378 0.7791 0.28245 0.0
C1292 C 0.80289 0.7675 0.24527 0.0
C1293 C 0.8575 0.75988 0.34032 0.0
C1294 C 0.85963 0.77942 0.34746 0.0
C1295 C 0.85512 0.783 0.25996 0.0
C1296 C 0.87116 0.77494 0.25681 0.0
C1297 C 0.87271 0.75842 0.2637 0.0
C1298 C 0.88441 0.7828 0.24576 0.0
C1299 C 0.89888 0.77392 0.24156 0.0
C1300 C 0.88652 0.74933 0.25924 0.0
C1301 C 0.89932 0.75681 0.24815 0.0
C1302 C 0.78826 0.74565 0.28061 0.0
C1303 C 0.80079 0.78657 0.30775 0.0
C1304 C 0.75474 0.79323 0.29646 0.0
C1305 C 0.73827 0.8001 0.30186 0.0
C1306 C 0.73676 0.81835 0.29914 0.0
C1307 C 0.72454 0.78928 0.31086 0.0
C1308 C 0.70954 0.7969 0.31662 0.0
C1309 C 0.72242 0.82592 0.30502 0.0
C1310 C 0.70909 0.81546 0.31364 0.0
C1311 C 0.81891 0.82318 0.27356 0.0
H1312 H 0.86306 0.7523 0.27228 0.0
H1313 H 0.88342 0.79571 0.24055 0.0
H1314 H 0.88722 0.73628 0.26429 0.0
H1315 H 0.90953 0.74894 0.2446 0.0
H1316 H 0.7469 0.82704 0.2927 0.0
H1317 H 0.72552 0.7752 0.31329 0.0
H1318 H 0.72165 0.84017 0.30298 0.0
H1319 H 0.69832 0.82211 0.31818 0.0
Gd1320 Gd 0.782 0.3072 0.80897 0.0
Gd1321 Gd 0.80113 0.29194 0.76534 0.0
C1322 C 0.78098 0.23414 0.72727 0.0
C1323 C 0.80831 0.22314 0.72261 0.0
C1324 C 0.80834 0.25214 0.74507 0.0
C1325 C 0.79037 0.25014 0.74036 0.0
C1326 C 0.81748 0.23863 0.73619 0.0
C1327 C 0.79008 0.22086 0.71822 0.0
C1328 C 0.76266 0.23182 0.72382 0.0
C1329 C 0.75406 0.24475 0.73398 0.0
N1330 N 0.78195 0.26333 0.74927 0.0
C1331 C 0.76384 0.26017 0.74702 0.0
H1332 H 0.75666 0.26932 0.75522 0.0
C1333 C 0.8348 0.27004 0.76255 0.0
N1334 N 0.81683 0.26724 0.75836 0.0
C1335 C 0.84435 0.257 0.75418 0.0
C1336 C 0.83567 0.24121 0.74096 0.0
H1337 H 0.84221 0.28291 0.77155 0.0
H1338 H 0.78311 0.20865 0.70794 0.0
H1339 H 0.82527 0.32845 0.8289 0.0
H1340 H 0.75499 0.21985 0.71375 0.0
H1341 H 0.73987 0.24298 0.73172 0.0
H1342 H 0.81517 0.21276 0.71553 0.0
H1343 H 0.74097 0.31446 0.8005 0.0
H1344 H 0.82234 0.37912 0.86595 0.0
H1345 H 0.83924 0.3554 0.85278 0.0
H1346 H 0.76306 0.38599 0.8544 0.0
H1347 H 0.85853 0.25948 0.75753 0.0
H1348 H 0.84317 0.23127 0.73429 0.0
H1349 H 0.79353 0.38927 0.86747 0.0
H1350 H 0.7236 0.33815 0.81023 0.0
N1351 N 0.79976 0.33571 0.82751 0.0
C1352 C 0.81597 0.36718 0.85506 0.0
C1353 C 0.82548 0.35377 0.84779 0.0
C1354 C 0.79839 0.36512 0.84812 0.0
C1355 C 0.7907 0.34946 0.8337 0.0
C1356 C 0.81714 0.33803 0.83423 0.0
N1357 N 0.76585 0.33181 0.81323 0.0
C1358 C 0.77335 0.3475 0.82632 0.0
C1359 C 0.73768 0.3413 0.81447 0.0
C1360 C 0.74541 0.35782 0.82715 0.0
C1361 C 0.74791 0.32816 0.80825 0.0
C1362 C 0.76324 0.36083 0.83368 0.0
H1363 H 0.73726 0.36764 0.83259 0.0
O1364 O 0.75601 0.29183 0.81421 0.0
O1365 O 0.78185 0.28373 0.78532 0.0
O1366 O 0.77621 0.29941 0.75435 0.0
O1367 O 0.7642 0.30917 0.78242 0.0
O1368 O 0.78366 0.27786 0.81255 0.0
O1369 O 0.77543 0.30802 0.83741 0.0
O1370 O 0.82668 0.30635 0.75808 0.0
O1371 O 0.80162 0.31473 0.78974 0.0
O1372 O 0.80783 0.29925 0.81891 0.0
O1373 O 0.81956 0.28935 0.79054 0.0
O1374 O 0.8006 0.32244 0.76348 0.0
O1375 O 0.80533 0.29138 0.73623 0.0
C1376 C 0.78307 0.27107 0.79488 0.0
C1377 C 0.77078 0.376 0.84829 0.0
C1378 C 0.78819 0.37796 0.85565 0.0
C1379 C 0.75928 0.29816 0.83225 0.0
C1380 C 0.75044 0.28716 0.84526 0.0
C1381 C 0.73262 0.28746 0.84768 0.0
C1382 C 0.76003 0.27881 0.85707 0.0
C1383 C 0.75196 0.27148 0.8718 0.0
C1384 C 0.72449 0.27977 0.8622 0.0
C1385 C 0.73417 0.27194 0.87437 0.0
C1386 C 0.76367 0.30586 0.76362 0.0
C1387 C 0.80084 0.3281 0.78128 0.0
C1388 C 0.82188 0.30042 0.74016 0.0
C1389 C 0.83004 0.3113 0.72671 0.0
C1390 C 0.84665 0.30857 0.72143 0.0
C1391 C 0.82105 0.32273 0.71784 0.0
C1392 C 0.82894 0.33153 0.70379 0.0
C1393 C 0.85436 0.31726 0.70728 0.0
C1394 C 0.84555 0.32874 0.69849 0.0
C1395 C 0.82038 0.29289 0.80925 0.0
H1396 H 0.7252 0.29419 0.83872 0.0
H1397 H 0.77387 0.27871 0.85531 0.0
H1398 H 0.71079 0.28018 0.8642 0.0
H1399 H 0.72776 0.2661 0.8857 0.0
H1400 H 0.85347 0.29938 0.728 0.0
H1401 H 0.80805 0.3246 0.72166 0.0
H1402 H 0.86709 0.31497 0.70304 0.0
H1403 H 0.8516 0.33536 0.68744 0.0
Gd1404 Gd 0.77156 0.74079 0.74677 0.0
Gd1405 Gd 0.79233 0.79065 0.7649 0.0
C1406 C 0.84818 0.81519 0.75086 0.0
C1407 C 0.86328 0.82847 0.78182 0.0
C1408 C 0.83298 0.80964 0.77847 0.0
C1409 C 0.83279 0.80757 0.75911 0.0
C1410 C 0.84826 0.82027 0.79001 0.0
C1411 C 0.86329 0.82584 0.7623 0.0
C1412 C 0.84809 0.81163 0.73133 0.0
C1413 C 0.8331 0.80033 0.72052 0.0
N1414 N 0.81787 0.79747 0.74835 0.0
C1415 C 0.81811 0.79332 0.72925 0.0
H1416 H 0.8071 0.78412 0.72045 0.0
C1417 C 0.81778 0.80458 0.80518 0.0
N1418 N 0.81826 0.80147 0.78602 0.0
C1419 C 0.83259 0.81489 0.81708 0.0
C1420 C 0.84792 0.82272 0.80948 0.0
H1421 H 0.80573 0.80005 0.81159 0.0
H1422 H 0.87509 0.83199 0.75618 0.0
H1423 H 0.75725 0.73169 0.78967 0.0
H1424 H 0.85966 0.81714 0.7245 0.0
H1425 H 0.83306 0.79697 0.70541 0.0
H1426 H 0.87503 0.83679 0.79048 0.0
H1427 H 0.75968 0.73246 0.69994 0.0
H1428 H 0.70159 0.71243 0.78294 0.0
H1429 H 0.72989 0.72105 0.80273 0.0
H1430 H 0.68652 0.70684 0.71766 0.0
H1431 H 0.83196 0.81728 0.83214 0.0
H1432 H 0.8593 0.83095 0.81876 0.0
H1433 H 0.68592 0.70625 0.75123 0.0
H1434 H 0.73299 0.72083 0.67838 0.0
N1435 N 0.7455 0.7316 0.76211 0.0
C1436 C 0.71375 0.7178 0.77697 0.0
C1437 C 0.72968 0.72256 0.78814 0.0
C1438 C 0.71377 0.7192 0.75804 0.0
C1439 C 0.72995 0.72654 0.75089 0.0
C1440 C 0.74545 0.7289 0.7804 0.0
N1441 N 0.74602 0.7332 0.72496 0.0
C1442 C 0.73025 0.72718 0.73186 0.0
C1443 C 0.73191 0.72297 0.69337 0.0
C1444 C 0.71553 0.71807 0.70029 0.0
C1445 C 0.74705 0.73 0.70585 0.0
C1446 C 0.71456 0.71968 0.71964 0.0
H1447 H 0.70385 0.71215 0.69054 0.0
O1448 O 0.77971 0.72289 0.72302 0.0
O1449 O 0.79573 0.76371 0.74788 0.0
O1450 O 0.78195 0.79174 0.73622 0.0
O1451 O 0.77081 0.75925 0.72407 0.0
O1452 O 0.79915 0.73792 0.75429 0.0
O1453 O 0.76625 0.71039 0.74569 0.0
O1454 O 0.78447 0.80912 0.78838 0.0
O1455 O 0.76854 0.76733 0.76423 0.0
O1456 O 0.78231 0.74097 0.77637 0.0
O1457 O 0.79253 0.77365 0.78839 0.0
O1458 O 0.76427 0.79278 0.7578 0.0
O1459 O 0.79637 0.82078 0.76449 0.0
C1460 C 0.80716 0.75482 0.75251 0.0
C1461 C 0.69857 0.71275 0.72687 0.0
C1462 C 0.6982 0.7125 0.74599 0.0
C1463 C 0.77229 0.70758 0.72919 0.0
C1464 C 0.77377 0.68864 0.72053 0.0
C1465 C 0.76286 0.67895 0.70441 0.0
C1466 C 0.78415 0.67924 0.73011 0.0
C1467 C 0.78275 0.65951 0.72474 0.0
C1468 C 0.76187 0.65946 0.69841 0.0
C1469 C 0.77144 0.64964 0.70871 0.0
C1470 C 0.7741 0.77759 0.72266 0.0
C1471 C 0.75679 0.77581 0.75986 0.0
C1472 C 0.7909 0.82413 0.78121 0.0
C1473 C 0.78823 0.84288 0.78887 0.0
C1474 C 0.79875 0.85364 0.80487 0.0
C1475 C 0.77568 0.85035 0.77988 0.0
C1476 C 0.77356 0.86877 0.78688 0.0
C1477 C 0.79674 0.87211 0.81184 0.0
C1478 C 0.7842 0.87972 0.80287 0.0
C1479 C 0.78914 0.75549 0.79016 0.0
H1480 H 0.75464 0.68625 0.69699 0.0
H1481 H 0.79303 0.68754 0.74199 0.0
H1482 H 0.75322 0.65181 0.68613 0.0
H1483 H 0.76968 0.63436 0.70421 0.0
H1484 H 0.80864 0.84785 0.81177 0.0
H1485 H 0.76757 0.84182 0.76751 0.0
H1486 H 0.80499 0.88057 0.82407 0.0
H1487 H 0.78299 0.89421 0.80823 0.0
Gd1488 Gd 0.57971 0.55848 0.54225 0.0
Gd1489 Gd 0.53706 0.53632 0.5206 0.0
C1490 C 0.51018 0.47524 0.52649 0.0
C1491 C 0.50099 0.46026 0.49405 0.0
C1492 C 0.51756 0.49328 0.50174 0.0
C1493 C 0.51811 0.49236 0.52059 0.0
C1494 C 0.50877 0.4773 0.48826 0.0
C1495 C 0.50174 0.45922 0.51313 0.0
C1496 C 0.51076 0.47473 0.54565 0.0
C1497 C 0.51891 0.49103 0.55845 0.0
N1498 N 0.52617 0.5082 0.53317 0.0
C1499 C 0.52637 0.50767 0.55202 0.0
H1500 H 0.53304 0.51957 0.56251 0.0
C1501 C 0.52332 0.51195 0.4782 0.0
N1502 N 0.52502 0.50998 0.49658 0.0
C1503 C 0.51488 0.4965 0.46433 0.0
C1504 C 0.50766 0.47904 0.46936 0.0
H1505 H 0.52819 0.52565 0.47426 0.0
H1506 H 0.49557 0.44602 0.51743 0.0
H1507 H 0.5849 0.57501 0.50056 0.0
H1508 H 0.50491 0.46186 0.5507 0.0
H1509 H 0.51955 0.49082 0.57335 0.0
H1510 H 0.49418 0.44786 0.4839 0.0
H1511 H 0.58599 0.56972 0.5891 0.0
H1512 H 0.61656 0.63134 0.51259 0.0
H1513 H 0.60049 0.60312 0.48981 0.0
H1514 H 0.62516 0.6457 0.57956 0.0
H1515 H 0.51368 0.49818 0.44981 0.0
H1516 H 0.50093 0.46714 0.45862 0.0
H1517 H 0.62561 0.64707 0.54598 0.0
H1518 H 0.60051 0.59707 0.61366 0.0
N1519 N 0.592 0.58617 0.52988 0.0
C1520 C 0.60978 0.61879 0.51758 0.0
C1521 C 0.60076 0.60291 0.5047 0.0
C1522 C 0.60982 0.61837 0.53675 0.0
C1523 C 0.60075 0.60165 0.54256 0.0
C1524 C 0.59199 0.5867 0.51106 0.0
N1525 N 0.5915 0.58477 0.56654 0.0
C1526 C 0.6003 0.601 0.56144 0.0
C1527 C 0.60038 0.59847 0.59905 0.0
C1528 C 0.60897 0.61547 0.59402 0.0
C1529 C 0.59196 0.5831 0.58507 0.0
C1530 C 0.60919 0.61685 0.57504 0.0
H1531 H 0.61566 0.62731 0.60486 0.0
O1532 O 0.59725 0.54808 0.5601 0.0
O1533 O 0.56198 0.52959 0.53176 0.0
O1534 O 0.53403 0.54753 0.55181 0.0
O1535 O 0.56091 0.56694 0.56494 0.0
O1536 O 0.57155 0.53644 0.55985 0.0
O1537 O 0.60513 0.55398 0.53301 0.0
O1538 O 0.51961 0.54791 0.50421 0.0
O1539 O 0.55483 0.56518 0.53114 0.0
O1540 O 0.58278 0.5464 0.51071 0.0
O1541 O 0.55506 0.52954 0.49684 0.0
O1542 O 0.54597 0.55846 0.50312 0.0
O1543 O 0.51128 0.53998 0.53026 0.0
C1544 C 0.56368 0.5227 0.54664 0.0
C1545 C 0.61827 0.63342 0.56932 0.0
C1546 C 0.61857 0.63418 0.55021 0.0
C1547 C 0.60931 0.54812 0.54833 0.0
C1548 C 0.62769 0.55355 0.5563 0.0
C1549 C 0.63335 0.56753 0.57253 0.0
C1550 C 0.63934 0.54272 0.54851 0.0
C1551 C 0.65655 0.54568 0.55686 0.0
C1552 C 0.65062 0.57052 0.58088 0.0
C1553 C 0.66224 0.55963 0.57306 0.0
C1554 C 0.54389 0.55923 0.5664 0.0
C1555 C 0.55351 0.57234 0.51639 0.0
C1556 C 0.50746 0.54736 0.51582 0.0
C1557 C 0.48922 0.54324 0.50734 0.0
C1558 C 0.48456 0.53239 0.48918 0.0
C1559 C 0.47716 0.55295 0.51623 0.0
C1560 C 0.46058 0.55201 0.50691 0.0
C1561 C 0.46819 0.53162 0.47983 0.0
C1562 C 0.45631 0.54148 0.48854 0.0
C1563 C 0.57235 0.53598 0.49565 0.0
H1564 H 0.62443 0.57581 0.57895 0.0
H1565 H 0.6349 0.53168 0.53614 0.0
H1566 H 0.65491 0.58109 0.59354 0.0
H1567 H 0.67553 0.56181 0.57979 0.0
H1568 H 0.49377 0.52514 0.48191 0.0
H1569 H 0.4808 0.5615 0.53019 0.0
H1570 H 0.46483 0.52364 0.46566 0.0
H1571 H 0.4438 0.54101 0.48084 0.0
Gd1572 Gd 0.01834 0.53198 0.04168 0.0
Gd1573 Gd 0.06264 0.53135 0.02696 0.0
C1574 C 0.10153 0.5893 0.03456 0.0
C1575 C 0.10394 0.59398 0.00243 0.0
C1576 C 0.08429 0.56561 0.00918 0.0
C1577 C 0.08892 0.57201 0.02826 0.0
C1578 C 0.0921 0.57641 0.99608 0.0
C1579 C 0.10885 0.6002 0.0216 0.0
C1580 C 0.1075 0.59453 0.05358 0.0
C1581 C 0.10193 0.58202 0.06565 0.0
N1582 N 0.08279 0.56039 0.04042 0.0
C1583 C 0.08991 0.56479 0.05878 0.0
H1584 H 0.087 0.55512 0.06845 0.0
C1585 C 0.07235 0.53953 0.98476 0.0
N1586 N 0.07386 0.54792 0.00332 0.0
C1587 C 0.07937 0.54986 0.9713 0.0
C1588 C 0.08896 0.56857 0.97695 0.0
H1589 H 0.06564 0.52474 0.98016 0.0
H1590 H 0.11915 0.61289 0.02625 0.0
H1591 H 0.00615 0.50373 0.99913 0.0
H1592 H 0.1171 0.60772 0.05889 0.0
H1593 H 0.10716 0.58545 0.08024 0.0
H1594 H 0.11018 0.60233 0.99258 0.0
H1595 H 0.01321 0.53853 0.08799 0.0
H1596 H 0.97283 0.45156 0.00657 0.0
H1597 H 0.98758 0.47224 0.98566 0.0
H1598 H 0.9705 0.45935 0.07312 0.0
H1599 H 0.07763 0.54325 0.95661 0.0
H1600 H 0.09473 0.57642 0.96652 0.0
H1601 H 0.96688 0.44675 0.0392 0.0
H1602 H 0.99906 0.51975 0.1108 0.0
N1603 N 1.00116 0.50187 0.02727 0.0
C1604 C 0.98065 0.46567 0.01253 0.0
C1605 C 0.98887 0.47732 1.00068 0.0
C1606 C 0.98271 0.47231 0.03193 0.0
C1607 C 0.99313 0.49077 0.03902 0.0
C1608 C 0.99915 0.49542 0.00834 0.0
N1609 N 0.00532 0.51567 0.06467 0.0
C1610 C 0.99534 0.4978 0.05822 0.0
C1611 C 0.99804 0.51337 0.09609 0.0
C1612 C 0.98866 0.49457 0.08985 0.0
C1613 C 0.00603 0.52392 0.08321 0.0
C1614 C 0.98696 0.48666 0.0707 0.0
H1615 H 0.98245 0.48644 0.09987 0.0
O1616 O 0.00606 0.55477 0.05397 0.0
O1617 O 0.044 0.55041 0.03647 0.0
O1618 O 0.06153 0.53395 0.05793 0.0
O1619 O 0.03251 0.52121 0.06323 0.0
O1620 O 0.03392 0.55803 0.06174 0.0
O1621 O 0.9926 0.53448 0.02967 0.0
O1622 O 0.07295 0.50979 0.00896 0.0
O1623 O 0.03485 0.51377 0.02547 0.0
O1624 O 0.02207 0.54284 0.01513 0.0
O1625 O 0.04324 0.52806 1.00148 0.0
O1626 O 0.05538 0.5028 0.0354 0.0
O1627 O 0.08708 0.52348 0.03596 0.0
C1628 C 0.04613 0.56345 0.05101 0.0
C1629 C 0.9769 0.46816 0.06371 0.0
C1630 C 0.97479 0.46101 0.04439 0.0
C1631 C 0.99207 0.54956 0.04202 0.0
C1632 C 0.97513 0.5511 0.04977 0.0
C1633 C 0.97039 0.54382 0.06592 0.0
C1634 C 0.96446 0.56185 0.04198 0.0
C1635 C 0.94931 0.56567 0.05052 0.0
C1636 C 0.95549 0.54762 0.07452 0.0
C1637 C 0.94508 0.55859 0.06701 0.0
C1638 C 0.04946 0.52635 0.06814 0.0
C1639 C 0.03866 0.49908 0.0307 0.0
C1640 C 0.08651 0.5107 0.02084 0.0
C1641 C 0.10345 0.50856 0.01312 0.0
C1642 C 0.1093 0.51777 0.9984 0.0
C1643 C 0.11336 0.49622 0.01976 0.0
C1644 C 0.12873 0.49279 0.01127 0.0
C1645 C 0.12453 0.51457 0.99011 0.0
C1646 C 0.13413 0.50219 0.99642 0.0
C1647 C 0.02952 0.53621 1.00041 0.0
H1648 H 0.97835 0.53556 0.07215 0.0
H1649 H 0.96811 0.5674 0.02944 0.0
H1650 H 0.95212 0.54229 0.08722 0.0
H1651 H 0.93387 0.56177 0.0743 0.0
H1652 H 0.10205 0.52732 0.99316 0.0
H1653 H 0.10884 0.48894 0.03106 0.0
H1654 H 0.12889 0.52166 0.97867 0.0
H1655 H 0.14596 0.50009 0.98972 0.0
H1656 H 0.04027 0.21258 0.93673 0.0
H1657 H 0.04786 0.18823 0.95306 0.0
H1658 H 0.00928 0.19796 0.99238 0.0
H1659 H 0.00278 0.22375 0.97681 0.0
H1660 H 0.03452 0.18952 0.0109 0.0
H1661 H 0.00304 0.15664 0.95105 0.0
H1662 H 0.99706 0.14882 0.91655 0.0
H1663 H 0.04926 0.13776 0.91142 0.0
H1664 H 0.05557 0.14566 0.94582 0.0
H1665 H 0.03979 0.09758 0.03864 0.0
H1666 H 0.03266 0.12711 0.03102 0.0
H1667 H 0.06497 0.12305 0.98431 0.0
H1668 H 0.06917 0.09235 0.98998 0.0
H1669 H 0.03839 0.1282 0.97138 0.0
H1670 H 0.07067 0.16091 0.03178 0.0
H1671 H 0.07627 0.16814 0.06629 0.0
H1672 H 0.02401 0.17908 0.07112 0.0
H1673 H 0.018 0.17162 0.03668 0.0
C1674 C 0.03331 0.2095 0.94879 0.0
C1675 C 0.02064 0.21993 0.95517 0.0
C1676 C 0.03758 0.19537 0.95814 0.0
C1677 C 0.02872 0.19041 0.97368 0.0
C1678 C 0.01627 0.20114 0.98036 0.0
C1679 C 0.01244 0.21585 0.97135 0.0
C1680 C 0.03235 0.17395 0.98256 0.0
C1681 C 0.03534 0.17607 1.00224 0.0
C1682 C 0.03351 0.1562 0.97159 0.0
C1683 C 0.02979 0.15188 0.95094 0.0
C1684 C 0.01326 0.15267 0.94252 0.0
C1685 C 0.00981 0.14819 0.923 0.0
C1686 C 0.02278 0.14284 0.9118 0.0
C1687 C 0.03923 0.14193 0.92009 0.0
C1688 C 0.04274 0.14639 0.93958 0.0
C1689 C 0.04575 0.10339 0.02708 0.0
C1690 C 0.05583 0.09297 0.01541 0.0
C1691 C 0.04169 0.12042 0.02271 0.0
C1692 C 0.04826 0.12782 0.007 0.0
C1693 C 0.05939 0.11792 0.99636 0.0
C1694 C 0.06235 0.10047 0.99995 0.0
C1695 C 0.04217 0.14409 0.99971 0.0
C1696 C 0.03813 0.14175 0.98022 0.0
C1697 C 0.0403 0.16153 0.01094 0.0
C1698 C 0.04383 0.16549 0.03165 0.0
C1699 C 0.06031 0.16466 0.04021 0.0
C1700 C 0.06357 0.16884 0.05977 0.0
C1701 C 0.05049 0.17402 0.0709 0.0
C1702 C 0.03412 0.17502 0.0625 0.0
C1703 C 0.03078 0.17081 0.04297 0.0
H1704 H 0.05306 0.17731 0.08602 0.0
H1705 H 0.02007 0.13935 0.8967 0.0
H1706 H 0.11356 0.7925 0.1658 0.0
H1707 H 0.1398 0.7922 0.18575 0.0
H1708 H 0.17112 0.83442 0.15879 0.0
H1709 H 0.14485 0.83354 0.13762 0.0
H1710 H 0.19162 0.81269 0.16692 0.0
H1711 H 0.1556 0.84545 0.20573 0.0
H1712 H 0.12666 0.84896 0.21689 0.0
H1713 H 0.1225 0.79738 0.23943 0.0
H1714 H 0.1514 0.7935 0.22826 0.0
H1715 H 0.26339 0.8285 0.23776 0.0
H1716 H 0.23881 0.83253 0.21733 0.0
H1717 H 0.20253 0.79246 0.24232 0.0
H1718 H 0.22713 0.78977 0.2639 0.0
H1719 H 0.18519 0.816 0.23497 0.0
H1720 H 0.2225 0.78388 0.19393 0.0
H1721 H 0.25014 0.78068 0.17937 0.0
H1722 H 0.25218 0.83374 0.16 0.0
H1723 H 0.22461 0.83729 0.17455 0.0
C1724 C 0.126 0.80179 0.16409 0.0
C1725 C 0.12688 0.81325 0.15021 0.0
C1726 C 0.14113 0.80174 0.17571 0.0
C1727 C 0.15767 0.81382 0.17455 0.0
C1728 C 0.15868 0.82504 0.16034 0.0
C1729 C 0.14356 0.82462 0.14824 0.0
C1730 C 0.17354 0.81477 0.18833 0.0
C1731 C 0.1902 0.81368 0.18182 0.0
C1732 C 0.17214 0.81605 0.20794 0.0
C1733 C 0.15562 0.81919 0.21617 0.0
C1734 C 0.14856 0.83495 0.2132 0.0
C1735 C 0.13215 0.83696 0.21945 0.0
C1736 C 0.12274 0.82339 0.22885 0.0
C1737 C 0.12983 0.80789 0.23218 0.0
C1738 C 0.14626 0.80582 0.22596 0.0
C1739 C 0.25011 0.82075 0.23907 0.0
C1740 C 0.2473 0.80891 0.25261 0.0
C1741 C 0.23596 0.82278 0.22706 0.0
C1742 C 0.2185 0.8123 0.22744 0.0
C1743 C 0.21567 0.80074 0.24136 0.0
C1744 C 0.22979 0.7992 0.25383 0.0
C1745 C 0.20331 0.81333 0.21356 0.0
C1746 C 0.18672 0.81498 0.22009 0.0
C1747 C 0.20494 0.81293 0.19399 0.0
C1748 C 0.22157 0.81088 0.18542 0.0
C1749 C 0.2289 0.79489 0.18664 0.0
C1750 C 0.24454 0.79302 0.17837 0.0
C1751 C 0.25289 0.80699 0.16876 0.0
C1752 C 0.24567 0.82291 0.16743 0.0
C1753 C 0.23003 0.82485 0.17566 0.0
H1754 H 0.26492 0.80544 0.16227 0.0
H1755 H 0.10996 0.82488 0.23355 0.0
H1756 H 0.51293 0.83255 0.43346 0.0
H1757 H 0.51527 0.86523 0.44974 0.0
H1758 H 0.53042 0.84938 0.50198 0.0
H1759 H 0.52693 0.81604 0.4857 0.0
H1760 H 0.51093 0.87424 0.50938 0.0
H1761 H 0.56187 0.87508 0.476 0.0
H1762 H 0.57901 0.86801 0.44895 0.0
H1763 H 0.55146 0.90037 0.41793 0.0
H1764 H 0.53401 0.90743 0.44471 0.0
H1765 H 0.53593 0.97904 0.54131 0.0
H1766 H 0.53338 0.9442 0.53553 0.0
H1767 H 0.51552 0.94144 0.47759 0.0
H1768 H 0.51904 0.97607 0.48315 0.0
H1769 H 0.54244 0.9259 0.4789 0.0
H1770 H 0.4882 0.9197 0.51348 0.0
H1771 H 0.47116 0.92298 0.54121 0.0
H1772 H 0.50883 0.90161 0.57251 0.0
H1773 H 0.52573 0.89742 0.54474 0.0
C1774 C 0.51674 0.83598 0.44842 0.0
C1775 C 0.51992 0.82176 0.45824 0.0
C1776 C 0.51821 0.85477 0.45775 0.0
C1777 C 0.52359 0.8601 0.47707 0.0
C1778 C 0.52639 0.84578 0.48707 0.0
C1779 C 0.52445 0.82674 0.47775 0.0
C1780 C 0.52629 0.88065 0.48644 0.0
C1781 C 0.51804 0.88554 0.50283 0.0
C1782 C 0.53586 0.89559 0.47832 0.0
C1783 C 0.5466 0.89173 0.46234 0.0
C1784 C 0.55944 0.88064 0.46339 0.0
C1785 C 0.56921 0.87663 0.4481 0.0
C1786 C 0.56632 0.88372 0.43173 0.0
C1787 C 0.5537 0.8949 0.43063 0.0
C1788 C 0.5439 0.89895 0.44587 0.0
C1789 C 0.5309 0.97085 0.52752 0.0
C1790 C 0.52756 0.98026 0.51267 0.0
C1791 C 0.52946 0.95088 0.5242 0.0
C1792 C 0.52436 0.94 0.50603 0.0
C1793 C 0.51969 0.94939 0.49168 0.0
C1794 C 0.52154 0.96921 0.49488 0.0
C1795 C 0.52581 0.91951 0.5009 0.0
C1796 C 0.53532 0.91464 0.48549 0.0
C1797 C 0.5178 0.90476 0.51024 0.0
C1798 C 0.50834 0.90854 0.52717 0.0
C1799 C 0.49297 0.91595 0.52636 0.0
C1800 C 0.48331 0.91793 0.54206 0.0
C1801 C 0.48908 0.9129 0.55872 0.0
C1802 C 0.50444 0.90565 0.55966 0.0
C1803 C 0.51399 0.90335 0.54391 0.0
H1804 H 0.48154 0.91444 0.57083 0.0
H1805 H 0.57387 0.88057 0.41989 0.0
H1806 H 0.51665 0.28405 0.61801 0.0
H1807 H 0.48951 0.27968 0.63416 0.0
H1808 H 0.51583 0.32315 0.68079 0.0
H1809 H 0.54322 0.3267 0.66509 0.0
H1810 H 0.49971 0.29561 0.69401 0.0
H1811 H 0.48102 0.32692 0.64507 0.0
H1812 H 0.47429 0.33089 0.61256 0.0
H1813 H 0.43648 0.27726 0.6021 0.0
H1814 H 0.44326 0.27278 0.63441 0.0
H1815 H 0.42671 0.30481 0.74634 0.0
H1816 H 0.45088 0.31173 0.72622 0.0
H1817 H 0.42309 0.26558 0.68273 0.0
H1818 H 0.39878 0.25901 0.7028 0.0
H1819 H 0.439 0.29327 0.66682 0.0
H1820 H 0.45736 0.26114 0.71395 0.0
H1821 H 0.46429 0.25495 0.74558 0.0
H1822 H 0.50295 0.30794 0.75837 0.0
H1823 H 0.49596 0.31466 0.72697 0.0
C1824 C 0.51659 0.29278 0.63166 0.0
C1825 C 0.53213 0.30571 0.64029 0.0
C1826 C 0.50096 0.29038 0.64086 0.0
C1827 C 0.50033 0.30124 0.65872 0.0
C1828 C 0.51581 0.3145 0.66708 0.0
C1829 C 0.53152 0.31658 0.65808 0.0
C1830 C 0.48417 0.29801 0.66942 0.0
C1831 C 0.48651 0.29555 0.68809 0.0
C1832 C 0.46665 0.29684 0.6616 0.0
C1833 C 0.46282 0.29942 0.64209 0.0
C1834 C 0.47142 0.31588 0.63577 0.0
C1835 C 0.46758 0.31823 0.61739 0.0
C1836 C 0.45501 0.30431 0.60526 0.0
C1837 C 0.44625 0.28801 0.61149 0.0
C1838 C 0.45011 0.28555 0.62983 0.0
C1839 C 0.42559 0.29653 0.73228 0.0
C1840 C 0.41078 0.28158 0.72599 0.0
C1841 C 0.43951 0.3003 0.72085 0.0
C1842 C 0.43909 0.28896 0.70298 0.0
C1843 C 0.42386 0.27455 0.69641 0.0
C1844 C 0.40992 0.27082 0.70784 0.0
C1845 C 0.45476 0.2916 0.69155 0.0
C1846 C 0.45227 0.29365 0.67274 0.0
C1847 C 0.47219 0.29222 0.69913 0.0
C1848 C 0.47594 0.28852 0.71822 0.0
C1849 C 0.46715 0.2716 0.72361 0.0
C1850 C 0.47112 0.26798 0.74148 0.0
C1851 C 0.48401 0.28108 0.754 0.0
C1852 C 0.49293 0.29784 0.74869 0.0
C1853 C 0.48894 0.30158 0.73088 0.0
H1854 H 0.48712 0.27821 0.76781 0.0
H1855 H 0.45202 0.30619 0.59105 0.0
H1856 H 0.99278 0.79043 0.60901 0.0
H1857 H 1.0021 0.81427 0.58947 0.0
H1858 H 0.04094 0.84697 0.6342 0.0
H1859 H 0.03097 0.82365 0.65412 0.0
H1860 H 0.0238 0.86882 0.62084 0.0
H1861 H 0.05271 0.81987 0.59351 0.0
H1862 H 0.05436 0.78696 0.5795 0.0
H1863 H 0.01703 0.78747 0.53376 0.0
H1864 H 0.01503 0.82034 0.54761 0.0
H1865 H 0.07025 0.93152 0.56547 0.0
H1866 H 0.06014 0.90921 0.58648 0.0
H1867 H 0.02169 0.87479 0.54222 0.0
H1868 H 0.0325 0.89664 0.52103 0.0
H1869 H 0.03951 0.85335 0.55553 0.0
H1870 H 0.00941 0.90197 0.58539 0.0
H1871 H 0.00411 0.93192 0.60359 0.0
H1872 H 0.04405 0.93095 0.64661 0.0
H1873 H 0.04957 0.90105 0.62866 0.0
C1874 C 0.00316 0.80286 0.61468 0.0
C1875 C 0.01105 0.80552 0.63304 0.0
C1876 C 0.00865 0.81625 0.60345 0.0
C1877 C 0.02244 0.83209 0.61032 0.0
C1878 C 0.0303 0.83474 0.6287 0.0
C1879 C 0.02452 0.82158 0.64008 0.0
C1880 C 0.02784 0.84669 0.59884 0.0
C1881 C 0.02762 0.86554 0.60666 0.0
C1882 C 0.03223 0.84213 0.58023 0.0
C1883 C 0.03364 0.82251 0.57166 0.0
C1884 C 0.0448 0.81293 0.58051 0.0
C1885 C 0.04581 0.79429 0.57259 0.0
C1886 C 0.03578 0.78512 0.55577 0.0
C1887 C 0.02479 0.7946 0.54679 0.0
C1888 C 0.02374 0.81325 0.55464 0.0
C1889 C 0.05952 0.91925 0.56044 0.0
C1890 C 0.05222 0.9154 0.54176 0.0
C1891 C 0.05363 0.90667 0.57243 0.0
C1892 C 0.0401 0.89041 0.56592 0.0
C1893 C 0.03221 0.88721 0.54746 0.0
C1894 C 0.03832 0.89959 0.5354 0.0
C1895 C 0.03543 0.87569 0.57755 0.0
C1896 C 0.03584 0.85672 0.56974 0.0
C1897 C 0.03145 0.88015 0.59634 0.0
C1898 C 0.03003 0.89946 0.60559 0.0
C1899 C 0.01732 0.90841 0.59852 0.0
C1900 C 0.01417 0.92526 0.60888 0.0
C1901 C 0.02368 0.93326 0.62629 0.0
C1902 C 0.03667 0.92472 0.63316 0.0
C1903 C 0.03982 0.90785 0.6229 0.0
H1904 H 0.02091 0.94602 0.63452 0.0
H1905 H 0.03656 0.77068 0.54969 0.0
H1906 H 0.56274 0.8354 0.84725 0.0
H1907 H 0.53415 0.84054 0.83541 0.0
H1908 H 0.50927 0.81718 0.88075 0.0
H1909 H 0.53776 0.81222 0.8928 0.0
H1910 H 0.49473 0.80016 0.84231 0.0
H1911 H 0.51487 0.86224 0.88361 0.0
H1912 H 0.53599 0.89307 0.89455 0.0
H1913 H 0.53093 0.90724 0.83971 0.0
H1914 H 0.51003 0.87641 0.82836 0.0
H1915 H 0.41174 0.81101 0.80592 0.0
H1916 H 0.43605 0.81123 0.82874 0.0
H1917 H 0.46984 0.85465 0.80501 0.0
H1918 H 0.44516 0.8562 0.7839 0.0
H1919 H 0.4784 0.86197 0.83828 0.0
H1920 H 0.46482 0.80299 0.79363 0.0
H1921 H 0.45044 0.77083 0.7764 0.0
H1922 H 0.44959 0.749 0.82783 0.0
H1923 H 0.46324 0.78118 0.84551 0.0
C1924 C 0.55114 0.83137 0.85463 0.0
C1925 C 0.55225 0.82327 0.87078 0.0
C1926 C 0.53498 0.83452 0.84803 0.0
C1927 C 0.51989 0.82942 0.85746 0.0
C1928 C 0.52097 0.82135 0.87354 0.0
C1929 C 0.53713 0.81844 0.88029 0.0
C1930 C 0.50258 0.83074 0.8495 0.0
C1931 C 0.49083 0.81359 0.84163 0.0
C1932 C 0.49828 0.84841 0.84815 0.0
C1933 C 0.5109 0.86695 0.85512 0.0
C1934 C 0.51836 0.87186 0.87385 0.0
C1935 C 0.53028 0.88935 0.88013 0.0
C1936 C 0.53479 0.9021 0.86784 0.0
C1937 C 0.52741 0.89737 0.84923 0.0
C1938 C 0.51552 0.8799 0.84288 0.0
C1939 C 0.42417 0.8211 0.80601 0.0
C1940 C 0.42659 0.8335 0.79292 0.0
C1941 C 0.43814 0.82094 0.81886 0.0
C1942 C 0.45487 0.83262 0.8183 0.0
C1943 C 0.45706 0.84546 0.80573 0.0
C1944 C 0.44299 0.84613 0.79341 0.0
C1945 C 0.47046 0.83123 0.83012 0.0
C1946 C 0.48194 0.84839 0.83903 0.0
C1947 C 0.475 0.81348 0.8314 0.0
C1948 C 0.46482 0.79466 0.82097 0.0
C1949 C 0.46117 0.79147 0.80136 0.0
C1950 C 0.45322 0.77319 0.79149 0.0
C1951 C 0.44921 0.75786 0.801 0.0
C1952 C 0.45276 0.76086 0.82046 0.0
C1953 C 0.46043 0.77916 0.83043 0.0
H1954 H 0.44326 0.74368 0.7933 0.0
H1955 H 0.54399 0.91564 0.87275 0.0
H1956 H 0.52347 0.20972 0.14956 0.0
H1957 H 0.52519 0.1831 0.12467 0.0
H1958 H 0.46899 0.17413 0.1094 0.0
H1959 H 0.46736 0.20141 0.13386 0.0
H1960 H 0.4897 0.14008 0.11241 0.0
H1961 H 0.48495 0.19517 0.08256 0.0
H1962 H 0.49272 0.22793 0.07594 0.0
H1963 H 0.54693 0.22322 0.07199 0.0
H1964 H 0.5395 0.19054 0.07881 0.0
H1965 H 0.49645 0.08589 0.02247 0.0
H1966 H 0.48628 0.10945 0.04506 0.0
H1967 H 0.54071 0.13784 0.06307 0.0
H1968 H 0.55092 0.11387 0.04101 0.0
H1969 H 0.51641 0.16139 0.05672 0.0
H1970 H 0.52604 0.11178 0.08813 0.0
H1971 H 0.52374 0.07987 0.09628 0.0
H1972 H 0.46794 0.07499 0.10105 0.0
H1973 H 0.4698 0.10673 0.09236 0.0
C1974 C 0.51139 0.20146 0.14143 0.0
C1975 C 0.49527 0.20717 0.14338 0.0
C1976 C 0.51243 0.18661 0.12716 0.0
C1977 C 0.49726 0.17733 0.11528 0.0
C1978 C 0.48075 0.18159 0.11852 0.0
C1979 C 0.47979 0.19682 0.13249 0.0
C1980 C 0.49902 0.1639 0.09884 0.0
C1981 C 0.49506 0.14455 0.09994 0.0
C1982 C 0.50685 0.17024 0.08327 0.0
C1983 C 0.51171 0.1906 0.08153 0.0
C1984 C 0.4986 0.20132 0.08075 0.0
C1985 C 0.50292 0.21981 0.07679 0.0
C1986 C 0.52032 0.22768 0.07361 0.0
C1987 C 0.53348 0.21715 0.07453 0.0
C1988 C 0.52923 0.19868 0.07847 0.0
C1989 C 0.50615 0.0972 0.03124 0.0
C1990 C 0.52436 0.09789 0.03088 0.0
C1991 C 0.50036 0.11052 0.04398 0.0
C1992 C 0.51287 0.12475 0.05576 0.0
C1993 C 0.53105 0.12655 0.05409 0.0
C1994 C 0.53681 0.113 0.04167 0.0
C1995 C 0.50715 0.1376 0.07031 0.0
C1996 C 0.51049 0.15682 0.0689 0.0
C1997 C 0.49953 0.13123 0.08594 0.0
C1998 C 0.49798 0.11142 0.08918 0.0
C1999 C 0.51318 0.10369 0.09036 0.0
C2000 C 0.51199 0.08571 0.09522 0.0
C2001 C 0.49571 0.07548 0.09916 0.0
C2002 C 0.48051 0.08297 0.09792 0.0
C2003 C 0.48162 0.10091 0.09296 0.0
H2004 H 0.49496 0.06187 0.10339 0.0
H2005 H 0.52358 0.24192 0.07035 0.0
H2006 H 0.15429 0.34407 0.37031 0.0
H2007 H 0.17771 0.34051 0.34909 0.0
H2008 H 0.1502 0.28234 0.32702 0.0
H2009 H 0.12684 0.28588 0.34779 0.0
H2010 H 0.18783 0.28949 0.34115 0.0
H2011 H 0.14566 0.30985 0.29799 0.0
H2012 H 0.1285 0.33406 0.29293 0.0
H2013 H 0.17606 0.37807 0.3049 0.0
H2014 H 0.19343 0.35403 0.31005 0.0
H2015 H 0.22339 0.24576 0.27417 0.0
H2016 H 0.19802 0.25771 0.28333 0.0
H2017 H 0.22518 0.31435 0.27795 0.0
H2018 H 0.24847 0.30079 0.26303 0.0
H2019 H 0.19276 0.31508 0.28186 0.0
H2020 H 0.23576 0.29103 0.31836 0.0
H2021 H 0.25151 0.26704 0.32737 0.0
H2022 H 0.20174 0.22987 0.33212 0.0
H2023 H 0.18575 0.25354 0.32304 0.0
C2024 C 0.15342 0.33056 0.36092 0.0
C2025 C 0.13904 0.31516 0.3605 0.0
C2026 C 0.1666 0.32863 0.34885 0.0
C2027 C 0.16541 0.31123 0.33669 0.0
C2028 C 0.1511 0.29587 0.33639 0.0
C2029 C 0.13786 0.29788 0.34816 0.0
C2030 C 0.17926 0.30828 0.3245 0.0
C2031 C 0.18911 0.29511 0.32822 0.0
C2032 C 0.18099 0.31611 0.3081 0.0
C2033 C 0.17078 0.33026 0.30419 0.0
C2034 C 0.15242 0.3247 0.29939 0.0
C2035 C 0.14267 0.33836 0.29656 0.0
C2036 C 0.1512 0.35758 0.2985 0.0
C2037 C 0.16948 0.36317 0.30333 0.0
C2038 C 0.17929 0.34954 0.30614 0.0
C2039 C 0.22347 0.26015 0.27297 0.0
C2040 C 0.23844 0.27235 0.26855 0.0
C2041 C 0.20902 0.26729 0.27889 0.0
C2042 C 0.2106 0.2871 0.28297 0.0
C2043 C 0.2241 0.29901 0.27572 0.0
C2044 C 0.23765 0.29134 0.26771 0.0
C2045 C 0.20074 0.29519 0.29788 0.0
C2046 C 0.1919 0.30961 0.29488 0.0
C2047 C 0.19991 0.28843 0.31516 0.0
C2048 C 0.20961 0.27403 0.32004 0.0
C2049 C 0.22822 0.27771 0.32127 0.0
C2050 C 0.23717 0.26418 0.32641 0.0
C2051 C 0.22763 0.24702 0.33043 0.0
C2052 C 0.20912 0.24322 0.32911 0.0
C2053 C 0.20011 0.25667 0.32399 0.0
H2054 H 0.2346 0.23664 0.33455 0.0
H2055 H 0.14364 0.36816 0.29632 0.0
H2056 H 0.93823 0.05946 0.20506 0.0
H2057 H 0.95412 0.0603 0.17677 0.0
H2058 H 0.00385 0.07882 0.21097 0.0
H2059 H 0.98781 0.07856 0.23938 0.0
H2060 H 0.0084 0.09605 0.18247 0.0
H2061 H 0.9853 0.02953 0.18286 0.0
H2062 H 0.96229 1.00075 0.18374 0.0
H2063 H 0.9346 0.00876 0.13384 0.0
H2064 H 0.95732 0.03775 0.13283 0.0
H2065 H 0.06063 0.07412 0.10338 0.0
H2066 H 0.04633 0.07732 0.13287 0.0
H2067 H 0.99512 0.05731 0.1017 0.0
H2068 H 0.00933 0.05377 0.07243 0.0
H2069 H 0.99226 0.04132 0.1294 0.0
H2070 H 0.01486 0.10694 0.12782 0.0
H2071 H 0.0369 0.13632 0.12648 0.0
H2072 H 0.06472 0.13123 0.17751 0.0
H2073 H 0.04299 0.10161 0.179 0.0
C2074 C 0.95256 0.06368 0.20671 0.0
C2075 C 0.96145 0.06875 0.22498 0.0
C2076 C 0.96184 0.06405 0.19025 0.0
C2077 C 0.98063 0.06919 0.19101 0.0
C2078 C 0.98951 0.07464 0.20933 0.0
C2079 C 0.9802 0.0744 0.22583 0.0
C2080 C 0.99081 0.06863 0.17298 0.0
C2081 C 0.00493 0.08387 0.17105 0.0
C2082 C 0.98654 0.05322 0.15728 0.0
C2083 C 0.97288 0.03588 0.15789 0.0
C2084 C 0.97423 0.02521 0.17216 0.0
C2085 C 0.96125 0.00887 0.17267 0.0
C2086 C 0.94697 1.00296 0.15888 0.0
C2087 C 0.94565 0.01337 0.14453 0.0
C2088 C 0.95857 0.02975 0.14397 0.0
C2089 C 0.04632 0.07059 0.10264 0.0
C2090 C 0.03642 0.0637 0.08492 0.0
C2091 C 0.03797 0.07251 0.11981 0.0
C2092 C 0.01925 0.06775 0.12022 0.0
C2093 C 0.00946 0.0611 0.10247 0.0
C2094 C 0.01775 0.05914 0.08541 0.0
C2095 C 0.00978 0.06878 0.1387 0.0
C2096 C 0.99579 0.05356 0.14076 0.0
C2097 C 0.01413 0.0843 0.15436 0.0
C2098 C 0.02743 0.10188 0.15336 0.0
C2099 C 0.02579 0.11195 0.13864 0.0
C2100 C 0.03821 0.12867 0.13788 0.0
C2101 C 0.05224 0.13559 0.15186 0.0
C2102 C 0.05387 0.12581 0.16665 0.0
C2103 C 0.04151 0.10905 0.16746 0.0
H2104 H 0.06182 0.14856 0.15126 0.0
H2105 H 0.93694 0.99029 0.1593 0.0
H2106 H 0.25313 0.67265 0.4917 0.0
H2107 H 0.24843 0.68887 0.46558 0.0
H2108 H 0.29281 0.67048 0.44012 0.0
H2109 H 0.29736 0.65386 0.46623 0.0
H2110 H 0.29383 0.71151 0.45018 0.0
H2111 H 0.25406 0.65173 0.42005 0.0
H2112 H 0.22834 0.62532 0.41992 0.0
H2113 H 0.19408 0.66521 0.42695 0.0
H2114 H 0.21963 0.69192 0.42763 0.0
H2115 H 0.28283 0.76773 0.38109 0.0
H2116 H 0.28901 0.74238 0.39677 0.0
H2117 H 0.23555 0.73262 0.41354 0.0
H2118 H 0.22853 0.75566 0.39566 0.0
H2119 H 0.24204 0.70157 0.40369 0.0
H2120 H 0.2759 0.76028 0.4407 0.0
H2121 H 0.29872 0.79003 0.44992 0.0
H2122 H 0.3397 0.75834 0.44112 0.0
H2123 H 0.31717 0.72849 0.43116 0.0
C2124 C 0.26164 0.67187 0.48031 0.0
C2125 C 0.2757 0.66243 0.48069 0.0
C2126 C 0.25887 0.6809 0.46546 0.0
C2127 C 0.27025 0.68055 0.45113 0.0
C2128 C 0.28389 0.6705 0.45114 0.0
C2129 C 0.28648 0.66116 0.46588 0.0
C2130 C 0.26933 0.69288 0.43758 0.0
C2131 C 0.28278 0.70934 0.43962 0.0
C2132 C 0.25427 0.6901 0.42489 0.0
C2133 C 0.23883 0.67386 0.42391 0.0
C2134 C 0.24107 0.6549 0.42168 0.0
C2135 C 0.22651 0.63987 0.42153 0.0
C2136 C 0.20959 0.64359 0.42343 0.0
C2137 C 0.20719 0.66235 0.42547 0.0
C2138 C 0.22171 0.67743 0.42573 0.0
C2139 C 0.27226 0.75986 0.38773 0.0
C2140 C 0.25514 0.7638 0.38718 0.0
C2141 C 0.27594 0.74562 0.39696 0.0
C2142 C 0.26281 0.73584 0.40649 0.0
C2143 C 0.24588 0.73996 0.40619 0.0
C2144 C 0.24196 0.75347 0.39628 0.0
C2145 C 0.26628 0.72099 0.41664 0.0
C2146 C 0.25336 0.70387 0.41392 0.0
C2147 C 0.28124 0.72388 0.42974 0.0
C2148 C 0.29477 0.74212 0.43472 0.0
C2149 C 0.28975 0.75967 0.44031 0.0
C2150 C 0.30266 0.77657 0.44574 0.0
C2151 C 0.32064 0.77609 0.446 0.0
C2152 C 0.32577 0.75872 0.44078 0.0
C2153 C 0.31293 0.74182 0.43514 0.0
H2154 H 0.33061 0.78917 0.45034 0.0
H2155 H 0.19834 0.63192 0.4233 0.0
H2156 H 0.65992 0.06898 0.69813 0.0
H2157 H 0.63666 0.06121 0.67211 0.0
H2158 H 0.64493 1.00343 0.65992 0.0
H2159 H 0.66881 0.01153 0.68524 0.0
H2160 H 0.63964 0.01851 0.62921 0.0
H2161 H 0.6104 0.01204 0.68708 0.0
H2162 H 0.60337 0.02329 0.7193 0.0
H2163 H 0.58818 0.07188 0.70194 0.0
H2164 H 0.59506 0.06085 0.66964 0.0
H2165 H 0.55851 0.98962 0.57166 0.0
H2166 H 0.58018 0.98904 0.59742 0.0
H2167 H 0.58053 0.04824 0.61979 0.0
H2168 H 0.55889 0.04866 0.59432 0.0
H2169 H 0.58 0.0268 0.64625 0.0
H2170 H 0.61106 0.03947 0.5925 0.0
H2171 H 0.62425 0.03688 0.56221 0.0
H2172 H 0.64003 0.98551 0.57132 0.0
H2173 H 0.62663 0.98759 0.60148 0.0
C2174 C 0.65713 0.05493 0.68929 0.0
C2175 C 0.66587 0.0408 0.69309 0.0
C2176 C 0.64379 0.05042 0.67485 0.0
C2177 C 0.63896 0.03164 0.66487 0.0
C2178 C 0.64859 0.01791 0.66783 0.0
C2179 C 0.66223 0.02257 0.68195 0.0
C2180 C 0.62366 0.02622 0.65142 0.0
C2181 C 0.62643 0.01979 0.63284 0.0
C2182 C 0.60685 0.0287 0.65653 0.0
C2183 C 0.60332 0.03567 0.67605 0.0
C2184 C 0.60569 0.02518 0.69021 0.0
C2185 C 0.60166 0.03149 0.70845 0.0
C2186 C 0.59535 0.0483 0.71267 0.0
C2187 C 0.59305 0.05886 0.69866 0.0
C2188 C 0.59695 0.05256 0.68039 0.0
C2189 C 0.56271 1.00207 0.5827 0.0
C2190 C 0.55717 0.01903 0.58177 0.0
C2191 C 0.57516 1.00186 0.597 0.0
C2192 C 0.5818 0.01863 0.61005 0.0
C2193 C 0.57529 0.03521 0.6097 0.0
C2194 C 0.56291 0.0354 0.59547 0.0
C2195 C 0.59604 0.01944 0.62387 0.0
C2196 C 0.59305 0.02487 0.6426 0.0
C2197 C 0.61284 0.01682 0.61874 0.0
C2198 C 0.61757 0.0135 0.59911 0.0
C2199 C 0.61682 0.02728 0.58777 0.0
C2200 C 0.62453 0.02603 0.57072 0.0
C2201 C 0.63314 0.01116 0.56497 0.0
C2202 C 0.63343 0.99707 0.57584 0.0
C2203 C 0.6257 0.99822 0.59285 0.0
H2204 H 0.63961 0.01058 0.55209 0.0
H2205 H 0.59222 0.05313 0.72679 0.0
H2206 H 0.2861 0.3768 0.9711 0.0
H2207 H 0.28569 0.36012 0.93876 0.0
H2208 H 0.31561 0.32195 0.95814 0.0
H2209 H 0.31577 0.33842 0.99065 0.0
H2210 H 0.33034 0.3387 0.92943 0.0
H2211 H 0.27407 0.30473 0.9413 0.0
H2212 H 0.244 0.30087 0.95192 0.0
H2213 H 0.22825 0.33041 0.90955 0.0
H2214 H 0.25834 0.33477 0.89888 0.0
H2215 H 0.31562 0.27352 0.83787 0.0
H2216 H 0.31698 0.2869 0.87152 0.0
H2217 H 0.29827 0.33543 0.85803 0.0
H2218 H 0.29821 0.3228 0.82443 0.0
H2219 H 0.27746 0.31091 0.88418 0.0
H2220 H 0.33402 0.34984 0.87663 0.0
H2221 H 0.36522 0.35929 0.87002 0.0
H2222 H 0.38009 0.32208 0.90526 0.0
H2223 H 0.34895 0.31254 0.91218 0.0
C2224 C 0.29241 0.3647 0.9685 0.0
C2225 C 0.30103 0.35896 0.98341 0.0
C2226 C 0.29208 0.35511 0.95001 0.0
C2227 C 0.30055 0.33971 0.94598 0.0
C2228 C 0.30892 0.33374 0.9609 0.0
C2229 C 0.30898 0.34313 0.97947 0.0
C2230 C 0.30186 0.33094 0.92611 0.0
C2231 C 0.31876 0.33222 0.91965 0.0
C2232 C 0.28674 0.323 0.91318 0.0
C2233 C 0.26855 0.32025 0.9194 0.0
C2234 C 0.26425 0.31057 0.93435 0.0
C2235 C 0.24719 0.30826 0.94036 0.0
C2236 C 0.23424 0.31544 0.93146 0.0
C2237 C 0.23831 0.32488 0.91646 0.0
C2238 C 0.25537 0.32726 0.91041 0.0
C2239 C 0.31266 0.28749 0.84212 0.0
C2240 C 0.30747 0.29747 0.82855 0.0
C2241 C 0.31318 0.29499 0.86133 0.0
C2242 C 0.30766 0.31214 0.86731 0.0
C2243 C 0.30269 0.32225 0.85376 0.0
C2244 C 0.30283 0.31512 0.83458 0.0
C2245 C 0.30599 0.31886 0.88758 0.0
C2246 C 0.28901 0.31714 0.89407 0.0
C2247 C 0.321 0.32648 0.9006 0.0
C2248 C 0.33918 0.33029 0.89469 0.0
C2249 C 0.3439 0.34342 0.88269 0.0
C2250 C 0.3616 0.34901 0.87912 0.0
C2251 C 0.37465 0.34141 0.88735 0.0
C2252 C 0.36999 0.32802 0.89897 0.0
C2253 C 0.35233 0.32254 0.90274 0.0
H2254 H 0.38835 0.34574 0.88455 0.0
H2255 H 0.22104 0.31365 0.93614 0.0
H2256 H 0.9868 0.08698 0.32709 0.0
H2257 H 0.00319 0.08239 0.35528 0.0
H2258 H 0.95866 0.03915 0.36376 0.0
H2259 H 0.94195 0.04489 0.33653 0.0
H2260 H 0.96971 0.05404 0.39532 0.0
H2261 H 0.007 0.03571 0.34618 0.0
H2262 H 0.02582 0.042 0.32052 0.0
H2263 H 0.06035 0.08873 0.35781 0.0
H2264 H 0.04159 0.08289 0.3836 0.0
H2265 H 0.00604 0.01411 0.46496 0.0
H2266 H 0.99593 0.01914 0.43434 0.0
H2267 H 0.04321 0.06253 0.43511 0.0
H2268 H 0.05457 0.05521 0.46495 0.0
H2269 H 0.03315 0.05102 0.39969 0.0
H2270 H 0.998 0.06908 0.44867 0.0
H2271 H 0.97951 0.0646 0.47492 0.0
H2272 H 0.94055 0.022 0.43781 0.0
H2273 H 0.95933 0.02526 0.41177 0.0
C2274 C 0.98041 0.07653 0.33498 0.0
C2275 C 0.96273 0.06646 0.32914 0.0
C2276 C 0.99004 0.07361 0.35125 0.0
C2277 C 0.98279 0.05991 0.36222 0.0
C2278 C 0.9651 0.04989 0.35621 0.0
C2279 C 0.95535 0.05319 0.34032 0.0
C2280 C 0.99287 0.05622 0.38005 0.0
C2281 C 0.9835 0.053 0.39582 0.0
C2282 C 0.01133 0.05578 0.3821 0.0
C2283 C 0.0228 0.05897 0.36674 0.0
C2284 C 0.01858 0.04735 0.34887 0.0
C2285 C 0.02923 0.05085 0.33431 0.0
C2286 C 0.04424 0.06579 0.33752 0.0
C2287 C 0.04869 0.07719 0.35533 0.0
C2288 C 0.03806 0.07379 0.36992 0.0
C2289 C 0.01495 0.02384 0.45821 0.0
C2290 C 0.03176 0.0332 0.46744 0.0
C2291 C 0.00873 0.02741 0.44067 0.0
C2292 C 0.01814 0.04196 0.43196 0.0
C2293 C 0.03523 0.05125 0.44096 0.0
C2294 C 0.0419 0.04692 0.45822 0.0
C2295 C 0.00959 0.04782 0.41443 0.0
C2296 C 0.01927 0.05173 0.39895 0.0
C2297 C 0.99141 0.04918 0.41261 0.0
C2298 C 0.98014 0.04729 0.42832 0.0
C2299 C 0.98559 0.05858 0.44621 0.0
C2300 C 0.97513 0.05612 0.46111 0.0
C2301 C 0.95897 0.04282 0.45814 0.0
C2302 C 0.95323 0.032 0.44026 0.0
C2303 C 0.96381 0.03407 0.42545 0.0
H2304 H 0.95083 0.04101 0.46967 0.0
H2305 H 0.05244 0.06849 0.32622 0.0
H2306 H 0.25575 0.65914 0.58332 0.0
H2307 H 0.25519 0.68265 0.61188 0.0
H2308 H 0.31034 0.70785 0.60866 0.0
H2309 H 0.31084 0.68477 0.58019 0.0
H2310 H 0.30179 0.69941 0.64345 0.0
H2311 H 0.28295 0.72919 0.5942 0.0
H2312 H 0.26483 0.73552 0.56801 0.0
H2313 H 0.22054 0.73428 0.60147 0.0
H2314 H 0.23831 0.72751 0.62774 0.0
H2315 H 0.32377 0.78789 0.70133 0.0
H2316 H 0.31805 0.76521 0.67213 0.0
H2317 H 0.26275 0.75049 0.68188 0.0
H2318 H 0.26839 0.77397 0.71098 0.0
H2319 H 0.26803 0.75086 0.64557 0.0
H2320 H 0.29325 0.72631 0.69725 0.0
H2321 H 0.31603 0.72457 0.72181 0.0
H2322 H 0.35376 0.72077 0.68085 0.0
H2323 H 0.33155 0.723 0.65622 0.0
C2324 C 0.26776 0.66951 0.58909 0.0
C2325 C 0.28341 0.67031 0.58006 0.0
C2326 C 0.26735 0.68295 0.60505 0.0
C2327 C 0.28268 0.69683 0.61198 0.0
C2328 C 0.29843 0.69715 0.60326 0.0
C2329 C 0.29875 0.68401 0.58723 0.0
C2330 C 0.28282 0.7109 0.62872 0.0
C2331 C 0.29442 0.7107 0.64403 0.0
C2332 C 0.27301 0.72531 0.62915 0.0
C2333 C 0.26181 0.72733 0.61275 0.0
C2334 C 0.2692 0.72973 0.5958 0.0
C2335 C 0.25903 0.73355 0.58098 0.0
C2336 C 0.24151 0.73518 0.58302 0.0
C2337 C 0.23408 0.73288 0.59985 0.0
C2338 C 0.24417 0.72898 0.61468 0.0
C2339 C 0.31031 0.78071 0.69689 0.0
C2340 C 0.29657 0.7826 0.7084 0.0
C2341 C 0.30711 0.7674 0.68038 0.0
C2342 C 0.29017 0.75585 0.6755 0.0
C2343 C 0.27599 0.75917 0.68583 0.0
C2344 C 0.27919 0.77262 0.70226 0.0
C2345 C 0.28736 0.73968 0.66013 0.0
C2346 C 0.27513 0.73936 0.64518 0.0
C2347 C 0.29717 0.72519 0.65972 0.0
C2348 C 0.31072 0.72491 0.6749 0.0
C2349 C 0.30646 0.72534 0.69354 0.0
C2350 C 0.31925 0.7242 0.70745 0.0
C2351 C 0.33624 0.72248 0.70287 0.0
C2352 C 0.34059 0.72208 0.6844 0.0
C2353 C 0.32793 0.72332 0.67047 0.0
H2354 H 0.34604 0.72147 0.71365 0.0
H2355 H 0.23371 0.73834 0.5716 0.0
H2356 H 0.68346 0.07023 0.80348 0.0
H2357 H 0.66705 0.0747 0.83121 0.0
H2358 H 0.63643 0.01677 0.81483 0.0
H2359 H 0.65207 0.01275 0.78649 0.0
H2360 H 0.61639 0.04217 0.82052 0.0
H2361 H 0.67033 0.03231 0.85203 0.0
H2362 H 0.70262 0.04106 0.86041 0.0
H2363 H 0.69826 0.09683 0.88808 0.0
H2364 H 0.666 0.0886 0.87946 0.0
H2365 H 0.56393 0.04183 0.89515 0.0
H2366 H 0.58667 0.03129 0.87612 0.0
H2367 H 0.62033 0.08779 0.89198 0.0
H2368 H 0.59786 0.0981 0.91116 0.0
H2369 H 0.63968 0.0623 0.88746 0.0
H2370 H 0.58936 0.07615 0.85577 0.0
H2371 H 0.55802 0.07289 0.84485 0.0
H2372 H 0.55644 0.01633 0.81463 0.0
H2373 H 0.58758 0.01891 0.82603 0.0
C2374 C 0.67346 0.05838 0.80614 0.0
C2375 C 0.66889 0.04111 0.79324 0.0
C2376 C 0.6642 0.06092 0.8219 0.0
C2377 C 0.65081 0.04592 0.82505 0.0
C2378 C 0.64684 0.02839 0.81252 0.0
C2379 C 0.6557 0.02608 0.79649 0.0
C2380 C 0.63955 0.04896 0.84026 0.0
C2381 C 0.62137 0.04611 0.83523 0.0
C2382 C 0.64643 0.05524 0.85918 0.0
C2383 C 0.66574 0.05985 0.86499 0.0
C2384 C 0.67626 0.04647 0.85983 0.0
C2385 C 0.69457 0.05135 0.86459 0.0
C2386 C 0.70249 0.0695 0.87474 0.0
C2387 C 0.69211 0.08279 0.8802 0.0
C2388 C 0.67381 0.07801 0.87537 0.0
C2389 C 0.57635 0.05178 0.89469 0.0
C2390 C 0.57916 0.07091 0.90377 0.0
C2391 C 0.58927 0.04577 0.88403 0.0
C2392 C 0.60486 0.05897 0.88242 0.0
C2393 C 0.60826 0.07753 0.89298 0.0
C2394 C 0.5954 0.08349 0.90359 0.0
C2395 C 0.61639 0.05464 0.86777 0.0
C2396 C 0.63463 0.05773 0.87281 0.0
C2397 C 0.60965 0.04921 0.8487 0.0
C2398 C 0.59074 0.04756 0.84215 0.0
C2399 C 0.58227 0.06287 0.8471 0.0
C2400 C 0.56452 0.06115 0.84079 0.0
C2401 C 0.55521 0.04438 0.82914 0.0
C2402 C 0.56362 0.02927 0.82378 0.0
C2403 C 0.58129 0.03081 0.83025 0.0
H2404 H 0.5415 0.04311 0.82419 0.0
H2405 H 0.71667 0.07326 0.8784 0.0
H2406 H 0.27402 0.37663 0.0912 0.0
H2407 H 0.26645 0.35881 0.11648 0.0
H2408 H 0.30922 0.32971 0.1047 0.0
H2409 H 0.31578 0.34643 0.07847 0.0
H2410 H 0.28372 0.30536 0.11068 0.0
H2411 H 0.30828 0.37012 0.14508 0.0
H2412 H 0.30988 0.4047 0.15492 0.0
H2413 H 0.25666 0.39296 0.17105 0.0
H2414 H 0.25467 0.35836 0.16108 0.0
H2415 H 0.29135 0.26726 0.19292 0.0
H2416 H 0.29464 0.284 0.16661 0.0
H2417 H 0.25277 0.31257 0.1843 0.0
H2418 H 0.25146 0.2978 0.21231 0.0
H2419 H 0.2751 0.33667 0.17465 0.0
H2420 H 0.25018 0.27239 0.14146 0.0
H2421 H 0.24892 0.23767 0.13445 0.0
H2422 H 0.30179 0.24821 0.1172 0.0
H2423 H 0.30339 0.28298 0.12423 0.0
C2424 C 0.2818 0.36644 0.09409 0.0
C2425 C 0.29552 0.36292 0.08293 0.0
C2426 C 0.27758 0.35636 0.10868 0.0
C2427 C 0.28748 0.34313 0.11294 0.0
C2428 C 0.30131 0.33978 0.10181 0.0
C2429 C 0.30512 0.34938 0.08683 0.0
C2430 C 0.28318 0.33218 0.12843 0.0
C2431 C 0.282 0.31232 0.12471 0.0
C2432 C 0.28017 0.34089 0.14666 0.0
C2433 C 0.28126 0.36171 0.1521 0.0
C2434 C 0.29687 0.37495 0.15053 0.0
C2435 C 0.29785 0.39454 0.15618 0.0
C2436 C 0.28336 0.40102 0.16354 0.0
C2437 C 0.26785 0.38793 0.16529 0.0
C2438 C 0.26679 0.36835 0.15964 0.0
C2439 C 0.28265 0.27689 0.19098 0.0
C2440 C 0.27108 0.28121 0.20453 0.0
C2441 C 0.28439 0.28636 0.17576 0.0
C2442 C 0.27357 0.29923 0.17289 0.0
C2443 C 0.26132 0.30276 0.18604 0.0
C2444 C 0.26037 0.29415 0.20192 0.0
C2445 C 0.27584 0.30991 0.15695 0.0
C2446 C 0.27659 0.32968 0.16057 0.0
C2447 C 0.27825 0.30111 0.13858 0.0
C2448 C 0.27689 0.28023 0.13336 0.0
C2449 C 0.26149 0.26727 0.1361 0.0
C2450 C 0.26074 0.2476 0.13216 0.0
C2451 C 0.27526 0.24074 0.12539 0.0
C2452 C 0.29053 0.25354 0.12241 0.0
C2453 C 0.29135 0.27321 0.12629 0.0
H2454 H 0.27469 0.22551 0.12245 0.0
H2455 H 0.28417 0.41619 0.16794 0.0
H2456 H 0.27384 0.95968 0.98987 0.0
H2457 H 0.2491 0.97576 0.99595 0.0
H2458 H 0.2543 0.97022 0.05428 0.0
H2459 H 0.27859 0.9537 0.048 0.0
H2460 H 0.22062 0.95838 0.03848 0.0
H2461 H 0.26873 0.01248 0.04413 0.0
H2462 H 0.29601 0.0289 0.03257 0.0
H2463 H 0.26606 0.03378 0.98278 0.0
H2464 H 0.23854 0.01734 0.99408 0.0
H2465 H 0.17431 0.02692 0.08057 0.0
H2466 H 0.19482 0.00632 0.07065 0.0
H2467 H 0.18611 0.01418 0.01348 0.0
H2468 H 0.16583 0.03503 0.02341 0.0
H2469 H 0.22078 0.02375 0.02663 0.0
H2470 H 0.17179 0.96868 0.02371 0.0
H2471 H 0.14702 0.94749 0.03501 0.0
H2472 H 0.18095 0.94429 0.0826 0.0
H2473 H 0.20589 0.9654 0.07155 0.0
C2474 C 0.26965 0.96217 0.00393 0.0
C2475 C 0.2777 0.95583 0.01858 0.0
C2476 C 0.2557 0.97123 0.00738 0.0
C2477 C 0.25016 0.9741 0.02554 0.0
C2478 C 0.25852 0.96797 0.04022 0.0
C2479 C 0.27228 0.95874 0.0367 0.0
C2480 C 0.23531 0.98316 0.02922 0.0
C2481 C 0.22061 0.97274 0.03609 0.0
C2482 C 0.23557 1.00171 0.02577 0.0
C2483 C 0.25162 0.01348 0.01984 0.0
C2484 C 0.26795 0.01714 0.03075 0.0
C2485 C 0.28345 0.02642 0.02424 0.0
C2486 C 0.28278 0.03226 0.00689 0.0
C2487 C 0.26654 0.02919 0.9962 0.0
C2488 C 0.25097 0.01997 0.00269 0.0
C2489 C 0.17682 0.02416 0.06592 0.0
C2490 C 0.16895 0.03271 0.05276 0.0
C2491 C 0.18822 0.01221 0.06023 0.0
C2492 C 0.19175 0.00876 0.04136 0.0
C2493 C 0.18337 0.01671 0.02808 0.0
C2494 C 0.17193 0.0286 0.03375 0.0
C2495 C 0.20589 0.99894 0.03599 0.0
C2496 C 0.22061 0.00931 0.02886 0.0
C2497 C 0.20585 0.98047 0.03967 0.0
C2498 C 0.19061 0.96874 0.0469 0.0
C2499 C 0.17388 0.96363 0.03669 0.0
C2500 C 0.15985 0.95155 0.043 0.0
C2501 C 0.1624 0.94458 0.05953 0.0
C2502 C 0.17898 0.9497 0.06981 0.0
C2503 C 0.19307 0.96167 0.06351 0.0
H2504 H 0.15154 0.93519 0.06435 0.0
H2505 H 0.29484 0.03919 1.00174 0.0
H2506 H 0.7496 0.63158 0.97941 0.0
H2507 H 0.72009 0.61065 0.97739 0.0
H2508 H 0.70218 0.65501 0.01376 0.0
H2509 H 0.73157 0.67599 0.0157 0.0
H2510 H 0.69374 0.62176 0.02565 0.0
H2511 H 0.68696 0.64328 0.96856 0.0
H2512 H 0.69449 0.65058 0.93763 0.0
H2513 H 0.69069 0.5909 0.91635 0.0
H2514 H 0.68345 0.58327 0.94731 0.0
H2515 H 0.60266 0.58527 0.01769 0.0
H2516 H 0.6315 0.6036 0.01403 0.0
H2517 H 0.64504 0.5534 0.98274 0.0
H2518 H 0.61547 0.53434 0.98638 0.0
H2519 H 0.65622 0.58804 0.96742 0.0
H2520 H 0.66147 0.56835 0.02748 0.0
H2521 H 0.6532 0.56431 0.05915 0.0
H2522 H 0.65835 0.62498 0.07515 0.0
H2523 H 0.66637 0.62935 0.04348 0.0
C2524 C 0.73931 0.63693 0.98683 0.0
C2525 C 0.74297 0.65544 0.99778 0.0
C2526 C 0.72241 0.62497 0.98559 0.0
C2527 C 0.70881 0.6312 0.99539 0.0
C2528 C 0.71239 0.64982 0.00607 0.0
C2529 C 0.72921 0.66183 0.00714 0.0
C2530 C 0.69127 0.61794 0.99554 0.0
C2531 C 0.6855 0.61455 0.01289 0.0
C2532 C 0.68052 0.60826 0.97893 0.0
C2533 C 0.68492 0.61273 0.96032 0.0
C2534 C 0.68793 0.63173 0.95735 0.0
C2535 C 0.69211 0.63592 0.9398 0.0
C2536 C 0.69314 0.62122 0.92505 0.0
C2537 C 0.68994 0.60228 0.92781 0.0
C2538 C 0.6858 0.598 0.94536 0.0
C2539 C 0.61156 0.57779 0.00997 0.0
C2540 C 0.60653 0.55799 0.00256 0.0
C2541 C 0.62824 0.5885 0.00793 0.0
C2542 C 0.64068 0.57994 0.99841 0.0
C2543 C 0.63571 0.56034 0.99031 0.0
C2544 C 0.61881 0.54941 0.99245 0.0
C2545 C 0.65882 0.59177 0.99756 0.0
C2546 C 0.66463 0.59504 0.98013 0.0
C2547 C 0.66948 0.60178 0.01414 0.0
C2548 C 0.66437 0.59914 0.03307 0.0
C2549 C 0.66066 0.5808 0.0377 0.0
C2550 C 0.65606 0.57846 0.05566 0.0
C2551 C 0.65522 0.59437 0.06914 0.0
C2552 C 0.65898 0.61267 0.06469 0.0
C2553 C 0.66356 0.61508 0.04674 0.0
H2554 H 0.65168 0.59253 0.08305 0.0
H2555 H 0.69637 0.6245 0.91147 0.0
H2556 H 0.71634 0.47313 0.24973 0.0
H2557 H 0.73276 0.44717 0.2473 0.0
H2558 H 0.69603 0.41763 0.28054 0.0
H2559 H 0.67921 0.4432 0.28235 0.0
H2560 H 0.72966 0.41584 0.29298 0.0
H2561 H 0.69741 0.39814 0.23349 0.0
H2562 H 0.68549 0.40194 0.20251 0.0
H2563 H 0.73841 0.41707 0.18629 0.0
H2564 H 0.75064 0.41345 0.21726 0.0
H2565 H 0.76206 0.33099 0.28751 0.0
H2566 H 0.74419 0.35395 0.28357 0.0
H2567 H 0.77824 0.37543 0.24351 0.0
H2568 H 0.79544 0.35051 0.246 0.0
H2569 H 0.74616 0.38178 0.23361 0.0
H2570 H 0.77769 0.39963 0.2954 0.0
H2571 H 0.78753 0.39274 0.32592 0.0
H2572 H 0.73326 0.37557 0.3375 0.0
H2573 H 0.72315 0.38224 0.30696 0.0
C2574 C 0.71156 0.46112 0.2565 0.0
C2575 C 0.69611 0.46089 0.26635 0.0
C2576 C 0.72109 0.44594 0.25501 0.0
C2577 C 0.71609 0.42972 0.26367 0.0
C2578 C 0.70069 0.42954 0.27359 0.0
C2579 C 0.69088 0.44445 0.27463 0.0
C2580 C 0.72708 0.41361 0.26307 0.0
C2581 C 0.73301 0.40844 0.27984 0.0
C2582 C 0.73212 0.40335 0.24626 0.0
C2583 C 0.72494 0.40578 0.22775 0.0
C2584 C 0.70651 0.40246 0.22337 0.0
C2585 C 0.69969 0.40452 0.2058 0.0
C2586 C 0.71119 0.40982 0.19246 0.0
C2587 C 0.72952 0.413 0.19665 0.0
C2588 C 0.73641 0.41092 0.2142 0.0
C2589 C 0.76609 0.3404 0.2777 0.0
C2590 C 0.78113 0.33851 0.26762 0.0
C2591 C 0.75566 0.35414 0.27564 0.0
C2592 C 0.75977 0.3679 0.26392 0.0
C2593 C 0.77441 0.36572 0.25311 0.0
C2594 C 0.78464 0.35132 0.25473 0.0
C2595 C 0.749 0.38424 0.26366 0.0
C2596 C 0.743 0.38937 0.24676 0.0
C2597 C 0.7437 0.39446 0.28035 0.0
C2598 C 0.7497 0.39136 0.29897 0.0
C2599 C 0.76789 0.39444 0.30452 0.0
C2600 C 0.7735 0.39054 0.32178 0.0
C2601 C 0.76102 0.38371 0.33364 0.0
C2602 C 0.74291 0.38088 0.32831 0.0
C2603 C 0.73723 0.38477 0.31106 0.0
H2604 H 0.76539 0.38061 0.34697 0.0
H2605 H 0.70589 0.41142 0.17886 0.0
H2606 H 0.86708 0.46768 0.54905 0.0
H2607 H 0.89557 0.48741 0.54445 0.0
H2608 H 0.90147 0.44476 0.49734 0.0
H2609 H 0.87322 0.42479 0.50211 0.0
H2610 H 0.93218 0.46153 0.52022 0.0
H2611 H 0.88527 0.48152 0.4862 0.0
H2612 H 0.85837 0.49393 0.48063 0.0
H2613 H 0.87762 0.54183 0.52538 0.0
H2614 H 0.90457 0.52967 0.53117 0.0
H2615 H 1.00008 0.51689 0.49191 0.0
H2616 H 0.96969 0.50019 0.486 0.0
H2617 H 0.95547 0.54241 0.52853 0.0
H2618 H 0.98579 0.56161 0.53148 0.0
H2619 H 0.92818 0.52479 0.50489 0.0
H2620 H 0.97426 0.50506 0.54059 0.0
H2621 H 1.00213 0.49438 0.54586 0.0
H2622 H 0.98542 0.44721 0.49996 0.0
H2623 H 0.95732 0.45745 0.49454 0.0
C2624 C 0.87484 0.46231 0.53818 0.0
C2625 C 0.8682 0.44505 0.52577 0.0
C2626 C 0.89082 0.47359 0.53543 0.0
C2627 C 0.89991 0.4676 0.52018 0.0
C2628 C 0.89423 0.44948 0.50898 0.0
C2629 C 0.87834 0.43808 0.51187 0.0
C2630 C 0.91509 0.48059 0.51558 0.0
C2631 C 0.93136 0.47526 0.51661 0.0
C2632 C 0.91373 0.49851 0.51131 0.0
C2633 C 0.89674 0.50457 0.50926 0.0
C2634 C 0.88356 0.4945 0.49506 0.0
C2635 C 0.86839 0.50157 0.49177 0.0
C2636 C 0.86626 0.51863 0.50267 0.0
C2637 C 0.87924 0.5286 0.51698 0.0
C2638 C 0.89445 0.52163 0.52026 0.0
C2639 C 0.99026 0.52371 0.49852 0.0
C2640 C 0.99493 0.54091 0.51139 0.0
C2641 C 0.97297 0.51383 0.49557 0.0
C2642 C 0.96081 0.51982 0.50737 0.0
C2643 C 0.96496 0.53771 0.51936 0.0
C2644 C 0.98214 0.54848 0.52118 0.0
C2645 C 0.94531 0.50593 0.50987 0.0
C2646 C 0.92899 0.51102 0.50841 0.0
C2647 C 0.94669 0.48791 0.51413 0.0
C2648 C 0.96381 0.48213 0.51705 0.0
C2649 C 0.9766 0.4925 0.53154 0.0
C2650 C 0.99242 0.48651 0.53457 0.0
C2651 C 0.99563 0.47025 0.52317 0.0
C2652 C 0.98296 0.45985 0.50875 0.0
C2653 C 0.96706 0.46569 0.50573 0.0
H2654 H 0.00789 0.46566 0.52556 0.0
H2655 H 0.85458 0.52417 0.5 0.0
H2656 H 0.41494 0.10243 0.29031 0.0
H2657 H 0.39387 0.1186 0.27708 0.0
H2658 H 0.35156 0.08645 0.30282 0.0
H2659 H 0.37244 0.07014 0.31607 0.0
H2660 H 0.34517 0.08643 0.26288 0.0
H2661 H 0.36501 0.12876 0.32296 0.0
H2662 H 0.3907 0.14479 0.34559 0.0
H2663 H 0.41284 0.17745 0.30504 0.0
H2664 H 0.38737 0.1613 0.28203 0.0
H2665 H 0.27976 0.13535 0.24216 0.0
H2666 H 0.29929 0.12165 0.26113 0.0
H2667 H 0.34485 0.16079 0.24754 0.0
H2668 H 0.32525 0.1751 0.22952 0.0
H2669 H 0.34935 0.1563 0.28198 0.0
H2670 H 0.32918 0.11547 0.22196 0.0
H2671 H 0.30707 0.09571 0.19696 0.0
H2672 H 0.28816 0.05775 0.23443 0.0
H2673 H 0.30987 0.07755 0.25981 0.0
C2674 C 0.40129 0.09933 0.29368 0.0
C2675 C 0.39521 0.0852 0.30418 0.0
C2676 C 0.38929 0.10823 0.28585 0.0
C2677 C 0.37136 0.10327 0.28888 0.0
C2678 C 0.36543 0.09005 0.30027 0.0
C2679 C 0.37738 0.08114 0.30808 0.0
C2680 C 0.35882 0.11261 0.28082 0.0
C2681 C 0.34575 0.10163 0.26712 0.0
C2682 C 0.36026 0.13239 0.28635 0.0
C2683 C 0.37424 0.14397 0.30086 0.0
C2684 C 0.37526 0.13954 0.31897 0.0
C2685 C 0.38983 0.14853 0.3318 0.0
C2686 C 0.40338 0.16216 0.32676 0.0
C2687 C 0.40229 0.16694 0.30893 0.0
C2688 C 0.38776 0.15792 0.296 0.0
C2689 C 0.29395 0.14103 0.24352 0.0
C2690 C 0.30131 0.15582 0.23432 0.0
C2691 C 0.305 0.13331 0.25425 0.0
C2692 C 0.3234 0.14001 0.25523 0.0
C2693 C 0.33063 0.15547 0.24678 0.0
C2694 C 0.31956 0.16348 0.23645 0.0
C2695 C 0.33529 0.13014 0.26392 0.0
C2696 C 0.34843 0.14105 0.27776 0.0
C2697 C 0.33398 0.11022 0.25828 0.0
C2698 C 0.32101 0.09818 0.2429 0.0
C2699 C 0.3202 0.10302 0.22494 0.0
C2700 C 0.30774 0.0918 0.21069 0.0
C2701 C 0.29617 0.07553 0.21413 0.0
C2702 C 0.29709 0.0704 0.23181 0.0
C2703 C 0.30945 0.08163 0.24614 0.0
H2704 H 0.28654 0.06685 0.20308 0.0
H2705 H 0.41474 0.16899 0.33667 0.0
H2706 H 0.35865 0.19115 0.51945 0.0
H2707 H 0.38285 0.17466 0.5243 0.0
H2708 H 0.34787 0.12057 0.50071 0.0
H2709 H 0.32376 0.13678 0.49626 0.0
H2710 H 0.36285 0.1192 0.53338 0.0
H2711 H 0.38344 0.14232 0.47803 0.0
H2712 H 0.39413 0.16642 0.45868 0.0
H2713 H 0.4378 0.19254 0.50007 0.0
H2714 H 0.42719 0.16878 0.51981 0.0
H2715 H 0.41818 0.05443 0.52933 0.0
H2716 H 0.39907 0.07474 0.51957 0.0
H2717 H 0.43958 0.12495 0.5424 0.0
H2718 H 0.45905 0.10443 0.55137 0.0
H2719 H 0.42339 0.1307 0.51213 0.0
H2720 H 0.40362 0.10828 0.56726 0.0
H2721 H 0.39328 0.08502 0.58758 0.0
H2722 H 0.34821 0.05885 0.54797 0.0
H2723 H 0.35846 0.08174 0.52726 0.0
C2724 C 0.35625 0.17577 0.51506 0.0
C2725 C 0.33927 0.16524 0.5076 0.0
C2726 C 0.3701 0.16638 0.51775 0.0
C2727 C 0.36721 0.14636 0.51283 0.0
C2728 C 0.35044 0.136 0.50468 0.0
C2729 C 0.33665 0.14531 0.50213 0.0
C2730 C 0.38086 0.13577 0.51769 0.0
C2731 C 0.376 0.12156 0.52846 0.0
C2732 C 0.39831 0.13941 0.51209 0.0
C2733 C 0.40436 0.15397 0.5005 0.0
C2734 C 0.39517 0.15337 0.48311 0.0
C2735 C 0.40126 0.16693 0.47205 0.0
C2736 C 0.41659 0.18105 0.47817 0.0
C2737 C 0.42589 0.18164 0.49537 0.0
C2738 C 0.41984 0.16815 0.5065 0.0
C2739 C 0.42306 0.06979 0.53191 0.0
C2740 C 0.43993 0.07796 0.54114 0.0
C2741 C 0.41213 0.0814 0.52651 0.0
C2742 C 0.41766 0.10142 0.53077 0.0
C2743 C 0.43496 0.10956 0.53911 0.0
C2744 C 0.44606 0.09789 0.5442 0.0
C2745 C 0.4051 0.11371 0.52724 0.0
C2746 C 0.41021 0.12835 0.51698 0.0
C2747 C 0.38786 0.11063 0.53343 0.0
C2748 C 0.38191 0.09658 0.54565 0.0
C2749 C 0.39161 0.09743 0.5628 0.0
C2750 C 0.38575 0.08434 0.5744 0.0
C2751 C 0.37012 0.07044 0.56905 0.0
C2752 C 0.36033 0.06959 0.55208 0.0
C2753 C 0.36616 0.08261 0.54041 0.0
H2754 H 0.36558 0.06034 0.57808 0.0
H2755 H 0.4213 0.19151 0.46956 0.0
H2756 H 0.70975 0.56178 0.25161 0.0
H2757 H 0.72507 0.59498 0.25287 0.0
H2758 H 0.70426 0.61147 0.30561 0.0
H2759 H 0.68798 0.57826 0.30371 0.0
H2760 H 0.70618 0.64043 0.28989 0.0
H2761 H 0.75112 0.60627 0.29946 0.0
H2762 H 0.76592 0.57923 0.29191 0.0
H2763 H 0.77705 0.5948 0.23853 0.0
H2764 H 0.7621 0.6218 0.24571 0.0
H2765 H 0.76655 0.73327 0.30713 0.0
H2766 H 0.74991 0.701 0.3083 0.0
H2767 H 0.77086 0.67927 0.25714 0.0
H2768 H 0.78854 0.71142 0.25695 0.0
H2769 H 0.76855 0.65292 0.27413 0.0
H2770 H 0.7227 0.68906 0.26696 0.0
H2771 H 0.70597 0.71423 0.27607 0.0
H2772 H 0.6962 0.69468 0.32798 0.0
H2773 H 0.7131 0.66961 0.31931 0.0
C2774 C 0.70846 0.57238 0.26359 0.0
C2775 C 0.69769 0.56684 0.27769 0.0
C2776 C 0.71745 0.59164 0.26441 0.0
C2777 C 0.71666 0.60637 0.27969 0.0
C2778 C 0.70556 0.60088 0.29364 0.0
C2779 C 0.69624 0.58162 0.29261 0.0
C2780 C 0.72753 0.62709 0.28114 0.0
C2781 C 0.71988 0.64304 0.2866 0.0
C2782 C 0.74555 0.63133 0.27695 0.0
C2783 C 0.75545 0.61593 0.27306 0.0
C2784 C 0.75678 0.60393 0.28614 0.0
C2785 C 0.76513 0.58859 0.28191 0.0
C2786 C 0.77239 0.58528 0.26473 0.0
C2787 C 0.77142 0.59739 0.25182 0.0
C2788 C 0.76304 0.61273 0.25597 0.0
C2789 C 0.76788 0.72154 0.29629 0.0
C2790 C 0.7794 0.7252 0.2822 0.0
C2791 C 0.75793 0.70286 0.29671 0.0
C2792 C 0.7583 0.68695 0.28253 0.0
C2793 C 0.76995 0.69073 0.26846 0.0
C2794 C 0.78029 0.70933 0.26835 0.0
C2795 C 0.74715 0.66652 0.28235 0.0
C2796 C 0.75481 0.65049 0.27729 0.0
C2797 C 0.72922 0.66235 0.28727 0.0
C2798 C 0.71935 0.67763 0.29258 0.0
C2799 C 0.71711 0.69025 0.28038 0.0
C2800 C 0.70759 0.70448 0.28546 0.0
C2801 C 0.70008 0.70609 0.30261 0.0
C2802 C 0.70206 0.69346 0.31472 0.0
C2803 C 0.71163 0.67926 0.30974 0.0
H2804 H 0.69268 0.71709 0.3065 0.0
H2805 H 0.77878 0.57333 0.26144 0.0
H2806 H 0.91111 0.47547 0.80124 0.0
H2807 H 0.89102 0.44436 0.79927 0.0
H2808 H 0.84842 0.4659 0.77561 0.0
H2809 H 0.86825 0.49697 0.77763 0.0
H2810 H 0.84164 0.45137 0.80856 0.0
H2811 H 0.86469 0.43505 0.74879 0.0
H2812 H 0.88823 0.43164 0.72765 0.0
H2813 H 0.90541 0.39212 0.75854 0.0
H2814 H 0.88222 0.3956 0.78013 0.0
H2815 H 0.78391 0.35691 0.77979 0.0
H2816 H 0.79858 0.39095 0.78722 0.0
H2817 H 0.84567 0.37608 0.80976 0.0
H2818 H 0.83186 0.34244 0.80048 0.0
H2819 H 0.84772 0.38779 0.77542 0.0
H2820 H 0.83442 0.41285 0.83979 0.0
H2821 H 0.81369 0.41655 0.8641 0.0
H2822 H 0.77954 0.43547 0.82608 0.0
H2823 H 0.80083 0.43312 0.80196 0.0
C2824 C 0.89756 0.47339 0.79529 0.0
C2825 C 0.89101 0.48846 0.78984 0.0
C2826 C 0.8862 0.45574 0.79414 0.0
C2827 C 0.86844 0.45323 0.78736 0.0
C2828 C 0.86217 0.46791 0.78092 0.0
C2829 C 0.87345 0.48551 0.78212 0.0
C2830 C 0.85595 0.4359 0.78873 0.0
C2831 C 0.84275 0.43745 0.80111 0.0
C2832 C 0.85793 0.41797 0.77932 0.0
C2833 C 0.87181 0.41575 0.7662 0.0
C2834 C 0.87359 0.42578 0.7512 0.0
C2835 C 0.88687 0.42381 0.73911 0.0
C2836 C 0.89834 0.41172 0.74178 0.0
C2837 C 0.89653 0.40151 0.75651 0.0
C2838 C 0.88333 0.40348 0.76867 0.0
C2839 C 0.79716 0.36121 0.7869 0.0
C2840 C 0.80691 0.34764 0.78992 0.0
C2841 C 0.80534 0.38044 0.79144 0.0
C2842 C 0.82308 0.38565 0.79897 0.0
C2843 C 0.8319 0.37207 0.80409 0.0
C2844 C 0.82408 0.353 0.79878 0.0
C2845 C 0.83394 0.40327 0.79577 0.0
C2846 C 0.84661 0.40176 0.78278 0.0
C2847 C 0.83177 0.42111 0.80486 0.0
C2848 C 0.81911 0.42281 0.8192 0.0
C2849 C 0.82252 0.4179 0.8367 0.0
C2850 C 0.81071 0.4198 0.85044 0.0
C2851 C 0.79512 0.42591 0.84655 0.0
C2852 C 0.79157 0.43064 0.82905 0.0
C2853 C 0.80363 0.42931 0.81544 0.0
H2854 H 0.78584 0.42707 0.85713 0.0
H2855 H 0.9086 0.41021 0.7324 0.0
H2856 H 0.06562 0.84307 0.06449 0.0
H2857 H 0.06184 0.87208 0.05317 0.0
H2858 H 0.09241 0.90662 0.10302 0.0
H2859 H 0.09515 0.87764 0.11479 0.0
H2860 H 0.06818 0.92253 0.0979 0.0
H2861 H 0.10631 0.90006 0.05273 0.0
H2862 H 0.1154 0.87699 0.02814 0.0
H2863 H 0.06779 0.87374 0.99341 0.0
H2864 H 0.05836 0.89667 0.01787 0.0
H2865 H 0.08205 0.0122 0.0743 0.0
H2866 H 0.08579 0.98137 0.07923 0.0
H2867 H 0.0521 0.9545 0.02871 0.0
H2868 H 0.05057 0.98644 0.02201 0.0
H2869 H 0.07493 0.93357 0.03283 0.0
H2870 H 0.0381 0.95805 0.07879 0.0
H2871 H 0.03119 0.98284 0.10325 0.0
H2872 H 0.07867 0.98322 0.13687 0.0
H2873 H 0.0859 0.95849 0.1126 0.0
C2874 C 0.0717 0.85685 0.07296 0.0
C2875 C 0.08077 0.85784 0.09059 0.0
C2876 C 0.06963 0.87362 0.06637 0.0
C2877 C 0.07702 0.89202 0.07693 0.0
C2878 C 0.08641 0.89289 0.0944 0.0
C2879 C 0.0881 0.87617 0.10116 0.0
C2880 C 0.07436 0.91031 0.07053 0.0
C2881 C 0.06994 0.92485 0.08368 0.0
C2882 C 0.07595 0.91369 0.05184 0.0
C2883 C 0.08156 0.89989 0.03719 0.0
C2884 C 0.09774 0.89431 0.0399 0.0
C2885 C 0.10296 0.88129 0.02598 0.0
C2886 C 0.09216 0.87386 0.00925 0.0
C2887 C 0.07613 0.87948 0.00638 0.0
C2888 C 0.07085 0.8925 0.02026 0.0
C2889 C 0.07533 0.99993 0.06398 0.0
C2890 C 0.06519 1.0022 0.04807 0.0
C2891 C 0.07732 0.98197 0.06709 0.0
C2892 C 0.06834 0.96508 0.05515 0.0
C2893 C 0.05881 0.9671 0.03864 0.0
C2894 C 0.05761 0.98546 0.03494 0.0
C2895 C 0.06914 0.94576 0.06033 0.0
C2896 C 0.07312 0.93109 0.047 0.0
C2897 C 0.06731 0.94224 0.07893 0.0
C2898 C 0.06252 0.95643 0.09389 0.0
C2899 C 0.04702 0.96338 0.09143 0.0
C2900 C 0.04308 0.97745 0.10524 0.0
C2901 C 0.05449 0.98461 0.12158 0.0
C2902 C 0.06983 0.97764 0.12422 0.0
C2903 C 0.07382 0.96354 0.11049 0.0
H2904 H 0.05145 0.99556 0.13221 0.0
H2905 H 0.09622 0.86377 0.99849 0.0
H2906 H 0.95025 0.23962 0.90044 0.0
H2907 H 0.92218 0.24358 0.88557 0.0
H2908 H 0.94764 0.29997 0.87802 0.0
H2909 H 0.97565 0.29596 0.89256 0.0
H2910 H 0.91395 0.29991 0.88944 0.0
H2911 H 0.93948 0.26157 0.84191 0.0
H2912 H 0.95186 0.2336 0.83001 0.0
H2913 H 0.90249 0.19604 0.8354 0.0
H2914 H 0.88995 0.22382 0.84774 0.0
H2915 H 0.85184 0.31836 0.82233 0.0
H2916 H 0.87794 0.31307 0.83959 0.0
H2917 H 0.85196 0.25416 0.83707 0.0
H2918 H 0.82579 0.25956 0.81965 0.0
H2919 H 0.88479 0.25434 0.83234 0.0
H2920 H 0.85814 0.29041 0.87842 0.0
H2921 H 0.84491 0.31683 0.89297 0.0
H2922 H 0.89429 0.35669 0.89325 0.0
H2923 H 0.90772 0.33055 0.8783 0.0
C2924 C 0.94994 0.25284 0.89555 0.0
C2925 C 0.96554 0.26731 0.89755 0.0
C2926 C 0.93376 0.25514 0.887 0.0
C2927 C 0.93249 0.27208 0.88032 0.0
C2928 C 0.94795 0.28671 0.88284 0.0
C2929 C 0.96414 0.28431 0.8911 0.0
C2930 C 0.91542 0.27442 0.87022 0.0
C2931 C 0.90775 0.29004 0.87682 0.0
C2932 C 0.90661 0.26134 0.85404 0.0
C2933 C 0.91386 0.24473 0.84593 0.0
C2934 C 0.9313 0.24734 0.84064 0.0
C2935 C 0.93835 0.23153 0.83384 0.0
C2936 C 0.92799 0.21305 0.83201 0.0
C2937 C 0.91051 0.21036 0.83687 0.0
C2938 C 0.90343 0.22613 0.84378 0.0
C2939 C 0.85154 0.30433 0.82567 0.0
C2940 C 0.83641 0.28952 0.81994 0.0
C2941 C 0.8666 0.30126 0.83563 0.0
C2942 C 0.86717 0.28324 0.84027 0.0
C2943 C 0.85215 0.26828 0.83402 0.0
C2944 C 0.83704 0.27139 0.82408 0.0
C2945 C 0.88338 0.28005 0.85136 0.0
C2946 C 0.8909 0.26426 0.84496 0.0
C2947 C 0.89185 0.29278 0.86796 0.0
C2948 C 0.88387 0.30855 0.87702 0.0
C2949 C 0.86614 0.30484 0.88142 0.0
C2950 C 0.8586 0.31976 0.88975 0.0
C2951 C 0.86873 0.33844 0.89397 0.0
C2952 C 0.88644 0.34222 0.88992 0.0
C2953 C 0.89402 0.32736 0.8815 0.0
H2954 H 0.86288 0.34998 0.90043 0.0
H2955 H 0.93348 0.20082 0.82678 0.0
H2956 H 0.54175 0.24414 0.59032 0.0
H2957 H 0.53528 0.20977 0.57836 0.0
H2958 H 0.59079 0.21246 0.57153 0.0
H2959 H 0.597 0.24731 0.5822 0.0
H2960 H 0.57466 0.18701 0.54531 0.0
H2961 H 0.56482 0.19608 0.61114 0.0
H2962 H 0.55133 0.20763 0.63971 0.0
H2963 H 0.49965 0.17835 0.61382 0.0
H2964 H 0.51281 0.16687 0.58499 0.0
H2965 H 0.57509 0.09102 0.55887 0.0
H2966 H 0.57862 0.12526 0.56023 0.0
H2967 H 0.52242 0.11702 0.54654 0.0
H2968 H 0.51951 0.08226 0.54277 0.0
H2969 H 0.53658 0.14432 0.58058 0.0
H2970 H 0.54625 0.13329 0.51611 0.0
H2971 H 0.55933 0.12074 0.48766 0.0
H2972 H 0.61099 0.1524 0.51143 0.0
H2973 H 0.59824 0.16497 0.54015 0.0
C2974 C 0.55259 0.23746 0.5861 0.0
C2975 C 0.56994 0.24861 0.58733 0.0
C2976 C 0.5489 0.21759 0.57944 0.0
C2977 C 0.56255 0.20792 0.57454 0.0
C2978 C 0.57987 0.21921 0.57526 0.0
C2979 C 0.58348 0.23925 0.58141 0.0
C2980 C 0.55886 0.18624 0.56891 0.0
C2981 C 0.56652 0.17782 0.5533 0.0
C2982 C 0.54771 0.1737 0.57865 0.0
C2983 C 0.53979 0.18081 0.59586 0.0
C2984 C 0.55057 0.19224 0.6115 0.0
C2985 C 0.54298 0.19876 0.62774 0.0
C2986 C 0.52464 0.19377 0.62856 0.0
C2987 C 0.51384 0.18224 0.61315 0.0
C2988 C 0.52136 0.17574 0.59686 0.0
C2989 C 0.5638 0.09614 0.55473 0.0
C2990 C 0.54736 0.0834 0.54966 0.0
C2991 C 0.56566 0.11601 0.55604 0.0
C2992 C 0.55082 0.12398 0.55341 0.0
C2993 C 0.53419 0.11138 0.54849 0.0
C2994 C 0.53255 0.0914 0.54633 0.0
C2995 C 0.55265 0.14538 0.55739 0.0
C2996 C 0.54466 0.15366 0.57265 0.0
C2997 C 0.5635 0.15772 0.54741 0.0
C2998 C 0.57131 0.14996 0.53034 0.0
C2999 C 0.56043 0.13743 0.51535 0.0
C3000 C 0.56777 0.13036 0.49915 0.0
C3001 C 0.58598 0.13578 0.49773 0.0
C3002 C 0.59688 0.14824 0.51254 0.0
C3003 C 0.5896 0.15536 0.52878 0.0
H3004 H 0.59163 0.13035 0.48515 0.0
H3005 H 0.51879 0.1988 0.64116 0.0
H3006 H 0.57949 0.76407 0.42825 0.0
H3007 H 0.60805 0.76518 0.41479 0.0
H3008 H 0.58481 0.77593 0.36334 0.0
H3009 H 0.55608 0.7733 0.37635 0.0
H3010 H 0.60323 0.75335 0.35347 0.0
H3011 H 0.61822 0.81008 0.40353 0.0
H3012 H 0.62298 0.82713 0.43641 0.0
H3013 H 0.6601 0.79331 0.44889 0.0
H3014 H 0.65537 0.77587 0.41617 0.0
H3015 H 0.67438 0.79279 0.30648 0.0
H3016 H 0.64923 0.78467 0.32443 0.0
H3017 H 0.68312 0.77017 0.36627 0.0
H3018 H 0.70879 0.7788 0.3482 0.0
H3019 H 0.66169 0.78994 0.38411 0.0
H3020 H 0.64841 0.73451 0.33605 0.0
H3021 H 0.64342 0.71472 0.3043 0.0
H3022 H 0.60309 0.74385 0.28951 0.0
H3023 H 0.60793 0.76388 0.3211 0.0
C3024 C 0.58049 0.76664 0.41403 0.0
C3025 C 0.56532 0.76847 0.40337 0.0
C3026 C 0.59703 0.76752 0.40634 0.0
C3027 C 0.59915 0.77101 0.38793 0.0
C3028 C 0.58393 0.77311 0.37748 0.0
C3029 C 0.56733 0.77163 0.38496 0.0
C3030 C 0.61659 0.77148 0.37883 0.0
C3031 C 0.61588 0.76176 0.36023 0.0
C3032 C 0.6337 0.78118 0.38771 0.0
C3033 C 0.63626 0.79151 0.40744 0.0
C3034 C 0.62727 0.80616 0.41332 0.0
C3035 C 0.62998 0.81591 0.43193 0.0
C3036 C 0.64179 0.81127 0.44474 0.0
C3037 C 0.65092 0.79687 0.43897 0.0
C3038 C 0.64822 0.78704 0.4204 0.0
C3039 C 0.67658 0.78752 0.31931 0.0
C3040 C 0.69393 0.78677 0.32577 0.0
C3041 C 0.66199 0.78276 0.32968 0.0
C3042 C 0.66385 0.77662 0.34692 0.0
C3043 C 0.68104 0.77493 0.35313 0.0
C3044 C 0.69581 0.77974 0.34263 0.0
C3045 C 0.6479 0.77291 0.35838 0.0
C3046 C 0.64895 0.78173 0.37741 0.0
C3047 C 0.63102 0.76222 0.35007 0.0
C3048 C 0.62864 0.75078 0.33086 0.0
C3049 C 0.63862 0.73682 0.32594 0.0
C3050 C 0.63577 0.72551 0.30801 0.0
C3051 C 0.62297 0.72804 0.29489 0.0
C3052 C 0.613 0.7419 0.29967 0.0
C3053 C 0.61578 0.75321 0.31759 0.0
H3054 H 0.62075 0.71925 0.28103 0.0
H3055 H 0.6439 0.81886 0.45912 0.0
H3056 H 0.06823 0.25995 0.40043 0.0
H3057 H 0.06329 0.23135 0.41453 0.0
H3058 H 0.11246 0.25328 0.44958 0.0
H3059 H 0.11752 0.28216 0.43548 0.0
H3060 H 0.10653 0.21404 0.43259 0.0
H3061 H 0.07715 0.2578 0.46849 0.0
H3062 H 0.0575 0.28072 0.47173 0.0
H3063 H 0.01329 0.23604 0.44629 0.0
H3064 H 0.0328 0.21292 0.44249 0.0
H3065 H 0.08579 0.1526 0.5005 0.0
H3066 H 0.09601 0.17739 0.48193 0.0
H3067 H 0.04426 0.16412 0.45136 0.0
H3068 H 0.03399 0.13984 0.47029 0.0
H3069 H 0.05283 0.20018 0.46671 0.0
H3070 H 0.08248 0.1565 0.43017 0.0
H3071 H 0.10307 0.13524 0.42164 0.0
H3072 H 0.14727 0.18034 0.44621 0.0
H3073 H 0.12694 0.20174 0.45519 0.0
C3074 C 0.07804 0.25864 0.41107 0.0
C3075 C 0.09319 0.27321 0.41705 0.0
C3076 C 0.07519 0.24236 0.41908 0.0
C3077 C 0.08745 0.24046 0.43315 0.0
C3078 C 0.10288 0.25469 0.43876 0.0
C3079 C 0.10568 0.27113 0.43084 0.0
C3080 C 0.0837 0.22384 0.44241 0.0
C3081 C 0.095 0.21104 0.44039 0.0
C3082 C 0.06839 0.22001 0.45206 0.0
C3083 C 0.05646 0.23366 0.45508 0.0
C3084 C 0.06325 0.25287 0.46351 0.0
C3085 C 0.05215 0.26591 0.46542 0.0
C3086 C 0.03416 0.25985 0.45919 0.0
C3087 C 0.02723 0.24072 0.4511 0.0
C3088 C 0.03831 0.22763 0.44906 0.0
C3089 C 0.07683 0.15472 0.48945 0.0
C3090 C 0.05912 0.14462 0.48681 0.0
C3091 C 0.08266 0.16877 0.47882 0.0
C3092 C 0.07087 0.17261 0.4653 0.0
C3093 C 0.05354 0.16143 0.46178 0.0
C3094 C 0.04769 0.1476 0.47253 0.0
C3095 C 0.07561 0.18985 0.45678 0.0
C3096 C 0.06447 0.203 0.45905 0.0
C3097 C 0.09115 0.194 0.44742 0.0
C3098 C 0.10315 0.18059 0.44363 0.0
C3099 C 0.09655 0.16174 0.43412 0.0
C3100 C 0.10819 0.14971 0.4291 0.0
C3101 C 0.12646 0.15641 0.43344 0.0
C3102 C 0.13312 0.17513 0.44292 0.0
C3103 C 0.12155 0.18719 0.44801 0.0
H3104 H 0.13545 0.14711 0.42941 0.0
H3105 H 0.02558 0.26998 0.46066 0.0
H3106 H 0.56557 0.28325 0.16096 0.0
H3107 H 0.5964 0.28198 0.16872 0.0
H3108 H 0.57957 0.24722 0.21005 0.0
H3109 H 0.54888 0.24965 0.20313 0.0
H3110 H 0.60568 0.27363 0.22432 0.0
H3111 H 0.59481 0.22883 0.16555 0.0
H3112 H 0.58502 0.21861 0.1318 0.0
H3113 H 0.62428 0.26468 0.11919 0.0
H3114 H 0.63424 0.2752 0.15288 0.0
H3115 H 0.67804 0.23576 0.24138 0.0
H3116 H 0.65135 0.2358 0.22187 0.0
H3117 H 0.67595 0.29049 0.2092 0.0
H3118 H 0.70283 0.29062 0.22896 0.0
H3119 H 0.64776 0.25618 0.17845 0.0
H3120 H 0.65716 0.30079 0.23904 0.0
H3121 H 0.66495 0.31002 0.27322 0.0
H3122 H 0.62588 0.2619 0.2822 0.0
H3123 H 0.61816 0.25218 0.24803 0.0
C3124 C 0.56859 0.27551 0.17182 0.0
C3125 C 0.55514 0.26687 0.18179 0.0
C3126 C 0.5861 0.27452 0.17601 0.0
C3127 C 0.59025 0.26424 0.18974 0.0
C3128 C 0.57665 0.25528 0.19944 0.0
C3129 C 0.55922 0.25678 0.19564 0.0
C3130 C 0.60888 0.26413 0.19517 0.0
C3131 C 0.61476 0.2696 0.21424 0.0
C3132 C 0.6209 0.25943 0.18198 0.0
C3133 C 0.61521 0.25284 0.16171 0.0
C3134 C 0.60132 0.23679 0.15557 0.0
C3135 C 0.59575 0.23094 0.13646 0.0
C3136 C 0.60401 0.24101 0.12336 0.0
C3137 C 0.61791 0.25689 0.12934 0.0
C3138 C 0.62356 0.26276 0.14843 0.0
C3139 C 0.67795 0.24751 0.23397 0.0
C3140 C 0.69227 0.26331 0.23684 0.0
C3141 C 0.66279 0.24745 0.22276 0.0
C3142 C 0.66177 0.26318 0.21429 0.0
C3143 C 0.67666 0.27818 0.21559 0.0
C3144 C 0.69193 0.27825 0.22687 0.0
C3145 C 0.64419 0.26536 0.20753 0.0
C3146 C 0.63857 0.26029 0.18835 0.0
C3147 C 0.63219 0.27019 0.22058 0.0
C3148 C 0.63734 0.27559 0.24102 0.0
C3149 C 0.65048 0.29199 0.2483 0.0
C3150 C 0.65482 0.29736 0.26767 0.0
C3151 C 0.64597 0.28651 0.27987 0.0
C3152 C 0.63278 0.27025 0.27274 0.0
C3153 C 0.62845 0.26479 0.25338 0.0
H3154 H 0.64928 0.29074 0.29487 0.0
H3155 H 0.59965 0.23649 0.10857 0.0
H3156 H 0.62891 0.88911 0.92502 0.0
H3157 H 0.6204 0.92014 0.93357 0.0
H3158 H 0.56544 0.89265 0.91731 0.0
H3159 H 0.57386 0.86187 0.90923 0.0
H3160 H 0.57461 0.92976 0.90934 0.0
H3161 H 0.57891 0.89393 0.95911 0.0
H3162 H 0.59326 0.87711 0.98023 0.0
H3163 H 0.63312 0.92822 1.00023 0.0
H3164 H 0.61921 0.94518 0.97885 0.0
H3165 H 0.52832 0.98653 0.96845 0.0
H3166 H 0.53936 0.95968 0.95193 0.0
H3167 H 0.59238 0.98637 0.9771 0.0
H3168 H 0.58111 0.01227 0.99477 0.0
H3169 H 0.58502 0.95079 0.97849 0.0
H3170 H 0.57739 0.98795 0.9303 0.0
H3171 H 0.55911 0.00428 0.91249 0.0
H3172 H 0.52276 0.95075 0.8915 0.0
H3173 H 0.54065 0.93418 0.90949 0.0
C3174 C 0.61509 0.88992 0.92335 0.0
C3175 C 0.60184 0.87344 0.91751 0.0
C3176 C 0.6103 0.90747 0.92785 0.0
C3177 C 0.59235 0.90836 0.92612 0.0
C3178 C 0.57934 0.89205 0.9187 0.0
C3179 C 0.58408 0.87456 0.91455 0.0
C3180 C 0.58667 0.92524 0.9352 0.0
C3181 C 0.577 0.9346 0.92441 0.0
C3182 C 0.58958 0.93106 0.95485 0.0
C3183 C 0.59828 0.92066 0.96712 0.0
C3184 C 0.59092 0.90145 0.96776 0.0
C3185 C 0.59893 0.89193 0.97983 0.0
C3186 C 0.61415 0.90156 0.99149 0.0
C3187 C 0.62139 0.92074 0.99111 0.0
C3188 C 0.61349 0.9303 0.97899 0.0
C3189 C 0.54232 0.98659 0.97028 0.0
C3190 C 0.5541 1.00161 0.98214 0.0
C3191 C 0.54859 0.97142 0.96084 0.0
C3192 C 0.56673 0.9716 0.96281 0.0
C3193 C 0.57836 0.9863 0.97521 0.0
C3194 C 0.57198 1.00108 0.98516 0.0
C3195 C 0.57363 0.95602 0.95266 0.0
C3196 C 0.58316 0.94654 0.96332 0.0
C3197 C 0.57046 0.95014 0.93298 0.0
C3198 C 0.56032 0.95986 0.92127 0.0
C3199 C 0.5655 0.97968 0.92186 0.0
C3200 C 0.55518 0.98898 0.91179 0.0
C3201 C 0.53976 0.97856 0.9009 0.0
C3202 C 0.5347 0.9588 0.89995 0.0
C3203 C 0.54494 0.94944 0.91006 0.0
H3204 H 0.53175 0.98581 0.89317 0.0
H3205 H 0.62029 0.89418 1.0009 0.0
H3206 H 0.94354 0.7347 0.66345 0.0
H3207 H 0.91456 0.73051 0.67578 0.0
H3208 H 0.93533 0.77718 0.72188 0.0
H3209 H 0.96464 0.78087 0.71003 0.0
H3210 H 0.91463 0.74813 0.73301 0.0
H3211 H 0.91299 0.78087 0.67886 0.0
H3212 H 0.91403 0.782 0.64515 0.0
H3213 H 0.87035 0.73347 0.63179 0.0
H3214 H 0.86935 0.73175 0.66537 0.0
H3215 H 0.83958 0.77317 0.76966 0.0
H3216 H 0.86776 0.77515 0.75546 0.0
H3217 H 0.84024 0.73786 0.70505 0.0
H3218 H 0.81213 0.73942 0.71787 0.0
H3219 H 0.86385 0.75848 0.69443 0.0
H3220 H 0.86375 0.72415 0.74609 0.0
H3221 H 0.86209 0.71996 0.77905 0.0
H3222 H 0.9075 0.76609 0.79597 0.0
H3223 H 0.90919 0.77081 0.76322 0.0
C3224 C 0.9419 0.74401 0.67627 0.0
C3225 C 0.95609 0.75834 0.68575 0.0
C3226 C 0.92539 0.74159 0.68323 0.0
C3227 C 0.92285 0.75383 0.69942 0.0
C3228 C 0.93716 0.76771 0.70924 0.0
C3229 C 0.95379 0.76987 0.7025 0.0
C3230 C 0.90525 0.7527 0.70609 0.0
C3231 C 0.90345 0.75042 0.72467 0.0
C3232 C 0.89061 0.75481 0.69477 0.0
C3233 C 0.89127 0.75604 0.67461 0.0
C3234 C 0.90373 0.77034 0.66872 0.0
C3235 C 0.90431 0.77107 0.64963 0.0
C3236 C 0.89231 0.75778 0.63633 0.0
C3237 C 0.87968 0.74372 0.64209 0.0
C3238 C 0.87913 0.74283 0.66114 0.0
C3239 C 0.83971 0.76621 0.75528 0.0
C3240 C 0.82398 0.75662 0.74456 0.0
C3241 C 0.85574 0.76682 0.74735 0.0
C3242 C 0.85622 0.75604 0.72943 0.0
C3243 C 0.84031 0.74634 0.71885 0.0
C3244 C 0.82428 0.74702 0.72623 0.0
C3245 C 0.87315 0.75432 0.72172 0.0
C3246 C 0.87482 0.75589 0.70286 0.0
C3247 C 0.88752 0.75094 0.73262 0.0
C3248 C 0.88652 0.74789 0.75224 0.0
C3249 C 0.87332 0.73343 0.75686 0.0
C3250 C 0.87236 0.73099 0.77551 0.0
C3251 C 0.88466 0.74276 0.78959 0.0
C3252 C 0.89796 0.75699 0.78507 0.0
C3253 C 0.89892 0.75956 0.76648 0.0
H3254 H 0.88391 0.74083 0.80402 0.0
H3255 H 0.89276 0.75841 0.62157 0.0
H3256 H 0.12592 0.03339 0.82088 0.0
H3257 H 0.11386 0.03752 0.85172 0.0
H3258 H 0.13986 0.99486 0.86766 0.0
H3259 H 0.15251 0.99127 0.83708 0.0
H3260 H 0.10603 0.98956 0.88073 0.0
H3261 H 0.15462 0.04232 0.88716 0.0
H3262 H 0.17408 0.07177 0.8814 0.0
H3263 H 0.1313 0.10123 0.88793 0.0
H3264 H 0.11148 0.07184 0.89341 0.0
H3265 H 0.0943 0.011 0.98147 0.0
H3266 H 0.10624 0.00595 0.95053 0.0
H3267 H 0.08044 0.04832 0.9335 0.0
H3268 H 0.068 0.0528 0.96413 0.0
H3269 H 0.11422 0.05337 0.9212 0.0
H3270 H 0.0657 1.0002 0.91528 0.0
H3271 H 0.04739 0.97139 0.92369 0.0
H3272 H 0.09091 0.94296 0.91776 0.0
H3273 H 0.10961 0.97177 0.90964 0.0
C3274 C 0.12919 0.0248 0.83084 0.0
C3275 C 0.14047 0.0119 0.82579 0.0
C3276 C 0.12221 0.02726 0.84885 0.0
C3277 C 0.12565 0.01664 0.86289 0.0
C3278 C 0.13662 1.00345 0.85769 0.0
C3279 C 0.14402 1.00138 0.83988 0.0
C3280 C 0.11799 0.01934 0.88261 0.0
C3281 C 0.10814 1.00359 0.88951 0.0
C3282 C 0.11999 0.03748 0.89479 0.0
C3283 C 0.13149 0.05479 0.89037 0.0
C3284 C 0.14927 0.05498 0.88703 0.0
C3285 C 0.16039 0.07169 0.8839 0.0
C3286 C 0.15391 0.08834 0.88422 0.0
C3287 C 0.13628 0.0883 0.88761 0.0
C3288 C 0.12509 0.07162 0.8907 0.0
C3289 C 0.09102 0.01922 0.97116 0.0
C3290 C 0.0799 0.03232 0.9758 0.0
C3291 C 0.09792 0.01627 0.95316 0.0
C3292 C 0.0945 0.0266 0.93885 0.0
C3293 C 0.08361 0.03993 0.94369 0.0
C3294 C 0.07633 0.04249 0.96147 0.0
C3295 C 0.1022 0.02368 0.91921 0.0
C3296 C 0.11206 0.03936 0.91235 0.0
C3297 C 0.10025 0.00551 0.90713 0.0
C3298 C 0.08912 0.98822 0.91208 0.0
C3299 C 0.07143 0.98788 0.91596 0.0
C3300 C 0.06097 0.97153 0.92064 0.0
C3301 C 0.068 0.95537 0.92131 0.0
C3302 C 0.0855 0.95551 0.91727 0.0
C3303 C 0.09604 0.97184 0.91263 0.0
H3304 H 0.05988 0.94272 0.92491 0.0
H3305 H 0.16257 0.10129 0.88189 0.0
H3306 H 0.79949 0.37466 0.55288 0.0
H3307 H 0.80091 0.36416 0.58321 0.0
H3308 H 0.83364 0.41909 0.60854 0.0
H3309 H 0.83229 0.4297 0.57849 0.0
H3310 H 0.84389 0.38527 0.61825 0.0
H3311 H 0.79523 0.41715 0.61765 0.0
H3312 H 0.76988 0.42354 0.59962 0.0
H3313 H 0.74373 0.36433 0.59232 0.0
H3314 H 0.7691 0.35758 0.61016 0.0
H3315 H 0.83724 0.36976 0.70806 0.0
H3316 H 0.83103 0.3878 0.68385 0.0
H3317 H 0.79572 0.33722 0.6523 0.0
H3318 H 0.80186 0.31918 0.67663 0.0
H3319 H 0.78671 0.37269 0.64713 0.0
H3320 H 0.83631 0.34049 0.64457 0.0
H3321 H 0.86441 0.33234 0.65441 0.0
H3322 H 0.89051 0.39167 0.66366 0.0
H3323 H 0.86253 0.40012 0.65381 0.0
C3324 C 0.80707 0.38434 0.56493 0.0
C3325 C 0.81542 0.403 0.56371 0.0
C3326 C 0.8079 0.37839 0.58205 0.0
C3327 C 0.81717 0.39109 0.59779 0.0
C3328 C 0.82638 0.40932 0.59636 0.0
C3329 C 0.82542 0.41533 0.57934 0.0
C3330 C 0.81621 0.38578 0.61609 0.0
C3331 C 0.83156 0.38289 0.62489 0.0
C3332 C 0.79998 0.38266 0.62421 0.0
C3333 C 0.78395 0.38689 0.61529 0.0
C3334 C 0.78398 0.40554 0.61233 0.0
C3335 C 0.76967 0.40921 0.60208 0.0
C3336 C 0.75519 0.39435 0.59484 0.0
C3337 C 0.75494 0.37583 0.59799 0.0
C3338 C 0.76925 0.37208 0.60823 0.0
C3339 C 0.82743 0.36288 0.69644 0.0
C3340 C 0.82003 0.34328 0.69392 0.0
C3341 C 0.82395 0.37309 0.68268 0.0
C3342 C 0.81321 0.36361 0.66636 0.0
C3343 C 0.80402 0.34463 0.66494 0.0
C3344 C 0.80747 0.3344 0.67877 0.0
C3345 C 0.81452 0.37202 0.6495 0.0
C3346 C 0.79919 0.3755 0.64086 0.0
C3347 C 0.83091 0.37579 0.64148 0.0
C3348 C 0.84726 0.37096 0.64894 0.0
C3349 C 0.84796 0.35181 0.64906 0.0
C3350 C 0.8639 0.34713 0.65446 0.0
C3351 C 0.8792 0.36149 0.65982 0.0
C3352 C 0.87862 0.38057 0.65967 0.0
C3353 C 0.86274 0.38531 0.65417 0.0
H3354 H 0.89153 0.35782 0.66397 0.0
H3355 H 0.74416 0.39718 0.58678 0.0
H3356 H 0.47044 0.05567 0.34524 0.0
H3357 H 0.48398 0.05074 0.37459 0.0
H3358 H 0.4329 0.02218 0.38833 0.0
H3359 H 0.41914 0.02731 0.35922 0.0
H3360 H 0.45135 0.05096 0.41612 0.0
H3361 H 0.45982 0.99489 0.37837 0.0
H3362 H 0.46664 0.97536 0.34958 0.0
H3363 H 0.52036 0.0077 0.35714 0.0
H3364 H 0.5138 0.02761 0.38584 0.0
H3365 H 0.49243 0.031 0.49348 0.0
H3366 H 0.47643 0.02851 0.46428 0.0
H3367 H 0.52435 0.05318 0.44132 0.0
H3368 H 0.54163 0.05358 0.47087 0.0
H3369 H 0.50412 0.0219 0.41846 0.0
H3370 H 0.49262 0.07915 0.4575 0.0
H3371 H 0.48348 0.09619 0.48646 0.0
H3372 H 0.43219 0.05828 0.4769 0.0
H3373 H 0.44111 0.04076 0.44808 0.0
C3374 C 0.46215 0.04841 0.35457 0.0
C3375 C 0.44389 0.04195 0.35024 0.0
C3376 C 0.46984 0.04542 0.37107 0.0
C3377 C 0.45929 0.03579 0.38305 0.0
C3378 C 0.44105 0.02944 0.3789 0.0
C3379 C 0.43331 0.03253 0.36245 0.0
C3380 C 0.46745 0.0339 0.40069 0.0
C3381 C 0.46268 0.04431 0.41686 0.0
C3382 C 0.48206 0.02514 0.40113 0.0
C3383 C 0.48631 0.01276 0.38426 0.0
C3384 C 0.47308 0.99787 0.37387 0.0
C3385 C 0.4769 0.98674 0.35756 0.0
C3386 C 0.49392 0.99029 0.35153 0.0
C3387 C 0.50719 0.00494 0.36185 0.0
C3388 C 0.50344 0.01612 0.37817 0.0
C3389 C 0.50001 0.03567 0.48239 0.0
C3390 C 0.51861 0.04189 0.48436 0.0
C3391 C 0.49057 0.03452 0.4657 0.0
C3392 C 0.49922 0.04115 0.45106 0.0
C3393 C 0.51764 0.04816 0.45285 0.0
C3394 C 0.52743 0.04843 0.46958 0.0
C3395 C 0.48866 0.03992 0.43376 0.0
C3396 C 0.4928 0.02855 0.41777 0.0
C3397 C 0.47316 0.04748 0.43362 0.0
C3398 C 0.46758 0.05861 0.4506 0.0
C3399 C 0.4794 0.07442 0.46157 0.0
C3400 C 0.47426 0.08414 0.478 0.0
C3401 C 0.45727 0.07832 0.48353 0.0
C3402 C 0.44534 0.06279 0.4726 0.0
C3403 C 0.45043 0.05298 0.4562 0.0
H3404 H 0.45333 0.08584 0.49627 0.0
H3405 H 0.49684 0.9817 0.33887 0.0
H3406 H 0.82911 0.7166 0.06769 0.0
H3407 H 0.8315 0.72931 0.10157 0.0
H3408 H 0.77682 0.73422 0.09706 0.0
H3409 H 0.77469 0.722 0.06318 0.0
H3410 H 0.79509 0.76425 0.12003 0.0
H3411 H 0.79297 0.6959 0.11421 0.0
H3412 H 0.80382 0.66628 0.10496 0.0
H3413 H 0.85373 0.6924 0.13678 0.0
H3414 H 0.84324 0.72225 0.146 0.0
H3415 H 0.78285 0.78019 0.21807 0.0
H3416 H 0.78122 0.77053 0.18427 0.0
H3417 H 0.82873 0.74866 0.1906 0.0
H3418 H 0.82666 0.75266 0.22363 0.0
H3419 H 0.81455 0.72721 0.16543 0.0
H3420 H 0.8194 0.79579 0.17113 0.0
H3421 H 0.81025 0.8264 0.18065 0.0
H3422 H 0.75953 0.80293 0.14952 0.0
H3423 H 0.76832 0.77215 0.14003 0.0
C3424 C 0.81772 0.72073 0.07394 0.0
C3425 C 0.80179 0.71862 0.06277 0.0
C3426 C 0.81901 0.72779 0.09339 0.0
C3427 C 0.80426 0.73258 0.10219 0.0
C3428 C 0.78844 0.73074 0.09082 0.0
C3429 C 0.78721 0.72378 0.0714 0.0
C3430 C 0.80503 0.73928 0.12313 0.0
C3431 C 0.79935 0.75613 0.13 0.0
C3432 C 0.81106 0.7292 0.13639 0.0
C3433 C 0.81737 0.71133 0.13062 0.0
C3434 C 0.8063 0.69536 0.11909 0.0
C3435 C 0.81238 0.67853 0.11389 0.0
C3436 C 0.82946 0.67747 0.12025 0.0
C3437 C 0.84051 0.69324 0.13184 0.0
C3438 C 0.8345 0.71011 0.13705 0.0
C3439 C 0.79223 0.77236 0.21236 0.0
C3440 C 0.80407 0.76645 0.22428 0.0
C3441 C 0.79195 0.76757 0.19262 0.0
C3442 C 0.80501 0.75878 0.18403 0.0
C3443 C 0.81798 0.75475 0.19612 0.0
C3444 C 0.81706 0.75769 0.21557 0.0
C3445 C 0.80506 0.75279 0.16284 0.0
C3446 C 0.81073 0.73585 0.15578 0.0
C3447 C 0.79959 0.76317 0.14943 0.0
C3448 C 0.79447 0.7817 0.15498 0.0
C3449 C 0.8063 0.79719 0.16637 0.0
C3450 C 0.80116 0.81454 0.17177 0.0
C3451 C 0.78431 0.8166 0.16572 0.0
C3452 C 0.77257 0.80132 0.15421 0.0
C3453 C 0.77762 0.78394 0.14881 0.0
H3454 H 0.78036 0.83005 0.16991 0.0
H3455 H 0.83413 0.66442 0.11623 0.0
H3456 H 0.15867 1.00258 0.69947 0.0
H3457 H 0.14485 0.00425 0.66894 0.0
H3458 H 0.09773 0.014 0.69445 0.0
H3459 H 0.11133 0.01105 0.72508 0.0
H3460 H 0.08591 0.99647 0.6606 0.0
H3461 H 0.1355 0.05088 0.67836 0.0
H3462 H 0.16696 0.06609 0.68784 0.0
H3463 H 0.18208 0.0349 0.63778 0.0
H3464 H 0.15074 0.01929 0.62816 0.0
H3465 H 0.05364 0.02944 0.57663 0.0
H3466 H 0.06341 0.0254 0.60851 0.0
H3467 H 0.11388 0.01811 0.58962 0.0
H3468 H 0.10457 0.02292 0.55872 0.0
H3469 H 0.12271 0.035 0.62105 0.0
H3470 H 0.0752 0.98062 0.60199 0.0
H3471 H 0.04449 0.96352 0.59108 0.0
H3472 H 0.02602 0.99111 0.64098 0.0
H3473 H 0.0566 0.00859 0.6521 0.0
C3474 C 0.14532 0.00502 0.69879 0.0
C3475 C 0.1365 0.00679 0.71545 0.0
C3476 C 0.1373 0.00627 0.68096 0.0
C3477 C 0.12008 0.01012 0.67855 0.0
C3478 C 0.11099 0.0113 0.69513 0.0
C3479 C 0.11892 0.00963 0.713 0.0
C3480 C 0.11202 0.01327 0.65919 0.0
C3481 C 0.09406 0.00515 0.6522 0.0
C3482 C 0.12209 0.02409 0.64708 0.0
C3483 C 0.14082 0.03386 0.65262 0.0
C3484 C 0.14555 0.04727 0.6694 0.0
C3485 C 0.16336 0.05592 0.67481 0.0
C3486 C 0.17651 0.05144 0.66343 0.0
C3487 C 0.17188 0.03834 0.64659 0.0
C3488 C 0.15411 0.0296 0.64115 0.0
C3489 C 0.06689 0.02719 0.57927 0.0
C3490 C 0.07814 0.02667 0.56441 0.0
C3491 C 0.07255 0.02456 0.59776 0.0
C3492 C 0.08967 0.02105 0.60236 0.0
C3493 C 0.10073 0.02081 0.58743 0.0
C3494 C 0.09521 0.02355 0.56928 0.0
C3495 C 0.09663 0.01809 0.62222 0.0
C3496 C 0.11446 0.02628 0.62935 0.0
C3497 C 0.08649 0.00702 0.63414 0.0
C3498 C 0.06816 0.99622 0.62771 0.0
C3499 C 0.06458 0.98318 0.61057 0.0
C3500 C 0.0472 0.97343 0.60434 0.0
C3501 C 0.0333 0.97651 0.61518 0.0
C3502 C 0.03679 0.98897 0.63248 0.0
C3503 C 0.05414 0.99878 0.63877 0.0
H3504 H 0.01983 0.96909 0.61026 0.0
H3505 H 0.19029 0.05814 0.66766 0.0
H3506 H 0.79388 0.40207 0.44915 0.0
H3507 H 0.79978 0.38587 0.41837 0.0
H3508 H 0.85343 0.38789 0.4399 0.0
H3509 H 0.84769 0.40479 0.47046 0.0
H3510 H 0.84957 0.39342 0.40175 0.0
H3511 H 0.82495 0.3478 0.4413 0.0
H3512 H 0.8031 0.33535 0.46226 0.0
H3513 H 0.76072 0.33088 0.41997 0.0
H3514 H 0.78234 0.3433 0.39879 0.0
H3515 H 0.85142 0.31573 0.32498 0.0
H3516 H 0.85592 0.33523 0.35687 0.0
H3517 H 0.80083 0.33901 0.35304 0.0
H3518 H 0.79649 0.31985 0.32183 0.0
H3519 H 0.81059 0.32858 0.38506 0.0
H3520 H 0.83134 0.3761 0.34702 0.0
H3521 H 0.85047 0.39053 0.32474 0.0
H3522 H 0.89667 0.39359 0.36153 0.0
H3523 H 0.87781 0.37913 0.38403 0.0
C3524 C 0.80696 0.39934 0.44702 0.0
C3525 C 0.82033 0.40421 0.46171 0.0
C3526 C 0.81034 0.39022 0.42964 0.0
C3527 C 0.82692 0.38555 0.42723 0.0
C3528 C 0.84061 0.39148 0.44169 0.0
C3529 C 0.83731 0.4009 0.45899 0.0
C3530 C 0.82914 0.37253 0.4104 0.0
C3531 C 0.84135 0.37909 0.39815 0.0
C3532 C 0.8182 0.35404 0.40589 0.0
C3533 C 0.80523 0.34646 0.41853 0.0
C3534 C 0.81096 0.34418 0.43653 0.0
C3535 C 0.79863 0.33712 0.44842 0.0
C3536 C 0.78054 0.33232 0.44245 0.0
C3537 C 0.77474 0.33455 0.42456 0.0
C3538 C 0.78702 0.34153 0.41259 0.0
C3539 C 0.84031 0.3204 0.33135 0.0
C3540 C 0.82338 0.31547 0.32174 0.0
C3541 C 0.8429 0.33163 0.34926 0.0
C3542 C 0.82861 0.33819 0.35717 0.0
C3543 C 0.81186 0.3336 0.34724 0.0
C3544 C 0.80929 0.32234 0.32963 0.0
C3545 C 0.83055 0.34965 0.37595 0.0
C3546 C 0.81919 0.34271 0.38876 0.0
C3547 C 0.8419 0.36792 0.38063 0.0
C3548 C 0.85323 0.37632 0.36704 0.0
C3549 C 0.84559 0.37969 0.35026 0.0
C3550 C 0.85637 0.38791 0.33762 0.0
C3551 C 0.87476 0.39287 0.34167 0.0
C3552 C 0.88242 0.38969 0.3584 0.0
C3553 C 0.87171 0.38151 0.37111 0.0
H3554 H 0.88308 0.39924 0.33187 0.0
H3555 H 0.77101 0.32687 0.45169 0.0
H3556 H 0.45858 0.02615 0.25262 0.0
H3557 H 0.46758 0.0245 0.2207 0.0
H3558 H 0.42386 0.0491 0.20503 0.0
H3559 H 0.41436 0.05008 0.23665 0.0
H3560 H 0.43051 0.02076 0.17736 0.0
H3561 H 0.46276 0.07816 0.21899 0.0
H3562 H 0.47965 0.09317 0.24943 0.0
H3563 H 0.52005 0.06167 0.23579 0.0
H3564 H 0.50326 0.04623 0.20542 0.0
H3565 H 0.47818 0.02623 0.09549 0.0
H3566 H 0.46102 0.03676 0.12125 0.0
H3567 H 0.50109 0.02858 0.16111 0.0
H3568 H 0.51885 0.02026 0.13584 0.0
H3569 H 0.49155 0.05766 0.17488 0.0
H3570 H 0.45821 0.99503 0.13895 0.0
H3571 H 0.4391 0.97304 0.11269 0.0
H3572 H 0.40043 0.00806 0.1181 0.0
H3573 H 0.4195 0.03048 0.14406 0.0
C3574 C 0.45088 0.03106 0.24229 0.0
C3575 C 0.43612 0.03867 0.24697 0.0
C3576 C 0.45592 0.03004 0.22417 0.0
C3577 C 0.44655 0.03716 0.21091 0.0
C3578 C 0.43124 0.04374 0.21527 0.0
C3579 C 0.42598 0.04443 0.23329 0.0
C3580 C 0.4537 0.03929 0.19304 0.0
C3581 C 0.44376 0.02901 0.17659 0.0
C3582 C 0.47083 0.05032 0.19246 0.0
C3583 C 0.48179 0.06113 0.20985 0.0
C3584 C 0.47532 0.07457 0.22241 0.0
C3585 C 0.48483 0.08307 0.23971 0.0
C3586 C 0.50093 0.0784 0.24453 0.0
C3587 C 0.50761 0.06533 0.23201 0.0
C3588 C 0.49813 0.05674 0.21473 0.0
C3589 C 0.48333 0.02701 0.10984 0.0
C3590 C 0.49973 0.0223 0.11379 0.0
C3591 C 0.47349 0.03286 0.12448 0.0
C3592 C 0.47962 0.0332 0.1431 0.0
C3593 C 0.49606 0.02858 0.14689 0.0
C3594 C 0.50611 0.02347 0.13243 0.0
C3595 C 0.46908 0.03748 0.15901 0.0
C3596 C 0.47815 0.04963 0.1753 0.0
C3597 C 0.45131 0.02764 0.15949 0.0
C3598 C 0.44051 0.0147 0.14311 0.0
C3599 C 0.4458 0.99823 0.1343 0.0
C3600 C 0.43493 0.98565 0.1195 0.0
C3601 C 0.41862 0.98922 0.11364 0.0
C3602 C 0.41313 0.00539 0.12253 0.0
C3603 C 0.424 0.01808 0.13722 0.0
H3604 H 0.41018 0.9794 0.10227 0.0
H3605 H 0.50821 0.0849 0.25797 0.0
H3606 H 0.77394 0.72328 0.95811 0.0
H3607 H 0.77338 0.73169 0.92672 0.0
H3608 H 0.8197 0.7085 0.91583 0.0
H3609 H 0.82013 0.69977 0.947 0.0
H3610 H 0.82245 0.74336 0.90488 0.0
H3611 H 0.78087 0.68369 0.89518 0.0
H3612 H 0.75478 0.65897 0.89853 0.0
H3613 H 0.72035 0.69604 0.88721 0.0
H3614 H 0.74625 0.72108 0.88404 0.0
H3615 H 0.81326 0.7373 0.80372 0.0
H3616 H 0.81634 0.72996 0.83554 0.0
H3617 H 0.77296 0.75688 0.85077 0.0
H3618 H 0.77037 0.76478 0.81933 0.0
H3619 H 0.76958 0.71954 0.85891 0.0
H3620 H 0.81184 0.77924 0.86829 0.0
H3621 H 0.83797 0.80204 0.8616 0.0
H3622 H 0.87127 0.7634 0.87144 0.0
H3623 H 0.84526 0.74021 0.87793 0.0
C3624 C 0.78407 0.72009 0.94907 0.0
C3625 C 0.79711 0.71093 0.95511 0.0
C3626 C 0.78366 0.72477 0.93107 0.0
C3627 C 0.79643 0.72062 0.91881 0.0
C3628 C 0.80969 0.71184 0.92498 0.0
C3629 C 0.80992 0.70686 0.94283 0.0
C3630 C 0.79608 0.72563 0.89967 0.0
C3631 C 0.81094 0.73796 0.89478 0.0
C3632 C 0.78103 0.71883 0.88646 0.0
C3633 C 0.76553 0.70438 0.88971 0.0
C3634 C 0.76776 0.68671 0.89377 0.0
C3635 C 0.75299 0.67259 0.89552 0.0
C3636 C 0.73592 0.67596 0.89317 0.0
C3637 C 0.73358 0.69347 0.88911 0.0
C3638 C 0.7483 0.70763 0.88735 0.0
C3639 C 0.80452 0.7417 0.81398 0.0
C3640 C 0.79152 0.75144 0.8092 0.0
C3641 C 0.8063 0.7376 0.8321 0.0
C3642 C 0.79486 0.74288 0.84551 0.0
C3643 C 0.78193 0.7527 0.84066 0.0
C3644 C 0.78045 0.75719 0.82275 0.0
C3645 C 0.79574 0.73744 0.86434 0.0
C3646 C 0.78102 0.72498 0.86911 0.0
C3647 C 0.81092 0.74404 0.87733 0.0
C3648 C 0.82657 0.75789 0.87337 0.0
C3649 C 0.8247 0.7755 0.86883 0.0
C3650 C 0.8395 0.78852 0.86511 0.0
C3651 C 0.85626 0.78414 0.86602 0.0
C3652 C 0.85827 0.76675 0.8707 0.0
C3653 C 0.84351 0.75367 0.87441 0.0
H3654 H 0.8677 0.79425 0.86315 0.0
H3655 H 0.72451 0.66497 0.89444 0.0
H3656 H 0.83798 0.14194 0.01361 0.0
H3657 H 0.86697 0.13432 0.01713 0.0
H3658 H 0.84416 0.08484 0.0404 0.0
H3659 H 0.81488 0.09272 0.03742 0.0
H3660 H 0.87672 0.10629 0.0589 0.0
H3661 H 0.85021 0.07852 0.99645 0.0
H3662 H 0.83428 0.08104 0.96698 0.0
H3663 H 0.87861 0.12306 0.95652 0.0
H3664 H 0.89465 0.12113 0.9862 0.0
H3665 H 0.93655 0.04581 0.03464 0.0
H3666 H 0.91352 0.06346 0.04336 0.0
H3667 H 0.93825 0.10834 0.01498 0.0
H3668 H 0.96123 0.09049 0.00615 0.0
H3669 H 0.90553 0.09216 1.00018 0.0
H3670 H 0.93258 0.1184 0.06265 0.0
H3671 H 0.9456 0.12029 0.09485 0.0
H3672 H 0.89902 0.08184 0.10618 0.0
H3673 H 0.88584 0.07953 0.07401 0.0
C3674 C 0.83909 0.1294 0.01944 0.0
C3675 C 0.82425 0.11763 0.02494 0.0
C3676 C 0.85563 0.12518 0.02154 0.0
C3677 C 0.85744 0.10896 0.02878 0.0
C3678 C 0.84278 0.0974 0.03473 0.0
C3679 C 0.82616 0.10174 0.0328 0.0
C3680 C 0.87451 0.10347 0.02891 0.0
C3681 C 0.88305 0.1029 0.04613 0.0
C3682 C 0.88263 0.09971 0.01214 0.0
C3683 C 0.87361 0.09975 0.99358 0.0
C3684 C 0.85657 0.08829 0.98786 0.0
C3685 C 0.84749 0.08967 0.97116 0.0
C3686 C 0.85541 0.10223 0.9599 0.0
C3687 C 0.87249 0.11334 0.96526 0.0
C3688 C 0.88159 0.11211 0.98202 0.0
C3689 C 0.9373 0.05974 0.03087 0.0
C3690 C 0.95031 0.06687 0.01967 0.0
C3691 C 0.92431 0.06988 0.03596 0.0
C3692 C 0.92427 0.08719 0.02984 0.0
C3693 C 0.93818 0.09504 0.0199 0.0
C3694 C 0.9512 0.08489 0.01484 0.0
C3695 C 0.90806 0.09479 0.03038 0.0
C3696 C 0.89947 0.09563 0.0131 0.0
C3697 C 0.8998 0.09854 0.04712 0.0
C3698 C 0.90834 0.09864 0.06587 0.0
C3699 C 0.92527 0.11008 0.07191 0.0
C3700 C 0.93262 0.11131 0.09019 0.0
C3701 C 0.92316 0.10116 0.10254 0.0
C3702 C 0.90636 0.08966 0.09661 0.0
C3703 C 0.89895 0.08839 0.07836 0.0
H3704 H 0.92884 0.10223 0.11673 0.0
H3705 H 0.84834 0.10334 0.94701 0.0
H3706 H 0.37079 0.40725 0.05703 0.0
H3707 H 0.40164 0.42293 0.05465 0.0
H3708 H 0.38363 0.45788 0.01849 0.0
H3709 H 0.35277 0.44224 0.02085 0.0
H3710 H 0.41201 0.44466 0.00513 0.0
H3711 H 0.39809 0.4747 0.0658 0.0
H3712 H 0.3885 0.47452 0.09765 0.0
H3713 H 0.43164 0.44904 0.11205 0.0
H3714 H 0.44129 0.44872 0.08014 0.0
H3715 H 0.4893 0.52023 0.01071 0.0
H3716 H 0.45939 0.50157 0.013 0.0
H3717 H 0.48167 0.46743 0.04701 0.0
H3718 H 0.51154 0.48563 0.04429 0.0
H3719 H 0.4521 0.478 0.06166 0.0
H3720 H 0.46749 0.44836 0.00418 0.0
H3721 H 0.47742 0.44422 0.97233 0.0
H3722 H 0.43282 0.46416 0.95179 0.0
H3723 H 0.42284 0.4689 0.98364 0.0
C3724 C 0.37336 0.41838 0.04867 0.0
C3725 C 0.35915 0.42359 0.03931 0.0
C3726 C 0.3911 0.42738 0.04731 0.0
C3727 C 0.39521 0.44187 0.03652 0.0
C3728 C 0.38101 0.44687 0.02697 0.0
C3729 C 0.36327 0.43798 0.02844 0.0
C3730 C 0.41416 0.45194 0.03525 0.0
C3731 C 0.42064 0.45223 0.0175 0.0
C3732 C 0.42596 0.46109 0.05133 0.0
C3733 C 0.42029 0.4615 0.07054 0.0
C3734 C 0.40545 0.46892 0.07572 0.0
C3735 C 0.4 0.46891 0.09378 0.0
C3736 C 0.40942 0.46172 0.10685 0.0
C3737 C 0.42434 0.45456 0.1019 0.0
C3738 C 0.42979 0.45447 0.08383 0.0
C3739 C 0.48782 0.50889 0.01884 0.0
C3740 C 0.50292 0.50461 0.02744 0.0
C3741 C 0.47068 0.49806 0.02001 0.0
C3742 C 0.46808 0.48291 0.03014 0.0
C3743 C 0.48314 0.47896 0.03911 0.0
C3744 C 0.50028 0.48944 0.03755 0.0
C3745 C 0.44974 0.47132 0.0315 0.0
C3746 C 0.44344 0.47059 0.04925 0.0
C3747 C 0.43825 0.4614 0.01543 0.0
C3748 C 0.44457 0.45931 0.9964 0.0
C3749 C 0.45996 0.4522 0.99296 0.0
C3750 C 0.46557 0.44966 0.97488 0.0
C3751 C 0.4558 0.45399 0.96006 0.0
C3752 C 0.44041 0.46088 0.9633 0.0
C3753 C 0.43479 0.46353 0.98137 0.0
H3754 H 0.46012 0.45194 0.94606 0.0
H3755 H 0.40519 0.46173 0.12083 0.0
H3756 H 0.37835 0.60417 0.77132 0.0
H3757 H 0.36481 0.63185 0.77092 0.0
H3758 H 0.41635 0.66939 0.78168 0.0
H3759 H 0.42986 0.64156 0.78279 0.0
H3760 H 0.39647 0.69135 0.79735 0.0
H3761 H 0.38566 0.65632 0.73463 0.0
H3762 H 0.37599 0.62758 0.70999 0.0
H3763 H 0.32337 0.61971 0.72797 0.0
H3764 H 0.33278 0.6484 0.75279 0.0
H3765 H 0.36185 0.76952 0.76418 0.0
H3766 H 0.37686 0.74368 0.76878 0.0
H3767 H 0.32656 0.70716 0.77265 0.0
H3768 H 0.31196 0.73346 0.76956 0.0
H3769 H 0.34664 0.68584 0.74958 0.0
H3770 H 0.35946 0.71761 0.81533 0.0
H3771 H 0.3688 0.74655 0.83985 0.0
H3772 H 0.41681 0.76245 0.81395 0.0
H3773 H 0.40814 0.73306 0.78964 0.0
C3774 C 0.38703 0.61821 0.77358 0.0
C3775 C 0.40561 0.61972 0.77698 0.0
C3776 C 0.3791 0.63454 0.77315 0.0
C3777 C 0.38905 0.65382 0.77571 0.0
C3778 C 0.40766 0.65535 0.77947 0.0
C3779 C 0.4156 0.63899 0.78005 0.0
C3780 C 0.3802 0.67174 0.77427 0.0
C3781 C 0.38576 0.68984 0.7866 0.0
C3782 C 0.3658 0.67123 0.76069 0.0
C3783 C 0.35993 0.65436 0.74558 0.0
C3784 C 0.37203 0.64843 0.73331 0.0
C3785 C 0.36661 0.63216 0.71933 0.0
C3786 C 0.34908 0.6218 0.71744 0.0
C3787 C 0.33693 0.62775 0.72946 0.0
C3788 C 0.34229 0.64404 0.74345 0.0
C3789 C 0.35373 0.75621 0.76639 0.0
C3790 C 0.33495 0.75448 0.76627 0.0
C3791 C 0.36259 0.741 0.76903 0.0
C3792 C 0.35335 0.72247 0.77108 0.0
C3793 C 0.33468 0.72072 0.77107 0.0
C3794 C 0.32597 0.7362 0.76916 0.0
C3795 C 0.36281 0.70517 0.77263 0.0
C3796 C 0.35737 0.68725 0.76029 0.0
C3797 C 0.3774 0.70597 0.78601 0.0
C3798 C 0.38319 0.72318 0.80077 0.0
C3799 C 0.37212 0.72718 0.81499 0.0
C3800 C 0.37735 0.74357 0.82889 0.0
C3801 C 0.39353 0.75618 0.82855 0.0
C3802 C 0.40452 0.75239 0.81434 0.0
C3803 C 0.39951 0.73582 0.80059 0.0
H3804 H 0.3975 0.76896 0.83921 0.0
H3805 H 0.34492 0.60917 0.70664 0.0
H3806 H 0.22792 0.59363 0.53347 0.0
H3807 H 0.19554 0.58387 0.53125 0.0
H3808 H 0.19107 0.63106 0.50344 0.0
H3809 H 0.22328 0.64109 0.50596 0.0
H3810 H 0.16926 0.62819 0.53131 0.0
H3811 H 0.18262 0.58865 0.47713 0.0
H3812 H 0.19855 0.56659 0.45897 0.0
H3813 H 0.18118 0.52453 0.49299 0.0
H3814 H 0.16528 0.54644 0.51146 0.0
H3815 H 0.0807 0.59026 0.49258 0.0
H3816 H 0.11132 0.60577 0.50323 0.0
H3817 H 0.11797 0.55604 0.52605 0.0
H3818 H 0.08794 0.53959 0.51276 0.0
H3819 H 0.13881 0.56239 0.50088 0.0
H3820 H 0.1284 0.60783 0.5579 0.0
H3821 H 0.11314 0.63221 0.57359 0.0
H3822 H 0.123 0.6639 0.529 0.0
H3823 H 0.139 0.64022 0.5136 0.0
C3824 C 0.21995 0.60168 0.52669 0.0
C3825 C 0.22779 0.61795 0.51984 0.0
C3826 C 0.20163 0.59622 0.52551 0.0
C3827 C 0.19124 0.60683 0.51715 0.0
C3828 C 0.19907 0.6229 0.51002 0.0
C3829 C 0.21734 0.62847 0.51138 0.0
C3830 C 0.17209 0.60101 0.51586 0.0
C3831 C 0.16248 0.61383 0.52466 0.0
C3832 C 0.16352 0.58246 0.50693 0.0
C3833 C 0.17294 0.56922 0.49577 0.0
C3834 C 0.18232 0.57475 0.48081 0.0
C3835 C 0.19133 0.56227 0.47046 0.0
C3836 C 0.19094 0.5442 0.47487 0.0
C3837 C 0.18149 0.53854 0.4896 0.0
C3838 C 0.17246 0.55096 0.5 0.0
C3839 C 0.08885 0.58282 0.49996 0.0
C3840 C 0.0825 0.56395 0.50205 0.0
C3841 C 0.10605 0.59189 0.50662 0.0
C3842 C 0.1167 0.58225 0.51592 0.0
C3843 C 0.10976 0.56374 0.51912 0.0
C3844 C 0.0928 0.55437 0.51161 0.0
C3845 C 0.13585 0.58907 0.51748 0.0
C3846 C 0.14551 0.57658 0.50811 0.0
C3847 C 0.14427 0.60808 0.52542 0.0
C3848 C 0.13457 0.62216 0.53455 0.0
C3849 C 0.12711 0.61992 0.55144 0.0
C3850 C 0.11842 0.63362 0.56028 0.0
C3851 C 0.11677 0.64935 0.55211 0.0
C3852 C 0.12417 0.65165 0.53527 0.0
C3853 C 0.13322 0.63823 0.5266 0.0
H3854 H 0.10992 0.65986 0.55892 0.0
H3855 H 0.19793 0.53456 0.46684 0.0
H3856 H 0.71051 1.00015 0.7693 0.0
H3857 H 0.72015 0.97056 0.77128 0.0
H3858 H 0.71585 0.95595 0.71065 0.0
H3859 H 0.70497 0.98525 0.70876 0.0
H3860 H 0.70281 0.9262 0.72831 0.0
H3861 H 0.75548 0.97557 0.73327 0.0
H3862 H 0.77245 0.00824 0.74596 0.0
H3863 H 0.77349 0.99536 0.80154 0.0
H3864 H 0.7562 0.96271 0.78928 0.0
H3865 H 0.76883 0.868 0.74933 0.0
H3866 H 0.75134 0.88662 0.73402 0.0
H3867 H 0.73266 0.90656 0.78716 0.0
H3868 H 0.74972 0.8877 0.80253 0.0
H3869 H 0.7597 0.93247 0.76621 0.0
H3870 H 0.70368 0.88777 0.76401 0.0
H3871 H 0.68034 0.85853 0.75462 0.0
H3872 H 0.68178 0.86489 0.69692 0.0
H3873 H 0.70554 0.89388 0.70592 0.0
C3874 C 0.7117 0.99051 0.7565 0.0
C3875 C 0.70766 0.99459 0.73891 0.0
C3876 C 0.71712 0.97382 0.75759 0.0
C3877 C 0.71919 0.96175 0.74105 0.0
C3878 C 0.71452 0.96552 0.72341 0.0
C3879 C 0.70852 0.98204 0.72234 0.0
C3880 C 0.7265 0.94529 0.74252 0.0
C3881 C 0.71551 0.92733 0.73603 0.0
C3882 C 0.74285 0.94742 0.75304 0.0
C3883 C 0.75459 0.96657 0.76029 0.0
C3884 C 0.7594 0.97964 0.74819 0.0
C3885 C 0.76901 0.99821 0.75532 0.0
C3886 C 0.77407 1.00386 0.77454 0.0
C3887 C 0.76961 0.99093 0.78665 0.0
C3888 C 0.75994 0.97236 0.7796 0.0
C3889 C 0.7604 0.87574 0.75756 0.0
C3890 C 0.76075 0.87684 0.77711 0.0
C3891 C 0.75038 0.88616 0.74879 0.0
C3892 C 0.74075 0.89756 0.75958 0.0
C3893 C 0.73991 0.89744 0.77876 0.0
C3894 C 0.74982 0.887 0.78751 0.0
C3895 C 0.73574 0.91326 0.75235 0.0
C3896 C 0.74735 0.93116 0.75776 0.0
C3897 C 0.71983 0.9111 0.7411 0.0
C3898 C 0.70681 0.89268 0.7356 0.0
C3899 C 0.69946 0.88262 0.74927 0.0
C3900 C 0.68602 0.86617 0.74402 0.0
C3901 C 0.67967 0.85977 0.72517 0.0
C3902 C 0.6868 0.86976 0.7115 0.0
C3903 C 0.70031 0.88615 0.71666 0.0
H3904 H 0.66915 0.84713 0.72116 0.0
H3905 H 0.78144 0.01826 0.78004 0.0
H3906 H 0.74432 0.89146 0.55387 0.0
H3907 H 0.71707 0.90396 0.55344 0.0
H3908 H 0.73993 0.94293 0.51801 0.0
H3909 H 0.76734 0.93137 0.51949 0.0
H3910 H 0.72672 0.96149 0.54331 0.0
H3911 H 0.70371 0.8977 0.50536 0.0
H3912 H 0.69508 0.86245 0.49975 0.0
H3913 H 0.66092 0.86517 0.54447 0.0
H3914 H 0.66957 0.90039 0.55055 0.0
H3915 H 0.66109 0.99647 0.5031 0.0
H3916 H 0.68302 0.9791 0.51046 0.0
H3917 H 0.64726 0.94827 0.54399 0.0
H3918 H 0.62385 0.96415 0.5344 0.0
H3919 H 0.66491 0.92468 0.52704 0.0
H3920 H 0.68588 0.98765 0.56343 0.0
H3921 H 0.69414 0.02292 0.5697 0.0
H3922 H 0.73221 0.02146 0.52873 0.0
H3923 H 0.72406 0.98624 0.5221 0.0
C3924 C 0.74346 0.9027 0.54599 0.0
C3925 C 0.75808 0.91057 0.53684 0.0
C3926 C 0.72776 0.90972 0.54558 0.0
C3927 C 0.72614 0.92436 0.53553 0.0
C3928 C 0.74068 0.93176 0.52602 0.0
C3929 C 0.75644 0.92515 0.52685 0.0
C3930 C 0.71017 0.93327 0.53576 0.0
C3931 C 0.71326 0.95331 0.53947 0.0
C3932 C 0.69229 0.92284 0.53204 0.0
C3933 C 0.68751 0.90166 0.52859 0.0
C3934 C 0.69454 0.89077 0.51414 0.0
C3935 C 0.6896 0.87079 0.51085 0.0
C3936 C 0.67752 0.86158 0.5218 0.0
C3937 C 0.67033 0.87231 0.53605 0.0
C3938 C 0.67526 0.89227 0.53943 0.0
C3939 C 0.65748 0.98572 0.5117 0.0
C3940 C 0.64026 0.98149 0.51761 0.0
C3941 C 0.67041 0.97605 0.51638 0.0
C3942 C 0.66724 0.96264 0.5283 0.0
C3943 C 0.65023 0.95862 0.53483 0.0
C3944 C 0.63687 0.9679 0.52951 0.0
C3945 C 0.68178 0.95285 0.53326 0.0
C3946 C 0.6784 0.93277 0.53089 0.0
C3947 C 0.69951 0.96316 0.53831 0.0
C3948 C 0.70434 0.98434 0.54228 0.0
C3949 C 0.69596 0.99487 0.55573 0.0
C3950 C 0.70063 0.01485 0.55934 0.0
C3951 C 0.71369 0.02442 0.54962 0.0
C3952 C 0.72212 0.01404 0.53627 0.0
C3953 C 0.71751 0.99409 0.53262 0.0
H3954 H 0.71729 0.03989 0.55245 0.0
H3955 H 0.67369 0.84612 0.51919 0.0
H3956 H 0.40776 0.49651 0.74627 0.0
H3957 H 0.39382 0.46286 0.74607 0.0
H3958 H 0.38073 0.47799 0.8027 0.0
H3959 H 0.39458 0.51172 0.80284 0.0
H3960 H 0.38999 0.44323 0.79959 0.0
H3961 H 0.34914 0.4661 0.76106 0.0
H3962 H 0.34094 0.4808 0.73456 0.0
H3963 H 0.35617 0.43655 0.69582 0.0
H3964 H 0.36475 0.4218 0.72216 0.0
H3965 H 0.32218 0.35698 0.8021 0.0
H3966 H 0.33904 0.38979 0.8023 0.0
H3967 H 0.35317 0.37202 0.74659 0.0
H3968 H 0.33712 0.33908 0.7468 0.0
H3969 H 0.34467 0.40736 0.7484 0.0
H3970 H 0.38454 0.38346 0.78264 0.0
H3971 H 0.39736 0.36834 0.80641 0.0
H3972 H 0.38884 0.41252 0.85012 0.0
H3973 H 0.37564 0.42774 0.8266 0.0
C3974 C 0.40184 0.49288 0.75874 0.0
C3975 C 0.40236 0.50764 0.77447 0.0
C3976 C 0.39367 0.47324 0.75862 0.0
C3977 C 0.38557 0.46696 0.77429 0.0
C3978 C 0.38652 0.48166 0.79019 0.0
C3979 C 0.3945 0.50134 0.79023 0.0
C3980 C 0.37598 0.44557 0.77402 0.0
C3981 C 0.37982 0.43571 0.78851 0.0
C3982 C 0.36315 0.43442 0.75933 0.0
C3983 C 0.35773 0.443 0.74354 0.0
C3984 C 0.35082 0.45959 0.74688 0.0
C3985 C 0.34612 0.46793 0.73191 0.0
C3986 C 0.34808 0.45965 0.71352 0.0
C3987 C 0.35469 0.44297 0.71007 0.0
C3988 C 0.35948 0.43462 0.72501 0.0
C3989 C 0.3287 0.35996 0.78975 0.0
C3990 C 0.32764 0.34483 0.77427 0.0
C3991 C 0.33864 0.37901 0.78992 0.0
C3992 C 0.34776 0.38427 0.77443 0.0
C3993 C 0.3465 0.36914 0.75888 0.0
C3994 C 0.33709 0.34998 0.75897 0.0
C3995 C 0.35819 0.40522 0.77432 0.0
C3996 C 0.35464 0.41493 0.75966 0.0
C3997 C 0.37164 0.416 0.78859 0.0
C3998 C 0.37876 0.40652 0.80289 0.0
C3999 C 0.3851 0.38977 0.79735 0.0
C4000 C 0.39251 0.38123 0.81077 0.0
C4001 C 0.39382 0.3894 0.82978 0.0
C4002 C 0.38773 0.40616 0.8354 0.0
C4003 C 0.38026 0.41473 0.82203 0.0
H4004 H 0.39962 0.3828 0.84015 0.0
H4005 H 0.34445 0.46614 0.70194 0.0
H4006 H 0.23959 0.59615 0.25138 0.0
H4007 H 0.25235 0.63015 0.2617 0.0
H4008 H 0.20188 0.63929 0.27976 0.0
H4009 H 0.18892 0.60551 0.26922 0.0
H4010 H 0.2141 0.65878 0.25274 0.0
H4011 H 0.23453 0.64887 0.312 0.0
H4012 H 0.24809 0.63153 0.33319 0.0
H4013 H 0.29774 0.64513 0.3093 0.0
H4014 H 0.28438 0.66229 0.28773 0.0
H4015 H 0.24799 0.75645 0.28608 0.0
H4016 H 0.23357 0.72309 0.27623 0.0
H4017 H 0.28459 0.70886 0.26719 0.0
H4018 H 0.29915 0.74216 0.27988 0.0
H4019 H 0.26981 0.69204 0.29165 0.0
H4020 H 0.24395 0.69232 0.22586 0.0
H4021 H 0.22713 0.70504 0.20274 0.0
H4022 H 0.18629 0.70894 0.24015 0.0
H4023 H 0.20258 0.6957 0.26309 0.0
C4024 C 0.23138 0.60542 0.25784 0.0
C4025 C 0.21334 0.59863 0.25922 0.0
C4026 C 0.23866 0.6246 0.26392 0.0
C4027 C 0.22791 0.63675 0.27155 0.0
C4028 C 0.21018 0.62978 0.274 0.0
C4029 C 0.20286 0.61068 0.26778 0.0
C4030 C 0.23436 0.65702 0.27357 0.0
C4031 C 0.22614 0.66629 0.26146 0.0
C4032 C 0.25008 0.66623 0.2847 0.0
C4033 C 0.25844 0.65677 0.29822 0.0
C4034 C 0.24833 0.64812 0.31125 0.0
C4035 C 0.25598 0.63831 0.3233 0.0
C4036 C 0.27376 0.6372 0.32257 0.0
C4037 C 0.28397 0.64601 0.30985 0.0
C4038 C 0.27638 0.65581 0.29773 0.0
C4039 C 0.25595 0.74606 0.28172 0.0
C4040 C 0.27441 0.75123 0.28342 0.0
C4041 C 0.24773 0.72721 0.2755 0.0
C4042 C 0.25801 0.71368 0.27044 0.0
C4043 C 0.27653 0.71929 0.27087 0.0
C4044 C 0.2848 0.73802 0.27816 0.0
C4045 C 0.25011 0.69376 0.26997 0.0
C4046 C 0.25789 0.68461 0.28272 0.0
C4047 C 0.23386 0.68469 0.25953 0.0
C4048 C 0.22467 0.6936 0.24627 0.0
C4049 C 0.2315 0.69618 0.22917 0.0
C4050 C 0.22199 0.70326 0.21606 0.0
C4051 C 0.20582 0.70807 0.2201 0.0
C4052 C 0.19891 0.70541 0.2371 0.0
C4053 C 0.20819 0.69799 0.25007 0.0
H4054 H 0.19857 0.7137 0.20999 0.0
H4055 H 0.27964 0.62952 0.33187 0.0
H4056 H 0.54407 0.73752 0.47221 0.0
H4057 H 0.55081 0.71208 0.48784 0.0
H4058 H 0.50458 0.673 0.45785 0.0
H4059 H 0.4981 0.69837 0.4416 0.0
H4060 H 0.50869 0.67189 0.49763 0.0
H4061 H 0.54256 0.66852 0.44398 0.0
H4062 H 0.5644 0.6798 0.42258 0.0
H4063 H 0.60558 0.69482 0.46792 0.0
H4064 H 0.58389 0.68392 0.48968 0.0
H4065 H 0.52655 0.57965 0.49496 0.0
H4066 H 0.52074 0.60971 0.48951 0.0
H4067 H 0.5654 0.64002 0.52834 0.0
H4068 H 0.5699 0.60946 0.53599 0.0
H4069 H 0.56407 0.64835 0.48816 0.0
H4070 H 0.53179 0.64965 0.54137 0.0
H4071 H 0.51074 0.63832 0.56347 0.0
H4072 H 0.46763 0.62778 0.52065 0.0
H4073 H 0.48847 0.63877 0.49818 0.0
C4074 C 0.53528 0.72352 0.46893 0.0
C4075 C 0.52052 0.72005 0.45559 0.0
C4076 C 0.5392 0.70894 0.47787 0.0
C4077 C 0.52827 0.6905 0.47407 0.0
C4078 C 0.51327 0.68706 0.46106 0.0
C4079 C 0.50959 0.70156 0.45171 0.0
C4080 C 0.53262 0.67488 0.48353 0.0
C4081 C 0.52073 0.66665 0.4954 0.0
C4082 C 0.54867 0.66843 0.48136 0.0
C4083 C 0.56155 0.67572 0.46851 0.0
C4084 C 0.55621 0.67453 0.44945 0.0
C4085 C 0.56858 0.68077 0.43724 0.0
C4086 C 0.58635 0.6881 0.4439 0.0
C4087 C 0.59179 0.68921 0.4628 0.0
C4088 C 0.57947 0.68302 0.47507 0.0
C4089 C 0.53505 0.5925 0.50291 0.0
C4090 C 0.5493 0.59165 0.51556 0.0
C4091 C 0.53164 0.60988 0.4996 0.0
C4092 C 0.54273 0.62723 0.50821 0.0
C4093 C 0.55669 0.62679 0.52133 0.0
C4094 C 0.5595 0.6092 0.52547 0.0
C4095 C 0.5401 0.64528 0.50211 0.0
C4096 C 0.55219 0.65384 0.49068 0.0
C4097 C 0.52433 0.65213 0.50484 0.0
C4098 C 0.51175 0.64483 0.51802 0.0
C4099 C 0.51786 0.64465 0.53657 0.0
C4100 C 0.50595 0.63837 0.5492 0.0
C4101 C 0.48786 0.63228 0.54346 0.0
C4102 C 0.48165 0.63247 0.52507 0.0
C4103 C 0.49351 0.63873 0.51238 0.0
H4104 H 0.47865 0.62745 0.55326 0.0
H4105 H 0.59592 0.69285 0.4344 0.0
H4106 H 0.6456 0.31675 0.62939 0.0
H4107 H 0.67203 0.31836 0.65035 0.0
H4108 H 0.63881 0.30654 0.69473 0.0
H4109 H 0.61258 0.30578 0.67409 0.0
H4110 H 0.66578 0.33129 0.70987 0.0
H4111 H 0.66093 0.27283 0.66418 0.0
H4112 H 0.66032 0.25395 0.63245 0.0
H4113 H 0.71201 0.2863 0.62616 0.0
H4114 H 0.71277 0.30564 0.65769 0.0
H4115 H 0.72832 0.30389 0.77135 0.0
H4116 H 0.70347 0.30711 0.75075 0.0
H4117 H 0.73863 0.31703 0.70757 0.0
H4118 H 0.76339 0.31385 0.72811 0.0
H4119 H 0.71158 0.2948 0.69118 0.0
H4120 H 0.71803 0.35261 0.73528 0.0
H4121 H 0.71917 0.37516 0.76502 0.0
H4122 H 0.66614 0.34779 0.77306 0.0
H4123 H 0.66481 0.3248 0.7436 0.0
C4124 C 0.64392 0.31451 0.64363 0.0
C4125 C 0.6268 0.31102 0.64991 0.0
C4126 C 0.65913 0.31527 0.65566 0.0
C4127 C 0.65772 0.31217 0.67429 0.0
C4128 C 0.64058 0.30894 0.68055 0.0
C4129 C 0.62545 0.30843 0.66863 0.0
C4130 C 0.67381 0.31242 0.68741 0.0
C4131 C 0.67562 0.323 0.70582 0.0
C4132 C 0.68736 0.30245 0.68217 0.0
C4133 C 0.68681 0.29081 0.66321 0.0
C4134 C 0.6721 0.27601 0.65597 0.0
C4135 C 0.67173 0.26523 0.63802 0.0
C4136 C 0.68609 0.26895 0.62728 0.0
C4137 C 0.70087 0.28346 0.63447 0.0
C4138 C 0.70127 0.29435 0.65236 0.0
C4139 C 0.73096 0.30738 0.75775 0.0
C4140 C 0.7482 0.30904 0.75179 0.0
C4141 C 0.71656 0.3091 0.74577 0.0
C4142 C 0.71888 0.31259 0.72738 0.0
C4143 C 0.73614 0.31433 0.72152 0.0
C4144 C 0.75045 0.31255 0.73343 0.0
C4145 C 0.70341 0.31338 0.71387 0.0
C4146 C 0.70174 0.30304 0.69535 0.0
C4147 C 0.69015 0.32384 0.71893 0.0
C4148 C 0.69142 0.33679 0.73733 0.0
C4149 C 0.70673 0.35117 0.74355 0.0
C4150 C 0.70738 0.36408 0.76033 0.0
C4151 C 0.69276 0.36288 0.77095 0.0
C4152 C 0.67749 0.34868 0.76486 0.0
C4153 C 0.67679 0.33567 0.74815 0.0
H4154 H 0.69324 0.37298 0.78386 0.0
H4155 H 0.68579 0.26056 0.6134 0.0
H4156 H 0.00438 0.31303 0.98189 0.0
H4157 H 0.00589 0.34614 0.99762 0.0
H4158 H 0.03912 0.36683 0.95628 0.0
H4159 H 0.03797 0.33406 0.94091 0.0
H4160 H 0.05163 0.3865 0.98928 0.0
H4161 H 0.9937 0.36652 0.95565 0.0
H4162 H 0.96346 0.34698 0.9469 0.0
H4163 H 0.95047 0.36081 0.00368 0.0
H4164 H 0.98075 0.38018 0.01283 0.0
H4165 H 0.03935 0.4821 0.99471 0.0
H4166 H 0.03548 0.44761 0.98311 0.0
H4167 H 0.01792 0.43619 0.03627 0.0
H4168 H 0.02282 0.47078 0.04824 0.0
H4169 H 0.99732 0.41163 1.00046 0.0
H4170 H 0.05497 0.43293 0.03352 0.0
H4171 H 0.08562 0.45115 0.04255 0.0
H4172 H 0.09939 0.43457 0.98656 0.0
H4173 H 0.06869 0.41654 0.97704 0.0
C4174 C 0.0121 0.32466 0.97628 0.0
C4175 C 0.02105 0.32088 0.96013 0.0
C4176 C 0.01286 0.3436 0.9852 0.0
C4177 C 0.02246 0.35911 0.97805 0.0
C4178 C 0.03163 0.35523 0.96215 0.0
C4179 C 0.03094 0.33641 0.95332 0.0
C4180 C 0.02309 0.37942 0.98689 0.0
C4181 C 0.03972 0.392 0.9915 0.0
C4182 C 0.0076 0.38661 0.99037 0.0
C4183 C 0.98956 0.37458 0.98498 0.0
C4184 C 0.98447 0.3652 0.96632 0.0
C4185 C 0.9673 0.35419 0.96128 0.0
C4186 C 0.95507 0.3526 0.97474 0.0
C4187 C 0.95998 0.36201 0.99328 0.0
C4188 C 0.97714 0.37299 0.9984 0.0
C4189 C 0.03408 0.47217 0.00367 0.0
C4190 C 0.03077 0.47902 0.02215 0.0
C4191 C 0.03212 0.45252 0.99713 0.0
C4192 C 0.02655 0.43935 0.00888 0.0
C4193 C 0.02225 0.44611 0.02699 0.0
C4194 C 0.02478 0.46582 0.03372 0.0
C4195 C 0.02581 0.41863 0.00239 0.0
C4196 C 0.00919 0.40604 0.99825 0.0
C4197 C 0.04132 0.41144 0.99924 0.0
C4198 C 0.0594 0.42359 0.00449 0.0
C4199 C 0.06439 0.4335 0.023 0.0
C4200 C 0.08182 0.4437 0.02824 0.0
C4201 C 0.09443 0.44399 0.01513 0.0
C4202 C 0.0896 0.43432 0.99669 0.0
C4203 C 0.07217 0.42414 0.99136 0.0
H4204 H 0.10796 0.4516 0.01932 0.0
H4205 H 0.94177 0.34413 0.97079 0.0
H4206 H 0.03913 0.78358 0.15976 0.0
H4207 H 0.01115 0.77931 0.17453 0.0
H4208 H 0.99257 0.81695 0.14185 0.0
H4209 H 0.02046 0.82099 0.12675 0.0
H4210 H 0.9877 0.82628 0.1795 0.0
H4211 H 0.97274 0.77059 0.13171 0.0
H4212 H 0.97462 0.74002 0.11195 0.0
H4213 H 0.97719 0.71451 0.16099 0.0
H4214 H 0.97549 0.74495 0.18105 0.0
H4215 H 0.89733 0.79269 0.21117 0.0
H4216 H 0.921 0.80099 0.19062 0.0
H4217 H 0.95692 0.78003 0.22499 0.0
H4218 H 0.93412 0.77297 0.2461 0.0
H4219 H 0.9496 0.76319 0.18212 0.0
H4220 H 0.96746 0.82038 0.22987 0.0
H4221 H 0.96449 0.85072 0.24917 0.0
H4222 H 0.9562 0.87354 0.19934 0.0
H4223 H 0.95872 0.84312 0.17972 0.0
C4224 C 0.02908 0.79093 0.15568 0.0
C4225 C 0.03212 0.80276 0.14219 0.0
C4226 C 0.013 0.78835 0.16403 0.0
C4227 C 0.99962 0.79771 0.15927 0.0
C4228 C 1.00262 0.80953 0.14577 0.0
C4229 C 0.0186 0.81186 0.13717 0.0
C4230 C 0.98304 0.79595 0.16922 0.0
C4231 C 0.97917 0.81249 0.17974 0.0
C4232 C 0.97192 0.77801 0.16979 0.0
C4233 C 0.97415 0.7601 0.15789 0.0
C4234 C 0.97398 0.75855 0.1383 0.0
C4235 C 0.97492 0.74121 0.12704 0.0
C4236 C 0.97603 0.72535 0.13524 0.0
C4237 C 0.97633 0.72681 0.15469 0.0
C4238 C 0.97537 0.74409 0.16599 0.0
C4239 C 0.91038 0.79029 0.21465 0.0
C4240 C 0.91352 0.78165 0.23017 0.0
C4241 C 0.92388 0.79495 0.20279 0.0
C4242 C 0.94069 0.79092 0.20615 0.0
C4243 C 0.94403 0.7831 0.222 0.0
C4244 C 0.93081 0.77889 0.23399 0.0
C4245 C 0.9546 0.79342 0.19271 0.0
C4246 C 0.95797 0.77699 0.18157 0.0
C4247 C 0.96523 0.81144 0.19159 0.0
C4248 C 0.96286 0.82933 0.20333 0.0
C4249 C 0.9646 0.8317 0.22302 0.0
C4250 C 0.96311 0.84896 0.23402 0.0
C4251 C 0.96005 0.86401 0.22549 0.0
C4252 C 0.95847 0.86183 0.20593 0.0
C4253 C 0.95989 0.84458 0.19487 0.0
H4254 H 0.95898 0.8774 0.23404 0.0
H4255 H 0.97654 0.71189 0.12655 0.0
H4256 H 0.51014 0.28478 0.10724 0.0
H4257 H 0.51948 0.3091 0.08829 0.0
H4258 H 0.52485 0.35328 0.13746 0.0
H4259 H 0.51516 0.329 0.15652 0.0
H4260 H 0.50681 0.36074 0.10853 0.0
H4261 H 0.56112 0.34081 0.11902 0.0
H4262 H 0.58036 0.31763 0.11933 0.0
H4263 H 0.57015 0.30038 0.05952 0.0
H4264 H 0.55058 0.32322 0.0589 0.0
H4265 H 0.55267 0.43522 0.06389 0.0
H4266 H 0.54229 0.41301 0.08484 0.0
H4267 H 0.5372 0.36545 0.0389 0.0
H4268 H 0.54746 0.3875 0.01791 0.0
H4269 H 0.55648 0.36074 0.06801 0.0
H4270 H 0.50072 0.37909 0.05792 0.0
H4271 H 0.47831 0.39891 0.05829 0.0
H4272 H 0.48992 0.41758 0.11783 0.0
H4273 H 0.51262 0.39816 0.11776 0.0
C4274 C 0.51322 0.29969 0.11399 0.0
C4275 C 0.51187 0.30514 0.13329 0.0
C4276 C 0.51873 0.3135 0.10321 0.0
C4277 C 0.52312 0.33284 0.11164 0.0
C4278 C 0.52161 0.33833 0.13084 0.0
C4279 C 0.51603 0.32452 0.14165 0.0
C4280 C 0.52829 0.34746 0.10016 0.0
C4281 C 0.51791 0.36107 0.09993 0.0
C4282 C 0.54242 0.34729 0.08863 0.0
C4283 C 0.55426 0.33362 0.08895 0.0
C4284 C 0.56286 0.33196 0.10596 0.0
C4285 C 0.57384 0.3189 0.10619 0.0
C4286 C 0.57644 0.30751 0.08946 0.0
C4287 C 0.5681 0.3092 0.07247 0.0
C4288 C 0.55707 0.32221 0.07217 0.0
C4289 C 0.549 0.42004 0.05819 0.0
C4290 C 0.55103 0.413 0.03932 0.0
C4291 C 0.54306 0.40742 0.07016 0.0
C4292 C 0.53899 0.38766 0.06335 0.0
C4293 C 0.54037 0.38069 0.04438 0.0
C4294 C 0.54632 0.39326 0.03246 0.0
C4295 C 0.53484 0.37406 0.07619 0.0
C4296 C 0.54549 0.36062 0.07673 0.0
C4297 C 0.52095 0.3744 0.08806 0.0
C4298 C 0.5086 0.38747 0.08775 0.0
C4299 C 0.49878 0.38777 0.07101 0.0
C4300 C 0.48594 0.39883 0.07119 0.0
C4301 C 0.48275 0.40956 0.08805 0.0
C4302 C 0.49246 0.40935 0.10476 0.0
C4303 C 0.50534 0.39836 0.10465 0.0
H4304 H 0.47269 0.41799 0.08818 0.0
H4305 H 0.58496 0.2974 0.08967 0.0
H4306 H 0.05941 0.35292 0.36507 0.0
H4307 H 0.0301 0.35534 0.35212 0.0
H4308 H 0.0087 0.29724 0.35845 0.0
H4309 H 0.03783 0.29503 0.37187 0.0
H4310 H 1.00127 0.30601 0.32263 0.0
H4311 H 1.00003 0.33128 0.38863 0.0
H4312 H 0.01153 0.3534 0.41836 0.0
H4313 H 0.00648 0.40125 0.39248 0.0
H4314 H 0.99522 0.37942 0.36248 0.0
H4315 H 0.91325 0.30277 0.29493 0.0
H4316 H 0.93784 0.30073 0.31675 0.0
H4317 H 0.9589 0.36128 0.32127 0.0
H4318 H 0.93433 0.36332 0.29971 0.0
H4319 H 0.96618 0.35085 0.35307 0.0
H4320 H 0.97015 0.32864 0.28774 0.0
H4321 H 0.96189 0.30899 0.25615 0.0
H4322 H 0.96518 0.25842 0.27822 0.0
H4323 H 0.97308 0.27772 0.31004 0.0
C4324 C 0.04837 0.34074 0.36359 0.0
C4325 C 0.05053 0.3238 0.36928 0.0
C4326 C 0.03176 0.34216 0.35638 0.0
C4327 C 0.0174 0.3265 0.35457 0.0
C4328 C 0.01971 0.30945 0.35995 0.0
C4329 C 0.0362 0.3082 0.36755 0.0
C4330 C 0.99999 0.32756 0.34649 0.0
C4331 C 0.99338 0.31553 0.32938 0.0
C4332 C 0.99028 0.34058 0.35516 0.0
C4333 C 0.99692 0.35371 0.37325 0.0
C4334 C 1.00151 0.34652 0.38923 0.0
C4335 C 0.00797 0.35901 0.40614 0.0
C4336 C 0.00977 0.37872 0.40731 0.0
C4337 C 0.00509 0.38598 0.39156 0.0
C4338 C 0.99866 0.37355 0.37459 0.0
C4339 C 0.92279 0.31571 0.30123 0.0
C4340 C 0.92225 0.33318 0.29567 0.0
C4341 C 0.93681 0.31453 0.31354 0.0
C4342 C 0.9503 0.33078 0.32021 0.0
C4343 C 0.94865 0.34858 0.31617 0.0
C4344 C 0.9347 0.34975 0.30387 0.0
C4345 C 0.96719 0.329 0.32925 0.0
C4346 C 0.97387 0.34106 0.34643 0.0
C4347 C 0.97723 0.31632 0.3204 0.0
C4348 C 0.97191 0.30461 0.30134 0.0
C4349 C 0.96886 0.3133 0.28592 0.0
C4350 C 0.96429 0.30222 0.26795 0.0
C4351 C 0.96296 0.28246 0.26519 0.0
C4352 C 0.96616 0.27372 0.28039 0.0
C4353 C 0.97065 0.28472 0.2984 0.0
H4354 H 0.95949 0.27392 0.25126 0.0
H4355 H 0.01477 0.38837 0.42042 0.0
H4356 H 1.00027 0.69423 0.65894 0.0
H4357 H 0.99891 0.66264 0.63994 0.0
H4358 H 0.98204 0.68286 0.59069 0.0
H4359 H 0.98266 0.71381 0.60952 0.0
H4360 H 0.96921 0.64702 0.58625 0.0
H4361 H 0.02697 0.69021 0.60814 0.0
H4362 H 0.05333 0.70773 0.6293 0.0
H4363 H 0.05878 0.65575 0.64748 0.0
H4364 H 0.0323 0.63801 0.62666 0.0
H4365 H 0.02546 0.61697 0.51466 0.0
H4366 H 0.00867 0.63438 0.53681 0.0
H4367 H 0.01659 0.59855 0.5769 0.0
H4368 H 0.03383 0.58262 0.55598 0.0
H4369 H 0.03074 0.63689 0.588 0.0
H4370 H 0.97514 0.59355 0.5601 0.0
H4371 H 0.95374 0.57774 0.53282 0.0
H4372 H 0.94905 0.63252 0.52082 0.0
H4373 H 0.97036 0.64864 0.54807 0.0
C4374 C 0.99572 0.69161 0.64417 0.0
C4375 C 0.99209 0.70638 0.63544 0.0
C4376 C 0.99491 0.67367 0.63341 0.0
C4377 C 0.99075 0.67073 0.61396 0.0
C4378 C 0.9853 0.68492 0.60571 0.0
C4379 C 0.98591 0.70267 0.61642 0.0
C4380 C 0.99518 0.65474 0.60156 0.0
C4381 C 0.98258 0.64454 0.58677 0.0
C4382 C 0.01271 0.65176 0.60222 0.0
C4383 C 0.02736 0.6629 0.61624 0.0
C4384 C 0.03354 0.68262 0.61698 0.0
C4385 C 0.04858 0.69256 0.62882 0.0
C4386 C 0.05766 0.68289 0.63982 0.0
C4387 C 0.05166 0.66327 0.63908 0.0
C4388 C 0.0366 0.65329 0.62734 0.0
C4389 C 0.02365 0.61305 0.52828 0.0
C4390 C 0.03133 0.59872 0.53381 0.0
C4391 C 0.01381 0.6226 0.54062 0.0
C4392 C 0.01132 0.61732 0.55816 0.0
C4393 C 0.01831 0.60256 0.56326 0.0
C4394 C 0.02851 0.59369 0.55136 0.0
C4395 C 0.00485 0.62942 0.5729 0.0
C4396 C 0.01717 0.63886 0.58795 0.0
C4397 C 0.98736 0.63196 0.57219 0.0
C4398 C 0.97426 0.62228 0.55612 0.0
C4399 C 0.96952 0.6022 0.55164 0.0
C4400 C 0.95741 0.59319 0.5362 0.0
C4401 C 0.95004 0.60411 0.5251 0.0
C4402 C 0.95472 0.62407 0.52946 0.0
C4403 C 0.96674 0.63316 0.54495 0.0
H4404 H 0.94071 0.59711 0.51313 0.0
H4405 H 0.06939 0.69057 0.64883 0.0
H4406 H 0.65765 0.80766 0.88093 0.0
H4407 H 0.68013 0.8028 0.85946 0.0
H4408 H 0.65364 0.82722 0.81874 0.0
H4409 H 0.63051 0.83113 0.83987 0.0
H4410 H 0.65739 0.79298 0.80454 0.0
H4411 H 0.69629 0.84949 0.84019 0.0
H4412 H 0.71084 0.87063 0.86945 0.0
H4413 H 0.73601 0.82638 0.88274 0.0
H4414 H 0.72151 0.80492 0.85366 0.0
H4415 H 0.72664 0.78171 0.74397 0.0
H4416 H 0.70201 0.7891 0.76155 0.0
H4417 H 0.72426 0.77112 0.80967 0.0
H4418 H 0.74981 0.7665 0.79308 0.0
H4419 H 0.72268 0.80618 0.81781 0.0
H4420 H 0.68221 0.74864 0.78456 0.0
H4421 H 0.66624 0.72624 0.75667 0.0
H4422 H 0.64383 0.77084 0.73985 0.0
H4423 H 0.65941 0.79352 0.76776 0.0
C4424 C 0.65689 0.81233 0.86755 0.0
C4425 C 0.64239 0.81938 0.86171 0.0
C4426 C 0.66978 0.80976 0.85541 0.0
C4427 C 0.66851 0.81483 0.83766 0.0
C4428 C 0.65471 0.82326 0.83243 0.0
C4429 C 0.64157 0.82538 0.84439 0.0
C4430 C 0.67996 0.80857 0.82364 0.0
C4431 C 0.67173 0.79615 0.80719 0.0
C4432 C 0.69851 0.81241 0.82754 0.0
C4433 C 0.70778 0.82559 0.84472 0.0
C4434 C 0.70492 0.84426 0.84935 0.0
C4435 C 0.71315 0.8563 0.86592 0.0
C4436 C 0.72433 0.84985 0.87795 0.0
C4437 C 0.72738 0.83137 0.87339 0.0
C4438 C 0.7192 0.81929 0.85684 0.0
C4439 C 0.72574 0.77864 0.75804 0.0
C4440 C 0.73963 0.77295 0.7671 0.0
C4441 C 0.7117 0.78274 0.76801 0.0
C4442 C 0.71142 0.78063 0.78687 0.0
C4443 C 0.72432 0.77281 0.79511 0.0
C4444 C 0.73869 0.76969 0.7855 0.0
C4445 C 0.70005 0.7899 0.79906 0.0
C4446 C 0.70835 0.8031 0.81505 0.0
C4447 C 0.68157 0.78659 0.79484 0.0
C4448 C 0.67214 0.77285 0.77815 0.0
C4449 C 0.67399 0.75373 0.77485 0.0
C4450 C 0.66503 0.74098 0.75903 0.0
C4451 C 0.65427 0.74717 0.74637 0.0
C4452 C 0.65225 0.76609 0.74961 0.0
C4453 C 0.66107 0.77888 0.76547 0.0
H4454 H 0.6474 0.73726 0.73411 0.0
H4455 H 0.73064 0.85916 0.8908 0.0
H4456 H 0.44818 0.54165 0.71157 0.0
H4457 H 0.46454 0.54196 0.6834 0.0
H4458 H 0.49399 0.59878 0.70654 0.0
H4459 H 0.47808 0.59819 0.73514 0.0
H4460 H 0.48389 0.59517 0.66677 0.0
H4461 H 0.51483 0.5632 0.70465 0.0
H4462 H 0.51952 0.53958 0.72405 0.0
H4463 H 0.49861 0.49386 0.67768 0.0
H4464 H 0.49349 0.51724 0.65811 0.0
H4465 H 0.55361 0.58866 0.59868 0.0
H4466 H 0.53902 0.59281 0.62824 0.0
H4467 H 0.50025 0.541 0.60738 0.0
H4468 H 0.51381 0.53751 0.5777 0.0
H4469 H 0.51671 0.5443 0.64697 0.0
H4470 H 0.48591 0.57687 0.60903 0.0
H4471 H 0.48236 0.6008 0.5896 0.0
H4472 H 0.50382 0.64606 0.63617 0.0
H4473 H 0.50795 0.62236 0.65577 0.0
C4474 C 0.45815 0.55428 0.71084 0.0
C4475 C 0.46155 0.56985 0.72617 0.0
C4476 C 0.46766 0.55445 0.69447 0.0
C4477 C 0.48084 0.5704 0.69218 0.0
C4478 C 0.48404 0.58616 0.70735 0.0
C4479 C 0.47486 0.58577 0.72399 0.0
C4480 C 0.49132 0.57028 0.67436 0.0
C4481 C 0.49124 0.58414 0.66275 0.0
C4482 C 0.50103 0.55599 0.66821 0.0
C4483 C 0.50354 0.54191 0.68003 0.0
C4484 C 0.511 0.54809 0.69868 0.0
C4485 C 0.51379 0.53475 0.70969 0.0
C4486 C 0.50931 0.51522 0.70213 0.0
C4487 C 0.50202 0.50899 0.68354 0.0
C4488 C 0.49916 0.52226 0.67249 0.0
C4489 C 0.54191 0.57815 0.60022 0.0
C4490 C 0.53524 0.5626 0.58521 0.0
C4491 C 0.53345 0.58056 0.61737 0.0
C4492 C 0.51826 0.56721 0.62065 0.0
C4493 C 0.51182 0.55165 0.60577 0.0
C4494 C 0.51981 0.54963 0.58851 0.0
C4495 C 0.50913 0.56899 0.63929 0.0
C4496 C 0.50943 0.5554 0.65105 0.0
C4497 C 0.49971 0.58356 0.64552 0.0
C4498 C 0.49757 0.59785 0.63375 0.0
C4499 C 0.49018 0.59192 0.61504 0.0
C4500 C 0.488 0.60545 0.60401 0.0
C4501 C 0.49295 0.62495 0.61161 0.0
C4502 C 0.50007 0.63095 0.63028 0.0
C4503 C 0.50236 0.61748 0.64134 0.0
H4504 H 0.4912 0.6354 0.60306 0.0
H4505 H 0.51153 0.50491 0.71065 0.0
H4506 H 0.76253 0.18727 1.00118 0.0
H4507 H 0.75909 0.20554 0.97665 0.0
H4508 H 0.77162 0.16085 0.9356 0.0
H4509 H 0.77535 0.14243 0.96035 0.0
H4510 H 0.79322 0.19623 0.93739 0.0
H4511 H 0.73091 0.16931 0.93232 0.0
H4512 H 0.70172 0.15957 0.94397 0.0
H4513 H 0.70302 0.21794 0.96866 0.0
H4514 H 0.73233 0.22803 0.95726 0.0
H4515 H 0.76781 0.24177 0.86222 0.0
H4516 H 0.77653 0.22199 0.88372 0.0
H4517 H 0.76685 0.26236 0.93087 0.0
H4518 H 0.75792 0.28201 0.90941 0.0
H4519 H 0.74331 0.22664 0.92359 0.0
H4520 H 0.80534 0.2538 0.93039 0.0
H4521 H 0.83551 0.26423 0.92125 0.0
H4522 H 0.83569 0.20646 0.89576 0.0
H4523 H 0.80535 0.19573 0.90438 0.0
C4524 C 0.76434 0.18124 0.98689 0.0
C4525 C 0.7695 0.16373 0.98251 0.0
C4526 C 0.76215 0.19154 0.97292 0.0
C4527 C 0.76499 0.18431 0.95448 0.0
C4528 C 0.7693 0.16639 0.94986 0.0
C4529 C 0.77145 0.15601 0.9639 0.0
C4530 C 0.76578 0.1968 0.94076 0.0
C4531 C 0.78221 0.20257 0.93385 0.0
C4532 C 0.75153 0.20541 0.93709 0.0
C4533 C 0.73384 0.19942 0.94394 0.0
C4534 C 0.72502 0.18006 0.94032 0.0
C4535 C 0.70844 0.17448 0.94688 0.0
C4536 C 0.70051 0.18813 0.95708 0.0
C4537 C 0.70916 0.20739 0.96074 0.0
C4538 C 0.72574 0.21306 0.95418 0.0
C4539 C 0.7683 0.24674 0.87722 0.0
C4540 C 0.76188 0.26296 0.88439 0.0
C4541 C 0.77336 0.23557 0.88942 0.0
C4542 C 0.77211 0.24082 0.90869 0.0
C4543 C 0.76781 0.25826 0.91595 0.0
C4544 C 0.76262 0.26932 0.90378 0.0
C4545 C 0.77086 0.22629 0.92037 0.0
C4546 C 0.75427 0.22011 0.92684 0.0
C4547 C 0.785 0.21743 0.92372 0.0
C4548 C 0.80294 0.224 0.91779 0.0
C4549 C 0.81167 0.24336 0.92254 0.0
C4550 C 0.82885 0.24932 0.91753 0.0
C4551 C 0.83749 0.23603 0.90787 0.0
C4552 C 0.82896 0.21675 0.90318 0.0
C4553 C 0.81177 0.21073 0.90811 0.0
H4554 H 0.85083 0.24066 0.90408 0.0
H4555 H 0.68765 0.18381 0.96212 0.0
H4556 H 0.17594 0.51869 0.17973 0.0
H4557 H 0.1526 0.50956 0.15376 0.0
H4558 H 0.13245 0.55976 0.17452 0.0
H4559 H 0.15537 0.56851 0.20079 0.0
H4560 H 0.10769 0.52612 0.17087 0.0
H4561 H 0.15338 0.55786 0.13743 0.0
H4562 H 0.1838 0.5626 0.12778 0.0
H4563 H 0.17216 0.50566 0.09533 0.0
H4564 H 0.1418 0.50034 0.10535 0.0
H4565 H 0.05648 0.54922 0.10137 0.0
H4566 H 0.07844 0.54604 0.12536 0.0
H4567 H 0.08083 0.49034 0.09451 0.0
H4568 H 0.05881 0.49364 0.07045 0.0
H4569 H 0.11366 0.51842 0.10234 0.0
H4570 H 0.06415 0.49079 0.13343 0.0
H4571 H 0.0339 0.49099 0.14247 0.0
H4572 H 0.05283 0.54552 0.17854 0.0
H4573 H 0.08312 0.5459 0.16934 0.0
C4574 C 0.16696 0.52811 0.17816 0.0
C4575 C 0.16716 0.54424 0.19182 0.0
C4576 C 0.1536 0.52279 0.16363 0.0
C4577 C 0.1409 0.53392 0.16272 0.0
C4578 C 0.14216 0.55099 0.17542 0.0
C4579 C 0.15528 0.55611 0.19008 0.0
C4580 C 0.12568 0.52738 0.14908 0.0
C4581 C 0.1089 0.52426 0.15588 0.0
C4582 C 0.12767 0.5248 0.12971 0.0
C4583 C 0.14538 0.52859 0.12235 0.0
C4584 C 0.15731 0.54631 0.12829 0.0
C4585 C 0.17457 0.54909 0.12282 0.0
C4586 C 0.17994 0.53441 0.11102 0.0
C4587 C 0.168 0.51699 0.10454 0.0
C4588 C 0.15077 0.51407 0.11014 0.0
C4589 C 0.06105 0.53596 0.1004 0.0
C4590 C 0.05604 0.52145 0.08477 0.0
C4591 C 0.07365 0.53423 0.11378 0.0
C4592 C 0.08096 0.51792 0.11141 0.0
C4593 C 0.07505 0.50286 0.09633 0.0
C4594 C 0.06241 0.5046 0.08296 0.0
C4595 C 0.09572 0.51757 0.12419 0.0
C4596 C 0.11246 0.51947 0.1173 0.0
C4597 C 0.09373 0.51947 0.14352 0.0
C4598 C 0.07597 0.51828 0.15081 0.0
C4599 C 0.0619 0.50275 0.14342 0.0
C4600 C 0.04471 0.50282 0.14847 0.0
C4601 C 0.04145 0.51824 0.16111 0.0
C4602 C 0.05539 0.53355 0.16881 0.0
C4603 C 0.07259 0.53361 0.16371 0.0
H4604 H 0.02812 0.51832 0.16491 0.0
H4605 H 0.19333 0.53655 0.10686 0.0
H4606 H 0.81145 0.83592 0.4895 0.0
H4607 H 0.81242 0.82033 0.45694 0.0
H4608 H 0.79396 0.86639 0.43723 0.0
H4609 H 0.7929 0.88192 0.46962 0.0
H4610 H 0.77719 0.83282 0.41734 0.0
H4611 H 0.83726 0.86399 0.43783 0.0
H4612 H 0.86509 0.87174 0.45845 0.0
H4613 H 0.86957 0.81305 0.44601 0.0
H4614 H 0.84157 0.80489 0.42555 0.0
H4615 H 0.80098 0.82313 0.32364 0.0
H4616 H 0.80187 0.83594 0.35729 0.0
H4617 H 0.8116 0.78291 0.37019 0.0
H4618 H 0.80993 0.76981 0.33645 0.0
H4619 H 0.83274 0.81757 0.39398 0.0
H4620 H 0.77178 0.78839 0.37081 0.0
H4621 H 0.74328 0.7831 0.35167 0.0
H4622 H 0.74103 0.84194 0.36952 0.0
H4623 H 0.76967 0.84771 0.38838 0.0
C4624 C 0.80749 0.84263 0.4782 0.0
C4625 C 0.80216 0.86019 0.4821 0.0
C4626 C 0.80816 0.83378 0.45961 0.0
C4627 C 0.80348 0.8423 0.44461 0.0
C4628 C 0.7977 0.85956 0.44854 0.0
C4629 C 0.79712 0.86844 0.46707 0.0
C4630 C 0.80458 0.8334 0.42478 0.0
C4631 C 0.78939 0.82967 0.4122 0.0
C4632 C 0.8204 0.82893 0.41812 0.0
C4633 C 0.83722 0.83378 0.43036 0.0
C4634 C 0.8441 0.8527 0.43964 0.0
C4635 C 0.85991 0.85718 0.45127 0.0
C4636 C 0.86906 0.84289 0.45359 0.0
C4637 C 0.86244 0.8241 0.44423 0.0
C4638 C 0.8466 0.81953 0.43262 0.0
C4639 C 0.8038 0.81444 0.3337 0.0
C4640 C 0.80586 0.79568 0.32755 0.0
C4641 C 0.80413 0.82168 0.35288 0.0
C4642 C 0.80667 0.81033 0.36624 0.0
C4643 C 0.80961 0.7919 0.36013 0.0
C4644 C 0.80881 0.78449 0.34091 0.0
C4645 C 0.8054 0.81739 0.38648 0.0
C4646 C 0.82053 0.82066 0.39914 0.0
C4647 C 0.78959 0.82185 0.39318 0.0
C4648 C 0.77297 0.81853 0.38084 0.0
C4649 C 0.76537 0.80027 0.37039 0.0
C4650 C 0.74915 0.79718 0.35965 0.0
C4651 C 0.7404 0.81221 0.35942 0.0
C4652 C 0.74787 0.83036 0.36973 0.0
C4653 C 0.76408 0.83355 0.38039 0.0
H4654 H 0.7278 0.80991 0.35137 0.0
H4655 H 0.88132 0.84638 0.46259 0.0
H4656 H 0.48666 0.55894 0.81517 0.0
H4657 H 0.50266 0.55364 0.84327 0.0
H4658 H 0.45942 0.56407 0.87566 0.0
H4659 H 0.4436 0.56979 0.8476 0.0
H4660 H 0.48819 0.57838 0.89851 0.0
H4661 H 0.46989 0.51633 0.85851 0.0
H4662 H 0.46799 0.4936 0.82873 0.0
H4663 H 0.5248 0.50302 0.83174 0.0
H4664 H 0.52703 0.526 0.86143 0.0
H4665 H 0.51293 0.53976 0.97854 0.0
H4666 H 0.49764 0.54438 0.9496 0.0
H4667 H 0.5429 0.53621 0.91968 0.0
H4668 H 0.5582 0.53181 0.94873 0.0
H4669 H 0.51416 0.52102 0.89535 0.0
H4670 H 0.53376 0.58191 0.93367 0.0
H4671 H 0.53786 0.6058 0.96281 0.0
H4672 H 0.48148 0.60031 0.96241 0.0
H4673 H 0.47704 0.57623 0.93321 0.0
C4674 C 0.48046 0.5602 0.82823 0.0
C4675 C 0.46351 0.56483 0.82858 0.0
C4676 C 0.4897 0.55695 0.84456 0.0
C4677 C 0.48247 0.5579 0.86223 0.0
C4678 C 0.46571 0.56301 0.86265 0.0
C4679 C 0.45649 0.56629 0.84632 0.0
C4680 C 0.49202 0.55339 0.87993 0.0
C4681 C 0.49353 0.5656 0.89765 0.0
C4682 C 0.49992 0.53715 0.87959 0.0
C4683 C 0.49862 0.52294 0.86211 0.0
C4684 C 0.48197 0.51356 0.85279 0.0
C4685 C 0.48084 0.50066 0.83592 0.0
C4686 C 0.49627 0.49689 0.82833 0.0
C4687 C 0.51286 0.50596 0.83763 0.0
C4688 C 0.51407 0.51891 0.85449 0.0
C4689 C 0.51949 0.53835 0.96571 0.0
C4690 C 0.53682 0.53476 0.96628 0.0
C4691 C 0.51076 0.54135 0.94897 0.0
C4692 C 0.51887 0.541 0.93182 0.0
C4693 C 0.53593 0.53665 0.93225 0.0
C4694 C 0.54475 0.53393 0.94907 0.0
C4695 C 0.50994 0.54577 0.91394 0.0
C4696 C 0.50868 0.5337 0.89621 0.0
C4697 C 0.50252 0.56228 0.91419 0.0
C4698 C 0.50505 0.57711 0.9314 0.0
C4699 C 0.52223 0.58573 0.93984 0.0
C4700 C 0.52462 0.59931 0.95637 0.0
C4701 C 0.50993 0.60445 0.96457 0.0
C4702 C 0.49284 0.59623 0.95608 0.0
C4703 C 0.49038 0.58265 0.93951 0.0
H4704 H 0.51176 0.61481 0.97749 0.0
H4705 H 0.49536 0.48692 0.81525 0.0
H4706 H 0.79601 0.19817 0.06274 0.0
H4707 H 0.79419 0.22129 0.09047 0.0
H4708 H 0.77799 0.17562 0.12121 0.0
H4709 H 0.77931 0.15203 0.09308 0.0
H4710 H 0.75799 0.20492 0.12605 0.0
H4711 H 0.818 0.19737 0.12864 0.0
H4712 H 0.84627 0.19492 0.11526 0.0
H4713 H 0.8533 0.2526 0.10562 0.0
H4714 H 0.82485 0.25525 0.11855 0.0
H4715 H 0.77822 0.25095 0.21661 0.0
H4716 H 0.77441 0.23231 0.18588 0.0
H4717 H 0.79987 0.28163 0.16371 0.0
H4718 H 0.80612 0.30025 0.19579 0.0
H4719 H 0.81317 0.25236 0.15236 0.0
H4720 H 0.75264 0.2598 0.1546 0.0
H4721 H 0.7269 0.26116 0.17307 0.0
H4722 H 0.72225 0.20227 0.17786 0.0
H4723 H 0.74806 0.2006 0.15959 0.0
C4724 C 0.79224 0.19299 0.07543 0.0
C4725 C 0.78802 0.17339 0.07596 0.0
C4726 C 0.79107 0.20619 0.09114 0.0
C4727 C 0.78602 0.19998 0.10764 0.0
C4728 C 0.78184 0.18046 0.10838 0.0
C4729 C 0.78284 0.16713 0.09251 0.0
C4730 C 0.78606 0.21425 0.12429 0.0
C4731 C 0.76998 0.21532 0.13193 0.0
C4732 C 0.80176 0.22776 0.13152 0.0
C4733 C 0.81919 0.22643 0.12436 0.0
C4734 C 0.82551 0.20949 0.12354 0.0
C4735 C 0.84157 0.20806 0.11604 0.0
C4736 C 0.85155 0.22357 0.10953 0.0
C4737 C 0.84554 0.24058 0.11062 0.0
C4738 C 0.82945 0.24205 0.11804 0.0
C4739 C 0.78307 0.25807 0.20535 0.0
C4740 C 0.79302 0.27691 0.20863 0.0
C4741 C 0.78041 0.24739 0.18758 0.0
C4742 C 0.78624 0.25578 0.17244 0.0
C4743 C 0.79512 0.27506 0.17535 0.0
C4744 C 0.79871 0.2856 0.19353 0.0
C4745 C 0.78504 0.24336 0.15419 0.0
C4746 C 0.80098 0.24243 0.14621 0.0
C4747 C 0.76923 0.22984 0.14691 0.0
C4748 C 0.75223 0.23005 0.15557 0.0
C4749 C 0.74597 0.24707 0.15936 0.0
C4750 C 0.73144 0.24792 0.16991 0.0
C4751 C 0.72294 0.23181 0.17662 0.0
C4752 C 0.7288 0.21472 0.17257 0.0
C4753 C 0.74332 0.21377 0.16201 0.0
H4754 H 0.71183 0.23258 0.18498 0.0
H4755 H 0.86396 0.22243 0.10369 0.0
H4756 H 0.14453 0.51838 0.28065 0.0
H4757 H 0.12854 0.52369 0.30852 0.0
H4758 H 0.17022 0.57235 0.33285 0.0
H4759 H 0.18656 0.56673 0.30523 0.0
H4760 H 0.15848 0.54952 0.35799 0.0
H4761 H 0.13419 0.58187 0.31476 0.0
H4762 H 0.1218 0.58645 0.28427 0.0
H4763 H 0.07781 0.53957 0.28414 0.0
H4764 H 0.09003 0.53462 0.31458 0.0
H4765 H 0.1028 0.59428 0.41727 0.0
H4766 H 0.12449 0.58274 0.39761 0.0
H4767 H 0.08437 0.53325 0.37162 0.0
H4768 H 0.0626 0.54495 0.39134 0.0
H4769 H 0.09666 0.55762 0.34814 0.0
H4770 H 0.12281 0.52561 0.39231 0.0
H4771 H 0.13612 0.52286 0.4231 0.0
H4772 H 0.17706 0.57243 0.42223 0.0
H4773 H 0.16398 0.57541 0.39138 0.0
C4774 C 0.15034 0.52997 0.29211 0.0
C4775 C 0.16665 0.54207 0.29111 0.0
C4776 C 0.14123 0.53307 0.30784 0.0
C4777 C 0.14823 0.54854 0.32236 0.0
C4778 C 0.16478 0.56035 0.32164 0.0
C4779 C 0.17405 0.55706 0.30602 0.0
C4780 C 0.13792 0.55239 0.33813 0.0
C4781 C 0.14503 0.55154 0.35599 0.0
C4782 C 0.12047 0.55492 0.3352 0.0
C4783 C 0.11309 0.55778 0.31686 0.0
C4784 C 0.12194 0.57245 0.30816 0.0
C4785 C 0.11493 0.57514 0.29091 0.0
C4786 C 0.09905 0.56328 0.28226 0.0
C4787 C 0.09011 0.54874 0.29086 0.0
C4788 C 0.09705 0.54601 0.30813 0.0
C4789 C 0.09884 0.5808 0.40753 0.0
C4790 C 0.08121 0.57073 0.40503 0.0
C4791 C 0.11121 0.57404 0.39667 0.0
C4792 C 0.10589 0.55721 0.38331 0.0
C4793 C 0.08857 0.54623 0.38203 0.0
C4794 C 0.0762 0.55298 0.39298 0.0
C4795 C 0.11689 0.55387 0.36797 0.0
C4796 C 0.11002 0.55531 0.35017 0.0
C4797 C 0.13463 0.5523 0.37108 0.0
C4798 C 0.14236 0.55079 0.38967 0.0
C4799 C 0.13458 0.53599 0.39877 0.0
C4800 C 0.14211 0.53435 0.41618 0.0
C4801 C 0.1574 0.54749 0.42464 0.0
C4802 C 0.16522 0.56226 0.41566 0.0
C4803 C 0.1578 0.56389 0.39819 0.0
H4804 H 0.16319 0.5462 0.43813 0.0
H4805 H 0.09364 0.56538 0.2689 0.0
H4806 H 0.78913 0.88615 0.60065 0.0
H4807 H 0.78064 0.86859 0.6259 0.0
H4808 H 0.79666 0.81928 0.59556 0.0
H4809 H 0.80419 0.83645 0.56987 0.0
H4810 H 0.76786 0.80742 0.6096 0.0
H4811 H 0.82226 0.85274 0.6354 0.0
H4812 H 0.84218 0.88442 0.64572 0.0
H4813 H 0.80476 0.90131 0.68326 0.0
H4814 H 0.78451 0.86985 0.67296 0.0
H4815 H 0.78055 0.76093 0.68777 0.0
H4816 H 0.7813 0.77566 0.65967 0.0
H4817 H 0.76038 0.82183 0.68939 0.0
H4818 H 0.76005 0.80742 0.71743 0.0
H4819 H 0.79006 0.83518 0.6758 0.0
H4820 H 0.73632 0.79019 0.65176 0.0
H4821 H 0.71704 0.75794 0.6438 0.0
H4822 H 0.75302 0.74026 0.60483 0.0
H4823 H 0.77266 0.77235 0.61275 0.0
C4824 C 0.79095 0.87161 0.59946 0.0
C4825 C 0.79749 0.86273 0.58339 0.0
C4826 C 0.78614 0.86158 0.61392 0.0
C4827 C 0.7883 0.84266 0.61286 0.0
C4828 C 0.79485 0.83383 0.59677 0.0
C4829 C 0.79928 0.8437 0.58214 0.0
C4830 C 0.7837 0.832 0.62838 0.0
C4831 C 0.77289 0.81346 0.62404 0.0
C4832 C 0.78977 0.83996 0.64738 0.0
C4833 C 0.80178 0.85903 0.65322 0.0
C4834 C 0.81821 0.86329 0.6457 0.0
C4835 C 0.82957 0.88119 0.65158 0.0
C4836 C 0.82471 0.89489 0.66509 0.0
C4837 C 0.80849 0.89071 0.67276 0.0
C4838 C 0.79706 0.87286 0.6669 0.0
C4839 C 0.77552 0.77384 0.68799 0.0
C4840 C 0.77026 0.78312 0.70463 0.0
C4841 C 0.77601 0.78229 0.672 0.0
C4842 C 0.77095 0.79991 0.67248 0.0
C4843 C 0.76444 0.80833 0.68874 0.0
C4844 C 0.76417 0.80005 0.70469 0.0
C4845 C 0.77432 0.81073 0.65698 0.0
C4846 C 0.78493 0.82925 0.66135 0.0
C4847 C 0.76802 0.80278 0.63813 0.0
C4848 C 0.75601 0.78364 0.63293 0.0
C4849 C 0.74016 0.7794 0.64155 0.0
C4850 C 0.72917 0.76115 0.63704 0.0
C4851 C 0.73382 0.74705 0.62384 0.0
C4852 C 0.74944 0.7512 0.61505 0.0
C4853 C 0.76049 0.76943 0.61952 0.0
H4854 H 0.72531 0.73292 0.6204 0.0
H4855 H 0.83355 0.90872 0.66965 0.0
H4856 H 0.75707 0.42783 0.52667 0.0
H4857 H 0.73353 0.44523 0.53273 0.0
H4858 H 0.76652 0.49567 0.5188 0.0
H4859 H 0.79044 0.47854 0.51336 0.0
H4860 H 0.74959 0.50281 0.55045 0.0
H4861 H 0.73535 0.46851 0.48668 0.0
H4862 H 0.73265 0.43828 0.46432 0.0
H4863 H 0.69042 0.41114 0.49322 0.0
H4864 H 0.69307 0.44119 0.51596 0.0
H4865 H 0.68755 0.55748 0.54274 0.0
H4866 H 0.70882 0.53801 0.53236 0.0
H4867 H 0.67333 0.48778 0.54357 0.0
H4868 H 0.65166 0.50718 0.55313 0.0
H4869 H 0.69109 0.47919 0.51329 0.0
H4870 H 0.70527 0.51374 0.57687 0.0
H4871 H 0.71199 0.54161 0.60274 0.0
H4872 H 0.75675 0.56696 0.57602 0.0
H4873 H 0.75014 0.53939 0.54985 0.0
C4874 C 0.75922 0.44259 0.52479 0.0
C4875 C 0.7753 0.45189 0.5193 0.0
C4876 C 0.74587 0.45245 0.5283 0.0
C4877 C 0.74838 0.47148 0.52585 0.0
C4878 C 0.7645 0.48089 0.52061 0.0
C4879 C 0.778 0.47112 0.5174 0.0
C4880 C 0.73398 0.48149 0.52841 0.0
C4881 C 0.73687 0.49793 0.54217 0.0
C4882 C 0.71742 0.47448 0.51783 0.0
C4883 C 0.71435 0.45711 0.50297 0.0
C4884 C 0.72537 0.45614 0.48815 0.0
C4885 C 0.72392 0.43902 0.47548 0.0
C4886 C 0.71137 0.4228 0.47734 0.0
C4887 C 0.70011 0.42374 0.49177 0.0
C4888 C 0.70153 0.44083 0.50453 0.0
C4889 C 0.68429 0.54224 0.54268 0.0
C4890 C 0.66837 0.53373 0.549 0.0
C4891 C 0.69632 0.53118 0.53677 0.0
C4892 C 0.69272 0.51167 0.53772 0.0
C4893 C 0.67629 0.50288 0.54289 0.0
C4894 C 0.66406 0.51391 0.54844 0.0
C4895 C 0.70681 0.50101 0.53513 0.0
C4896 C 0.70383 0.48427 0.52147 0.0
C4897 C 0.72342 0.50776 0.54583 0.0
C4898 C 0.72707 0.52461 0.5613 0.0
C4899 C 0.71642 0.52537 0.57641 0.0
C4900 C 0.72024 0.54109 0.59115 0.0
C4901 C 0.73476 0.55607 0.591 0.0
C4902 C 0.74549 0.55537 0.57611 0.0
C4903 C 0.7417 0.53971 0.56131 0.0
H4904 H 0.73772 0.5682 0.60246 0.0
H4905 H 0.71036 0.40951 0.46761 0.0
H4906 H 0.2293 0.17866 0.50214 0.0
H4907 H 0.19958 0.15812 0.49949 0.0
H4908 H 0.22266 0.10864 0.49801 0.0
H4909 H 0.2523 0.12904 0.50016 0.0
H4910 H 0.19435 0.09989 0.47383 0.0
H4911 H 0.20724 0.1318 0.53845 0.0
H4912 H 0.21575 0.16029 0.56352 0.0
H4913 H 0.16972 0.18001 0.54656 0.0
H4914 H 0.16112 0.15181 0.52113 0.0
H4915 H 0.11852 0.03533 0.49783 0.0
H4916 H 0.14779 0.05521 0.49552 0.0
H4917 H 0.12477 0.10489 0.49897 0.0
H4918 H 0.0958 0.0853 0.5015 0.0
H4919 H 0.15306 0.11387 0.52168 0.0
H4920 H 0.13957 0.08239 0.45769 0.0
H4921 H 0.13182 0.05567 0.43074 0.0
H4922 H 0.17879 0.03628 0.44509 0.0
H4923 H 0.18665 0.06267 0.47235 0.0
C4924 C 0.22803 0.1634 0.5012 0.0
C4925 C 0.24321 0.15554 0.50155 0.0
C4926 C 0.211 0.15163 0.49974 0.0
C4927 C 0.20875 0.13175 0.49886 0.0
C4928 C 0.22393 0.12387 0.49873 0.0
C4929 C 0.24092 0.1356 0.50007 0.0
C4930 C 0.19072 0.11916 0.49858 0.0
C4931 C 0.18541 0.10281 0.48445 0.0
C4932 C 0.17876 0.12314 0.5121 0.0
C4933 C 0.18361 0.13976 0.52779 0.0
C4934 C 0.19896 0.14225 0.54002 0.0
C4935 C 0.20382 0.15836 0.55428 0.0
C4936 C 0.1933 0.17197 0.55661 0.0
C4937 C 0.17787 0.16946 0.54472 0.0
C4938 C 0.173 0.15342 0.53039 0.0
C4939 C 0.11962 0.0504 0.49773 0.0
C4940 C 0.10468 0.05861 0.49987 0.0
C4941 C 0.13644 0.06183 0.49645 0.0
C4942 C 0.13866 0.08171 0.49706 0.0
C4943 C 0.12361 0.08971 0.49861 0.0
C4944 C 0.10693 0.07838 0.5 0.0
C4945 C 0.15662 0.09443 0.49694 0.0
C4946 C 0.16194 0.11085 0.51104 0.0
C4947 C 0.16854 0.09055 0.48332 0.0
C4948 C 0.16358 0.07438 0.46722 0.0
C4949 C 0.14813 0.07229 0.45525 0.0
C4950 C 0.14374 0.05722 0.43989 0.0
C4951 C 0.15477 0.04425 0.43624 0.0
C4952 C 0.17022 0.04631 0.44796 0.0
C4953 C 0.17465 0.0613 0.46338 0.0
H4954 H 0.15138 0.03264 0.4243 0.0
H4955 H 0.19709 0.18445 0.56765 0.0
H4956 H 0.22088 0.97874 0.76879 0.0
H4957 H 0.23759 0.95323 0.76673 0.0
H4958 H 0.18892 0.91144 0.76384 0.0
H4959 H 0.1721 0.93708 0.76568 0.0
H4960 H 0.21218 0.89931 0.78419 0.0
H4961 H 0.21538 0.91472 0.72452 0.0
H4962 H 0.21967 0.93536 0.70072 0.0
H4963 H 0.2744 0.956 0.72163 0.0
H4964 H 0.27036 0.93558 0.74574 0.0
H4965 H 0.25536 0.82058 0.76661 0.0
H4966 H 0.23752 0.84355 0.76304 0.0
H4967 H 0.28459 0.88628 0.76158 0.0
H4968 H 0.30245 0.86223 0.76323 0.0
H4969 H 0.26077 0.89716 0.74247 0.0
H4970 H 0.25383 0.87888 0.80397 0.0
H4971 H 0.2465 0.85429 0.82368 0.0
H4972 H 0.19453 0.83501 0.79437 0.0
H4973 H 0.20166 0.85937 0.77437 0.0
C4974 C 0.21353 0.96417 0.76765 0.0
C4975 C 0.19475 0.9606 0.76745 0.0
C4976 C 0.2233 0.94924 0.76635 0.0
C4977 C 0.21503 0.92962 0.76493 0.0
C4978 C 0.19622 0.92603 0.76491 0.0
C4979 C 0.1864 0.94098 0.76594 0.0
C4980 C 0.22591 0.91332 0.76366 0.0
C4981 C 0.22268 0.899 0.77488 0.0
C4982 C 0.23983 0.9118 0.75159 0.0
C4983 C 0.24252 0.92384 0.73705 0.0
C4984 C 0.2283 0.92376 0.72411 0.0
C4985 C 0.23069 0.93539 0.71056 0.0
C4986 C 0.24728 0.94704 0.70971 0.0
C4987 C 0.26155 0.94699 0.72234 0.0
C4988 C 0.25923 0.93537 0.73594 0.0
C4989 C 0.26236 0.83462 0.76534 0.0
C4990 C 0.28124 0.83877 0.76575 0.0
C4991 C 0.25175 0.84837 0.76365 0.0
C4992 C 0.2591 0.86782 0.76311 0.0
C4993 C 0.27786 0.87189 0.76244 0.0
C4994 C 0.28846 0.85782 0.76357 0.0
C4995 C 0.24748 0.88349 0.76351 0.0
C4996 C 0.25046 0.89764 0.752 0.0
C4997 C 0.23296 0.88453 0.77495 0.0
C4998 C 0.2283 0.87083 0.78769 0.0
C4999 C 0.24082 0.86944 0.80183 0.0
C5000 C 0.23673 0.85551 0.81299 0.0
C5001 C 0.22007 0.84307 0.81026 0.0
C5002 C 0.20742 0.84465 0.79647 0.0
C5003 C 0.21147 0.85853 0.78524 0.0
H5004 H 0.21697 0.83223 0.81884 0.0
H5005 H 0.2491 0.95609 0.69923 0.0
H5006 H 0.36703 0.96771 0.05139 0.0
H5007 H 0.39584 0.98739 0.04731 0.0
H5008 H 0.40187 0.94485 1.00017 0.0
H5009 H 0.37351 0.92509 0.00436 0.0
H5010 H 0.43281 0.96224 0.02373 0.0
H5011 H 0.38313 0.98203 0.98786 0.0
H5012 H 0.35686 0.99628 0.98537 0.0
H5013 H 0.38028 0.04203 0.03086 0.0
H5014 H 0.40669 0.02807 0.03345 0.0
H5015 H 0.49847 0.0063 0.9866 0.0
H5016 H 0.46712 0.99183 0.97883 0.0
H5017 H 0.45403 0.03911 0.01604 0.0
H5018 H 0.48497 0.05468 0.02141 0.0
H5019 H 0.42593 0.01975 0.99784 0.0
H5020 H 0.47404 1.00354 0.0362 0.0
H5021 H 0.50188 0.99272 0.04135 0.0
H5022 H 0.48383 0.94408 0.99724 0.0
H5023 H 0.4556 0.95425 0.99225 0.0
C5024 C 0.37496 0.96232 0.04072 0.0
C5025 C 0.3683 0.94521 0.02804 0.0
C5026 C 0.39113 0.97357 0.03829 0.0
C5027 C 0.40034 0.96757 0.02317 0.0
C5028 C 0.39463 0.94952 0.01184 0.0
C5029 C 0.37862 0.9382 0.01438 0.0
C5030 C 0.41526 0.98044 0.01795 0.0
C5031 C 0.4314 0.97484 0.01806 0.0
C5032 C 0.41324 0.99695 0.01103 0.0
C5033 C 0.39661 1.00387 0.01104 0.0
C5034 C 0.38246 0.99492 0.99752 0.0
C5035 C 0.36765 1.00303 0.996 0.0
C5036 C 0.36687 0.02001 0.00799 0.0
C5037 C 0.38086 0.02885 0.02163 0.0
C5038 C 0.39573 0.02086 0.02313 0.0
C5039 C 0.48872 0.0143 0.9916 0.0
C5040 C 0.49373 0.03176 0.00403 0.0
C5041 C 0.47092 0.00602 0.98736 0.0
C5042 C 0.45863 0.01402 0.99767 0.0
C5043 C 0.46343 0.03266 0.00805 0.0
C5044 C 0.48111 0.0415 0.01131 0.0
C5045 C 0.44354 1.0014 0.00322 0.0
C5046 C 0.42739 0.00712 0.0034 0.0
C5047 C 0.44577 0.9854 0.0112 0.0
C5048 C 0.46293 0.97977 0.01368 0.0
C5049 C 0.4761 0.99062 0.02755 0.0
C5050 C 0.49192 0.9846 0.03045 0.0
C5051 C 0.49476 0.96792 0.01947 0.0
C5052 C 0.48168 0.95707 0.00566 0.0
C5053 C 0.46574 0.96287 0.00286 0.0
H5054 H 0.50704 0.96333 0.02175 0.0
H5055 H 0.35546 0.02636 0.00667 0.0
H5056 H 0.88419 0.56295 0.7733 0.0
H5057 H 0.86505 0.58199 0.76178 0.0
H5058 H 0.88723 0.62903 0.80716 0.0
H5059 H 0.90652 0.60952 0.81899 0.0
H5060 H 0.85028 0.61756 0.80313 0.0
H5061 H 0.89753 0.63232 0.76298 0.0
H5062 H 0.91876 0.62518 0.73998 0.0
H5063 H 0.87599 0.59084 0.70108 0.0
H5064 H 0.85455 0.59752 0.72388 0.0
H5065 H 0.79436 0.66914 0.7625 0.0
H5066 H 0.81721 0.65769 0.77812 0.0
H5067 H 0.81524 0.61341 0.72966 0.0
H5068 H 0.79523 0.6272 0.71244 0.0
H5069 H 0.84614 0.6294 0.73794 0.0
H5070 H 0.79892 0.60922 0.77559 0.0
H5071 H 0.77564 0.61214 0.79715 0.0
H5072 H 0.81434 0.64809 0.83964 0.0
H5073 H 0.83775 0.646 0.81812 0.0
C5074 C 0.88503 0.57744 0.78066 0.0
C5075 C 0.89647 0.58509 0.79691 0.0
C5076 C 0.87432 0.58828 0.77402 0.0
C5077 C 0.8752 0.60691 0.78348 0.0
C5078 C 0.88681 0.61471 0.79967 0.0
C5079 C 0.89766 0.60375 0.80636 0.0
C5080 C 0.86255 0.61724 0.7772 0.0
C5081 C 0.84942 0.62067 0.78903 0.0
C5082 C 0.86135 0.62014 0.75853 0.0
C5083 C 0.87442 0.61561 0.7451 0.0
C5084 C 0.89267 0.62316 0.74957 0.0
C5085 C 0.90473 0.61921 0.73655 0.0
C5086 C 0.89869 0.60775 0.71901 0.0
C5087 C 0.88063 0.59986 0.7146 0.0
C5088 C 0.86852 0.60376 0.72755 0.0
C5089 C 0.79909 0.65731 0.75482 0.0
C5090 C 0.79338 0.64969 0.73577 0.0
C5091 C 0.81178 0.65038 0.76412 0.0
C5092 C 0.81789 0.63471 0.75506 0.0
C5093 C 0.81082 0.62574 0.7368 0.0
C5094 C 0.79907 0.63348 0.72705 0.0
C5095 C 0.83305 0.62891 0.76352 0.0
C5096 C 0.84684 0.62655 0.75214 0.0
C5097 C 0.83435 0.62612 0.78234 0.0
C5098 C 0.82008 0.6277 0.79508 0.0
C5099 C 0.80244 0.61801 0.78941 0.0
C5100 C 0.78921 0.6195 0.80165 0.0
C5101 C 0.79349 0.63035 0.81973 0.0
C5102 C 0.81101 0.63977 0.8256 0.0
C5103 C 0.82426 0.63849 0.81336 0.0
H5104 H 0.78325 0.6314 0.82921 0.0
H5105 H 0.90798 0.605 0.70879 0.0
H5106 H 0.857 0.68507 1.00135 0.0
H5107 H 0.8817 0.66909 0.00575 0.0
H5108 H 0.84564 0.62268 0.02278 0.0
H5109 H 0.82108 0.63831 0.01824 0.0
H5110 H 0.8752 0.63841 0.04791 0.0
H5111 H 0.86054 0.61727 0.9811 0.0
H5112 H 0.85711 0.62068 0.94798 0.0
H5113 H 0.91235 0.64729 0.95077 0.0
H5114 H 0.91601 0.64448 0.98407 0.0
H5115 H 0.91326 0.56009 0.04838 0.0
H5116 H 0.89496 0.58122 0.03925 0.0
H5117 H 0.94127 0.61867 0.0253 0.0
H5118 H 0.95993 0.5978 0.03497 0.0
H5119 H 0.91123 0.61275 0.99925 0.0
H5120 H 0.92646 0.63191 0.06514 0.0
H5121 H 0.93023 0.62786 0.09806 0.0
H5122 H 0.87434 0.60491 0.09679 0.0
H5123 H 0.87029 0.60849 0.06376 0.0
C5124 C 0.85438 0.67139 0.0059 0.0
C5125 C 0.83714 0.66292 0.00949 0.0
C5126 C 0.86845 0.66226 0.0083 0.0
C5127 C 0.86544 0.6447 0.01452 0.0
C5128 C 0.84821 0.63621 0.01791 0.0
C5129 C 0.83419 0.64514 0.01529 0.0
C5130 C 0.88019 0.63549 0.01878 0.0
C5131 C 0.88303 0.63274 0.03724 0.0
C5132 C 0.89086 0.62878 0.00499 0.0
C5133 C 0.88846 0.63103 0.98519 0.0
C5134 C 0.87188 0.62418 0.97476 0.0
C5135 C 0.86991 0.62594 0.95593 0.0
C5136 C 0.88448 0.63429 0.9473 0.0
C5137 C 0.90105 0.64091 0.95749 0.0
C5138 C 0.90307 0.63928 0.97635 0.0
C5139 C 0.91963 0.57285 0.04346 0.0
C5140 C 0.93811 0.57743 0.04278 0.0
C5141 C 0.90913 0.58485 0.03815 0.0
C5142 C 0.91684 0.60166 0.03198 0.0
C5143 C 0.93513 0.6058 0.03018 0.0
C5144 C 0.94573 0.59381 0.03563 0.0
C5145 C 0.90567 0.61509 0.02818 0.0
C5146 C 0.90359 0.61873 0.00994 0.0
C5147 C 0.89568 0.62271 0.04214 0.0
C5148 C 0.8981 0.62034 0.06194 0.0
C5149 C 0.915 0.62583 0.07183 0.0
C5150 C 0.91719 0.62364 0.09052 0.0
C5151 C 0.90254 0.6161 0.0995 0.0
C5152 C 0.88568 0.61073 0.08982 0.0
C5153 C 0.88343 0.61284 0.07112 0.0
H5154 H 0.90426 0.61446 0.11399 0.0
H5155 H 0.88294 0.63557 0.93269 0.0
H5156 H 0.18494 0.07944 0.8021 0.0
H5157 H 0.20148 0.1125 0.80453 0.0
H5158 H 0.22722 0.09528 0.75521 0.0
H5159 H 0.21141 0.06212 0.7535 0.0
H5160 H 0.25066 0.11887 0.77548 0.0
H5161 H 0.19016 0.12493 0.76161 0.0
H5162 H 0.15871 0.12265 0.76745 0.0
H5163 H 0.17409 0.15957 0.82103 0.0
H5164 H 0.20563 0.16185 0.81563 0.0
H5165 H 0.29193 0.212 0.75984 0.0
H5166 H 0.27417 0.17973 0.75881 0.0
H5167 H 0.24732 0.20108 0.80576 0.0
H5168 H 0.26408 0.23357 0.80557 0.0
H5169 H 0.22403 0.17568 0.78839 0.0
H5170 H 0.28314 0.16946 0.80409 0.0
H5171 H 0.315 0.17105 0.80094 0.0
H5172 H 0.30258 0.13378 0.74721 0.0
H5173 H 0.27068 0.13224 0.74992 0.0
C5174 C 0.19415 0.08264 0.79176 0.0
C5175 C 0.19671 0.06768 0.77763 0.0
C5176 C 0.2036 0.10187 0.793 0.0
C5177 C 0.21574 0.10723 0.77986 0.0
C5178 C 0.21818 0.09218 0.76573 0.0
C5179 C 0.20899 0.07294 0.76469 0.0
C5180 C 0.22639 0.12799 0.78096 0.0
C5181 C 0.24456 0.13114 0.77796 0.0
C5182 C 0.21923 0.14475 0.78509 0.0
C5183 C 0.20026 0.14343 0.78827 0.0
C5184 C 0.18683 0.13248 0.77468 0.0
C5185 C 0.16899 0.13118 0.77792 0.0
C5186 C 0.16441 0.14092 0.79462 0.0
C5187 C 0.17766 0.15201 0.80811 0.0
C5188 C 0.19552 0.15331 0.80497 0.0
C5189 C 0.28253 0.20979 0.77023 0.0
C5190 C 0.28005 0.22566 0.78318 0.0
C5191 C 0.27222 0.19104 0.76973 0.0
C5192 C 0.25933 0.187 0.78261 0.0
C5193 C 0.25695 0.20302 0.79556 0.0
C5194 C 0.26684 0.22185 0.79564 0.0
C5195 C 0.2483 0.16649 0.78244 0.0
C5196 C 0.2301 0.1634 0.78575 0.0
C5197 C 0.25544 0.14971 0.7789 0.0
C5198 C 0.27458 0.15089 0.77713 0.0
C5199 C 0.28723 0.16173 0.79155 0.0
C5200 C 0.30529 0.16261 0.78984 0.0
C5201 C 0.31081 0.15255 0.77387 0.0
C5202 C 0.29829 0.1416 0.75956 0.0
C5203 C 0.28023 0.14072 0.76116 0.0
H5204 H 0.3248 0.1532 0.7726 0.0
H5205 H 0.15059 0.13991 0.79709 0.0
H5206 H 0.36656 1.00116 0.29903 0.0
H5207 H 0.34799 0.97152 0.30402 0.0
H5208 H 0.39241 0.94389 0.29852 0.0
H5209 H 0.41134 0.97375 0.2936 0.0
H5210 H 0.36325 0.92727 0.27384 0.0
H5211 H 0.378 0.94795 0.33858 0.0
H5212 H 0.38302 0.9686 0.36982 0.0
H5213 H 0.32789 0.97079 0.36805 0.0
H5214 H 0.32258 0.95035 0.33663 0.0
H5215 H 0.33346 0.84235 0.29419 0.0
H5216 H 0.34685 0.87607 0.30449 0.0
H5217 H 0.29668 0.89065 0.29155 0.0
H5218 H 0.28282 0.85634 0.28224 0.0
H5219 H 0.32599 0.91483 0.32603 0.0
H5220 H 0.31544 0.8868 0.25763 0.0
H5221 H 0.31654 0.85963 0.2325 0.0
H5222 H 0.37235 0.8668 0.24692 0.0
H5223 H 0.37153 0.89354 0.27243 0.0
C5224 C 0.37237 0.98876 0.29882 0.0
C5225 C 0.39019 0.9894 0.2956 0.0
C5226 C 0.36188 0.97208 0.30207 0.0
C5227 C 0.36911 0.95599 0.30194 0.0
C5228 C 0.38692 0.95654 0.29891 0.0
C5229 C 0.39753 0.97333 0.29584 0.0
C5230 C 0.35721 0.93794 0.30179 0.0
C5231 C 0.35511 0.9245 0.28524 0.0
C5232 C 0.34669 0.93479 0.3167 0.0
C5233 C 0.34995 0.94787 0.33513 0.0
C5234 C 0.367 0.9531 0.3447 0.0
C5235 C 0.36988 0.96468 0.36249 0.0
C5236 C 0.3558 0.97106 0.37089 0.0
C5237 C 0.3388 0.96588 0.3615 0.0
C5238 C 0.33584 0.9543 0.3437 0.0
C5239 C 0.32521 0.8528 0.29434 0.0
C5240 C 0.30729 0.84738 0.28792 0.0
C5241 C 0.33273 0.87181 0.30034 0.0
C5242 C 0.32257 0.88536 0.2986 0.0
C5243 C 0.30439 0.88002 0.29307 0.0
C5244 C 0.29668 0.86075 0.28752 0.0
C5245 C 0.33212 0.90435 0.29816 0.0
C5246 C 0.33375 0.91801 0.31448 0.0
C5247 C 0.3429 0.9074 0.28335 0.0
C5248 C 0.34337 0.8921 0.26707 0.0
C5249 C 0.32791 0.88251 0.25551 0.0
C5250 C 0.32849 0.86715 0.24123 0.0
C5251 C 0.3445 0.86145 0.2383 0.0
C5252 C 0.35997 0.87121 0.24934 0.0
C5253 C 0.35945 0.88645 0.26368 0.0
H5254 H 0.34509 0.84953 0.22748 0.0
H5255 H 0.35804 0.97996 0.38471 0.0
H5256 H 0.59493 0.3772 0.61394 0.0
H5257 H 0.59236 0.40644 0.60266 0.0
H5258 H 0.56071 0.37288 0.55308 0.0
H5259 H 0.56403 0.3434 0.56401 0.0
H5260 H 0.58032 0.40247 0.54308 0.0
H5261 H 0.54339 0.3979 0.59506 0.0
H5262 H 0.53722 0.39558 0.62772 0.0
H5263 H 0.57669 0.44697 0.64785 0.0
H5264 H 0.58323 0.44944 0.61534 0.0
H5265 H 0.55337 0.48771 0.52058 0.0
H5266 H 0.55495 0.45549 0.52628 0.0
H5267 H 0.58129 0.4806 0.58134 0.0
H5268 H 0.57787 0.51165 0.5766 0.0
H5269 H 0.56138 0.45313 0.58681 0.0
H5270 H 0.60035 0.45882 0.53749 0.0
H5271 H 0.60934 0.46207 0.50588 0.0
H5272 H 0.57069 0.41114 0.48189 0.0
H5273 H 0.56126 0.40778 0.51333 0.0
C5274 C 0.5875 0.37595 0.60055 0.0
C5275 C 0.57963 0.35775 0.59 0.0
C5276 C 0.58586 0.39283 0.59414 0.0
C5277 C 0.57584 0.39224 0.57715 0.0
C5278 C 0.5684 0.37403 0.56629 0.0
C5279 C 0.57029 0.35707 0.57258 0.0
C5280 C 0.57296 0.41049 0.571 0.0
C5281 C 0.576 0.41347 0.55262 0.0
C5282 C 0.56774 0.42535 0.58333 0.0
C5283 C 0.56388 0.42373 0.60282 0.0
C5284 C 0.55082 0.40861 0.60648 0.0
C5285 C 0.54725 0.40729 0.62495 0.0
C5286 C 0.55658 0.42109 0.63985 0.0
C5287 C 0.56949 0.43627 0.63631 0.0
C5288 C 0.57312 0.43764 0.61787 0.0
C5289 C 0.55914 0.48623 0.53401 0.0
C5290 C 0.56498 0.50249 0.54826 0.0
C5291 C 0.56038 0.46773 0.5372 0.0
C5292 C 0.56829 0.46513 0.55439 0.0
C5293 C 0.57475 0.48162 0.56809 0.0
C5294 C 0.57288 0.49969 0.56524 0.0
C5295 C 0.56947 0.44569 0.55905 0.0
C5296 C 0.56586 0.44233 0.57717 0.0
C5297 C 0.57467 0.43083 0.54663 0.0
C5298 C 0.57992 0.43323 0.52771 0.0
C5299 C 0.59361 0.44846 0.52544 0.0
C5300 C 0.59882 0.4503 0.50757 0.0
C5301 C 0.59054 0.43687 0.49188 0.0
C5302 C 0.57704 0.42158 0.49404 0.0
C5303 C 0.57175 0.41972 0.51187 0.0
H5304 H 0.59463 0.43827 0.47806 0.0
H5305 H 0.55379 0.42005 0.65414 0.0
H5306 H 0.4483 0.75872 0.42063 0.0
H5307 H 0.42068 0.76284 0.40501 0.0
H5308 H 0.44888 0.77775 0.35814 0.0
H5309 H 0.47638 0.77363 0.37367 0.0
H5310 H 0.42773 0.80153 0.36597 0.0
H5311 H 0.41844 0.73284 0.35873 0.0
H5312 H 0.41497 0.70188 0.36933 0.0
H5313 H 0.37097 0.71365 0.39956 0.0
H5314 H 0.37444 0.74488 0.3895 0.0
H5315 H 0.35582 0.79595 0.29782 0.0
H5316 H 0.38165 0.79074 0.31552 0.0
H5317 H 0.34931 0.77656 0.3598 0.0
H5318 H 0.32331 0.78152 0.3419 0.0
H5319 H 0.37145 0.75276 0.35523 0.0
H5320 H 0.37903 0.81949 0.36409 0.0
H5321 H 0.38172 0.85182 0.35681 0.0
H5322 H 0.42773 0.84569 0.32764 0.0
H5323 H 0.42504 0.8131 0.33433 0.0
C5324 C 0.44864 0.7627 0.40691 0.0
C5325 C 0.46483 0.76562 0.39848 0.0
C5326 C 0.43268 0.76503 0.39787 0.0
C5327 C 0.43223 0.77046 0.38004 0.0
C5328 C 0.44846 0.7735 0.37175 0.0
C5329 C 0.46434 0.77102 0.38069 0.0
C5330 C 0.41526 0.77347 0.37014 0.0
C5331 C 0.41557 0.79063 0.36339 0.0
C5332 C 0.39877 0.7599 0.36733 0.0
C5333 C 0.3969 0.74131 0.37361 0.0
C5334 C 0.40818 0.72893 0.36784 0.0
C5335 C 0.40618 0.71132 0.37372 0.0
C5336 C 0.39281 0.70584 0.38517 0.0
C5337 C 0.38137 0.71794 0.39075 0.0
C5338 C 0.38337 0.73561 0.38499 0.0
C5339 C 0.354 0.79136 0.31111 0.0
C5340 C 0.33711 0.78885 0.31804 0.0
C5341 C 0.36901 0.78863 0.3215 0.0
C5342 C 0.36783 0.78328 0.33931 0.0
C5343 C 0.35092 0.78062 0.34619 0.0
C5344 C 0.33593 0.78355 0.33588 0.0
C5345 C 0.38414 0.78059 0.35062 0.0
C5346 C 0.38366 0.7636 0.35771 0.0
C5347 C 0.40038 0.79447 0.35413 0.0
C5348 C 0.40166 0.81374 0.34946 0.0
C5349 C 0.38955 0.82491 0.35586 0.0
C5350 C 0.39111 0.84331 0.35189 0.0
C5351 C 0.40485 0.85078 0.34171 0.0
C5352 C 0.41705 0.83986 0.33546 0.0
C5353 C 0.41549 0.8214 0.3393 0.0
H5354 H 0.40608 0.86507 0.33872 0.0
H5355 H 0.39126 0.69217 0.38968 0.0
H5356 H 0.04562 0.74731 0.0712 0.0
H5357 H 0.03936 0.71239 0.06073 0.0
H5358 H 0.08789 0.71005 0.09142 0.0
H5359 H 0.09438 0.74475 0.10134 0.0
H5360 H 0.08546 0.68864 0.05876 0.0
H5361 H 0.04288 0.69555 0.10523 0.0
H5362 H 0.01702 0.70614 0.11852 0.0
H5363 H 0.98413 0.67711 0.06836 0.0
H5364 H 0.00982 0.6666 0.05467 0.0
H5365 H 0.06953 0.5914 0.07524 0.0
H5366 H 0.07394 0.62618 0.0777 0.0
H5367 H 0.0349 0.61798 0.03086 0.0
H5368 H 0.03166 0.58308 0.02736 0.0
H5369 H 0.03001 0.64406 0.06721 0.0
H5370 H 0.06855 0.63914 0.0195 0.0
H5371 H 0.09292 0.63355 1.00019 0.0
H5372 H 0.13096 0.65976 0.04728 0.0
H5373 H 0.10678 0.66559 0.06686 0.0
C5374 C 0.05501 0.73935 0.07561 0.0
C5375 C 0.07064 0.74902 0.08699 0.0
C5376 C 0.05131 0.71926 0.06977 0.0
C5377 C 0.06299 0.70822 0.0754 0.0
C5378 C 0.07858 0.71798 0.08674 0.0
C5379 C 0.08235 0.73797 0.09239 0.0
C5380 C 0.05971 0.68674 0.06904 0.0
C5381 C 0.0734 0.67898 0.06101 0.0
C5382 C 0.0436 0.67382 0.07072 0.0
C5383 C 0.02832 0.68052 0.07885 0.0
C5384 C 0.03017 0.69162 0.09696 0.0
C5385 C 0.01554 0.69756 0.10458 0.0
C5386 C 0.99898 0.69235 0.09424 0.0
C5387 C 0.99699 0.68118 0.07631 0.0
C5388 C 0.01157 0.67523 0.06862 0.0
C5389 C 0.06263 0.59698 0.06482 0.0
C5390 C 0.051 0.58438 0.05049 0.0
C5391 C 0.0649 0.61693 0.06644 0.0
C5392 C 0.05485 0.6249 0.05443 0.0
C5393 C 0.04302 0.61234 0.04018 0.0
C5394 C 0.04131 0.59235 0.03807 0.0
C5395 C 0.0561 0.64619 0.05772 0.0
C5396 C 0.04207 0.65382 0.06514 0.0
C5397 C 0.07171 0.65912 0.05512 0.0
C5398 C 0.0859 0.65266 0.04464 0.0
C5399 C 0.08209 0.64333 0.02584 0.0
C5400 C 0.09588 0.64041 0.01477 0.0
C5401 C 0.11348 0.64666 0.02241 0.0
C5402 C 0.11733 0.6552 0.04132 0.0
C5403 C 0.1036 0.6583 0.0524 0.0
H5404 H 0.12415 0.64453 0.01376 0.0
H5405 H 0.98766 0.69692 0.1001 0.0
H5406 H 0.07997 0.26793 0.92944 0.0
H5407 H 0.10867 0.26947 0.91627 0.0
H5408 H 0.08396 0.27174 0.86224 0.0
H5409 H 0.05517 0.26893 0.87518 0.0
H5410 H 0.10458 0.2504 0.85567 0.0
H5411 H 0.11501 0.31183 0.89928 0.0
H5412 H 0.11856 0.33267 0.93043 0.0
H5413 H 0.15926 0.30574 0.94872 0.0
H5414 H 0.15575 0.28453 0.91781 0.0
H5415 H 0.17478 0.28636 0.80498 0.0
H5416 H 0.14938 0.2783 0.82268 0.0
H5417 H 0.18439 0.27791 0.87079 0.0
H5418 H 0.21017 0.28697 0.85299 0.0
H5419 H 0.1608 0.29442 0.88377 0.0
H5420 H 0.15219 0.23434 0.84266 0.0
H5421 H 0.14867 0.21043 0.81345 0.0
H5422 H 0.10513 0.23181 0.79251 0.0
H5423 H 0.10846 0.2559 0.82151 0.0
C5424 C 0.08066 0.26874 0.91472 0.0
C5425 C 0.06508 0.26826 0.90341 0.0
C5426 C 0.09726 0.26986 0.90717 0.0
C5427 C 0.09902 0.27115 0.88813 0.0
C5428 C 0.08337 0.27075 0.87693 0.0
C5429 C 0.06674 0.26916 0.88436 0.0
C5430 C 0.11663 0.27202 0.87935 0.0
C5431 C 0.11673 0.26038 0.86179 0.0
C5432 C 0.13317 0.28391 0.8876 0.0
C5433 C 0.13494 0.29642 0.90629 0.0
C5434 C 0.12458 0.31022 0.91001 0.0
C5435 C 0.12661 0.32212 0.92762 0.0
C5436 C 0.13908 0.32049 0.94156 0.0
C5437 C 0.14956 0.30695 0.93793 0.0
C5438 C 0.14754 0.29498 0.92038 0.0
C5439 C 0.17715 0.28403 0.81917 0.0
C5440 C 0.19469 0.28709 0.82731 0.0
C5441 C 0.16244 0.27929 0.82941 0.0
C5442 C 0.1645 0.27704 0.84826 0.0
C5443 C 0.18208 0.27941 0.85632 0.0
C5444 C 0.19694 0.28433 0.846 0.0
C5445 C 0.14836 0.27363 0.85954 0.0
C5446 C 0.1486 0.28456 0.87763 0.0
C5447 C 0.13212 0.26083 0.85199 0.0
C5448 C 0.1307 0.24702 0.83417 0.0
C5449 C 0.14201 0.23408 0.83173 0.0
C5450 C 0.13999 0.22045 0.81524 0.0
C5451 C 0.12671 0.21963 0.80112 0.0
C5452 C 0.11542 0.23246 0.80344 0.0
C5453 C 0.11735 0.24608 0.8199 0.0
H5454 H 0.12514 0.20904 0.78839 0.0
H5455 H 0.14066 0.32975 0.95516 0.0
H5456 H 0.62136 0.77522 0.92775 0.0
H5457 H 0.61557 0.74628 0.94179 0.0
H5458 H 0.56157 0.73224 0.91674 0.0
H5459 H 0.56741 0.76073 0.90231 0.0
H5460 H 0.56706 0.73422 0.95712 0.0
H5461 H 0.5839 0.70581 0.89808 0.0
H5462 H 0.60441 0.70684 0.8732 0.0
H5463 H 0.64647 0.70212 0.91198 0.0
H5464 H 0.62623 0.7014 0.93722 0.0
H5465 H 0.5298 0.64618 0.97516 0.0
H5466 H 0.54156 0.66967 0.95615 0.0
H5467 H 0.59468 0.67212 0.9793 0.0
H5468 H 0.58287 0.64778 0.99799 0.0
H5469 H 0.59276 0.67681 0.94081 0.0
H5470 H 0.57409 0.70468 0.99994 0.0
H5471 H 0.55412 0.70941 0.02493 0.0
H5472 H 0.51501 0.71807 0.98492 0.0
H5473 H 0.5347 0.71324 0.95969 0.0
C5474 C 0.60835 0.76578 0.92517 0.0
C5475 C 0.59481 0.76993 0.91402 0.0
C5476 C 0.60509 0.74936 0.93308 0.0
C5477 C 0.5882 0.7373 0.93014 0.0
C5478 C 0.5747 0.74145 0.91897 0.0
C5479 C 0.57805 0.75759 0.91074 0.0
C5480 C 0.58419 0.72084 0.93955 0.0
C5481 C 0.57252 0.72157 0.95349 0.0
C5482 C 0.59175 0.70474 0.93491 0.0
C5483 C 0.60358 0.70356 0.91953 0.0
C5484 C 0.59752 0.70495 0.90129 0.0
C5485 C 0.6091 0.70554 0.88714 0.0
C5486 C 0.62674 0.70456 0.89101 0.0
C5487 C 0.63279 0.70286 0.90901 0.0
C5488 C 0.62126 0.70232 0.92324 0.0
C5489 C 0.54401 0.6514 0.9759 0.0
C5490 C 0.55541 0.64548 0.98824 0.0
C5491 C 0.55071 0.66479 0.96504 0.0
C5492 C 0.56892 0.6729 0.96667 0.0
C5493 C 0.58057 0.66605 0.97795 0.0
C5494 C 0.57383 0.65227 0.98864 0.0
C5495 C 0.57517 0.68997 0.9583 0.0
C5496 C 0.58735 0.68945 0.94457 0.0
C5497 C 0.56794 0.70639 0.96299 0.0
C5498 C 0.55578 0.70841 0.97795 0.0
C5499 C 0.56114 0.70736 0.99646 0.0
C5500 C 0.5499 0.71013 0.01067 0.0
C5501 C 0.53329 0.714 0.00651 0.0
C5502 C 0.52787 0.71506 0.98812 0.0
C5503 C 0.53906 0.71231 0.97388 0.0
H5504 H 0.52464 0.71621 0.01755 0.0
H5505 H 0.63571 0.70511 0.88006 0.0
H5506 H 0.04856 0.74958 0.704 0.0
H5507 H 0.0794 0.7488 0.71256 0.0
H5508 H 0.09623 0.77931 0.66814 0.0
H5509 H 0.0654 0.77915 0.65893 0.0
H5510 H 0.11351 0.7526 0.66876 0.0
H5511 H 0.09968 0.80157 0.71511 0.0
H5512 H 0.0817 0.81446 0.73913 0.0
H5513 H 0.09201 0.77422 0.77315 0.0
H5514 H 0.10977 0.76083 0.74916 0.0
H5515 H 0.2025 0.78779 0.72649 0.0
H5516 H 0.17547 0.78687 0.70665 0.0
H5517 H 0.1504 0.73431 0.72332 0.0
H5518 H 0.17726 0.73496 0.74283 0.0
H5519 H 0.13911 0.7752 0.73476 0.0
H5520 H 0.15138 0.72521 0.68599 0.0
H5521 H 0.16789 0.71219 0.6606 0.0
H5522 H 0.16052 0.75649 0.63047 0.0
H5523 H 0.14432 0.77005 0.65594 0.0
C5524 C 0.05891 0.75619 0.6962 0.0
C5525 C 0.0548 0.76459 0.68099 0.0
C5526 C 0.07646 0.75575 0.70106 0.0
C5527 C 0.09008 0.76432 0.69116 0.0
C5528 C 0.0859 0.77266 0.67593 0.0
C5529 C 0.06835 0.77267 0.67079 0.0
C5530 C 0.10874 0.76478 0.69677 0.0
C5531 C 0.1192 0.7578 0.68314 0.0
C5532 C 0.11609 0.7716 0.71552 0.0
C5533 C 0.10598 0.78013 0.73028 0.0
C5534 C 0.09808 0.79543 0.72769 0.0
C5535 C 0.0879 0.80281 0.74129 0.0
C5536 C 0.08569 0.79514 0.75764 0.0
C5537 C 0.09372 0.78014 0.76047 0.0
C5538 C 0.10386 0.77266 0.74688 0.0
C5539 C 0.19146 0.77564 0.72524 0.0
C5540 C 0.19175 0.76154 0.7363 0.0
C5541 C 0.17612 0.77513 0.71393 0.0
C5542 C 0.16115 0.76046 0.71356 0.0
C5543 C 0.16199 0.74558 0.72333 0.0
C5544 C 0.17724 0.74605 0.73454 0.0
C5545 C 0.14364 0.76266 0.70684 0.0
C5546 C 0.13344 0.77028 0.72033 0.0
C5547 C 0.13665 0.75666 0.68797 0.0
C5548 C 0.147 0.7489 0.67309 0.0
C5549 C 0.15362 0.73244 0.67417 0.0
C5550 C 0.16283 0.72488 0.6597 0.0
C5551 C 0.16535 0.73357 0.64398 0.0
C5552 C 0.15865 0.74983 0.6427 0.0
C5553 C 0.14948 0.75747 0.65716 0.0
H5554 H 0.17242 0.72765 0.63275 0.0
H5555 H 0.07777 0.80084 0.76813 0.0
H5556 H 0.10984 0.3877 0.39487 0.0
H5557 H 0.1001 0.41733 0.40551 0.0
H5558 H 0.08725 0.39887 0.4576 0.0
H5559 H 0.09665 0.36904 0.447 0.0
H5560 H 0.05903 0.40768 0.43736 0.0
H5561 H 0.12218 0.43198 0.4556 0.0
H5562 H 0.15362 0.43994 0.44953 0.0
H5563 H 0.14195 0.478 0.41363 0.0
H5564 H 0.1103 0.4698 0.419 0.0
H5565 H 0.04391 0.48209 0.50327 0.0
H5566 H 0.05694 0.45704 0.48623 0.0
H5567 H 0.06536 0.48851 0.44081 0.0
H5568 H 0.05332 0.51408 0.4583 0.0
H5569 H 0.0942 0.47447 0.45118 0.0
H5570 H 0.03205 0.45332 0.43527 0.0
H5571 H 1.00118 0.44813 0.44363 0.0
H5572 H 0.01084 0.4057 0.47519 0.0
H5573 H 0.04193 0.411 0.46744 0.0
C5574 C 0.10542 0.39021 0.40881 0.0
C5575 C 0.10381 0.37613 0.42013 0.0
C5576 C 0.09981 0.40703 0.41476 0.0
C5577 C 0.09284 0.4099 0.43213 0.0
C5578 C 0.09249 0.39656 0.44403 0.0
C5579 C 0.098 0.37971 0.43807 0.0
C5580 C 0.08476 0.42618 0.4376 0.0
C5581 C 0.06668 0.4223 0.44041 0.0
C5582 C 0.09473 0.44515 0.44066 0.0
C5583 C 0.11379 0.44998 0.43742 0.0
C5584 C 0.12624 0.4418 0.44616 0.0
C5585 C 0.14412 0.44639 0.44288 0.0
C5586 C 0.14977 0.45939 0.43112 0.0
C5587 C 0.13755 0.46785 0.42265 0.0
C5588 C 0.11963 0.4632 0.42577 0.0
C5589 C 0.04875 0.48369 0.48981 0.0
C5590 C 0.04765 0.49972 0.48194 0.0
C5591 C 0.05601 0.46943 0.48006 0.0
C5592 C 0.06186 0.47111 0.46233 0.0
C5593 C 0.0608 0.48715 0.45449 0.0
C5594 C 0.05371 0.50146 0.46431 0.0
C5595 C 0.0688 0.45581 0.45183 0.0
C5596 C 0.08651 0.45987 0.44776 0.0
C5597 C 0.05847 0.43703 0.44743 0.0
C5598 C 0.03938 0.43262 0.45082 0.0
C5599 C 0.0276 0.44287 0.44398 0.0
C5600 C 0.01007 0.43996 0.44867 0.0
C5601 C 0.00406 0.42661 0.45996 0.0
C5602 C 0.01552 0.41604 0.46645 0.0
C5603 C 0.03311 0.41898 0.4619 0.0
H5604 H 0.99051 0.42445 0.46367 0.0
H5605 H 0.16363 0.46296 0.42864 0.0
H5606 H 0.46453 0.27264 0.21587 0.0
H5607 H 0.435 0.26635 0.2272 0.0
H5608 H 0.41318 0.23427 0.17244 0.0
H5609 H 0.44237 0.24084 0.16097 0.0
H5610 H 0.3971 0.26236 0.18337 0.0
H5611 H 0.40969 0.21021 0.20869 0.0
H5612 H 0.42811 0.19315 0.22542 0.0
H5613 H 0.43039 0.23433 0.27596 0.0
H5614 H 0.41199 0.25164 0.25948 0.0
H5615 H 0.3111 0.24538 0.2151 0.0
H5616 H 0.33905 0.24483 0.20145 0.0
H5617 H 0.36746 0.2704 0.25561 0.0
H5618 H 0.3391 0.26899 0.26963 0.0
H5619 H 0.37881 0.24095 0.24215 0.0
H5620 H 0.37255 0.29678 0.21165 0.0
H5621 H 0.35691 0.31407 0.19196 0.0
H5622 H 0.34288 0.2637 0.14908 0.0
H5623 H 0.35896 0.24644 0.1683 0.0
C5624 C 0.45342 0.26415 0.20637 0.0
C5625 C 0.45552 0.25769 0.18752 0.0
C5626 C 0.43668 0.26032 0.21287 0.0
C5627 C 0.42206 0.2498 0.20059 0.0
C5628 C 0.42437 0.24243 0.18204 0.0
C5629 C 0.44099 0.24639 0.17552 0.0
C5630 C 0.40411 0.24911 0.20628 0.0
C5631 C 0.39292 0.25734 0.19604 0.0
C5632 C 0.39885 0.24271 0.22278 0.0
C5633 C 0.40957 0.23222 0.23288 0.0
C5634 C 0.41418 0.21563 0.22337 0.0
C5635 C 0.42458 0.20591 0.2328 0.0
C5636 C 0.43044 0.21267 0.25174 0.0
C5637 C 0.42582 0.2291 0.2613 0.0
C5638 C 0.41535 0.23883 0.25195 0.0
C5639 C 0.32339 0.25114 0.22395 0.0
C5640 C 0.32327 0.25726 0.24327 0.0
C5641 C 0.33935 0.25113 0.21611 0.0
C5642 C 0.35538 0.2579 0.22742 0.0
C5643 C 0.3552 0.26509 0.24665 0.0
C5644 C 0.33914 0.26441 0.25464 0.0
C5645 C 0.3721 0.25518 0.21976 0.0
C5646 C 0.38294 0.24597 0.22948 0.0
C5647 C 0.37696 0.26042 0.20255 0.0
C5648 C 0.3665 0.2703 0.19154 0.0
C5649 C 0.36591 0.28942 0.19812 0.0
C5650 C 0.35717 0.29924 0.18696 0.0
C5651 C 0.3487 0.28992 0.1694 0.0
C5652 C 0.34929 0.27086 0.16276 0.0
C5653 C 0.35833 0.26111 0.1737 0.0
H5654 H 0.3418 0.2975 0.16087 0.0
H5655 H 0.43855 0.20516 0.25901 0.0
H5656 H 0.66373 0.50878 0.34263 0.0
H5657 H 0.65125 0.51249 0.37314 0.0
H5658 H 0.60271 0.51963 0.34642 0.0
H5659 H 0.61519 0.51568 0.31575 0.0
H5660 H 0.60816 0.54397 0.37927 0.0
H5661 H 0.60811 0.47736 0.36584 0.0
H5662 H 0.61975 0.44803 0.35844 0.0
H5663 H 0.65632 0.46651 0.40786 0.0
H5664 H 0.64508 0.49609 0.4154 0.0
H5665 H 0.55606 0.53111 0.45915 0.0
H5666 H 0.56855 0.52695 0.42863 0.0
H5667 H 0.61937 0.52831 0.45646 0.0
H5668 H 0.60701 0.53323 0.48714 0.0
H5669 H 0.61264 0.49964 0.4234 0.0
H5670 H 0.61312 0.56561 0.43731 0.0
H5671 H 0.60082 0.59422 0.44645 0.0
H5672 H 0.56378 0.57707 0.39734 0.0
H5673 H 0.57565 0.5481 0.3881 0.0
C5674 C 0.65032 0.51101 0.34302 0.0
C5675 C 0.64074 0.51174 0.32599 0.0
C5676 C 0.643 0.51311 0.36084 0.0
C5677 C 0.6256 0.51629 0.36298 0.0
C5678 C 0.61606 0.51724 0.34597 0.0
C5679 C 0.62331 0.51485 0.32806 0.0
C5680 C 0.6176 0.5187 0.3826 0.0
C5681 C 0.60904 0.53394 0.38861 0.0
C5682 C 0.61867 0.50637 0.39592 0.0
C5683 C 0.62592 0.48902 0.39104 0.0
C5684 C 0.6188 0.47527 0.37499 0.0
C5685 C 0.62528 0.45858 0.3708 0.0
C5686 C 0.6388 0.45543 0.38264 0.0
C5687 C 0.64588 0.46899 0.39868 0.0
C5688 C 0.63947 0.48572 0.40291 0.0
C5689 C 0.5699 0.53043 0.45899 0.0
C5690 C 0.58022 0.53242 0.47628 0.0
C5691 C 0.5772 0.52811 0.44119 0.0
C5692 C 0.59523 0.52716 0.43943 0.0
C5693 C 0.60549 0.52882 0.4567 0.0
C5694 C 0.5983 0.53171 0.47456 0.0
C5695 C 0.60324 0.52479 0.41992 0.0
C5696 C 0.61179 0.50961 0.41399 0.0
C5697 C 0.60226 0.53721 0.40675 0.0
C5698 C 0.59514 0.5546 0.41211 0.0
C5699 C 0.60224 0.56785 0.42854 0.0
C5700 C 0.59537 0.58414 0.43374 0.0
C5701 C 0.5815 0.58744 0.4225 0.0
C5702 C 0.57451 0.57447 0.40604 0.0
C5703 C 0.5813 0.55811 0.40082 0.0
H5704 H 0.5762 0.60008 0.42653 0.0
H5705 H 0.64375 0.44246 0.37942 0.0
H5706 H 0.33633 0.92471 0.07339 0.0
H5707 H 0.33815 0.91297 0.10288 0.0
H5708 H 0.29438 0.8656 0.08113 0.0
H5709 H 0.29262 0.87723 0.05136 0.0
H5710 H 0.29054 0.88945 0.11556 0.0
H5711 H 0.33243 0.85792 0.08396 0.0
H5712 H 0.3592 0.85603 0.06748 0.0
H5713 H 0.39189 0.88865 0.11644 0.0
H5714 H 0.36525 0.89142 0.13304 0.0
H5715 H 0.29674 0.81955 0.17271 0.0
H5716 H 0.29077 0.84081 0.15135 0.0
H5717 H 0.33576 0.88401 0.17875 0.0
H5718 H 0.3421 0.86263 0.19936 0.0
H5719 H 0.34017 0.86629 0.14325 0.0
H5720 H 0.29809 0.89628 0.17528 0.0
H5721 H 0.27109 0.90007 0.19077 0.0
H5722 H 0.23879 0.86996 0.14058 0.0
H5723 H 0.26554 0.86557 0.12493 0.0
C5724 C 0.32719 0.91172 0.07495 0.0
C5725 C 0.31413 0.90184 0.06058 0.0
C5726 C 0.32835 0.90505 0.0916 0.0
C5727 C 0.31636 0.88859 0.09384 0.0
C5728 C 0.30366 0.87837 0.07929 0.0
C5729 C 0.30268 0.8849 0.06249 0.0
C5730 C 0.31617 0.88281 0.11191 0.0
C5731 C 0.30123 0.88412 0.12166 0.0
C5732 C 0.33065 0.87683 0.11974 0.0
C5733 C 0.34674 0.87518 0.10968 0.0
C5734 C 0.34528 0.86501 0.09115 0.0
C5735 C 0.36045 0.86374 0.08177 0.0
C5736 C 0.37723 0.87228 0.09088 0.0
C5737 C 0.37887 0.88212 0.10938 0.0
C5738 C 0.36372 0.88359 0.11876 0.0
C5739 C 0.30477 0.83392 0.17457 0.0
C5740 C 0.31993 0.8396 0.18728 0.0
C5741 C 0.30129 0.84606 0.1626 0.0
C5742 C 0.31296 0.8638 0.1636 0.0
C5743 C 0.32666 0.87036 0.178 0.0
C5744 C 0.33029 0.85816 0.18966 0.0
C5745 C 0.31423 0.87249 0.14695 0.0
C5746 C 0.32949 0.87178 0.13736 0.0
C5747 C 0.29999 0.87888 0.13919 0.0
C5748 C 0.28385 0.88044 0.14899 0.0
C5749 C 0.28523 0.89016 0.16765 0.0
C5750 C 0.26995 0.89248 0.17644 0.0
C5751 C 0.25323 0.88523 0.16668 0.0
C5752 C 0.25174 0.87554 0.14814 0.0
C5753 C 0.26695 0.87311 0.13932 0.0
H5754 H 0.24143 0.88716 0.17347 0.0
H5755 H 0.38897 0.87121 0.08362 0.0
H5756 H 0.91837 0.5342 0.86274 0.0
H5757 H 0.93209 0.5292 0.89204 0.0
H5758 H 0.98399 0.54743 0.87347 0.0
H5759 H 0.97049 0.55212 0.84408 0.0
H5760 H 0.97911 0.51349 0.88733 0.0
H5761 H 0.9659 0.57761 0.90111 0.0
H5762 H 0.94494 0.59918 0.90366 0.0
H5763 H 0.91802 0.56953 0.94393 0.0
H5764 H 0.93859 0.54749 0.94128 0.0
H5765 H 0.04202 0.54009 0.96625 0.0
H5766 H 0.02398 0.53977 0.93745 0.0
H5767 H 0.97651 0.52857 0.96628 0.0
H5768 H 0.99419 0.53031 0.99485 0.0
H5769 H 0.97562 0.55556 0.94784 0.0
H5770 H 0.98855 0.49288 0.93648 0.0
H5771 H 0.00814 0.46985 0.93414 0.0
H5772 H 0.0337 0.49476 0.89027 0.0
H5773 H 0.01441 0.51811 0.89257 0.0
C5774 C 0.93271 0.53727 0.86504 0.0
C5775 C 0.94353 0.54363 0.85144 0.0
C5776 C 0.94041 0.5343 0.88159 0.0
C5777 C 0.95885 0.53796 0.88451 0.0
C5778 C 0.96965 0.54448 0.87107 0.0
C5779 C 0.962 0.5473 0.85451 0.0
C5780 C 0.96728 0.53559 0.90181 0.0
C5781 C 0.97841 0.5226 0.90064 0.0
C5782 C 0.96568 0.54721 0.91895 0.0
C5783 C 0.95361 0.56075 0.92079 0.0
C5784 C 0.95541 0.57559 0.91038 0.0
C5785 C 0.94361 0.5879 0.91185 0.0
C5786 C 0.93011 0.58568 0.92389 0.0
C5787 C 0.92843 0.57119 0.93455 0.0
C5788 C 0.94014 0.55877 0.93306 0.0
C5789 C 0.02782 0.53743 0.96631 0.0
C5790 C 0.01955 0.53504 0.98265 0.0
C5791 C 0.01756 0.53724 0.94998 0.0
C5792 C 0.99904 0.53398 0.94999 0.0
C5793 C 0.99082 0.53122 0.96619 0.0
C5794 C 1.00101 0.53214 0.98246 0.0
C5795 C 0.98796 0.53381 0.93331 0.0
C5796 C 0.9762 0.54622 0.93464 0.0
C5797 C 0.98876 0.52145 0.91638 0.0
C5798 C 1.00015 0.50727 0.91479 0.0
C5799 C 0.99842 0.49348 0.92641 0.0
C5800 C 0.00946 0.48039 0.92509 0.0
C5801 C 0.02218 0.48086 0.91209 0.0
C5802 C 0.02385 0.49441 0.90034 0.0
C5803 C 0.01286 0.50756 0.90164 0.0
H5804 H 0.03073 0.47071 0.91109 0.0
H5805 H 0.92099 0.59523 0.92501 0.0
H5806 H 0.31557 0.19766 0.57301 0.0
H5807 H 0.31749 0.21083 0.60647 0.0
H5808 H 0.28906 0.25338 0.59453 0.0
H5809 H 0.28799 0.24076 0.56072 0.0
H5810 H 0.31318 0.2687 0.6237 0.0
H5811 H 0.26862 0.20832 0.60885 0.0
H5812 H 0.25949 0.17372 0.5961 0.0
H5813 H 0.29937 0.16266 0.63363 0.0
H5814 H 0.30882 0.19718 0.64646 0.0
H5815 H 0.29421 0.2909 0.7213 0.0
H5816 H 0.2933 0.28402 0.68676 0.0
H5817 H 0.31008 0.23132 0.68977 0.0
H5818 H 0.30816 0.23656 0.723 0.0
H5819 H 0.28958 0.2222 0.66369 0.0
H5820 H 0.33647 0.27899 0.67848 0.0
H5821 H 0.35096 0.31285 0.68992 0.0
H5822 H 0.31405 0.33026 0.65374 0.0
H5823 H 0.29921 0.29653 0.64228 0.0
C5824 C 0.30983 0.20993 0.57745 0.0
C5825 C 0.3014 0.21797 0.56411 0.0
C5826 C 0.31084 0.21743 0.59671 0.0
C5827 C 0.3029 0.23281 0.60336 0.0
C5828 C 0.29515 0.24141 0.58997 0.0
C5829 C 0.29449 0.23415 0.57059 0.0
C5830 C 0.30195 0.23918 0.62413 0.0
C5831 C 0.30789 0.25857 0.63248 0.0
C5832 C 0.29556 0.22606 0.63591 0.0
C5833 C 0.28943 0.20529 0.62856 0.0
C5834 C 0.27541 0.19848 0.61437 0.0
C5835 C 0.27021 0.1789 0.60712 0.0
C5836 C 0.27885 0.16601 0.61404 0.0
C5837 C 0.29267 0.17265 0.62829 0.0
C5838 C 0.29793 0.19221 0.63558 0.0
C5839 C 0.29701 0.27754 0.71445 0.0
C5840 C 0.30063 0.26407 0.72518 0.0
C5841 C 0.297 0.27379 0.6946 0.0
C5842 C 0.30166 0.257 0.6851 0.0
C5843 C 0.30593 0.24412 0.69613 0.0
C5844 C 0.30497 0.24731 0.7155 0.0
C5845 C 0.30156 0.25184 0.66389 0.0
C5846 C 0.29512 0.23255 0.65525 0.0
C5847 C 0.3082 0.26499 0.65211 0.0
C5848 C 0.31658 0.28526 0.65972 0.0
C5849 C 0.33131 0.29006 0.67315 0.0
C5850 C 0.33962 0.30923 0.6796 0.0
C5851 C 0.3334 0.3237 0.67261 0.0
C5852 C 0.31883 0.31905 0.65919 0.0
C5853 C 0.31045 0.29992 0.65273 0.0
H5854 H 0.3399 0.33852 0.67754 0.0
H5855 H 0.27481 0.15086 0.60839 0.0
H5856 H 0.64055 0.5385 0.22049 0.0
H5857 H 0.62696 0.54008 0.18967 0.0
H5858 H 0.61643 0.47876 0.17475 0.0
H5859 H 0.62987 0.47711 0.20595 0.0
H5860 H 0.62762 0.49461 0.14339 0.0
H5861 H 0.58154 0.50098 0.18249 0.0
H5862 H 0.56821 0.51348 0.21079 0.0
H5863 H 0.58159 0.57016 0.19836 0.0
H5864 H 0.59514 0.55797 0.17002 0.0
H5865 H 0.57857 0.49531 0.05704 0.0
H5866 H 0.58748 0.4896 0.08763 0.0
H5867 H 0.58604 0.54745 0.112 0.0
H5868 H 0.57468 0.55211 0.08157 0.0
H5869 H 0.58059 0.53132 0.13881 0.0
H5870 H 0.62791 0.52273 0.0985 0.0
H5871 H 0.63961 0.50769 0.07011 0.0
H5872 H 0.62237 0.45237 0.08469 0.0
H5873 H 0.61041 0.46707 0.11306 0.0
C5874 C 0.63528 0.5252 0.21084 0.0
C5875 C 0.6365 0.50766 0.21642 0.0
C5876 C 0.62736 0.52614 0.19288 0.0
C5877 C 0.6203 0.5096 0.17913 0.0
C5878 C 0.62163 0.49198 0.18455 0.0
C5879 C 0.62935 0.49102 0.20272 0.0
C5880 C 0.61155 0.51094 0.15959 0.0
C5881 C 0.61723 0.50253 0.14256 0.0
C5882 C 0.59786 0.5212 0.15756 0.0
C5883 C 0.58946 0.52861 0.17427 0.0
C5884 C 0.5817 0.51613 0.18585 0.0
C5885 C 0.57409 0.52314 0.20188 0.0
C5886 C 0.57409 0.54262 0.2064 0.0
C5887 C 0.58161 0.55508 0.19484 0.0
C5888 C 0.58923 0.54812 0.17877 0.0
C5889 C 0.57981 0.50697 0.06872 0.0
C5890 C 0.57601 0.52464 0.06571 0.0
C5891 C 0.58552 0.50373 0.08669 0.0
C5892 C 0.58889 0.51829 0.10295 0.0
C5893 C 0.58427 0.53569 0.10024 0.0
C5894 C 0.5778 0.5386 0.08229 0.0
C5895 C 0.59698 0.51548 0.12236 0.0
C5896 C 0.59111 0.52356 0.13948 0.0
C5897 C 0.61041 0.50471 0.12441 0.0
C5898 C 0.61823 0.49598 0.10783 0.0
C5899 C 0.62667 0.50736 0.09565 0.0
C5900 C 0.6333 0.49889 0.07955 0.0
C5901 C 0.63172 0.47908 0.07559 0.0
C5902 C 0.62359 0.46771 0.08778 0.0
C5903 C 0.61691 0.4761 0.10388 0.0
H5904 H 0.63682 0.47255 0.0631 0.0
H5905 H 0.56823 0.54804 0.21884 0.0
H5906 H 0.34901 0.91448 0.96579 0.0
H5907 H 0.35446 0.89608 0.93598 0.0
H5908 H 0.29792 0.87901 0.92074 0.0
H5909 H 0.29253 0.8963 0.95109 0.0
H5910 H 0.31224 0.84948 0.91896 0.0
H5911 H 0.32684 0.91144 0.90147 0.0
H5912 H 0.34342 0.94471 0.90454 0.0
H5913 H 0.39155 0.92512 0.89507 0.0
H5914 H 0.37537 0.89171 0.8926 0.0
H5915 H 0.29483 0.81871 0.8243 0.0
H5916 H 0.30039 0.83743 0.85574 0.0
H5917 H 0.35498 0.83188 0.85734 0.0
H5918 H 0.34916 0.81259 0.82539 0.0
H5919 H 0.34869 0.86998 0.86877 0.0
H5920 H 0.32898 0.80603 0.88081 0.0
H5921 H 0.30853 0.77443 0.87385 0.0
H5922 H 0.26506 0.80034 0.88984 0.0
H5923 H 0.28511 0.83216 0.89638 0.0
C5924 C 0.33785 0.90707 0.95578 0.0
C5925 C 0.32039 0.90648 0.96033 0.0
C5926 C 0.34096 0.89667 0.93889 0.0
C5927 C 0.32657 0.88623 0.92637 0.0
C5928 C 0.30913 0.88688 0.93045 0.0
C5929 C 0.30604 0.89673 0.94758 0.0
C5930 C 0.32935 0.87301 0.90987 0.0
C5931 C 0.32021 0.85396 0.90798 0.0
C5932 C 0.34028 0.87891 0.89601 0.0
C5933 C 0.34993 0.89904 0.89721 0.0
C5934 C 0.341 0.9142 0.9003 0.0
C5935 C 0.35033 0.9331 0.90192 0.0
C5936 C 0.36854 0.93704 0.9001 0.0
C5937 C 0.37745 0.92206 0.89658 0.0
C5938 C 0.36822 0.90314 0.89512 0.0
C5939 C 0.30765 0.82042 0.83176 0.0
C5940 C 0.32122 0.8131 0.82327 0.0
C5941 C 0.31098 0.83156 0.84945 0.0
C5942 C 0.32795 0.83545 0.85881 0.0
C5943 C 0.34175 0.82858 0.85024 0.0
C5944 C 0.33839 0.81744 0.83233 0.0
C5945 C 0.33082 0.8469 0.87759 0.0
C5946 C 0.34117 0.86549 0.88006 0.0
C5947 C 0.32048 0.84085 0.89177 0.0
C5948 C 0.30862 0.82152 0.88914 0.0
C5949 C 0.31507 0.805 0.88287 0.0
C5950 C 0.30352 0.78705 0.87892 0.0
C5951 C 0.28551 0.78537 0.88141 0.0
C5952 C 0.27902 0.80165 0.88794 0.0
C5953 C 0.29048 0.81965 0.89179 0.0
H5954 H 0.27659 0.77147 0.87827 0.0
H5955 H 0.37574 0.95168 0.90133 0.0
H5956 H 0.96523 0.55542 0.75729 0.0
H5957 H 0.97403 0.55347 0.72518 0.0
H5958 H 0.92299 0.51725 0.70398 0.0
H5959 H 0.91414 0.51905 0.73586 0.0
H5960 H 0.95257 0.50559 0.68846 0.0
H5961 H 0.92787 0.56047 0.7032 0.0
H5962 H 0.92622 0.58889 0.72616 0.0
H5963 H 0.97906 0.6158 0.71708 0.0
H5964 H 0.9817 0.5867 0.69532 0.0
H5965 H 0.97388 0.5078 0.59834 0.0
H5966 H 0.95472 0.51477 0.62336 0.0
H5967 H 0.9985 0.55687 0.65483 0.0
H5968 H 0.0174 0.55029 0.62955 0.0
H5969 H 0.96702 0.56584 0.66317 0.0
H5970 H 0.99462 0.5114 0.65744 0.0
H5971 H 1.00142 0.48077 0.64298 0.0
H5972 H 0.94629 0.45348 0.63942 0.0
H5973 H 0.93912 0.48412 0.65346 0.0
C5974 C 0.95605 0.5469 0.74575 0.0
C5975 C 0.93901 0.53762 0.74878 0.0
C5976 C 0.96101 0.54584 0.72757 0.0
C5977 C 0.94894 0.53549 0.7125 0.0
C5978 C 0.9323 0.52539 0.7156 0.0
C5979 C 0.92729 0.52654 0.73371 0.0
C5980 C 0.95345 0.53577 0.69334 0.0
C5981 C 0.95529 0.51861 0.68263 0.0
C5982 C 0.95717 0.55299 0.68629 0.0
C5983 C 0.95501 0.57131 0.69763 0.0
C5984 C 0.93918 0.57241 0.70609 0.0
C5985 C 0.93809 0.58863 0.71899 0.0
C5986 C 0.9524 0.6043 0.72287 0.0
C5987 C 0.96794 0.60368 0.71399 0.0
C5988 C 0.96931 0.58723 0.70149 0.0
C5989 C 0.97911 0.51891 0.6104 0.0
C5990 C 0.997 0.52824 0.61257 0.0
C5991 C 0.96822 0.52299 0.62451 0.0
C5992 C 0.97538 0.53604 0.64097 0.0
C5993 C 0.9928 0.54675 0.6422 0.0
C5994 C 0.00361 0.54284 0.62797 0.0
C5995 C 0.96636 0.53553 0.6582 0.0
C5996 C 0.96368 0.55268 0.66864 0.0
C5997 C 0.96211 0.5183 0.6653 0.0
C5998 C 0.96629 0.50012 0.65608 0.0
C5999 C 0.98391 0.49895 0.65326 0.0
C6000 C 0.98784 0.48157 0.6452 0.0
C6001 C 0.97428 0.46521 0.64019 0.0
C6002 C 0.95676 0.46619 0.6432 0.0
C6003 C 0.95275 0.48357 0.65114 0.0
H6004 H 0.97736 0.45174 0.63406 0.0
H6005 H 0.95149 0.61689 0.73283 0.0
H6006 H 0.29185 0.23745 0.46474 0.0
H6007 H 0.29147 0.24652 0.4336 0.0
H6008 H 0.30272 0.19227 0.40938 0.0
H6009 H 0.30311 0.18318 0.44028 0.0
H6010 H 0.3227 0.22027 0.39548 0.0
H6011 H 0.26068 0.20099 0.40375 0.0
H6012 H 0.23236 0.20085 0.41792 0.0
H6013 H 0.2369 0.26009 0.41454 0.0
H6014 H 0.26535 0.26061 0.40051 0.0
H6015 H 0.29766 0.21893 0.29827 0.0
H6016 H 0.30013 0.21159 0.33011 0.0
H6017 H 0.29096 0.26714 0.35322 0.0
H6018 H 0.28793 0.27411 0.32179 0.0
H6019 H 0.27066 0.23951 0.36772 0.0
H6020 H 0.3322 0.2591 0.35926 0.0
H6021 H 0.3589 0.2588 0.34215 0.0
H6022 H 0.35443 0.19931 0.34435 0.0
H6023 H 0.32759 0.19925 0.36138 0.0
C6024 C 0.29432 0.22751 0.45279 0.0
C6025 C 0.29751 0.20959 0.45505 0.0
C6026 C 0.29399 0.23265 0.43495 0.0
C6027 C 0.29694 0.22003 0.41902 0.0
C6028 C 0.30041 0.20229 0.42137 0.0
C6029 C 0.30059 0.19709 0.4391 0.0
C6030 C 0.29651 0.22518 0.3999 0.0
C6031 C 0.31122 0.2243 0.3894 0.0
C6032 C 0.28177 0.23088 0.39193 0.0
C6033 C 0.26526 0.23091 0.40137 0.0
C6034 C 0.25577 0.21406 0.40631 0.0
C6035 C 0.23965 0.21389 0.41422 0.0
C6036 C 0.23287 0.23047 0.41719 0.0
C6037 C 0.2422 0.24727 0.41228 0.0
C6038 C 0.25832 0.24751 0.40436 0.0
C6039 C 0.29639 0.22959 0.3102 0.0
C6040 C 0.29325 0.24737 0.30755 0.0
C6041 C 0.29785 0.22545 0.32837 0.0
C6042 C 0.29597 0.23894 0.34412 0.0
C6043 C 0.29265 0.25658 0.34138 0.0
C6044 C 0.29128 0.26071 0.32335 0.0
C6045 C 0.29676 0.23453 0.36342 0.0
C6046 C 0.28215 0.23559 0.37392 0.0
C6047 C 0.31159 0.22911 0.37139 0.0
C6048 C 0.32787 0.22914 0.3615 0.0
C6049 C 0.33688 0.24595 0.35603 0.0
C6050 C 0.35204 0.24585 0.34637 0.0
C6051 C 0.35835 0.22904 0.34215 0.0
C6052 C 0.34953 0.21232 0.34764 0.0
C6053 C 0.33438 0.21235 0.35734 0.0
H6054 H 0.37007 0.22898 0.33464 0.0
H6055 H 0.22034 0.23027 0.42324 0.0
H6056 H 0.34157 0.65062 0.54193 0.0
H6057 H 0.37003 0.64124 0.54341 0.0
H6058 H 0.34484 0.584 0.51537 0.0
H6059 H 0.31611 0.59315 0.51432 0.0
H6060 H 0.36546 0.58523 0.54692 0.0
H6061 H 0.36928 0.61472 0.49181 0.0
H6062 H 0.36662 0.64221 0.47686 0.0
H6063 H 0.40913 0.6781 0.51514 0.0
H6064 H 0.41182 0.65084 0.53053 0.0
H6065 H 0.42576 0.53741 0.50726 0.0
H6066 H 0.40301 0.5545 0.51663 0.0
H6067 H 0.44293 0.60583 0.53763 0.0
H6068 H 0.46602 0.58886 0.52668 0.0
H6069 H 0.41795 0.61364 0.51659 0.0
H6070 H 0.41445 0.58031 0.56969 0.0
H6071 H 0.41199 0.55302 0.58634 0.0
H6072 H 0.36548 0.52309 0.5502 0.0
H6073 H 0.36769 0.55014 0.5334 0.0
C6074 C 0.34214 0.63604 0.53602 0.0
C6075 C 0.32682 0.62249 0.52801 0.0
C6076 C 0.35835 0.6308 0.53681 0.0
C6077 C 0.35938 0.6121 0.5293 0.0
C6078 C 0.34411 0.59855 0.52118 0.0
C6079 C 0.32782 0.60372 0.52061 0.0
C6080 C 0.37625 0.60623 0.53069 0.0
C6081 C 0.37697 0.59132 0.54024 0.0
C6082 C 0.39126 0.61491 0.52261 0.0
C6083 C 0.39072 0.6308 0.51235 0.0
C6084 C 0.3781 0.62847 0.49699 0.0
C6085 C 0.37654 0.64401 0.48848 0.0
C6086 C 0.38768 0.6619 0.49507 0.0
C6087 C 0.40051 0.66423 0.51006 0.0
C6088 C 0.40209 0.64873 0.51866 0.0
C6089 C 0.42974 0.5523 0.514 0.0
C6090 C 0.44755 0.56189 0.51598 0.0
C6091 C 0.41673 0.562 0.51971 0.0
C6092 C 0.42128 0.58132 0.52828 0.0
C6093 C 0.4392 0.59083 0.5312 0.0
C6094 C 0.45233 0.58113 0.52509 0.0
C6095 C 0.40696 0.59167 0.53208 0.0
C6096 C 0.40668 0.6077 0.52366 0.0
C6097 C 0.39204 0.58376 0.54089 0.0
C6098 C 0.39131 0.56716 0.55032 0.0
C6099 C 0.40383 0.5678 0.56523 0.0
C6100 C 0.40242 0.55242 0.57473 0.0
C6101 C 0.3886 0.53633 0.56933 0.0
C6102 C 0.37617 0.53555 0.55439 0.0
C6103 C 0.37746 0.55091 0.54493 0.0
H6104 H 0.38752 0.52446 0.57674 0.0
H6105 H 0.38638 0.67395 0.48854 0.0
H6106 H 0.87054 0.89554 0.5398 0.0
H6107 H 0.90119 0.912 0.53794 0.0
H6108 H 0.88435 0.96535 0.54033 0.0
H6109 H 0.85362 0.94886 0.54203 0.0
H6110 H 0.90643 0.96173 0.51376 0.0
H6111 H 0.90787 0.95297 0.57832 0.0
H6112 H 0.9044 0.93425 0.60376 0.0
H6113 H 0.94215 0.90253 0.58127 0.0
H6114 H 0.94558 0.92083 0.55549 0.0
H6115 H 0.99061 0.02683 0.53053 0.0
H6116 H 0.96064 0.00887 0.53314 0.0
H6117 H 0.98031 0.95715 0.53055 0.0
H6118 H 0.01025 0.975 0.52782 0.0
H6119 H 0.95728 0.95842 0.55666 0.0
H6120 H 0.95652 0.96455 0.49322 0.0
H6121 H 0.95896 0.9787 0.46466 0.0
H6122 H 0.92011 0.01117 0.48197 0.0
H6123 H 0.9177 0.99752 0.51088 0.0
C6124 C 0.87335 0.91082 0.5401 0.0
C6125 C 0.8595 0.92084 0.54119 0.0
C6126 C 0.891 0.92028 0.5391 0.0
C6127 C 0.89538 0.94011 0.5392 0.0
C6128 C 0.88152 0.95011 0.54028 0.0
C6129 C 0.86388 0.94066 0.54135 0.0
C6130 C 0.91419 0.95036 0.53761 0.0
C6131 C 0.91745 0.96128 0.52343 0.0
C6132 C 0.92896 0.94914 0.54949 0.0
C6133 C 0.92682 0.93811 0.56489 0.0
C6134 C 0.9153 0.94188 0.57871 0.0
C6135 C 0.91336 0.93136 0.5932 0.0
C6136 C 0.92301 0.91717 0.5941 0.0
C6137 C 0.93464 0.91349 0.58053 0.0
C6138 C 0.93659 0.92392 0.56598 0.0
C6139 C 0.98866 0.01169 0.53073 0.0
C6140 C 0.00306 1.00252 0.52911 0.0
C6141 C 0.97138 1.00133 0.53204 0.0
C6142 C 0.96795 0.98148 0.53194 0.0
C6143 C 0.9824 0.97238 0.53069 0.0
C6144 C 0.99961 0.98267 0.52911 0.0
C6145 C 0.94941 0.97029 0.53315 0.0
C6146 C 0.94623 0.95906 0.54713 0.0
C6147 C 0.93474 0.9709 0.52087 0.0
C6148 C 0.93709 0.9802 0.50429 0.0
C6149 C 0.94875 0.97498 0.49112 0.0
C6150 C 0.95007 0.98284 0.47484 0.0
C6151 C 0.93967 0.99576 0.47153 0.0
C6152 C 0.92814 1.00114 0.48459 0.0
C6153 C 0.92682 0.99338 0.50094 0.0
H6154 H 0.94042 1.00141 0.45873 0.0
H6155 H 0.92151 0.90906 0.60535 0.0
H6156 H 0.87987 0.10538 0.27934 0.0
H6157 H 0.86621 0.13298 0.27898 0.0
H6158 H 0.91736 0.16853 0.27599 0.0
H6159 H 0.93112 0.1409 0.2771 0.0
H6160 H 0.90155 0.19289 0.29303 0.0
H6161 H 0.87866 0.15106 0.23633 0.0
H6162 H 0.86488 0.12044 0.21565 0.0
H6163 H 0.81753 0.11791 0.24442 0.0
H6164 H 0.83112 0.14848 0.26538 0.0
H6165 H 0.86284 0.26461 0.25589 0.0
H6166 H 0.8762 0.23804 0.26022 0.0
H6167 H 0.83007 0.21296 0.285 0.0
H6168 H 0.81737 0.24123 0.28275 0.0
H6169 H 0.84336 0.18391 0.25693 0.0
H6170 H 0.86854 0.22976 0.31243 0.0
H6171 H 0.88465 0.26068 0.33099 0.0
H6172 H 0.9302 0.25714 0.30029 0.0
H6173 H 0.91433 0.22617 0.28146 0.0
C6174 C 0.88842 0.11898 0.27858 0.0
C6175 C 0.90698 0.12004 0.27818 0.0
C6176 C 0.88038 0.1352 0.27815 0.0
C6177 C 0.89015 0.15384 0.27691 0.0
C6178 C 0.9088 0.15497 0.27684 0.0
C6179 C 0.91688 0.13874 0.27744 0.0
C6180 C 0.88104 0.17156 0.27564 0.0
C6181 C 0.88889 0.1906 0.28491 0.0
C6182 C 0.86432 0.17 0.2652 0.0
C6183 C 0.85593 0.15191 0.2525 0.0
C6184 C 0.86532 0.14392 0.23827 0.0
C6185 C 0.85756 0.12659 0.2265 0.0
C6186 C 0.84036 0.11721 0.22875 0.0
C6187 C 0.83086 0.12519 0.24271 0.0
C6188 C 0.83856 0.14253 0.25452 0.0
C6189 C 0.85507 0.25362 0.26228 0.0
C6190 C 0.8379 0.25559 0.2678 0.0
C6191 C 0.8631 0.23799 0.26482 0.0
C6192 C 0.85455 0.22241 0.27271 0.0
C6193 C 0.8374 0.22411 0.27848 0.0
C6194 C 0.82964 0.24044 0.2767 0.0
C6195 C 0.86361 0.20498 0.27469 0.0
C6196 C 0.85589 0.18608 0.26527 0.0
C6197 C 0.8807 0.20686 0.28453 0.0
C6198 C 0.89016 0.22571 0.29541 0.0
C6199 C 0.88192 0.23565 0.30949 0.0
C6200 C 0.89104 0.25315 0.32011 0.0
C6201 C 0.90842 0.26087 0.3168 0.0
C6202 C 0.91673 0.25112 0.30284 0.0
C6203 C 0.90769 0.23357 0.29221 0.0
H6204 H 0.91545 0.27437 0.32511 0.0
H6205 H 0.83437 0.10376 0.21966 0.0
H6206 H 0.72424 0.0947 0.99791 0.0
H6207 H 0.69189 0.08829 0.99254 0.0
H6208 H 0.69067 0.13638 0.03607 0.0
H6209 H 0.72273 0.14268 0.04177 0.0
H6210 H 0.67533 0.10077 0.04314 0.0
H6211 H 0.6718 0.13785 0.99535 0.0
H6212 H 0.67934 0.14972 0.96633 0.0
H6213 H 0.66224 0.0928 0.93437 0.0
H6214 H 0.65457 0.08057 0.9633 0.0
H6215 H 0.58042 0.08806 0.02837 0.0
H6216 H 0.61231 0.09662 0.03741 0.0
H6217 H 0.61975 0.05049 0.99471 0.0
H6218 H 0.58796 0.04204 0.98573 0.0
H6219 H 0.63136 0.08805 0.98791 0.0
H6220 H 0.63961 0.04992 0.03349 0.0
H6221 H 0.6395 0.03541 0.06182 0.0
H6222 H 0.65062 0.09121 0.09662 0.0
H6223 H 0.65108 0.10605 0.06842 0.0
C6224 C 0.71702 0.1039 0.00621 0.0
C6225 C 0.72574 0.11865 0.02069 0.0
C6226 C 0.69871 0.10056 0.00284 0.0
C6227 C 0.68919 0.11203 0.01387 0.0
C6228 C 0.69801 0.12759 0.02738 0.0
C6229 C 0.71621 0.13085 0.03085 0.0
C6230 C 0.67039 0.10482 0.01476 0.0
C6231 C 0.66549 0.0985 0.03128 0.0
C6232 C 0.65813 0.10113 0.99891 0.0
C6233 C 0.66275 0.1083 0.98149 0.0
C6234 C 0.66977 0.12785 0.98215 0.0
C6235 C 0.67403 0.13464 0.9657 0.0
C6236 C 0.67136 0.12202 0.9485 0.0
C6237 C 0.66432 0.10257 0.9477 0.0
C6238 C 0.65995 0.0957 0.96412 0.0
C6239 C 0.58878 0.07901 0.0219 0.0
C6240 C 0.58199 0.06408 0.00687 0.0
C6241 C 0.60691 0.0839 0.02699 0.0
C6242 C 0.61812 0.07406 0.01668 0.0
C6243 C 0.6111 0.05797 0.00289 0.0
C6244 C 0.59305 0.05319 0.99778 0.0
C6245 C 0.63642 0.08373 0.01629 0.0
C6246 C 0.64111 0.09065 0.99989 0.0
C6247 C 0.64863 0.08774 0.03216 0.0
C6248 C 0.64518 0.07905 0.04892 0.0
C6249 C 0.64166 0.05907 0.0472 0.0
C6250 C 0.64188 0.0508 0.06321 0.0
C6251 C 0.64532 0.06239 0.081 0.0
C6252 C 0.64815 0.08226 0.08283 0.0
C6253 C 0.64819 0.0906 0.06685 0.0
H6254 H 0.64547 0.05595 0.09339 0.0
H6255 H 0.6747 0.12733 0.93578 0.0
H6256 H 0.22139 0.50609 0.26609 0.0
H6257 H 0.2311 0.47639 0.26722 0.0
H6258 H 0.20313 0.45148 0.21272 0.0
H6259 H 0.19229 0.48092 0.21218 0.0
H6260 H 0.20087 0.42738 0.23888 0.0
H6261 H 0.24695 0.47247 0.21528 0.0
H6262 H 0.265 0.5053 0.21918 0.0
H6263 H 0.28734 0.50034 0.27307 0.0
H6264 H 0.26931 0.4676 0.2696 0.0
H6265 H 0.25039 0.35765 0.25529 0.0
H6266 H 0.2368 0.37761 0.23796 0.0
H6267 H 0.26461 0.42771 0.2773 0.0
H6268 H 0.28059 0.40839 0.29256 0.0
H6269 H 0.26621 0.43493 0.24539 0.0
H6270 H 0.22036 0.3972 0.27606 0.0
H6271 H 0.19869 0.36913 0.28091 0.0
H6272 H 0.17167 0.36525 0.22674 0.0
H6273 H 0.1942 0.39235 0.22082 0.0
C6274 C 0.21739 0.49421 0.25442 0.0
C6275 C 0.20673 0.49549 0.23877 0.0
C6276 C 0.2228 0.47742 0.25509 0.0
C6277 C 0.21825 0.46239 0.23969 0.0
C6278 C 0.20687 0.46332 0.22445 0.0
C6279 C 0.2009 0.47995 0.22409 0.0
C6280 C 0.22625 0.44612 0.23925 0.0
C6281 C 0.21514 0.42863 0.23994 0.0
C6282 C 0.24482 0.44851 0.24084 0.0
C6283 C 0.25692 0.46749 0.24204 0.0
C6284 C 0.25586 0.47832 0.22786 0.0
C6285 C 0.26601 0.49695 0.23005 0.0
C6286 C 0.27734 0.50487 0.24633 0.0
C6287 C 0.27863 0.49415 0.26042 0.0
C6288 C 0.26851 0.47553 0.2583 0.0
C6289 C 0.2542 0.373 0.25983 0.0
C6290 C 0.26687 0.3815 0.27523 0.0
C6291 C 0.24609 0.38427 0.25009 0.0
C6292 C 0.24966 0.40399 0.25641 0.0
C6293 C 0.26184 0.41243 0.27207 0.0
C6294 C 0.27071 0.40134 0.28108 0.0
C6295 C 0.24091 0.41636 0.24716 0.0
C6296 C 0.25189 0.43313 0.2438 0.0
C6297 C 0.22218 0.41364 0.24448 0.0
C6298 C 0.20941 0.39648 0.24774 0.0
C6299 C 0.21017 0.39004 0.26491 0.0
C6300 C 0.19763 0.3743 0.26789 0.0
C6301 C 0.18373 0.36538 0.2542 0.0
C6302 C 0.18252 0.37203 0.23731 0.0
C6303 C 0.19533 0.38741 0.23402 0.0
H6304 H 0.17388 0.35336 0.25669 0.0
H6305 H 0.2851 0.51934 0.24805 0.0
H6306 H 0.25065 0.40104 0.00897 0.0
H6307 H 0.22324 0.413 0.00836 0.0
H6308 H 0.23376 0.43663 0.06742 0.0
H6309 H 0.26165 0.42514 0.06797 0.0
H6310 H 0.19478 0.41714 0.05271 0.0
H6311 H 0.24422 0.46626 0.0442 0.0
H6312 H 0.27167 0.47783 0.02998 0.0
H6313 H 0.24308 0.46351 0.97536 0.0
H6314 H 0.21552 0.45138 0.98924 0.0
H6315 H 0.14104 0.49039 0.04713 0.0
H6316 H 0.16326 0.47247 0.05554 0.0
H6317 H 0.163 0.44767 0.99721 0.0
H6318 H 0.14071 0.46499 0.98886 0.0
H6319 H 0.19694 0.46854 0.01513 0.0
H6320 H 0.14726 0.42026 0.02336 0.0
H6321 H 0.12001 0.40664 0.0368 0.0
H6322 H 0.14829 0.41857 0.09146 0.0
H6323 H 0.17566 0.43275 0.07842 0.0
C6324 C 0.24709 0.40867 0.02187 0.0
C6325 C 0.25846 0.41238 0.03846 0.0
C6326 C 0.23134 0.41538 0.02154 0.0
C6327 C 0.22634 0.42562 0.03787 0.0
C6328 C 0.23726 0.42865 0.05468 0.0
C6329 C 0.2533 0.4223 0.05492 0.0
C6330 C 0.21097 0.43509 0.0366 0.0
C6331 C 0.19531 0.42862 0.04479 0.0
C6332 C 0.21152 0.44985 0.02605 0.0
C6333 C 0.22787 0.45775 0.01772 0.0
C6334 C 0.24382 0.46545 0.02914 0.0
C6335 C 0.2594 0.4721 0.02114 0.0
C6336 C 0.25913 0.47136 1.00177 0.0
C6337 C 0.24327 0.46403 0.99036 0.0
C6338 C 0.22767 0.45726 0.99828 0.0
C6339 C 0.14539 0.48072 0.0362 0.0
C6340 C 0.1394 0.47945 0.01726 0.0
C6341 C 0.15813 0.47053 0.04101 0.0
C6342 C 0.165 0.45892 0.02695 0.0
C6343 C 0.15808 0.45669 0.00826 0.0
C6344 C 0.14537 0.46667 0.00351 0.0
C6345 C 0.18057 0.45058 0.03108 0.0
C6346 C 0.19637 0.45727 0.02332 0.0
C6347 C 0.18002 0.43608 0.04204 0.0
C6348 C 0.16349 0.42785 0.04995 0.0
C6349 C 0.14764 0.42028 0.0383 0.0
C6350 C 0.13216 0.41239 0.04584 0.0
C6351 C 0.1324 0.41179 0.06498 0.0
C6352 C 0.14811 0.4191 0.07663 0.0
C6353 C 0.16361 0.42708 0.06918 0.0
H6354 H 0.12043 0.40561 0.07078 0.0
H6355 H 0.27121 0.47651 0.99559 0.0
H6356 H 0.87887 0.00875 0.2597 0.0
H6357 H 0.86424 0.97528 0.2588 0.0
H6358 H 0.9121 0.96511 0.2843 0.0
H6359 H 0.92699 0.9984 0.28422 0.0
H6360 H 0.8989 0.93319 0.26431 0.0
H6361 H 0.86809 0.96912 0.30724 0.0
H6362 H 0.85159 0.99417 0.31761 0.0
H6363 H 0.81087 0.96887 0.27276 0.0
H6364 H 0.82725 0.94379 0.26202 0.0
H6365 H 0.85458 0.84068 0.28291 0.0
H6366 H 0.87056 0.87327 0.28334 0.0
H6367 H 0.8225 0.88719 0.26261 0.0
H6368 H 0.80613 0.85469 0.26376 0.0
H6369 H 0.83695 0.91741 0.28065 0.0
H6370 H 0.86923 0.87997 0.23844 0.0
H6371 H 0.88772 0.85664 0.22872 0.0
H6372 H 0.92728 0.88516 0.27376 0.0
H6373 H 0.90893 0.90846 0.28389 0.0
C6374 C 0.88641 0.99952 0.26519 0.0
C6375 C 0.90439 0.00705 0.27213 0.0
C6376 C 0.87782 0.97999 0.26487 0.0
C6377 C 0.88644 0.96671 0.27199 0.0
C6378 C 0.90454 0.97424 0.27869 0.0
C6379 C 0.91321 0.99371 0.27871 0.0
C6380 C 0.87678 0.94545 0.27246 0.0
C6381 C 0.88538 0.92997 0.26809 0.0
C6382 C 0.85893 0.94004 0.27713 0.0
C6383 C 0.84893 0.95475 0.28376 0.0
C6384 C 0.85563 0.96896 0.29958 0.0
C6385 C 0.84632 0.98315 0.30551 0.0
C6386 C 0.83022 0.98314 0.29582 0.0
C6387 C 0.82335 0.96887 0.28023 0.0
C6388 C 0.83263 0.95466 0.27423 0.0
C6389 C 0.84718 0.85055 0.27844 0.0
C6390 C 0.82862 0.84426 0.27336 0.0
C6391 C 0.85667 0.86963 0.27835 0.0
C6392 C 0.84848 0.88373 0.27239 0.0
C6393 C 0.82984 0.8774 0.26733 0.0
C6394 C 0.82022 0.85839 0.26795 0.0
C6395 C 0.85881 0.90482 0.27203 0.0
C6396 C 0.85038 0.92041 0.27662 0.0
C6397 C 0.87692 0.91024 0.26775 0.0
C6398 C 0.8876 0.8958 0.26204 0.0
C6399 C 0.88179 0.88113 0.24637 0.0
C6400 C 0.89226 0.86794 0.24078 0.0
C6401 C 0.90864 0.86939 0.25064 0.0
C6402 C 0.91458 0.88401 0.26616 0.0
C6403 C 0.90414 0.8972 0.27184 0.0
H6404 H 0.91676 0.85921 0.24624 0.0
H6405 H 0.82303 0.99416 0.30041 0.0
H6406 H 0.73516 0.095 0.73687 0.0
H6407 H 0.74857 0.12914 0.74516 0.0
H6408 H 0.70902 0.13671 0.78412 0.0
H6409 H 0.69524 0.10283 0.77543 0.0
H6410 H 0.71177 0.16061 0.75922 0.0
H6411 H 0.74992 0.13961 0.80188 0.0
H6412 H 0.76946 0.11874 0.81017 0.0
H6413 H 0.80528 0.13782 0.77058 0.0
H6414 H 0.78585 0.15867 0.76196 0.0
H6415 H 0.75002 0.25539 0.79966 0.0
H6416 H 0.73582 0.222 0.7908 0.0
H6417 H 0.78238 0.21099 0.76383 0.0
H6418 H 0.79804 0.24345 0.77769 0.0
H6419 H 0.7746 0.18792 0.78302 0.0
H6420 H 0.73276 0.20659 0.73759 0.0
H6421 H 0.7109 0.22524 0.72934 0.0
H6422 H 0.68121 0.21038 0.77499 0.0
H6423 H 0.7025 0.19127 0.78309 0.0
C6424 C 0.72956 0.10404 0.74731 0.0
C6425 C 0.7143 0.09683 0.75549 0.0
C6426 C 0.73717 0.12327 0.75206 0.0
C6427 C 0.72968 0.13492 0.76528 0.0
C6428 C 0.71476 0.12759 0.77389 0.0
C6429 C 0.70697 0.10848 0.7689 0.0
C6430 C 0.73669 0.15514 0.76905 0.0
C6431 C 0.7255 0.16681 0.76446 0.0
C6432 C 0.75449 0.16262 0.77568 0.0
C6433 C 0.76642 0.15056 0.78123 0.0
C6434 C 0.76195 0.13928 0.79492 0.0
C6435 C 0.773 0.12748 0.79968 0.0
C6436 C 0.78859 0.12692 0.79088 0.0
C6437 C 0.79321 0.13826 0.77738 0.0
C6438 C 0.78221 0.1501 0.77259 0.0
C6439 C 0.75709 0.24567 0.79186 0.0
C6440 C 0.7747 0.25165 0.7883 0.0
C6441 C 0.74877 0.22678 0.78619 0.0
C6442 C 0.75763 0.21422 0.77567 0.0
C6443 C 0.77519 0.22059 0.77166 0.0
C6444 C 0.78405 0.23904 0.77911 0.0
C6445 C 0.75002 0.19387 0.77215 0.0
C6446 C 0.761 0.18201 0.7772 0.0
C6447 C 0.73195 0.18625 0.76594 0.0
C6448 C 0.71935 0.19787 0.76109 0.0
C6449 C 0.72166 0.20753 0.74592 0.0
C6450 C 0.70935 0.21808 0.74125 0.0
C6451 C 0.69489 0.21926 0.75182 0.0
C6452 C 0.69248 0.20958 0.76688 0.0
C6453 C 0.70455 0.19876 0.77141 0.0
H6454 H 0.68547 0.22753 0.74823 0.0
H6455 H 0.7971 0.11772 0.79454 0.0
loop_
_geom_bond_atom_site_label_1
_geom_bond_atom_site_label_2
_geom_bond_distance
_geom_bond_site_symmetry_2
_ccdc_geom_bond_type
In0 O1 2.294 . S
In0 O2 2.326 . S
In0 O6 2.266 . S
In0 O7 2.326 . S
In0 O8 2.266 . S
In0 O9 2.326 . S
In0 O11 2.294 . S
In0 O12 2.326 . S
O1 In0 2.294 . S
O1 C10 1.240 . S
O2 In0 2.326 . S
O2 C10 1.252 . S
C3 O6 1.252 . S
C3 O7 1.260 . S
C4 O11 1.240 . S
C4 O12 1.252 . S
C5 O8 1.252 . S
C5 O9 1.260 . S
O6 In0 2.266 . S
O6 C3 1.252 . S
O7 In0 2.326 . S
O7 C3 1.260 . S
O8 In0 2.266 . S
O8 C5 1.252 . S
O9 In0 2.326 . S
O9 C5 1.260 . S
C10 O1 1.240 . S
C10 O2 1.252 . S
O11 In0 2.294 . S
O11 C4 1.240 . S
O12 In0 2.326 . S
O12 C4 1.252 . S
In13 O14 2.295 . S
In13 O15 2.326 . S
In13 O19 2.266 1_455 S
In13 O20 2.326 1_455 S
In13 O21 2.260 1_455 S
In13 O22 2.316 1_455 S
In13 O24 2.300 . S
In13 O25 2.336 . S
O14 In13 2.295 . S
O14 C23 1.240 . S
O15 In13 2.326 . S
O15 C23 1.252 . S
C16 O19 1.252 . S
C16 O20 1.260 . S
C17 O24 1.240 . S
C17 O25 1.252 . S
C18 O21 1.252 . S
C18 O22 1.260 . S
O19 In13 2.266 1_655 S
O19 C16 1.252 . S
O20 In13 2.326 1_655 S
O20 C16 1.260 . S
O21 In13 2.260 1_655 S
O21 C18 1.252 . S
O22 In13 2.316 1_655 S
O22 C18 1.260 . S
C23 O14 1.240 . S
C23 O15 1.252 . S
O24 In13 2.300 . S
O24 C17 1.240 . S
O25 In13 2.336 . S
O25 C17 1.252 . S
In26 O27 2.294 . S
In26 O28 2.326 . S
In26 O32 2.266 . S
In26 O33 2.326 . S
In26 O34 2.266 . S
In26 O35 2.326 . S
In26 O37 2.294 . S
In26 O38 2.326 . S
O27 In26 2.294 . S
O27 C36 1.240 . S
O28 In26 2.326 . S
O28 C36 1.252 . S
C29 O32 1.252 . S
C29 O33 1.260 . S
C30 O37 1.240 . S
C30 O38 1.252 . S
C31 O34 1.252 . S
C31 O35 1.260 . S
O32 In26 2.266 . S
O32 C29 1.252 . S
O33 In26 2.326 . S
O33 C29 1.260 . S
O34 In26 2.266 . S
O34 C31 1.252 . S
O35 In26 2.326 . S
O35 C31 1.260 . S
C36 O27 1.240 . S
C36 O28 1.252 . S
O37 In26 2.294 . S
O37 C30 1.240 . S
O38 In26 2.326 . S
O38 C30 1.252 . S
In39 O40 2.294 . S
In39 O41 2.326 . S
In39 O45 2.266 . S
In39 O46 2.326 . S
In39 O47 2.266 . S
In39 O48 2.326 . S
In39 O50 2.294 . S
In39 O51 2.326 . S
O40 In39 2.294 . S
O40 C49 1.240 . S
O41 In39 2.326 . S
O41 C49 1.252 . S
C42 O45 1.252 . S
C42 O46 1.260 . S
C43 O50 1.240 . S
C43 O51 1.252 . S
C44 O47 1.252 . S
C44 O48 1.260 . S
O45 In39 2.266 . S
O45 C42 1.252 . S
O46 In39 2.326 . S
O46 C42 1.260 . S
O47 In39 2.266 . S
O47 C44 1.252 . S
O48 In39 2.326 . S
O48 C44 1.260 . S
C49 O40 1.240 . S
C49 O41 1.252 . S
O50 In39 2.294 . S
O50 C43 1.240 . S
O51 In39 2.326 . S
O51 C43 1.252 . S
In52 O53 2.294 . S
In52 O54 2.326 . S
In52 O58 2.266 . S
In52 O59 2.326 . S
In52 O60 2.266 . S
In52 O61 2.326 . S
In52 O63 2.294 . S
In52 O64 2.326 . S
O53 In52 2.294 . S
O53 C62 1.240 . S
O54 In52 2.326 . S
O54 C62 1.252 . S
C55 O58 1.252 . S
C55 O59 1.260 . S
C56 O63 1.240 . S
C56 O64 1.252 . S
C57 O60 1.252 . S
C57 O61 1.260 . S
O58 In52 2.266 . S
O58 C55 1.252 . S
O59 In52 2.326 . S
O59 C55 1.260 . S
O60 In52 2.266 . S
O60 C57 1.252 . S
O61 In52 2.326 . S
O61 C57 1.260 . S
C62 O53 1.240 . S
C62 O54 1.252 . S
O63 In52 2.294 . S
O63 C56 1.240 . S
O64 In52 2.326 . S
O64 C56 1.252 . S
In65 O66 2.294 . S
In65 O67 2.326 . S
In65 O71 2.266 . S
In65 O72 2.326 . S
In65 O73 2.266 . S
In65 O74 2.326 . S
In65 O76 2.294 . S
In65 O77 2.326 . S
O66 In65 2.294 . S
O66 C75 1.240 . S
O67 In65 2.326 . S
O67 C75 1.252 . S
C68 O71 1.252 . S
C68 O72 1.260 . S
C69 O76 1.240 . S
C69 O77 1.252 . S
C70 O73 1.252 . S
C70 O74 1.260 . S
O71 In65 2.266 . S
O71 C68 1.252 . S
O72 In65 2.326 . S
O72 C68 1.260 . S
O73 In65 2.266 . S
O73 C70 1.252 . S
O74 In65 2.326 . S
O74 C70 1.260 . S
C75 O66 1.240 . S
C75 O67 1.252 . S
O76 In65 2.294 . S
O76 C69 1.240 . S
O77 In65 2.326 . S
O77 C69 1.252 . S
In78 O79 2.294 . S
In78 O80 2.326 . S
In78 O84 2.266 . S
In78 O85 2.326 . S
In78 O86 2.266 . S
In78 O87 2.326 . S
In78 O89 2.294 . S
In78 O90 2.326 . S
O79 In78 2.294 . S
O79 C88 1.240 . S
O80 In78 2.326 . S
O80 C88 1.252 . S
C81 O84 1.252 . S
C81 O85 1.260 . S
C82 O89 1.240 . S
C82 O90 1.252 . S
C83 O86 1.252 . S
C83 O87 1.260 . S
O84 In78 2.266 . S
O84 C81 1.252 . S
O85 In78 2.326 . S
O85 C81 1.260 . S
O86 In78 2.266 . S
O86 C83 1.252 . S
O87 In78 2.326 . S
O87 C83 1.260 . S
C88 O79 1.240 . S
C88 O80 1.252 . S
O89 In78 2.294 . S
O89 C82 1.240 . S
O90 In78 2.326 . S
O90 C82 1.252 . S
In91 O92 2.294 . S
In91 O93 2.326 . S
In91 O97 2.266 . S
In91 O98 2.326 . S
In91 O99 2.266 1_455 S
In91 O100 2.326 1_455 S
In91 O102 2.294 . S
In91 O103 2.326 . S
O92 In91 2.294 . S
O92 C101 1.240 . S
O93 In91 2.326 . S
O93 C101 1.252 . S
C94 O97 1.252 . S
C94 O98 1.260 . S
C95 O102 1.240 . S
C95 O103 1.252 . S
C96 O99 1.252 . S
C96 O100 1.260 . S
O97 In91 2.266 . S
O97 C94 1.252 . S
O98 In91 2.326 . S
O98 C94 1.260 . S
O99 In91 2.266 1_655 S
O99 C96 1.252 . S
O100 In91 2.326 1_655 S
O100 C96 1.260 . S
C101 O92 1.240 . S
C101 O93 1.252 . S
O102 In91 2.294 . S
O102 C95 1.240 . S
O103 In91 2.326 . S
O103 C95 1.252 . S
In104 O105 2.294 . S
In104 O106 2.326 . S
In104 O110 2.266 . S
In104 O111 2.326 . S
In104 O112 2.266 . S
In104 O113 2.326 1_545 S
In104 O115 2.294 . S
In104 O116 2.326 . S
O105 In104 2.294 . S
O105 C114 1.240 . S
O106 In104 2.326 . S
O106 C114 1.252 . S
C107 O110 1.252 . S
C107 O111 1.260 . S
C108 O115 1.240 . S
C108 O116 1.252 . S
C109 O112 1.252 1_565 S
C109 O113 1.260 . S
O110 In104 2.266 . S
O110 C107 1.252 . S
O111 In104 2.326 . S
O111 C107 1.260 . S
O112 In104 2.266 . S
O112 C109 1.252 1_545 S
O113 In104 2.326 1_565 S
O113 C109 1.260 . S
C114 O105 1.240 . S
C114 O106 1.252 . S
O115 In104 2.294 . S
O115 C108 1.240 . S
O116 In104 2.326 . S
O116 C108 1.252 . S
In117 O118 2.294 . S
In117 O119 2.326 . S
In117 O123 2.266 . S
In117 O124 2.326 . S
In117 O125 2.266 . S
In117 O126 2.326 . S
In117 O128 2.294 . S
In117 O129 2.326 . S
O118 In117 2.294 . S
O118 C127 1.240 . S
O119 In117 2.326 . S
O119 C127 1.252 . S
C120 O123 1.252 . S
C120 O124 1.260 . S
C121 O128 1.240 . S
C121 O129 1.252 . S
C122 O125 1.252 . S
C122 O126 1.260 . S
O123 In117 2.266 . S
O123 C120 1.252 . S
O124 In117 2.326 . S
O124 C120 1.260 . S
O125 In117 2.266 . S
O125 C122 1.252 . S
O126 In117 2.326 . S
O126 C122 1.260 . S
C127 O118 1.240 . S
C127 O119 1.252 . S
O128 In117 2.294 . S
O128 C121 1.240 . S
O129 In117 2.326 . S
O129 C121 1.252 . S
In130 O131 2.294 1_545 S
In130 O132 2.326 1_545 S
In130 O136 2.266 . S
In130 O137 2.326 . S
In130 O138 2.264 . S
In130 O139 2.322 . S
In130 O141 2.296 1_545 S
In130 O142 2.330 1_545 S
O131 In130 2.294 1_565 S
O131 C140 1.240 . S
O132 In130 2.326 1_565 S
O132 C140 1.252 . S
C133 O136 1.252 . S
C133 O137 1.260 . S
C134 O141 1.240 . S
C134 O142 1.252 . S
C135 O138 1.252 . S
C135 O139 1.260 . S
O136 In130 2.266 . S
O136 C133 1.252 . S
O137 In130 2.326 . S
O137 C133 1.260 . S
O138 In130 2.264 . S
O138 C135 1.252 . S
O139 In130 2.322 . S
O139 C135 1.260 . S
C140 O131 1.240 . S
C140 O132 1.252 . S
O141 In130 2.296 1_565 S
O141 C134 1.240 . S
O142 In130 2.330 1_565 S
O142 C134 1.252 . S
In143 O144 2.294 . S
In143 O145 2.326 . S
In143 O149 2.266 1_554 S
In143 O150 2.326 1_554 S
In143 O151 2.266 . S
In143 O152 2.326 . S
In143 O154 2.294 . S
In143 O155 2.326 . S
O144 In143 2.294 . S
O144 C153 1.240 . S
O145 In143 2.326 . S
O145 C153 1.252 . S
C146 O149 1.252 . S
C146 O150 1.260 . S
C147 O154 1.240 . S
C147 O155 1.252 . S
C148 O151 1.252 . S
C148 O152 1.260 . S
O149 In143 2.266 1_556 S
O149 C146 1.252 . S
O150 In143 2.326 1_556 S
O150 C146 1.260 . S
O151 In143 2.266 . S
O151 C148 1.252 . S
O152 In143 2.326 . S
O152 C148 1.260 . S
C153 O144 1.240 . S
C153 O145 1.252 . S
O154 In143 2.294 . S
O154 C147 1.240 . S
O155 In143 2.326 . S
O155 C147 1.252 . S
In156 O157 2.294 . S
In156 O158 2.326 . S
In156 O162 2.266 . S
In156 O163 2.326 . S
In156 O164 2.266 . S
In156 O165 2.326 . S
In156 O167 2.294 . S
In156 O168 2.326 . S
O157 In156 2.294 . S
O157 C166 1.240 . S
O158 In156 2.326 . S
O158 C166 1.252 . S
C159 O162 1.252 . S
C159 O163 1.260 . S
C160 O167 1.240 . S
C160 O168 1.252 . S
C161 O164 1.252 . S
C161 O165 1.260 . S
O162 In156 2.266 . S
O162 C159 1.252 . S
O163 In156 2.326 . S
O163 C159 1.260 . S
O164 In156 2.266 . S
O164 C161 1.252 . S
O165 In156 2.326 . S
O165 C161 1.260 . S
C166 O157 1.240 . S
C166 O158 1.252 . S
O167 In156 2.294 . S
O167 C160 1.240 . S
O168 In156 2.326 . S
O168 C160 1.252 . S
In169 O170 2.294 . S
In169 O171 2.326 . S
In169 O175 2.266 . S
In169 O176 2.326 . S
In169 O177 2.266 . S
In169 O178 2.326 1_554 S
In169 O180 2.294 . S
In169 O181 2.326 . S
O170 In169 2.294 . S
O170 C179 1.240 . S
O171 In169 2.326 . S
O171 C179 1.252 . S
C172 O175 1.252 . S
C172 O176 1.260 . S
C173 O180 1.240 . S
C173 O181 1.252 . S
C174 O177 1.252 1_556 S
C174 O178 1.260 . S
O175 In169 2.266 . S
O175 C172 1.252 . S
O176 In169 2.326 . S
O176 C172 1.260 . S
O177 In169 2.266 . S
O177 C174 1.252 1_554 S
O178 In169 2.326 1_556 S
O178 C174 1.260 . S
C179 O170 1.240 . S
C179 O171 1.252 . S
O180 In169 2.294 . S
O180 C173 1.240 . S
O181 In169 2.326 . S
O181 C173 1.252 . S
In182 O183 2.294 . S
In182 O184 2.326 . S
In182 O188 2.266 . S
In182 O189 2.326 . S
In182 O190 2.266 . S
In182 O191 2.326 . S
In182 O193 2.294 . S
In182 O194 2.326 . S
O183 In182 2.294 . S
O183 C192 1.240 . S
O184 In182 2.326 . S
O184 C192 1.252 . S
C185 O188 1.252 . S
C185 O189 1.260 . S
C186 O193 1.240 . S
C186 O194 1.252 . S
C187 O190 1.252 . S
C187 O191 1.260 . S
O188 In182 2.266 . S
O188 C185 1.252 . S
O189 In182 2.326 . S
O189 C185 1.260 . S
O190 In182 2.266 . S
O190 C187 1.252 . S
O191 In182 2.326 . S
O191 C187 1.260 . S
C192 O183 1.240 . S
C192 O184 1.252 . S
O193 In182 2.294 . S
O193 C186 1.240 . S
O194 In182 2.326 . S
O194 C186 1.252 . S
In195 O196 2.294 . S
In195 O197 2.326 . S
In195 O201 2.266 . S
In195 O202 2.326 . S
In195 O203 2.266 . S
In195 O204 2.326 . S
In195 O206 2.294 . S
In195 O207 2.326 . S
O196 In195 2.294 . S
O196 C205 1.240 . S
O197 In195 2.326 . S
O197 C205 1.252 . S
C198 O201 1.252 . S
C198 O202 1.260 . S
C199 O206 1.240 . S
C199 O207 1.252 . S
C200 O203 1.252 . S
C200 O204 1.260 . S
O201 In195 2.266 . S
O201 C198 1.252 . S
O202 In195 2.326 . S
O202 C198 1.260 . S
O203 In195 2.266 . S
O203 C200 1.252 . S
O204 In195 2.326 . S
O204 C200 1.260 . S
C205 O196 1.240 . S
C205 O197 1.252 . S
O206 In195 2.294 . S
O206 C199 1.240 . S
O207 In195 2.326 . S
O207 C199 1.252 . S
In208 O209 2.294 . S
In208 O210 2.326 . S
In208 O214 2.266 . S
In208 O215 2.326 . S
In208 O216 2.266 . S
In208 O217 2.326 . S
In208 O219 2.294 . S
In208 O220 2.326 . S
O209 In208 2.294 . S
O209 C218 1.240 . S
O210 In208 2.326 . S
O210 C218 1.252 . S
C211 O214 1.252 . S
C211 O215 1.260 . S
C212 O219 1.240 . S
C212 O220 1.252 . S
C213 O216 1.252 . S
C213 O217 1.260 . S
O214 In208 2.266 . S
O214 C211 1.252 . S
O215 In208 2.326 . S
O215 C211 1.260 . S
O216 In208 2.266 . S
O216 C213 1.252 . S
O217 In208 2.326 . S
O217 C213 1.260 . S
C218 O209 1.240 . S
C218 O210 1.252 . S
O219 In208 2.294 . S
O219 C212 1.240 . S
O220 In208 2.326 . S
O220 C212 1.252 . S
In221 O222 2.294 . S
In221 O223 2.326 . S
In221 O227 2.266 . S
In221 O228 2.326 . S
In221 O229 2.266 . S
In221 O230 2.326 . S
In221 O232 2.294 . S
In221 O233 2.326 . S
O222 In221 2.294 . S
O222 C231 1.240 . S
O223 In221 2.326 . S
O223 C231 1.252 . S
C224 O227 1.252 . S
C224 O228 1.260 . S
C225 O232 1.240 . S
C225 O233 1.252 . S
C226 O229 1.252 . S
C226 O230 1.260 . S
O227 In221 2.266 . S
O227 C224 1.252 . S
O228 In221 2.326 . S
O228 C224 1.260 . S
O229 In221 2.266 . S
O229 C226 1.252 . S
O230 In221 2.326 . S
O230 C226 1.260 . S
C231 O222 1.240 . S
C231 O223 1.252 . S
O232 In221 2.294 . S
O232 C225 1.240 . S
O233 In221 2.326 . S
O233 C225 1.252 . S
In234 O235 2.294 . S
In234 O236 2.326 . S
In234 O240 2.266 . S
In234 O241 2.326 . S
In234 O242 2.266 . S
In234 O243 2.326 . S
In234 O245 2.294 . S
In234 O246 2.326 . S
O235 In234 2.294 . S
O235 C244 1.240 . S
O236 In234 2.326 . S
O236 C244 1.252 . S
C237 O240 1.252 . S
C237 O241 1.260 . S
C238 O245 1.240 . S
C238 O246 1.252 . S
C239 O242 1.252 . S
C239 O243 1.260 . S
O240 In234 2.266 . S
O240 C237 1.252 . S
O241 In234 2.326 . S
O241 C237 1.260 . S
O242 In234 2.266 . S
O242 C239 1.252 . S
O243 In234 2.326 . S
O243 C239 1.260 . S
C244 O235 1.240 . S
C244 O236 1.252 . S
O245 In234 2.294 . S
O245 C238 1.240 . S
O246 In234 2.326 . S
O246 C238 1.252 . S
In247 O248 2.294 . S
In247 O249 2.326 . S
In247 O253 2.266 . S
In247 O254 2.326 . S
In247 O255 2.266 . S
In247 O256 2.326 . S
In247 O258 2.294 . S
In247 O259 2.326 . S
O248 In247 2.294 . S
O248 C257 1.240 . S
O249 In247 2.326 . S
O249 C257 1.252 . S
C250 O253 1.252 . S
C250 O254 1.260 . S
C251 O258 1.240 . S
C251 O259 1.252 . S
C252 O255 1.252 . S
C252 O256 1.260 . S
O253 In247 2.266 . S
O253 C250 1.252 . S
O254 In247 2.326 . S
O254 C250 1.260 . S
O255 In247 2.266 . S
O255 C252 1.252 . S
O256 In247 2.326 . S
O256 C252 1.260 . S
C257 O248 1.240 . S
C257 O249 1.252 . S
O258 In247 2.294 . S
O258 C251 1.240 . S
O259 In247 2.326 . S
O259 C251 1.252 . S
In260 O261 2.294 . S
In260 O262 2.326 . S
In260 O266 2.266 1_554 S
In260 O267 2.325 1_554 S
In260 O268 2.264 1_554 S
In260 O269 2.322 1_554 S
In260 O271 2.296 . S
In260 O272 2.330 . S
O261 In260 2.294 . S
O261 C270 1.240 . S
O262 In260 2.326 . S
O262 C270 1.252 . S
C263 O266 1.252 . S
C263 O267 1.260 . S
C264 O271 1.240 . S
C264 O272 1.252 . S
C265 O268 1.252 . S
C265 O269 1.260 . S
O266 In260 2.266 1_556 S
O266 C263 1.252 . S
O267 In260 2.325 1_556 S
O267 C263 1.260 . S
O268 In260 2.264 1_556 S
O268 C265 1.252 . S
O269 In260 2.322 1_556 S
O269 C265 1.260 . S
C270 O261 1.240 . S
C270 O262 1.252 . S
O271 In260 2.296 . S
O271 C264 1.240 . S
O272 In260 2.330 . S
O272 C264 1.252 . S
In273 O274 2.294 . S
In273 O275 2.326 . S
In273 O279 2.266 . S
In273 O280 2.326 . S
In273 O281 2.266 . S
In273 O282 2.326 . S
In273 O284 2.294 . S
In273 O285 2.326 . S
O274 In273 2.294 . S
O274 C283 1.240 . S
O275 In273 2.326 . S
O275 C283 1.252 . S
C276 O279 1.252 . S
C276 O280 1.260 . S
C277 O284 1.240 . S
C277 O285 1.252 . S
C278 O281 1.252 . S
C278 O282 1.260 . S
O279 In273 2.266 . S
O279 C276 1.252 . S
O280 In273 2.326 . S
O280 C276 1.260 . S
O281 In273 2.266 . S
O281 C278 1.252 . S
O282 In273 2.326 . S
O282 C278 1.260 . S
C283 O274 1.240 . S
C283 O275 1.252 . S
O284 In273 2.294 . S
O284 C277 1.240 . S
O285 In273 2.326 . S
O285 C277 1.252 . S
In286 O287 2.294 . S
In286 O288 2.326 . S
In286 O292 2.266 . S
In286 O293 2.326 . S
In286 O294 2.266 . S
In286 O295 2.326 . S
In286 O297 2.294 . S
In286 O298 2.326 . S
O287 In286 2.294 . S
O287 C296 1.240 . S
O288 In286 2.326 . S
O288 C296 1.252 . S
C289 O292 1.252 . S
C289 O293 1.260 . S
C290 O297 1.240 . S
C290 O298 1.252 . S
C291 O294 1.252 . S
C291 O295 1.260 . S
O292 In286 2.266 . S
O292 C289 1.252 . S
O293 In286 2.326 . S
O293 C289 1.260 . S
O294 In286 2.266 . S
O294 C291 1.252 . S
O295 In286 2.326 . S
O295 C291 1.260 . S
C296 O287 1.240 . S
C296 O288 1.252 . S
O297 In286 2.294 . S
O297 C290 1.240 . S
O298 In286 2.326 . S
O298 C290 1.252 . S
In299 O300 2.294 . S
In299 O301 2.326 . S
In299 O305 2.266 . S
In299 O306 2.326 . S
In299 O307 2.266 . S
In299 O308 2.326 . S
In299 O310 2.294 . S
In299 O311 2.326 . S
O300 In299 2.294 . S
O300 C309 1.240 . S
O301 In299 2.326 . S
O301 C309 1.252 . S
C302 O305 1.252 . S
C302 O306 1.260 . S
C303 O310 1.240 . S
C303 O311 1.252 . S
C304 O307 1.252 . S
C304 O308 1.260 . S
O305 In299 2.266 . S
O305 C302 1.252 . S
O306 In299 2.326 . S
O306 C302 1.260 . S
O307 In299 2.266 . S
O307 C304 1.252 . S
O308 In299 2.326 . S
O308 C304 1.260 . S
C309 O300 1.240 . S
C309 O301 1.252 . S
O310 In299 2.294 . S
O310 C303 1.240 . S
O311 In299 2.326 . S
O311 C303 1.252 . S
Gd312 N343 2.661 . S
Gd312 N349 2.601 . S
Gd312 O356 2.545 . S
Gd312 O357 2.606 . S
Gd312 O359 2.429 . S
Gd312 O360 2.545 . S
Gd312 O361 2.412 . S
Gd312 O363 2.362 . S
Gd312 O364 2.324 . S
Gd312 C371 2.828 . S
Gd313 N322 2.661 . S
Gd313 N326 2.601 1_554 S
Gd313 O357 2.362 . S
Gd313 O358 2.324 . S
Gd313 O362 2.545 1_554 S
Gd313 O363 2.606 . S
Gd313 O365 2.429 1_554 S
Gd313 O366 2.545 . S
Gd313 O367 2.412 . S
Gd313 C380 2.828 1_455 S
C314 C317 1.417 . S
C314 C319 1.431 1_455 S
C314 C320 1.412 . S
C315 C318 1.437 1_655 S
C315 C319 1.317 1_556 S
C315 H334 0.929 . S
C316 C317 1.426 . S
C316 C318 1.413 1_554 S
C316 N326 1.359 1_564 S
C317 C314 1.417 . S
C317 C316 1.426 . S
C317 N322 1.350 1_565 S
C318 C315 1.437 1_455 S
C318 C316 1.413 1_556 S
C318 C328 1.391 . S
C319 C314 1.431 1_655 S
C319 C315 1.317 1_554 S
C319 H330 0.930 . S
C320 C314 1.412 . S
C320 C321 1.355 . S
C320 H332 0.921 1_455 S
C321 C320 1.355 . S
C321 C323 1.402 1_565 S
C321 H333 0.930 . S
N322 Gd313 2.661 . S
N322 C317 1.350 1_545 S
N322 C323 1.307 . S
C323 C321 1.402 1_545 S
C323 N322 1.307 . S
C323 H324 0.930 . S
H324 C323 0.930 . S
C325 N326 1.334 . S
C325 C327 1.394 1_545 S
C325 H329 0.930 . S
N326 Gd313 2.601 1_556 S
N326 C316 1.359 1_546 S
N326 C325 1.334 . S
C327 C325 1.394 1_565 S
C327 C328 1.359 . S
C327 H339 0.930 . S
C328 C318 1.391 . S
C328 C327 1.359 . S
C328 H340 0.929 1_455 S
H329 C325 0.930 . S
H330 C319 0.930 . S
H331 C348 0.930 . S
H332 C320 0.921 1_655 S
H333 C321 0.930 . S
H334 C315 0.929 . S
H335 C353 0.930 . S
H336 C344 0.930 . S
H337 C345 0.930 1_556 S
H338 C369 0.929 . S
H339 C327 0.930 . S
H340 C328 0.929 1_655 S
H341 C370 0.930 . S
H342 C351 0.930 . S
N343 Gd312 2.661 . S
N343 C347 1.350 . S
N343 C348 1.307 . S
C344 H336 0.930 . S
C344 C345 1.355 . S
C344 C346 1.412 . S
C345 H337 0.930 1_554 S
C345 C344 1.355 . S
C345 C348 1.402 . S
C346 C344 1.412 . S
C346 C347 1.417 . S
C346 C370 1.431 . S
C347 N343 1.350 . S
C347 C346 1.417 . S
C347 C350 1.426 . S
C348 H331 0.930 . S
C348 N343 1.307 . S
C348 C345 1.402 . S
N349 Gd312 2.601 . S
N349 C350 1.359 . S
N349 C353 1.334 . S
C350 C347 1.426 . S
C350 N349 1.359 . S
C350 C354 1.413 . S
C351 H342 0.930 . S
C351 C352 1.359 . S
C351 C353 1.394 . S
C352 C351 1.359 . S
C352 C354 1.391 . S
C352 H355 0.929 . S
C353 H335 0.930 . S
C353 N349 1.334 . S
C353 C351 1.394 . S
C354 C350 1.413 . S
C354 C352 1.391 . S
C354 C369 1.437 . S
H355 C352 0.929 . S
O356 Gd312 2.545 . S
O356 C371 1.258 . S
O357 Gd312 2.606 . S
O357 Gd313 2.362 . S
O357 C368 1.284 . S
O358 Gd313 2.324 . S
O358 C378 1.254 . S
O359 Gd312 2.429 . S
O359 C378 1.268 . S
O360 Gd312 2.545 . S
O360 C368 1.250 . S
O361 Gd312 2.412 . S
O361 C371 1.252 . S
O362 Gd313 2.545 1_556 S
O362 C380 1.258 1_456 S
O363 Gd312 2.362 . S
O363 Gd313 2.606 . S
O363 C379 1.284 . S
O364 Gd312 2.324 . S
O364 C387 1.254 1_554 S
O365 Gd313 2.429 1_556 S
O365 C387 1.268 . S
O366 Gd313 2.545 . S
O366 C379 1.250 . S
O367 Gd313 2.412 . S
O367 C380 1.252 1_455 S
C368 O357 1.284 . S
C368 O360 1.250 . S
C369 H338 0.929 . S
C369 C354 1.437 . S
C369 C370 1.317 . S
C370 H341 0.930 . S
C370 C346 1.431 . S
C370 C369 1.317 . S
C371 Gd312 2.828 . S
C371 O356 1.258 . S
C371 O361 1.252 . S
C371 C372 1.497 . S
C372 C371 1.497 . S
C372 C373 1.395 . S
C372 C374 1.380 . S
C373 C372 1.395 . S
C373 C376 1.398 . S
C373 H388 0.930 . S
C374 C372 1.380 . S
C374 C375 1.391 . S
C374 H389 0.930 . S
C375 C374 1.391 . S
C375 C377 1.387 . S
C376 C373 1.398 . S
C376 C377 1.380 . S
C376 H390 0.930 . S
C377 C375 1.387 . S
C377 C376 1.380 . S
C377 H391 0.930 . S
C378 O358 1.254 . S
C378 O359 1.268 . S
C379 O363 1.284 . S
C379 O366 1.250 . S
C380 Gd313 2.828 1_655 S
C380 O362 1.258 1_654 S
C380 O367 1.252 1_655 S
C380 C381 1.497 . S
C381 C380 1.497 . S
C381 C382 1.395 1_554 S
C381 C383 1.380 . S
C382 C381 1.395 1_556 S
C382 C385 1.398 . S
C382 H392 0.930 . S
C383 C381 1.380 . S
C383 C384 1.391 . S
C383 H393 0.930 . S
C384 C383 1.391 . S
C384 C386 1.352 1_554 S
C385 C382 1.398 . S
C385 C386 1.409 . S
C385 H394 0.930 . S
C386 C384 1.352 1_556 S
C386 C385 1.409 . S
C386 H395 0.939 . S
C387 O364 1.254 1_556 S
C387 O365 1.268 . S
H388 C373 0.930 . S
H389 C374 0.930 . S
H390 C376 0.930 . S
H391 C377 0.930 . S
H392 C382 0.930 . S
H393 C383 0.930 . S
H394 C385 0.930 . S
H395 C386 0.939 . S
Gd396 N427 2.661 . S
Gd396 N433 2.601 . S
Gd396 O440 2.545 . S
Gd396 O441 2.606 . S
Gd396 O443 2.429 . S
Gd396 O444 2.545 . S
Gd396 O445 2.412 . S
Gd396 O447 2.362 . S
Gd396 O448 2.324 . S
Gd396 C455 2.828 . S
Gd397 N406 2.661 . S
Gd397 N410 2.601 . S
Gd397 O441 2.362 . S
Gd397 O442 2.324 . S
Gd397 O446 2.545 . S
Gd397 O447 2.606 . S
Gd397 O449 2.429 . S
Gd397 O450 2.545 . S
Gd397 O451 2.412 . S
Gd397 C464 2.828 . S
C398 C401 1.417 . S
C398 C403 1.431 . S
C398 C404 1.412 . S
C399 C402 1.437 . S
C399 C403 1.317 . S
C399 H418 0.929 . S
C400 C401 1.426 . S
C400 C402 1.413 . S
C400 N410 1.359 . S
C401 C398 1.417 . S
C401 C400 1.426 . S
C401 N406 1.350 . S
C402 C399 1.437 . S
C402 C400 1.413 . S
C402 C412 1.391 . S
C403 C398 1.431 . S
C403 C399 1.317 . S
C403 H414 0.930 . S
C404 C398 1.412 . S
C404 C405 1.355 . S
C404 H416 0.930 . S
C405 C404 1.355 . S
C405 C407 1.402 . S
C405 H417 0.930 . S
N406 Gd397 2.661 . S
N406 C401 1.350 . S
N406 C407 1.307 . S
C407 C405 1.402 . S
C407 N406 1.307 . S
C407 H408 0.930 . S
H408 C407 0.930 . S
C409 N410 1.334 . S
C409 C411 1.394 . S
C409 H413 0.930 . S
N410 Gd397 2.601 . S
N410 C400 1.359 . S
N410 C409 1.334 . S
C411 C409 1.394 . S
C411 C412 1.359 . S
C411 H423 0.930 . S
C412 C402 1.391 . S
C412 C411 1.359 . S
C412 H424 0.929 . S
H413 C409 0.930 . S
H414 C403 0.930 . S
H415 C432 0.930 . S
H416 C404 0.930 . S
H417 C405 0.930 . S
H418 C399 0.929 . S
H419 C437 0.930 . S
H420 C428 0.930 . S
H421 C429 0.930 . S
H422 C453 0.929 . S
H423 C411 0.930 . S
H424 C412 0.929 . S
H425 C454 0.930 . S
H426 C435 0.930 . S
N427 Gd396 2.661 . S
N427 C431 1.350 . S
N427 C432 1.307 . S
C428 H420 0.930 . S
C428 C429 1.355 . S
C428 C430 1.412 . S
C429 H421 0.930 . S
C429 C428 1.355 . S
C429 C432 1.402 . S
C430 C428 1.412 . S
C430 C431 1.417 . S
C430 C454 1.431 . S
C431 N427 1.350 . S
C431 C430 1.417 . S
C431 C434 1.426 . S
C432 H415 0.930 . S
C432 N427 1.307 . S
C432 C429 1.402 . S
N433 Gd396 2.601 . S
N433 C434 1.359 . S
N433 C437 1.334 . S
C434 C431 1.426 . S
C434 N433 1.359 . S
C434 C438 1.413 . S
C435 H426 0.930 . S
C435 C436 1.359 . S
C435 C437 1.394 . S
C436 C435 1.359 . S
C436 C438 1.391 . S
C436 H439 0.929 . S
C437 H419 0.930 . S
C437 N433 1.334 . S
C437 C435 1.394 . S
C438 C434 1.413 . S
C438 C436 1.391 . S
C438 C453 1.437 . S
H439 C436 0.929 . S
O440 Gd396 2.545 . S
O440 C455 1.258 . S
O441 Gd396 2.606 . S
O441 Gd397 2.362 . S
O441 C452 1.284 . S
O442 Gd397 2.324 . S
O442 C462 1.254 . S
O443 Gd396 2.429 . S
O443 C462 1.268 . S
O444 Gd396 2.545 . S
O444 C452 1.250 . S
O445 Gd396 2.412 . S
O445 C455 1.252 . S
O446 Gd397 2.545 . S
O446 C464 1.258 . S
O447 Gd396 2.362 . S
O447 Gd397 2.606 . S
O447 C463 1.284 . S
O448 Gd396 2.324 . S
O448 C471 1.254 . S
O449 Gd397 2.429 . S
O449 C471 1.268 . S
O450 Gd397 2.545 . S
O450 C463 1.250 . S
O451 Gd397 2.412 . S
O451 C464 1.252 . S
C452 O441 1.284 . S
C452 O444 1.250 . S
C453 H422 0.929 . S
C453 C438 1.437 . S
C453 C454 1.317 . S
C454 H425 0.930 . S
C454 C430 1.431 . S
C454 C453 1.317 . S
C455 Gd396 2.828 . S
C455 O440 1.258 . S
C455 O445 1.252 . S
C455 C456 1.497 . S
C456 C455 1.497 . S
C456 C457 1.395 . S
C456 C458 1.380 . S
C457 C456 1.395 . S
C457 C460 1.398 . S
C457 H472 0.930 . S
C458 C456 1.380 . S
C458 C459 1.391 . S
C458 H473 0.930 . S
C459 C458 1.391 . S
C459 C461 1.387 . S
C460 C457 1.398 . S
C460 C461 1.380 . S
C460 H474 0.930 . S
C461 C459 1.387 . S
C461 C460 1.380 . S
C461 H475 0.930 . S
C462 O442 1.254 . S
C462 O443 1.268 . S
C463 O447 1.284 . S
C463 O450 1.250 . S
C464 Gd397 2.828 . S
C464 O446 1.258 . S
C464 O451 1.252 . S
C464 C465 1.497 . S
C465 C464 1.497 . S
C465 C466 1.395 . S
C465 C467 1.380 . S
C466 C465 1.395 . S
C466 C469 1.398 . S
C466 H476 0.930 . S
C467 C465 1.380 . S
C467 C468 1.391 . S
C467 H477 0.930 . S
C468 C467 1.391 . S
C468 C470 1.387 . S
C469 C466 1.398 . S
C469 C470 1.380 . S
C469 H478 0.930 . S
C470 C468 1.387 . S
C470 C469 1.380 . S
C470 H479 0.930 . S
C471 O448 1.254 . S
C471 O449 1.268 . S
H472 C457 0.930 . S
H473 C458 0.930 . S
H474 C460 0.930 . S
H475 C461 0.930 . S
H476 C466 0.930 . S
H477 C467 0.930 . S
H478 C469 0.930 . S
H479 C470 0.930 . S
Gd480 N511 2.661 1_545 S
Gd480 N517 2.610 . S
Gd480 O524 2.545 . S
Gd480 O525 2.606 . S
Gd480 O527 2.429 . S
Gd480 O528 2.545 . S
Gd480 O529 2.412 . S
Gd480 O531 2.362 . S
Gd480 O532 2.324 . S
Gd480 C539 2.828 . S
Gd481 N490 2.661 . S
Gd481 N494 2.601 . S
Gd481 O525 2.362 . S
Gd481 O526 2.324 . S
Gd481 O530 2.545 . S
Gd481 O531 2.606 . S
Gd481 O533 2.429 . S
Gd481 O534 2.545 1_545 S
Gd481 O535 2.412 . S
Gd481 C548 2.828 . S
C482 C485 1.417 . S
C482 C487 1.431 . S
C482 C488 1.412 . S
C483 C486 1.437 . S
C483 C487 1.317 . S
C483 H502 0.929 . S
C484 C485 1.426 . S
C484 C486 1.413 . S
C484 N494 1.359 . S
C485 C482 1.417 . S
C485 C484 1.426 . S
C485 N490 1.350 . S
C486 C483 1.437 . S
C486 C484 1.413 . S
C486 C496 1.391 . S
C487 C482 1.431 . S
C487 C483 1.317 . S
C487 H498 0.930 . S
C488 C482 1.412 . S
C488 C489 1.355 . S
C488 H500 0.930 . S
C489 C488 1.355 . S
C489 C491 1.402 . S
C489 H501 0.930 . S
N490 Gd481 2.661 . S
N490 C485 1.350 . S
N490 C491 1.307 . S
C491 C489 1.402 . S
C491 N490 1.307 . S
C491 H492 0.930 . S
H492 C491 0.930 . S
C493 N494 1.334 . S
C493 C495 1.394 . S
C493 H497 0.930 . S
N494 Gd481 2.601 . S
N494 C484 1.359 . S
N494 C493 1.334 . S
C495 C493 1.394 . S
C495 C496 1.359 . S
C495 H507 0.930 . S
C496 C486 1.391 . S
C496 C495 1.359 . S
C496 H508 0.929 . S
H497 C493 0.930 . S
H498 C487 0.930 . S
H499 C516 0.930 . S
H500 C488 0.930 . S
H501 C489 0.930 . S
H502 C483 0.929 . S
H503 C521 0.930 . S
H504 C512 0.930 . S
H505 C513 0.930 . S
H506 C537 0.929 . S
H507 C495 0.930 . S
H508 C496 0.929 . S
H509 C538 0.930 . S
H510 C519 0.927 1_545 S
N511 Gd480 2.661 1_565 S
N511 C515 1.350 . S
N511 C516 1.307 . S
C512 H504 0.930 . S
C512 C513 1.355 . S
C512 C514 1.412 . S
C513 H505 0.930 . S
C513 C512 1.355 . S
C513 C516 1.402 . S
C514 C512 1.412 . S
C514 C515 1.417 . S
C514 C538 1.431 . S
C515 N511 1.350 . S
C515 C514 1.417 . S
C515 C518 1.426 . S
C516 H499 0.930 . S
C516 N511 1.307 . S
C516 C513 1.402 . S
N517 Gd480 2.610 . S
N517 C518 1.351 1_545 S
N517 C521 1.335 . S
C518 C515 1.426 . S
C518 N517 1.351 1_565 S
C518 C522 1.413 . S
C519 H510 0.927 1_565 S
C519 C520 1.359 . S
C519 C521 1.394 1_565 S
C520 C519 1.359 . S
C520 C522 1.391 . S
C520 H523 0.929 . S
C521 H503 0.930 . S
C521 N517 1.335 . S
C521 C519 1.394 1_545 S
C522 C518 1.413 . S
C522 C520 1.391 . S
C522 C537 1.437 . S
H523 C520 0.929 . S
O524 Gd480 2.545 . S
O524 C539 1.258 . S
O525 Gd480 2.606 . S
O525 Gd481 2.362 . S
O525 C536 1.284 . S
O526 Gd481 2.324 . S
O526 C546 1.254 . S
O527 Gd480 2.429 . S
O527 C546 1.268 . S
O528 Gd480 2.545 . S
O528 C536 1.250 . S
O529 Gd480 2.412 . S
O529 C539 1.252 . S
O530 Gd481 2.545 . S
O530 C548 1.258 . S
O531 Gd480 2.362 . S
O531 Gd481 2.606 . S
O531 C547 1.284 1_545 S
O532 Gd480 2.324 . S
O532 C555 1.254 . S
O533 Gd481 2.429 . S
O533 C555 1.268 . S
O534 Gd481 2.545 1_565 S
O534 C547 1.250 . S
O535 Gd481 2.412 . S
O535 C548 1.252 . S
C536 O525 1.284 . S
C536 O528 1.250 . S
C537 H506 0.929 . S
C537 C522 1.437 . S
C537 C538 1.317 . S
C538 H509 0.930 . S
C538 C514 1.431 . S
C538 C537 1.317 . S
C539 Gd480 2.828 . S
C539 O524 1.258 . S
C539 O529 1.252 . S
C539 C540 1.497 . S
C540 C539 1.497 . S
C540 C541 1.395 . S
C540 C542 1.380 . S
C541 C540 1.395 . S
C541 C544 1.398 . S
C541 H556 0.930 . S
C542 C540 1.380 . S
C542 C543 1.391 . S
C542 H557 0.930 . S
C543 C542 1.391 . S
C543 C545 1.387 . S
C544 C541 1.398 . S
C544 C545 1.380 . S
C544 H558 0.930 . S
C545 C543 1.387 . S
C545 C544 1.380 . S
C545 H559 0.930 . S
C546 O526 1.254 . S
C546 O527 1.268 . S
C547 O531 1.284 1_565 S
C547 O534 1.250 . S
C548 Gd481 2.828 . S
C548 O530 1.258 . S
C548 O535 1.252 . S
C548 C549 1.497 . S
C549 C548 1.497 . S
C549 C550 1.395 . S
C549 C551 1.380 1_545 S
C550 C549 1.395 . S
C550 C553 1.398 1_545 S
C550 H560 0.930 . S
C551 C549 1.380 1_565 S
C551 C552 1.391 . S
C551 H561 0.930 . S
C552 C551 1.391 . S
C552 C554 1.387 . S
C553 C550 1.398 1_565 S
C553 C554 1.380 . S
C553 H562 0.930 . S
C554 C552 1.387 . S
C554 C553 1.380 . S
C554 H563 0.930 . S
C555 O532 1.254 . S
C555 O533 1.268 . S
H556 C541 0.930 . S
H557 C542 0.930 . S
H558 C544 0.930 . S
H559 C545 0.930 . S
H560 C550 0.930 . S
H561 C551 0.930 . S
H562 C553 0.930 . S
H563 C554 0.930 . S
Gd564 N595 2.661 . S
Gd564 N601 2.601 . S
Gd564 O608 2.545 . S
Gd564 O609 2.606 . S
Gd564 O611 2.429 . S
Gd564 O612 2.545 . S
Gd564 O613 2.412 . S
Gd564 O615 2.362 . S
Gd564 O616 2.324 . S
Gd564 C623 2.828 . S
Gd565 N574 2.661 . S
Gd565 N578 2.601 . S
Gd565 O609 2.362 . S
Gd565 O610 2.324 . S
Gd565 O614 2.545 . S
Gd565 O615 2.606 . S
Gd565 O617 2.429 . S
Gd565 O618 2.545 . S
Gd565 O619 2.412 . S
Gd565 C632 2.828 . S
C566 C569 1.417 . S
C566 C571 1.431 . S
C566 C572 1.412 . S
C567 C570 1.437 . S
C567 C571 1.317 . S
C567 H586 0.929 . S
C568 C569 1.426 . S
C568 C570 1.413 . S
C568 N578 1.359 . S
C569 C566 1.417 . S
C569 C568 1.426 . S
C569 N574 1.350 . S
C570 C567 1.437 . S
C570 C568 1.413 . S
C570 C580 1.391 . S
C571 C566 1.431 . S
C571 C567 1.317 . S
C571 H582 0.930 . S
C572 C566 1.412 . S
C572 C573 1.355 . S
C572 H584 0.930 . S
C573 C572 1.355 . S
C573 C575 1.402 . S
C573 H585 0.930 . S
N574 Gd565 2.661 . S
N574 C569 1.350 . S
N574 C575 1.307 . S
C575 C573 1.402 . S
C575 N574 1.307 . S
C575 H576 0.930 . S
H576 C575 0.930 . S
C577 N578 1.334 . S
C577 C579 1.394 . S
C577 H581 0.930 . S
N578 Gd565 2.601 . S
N578 C568 1.359 . S
N578 C577 1.334 . S
C579 C577 1.394 . S
C579 C580 1.359 . S
C579 H591 0.930 . S
C580 C570 1.391 . S
C580 C579 1.359 . S
C580 H592 0.929 . S
H581 C577 0.930 . S
H582 C571 0.930 . S
H583 C600 0.930 . S
H584 C572 0.930 . S
H585 C573 0.930 . S
H586 C567 0.929 . S
H587 C605 0.930 . S
H588 C596 0.930 . S
H589 C597 0.930 . S
H590 C621 0.929 . S
H591 C579 0.930 . S
H592 C580 0.929 . S
H593 C622 0.930 . S
H594 C603 0.930 . S
N595 Gd564 2.661 . S
N595 C599 1.350 . S
N595 C600 1.307 . S
C596 H588 0.930 . S
C596 C597 1.355 . S
C596 C598 1.412 . S
C597 H589 0.930 . S
C597 C596 1.355 . S
C597 C600 1.402 . S
C598 C596 1.412 . S
C598 C599 1.417 . S
C598 C622 1.431 . S
C599 N595 1.350 . S
C599 C598 1.417 . S
C599 C602 1.426 . S
C600 H583 0.930 . S
C600 N595 1.307 . S
C600 C597 1.402 . S
N601 Gd564 2.601 . S
N601 C602 1.359 . S
N601 C605 1.334 . S
C602 C599 1.426 . S
C602 N601 1.359 . S
C602 C606 1.413 . S
C603 H594 0.930 . S
C603 C604 1.359 . S
C603 C605 1.394 . S
C604 C603 1.359 . S
C604 C606 1.391 . S
C604 H607 0.929 . S
C605 H587 0.930 . S
C605 N601 1.334 . S
C605 C603 1.394 . S
C606 C602 1.413 . S
C606 C604 1.391 . S
C606 C621 1.437 . S
H607 C604 0.929 . S
O608 Gd564 2.545 . S
O608 C623 1.258 . S
O609 Gd564 2.606 . S
O609 Gd565 2.362 . S
O609 C620 1.284 . S
O610 Gd565 2.324 . S
O610 C630 1.254 . S
O611 Gd564 2.429 . S
O611 C630 1.268 . S
O612 Gd564 2.545 . S
O612 C620 1.250 . S
O613 Gd564 2.412 . S
O613 C623 1.252 . S
O614 Gd565 2.545 . S
O614 C632 1.258 . S
O615 Gd564 2.362 . S
O615 Gd565 2.606 . S
O615 C631 1.284 . S
O616 Gd564 2.324 . S
O616 C639 1.254 . S
O617 Gd565 2.429 . S
O617 C639 1.268 . S
O618 Gd565 2.545 . S
O618 C631 1.250 . S
O619 Gd565 2.412 . S
O619 C632 1.252 . S
C620 O609 1.284 . S
C620 O612 1.250 . S
C621 H590 0.929 . S
C621 C606 1.437 . S
C621 C622 1.317 . S
C622 H593 0.930 . S
C622 C598 1.431 . S
C622 C621 1.317 . S
C623 Gd564 2.828 . S
C623 O608 1.258 . S
C623 O613 1.252 . S
C623 C624 1.497 . S
C624 C623 1.497 . S
C624 C625 1.395 . S
C624 C626 1.380 . S
C625 C624 1.395 . S
C625 C628 1.398 . S
C625 H640 0.930 . S
C626 C624 1.380 . S
C626 C627 1.391 . S
C626 H641 0.930 . S
C627 C626 1.391 . S
C627 C629 1.387 . S
C628 C625 1.398 . S
C628 C629 1.380 . S
C628 H642 0.930 . S
C629 C627 1.387 . S
C629 C628 1.380 . S
C629 H643 0.930 . S
C630 O610 1.254 . S
C630 O611 1.268 . S
C631 O615 1.284 . S
C631 O618 1.250 . S
C632 Gd565 2.828 . S
C632 O614 1.258 . S
C632 O619 1.252 . S
C632 C633 1.497 . S
C633 C632 1.497 . S
C633 C634 1.395 . S
C633 C635 1.380 . S
C634 C633 1.395 . S
C634 C637 1.398 . S
C634 H644 0.930 . S
C635 C633 1.380 . S
C635 C636 1.391 . S
C635 H645 0.930 . S
C636 C635 1.391 . S
C636 C638 1.387 . S
C637 C634 1.398 . S
C637 C638 1.380 . S
C637 H646 0.930 . S
C638 C636 1.387 . S
C638 C637 1.380 . S
C638 H647 0.930 . S
C639 O616 1.254 . S
C639 O617 1.268 . S
H640 C625 0.930 . S
H641 C626 0.930 . S
H642 C628 0.930 . S
H643 C629 0.930 . S
H644 C634 0.930 . S
H645 C635 0.930 . S
H646 C637 0.930 . S
H647 C638 0.930 . S
Gd648 N679 2.660 . S
Gd648 N685 2.601 . S
Gd648 O692 2.544 . S
Gd648 O693 2.606 1_565 S
Gd648 O695 2.429 1_565 S
Gd648 O696 2.545 1_565 S
Gd648 O697 2.412 . S
Gd648 O699 2.362 1_565 S
Gd648 O700 2.327 . S
Gd648 C707 2.828 . S
Gd649 N658 2.661 . S
Gd649 N662 2.601 . S
Gd649 O693 2.362 . S
Gd649 O694 2.324 . S
Gd649 O698 2.545 . S
Gd649 O699 2.606 . S
Gd649 O701 2.429 . S
Gd649 O702 2.545 . S
Gd649 O703 2.412 . S
Gd649 C716 2.828 . S
C650 C653 1.417 . S
C650 C655 1.431 . S
C650 C656 1.412 . S
C651 C654 1.437 . S
C651 C655 1.317 . S
C651 H670 0.929 . S
C652 C653 1.426 . S
C652 C654 1.413 . S
C652 N662 1.359 . S
C653 C650 1.417 . S
C653 C652 1.426 . S
C653 N658 1.350 . S
C654 C651 1.437 . S
C654 C652 1.413 . S
C654 C664 1.391 . S
C655 C650 1.431 . S
C655 C651 1.317 . S
C655 H666 0.930 . S
C656 C650 1.412 . S
C656 C657 1.355 . S
C656 H668 0.930 . S
C657 C656 1.355 . S
C657 C659 1.402 . S
C657 H669 0.930 . S
N658 Gd649 2.661 . S
N658 C653 1.350 . S
N658 C659 1.307 . S
C659 C657 1.402 . S
C659 N658 1.307 . S
C659 H660 0.930 . S
H660 C659 0.930 . S
C661 N662 1.334 . S
C661 C663 1.394 . S
C661 H665 0.930 . S
N662 Gd649 2.601 . S
N662 C652 1.359 . S
N662 C661 1.334 . S
C663 C661 1.394 . S
C663 C664 1.359 . S
C663 H675 0.930 1_455 S
C664 C654 1.391 . S
C664 C663 1.359 . S
C664 H676 0.929 . S
H665 C661 0.930 . S
H666 C655 0.930 . S
H667 C684 0.930 . S
H668 C656 0.930 . S
H669 C657 0.930 . S
H670 C651 0.929 . S
H671 C689 0.930 . S
H672 C680 0.930 . S
H673 C681 0.930 1_655 S
H674 C705 0.929 . S
H675 C663 0.930 1_655 S
H676 C664 0.929 . S
H677 C706 0.930 . S
H678 C687 0.930 . S
N679 Gd648 2.660 . S
N679 C683 1.350 . S
N679 C684 1.307 . S
C680 H672 0.930 . S
C680 C681 1.355 . S
C680 C682 1.412 . S
C681 H673 0.930 1_455 S
C681 C680 1.355 . S
C681 C684 1.402 . S
C682 C680 1.412 . S
C682 C683 1.417 . S
C682 C706 1.431 . S
C683 N679 1.350 . S
C683 C682 1.417 . S
C683 C686 1.426 . S
C684 H667 0.930 . S
C684 N679 1.307 . S
C684 C681 1.402 . S
N685 Gd648 2.601 . S
N685 C686 1.359 . S
N685 C689 1.334 . S
C686 C683 1.426 . S
C686 N685 1.359 . S
C686 C690 1.413 . S
C687 H678 0.930 . S
C687 C688 1.359 . S
C687 C689 1.394 . S
C688 C687 1.359 . S
C688 C690 1.391 . S
C688 H691 0.929 . S
C689 H671 0.930 . S
C689 N685 1.334 . S
C689 C687 1.394 . S
C690 C686 1.413 . S
C690 C688 1.391 . S
C690 C705 1.437 . S
H691 C688 0.929 . S
O692 Gd648 2.544 . S
O692 C707 1.258 . S
O693 Gd648 2.606 1_545 S
O693 Gd649 2.362 . S
O693 C704 1.284 . S
O694 Gd649 2.324 . S
O694 C714 1.254 . S
O695 Gd648 2.429 1_545 S
O695 C714 1.268 . S
O696 Gd648 2.545 1_545 S
O696 C704 1.250 . S
O697 Gd648 2.412 . S
O697 C707 1.252 . S
O698 Gd649 2.545 . S
O698 C716 1.258 . S
O699 Gd648 2.362 1_545 S
O699 Gd649 2.606 . S
O699 C715 1.284 . S
O700 Gd648 2.327 . S
O700 C723 1.242 1_565 S
O701 Gd649 2.429 . S
O701 C723 1.268 . S
O702 Gd649 2.545 . S
O702 C715 1.250 . S
O703 Gd649 2.412 . S
O703 C716 1.252 . S
C704 O693 1.284 . S
C704 O696 1.250 . S
C705 H674 0.929 . S
C705 C690 1.437 . S
C705 C706 1.317 . S
C706 H677 0.930 . S
C706 C682 1.431 . S
C706 C705 1.317 . S
C707 Gd648 2.828 . S
C707 O692 1.258 . S
C707 O697 1.252 . S
C707 C708 1.497 . S
C708 C707 1.497 . S
C708 C709 1.395 . S
C708 C710 1.380 . S
C709 C708 1.395 . S
C709 C712 1.398 . S
C709 H724 0.930 . S
C710 C708 1.380 . S
C710 C711 1.391 . S
C710 H725 0.930 . S
C711 C710 1.391 . S
C711 C713 1.387 . S
C712 C709 1.398 . S
C712 C713 1.380 . S
C712 H726 0.930 . S
C713 C711 1.387 . S
C713 C712 1.380 . S
C713 H727 0.930 . S
C714 O694 1.254 . S
C714 O695 1.268 . S
C715 O699 1.284 . S
C715 O702 1.250 . S
C716 Gd649 2.828 . S
C716 O698 1.258 . S
C716 O703 1.252 . S
C716 C717 1.497 . S
C717 C716 1.497 . S
C717 C718 1.395 . S
C717 C719 1.380 . S
C718 C717 1.395 . S
C718 C721 1.398 . S
C718 H728 0.930 . S
C719 C717 1.380 . S
C719 C720 1.391 . S
C719 H729 0.930 . S
C720 C719 1.391 . S
C720 C722 1.387 . S
C721 C718 1.398 . S
C721 C722 1.380 . S
C721 H730 0.930 . S
C722 C720 1.387 . S
C722 C721 1.380 . S
C722 H731 0.930 . S
C723 O700 1.242 1_545 S
C723 O701 1.268 . S
H724 C709 0.930 . S
H725 C710 0.930 . S
H726 C712 0.930 . S
H727 C713 0.930 . S
H728 C718 0.930 . S
H729 C719 0.930 . S
H730 C721 0.930 . S
H731 C722 0.930 . S
Gd732 N763 2.661 . S
Gd732 N769 2.601 . S
Gd732 O776 2.545 . S
Gd732 O777 2.606 . S
Gd732 O779 2.429 . S
Gd732 O780 2.545 . S
Gd732 O781 2.412 . S
Gd732 O783 2.362 . S
Gd732 O784 2.324 . S
Gd732 C791 2.828 . S
Gd733 N742 2.661 . S
Gd733 N746 2.601 . S
Gd733 O777 2.362 . S
Gd733 O778 2.324 . S
Gd733 O782 2.545 . S
Gd733 O783 2.606 . S
Gd733 O785 2.429 . S
Gd733 O786 2.545 . S
Gd733 O787 2.412 . S
Gd733 C800 2.828 . S
C734 C737 1.417 . S
C734 C739 1.431 . S
C734 C740 1.412 . S
C735 C738 1.437 . S
C735 C739 1.317 . S
C735 H754 0.929 . S
C736 C737 1.426 . S
C736 C738 1.413 . S
C736 N746 1.359 . S
C737 C734 1.417 . S
C737 C736 1.426 . S
C737 N742 1.350 . S
C738 C735 1.437 . S
C738 C736 1.413 . S
C738 C748 1.391 . S
C739 C734 1.431 . S
C739 C735 1.317 . S
C739 H750 0.930 . S
C740 C734 1.412 . S
C740 C741 1.355 . S
C740 H752 0.930 . S
C741 C740 1.355 . S
C741 C743 1.402 . S
C741 H753 0.930 . S
N742 Gd733 2.661 . S
N742 C737 1.350 . S
N742 C743 1.307 . S
C743 C741 1.402 . S
C743 N742 1.307 . S
C743 H744 0.930 . S
H744 C743 0.930 . S
C745 N746 1.334 . S
C745 C747 1.394 . S
C745 H749 0.930 . S
N746 Gd733 2.601 . S
N746 C736 1.359 . S
N746 C745 1.334 . S
C747 C745 1.394 . S
C747 C748 1.359 . S
C747 H759 0.930 . S
C748 C738 1.391 . S
C748 C747 1.359 . S
C748 H760 0.929 . S
H749 C745 0.930 . S
H750 C739 0.930 . S
H751 C768 0.930 . S
H752 C740 0.930 . S
H753 C741 0.930 . S
H754 C735 0.929 . S
H755 C773 0.930 . S
H756 C764 0.930 . S
H757 C765 0.930 . S
H758 C789 0.929 . S
H759 C747 0.930 . S
H760 C748 0.929 . S
H761 C790 0.930 . S
H762 C771 0.930 . S
N763 Gd732 2.661 . S
N763 C767 1.350 . S
N763 C768 1.307 . S
C764 H756 0.930 . S
C764 C765 1.355 . S
C764 C766 1.412 . S
C765 H757 0.930 . S
C765 C764 1.355 . S
C765 C768 1.402 . S
C766 C764 1.412 . S
C766 C767 1.417 . S
C766 C790 1.431 . S
C767 N763 1.350 . S
C767 C766 1.417 . S
C767 C770 1.426 . S
C768 H751 0.930 . S
C768 N763 1.307 . S
C768 C765 1.402 . S
N769 Gd732 2.601 . S
N769 C770 1.359 . S
N769 C773 1.334 . S
C770 C767 1.426 . S
C770 N769 1.359 . S
C770 C774 1.413 . S
C771 H762 0.930 . S
C771 C772 1.359 . S
C771 C773 1.394 . S
C772 C771 1.359 . S
C772 C774 1.391 . S
C772 H775 0.929 . S
C773 H755 0.930 . S
C773 N769 1.334 . S
C773 C771 1.394 . S
C774 C770 1.413 . S
C774 C772 1.391 . S
C774 C789 1.437 . S
H775 C772 0.929 . S
O776 Gd732 2.545 . S
O776 C791 1.258 . S
O777 Gd732 2.606 . S
O777 Gd733 2.362 . S
O777 C788 1.284 . S
O778 Gd733 2.324 . S
O778 C798 1.254 . S
O779 Gd732 2.429 . S
O779 C798 1.268 . S
O780 Gd732 2.545 . S
O780 C788 1.250 . S
O781 Gd732 2.412 . S
O781 C791 1.252 . S
O782 Gd733 2.545 . S
O782 C800 1.258 . S
O783 Gd732 2.362 . S
O783 Gd733 2.606 . S
O783 C799 1.284 . S
O784 Gd732 2.324 . S
O784 C807 1.254 . S
O785 Gd733 2.429 . S
O785 C807 1.268 . S
O786 Gd733 2.545 . S
O786 C799 1.250 . S
O787 Gd733 2.412 . S
O787 C800 1.252 . S
C788 O777 1.284 . S
C788 O780 1.250 . S
C789 H758 0.929 . S
C789 C774 1.437 . S
C789 C790 1.317 . S
C790 H761 0.930 . S
C790 C766 1.431 . S
C790 C789 1.317 . S
C791 Gd732 2.828 . S
C791 O776 1.258 . S
C791 O781 1.252 . S
C791 C792 1.497 . S
C792 C791 1.497 . S
C792 C793 1.395 . S
C792 C794 1.380 . S
C793 C792 1.395 . S
C793 C796 1.398 . S
C793 H808 0.930 . S
C794 C792 1.380 . S
C794 C795 1.391 . S
C794 H809 0.930 . S
C795 C794 1.391 . S
C795 C797 1.387 . S
C796 C793 1.398 . S
C796 C797 1.380 . S
C796 H810 0.930 . S
C797 C795 1.387 . S
C797 C796 1.380 . S
C797 H811 0.930 . S
C798 O778 1.254 . S
C798 O779 1.268 . S
C799 O783 1.284 . S
C799 O786 1.250 . S
C800 Gd733 2.828 . S
C800 O782 1.258 . S
C800 O787 1.252 . S
C800 C801 1.497 . S
C801 C800 1.497 . S
C801 C802 1.395 . S
C801 C803 1.380 . S
C802 C801 1.395 . S
C802 C805 1.398 . S
C802 H812 0.930 . S
C803 C801 1.380 . S
C803 C804 1.391 . S
C803 H813 0.930 . S
C804 C803 1.391 . S
C804 C806 1.387 . S
C805 C802 1.398 . S
C805 C806 1.380 . S
C805 H814 0.930 . S
C806 C804 1.387 . S
C806 C805 1.380 . S
C806 H815 0.930 . S
C807 O784 1.254 . S
C807 O785 1.268 . S
H808 C793 0.930 . S
H809 C794 0.930 . S
H810 C796 0.930 . S
H811 C797 0.930 . S
H812 C802 0.930 . S
H813 C803 0.930 . S
H814 C805 0.930 . S
H815 C806 0.930 . S
Gd816 N847 2.661 . S
Gd816 N853 2.601 . S
Gd816 O860 2.545 . S
Gd816 O861 2.606 1_556 S
Gd816 O863 2.429 1_556 S
Gd816 O864 2.545 . S
Gd816 O865 2.412 . S
Gd816 O867 2.362 1_556 S
Gd816 O868 2.324 . S
Gd816 C875 2.828 . S
Gd817 N826 2.661 . S
Gd817 N830 2.601 . S
Gd817 O861 2.362 . S
Gd817 O862 2.324 . S
Gd817 O866 2.545 . S
Gd817 O867 2.606 . S
Gd817 O869 2.429 . S
Gd817 O870 2.545 . S
Gd817 O871 2.412 . S
Gd817 C884 2.828 . S
C818 C821 1.417 . S
C818 C823 1.431 . S
C818 C824 1.412 . S
C819 C822 1.437 . S
C819 C823 1.317 . S
C819 H838 0.929 . S
C820 C821 1.426 . S
C820 C822 1.413 . S
C820 N830 1.359 . S
C821 C818 1.417 . S
C821 C820 1.426 . S
C821 N826 1.350 . S
C822 C819 1.437 . S
C822 C820 1.413 . S
C822 C832 1.391 . S
C823 C818 1.431 . S
C823 C819 1.317 . S
C823 H834 0.930 . S
C824 C818 1.412 . S
C824 C825 1.355 . S
C824 H836 0.930 . S
C825 C824 1.355 . S
C825 C827 1.402 . S
C825 H837 0.930 . S
N826 Gd817 2.661 . S
N826 C821 1.350 . S
N826 C827 1.307 . S
C827 C825 1.402 . S
C827 N826 1.307 . S
C827 H828 0.930 . S
H828 C827 0.930 . S
C829 N830 1.334 . S
C829 C831 1.394 1_545 S
C829 H833 0.930 1_545 S
N830 Gd817 2.601 . S
N830 C820 1.359 . S
N830 C829 1.334 . S
C831 C829 1.394 1_565 S
C831 C832 1.359 1_565 S
C831 H843 0.930 . S
C832 C822 1.391 . S
C832 C831 1.359 1_545 S
C832 H844 0.898 1_545 S
H833 C829 0.930 1_565 S
H834 C823 0.930 . S
H835 C852 0.930 . S
H836 C824 0.930 . S
H837 C825 0.930 . S
H838 C819 0.929 . S
H839 C857 0.930 . S
H840 C848 0.930 1_565 S
H841 C849 0.930 . S
H842 C873 0.929 . S
H843 C831 0.930 . S
H844 C832 0.898 1_565 S
H845 C874 0.930 . S
H846 C855 0.930 . S
N847 Gd816 2.661 . S
N847 C851 1.350 . S
N847 C852 1.307 . S
C848 H840 0.930 1_545 S
C848 C849 1.355 1_545 S
C848 C850 1.412 . S
C849 H841 0.930 . S
C849 C848 1.355 1_565 S
C849 C852 1.402 1_565 S
C850 C848 1.412 . S
C850 C851 1.417 . S
C850 C874 1.431 . S
C851 N847 1.350 . S
C851 C850 1.417 . S
C851 C854 1.426 . S
C852 H835 0.930 . S
C852 N847 1.307 . S
C852 C849 1.402 1_545 S
N853 Gd816 2.601 . S
N853 C854 1.359 . S
N853 C857 1.334 . S
C854 C851 1.426 . S
C854 N853 1.359 . S
C854 C858 1.413 . S
C855 H846 0.930 . S
C855 C856 1.359 . S
C855 C857 1.394 . S
C856 C855 1.359 . S
C856 C858 1.391 . S
C856 H859 0.929 . S
C857 H839 0.930 . S
C857 N853 1.334 . S
C857 C855 1.394 . S
C858 C854 1.413 . S
C858 C856 1.391 . S
C858 C873 1.437 . S
H859 C856 0.929 . S
O860 Gd816 2.545 . S
O860 C875 1.258 . S
O861 Gd816 2.606 1_554 S
O861 Gd817 2.362 . S
O861 C872 1.284 . S
O862 Gd817 2.324 . S
O862 C882 1.254 . S
O863 Gd816 2.429 1_554 S
O863 C882 1.268 . S
O864 Gd816 2.545 . S
O864 C872 1.250 1_556 S
O865 Gd816 2.412 . S
O865 C875 1.252 . S
O866 Gd817 2.545 . S
O866 C884 1.258 . S
O867 Gd816 2.362 1_554 S
O867 Gd817 2.606 . S
O867 C883 1.284 . S
O868 Gd816 2.324 . S
O868 C891 1.254 . S
O869 Gd817 2.429 . S
O869 C891 1.268 1_554 S
O870 Gd817 2.545 . S
O870 C883 1.250 . S
O871 Gd817 2.412 . S
O871 C884 1.252 . S
C872 O861 1.284 . S
C872 O864 1.250 1_554 S
C873 H842 0.929 . S
C873 C858 1.437 . S
C873 C874 1.317 . S
C874 H845 0.930 . S
C874 C850 1.431 . S
C874 C873 1.317 . S
C875 Gd816 2.828 . S
C875 O860 1.258 . S
C875 O865 1.252 . S
C875 C876 1.497 . S
C876 C875 1.497 . S
C876 C877 1.395 . S
C876 C878 1.380 . S
C877 C876 1.395 . S
C877 C880 1.398 . S
C877 H892 0.930 . S
C878 C876 1.380 . S
C878 C879 1.391 . S
C878 H893 0.930 . S
C879 C878 1.391 . S
C879 C881 1.387 . S
C880 C877 1.398 . S
C880 C881 1.380 . S
C880 H894 0.930 . S
C881 C879 1.387 . S
C881 C880 1.380 . S
C881 H895 0.930 . S
C882 O862 1.254 . S
C882 O863 1.268 . S
C883 O867 1.284 . S
C883 O870 1.250 . S
C884 Gd817 2.828 . S
C884 O866 1.258 . S
C884 O871 1.252 . S
C884 C885 1.497 . S
C885 C884 1.497 . S
C885 C886 1.395 . S
C885 C887 1.380 . S
C886 C885 1.395 . S
C886 C889 1.398 . S
C886 H896 0.930 1_545 S
C887 C885 1.380 . S
C887 C888 1.391 . S
C887 H897 0.930 . S
C888 C887 1.391 . S
C888 C890 1.387 . S
C889 C886 1.398 . S
C889 C890 1.380 . S
C889 H898 0.930 1_545 S
C890 C888 1.387 . S
C890 C889 1.380 . S
C890 H899 0.930 . S
C891 O868 1.254 . S
C891 O869 1.268 1_556 S
H892 C877 0.930 . S
H893 C878 0.930 . S
H894 C880 0.930 . S
H895 C881 0.930 . S
H896 C886 0.930 1_565 S
H897 C887 0.930 . S
H898 C889 0.930 1_565 S
H899 C890 0.930 . S
Gd900 N931 2.661 . S
Gd900 N937 2.601 . S
Gd900 O944 2.545 . S
Gd900 O945 2.606 . S
Gd900 O947 2.429 . S
Gd900 O948 2.545 . S
Gd900 O949 2.412 . S
Gd900 O951 2.362 . S
Gd900 O952 2.324 . S
Gd900 C959 2.828 . S
Gd901 N910 2.661 . S
Gd901 N914 2.601 . S
Gd901 O945 2.362 . S
Gd901 O946 2.324 . S
Gd901 O950 2.545 . S
Gd901 O951 2.606 . S
Gd901 O953 2.429 . S
Gd901 O954 2.545 . S
Gd901 O955 2.412 . S
Gd901 C968 2.828 . S
C902 C905 1.417 . S
C902 C907 1.431 . S
C902 C908 1.412 . S
C903 C906 1.437 . S
C903 C907 1.317 . S
C903 H922 0.929 . S
C904 C905 1.426 . S
C904 C906 1.413 . S
C904 N914 1.359 . S
C905 C902 1.417 . S
C905 C904 1.426 . S
C905 N910 1.350 . S
C906 C903 1.437 . S
C906 C904 1.413 . S
C906 C916 1.391 . S
C907 C902 1.431 . S
C907 C903 1.317 . S
C907 H918 0.930 . S
C908 C902 1.412 . S
C908 C909 1.355 . S
C908 H920 0.930 . S
C909 C908 1.355 . S
C909 C911 1.402 . S
C909 H921 0.930 . S
N910 Gd901 2.661 . S
N910 C905 1.350 . S
N910 C911 1.307 . S
C911 C909 1.402 . S
C911 N910 1.307 . S
C911 H912 0.930 . S
H912 C911 0.930 . S
C913 N914 1.334 . S
C913 C915 1.394 . S
C913 H917 0.930 . S
N914 Gd901 2.601 . S
N914 C904 1.359 . S
N914 C913 1.334 . S
C915 C913 1.394 . S
C915 C916 1.359 . S
C915 H927 0.930 . S
C916 C906 1.391 . S
C916 C915 1.359 . S
C916 H928 0.929 . S
H917 C913 0.930 . S
H918 C907 0.930 . S
H919 C936 0.930 . S
H920 C908 0.930 . S
H921 C909 0.930 . S
H922 C903 0.929 . S
H923 C941 0.930 . S
H924 C932 0.930 . S
H925 C933 0.930 . S
H926 C957 0.929 . S
H927 C915 0.930 . S
H928 C916 0.929 . S
H929 C958 0.930 . S
H930 C939 0.930 . S
N931 Gd900 2.661 . S
N931 C935 1.350 . S
N931 C936 1.307 . S
C932 H924 0.930 . S
C932 C933 1.355 . S
C932 C934 1.412 . S
C933 H925 0.930 . S
C933 C932 1.355 . S
C933 C936 1.402 . S
C934 C932 1.412 . S
C934 C935 1.417 . S
C934 C958 1.431 . S
C935 N931 1.350 . S
C935 C934 1.417 . S
C935 C938 1.426 . S
C936 H919 0.930 . S
C936 N931 1.307 . S
C936 C933 1.402 . S
N937 Gd900 2.601 . S
N937 C938 1.359 . S
N937 C941 1.334 . S
C938 C935 1.426 . S
C938 N937 1.359 . S
C938 C942 1.413 . S
C939 H930 0.930 . S
C939 C940 1.359 . S
C939 C941 1.394 . S
C940 C939 1.359 . S
C940 C942 1.391 . S
C940 H943 0.929 . S
C941 H923 0.930 . S
C941 N937 1.334 . S
C941 C939 1.394 . S
C942 C938 1.413 . S
C942 C940 1.391 . S
C942 C957 1.437 . S
H943 C940 0.929 . S
O944 Gd900 2.545 . S
O944 C959 1.258 . S
O945 Gd900 2.606 . S
O945 Gd901 2.362 . S
O945 C956 1.284 . S
O946 Gd901 2.324 . S
O946 C966 1.254 . S
O947 Gd900 2.429 . S
O947 C966 1.268 . S
O948 Gd900 2.545 . S
O948 C956 1.250 . S
O949 Gd900 2.412 . S
O949 C959 1.252 . S
O950 Gd901 2.545 . S
O950 C968 1.258 . S
O951 Gd900 2.362 . S
O951 Gd901 2.606 . S
O951 C967 1.284 . S
O952 Gd900 2.324 . S
O952 C975 1.254 . S
O953 Gd901 2.429 . S
O953 C975 1.268 . S
O954 Gd901 2.545 . S
O954 C967 1.250 . S
O955 Gd901 2.412 . S
O955 C968 1.252 . S
C956 O945 1.284 . S
C956 O948 1.250 . S
C957 H926 0.929 . S
C957 C942 1.437 . S
C957 C958 1.317 . S
C958 H929 0.930 . S
C958 C934 1.431 . S
C958 C957 1.317 . S
C959 Gd900 2.828 . S
C959 O944 1.258 . S
C959 O949 1.252 . S
C959 C960 1.497 . S
C960 C959 1.497 . S
C960 C961 1.395 . S
C960 C962 1.380 . S
C961 C960 1.395 . S
C961 C964 1.398 . S
C961 H976 0.930 . S
C962 C960 1.380 . S
C962 C963 1.391 . S
C962 H977 0.930 . S
C963 C962 1.391 . S
C963 C965 1.387 . S
C964 C961 1.398 . S
C964 C965 1.380 . S
C964 H978 0.930 . S
C965 C963 1.387 . S
C965 C964 1.380 . S
C965 H979 0.930 . S
C966 O946 1.254 . S
C966 O947 1.268 . S
C967 O951 1.284 . S
C967 O954 1.250 . S
C968 Gd901 2.828 . S
C968 O950 1.258 . S
C968 O955 1.252 . S
C968 C969 1.497 . S
C969 C968 1.497 . S
C969 C970 1.395 . S
C969 C971 1.380 . S
C970 C969 1.395 . S
C970 C973 1.398 . S
C970 H980 0.930 . S
C971 C969 1.380 . S
C971 C972 1.391 . S
C971 H981 0.930 . S
C972 C971 1.391 . S
C972 C974 1.387 . S
C973 C970 1.398 . S
C973 C974 1.380 . S
C973 H982 0.930 . S
C974 C972 1.387 . S
C974 C973 1.380 . S
C974 H983 0.930 . S
C975 O952 1.254 . S
C975 O953 1.268 . S
H976 C961 0.930 . S
H977 C962 0.930 . S
H978 C964 0.930 . S
H979 C965 0.930 . S
H980 C970 0.930 . S
H981 C971 0.930 . S
H982 C973 0.930 . S
H983 C974 0.930 . S
Gd984 N1015 2.661 1_554 S
Gd984 N1021 2.601 1_554 S
Gd984 O1028 2.545 . S
Gd984 O1029 2.606 . S
Gd984 O1031 2.429 . S
Gd984 O1032 2.545 . S
Gd984 O1033 2.412 . S
Gd984 O1035 2.362 1_554 S
Gd984 O1036 2.324 . S
Gd984 C1043 2.828 . S
Gd985 N994 2.661 . S
Gd985 N998 2.601 . S
Gd985 O1029 2.362 . S
Gd985 O1030 2.324 . S
Gd985 O1034 2.545 . S
Gd985 O1035 2.606 1_554 S
Gd985 O1037 2.429 . S
Gd985 O1038 2.545 1_554 S
Gd985 O1039 2.412 . S
Gd985 C1052 2.828 . S
C986 C989 1.417 . S
C986 C991 1.431 . S
C986 C992 1.412 . S
C987 C990 1.437 . S
C987 C991 1.317 . S
C987 H1006 0.929 . S
C988 C989 1.426 . S
C988 C990 1.413 . S
C988 N998 1.359 . S
C989 C986 1.417 . S
C989 C988 1.426 . S
C989 N994 1.350 . S
C990 C987 1.437 . S
C990 C988 1.413 . S
C990 C1000 1.391 . S
C991 C986 1.431 . S
C991 C987 1.317 . S
C991 H1002 0.930 . S
C992 C986 1.412 . S
C992 C993 1.355 . S
C992 H1004 0.930 . S
C993 C992 1.355 . S
C993 C995 1.402 . S
C993 H1005 0.930 . S
N994 Gd985 2.661 . S
N994 C989 1.350 . S
N994 C995 1.307 . S
C995 C993 1.402 . S
C995 N994 1.307 . S
C995 H996 0.930 . S
H996 C995 0.930 . S
C997 N998 1.334 . S
C997 C999 1.394 . S
C997 H1001 0.930 . S
N998 Gd985 2.601 . S
N998 C988 1.359 . S
N998 C997 1.334 . S
C999 C997 1.394 . S
C999 C1000 1.359 . S
C999 H1011 0.930 . S
C1000 C990 1.391 . S
C1000 C999 1.359 . S
C1000 H1012 0.929 . S
H1001 C997 0.930 . S
H1002 C991 0.930 . S
H1003 C1020 0.930 . S
H1004 C992 0.930 . S
H1005 C993 0.930 . S
H1006 C987 0.929 . S
H1007 C1025 0.930 . S
H1008 C1016 0.930 . S
H1009 C1017 0.930 . S
H1010 C1041 0.929 . S
H1011 C999 0.930 . S
H1012 C1000 0.929 . S
H1013 C1042 0.930 . S
H1014 C1023 0.930 . S
N1015 Gd984 2.661 1_556 S
N1015 C1019 1.350 . S
N1015 C1020 1.307 . S
C1016 H1008 0.930 . S
C1016 C1017 1.355 . S
C1016 C1018 1.412 . S
C1017 H1009 0.930 . S
C1017 C1016 1.355 . S
C1017 C1020 1.402 . S
C1018 C1016 1.412 . S
C1018 C1019 1.417 . S
C1018 C1042 1.431 . S
C1019 N1015 1.350 . S
C1019 C1018 1.417 . S
C1019 C1022 1.426 . S
C1020 H1003 0.930 . S
C1020 N1015 1.307 . S
C1020 C1017 1.402 . S
N1021 Gd984 2.601 1_556 S
N1021 C1022 1.359 . S
N1021 C1025 1.334 . S
C1022 C1019 1.426 . S
C1022 N1021 1.359 . S
C1022 C1026 1.413 . S
C1023 H1014 0.930 . S
C1023 C1024 1.359 . S
C1023 C1025 1.394 . S
C1024 C1023 1.359 . S
C1024 C1026 1.391 . S
C1024 H1027 0.929 . S
C1025 H1007 0.930 . S
C1025 N1021 1.334 . S
C1025 C1023 1.394 . S
C1026 C1022 1.413 . S
C1026 C1024 1.391 . S
C1026 C1041 1.437 . S
H1027 C1024 0.929 . S
O1028 Gd984 2.545 . S
O1028 C1043 1.258 . S
O1029 Gd984 2.606 . S
O1029 Gd985 2.362 . S
O1029 C1040 1.284 . S
O1030 Gd985 2.324 . S
O1030 C1050 1.254 . S
O1031 Gd984 2.429 . S
O1031 C1050 1.268 . S
O1032 Gd984 2.545 . S
O1032 C1040 1.250 . S
O1033 Gd984 2.412 . S
O1033 C1043 1.252 . S
O1034 Gd985 2.545 . S
O1034 C1052 1.258 . S
O1035 Gd984 2.362 1_556 S
O1035 Gd985 2.606 1_556 S
O1035 C1051 1.284 . S
O1036 Gd984 2.324 . S
O1036 C1059 1.254 . S
O1037 Gd985 2.429 . S
O1037 C1059 1.268 . S
O1038 Gd985 2.545 1_556 S
O1038 C1051 1.250 . S
O1039 Gd985 2.412 . S
O1039 C1052 1.252 . S
C1040 O1029 1.284 . S
C1040 O1032 1.250 . S
C1041 H1010 0.929 . S
C1041 C1026 1.437 . S
C1041 C1042 1.317 . S
C1042 H1013 0.930 . S
C1042 C1018 1.431 . S
C1042 C1041 1.317 . S
C1043 Gd984 2.828 . S
C1043 O1028 1.258 . S
C1043 O1033 1.252 . S
C1043 C1044 1.497 . S
C1044 C1043 1.497 . S
C1044 C1045 1.395 . S
C1044 C1046 1.380 . S
C1045 C1044 1.395 . S
C1045 C1048 1.398 . S
C1045 H1060 0.930 . S
C1046 C1044 1.380 . S
C1046 C1047 1.391 . S
C1046 H1061 0.930 . S
C1047 C1046 1.391 . S
C1047 C1049 1.387 . S
C1048 C1045 1.398 . S
C1048 C1049 1.380 . S
C1048 H1062 0.930 . S
C1049 C1047 1.387 . S
C1049 C1048 1.380 . S
C1049 H1063 0.930 . S
C1050 O1030 1.254 . S
C1050 O1031 1.268 . S
C1051 O1035 1.284 . S
C1051 O1038 1.250 . S
C1052 Gd985 2.828 . S
C1052 O1034 1.258 . S
C1052 O1039 1.252 . S
C1052 C1053 1.497 . S
C1053 C1052 1.497 . S
C1053 C1054 1.395 . S
C1053 C1055 1.380 1_554 S
C1054 C1053 1.395 . S
C1054 C1057 1.398 . S
C1054 H1064 0.930 . S
C1055 C1053 1.380 1_556 S
C1055 C1056 1.391 . S
C1055 H1065 0.930 . S
C1056 C1055 1.391 . S
C1056 C1058 1.387 . S
C1057 C1054 1.398 . S
C1057 C1058 1.380 1_554 S
C1057 H1066 0.930 . S
C1058 C1056 1.387 . S
C1058 C1057 1.380 1_556 S
C1058 H1067 0.930 . S
C1059 O1036 1.254 . S
C1059 O1037 1.268 . S
H1060 C1045 0.930 . S
H1061 C1046 0.930 . S
H1062 C1048 0.930 . S
H1063 C1049 0.930 . S
H1064 C1054 0.930 . S
H1065 C1055 0.930 . S
H1066 C1057 0.930 . S
H1067 C1058 0.930 . S
Gd1068 N1099 2.661 . S
Gd1068 N1105 2.601 . S
Gd1068 O1112 2.545 . S
Gd1068 O1113 2.606 . S
Gd1068 O1115 2.429 . S
Gd1068 O1116 2.545 . S
Gd1068 O1117 2.412 . S
Gd1068 O1119 2.362 . S
Gd1068 O1120 2.324 . S
Gd1068 C1127 2.828 . S
Gd1069 N1078 2.661 . S
Gd1069 N1082 2.601 . S
Gd1069 O1113 2.362 . S
Gd1069 O1114 2.324 . S
Gd1069 O1118 2.545 . S
Gd1069 O1119 2.606 . S
Gd1069 O1121 2.429 . S
Gd1069 O1122 2.545 . S
Gd1069 O1123 2.412 . S
Gd1069 C1136 2.828 . S
C1070 C1073 1.417 . S
C1070 C1075 1.431 . S
C1070 C1076 1.412 . S
C1071 C1074 1.437 . S
C1071 C1075 1.317 . S
C1071 H1090 0.929 . S
C1072 C1073 1.426 . S
C1072 C1074 1.413 . S
C1072 N1082 1.359 . S
C1073 C1070 1.417 . S
C1073 C1072 1.426 . S
C1073 N1078 1.350 . S
C1074 C1071 1.437 . S
C1074 C1072 1.413 . S
C1074 C1084 1.391 . S
C1075 C1070 1.431 . S
C1075 C1071 1.317 . S
C1075 H1086 0.930 . S
C1076 C1070 1.412 . S
C1076 C1077 1.355 . S
C1076 H1088 0.930 . S
C1077 C1076 1.355 . S
C1077 C1079 1.402 . S
C1077 H1089 0.930 . S
N1078 Gd1069 2.661 . S
N1078 C1073 1.350 . S
N1078 C1079 1.307 . S
C1079 C1077 1.402 . S
C1079 N1078 1.307 . S
C1079 H1080 0.930 . S
H1080 C1079 0.930 . S
C1081 N1082 1.334 . S
C1081 C1083 1.394 . S
C1081 H1085 0.930 . S
N1082 Gd1069 2.601 . S
N1082 C1072 1.359 . S
N1082 C1081 1.334 . S
C1083 C1081 1.394 . S
C1083 C1084 1.359 . S
C1083 H1095 0.930 . S
C1084 C1074 1.391 . S
C1084 C1083 1.359 . S
C1084 H1096 0.929 . S
H1085 C1081 0.930 . S
H1086 C1075 0.930 . S
H1087 C1104 0.930 . S
H1088 C1076 0.930 . S
H1089 C1077 0.930 . S
H1090 C1071 0.929 . S
H1091 C1109 0.930 . S
H1092 C1100 0.930 . S
H1093 C1101 0.930 . S
H1094 C1125 0.929 . S
H1095 C1083 0.930 . S
H1096 C1084 0.929 . S
H1097 C1126 0.930 . S
H1098 C1107 0.930 . S
N1099 Gd1068 2.661 . S
N1099 C1103 1.350 . S
N1099 C1104 1.307 . S
C1100 H1092 0.930 . S
C1100 C1101 1.355 . S
C1100 C1102 1.412 . S
C1101 H1093 0.930 . S
C1101 C1100 1.355 . S
C1101 C1104 1.402 . S
C1102 C1100 1.412 . S
C1102 C1103 1.417 . S
C1102 C1126 1.431 . S
C1103 N1099 1.350 . S
C1103 C1102 1.417 . S
C1103 C1106 1.426 . S
C1104 H1087 0.930 . S
C1104 N1099 1.307 . S
C1104 C1101 1.402 . S
N1105 Gd1068 2.601 . S
N1105 C1106 1.359 . S
N1105 C1109 1.334 . S
C1106 C1103 1.426 . S
C1106 N1105 1.359 . S
C1106 C1110 1.413 . S
C1107 H1098 0.930 . S
C1107 C1108 1.359 . S
C1107 C1109 1.394 . S
C1108 C1107 1.359 . S
C1108 C1110 1.391 . S
C1108 H1111 0.929 . S
C1109 H1091 0.930 . S
C1109 N1105 1.334 . S
C1109 C1107 1.394 . S
C1110 C1106 1.413 . S
C1110 C1108 1.391 . S
C1110 C1125 1.437 . S
H1111 C1108 0.929 . S
O1112 Gd1068 2.545 . S
O1112 C1127 1.258 . S
O1113 Gd1068 2.606 . S
O1113 Gd1069 2.362 . S
O1113 C1124 1.284 . S
O1114 Gd1069 2.324 . S
O1114 C1134 1.254 . S
O1115 Gd1068 2.429 . S
O1115 C1134 1.268 . S
O1116 Gd1068 2.545 . S
O1116 C1124 1.250 . S
O1117 Gd1068 2.412 . S
O1117 C1127 1.252 . S
O1118 Gd1069 2.545 . S
O1118 C1136 1.258 . S
O1119 Gd1068 2.362 . S
O1119 Gd1069 2.606 . S
O1119 C1135 1.284 . S
O1120 Gd1068 2.324 . S
O1120 C1143 1.254 . S
O1121 Gd1069 2.429 . S
O1121 C1143 1.268 . S
O1122 Gd1069 2.545 . S
O1122 C1135 1.250 . S
O1123 Gd1069 2.412 . S
O1123 C1136 1.252 . S
C1124 O1113 1.284 . S
C1124 O1116 1.250 . S
C1125 H1094 0.929 . S
C1125 C1110 1.437 . S
C1125 C1126 1.317 . S
C1126 H1097 0.930 . S
C1126 C1102 1.431 . S
C1126 C1125 1.317 . S
C1127 Gd1068 2.828 . S
C1127 O1112 1.258 . S
C1127 O1117 1.252 . S
C1127 C1128 1.497 . S
C1128 C1127 1.497 . S
C1128 C1129 1.395 . S
C1128 C1130 1.380 . S
C1129 C1128 1.395 . S
C1129 C1132 1.398 . S
C1129 H1144 0.930 . S
C1130 C1128 1.380 . S
C1130 C1131 1.391 . S
C1130 H1145 0.930 . S
C1131 C1130 1.391 . S
C1131 C1133 1.387 . S
C1132 C1129 1.398 . S
C1132 C1133 1.380 . S
C1132 H1146 0.930 . S
C1133 C1131 1.387 . S
C1133 C1132 1.380 . S
C1133 H1147 0.930 . S
C1134 O1114 1.254 . S
C1134 O1115 1.268 . S
C1135 O1119 1.284 . S
C1135 O1122 1.250 . S
C1136 Gd1069 2.828 . S
C1136 O1118 1.258 . S
C1136 O1123 1.252 . S
C1136 C1137 1.497 . S
C1137 C1136 1.497 . S
C1137 C1138 1.395 . S
C1137 C1139 1.380 . S
C1138 C1137 1.395 . S
C1138 C1141 1.398 . S
C1138 H1148 0.930 . S
C1139 C1137 1.380 . S
C1139 C1140 1.391 . S
C1139 H1149 0.930 . S
C1140 C1139 1.391 . S
C1140 C1142 1.387 . S
C1141 C1138 1.398 . S
C1141 C1142 1.380 . S
C1141 H1150 0.930 . S
C1142 C1140 1.387 . S
C1142 C1141 1.380 . S
C1142 H1151 0.930 . S
C1143 O1120 1.254 . S
C1143 O1121 1.268 . S
H1144 C1129 0.930 . S
H1145 C1130 0.930 . S
H1146 C1132 0.930 . S
H1147 C1133 0.930 . S
H1148 C1138 0.930 . S
H1149 C1139 0.930 . S
H1150 C1141 0.930 . S
H1151 C1142 0.930 . S
Gd1152 N1183 2.661 . S
Gd1152 N1189 2.601 . S
Gd1152 O1196 2.545 . S
Gd1152 O1197 2.606 . S
Gd1152 O1199 2.429 . S
Gd1152 O1200 2.545 . S
Gd1152 O1201 2.412 . S
Gd1152 O1203 2.362 . S
Gd1152 O1204 2.324 . S
Gd1152 C1211 2.828 . S
Gd1153 N1162 2.661 . S
Gd1153 N1166 2.601 . S
Gd1153 O1197 2.362 . S
Gd1153 O1198 2.324 . S
Gd1153 O1202 2.545 . S
Gd1153 O1203 2.606 . S
Gd1153 O1205 2.429 . S
Gd1153 O1206 2.545 . S
Gd1153 O1207 2.412 . S
Gd1153 C1220 2.828 . S
C1154 C1157 1.417 . S
C1154 C1159 1.431 . S
C1154 C1160 1.412 . S
C1155 C1158 1.437 . S
C1155 C1159 1.317 . S
C1155 H1174 0.929 . S
C1156 C1157 1.426 . S
C1156 C1158 1.413 . S
C1156 N1166 1.359 . S
C1157 C1154 1.417 . S
C1157 C1156 1.426 . S
C1157 N1162 1.350 . S
C1158 C1155 1.437 . S
C1158 C1156 1.413 . S
C1158 C1168 1.391 . S
C1159 C1154 1.431 . S
C1159 C1155 1.317 . S
C1159 H1170 0.930 . S
C1160 C1154 1.412 . S
C1160 C1161 1.355 . S
C1160 H1172 0.930 . S
C1161 C1160 1.355 . S
C1161 C1163 1.402 . S
C1161 H1173 0.930 . S
N1162 Gd1153 2.661 . S
N1162 C1157 1.350 . S
N1162 C1163 1.307 . S
C1163 C1161 1.402 . S
C1163 N1162 1.307 . S
C1163 H1164 0.930 . S
H1164 C1163 0.930 . S
C1165 N1166 1.334 . S
C1165 C1167 1.394 . S
C1165 H1169 0.930 . S
N1166 Gd1153 2.601 . S
N1166 C1156 1.359 . S
N1166 C1165 1.334 . S
C1167 C1165 1.394 . S
C1167 C1168 1.359 . S
C1167 H1179 0.930 . S
C1168 C1158 1.391 . S
C1168 C1167 1.359 . S
C1168 H1180 0.929 . S
H1169 C1165 0.930 . S
H1170 C1159 0.930 . S
H1171 C1188 0.983 . S
H1172 C1160 0.930 . S
H1173 C1161 0.930 . S
H1174 C1155 0.929 . S
H1175 C1193 0.930 . S
H1176 C1184 0.930 . S
H1177 C1185 0.930 . S
H1178 C1209 0.929 . S
H1179 C1167 0.930 . S
H1180 C1168 0.929 . S
H1181 C1210 0.930 . S
H1182 C1191 0.930 . S
N1183 Gd1152 2.661 . S
N1183 C1187 1.350 1_455 S
N1183 C1188 1.303 . S
C1184 H1176 0.930 . S
C1184 C1185 1.355 . S
C1184 C1186 1.412 . S
C1185 H1177 0.930 . S
C1185 C1184 1.355 . S
C1185 C1188 1.360 1_655 S
C1186 C1184 1.412 . S
C1186 C1187 1.417 . S
C1186 C1210 1.431 . S
C1187 N1183 1.350 1_655 S
C1187 C1186 1.417 . S
C1187 C1190 1.426 . S
C1188 H1171 0.983 . S
C1188 N1183 1.303 . S
C1188 C1185 1.360 1_455 S
N1189 Gd1152 2.601 . S
N1189 C1190 1.359 1_455 S
N1189 C1193 1.334 . S
C1190 C1187 1.426 . S
C1190 N1189 1.359 1_655 S
C1190 C1194 1.413 . S
C1191 H1182 0.930 . S
C1191 C1192 1.359 . S
C1191 C1193 1.394 1_655 S
C1192 C1191 1.359 . S
C1192 C1194 1.391 . S
C1192 H1195 0.929 . S
C1193 H1175 0.930 . S
C1193 N1189 1.334 . S
C1193 C1191 1.394 1_455 S
C1194 C1190 1.413 . S
C1194 C1192 1.391 . S
C1194 C1209 1.437 . S
H1195 C1192 0.929 . S
O1196 Gd1152 2.545 . S
O1196 C1211 1.258 . S
O1197 Gd1152 2.606 . S
O1197 Gd1153 2.362 . S
O1197 C1208 1.284 . S
O1198 Gd1153 2.324 . S
O1198 C1218 1.254 . S
O1199 Gd1152 2.429 . S
O1199 C1218 1.268 . S
O1200 Gd1152 2.545 . S
O1200 C1208 1.250 . S
O1201 Gd1152 2.412 . S
O1201 C1211 1.252 . S
O1202 Gd1153 2.545 . S
O1202 C1220 1.258 . S
O1203 Gd1152 2.362 . S
O1203 Gd1153 2.606 . S
O1203 C1219 1.284 . S
O1204 Gd1152 2.324 . S
O1204 C1227 1.254 . S
O1205 Gd1153 2.429 . S
O1205 C1227 1.268 . S
O1206 Gd1153 2.545 . S
O1206 C1219 1.250 . S
O1207 Gd1153 2.412 . S
O1207 C1220 1.252 . S
C1208 O1197 1.284 . S
C1208 O1200 1.250 . S
C1209 H1178 0.929 . S
C1209 C1194 1.437 . S
C1209 C1210 1.317 . S
C1210 H1181 0.930 . S
C1210 C1186 1.431 . S
C1210 C1209 1.317 . S
C1211 Gd1152 2.828 . S
C1211 O1196 1.258 . S
C1211 O1201 1.252 . S
C1211 C1212 1.497 . S
C1212 C1211 1.497 . S
C1212 C1213 1.395 . S
C1212 C1214 1.380 . S
C1213 C1212 1.395 . S
C1213 C1216 1.398 . S
C1213 H1228 0.930 . S
C1214 C1212 1.380 . S
C1214 C1215 1.391 . S
C1214 H1229 0.930 . S
C1215 C1214 1.391 . S
C1215 C1217 1.387 . S
C1216 C1213 1.398 . S
C1216 C1217 1.380 . S
C1216 H1230 0.930 . S
C1217 C1215 1.387 . S
C1217 C1216 1.380 . S
C1217 H1231 0.930 . S
C1218 O1198 1.254 . S
C1218 O1199 1.268 . S
C1219 O1203 1.284 . S
C1219 O1206 1.250 . S
C1220 Gd1153 2.828 . S
C1220 O1202 1.258 . S
C1220 O1207 1.252 . S
C1220 C1221 1.497 . S
C1221 C1220 1.497 . S
C1221 C1222 1.395 . S
C1221 C1223 1.380 . S
C1222 C1221 1.395 . S
C1222 C1225 1.398 . S
C1222 H1232 0.930 . S
C1223 C1221 1.380 . S
C1223 C1224 1.391 1_455 S
C1223 H1233 0.930 . S
C1224 C1223 1.391 1_655 S
C1224 C1226 1.395 . S
C1225 C1222 1.398 . S
C1225 C1226 1.363 1_455 S
C1225 H1234 0.930 . S
C1226 C1224 1.395 . S
C1226 C1225 1.363 1_655 S
C1226 H1235 0.940 . S
C1227 O1204 1.254 . S
C1227 O1205 1.268 . S
H1228 C1213 0.930 . S
H1229 C1214 0.930 . S
H1230 C1216 0.930 . S
H1231 C1217 0.930 . S
H1232 C1222 0.930 . S
H1233 C1223 0.930 . S
H1234 C1225 0.930 . S
H1235 C1226 0.940 . S
Gd1236 N1267 2.661 . S
Gd1236 N1273 2.601 . S
Gd1236 O1280 2.545 . S
Gd1236 O1281 2.606 . S
Gd1236 O1283 2.429 . S
Gd1236 O1284 2.545 . S
Gd1236 O1285 2.412 . S
Gd1236 O1287 2.362 . S
Gd1236 O1288 2.324 . S
Gd1236 C1295 2.828 . S
Gd1237 N1246 2.661 . S
Gd1237 N1250 2.601 . S
Gd1237 O1281 2.362 . S
Gd1237 O1282 2.324 . S
Gd1237 O1286 2.545 . S
Gd1237 O1287 2.606 . S
Gd1237 O1289 2.429 . S
Gd1237 O1290 2.545 . S
Gd1237 O1291 2.412 . S
Gd1237 C1304 2.828 . S
C1238 C1241 1.417 . S
C1238 C1243 1.431 . S
C1238 C1244 1.412 . S
C1239 C1242 1.437 . S
C1239 C1243 1.317 . S
C1239 H1258 0.929 . S
C1240 C1241 1.426 . S
C1240 C1242 1.413 . S
C1240 N1250 1.359 . S
C1241 C1238 1.417 . S
C1241 C1240 1.426 . S
C1241 N1246 1.350 . S
C1242 C1239 1.437 . S
C1242 C1240 1.413 . S
C1242 C1252 1.391 . S
C1243 C1238 1.431 . S
C1243 C1239 1.317 . S
C1243 H1254 0.930 . S
C1244 C1238 1.412 . S
C1244 C1245 1.355 . S
C1244 H1256 0.930 . S
C1245 C1244 1.355 . S
C1245 C1247 1.402 . S
C1245 H1257 0.930 . S
N1246 Gd1237 2.661 . S
N1246 C1241 1.350 . S
N1246 C1247 1.307 . S
C1247 C1245 1.402 . S
C1247 N1246 1.307 . S
C1247 H1248 0.930 . S
H1248 C1247 0.930 . S
C1249 N1250 1.334 . S
C1249 C1251 1.394 . S
C1249 H1253 0.930 . S
N1250 Gd1237 2.601 . S
N1250 C1240 1.359 . S
N1250 C1249 1.334 . S
C1251 C1249 1.394 . S
C1251 C1252 1.359 . S
C1251 H1263 0.930 . S
C1252 C1242 1.391 . S
C1252 C1251 1.359 . S
C1252 H1264 0.929 . S
H1253 C1249 0.930 . S
H1254 C1243 0.930 . S
H1255 C1272 0.930 . S
H1256 C1244 0.930 . S
H1257 C1245 0.930 . S
H1258 C1239 0.929 . S
H1259 C1277 0.930 . S
H1260 C1268 0.930 . S
H1261 C1269 0.930 . S
H1262 C1293 0.929 . S
H1263 C1251 0.930 . S
H1264 C1252 0.929 . S
H1265 C1294 0.930 . S
H1266 C1275 0.930 . S
N1267 Gd1236 2.661 . S
N1267 C1271 1.350 . S
N1267 C1272 1.307 . S
C1268 H1260 0.930 . S
C1268 C1269 1.355 . S
C1268 C1270 1.412 . S
C1269 H1261 0.930 . S
C1269 C1268 1.355 . S
C1269 C1272 1.402 . S
C1270 C1268 1.412 . S
C1270 C1271 1.417 . S
C1270 C1294 1.431 . S
C1271 N1267 1.350 . S
C1271 C1270 1.417 . S
C1271 C1274 1.426 . S
C1272 H1255 0.930 . S
C1272 N1267 1.307 . S
C1272 C1269 1.402 . S
N1273 Gd1236 2.601 . S
N1273 C1274 1.359 . S
N1273 C1277 1.334 . S
C1274 C1271 1.426 . S
C1274 N1273 1.359 . S
C1274 C1278 1.413 . S
C1275 H1266 0.930 . S
C1275 C1276 1.359 . S
C1275 C1277 1.394 . S
C1276 C1275 1.359 . S
C1276 C1278 1.391 . S
C1276 H1279 0.929 . S
C1277 H1259 0.930 . S
C1277 N1273 1.334 . S
C1277 C1275 1.394 . S
C1278 C1274 1.413 . S
C1278 C1276 1.391 . S
C1278 C1293 1.437 . S
H1279 C1276 0.929 . S
O1280 Gd1236 2.545 . S
O1280 C1295 1.258 . S
O1281 Gd1236 2.606 . S
O1281 Gd1237 2.362 . S
O1281 C1292 1.284 . S
O1282 Gd1237 2.324 . S
O1282 C1302 1.254 . S
O1283 Gd1236 2.429 . S
O1283 C1302 1.268 . S
O1284 Gd1236 2.545 . S
O1284 C1292 1.250 . S
O1285 Gd1236 2.412 . S
O1285 C1295 1.252 . S
O1286 Gd1237 2.545 . S
O1286 C1304 1.258 . S
O1287 Gd1236 2.362 . S
O1287 Gd1237 2.606 . S
O1287 C1303 1.284 . S
O1288 Gd1236 2.324 . S
O1288 C1311 1.254 . S
O1289 Gd1237 2.429 . S
O1289 C1311 1.268 . S
O1290 Gd1237 2.545 . S
O1290 C1303 1.250 . S
O1291 Gd1237 2.412 . S
O1291 C1304 1.252 . S
C1292 O1281 1.284 . S
C1292 O1284 1.250 . S
C1293 H1262 0.929 . S
C1293 C1278 1.437 . S
C1293 C1294 1.317 . S
C1294 H1265 0.930 . S
C1294 C1270 1.431 . S
C1294 C1293 1.317 . S
C1295 Gd1236 2.828 . S
C1295 O1280 1.258 . S
C1295 O1285 1.252 . S
C1295 C1296 1.497 . S
C1296 C1295 1.497 . S
C1296 C1297 1.395 . S
C1296 C1298 1.380 . S
C1297 C1296 1.395 . S
C1297 C1300 1.398 . S
C1297 H1312 0.930 . S
C1298 C1296 1.380 . S
C1298 C1299 1.391 . S
C1298 H1313 0.930 . S
C1299 C1298 1.391 . S
C1299 C1301 1.387 . S
C1300 C1297 1.398 . S
C1300 C1301 1.380 . S
C1300 H1314 0.930 . S
C1301 C1299 1.387 . S
C1301 C1300 1.380 . S
C1301 H1315 0.930 . S
C1302 O1282 1.254 . S
C1302 O1283 1.268 . S
C1303 O1287 1.284 . S
C1303 O1290 1.250 . S
C1304 Gd1237 2.828 . S
C1304 O1286 1.258 . S
C1304 O1291 1.252 . S
C1304 C1305 1.497 . S
C1305 C1304 1.497 . S
C1305 C1306 1.395 . S
C1305 C1307 1.380 . S
C1306 C1305 1.395 . S
C1306 C1309 1.398 . S
C1306 H1316 0.930 . S
C1307 C1305 1.380 . S
C1307 C1308 1.391 . S
C1307 H1317 0.930 . S
C1308 C1307 1.391 . S
C1308 C1310 1.387 . S
C1309 C1306 1.398 . S
C1309 C1310 1.380 . S
C1309 H1318 0.930 . S
C1310 C1308 1.387 . S
C1310 C1309 1.380 . S
C1310 H1319 0.930 . S
C1311 O1288 1.254 . S
C1311 O1289 1.268 . S
H1312 C1297 0.930 . S
H1313 C1298 0.930 . S
H1314 C1300 0.930 . S
H1315 C1301 0.930 . S
H1316 C1306 0.930 . S
H1317 C1307 0.930 . S
H1318 C1309 0.930 . S
H1319 C1310 0.930 . S
Gd1320 N1351 2.661 . S
Gd1320 N1357 2.601 . S
Gd1320 O1364 2.545 . S
Gd1320 O1365 2.606 . S
Gd1320 O1367 2.429 . S
Gd1320 O1368 2.545 . S
Gd1320 O1369 2.412 . S
Gd1320 O1371 2.362 . S
Gd1320 O1372 2.324 . S
Gd1320 C1379 2.828 . S
Gd1321 N1330 2.661 . S
Gd1321 N1334 2.601 . S
Gd1321 O1365 2.362 . S
Gd1321 O1366 2.324 . S
Gd1321 O1370 2.545 . S
Gd1321 O1371 2.606 . S
Gd1321 O1373 2.429 . S
Gd1321 O1374 2.545 . S
Gd1321 O1375 2.412 . S
Gd1321 C1388 2.828 . S
C1322 C1325 1.417 . S
C1322 C1327 1.431 . S
C1322 C1328 1.412 . S
C1323 C1326 1.437 . S
C1323 C1327 1.317 . S
C1323 H1342 0.929 . S
C1324 C1325 1.426 . S
C1324 C1326 1.413 . S
C1324 N1334 1.359 . S
C1325 C1322 1.417 . S
C1325 C1324 1.426 . S
C1325 N1330 1.350 . S
C1326 C1323 1.437 . S
C1326 C1324 1.413 . S
C1326 C1336 1.391 . S
C1327 C1322 1.431 . S
C1327 C1323 1.317 . S
C1327 H1338 0.930 . S
C1328 C1322 1.412 . S
C1328 C1329 1.355 . S
C1328 H1340 0.930 . S
C1329 C1328 1.355 . S
C1329 C1331 1.402 . S
C1329 H1341 0.930 . S
N1330 Gd1321 2.661 . S
N1330 C1325 1.350 . S
N1330 C1331 1.307 . S
C1331 C1329 1.402 . S
C1331 N1330 1.307 . S
C1331 H1332 0.930 . S
H1332 C1331 0.930 . S
C1333 N1334 1.334 . S
C1333 C1335 1.394 . S
C1333 H1337 0.930 . S
N1334 Gd1321 2.601 . S
N1334 C1324 1.359 . S
N1334 C1333 1.334 . S
C1335 C1333 1.394 . S
C1335 C1336 1.359 . S
C1335 H1347 0.930 . S
C1336 C1326 1.391 . S
C1336 C1335 1.359 . S
C1336 H1348 0.929 . S
H1337 C1333 0.930 . S
H1338 C1327 0.930 . S
H1339 C1356 0.930 . S
H1340 C1328 0.930 . S
H1341 C1329 0.930 . S
H1342 C1323 0.929 . S
H1343 C1361 0.930 . S
H1344 C1352 0.930 . S
H1345 C1353 0.930 . S
H1346 C1377 0.929 . S
H1347 C1335 0.930 . S
H1348 C1336 0.929 . S
H1349 C1378 0.930 . S
H1350 C1359 0.930 . S
N1351 Gd1320 2.661 . S
N1351 C1355 1.350 . S
N1351 C1356 1.307 . S
C1352 H1344 0.930 . S
C1352 C1353 1.355 . S
C1352 C1354 1.412 . S
C1353 H1345 0.930 . S
C1353 C1352 1.355 . S
C1353 C1356 1.402 . S
C1354 C1352 1.412 . S
C1354 C1355 1.417 . S
C1354 C1378 1.431 . S
C1355 N1351 1.350 . S
C1355 C1354 1.417 . S
C1355 C1358 1.426 . S
C1356 H1339 0.930 . S
C1356 N1351 1.307 . S
C1356 C1353 1.402 . S
N1357 Gd1320 2.601 . S
N1357 C1358 1.359 . S
N1357 C1361 1.334 . S
C1358 C1355 1.426 . S
C1358 N1357 1.359 . S
C1358 C1362 1.413 . S
C1359 H1350 0.930 . S
C1359 C1360 1.359 . S
C1359 C1361 1.394 . S
C1360 C1359 1.359 . S
C1360 C1362 1.391 . S
C1360 H1363 0.929 . S
C1361 H1343 0.930 . S
C1361 N1357 1.334 . S
C1361 C1359 1.394 . S
C1362 C1358 1.413 . S
C1362 C1360 1.391 . S
C1362 C1377 1.437 . S
H1363 C1360 0.929 . S
O1364 Gd1320 2.545 . S
O1364 C1379 1.258 . S
O1365 Gd1320 2.606 . S
O1365 Gd1321 2.362 . S
O1365 C1376 1.284 . S
O1366 Gd1321 2.324 . S
O1366 C1386 1.254 . S
O1367 Gd1320 2.429 . S
O1367 C1386 1.268 . S
O1368 Gd1320 2.545 . S
O1368 C1376 1.250 . S
O1369 Gd1320 2.412 . S
O1369 C1379 1.252 . S
O1370 Gd1321 2.545 . S
O1370 C1388 1.258 . S
O1371 Gd1320 2.362 . S
O1371 Gd1321 2.606 . S
O1371 C1387 1.284 . S
O1372 Gd1320 2.324 . S
O1372 C1395 1.254 . S
O1373 Gd1321 2.429 . S
O1373 C1395 1.268 . S
O1374 Gd1321 2.545 . S
O1374 C1387 1.250 . S
O1375 Gd1321 2.412 . S
O1375 C1388 1.252 . S
C1376 O1365 1.284 . S
C1376 O1368 1.250 . S
C1377 H1346 0.929 . S
C1377 C1362 1.437 . S
C1377 C1378 1.317 . S
C1378 H1349 0.930 . S
C1378 C1354 1.431 . S
C1378 C1377 1.317 . S
C1379 Gd1320 2.828 . S
C1379 O1364 1.258 . S
C1379 O1369 1.252 . S
C1379 C1380 1.497 . S
C1380 C1379 1.497 . S
C1380 C1381 1.395 . S
C1380 C1382 1.380 . S
C1381 C1380 1.395 . S
C1381 C1384 1.398 . S
C1381 H1396 0.930 . S
C1382 C1380 1.380 . S
C1382 C1383 1.391 . S
C1382 H1397 0.930 . S
C1383 C1382 1.391 . S
C1383 C1385 1.387 . S
C1384 C1381 1.398 . S
C1384 C1385 1.380 . S
C1384 H1398 0.930 . S
C1385 C1383 1.387 . S
C1385 C1384 1.380 . S
C1385 H1399 0.930 . S
C1386 O1366 1.254 . S
C1386 O1367 1.268 . S
C1387 O1371 1.284 . S
C1387 O1374 1.250 . S
C1388 Gd1321 2.828 . S
C1388 O1370 1.258 . S
C1388 O1375 1.252 . S
C1388 C1389 1.497 . S
C1389 C1388 1.497 . S
C1389 C1390 1.395 . S
C1389 C1391 1.380 . S
C1390 C1389 1.395 . S
C1390 C1393 1.398 . S
C1390 H1400 0.930 . S
C1391 C1389 1.380 . S
C1391 C1392 1.391 . S
C1391 H1401 0.930 . S
C1392 C1391 1.391 . S
C1392 C1394 1.387 . S
C1393 C1390 1.398 . S
C1393 C1394 1.380 . S
C1393 H1402 0.930 . S
C1394 C1392 1.387 . S
C1394 C1393 1.380 . S
C1394 H1403 0.930 . S
C1395 O1372 1.254 . S
C1395 O1373 1.268 . S
H1396 C1381 0.930 . S
H1397 C1382 0.930 . S
H1398 C1384 0.930 . S
H1399 C1385 0.930 . S
H1400 C1390 0.930 . S
H1401 C1391 0.930 . S
H1402 C1393 0.930 . S
H1403 C1394 0.930 . S
Gd1404 N1435 2.661 . S
Gd1404 N1441 2.601 . S
Gd1404 O1448 2.545 . S
Gd1404 O1449 2.606 . S
Gd1404 O1451 2.429 . S
Gd1404 O1452 2.545 . S
Gd1404 O1453 2.412 . S
Gd1404 O1455 2.362 . S
Gd1404 O1456 2.324 . S
Gd1404 C1463 2.828 . S
Gd1405 N1414 2.661 . S
Gd1405 N1418 2.601 . S
Gd1405 O1449 2.362 . S
Gd1405 O1450 2.324 . S
Gd1405 O1454 2.545 . S
Gd1405 O1455 2.606 . S
Gd1405 O1457 2.429 . S
Gd1405 O1458 2.545 . S
Gd1405 O1459 2.412 . S
Gd1405 C1472 2.828 . S
C1406 C1409 1.417 . S
C1406 C1411 1.431 . S
C1406 C1412 1.412 . S
C1407 C1410 1.437 . S
C1407 C1411 1.317 . S
C1407 H1426 0.929 . S
C1408 C1409 1.426 . S
C1408 C1410 1.413 . S
C1408 N1418 1.359 . S
C1409 C1406 1.417 . S
C1409 C1408 1.426 . S
C1409 N1414 1.350 . S
C1410 C1407 1.437 . S
C1410 C1408 1.413 . S
C1410 C1420 1.391 . S
C1411 C1406 1.431 . S
C1411 C1407 1.317 . S
C1411 H1422 0.930 . S
C1412 C1406 1.412 . S
C1412 C1413 1.355 . S
C1412 H1424 0.930 . S
C1413 C1412 1.355 . S
C1413 C1415 1.402 . S
C1413 H1425 0.930 . S
N1414 Gd1405 2.661 . S
N1414 C1409 1.350 . S
N1414 C1415 1.307 . S
C1415 C1413 1.402 . S
C1415 N1414 1.307 . S
C1415 H1416 0.930 . S
H1416 C1415 0.930 . S
C1417 N1418 1.334 . S
C1417 C1419 1.394 . S
C1417 H1421 0.930 . S
N1418 Gd1405 2.601 . S
N1418 C1408 1.359 . S
N1418 C1417 1.334 . S
C1419 C1417 1.394 . S
C1419 C1420 1.359 . S
C1419 H1431 0.930 . S
C1420 C1410 1.391 . S
C1420 C1419 1.359 . S
C1420 H1432 0.929 . S
H1421 C1417 0.930 . S
H1422 C1411 0.930 . S
H1423 C1440 0.930 . S
H1424 C1412 0.930 . S
H1425 C1413 0.930 . S
H1426 C1407 0.929 . S
H1427 C1445 0.930 . S
H1428 C1436 0.930 . S
H1429 C1437 0.930 . S
H1430 C1461 0.929 . S
H1431 C1419 0.930 . S
H1432 C1420 0.929 . S
H1433 C1462 0.930 . S
H1434 C1443 0.930 . S
N1435 Gd1404 2.661 . S
N1435 C1439 1.350 . S
N1435 C1440 1.307 . S
C1436 H1428 0.930 . S
C1436 C1437 1.355 . S
C1436 C1438 1.412 . S
C1437 H1429 0.930 . S
C1437 C1436 1.355 . S
C1437 C1440 1.402 . S
C1438 C1436 1.412 . S
C1438 C1439 1.417 . S
C1438 C1462 1.431 . S
C1439 N1435 1.350 . S
C1439 C1438 1.417 . S
C1439 C1442 1.426 . S
C1440 H1423 0.930 . S
C1440 N1435 1.307 . S
C1440 C1437 1.402 . S
N1441 Gd1404 2.601 . S
N1441 C1442 1.359 . S
N1441 C1445 1.334 . S
C1442 C1439 1.426 . S
C1442 N1441 1.359 . S
C1442 C1446 1.413 . S
C1443 H1434 0.930 . S
C1443 C1444 1.359 . S
C1443 C1445 1.394 . S
C1444 C1443 1.359 . S
C1444 C1446 1.391 . S
C1444 H1447 0.929 . S
C1445 H1427 0.930 . S
C1445 N1441 1.334 . S
C1445 C1443 1.394 . S
C1446 C1442 1.413 . S
C1446 C1444 1.391 . S
C1446 C1461 1.437 . S
H1447 C1444 0.929 . S
O1448 Gd1404 2.545 . S
O1448 C1463 1.258 . S
O1449 Gd1404 2.606 . S
O1449 Gd1405 2.362 . S
O1449 C1460 1.284 . S
O1450 Gd1405 2.324 . S
O1450 C1470 1.254 . S
O1451 Gd1404 2.429 . S
O1451 C1470 1.268 . S
O1452 Gd1404 2.545 . S
O1452 C1460 1.250 . S
O1453 Gd1404 2.412 . S
O1453 C1463 1.252 . S
O1454 Gd1405 2.545 . S
O1454 C1472 1.258 . S
O1455 Gd1404 2.362 . S
O1455 Gd1405 2.606 . S
O1455 C1471 1.284 . S
O1456 Gd1404 2.324 . S
O1456 C1479 1.254 . S
O1457 Gd1405 2.429 . S
O1457 C1479 1.268 . S
O1458 Gd1405 2.545 . S
O1458 C1471 1.250 . S
O1459 Gd1405 2.412 . S
O1459 C1472 1.252 . S
C1460 O1449 1.284 . S
C1460 O1452 1.250 . S
C1461 H1430 0.929 . S
C1461 C1446 1.437 . S
C1461 C1462 1.317 . S
C1462 H1433 0.930 . S
C1462 C1438 1.431 . S
C1462 C1461 1.317 . S
C1463 Gd1404 2.828 . S
C1463 O1448 1.258 . S
C1463 O1453 1.252 . S
C1463 C1464 1.497 . S
C1464 C1463 1.497 . S
C1464 C1465 1.395 . S
C1464 C1466 1.380 . S
C1465 C1464 1.395 . S
C1465 C1468 1.398 . S
C1465 H1480 0.930 . S
C1466 C1464 1.380 . S
C1466 C1467 1.391 . S
C1466 H1481 0.930 . S
C1467 C1466 1.391 . S
C1467 C1469 1.387 . S
C1468 C1465 1.398 . S
C1468 C1469 1.380 . S
C1468 H1482 0.930 . S
C1469 C1467 1.387 . S
C1469 C1468 1.380 . S
C1469 H1483 0.930 . S
C1470 O1450 1.254 . S
C1470 O1451 1.268 . S
C1471 O1455 1.284 . S
C1471 O1458 1.250 . S
C1472 Gd1405 2.828 . S
C1472 O1454 1.258 . S
C1472 O1459 1.252 . S
C1472 C1473 1.497 . S
C1473 C1472 1.497 . S
C1473 C1474 1.395 . S
C1473 C1475 1.380 . S
C1474 C1473 1.395 . S
C1474 C1477 1.398 . S
C1474 H1484 0.930 . S
C1475 C1473 1.380 . S
C1475 C1476 1.391 . S
C1475 H1485 0.930 . S
C1476 C1475 1.391 . S
C1476 C1478 1.387 . S
C1477 C1474 1.398 . S
C1477 C1478 1.380 . S
C1477 H1486 0.930 . S
C1478 C1476 1.387 . S
C1478 C1477 1.380 . S
C1478 H1487 0.930 . S
C1479 O1456 1.254 . S
C1479 O1457 1.268 . S
H1480 C1465 0.930 . S
H1481 C1466 0.930 . S
H1482 C1468 0.930 . S
H1483 C1469 0.930 . S
H1484 C1474 0.930 . S
H1485 C1475 0.930 . S
H1486 C1477 0.930 . S
H1487 C1478 0.930 . S
Gd1488 N1519 2.661 . S
Gd1488 N1525 2.601 . S
Gd1488 O1532 2.545 . S
Gd1488 O1533 2.606 . S
Gd1488 O1535 2.429 . S
Gd1488 O1536 2.545 . S
Gd1488 O1537 2.412 . S
Gd1488 O1539 2.362 . S
Gd1488 O1540 2.324 . S
Gd1488 C1547 2.828 . S
Gd1489 N1498 2.661 . S
Gd1489 N1502 2.601 . S
Gd1489 O1533 2.362 . S
Gd1489 O1534 2.324 . S
Gd1489 O1538 2.545 . S
Gd1489 O1539 2.606 . S
Gd1489 O1541 2.429 . S
Gd1489 O1542 2.545 . S
Gd1489 O1543 2.412 . S
Gd1489 C1556 2.828 . S
C1490 C1493 1.417 . S
C1490 C1495 1.431 . S
C1490 C1496 1.412 . S
C1491 C1494 1.437 . S
C1491 C1495 1.317 . S
C1491 H1510 0.929 . S
C1492 C1493 1.426 . S
C1492 C1494 1.413 . S
C1492 N1502 1.359 . S
C1493 C1490 1.417 . S
C1493 C1492 1.426 . S
C1493 N1498 1.350 . S
C1494 C1491 1.437 . S
C1494 C1492 1.413 . S
C1494 C1504 1.391 . S
C1495 C1490 1.431 . S
C1495 C1491 1.317 . S
C1495 H1506 0.930 . S
C1496 C1490 1.412 . S
C1496 C1497 1.355 . S
C1496 H1508 0.930 . S
C1497 C1496 1.355 . S
C1497 C1499 1.402 . S
C1497 H1509 0.930 . S
N1498 Gd1489 2.661 . S
N1498 C1493 1.350 . S
N1498 C1499 1.307 . S
C1499 C1497 1.402 . S
C1499 N1498 1.307 . S
C1499 H1500 0.930 . S
H1500 C1499 0.930 . S
C1501 N1502 1.334 . S
C1501 C1503 1.394 . S
C1501 H1505 0.930 . S
N1502 Gd1489 2.601 . S
N1502 C1492 1.359 . S
N1502 C1501 1.334 . S
C1503 C1501 1.394 . S
C1503 C1504 1.359 . S
C1503 H1515 0.930 . S
C1504 C1494 1.391 . S
C1504 C1503 1.359 . S
C1504 H1516 0.929 . S
H1505 C1501 0.930 . S
H1506 C1495 0.930 . S
H1507 C1524 0.930 . S
H1508 C1496 0.930 . S
H1509 C1497 0.930 . S
H1510 C1491 0.929 . S
H1511 C1529 0.930 . S
H1512 C1520 0.930 . S
H1513 C1521 0.930 . S
H1514 C1545 0.929 . S
H1515 C1503 0.930 . S
H1516 C1504 0.929 . S
H1517 C1546 0.930 . S
H1518 C1527 0.930 . S
N1519 Gd1488 2.661 . S
N1519 C1523 1.350 . S
N1519 C1524 1.307 . S
C1520 H1512 0.930 . S
C1520 C1521 1.355 . S
C1520 C1522 1.412 . S
C1521 H1513 0.930 . S
C1521 C1520 1.355 . S
C1521 C1524 1.402 . S
C1522 C1520 1.412 . S
C1522 C1523 1.417 . S
C1522 C1546 1.431 . S
C1523 N1519 1.350 . S
C1523 C1522 1.417 . S
C1523 C1526 1.426 . S
C1524 H1507 0.930 . S
C1524 N1519 1.307 . S
C1524 C1521 1.402 . S
N1525 Gd1488 2.601 . S
N1525 C1526 1.359 . S
N1525 C1529 1.334 . S
C1526 C1523 1.426 . S
C1526 N1525 1.359 . S
C1526 C1530 1.413 . S
C1527 H1518 0.930 . S
C1527 C1528 1.359 . S
C1527 C1529 1.394 . S
C1528 C1527 1.359 . S
C1528 C1530 1.391 . S
C1528 H1531 0.929 . S
C1529 H1511 0.930 . S
C1529 N1525 1.334 . S
C1529 C1527 1.394 . S
C1530 C1526 1.413 . S
C1530 C1528 1.391 . S
C1530 C1545 1.437 . S
H1531 C1528 0.929 . S
O1532 Gd1488 2.545 . S
O1532 C1547 1.258 . S
O1533 Gd1488 2.606 . S
O1533 Gd1489 2.362 . S
O1533 C1544 1.284 . S
O1534 Gd1489 2.324 . S
O1534 C1554 1.254 . S
O1535 Gd1488 2.429 . S
O1535 C1554 1.268 . S
O1536 Gd1488 2.545 . S
O1536 C1544 1.250 . S
O1537 Gd1488 2.412 . S
O1537 C1547 1.252 . S
O1538 Gd1489 2.545 . S
O1538 C1556 1.258 . S
O1539 Gd1488 2.362 . S
O1539 Gd1489 2.606 . S
O1539 C1555 1.284 . S
O1540 Gd1488 2.324 . S
O1540 C1563 1.254 . S
O1541 Gd1489 2.429 . S
O1541 C1563 1.268 . S
O1542 Gd1489 2.545 . S
O1542 C1555 1.250 . S
O1543 Gd1489 2.412 . S
O1543 C1556 1.252 . S
C1544 O1533 1.284 . S
C1544 O1536 1.250 . S
C1545 H1514 0.929 . S
C1545 C1530 1.437 . S
C1545 C1546 1.317 . S
C1546 H1517 0.930 . S
C1546 C1522 1.431 . S
C1546 C1545 1.317 . S
C1547 Gd1488 2.828 . S
C1547 O1532 1.258 . S
C1547 O1537 1.252 . S
C1547 C1548 1.497 . S
C1548 C1547 1.497 . S
C1548 C1549 1.395 . S
C1548 C1550 1.380 . S
C1549 C1548 1.395 . S
C1549 C1552 1.398 . S
C1549 H1564 0.930 . S
C1550 C1548 1.380 . S
C1550 C1551 1.391 . S
C1550 H1565 0.930 . S
C1551 C1550 1.391 . S
C1551 C1553 1.387 . S
C1552 C1549 1.398 . S
C1552 C1553 1.380 . S
C1552 H1566 0.930 . S
C1553 C1551 1.387 . S
C1553 C1552 1.380 . S
C1553 H1567 0.930 . S
C1554 O1534 1.254 . S
C1554 O1535 1.268 . S
C1555 O1539 1.284 . S
C1555 O1542 1.250 . S
C1556 Gd1489 2.828 . S
C1556 O1538 1.258 . S
C1556 O1543 1.252 . S
C1556 C1557 1.497 . S
C1557 C1556 1.497 . S
C1557 C1558 1.395 . S
C1557 C1559 1.380 . S
C1558 C1557 1.395 . S
C1558 C1561 1.398 . S
C1558 H1568 0.930 . S
C1559 C1557 1.380 . S
C1559 C1560 1.391 . S
C1559 H1569 0.930 . S
C1560 C1559 1.391 . S
C1560 C1562 1.387 . S
C1561 C1558 1.398 . S
C1561 C1562 1.380 . S
C1561 H1570 0.930 . S
C1562 C1560 1.387 . S
C1562 C1561 1.380 . S
C1562 H1571 0.930 . S
C1563 O1540 1.254 . S
C1563 O1541 1.268 . S
H1564 C1549 0.930 . S
H1565 C1550 0.930 . S
H1566 C1552 0.930 . S
H1567 C1553 0.930 . S
H1568 C1558 0.930 . S
H1569 C1559 0.930 . S
H1570 C1561 0.930 . S
H1571 C1562 0.930 . S
Gd1572 N1603 2.661 1_455 S
Gd1572 N1609 2.601 1_455 S
Gd1572 O1616 2.545 1_455 S
Gd1572 O1617 2.606 . S
Gd1572 O1619 2.429 . S
Gd1572 O1620 2.545 . S
Gd1572 O1621 2.412 1_455 S
Gd1572 O1623 2.362 . S
Gd1572 O1624 2.324 . S
Gd1572 C1631 2.828 1_455 S
Gd1573 N1582 2.661 . S
Gd1573 N1586 2.601 1_554 S
Gd1573 O1617 2.362 . S
Gd1573 O1618 2.324 . S
Gd1573 O1622 2.545 1_554 S
Gd1573 O1623 2.606 . S
Gd1573 O1625 2.429 1_554 S
Gd1573 O1626 2.545 . S
Gd1573 O1627 2.412 . S
Gd1573 C1640 2.828 . S
C1574 C1577 1.417 . S
C1574 C1579 1.431 . S
C1574 C1580 1.412 . S
C1575 C1578 1.437 1_554 S
C1575 C1579 1.317 . S
C1575 H1594 0.929 1_554 S
C1576 C1577 1.426 . S
C1576 C1578 1.413 1_554 S
C1576 N1586 1.359 1_554 S
C1577 C1574 1.417 . S
C1577 C1576 1.426 . S
C1577 N1582 1.350 . S
C1578 C1575 1.437 1_556 S
C1578 C1576 1.413 1_556 S
C1578 C1588 1.391 . S
C1579 C1574 1.431 . S
C1579 C1575 1.317 . S
C1579 H1590 0.930 . S
C1580 C1574 1.412 . S
C1580 C1581 1.355 . S
C1580 H1592 0.930 . S
C1581 C1580 1.355 . S
C1581 C1583 1.402 . S
C1581 H1593 0.930 . S
N1582 Gd1573 2.661 . S
N1582 C1577 1.350 . S
N1582 C1583 1.307 . S
C1583 C1581 1.402 . S
C1583 N1582 1.307 . S
C1583 H1584 0.930 . S
H1584 C1583 0.930 . S
C1585 N1586 1.334 . S
C1585 C1587 1.394 . S
C1585 H1589 0.930 . S
N1586 Gd1573 2.601 1_556 S
N1586 C1576 1.359 1_556 S
N1586 C1585 1.334 . S
C1587 C1585 1.394 . S
C1587 C1588 1.359 . S
C1587 H1599 0.930 . S
C1588 C1578 1.391 . S
C1588 C1587 1.359 . S
C1588 H1600 0.929 . S
H1589 C1585 0.930 . S
H1590 C1579 0.930 . S
H1591 C1608 0.900 1_556 S
H1592 C1580 0.930 . S
H1593 C1581 0.930 . S
H1594 C1575 0.929 1_556 S
H1595 C1613 0.930 . S
H1596 C1604 0.930 . S
H1597 C1605 0.930 . S
H1598 C1629 0.929 . S
H1599 C1587 0.930 . S
H1600 C1588 0.929 . S
H1601 C1630 0.930 . S
H1602 C1611 0.930 . S
N1603 Gd1572 2.661 1_655 S
N1603 C1607 1.350 . S
N1603 C1608 1.307 . S
C1604 H1596 0.930 . S
C1604 C1605 1.355 1_554 S
C1604 C1606 1.412 . S
C1605 H1597 0.930 . S
C1605 C1604 1.355 1_556 S
C1605 C1608 1.402 1_556 S
C1606 C1604 1.412 . S
C1606 C1607 1.417 . S
C1606 C1630 1.431 . S
C1607 N1603 1.350 . S
C1607 C1606 1.417 . S
C1607 C1610 1.426 . S
C1608 H1591 0.900 1_554 S
C1608 N1603 1.307 . S
C1608 C1605 1.402 1_554 S
N1609 Gd1572 2.601 1_655 S
N1609 C1610 1.359 . S
N1609 C1613 1.334 1_655 S
C1610 C1607 1.426 . S
C1610 N1609 1.359 . S
C1610 C1614 1.413 . S
C1611 H1602 0.930 . S
C1611 C1612 1.359 . S
C1611 C1613 1.394 1_655 S
C1612 C1611 1.359 . S
C1612 C1614 1.391 . S
C1612 H1615 0.929 . S
C1613 H1595 0.930 . S
C1613 N1609 1.334 1_455 S
C1613 C1611 1.394 1_455 S
C1614 C1610 1.413 . S
C1614 C1612 1.391 . S
C1614 C1629 1.437 . S
H1615 C1612 0.929 . S
O1616 Gd1572 2.545 1_655 S
O1616 C1631 1.258 . S
O1617 Gd1572 2.606 . S
O1617 Gd1573 2.362 . S
O1617 C1628 1.284 . S
O1618 Gd1573 2.324 . S
O1618 C1638 1.254 . S
O1619 Gd1572 2.429 . S
O1619 C1638 1.268 . S
O1620 Gd1572 2.545 . S
O1620 C1628 1.250 . S
O1621 Gd1572 2.412 1_655 S
O1621 C1631 1.252 . S
O1622 Gd1573 2.545 1_556 S
O1622 C1640 1.258 1_556 S
O1623 Gd1572 2.362 . S
O1623 Gd1573 2.606 . S
O1623 C1639 1.284 . S
O1624 Gd1572 2.324 . S
O1624 C1647 1.254 1_554 S
O1625 Gd1573 2.429 1_556 S
O1625 C1647 1.268 . S
O1626 Gd1573 2.545 . S
O1626 C1639 1.250 . S
O1627 Gd1573 2.412 . S
O1627 C1640 1.252 . S
C1628 O1617 1.284 . S
C1628 O1620 1.250 . S
C1629 H1598 0.929 . S
C1629 C1614 1.437 . S
C1629 C1630 1.317 . S
C1630 H1601 0.930 . S
C1630 C1606 1.431 . S
C1630 C1629 1.317 . S
C1631 Gd1572 2.828 1_655 S
C1631 O1616 1.258 . S
C1631 O1621 1.252 . S
C1631 C1632 1.497 . S
C1632 C1631 1.497 . S
C1632 C1633 1.395 . S
C1632 C1634 1.380 . S
C1633 C1632 1.395 . S
C1633 C1636 1.398 . S
C1633 H1648 0.930 . S
C1634 C1632 1.380 . S
C1634 C1635 1.391 . S
C1634 H1649 0.930 . S
C1635 C1634 1.391 . S
C1635 C1637 1.387 . S
C1636 C1633 1.398 . S
C1636 C1637 1.380 . S
C1636 H1650 0.930 . S
C1637 C1635 1.387 . S
C1637 C1636 1.380 . S
C1637 H1651 0.930 . S
C1638 O1618 1.254 . S
C1638 O1619 1.268 . S
C1639 O1623 1.284 . S
C1639 O1626 1.250 . S
C1640 Gd1573 2.828 . S
C1640 O1622 1.258 1_554 S
C1640 O1627 1.252 . S
C1640 C1641 1.497 . S
C1641 C1640 1.497 . S
C1641 C1642 1.395 1_554 S
C1641 C1643 1.380 . S
C1642 C1641 1.395 1_556 S
C1642 C1645 1.398 . S
C1642 H1652 0.930 . S
C1643 C1641 1.380 . S
C1643 C1644 1.391 . S
C1643 H1653 0.930 . S
C1644 C1643 1.391 . S
C1644 C1646 1.387 1_554 S
C1645 C1642 1.398 . S
C1645 C1646 1.380 . S
C1645 H1654 0.930 . S
C1646 C1644 1.387 1_556 S
C1646 C1645 1.380 . S
C1646 H1655 0.930 . S
C1647 O1624 1.254 1_556 S
C1647 O1625 1.268 . S
H1648 C1633 0.930 . S
H1649 C1634 0.930 . S
H1650 C1636 0.930 . S
H1651 C1637 0.930 . S
H1652 C1642 0.930 . S
H1653 C1643 0.930 . S
H1654 C1645 0.930 . S
H1655 C1646 0.930 . S
H1656 C1674 0.951 . S
H1657 C1676 0.951 . S
H1658 C1678 0.950 . S
H1659 C1679 0.950 1_655 S
H1660 C1681 0.950 . S
H1661 C1684 0.950 . S
H1662 C1685 0.950 1_655 S
H1663 C1687 0.950 . S
H1664 C1688 0.950 . S
H1665 C1689 0.951 . S
H1666 C1691 0.951 . S
H1667 C1693 0.950 1_556 S
H1668 C1694 0.950 . S
H1669 C1696 0.950 . S
H1670 C1699 0.950 . S
H1671 C1700 0.950 . S
H1672 C1702 0.950 . S
H1673 C1703 0.950 . S
C1674 H1656 0.951 . S
C1674 C1675 1.366 . S
C1674 C1676 1.388 . S
C1675 C1674 1.366 . S
C1675 C1679 1.385 . S
C1676 H1657 0.951 . S
C1676 C1674 1.388 . S
C1676 C1677 1.366 . S
C1677 C1676 1.366 . S
C1677 C1678 1.414 . S
C1677 C1680 1.499 . S
C1678 H1658 0.950 . S
C1678 C1677 1.414 . S
C1678 C1679 1.374 . S
C1679 H1659 0.950 1_455 S
C1679 C1675 1.385 . S
C1679 C1678 1.374 . S
C1680 C1677 1.499 . S
C1680 C1681 1.373 1_556 S
C1680 C1682 1.389 . S
C1681 H1660 0.950 . S
C1681 C1680 1.373 1_554 S
C1681 C1697 1.377 . S
C1682 C1680 1.389 . S
C1682 C1683 1.524 . S
C1682 C1696 1.377 . S
C1683 C1682 1.524 . S
C1683 C1684 1.397 . S
C1683 C1688 1.363 . S
C1684 H1661 0.950 . S
C1684 C1683 1.397 . S
C1684 C1685 1.334 . S
C1685 H1662 0.950 1_455 S
C1685 C1684 1.334 . S
C1685 C1686 1.287 . S
C1686 C1685 1.287 . S
C1686 C1687 1.524 . S
C1686 H1705 0.913 . S
C1687 H1663 0.950 . S
C1687 C1686 1.524 . S
C1687 C1688 1.415 . S
C1688 H1664 0.950 . S
C1688 C1683 1.363 . S
C1688 C1687 1.415 . S
C1689 H1665 0.951 . S
C1689 C1690 1.366 . S
C1689 C1691 1.388 . S
C1690 C1689 1.366 . S
C1690 C1694 1.385 . S
C1691 H1666 0.951 . S
C1691 C1689 1.388 . S
C1691 C1692 1.366 . S
C1692 C1691 1.366 . S
C1692 C1693 1.414 . S
C1692 C1695 1.510 . S
C1693 H1667 0.950 1_554 S
C1693 C1692 1.414 . S
C1693 C1694 1.374 . S
C1694 H1668 0.950 . S
C1694 C1690 1.385 . S
C1694 C1693 1.374 . S
C1695 C1692 1.510 . S
C1695 C1696 1.354 1_554 S
C1695 C1697 1.397 . S
C1696 H1669 0.950 . S
C1696 C1682 1.377 . S
C1696 C1695 1.354 1_556 S
C1697 C1681 1.377 . S
C1697 C1695 1.397 . S
C1697 C1698 1.524 . S
C1698 C1697 1.524 . S
C1698 C1699 1.397 . S
C1698 C1703 1.363 . S
C1699 H1670 0.950 . S
C1699 C1698 1.397 . S
C1699 C1700 1.334 . S
C1700 H1671 0.950 . S
C1700 C1699 1.334 . S
C1700 C1701 1.287 . S
C1701 C1700 1.287 . S
C1701 C1702 1.524 . S
C1701 H1704 0.999 . S
C1702 H1672 0.950 . S
C1702 C1701 1.524 . S
C1702 C1703 1.415 . S
C1703 H1673 0.950 . S
C1703 C1698 1.363 . S
C1703 C1702 1.415 . S
H1704 C1701 0.999 . S
H1705 C1686 0.913 . S
H1706 C1724 0.951 . S
H1707 C1726 0.951 . S
H1708 C1728 0.950 . S
H1709 C1729 0.950 . S
H1710 C1731 0.950 . S
H1711 C1734 0.950 . S
H1712 C1735 0.950 . S
H1713 C1737 0.950 . S
H1714 C1738 0.950 . S
H1715 C1739 0.951 . S
H1716 C1741 0.951 . S
H1717 C1743 0.950 . S
H1718 C1744 0.950 . S
H1719 C1746 0.950 . S
H1720 C1749 0.950 . S
H1721 C1750 0.950 . S
H1722 C1752 0.950 . S
H1723 C1753 0.950 . S
C1724 H1706 0.951 . S
C1724 C1725 1.366 . S
C1724 C1726 1.388 . S
C1725 C1724 1.366 . S
C1725 C1729 1.385 . S
C1726 H1707 0.951 . S
C1726 C1724 1.388 . S
C1726 C1727 1.366 . S
C1727 C1726 1.366 . S
C1727 C1728 1.414 . S
C1727 C1730 1.499 . S
C1728 H1708 0.950 . S
C1728 C1727 1.414 . S
C1728 C1729 1.374 . S
C1729 H1709 0.950 . S
C1729 C1725 1.385 . S
C1729 C1728 1.374 . S
C1730 C1727 1.499 . S
C1730 C1731 1.373 . S
C1730 C1732 1.389 . S
C1731 H1710 0.950 . S
C1731 C1730 1.373 . S
C1731 C1747 1.377 . S
C1732 C1730 1.389 . S
C1732 C1733 1.524 . S
C1732 C1746 1.377 . S
C1733 C1732 1.524 . S
C1733 C1734 1.397 . S
C1733 C1738 1.363 . S
C1734 H1711 0.950 . S
C1734 C1733 1.397 . S
C1734 C1735 1.334 . S
C1735 H1712 0.950 . S
C1735 C1734 1.334 . S
C1735 C1736 1.287 . S
C1736 C1735 1.287 . S
C1736 C1737 1.524 . S
C1736 H1755 0.913 . S
C1737 H1713 0.950 . S
C1737 C1736 1.524 . S
C1737 C1738 1.415 . S
C1738 H1714 0.950 . S
C1738 C1733 1.363 . S
C1738 C1737 1.415 . S
C1739 H1715 0.951 . S
C1739 C1740 1.366 . S
C1739 C1741 1.388 . S
C1740 C1739 1.366 . S
C1740 C1744 1.385 . S
C1741 H1716 0.951 . S
C1741 C1739 1.388 . S
C1741 C1742 1.366 . S
C1742 C1741 1.366 . S
C1742 C1743 1.414 . S
C1742 C1745 1.499 . S
C1743 H1717 0.950 . S
C1743 C1742 1.414 . S
C1743 C1744 1.374 . S
C1744 H1718 0.950 . S
C1744 C1740 1.385 . S
C1744 C1743 1.374 . S
C1745 C1742 1.499 . S
C1745 C1746 1.373 . S
C1745 C1747 1.389 . S
C1746 H1719 0.950 . S
C1746 C1732 1.377 . S
C1746 C1745 1.373 . S
C1747 C1731 1.377 . S
C1747 C1745 1.389 . S
C1747 C1748 1.524 . S
C1748 C1747 1.524 . S
C1748 C1749 1.397 . S
C1748 C1753 1.363 . S
C1749 H1720 0.950 . S
C1749 C1748 1.397 . S
C1749 C1750 1.334 . S
C1750 H1721 0.950 . S
C1750 C1749 1.334 . S
C1750 C1751 1.287 . S
C1751 C1750 1.287 . S
C1751 C1752 1.524 . S
C1751 H1754 0.999 . S
C1752 H1722 0.950 . S
C1752 C1751 1.524 . S
C1752 C1753 1.415 . S
C1753 H1723 0.950 . S
C1753 C1748 1.363 . S
C1753 C1752 1.415 . S
H1754 C1751 0.999 . S
H1755 C1736 0.913 . S
H1756 C1774 0.951 . S
H1757 C1776 0.951 . S
H1758 C1778 0.950 . S
H1759 C1779 0.950 . S
H1760 C1781 0.950 . S
H1761 C1784 0.950 . S
H1762 C1785 0.950 . S
H1763 C1787 0.950 . S
H1764 C1788 0.950 . S
H1765 C1789 0.951 . S
H1766 C1791 0.951 . S
H1767 C1793 0.950 . S
H1768 C1794 0.950 . S
H1769 C1796 0.950 . S
H1770 C1799 0.950 . S
H1771 C1800 0.950 . S
H1772 C1802 0.950 . S
H1773 C1803 0.950 . S
C1774 H1756 0.951 . S
C1774 C1775 1.366 . S
C1774 C1776 1.388 . S
C1775 C1774 1.366 . S
C1775 C1779 1.385 . S
C1776 H1757 0.951 . S
C1776 C1774 1.388 . S
C1776 C1777 1.366 . S
C1777 C1776 1.366 . S
C1777 C1778 1.414 . S
C1777 C1780 1.499 . S
C1778 H1758 0.950 . S
C1778 C1777 1.414 . S
C1778 C1779 1.374 . S
C1779 H1759 0.950 . S
C1779 C1775 1.385 . S
C1779 C1778 1.374 . S
C1780 C1777 1.499 . S
C1780 C1781 1.373 . S
C1780 C1782 1.389 . S
C1781 H1760 0.950 . S
C1781 C1780 1.373 . S
C1781 C1797 1.377 . S
C1782 C1780 1.389 . S
C1782 C1783 1.524 . S
C1782 C1796 1.377 . S
C1783 C1782 1.524 . S
C1783 C1784 1.397 . S
C1783 C1788 1.363 . S
C1784 H1761 0.950 . S
C1784 C1783 1.397 . S
C1784 C1785 1.334 . S
C1785 H1762 0.950 . S
C1785 C1784 1.334 . S
C1785 C1786 1.287 . S
C1786 C1785 1.287 . S
C1786 C1787 1.524 . S
C1786 H1805 0.913 . S
C1787 H1763 0.950 . S
C1787 C1786 1.524 . S
C1787 C1788 1.415 . S
C1788 H1764 0.950 . S
C1788 C1783 1.363 . S
C1788 C1787 1.415 . S
C1789 H1765 0.951 . S
C1789 C1790 1.366 . S
C1789 C1791 1.388 . S
C1790 C1789 1.366 . S
C1790 C1794 1.385 . S
C1791 H1766 0.951 . S
C1791 C1789 1.388 . S
C1791 C1792 1.366 . S
C1792 C1791 1.366 . S
C1792 C1793 1.414 . S
C1792 C1795 1.499 . S
C1793 H1767 0.950 . S
C1793 C1792 1.414 . S
C1793 C1794 1.374 . S
C1794 H1768 0.950 . S
C1794 C1790 1.385 . S
C1794 C1793 1.374 . S
C1795 C1792 1.499 . S
C1795 C1796 1.373 . S
C1795 C1797 1.389 . S
C1796 H1769 0.950 . S
C1796 C1782 1.377 . S
C1796 C1795 1.373 . S
C1797 C1781 1.377 . S
C1797 C1795 1.389 . S
C1797 C1798 1.524 . S
C1798 C1797 1.524 . S
C1798 C1799 1.397 . S
C1798 C1803 1.363 . S
C1799 H1770 0.950 . S
C1799 C1798 1.397 . S
C1799 C1800 1.334 . S
C1800 H1771 0.950 . S
C1800 C1799 1.334 . S
C1800 C1801 1.287 . S
C1801 C1800 1.287 . S
C1801 C1802 1.524 . S
C1801 H1804 0.999 . S
C1802 H1772 0.950 . S
C1802 C1801 1.524 . S
C1802 C1803 1.415 . S
C1803 H1773 0.950 . S
C1803 C1798 1.363 . S
C1803 C1802 1.415 . S
H1804 C1801 0.999 . S
H1805 C1786 0.913 . S
H1806 C1824 0.951 . S
H1807 C1826 0.951 . S
H1808 C1828 0.950 . S
H1809 C1829 0.950 . S
H1810 C1831 0.950 . S
H1811 C1834 0.950 . S
H1812 C1835 0.950 . S
H1813 C1837 0.950 . S
H1814 C1838 0.950 . S
H1815 C1839 0.951 . S
H1816 C1841 0.951 . S
H1817 C1843 0.950 . S
H1818 C1844 0.950 . S
H1819 C1846 0.950 . S
H1820 C1849 0.950 . S
H1821 C1850 0.950 . S
H1822 C1852 0.950 . S
H1823 C1853 0.950 . S
C1824 H1806 0.951 . S
C1824 C1825 1.366 . S
C1824 C1826 1.388 . S
C1825 C1824 1.366 . S
C1825 C1829 1.385 . S
C1826 H1807 0.951 . S
C1826 C1824 1.388 . S
C1826 C1827 1.366 . S
C1827 C1826 1.366 . S
C1827 C1828 1.414 . S
C1827 C1830 1.499 . S
C1828 H1808 0.950 . S
C1828 C1827 1.414 . S
C1828 C1829 1.374 . S
C1829 H1809 0.950 . S
C1829 C1825 1.385 . S
C1829 C1828 1.374 . S
C1830 C1827 1.499 . S
C1830 C1831 1.373 . S
C1830 C1832 1.389 . S
C1831 H1810 0.950 . S
C1831 C1830 1.373 . S
C1831 C1847 1.377 . S
C1832 C1830 1.389 . S
C1832 C1833 1.524 . S
C1832 C1846 1.377 . S
C1833 C1832 1.524 . S
C1833 C1834 1.397 . S
C1833 C1838 1.363 . S
C1834 H1811 0.950 . S
C1834 C1833 1.397 . S
C1834 C1835 1.334 . S
C1835 H1812 0.950 . S
C1835 C1834 1.334 . S
C1835 C1836 1.287 . S
C1836 C1835 1.287 . S
C1836 C1837 1.524 . S
C1836 H1855 0.913 . S
C1837 H1813 0.950 . S
C1837 C1836 1.524 . S
C1837 C1838 1.415 . S
C1838 H1814 0.950 . S
C1838 C1833 1.363 . S
C1838 C1837 1.415 . S
C1839 H1815 0.951 . S
C1839 C1840 1.366 . S
C1839 C1841 1.388 . S
C1840 C1839 1.366 . S
C1840 C1844 1.385 . S
C1841 H1816 0.951 . S
C1841 C1839 1.388 . S
C1841 C1842 1.366 . S
C1842 C1841 1.366 . S
C1842 C1843 1.414 . S
C1842 C1845 1.499 . S
C1843 H1817 0.950 . S
C1843 C1842 1.414 . S
C1843 C1844 1.374 . S
C1844 H1818 0.950 . S
C1844 C1840 1.385 . S
C1844 C1843 1.374 . S
C1845 C1842 1.499 . S
C1845 C1846 1.373 . S
C1845 C1847 1.389 . S
C1846 H1819 0.950 . S
C1846 C1832 1.377 . S
C1846 C1845 1.373 . S
C1847 C1831 1.377 . S
C1847 C1845 1.389 . S
C1847 C1848 1.524 . S
C1848 C1847 1.524 . S
C1848 C1849 1.397 . S
C1848 C1853 1.363 . S
C1849 H1820 0.950 . S
C1849 C1848 1.397 . S
C1849 C1850 1.334 . S
C1850 H1821 0.950 . S
C1850 C1849 1.334 . S
C1850 C1851 1.287 . S
C1851 C1850 1.287 . S
C1851 C1852 1.524 . S
C1851 H1854 0.999 . S
C1852 H1822 0.950 . S
C1852 C1851 1.524 . S
C1852 C1853 1.415 . S
C1853 H1823 0.950 . S
C1853 C1848 1.363 . S
C1853 C1852 1.415 . S
H1854 C1851 0.999 . S
H1855 C1836 0.913 . S
H1856 C1874 0.951 1_655 S
H1857 C1876 0.959 . S
H1858 C1878 0.950 . S
H1859 C1879 0.950 . S
H1860 C1881 0.950 . S
H1861 C1884 0.950 . S
H1862 C1885 0.950 . S
H1863 C1887 0.950 . S
H1864 C1888 0.950 . S
H1865 C1889 0.951 . S
H1866 C1891 0.951 . S
H1867 C1893 0.950 . S
H1868 C1894 0.950 . S
H1869 C1896 0.950 . S
H1870 C1899 0.950 . S
H1871 C1900 0.950 . S
H1872 C1902 0.950 . S
H1873 C1903 0.950 . S
C1874 H1856 0.951 1_455 S
C1874 C1875 1.366 . S
C1874 C1876 1.388 . S
C1875 C1874 1.366 . S
C1875 C1879 1.385 . S
C1876 H1857 0.959 . S
C1876 C1874 1.388 . S
C1876 C1877 1.366 . S
C1877 C1876 1.366 . S
C1877 C1878 1.414 . S
C1877 C1880 1.499 . S
C1878 H1858 0.950 . S
C1878 C1877 1.414 . S
C1878 C1879 1.374 . S
C1879 H1859 0.950 . S
C1879 C1875 1.385 . S
C1879 C1878 1.374 . S
C1880 C1877 1.499 . S
C1880 C1881 1.373 . S
C1880 C1882 1.389 . S
C1881 H1860 0.950 . S
C1881 C1880 1.373 . S
C1881 C1897 1.377 . S
C1882 C1880 1.389 . S
C1882 C1883 1.524 . S
C1882 C1896 1.377 . S
C1883 C1882 1.524 . S
C1883 C1884 1.397 . S
C1883 C1888 1.363 . S
C1884 H1861 0.950 . S
C1884 C1883 1.397 . S
C1884 C1885 1.334 . S
C1885 H1862 0.950 . S
C1885 C1884 1.334 . S
C1885 C1886 1.287 . S
C1886 C1885 1.287 . S
C1886 C1887 1.524 . S
C1886 H1905 0.913 . S
C1887 H1863 0.950 . S
C1887 C1886 1.524 . S
C1887 C1888 1.415 . S
C1888 H1864 0.950 . S
C1888 C1883 1.363 . S
C1888 C1887 1.415 . S
C1889 H1865 0.951 . S
C1889 C1890 1.366 . S
C1889 C1891 1.388 . S
C1890 C1889 1.366 . S
C1890 C1894 1.385 . S
C1891 H1866 0.951 . S
C1891 C1889 1.388 . S
C1891 C1892 1.366 . S
C1892 C1891 1.366 . S
C1892 C1893 1.414 . S
C1892 C1895 1.499 . S
C1893 H1867 0.950 . S
C1893 C1892 1.414 . S
C1893 C1894 1.374 . S
C1894 H1868 0.950 . S
C1894 C1890 1.385 . S
C1894 C1893 1.374 . S
C1895 C1892 1.499 . S
C1895 C1896 1.373 . S
C1895 C1897 1.389 . S
C1896 H1869 0.950 . S
C1896 C1882 1.377 . S
C1896 C1895 1.373 . S
C1897 C1881 1.377 . S
C1897 C1895 1.389 . S
C1897 C1898 1.524 . S
C1898 C1897 1.524 . S
C1898 C1899 1.397 . S
C1898 C1903 1.363 . S
C1899 H1870 0.950 . S
C1899 C1898 1.397 . S
C1899 C1900 1.334 . S
C1900 H1871 0.950 . S
C1900 C1899 1.334 . S
C1900 C1901 1.287 . S
C1901 C1900 1.287 . S
C1901 C1902 1.524 . S
C1901 H1904 0.999 . S
C1902 H1872 0.950 . S
C1902 C1901 1.524 . S
C1902 C1903 1.415 . S
C1903 H1873 0.950 . S
C1903 C1898 1.363 . S
C1903 C1902 1.415 . S
H1904 C1901 0.999 . S
H1905 C1886 0.913 . S
H1906 C1924 0.951 . S
H1907 C1926 0.951 . S
H1908 C1928 0.950 . S
H1909 C1929 0.950 . S
H1910 C1931 0.950 . S
H1911 C1934 0.950 . S
H1912 C1935 0.950 . S
H1913 C1937 0.950 . S
H1914 C1938 0.950 . S
H1915 C1939 0.951 . S
H1916 C1941 0.951 . S
H1917 C1943 0.950 . S
H1918 C1944 0.950 . S
H1919 C1946 0.950 . S
H1920 C1949 0.950 . S
H1921 C1950 0.950 . S
H1922 C1952 0.950 . S
H1923 C1953 0.950 . S
C1924 H1906 0.951 . S
C1924 C1925 1.366 . S
C1924 C1926 1.388 . S
C1925 C1924 1.366 . S
C1925 C1929 1.385 . S
C1926 H1907 0.951 . S
C1926 C1924 1.388 . S
C1926 C1927 1.366 . S
C1927 C1926 1.366 . S
C1927 C1928 1.414 . S
C1927 C1930 1.499 . S
C1928 H1908 0.950 . S
C1928 C1927 1.414 . S
C1928 C1929 1.374 . S
C1929 H1909 0.950 . S
C1929 C1925 1.385 . S
C1929 C1928 1.374 . S
C1930 C1927 1.499 . S
C1930 C1931 1.373 . S
C1930 C1932 1.389 . S
C1931 H1910 0.950 . S
C1931 C1930 1.373 . S
C1931 C1947 1.377 . S
C1932 C1930 1.389 . S
C1932 C1933 1.524 . S
C1932 C1946 1.377 . S
C1933 C1932 1.524 . S
C1933 C1934 1.397 . S
C1933 C1938 1.363 . S
C1934 H1911 0.950 . S
C1934 C1933 1.397 . S
C1934 C1935 1.334 . S
C1935 H1912 0.950 . S
C1935 C1934 1.334 . S
C1935 C1936 1.287 . S
C1936 C1935 1.287 . S
C1936 C1937 1.524 . S
C1936 H1955 0.913 . S
C1937 H1913 0.950 . S
C1937 C1936 1.524 . S
C1937 C1938 1.415 . S
C1938 H1914 0.950 . S
C1938 C1933 1.363 . S
C1938 C1937 1.415 . S
C1939 H1915 0.951 . S
C1939 C1940 1.366 . S
C1939 C1941 1.388 . S
C1940 C1939 1.366 . S
C1940 C1944 1.385 . S
C1941 H1916 0.951 . S
C1941 C1939 1.388 . S
C1941 C1942 1.366 . S
C1942 C1941 1.366 . S
C1942 C1943 1.414 . S
C1942 C1945 1.499 . S
C1943 H1917 0.950 . S
C1943 C1942 1.414 . S
C1943 C1944 1.374 . S
C1944 H1918 0.950 . S
C1944 C1940 1.385 . S
C1944 C1943 1.374 . S
C1945 C1942 1.499 . S
C1945 C1946 1.373 . S
C1945 C1947 1.389 . S
C1946 H1919 0.950 . S
C1946 C1932 1.377 . S
C1946 C1945 1.373 . S
C1947 C1931 1.377 . S
C1947 C1945 1.389 . S
C1947 C1948 1.524 . S
C1948 C1947 1.524 . S
C1948 C1949 1.397 . S
C1948 C1953 1.363 . S
C1949 H1920 0.950 . S
C1949 C1948 1.397 . S
C1949 C1950 1.334 . S
C1950 H1921 0.950 . S
C1950 C1949 1.334 . S
C1950 C1951 1.287 . S
C1951 C1950 1.287 . S
C1951 C1952 1.524 . S
C1951 H1954 0.999 . S
C1952 H1922 0.950 . S
C1952 C1951 1.524 . S
C1952 C1953 1.415 . S
C1953 H1923 0.950 . S
C1953 C1948 1.363 . S
C1953 C1952 1.415 . S
H1954 C1951 0.999 . S
H1955 C1936 0.913 . S
H1956 C1974 0.951 . S
H1957 C1976 0.951 . S
H1958 C1978 0.950 . S
H1959 C1979 0.950 . S
H1960 C1981 0.950 . S
H1961 C1984 0.950 . S
H1962 C1985 0.950 . S
H1963 C1987 0.950 . S
H1964 C1988 0.950 . S
H1965 C1989 0.951 . S
H1966 C1991 0.951 . S
H1967 C1993 0.950 . S
H1968 C1994 0.950 . S
H1969 C1996 0.950 . S
H1970 C1999 0.950 . S
H1971 C2000 0.950 . S
H1972 C2002 0.950 . S
H1973 C2003 0.950 . S
C1974 H1956 0.951 . S
C1974 C1975 1.366 . S
C1974 C1976 1.388 . S
C1975 C1974 1.366 . S
C1975 C1979 1.385 . S
C1976 H1957 0.951 . S
C1976 C1974 1.388 . S
C1976 C1977 1.366 . S
C1977 C1976 1.366 . S
C1977 C1978 1.414 . S
C1977 C1980 1.499 . S
C1978 H1958 0.950 . S
C1978 C1977 1.414 . S
C1978 C1979 1.374 . S
C1979 H1959 0.950 . S
C1979 C1975 1.385 . S
C1979 C1978 1.374 . S
C1980 C1977 1.499 . S
C1980 C1981 1.373 . S
C1980 C1982 1.389 . S
C1981 H1960 0.950 . S
C1981 C1980 1.373 . S
C1981 C1997 1.377 . S
C1982 C1980 1.389 . S
C1982 C1983 1.524 . S
C1982 C1996 1.377 . S
C1983 C1982 1.524 . S
C1983 C1984 1.397 . S
C1983 C1988 1.363 . S
C1984 H1961 0.950 . S
C1984 C1983 1.397 . S
C1984 C1985 1.334 . S
C1985 H1962 0.950 . S
C1985 C1984 1.334 . S
C1985 C1986 1.287 . S
C1986 C1985 1.287 . S
C1986 C1987 1.524 . S
C1986 H2005 0.913 . S
C1987 H1963 0.950 . S
C1987 C1986 1.524 . S
C1987 C1988 1.415 . S
C1988 H1964 0.950 . S
C1988 C1983 1.363 . S
C1988 C1987 1.415 . S
C1989 H1965 0.951 . S
C1989 C1990 1.366 . S
C1989 C1991 1.388 . S
C1990 C1989 1.366 . S
C1990 C1994 1.385 . S
C1991 H1966 0.951 . S
C1991 C1989 1.388 . S
C1991 C1992 1.366 . S
C1992 C1991 1.366 . S
C1992 C1993 1.414 . S
C1992 C1995 1.499 . S
C1993 H1967 0.950 . S
C1993 C1992 1.414 . S
C1993 C1994 1.374 . S
C1994 H1968 0.950 . S
C1994 C1990 1.385 . S
C1994 C1993 1.374 . S
C1995 C1992 1.499 . S
C1995 C1996 1.373 . S
C1995 C1997 1.389 . S
C1996 H1969 0.950 . S
C1996 C1982 1.377 . S
C1996 C1995 1.373 . S
C1997 C1981 1.377 . S
C1997 C1995 1.389 . S
C1997 C1998 1.524 . S
C1998 C1997 1.524 . S
C1998 C1999 1.397 . S
C1998 C2003 1.363 . S
C1999 H1970 0.950 . S
C1999 C1998 1.397 . S
C1999 C2000 1.334 . S
C2000 H1971 0.950 . S
C2000 C1999 1.334 . S
C2000 C2001 1.287 . S
C2001 C2000 1.287 . S
C2001 C2002 1.524 . S
C2001 H2004 0.999 . S
C2002 H1972 0.950 . S
C2002 C2001 1.524 . S
C2002 C2003 1.415 . S
C2003 H1973 0.950 . S
C2003 C1998 1.363 . S
C2003 C2002 1.415 . S
H2004 C2001 0.999 . S
H2005 C1986 0.913 . S
H2006 C2024 0.951 . S
H2007 C2026 0.951 . S
H2008 C2028 0.950 . S
H2009 C2029 0.950 . S
H2010 C2031 0.950 . S
H2011 C2034 0.950 . S
H2012 C2035 0.950 . S
H2013 C2037 0.950 . S
H2014 C2038 0.950 . S
H2015 C2039 0.951 . S
H2016 C2041 0.951 . S
H2017 C2043 0.950 . S
H2018 C2044 0.950 . S
H2019 C2046 0.950 . S
H2020 C2049 0.950 . S
H2021 C2050 0.950 . S
H2022 C2052 0.950 . S
H2023 C2053 0.950 . S
C2024 H2006 0.951 . S
C2024 C2025 1.366 . S
C2024 C2026 1.388 . S
C2025 C2024 1.366 . S
C2025 C2029 1.385 . S
C2026 H2007 0.951 . S
C2026 C2024 1.388 . S
C2026 C2027 1.366 . S
C2027 C2026 1.366 . S
C2027 C2028 1.414 . S
C2027 C2030 1.499 . S
C2028 H2008 0.950 . S
C2028 C2027 1.414 . S
C2028 C2029 1.374 . S
C2029 H2009 0.950 . S
C2029 C2025 1.385 . S
C2029 C2028 1.374 . S
C2030 C2027 1.499 . S
C2030 C2031 1.373 . S
C2030 C2032 1.389 . S
C2031 H2010 0.950 . S
C2031 C2030 1.373 . S
C2031 C2047 1.377 . S
C2032 C2030 1.389 . S
C2032 C2033 1.524 . S
C2032 C2046 1.377 . S
C2033 C2032 1.524 . S
C2033 C2034 1.397 . S
C2033 C2038 1.363 . S
C2034 H2011 0.950 . S
C2034 C2033 1.397 . S
C2034 C2035 1.334 . S
C2035 H2012 0.950 . S
C2035 C2034 1.334 . S
C2035 C2036 1.287 . S
C2036 C2035 1.287 . S
C2036 C2037 1.524 . S
C2036 H2055 0.913 . S
C2037 H2013 0.950 . S
C2037 C2036 1.524 . S
C2037 C2038 1.415 . S
C2038 H2014 0.950 . S
C2038 C2033 1.363 . S
C2038 C2037 1.415 . S
C2039 H2015 0.951 . S
C2039 C2040 1.366 . S
C2039 C2041 1.388 . S
C2040 C2039 1.366 . S
C2040 C2044 1.385 . S
C2041 H2016 0.951 . S
C2041 C2039 1.388 . S
C2041 C2042 1.366 . S
C2042 C2041 1.366 . S
C2042 C2043 1.414 . S
C2042 C2045 1.499 . S
C2043 H2017 0.950 . S
C2043 C2042 1.414 . S
C2043 C2044 1.374 . S
C2044 H2018 0.950 . S
C2044 C2040 1.385 . S
C2044 C2043 1.374 . S
C2045 C2042 1.499 . S
C2045 C2046 1.373 . S
C2045 C2047 1.389 . S
C2046 H2019 0.950 . S
C2046 C2032 1.377 . S
C2046 C2045 1.373 . S
C2047 C2031 1.377 . S
C2047 C2045 1.389 . S
C2047 C2048 1.524 . S
C2048 C2047 1.524 . S
C2048 C2049 1.397 . S
C2048 C2053 1.363 . S
C2049 H2020 0.950 . S
C2049 C2048 1.397 . S
C2049 C2050 1.334 . S
C2050 H2021 0.950 . S
C2050 C2049 1.334 . S
C2050 C2051 1.287 . S
C2051 C2050 1.287 . S
C2051 C2052 1.524 . S
C2051 H2054 0.999 . S
C2052 H2022 0.950 . S
C2052 C2051 1.524 . S
C2052 C2053 1.415 . S
C2053 H2023 0.950 . S
C2053 C2048 1.363 . S
C2053 C2052 1.415 . S
H2054 C2051 0.999 . S
H2055 C2036 0.913 . S
H2056 C2074 0.951 . S
H2057 C2076 0.951 . S
H2058 C2078 0.950 1_455 S
H2059 C2079 0.950 . S
H2060 C2081 0.950 . S
H2061 C2084 0.950 . S
H2062 C2085 0.950 . S
H2063 C2087 0.950 . S
H2064 C2088 0.950 . S
H2065 C2089 0.951 . S
H2066 C2091 0.951 . S
H2067 C2093 0.950 1_655 S
H2068 C2094 0.950 . S
H2069 C2096 0.950 . S
H2070 C2099 0.950 . S
H2071 C2100 0.950 . S
H2072 C2102 0.950 . S
H2073 C2103 0.950 . S
C2074 H2056 0.951 . S
C2074 C2075 1.366 . S
C2074 C2076 1.388 . S
C2075 C2074 1.366 . S
C2075 C2079 1.385 . S
C2076 H2057 0.951 . S
C2076 C2074 1.388 . S
C2076 C2077 1.366 . S
C2077 C2076 1.366 . S
C2077 C2078 1.414 . S
C2077 C2080 1.499 . S
C2078 H2058 0.950 1_655 S
C2078 C2077 1.414 . S
C2078 C2079 1.374 . S
C2079 H2059 0.950 . S
C2079 C2075 1.385 . S
C2079 C2078 1.374 . S
C2080 C2077 1.499 . S
C2080 C2081 1.373 1_655 S
C2080 C2082 1.389 . S
C2081 H2060 0.950 . S
C2081 C2080 1.373 1_455 S
C2081 C2097 1.377 . S
C2082 C2080 1.389 . S
C2082 C2083 1.524 . S
C2082 C2096 1.377 . S
C2083 C2082 1.524 . S
C2083 C2084 1.397 . S
C2083 C2088 1.363 . S
C2084 H2061 0.950 . S
C2084 C2083 1.397 . S
C2084 C2085 1.334 . S
C2085 H2062 0.950 . S
C2085 C2084 1.334 . S
C2085 C2086 1.287 . S
C2086 C2085 1.287 . S
C2086 C2087 1.524 . S
C2086 H2105 0.913 1_545 S
C2087 H2063 0.950 . S
C2087 C2086 1.524 . S
C2087 C2088 1.415 . S
C2088 H2064 0.950 . S
C2088 C2083 1.363 . S
C2088 C2087 1.415 . S
C2089 H2065 0.951 . S
C2089 C2090 1.366 . S
C2089 C2091 1.388 . S
C2090 C2089 1.366 . S
C2090 C2094 1.385 . S
C2091 H2066 0.951 . S
C2091 C2089 1.388 . S
C2091 C2092 1.366 . S
C2092 C2091 1.366 . S
C2092 C2093 1.414 . S
C2092 C2095 1.499 . S
C2093 H2067 0.950 1_455 S
C2093 C2092 1.414 . S
C2093 C2094 1.374 . S
C2094 H2068 0.950 . S
C2094 C2090 1.385 . S
C2094 C2093 1.374 . S
C2095 C2092 1.499 . S
C2095 C2096 1.373 1_455 S
C2095 C2097 1.389 . S
C2096 H2069 0.950 . S
C2096 C2082 1.377 . S
C2096 C2095 1.373 1_655 S
C2097 C2081 1.377 . S
C2097 C2095 1.389 . S
C2097 C2098 1.524 . S
C2098 C2097 1.524 . S
C2098 C2099 1.397 . S
C2098 C2103 1.363 . S
C2099 H2070 0.950 . S
C2099 C2098 1.397 . S
C2099 C2100 1.334 . S
C2100 H2071 0.950 . S
C2100 C2099 1.334 . S
C2100 C2101 1.287 . S
C2101 C2100 1.287 . S
C2101 C2102 1.524 . S
C2101 H2104 0.999 . S
C2102 H2072 0.950 . S
C2102 C2101 1.524 . S
C2102 C2103 1.415 . S
C2103 H2073 0.950 . S
C2103 C2098 1.363 . S
C2103 C2102 1.415 . S
H2104 C2101 0.999 . S
H2105 C2086 0.913 1_565 S
H2106 C2124 0.951 . S
H2107 C2126 0.951 . S
H2108 C2128 0.950 . S
H2109 C2129 0.950 . S
H2110 C2131 0.950 . S
H2111 C2134 0.950 . S
H2112 C2135 0.950 . S
H2113 C2137 0.950 . S
H2114 C2138 0.950 . S
H2115 C2139 0.951 . S
H2116 C2141 0.951 . S
H2117 C2143 0.950 . S
H2118 C2144 0.950 . S
H2119 C2146 0.950 . S
H2120 C2149 0.950 . S
H2121 C2150 0.950 . S
H2122 C2152 0.950 . S
H2123 C2153 0.950 . S
C2124 H2106 0.951 . S
C2124 C2125 1.366 . S
C2124 C2126 1.388 . S
C2125 C2124 1.366 . S
C2125 C2129 1.385 . S
C2126 H2107 0.951 . S
C2126 C2124 1.388 . S
C2126 C2127 1.366 . S
C2127 C2126 1.366 . S
C2127 C2128 1.414 . S
C2127 C2130 1.499 . S
C2128 H2108 0.950 . S
C2128 C2127 1.414 . S
C2128 C2129 1.374 . S
C2129 H2109 0.950 . S
C2129 C2125 1.385 . S
C2129 C2128 1.374 . S
C2130 C2127 1.499 . S
C2130 C2131 1.373 . S
C2130 C2132 1.389 . S
C2131 H2110 0.950 . S
C2131 C2130 1.373 . S
C2131 C2147 1.377 . S
C2132 C2130 1.389 . S
C2132 C2133 1.524 . S
C2132 C2146 1.377 . S
C2133 C2132 1.524 . S
C2133 C2134 1.397 . S
C2133 C2138 1.363 . S
C2134 H2111 0.950 . S
C2134 C2133 1.397 . S
C2134 C2135 1.334 . S
C2135 H2112 0.950 . S
C2135 C2134 1.334 . S
C2135 C2136 1.287 . S
C2136 C2135 1.287 . S
C2136 C2137 1.524 . S
C2136 H2155 0.913 . S
C2137 H2113 0.950 . S
C2137 C2136 1.524 . S
C2137 C2138 1.415 . S
C2138 H2114 0.950 . S
C2138 C2133 1.363 . S
C2138 C2137 1.415 . S
C2139 H2115 0.951 . S
C2139 C2140 1.366 . S
C2139 C2141 1.388 . S
C2140 C2139 1.366 . S
C2140 C2144 1.385 . S
C2141 H2116 0.951 . S
C2141 C2139 1.388 . S
C2141 C2142 1.366 . S
C2142 C2141 1.366 . S
C2142 C2143 1.414 . S
C2142 C2145 1.499 . S
C2143 H2117 0.950 . S
C2143 C2142 1.414 . S
C2143 C2144 1.374 . S
C2144 H2118 0.950 . S
C2144 C2140 1.385 . S
C2144 C2143 1.374 . S
C2145 C2142 1.499 . S
C2145 C2146 1.373 . S
C2145 C2147 1.389 . S
C2146 H2119 0.950 . S
C2146 C2132 1.377 . S
C2146 C2145 1.373 . S
C2147 C2131 1.377 . S
C2147 C2145 1.389 . S
C2147 C2148 1.524 . S
C2148 C2147 1.524 . S
C2148 C2149 1.397 . S
C2148 C2153 1.363 . S
C2149 H2120 0.950 . S
C2149 C2148 1.397 . S
C2149 C2150 1.334 . S
C2150 H2121 0.950 . S
C2150 C2149 1.334 . S
C2150 C2151 1.287 . S
C2151 C2150 1.287 . S
C2151 C2152 1.524 . S
C2151 H2154 0.999 . S
C2152 H2122 0.950 . S
C2152 C2151 1.524 . S
C2152 C2153 1.415 . S
C2153 H2123 0.950 . S
C2153 C2148 1.363 . S
C2153 C2152 1.415 . S
H2154 C2151 0.999 . S
H2155 C2136 0.913 . S
H2156 C2174 0.951 . S
H2157 C2176 0.951 . S
H2158 C2178 0.948 . S
H2159 C2179 0.950 . S
H2160 C2181 0.950 . S
H2161 C2184 0.950 . S
H2162 C2185 0.950 . S
H2163 C2187 0.950 . S
H2164 C2188 0.950 . S
H2165 C2189 0.951 1_565 S
H2166 C2191 0.951 1_565 S
H2167 C2193 0.950 . S
H2168 C2194 0.950 . S
H2169 C2196 0.950 . S
H2170 C2199 0.950 . S
H2171 C2200 0.950 . S
H2172 C2202 0.950 . S
H2173 C2203 0.950 . S
C2174 H2156 0.951 . S
C2174 C2175 1.366 . S
C2174 C2176 1.388 . S
C2175 C2174 1.366 . S
C2175 C2179 1.385 . S
C2176 H2157 0.951 . S
C2176 C2174 1.388 . S
C2176 C2177 1.366 . S
C2177 C2176 1.366 . S
C2177 C2178 1.414 . S
C2177 C2180 1.499 . S
C2178 H2158 0.948 . S
C2178 C2177 1.414 . S
C2178 C2179 1.374 . S
C2179 H2159 0.950 . S
C2179 C2175 1.385 . S
C2179 C2178 1.374 . S
C2180 C2177 1.499 . S
C2180 C2181 1.373 . S
C2180 C2182 1.389 . S
C2181 H2160 0.950 . S
C2181 C2180 1.373 . S
C2181 C2197 1.377 . S
C2182 C2180 1.389 . S
C2182 C2183 1.524 . S
C2182 C2196 1.377 . S
C2183 C2182 1.524 . S
C2183 C2184 1.397 . S
C2183 C2188 1.363 . S
C2184 H2161 0.950 . S
C2184 C2183 1.397 . S
C2184 C2185 1.334 . S
C2185 H2162 0.950 . S
C2185 C2184 1.334 . S
C2185 C2186 1.287 . S
C2186 C2185 1.287 . S
C2186 C2187 1.524 . S
C2186 H2205 0.913 . S
C2187 H2163 0.950 . S
C2187 C2186 1.524 . S
C2187 C2188 1.415 . S
C2188 H2164 0.950 . S
C2188 C2183 1.363 . S
C2188 C2187 1.415 . S
C2189 H2165 0.951 1_545 S
C2189 C2190 1.366 . S
C2189 C2191 1.388 . S
C2190 C2189 1.366 . S
C2190 C2194 1.385 . S
C2191 H2166 0.951 1_545 S
C2191 C2189 1.388 . S
C2191 C2192 1.366 . S
C2192 C2191 1.366 . S
C2192 C2193 1.414 . S
C2192 C2195 1.499 . S
C2193 H2167 0.950 . S
C2193 C2192 1.414 . S
C2193 C2194 1.374 . S
C2194 H2168 0.950 . S
C2194 C2190 1.385 . S
C2194 C2193 1.374 . S
C2195 C2192 1.499 . S
C2195 C2196 1.373 . S
C2195 C2197 1.389 . S
C2196 H2169 0.950 . S
C2196 C2182 1.377 . S
C2196 C2195 1.373 . S
C2197 C2181 1.377 . S
C2197 C2195 1.389 . S
C2197 C2198 1.524 . S
C2198 C2197 1.524 . S
C2198 C2199 1.397 . S
C2198 C2203 1.363 1_545 S
C2199 H2170 0.950 . S
C2199 C2198 1.397 . S
C2199 C2200 1.334 . S
C2200 H2171 0.950 . S
C2200 C2199 1.334 . S
C2200 C2201 1.287 . S
C2201 C2200 1.287 . S
C2201 C2202 1.524 1_545 S
C2201 H2204 0.999 . S
C2202 H2172 0.950 . S
C2202 C2201 1.524 1_565 S
C2202 C2203 1.415 . S
C2203 H2173 0.950 . S
C2203 C2198 1.363 1_565 S
C2203 C2202 1.415 . S
H2204 C2201 0.999 . S
H2205 C2186 0.913 . S
H2206 C2224 0.951 . S
H2207 C2226 0.951 . S
H2208 C2228 0.950 . S
H2209 C2229 0.950 . S
H2210 C2231 0.950 . S
H2211 C2234 0.950 . S
H2212 C2235 0.950 . S
H2213 C2237 0.950 . S
H2214 C2238 0.950 . S
H2215 C2239 0.951 . S
H2216 C2241 0.951 . S
H2217 C2243 0.950 . S
H2218 C2244 0.950 . S
H2219 C2246 0.950 . S
H2220 C2249 0.950 . S
H2221 C2250 0.950 . S
H2222 C2252 0.950 . S
H2223 C2253 0.950 . S
C2224 H2206 0.951 . S
C2224 C2225 1.366 . S
C2224 C2226 1.388 . S
C2225 C2224 1.366 . S
C2225 C2229 1.385 . S
C2226 H2207 0.951 . S
C2226 C2224 1.388 . S
C2226 C2227 1.366 . S
C2227 C2226 1.366 . S
C2227 C2228 1.414 . S
C2227 C2230 1.499 . S
C2228 H2208 0.950 . S
C2228 C2227 1.414 . S
C2228 C2229 1.374 . S
C2229 H2209 0.950 . S
C2229 C2225 1.385 . S
C2229 C2228 1.374 . S
C2230 C2227 1.499 . S
C2230 C2231 1.373 . S
C2230 C2232 1.389 . S
C2231 H2210 0.950 . S
C2231 C2230 1.373 . S
C2231 C2247 1.377 . S
C2232 C2230 1.389 . S
C2232 C2233 1.524 . S
C2232 C2246 1.377 . S
C2233 C2232 1.524 . S
C2233 C2234 1.397 . S
C2233 C2238 1.363 . S
C2234 H2211 0.950 . S
C2234 C2233 1.397 . S
C2234 C2235 1.334 . S
C2235 H2212 0.950 . S
C2235 C2234 1.334 . S
C2235 C2236 1.287 . S
C2236 C2235 1.287 . S
C2236 C2237 1.524 . S
C2236 H2255 0.913 . S
C2237 H2213 0.950 . S
C2237 C2236 1.524 . S
C2237 C2238 1.415 . S
C2238 H2214 0.950 . S
C2238 C2233 1.363 . S
C2238 C2237 1.415 . S
C2239 H2215 0.951 . S
C2239 C2240 1.366 . S
C2239 C2241 1.388 . S
C2240 C2239 1.366 . S
C2240 C2244 1.385 . S
C2241 H2216 0.951 . S
C2241 C2239 1.388 . S
C2241 C2242 1.366 . S
C2242 C2241 1.366 . S
C2242 C2243 1.414 . S
C2242 C2245 1.499 . S
C2243 H2217 0.950 . S
C2243 C2242 1.414 . S
C2243 C2244 1.374 . S
C2244 H2218 0.950 . S
C2244 C2240 1.385 . S
C2244 C2243 1.374 . S
C2245 C2242 1.499 . S
C2245 C2246 1.373 . S
C2245 C2247 1.389 . S
C2246 H2219 0.950 . S
C2246 C2232 1.377 . S
C2246 C2245 1.373 . S
C2247 C2231 1.377 . S
C2247 C2245 1.389 . S
C2247 C2248 1.524 . S
C2248 C2247 1.524 . S
C2248 C2249 1.397 . S
C2248 C2253 1.363 . S
C2249 H2220 0.950 . S
C2249 C2248 1.397 . S
C2249 C2250 1.334 . S
C2250 H2221 0.950 . S
C2250 C2249 1.334 . S
C2250 C2251 1.287 . S
C2251 C2250 1.287 . S
C2251 C2252 1.524 . S
C2251 H2254 0.999 . S
C2252 H2222 0.950 . S
C2252 C2251 1.524 . S
C2252 C2253 1.415 . S
C2253 H2223 0.950 . S
C2253 C2248 1.363 . S
C2253 C2252 1.415 . S
H2254 C2251 0.999 . S
H2255 C2236 0.913 . S
H2256 C2274 0.951 . S
H2257 C2276 0.951 . S
H2258 C2278 0.950 . S
H2259 C2279 0.950 . S
H2260 C2281 0.950 . S
H2261 C2284 0.950 . S
H2262 C2285 0.950 . S
H2263 C2287 0.950 . S
H2264 C2288 0.950 . S
H2265 C2289 0.951 . S
H2266 C2291 0.951 . S
H2267 C2293 0.950 . S
H2268 C2294 0.950 . S
H2269 C2296 0.950 . S
H2270 C2299 0.950 . S
H2271 C2300 0.950 . S
H2272 C2302 0.950 . S
H2273 C2303 0.950 . S
C2274 H2256 0.951 . S
C2274 C2275 1.366 . S
C2274 C2276 1.388 . S
C2275 C2274 1.366 . S
C2275 C2279 1.385 . S
C2276 H2257 0.951 . S
C2276 C2274 1.388 . S
C2276 C2277 1.366 . S
C2277 C2276 1.366 . S
C2277 C2278 1.414 . S
C2277 C2280 1.499 . S
C2278 H2258 0.950 . S
C2278 C2277 1.414 . S
C2278 C2279 1.374 . S
C2279 H2259 0.950 . S
C2279 C2275 1.385 . S
C2279 C2278 1.374 . S
C2280 C2277 1.499 . S
C2280 C2281 1.373 . S
C2280 C2282 1.389 1_655 S
C2281 H2260 0.950 . S
C2281 C2280 1.373 . S
C2281 C2297 1.377 . S
C2282 C2280 1.389 1_455 S
C2282 C2283 1.524 . S
C2282 C2296 1.377 . S
C2283 C2282 1.524 . S
C2283 C2284 1.397 . S
C2283 C2288 1.363 . S
C2284 H2261 0.950 . S
C2284 C2283 1.397 . S
C2284 C2285 1.334 . S
C2285 H2262 0.950 . S
C2285 C2284 1.334 . S
C2285 C2286 1.287 . S
C2286 C2285 1.287 . S
C2286 C2287 1.524 . S
C2286 H2305 0.913 . S
C2287 H2263 0.950 . S
C2287 C2286 1.524 . S
C2287 C2288 1.415 . S
C2288 H2264 0.950 . S
C2288 C2283 1.363 . S
C2288 C2287 1.415 . S
C2289 H2265 0.951 . S
C2289 C2290 1.366 . S
C2289 C2291 1.388 . S
C2290 C2289 1.366 . S
C2290 C2294 1.385 . S
C2291 H2266 0.951 . S
C2291 C2289 1.388 . S
C2291 C2292 1.366 . S
C2292 C2291 1.366 . S
C2292 C2293 1.414 . S
C2292 C2295 1.499 . S
C2293 H2267 0.950 . S
C2293 C2292 1.414 . S
C2293 C2294 1.374 . S
C2294 H2268 0.950 . S
C2294 C2290 1.385 . S
C2294 C2293 1.374 . S
C2295 C2292 1.499 . S
C2295 C2296 1.373 . S
C2295 C2297 1.389 1_455 S
C2296 H2269 0.950 . S
C2296 C2282 1.377 . S
C2296 C2295 1.373 . S
C2297 C2281 1.377 . S
C2297 C2295 1.389 1_655 S
C2297 C2298 1.524 . S
C2298 C2297 1.524 . S
C2298 C2299 1.397 . S
C2298 C2303 1.363 . S
C2299 H2270 0.950 . S
C2299 C2298 1.397 . S
C2299 C2300 1.334 . S
C2300 H2271 0.950 . S
C2300 C2299 1.334 . S
C2300 C2301 1.287 . S
C2301 C2300 1.287 . S
C2301 C2302 1.524 . S
C2301 H2304 0.999 . S
C2302 H2272 0.950 . S
C2302 C2301 1.524 . S
C2302 C2303 1.415 . S
C2303 H2273 0.950 . S
C2303 C2298 1.363 . S
C2303 C2302 1.415 . S
H2304 C2301 0.999 . S
H2305 C2286 0.913 . S
H2306 C2324 0.951 . S
H2307 C2326 0.951 . S
H2308 C2328 0.950 . S
H2309 C2329 0.950 . S
H2310 C2331 0.950 . S
H2311 C2334 0.950 . S
H2312 C2335 0.950 . S
H2313 C2337 0.950 . S
H2314 C2338 0.950 . S
H2315 C2339 0.951 . S
H2316 C2341 0.951 . S
H2317 C2343 0.950 . S
H2318 C2344 0.950 . S
H2319 C2346 0.950 . S
H2320 C2349 0.950 . S
H2321 C2350 0.950 . S
H2322 C2352 0.950 . S
H2323 C2353 0.950 . S
C2324 H2306 0.951 . S
C2324 C2325 1.366 . S
C2324 C2326 1.388 . S
C2325 C2324 1.366 . S
C2325 C2329 1.385 . S
C2326 H2307 0.951 . S
C2326 C2324 1.388 . S
C2326 C2327 1.366 . S
C2327 C2326 1.366 . S
C2327 C2328 1.414 . S
C2327 C2330 1.499 . S
C2328 H2308 0.950 . S
C2328 C2327 1.414 . S
C2328 C2329 1.374 . S
C2329 H2309 0.950 . S
C2329 C2325 1.385 . S
C2329 C2328 1.374 . S
C2330 C2327 1.499 . S
C2330 C2331 1.373 . S
C2330 C2332 1.389 . S
C2331 H2310 0.950 . S
C2331 C2330 1.373 . S
C2331 C2347 1.377 . S
C2332 C2330 1.389 . S
C2332 C2333 1.524 . S
C2332 C2346 1.377 . S
C2333 C2332 1.524 . S
C2333 C2334 1.397 . S
C2333 C2338 1.363 . S
C2334 H2311 0.950 . S
C2334 C2333 1.397 . S
C2334 C2335 1.334 . S
C2335 H2312 0.950 . S
C2335 C2334 1.334 . S
C2335 C2336 1.287 . S
C2336 C2335 1.287 . S
C2336 C2337 1.524 . S
C2336 H2355 0.913 . S
C2337 H2313 0.950 . S
C2337 C2336 1.524 . S
C2337 C2338 1.415 . S
C2338 H2314 0.950 . S
C2338 C2333 1.363 . S
C2338 C2337 1.415 . S
C2339 H2315 0.951 . S
C2339 C2340 1.366 . S
C2339 C2341 1.388 . S
C2340 C2339 1.366 . S
C2340 C2344 1.385 . S
C2341 H2316 0.951 . S
C2341 C2339 1.388 . S
C2341 C2342 1.366 . S
C2342 C2341 1.366 . S
C2342 C2343 1.414 . S
C2342 C2345 1.499 . S
C2343 H2317 0.950 . S
C2343 C2342 1.414 . S
C2343 C2344 1.374 . S
C2344 H2318 0.950 . S
C2344 C2340 1.385 . S
C2344 C2343 1.374 . S
C2345 C2342 1.499 . S
C2345 C2346 1.373 . S
C2345 C2347 1.389 . S
C2346 H2319 0.950 . S
C2346 C2332 1.377 . S
C2346 C2345 1.373 . S
C2347 C2331 1.377 . S
C2347 C2345 1.389 . S
C2347 C2348 1.524 . S
C2348 C2347 1.524 . S
C2348 C2349 1.397 . S
C2348 C2353 1.363 . S
C2349 H2320 0.950 . S
C2349 C2348 1.397 . S
C2349 C2350 1.334 . S
C2350 H2321 0.950 . S
C2350 C2349 1.334 . S
C2350 C2351 1.287 . S
C2351 C2350 1.287 . S
C2351 C2352 1.524 . S
C2351 H2354 0.999 . S
C2352 H2322 0.950 . S
C2352 C2351 1.524 . S
C2352 C2353 1.415 . S
C2353 H2323 0.950 . S
C2353 C2348 1.363 . S
C2353 C2352 1.415 . S
H2354 C2351 0.999 . S
H2355 C2336 0.913 . S
H2356 C2374 0.951 . S
H2357 C2376 0.951 . S
H2358 C2378 0.950 . S
H2359 C2379 0.950 . S
H2360 C2381 0.950 . S
H2361 C2384 0.950 . S
H2362 C2385 0.950 . S
H2363 C2387 0.950 . S
H2364 C2388 0.950 . S
H2365 C2389 0.951 . S
H2366 C2391 0.951 . S
H2367 C2393 0.950 . S
H2368 C2394 0.950 . S
H2369 C2396 0.950 . S
H2370 C2399 0.950 . S
H2371 C2400 0.950 . S
H2372 C2402 0.950 . S
H2373 C2403 0.950 . S
C2374 H2356 0.951 . S
C2374 C2375 1.366 . S
C2374 C2376 1.388 . S
C2375 C2374 1.366 . S
C2375 C2379 1.385 . S
C2376 H2357 0.951 . S
C2376 C2374 1.388 . S
C2376 C2377 1.366 . S
C2377 C2376 1.366 . S
C2377 C2378 1.414 . S
C2377 C2380 1.499 . S
C2378 H2358 0.950 . S
C2378 C2377 1.414 . S
C2378 C2379 1.374 . S
C2379 H2359 0.950 . S
C2379 C2375 1.385 . S
C2379 C2378 1.374 . S
C2380 C2377 1.499 . S
C2380 C2381 1.373 . S
C2380 C2382 1.389 . S
C2381 H2360 0.950 . S
C2381 C2380 1.373 . S
C2381 C2397 1.377 . S
C2382 C2380 1.389 . S
C2382 C2383 1.524 . S
C2382 C2396 1.377 . S
C2383 C2382 1.524 . S
C2383 C2384 1.397 . S
C2383 C2388 1.363 . S
C2384 H2361 0.950 . S
C2384 C2383 1.397 . S
C2384 C2385 1.334 . S
C2385 H2362 0.950 . S
C2385 C2384 1.334 . S
C2385 C2386 1.287 . S
C2386 C2385 1.287 . S
C2386 C2387 1.524 . S
C2386 H2405 0.913 . S
C2387 H2363 0.950 . S
C2387 C2386 1.524 . S
C2387 C2388 1.415 . S
C2388 H2364 0.950 . S
C2388 C2383 1.363 . S
C2388 C2387 1.415 . S
C2389 H2365 0.951 . S
C2389 C2390 1.366 . S
C2389 C2391 1.388 . S
C2390 C2389 1.366 . S
C2390 C2394 1.385 . S
C2391 H2366 0.951 . S
C2391 C2389 1.388 . S
C2391 C2392 1.366 . S
C2392 C2391 1.366 . S
C2392 C2393 1.414 . S
C2392 C2395 1.499 . S
C2393 H2367 0.950 . S
C2393 C2392 1.414 . S
C2393 C2394 1.374 . S
C2394 H2368 0.950 . S
C2394 C2390 1.385 . S
C2394 C2393 1.374 . S
C2395 C2392 1.499 . S
C2395 C2396 1.373 . S
C2395 C2397 1.389 . S
C2396 H2369 0.950 . S
C2396 C2382 1.377 . S
C2396 C2395 1.373 . S
C2397 C2381 1.377 . S
C2397 C2395 1.389 . S
C2397 C2398 1.524 . S
C2398 C2397 1.524 . S
C2398 C2399 1.397 . S
C2398 C2403 1.363 . S
C2399 H2370 0.950 . S
C2399 C2398 1.397 . S
C2399 C2400 1.334 . S
C2400 H2371 0.950 . S
C2400 C2399 1.334 . S
C2400 C2401 1.287 . S
C2401 C2400 1.287 . S
C2401 C2402 1.524 . S
C2401 H2404 0.999 . S
C2402 H2372 0.950 . S
C2402 C2401 1.524 . S
C2402 C2403 1.415 . S
C2403 H2373 0.950 . S
C2403 C2398 1.363 . S
C2403 C2402 1.415 . S
H2404 C2401 0.999 . S
H2405 C2386 0.913 . S
H2406 C2424 0.951 . S
H2407 C2426 0.951 . S
H2408 C2428 0.950 . S
H2409 C2429 0.950 . S
H2410 C2431 0.950 . S
H2411 C2434 0.950 . S
H2412 C2435 0.950 . S
H2413 C2437 0.950 . S
H2414 C2438 0.950 . S
H2415 C2439 0.951 . S
H2416 C2441 0.951 . S
H2417 C2443 0.950 . S
H2418 C2444 0.950 . S
H2419 C2446 0.950 . S
H2420 C2449 0.950 . S
H2421 C2450 0.950 . S
H2422 C2452 0.950 . S
H2423 C2453 0.950 . S
C2424 H2406 0.951 . S
C2424 C2425 1.366 . S
C2424 C2426 1.388 . S
C2425 C2424 1.366 . S
C2425 C2429 1.385 . S
C2426 H2407 0.951 . S
C2426 C2424 1.388 . S
C2426 C2427 1.366 . S
C2427 C2426 1.366 . S
C2427 C2428 1.414 . S
C2427 C2430 1.499 . S
C2428 H2408 0.950 . S
C2428 C2427 1.414 . S
C2428 C2429 1.374 . S
C2429 H2409 0.950 . S
C2429 C2425 1.385 . S
C2429 C2428 1.374 . S
C2430 C2427 1.499 . S
C2430 C2431 1.373 . S
C2430 C2432 1.389 . S
C2431 H2410 0.950 . S
C2431 C2430 1.373 . S
C2431 C2447 1.377 . S
C2432 C2430 1.389 . S
C2432 C2433 1.524 . S
C2432 C2446 1.377 . S
C2433 C2432 1.524 . S
C2433 C2434 1.397 . S
C2433 C2438 1.363 . S
C2434 H2411 0.950 . S
C2434 C2433 1.397 . S
C2434 C2435 1.334 . S
C2435 H2412 0.950 . S
C2435 C2434 1.334 . S
C2435 C2436 1.287 . S
C2436 C2435 1.287 . S
C2436 C2437 1.524 . S
C2436 H2455 0.913 . S
C2437 H2413 0.950 . S
C2437 C2436 1.524 . S
C2437 C2438 1.415 . S
C2438 H2414 0.950 . S
C2438 C2433 1.363 . S
C2438 C2437 1.415 . S
C2439 H2415 0.951 . S
C2439 C2440 1.366 . S
C2439 C2441 1.388 . S
C2440 C2439 1.366 . S
C2440 C2444 1.385 . S
C2441 H2416 0.951 . S
C2441 C2439 1.388 . S
C2441 C2442 1.366 . S
C2442 C2441 1.366 . S
C2442 C2443 1.414 . S
C2442 C2445 1.499 . S
C2443 H2417 0.950 . S
C2443 C2442 1.414 . S
C2443 C2444 1.374 . S
C2444 H2418 0.950 . S
C2444 C2440 1.385 . S
C2444 C2443 1.374 . S
C2445 C2442 1.499 . S
C2445 C2446 1.373 . S
C2445 C2447 1.389 . S
C2446 H2419 0.950 . S
C2446 C2432 1.377 . S
C2446 C2445 1.373 . S
C2447 C2431 1.377 . S
C2447 C2445 1.389 . S
C2447 C2448 1.524 . S
C2448 C2447 1.524 . S
C2448 C2449 1.397 . S
C2448 C2453 1.363 . S
C2449 H2420 0.950 . S
C2449 C2448 1.397 . S
C2449 C2450 1.334 . S
C2450 H2421 0.950 . S
C2450 C2449 1.334 . S
C2450 C2451 1.287 . S
C2451 C2450 1.287 . S
C2451 C2452 1.524 . S
C2451 H2454 0.999 . S
C2452 H2422 0.950 . S
C2452 C2451 1.524 . S
C2452 C2453 1.415 . S
C2453 H2423 0.950 . S
C2453 C2448 1.363 . S
C2453 C2452 1.415 . S
H2454 C2451 0.999 . S
H2455 C2436 0.913 . S
H2456 C2474 0.951 1_556 S
H2457 C2476 0.938 1_556 S
H2458 C2478 0.950 . S
H2459 C2479 0.950 . S
H2460 C2481 0.950 . S
H2461 C2484 0.950 . S
H2462 C2485 0.950 . S
H2463 C2487 0.950 . S
H2464 C2488 0.975 . S
H2465 C2489 0.951 . S
H2466 C2491 0.949 . S
H2467 C2493 0.950 . S
H2468 C2494 0.950 . S
H2469 C2496 0.908 1_545 S
H2470 C2499 0.950 . S
H2471 C2500 0.950 . S
H2472 C2502 0.950 . S
H2473 C2503 0.950 . S
C2474 H2456 0.951 1_554 S
C2474 C2475 1.366 . S
C2474 C2476 1.388 . S
C2475 C2474 1.366 . S
C2475 C2479 1.385 . S
C2476 H2457 0.938 1_554 S
C2476 C2474 1.388 . S
C2476 C2477 1.366 . S
C2477 C2476 1.366 . S
C2477 C2478 1.414 . S
C2477 C2480 1.499 . S
C2478 H2458 0.950 . S
C2478 C2477 1.414 . S
C2478 C2479 1.374 . S
C2479 H2459 0.950 . S
C2479 C2475 1.385 . S
C2479 C2478 1.374 . S
C2480 C2477 1.499 . S
C2480 C2481 1.373 . S
C2480 C2482 1.389 . S
C2481 H2460 0.950 . S
C2481 C2480 1.373 . S
C2481 C2497 1.377 . S
C2482 C2480 1.389 . S
C2482 C2483 1.524 1_565 S
C2482 C2496 1.403 . S
C2483 C2482 1.524 1_545 S
C2483 C2484 1.397 . S
C2483 C2488 1.315 1_554 S
C2484 H2461 0.950 . S
C2484 C2483 1.397 . S
C2484 C2485 1.334 . S
C2485 H2462 0.950 . S
C2485 C2484 1.334 . S
C2485 C2486 1.287 . S
C2486 C2485 1.287 . S
C2486 C2487 1.524 1_554 S
C2486 H2505 0.913 . S
C2487 H2463 0.950 . S
C2487 C2486 1.524 1_556 S
C2487 C2488 1.441 . S
C2488 H2464 0.975 . S
C2488 C2483 1.315 1_556 S
C2488 C2487 1.441 . S
C2489 H2465 0.951 . S
C2489 C2490 1.366 . S
C2489 C2491 1.388 . S
C2490 C2489 1.366 . S
C2490 C2494 1.385 . S
C2491 H2466 0.949 . S
C2491 C2489 1.388 . S
C2491 C2492 1.369 . S
C2492 C2491 1.369 . S
C2492 C2493 1.428 . S
C2492 C2495 1.483 1_545 S
C2493 H2467 0.950 . S
C2493 C2492 1.428 . S
C2493 C2494 1.374 . S
C2494 H2468 0.950 . S
C2494 C2490 1.385 . S
C2494 C2493 1.374 . S
C2495 C2492 1.483 1_565 S
C2495 C2496 1.390 . S
C2495 C2497 1.389 . S
C2496 H2469 0.908 1_565 S
C2496 C2482 1.403 . S
C2496 C2495 1.390 . S
C2497 C2481 1.377 . S
C2497 C2495 1.389 . S
C2497 C2498 1.524 . S
C2498 C2497 1.524 . S
C2498 C2499 1.397 . S
C2498 C2503 1.363 . S
C2499 H2470 0.950 . S
C2499 C2498 1.397 . S
C2499 C2500 1.334 . S
C2500 H2471 0.950 . S
C2500 C2499 1.334 . S
C2500 C2501 1.287 . S
C2501 C2500 1.287 . S
C2501 C2502 1.524 . S
C2501 H2504 0.999 . S
C2502 H2472 0.950 . S
C2502 C2501 1.524 . S
C2502 C2503 1.415 . S
C2503 H2473 0.950 . S
C2503 C2498 1.363 . S
C2503 C2502 1.415 . S
H2504 C2501 0.999 . S
H2505 C2486 0.913 . S
H2506 C2524 0.951 . S
H2507 C2526 0.951 . S
H2508 C2528 0.950 . S
H2509 C2529 0.950 . S
H2510 C2531 0.950 . S
H2511 C2534 0.950 . S
H2512 C2535 0.950 . S
H2513 C2537 0.950 . S
H2514 C2538 0.950 . S
H2515 C2539 0.951 . S
H2516 C2541 0.951 . S
H2517 C2543 0.950 . S
H2518 C2544 0.950 . S
H2519 C2546 0.950 . S
H2520 C2549 0.950 . S
H2521 C2550 0.950 . S
H2522 C2552 0.950 . S
H2523 C2553 0.950 . S
C2524 H2506 0.951 . S
C2524 C2525 1.366 . S
C2524 C2526 1.388 . S
C2525 C2524 1.366 . S
C2525 C2529 1.385 1_556 S
C2526 H2507 0.951 . S
C2526 C2524 1.388 . S
C2526 C2527 1.366 . S
C2527 C2526 1.366 . S
C2527 C2528 1.414 1_556 S
C2527 C2530 1.499 . S
C2528 H2508 0.950 . S
C2528 C2527 1.414 1_554 S
C2528 C2529 1.374 . S
C2529 H2509 0.950 . S
C2529 C2525 1.385 1_554 S
C2529 C2528 1.374 . S
C2530 C2527 1.499 . S
C2530 C2531 1.373 1_556 S
C2530 C2532 1.389 . S
C2531 H2510 0.950 . S
C2531 C2530 1.373 1_554 S
C2531 C2547 1.377 . S
C2532 C2530 1.389 . S
C2532 C2533 1.524 . S
C2532 C2546 1.377 . S
C2533 C2532 1.524 . S
C2533 C2534 1.397 . S
C2533 C2538 1.363 . S
C2534 H2511 0.950 . S
C2534 C2533 1.397 . S
C2534 C2535 1.334 . S
C2535 H2512 0.950 . S
C2535 C2534 1.334 . S
C2535 C2536 1.287 . S
C2536 C2535 1.287 . S
C2536 C2537 1.524 . S
C2536 H2555 0.913 . S
C2537 H2513 0.950 . S
C2537 C2536 1.524 . S
C2537 C2538 1.415 . S
C2538 H2514 0.950 . S
C2538 C2533 1.363 . S
C2538 C2537 1.415 . S
C2539 H2515 0.951 . S
C2539 C2540 1.366 1_554 S
C2539 C2541 1.388 . S
C2540 C2539 1.366 1_556 S
C2540 C2544 1.385 . S
C2541 H2516 0.951 . S
C2541 C2539 1.388 . S
C2541 C2542 1.366 1_554 S
C2542 C2541 1.366 1_556 S
C2542 C2543 1.414 . S
C2542 C2545 1.499 . S
C2543 H2517 0.950 . S
C2543 C2542 1.414 . S
C2543 C2544 1.374 . S
C2544 H2518 0.950 . S
C2544 C2540 1.385 . S
C2544 C2543 1.374 . S
C2545 C2542 1.499 . S
C2545 C2546 1.373 . S
C2545 C2547 1.389 1_556 S
C2546 H2519 0.950 . S
C2546 C2532 1.377 . S
C2546 C2545 1.373 . S
C2547 C2531 1.377 . S
C2547 C2545 1.389 1_554 S
C2547 C2548 1.524 . S
C2548 C2547 1.524 . S
C2548 C2549 1.397 . S
C2548 C2553 1.363 . S
C2549 H2520 0.950 . S
C2549 C2548 1.397 . S
C2549 C2550 1.334 . S
C2550 H2521 0.950 . S
C2550 C2549 1.334 . S
C2550 C2551 1.287 . S
C2551 C2550 1.287 . S
C2551 C2552 1.524 . S
C2551 H2554 0.999 . S
C2552 H2522 0.950 . S
C2552 C2551 1.524 . S
C2552 C2553 1.415 . S
C2553 H2523 0.950 . S
C2553 C2548 1.363 . S
C2553 C2552 1.415 . S
H2554 C2551 0.999 . S
H2555 C2536 0.913 . S
H2556 C2574 0.951 . S
H2557 C2576 0.951 . S
H2558 C2578 0.950 . S
H2559 C2579 0.950 . S
H2560 C2581 0.950 . S
H2561 C2584 0.950 . S
H2562 C2585 0.950 . S
H2563 C2587 0.950 . S
H2564 C2588 0.950 . S
H2565 C2589 0.951 . S
H2566 C2591 0.951 . S
H2567 C2593 0.950 . S
H2568 C2594 0.950 . S
H2569 C2596 0.950 . S
H2570 C2599 0.950 . S
H2571 C2600 0.950 . S
H2572 C2602 0.950 . S
H2573 C2603 0.950 . S
C2574 H2556 0.951 . S
C2574 C2575 1.366 . S
C2574 C2576 1.388 . S
C2575 C2574 1.366 . S
C2575 C2579 1.385 . S
C2576 H2557 0.951 . S
C2576 C2574 1.388 . S
C2576 C2577 1.366 . S
C2577 C2576 1.366 . S
C2577 C2578 1.414 . S
C2577 C2580 1.499 . S
C2578 H2558 0.950 . S
C2578 C2577 1.414 . S
C2578 C2579 1.374 . S
C2579 H2559 0.950 . S
C2579 C2575 1.385 . S
C2579 C2578 1.374 . S
C2580 C2577 1.499 . S
C2580 C2581 1.373 . S
C2580 C2582 1.389 . S
C2581 H2560 0.950 . S
C2581 C2580 1.373 . S
C2581 C2597 1.377 . S
C2582 C2580 1.389 . S
C2582 C2583 1.524 . S
C2582 C2596 1.377 . S
C2583 C2582 1.524 . S
C2583 C2584 1.397 . S
C2583 C2588 1.363 . S
C2584 H2561 0.950 . S
C2584 C2583 1.397 . S
C2584 C2585 1.334 . S
C2585 H2562 0.950 . S
C2585 C2584 1.334 . S
C2585 C2586 1.287 . S
C2586 C2585 1.287 . S
C2586 C2587 1.524 . S
C2586 H2605 0.913 . S
C2587 H2563 0.950 . S
C2587 C2586 1.524 . S
C2587 C2588 1.415 . S
C2588 H2564 0.950 . S
C2588 C2583 1.363 . S
C2588 C2587 1.415 . S
C2589 H2565 0.951 . S
C2589 C2590 1.366 . S
C2589 C2591 1.388 . S
C2590 C2589 1.366 . S
C2590 C2594 1.385 . S
C2591 H2566 0.951 . S
C2591 C2589 1.388 . S
C2591 C2592 1.366 . S
C2592 C2591 1.366 . S
C2592 C2593 1.414 . S
C2592 C2595 1.499 . S
C2593 H2567 0.950 . S
C2593 C2592 1.414 . S
C2593 C2594 1.374 . S
C2594 H2568 0.950 . S
C2594 C2590 1.385 . S
C2594 C2593 1.374 . S
C2595 C2592 1.499 . S
C2595 C2596 1.373 . S
C2595 C2597 1.389 . S
C2596 H2569 0.950 . S
C2596 C2582 1.377 . S
C2596 C2595 1.373 . S
C2597 C2581 1.377 . S
C2597 C2595 1.389 . S
C2597 C2598 1.524 . S
C2598 C2597 1.524 . S
C2598 C2599 1.397 . S
C2598 C2603 1.363 . S
C2599 H2570 0.950 . S
C2599 C2598 1.397 . S
C2599 C2600 1.334 . S
C2600 H2571 0.950 . S
C2600 C2599 1.334 . S
C2600 C2601 1.287 . S
C2601 C2600 1.287 . S
C2601 C2602 1.524 . S
C2601 H2604 0.999 . S
C2602 H2572 0.950 . S
C2602 C2601 1.524 . S
C2602 C2603 1.415 . S
C2603 H2573 0.950 . S
C2603 C2598 1.363 . S
C2603 C2602 1.415 . S
H2604 C2601 0.999 . S
H2605 C2586 0.913 . S
H2606 C2624 0.951 . S
H2607 C2626 0.951 . S
H2608 C2628 0.950 . S
H2609 C2629 0.950 . S
H2610 C2631 0.950 . S
H2611 C2634 0.950 . S
H2612 C2635 0.950 . S
H2613 C2637 0.950 . S
H2614 C2638 0.950 . S
H2615 C2639 0.951 1_455 S
H2616 C2641 0.951 . S
H2617 C2643 0.950 . S
H2618 C2644 0.950 . S
H2619 C2646 0.950 . S
H2620 C2649 0.950 . S
H2621 C2650 0.950 . S
H2622 C2652 0.950 . S
H2623 C2653 0.950 . S
C2624 H2606 0.951 . S
C2624 C2625 1.366 . S
C2624 C2626 1.388 . S
C2625 C2624 1.366 . S
C2625 C2629 1.385 . S
C2626 H2607 0.951 . S
C2626 C2624 1.388 . S
C2626 C2627 1.366 . S
C2627 C2626 1.366 . S
C2627 C2628 1.414 . S
C2627 C2630 1.499 . S
C2628 H2608 0.950 . S
C2628 C2627 1.414 . S
C2628 C2629 1.374 . S
C2629 H2609 0.950 . S
C2629 C2625 1.385 . S
C2629 C2628 1.374 . S
C2630 C2627 1.499 . S
C2630 C2631 1.373 . S
C2630 C2632 1.389 . S
C2631 H2610 0.950 . S
C2631 C2630 1.373 . S
C2631 C2647 1.377 . S
C2632 C2630 1.389 . S
C2632 C2633 1.524 . S
C2632 C2646 1.377 . S
C2633 C2632 1.524 . S
C2633 C2634 1.397 . S
C2633 C2638 1.363 . S
C2634 H2611 0.950 . S
C2634 C2633 1.397 . S
C2634 C2635 1.334 . S
C2635 H2612 0.950 . S
C2635 C2634 1.334 . S
C2635 C2636 1.287 . S
C2636 C2635 1.287 . S
C2636 C2637 1.524 . S
C2636 H2655 0.913 . S
C2637 H2613 0.950 . S
C2637 C2636 1.524 . S
C2637 C2638 1.415 . S
C2638 H2614 0.950 . S
C2638 C2633 1.363 . S
C2638 C2637 1.415 . S
C2639 H2615 0.951 1_655 S
C2639 C2640 1.366 . S
C2639 C2641 1.388 . S
C2640 C2639 1.366 . S
C2640 C2644 1.386 . S
C2641 H2616 0.951 . S
C2641 C2639 1.388 . S
C2641 C2642 1.366 . S
C2642 C2641 1.366 . S
C2642 C2643 1.414 . S
C2642 C2645 1.499 . S
C2643 H2617 0.950 . S
C2643 C2642 1.414 . S
C2643 C2644 1.374 . S
C2644 H2618 0.950 . S
C2644 C2640 1.386 . S
C2644 C2643 1.374 . S
C2645 C2642 1.499 . S
C2645 C2646 1.373 . S
C2645 C2647 1.389 . S
C2646 H2619 0.950 . S
C2646 C2632 1.377 . S
C2646 C2645 1.373 . S
C2647 C2631 1.377 . S
C2647 C2645 1.389 . S
C2647 C2648 1.524 . S
C2648 C2647 1.524 . S
C2648 C2649 1.397 . S
C2648 C2653 1.363 . S
C2649 H2620 0.950 . S
C2649 C2648 1.397 . S
C2649 C2650 1.334 . S
C2650 H2621 0.950 . S
C2650 C2649 1.334 . S
C2650 C2651 1.287 . S
C2651 C2650 1.287 . S
C2651 C2652 1.524 . S
C2651 H2654 1.015 . S
C2652 H2622 0.950 . S
C2652 C2651 1.524 . S
C2652 C2653 1.415 . S
C2653 H2623 0.950 . S
C2653 C2648 1.363 . S
C2653 C2652 1.415 . S
H2654 C2651 1.015 . S
H2655 C2636 0.913 . S
H2656 C2674 0.951 . S
H2657 C2676 0.951 . S
H2658 C2678 0.950 . S
H2659 C2679 0.950 . S
H2660 C2681 0.950 . S
H2661 C2684 0.950 . S
H2662 C2685 0.950 . S
H2663 C2687 0.950 . S
H2664 C2688 0.950 . S
H2665 C2689 0.951 . S
H2666 C2691 0.951 . S
H2667 C2693 0.950 . S
H2668 C2694 0.950 . S
H2669 C2696 0.950 . S
H2670 C2699 0.950 . S
H2671 C2700 0.950 . S
H2672 C2702 0.950 . S
H2673 C2703 0.950 . S
C2674 H2656 0.951 . S
C2674 C2675 1.366 . S
C2674 C2676 1.388 . S
C2675 C2674 1.366 . S
C2675 C2679 1.385 . S
C2676 H2657 0.951 . S
C2676 C2674 1.388 . S
C2676 C2677 1.366 . S
C2677 C2676 1.366 . S
C2677 C2678 1.414 . S
C2677 C2680 1.499 . S
C2678 H2658 0.950 . S
C2678 C2677 1.414 . S
C2678 C2679 1.374 . S
C2679 H2659 0.950 . S
C2679 C2675 1.385 . S
C2679 C2678 1.374 . S
C2680 C2677 1.499 . S
C2680 C2681 1.373 . S
C2680 C2682 1.389 . S
C2681 H2660 0.950 . S
C2681 C2680 1.373 . S
C2681 C2697 1.377 . S
C2682 C2680 1.389 . S
C2682 C2683 1.524 . S
C2682 C2696 1.377 . S
C2683 C2682 1.524 . S
C2683 C2684 1.397 . S
C2683 C2688 1.363 . S
C2684 H2661 0.950 . S
C2684 C2683 1.397 . S
C2684 C2685 1.334 . S
C2685 H2662 0.950 . S
C2685 C2684 1.334 . S
C2685 C2686 1.287 . S
C2686 C2685 1.287 . S
C2686 C2687 1.524 . S
C2686 H2705 0.913 . S
C2687 H2663 0.950 . S
C2687 C2686 1.524 . S
C2687 C2688 1.415 . S
C2688 H2664 0.950 . S
C2688 C2683 1.363 . S
C2688 C2687 1.415 . S
C2689 H2665 0.951 . S
C2689 C2690 1.366 . S
C2689 C2691 1.388 . S
C2690 C2689 1.366 . S
C2690 C2694 1.385 . S
C2691 H2666 0.951 . S
C2691 C2689 1.388 . S
C2691 C2692 1.366 . S
C2692 C2691 1.366 . S
C2692 C2693 1.414 . S
C2692 C2695 1.499 . S
C2693 H2667 0.950 . S
C2693 C2692 1.414 . S
C2693 C2694 1.374 . S
C2694 H2668 0.950 . S
C2694 C2690 1.385 . S
C2694 C2693 1.374 . S
C2695 C2692 1.499 . S
C2695 C2696 1.373 . S
C2695 C2697 1.389 . S
C2696 H2669 0.950 . S
C2696 C2682 1.377 . S
C2696 C2695 1.373 . S
C2697 C2681 1.377 . S
C2697 C2695 1.389 . S
C2697 C2698 1.524 . S
C2698 C2697 1.524 . S
C2698 C2699 1.397 . S
C2698 C2703 1.363 . S
C2699 H2670 0.950 . S
C2699 C2698 1.397 . S
C2699 C2700 1.334 . S
C2700 H2671 0.950 . S
C2700 C2699 1.334 . S
C2700 C2701 1.287 . S
C2701 C2700 1.287 . S
C2701 C2702 1.524 . S
C2701 H2704 0.999 . S
C2702 H2672 0.950 . S
C2702 C2701 1.524 . S
C2702 C2703 1.415 . S
C2703 H2673 0.950 . S
C2703 C2698 1.363 . S
C2703 C2702 1.415 . S
H2704 C2701 0.999 . S
H2705 C2686 0.913 . S
H2706 C2724 0.951 . S
H2707 C2726 0.951 . S
H2708 C2728 0.950 . S
H2709 C2729 0.950 . S
H2710 C2731 0.950 . S
H2711 C2734 0.950 . S
H2712 C2735 0.950 . S
H2713 C2737 0.950 . S
H2714 C2738 0.950 . S
H2715 C2739 0.951 . S
H2716 C2741 0.951 . S
H2717 C2743 0.950 . S
H2718 C2744 0.950 . S
H2719 C2746 0.950 . S
H2720 C2749 0.950 . S
H2721 C2750 0.950 . S
H2722 C2752 0.950 . S
H2723 C2753 0.950 . S
C2724 H2706 0.951 . S
C2724 C2725 1.366 . S
C2724 C2726 1.388 . S
C2725 C2724 1.366 . S
C2725 C2729 1.385 . S
C2726 H2707 0.951 . S
C2726 C2724 1.388 . S
C2726 C2727 1.366 . S
C2727 C2726 1.366 . S
C2727 C2728 1.414 . S
C2727 C2730 1.499 . S
C2728 H2708 0.950 . S
C2728 C2727 1.414 . S
C2728 C2729 1.374 . S
C2729 H2709 0.950 . S
C2729 C2725 1.385 . S
C2729 C2728 1.374 . S
C2730 C2727 1.499 . S
C2730 C2731 1.373 . S
C2730 C2732 1.389 . S
C2731 H2710 0.950 . S
C2731 C2730 1.373 . S
C2731 C2747 1.377 . S
C2732 C2730 1.389 . S
C2732 C2733 1.524 . S
C2732 C2746 1.377 . S
C2733 C2732 1.524 . S
C2733 C2734 1.397 . S
C2733 C2738 1.363 . S
C2734 H2711 0.950 . S
C2734 C2733 1.397 . S
C2734 C2735 1.334 . S
C2735 H2712 0.950 . S
C2735 C2734 1.334 . S
C2735 C2736 1.287 . S
C2736 C2735 1.287 . S
C2736 C2737 1.524 . S
C2736 H2755 0.913 . S
C2737 H2713 0.950 . S
C2737 C2736 1.524 . S
C2737 C2738 1.415 . S
C2738 H2714 0.950 . S
C2738 C2733 1.363 . S
C2738 C2737 1.415 . S
C2739 H2715 0.951 . S
C2739 C2740 1.366 . S
C2739 C2741 1.388 . S
C2740 C2739 1.366 . S
C2740 C2744 1.385 . S
C2741 H2716 0.951 . S
C2741 C2739 1.388 . S
C2741 C2742 1.366 . S
C2742 C2741 1.366 . S
C2742 C2743 1.414 . S
C2742 C2745 1.499 . S
C2743 H2717 0.950 . S
C2743 C2742 1.414 . S
C2743 C2744 1.374 . S
C2744 H2718 0.950 . S
C2744 C2740 1.385 . S
C2744 C2743 1.374 . S
C2745 C2742 1.499 . S
C2745 C2746 1.373 . S
C2745 C2747 1.389 . S
C2746 H2719 0.950 . S
C2746 C2732 1.377 . S
C2746 C2745 1.373 . S
C2747 C2731 1.377 . S
C2747 C2745 1.389 . S
C2747 C2748 1.524 . S
C2748 C2747 1.524 . S
C2748 C2749 1.397 . S
C2748 C2753 1.363 . S
C2749 H2720 0.950 . S
C2749 C2748 1.397 . S
C2749 C2750 1.334 . S
C2750 H2721 0.950 . S
C2750 C2749 1.334 . S
C2750 C2751 1.287 . S
C2751 C2750 1.287 . S
C2751 C2752 1.524 . S
C2751 H2754 0.999 . S
C2752 H2722 0.950 . S
C2752 C2751 1.524 . S
C2752 C2753 1.415 . S
C2753 H2723 0.950 . S
C2753 C2748 1.363 . S
C2753 C2752 1.415 . S
H2754 C2751 0.999 . S
H2755 C2736 0.913 . S
H2756 C2774 0.951 . S
H2757 C2776 0.951 . S
H2758 C2778 0.950 . S
H2759 C2779 0.950 . S
H2760 C2781 0.950 . S
H2761 C2784 0.950 . S
H2762 C2785 0.950 . S
H2763 C2787 0.950 . S
H2764 C2788 0.950 . S
H2765 C2789 0.951 . S
H2766 C2791 0.951 . S
H2767 C2793 0.950 . S
H2768 C2794 0.950 . S
H2769 C2796 0.950 . S
H2770 C2799 0.950 . S
H2771 C2800 0.950 . S
H2772 C2802 0.950 . S
H2773 C2803 0.950 . S
C2774 H2756 0.951 . S
C2774 C2775 1.366 . S
C2774 C2776 1.388 . S
C2775 C2774 1.366 . S
C2775 C2779 1.385 . S
C2776 H2757 0.951 . S
C2776 C2774 1.388 . S
C2776 C2777 1.366 . S
C2777 C2776 1.366 . S
C2777 C2778 1.414 . S
C2777 C2780 1.499 . S
C2778 H2758 0.950 . S
C2778 C2777 1.414 . S
C2778 C2779 1.374 . S
C2779 H2759 0.950 . S
C2779 C2775 1.385 . S
C2779 C2778 1.374 . S
C2780 C2777 1.499 . S
C2780 C2781 1.373 . S
C2780 C2782 1.389 . S
C2781 H2760 0.950 . S
C2781 C2780 1.373 . S
C2781 C2797 1.377 . S
C2782 C2780 1.389 . S
C2782 C2783 1.524 . S
C2782 C2796 1.377 . S
C2783 C2782 1.524 . S
C2783 C2784 1.397 . S
C2783 C2788 1.363 . S
C2784 H2761 0.950 . S
C2784 C2783 1.397 . S
C2784 C2785 1.334 . S
C2785 H2762 0.950 . S
C2785 C2784 1.334 . S
C2785 C2786 1.287 . S
C2786 C2785 1.287 . S
C2786 C2787 1.524 . S
C2786 H2805 0.913 . S
C2787 H2763 0.950 . S
C2787 C2786 1.524 . S
C2787 C2788 1.415 . S
C2788 H2764 0.950 . S
C2788 C2783 1.363 . S
C2788 C2787 1.415 . S
C2789 H2765 0.951 . S
C2789 C2790 1.366 . S
C2789 C2791 1.388 . S
C2790 C2789 1.366 . S
C2790 C2794 1.385 . S
C2791 H2766 0.951 . S
C2791 C2789 1.388 . S
C2791 C2792 1.366 . S
C2792 C2791 1.366 . S
C2792 C2793 1.414 . S
C2792 C2795 1.499 . S
C2793 H2767 0.950 . S
C2793 C2792 1.414 . S
C2793 C2794 1.374 . S
C2794 H2768 0.950 . S
C2794 C2790 1.385 . S
C2794 C2793 1.374 . S
C2795 C2792 1.499 . S
C2795 C2796 1.373 . S
C2795 C2797 1.389 . S
C2796 H2769 0.950 . S
C2796 C2782 1.377 . S
C2796 C2795 1.373 . S
C2797 C2781 1.377 . S
C2797 C2795 1.389 . S
C2797 C2798 1.524 . S
C2798 C2797 1.524 . S
C2798 C2799 1.397 . S
C2798 C2803 1.363 . S
C2799 H2770 0.950 . S
C2799 C2798 1.397 . S
C2799 C2800 1.334 . S
C2800 H2771 0.950 . S
C2800 C2799 1.334 . S
C2800 C2801 1.287 . S
C2801 C2800 1.287 . S
C2801 C2802 1.524 . S
C2801 H2804 0.999 . S
C2802 H2772 0.950 . S
C2802 C2801 1.524 . S
C2802 C2803 1.415 . S
C2803 H2773 0.950 . S
C2803 C2798 1.363 . S
C2803 C2802 1.415 . S
H2804 C2801 0.999 . S
H2805 C2786 0.913 . S
H2806 C2824 0.951 . S
H2807 C2826 0.951 . S
H2808 C2828 0.950 . S
H2809 C2829 0.950 . S
H2810 C2831 0.950 . S
H2811 C2834 0.950 . S
H2812 C2835 0.950 . S
H2813 C2837 0.950 . S
H2814 C2838 0.950 . S
H2815 C2839 0.951 . S
H2816 C2841 0.951 . S
H2817 C2843 0.950 . S
H2818 C2844 0.950 . S
H2819 C2846 0.950 . S
H2820 C2849 0.950 . S
H2821 C2850 0.950 . S
H2822 C2852 0.950 . S
H2823 C2853 0.950 . S
C2824 H2806 0.951 . S
C2824 C2825 1.366 . S
C2824 C2826 1.388 . S
C2825 C2824 1.366 . S
C2825 C2829 1.385 . S
C2826 H2807 0.951 . S
C2826 C2824 1.388 . S
C2826 C2827 1.366 . S
C2827 C2826 1.366 . S
C2827 C2828 1.414 . S
C2827 C2830 1.499 . S
C2828 H2808 0.950 . S
C2828 C2827 1.414 . S
C2828 C2829 1.374 . S
C2829 H2809 0.950 . S
C2829 C2825 1.385 . S
C2829 C2828 1.374 . S
C2830 C2827 1.499 . S
C2830 C2831 1.373 . S
C2830 C2832 1.389 . S
C2831 H2810 0.950 . S
C2831 C2830 1.373 . S
C2831 C2847 1.377 . S
C2832 C2830 1.389 . S
C2832 C2833 1.524 . S
C2832 C2846 1.377 . S
C2833 C2832 1.524 . S
C2833 C2834 1.397 . S
C2833 C2838 1.363 . S
C2834 H2811 0.950 . S
C2834 C2833 1.397 . S
C2834 C2835 1.334 . S
C2835 H2812 0.950 . S
C2835 C2834 1.334 . S
C2835 C2836 1.287 . S
C2836 C2835 1.287 . S
C2836 C2837 1.524 . S
C2836 H2855 0.913 . S
C2837 H2813 0.950 . S
C2837 C2836 1.524 . S
C2837 C2838 1.415 . S
C2838 H2814 0.950 . S
C2838 C2833 1.363 . S
C2838 C2837 1.415 . S
C2839 H2815 0.951 . S
C2839 C2840 1.366 . S
C2839 C2841 1.388 . S
C2840 C2839 1.366 . S
C2840 C2844 1.385 . S
C2841 H2816 0.951 . S
C2841 C2839 1.388 . S
C2841 C2842 1.366 . S
C2842 C2841 1.366 . S
C2842 C2843 1.414 . S
C2842 C2845 1.499 . S
C2843 H2817 0.950 . S
C2843 C2842 1.414 . S
C2843 C2844 1.374 . S
C2844 H2818 0.950 . S
C2844 C2840 1.385 . S
C2844 C2843 1.374 . S
C2845 C2842 1.499 . S
C2845 C2846 1.373 . S
C2845 C2847 1.389 . S
C2846 H2819 0.950 . S
C2846 C2832 1.377 . S
C2846 C2845 1.373 . S
C2847 C2831 1.377 . S
C2847 C2845 1.389 . S
C2847 C2848 1.524 . S
C2848 C2847 1.524 . S
C2848 C2849 1.397 . S
C2848 C2853 1.363 . S
C2849 H2820 0.950 . S
C2849 C2848 1.397 . S
C2849 C2850 1.334 . S
C2850 H2821 0.950 . S
C2850 C2849 1.334 . S
C2850 C2851 1.287 . S
C2851 C2850 1.287 . S
C2851 C2852 1.524 . S
C2851 H2854 0.999 . S
C2852 H2822 0.950 . S
C2852 C2851 1.524 . S
C2852 C2853 1.415 . S
C2853 H2823 0.950 . S
C2853 C2848 1.363 . S
C2853 C2852 1.415 . S
H2854 C2851 0.999 . S
H2855 C2836 0.913 . S
H2856 C2874 0.951 . S
H2857 C2876 0.951 . S
H2858 C2878 0.950 . S
H2859 C2879 0.950 . S
H2860 C2881 0.950 . S
H2861 C2884 0.950 . S
H2862 C2885 0.950 . S
H2863 C2887 0.950 1_556 S
H2864 C2888 0.950 . S
H2865 C2889 0.951 1_545 S
H2866 C2891 0.951 . S
H2867 C2893 0.950 . S
H2868 C2894 0.950 . S
H2869 C2896 0.950 . S
H2870 C2899 0.950 . S
H2871 C2900 0.950 . S
H2872 C2902 0.950 . S
H2873 C2903 0.950 . S
C2874 H2856 0.951 . S
C2874 C2875 1.366 . S
C2874 C2876 1.388 . S
C2875 C2874 1.366 . S
C2875 C2879 1.385 . S
C2876 H2857 0.951 . S
C2876 C2874 1.388 . S
C2876 C2877 1.366 . S
C2877 C2876 1.366 . S
C2877 C2878 1.414 . S
C2877 C2880 1.499 . S
C2878 H2858 0.950 . S
C2878 C2877 1.414 . S
C2878 C2879 1.374 . S
C2879 H2859 0.950 . S
C2879 C2875 1.385 . S
C2879 C2878 1.374 . S
C2880 C2877 1.499 . S
C2880 C2881 1.373 . S
C2880 C2882 1.389 . S
C2881 H2860 0.950 . S
C2881 C2880 1.373 . S
C2881 C2897 1.377 . S
C2882 C2880 1.389 . S
C2882 C2883 1.524 . S
C2882 C2896 1.377 . S
C2883 C2882 1.524 . S
C2883 C2884 1.397 . S
C2883 C2888 1.363 . S
C2884 H2861 0.950 . S
C2884 C2883 1.397 . S
C2884 C2885 1.334 . S
C2885 H2862 0.950 . S
C2885 C2884 1.334 . S
C2885 C2886 1.287 . S
C2886 C2885 1.287 . S
C2886 C2887 1.524 . S
C2886 H2905 0.933 . S
C2887 H2863 0.950 1_554 S
C2887 C2886 1.524 . S
C2887 C2888 1.415 . S
C2888 H2864 0.950 . S
C2888 C2883 1.363 . S
C2888 C2887 1.415 . S
C2889 H2865 0.951 1_565 S
C2889 C2890 1.366 . S
C2889 C2891 1.388 . S
C2890 C2889 1.366 . S
C2890 C2894 1.385 . S
C2891 H2866 0.951 . S
C2891 C2889 1.388 . S
C2891 C2892 1.366 . S
C2892 C2891 1.366 . S
C2892 C2893 1.414 . S
C2892 C2895 1.499 . S
C2893 H2867 0.950 . S
C2893 C2892 1.414 . S
C2893 C2894 1.374 . S
C2894 H2868 0.950 . S
C2894 C2890 1.385 . S
C2894 C2893 1.374 . S
C2895 C2892 1.499 . S
C2895 C2896 1.373 . S
C2895 C2897 1.389 . S
C2896 H2869 0.950 . S
C2896 C2882 1.377 . S
C2896 C2895 1.373 . S
C2897 C2881 1.377 . S
C2897 C2895 1.389 . S
C2897 C2898 1.524 . S
C2898 C2897 1.524 . S
C2898 C2899 1.397 . S
C2898 C2903 1.363 . S
C2899 H2870 0.950 . S
C2899 C2898 1.397 . S
C2899 C2900 1.334 . S
C2900 H2871 0.950 . S
C2900 C2899 1.334 . S
C2900 C2901 1.287 . S
C2901 C2900 1.287 . S
C2901 C2902 1.524 . S
C2901 H2904 0.999 . S
C2902 H2872 0.950 . S
C2902 C2901 1.524 . S
C2902 C2903 1.415 . S
C2903 H2873 0.950 . S
C2903 C2898 1.363 . S
C2903 C2902 1.415 . S
H2904 C2901 0.999 . S
H2905 C2886 0.933 . S
H2906 C2924 0.951 . S
H2907 C2926 0.951 . S
H2908 C2928 0.950 . S
H2909 C2929 0.950 . S
H2910 C2931 0.950 . S
H2911 C2934 0.950 . S
H2912 C2935 0.950 . S
H2913 C2937 0.950 . S
H2914 C2938 0.950 . S
H2915 C2939 0.951 . S
H2916 C2941 0.951 . S
H2917 C2943 0.950 . S
H2918 C2944 0.950 . S
H2919 C2946 0.950 . S
H2920 C2949 0.950 . S
H2921 C2950 0.950 . S
H2922 C2952 0.950 . S
H2923 C2953 0.950 . S
C2924 H2906 0.951 . S
C2924 C2925 1.366 . S
C2924 C2926 1.388 . S
C2925 C2924 1.366 . S
C2925 C2929 1.385 . S
C2926 H2907 0.951 . S
C2926 C2924 1.388 . S
C2926 C2927 1.366 . S
C2927 C2926 1.366 . S
C2927 C2928 1.414 . S
C2927 C2930 1.499 . S
C2928 H2908 0.950 . S
C2928 C2927 1.414 . S
C2928 C2929 1.374 . S
C2929 H2909 0.950 . S
C2929 C2925 1.385 . S
C2929 C2928 1.374 . S
C2930 C2927 1.499 . S
C2930 C2931 1.373 . S
C2930 C2932 1.389 . S
C2931 H2910 0.950 . S
C2931 C2930 1.373 . S
C2931 C2947 1.377 . S
C2932 C2930 1.389 . S
C2932 C2933 1.524 . S
C2932 C2946 1.377 . S
C2933 C2932 1.524 . S
C2933 C2934 1.397 . S
C2933 C2938 1.363 . S
C2934 H2911 0.950 . S
C2934 C2933 1.397 . S
C2934 C2935 1.334 . S
C2935 H2912 0.950 . S
C2935 C2934 1.334 . S
C2935 C2936 1.287 . S
C2936 C2935 1.287 . S
C2936 C2937 1.524 . S
C2936 H2955 0.913 . S
C2937 H2913 0.950 . S
C2937 C2936 1.524 . S
C2937 C2938 1.415 . S
C2938 H2914 0.950 . S
C2938 C2933 1.363 . S
C2938 C2937 1.415 . S
C2939 H2915 0.951 . S
C2939 C2940 1.366 . S
C2939 C2941 1.388 . S
C2940 C2939 1.366 . S
C2940 C2944 1.385 . S
C2941 H2916 0.951 . S
C2941 C2939 1.388 . S
C2941 C2942 1.366 . S
C2942 C2941 1.366 . S
C2942 C2943 1.414 . S
C2942 C2945 1.499 . S
C2943 H2917 0.950 . S
C2943 C2942 1.414 . S
C2943 C2944 1.374 . S
C2944 H2918 0.950 . S
C2944 C2940 1.385 . S
C2944 C2943 1.374 . S
C2945 C2942 1.499 . S
C2945 C2946 1.373 . S
C2945 C2947 1.389 . S
C2946 H2919 0.950 . S
C2946 C2932 1.377 . S
C2946 C2945 1.373 . S
C2947 C2931 1.377 . S
C2947 C2945 1.389 . S
C2947 C2948 1.524 . S
C2948 C2947 1.524 . S
C2948 C2949 1.397 . S
C2948 C2953 1.363 . S
C2949 H2920 0.950 . S
C2949 C2948 1.397 . S
C2949 C2950 1.334 . S
C2950 H2921 0.950 . S
C2950 C2949 1.334 . S
C2950 C2951 1.287 . S
C2951 C2950 1.287 . S
C2951 C2952 1.524 . S
C2951 H2954 0.999 . S
C2952 H2922 0.950 . S
C2952 C2951 1.524 . S
C2952 C2953 1.415 . S
C2953 H2923 0.950 . S
C2953 C2948 1.363 . S
C2953 C2952 1.415 . S
H2954 C2951 0.999 . S
H2955 C2936 0.913 . S
H2956 C2974 0.951 . S
H2957 C2976 0.951 . S
H2958 C2978 0.950 . S
H2959 C2979 0.950 . S
H2960 C2981 0.950 . S
H2961 C2984 0.950 . S
H2962 C2985 0.950 . S
H2963 C2987 0.950 . S
H2964 C2988 0.950 . S
H2965 C2989 0.951 . S
H2966 C2991 0.951 . S
H2967 C2993 0.950 . S
H2968 C2994 0.950 . S
H2969 C2996 0.950 . S
H2970 C2999 0.950 . S
H2971 C3000 0.950 . S
H2972 C3002 0.950 . S
H2973 C3003 0.950 . S
C2974 H2956 0.951 . S
C2974 C2975 1.366 . S
C2974 C2976 1.388 . S
C2975 C2974 1.366 . S
C2975 C2979 1.385 . S
C2976 H2957 0.951 . S
C2976 C2974 1.388 . S
C2976 C2977 1.366 . S
C2977 C2976 1.366 . S
C2977 C2978 1.414 . S
C2977 C2980 1.499 . S
C2978 H2958 0.950 . S
C2978 C2977 1.414 . S
C2978 C2979 1.374 . S
C2979 H2959 0.950 . S
C2979 C2975 1.385 . S
C2979 C2978 1.374 . S
C2980 C2977 1.499 . S
C2980 C2981 1.373 . S
C2980 C2982 1.389 . S
C2981 H2960 0.950 . S
C2981 C2980 1.373 . S
C2981 C2997 1.377 . S
C2982 C2980 1.389 . S
C2982 C2983 1.524 . S
C2982 C2996 1.377 . S
C2983 C2982 1.524 . S
C2983 C2984 1.397 . S
C2983 C2988 1.363 . S
C2984 H2961 0.950 . S
C2984 C2983 1.397 . S
C2984 C2985 1.334 . S
C2985 H2962 0.950 . S
C2985 C2984 1.334 . S
C2985 C2986 1.287 . S
C2986 C2985 1.287 . S
C2986 C2987 1.524 . S
C2986 H3005 0.913 . S
C2987 H2963 0.950 . S
C2987 C2986 1.524 . S
C2987 C2988 1.415 . S
C2988 H2964 0.950 . S
C2988 C2983 1.363 . S
C2988 C2987 1.415 . S
C2989 H2965 0.951 . S
C2989 C2990 1.366 . S
C2989 C2991 1.388 . S
C2990 C2989 1.366 . S
C2990 C2994 1.385 . S
C2991 H2966 0.951 . S
C2991 C2989 1.388 . S
C2991 C2992 1.366 . S
C2992 C2991 1.366 . S
C2992 C2993 1.414 . S
C2992 C2995 1.499 . S
C2993 H2967 0.950 . S
C2993 C2992 1.414 . S
C2993 C2994 1.374 . S
C2994 H2968 0.950 . S
C2994 C2990 1.385 . S
C2994 C2993 1.374 . S
C2995 C2992 1.499 . S
C2995 C2996 1.373 . S
C2995 C2997 1.389 . S
C2996 H2969 0.950 . S
C2996 C2982 1.377 . S
C2996 C2995 1.373 . S
C2997 C2981 1.377 . S
C2997 C2995 1.389 . S
C2997 C2998 1.524 . S
C2998 C2997 1.524 . S
C2998 C2999 1.397 . S
C2998 C3003 1.363 . S
C2999 H2970 0.950 . S
C2999 C2998 1.397 . S
C2999 C3000 1.334 . S
C3000 H2971 0.950 . S
C3000 C2999 1.334 . S
C3000 C3001 1.287 . S
C3001 C3000 1.287 . S
C3001 C3002 1.524 . S
C3001 H3004 0.999 . S
C3002 H2972 0.950 . S
C3002 C3001 1.524 . S
C3002 C3003 1.415 . S
C3003 H2973 0.950 . S
C3003 C2998 1.363 . S
C3003 C3002 1.415 . S
H3004 C3001 0.999 . S
H3005 C2986 0.913 . S
H3006 C3024 0.951 . S
H3007 C3026 0.951 . S
H3008 C3028 0.950 . S
H3009 C3029 0.950 . S
H3010 C3031 0.950 . S
H3011 C3034 0.950 . S
H3012 C3035 0.950 . S
H3013 C3037 0.950 . S
H3014 C3038 0.950 . S
H3015 C3039 0.951 . S
H3016 C3041 0.951 . S
H3017 C3043 0.950 . S
H3018 C3044 0.950 . S
H3019 C3046 0.950 . S
H3020 C3049 0.950 . S
H3021 C3050 0.950 . S
H3022 C3052 0.950 . S
H3023 C3053 0.950 . S
C3024 H3006 0.951 . S
C3024 C3025 1.366 . S
C3024 C3026 1.388 . S
C3025 C3024 1.366 . S
C3025 C3029 1.385 . S
C3026 H3007 0.951 . S
C3026 C3024 1.388 . S
C3026 C3027 1.366 . S
C3027 C3026 1.366 . S
C3027 C3028 1.414 . S
C3027 C3030 1.499 . S
C3028 H3008 0.950 . S
C3028 C3027 1.414 . S
C3028 C3029 1.374 . S
C3029 H3009 0.950 . S
C3029 C3025 1.385 . S
C3029 C3028 1.374 . S
C3030 C3027 1.499 . S
C3030 C3031 1.373 . S
C3030 C3032 1.389 . S
C3031 H3010 0.950 . S
C3031 C3030 1.373 . S
C3031 C3047 1.377 . S
C3032 C3030 1.389 . S
C3032 C3033 1.524 . S
C3032 C3046 1.377 . S
C3033 C3032 1.524 . S
C3033 C3034 1.397 . S
C3033 C3038 1.363 . S
C3034 H3011 0.950 . S
C3034 C3033 1.397 . S
C3034 C3035 1.334 . S
C3035 H3012 0.950 . S
C3035 C3034 1.334 . S
C3035 C3036 1.287 . S
C3036 C3035 1.287 . S
C3036 C3037 1.524 . S
C3036 H3055 0.913 . S
C3037 H3013 0.950 . S
C3037 C3036 1.524 . S
C3037 C3038 1.415 . S
C3038 H3014 0.950 . S
C3038 C3033 1.363 . S
C3038 C3037 1.415 . S
C3039 H3015 0.951 . S
C3039 C3040 1.366 . S
C3039 C3041 1.388 . S
C3040 C3039 1.366 . S
C3040 C3044 1.385 . S
C3041 H3016 0.951 . S
C3041 C3039 1.388 . S
C3041 C3042 1.366 . S
C3042 C3041 1.366 . S
C3042 C3043 1.414 . S
C3042 C3045 1.499 . S
C3043 H3017 0.950 . S
C3043 C3042 1.414 . S
C3043 C3044 1.374 . S
C3044 H3018 0.950 . S
C3044 C3040 1.385 . S
C3044 C3043 1.374 . S
C3045 C3042 1.499 . S
C3045 C3046 1.373 . S
C3045 C3047 1.389 . S
C3046 H3019 0.950 . S
C3046 C3032 1.377 . S
C3046 C3045 1.373 . S
C3047 C3031 1.377 . S
C3047 C3045 1.389 . S
C3047 C3048 1.524 . S
C3048 C3047 1.524 . S
C3048 C3049 1.397 . S
C3048 C3053 1.363 . S
C3049 H3020 0.950 . S
C3049 C3048 1.397 . S
C3049 C3050 1.334 . S
C3050 H3021 0.950 . S
C3050 C3049 1.334 . S
C3050 C3051 1.287 . S
C3051 C3050 1.287 . S
C3051 C3052 1.524 . S
C3051 H3054 0.999 . S
C3052 H3022 0.950 . S
C3052 C3051 1.524 . S
C3052 C3053 1.415 . S
C3053 H3023 0.950 . S
C3053 C3048 1.363 . S
C3053 C3052 1.415 . S
H3054 C3051 0.999 . S
H3055 C3036 0.913 . S
H3056 C3074 0.951 . S
H3057 C3076 0.951 . S
H3058 C3078 0.950 . S
H3059 C3079 0.950 . S
H3060 C3081 0.950 . S
H3061 C3084 0.950 . S
H3062 C3085 0.950 . S
H3063 C3087 0.950 . S
H3064 C3088 0.950 . S
H3065 C3089 0.951 . S
H3066 C3091 0.951 . S
H3067 C3093 0.950 . S
H3068 C3094 0.950 . S
H3069 C3096 0.950 . S
H3070 C3099 0.950 . S
H3071 C3100 0.950 . S
H3072 C3102 0.950 . S
H3073 C3103 0.950 . S
C3074 H3056 0.951 . S
C3074 C3075 1.366 . S
C3074 C3076 1.388 . S
C3075 C3074 1.366 . S
C3075 C3079 1.385 . S
C3076 H3057 0.951 . S
C3076 C3074 1.388 . S
C3076 C3077 1.366 . S
C3077 C3076 1.366 . S
C3077 C3078 1.414 . S
C3077 C3080 1.499 . S
C3078 H3058 0.950 . S
C3078 C3077 1.414 . S
C3078 C3079 1.374 . S
C3079 H3059 0.950 . S
C3079 C3075 1.385 . S
C3079 C3078 1.374 . S
C3080 C3077 1.499 . S
C3080 C3081 1.373 . S
C3080 C3082 1.389 . S
C3081 H3060 0.950 . S
C3081 C3080 1.373 . S
C3081 C3097 1.377 . S
C3082 C3080 1.389 . S
C3082 C3083 1.524 . S
C3082 C3096 1.377 . S
C3083 C3082 1.524 . S
C3083 C3084 1.397 . S
C3083 C3088 1.363 . S
C3084 H3061 0.950 . S
C3084 C3083 1.397 . S
C3084 C3085 1.334 . S
C3085 H3062 0.950 . S
C3085 C3084 1.334 . S
C3085 C3086 1.287 . S
C3086 C3085 1.287 . S
C3086 C3087 1.524 . S
C3086 H3105 0.913 . S
C3087 H3063 0.950 . S
C3087 C3086 1.524 . S
C3087 C3088 1.415 . S
C3088 H3064 0.950 . S
C3088 C3083 1.363 . S
C3088 C3087 1.415 . S
C3089 H3065 0.951 . S
C3089 C3090 1.366 . S
C3089 C3091 1.388 . S
C3090 C3089 1.366 . S
C3090 C3094 1.385 . S
C3091 H3066 0.951 . S
C3091 C3089 1.388 . S
C3091 C3092 1.366 . S
C3092 C3091 1.366 . S
C3092 C3093 1.414 . S
C3092 C3095 1.499 . S
C3093 H3067 0.950 . S
C3093 C3092 1.414 . S
C3093 C3094 1.374 . S
C3094 H3068 0.950 . S
C3094 C3090 1.385 . S
C3094 C3093 1.374 . S
C3095 C3092 1.499 . S
C3095 C3096 1.373 . S
C3095 C3097 1.389 . S
C3096 H3069 0.950 . S
C3096 C3082 1.377 . S
C3096 C3095 1.373 . S
C3097 C3081 1.377 . S
C3097 C3095 1.389 . S
C3097 C3098 1.524 . S
C3098 C3097 1.524 . S
C3098 C3099 1.397 . S
C3098 C3103 1.363 . S
C3099 H3070 0.950 . S
C3099 C3098 1.397 . S
C3099 C3100 1.334 . S
C3100 H3071 0.950 . S
C3100 C3099 1.334 . S
C3100 C3101 1.287 . S
C3101 C3100 1.287 . S
C3101 C3102 1.524 . S
C3101 H3104 0.999 . S
C3102 H3072 0.950 . S
C3102 C3101 1.524 . S
C3102 C3103 1.415 . S
C3103 H3073 0.950 . S
C3103 C3098 1.363 . S
C3103 C3102 1.415 . S
H3104 C3101 0.999 . S
H3105 C3086 0.913 . S
H3106 C3124 0.951 . S
H3107 C3126 0.951 . S
H3108 C3128 0.950 . S
H3109 C3129 0.950 . S
H3110 C3131 0.950 . S
H3111 C3134 0.950 . S
H3112 C3135 0.950 . S
H3113 C3137 0.950 . S
H3114 C3138 0.950 . S
H3115 C3139 0.951 . S
H3116 C3141 0.951 . S
H3117 C3143 0.950 . S
H3118 C3144 0.950 . S
H3119 C3146 0.950 . S
H3120 C3149 0.950 . S
H3121 C3150 0.950 . S
H3122 C3152 0.950 . S
H3123 C3153 0.950 . S
C3124 H3106 0.951 . S
C3124 C3125 1.366 . S
C3124 C3126 1.388 . S
C3125 C3124 1.366 . S
C3125 C3129 1.385 . S
C3126 H3107 0.951 . S
C3126 C3124 1.388 . S
C3126 C3127 1.366 . S
C3127 C3126 1.366 . S
C3127 C3128 1.414 . S
C3127 C3130 1.499 . S
C3128 H3108 0.950 . S
C3128 C3127 1.414 . S
C3128 C3129 1.374 . S
C3129 H3109 0.950 . S
C3129 C3125 1.385 . S
C3129 C3128 1.374 . S
C3130 C3127 1.499 . S
C3130 C3131 1.373 . S
C3130 C3132 1.389 . S
C3131 H3110 0.950 . S
C3131 C3130 1.373 . S
C3131 C3147 1.377 . S
C3132 C3130 1.389 . S
C3132 C3133 1.524 . S
C3132 C3146 1.377 . S
C3133 C3132 1.524 . S
C3133 C3134 1.397 . S
C3133 C3138 1.363 . S
C3134 H3111 0.950 . S
C3134 C3133 1.397 . S
C3134 C3135 1.334 . S
C3135 H3112 0.950 . S
C3135 C3134 1.334 . S
C3135 C3136 1.287 . S
C3136 C3135 1.287 . S
C3136 C3137 1.524 . S
C3136 H3155 0.913 . S
C3137 H3113 0.950 . S
C3137 C3136 1.524 . S
C3137 C3138 1.415 . S
C3138 H3114 0.950 . S
C3138 C3133 1.363 . S
C3138 C3137 1.415 . S
C3139 H3115 0.951 . S
C3139 C3140 1.366 . S
C3139 C3141 1.388 . S
C3140 C3139 1.366 . S
C3140 C3144 1.385 . S
C3141 H3116 0.951 . S
C3141 C3139 1.388 . S
C3141 C3142 1.366 . S
C3142 C3141 1.366 . S
C3142 C3143 1.414 . S
C3142 C3145 1.499 . S
C3143 H3117 0.950 . S
C3143 C3142 1.414 . S
C3143 C3144 1.374 . S
C3144 H3118 0.950 . S
C3144 C3140 1.385 . S
C3144 C3143 1.374 . S
C3145 C3142 1.499 . S
C3145 C3146 1.373 . S
C3145 C3147 1.389 . S
C3146 H3119 0.950 . S
C3146 C3132 1.377 . S
C3146 C3145 1.373 . S
C3147 C3131 1.377 . S
C3147 C3145 1.389 . S
C3147 C3148 1.524 . S
C3148 C3147 1.524 . S
C3148 C3149 1.397 . S
C3148 C3153 1.363 . S
C3149 H3120 0.950 . S
C3149 C3148 1.397 . S
C3149 C3150 1.334 . S
C3150 H3121 0.950 . S
C3150 C3149 1.334 . S
C3150 C3151 1.287 . S
C3151 C3150 1.287 . S
C3151 C3152 1.524 . S
C3151 H3154 0.999 . S
C3152 H3122 0.950 . S
C3152 C3151 1.524 . S
C3152 C3153 1.415 . S
C3153 H3123 0.950 . S
C3153 C3148 1.363 . S
C3153 C3152 1.415 . S
H3154 C3151 0.999 . S
H3155 C3136 0.913 . S
H3156 C3174 0.951 . S
H3157 C3176 0.951 . S
H3158 C3178 0.950 . S
H3159 C3179 0.950 . S
H3160 C3181 0.950 . S
H3161 C3184 0.950 . S
H3162 C3185 0.950 . S
H3163 C3187 0.950 . S
H3164 C3188 0.950 . S
H3165 C3189 0.951 . S
H3166 C3191 0.951 . S
H3167 C3193 0.950 . S
H3168 C3194 0.950 . S
H3169 C3196 0.950 . S
H3170 C3199 0.950 . S
H3171 C3200 0.950 . S
H3172 C3202 0.950 . S
H3173 C3203 0.950 . S
C3174 H3156 0.951 . S
C3174 C3175 1.366 . S
C3174 C3176 1.388 . S
C3175 C3174 1.366 . S
C3175 C3179 1.385 . S
C3176 H3157 0.951 . S
C3176 C3174 1.388 . S
C3176 C3177 1.366 . S
C3177 C3176 1.366 . S
C3177 C3178 1.414 . S
C3177 C3180 1.499 . S
C3178 H3158 0.950 . S
C3178 C3177 1.414 . S
C3178 C3179 1.374 . S
C3179 H3159 0.950 . S
C3179 C3175 1.385 . S
C3179 C3178 1.374 . S
C3180 C3177 1.499 . S
C3180 C3181 1.373 . S
C3180 C3182 1.389 . S
C3181 H3160 0.950 . S
C3181 C3180 1.373 . S
C3181 C3197 1.377 . S
C3182 C3180 1.389 . S
C3182 C3183 1.524 . S
C3182 C3196 1.377 . S
C3183 C3182 1.524 . S
C3183 C3184 1.397 . S
C3183 C3188 1.363 . S
C3184 H3161 0.950 . S
C3184 C3183 1.397 . S
C3184 C3185 1.334 . S
C3185 H3162 0.950 . S
C3185 C3184 1.334 . S
C3185 C3186 1.287 . S
C3186 C3185 1.287 . S
C3186 C3187 1.524 . S
C3186 H3205 0.913 . S
C3187 H3163 0.950 . S
C3187 C3186 1.524 . S
C3187 C3188 1.415 . S
C3188 H3164 0.950 . S
C3188 C3183 1.363 . S
C3188 C3187 1.415 . S
C3189 H3165 0.951 . S
C3189 C3190 1.366 1_565 S
C3189 C3191 1.388 . S
C3190 C3189 1.366 1_545 S
C3190 C3194 1.385 . S
C3191 H3166 0.951 . S
C3191 C3189 1.388 . S
C3191 C3192 1.366 . S
C3192 C3191 1.366 . S
C3192 C3193 1.414 . S
C3192 C3195 1.499 . S
C3193 H3167 0.950 . S
C3193 C3192 1.414 . S
C3193 C3194 1.374 1_565 S
C3194 H3168 0.950 . S
C3194 C3190 1.385 . S
C3194 C3193 1.374 1_545 S
C3195 C3192 1.499 . S
C3195 C3196 1.373 . S
C3195 C3197 1.389 . S
C3196 H3169 0.950 . S
C3196 C3182 1.377 . S
C3196 C3195 1.373 . S
C3197 C3181 1.377 . S
C3197 C3195 1.389 . S
C3197 C3198 1.524 . S
C3198 C3197 1.524 . S
C3198 C3199 1.397 . S
C3198 C3203 1.363 . S
C3199 H3170 0.950 . S
C3199 C3198 1.397 . S
C3199 C3200 1.334 . S
C3200 H3171 0.950 . S
C3200 C3199 1.334 . S
C3200 C3201 1.287 . S
C3201 C3200 1.287 . S
C3201 C3202 1.524 . S
C3201 H3204 0.999 . S
C3202 H3172 0.950 . S
C3202 C3201 1.524 . S
C3202 C3203 1.415 . S
C3203 H3173 0.950 . S
C3203 C3198 1.363 . S
C3203 C3202 1.415 . S
H3204 C3201 0.999 . S
H3205 C3186 0.913 . S
H3206 C3224 0.951 . S
H3207 C3226 0.951 . S
H3208 C3228 0.950 . S
H3209 C3229 0.950 . S
H3210 C3231 0.950 . S
H3211 C3234 0.950 . S
H3212 C3235 0.950 . S
H3213 C3237 0.950 . S
H3214 C3238 0.950 . S
H3215 C3239 0.951 . S
H3216 C3241 0.951 . S
H3217 C3243 0.950 . S
H3218 C3244 0.950 . S
H3219 C3246 0.950 . S
H3220 C3249 0.950 . S
H3221 C3250 0.950 . S
H3222 C3252 0.950 . S
H3223 C3253 0.950 . S
C3224 H3206 0.951 . S
C3224 C3225 1.366 . S
C3224 C3226 1.388 . S
C3225 C3224 1.366 . S
C3225 C3229 1.385 . S
C3226 H3207 0.951 . S
C3226 C3224 1.388 . S
C3226 C3227 1.366 . S
C3227 C3226 1.366 . S
C3227 C3228 1.414 . S
C3227 C3230 1.499 . S
C3228 H3208 0.950 . S
C3228 C3227 1.414 . S
C3228 C3229 1.374 . S
C3229 H3209 0.950 . S
C3229 C3225 1.385 . S
C3229 C3228 1.374 . S
C3230 C3227 1.499 . S
C3230 C3231 1.373 . S
C3230 C3232 1.389 . S
C3231 H3210 0.950 . S
C3231 C3230 1.373 . S
C3231 C3247 1.377 . S
C3232 C3230 1.389 . S
C3232 C3233 1.524 . S
C3232 C3246 1.377 . S
C3233 C3232 1.524 . S
C3233 C3234 1.397 . S
C3233 C3238 1.363 . S
C3234 H3211 0.950 . S
C3234 C3233 1.397 . S
C3234 C3235 1.334 . S
C3235 H3212 0.950 . S
C3235 C3234 1.334 . S
C3235 C3236 1.287 . S
C3236 C3235 1.287 . S
C3236 C3237 1.524 . S
C3236 H3255 0.913 . S
C3237 H3213 0.950 . S
C3237 C3236 1.524 . S
C3237 C3238 1.415 . S
C3238 H3214 0.950 . S
C3238 C3233 1.363 . S
C3238 C3237 1.415 . S
C3239 H3215 0.951 . S
C3239 C3240 1.366 . S
C3239 C3241 1.388 . S
C3240 C3239 1.366 . S
C3240 C3244 1.385 . S
C3241 H3216 0.951 . S
C3241 C3239 1.388 . S
C3241 C3242 1.366 . S
C3242 C3241 1.366 . S
C3242 C3243 1.414 . S
C3242 C3245 1.499 . S
C3243 H3217 0.950 . S
C3243 C3242 1.414 . S
C3243 C3244 1.374 . S
C3244 H3218 0.950 . S
C3244 C3240 1.385 . S
C3244 C3243 1.374 . S
C3245 C3242 1.499 . S
C3245 C3246 1.373 . S
C3245 C3247 1.389 . S
C3246 H3219 0.950 . S
C3246 C3232 1.377 . S
C3246 C3245 1.373 . S
C3247 C3231 1.377 . S
C3247 C3245 1.389 . S
C3247 C3248 1.524 . S
C3248 C3247 1.524 . S
C3248 C3249 1.397 . S
C3248 C3253 1.363 . S
C3249 H3220 0.950 . S
C3249 C3248 1.397 . S
C3249 C3250 1.334 . S
C3250 H3221 0.950 . S
C3250 C3249 1.334 . S
C3250 C3251 1.287 . S
C3251 C3250 1.287 . S
C3251 C3252 1.524 . S
C3251 H3254 0.999 . S
C3252 H3222 0.950 . S
C3252 C3251 1.524 . S
C3252 C3253 1.415 . S
C3253 H3223 0.950 . S
C3253 C3248 1.363 . S
C3253 C3252 1.415 . S
H3254 C3251 0.999 . S
H3255 C3236 0.913 . S
H3256 C3274 0.951 . S
H3257 C3276 0.951 . S
H3258 C3278 0.970 . S
H3259 C3279 0.950 . S
H3260 C3281 0.953 . S
H3261 C3284 0.950 . S
H3262 C3285 0.950 . S
H3263 C3287 0.950 . S
H3264 C3288 0.950 . S
H3265 C3289 0.951 . S
H3266 C3291 0.951 . S
H3267 C3293 0.950 . S
H3268 C3294 0.950 . S
H3269 C3296 0.950 . S
H3270 C3299 0.950 . S
H3271 C3300 0.950 . S
H3272 C3302 0.950 . S
H3273 C3303 0.950 . S
C3274 H3256 0.951 . S
C3274 C3275 1.366 . S
C3274 C3276 1.388 . S
C3275 C3274 1.366 . S
C3275 C3279 1.385 1_545 S
C3276 H3257 0.951 . S
C3276 C3274 1.388 . S
C3276 C3277 1.366 . S
C3277 C3276 1.366 . S
C3277 C3278 1.394 1_545 S
C3277 C3280 1.499 . S
C3278 H3258 0.970 . S
C3278 C3277 1.394 1_565 S
C3278 C3279 1.375 . S
C3279 H3259 0.950 . S
C3279 C3275 1.385 1_565 S
C3279 C3278 1.375 . S
C3280 C3277 1.499 . S
C3280 C3281 1.371 1_545 S
C3280 C3282 1.389 . S
C3281 H3260 0.953 . S
C3281 C3280 1.371 1_565 S
C3281 C3297 1.376 1_565 S
C3282 C3280 1.389 . S
C3282 C3283 1.524 . S
C3282 C3296 1.377 . S
C3283 C3282 1.524 . S
C3283 C3284 1.397 . S
C3283 C3288 1.363 . S
C3284 H3261 0.950 . S
C3284 C3283 1.397 . S
C3284 C3285 1.334 . S
C3285 H3262 0.950 . S
C3285 C3284 1.334 . S
C3285 C3286 1.287 . S
C3286 C3285 1.287 . S
C3286 C3287 1.524 . S
C3286 H3305 0.913 . S
C3287 H3263 0.950 . S
C3287 C3286 1.524 . S
C3287 C3288 1.415 . S
C3288 H3264 0.950 . S
C3288 C3283 1.363 . S
C3288 C3287 1.415 . S
C3289 H3265 0.951 . S
C3289 C3290 1.366 . S
C3289 C3291 1.388 . S
C3290 C3289 1.366 . S
C3290 C3294 1.385 . S
C3291 H3266 0.951 . S
C3291 C3289 1.388 . S
C3291 C3292 1.366 . S
C3292 C3291 1.366 . S
C3292 C3293 1.414 . S
C3292 C3295 1.499 . S
C3293 H3267 0.950 . S
C3293 C3292 1.414 . S
C3293 C3294 1.374 . S
C3294 H3268 0.950 . S
C3294 C3290 1.385 . S
C3294 C3293 1.374 . S
C3295 C3292 1.499 . S
C3295 C3296 1.373 . S
C3295 C3297 1.389 . S
C3296 H3269 0.950 . S
C3296 C3282 1.377 . S
C3296 C3295 1.373 . S
C3297 C3281 1.376 1_545 S
C3297 C3295 1.389 . S
C3297 C3298 1.524 1_545 S
C3298 C3297 1.524 1_565 S
C3298 C3299 1.397 . S
C3298 C3303 1.363 . S
C3299 H3270 0.950 . S
C3299 C3298 1.397 . S
C3299 C3300 1.334 . S
C3300 H3271 0.950 . S
C3300 C3299 1.334 . S
C3300 C3301 1.287 . S
C3301 C3300 1.287 . S
C3301 C3302 1.524 . S
C3301 H3304 0.999 . S
C3302 H3272 0.950 . S
C3302 C3301 1.524 . S
C3302 C3303 1.415 . S
C3303 H3273 0.950 . S
C3303 C3298 1.363 . S
C3303 C3302 1.415 . S
H3304 C3301 0.999 . S
H3305 C3286 0.913 . S
H3306 C3324 0.951 . S
H3307 C3326 0.951 . S
H3308 C3328 0.950 . S
H3309 C3329 0.950 . S
H3310 C3331 0.950 . S
H3311 C3334 0.950 . S
H3312 C3335 0.950 . S
H3313 C3337 0.950 . S
H3314 C3338 0.950 . S
H3315 C3339 0.951 . S
H3316 C3341 0.951 . S
H3317 C3343 0.950 . S
H3318 C3344 0.950 . S
H3319 C3346 0.950 . S
H3320 C3349 0.950 . S
H3321 C3350 0.950 . S
H3322 C3352 0.950 . S
H3323 C3353 0.950 . S
C3324 H3306 0.951 . S
C3324 C3325 1.366 . S
C3324 C3326 1.388 . S
C3325 C3324 1.366 . S
C3325 C3329 1.385 . S
C3326 H3307 0.951 . S
C3326 C3324 1.388 . S
C3326 C3327 1.366 . S
C3327 C3326 1.366 . S
C3327 C3328 1.414 . S
C3327 C3330 1.499 . S
C3328 H3308 0.950 . S
C3328 C3327 1.414 . S
C3328 C3329 1.374 . S
C3329 H3309 0.950 . S
C3329 C3325 1.385 . S
C3329 C3328 1.374 . S
C3330 C3327 1.499 . S
C3330 C3331 1.373 . S
C3330 C3332 1.389 . S
C3331 H3310 0.950 . S
C3331 C3330 1.373 . S
C3331 C3347 1.377 . S
C3332 C3330 1.389 . S
C3332 C3333 1.524 . S
C3332 C3346 1.377 . S
C3333 C3332 1.524 . S
C3333 C3334 1.397 . S
C3333 C3338 1.363 . S
C3334 H3311 0.950 . S
C3334 C3333 1.397 . S
C3334 C3335 1.334 . S
C3335 H3312 0.950 . S
C3335 C3334 1.334 . S
C3335 C3336 1.287 . S
C3336 C3335 1.287 . S
C3336 C3337 1.524 . S
C3336 H3355 0.913 . S
C3337 H3313 0.950 . S
C3337 C3336 1.524 . S
C3337 C3338 1.415 . S
C3338 H3314 0.950 . S
C3338 C3333 1.363 . S
C3338 C3337 1.415 . S
C3339 H3315 0.951 . S
C3339 C3340 1.366 . S
C3339 C3341 1.388 . S
C3340 C3339 1.366 . S
C3340 C3344 1.385 . S
C3341 H3316 0.951 . S
C3341 C3339 1.388 . S
C3341 C3342 1.366 . S
C3342 C3341 1.366 . S
C3342 C3343 1.414 . S
C3342 C3345 1.499 . S
C3343 H3317 0.950 . S
C3343 C3342 1.414 . S
C3343 C3344 1.374 . S
C3344 H3318 0.950 . S
C3344 C3340 1.385 . S
C3344 C3343 1.374 . S
C3345 C3342 1.499 . S
C3345 C3346 1.373 . S
C3345 C3347 1.389 . S
C3346 H3319 0.950 . S
C3346 C3332 1.377 . S
C3346 C3345 1.373 . S
C3347 C3331 1.377 . S
C3347 C3345 1.389 . S
C3347 C3348 1.524 . S
C3348 C3347 1.524 . S
C3348 C3349 1.397 . S
C3348 C3353 1.363 . S
C3349 H3320 0.950 . S
C3349 C3348 1.397 . S
C3349 C3350 1.334 . S
C3350 H3321 0.950 . S
C3350 C3349 1.334 . S
C3350 C3351 1.287 . S
C3351 C3350 1.287 . S
C3351 C3352 1.524 . S
C3351 H3354 0.999 . S
C3352 H3322 0.950 . S
C3352 C3351 1.524 . S
C3352 C3353 1.415 . S
C3353 H3323 0.950 . S
C3353 C3348 1.363 . S
C3353 C3352 1.415 . S
H3354 C3351 0.999 . S
H3355 C3336 0.913 . S
H3356 C3374 0.951 . S
H3357 C3376 0.951 . S
H3358 C3378 0.950 . S
H3359 C3379 0.950 . S
H3360 C3381 0.950 . S
H3361 C3384 0.950 . S
H3362 C3385 0.950 . S
H3363 C3387 0.950 . S
H3364 C3388 0.950 . S
H3365 C3389 0.951 . S
H3366 C3391 0.951 . S
H3367 C3393 0.950 . S
H3368 C3394 0.950 . S
H3369 C3396 0.950 . S
H3370 C3399 0.950 . S
H3371 C3400 0.950 . S
H3372 C3402 0.950 . S
H3373 C3403 0.950 . S
C3374 H3356 0.951 . S
C3374 C3375 1.366 . S
C3374 C3376 1.388 . S
C3375 C3374 1.366 . S
C3375 C3379 1.385 . S
C3376 H3357 0.951 . S
C3376 C3374 1.388 . S
C3376 C3377 1.366 . S
C3377 C3376 1.366 . S
C3377 C3378 1.414 . S
C3377 C3380 1.499 . S
C3378 H3358 0.950 . S
C3378 C3377 1.414 . S
C3378 C3379 1.374 . S
C3379 H3359 0.950 . S
C3379 C3375 1.385 . S
C3379 C3378 1.374 . S
C3380 C3377 1.499 . S
C3380 C3381 1.373 . S
C3380 C3382 1.389 . S
C3381 H3360 0.950 . S
C3381 C3380 1.373 . S
C3381 C3397 1.377 . S
C3382 C3380 1.389 . S
C3382 C3383 1.524 . S
C3382 C3396 1.377 . S
C3383 C3382 1.524 . S
C3383 C3384 1.397 1_545 S
C3383 C3388 1.363 . S
C3384 H3361 0.950 . S
C3384 C3383 1.397 1_565 S
C3384 C3385 1.334 . S
C3385 H3362 0.950 . S
C3385 C3384 1.334 . S
C3385 C3386 1.287 . S
C3386 C3385 1.287 . S
C3386 C3387 1.524 1_565 S
C3386 H3405 0.913 . S
C3387 H3363 0.950 . S
C3387 C3386 1.524 1_545 S
C3387 C3388 1.415 . S
C3388 H3364 0.950 . S
C3388 C3383 1.363 . S
C3388 C3387 1.415 . S
C3389 H3365 0.951 . S
C3389 C3390 1.366 . S
C3389 C3391 1.388 . S
C3390 C3389 1.366 . S
C3390 C3394 1.385 . S
C3391 H3366 0.951 . S
C3391 C3389 1.388 . S
C3391 C3392 1.366 . S
C3392 C3391 1.366 . S
C3392 C3393 1.414 . S
C3392 C3395 1.499 . S
C3393 H3367 0.950 . S
C3393 C3392 1.414 . S
C3393 C3394 1.374 . S
C3394 H3368 0.950 . S
C3394 C3390 1.385 . S
C3394 C3393 1.374 . S
C3395 C3392 1.499 . S
C3395 C3396 1.373 . S
C3395 C3397 1.389 . S
C3396 H3369 0.950 . S
C3396 C3382 1.377 . S
C3396 C3395 1.373 . S
C3397 C3381 1.377 . S
C3397 C3395 1.389 . S
C3397 C3398 1.524 . S
C3398 C3397 1.524 . S
C3398 C3399 1.397 . S
C3398 C3403 1.363 . S
C3399 H3370 0.950 . S
C3399 C3398 1.397 . S
C3399 C3400 1.334 . S
C3400 H3371 0.950 . S
C3400 C3399 1.334 . S
C3400 C3401 1.287 . S
C3401 C3400 1.287 . S
C3401 C3402 1.524 . S
C3401 H3404 0.999 . S
C3402 H3372 0.950 . S
C3402 C3401 1.524 . S
C3402 C3403 1.415 . S
C3403 H3373 0.950 . S
C3403 C3398 1.363 . S
C3403 C3402 1.415 . S
H3404 C3401 0.999 . S
H3405 C3386 0.913 . S
H3406 C3424 0.951 . S
H3407 C3426 0.951 . S
H3408 C3428 0.950 . S
H3409 C3429 0.950 . S
H3410 C3431 0.950 . S
H3411 C3434 0.950 . S
H3412 C3435 0.950 . S
H3413 C3437 0.950 . S
H3414 C3438 0.950 . S
H3415 C3439 0.951 . S
H3416 C3441 0.951 . S
H3417 C3443 0.950 . S
H3418 C3444 0.950 . S
H3419 C3446 0.950 . S
H3420 C3449 0.950 . S
H3421 C3450 0.950 . S
H3422 C3452 0.950 . S
H3423 C3453 0.950 . S
C3424 H3406 0.951 . S
C3424 C3425 1.366 . S
C3424 C3426 1.388 . S
C3425 C3424 1.366 . S
C3425 C3429 1.385 . S
C3426 H3407 0.951 . S
C3426 C3424 1.388 . S
C3426 C3427 1.366 . S
C3427 C3426 1.366 . S
C3427 C3428 1.414 . S
C3427 C3430 1.499 . S
C3428 H3408 0.950 . S
C3428 C3427 1.414 . S
C3428 C3429 1.374 . S
C3429 H3409 0.950 . S
C3429 C3425 1.385 . S
C3429 C3428 1.374 . S
C3430 C3427 1.499 . S
C3430 C3431 1.373 . S
C3430 C3432 1.389 . S
C3431 H3410 0.950 . S
C3431 C3430 1.373 . S
C3431 C3447 1.377 . S
C3432 C3430 1.389 . S
C3432 C3433 1.524 . S
C3432 C3446 1.377 . S
C3433 C3432 1.524 . S
C3433 C3434 1.397 . S
C3433 C3438 1.363 . S
C3434 H3411 0.950 . S
C3434 C3433 1.397 . S
C3434 C3435 1.334 . S
C3435 H3412 0.950 . S
C3435 C3434 1.334 . S
C3435 C3436 1.287 . S
C3436 C3435 1.287 . S
C3436 C3437 1.524 . S
C3436 H3455 0.913 . S
C3437 H3413 0.950 . S
C3437 C3436 1.524 . S
C3437 C3438 1.415 . S
C3438 H3414 0.950 . S
C3438 C3433 1.363 . S
C3438 C3437 1.415 . S
C3439 H3415 0.951 . S
C3439 C3440 1.366 . S
C3439 C3441 1.388 . S
C3440 C3439 1.366 . S
C3440 C3444 1.385 . S
C3441 H3416 0.951 . S
C3441 C3439 1.388 . S
C3441 C3442 1.366 . S
C3442 C3441 1.366 . S
C3442 C3443 1.414 . S
C3442 C3445 1.499 . S
C3443 H3417 0.950 . S
C3443 C3442 1.414 . S
C3443 C3444 1.374 . S
C3444 H3418 0.950 . S
C3444 C3440 1.385 . S
C3444 C3443 1.374 . S
C3445 C3442 1.499 . S
C3445 C3446 1.373 . S
C3445 C3447 1.389 . S
C3446 H3419 0.950 . S
C3446 C3432 1.377 . S
C3446 C3445 1.373 . S
C3447 C3431 1.377 . S
C3447 C3445 1.389 . S
C3447 C3448 1.524 . S
C3448 C3447 1.524 . S
C3448 C3449 1.397 . S
C3448 C3453 1.363 . S
C3449 H3420 0.950 . S
C3449 C3448 1.397 . S
C3449 C3450 1.334 . S
C3450 H3421 0.950 . S
C3450 C3449 1.334 . S
C3450 C3451 1.287 . S
C3451 C3450 1.287 . S
C3451 C3452 1.524 . S
C3451 H3454 0.999 . S
C3452 H3422 0.950 . S
C3452 C3451 1.524 . S
C3452 C3453 1.415 . S
C3453 H3423 0.950 . S
C3453 C3448 1.363 . S
C3453 C3452 1.415 . S
H3454 C3451 0.999 . S
H3455 C3436 0.913 . S
H3456 C3474 0.951 . S
H3457 C3476 0.951 . S
H3458 C3478 0.950 . S
H3459 C3479 0.950 1_545 S
H3460 C3481 0.950 . S
H3461 C3484 0.950 . S
H3462 C3485 0.950 . S
H3463 C3487 0.950 . S
H3464 C3488 0.950 . S
H3465 C3489 0.951 . S
H3466 C3491 0.951 . S
H3467 C3493 0.950 . S
H3468 C3494 0.950 . S
H3469 C3496 0.950 . S
H3470 C3499 0.950 . S
H3471 C3500 0.950 . S
H3472 C3502 0.950 . S
H3473 C3503 0.950 . S
C3474 H3456 0.951 . S
C3474 C3475 1.366 . S
C3474 C3476 1.388 . S
C3475 C3474 1.366 . S
C3475 C3479 1.385 . S
C3476 H3457 0.951 . S
C3476 C3474 1.388 . S
C3476 C3477 1.382 . S
C3477 C3476 1.382 . S
C3477 C3478 1.412 1_565 S
C3477 C3480 1.487 1_565 S
C3478 H3458 0.950 . S
C3478 C3477 1.412 1_545 S
C3478 C3479 1.374 1_545 S
C3479 H3459 0.950 1_565 S
C3479 C3475 1.385 . S
C3479 C3478 1.374 1_565 S
C3480 C3477 1.487 1_545 S
C3480 C3481 1.373 1_545 S
C3480 C3482 1.389 . S
C3481 H3460 0.950 . S
C3481 C3480 1.373 1_565 S
C3481 C3497 1.377 . S
C3482 C3480 1.389 . S
C3482 C3483 1.524 . S
C3482 C3496 1.377 . S
C3483 C3482 1.524 . S
C3483 C3484 1.397 . S
C3483 C3488 1.363 . S
C3484 H3461 0.950 . S
C3484 C3483 1.397 . S
C3484 C3485 1.334 . S
C3485 H3462 0.950 . S
C3485 C3484 1.334 . S
C3485 C3486 1.287 . S
C3486 C3485 1.287 . S
C3486 C3487 1.524 . S
C3486 H3505 0.913 . S
C3487 H3463 0.950 . S
C3487 C3486 1.524 . S
C3487 C3488 1.415 . S
C3488 H3464 0.950 . S
C3488 C3483 1.363 . S
C3488 C3487 1.415 . S
C3489 H3465 0.951 . S
C3489 C3490 1.366 . S
C3489 C3491 1.388 . S
C3490 C3489 1.366 . S
C3490 C3494 1.385 . S
C3491 H3466 0.951 . S
C3491 C3489 1.388 . S
C3491 C3492 1.366 . S
C3492 C3491 1.366 . S
C3492 C3493 1.414 . S
C3492 C3495 1.499 . S
C3493 H3467 0.950 . S
C3493 C3492 1.414 . S
C3493 C3494 1.374 . S
C3494 H3468 0.950 . S
C3494 C3490 1.385 . S
C3494 C3493 1.374 . S
C3495 C3492 1.499 . S
C3495 C3496 1.373 . S
C3495 C3497 1.389 1_545 S
C3496 H3469 0.950 . S
C3496 C3482 1.377 . S
C3496 C3495 1.373 . S
C3497 C3481 1.377 . S
C3497 C3495 1.389 1_565 S
C3497 C3498 1.524 . S
C3498 C3497 1.524 . S
C3498 C3499 1.397 . S
C3498 C3503 1.363 . S
C3499 H3470 0.950 . S
C3499 C3498 1.397 . S
C3499 C3500 1.334 . S
C3500 H3471 0.950 . S
C3500 C3499 1.334 . S
C3500 C3501 1.287 . S
C3501 C3500 1.287 . S
C3501 C3502 1.524 . S
C3501 H3504 0.999 . S
C3502 H3472 0.950 . S
C3502 C3501 1.524 . S
C3502 C3503 1.415 . S
C3503 H3473 0.950 . S
C3503 C3498 1.363 . S
C3503 C3502 1.415 . S
H3504 C3501 0.999 . S
H3505 C3486 0.913 . S
H3506 C3524 0.951 . S
H3507 C3526 0.951 . S
H3508 C3528 0.950 . S
H3509 C3529 0.950 . S
H3510 C3531 0.950 . S
H3511 C3534 0.950 . S
H3512 C3535 0.950 . S
H3513 C3537 0.950 . S
H3514 C3538 0.950 . S
H3515 C3539 0.951 . S
H3516 C3541 0.951 . S
H3517 C3543 0.950 . S
H3518 C3544 0.950 . S
H3519 C3546 0.950 . S
H3520 C3549 0.950 . S
H3521 C3550 0.950 . S
H3522 C3552 0.950 . S
H3523 C3553 0.950 . S
C3524 H3506 0.951 . S
C3524 C3525 1.366 . S
C3524 C3526 1.388 . S
C3525 C3524 1.366 . S
C3525 C3529 1.385 . S
C3526 H3507 0.951 . S
C3526 C3524 1.388 . S
C3526 C3527 1.366 . S
C3527 C3526 1.366 . S
C3527 C3528 1.414 . S
C3527 C3530 1.499 . S
C3528 H3508 0.950 . S
C3528 C3527 1.414 . S
C3528 C3529 1.374 . S
C3529 H3509 0.950 . S
C3529 C3525 1.385 . S
C3529 C3528 1.374 . S
C3530 C3527 1.499 . S
C3530 C3531 1.373 . S
C3530 C3532 1.389 . S
C3531 H3510 0.950 . S
C3531 C3530 1.373 . S
C3531 C3547 1.377 . S
C3532 C3530 1.389 . S
C3532 C3533 1.524 . S
C3532 C3546 1.377 . S
C3533 C3532 1.524 . S
C3533 C3534 1.397 . S
C3533 C3538 1.363 . S
C3534 H3511 0.950 . S
C3534 C3533 1.397 . S
C3534 C3535 1.334 . S
C3535 H3512 0.950 . S
C3535 C3534 1.334 . S
C3535 C3536 1.287 . S
C3536 C3535 1.287 . S
C3536 C3537 1.524 . S
C3536 H3555 0.913 . S
C3537 H3513 0.950 . S
C3537 C3536 1.524 . S
C3537 C3538 1.415 . S
C3538 H3514 0.950 . S
C3538 C3533 1.363 . S
C3538 C3537 1.415 . S
C3539 H3515 0.951 . S
C3539 C3540 1.366 . S
C3539 C3541 1.388 . S
C3540 C3539 1.366 . S
C3540 C3544 1.385 . S
C3541 H3516 0.951 . S
C3541 C3539 1.388 . S
C3541 C3542 1.366 . S
C3542 C3541 1.366 . S
C3542 C3543 1.414 . S
C3542 C3545 1.499 . S
C3543 H3517 0.950 . S
C3543 C3542 1.414 . S
C3543 C3544 1.374 . S
C3544 H3518 0.950 . S
C3544 C3540 1.385 . S
C3544 C3543 1.374 . S
C3545 C3542 1.499 . S
C3545 C3546 1.373 . S
C3545 C3547 1.389 . S
C3546 H3519 0.950 . S
C3546 C3532 1.377 . S
C3546 C3545 1.373 . S
C3547 C3531 1.377 . S
C3547 C3545 1.389 . S
C3547 C3548 1.524 . S
C3548 C3547 1.524 . S
C3548 C3549 1.397 . S
C3548 C3553 1.363 . S
C3549 H3520 0.950 . S
C3549 C3548 1.397 . S
C3549 C3550 1.334 . S
C3550 H3521 0.950 . S
C3550 C3549 1.334 . S
C3550 C3551 1.287 . S
C3551 C3550 1.287 . S
C3551 C3552 1.524 . S
C3551 H3554 0.999 . S
C3552 H3522 0.950 . S
C3552 C3551 1.524 . S
C3552 C3553 1.415 . S
C3553 H3523 0.950 . S
C3553 C3548 1.363 . S
C3553 C3552 1.415 . S
H3554 C3551 0.999 . S
H3555 C3536 0.913 . S
H3556 C3574 0.951 . S
H3557 C3576 0.951 . S
H3558 C3578 0.950 . S
H3559 C3579 0.950 . S
H3560 C3581 0.950 . S
H3561 C3584 0.950 . S
H3562 C3585 0.950 . S
H3563 C3587 0.950 . S
H3564 C3588 0.950 . S
H3565 C3589 0.951 . S
H3566 C3591 0.951 . S
H3567 C3593 0.950 . S
H3568 C3594 0.950 . S
H3569 C3596 0.950 . S
H3570 C3599 0.950 . S
H3571 C3600 0.950 . S
H3572 C3602 0.950 . S
H3573 C3603 0.950 . S
C3574 H3556 0.951 . S
C3574 C3575 1.366 . S
C3574 C3576 1.388 . S
C3575 C3574 1.366 . S
C3575 C3579 1.385 . S
C3576 H3557 0.951 . S
C3576 C3574 1.388 . S
C3576 C3577 1.366 . S
C3577 C3576 1.366 . S
C3577 C3578 1.414 . S
C3577 C3580 1.499 . S
C3578 H3558 0.950 . S
C3578 C3577 1.414 . S
C3578 C3579 1.374 . S
C3579 H3559 0.950 . S
C3579 C3575 1.385 . S
C3579 C3578 1.374 . S
C3580 C3577 1.499 . S
C3580 C3581 1.373 . S
C3580 C3582 1.389 . S
C3581 H3560 0.950 . S
C3581 C3580 1.373 . S
C3581 C3597 1.377 . S
C3582 C3580 1.389 . S
C3582 C3583 1.524 . S
C3582 C3596 1.377 . S
C3583 C3582 1.524 . S
C3583 C3584 1.397 . S
C3583 C3588 1.363 . S
C3584 H3561 0.950 . S
C3584 C3583 1.397 . S
C3584 C3585 1.334 . S
C3585 H3562 0.950 . S
C3585 C3584 1.334 . S
C3585 C3586 1.287 . S
C3586 C3585 1.287 . S
C3586 C3587 1.524 . S
C3586 H3605 0.913 . S
C3587 H3563 0.950 . S
C3587 C3586 1.524 . S
C3587 C3588 1.415 . S
C3588 H3564 0.950 . S
C3588 C3583 1.363 . S
C3588 C3587 1.415 . S
C3589 H3565 0.951 . S
C3589 C3590 1.366 . S
C3589 C3591 1.388 . S
C3590 C3589 1.366 . S
C3590 C3594 1.385 . S
C3591 H3566 0.951 . S
C3591 C3589 1.388 . S
C3591 C3592 1.366 . S
C3592 C3591 1.366 . S
C3592 C3593 1.414 . S
C3592 C3595 1.499 . S
C3593 H3567 0.950 . S
C3593 C3592 1.414 . S
C3593 C3594 1.374 . S
C3594 H3568 0.950 . S
C3594 C3590 1.385 . S
C3594 C3593 1.374 . S
C3595 C3592 1.499 . S
C3595 C3596 1.373 . S
C3595 C3597 1.389 . S
C3596 H3569 0.950 . S
C3596 C3582 1.377 . S
C3596 C3595 1.373 . S
C3597 C3581 1.377 . S
C3597 C3595 1.389 . S
C3597 C3598 1.524 . S
C3598 C3597 1.524 . S
C3598 C3599 1.397 1_545 S
C3598 C3603 1.363 . S
C3599 H3570 0.950 . S
C3599 C3598 1.397 1_565 S
C3599 C3600 1.334 . S
C3600 H3571 0.950 . S
C3600 C3599 1.334 . S
C3600 C3601 1.287 . S
C3601 C3600 1.287 . S
C3601 C3602 1.524 1_565 S
C3601 H3604 0.999 . S
C3602 H3572 0.950 . S
C3602 C3601 1.524 1_545 S
C3602 C3603 1.415 . S
C3603 H3573 0.950 . S
C3603 C3598 1.363 . S
C3603 C3602 1.415 . S
H3604 C3601 0.999 . S
H3605 C3586 0.913 . S
H3606 C3624 0.951 . S
H3607 C3626 0.951 . S
H3608 C3628 0.950 . S
H3609 C3629 0.950 . S
H3610 C3631 0.950 . S
H3611 C3634 0.950 . S
H3612 C3635 0.950 . S
H3613 C3637 0.950 . S
H3614 C3638 0.950 . S
H3615 C3639 0.951 . S
H3616 C3641 0.951 . S
H3617 C3643 0.950 . S
H3618 C3644 0.950 . S
H3619 C3646 0.950 . S
H3620 C3649 0.950 . S
H3621 C3650 0.950 . S
H3622 C3652 0.950 . S
H3623 C3653 0.950 . S
C3624 H3606 0.951 . S
C3624 C3625 1.366 . S
C3624 C3626 1.388 . S
C3625 C3624 1.366 . S
C3625 C3629 1.385 . S
C3626 H3607 0.951 . S
C3626 C3624 1.388 . S
C3626 C3627 1.366 . S
C3627 C3626 1.366 . S
C3627 C3628 1.414 . S
C3627 C3630 1.499 . S
C3628 H3608 0.950 . S
C3628 C3627 1.414 . S
C3628 C3629 1.374 . S
C3629 H3609 0.950 . S
C3629 C3625 1.385 . S
C3629 C3628 1.374 . S
C3630 C3627 1.499 . S
C3630 C3631 1.373 . S
C3630 C3632 1.389 . S
C3631 H3610 0.950 . S
C3631 C3630 1.373 . S
C3631 C3647 1.377 . S
C3632 C3630 1.389 . S
C3632 C3633 1.524 . S
C3632 C3646 1.377 . S
C3633 C3632 1.524 . S
C3633 C3634 1.397 . S
C3633 C3638 1.363 . S
C3634 H3611 0.950 . S
C3634 C3633 1.397 . S
C3634 C3635 1.334 . S
C3635 H3612 0.950 . S
C3635 C3634 1.334 . S
C3635 C3636 1.287 . S
C3636 C3635 1.287 . S
C3636 C3637 1.524 . S
C3636 H3655 0.913 . S
C3637 H3613 0.950 . S
C3637 C3636 1.524 . S
C3637 C3638 1.415 . S
C3638 H3614 0.950 . S
C3638 C3633 1.363 . S
C3638 C3637 1.415 . S
C3639 H3615 0.951 . S
C3639 C3640 1.366 . S
C3639 C3641 1.388 . S
C3640 C3639 1.366 . S
C3640 C3644 1.385 . S
C3641 H3616 0.951 . S
C3641 C3639 1.388 . S
C3641 C3642 1.366 . S
C3642 C3641 1.366 . S
C3642 C3643 1.414 . S
C3642 C3645 1.499 . S
C3643 H3617 0.950 . S
C3643 C3642 1.414 . S
C3643 C3644 1.374 . S
C3644 H3618 0.950 . S
C3644 C3640 1.385 . S
C3644 C3643 1.374 . S
C3645 C3642 1.499 . S
C3645 C3646 1.373 . S
C3645 C3647 1.389 . S
C3646 H3619 0.950 . S
C3646 C3632 1.377 . S
C3646 C3645 1.373 . S
C3647 C3631 1.377 . S
C3647 C3645 1.389 . S
C3647 C3648 1.524 . S
C3648 C3647 1.524 . S
C3648 C3649 1.397 . S
C3648 C3653 1.363 . S
C3649 H3620 0.950 . S
C3649 C3648 1.397 . S
C3649 C3650 1.334 . S
C3650 H3621 0.950 . S
C3650 C3649 1.334 . S
C3650 C3651 1.287 . S
C3651 C3650 1.287 . S
C3651 C3652 1.524 . S
C3651 H3654 0.999 . S
C3652 H3622 0.950 . S
C3652 C3651 1.524 . S
C3652 C3653 1.415 . S
C3653 H3623 0.950 . S
C3653 C3648 1.363 . S
C3653 C3652 1.415 . S
H3654 C3651 0.999 . S
H3655 C3636 0.913 . S
H3656 C3674 0.951 . S
H3657 C3676 0.951 . S
H3658 C3678 0.950 . S
H3659 C3679 0.950 . S
H3660 C3681 0.950 . S
H3661 C3684 0.950 . S
H3662 C3685 0.950 . S
H3663 C3687 0.950 . S
H3664 C3688 0.950 . S
H3665 C3689 0.951 . S
H3666 C3691 0.951 . S
H3667 C3693 0.950 . S
H3668 C3694 0.950 . S
H3669 C3696 0.950 1_556 S
H3670 C3699 0.950 . S
H3671 C3700 0.950 . S
H3672 C3702 0.950 . S
H3673 C3703 0.950 . S
C3674 H3656 0.951 . S
C3674 C3675 1.366 . S
C3674 C3676 1.388 . S
C3675 C3674 1.366 . S
C3675 C3679 1.385 . S
C3676 H3657 0.951 . S
C3676 C3674 1.388 . S
C3676 C3677 1.366 . S
C3677 C3676 1.366 . S
C3677 C3678 1.414 . S
C3677 C3680 1.499 . S
C3678 H3658 0.950 . S
C3678 C3677 1.414 . S
C3678 C3679 1.374 . S
C3679 H3659 0.950 . S
C3679 C3675 1.385 . S
C3679 C3678 1.374 . S
C3680 C3677 1.499 . S
C3680 C3681 1.373 . S
C3680 C3682 1.389 . S
C3681 H3660 0.950 . S
C3681 C3680 1.373 . S
C3681 C3697 1.377 . S
C3682 C3680 1.389 . S
C3682 C3683 1.524 1_554 S
C3682 C3696 1.377 . S
C3683 C3682 1.524 1_556 S
C3683 C3684 1.397 . S
C3683 C3688 1.363 . S
C3684 H3661 0.950 . S
C3684 C3683 1.397 . S
C3684 C3685 1.334 . S
C3685 H3662 0.950 . S
C3685 C3684 1.334 . S
C3685 C3686 1.287 . S
C3686 C3685 1.287 . S
C3686 C3687 1.524 . S
C3686 H3705 0.913 . S
C3687 H3663 0.950 . S
C3687 C3686 1.524 . S
C3687 C3688 1.415 . S
C3688 H3664 0.950 . S
C3688 C3683 1.363 . S
C3688 C3687 1.415 . S
C3689 H3665 0.951 . S
C3689 C3690 1.366 . S
C3689 C3691 1.388 . S
C3690 C3689 1.366 . S
C3690 C3694 1.385 . S
C3691 H3666 0.951 . S
C3691 C3689 1.388 . S
C3691 C3692 1.366 . S
C3692 C3691 1.366 . S
C3692 C3693 1.414 . S
C3692 C3695 1.499 . S
C3693 H3667 0.950 . S
C3693 C3692 1.414 . S
C3693 C3694 1.374 . S
C3694 H3668 0.950 . S
C3694 C3690 1.385 . S
C3694 C3693 1.374 . S
C3695 C3692 1.499 . S
C3695 C3696 1.373 . S
C3695 C3697 1.389 . S
C3696 H3669 0.950 1_554 S
C3696 C3682 1.377 . S
C3696 C3695 1.373 . S
C3697 C3681 1.377 . S
C3697 C3695 1.389 . S
C3697 C3698 1.524 . S
C3698 C3697 1.524 . S
C3698 C3699 1.397 . S
C3698 C3703 1.363 . S
C3699 H3670 0.950 . S
C3699 C3698 1.397 . S
C3699 C3700 1.334 . S
C3700 H3671 0.950 . S
C3700 C3699 1.334 . S
C3700 C3701 1.287 . S
C3701 C3700 1.287 . S
C3701 C3702 1.524 . S
C3701 H3704 0.999 . S
C3702 H3672 0.950 . S
C3702 C3701 1.524 . S
C3702 C3703 1.415 . S
C3703 H3673 0.950 . S
C3703 C3698 1.363 . S
C3703 C3702 1.415 . S
H3704 C3701 0.999 . S
H3705 C3686 0.913 . S
H3706 C3724 0.951 . S
H3707 C3726 0.951 . S
H3708 C3728 0.950 . S
H3709 C3729 0.950 . S
H3710 C3731 0.950 . S
H3711 C3734 0.950 . S
H3712 C3735 0.950 . S
H3713 C3737 0.950 . S
H3714 C3738 0.950 . S
H3715 C3739 0.951 . S
H3716 C3741 0.951 . S
H3717 C3743 0.950 . S
H3718 C3744 0.950 . S
H3719 C3746 0.950 . S
H3720 C3749 0.928 1_554 S
H3721 C3750 0.950 . S
H3722 C3752 0.950 . S
H3723 C3753 0.950 . S
C3724 H3706 0.951 . S
C3724 C3725 1.366 . S
C3724 C3726 1.388 . S
C3725 C3724 1.366 . S
C3725 C3729 1.385 . S
C3726 H3707 0.951 . S
C3726 C3724 1.388 . S
C3726 C3727 1.366 . S
C3727 C3726 1.366 . S
C3727 C3728 1.414 . S
C3727 C3730 1.499 . S
C3728 H3708 0.950 . S
C3728 C3727 1.414 . S
C3728 C3729 1.374 . S
C3729 H3709 0.950 . S
C3729 C3725 1.385 . S
C3729 C3728 1.374 . S
C3730 C3727 1.499 . S
C3730 C3731 1.373 . S
C3730 C3732 1.389 . S
C3731 H3710 0.950 . S
C3731 C3730 1.373 . S
C3731 C3747 1.377 . S
C3732 C3730 1.389 . S
C3732 C3733 1.524 . S
C3732 C3746 1.377 . S
C3733 C3732 1.524 . S
C3733 C3734 1.397 . S
C3733 C3738 1.363 . S
C3734 H3711 0.950 . S
C3734 C3733 1.397 . S
C3734 C3735 1.334 . S
C3735 H3712 0.950 . S
C3735 C3734 1.334 . S
C3735 C3736 1.287 . S
C3736 C3735 1.287 . S
C3736 C3737 1.524 . S
C3736 H3755 0.913 . S
C3737 H3713 0.950 . S
C3737 C3736 1.524 . S
C3737 C3738 1.415 . S
C3738 H3714 0.950 . S
C3738 C3733 1.363 . S
C3738 C3737 1.415 . S
C3739 H3715 0.951 . S
C3739 C3740 1.366 . S
C3739 C3741 1.388 . S
C3740 C3739 1.366 . S
C3740 C3744 1.385 . S
C3741 H3716 0.951 . S
C3741 C3739 1.388 . S
C3741 C3742 1.366 . S
C3742 C3741 1.366 . S
C3742 C3743 1.414 . S
C3742 C3745 1.499 . S
C3743 H3717 0.950 . S
C3743 C3742 1.414 . S
C3743 C3744 1.374 . S
C3744 H3718 0.950 . S
C3744 C3740 1.385 . S
C3744 C3743 1.374 . S
C3745 C3742 1.499 . S
C3745 C3746 1.373 . S
C3745 C3747 1.389 . S
C3746 H3719 0.950 . S
C3746 C3732 1.377 . S
C3746 C3745 1.373 . S
C3747 C3731 1.377 . S
C3747 C3745 1.389 . S
C3747 C3748 1.524 1_554 S
C3748 C3747 1.524 1_556 S
C3748 C3749 1.397 . S
C3748 C3753 1.363 . S
C3749 H3720 0.928 1_556 S
C3749 C3748 1.397 . S
C3749 C3750 1.334 . S
C3750 H3721 0.950 . S
C3750 C3749 1.334 . S
C3750 C3751 1.287 . S
C3751 C3750 1.287 . S
C3751 C3752 1.524 . S
C3751 H3754 0.999 . S
C3752 H3722 0.950 . S
C3752 C3751 1.524 . S
C3752 C3753 1.415 . S
C3753 H3723 0.950 . S
C3753 C3748 1.363 . S
C3753 C3752 1.415 . S
H3754 C3751 0.999 . S
H3755 C3736 0.913 . S
H3756 C3774 0.951 . S
H3757 C3776 0.951 . S
H3758 C3778 0.950 . S
H3759 C3779 0.950 . S
H3760 C3781 0.950 . S
H3761 C3784 0.950 . S
H3762 C3785 0.950 . S
H3763 C3787 0.950 . S
H3764 C3788 0.950 . S
H3765 C3789 0.951 . S
H3766 C3791 0.951 . S
H3767 C3793 0.950 . S
H3768 C3794 0.950 . S
H3769 C3796 0.950 . S
H3770 C3799 0.950 . S
H3771 C3800 0.950 . S
H3772 C3802 0.950 . S
H3773 C3803 0.950 . S
C3774 H3756 0.951 . S
C3774 C3775 1.366 . S
C3774 C3776 1.388 . S
C3775 C3774 1.366 . S
C3775 C3779 1.385 . S
C3776 H3757 0.951 . S
C3776 C3774 1.388 . S
C3776 C3777 1.366 . S
C3777 C3776 1.366 . S
C3777 C3778 1.414 . S
C3777 C3780 1.499 . S
C3778 H3758 0.950 . S
C3778 C3777 1.414 . S
C3778 C3779 1.374 . S
C3779 H3759 0.950 . S
C3779 C3775 1.385 . S
C3779 C3778 1.374 . S
C3780 C3777 1.499 . S
C3780 C3781 1.373 . S
C3780 C3782 1.389 . S
C3781 H3760 0.950 . S
C3781 C3780 1.373 . S
C3781 C3797 1.377 . S
C3782 C3780 1.389 . S
C3782 C3783 1.524 . S
C3782 C3796 1.377 . S
C3783 C3782 1.524 . S
C3783 C3784 1.397 . S
C3783 C3788 1.363 . S
C3784 H3761 0.950 . S
C3784 C3783 1.397 . S
C3784 C3785 1.334 . S
C3785 H3762 0.950 . S
C3785 C3784 1.334 . S
C3785 C3786 1.287 . S
C3786 C3785 1.287 . S
C3786 C3787 1.524 . S
C3786 H3805 0.913 . S
C3787 H3763 0.950 . S
C3787 C3786 1.524 . S
C3787 C3788 1.415 . S
C3788 H3764 0.950 . S
C3788 C3783 1.363 . S
C3788 C3787 1.415 . S
C3789 H3765 0.951 . S
C3789 C3790 1.366 . S
C3789 C3791 1.388 . S
C3790 C3789 1.366 . S
C3790 C3794 1.385 . S
C3791 H3766 0.951 . S
C3791 C3789 1.388 . S
C3791 C3792 1.366 . S
C3792 C3791 1.366 . S
C3792 C3793 1.414 . S
C3792 C3795 1.499 . S
C3793 H3767 0.950 . S
C3793 C3792 1.414 . S
C3793 C3794 1.374 . S
C3794 H3768 0.950 . S
C3794 C3790 1.385 . S
C3794 C3793 1.374 . S
C3795 C3792 1.499 . S
C3795 C3796 1.373 . S
C3795 C3797 1.389 . S
C3796 H3769 0.950 . S
C3796 C3782 1.377 . S
C3796 C3795 1.373 . S
C3797 C3781 1.377 . S
C3797 C3795 1.389 . S
C3797 C3798 1.524 . S
C3798 C3797 1.524 . S
C3798 C3799 1.397 . S
C3798 C3803 1.363 . S
C3799 H3770 0.950 . S
C3799 C3798 1.397 . S
C3799 C3800 1.334 . S
C3800 H3771 0.950 . S
C3800 C3799 1.334 . S
C3800 C3801 1.287 . S
C3801 C3800 1.287 . S
C3801 C3802 1.524 . S
C3801 H3804 0.999 . S
C3802 H3772 0.950 . S
C3802 C3801 1.524 . S
C3802 C3803 1.415 . S
C3803 H3773 0.950 . S
C3803 C3798 1.363 . S
C3803 C3802 1.415 . S
H3804 C3801 0.999 . S
H3805 C3786 0.913 . S
H3806 C3824 0.951 . S
H3807 C3826 0.951 . S
H3808 C3828 0.950 . S
H3809 C3829 0.950 . S
H3810 C3831 0.950 . S
H3811 C3834 0.950 . S
H3812 C3835 0.950 . S
H3813 C3837 0.950 . S
H3814 C3838 0.950 . S
H3815 C3839 0.951 . S
H3816 C3841 0.951 . S
H3817 C3843 0.950 . S
H3818 C3844 0.950 . S
H3819 C3846 0.950 . S
H3820 C3849 0.950 . S
H3821 C3850 0.950 . S
H3822 C3852 0.950 . S
H3823 C3853 0.950 . S
C3824 H3806 0.951 . S
C3824 C3825 1.366 . S
C3824 C3826 1.388 . S
C3825 C3824 1.366 . S
C3825 C3829 1.385 . S
C3826 H3807 0.951 . S
C3826 C3824 1.388 . S
C3826 C3827 1.366 . S
C3827 C3826 1.366 . S
C3827 C3828 1.414 . S
C3827 C3830 1.499 . S
C3828 H3808 0.950 . S
C3828 C3827 1.414 . S
C3828 C3829 1.374 . S
C3829 H3809 0.950 . S
C3829 C3825 1.385 . S
C3829 C3828 1.374 . S
C3830 C3827 1.499 . S
C3830 C3831 1.373 . S
C3830 C3832 1.389 . S
C3831 H3810 0.950 . S
C3831 C3830 1.373 . S
C3831 C3847 1.377 . S
C3832 C3830 1.389 . S
C3832 C3833 1.524 . S
C3832 C3846 1.377 . S
C3833 C3832 1.524 . S
C3833 C3834 1.397 . S
C3833 C3838 1.363 . S
C3834 H3811 0.950 . S
C3834 C3833 1.397 . S
C3834 C3835 1.334 . S
C3835 H3812 0.950 . S
C3835 C3834 1.334 . S
C3835 C3836 1.287 . S
C3836 C3835 1.287 . S
C3836 C3837 1.524 . S
C3836 H3855 0.913 . S
C3837 H3813 0.950 . S
C3837 C3836 1.524 . S
C3837 C3838 1.415 . S
C3838 H3814 0.950 . S
C3838 C3833 1.363 . S
C3838 C3837 1.415 . S
C3839 H3815 0.951 . S
C3839 C3840 1.366 . S
C3839 C3841 1.388 . S
C3840 C3839 1.366 . S
C3840 C3844 1.385 . S
C3841 H3816 0.951 . S
C3841 C3839 1.388 . S
C3841 C3842 1.366 . S
C3842 C3841 1.366 . S
C3842 C3843 1.414 . S
C3842 C3845 1.499 . S
C3843 H3817 0.950 . S
C3843 C3842 1.414 . S
C3843 C3844 1.374 . S
C3844 H3818 0.950 . S
C3844 C3840 1.385 . S
C3844 C3843 1.374 . S
C3845 C3842 1.499 . S
C3845 C3846 1.373 . S
C3845 C3847 1.389 . S
C3846 H3819 0.950 . S
C3846 C3832 1.377 . S
C3846 C3845 1.373 . S
C3847 C3831 1.377 . S
C3847 C3845 1.389 . S
C3847 C3848 1.524 . S
C3848 C3847 1.524 . S
C3848 C3849 1.397 . S
C3848 C3853 1.363 . S
C3849 H3820 0.950 . S
C3849 C3848 1.397 . S
C3849 C3850 1.334 . S
C3850 H3821 0.950 . S
C3850 C3849 1.334 . S
C3850 C3851 1.287 . S
C3851 C3850 1.287 . S
C3851 C3852 1.524 . S
C3851 H3854 0.999 . S
C3852 H3822 0.950 . S
C3852 C3851 1.524 . S
C3852 C3853 1.415 . S
C3853 H3823 0.950 . S
C3853 C3848 1.363 . S
C3853 C3852 1.415 . S
H3854 C3851 0.999 . S
H3855 C3836 0.913 . S
H3856 C3874 0.951 1_545 S
H3857 C3876 0.951 . S
H3858 C3878 0.950 . S
H3859 C3879 0.950 . S
H3860 C3881 0.950 . S
H3861 C3884 0.950 . S
H3862 C3885 0.950 . S
H3863 C3887 0.949 1_545 S
H3864 C3888 0.950 . S
H3865 C3889 0.951 . S
H3866 C3891 0.951 . S
H3867 C3893 0.950 . S
H3868 C3894 0.950 . S
H3869 C3896 0.950 . S
H3870 C3899 0.950 . S
H3871 C3900 0.950 . S
H3872 C3902 0.950 . S
H3873 C3903 0.950 . S
C3874 H3856 0.951 1_565 S
C3874 C3875 1.387 . S
C3874 C3876 1.388 . S
C3875 C3874 1.387 . S
C3875 C3879 1.425 . S
C3876 H3857 0.951 . S
C3876 C3874 1.388 . S
C3876 C3877 1.366 . S
C3877 C3876 1.366 . S
C3877 C3878 1.414 . S
C3877 C3880 1.499 . S
C3878 H3858 0.950 . S
C3878 C3877 1.414 . S
C3878 C3879 1.374 . S
C3879 H3859 0.950 . S
C3879 C3875 1.425 . S
C3879 C3878 1.374 . S
C3880 C3877 1.499 . S
C3880 C3881 1.373 . S
C3880 C3882 1.389 . S
C3881 H3860 0.950 . S
C3881 C3880 1.373 . S
C3881 C3897 1.377 . S
C3882 C3880 1.389 . S
C3882 C3883 1.524 . S
C3882 C3896 1.377 . S
C3883 C3882 1.524 . S
C3883 C3884 1.397 . S
C3883 C3888 1.363 . S
C3884 H3861 0.950 . S
C3884 C3883 1.397 . S
C3884 C3885 1.334 1_565 S
C3885 H3862 0.950 . S
C3885 C3884 1.334 1_545 S
C3885 C3886 1.287 . S
C3886 C3885 1.287 . S
C3886 C3887 1.524 1_545 S
C3886 H3905 0.913 . S
C3887 H3863 0.949 1_565 S
C3887 C3886 1.524 1_565 S
C3887 C3888 1.415 . S
C3888 H3864 0.950 . S
C3888 C3883 1.363 . S
C3888 C3887 1.415 . S
C3889 H3865 0.951 . S
C3889 C3890 1.366 . S
C3889 C3891 1.388 . S
C3890 C3889 1.366 . S
C3890 C3894 1.385 . S
C3891 H3866 0.951 . S
C3891 C3889 1.388 . S
C3891 C3892 1.366 . S
C3892 C3891 1.366 . S
C3892 C3893 1.414 . S
C3892 C3895 1.499 . S
C3893 H3867 0.950 . S
C3893 C3892 1.414 . S
C3893 C3894 1.374 . S
C3894 H3868 0.950 . S
C3894 C3890 1.385 . S
C3894 C3893 1.374 . S
C3895 C3892 1.499 . S
C3895 C3896 1.373 . S
C3895 C3897 1.389 . S
C3896 H3869 0.950 . S
C3896 C3882 1.377 . S
C3896 C3895 1.373 . S
C3897 C3881 1.377 . S
C3897 C3895 1.389 . S
C3897 C3898 1.524 . S
C3898 C3897 1.524 . S
C3898 C3899 1.397 . S
C3898 C3903 1.363 . S
C3899 H3870 0.950 . S
C3899 C3898 1.397 . S
C3899 C3900 1.334 . S
C3900 H3871 0.950 . S
C3900 C3899 1.334 . S
C3900 C3901 1.287 . S
C3901 C3900 1.287 . S
C3901 C3902 1.524 . S
C3901 H3904 0.999 . S
C3902 H3872 0.950 . S
C3902 C3901 1.524 . S
C3902 C3903 1.415 . S
C3903 H3873 0.950 . S
C3903 C3898 1.363 . S
C3903 C3902 1.415 . S
H3904 C3901 0.999 . S
H3905 C3886 0.913 . S
H3906 C3924 0.951 . S
H3907 C3926 0.951 . S
H3908 C3928 0.950 . S
H3909 C3929 0.950 . S
H3910 C3931 0.950 . S
H3911 C3934 0.950 . S
H3912 C3935 0.950 . S
H3913 C3937 0.950 . S
H3914 C3938 0.950 . S
H3915 C3939 0.951 . S
H3916 C3941 0.951 . S
H3917 C3943 0.950 . S
H3918 C3944 0.950 . S
H3919 C3946 0.950 . S
H3920 C3949 0.950 . S
H3921 C3950 0.950 . S
H3922 C3952 0.950 . S
H3923 C3953 0.950 . S
C3924 H3906 0.951 . S
C3924 C3925 1.366 . S
C3924 C3926 1.388 . S
C3925 C3924 1.366 . S
C3925 C3929 1.385 . S
C3926 H3907 0.951 . S
C3926 C3924 1.388 . S
C3926 C3927 1.366 . S
C3927 C3926 1.366 . S
C3927 C3928 1.414 . S
C3927 C3930 1.499 . S
C3928 H3908 0.950 . S
C3928 C3927 1.414 . S
C3928 C3929 1.374 . S
C3929 H3909 0.950 . S
C3929 C3925 1.385 . S
C3929 C3928 1.374 . S
C3930 C3927 1.499 . S
C3930 C3931 1.373 . S
C3930 C3932 1.389 . S
C3931 H3910 0.950 . S
C3931 C3930 1.373 . S
C3931 C3947 1.377 . S
C3932 C3930 1.389 . S
C3932 C3933 1.524 . S
C3932 C3946 1.377 . S
C3933 C3932 1.524 . S
C3933 C3934 1.397 . S
C3933 C3938 1.363 . S
C3934 H3911 0.950 . S
C3934 C3933 1.397 . S
C3934 C3935 1.334 . S
C3935 H3912 0.950 . S
C3935 C3934 1.334 . S
C3935 C3936 1.287 . S
C3936 C3935 1.287 . S
C3936 C3937 1.524 . S
C3936 H3955 0.913 . S
C3937 H3913 0.950 . S
C3937 C3936 1.524 . S
C3937 C3938 1.415 . S
C3938 H3914 0.950 . S
C3938 C3933 1.363 . S
C3938 C3937 1.415 . S
C3939 H3915 0.951 . S
C3939 C3940 1.366 . S
C3939 C3941 1.388 . S
C3940 C3939 1.366 . S
C3940 C3944 1.385 . S
C3941 H3916 0.951 . S
C3941 C3939 1.388 . S
C3941 C3942 1.366 . S
C3942 C3941 1.366 . S
C3942 C3943 1.414 . S
C3942 C3945 1.499 . S
C3943 H3917 0.950 . S
C3943 C3942 1.414 . S
C3943 C3944 1.374 . S
C3944 H3918 0.950 . S
C3944 C3940 1.385 . S
C3944 C3943 1.374 . S
C3945 C3942 1.499 . S
C3945 C3946 1.373 . S
C3945 C3947 1.389 . S
C3946 H3919 0.950 . S
C3946 C3932 1.377 . S
C3946 C3945 1.373 . S
C3947 C3931 1.377 . S
C3947 C3945 1.389 . S
C3947 C3948 1.524 . S
C3948 C3947 1.524 . S
C3948 C3949 1.397 . S
C3948 C3953 1.363 . S
C3949 H3920 0.950 . S
C3949 C3948 1.397 . S
C3949 C3950 1.334 1_565 S
C3950 H3921 0.950 . S
C3950 C3949 1.334 1_545 S
C3950 C3951 1.287 . S
C3951 C3950 1.287 . S
C3951 C3952 1.524 . S
C3951 H3954 0.999 . S
C3952 H3922 0.950 . S
C3952 C3951 1.524 . S
C3952 C3953 1.415 1_545 S
C3953 H3923 0.950 . S
C3953 C3948 1.363 . S
C3953 C3952 1.415 1_565 S
H3954 C3951 0.999 . S
H3955 C3936 0.913 . S
H3956 C3974 0.951 . S
H3957 C3976 0.951 . S
H3958 C3978 0.950 . S
H3959 C3979 0.950 . S
H3960 C3981 0.950 . S
H3961 C3984 0.950 . S
H3962 C3985 0.950 . S
H3963 C3987 0.950 . S
H3964 C3988 0.950 . S
H3965 C3989 0.951 . S
H3966 C3991 0.951 . S
H3967 C3993 0.950 . S
H3968 C3994 0.950 . S
H3969 C3996 0.950 . S
H3970 C3999 0.950 . S
H3971 C4000 0.950 . S
H3972 C4002 0.950 . S
H3973 C4003 0.950 . S
C3974 H3956 0.951 . S
C3974 C3975 1.366 . S
C3974 C3976 1.388 . S
C3975 C3974 1.366 . S
C3975 C3979 1.385 . S
C3976 H3957 0.951 . S
C3976 C3974 1.388 . S
C3976 C3977 1.366 . S
C3977 C3976 1.366 . S
C3977 C3978 1.414 . S
C3977 C3980 1.499 . S
C3978 H3958 0.950 . S
C3978 C3977 1.414 . S
C3978 C3979 1.374 . S
C3979 H3959 0.950 . S
C3979 C3975 1.385 . S
C3979 C3978 1.374 . S
C3980 C3977 1.499 . S
C3980 C3981 1.373 . S
C3980 C3982 1.389 . S
C3981 H3960 0.950 . S
C3981 C3980 1.373 . S
C3981 C3997 1.377 . S
C3982 C3980 1.389 . S
C3982 C3983 1.524 . S
C3982 C3996 1.377 . S
C3983 C3982 1.524 . S
C3983 C3984 1.397 . S
C3983 C3988 1.363 . S
C3984 H3961 0.950 . S
C3984 C3983 1.397 . S
C3984 C3985 1.334 . S
C3985 H3962 0.950 . S
C3985 C3984 1.334 . S
C3985 C3986 1.287 . S
C3986 C3985 1.287 . S
C3986 C3987 1.524 . S
C3986 H4005 0.913 . S
C3987 H3963 0.950 . S
C3987 C3986 1.524 . S
C3987 C3988 1.415 . S
C3988 H3964 0.950 . S
C3988 C3983 1.363 . S
C3988 C3987 1.415 . S
C3989 H3965 0.951 . S
C3989 C3990 1.366 . S
C3989 C3991 1.388 . S
C3990 C3989 1.366 . S
C3990 C3994 1.385 . S
C3991 H3966 0.951 . S
C3991 C3989 1.388 . S
C3991 C3992 1.366 . S
C3992 C3991 1.366 . S
C3992 C3993 1.414 . S
C3992 C3995 1.499 . S
C3993 H3967 0.950 . S
C3993 C3992 1.414 . S
C3993 C3994 1.374 . S
C3994 H3968 0.950 . S
C3994 C3990 1.385 . S
C3994 C3993 1.374 . S
C3995 C3992 1.499 . S
C3995 C3996 1.373 . S
C3995 C3997 1.389 . S
C3996 H3969 0.950 . S
C3996 C3982 1.377 . S
C3996 C3995 1.373 . S
C3997 C3981 1.377 . S
C3997 C3995 1.389 . S
C3997 C3998 1.524 . S
C3998 C3997 1.524 . S
C3998 C3999 1.397 . S
C3998 C4003 1.363 . S
C3999 H3970 0.950 . S
C3999 C3998 1.397 . S
C3999 C4000 1.334 . S
C4000 H3971 0.950 . S
C4000 C3999 1.334 . S
C4000 C4001 1.287 . S
C4001 C4000 1.287 . S
C4001 C4002 1.524 . S
C4001 H4004 0.999 . S
C4002 H3972 0.950 . S
C4002 C4001 1.524 . S
C4002 C4003 1.415 . S
C4003 H3973 0.950 . S
C4003 C3998 1.363 . S
C4003 C4002 1.415 . S
H4004 C4001 0.999 . S
H4005 C3986 0.913 . S
H4006 C4024 0.951 . S
H4007 C4026 0.951 . S
H4008 C4028 0.950 . S
H4009 C4029 0.950 . S
H4010 C4031 0.950 . S
H4011 C4034 0.950 . S
H4012 C4035 0.950 . S
H4013 C4037 0.950 . S
H4014 C4038 0.950 . S
H4015 C4039 0.951 . S
H4016 C4041 0.951 . S
H4017 C4043 0.950 . S
H4018 C4044 0.950 . S
H4019 C4046 0.950 . S
H4020 C4049 0.950 . S
H4021 C4050 0.950 . S
H4022 C4052 0.950 . S
H4023 C4053 0.950 . S
C4024 H4006 0.951 . S
C4024 C4025 1.366 . S
C4024 C4026 1.388 . S
C4025 C4024 1.366 . S
C4025 C4029 1.385 . S
C4026 H4007 0.951 . S
C4026 C4024 1.388 . S
C4026 C4027 1.366 . S
C4027 C4026 1.366 . S
C4027 C4028 1.414 . S
C4027 C4030 1.499 . S
C4028 H4008 0.950 . S
C4028 C4027 1.414 . S
C4028 C4029 1.374 . S
C4029 H4009 0.950 . S
C4029 C4025 1.385 . S
C4029 C4028 1.374 . S
C4030 C4027 1.499 . S
C4030 C4031 1.373 . S
C4030 C4032 1.389 . S
C4031 H4010 0.950 . S
C4031 C4030 1.373 . S
C4031 C4047 1.377 . S
C4032 C4030 1.389 . S
C4032 C4033 1.524 . S
C4032 C4046 1.377 . S
C4033 C4032 1.524 . S
C4033 C4034 1.397 . S
C4033 C4038 1.363 . S
C4034 H4011 0.950 . S
C4034 C4033 1.397 . S
C4034 C4035 1.334 . S
C4035 H4012 0.950 . S
C4035 C4034 1.334 . S
C4035 C4036 1.287 . S
C4036 C4035 1.287 . S
C4036 C4037 1.524 . S
C4036 H4055 0.913 . S
C4037 H4013 0.950 . S
C4037 C4036 1.524 . S
C4037 C4038 1.415 . S
C4038 H4014 0.950 . S
C4038 C4033 1.363 . S
C4038 C4037 1.415 . S
C4039 H4015 0.951 . S
C4039 C4040 1.366 . S
C4039 C4041 1.388 . S
C4040 C4039 1.366 . S
C4040 C4044 1.385 . S
C4041 H4016 0.951 . S
C4041 C4039 1.388 . S
C4041 C4042 1.366 . S
C4042 C4041 1.366 . S
C4042 C4043 1.414 . S
C4042 C4045 1.499 . S
C4043 H4017 0.950 . S
C4043 C4042 1.414 . S
C4043 C4044 1.374 . S
C4044 H4018 0.950 . S
C4044 C4040 1.385 . S
C4044 C4043 1.374 . S
C4045 C4042 1.499 . S
C4045 C4046 1.373 . S
C4045 C4047 1.389 . S
C4046 H4019 0.950 . S
C4046 C4032 1.377 . S
C4046 C4045 1.373 . S
C4047 C4031 1.377 . S
C4047 C4045 1.389 . S
C4047 C4048 1.524 . S
C4048 C4047 1.524 . S
C4048 C4049 1.397 . S
C4048 C4053 1.363 . S
C4049 H4020 0.950 . S
C4049 C4048 1.397 . S
C4049 C4050 1.334 . S
C4050 H4021 0.950 . S
C4050 C4049 1.334 . S
C4050 C4051 1.287 . S
C4051 C4050 1.287 . S
C4051 C4052 1.524 . S
C4051 H4054 0.999 . S
C4052 H4022 0.950 . S
C4052 C4051 1.524 . S
C4052 C4053 1.415 . S
C4053 H4023 0.950 . S
C4053 C4048 1.363 . S
C4053 C4052 1.415 . S
H4054 C4051 0.999 . S
H4055 C4036 0.913 . S
H4056 C4074 0.951 . S
H4057 C4076 0.951 . S
H4058 C4078 0.950 . S
H4059 C4079 0.950 . S
H4060 C4081 0.950 . S
H4061 C4084 0.950 . S
H4062 C4085 0.950 . S
H4063 C4087 0.950 . S
H4064 C4088 0.950 . S
H4065 C4089 0.951 . S
H4066 C4091 0.951 . S
H4067 C4093 0.950 . S
H4068 C4094 0.950 . S
H4069 C4096 0.950 . S
H4070 C4099 0.950 . S
H4071 C4100 0.950 . S
H4072 C4102 0.950 . S
H4073 C4103 0.950 . S
C4074 H4056 0.951 . S
C4074 C4075 1.366 . S
C4074 C4076 1.388 . S
C4075 C4074 1.366 . S
C4075 C4079 1.385 . S
C4076 H4057 0.951 . S
C4076 C4074 1.388 . S
C4076 C4077 1.366 . S
C4077 C4076 1.366 . S
C4077 C4078 1.414 . S
C4077 C4080 1.499 . S
C4078 H4058 0.950 . S
C4078 C4077 1.414 . S
C4078 C4079 1.374 . S
C4079 H4059 0.950 . S
C4079 C4075 1.385 . S
C4079 C4078 1.374 . S
C4080 C4077 1.499 . S
C4080 C4081 1.373 . S
C4080 C4082 1.389 . S
C4081 H4060 0.950 . S
C4081 C4080 1.373 . S
C4081 C4097 1.377 . S
C4082 C4080 1.389 . S
C4082 C4083 1.524 . S
C4082 C4096 1.377 . S
C4083 C4082 1.524 . S
C4083 C4084 1.397 . S
C4083 C4088 1.363 . S
C4084 H4061 0.950 . S
C4084 C4083 1.397 . S
C4084 C4085 1.334 . S
C4085 H4062 0.950 . S
C4085 C4084 1.334 . S
C4085 C4086 1.287 . S
C4086 C4085 1.287 . S
C4086 C4087 1.524 . S
C4086 H4105 0.913 . S
C4087 H4063 0.950 . S
C4087 C4086 1.524 . S
C4087 C4088 1.415 . S
C4088 H4064 0.950 . S
C4088 C4083 1.363 . S
C4088 C4087 1.415 . S
C4089 H4065 0.951 . S
C4089 C4090 1.366 . S
C4089 C4091 1.388 . S
C4090 C4089 1.366 . S
C4090 C4094 1.385 . S
C4091 H4066 0.951 . S
C4091 C4089 1.388 . S
C4091 C4092 1.366 . S
C4092 C4091 1.366 . S
C4092 C4093 1.414 . S
C4092 C4095 1.499 . S
C4093 H4067 0.950 . S
C4093 C4092 1.414 . S
C4093 C4094 1.374 . S
C4094 H4068 0.950 . S
C4094 C4090 1.385 . S
C4094 C4093 1.374 . S
C4095 C4092 1.499 . S
C4095 C4096 1.373 . S
C4095 C4097 1.389 . S
C4096 H4069 0.950 . S
C4096 C4082 1.377 . S
C4096 C4095 1.373 . S
C4097 C4081 1.377 . S
C4097 C4095 1.389 . S
C4097 C4098 1.524 . S
C4098 C4097 1.524 . S
C4098 C4099 1.397 . S
C4098 C4103 1.363 . S
C4099 H4070 0.950 . S
C4099 C4098 1.397 . S
C4099 C4100 1.334 . S
C4100 H4071 0.950 . S
C4100 C4099 1.334 . S
C4100 C4101 1.287 . S
C4101 C4100 1.287 . S
C4101 C4102 1.524 . S
C4101 H4104 0.999 . S
C4102 H4072 0.950 . S
C4102 C4101 1.524 . S
C4102 C4103 1.415 . S
C4103 H4073 0.950 . S
C4103 C4098 1.363 . S
C4103 C4102 1.415 . S
H4104 C4101 0.999 . S
H4105 C4086 0.913 . S
H4106 C4124 0.951 . S
H4107 C4126 0.951 . S
H4108 C4128 0.950 . S
H4109 C4129 0.950 . S
H4110 C4131 0.950 . S
H4111 C4134 0.950 . S
H4112 C4135 0.950 . S
H4113 C4137 0.950 . S
H4114 C4138 0.950 . S
H4115 C4139 0.951 . S
H4116 C4141 0.951 . S
H4117 C4143 0.950 . S
H4118 C4144 0.950 . S
H4119 C4146 0.950 . S
H4120 C4149 0.950 . S
H4121 C4150 0.950 . S
H4122 C4152 0.950 . S
H4123 C4153 0.950 . S
C4124 H4106 0.951 . S
C4124 C4125 1.366 . S
C4124 C4126 1.388 . S
C4125 C4124 1.366 . S
C4125 C4129 1.385 . S
C4126 H4107 0.951 . S
C4126 C4124 1.388 . S
C4126 C4127 1.366 . S
C4127 C4126 1.366 . S
C4127 C4128 1.414 . S
C4127 C4130 1.499 . S
C4128 H4108 0.950 . S
C4128 C4127 1.414 . S
C4128 C4129 1.374 . S
C4129 H4109 0.950 . S
C4129 C4125 1.385 . S
C4129 C4128 1.374 . S
C4130 C4127 1.499 . S
C4130 C4131 1.373 . S
C4130 C4132 1.389 . S
C4131 H4110 0.950 . S
C4131 C4130 1.373 . S
C4131 C4147 1.377 . S
C4132 C4130 1.389 . S
C4132 C4133 1.524 . S
C4132 C4146 1.377 . S
C4133 C4132 1.524 . S
C4133 C4134 1.397 . S
C4133 C4138 1.363 . S
C4134 H4111 0.950 . S
C4134 C4133 1.397 . S
C4134 C4135 1.334 . S
C4135 H4112 0.950 . S
C4135 C4134 1.334 . S
C4135 C4136 1.287 . S
C4136 C4135 1.287 . S
C4136 C4137 1.524 . S
C4136 H4155 0.913 . S
C4137 H4113 0.950 . S
C4137 C4136 1.524 . S
C4137 C4138 1.415 . S
C4138 H4114 0.950 . S
C4138 C4133 1.363 . S
C4138 C4137 1.415 . S
C4139 H4115 0.951 . S
C4139 C4140 1.366 . S
C4139 C4141 1.388 . S
C4140 C4139 1.366 . S
C4140 C4144 1.385 . S
C4141 H4116 0.951 . S
C4141 C4139 1.388 . S
C4141 C4142 1.366 . S
C4142 C4141 1.366 . S
C4142 C4143 1.414 . S
C4142 C4145 1.499 . S
C4143 H4117 0.950 . S
C4143 C4142 1.414 . S
C4143 C4144 1.374 . S
C4144 H4118 0.950 . S
C4144 C4140 1.385 . S
C4144 C4143 1.374 . S
C4145 C4142 1.499 . S
C4145 C4146 1.373 . S
C4145 C4147 1.389 . S
C4146 H4119 0.950 . S
C4146 C4132 1.377 . S
C4146 C4145 1.373 . S
C4147 C4131 1.377 . S
C4147 C4145 1.389 . S
C4147 C4148 1.524 . S
C4148 C4147 1.524 . S
C4148 C4149 1.397 . S
C4148 C4153 1.363 . S
C4149 H4120 0.950 . S
C4149 C4148 1.397 . S
C4149 C4150 1.334 . S
C4150 H4121 0.950 . S
C4150 C4149 1.334 . S
C4150 C4151 1.287 . S
C4151 C4150 1.287 . S
C4151 C4152 1.524 . S
C4151 H4154 0.999 . S
C4152 H4122 0.950 . S
C4152 C4151 1.524 . S
C4152 C4153 1.415 . S
C4153 H4123 0.950 . S
C4153 C4148 1.363 . S
C4153 C4152 1.415 . S
H4154 C4151 0.999 . S
H4155 C4136 0.913 . S
H4156 C4174 0.951 . S
H4157 C4176 0.951 . S
H4158 C4178 0.950 . S
H4159 C4179 0.950 . S
H4160 C4181 0.950 . S
H4161 C4184 0.950 . S
H4162 C4185 0.950 . S
H4163 C4187 0.950 1_554 S
H4164 C4188 0.950 1_554 S
H4165 C4189 0.951 . S
H4166 C4191 0.949 1_556 S
H4167 C4193 0.950 . S
H4168 C4194 0.950 . S
H4169 C4196 0.937 1_654 S
H4170 C4199 0.950 . S
H4171 C4200 0.950 . S
H4172 C4202 0.950 . S
H4173 C4203 0.950 . S
C4174 H4156 0.951 . S
C4174 C4175 1.366 . S
C4174 C4176 1.388 . S
C4175 C4174 1.366 . S
C4175 C4179 1.385 . S
C4176 H4157 0.951 . S
C4176 C4174 1.388 . S
C4176 C4177 1.366 . S
C4177 C4176 1.366 . S
C4177 C4178 1.414 . S
C4177 C4180 1.499 . S
C4178 H4158 0.950 . S
C4178 C4177 1.414 . S
C4178 C4179 1.374 . S
C4179 H4159 0.950 . S
C4179 C4175 1.385 . S
C4179 C4178 1.374 . S
C4180 C4177 1.499 . S
C4180 C4181 1.373 . S
C4180 C4182 1.389 . S
C4181 H4160 0.950 . S
C4181 C4180 1.373 . S
C4181 C4197 1.377 . S
C4182 C4180 1.389 . S
C4182 C4183 1.524 1_455 S
C4182 C4196 1.377 . S
C4183 C4182 1.524 1_655 S
C4183 C4184 1.397 . S
C4183 C4188 1.363 . S
C4184 H4161 0.950 . S
C4184 C4183 1.397 . S
C4184 C4185 1.334 . S
C4185 H4162 0.950 . S
C4185 C4184 1.334 . S
C4185 C4186 1.287 . S
C4186 C4185 1.287 . S
C4186 C4187 1.524 . S
C4186 H4205 0.913 . S
C4187 H4163 0.950 1_556 S
C4187 C4186 1.524 . S
C4187 C4188 1.415 . S
C4188 H4164 0.950 1_556 S
C4188 C4183 1.363 . S
C4188 C4187 1.415 . S
C4189 H4165 0.951 . S
C4189 C4190 1.366 . S
C4189 C4191 1.388 . S
C4190 C4189 1.366 . S
C4190 C4194 1.385 . S
C4191 H4166 0.949 1_554 S
C4191 C4189 1.388 . S
C4191 C4192 1.367 . S
C4192 C4191 1.367 . S
C4192 C4193 1.414 . S
C4192 C4195 1.507 . S
C4193 H4167 0.950 . S
C4193 C4192 1.414 . S
C4193 C4194 1.374 . S
C4194 H4168 0.950 . S
C4194 C4190 1.385 . S
C4194 C4193 1.374 . S
C4195 C4192 1.507 . S
C4195 C4196 1.373 1_554 S
C4195 C4197 1.379 1_554 S
C4196 H4169 0.937 1_456 S
C4196 C4182 1.377 . S
C4196 C4195 1.373 1_556 S
C4197 C4181 1.377 . S
C4197 C4195 1.379 1_556 S
C4197 C4198 1.524 . S
C4198 C4197 1.524 . S
C4198 C4199 1.401 1_556 S
C4198 C4203 1.359 . S
C4199 H4170 0.950 . S
C4199 C4198 1.401 1_554 S
C4199 C4200 1.334 . S
C4200 H4171 0.950 . S
C4200 C4199 1.334 . S
C4200 C4201 1.287 . S
C4201 C4200 1.287 . S
C4201 C4202 1.524 1_554 S
C4201 H4204 0.999 . S
C4202 H4172 0.950 . S
C4202 C4201 1.524 1_556 S
C4202 C4203 1.415 . S
C4203 H4173 0.950 . S
C4203 C4198 1.359 . S
C4203 C4202 1.415 . S
H4204 C4201 0.999 . S
H4205 C4186 0.913 . S
H4206 C4224 0.951 . S
H4207 C4226 0.951 . S
H4208 C4228 0.950 . S
H4209 C4229 0.950 . S
H4210 C4231 0.950 . S
H4211 C4234 0.950 . S
H4212 C4235 0.950 . S
H4213 C4237 0.950 . S
H4214 C4238 0.950 . S
H4215 C4239 0.951 . S
H4216 C4241 0.951 . S
H4217 C4243 0.950 . S
H4218 C4244 0.950 . S
H4219 C4246 0.950 . S
H4220 C4249 0.950 . S
H4221 C4250 0.950 . S
H4222 C4252 0.950 . S
H4223 C4253 0.950 . S
C4224 H4206 0.951 . S
C4224 C4225 1.366 . S
C4224 C4226 1.388 . S
C4225 C4224 1.366 . S
C4225 C4229 1.385 . S
C4226 H4207 0.951 . S
C4226 C4224 1.388 . S
C4226 C4227 1.366 1_455 S
C4227 C4226 1.366 1_655 S
C4227 C4228 1.414 . S
C4227 C4230 1.499 . S
C4228 H4208 0.950 . S
C4228 C4227 1.414 . S
C4228 C4229 1.374 1_655 S
C4229 H4209 0.950 . S
C4229 C4225 1.385 . S
C4229 C4228 1.374 1_455 S
C4230 C4227 1.499 . S
C4230 C4231 1.373 . S
C4230 C4232 1.389 . S
C4231 H4210 0.950 . S
C4231 C4230 1.373 . S
C4231 C4247 1.377 . S
C4232 C4230 1.389 . S
C4232 C4233 1.524 . S
C4232 C4246 1.377 . S
C4233 C4232 1.524 . S
C4233 C4234 1.397 . S
C4233 C4238 1.363 . S
C4234 H4211 0.950 . S
C4234 C4233 1.397 . S
C4234 C4235 1.334 . S
C4235 H4212 0.950 . S
C4235 C4234 1.334 . S
C4235 C4236 1.287 . S
C4236 C4235 1.287 . S
C4236 C4237 1.524 . S
C4236 H4255 0.913 . S
C4237 H4213 0.950 . S
C4237 C4236 1.524 . S
C4237 C4238 1.415 . S
C4238 H4214 0.950 . S
C4238 C4233 1.363 . S
C4238 C4237 1.415 . S
C4239 H4215 0.951 . S
C4239 C4240 1.366 . S
C4239 C4241 1.388 . S
C4240 C4239 1.366 . S
C4240 C4244 1.385 . S
C4241 H4216 0.951 . S
C4241 C4239 1.388 . S
C4241 C4242 1.366 . S
C4242 C4241 1.366 . S
C4242 C4243 1.414 . S
C4242 C4245 1.499 . S
C4243 H4217 0.950 . S
C4243 C4242 1.414 . S
C4243 C4244 1.374 . S
C4244 H4218 0.950 . S
C4244 C4240 1.385 . S
C4244 C4243 1.374 . S
C4245 C4242 1.499 . S
C4245 C4246 1.373 . S
C4245 C4247 1.389 . S
C4246 H4219 0.950 . S
C4246 C4232 1.377 . S
C4246 C4245 1.373 . S
C4247 C4231 1.377 . S
C4247 C4245 1.389 . S
C4247 C4248 1.524 . S
C4248 C4247 1.524 . S
C4248 C4249 1.397 . S
C4248 C4253 1.363 . S
C4249 H4220 0.950 . S
C4249 C4248 1.397 . S
C4249 C4250 1.334 . S
C4250 H4221 0.950 . S
C4250 C4249 1.334 . S
C4250 C4251 1.287 . S
C4251 C4250 1.287 . S
C4251 C4252 1.524 . S
C4251 H4254 0.999 . S
C4252 H4222 0.950 . S
C4252 C4251 1.524 . S
C4252 C4253 1.415 . S
C4253 H4223 0.950 . S
C4253 C4248 1.363 . S
C4253 C4252 1.415 . S
H4254 C4251 0.999 . S
H4255 C4236 0.913 . S
H4256 C4274 0.951 . S
H4257 C4276 0.951 . S
H4258 C4278 0.950 . S
H4259 C4279 0.950 . S
H4260 C4281 0.950 . S
H4261 C4284 0.950 . S
H4262 C4285 0.950 . S
H4263 C4287 0.950 . S
H4264 C4288 0.950 . S
H4265 C4289 0.951 . S
H4266 C4291 0.951 . S
H4267 C4293 0.950 . S
H4268 C4294 0.950 . S
H4269 C4296 0.950 . S
H4270 C4299 0.950 . S
H4271 C4300 0.950 . S
H4272 C4302 0.950 . S
H4273 C4303 0.950 . S
C4274 H4256 0.951 . S
C4274 C4275 1.366 . S
C4274 C4276 1.388 . S
C4275 C4274 1.366 . S
C4275 C4279 1.385 . S
C4276 H4257 0.951 . S
C4276 C4274 1.388 . S
C4276 C4277 1.366 . S
C4277 C4276 1.366 . S
C4277 C4278 1.414 . S
C4277 C4280 1.499 . S
C4278 H4258 0.950 . S
C4278 C4277 1.414 . S
C4278 C4279 1.374 . S
C4279 H4259 0.950 . S
C4279 C4275 1.385 . S
C4279 C4278 1.374 . S
C4280 C4277 1.499 . S
C4280 C4281 1.373 . S
C4280 C4282 1.389 . S
C4281 H4260 0.950 . S
C4281 C4280 1.373 . S
C4281 C4297 1.377 . S
C4282 C4280 1.389 . S
C4282 C4283 1.524 . S
C4282 C4296 1.377 . S
C4283 C4282 1.524 . S
C4283 C4284 1.397 . S
C4283 C4288 1.363 . S
C4284 H4261 0.950 . S
C4284 C4283 1.397 . S
C4284 C4285 1.334 . S
C4285 H4262 0.950 . S
C4285 C4284 1.334 . S
C4285 C4286 1.287 . S
C4286 C4285 1.287 . S
C4286 C4287 1.524 . S
C4286 H4305 0.913 . S
C4287 H4263 0.950 . S
C4287 C4286 1.524 . S
C4287 C4288 1.415 . S
C4288 H4264 0.950 . S
C4288 C4283 1.363 . S
C4288 C4287 1.415 . S
C4289 H4265 0.951 . S
C4289 C4290 1.366 . S
C4289 C4291 1.388 . S
C4290 C4289 1.366 . S
C4290 C4294 1.385 . S
C4291 H4266 0.951 . S
C4291 C4289 1.388 . S
C4291 C4292 1.366 . S
C4292 C4291 1.366 . S
C4292 C4293 1.414 . S
C4292 C4295 1.499 . S
C4293 H4267 0.950 . S
C4293 C4292 1.414 . S
C4293 C4294 1.374 . S
C4294 H4268 0.950 . S
C4294 C4290 1.385 . S
C4294 C4293 1.374 . S
C4295 C4292 1.499 . S
C4295 C4296 1.373 . S
C4295 C4297 1.389 . S
C4296 H4269 0.950 . S
C4296 C4282 1.377 . S
C4296 C4295 1.373 . S
C4297 C4281 1.377 . S
C4297 C4295 1.389 . S
C4297 C4298 1.524 . S
C4298 C4297 1.524 . S
C4298 C4299 1.397 . S
C4298 C4303 1.363 . S
C4299 H4270 0.950 . S
C4299 C4298 1.397 . S
C4299 C4300 1.334 . S
C4300 H4271 0.950 . S
C4300 C4299 1.334 . S
C4300 C4301 1.287 . S
C4301 C4300 1.287 . S
C4301 C4302 1.524 . S
C4301 H4304 0.999 . S
C4302 H4272 0.950 . S
C4302 C4301 1.524 . S
C4302 C4303 1.415 . S
C4303 H4273 0.950 . S
C4303 C4298 1.363 . S
C4303 C4302 1.415 . S
H4304 C4301 0.999 . S
H4305 C4286 0.913 . S
H4306 C4324 0.951 . S
H4307 C4326 0.951 . S
H4308 C4328 0.950 . S
H4309 C4329 0.950 . S
H4310 C4331 0.925 1_455 S
H4311 C4334 0.950 . S
H4312 C4335 0.950 . S
H4313 C4337 0.948 . S
H4314 C4338 0.950 . S
H4315 C4339 0.951 . S
H4316 C4341 0.951 . S
H4317 C4343 0.950 . S
H4318 C4344 0.950 . S
H4319 C4346 0.950 . S
H4320 C4349 0.950 . S
H4321 C4350 0.950 . S
H4322 C4352 0.950 . S
H4323 C4353 0.950 . S
C4324 H4306 0.951 . S
C4324 C4325 1.366 . S
C4324 C4326 1.388 . S
C4325 C4324 1.366 . S
C4325 C4329 1.385 . S
C4326 H4307 0.951 . S
C4326 C4324 1.388 . S
C4326 C4327 1.366 . S
C4327 C4326 1.366 . S
C4327 C4328 1.414 . S
C4327 C4330 1.543 . S
C4328 H4308 0.950 . S
C4328 C4327 1.414 . S
C4328 C4329 1.374 . S
C4329 H4309 0.950 . S
C4329 C4325 1.385 . S
C4329 C4328 1.374 . S
C4330 C4327 1.543 . S
C4330 C4331 1.365 1_455 S
C4330 C4332 1.355 1_455 S
C4331 H4310 0.925 1_655 S
C4331 C4330 1.365 1_655 S
C4331 C4347 1.377 . S
C4332 C4330 1.355 1_655 S
C4332 C4333 1.524 . S
C4332 C4346 1.377 . S
C4333 C4332 1.524 . S
C4333 C4334 1.397 . S
C4333 C4338 1.363 . S
C4334 H4311 0.950 . S
C4334 C4333 1.397 . S
C4334 C4335 1.334 1_655 S
C4335 H4312 0.950 . S
C4335 C4334 1.334 1_455 S
C4335 C4336 1.287 . S
C4336 C4335 1.287 . S
C4336 C4337 1.526 . S
C4336 H4355 0.913 . S
C4337 H4313 0.948 . S
C4337 C4336 1.526 . S
C4337 C4338 1.415 1_455 S
C4338 H4314 0.950 . S
C4338 C4333 1.363 . S
C4338 C4337 1.415 1_655 S
C4339 H4315 0.951 . S
C4339 C4340 1.366 . S
C4339 C4341 1.388 . S
C4340 C4339 1.366 . S
C4340 C4344 1.385 . S
C4341 H4316 0.951 . S
C4341 C4339 1.388 . S
C4341 C4342 1.366 . S
C4342 C4341 1.366 . S
C4342 C4343 1.414 . S
C4342 C4345 1.499 . S
C4343 H4317 0.950 . S
C4343 C4342 1.414 . S
C4343 C4344 1.374 . S
C4344 H4318 0.950 . S
C4344 C4340 1.385 . S
C4344 C4343 1.374 . S
C4345 C4342 1.499 . S
C4345 C4346 1.373 . S
C4345 C4347 1.389 . S
C4346 H4319 0.950 . S
C4346 C4332 1.377 . S
C4346 C4345 1.373 . S
C4347 C4331 1.377 . S
C4347 C4345 1.389 . S
C4347 C4348 1.524 . S
C4348 C4347 1.524 . S
C4348 C4349 1.397 . S
C4348 C4353 1.363 . S
C4349 H4320 0.950 . S
C4349 C4348 1.397 . S
C4349 C4350 1.334 . S
C4350 H4321 0.950 . S
C4350 C4349 1.334 . S
C4350 C4351 1.287 . S
C4351 C4350 1.287 . S
C4351 C4352 1.524 . S
C4351 H4354 0.999 . S
C4352 H4322 0.950 . S
C4352 C4351 1.524 . S
C4352 C4353 1.415 . S
C4353 H4323 0.950 . S
C4353 C4348 1.363 . S
C4353 C4352 1.415 . S
H4354 C4351 0.999 . S
H4355 C4336 0.913 . S
H4356 C4374 0.951 . S
H4357 C4376 0.935 1_455 S
H4358 C4378 0.950 . S
H4359 C4379 0.950 . S
H4360 C4381 0.950 . S
H4361 C4384 0.950 . S
H4362 C4385 0.950 . S
H4363 C4387 0.950 . S
H4364 C4388 0.950 . S
H4365 C4389 0.951 . S
H4366 C4391 0.951 . S
H4367 C4393 0.950 . S
H4368 C4394 0.950 . S
H4369 C4396 0.950 . S
H4370 C4399 0.950 . S
H4371 C4400 0.950 . S
H4372 C4402 0.950 . S
H4373 C4403 0.950 . S
C4374 H4356 0.951 . S
C4374 C4375 1.366 . S
C4374 C4376 1.403 . S
C4375 C4374 1.366 . S
C4375 C4379 1.385 . S
C4376 H4357 0.935 1_655 S
C4376 C4374 1.403 . S
C4376 C4377 1.367 . S
C4377 C4376 1.367 . S
C4377 C4378 1.414 . S
C4377 C4380 1.499 1_655 S
C4378 H4358 0.950 . S
C4378 C4377 1.414 . S
C4378 C4379 1.374 . S
C4379 H4359 0.950 . S
C4379 C4375 1.385 . S
C4379 C4378 1.374 . S
C4380 C4377 1.499 1_455 S
C4380 C4381 1.373 1_455 S
C4380 C4382 1.389 . S
C4381 H4360 0.950 . S
C4381 C4380 1.373 1_655 S
C4381 C4397 1.377 . S
C4382 C4380 1.389 . S
C4382 C4383 1.524 . S
C4382 C4396 1.377 . S
C4383 C4382 1.524 . S
C4383 C4384 1.397 . S
C4383 C4388 1.363 . S
C4384 H4361 0.950 . S
C4384 C4383 1.397 . S
C4384 C4385 1.334 . S
C4385 H4362 0.950 . S
C4385 C4384 1.334 . S
C4385 C4386 1.287 . S
C4386 C4385 1.287 . S
C4386 C4387 1.524 . S
C4386 H4405 0.913 . S
C4387 H4363 0.950 . S
C4387 C4386 1.524 . S
C4387 C4388 1.415 . S
C4388 H4364 0.950 . S
C4388 C4383 1.363 . S
C4388 C4387 1.415 . S
C4389 H4365 0.951 . S
C4389 C4390 1.366 . S
C4389 C4391 1.388 . S
C4390 C4389 1.366 . S
C4390 C4394 1.385 . S
C4391 H4366 0.951 . S
C4391 C4389 1.388 . S
C4391 C4392 1.366 . S
C4392 C4391 1.366 . S
C4392 C4393 1.414 . S
C4392 C4395 1.499 . S
C4393 H4367 0.950 . S
C4393 C4392 1.414 . S
C4393 C4394 1.374 . S
C4394 H4368 0.950 . S
C4394 C4390 1.385 . S
C4394 C4393 1.374 . S
C4395 C4392 1.499 . S
C4395 C4396 1.373 . S
C4395 C4397 1.389 1_455 S
C4396 H4369 0.950 . S
C4396 C4382 1.377 . S
C4396 C4395 1.373 . S
C4397 C4381 1.377 . S
C4397 C4395 1.389 1_655 S
C4397 C4398 1.524 . S
C4398 C4397 1.524 . S
C4398 C4399 1.397 . S
C4398 C4403 1.363 . S
C4399 H4370 0.950 . S
C4399 C4398 1.397 . S
C4399 C4400 1.334 . S
C4400 H4371 0.950 . S
C4400 C4399 1.334 . S
C4400 C4401 1.287 . S
C4401 C4400 1.287 . S
C4401 C4402 1.524 . S
C4401 H4404 0.999 . S
C4402 H4372 0.950 . S
C4402 C4401 1.524 . S
C4402 C4403 1.415 . S
C4403 H4373 0.950 . S
C4403 C4398 1.363 . S
C4403 C4402 1.415 . S
H4404 C4401 0.999 . S
H4405 C4386 0.913 . S
H4406 C4424 0.951 . S
H4407 C4426 0.951 . S
H4408 C4428 0.950 . S
H4409 C4429 0.950 . S
H4410 C4431 0.950 . S
H4411 C4434 0.950 . S
H4412 C4435 0.950 . S
H4413 C4437 0.950 . S
H4414 C4438 0.950 . S
H4415 C4439 0.951 . S
H4416 C4441 0.951 . S
H4417 C4443 0.950 . S
H4418 C4444 0.950 . S
H4419 C4446 0.950 . S
H4420 C4449 0.950 . S
H4421 C4450 0.950 . S
H4422 C4452 0.950 . S
H4423 C4453 0.950 . S
C4424 H4406 0.951 . S
C4424 C4425 1.366 . S
C4424 C4426 1.388 . S
C4425 C4424 1.366 . S
C4425 C4429 1.385 . S
C4426 H4407 0.951 . S
C4426 C4424 1.388 . S
C4426 C4427 1.366 . S
C4427 C4426 1.366 . S
C4427 C4428 1.414 . S
C4427 C4430 1.499 . S
C4428 H4408 0.950 . S
C4428 C4427 1.414 . S
C4428 C4429 1.374 . S
C4429 H4409 0.950 . S
C4429 C4425 1.385 . S
C4429 C4428 1.374 . S
C4430 C4427 1.499 . S
C4430 C4431 1.373 . S
C4430 C4432 1.389 . S
C4431 H4410 0.950 . S
C4431 C4430 1.373 . S
C4431 C4447 1.377 . S
C4432 C4430 1.389 . S
C4432 C4433 1.524 . S
C4432 C4446 1.377 . S
C4433 C4432 1.524 . S
C4433 C4434 1.397 . S
C4433 C4438 1.363 . S
C4434 H4411 0.950 . S
C4434 C4433 1.397 . S
C4434 C4435 1.334 . S
C4435 H4412 0.950 . S
C4435 C4434 1.334 . S
C4435 C4436 1.287 . S
C4436 C4435 1.287 . S
C4436 C4437 1.524 . S
C4436 H4455 0.913 . S
C4437 H4413 0.950 . S
C4437 C4436 1.524 . S
C4437 C4438 1.415 . S
C4438 H4414 0.950 . S
C4438 C4433 1.363 . S
C4438 C4437 1.415 . S
C4439 H4415 0.951 . S
C4439 C4440 1.366 . S
C4439 C4441 1.388 . S
C4440 C4439 1.366 . S
C4440 C4444 1.385 . S
C4441 H4416 0.951 . S
C4441 C4439 1.388 . S
C4441 C4442 1.366 . S
C4442 C4441 1.366 . S
C4442 C4443 1.414 . S
C4442 C4445 1.499 . S
C4443 H4417 0.950 . S
C4443 C4442 1.414 . S
C4443 C4444 1.374 . S
C4444 H4418 0.950 . S
C4444 C4440 1.385 . S
C4444 C4443 1.374 . S
C4445 C4442 1.499 . S
C4445 C4446 1.373 . S
C4445 C4447 1.389 . S
C4446 H4419 0.950 . S
C4446 C4432 1.377 . S
C4446 C4445 1.373 . S
C4447 C4431 1.377 . S
C4447 C4445 1.389 . S
C4447 C4448 1.524 . S
C4448 C4447 1.524 . S
C4448 C4449 1.397 . S
C4448 C4453 1.363 . S
C4449 H4420 0.950 . S
C4449 C4448 1.397 . S
C4449 C4450 1.334 . S
C4450 H4421 0.950 . S
C4450 C4449 1.334 . S
C4450 C4451 1.287 . S
C4451 C4450 1.287 . S
C4451 C4452 1.524 . S
C4451 H4454 0.999 . S
C4452 H4422 0.950 . S
C4452 C4451 1.524 . S
C4452 C4453 1.415 . S
C4453 H4423 0.950 . S
C4453 C4448 1.363 . S
C4453 C4452 1.415 . S
H4454 C4451 0.999 . S
H4455 C4436 0.913 . S
H4456 C4474 0.951 . S
H4457 C4476 0.951 . S
H4458 C4478 0.950 . S
H4459 C4479 0.950 . S
H4460 C4481 0.950 . S
H4461 C4484 0.950 . S
H4462 C4485 0.950 . S
H4463 C4487 0.950 . S
H4464 C4488 0.950 . S
H4465 C4489 0.951 . S
H4466 C4491 0.951 . S
H4467 C4493 0.950 . S
H4468 C4494 0.950 . S
H4469 C4496 0.950 . S
H4470 C4499 0.950 . S
H4471 C4500 0.950 . S
H4472 C4502 0.950 . S
H4473 C4503 0.950 . S
C4474 H4456 0.951 . S
C4474 C4475 1.366 . S
C4474 C4476 1.388 . S
C4475 C4474 1.366 . S
C4475 C4479 1.385 . S
C4476 H4457 0.951 . S
C4476 C4474 1.388 . S
C4476 C4477 1.366 . S
C4477 C4476 1.366 . S
C4477 C4478 1.414 . S
C4477 C4480 1.499 . S
C4478 H4458 0.950 . S
C4478 C4477 1.414 . S
C4478 C4479 1.374 . S
C4479 H4459 0.950 . S
C4479 C4475 1.385 . S
C4479 C4478 1.374 . S
C4480 C4477 1.499 . S
C4480 C4481 1.373 . S
C4480 C4482 1.389 . S
C4481 H4460 0.950 . S
C4481 C4480 1.373 . S
C4481 C4497 1.377 . S
C4482 C4480 1.389 . S
C4482 C4483 1.524 . S
C4482 C4496 1.377 . S
C4483 C4482 1.524 . S
C4483 C4484 1.397 . S
C4483 C4488 1.363 . S
C4484 H4461 0.950 . S
C4484 C4483 1.397 . S
C4484 C4485 1.334 . S
C4485 H4462 0.950 . S
C4485 C4484 1.334 . S
C4485 C4486 1.287 . S
C4486 C4485 1.287 . S
C4486 C4487 1.524 . S
C4486 H4505 0.913 . S
C4487 H4463 0.950 . S
C4487 C4486 1.524 . S
C4487 C4488 1.415 . S
C4488 H4464 0.950 . S
C4488 C4483 1.363 . S
C4488 C4487 1.415 . S
C4489 H4465 0.951 . S
C4489 C4490 1.366 . S
C4489 C4491 1.388 . S
C4490 C4489 1.366 . S
C4490 C4494 1.385 . S
C4491 H4466 0.951 . S
C4491 C4489 1.388 . S
C4491 C4492 1.366 . S
C4492 C4491 1.366 . S
C4492 C4493 1.414 . S
C4492 C4495 1.499 . S
C4493 H4467 0.950 . S
C4493 C4492 1.414 . S
C4493 C4494 1.374 . S
C4494 H4468 0.950 . S
C4494 C4490 1.385 . S
C4494 C4493 1.374 . S
C4495 C4492 1.499 . S
C4495 C4496 1.373 . S
C4495 C4497 1.389 . S
C4496 H4469 0.950 . S
C4496 C4482 1.377 . S
C4496 C4495 1.373 . S
C4497 C4481 1.377 . S
C4497 C4495 1.389 . S
C4497 C4498 1.524 . S
C4498 C4497 1.524 . S
C4498 C4499 1.397 . S
C4498 C4503 1.363 . S
C4499 H4470 0.950 . S
C4499 C4498 1.397 . S
C4499 C4500 1.334 . S
C4500 H4471 0.950 . S
C4500 C4499 1.334 . S
C4500 C4501 1.287 . S
C4501 C4500 1.287 . S
C4501 C4502 1.524 . S
C4501 H4504 0.999 . S
C4502 H4472 0.950 . S
C4502 C4501 1.524 . S
C4502 C4503 1.415 . S
C4503 H4473 0.950 . S
C4503 C4498 1.363 . S
C4503 C4502 1.415 . S
H4504 C4501 0.999 . S
H4505 C4486 0.913 . S
H4506 C4524 0.951 1_554 S
H4507 C4526 0.951 . S
H4508 C4528 0.950 . S
H4509 C4529 0.950 . S
H4510 C4531 0.950 . S
H4511 C4534 0.950 . S
H4512 C4535 0.950 . S
H4513 C4537 0.950 . S
H4514 C4538 0.950 . S
H4515 C4539 0.951 . S
H4516 C4541 0.951 . S
H4517 C4543 0.950 . S
H4518 C4544 0.950 . S
H4519 C4546 0.950 . S
H4520 C4549 0.950 . S
H4521 C4550 0.950 . S
H4522 C4552 0.950 . S
H4523 C4553 0.950 . S
C4524 H4506 0.951 1_556 S
C4524 C4525 1.366 . S
C4524 C4526 1.388 . S
C4525 C4524 1.366 . S
C4525 C4529 1.385 . S
C4526 H4507 0.951 . S
C4526 C4524 1.388 . S
C4526 C4527 1.366 . S
C4527 C4526 1.366 . S
C4527 C4528 1.414 . S
C4527 C4530 1.499 . S
C4528 H4508 0.950 . S
C4528 C4527 1.414 . S
C4528 C4529 1.374 . S
C4529 H4509 0.950 . S
C4529 C4525 1.385 . S
C4529 C4528 1.374 . S
C4530 C4527 1.499 . S
C4530 C4531 1.373 . S
C4530 C4532 1.389 . S
C4531 H4510 0.950 . S
C4531 C4530 1.373 . S
C4531 C4547 1.377 . S
C4532 C4530 1.389 . S
C4532 C4533 1.524 . S
C4532 C4546 1.377 . S
C4533 C4532 1.524 . S
C4533 C4534 1.397 . S
C4533 C4538 1.363 . S
C4534 H4511 0.950 . S
C4534 C4533 1.397 . S
C4534 C4535 1.334 . S
C4535 H4512 0.950 . S
C4535 C4534 1.334 . S
C4535 C4536 1.287 . S
C4536 C4535 1.287 . S
C4536 C4537 1.524 . S
C4536 H4555 0.913 . S
C4537 H4513 0.950 . S
C4537 C4536 1.524 . S
C4537 C4538 1.415 . S
C4538 H4514 0.950 . S
C4538 C4533 1.363 . S
C4538 C4537 1.415 . S
C4539 H4515 0.951 . S
C4539 C4540 1.366 . S
C4539 C4541 1.388 . S
C4540 C4539 1.366 . S
C4540 C4544 1.385 . S
C4541 H4516 0.951 . S
C4541 C4539 1.388 . S
C4541 C4542 1.366 . S
C4542 C4541 1.366 . S
C4542 C4543 1.414 . S
C4542 C4545 1.499 . S
C4543 H4517 0.950 . S
C4543 C4542 1.414 . S
C4543 C4544 1.374 . S
C4544 H4518 0.950 . S
C4544 C4540 1.385 . S
C4544 C4543 1.374 . S
C4545 C4542 1.499 . S
C4545 C4546 1.373 . S
C4545 C4547 1.389 . S
C4546 H4519 0.950 . S
C4546 C4532 1.377 . S
C4546 C4545 1.373 . S
C4547 C4531 1.377 . S
C4547 C4545 1.389 . S
C4547 C4548 1.524 . S
C4548 C4547 1.524 . S
C4548 C4549 1.397 . S
C4548 C4553 1.363 . S
C4549 H4520 0.950 . S
C4549 C4548 1.397 . S
C4549 C4550 1.334 . S
C4550 H4521 0.950 . S
C4550 C4549 1.334 . S
C4550 C4551 1.287 . S
C4551 C4550 1.287 . S
C4551 C4552 1.524 . S
C4551 H4554 0.999 . S
C4552 H4522 0.950 . S
C4552 C4551 1.524 . S
C4552 C4553 1.415 . S
C4553 H4523 0.950 . S
C4553 C4548 1.363 . S
C4553 C4552 1.415 . S
H4554 C4551 0.999 . S
H4555 C4536 0.913 . S
H4556 C4574 0.951 . S
H4557 C4576 0.951 . S
H4558 C4578 0.950 . S
H4559 C4579 0.950 . S
H4560 C4581 0.950 . S
H4561 C4584 0.950 . S
H4562 C4585 0.950 . S
H4563 C4587 0.950 . S
H4564 C4588 0.950 . S
H4565 C4589 0.951 . S
H4566 C4591 0.951 . S
H4567 C4593 0.950 . S
H4568 C4594 0.950 . S
H4569 C4596 0.950 . S
H4570 C4599 0.950 . S
H4571 C4600 0.950 . S
H4572 C4602 0.950 . S
H4573 C4603 0.950 . S
C4574 H4556 0.951 . S
C4574 C4575 1.366 . S
C4574 C4576 1.388 . S
C4575 C4574 1.366 . S
C4575 C4579 1.385 . S
C4576 H4557 0.951 . S
C4576 C4574 1.388 . S
C4576 C4577 1.366 . S
C4577 C4576 1.366 . S
C4577 C4578 1.414 . S
C4577 C4580 1.499 . S
C4578 H4558 0.950 . S
C4578 C4577 1.414 . S
C4578 C4579 1.374 . S
C4579 H4559 0.950 . S
C4579 C4575 1.385 . S
C4579 C4578 1.374 . S
C4580 C4577 1.499 . S
C4580 C4581 1.373 . S
C4580 C4582 1.389 . S
C4581 H4560 0.950 . S
C4581 C4580 1.373 . S
C4581 C4597 1.377 . S
C4582 C4580 1.389 . S
C4582 C4583 1.524 . S
C4582 C4596 1.377 . S
C4583 C4582 1.524 . S
C4583 C4584 1.397 . S
C4583 C4588 1.363 . S
C4584 H4561 0.950 . S
C4584 C4583 1.397 . S
C4584 C4585 1.334 . S
C4585 H4562 0.950 . S
C4585 C4584 1.334 . S
C4585 C4586 1.287 . S
C4586 C4585 1.287 . S
C4586 C4587 1.524 . S
C4586 H4605 0.913 . S
C4587 H4563 0.950 . S
C4587 C4586 1.524 . S
C4587 C4588 1.415 . S
C4588 H4564 0.950 . S
C4588 C4583 1.363 . S
C4588 C4587 1.415 . S
C4589 H4565 0.951 . S
C4589 C4590 1.366 . S
C4589 C4591 1.388 . S
C4590 C4589 1.366 . S
C4590 C4594 1.385 . S
C4591 H4566 0.951 . S
C4591 C4589 1.388 . S
C4591 C4592 1.366 . S
C4592 C4591 1.366 . S
C4592 C4593 1.414 . S
C4592 C4595 1.499 . S
C4593 H4567 0.950 . S
C4593 C4592 1.414 . S
C4593 C4594 1.374 . S
C4594 H4568 0.950 . S
C4594 C4590 1.385 . S
C4594 C4593 1.374 . S
C4595 C4592 1.499 . S
C4595 C4596 1.373 . S
C4595 C4597 1.389 . S
C4596 H4569 0.950 . S
C4596 C4582 1.377 . S
C4596 C4595 1.373 . S
C4597 C4581 1.377 . S
C4597 C4595 1.389 . S
C4597 C4598 1.524 . S
C4598 C4597 1.524 . S
C4598 C4599 1.397 . S
C4598 C4603 1.363 . S
C4599 H4570 0.950 . S
C4599 C4598 1.397 . S
C4599 C4600 1.334 . S
C4600 H4571 0.950 . S
C4600 C4599 1.334 . S
C4600 C4601 1.287 . S
C4601 C4600 1.287 . S
C4601 C4602 1.524 . S
C4601 H4604 0.999 . S
C4602 H4572 0.950 . S
C4602 C4601 1.524 . S
C4602 C4603 1.415 . S
C4603 H4573 0.950 . S
C4603 C4598 1.363 . S
C4603 C4602 1.415 . S
H4604 C4601 0.999 . S
H4605 C4586 0.913 . S
H4606 C4624 0.951 . S
H4607 C4626 0.951 . S
H4608 C4628 0.950 . S
H4609 C4629 0.950 . S
H4610 C4631 0.950 . S
H4611 C4634 0.950 . S
H4612 C4635 0.950 . S
H4613 C4637 0.950 . S
H4614 C4638 0.950 . S
H4615 C4639 0.951 . S
H4616 C4641 0.951 . S
H4617 C4643 0.950 . S
H4618 C4644 0.950 . S
H4619 C4646 0.950 . S
H4620 C4649 0.950 . S
H4621 C4650 0.950 . S
H4622 C4652 0.950 . S
H4623 C4653 0.950 . S
C4624 H4606 0.951 . S
C4624 C4625 1.366 . S
C4624 C4626 1.388 . S
C4625 C4624 1.366 . S
C4625 C4629 1.385 . S
C4626 H4607 0.951 . S
C4626 C4624 1.388 . S
C4626 C4627 1.366 . S
C4627 C4626 1.366 . S
C4627 C4628 1.414 . S
C4627 C4630 1.499 . S
C4628 H4608 0.950 . S
C4628 C4627 1.414 . S
C4628 C4629 1.374 . S
C4629 H4609 0.950 . S
C4629 C4625 1.385 . S
C4629 C4628 1.374 . S
C4630 C4627 1.499 . S
C4630 C4631 1.373 . S
C4630 C4632 1.389 . S
C4631 H4610 0.950 . S
C4631 C4630 1.373 . S
C4631 C4647 1.377 . S
C4632 C4630 1.389 . S
C4632 C4633 1.524 . S
C4632 C4646 1.377 . S
C4633 C4632 1.524 . S
C4633 C4634 1.397 . S
C4633 C4638 1.363 . S
C4634 H4611 0.950 . S
C4634 C4633 1.397 . S
C4634 C4635 1.334 . S
C4635 H4612 0.950 . S
C4635 C4634 1.334 . S
C4635 C4636 1.287 . S
C4636 C4635 1.287 . S
C4636 C4637 1.524 . S
C4636 H4655 0.913 . S
C4637 H4613 0.950 . S
C4637 C4636 1.524 . S
C4637 C4638 1.415 . S
C4638 H4614 0.950 . S
C4638 C4633 1.363 . S
C4638 C4637 1.415 . S
C4639 H4615 0.951 . S
C4639 C4640 1.366 . S
C4639 C4641 1.388 . S
C4640 C4639 1.366 . S
C4640 C4644 1.385 . S
C4641 H4616 0.951 . S
C4641 C4639 1.388 . S
C4641 C4642 1.366 . S
C4642 C4641 1.366 . S
C4642 C4643 1.414 . S
C4642 C4645 1.499 . S
C4643 H4617 0.950 . S
C4643 C4642 1.414 . S
C4643 C4644 1.374 . S
C4644 H4618 0.950 . S
C4644 C4640 1.385 . S
C4644 C4643 1.374 . S
C4645 C4642 1.499 . S
C4645 C4646 1.373 . S
C4645 C4647 1.389 . S
C4646 H4619 0.950 . S
C4646 C4632 1.377 . S
C4646 C4645 1.373 . S
C4647 C4631 1.377 . S
C4647 C4645 1.389 . S
C4647 C4648 1.524 . S
C4648 C4647 1.524 . S
C4648 C4649 1.397 . S
C4648 C4653 1.363 . S
C4649 H4620 0.950 . S
C4649 C4648 1.397 . S
C4649 C4650 1.334 . S
C4650 H4621 0.950 . S
C4650 C4649 1.334 . S
C4650 C4651 1.287 . S
C4651 C4650 1.287 . S
C4651 C4652 1.524 . S
C4651 H4654 0.999 . S
C4652 H4622 0.950 . S
C4652 C4651 1.524 . S
C4652 C4653 1.415 . S
C4653 H4623 0.950 . S
C4653 C4648 1.363 . S
C4653 C4652 1.415 . S
H4654 C4651 0.999 . S
H4655 C4636 0.913 . S
H4656 C4674 0.951 . S
H4657 C4676 0.951 . S
H4658 C4678 0.950 . S
H4659 C4679 0.950 . S
H4660 C4681 0.950 . S
H4661 C4684 0.950 . S
H4662 C4685 0.950 . S
H4663 C4687 0.950 . S
H4664 C4688 0.950 . S
H4665 C4689 0.951 . S
H4666 C4691 0.951 . S
H4667 C4693 0.950 . S
H4668 C4694 0.950 . S
H4669 C4696 0.950 . S
H4670 C4699 0.950 . S
H4671 C4700 0.950 . S
H4672 C4702 0.950 . S
H4673 C4703 0.950 . S
C4674 H4656 0.951 . S
C4674 C4675 1.366 . S
C4674 C4676 1.388 . S
C4675 C4674 1.366 . S
C4675 C4679 1.385 . S
C4676 H4657 0.951 . S
C4676 C4674 1.388 . S
C4676 C4677 1.366 . S
C4677 C4676 1.366 . S
C4677 C4678 1.414 . S
C4677 C4680 1.499 . S
C4678 H4658 0.950 . S
C4678 C4677 1.414 . S
C4678 C4679 1.374 . S
C4679 H4659 0.950 . S
C4679 C4675 1.385 . S
C4679 C4678 1.374 . S
C4680 C4677 1.499 . S
C4680 C4681 1.373 . S
C4680 C4682 1.389 . S
C4681 H4660 0.950 . S
C4681 C4680 1.373 . S
C4681 C4697 1.377 . S
C4682 C4680 1.389 . S
C4682 C4683 1.524 . S
C4682 C4696 1.377 . S
C4683 C4682 1.524 . S
C4683 C4684 1.397 . S
C4683 C4688 1.363 . S
C4684 H4661 0.950 . S
C4684 C4683 1.397 . S
C4684 C4685 1.334 . S
C4685 H4662 0.950 . S
C4685 C4684 1.334 . S
C4685 C4686 1.287 . S
C4686 C4685 1.287 . S
C4686 C4687 1.524 . S
C4686 H4705 0.913 . S
C4687 H4663 0.950 . S
C4687 C4686 1.524 . S
C4687 C4688 1.415 . S
C4688 H4664 0.950 . S
C4688 C4683 1.363 . S
C4688 C4687 1.415 . S
C4689 H4665 0.951 . S
C4689 C4690 1.366 . S
C4689 C4691 1.388 . S
C4690 C4689 1.366 . S
C4690 C4694 1.385 . S
C4691 H4666 0.951 . S
C4691 C4689 1.388 . S
C4691 C4692 1.366 . S
C4692 C4691 1.366 . S
C4692 C4693 1.414 . S
C4692 C4695 1.499 . S
C4693 H4667 0.950 . S
C4693 C4692 1.414 . S
C4693 C4694 1.374 . S
C4694 H4668 0.950 . S
C4694 C4690 1.385 . S
C4694 C4693 1.374 . S
C4695 C4692 1.499 . S
C4695 C4696 1.373 . S
C4695 C4697 1.389 . S
C4696 H4669 0.950 . S
C4696 C4682 1.377 . S
C4696 C4695 1.373 . S
C4697 C4681 1.377 . S
C4697 C4695 1.389 . S
C4697 C4698 1.524 . S
C4698 C4697 1.524 . S
C4698 C4699 1.397 . S
C4698 C4703 1.363 . S
C4699 H4670 0.950 . S
C4699 C4698 1.397 . S
C4699 C4700 1.334 . S
C4700 H4671 0.950 . S
C4700 C4699 1.334 . S
C4700 C4701 1.287 . S
C4701 C4700 1.287 . S
C4701 C4702 1.524 . S
C4701 H4704 0.999 . S
C4702 H4672 0.950 . S
C4702 C4701 1.524 . S
C4702 C4703 1.415 . S
C4703 H4673 0.950 . S
C4703 C4698 1.363 . S
C4703 C4702 1.415 . S
H4704 C4701 0.999 . S
H4705 C4686 0.913 . S
H4706 C4724 0.951 . S
H4707 C4726 0.951 . S
H4708 C4728 0.950 . S
H4709 C4729 0.950 . S
H4710 C4731 0.950 . S
H4711 C4734 0.950 . S
H4712 C4735 0.950 . S
H4713 C4737 0.950 . S
H4714 C4738 0.950 . S
H4715 C4739 0.951 . S
H4716 C4741 0.951 . S
H4717 C4743 0.950 . S
H4718 C4744 0.950 . S
H4719 C4746 0.950 . S
H4720 C4749 0.950 . S
H4721 C4750 0.950 . S
H4722 C4752 0.950 . S
H4723 C4753 0.950 . S
C4724 H4706 0.951 . S
C4724 C4725 1.366 . S
C4724 C4726 1.388 . S
C4725 C4724 1.366 . S
C4725 C4729 1.385 . S
C4726 H4707 0.951 . S
C4726 C4724 1.388 . S
C4726 C4727 1.366 . S
C4727 C4726 1.366 . S
C4727 C4728 1.414 . S
C4727 C4730 1.499 . S
C4728 H4708 0.950 . S
C4728 C4727 1.414 . S
C4728 C4729 1.374 . S
C4729 H4709 0.950 . S
C4729 C4725 1.385 . S
C4729 C4728 1.374 . S
C4730 C4727 1.499 . S
C4730 C4731 1.373 . S
C4730 C4732 1.389 . S
C4731 H4710 0.950 . S
C4731 C4730 1.373 . S
C4731 C4747 1.377 . S
C4732 C4730 1.389 . S
C4732 C4733 1.524 . S
C4732 C4746 1.377 . S
C4733 C4732 1.524 . S
C4733 C4734 1.397 . S
C4733 C4738 1.363 . S
C4734 H4711 0.950 . S
C4734 C4733 1.397 . S
C4734 C4735 1.334 . S
C4735 H4712 0.950 . S
C4735 C4734 1.334 . S
C4735 C4736 1.287 . S
C4736 C4735 1.287 . S
C4736 C4737 1.524 . S
C4736 H4755 0.913 . S
C4737 H4713 0.950 . S
C4737 C4736 1.524 . S
C4737 C4738 1.415 . S
C4738 H4714 0.950 . S
C4738 C4733 1.363 . S
C4738 C4737 1.415 . S
C4739 H4715 0.951 . S
C4739 C4740 1.366 . S
C4739 C4741 1.388 . S
C4740 C4739 1.366 . S
C4740 C4744 1.385 . S
C4741 H4716 0.951 . S
C4741 C4739 1.388 . S
C4741 C4742 1.366 . S
C4742 C4741 1.366 . S
C4742 C4743 1.414 . S
C4742 C4745 1.499 . S
C4743 H4717 0.950 . S
C4743 C4742 1.414 . S
C4743 C4744 1.374 . S
C4744 H4718 0.950 . S
C4744 C4740 1.385 . S
C4744 C4743 1.374 . S
C4745 C4742 1.499 . S
C4745 C4746 1.373 . S
C4745 C4747 1.389 . S
C4746 H4719 0.950 . S
C4746 C4732 1.377 . S
C4746 C4745 1.373 . S
C4747 C4731 1.377 . S
C4747 C4745 1.389 . S
C4747 C4748 1.524 . S
C4748 C4747 1.524 . S
C4748 C4749 1.397 . S
C4748 C4753 1.363 . S
C4749 H4720 0.950 . S
C4749 C4748 1.397 . S
C4749 C4750 1.334 . S
C4750 H4721 0.950 . S
C4750 C4749 1.334 . S
C4750 C4751 1.287 . S
C4751 C4750 1.287 . S
C4751 C4752 1.524 . S
C4751 H4754 0.999 . S
C4752 H4722 0.950 . S
C4752 C4751 1.524 . S
C4752 C4753 1.415 . S
C4753 H4723 0.950 . S
C4753 C4748 1.363 . S
C4753 C4752 1.415 . S
H4754 C4751 0.999 . S
H4755 C4736 0.913 . S
H4756 C4774 0.951 . S
H4757 C4776 0.951 . S
H4758 C4778 0.950 . S
H4759 C4779 0.950 . S
H4760 C4781 0.950 . S
H4761 C4784 0.950 . S
H4762 C4785 0.950 . S
H4763 C4787 0.950 . S
H4764 C4788 0.950 . S
H4765 C4789 0.951 . S
H4766 C4791 0.951 . S
H4767 C4793 0.950 . S
H4768 C4794 0.950 . S
H4769 C4796 0.950 . S
H4770 C4799 0.950 . S
H4771 C4800 0.950 . S
H4772 C4802 0.950 . S
H4773 C4803 0.950 . S
C4774 H4756 0.951 . S
C4774 C4775 1.366 . S
C4774 C4776 1.388 . S
C4775 C4774 1.366 . S
C4775 C4779 1.385 . S
C4776 H4757 0.951 . S
C4776 C4774 1.388 . S
C4776 C4777 1.366 . S
C4777 C4776 1.366 . S
C4777 C4778 1.414 . S
C4777 C4780 1.499 . S
C4778 H4758 0.950 . S
C4778 C4777 1.414 . S
C4778 C4779 1.374 . S
C4779 H4759 0.950 . S
C4779 C4775 1.385 . S
C4779 C4778 1.374 . S
C4780 C4777 1.499 . S
C4780 C4781 1.373 . S
C4780 C4782 1.389 . S
C4781 H4760 0.950 . S
C4781 C4780 1.373 . S
C4781 C4797 1.377 . S
C4782 C4780 1.389 . S
C4782 C4783 1.524 . S
C4782 C4796 1.377 . S
C4783 C4782 1.524 . S
C4783 C4784 1.397 . S
C4783 C4788 1.363 . S
C4784 H4761 0.950 . S
C4784 C4783 1.397 . S
C4784 C4785 1.334 . S
C4785 H4762 0.950 . S
C4785 C4784 1.334 . S
C4785 C4786 1.287 . S
C4786 C4785 1.287 . S
C4786 C4787 1.524 . S
C4786 H4805 0.913 . S
C4787 H4763 0.950 . S
C4787 C4786 1.524 . S
C4787 C4788 1.415 . S
C4788 H4764 0.950 . S
C4788 C4783 1.363 . S
C4788 C4787 1.415 . S
C4789 H4765 0.951 . S
C4789 C4790 1.366 . S
C4789 C4791 1.388 . S
C4790 C4789 1.366 . S
C4790 C4794 1.385 . S
C4791 H4766 0.951 . S
C4791 C4789 1.388 . S
C4791 C4792 1.366 . S
C4792 C4791 1.366 . S
C4792 C4793 1.414 . S
C4792 C4795 1.499 . S
C4793 H4767 0.950 . S
C4793 C4792 1.414 . S
C4793 C4794 1.374 . S
C4794 H4768 0.950 . S
C4794 C4790 1.385 . S
C4794 C4793 1.374 . S
C4795 C4792 1.499 . S
C4795 C4796 1.373 . S
C4795 C4797 1.389 . S
C4796 H4769 0.950 . S
C4796 C4782 1.377 . S
C4796 C4795 1.373 . S
C4797 C4781 1.377 . S
C4797 C4795 1.389 . S
C4797 C4798 1.524 . S
C4798 C4797 1.524 . S
C4798 C4799 1.397 . S
C4798 C4803 1.363 . S
C4799 H4770 0.950 . S
C4799 C4798 1.397 . S
C4799 C4800 1.334 . S
C4800 H4771 0.950 . S
C4800 C4799 1.334 . S
C4800 C4801 1.287 . S
C4801 C4800 1.287 . S
C4801 C4802 1.524 . S
C4801 H4804 0.999 . S
C4802 H4772 0.950 . S
C4802 C4801 1.524 . S
C4802 C4803 1.415 . S
C4803 H4773 0.950 . S
C4803 C4798 1.363 . S
C4803 C4802 1.415 . S
H4804 C4801 0.999 . S
H4805 C4786 0.913 . S
H4806 C4824 0.951 . S
H4807 C4826 0.951 . S
H4808 C4828 0.950 . S
H4809 C4829 0.950 . S
H4810 C4831 0.950 . S
H4811 C4834 0.950 . S
H4812 C4835 0.950 . S
H4813 C4837 0.950 . S
H4814 C4838 0.950 . S
H4815 C4839 0.951 . S
H4816 C4841 0.951 . S
H4817 C4843 0.950 . S
H4818 C4844 0.950 . S
H4819 C4846 0.950 . S
H4820 C4849 0.950 . S
H4821 C4850 0.950 . S
H4822 C4852 0.950 . S
H4823 C4853 0.950 . S
C4824 H4806 0.951 . S
C4824 C4825 1.366 . S
C4824 C4826 1.388 . S
C4825 C4824 1.366 . S
C4825 C4829 1.385 . S
C4826 H4807 0.951 . S
C4826 C4824 1.388 . S
C4826 C4827 1.366 . S
C4827 C4826 1.366 . S
C4827 C4828 1.414 . S
C4827 C4830 1.499 . S
C4828 H4808 0.950 . S
C4828 C4827 1.414 . S
C4828 C4829 1.374 . S
C4829 H4809 0.950 . S
C4829 C4825 1.385 . S
C4829 C4828 1.374 . S
C4830 C4827 1.499 . S
C4830 C4831 1.373 . S
C4830 C4832 1.389 . S
C4831 H4810 0.950 . S
C4831 C4830 1.373 . S
C4831 C4847 1.377 . S
C4832 C4830 1.389 . S
C4832 C4833 1.524 . S
C4832 C4846 1.377 . S
C4833 C4832 1.524 . S
C4833 C4834 1.397 . S
C4833 C4838 1.363 . S
C4834 H4811 0.950 . S
C4834 C4833 1.397 . S
C4834 C4835 1.334 . S
C4835 H4812 0.950 . S
C4835 C4834 1.334 . S
C4835 C4836 1.287 . S
C4836 C4835 1.287 . S
C4836 C4837 1.524 . S
C4836 H4855 0.913 . S
C4837 H4813 0.950 . S
C4837 C4836 1.524 . S
C4837 C4838 1.415 . S
C4838 H4814 0.950 . S
C4838 C4833 1.363 . S
C4838 C4837 1.415 . S
C4839 H4815 0.951 . S
C4839 C4840 1.366 . S
C4839 C4841 1.388 . S
C4840 C4839 1.366 . S
C4840 C4844 1.385 . S
C4841 H4816 0.951 . S
C4841 C4839 1.388 . S
C4841 C4842 1.366 . S
C4842 C4841 1.366 . S
C4842 C4843 1.414 . S
C4842 C4845 1.499 . S
C4843 H4817 0.950 . S
C4843 C4842 1.414 . S
C4843 C4844 1.374 . S
C4844 H4818 0.950 . S
C4844 C4840 1.385 . S
C4844 C4843 1.374 . S
C4845 C4842 1.499 . S
C4845 C4846 1.373 . S
C4845 C4847 1.389 . S
C4846 H4819 0.950 . S
C4846 C4832 1.377 . S
C4846 C4845 1.373 . S
C4847 C4831 1.377 . S
C4847 C4845 1.389 . S
C4847 C4848 1.524 . S
C4848 C4847 1.524 . S
C4848 C4849 1.397 . S
C4848 C4853 1.363 . S
C4849 H4820 0.950 . S
C4849 C4848 1.397 . S
C4849 C4850 1.334 . S
C4850 H4821 0.950 . S
C4850 C4849 1.334 . S
C4850 C4851 1.287 . S
C4851 C4850 1.287 . S
C4851 C4852 1.524 . S
C4851 H4854 0.999 . S
C4852 H4822 0.950 . S
C4852 C4851 1.524 . S
C4852 C4853 1.415 . S
C4853 H4823 0.950 . S
C4853 C4848 1.363 . S
C4853 C4852 1.415 . S
H4854 C4851 0.999 . S
H4855 C4836 0.913 . S
H4856 C4874 0.951 . S
H4857 C4876 0.951 . S
H4858 C4878 0.950 . S
H4859 C4879 0.950 . S
H4860 C4881 0.950 . S
H4861 C4884 0.950 . S
H4862 C4885 0.950 . S
H4863 C4887 0.950 . S
H4864 C4888 0.950 . S
H4865 C4889 0.951 . S
H4866 C4891 0.951 . S
H4867 C4893 0.950 . S
H4868 C4894 0.950 . S
H4869 C4896 0.950 . S
H4870 C4899 0.950 . S
H4871 C4900 0.950 . S
H4872 C4902 0.950 . S
H4873 C4903 0.950 . S
C4874 H4856 0.951 . S
C4874 C4875 1.366 . S
C4874 C4876 1.388 . S
C4875 C4874 1.366 . S
C4875 C4879 1.385 . S
C4876 H4857 0.951 . S
C4876 C4874 1.388 . S
C4876 C4877 1.366 . S
C4877 C4876 1.366 . S
C4877 C4878 1.414 . S
C4877 C4880 1.499 . S
C4878 H4858 0.950 . S
C4878 C4877 1.414 . S
C4878 C4879 1.374 . S
C4879 H4859 0.950 . S
C4879 C4875 1.385 . S
C4879 C4878 1.374 . S
C4880 C4877 1.499 . S
C4880 C4881 1.373 . S
C4880 C4882 1.389 . S
C4881 H4860 0.950 . S
C4881 C4880 1.373 . S
C4881 C4897 1.377 . S
C4882 C4880 1.389 . S
C4882 C4883 1.524 . S
C4882 C4896 1.377 . S
C4883 C4882 1.524 . S
C4883 C4884 1.397 . S
C4883 C4888 1.363 . S
C4884 H4861 0.950 . S
C4884 C4883 1.397 . S
C4884 C4885 1.334 . S
C4885 H4862 0.950 . S
C4885 C4884 1.334 . S
C4885 C4886 1.287 . S
C4886 C4885 1.287 . S
C4886 C4887 1.524 . S
C4886 H4905 0.913 . S
C4887 H4863 0.950 . S
C4887 C4886 1.524 . S
C4887 C4888 1.415 . S
C4888 H4864 0.950 . S
C4888 C4883 1.363 . S
C4888 C4887 1.415 . S
C4889 H4865 0.951 . S
C4889 C4890 1.366 . S
C4889 C4891 1.388 . S
C4890 C4889 1.366 . S
C4890 C4894 1.385 . S
C4891 H4866 0.951 . S
C4891 C4889 1.388 . S
C4891 C4892 1.366 . S
C4892 C4891 1.366 . S
C4892 C4893 1.414 . S
C4892 C4895 1.499 . S
C4893 H4867 0.950 . S
C4893 C4892 1.414 . S
C4893 C4894 1.374 . S
C4894 H4868 0.950 . S
C4894 C4890 1.385 . S
C4894 C4893 1.374 . S
C4895 C4892 1.499 . S
C4895 C4896 1.373 . S
C4895 C4897 1.389 . S
C4896 H4869 0.950 . S
C4896 C4882 1.377 . S
C4896 C4895 1.373 . S
C4897 C4881 1.377 . S
C4897 C4895 1.389 . S
C4897 C4898 1.524 . S
C4898 C4897 1.524 . S
C4898 C4899 1.397 . S
C4898 C4903 1.363 . S
C4899 H4870 0.950 . S
C4899 C4898 1.397 . S
C4899 C4900 1.334 . S
C4900 H4871 0.950 . S
C4900 C4899 1.334 . S
C4900 C4901 1.287 . S
C4901 C4900 1.287 . S
C4901 C4902 1.524 . S
C4901 H4904 0.999 . S
C4902 H4872 0.950 . S
C4902 C4901 1.524 . S
C4902 C4903 1.415 . S
C4903 H4873 0.950 . S
C4903 C4898 1.363 . S
C4903 C4902 1.415 . S
H4904 C4901 0.999 . S
H4905 C4886 0.913 . S
H4906 C4924 0.951 . S
H4907 C4926 0.951 . S
H4908 C4928 0.950 . S
H4909 C4929 0.950 . S
H4910 C4931 0.950 . S
H4911 C4934 0.950 . S
H4912 C4935 0.950 . S
H4913 C4937 0.950 . S
H4914 C4938 0.950 . S
H4915 C4939 0.951 . S
H4916 C4941 0.951 . S
H4917 C4943 0.950 . S
H4918 C4944 0.950 . S
H4919 C4946 0.950 . S
H4920 C4949 0.950 . S
H4921 C4950 0.950 . S
H4922 C4952 0.950 . S
H4923 C4953 0.950 . S
C4924 H4906 0.951 . S
C4924 C4925 1.366 . S
C4924 C4926 1.388 . S
C4925 C4924 1.366 . S
C4925 C4929 1.385 . S
C4926 H4907 0.951 . S
C4926 C4924 1.388 . S
C4926 C4927 1.366 . S
C4927 C4926 1.366 . S
C4927 C4928 1.414 . S
C4927 C4930 1.499 . S
C4928 H4908 0.950 . S
C4928 C4927 1.414 . S
C4928 C4929 1.374 . S
C4929 H4909 0.950 . S
C4929 C4925 1.385 . S
C4929 C4928 1.374 . S
C4930 C4927 1.499 . S
C4930 C4931 1.373 . S
C4930 C4932 1.389 . S
C4931 H4910 0.950 . S
C4931 C4930 1.373 . S
C4931 C4947 1.377 . S
C4932 C4930 1.389 . S
C4932 C4933 1.524 . S
C4932 C4946 1.377 . S
C4933 C4932 1.524 . S
C4933 C4934 1.397 . S
C4933 C4938 1.363 . S
C4934 H4911 0.950 . S
C4934 C4933 1.397 . S
C4934 C4935 1.334 . S
C4935 H4912 0.950 . S
C4935 C4934 1.334 . S
C4935 C4936 1.287 . S
C4936 C4935 1.287 . S
C4936 C4937 1.524 . S
C4936 H4955 0.913 . S
C4937 H4913 0.950 . S
C4937 C4936 1.524 . S
C4937 C4938 1.415 . S
C4938 H4914 0.950 . S
C4938 C4933 1.363 . S
C4938 C4937 1.415 . S
C4939 H4915 0.951 . S
C4939 C4940 1.366 . S
C4939 C4941 1.388 . S
C4940 C4939 1.366 . S
C4940 C4944 1.385 . S
C4941 H4916 0.951 . S
C4941 C4939 1.388 . S
C4941 C4942 1.366 . S
C4942 C4941 1.366 . S
C4942 C4943 1.414 . S
C4942 C4945 1.499 . S
C4943 H4917 0.950 . S
C4943 C4942 1.414 . S
C4943 C4944 1.374 . S
C4944 H4918 0.950 . S
C4944 C4940 1.385 . S
C4944 C4943 1.374 . S
C4945 C4942 1.499 . S
C4945 C4946 1.373 . S
C4945 C4947 1.389 . S
C4946 H4919 0.950 . S
C4946 C4932 1.377 . S
C4946 C4945 1.373 . S
C4947 C4931 1.377 . S
C4947 C4945 1.389 . S
C4947 C4948 1.524 . S
C4948 C4947 1.524 . S
C4948 C4949 1.397 . S
C4948 C4953 1.363 . S
C4949 H4920 0.950 . S
C4949 C4948 1.397 . S
C4949 C4950 1.334 . S
C4950 H4921 0.950 . S
C4950 C4949 1.334 . S
C4950 C4951 1.287 . S
C4951 C4950 1.287 . S
C4951 C4952 1.524 . S
C4951 H4954 0.999 . S
C4952 H4922 0.950 . S
C4952 C4951 1.524 . S
C4952 C4953 1.415 . S
C4953 H4923 0.950 . S
C4953 C4948 1.363 . S
C4953 C4952 1.415 . S
H4954 C4951 0.999 . S
H4955 C4936 0.913 . S
H4956 C4974 0.951 . S
H4957 C4976 0.951 . S
H4958 C4978 0.950 . S
H4959 C4979 0.950 . S
H4960 C4981 0.950 . S
H4961 C4984 0.950 . S
H4962 C4985 0.950 . S
H4963 C4987 0.950 . S
H4964 C4988 0.950 . S
H4965 C4989 0.951 . S
H4966 C4991 0.951 . S
H4967 C4993 0.950 . S
H4968 C4994 0.950 . S
H4969 C4996 0.950 . S
H4970 C4999 0.950 . S
H4971 C5000 0.950 . S
H4972 C5002 0.950 . S
H4973 C5003 0.950 . S
C4974 H4956 0.951 . S
C4974 C4975 1.366 . S
C4974 C4976 1.388 . S
C4975 C4974 1.366 . S
C4975 C4979 1.385 . S
C4976 H4957 0.951 . S
C4976 C4974 1.388 . S
C4976 C4977 1.366 . S
C4977 C4976 1.366 . S
C4977 C4978 1.414 . S
C4977 C4980 1.499 . S
C4978 H4958 0.950 . S
C4978 C4977 1.414 . S
C4978 C4979 1.374 . S
C4979 H4959 0.950 . S
C4979 C4975 1.385 . S
C4979 C4978 1.374 . S
C4980 C4977 1.499 . S
C4980 C4981 1.373 . S
C4980 C4982 1.389 . S
C4981 H4960 0.950 . S
C4981 C4980 1.373 . S
C4981 C4997 1.377 . S
C4982 C4980 1.389 . S
C4982 C4983 1.524 . S
C4982 C4996 1.377 . S
C4983 C4982 1.524 . S
C4983 C4984 1.397 . S
C4983 C4988 1.363 . S
C4984 H4961 0.950 . S
C4984 C4983 1.397 . S
C4984 C4985 1.334 . S
C4985 H4962 0.950 . S
C4985 C4984 1.334 . S
C4985 C4986 1.287 . S
C4986 C4985 1.287 . S
C4986 C4987 1.524 . S
C4986 H5005 0.913 . S
C4987 H4963 0.950 . S
C4987 C4986 1.524 . S
C4987 C4988 1.415 . S
C4988 H4964 0.950 . S
C4988 C4983 1.363 . S
C4988 C4987 1.415 . S
C4989 H4965 0.951 . S
C4989 C4990 1.366 . S
C4989 C4991 1.388 . S
C4990 C4989 1.366 . S
C4990 C4994 1.385 . S
C4991 H4966 0.951 . S
C4991 C4989 1.388 . S
C4991 C4992 1.366 . S
C4992 C4991 1.366 . S
C4992 C4993 1.414 . S
C4992 C4995 1.499 . S
C4993 H4967 0.950 . S
C4993 C4992 1.414 . S
C4993 C4994 1.374 . S
C4994 H4968 0.950 . S
C4994 C4990 1.385 . S
C4994 C4993 1.374 . S
C4995 C4992 1.499 . S
C4995 C4996 1.373 . S
C4995 C4997 1.389 . S
C4996 H4969 0.950 . S
C4996 C4982 1.377 . S
C4996 C4995 1.373 . S
C4997 C4981 1.377 . S
C4997 C4995 1.389 . S
C4997 C4998 1.524 . S
C4998 C4997 1.524 . S
C4998 C4999 1.397 . S
C4998 C5003 1.363 . S
C4999 H4970 0.950 . S
C4999 C4998 1.397 . S
C4999 C5000 1.334 . S
C5000 H4971 0.950 . S
C5000 C4999 1.334 . S
C5000 C5001 1.287 . S
C5001 C5000 1.287 . S
C5001 C5002 1.524 . S
C5001 H5004 0.999 . S
C5002 H4972 0.950 . S
C5002 C5001 1.524 . S
C5002 C5003 1.415 . S
C5003 H4973 0.950 . S
C5003 C4998 1.363 . S
C5003 C5002 1.415 . S
H5004 C5001 0.999 . S
H5005 C4986 0.913 . S
H5006 C5024 0.951 . S
H5007 C5026 0.951 . S
H5008 C5028 0.923 1_556 S
H5009 C5029 0.950 1_556 S
H5010 C5031 0.950 . S
H5011 C5034 0.950 . S
H5012 C5035 0.960 . S
H5013 C5037 0.950 . S
H5014 C5038 0.950 . S
H5015 C5039 0.951 . S
H5016 C5041 0.951 1_565 S
H5017 C5043 0.950 . S
H5018 C5044 0.950 . S
H5019 C5046 0.950 . S
H5020 C5049 0.950 . S
H5021 C5050 0.950 . S
H5022 C5052 0.950 1_556 S
H5023 C5053 0.920 1_556 S
C5024 H5006 0.951 . S
C5024 C5025 1.366 . S
C5024 C5026 1.388 . S
C5025 C5024 1.366 . S
C5025 C5029 1.385 . S
C5026 H5007 0.951 . S
C5026 C5024 1.388 . S
C5026 C5027 1.366 . S
C5027 C5026 1.366 . S
C5027 C5028 1.433 . S
C5027 C5030 1.499 . S
C5028 H5008 0.923 1_554 S
C5028 C5027 1.433 . S
C5028 C5029 1.384 . S
C5029 H5009 0.950 1_554 S
C5029 C5025 1.385 . S
C5029 C5028 1.384 . S
C5030 C5027 1.499 . S
C5030 C5031 1.373 . S
C5030 C5032 1.389 . S
C5031 H5010 0.950 . S
C5031 C5030 1.373 . S
C5031 C5047 1.377 . S
C5032 C5030 1.389 . S
C5032 C5033 1.524 1_565 S
C5032 C5046 1.377 1_565 S
C5033 C5032 1.524 1_545 S
C5033 C5034 1.397 1_544 S
C5033 C5038 1.363 . S
C5034 H5011 0.950 . S
C5034 C5033 1.397 1_566 S
C5034 C5035 1.334 1_565 S
C5035 H5012 0.960 . S
C5035 C5034 1.334 1_545 S
C5035 C5036 1.287 1_556 S
C5036 C5035 1.287 1_554 S
C5036 C5037 1.524 . S
C5036 H5055 0.913 . S
C5037 H5013 0.950 . S
C5037 C5036 1.524 . S
C5037 C5038 1.415 . S
C5038 H5014 0.950 . S
C5038 C5033 1.363 . S
C5038 C5037 1.415 . S
C5039 H5015 0.951 . S
C5039 C5040 1.366 1_556 S
C5039 C5041 1.388 . S
C5040 C5039 1.366 1_554 S
C5040 C5044 1.385 . S
C5041 H5016 0.951 1_545 S
C5041 C5039 1.388 . S
C5041 C5042 1.366 1_556 S
C5042 C5041 1.366 1_554 S
C5042 C5043 1.414 . S
C5042 C5045 1.511 . S
C5043 H5017 0.950 . S
C5043 C5042 1.414 . S
C5043 C5044 1.374 . S
C5044 H5018 0.950 . S
C5044 C5040 1.385 . S
C5044 C5043 1.374 . S
C5045 C5042 1.511 . S
C5045 C5046 1.391 . S
C5045 C5047 1.360 1_545 S
C5046 H5019 0.950 . S
C5046 C5032 1.377 1_545 S
C5046 C5045 1.391 . S
C5047 C5031 1.377 . S
C5047 C5045 1.360 1_565 S
C5047 C5048 1.524 . S
C5048 C5047 1.524 . S
C5048 C5049 1.397 . S
C5048 C5053 1.387 . S
C5049 H5020 0.950 . S
C5049 C5048 1.397 . S
C5049 C5050 1.334 . S
C5050 H5021 0.950 . S
C5050 C5049 1.334 . S
C5050 C5051 1.287 . S
C5051 C5050 1.287 . S
C5051 C5052 1.524 . S
C5051 H5054 0.999 . S
C5052 H5022 0.950 1_554 S
C5052 C5051 1.524 . S
C5052 C5053 1.423 . S
C5053 H5023 0.920 1_554 S
C5053 C5048 1.387 . S
C5053 C5052 1.423 . S
H5054 C5051 0.999 . S
H5055 C5036 0.913 . S
H5056 C5074 0.951 . S
H5057 C5076 0.951 . S
H5058 C5078 0.950 . S
H5059 C5079 0.950 . S
H5060 C5081 0.950 . S
H5061 C5084 0.950 . S
H5062 C5085 0.950 . S
H5063 C5087 0.950 . S
H5064 C5088 0.950 . S
H5065 C5089 0.951 . S
H5066 C5091 0.951 . S
H5067 C5093 0.950 . S
H5068 C5094 0.950 . S
H5069 C5096 0.950 . S
H5070 C5099 0.950 . S
H5071 C5100 0.950 . S
H5072 C5102 0.950 . S
H5073 C5103 0.950 . S
C5074 H5056 0.951 . S
C5074 C5075 1.366 . S
C5074 C5076 1.388 . S
C5075 C5074 1.366 . S
C5075 C5079 1.385 . S
C5076 H5057 0.951 . S
C5076 C5074 1.388 . S
C5076 C5077 1.366 . S
C5077 C5076 1.366 . S
C5077 C5078 1.414 . S
C5077 C5080 1.499 . S
C5078 H5058 0.950 . S
C5078 C5077 1.414 . S
C5078 C5079 1.374 . S
C5079 H5059 0.950 . S
C5079 C5075 1.385 . S
C5079 C5078 1.374 . S
C5080 C5077 1.499 . S
C5080 C5081 1.373 . S
C5080 C5082 1.389 . S
C5081 H5060 0.950 . S
C5081 C5080 1.373 . S
C5081 C5097 1.377 . S
C5082 C5080 1.389 . S
C5082 C5083 1.524 . S
C5082 C5096 1.377 . S
C5083 C5082 1.524 . S
C5083 C5084 1.397 . S
C5083 C5088 1.363 . S
C5084 H5061 0.950 . S
C5084 C5083 1.397 . S
C5084 C5085 1.334 . S
C5085 H5062 0.950 . S
C5085 C5084 1.334 . S
C5085 C5086 1.287 . S
C5086 C5085 1.287 . S
C5086 C5087 1.524 . S
C5086 H5105 0.913 . S
C5087 H5063 0.950 . S
C5087 C5086 1.524 . S
C5087 C5088 1.415 . S
C5088 H5064 0.950 . S
C5088 C5083 1.363 . S
C5088 C5087 1.415 . S
C5089 H5065 0.951 . S
C5089 C5090 1.366 . S
C5089 C5091 1.388 . S
C5090 C5089 1.366 . S
C5090 C5094 1.385 . S
C5091 H5066 0.951 . S
C5091 C5089 1.388 . S
C5091 C5092 1.366 . S
C5092 C5091 1.366 . S
C5092 C5093 1.414 . S
C5092 C5095 1.499 . S
C5093 H5067 0.950 . S
C5093 C5092 1.414 . S
C5093 C5094 1.374 . S
C5094 H5068 0.950 . S
C5094 C5090 1.385 . S
C5094 C5093 1.374 . S
C5095 C5092 1.499 . S
C5095 C5096 1.373 . S
C5095 C5097 1.389 . S
C5096 H5069 0.950 . S
C5096 C5082 1.377 . S
C5096 C5095 1.373 . S
C5097 C5081 1.377 . S
C5097 C5095 1.389 . S
C5097 C5098 1.524 . S
C5098 C5097 1.524 . S
C5098 C5099 1.397 . S
C5098 C5103 1.363 . S
C5099 H5070 0.950 . S
C5099 C5098 1.397 . S
C5099 C5100 1.334 . S
C5100 H5071 0.950 . S
C5100 C5099 1.334 . S
C5100 C5101 1.287 . S
C5101 C5100 1.287 . S
C5101 C5102 1.524 . S
C5101 H5104 0.999 . S
C5102 H5072 0.950 . S
C5102 C5101 1.524 . S
C5102 C5103 1.415 . S
C5103 H5073 0.950 . S
C5103 C5098 1.363 . S
C5103 C5102 1.415 . S
H5104 C5101 0.999 . S
H5105 C5086 0.913 . S
H5106 C5124 0.951 1_556 S
H5107 C5126 0.951 . S
H5108 C5128 0.950 . S
H5109 C5129 0.950 . S
H5110 C5131 0.950 . S
H5111 C5134 0.950 . S
H5112 C5135 0.950 . S
H5113 C5137 0.950 . S
H5114 C5138 0.950 . S
H5115 C5139 0.951 . S
H5116 C5141 0.951 . S
H5117 C5143 0.950 . S
H5118 C5144 0.950 . S
H5119 C5146 0.933 1_556 S
H5120 C5149 0.950 . S
H5121 C5150 0.950 . S
H5122 C5152 0.950 . S
H5123 C5153 0.950 . S
C5124 H5106 0.951 1_554 S
C5124 C5125 1.366 . S
C5124 C5126 1.388 . S
C5125 C5124 1.366 . S
C5125 C5129 1.385 . S
C5126 H5107 0.951 . S
C5126 C5124 1.388 . S
C5126 C5127 1.366 . S
C5127 C5126 1.366 . S
C5127 C5128 1.414 . S
C5127 C5130 1.499 . S
C5128 H5108 0.950 . S
C5128 C5127 1.414 . S
C5128 C5129 1.374 . S
C5129 H5109 0.950 . S
C5129 C5125 1.385 . S
C5129 C5128 1.374 . S
C5130 C5127 1.499 . S
C5130 C5131 1.373 . S
C5130 C5132 1.389 . S
C5131 H5110 0.950 . S
C5131 C5130 1.373 . S
C5131 C5147 1.377 . S
C5132 C5130 1.389 . S
C5132 C5133 1.524 1_554 S
C5132 C5146 1.377 . S
C5133 C5132 1.524 1_556 S
C5133 C5134 1.397 . S
C5133 C5138 1.363 . S
C5134 H5111 0.950 . S
C5134 C5133 1.397 . S
C5134 C5135 1.334 . S
C5135 H5112 0.950 . S
C5135 C5134 1.334 . S
C5135 C5136 1.287 . S
C5136 C5135 1.287 . S
C5136 C5137 1.524 . S
C5136 H5155 0.913 . S
C5137 H5113 0.950 . S
C5137 C5136 1.524 . S
C5137 C5138 1.415 . S
C5138 H5114 0.950 . S
C5138 C5133 1.363 . S
C5138 C5137 1.415 . S
C5139 H5115 0.951 . S
C5139 C5140 1.366 . S
C5139 C5141 1.388 . S
C5140 C5139 1.366 . S
C5140 C5144 1.385 . S
C5141 H5116 0.951 . S
C5141 C5139 1.388 . S
C5141 C5142 1.366 . S
C5142 C5141 1.366 . S
C5142 C5143 1.414 . S
C5142 C5145 1.499 . S
C5143 H5117 0.950 . S
C5143 C5142 1.414 . S
C5143 C5144 1.374 . S
C5144 H5118 0.950 . S
C5144 C5140 1.385 . S
C5144 C5143 1.374 . S
C5145 C5142 1.499 . S
C5145 C5146 1.373 . S
C5145 C5147 1.389 . S
C5146 H5119 0.933 1_554 S
C5146 C5132 1.377 . S
C5146 C5145 1.373 . S
C5147 C5131 1.377 . S
C5147 C5145 1.389 . S
C5147 C5148 1.524 . S
C5148 C5147 1.524 . S
C5148 C5149 1.397 . S
C5148 C5153 1.363 . S
C5149 H5120 0.950 . S
C5149 C5148 1.397 . S
C5149 C5150 1.334 . S
C5150 H5121 0.950 . S
C5150 C5149 1.334 . S
C5150 C5151 1.287 . S
C5151 C5150 1.287 . S
C5151 C5152 1.524 . S
C5151 H5154 0.999 . S
C5152 H5122 0.950 . S
C5152 C5151 1.524 . S
C5152 C5153 1.415 . S
C5153 H5123 0.950 . S
C5153 C5148 1.363 . S
C5153 C5152 1.415 . S
H5154 C5151 0.999 . S
H5155 C5136 0.913 . S
H5156 C5174 0.951 . S
H5157 C5176 0.951 . S
H5158 C5178 0.950 . S
H5159 C5179 0.950 . S
H5160 C5181 0.950 . S
H5161 C5184 0.950 . S
H5162 C5185 0.950 . S
H5163 C5187 0.950 . S
H5164 C5188 0.950 . S
H5165 C5189 0.951 . S
H5166 C5191 0.951 . S
H5167 C5193 0.950 . S
H5168 C5194 0.950 . S
H5169 C5196 0.950 . S
H5170 C5199 0.950 . S
H5171 C5200 0.950 . S
H5172 C5202 0.950 . S
H5173 C5203 0.950 . S
C5174 H5156 0.951 . S
C5174 C5175 1.366 . S
C5174 C5176 1.388 . S
C5175 C5174 1.366 . S
C5175 C5179 1.385 . S
C5176 H5157 0.951 . S
C5176 C5174 1.388 . S
C5176 C5177 1.366 . S
C5177 C5176 1.366 . S
C5177 C5178 1.414 . S
C5177 C5180 1.499 . S
C5178 H5158 0.950 . S
C5178 C5177 1.414 . S
C5178 C5179 1.374 . S
C5179 H5159 0.950 . S
C5179 C5175 1.385 . S
C5179 C5178 1.374 . S
C5180 C5177 1.499 . S
C5180 C5181 1.373 . S
C5180 C5182 1.389 . S
C5181 H5160 0.950 . S
C5181 C5180 1.373 . S
C5181 C5197 1.377 . S
C5182 C5180 1.389 . S
C5182 C5183 1.524 . S
C5182 C5196 1.377 . S
C5183 C5182 1.524 . S
C5183 C5184 1.397 . S
C5183 C5188 1.363 . S
C5184 H5161 0.950 . S
C5184 C5183 1.397 . S
C5184 C5185 1.334 . S
C5185 H5162 0.950 . S
C5185 C5184 1.334 . S
C5185 C5186 1.287 . S
C5186 C5185 1.287 . S
C5186 C5187 1.524 . S
C5186 H5205 0.913 . S
C5187 H5163 0.950 . S
C5187 C5186 1.524 . S
C5187 C5188 1.415 . S
C5188 H5164 0.950 . S
C5188 C5183 1.363 . S
C5188 C5187 1.415 . S
C5189 H5165 0.951 . S
C5189 C5190 1.366 . S
C5189 C5191 1.388 . S
C5190 C5189 1.366 . S
C5190 C5194 1.385 . S
C5191 H5166 0.951 . S
C5191 C5189 1.388 . S
C5191 C5192 1.366 . S
C5192 C5191 1.366 . S
C5192 C5193 1.414 . S
C5192 C5195 1.499 . S
C5193 H5167 0.950 . S
C5193 C5192 1.414 . S
C5193 C5194 1.374 . S
C5194 H5168 0.950 . S
C5194 C5190 1.385 . S
C5194 C5193 1.374 . S
C5195 C5192 1.499 . S
C5195 C5196 1.373 . S
C5195 C5197 1.389 . S
C5196 H5169 0.950 . S
C5196 C5182 1.377 . S
C5196 C5195 1.373 . S
C5197 C5181 1.377 . S
C5197 C5195 1.389 . S
C5197 C5198 1.524 . S
C5198 C5197 1.524 . S
C5198 C5199 1.397 . S
C5198 C5203 1.363 . S
C5199 H5170 0.950 . S
C5199 C5198 1.397 . S
C5199 C5200 1.334 . S
C5200 H5171 0.950 . S
C5200 C5199 1.334 . S
C5200 C5201 1.287 . S
C5201 C5200 1.287 . S
C5201 C5202 1.524 . S
C5201 H5204 0.999 . S
C5202 H5172 0.950 . S
C5202 C5201 1.524 . S
C5202 C5203 1.415 . S
C5203 H5173 0.950 . S
C5203 C5198 1.363 . S
C5203 C5202 1.415 . S
H5204 C5201 0.999 . S
H5205 C5186 0.913 . S
H5206 C5224 0.951 . S
H5207 C5226 0.951 . S
H5208 C5228 0.950 . S
H5209 C5229 0.950 . S
H5210 C5231 0.950 . S
H5211 C5234 0.950 . S
H5212 C5235 0.950 . S
H5213 C5237 0.950 . S
H5214 C5238 0.950 . S
H5215 C5239 0.951 . S
H5216 C5241 0.951 . S
H5217 C5243 0.950 . S
H5218 C5244 0.950 . S
H5219 C5246 0.950 . S
H5220 C5249 0.950 . S
H5221 C5250 0.950 . S
H5222 C5252 0.950 . S
H5223 C5253 0.950 . S
C5224 H5206 0.951 . S
C5224 C5225 1.366 . S
C5224 C5226 1.388 . S
C5225 C5224 1.366 . S
C5225 C5229 1.385 . S
C5226 H5207 0.951 . S
C5226 C5224 1.388 . S
C5226 C5227 1.366 . S
C5227 C5226 1.366 . S
C5227 C5228 1.414 . S
C5227 C5230 1.499 . S
C5228 H5208 0.950 . S
C5228 C5227 1.414 . S
C5228 C5229 1.374 . S
C5229 H5209 0.950 . S
C5229 C5225 1.385 . S
C5229 C5228 1.374 . S
C5230 C5227 1.499 . S
C5230 C5231 1.373 . S
C5230 C5232 1.389 . S
C5231 H5210 0.950 . S
C5231 C5230 1.373 . S
C5231 C5247 1.377 . S
C5232 C5230 1.389 . S
C5232 C5233 1.524 . S
C5232 C5246 1.377 . S
C5233 C5232 1.524 . S
C5233 C5234 1.397 . S
C5233 C5238 1.363 . S
C5234 H5211 0.950 . S
C5234 C5233 1.397 . S
C5234 C5235 1.334 . S
C5235 H5212 0.950 . S
C5235 C5234 1.334 . S
C5235 C5236 1.287 . S
C5236 C5235 1.287 . S
C5236 C5237 1.524 . S
C5236 H5255 0.913 . S
C5237 H5213 0.950 . S
C5237 C5236 1.524 . S
C5237 C5238 1.415 . S
C5238 H5214 0.950 . S
C5238 C5233 1.363 . S
C5238 C5237 1.415 . S
C5239 H5215 0.951 . S
C5239 C5240 1.366 . S
C5239 C5241 1.388 . S
C5240 C5239 1.366 . S
C5240 C5244 1.385 . S
C5241 H5216 0.951 . S
C5241 C5239 1.388 . S
C5241 C5242 1.366 . S
C5242 C5241 1.366 . S
C5242 C5243 1.414 . S
C5242 C5245 1.499 . S
C5243 H5217 0.950 . S
C5243 C5242 1.414 . S
C5243 C5244 1.374 . S
C5244 H5218 0.950 . S
C5244 C5240 1.385 . S
C5244 C5243 1.374 . S
C5245 C5242 1.499 . S
C5245 C5246 1.373 . S
C5245 C5247 1.389 . S
C5246 H5219 0.950 . S
C5246 C5232 1.377 . S
C5246 C5245 1.373 . S
C5247 C5231 1.377 . S
C5247 C5245 1.389 . S
C5247 C5248 1.524 . S
C5248 C5247 1.524 . S
C5248 C5249 1.397 . S
C5248 C5253 1.363 . S
C5249 H5220 0.950 . S
C5249 C5248 1.397 . S
C5249 C5250 1.334 . S
C5250 H5221 0.950 . S
C5250 C5249 1.334 . S
C5250 C5251 1.287 . S
C5251 C5250 1.287 . S
C5251 C5252 1.524 . S
C5251 H5254 0.999 . S
C5252 H5222 0.950 . S
C5252 C5251 1.524 . S
C5252 C5253 1.415 . S
C5253 H5223 0.950 . S
C5253 C5248 1.363 . S
C5253 C5252 1.415 . S
H5254 C5251 0.999 . S
H5255 C5236 0.913 . S
H5256 C5274 0.951 . S
H5257 C5276 0.951 . S
H5258 C5278 0.950 . S
H5259 C5279 0.950 . S
H5260 C5281 0.950 . S
H5261 C5284 0.950 . S
H5262 C5285 0.950 . S
H5263 C5287 0.950 . S
H5264 C5288 0.950 . S
H5265 C5289 0.951 . S
H5266 C5291 0.951 . S
H5267 C5293 0.950 . S
H5268 C5294 0.950 . S
H5269 C5296 0.950 . S
H5270 C5299 0.950 . S
H5271 C5300 0.950 . S
H5272 C5302 0.950 . S
H5273 C5303 0.950 . S
C5274 H5256 0.951 . S
C5274 C5275 1.366 . S
C5274 C5276 1.388 . S
C5275 C5274 1.366 . S
C5275 C5279 1.385 . S
C5276 H5257 0.951 . S
C5276 C5274 1.388 . S
C5276 C5277 1.366 . S
C5277 C5276 1.366 . S
C5277 C5278 1.414 . S
C5277 C5280 1.499 . S
C5278 H5258 0.950 . S
C5278 C5277 1.414 . S
C5278 C5279 1.374 . S
C5279 H5259 0.950 . S
C5279 C5275 1.385 . S
C5279 C5278 1.374 . S
C5280 C5277 1.499 . S
C5280 C5281 1.373 . S
C5280 C5282 1.389 . S
C5281 H5260 0.950 . S
C5281 C5280 1.373 . S
C5281 C5297 1.377 . S
C5282 C5280 1.389 . S
C5282 C5283 1.524 . S
C5282 C5296 1.377 . S
C5283 C5282 1.524 . S
C5283 C5284 1.397 . S
C5283 C5288 1.363 . S
C5284 H5261 0.950 . S
C5284 C5283 1.397 . S
C5284 C5285 1.334 . S
C5285 H5262 0.950 . S
C5285 C5284 1.334 . S
C5285 C5286 1.287 . S
C5286 C5285 1.287 . S
C5286 C5287 1.524 . S
C5286 H5305 0.913 . S
C5287 H5263 0.950 . S
C5287 C5286 1.524 . S
C5287 C5288 1.415 . S
C5288 H5264 0.950 . S
C5288 C5283 1.363 . S
C5288 C5287 1.415 . S
C5289 H5265 0.951 . S
C5289 C5290 1.366 . S
C5289 C5291 1.388 . S
C5290 C5289 1.366 . S
C5290 C5294 1.385 . S
C5291 H5266 0.951 . S
C5291 C5289 1.388 . S
C5291 C5292 1.366 . S
C5292 C5291 1.366 . S
C5292 C5293 1.414 . S
C5292 C5295 1.499 . S
C5293 H5267 0.950 . S
C5293 C5292 1.414 . S
C5293 C5294 1.374 . S
C5294 H5268 0.950 . S
C5294 C5290 1.385 . S
C5294 C5293 1.374 . S
C5295 C5292 1.499 . S
C5295 C5296 1.373 . S
C5295 C5297 1.389 . S
C5296 H5269 0.950 . S
C5296 C5282 1.377 . S
C5296 C5295 1.373 . S
C5297 C5281 1.377 . S
C5297 C5295 1.389 . S
C5297 C5298 1.524 . S
C5298 C5297 1.524 . S
C5298 C5299 1.397 . S
C5298 C5303 1.363 . S
C5299 H5270 0.950 . S
C5299 C5298 1.397 . S
C5299 C5300 1.334 . S
C5300 H5271 0.950 . S
C5300 C5299 1.334 . S
C5300 C5301 1.287 . S
C5301 C5300 1.287 . S
C5301 C5302 1.524 . S
C5301 H5304 0.999 . S
C5302 H5272 0.950 . S
C5302 C5301 1.524 . S
C5302 C5303 1.415 . S
C5303 H5273 0.950 . S
C5303 C5298 1.363 . S
C5303 C5302 1.415 . S
H5304 C5301 0.999 . S
H5305 C5286 0.913 . S
H5306 C5324 0.951 . S
H5307 C5326 0.951 . S
H5308 C5328 0.950 . S
H5309 C5329 0.950 . S
H5310 C5331 0.950 . S
H5311 C5334 0.950 . S
H5312 C5335 0.950 . S
H5313 C5337 0.950 . S
H5314 C5338 0.950 . S
H5315 C5339 0.951 . S
H5316 C5341 0.951 . S
H5317 C5343 0.950 . S
H5318 C5344 0.950 . S
H5319 C5346 0.950 . S
H5320 C5349 0.950 . S
H5321 C5350 0.950 . S
H5322 C5352 0.950 . S
H5323 C5353 0.950 . S
C5324 H5306 0.951 . S
C5324 C5325 1.366 . S
C5324 C5326 1.388 . S
C5325 C5324 1.366 . S
C5325 C5329 1.385 . S
C5326 H5307 0.951 . S
C5326 C5324 1.388 . S
C5326 C5327 1.366 . S
C5327 C5326 1.366 . S
C5327 C5328 1.414 . S
C5327 C5330 1.499 . S
C5328 H5308 0.950 . S
C5328 C5327 1.414 . S
C5328 C5329 1.374 . S
C5329 H5309 0.950 . S
C5329 C5325 1.385 . S
C5329 C5328 1.374 . S
C5330 C5327 1.499 . S
C5330 C5331 1.373 . S
C5330 C5332 1.389 . S
C5331 H5310 0.950 . S
C5331 C5330 1.373 . S
C5331 C5347 1.377 . S
C5332 C5330 1.389 . S
C5332 C5333 1.524 . S
C5332 C5346 1.377 . S
C5333 C5332 1.524 . S
C5333 C5334 1.397 . S
C5333 C5338 1.363 . S
C5334 H5311 0.950 . S
C5334 C5333 1.397 . S
C5334 C5335 1.334 . S
C5335 H5312 0.950 . S
C5335 C5334 1.334 . S
C5335 C5336 1.287 . S
C5336 C5335 1.287 . S
C5336 C5337 1.524 . S
C5336 H5355 0.913 . S
C5337 H5313 0.950 . S
C5337 C5336 1.524 . S
C5337 C5338 1.415 . S
C5338 H5314 0.950 . S
C5338 C5333 1.363 . S
C5338 C5337 1.415 . S
C5339 H5315 0.951 . S
C5339 C5340 1.366 . S
C5339 C5341 1.388 . S
C5340 C5339 1.366 . S
C5340 C5344 1.385 . S
C5341 H5316 0.951 . S
C5341 C5339 1.388 . S
C5341 C5342 1.366 . S
C5342 C5341 1.366 . S
C5342 C5343 1.414 . S
C5342 C5345 1.499 . S
C5343 H5317 0.950 . S
C5343 C5342 1.414 . S
C5343 C5344 1.374 . S
C5344 H5318 0.950 . S
C5344 C5340 1.385 . S
C5344 C5343 1.374 . S
C5345 C5342 1.499 . S
C5345 C5346 1.373 . S
C5345 C5347 1.389 . S
C5346 H5319 0.950 . S
C5346 C5332 1.377 . S
C5346 C5345 1.373 . S
C5347 C5331 1.377 . S
C5347 C5345 1.389 . S
C5347 C5348 1.524 . S
C5348 C5347 1.524 . S
C5348 C5349 1.397 . S
C5348 C5353 1.363 . S
C5349 H5320 0.950 . S
C5349 C5348 1.397 . S
C5349 C5350 1.334 . S
C5350 H5321 0.950 . S
C5350 C5349 1.334 . S
C5350 C5351 1.287 . S
C5351 C5350 1.287 . S
C5351 C5352 1.524 . S
C5351 H5354 0.999 . S
C5352 H5322 0.950 . S
C5352 C5351 1.524 . S
C5352 C5353 1.415 . S
C5353 H5323 0.950 . S
C5353 C5348 1.363 . S
C5353 C5352 1.415 . S
H5354 C5351 0.999 . S
H5355 C5336 0.913 . S
H5356 C5374 0.951 . S
H5357 C5376 0.951 . S
H5358 C5378 0.950 . S
H5359 C5379 0.950 . S
H5360 C5381 0.950 . S
H5361 C5384 0.950 . S
H5362 C5385 0.950 . S
H5363 C5387 0.950 . S
H5364 C5388 0.950 . S
H5365 C5389 0.951 . S
H5366 C5391 0.951 . S
H5367 C5393 0.950 . S
H5368 C5394 0.950 . S
H5369 C5396 0.950 . S
H5370 C5399 0.950 . S
H5371 C5400 0.950 . S
H5372 C5402 0.950 . S
H5373 C5403 0.950 . S
C5374 H5356 0.951 . S
C5374 C5375 1.366 . S
C5374 C5376 1.388 . S
C5375 C5374 1.366 . S
C5375 C5379 1.385 . S
C5376 H5357 0.951 . S
C5376 C5374 1.388 . S
C5376 C5377 1.366 . S
C5377 C5376 1.366 . S
C5377 C5378 1.414 . S
C5377 C5380 1.499 . S
C5378 H5358 0.950 . S
C5378 C5377 1.414 . S
C5378 C5379 1.374 . S
C5379 H5359 0.950 . S
C5379 C5375 1.385 . S
C5379 C5378 1.374 . S
C5380 C5377 1.499 . S
C5380 C5381 1.373 . S
C5380 C5382 1.389 . S
C5381 H5360 0.950 . S
C5381 C5380 1.373 . S
C5381 C5397 1.377 . S
C5382 C5380 1.389 . S
C5382 C5383 1.524 . S
C5382 C5396 1.377 . S
C5383 C5382 1.524 . S
C5383 C5384 1.397 . S
C5383 C5388 1.363 . S
C5384 H5361 0.950 . S
C5384 C5383 1.397 . S
C5384 C5385 1.334 . S
C5385 H5362 0.950 . S
C5385 C5384 1.334 . S
C5385 C5386 1.287 1_455 S
C5386 C5385 1.287 1_655 S
C5386 C5387 1.524 . S
C5386 H5405 0.913 . S
C5387 H5363 0.950 . S
C5387 C5386 1.524 . S
C5387 C5388 1.415 1_655 S
C5388 H5364 0.950 . S
C5388 C5383 1.363 . S
C5388 C5387 1.415 1_455 S
C5389 H5365 0.951 . S
C5389 C5390 1.366 . S
C5389 C5391 1.388 . S
C5390 C5389 1.366 . S
C5390 C5394 1.385 . S
C5391 H5366 0.951 . S
C5391 C5389 1.388 . S
C5391 C5392 1.366 . S
C5392 C5391 1.366 . S
C5392 C5393 1.414 . S
C5392 C5395 1.499 . S
C5393 H5367 0.950 . S
C5393 C5392 1.414 . S
C5393 C5394 1.374 . S
C5394 H5368 0.950 . S
C5394 C5390 1.385 . S
C5394 C5393 1.374 . S
C5395 C5392 1.499 . S
C5395 C5396 1.373 . S
C5395 C5397 1.389 . S
C5396 H5369 0.950 . S
C5396 C5382 1.377 . S
C5396 C5395 1.373 . S
C5397 C5381 1.377 . S
C5397 C5395 1.389 . S
C5397 C5398 1.524 . S
C5398 C5397 1.524 . S
C5398 C5399 1.397 . S
C5398 C5403 1.363 . S
C5399 H5370 0.950 . S
C5399 C5398 1.397 . S
C5399 C5400 1.334 . S
C5400 H5371 0.950 . S
C5400 C5399 1.334 . S
C5400 C5401 1.287 . S
C5401 C5400 1.287 . S
C5401 C5402 1.524 . S
C5401 H5404 0.999 . S
C5402 H5372 0.950 . S
C5402 C5401 1.524 . S
C5402 C5403 1.415 . S
C5403 H5373 0.950 . S
C5403 C5398 1.363 . S
C5403 C5402 1.415 . S
H5404 C5401 0.999 . S
H5405 C5386 0.913 . S
H5406 C5424 0.951 . S
H5407 C5426 0.951 . S
H5408 C5428 0.950 . S
H5409 C5429 0.950 . S
H5410 C5431 0.950 . S
H5411 C5434 0.950 . S
H5412 C5435 0.950 . S
H5413 C5437 0.950 . S
H5414 C5438 0.950 . S
H5415 C5439 0.951 . S
H5416 C5441 0.951 . S
H5417 C5443 0.950 . S
H5418 C5444 0.950 . S
H5419 C5446 0.950 . S
H5420 C5449 0.950 . S
H5421 C5450 0.950 . S
H5422 C5452 0.950 . S
H5423 C5453 0.950 . S
C5424 H5406 0.951 . S
C5424 C5425 1.366 . S
C5424 C5426 1.388 . S
C5425 C5424 1.366 . S
C5425 C5429 1.385 . S
C5426 H5407 0.951 . S
C5426 C5424 1.388 . S
C5426 C5427 1.366 . S
C5427 C5426 1.366 . S
C5427 C5428 1.414 . S
C5427 C5430 1.499 . S
C5428 H5408 0.950 . S
C5428 C5427 1.414 . S
C5428 C5429 1.374 . S
C5429 H5409 0.950 . S
C5429 C5425 1.385 . S
C5429 C5428 1.374 . S
C5430 C5427 1.499 . S
C5430 C5431 1.373 . S
C5430 C5432 1.389 . S
C5431 H5410 0.950 . S
C5431 C5430 1.373 . S
C5431 C5447 1.377 . S
C5432 C5430 1.389 . S
C5432 C5433 1.524 . S
C5432 C5446 1.377 . S
C5433 C5432 1.524 . S
C5433 C5434 1.397 . S
C5433 C5438 1.363 . S
C5434 H5411 0.950 . S
C5434 C5433 1.397 . S
C5434 C5435 1.334 . S
C5435 H5412 0.950 . S
C5435 C5434 1.334 . S
C5435 C5436 1.287 . S
C5436 C5435 1.287 . S
C5436 C5437 1.524 . S
C5436 H5455 0.913 . S
C5437 H5413 0.950 . S
C5437 C5436 1.524 . S
C5437 C5438 1.415 . S
C5438 H5414 0.950 . S
C5438 C5433 1.363 . S
C5438 C5437 1.415 . S
C5439 H5415 0.951 . S
C5439 C5440 1.366 . S
C5439 C5441 1.388 . S
C5440 C5439 1.366 . S
C5440 C5444 1.385 . S
C5441 H5416 0.951 . S
C5441 C5439 1.388 . S
C5441 C5442 1.366 . S
C5442 C5441 1.366 . S
C5442 C5443 1.414 . S
C5442 C5445 1.499 . S
C5443 H5417 0.950 . S
C5443 C5442 1.414 . S
C5443 C5444 1.374 . S
C5444 H5418 0.950 . S
C5444 C5440 1.385 . S
C5444 C5443 1.374 . S
C5445 C5442 1.499 . S
C5445 C5446 1.373 . S
C5445 C5447 1.389 . S
C5446 H5419 0.950 . S
C5446 C5432 1.377 . S
C5446 C5445 1.373 . S
C5447 C5431 1.377 . S
C5447 C5445 1.389 . S
C5447 C5448 1.524 . S
C5448 C5447 1.524 . S
C5448 C5449 1.397 . S
C5448 C5453 1.363 . S
C5449 H5420 0.950 . S
C5449 C5448 1.397 . S
C5449 C5450 1.334 . S
C5450 H5421 0.950 . S
C5450 C5449 1.334 . S
C5450 C5451 1.287 . S
C5451 C5450 1.287 . S
C5451 C5452 1.524 . S
C5451 H5454 0.999 . S
C5452 H5422 0.950 . S
C5452 C5451 1.524 . S
C5452 C5453 1.415 . S
C5453 H5423 0.950 . S
C5453 C5448 1.363 . S
C5453 C5452 1.415 . S
H5454 C5451 0.999 . S
H5455 C5436 0.913 . S
H5456 C5474 0.951 . S
H5457 C5476 0.951 . S
H5458 C5478 0.950 . S
H5459 C5479 0.950 . S
H5460 C5481 0.950 . S
H5461 C5484 0.950 . S
H5462 C5485 0.950 . S
H5463 C5487 0.950 . S
H5464 C5488 0.950 . S
H5465 C5489 0.951 . S
H5466 C5491 0.951 . S
H5467 C5493 0.950 . S
H5468 C5494 0.950 . S
H5469 C5496 0.950 . S
H5470 C5499 0.950 . S
H5471 C5500 0.950 . S
H5472 C5502 0.950 . S
H5473 C5503 0.950 . S
C5474 H5456 0.951 . S
C5474 C5475 1.366 . S
C5474 C5476 1.388 . S
C5475 C5474 1.366 . S
C5475 C5479 1.385 . S
C5476 H5457 0.951 . S
C5476 C5474 1.388 . S
C5476 C5477 1.366 . S
C5477 C5476 1.366 . S
C5477 C5478 1.414 . S
C5477 C5480 1.499 . S
C5478 H5458 0.950 . S
C5478 C5477 1.414 . S
C5478 C5479 1.374 . S
C5479 H5459 0.950 . S
C5479 C5475 1.385 . S
C5479 C5478 1.374 . S
C5480 C5477 1.499 . S
C5480 C5481 1.373 . S
C5480 C5482 1.389 . S
C5481 H5460 0.950 . S
C5481 C5480 1.373 . S
C5481 C5497 1.377 . S
C5482 C5480 1.389 . S
C5482 C5483 1.524 . S
C5482 C5496 1.377 . S
C5483 C5482 1.524 . S
C5483 C5484 1.397 . S
C5483 C5488 1.363 . S
C5484 H5461 0.950 . S
C5484 C5483 1.397 . S
C5484 C5485 1.334 . S
C5485 H5462 0.950 . S
C5485 C5484 1.334 . S
C5485 C5486 1.287 . S
C5486 C5485 1.287 . S
C5486 C5487 1.524 . S
C5486 H5505 0.913 . S
C5487 H5463 0.950 . S
C5487 C5486 1.524 . S
C5487 C5488 1.415 . S
C5488 H5464 0.950 . S
C5488 C5483 1.363 . S
C5488 C5487 1.415 . S
C5489 H5465 0.951 . S
C5489 C5490 1.366 . S
C5489 C5491 1.388 . S
C5490 C5489 1.366 . S
C5490 C5494 1.385 . S
C5491 H5466 0.951 . S
C5491 C5489 1.388 . S
C5491 C5492 1.366 . S
C5492 C5491 1.366 . S
C5492 C5493 1.414 . S
C5492 C5495 1.499 . S
C5493 H5467 0.950 . S
C5493 C5492 1.414 . S
C5493 C5494 1.374 . S
C5494 H5468 0.950 . S
C5494 C5490 1.385 . S
C5494 C5493 1.374 . S
C5495 C5492 1.499 . S
C5495 C5496 1.373 . S
C5495 C5497 1.389 . S
C5496 H5469 0.950 . S
C5496 C5482 1.377 . S
C5496 C5495 1.373 . S
C5497 C5481 1.377 . S
C5497 C5495 1.389 . S
C5497 C5498 1.524 . S
C5498 C5497 1.524 . S
C5498 C5499 1.397 . S
C5498 C5503 1.363 . S
C5499 H5470 0.950 . S
C5499 C5498 1.397 . S
C5499 C5500 1.334 1_556 S
C5500 H5471 0.950 . S
C5500 C5499 1.334 1_554 S
C5500 C5501 1.287 . S
C5501 C5500 1.287 . S
C5501 C5502 1.523 1_554 S
C5501 H5504 1.000 . S
C5502 H5472 0.950 . S
C5502 C5501 1.523 1_556 S
C5502 C5503 1.415 . S
C5503 H5473 0.950 . S
C5503 C5498 1.363 . S
C5503 C5502 1.415 . S
H5504 C5501 1.000 . S
H5505 C5486 0.913 . S
H5506 C5524 0.951 . S
H5507 C5526 0.951 . S
H5508 C5528 0.950 . S
H5509 C5529 0.950 . S
H5510 C5531 0.950 . S
H5511 C5534 0.950 . S
H5512 C5535 0.950 . S
H5513 C5537 0.950 . S
H5514 C5538 0.950 . S
H5515 C5539 0.951 . S
H5516 C5541 0.951 . S
H5517 C5543 0.950 . S
H5518 C5544 0.950 . S
H5519 C5546 0.950 . S
H5520 C5549 0.950 . S
H5521 C5550 0.950 . S
H5522 C5552 0.950 . S
H5523 C5553 0.950 . S
C5524 H5506 0.951 . S
C5524 C5525 1.366 . S
C5524 C5526 1.388 . S
C5525 C5524 1.366 . S
C5525 C5529 1.385 . S
C5526 H5507 0.951 . S
C5526 C5524 1.388 . S
C5526 C5527 1.366 . S
C5527 C5526 1.366 . S
C5527 C5528 1.414 . S
C5527 C5530 1.499 . S
C5528 H5508 0.950 . S
C5528 C5527 1.414 . S
C5528 C5529 1.374 . S
C5529 H5509 0.950 . S
C5529 C5525 1.385 . S
C5529 C5528 1.374 . S
C5530 C5527 1.499 . S
C5530 C5531 1.373 . S
C5530 C5532 1.389 . S
C5531 H5510 0.950 . S
C5531 C5530 1.373 . S
C5531 C5547 1.377 . S
C5532 C5530 1.389 . S
C5532 C5533 1.524 . S
C5532 C5546 1.377 . S
C5533 C5532 1.524 . S
C5533 C5534 1.397 . S
C5533 C5538 1.363 . S
C5534 H5511 0.950 . S
C5534 C5533 1.397 . S
C5534 C5535 1.334 . S
C5535 H5512 0.950 . S
C5535 C5534 1.334 . S
C5535 C5536 1.287 . S
C5536 C5535 1.287 . S
C5536 C5537 1.524 . S
C5536 H5555 0.913 . S
C5537 H5513 0.950 . S
C5537 C5536 1.524 . S
C5537 C5538 1.415 . S
C5538 H5514 0.950 . S
C5538 C5533 1.363 . S
C5538 C5537 1.415 . S
C5539 H5515 0.951 . S
C5539 C5540 1.366 . S
C5539 C5541 1.388 . S
C5540 C5539 1.366 . S
C5540 C5544 1.385 . S
C5541 H5516 0.951 . S
C5541 C5539 1.388 . S
C5541 C5542 1.366 . S
C5542 C5541 1.366 . S
C5542 C5543 1.414 . S
C5542 C5545 1.499 . S
C5543 H5517 0.950 . S
C5543 C5542 1.414 . S
C5543 C5544 1.374 . S
C5544 H5518 0.950 . S
C5544 C5540 1.385 . S
C5544 C5543 1.374 . S
C5545 C5542 1.499 . S
C5545 C5546 1.373 . S
C5545 C5547 1.389 . S
C5546 H5519 0.950 . S
C5546 C5532 1.377 . S
C5546 C5545 1.373 . S
C5547 C5531 1.377 . S
C5547 C5545 1.389 . S
C5547 C5548 1.524 . S
C5548 C5547 1.524 . S
C5548 C5549 1.397 . S
C5548 C5553 1.363 . S
C5549 H5520 0.950 . S
C5549 C5548 1.397 . S
C5549 C5550 1.334 . S
C5550 H5521 0.950 . S
C5550 C5549 1.334 . S
C5550 C5551 1.287 . S
C5551 C5550 1.287 . S
C5551 C5552 1.524 . S
C5551 H5554 0.999 . S
C5552 H5522 0.950 . S
C5552 C5551 1.524 . S
C5552 C5553 1.415 . S
C5553 H5523 0.950 . S
C5553 C5548 1.363 . S
C5553 C5552 1.415 . S
H5554 C5551 0.999 . S
H5555 C5536 0.913 . S
H5556 C5574 0.951 . S
H5557 C5576 0.951 . S
H5558 C5578 0.950 . S
H5559 C5579 0.950 . S
H5560 C5581 0.950 . S
H5561 C5584 0.950 . S
H5562 C5585 0.950 . S
H5563 C5587 0.950 . S
H5564 C5588 0.950 . S
H5565 C5589 0.951 . S
H5566 C5591 0.951 . S
H5567 C5593 0.950 . S
H5568 C5594 0.950 . S
H5569 C5596 0.950 . S
H5570 C5599 0.950 . S
H5571 C5600 0.990 . S
H5572 C5602 0.950 . S
H5573 C5603 0.950 . S
C5574 H5556 0.951 . S
C5574 C5575 1.366 . S
C5574 C5576 1.388 . S
C5575 C5574 1.366 . S
C5575 C5579 1.385 . S
C5576 H5557 0.951 . S
C5576 C5574 1.388 . S
C5576 C5577 1.366 . S
C5577 C5576 1.366 . S
C5577 C5578 1.414 . S
C5577 C5580 1.499 . S
C5578 H5558 0.950 . S
C5578 C5577 1.414 . S
C5578 C5579 1.374 . S
C5579 H5559 0.950 . S
C5579 C5575 1.385 . S
C5579 C5578 1.374 . S
C5580 C5577 1.499 . S
C5580 C5581 1.373 . S
C5580 C5582 1.389 . S
C5581 H5560 0.950 . S
C5581 C5580 1.373 . S
C5581 C5597 1.377 . S
C5582 C5580 1.389 . S
C5582 C5583 1.524 . S
C5582 C5596 1.377 . S
C5583 C5582 1.524 . S
C5583 C5584 1.397 . S
C5583 C5588 1.363 . S
C5584 H5561 0.950 . S
C5584 C5583 1.397 . S
C5584 C5585 1.334 . S
C5585 H5562 0.950 . S
C5585 C5584 1.334 . S
C5585 C5586 1.287 . S
C5586 C5585 1.287 . S
C5586 C5587 1.524 . S
C5586 H5605 0.913 . S
C5587 H5563 0.950 . S
C5587 C5586 1.524 . S
C5587 C5588 1.415 . S
C5588 H5564 0.950 . S
C5588 C5583 1.363 . S
C5588 C5587 1.415 . S
C5589 H5565 0.951 . S
C5589 C5590 1.366 . S
C5589 C5591 1.388 . S
C5590 C5589 1.366 . S
C5590 C5594 1.385 . S
C5591 H5566 0.951 . S
C5591 C5589 1.388 . S
C5591 C5592 1.366 . S
C5592 C5591 1.366 . S
C5592 C5593 1.414 . S
C5592 C5595 1.499 . S
C5593 H5567 0.950 . S
C5593 C5592 1.414 . S
C5593 C5594 1.374 . S
C5594 H5568 0.950 . S
C5594 C5590 1.385 . S
C5594 C5593 1.374 . S
C5595 C5592 1.499 . S
C5595 C5596 1.373 . S
C5595 C5597 1.389 . S
C5596 H5569 0.950 . S
C5596 C5582 1.377 . S
C5596 C5595 1.373 . S
C5597 C5581 1.377 . S
C5597 C5595 1.389 . S
C5597 C5598 1.524 . S
C5598 C5597 1.524 . S
C5598 C5599 1.397 . S
C5598 C5603 1.363 . S
C5599 H5570 0.950 . S
C5599 C5598 1.397 . S
C5599 C5600 1.334 . S
C5600 H5571 0.990 . S
C5600 C5599 1.334 . S
C5600 C5601 1.287 . S
C5601 C5600 1.287 . S
C5601 C5602 1.524 . S
C5601 H5604 0.999 1_455 S
C5602 H5572 0.950 . S
C5602 C5601 1.524 . S
C5602 C5603 1.415 . S
C5603 H5573 0.950 . S
C5603 C5598 1.363 . S
C5603 C5602 1.415 . S
H5604 C5601 0.999 1_655 S
H5605 C5586 0.913 . S
H5606 C5624 0.951 . S
H5607 C5626 0.951 . S
H5608 C5628 0.950 . S
H5609 C5629 0.950 . S
H5610 C5631 0.950 . S
H5611 C5634 0.950 . S
H5612 C5635 0.950 . S
H5613 C5637 0.950 . S
H5614 C5638 0.950 . S
H5615 C5639 0.951 . S
H5616 C5641 0.951 . S
H5617 C5643 0.950 . S
H5618 C5644 0.950 . S
H5619 C5646 0.950 . S
H5620 C5649 0.950 . S
H5621 C5650 0.950 . S
H5622 C5652 0.950 . S
H5623 C5653 0.950 . S
C5624 H5606 0.951 . S
C5624 C5625 1.366 . S
C5624 C5626 1.388 . S
C5625 C5624 1.366 . S
C5625 C5629 1.385 . S
C5626 H5607 0.951 . S
C5626 C5624 1.388 . S
C5626 C5627 1.366 . S
C5627 C5626 1.366 . S
C5627 C5628 1.414 . S
C5627 C5630 1.499 . S
C5628 H5608 0.950 . S
C5628 C5627 1.414 . S
C5628 C5629 1.374 . S
C5629 H5609 0.950 . S
C5629 C5625 1.385 . S
C5629 C5628 1.374 . S
C5630 C5627 1.499 . S
C5630 C5631 1.373 . S
C5630 C5632 1.389 . S
C5631 H5610 0.950 . S
C5631 C5630 1.373 . S
C5631 C5647 1.377 . S
C5632 C5630 1.389 . S
C5632 C5633 1.524 . S
C5632 C5646 1.377 . S
C5633 C5632 1.524 . S
C5633 C5634 1.397 . S
C5633 C5638 1.363 . S
C5634 H5611 0.950 . S
C5634 C5633 1.397 . S
C5634 C5635 1.334 . S
C5635 H5612 0.950 . S
C5635 C5634 1.334 . S
C5635 C5636 1.287 . S
C5636 C5635 1.287 . S
C5636 C5637 1.524 . S
C5636 H5655 0.913 . S
C5637 H5613 0.950 . S
C5637 C5636 1.524 . S
C5637 C5638 1.415 . S
C5638 H5614 0.950 . S
C5638 C5633 1.363 . S
C5638 C5637 1.415 . S
C5639 H5615 0.951 . S
C5639 C5640 1.366 . S
C5639 C5641 1.388 . S
C5640 C5639 1.366 . S
C5640 C5644 1.385 . S
C5641 H5616 0.951 . S
C5641 C5639 1.388 . S
C5641 C5642 1.366 . S
C5642 C5641 1.366 . S
C5642 C5643 1.414 . S
C5642 C5645 1.499 . S
C5643 H5617 0.950 . S
C5643 C5642 1.414 . S
C5643 C5644 1.374 . S
C5644 H5618 0.950 . S
C5644 C5640 1.385 . S
C5644 C5643 1.374 . S
C5645 C5642 1.499 . S
C5645 C5646 1.373 . S
C5645 C5647 1.389 . S
C5646 H5619 0.950 . S
C5646 C5632 1.377 . S
C5646 C5645 1.373 . S
C5647 C5631 1.377 . S
C5647 C5645 1.389 . S
C5647 C5648 1.524 . S
C5648 C5647 1.524 . S
C5648 C5649 1.397 . S
C5648 C5653 1.363 . S
C5649 H5620 0.950 . S
C5649 C5648 1.397 . S
C5649 C5650 1.334 . S
C5650 H5621 0.950 . S
C5650 C5649 1.334 . S
C5650 C5651 1.287 . S
C5651 C5650 1.287 . S
C5651 C5652 1.524 . S
C5651 H5654 0.999 . S
C5652 H5622 0.950 . S
C5652 C5651 1.524 . S
C5652 C5653 1.415 . S
C5653 H5623 0.950 . S
C5653 C5648 1.363 . S
C5653 C5652 1.415 . S
H5654 C5651 0.999 . S
H5655 C5636 0.913 . S
H5656 C5674 0.951 . S
H5657 C5676 0.951 . S
H5658 C5678 0.950 . S
H5659 C5679 0.950 . S
H5660 C5681 0.950 . S
H5661 C5684 0.950 . S
H5662 C5685 0.950 . S
H5663 C5687 0.950 . S
H5664 C5688 0.950 . S
H5665 C5689 0.951 . S
H5666 C5691 0.951 . S
H5667 C5693 0.950 . S
H5668 C5694 0.950 . S
H5669 C5696 0.950 . S
H5670 C5699 0.950 . S
H5671 C5700 0.950 . S
H5672 C5702 0.950 . S
H5673 C5703 0.950 . S
C5674 H5656 0.951 . S
C5674 C5675 1.366 . S
C5674 C5676 1.388 . S
C5675 C5674 1.366 . S
C5675 C5679 1.385 . S
C5676 H5657 0.951 . S
C5676 C5674 1.388 . S
C5676 C5677 1.366 . S
C5677 C5676 1.366 . S
C5677 C5678 1.414 . S
C5677 C5680 1.499 . S
C5678 H5658 0.950 . S
C5678 C5677 1.414 . S
C5678 C5679 1.374 . S
C5679 H5659 0.950 . S
C5679 C5675 1.385 . S
C5679 C5678 1.374 . S
C5680 C5677 1.499 . S
C5680 C5681 1.373 . S
C5680 C5682 1.389 . S
C5681 H5660 0.950 . S
C5681 C5680 1.373 . S
C5681 C5697 1.377 . S
C5682 C5680 1.389 . S
C5682 C5683 1.524 . S
C5682 C5696 1.377 . S
C5683 C5682 1.524 . S
C5683 C5684 1.397 . S
C5683 C5688 1.363 . S
C5684 H5661 0.950 . S
C5684 C5683 1.397 . S
C5684 C5685 1.334 . S
C5685 H5662 0.950 . S
C5685 C5684 1.334 . S
C5685 C5686 1.287 . S
C5686 C5685 1.287 . S
C5686 C5687 1.524 . S
C5686 H5705 0.913 . S
C5687 H5663 0.950 . S
C5687 C5686 1.524 . S
C5687 C5688 1.415 . S
C5688 H5664 0.950 . S
C5688 C5683 1.363 . S
C5688 C5687 1.415 . S
C5689 H5665 0.951 . S
C5689 C5690 1.366 . S
C5689 C5691 1.388 . S
C5690 C5689 1.366 . S
C5690 C5694 1.385 . S
C5691 H5666 0.951 . S
C5691 C5689 1.388 . S
C5691 C5692 1.366 . S
C5692 C5691 1.366 . S
C5692 C5693 1.414 . S
C5692 C5695 1.499 . S
C5693 H5667 0.950 . S
C5693 C5692 1.414 . S
C5693 C5694 1.374 . S
C5694 H5668 0.950 . S
C5694 C5690 1.385 . S
C5694 C5693 1.374 . S
C5695 C5692 1.499 . S
C5695 C5696 1.373 . S
C5695 C5697 1.389 . S
C5696 H5669 0.950 . S
C5696 C5682 1.377 . S
C5696 C5695 1.373 . S
C5697 C5681 1.377 . S
C5697 C5695 1.389 . S
C5697 C5698 1.524 . S
C5698 C5697 1.524 . S
C5698 C5699 1.397 . S
C5698 C5703 1.363 . S
C5699 H5670 0.950 . S
C5699 C5698 1.397 . S
C5699 C5700 1.334 . S
C5700 H5671 0.950 . S
C5700 C5699 1.334 . S
C5700 C5701 1.287 . S
C5701 C5700 1.287 . S
C5701 C5702 1.524 . S
C5701 H5704 0.999 . S
C5702 H5672 0.950 . S
C5702 C5701 1.524 . S
C5702 C5703 1.415 . S
C5703 H5673 0.950 . S
C5703 C5698 1.363 . S
C5703 C5702 1.415 . S
H5704 C5701 0.999 . S
H5705 C5686 0.913 . S
H5706 C5724 0.951 . S
H5707 C5726 0.951 . S
H5708 C5728 0.950 . S
H5709 C5729 0.950 . S
H5710 C5731 0.950 . S
H5711 C5734 0.950 . S
H5712 C5735 0.950 . S
H5713 C5737 0.950 . S
H5714 C5738 0.950 . S
H5715 C5739 0.951 . S
H5716 C5741 0.951 . S
H5717 C5743 0.950 . S
H5718 C5744 0.950 . S
H5719 C5746 0.950 . S
H5720 C5749 0.950 . S
H5721 C5750 0.950 . S
H5722 C5752 0.950 . S
H5723 C5753 0.950 . S
C5724 H5706 0.951 . S
C5724 C5725 1.366 . S
C5724 C5726 1.388 . S
C5725 C5724 1.366 . S
C5725 C5729 1.385 . S
C5726 H5707 0.951 . S
C5726 C5724 1.388 . S
C5726 C5727 1.366 . S
C5727 C5726 1.366 . S
C5727 C5728 1.414 . S
C5727 C5730 1.499 . S
C5728 H5708 0.950 . S
C5728 C5727 1.414 . S
C5728 C5729 1.374 . S
C5729 H5709 0.950 . S
C5729 C5725 1.385 . S
C5729 C5728 1.374 . S
C5730 C5727 1.499 . S
C5730 C5731 1.373 . S
C5730 C5732 1.389 . S
C5731 H5710 0.950 . S
C5731 C5730 1.373 . S
C5731 C5747 1.377 . S
C5732 C5730 1.389 . S
C5732 C5733 1.524 . S
C5732 C5746 1.377 . S
C5733 C5732 1.524 . S
C5733 C5734 1.397 . S
C5733 C5738 1.363 . S
C5734 H5711 0.950 . S
C5734 C5733 1.397 . S
C5734 C5735 1.334 . S
C5735 H5712 0.950 . S
C5735 C5734 1.334 . S
C5735 C5736 1.287 . S
C5736 C5735 1.287 . S
C5736 C5737 1.524 . S
C5736 H5755 0.913 . S
C5737 H5713 0.950 . S
C5737 C5736 1.524 . S
C5737 C5738 1.415 . S
C5738 H5714 0.950 . S
C5738 C5733 1.363 . S
C5738 C5737 1.415 . S
C5739 H5715 0.951 . S
C5739 C5740 1.366 . S
C5739 C5741 1.388 . S
C5740 C5739 1.366 . S
C5740 C5744 1.385 . S
C5741 H5716 0.951 . S
C5741 C5739 1.388 . S
C5741 C5742 1.366 . S
C5742 C5741 1.366 . S
C5742 C5743 1.414 . S
C5742 C5745 1.499 . S
C5743 H5717 0.950 . S
C5743 C5742 1.414 . S
C5743 C5744 1.374 . S
C5744 H5718 0.950 . S
C5744 C5740 1.385 . S
C5744 C5743 1.374 . S
C5745 C5742 1.499 . S
C5745 C5746 1.373 . S
C5745 C5747 1.389 . S
C5746 H5719 0.950 . S
C5746 C5732 1.377 . S
C5746 C5745 1.373 . S
C5747 C5731 1.377 . S
C5747 C5745 1.389 . S
C5747 C5748 1.524 . S
C5748 C5747 1.524 . S
C5748 C5749 1.397 . S
C5748 C5753 1.363 . S
C5749 H5720 0.950 . S
C5749 C5748 1.397 . S
C5749 C5750 1.334 . S
C5750 H5721 0.950 . S
C5750 C5749 1.334 . S
C5750 C5751 1.287 . S
C5751 C5750 1.287 . S
C5751 C5752 1.524 . S
C5751 H5754 0.999 . S
C5752 H5722 0.950 . S
C5752 C5751 1.524 . S
C5752 C5753 1.415 . S
C5753 H5723 0.950 . S
C5753 C5748 1.363 . S
C5753 C5752 1.415 . S
H5754 C5751 0.999 . S
H5755 C5736 0.913 . S
H5756 C5774 0.951 . S
H5757 C5776 0.951 . S
H5758 C5778 0.950 . S
H5759 C5779 0.950 . S
H5760 C5781 0.950 . S
H5761 C5784 0.950 . S
H5762 C5785 0.950 . S
H5763 C5787 0.950 . S
H5764 C5788 0.950 . S
H5765 C5789 0.951 . S
H5766 C5791 0.951 . S
H5767 C5793 0.950 . S
H5768 C5794 0.950 . S
H5769 C5796 0.950 . S
H5770 C5799 0.950 . S
H5771 C5800 0.950 . S
H5772 C5802 0.950 . S
H5773 C5803 0.950 . S
C5774 H5756 0.951 . S
C5774 C5775 1.366 . S
C5774 C5776 1.388 . S
C5775 C5774 1.366 . S
C5775 C5779 1.385 . S
C5776 H5757 0.951 . S
C5776 C5774 1.388 . S
C5776 C5777 1.366 . S
C5777 C5776 1.366 . S
C5777 C5778 1.414 . S
C5777 C5780 1.499 . S
C5778 H5758 0.950 . S
C5778 C5777 1.414 . S
C5778 C5779 1.374 . S
C5779 H5759 0.950 . S
C5779 C5775 1.385 . S
C5779 C5778 1.374 . S
C5780 C5777 1.499 . S
C5780 C5781 1.373 . S
C5780 C5782 1.389 . S
C5781 H5760 0.950 . S
C5781 C5780 1.373 . S
C5781 C5797 1.377 . S
C5782 C5780 1.389 . S
C5782 C5783 1.524 . S
C5782 C5796 1.377 . S
C5783 C5782 1.524 . S
C5783 C5784 1.397 . S
C5783 C5788 1.363 . S
C5784 H5761 0.950 . S
C5784 C5783 1.397 . S
C5784 C5785 1.334 . S
C5785 H5762 0.950 . S
C5785 C5784 1.334 . S
C5785 C5786 1.287 . S
C5786 C5785 1.287 . S
C5786 C5787 1.524 . S
C5786 H5805 0.913 . S
C5787 H5763 0.950 . S
C5787 C5786 1.524 . S
C5787 C5788 1.415 . S
C5788 H5764 0.950 . S
C5788 C5783 1.363 . S
C5788 C5787 1.415 . S
C5789 H5765 0.951 . S
C5789 C5790 1.366 . S
C5789 C5791 1.388 . S
C5790 C5789 1.366 . S
C5790 C5794 1.385 1_455 S
C5791 H5766 0.951 . S
C5791 C5789 1.388 . S
C5791 C5792 1.366 1_455 S
C5792 C5791 1.366 1_655 S
C5792 C5793 1.414 . S
C5792 C5795 1.499 . S
C5793 H5767 0.950 . S
C5793 C5792 1.414 . S
C5793 C5794 1.374 . S
C5794 H5768 0.950 . S
C5794 C5790 1.385 1_655 S
C5794 C5793 1.374 . S
C5795 C5792 1.499 . S
C5795 C5796 1.373 . S
C5795 C5797 1.389 . S
C5796 H5769 0.950 . S
C5796 C5782 1.377 . S
C5796 C5795 1.373 . S
C5797 C5781 1.377 . S
C5797 C5795 1.389 . S
C5797 C5798 1.524 . S
C5798 C5797 1.524 . S
C5798 C5799 1.397 . S
C5798 C5803 1.363 1_655 S
C5799 H5770 0.950 . S
C5799 C5798 1.397 . S
C5799 C5800 1.334 1_655 S
C5800 H5771 0.950 . S
C5800 C5799 1.334 1_455 S
C5800 C5801 1.287 . S
C5801 C5800 1.287 . S
C5801 C5802 1.524 . S
C5801 H5804 0.999 . S
C5802 H5772 0.950 . S
C5802 C5801 1.524 . S
C5802 C5803 1.415 . S
C5803 H5773 0.950 . S
C5803 C5798 1.363 1_455 S
C5803 C5802 1.415 . S
H5804 C5801 0.999 . S
H5805 C5786 0.913 . S
H5806 C5824 0.951 . S
H5807 C5826 0.951 . S
H5808 C5828 0.950 . S
H5809 C5829 0.950 . S
H5810 C5831 0.950 . S
H5811 C5834 0.950 . S
H5812 C5835 0.950 . S
H5813 C5837 0.950 . S
H5814 C5838 0.950 . S
H5815 C5839 0.951 . S
H5816 C5841 0.951 . S
H5817 C5843 0.950 . S
H5818 C5844 0.950 . S
H5819 C5846 0.950 . S
H5820 C5849 0.950 . S
H5821 C5850 0.950 . S
H5822 C5852 0.950 . S
H5823 C5853 0.950 . S
C5824 H5806 0.951 . S
C5824 C5825 1.366 . S
C5824 C5826 1.388 . S
C5825 C5824 1.366 . S
C5825 C5829 1.385 . S
C5826 H5807 0.951 . S
C5826 C5824 1.388 . S
C5826 C5827 1.366 . S
C5827 C5826 1.366 . S
C5827 C5828 1.414 . S
C5827 C5830 1.499 . S
C5828 H5808 0.950 . S
C5828 C5827 1.414 . S
C5828 C5829 1.374 . S
C5829 H5809 0.950 . S
C5829 C5825 1.385 . S
C5829 C5828 1.374 . S
C5830 C5827 1.499 . S
C5830 C5831 1.373 . S
C5830 C5832 1.389 . S
C5831 H5810 0.950 . S
C5831 C5830 1.373 . S
C5831 C5847 1.377 . S
C5832 C5830 1.389 . S
C5832 C5833 1.524 . S
C5832 C5846 1.377 . S
C5833 C5832 1.524 . S
C5833 C5834 1.397 . S
C5833 C5838 1.363 . S
C5834 H5811 0.950 . S
C5834 C5833 1.397 . S
C5834 C5835 1.334 . S
C5835 H5812 0.950 . S
C5835 C5834 1.334 . S
C5835 C5836 1.287 . S
C5836 C5835 1.287 . S
C5836 C5837 1.524 . S
C5836 H5855 0.913 . S
C5837 H5813 0.950 . S
C5837 C5836 1.524 . S
C5837 C5838 1.415 . S
C5838 H5814 0.950 . S
C5838 C5833 1.363 . S
C5838 C5837 1.415 . S
C5839 H5815 0.951 . S
C5839 C5840 1.366 . S
C5839 C5841 1.388 . S
C5840 C5839 1.366 . S
C5840 C5844 1.385 . S
C5841 H5816 0.951 . S
C5841 C5839 1.388 . S
C5841 C5842 1.366 . S
C5842 C5841 1.366 . S
C5842 C5843 1.414 . S
C5842 C5845 1.499 . S
C5843 H5817 0.950 . S
C5843 C5842 1.414 . S
C5843 C5844 1.374 . S
C5844 H5818 0.950 . S
C5844 C5840 1.385 . S
C5844 C5843 1.374 . S
C5845 C5842 1.499 . S
C5845 C5846 1.373 . S
C5845 C5847 1.389 . S
C5846 H5819 0.950 . S
C5846 C5832 1.377 . S
C5846 C5845 1.373 . S
C5847 C5831 1.377 . S
C5847 C5845 1.389 . S
C5847 C5848 1.524 . S
C5848 C5847 1.524 . S
C5848 C5849 1.397 . S
C5848 C5853 1.363 . S
C5849 H5820 0.950 . S
C5849 C5848 1.397 . S
C5849 C5850 1.334 . S
C5850 H5821 0.950 . S
C5850 C5849 1.334 . S
C5850 C5851 1.287 . S
C5851 C5850 1.287 . S
C5851 C5852 1.524 . S
C5851 H5854 0.999 . S
C5852 H5822 0.950 . S
C5852 C5851 1.524 . S
C5852 C5853 1.415 . S
C5853 H5823 0.950 . S
C5853 C5848 1.363 . S
C5853 C5852 1.415 . S
H5854 C5851 0.999 . S
H5855 C5836 0.913 . S
H5856 C5874 0.951 . S
H5857 C5876 0.951 . S
H5858 C5878 0.950 . S
H5859 C5879 0.950 . S
H5860 C5881 0.950 . S
H5861 C5884 0.950 . S
H5862 C5885 0.950 . S
H5863 C5887 0.950 . S
H5864 C5888 0.950 . S
H5865 C5889 0.951 . S
H5866 C5891 0.951 . S
H5867 C5893 0.950 . S
H5868 C5894 0.950 . S
H5869 C5896 0.950 . S
H5870 C5899 0.950 . S
H5871 C5900 0.950 . S
H5872 C5902 0.950 . S
H5873 C5903 0.950 . S
C5874 H5856 0.951 . S
C5874 C5875 1.366 . S
C5874 C5876 1.388 . S
C5875 C5874 1.366 . S
C5875 C5879 1.385 . S
C5876 H5857 0.951 . S
C5876 C5874 1.388 . S
C5876 C5877 1.366 . S
C5877 C5876 1.366 . S
C5877 C5878 1.414 . S
C5877 C5880 1.499 . S
C5878 H5858 0.950 . S
C5878 C5877 1.414 . S
C5878 C5879 1.374 . S
C5879 H5859 0.950 . S
C5879 C5875 1.385 . S
C5879 C5878 1.374 . S
C5880 C5877 1.499 . S
C5880 C5881 1.373 . S
C5880 C5882 1.389 . S
C5881 H5860 0.950 . S
C5881 C5880 1.373 . S
C5881 C5897 1.377 . S
C5882 C5880 1.389 . S
C5882 C5883 1.524 . S
C5882 C5896 1.377 . S
C5883 C5882 1.524 . S
C5883 C5884 1.397 . S
C5883 C5888 1.363 . S
C5884 H5861 0.950 . S
C5884 C5883 1.397 . S
C5884 C5885 1.334 . S
C5885 H5862 0.950 . S
C5885 C5884 1.334 . S
C5885 C5886 1.287 . S
C5886 C5885 1.287 . S
C5886 C5887 1.524 . S
C5886 H5905 0.913 . S
C5887 H5863 0.950 . S
C5887 C5886 1.524 . S
C5887 C5888 1.415 . S
C5888 H5864 0.950 . S
C5888 C5883 1.363 . S
C5888 C5887 1.415 . S
C5889 H5865 0.951 . S
C5889 C5890 1.366 . S
C5889 C5891 1.388 . S
C5890 C5889 1.366 . S
C5890 C5894 1.385 . S
C5891 H5866 0.951 . S
C5891 C5889 1.388 . S
C5891 C5892 1.366 . S
C5892 C5891 1.366 . S
C5892 C5893 1.414 . S
C5892 C5895 1.499 . S
C5893 H5867 0.950 . S
C5893 C5892 1.414 . S
C5893 C5894 1.374 . S
C5894 H5868 0.950 . S
C5894 C5890 1.385 . S
C5894 C5893 1.374 . S
C5895 C5892 1.499 . S
C5895 C5896 1.373 . S
C5895 C5897 1.389 . S
C5896 H5869 0.950 . S
C5896 C5882 1.377 . S
C5896 C5895 1.373 . S
C5897 C5881 1.377 . S
C5897 C5895 1.389 . S
C5897 C5898 1.524 . S
C5898 C5897 1.524 . S
C5898 C5899 1.397 . S
C5898 C5903 1.363 . S
C5899 H5870 0.950 . S
C5899 C5898 1.397 . S
C5899 C5900 1.334 . S
C5900 H5871 0.950 . S
C5900 C5899 1.334 . S
C5900 C5901 1.287 . S
C5901 C5900 1.287 . S
C5901 C5902 1.524 . S
C5901 H5904 0.999 . S
C5902 H5872 0.950 . S
C5902 C5901 1.524 . S
C5902 C5903 1.415 . S
C5903 H5873 0.950 . S
C5903 C5898 1.363 . S
C5903 C5902 1.415 . S
H5904 C5901 0.999 . S
H5905 C5886 0.913 . S
H5906 C5924 0.951 . S
H5907 C5926 0.951 . S
H5908 C5928 0.950 . S
H5909 C5929 0.950 . S
H5910 C5931 0.950 . S
H5911 C5934 0.950 . S
H5912 C5935 0.950 . S
H5913 C5937 0.950 . S
H5914 C5938 0.950 . S
H5915 C5939 0.951 . S
H5916 C5941 0.951 . S
H5917 C5943 0.950 . S
H5918 C5944 0.950 . S
H5919 C5946 0.950 . S
H5920 C5949 0.950 . S
H5921 C5950 0.950 . S
H5922 C5952 0.950 . S
H5923 C5953 0.950 . S
C5924 H5906 0.951 . S
C5924 C5925 1.366 . S
C5924 C5926 1.388 . S
C5925 C5924 1.366 . S
C5925 C5929 1.385 . S
C5926 H5907 0.951 . S
C5926 C5924 1.388 . S
C5926 C5927 1.366 . S
C5927 C5926 1.366 . S
C5927 C5928 1.414 . S
C5927 C5930 1.499 . S
C5928 H5908 0.950 . S
C5928 C5927 1.414 . S
C5928 C5929 1.374 . S
C5929 H5909 0.950 . S
C5929 C5925 1.385 . S
C5929 C5928 1.374 . S
C5930 C5927 1.499 . S
C5930 C5931 1.373 . S
C5930 C5932 1.389 . S
C5931 H5910 0.950 . S
C5931 C5930 1.373 . S
C5931 C5947 1.377 . S
C5932 C5930 1.389 . S
C5932 C5933 1.524 . S
C5932 C5946 1.377 . S
C5933 C5932 1.524 . S
C5933 C5934 1.397 . S
C5933 C5938 1.363 . S
C5934 H5911 0.950 . S
C5934 C5933 1.397 . S
C5934 C5935 1.334 . S
C5935 H5912 0.950 . S
C5935 C5934 1.334 . S
C5935 C5936 1.287 . S
C5936 C5935 1.287 . S
C5936 C5937 1.524 . S
C5936 H5955 0.913 . S
C5937 H5913 0.950 . S
C5937 C5936 1.524 . S
C5937 C5938 1.415 . S
C5938 H5914 0.950 . S
C5938 C5933 1.363 . S
C5938 C5937 1.415 . S
C5939 H5915 0.951 . S
C5939 C5940 1.366 . S
C5939 C5941 1.388 . S
C5940 C5939 1.366 . S
C5940 C5944 1.385 . S
C5941 H5916 0.951 . S
C5941 C5939 1.388 . S
C5941 C5942 1.366 . S
C5942 C5941 1.366 . S
C5942 C5943 1.414 . S
C5942 C5945 1.499 . S
C5943 H5917 0.950 . S
C5943 C5942 1.414 . S
C5943 C5944 1.374 . S
C5944 H5918 0.950 . S
C5944 C5940 1.385 . S
C5944 C5943 1.374 . S
C5945 C5942 1.499 . S
C5945 C5946 1.373 . S
C5945 C5947 1.389 . S
C5946 H5919 0.950 . S
C5946 C5932 1.377 . S
C5946 C5945 1.373 . S
C5947 C5931 1.377 . S
C5947 C5945 1.389 . S
C5947 C5948 1.524 . S
C5948 C5947 1.524 . S
C5948 C5949 1.397 . S
C5948 C5953 1.363 . S
C5949 H5920 0.950 . S
C5949 C5948 1.397 . S
C5949 C5950 1.334 . S
C5950 H5921 0.950 . S
C5950 C5949 1.334 . S
C5950 C5951 1.287 . S
C5951 C5950 1.287 . S
C5951 C5952 1.524 . S
C5951 H5954 0.999 . S
C5952 H5922 0.950 . S
C5952 C5951 1.524 . S
C5952 C5953 1.415 . S
C5953 H5923 0.950 . S
C5953 C5948 1.363 . S
C5953 C5952 1.415 . S
H5954 C5951 0.999 . S
H5955 C5936 0.913 . S
H5956 C5974 0.951 . S
H5957 C5976 0.951 . S
H5958 C5978 0.950 . S
H5959 C5979 0.950 . S
H5960 C5981 0.950 . S
H5961 C5984 0.950 . S
H5962 C5985 0.950 . S
H5963 C5987 0.950 . S
H5964 C5988 0.950 . S
H5965 C5989 0.951 . S
H5966 C5991 0.951 . S
H5967 C5993 0.950 . S
H5968 C5994 0.950 1_455 S
H5969 C5996 0.950 . S
H5970 C5999 0.950 . S
H5971 C6000 0.950 . S
H5972 C6002 0.950 . S
H5973 C6003 0.950 . S
C5974 H5956 0.951 . S
C5974 C5975 1.366 . S
C5974 C5976 1.388 . S
C5975 C5974 1.366 . S
C5975 C5979 1.385 . S
C5976 H5957 0.951 . S
C5976 C5974 1.388 . S
C5976 C5977 1.366 . S
C5977 C5976 1.366 . S
C5977 C5978 1.414 . S
C5977 C5980 1.499 . S
C5978 H5958 0.950 . S
C5978 C5977 1.414 . S
C5978 C5979 1.374 . S
C5979 H5959 0.950 . S
C5979 C5975 1.385 . S
C5979 C5978 1.374 . S
C5980 C5977 1.499 . S
C5980 C5981 1.373 . S
C5980 C5982 1.389 . S
C5981 H5960 0.950 . S
C5981 C5980 1.373 . S
C5981 C5997 1.377 . S
C5982 C5980 1.389 . S
C5982 C5983 1.524 . S
C5982 C5996 1.377 . S
C5983 C5982 1.524 . S
C5983 C5984 1.397 . S
C5983 C5988 1.363 . S
C5984 H5961 0.950 . S
C5984 C5983 1.397 . S
C5984 C5985 1.334 . S
C5985 H5962 0.950 . S
C5985 C5984 1.334 . S
C5985 C5986 1.287 . S
C5986 C5985 1.287 . S
C5986 C5987 1.524 . S
C5986 H6005 0.913 . S
C5987 H5963 0.950 . S
C5987 C5986 1.524 . S
C5987 C5988 1.415 . S
C5988 H5964 0.950 . S
C5988 C5983 1.363 . S
C5988 C5987 1.415 . S
C5989 H5965 0.951 . S
C5989 C5990 1.366 . S
C5989 C5991 1.388 . S
C5990 C5989 1.366 . S
C5990 C5994 1.385 . S
C5991 H5966 0.951 . S
C5991 C5989 1.388 . S
C5991 C5992 1.366 . S
C5992 C5991 1.366 . S
C5992 C5993 1.414 . S
C5992 C5995 1.499 . S
C5993 H5967 0.950 . S
C5993 C5992 1.414 . S
C5993 C5994 1.374 . S
C5994 H5968 0.950 1_655 S
C5994 C5990 1.385 . S
C5994 C5993 1.374 . S
C5995 C5992 1.499 . S
C5995 C5996 1.373 . S
C5995 C5997 1.389 . S
C5996 H5969 0.950 . S
C5996 C5982 1.377 . S
C5996 C5995 1.373 . S
C5997 C5981 1.377 . S
C5997 C5995 1.389 . S
C5997 C5998 1.524 . S
C5998 C5997 1.524 . S
C5998 C5999 1.397 . S
C5998 C6003 1.363 . S
C5999 H5970 0.950 . S
C5999 C5998 1.397 . S
C5999 C6000 1.334 . S
C6000 H5971 0.950 . S
C6000 C5999 1.334 . S
C6000 C6001 1.287 . S
C6001 C6000 1.287 . S
C6001 C6002 1.524 . S
C6001 H6004 0.999 . S
C6002 H5972 0.950 . S
C6002 C6001 1.524 . S
C6002 C6003 1.415 . S
C6003 H5973 0.950 . S
C6003 C5998 1.363 . S
C6003 C6002 1.415 . S
H6004 C6001 0.999 . S
H6005 C5986 0.913 . S
H6006 C6024 0.951 . S
H6007 C6026 0.951 . S
H6008 C6028 0.950 . S
H6009 C6029 0.950 . S
H6010 C6031 0.950 . S
H6011 C6034 0.950 . S
H6012 C6035 0.950 . S
H6013 C6037 0.950 . S
H6014 C6038 0.950 . S
H6015 C6039 0.951 . S
H6016 C6041 0.951 . S
H6017 C6043 0.950 . S
H6018 C6044 0.950 . S
H6019 C6046 0.950 . S
H6020 C6049 0.950 . S
H6021 C6050 0.950 . S
H6022 C6052 0.950 . S
H6023 C6053 0.950 . S
C6024 H6006 0.951 . S
C6024 C6025 1.366 . S
C6024 C6026 1.388 . S
C6025 C6024 1.366 . S
C6025 C6029 1.385 . S
C6026 H6007 0.951 . S
C6026 C6024 1.388 . S
C6026 C6027 1.366 . S
C6027 C6026 1.366 . S
C6027 C6028 1.414 . S
C6027 C6030 1.499 . S
C6028 H6008 0.950 . S
C6028 C6027 1.414 . S
C6028 C6029 1.374 . S
C6029 H6009 0.950 . S
C6029 C6025 1.385 . S
C6029 C6028 1.374 . S
C6030 C6027 1.499 . S
C6030 C6031 1.373 . S
C6030 C6032 1.389 . S
C6031 H6010 0.950 . S
C6031 C6030 1.373 . S
C6031 C6047 1.377 . S
C6032 C6030 1.389 . S
C6032 C6033 1.524 . S
C6032 C6046 1.377 . S
C6033 C6032 1.524 . S
C6033 C6034 1.397 . S
C6033 C6038 1.363 . S
C6034 H6011 0.950 . S
C6034 C6033 1.397 . S
C6034 C6035 1.334 . S
C6035 H6012 0.950 . S
C6035 C6034 1.334 . S
C6035 C6036 1.287 . S
C6036 C6035 1.287 . S
C6036 C6037 1.524 . S
C6036 H6055 0.913 . S
C6037 H6013 0.950 . S
C6037 C6036 1.524 . S
C6037 C6038 1.415 . S
C6038 H6014 0.950 . S
C6038 C6033 1.363 . S
C6038 C6037 1.415 . S
C6039 H6015 0.951 . S
C6039 C6040 1.366 . S
C6039 C6041 1.388 . S
C6040 C6039 1.366 . S
C6040 C6044 1.385 . S
C6041 H6016 0.951 . S
C6041 C6039 1.388 . S
C6041 C6042 1.366 . S
C6042 C6041 1.366 . S
C6042 C6043 1.414 . S
C6042 C6045 1.499 . S
C6043 H6017 0.950 . S
C6043 C6042 1.414 . S
C6043 C6044 1.374 . S
C6044 H6018 0.950 . S
C6044 C6040 1.385 . S
C6044 C6043 1.374 . S
C6045 C6042 1.499 . S
C6045 C6046 1.373 . S
C6045 C6047 1.389 . S
C6046 H6019 0.950 . S
C6046 C6032 1.377 . S
C6046 C6045 1.373 . S
C6047 C6031 1.377 . S
C6047 C6045 1.389 . S
C6047 C6048 1.524 . S
C6048 C6047 1.524 . S
C6048 C6049 1.397 . S
C6048 C6053 1.363 . S
C6049 H6020 0.950 . S
C6049 C6048 1.397 . S
C6049 C6050 1.334 . S
C6050 H6021 0.950 . S
C6050 C6049 1.334 . S
C6050 C6051 1.287 . S
C6051 C6050 1.287 . S
C6051 C6052 1.524 . S
C6051 H6054 0.999 . S
C6052 H6022 0.950 . S
C6052 C6051 1.524 . S
C6052 C6053 1.415 . S
C6053 H6023 0.950 . S
C6053 C6048 1.363 . S
C6053 C6052 1.415 . S
H6054 C6051 0.999 . S
H6055 C6036 0.913 . S
H6056 C6074 0.951 . S
H6057 C6076 0.951 . S
H6058 C6078 0.950 . S
H6059 C6079 0.950 . S
H6060 C6081 0.950 . S
H6061 C6084 0.950 . S
H6062 C6085 0.950 . S
H6063 C6087 0.950 . S
H6064 C6088 0.950 . S
H6065 C6089 0.951 . S
H6066 C6091 0.951 . S
H6067 C6093 0.950 . S
H6068 C6094 0.950 . S
H6069 C6096 0.950 . S
H6070 C6099 0.950 . S
H6071 C6100 0.950 . S
H6072 C6102 0.950 . S
H6073 C6103 0.950 . S
C6074 H6056 0.951 . S
C6074 C6075 1.366 . S
C6074 C6076 1.388 . S
C6075 C6074 1.366 . S
C6075 C6079 1.385 . S
C6076 H6057 0.951 . S
C6076 C6074 1.388 . S
C6076 C6077 1.366 . S
C6077 C6076 1.366 . S
C6077 C6078 1.414 . S
C6077 C6080 1.499 . S
C6078 H6058 0.950 . S
C6078 C6077 1.414 . S
C6078 C6079 1.374 . S
C6079 H6059 0.950 . S
C6079 C6075 1.385 . S
C6079 C6078 1.374 . S
C6080 C6077 1.499 . S
C6080 C6081 1.373 . S
C6080 C6082 1.389 . S
C6081 H6060 0.950 . S
C6081 C6080 1.373 . S
C6081 C6097 1.377 . S
C6082 C6080 1.389 . S
C6082 C6083 1.524 . S
C6082 C6096 1.377 . S
C6083 C6082 1.524 . S
C6083 C6084 1.397 . S
C6083 C6088 1.363 . S
C6084 H6061 0.950 . S
C6084 C6083 1.397 . S
C6084 C6085 1.334 . S
C6085 H6062 0.950 . S
C6085 C6084 1.334 . S
C6085 C6086 1.287 . S
C6086 C6085 1.287 . S
C6086 C6087 1.524 . S
C6086 H6105 0.913 . S
C6087 H6063 0.950 . S
C6087 C6086 1.524 . S
C6087 C6088 1.415 . S
C6088 H6064 0.950 . S
C6088 C6083 1.363 . S
C6088 C6087 1.415 . S
C6089 H6065 0.951 . S
C6089 C6090 1.366 . S
C6089 C6091 1.388 . S
C6090 C6089 1.366 . S
C6090 C6094 1.385 . S
C6091 H6066 0.951 . S
C6091 C6089 1.388 . S
C6091 C6092 1.366 . S
C6092 C6091 1.366 . S
C6092 C6093 1.414 . S
C6092 C6095 1.499 . S
C6093 H6067 0.950 . S
C6093 C6092 1.414 . S
C6093 C6094 1.374 . S
C6094 H6068 0.950 . S
C6094 C6090 1.385 . S
C6094 C6093 1.374 . S
C6095 C6092 1.499 . S
C6095 C6096 1.373 . S
C6095 C6097 1.389 . S
C6096 H6069 0.950 . S
C6096 C6082 1.377 . S
C6096 C6095 1.373 . S
C6097 C6081 1.377 . S
C6097 C6095 1.389 . S
C6097 C6098 1.524 . S
C6098 C6097 1.524 . S
C6098 C6099 1.397 . S
C6098 C6103 1.363 . S
C6099 H6070 0.950 . S
C6099 C6098 1.397 . S
C6099 C6100 1.334 . S
C6100 H6071 0.950 . S
C6100 C6099 1.334 . S
C6100 C6101 1.287 . S
C6101 C6100 1.287 . S
C6101 C6102 1.524 . S
C6101 H6104 0.999 . S
C6102 H6072 0.950 . S
C6102 C6101 1.524 . S
C6102 C6103 1.415 . S
C6103 H6073 0.950 . S
C6103 C6098 1.363 . S
C6103 C6102 1.415 . S
H6104 C6101 0.999 . S
H6105 C6086 0.913 . S
H6106 C6124 0.951 . S
H6107 C6126 0.951 . S
H6108 C6128 0.950 . S
H6109 C6129 0.950 . S
H6110 C6131 0.950 . S
H6111 C6134 0.950 . S
H6112 C6135 0.950 . S
H6113 C6137 0.950 . S
H6114 C6138 0.950 . S
H6115 C6139 0.951 . S
H6116 C6141 0.951 . S
H6117 C6143 0.950 . S
H6118 C6144 0.950 1_455 S
H6119 C6146 0.950 . S
H6120 C6149 0.950 . S
H6121 C6150 0.950 . S
H6122 C6152 0.950 1_545 S
H6123 C6153 0.950 . S
C6124 H6106 0.951 . S
C6124 C6125 1.366 . S
C6124 C6126 1.388 . S
C6125 C6124 1.366 . S
C6125 C6129 1.385 . S
C6126 H6107 0.951 . S
C6126 C6124 1.388 . S
C6126 C6127 1.366 . S
C6127 C6126 1.366 . S
C6127 C6128 1.414 . S
C6127 C6130 1.499 . S
C6128 H6108 0.950 . S
C6128 C6127 1.414 . S
C6128 C6129 1.374 . S
C6129 H6109 0.950 . S
C6129 C6125 1.385 . S
C6129 C6128 1.374 . S
C6130 C6127 1.499 . S
C6130 C6131 1.373 . S
C6130 C6132 1.389 . S
C6131 H6110 0.950 . S
C6131 C6130 1.373 . S
C6131 C6147 1.377 . S
C6132 C6130 1.389 . S
C6132 C6133 1.524 . S
C6132 C6146 1.377 . S
C6133 C6132 1.524 . S
C6133 C6134 1.397 . S
C6133 C6138 1.363 . S
C6134 H6111 0.950 . S
C6134 C6133 1.397 . S
C6134 C6135 1.334 . S
C6135 H6112 0.950 . S
C6135 C6134 1.334 . S
C6135 C6136 1.287 . S
C6136 C6135 1.287 . S
C6136 C6137 1.524 . S
C6136 H6155 0.913 . S
C6137 H6113 0.950 . S
C6137 C6136 1.524 . S
C6137 C6138 1.415 . S
C6138 H6114 0.950 . S
C6138 C6133 1.363 . S
C6138 C6137 1.415 . S
C6139 H6115 0.951 . S
C6139 C6140 1.366 1_545 S
C6139 C6141 1.388 1_545 S
C6140 C6139 1.366 1_565 S
C6140 C6144 1.385 . S
C6141 H6116 0.951 . S
C6141 C6139 1.388 1_565 S
C6141 C6142 1.366 . S
C6142 C6141 1.366 . S
C6142 C6143 1.414 . S
C6142 C6145 1.499 . S
C6143 H6117 0.950 . S
C6143 C6142 1.414 . S
C6143 C6144 1.374 . S
C6144 H6118 0.950 1_655 S
C6144 C6140 1.385 . S
C6144 C6143 1.374 . S
C6145 C6142 1.499 . S
C6145 C6146 1.373 . S
C6145 C6147 1.389 . S
C6146 H6119 0.950 . S
C6146 C6132 1.377 . S
C6146 C6145 1.373 . S
C6147 C6131 1.377 . S
C6147 C6145 1.389 . S
C6147 C6148 1.524 . S
C6148 C6147 1.524 . S
C6148 C6149 1.397 . S
C6148 C6153 1.363 . S
C6149 H6120 0.950 . S
C6149 C6148 1.397 . S
C6149 C6150 1.334 . S
C6150 H6121 0.950 . S
C6150 C6149 1.334 . S
C6150 C6151 1.287 . S
C6151 C6150 1.287 . S
C6151 C6152 1.524 . S
C6151 H6154 0.999 . S
C6152 H6122 0.950 1_565 S
C6152 C6151 1.524 . S
C6152 C6153 1.415 . S
C6153 H6123 0.950 . S
C6153 C6148 1.363 . S
C6153 C6152 1.415 . S
H6154 C6151 0.999 . S
H6155 C6136 0.913 . S
H6156 C6174 0.951 . S
H6157 C6176 0.951 . S
H6158 C6178 0.950 . S
H6159 C6179 0.950 . S
H6160 C6181 0.950 . S
H6161 C6184 0.950 . S
H6162 C6185 0.950 . S
H6163 C6187 0.950 . S
H6164 C6188 0.950 . S
H6165 C6189 0.951 . S
H6166 C6191 0.951 . S
H6167 C6193 0.950 . S
H6168 C6194 0.950 . S
H6169 C6196 0.950 . S
H6170 C6199 0.950 . S
H6171 C6200 0.950 . S
H6172 C6202 0.950 . S
H6173 C6203 0.950 . S
C6174 H6156 0.951 . S
C6174 C6175 1.366 . S
C6174 C6176 1.388 . S
C6175 C6174 1.366 . S
C6175 C6179 1.385 . S
C6176 H6157 0.951 . S
C6176 C6174 1.388 . S
C6176 C6177 1.366 . S
C6177 C6176 1.366 . S
C6177 C6178 1.414 . S
C6177 C6180 1.499 . S
C6178 H6158 0.950 . S
C6178 C6177 1.414 . S
C6178 C6179 1.374 . S
C6179 H6159 0.950 . S
C6179 C6175 1.385 . S
C6179 C6178 1.374 . S
C6180 C6177 1.499 . S
C6180 C6181 1.373 . S
C6180 C6182 1.389 . S
C6181 H6160 0.950 . S
C6181 C6180 1.373 . S
C6181 C6197 1.377 . S
C6182 C6180 1.389 . S
C6182 C6183 1.524 . S
C6182 C6196 1.377 . S
C6183 C6182 1.524 . S
C6183 C6184 1.397 . S
C6183 C6188 1.363 . S
C6184 H6161 0.950 . S
C6184 C6183 1.397 . S
C6184 C6185 1.334 . S
C6185 H6162 0.950 . S
C6185 C6184 1.334 . S
C6185 C6186 1.287 . S
C6186 C6185 1.287 . S
C6186 C6187 1.524 . S
C6186 H6205 0.913 . S
C6187 H6163 0.950 . S
C6187 C6186 1.524 . S
C6187 C6188 1.415 . S
C6188 H6164 0.950 . S
C6188 C6183 1.363 . S
C6188 C6187 1.415 . S
C6189 H6165 0.951 . S
C6189 C6190 1.366 . S
C6189 C6191 1.388 . S
C6190 C6189 1.366 . S
C6190 C6194 1.385 . S
C6191 H6166 0.951 . S
C6191 C6189 1.388 . S
C6191 C6192 1.366 . S
C6192 C6191 1.366 . S
C6192 C6193 1.414 . S
C6192 C6195 1.499 . S
C6193 H6167 0.950 . S
C6193 C6192 1.414 . S
C6193 C6194 1.374 . S
C6194 H6168 0.950 . S
C6194 C6190 1.385 . S
C6194 C6193 1.374 . S
C6195 C6192 1.499 . S
C6195 C6196 1.373 . S
C6195 C6197 1.389 . S
C6196 H6169 0.950 . S
C6196 C6182 1.377 . S
C6196 C6195 1.373 . S
C6197 C6181 1.377 . S
C6197 C6195 1.389 . S
C6197 C6198 1.524 . S
C6198 C6197 1.524 . S
C6198 C6199 1.397 . S
C6198 C6203 1.363 . S
C6199 H6170 0.950 . S
C6199 C6198 1.397 . S
C6199 C6200 1.334 . S
C6200 H6171 0.950 . S
C6200 C6199 1.334 . S
C6200 C6201 1.287 . S
C6201 C6200 1.287 . S
C6201 C6202 1.524 . S
C6201 H6204 0.999 . S
C6202 H6172 0.950 . S
C6202 C6201 1.524 . S
C6202 C6203 1.415 . S
C6203 H6173 0.950 . S
C6203 C6198 1.363 . S
C6203 C6202 1.415 . S
H6204 C6201 0.999 . S
H6205 C6186 0.913 . S
H6206 C6224 0.951 1_556 S
H6207 C6226 0.951 1_556 S
H6208 C6228 0.950 . S
H6209 C6229 0.950 . S
H6210 C6231 0.950 . S
H6211 C6234 0.950 . S
H6212 C6235 0.950 . S
H6213 C6237 0.950 . S
H6214 C6238 0.950 . S
H6215 C6239 0.951 . S
H6216 C6241 0.951 . S
H6217 C6243 0.950 . S
H6218 C6244 0.950 . S
H6219 C6246 0.950 . S
H6220 C6249 0.950 . S
H6221 C6250 0.950 . S
H6222 C6252 0.950 . S
H6223 C6253 0.950 . S
C6224 H6206 0.951 1_554 S
C6224 C6225 1.366 . S
C6224 C6226 1.388 . S
C6225 C6224 1.366 . S
C6225 C6229 1.385 . S
C6226 H6207 0.951 1_554 S
C6226 C6224 1.388 . S
C6226 C6227 1.366 . S
C6227 C6226 1.366 . S
C6227 C6228 1.414 . S
C6227 C6230 1.499 . S
C6228 H6208 0.950 . S
C6228 C6227 1.414 . S
C6228 C6229 1.374 . S
C6229 H6209 0.950 . S
C6229 C6225 1.385 . S
C6229 C6228 1.374 . S
C6230 C6227 1.499 . S
C6230 C6231 1.373 . S
C6230 C6232 1.389 1_554 S
C6231 H6210 0.950 . S
C6231 C6230 1.373 . S
C6231 C6247 1.377 . S
C6232 C6230 1.389 1_556 S
C6232 C6233 1.524 . S
C6232 C6246 1.377 . S
C6233 C6232 1.524 . S
C6233 C6234 1.397 . S
C6233 C6238 1.363 . S
C6234 H6211 0.950 . S
C6234 C6233 1.397 . S
C6234 C6235 1.334 . S
C6235 H6212 0.950 . S
C6235 C6234 1.334 . S
C6235 C6236 1.287 . S
C6236 C6235 1.287 . S
C6236 C6237 1.524 . S
C6236 H6255 0.913 . S
C6237 H6213 0.950 . S
C6237 C6236 1.524 . S
C6237 C6238 1.415 . S
C6238 H6214 0.950 . S
C6238 C6233 1.363 . S
C6238 C6237 1.415 . S
C6239 H6215 0.951 . S
C6239 C6240 1.366 . S
C6239 C6241 1.388 . S
C6240 C6239 1.366 . S
C6240 C6244 1.385 1_554 S
C6241 H6216 0.951 . S
C6241 C6239 1.388 . S
C6241 C6242 1.366 . S
C6242 C6241 1.366 . S
C6242 C6243 1.414 1_554 S
C6242 C6245 1.499 . S
C6243 H6217 0.950 . S
C6243 C6242 1.414 1_556 S
C6243 C6244 1.374 . S
C6244 H6218 0.950 . S
C6244 C6240 1.385 1_556 S
C6244 C6243 1.374 . S
C6245 C6242 1.499 . S
C6245 C6246 1.373 1_554 S
C6245 C6247 1.389 . S
C6246 H6219 0.950 . S
C6246 C6232 1.377 . S
C6246 C6245 1.373 1_556 S
C6247 C6231 1.377 . S
C6247 C6245 1.389 . S
C6247 C6248 1.524 . S
C6248 C6247 1.524 . S
C6248 C6249 1.397 . S
C6248 C6253 1.363 . S
C6249 H6220 0.950 . S
C6249 C6248 1.397 . S
C6249 C6250 1.334 . S
C6250 H6221 0.950 . S
C6250 C6249 1.334 . S
C6250 C6251 1.287 . S
C6251 C6250 1.287 . S
C6251 C6252 1.524 . S
C6251 H6254 0.999 . S
C6252 H6222 0.950 . S
C6252 C6251 1.524 . S
C6252 C6253 1.415 . S
C6253 H6223 0.950 . S
C6253 C6248 1.363 . S
C6253 C6252 1.415 . S
H6254 C6251 0.999 . S
H6255 C6236 0.913 . S
H6256 C6274 0.951 . S
H6257 C6276 0.951 . S
H6258 C6278 0.950 . S
H6259 C6279 0.950 . S
H6260 C6281 0.950 . S
H6261 C6284 0.950 . S
H6262 C6285 0.950 . S
H6263 C6287 0.950 . S
H6264 C6288 0.950 . S
H6265 C6289 0.951 . S
H6266 C6291 0.951 . S
H6267 C6293 0.950 . S
H6268 C6294 0.950 . S
H6269 C6296 0.950 . S
H6270 C6299 0.950 . S
H6271 C6300 0.950 . S
H6272 C6302 0.950 . S
H6273 C6303 0.950 . S
C6274 H6256 0.951 . S
C6274 C6275 1.366 . S
C6274 C6276 1.388 . S
C6275 C6274 1.366 . S
C6275 C6279 1.385 . S
C6276 H6257 0.951 . S
C6276 C6274 1.388 . S
C6276 C6277 1.366 . S
C6277 C6276 1.366 . S
C6277 C6278 1.414 . S
C6277 C6280 1.499 . S
C6278 H6258 0.950 . S
C6278 C6277 1.414 . S
C6278 C6279 1.374 . S
C6279 H6259 0.950 . S
C6279 C6275 1.385 . S
C6279 C6278 1.374 . S
C6280 C6277 1.499 . S
C6280 C6281 1.373 . S
C6280 C6282 1.389 . S
C6281 H6260 0.950 . S
C6281 C6280 1.373 . S
C6281 C6297 1.377 . S
C6282 C6280 1.389 . S
C6282 C6283 1.524 . S
C6282 C6296 1.377 . S
C6283 C6282 1.524 . S
C6283 C6284 1.397 . S
C6283 C6288 1.363 . S
C6284 H6261 0.950 . S
C6284 C6283 1.397 . S
C6284 C6285 1.334 . S
C6285 H6262 0.950 . S
C6285 C6284 1.334 . S
C6285 C6286 1.287 . S
C6286 C6285 1.287 . S
C6286 C6287 1.524 . S
C6286 H6305 0.913 . S
C6287 H6263 0.950 . S
C6287 C6286 1.524 . S
C6287 C6288 1.415 . S
C6288 H6264 0.950 . S
C6288 C6283 1.363 . S
C6288 C6287 1.415 . S
C6289 H6265 0.951 . S
C6289 C6290 1.366 . S
C6289 C6291 1.388 . S
C6290 C6289 1.366 . S
C6290 C6294 1.385 . S
C6291 H6266 0.951 . S
C6291 C6289 1.388 . S
C6291 C6292 1.366 . S
C6292 C6291 1.366 . S
C6292 C6293 1.414 . S
C6292 C6295 1.499 . S
C6293 H6267 0.950 . S
C6293 C6292 1.414 . S
C6293 C6294 1.374 . S
C6294 H6268 0.950 . S
C6294 C6290 1.385 . S
C6294 C6293 1.374 . S
C6295 C6292 1.499 . S
C6295 C6296 1.373 . S
C6295 C6297 1.389 . S
C6296 H6269 0.950 . S
C6296 C6282 1.377 . S
C6296 C6295 1.373 . S
C6297 C6281 1.377 . S
C6297 C6295 1.389 . S
C6297 C6298 1.524 . S
C6298 C6297 1.524 . S
C6298 C6299 1.397 . S
C6298 C6303 1.363 . S
C6299 H6270 0.950 . S
C6299 C6298 1.397 . S
C6299 C6300 1.334 . S
C6300 H6271 0.950 . S
C6300 C6299 1.334 . S
C6300 C6301 1.287 . S
C6301 C6300 1.287 . S
C6301 C6302 1.524 . S
C6301 H6304 0.999 . S
C6302 H6272 0.950 . S
C6302 C6301 1.524 . S
C6302 C6303 1.415 . S
C6303 H6273 0.950 . S
C6303 C6298 1.363 . S
C6303 C6302 1.415 . S
H6304 C6301 0.999 . S
H6305 C6286 0.913 . S
H6306 C6324 0.951 . S
H6307 C6326 0.951 . S
H6308 C6328 0.950 . S
H6309 C6329 0.950 . S
H6310 C6331 0.950 . S
H6311 C6334 0.950 . S
H6312 C6335 0.950 . S
H6313 C6337 0.950 . S
H6314 C6338 0.950 . S
H6315 C6339 0.951 . S
H6316 C6341 0.951 . S
H6317 C6343 0.950 1_556 S
H6318 C6344 0.950 1_556 S
H6319 C6346 0.950 . S
H6320 C6349 0.950 . S
H6321 C6350 0.950 . S
H6322 C6352 0.950 . S
H6323 C6353 0.950 . S
C6324 H6306 0.951 . S
C6324 C6325 1.366 . S
C6324 C6326 1.388 . S
C6325 C6324 1.366 . S
C6325 C6329 1.385 . S
C6326 H6307 0.951 . S
C6326 C6324 1.388 . S
C6326 C6327 1.366 . S
C6327 C6326 1.366 . S
C6327 C6328 1.414 . S
C6327 C6330 1.499 . S
C6328 H6308 0.950 . S
C6328 C6327 1.414 . S
C6328 C6329 1.374 . S
C6329 H6309 0.950 . S
C6329 C6325 1.385 . S
C6329 C6328 1.374 . S
C6330 C6327 1.499 . S
C6330 C6331 1.373 . S
C6330 C6332 1.389 . S
C6331 H6310 0.950 . S
C6331 C6330 1.373 . S
C6331 C6347 1.377 . S
C6332 C6330 1.389 . S
C6332 C6333 1.524 . S
C6332 C6346 1.377 . S
C6333 C6332 1.524 . S
C6333 C6334 1.397 . S
C6333 C6338 1.363 1_554 S
C6334 H6311 0.950 . S
C6334 C6333 1.397 . S
C6334 C6335 1.334 . S
C6335 H6312 0.950 . S
C6335 C6334 1.334 . S
C6335 C6336 1.287 . S
C6336 C6335 1.287 . S
C6336 C6337 1.524 1_554 S
C6336 H6355 0.887 1_554 S
C6337 H6313 0.950 . S
C6337 C6336 1.524 1_556 S
C6337 C6338 1.415 . S
C6338 H6314 0.950 . S
C6338 C6333 1.363 1_556 S
C6338 C6337 1.415 . S
C6339 H6315 0.951 . S
C6339 C6340 1.366 . S
C6339 C6341 1.388 . S
C6340 C6339 1.366 . S
C6340 C6344 1.385 . S
C6341 H6316 0.951 . S
C6341 C6339 1.388 . S
C6341 C6342 1.366 . S
C6342 C6341 1.366 . S
C6342 C6343 1.414 . S
C6342 C6345 1.499 . S
C6343 H6317 0.950 1_554 S
C6343 C6342 1.414 . S
C6343 C6344 1.374 . S
C6344 H6318 0.950 1_554 S
C6344 C6340 1.385 . S
C6344 C6343 1.374 . S
C6345 C6342 1.499 . S
C6345 C6346 1.373 . S
C6345 C6347 1.389 . S
C6346 H6319 0.950 . S
C6346 C6332 1.377 . S
C6346 C6345 1.373 . S
C6347 C6331 1.377 . S
C6347 C6345 1.389 . S
C6347 C6348 1.524 . S
C6348 C6347 1.524 . S
C6348 C6349 1.397 . S
C6348 C6353 1.363 . S
C6349 H6320 0.950 . S
C6349 C6348 1.397 . S
C6349 C6350 1.334 . S
C6350 H6321 0.950 . S
C6350 C6349 1.334 . S
C6350 C6351 1.287 . S
C6351 C6350 1.287 . S
C6351 C6352 1.524 . S
C6351 H6354 0.999 . S
C6352 H6322 0.950 . S
C6352 C6351 1.524 . S
C6352 C6353 1.415 . S
C6353 H6323 0.950 . S
C6353 C6348 1.363 . S
C6353 C6352 1.415 . S
H6354 C6351 0.999 . S
H6355 C6336 0.887 1_556 S
H6356 C6374 0.951 . S
H6357 C6376 0.951 . S
H6358 C6378 0.950 . S
H6359 C6379 0.950 . S
H6360 C6381 0.950 . S
H6361 C6384 0.950 . S
H6362 C6385 0.950 . S
H6363 C6387 0.950 . S
H6364 C6388 0.950 . S
H6365 C6389 0.951 . S
H6366 C6391 0.951 . S
H6367 C6393 0.950 . S
H6368 C6394 0.950 . S
H6369 C6396 0.950 . S
H6370 C6399 0.950 . S
H6371 C6400 0.950 . S
H6372 C6402 0.950 . S
H6373 C6403 0.950 . S
C6374 H6356 0.951 . S
C6374 C6375 1.366 . S
C6374 C6376 1.388 . S
C6375 C6374 1.366 . S
C6375 C6379 1.385 . S
C6376 H6357 0.951 . S
C6376 C6374 1.388 . S
C6376 C6377 1.366 . S
C6377 C6376 1.366 . S
C6377 C6378 1.414 . S
C6377 C6380 1.499 . S
C6378 H6358 0.950 . S
C6378 C6377 1.414 . S
C6378 C6379 1.374 . S
C6379 H6359 0.950 . S
C6379 C6375 1.385 . S
C6379 C6378 1.374 . S
C6380 C6377 1.499 . S
C6380 C6381 1.373 . S
C6380 C6382 1.389 . S
C6381 H6360 0.950 . S
C6381 C6380 1.373 . S
C6381 C6397 1.377 . S
C6382 C6380 1.389 . S
C6382 C6383 1.524 . S
C6382 C6396 1.377 . S
C6383 C6382 1.524 . S
C6383 C6384 1.397 . S
C6383 C6388 1.363 . S
C6384 H6361 0.950 . S
C6384 C6383 1.397 . S
C6384 C6385 1.334 . S
C6385 H6362 0.950 . S
C6385 C6384 1.334 . S
C6385 C6386 1.287 . S
C6386 C6385 1.287 . S
C6386 C6387 1.524 . S
C6386 H6405 0.913 . S
C6387 H6363 0.950 . S
C6387 C6386 1.524 . S
C6387 C6388 1.415 . S
C6388 H6364 0.950 . S
C6388 C6383 1.363 . S
C6388 C6387 1.415 . S
C6389 H6365 0.951 . S
C6389 C6390 1.366 . S
C6389 C6391 1.388 . S
C6390 C6389 1.366 . S
C6390 C6394 1.385 . S
C6391 H6366 0.951 . S
C6391 C6389 1.388 . S
C6391 C6392 1.366 . S
C6392 C6391 1.366 . S
C6392 C6393 1.414 . S
C6392 C6395 1.499 . S
C6393 H6367 0.950 . S
C6393 C6392 1.414 . S
C6393 C6394 1.374 . S
C6394 H6368 0.950 . S
C6394 C6390 1.385 . S
C6394 C6393 1.374 . S
C6395 C6392 1.499 . S
C6395 C6396 1.373 . S
C6395 C6397 1.389 . S
C6396 H6369 0.950 . S
C6396 C6382 1.377 . S
C6396 C6395 1.373 . S
C6397 C6381 1.377 . S
C6397 C6395 1.389 . S
C6397 C6398 1.524 . S
C6398 C6397 1.524 . S
C6398 C6399 1.397 . S
C6398 C6403 1.363 . S
C6399 H6370 0.950 . S
C6399 C6398 1.397 . S
C6399 C6400 1.334 . S
C6400 H6371 0.950 . S
C6400 C6399 1.334 . S
C6400 C6401 1.287 . S
C6401 C6400 1.287 . S
C6401 C6402 1.524 . S
C6401 H6404 0.999 . S
C6402 H6372 0.950 . S
C6402 C6401 1.524 . S
C6402 C6403 1.415 . S
C6403 H6373 0.950 . S
C6403 C6398 1.363 . S
C6403 C6402 1.415 . S
H6404 C6401 0.999 . S
H6405 C6386 0.913 . S
H6406 C6424 0.951 . S
H6407 C6426 0.951 . S
H6408 C6428 0.950 . S
H6409 C6429 0.950 . S
H6410 C6431 0.950 . S
H6411 C6434 0.950 . S
H6412 C6435 0.950 . S
H6413 C6437 0.950 . S
H6414 C6438 0.950 . S
H6415 C6439 0.951 . S
H6416 C6441 0.951 . S
H6417 C6443 0.950 . S
H6418 C6444 0.950 . S
H6419 C6446 0.950 . S
H6420 C6449 0.950 . S
H6421 C6450 0.950 . S
H6422 C6452 0.950 . S
H6423 C6453 0.950 . S
C6424 H6406 0.951 . S
C6424 C6425 1.366 . S
C6424 C6426 1.388 . S
C6425 C6424 1.366 . S
C6425 C6429 1.385 . S
C6426 H6407 0.951 . S
C6426 C6424 1.388 . S
C6426 C6427 1.366 . S
C6427 C6426 1.366 . S
C6427 C6428 1.414 . S
C6427 C6430 1.499 . S
C6428 H6408 0.950 . S
C6428 C6427 1.414 . S
C6428 C6429 1.374 . S
C6429 H6409 0.950 . S
C6429 C6425 1.385 . S
C6429 C6428 1.374 . S
C6430 C6427 1.499 . S
C6430 C6431 1.373 . S
C6430 C6432 1.389 . S
C6431 H6410 0.950 . S
C6431 C6430 1.373 . S
C6431 C6447 1.377 . S
C6432 C6430 1.389 . S
C6432 C6433 1.524 . S
C6432 C6446 1.377 . S
C6433 C6432 1.524 . S
C6433 C6434 1.397 . S
C6433 C6438 1.363 . S
C6434 H6411 0.950 . S
C6434 C6433 1.397 . S
C6434 C6435 1.334 . S
C6435 H6412 0.950 . S
C6435 C6434 1.334 . S
C6435 C6436 1.287 . S
C6436 C6435 1.287 . S
C6436 C6437 1.524 . S
C6436 H6455 0.913 . S
C6437 H6413 0.950 . S
C6437 C6436 1.524 . S
C6437 C6438 1.415 . S
C6438 H6414 0.950 . S
C6438 C6433 1.363 . S
C6438 C6437 1.415 . S
C6439 H6415 0.951 . S
C6439 C6440 1.366 . S
C6439 C6441 1.388 . S
C6440 C6439 1.366 . S
C6440 C6444 1.385 . S
C6441 H6416 0.951 . S
C6441 C6439 1.388 . S
C6441 C6442 1.366 . S
C6442 C6441 1.366 . S
C6442 C6443 1.414 . S
C6442 C6445 1.499 . S
C6443 H6417 0.950 . S
C6443 C6442 1.414 . S
C6443 C6444 1.374 . S
C6444 H6418 0.950 . S
C6444 C6440 1.385 . S
C6444 C6443 1.374 . S
C6445 C6442 1.499 . S
C6445 C6446 1.373 . S
C6445 C6447 1.389 . S
C6446 H6419 0.950 . S
C6446 C6432 1.377 . S
C6446 C6445 1.373 . S
C6447 C6431 1.377 . S
C6447 C6445 1.389 . S
C6447 C6448 1.524 . S
C6448 C6447 1.524 . S
C6448 C6449 1.397 . S
C6448 C6453 1.363 . S
C6449 H6420 0.950 . S
C6449 C6448 1.397 . S
C6449 C6450 1.334 . S
C6450 H6421 0.950 . S
C6450 C6449 1.334 . S
C6450 C6451 1.287 . S
C6451 C6450 1.287 . S
C6451 C6452 1.524 . S
C6451 H6454 0.999 . S
C6452 H6422 0.950 . S
C6452 C6451 1.524 . S
C6452 C6453 1.415 . S
C6453 H6423 0.950 . S
C6453 C6448 1.363 . S
C6453 C6452 1.415 . S
H6454 C6451 0.999 . S
H6455 C6436 0.913 . S
C1675 C101 1.485 . S
C1690 C379 1.342 . S
C1725 C57 2.133 . S
C1740 C462 2.088 . S
C1775 C70 1.225 . S
C1790 C547 1.134 . S
C1840 C627 1.544 . S
C1825 C82 1.660 . S
C1875 C23 1.616 . S
C1890 C711 1.565 . S
C1940 C804 0.804 . S
C1925 C29 0.822 . S
C1990 C882 0.547 . S
C1975 C49 0.544 . S
C2025 C10 1.283 . S
C2040 C967 1.122 . S
C2090 C378 1.817 . S
C2075 C218 1.915 . S
C2125 C226 0.554 . S
C2140 C459 0.597 . S
C2190 C546 1.168 . S
C2175 C251 1.207 . S
C2240 C631 1.324 . S
C2225 C159 1.438 1_556 S
C2275 C211 1.962 . S
C2290 C715 1.780 . S
C2340 C807 1.020 . S
C2325 C225 1.094 . S
C2390 C879 0.704 . S
C2375 C252 0.691 . S
C2440 C966 1.255 . S
C2425 C166 1.366 . S
C2490 C375 1.435 . S
C2475 C147 1.525 . S
C2525 C263 1.911 . S
C2540 C1050 1.843 1_556 S
C2590 C1124 2.064 . S
C2575 C309 2.261 . S
C2640 C1219 0.595 1_655 S
C2625 C291 0.149 . S
C2675 C108 0.787 . S
C2690 C963 0.790 . S
C2725 C121 1.449 . S
C2740 C543 1.411 . S
C2775 C302 2.241 . S
C2790 C1302 2.155 . S
C2840 C1387 0.641 . S
C2825 C276 0.553 . S
C2890 C368 1.679 1_565 S
C2875 C55 1.784 . S
C2940 C1395 2.374 . S
C2925 C96 2.427 . S
C2975 C88 1.683 . S
C2990 C536 1.595 . S
C3025 C75 1.947 . S
C3040 C1308 1.783 . S
C3090 C720 1.656 . S
C3075 C4 1.752 . S
C3125 C44 1.157 . S
C3140 C1131 1.053 . S
C3190 C891 1.009 . S
C3175 C31 1.012 . S
C3240 C1460 1.416 . S
C3225 C18 1.523 . S
C3290 C387 2.165 . S
C3275 C133 2.266 . S
C3340 C1392 0.790 . S
C3325 C296 0.806 . S
C3375 C107 1.445 . S
C3390 C555 1.396 . S
C3425 C264 1.856 . S
C3440 C1292 1.746 . S
C3475 C140 2.248 . S
C3490 C704 2.109 . S
C3540 C1134 1.240 . S
C3525 C289 1.325 . S
C3575 C114 0.992 . S
C3590 C888 0.921 . S
C3625 C265 1.729 . S
C3640 C1479 1.629 . S
C3675 C179 1.695 . S
C3690 C384 1.554 . S
C3725 C161 2.232 . S
C3740 C1059 2.148 . S
C3775 C244 2.571 . S
C3790 C799 2.412 . S
C3825 C224 0.710 . S
C3840 C1208 0.717 . S
C3890 C1476 0.791 . S
C3875 C257 0.743 1_565 S
C3925 C199 1.619 . S
C3940 C552 1.521 . S
C3990 C639 2.463 . S
C3975 C237 2.564 . S
C4040 C452 0.939 . S
C4025 C185 0.976 . S
C4075 C69 1.486 . S
C4090 C1555 1.344 . S
C4140 C1386 2.087 . S
C4125 C83 2.132 . S
C4175 C94 1.227 . S
C4190 C1639 1.137 . S
C4225 C56 1.660 . S
C4240 C1299 1.543 . S
C4275 C42 1.631 . S
C4290 C1047 1.575 . S
C4340 C1140 0.806 . S
C4325 C3 0.823 . S
C4390 C1218 0.552 . S
C4375 C16 0.554 . S
C4440 C1471 1.120 . S
C4425 C36 1.283 . S
C4490 C1554 1.818 . S
C4475 C238 1.915 . S
C4525 C174 0.554 . S
C4540 C1383 0.595 . S
C4590 C1638 1.168 . S
C4575 C186 1.207 . S
C4640 C1303 1.324 . S
C4625 C198 1.438 . S
C4690 C1051 1.781 . S
C4675 C239 1.964 . S
C4725 C173 1.093 . S
C4740 C1143 1.018 . S
C4790 C1215 0.703 . S
C4775 C187 0.693 . S
C4825 C205 1.366 . S
C4840 C1470 1.254 . S
C4890 C1551 1.434 . S
C4875 C290 1.523 . S
C4925 C122 1.913 . S
C4940 C714 1.845 . S
C4990 C788 2.072 . S
C4975 C134 2.274 . S
C5040 C883 0.595 . S
C5025 C148 0.149 . S
C5090 C1467 0.785 . S
C5075 C283 0.785 . S
C5125 C270 1.447 . S
C5140 C1635 1.407 . S
C5190 C630 2.153 . S
C5175 C135 2.233 . S
C5240 C463 0.643 . S
C5225 C109 0.551 . S
C5275 C81 1.785 . S
C5290 C1544 1.678 . S
C5340 C471 2.373 . S
C5325 C68 2.425 . S
C5375 C62 1.683 . S
C5390 C1628 1.595 . S
C5425 C95 1.946 . S
C5440 C636 1.782 . S
C5475 C30 1.751 . S
C5490 C1056 1.657 . S
C5540 C795 1.042 . S
C5525 C17 1.147 . S
C5575 C5 1.012 . S
C5590 C1227 1.011 . S
C5625 C43 1.516 . S
C5640 C956 1.407 . S
C5690 C1563 2.165 . S
C5675 C304 2.266 . S
C5725 C153 0.805 . S
C5740 C468 0.786 . S
C5790 C1647 1.397 . S
C5775 C278 1.445 . S
C5825 C127 1.856 . S
C5840 C620 1.750 . S
C5875 C303 2.241 . S
C5890 C1040 2.104 . S
C5940 C798 1.236 . S
C5925 C146 1.322 . S
C5975 C277 0.989 . S
C5990 C1224 0.920 . S
C6040 C975 1.622 . S
C6025 C120 1.725 . S
C6090 C1560 1.554 . S
C6075 C231 1.695 . S
C6140 C723 2.147 1_665 S
C6125 C200 2.231 . S
C6175 C212 2.575 . S
C6190 C1135 2.417 . S
C6240 C872 0.715 . S
C6225 C172 0.709 . S
C6275 C192 0.801 . S
C6290 C972 0.790 . S
C6325 C160 1.620 . S
C6340 C1644 1.521 . S
C6390 C1311 2.465 . S
C6375 C213 2.566 1_565 S
C6440 C1376 0.941 . S
C6425 C250 0.978 . S
