# Generated by pormake.
# Topology hwx, (6,3)-cn, num edge types: 1
# Building blocks:
#     Node 0, Type 0, BuildingBlock: OJICUG_clean_sbu_0, # of connection points: 6
#     Node 1, Type 0, BuildingBlock: OJICUG_clean_sbu_0, # of connection points: 6
#     Node 2, Type 0, BuildingBlock: OJICUG_clean_sbu_0, # of connection points: 6
#     Node 3, Type 0, BuildingBlock: OJICUG_clean_sbu_0, # of connection points: 6
#     Node 4, Type 1, BuildingBlock: OLANEW_clean_sbu_2, # of connection points: 3
#     Node 5, Type 1, BuildingBlock: OLANEW_clean_sbu_2, # of connection points: 3
#     Node 6, Type 1, BuildingBlock: OLANEW_clean_sbu_2, # of connection points: 3
#     Node 7, Type 1, BuildingBlock: OLANEW_clean_sbu_2, # of connection points: 3
#     Node 8, Type 1, BuildingBlock: OLANEW_clean_sbu_2, # of connection points: 3
#     Node 9, Type 1, BuildingBlock: OLANEW_clean_sbu_2, # of connection points: 3
#     Node 10, Type 1, BuildingBlock: OLANEW_clean_sbu_2, # of connection points: 3
#     Node 11, Type 1, BuildingBlock: OLANEW_clean_sbu_2, # of connection points: 3
#     Edge 12, Type (0, 1), BuildingBlock: TEMPAE_clean_linker_10, # of connection points: 2
#     Edge 13, Type (0, 1), BuildingBlock: TEMPAE_clean_linker_10, # of connection points: 2
#     Edge 14, Type (0, 1), BuildingBlock: TEMPAE_clean_linker_10, # of connection points: 2
#     Edge 15, Type (0, 1), BuildingBlock: TEMPAE_clean_linker_10, # of connection points: 2
#     Edge 16, Type (0, 1), BuildingBlock: TEMPAE_clean_linker_10, # of connection points: 2
#     Edge 17, Type (0, 1), BuildingBlock: TEMPAE_clean_linker_10, # of connection points: 2
#     Edge 18, Type (0, 1), BuildingBlock: TEMPAE_clean_linker_10, # of connection points: 2
#     Edge 19, Type (0, 1), BuildingBlock: TEMPAE_clean_linker_10, # of connection points: 2
#     Edge 20, Type (0, 1), BuildingBlock: TEMPAE_clean_linker_10, # of connection points: 2
#     Edge 21, Type (0, 1), BuildingBlock: TEMPAE_clean_linker_10, # of connection points: 2
#     Edge 22, Type (0, 1), BuildingBlock: TEMPAE_clean_linker_10, # of connection points: 2
#     Edge 23, Type (0, 1), BuildingBlock: TEMPAE_clean_linker_10, # of connection points: 2
#     Edge 24, Type (0, 1), BuildingBlock: TEMPAE_clean_linker_10, # of connection points: 2
#     Edge 25, Type (0, 1), BuildingBlock: TEMPAE_clean_linker_10, # of connection points: 2
#     Edge 26, Type (0, 1), BuildingBlock: TEMPAE_clean_linker_10, # of connection points: 2
#     Edge 27, Type (0, 1), BuildingBlock: TEMPAE_clean_linker_10, # of connection points: 2
#     Edge 28, Type (0, 1), BuildingBlock: TEMPAE_clean_linker_10, # of connection points: 2
#     Edge 29, Type (0, 1), BuildingBlock: TEMPAE_clean_linker_10, # of connection points: 2
#     Edge 30, Type (0, 1), BuildingBlock: TEMPAE_clean_linker_10, # of connection points: 2
#     Edge 31, Type (0, 1), BuildingBlock: TEMPAE_clean_linker_10, # of connection points: 2
#     Edge 32, Type (0, 1), BuildingBlock: TEMPAE_clean_linker_10, # of connection points: 2
#     Edge 33, Type (0, 1), BuildingBlock: TEMPAE_clean_linker_10, # of connection points: 2
#     Edge 34, Type (0, 1), BuildingBlock: TEMPAE_clean_linker_10, # of connection points: 2
#     Edge 35, Type (0, 1), BuildingBlock: TEMPAE_clean_linker_10, # of connection points: 2
# Relax obj value: 0.021
# Max RMSD: 0.063
# Mean RMSD: 0.061
data_MOF--net-hwx--node1-OJICUG_clean_sbu_0--node2-OLANEW_clean_sbu_2--edge1-TEMPAE_clean_linker_10
_symmetry_space_group_name_H-M    P1
_symmetry_Int_Tables_number       1
_symmetry_cell_setting            triclinic
loop_
_symmetry_equiv_pos_as_xyz
'x, y, z'
_cell_length_a     56.199386
_cell_length_b     56.21054
_cell_length_c     21.9489
_cell_angle_alpha  85.462497
_cell_angle_beta   94.558692
_cell_angle_gamma 90.021133
loop_
_atom_site_label
_atom_site_type_symbol
_atom_site_fract_x
_atom_site_fract_y
_atom_site_fract_z
_atom_type_partial_charge
Sc0 Sc 0.23089 0.23193 0.10536 0.0
Sc1 Sc 0.19145 0.19473 0.02338 0.0
Sc2 Sc 0.22755 0.23627 0.94505 0.0
O3 O 0.21655 0.22088 0.02464 0.0
C4 C 0.22559 0.28112 0.02547 0.0
C5 C 0.17688 0.22268 0.1361 0.0
C6 C 0.17113 0.23363 0.91687 0.0
C7 C 0.22962 0.17521 0.13239 0.0
C8 C 0.2764 0.2306 0.02644 0.0
C9 C 0.21997 0.18248 0.91013 0.0
O10 O 0.224 0.26906 0.07644 0.0
O11 O 0.17174 0.20946 0.09257 0.0
O12 O 0.19118 0.24369 0.91001 0.0
O13 O 0.23841 0.19566 0.14145 0.0
O14 O 0.26458 0.22953 0.97486 0.0
O15 O 0.20748 0.17609 0.9543 0.0
O16 O 0.26659 0.23348 0.07563 0.0
O17 O 0.21239 0.17216 0.09235 0.0
O18 O 0.22764 0.20358 0.90125 0.0
O19 O 0.19745 0.23158 0.14588 0.0
O20 O 0.22894 0.27157 0.97634 0.0
O21 O 0.16861 0.21531 0.95401 0.0
Sc22 Sc 0.26011 0.73891 0.46421 0.0
Sc23 Sc 0.3016 0.69674 0.53668 0.0
Sc24 Sc 0.26937 0.73322 0.62551 0.0
O25 O 0.27711 0.72299 0.54214 0.0
C26 C 0.27037 0.78308 0.5455 0.0
C27 C 0.31313 0.73364 0.42447 0.0
C28 C 0.32576 0.72462 0.64666 0.0
C29 C 0.26217 0.68473 0.43081 0.0
C30 C 0.21781 0.73391 0.55198 0.0
C31 C 0.27244 0.6765 0.6494 0.0
O32 O 0.26504 0.77399 0.49505 0.0
O33 O 0.3191 0.71666 0.4647 0.0
O34 O 0.30631 0.73331 0.66126 0.0
O35 O 0.25329 0.70565 0.42403 0.0
O36 O 0.23127 0.73339 0.60144 0.0
O37 O 0.28619 0.67377 0.607 0.0
O38 O 0.22573 0.73579 0.49933 0.0
O39 O 0.2795 0.67887 0.4699 0.0
O40 O 0.26504 0.69688 0.66133 0.0
O41 O 0.29264 0.74348 0.41977 0.0
O42 O 0.27312 0.77072 0.59678 0.0
O43 O 0.32685 0.7116 0.60219 0.0
Sc44 Sc 0.7847 0.78354 0.94151 0.0
Sc45 Sc 0.8252 0.81946 0.02445 0.0
Sc46 Sc 0.78822 0.77838 0.10236 0.0
O47 O 0.79939 0.79381 0.02279 0.0
C48 C 0.73902 0.78345 0.0195 0.0
C49 C 0.78798 0.84019 0.91556 0.0
C50 C 0.79493 0.83252 0.13465 0.0
C51 C 0.83927 0.79039 0.9131 0.0
C52 C 0.78904 0.73363 0.02123 0.0
C53 C 0.84475 0.78132 0.13254 0.0
O54 O 0.74891 0.78421 0.96932 0.0
O55 O 0.80487 0.84305 0.95656 0.0
O56 O 0.78576 0.81194 0.14222 0.0
O57 O 0.81867 0.78147 0.90359 0.0
O58 O 0.78923 0.74294 0.07218 0.0
O59 O 0.84807 0.79843 0.09253 0.0
O60 O 0.78797 0.74599 0.96996 0.0
O61 O 0.84426 0.80444 0.95487 0.0
O62 O 0.82426 0.77267 0.14104 0.0
O63 O 0.77931 0.81988 0.90521 0.0
O64 O 0.75084 0.78184 0.07157 0.0
O65 O 0.80948 0.83777 0.09425 0.0
Sc66 Sc 0.74026 0.2594 0.55629 0.0
Sc67 Sc 0.69902 0.29998 0.47616 0.0
Sc68 Sc 0.7351 0.2643 0.39496 0.0
O69 O 0.72476 0.27457 0.47576 0.0
C70 C 0.78474 0.26599 0.47439 0.0
C71 C 0.73705 0.3138 0.58402 0.0
C72 C 0.72771 0.32064 0.3647 0.0
C73 C 0.68587 0.26434 0.58796 0.0
C74 C 0.73438 0.21466 0.47787 0.0
C75 C 0.67867 0.26808 0.36909 0.0
O76 O 0.77546 0.26098 0.52469 0.0
O77 O 0.71898 0.31855 0.54621 0.0
O78 O 0.73522 0.3004 0.35199 0.0
O79 O 0.70695 0.25601 0.59866 0.0
O80 O 0.73549 0.22673 0.42661 0.0
O81 O 0.67618 0.28398 0.40642 0.0
O82 O 0.73505 0.22407 0.52864 0.0
O83 O 0.68005 0.27972 0.54375 0.0
O84 O 0.69874 0.25889 0.36103 0.0
O85 O 0.74708 0.29343 0.59132 0.0
O86 O 0.7725 0.269 0.42301 0.0
O87 O 0.71522 0.32327 0.40942 0.0
O88 O 0.17811 0.52188 0.82339 0.0
Cd89 Cd 0.15199 0.49528 0.88126 0.0
O90 O 0.18999 0.5337 0.91312 0.0
Cd91 Cd 0.20697 0.55707 0.97839 0.0
O92 O 0.21933 0.57877 0.05244 0.0
C93 C 0.21044 0.57526 0.10383 0.0
O94 O 0.19426 0.55858 0.1106 0.0
C95 C 0.19096 0.53564 0.85523 0.0
C96 C 0.171 0.45018 0.91861 0.0
O97 O 0.15756 0.45381 0.86875 0.0
O98 O 0.17583 0.468 0.95036 0.0
O99 O 0.98431 0.67655 0.38138 0.0
Cd100 Cd 0.00869 0.6503 0.45555 0.0
O101 O 0.9836 0.70052 0.45478 0.0
Cd102 Cd 0.97387 0.73102 0.50375 0.0
O103 O 0.95603 0.75027 0.56963 0.0
C104 C 0.95763 0.74143 0.62491 0.0
O105 O 0.97072 0.72214 0.63949 0.0
C106 C 0.9768 0.69572 0.40041 0.0
C107 C 0.05282 0.67002 0.48888 0.0
O108 O 0.05034 0.65595 0.44565 0.0
O109 O 0.03434 0.67487 0.51637 0.0
O110 O 0.72262 0.48797 0.09512 0.0
Cd111 Cd 0.71887 0.5183 0.00878 0.0
O112 O 0.75196 0.47434 0.04808 0.0
Cd113 Cd 0.77475 0.44595 0.02329 0.0
O114 O 0.77916 0.41915 0.95897 0.0
C115 C 0.78353 0.42613 0.90453 0.0
O116 O 0.78728 0.44893 0.89087 0.0
C117 C 0.73828 0.47198 0.09152 0.0
C118 C 0.73983 0.56228 0.02699 0.0
O119 O 0.7181 0.5582 0.03831 0.0
O120 O 0.75192 0.54523 0.00879 0.0
O121 O 0.01868 0.32641 0.68532 0.0
Cd122 Cd 0.99056 0.35128 0.61698 0.0
O123 O 0.02574 0.30865 0.60384 0.0
Cd124 Cd 0.04086 0.28536 0.54136 0.0
O125 O 0.05698 0.27243 0.46296 0.0
C126 C 0.06968 0.2536 0.46724 0.0
O127 O 0.07287 0.24108 0.52043 0.0
C128 C 0.03054 0.31103 0.66073 0.0
C129 C 0.94796 0.329 0.58087 0.0
O130 O 0.96666 0.32663 0.552 0.0
O131 O 0.94958 0.34151 0.62739 0.0
O132 O 0.68387 0.98068 0.67036 0.0
Cd133 Cd 0.65678 0.0041 0.5961 0.0
O134 O 0.70685 0.979 0.59515 0.0
Cd135 Cd 0.73655 0.96845 0.54442 0.0
O136 O 0.75505 0.94967 0.47884 0.0
C137 C 0.74553 0.95043 0.42423 0.0
O138 O 0.726 0.96319 0.41007 0.0
C139 C 0.70272 0.97283 0.65037 0.0
C140 C 0.67511 0.04847 0.55914 0.0
O141 O 0.66124 0.04607 0.60283 0.0
O142 O 0.68046 0.0298 0.53304 0.0
O143 O 0.52261 0.18057 0.18224 0.0
Cd144 Cd 0.49339 0.15755 0.12293 0.0
O145 O 0.53001 0.19751 0.09301 0.0
Cd146 Cd 0.54633 0.21988 0.0218 0.0
O147 O 0.56787 0.2327 0.94788 0.0
C148 C 0.5686 0.22019 0.9023 0.0
O149 O 0.55588 0.20059 0.90099 0.0
C150 C 0.535 0.1951 0.15083 0.0
C151 C 0.44782 0.17764 0.10261 0.0
O152 O 0.453 0.16206 0.14756 0.0
O153 O 0.46435 0.18412 0.06794 0.0
O154 O 0.32432 0.02111 0.35564 0.0
Cd155 Cd 0.34946 0.99379 0.4256 0.0
O156 O 0.31053 0.03213 0.43916 0.0
Cd157 Cd 0.29253 0.05361 0.50059 0.0
O158 O 0.28079 0.07141 0.57775 0.0
C159 C 0.25909 0.07707 0.58136 0.0
O160 O 0.24317 0.07231 0.53691 0.0
C161 C 0.31079 0.03474 0.38109 0.0
C162 C 0.32901 0.94973 0.45671 0.0
O163 O 0.32489 0.96794 0.48605 0.0
O164 O 0.34239 0.95253 0.41205 0.0
O165 O 0.49467 0.71466 0.91164 0.0
Cd166 Cd 0.52458 0.70919 0.99887 0.0
O167 O 0.48109 0.74331 0.96117 0.0
Cd168 Cd 0.45323 0.76625 0.98829 0.0
O169 O 0.42856 0.77217 0.05717 0.0
C170 C 0.41218 0.75681 0.06359 0.0
O171 O 0.4101 0.73979 0.02578 0.0
C172 C 0.47878 0.73034 0.91625 0.0
C173 C 0.56835 0.73171 0.98841 0.0
O174 O 0.56491 0.71048 0.97216 0.0
O175 O 0.55074 0.74265 0.00769 0.0
C176 C 0.16385 0.24283 0.22551 0.0
C177 C 0.15866 0.22728 0.17928 0.0
C178 C 0.14773 0.24633 0.26949 0.0
C179 C 0.12575 0.23405 0.26735 0.0
C180 C 0.12005 0.21874 0.22012 0.0
C181 C 0.13658 0.21553 0.17657 0.0
C182 C 0.15445 0.2629 0.31898 0.0
C183 C 0.0967 0.20546 0.2163 0.0
C184 C 0.09802 0.22752 0.41979 0.0
C185 C 0.08214 0.24696 0.41394 0.0
C186 C 0.11153 0.2224 0.37127 0.0
C187 C 0.10909 0.23707 0.3156 0.0
C188 C 0.09232 0.25604 0.30844 0.0
C189 C 0.07906 0.26077 0.3577 0.0
C190 C 0.12922 0.20197 0.3806 0.0
C191 C 0.08915 0.27204 0.24974 0.0
H192 H 0.18075 0.25214 0.22801 0.0
H193 H 0.13237 0.20348 0.1411 0.0
H194 H 0.14071 0.27709 0.31852 0.0
H195 H 0.15515 0.25284 0.36466 0.0
H196 H 0.17203 0.27149 0.31341 0.0
H197 H 0.09452 0.19504 0.17528 0.0
H198 H 0.09569 0.19303 0.25788 0.0
H199 H 0.08153 0.21816 0.21487 0.0
H200 H 0.10042 0.21666 0.46291 0.0
H201 H 0.0667 0.27573 0.35254 0.0
H202 H 0.14765 0.20908 0.381 0.0
H203 H 0.12683 0.19028 0.34218 0.0
H204 H 0.12744 0.19098 0.42434 0.0
H205 H 0.10552 0.28276 0.24406 0.0
H206 H 0.07374 0.28444 0.24925 0.0
H207 H 0.08652 0.26121 0.20965 0.0
C208 C 0.24593 0.65737 0.72562 0.0
C209 C 0.26331 0.655 0.68387 0.0
C210 C 0.23551 0.63729 0.75466 0.0
C211 C 0.24268 0.61417 0.74201 0.0
C212 C 0.26069 0.61157 0.70139 0.0
C213 C 0.27076 0.632 0.67271 0.0
C214 C 0.21631 0.64084 0.79755 0.0
C215 C 0.26886 0.58721 0.68693 0.0
C216 C 0.22631 0.56288 0.85432 0.0
C217 C 0.2052 0.55462 0.82491 0.0
C218 C 0.23903 0.58192 0.82733 0.0
C219 C 0.2305 0.59283 0.76935 0.0
C220 C 0.20963 0.58401 0.73852 0.0
C221 C 0.1973 0.56493 0.76657 0.0
C222 C 0.26134 0.59065 0.86134 0.0
C223 C 0.19991 0.59516 0.67668 0.0
H224 H 0.23994 0.67499 0.73465 0.0
H225 H 0.28417 0.6299 0.64066 0.0
H226 H 0.1992 0.63345 0.77873 0.0
H227 H 0.22103 0.63104 0.84277 0.0
H228 H 0.21349 0.65996 0.80458 0.0
H229 H 0.28407 0.5882 0.65746 0.0
H230 H 0.2743 0.57615 0.7299 0.0
H231 H 0.25388 0.5779 0.66301 0.0
H232 H 0.233 0.55436 0.89831 0.0
H233 H 0.18104 0.55854 0.74352 0.0
H234 H 0.25873 0.60938 0.87215 0.0
H235 H 0.27655 0.59049 0.83209 0.0
H236 H 0.26616 0.57962 0.90483 0.0
H237 H 0.1947 0.61398 0.68074 0.0
H238 H 0.18411 0.58553 0.65759 0.0
H239 H 0.21388 0.59537 0.64367 0.0
C240 C 0.8639 0.74697 0.19711 0.0
C241 C 0.86555 0.77034 0.17019 0.0
C242 C 0.88316 0.73604 0.23313 0.0
C243 C 0.90457 0.74889 0.24344 0.0
C244 C 0.90644 0.77248 0.21643 0.0
C245 C 0.88695 0.78288 0.17959 0.0
C246 C 0.88056 0.71069 0.26019 0.0
C247 C 0.92887 0.78683 0.2272 0.0
C248 C 0.9428 0.72507 0.38539 0.0
C249 C 0.95975 0.71124 0.36035 0.0
C250 C 0.92556 0.7385 0.34762 0.0
C251 C 0.92477 0.73751 0.28325 0.0
C252 C 0.94199 0.72381 0.25756 0.0
C253 C 0.95931 0.7109 0.29643 0.0
C254 C 0.90754 0.75293 0.37687 0.0
C255 C 0.94153 0.72198 0.18921 0.0
H256 H 0.84754 0.73703 0.18949 0.0
H257 H 0.88832 0.80096 0.15909 0.0
H258 H 0.89483 0.69926 0.24569 0.0
H259 H 0.8826 0.71012 0.31097 0.0
H260 H 0.86298 0.70292 0.24613 0.0
H261 H 0.92755 0.80488 0.20259 0.0
H262 H 0.93254 0.7888 0.27698 0.0
H263 H 0.94437 0.77733 0.21197 0.0
H264 H 0.94215 0.72456 0.43451 0.0
H265 H 0.97227 0.70012 0.27674 0.0
H266 H 0.8897 0.74458 0.37106 0.0
H267 H 0.90605 0.77126 0.35408 0.0
H268 H 0.9123 0.75412 0.42664 0.0
H269 H 0.925 0.71277 0.1731 0.0
H270 H 0.95714 0.71196 0.17622 0.0
H271 H 0.94122 0.74002 0.16474 0.0
C272 C 0.73154 0.3508 0.63758 0.0
C273 C 0.74642 0.33236 0.62343 0.0
C274 C 0.73951 0.36687 0.68042 0.0
C275 C 0.76301 0.36464 0.70889 0.0
C276 C 0.77853 0.3469 0.69216 0.0
C277 C 0.76998 0.33083 0.65 0.0
C278 C 0.72239 0.38551 0.69737 0.0
C279 C 0.80387 0.34427 0.72051 0.0
C280 C 0.7858 0.41703 0.79533 0.0
C281 C 0.78097 0.40946 0.85554 0.0
C282 C 0.78083 0.40229 0.74721 0.0
C283 C 0.77059 0.3796 0.75966 0.0
C284 C 0.76649 0.37153 0.82065 0.0
C285 C 0.77186 0.38651 0.8679 0.0
C286 C 0.78582 0.41129 0.68285 0.0
C287 C 0.75556 0.34743 0.83571 0.0
H288 H 0.71333 0.35205 0.61721 0.0
H289 H 0.78168 0.3168 0.63851 0.0
H290 H 0.71849 0.38183 0.74599 0.0
H291 H 0.73055 0.40347 0.69296 0.0
H292 H 0.70527 0.38587 0.66829 0.0
H293 H 0.81448 0.33162 0.69697 0.0
H294 H 0.81295 0.36181 0.71899 0.0
H295 H 0.80372 0.33762 0.76943 0.0
H296 H 0.79298 0.43469 0.78548 0.0
H297 H 0.76809 0.3805 0.91428 0.0
H298 H 0.76874 0.41407 0.65417 0.0
H299 H 0.7963 0.39787 0.6617 0.0
H300 H 0.79575 0.42839 0.68167 0.0
H301 H 0.73736 0.34677 0.81227 0.0
H302 H 0.75429 0.3435 0.88575 0.0
H303 H 0.76629 0.33316 0.81872 0.0
C304 C 0.63732 0.27349 0.31792 0.0
C305 C 0.65715 0.25874 0.33601 0.0
C306 C 0.61684 0.26449 0.28676 0.0
C307 C 0.61596 0.24004 0.27524 0.0
C308 C 0.63581 0.22502 0.29445 0.0
C309 C 0.65627 0.23464 0.32379 0.0
C310 C 0.59626 0.28117 0.26558 0.0
C311 C 0.63538 0.19872 0.28461 0.0
C312 C 0.55595 0.21011 0.24508 0.0
C313 C 0.55505 0.20804 0.1816 0.0
C314 C 0.57547 0.22082 0.27607 0.0
C315 C 0.59441 0.23007 0.24266 0.0
C316 C 0.59339 0.2285 0.17849 0.0
C317 C 0.57401 0.21707 0.14905 0.0
C318 C 0.57616 0.22158 0.34481 0.0
C319 C 0.61311 0.23832 0.14102 0.0
H320 H 0.638 0.29215 0.32719 0.0
H321 H 0.67145 0.2231 0.33854 0.0
H322 H 0.59249 0.28115 0.21517 0.0
H323 H 0.5799 0.27492 0.28689 0.0
H324 H 0.59992 0.29978 0.27718 0.0
H325 H 0.65191 0.18932 0.30467 0.0
H326 H 0.61987 0.19016 0.30554 0.0
H327 H 0.63328 0.19623 0.23486 0.0
H328 H 0.54152 0.20298 0.27087 0.0
H329 H 0.57434 0.21447 0.10102 0.0
H330 H 0.57836 0.24021 0.35746 0.0
H331 H 0.59177 0.21121 0.36684 0.0
H332 H 0.55974 0.21414 0.36385 0.0
H333 H 0.61714 0.25699 0.15129 0.0
H334 H 0.60844 0.23797 0.09095 0.0
H335 H 0.62965 0.22767 0.1533 0.0
C336 C 0.21978 0.14082 0.8755 0.0
C337 C 0.22533 0.16509 0.8655 0.0
C338 C 0.22451 0.12457 0.83234 0.0
C339 C 0.23483 0.13286 0.77785 0.0
C340 C 0.24045 0.1573 0.76757 0.0
C341 C 0.23573 0.17305 0.81149 0.0
C342 C 0.21849 0.09857 0.84499 0.0
C343 C 0.25137 0.16689 0.7099 0.0
C344 C 0.26874 0.09253 0.68419 0.0
C345 C 0.25213 0.08962 0.63414 0.0
C346 C 0.26293 0.1056 0.73285 0.0
C347 C 0.24002 0.11618 0.73124 0.0
C348 C 0.2229 0.11263 0.68195 0.0
C349 C 0.22913 0.09931 0.63404 0.0
C350 C 0.28163 0.10886 0.78482 0.0
C351 C 0.19832 0.12375 0.67847 0.0
H352 H 0.21179 0.13447 0.91707 0.0
H353 H 0.24001 0.19176 0.80296 0.0
H354 H 0.20559 0.09285 0.80815 0.0
H355 H 0.2348 0.08744 0.84492 0.0
H356 H 0.21071 0.09494 0.88973 0.0
H357 H 0.25444 0.18645 0.70863 0.0
H358 H 0.26869 0.15786 0.70633 0.0
H359 H 0.23952 0.16308 0.66899 0.0
H360 H 0.28648 0.0849 0.68496 0.0
H361 H 0.21617 0.09708 0.59568 0.0
H362 H 0.27419 0.10437 0.8296 0.0
H363 H 0.28717 0.12783 0.78362 0.0
H364 H 0.29772 0.09763 0.78223 0.0
H365 H 0.18984 0.11939 0.72188 0.0
H366 H 0.18645 0.11766 0.63991 0.0
H367 H 0.19981 0.14346 0.67226 0.0
C368 C 0.35177 0.72917 0.37631 0.0
C369 C 0.32982 0.74096 0.37738 0.0
C370 C 0.36613 0.73375 0.32725 0.0
C371 C 0.35833 0.75047 0.27807 0.0
C372 C 0.33686 0.76335 0.28042 0.0
C373 C 0.32291 0.7585 0.33007 0.0
C374 C 0.38909 0.71986 0.32663 0.0
C375 C 0.32796 0.78137 0.22894 0.0
C376 C 0.40249 0.77177 0.16338 0.0
C377 C 0.39739 0.75649 0.11651 0.0
C378 C 0.38982 0.77019 0.21616 0.0
C379 C 0.37155 0.75302 0.22193 0.0
C380 C 0.36592 0.73797 0.17412 0.0
C381 C 0.37894 0.73986 0.12206 0.0
C382 C 0.39629 0.78652 0.26625 0.0
C383 C 0.34639 0.71958 0.17835 0.0
H384 H 0.3574 0.71572 0.41272 0.0
H385 H 0.3061 0.7679 0.33049 0.0
H386 H 0.38732 0.70749 0.28958 0.0
H387 H 0.40402 0.73212 0.3168 0.0
H388 H 0.39378 0.70925 0.37084 0.0
H389 H 0.31214 0.79147 0.24039 0.0
H390 H 0.34224 0.79424 0.21776 0.0
H391 H 0.32299 0.77206 0.18708 0.0
H392 H 0.41677 0.78464 0.15951 0.0
H393 H 0.37482 0.72804 0.086 0.0
H394 H 0.40268 0.77578 0.30901 0.0
H395 H 0.38031 0.79661 0.27642 0.0
H396 H 0.41041 0.79944 0.25382 0.0
H397 H 0.3507 0.70657 0.2184 0.0
H398 H 0.34385 0.70966 0.13652 0.0
H399 H 0.32925 0.72834 0.18551 0.0
C400 C 0.79017 0.88241 0.8692 0.0
C401 C 0.77719 0.86133 0.87908 0.0
C402 C 0.77996 0.90213 0.83292 0.0
C403 C 0.75611 0.90082 0.80715 0.0
C404 C 0.7428 0.87977 0.81827 0.0
C405 C 0.75356 0.86025 0.85356 0.0
C406 C 0.79479 0.92416 0.82117 0.0
C407 C 0.71718 0.87777 0.79264 0.0
C408 C 0.71888 0.95606 0.75424 0.0
C409 C 0.71852 0.95599 0.69026 0.0
C410 C 0.73188 0.9388 0.79309 0.0
C411 C 0.74498 0.92113 0.7673 0.0
C412 C 0.74536 0.92147 0.70284 0.0
C413 C 0.73182 0.93864 0.66514 0.0
C414 C 0.73068 0.93881 0.86157 0.0
C415 C 0.75915 0.90299 0.67347 0.0
H416 H 0.80846 0.88331 0.88867 0.0
H417 H 0.74331 0.84412 0.86168 0.0
H418 H 0.79662 0.9275 0.77126 0.0
H419 H 0.78575 0.93999 0.83613 0.0
H420 H 0.8129 0.92251 0.84539 0.0
H421 H 0.70903 0.8605 0.80774 0.0
H422 H 0.70633 0.89248 0.80722 0.0
H423 H 0.71621 0.8795 0.74181 0.0
H424 H 0.70851 0.96932 0.77401 0.0
H425 H 0.73074 0.93757 0.61611 0.0
H426 H 0.7489 0.93803 0.88514 0.0
H427 H 0.72107 0.9227 0.87869 0.0
H428 H 0.72134 0.95486 0.87453 0.0
H429 H 0.77758 0.90116 0.69559 0.0
H430 H 0.76012 0.90751 0.62352 0.0
H431 H 0.75042 0.88537 0.67998 0.0
C432 C 0.88052 0.79536 0.87741 0.0
C433 C 0.85814 0.78422 0.87327 0.0
C434 C 0.89827 0.78986 0.83905 0.0
C435 C 0.89354 0.77275 0.79574 0.0
C436 C 0.87109 0.76134 0.79159 0.0
C437 C 0.85368 0.76723 0.83026 0.0
C438 C 0.92201 0.8024 0.84463 0.0
C439 C 0.86541 0.7429 0.74617 0.0
C440 C 0.92799 0.77087 0.65438 0.0
C441 C 0.94312 0.75117 0.67074 0.0
C442 C 0.91243 0.77875 0.69564 0.0
C443 C 0.91197 0.7666 0.75453 0.0
C444 C 0.9279 0.74734 0.77221 0.0
C445 C 0.94331 0.73988 0.73013 0.0
C446 C 0.8958 0.79946 0.67528 0.0
C447 C 0.92795 0.73394 0.83465 0.0
H448 H 0.88417 0.80854 0.91036 0.0
H449 H 0.83652 0.75842 0.8267 0.0
H450 H 0.93663 0.78912 0.85546 0.0
H451 H 0.92531 0.81222 0.80027 0.0
H452 H 0.92289 0.81521 0.88078 0.0
H453 H 0.84714 0.73557 0.74899 0.0
H454 H 0.86704 0.75089 0.69884 0.0
H455 H 0.87842 0.72792 0.75447 0.0
H456 H 0.92782 0.77979 0.60872 0.0
H457 H 0.95502 0.72471 0.7433 0.0
H458 H 0.89701 0.81293 0.70969 0.0
H459 H 0.8771 0.79306 0.67167 0.0
H460 H 0.89979 0.80827 0.63016 0.0
H461 H 0.9296 0.74655 0.87114 0.0
H462 H 0.94272 0.72067 0.84309 0.0
H463 H 0.91077 0.72444 0.83864 0.0
C464 C 0.73514 0.36438 0.35021 0.0
C465 C 0.73303 0.34221 0.32516 0.0
C466 C 0.7382 0.38541 0.31294 0.0
C467 C 0.73854 0.38434 0.24881 0.0
C468 C 0.73705 0.36193 0.22339 0.0
C469 C 0.7346 0.34106 0.26206 0.0
C470 C 0.74034 0.40886 0.34204 0.0
C471 C 0.73692 0.36011 0.15511 0.0
C472 C 0.71717 0.44018 0.15124 0.0
C473 C 0.73864 0.44986 0.13265 0.0
C474 C 0.7169 0.41864 0.18808 0.0
C475 C 0.73872 0.40682 0.20814 0.0
C476 C 0.76052 0.41676 0.19038 0.0
C477 C 0.7602 0.43809 0.15231 0.0
C478 C 0.69324 0.40844 0.20516 0.0
C479 C 0.78415 0.40501 0.21215 0.0
H480 H 0.73421 0.36529 0.39913 0.0
H481 H 0.73285 0.32396 0.24254 0.0
H482 H 0.75603 0.4189 0.32638 0.0
H483 H 0.72428 0.42002 0.32766 0.0
H484 H 0.74214 0.40638 0.39292 0.0
H485 H 0.73702 0.34129 0.14297 0.0
H486 H 0.72077 0.36915 0.13171 0.0
H487 H 0.75265 0.36932 0.13701 0.0
H488 H 0.70047 0.4492 0.13571 0.0
H489 H 0.77684 0.4458 0.13877 0.0
H490 H 0.69252 0.40735 0.25565 0.0
H491 H 0.6913 0.39003 0.19062 0.0
H492 H 0.67786 0.41935 0.1838 0.0
H493 H 0.78637 0.4036 0.263 0.0
H494 H 0.7995 0.41504 0.19428 0.0
H495 H 0.78461 0.3866 0.19744 0.0
C496 C 0.14946 0.26807 0.85809 0.0
C497 C 0.14979 0.24394 0.88009 0.0
C498 C 0.12949 0.27822 0.82313 0.0
C499 C 0.10949 0.26378 0.80868 0.0
C500 C 0.10972 0.23938 0.83056 0.0
C501 C 0.12978 0.2298 0.86655 0.0
C502 C 0.12978 0.30443 0.80182 0.0
C503 C 0.08888 0.22335 0.81538 0.0
C504 C 0.05045 0.29574 0.76222 0.0
C505 C 0.04989 0.29723 0.69794 0.0
C506 C 0.06949 0.28451 0.79883 0.0
C507 C 0.08839 0.27431 0.77057 0.0
C508 C 0.08769 0.27525 0.7058 0.0
C509 C 0.06863 0.28696 0.67034 0.0
C510 C 0.06971 0.28417 0.86774 0.0
C511 C 0.10743 0.26447 0.67386 0.0
H512 H 0.16476 0.27917 0.86892 0.0
H513 H 0.12997 0.21111 0.88313 0.0
H514 H 0.12808 0.30669 0.75099 0.0
H515 H 0.11432 0.31366 0.81809 0.0
H516 H 0.14641 0.31335 0.81863 0.0
H517 H 0.0919 0.20474 0.83558 0.0
H518 H 0.07244 0.23039 0.83253 0.0
H519 H 0.08562 0.2231 0.76491 0.0
H520 H 0.03614 0.30372 0.7841 0.0
H521 H 0.06903 0.28881 0.62116 0.0
H522 H 0.08535 0.29424 0.88591 0.0
H523 H 0.07154 0.26559 0.88871 0.0
H524 H 0.05326 0.29217 0.88261 0.0
H525 H 0.12426 0.27433 0.68317 0.0
H526 H 0.10329 0.26498 0.62342 0.0
H527 H 0.11065 0.24565 0.69192 0.0
C528 C 0.23306 0.67239 0.3468 0.0
C529 C 0.25282 0.66687 0.3888 0.0
C530 C 0.22536 0.65661 0.30299 0.0
C531 C 0.23772 0.6348 0.30098 0.0
C532 C 0.25711 0.6287 0.34455 0.0
C533 C 0.26441 0.64478 0.38801 0.0
C534 C 0.20447 0.66366 0.25755 0.0
C535 C 0.27068 0.60554 0.34391 0.0
C536 C 0.20741 0.58668 0.21095 0.0
C537 C 0.21782 0.59006 0.15489 0.0
C538 C 0.21387 0.60095 0.25922 0.0
C539 C 0.23114 0.619 0.2512 0.0
C540 C 0.2419 0.62234 0.19499 0.0
C541 C 0.2351 0.60784 0.14751 0.0
C542 C 0.20203 0.59688 0.31855 0.0
C543 C 0.26044 0.6414 0.18478 0.0
H544 H 0.22384 0.6893 0.34722 0.0
H545 H 0.27965 0.64028 0.42027 0.0
H546 H 0.21059 0.666 0.21063 0.0
H547 H 0.19088 0.64933 0.25757 0.0
H548 H 0.19585 0.68053 0.26769 0.0
H549 H 0.2843 0.60274 0.38338 0.0
H550 H 0.2582 0.59025 0.34487 0.0
H551 H 0.27979 0.60549 0.30089 0.0
H552 H 0.19406 0.57296 0.21708 0.0
H553 H 0.24327 0.61056 0.10442 0.0
H554 H 0.19221 0.61322 0.32739 0.0
H555 H 0.21573 0.59323 0.35741 0.0
H556 H 0.18932 0.58174 0.31794 0.0
H557 H 0.25263 0.65924 0.18932 0.0
H558 H 0.26743 0.64138 0.13883 0.0
H559 H 0.27562 0.63875 0.22021 0.0
C560 C 0.34769 0.7303 0.748 0.0
C561 C 0.34806 0.72891 0.6846 0.0
C562 C 0.36899 0.732 0.78546 0.0
C563 C 0.3911 0.73302 0.75854 0.0
C564 C 0.39144 0.7328 0.69413 0.0
C565 C 0.36994 0.73036 0.65804 0.0
C566 C 0.3679 0.73158 0.85407 0.0
C567 C 0.41457 0.73457 0.66349 0.0
C568 C 0.44541 0.7532 0.85577 0.0
C569 C 0.45681 0.73138 0.87448 0.0
C570 C 0.42421 0.75412 0.81703 0.0
C571 C 0.41392 0.73263 0.79807 0.0
C572 C 0.42537 0.71055 0.8172 0.0
C573 C 0.44686 0.71024 0.8544 0.0
C574 C 0.41291 0.77804 0.79614 0.0
C575 C 0.4147 0.68719 0.79928 0.0
H576 H 0.33081 0.72901 0.7687 0.0
H577 H 0.37024 0.72951 0.60892 0.0
H578 H 0.37705 0.71531 0.87647 0.0
H579 H 0.3774 0.74717 0.87207 0.0
H580 H 0.34926 0.73172 0.86756 0.0
H581 H 0.41157 0.73662 0.61269 0.0
H582 H 0.42511 0.74998 0.67901 0.0
H583 H 0.42548 0.71827 0.67669 0.0
H584 H 0.45329 0.76958 0.87066 0.0
H585 H 0.45558 0.69333 0.86926 0.0
H586 H 0.3948 0.779 0.81255 0.0
H587 H 0.41083 0.78026 0.7453 0.0
H588 H 0.42362 0.79312 0.81317 0.0
H589 H 0.39638 0.68538 0.81458 0.0
H590 H 0.42549 0.67154 0.81947 0.0
H591 H 0.41323 0.68683 0.74868 0.0
C592 C 0.7993 0.87361 0.17152 0.0
C593 C 0.78852 0.85105 0.17522 0.0
C594 C 0.79357 0.89108 0.21039 0.0
C595 C 0.77662 0.8859 0.25384 0.0
C596 C 0.76561 0.86324 0.25767 0.0
C597 C 0.77169 0.84611 0.21842 0.0
C598 C 0.80567 0.91506 0.20508 0.0
C599 C 0.74737 0.85707 0.30332 0.0
C600 C 0.77476 0.92052 0.39501 0.0
C601 C 0.75495 0.93552 0.37878 0.0
C602 C 0.78254 0.90482 0.35396 0.0
C603 C 0.77019 0.90411 0.29536 0.0
C604 C 0.75071 0.9198 0.27791 0.0
C605 C 0.74334 0.93533 0.31981 0.0
C606 C 0.80346 0.88843 0.37408 0.0
C607 C 0.73712 0.91958 0.21576 0.0
H608 H 0.81234 0.87764 0.13842 0.0
H609 H 0.7632 0.8288 0.22171 0.0
H610 H 0.79211 0.92944 0.19444 0.0
H611 H 0.81543 0.91845 0.24948 0.0
H612 H 0.81846 0.91628 0.1689 0.0
H613 H 0.74042 0.83866 0.30039 0.0
H614 H 0.7554 0.85877 0.3506 0.0
H615 H 0.73212 0.86977 0.29537 0.0
H616 H 0.7839 0.92062 0.44039 0.0
H617 H 0.72808 0.94692 0.30675 0.0
H618 H 0.81695 0.88997 0.33974 0.0
H619 H 0.79733 0.86964 0.37721 0.0
H620 H 0.81218 0.89237 0.41936 0.0
H621 H 0.74957 0.92165 0.17896 0.0
H622 H 0.72343 0.93398 0.20775 0.0
H623 H 0.72808 0.90215 0.21183 0.0
C624 C 0.67352 0.24048 0.68152 0.0
C625 C 0.66754 0.25654 0.6303 0.0
C626 C 0.6568 0.23411 0.72402 0.0
C627 C 0.63351 0.244 0.71512 0.0
C628 C 0.62713 0.25974 0.66284 0.0
C629 C 0.64421 0.26582 0.62107 0.0
C630 C 0.66422 0.21721 0.77919 0.0
C631 C 0.60242 0.27054 0.6517 0.0
C632 C 0.58522 0.21296 0.80289 0.0
C633 C 0.58441 0.22691 0.85296 0.0
C634 C 0.60087 0.2185 0.75714 0.0
C635 C 0.61608 0.23845 0.76166 0.0
C636 C 0.61509 0.25283 0.81153 0.0
C637 C 0.59924 0.2469 0.85655 0.0
C638 C 0.60137 0.20282 0.70447 0.0
C639 C 0.63105 0.27427 0.81785 0.0
H640 H 0.69143 0.23312 0.68911 0.0
H641 H 0.63933 0.27817 0.58161 0.0
H642 H 0.66303 0.22641 0.82175 0.0
H643 H 0.65193 0.20177 0.78153 0.0
H644 H 0.68273 0.21041 0.77827 0.0
H645 H 0.59998 0.28162 0.60742 0.0
H646 H 0.58878 0.25626 0.65181 0.0
H647 H 0.59902 0.28188 0.68927 0.0
H648 H 0.57378 0.19751 0.79965 0.0
H649 H 0.59873 0.2578 0.89503 0.0
H650 H 0.61929 0.1945 0.70481 0.0
H651 H 0.59811 0.21371 0.66019 0.0
H652 H 0.58783 0.18844 0.70659 0.0
H653 H 0.65004 0.26854 0.82189 0.0
H654 H 0.62766 0.28395 0.85856 0.0
H655 H 0.62832 0.28684 0.77629 0.0
C656 C 0.23237 0.13087 0.159 0.0
C657 C 0.24019 0.15401 0.16982 0.0
C658 C 0.24268 0.11074 0.19318 0.0
C659 C 0.26122 0.11378 0.23942 0.0
C660 C 0.26901 0.13705 0.2511 0.0
C661 C 0.25845 0.15684 0.21619 0.0
C662 C 0.23396 0.0862 0.17919 0.0
C663 C 0.28873 0.14104 0.30006 0.0
C664 C 0.27655 0.06391 0.36402 0.0
C665 C 0.29722 0.05416 0.34388 0.0
C666 C 0.26445 0.08315 0.33018 0.0
C667 C 0.27307 0.09264 0.27443 0.0
C668 C 0.29349 0.08237 0.25291 0.0
C669 C 0.30528 0.06325 0.28783 0.0
C670 C 0.24266 0.09353 0.35449 0.0
C671 C 0.3032 0.09189 0.1936 0.0
H672 H 0.21831 0.12841 0.12334 0.0
H673 H 0.26466 0.17458 0.22521 0.0
H674 H 0.24877 0.07573 0.16374 0.0
H675 H 0.22807 0.07645 0.22125 0.0
H676 H 0.21891 0.08689 0.14308 0.0
H677 H 0.29223 0.16029 0.30473 0.0
H678 H 0.28404 0.13265 0.34496 0.0
H679 H 0.30545 0.13244 0.289 0.0
H680 H 0.26963 0.05639 0.40587 0.0
H681 H 0.32119 0.05574 0.27177 0.0
H682 H 0.22718 0.09313 0.31993 0.0
H683 H 0.24587 0.11249 0.3631 0.0
H684 H 0.23791 0.08374 0.39778 0.0
H685 H 0.28906 0.09185 0.15535 0.0
H686 H 0.31866 0.08128 0.182 0.0
H687 H 0.30894 0.11066 0.19703 0.0
C688 C 0.20527 0.3172 0.05727 0.0
C689 C 0.22139 0.30718 0.02081 0.0
C690 C 0.19802 0.34117 0.04574 0.0
C691 C 0.2075 0.35546 0.99744 0.0
C692 C 0.22495 0.3458 0.96321 0.0
C693 C 0.23149 0.32172 0.9749 0.0
C694 C 0.17916 0.35074 0.08274 0.0
C695 C 0.23586 0.36057 0.91219 0.0
C696 C 0.17029 0.40595 0.91335 0.0
C697 C 0.18031 0.42601 0.9394 0.0
C698 C 0.17864 0.38287 0.93293 0.0
C699 C 0.19776 0.3798 0.97898 0.0
C700 C 0.20798 0.39997 0.00547 0.0
C701 C 0.19899 0.42284 0.98569 0.0
C702 C 0.16705 0.36177 0.90406 0.0
C703 C 0.22864 0.3974 0.05391 0.0
H704 H 0.19727 0.30596 0.09247 0.0
H705 H 0.24412 0.31407 0.94694 0.0
H706 H 0.18483 0.36801 0.1002 0.0
H707 H 0.16243 0.3541 0.05291 0.0
H708 H 0.17525 0.33813 0.1222 0.0
H709 H 0.25101 0.35123 0.89462 0.0
H710 H 0.22212 0.36465 0.87361 0.0
H711 H 0.2423 0.37784 0.92827 0.0
H712 H 0.15571 0.40825 0.87792 0.0
H713 H 0.20684 0.43829 0.00591 0.0
H714 H 0.16077 0.34885 0.94009 0.0
H715 H 0.1803 0.35235 0.87965 0.0
H716 H 0.15165 0.36712 0.87093 0.0
H717 H 0.22374 0.38537 0.09341 0.0
H718 H 0.23427 0.41482 0.07078 0.0
H719 H 0.24411 0.38914 0.03501 0.0
C720 C 0.18398 0.71354 0.60137 0.0
C721 C 0.19203 0.72936 0.5549 0.0
C722 C 0.16045 0.70503 0.59743 0.0
C723 C 0.14461 0.71292 0.5464 0.0
C724 C 0.15218 0.73032 0.50196 0.0
C725 C 0.17588 0.73815 0.50644 0.0
C726 C 0.15314 0.68629 0.6454 0.0
C727 C 0.13571 0.73952 0.44746 0.0
C728 C 0.09705 0.67134 0.4847 0.0
C729 C 0.07634 0.68044 0.50617 0.0
C730 C 0.11945 0.68132 0.4992 0.0
C731 C 0.12115 0.70112 0.53539 0.0
C732 C 0.10037 0.7102 0.55797 0.0
C733 C 0.07819 0.69965 0.54338 0.0
C734 C 0.14125 0.67092 0.47483 0.0
C735 C 0.10149 0.73144 0.5961 0.0
H736 H 0.19649 0.70653 0.63863 0.0
H737 H 0.18203 0.75052 0.47066 0.0
H738 H 0.13552 0.69075 0.66106 0.0
H739 H 0.15136 0.66884 0.62513 0.0
H740 H 0.16641 0.68427 0.68582 0.0
H741 H 0.14333 0.7551 0.42148 0.0
H742 H 0.13241 0.72515 0.416 0.0
H743 H 0.1182 0.74478 0.46241 0.0
H744 H 0.09578 0.65638 0.45636 0.0
H745 H 0.06223 0.70678 0.56006 0.0
H746 H 0.15503 0.66628 0.51298 0.0
H747 H 0.14913 0.68435 0.44263 0.0
H748 H 0.13706 0.65467 0.4504 0.0
H749 H 0.11471 0.72815 0.63618 0.0
H750 H 0.08392 0.73557 0.61279 0.0
H751 H 0.10754 0.74735 0.56843 0.0
C752 C 0.79153 0.69298 0.07709 0.0
C753 C 0.78764 0.70727 0.02175 0.0
C754 C 0.78673 0.66843 0.08002 0.0
C755 C 0.77764 0.65798 0.02647 0.0
C756 C 0.77501 0.672 0.96981 0.0
C757 C 0.78015 0.69645 0.96807 0.0
C758 C 0.79014 0.65399 0.1411 0.0
C759 C 0.76535 0.66149 0.91166 0.0
C760 C 0.77417 0.59063 0.02095 0.0
C761 C 0.75017 0.58637 0.0315 0.0
C762 C 0.78361 0.61378 0.02066 0.0
C763 C 0.76862 0.63309 0.03064 0.0
C764 C 0.74455 0.6288 0.04267 0.0
C765 C 0.73566 0.6055 0.04322 0.0
C766 C 0.80943 0.61766 0.00838 0.0
C767 C 0.72797 0.64895 0.05338 0.0
H768 H 0.79759 0.70109 0.11871 0.0
H769 H 0.77713 0.70729 0.92506 0.0
H770 H 0.77245 0.64915 0.1574 0.0
H771 H 0.79982 0.63712 0.13648 0.0
H772 H 0.80015 0.66398 0.17649 0.0
H773 H 0.76648 0.67417 0.87054 0.0
H774 H 0.77526 0.64497 0.90493 0.0
H775 H 0.74637 0.65655 0.91536 0.0
H776 H 0.78553 0.57592 0.01204 0.0
H777 H 0.7171 0.60238 0.05136 0.0
H778 H 0.81868 0.62754 0.04506 0.0
H779 H 0.81051 0.62874 0.96456 0.0
H780 H 0.81911 0.6006 0.00554 0.0
H781 H 0.73549 0.65881 0.09224 0.0
H782 H 0.70989 0.64254 0.0635 0.0
H783 H 0.72618 0.66181 0.0122 0.0
C784 C 0.8256 0.25977 0.52596 0.0
C785 C 0.81062 0.27095 0.47801 0.0
C786 C 0.84917 0.26736 0.5377 0.0
C787 C 0.8578 0.28691 0.50135 0.0
C788 C 0.8432 0.29738 0.45066 0.0
C789 C 0.8198 0.2891 0.43923 0.0
C790 C 0.86431 0.25537 0.59136 0.0
C791 C 0.85167 0.31842 0.4112 0.0
C792 C 0.90375 0.32516 0.58328 0.0
C793 C 0.92501 0.31809 0.56037 0.0
C794 C 0.88175 0.31543 0.56353 0.0
C795 C 0.88101 0.29791 0.52045 0.0
C796 C 0.90241 0.29058 0.49732 0.0
C797 C 0.92415 0.3009 0.51723 0.0
C798 C 0.85929 0.32389 0.58891 0.0
C799 C 0.90234 0.27167 0.45215 0.0
H800 H 0.8186 0.24559 0.55577 0.0
H801 H 0.8082 0.29792 0.40244 0.0
H802 H 0.88235 0.25123 0.57774 0.0
H803 H 0.86659 0.26763 0.62857 0.0
H804 H 0.85615 0.23859 0.60993 0.0
H805 H 0.83929 0.3228 0.3698 0.0
H806 H 0.8531 0.33429 0.4383 0.0
H807 H 0.86967 0.31486 0.39652 0.0
H808 H 0.90424 0.33855 0.61629 0.0
H809 H 0.94053 0.29531 0.49945 0.0
H810 H 0.85078 0.30877 0.61439 0.0
H811 H 0.84625 0.33065 0.55085 0.0
H812 H 0.86282 0.33828 0.62029 0.0
H813 H 0.89514 0.25478 0.47275 0.0
H814 H 0.92048 0.26814 0.43803 0.0
H815 H 0.89048 0.2772 0.41063 0.0
C816 C 0.71481 0.17944 0.43306 0.0
C817 C 0.72998 0.18876 0.47899 0.0
C818 C 0.70686 0.15575 0.43973 0.0
C819 C 0.71464 0.14106 0.49304 0.0
C820 C 0.73129 0.14997 0.53734 0.0
C821 C 0.73855 0.1738 0.53009 0.0
C822 C 0.68885 0.14705 0.39187 0.0
C823 C 0.74041 0.13475 0.59419 0.0
C824 C 0.67444 0.09289 0.55791 0.0
C825 C 0.68467 0.07214 0.53963 0.0
C826 C 0.68355 0.11547 0.54111 0.0
C827 C 0.70365 0.11733 0.50601 0.0
C828 C 0.71388 0.09648 0.48666 0.0
C829 C 0.70414 0.0741 0.50334 0.0
C830 C 0.67191 0.13733 0.5619 0.0
C831 C 0.73547 0.09777 0.4498 0.0
H832 H 0.70796 0.19107 0.39381 0.0
H833 H 0.75041 0.18097 0.56545 0.0
H834 H 0.69354 0.12887 0.38028 0.0
H835 H 0.67104 0.14602 0.4104 0.0
H836 H 0.68747 0.15915 0.34919 0.0
H837 H 0.75532 0.14339 0.62033 0.0
H838 H 0.72571 0.13143 0.62462 0.0
H839 H 0.74663 0.11716 0.58189 0.0
H840 H 0.65925 0.09151 0.58546 0.0
H841 H 0.71214 0.0581 0.48913 0.0
H842 H 0.66717 0.15031 0.52203 0.0
H843 H 0.68462 0.14627 0.59386 0.0
H844 H 0.65551 0.13294 0.5855 0.0
H845 H 0.73197 0.1101 0.40805 0.0
H846 H 0.7406 0.08002 0.43584 0.0
H847 H 0.75082 0.10503 0.47729 0.0
C848 C 0.31694 0.23487 0.07988 0.0
C849 C 0.30252 0.22651 0.03105 0.0
C850 C 0.34125 0.22883 0.08915 0.0
C851 C 0.35126 0.21366 0.04936 0.0
C852 C 0.337 0.2058 0.99877 0.0
C853 C 0.31283 0.21252 0.98986 0.0
C854 C 0.35599 0.23798 0.14286 0.0
C855 C 0.34694 0.18933 0.95583 0.0
C856 C 0.41873 0.20792 0.05043 0.0
C857 C 0.42327 0.18729 0.08999 0.0
C858 C 0.39541 0.21689 0.03718 0.0
C859 C 0.37616 0.20468 0.06323 0.0
C860 C 0.38064 0.1838 0.10301 0.0
C861 C 0.40415 0.1755 0.11635 0.0
C862 C 0.39136 0.23944 0.9955 0.0
C863 C 0.36054 0.17008 0.13105 0.0
H864 H 0.30911 0.24585 0.11158 0.0
H865 H 0.30173 0.20586 0.95231 0.0
H866 H 0.36111 0.2229 0.17708 0.0
H867 H 0.37272 0.24611 0.1276 0.0
H868 H 0.34617 0.25144 0.16576 0.0
H869 H 0.33396 0.18604 0.91657 0.0
H870 H 0.36343 0.1969 0.93771 0.0
H871 H 0.35184 0.17195 0.98128 0.0
H872 H 0.43346 0.21716 0.03011 0.0
H873 H 0.40752 0.15946 0.14661 0.0
H874 H 0.3823 0.25303 0.01966 0.0
H875 H 0.37945 0.23577 0.95461 0.0
H876 H 0.40829 0.24707 0.97993 0.0
H877 H 0.35093 0.18164 0.15974 0.0
H878 H 0.36699 0.15389 0.15995 0.0
H879 H 0.34745 0.16457 0.09434 0.0
C880 C 0.29241 0.81829 0.58419 0.0
C881 C 0.27531 0.80898 0.54263 0.0
C882 C 0.30012 0.84201 0.57534 0.0
C883 C 0.29016 0.85679 0.52436 0.0
C884 C 0.27176 0.8479 0.48471 0.0
C885 C 0.26471 0.82405 0.49402 0.0
C886 C 0.31994 0.85078 0.6183 0.0
C887 C 0.26036 0.86318 0.43052 0.0
C888 C 0.30095 0.92376 0.51515 0.0
C889 C 0.31904 0.92604 0.47456 0.0
C890 C 0.29143 0.90132 0.53225 0.0
C891 C 0.30047 0.88068 0.50885 0.0
C892 C 0.31895 0.88286 0.46853 0.0
C893 C 0.32788 0.90552 0.45154 0.0
C894 C 0.27149 0.89971 0.57457 0.0
C895 C 0.32924 0.86125 0.44303 0.0
H896 H 0.30076 0.80667 0.62161 0.0
H897 H 0.2513 0.81699 0.46211 0.0
H898 H 0.33633 0.85344 0.59358 0.0
H899 H 0.31512 0.86828 0.63413 0.0
H900 H 0.32408 0.838 0.65901 0.0
H901 H 0.24452 0.85451 0.4084 0.0
H902 H 0.25483 0.8807 0.44491 0.0
H903 H 0.27353 0.86669 0.39586 0.0
H904 H 0.29401 0.93957 0.53303 0.0
H905 H 0.34197 0.90712 0.42053 0.0
H906 H 0.27665 0.88747 0.61564 0.0
H907 H 0.25535 0.89215 0.55095 0.0
H908 H 0.26678 0.91738 0.58977 0.0
H909 H 0.33575 0.84809 0.48103 0.0
H910 H 0.34425 0.8659 0.41434 0.0
H911 H 0.31516 0.85242 0.41466 0.0
C912 C 0.70121 0.77279 0.06808 0.0
C913 C 0.71262 0.7819 0.01671 0.0
C914 C 0.67679 0.76734 0.06326 0.0
C915 C 0.66344 0.77134 0.00586 0.0
C916 C 0.67446 0.78209 0.95494 0.0
C917 C 0.69895 0.78715 0.96089 0.0
C918 C 0.66567 0.75588 0.11865 0.0
C919 C 0.66075 0.787 0.89323 0.0
C920 C 0.61201 0.72906 0.9758 0.0
C921 C 0.59233 0.74266 0.98833 0.0
C922 C 0.63517 0.73836 0.98054 0.0
C923 C 0.63875 0.76194 0.99767 0.0
C924 C 0.6189 0.77605 0.00855 0.0
C925 C 0.5959 0.7662 0.00402 0.0
C926 C 0.6559 0.72271 0.96871 0.0
C927 C 0.62202 0.80135 0.02617 0.0
H928 H 0.71158 0.7687 0.11141 0.0
H929 H 0.70754 0.79447 0.9211 0.0
H930 H 0.64877 0.7651 0.12561 0.0
H931 H 0.66125 0.73704 0.11109 0.0
H932 H 0.67778 0.75615 0.16115 0.0
H933 H 0.67101 0.79823 0.86073 0.0
H934 H 0.65653 0.76986 0.87304 0.0
H935 H 0.64355 0.79605 0.8982 0.0
H936 H 0.60943 0.71086 0.96373 0.0
H937 H 0.58077 0.77684 0.01361 0.0
H938 H 0.66824 0.72005 0.01075 0.0
H939 H 0.66615 0.73151 0.93216 0.0
H940 H 0.65003 0.70493 0.95467 0.0
H941 H 0.63248 0.80136 0.07122 0.0
H942 H 0.60466 0.81045 0.02927 0.0
H943 H 0.63223 0.81185 0.9922 0.0
loop_
_geom_bond_atom_site_label_1
_geom_bond_atom_site_label_2
_geom_bond_distance
_geom_bond_site_symmetry_2
_ccdc_geom_bond_type
Sc0 O3 2.025 . S
Sc0 O10 2.105 . S
Sc0 O13 2.105 . S
Sc0 O16 2.105 . S
Sc0 O19 2.105 . S
Sc1 O3 2.025 . S
Sc1 O11 2.105 . S
Sc1 O15 2.105 1_554 S
Sc1 O17 2.105 . S
Sc1 O21 2.105 1_554 S
Sc2 O3 2.025 1_556 S
Sc2 O12 2.105 . S
Sc2 O14 2.105 . S
Sc2 O18 2.105 . S
Sc2 O20 2.105 . S
O3 Sc0 2.025 . S
O3 Sc1 2.025 . S
O3 Sc2 2.025 1_554 S
C4 O10 1.268 . S
C4 O20 1.268 1_554 S
C5 O11 1.268 . S
C5 O19 1.268 . S
C6 O12 1.268 . S
C6 O21 1.268 . S
C7 O13 1.268 . S
C7 O17 1.268 . S
C8 O14 1.268 1_554 S
C8 O16 1.268 . S
C9 O15 1.268 . S
C9 O18 1.268 . S
O10 Sc0 2.105 . S
O10 C4 1.268 . S
O11 Sc1 2.105 . S
O11 C5 1.268 . S
O12 Sc2 2.105 . S
O12 C6 1.268 . S
O13 Sc0 2.105 . S
O13 C7 1.268 . S
O14 Sc2 2.105 . S
O14 C8 1.268 1_556 S
O15 Sc1 2.105 1_556 S
O15 C9 1.268 . S
O16 Sc0 2.105 . S
O16 C8 1.268 . S
O17 Sc1 2.105 . S
O17 C7 1.268 . S
O18 Sc2 2.105 . S
O18 C9 1.268 . S
O19 Sc0 2.105 . S
O19 C5 1.268 . S
O20 Sc2 2.105 . S
O20 C4 1.268 1_556 S
O21 Sc1 2.105 1_556 S
O21 C6 1.268 . S
Sc22 O25 2.025 . S
Sc22 O32 2.105 . S
Sc22 O35 2.105 . S
Sc22 O38 2.105 . S
Sc22 O41 2.105 . S
Sc23 O25 2.025 . S
Sc23 O33 2.105 . S
Sc23 O37 2.105 . S
Sc23 O39 2.105 . S
Sc23 O43 2.105 . S
Sc24 O25 2.025 . S
Sc24 O34 2.105 . S
Sc24 O36 2.105 . S
Sc24 O40 2.105 . S
Sc24 O42 2.105 . S
O25 Sc22 2.025 . S
O25 Sc23 2.025 . S
O25 Sc24 2.025 . S
C26 O32 1.268 . S
C26 O42 1.268 . S
C27 O33 1.268 . S
C27 O41 1.268 . S
C28 O34 1.268 . S
C28 O43 1.268 . S
C29 O35 1.268 . S
C29 O39 1.268 . S
C30 O36 1.268 . S
C30 O38 1.268 . S
C31 O37 1.268 . S
C31 O40 1.268 . S
O32 Sc22 2.105 . S
O32 C26 1.268 . S
O33 Sc23 2.105 . S
O33 C27 1.268 . S
O34 Sc24 2.105 . S
O34 C28 1.268 . S
O35 Sc22 2.105 . S
O35 C29 1.268 . S
O36 Sc24 2.105 . S
O36 C30 1.268 . S
O37 Sc23 2.105 . S
O37 C31 1.268 . S
O38 Sc22 2.105 . S
O38 C30 1.268 . S
O39 Sc23 2.105 . S
O39 C29 1.268 . S
O40 Sc24 2.105 . S
O40 C31 1.268 . S
O41 Sc22 2.105 . S
O41 C27 1.268 . S
O42 Sc24 2.105 . S
O42 C26 1.268 . S
O43 Sc23 2.105 . S
O43 C28 1.268 . S
Sc44 O47 2.025 1_556 S
Sc44 O54 2.105 . S
Sc44 O57 2.105 . S
Sc44 O60 2.105 . S
Sc44 O63 2.105 . S
Sc45 O47 2.025 . S
Sc45 O55 2.105 1_554 S
Sc45 O59 2.105 . S
Sc45 O61 2.105 1_554 S
Sc45 O65 2.105 . S
Sc46 O47 2.025 . S
Sc46 O56 2.105 . S
Sc46 O58 2.105 . S
Sc46 O62 2.105 . S
Sc46 O64 2.105 . S
O47 Sc44 2.025 1_554 S
O47 Sc45 2.025 . S
O47 Sc46 2.025 . S
C48 O54 1.268 1_554 S
C48 O64 1.268 . S
C49 O55 1.268 . S
C49 O63 1.268 . S
C50 O56 1.268 . S
C50 O65 1.268 . S
C51 O57 1.268 . S
C51 O61 1.268 . S
C52 O58 1.268 . S
C52 O60 1.268 1_554 S
C53 O59 1.268 . S
C53 O62 1.268 . S
O54 Sc44 2.105 . S
O54 C48 1.268 1_556 S
O55 Sc45 2.105 1_556 S
O55 C49 1.268 . S
O56 Sc46 2.105 . S
O56 C50 1.268 . S
O57 Sc44 2.105 . S
O57 C51 1.268 . S
O58 Sc46 2.105 . S
O58 C52 1.268 . S
O59 Sc45 2.105 . S
O59 C53 1.268 . S
O60 Sc44 2.105 . S
O60 C52 1.268 1_556 S
O61 Sc45 2.105 1_556 S
O61 C51 1.268 . S
O62 Sc46 2.105 . S
O62 C53 1.268 . S
O63 Sc44 2.105 . S
O63 C49 1.268 . S
O64 Sc46 2.105 . S
O64 C48 1.268 . S
O65 Sc45 2.105 . S
O65 C50 1.268 . S
Sc66 O69 2.025 . S
Sc66 O76 2.105 . S
Sc66 O79 2.105 . S
Sc66 O82 2.105 . S
Sc66 O85 2.105 . S
Sc67 O69 2.025 . S
Sc67 O77 2.105 . S
Sc67 O81 2.105 . S
Sc67 O83 2.105 . S
Sc67 O87 2.105 . S
Sc68 O69 2.025 . S
Sc68 O78 2.105 . S
Sc68 O80 2.105 . S
Sc68 O84 2.105 . S
Sc68 O86 2.105 . S
O69 Sc66 2.025 . S
O69 Sc67 2.025 . S
O69 Sc68 2.025 . S
C70 O76 1.268 . S
C70 O86 1.268 . S
C71 O77 1.268 . S
C71 O85 1.268 . S
C72 O78 1.268 . S
C72 O87 1.268 . S
C73 O79 1.268 . S
C73 O83 1.268 . S
C74 O80 1.268 . S
C74 O82 1.268 . S
C75 O81 1.268 . S
C75 O84 1.268 . S
O76 Sc66 2.105 . S
O76 C70 1.268 . S
O77 Sc67 2.105 . S
O77 C71 1.268 . S
O78 Sc68 2.105 . S
O78 C72 1.268 . S
O79 Sc66 2.105 . S
O79 C73 1.268 . S
O80 Sc68 2.105 . S
O80 C74 1.268 . S
O81 Sc67 2.105 . S
O81 C75 1.268 . S
O82 Sc66 2.105 . S
O82 C74 1.268 . S
O83 Sc67 2.105 . S
O83 C73 1.268 . S
O84 Sc68 2.105 . S
O84 C75 1.268 . S
O85 Sc66 2.105 . S
O85 C71 1.268 . S
O86 Sc68 2.105 . S
O86 C70 1.268 . S
O87 Sc67 2.105 . S
O87 C72 1.268 . S
O88 Cd89 2.300 1_556 S
O88 C95 1.275 . S
Cd89 O88 2.300 1_554 S
Cd89 O97 2.381 1_554 S
Cd89 O98 2.378 . S
O90 Cd91 2.385 1_556 S
O90 C95 1.255 . S
Cd91 O90 2.385 1_554 S
Cd91 O92 2.317 . S
O92 Cd91 2.317 . S
O92 C93 1.232 . S
C93 O92 1.232 . S
C93 O94 1.218 . S
O94 C93 1.218 . S
C95 O88 1.275 . S
C95 O90 1.255 . S
C96 O97 1.258 1_554 S
C96 O98 1.256 . S
O97 Cd89 2.381 1_556 S
O97 C96 1.258 1_556 S
O98 Cd89 2.378 . S
O98 C96 1.256 . S
O99 Cd100 2.300 1_655 S
O99 C106 1.275 . S
Cd100 O99 2.300 1_455 S
Cd100 O108 2.381 . S
Cd100 O109 2.378 . S
O101 Cd102 2.385 . S
O101 C106 1.255 . S
Cd102 O101 2.385 . S
Cd102 O103 2.317 . S
O103 Cd102 2.317 . S
O103 C104 1.232 . S
C104 O103 1.232 . S
C104 O105 1.218 . S
O105 C104 1.218 . S
C106 O99 1.275 . S
C106 O101 1.255 . S
C107 O108 1.258 . S
C107 O109 1.256 . S
O108 Cd100 2.381 . S
O108 C107 1.258 . S
O109 Cd100 2.378 . S
O109 C107 1.256 . S
O110 Cd111 2.300 . S
O110 C117 1.275 . S
Cd111 O110 2.300 . S
Cd111 O119 2.381 . S
Cd111 O120 2.378 1_554 S
O112 Cd113 2.385 1_554 S
O112 C117 1.255 . S
Cd113 O112 2.385 1_556 S
Cd113 O114 2.317 . S
O114 Cd113 2.317 . S
O114 C115 1.232 . S
C115 O114 1.232 . S
C115 O116 1.218 . S
O116 C115 1.218 . S
C117 O110 1.275 . S
C117 O112 1.255 . S
C118 O119 1.258 . S
C118 O120 1.256 1_554 S
O119 Cd111 2.381 . S
O119 C118 1.258 . S
O120 Cd111 2.378 1_556 S
O120 C118 1.256 1_556 S
O121 Cd122 2.300 1_455 S
O121 C128 1.275 . S
Cd122 O121 2.300 1_655 S
Cd122 O130 2.381 . S
Cd122 O131 2.378 . S
O123 Cd124 2.385 . S
O123 C128 1.255 . S
Cd124 O123 2.385 . S
Cd124 O125 2.317 . S
O125 Cd124 2.317 . S
O125 C126 1.232 . S
C126 O125 1.232 . S
C126 O127 1.218 . S
O127 C126 1.218 . S
C128 O121 1.275 . S
C128 O123 1.255 . S
C129 O130 1.258 . S
C129 O131 1.256 . S
O130 Cd122 2.381 . S
O130 C129 1.258 . S
O131 Cd122 2.378 . S
O131 C129 1.256 . S
O132 Cd133 2.300 1_565 S
O132 C139 1.275 . S
Cd133 O132 2.300 1_545 S
Cd133 O141 2.381 . S
Cd133 O142 2.378 . S
O134 Cd135 2.385 . S
O134 C139 1.255 . S
Cd135 O134 2.385 . S
Cd135 O136 2.317 . S
O136 Cd135 2.317 . S
O136 C137 1.232 . S
C137 O136 1.232 . S
C137 O138 1.218 . S
O138 C137 1.218 . S
C139 O132 1.275 . S
C139 O134 1.255 . S
C140 O141 1.258 . S
C140 O142 1.256 . S
O141 Cd133 2.381 . S
O141 C140 1.258 . S
O142 Cd133 2.378 . S
O142 C140 1.256 . S
O143 Cd144 2.300 . S
O143 C150 1.275 . S
Cd144 O143 2.300 . S
Cd144 O152 2.381 . S
Cd144 O153 2.378 1_554 S
O145 Cd146 2.385 1_554 S
O145 C150 1.255 . S
Cd146 O145 2.385 1_556 S
Cd146 O147 2.317 . S
O147 Cd146 2.317 . S
O147 C148 1.232 . S
C148 O147 1.232 . S
C148 O149 1.218 . S
O149 C148 1.218 . S
C150 O143 1.275 . S
C150 O145 1.255 . S
C151 O152 1.258 . S
C151 O153 1.256 1_554 S
O152 Cd144 2.381 . S
O152 C151 1.258 . S
O153 Cd144 2.378 1_556 S
O153 C151 1.256 1_556 S
O154 Cd155 2.300 1_545 S
O154 C161 1.275 . S
Cd155 O154 2.300 1_565 S
Cd155 O163 2.381 . S
Cd155 O164 2.378 . S
O156 Cd157 2.385 . S
O156 C161 1.255 . S
Cd157 O156 2.385 . S
Cd157 O158 2.317 . S
O158 Cd157 2.317 . S
O158 C159 1.232 . S
C159 O158 1.232 . S
C159 O160 1.218 . S
O160 C159 1.218 . S
C161 O154 1.275 . S
C161 O156 1.255 . S
C162 O163 1.258 . S
C162 O164 1.256 . S
O163 Cd155 2.381 . S
O163 C162 1.258 . S
O164 Cd155 2.378 . S
O164 C162 1.256 . S
O165 Cd166 2.300 . S
O165 C172 1.275 . S
Cd166 O165 2.300 . S
Cd166 O174 2.381 . S
Cd166 O175 2.378 1_556 S
O167 Cd168 2.385 1_556 S
O167 C172 1.255 . S
Cd168 O167 2.385 1_554 S
Cd168 O169 2.317 . S
O169 Cd168 2.317 . S
O169 C170 1.232 . S
C170 O169 1.232 . S
C170 O171 1.218 . S
O171 C170 1.218 . S
C172 O165 1.275 . S
C172 O167 1.255 . S
C173 O174 1.258 1_554 S
C173 O175 1.256 . S
O174 Cd166 2.381 . S
O174 C173 1.258 1_556 S
O175 Cd166 2.378 1_554 S
O175 C173 1.256 . S
C176 C177 1.391 . S
C176 C178 1.394 . S
C176 H192 0.931 . S
C177 C176 1.391 . S
C177 C181 1.376 . S
C178 C176 1.394 . S
C178 C179 1.369 . S
C178 C182 1.531 . S
C179 C178 1.369 . S
C179 C180 1.410 . S
C179 C187 1.503 . S
C180 C179 1.410 . S
C180 C181 1.392 . S
C180 C183 1.511 . S
C181 C177 1.376 . S
C181 C180 1.392 . S
C181 H193 0.929 . S
C182 C178 1.531 . S
C182 H194 0.960 . S
C182 H195 0.962 . S
C182 H196 0.960 . S
C183 C180 1.511 . S
C183 H197 0.961 . S
C183 H198 0.961 . S
C183 H199 0.961 . S
C184 C185 1.370 . S
C184 C186 1.363 . S
C184 H200 0.931 . S
C185 C184 1.370 . S
C185 C189 1.408 . S
C186 C184 1.363 . S
C186 C187 1.370 . S
C186 C190 1.524 . S
C187 C179 1.503 . S
C187 C186 1.370 . S
C187 C188 1.403 . S
C188 C187 1.403 . S
C188 C189 1.404 . S
C188 C191 1.539 . S
C189 C185 1.408 . S
C189 C188 1.404 . S
C189 H201 0.930 . S
C190 C186 1.524 . S
C190 H202 0.956 . S
C190 H203 0.961 . S
C190 H204 0.961 . S
C191 C188 1.539 . S
C191 H205 0.958 . S
C191 H206 0.961 . S
C191 H207 0.960 . S
H192 C176 0.931 . S
H193 C181 0.929 . S
H194 C182 0.960 . S
H195 C182 0.962 . S
H196 C182 0.960 . S
H197 C183 0.961 . S
H198 C183 0.961 . S
H199 C183 0.961 . S
H200 C184 0.931 . S
H201 C189 0.930 . S
H202 C190 0.956 . S
H203 C190 0.961 . S
H204 C190 0.961 . S
H205 C191 0.958 . S
H206 C191 0.961 . S
H207 C191 0.960 . S
C208 C209 1.391 . S
C208 C210 1.394 . S
C208 H224 0.931 . S
C209 C208 1.391 . S
C209 C213 1.376 . S
C210 C208 1.394 . S
C210 C211 1.369 . S
C210 C214 1.531 . S
C211 C210 1.369 . S
C211 C212 1.410 . S
C211 C219 1.503 . S
C212 C211 1.410 . S
C212 C213 1.392 . S
C212 C215 1.511 . S
C213 C209 1.376 . S
C213 C212 1.392 . S
C213 H225 0.929 . S
C214 C210 1.531 . S
C214 H226 0.960 . S
C214 H227 0.962 . S
C214 H228 0.960 . S
C215 C212 1.511 . S
C215 H229 0.961 . S
C215 H230 0.961 . S
C215 H231 0.961 . S
C216 C217 1.370 . S
C216 C218 1.363 . S
C216 H232 0.931 . S
C217 C216 1.370 . S
C217 C221 1.408 . S
C218 C216 1.363 . S
C218 C219 1.370 . S
C218 C222 1.524 . S
C219 C211 1.503 . S
C219 C218 1.370 . S
C219 C220 1.403 . S
C220 C219 1.403 . S
C220 C221 1.404 . S
C220 C223 1.539 . S
C221 C217 1.408 . S
C221 C220 1.404 . S
C221 H233 0.930 . S
C222 C218 1.524 . S
C222 H234 0.956 . S
C222 H235 0.961 . S
C222 H236 0.961 . S
C223 C220 1.539 . S
C223 H237 0.958 . S
C223 H238 0.961 . S
C223 H239 0.960 . S
H224 C208 0.931 . S
H225 C213 0.929 . S
H226 C214 0.960 . S
H227 C214 0.962 . S
H228 C214 0.960 . S
H229 C215 0.961 . S
H230 C215 0.961 . S
H231 C215 0.961 . S
H232 C216 0.931 . S
H233 C221 0.930 . S
H234 C222 0.956 . S
H235 C222 0.961 . S
H236 C222 0.961 . S
H237 C223 0.958 . S
H238 C223 0.961 . S
H239 C223 0.960 . S
C240 C241 1.391 . S
C240 C242 1.394 . S
C240 H256 0.931 . S
C241 C240 1.391 . S
C241 C245 1.376 . S
C242 C240 1.394 . S
C242 C243 1.369 . S
C242 C246 1.531 . S
C243 C242 1.369 . S
C243 C244 1.410 . S
C243 C251 1.503 . S
C244 C243 1.410 . S
C244 C245 1.392 . S
C244 C247 1.511 . S
C245 C241 1.376 . S
C245 C244 1.392 . S
C245 H257 0.929 . S
C246 C242 1.531 . S
C246 H258 0.960 . S
C246 H259 0.962 . S
C246 H260 0.960 . S
C247 C244 1.511 . S
C247 H261 0.961 . S
C247 H262 0.961 . S
C247 H263 0.961 . S
C248 C249 1.370 . S
C248 C250 1.363 . S
C248 H264 0.931 . S
C249 C248 1.370 . S
C249 C253 1.408 . S
C250 C248 1.363 . S
C250 C251 1.370 . S
C250 C254 1.524 . S
C251 C243 1.503 . S
C251 C250 1.370 . S
C251 C252 1.403 . S
C252 C251 1.403 . S
C252 C253 1.404 . S
C252 C255 1.539 . S
C253 C249 1.408 . S
C253 C252 1.404 . S
C253 H265 0.930 . S
C254 C250 1.524 . S
C254 H266 0.956 . S
C254 H267 0.961 . S
C254 H268 0.961 . S
C255 C252 1.539 . S
C255 H269 0.958 . S
C255 H270 0.961 . S
C255 H271 0.960 . S
H256 C240 0.931 . S
H257 C245 0.929 . S
H258 C246 0.960 . S
H259 C246 0.962 . S
H260 C246 0.960 . S
H261 C247 0.961 . S
H262 C247 0.961 . S
H263 C247 0.961 . S
H264 C248 0.931 . S
H265 C253 0.930 . S
H266 C254 0.956 . S
H267 C254 0.961 . S
H268 C254 0.961 . S
H269 C255 0.958 . S
H270 C255 0.961 . S
H271 C255 0.960 . S
C272 C273 1.391 . S
C272 C274 1.394 . S
C272 H288 0.931 . S
C273 C272 1.391 . S
C273 C277 1.376 . S
C274 C272 1.394 . S
C274 C275 1.369 . S
C274 C278 1.531 . S
C275 C274 1.369 . S
C275 C276 1.410 . S
C275 C283 1.503 . S
C276 C275 1.410 . S
C276 C277 1.392 . S
C276 C279 1.511 . S
C277 C273 1.376 . S
C277 C276 1.392 . S
C277 H289 0.929 . S
C278 C274 1.531 . S
C278 H290 0.960 . S
C278 H291 0.962 . S
C278 H292 0.960 . S
C279 C276 1.511 . S
C279 H293 0.961 . S
C279 H294 0.961 . S
C279 H295 0.961 . S
C280 C281 1.370 . S
C280 C282 1.363 . S
C280 H296 0.931 . S
C281 C280 1.370 . S
C281 C285 1.408 . S
C282 C280 1.363 . S
C282 C283 1.370 . S
C282 C286 1.524 . S
C283 C275 1.503 . S
C283 C282 1.370 . S
C283 C284 1.403 . S
C284 C283 1.403 . S
C284 C285 1.404 . S
C284 C287 1.539 . S
C285 C281 1.408 . S
C285 C284 1.404 . S
C285 H297 0.930 . S
C286 C282 1.524 . S
C286 H298 0.956 . S
C286 H299 0.961 . S
C286 H300 0.961 . S
C287 C284 1.539 . S
C287 H301 0.958 . S
C287 H302 0.961 . S
C287 H303 0.960 . S
H288 C272 0.931 . S
H289 C277 0.929 . S
H290 C278 0.960 . S
H291 C278 0.962 . S
H292 C278 0.960 . S
H293 C279 0.961 . S
H294 C279 0.961 . S
H295 C279 0.961 . S
H296 C280 0.931 . S
H297 C285 0.930 . S
H298 C286 0.956 . S
H299 C286 0.961 . S
H300 C286 0.961 . S
H301 C287 0.958 . S
H302 C287 0.961 . S
H303 C287 0.960 . S
C304 C305 1.391 . S
C304 C306 1.394 . S
C304 H320 0.931 . S
C305 C304 1.391 . S
C305 C309 1.376 . S
C306 C304 1.394 . S
C306 C307 1.369 . S
C306 C310 1.531 . S
C307 C306 1.369 . S
C307 C308 1.410 . S
C307 C315 1.503 . S
C308 C307 1.410 . S
C308 C309 1.392 . S
C308 C311 1.511 . S
C309 C305 1.376 . S
C309 C308 1.392 . S
C309 H321 0.929 . S
C310 C306 1.531 . S
C310 H322 0.960 . S
C310 H323 0.962 . S
C310 H324 0.960 . S
C311 C308 1.511 . S
C311 H325 0.961 . S
C311 H326 0.961 . S
C311 H327 0.961 . S
C312 C313 1.370 . S
C312 C314 1.363 . S
C312 H328 0.931 . S
C313 C312 1.370 . S
C313 C317 1.408 . S
C314 C312 1.363 . S
C314 C315 1.370 . S
C314 C318 1.524 . S
C315 C307 1.503 . S
C315 C314 1.370 . S
C315 C316 1.403 . S
C316 C315 1.403 . S
C316 C317 1.404 . S
C316 C319 1.539 . S
C317 C313 1.408 . S
C317 C316 1.404 . S
C317 H329 0.930 . S
C318 C314 1.524 . S
C318 H330 0.956 . S
C318 H331 0.961 . S
C318 H332 0.961 . S
C319 C316 1.539 . S
C319 H333 0.958 . S
C319 H334 0.961 . S
C319 H335 0.960 . S
H320 C304 0.931 . S
H321 C309 0.929 . S
H322 C310 0.960 . S
H323 C310 0.962 . S
H324 C310 0.960 . S
H325 C311 0.961 . S
H326 C311 0.961 . S
H327 C311 0.961 . S
H328 C312 0.931 . S
H329 C317 0.930 . S
H330 C318 0.956 . S
H331 C318 0.961 . S
H332 C318 0.961 . S
H333 C319 0.958 . S
H334 C319 0.961 . S
H335 C319 0.960 . S
C336 C337 1.391 . S
C336 C338 1.394 . S
C336 H352 0.931 . S
C337 C336 1.391 . S
C337 C341 1.376 . S
C338 C336 1.394 . S
C338 C339 1.369 . S
C338 C342 1.531 . S
C339 C338 1.369 . S
C339 C340 1.410 . S
C339 C347 1.503 . S
C340 C339 1.410 . S
C340 C341 1.392 . S
C340 C343 1.511 . S
C341 C337 1.376 . S
C341 C340 1.392 . S
C341 H353 0.929 . S
C342 C338 1.531 . S
C342 H354 0.960 . S
C342 H355 0.962 . S
C342 H356 0.960 . S
C343 C340 1.511 . S
C343 H357 0.961 . S
C343 H358 0.961 . S
C343 H359 0.961 . S
C344 C345 1.370 . S
C344 C346 1.363 . S
C344 H360 0.931 . S
C345 C344 1.370 . S
C345 C349 1.408 . S
C346 C344 1.363 . S
C346 C347 1.370 . S
C346 C350 1.524 . S
C347 C339 1.503 . S
C347 C346 1.370 . S
C347 C348 1.403 . S
C348 C347 1.403 . S
C348 C349 1.404 . S
C348 C351 1.539 . S
C349 C345 1.408 . S
C349 C348 1.404 . S
C349 H361 0.930 . S
C350 C346 1.524 . S
C350 H362 0.956 . S
C350 H363 0.961 . S
C350 H364 0.961 . S
C351 C348 1.539 . S
C351 H365 0.958 . S
C351 H366 0.961 . S
C351 H367 0.960 . S
H352 C336 0.931 . S
H353 C341 0.929 . S
H354 C342 0.960 . S
H355 C342 0.962 . S
H356 C342 0.960 . S
H357 C343 0.961 . S
H358 C343 0.961 . S
H359 C343 0.961 . S
H360 C344 0.931 . S
H361 C349 0.930 . S
H362 C350 0.956 . S
H363 C350 0.961 . S
H364 C350 0.961 . S
H365 C351 0.958 . S
H366 C351 0.961 . S
H367 C351 0.960 . S
C368 C369 1.391 . S
C368 C370 1.394 . S
C368 H384 0.931 . S
C369 C368 1.391 . S
C369 C373 1.376 . S
C370 C368 1.394 . S
C370 C371 1.369 . S
C370 C374 1.531 . S
C371 C370 1.369 . S
C371 C372 1.410 . S
C371 C379 1.503 . S
C372 C371 1.410 . S
C372 C373 1.392 . S
C372 C375 1.511 . S
C373 C369 1.376 . S
C373 C372 1.392 . S
C373 H385 0.929 . S
C374 C370 1.531 . S
C374 H386 0.960 . S
C374 H387 0.962 . S
C374 H388 0.960 . S
C375 C372 1.511 . S
C375 H389 0.961 . S
C375 H390 0.961 . S
C375 H391 0.961 . S
C376 C377 1.370 . S
C376 C378 1.363 . S
C376 H392 0.931 . S
C377 C376 1.370 . S
C377 C381 1.408 . S
C378 C376 1.363 . S
C378 C379 1.370 . S
C378 C382 1.524 . S
C379 C371 1.503 . S
C379 C378 1.370 . S
C379 C380 1.403 . S
C380 C379 1.403 . S
C380 C381 1.404 . S
C380 C383 1.539 . S
C381 C377 1.408 . S
C381 C380 1.404 . S
C381 H393 0.930 . S
C382 C378 1.524 . S
C382 H394 0.956 . S
C382 H395 0.961 . S
C382 H396 0.961 . S
C383 C380 1.539 . S
C383 H397 0.958 . S
C383 H398 0.961 . S
C383 H399 0.960 . S
H384 C368 0.931 . S
H385 C373 0.929 . S
H386 C374 0.960 . S
H387 C374 0.962 . S
H388 C374 0.960 . S
H389 C375 0.961 . S
H390 C375 0.961 . S
H391 C375 0.961 . S
H392 C376 0.931 . S
H393 C381 0.930 . S
H394 C382 0.956 . S
H395 C382 0.961 . S
H396 C382 0.961 . S
H397 C383 0.958 . S
H398 C383 0.961 . S
H399 C383 0.960 . S
C400 C401 1.391 . S
C400 C402 1.394 . S
C400 H416 0.931 . S
C401 C400 1.391 . S
C401 C405 1.376 . S
C402 C400 1.394 . S
C402 C403 1.369 . S
C402 C406 1.531 . S
C403 C402 1.369 . S
C403 C404 1.410 . S
C403 C411 1.503 . S
C404 C403 1.410 . S
C404 C405 1.392 . S
C404 C407 1.511 . S
C405 C401 1.376 . S
C405 C404 1.392 . S
C405 H417 0.929 . S
C406 C402 1.531 . S
C406 H418 0.960 . S
C406 H419 0.962 . S
C406 H420 0.960 . S
C407 C404 1.511 . S
C407 H421 0.961 . S
C407 H422 0.961 . S
C407 H423 0.961 . S
C408 C409 1.370 . S
C408 C410 1.363 . S
C408 H424 0.931 . S
C409 C408 1.370 . S
C409 C413 1.408 . S
C410 C408 1.363 . S
C410 C411 1.370 . S
C410 C414 1.524 . S
C411 C403 1.503 . S
C411 C410 1.370 . S
C411 C412 1.403 . S
C412 C411 1.403 . S
C412 C413 1.404 . S
C412 C415 1.539 . S
C413 C409 1.408 . S
C413 C412 1.404 . S
C413 H425 0.930 . S
C414 C410 1.524 . S
C414 H426 0.956 . S
C414 H427 0.961 . S
C414 H428 0.961 . S
C415 C412 1.539 . S
C415 H429 0.958 . S
C415 H430 0.961 . S
C415 H431 0.960 . S
H416 C400 0.931 . S
H417 C405 0.929 . S
H418 C406 0.960 . S
H419 C406 0.962 . S
H420 C406 0.960 . S
H421 C407 0.961 . S
H422 C407 0.961 . S
H423 C407 0.961 . S
H424 C408 0.931 . S
H425 C413 0.930 . S
H426 C414 0.956 . S
H427 C414 0.961 . S
H428 C414 0.961 . S
H429 C415 0.958 . S
H430 C415 0.961 . S
H431 C415 0.960 . S
C432 C433 1.391 . S
C432 C434 1.394 . S
C432 H448 0.931 . S
C433 C432 1.391 . S
C433 C437 1.376 . S
C434 C432 1.394 . S
C434 C435 1.369 . S
C434 C438 1.531 . S
C435 C434 1.369 . S
C435 C436 1.410 . S
C435 C443 1.503 . S
C436 C435 1.410 . S
C436 C437 1.392 . S
C436 C439 1.511 . S
C437 C433 1.376 . S
C437 C436 1.392 . S
C437 H449 0.929 . S
C438 C434 1.531 . S
C438 H450 0.960 . S
C438 H451 0.962 . S
C438 H452 0.960 . S
C439 C436 1.511 . S
C439 H453 0.961 . S
C439 H454 0.961 . S
C439 H455 0.961 . S
C440 C441 1.370 . S
C440 C442 1.363 . S
C440 H456 0.931 . S
C441 C440 1.370 . S
C441 C445 1.408 . S
C442 C440 1.363 . S
C442 C443 1.370 . S
C442 C446 1.524 . S
C443 C435 1.503 . S
C443 C442 1.370 . S
C443 C444 1.403 . S
C444 C443 1.403 . S
C444 C445 1.404 . S
C444 C447 1.539 . S
C445 C441 1.408 . S
C445 C444 1.404 . S
C445 H457 0.930 . S
C446 C442 1.524 . S
C446 H458 0.956 . S
C446 H459 0.961 . S
C446 H460 0.961 . S
C447 C444 1.539 . S
C447 H461 0.958 . S
C447 H462 0.961 . S
C447 H463 0.960 . S
H448 C432 0.931 . S
H449 C437 0.929 . S
H450 C438 0.960 . S
H451 C438 0.962 . S
H452 C438 0.960 . S
H453 C439 0.961 . S
H454 C439 0.961 . S
H455 C439 0.961 . S
H456 C440 0.931 . S
H457 C445 0.930 . S
H458 C446 0.956 . S
H459 C446 0.961 . S
H460 C446 0.961 . S
H461 C447 0.958 . S
H462 C447 0.961 . S
H463 C447 0.960 . S
C464 C465 1.391 . S
C464 C466 1.394 . S
C464 H480 0.931 . S
C465 C464 1.391 . S
C465 C469 1.376 . S
C466 C464 1.394 . S
C466 C467 1.369 . S
C466 C470 1.531 . S
C467 C466 1.369 . S
C467 C468 1.410 . S
C467 C475 1.503 . S
C468 C467 1.410 . S
C468 C469 1.392 . S
C468 C471 1.511 . S
C469 C465 1.376 . S
C469 C468 1.392 . S
C469 H481 0.929 . S
C470 C466 1.531 . S
C470 H482 0.960 . S
C470 H483 0.962 . S
C470 H484 0.960 . S
C471 C468 1.511 . S
C471 H485 0.961 . S
C471 H486 0.961 . S
C471 H487 0.961 . S
C472 C473 1.370 . S
C472 C474 1.363 . S
C472 H488 0.931 . S
C473 C472 1.370 . S
C473 C477 1.408 . S
C474 C472 1.363 . S
C474 C475 1.370 . S
C474 C478 1.524 . S
C475 C467 1.503 . S
C475 C474 1.370 . S
C475 C476 1.403 . S
C476 C475 1.403 . S
C476 C477 1.404 . S
C476 C479 1.539 . S
C477 C473 1.408 . S
C477 C476 1.404 . S
C477 H489 0.930 . S
C478 C474 1.524 . S
C478 H490 0.956 . S
C478 H491 0.961 . S
C478 H492 0.961 . S
C479 C476 1.539 . S
C479 H493 0.958 . S
C479 H494 0.961 . S
C479 H495 0.960 . S
H480 C464 0.931 . S
H481 C469 0.929 . S
H482 C470 0.960 . S
H483 C470 0.962 . S
H484 C470 0.960 . S
H485 C471 0.961 . S
H486 C471 0.961 . S
H487 C471 0.961 . S
H488 C472 0.931 . S
H489 C477 0.930 . S
H490 C478 0.956 . S
H491 C478 0.961 . S
H492 C478 0.961 . S
H493 C479 0.958 . S
H494 C479 0.961 . S
H495 C479 0.960 . S
C496 C497 1.391 . S
C496 C498 1.394 . S
C496 H512 0.931 . S
C497 C496 1.391 . S
C497 C501 1.376 . S
C498 C496 1.394 . S
C498 C499 1.369 . S
C498 C502 1.531 . S
C499 C498 1.369 . S
C499 C500 1.410 . S
C499 C507 1.503 . S
C500 C499 1.410 . S
C500 C501 1.392 . S
C500 C503 1.511 . S
C501 C497 1.376 . S
C501 C500 1.392 . S
C501 H513 0.929 . S
C502 C498 1.531 . S
C502 H514 0.960 . S
C502 H515 0.962 . S
C502 H516 0.960 . S
C503 C500 1.511 . S
C503 H517 0.961 . S
C503 H518 0.961 . S
C503 H519 0.961 . S
C504 C505 1.370 . S
C504 C506 1.363 . S
C504 H520 0.931 . S
C505 C504 1.370 . S
C505 C509 1.408 . S
C506 C504 1.363 . S
C506 C507 1.370 . S
C506 C510 1.524 . S
C507 C499 1.503 . S
C507 C506 1.370 . S
C507 C508 1.403 . S
C508 C507 1.403 . S
C508 C509 1.404 . S
C508 C511 1.539 . S
C509 C505 1.408 . S
C509 C508 1.404 . S
C509 H521 0.930 . S
C510 C506 1.524 . S
C510 H522 0.956 . S
C510 H523 0.961 . S
C510 H524 0.961 . S
C511 C508 1.539 . S
C511 H525 0.958 . S
C511 H526 0.961 . S
C511 H527 0.960 . S
H512 C496 0.931 . S
H513 C501 0.929 . S
H514 C502 0.960 . S
H515 C502 0.962 . S
H516 C502 0.960 . S
H517 C503 0.961 . S
H518 C503 0.961 . S
H519 C503 0.961 . S
H520 C504 0.931 . S
H521 C509 0.930 . S
H522 C510 0.956 . S
H523 C510 0.961 . S
H524 C510 0.961 . S
H525 C511 0.958 . S
H526 C511 0.961 . S
H527 C511 0.960 . S
C528 C529 1.391 . S
C528 C530 1.394 . S
C528 H544 0.931 . S
C529 C528 1.391 . S
C529 C533 1.376 . S
C530 C528 1.394 . S
C530 C531 1.369 . S
C530 C534 1.531 . S
C531 C530 1.369 . S
C531 C532 1.410 . S
C531 C539 1.503 . S
C532 C531 1.410 . S
C532 C533 1.392 . S
C532 C535 1.511 . S
C533 C529 1.376 . S
C533 C532 1.392 . S
C533 H545 0.929 . S
C534 C530 1.531 . S
C534 H546 0.960 . S
C534 H547 0.962 . S
C534 H548 0.960 . S
C535 C532 1.511 . S
C535 H549 0.961 . S
C535 H550 0.961 . S
C535 H551 0.961 . S
C536 C537 1.370 . S
C536 C538 1.363 . S
C536 H552 0.931 . S
C537 C536 1.370 . S
C537 C541 1.408 . S
C538 C536 1.363 . S
C538 C539 1.370 . S
C538 C542 1.524 . S
C539 C531 1.503 . S
C539 C538 1.370 . S
C539 C540 1.403 . S
C540 C539 1.403 . S
C540 C541 1.404 . S
C540 C543 1.539 . S
C541 C537 1.408 . S
C541 C540 1.404 . S
C541 H553 0.930 . S
C542 C538 1.524 . S
C542 H554 0.956 . S
C542 H555 0.961 . S
C542 H556 0.961 . S
C543 C540 1.539 . S
C543 H557 0.958 . S
C543 H558 0.961 . S
C543 H559 0.960 . S
H544 C528 0.931 . S
H545 C533 0.929 . S
H546 C534 0.960 . S
H547 C534 0.962 . S
H548 C534 0.960 . S
H549 C535 0.961 . S
H550 C535 0.961 . S
H551 C535 0.961 . S
H552 C536 0.931 . S
H553 C541 0.930 . S
H554 C542 0.956 . S
H555 C542 0.961 . S
H556 C542 0.961 . S
H557 C543 0.958 . S
H558 C543 0.961 . S
H559 C543 0.960 . S
C560 C561 1.391 . S
C560 C562 1.394 . S
C560 H576 0.931 . S
C561 C560 1.391 . S
C561 C565 1.376 . S
C562 C560 1.394 . S
C562 C563 1.369 . S
C562 C566 1.531 . S
C563 C562 1.369 . S
C563 C564 1.410 . S
C563 C571 1.503 . S
C564 C563 1.410 . S
C564 C565 1.392 . S
C564 C567 1.511 . S
C565 C561 1.376 . S
C565 C564 1.392 . S
C565 H577 0.929 . S
C566 C562 1.531 . S
C566 H578 0.960 . S
C566 H579 0.962 . S
C566 H580 0.960 . S
C567 C564 1.511 . S
C567 H581 0.961 . S
C567 H582 0.961 . S
C567 H583 0.961 . S
C568 C569 1.370 . S
C568 C570 1.363 . S
C568 H584 0.931 . S
C569 C568 1.370 . S
C569 C573 1.408 . S
C570 C568 1.363 . S
C570 C571 1.370 . S
C570 C574 1.524 . S
C571 C563 1.503 . S
C571 C570 1.370 . S
C571 C572 1.403 . S
C572 C571 1.403 . S
C572 C573 1.404 . S
C572 C575 1.539 . S
C573 C569 1.408 . S
C573 C572 1.404 . S
C573 H585 0.930 . S
C574 C570 1.524 . S
C574 H586 0.956 . S
C574 H587 0.961 . S
C574 H588 0.961 . S
C575 C572 1.539 . S
C575 H589 0.958 . S
C575 H590 0.961 . S
C575 H591 0.960 . S
H576 C560 0.931 . S
H577 C565 0.929 . S
H578 C566 0.960 . S
H579 C566 0.962 . S
H580 C566 0.960 . S
H581 C567 0.961 . S
H582 C567 0.961 . S
H583 C567 0.961 . S
H584 C568 0.931 . S
H585 C573 0.930 . S
H586 C574 0.956 . S
H587 C574 0.961 . S
H588 C574 0.961 . S
H589 C575 0.958 . S
H590 C575 0.961 . S
H591 C575 0.960 . S
C592 C593 1.391 . S
C592 C594 1.394 . S
C592 H608 0.931 . S
C593 C592 1.391 . S
C593 C597 1.376 . S
C594 C592 1.394 . S
C594 C595 1.369 . S
C594 C598 1.531 . S
C595 C594 1.369 . S
C595 C596 1.410 . S
C595 C603 1.503 . S
C596 C595 1.410 . S
C596 C597 1.392 . S
C596 C599 1.511 . S
C597 C593 1.376 . S
C597 C596 1.392 . S
C597 H609 0.929 . S
C598 C594 1.531 . S
C598 H610 0.960 . S
C598 H611 0.962 . S
C598 H612 0.960 . S
C599 C596 1.511 . S
C599 H613 0.961 . S
C599 H614 0.961 . S
C599 H615 0.961 . S
C600 C601 1.370 . S
C600 C602 1.363 . S
C600 H616 0.931 . S
C601 C600 1.370 . S
C601 C605 1.408 . S
C602 C600 1.363 . S
C602 C603 1.370 . S
C602 C606 1.524 . S
C603 C595 1.503 . S
C603 C602 1.370 . S
C603 C604 1.403 . S
C604 C603 1.403 . S
C604 C605 1.404 . S
C604 C607 1.539 . S
C605 C601 1.408 . S
C605 C604 1.404 . S
C605 H617 0.930 . S
C606 C602 1.524 . S
C606 H618 0.956 . S
C606 H619 0.961 . S
C606 H620 0.961 . S
C607 C604 1.539 . S
C607 H621 0.958 . S
C607 H622 0.961 . S
C607 H623 0.960 . S
H608 C592 0.931 . S
H609 C597 0.929 . S
H610 C598 0.960 . S
H611 C598 0.962 . S
H612 C598 0.960 . S
H613 C599 0.961 . S
H614 C599 0.961 . S
H615 C599 0.961 . S
H616 C600 0.931 . S
H617 C605 0.930 . S
H618 C606 0.956 . S
H619 C606 0.961 . S
H620 C606 0.961 . S
H621 C607 0.958 . S
H622 C607 0.961 . S
H623 C607 0.960 . S
C624 C625 1.391 . S
C624 C626 1.394 . S
C624 H640 0.931 . S
C625 C624 1.391 . S
C625 C629 1.376 . S
C626 C624 1.394 . S
C626 C627 1.369 . S
C626 C630 1.531 . S
C627 C626 1.369 . S
C627 C628 1.410 . S
C627 C635 1.503 . S
C628 C627 1.410 . S
C628 C629 1.392 . S
C628 C631 1.511 . S
C629 C625 1.376 . S
C629 C628 1.392 . S
C629 H641 0.929 . S
C630 C626 1.531 . S
C630 H642 0.960 . S
C630 H643 0.962 . S
C630 H644 0.960 . S
C631 C628 1.511 . S
C631 H645 0.961 . S
C631 H646 0.961 . S
C631 H647 0.961 . S
C632 C633 1.370 . S
C632 C634 1.363 . S
C632 H648 0.931 . S
C633 C632 1.370 . S
C633 C637 1.408 . S
C634 C632 1.363 . S
C634 C635 1.370 . S
C634 C638 1.524 . S
C635 C627 1.503 . S
C635 C634 1.370 . S
C635 C636 1.403 . S
C636 C635 1.403 . S
C636 C637 1.404 . S
C636 C639 1.539 . S
C637 C633 1.408 . S
C637 C636 1.404 . S
C637 H649 0.930 . S
C638 C634 1.524 . S
C638 H650 0.956 . S
C638 H651 0.961 . S
C638 H652 0.961 . S
C639 C636 1.539 . S
C639 H653 0.958 . S
C639 H654 0.961 . S
C639 H655 0.960 . S
H640 C624 0.931 . S
H641 C629 0.929 . S
H642 C630 0.960 . S
H643 C630 0.962 . S
H644 C630 0.960 . S
H645 C631 0.961 . S
H646 C631 0.961 . S
H647 C631 0.961 . S
H648 C632 0.931 . S
H649 C637 0.930 . S
H650 C638 0.956 . S
H651 C638 0.961 . S
H652 C638 0.961 . S
H653 C639 0.958 . S
H654 C639 0.961 . S
H655 C639 0.960 . S
C656 C657 1.391 . S
C656 C658 1.394 . S
C656 H672 0.931 . S
C657 C656 1.391 . S
C657 C661 1.376 . S
C658 C656 1.394 . S
C658 C659 1.369 . S
C658 C662 1.531 . S
C659 C658 1.369 . S
C659 C660 1.410 . S
C659 C667 1.503 . S
C660 C659 1.410 . S
C660 C661 1.392 . S
C660 C663 1.511 . S
C661 C657 1.376 . S
C661 C660 1.392 . S
C661 H673 0.929 . S
C662 C658 1.531 . S
C662 H674 0.960 . S
C662 H675 0.962 . S
C662 H676 0.960 . S
C663 C660 1.511 . S
C663 H677 0.961 . S
C663 H678 0.961 . S
C663 H679 0.961 . S
C664 C665 1.370 . S
C664 C666 1.363 . S
C664 H680 0.931 . S
C665 C664 1.370 . S
C665 C669 1.408 . S
C666 C664 1.363 . S
C666 C667 1.370 . S
C666 C670 1.524 . S
C667 C659 1.503 . S
C667 C666 1.370 . S
C667 C668 1.403 . S
C668 C667 1.403 . S
C668 C669 1.404 . S
C668 C671 1.539 . S
C669 C665 1.408 . S
C669 C668 1.404 . S
C669 H681 0.930 . S
C670 C666 1.524 . S
C670 H682 0.956 . S
C670 H683 0.961 . S
C670 H684 0.961 . S
C671 C668 1.539 . S
C671 H685 0.958 . S
C671 H686 0.961 . S
C671 H687 0.960 . S
H672 C656 0.931 . S
H673 C661 0.929 . S
H674 C662 0.960 . S
H675 C662 0.962 . S
H676 C662 0.960 . S
H677 C663 0.961 . S
H678 C663 0.961 . S
H679 C663 0.961 . S
H680 C664 0.931 . S
H681 C669 0.930 . S
H682 C670 0.956 . S
H683 C670 0.961 . S
H684 C670 0.961 . S
H685 C671 0.958 . S
H686 C671 0.961 . S
H687 C671 0.960 . S
C688 C689 1.389 1_556 S
C688 C690 1.392 1_556 S
C688 H704 0.935 . S
C689 C688 1.389 1_554 S
C689 C693 1.376 . S
C690 C688 1.392 1_554 S
C690 C691 1.369 . S
C690 C694 1.531 1_554 S
C691 C690 1.369 . S
C691 C692 1.410 . S
C691 C699 1.503 . S
C692 C691 1.410 . S
C692 C693 1.392 . S
C692 C695 1.511 . S
C693 C689 1.376 . S
C693 C692 1.392 . S
C693 H705 0.929 . S
C694 C690 1.531 1_556 S
C694 H706 0.960 1_556 S
C694 H707 0.962 . S
C694 H708 0.960 . S
C695 C692 1.511 . S
C695 H709 0.961 . S
C695 H710 0.961 . S
C695 H711 0.961 . S
C696 C697 1.370 1_556 S
C696 C698 1.363 . S
C696 H712 0.931 . S
C697 C696 1.370 1_554 S
C697 C701 1.408 . S
C698 C696 1.363 . S
C698 C699 1.370 1_556 S
C698 C702 1.524 . S
C699 C691 1.503 . S
C699 C698 1.370 1_554 S
C699 C700 1.403 . S
C700 C699 1.403 . S
C700 C701 1.404 . S
C700 C703 1.539 . S
C701 C697 1.408 . S
C701 C700 1.404 . S
C701 H713 0.930 . S
C702 C698 1.524 . S
C702 H714 0.956 . S
C702 H715 0.961 . S
C702 H716 0.961 . S
C703 C700 1.539 . S
C703 H717 0.958 . S
C703 H718 0.961 . S
C703 H719 0.960 . S
H704 C688 0.935 . S
H705 C693 0.929 . S
H706 C694 0.960 1_554 S
H707 C694 0.962 . S
H708 C694 0.960 . S
H709 C695 0.961 . S
H710 C695 0.961 . S
H711 C695 0.961 . S
H712 C696 0.931 . S
H713 C701 0.930 . S
H714 C702 0.956 . S
H715 C702 0.961 . S
H716 C702 0.961 . S
H717 C703 0.958 . S
H718 C703 0.961 . S
H719 C703 0.960 . S
C720 C721 1.391 . S
C720 C722 1.394 . S
C720 H736 0.931 . S
C721 C720 1.391 . S
C721 C725 1.376 . S
C722 C720 1.394 . S
C722 C723 1.369 . S
C722 C726 1.531 . S
C723 C722 1.369 . S
C723 C724 1.410 . S
C723 C731 1.503 . S
C724 C723 1.410 . S
C724 C725 1.392 . S
C724 C727 1.511 . S
C725 C721 1.376 . S
C725 C724 1.392 . S
C725 H737 0.929 . S
C726 C722 1.531 . S
C726 H738 0.960 . S
C726 H739 0.962 . S
C726 H740 0.960 . S
C727 C724 1.511 . S
C727 H741 0.961 . S
C727 H742 0.961 . S
C727 H743 0.961 . S
C728 C729 1.370 . S
C728 C730 1.363 . S
C728 H744 0.931 . S
C729 C728 1.370 . S
C729 C733 1.408 . S
C730 C728 1.363 . S
C730 C731 1.370 . S
C730 C734 1.524 . S
C731 C723 1.503 . S
C731 C730 1.370 . S
C731 C732 1.403 . S
C732 C731 1.403 . S
C732 C733 1.404 . S
C732 C735 1.539 . S
C733 C729 1.408 . S
C733 C732 1.404 . S
C733 H745 0.930 . S
C734 C730 1.524 . S
C734 H746 0.956 . S
C734 H747 0.961 . S
C734 H748 0.961 . S
C735 C732 1.539 . S
C735 H749 0.958 . S
C735 H750 0.961 . S
C735 H751 0.960 . S
H736 C720 0.931 . S
H737 C725 0.929 . S
H738 C726 0.960 . S
H739 C726 0.962 . S
H740 C726 0.960 . S
H741 C727 0.961 . S
H742 C727 0.961 . S
H743 C727 0.961 . S
H744 C728 0.931 . S
H745 C733 0.930 . S
H746 C734 0.956 . S
H747 C734 0.961 . S
H748 C734 0.961 . S
H749 C735 0.958 . S
H750 C735 0.961 . S
H751 C735 0.960 . S
C752 C753 1.391 . S
C752 C754 1.394 . S
C752 H768 0.931 . S
C753 C752 1.391 . S
C753 C757 1.376 1_554 S
C754 C752 1.394 . S
C754 C755 1.369 . S
C754 C758 1.531 . S
C755 C754 1.369 . S
C755 C756 1.410 1_554 S
C755 C763 1.503 . S
C756 C755 1.410 1_556 S
C756 C757 1.392 . S
C756 C759 1.511 . S
C757 C753 1.376 1_556 S
C757 C756 1.392 . S
C757 H769 0.929 . S
C758 C754 1.531 . S
C758 H770 0.960 . S
C758 H771 0.962 . S
C758 H772 0.960 . S
C759 C756 1.511 . S
C759 H773 0.961 . S
C759 H774 0.961 . S
C759 H775 0.961 . S
C760 C761 1.370 1_556 S
C760 C762 1.363 . S
C760 H776 0.931 . S
C761 C760 1.370 1_554 S
C761 C765 1.408 . S
C762 C760 1.363 . S
C762 C763 1.370 1_556 S
C762 C766 1.524 . S
C763 C755 1.503 . S
C763 C762 1.370 1_554 S
C763 C764 1.403 . S
C764 C763 1.403 . S
C764 C765 1.404 . S
C764 C767 1.539 . S
C765 C761 1.408 . S
C765 C764 1.404 . S
C765 H777 0.930 . S
C766 C762 1.524 . S
C766 H778 0.956 . S
C766 H779 0.961 . S
C766 H780 0.961 . S
C767 C764 1.539 . S
C767 H781 0.958 . S
C767 H782 0.961 . S
C767 H783 0.960 . S
H768 C752 0.931 . S
H769 C757 0.929 . S
H770 C758 0.960 . S
H771 C758 0.962 . S
H772 C758 0.960 . S
H773 C759 0.961 . S
H774 C759 0.961 . S
H775 C759 0.961 . S
H776 C760 0.931 . S
H777 C765 0.930 . S
H778 C766 0.956 . S
H779 C766 0.961 . S
H780 C766 0.961 . S
H781 C767 0.958 . S
H782 C767 0.961 . S
H783 C767 0.960 . S
C784 C785 1.391 . S
C784 C786 1.394 . S
C784 H800 0.931 . S
C785 C784 1.391 . S
C785 C789 1.376 . S
C786 C784 1.394 . S
C786 C787 1.369 . S
C786 C790 1.531 . S
C787 C786 1.369 . S
C787 C788 1.410 . S
C787 C795 1.503 . S
C788 C787 1.410 . S
C788 C789 1.392 . S
C788 C791 1.511 . S
C789 C785 1.376 . S
C789 C788 1.392 . S
C789 H801 0.929 . S
C790 C786 1.531 . S
C790 H802 0.960 . S
C790 H803 0.962 . S
C790 H804 0.960 . S
C791 C788 1.511 . S
C791 H805 0.961 . S
C791 H806 0.961 . S
C791 H807 0.961 . S
C792 C793 1.370 . S
C792 C794 1.363 . S
C792 H808 0.931 . S
C793 C792 1.370 . S
C793 C797 1.408 . S
C794 C792 1.363 . S
C794 C795 1.370 . S
C794 C798 1.524 . S
C795 C787 1.503 . S
C795 C794 1.370 . S
C795 C796 1.403 . S
C796 C795 1.403 . S
C796 C797 1.404 . S
C796 C799 1.539 . S
C797 C793 1.408 . S
C797 C796 1.404 . S
C797 H809 0.930 . S
C798 C794 1.524 . S
C798 H810 0.956 . S
C798 H811 0.961 . S
C798 H812 0.961 . S
C799 C796 1.539 . S
C799 H813 0.958 . S
C799 H814 0.961 . S
C799 H815 0.960 . S
H800 C784 0.931 . S
H801 C789 0.929 . S
H802 C790 0.960 . S
H803 C790 0.962 . S
H804 C790 0.960 . S
H805 C791 0.961 . S
H806 C791 0.961 . S
H807 C791 0.961 . S
H808 C792 0.931 . S
H809 C797 0.930 . S
H810 C798 0.956 . S
H811 C798 0.961 . S
H812 C798 0.961 . S
H813 C799 0.958 . S
H814 C799 0.961 . S
H815 C799 0.960 . S
C816 C817 1.391 . S
C816 C818 1.394 . S
C816 H832 0.931 . S
C817 C816 1.391 . S
C817 C821 1.376 . S
C818 C816 1.394 . S
C818 C819 1.369 . S
C818 C822 1.531 . S
C819 C818 1.369 . S
C819 C820 1.410 . S
C819 C827 1.503 . S
C820 C819 1.410 . S
C820 C821 1.392 . S
C820 C823 1.511 . S
C821 C817 1.376 . S
C821 C820 1.392 . S
C821 H833 0.929 . S
C822 C818 1.531 . S
C822 H834 0.960 . S
C822 H835 0.962 . S
C822 H836 0.960 . S
C823 C820 1.511 . S
C823 H837 0.961 . S
C823 H838 0.961 . S
C823 H839 0.961 . S
C824 C825 1.370 . S
C824 C826 1.363 . S
C824 H840 0.931 . S
C825 C824 1.370 . S
C825 C829 1.408 . S
C826 C824 1.363 . S
C826 C827 1.370 . S
C826 C830 1.524 . S
C827 C819 1.503 . S
C827 C826 1.370 . S
C827 C828 1.403 . S
C828 C827 1.403 . S
C828 C829 1.404 . S
C828 C831 1.539 . S
C829 C825 1.408 . S
C829 C828 1.404 . S
C829 H841 0.930 . S
C830 C826 1.524 . S
C830 H842 0.956 . S
C830 H843 0.961 . S
C830 H844 0.961 . S
C831 C828 1.539 . S
C831 H845 0.958 . S
C831 H846 0.961 . S
C831 H847 0.960 . S
H832 C816 0.931 . S
H833 C821 0.929 . S
H834 C822 0.960 . S
H835 C822 0.962 . S
H836 C822 0.960 . S
H837 C823 0.961 . S
H838 C823 0.961 . S
H839 C823 0.961 . S
H840 C824 0.931 . S
H841 C829 0.930 . S
H842 C830 0.956 . S
H843 C830 0.961 . S
H844 C830 0.961 . S
H845 C831 0.958 . S
H846 C831 0.961 . S
H847 C831 0.960 . S
C848 C849 1.391 . S
C848 C850 1.394 . S
C848 H864 0.931 . S
C849 C848 1.391 . S
C849 C853 1.376 1_554 S
C850 C848 1.394 . S
C850 C851 1.369 . S
C850 C854 1.531 . S
C851 C850 1.369 . S
C851 C852 1.410 1_554 S
C851 C859 1.503 . S
C852 C851 1.410 1_556 S
C852 C853 1.392 . S
C852 C855 1.511 . S
C853 C849 1.376 1_556 S
C853 C852 1.392 . S
C853 H865 0.929 . S
C854 C850 1.531 . S
C854 H866 0.960 . S
C854 H867 0.962 . S
C854 H868 0.960 . S
C855 C852 1.511 . S
C855 H869 0.961 . S
C855 H870 0.961 . S
C855 H871 0.961 . S
C856 C857 1.370 1_556 S
C856 C858 1.363 . S
C856 H872 0.931 . S
C857 C856 1.370 1_554 S
C857 C861 1.408 . S
C858 C856 1.363 . S
C858 C859 1.370 1_556 S
C858 C862 1.524 . S
C859 C851 1.503 . S
C859 C858 1.370 1_554 S
C859 C860 1.403 . S
C860 C859 1.403 . S
C860 C861 1.404 . S
C860 C863 1.539 . S
C861 C857 1.408 . S
C861 C860 1.404 . S
C861 H873 0.930 . S
C862 C858 1.524 . S
C862 H874 0.956 . S
C862 H875 0.961 . S
C862 H876 0.961 . S
C863 C860 1.539 . S
C863 H877 0.958 . S
C863 H878 0.961 . S
C863 H879 0.960 . S
H864 C848 0.931 . S
H865 C853 0.929 . S
H866 C854 0.960 . S
H867 C854 0.962 . S
H868 C854 0.960 . S
H869 C855 0.961 . S
H870 C855 0.961 . S
H871 C855 0.961 . S
H872 C856 0.931 . S
H873 C861 0.930 . S
H874 C862 0.956 . S
H875 C862 0.961 . S
H876 C862 0.961 . S
H877 C863 0.958 . S
H878 C863 0.961 . S
H879 C863 0.960 . S
C880 C881 1.391 . S
C880 C882 1.394 . S
C880 H896 0.931 . S
C881 C880 1.391 . S
C881 C885 1.376 . S
C882 C880 1.394 . S
C882 C883 1.369 . S
C882 C886 1.531 . S
C883 C882 1.369 . S
C883 C884 1.410 . S
C883 C891 1.503 . S
C884 C883 1.410 . S
C884 C885 1.392 . S
C884 C887 1.511 . S
C885 C881 1.376 . S
C885 C884 1.392 . S
C885 H897 0.929 . S
C886 C882 1.531 . S
C886 H898 0.960 . S
C886 H899 0.962 . S
C886 H900 0.960 . S
C887 C884 1.511 . S
C887 H901 0.961 . S
C887 H902 0.961 . S
C887 H903 0.961 . S
C888 C889 1.370 . S
C888 C890 1.363 . S
C888 H904 0.931 . S
C889 C888 1.370 . S
C889 C893 1.408 . S
C890 C888 1.363 . S
C890 C891 1.370 . S
C890 C894 1.524 . S
C891 C883 1.503 . S
C891 C890 1.370 . S
C891 C892 1.403 . S
C892 C891 1.403 . S
C892 C893 1.404 . S
C892 C895 1.539 . S
C893 C889 1.408 . S
C893 C892 1.404 . S
C893 H905 0.930 . S
C894 C890 1.524 . S
C894 H906 0.956 . S
C894 H907 0.961 . S
C894 H908 0.961 . S
C895 C892 1.539 . S
C895 H909 0.958 . S
C895 H910 0.961 . S
C895 H911 0.960 . S
H896 C880 0.931 . S
H897 C885 0.929 . S
H898 C886 0.960 . S
H899 C886 0.962 . S
H900 C886 0.960 . S
H901 C887 0.961 . S
H902 C887 0.961 . S
H903 C887 0.961 . S
H904 C888 0.931 . S
H905 C893 0.930 . S
H906 C894 0.956 . S
H907 C894 0.961 . S
H908 C894 0.961 . S
H909 C895 0.958 . S
H910 C895 0.961 . S
H911 C895 0.960 . S
C912 C913 1.391 . S
C912 C914 1.394 . S
C912 H928 0.931 . S
C913 C912 1.391 . S
C913 C917 1.376 1_554 S
C914 C912 1.394 . S
C914 C915 1.369 . S
C914 C918 1.531 . S
C915 C914 1.369 . S
C915 C916 1.410 1_554 S
C915 C923 1.503 . S
C916 C915 1.410 1_556 S
C916 C917 1.392 . S
C916 C919 1.511 . S
C917 C913 1.376 1_556 S
C917 C916 1.392 . S
C917 H929 0.929 . S
C918 C914 1.531 . S
C918 H930 0.960 . S
C918 H931 0.962 . S
C918 H932 0.960 . S
C919 C916 1.511 . S
C919 H933 0.961 . S
C919 H934 0.961 . S
C919 H935 0.961 . S
C920 C921 1.370 1_556 S
C920 C922 1.363 . S
C920 H936 0.931 . S
C921 C920 1.370 1_554 S
C921 C925 1.408 . S
C922 C920 1.363 . S
C922 C923 1.370 1_556 S
C922 C926 1.524 . S
C923 C915 1.503 . S
C923 C922 1.370 1_554 S
C923 C924 1.403 . S
C924 C923 1.403 . S
C924 C925 1.404 . S
C924 C927 1.539 . S
C925 C921 1.408 . S
C925 C924 1.404 . S
C925 H937 0.930 . S
C926 C922 1.524 . S
C926 H938 0.956 . S
C926 H939 0.961 . S
C926 H940 0.961 . S
C927 C924 1.539 . S
C927 H941 0.958 . S
C927 H942 0.961 . S
C927 H943 0.960 . S
H928 C912 0.931 . S
H929 C917 0.929 . S
H930 C918 0.960 . S
H931 C918 0.962 . S
H932 C918 0.960 . S
H933 C919 0.961 . S
H934 C919 0.961 . S
H935 C919 0.961 . S
H936 C920 0.931 . S
H937 C925 0.930 . S
H938 C926 0.956 . S
H939 C926 0.961 . S
H940 C926 0.961 . S
H941 C927 0.958 . S
H942 C927 0.961 . S
H943 C927 0.960 . S
C177 C5 1.454 . S
C185 C126 1.298 . S
C209 C31 1.511 . S
C217 C95 1.489 . S
C249 C106 1.449 . S
C241 C53 1.487 . S
C273 C71 1.388 . S
C281 C115 1.251 . S
C313 C150 1.486 . S
C305 C75 1.497 . S
C345 C159 1.328 . S
C337 C9 1.428 . S
C377 C170 1.288 . S
C369 C27 1.380 . S
C409 C139 1.447 . S
C401 C49 1.445 . S
C433 C51 1.445 . S
C441 C104 1.222 . S
C465 C72 1.526 . S
C473 C117 1.511 . S
C497 C6 1.466 . S
C505 C128 1.479 . S
C537 C93 1.152 . S
C529 C29 1.376 . S
C561 C28 1.500 . S
C569 C172 1.521 . S
C601 C137 1.230 . S
C593 C50 1.457 . S
C633 C148 1.161 . S
C625 C73 1.390 . S
C657 C7 1.487 . S
C665 C161 1.473 . S
C697 C96 1.498 . S
C689 C4 1.507 . S
C729 C107 1.496 . S
C721 C30 1.501 . S
C753 C52 1.493 . S
C761 C118 1.523 . S
C785 C70 1.493 . S
C793 C129 1.523 . S
C825 C140 1.497 . S
C817 C74 1.506 . S
C849 C8 1.517 . S
C857 C151 1.505 . S
C881 C26 1.519 . S
C889 C162 1.521 . S
C913 C48 1.516 . S
C921 C173 1.520 . S
