# Generated by pormake.
# Topology ssa, (4,4)-cn, num edge types: 1
# Building blocks:
#     Node 0, Type 0, BuildingBlock: KOZSID_clean_sbu_0, # of connection points: 4
#     Node 1, Type 0, BuildingBlock: KOZSID_clean_sbu_0, # of connection points: 4
#     Node 2, Type 0, BuildingBlock: KOZSID_clean_sbu_0, # of connection points: 4
#     Node 3, Type 0, BuildingBlock: KOZSID_clean_sbu_0, # of connection points: 4
#     Node 4, Type 0, BuildingBlock: KOZSID_clean_sbu_0, # of connection points: 4
#     Node 5, Type 0, BuildingBlock: KOZSID_clean_sbu_0, # of connection points: 4
#     Node 6, Type 1, BuildingBlock: NAWXER_clean_sbu_0, # of connection points: 4
#     Node 7, Type 1, BuildingBlock: NAWXER_clean_sbu_0, # of connection points: 4
#     Node 8, Type 1, BuildingBlock: NAWXER_clean_sbu_0, # of connection points: 4
#     Node 9, Type 1, BuildingBlock: NAWXER_clean_sbu_0, # of connection points: 4
#     Node 10, Type 1, BuildingBlock: NAWXER_clean_sbu_0, # of connection points: 4
#     Node 11, Type 1, BuildingBlock: NAWXER_clean_sbu_0, # of connection points: 4
#     Edge 12, Type (0, 1), None
#     Edge 13, Type (0, 1), None
#     Edge 14, Type (0, 1), None
#     Edge 15, Type (0, 1), None
#     Edge 16, Type (0, 1), None
#     Edge 17, Type (0, 1), None
#     Edge 18, Type (0, 1), None
#     Edge 19, Type (0, 1), None
#     Edge 20, Type (0, 1), None
#     Edge 21, Type (0, 1), None
#     Edge 22, Type (0, 1), None
#     Edge 23, Type (0, 1), None
#     Edge 24, Type (0, 1), None
#     Edge 25, Type (0, 1), None
#     Edge 26, Type (0, 1), None
#     Edge 27, Type (0, 1), None
#     Edge 28, Type (0, 1), None
#     Edge 29, Type (0, 1), None
#     Edge 30, Type (0, 1), None
#     Edge 31, Type (0, 1), None
#     Edge 32, Type (0, 1), None
#     Edge 33, Type (0, 1), None
#     Edge 34, Type (0, 1), None
#     Edge 35, Type (0, 1), None
# Relax obj value: 0.020
# Max RMSD: 0.039
# Mean RMSD: 0.022
data_MOF--net-ssa--node1-KOZSID_clean_sbu_0--node2-NAWXER_clean_sbu_0--edge1-none
_symmetry_space_group_name_H-M    P1
_symmetry_Int_Tables_number       1
_symmetry_cell_setting            triclinic
loop_
_symmetry_equiv_pos_as_xyz
'x, y, z'
_cell_length_a     24.200165
_cell_length_b     25.253778
_cell_length_c     20.309318
_cell_angle_alpha  86.103782
_cell_angle_beta   89.442578
_cell_angle_gamma 125.25469
loop_
_atom_site_label
_atom_site_type_symbol
_atom_site_fract_x
_atom_site_fract_y
_atom_site_fract_z
_atom_type_partial_charge
C0 C 0.87463 0.47829 1.0014 0.0
C1 C 0.81035 0.44179 0.03338 0.0
C2 C 0.81462 0.41355 0.09084 0.0
C3 C 0.88102 0.43483 0.09137 0.0
N4 N 0.91993 0.47607 0.03848 0.0
Co5 Co 0.01728 0.51233 0.01671 0.0
N6 N 0.01884 0.45767 0.09214 0.0
C7 C 0.96633 0.41512 0.13583 0.0
C8 C 0.97959 0.3812 0.17973 0.0
C9 C 0.04548 0.40523 0.16521 0.0
C10 C 0.06985 0.45383 0.1127 0.0
N11 N 0.11463 0.5486 0.99494 0.0
C12 C 0.15992 0.54633 0.03198 0.0
C13 C 0.22418 0.58276 0.99997 0.0
C14 C 0.2199 0.61099 0.9425 0.0
C15 C 0.15351 0.58975 0.942 0.0
N16 N 1.01573 0.56698 0.94129 0.0
C17 C 0.06824 0.60953 0.89759 0.0
C18 C 0.05498 0.64345 0.85369 0.0
C19 C 0.98909 0.61943 0.86822 0.0
C20 C 0.96471 0.57083 0.92073 0.0
N21 N 0.05029 0.58578 0.07573 0.0
C22 C 0.11741 0.68909 0.16112 0.0
C23 C 0.12748 0.70163 0.09247 0.0
C24 C 0.09461 0.65007 0.05133 0.0
C25 C 0.07041 0.62396 0.18593 0.0
C26 C 0.03611 0.57403 0.14298 0.0
N27 N 0.98427 0.43886 0.95768 0.0
C28 C 0.96412 0.40067 0.84749 0.0
C29 C 0.91717 0.33554 0.87232 0.0
C30 C 0.90714 0.323 0.94097 0.0
C31 C 0.94001 0.37457 0.9821 0.0
C32 C 0.99841 0.45061 0.89044 0.0
H33 H 0.92573 0.36077 0.03338 0.0
H34 H 0.0339 0.4988 0.86769 0.0
H35 H 0.10893 0.66387 1.00006 0.0
H36 H 1.00057 0.52584 0.16571 0.0
C37 C 0.90499 0.40813 0.13414 0.0
C38 C 0.89172 0.52014 0.93986 0.0
C39 C 0.14284 0.50451 0.09355 0.0
C40 C 0.12955 0.61647 0.89925 0.0
H41 H 0.76492 0.43615 0.01717 0.0
H42 H 0.77346 0.37915 0.12647 0.0
H43 H 0.94601 0.34467 0.21909 0.0
H44 H 0.07135 0.38932 0.19388 0.0
H45 H 0.2696 0.58838 0.01617 0.0
H46 H 0.26105 0.64534 0.90683 0.0
H47 H 0.08856 0.67996 0.81431 0.0
H48 H 0.96323 0.63533 0.83954 0.0
H49 H 0.16418 0.75072 0.07042 0.0
H50 H 0.06208 0.61084 0.23863 0.0
H51 H 0.9724 0.41378 0.79479 0.0
H52 H 0.87046 0.2739 0.96304 0.0
C53 C 0.60965 0.02593 0.62906 0.0
C54 C 0.60951 0.98996 0.68408 0.0
C55 C 0.54652 0.93261 0.69152 0.0
C56 C 0.51132 0.93644 0.64127 0.0
N57 N 0.54819 0.99236 0.60117 0.0
Co58 Co 0.51729 0.01236 0.51671 0.0
N59 N 0.42787 0.92476 0.52378 0.0
C60 C 0.40532 0.87783 0.5742 0.0
C61 C 0.34169 0.82309 0.56725 0.0
C62 C 0.32214 0.83579 0.509 0.0
C63 C 0.37539 0.89768 0.48288 0.0
N64 N 0.48639 0.03236 0.43224 0.0
C65 C 0.42497 0.99876 0.40429 0.0
C66 C 0.42515 0.03469 0.34921 0.0
C67 C 0.48814 0.09204 0.34177 0.0
C68 C 0.52329 0.08825 0.39209 0.0
N69 N 0.60669 0.09997 0.50965 0.0
C70 C 0.62923 0.14691 0.45925 0.0
C71 C 0.69284 0.20167 0.46623 0.0
C72 C 0.71239 0.18897 0.52447 0.0
C73 C 0.65916 0.12705 0.55056 0.0
N74 N 0.55929 0.97715 0.46646 0.0
C75 C 0.61646 0.92332 0.39864 0.0
C76 C 0.62542 0.98077 0.3728 0.0
C77 C 0.59718 1.00714 0.40771 0.0
C78 C 0.58021 0.89474 0.45947 0.0
C79 C 0.55174 0.92144 0.49155 0.0
N80 N 0.47529 0.04757 0.56696 0.0
C81 C 0.45425 0.1299 0.57393 0.0
C82 C 0.41809 0.10136 0.63481 0.0
C83 C 0.40926 0.04399 0.66069 0.0
C84 C 0.4375 0.01763 0.62577 0.0
C85 C 0.48272 0.10321 0.54182 0.0
H86 H 0.43023 0.97449 0.64844 0.0
H87 H 0.51286 0.13024 0.49782 0.0
H88 H 0.60456 0.05035 0.38509 0.0
H89 H 0.52151 0.89437 0.53549 0.0
C90 C 0.44569 0.88606 0.62679 0.0
C91 C 0.66509 0.09501 0.61124 0.0
C92 C 0.36949 0.92971 0.42216 0.0
C93 C 0.58889 0.13866 0.40663 0.0
H94 H 0.65 1.00408 0.71672 0.0
H95 H 0.52855 0.89268 0.72913 0.0
H96 H 0.31269 0.77933 0.60083 0.0
H97 H 0.27333 0.80376 0.48865 0.0
H98 H 0.38468 0.02054 0.31652 0.0
H99 H 0.50614 0.13195 0.30413 0.0
H100 H 0.72183 0.24545 0.43267 0.0
H101 H 0.76119 0.221 0.54483 0.0
H102 H 0.65015 1.00287 0.32415 0.0
H103 H 0.5692 0.84858 0.48 0.0
H104 H 0.46518 0.17601 0.55336 0.0
H105 H 0.38462 0.02194 0.70938 0.0
C106 C 0.64269 0.60612 0.91989 0.0
C107 C 0.66483 0.65517 0.86901 0.0
C108 C 0.61212 0.65951 0.85753 0.0
C109 C 0.56076 0.61348 0.90173 0.0
N110 N 0.57735 0.58012 0.94157 0.0
Co111 Co 0.51732 0.51236 0.01672 0.0
N112 N 0.44227 0.52294 1.00238 0.0
C113 C 0.44131 0.56146 0.95347 0.0
C114 C 0.38254 0.55767 0.95394 0.0
C115 C 0.34358 0.51432 1.00651 0.0
C116 C 0.38128 0.49464 0.03622 0.0
N117 N 0.45727 0.44459 0.09186 0.0
C118 C 0.39194 0.4186 0.11356 0.0
C119 C 0.3698 0.36956 0.16444 0.0
C120 C 0.42252 0.36521 0.17591 0.0
C121 C 0.47387 0.41124 0.13171 0.0
N122 N 0.59237 0.5018 0.03107 0.0
C123 C 0.59333 0.46329 0.07999 0.0
C124 C 0.6521 0.46708 0.07952 0.0
C125 C 0.69106 0.51042 0.02695 0.0
C126 C 0.65335 0.53009 0.99723 0.0
N127 N 0.55808 0.58274 0.07839 0.0
C128 C 0.61321 0.68307 0.16467 0.0
C129 C 0.60278 0.62366 0.18412 0.0
C130 C 0.57619 0.57478 0.14022 0.0
C131 C 0.5968 0.69181 0.10121 0.0
C132 C 0.56913 0.64149 0.05956 0.0
N133 N 0.47656 0.44199 0.95505 0.0
C134 C 0.43794 0.33296 0.93219 0.0
C135 C 0.42144 0.34167 0.86876 0.0
C136 C 0.4318 0.40105 0.84935 0.0
C137 C 0.45838 0.44993 0.89325 0.0
C138 C 0.46558 0.38327 0.97386 0.0
H139 H 0.46598 0.49442 0.87519 0.0
H140 H 0.48012 0.37421 0.02014 0.0
H141 H 0.56853 0.53027 0.15831 0.0
H142 H 0.55464 0.65056 1.01326 0.0
C143 C 0.49722 0.60218 0.90897 0.0
C144 C 0.6802 0.57813 0.93854 0.0
C145 C 0.35443 0.44659 0.0949 0.0
C146 C 0.53742 0.42256 0.12448 0.0
H147 H 0.71334 0.68431 0.84153 0.0
H148 H 0.61134 0.69242 0.82115 0.0
H149 H 0.36955 0.58339 0.92012 0.0
H150 H 0.29271 0.49845 0.0212 0.0
H151 H 0.3213 0.34042 0.19193 0.0
H152 H 0.4233 0.33231 0.2123 0.0
H153 H 0.6651 0.44136 0.11334 0.0
H154 H 0.74193 0.52627 1.01225 0.0
H155 H 0.61169 0.61365 0.23415 0.0
H156 H 0.60068 0.73577 0.08536 0.0
H157 H 0.43411 0.28902 0.94801 0.0
H158 H 0.42283 0.41104 0.79933 0.0
C159 C 0.87026 0.39646 0.55118 0.0
C160 C 0.80585 0.36588 0.52745 0.0
C161 C 0.81304 0.39793 0.46776 0.0
C162 C 0.88108 0.44578 0.45791 0.0
N163 N 0.91818 0.44539 0.50694 0.0
Co164 Co 0.0173 0.51233 0.51672 0.0
N165 N 0.02412 0.56994 0.4395 0.0
C166 C 0.97295 0.55756 0.40157 0.0
C167 C 0.99053 0.60665 0.35459 0.0
C168 C 0.05775 0.6521 0.36077 0.0
C169 C 0.07849 0.62799 0.41153 0.0
N170 N 0.11642 0.57926 0.52651 0.0
C171 C 0.16433 0.62826 0.48233 0.0
C172 C 0.22873 0.6589 0.50612 0.0
C173 C 0.22152 0.62685 0.56582 0.0
C174 C 0.15349 0.57894 0.57562 0.0
N175 N 1.01049 0.45471 0.59393 0.0
C176 C 0.06166 0.46707 0.63185 0.0
C177 C 0.04408 0.41799 0.67883 0.0
C178 C 0.97685 0.37254 0.67265 0.0
C179 C 0.95612 0.39665 0.6219 0.0
N180 N 0.04406 0.46949 0.45597 0.0
C181 C 0.10584 0.43523 0.36374 0.0
C182 C 0.11932 0.43756 0.43045 0.0
C183 C 0.08844 0.45466 0.47511 0.0
C184 C 0.05794 0.44686 0.3447 0.0
C185 C 0.02653 0.46192 0.39141 0.0
N186 N 0.99054 0.55517 0.57749 0.0
C187 C 0.97648 0.57761 0.6888 0.0
C188 C 0.92872 0.5894 0.66969 0.0
C189 C 0.91541 0.58726 0.60294 0.0
C190 C 0.94631 0.57017 0.5583 0.0
C191 C 1.00792 0.56256 0.6421 0.0
H192 H 0.93031 0.56601 0.50922 0.0
H193 H 0.0437 0.55404 0.66014 0.0
H194 H 0.10459 0.45899 0.52414 0.0
H195 H 0.99063 0.47032 0.37343 0.0
C196 C 0.90892 0.49886 0.41097 0.0
C197 C 0.88443 0.37213 0.61174 0.0
C198 C 0.15018 0.65254 0.42172 0.0
C199 C 0.12566 0.52583 0.62253 0.0
H200 H 0.75833 0.32465 0.55065 0.0
H201 H 0.77289 0.38963 0.43701 0.0
H202 H 0.9589 0.60825 0.31834 0.0
H203 H 0.08692 0.69566 0.32761 0.0
H204 H 0.27624 0.70016 0.48294 0.0
H205 H 0.26166 0.6352 0.59662 0.0
H206 H 0.0757 0.4164 0.7151 0.0
H207 H 0.94768 0.32898 0.70582 0.0
H208 H 0.15721 0.43062 0.44747 0.0
H209 H 0.04687 0.44727 0.29331 0.0
H210 H 0.98742 0.57705 0.74021 0.0
H211 H 0.87764 0.59435 0.58587 0.0
C212 C 0.46588 0.972 0.16009 0.0
C213 C 0.48494 0.99132 0.22315 0.0
C214 C 0.54385 0.05254 0.21532 0.0
C215 C 0.55767 0.06741 0.14828 0.0
N216 N 0.50933 0.0204 0.11286 0.0
Co217 Co 0.51727 0.01234 0.01671 0.0
N218 N 0.61535 0.08784 1.00772 0.0
C219 C 0.6532 0.12397 0.0565 0.0
C220 C 0.71522 0.17882 0.03423 0.0
C221 C 0.7151 0.17993 0.96696 0.0
C222 C 0.6528 0.12524 0.95187 0.0
N223 N 0.5252 1.00429 0.92057 0.0
C224 C 0.56874 0.05262 0.87334 0.0
C225 C 0.54976 0.03322 0.8103 0.0
C226 C 0.49086 0.97199 0.81814 0.0
C227 C 0.47695 0.95718 0.88517 0.0
N228 N 0.41919 0.93686 0.02569 0.0
C229 C 0.38135 0.90072 0.9769 0.0
C230 C 0.31931 0.8459 0.99918 0.0
C231 C 0.31942 0.84482 0.06644 0.0
C232 C 0.38172 0.89948 0.08154 0.0
N233 N 0.49485 0.07557 0.98856 0.0
C234 C 0.5039 0.16725 0.89192 0.0
C235 C 0.44937 0.10116 0.89642 0.0
C236 C 0.44501 0.05704 0.94529 0.0
C237 C 0.54803 0.18801 0.94344 0.0
C238 C 0.54044 0.14156 0.99299 0.0
N239 N 0.53969 0.94912 0.04485 0.0
C240 C 0.48653 0.83669 0.09002 0.0
C241 C 0.53073 0.85747 0.14147 0.0
C242 C 0.58528 0.92356 0.13692 0.0
C243 C 0.5896 0.96766 0.08806 0.0
C244 C 0.49408 0.88312 0.04047 0.0
H245 H 0.63129 0.01728 0.08942 0.0
H246 H 0.45938 0.86506 1.00178 0.0
H247 H 0.40334 1.00742 0.94387 0.0
H248 H 0.5751 0.15959 0.03173 0.0
C249 C 0.62291 0.1131 0.11955 0.0
C250 C 0.41003 0.90518 0.14685 0.0
C251 C 0.62449 0.11948 0.88654 0.0
C252 C 0.41168 0.91154 0.91389 0.0
H253 H 0.46184 0.96208 0.26975 0.0
H254 H 0.57701 0.07931 0.25387 0.0
H255 H 0.75237 0.2175 0.0628 0.0
H256 H 0.75283 0.22045 0.93307 0.0
H257 H 0.57291 0.06241 0.76368 0.0
H258 H 0.45775 0.94516 0.77958 0.0
H259 H 0.28218 0.80721 0.97061 0.0
H260 H 0.28169 0.8043 0.10034 0.0
H261 H 0.41087 0.08256 0.86052 0.0
H262 H 0.58781 0.23922 0.9456 0.0
H263 H 0.44673 0.78548 0.0879 0.0
H264 H 0.62383 0.94217 0.17277 0.0
C265 C 0.50531 0.6251 0.5086 0.0
C266 C 0.46926 0.64618 0.53576 0.0
C267 C 0.43039 0.60224 0.58846 0.0
C268 C 0.44502 0.55699 0.59082 0.0
N269 N 0.4937 0.5717 0.54479 0.0
Co270 Co 0.51731 0.51237 0.51673 0.0
N271 N 0.43924 0.43527 0.57118 0.0
C272 C 0.39274 0.43448 0.60931 0.0
C273 C 0.34597 0.37481 0.64187 0.0
C274 C 0.36695 0.33674 0.62709 0.0
C275 C 0.42724 0.37629 0.58778 0.0
N276 N 0.54094 0.45307 0.48868 0.0
C277 C 0.52923 0.39959 0.52478 0.0
C278 C 0.56518 0.37845 0.49752 0.0
C279 C 0.60401 0.42239 0.4448 0.0
C280 C 0.58949 0.46771 0.44252 0.0
N281 N 0.59538 0.58948 0.46229 0.0
C282 C 0.64187 0.59026 0.42415 0.0
C283 C 0.68865 0.64994 0.3916 0.0
C284 C 0.66768 0.68801 0.40639 0.0
C285 C 0.60738 0.64845 0.44569 0.0
N286 N 0.5753 0.52729 0.5926 0.0
C287 C 0.63829 0.49442 0.68707 0.0
C288 C 0.66963 0.52466 0.62478 0.0
C289 C 0.63873 0.54222 0.57967 0.0
C290 C 0.57818 0.48767 0.70411 0.0
C291 C 0.54807 0.50522 0.65653 0.0
N292 N 0.45931 0.49746 0.44085 0.0
C293 C 0.45639 0.53712 0.32937 0.0
C294 C 0.39622 0.53023 0.34642 0.0
C295 C 0.36488 0.49993 0.4087 0.0
C296 C 0.39583 0.48241 0.45378 0.0
C297 C 0.48655 0.5196 0.37693 0.0
H298 H 0.36825 0.4592 0.49982 0.0
H299 H 0.53267 0.5259 0.36174 0.0
H300 H 0.6663 0.56534 0.5336 0.0
H301 H 0.50198 0.49901 0.67169 0.0
C302 C 0.39961 0.49258 0.61845 0.0
C303 C 0.55232 0.65814 0.44957 0.0
C304 C 0.48228 0.36659 0.58386 0.0
C305 C 0.63493 0.53213 0.41494 0.0
H306 H 0.46882 0.68719 0.51743 0.0
H307 H 0.39057 0.59959 0.61671 0.0
H308 H 0.30436 0.36166 0.67591 0.0
H309 H 0.3426 0.28707 0.64768 0.0
H310 H 0.56556 0.33739 0.51579 0.0
H311 H 0.64376 0.42497 0.41646 0.0
H312 H 0.73024 0.66307 0.35754 0.0
H313 H 0.69202 0.73768 0.38578 0.0
H314 H 0.7195 0.53686 0.61152 0.0
H315 H 0.55581 0.47097 0.75419 0.0
H316 H 0.47878 0.5539 0.2793 0.0
H317 H 0.31497 0.48764 0.42195 0.0
C318 C 0.3531 0.52983 0.29556 0.0
C319 C 0.19218 0.51086 0.13132 0.0
O320 O 0.30179 0.47387 0.28528 0.0
Zn321 Zn 0.22189 0.4253 0.2281 0.0
O322 O 0.36291 0.58044 0.26406 0.0
Zn323 Zn 0.28061 0.53391 0.20986 0.0
O324 O 0.19875 0.49144 0.2837 0.0
O325 O 0.14716 0.38504 0.29956 0.0
O326 O 0.24658 0.56627 0.14059 0.0
O327 O 0.18252 0.45971 0.16063 0.0
O328 O 0.2632 0.39089 0.17412 0.0
O329 O 0.31404 0.4951 0.14675 0.0
C330 C 0.15196 0.43624 0.31341 0.0
C331 C 0.30824 0.44264 0.13828 0.0
C332 C 0.83324 0.32485 0.65471 0.0
C333 C 0.66672 0.16135 0.83549 0.0
O334 O 0.78152 0.32408 0.67149 0.0
Zn335 Zn 0.74147 0.24902 0.74038 0.0
O336 O 0.838 0.28029 0.68029 0.0
Zn337 Zn 0.79302 0.1984 0.74856 0.0
O338 O 0.74519 0.12185 0.69051 0.0
O339 O 0.70638 0.18085 0.67181 0.0
O340 O 0.71607 0.15938 0.81892 0.0
O341 O 0.65929 0.20234 0.80421 0.0
O342 O 0.82306 0.29211 0.80487 0.0
O343 O 0.8697 0.23846 0.81122 0.0
C344 C 0.70726 0.13302 0.65804 0.0
C345 C 0.86808 0.28571 0.82791 0.0
C346 C 0.62074 0.88061 0.35582 0.0
C347 C 0.61772 0.72502 0.21443 0.0
O348 O 0.6759 0.89152 0.33206 0.0
Zn349 Zn 0.63405 0.80952 0.28552 0.0
O350 O 0.56435 0.82814 0.34569 0.0
Zn351 Zn 0.51882 0.74328 0.3002 0.0
O352 O 0.48791 0.6817 0.38518 0.0
O353 O 0.59728 0.73695 0.36357 0.0
O354 O 0.56133 0.70961 0.24006 0.0
O355 O 0.67306 0.77886 0.22547 0.0
O356 O 0.58561 0.82963 0.21585 0.0
O357 O 0.47442 0.76549 0.22835 0.0
C358 C 0.54499 0.69275 0.39946 0.0
C359 C 0.52846 0.81326 0.19623 0.0
C360 C 0.84239 0.51381 0.90209 0.0
C361 C 0.68142 0.49483 0.73791 0.0
O362 O 0.78798 0.4584 0.89282 0.0
Zn363 Zn 0.75395 0.49076 0.82357 0.0
O364 O 0.85205 0.56496 0.87278 0.0
Zn365 Zn 0.81268 0.59937 0.80531 0.0
O366 O 0.77141 0.63381 0.8593 0.0
O367 O 0.72056 0.5296 0.88669 0.0
O368 O 0.73274 0.5508 0.74817 0.0
O369 O 0.67163 0.44422 0.76939 0.0
O370 O 0.83579 0.53321 0.74972 0.0
O371 O 0.88738 0.63961 0.73383 0.0
C372 C 0.72637 0.58207 0.89515 0.0
C373 C 0.88257 0.5884 0.71999 0.0
C374 C 0.36784 0.86334 0.19794 0.0
C375 C 0.20137 0.69982 0.37876 0.0
O376 O 0.31844 0.86523 0.21447 0.0
Zn377 Zn 0.24154 0.82624 0.28488 0.0
O378 O 0.37536 0.82243 0.22929 0.0
Zn379 Zn 0.29313 0.77567 0.29308 0.0
O380 O 0.21153 0.73254 0.22858 0.0
O381 O 0.16484 0.78614 0.22224 0.0
O382 O 0.25311 0.70062 0.362 0.0
O383 O 0.19659 0.74437 0.35316 0.0
O384 O 0.28938 0.90281 0.3429 0.0
O385 O 0.32819 0.84382 0.36166 0.0
C386 C 0.16649 0.73892 0.20553 0.0
C387 C 0.3273 0.89165 0.37539 0.0
C388 C 0.41693 0.29973 0.81899 0.0
C389 C 0.41385 0.14412 0.67759 0.0
O390 O 0.47332 0.31513 0.79335 0.0
Zn391 Zn 0.51581 0.28144 0.7332 0.0
O392 O 0.36159 0.24589 0.80796 0.0
Zn393 Zn 0.40059 0.21523 0.7479 0.0
O394 O 0.44903 0.19512 0.81757 0.0
O395 O 0.56022 0.25923 0.80505 0.0
O396 O 0.35871 0.13323 0.70137 0.0
O397 O 0.47026 0.19657 0.68771 0.0
O398 O 0.54671 0.34302 0.64819 0.0
O399 O 0.43735 0.2878 0.66985 0.0
C400 C 0.50618 0.21148 0.83718 0.0
C401 C 0.48963 0.33198 0.63395 0.0
loop_
_geom_bond_atom_site_label_1
_geom_bond_atom_site_label_2
_geom_bond_distance
_geom_bond_site_symmetry_2
_ccdc_geom_bond_type
C0 C1 1.443 . S
C0 N4 1.376 1_556 S
C0 C38 1.389 . S
C1 C0 1.443 . S
C1 C2 1.340 1_556 S
C1 H41 0.951 . S
C2 C1 1.340 1_554 S
C2 C3 1.439 . S
C2 H42 0.950 . S
C3 C2 1.439 . S
C3 N4 1.374 . S
C3 C37 1.395 . S
N4 C0 1.376 1_554 S
N4 C3 1.374 . S
N4 Co5 1.992 1_655 S
Co5 N4 1.992 1_455 S
Co5 N6 2.007 1_455 S
Co5 N11 2.024 1_554 S
Co5 N16 1.982 1_554 S
Co5 N21 2.291 . S
Co5 N27 2.274 1_454 S
N6 Co5 2.007 1_655 S
N6 C7 1.376 . S
N6 C10 1.383 1_655 S
C7 N6 1.376 . S
C7 C8 1.446 . S
C7 C37 1.391 . S
C8 C7 1.446 . S
C8 C9 1.339 . S
C8 H43 0.949 . S
C9 C8 1.339 . S
C9 C10 1.439 1_655 S
C9 H44 0.950 1_655 S
C10 N6 1.383 1_455 S
C10 C9 1.439 1_455 S
C10 C39 1.392 . S
N11 Co5 2.024 1_556 S
N11 C12 1.376 1_556 S
N11 C15 1.374 . S
C12 N11 1.376 1_554 S
C12 C13 1.443 . S
C12 C39 1.389 . S
C13 C12 1.443 . S
C13 C14 1.340 1_554 S
C13 H45 0.951 . S
C14 C13 1.340 1_556 S
C14 C15 1.439 . S
C14 H46 0.950 . S
C15 N11 1.374 . S
C15 C14 1.439 . S
C15 C40 1.395 . S
N16 Co5 1.982 1_556 S
N16 C17 1.376 . S
N16 C20 1.383 1_455 S
C17 N16 1.376 . S
C17 C18 1.446 . S
C17 C40 1.391 . S
C18 C17 1.446 . S
C18 C19 1.339 . S
C18 H47 0.949 . S
C19 C18 1.339 . S
C19 C20 1.439 1_455 S
C19 H48 0.950 1_455 S
C20 N16 1.383 1_655 S
C20 C19 1.439 1_655 S
C20 C38 1.392 . S
N21 Co5 2.291 . S
N21 C24 1.332 . S
N21 C26 1.332 . S
C22 C23 1.386 . S
C22 C25 1.388 . S
C23 C22 1.386 . S
C23 C24 1.382 . S
C23 H49 0.950 . S
C24 N21 1.332 . S
C24 C23 1.382 . S
C24 H35 0.965 . S
C25 C22 1.388 . S
C25 C26 1.382 . S
C25 H50 0.950 . S
C26 N21 1.332 . S
C26 C25 1.382 . S
C26 H36 0.948 1_455 S
N27 Co5 2.274 1_656 S
N27 C31 1.332 . S
N27 C32 1.332 . S
C28 C29 1.388 . S
C28 C32 1.382 . S
C28 H51 0.950 . S
C29 C28 1.388 . S
C29 C30 1.386 . S
C30 C29 1.386 . S
C30 C31 1.382 . S
C30 H52 0.950 . S
C31 N27 1.332 . S
C31 C30 1.382 . S
C31 H33 0.940 1_556 S
C32 N27 1.332 . S
C32 C28 1.382 . S
C32 H34 0.948 1_655 S
H33 C31 0.940 1_554 S
H34 C32 0.948 1_455 S
H35 C24 0.965 . S
H36 C26 0.948 1_655 S
C37 C3 1.395 . S
C37 C7 1.391 . S
C38 C0 1.389 . S
C38 C20 1.392 . S
C39 C10 1.392 . S
C39 C12 1.389 . S
C40 C15 1.395 . S
C40 C17 1.391 . S
H41 C1 0.951 . S
H42 C2 0.950 . S
H43 C8 0.949 . S
H44 C9 0.950 1_455 S
H45 C13 0.951 . S
H46 C14 0.950 . S
H47 C18 0.949 . S
H48 C19 0.950 1_655 S
H49 C23 0.950 . S
H50 C25 0.950 . S
H51 C28 0.950 . S
H52 C30 0.950 . S
C53 C54 1.443 1_545 S
C53 N57 1.376 1_545 S
C53 C91 1.389 . S
C54 C53 1.443 1_565 S
C54 C55 1.340 . S
C54 H94 0.951 1_565 S
C55 C54 1.340 . S
C55 C56 1.439 . S
C55 H95 0.950 . S
C56 C55 1.439 . S
C56 N57 1.374 . S
C56 C90 1.395 . S
N57 C53 1.376 1_565 S
N57 C56 1.374 . S
N57 Co58 2.004 1_565 S
Co58 N57 2.004 1_545 S
Co58 N59 1.987 1_545 S
Co58 N64 2.013 . S
Co58 N69 2.003 . S
Co58 N74 2.267 1_545 S
Co58 N80 2.298 . S
N59 Co58 1.987 1_565 S
N59 C60 1.376 . S
N59 C63 1.383 . S
C60 N59 1.376 . S
C60 C61 1.446 . S
C60 C90 1.391 . S
C61 C60 1.446 . S
C61 C62 1.339 . S
C61 H96 0.949 . S
C62 C61 1.339 . S
C62 C63 1.439 . S
C62 H97 0.950 . S
C63 N59 1.383 . S
C63 C62 1.439 . S
C63 C92 1.392 . S
N64 Co58 2.013 . S
N64 C65 1.376 1_545 S
N64 C68 1.374 . S
C65 N64 1.376 1_565 S
C65 C66 1.443 1_565 S
C65 C92 1.389 . S
C66 C65 1.443 1_545 S
C66 C67 1.340 . S
C66 H98 0.951 1_545 S
C67 C66 1.340 . S
C67 C68 1.439 . S
C67 H99 0.950 . S
C68 N64 1.374 . S
C68 C67 1.439 . S
C68 C93 1.395 . S
N69 Co58 2.003 . S
N69 C70 1.376 . S
N69 C73 1.383 . S
C70 N69 1.376 . S
C70 C71 1.446 . S
C70 C93 1.391 . S
C71 C70 1.446 . S
C71 C72 1.339 . S
C71 H100 0.949 . S
C72 C71 1.339 . S
C72 C73 1.439 . S
C72 H101 0.950 . S
C73 N69 1.383 . S
C73 C72 1.439 . S
C73 C91 1.392 . S
N74 Co58 2.267 1_565 S
N74 C77 1.332 . S
N74 C79 1.332 . S
C75 C76 1.386 . S
C75 C78 1.388 . S
C76 C75 1.386 . S
C76 C77 1.382 . S
C76 H102 0.950 . S
C77 N74 1.332 . S
C77 C76 1.382 . S
C77 H88 0.952 1_565 S
C78 C75 1.388 . S
C78 C79 1.382 . S
C78 H103 0.950 . S
C79 N74 1.332 . S
C79 C78 1.382 . S
C79 H89 0.948 . S
N80 Co58 2.298 . S
N80 C84 1.332 . S
N80 C85 1.332 . S
C81 C82 1.388 . S
C81 C85 1.382 . S
C81 H104 0.950 . S
C82 C81 1.388 . S
C82 C83 1.386 . S
C83 C82 1.386 . S
C83 C84 1.382 . S
C83 H105 0.950 . S
C84 N80 1.332 . S
C84 C83 1.382 . S
C84 H86 0.952 1_545 S
C85 N80 1.332 . S
C85 C81 1.382 . S
C85 H87 0.948 . S
H86 C84 0.952 1_565 S
H87 C85 0.948 . S
H88 C77 0.952 1_545 S
H89 C79 0.948 . S
C90 C56 1.395 . S
C90 C60 1.391 . S
C91 C53 1.389 . S
C91 C73 1.392 . S
C92 C63 1.392 . S
C92 C65 1.389 . S
C93 C68 1.395 . S
C93 C70 1.391 . S
H94 C54 0.951 1_545 S
H95 C55 0.950 . S
H96 C61 0.949 . S
H97 C62 0.950 . S
H98 C66 0.951 1_565 S
H99 C67 0.950 . S
H100 C71 0.949 . S
H101 C72 0.950 . S
H102 C76 0.950 . S
H103 C78 0.950 . S
H104 C81 0.950 . S
H105 C83 0.950 . S
C106 C107 1.443 . S
C106 N110 1.376 . S
C106 C144 1.389 . S
C107 C106 1.443 . S
C107 C108 1.340 . S
C107 H147 0.951 . S
C108 C107 1.340 . S
C108 C109 1.439 . S
C108 H148 0.950 . S
C109 C108 1.439 . S
C109 N110 1.374 . S
C109 C143 1.395 . S
N110 C106 1.376 . S
N110 C109 1.374 . S
N110 Co111 1.998 1_556 S
Co111 N110 1.998 1_554 S
Co111 N112 1.993 1_554 S
Co111 N117 2.019 . S
Co111 N122 1.997 . S
Co111 N127 2.291 . S
Co111 N133 2.274 1_554 S
N112 Co111 1.993 1_556 S
N112 C113 1.376 . S
N112 C116 1.383 1_556 S
C113 N112 1.376 . S
C113 C114 1.446 . S
C113 C143 1.391 . S
C114 C113 1.446 . S
C114 C115 1.339 1_556 S
C114 H149 0.949 . S
C115 C114 1.339 1_554 S
C115 C116 1.439 . S
C115 H150 0.950 . S
C116 N112 1.383 1_554 S
C116 C115 1.439 . S
C116 C145 1.392 . S
N117 Co111 2.019 . S
N117 C118 1.376 . S
N117 C121 1.374 . S
C118 N117 1.376 . S
C118 C119 1.443 . S
C118 C145 1.389 . S
C119 C118 1.443 . S
C119 C120 1.340 . S
C119 H151 0.951 . S
C120 C119 1.340 . S
C120 C121 1.439 . S
C120 H152 0.950 . S
C121 N117 1.374 . S
C121 C120 1.439 . S
C121 C146 1.395 . S
N122 Co111 1.997 . S
N122 C123 1.376 . S
N122 C126 1.383 1_554 S
C123 N122 1.376 . S
C123 C124 1.446 . S
C123 C146 1.391 . S
C124 C123 1.446 . S
C124 C125 1.339 1_554 S
C124 H153 0.949 . S
C125 C124 1.339 1_556 S
C125 C126 1.439 . S
C125 H154 0.950 . S
C126 N122 1.383 1_556 S
C126 C125 1.439 . S
C126 C144 1.392 . S
N127 Co111 2.291 . S
N127 C130 1.332 . S
N127 C132 1.332 . S
C128 C129 1.386 . S
C128 C131 1.388 . S
C129 C128 1.386 . S
C129 C130 1.382 . S
C129 H155 0.950 . S
C130 N127 1.332 . S
C130 C129 1.382 . S
C130 H141 0.952 . S
C131 C128 1.388 . S
C131 C132 1.382 . S
C131 H156 0.950 . S
C132 N127 1.332 . S
C132 C131 1.382 . S
C132 H142 0.948 . S
N133 Co111 2.274 1_556 S
N133 C137 1.332 . S
N133 C138 1.332 . S
C134 C135 1.388 . S
C134 C138 1.382 . S
C134 H157 0.950 . S
C135 C134 1.388 . S
C135 C136 1.386 . S
C136 C135 1.386 . S
C136 C137 1.382 . S
C136 H158 0.950 . S
C137 N133 1.332 . S
C137 C136 1.382 . S
C137 H139 0.952 . S
C138 N133 1.332 . S
C138 C134 1.382 . S
C138 H140 0.948 . S
H139 C137 0.952 . S
H140 C138 0.948 . S
H141 C130 0.952 . S
H142 C132 0.948 . S
C143 C109 1.395 . S
C143 C113 1.391 . S
C144 C106 1.389 . S
C144 C126 1.392 . S
C145 C116 1.392 . S
C145 C118 1.389 . S
C146 C121 1.395 . S
C146 C123 1.391 . S
H147 C107 0.951 . S
H148 C108 0.950 . S
H149 C114 0.949 . S
H150 C115 0.950 . S
H151 C119 0.951 . S
H152 C120 0.950 . S
H153 C124 0.949 . S
H154 C125 0.950 . S
H155 C129 0.950 . S
H156 C131 0.950 . S
H157 C134 0.950 . S
H158 C136 0.950 . S
C159 C160 1.443 . S
C159 N163 1.376 . S
C159 C197 1.389 . S
C160 C159 1.443 . S
C160 C161 1.340 . S
C160 H200 0.951 . S
C161 C160 1.340 . S
C161 C162 1.439 . S
C161 H201 0.950 . S
C162 C161 1.439 . S
C162 N163 1.374 . S
C162 C196 1.395 . S
N163 C159 1.376 . S
N163 C162 1.374 . S
N163 Co164 1.998 1_655 S
Co164 N163 1.998 1_455 S
Co164 N165 1.986 1_455 S
Co164 N170 2.019 . S
Co164 N175 2.003 . S
Co164 N180 2.294 . S
Co164 N186 2.271 1_455 S
N165 Co164 1.986 1_655 S
N165 C166 1.376 . S
N165 C169 1.383 1_655 S
C166 N165 1.376 . S
C166 C167 1.446 . S
C166 C196 1.391 . S
C167 C166 1.446 . S
C167 C168 1.339 1_655 S
C167 H202 0.949 . S
C168 C167 1.339 1_455 S
C168 C169 1.439 . S
C168 H203 0.950 . S
C169 N165 1.383 1_455 S
C169 C168 1.439 . S
C169 C198 1.392 . S
N170 Co164 2.019 . S
N170 C171 1.376 . S
N170 C174 1.374 . S
C171 N170 1.376 . S
C171 C172 1.443 . S
C171 C198 1.389 . S
C172 C171 1.443 . S
C172 C173 1.340 . S
C172 H204 0.951 . S
C173 C172 1.340 . S
C173 C174 1.439 . S
C173 H205 0.950 . S
C174 N170 1.374 . S
C174 C173 1.439 . S
C174 C199 1.395 . S
N175 Co164 2.003 . S
N175 C176 1.376 . S
N175 C179 1.383 1_455 S
C176 N175 1.376 . S
C176 C177 1.446 . S
C176 C199 1.391 . S
C177 C176 1.446 . S
C177 C178 1.339 1_455 S
C177 H206 0.949 . S
C178 C177 1.339 1_655 S
C178 C179 1.439 . S
C178 H207 0.950 . S
C179 N175 1.383 1_655 S
C179 C178 1.439 . S
C179 C197 1.392 . S
N180 Co164 2.294 . S
N180 C183 1.332 . S
N180 C185 1.332 . S
C181 C182 1.386 . S
C181 C184 1.388 . S
C182 C181 1.386 . S
C182 C183 1.382 . S
C182 H208 0.950 . S
C183 N180 1.332 . S
C183 C182 1.382 . S
C183 H194 0.952 . S
C184 C181 1.388 . S
C184 C185 1.382 . S
C184 H209 0.950 . S
C185 N180 1.332 . S
C185 C184 1.382 . S
C185 H195 0.948 1_455 S
N186 Co164 2.271 1_655 S
N186 C190 1.332 . S
N186 C191 1.332 . S
C187 C188 1.388 . S
C187 C191 1.382 . S
C187 H210 0.950 . S
C188 C187 1.388 . S
C188 C189 1.386 . S
C189 C188 1.386 . S
C189 C190 1.382 . S
C189 H211 0.950 . S
C190 N186 1.332 . S
C190 C189 1.382 . S
C190 H192 0.952 . S
C191 N186 1.332 . S
C191 C187 1.382 . S
C191 H193 0.948 1_655 S
H192 C190 0.952 . S
H193 C191 0.948 1_455 S
H194 C183 0.952 . S
H195 C185 0.948 1_655 S
C196 C162 1.395 . S
C196 C166 1.391 . S
C197 C159 1.389 . S
C197 C179 1.392 . S
C198 C169 1.392 . S
C198 C171 1.389 . S
C199 C174 1.395 . S
C199 C176 1.391 . S
H200 C160 0.951 . S
H201 C161 0.950 . S
H202 C167 0.949 . S
H203 C168 0.950 . S
H204 C172 0.951 . S
H205 C173 0.950 . S
H206 C177 0.949 . S
H207 C178 0.950 . S
H208 C182 0.950 . S
H209 C184 0.950 . S
H210 C187 0.950 . S
H211 C189 0.950 . S
C212 C213 1.446 . S
C212 N216 1.376 1_565 S
C212 C250 1.389 . S
C213 C212 1.446 . S
C213 C214 1.337 1_565 S
C213 H253 0.952 . S
C214 C213 1.337 1_545 S
C214 C215 1.439 . S
C214 H254 0.950 . S
C215 C214 1.439 . S
C215 N216 1.374 . S
C215 C249 1.395 . S
N216 C212 1.376 1_545 S
N216 C215 1.374 . S
N216 Co217 2.027 . S
Co217 N216 2.027 . S
Co217 N218 2.003 1_554 S
Co217 N223 1.989 1_544 S
Co217 N228 1.986 1_545 S
Co217 N233 2.290 1_554 S
Co217 N239 2.275 1_545 S
N218 Co217 2.003 1_556 S
N218 C219 1.376 1_556 S
N218 C222 1.383 . S
C219 N218 1.376 1_554 S
C219 C220 1.446 . S
C219 C249 1.391 . S
C220 C219 1.446 . S
C220 C221 1.339 1_554 S
C220 H255 0.949 . S
C221 C220 1.339 1_556 S
C221 C222 1.439 . S
C221 H256 0.950 . S
C222 N218 1.383 . S
C222 C221 1.439 . S
C222 C251 1.392 . S
N223 Co217 1.989 1_566 S
N223 C224 1.376 1_565 S
N223 C227 1.374 . S
C224 N223 1.376 1_545 S
C224 C225 1.443 . S
C224 C251 1.389 . S
C225 C224 1.443 . S
C225 C226 1.340 1_545 S
C225 H257 0.951 . S
C226 C225 1.340 1_565 S
C226 C227 1.439 . S
C226 H258 0.950 . S
C227 N223 1.374 . S
C227 C226 1.439 . S
C227 C252 1.395 . S
N228 Co217 1.986 1_565 S
N228 C229 1.376 1_554 S
N228 C232 1.383 . S
C229 N228 1.376 1_556 S
C229 C230 1.446 . S
C229 C252 1.391 . S
C230 C229 1.446 . S
C230 C231 1.339 1_556 S
C230 H259 0.949 . S
C231 C230 1.339 1_554 S
C231 C232 1.439 . S
C231 H260 0.950 . S
C232 N228 1.383 . S
C232 C231 1.439 . S
C232 C250 1.392 . S
N233 Co217 2.290 1_556 S
N233 C236 1.332 . S
N233 C238 1.332 . S
C234 C235 1.386 . S
C234 C237 1.388 . S
C235 C234 1.386 . S
C235 C236 1.382 . S
C235 H261 0.950 . S
C236 N233 1.332 . S
C236 C235 1.382 . S
C236 H247 0.952 1_545 S
C237 C234 1.388 . S
C237 C238 1.382 . S
C237 H262 0.950 . S
C238 N233 1.332 . S
C238 C237 1.382 . S
C238 H248 0.948 . S
N239 Co217 2.275 1_565 S
N239 C243 1.332 . S
N239 C244 1.332 . S
C240 C241 1.388 . S
C240 C244 1.382 . S
C240 H263 0.950 . S
C241 C240 1.388 . S
C241 C242 1.386 . S
C242 C241 1.386 . S
C242 C243 1.382 . S
C242 H264 0.950 . S
C243 N239 1.332 . S
C243 C242 1.382 . S
C243 H245 0.952 1_565 S
C244 N239 1.332 . S
C244 C240 1.382 . S
C244 H246 0.948 . S
H245 C243 0.952 1_545 S
H246 C244 0.948 . S
H247 C236 0.952 1_565 S
H248 C238 0.948 . S
C249 C215 1.395 . S
C249 C219 1.391 . S
C250 C212 1.389 . S
C250 C232 1.392 . S
C251 C222 1.392 . S
C251 C224 1.389 . S
C252 C227 1.395 . S
C252 C229 1.391 . S
H253 C213 0.952 . S
H254 C214 0.950 . S
H255 C220 0.949 . S
H256 C221 0.950 . S
H257 C225 0.951 . S
H258 C226 0.950 . S
H259 C230 0.949 . S
H260 C231 0.950 . S
H261 C235 0.950 . S
H262 C237 0.950 . S
H263 C240 0.950 . S
H264 C242 0.950 . S
C265 C266 1.443 . S
C265 N269 1.376 . S
C265 C303 1.389 . S
C266 C265 1.443 . S
C266 C267 1.340 . S
C266 H306 0.951 . S
C267 C266 1.340 . S
C267 C268 1.439 . S
C267 H307 0.950 . S
C268 C267 1.439 . S
C268 N269 1.374 . S
C268 C302 1.395 . S
N269 C265 1.376 . S
N269 C268 1.374 . S
N269 Co270 2.008 . S
Co270 N269 2.008 . S
Co270 N271 1.995 . S
Co270 N276 2.008 . S
Co270 N281 1.995 . S
Co270 N286 2.282 . S
Co270 N292 2.282 . S
N271 Co270 1.995 . S
N271 C272 1.376 . S
N271 C275 1.383 . S
C272 N271 1.376 . S
C272 C273 1.446 . S
C272 C302 1.391 . S
C273 C272 1.446 . S
C273 C274 1.339 . S
C273 H308 0.949 . S
C274 C273 1.339 . S
C274 C275 1.439 . S
C274 H309 0.950 . S
C275 N271 1.383 . S
C275 C274 1.439 . S
C275 C304 1.392 . S
N276 Co270 2.008 . S
N276 C277 1.376 . S
N276 C280 1.374 . S
C277 N276 1.376 . S
C277 C278 1.443 . S
C277 C304 1.389 . S
C278 C277 1.443 . S
C278 C279 1.340 . S
C278 H310 0.951 . S
C279 C278 1.340 . S
C279 C280 1.439 . S
C279 H311 0.950 . S
C280 N276 1.374 . S
C280 C279 1.439 . S
C280 C305 1.395 . S
N281 Co270 1.995 . S
N281 C282 1.376 . S
N281 C285 1.383 . S
C282 N281 1.376 . S
C282 C283 1.446 . S
C282 C305 1.391 . S
C283 C282 1.446 . S
C283 C284 1.339 . S
C283 H312 0.949 . S
C284 C283 1.339 . S
C284 C285 1.439 . S
C284 H313 0.950 . S
C285 N281 1.383 . S
C285 C284 1.439 . S
C285 C303 1.392 . S
N286 Co270 2.282 . S
N286 C289 1.332 . S
N286 C291 1.332 . S
C287 C288 1.386 . S
C287 C290 1.388 . S
C288 C287 1.386 . S
C288 C289 1.382 . S
C288 H314 0.950 . S
C289 N286 1.332 . S
C289 C288 1.382 . S
C289 H300 0.952 . S
C290 C287 1.388 . S
C290 C291 1.382 . S
C290 H315 0.950 . S
C291 N286 1.332 . S
C291 C290 1.382 . S
C291 H301 0.948 . S
N292 Co270 2.282 . S
N292 C296 1.332 . S
N292 C297 1.332 . S
C293 C294 1.388 . S
C293 C297 1.382 . S
C293 H316 0.950 . S
C294 C293 1.388 . S
C294 C295 1.386 . S
C295 C294 1.386 . S
C295 C296 1.382 . S
C295 H317 0.950 . S
C296 N292 1.332 . S
C296 C295 1.382 . S
C296 H298 0.952 . S
C297 N292 1.332 . S
C297 C293 1.382 . S
C297 H299 0.948 . S
H298 C296 0.952 . S
H299 C297 0.948 . S
H300 C289 0.952 . S
H301 C291 0.948 . S
C302 C268 1.395 . S
C302 C272 1.391 . S
C303 C265 1.389 . S
C303 C285 1.392 . S
C304 C275 1.392 . S
C304 C277 1.389 . S
C305 C280 1.395 . S
C305 C282 1.391 . S
H306 C266 0.951 . S
H307 C267 0.950 . S
H308 C273 0.949 . S
H309 C274 0.950 . S
H310 C278 0.951 . S
H311 C279 0.950 . S
H312 C283 0.949 . S
H313 C284 0.950 . S
H314 C288 0.950 . S
H315 C290 0.950 . S
H316 C293 0.950 . S
H317 C295 0.950 . S
C318 O320 1.247 . S
C318 O322 1.258 . S
C319 O326 1.247 . S
C319 O327 1.258 . S
O320 C318 1.247 . S
O320 Zn321 2.028 . S
Zn321 O320 2.028 . S
Zn321 O325 2.035 . S
Zn321 O327 2.035 . S
Zn321 O328 2.028 . S
O322 C318 1.258 . S
O322 Zn323 2.035 . S
Zn323 O322 2.035 . S
Zn323 O324 2.028 . S
Zn323 O326 2.028 . S
Zn323 O329 2.035 . S
O324 Zn323 2.028 . S
O324 C330 1.247 . S
O325 Zn321 2.035 . S
O325 C330 1.258 . S
O326 C319 1.247 . S
O326 Zn323 2.028 . S
O327 C319 1.258 . S
O327 Zn321 2.035 . S
O328 Zn321 2.028 . S
O328 C331 1.247 . S
O329 Zn323 2.035 . S
O329 C331 1.258 . S
C330 O324 1.247 . S
C330 O325 1.258 . S
C331 O328 1.247 . S
C331 O329 1.258 . S
C332 O334 1.247 . S
C332 O336 1.258 . S
C333 O340 1.247 . S
C333 O341 1.258 . S
O334 C332 1.247 . S
O334 Zn335 2.028 . S
Zn335 O334 2.028 . S
Zn335 O339 2.035 . S
Zn335 O341 2.035 . S
Zn335 O342 2.028 . S
O336 C332 1.258 . S
O336 Zn337 2.035 . S
Zn337 O336 2.035 . S
Zn337 O338 2.028 . S
Zn337 O340 2.028 . S
Zn337 O343 2.035 . S
O338 Zn337 2.028 . S
O338 C344 1.247 . S
O339 Zn335 2.035 . S
O339 C344 1.258 . S
O340 C333 1.247 . S
O340 Zn337 2.028 . S
O341 C333 1.258 . S
O341 Zn335 2.035 . S
O342 Zn335 2.028 . S
O342 C345 1.247 . S
O343 Zn337 2.035 . S
O343 C345 1.258 . S
C344 O338 1.247 . S
C344 O339 1.258 . S
C345 O342 1.247 . S
C345 O343 1.258 . S
C346 O348 1.247 . S
C346 O350 1.258 . S
C347 O354 1.247 . S
C347 O355 1.258 . S
O348 C346 1.247 . S
O348 Zn349 2.028 . S
Zn349 O348 2.028 . S
Zn349 O353 2.035 . S
Zn349 O355 2.035 . S
Zn349 O356 2.028 . S
O350 C346 1.258 . S
O350 Zn351 2.035 . S
Zn351 O350 2.035 . S
Zn351 O352 2.028 . S
Zn351 O354 2.028 . S
Zn351 O357 2.035 . S
O352 Zn351 2.028 . S
O352 C358 1.247 . S
O353 Zn349 2.035 . S
O353 C358 1.258 . S
O354 C347 1.247 . S
O354 Zn351 2.028 . S
O355 C347 1.258 . S
O355 Zn349 2.035 . S
O356 Zn349 2.028 . S
O356 C359 1.247 . S
O357 Zn351 2.035 . S
O357 C359 1.258 . S
C358 O352 1.247 . S
C358 O353 1.258 . S
C359 O356 1.247 . S
C359 O357 1.258 . S
C360 O362 1.247 . S
C360 O364 1.258 . S
C361 O368 1.247 . S
C361 O369 1.258 . S
O362 C360 1.247 . S
O362 Zn363 2.028 . S
Zn363 O362 2.028 . S
Zn363 O367 2.035 . S
Zn363 O369 2.035 . S
Zn363 O370 2.028 . S
O364 C360 1.258 . S
O364 Zn365 2.035 . S
Zn365 O364 2.035 . S
Zn365 O366 2.028 . S
Zn365 O368 2.028 . S
Zn365 O371 2.035 . S
O366 Zn365 2.028 . S
O366 C372 1.247 . S
O367 Zn363 2.035 . S
O367 C372 1.258 . S
O368 C361 1.247 . S
O368 Zn365 2.028 . S
O369 C361 1.258 . S
O369 Zn363 2.035 . S
O370 Zn363 2.028 . S
O370 C373 1.247 . S
O371 Zn365 2.035 . S
O371 C373 1.258 . S
C372 O366 1.247 . S
C372 O367 1.258 . S
C373 O370 1.247 . S
C373 O371 1.258 . S
C374 O376 1.247 . S
C374 O378 1.258 . S
C375 O382 1.247 . S
C375 O383 1.258 . S
O376 C374 1.247 . S
O376 Zn377 2.028 . S
Zn377 O376 2.028 . S
Zn377 O381 2.035 . S
Zn377 O383 2.035 . S
Zn377 O384 2.028 . S
O378 C374 1.258 . S
O378 Zn379 2.035 . S
Zn379 O378 2.035 . S
Zn379 O380 2.028 . S
Zn379 O382 2.028 . S
Zn379 O385 2.035 . S
O380 Zn379 2.028 . S
O380 C386 1.247 . S
O381 Zn377 2.035 . S
O381 C386 1.258 . S
O382 C375 1.247 . S
O382 Zn379 2.028 . S
O383 C375 1.258 . S
O383 Zn377 2.035 . S
O384 Zn377 2.028 . S
O384 C387 1.247 . S
O385 Zn379 2.035 . S
O385 C387 1.258 . S
C386 O380 1.247 . S
C386 O381 1.258 . S
C387 O384 1.247 . S
C387 O385 1.258 . S
C388 O390 1.247 . S
C388 O392 1.258 . S
C389 O396 1.247 . S
C389 O397 1.258 . S
O390 C388 1.247 . S
O390 Zn391 2.028 . S
Zn391 O390 2.028 . S
Zn391 O395 2.035 . S
Zn391 O397 2.035 . S
Zn391 O398 2.028 . S
O392 C388 1.258 . S
O392 Zn393 2.035 . S
Zn393 O392 2.035 . S
Zn393 O394 2.028 . S
Zn393 O396 2.028 . S
Zn393 O399 2.035 . S
O394 Zn393 2.028 . S
O394 C400 1.247 . S
O395 Zn391 2.035 . S
O395 C400 1.258 . S
O396 C389 1.247 . S
O396 Zn393 2.028 . S
O397 C389 1.258 . S
O397 Zn391 2.035 . S
O398 Zn391 2.028 . S
O398 C401 1.247 . S
O399 Zn393 2.035 . S
O399 C401 1.258 . S
C400 O394 1.247 . S
C400 O395 1.258 . S
C401 O398 1.247 . S
C401 O399 1.258 . S
C39 C319 1.951 . S
C91 C344 1.891 . S
C347 C128 1.591 . S
C373 C188 1.530 . S
C374 C250 1.771 . S
C401 C304 1.887 . S
C75 C346 1.686 . S
C144 C372 1.914 . S
C375 C198 1.819 . S
C400 C234 1.536 . S
C294 C318 1.485 . S
C345 C29 1.542 . S
C360 C38 1.951 . S
C92 C387 1.891 . S
C388 C135 1.591 . S
C181 C330 1.530 . S
C251 C333 1.771 . S
C303 C358 1.887 . S
C82 C389 1.686 . S
C331 C145 1.914 . S
C197 C332 1.819 . S
C241 C359 1.536 . S
C287 C361 1.485 . S
C22 C386 1.542 . S
