# Generated by pormake.
# Topology pts, (4,4)-cn, num edge types: 1
# Building blocks:
#     Node 0, Type 0, BuildingBlock: NAWXER_clean_sbu_0, # of connection points: 4
#     Node 1, Type 0, BuildingBlock: NAWXER_clean_sbu_0, # of connection points: 4
#     Node 2, Type 1, BuildingBlock: UXUYUI_clean_sbu_0, # of connection points: 4
#     Node 3, Type 1, BuildingBlock: UXUYUI_clean_sbu_0, # of connection points: 4
#     Edge 4, Type (0, 1), BuildingBlock: AJUNOK_clean_linker_0, # of connection points: 2
#     Edge 5, Type (0, 1), BuildingBlock: AJUNOK_clean_linker_0, # of connection points: 2
#     Edge 6, Type (0, 1), BuildingBlock: AJUNOK_clean_linker_0, # of connection points: 2
#     Edge 7, Type (0, 1), BuildingBlock: AJUNOK_clean_linker_0, # of connection points: 2
#     Edge 8, Type (0, 1), BuildingBlock: AJUNOK_clean_linker_0, # of connection points: 2
#     Edge 9, Type (0, 1), BuildingBlock: AJUNOK_clean_linker_0, # of connection points: 2
#     Edge 10, Type (0, 1), BuildingBlock: AJUNOK_clean_linker_0, # of connection points: 2
#     Edge 11, Type (0, 1), BuildingBlock: AJUNOK_clean_linker_0, # of connection points: 2
# Relax obj value: 0.015
# Max RMSD: 0.059
# Mean RMSD: 0.051
data_MOF--net-pts--node1-NAWXER_clean_sbu_0--node2-UXUYUI_clean_sbu_0--edge1-AJUNOK_clean_linker_0
_symmetry_space_group_name_H-M    P1
_symmetry_Int_Tables_number       1
_symmetry_cell_setting            triclinic
loop_
_symmetry_equiv_pos_as_xyz
'x, y, z'
_cell_length_a     22.400035
_cell_length_b     22.414396
_cell_length_c     35.851783
_cell_angle_alpha  90.028338
_cell_angle_beta   89.840495
_cell_angle_gamma 90.086472
loop_
_atom_site_label
_atom_site_type_symbol
_atom_site_fract_x
_atom_site_fract_y
_atom_site_fract_z
_atom_type_partial_charge
C0 C 0.42314 0.05868 0.97403 0.0
C1 C 0.59694 0.05844 0.05714 0.0
O2 O 0.44275 1.00698 0.98271 0.0
Zn3 Zn 0.511 0.96654 1.01447 0.0
O4 O 0.44975 0.10524 0.98584 0.0
Zn5 Zn 0.51022 0.0636 1.01551 0.0
O6 O 0.56471 0.02482 0.97333 0.0
O7 O 0.56014 0.9265 0.97697 0.0
O8 O 0.56961 0.10503 0.04618 0.0
O9 O 0.5784 1.00679 0.0473 0.0
O10 O 0.46258 0.92337 0.05103 0.0
O11 O 0.45697 0.02141 0.05702 0.0
C12 C 0.58077 0.97337 0.9615 0.0
C13 C 0.44195 0.96905 0.06778 0.0
C14 C 0.05832 0.5887 0.4622 0.0
C15 C 0.07268 0.44119 0.56313 0.0
O16 O 1.00837 0.5716 0.47586 0.0
Zn17 Zn 0.97348 0.51406 0.51704 0.0
O18 O 0.10668 0.56769 0.47532 0.0
Zn19 Zn 0.07062 0.51449 0.51265 0.0
O20 O 0.0269 0.44875 0.48038 0.0
O21 O 0.92898 0.45589 0.48694 0.0
O22 O 0.11712 0.46237 0.54518 0.0
O23 O 0.01953 0.45741 0.55496 0.0
O24 O 0.93555 0.57059 0.55147 0.0
O25 O 0.034 0.57547 0.55175 0.0
C26 C 0.97435 0.43009 0.4728 0.0
C27 C 0.98353 0.593 0.56446 0.0
Li28 Li 1.01604 0.07063 0.28821 0.0
Li29 Li 0.01728 0.9615 0.28717 0.0
Li30 Li 0.06936 1.01573 0.24116 0.0
Li31 Li 0.96262 0.01812 0.23688 0.0
C32 C 0.09934 0.0172 0.33262 0.0
N33 N 0.12743 0.01904 0.40765 0.0
C34 C 0.05399 1.01576 0.35952 0.0
C35 C 0.15894 0.01962 0.34394 0.0
C36 C 0.06912 0.01671 0.39728 0.0
C37 C 0.17224 0.0205 0.38199 0.0
C38 C 0.89383 0.9857 0.29878 0.0
C39 C 0.82901 0.90135 0.28818 0.0
N40 N 0.78817 0.92534 0.31195 0.0
C41 C 0.85128 1.00942 0.32319 0.0
C42 C 0.8827 0.93113 0.28119 0.0
C43 C 0.79813 0.97826 0.32946 0.0
C44 C 0.95174 0.15875 0.32627 0.0
N45 N 1.00814 0.13891 0.31967 0.0
C46 C 0.04804 0.21191 0.36131 0.0
C47 C 0.05613 0.16499 0.33613 0.0
C48 C 0.99002 0.23179 0.36986 0.0
C49 C 0.94157 0.20539 0.35139 0.0
H50 H 0.91448 0.13758 0.31243 0.0
H51 H 0.10059 0.14875 0.33019 0.0
C52 C 0.07443 0.85965 0.31435 0.0
N53 N 0.02318 0.89171 0.31794 0.0
C54 C 0.08384 0.80867 0.33601 0.0
C55 C 0.98852 0.82585 0.36577 0.0
C56 C 0.9811 0.8766 0.34369 0.0
C57 C 0.04004 0.79073 0.36167 0.0
H58 H 0.10839 0.87414 0.29488 0.0
H59 H 0.94214 0.90416 0.3476 0.0
C60 C 0.05242 0.1259 0.21485 0.0
N61 N 0.12485 0.20334 0.17545 0.0
C62 C 0.03818 0.14123 0.17817 0.0
C63 C 0.10324 0.1501 0.2316 0.0
C64 C 0.07544 0.18045 0.15869 0.0
C65 C 0.13938 0.18911 0.21117 0.0
C66 C 0.03694 0.92118 0.201 0.0
C67 C 0.01713 0.93943 0.16587 0.0
C68 C 0.0806 0.8769 0.20363 0.0
C69 C 0.04165 0.91332 0.13393 0.0
C70 C 0.10419 0.85205 0.17103 0.0
N71 N 0.08438 0.87061 0.13715 0.0
C72 C 0.19087 0.9895 0.2286 0.0
C73 C 0.13991 0.02015 0.17405 0.0
C74 C 0.24267 0.9782 0.20795 0.0
N75 N 0.14085 1.01006 0.21147 0.0
C76 C 0.19041 1.00863 0.15226 0.0
C77 C 0.24253 0.98733 0.16924 0.0
H78 H 0.19009 0.98053 0.25821 0.0
H79 H 0.09946 0.03544 0.16086 0.0
C80 C 0.87625 0.08229 0.19737 0.0
N81 N 0.89438 0.02592 0.20557 0.0
C82 C 0.82855 0.09176 0.17303 0.0
C83 C 0.81783 0.98488 0.16702 0.0
C84 C 0.86593 0.97748 0.19127 0.0
C85 C 0.79934 0.04265 0.15701 0.0
H86 H 0.89958 0.12 0.2093 0.0
H87 H 0.88122 0.93312 0.19817 0.0
O88 O 0.08602 0.01657 0.29536 0.0
O89 O 0.94595 1.01595 0.29229 0.0
O90 O 0.01705 0.08694 0.23418 0.0
O91 O 1.01392 0.94676 0.23259 0.0
H92 H 1.0076 1.01409 0.35151 0.0
H93 H 0.19461 0.021 0.32354 0.0
H94 H 0.03448 1.01566 0.41836 0.0
H95 H 0.21819 0.0224 0.39112 0.0
H96 H 0.81988 0.85908 0.27476 0.0
H97 H 0.85926 0.05138 0.33726 0.0
H98 H 0.91533 0.91157 0.26263 0.0
H99 H 0.76481 0.99612 0.34828 0.0
H100 H 0.0868 0.2322 0.37414 0.0
H101 H 0.89623 0.21958 0.35703 0.0
H102 H 0.12449 0.78318 0.33242 0.0
H103 H 0.95456 0.81446 0.38613 0.0
H104 H 0.99907 0.12261 0.16482 0.0
H105 H 0.11501 0.13826 0.25989 0.0
H106 H 0.06516 0.19256 0.13023 0.0
H107 H 0.17905 0.20795 0.22368 0.0
H108 H 0.98415 0.97428 0.16318 0.0
H109 H 0.09648 0.86214 0.23049 0.0
H110 H 0.02702 0.92735 0.10658 0.0
H111 H 0.13829 0.81804 0.17267 0.0
H112 H 0.28205 0.96146 0.22191 0.0
H113 H 0.18885 0.01647 0.12247 0.0
H114 H 0.8156 0.13695 0.1661 0.0
H115 H 0.79555 0.94576 0.15602 0.0
Li116 Li 0.95236 0.02506 0.78659 0.0
Li117 Li 0.05961 0.02235 0.79118 0.0
Li118 Li 1.01649 0.07747 0.74036 0.0
Li119 Li 1.01286 0.96437 0.74087 0.0
C120 C 0.99044 0.12898 0.82266 0.0
N121 N 0.95432 0.20154 0.88077 0.0
C122 C 0.99736 0.11014 0.85954 0.0
C123 C 0.96559 0.18492 0.81532 0.0
C124 C 0.97871 0.14743 0.88854 0.0
C125 C 0.94748 0.22089 0.84509 0.0
C126 C 0.01744 0.91651 0.82317 0.0
C127 C 0.06186 0.82497 0.84476 0.0
N128 N 0.04627 0.83935 0.88034 0.0
C129 C 1.0011 0.93001 0.85985 0.0
C130 C 0.04741 0.86328 0.81541 0.0
C131 C 1.01639 0.89057 0.88841 0.0
C132 C 0.85748 0.96153 0.81663 0.0
N133 N 0.87889 0.0182 0.81388 0.0
C134 C 0.80007 0.05407 0.85298 0.0
C135 C 0.85075 0.06442 0.83105 0.0
C136 C 0.77787 0.99569 0.85713 0.0
C137 C 0.80677 0.94921 0.83809 0.0
H138 H 0.88042 0.92559 0.80247 0.0
H139 H 0.86778 0.10921 0.82823 0.0
C140 C 0.14251 0.08441 0.83519 0.0
N141 N 0.12563 0.02822 0.82531 0.0
C142 C 0.18959 0.09343 0.86005 0.0
C143 C 0.20312 0.98667 0.86287 0.0
C144 C 0.1556 0.97971 0.8381 0.0
C145 C 0.21992 0.04411 0.8747 0.0
H146 H 0.11932 0.12245 0.82373 0.0
H147 H 0.14337 0.93565 0.82875 0.0
C148 C 0.90246 0.05402 0.71363 0.0
N149 N 0.81491 0.11877 0.67785 0.0
C150 C 0.88268 0.03659 0.67835 0.0
C151 C 0.87787 0.10435 0.73073 0.0
C152 C 0.83833 0.06994 0.6607 0.0
C153 C 0.83358 0.13649 0.7122 0.0
C154 C 0.14295 1.01442 0.74079 0.0
C155 C 0.17781 0.06615 0.74159 0.0
C156 C 0.16988 0.95873 0.74542 0.0
C157 C 0.23929 0.06128 0.74727 0.0
C158 C 0.23152 0.95575 0.75096 0.0
N159 N 0.26463 1.00665 0.75181 0.0
C160 C 0.05302 0.19463 0.72545 0.0
C161 C 0.0184 0.14247 0.67216 0.0
C162 C 0.06671 0.24459 0.70379 0.0
N163 N 0.0288 0.14523 0.70946 0.0
C164 C 0.03171 0.19139 0.64938 0.0
C165 C 0.05584 0.24338 0.66527 0.0
H166 H 0.06253 0.19484 0.75501 0.0
H167 H 1.00034 0.1021 0.66007 0.0
C168 C 0.95864 0.85971 0.71494 0.0
N169 N 1.00798 0.89464 0.71103 0.0
C170 C 0.95132 0.80891 0.69274 0.0
C171 C 0.04575 0.83119 0.66298 0.0
C172 C 0.05103 0.88176 0.68553 0.0
C173 C 0.99553 0.79393 0.66661 0.0
H174 H 0.92483 0.87159 0.73523 0.0
H175 H 0.08918 0.911 0.68251 0.0
O176 O 1.00841 0.09327 0.79381 0.0
O177 O 1.00278 0.95436 0.7948 0.0
O178 O 0.94673 0.02267 0.7309 0.0
O179 O 0.08251 0.01839 0.73641 0.0
H180 H 0.01725 0.06739 0.86572 0.0
H181 H 0.9599 0.2002 0.78692 0.0
H182 H 0.98374 0.1334 0.91722 0.0
H183 H 0.92791 0.26416 0.83981 0.0
H184 H 0.08548 0.78383 0.83924 0.0
H185 H 0.97654 0.97028 0.86616 0.0
H186 H 0.0598 0.852 0.78706 0.0
H187 H 1.00431 0.90057 0.91697 0.0
H188 H 0.77918 0.09128 0.86718 0.0
H189 H 0.79039 0.90381 0.83971 0.0
H190 H 0.20153 0.13844 0.86814 0.0
H191 H 0.22677 0.9475 0.87247 0.0
H192 H 0.90163 0.99787 0.6647 0.0
H193 H 0.89309 0.11862 0.75789 0.0
H194 H 0.82262 0.05707 0.63334 0.0
H195 H 0.81416 0.17559 0.72507 0.0
H196 H 0.15748 0.10959 0.73827 0.0
H197 H 0.14334 0.91834 0.74533 0.0
H198 H 0.26683 0.10093 0.74818 0.0
H199 H 0.25296 0.91299 0.75481 0.0
H200 H 0.08607 0.28357 0.71694 0.0
H201 H 0.02255 0.18894 0.61977 0.0
H202 H 0.91202 0.78125 0.69626 0.0
H203 H 0.08028 0.82158 0.64264 0.0
C204 C 0.34407 0.93131 0.09159 0.0
C205 C 0.39665 0.96422 0.09757 0.0
C206 C 0.29467 0.93768 0.11554 0.0
C207 C 0.29684 0.97623 0.14656 0.0
H208 H 0.33975 0.90344 0.06704 0.0
H209 H 0.25399 0.91352 0.10925 0.0
S210 S 0.42577 0.0689 0.17554 0.0
N211 N 0.44897 0.03447 0.13743 0.0
N212 N 0.35685 0.04525 0.18287 0.0
C213 C 0.35024 1.00688 0.1538 0.0
C214 C 0.39997 1.00119 0.12916 0.0
C215 C 0.10751 0.34116 0.58452 0.0
C216 C 0.07953 0.39578 0.59246 0.0
C217 C 0.10112 0.29222 0.60875 0.0
C218 C 0.06738 0.29681 0.64187 0.0
H219 H 0.13123 0.33512 0.55842 0.0
H220 H 0.12137 0.25009 0.60107 0.0
S221 S 0.98869 0.43175 0.67602 0.0
N222 N 0.01938 0.45268 0.63618 0.0
N223 N 1.00809 0.36134 0.68191 0.0
C224 C 0.0418 0.3522 0.65085 0.0
C225 C 0.04769 0.40153 0.62606 0.0
C226 C 0.65454 0.09629 0.11234 0.0
C227 C 0.65174 0.06151 0.07979 0.0
C228 C 0.7032 0.09119 0.1369 0.0
C229 C 0.75051 0.05135 0.12951 0.0
H230 H 0.61775 0.12535 0.11973 0.0
H231 H 0.70271 0.11692 0.16248 0.0
S232 S 0.76807 0.95794 0.0447 0.0
N233 N 0.70277 0.99086 0.03944 0.0
N234 N 0.79445 0.98233 0.08488 0.0
C235 C 0.74954 0.01918 0.09585 0.0
C236 C 0.70009 0.02403 0.07118 0.0
C237 C 0.93546 0.68039 0.59691 0.0
C238 C 0.98317 0.63993 0.59365 0.0
C239 C 0.93881 0.7294 0.6214 0.0
C240 C 0.98996 0.73944 0.64333 0.0
H241 H 0.89638 0.67554 0.57943 0.0
H242 H 0.90208 0.76076 0.62222 0.0
S243 S 0.12264 0.64144 0.64958 0.0
N244 N 0.08007 0.60962 0.61774 0.0
N245 N 0.08605 0.70144 0.66333 0.0
C246 C 0.03635 0.69755 0.64178 0.0
C247 C 0.033 0.64786 0.61708 0.0
C248 C 0.36388 0.09865 0.92018 0.0
C249 C 0.36799 0.06171 0.9517 0.0
C250 C 0.31505 0.09388 0.89572 0.0
C251 C 0.26885 0.05225 0.9022 0.0
H252 H 0.3998 0.12925 0.91346 0.0
H253 H 0.31456 0.12136 0.87088 0.0
S254 S 0.2547 0.95256 0.98435 0.0
N255 N 0.3192 0.98694 0.99027 0.0
N256 N 0.22724 0.97893 0.94499 0.0
C257 C 0.27107 0.01778 0.93489 0.0
C258 C 0.32068 0.02232 0.95947 0.0
C259 C 0.93737 0.37605 0.41605 0.0
C260 C 0.96933 0.37595 0.44969 0.0
C261 C 0.94279 0.32838 0.39066 0.0
C262 C 0.98028 0.27932 0.39824 0.0
H263 H 0.91066 0.41441 0.40846 0.0
H264 H 0.91947 0.33113 0.36429 0.0
S265 S 0.06582 0.25459 0.48537 0.0
N266 N 0.03475 0.32074 0.491 0.0
N267 N 0.0438 0.23085 0.44402 0.0
C268 C 1.00939 0.27746 0.43291 0.0
C269 C 1.00418 0.32587 0.45844 0.0
C270 C 0.6271 1.01569 0.90424 0.0
C271 C 0.62653 0.97091 0.93172 0.0
C272 C 0.67513 0.02186 0.87944 0.0
C273 C 0.725 0.98394 0.88138 0.0
H274 H 0.59072 0.04738 0.90252 0.0
H275 H 0.67373 0.05753 0.85908 0.0
S276 S 0.74565 0.85975 0.94866 0.0
N277 N 0.67939 0.88738 0.95919 0.0
N278 N 0.77063 0.89963 0.91315 0.0
C279 C 0.72428 0.9378 0.90811 0.0
C280 C 0.67483 0.93113 0.93314 0.0
C281 C 0.1045 0.67669 0.42932 0.0
C282 C 0.05766 0.63511 0.43272 0.0
C283 C 0.0995 0.72618 0.40537 0.0
C284 C 0.04753 0.7356 0.38413 0.0
H285 H 0.14402 0.67251 0.44645 0.0
H286 H 0.13551 0.75847 0.40457 0.0
S287 S 0.91658 0.63474 0.37843 0.0
N288 N 0.96068 0.60319 0.40948 0.0
N289 N 0.95167 0.69575 0.36476 0.0
C290 C 1.00209 0.69251 0.38569 0.0
C291 C 1.00709 0.64237 0.40988 0.0
loop_
_geom_bond_atom_site_label_1
_geom_bond_atom_site_label_2
_geom_bond_distance
_geom_bond_site_symmetry_2
_ccdc_geom_bond_type
C0 O2 1.247 . S
C0 O4 1.258 1_565 S
C1 O8 1.251 . S
C1 O9 1.254 1_545 S
O2 C0 1.247 . S
O2 Zn3 2.028 1_556 S
Zn3 O2 2.028 1_554 S
Zn3 O7 2.035 1_554 S
Zn3 O9 2.035 . S
Zn3 O10 2.028 . S
O4 C0 1.258 1_545 S
O4 Zn5 2.035 1_556 S
Zn5 O4 2.035 1_554 S
Zn5 O6 2.028 1_554 S
Zn5 O8 2.028 . S
Zn5 O11 2.035 . S
O6 Zn5 2.028 1_556 S
O6 C12 1.251 . S
O7 Zn3 2.035 1_556 S
O7 C12 1.254 1_565 S
O8 C1 1.251 . S
O8 Zn5 2.028 . S
O9 C1 1.254 1_565 S
O9 Zn3 2.035 . S
O10 Zn3 2.028 . S
O10 C13 1.247 . S
O11 Zn5 2.035 . S
O11 C13 1.258 1_545 S
C12 O6 1.251 . S
C12 O7 1.254 1_545 S
C13 O10 1.247 . S
C13 O11 1.258 1_565 S
C14 O16 1.247 . S
C14 O18 1.258 1_655 S
C15 O22 1.251 . S
C15 O23 1.254 1_455 S
O16 C14 1.247 . S
O16 Zn17 2.028 . S
Zn17 O16 2.028 . S
Zn17 O21 2.035 . S
Zn17 O23 2.035 . S
Zn17 O24 2.028 . S
O18 C14 1.258 1_455 S
O18 Zn19 2.035 . S
Zn19 O18 2.035 . S
Zn19 O20 2.028 . S
Zn19 O22 2.028 . S
Zn19 O25 2.035 . S
O20 Zn19 2.028 . S
O20 C26 1.251 . S
O21 Zn17 2.035 . S
O21 C26 1.254 1_655 S
O22 C15 1.251 . S
O22 Zn19 2.028 . S
O23 C15 1.254 1_655 S
O23 Zn17 2.035 . S
O24 Zn17 2.028 . S
O24 C27 1.247 . S
O25 Zn19 2.035 . S
O25 C27 1.258 1_455 S
C26 O20 1.251 . S
C26 O21 1.254 1_455 S
C27 O24 1.247 . S
C27 O25 1.258 1_655 S
Li28 N45 1.990 . S
Li28 O88 1.956 1_545 S
Li28 O89 1.970 1_455 S
Li28 O90 1.961 1_455 S
Li29 N53 1.990 . S
Li29 O88 1.970 1_655 S
Li29 O89 1.956 1_565 S
Li29 O91 1.961 1_655 S
Li30 N75 1.990 . S
Li30 O88 1.961 1_545 S
Li30 O90 1.956 1_455 S
Li30 O91 1.970 1_545 S
Li31 N81 1.990 . S
Li31 O89 1.961 1_565 S
Li31 O90 1.970 1_565 S
Li31 O91 1.956 1_655 S
C32 C34 1.348 1_545 S
C32 C35 1.356 . S
C32 O88 1.325 1_545 S
N33 C36 1.314 1_545 S
N33 C37 1.279 . S
C34 C32 1.348 1_565 S
C34 C36 1.353 . S
C34 H92 0.929 . S
C35 C32 1.356 . S
C35 C37 1.358 . S
C35 H93 0.930 . S
C36 N33 1.314 1_565 S
C36 C34 1.353 . S
C36 H94 0.930 . S
C37 N33 1.279 . S
C37 C35 1.358 . S
C37 H95 0.930 . S
C38 C41 1.348 . S
C38 C42 1.356 1_545 S
C38 O89 1.325 . S
C39 N40 1.279 . S
C39 C42 1.358 . S
C39 H96 0.930 . S
N40 C39 1.279 . S
N40 C43 1.314 1_565 S
C41 C38 1.348 . S
C41 C43 1.353 . S
C41 H97 0.929 . S
C42 C38 1.356 1_565 S
C42 C39 1.358 . S
C42 H98 0.930 . S
C43 N40 1.314 1_545 S
C43 C41 1.353 . S
C43 H99 0.930 . S
C44 N45 1.314 1_655 S
C44 C49 1.353 . S
C44 H50 0.930 . S
N45 Li28 1.990 . S
N45 C44 1.314 1_455 S
N45 C47 1.279 . S
C46 C47 1.358 . S
C46 C48 1.356 . S
C46 H100 0.930 . S
C47 N45 1.279 . S
C47 C46 1.358 . S
C47 H51 0.930 . S
C48 C46 1.356 . S
C48 C49 1.348 1_455 S
C49 C44 1.353 . S
C49 C48 1.348 1_655 S
C49 H101 0.929 . S
H50 C44 0.930 . S
H51 C47 0.930 . S
C52 N53 1.314 1_455 S
C52 C54 1.353 . S
C52 H58 0.930 . S
N53 Li29 1.990 . S
N53 C52 1.314 1_655 S
N53 C56 1.279 . S
C54 C52 1.353 . S
C54 C57 1.348 . S
C54 H102 0.929 . S
C55 C56 1.358 . S
C55 C57 1.356 1_655 S
C55 H103 0.930 . S
C56 N53 1.279 . S
C56 C55 1.358 . S
C56 H59 0.930 . S
C57 C54 1.348 . S
C57 C55 1.356 1_455 S
H58 C52 0.930 . S
H59 C56 0.930 . S
C60 C62 1.348 1_455 S
C60 C63 1.356 . S
C60 O90 1.325 1_455 S
N61 C64 1.314 1_455 S
N61 C65 1.279 . S
C62 C60 1.348 1_655 S
C62 C64 1.353 . S
C62 H104 0.929 . S
C63 C60 1.356 . S
C63 C65 1.358 . S
C63 H105 0.930 . S
C64 N61 1.314 1_655 S
C64 C62 1.353 . S
C64 H106 0.930 . S
C65 N61 1.279 . S
C65 C63 1.358 . S
C65 H107 0.930 . S
C66 C67 1.348 . S
C66 C68 1.356 1_455 S
C66 O91 1.325 . S
C67 C66 1.348 . S
C67 C69 1.353 . S
C67 H108 0.929 . S
C68 C66 1.356 1_655 S
C68 C70 1.358 . S
C68 H109 0.930 . S
C69 C67 1.353 . S
C69 N71 1.314 1_455 S
C69 H110 0.930 . S
C70 C68 1.358 . S
C70 N71 1.279 . S
C70 H111 0.930 . S
N71 C69 1.314 1_655 S
N71 C70 1.279 . S
C72 C74 1.353 . S
C72 N75 1.314 1_565 S
C72 H78 0.930 . S
C73 N75 1.279 . S
C73 C76 1.358 . S
C73 H79 0.930 . S
C74 C72 1.353 . S
C74 C77 1.348 1_565 S
C74 H112 0.929 . S
N75 Li30 1.990 . S
N75 C72 1.314 1_545 S
N75 C73 1.279 . S
C76 C73 1.358 . S
C76 C77 1.356 . S
C76 H113 0.930 . S
C77 C74 1.348 1_545 S
C77 C76 1.356 . S
H78 C72 0.930 . S
H79 C73 0.930 . S
C80 N81 1.314 1_545 S
C80 C82 1.353 . S
C80 H86 0.930 . S
N81 Li31 1.990 . S
N81 C80 1.314 1_565 S
N81 C84 1.279 . S
C82 C80 1.353 . S
C82 C85 1.348 . S
C82 H114 0.929 . S
C83 C84 1.358 . S
C83 C85 1.356 1_565 S
C83 H115 0.930 . S
C84 N81 1.279 . S
C84 C83 1.358 . S
C84 H87 0.930 . S
C85 C82 1.348 . S
C85 C83 1.356 1_545 S
H86 C80 0.930 . S
H87 C84 0.930 . S
O88 Li28 1.956 1_565 S
O88 Li29 1.970 1_455 S
O88 Li30 1.961 1_565 S
O88 C32 1.325 1_565 S
O89 Li28 1.970 1_655 S
O89 Li29 1.956 1_545 S
O89 Li31 1.961 1_545 S
O89 C38 1.325 . S
O90 Li28 1.961 1_655 S
O90 Li30 1.956 1_655 S
O90 Li31 1.970 1_545 S
O90 C60 1.325 1_655 S
O91 Li29 1.961 1_455 S
O91 Li30 1.970 1_565 S
O91 Li31 1.956 1_455 S
O91 C66 1.325 . S
H92 C34 0.929 . S
H93 C35 0.930 . S
H94 C36 0.930 . S
H95 C37 0.930 . S
H96 C39 0.930 . S
H97 C41 0.929 . S
H98 C42 0.930 . S
H99 C43 0.930 . S
H100 C46 0.930 . S
H101 C49 0.929 . S
H102 C54 0.929 . S
H103 C55 0.930 . S
H104 C62 0.929 . S
H105 C63 0.930 . S
H106 C64 0.930 . S
H107 C65 0.930 . S
H108 C67 0.929 . S
H109 C68 0.930 . S
H110 C69 0.930 . S
H111 C70 0.930 . S
H112 C74 0.929 . S
H113 C76 0.930 . S
H114 C82 0.929 . S
H115 C83 0.930 . S
Li116 N133 1.990 . S
Li116 O176 1.956 1_655 S
Li116 O177 1.970 1_545 S
Li116 O178 1.961 1_545 S
Li117 N141 1.990 . S
Li117 O176 1.970 1_565 S
Li117 O177 1.956 1_455 S
Li117 O179 1.961 1_565 S
Li118 N163 1.990 . S
Li118 O176 1.961 1_655 S
Li118 O178 1.956 1_545 S
Li118 O179 1.970 1_655 S
Li119 N169 1.990 . S
Li119 O177 1.961 1_455 S
Li119 O178 1.970 1_455 S
Li119 O179 1.956 1_565 S
C120 C122 1.348 . S
C120 C123 1.356 1_455 S
C120 O176 1.325 . S
N121 C124 1.314 1_655 S
N121 C125 1.279 . S
C122 C120 1.348 . S
C122 C124 1.353 . S
C122 H180 0.929 . S
C123 C120 1.356 1_655 S
C123 C125 1.358 . S
C123 H181 0.930 . S
C124 N121 1.314 1_455 S
C124 C122 1.353 . S
C124 H182 0.930 . S
C125 N121 1.279 . S
C125 C123 1.358 . S
C125 H183 0.930 . S
C126 C129 1.348 1_455 S
C126 C130 1.356 . S
C126 O177 1.325 1_455 S
C127 N128 1.279 . S
C127 C130 1.358 . S
C127 H184 0.930 . S
N128 C127 1.279 . S
N128 C131 1.314 1_455 S
C129 C126 1.348 1_655 S
C129 C131 1.353 . S
C129 H185 0.929 . S
C130 C126 1.356 . S
C130 C127 1.358 . S
C130 H186 0.930 . S
C131 N128 1.314 1_655 S
C131 C129 1.353 . S
C131 H187 0.930 . S
C132 N133 1.314 1_565 S
C132 C137 1.353 . S
C132 H138 0.930 . S
N133 Li116 1.990 . S
N133 C132 1.314 1_545 S
N133 C135 1.279 . S
C134 C135 1.358 . S
C134 C136 1.356 . S
C134 H188 0.930 . S
C135 N133 1.279 . S
C135 C134 1.358 . S
C135 H139 0.930 . S
C136 C134 1.356 . S
C136 C137 1.348 1_545 S
C137 C132 1.353 . S
C137 C136 1.348 1_565 S
C137 H189 0.929 . S
H138 C132 0.930 . S
H139 C135 0.930 . S
C140 N141 1.314 1_545 S
C140 C142 1.353 . S
C140 H146 0.930 . S
N141 Li117 1.990 . S
N141 C140 1.314 1_565 S
N141 C144 1.279 . S
C142 C140 1.353 . S
C142 C145 1.348 . S
C142 H190 0.929 . S
C143 C144 1.358 . S
C143 C145 1.356 1_565 S
C143 H191 0.930 . S
C144 N141 1.279 . S
C144 C143 1.358 . S
C144 H147 0.930 . S
C145 C142 1.348 . S
C145 C143 1.356 1_545 S
H146 C140 0.930 . S
H147 C144 0.930 . S
C148 C150 1.348 1_545 S
C148 C151 1.356 . S
C148 O178 1.325 1_545 S
N149 C152 1.314 1_545 S
N149 C153 1.279 . S
C150 C148 1.348 1_565 S
C150 C152 1.353 . S
C150 H192 0.929 . S
C151 C148 1.356 . S
C151 C153 1.358 . S
C151 H193 0.930 . S
C152 N149 1.314 1_565 S
C152 C150 1.353 . S
C152 H194 0.930 . S
C153 N149 1.279 . S
C153 C151 1.358 . S
C153 H195 0.930 . S
C154 C155 1.348 . S
C154 C156 1.356 1_545 S
C154 O179 1.325 . S
C155 C154 1.348 . S
C155 C157 1.353 . S
C155 H196 0.929 . S
C156 C154 1.356 1_565 S
C156 C158 1.358 . S
C156 H197 0.930 . S
C157 C155 1.353 . S
C157 N159 1.314 1_545 S
C157 H198 0.930 . S
C158 C156 1.358 . S
C158 N159 1.279 . S
C158 H199 0.930 . S
N159 C157 1.314 1_565 S
N159 C158 1.279 . S
C160 C162 1.353 . S
C160 N163 1.314 1_455 S
C160 H166 0.930 . S
C161 N163 1.279 . S
C161 C164 1.358 . S
C161 H167 0.930 . S
C162 C160 1.353 . S
C162 C165 1.348 . S
C162 H200 0.929 . S
N163 Li118 1.990 . S
N163 C160 1.314 1_655 S
N163 C161 1.279 . S
C164 C161 1.358 . S
C164 C165 1.356 1_655 S
C164 H201 0.930 . S
C165 C162 1.348 . S
C165 C164 1.356 1_455 S
H166 C160 0.930 . S
H167 C161 0.930 . S
C168 N169 1.314 1_655 S
C168 C170 1.353 . S
C168 H174 0.930 . S
N169 Li119 1.990 . S
N169 C168 1.314 1_455 S
N169 C172 1.279 . S
C170 C168 1.353 . S
C170 C173 1.348 1_655 S
C170 H202 0.929 . S
C171 C172 1.358 . S
C171 C173 1.356 . S
C171 H203 0.930 . S
C172 N169 1.279 . S
C172 C171 1.358 . S
C172 H175 0.930 . S
C173 C170 1.348 1_455 S
C173 C171 1.356 . S
H174 C168 0.930 . S
H175 C172 0.930 . S
O176 Li116 1.956 1_455 S
O176 Li117 1.970 1_545 S
O176 Li118 1.961 1_455 S
O176 C120 1.325 . S
O177 Li116 1.970 1_565 S
O177 Li117 1.956 1_655 S
O177 Li119 1.961 1_655 S
O177 C126 1.325 1_655 S
O178 Li116 1.961 1_565 S
O178 Li118 1.956 1_565 S
O178 Li119 1.970 1_655 S
O178 C148 1.325 1_565 S
O179 Li117 1.961 1_545 S
O179 Li118 1.970 1_455 S
O179 Li119 1.956 1_545 S
O179 C154 1.325 . S
H180 C122 0.929 . S
H181 C123 0.930 . S
H182 C124 0.930 . S
H183 C125 0.930 . S
H184 C127 0.930 . S
H185 C129 0.929 . S
H186 C130 0.930 . S
H187 C131 0.930 . S
H188 C134 0.930 . S
H189 C137 0.929 . S
H190 C142 0.929 . S
H191 C143 0.930 . S
H192 C150 0.929 . S
H193 C151 0.930 . S
H194 C152 0.930 . S
H195 C153 0.930 . S
H196 C155 0.929 . S
H197 C156 0.930 . S
H198 C157 0.930 . S
H199 C158 0.930 . S
H200 C162 0.929 . S
H201 C164 0.930 . S
H202 C170 0.929 . S
H203 C171 0.930 . S
C204 C205 1.370 . S
C204 C206 1.419 . S
C204 H208 0.930 . S
C205 C204 1.370 . S
C205 C214 1.428 1_565 S
C206 C204 1.419 . S
C206 C207 1.363 . S
C206 H209 0.929 . S
C207 C206 1.363 . S
C207 C213 1.428 1_565 S
H208 C204 0.930 . S
H209 C206 0.929 . S
S210 N211 1.613 . S
S210 N212 1.610 . S
N211 S210 1.613 . S
N211 C214 1.350 . S
N212 S210 1.610 . S
N212 C213 1.351 . S
C213 C207 1.428 1_545 S
C213 N212 1.351 . S
C213 C214 1.434 . S
C214 C205 1.428 1_545 S
C214 N211 1.350 . S
C214 C213 1.434 . S
C215 C216 1.369 . S
C215 C217 1.419 . S
C215 H219 0.930 . S
C216 C215 1.369 . S
C216 C225 1.429 1_455 S
C217 C215 1.419 . S
C217 C218 1.375 . S
C217 H220 0.929 . S
C218 C217 1.375 . S
C218 C224 1.417 1_455 S
H219 C215 0.930 . S
H220 C217 0.929 . S
S221 N222 1.613 . S
S221 N223 1.610 . S
N222 S221 1.613 . S
N222 C225 1.350 . S
N223 S221 1.610 . S
N223 C224 1.351 . S
C224 C218 1.417 1_655 S
C224 N223 1.351 . S
C224 C225 1.434 . S
C225 C216 1.429 1_655 S
C225 N222 1.350 . S
C225 C224 1.434 . S
C226 C227 1.368 1_545 S
C226 C228 1.419 . S
C226 H230 0.930 . S
C227 C226 1.368 1_565 S
C227 C236 1.430 . S
C228 C226 1.419 . S
C228 C229 1.369 . S
C228 H231 0.929 . S
C229 C228 1.369 . S
C229 C235 1.423 1_545 S
H230 C226 0.930 . S
H231 C228 0.929 . S
S232 N233 1.613 . S
S232 N234 1.610 . S
N233 S232 1.613 . S
N233 C236 1.350 . S
N234 S232 1.610 . S
N234 C235 1.351 . S
C235 C229 1.423 1_565 S
C235 N234 1.351 . S
C235 C236 1.434 . S
C236 C227 1.430 . S
C236 N233 1.350 . S
C236 C235 1.434 . S
C237 C238 1.359 1_655 S
C237 C239 1.419 . S
C237 H241 0.930 . S
C238 C237 1.359 1_455 S
C238 C247 1.439 . S
C239 C237 1.419 . S
C239 C240 1.369 . S
C239 H242 0.929 . S
C240 C239 1.369 . S
C240 C246 1.422 1_655 S
H241 C237 0.930 . S
H242 C239 0.929 . S
S243 N244 1.613 . S
S243 N245 1.610 . S
N244 S243 1.613 . S
N244 C247 1.350 . S
N245 S243 1.610 . S
N245 C246 1.351 . S
C246 C240 1.422 1_455 S
C246 N245 1.351 . S
C246 C247 1.434 . S
C247 C238 1.439 . S
C247 N244 1.350 . S
C247 C246 1.434 . S
C248 C249 1.366 1_545 S
C248 C250 1.419 . S
C248 H252 0.930 . S
C249 C248 1.366 1_565 S
C249 C258 1.431 . S
C250 C248 1.419 . S
C250 C251 1.370 . S
C250 H253 0.929 . S
C251 C250 1.370 . S
C251 C257 1.421 1_545 S
H252 C248 0.930 . S
H253 C250 0.929 . S
S254 N255 1.613 . S
S254 N256 1.610 . S
N255 S254 1.613 . S
N255 C258 1.350 . S
N256 S254 1.610 . S
N256 C257 1.351 . S
C257 C251 1.421 1_565 S
C257 N256 1.351 . S
C257 C258 1.434 . S
C258 C249 1.431 . S
C258 N255 1.350 . S
C258 C257 1.434 . S
C259 C260 1.366 1_655 S
C259 C261 1.419 . S
C259 H263 0.930 . S
C260 C259 1.366 1_455 S
C260 C269 1.432 . S
C261 C259 1.419 . S
C261 C262 1.367 . S
C261 H264 0.929 . S
C262 C261 1.367 . S
C262 C268 1.424 1_655 S
H263 C259 0.930 . S
H264 C261 0.929 . S
S265 N266 1.613 . S
S265 N267 1.610 . S
N266 S265 1.613 . S
N266 C269 1.350 . S
N267 S265 1.610 . S
N267 C268 1.351 . S
C268 C262 1.424 1_455 S
C268 N267 1.351 . S
C268 C269 1.434 . S
C269 C260 1.432 . S
C269 N266 1.350 . S
C269 C268 1.434 . S
C270 C271 1.366 1_545 S
C270 C272 1.419 . S
C270 H274 0.930 . S
C271 C270 1.366 1_565 S
C271 C280 1.431 . S
C272 C270 1.419 . S
C272 C273 1.363 1_545 S
C272 H275 0.929 . S
C273 C272 1.363 1_565 S
C273 C279 1.428 . S
H274 C270 0.930 . S
H275 C272 0.929 . S
S276 N277 1.613 . S
S276 N278 1.610 . S
N277 S276 1.613 . S
N277 C280 1.350 . S
N278 S276 1.610 . S
N278 C279 1.351 . S
C279 C273 1.428 . S
C279 N278 1.351 . S
C279 C280 1.434 . S
C280 C271 1.431 . S
C280 N277 1.350 . S
C280 C279 1.434 . S
C281 C282 1.364 1_455 S
C281 C283 1.419 . S
C281 H285 0.930 . S
C282 C281 1.364 1_655 S
C282 C291 1.434 . S
C283 C281 1.419 . S
C283 C284 1.372 . S
C283 H286 0.929 . S
C284 C283 1.372 . S
C284 C290 1.419 1_455 S
H285 C281 0.930 . S
H286 C283 0.929 . S
S287 N288 1.613 . S
S287 N289 1.610 . S
N288 S287 1.613 . S
N288 C291 1.350 . S
N289 S287 1.610 . S
N289 C290 1.351 . S
C290 C284 1.419 1_655 S
C290 N289 1.351 . S
C290 C291 1.434 . S
C291 C282 1.434 . S
C291 N288 1.350 . S
C291 C290 1.434 . S
C207 C77 1.471 1_565 S
C205 C13 1.466 . S
C218 C165 1.471 . S
C216 C15 1.470 . S
C229 C85 1.469 . S
C227 C1 1.471 1_565 S
C240 C173 1.470 1_655 S
C238 C27 1.471 1_455 S
C251 C145 1.470 . S
C249 C0 1.472 . S
C262 C48 1.469 1_655 S
C260 C26 1.471 . S
C273 C136 1.470 1_565 S
C271 C12 1.475 1_565 S
C282 C14 1.471 . S
C284 C57 1.470 . S
