# Generated by pormake.
# Topology pts, (4,4)-cn, num edge types: 1
# Building blocks:
#     Node 0, Type 0, BuildingBlock: MUDLON_clean_sbu_0, # of connection points: 4
#     Node 1, Type 0, BuildingBlock: MUDLON_clean_sbu_0, # of connection points: 4
#     Node 2, Type 1, BuildingBlock: UXUYUI_clean_sbu_0, # of connection points: 4
#     Node 3, Type 1, BuildingBlock: UXUYUI_clean_sbu_0, # of connection points: 4
#     Edge 4, Type (0, 1), BuildingBlock: FUNLAD_clean_linker_0, # of connection points: 2
#     Edge 5, Type (0, 1), BuildingBlock: FUNLAD_clean_linker_0, # of connection points: 2
#     Edge 6, Type (0, 1), BuildingBlock: FUNLAD_clean_linker_0, # of connection points: 2
#     Edge 7, Type (0, 1), BuildingBlock: FUNLAD_clean_linker_0, # of connection points: 2
#     Edge 8, Type (0, 1), BuildingBlock: FUNLAD_clean_linker_0, # of connection points: 2
#     Edge 9, Type (0, 1), BuildingBlock: FUNLAD_clean_linker_0, # of connection points: 2
#     Edge 10, Type (0, 1), BuildingBlock: FUNLAD_clean_linker_0, # of connection points: 2
#     Edge 11, Type (0, 1), BuildingBlock: FUNLAD_clean_linker_0, # of connection points: 2
# Relax obj value: 0.040
# Max RMSD: 0.092
# Mean RMSD: 0.080
data_MOF--net-pts--node1-MUDLON_clean_sbu_0--node2-UXUYUI_clean_sbu_0--edge1-FUNLAD_clean_linker_0
_symmetry_space_group_name_H-M    P1
_symmetry_Int_Tables_number       1
_symmetry_cell_setting            triclinic
loop_
_symmetry_equiv_pos_as_xyz
'x, y, z'
_cell_length_a     32.196723
_cell_length_b     32.098964
_cell_length_c     54.327698
_cell_angle_alpha  90.158517
_cell_angle_beta   89.949876
_cell_angle_gamma 89.912671
loop_
_atom_site_label
_atom_site_type_symbol
_atom_site_fract_x
_atom_site_fract_y
_atom_site_fract_z
_atom_type_partial_charge
Mg0 Mg 0.50802 1.00726 0.06645 0.0
C1 C 0.46059 0.02026 0.02035 0.0
O2 O 0.48083 0.9854 0.01613 0.0
C3 C 0.54045 0.05061 0.11219 0.0
O4 O 0.50633 0.03449 0.12138 0.0
C5 C 0.4295 0.96954 0.08767 0.0
O6 O 0.41499 0.98217 0.06637 0.0
O7 O 0.46826 0.97266 0.09186 0.0
O8 O 0.46692 0.03931 0.0406 0.0
O9 O 0.551 0.97056 0.04394 0.0
C10 C 0.58993 0.97197 0.04792 0.0
O11 O 0.6034 0.99087 0.06783 0.0
O12 O 0.5471 0.04743 0.08916 0.0
Mg13 Mg 1.00625 0.50701 0.56163 0.0
C14 C 0.04283 0.58893 0.57967 0.0
O15 O 0.02614 0.60217 0.55907 0.0
C16 C 0.04828 0.42754 0.54387 0.0
O17 O 0.03893 0.41589 0.56636 0.0
C18 C 0.97591 0.54798 0.51527 0.0
O19 O 1.0027 0.52115 0.50618 0.0
O20 O 0.96796 0.54693 0.53823 0.0
O21 O 0.04262 0.55006 0.58424 0.0
O22 O 0.97246 0.46693 0.58736 0.0
C23 C 0.98897 0.46265 0.60851 0.0
O24 O 0.02227 0.4845 0.61373 0.0
O25 O 0.04127 0.46504 0.53754 0.0
Li26 Li 0.01158 0.04494 0.32952 0.0
Li27 Li 0.98982 0.97134 0.32925 0.0
Li28 Li 0.03735 1.00053 0.29663 0.0
Li29 Li 0.96297 0.01781 0.29616 0.0
C30 C 0.07375 1.00235 0.35149 0.0
N31 N 0.12664 0.02014 0.39013 0.0
C32 C 0.06843 0.98273 0.3742 0.0
C33 C 0.10628 0.03062 0.34833 0.0
C34 C 0.09543 0.99222 0.39354 0.0
C35 C 0.13258 0.03933 0.36812 0.0
C36 C 0.91949 0.01844 0.34685 0.0
C37 C 0.84827 0.99706 0.3524 0.0
N38 N 0.84919 0.01194 0.37586 0.0
C39 C 0.91948 0.03408 0.37089 0.0
C40 C 0.8834 1.00026 0.33742 0.0
C41 C 0.88375 0.03026 0.38531 0.0
C42 C 0.0282 0.12999 0.34053 0.0
N43 N 0.02352 0.09156 0.35063 0.0
C44 C 0.03455 0.11951 0.39099 0.0
C45 C 0.02637 0.08587 0.37537 0.0
C46 C 0.03939 0.15963 0.38113 0.0
C47 C 0.03615 0.16461 0.35549 0.0
H48 H 0.02545 0.13385 0.32083 0.0
H49 H 0.02182 0.05523 0.38307 0.0
C50 C 0.9887 0.88535 0.33984 0.0
N51 N 0.97811 0.92329 0.34912 0.0
C52 C 0.98138 0.84917 0.3534 0.0
C53 C 0.95318 0.89166 0.38615 0.0
C54 C 0.96095 0.92703 0.37191 0.0
C55 C 0.96335 0.85198 0.37693 0.0
H56 H 1.0031 0.8832 0.32189 0.0
H57 H 0.95384 0.95745 0.37926 0.0
C58 C 0.03446 0.07458 0.27543 0.0
N59 N 0.08274 0.10859 0.23856 0.0
C60 C 0.01929 0.07683 0.25138 0.0
C61 C 0.07394 0.09015 0.2808 0.0
C62 C 0.04423 0.09402 0.23297 0.0
C63 C 0.09795 0.10707 0.26189 0.0
C64 C 0.96485 0.93272 0.28175 0.0
C65 C 0.97609 0.91588 0.25893 0.0
C66 C 0.92868 0.91891 0.29335 0.0
C67 C 0.95045 0.88618 0.24787 0.0
C68 C 0.90389 0.88911 0.28174 0.0
N69 N 0.91515 0.87354 0.2594 0.0
C70 C 0.122 0.98298 0.28326 0.0
C71 C 0.07375 0.98576 0.25042 0.0
C72 C 0.15443 0.97449 0.26679 0.0
N73 N 0.08263 0.98852 0.27482 0.0
C74 C 0.10509 0.97729 0.23336 0.0
C75 C 0.14615 0.97143 0.24143 0.0
H76 H 0.12824 0.98498 0.30277 0.0
H77 H 0.04221 0.99044 0.24418 0.0
C78 C 0.8859 0.05572 0.28255 0.0
N79 N 0.9171 0.03012 0.27492 0.0
C80 C 0.85256 0.06466 0.26689 0.0
C81 C 0.88458 0.02154 0.23567 0.0
C82 C 0.91717 0.01344 0.2519 0.0
C83 C 0.85158 0.04744 0.24306 0.0
H84 H 0.88695 0.06928 0.30078 0.0
H85 H 0.94282 0.99411 0.246 0.0
O86 O 0.04738 0.99369 0.33242 0.0
O87 O 0.95421 0.02218 0.33243 0.0
O88 O 0.01086 0.05702 0.29359 0.0
O89 O 0.98956 0.96201 0.29278 0.0
H90 H 0.04363 0.96056 0.37694 0.0
H91 H 0.11104 0.04586 0.33085 0.0
H92 H 0.09154 0.97743 0.41125 0.0
H93 H 0.15771 0.06136 0.36598 0.0
H94 H 0.82021 0.98294 0.34534 0.0
H95 H 0.94684 0.04872 0.37843 0.0
H96 H 0.88221 0.9892 0.31864 0.0
H97 H 0.88348 0.04193 0.40401 0.0
H98 H 0.03608 0.11429 0.41066 0.0
H99 H 0.03991 0.19491 0.34707 0.0
H100 H 0.99056 0.81938 0.34572 0.0
H101 H 0.93918 0.89539 0.40416 0.0
H102 H 0.98874 0.06513 0.24691 0.0
H103 H 0.08597 0.08904 0.29935 0.0
H104 H 0.033 0.0957 0.21424 0.0
H105 H 0.12868 0.11898 0.26576 0.0
H106 H 1.00424 0.92572 0.24979 0.0
H107 H 0.92017 0.93056 0.31131 0.0
H108 H 0.95865 0.87311 0.23015 0.0
H109 H 0.87579 0.87821 0.29054 0.0
H110 H 0.18551 0.9698 0.27387 0.0
H111 H 0.09729 0.97595 0.21399 0.0
H112 H 0.82815 0.08527 0.27327 0.0
H113 H 0.88508 1.00724 0.2176 0.0
Li114 Li 0.96947 0.99844 0.83152 0.0
Li115 Li 0.0442 0.01469 0.82899 0.0
Li116 Li 0.99205 0.04715 0.79939 0.0
Li117 Li 0.01294 0.97389 0.79504 0.0
C118 C 0.97859 0.07407 0.85489 0.0
N119 N 0.94059 0.11493 0.89372 0.0
C120 C 0.9979 0.07581 0.87791 0.0
C121 C 0.94031 0.09382 0.85153 0.0
C122 C 0.9781 0.09641 0.89734 0.0
C123 C 0.9215 0.11413 0.87141 0.0
C124 C 0.04145 0.93156 0.84366 0.0
C125 C 0.10386 0.89047 0.84778 0.0
N126 N 0.0909 0.87759 0.87034 0.0
C127 C 0.02849 0.91744 0.86674 0.0
C128 C 0.07921 0.91756 0.83398 0.0
C129 C 0.05401 0.89035 0.87999 0.0
C130 C 0.88795 0.97358 0.84751 0.0
N131 N 0.9267 0.98503 0.85482 0.0
C132 C 0.90708 0.97882 0.89714 0.0
C133 C 0.93669 0.98741 0.87909 0.0
C134 C 0.86663 0.96732 0.89024 0.0
C135 C 0.85723 0.96471 0.865 0.0
H136 H 0.88086 0.97117 0.82812 0.0
H137 H 0.96785 0.99589 0.88447 0.0
C138 C 0.12494 0.04662 0.83867 0.0
N139 N 0.09321 0.02396 0.84827 0.0
C140 C 0.16115 0.05334 0.85231 0.0
C141 C 0.13094 0.01425 0.88575 0.0
C142 C 0.09538 0.00832 0.87147 0.0
C143 C 0.16462 0.03686 0.87619 0.0
H144 H 0.12215 0.05952 0.82038 0.0
H145 H 0.06937 0.9914 0.879 0.0
C146 C 0.92251 0.00968 0.78142 0.0
N147 N 0.85679 0.03548 0.75249 0.0
C148 C 0.91955 0.99645 0.75695 0.0
C149 C 0.89164 0.03543 0.79128 0.0
C150 C 0.8862 0.00999 0.74259 0.0
C151 C 0.85878 0.04831 0.77634 0.0
C152 C 0.07875 0.01854 0.77537 0.0
C153 C 0.07404 0.03559 0.75189 0.0
C154 C 0.11465 0.99592 0.78092 0.0
C155 C 0.10475 0.0287 0.73415 0.0
C156 C 0.14468 0.98974 0.7627 0.0
N157 N 0.13912 1.00604 0.73986 0.0
C158 C 0.97957 0.13391 0.79321 0.0
C159 C 0.97117 0.09444 0.75669 0.0
C160 C 0.97289 0.17093 0.78032 0.0
N161 N 0.97878 0.09665 0.78128 0.0
C162 C 0.96466 0.13072 0.74302 0.0
C163 C 0.96597 0.16981 0.75475 0.0
H164 H 0.98628 0.13501 0.81268 0.0
H165 H 0.97147 0.06458 0.74748 0.0
C166 C 0.02887 0.89047 0.77833 0.0
N167 N 0.02296 0.93064 0.77121 0.0
C168 C 0.03732 0.85948 0.76085 0.0
C169 C 0.03232 0.91149 0.72896 0.0
C170 C 0.02406 0.94139 0.74704 0.0
C171 C 0.03937 0.86984 0.73573 0.0
H172 H 0.02705 0.88239 0.79759 0.0
H173 H 0.01817 0.97325 0.74172 0.0
O174 O 0.99741 0.05372 0.8357 0.0
O175 O 0.01712 0.95864 0.83059 0.0
O176 O 0.95518 0.99707 0.79571 0.0
O177 O 0.04874 0.02465 0.79292 0.0
H178 H 0.02771 0.06116 0.88081 0.0
H179 H 0.92543 0.09383 0.83374 0.0
H180 H 0.99256 0.09768 0.91529 0.0
H181 H 0.89179 0.12939 0.86906 0.0
H182 H 0.13323 0.87956 0.84052 0.0
H183 H 0.99909 0.92729 0.87439 0.0
H184 H 0.08917 0.92714 0.8159 0.0
H185 H 0.04446 0.87942 0.89794 0.0
H186 H 0.91572 0.98175 0.91632 0.0
H187 H 0.82664 0.95544 0.85882 0.0
H188 H 0.18599 0.07156 0.84432 0.0
H189 H 0.13222 1.00064 0.90395 0.0
H190 H 0.94276 0.97603 0.74909 0.0
H191 H 0.89288 0.04514 0.81029 0.0
H192 H 0.88369 1.0002 0.72359 0.0
H193 H 0.83478 0.06839 0.78373 0.0
H194 H 0.04682 0.05363 0.7473 0.0
H195 H 0.11956 0.98366 0.79917 0.0
H196 H 0.10125 0.04138 0.71584 0.0
H197 H 0.17251 0.97213 0.76675 0.0
H198 H 0.97361 0.20015 0.79031 0.0
H199 H 0.96017 0.12814 0.72333 0.0
H200 H 0.04265 0.82786 0.76699 0.0
H201 H 0.03251 0.92088 0.70983 0.0
C202 C 0.35718 0.95845 0.1033 0.0
C203 C 0.40016 0.95905 0.10781 0.0
C204 C 0.32883 0.95479 0.12268 0.0
C205 C 0.34278 0.95124 0.14716 0.0
C206 C 0.3858 0.95032 0.15155 0.0
C207 C 0.41419 0.954 0.13213 0.0
C208 C 0.31367 0.95212 0.16858 0.0
C209 C 0.27276 0.94345 0.16688 0.0
C210 C 0.24242 0.94872 0.18744 0.0
C211 C 0.20354 0.9292 0.1855 0.0
C212 C 0.17275 0.93585 0.20324 0.0
C213 C 0.17992 0.96248 0.22339 0.0
H214 H 0.27888 0.99156 0.20977 0.0
C215 C 0.21905 0.98151 0.22562 0.0
C216 C 0.24991 0.97489 0.20783 0.0
H217 H 0.22541 1.00271 0.2407 0.0
H218 H 0.34522 0.96248 0.08482 0.0
H219 H 0.29614 0.95674 0.11832 0.0
H220 H 0.39754 0.94782 0.17018 0.0
H221 H 0.44707 0.95453 0.13631 0.0
H222 H 0.32675 0.96037 0.18633 0.0
H223 H 0.26047 0.93162 0.14964 0.0
H224 H 0.19672 0.90902 0.17 0.0
H225 H 0.1432 0.92019 0.2011 0.0
C226 C 0.99383 0.42715 0.64921 0.0
C227 C 0.975 0.43004 0.62595 0.0
C228 C 0.98505 0.39394 0.66489 0.0
C229 C 0.95672 0.36271 0.65786 0.0
C230 C 0.93701 0.3662 0.63484 0.0
C231 C 0.94589 0.39958 0.61907 0.0
C232 C 0.94978 0.32461 0.67307 0.0
C233 C 0.95939 0.32222 0.69723 0.0
C234 C 0.95885 0.283 0.71182 0.0
C235 C 0.98458 0.28047 0.73261 0.0
C236 C 0.9866 0.24402 0.74653 0.0
C237 C 0.96239 0.20913 0.74028 0.0
H238 H 0.9129 0.24947 0.69022 0.0
C239 C 0.93579 0.21195 0.71977 0.0
C240 C 0.93404 0.24843 0.70567 0.0
H241 H 0.91607 0.18604 0.71467 0.0
H242 H 0.01657 0.44992 0.6551 0.0
H243 H 1.00212 0.39228 0.68197 0.0
H244 H 0.9153 0.34253 0.6288 0.0
H245 H 0.93102 0.40073 0.60122 0.0
H246 H 0.93804 0.29725 0.66361 0.0
H247 H 0.97061 0.34972 0.70675 0.0
H248 H 1.00405 0.30655 0.73782 0.0
H249 H 0.008 0.24299 0.76187 0.0
C250 C 0.61402 0.07319 0.11993 0.0
C251 C 0.57395 0.06482 0.12897 0.0
C252 C 0.64711 0.08004 0.13614 0.0
C253 C 0.64085 0.07852 0.1618 0.0
C254 C 0.60031 0.07292 0.17072 0.0
C255 C 0.56728 0.06594 0.15454 0.0
C256 C 0.67563 0.08118 0.17986 0.0
C257 C 0.71513 0.07034 0.17445 0.0
C258 C 0.74933 0.06783 0.19289 0.0
C259 C 0.79053 0.0675 0.18439 0.0
C260 C 0.82363 0.06189 0.20069 0.0
C261 C 0.8164 0.05606 0.22598 0.0
H262 H 0.71085 0.06152 0.22565 0.0
C263 C 0.77521 0.05706 0.23461 0.0
C264 C 0.74204 0.06274 0.21829 0.0
H265 H 0.76844 0.052 0.25391 0.0
H266 H 0.6202 0.07298 0.10033 0.0
H267 H 0.6775 0.08595 0.12843 0.0
H268 H 0.59438 0.0722 0.19036 0.0
H269 H 0.53677 0.05995 0.16216 0.0
H270 H 0.6676 0.08988 0.19858 0.0
H271 H 0.72303 0.06156 0.15572 0.0
H272 H 0.79719 0.07119 0.16496 0.0
H273 H 0.85496 0.06195 0.19341 0.0
C274 C 0.05053 0.66234 0.5948 0.0
C275 C 0.0542 0.61933 0.59917 0.0
C276 C 0.0547 0.69107 0.61404 0.0
C277 C 0.06298 0.67749 0.63819 0.0
C278 C 0.06833 0.63462 0.64232 0.0
C279 C 0.06418 0.60586 0.62305 0.0
C280 C 0.06244 0.70644 0.65974 0.0
C281 C 0.067 0.74811 0.65798 0.0
C282 C 0.06187 0.77745 0.6791 0.0
C283 C 0.07935 0.81739 0.67744 0.0
C284 C 0.07279 0.84697 0.696 0.0
C285 C 0.04813 0.83752 0.71663 0.0
H286 H 0.02245 0.73782 0.70159 0.0
C287 C 0.03095 0.79737 0.71844 0.0
C288 C 0.03762 0.76771 0.69989 0.0
H289 H 0.01119 0.7892 0.73382 0.0
H290 H 0.04267 0.67384 0.57667 0.0
H291 H 0.04935 0.72359 0.60997 0.0
H292 H 0.07459 0.62315 0.66069 0.0
H293 H 0.06711 0.57297 0.62713 0.0
H294 H 0.05798 0.69257 0.67775 0.0
H295 H 0.07526 0.76172 0.64038 0.0
H296 H 0.09796 0.82591 0.66162 0.0
H297 H 0.08703 0.87734 0.69412 0.0
C298 C 0.42205 0.01164 0.98081 0.0
C299 C 0.42751 0.03345 1.00304 0.0
C300 C 0.38838 0.02023 0.96547 0.0
C301 C 0.35933 0.05128 0.97181 0.0
C302 C 0.36536 0.07384 0.99376 0.0
C303 C 0.39919 0.06518 1.00918 0.0
C304 C 0.32081 0.05832 0.95711 0.0
C305 C 0.31678 0.04657 0.93334 0.0
C306 C 0.27717 0.04799 0.91912 0.0
C307 C 0.27886 0.04205 0.8935 0.0
C308 C 0.24249 0.03936 0.87954 0.0
C309 C 0.20333 0.04238 0.89086 0.0
H310 H 0.23486 0.05549 0.95013 0.0
C311 C 0.20155 0.04914 0.91644 0.0
C312 C 0.23795 0.05177 0.93044 0.0
H313 H 0.17193 0.05207 0.92575 0.0
H314 H 0.44314 0.98684 0.97553 0.0
H315 H 0.38455 1.00107 0.94923 0.0
H316 H 0.34336 0.09769 0.99925 0.0
H317 H 0.40236 0.08241 0.02624 0.0
H318 H 0.29507 0.07345 0.96644 0.0
H319 H 0.34382 0.03492 0.92355 0.0
H320 H 0.3085 0.03861 0.88424 0.0
H321 H 0.24513 0.03357 0.85995 0.0
C322 C 0.06222 0.40597 0.50007 0.0
C323 C 0.06017 0.3958 0.52521 0.0
C324 C 0.06779 0.37479 0.48225 0.0
C325 C 0.07126 0.33266 0.48923 0.0
C326 C 0.07158 0.32297 0.51442 0.0
C327 C 0.06593 0.35406 0.53219 0.0
C328 C 0.07365 0.29779 0.47105 0.0
C329 C 0.05927 0.30035 0.44775 0.0
C330 C 0.05668 0.2642 0.43042 0.0
C331 C 0.03046 0.26739 0.40984 0.0
C332 C 0.02539 0.23382 0.39365 0.0
C333 C 0.04652 0.19609 0.3976 0.0
H334 H 0.10062 0.22322 0.44894 0.0
C335 C 0.07369 0.19316 0.41778 0.0
C336 C 0.07895 0.22683 0.43392 0.0
H337 H 0.09111 0.16482 0.42104 0.0
H338 H 0.05827 0.43787 0.49405 0.0
H339 H 0.06895 0.38391 0.46312 0.0
H340 H 0.07477 0.29096 0.52041 0.0
H341 H 0.06484 0.34509 0.55138 0.0
H342 H 0.0843 0.26801 0.47802 0.0
H343 H 0.0457 0.32942 0.44151 0.0
H344 H 0.01308 0.29575 0.4065 0.0
H345 H 1.00401 0.23709 0.37839 0.0
C346 C 0.66271 0.96473 0.03209 0.0
C347 C 0.61981 0.95956 0.02839 0.0
C348 C 0.69077 0.95924 1.01268 0.0
C349 C 0.67664 0.94804 0.98904 0.0
C350 C 0.6339 0.94132 0.9856 0.0
C351 C 0.60581 0.94682 1.00504 0.0
C352 C 0.7048 0.94679 0.96719 0.0
C353 C 0.74648 0.94311 0.96874 0.0
C354 C 0.77528 0.94664 0.94732 0.0
C355 C 0.81603 0.93158 0.94978 0.0
C356 C 0.84525 0.93732 0.93106 0.0
C357 C 0.83459 0.95863 0.90937 0.0
H358 H 0.73366 0.98049 0.92292 0.0
C359 C 0.79358 0.97304 0.90663 0.0
C360 C 0.76428 0.96729 0.9254 0.0
H361 H 0.78447 0.99015 0.89035 0.0
H362 H 0.6746 0.97474 0.04979 0.0
H363 H 0.72315 0.96579 0.01618 0.0
H364 H 0.62201 0.93286 0.96762 0.0
H365 H 0.57297 0.94269 1.00148 0.0
H366 H 0.69033 0.94912 0.94921 0.0
H367 H 0.76061 0.93699 0.98649 0.0
H368 H 0.82552 0.91571 0.96644 0.0
H369 H 0.87636 0.92525 0.93367 0.0
C370 C 0.97183 0.58435 0.47468 0.0
C371 C 0.96161 0.58327 0.49983 0.0
C372 C 0.96447 0.62007 0.46068 0.0
C373 C 0.94631 0.65568 0.47145 0.0
C374 C 0.93457 0.65396 0.49637 0.0
C375 C 0.94195 0.61813 0.51039 0.0
C376 C 0.94278 0.69609 0.45805 0.0
C377 C 0.94451 0.69955 0.4333 0.0
C378 C 0.94643 0.74 0.41989 0.0
C379 C 0.9375 0.74042 0.39458 0.0
C380 C 0.94218 0.77683 0.38078 0.0
C381 C 0.95621 0.81381 0.39191 0.0
H382 H 0.96845 0.77814 0.45038 0.0
C383 C 0.96461 0.81363 0.41731 0.0
C384 C 0.95995 0.77719 0.43114 0.0
H385 H 0.97617 0.84135 0.42641 0.0
H386 H 0.98715 0.55813 0.46594 0.0
H387 H 0.97502 0.62002 0.44179 0.0
H388 H 0.92072 0.68088 0.50524 0.0
H389 H 0.93387 0.61847 0.52975 0.0
H390 H 0.93897 0.72394 0.46919 0.0
H391 H 0.94451 0.67155 0.42207 0.0
H392 H 0.92727 0.71229 0.38535 0.0
H393 H 0.93492 0.77593 0.36132 0.0
loop_
_geom_bond_atom_site_label_1
_geom_bond_atom_site_label_2
_geom_bond_distance
_geom_bond_site_symmetry_2
_ccdc_geom_bond_type
Mg0 O7 2.141 . S
Mg0 O8 2.048 . S
Mg0 O9 2.048 . S
Mg0 O12 2.141 . S
C1 O2 1.313 . S
C1 O8 1.195 1_565 S
O2 C1 1.313 . S
C3 O4 1.245 . S
C3 O12 1.289 1_565 S
O4 C3 1.245 . S
C5 O6 1.245 . S
C5 O7 1.289 1_565 S
O6 C5 1.245 . S
O7 Mg0 2.141 . S
O7 C5 1.289 1_545 S
O8 Mg0 2.048 . S
O8 C1 1.195 1_545 S
O9 Mg0 2.048 . S
O9 C10 1.195 1_545 S
C10 O9 1.195 1_565 S
C10 O11 1.313 . S
O11 C10 1.313 . S
O12 Mg0 2.141 . S
O12 C3 1.289 1_545 S
Mg13 O20 2.141 . S
Mg13 O21 2.048 . S
Mg13 O22 2.048 . S
Mg13 O25 2.141 . S
C14 O15 1.313 . S
C14 O21 1.195 1_455 S
O15 C14 1.313 . S
C16 O17 1.245 . S
C16 O25 1.289 1_455 S
O17 C16 1.245 . S
C18 O19 1.245 . S
C18 O20 1.289 1_455 S
O19 C18 1.245 . S
O20 Mg13 2.141 . S
O20 C18 1.289 1_655 S
O21 Mg13 2.048 . S
O21 C14 1.195 1_655 S
O22 Mg13 2.048 . S
O22 C23 1.195 1_655 S
C23 O22 1.195 1_455 S
C23 O24 1.313 . S
O24 C23 1.313 . S
O25 Mg13 2.141 . S
O25 C16 1.289 1_655 S
Li26 N43 1.990 . S
Li26 O86 1.956 1_545 S
Li26 O87 1.970 1_455 S
Li26 O88 1.961 1_455 S
Li27 N51 1.990 . S
Li27 O86 1.970 1_655 S
Li27 O87 1.956 1_565 S
Li27 O89 1.961 1_655 S
Li28 N73 1.990 . S
Li28 O86 1.961 1_545 S
Li28 O88 1.956 1_455 S
Li28 O89 1.970 1_545 S
Li29 N79 1.990 . S
Li29 O87 1.961 1_565 S
Li29 O88 1.970 1_565 S
Li29 O89 1.956 1_655 S
C30 C32 1.348 1_545 S
C30 C33 1.356 . S
C30 O86 1.325 1_545 S
N31 C34 1.314 1_545 S
N31 C35 1.279 . S
C32 C30 1.348 1_565 S
C32 C34 1.353 . S
C32 H90 0.929 . S
C33 C30 1.356 . S
C33 C35 1.358 . S
C33 H91 0.930 . S
C34 N31 1.314 1_565 S
C34 C32 1.353 . S
C34 H92 0.930 . S
C35 N31 1.279 . S
C35 C33 1.358 . S
C35 H93 0.930 . S
C36 C39 1.348 . S
C36 C40 1.356 1_545 S
C36 O87 1.325 . S
C37 N38 1.279 . S
C37 C40 1.358 . S
C37 H94 0.930 . S
N38 C37 1.279 . S
N38 C41 1.314 1_565 S
C39 C36 1.348 . S
C39 C41 1.353 . S
C39 H95 0.929 . S
C40 C36 1.356 1_565 S
C40 C37 1.358 . S
C40 H96 0.930 . S
C41 N38 1.314 1_545 S
C41 C39 1.353 . S
C41 H97 0.930 . S
C42 N43 1.314 1_655 S
C42 C47 1.353 . S
C42 H48 0.930 . S
N43 Li26 1.990 . S
N43 C42 1.314 1_455 S
N43 C45 1.279 . S
C44 C45 1.358 . S
C44 C46 1.356 . S
C44 H98 0.930 . S
C45 N43 1.279 . S
C45 C44 1.358 . S
C45 H49 0.930 . S
C46 C44 1.356 . S
C46 C47 1.348 1_455 S
C47 C42 1.353 . S
C47 C46 1.348 1_655 S
C47 H99 0.929 . S
H48 C42 0.930 . S
H49 C45 0.930 . S
C50 N51 1.314 1_455 S
C50 C52 1.353 . S
C50 H56 0.930 . S
N51 Li27 1.990 . S
N51 C50 1.314 1_655 S
N51 C54 1.279 . S
C52 C50 1.353 . S
C52 C55 1.348 . S
C52 H100 0.929 . S
C53 C54 1.358 . S
C53 C55 1.356 1_655 S
C53 H101 0.930 . S
C54 N51 1.279 . S
C54 C53 1.358 . S
C54 H57 0.930 . S
C55 C52 1.348 . S
C55 C53 1.356 1_455 S
H56 C50 0.930 . S
H57 C54 0.930 . S
C58 C60 1.348 1_455 S
C58 C61 1.356 . S
C58 O88 1.325 1_455 S
N59 C62 1.314 1_455 S
N59 C63 1.279 . S
C60 C58 1.348 1_655 S
C60 C62 1.353 . S
C60 H102 0.929 . S
C61 C58 1.356 . S
C61 C63 1.358 . S
C61 H103 0.930 . S
C62 N59 1.314 1_655 S
C62 C60 1.353 . S
C62 H104 0.930 . S
C63 N59 1.279 . S
C63 C61 1.358 . S
C63 H105 0.930 . S
C64 C65 1.348 . S
C64 C66 1.356 1_455 S
C64 O89 1.325 . S
C65 C64 1.348 . S
C65 C67 1.353 . S
C65 H106 0.929 . S
C66 C64 1.356 1_655 S
C66 C68 1.358 . S
C66 H107 0.930 . S
C67 C65 1.353 . S
C67 N69 1.314 1_455 S
C67 H108 0.930 . S
C68 C66 1.358 . S
C68 N69 1.279 . S
C68 H109 0.930 . S
N69 C67 1.314 1_655 S
N69 C68 1.279 . S
C70 C72 1.353 . S
C70 N73 1.314 1_565 S
C70 H76 0.930 . S
C71 N73 1.279 . S
C71 C74 1.358 . S
C71 H77 0.930 . S
C72 C70 1.353 . S
C72 C75 1.348 1_565 S
C72 H110 0.929 . S
N73 Li28 1.990 . S
N73 C70 1.314 1_545 S
N73 C71 1.279 . S
C74 C71 1.358 . S
C74 C75 1.356 . S
C74 H111 0.930 . S
C75 C72 1.348 1_545 S
C75 C74 1.356 . S
H76 C70 0.930 . S
H77 C71 0.930 . S
C78 N79 1.314 1_545 S
C78 C80 1.353 . S
C78 H84 0.930 . S
N79 Li29 1.990 . S
N79 C78 1.314 1_565 S
N79 C82 1.279 . S
C80 C78 1.353 . S
C80 C83 1.348 . S
C80 H112 0.929 . S
C81 C82 1.358 . S
C81 C83 1.356 1_565 S
C81 H113 0.930 . S
C82 N79 1.279 . S
C82 C81 1.358 . S
C82 H85 0.930 . S
C83 C80 1.348 . S
C83 C81 1.356 1_545 S
H84 C78 0.930 . S
H85 C82 0.930 . S
O86 Li26 1.956 1_565 S
O86 Li27 1.970 1_455 S
O86 Li28 1.961 1_565 S
O86 C30 1.325 1_565 S
O87 Li26 1.970 1_655 S
O87 Li27 1.956 1_545 S
O87 Li29 1.961 1_545 S
O87 C36 1.325 . S
O88 Li26 1.961 1_655 S
O88 Li28 1.956 1_655 S
O88 Li29 1.970 1_545 S
O88 C58 1.325 1_655 S
O89 Li27 1.961 1_455 S
O89 Li28 1.970 1_565 S
O89 Li29 1.956 1_455 S
O89 C64 1.325 . S
H90 C32 0.929 . S
H91 C33 0.930 . S
H92 C34 0.930 . S
H93 C35 0.930 . S
H94 C37 0.930 . S
H95 C39 0.929 . S
H96 C40 0.930 . S
H97 C41 0.930 . S
H98 C44 0.930 . S
H99 C47 0.929 . S
H100 C52 0.929 . S
H101 C53 0.930 . S
H102 C60 0.929 . S
H103 C61 0.930 . S
H104 C62 0.930 . S
H105 C63 0.930 . S
H106 C65 0.929 . S
H107 C66 0.930 . S
H108 C67 0.930 . S
H109 C68 0.930 . S
H110 C72 0.929 . S
H111 C74 0.930 . S
H112 C80 0.929 . S
H113 C81 0.930 . S
Li114 N131 1.990 . S
Li114 O174 1.956 1_655 S
Li114 O175 1.970 1_545 S
Li114 O176 1.961 1_545 S
Li115 N139 1.990 . S
Li115 O174 1.970 1_565 S
Li115 O175 1.956 1_455 S
Li115 O177 1.961 1_565 S
Li116 N161 1.990 . S
Li116 O174 1.961 1_655 S
Li116 O176 1.956 1_545 S
Li116 O177 1.970 1_655 S
Li117 N167 1.990 . S
Li117 O175 1.961 1_455 S
Li117 O176 1.970 1_455 S
Li117 O177 1.956 1_565 S
C118 C120 1.348 . S
C118 C121 1.355 1_455 S
C118 O174 1.325 . S
N119 C122 1.314 1_655 S
N119 C123 1.279 . S
C120 C118 1.348 . S
C120 C122 1.353 . S
C120 H178 0.929 . S
C121 C118 1.355 1_655 S
C121 C123 1.358 . S
C121 H179 0.930 . S
C122 N119 1.314 1_455 S
C122 C120 1.353 . S
C122 H180 0.930 . S
C123 N119 1.279 . S
C123 C121 1.358 . S
C123 H181 0.930 . S
C124 C127 1.348 1_455 S
C124 C128 1.355 . S
C124 O175 1.325 1_455 S
C125 N126 1.279 . S
C125 C128 1.358 . S
C125 H182 0.930 . S
N126 C125 1.279 . S
N126 C129 1.314 1_455 S
C127 C124 1.348 1_655 S
C127 C129 1.353 . S
C127 H183 0.929 . S
C128 C124 1.355 . S
C128 C125 1.358 . S
C128 H184 0.930 . S
C129 N126 1.314 1_655 S
C129 C127 1.353 . S
C129 H185 0.930 . S
C130 N131 1.314 1_565 S
C130 C135 1.353 . S
C130 H136 0.930 . S
N131 Li114 1.990 . S
N131 C130 1.314 1_545 S
N131 C133 1.279 . S
C132 C133 1.358 . S
C132 C134 1.355 . S
C132 H186 0.930 . S
C133 N131 1.279 . S
C133 C132 1.358 . S
C133 H137 0.930 . S
C134 C132 1.355 . S
C134 C135 1.348 1_545 S
C135 C130 1.353 . S
C135 C134 1.348 1_565 S
C135 H187 0.929 . S
H136 C130 0.930 . S
H137 C133 0.930 . S
C138 N139 1.314 1_545 S
C138 C140 1.353 . S
C138 H144 0.930 . S
N139 Li115 1.990 . S
N139 C138 1.314 1_565 S
N139 C142 1.279 . S
C140 C138 1.353 . S
C140 C143 1.348 . S
C140 H188 0.929 . S
C141 C142 1.358 . S
C141 C143 1.355 1_565 S
C141 H189 0.930 . S
C142 N139 1.279 . S
C142 C141 1.358 . S
C142 H145 0.930 . S
C143 C140 1.348 . S
C143 C141 1.355 1_545 S
H144 C138 0.930 . S
H145 C142 0.930 . S
C146 C148 1.348 1_545 S
C146 C149 1.355 . S
C146 O176 1.325 1_545 S
N147 C150 1.314 1_545 S
N147 C151 1.279 . S
C148 C146 1.348 1_565 S
C148 C150 1.353 . S
C148 H190 0.929 . S
C149 C146 1.355 . S
C149 C151 1.358 . S
C149 H191 0.930 . S
C150 N147 1.314 1_565 S
C150 C148 1.353 . S
C150 H192 0.930 . S
C151 N147 1.279 . S
C151 C149 1.358 . S
C151 H193 0.930 . S
C152 C153 1.348 . S
C152 C154 1.355 1_545 S
C152 O177 1.325 . S
C153 C152 1.348 . S
C153 C155 1.353 . S
C153 H194 0.929 . S
C154 C152 1.355 1_565 S
C154 C156 1.358 . S
C154 H195 0.930 . S
C155 C153 1.353 . S
C155 N157 1.314 1_545 S
C155 H196 0.930 . S
C156 C154 1.358 . S
C156 N157 1.279 . S
C156 H197 0.930 . S
N157 C155 1.314 1_565 S
N157 C156 1.279 . S
C158 C160 1.353 . S
C158 N161 1.314 1_455 S
C158 H164 0.930 . S
C159 N161 1.279 . S
C159 C162 1.358 . S
C159 H165 0.930 . S
C160 C158 1.353 . S
C160 C163 1.348 . S
C160 H198 0.929 . S
N161 Li116 1.990 . S
N161 C158 1.314 1_655 S
N161 C159 1.279 . S
C162 C159 1.358 . S
C162 C163 1.355 1_655 S
C162 H199 0.930 . S
C163 C160 1.348 . S
C163 C162 1.355 1_455 S
H164 C158 0.930 . S
H165 C159 0.930 . S
C166 N167 1.314 1_655 S
C166 C168 1.353 . S
C166 H172 0.930 . S
N167 Li117 1.990 . S
N167 C166 1.314 1_455 S
N167 C170 1.279 . S
C168 C166 1.353 . S
C168 C171 1.348 1_655 S
C168 H200 0.929 . S
C169 C170 1.358 . S
C169 C171 1.355 . S
C169 H201 0.930 . S
C170 N167 1.279 . S
C170 C169 1.358 . S
C170 H173 0.930 . S
C171 C168 1.348 1_455 S
C171 C169 1.355 . S
H172 C166 0.930 . S
H173 C170 0.930 . S
O174 Li114 1.956 1_455 S
O174 Li115 1.970 1_545 S
O174 Li116 1.961 1_455 S
O174 C118 1.325 . S
O175 Li114 1.970 1_565 S
O175 Li115 1.956 1_655 S
O175 Li117 1.961 1_655 S
O175 C124 1.325 1_655 S
O176 Li114 1.961 1_565 S
O176 Li116 1.956 1_565 S
O176 Li117 1.970 1_655 S
O176 C146 1.325 1_565 S
O177 Li115 1.961 1_545 S
O177 Li116 1.970 1_455 S
O177 Li117 1.956 1_545 S
O177 C152 1.325 . S
H178 C120 0.929 . S
H179 C121 0.930 . S
H180 C122 0.930 . S
H181 C123 0.930 . S
H182 C125 0.930 . S
H183 C127 0.929 . S
H184 C128 0.930 . S
H185 C129 0.930 . S
H186 C132 0.930 . S
H187 C135 0.929 . S
H188 C140 0.929 . S
H189 C141 0.930 . S
H190 C148 0.929 . S
H191 C149 0.930 . S
H192 C150 0.930 . S
H193 C151 0.930 . S
H194 C153 0.929 . S
H195 C154 0.930 . S
H196 C155 0.930 . S
H197 C156 0.930 . S
H198 C160 0.929 . S
H199 C162 0.930 . S
H200 C168 0.929 . S
H201 C169 0.930 . S
C202 C203 1.393 . S
C202 C204 1.383 . S
C202 H218 0.951 . S
C203 C202 1.393 . S
C203 C207 1.376 1_565 S
C204 C202 1.383 . S
C204 C205 1.402 . S
C204 H219 0.951 . S
C205 C204 1.402 . S
C205 C206 1.375 1_565 S
C205 C208 1.481 . S
C206 C205 1.375 1_545 S
C206 C207 1.367 . S
C206 H220 0.951 . S
C207 C203 1.376 1_545 S
C207 C206 1.367 . S
C207 H221 0.950 . S
C208 C205 1.481 . S
C208 C209 1.297 . S
C208 H222 0.950 1_565 S
C209 C208 1.297 . S
C209 C210 1.479 . S
C209 H223 0.950 . S
C210 C209 1.479 . S
C210 C211 1.375 . S
C210 C216 1.404 . S
C211 C210 1.375 . S
C211 C212 1.369 . S
C211 H224 0.950 . S
C212 C211 1.369 . S
C212 C213 1.392 . S
C212 H225 0.951 . S
C213 C212 1.392 . S
C213 C215 1.384 1_565 S
H214 C216 0.949 1_545 S
C215 C213 1.384 1_545 S
C215 C216 1.385 1_545 S
C215 H217 0.950 . S
C216 C210 1.404 . S
C216 H214 0.949 1_565 S
C216 C215 1.385 1_565 S
H217 C215 0.950 . S
H218 C202 0.951 . S
H219 C204 0.951 . S
H220 C206 0.951 . S
H221 C207 0.950 . S
H222 C208 0.950 1_545 S
H223 C209 0.950 . S
H224 C211 0.950 . S
H225 C212 0.951 . S
C226 C227 1.386 1_455 S
C226 C228 1.383 . S
C226 H242 0.951 . S
C227 C226 1.386 1_655 S
C227 C231 1.383 . S
C228 C226 1.383 . S
C228 C229 1.402 1_455 S
C228 H243 0.951 . S
C229 C228 1.402 1_655 S
C229 C230 1.375 . S
C229 C232 1.481 . S
C230 C229 1.375 . S
C230 C231 1.367 . S
C230 H244 0.951 . S
C231 C227 1.383 . S
C231 C230 1.367 . S
C231 H245 0.950 . S
C232 C229 1.481 . S
C232 C233 1.297 1_655 S
C232 H246 0.950 . S
C233 C232 1.297 1_455 S
C233 C234 1.479 . S
C233 H247 0.950 . S
C234 C233 1.479 . S
C234 C235 1.375 . S
C234 C240 1.404 1_455 S
C235 C234 1.375 . S
C235 C236 1.369 . S
C235 H248 0.950 . S
C236 C235 1.369 . S
C236 C237 1.392 . S
C236 H249 0.951 . S
C237 C236 1.392 . S
C237 C239 1.384 1_455 S
H238 C240 0.949 . S
C239 C237 1.384 1_655 S
C239 C240 1.385 . S
C239 H241 0.950 . S
C240 C234 1.404 1_655 S
C240 H238 0.949 . S
C240 C239 1.385 . S
H241 C239 0.950 . S
H242 C226 0.951 . S
H243 C228 0.951 . S
H244 C230 0.951 . S
H245 C231 0.950 . S
H246 C232 0.950 . S
H247 C233 0.950 . S
H248 C235 0.950 . S
H249 C236 0.951 . S
C250 C251 1.382 1_545 S
C250 C252 1.383 . S
C250 H266 0.951 . S
C251 C250 1.382 1_565 S
C251 C255 1.387 . S
C252 C250 1.383 . S
C252 C253 1.402 1_545 S
C252 H267 0.951 . S
C253 C252 1.402 1_565 S
C253 C254 1.375 . S
C253 C256 1.481 . S
C254 C253 1.375 . S
C254 C255 1.367 . S
C254 H268 0.951 . S
C255 C251 1.387 . S
C255 C254 1.367 . S
C255 H269 0.950 . S
C256 C253 1.481 . S
C256 C257 1.297 1_565 S
C256 H270 0.950 . S
C257 C256 1.297 1_545 S
C257 C258 1.479 . S
C257 H271 0.950 . S
C258 C257 1.479 . S
C258 C259 1.375 . S
C258 C264 1.404 1_545 S
C259 C258 1.375 . S
C259 C260 1.369 . S
C259 H272 0.950 . S
C260 C259 1.369 . S
C260 C261 1.392 . S
C260 H273 0.951 . S
C261 C260 1.392 . S
C261 C263 1.384 1_545 S
H262 C264 0.949 . S
C263 C261 1.384 1_565 S
C263 C264 1.385 . S
C263 H265 0.950 . S
C264 C258 1.404 1_565 S
C264 H262 0.949 . S
C264 C263 1.385 . S
H265 C263 0.950 . S
H266 C250 0.951 . S
H267 C252 0.951 . S
H268 C254 0.951 . S
H269 C255 0.950 . S
H270 C256 0.950 . S
H271 C257 0.950 . S
H272 C259 0.950 . S
H273 C260 0.951 . S
C274 C275 1.386 1_455 S
C274 C276 1.383 . S
C274 H290 0.951 . S
C275 C274 1.386 1_655 S
C275 C279 1.383 . S
C276 C274 1.383 . S
C276 C277 1.402 1_455 S
C276 H291 0.951 . S
C277 C276 1.402 1_655 S
C277 C278 1.375 . S
C277 C280 1.481 . S
C278 C277 1.375 . S
C278 C279 1.367 . S
C278 H292 0.951 . S
C279 C275 1.383 . S
C279 C278 1.367 . S
C279 H293 0.950 . S
C280 C277 1.481 . S
C280 C281 1.297 1_655 S
C280 H294 0.950 . S
C281 C280 1.297 1_455 S
C281 C282 1.479 1_455 S
C281 H295 0.950 . S
C282 C281 1.479 1_655 S
C282 C283 1.375 1_655 S
C282 C288 1.404 . S
C283 C282 1.375 1_455 S
C283 C284 1.369 . S
C283 H296 0.950 . S
C284 C283 1.369 . S
C284 C285 1.392 1_455 S
C284 H297 0.951 . S
C285 C284 1.392 1_655 S
C285 C287 1.384 . S
H286 C288 0.949 . S
C287 C285 1.384 . S
C287 C288 1.385 . S
C287 H289 0.950 . S
C288 C282 1.404 . S
C288 H286 0.949 . S
C288 C287 1.385 . S
H289 C287 0.950 . S
H290 C274 0.951 . S
H291 C276 0.951 . S
H292 C278 0.951 . S
H293 C279 0.950 . S
H294 C280 0.950 . S
H295 C281 0.950 . S
H296 C283 0.950 . S
H297 C284 0.951 . S
C298 C299 1.386 . S
C298 C300 1.383 . S
C298 H314 0.951 . S
C299 C298 1.386 . S
C299 C303 1.383 1_566 S
C300 C298 1.383 . S
C300 C301 1.411 . S
C300 H315 0.951 . S
C301 C300 1.411 . S
C301 C302 1.365 1_565 S
C301 C304 1.480 1_565 S
C302 C301 1.365 1_545 S
C302 C303 1.367 1_556 S
C302 H316 0.951 . S
C303 C299 1.383 1_544 S
C303 C302 1.367 1_554 S
C303 H317 0.950 . S
C304 C301 1.480 1_545 S
C304 C305 1.290 1_545 S
C304 H318 0.959 . S
C305 C304 1.290 1_565 S
C305 C306 1.479 . S
C305 H319 0.950 . S
C306 C305 1.479 . S
C306 C307 1.375 . S
C306 C312 1.404 1_565 S
C307 C306 1.375 . S
C307 C308 1.369 . S
C307 H320 0.950 . S
C308 C307 1.369 . S
C308 C309 1.392 . S
C308 H321 0.951 . S
C309 C308 1.392 . S
C309 C311 1.384 1_565 S
H310 C312 0.949 . S
C311 C309 1.384 1_545 S
C311 C312 1.385 . S
C311 H313 0.950 . S
C312 C306 1.404 1_545 S
C312 H310 0.949 . S
C312 C311 1.385 . S
H313 C311 0.950 . S
H314 C298 0.951 . S
H315 C300 0.951 . S
H316 C302 0.951 . S
H317 C303 0.950 . S
H318 C304 0.959 . S
H319 C305 0.950 . S
H320 C307 0.950 . S
H321 C308 0.951 . S
C322 C323 1.386 1_655 S
C322 C324 1.383 . S
C322 H338 0.951 . S
C323 C322 1.386 1_455 S
C323 C327 1.383 . S
C324 C322 1.383 . S
C324 C325 1.402 1_655 S
C324 H339 0.951 . S
C325 C324 1.402 1_455 S
C325 C326 1.375 . S
C325 C328 1.481 . S
C326 C325 1.375 . S
C326 C327 1.367 . S
C326 H340 0.951 . S
C327 C323 1.383 . S
C327 C326 1.367 . S
C327 H341 0.950 . S
C328 C325 1.481 . S
C328 C329 1.297 1_455 S
C328 H342 0.950 . S
C329 C328 1.297 1_655 S
C329 C330 1.479 . S
C329 H343 0.950 . S
C330 C329 1.479 . S
C330 C331 1.375 . S
C330 C336 1.404 1_655 S
C331 C330 1.375 . S
C331 C332 1.369 . S
C331 H344 0.950 . S
C332 C331 1.369 . S
C332 C333 1.392 . S
C332 H345 0.951 . S
C333 C332 1.392 . S
C333 C335 1.384 1_655 S
H334 C336 0.949 . S
C335 C333 1.384 1_455 S
C335 C336 1.385 . S
C335 H337 0.950 . S
C336 C330 1.404 1_455 S
C336 H334 0.949 . S
C336 C335 1.385 . S
H337 C335 0.950 . S
H338 C322 0.951 . S
H339 C324 0.951 . S
H340 C326 0.951 . S
H341 C327 0.950 . S
H342 C328 0.950 . S
H343 C329 0.950 . S
H344 C331 0.950 . S
H345 C332 0.951 . S
C346 C347 1.386 . S
C346 C348 1.383 . S
C346 H362 0.951 1_556 S
C347 C346 1.386 . S
C347 C351 1.383 . S
C348 C346 1.383 . S
C348 C349 1.402 . S
C348 H363 0.951 . S
C349 C348 1.402 . S
C349 C350 1.375 . S
C349 C352 1.481 . S
C350 C349 1.375 . S
C350 C351 1.367 . S
C350 H364 0.951 . S
C351 C347 1.383 . S
C351 C350 1.367 . S
C351 H365 0.950 1_565 S
C352 C349 1.481 . S
C352 C353 1.297 . S
C352 H366 0.950 . S
C353 C352 1.297 . S
C353 C354 1.479 . S
C353 H367 0.950 . S
C354 C353 1.479 . S
C354 C355 1.375 . S
C354 C360 1.404 . S
C355 C354 1.375 . S
C355 C356 1.369 . S
C355 H368 0.950 . S
C356 C355 1.369 . S
C356 C357 1.392 . S
C356 H369 0.951 . S
C357 C356 1.392 . S
C357 C359 1.384 . S
H358 C360 0.949 . S
C359 C357 1.384 . S
C359 C360 1.385 . S
C359 H361 0.950 . S
C360 C354 1.404 . S
C360 H358 0.949 . S
C360 C359 1.385 . S
H361 C359 0.950 . S
H362 C346 0.951 1_554 S
H363 C348 0.951 . S
H364 C350 0.951 . S
H365 C351 0.950 1_545 S
H366 C352 0.950 . S
H367 C353 0.950 . S
H368 C355 0.950 . S
H369 C356 0.951 . S
C370 C371 1.386 1_455 S
C370 C372 1.383 . S
C370 H386 0.951 . S
C371 C370 1.386 1_655 S
C371 C375 1.383 . S
C372 C370 1.383 . S
C372 C373 1.402 1_455 S
C372 H387 0.951 . S
C373 C372 1.402 1_655 S
C373 C374 1.375 . S
C373 C376 1.481 . S
C374 C373 1.375 . S
C374 C375 1.367 . S
C374 H388 0.951 . S
C375 C371 1.383 . S
C375 C374 1.367 . S
C375 H389 0.950 . S
C376 C373 1.481 . S
C376 C377 1.297 . S
C376 H390 0.950 . S
C377 C376 1.297 . S
C377 C378 1.479 . S
C377 H391 0.950 1_655 S
C378 C377 1.479 . S
C378 C379 1.375 1_655 S
C378 C384 1.404 . S
C379 C378 1.375 1_455 S
C379 C380 1.369 . S
C379 H392 0.950 . S
C380 C379 1.369 . S
C380 C381 1.392 1_455 S
C380 H393 0.951 . S
C381 C380 1.392 1_655 S
C381 C383 1.384 . S
H382 C384 0.949 . S
C383 C381 1.384 . S
C383 C384 1.385 . S
C383 H385 0.950 . S
C384 C378 1.404 . S
C384 H382 0.949 . S
C384 C383 1.385 . S
H385 C383 0.950 . S
H386 C370 0.951 . S
H387 C372 0.951 . S
H388 C374 0.951 . S
H389 C375 0.950 . S
H390 C376 0.950 . S
H391 C377 0.950 1_455 S
H392 C379 0.950 . S
H393 C380 0.951 . S
C213 C75 1.390 1_565 S
C203 C5 1.377 . S
C237 C163 1.471 . S
C227 C23 1.464 1_655 S
C261 C83 1.393 . S
C251 C3 1.381 . S
C285 C171 1.449 1_655 S
C275 C14 1.476 1_655 S
C309 C143 1.450 1_565 S
C299 C1 1.462 1_556 S
C333 C46 1.394 1_655 S
C323 C16 1.368 . S
C357 C134 1.463 1_565 S
C347 C10 1.459 1_556 S
C371 C18 1.395 1_655 S
C381 C55 1.389 1_655 S
