# Generated by pormake.
# Topology ibd, (4,6)-cn, num edge types: 1
# Building blocks:
#     Node 0, Type 0, BuildingBlock: QUQFOY_clean_sbu_3, # of connection points: 4
#     Node 1, Type 0, BuildingBlock: QUQFOY_clean_sbu_3, # of connection points: 4
#     Node 2, Type 0, BuildingBlock: QUQFOY_clean_sbu_3, # of connection points: 4
#     Node 3, Type 0, BuildingBlock: QUQFOY_clean_sbu_3, # of connection points: 4
#     Node 4, Type 0, BuildingBlock: QUQFOY_clean_sbu_3, # of connection points: 4
#     Node 5, Type 0, BuildingBlock: QUQFOY_clean_sbu_3, # of connection points: 4
#     Node 6, Type 0, BuildingBlock: QUQFOY_clean_sbu_3, # of connection points: 4
#     Node 7, Type 0, BuildingBlock: QUQFOY_clean_sbu_3, # of connection points: 4
#     Node 8, Type 0, BuildingBlock: QUQFOY_clean_sbu_3, # of connection points: 4
#     Node 9, Type 0, BuildingBlock: QUQFOY_clean_sbu_3, # of connection points: 4
#     Node 10, Type 0, BuildingBlock: QUQFOY_clean_sbu_3, # of connection points: 4
#     Node 11, Type 0, BuildingBlock: QUQFOY_clean_sbu_3, # of connection points: 4
#     Node 12, Type 0, BuildingBlock: QUQFOY_clean_sbu_3, # of connection points: 4
#     Node 13, Type 0, BuildingBlock: QUQFOY_clean_sbu_3, # of connection points: 4
#     Node 14, Type 0, BuildingBlock: QUQFOY_clean_sbu_3, # of connection points: 4
#     Node 15, Type 0, BuildingBlock: QUQFOY_clean_sbu_3, # of connection points: 4
#     Node 16, Type 0, BuildingBlock: QUQFOY_clean_sbu_3, # of connection points: 4
#     Node 17, Type 0, BuildingBlock: QUQFOY_clean_sbu_3, # of connection points: 4
#     Node 18, Type 0, BuildingBlock: QUQFOY_clean_sbu_3, # of connection points: 4
#     Node 19, Type 0, BuildingBlock: QUQFOY_clean_sbu_3, # of connection points: 4
#     Node 20, Type 0, BuildingBlock: QUQFOY_clean_sbu_3, # of connection points: 4
#     Node 21, Type 0, BuildingBlock: QUQFOY_clean_sbu_3, # of connection points: 4
#     Node 22, Type 0, BuildingBlock: QUQFOY_clean_sbu_3, # of connection points: 4
#     Node 23, Type 0, BuildingBlock: QUQFOY_clean_sbu_3, # of connection points: 4
#     Node 24, Type 1, BuildingBlock: OJICUG_clean_sbu_0, # of connection points: 6
#     Node 25, Type 1, BuildingBlock: OJICUG_clean_sbu_0, # of connection points: 6
#     Node 26, Type 1, BuildingBlock: OJICUG_clean_sbu_0, # of connection points: 6
#     Node 27, Type 1, BuildingBlock: OJICUG_clean_sbu_0, # of connection points: 6
#     Node 28, Type 1, BuildingBlock: OJICUG_clean_sbu_0, # of connection points: 6
#     Node 29, Type 1, BuildingBlock: OJICUG_clean_sbu_0, # of connection points: 6
#     Node 30, Type 1, BuildingBlock: OJICUG_clean_sbu_0, # of connection points: 6
#     Node 31, Type 1, BuildingBlock: OJICUG_clean_sbu_0, # of connection points: 6
#     Node 32, Type 1, BuildingBlock: OJICUG_clean_sbu_0, # of connection points: 6
#     Node 33, Type 1, BuildingBlock: OJICUG_clean_sbu_0, # of connection points: 6
#     Node 34, Type 1, BuildingBlock: OJICUG_clean_sbu_0, # of connection points: 6
#     Node 35, Type 1, BuildingBlock: OJICUG_clean_sbu_0, # of connection points: 6
#     Node 36, Type 1, BuildingBlock: OJICUG_clean_sbu_0, # of connection points: 6
#     Node 37, Type 1, BuildingBlock: OJICUG_clean_sbu_0, # of connection points: 6
#     Node 38, Type 1, BuildingBlock: OJICUG_clean_sbu_0, # of connection points: 6
#     Node 39, Type 1, BuildingBlock: OJICUG_clean_sbu_0, # of connection points: 6
#     Edge 40, Type (0, 1), BuildingBlock: UVAHIK_clean_linker_0, # of connection points: 2
#     Edge 41, Type (0, 1), BuildingBlock: UVAHIK_clean_linker_0, # of connection points: 2
#     Edge 42, Type (0, 1), BuildingBlock: UVAHIK_clean_linker_0, # of connection points: 2
#     Edge 43, Type (0, 1), BuildingBlock: UVAHIK_clean_linker_0, # of connection points: 2
#     Edge 44, Type (0, 1), BuildingBlock: UVAHIK_clean_linker_0, # of connection points: 2
#     Edge 45, Type (0, 1), BuildingBlock: UVAHIK_clean_linker_0, # of connection points: 2
#     Edge 46, Type (0, 1), BuildingBlock: UVAHIK_clean_linker_0, # of connection points: 2
#     Edge 47, Type (0, 1), BuildingBlock: UVAHIK_clean_linker_0, # of connection points: 2
#     Edge 48, Type (0, 1), BuildingBlock: UVAHIK_clean_linker_0, # of connection points: 2
#     Edge 49, Type (0, 1), BuildingBlock: UVAHIK_clean_linker_0, # of connection points: 2
#     Edge 50, Type (0, 1), BuildingBlock: UVAHIK_clean_linker_0, # of connection points: 2
#     Edge 51, Type (0, 1), BuildingBlock: UVAHIK_clean_linker_0, # of connection points: 2
#     Edge 52, Type (0, 1), BuildingBlock: UVAHIK_clean_linker_0, # of connection points: 2
#     Edge 53, Type (0, 1), BuildingBlock: UVAHIK_clean_linker_0, # of connection points: 2
#     Edge 54, Type (0, 1), BuildingBlock: UVAHIK_clean_linker_0, # of connection points: 2
#     Edge 55, Type (0, 1), BuildingBlock: UVAHIK_clean_linker_0, # of connection points: 2
#     Edge 56, Type (0, 1), BuildingBlock: UVAHIK_clean_linker_0, # of connection points: 2
#     Edge 57, Type (0, 1), BuildingBlock: UVAHIK_clean_linker_0, # of connection points: 2
#     Edge 58, Type (0, 1), BuildingBlock: UVAHIK_clean_linker_0, # of connection points: 2
#     Edge 59, Type (0, 1), BuildingBlock: UVAHIK_clean_linker_0, # of connection points: 2
#     Edge 60, Type (0, 1), BuildingBlock: UVAHIK_clean_linker_0, # of connection points: 2
#     Edge 61, Type (0, 1), BuildingBlock: UVAHIK_clean_linker_0, # of connection points: 2
#     Edge 62, Type (0, 1), BuildingBlock: UVAHIK_clean_linker_0, # of connection points: 2
#     Edge 63, Type (0, 1), BuildingBlock: UVAHIK_clean_linker_0, # of connection points: 2
#     Edge 64, Type (0, 1), BuildingBlock: UVAHIK_clean_linker_0, # of connection points: 2
#     Edge 65, Type (0, 1), BuildingBlock: UVAHIK_clean_linker_0, # of connection points: 2
#     Edge 66, Type (0, 1), BuildingBlock: UVAHIK_clean_linker_0, # of connection points: 2
#     Edge 67, Type (0, 1), BuildingBlock: UVAHIK_clean_linker_0, # of connection points: 2
#     Edge 68, Type (0, 1), BuildingBlock: UVAHIK_clean_linker_0, # of connection points: 2
#     Edge 69, Type (0, 1), BuildingBlock: UVAHIK_clean_linker_0, # of connection points: 2
#     Edge 70, Type (0, 1), BuildingBlock: UVAHIK_clean_linker_0, # of connection points: 2
#     Edge 71, Type (0, 1), BuildingBlock: UVAHIK_clean_linker_0, # of connection points: 2
#     Edge 72, Type (0, 1), BuildingBlock: UVAHIK_clean_linker_0, # of connection points: 2
#     Edge 73, Type (0, 1), BuildingBlock: UVAHIK_clean_linker_0, # of connection points: 2
#     Edge 74, Type (0, 1), BuildingBlock: UVAHIK_clean_linker_0, # of connection points: 2
#     Edge 75, Type (0, 1), BuildingBlock: UVAHIK_clean_linker_0, # of connection points: 2
#     Edge 76, Type (0, 1), BuildingBlock: UVAHIK_clean_linker_0, # of connection points: 2
#     Edge 77, Type (0, 1), BuildingBlock: UVAHIK_clean_linker_0, # of connection points: 2
#     Edge 78, Type (0, 1), BuildingBlock: UVAHIK_clean_linker_0, # of connection points: 2
#     Edge 79, Type (0, 1), BuildingBlock: UVAHIK_clean_linker_0, # of connection points: 2
#     Edge 80, Type (0, 1), BuildingBlock: UVAHIK_clean_linker_0, # of connection points: 2
#     Edge 81, Type (0, 1), BuildingBlock: UVAHIK_clean_linker_0, # of connection points: 2
#     Edge 82, Type (0, 1), BuildingBlock: UVAHIK_clean_linker_0, # of connection points: 2
#     Edge 83, Type (0, 1), BuildingBlock: UVAHIK_clean_linker_0, # of connection points: 2
#     Edge 84, Type (0, 1), BuildingBlock: UVAHIK_clean_linker_0, # of connection points: 2
#     Edge 85, Type (0, 1), BuildingBlock: UVAHIK_clean_linker_0, # of connection points: 2
#     Edge 86, Type (0, 1), BuildingBlock: UVAHIK_clean_linker_0, # of connection points: 2
#     Edge 87, Type (0, 1), BuildingBlock: UVAHIK_clean_linker_0, # of connection points: 2
#     Edge 88, Type (0, 1), BuildingBlock: UVAHIK_clean_linker_0, # of connection points: 2
#     Edge 89, Type (0, 1), BuildingBlock: UVAHIK_clean_linker_0, # of connection points: 2
#     Edge 90, Type (0, 1), BuildingBlock: UVAHIK_clean_linker_0, # of connection points: 2
#     Edge 91, Type (0, 1), BuildingBlock: UVAHIK_clean_linker_0, # of connection points: 2
#     Edge 92, Type (0, 1), BuildingBlock: UVAHIK_clean_linker_0, # of connection points: 2
#     Edge 93, Type (0, 1), BuildingBlock: UVAHIK_clean_linker_0, # of connection points: 2
#     Edge 94, Type (0, 1), BuildingBlock: UVAHIK_clean_linker_0, # of connection points: 2
#     Edge 95, Type (0, 1), BuildingBlock: UVAHIK_clean_linker_0, # of connection points: 2
#     Edge 96, Type (0, 1), BuildingBlock: UVAHIK_clean_linker_0, # of connection points: 2
#     Edge 97, Type (0, 1), BuildingBlock: UVAHIK_clean_linker_0, # of connection points: 2
#     Edge 98, Type (0, 1), BuildingBlock: UVAHIK_clean_linker_0, # of connection points: 2
#     Edge 99, Type (0, 1), BuildingBlock: UVAHIK_clean_linker_0, # of connection points: 2
#     Edge 100, Type (0, 1), BuildingBlock: UVAHIK_clean_linker_0, # of connection points: 2
#     Edge 101, Type (0, 1), BuildingBlock: UVAHIK_clean_linker_0, # of connection points: 2
#     Edge 102, Type (0, 1), BuildingBlock: UVAHIK_clean_linker_0, # of connection points: 2
#     Edge 103, Type (0, 1), BuildingBlock: UVAHIK_clean_linker_0, # of connection points: 2
#     Edge 104, Type (0, 1), BuildingBlock: UVAHIK_clean_linker_0, # of connection points: 2
#     Edge 105, Type (0, 1), BuildingBlock: UVAHIK_clean_linker_0, # of connection points: 2
#     Edge 106, Type (0, 1), BuildingBlock: UVAHIK_clean_linker_0, # of connection points: 2
#     Edge 107, Type (0, 1), BuildingBlock: UVAHIK_clean_linker_0, # of connection points: 2
#     Edge 108, Type (0, 1), BuildingBlock: UVAHIK_clean_linker_0, # of connection points: 2
#     Edge 109, Type (0, 1), BuildingBlock: UVAHIK_clean_linker_0, # of connection points: 2
#     Edge 110, Type (0, 1), BuildingBlock: UVAHIK_clean_linker_0, # of connection points: 2
#     Edge 111, Type (0, 1), BuildingBlock: UVAHIK_clean_linker_0, # of connection points: 2
#     Edge 112, Type (0, 1), BuildingBlock: UVAHIK_clean_linker_0, # of connection points: 2
#     Edge 113, Type (0, 1), BuildingBlock: UVAHIK_clean_linker_0, # of connection points: 2
#     Edge 114, Type (0, 1), BuildingBlock: UVAHIK_clean_linker_0, # of connection points: 2
#     Edge 115, Type (0, 1), BuildingBlock: UVAHIK_clean_linker_0, # of connection points: 2
#     Edge 116, Type (0, 1), BuildingBlock: UVAHIK_clean_linker_0, # of connection points: 2
#     Edge 117, Type (0, 1), BuildingBlock: UVAHIK_clean_linker_0, # of connection points: 2
#     Edge 118, Type (0, 1), BuildingBlock: UVAHIK_clean_linker_0, # of connection points: 2
#     Edge 119, Type (0, 1), BuildingBlock: UVAHIK_clean_linker_0, # of connection points: 2
#     Edge 120, Type (0, 1), BuildingBlock: UVAHIK_clean_linker_0, # of connection points: 2
#     Edge 121, Type (0, 1), BuildingBlock: UVAHIK_clean_linker_0, # of connection points: 2
#     Edge 122, Type (0, 1), BuildingBlock: UVAHIK_clean_linker_0, # of connection points: 2
#     Edge 123, Type (0, 1), BuildingBlock: UVAHIK_clean_linker_0, # of connection points: 2
#     Edge 124, Type (0, 1), BuildingBlock: UVAHIK_clean_linker_0, # of connection points: 2
#     Edge 125, Type (0, 1), BuildingBlock: UVAHIK_clean_linker_0, # of connection points: 2
#     Edge 126, Type (0, 1), BuildingBlock: UVAHIK_clean_linker_0, # of connection points: 2
#     Edge 127, Type (0, 1), BuildingBlock: UVAHIK_clean_linker_0, # of connection points: 2
#     Edge 128, Type (0, 1), BuildingBlock: UVAHIK_clean_linker_0, # of connection points: 2
#     Edge 129, Type (0, 1), BuildingBlock: UVAHIK_clean_linker_0, # of connection points: 2
#     Edge 130, Type (0, 1), BuildingBlock: UVAHIK_clean_linker_0, # of connection points: 2
#     Edge 131, Type (0, 1), BuildingBlock: UVAHIK_clean_linker_0, # of connection points: 2
#     Edge 132, Type (0, 1), BuildingBlock: UVAHIK_clean_linker_0, # of connection points: 2
#     Edge 133, Type (0, 1), BuildingBlock: UVAHIK_clean_linker_0, # of connection points: 2
#     Edge 134, Type (0, 1), BuildingBlock: UVAHIK_clean_linker_0, # of connection points: 2
#     Edge 135, Type (0, 1), BuildingBlock: UVAHIK_clean_linker_0, # of connection points: 2
# Relax obj value: 0.375
# Max RMSD: 0.288
# Mean RMSD: 0.282
data_MOF--net-ibd--node1-QUQFOY_clean_sbu_3--node2-OJICUG_clean_sbu_0--edge1-UVAHIK_clean_linker_0
_symmetry_space_group_name_H-M    P1
_symmetry_Int_Tables_number       1
_symmetry_cell_setting            triclinic
loop_
_symmetry_equiv_pos_as_xyz
'x, y, z'
_cell_length_a     62.43023
_cell_length_b     62.446022
_cell_length_c     62.465883
_cell_angle_alpha  90.120546
_cell_angle_beta   90.09229
_cell_angle_gamma 91.247225
loop_
_atom_site_label
_atom_site_type_symbol
_atom_site_fract_x
_atom_site_fract_y
_atom_site_fract_z
_atom_type_partial_charge
C0 C 0.96474 0.21968 0.39152 0.0
O1 O 0.94856 0.23122 0.38811 0.0
Cd2 Cd 0.94496 0.25977 0.36329 0.0
O3 O 0.98193 0.22198 0.38061 0.0
Cd4 Cd 0.99335 0.24461 0.34953 0.0
C5 C 0.98809 0.29053 0.37913 0.0
O6 O 0.95874 0.24208 0.33268 0.0
O7 O 0.98201 0.26079 0.31519 0.0
O8 O 0.01613 0.21652 0.33527 0.0
C9 C 0.96318 0.25292 0.31622 0.0
O10 O 0.96776 0.28852 0.37863 0.0
C11 C 0.03238 0.22897 0.33296 0.0
O12 O -0.00014 0.27679 0.37021 0.0
O13 O 0.03051 0.24819 0.33918 0.0
C14 C 0.03613 0.82903 0.61135 0.0
O15 O 0.01987 0.84084 0.60979 0.0
Cd16 Cd 0.98509 0.83281 0.62439 0.0
O17 O 0.03517 0.81168 0.62204 0.0
Cd18 Cd 0.00896 0.7914 0.64402 0.0
C19 C 0.97603 0.78378 0.6011 0.0
O20 O 0.9918 0.82169 0.66016 0.0
O21 O 0.97675 0.79096 0.66659 0.0
O22 O 0.03613 0.78106 0.66991 0.0
C23 C 0.97699 0.81108 0.66936 0.0
O24 O 0.97051 0.80326 0.60247 0.0
C25 C 0.03339 0.76106 0.66682 0.0
O26 O 0.99018 0.77633 0.61352 0.0
O27 O 0.01941 0.75533 0.65305 0.0
C28 C 0.46907 0.69854 0.89406 0.0
O29 O 0.45047 0.70614 0.89199 0.0
Cd30 Cd 0.44154 0.73338 0.86685 0.0
O31 O 0.48431 0.7043 0.88167 0.0
Cd32 Cd 0.49038 0.72681 0.84972 0.0
C33 C 0.48052 0.77129 0.8792 0.0
O34 O 0.45549 0.71924 0.83425 0.0
O35 O 0.47484 0.74245 0.81733 0.0
O36 O 0.5147 0.69863 0.83966 0.0
C37 C 0.45729 0.73197 0.81863 0.0
O38 O 0.46078 0.76571 0.87999 0.0
C39 C 0.52969 0.71136 0.83376 0.0
O40 O 0.49409 0.75967 0.86978 0.0
O41 O 0.52619 0.73128 0.8349 0.0
C42 C 0.54496 0.319 0.10925 0.0
O43 O 0.52981 0.33226 0.10971 0.0
Cd44 Cd 0.49447 0.32321 0.12292 0.0
O45 O 0.54242 0.30023 0.11688 0.0
Cd46 Cd 0.51612 0.27766 0.13596 0.0
C47 C 0.48286 0.27782 0.0931 0.0
O48 O 0.50002 0.30599 0.15629 0.0
O49 O 0.48419 0.27502 0.15854 0.0
O50 O 0.54547 0.26699 0.15856 0.0
C51 C 0.48483 0.2946 0.16388 0.0
O52 O 0.47852 0.29712 0.09783 0.0
C53 C 0.54197 0.24698 0.15666 0.0
O54 O 0.49697 0.26763 0.10346 0.0
O55 O 0.52645 0.24106 0.14468 0.0
C56 C 0.91818 0.70624 0.12645 0.0
O57 O 0.91084 0.72423 0.12086 0.0
Cd58 Cd 0.93144 0.75245 0.10366 0.0
O59 O 0.93754 0.70155 0.1225 0.0
Cd60 Cd 0.97025 0.71571 0.10537 0.0
C61 C 0.97246 0.75739 0.14077 0.0
O62 O 0.95302 0.73553 0.07778 0.0
O63 O 0.98718 0.74048 0.0799 0.0
O64 O 0.97685 0.68127 0.0891 0.0
C65 C 0.96963 0.74552 0.07125 0.0
O66 O 0.95646 0.76544 0.13122 0.0
C67 C -0.00428 0.67966 0.09651 0.0
O68 O 0.97953 0.73912 0.13541 0.0
O69 O 0.00249 0.6946 0.10879 0.0
C70 C 0.53014 0.7861 0.35272 0.0
O71 O 0.52399 0.80497 0.35661 0.0
Cd72 Cd 0.49558 0.81362 0.38024 0.0
O73 O 0.52203 0.77007 0.36266 0.0
Cd74 Cd 0.49585 0.76471 0.3923 0.0
C75 C 0.45614 0.78071 0.35962 0.0
O76 O 0.5056 0.79659 0.41303 0.0
O77 O 0.47624 0.78035 0.42207 0.0
O78 O 0.51833 0.73658 0.40642 0.0
C79 C 0.49024 0.79478 0.42611 0.0
O80 O 0.46295 0.79995 0.362 0.0
C81 C 0.50287 0.72344 0.40978 0.0
O82 O 0.46582 0.76532 0.36835 0.0
O83 O 0.48429 0.72935 0.40448 0.0
C84 C 0.41093 0.21282 0.64212 0.0
O85 O 0.39921 0.22911 0.64405 0.0
Cd86 Cd 0.41038 0.26465 0.63326 0.0
O87 O 0.4295 0.21455 0.63386 0.0
Cd88 Cd 0.45435 0.24058 0.61734 0.0
C89 C 0.45681 0.27019 0.66306 0.0
O90 O 0.42735 0.26066 0.59945 0.0
O91 O 0.45959 0.27366 0.59686 0.0
O92 O 0.46251 0.21314 0.59145 0.0
C93 C 0.43984 0.27536 0.59261 0.0
O94 O 0.43763 0.27574 0.65935 0.0
C95 C 0.48256 0.21338 0.5949 0.0
O96 O 0.46615 0.25685 0.65096 0.0
O97 O 0.48968 0.22646 0.60897 0.0
C98 C 0.02725 0.274 0.86687 0.0
O99 O 0.01771 0.29038 0.87381 0.0
Cd100 Cd 0.98939 0.29071 0.89916 0.0
O101 O 0.02309 0.25537 0.87435 0.0
Cd102 Cd 0.00054 0.23994 0.90371 0.0
C103 C 0.95582 0.25262 0.87609 0.0
O104 O 0.00355 0.27008 0.92747 0.0
O105 O 0.97877 0.2474 0.93591 0.0
O106 O 0.02911 0.21667 0.91505 0.0
C107 C 0.98876 0.26476 0.94026 0.0
O108 O 0.95909 0.27223 0.88108 0.0
C109 C 0.01778 0.19952 0.91434 0.0
O110 O 0.96898 0.23835 0.88157 0.0
O111 O -0.00156 0.20119 0.90838 0.0
C112 C 0.38312 0.97524 0.21963 0.0
O113 O 0.3728 0.96285 0.23221 0.0
Cd114 Cd 0.34716 0.97439 0.2572 0.0
O115 O 0.38024 0.99543 0.21976 0.0
Cd116 Cd 0.35656 0.02146 0.23809 0.0
C117 C 0.3776 0.0101 0.28678 0.0
O118 O 0.32766 -0.00342 0.23315 0.0
O119 O 0.31868 0.02406 0.25134 0.0
O120 O 0.36119 0.04087 0.20454 0.0
C121 C 0.31296 0.00686 0.24195 0.0
O122 O 0.3683 0.99178 0.28587 0.0
C123 C 0.35952 0.05934 0.2128 0.0
O124 O 0.37609 0.02329 0.27141 0.0
O125 O 0.35705 0.0602 0.23294 0.0
C126 C 0.32047 0.0927 0.52726 0.0
O127 O 0.3285 0.08962 0.50887 0.0
Cd128 Cd 0.31006 0.09907 0.47638 0.0
O129 O 0.30196 0.10059 0.52909 0.0
Cd130 Cd 0.27317 0.11392 0.50632 0.0
C131 C 0.26467 0.06788 0.47852 0.0
O132 O 0.2964 0.13438 0.48205 0.0
O133 O 0.26247 0.13431 0.47501 0.0
O134 O 0.26689 0.13943 0.53484 0.0
C135 C 0.28117 0.14134 0.47075 0.0
O136 O 0.28224 0.0719 0.46888 0.0
C137 C 0.24715 0.13464 0.53701 0.0
O138 O 0.25849 0.07989 0.49366 0.0
O139 O 0.23949 0.12001 0.52492 0.0
C140 C 0.1326 0.95835 0.68468 0.0
O141 O 0.12761 0.94939 0.70226 0.0
Cd142 Cd 0.11817 0.96822 0.73427 0.0
O143 O 0.13251 0.97866 0.68283 0.0
Cd144 Cd 0.123 0.00983 0.70498 0.0
C145 C 0.16188 0.00206 0.7412 0.0
O146 O 0.09244 0.99319 0.7227 0.0
O147 O 0.10336 0.02319 0.73627 0.0
O148 O 0.10634 0.0256 0.67381 0.0
C149 C 0.08963 0.00795 0.73625 0.0
O150 O 0.14992 0.98722 0.74898 0.0
C151 C 0.11509 0.044 0.6762 0.0
O152 O 0.15688 0.01148 0.72392 0.0
O153 O 0.1284 0.04619 0.69148 0.0
C154 C 0.27564 0.83841 0.00152 0.0
O155 O 0.28572 0.84647 0.98572 0.0
Cd156 Cd 0.27181 0.87453 0.96438 0.0
O157 O 0.25746 0.84545 0.00712 0.0
Cd158 Cd 0.23257 0.87409 -0.00292 0.0
C159 C 0.22408 0.85172 0.9482 0.0
O160 O 0.26195 0.89925 0.99192 0.0
O161 O 0.23078 0.91184 0.98542 0.0
O162 O 0.22601 0.87488 0.03544 0.0
C163 C 0.25077 0.91523 0.98736 0.0
O164 O 0.24319 0.85727 0.94335 0.0
C165 C 0.20607 0.87812 0.03391 0.0
O166 O 0.21656 0.85571 0.96665 0.0
O167 O 0.19824 0.87843 0.01514 0.0
C168 C 0.29317 0.32571 0.01854 0.0
O169 O 0.31237 0.3228 0.02446 0.0
Cd170 Cd 0.34086 0.34832 0.01797 0.0
O171 O 0.28824 0.3427 0.0086 0.0
Cd172 Cd 0.30632 0.37586 -0.0043 0.0
C173 C 0.34045 0.34904 0.96358 0.0
O174 O 0.32613 0.38207 0.02893 0.0
O175 O 0.33324 0.40417 0.00334 0.0
O176 O 0.27094 0.39191 -0.0006 0.0
C177 C 0.33573 0.39901 0.02278 0.0
O178 O 0.35083 0.34378 0.98024 0.0
C179 C 0.27163 0.40088 0.98116 0.0
O180 O 0.32343 0.35966 0.96524 0.0
O181 O 0.28856 0.3986 0.97027 0.0
C182 C 0.67874 0.11654 0.00916 0.0
O183 O 0.68743 0.12935 0.02261 0.0
Cd184 Cd 0.7137 0.15699 0.01522 0.0
O185 O 0.68273 0.11817 0.9892 0.0
Cd186 Cd 0.70373 0.1416 0.96476 0.0
C187 C 0.75033 0.12655 0.98834 0.0
O188 O 0.70123 0.17482 0.98427 0.0
O189 O 0.72347 0.17505 0.95807 0.0
O190 O 0.67499 0.14293 0.93865 0.0
C191 C 0.7154 0.18502 0.97366 0.0
O192 O 0.74573 0.1375 0.0049 0.0
C193 C 0.6864 0.13732 0.92285 0.0
O194 O 0.73743 0.12474 0.97256 0.0
O195 O 0.70561 0.13232 0.92689 0.0
C196 C 0.14402 0.54065 0.21269 0.0
O197 O 0.13406 0.52912 0.19898 0.0
Cd198 Cd 0.10282 0.50743 0.20754 0.0
O199 O 0.13723 0.54207 0.23183 0.0
Cd200 Cd 0.10818 0.53045 0.25558 0.0
C201 C 0.12314 0.47863 0.24977 0.0
O202 O 0.08079 0.52988 0.2287 0.0
O203 O 0.07123 0.517 0.25926 0.0
O204 O 0.10668 0.56651 0.26957 0.0
C205 C 0.06633 0.52095 0.23998 0.0
O206 O 0.11664 0.479 0.23042 0.0
C207 C 0.11012 0.56146 0.28894 0.0
O208 O 0.12254 0.49524 0.26164 0.0
O209 O 0.11289 0.54174 0.29286 0.0
C210 C 0.76352 0.84665 0.57471 0.0
O211 O 0.78221 0.84122 0.58027 0.0
Cd212 Cd 0.81401 0.85417 0.56255 0.0
O213 O 0.76092 0.85938 0.55907 0.0
Cd214 Cd 0.78305 0.87924 0.53287 0.0
C215 C 0.8044 0.83399 0.51292 0.0
O216 O 0.80927 0.89218 0.55868 0.0
O217 O 0.81708 0.89881 0.52569 0.0
O218 O 0.75537 0.90646 0.53156 0.0
C219 C 0.82147 0.90155 0.54534 0.0
O220 O 0.81666 0.83339 0.52921 0.0
C221 C 0.75281 0.90507 0.51141 0.0
O222 O 0.79029 0.84822 0.5114 0.0
O223 O 0.76477 0.89227 0.50144 0.0
C224 C 0.92075 0.9737 0.22478 0.0
O225 O 0.92021 0.95411 0.21925 0.0
Cd226 Cd 0.89259 0.92875 0.22897 0.0
O227 O 0.90603 0.98128 0.2365 0.0
Cd228 Cd 0.87281 0.96759 0.25387 0.0
C229 C 0.89681 0.92927 0.28337 0.0
O230 O 0.85971 0.94696 0.22326 0.0
O231 O 0.84173 0.94291 0.25249 0.0
O232 O 0.85285 0.00065 0.24913 0.0
C233 C 0.84336 0.93917 0.23261 0.0
O234 O 0.89897 0.91862 0.26614 0.0
C235 C 0.85117 0.00435 0.26905 0.0
O236 O 0.88887 0.94783 0.28302 0.0
O237 O 0.86002 0.99132 0.28166 0.0
C238 C 0.18824 0.61297 0.51352 0.0
O239 O 0.19915 0.62316 0.52759 0.0
Cd240 Cd 0.22405 0.65246 0.52177 0.0
O241 O 0.18893 0.61839 0.49385 0.0
Cd242 Cd 0.20595 0.64583 0.47058 0.0
C243 C 0.25573 0.6279 0.48454 0.0
O244 O 0.2057 0.67375 0.49662 0.0
O245 O 0.22065 0.6827 0.46698 0.0
O246 O 0.17431 0.64851 0.4481 0.0
C247 C 0.21615 0.68772 0.48609 0.0
O248 O 0.25388 0.63518 0.50352 0.0
C249 C 0.18394 0.64388 0.43081 0.0
O250 O 0.24067 0.62945 0.47089 0.0
O251 O 0.2037 0.63963 0.43224 0.0
C252 C 0.42336 0.4641 0.74559 0.0
O253 O 0.42419 0.44379 0.74572 0.0
Cd254 Cd 0.39606 0.42076 0.75942 0.0
O255 O 0.4076 0.47356 0.75408 0.0
Cd256 Cd 0.3749 0.46284 0.77387 0.0
C257 C 0.39922 0.4331 0.81192 0.0
O258 O 0.36359 0.43636 0.74726 0.0
O259 O 0.34388 0.43773 0.77552 0.0
O260 O 0.35707 0.49482 0.76061 0.0
C261 C 0.34655 0.43055 0.75673 0.0
O262 O 0.39989 0.41811 0.79815 0.0
C263 C 0.35172 0.50147 0.77902 0.0
O264 O 0.39285 0.45158 0.80674 0.0
O265 O 0.35767 0.49048 0.79494 0.0
C266 C 0.64614 0.01728 0.75136 0.0
O267 O 0.6373 0.00296 0.73964 0.0
Cd268 Cd 0.60966 0.97837 0.75112 0.0
O269 O 0.63978 0.02034 0.77049 0.0
Cd270 Cd 0.61145 0.00605 0.79463 0.0
C271 C 0.63423 0.95734 0.7951 0.0
O272 O 0.58346 -0.00022 0.76833 0.0
O273 O 0.57776 0.9858 0.7993 0.0
O274 O 0.60317 0.04148 0.80805 0.0
C275 C 0.57095 0.98935 0.78054 0.0
O276 O 0.62735 0.95417 0.77612 0.0
C277 C 0.60576 0.03678 0.82766 0.0
O278 O 0.63138 0.97508 0.80461 0.0
O279 O 0.61193 0.01798 0.83177 0.0
C280 C 0.83087 0.61295 0.01162 0.0
O281 O 0.83998 0.60834 0.99408 0.0
Cd282 Cd 0.82413 0.61638 0.95985 0.0
O283 O 0.8125 0.62133 0.01159 0.0
Cd284 Cd 0.78571 0.63287 0.98567 0.0
C285 C 0.77939 0.58494 0.96046 0.0
O286 O 0.81116 0.65242 0.96302 0.0
O287 O 0.77808 0.65239 0.95279 0.0
O288 O 0.77557 0.65861 0.01291 0.0
C289 C 0.79709 0.65948 0.95036 0.0
O290 O 0.79729 0.58841 0.95124 0.0
C291 C 0.75586 0.65313 0.01293 0.0
O292 O 0.77261 0.59797 0.97439 0.0
O293 O 0.75007 0.63831 0.0001 0.0
C294 C 0.88449 0.47167 0.71366 0.0
O295 O 0.87475 0.4588 0.72621 0.0
Cd296 Cd 0.84955 0.4699 0.75199 0.0
O297 O 0.88087 0.4917 0.71407 0.0
Cd298 Cd 0.85646 0.51652 0.73287 0.0
C299 C 0.88027 0.50629 0.78041 0.0
O300 O 0.82752 0.49099 0.72908 0.0
O301 O 0.81965 0.51802 0.74856 0.0
O302 O 0.85864 0.53528 0.69881 0.0
C303 C 0.81336 0.50113 0.73895 0.0
O304 O 0.87103 0.48791 0.78009 0.0
C305 C 0.8565 0.55387 0.70664 0.0
O306 O 0.87794 0.51925 0.76496 0.0
O307 O 0.85499 0.55521 0.72686 0.0
C308 C 0.78856 0.33033 0.51207 0.0
O309 O 0.80591 0.32593 0.50261 0.0
Cd310 Cd 0.81596 0.34121 0.46902 0.0
O311 O 0.77611 0.34438 0.50466 0.0
Cd312 Cd 0.77652 0.37067 0.47515 0.0
C313 C 0.77098 0.33104 0.43879 0.0
O314 O 0.81473 0.37882 0.47654 0.0
O315 O 0.79764 0.39271 0.4501 0.0
O316 O 0.76344 0.39536 0.50169 0.0
C317 C 0.81489 0.39147 0.46075 0.0
O318 O 0.79044 0.32659 0.44251 0.0
C319 C 0.74709 0.40086 0.49112 0.0
O320 O 0.76201 0.34602 0.44894 0.0
O321 O 0.7445 0.39249 0.47272 0.0
C322 C 0.63152 0.41309 0.24901 0.0
O323 O 0.63278 0.40634 0.26813 0.0
Cd324 Cd 0.62637 0.4299 0.29812 0.0
O325 O 0.62838 0.43278 0.24523 0.0
Cd326 Cd 0.62358 0.46653 0.26432 0.0
C327 C 0.6684 0.46491 0.29498 0.0
O328 O 0.59619 0.45149 0.28819 0.0
O329 O 0.60378 0.48524 0.29187 0.0
O330 O 0.60646 0.47619 0.23078 0.0
C331 C 0.59227 0.4692 0.2972 0.0
O332 O 0.65933 0.45032 0.30613 0.0
C333 C 0.61428 0.49512 0.23035 0.0
O334 O 0.65934 0.47208 0.27833 0.0
O335 O 0.62668 0.50063 0.24559 0.0
Sc336 Sc 0.11594 0.13694 0.11512 0.0
Sc337 Sc 0.14992 0.10504 0.14584 0.0
Sc338 Sc 0.15667 0.10821 0.09006 0.0
O339 O 0.14082 0.11669 0.11704 0.0
C340 C 0.10942 0.10809 0.07277 0.0
C341 C 0.09862 0.10171 0.14767 0.0
C342 C 0.15631 0.06433 0.11625 0.0
C343 C 0.13718 0.15182 0.15958 0.0
C344 C 0.14868 0.15821 0.08278 0.0
C345 C 0.19462 0.11667 0.12311 0.0
O346 O 0.10392 0.12261 0.08585 0.0
O347 O 0.11722 0.09734 0.15463 0.0
O348 O 0.15915 0.07516 0.09926 0.0
O349 O 0.12411 0.15406 0.14418 0.0
O350 O 0.15631 0.14025 0.07742 0.0
O351 O 0.18334 0.11213 0.13952 0.0
O352 O 0.13493 0.16023 0.09761 0.0
O353 O 0.1487 0.13547 0.1615 0.0
O354 O 0.18718 0.1162 0.10416 0.0
O355 O 0.09546 0.11506 0.13266 0.0
O356 O 0.12771 0.09963 0.07332 0.0
O357 O 0.1521 0.07281 0.13417 0.0
Sc358 Sc 0.14333 0.85114 0.36993 0.0
Sc359 Sc 0.08995 0.83212 0.36734 0.0
Sc360 Sc 0.10272 0.88456 0.35048 0.0
O361 O 0.11202 0.85598 0.36258 0.0
C362 C 0.13633 0.89911 0.3863 0.0
C363 C 0.11867 0.82949 0.40937 0.0
C364 C 0.06266 0.87271 0.38018 0.0
C365 C 0.12975 0.8059 0.35009 0.0
C366 C 0.14787 0.87873 0.32738 0.0
C367 C 0.07676 0.85053 0.3218 0.0
O368 O 0.14632 0.8816 0.38568 0.0
O369 O 0.10118 0.82645 0.39924 0.0
O370 O 0.07448 0.88592 0.36995 0.0
O371 O 0.14392 0.81999 0.35499 0.0
O372 O 0.12965 0.88712 0.32942 0.0
O373 O 0.07716 0.83586 0.33585 0.0
O374 O 0.15489 0.86482 0.34033 0.0
O375 O 0.11 0.8081 0.35401 0.0
O376 O 0.08499 0.86916 0.32466 0.0
O377 O 0.13535 0.83774 0.40079 0.0
O378 O 0.11988 0.90266 0.37487 0.0
O379 O 0.06639 0.85283 0.38088 0.0
Sc380 Sc 0.38405 0.84643 0.63798 0.0
Sc381 Sc 0.35645 0.88359 0.60683 0.0
Sc382 Sc 0.34941 0.88276 0.6628 0.0
O383 O 0.36329 0.87092 0.6359 0.0
C384 C 0.34992 0.83316 0.67397 0.0
C385 C 0.3563 0.83338 0.59718 0.0
C386 C 0.31067 0.88193 0.62951 0.0
C387 C 0.40598 0.87503 0.60133 0.0
C388 C 0.39801 0.87645 0.67712 0.0
C389 C 0.35945 0.92529 0.63616 0.0
O390 O 0.36517 0.82939 0.66121 0.0
O391 O 0.35222 0.85262 0.59229 0.0
O392 O 0.31815 0.8819 0.64846 0.0
O393 O 0.40604 0.85993 0.61492 0.0
O394 O 0.37958 0.88447 0.67931 0.0
O395 O 0.36035 0.91572 0.61826 0.0
O396 O 0.40232 0.86276 0.66268 0.0
O397 O 0.38938 0.88565 0.59724 0.0
O398 O 0.35503 0.91573 0.65357 0.0
O399 O 0.36701 0.8283 0.61369 0.0
O400 O 0.3421 0.85163 0.67608 0.0
O401 O 0.32249 0.88292 0.61298 0.0
Sc402 Sc 0.38097 0.09963 0.87087 0.0
Sc403 Sc 0.4018 0.15225 0.86903 0.0
Sc404 Sc 0.35005 0.14246 0.8898 0.0
O405 O 0.37755 0.13146 0.87655 0.0
C406 C 0.3324 0.10757 0.85677 0.0
C407 C 0.40112 0.12075 0.82886 0.0
C408 C 0.36168 0.18064 0.85751 0.0
C409 C 0.42777 0.11272 0.88708 0.0
C410 C 0.35587 0.09845 0.91504 0.0
C411 C 0.38658 0.16881 0.9148 0.0
O412 O 0.3495 0.09689 0.85706 0.0
O413 O 0.40542 0.13878 0.83755 0.0
O414 O 0.34869 0.17008 0.86929 0.0
O415 O 0.41299 0.09877 0.88389 0.0
O416 O 0.34748 0.11659 0.91233 0.0
O417 O 0.4003 0.1672 0.89989 0.0
O418 O 0.3691 0.09058 0.90191 0.0
O419 O 0.42589 0.13227 0.88218 0.0
O420 O 0.36766 0.16083 0.91367 0.0
O421 O 0.39263 0.1051 0.83894 0.0
O422 O 0.33002 0.12481 0.86735 0.0
O423 O 0.38113 0.1756 0.85534 0.0
Sc424 Sc 0.65133 0.35813 0.87682 0.0
Sc425 Sc 0.59828 0.33979 0.88517 0.0
Sc426 Sc 0.6082 0.39037 0.86192 0.0
O427 O 0.61926 0.36279 0.87466 0.0
C428 C 0.64708 0.40738 0.89046 0.0
C429 C 0.63421 0.33996 0.92142 0.0
C430 C 0.57326 0.38151 0.89854 0.0
C431 C 0.63428 0.31157 0.86323 0.0
C432 C 0.6491 0.38228 0.83236 0.0
C433 C 0.57735 0.35478 0.84107 0.0
O434 O 0.65708 0.38991 0.88908 0.0
O435 O 0.61525 0.33592 0.91485 0.0
O436 O 0.58286 0.39339 0.88496 0.0
O437 O 0.6491 0.3258 0.86455 0.0
O438 O 0.63177 0.39152 0.83691 0.0
O439 O 0.57944 0.34162 0.85643 0.0
O440 O 0.65762 0.36872 0.84469 0.0
O441 O 0.6155 0.31447 0.87025 0.0
O442 O 0.58711 0.37289 0.8404 0.0
O443 O 0.64888 0.34785 0.90959 0.0
O444 O 0.62867 0.41005 0.88219 0.0
O445 O 0.57777 0.36196 0.90114 0.0
Sc446 Sc 0.87074 0.37112 0.11188 0.0
Sc447 Sc 0.83861 0.40053 0.14642 0.0
Sc448 Sc 0.82722 0.39867 0.09208 0.0
O449 O 0.8456 0.38995 0.11691 0.0
C450 C 0.87301 0.39674 0.06963 0.0
C451 C 0.88896 0.40566 0.14567 0.0
C452 C 0.83435 0.44155 0.11665 0.0
C453 C 0.85347 0.35265 0.15561 0.0
C454 C 0.83237 0.35006 0.08395 0.0
C455 C 0.79273 0.39183 0.12867 0.0
O456 O 0.88254 0.39084 0.08642 0.0
O457 O 0.87064 0.41214 0.15123 0.0
O458 O 0.83504 0.43138 0.099 0.0
O459 O 0.86178 0.34996 0.1373 0.0
O460 O 0.82004 0.36593 0.08548 0.0
O461 O 0.80635 0.38901 0.14339 0.0
O462 O 0.85193 0.35051 0.09017 0.0
O463 O 0.84564 0.37035 0.16155 0.0
O464 O 0.79789 0.39962 0.11057 0.0
O465 O 0.89154 0.38996 0.13291 0.0
O466 O 0.85276 0.39801 0.06864 0.0
O467 O 0.8313 0.43236 0.13466 0.0
Sc468 Sc 0.90053 0.59756 0.3638 0.0
Sc469 Sc 0.90198 0.65275 0.37456 0.0
Sc470 Sc 0.87033 0.618 0.40636 0.0
O471 O 0.8909 0.62279 0.3816 0.0
C472 C 0.85092 0.58607 0.37156 0.0
C473 C 0.89338 0.63274 0.3281 0.0
C474 C 0.85401 0.66231 0.38701 0.0
C475 C 0.9438 0.62559 0.36843 0.0
C476 C 0.90052 0.57725 0.41007 0.0
C477 C 0.90251 0.65277 0.42585 0.0
O478 O 0.86887 0.58331 0.36247 0.0
O479 O 0.89738 0.64842 0.3406 0.0
O480 O 0.85207 0.64601 0.39908 0.0
O481 O 0.93341 0.60854 0.36355 0.0
O482 O 0.8861 0.5895 0.41709 0.0
O483 O 0.90745 0.66057 0.40768 0.0
O484 O 0.90834 0.57902 0.39141 0.0
O485 O 0.93471 0.64292 0.37323 0.0
O486 O 0.89009 0.63652 0.4281 0.0
O487 O 0.89335 0.61338 0.33427 0.0
O488 O 0.84847 0.59915 0.38695 0.0
O489 O 0.87063 0.66608 0.37581 0.0
Sc490 Sc 0.90494 0.90005 0.88921 0.0
Sc491 Sc 0.86156 0.91554 0.92091 0.0
Sc492 Sc 0.87482 0.94437 0.87436 0.0
O493 O 0.88056 0.92008 0.89491 0.0
C494 C 0.92531 0.94583 0.87611 0.0
C495 C 0.90801 0.90479 0.93936 0.0
C496 C 0.86713 0.96579 0.92038 0.0
C497 C 0.86743 0.86804 0.90474 0.0
C498 C 0.8867 0.90658 0.8424 0.0
C499 C 0.828 0.9271 0.88462 0.0
O500 O 0.92656 0.92597 0.88035 0.0
O501 O 0.88809 0.90805 0.94151 0.0
O502 O 0.86885 0.96661 0.90009 0.0
O503 O 0.88603 0.87176 0.89713 0.0
O504 O 0.88008 0.92531 0.84612 0.0
O505 O 0.83232 0.9218 0.90373 0.0
O506 O 0.89515 0.89502 0.85667 0.0
O507 O 0.85606 0.88247 0.91304 0.0
O508 O 0.84187 0.9347 0.87174 0.0
O509 O 0.91693 0.90297 0.92122 0.0
O510 O 0.9076 0.95536 0.87456 0.0
O511 O 0.86551 0.9483 0.93063 0.0
Sc512 Sc 0.85815 0.13165 0.61963 0.0
Sc513 Sc 0.89304 0.17047 0.64206 0.0
Sc514 Sc 0.88812 0.11944 0.66585 0.0
O515 O 0.87977 0.14049 0.64255 0.0
C516 C 0.83789 0.10989 0.66133 0.0
C517 C 0.84442 0.17932 0.62939 0.0
C518 C 0.88413 0.16339 0.69173 0.0
C519 C 0.89331 0.15795 0.59274 0.0
C520 C 0.88592 0.08961 0.62423 0.0
C521 C 0.93297 0.1426 0.65562 0.0
O522 O 0.83663 0.11703 0.64235 0.0
O523 O 0.86291 0.18525 0.63587 0.0
O524 O 0.88476 0.14305 0.69087 0.0
O525 O 0.87743 0.14494 0.59408 0.0
O526 O 0.89236 0.09352 0.64322 0.0
O527 O 0.92479 0.15942 0.64809 0.0
O528 O 0.87367 0.10198 0.61404 0.0
O529 O 0.90077 0.1683 0.6087 0.0
O530 O 0.92181 0.12684 0.66258 0.0
O531 O 0.84013 0.16038 0.62307 0.0
O532 O 0.85531 0.10981 0.67189 0.0
O533 O 0.88679 0.17529 0.67544 0.0
Sc534 Sc 0.61873 0.08053 0.35931 0.0
Sc535 Sc 0.64282 0.10625 0.40363 0.0
Sc536 Sc 0.59778 0.12832 0.37948 0.0
O537 O 0.61973 0.10498 0.38084 0.0
C538 C 0.60705 0.1208 0.33039 0.0
C539 C 0.66847 0.09034 0.36226 0.0
C540 C 0.64101 0.15483 0.38976 0.0
C541 C 0.63186 0.05679 0.4028 0.0
C542 C 0.56965 0.08573 0.36987 0.0
C543 C 0.60181 0.12202 0.42948 0.0
O544 O 0.611 0.10102 0.33246 0.0
O545 O 0.66746 0.0966 0.38163 0.0
O546 O 0.62121 0.15382 0.38489 0.0
O547 O 0.62662 0.05672 0.38309 0.0
O548 O 0.57168 0.10573 0.37361 0.0
O549 O 0.62119 0.11622 0.42858 0.0
O550 O 0.58545 0.07392 0.3657 0.0
O551 O 0.6365 0.07384 0.41307 0.0
O552 O 0.59068 0.12576 0.41292 0.0
O553 O 0.65196 0.08522 0.35129 0.0
O554 O 0.60321 0.13304 0.34609 0.0
O555 O 0.65132 0.13866 0.39591 0.0
Sc556 Sc 0.62816 0.86365 0.0803 0.0
Sc557 Sc 0.58248 0.83777 0.1024 0.0
Sc558 Sc 0.60679 0.88178 0.12888 0.0
O559 O 0.6058 0.86106 0.10384 0.0
C560 C 0.65617 0.87272 0.12241 0.0
C561 C 0.62378 0.81318 0.08639 0.0
C562 C 0.59434 0.83745 0.15186 0.0
C563 C 0.5853 0.85284 0.05387 0.0
C564 C 0.61861 0.91254 0.08955 0.0
C565 C 0.55687 0.87805 0.11949 0.0
O566 O 0.65439 0.86826 0.1026 0.0
O567 O 0.60462 0.81339 0.09323 0.0
O568 O 0.60103 0.85682 0.15202 0.0
O569 O 0.60469 0.85941 0.05512 0.0
O570 O 0.61277 0.90924 0.10877 0.0
O571 O 0.55755 0.85937 0.11142 0.0
O572 O 0.62413 0.89757 0.07705 0.0
O573 O 0.57513 0.845 0.06971 0.0
O574 O 0.57341 0.88825 0.1261 0.0
O575 O 0.63437 0.83005 0.08147 0.0
O576 O 0.64028 0.87738 0.13403 0.0
O577 O 0.58745 0.82814 0.13503 0.0
Sc578 Sc 0.38548 0.62324 0.11621 0.0
Sc579 Sc 0.42546 0.65705 0.13808 0.0
Sc580 Sc 0.4023 0.61532 0.16922 0.0
O581 O 0.40441 0.63189 0.14123 0.0
C582 C 0.35346 0.61586 0.15551 0.0
C583 C 0.38367 0.67373 0.11418 0.0
C584 C 0.4069 0.66398 0.18502 0.0
C585 C 0.4296 0.63519 0.09264 0.0
C586 C 0.39981 0.57817 0.13383 0.0
C587 C 0.45264 0.62364 0.16475 0.0
O588 O 0.35765 0.61772 0.13572 0.0
O589 O 0.40223 0.67674 0.12224 0.0
O590 O 0.4021 0.64432 0.18816 0.0
O591 O 0.4107 0.6273 0.09314 0.0
O592 O 0.40211 0.58436 0.15317 0.0
O593 O 0.45119 0.64018 0.15308 0.0
O594 O 0.39453 0.59061 0.11875 0.0
O595 O 0.43773 0.64581 0.10809 0.0
O596 O 0.43641 0.61313 0.17158 0.0
O597 O 0.37499 0.6553 0.1118 0.0
O598 O 0.36791 0.61562 0.16982 0.0
O599 O 0.41527 0.67085 0.16775 0.0
Sc600 Sc 0.12065 0.58088 0.85268 0.0
Sc601 Sc 0.14657 0.60795 0.89556 0.0
Sc602 Sc 0.09483 0.6223 0.88024 0.0
O603 O 0.1207 0.60365 0.87611 0.0
C604 C 0.10029 0.62122 0.82952 0.0
C605 C 0.16928 0.59769 0.85104 0.0
C606 C 0.13354 0.65596 0.88767 0.0
C607 C 0.14173 0.55705 0.89254 0.0
C608 C 0.0721 0.57758 0.86819 0.0
C609 C 0.10752 0.61276 0.92826 0.0
O610 O 0.1094 0.60316 0.82887 0.0
O611 O 0.16939 0.60513 0.86998 0.0
O612 O 0.11386 0.65108 0.88498 0.0
O613 O 0.13207 0.5567 0.87453 0.0
O614 O 0.07214 0.59629 0.87612 0.0
O615 O 0.12733 0.61095 0.92408 0.0
O616 O 0.08846 0.5697 0.85936 0.0
O617 O 0.14768 0.57431 0.90187 0.0
O618 O 0.09351 0.616 0.91393 0.0
O619 O 0.1528 0.58887 0.84259 0.0
O620 O 0.09428 0.63 0.84683 0.0
O621 O 0.14776 0.64203 0.89069 0.0
Sc622 Sc 0.13916 0.35789 0.59249 0.0
Sc623 Sc 0.0908 0.33631 0.61333 0.0
Sc624 Sc 0.11471 0.38216 0.63676 0.0
O625 O 0.11491 0.35877 0.61418 0.0
C626 C 0.16396 0.37019 0.6358 0.0
C627 C 0.13168 0.3084 0.60278 0.0
C628 C 0.0989 0.34094 0.66329 0.0
C629 C 0.09775 0.34677 0.56395 0.0
C630 C 0.13124 0.40795 0.59571 0.0
C631 C 0.06551 0.37891 0.62425 0.0
O632 O 0.16366 0.36333 0.61659 0.0
O633 O 0.11221 0.31028 0.60819 0.0
O634 O 0.10611 0.36007 0.66183 0.0
O635 O 0.11735 0.35247 0.56601 0.0
O636 O 0.12338 0.40699 0.61443 0.0
O637 O 0.06625 0.35945 0.61838 0.0
O638 O 0.13735 0.39153 0.58555 0.0
O639 O 0.08615 0.34079 0.57962 0.0
O640 O 0.08187 0.38949 0.63071 0.0
O641 O 0.14351 0.3242 0.59716 0.0
O642 O 0.14745 0.37717 0.64512 0.0
O643 O 0.09312 0.32989 0.64709 0.0
Sc644 Sc 0.60348 0.63528 0.625 0.0
Sc645 Sc 0.63929 0.59367 0.63529 0.0
Sc646 Sc 0.64451 0.62419 0.58824 0.0
O647 O 0.62908 0.61772 0.6162 0.0
C648 C 0.59531 0.62769 0.57508 0.0
C649 C 0.58867 0.58894 0.6413 0.0
C650 C 0.64409 0.57294 0.58926 0.0
C651 C 0.62958 0.63065 0.66879 0.0
C652 C 0.63368 0.67127 0.60419 0.0
C653 C 0.68365 0.6145 0.6186 0.0
O654 O 0.58864 0.63203 0.59382 0.0
O655 O 0.6075 0.5817 0.64219 0.0
O656 O 0.64689 0.59086 0.57995 0.0
O657 O 0.6162 0.63996 0.65676 0.0
O658 O 0.64416 0.65824 0.59289 0.0
O659 O 0.67252 0.60241 0.63083 0.0
O660 O 0.61868 0.66533 0.61665 0.0
O661 O 0.6392 0.61373 0.66337 0.0
O662 O 0.67571 0.62452 0.60292 0.0
O663 O 0.58479 0.6078 0.63509 0.0
O664 O 0.61491 0.62453 0.57086 0.0
O665 O 0.64021 0.57129 0.60915 0.0
Sc666 Sc 0.31731 0.39328 0.39551 0.0
Sc667 Sc 0.34042 0.42055 0.35151 0.0
Sc668 Sc 0.36689 0.37753 0.3751 0.0
O669 O 0.34151 0.3971 0.37401 0.0
C670 C 0.35873 0.38597 0.42442 0.0
C671 C 0.32311 0.44385 0.39337 0.0
C672 C 0.38943 0.42283 0.36461 0.0
C673 C 0.29228 0.40301 0.35223 0.0
C674 C 0.3279 0.34496 0.3851 0.0
C675 C 0.35936 0.3815 0.32508 0.0
O676 O 0.33883 0.38902 0.42196 0.0
O677 O 0.32981 0.44409 0.37417 0.0
O678 O 0.38962 0.40331 0.37025 0.0
O679 O 0.29277 0.39713 0.37167 0.0
O680 O 0.34724 0.34939 0.38021 0.0
O681 O 0.3513 0.39997 0.32627 0.0
O682 O 0.31457 0.35921 0.39017 0.0
O683 O 0.30834 0.4112 0.34255 0.0
O684 O 0.36499 0.37093 0.34143 0.0
O685 O 0.31827 0.42671 0.40331 0.0
O686 O 0.37124 0.38232 0.40888 0.0
O687 O 0.37261 0.43188 0.35807 0.0
C688 C 0.06825 0.23722 0.31695 0.0
C689 C 0.05172 0.22223 0.3214 0.0
C690 C 0.08472 0.23211 0.30287 0.0
C691 C 0.10955 0.1875 0.2733 0.0
H692 H 0.115 0.22896 0.22733 0.0
C693 C 0.15031 0.16438 0.19547 0.0
C694 C 0.13681 0.16719 0.17767 0.0
C695 C 0.14659 0.17529 0.21459 0.0
C696 C 0.11385 0.21733 0.24015 0.0
H697 H 0.04035 0.18963 0.31586 0.0
H698 H 0.06905 0.18071 0.29125 0.0
H699 H 0.09579 0.23832 0.25989 0.0
H700 H 0.11034 0.18546 0.16532 0.0
H701 H 0.10377 0.2043 0.19865 0.0
H702 H 0.12637 0.16603 0.25305 0.0
C703 C 0.06934 0.1964 0.29868 0.0
C704 C 0.10302 0.22273 0.25887 0.0
C705 C 0.05282 0.20154 0.3127 0.0
C706 C 0.12093 0.18276 0.17875 0.0
C707 C 0.11722 0.19367 0.19788 0.0
C708 C 0.12044 0.18213 0.25462 0.0
C709 C 0.08506 0.21187 0.29307 0.0
C710 C 0.10008 0.20759 0.2753 0.0
C711 C 0.12937 0.18927 0.21627 0.0
C712 C 0.12201 0.19671 0.23753 0.0
H713 H 0.06794 0.25327 0.32354 0.0
H714 H 0.09677 0.24424 0.29905 0.0
H715 H 0.10774 0.17561 0.2858 0.0
H716 H 0.16295 0.15277 0.19511 0.0
H717 H 0.15648 0.17191 0.22839 0.0
C718 C 0.06958 0.81757 0.59308 0.0
C719 C 0.05511 0.83381 0.59795 0.0
C720 C 0.08392 0.82007 0.57608 0.0
C721 C 0.08147 0.84618 0.52483 0.0
H722 H 0.13541 0.81839 0.51401 0.0
C723 C 0.13464 0.83504 0.44595 0.0
C724 C 0.11853 0.8259 0.43278 0.0
C725 C 0.13189 0.83588 0.46817 0.0
C726 C 0.12045 0.82635 0.51694 0.0
H727 H 0.04646 0.86653 0.59101 0.0
H728 H 0.07174 0.87101 0.56162 0.0
H729 H 0.12329 0.82366 0.5511 0.0
H730 H 0.08804 0.80846 0.4328 0.0
H731 H 0.08329 0.81012 0.47138 0.0
H732 H 0.07813 0.84816 0.49088 0.0
C733 C 0.07155 0.85611 0.57047 0.0
C734 C 0.11352 0.82936 0.53805 0.0
C735 C 0.05708 0.85355 0.58731 0.0
C736 C 0.10061 0.81592 0.4424 0.0
C737 C 0.09785 0.81686 0.46448 0.0
C738 C 0.08825 0.84299 0.50391 0.0
C739 C 0.0841 0.83891 0.56382 0.0
C740 C 0.09373 0.83895 0.54215 0.0
C741 C 0.113 0.82764 0.4774 0.0
C742 C 0.10747 0.83257 0.49978 0.0
H743 H 0.06862 0.80224 0.60113 0.0
H744 H 0.09338 0.80652 0.57137 0.0
H745 H 0.06599 0.85327 0.52732 0.0
H746 H 0.14869 0.84281 0.43906 0.0
H747 H 0.14376 0.84424 0.47792 0.0
C748 C 0.43955 0.75581 0.79242 0.0
C749 C 0.43858 0.73759 0.80551 0.0
C750 C 0.42136 0.76248 0.78161 0.0
C751 C 0.37162 0.74549 0.75755 0.0
H752 H 0.36118 0.80642 0.75977 0.0
C753 C 0.35137 0.79528 0.68631 0.0
C754 C 0.34367 0.81606 0.68923 0.0
C755 C 0.35209 0.78108 0.70346 0.0
C756 C 0.36321 0.78925 0.75931 0.0
H757 H 0.41803 0.71158 0.81696 0.0
H758 H 0.38616 0.72311 0.7974 0.0
H759 H 0.38583 0.79085 0.78502 0.0
H760 H 0.32712 0.83686 0.7113 0.0
H761 H 0.32812 0.8119 0.74121 0.0
H762 H 0.34991 0.74413 0.73095 0.0
C763 C 0.401 0.73229 0.79589 0.0
C764 C 0.37761 0.78041 0.77365 0.0
C765 C 0.4192 0.72573 0.80699 0.0
C766 C 0.33362 0.82113 0.70866 0.0
C767 C 0.33425 0.80684 0.72583 0.0
C768 C 0.35717 0.75437 0.74309 0.0
C769 C 0.40187 0.75098 0.78348 0.0
C770 C 0.38282 0.75874 0.7721 0.0
C771 C 0.34504 0.78738 0.72384 0.0
C772 C 0.35378 0.77659 0.74303 0.0
H773 H 0.45423 0.76526 0.79091 0.0
H774 H 0.42252 0.77673 0.77176 0.0
H775 H 0.37528 0.72866 0.75621 0.0
H776 H 0.35873 0.79066 0.67135 0.0
H777 H 0.36038 0.7662 0.70119 0.0
C778 C 0.47928 0.24852 0.06599 0.0
C779 C 0.47099 0.26687 0.07564 0.0
C780 C 0.46791 0.23786 0.0498 0.0
C781 C 0.42381 0.24475 0.01063 0.0
H782 H 0.42847 0.18308 0.00583 0.0
C783 C 0.37902 0.19076 0.94753 0.0
C784 C 0.39356 0.17971 0.93464 0.0
C785 C 0.38616 0.20137 0.96606 0.0
C786 C 0.42694 0.20029 0.00712 0.0
H787 H 0.44418 0.28839 0.07605 0.0
H788 H 0.42395 0.26936 0.04827 0.0
H789 H 0.44512 0.20177 0.03605 0.0
H790 H 0.42672 0.17054 0.93125 0.0
H791 H 0.43895 0.18852 0.96386 0.0
H792 H 0.40534 0.24295 0.98164 0.0
C793 C 0.4395 0.26349 0.05279 0.0
C794 C 0.43664 0.21105 0.02427 0.0
C795 C 0.45106 0.27436 0.06878 0.0
C796 C 0.41519 0.17908 0.94079 0.0
C797 C 0.42218 0.18923 0.95948 0.0
C798 C 0.41378 0.23388 0.99364 0.0
C799 C 0.44777 0.24507 0.04312 0.0
C800 C 0.43569 0.23349 0.02595 0.0
C801 C 0.40777 0.20053 0.97218 0.0
C802 C 0.41572 0.21166 0.99153 0.0
H803 H 0.49469 0.24248 0.07081 0.0
H804 H 0.47507 0.22407 0.04237 0.0
H805 H 0.4229 0.26203 0.01125 0.0
H806 H 0.36227 0.19151 0.94308 0.0
H807 H 0.37483 0.21005 0.97571 0.0
C808 C 0.97855 0.79136 0.16157 0.0
C809 C 0.9835 0.7698 0.15785 0.0
C810 C 0.98959 0.80329 0.17717 0.0
C811 C 0.03945 0.80323 0.20948 0.0
H812 H 0.00825 0.84009 0.24796 0.0
C813 C 0.06744 0.82346 0.29397 0.0
C814 C 0.06729 0.84489 0.30084 0.0
C815 C 0.05855 0.81758 0.27434 0.0
C816 C 0.01721 0.83018 0.23706 0.0
H817 H 0.00367 0.74378 0.16786 0.0
H818 H 0.02249 0.76436 0.19536 0.0
H819 H 0.98959 0.823 0.21778 0.0
H820 H 0.0578 0.87703 0.29256 0.0
H821 H 0.0415 0.86646 0.25811 0.0
H822 H 0.06675 0.80955 0.22946 0.0
C823 C 0.01047 0.77225 0.18586 0.0
C824 C 0.00656 0.82037 0.2198 0.0
C825 C -0.00045 0.76038 0.17021 0.0
C826 C 0.05812 0.8604 0.2876 0.0
C827 C 0.0488 0.85439 0.26801 0.0
C828 C 0.04999 0.81285 0.2268 0.0
C829 C 0.00575 0.79389 0.18942 0.0
C830 C 0.01745 0.80631 0.20619 0.0
C831 C 0.04906 0.83292 0.26125 0.0
C832 C 0.03882 0.82593 0.24104 0.0
H833 H 0.96634 0.79915 0.15223 0.0
H834 H 0.98568 0.81996 0.17941 0.0
H835 H 0.04843 0.79295 0.19897 0.0
H836 H 0.07457 0.81117 0.30372 0.0
H837 H 0.05873 0.80089 0.26958 0.0
C838 C 0.50433 0.82414 0.44999 0.0
C839 C 0.48742 0.81028 0.44362 0.0
C840 C 0.50144 0.83883 0.46662 0.0
C841 C 0.4595 0.86711 0.49541 0.0
H842 H 0.49504 0.86254 0.54608 0.0
C843 C 0.42595 0.89559 0.57307 0.0
C844 C 0.42507 0.8785 0.58768 0.0
C845 C 0.44094 0.89578 0.55651 0.0
C846 C 0.48518 0.8643 0.53195 0.0
H847 H 0.45427 0.80099 0.44946 0.0
H848 H 0.44918 0.82669 0.47822 0.0
H849 H 0.50599 0.8453 0.51275 0.0
H850 H 0.44109 0.84985 0.59817 0.0
H851 H 0.46661 0.84977 0.56905 0.0
H852 H 0.43778 0.88446 0.51465 0.0
C853 C 0.46462 0.82629 0.47034 0.0
C854 C 0.49151 0.85455 0.51287 0.0
C855 C 0.46758 0.81145 0.45401 0.0
C856 C 0.4411 0.86307 0.58697 0.0
C857 C 0.45594 0.86315 0.57031 0.0
C858 C 0.4532 0.87685 0.51436 0.0
C859 C 0.48148 0.8401 0.47678 0.0
C860 C 0.47808 0.85492 0.49483 0.0
C861 C 0.45513 0.87876 0.55415 0.0
C862 C 0.46535 0.87454 0.53317 0.0
H863 H 0.51982 0.8235 0.44225 0.0
H864 H 0.51468 0.84926 0.47145 0.0
H865 H 0.44906 0.86784 0.48156 0.0
H866 H 0.41416 0.90805 0.57351 0.0
H867 H 0.4403 0.90834 0.54461 0.0
C868 C 0.4165 0.17386 0.64858 0.0
C869 C 0.40432 0.19224 0.65197 0.0
C870 C 0.41363 0.15591 0.66162 0.0
C871 C 0.38174 0.13393 0.7076 0.0
H872 H 0.43811 0.12446 0.73154 0.0
C873 C 0.41841 0.13273 0.79484 0.0
C874 C 0.40441 0.11856 0.80558 0.0
C875 C 0.41922 0.13283 0.77256 0.0
C876 C 0.42227 0.1266 0.72486 0.0
H877 H 0.37788 0.20527 0.66991 0.0
H878 H 0.37327 0.17432 0.69298 0.0
H879 H 0.43497 0.14066 0.69642 0.0
H880 H 0.38106 0.09258 0.80145 0.0
H881 H 0.38226 0.09307 0.76233 0.0
H882 H 0.36918 0.12157 0.73703 0.0
C883 C 0.38492 0.17356 0.68019 0.0
C884 C 0.42041 0.1357 0.70461 0.0
C885 C 0.38767 0.19145 0.66705 0.0
C886 C 0.39206 0.10368 0.79361 0.0
C887 C 0.39266 0.10398 0.77124 0.0
C888 C 0.38362 0.12482 0.7279 0.0
C889 C 0.39866 0.15608 0.67838 0.0
C890 C 0.40015 0.14059 0.69628 0.0
C891 C 0.40588 0.11891 0.76052 0.0
C892 C 0.40393 0.12224 0.73717 0.0
H893 H 0.42916 0.17381 0.63675 0.0
H894 H 0.42414 0.14248 0.65952 0.0
H895 H 0.36592 0.13716 0.70143 0.0
H896 H 0.42819 0.14429 0.80363 0.0
H897 H 0.42936 0.14474 0.76475 0.0
C898 C 0.01269 0.16076 0.92377 0.0
C899 C 0.02623 0.17895 0.92185 0.0
C900 C 0.01984 0.14241 0.93413 0.0
C901 C 0.06831 0.11844 0.95909 0.0
H902 H 0.02887 0.10399 0.00495 0.0
C903 C 0.07506 0.11279 0.05291 0.0
C904 C 0.09486 0.10268 0.05472 0.0
C905 C 0.06339 0.11153 0.0339 0.0
C906 C 0.04003 0.1076 0.99213 0.0
H907 H 0.05835 0.19156 0.92761 0.0
H908 H 0.07067 0.15996 0.94593 0.0
H909 H 0.01594 0.12273 0.97362 0.0
H910 H 0.1166 0.0811 0.03886 0.0
H911 H 0.09604 0.07876 0.00569 0.0
H912 H 0.09285 0.10542 0.97857 0.0
C913 C 0.05462 0.15959 0.93931 0.0
C914 C 0.03256 0.11815 0.974 0.0
C915 C 0.04748 0.17787 0.92899 0.0
C916 C 0.10159 0.08943 0.03788 0.0
C917 C 0.08984 0.08811 0.01883 0.0
C918 C 0.07582 0.10812 0.97732 0.0
C919 C 0.04066 0.14192 0.9427 0.0
C920 C 0.04693 0.12492 0.95793 0.0
C921 C 0.07117 0.10002 0.01625 0.0
C922 C 0.06202 0.10387 0.99465 0.0
H923 H -0.00374 0.16105 0.91821 0.0
H924 H 0.00879 0.12897 0.93624 0.0
H925 H 0.07965 0.12291 0.94669 0.0
H926 H 0.0692 0.12288 0.06565 0.0
H927 H 0.04918 0.12107 0.03255 0.0
C928 C 0.3456 0.09588 0.20712 0.0
C929 C 0.35689 0.07839 0.19923 0.0
C930 C 0.33699 0.11069 0.19301 0.0
C931 C 0.31575 0.10624 0.13874 0.0
H932 H 0.28651 0.15692 0.15783 0.0
C933 C 0.23175 0.1226 0.10869 0.0
C934 C 0.21752 0.12251 0.12614 0.0
C935 C 0.25367 0.12627 0.1119 0.0
C936 C 0.29479 0.143 0.15202 0.0
H937 H 0.37139 0.06468 0.17101 0.0
H938 H 0.35735 0.09119 0.14641 0.0
H939 H 0.32097 0.14808 0.17368 0.0
H940 H 0.21492 0.12793 0.16036 0.0
H941 H 0.25312 0.13411 0.16596 0.0
H942 H 0.28917 0.10062 0.11784 0.0
C943 C 0.35405 0.09289 0.16333 0.0
C944 C 0.31447 0.13784 0.16116 0.0
C945 C 0.36222 0.07775 0.17742 0.0
C946 C 0.22548 0.12756 0.14662 0.0
C947 C 0.24734 0.13144 0.14979 0.0
C948 C 0.29633 0.1116 0.12939 0.0
C949 C 0.33984 0.10846 0.17074 0.0
C950 C 0.32433 0.11847 0.15582 0.0
C951 C 0.26173 0.13019 0.13257 0.0
C952 C 0.28497 0.12917 0.13702 0.0
H953 H 0.34147 0.09694 0.22393 0.0
H954 H 0.32627 0.1224 0.19955 0.0
H955 H 0.32264 0.09119 0.13404 0.0
H956 H 0.22611 0.11897 0.09265 0.0
H957 H 0.26444 0.12521 0.09838 0.0
C958 C 0.25693 0.03661 0.45432 0.0
C959 C 0.25082 0.04964 0.47153 0.0
C960 C 0.24338 0.02003 0.44709 0.0
C961 C 0.18681 0.00206 0.44666 0.0
H962 H 0.21076 0.94784 0.42976 0.0
C963 C 0.15985 0.91138 0.41644 0.0
C964 C 0.14536 0.91638 0.40003 0.0
C965 C 0.17085 0.92758 0.42754 0.0
C966 C 0.20374 0.96279 0.43465 0.0
H967 H 0.22577 0.05526 0.49484 0.0
H968 H 0.20227 0.02617 0.48232 0.0
H969 H 0.2341 0.97577 0.44466 0.0
H970 H 0.13015 0.94235 0.38324 0.0
H971 H 0.14969 0.97076 0.40248 0.0
H972 H 0.15637 0.98893 0.43673 0.0
C973 C 0.21742 0.02898 0.47426 0.0
C974 C 0.21718 0.97889 0.44294 0.0
C975 C 0.23097 0.04555 0.48151 0.0
C976 C 0.14121 0.93799 0.3958 0.0
C977 C 0.15237 0.95426 0.40686 0.0
C978 C 0.17332 0.98592 0.43834 0.0
C979 C 0.22343 0.01611 0.45691 0.0
C980 C 0.20892 -0.00124 0.44888 0.0
C981 C 0.16776 0.94917 0.42241 0.0
C982 C 0.18167 0.96613 0.43216 0.0
H983 H 0.27206 0.03936 0.44622 0.0
H984 H 0.24837 0.01055 0.43351 0.0
H985 H 0.17999 0.01729 0.45094 0.0
H986 H 0.16314 0.89487 0.42034 0.0
H987 H 0.1822 0.92315 0.4398 0.0
C988 C 0.15523 0.95405 0.65227 0.0
C989 C 0.14056 0.94518 0.6669 0.0
C990 C 0.16632 0.94084 0.63832 0.0
C991 C 0.18496 0.8856 0.6397 0.0
H992 H 0.22179 0.90968 0.59565 0.0
C993 C 0.2738 0.87948 0.64477 0.0
C994 C 0.28712 0.88094 0.62674 0.0
C995 C 0.25165 0.87991 0.64256 0.0
C996 C 0.21143 0.90224 0.60751 0.0
H997 H 0.12367 0.91608 0.67647 0.0
H998 H 0.14222 0.89306 0.65135 0.0
H999 H 0.18684 0.92481 0.6018 0.0
H1000 H 0.28749 0.88276 0.59202 0.0
H1001 H 0.24855 0.88352 0.58818 0.0
H1002 H 0.20958 0.86312 0.64543 0.0
C1003 C 0.14606 0.91005 0.65132 0.0
C1004 C 0.19145 0.91116 0.61129 0.0
C1005 C 0.13535 0.92323 0.66568 0.0
C1006 C 0.27768 0.88185 0.60628 0.0
C1007 C 0.25538 0.88226 0.60406 0.0
C1008 C 0.20464 0.87637 0.63555 0.0
C1009 C 0.16268 0.91847 0.63842 0.0
C1010 C 0.17886 0.90418 0.62872 0.0
C1011 C 0.24213 0.88168 0.62223 0.0
C1012 C 0.21885 0.8858 0.62074 0.0
H1013 H 0.15945 0.97096 0.65274 0.0
H1014 H 0.17902 0.94813 0.62888 0.0
H1015 H 0.17577 0.87939 0.65306 0.0
H1016 H 0.28044 0.87862 0.66077 0.0
H1017 H 0.24206 0.87993 0.65699 0.0
C1018 C 0.24823 0.95516 0.98543 0.0
C1019 C 0.26071 0.93673 0.98531 0.0
C1020 C 0.25801 0.97547 0.98411 0.0
C1021 C 0.31132 0.00355 0.98826 0.0
H1022 H 0.28556 0.04397 0.94947 0.0
C1023 C 0.35722 0.065 0.93697 0.0
C1024 C 0.34772 0.08473 0.93263 0.0
C1025 C 0.34689 0.05001 0.95014 0.0
C1026 C 0.29275 0.03308 0.96074 0.0
H1027 H 0.29312 0.92501 0.98362 0.0
H1028 H 0.31006 0.96017 0.98047 0.0
H1029 H 0.266 0.0113 0.95886 0.0
H1030 H 0.32095 0.105 0.94041 0.0
H1031 H 0.30287 0.07865 0.96317 0.0
H1032 H 0.3387 0.02488 0.98885 0.0
C1033 C 0.29282 0.95915 0.98229 0.0
C1034 C 0.28153 0.01433 0.96615 0.0
C1035 C 0.28308 0.93894 0.98384 0.0
C1036 C 0.32864 0.08988 0.94325 0.0
C1037 C 0.31822 0.0748 0.95624 0.0
C1038 C 0.32265 0.02222 0.98262 0.0
C1039 C 0.28043 0.97768 0.98243 0.0
C1040 C 0.29094 -0.00098 0.97944 0.0
C1041 C 0.32683 0.05444 0.95908 0.0
C1042 C 0.31367 0.03685 0.96836 0.0
H1043 H 0.23095 0.9539 0.98677 0.0
H1044 H 0.24801 0.98941 0.98447 0.0
H1045 H 0.31882 0.99234 -0.00103 0.0
H1046 H 0.37201 0.06062 0.92923 0.0
H1047 H 0.35385 0.03438 0.952 0.0
C1048 C 0.27817 0.0021 0.26152 0.0
C1049 C 0.29156 -0.00319 0.24438 0.0
C1050 C 0.25975 0.98965 0.26569 0.0
C1051 C 0.21773 0.9638 0.26734 0.0
H1052 H 0.22852 0.90285 0.26498 0.0
C1053 C 0.15464 0.90246 0.29583 0.0
C1054 C 0.16238 0.88772 0.31084 0.0
C1055 C 0.16881 0.91444 0.28317 0.0
C1056 C 0.22524 0.9198 0.26563 0.0
H1057 H 0.29533 0.97577 0.21703 0.0
H1058 H 0.26305 0.95443 0.22403 0.0
H1059 H 0.25548 0.92827 0.25179 0.0
H1060 H 0.19098 0.87275 0.32299 0.0
H1061 H 0.2157 0.89374 0.30095 0.0
H1062 H 0.1879 0.95531 0.28214 0.0
C1063 C 0.26702 0.9677 0.23462 0.0
C1064 C 0.24057 0.93438 0.25789 0.0
C1065 C 0.28543 0.97998 0.23057 0.0
C1066 C 0.18448 0.88399 0.31165 0.0
C1067 C 0.19866 0.89601 0.29897 0.0
C1068 C 0.20237 0.9492 0.27506 0.0
C1069 C 0.25443 0.97188 0.25268 0.0
C1070 C 0.23714 0.95655 0.25899 0.0
C1071 C 0.19099 0.9119 0.28519 0.0
C1072 C 0.20614 0.92707 0.27464 0.0
H1073 H 0.28257 0.01501 0.27239 0.0
H1074 H 0.25039 0.99322 0.27979 0.0
H1075 H 0.21459 0.98077 0.26824 0.0
H1076 H 0.13767 0.90552 0.29455 0.0
H1077 H 0.16244 0.92626 0.27235 0.0
C1078 C 0.35018 0.07322 0.54515 0.0
C1079 C 0.33189 0.0858 0.54673 0.0
C1080 C 0.35886 0.06387 0.5634 0.0
C1081 C 0.33871 0.04253 0.61341 0.0
H1082 H 0.39685 0.02239 0.61745 0.0
C1083 C 0.35399 0.96192 0.65162 0.0
C1084 C 0.36349 0.94865 0.6363 0.0
C1085 C 0.35538 0.98422 0.64947 0.0
C1086 C 0.38061 0.02812 0.61683 0.0
H1087 H 0.30973 0.10032 0.56894 0.0
H1088 H 0.32499 0.08407 0.60077 0.0
H1089 H 0.38943 0.05415 0.59616 0.0
H1090 H 0.38371 0.94815 0.6081 0.0
H1091 H 0.386 0.9867 0.60426 0.0
H1092 H 0.32957 0.01566 0.63262 0.0
C1093 C 0.33234 0.08108 0.58539 0.0
C1094 C 0.37635 0.04624 0.6046 0.0
C1095 C 0.32359 0.09035 0.56713 0.0
C1096 C 0.37589 0.95799 0.61994 0.0
C1097 C 0.37749 0.98015 0.61794 0.0
C1098 C 0.34297 0.02445 0.62562 0.0
C1099 C 0.3495 0.06701 0.58361 0.0
C1100 C 0.35515 0.05277 0.60165 0.0
C1101 C 0.36656 0.99351 0.63216 0.0
C1102 C 0.36372 0.01625 0.62626 0.0
H1103 H 0.35707 0.06955 0.5297 0.0
H1104 H 0.37195 0.05295 0.56137 0.0
H1105 H 0.32217 0.04706 0.61149 0.0
H1106 H 0.34448 0.9551 0.6645 0.0
H1107 H 0.34688 0.99416 0.66071 0.0
C1108 C 0.18095 0.00924 0.77575 0.0
C1109 C 0.1808 0.00993 0.75326 0.0
C1110 C 0.19757 0.01925 0.78728 0.0
C1111 C 0.25257 0.03474 0.78771 0.0
H1112 H 0.23791 0.08603 0.81911 0.0
C1113 C 0.31848 0.08873 0.82436 0.0
C1114 C 0.31442 0.09885 0.84395 0.0
C1115 C 0.30192 0.07846 0.81307 0.0
C1116 C 0.2423 0.07155 0.81078 0.0
H1117 H 0.19829 0.0207 0.72518 0.0
H1118 H 0.22785 0.03744 0.74545 0.0
H1119 H 0.20986 0.06514 0.80082 0.0
H1120 H 0.28998 0.10649 0.8671 0.0
H1121 H 0.26112 0.08766 0.84798 0.0
H1122 H 0.28473 0.04033 0.79817 0.0
C1123 C 0.21488 0.02949 0.75403 0.0
C1124 C 0.22622 0.0597 0.80024 0.0
C1125 C 0.19802 0.01995 0.7425 0.0
C1126 C 0.29343 0.09896 0.85188 0.0
C1127 C 0.2769 0.0882 0.84085 0.0
C1128 C 0.26858 0.04628 0.79864 0.0
C1129 C 0.21451 0.02959 0.77647 0.0
C1130 C 0.23131 0.04136 0.7885 0.0
C1131 C 0.28099 0.07753 0.82141 0.0
C1132 C 0.26374 0.06502 0.81013 0.0
H1133 H 0.16777 0.00179 0.78444 0.0
H1134 H 0.19708 0.01918 0.80462 0.0
H1135 H 0.25673 0.02053 0.77878 0.0
H1136 H 0.33456 0.08863 0.81783 0.0
H1137 H 0.30566 0.07109 0.79786 0.0
C1138 C 0.17392 0.89513 0.04961 0.0
C1139 C 0.19365 0.88518 0.05263 0.0
C1140 C 0.16556 0.90808 0.06567 0.0
C1141 C 0.19025 0.94385 0.10399 0.0
H1142 H 0.13252 0.96508 0.10853 0.0
C1143 C 0.14825 0.02737 0.13019 0.0
C1144 C 0.15851 0.04087 0.11518 0.0
C1145 C 0.15054 0.00515 0.12904 0.0
C1146 C 0.14867 0.95912 0.10781 0.0
H1147 H 0.21821 0.87793 0.07595 0.0
H1148 H 0.2034 0.90023 0.10412 0.0
H1149 H 0.13806 0.92809 0.09682 0.0
H1150 H 0.17931 0.04178 0.0874 0.0
H1151 H 0.18366 0.00313 0.08574 0.0
H1152 H 0.20089 0.97524 0.11352 0.0
C1153 C 0.19475 0.89862 0.08913 0.0
C1154 C 0.15186 0.93804 0.10105 0.0
C1155 C 0.20321 0.88582 0.07301 0.0
C1156 C 0.17116 0.0318 0.09913 0.0
C1157 C 0.17377 0.00973 0.09827 0.0
C1158 C 0.18706 0.96485 0.11055 0.0
C1159 C 0.17675 0.91114 0.08504 0.0
C1160 C 0.17274 0.93053 0.0981 0.0
C1161 C 0.16352 -0.00376 0.1132 0.0
C1162 C 0.16633 0.97292 0.11155 0.0
H1163 H 0.16602 0.89471 0.03416 0.0
H1164 H 0.15163 0.91741 0.06195 0.0
H1165 H 0.20657 0.93878 0.10172 0.0
H1166 H 0.13829 0.03396 0.14266 0.0
H1167 H 0.14243 0.99496 0.14063 0.0
C1168 C 0.28149 0.29079 0.03482 0.0
C1169 C 0.27639 0.30934 0.02338 0.0
C1170 C 0.2657 0.27535 0.03945 0.0
C1171 C 0.23263 0.23964 0.03557 0.0
H1172 H 0.17646 0.25604 0.05543 0.0
C1173 C 0.16843 0.17567 0.0526 0.0
C1174 C 0.1578 0.17754 0.0723 0.0
C1175 C 0.18015 0.19295 0.04422 0.0
C1176 C 0.19208 0.25123 0.04992 0.0
H1177 H 0.25061 0.32623 0.00786 0.0
H1178 H 0.22308 0.29909 0.01578 0.0
H1179 H 0.20316 0.28373 0.04624 0.0
H1180 H 0.14999 0.19938 0.09802 0.0
H1181 H 0.17088 0.22952 0.08359 0.0
H1182 H 0.22203 0.20725 0.03994 0.0
C1183 C 0.23928 0.29665 0.02136 0.0
C1184 C 0.2073 0.26707 0.04448 0.0
C1185 C 0.25509 0.31213 0.01672 0.0
C1186 C 0.158 0.19747 0.08279 0.0
C1187 C 0.16994 0.21475 0.07448 0.0
C1188 C 0.21749 0.22386 0.041 0.0
C1189 C 0.24444 0.27806 0.03271 0.0
C1190 C 0.22782 0.26141 0.03749 0.0
C1191 C 0.18171 0.21243 0.05547 0.0
C1192 C 0.19709 0.22944 0.04839 0.0
H1193 H 0.2977 0.28818 0.0403 0.0
H1194 H 0.27012 0.26136 0.04854 0.0
H1195 H 0.24819 0.23475 0.02996 0.0
H1196 H 0.16829 0.16061 0.04395 0.0
H1197 H 0.18858 0.19081 0.02926 0.0
C1198 C 0.65807 0.14753 0.89695 0.0
C1199 C 0.67913 0.14104 0.90068 0.0
C1200 C 0.65314 0.15888 0.87844 0.0
C1201 C 0.68266 0.19971 0.85134 0.0
H1202 H 0.62639 0.21237 0.82914 0.0
C1203 C 0.65884 0.28654 0.84404 0.0
C1204 C 0.63914 0.29031 0.85409 0.0
C1205 C 0.66408 0.26584 0.83756 0.0
C1206 C 0.64228 0.20907 0.83508 0.0
H1207 H 0.71053 0.13783 0.88636 0.0
H1208 H 0.70193 0.1578 0.85409 0.0
H1209 H 0.63473 0.17564 0.83889 0.0
H1210 H 0.60891 0.27549 0.8638 0.0
H1211 H 0.6183 0.23966 0.85351 0.0
H1212 H 0.68964 0.23315 0.84982 0.0
C1213 C 0.68933 0.15447 0.8656 0.0
C1214 C 0.64709 0.18798 0.84047 0.0
C1215 C 0.69424 0.14301 0.8841 0.0
C1216 C 0.62431 0.2732 0.85628 0.0
C1217 C 0.62962 0.25255 0.85005 0.0
C1218 C 0.67778 0.22076 0.84622 0.0
C1219 C 0.66925 0.164 0.86346 0.0
C1220 C 0.66685 0.18337 0.85001 0.0
C1221 C 0.64984 0.24843 0.84123 0.0
C1222 C 0.65704 0.22591 0.83945 0.0
H1223 H 0.64597 0.14588 0.90929 0.0
H1224 H 0.63745 0.16586 0.87728 0.0
H1225 H 0.69804 0.1968 0.8587 0.0
H1226 H 0.67048 0.29944 0.84174 0.0
H1227 H 0.67964 0.26335 0.83045 0.0
C1228 C 0.04262 0.51459 0.20826 0.0
C1229 C 0.04698 0.51128 0.23006 0.0
C1230 C 0.02562 0.50362 0.1983 0.0
C1231 C 0.99315 0.4544 0.20291 0.0
H1232 H 0.95382 0.4829 0.16484 0.0
C1233 C 0.92854 0.40894 0.15273 0.0
C1234 C 0.90793 0.41747 0.1541 0.0
C1235 C 0.94625 0.42037 0.16093 0.0
C1236 C 0.96472 0.47475 0.17542 0.0
H1237 H 0.03655 0.49447 0.25871 0.0
H1238 H 0.00682 0.47535 0.24127 0.0
H1239 H 0.98279 0.50355 0.182 0.0
H1240 H 0.88984 0.44486 0.16478 0.0
H1241 H 0.92063 0.46462 0.17895 0.0
H1242 H 0.97488 0.42565 0.19656 0.0
C1243 C 0.01672 0.48624 0.23187 0.0
C1244 C 0.98133 0.48652 0.18512 0.0
C1245 C 0.03362 0.49731 0.24187 0.0
C1246 C 0.90545 0.43772 0.16357 0.0
C1247 C 0.92311 0.44917 0.17153 0.0
C1248 C 0.97664 0.44259 0.19308 0.0
C1249 C 0.01277 0.48906 0.20993 0.0
C1250 C -0.00447 0.4765 0.19915 0.0
C1251 C 0.94365 0.44061 0.17035 0.0
C1252 C 0.96212 0.45272 0.17946 0.0
H1253 H 0.05266 0.52526 0.19876 0.0
H1254 H 0.02294 0.50603 0.18134 0.0
H1255 H 0.00407 0.44624 0.21346 0.0
H1256 H 0.93096 0.3934 0.14552 0.0
H1257 H 0.96198 0.41349 0.15976 0.0
C1258 C 0.79004 0.81607 0.47991 0.0
C1259 C 0.80619 0.81799 0.49559 0.0
C1260 C 0.79143 0.80088 0.46358 0.0
C1261 C 0.82988 0.7687 0.43425 0.0
H1262 H 0.78203 0.72935 0.42375 0.0
C1263 C 0.82306 0.67876 0.40579 0.0
C1264 C 0.83845 0.67972 0.38937 0.0
C1265 C 0.81355 0.69744 0.41307 0.0
C1266 C 0.79539 0.74041 0.42631 0.0
H1267 H 0.83654 0.80559 0.50633 0.0
H1268 H 0.83906 0.77912 0.47763 0.0
H1269 H 0.77808 0.75891 0.44918 0.0
H1270 H 0.8531 0.7004 0.36534 0.0
H1271 H 0.83638 0.73289 0.37802 0.0
H1272 H 0.84755 0.74985 0.41224 0.0
C1273 C 0.82536 0.78946 0.47802 0.0
C1274 C 0.79314 0.75731 0.44079 0.0
C1275 C 0.82385 0.8045 0.4945 0.0
C1276 C 0.84172 0.69916 0.37837 0.0
C1277 C 0.8322 0.71782 0.38566 0.0
C1278 C 0.83208 0.75198 0.41967 0.0
C1279 C 0.80913 0.78749 0.46245 0.0
C1280 C 0.81059 0.7712 0.44534 0.0
C1281 C 0.81918 0.71733 0.40397 0.0
C1282 C 0.81506 0.7373 0.41597 0.0
H1283 H 0.77617 0.82619 0.48031 0.0
H1284 H 0.77877 0.79973 0.45173 0.0
H1285 H 0.84348 0.77936 0.43728 0.0
H1286 H 0.81987 0.66401 0.41442 0.0
H1287 H 0.80348 0.69651 0.42716 0.0
C1288 C 0.94049 0.00914 0.22453 0.0
C1289 C 0.93869 0.98776 0.21754 0.0
C1290 C 0.95759 0.02227 0.21778 0.0
C1291 C 0.98854 0.04955 0.19117 0.0
H1292 H 0.04497 0.02516 0.18693 0.0
C1293 C 0.05934 0.09223 0.14821 0.0
C1294 C 0.07989 0.0903 0.15717 0.0
C1295 C 0.0419 0.08065 0.1566 0.0
C1296 C 0.02937 0.0323 0.18824 0.0
H1297 H 0.95332 0.9635 0.19774 0.0
H1298 H 0.98287 0.98643 0.18579 0.0
H1299 H 0.0151 0.00321 0.19993 0.0
H1300 H 0.09803 0.07513 0.18244 0.0
H1301 H 0.06759 0.05525 0.19719 0.0
H1302 H 0.00296 0.07878 0.17979 0.0
C1303 C 0.9713 0.99296 0.19678 0.0
C1304 C 0.01219 0.01963 0.19543 0.0
C1305 C 0.95427 0.97985 0.20356 0.0
C1306 C 0.08248 0.07689 0.175 0.0
C1307 C 0.06504 0.06539 0.18342 0.0
C1308 C 0.00576 0.06226 0.184 0.0
C1309 C 0.97322 0.01429 0.20389 0.0
C1310 C 0.99155 0.02805 0.19683 0.0
C1311 C 0.04461 0.06694 0.17416 0.0
C1312 C 0.02636 0.05374 0.18237 0.0
H1313 H 0.92878 0.01573 0.23534 0.0
H1314 H 0.95874 0.03856 0.22371 0.0
H1315 H 0.97279 0.05646 0.19191 0.0
H1316 H 0.05676 0.10237 0.13444 0.0
H1317 H 0.02642 0.08202 0.14894 0.0
C1318 C 0.23969 0.72058 0.48512 0.0
C1319 C 0.22786 0.70538 0.49699 0.0
C1320 C 0.2534 0.73525 0.49547 0.0
C1321 C 0.26817 0.757 0.54933 0.0
H1322 H 0.32283 0.7688 0.52181 0.0
C1323 C 0.33909 0.79711 0.59372 0.0
C1324 C 0.34609 0.81633 0.58413 0.0
C1325 C 0.32585 0.78273 0.58242 0.0
C1326 C 0.30761 0.76559 0.52961 0.0
H1327 H 0.22026 0.69427 0.52902 0.0
H1328 H 0.24463 0.71917 0.54697 0.0
H1329 H 0.2958 0.74667 0.50345 0.0
H1330 H 0.34611 0.83494 0.55485 0.0
H1331 H 0.32347 0.80943 0.53491 0.0
H1332 H 0.28042 0.77544 0.57575 0.0
C1333 C 0.24312 0.72019 0.52974 0.0
C1334 C 0.29202 0.75313 0.51906 0.0
C1335 C 0.22918 0.70579 0.51942 0.0
C1336 C 0.34086 0.82025 0.56262 0.0
C1337 C 0.32798 0.80568 0.55121 0.0
C1338 C 0.2839 0.76912 0.56 0.0
C1339 C 0.25577 0.7348 0.51787 0.0
C1340 C 0.27207 0.74871 0.52878 0.0
C1341 C 0.31982 0.78718 0.56125 0.0
C1342 C 0.30372 0.7735 0.55022 0.0
H1343 H 0.23883 0.72076 0.4678 0.0
H1344 H 0.26245 0.74665 0.48585 0.0
H1345 H 0.25289 0.7543 0.55715 0.0
H1346 H 0.34278 0.79376 0.61032 0.0
H1347 H 0.31982 0.76844 0.59039 0.0
C1348 C 0.11184 0.57175 0.3277 0.0
C1349 C 0.10804 0.57734 0.3063 0.0
C1350 C 0.10448 0.58471 0.34431 0.0
C1351 C 0.06889 0.63233 0.35331 0.0
H1352 H 0.03737 0.58978 0.38632 0.0
C1353 C 0.97996 0.64283 0.37567 0.0
C1354 C 0.96747 0.62479 0.3695 0.0
C1355 C 0.0023 0.64164 0.37701 0.0
C1356 C 0.04611 0.60198 0.37739 0.0
H1357 H 0.09655 0.60232 0.28544 0.0
H1358 H 0.08273 0.62405 0.31384 0.0
H1359 H 0.07195 0.58118 0.37208 0.0
H1360 H 0.96874 0.59131 0.3602 0.0
H1361 H 0.00727 0.5894 0.36202 0.0
H1362 H 0.04145 0.65202 0.3565 0.0
C1363 C 0.09155 0.61003 0.31831 0.0
C1364 C 0.06626 0.59719 0.36941 0.0
C1365 C 0.09929 0.59734 0.3018 0.0
C1366 C 0.97777 0.60555 0.36498 0.0
C1367 C -6e-05 0.60436 0.36635 0.0
C1368 C 0.04843 0.63691 0.36089 0.0
C1369 C 0.09261 0.60309 0.33974 0.0
C1370 C 0.07706 0.61159 0.3556 0.0
C1371 C 0.01252 0.62235 0.37236 0.0
C1372 C 0.0362 0.62104 0.37146 0.0
H1373 H 0.11915 0.55668 0.33164 0.0
H1374 H 0.10649 0.5793 0.36063 0.0
H1375 H 0.07725 0.64427 0.34373 0.0
H1376 H 0.97252 0.65789 0.37941 0.0
H1377 H 0.01157 0.65579 0.38159 0.0
C1378 C 0.40629 0.40928 0.84304 0.0
C1379 C 0.40816 0.42949 0.83342 0.0
C1380 C 0.41792 0.40474 0.86155 0.0
C1381 C 0.45862 0.4286 0.90024 0.0
H1382 H 0.48382 0.37299 0.89254 0.0
C1383 C 0.54708 0.4107 0.90456 0.0
C1384 C 0.55339 0.38957 0.90843 0.0
C1385 C 0.52569 0.41632 0.90701 0.0
C1386 C 0.47668 0.38837 0.89549 0.0
H1387 H 0.42242 0.46128 0.83623 0.0
H1388 H 0.44384 0.4531 0.86748 0.0
H1389 H 0.45138 0.38109 0.87379 0.0
H1390 H 0.54292 0.35884 0.92139 0.0
H1391 H 0.50564 0.3687 0.92556 0.0
H1392 H 0.4856 0.43631 0.9204 0.0
C1393 C 0.43288 0.44083 0.86149 0.0
C1394 C 0.45786 0.39309 0.88466 0.0
C1395 C 0.42071 0.44554 0.84338 0.0
C1396 C 0.53856 0.37515 0.91783 0.0
C1397 C 0.51715 0.38076 0.92021 0.0
C1398 C 0.47776 0.42396 0.91082 0.0
C1399 C 0.43234 0.42007 0.87033 0.0
C1400 C 0.44906 0.41362 0.88605 0.0
C1401 C 0.51026 0.4009 0.91337 0.0
C1402 C 0.48744 0.40409 0.90778 0.0
H1403 H 0.39638 0.39674 0.83583 0.0
H1404 H 0.41639 0.38882 0.86828 0.0
H1405 H 0.45201 0.44436 0.90228 0.0
H1406 H 0.55817 0.42237 0.89771 0.0
H1407 H 0.52094 0.43202 0.90168 0.0
C1408 C 0.94785 0.81048 0.69664 0.0
C1409 C 0.96009 0.82181 0.68145 0.0
C1410 C 0.93296 0.82111 0.70921 0.0
C1411 C 0.89818 0.84542 0.73142 0.0
H1412 H 0.92002 0.89995 0.75295 0.0
C1413 C 0.88419 0.91208 0.80279 0.0
C1414 C 0.88556 0.89813 0.82035 0.0
C1415 C 0.88622 0.90425 0.78195 0.0
C1416 C 0.91334 0.88502 0.74675 0.0
H1417 H 0.96534 0.85264 0.66624 0.0
H1418 H 0.93883 0.87107 0.68762 0.0
H1419 H 0.9376 0.88321 0.72296 0.0
H1420 H 0.88811 0.86486 0.82982 0.0
H1421 H 0.89167 0.85126 0.79352 0.0
H1422 H 0.87493 0.84669 0.75659 0.0
C1423 C 0.94121 0.85418 0.69044 0.0
C1424 C 0.92342 0.87537 0.72948 0.0
C1425 C 0.95637 0.84364 0.67817 0.0
C1426 C 0.88732 0.87605 0.81662 0.0
C1427 C 0.88908 0.86821 0.79581 0.0
C1428 C 0.88825 0.85499 0.74892 0.0
C1429 C 0.92977 0.8432 0.70657 0.0
C1430 C 0.91647 0.85508 0.72209 0.0
C1431 C 0.88933 0.88232 0.77835 0.0
C1432 C 0.89623 0.87452 0.75717 0.0
H1433 H 0.95039 0.79361 0.69941 0.0
H1434 H 0.92473 0.81216 0.72166 0.0
H1435 H 0.89208 0.83005 0.7258 0.0
H1436 H 0.8827 0.92917 0.80517 0.0
H1437 H 0.88628 0.91542 0.7687 0.0
C1438 C 0.98108 0.20197 0.42325 0.0
C1439 C 0.96359 0.20442 0.40939 0.0
C1440 C 0.97832 0.19123 0.44273 0.0
C1441 C 0.94136 0.15654 0.47413 0.0
H1442 H 0.95361 0.19628 0.52055 0.0
C1443 C 0.92568 0.16802 0.57118 0.0
C1444 C 0.90437 0.1603 0.57195 0.0
C1445 C 0.9365 0.16953 0.55169 0.0
C1446 C 0.95048 0.18468 0.50796 0.0
H1447 H 0.93018 0.19603 0.40384 0.0
H1448 H 0.92549 0.1769 0.43749 0.0
H1449 H 0.96784 0.20363 0.48508 0.0
H1450 H 0.87772 0.14809 0.55291 0.0
H1451 H 0.89624 0.1516 0.5188 0.0
H1452 H 0.92361 0.13777 0.49687 0.0
C1453 C 0.94124 0.18336 0.43354 0.0
C1454 C 0.9587 0.1889 0.48761 0.0
C1455 C 0.94387 0.19443 0.41436 0.0
C1456 C 0.89413 0.15409 0.55283 0.0
C1457 C 0.90486 0.15588 0.53329 0.0
C1458 C 0.93334 0.15215 0.49456 0.0
C1459 C 0.95817 0.18243 0.44829 0.0
C1460 C 0.95361 0.17526 0.47038 0.0
C1461 C 0.92619 0.16363 0.53247 0.0
C1462 C 0.93718 0.16657 0.51155 0.0
H1463 H -0.00359 0.20964 0.41977 0.0
H1464 H 0.99161 0.19066 0.45387 0.0
H1465 H 0.93732 0.14571 0.46109 0.0
H1466 H 0.93416 0.17259 0.58568 0.0
H1467 H 0.953 0.17524 0.55173 0.0
C1468 C 0.54818 0.20976 0.16999 0.0
C1469 C 0.55439 0.23153 0.16921 0.0
C1470 C 0.55806 0.19592 0.18436 0.0
C1471 C 0.58301 0.19913 0.23671 0.0
H1472 H 0.59839 0.13997 0.2276 0.0
C1473 C 0.61523 0.15125 0.30623 0.0
C1474 C 0.60681 0.13044 0.30894 0.0
C1475 C 0.61262 0.16195 0.28691 0.0
C1476 C 0.59403 0.15643 0.23039 0.0
H1477 H 0.57691 0.25546 0.18158 0.0
H1478 H 0.59411 0.23135 0.20652 0.0
H1479 H 0.58687 0.16171 0.19717 0.0
H1480 H 0.59008 0.10394 0.29342 0.0
H1481 H 0.58458 0.12305 0.25968 0.0
H1482 H 0.58912 0.19397 0.26978 0.0
C1483 C 0.5814 0.22506 0.19631 0.0
C1484 C 0.58752 0.16885 0.21299 0.0
C1485 C 0.57156 0.23885 0.182 0.0
C1486 C 0.59671 0.12002 0.29162 0.0
C1487 C 0.59366 0.13094 0.27232 0.0
C1488 C 0.58928 0.18676 0.25401 0.0
C1489 C 0.57426 0.20366 0.19816 0.0
C1490 C 0.58202 0.19035 0.21603 0.0
C1491 C 0.60099 0.15231 0.27003 0.0
C1492 C 0.59497 0.16528 0.25112 0.0
H1493 H 0.53504 0.20364 0.16024 0.0
H1494 H 0.5522 0.17951 0.18552 0.0
H1495 H 0.57833 0.21548 0.23965 0.0
H1496 H 0.62343 0.15947 0.31927 0.0
H1497 H 0.6191 0.17811 0.28548 0.0
C1498 C 0.50823 0.79992 0.88565 0.0
C1499 C 0.48844 0.79031 0.89108 0.0
C1500 C 0.51793 0.81503 0.89922 0.0
C1501 C 0.51064 0.84609 0.94993 0.0
H1502 H 0.56953 0.83002 0.95954 0.0
C1503 C 0.552 0.8492 0.03171 0.0
C1504 C 0.57411 0.85383 0.03299 0.0
C1505 C 0.54163 0.84841 0.01192 0.0
C1506 C 0.55329 0.83515 0.95682 0.0
H1507 H 0.46243 0.79018 0.91401 0.0
H1508 H 0.47965 0.81593 0.93814 0.0
H1509 H 0.55057 0.8165 0.92833 0.0
H1510 H 0.60241 0.86247 0.01452 0.0
H1511 H 0.58425 0.86091 0.97988 0.0
H1512 H 0.51319 0.8637 0.97935 0.0
C1513 C 0.48758 0.8122 0.92323 0.0
C1514 C 0.54236 0.82742 0.93883 0.0
C1515 C 0.47772 0.79732 0.90945 0.0
C1516 C 0.58541 0.85866 0.01409 0.0
C1517 C 0.57503 0.85777 0.99426 0.0
C1518 C 0.52157 0.85374 0.96804 0.0
C1519 C 0.50822 0.82053 0.91871 0.0
C1520 C 0.52069 0.83221 0.93551 0.0
C1521 C 0.55313 0.85218 0.99295 0.0
C1522 C 0.54279 0.84776 0.97199 0.0
H1523 H 0.51668 0.79508 0.87137 0.0
H1524 H 0.53355 0.82158 0.89496 0.0
H1525 H 0.49408 0.85041 0.94764 0.0
H1526 H 0.54272 0.84561 0.04595 0.0
H1527 H 0.52481 0.84381 0.01144 0.0
C1528 C 0.93234 0.22446 0.8593 0.0
C1529 C 0.9374 0.24628 0.86244 0.0
C1530 C 0.9174 0.21807 0.84385 0.0
C1531 C 0.88259 0.20758 0.81168 0.0
H1532 H 0.89871 0.23427 0.75795 0.0
C1533 C 0.8756 0.19566 0.71364 0.0
C1534 C 0.88083 0.17389 0.71266 0.0
C1535 C 0.8746 0.20623 0.73329 0.0
C1536 C 0.89348 0.22691 0.77278 0.0
H1537 H 0.92938 0.2786 0.85315 0.0
H1538 H 0.90324 0.26735 0.82597 0.0
H1539 H 0.91034 0.25055 0.79131 0.0
H1540 H 0.88782 0.14583 0.73164 0.0
H1541 H 0.88672 0.1644 0.76588 0.0
H1542 H 0.86667 0.18327 0.79292 0.0
C1543 C 0.91105 0.25522 0.83538 0.0
C1544 C 0.90015 0.23631 0.79198 0.0
C1545 C 0.92598 0.26165 0.85095 0.0
C1546 C 0.88385 0.16262 0.73183 0.0
C1547 C 0.88302 0.17325 0.7515 0.0
C1548 C 0.87587 0.19817 0.79242 0.0
C1549 C 0.90722 0.23334 0.83114 0.0
C1550 C 0.89555 0.22627 0.81159 0.0
C1551 C 0.87898 0.19532 0.75239 0.0
C1552 C 0.88201 0.20729 0.77275 0.0
H1553 H 0.94065 0.21221 0.86809 0.0
H1554 H 0.915 0.20109 0.84088 0.0
H1555 H 0.87854 0.19966 0.82659 0.0
H1556 H 0.87277 0.20471 0.69917 0.0
H1557 H 0.87105 0.22313 0.73347 0.0
C1558 C 0.519 0.19933 0.58676 0.0
C1559 C 0.49687 0.1994 0.58263 0.0
C1560 C 0.53251 0.18683 0.57428 0.0
C1561 C 0.53206 0.14251 0.53419 0.0
H1562 H 0.58361 0.17109 0.51318 0.0
C1563 C 0.56945 0.12558 0.45252 0.0
C1564 C 0.59187 0.12536 0.45063 0.0
C1565 C 0.55992 0.13051 0.47203 0.0
C1566 C 0.56951 0.1627 0.51923 0.0
H1567 H 0.47147 0.18606 0.56259 0.0
H1568 H 0.49495 0.16478 0.54062 0.0
H1569 H 0.56298 0.18768 0.54156 0.0
H1570 H 0.62188 0.12943 0.4679 0.0
H1571 H 0.60508 0.13849 0.50204 0.0
H1572 H 0.53805 0.11813 0.51091 0.0
C1573 C 0.50192 0.17397 0.5537 0.0
C1574 C 0.55768 0.17218 0.53552 0.0
C1575 C 0.48845 0.18636 0.56619 0.0
C1576 C 0.60455 0.12948 0.46887 0.0
C1577 C 0.59498 0.13472 0.48836 0.0
C1578 C 0.54379 0.13314 0.51778 0.0
C1579 C 0.52414 0.17421 0.55743 0.0
C1580 C 0.53846 0.16252 0.54272 0.0
C1581 C 0.57258 0.13556 0.49001 0.0
C1582 C 0.56228 0.14346 0.50973 0.0
H1583 H 0.52592 0.20913 0.59943 0.0
H1584 H 0.54953 0.1872 0.57771 0.0
H1585 H 0.5176 0.13441 0.53972 0.0
H1586 H 0.55924 0.12232 0.43881 0.0
H1587 H 0.54261 0.13127 0.47279 0.0
C1588 C 0.559 0.79995 0.32872 0.0
C1589 C 0.54551 0.7829 0.33517 0.0
C1590 C 0.57075 0.79857 0.30985 0.0
C1591 C 0.56386 0.7757 0.25756 0.0
H1592 H 0.61843 0.80456 0.24698 0.0
C1593 C 0.6012 0.83539 0.19129 0.0
C1594 C 0.59435 0.82536 0.17224 0.0
C1595 C 0.60018 0.82447 0.21072 0.0
C1596 C 0.60321 0.79636 0.24966 0.0
H1597 H 0.53488 0.75042 0.32782 0.0
H1598 H 0.55523 0.74816 0.29441 0.0
H1599 H 0.60851 0.79463 0.2835 0.0
H1600 H 0.58198 0.79554 0.1586 0.0
H1601 H 0.58027 0.77647 0.19261 0.0
H1602 H 0.55782 0.77872 0.22406 0.0
C1603 C 0.55671 0.76254 0.30407 0.0
C1604 C 0.5976 0.79059 0.27053 0.0
C1605 C 0.54514 0.76382 0.32318 0.0
C1606 C 0.58718 0.80385 0.17299 0.0
C1607 C 0.58619 0.7929 0.19248 0.0
C1608 C 0.56941 0.78157 0.23671 0.0
C1609 C 0.56907 0.78019 0.29691 0.0
C1610 C 0.57748 0.78106 0.27477 0.0
C1611 C 0.59236 0.80321 0.21161 0.0
C1612 C 0.58873 0.79283 0.23268 0.0
H1613 H 0.55972 0.81478 0.33775 0.0
H1614 H 0.57996 0.81252 0.30467 0.0
H1615 H 0.54816 0.76855 0.26036 0.0
H1616 H 0.6069 0.8519 0.19135 0.0
H1617 H 0.6047 0.83305 0.22518 0.0
C1618 C 0.98671 0.77577 0.05095 0.0
C1619 C 0.96813 0.76556 0.05903 0.0
C1620 C 0.98552 0.79581 0.04118 0.0
C1621 C 0.97193 0.82977 0.00825 0.0
H1622 H 0.93821 0.87396 0.03486 0.0
C1623 C 0.91036 0.89395 0.97767 0.0
C1624 C 0.92075 0.89984 0.95858 0.0
C1625 C 0.92161 0.88387 0.99393 0.0
C1626 C 0.94777 0.86185 0.02724 0.0
H1627 H 0.93376 0.76814 0.06305 0.0
H1628 H 0.93176 0.80318 0.04613 0.0
H1629 H 0.94693 0.84185 0.05507 0.0
H1630 H 0.95165 0.90266 0.94283 0.0
H1631 H 0.97142 0.88557 0.97153 0.0
H1632 H 0.97138 0.84862 0.97989 0.0
C1633 C 0.94722 0.79574 0.04751 0.0
C1634 C 0.95276 0.84354 0.03882 0.0
C1635 C 0.94834 0.77559 0.05693 0.0
C1636 C 0.94309 0.89783 0.95717 0.0
C1637 C 0.95441 0.88797 0.97357 0.0
C1638 C 0.96668 0.84791 -0.00345 0.0
C1639 C 0.9658 0.80606 0.03971 0.0
C1640 C 0.96416 0.82702 0.0291 0.0
C1641 C 0.94354 0.87972 0.99155 0.0
C1642 C 0.95373 0.86373 0.00562 0.0
H1643 H 0.00218 0.76838 0.05239 0.0
H1644 H 1e-05 0.80345 0.0351 0.0
H1645 H 0.98072 0.81719 0.00043 0.0
H1646 H 0.8932 0.89545 0.97938 0.0
H1647 H 0.91262 0.87771 0.00747 0.0
C1648 C 0.65851 0.92609 0.79328 0.0
C1649 C 0.64773 0.94133 0.80554 0.0
C1650 C 0.67519 0.91461 0.80234 0.0
C1651 C 0.70542 0.90442 0.85254 0.0
H1652 H 0.75426 0.92189 0.81805 0.0
C1653 C 0.78819 0.9243 0.88897 0.0
C1654 C 0.80646 0.92218 0.87619 0.0
C1655 C 0.76786 0.91976 0.88045 0.0
C1656 C 0.74098 0.91624 0.82778 0.0
H1657 H 0.64387 0.95444 0.83746 0.0
H1658 H 0.67296 0.93456 0.85317 0.0
H1659 H 0.71875 0.92315 0.80295 0.0
H1660 H 0.81819 0.9121 0.84521 0.0
H1661 H 0.78302 0.90323 0.83069 0.0
H1662 H 0.72779 0.89809 0.87763 0.0
C1663 C 0.66871 0.93148 0.83661 0.0
C1664 C 0.72051 0.91695 0.81903 0.0
C1665 C 0.65219 0.94307 0.82754 0.0
C1666 C 0.80425 0.91446 0.85519 0.0
C1667 C 0.78407 0.90937 0.84688 0.0
C1668 C 0.72603 0.9034 0.86125 0.0
C1669 C 0.68114 0.91809 0.8238 0.0
C1670 C 0.70248 0.91183 0.83155 0.0
C1671 C 0.76555 0.9125 0.85918 0.0
C1672 C 0.74399 0.91007 0.8492 0.0
H1673 H 0.65526 0.92424 0.77633 0.0
H1674 H 0.68443 0.90418 0.7922 0.0
H1675 H 0.69175 0.9003 0.86248 0.0
H1676 H 0.78959 0.93006 0.9053 0.0
H1677 H 0.75399 0.92266 0.89034 0.0
C1678 C 0.85502 0.92327 0.53834 0.0
C1679 C 0.83921 0.91579 0.5526 0.0
C1680 C 0.8706 0.93827 0.54512 0.0
C1681 C 0.88819 0.98187 0.55777 0.0
H1682 H 0.89835 0.99147 0.61827 0.0
C1683 C 0.88287 0.06408 0.59358 0.0
C1684 C 0.89177 0.06931 0.61364 0.0
C1685 C 0.88599 0.04408 0.58442 0.0
C1686 C 0.89632 0.98902 0.60122 0.0
H1687 H 0.82781 0.91735 0.58531 0.0
H1688 H 0.85383 0.94409 0.59678 0.0
H1689 H 0.88752 0.95614 0.60584 0.0
H1690 H 0.9125 0.05813 0.63899 0.0
H1691 H 0.91842 0.02315 0.62267 0.0
H1692 H 0.89752 0.01461 0.5531 0.0
C1693 C 0.85501 0.93805 0.58058 0.0
C1694 C 0.88966 0.96873 0.5941 0.0
C1695 C 0.83979 0.92283 0.57392 0.0
C1696 C 0.90514 0.05449 0.62365 0.0
C1697 C 0.90848 0.03442 0.61431 0.0
C1698 C 0.89548 0.00197 0.56481 0.0
C1699 C 0.87038 0.9464 0.56618 0.0
C1700 C 0.8839 0.96535 0.57254 0.0
C1701 C 0.89838 0.02872 0.59487 0.0
C1702 C 0.89799 0.00624 0.58681 0.0
H1703 H 0.85512 0.91785 0.52186 0.0
H1704 H 0.8824 0.94392 0.53366 0.0
H1705 H 0.88427 0.98001 0.54098 0.0
H1706 H 0.87259 0.07507 0.58524 0.0
H1707 H 0.87753 0.04035 0.5697 0.0
C1708 C 0.83983 0.02822 0.2988 0.0
C1709 C 0.83776 0.02161 0.2774 0.0
C1710 C 0.82484 0.04178 0.30786 0.0
C1711 C 0.77686 0.07467 0.29575 0.0
H1712 H 0.759 0.0546 0.35179 0.0
C1713 C 0.69182 0.08373 0.33037 0.0
C1714 C 0.68985 0.08833 0.35232 0.0
C1715 C 0.71194 0.08045 0.32134 0.0
C1716 C 0.764 0.06069 0.33631 0.0
H1717 H 0.81925 0.025 0.24827 0.0
H1718 H 0.79259 0.04795 0.26424 0.0
H1719 H 0.79111 0.04059 0.33572 0.0
H1720 H 0.70765 0.09398 0.38178 0.0
H1721 H 0.74269 0.08802 0.36599 0.0
H1722 H 0.7488 0.09391 0.29609 0.0
C1723 C 0.806 0.04314 0.27399 0.0
C1724 C 0.78251 0.05272 0.32708 0.0
C1725 C 0.82123 0.02988 0.26483 0.0
C1726 C 0.70854 0.09033 0.36486 0.0
C1727 C 0.72862 0.08689 0.35585 0.0
C1728 C 0.75815 0.08248 0.30493 0.0
C1729 C 0.80721 0.04864 0.29584 0.0
C1730 C 0.78901 0.05932 0.30652 0.0
C1731 C 0.73048 0.08156 0.33409 0.0
C1732 C 0.75139 0.07528 0.32516 0.0
H1733 H 0.85262 0.02231 0.30877 0.0
H1734 H 0.82663 0.04618 0.32456 0.0
H1735 H 0.78155 0.08036 0.28004 0.0
H1736 H 0.67779 0.08223 0.32021 0.0
H1737 H 0.7129 0.07617 0.30456 0.0
C1738 C 0.66048 0.0809 0.0036 0.0
C1739 C 0.66536 0.09841 0.01703 0.0
C1740 C 0.65051 0.06246 0.01182 0.0
C1741 C 0.64515 0.03393 0.06295 0.0
H1742 H 0.60774 -0.00405 0.03 0.0
C1743 C 0.61645 0.95215 0.09555 0.0
C1744 C 0.61937 0.93482 0.0815 0.0
C1745 C 0.61823 0.97319 0.08814 0.0
C1746 C 0.61818 0.00643 0.03936 0.0
H1747 H 0.66216 0.11095 0.04927 0.0
H1748 H 0.6443 0.07899 0.06349 0.0
H1749 H 0.61687 0.03157 0.01618 0.0
H1750 H 0.62566 0.92608 0.04847 0.0
H1751 H 0.62884 0.9628 0.03564 0.0
H1752 H 0.64673 0.00871 0.08593 0.0
C1753 C 0.64873 0.07925 0.04673 0.0
C1754 C 0.62343 0.02679 0.03146 0.0
C1755 C 0.65887 0.09761 0.03855 0.0
C1756 C 0.62344 0.93903 0.05976 0.0
C1757 C 0.62508 0.96007 0.05235 0.0
C1758 C 0.63978 0.01368 0.07089 0.0
C1759 C 0.64503 0.06122 0.03362 0.0
C1760 C 0.63732 0.04062 0.04298 0.0
C1761 C 0.6228 0.97735 0.06652 0.0
C1762 C 0.62657 -0.00043 0.059 0.0
H1763 H 0.66527 0.08099 0.98694 0.0
H1764 H 0.6481 0.04881 0.0013 0.0
H1765 H 0.6562 0.04397 0.07207 0.0
H1766 H 0.61319 0.94952 0.11237 0.0
H1767 H 0.61621 0.98623 0.09937 0.0
C1768 C 0.67884 0.04055 0.75699 0.0
C1769 C 0.6646 0.02982 0.74296 0.0
C1770 C 0.69718 0.05103 0.74911 0.0
C1771 C 0.72067 0.07517 0.70102 0.0
H1772 H 0.77529 0.05997 0.72573 0.0
C1773 C 0.80014 0.09587 0.65898 0.0
C1774 C 0.81808 0.10153 0.67155 0.0
C1775 C 0.78129 0.08826 0.66852 0.0
C1776 C 0.76018 0.06472 0.71887 0.0
H1777 H 0.658 0.0223 0.70964 0.0
H1778 H 0.68984 0.04094 0.69589 0.0
H1779 H 0.74215 0.04559 0.74118 0.0
H1780 H 0.83022 0.10383 0.70404 0.0
H1781 H 0.79709 0.0911 0.72077 0.0
H1782 H 0.7385 0.09449 0.67887 0.0
C1783 C 0.68685 0.04111 0.71296 0.0
C1784 C 0.74122 0.05642 0.7277 0.0
C1785 C 0.66871 0.03036 0.72085 0.0
C1786 C 0.81673 0.09943 0.6939 0.0
C1787 C 0.79775 0.09206 0.70348 0.0
C1788 C 0.73959 0.08369 0.69235 0.0
C1789 C 0.7014 0.05127 0.72704 0.0
C1790 C 0.72133 0.06134 0.71867 0.0
C1791 C 0.77979 0.08638 0.6909 0.0
C1792 C 0.75961 0.07831 0.70095 0.0
H1793 H 0.67614 0.04037 0.77412 0.0
H1794 H 0.70812 0.05888 0.76025 0.0
H1795 H 0.70549 0.07939 0.69393 0.0
H1796 H 0.80071 0.09711 0.64169 0.0
H1797 H 0.76798 0.0836 0.65827 0.0
C1798 C 0.73179 0.91279 0.4784 0.0
C1799 C 0.73631 0.91724 0.50001 0.0
C1800 C 0.71614 0.92411 0.46751 0.0
C1801 C 0.69394 0.96004 0.44493 0.0
H1802 H 0.64262 0.9798 0.47299 0.0
C1803 C 0.63769 0.03569 0.43616 0.0
C1804 C 0.63512 0.03617 0.4138 0.0
C1805 C 0.64498 0.01734 0.44626 0.0
C1806 C 0.65683 0.97428 0.46493 0.0
H1807 H 0.72786 0.93686 0.52727 0.0
H1808 H 0.70097 0.95714 0.50807 0.0
H1809 H 0.66602 0.95506 0.49162 0.0
H1810 H 0.6364 0.01713 0.38474 0.0
H1811 H 0.64922 0.98503 0.40247 0.0
H1812 H 0.68511 0.97962 0.41849 0.0
C1813 C 0.70918 0.94456 0.49965 0.0
C1814 C 0.67029 0.96024 0.47562 0.0
C1815 C 0.72473 0.9331 0.5106 0.0
C1816 C 0.63834 0.01733 0.40197 0.0
C1817 C 0.64579 -0.00101 0.41209 0.0
C1818 C 0.68045 0.97395 0.43423 0.0
C1819 C 0.70479 0.94028 0.47793 0.0
C1820 C 0.68927 0.95337 0.46592 0.0
C1821 C 0.64994 -0.00089 0.43422 0.0
C1822 C 0.66203 0.98162 0.44429 0.0
H1823 H 0.74027 0.90048 0.46987 0.0
H1824 H 0.71295 0.92017 0.4509 0.0
H1825 H 0.70856 0.95533 0.43707 0.0
H1826 H 0.63511 0.04987 0.44577 0.0
H1827 H 0.64811 0.01798 0.46332 0.0
C1828 C 0.82991 0.92178 0.199 0.0
C1829 C 0.82695 0.92656 0.22077 0.0
C1830 C 0.81382 0.91113 0.18736 0.0
C1831 C 0.76308 0.87957 0.19285 0.0
H1832 H 0.74939 0.90526 0.13817 0.0
C1833 C 0.6796 0.87465 0.15484 0.0
C1834 C 0.67764 0.87311 0.13246 0.0
C1835 C 0.6997 0.87666 0.16444 0.0
C1836 C 0.75325 0.89758 0.15318 0.0
H1837 H 0.80515 0.92333 0.24762 0.0
H1838 H 0.77688 0.90508 0.22721 0.0
H1839 H 0.78137 0.91722 0.15742 0.0
H1840 H 0.69539 0.87154 0.10266 0.0
H1841 H 0.73064 0.87518 0.11954 0.0
H1842 H 0.73442 0.8605 0.1889 0.0
C1843 C 0.79175 0.90927 0.21919 0.0
C1844 C 0.77158 0.90444 0.16424 0.0
C1845 C 0.80788 0.91987 0.23086 0.0
C1846 C 0.69633 0.87281 0.11994 0.0
C1847 C 0.7165 0.87496 0.12957 0.0
C1848 C 0.7447 0.87273 0.18179 0.0
C1849 C 0.79441 0.90509 0.19723 0.0
C1850 C 0.77642 0.89587 0.18443 0.0
C1851 C 0.71834 0.87725 0.1519 0.0
C1852 C 0.73934 0.88205 0.16209 0.0
H1853 H 0.84453 0.92657 0.19083 0.0
H1854 H 0.81646 0.90787 0.17054 0.0
H1855 H 0.7666 0.87239 0.20819 0.0
H1856 H 0.66556 0.87476 0.16501 0.0
H1857 H 0.70057 0.87865 0.18165 0.0
C1858 C 0.7801 0.11157 0.96707 0.0
C1859 C 0.77111 0.11591 0.98714 0.0
C1860 C 0.79898 0.10023 0.96557 0.0
C1861 C 0.82397 0.05687 0.99125 0.0
H1862 H 0.86718 0.06679 0.94764 0.0
C1863 C 0.86711 0.98615 0.955 0.0
C1864 C 0.86607 0.98608 0.93251 0.0
C1865 C 0.86384 0.005 0.96649 0.0
C1866 C 0.85535 0.06381 0.96 0.0
H1867 H 0.7752 0.11266 0.02145 0.0
H1868 H 0.80803 0.09191 0.01874 0.0
H1869 H 0.84525 0.09638 0.95971 0.0
H1870 H 0.8622 0.00604 0.90442 0.0
H1871 H 0.85576 0.03856 0.92433 0.0
H1872 H 0.83244 0.02402 0.99022 0.0
C1873 C 0.80055 0.09767 0.00425 0.0
C1874 C 0.84293 0.08077 0.96699 0.0
C1875 C 0.7818 0.10943 0.00577 0.0
C1876 C 0.86298 0.00549 0.92173 0.0
C1877 C 0.85953 0.02425 0.93321 0.0
C1878 C 0.8362 0.03987 0.98411 0.0
C1879 C 0.80909 0.09271 0.9841 0.0
C1880 C 0.82638 0.07714 0.98181 0.0
C1881 C 0.85929 0.02412 0.95573 0.0
C1882 C 0.85117 0.04292 0.96752 0.0
H1883 H 0.77232 0.1166 0.95245 0.0
H1884 H 0.80503 0.09633 0.94982 0.0
H1885 H 0.81123 0.05364 0.00263 0.0
H1886 H 0.86987 0.97153 0.96379 0.0
H1887 H 0.8641 0.00443 0.98382 0.0
C1888 C 0.82343 0.68399 0.93242 0.0
C1889 C 0.80202 0.67782 0.93627 0.0
C1890 C 0.82831 0.70337 0.92231 0.0
C1891 C 0.8071 0.75627 0.92013 0.0
H1892 H 0.85409 0.76794 0.88105 0.0
C1893 C 0.83608 0.84254 0.90419 0.0
C1894 C 0.85837 0.84604 0.90352 0.0
C1895 C 0.82738 0.82179 0.90332 0.0
C1896 C 0.841 0.76495 0.89207 0.0
H1897 H 0.76888 0.68626 0.93116 0.0
H1898 H 0.77747 0.72038 0.91374 0.0
H1899 H 0.84185 0.731 0.88704 0.0
H1900 H 0.88904 0.83062 0.90101 0.0
H1901 H 0.87396 0.79432 0.90043 0.0
H1902 H 0.80695 0.78984 0.92633 0.0
C1903 C 0.79043 0.71019 0.91859 0.0
C1904 C 0.83391 0.74383 0.89535 0.0
C1905 C 0.78554 0.69066 0.92849 0.0
C1906 C 0.87179 0.8284 0.90156 0.0
C1907 C 0.86311 0.8076 0.90102 0.0
C1908 C 0.81432 0.77731 0.91708 0.0
C1909 C 0.81186 0.71701 0.91605 0.0
C1910 C 0.81718 0.7393 0.90974 0.0
C1911 C 0.84079 0.80403 0.90209 0.0
C1912 C 0.83167 0.78189 0.90337 0.0
H1913 H 0.83646 0.6743 0.9381 0.0
H1914 H 0.84498 0.7083 0.92068 0.0
H1915 H 0.79441 0.7532 0.9316 0.0
H1916 H 0.82529 0.85586 0.9053 0.0
H1917 H 0.81013 0.81969 0.90372 0.0
C1918 C 0.30792 0.8188 0.01347 0.0
C1919 C 0.28566 0.82154 0.01433 0.0
C1920 C 0.31763 0.80365 0.02642 0.0
C1921 C 0.33315 0.78027 0.06654 0.0
H1922 H 0.31347 0.72107 0.06291 0.0
C1923 C 0.34927 0.69136 0.1058 0.0
C1924 C 0.37174 0.69233 0.10662 0.0
C1925 C 0.33789 0.70823 0.09712 0.0
C1926 C 0.31892 0.73757 0.06453 0.0
H1927 H 0.25604 0.81036 0.0291 0.0
H1928 H 0.27308 0.78336 0.05136 0.0
H1929 H 0.29487 0.74842 0.04285 0.0
H1930 H 0.39996 0.71183 0.09956 0.0
H1931 H 0.38021 0.74095 0.08353 0.0
H1932 H 0.35698 0.76965 0.08845 0.0
C1933 C 0.28293 0.79317 0.04082 0.0
C1934 C 0.30831 0.75318 0.05292 0.0
C1935 C 0.27324 0.8086 0.02813 0.0
C1936 C 0.38262 0.71074 0.09919 0.0
C1937 C 0.37126 0.72747 0.09012 0.0
C1938 C 0.34357 0.76473 0.07845 0.0
C1939 C 0.30521 0.79075 0.04019 0.0
C1940 C 0.31555 0.77456 0.05359 0.0
C1941 C 0.34876 0.72626 0.08867 0.0
C1942 C 0.33678 0.74312 0.07734 0.0
H1943 H 0.31792 0.82863 0.00308 0.0
H1944 H 0.33483 0.80187 0.02555 0.0
H1945 H 0.33884 0.79676 0.06743 0.0
H1946 H 0.34046 0.67747 0.11175 0.0
H1947 H 0.32056 0.70699 0.0968 0.0
C1948 C 0.90465 0.53279 0.79865 0.0
C1949 C 0.89533 0.51212 0.7979 0.0
C1950 C 0.92101 0.5377 0.81315 0.0
C1951 C 0.96431 0.51156 0.84171 0.0
H1952 H 0.97414 0.56922 0.86316 0.0
C1953 C 0.04831 0.54851 0.85304 0.0
C1954 C 0.05163 0.56518 0.86789 0.0
C1955 C 0.028 0.53898 0.85053 0.0
C1956 C 0.97159 0.55287 0.85778 0.0
H1957 H 0.89506 0.48072 0.81272 0.0
H1958 H 0.92368 0.4894 0.83827 0.0
H1959 H 0.93923 0.559 0.84887 0.0
H1960 H 0.03675 0.58363 0.89306 0.0
H1961 H 0.00149 0.5666 0.88909 0.0
H1962 H -0.00324 0.50549 0.85048 0.0
C1963 C 0.91844 0.5017 0.82737 0.0
C1964 C 0.95159 0.5471 0.8493 0.0
C1965 C 0.90197 0.49678 0.81282 0.0
C1966 C 0.03461 0.57107 0.88121 0.0
C1967 C 0.01437 0.56136 0.87889 0.0
C1968 C 0.98429 0.51728 0.85036 0.0
C1969 C 0.92849 0.52208 0.82734 0.0
C1970 C 0.94799 0.52667 0.84036 0.0
C1971 C 0.01063 0.54573 0.863 0.0
C1972 C 0.98844 0.53827 0.85772 0.0
H1973 H 0.89987 0.54504 0.78746 0.0
H1974 H 0.92854 0.55347 0.81243 0.0
H1975 H 0.96211 0.49569 0.83493 0.0
H1976 H 0.06108 0.54359 0.84252 0.0
H1977 H 0.02574 0.52719 0.83796 0.0
C1978 C 0.24194 0.16441 0.563 0.0
C1979 C 0.23349 0.14657 0.55191 0.0
C1980 C 0.22857 0.17742 0.57494 0.0
C1981 C 0.17279 0.19379 0.57508 0.0
H1982 H 0.19272 0.22868 0.62285 0.0
C1983 C 0.12774 0.26837 0.60299 0.0
C1984 C 0.141 0.28687 0.60301 0.0
C1985 C 0.13668 0.24807 0.60209 0.0
C1986 C 0.18687 0.21891 0.60964 0.0
H1987 H 0.20472 0.12739 0.54588 0.0
H1988 H 0.18135 0.14999 0.56707 0.0
H1989 H 0.21277 0.1972 0.61233 0.0
H1990 H 0.174 0.29857 0.60316 0.0
H1991 H 0.18952 0.26319 0.60162 0.0
H1992 H 0.1473 0.21591 0.57199 0.0
C1993 C 0.19825 0.15417 0.56615 0.0
C1994 C 0.19835 0.20095 0.60357 0.0
C1995 C 0.21164 0.1412 0.55407 0.0
C1996 C 0.16335 0.28464 0.60295 0.0
C1997 C 0.17225 0.26438 0.60233 0.0
C1998 C 0.16122 0.21162 0.58129 0.0
C1999 C 0.20646 0.17279 0.57618 0.0
C2000 C 0.19194 0.18874 0.58564 0.0
C2001 C 0.15901 0.24593 0.60155 0.0
C2002 C 0.16865 0.22481 0.59806 0.0
H2003 H 0.25875 0.16892 0.5617 0.0
H2004 H 0.23544 0.19177 0.58218 0.0
H2005 H 0.16749 0.18491 0.56107 0.0
H2006 H 0.11046 0.26956 0.60309 0.0
H2007 H 0.12615 0.23405 0.60151 0.0
C2008 C 0.05937 0.98773 0.7532 0.0
C2009 C 0.07382 0.00527 0.7536 0.0
C2010 C 0.04556 0.98394 0.77031 0.0
C2011 C 0.02003 0.00881 0.8167 0.0
H2012 H 0.01126 0.94941 0.83308 0.0
C2013 C 0.9653 0.94913 0.87487 0.0
C2014 C 0.94519 0.95773 0.87036 0.0
C2015 C 0.98385 0.95815 0.86587 0.0
C2016 C 0.0138 0.96615 0.82914 0.0
H2017 H 0.08469 0.03299 0.77193 0.0
H2018 H 0.06046 0.02624 0.80204 0.0
H2019 H 0.03808 0.95865 0.80649 0.0
H2020 H 0.92895 0.98363 0.85439 0.0
H2021 H 0.96108 -0.00114 0.83818 0.0
H2022 H -0.00443 0.01624 0.83937 0.0
C2023 C 0.05985 0.0155 0.78841 0.0
C2024 C 0.02896 0.97139 0.81359 0.0
C2025 C 0.07372 0.01933 0.7712 0.0
C2026 C 0.94419 0.97654 0.85812 0.0
C2027 C 0.96269 0.98539 0.84891 0.0
C2028 C 0.00486 0.00356 0.83239 0.0
C2029 C 0.04591 -0.00247 0.78826 0.0
C2030 C 0.03174 0.99265 0.8067 0.0
C2031 C 0.98261 0.97575 0.85196 0.0
C2032 C 0.00115 0.98208 0.83834 0.0
H2033 H 0.05893 0.97672 0.73978 0.0
H2034 H 0.03461 0.97026 0.76949 0.0
H2035 H 0.02189 0.02535 0.81173 0.0
H2036 H 0.96664 0.93487 0.88458 0.0
H2037 H -0.00097 0.95068 0.86899 0.0
C2038 C 0.73695 0.32318 0.41884 0.0
C2039 C 0.75792 0.31739 0.42422 0.0
C2040 C 0.72328 0.30877 0.40814 0.0
C2041 C 0.7208 0.25593 0.38026 0.0
H2042 H 0.66628 0.24999 0.40959 0.0
C2043 C 0.6753 0.17614 0.38891 0.0
C2044 C 0.65279 0.17555 0.38797 0.0
C2045 C 0.68662 0.19556 0.3878 0.0
C2046 C 0.6812 0.25169 0.40087 0.0
H2047 H 0.78148 0.29254 0.42121 0.0
H2048 H 0.75754 0.26725 0.40298 0.0
H2049 H 0.68941 0.28096 0.41687 0.0
H2050 H 0.62456 0.19493 0.38451 0.0
H2051 H 0.6445 0.22906 0.38285 0.0
H2052 H 0.71295 0.22596 0.36515 0.0
C2053 C 0.75168 0.28301 0.40677 0.0
C2054 C 0.69449 0.26947 0.40501 0.0
C2055 C 0.7654 0.29748 0.41735 0.0
C2056 C 0.64188 0.19485 0.38539 0.0
C2057 C 0.65326 0.21437 0.38445 0.0
C2058 C 0.70754 0.23809 0.37619 0.0
C2059 C 0.73025 0.28822 0.4027 0.0
C2060 C 0.71474 0.27145 0.39527 0.0
C2061 C 0.67575 0.21489 0.38581 0.0
C2062 C 0.68793 0.23546 0.387 0.0
H2063 H 0.73078 0.33854 0.42364 0.0
H2064 H 0.70699 0.31342 0.40485 0.0
H2065 H 0.73613 0.2572 0.37221 0.0
H2066 H 0.68425 0.16159 0.39072 0.0
H2067 H 0.70392 0.19548 0.38923 0.0
C2068 C 0.91691 0.47581 0.69046 0.0
C2069 C 0.89986 0.46306 0.69821 0.0
C2070 C 0.93226 0.46695 0.67702 0.0
C2071 C 0.95424 0.41421 0.66406 0.0
H2072 H 0.98675 0.44658 0.62178 0.0
C2073 C 0.02547 0.37716 0.62213 0.0
C2074 C 0.0445 0.38933 0.62485 0.0
C2075 C 0.00563 0.38642 0.62557 0.0
C2076 C 0.97767 0.43735 0.63345 0.0
H2077 H 0.88448 0.43162 0.69683 0.0
H2078 H 0.91068 0.41641 0.6728 0.0
H2079 H 0.95529 0.46239 0.63834 0.0
H2080 H 0.05753 0.42119 0.63154 0.0
H2081 H 0.02287 0.43723 0.63766 0.0
H2082 H 0.97671 0.38936 0.65947 0.0
C2083 C 0.9128 0.43296 0.6777 0.0
C2084 C 0.95977 0.44641 0.64302 0.0
C2085 C 0.89774 0.44168 0.69143 0.0
C2086 C 0.04319 0.41129 0.62958 0.0
C2087 C 0.02334 0.42056 0.63288 0.0
C2088 C 0.97191 0.40512 0.65434 0.0
C2089 C 0.93058 0.44529 0.67082 0.0
C2090 C 0.94812 0.43509 0.65878 0.0
C2091 C 0.00445 0.40803 0.63161 0.0
C2092 C 0.98404 0.41674 0.63929 0.0
H2093 H 0.91885 0.49237 0.69543 0.0
H2094 H 0.94586 0.47686 0.67223 0.0
H2095 H 0.946 0.40516 0.67644 0.0
H2096 H 0.02588 0.36026 0.61828 0.0
H2097 H 0.99124 0.37648 0.62429 0.0
C2098 C 0.60809 0.53269 0.21903 0.0
C2099 C 0.60714 0.5107 0.21434 0.0
C2100 C 0.59672 0.54708 0.20656 0.0
C2101 C 0.57026 0.57576 0.17846 0.0
H2102 H 0.51392 0.54968 0.17025 0.0
C2103 C 0.49195 0.62137 0.15671 0.0
C2104 C 0.47402 0.61483 0.16891 0.0
C2105 C 0.51124 0.61047 0.15837 0.0
C2106 C 0.52959 0.55719 0.17236 0.0
H2107 H 0.59621 0.48681 0.19137 0.0
H2108 H 0.57708 0.51203 0.16902 0.0
H2109 H 0.54407 0.52716 0.17739 0.0
H2110 H 0.4628 0.59284 0.19355 0.0
H2111 H 0.49632 0.57412 0.19654 0.0
H2112 H 0.55498 0.60602 0.17477 0.0
C2113 C 0.58579 0.5181 0.18284 0.0
C2114 C 0.54703 0.54425 0.1761 0.0
C2115 C 0.59679 0.50365 0.19558 0.0
C2116 C 0.47617 0.5981 0.18369 0.0
C2117 C 0.49533 0.58728 0.18531 0.0
C2118 C 0.55266 0.58878 0.17474 0.0
C2119 C 0.58447 0.53973 0.18899 0.0
C2120 C 0.56746 0.55337 0.18002 0.0
C2121 C 0.5128 0.59288 0.17219 0.0
C2122 C 0.53206 0.57956 0.17257 0.0
H2123 H 0.6161 0.53857 0.23335 0.0
H2124 H 0.59607 0.56357 0.21186 0.0
H2125 H 0.58584 0.58327 0.18108 0.0
H2126 H 0.49082 0.63422 0.14518 0.0
H2127 H 0.52455 0.61514 0.14819 0.0
C2128 C 0.56233 0.71608 0.81123 0.0
C2129 C 0.54989 0.70331 0.82508 0.0
C2130 C 0.58 0.70758 0.80086 0.0
C2131 C 0.59791 0.65486 0.78288 0.0
H2132 H 0.64178 0.69022 0.75567 0.0
C2133 C 0.63834 0.62547 0.7075 0.0
C2134 C 0.63282 0.63916 0.69062 0.0
C2135 C 0.63742 0.63263 0.72868 0.0
C2136 C 0.62989 0.68003 0.76346 0.0
H2137 H 0.54725 0.67241 0.84067 0.0
H2138 H 0.57869 0.65779 0.82332 0.0
H2139 H 0.62254 0.70405 0.7866 0.0
H2140 H 0.62432 0.67161 0.68242 0.0
H2141 H 0.62283 0.68411 0.71931 0.0
H2142 H 0.60475 0.63118 0.75933 0.0
C2143 C 0.57435 0.67408 0.81969 0.0
C2144 C 0.61871 0.68799 0.78102 0.0
C2145 C 0.55636 0.68244 0.82969 0.0
C2146 C 0.62835 0.66063 0.69514 0.0
C2147 C 0.62776 0.66786 0.71625 0.0
C2148 C 0.60933 0.64681 0.76562 0.0
C2149 C 0.58588 0.68623 0.80445 0.0
C2150 C 0.6017 0.67597 0.79013 0.0
C2151 C 0.63134 0.65367 0.73324 0.0
C2152 C 0.62458 0.65975 0.75503 0.0
H2153 H 0.55771 0.73227 0.80747 0.0
H2154 H 0.58818 0.71743 0.78906 0.0
H2155 H 0.58488 0.64509 0.78922 0.0
H2156 H 0.64195 0.60884 0.70446 0.0
H2157 H 0.64026 0.62141 0.74153 0.0
C2158 C 0.57101 0.34597 0.09394 0.0
C2159 C 0.56508 0.32455 0.098 0.0
C2160 C 0.5885 0.35084 0.08071 0.0
C2161 C 0.61037 0.35567 0.03825 0.0
H2162 H 0.65187 0.31303 0.02266 0.0
C2163 C 0.62886 0.32086 0.95599 0.0
C2164 C 0.63851 0.33769 0.94443 0.0
C2165 C 0.62954 0.32093 0.9783 0.0
C2166 C 0.64075 0.32535 0.02712 0.0
H2167 H 0.57358 0.29149 0.09264 0.0
H2168 H 0.60287 0.29973 0.06875 0.0
H2169 H 0.63574 0.31214 0.05826 0.0
H2170 H 0.65729 0.36724 0.94685 0.0
H2171 H 0.65744 0.36786 0.98612 0.0
H2172 H 0.61532 0.3686 0.00692 0.0
C2173 C 0.5948 0.31299 0.07616 0.0
C2174 C 0.63125 0.32472 0.04736 0.0
C2175 C 0.57771 0.30818 0.08975 0.0
C2176 C 0.6499 0.35397 0.95546 0.0
C2177 C 0.65003 0.35435 0.97783 0.0
C2178 C 0.62035 0.35665 0.01832 0.0
C2179 C 0.6 0.33437 0.07081 0.0
C2180 C 0.61485 0.33899 0.05263 0.0
C2181 C 0.63939 0.33809 0.98934 0.0
C2182 C 0.63467 0.34081 0.01223 0.0
H2183 H 0.56178 0.35893 0.10045 0.0
H2184 H 0.59237 0.36751 0.07755 0.0
H2185 H 0.59781 0.3669 0.04142 0.0
H2186 H 0.61999 0.30818 0.94779 0.0
H2187 H 0.62095 0.30841 0.98695 0.0
C2188 C 0.95259 0.26346 0.27928 0.0
C2189 C 0.94672 0.25761 0.30016 0.0
C2190 C 0.93689 0.26831 0.26423 0.0
C2191 C 0.88864 0.29448 0.25873 0.0
H2192 H 0.88121 0.26523 0.20433 0.0
C2193 C 0.84454 0.33593 0.19108 0.0
C2194 C 0.85532 0.33519 0.17138 0.0
C2195 C 0.84932 0.32137 0.20728 0.0
C2196 C 0.8831 0.27364 0.21941 0.0
H2197 H 0.91999 0.25212 0.32179 0.0
H2198 H 0.89255 0.26159 0.29556 0.0
H2199 H 0.90361 0.24959 0.23207 0.0
H2200 H 0.87835 0.31754 0.15266 0.0
H2201 H 0.88736 0.2931 0.18088 0.0
H2202 H 0.87003 0.31953 0.24577 0.0
C2203 C 0.90925 0.26188 0.29083 0.0
C2204 C 0.89578 0.26457 0.23527 0.0
C2205 C 0.92491 0.25653 0.30574 0.0
C2206 C 0.86978 0.31866 0.16768 0.0
C2207 C 0.87483 0.30441 0.18392 0.0
C2208 C 0.8764 0.30383 0.24273 0.0
C2209 C 0.91518 0.26781 0.27002 0.0
C2210 C 0.89906 0.27526 0.25477 0.0
C2211 C 0.86525 0.30604 0.20421 0.0
C2212 C 0.8741 0.2939 0.22256 0.0
H2213 H 0.96929 0.26431 0.2746 0.0
H2214 H 0.94171 0.27311 0.24826 0.0
H2215 H 0.89113 0.30298 0.27371 0.0
H2216 H 0.83302 0.34826 0.19429 0.0
H2217 H 0.84119 0.32274 0.2225 0.0
C2218 C 0.97357 0.7486 0.58204 0.0
C2219 C 0.9663 0.76959 0.58462 0.0
C2220 C 0.96513 0.73535 0.56599 0.0
C2221 C 0.938 0.73785 0.51395 0.0
H2222 H 0.92955 0.67676 0.52274 0.0
C2223 C 0.90154 0.65985 0.46536 0.0
C2224 C 0.91059 0.66405 0.44516 0.0
C2225 C 0.90772 0.6721 0.48316 0.0
C2226 C 0.93164 0.69381 0.52009 0.0
H2227 H 0.94398 0.79294 0.57271 0.0
H2228 H 0.92902 0.76965 0.54479 0.0
H2229 H 0.93984 0.69969 0.55288 0.0
H2230 H 0.934 0.6837 0.42805 0.0
H2231 H 0.94503 0.70468 0.45911 0.0
H2232 H 0.92949 0.73207 0.48128 0.0
C2233 C 0.94153 0.76359 0.55501 0.0
C2234 C 0.93773 0.70691 0.53729 0.0
C2235 C 0.95004 0.7769 0.57106 0.0
C2236 C 0.92652 0.68019 0.44332 0.0
C2237 C 0.93275 0.69233 0.46109 0.0
C2238 C 0.93186 0.72477 0.49679 0.0
C2239 C 0.94915 0.74275 0.55219 0.0
C2240 C 0.94121 0.72904 0.53434 0.0
C2241 C 0.92313 0.68871 0.48111 0.0
C2242 C 0.92888 0.70258 0.4996 0.0
H2243 H 0.9861 0.74244 0.59218 0.0
H2244 H 0.97158 0.71951 0.56404 0.0
H2245 H 0.94075 0.75478 0.51109 0.0
H2246 H 0.88917 0.64757 0.46732 0.0
H2247 H 0.89993 0.669 0.49835 0.0
C2248 C 0.45817 0.29385 0.69546 0.0
C2249 C 0.46851 0.27979 0.68144 0.0
C2250 C 0.46929 0.30327 0.71257 0.0
C2251 C 0.49324 0.30974 0.75455 0.0
H2252 H 0.55121 0.3318 0.74634 0.0
C2253 C 0.55031 0.32969 0.82445 0.0
C2254 C 0.56332 0.3483 0.82297 0.0
C2255 C 0.5378 0.32288 0.80713 0.0
C2256 C 0.53496 0.32591 0.74881 0.0
H2257 H 0.49866 0.26458 0.67446 0.0
H2258 H 0.518 0.28095 0.70445 0.0
H2259 H 0.5313 0.31683 0.71592 0.0
H2260 H 0.57308 0.37454 0.80215 0.0
H2261 H 0.55114 0.36255 0.77183 0.0
H2262 H 0.49689 0.31881 0.78743 0.0
C2263 C 0.50134 0.28483 0.70202 0.0
C2264 C 0.52366 0.31713 0.73148 0.0
C2265 C 0.49021 0.27534 0.68494 0.0
C2266 C 0.56325 0.36013 0.80384 0.0
C2267 C 0.5508 0.35322 0.78644 0.0
C2268 C 0.50457 0.31843 0.7719 0.0
C2269 C 0.49099 0.2989 0.71599 0.0
C2270 C 0.50275 0.30881 0.73421 0.0
C2271 C 0.53806 0.33445 0.78789 0.0
C2272 C 0.52559 0.32645 0.76923 0.0
H2273 H 0.44148 0.29768 0.69321 0.0
H2274 H 0.46096 0.31421 0.72297 0.0
H2275 H 0.47721 0.30332 0.75717 0.0
H2276 H 0.54991 0.32019 0.83894 0.0
H2277 H 0.52833 0.30822 0.80863 0.0
C2278 C 0.95714 0.28071 0.95813 0.0
C2279 C 0.97926 0.28114 0.95406 0.0
C2280 C 0.94756 0.29816 0.96796 0.0
C2281 C 0.95636 0.34217 0.00418 0.0
H2282 H 0.90797 0.36777 0.97569 0.0
C2283 C 0.90761 0.40151 0.05034 0.0
C2284 C 0.88556 0.39664 0.04971 0.0
C2285 C 0.92106 0.3941 0.03424 0.0
C2286 C 0.92141 0.36081 0.98391 0.0
H2287 H 0.00887 0.29954 0.95793 0.0
H2288 H 0.99214 0.32972 0.97604 0.0
H2289 H 0.92731 0.33913 0.95801 0.0
H2290 H 0.8599 0.3825 0.03065 0.0
H2291 H 0.88319 0.36884 0.00315 0.0
H2292 H 0.94979 0.36239 0.03071 0.0
C2293 C 0.98225 0.31607 0.97119 0.0
C2294 C 0.93246 0.34446 0.97376 0.0
C2295 C 0.99178 0.29882 0.96095 0.0
C2296 C 0.87685 0.38654 0.0315 0.0
C2297 C 0.89033 0.37867 0.01567 0.0
C2298 C 0.94508 0.35819 0.01453 0.0
C2299 C 0.96001 0.31608 0.97426 0.0
C2300 C 0.94969 0.33471 0.98404 0.0
C2301 C 0.91273 0.38117 0.01758 0.0
C2302 C 0.92708 0.36737 0.00477 0.0
H2303 H 0.94707 0.26738 0.95282 0.0
H2304 H 0.93039 0.29775 0.97049 0.0
H2305 H 0.96961 0.33482 0.01239 0.0
H2306 H 0.91466 0.40953 0.06413 0.0
H2307 H 0.93814 0.39707 0.03579 0.0
C2308 C 0.91448 0.67342 0.14893 0.0
C2309 C 0.90522 0.69177 0.14025 0.0
C2310 C 0.90458 0.66247 0.16575 0.0
C2311 C 0.87032 0.6763 0.21071 0.0
H2312 H 0.88546 0.61909 0.22827 0.0
C2313 C 0.8921 0.65772 0.29693 0.0
C2314 C 0.88816 0.63725 0.30548 0.0
C2315 C 0.8874 0.66199 0.27555 0.0
C2316 C 0.88062 0.63496 0.22361 0.0
H2317 H 0.87692 0.71134 0.14047 0.0
H2318 H 0.85931 0.69183 0.16954 0.0
H2319 H 0.88704 0.62869 0.1906 0.0
H2320 H 0.87553 0.60533 0.29843 0.0
H2321 H 0.86703 0.6129 0.26113 0.0
H2322 H 0.86397 0.68261 0.24368 0.0
C2323 C 0.87464 0.68638 0.16385 0.0
C2324 C 0.88176 0.64055 0.202 0.0
C2325 C 0.88469 0.6975 0.14711 0.0
C2326 C 0.879 0.62122 0.29226 0.0
C2327 C 0.87412 0.62555 0.27088 0.0
C2328 C 0.86888 0.67062 0.23224 0.0
C2329 C 0.88504 0.66947 0.17414 0.0
C2330 C 0.87781 0.66164 0.19546 0.0
C2331 C 0.87843 0.64595 0.26223 0.0
C2332 C 0.87517 0.65028 0.23909 0.0
H2333 H 0.93017 0.66836 0.14384 0.0
H2334 H 0.91322 0.64963 0.17323 0.0
H2335 H 0.86714 0.69271 0.20641 0.0
H2336 H 0.8992 0.67042 0.30663 0.0
H2337 H 0.89144 0.67774 0.26935 0.0
C2338 C 0.52674 0.69498 0.4234 0.0
C2339 C 0.5061 0.70319 0.42129 0.0
C2340 C 0.53041 0.67794 0.43724 0.0
C2341 C 0.5126 0.66128 0.48842 0.0
H2342 H 0.55281 0.61553 0.48054 0.0
C2343 C 0.55774 0.62842 0.56051 0.0
C2344 C 0.57992 0.62719 0.55703 0.0
C2345 C 0.54362 0.62987 0.54318 0.0
C2346 C 0.54152 0.6282 0.48304 0.0
H2347 H 0.47285 0.69917 0.43082 0.0
H2348 H 0.47948 0.66977 0.45563 0.0
H2349 H 0.53708 0.63266 0.4493 0.0
H2350 H 0.60451 0.62537 0.53255 0.0
H2351 H 0.58028 0.62875 0.50273 0.0
H2352 H 0.51846 0.65852 0.5219 0.0
C2353 C 0.49269 0.67637 0.44635 0.0
C2354 C 0.53241 0.63784 0.46515 0.0
C2355 C 0.48895 0.69317 0.43218 0.0
C2356 C 0.58754 0.62638 0.53589 0.0
C2357 C 0.57352 0.62805 0.51867 0.0
C2358 C 0.52199 0.65194 0.50628 0.0
C2359 C 0.51356 0.66907 0.44945 0.0
C2360 C 0.51861 0.65508 0.46771 0.0
C2361 C 0.55143 0.63033 0.52205 0.0
C2362 C 0.53739 0.63602 0.50376 0.0
H2363 H 0.54022 0.70233 0.41508 0.0
H2364 H 0.5467 0.67275 0.43953 0.0
H2365 H 0.5021 0.67467 0.49081 0.0
H2366 H 0.55132 0.62875 0.5766 0.0
H2367 H 0.52666 0.63125 0.54637 0.0
C2368 C 0.84024 0.58937 0.7004 0.0
C2369 C 0.85227 0.5723 0.69265 0.0
C2370 C 0.83018 0.6031 0.68614 0.0
C2371 C 0.80632 0.59457 0.63385 0.0
H2372 H 0.77677 0.64615 0.6499 0.0
C2373 C 0.71959 0.633 0.61395 0.0
C2374 C 0.70702 0.61594 0.62225 0.0
C2375 C 0.74184 0.63366 0.61711 0.0
C2376 C 0.78521 0.63205 0.64481 0.0
H2377 H 0.86638 0.55841 0.66431 0.0
H2378 H 0.84959 0.58295 0.63941 0.0
H2379 H 0.81216 0.63922 0.66507 0.0
H2380 H 0.70792 0.58629 0.64028 0.0
H2381 H 0.7465 0.58731 0.64537 0.0
H2382 H 0.77876 0.58674 0.6148 0.0
C2383 C 0.84703 0.58517 0.65641 0.0
C2384 C 0.80536 0.62796 0.6536 0.0
C2385 C 0.85673 0.57115 0.67066 0.0
C2386 C 0.71707 0.59968 0.63375 0.0
C2387 C 0.73917 0.60016 0.63654 0.0
C2388 C 0.78631 0.59868 0.62512 0.0
C2389 C 0.83224 0.60014 0.66388 0.0
C2390 C 0.81548 0.60846 0.6493 0.0
C2391 C 0.75173 0.61703 0.62816 0.0
C2392 C 0.77508 0.61676 0.63155 0.0
H2393 H 0.83673 0.59078 0.71732 0.0
H2394 H 0.81901 0.61443 0.69262 0.0
H2395 H 0.81338 0.57934 0.6301 0.0
H2396 H 0.71224 0.64581 0.6051 0.0
H2397 H 0.75131 0.64687 0.61067 0.0
C2398 C 0.77121 0.5529 0.93729 0.0
C2399 C 0.76592 0.56601 0.95472 0.0
C2400 C 0.75786 0.53558 0.9315 0.0
C2401 C 0.70221 0.5149 0.93735 0.0
H2402 H 0.72664 0.46157 0.91847 0.0
C2403 C 0.67578 0.422 0.91459 0.0
C2404 C 0.65816 0.42564 0.90115 0.0
C2405 C 0.68795 0.43913 0.92277 0.0
C2406 C 0.71953 0.47627 0.92394 0.0
H2407 H 0.74272 0.57088 0.98005 0.0
H2408 H 0.71977 0.54051 0.9702 0.0
H2409 H 0.75024 0.49105 0.9296 0.0
H2410 H 0.63893 0.45013 0.88648 0.0
H2411 H 0.66042 0.48012 0.90049 0.0
H2412 H 0.67148 0.49992 0.9321 0.0
C2413 C 0.73395 0.54387 0.96071 0.0
C2414 C 0.73309 0.49327 0.93003 0.0
C2415 C 0.74721 0.56121 0.96643 0.0
C2416 C 0.65239 0.44682 0.89683 0.0
C2417 C 0.66468 0.464 0.90491 0.0
C2418 C 0.68864 0.49785 0.93132 0.0
C2419 C 0.73902 0.53095 0.94308 0.0
C2420 C 0.72459 0.5128 0.93675 0.0
C2421 C 0.68288 0.46031 0.91758 0.0
C2422 C 0.69715 0.47834 0.92452 0.0
H2423 H 0.78546 0.55622 0.9279 0.0
H2424 H 0.7621 0.52607 0.91768 0.0
H2425 H 0.69514 0.52983 0.94222 0.0
H2426 H 0.68047 0.40587 0.9185 0.0
H2427 H 0.70154 0.43576 0.93292 0.0
C2428 C 0.62815 0.40384 0.21037 0.0
C2429 C 0.63603 0.39888 0.2308 0.0
C2430 C 0.63661 0.39414 0.19221 0.0
C2431 C 0.67901 0.35642 0.1741 0.0
H2432 H 0.69684 0.40583 0.14057 0.0
C2433 C 0.7648 0.37396 0.15135 0.0
C2434 C 0.77012 0.3857 0.13287 0.0
C2435 C 0.74353 0.36876 0.156 0.0
C2436 C 0.6917 0.3916 0.14919 0.0
H2437 H 0.65699 0.37819 0.24856 0.0
H2438 H 0.67251 0.36197 0.21698 0.0
H2439 H 0.66539 0.40781 0.16276 0.0
H2440 H 0.75731 0.40007 0.10408 0.0
H2441 H 0.7199 0.39127 0.1125 0.0
H2442 H 0.70666 0.34097 0.16168 0.0
C2443 C 0.65952 0.37297 0.21478 0.0
C2444 C 0.67351 0.39269 0.16199 0.0
C2445 C 0.65075 0.38239 0.23297 0.0
C2446 C 0.75372 0.39126 0.1186 0.0
C2447 C 0.73232 0.38614 0.12335 0.0
C2448 C 0.6973 0.35536 0.16131 0.0
C2449 C 0.65348 0.37973 0.19416 0.0
C2450 C 0.66776 0.37562 0.17566 0.0
C2451 C 0.727 0.37521 0.14233 0.0
C2452 C 0.70454 0.37345 0.14983 0.0
H2453 H 0.61642 0.41621 0.20833 0.0
H2454 H 0.63115 0.39924 0.1766 0.0
H2455 H 0.67466 0.34279 0.184 0.0
H2456 H 0.77705 0.36912 0.16254 0.0
H2457 H 0.73999 0.36067 0.17094 0.0
C2458 C 0.85126 0.40605 0.47035 0.0
C2459 C 0.83377 0.40527 0.45612 0.0
C2460 C 0.86803 0.4209 0.46735 0.0
C2461 C 0.89143 0.45943 0.42838 0.0
H2462 H 0.8998 0.49633 0.47785 0.0
C2463 C 0.92134 0.54379 0.41501 0.0
C2464 C 0.90611 0.55817 0.42275 0.0
C2465 C 0.92238 0.52314 0.4234 0.0
C2466 C 0.89795 0.48603 0.46397 0.0
H2467 H 0.8207 0.4185 0.42695 0.0
H2468 H 0.84986 0.44444 0.42174 0.0
H2469 H 0.88177 0.46157 0.48206 0.0
H2470 H 0.8822 0.56314 0.44735 0.0
H2471 H 0.88367 0.52718 0.46159 0.0
H2472 H 0.90585 0.4845 0.40994 0.0
C2473 C 0.85073 0.43351 0.43514 0.0
C2474 C 0.88777 0.46605 0.46639 0.0
C2475 C 0.83391 0.41879 0.43822 0.0
C2476 C 0.89389 0.55238 0.44078 0.0
C2477 C 0.89487 0.53172 0.44909 0.0
C2478 C 0.90159 0.47937 0.42596 0.0
C2479 C 0.86769 0.43507 0.44995 0.0
C2480 C 0.88339 0.4531 0.4484 0.0
C2481 C 0.90818 0.51649 0.43961 0.0
C2482 C 0.90388 0.49338 0.44353 0.0
H2483 H 0.85163 0.39573 0.48425 0.0
H2484 H 0.88095 0.42171 0.47893 0.0
H2485 H 0.88858 0.44958 0.41432 0.0
H2486 H 0.93138 0.5479 0.40144 0.0
H2487 H 0.93317 0.5119 0.41611 0.0
C2488 C 0.77886 0.49711 0.75911 0.0
C2489 C 0.79176 0.49157 0.74169 0.0
C2490 C 0.75982 0.48561 0.76315 0.0
C2491 C 0.71659 0.4626 0.76533 0.0
H2492 H 0.7224 0.4011 0.75977 0.0
C2493 C 0.6528 0.40566 0.79999 0.0
C2494 C 0.66135 0.39 0.81353 0.0
C2495 C 0.66592 0.41659 0.78539 0.0
C2496 C 0.72047 0.41823 0.76133 0.0
H2497 H 0.79418 0.47096 0.71384 0.0
H2498 H 0.76076 0.45137 0.72051 0.0
H2499 H 0.75042 0.42495 0.7461 0.0
H2500 H 0.68989 0.37213 0.82082 0.0
H2501 H 0.71272 0.39133 0.79568 0.0
H2502 H 0.68733 0.45579 0.78188 0.0
C2503 C 0.76557 0.46405 0.73147 0.0
C2504 C 0.73642 0.43196 0.75327 0.0
C2505 C 0.78466 0.47534 0.7276 0.0
C2506 C 0.68279 0.38418 0.81076 0.0
C2507 C 0.6959 0.39516 0.79622 0.0
C2508 C 0.70068 0.44886 0.77349 0.0
C2509 C 0.75329 0.46855 0.74968 0.0
C2510 C 0.73494 0.45429 0.75567 0.0
C2511 C 0.68782 0.4121 0.78403 0.0
C2512 C 0.70274 0.4265 0.7721 0.0
H2513 H 0.78399 0.50955 0.77021 0.0
H2514 H 0.75085 0.48939 0.77743 0.0
H2515 H 0.71481 0.47972 0.76715 0.0
H2516 H 0.63626 0.41034 0.80147 0.0
H2517 H 0.65912 0.42923 0.77586 0.0
C2518 C 0.85703 0.59182 0.03273 0.0
C2519 C 0.84033 0.60647 0.03224 0.0
C2520 C 0.86259 0.58193 0.05189 0.0
C2521 C 0.83328 0.56398 0.09856 0.0
H2522 H 0.88529 0.53213 0.10623 0.0
C2523 C 0.83146 0.47847 0.13238 0.0
C2524 C 0.83897 0.46479 0.11628 0.0
C2525 C 0.83603 0.50052 0.13147 0.0
C2526 C 0.87077 0.5412 0.10472 0.0
H2527 H 0.81842 0.62455 0.05186 0.0
H2528 H 0.82832 0.60746 0.08536 0.0
H2529 H 0.88673 0.5663 0.08731 0.0
H2530 H 0.85818 0.46314 0.08742 0.0
H2531 H 0.86612 0.50127 0.08589 0.0
H2532 H 0.81709 0.53811 0.11456 0.0
C2533 C 0.8367 0.60314 0.07086 0.0
C2534 C 0.87155 0.56068 0.09381 0.0
C2535 C 0.83102 0.6129 0.05165 0.0
C2536 C 0.85184 0.47333 0.09985 0.0
C2537 C 0.85674 0.49513 0.0992 0.0
C2538 C 0.83254 0.5446 0.10961 0.0
C2539 C 0.85164 0.58664 0.07098 0.0
C2540 C 0.85253 0.57139 0.08916 0.0
C2541 C 0.84865 0.509 0.11478 0.0
C2542 C 0.85099 0.53232 0.11132 0.0
H2543 H 0.86468 0.5867 0.01808 0.0
H2544 H 0.87409 0.56922 0.05126 0.0
H2545 H 0.81828 0.57175 0.09536 0.0
H2546 H 0.82165 0.47223 0.14532 0.0
H2547 H 0.82944 0.51097 0.14353 0.0
C2548 C 0.69903 0.46818 0.32097 0.0
C2549 C 0.68883 0.47499 0.30217 0.0
C2550 C 0.71721 0.47919 0.32868 0.0
C2551 C 0.74262 0.53246 0.32739 0.0
H2552 H 0.79338 0.5041 0.34775 0.0
C2553 C 0.83514 0.5558 0.34999 0.0
C2554 C 0.83226 0.57306 0.36413 0.0
C2555 C 0.81767 0.54322 0.34322 0.0
C2556 C 0.7793 0.5122 0.34208 0.0
H2557 H 0.69025 0.49816 0.27627 0.0
H2558 H 0.72184 0.51723 0.28975 0.0
H2559 H 0.76314 0.48268 0.33381 0.0
H2560 H 0.80868 0.59066 0.38216 0.0
H2561 H 0.77812 0.56873 0.37012 0.0
H2562 H 0.75876 0.56196 0.33545 0.0
C2563 C 0.71563 0.50358 0.29864 0.0
C2564 C 0.76198 0.49996 0.33426 0.0
C2565 C 0.6976 0.49254 0.29088 0.0
C2566 C 0.81147 0.5775 0.37127 0.0
C2567 C 0.79396 0.565 0.36433 0.0
C2568 C 0.75982 0.54467 0.33536 0.0
C2569 C 0.72539 0.49725 0.3178 0.0
C2570 C 0.74358 0.51001 0.32666 0.0
C2571 C 0.79692 0.54773 0.35028 0.0
C2572 C 0.77839 0.53467 0.34262 0.0
H2573 H 0.6927 0.4547 0.33002 0.0
H2574 H 0.72444 0.47403 0.34353 0.0
H2575 H 0.7285 0.54059 0.32185 0.0
H2576 H 0.85092 0.55187 0.34421 0.0
H2577 H 0.82036 0.53015 0.33218 0.0
C2578 C 0.7362 0.42623 0.51972 0.0
C2579 C 0.73176 0.41612 0.50008 0.0
C2580 C 0.72186 0.44062 0.52841 0.0
C2581 C 0.68481 0.46232 0.54908 0.0
H2582 H 0.66052 0.50521 0.51201 0.0
C2583 C 0.64059 0.5331 0.58502 0.0
C2584 C 0.64684 0.55315 0.57664 0.0
C2585 C 0.64544 0.51428 0.57411 0.0
C2586 C 0.66715 0.49332 0.52258 0.0
H2587 H 0.7087 0.41293 0.47419 0.0
H2588 H 0.68339 0.43801 0.48957 0.0
H2589 H 0.68059 0.47603 0.49643 0.0
H2590 H 0.66209 0.56919 0.5497 0.0
H2591 H 0.67116 0.53652 0.53113 0.0
H2592 H 0.67278 0.48031 0.5753 0.0
C2593 C 0.69813 0.43496 0.4981 0.0
C2594 C 0.67844 0.47645 0.51363 0.0
C2595 C 0.71259 0.42059 0.48933 0.0
C2596 C 0.65705 0.55401 0.55663 0.0
C2597 C 0.66211 0.53522 0.54586 0.0
C2598 C 0.67372 0.47926 0.55803 0.0
C2599 C 0.70264 0.44514 0.51775 0.0
C2600 C 0.68798 0.46115 0.52684 0.0
C2601 C 0.65685 0.51511 0.55472 0.0
C2602 C 0.66531 0.49533 0.54493 0.0
H2603 H 0.75089 0.42319 0.52835 0.0
H2604 H 0.72608 0.44854 0.54332 0.0
H2605 H 0.69156 0.45052 0.55967 0.0
H2606 H 0.6324 0.53191 0.60026 0.0
H2607 H 0.64076 0.49907 0.58117 0.0
C2608 C 0.74702 0.81961 0.59952 0.0
C2609 C 0.74456 0.83644 0.58491 0.0
C2610 C 0.72928 0.80737 0.60612 0.0
C2611 C 0.67843 0.78957 0.58344 0.0
H2612 H 0.67487 0.757 0.63614 0.0
C2613 C 0.63426 0.70831 0.61986 0.0
C2614 C 0.63975 0.69424 0.60322 0.0
C2615 C 0.64164 0.72962 0.61965 0.0
C2616 C 0.6753 0.76624 0.62148 0.0
H2617 H 0.7213 0.85506 0.5675 0.0
H2618 H 0.69033 0.83376 0.57919 0.0
H2619 H 0.69787 0.7891 0.6345 0.0
H2620 H 0.65642 0.69169 0.5729 0.0
H2621 H 0.66918 0.72871 0.57252 0.0
H2622 H 0.65659 0.76625 0.57016 0.0
C2623 C 0.70603 0.82975 0.58517 0.0
C2624 C 0.68861 0.7845 0.62049 0.0
C2625 C 0.72379 0.84196 0.5785 0.0
C2626 C 0.65201 0.70209 0.58601 0.0
C2627 C 0.65914 0.72337 0.58569 0.0
C2628 C 0.66519 0.77135 0.58443 0.0
C2629 C 0.7087 0.81178 0.59832 0.0
C2630 C 0.69101 0.79581 0.60117 0.0
C2631 C 0.65433 0.73726 0.60265 0.0
C2632 C 0.66424 0.75899 0.60316 0.0
H2633 H 0.76277 0.81504 0.6049 0.0
H2634 H 0.73195 0.79353 0.61613 0.0
H2635 H 0.67998 0.7978 0.56826 0.0
H2636 H 0.62486 0.70271 0.63337 0.0
H2637 H 0.63771 0.74003 0.6329 0.0
C2638 C 0.15326 0.65562 0.40853 0.0
C2639 C 0.17353 0.64647 0.40976 0.0
C2640 C 0.14591 0.6638 0.38919 0.0
C2641 C 0.13382 0.68508 0.34857 0.0
H2642 H 0.18273 0.71885 0.329 0.0
C2643 C 0.12177 0.77208 0.32984 0.0
C2644 C 0.13645 0.78517 0.34122 0.0
C2645 C 0.1265 0.75079 0.32526 0.0
C2646 C 0.16883 0.70956 0.33417 0.0
H2647 H 0.20048 0.6355 0.39115 0.0
H2648 H 0.18739 0.6493 0.35719 0.0
H2649 H 0.18839 0.68489 0.34629 0.0
H2650 H 0.16834 0.78696 0.35487 0.0
H2651 H 0.17625 0.74987 0.34797 0.0
H2652 H 0.1145 0.71106 0.3391 0.0
C2653 C 0.17751 0.65097 0.3713 0.0
C2654 C 0.17204 0.68975 0.34382 0.0
C2655 C 0.18499 0.64299 0.39076 0.0
C2656 C 0.15667 0.77722 0.34619 0.0
C2657 C 0.16125 0.75585 0.34198 0.0
C2658 C 0.13066 0.70517 0.33946 0.0
C2659 C 0.15863 0.66285 0.3706 0.0
C2660 C 0.15468 0.67816 0.35281 0.0
C2661 C 0.14581 0.74204 0.33239 0.0
C2662 C 0.14832 0.71839 0.33381 0.0
H2663 H 0.14388 0.65823 0.42284 0.0
H2664 H 0.13127 0.67277 0.38952 0.0
H2665 H 0.11999 0.67609 0.35438 0.0
H2666 H 0.1062 0.77799 0.32536 0.0
H2667 H 0.11447 0.74088 0.31728 0.0
C2668 C 0.54052 0.96302 0.78469 0.0
C2669 C 0.55164 0.9782 0.77213 0.0
C2670 C 0.52356 0.95094 0.77597 0.0
C2671 C 0.50247 0.93246 0.72387 0.0
H2672 H 0.45102 0.91871 0.75618 0.0
C2673 C 0.41151 0.90097 0.70607 0.0
C2674 C 0.41546 0.88459 0.69119 0.0
C2675 C 0.42825 0.91035 0.71779 0.0
C2676 C 0.46529 0.92245 0.74695 0.0
H2677 H 0.55317 0.99339 0.74095 0.0
H2678 H 0.52327 0.97264 0.7259 0.0
H2679 H 0.47935 0.94072 0.77257 0.0
H2680 H 0.44004 0.86445 0.67785 0.0
H2681 H 0.46926 0.88066 0.69863 0.0
H2682 H 0.48813 0.91493 0.69799 0.0
C2683 C 0.52799 0.96967 0.74228 0.0
C2684 C 0.48158 0.9349 0.7564 0.0
C2685 C 0.545 0.98167 0.75096 0.0
C2686 C 0.43644 0.87714 0.68904 0.0
C2687 C 0.45321 0.8865 0.70085 0.0
C2688 C 0.48617 0.92009 0.71442 0.0
C2689 C 0.51736 0.95389 0.75457 0.0
C2690 C 0.50024 0.94023 0.74486 0.0
C2691 C 0.44934 0.90351 0.71501 0.0
C2692 C 0.46731 0.91512 0.72577 0.0
H2693 H 0.5453 0.96 0.80107 0.0
H2694 H 0.51576 0.93881 0.78581 0.0
H2695 H 0.51682 0.93598 0.7147 0.0
H2696 H 0.39556 0.90712 0.7082 0.0
H2697 H 0.42475 0.92357 0.72838 0.0
C2698 C 0.3625 0.32534 0.94043 0.0
C2699 C 0.34679 0.34097 0.94227 0.0
C2700 C 0.36573 0.31492 0.92094 0.0
C2701 C 0.33416 0.29897 0.87415 0.0
H2702 H 0.38656 0.2695 0.86141 0.0
C2703 C 0.37005 0.21522 0.8387 0.0
C2704 C 0.35529 0.20202 0.84982 0.0
C2705 C 0.36763 0.23742 0.83841 0.0
C2706 C 0.37181 0.27789 0.86408 0.0
H2707 H 0.32361 0.35943 0.92459 0.0
H2708 H 0.32947 0.34141 0.89052 0.0
H2709 H 0.38788 0.30102 0.88403 0.0
H2710 H 0.32451 0.20142 0.86592 0.0
H2711 H 0.32061 0.23975 0.86597 0.0
H2712 H 0.31801 0.27546 0.85468 0.0
C2713 C 0.33893 0.33685 0.90425 0.0
C2714 C 0.37257 0.29586 0.8774 0.0
C2715 C 0.33562 0.3472 0.92379 0.0
C2716 C 0.33644 0.21111 0.85762 0.0
C2717 C 0.33414 0.23328 0.8575 0.0
C2718 C 0.33343 0.28114 0.8606 0.0
C2719 C 0.35342 0.32001 0.9028 0.0
C2720 C 0.35359 0.30569 0.88375 0.0
C2721 C 0.35052 0.24678 0.84935 0.0
C2722 C 0.35204 0.26949 0.85664 0.0
H2723 H 0.37144 0.32021 0.95431 0.0
H2724 H 0.37686 0.30187 0.92056 0.0
H2725 H 0.31919 0.30622 0.87854 0.0
H2726 H 0.38449 0.20868 0.83197 0.0
H2727 H 0.38017 0.24731 0.83129 0.0
C2728 C 0.43793 0.49885 0.73121 0.0
C2729 C 0.44046 0.47685 0.73488 0.0
C2730 C 0.45366 0.51075 0.72036 0.0
C2731 C 0.4999 0.5047 0.6839 0.0
H2732 H 0.51351 0.5629 0.70189 0.0
C2733 C 0.5738 0.55361 0.65414 0.0
C2734 C 0.57068 0.57528 0.64917 0.0
C2735 C 0.55734 0.54126 0.66334 0.0
C2736 C 0.5097 0.54674 0.69654 0.0
H2737 H 0.46171 0.45018 0.73038 0.0
H2738 H 0.48941 0.47106 0.71194 0.0
H2739 H 0.4864 0.54205 0.72119 0.0
H2740 H 0.54751 0.60074 0.64937 0.0
H2741 H 0.51886 0.57913 0.66547 0.0
H2742 H 0.52361 0.50938 0.65949 0.0
C2743 C 0.47503 0.47902 0.717 0.0
C2744 C 0.49415 0.53479 0.70758 0.0
C2745 C 0.45921 0.46708 0.72771 0.0
C2746 C 0.55051 0.58412 0.65302 0.0
C2747 C 0.53412 0.57181 0.66237 0.0
C2748 C 0.51558 0.51662 0.67296 0.0
C2749 C 0.47239 0.50097 0.71308 0.0
C2750 C 0.48904 0.51363 0.70138 0.0
C2751 C 0.53747 0.55035 0.66789 0.0
C2752 C 0.5206 0.53776 0.67916 0.0
H2753 H 0.42361 0.50685 0.73639 0.0
H2754 H 0.45095 0.52754 0.71734 0.0
H2755 H 0.4961 0.48858 0.67846 0.0
H2756 H 0.5891 0.54627 0.65133 0.0
H2757 H 0.56038 0.52478 0.66754 0.0
C2758 C 0.74649 0.21079 0.97439 0.0
C2759 C 0.7266 0.20398 0.98275 0.0
C2760 C 0.75892 0.22628 0.98504 0.0
C2761 C 0.77902 0.26553 0.00617 0.0
H2762 H 0.77836 0.26298 0.06821 0.0
C2763 C 0.80166 0.32493 0.07859 0.0
C2764 C 0.82317 0.33041 0.07443 0.0
C2765 C 0.79179 0.3077 0.06811 0.0
C2766 C 0.77874 0.26376 0.05089 0.0
H2767 H 0.70345 0.20908 0.00797 0.0
H2768 H 0.72478 0.23677 0.02617 0.0
H2769 H 0.75634 0.23766 0.04761 0.0
H2770 H 0.85148 0.32206 0.05652 0.0
H2771 H 0.83386 0.29189 0.03756 0.0
H2772 H 0.80164 0.29163 0.00967 0.0
C2773 C 0.73113 0.22958 0.01179 0.0
C2774 C 0.76597 0.24946 0.03908 0.0
C2775 C 0.71879 0.2139 0.00125 0.0
C2776 C 0.8349 0.31799 0.06003 0.0
C2777 C 0.82484 0.30092 0.04915 0.0
C2778 C 0.792 0.27969 0.01802 0.0
C2779 C 0.75162 0.23548 0.00416 0.0
C2780 C 0.76566 0.25042 0.01659 0.0
C2781 C 0.80314 0.29583 0.05299 0.0
C2782 C 0.79168 0.27912 0.04047 0.0
H2783 H 0.75297 0.20342 0.96015 0.0
H2784 H 0.77465 0.23033 0.97877 0.0
H2785 H 0.77904 0.26683 0.98889 0.0
H2786 H 0.79233 0.33424 0.08972 0.0
H2787 H 0.775 0.30418 0.0712 0.0
C2788 C 0.59847 0.04439 0.86627 0.0
C2789 C 0.59864 0.05124 0.84485 0.0
C2790 C 0.58646 0.05522 0.88156 0.0
C2791 C 0.54986 0.10168 0.88842 0.0
H2792 H 0.51229 0.05812 0.9131 0.0
C2793 C 0.4556 0.08499 0.89197 0.0
C2794 C 0.44874 0.10596 0.89531 0.0
C2795 C 0.47687 0.07977 0.89596 0.0
C2796 C 0.52266 0.07055 0.90646 0.0
H2797 H 0.58879 0.07631 0.82324 0.0
H2798 H 0.56757 0.09479 0.84949 0.0
H2799 H 0.54753 0.04847 0.90062 0.0
H2800 H 0.45799 0.13729 0.90775 0.0
H2801 H 0.49495 0.12803 0.91527 0.0
H2802 H 0.52412 0.12322 0.89207 0.0
C2803 C 0.57666 0.08121 0.85477 0.0
C2804 C 0.54309 0.0651 0.89959 0.0
C2805 C 0.58874 0.07047 0.83956 0.0
C2806 C 0.46298 0.12108 0.90459 0.0
C2807 C 0.48417 0.11579 0.90886 0.0
C2808 C 0.52931 0.10706 0.895 0.0
C2809 C 0.57436 0.073 0.87564 0.0
C2810 C 0.5564 0.08031 0.88924 0.0
C2811 C 0.49164 0.09537 0.90365 0.0
C2812 C 0.515 0.09123 0.90288 0.0
H2813 H 0.60628 0.02978 0.8709 0.0
H2814 H 0.58546 0.04879 0.89763 0.0
H2815 H 0.55995 0.11393 0.88108 0.0
H2816 H 0.44498 0.07299 0.88488 0.0
H2817 H 0.482 0.06393 0.89149 0.0
C2818 C 0.91723 0.90208 0.30385 0.0
C2819 C 0.9049 0.92059 0.3038 0.0
C2820 C 0.92723 0.89539 0.32257 0.0
C2821 C 0.9492 0.91884 0.37188 0.0
H2822 H 0.96919 0.86082 0.37709 0.0
C2823 C 0.0269 0.86574 0.39745 0.0
C2824 C 0.04187 0.88023 0.38841 0.0
C2825 C 0.00534 0.87116 0.39915 0.0
C2826 C 0.96351 0.87706 0.37658 0.0
H2827 H 0.89192 0.94564 0.32379 0.0
H2828 H 0.90911 0.9337 0.35664 0.0
H2829 H 0.93742 0.86759 0.35626 0.0
H2830 H 0.04656 0.9129 0.37727 0.0
H2831 H 0.00937 0.92198 0.37934 0.0
H2832 H 0.97538 0.92833 0.3921 0.0
C2833 C 0.91148 0.92465 0.34206 0.0
C2834 C 0.94538 0.88098 0.36423 0.0
C2835 C 0.90159 0.93146 0.32323 0.0
C2836 C 0.03541 0.90114 0.38387 0.0
C2837 C 0.01389 0.90645 0.38529 0.0
C2838 C 0.96707 0.91486 0.38463 0.0
C2839 C 0.92498 0.90692 0.34181 0.0
C2840 C 0.93906 0.90208 0.36036 0.0
C2841 C -0.00165 0.89104 0.39157 0.0
C2842 C 0.97548 0.89416 0.38569 0.0
H2843 H 0.92006 0.89328 0.2892 0.0
H2844 H 0.93778 0.8819 0.32154 0.0
H2845 H 0.94467 0.93531 0.36957 0.0
H2846 H 0.03144 0.84965 0.40167 0.0
H2847 H 0.99395 0.85915 0.40482 0.0
C2848 C 0.45436 0.29126 0.18945 0.0
C2849 C 0.46743 0.30412 0.17626 0.0
C2850 C 0.43809 0.30038 0.20149 0.0
C2851 C 0.39931 0.32133 0.2202 0.0
H2852 H 0.41333 0.37615 0.24654 0.0
C2853 C 0.36531 0.38598 0.28576 0.0
C2854 C 0.36385 0.37251 0.30373 0.0
C2855 C 0.37284 0.37814 0.26631 0.0
C2856 C 0.40896 0.36105 0.23896 0.0
H2857 H 0.4732 0.3363 0.16435 0.0
H2858 H 0.44431 0.35213 0.1847 0.0
H2859 H 0.43727 0.36155 0.22 0.0
H2860 H 0.36726 0.33988 0.31493 0.0
H2861 H 0.3803 0.32621 0.28089 0.0
H2862 H 0.37168 0.32038 0.24059 0.0
C2863 C 0.44703 0.33516 0.18642 0.0
C2864 C 0.42266 0.35265 0.22368 0.0
C2865 C 0.46356 0.3261 0.17473 0.0
C2866 C 0.36847 0.3507 0.30143 0.0
C2867 C 0.37573 0.34282 0.28191 0.0
C2868 C 0.38575 0.32962 0.23578 0.0
C2869 C 0.43432 0.32248 0.20025 0.0
C2870 C 0.41829 0.33246 0.21446 0.0
C2871 C 0.37871 0.35665 0.26444 0.0
C2872 C 0.39073 0.34935 0.24558 0.0
H2873 H 0.45705 0.27424 0.19088 0.0
H2874 H 0.42895 0.29016 0.21225 0.0
H2875 H 0.39518 0.30597 0.21308 0.0
H2876 H 0.36176 0.40284 0.28699 0.0
H2877 H 0.37492 0.38905 0.25298 0.0
C2878 C 0.4563 0.67124 0.92037 0.0
C2879 C 0.47323 0.68346 0.91159 0.0
C2880 C 0.45966 0.65866 0.9384 0.0
C2881 C 0.47308 0.62841 0.97389 0.0
H2882 H 0.48868 0.6667 0.02056 0.0
C2883 C 0.46373 0.63968 0.07173 0.0
C2884 C 0.44219 0.63269 0.0728 0.0
C2885 C 0.47475 0.63934 0.05227 0.0
C2886 C 0.48495 0.65542 0.00784 0.0
H2887 H 0.50715 0.69139 0.91408 0.0
H2888 H 0.51279 0.6699 0.94632 0.0
H2889 H 0.4956 0.67765 0.98393 0.0
H2890 H 0.41582 0.61854 0.05455 0.0
H2891 H 0.43458 0.61869 0.02079 0.0
H2892 H 0.46161 0.60651 -0.00228 0.0
C2893 C 0.49708 0.66984 0.93893 0.0
C2894 C 0.4889 0.66176 0.9868 0.0
C2895 C 0.49382 0.68212 0.92057 0.0
C2896 C 0.43235 0.62419 0.05432 0.0
C2897 C 0.44326 0.62402 0.03491 0.0
C2898 C 0.46943 0.6219 0.99495 0.0
C2899 C 0.47991 0.65836 0.9482 0.0
C2900 C 0.48188 0.64883 0.96968 0.0
C2901 C 0.46439 0.63216 0.03349 0.0
C2902 C 0.47409 0.63592 0.01209 0.0
H2903 H 0.44032 0.67186 0.91364 0.0
H2904 H 0.44608 0.65018 0.94544 0.0
H2905 H 0.46778 0.61808 0.96088 0.0
H2906 H 0.4719 0.64599 0.08577 0.0
H2907 H 0.49112 0.6454 0.0518 0.0
C2908 C 0.04401 0.72331 0.67365 0.0
C2909 C 0.04521 0.7451 0.67927 0.0
C2910 C 0.05388 0.708 0.68635 0.0
C2911 C 0.0925 0.70188 0.73148 0.0
H2912 H 0.05831 0.65069 0.74349 0.0
C2913 C 0.09637 0.65568 0.81015 0.0
C2914 C 0.0973 0.63323 0.80946 0.0
C2915 C 0.09346 0.66738 0.79147 0.0
C2916 C 0.06822 0.66471 0.73998 0.0
H2917 H 0.05814 0.76804 0.70223 0.0
H2918 H 0.07476 0.74138 0.72475 0.0
H2919 H 0.04688 0.67518 0.71558 0.0
H2920 H 0.09605 0.6054 0.78864 0.0
H2921 H 0.0902 0.62605 0.75578 0.0
H2922 H 0.11306 0.69193 0.75691 0.0
C2923 C 0.06667 0.73605 0.71029 0.0
C2924 C 0.06173 0.67874 0.72397 0.0
C2925 C 0.05699 0.75137 0.69746 0.0
C2926 C 0.09539 0.6227 0.78961 0.0
C2927 C 0.09204 0.63445 0.77088 0.0
C2928 C 0.09881 0.68798 0.74766 0.0
C2929 C 0.06498 0.71414 0.70506 0.0
C2930 C 0.07349 0.6978 0.71992 0.0
C2931 C 0.09109 0.65689 0.77171 0.0
C2932 C 0.08642 0.66958 0.7524 0.0
H2933 H 0.0352 0.71803 0.65958 0.0
H2934 H 0.05257 0.69132 0.68165 0.0
H2935 H 0.10221 0.71612 0.72844 0.0
H2936 H 0.09799 0.66428 0.82517 0.0
H2937 H 0.09252 0.68466 0.79255 0.0
C2938 C 0.98827 0.31486 0.41091 0.0
C2939 C -0.00147 0.30722 0.39253 0.0
C2940 C -5e-05 0.32635 0.4264 0.0
C2941 C 0.05543 0.32904 0.44575 0.0
H2942 H 0.03173 0.36761 0.48777 0.0
C2943 C 0.10025 0.35053 0.52396 0.0
C2944 C 0.08773 0.34754 0.54247 0.0
C2945 C 0.0906 0.35086 0.50375 0.0
C2946 C 0.03858 0.35692 0.47609 0.0
H2947 H 0.02826 0.3077 0.37465 0.0
H2948 H 0.04841 0.32845 0.40123 0.0
H2949 H 0.01221 0.36038 0.4545 0.0
H2950 H 0.05518 0.34331 0.55422 0.0
H2951 H 0.03851 0.34376 0.51906 0.0
H2952 H 0.08147 0.3251 0.46756 0.0
C2953 C 0.03162 0.32487 0.40417 0.0
C2954 C 0.02741 0.35274 0.45707 0.0
C2955 C 0.02005 0.31312 0.38887 0.0
C2956 C 0.06535 0.34546 0.54032 0.0
C2957 C 0.05574 0.34598 0.52018 0.0
C2958 C 0.06665 0.33334 0.46466 0.0
C2959 C 0.02201 0.33064 0.42363 0.0
C2960 C 0.03539 0.33823 0.44196 0.0
C2961 C 0.06826 0.34845 0.50167 0.0
C2962 C 0.05803 0.34679 0.4803 0.0
H2963 H 0.9717 0.31052 0.41417 0.0
H2964 H 0.992 0.33041 0.44121 0.0
H2965 H 0.06195 0.31748 0.43473 0.0
H2966 H 0.11751 0.35229 0.52505 0.0
H2967 H 0.10063 0.35286 0.48972 0.0
C2968 C 0.43337 0.78968 0.32796 0.0
C2969 C 0.43849 0.77557 0.34459 0.0
C2970 C 0.42073 0.78254 0.31075 0.0
C2971 C 0.38891 0.73562 0.28956 0.0
H2972 H 0.42329 0.74564 0.2388 0.0
C2973 C 0.39869 0.67296 0.22326 0.0
C2974 C 0.40268 0.6797 0.20218 0.0
C2975 C 0.39619 0.68798 0.23963 0.0
C2976 C 0.41307 0.74298 0.25258 0.0
H2977 H 0.43223 0.74389 0.35765 0.0
H2978 H 0.4105 0.73143 0.32776 0.0
H2979 H 0.4294 0.76762 0.27024 0.0
H2980 H 0.40567 0.7075 0.18147 0.0
H2981 H 0.40101 0.73362 0.20994 0.0
H2982 H 0.37336 0.71015 0.27205 0.0
C2983 C 0.41616 0.74795 0.3278 0.0
C2984 C 0.41655 0.75569 0.27067 0.0
C2985 C 0.42884 0.75503 0.34488 0.0
C2986 C 0.40303 0.70175 0.19763 0.0
C2987 C 0.40035 0.71675 0.21394 0.0
C2988 C 0.38538 0.72289 0.27139 0.0
C2989 C 0.41293 0.76124 0.31001 0.0
C2990 C 0.40514 0.75159 0.28964 0.0
C2991 C 0.39744 0.71006 0.23522 0.0
C2992 C 0.39804 0.7259 0.25299 0.0
H2993 H 0.44044 0.80567 0.32739 0.0
H2994 H 0.4182 0.79325 0.2974 0.0
H2995 H 0.37966 0.73228 0.30386 0.0
H2996 H 0.39824 0.65609 0.22729 0.0
H2997 H 0.39426 0.68226 0.25588 0.0
C2998 C 0.00255 0.64782 0.07358 0.0
C2999 C 0.00996 0.66267 0.08894 0.0
C3000 C 0.0169 0.63487 0.06278 0.0
C3001 C 0.07221 0.63924 0.04494 0.0
H3002 H 0.05628 0.58672 0.01517 0.0
C3003 C 0.11499 0.61411 0.96775 0.0
C3004 C 0.10038 0.61126 0.95077 0.0
C3005 C 0.10779 0.61427 0.98894 0.0
C3006 C 0.06109 0.60126 0.02354 0.0
H3007 H 0.03786 0.67394 0.10675 0.0
H3008 H 0.06296 0.65104 0.08806 0.0
H3009 H 0.03642 0.59723 0.04704 0.0
H3010 H 0.06697 0.60505 0.94277 0.0
H3011 H 0.05447 0.60537 0.97959 0.0
H3012 H 0.09618 0.64378 0.02089 0.0
C3013 C 0.0461 0.64979 0.08401 0.0
C3014 C 0.04972 0.60731 0.04174 0.0
C3015 C 0.03172 0.66284 0.09477 0.0
C3016 C 0.07861 0.60752 0.95546 0.0
C3017 C 0.07148 0.60743 0.97659 0.0
C3018 C 0.08367 0.6331 0.02687 0.0
C3019 C 0.03899 0.63641 0.06718 0.0
C3020 C 0.05444 0.62693 0.05197 0.0
C3021 C 0.0859 0.61125 0.99352 0.0
C3022 C 0.07752 0.61461 0.0154 0.0
H3023 H 0.98584 0.64718 0.06885 0.0
H3024 H 0.0108 0.62491 0.04984 0.0
H3025 H 0.07622 0.65455 0.05225 0.0
H3026 H 0.13189 0.61694 0.96466 0.0
H3027 H 0.11923 0.61723 0.00172 0.0
C3028 C 0.05398 0.2961 0.84694 0.0
C3029 C 0.04219 0.27684 0.84887 0.0
C3030 C 0.06509 0.30081 0.82817 0.0
C3031 C 0.08189 0.2794 0.77516 0.0
H3032 H 0.07177 0.3379 0.75773 0.0
C3033 C 0.0877 0.3108 0.68774 0.0
C3034 C 0.09679 0.33142 0.68489 0.0
C3035 C 0.08454 0.30255 0.70832 0.0
C3036 C 0.07504 0.32161 0.76246 0.0
H3037 H 0.03382 0.24673 0.83341 0.0
H3038 H 0.05259 0.25528 0.80008 0.0
H3039 H 0.06071 0.32611 0.79298 0.0
H3040 H 0.11071 0.35902 0.70148 0.0
H3041 H 0.10514 0.34463 0.73718 0.0
H3042 H 0.09553 0.27493 0.74397 0.0
C3043 C 0.05366 0.26659 0.81323 0.0
C3044 C 0.06877 0.31483 0.78274 0.0
C3045 C 0.04286 0.26169 0.83227 0.0
C3046 C 0.1034 0.34321 0.70303 0.0
C3047 C 0.10021 0.33499 0.72351 0.0
C3048 C 0.08805 0.28619 0.75468 0.0
C3049 C 0.06419 0.28658 0.81069 0.0
C3050 C 0.07212 0.29367 0.7894 0.0
C3051 C 0.09035 0.31478 0.72639 0.0
C3052 C 0.08466 0.30738 0.74818 0.0
H3053 H 0.05397 0.3079 0.85969 0.0
H3054 H 0.07362 0.31605 0.82701 0.0
H3055 H 0.08478 0.26302 0.77983 0.0
H3056 H 0.08255 0.30122 0.67413 0.0
H3057 H 0.07678 0.28697 0.7101 0.0
C3058 C 0.41032 0.30015 0.58428 0.0
C3059 C 0.43163 0.29412 0.58138 0.0
C3060 C 0.40214 0.31726 0.57279 0.0
C3061 C 0.41725 0.3613 0.53465 0.0
H3062 H 0.36126 0.34722 0.51095 0.0
C3063 C 0.38922 0.38151 0.45 0.0
C3064 C 0.36739 0.3853 0.44644 0.0
C3065 C 0.39674 0.37768 0.47065 0.0
C3066 C 0.37668 0.35175 0.51777 0.0
H3067 H 0.46141 0.30159 0.56502 0.0
H3068 H 0.44687 0.33062 0.54394 0.0
H3069 H 0.37502 0.32603 0.53997 0.0
H3070 H 0.33677 0.39015 0.46202 0.0
H3071 H 0.34995 0.38321 0.498 0.0
H3072 H 0.41932 0.38608 0.51097 0.0
C3073 C 0.43657 0.32274 0.55556 0.0
C3074 C 0.38461 0.33959 0.53451 0.0
C3075 C 0.44488 0.30593 0.56744 0.0
C3076 C 0.35361 0.38691 0.46414 0.0
C3077 C 0.36113 0.38301 0.48476 0.0
C3078 C 0.40938 0.37333 0.51763 0.0
C3079 C 0.41496 0.32831 0.55775 0.0
C3080 C 0.40528 0.34375 0.54272 0.0
C3081 C 0.38256 0.37754 0.48808 0.0
C3082 C 0.38928 0.36821 0.50866 0.0
H3083 H 0.39992 0.29154 0.59531 0.0
H3084 H 0.38559 0.32144 0.5753 0.0
H3085 H 0.43303 0.36524 0.54091 0.0
H3086 H 0.40034 0.38045 0.43677 0.0
H3087 H 0.41332 0.37336 0.47274 0.0
C3088 C 0.14182 0.44403 0.24424 0.0
C3089 C 0.13312 0.45919 0.25822 0.0
C3090 C 0.15478 0.42791 0.25219 0.0
C3091 C 0.17527 0.40238 0.30146 0.0
H3092 H 0.23088 0.41422 0.27614 0.0
C3093 C 0.25237 0.40244 0.35045 0.0
C3094 C 0.27215 0.40007 0.34022 0.0
C3095 C 0.23339 0.40138 0.33863 0.0
C3096 C 0.21553 0.40999 0.28316 0.0
H3097 H 0.12911 0.468 0.29157 0.0
H3098 H 0.15166 0.4399 0.3054 0.0
H3099 H 0.19899 0.4258 0.25803 0.0
H3100 H 0.2877 0.39283 0.31017 0.0
H3101 H 0.25455 0.38993 0.28966 0.0
H3102 H 0.19191 0.38711 0.32698 0.0
C3103 C 0.14858 0.44046 0.28834 0.0
C3104 C 0.19716 0.41671 0.2727 0.0
C3105 C 0.13588 0.45672 0.28039 0.0
C3106 C 0.27261 0.39522 0.3183 0.0
C3107 C 0.25361 0.39359 0.30658 0.0
C3108 C 0.19367 0.39529 0.3118 0.0
C3109 C 0.15894 0.42654 0.27424 0.0
C3110 C 0.17698 0.41391 0.28226 0.0
C3111 C 0.23379 0.39742 0.31642 0.0
C3112 C 0.21411 0.40003 0.30331 0.0
H3113 H 0.13982 0.44545 0.22707 0.0
H3114 H 0.16255 0.41729 0.24103 0.0
H3115 H 0.15982 0.39987 0.30904 0.0
H3116 H 0.25164 0.40613 0.36738 0.0
H3117 H 0.21856 0.40476 0.34679 0.0
C3118 C 0.36074 0.42997 0.03016 0.0
C3119 C 0.34872 0.4123 0.03771 0.0
C3120 C 0.37196 0.4433 0.04444 0.0
C3121 C 0.36906 0.46255 0.09914 0.0
H3122 H 0.4238 0.48951 0.08524 0.0
C3123 C 0.39754 0.53898 0.14282 0.0
C3124 C 0.4025 0.55542 0.12822 0.0
C3125 C 0.39654 0.5176 0.13593 0.0
C3126 C 0.40858 0.48202 0.08945 0.0
H3127 H 0.33955 0.39431 0.06606 0.0
H3128 H 0.35897 0.41785 0.09105 0.0
H3129 H 0.4109 0.45869 0.06442 0.0
H3130 H 0.41221 0.56235 0.09559 0.0
H3131 H 0.41041 0.52547 0.08364 0.0
H3132 H 0.36604 0.48665 0.12324 0.0
C3133 C 0.3597 0.42133 0.07409 0.0
C3134 C 0.4012 0.46442 0.07752 0.0
C3135 C 0.34862 0.40787 0.05977 0.0
C3136 C 0.40807 0.55002 0.10715 0.0
C3137 C 0.40727 0.5288 0.10035 0.0
C3138 C 0.37638 0.48025 0.111 0.0
C3139 C 0.37126 0.43933 0.06658 0.0
C3140 C 0.38099 0.45506 0.08171 0.0
C3141 C 0.40079 0.51239 0.11442 0.0
C3142 C 0.3958 0.49073 0.10567 0.0
H3143 H 0.36117 0.43375 0.01325 0.0
H3144 H 0.38049 0.45723 0.03821 0.0
H3145 H 0.35337 0.45573 0.10268 0.0
H3146 H 0.39323 0.54271 0.15918 0.0
H3147 H 0.39168 0.50526 0.14718 0.0
C3148 C 0.33434 0.52865 0.80226 0.0
C3149 C 0.33758 0.51993 0.7818 0.0
C3150 C 0.31864 0.5439 0.80553 0.0
C3151 C 0.28764 0.58117 0.80657 0.0
H3152 H 0.23251 0.55874 0.78733 0.0
C3153 C 0.18986 0.59364 0.81687 0.0
C3154 C 0.1897 0.59746 0.83905 0.0
C3155 C 0.20914 0.59031 0.80616 0.0
C3156 C 0.24772 0.56572 0.79238 0.0
H3157 H 0.32783 0.52123 0.7485 0.0
H3158 H 0.30005 0.54763 0.75435 0.0
H3159 H 0.26505 0.5423 0.77489 0.0
H3160 H 0.2098 0.60198 0.86714 0.0
H3161 H 0.24317 0.59537 0.84876 0.0
H3162 H 0.27032 0.60439 0.82439 0.0
C3163 C 0.30973 0.54268 0.76779 0.0
C3164 C 0.26642 0.55619 0.78526 0.0
C3165 C 0.32565 0.52763 0.76446 0.0
C3166 C 0.20933 0.5991 0.85003 0.0
C3167 C 0.22856 0.59544 0.8394 0.0
C3168 C 0.26892 0.59094 0.81348 0.0
C3169 C 0.30571 0.55053 0.78846 0.0
C3170 C 0.28651 0.56335 0.79284 0.0
C3171 C 0.22869 0.59036 0.81744 0.0
C3172 C 0.24867 0.58283 0.80709 0.0
H3173 H 0.34336 0.52309 0.81591 0.0
H3174 H 0.31576 0.54953 0.82167 0.0
H3175 H 0.30297 0.58713 0.81247 0.0
H3176 H 0.17501 0.5926 0.80789 0.0
H3177 H 0.20864 0.587 0.78914 0.0
C3178 C 0.16975 0.57819 0.5044 0.0
C3179 C 0.17602 0.59349 0.51985 0.0
C3180 C 0.16079 0.55849 0.51064 0.0
C3181 C 0.13503 0.52939 0.5551 0.0
H3182 H 0.16565 0.48048 0.53356 0.0
C3183 C 0.13224 0.44796 0.59762 0.0
C3184 C 0.13333 0.42914 0.58534 0.0
C3185 C 0.13455 0.46799 0.58796 0.0
C3186 C 0.15657 0.49385 0.53942 0.0
H3187 H 0.17662 0.60068 0.55385 0.0
H3188 H 0.16073 0.56638 0.56469 0.0
H3189 H 0.17363 0.51596 0.51924 0.0
H3190 H 0.13706 0.4166 0.55317 0.0
H3191 H 0.14057 0.45159 0.53622 0.0
H3192 H 0.118 0.50737 0.57536 0.0
C3193 C 0.16285 0.5696 0.54779 0.0
C3194 C 0.1612 0.51419 0.53123 0.0
C3195 C 0.17206 0.58918 0.54158 0.0
C3196 C 0.13639 0.4308 0.56312 0.0
C3197 C 0.13846 0.45086 0.55341 0.0
C3198 C 0.1302 0.509 0.56314 0.0
C3199 C 0.15766 0.55389 0.53241 0.0
C3200 C 0.15078 0.53219 0.5393 0.0
C3201 C 0.13776 0.46971 0.56575 0.0
C3202 C 0.14127 0.49105 0.55573 0.0
H3203 H 0.17259 0.58103 0.48753 0.0
H3204 H 0.15677 0.54666 0.49849 0.0
H3205 H 0.12664 0.54302 0.56143 0.0
H3206 H 0.13 0.44724 0.6148 0.0
H3207 H 0.13435 0.48211 0.59804 0.0
C3208 C 0.17662 0.56223 0.22277 0.0
C3209 C 0.16412 0.55206 0.20682 0.0
C3210 C 0.19618 0.57207 0.21766 0.0
C3211 C 0.22789 0.5948 0.17367 0.0
H3212 H 0.27658 0.57869 0.20827 0.0
C3213 C 0.31502 0.60834 0.14646 0.0
C3214 C 0.33084 0.61284 0.16196 0.0
C3215 C 0.29395 0.60376 0.15256 0.0
C3216 C 0.26313 0.58373 0.1987 0.0
H3217 H 0.16204 0.54482 0.17288 0.0
H3218 H 0.19634 0.56218 0.16394 0.0
H3219 H 0.2409 0.5654 0.21758 0.0
H3220 H 0.3367 0.61714 0.19598 0.0
H3221 H 0.29977 0.60961 0.20658 0.0
H3222 H 0.25011 0.61315 0.15476 0.0
C3223 C 0.19087 0.56249 0.18039 0.0
C3224 C 0.24271 0.57603 0.20399 0.0
C3225 C 0.17133 0.55246 0.18553 0.0
C3226 C 0.32495 0.61349 0.18365 0.0
C3227 C 0.3038 0.60909 0.18974 0.0
C3228 C 0.24832 0.60269 0.16848 0.0
C3229 C 0.20358 0.57211 0.19647 0.0
C3230 C 0.22496 0.58128 0.19139 0.0
C3231 C 0.28816 0.60378 0.17428 0.0
C3232 C 0.26621 0.597 0.18077 0.0
H3233 H 0.17152 0.56229 0.23934 0.0
H3234 H 0.2056 0.57957 0.2303 0.0
H3235 H 0.21439 0.59928 0.16386 0.0
H3236 H 0.319 0.60766 0.12961 0.0
H3237 H 0.2824 0.59945 0.14025 0.0
C3238 C 0.25596 0.42458 0.95348 0.0
C3239 C 0.25351 0.41302 0.9726 0.0
C3240 C 0.23893 0.43587 0.94501 0.0
C3241 C 0.18855 0.4609 0.96052 0.0
H3242 H 0.18411 0.4685 0.89908 0.0
C3243 C 0.15697 0.53695 0.92331 0.0
C3244 C 0.14726 0.53662 0.90298 0.0
C3245 C 0.16438 0.5182 0.93245 0.0
C3246 C 0.1847 0.46624 0.91625 0.0
H3247 H 0.23117 0.40389 -0.00231 0.0
H3248 H 0.20118 0.42348 0.98269 0.0
H3249 H 0.20776 0.44162 0.91335 0.0
H3250 H 0.13651 0.51598 0.87693 0.0
H3251 H 0.14934 0.48303 0.89311 0.0
H3252 H 0.16548 0.48554 0.96341 0.0
C3253 C 0.21641 0.42404 0.97442 0.0
C3254 C 0.19855 0.45104 0.92446 0.0
C3255 C 0.23357 0.41282 0.983 0.0
C3256 C 0.14409 0.51683 0.89252 0.0
C3257 C 0.15151 0.49797 0.90176 0.0
C3258 C 0.17452 0.47595 0.95231 0.0
C3259 C 0.21892 0.43574 0.95533 0.0
C3260 C 0.20134 0.44886 0.94669 0.0
C3261 C 0.1622 0.49854 0.92162 0.0
C3262 C 0.17315 0.47946 0.93011 0.0
H3263 H 0.27115 0.4251 0.94511 0.0
H3264 H 0.24164 0.44512 0.93059 0.0
H3265 H 0.19024 0.45964 0.97772 0.0
H3266 H 0.15954 0.55183 0.93196 0.0
H3267 H 0.17281 0.51939 0.94759 0.0
C3268 C 0.33433 0.40879 0.7253 0.0
C3269 C 0.33005 0.41737 0.74562 0.0
C3270 C 0.31815 0.39841 0.71356 0.0
C3271 C 0.26307 0.37507 0.71704 0.0
H3272 H 0.25895 0.39445 0.65825 0.0
C3273 C 0.1842 0.3749 0.67008 0.0
C3274 C 0.1843 0.37031 0.64802 0.0
C3275 C 0.20329 0.37613 0.68164 0.0
C3276 C 0.26007 0.3885 0.67447 0.0
H3277 H 0.30575 0.42093 0.77004 0.0
H3278 H 0.27733 0.4031 0.7494 0.0
H3279 H 0.29018 0.40461 0.67957 0.0
H3280 H 0.20457 0.36269 0.62099 0.0
H3281 H 0.23807 0.36493 0.64132 0.0
H3282 H 0.23253 0.35959 0.71208 0.0
C3283 C 0.29327 0.40416 0.74262 0.0
C3284 C 0.27798 0.39433 0.68673 0.0
C3285 C 0.30951 0.41448 0.75441 0.0
C3286 C 0.20394 0.36637 0.63793 0.0
C3287 C 0.22311 0.3677 0.64954 0.0
C3288 C 0.24513 0.36926 0.70478 0.0
C3289 C 0.2973 0.39646 0.72186 0.0
C3290 C 0.27947 0.38808 0.70829 0.0
C3291 C 0.22297 0.37283 0.67147 0.0
C3292 C 0.24323 0.37634 0.68352 0.0
H3293 H 0.35008 0.41057 0.71818 0.0
H3294 H 0.32185 0.39232 0.69778 0.0
H3295 H 0.26393 0.36971 0.7335 0.0
H3296 H 0.16938 0.37789 0.67845 0.0
H3297 H 0.20265 0.3804 0.69844 0.0
C3298 C 0.27952 0.61238 0.45694 0.0
C3299 C 0.27457 0.61541 0.47864 0.0
C3300 C 0.29386 0.59674 0.45084 0.0
C3301 C 0.30518 0.54408 0.46863 0.0
H3302 H 0.3408 0.54272 0.41789 0.0
C3303 C 0.32389 0.46438 0.42767 0.0
C3304 C 0.3225 0.46428 0.40522 0.0
C3305 C 0.32443 0.48366 0.43897 0.0
C3306 C 0.33085 0.54283 0.43207 0.0
H3307 H 0.28236 0.6061 0.51111 0.0
H3308 H 0.30725 0.57835 0.50035 0.0
H3309 H 0.33251 0.57709 0.43436 0.0
H3310 H 0.32073 0.48426 0.37696 0.0
H3311 H 0.32055 0.51792 0.3967 0.0
H3312 H 0.30201 0.51018 0.4656 0.0
C3313 C 0.29999 0.58811 0.48812 0.0
C3314 C 0.32632 0.56248 0.44159 0.0
C3315 C 0.2858 0.60399 0.49426 0.0
C3316 C 0.32175 0.48386 0.39427 0.0
C3317 C 0.32195 0.50315 0.4056 0.0
C3318 C 0.3095 0.52451 0.45901 0.0
C3319 C 0.30333 0.58369 0.46632 0.0
C3320 C 0.31281 0.5633 0.45951 0.0
C3321 C 0.32324 0.50329 0.4281 0.0
C3322 C 0.32174 0.5237 0.44017 0.0
H3323 H 0.27129 0.62119 0.44459 0.0
H3324 H 0.29602 0.59364 0.43392 0.0
H3325 H 0.29444 0.54422 0.48223 0.0
H3326 H 0.32495 0.44955 0.43654 0.0
H3327 H 0.32579 0.48317 0.45624 0.0
C3328 C 0.30543 0.16256 0.44686 0.0
C3329 C 0.28484 0.1586 0.45508 0.0
C3330 C 0.30949 0.18032 0.43386 0.0
C3331 C 0.28334 0.22503 0.4046 0.0
H3332 H 0.33661 0.25491 0.41869 0.0
C3333 C 0.30059 0.31596 0.39322 0.0
C3334 C 0.32124 0.32209 0.38627 0.0
C3335 C 0.29541 0.29438 0.39689 0.0
C3336 C 0.32182 0.24661 0.41431 0.0
H3337 H 0.2521 0.16946 0.4555 0.0
H3338 H 0.25932 0.20101 0.43364 0.0
H3339 H 0.32918 0.21987 0.43386 0.0
H3340 H 0.35211 0.31015 0.37623 0.0
H3341 H 0.34305 0.2727 0.38284 0.0
H3342 H 0.27568 0.25266 0.38592 0.0
C3343 C 0.27228 0.19017 0.43667 0.0
C3344 C 0.31757 0.22643 0.42293 0.0
C3345 C 0.26814 0.17216 0.44933 0.0
C3346 C 0.33614 0.30609 0.38186 0.0
C3347 C 0.33099 0.28461 0.38563 0.0
C3348 C 0.28751 0.24543 0.39618 0.0
C3349 C 0.29313 0.19477 0.42921 0.0
C3350 C 0.2982 0.21542 0.41837 0.0
C3351 C 0.31081 0.27862 0.39376 0.0
C3352 C 0.30674 0.25643 0.40111 0.0
H3353 H 0.31851 0.15215 0.4508 0.0
H3354 H 0.3256 0.18302 0.42792 0.0
H3355 H 0.26839 0.2169 0.40051 0.0
H3356 H 0.28868 0.32785 0.39664 0.0
H3357 H 0.27975 0.29016 0.40326 0.0
C3358 C 0.79938 0.31518 0.54695 0.0
C3359 C 0.78313 0.31936 0.53215 0.0
C3360 C 0.79486 0.3033 0.56527 0.0
C3361 C 0.77861 0.28216 0.60625 0.0
H3362 H 0.77163 0.22415 0.58487 0.0
C3363 C 0.80634 0.18964 0.6226 0.0
C3364 C 0.82749 0.19549 0.62825 0.0
C3365 C 0.79113 0.20534 0.61895 0.0
C3366 C 0.77283 0.24012 0.5916 0.0
H3367 H 0.74931 0.31527 0.52502 0.0
H3368 H 0.74162 0.29308 0.55674 0.0
H3369 H 0.76124 0.25389 0.56261 0.0
H3370 H 0.84871 0.22231 0.63631 0.0
H3371 H 0.8228 0.24945 0.62915 0.0
H3372 H 0.79136 0.26852 0.63478 0.0
C3373 C 0.75764 0.29967 0.5544 0.0
C3374 C 0.76684 0.25721 0.57873 0.0
C3375 C 0.76206 0.31218 0.53631 0.0
C3376 C 0.83265 0.21721 0.63173 0.0
C3377 C 0.81757 0.23285 0.6279 0.0
C3378 C 0.7842 0.26506 0.61932 0.0
C3379 C 0.77412 0.29494 0.56884 0.0
C3380 C 0.77128 0.27831 0.58533 0.0
C3381 C 0.79684 0.22719 0.62068 0.0
C3382 C 0.78313 0.24396 0.61135 0.0
H3383 H 0.8157 0.32074 0.54412 0.0
H3384 H 0.80791 0.2995 0.57598 0.0
H3385 H 0.78195 0.29838 0.61169 0.0
H3386 H 0.8017 0.17298 0.62023 0.0
H3387 H 0.77521 0.20038 0.61379 0.0
C3388 C 0.40188 -0.00053 0.31668 0.0
C3389 C 0.39197 0.01561 0.30484 0.0
C3390 C 0.41846 0.00469 0.33098 0.0
C3391 C 0.4464 0.04932 0.35936 0.0
H3392 H 0.49809 0.02054 0.34238 0.0
C3393 C 0.52983 0.08871 0.36715 0.0
C3394 C 0.54788 0.07591 0.36961 0.0
C3395 C 0.50943 0.07932 0.36506 0.0
C3396 C 0.48383 0.02844 0.34785 0.0
H3397 H 0.39026 0.04992 0.30003 0.0
H3398 H 0.41894 0.05901 0.32511 0.0
H3399 H 0.46359 0.0073 0.3295 0.0
H3400 H 0.55855 0.04327 0.37321 0.0
H3401 H 0.5229 0.02693 0.37019 0.0
H3402 H 0.46668 0.0708 0.37732 0.0
C3403 C 0.41405 0.04235 0.3233 0.0
C3404 C 0.464 0.02082 0.34041 0.0
C3405 C 0.39774 0.03713 0.30881 0.0
C3406 C 0.54499 0.05357 0.37099 0.0
C3407 C 0.52454 0.04419 0.3692 0.0
C3408 C 0.46623 0.05682 0.36703 0.0
C3409 C 0.42509 0.02615 0.33392 0.0
C3410 C 0.44519 0.03161 0.34549 0.0
C3411 C 0.50656 0.05692 0.36568 0.0
C3412 C 0.48526 0.04693 0.36073 0.0
H3413 H 0.39775 0.98275 0.31396 0.0
H3414 H 0.42667 0.99192 0.33908 0.0
H3415 H 0.43207 0.05781 0.36366 0.0
H3416 H 0.53151 0.10597 0.36598 0.0
H3417 H 0.49606 0.08966 0.36203 0.0
C3418 C 0.7467 0.68186 0.03894 0.0
C3419 C 0.74028 0.66398 0.02669 0.0
C3420 C 0.73168 0.69323 0.0506 0.0
C3421 C 0.67464 0.70521 0.04942 0.0
H3422 H 0.6896 0.73688 0.10098 0.0
C3423 C 0.62262 0.77318 0.08251 0.0
C3424 C 0.63453 0.79246 0.08449 0.0
C3425 C 0.63308 0.75376 0.07992 0.0
C3426 C 0.68512 0.72795 0.08671 0.0
H3427 H 0.71332 0.64324 0.01795 0.0
H3428 H 0.68707 0.66301 0.03858 0.0
H3429 H 0.71271 0.70834 0.08864 0.0
H3430 H 0.66662 0.80644 0.08628 0.0
H3431 H 0.68475 0.77265 0.08189 0.0
H3432 H 0.64742 0.72534 0.04717 0.0
C3433 C 0.70366 0.66844 0.03885 0.0
C3434 C 0.69837 0.71171 0.07959 0.0
C3435 C 0.7187 0.65711 0.02708 0.0
C3436 C 0.657 0.79188 0.08457 0.0
C3437 C 0.66739 0.77251 0.08232 0.0
C3438 C 0.6613 0.72133 0.05667 0.0
C3439 C 0.70992 0.6869 0.05038 0.0
C3440 C 0.69375 0.7008 0.06036 0.0
C3441 C 0.65555 0.75332 0.0797 0.0
C3442 C 0.66692 0.7334 0.07487 0.0
H3443 H 0.76323 0.68751 0.03899 0.0
H3444 H 0.73703 0.70757 0.059 0.0
H3445 H 0.67069 0.69726 0.03446 0.0
H3446 H 0.60527 0.77315 0.08244 0.0
H3447 H 0.62363 0.73914 0.07788 0.0
C3448 C 0.56493 0.45345 0.32182 0.0
C3449 C 0.57362 0.47145 0.31131 0.0
C3450 C 0.5461 0.45506 0.33361 0.0
C3451 C 0.49642 0.4813 0.33161 0.0
H3452 H 0.48663 0.4543 0.38668 0.0
C3453 C 0.41138 0.45641 0.35779 0.0
C3454 C 0.40998 0.4351 0.36501 0.0
C3455 C 0.43128 0.46707 0.35647 0.0
C3456 C 0.48908 0.46198 0.37131 0.0
H3457 H 0.56993 0.50538 0.30532 0.0
H3458 H 0.53635 0.50795 0.32538 0.0
H3459 H 0.52325 0.46141 0.37451 0.0
H3460 H 0.42832 0.40875 0.37761 0.0
H3461 H 0.46269 0.42691 0.37472 0.0
H3462 H 0.46248 0.48017 0.3274 0.0
C3463 C 0.54441 0.49277 0.32476 0.0
C3464 C 0.51001 0.46614 0.36446 0.0
C3465 C 0.56355 0.49127 0.31334 0.0
C3466 C 0.42874 0.4251 0.37183 0.0
C3467 C 0.44853 0.43567 0.37043 0.0
C3468 C 0.47548 0.47682 0.33829 0.0
C3469 C 0.53543 0.47459 0.33474 0.0
C3470 C 0.51382 0.47503 0.3442 0.0
C3471 C 0.45014 0.45661 0.36232 0.0
C3472 C 0.47163 0.46619 0.35779 0.0
H3473 H 0.57246 0.43803 0.32056 0.0
H3474 H 0.53929 0.44075 0.34095 0.0
H3475 H 0.49902 0.48806 0.31584 0.0
H3476 H 0.39721 0.46467 0.35262 0.0
H3477 H 0.43196 0.48329 0.35037 0.0
C3478 C 0.18901 0.83656 0.9354 0.0
C3479 C 0.21138 0.83807 0.93342 0.0
C3480 C 0.17738 0.82066 0.92441 0.0
C3481 C 0.18262 0.77554 0.88497 0.0
H3482 H 0.14104 0.74809 0.92259 0.0
C3483 C 0.16169 0.6851 0.88543 0.0
C3484 C 0.14003 0.67888 0.88762 0.0
C3485 C 0.16785 0.70672 0.88632 0.0
C3486 C 0.15232 0.75574 0.91172 0.0
H3487 H 0.23899 0.82517 0.91729 0.0
H3488 H 0.21899 0.79687 0.89896 0.0
H3489 H 0.15604 0.78295 0.93206 0.0
H3490 H 0.10778 0.69054 0.89184 0.0
H3491 H 0.1187 0.72826 0.89388 0.0
H3492 H 0.17979 0.74728 0.86548 0.0
C3493 C 0.21018 0.80819 0.90847 0.0
C3494 C 0.16088 0.77585 0.91705 0.0
C3495 C 0.22173 0.8244 0.9191 0.0
C3496 C 0.12461 0.69478 0.89016 0.0
C3497 C 0.13082 0.71636 0.89134 0.0
C3498 C 0.17428 0.7552 0.87983 0.0
C3499 C 0.18795 0.80559 0.91164 0.0
C3500 C 0.17651 0.78584 0.90402 0.0
C3501 C 0.15251 0.72249 0.88967 0.0
C3502 C 0.15939 0.74498 0.8934 0.0
H3503 H 0.18059 0.84713 0.9461 0.0
H3504 H 0.1602 0.81959 0.92671 0.0
H3505 H 0.19428 0.78289 0.87432 0.0
H3506 H 0.17393 0.67326 0.88327 0.0
H3507 H 0.18471 0.71104 0.88522 0.0
C3508 C 0.41479 0.97791 0.19515 0.0
C3509 C 0.39785 0.96578 0.20405 0.0
C3510 C 0.42915 0.96834 0.18111 0.0
C3511 C 0.44908 0.91486 0.16771 0.0
H3512 H 0.47861 0.94554 0.1222 0.0
C3513 C 0.5168 0.87598 0.12126 0.0
C3514 C 0.53593 0.88824 0.12208 0.0
C3515 C 0.4973 0.88532 0.12619 0.0
C3516 C 0.47034 0.93677 0.13477 0.0
H3517 H 0.38175 0.93464 0.20423 0.0
H3518 H 0.40627 0.91821 0.1793 0.0
H3519 H 0.44891 0.96238 0.14082 0.0
H3520 H 0.54942 0.92023 0.12704 0.0
H3521 H 0.51543 0.9364 0.13571 0.0
H3522 H 0.47069 0.88946 0.16198 0.0
C3523 C 0.40903 0.93483 0.18369 0.0
C3524 C 0.45347 0.94643 0.14552 0.0
C3525 C 0.39495 0.94426 0.19797 0.0
C3526 C 0.535 0.91028 0.12656 0.0
C3527 C 0.5155 0.91962 0.13129 0.0
C3528 C 0.46575 0.90517 0.15686 0.0
C3529 C 0.4266 0.94659 0.17549 0.0
C3530 C 0.44297 0.93575 0.16244 0.0
C3531 C 0.49658 0.9071 0.13177 0.0
C3532 C 0.47685 0.9162 0.14063 0.0
H3533 H 0.41732 0.99456 0.19955 0.0
H3534 H 0.44265 0.97781 0.17529 0.0
H3535 H 0.44167 0.90629 0.18091 0.0
H3536 H 0.51699 0.859 0.11772 0.0
H3537 H 0.48286 0.87538 0.12631 0.0
C3538 C 0.11233 0.08353 0.6714 0.0
C3539 C 0.10725 0.06266 0.6643 0.0
C3540 C 0.09993 0.1007 0.66486 0.0
C3541 C 0.0528 0.1155 0.6314 0.0
H3542 H 0.03095 0.13597 0.68565 0.0
C3543 C 0.96665 0.12714 0.66981 0.0
C3544 C 0.95651 0.14102 0.65557 0.0
C3545 C 0.98879 0.12479 0.66906 0.0
C3546 C 0.03707 0.13073 0.67032 0.0
H3547 H 0.08746 0.04385 0.64241 0.0
H3548 H 0.06579 0.07359 0.63121 0.0
H3549 H 0.06586 0.11956 0.68436 0.0
H3550 H 0.96158 0.1635 0.6295 0.0
H3551 H 0.00041 0.15886 0.62788 0.0
H3552 H 0.02306 0.12534 0.61778 0.0
C3553 C 0.07919 0.07686 0.64184 0.0
C3554 C 0.05718 0.12153 0.6695 0.0
C3555 C 0.09153 0.05971 0.64841 0.0
C3556 C 0.969 0.15276 0.64076 0.0
C3557 C 0.99116 0.15011 0.63977 0.0
C3558 C 0.03268 0.12487 0.63222 0.0
C3559 C 0.08236 0.09723 0.65111 0.0
C3560 C 0.06477 0.11278 0.65025 0.0
C3561 C 0.0012 0.13603 0.65387 0.0
C3562 C 0.02424 0.13151 0.65191 0.0
H3563 H 0.12458 0.08635 0.68344 0.0
H3564 H 0.10298 0.11633 0.67195 0.0
H3565 H 0.05834 0.10907 0.61632 0.0
H3566 H 0.95746 0.11794 0.68141 0.0
H3567 H -0.00387 0.11357 0.6799 0.0
loop_
_geom_bond_atom_site_label_1
_geom_bond_atom_site_label_2
_geom_bond_distance
_geom_bond_site_symmetry_2
_ccdc_geom_bond_type
C0 O1 1.306 . S
C0 O3 1.160 . S
O1 C0 1.306 . S
O1 Cd2 2.228 . S
Cd2 O1 2.228 . S
Cd2 O6 2.273 . S
Cd2 O10 2.322 . S
O3 C0 1.160 . S
O3 Cd4 2.203 1_655 S
Cd4 O3 2.203 1_455 S
Cd4 O6 2.411 1_455 S
Cd4 O7 2.333 . S
Cd4 O8 2.352 . S
Cd4 O12 2.277 . S
Cd4 O13 2.356 . S
C5 O10 1.163 1_455 S
C5 O12 1.226 . S
O6 Cd2 2.273 . S
O6 Cd4 2.411 1_655 S
O6 C9 1.320 . S
O7 Cd4 2.333 . S
O7 C9 1.214 1_455 S
O8 Cd4 2.352 . S
O8 C11 1.258 . S
C9 O6 1.320 . S
C9 O7 1.214 1_655 S
O10 Cd2 2.322 . S
O10 C5 1.163 1_655 S
C11 O8 1.258 . S
C11 O13 1.282 . S
O12 Cd4 2.277 . S
O12 C5 1.226 . S
O13 Cd4 2.356 . S
O13 C11 1.282 . S
C14 O15 1.306 . S
C14 O17 1.160 . S
O15 C14 1.306 . S
O15 Cd16 2.228 1_455 S
Cd16 O15 2.228 1_655 S
Cd16 O20 2.273 . S
Cd16 O24 2.277 . S
O17 C14 1.160 . S
O17 Cd18 2.203 . S
Cd18 O17 2.203 . S
Cd18 O20 2.411 1_455 S
Cd18 O21 2.333 1_455 S
Cd18 O22 2.352 . S
Cd18 O26 2.277 1_455 S
Cd18 O27 2.356 . S
C19 O24 1.209 . S
C19 O26 1.226 . S
O20 Cd16 2.273 . S
O20 Cd18 2.411 1_655 S
O20 C23 1.320 . S
O21 Cd18 2.333 1_655 S
O21 C23 1.214 . S
O22 Cd18 2.352 . S
O22 C25 1.258 . S
C23 O20 1.320 . S
C23 O21 1.214 . S
O24 Cd16 2.277 . S
O24 C19 1.209 . S
C25 O22 1.258 . S
C25 O27 1.282 . S
O26 Cd18 2.277 1_655 S
O26 C19 1.226 . S
O27 Cd18 2.356 . S
O27 C25 1.282 . S
C28 O29 1.306 . S
C28 O31 1.160 . S
O29 C28 1.306 . S
O29 Cd30 2.228 . S
Cd30 O29 2.228 . S
Cd30 O34 2.273 . S
Cd30 O38 2.277 . S
O31 C28 1.160 . S
O31 Cd32 2.203 . S
Cd32 O31 2.203 . S
Cd32 O34 2.411 . S
Cd32 O35 2.333 . S
Cd32 O36 2.352 . S
Cd32 O40 2.277 . S
Cd32 O41 2.356 . S
C33 O38 1.209 . S
C33 O40 1.226 . S
O34 Cd30 2.273 . S
O34 Cd32 2.411 . S
O34 C37 1.320 . S
O35 Cd32 2.333 . S
O35 C37 1.214 . S
O36 Cd32 2.352 . S
O36 C39 1.258 . S
C37 O34 1.320 . S
C37 O35 1.214 . S
O38 Cd30 2.277 . S
O38 C33 1.209 . S
C39 O36 1.258 . S
C39 O41 1.282 . S
O40 Cd32 2.277 . S
O40 C33 1.226 . S
O41 Cd32 2.356 . S
O41 C39 1.282 . S
C42 O43 1.306 . S
C42 O45 1.160 . S
O43 C42 1.306 . S
O43 Cd44 2.228 . S
Cd44 O43 2.228 . S
Cd44 O48 2.273 . S
Cd44 O52 2.277 . S
O45 C42 1.160 . S
O45 Cd46 2.203 . S
Cd46 O45 2.203 . S
Cd46 O48 2.411 . S
Cd46 O49 2.333 . S
Cd46 O50 2.352 . S
Cd46 O54 2.277 . S
Cd46 O55 2.356 . S
C47 O52 1.209 . S
C47 O54 1.226 . S
O48 Cd44 2.273 . S
O48 Cd46 2.411 . S
O48 C51 1.320 . S
O49 Cd46 2.333 . S
O49 C51 1.214 . S
O50 Cd46 2.352 . S
O50 C53 1.258 . S
C51 O48 1.320 . S
C51 O49 1.214 . S
O52 Cd44 2.277 . S
O52 C47 1.209 . S
C53 O50 1.258 . S
C53 O55 1.282 . S
O54 Cd46 2.277 . S
O54 C47 1.226 . S
O55 Cd46 2.356 . S
O55 C53 1.282 . S
C56 O57 1.306 . S
C56 O59 1.160 . S
O57 C56 1.306 . S
O57 Cd58 2.228 . S
Cd58 O57 2.228 . S
Cd58 O62 2.273 . S
Cd58 O66 2.277 . S
O59 C56 1.160 . S
O59 Cd60 2.203 1_655 S
Cd60 O59 2.203 1_455 S
Cd60 O62 2.411 1_455 S
Cd60 O63 2.333 . S
Cd60 O64 2.359 . S
Cd60 O68 2.277 . S
Cd60 O69 2.356 . S
C61 O66 1.209 1_455 S
C61 O68 1.226 . S
O62 Cd58 2.273 . S
O62 Cd60 2.411 1_655 S
O62 C65 1.320 . S
O63 Cd60 2.333 . S
O63 C65 1.214 1_455 S
O64 Cd60 2.359 . S
O64 C67 1.313 . S
C65 O62 1.320 . S
C65 O63 1.214 1_655 S
O66 Cd58 2.277 . S
O66 C61 1.209 1_655 S
C67 O64 1.313 . S
C67 O69 1.282 . S
O68 Cd60 2.277 . S
O68 C61 1.226 . S
O69 Cd60 2.356 . S
O69 C67 1.282 . S
C70 O71 1.306 . S
C70 O73 1.160 . S
O71 C70 1.306 . S
O71 Cd72 2.228 . S
Cd72 O71 2.228 . S
Cd72 O76 2.273 . S
Cd72 O80 2.277 . S
O73 C70 1.160 . S
O73 Cd74 2.203 . S
Cd74 O73 2.203 . S
Cd74 O76 2.411 . S
Cd74 O77 2.333 . S
Cd74 O78 2.352 . S
Cd74 O82 2.277 . S
Cd74 O83 2.356 . S
C75 O80 1.209 . S
C75 O82 1.226 . S
O76 Cd72 2.273 . S
O76 Cd74 2.411 . S
O76 C79 1.320 . S
O77 Cd74 2.333 . S
O77 C79 1.214 . S
O78 Cd74 2.352 . S
O78 C81 1.258 . S
C79 O76 1.320 . S
C79 O77 1.214 . S
O80 Cd72 2.277 . S
O80 C75 1.209 . S
C81 O78 1.258 . S
C81 O83 1.282 . S
O82 Cd74 2.277 . S
O82 C75 1.226 . S
O83 Cd74 2.356 . S
O83 C81 1.282 . S
C84 O85 1.306 . S
C84 O87 1.160 . S
O85 C84 1.306 . S
O85 Cd86 2.228 . S
Cd86 O85 2.228 . S
Cd86 O90 2.273 . S
Cd86 O94 2.277 . S
O87 C84 1.160 . S
O87 Cd88 2.203 . S
Cd88 O87 2.203 . S
Cd88 O90 2.411 . S
Cd88 O91 2.333 . S
Cd88 O92 2.352 . S
Cd88 O96 2.277 . S
Cd88 O97 2.356 . S
C89 O94 1.209 . S
C89 O96 1.226 . S
O90 Cd86 2.273 . S
O90 Cd88 2.411 . S
O90 C93 1.320 . S
O91 Cd88 2.333 . S
O91 C93 1.214 . S
O92 Cd88 2.352 . S
O92 C95 1.258 . S
C93 O90 1.320 . S
C93 O91 1.214 . S
O94 Cd86 2.277 . S
O94 C89 1.209 . S
C95 O92 1.258 . S
C95 O97 1.282 . S
O96 Cd88 2.277 . S
O96 C89 1.226 . S
O97 Cd88 2.356 . S
O97 C95 1.282 . S
C98 O99 1.306 . S
C98 O101 1.160 . S
O99 C98 1.306 . S
O99 Cd100 2.228 1_455 S
Cd100 O99 2.228 1_655 S
Cd100 O104 2.273 . S
Cd100 O108 2.277 . S
O101 C98 1.160 . S
O101 Cd102 2.203 . S
Cd102 O101 2.203 . S
Cd102 O104 2.411 1_455 S
Cd102 O105 2.333 1_455 S
Cd102 O106 2.352 . S
Cd102 O110 2.277 1_455 S
Cd102 O111 2.356 . S
C103 O108 1.209 . S
C103 O110 1.226 . S
O104 Cd100 2.273 . S
O104 Cd102 2.411 1_655 S
O104 C107 1.320 . S
O105 Cd102 2.333 1_655 S
O105 C107 1.214 . S
O106 Cd102 2.352 . S
O106 C109 1.258 . S
C107 O104 1.320 . S
C107 O105 1.214 . S
O108 Cd100 2.277 . S
O108 C103 1.209 . S
C109 O106 1.258 . S
C109 O111 1.282 . S
O110 Cd102 2.277 1_655 S
O110 C103 1.226 . S
O111 Cd102 2.356 . S
O111 C109 1.282 . S
C112 O113 1.306 . S
C112 O115 1.160 1_565 S
O113 C112 1.306 . S
O113 Cd114 2.228 . S
Cd114 O113 2.228 . S
Cd114 O118 2.273 . S
Cd114 O122 2.277 1_565 S
O115 C112 1.160 1_545 S
O115 Cd116 2.203 . S
Cd116 O115 2.203 . S
Cd116 O118 2.411 1_545 S
Cd116 O119 2.333 . S
Cd116 O120 2.352 . S
Cd116 O124 2.277 . S
Cd116 O125 2.356 . S
C117 O122 1.209 . S
C117 O124 1.226 . S
O118 Cd114 2.273 . S
O118 Cd116 2.411 1_565 S
O118 C121 1.320 . S
O119 Cd116 2.333 . S
O119 C121 1.214 1_545 S
O120 Cd116 2.352 . S
O120 C123 1.258 . S
C121 O118 1.320 . S
C121 O119 1.214 1_565 S
O122 Cd114 2.277 1_545 S
O122 C117 1.209 . S
C123 O120 1.258 . S
C123 O125 1.282 . S
O124 Cd116 2.277 . S
O124 C117 1.226 . S
O125 Cd116 2.356 . S
O125 C123 1.282 . S
C126 O127 1.306 . S
C126 O129 1.160 . S
O127 C126 1.306 . S
O127 Cd128 2.228 . S
Cd128 O127 2.228 . S
Cd128 O132 2.273 . S
Cd128 O136 2.277 . S
O129 C126 1.160 . S
O129 Cd130 2.203 . S
Cd130 O129 2.203 . S
Cd130 O132 2.411 . S
Cd130 O133 2.333 . S
Cd130 O134 2.352 . S
Cd130 O138 2.277 . S
Cd130 O139 2.356 . S
C131 O136 1.209 . S
C131 O138 1.226 . S
O132 Cd128 2.273 . S
O132 Cd130 2.411 . S
O132 C135 1.320 . S
O133 Cd130 2.333 . S
O133 C135 1.214 . S
O134 Cd130 2.352 . S
O134 C137 1.258 . S
C135 O132 1.320 . S
C135 O133 1.214 . S
O136 Cd128 2.277 . S
O136 C131 1.209 . S
C137 O134 1.258 . S
C137 O139 1.282 . S
O138 Cd130 2.277 . S
O138 C131 1.226 . S
O139 Cd130 2.356 . S
O139 C137 1.282 . S
C140 O141 1.306 . S
C140 O143 1.160 . S
O141 C140 1.306 . S
O141 Cd142 2.228 . S
Cd142 O141 2.228 . S
Cd142 O146 2.273 . S
Cd142 O150 2.277 . S
O143 C140 1.160 . S
O143 Cd144 2.203 1_565 S
Cd144 O143 2.203 1_545 S
Cd144 O146 2.411 1_545 S
Cd144 O147 2.333 . S
Cd144 O148 2.352 . S
Cd144 O152 2.277 . S
Cd144 O153 2.356 . S
C145 O150 1.209 1_545 S
C145 O152 1.226 . S
O146 Cd142 2.273 . S
O146 Cd144 2.411 1_565 S
O146 C149 1.320 . S
O147 Cd144 2.333 . S
O147 C149 1.214 1_545 S
O148 Cd144 2.352 . S
O148 C151 1.258 . S
C149 O146 1.320 . S
C149 O147 1.214 1_565 S
O150 Cd142 2.277 . S
O150 C145 1.209 1_565 S
C151 O148 1.258 . S
C151 O153 1.282 . S
O152 Cd144 2.277 . S
O152 C145 1.226 . S
O153 Cd144 2.356 . S
O153 C151 1.282 . S
C154 O155 1.306 . S
C154 O157 1.160 . S
O155 C154 1.306 . S
O155 Cd156 2.228 1_554 S
Cd156 O155 2.228 1_556 S
Cd156 O160 2.273 . S
Cd156 O164 2.277 . S
O157 C154 1.160 . S
O157 Cd158 2.203 . S
Cd158 O157 2.203 . S
Cd158 O160 2.411 1_554 S
Cd158 O161 2.333 1_554 S
Cd158 O162 2.352 . S
Cd158 O166 2.277 1_554 S
Cd158 O167 2.356 . S
C159 O164 1.209 . S
C159 O166 1.226 . S
O160 Cd156 2.273 . S
O160 Cd158 2.411 1_556 S
O160 C163 1.320 . S
O161 Cd158 2.333 1_556 S
O161 C163 1.214 . S
O162 Cd158 2.352 . S
O162 C165 1.258 . S
C163 O160 1.320 . S
C163 O161 1.214 . S
O164 Cd156 2.277 . S
O164 C159 1.209 . S
C165 O162 1.258 . S
C165 O167 1.282 . S
O166 Cd158 2.277 1_556 S
O166 C159 1.226 . S
O167 Cd158 2.356 . S
O167 C165 1.282 . S
C168 O169 1.306 . S
C168 O171 1.160 . S
O169 C168 1.306 . S
O169 Cd170 2.228 . S
Cd170 O169 2.228 . S
Cd170 O174 2.273 . S
Cd170 O178 2.277 . S
O171 C168 1.160 . S
O171 Cd172 2.203 1_554 S
Cd172 O171 2.203 1_556 S
Cd172 O174 2.411 1_556 S
Cd172 O175 2.334 . S
Cd172 O176 2.345 1_556 S
Cd172 O180 2.277 . S
Cd172 O181 2.356 . S
C173 O178 1.209 1_556 S
C173 O180 1.226 . S
O174 Cd170 2.273 . S
O174 Cd172 2.411 1_554 S
O174 C177 1.320 . S
O175 Cd172 2.334 . S
O175 C177 1.198 1_556 S
O176 Cd172 2.345 1_554 S
O176 C179 1.207 1_554 S
C177 O174 1.320 . S
C177 O175 1.198 1_554 S
O178 Cd170 2.277 . S
O178 C173 1.209 1_554 S
C179 O176 1.207 1_556 S
C179 O181 1.282 . S
O180 Cd172 2.277 . S
O180 C173 1.226 . S
O181 Cd172 2.356 . S
O181 C179 1.282 . S
C182 O183 1.306 . S
C182 O185 1.160 . S
O183 C182 1.306 . S
O183 Cd184 2.228 . S
Cd184 O183 2.228 . S
Cd184 O188 2.273 . S
Cd184 O192 2.277 . S
O185 C182 1.160 . S
O185 Cd186 2.203 1_554 S
Cd186 O185 2.203 1_556 S
Cd186 O188 2.411 1_556 S
Cd186 O189 2.333 . S
Cd186 O190 2.359 . S
Cd186 O194 2.277 . S
Cd186 O195 2.356 . S
C187 O192 1.209 1_556 S
C187 O194 1.226 . S
O188 Cd184 2.273 . S
O188 Cd186 2.411 1_554 S
O188 C191 1.320 . S
O189 Cd186 2.333 . S
O189 C191 1.214 1_556 S
O190 Cd186 2.359 . S
O190 C193 1.311 . S
C191 O188 1.320 . S
C191 O189 1.214 1_554 S
O192 Cd184 2.277 . S
O192 C187 1.209 1_554 S
C193 O190 1.311 . S
C193 O195 1.282 . S
O194 Cd186 2.277 . S
O194 C187 1.226 . S
O195 Cd186 2.356 . S
O195 C193 1.282 . S
C196 O197 1.306 . S
C196 O199 1.160 . S
O197 C196 1.306 . S
O197 Cd198 2.228 . S
Cd198 O197 2.228 . S
Cd198 O202 2.273 . S
Cd198 O206 2.277 . S
O199 C196 1.160 . S
O199 Cd200 2.203 . S
Cd200 O199 2.203 . S
Cd200 O202 2.411 . S
Cd200 O203 2.333 . S
Cd200 O204 2.352 . S
Cd200 O208 2.277 . S
Cd200 O209 2.356 . S
C201 O206 1.209 . S
C201 O208 1.226 . S
O202 Cd198 2.273 . S
O202 Cd200 2.411 . S
O202 C205 1.320 . S
O203 Cd200 2.333 . S
O203 C205 1.214 . S
O204 Cd200 2.352 . S
O204 C207 1.258 . S
C205 O202 1.320 . S
C205 O203 1.214 . S
O206 Cd198 2.277 . S
O206 C201 1.209 . S
C207 O204 1.258 . S
C207 O209 1.282 . S
O208 Cd200 2.277 . S
O208 C201 1.226 . S
O209 Cd200 2.356 . S
O209 C207 1.282 . S
C210 O211 1.306 . S
C210 O213 1.160 . S
O211 C210 1.306 . S
O211 Cd212 2.228 . S
Cd212 O211 2.228 . S
Cd212 O216 2.273 . S
Cd212 O220 2.277 . S
O213 C210 1.160 . S
O213 Cd214 2.203 . S
Cd214 O213 2.203 . S
Cd214 O216 2.411 . S
Cd214 O217 2.333 . S
Cd214 O218 2.352 . S
Cd214 O222 2.277 . S
Cd214 O223 2.356 . S
C215 O220 1.209 . S
C215 O222 1.226 . S
O216 Cd212 2.273 . S
O216 Cd214 2.411 . S
O216 C219 1.320 . S
O217 Cd214 2.333 . S
O217 C219 1.214 . S
O218 Cd214 2.352 . S
O218 C221 1.258 . S
C219 O216 1.320 . S
C219 O217 1.214 . S
O220 Cd212 2.277 . S
O220 C215 1.209 . S
C221 O218 1.258 . S
C221 O223 1.282 . S
O222 Cd214 2.277 . S
O222 C215 1.226 . S
O223 Cd214 2.356 . S
O223 C221 1.282 . S
C224 O225 1.306 . S
C224 O227 1.160 . S
O225 C224 1.306 . S
O225 Cd226 2.228 1_545 S
Cd226 O225 2.228 1_565 S
Cd226 O230 2.273 . S
Cd226 O234 2.277 . S
O227 C224 1.160 . S
O227 Cd228 2.203 . S
Cd228 O227 2.203 . S
Cd228 O230 2.411 1_545 S
Cd228 O231 2.333 1_545 S
Cd228 O232 2.352 . S
Cd228 O236 2.277 1_545 S
Cd228 O237 2.356 . S
C229 O234 1.209 . S
C229 O236 1.226 . S
O230 Cd226 2.273 . S
O230 Cd228 2.411 1_565 S
O230 C233 1.320 . S
O231 Cd228 2.333 1_565 S
O231 C233 1.214 . S
O232 Cd228 2.352 . S
O232 C235 1.258 . S
C233 O230 1.320 . S
C233 O231 1.214 . S
O234 Cd226 2.277 . S
O234 C229 1.209 . S
C235 O232 1.258 . S
C235 O237 1.282 . S
O236 Cd228 2.277 1_565 S
O236 C229 1.226 . S
O237 Cd228 2.356 . S
O237 C235 1.282 . S
C238 O239 1.306 . S
C238 O241 1.160 . S
O239 C238 1.306 . S
O239 Cd240 2.228 . S
Cd240 O239 2.228 . S
Cd240 O244 2.273 . S
Cd240 O248 2.277 . S
O241 C238 1.160 . S
O241 Cd242 2.203 . S
Cd242 O241 2.203 . S
Cd242 O244 2.411 . S
Cd242 O245 2.333 . S
Cd242 O246 2.352 . S
Cd242 O250 2.277 . S
Cd242 O251 2.356 . S
C243 O248 1.209 . S
C243 O250 1.226 . S
O244 Cd240 2.273 . S
O244 Cd242 2.411 . S
O244 C247 1.320 . S
O245 Cd242 2.333 . S
O245 C247 1.214 . S
O246 Cd242 2.352 . S
O246 C249 1.258 . S
C247 O244 1.320 . S
C247 O245 1.214 . S
O248 Cd240 2.277 . S
O248 C243 1.209 . S
C249 O246 1.258 . S
C249 O251 1.282 . S
O250 Cd242 2.277 . S
O250 C243 1.226 . S
O251 Cd242 2.356 . S
O251 C249 1.282 . S
C252 O253 1.306 . S
C252 O255 1.160 . S
O253 C252 1.306 . S
O253 Cd254 2.228 . S
Cd254 O253 2.228 . S
Cd254 O258 2.273 . S
Cd254 O262 2.277 . S
O255 C252 1.160 . S
O255 Cd256 2.203 . S
Cd256 O255 2.203 . S
Cd256 O258 2.411 . S
Cd256 O259 2.333 . S
Cd256 O260 2.352 . S
Cd256 O264 2.277 . S
Cd256 O265 2.356 . S
C257 O262 1.209 . S
C257 O264 1.226 . S
O258 Cd254 2.273 . S
O258 Cd256 2.411 . S
O258 C261 1.320 . S
O259 Cd256 2.333 . S
O259 C261 1.214 . S
O260 Cd256 2.352 . S
O260 C263 1.258 . S
C261 O258 1.320 . S
C261 O259 1.214 . S
O262 Cd254 2.277 . S
O262 C257 1.209 . S
C263 O260 1.258 . S
C263 O265 1.282 . S
O264 Cd256 2.277 . S
O264 C257 1.226 . S
O265 Cd256 2.356 . S
O265 C263 1.282 . S
C266 O267 1.306 . S
C266 O269 1.160 . S
O267 C266 1.306 . S
O267 Cd268 2.228 1_545 S
Cd268 O267 2.228 1_565 S
Cd268 O272 2.273 . S
Cd268 O276 2.277 . S
O269 C266 1.160 . S
O269 Cd270 2.203 . S
Cd270 O269 2.203 . S
Cd270 O272 2.411 1_545 S
Cd270 O273 2.333 1_545 S
Cd270 O274 2.352 . S
Cd270 O278 2.277 1_545 S
Cd270 O279 2.356 . S
C271 O276 1.209 . S
C271 O278 1.226 . S
O272 Cd268 2.273 . S
O272 Cd270 2.411 1_565 S
O272 C275 1.320 . S
O273 Cd270 2.333 1_565 S
O273 C275 1.214 . S
O274 Cd270 2.352 . S
O274 C277 1.258 . S
C275 O272 1.320 . S
C275 O273 1.214 . S
O276 Cd268 2.277 . S
O276 C271 1.209 . S
C277 O274 1.258 . S
C277 O279 1.282 . S
O278 Cd270 2.277 1_565 S
O278 C271 1.226 . S
O279 Cd270 2.356 . S
O279 C277 1.282 . S
C280 O281 1.306 . S
C280 O283 1.160 . S
O281 C280 1.306 . S
O281 Cd282 2.228 1_554 S
Cd282 O281 2.228 1_556 S
Cd282 O286 2.273 . S
Cd282 O290 2.277 . S
O283 C280 1.160 . S
O283 Cd284 2.203 . S
Cd284 O283 2.203 . S
Cd284 O286 2.411 1_554 S
Cd284 O287 2.333 1_554 S
Cd284 O288 2.352 . S
Cd284 O292 2.277 1_554 S
Cd284 O293 2.356 . S
C285 O290 1.209 . S
C285 O292 1.226 . S
O286 Cd282 2.273 . S
O286 Cd284 2.411 1_556 S
O286 C289 1.320 . S
O287 Cd284 2.333 1_556 S
O287 C289 1.214 . S
O288 Cd284 2.352 . S
O288 C291 1.258 . S
C289 O286 1.320 . S
C289 O287 1.214 . S
O290 Cd282 2.277 . S
O290 C285 1.209 . S
C291 O288 1.258 . S
C291 O293 1.282 . S
O292 Cd284 2.277 1_556 S
O292 C285 1.226 . S
O293 Cd284 2.356 . S
O293 C291 1.282 . S
C294 O295 1.306 . S
C294 O297 1.160 . S
O295 C294 1.306 . S
O295 Cd296 2.228 . S
Cd296 O295 2.228 . S
Cd296 O300 2.273 . S
Cd296 O304 2.277 . S
O297 C294 1.160 . S
O297 Cd298 2.203 . S
Cd298 O297 2.203 . S
Cd298 O300 2.411 . S
Cd298 O301 2.333 . S
Cd298 O302 2.352 . S
Cd298 O306 2.277 . S
Cd298 O307 2.356 . S
C299 O304 1.209 . S
C299 O306 1.226 . S
O300 Cd296 2.273 . S
O300 Cd298 2.411 . S
O300 C303 1.320 . S
O301 Cd298 2.333 . S
O301 C303 1.214 . S
O302 Cd298 2.352 . S
O302 C305 1.258 . S
C303 O300 1.320 . S
C303 O301 1.214 . S
O304 Cd296 2.277 . S
O304 C299 1.209 . S
C305 O302 1.258 . S
C305 O307 1.282 . S
O306 Cd298 2.277 . S
O306 C299 1.226 . S
O307 Cd298 2.356 . S
O307 C305 1.282 . S
C308 O309 1.306 . S
C308 O311 1.160 . S
O309 C308 1.306 . S
O309 Cd310 2.228 . S
Cd310 O309 2.228 . S
Cd310 O314 2.273 . S
Cd310 O318 2.277 . S
O311 C308 1.160 . S
O311 Cd312 2.203 . S
Cd312 O311 2.203 . S
Cd312 O314 2.411 . S
Cd312 O315 2.333 . S
Cd312 O316 2.352 . S
Cd312 O320 2.277 . S
Cd312 O321 2.356 . S
C313 O318 1.209 . S
C313 O320 1.226 . S
O314 Cd310 2.273 . S
O314 Cd312 2.411 . S
O314 C317 1.320 . S
O315 Cd312 2.333 . S
O315 C317 1.214 . S
O316 Cd312 2.352 . S
O316 C319 1.258 . S
C317 O314 1.320 . S
C317 O315 1.214 . S
O318 Cd310 2.277 . S
O318 C313 1.209 . S
C319 O316 1.258 . S
C319 O321 1.282 . S
O320 Cd312 2.277 . S
O320 C313 1.226 . S
O321 Cd312 2.356 . S
O321 C319 1.282 . S
C322 O323 1.306 . S
C322 O325 1.160 . S
O323 C322 1.306 . S
O323 Cd324 2.228 . S
Cd324 O323 2.228 . S
Cd324 O328 2.273 . S
Cd324 O332 2.277 . S
O325 C322 1.160 . S
O325 Cd326 2.203 . S
Cd326 O325 2.203 . S
Cd326 O328 2.411 . S
Cd326 O329 2.333 . S
Cd326 O330 2.352 . S
Cd326 O334 2.277 . S
Cd326 O335 2.356 . S
C327 O332 1.209 . S
C327 O334 1.226 . S
O328 Cd324 2.273 . S
O328 Cd326 2.411 . S
O328 C331 1.320 . S
O329 Cd326 2.333 . S
O329 C331 1.214 . S
O330 Cd326 2.352 . S
O330 C333 1.258 . S
C331 O328 1.320 . S
C331 O329 1.214 . S
O332 Cd324 2.277 . S
O332 C327 1.209 . S
C333 O330 1.258 . S
C333 O335 1.282 . S
O334 Cd326 2.277 . S
O334 C327 1.226 . S
O335 Cd326 2.356 . S
O335 C333 1.282 . S
Sc336 O339 2.025 . S
Sc336 O346 2.105 . S
Sc336 O349 2.105 . S
Sc336 O352 2.105 . S
Sc336 O355 2.105 . S
Sc337 O339 2.025 . S
Sc337 O347 2.105 . S
Sc337 O351 2.105 . S
Sc337 O353 2.105 . S
Sc337 O357 2.105 . S
Sc338 O339 2.025 . S
Sc338 O348 2.105 . S
Sc338 O350 2.105 . S
Sc338 O354 2.105 . S
Sc338 O356 2.105 . S
O339 Sc336 2.025 . S
O339 Sc337 2.025 . S
O339 Sc338 2.025 . S
C340 O346 1.268 . S
C340 O356 1.268 . S
C341 O347 1.268 . S
C341 O355 1.268 . S
C342 O348 1.268 . S
C342 O357 1.268 . S
C343 O349 1.268 . S
C343 O353 1.268 . S
C344 O350 1.268 . S
C344 O352 1.268 . S
C345 O351 1.268 . S
C345 O354 1.268 . S
O346 Sc336 2.105 . S
O346 C340 1.268 . S
O347 Sc337 2.105 . S
O347 C341 1.268 . S
O348 Sc338 2.105 . S
O348 C342 1.268 . S
O349 Sc336 2.105 . S
O349 C343 1.268 . S
O350 Sc338 2.105 . S
O350 C344 1.268 . S
O351 Sc337 2.105 . S
O351 C345 1.268 . S
O352 Sc336 2.105 . S
O352 C344 1.268 . S
O353 Sc337 2.105 . S
O353 C343 1.268 . S
O354 Sc338 2.105 . S
O354 C345 1.268 . S
O355 Sc336 2.105 . S
O355 C341 1.268 . S
O356 Sc338 2.105 . S
O356 C340 1.268 . S
O357 Sc337 2.105 . S
O357 C342 1.268 . S
Sc358 O361 2.025 . S
Sc358 O368 2.105 . S
Sc358 O371 2.105 . S
Sc358 O374 2.105 . S
Sc358 O377 2.105 . S
Sc359 O361 2.025 . S
Sc359 O369 2.105 . S
Sc359 O373 2.105 . S
Sc359 O375 2.105 . S
Sc359 O379 2.105 . S
Sc360 O361 2.025 . S
Sc360 O370 2.105 . S
Sc360 O372 2.105 . S
Sc360 O376 2.105 . S
Sc360 O378 2.105 . S
O361 Sc358 2.025 . S
O361 Sc359 2.025 . S
O361 Sc360 2.025 . S
C362 O368 1.268 . S
C362 O378 1.268 . S
C363 O369 1.268 . S
C363 O377 1.268 . S
C364 O370 1.268 . S
C364 O379 1.268 . S
C365 O371 1.268 . S
C365 O375 1.268 . S
C366 O372 1.268 . S
C366 O374 1.268 . S
C367 O373 1.268 . S
C367 O376 1.268 . S
O368 Sc358 2.105 . S
O368 C362 1.268 . S
O369 Sc359 2.105 . S
O369 C363 1.268 . S
O370 Sc360 2.105 . S
O370 C364 1.268 . S
O371 Sc358 2.105 . S
O371 C365 1.268 . S
O372 Sc360 2.105 . S
O372 C366 1.268 . S
O373 Sc359 2.105 . S
O373 C367 1.268 . S
O374 Sc358 2.105 . S
O374 C366 1.268 . S
O375 Sc359 2.105 . S
O375 C365 1.268 . S
O376 Sc360 2.105 . S
O376 C367 1.268 . S
O377 Sc358 2.105 . S
O377 C363 1.268 . S
O378 Sc360 2.105 . S
O378 C362 1.268 . S
O379 Sc359 2.105 . S
O379 C364 1.268 . S
Sc380 O383 2.025 . S
Sc380 O390 2.105 . S
Sc380 O393 2.105 . S
Sc380 O396 2.105 . S
Sc380 O399 2.105 . S
Sc381 O383 2.025 . S
Sc381 O391 2.105 . S
Sc381 O395 2.105 . S
Sc381 O397 2.105 . S
Sc381 O401 2.105 . S
Sc382 O383 2.025 . S
Sc382 O392 2.105 . S
Sc382 O394 2.105 . S
Sc382 O398 2.105 . S
Sc382 O400 2.105 . S
O383 Sc380 2.025 . S
O383 Sc381 2.025 . S
O383 Sc382 2.025 . S
C384 O390 1.268 . S
C384 O400 1.268 . S
C385 O391 1.268 . S
C385 O399 1.268 . S
C386 O392 1.268 . S
C386 O401 1.268 . S
C387 O393 1.268 . S
C387 O397 1.268 . S
C388 O394 1.268 . S
C388 O396 1.268 . S
C389 O395 1.268 . S
C389 O398 1.268 . S
O390 Sc380 2.105 . S
O390 C384 1.268 . S
O391 Sc381 2.105 . S
O391 C385 1.268 . S
O392 Sc382 2.105 . S
O392 C386 1.268 . S
O393 Sc380 2.105 . S
O393 C387 1.268 . S
O394 Sc382 2.105 . S
O394 C388 1.268 . S
O395 Sc381 2.105 . S
O395 C389 1.268 . S
O396 Sc380 2.105 . S
O396 C388 1.268 . S
O397 Sc381 2.105 . S
O397 C387 1.268 . S
O398 Sc382 2.105 . S
O398 C389 1.268 . S
O399 Sc380 2.105 . S
O399 C385 1.268 . S
O400 Sc382 2.105 . S
O400 C384 1.268 . S
O401 Sc381 2.105 . S
O401 C386 1.268 . S
Sc402 O405 2.025 . S
Sc402 O412 2.105 . S
Sc402 O415 2.105 . S
Sc402 O418 2.105 . S
Sc402 O421 2.105 . S
Sc403 O405 2.025 . S
Sc403 O413 2.105 . S
Sc403 O417 2.105 . S
Sc403 O419 2.105 . S
Sc403 O423 2.105 . S
Sc404 O405 2.025 . S
Sc404 O414 2.105 . S
Sc404 O416 2.105 . S
Sc404 O420 2.105 . S
Sc404 O422 2.105 . S
O405 Sc402 2.025 . S
O405 Sc403 2.025 . S
O405 Sc404 2.025 . S
C406 O412 1.268 . S
C406 O422 1.268 . S
C407 O413 1.268 . S
C407 O421 1.268 . S
C408 O414 1.268 . S
C408 O423 1.268 . S
C409 O415 1.268 . S
C409 O419 1.268 . S
C410 O416 1.268 . S
C410 O418 1.268 . S
C411 O417 1.268 . S
C411 O420 1.268 . S
O412 Sc402 2.105 . S
O412 C406 1.268 . S
O413 Sc403 2.105 . S
O413 C407 1.268 . S
O414 Sc404 2.105 . S
O414 C408 1.268 . S
O415 Sc402 2.105 . S
O415 C409 1.268 . S
O416 Sc404 2.105 . S
O416 C410 1.268 . S
O417 Sc403 2.105 . S
O417 C411 1.268 . S
O418 Sc402 2.105 . S
O418 C410 1.268 . S
O419 Sc403 2.105 . S
O419 C409 1.268 . S
O420 Sc404 2.105 . S
O420 C411 1.268 . S
O421 Sc402 2.105 . S
O421 C407 1.268 . S
O422 Sc404 2.105 . S
O422 C406 1.268 . S
O423 Sc403 2.105 . S
O423 C408 1.268 . S
Sc424 O427 2.025 . S
Sc424 O434 2.105 . S
Sc424 O437 2.105 . S
Sc424 O440 2.105 . S
Sc424 O443 2.105 . S
Sc425 O427 2.025 . S
Sc425 O435 2.105 . S
Sc425 O439 2.105 . S
Sc425 O441 2.105 . S
Sc425 O445 2.105 . S
Sc426 O427 2.025 . S
Sc426 O436 2.105 . S
Sc426 O438 2.105 . S
Sc426 O442 2.105 . S
Sc426 O444 2.105 . S
O427 Sc424 2.025 . S
O427 Sc425 2.025 . S
O427 Sc426 2.025 . S
C428 O434 1.268 . S
C428 O444 1.268 . S
C429 O435 1.268 . S
C429 O443 1.268 . S
C430 O436 1.268 . S
C430 O445 1.268 . S
C431 O437 1.268 . S
C431 O441 1.268 . S
C432 O438 1.268 . S
C432 O440 1.268 . S
C433 O439 1.268 . S
C433 O442 1.268 . S
O434 Sc424 2.105 . S
O434 C428 1.268 . S
O435 Sc425 2.105 . S
O435 C429 1.268 . S
O436 Sc426 2.105 . S
O436 C430 1.268 . S
O437 Sc424 2.105 . S
O437 C431 1.268 . S
O438 Sc426 2.105 . S
O438 C432 1.268 . S
O439 Sc425 2.105 . S
O439 C433 1.268 . S
O440 Sc424 2.105 . S
O440 C432 1.268 . S
O441 Sc425 2.105 . S
O441 C431 1.268 . S
O442 Sc426 2.105 . S
O442 C433 1.268 . S
O443 Sc424 2.105 . S
O443 C429 1.268 . S
O444 Sc426 2.105 . S
O444 C428 1.268 . S
O445 Sc425 2.105 . S
O445 C430 1.268 . S
Sc446 O449 2.025 . S
Sc446 O456 2.105 . S
Sc446 O459 2.105 . S
Sc446 O462 2.105 . S
Sc446 O465 2.105 . S
Sc447 O449 2.025 . S
Sc447 O457 2.105 . S
Sc447 O461 2.105 . S
Sc447 O463 2.105 . S
Sc447 O467 2.105 . S
Sc448 O449 2.025 . S
Sc448 O458 2.105 . S
Sc448 O460 2.105 . S
Sc448 O464 2.105 . S
Sc448 O466 2.105 . S
O449 Sc446 2.025 . S
O449 Sc447 2.025 . S
O449 Sc448 2.025 . S
C450 O456 1.268 . S
C450 O466 1.268 . S
C451 O457 1.268 . S
C451 O465 1.268 . S
C452 O458 1.268 . S
C452 O467 1.268 . S
C453 O459 1.268 . S
C453 O463 1.268 . S
C454 O460 1.268 . S
C454 O462 1.268 . S
C455 O461 1.268 . S
C455 O464 1.268 . S
O456 Sc446 2.105 . S
O456 C450 1.268 . S
O457 Sc447 2.105 . S
O457 C451 1.268 . S
O458 Sc448 2.105 . S
O458 C452 1.268 . S
O459 Sc446 2.105 . S
O459 C453 1.268 . S
O460 Sc448 2.105 . S
O460 C454 1.268 . S
O461 Sc447 2.105 . S
O461 C455 1.268 . S
O462 Sc446 2.105 . S
O462 C454 1.268 . S
O463 Sc447 2.105 . S
O463 C453 1.268 . S
O464 Sc448 2.105 . S
O464 C455 1.268 . S
O465 Sc446 2.105 . S
O465 C451 1.268 . S
O466 Sc448 2.105 . S
O466 C450 1.268 . S
O467 Sc447 2.105 . S
O467 C452 1.268 . S
Sc468 O471 2.025 . S
Sc468 O478 2.105 . S
Sc468 O481 2.105 . S
Sc468 O484 2.105 . S
Sc468 O487 2.105 . S
Sc469 O471 2.025 . S
Sc469 O479 2.105 . S
Sc469 O483 2.105 . S
Sc469 O485 2.105 . S
Sc469 O489 2.105 . S
Sc470 O471 2.025 . S
Sc470 O480 2.105 . S
Sc470 O482 2.105 . S
Sc470 O486 2.105 . S
Sc470 O488 2.105 . S
O471 Sc468 2.025 . S
O471 Sc469 2.025 . S
O471 Sc470 2.025 . S
C472 O478 1.268 . S
C472 O488 1.268 . S
C473 O479 1.268 . S
C473 O487 1.268 . S
C474 O480 1.268 . S
C474 O489 1.268 . S
C475 O481 1.268 . S
C475 O485 1.268 . S
C476 O482 1.268 . S
C476 O484 1.268 . S
C477 O483 1.268 . S
C477 O486 1.268 . S
O478 Sc468 2.105 . S
O478 C472 1.268 . S
O479 Sc469 2.105 . S
O479 C473 1.268 . S
O480 Sc470 2.105 . S
O480 C474 1.268 . S
O481 Sc468 2.105 . S
O481 C475 1.268 . S
O482 Sc470 2.105 . S
O482 C476 1.268 . S
O483 Sc469 2.105 . S
O483 C477 1.268 . S
O484 Sc468 2.105 . S
O484 C476 1.268 . S
O485 Sc469 2.105 . S
O485 C475 1.268 . S
O486 Sc470 2.105 . S
O486 C477 1.268 . S
O487 Sc468 2.105 . S
O487 C473 1.268 . S
O488 Sc470 2.105 . S
O488 C472 1.268 . S
O489 Sc469 2.105 . S
O489 C474 1.268 . S
Sc490 O493 2.025 . S
Sc490 O500 2.105 . S
Sc490 O503 2.105 . S
Sc490 O506 2.105 . S
Sc490 O509 2.105 . S
Sc491 O493 2.025 . S
Sc491 O501 2.105 . S
Sc491 O505 2.105 . S
Sc491 O507 2.105 . S
Sc491 O511 2.105 . S
Sc492 O493 2.025 . S
Sc492 O502 2.105 . S
Sc492 O504 2.105 . S
Sc492 O508 2.105 . S
Sc492 O510 2.105 . S
O493 Sc490 2.025 . S
O493 Sc491 2.025 . S
O493 Sc492 2.025 . S
C494 O500 1.268 . S
C494 O510 1.268 . S
C495 O501 1.268 . S
C495 O509 1.268 . S
C496 O502 1.268 . S
C496 O511 1.268 . S
C497 O503 1.268 . S
C497 O507 1.268 . S
C498 O504 1.268 . S
C498 O506 1.268 . S
C499 O505 1.268 . S
C499 O508 1.268 . S
O500 Sc490 2.105 . S
O500 C494 1.268 . S
O501 Sc491 2.105 . S
O501 C495 1.268 . S
O502 Sc492 2.105 . S
O502 C496 1.268 . S
O503 Sc490 2.105 . S
O503 C497 1.268 . S
O504 Sc492 2.105 . S
O504 C498 1.268 . S
O505 Sc491 2.105 . S
O505 C499 1.268 . S
O506 Sc490 2.105 . S
O506 C498 1.268 . S
O507 Sc491 2.105 . S
O507 C497 1.268 . S
O508 Sc492 2.105 . S
O508 C499 1.268 . S
O509 Sc490 2.105 . S
O509 C495 1.268 . S
O510 Sc492 2.105 . S
O510 C494 1.268 . S
O511 Sc491 2.105 . S
O511 C496 1.268 . S
Sc512 O515 2.025 . S
Sc512 O522 2.105 . S
Sc512 O525 2.105 . S
Sc512 O528 2.105 . S
Sc512 O531 2.105 . S
Sc513 O515 2.025 . S
Sc513 O523 2.105 . S
Sc513 O527 2.105 . S
Sc513 O529 2.105 . S
Sc513 O533 2.105 . S
Sc514 O515 2.025 . S
Sc514 O524 2.105 . S
Sc514 O526 2.105 . S
Sc514 O530 2.105 . S
Sc514 O532 2.105 . S
O515 Sc512 2.025 . S
O515 Sc513 2.025 . S
O515 Sc514 2.025 . S
C516 O522 1.268 . S
C516 O532 1.268 . S
C517 O523 1.268 . S
C517 O531 1.268 . S
C518 O524 1.268 . S
C518 O533 1.268 . S
C519 O525 1.268 . S
C519 O529 1.268 . S
C520 O526 1.268 . S
C520 O528 1.268 . S
C521 O527 1.268 . S
C521 O530 1.268 . S
O522 Sc512 2.105 . S
O522 C516 1.268 . S
O523 Sc513 2.105 . S
O523 C517 1.268 . S
O524 Sc514 2.105 . S
O524 C518 1.268 . S
O525 Sc512 2.105 . S
O525 C519 1.268 . S
O526 Sc514 2.105 . S
O526 C520 1.268 . S
O527 Sc513 2.105 . S
O527 C521 1.268 . S
O528 Sc512 2.105 . S
O528 C520 1.268 . S
O529 Sc513 2.105 . S
O529 C519 1.268 . S
O530 Sc514 2.105 . S
O530 C521 1.268 . S
O531 Sc512 2.105 . S
O531 C517 1.268 . S
O532 Sc514 2.105 . S
O532 C516 1.268 . S
O533 Sc513 2.105 . S
O533 C518 1.268 . S
Sc534 O537 2.025 . S
Sc534 O544 2.105 . S
Sc534 O547 2.105 . S
Sc534 O550 2.105 . S
Sc534 O553 2.105 . S
Sc535 O537 2.025 . S
Sc535 O545 2.105 . S
Sc535 O549 2.105 . S
Sc535 O551 2.105 . S
Sc535 O555 2.105 . S
Sc536 O537 2.025 . S
Sc536 O546 2.105 . S
Sc536 O548 2.105 . S
Sc536 O552 2.105 . S
Sc536 O554 2.105 . S
O537 Sc534 2.025 . S
O537 Sc535 2.025 . S
O537 Sc536 2.025 . S
C538 O544 1.268 . S
C538 O554 1.268 . S
C539 O545 1.268 . S
C539 O553 1.268 . S
C540 O546 1.268 . S
C540 O555 1.268 . S
C541 O547 1.268 . S
C541 O551 1.268 . S
C542 O548 1.268 . S
C542 O550 1.268 . S
C543 O549 1.268 . S
C543 O552 1.268 . S
O544 Sc534 2.105 . S
O544 C538 1.268 . S
O545 Sc535 2.105 . S
O545 C539 1.268 . S
O546 Sc536 2.105 . S
O546 C540 1.268 . S
O547 Sc534 2.105 . S
O547 C541 1.268 . S
O548 Sc536 2.105 . S
O548 C542 1.268 . S
O549 Sc535 2.105 . S
O549 C543 1.268 . S
O550 Sc534 2.105 . S
O550 C542 1.268 . S
O551 Sc535 2.105 . S
O551 C541 1.268 . S
O552 Sc536 2.105 . S
O552 C543 1.268 . S
O553 Sc534 2.105 . S
O553 C539 1.268 . S
O554 Sc536 2.105 . S
O554 C538 1.268 . S
O555 Sc535 2.105 . S
O555 C540 1.268 . S
Sc556 O559 2.025 . S
Sc556 O566 2.105 . S
Sc556 O569 2.105 . S
Sc556 O572 2.105 . S
Sc556 O575 2.105 . S
Sc557 O559 2.025 . S
Sc557 O567 2.105 . S
Sc557 O571 2.105 . S
Sc557 O573 2.105 . S
Sc557 O577 2.105 . S
Sc558 O559 2.025 . S
Sc558 O568 2.105 . S
Sc558 O570 2.105 . S
Sc558 O574 2.105 . S
Sc558 O576 2.105 . S
O559 Sc556 2.025 . S
O559 Sc557 2.025 . S
O559 Sc558 2.025 . S
C560 O566 1.268 . S
C560 O576 1.268 . S
C561 O567 1.268 . S
C561 O575 1.268 . S
C562 O568 1.268 . S
C562 O577 1.268 . S
C563 O569 1.268 . S
C563 O573 1.268 . S
C564 O570 1.268 . S
C564 O572 1.268 . S
C565 O571 1.268 . S
C565 O574 1.268 . S
O566 Sc556 2.105 . S
O566 C560 1.268 . S
O567 Sc557 2.105 . S
O567 C561 1.268 . S
O568 Sc558 2.105 . S
O568 C562 1.268 . S
O569 Sc556 2.105 . S
O569 C563 1.268 . S
O570 Sc558 2.105 . S
O570 C564 1.268 . S
O571 Sc557 2.105 . S
O571 C565 1.268 . S
O572 Sc556 2.105 . S
O572 C564 1.268 . S
O573 Sc557 2.105 . S
O573 C563 1.268 . S
O574 Sc558 2.105 . S
O574 C565 1.268 . S
O575 Sc556 2.105 . S
O575 C561 1.268 . S
O576 Sc558 2.105 . S
O576 C560 1.268 . S
O577 Sc557 2.105 . S
O577 C562 1.268 . S
Sc578 O581 2.025 . S
Sc578 O588 2.105 . S
Sc578 O591 2.105 . S
Sc578 O594 2.105 . S
Sc578 O597 2.105 . S
Sc579 O581 2.025 . S
Sc579 O589 2.105 . S
Sc579 O593 2.105 . S
Sc579 O595 2.105 . S
Sc579 O599 2.105 . S
Sc580 O581 2.025 . S
Sc580 O590 2.105 . S
Sc580 O592 2.105 . S
Sc580 O596 2.105 . S
Sc580 O598 2.105 . S
O581 Sc578 2.025 . S
O581 Sc579 2.025 . S
O581 Sc580 2.025 . S
C582 O588 1.268 . S
C582 O598 1.268 . S
C583 O589 1.268 . S
C583 O597 1.268 . S
C584 O590 1.268 . S
C584 O599 1.268 . S
C585 O591 1.268 . S
C585 O595 1.268 . S
C586 O592 1.268 . S
C586 O594 1.268 . S
C587 O593 1.268 . S
C587 O596 1.268 . S
O588 Sc578 2.105 . S
O588 C582 1.268 . S
O589 Sc579 2.105 . S
O589 C583 1.268 . S
O590 Sc580 2.105 . S
O590 C584 1.268 . S
O591 Sc578 2.105 . S
O591 C585 1.268 . S
O592 Sc580 2.105 . S
O592 C586 1.268 . S
O593 Sc579 2.105 . S
O593 C587 1.268 . S
O594 Sc578 2.105 . S
O594 C586 1.268 . S
O595 Sc579 2.105 . S
O595 C585 1.268 . S
O596 Sc580 2.105 . S
O596 C587 1.268 . S
O597 Sc578 2.105 . S
O597 C583 1.268 . S
O598 Sc580 2.105 . S
O598 C582 1.268 . S
O599 Sc579 2.105 . S
O599 C584 1.268 . S
Sc600 O603 2.025 . S
Sc600 O610 2.105 . S
Sc600 O613 2.105 . S
Sc600 O616 2.105 . S
Sc600 O619 2.105 . S
Sc601 O603 2.025 . S
Sc601 O611 2.105 . S
Sc601 O615 2.105 . S
Sc601 O617 2.105 . S
Sc601 O621 2.105 . S
Sc602 O603 2.025 . S
Sc602 O612 2.105 . S
Sc602 O614 2.105 . S
Sc602 O618 2.105 . S
Sc602 O620 2.105 . S
O603 Sc600 2.025 . S
O603 Sc601 2.025 . S
O603 Sc602 2.025 . S
C604 O610 1.268 . S
C604 O620 1.268 . S
C605 O611 1.268 . S
C605 O619 1.268 . S
C606 O612 1.268 . S
C606 O621 1.268 . S
C607 O613 1.268 . S
C607 O617 1.268 . S
C608 O614 1.268 . S
C608 O616 1.268 . S
C609 O615 1.268 . S
C609 O618 1.268 . S
O610 Sc600 2.105 . S
O610 C604 1.268 . S
O611 Sc601 2.105 . S
O611 C605 1.268 . S
O612 Sc602 2.105 . S
O612 C606 1.268 . S
O613 Sc600 2.105 . S
O613 C607 1.268 . S
O614 Sc602 2.105 . S
O614 C608 1.268 . S
O615 Sc601 2.105 . S
O615 C609 1.268 . S
O616 Sc600 2.105 . S
O616 C608 1.268 . S
O617 Sc601 2.105 . S
O617 C607 1.268 . S
O618 Sc602 2.105 . S
O618 C609 1.268 . S
O619 Sc600 2.105 . S
O619 C605 1.268 . S
O620 Sc602 2.105 . S
O620 C604 1.268 . S
O621 Sc601 2.105 . S
O621 C606 1.268 . S
Sc622 O625 2.025 . S
Sc622 O632 2.105 . S
Sc622 O635 2.105 . S
Sc622 O638 2.105 . S
Sc622 O641 2.105 . S
Sc623 O625 2.025 . S
Sc623 O633 2.105 . S
Sc623 O637 2.105 . S
Sc623 O639 2.105 . S
Sc623 O643 2.105 . S
Sc624 O625 2.025 . S
Sc624 O634 2.105 . S
Sc624 O636 2.105 . S
Sc624 O640 2.105 . S
Sc624 O642 2.105 . S
O625 Sc622 2.025 . S
O625 Sc623 2.025 . S
O625 Sc624 2.025 . S
C626 O632 1.268 . S
C626 O642 1.268 . S
C627 O633 1.268 . S
C627 O641 1.268 . S
C628 O634 1.268 . S
C628 O643 1.268 . S
C629 O635 1.268 . S
C629 O639 1.268 . S
C630 O636 1.268 . S
C630 O638 1.268 . S
C631 O637 1.268 . S
C631 O640 1.268 . S
O632 Sc622 2.105 . S
O632 C626 1.268 . S
O633 Sc623 2.105 . S
O633 C627 1.268 . S
O634 Sc624 2.105 . S
O634 C628 1.268 . S
O635 Sc622 2.105 . S
O635 C629 1.268 . S
O636 Sc624 2.105 . S
O636 C630 1.268 . S
O637 Sc623 2.105 . S
O637 C631 1.268 . S
O638 Sc622 2.105 . S
O638 C630 1.268 . S
O639 Sc623 2.105 . S
O639 C629 1.268 . S
O640 Sc624 2.105 . S
O640 C631 1.268 . S
O641 Sc622 2.105 . S
O641 C627 1.268 . S
O642 Sc624 2.105 . S
O642 C626 1.268 . S
O643 Sc623 2.105 . S
O643 C628 1.268 . S
Sc644 O647 2.025 . S
Sc644 O654 2.105 . S
Sc644 O657 2.105 . S
Sc644 O660 2.105 . S
Sc644 O663 2.105 . S
Sc645 O647 2.025 . S
Sc645 O655 2.105 . S
Sc645 O659 2.105 . S
Sc645 O661 2.105 . S
Sc645 O665 2.105 . S
Sc646 O647 2.025 . S
Sc646 O656 2.105 . S
Sc646 O658 2.105 . S
Sc646 O662 2.105 . S
Sc646 O664 2.105 . S
O647 Sc644 2.025 . S
O647 Sc645 2.025 . S
O647 Sc646 2.025 . S
C648 O654 1.268 . S
C648 O664 1.268 . S
C649 O655 1.268 . S
C649 O663 1.268 . S
C650 O656 1.268 . S
C650 O665 1.268 . S
C651 O657 1.268 . S
C651 O661 1.268 . S
C652 O658 1.268 . S
C652 O660 1.268 . S
C653 O659 1.268 . S
C653 O662 1.268 . S
O654 Sc644 2.105 . S
O654 C648 1.268 . S
O655 Sc645 2.105 . S
O655 C649 1.268 . S
O656 Sc646 2.105 . S
O656 C650 1.268 . S
O657 Sc644 2.105 . S
O657 C651 1.268 . S
O658 Sc646 2.105 . S
O658 C652 1.268 . S
O659 Sc645 2.105 . S
O659 C653 1.268 . S
O660 Sc644 2.105 . S
O660 C652 1.268 . S
O661 Sc645 2.105 . S
O661 C651 1.268 . S
O662 Sc646 2.105 . S
O662 C653 1.268 . S
O663 Sc644 2.105 . S
O663 C649 1.268 . S
O664 Sc646 2.105 . S
O664 C648 1.268 . S
O665 Sc645 2.105 . S
O665 C650 1.268 . S
Sc666 O669 2.025 . S
Sc666 O676 2.105 . S
Sc666 O679 2.105 . S
Sc666 O682 2.105 . S
Sc666 O685 2.105 . S
Sc667 O669 2.025 . S
Sc667 O677 2.105 . S
Sc667 O681 2.105 . S
Sc667 O683 2.105 . S
Sc667 O687 2.105 . S
Sc668 O669 2.025 . S
Sc668 O678 2.105 . S
Sc668 O680 2.105 . S
Sc668 O684 2.105 . S
Sc668 O686 2.105 . S
O669 Sc666 2.025 . S
O669 Sc667 2.025 . S
O669 Sc668 2.025 . S
C670 O676 1.268 . S
C670 O686 1.268 . S
C671 O677 1.268 . S
C671 O685 1.268 . S
C672 O678 1.268 . S
C672 O687 1.268 . S
C673 O679 1.268 . S
C673 O683 1.268 . S
C674 O680 1.268 . S
C674 O682 1.268 . S
C675 O681 1.268 . S
C675 O684 1.268 . S
O676 Sc666 2.105 . S
O676 C670 1.268 . S
O677 Sc667 2.105 . S
O677 C671 1.268 . S
O678 Sc668 2.105 . S
O678 C672 1.268 . S
O679 Sc666 2.105 . S
O679 C673 1.268 . S
O680 Sc668 2.105 . S
O680 C674 1.268 . S
O681 Sc667 2.105 . S
O681 C675 1.268 . S
O682 Sc666 2.105 . S
O682 C674 1.268 . S
O683 Sc667 2.105 . S
O683 C673 1.268 . S
O684 Sc668 2.105 . S
O684 C675 1.268 . S
O685 Sc666 2.105 . S
O685 C671 1.268 . S
O686 Sc668 2.105 . S
O686 C670 1.268 . S
O687 Sc667 2.105 . S
O687 C672 1.268 . S
C688 C689 1.349 . S
C688 C690 1.327 . S
C688 H713 0.950 . S
C689 C688 1.349 . S
C689 C705 1.349 . S
C690 C688 1.327 . S
C690 C709 1.429 . S
C690 H714 0.950 . S
C691 C708 1.574 . S
C691 C710 1.368 . S
C691 H715 0.949 . S
H692 C696 0.949 . S
C693 C694 1.349 . S
C693 C695 1.327 . S
C693 H716 0.950 . S
C694 C693 1.349 . S
C694 C706 1.349 . S
C695 C693 1.327 . S
C695 C711 1.429 . S
C695 H717 0.950 . S
C696 H692 0.949 . S
C696 C704 1.574 . S
C696 C712 1.368 . S
H697 C705 0.950 . S
H698 C703 0.950 . S
H699 C704 0.949 . S
H700 C706 0.950 . S
H701 C707 0.950 . S
H702 C708 0.949 . S
C703 H698 0.950 . S
C703 C705 1.327 . S
C703 C709 1.429 . S
C704 C696 1.574 . S
C704 H699 0.949 . S
C704 C710 1.368 . S
C705 C689 1.349 . S
C705 H697 0.950 . S
C705 C703 1.327 . S
C706 C694 1.349 . S
C706 H700 0.950 . S
C706 C707 1.327 . S
C707 H701 0.950 . S
C707 C706 1.327 . S
C707 C711 1.429 . S
C708 C691 1.574 . S
C708 H702 0.949 . S
C708 C712 1.368 . S
C709 C690 1.429 . S
C709 C703 1.429 . S
C709 C710 1.523 . S
C710 C691 1.368 . S
C710 C704 1.368 . S
C710 C709 1.523 . S
C711 C695 1.429 . S
C711 C707 1.429 . S
C711 C712 1.523 . S
C712 C696 1.368 . S
C712 C708 1.368 . S
C712 C711 1.523 . S
H713 C688 0.950 . S
H714 C690 0.950 . S
H715 C691 0.949 . S
H716 C693 0.950 . S
H717 C695 0.950 . S
C718 C719 1.349 . S
C718 C720 1.327 . S
C718 H743 0.950 . S
C719 C718 1.349 . S
C719 C735 1.349 . S
C720 C718 1.327 . S
C720 C739 1.429 . S
C720 H744 0.950 . S
C721 C738 1.574 . S
C721 C740 1.368 . S
C721 H745 0.949 . S
H722 C726 0.949 . S
C723 C724 1.349 . S
C723 C725 1.327 . S
C723 H746 0.950 . S
C724 C723 1.349 . S
C724 C736 1.349 . S
C725 C723 1.327 . S
C725 C741 1.429 . S
C725 H747 0.950 . S
C726 H722 0.949 . S
C726 C734 1.574 . S
C726 C742 1.368 . S
H727 C735 0.950 . S
H728 C733 0.950 . S
H729 C734 0.949 . S
H730 C736 0.950 . S
H731 C737 0.950 . S
H732 C738 0.949 . S
C733 H728 0.950 . S
C733 C735 1.327 . S
C733 C739 1.429 . S
C734 C726 1.574 . S
C734 H729 0.949 . S
C734 C740 1.368 . S
C735 C719 1.349 . S
C735 H727 0.950 . S
C735 C733 1.327 . S
C736 C724 1.349 . S
C736 H730 0.950 . S
C736 C737 1.327 . S
C737 H731 0.950 . S
C737 C736 1.327 . S
C737 C741 1.429 . S
C738 C721 1.574 . S
C738 H732 0.949 . S
C738 C742 1.368 . S
C739 C720 1.429 . S
C739 C733 1.429 . S
C739 C740 1.523 . S
C740 C721 1.368 . S
C740 C734 1.368 . S
C740 C739 1.523 . S
C741 C725 1.429 . S
C741 C737 1.429 . S
C741 C742 1.523 . S
C742 C726 1.368 . S
C742 C738 1.368 . S
C742 C741 1.523 . S
H743 C718 0.950 . S
H744 C720 0.950 . S
H745 C721 0.949 . S
H746 C723 0.950 . S
H747 C725 0.950 . S
C748 C749 1.349 . S
C748 C750 1.327 . S
C748 H773 0.950 . S
C749 C748 1.349 . S
C749 C765 1.349 . S
C750 C748 1.327 . S
C750 C769 1.429 . S
C750 H774 0.950 . S
C751 C768 1.574 . S
C751 C770 1.368 . S
C751 H775 0.949 . S
H752 C756 0.949 . S
C753 C754 1.349 . S
C753 C755 1.327 . S
C753 H776 0.950 . S
C754 C753 1.349 . S
C754 C766 1.349 . S
C755 C753 1.327 . S
C755 C771 1.429 . S
C755 H777 0.950 . S
C756 H752 0.949 . S
C756 C764 1.574 . S
C756 C772 1.368 . S
H757 C765 0.950 . S
H758 C763 0.950 . S
H759 C764 0.949 . S
H760 C766 0.950 . S
H761 C767 0.950 . S
H762 C768 0.949 . S
C763 H758 0.950 . S
C763 C765 1.327 . S
C763 C769 1.429 . S
C764 C756 1.574 . S
C764 H759 0.949 . S
C764 C770 1.368 . S
C765 C749 1.349 . S
C765 H757 0.950 . S
C765 C763 1.327 . S
C766 C754 1.349 . S
C766 H760 0.950 . S
C766 C767 1.327 . S
C767 H761 0.950 . S
C767 C766 1.327 . S
C767 C771 1.429 . S
C768 C751 1.574 . S
C768 H762 0.949 . S
C768 C772 1.368 . S
C769 C750 1.429 . S
C769 C763 1.429 . S
C769 C770 1.523 . S
C770 C751 1.368 . S
C770 C764 1.368 . S
C770 C769 1.523 . S
C771 C755 1.429 . S
C771 C767 1.429 . S
C771 C772 1.523 . S
C772 C756 1.368 . S
C772 C768 1.368 . S
C772 C771 1.523 . S
H773 C748 0.950 . S
H774 C750 0.950 . S
H775 C751 0.949 . S
H776 C753 0.950 . S
H777 C755 0.950 . S
C778 C779 1.349 . S
C778 C780 1.327 . S
C778 H803 0.950 . S
C779 C778 1.349 . S
C779 C795 1.349 . S
C780 C778 1.327 . S
C780 C799 1.429 . S
C780 H804 0.950 . S
C781 C798 1.574 . S
C781 C800 1.368 . S
C781 H805 0.949 . S
H782 C786 0.949 . S
C783 C784 1.349 . S
C783 C785 1.327 . S
C783 H806 0.950 . S
C784 C783 1.349 . S
C784 C796 1.349 . S
C785 C783 1.327 . S
C785 C801 1.429 . S
C785 H807 0.950 . S
C786 H782 0.949 . S
C786 C794 1.574 1_556 S
C786 C802 1.369 . S
H787 C795 0.950 . S
H788 C793 0.950 . S
H789 C794 0.949 . S
H790 C796 0.950 . S
H791 C797 0.950 . S
H792 C798 0.949 . S
C793 H788 0.950 . S
C793 C795 1.327 . S
C793 C799 1.429 . S
C794 C786 1.574 1_554 S
C794 H789 0.949 . S
C794 C800 1.368 . S
C795 C779 1.349 . S
C795 H787 0.950 . S
C795 C793 1.327 . S
C796 C784 1.349 . S
C796 H790 0.950 . S
C796 C797 1.327 . S
C797 H791 0.950 . S
C797 C796 1.327 . S
C797 C801 1.429 . S
C798 C781 1.574 . S
C798 H792 0.949 . S
C798 C802 1.354 1_554 S
C799 C780 1.429 . S
C799 C793 1.429 . S
C799 C800 1.523 . S
C800 C781 1.368 . S
C800 C794 1.368 . S
C800 C799 1.523 . S
C801 C785 1.429 . S
C801 C797 1.429 . S
C801 C802 1.540 . S
C802 C786 1.369 . S
C802 C798 1.354 1_556 S
C802 C801 1.540 . S
H803 C778 0.950 . S
H804 C780 0.950 . S
H805 C781 0.949 . S
H806 C783 0.950 . S
H807 C785 0.950 . S
C808 C809 1.349 . S
C808 C810 1.327 . S
C808 H833 0.950 . S
C809 C808 1.349 . S
C809 C825 1.349 . S
C810 C808 1.327 . S
C810 C829 1.429 . S
C810 H834 0.950 . S
C811 C828 1.574 . S
C811 C830 1.368 . S
C811 H835 0.949 . S
H812 C816 0.949 . S
C813 C814 1.349 . S
C813 C815 1.327 . S
C813 H836 0.950 . S
C814 C813 1.349 . S
C814 C826 1.349 . S
C815 C813 1.327 . S
C815 C831 1.429 . S
C815 H837 0.950 . S
C816 H812 0.949 . S
C816 C824 1.574 . S
C816 C832 1.368 . S
H817 C825 0.950 . S
H818 C823 0.950 . S
H819 C824 0.949 . S
H820 C826 0.950 . S
H821 C827 0.950 . S
H822 C828 0.949 . S
C823 H818 0.950 . S
C823 C825 1.327 . S
C823 C829 1.429 . S
C824 C816 1.574 . S
C824 H819 0.949 . S
C824 C830 1.368 . S
C825 C809 1.349 . S
C825 H817 0.950 . S
C825 C823 1.327 . S
C826 C814 1.349 . S
C826 H820 0.950 . S
C826 C827 1.327 . S
C827 H821 0.950 . S
C827 C826 1.327 . S
C827 C831 1.429 . S
C828 C811 1.574 . S
C828 H822 0.949 . S
C828 C832 1.368 . S
C829 C810 1.429 . S
C829 C823 1.429 . S
C829 C830 1.523 . S
C830 C811 1.368 . S
C830 C824 1.368 . S
C830 C829 1.523 . S
C831 C815 1.429 . S
C831 C827 1.429 . S
C831 C832 1.523 . S
C832 C816 1.368 . S
C832 C828 1.368 . S
C832 C831 1.523 . S
H833 C808 0.950 . S
H834 C810 0.950 . S
H835 C811 0.949 . S
H836 C813 0.950 . S
H837 C815 0.950 . S
C838 C839 1.349 . S
C838 C840 1.327 . S
C838 H863 0.950 . S
C839 C838 1.349 . S
C839 C855 1.349 . S
C840 C838 1.327 . S
C840 C859 1.429 . S
C840 H864 0.950 . S
C841 C858 1.574 . S
C841 C860 1.368 . S
C841 H865 0.949 . S
H842 C846 0.949 . S
C843 C844 1.349 . S
C843 C845 1.327 . S
C843 H866 0.950 . S
C844 C843 1.349 . S
C844 C856 1.349 . S
C845 C843 1.327 . S
C845 C861 1.429 . S
C845 H867 0.950 . S
C846 H842 0.949 . S
C846 C854 1.574 . S
C846 C862 1.368 . S
H847 C855 0.950 . S
H848 C853 0.950 . S
H849 C854 0.949 . S
H850 C856 0.950 . S
H851 C857 0.950 . S
H852 C858 0.949 . S
C853 H848 0.950 . S
C853 C855 1.327 . S
C853 C859 1.429 . S
C854 C846 1.574 . S
C854 H849 0.949 . S
C854 C860 1.368 . S
C855 C839 1.349 . S
C855 H847 0.950 . S
C855 C853 1.327 . S
C856 C844 1.349 . S
C856 H850 0.950 . S
C856 C857 1.327 . S
C857 H851 0.950 . S
C857 C856 1.327 . S
C857 C861 1.429 . S
C858 C841 1.574 . S
C858 H852 0.949 . S
C858 C862 1.368 . S
C859 C840 1.429 . S
C859 C853 1.429 . S
C859 C860 1.523 . S
C860 C841 1.368 . S
C860 C854 1.368 . S
C860 C859 1.523 . S
C861 C845 1.429 . S
C861 C857 1.429 . S
C861 C862 1.523 . S
C862 C846 1.368 . S
C862 C858 1.368 . S
C862 C861 1.523 . S
H863 C838 0.950 . S
H864 C840 0.950 . S
H865 C841 0.949 . S
H866 C843 0.950 . S
H867 C845 0.950 . S
C868 C869 1.349 . S
C868 C870 1.327 . S
C868 H893 0.950 . S
C869 C868 1.349 . S
C869 C885 1.349 . S
C870 C868 1.327 . S
C870 C889 1.429 . S
C870 H894 0.950 . S
C871 C888 1.574 . S
C871 C890 1.368 . S
C871 H895 0.949 . S
H872 C876 0.949 . S
C873 C874 1.349 . S
C873 C875 1.327 . S
C873 H896 0.950 . S
C874 C873 1.349 . S
C874 C886 1.349 . S
C875 C873 1.327 . S
C875 C891 1.429 . S
C875 H897 0.950 . S
C876 H872 0.949 . S
C876 C884 1.574 . S
C876 C892 1.368 . S
H877 C885 0.950 . S
H878 C883 0.950 . S
H879 C884 0.949 . S
H880 C886 0.950 . S
H881 C887 0.950 . S
H882 C888 0.949 . S
C883 H878 0.950 . S
C883 C885 1.327 . S
C883 C889 1.429 . S
C884 C876 1.574 . S
C884 H879 0.949 . S
C884 C890 1.368 . S
C885 C869 1.349 . S
C885 H877 0.950 . S
C885 C883 1.327 . S
C886 C874 1.349 . S
C886 H880 0.950 . S
C886 C887 1.327 . S
C887 H881 0.950 . S
C887 C886 1.327 . S
C887 C891 1.429 . S
C888 C871 1.574 . S
C888 H882 0.949 . S
C888 C892 1.368 . S
C889 C870 1.429 . S
C889 C883 1.429 . S
C889 C890 1.523 . S
C890 C871 1.368 . S
C890 C884 1.368 . S
C890 C889 1.523 . S
C891 C875 1.429 . S
C891 C887 1.429 . S
C891 C892 1.523 . S
C892 C876 1.368 . S
C892 C888 1.368 . S
C892 C891 1.523 . S
H893 C868 0.950 . S
H894 C870 0.950 . S
H895 C871 0.949 . S
H896 C873 0.950 . S
H897 C875 0.950 . S
C898 C899 1.349 . S
C898 C900 1.327 . S
C898 H923 0.950 . S
C899 C898 1.349 . S
C899 C915 1.349 . S
C900 C898 1.327 . S
C900 C919 1.429 . S
C900 H924 0.950 . S
C901 C918 1.574 1_556 S
C901 C920 1.368 . S
C901 H925 0.949 . S
H902 C906 0.949 . S
C903 C904 1.349 . S
C903 C905 1.327 . S
C903 H926 0.950 . S
C904 C903 1.349 . S
C904 C916 1.349 . S
C905 C903 1.327 . S
C905 C921 1.429 . S
C905 H927 0.950 . S
C906 H902 0.949 . S
C906 C914 1.574 . S
C906 C922 1.368 1_556 S
H907 C915 0.950 . S
H908 C913 0.950 . S
H909 C914 0.949 . S
H910 C916 0.950 . S
H911 C917 0.950 . S
H912 C918 0.949 . S
C913 H908 0.950 . S
C913 C915 1.327 . S
C913 C919 1.429 . S
C914 C906 1.574 . S
C914 H909 0.949 . S
C914 C920 1.368 . S
C915 C899 1.349 . S
C915 H907 0.950 . S
C915 C913 1.327 . S
C916 C904 1.349 . S
C916 H910 0.950 . S
C916 C917 1.327 . S
C917 H911 0.950 . S
C917 C916 1.327 . S
C917 C921 1.429 . S
C918 C901 1.574 1_554 S
C918 H912 0.949 . S
C918 C922 1.368 . S
C919 C900 1.429 . S
C919 C913 1.429 . S
C919 C920 1.523 . S
C920 C901 1.368 . S
C920 C914 1.368 . S
C920 C919 1.523 . S
C921 C905 1.429 . S
C921 C917 1.429 . S
C921 C922 1.523 . S
C922 C906 1.368 1_554 S
C922 C918 1.368 . S
C922 C921 1.523 . S
H923 C898 0.950 . S
H924 C900 0.950 . S
H925 C901 0.949 . S
H926 C903 0.950 . S
H927 C905 0.950 . S
C928 C929 1.349 . S
C928 C930 1.327 . S
C928 H953 0.950 . S
C929 C928 1.349 . S
C929 C945 1.349 . S
C930 C928 1.327 . S
C930 C949 1.429 . S
C930 H954 0.950 . S
C931 C948 1.574 . S
C931 C950 1.368 . S
C931 H955 0.949 . S
H932 C936 0.949 . S
C933 C934 1.349 . S
C933 C935 1.327 . S
C933 H956 0.950 . S
C934 C933 1.349 . S
C934 C946 1.349 . S
C935 C933 1.327 . S
C935 C951 1.429 . S
C935 H957 0.950 . S
C936 H932 0.949 . S
C936 C944 1.574 . S
C936 C952 1.368 . S
H937 C945 0.950 . S
H938 C943 0.950 . S
H939 C944 0.949 . S
H940 C946 0.950 . S
H941 C947 0.950 . S
H942 C948 0.949 . S
C943 H938 0.950 . S
C943 C945 1.327 . S
C943 C949 1.429 . S
C944 C936 1.574 . S
C944 H939 0.949 . S
C944 C950 1.368 . S
C945 C929 1.349 . S
C945 H937 0.950 . S
C945 C943 1.327 . S
C946 C934 1.349 . S
C946 H940 0.950 . S
C946 C947 1.327 . S
C947 H941 0.950 . S
C947 C946 1.327 . S
C947 C951 1.429 . S
C948 C931 1.574 . S
C948 H942 0.949 . S
C948 C952 1.368 . S
C949 C930 1.429 . S
C949 C943 1.429 . S
C949 C950 1.523 . S
C950 C931 1.368 . S
C950 C944 1.368 . S
C950 C949 1.523 . S
C951 C935 1.429 . S
C951 C947 1.429 . S
C951 C952 1.523 . S
C952 C936 1.368 . S
C952 C948 1.368 . S
C952 C951 1.523 . S
H953 C928 0.950 . S
H954 C930 0.950 . S
H955 C931 0.949 . S
H956 C933 0.950 . S
H957 C935 0.950 . S
C958 C959 1.349 . S
C958 C960 1.327 . S
C958 H983 0.950 . S
C959 C958 1.349 . S
C959 C975 1.349 . S
C960 C958 1.327 . S
C960 C979 1.429 . S
C960 H984 0.950 . S
C961 C978 1.574 . S
C961 C980 1.368 . S
C961 H985 0.949 . S
H962 C966 0.949 . S
C963 C964 1.349 . S
C963 C965 1.327 . S
C963 H986 0.950 . S
C964 C963 1.349 . S
C964 C976 1.349 . S
C965 C963 1.327 . S
C965 C981 1.429 . S
C965 H987 0.950 . S
C966 H962 0.949 . S
C966 C974 1.574 . S
C966 C982 1.368 1_545 S
H967 C975 0.950 . S
H968 C973 0.950 . S
H969 C974 0.949 . S
H970 C976 0.950 . S
H971 C977 0.950 . S
H972 C978 0.949 1_565 S
C973 H968 0.950 . S
C973 C975 1.327 . S
C973 C979 1.429 . S
C974 C966 1.574 . S
C974 H969 0.949 . S
C974 C980 1.368 . S
C975 C959 1.349 . S
C975 H967 0.950 . S
C975 C973 1.327 . S
C976 C964 1.349 . S
C976 H970 0.950 . S
C976 C977 1.327 . S
C977 H971 0.950 . S
C977 C976 1.327 . S
C977 C981 1.429 . S
C978 C961 1.574 . S
C978 H972 0.949 1_545 S
C978 C982 1.368 1_545 S
C979 C960 1.429 . S
C979 C973 1.429 . S
C979 C980 1.523 . S
C980 C961 1.368 . S
C980 C974 1.368 . S
C980 C979 1.523 . S
C981 C965 1.429 . S
C981 C977 1.429 . S
C981 C982 1.523 . S
C982 C966 1.368 1_565 S
C982 C978 1.368 1_565 S
C982 C981 1.523 . S
H983 C958 0.950 . S
H984 C960 0.950 . S
H985 C961 0.949 . S
H986 C963 0.950 . S
H987 C965 0.950 . S
C988 C989 1.349 . S
C988 C990 1.327 . S
C988 H1013 0.950 . S
C989 C988 1.349 . S
C989 C1005 1.349 . S
C990 C988 1.327 . S
C990 C1009 1.429 . S
C990 H1014 0.950 . S
C991 C1008 1.574 . S
C991 C1010 1.368 . S
C991 H1015 0.949 . S
H992 C996 0.949 . S
C993 C994 1.349 . S
C993 C995 1.327 . S
C993 H1016 0.950 . S
C994 C993 1.349 . S
C994 C1006 1.349 . S
C995 C993 1.327 . S
C995 C1011 1.429 . S
C995 H1017 0.950 . S
C996 H992 0.949 . S
C996 C1004 1.574 . S
C996 C1012 1.368 . S
H997 C1005 0.950 . S
H998 C1003 0.950 . S
H999 C1004 0.949 . S
H1000 C1006 0.950 . S
H1001 C1007 0.950 . S
H1002 C1008 0.949 . S
C1003 H998 0.950 . S
C1003 C1005 1.327 . S
C1003 C1009 1.429 . S
C1004 C996 1.574 . S
C1004 H999 0.949 . S
C1004 C1010 1.368 . S
C1005 C989 1.349 . S
C1005 H997 0.950 . S
C1005 C1003 1.327 . S
C1006 C994 1.349 . S
C1006 H1000 0.950 . S
C1006 C1007 1.327 . S
C1007 H1001 0.950 . S
C1007 C1006 1.327 . S
C1007 C1011 1.429 . S
C1008 C991 1.574 . S
C1008 H1002 0.949 . S
C1008 C1012 1.368 . S
C1009 C990 1.429 . S
C1009 C1003 1.429 . S
C1009 C1010 1.523 . S
C1010 C991 1.368 . S
C1010 C1004 1.368 . S
C1010 C1009 1.523 . S
C1011 C995 1.429 . S
C1011 C1007 1.429 . S
C1011 C1012 1.523 . S
C1012 C996 1.368 . S
C1012 C1008 1.368 . S
C1012 C1011 1.523 . S
H1013 C988 0.950 . S
H1014 C990 0.950 . S
H1015 C991 0.949 . S
H1016 C993 0.950 . S
H1017 C995 0.950 . S
C1018 C1019 1.349 . S
C1018 C1020 1.327 . S
C1018 H1043 0.950 . S
C1019 C1018 1.349 . S
C1019 C1035 1.349 . S
C1020 C1018 1.327 . S
C1020 C1039 1.429 . S
C1020 H1044 0.950 . S
C1021 C1038 1.574 . S
C1021 C1040 1.368 . S
C1021 H1045 0.949 . S
H1022 C1026 0.949 . S
C1023 C1024 1.349 . S
C1023 C1025 1.327 . S
C1023 H1046 0.950 . S
C1024 C1023 1.349 . S
C1024 C1036 1.349 . S
C1025 C1023 1.327 . S
C1025 C1041 1.429 . S
C1025 H1047 0.950 . S
C1026 H1022 0.949 . S
C1026 C1034 1.574 1_545 S
C1026 C1042 1.368 . S
H1027 C1035 0.950 . S
H1028 C1033 0.950 . S
H1029 C1034 0.949 . S
H1030 C1036 0.950 . S
H1031 C1037 0.950 . S
H1032 C1038 0.949 . S
C1033 H1028 0.950 . S
C1033 C1035 1.327 . S
C1033 C1039 1.429 . S
C1034 C1026 1.574 1_565 S
C1034 H1029 0.949 . S
C1034 C1040 1.368 . S
C1035 C1019 1.349 . S
C1035 H1027 0.950 . S
C1035 C1033 1.327 . S
C1036 C1024 1.349 . S
C1036 H1030 0.950 . S
C1036 C1037 1.327 . S
C1037 H1031 0.950 . S
C1037 C1036 1.327 . S
C1037 C1041 1.429 . S
C1038 C1021 1.574 . S
C1038 H1032 0.949 . S
C1038 C1042 1.368 1_565 S
C1039 C1020 1.429 . S
C1039 C1033 1.429 . S
C1039 C1040 1.523 . S
C1040 C1021 1.368 . S
C1040 C1034 1.368 . S
C1040 C1039 1.523 . S
C1041 C1025 1.429 . S
C1041 C1037 1.429 . S
C1041 C1042 1.523 . S
C1042 C1026 1.368 . S
C1042 C1038 1.368 1_545 S
C1042 C1041 1.523 . S
H1043 C1018 0.950 . S
H1044 C1020 0.950 . S
H1045 C1021 0.949 . S
H1046 C1023 0.950 . S
H1047 C1025 0.950 . S
C1048 C1049 1.349 . S
C1048 C1050 1.327 . S
C1048 H1073 0.950 . S
C1049 C1048 1.349 . S
C1049 C1065 1.349 . S
C1050 C1048 1.327 . S
C1050 C1069 1.429 . S
C1050 H1074 0.950 . S
C1051 C1068 1.574 . S
C1051 C1070 1.368 . S
C1051 H1075 0.949 . S
H1052 C1056 0.949 . S
C1053 C1054 1.349 . S
C1053 C1055 1.327 . S
C1053 H1076 0.950 . S
C1054 C1053 1.349 . S
C1054 C1066 1.349 . S
C1055 C1053 1.327 . S
C1055 C1071 1.429 . S
C1055 H1077 0.950 . S
C1056 H1052 0.949 . S
C1056 C1064 1.574 . S
C1056 C1072 1.368 . S
H1057 C1065 0.950 . S
H1058 C1063 0.950 . S
H1059 C1064 0.949 . S
H1060 C1066 0.950 . S
H1061 C1067 0.950 . S
H1062 C1068 0.949 . S
C1063 H1058 0.950 . S
C1063 C1065 1.327 . S
C1063 C1069 1.429 . S
C1064 C1056 1.574 . S
C1064 H1059 0.949 . S
C1064 C1070 1.368 . S
C1065 C1049 1.349 . S
C1065 H1057 0.950 . S
C1065 C1063 1.327 . S
C1066 C1054 1.349 . S
C1066 H1060 0.950 . S
C1066 C1067 1.327 . S
C1067 H1061 0.950 . S
C1067 C1066 1.327 . S
C1067 C1071 1.429 . S
C1068 C1051 1.574 . S
C1068 H1062 0.949 . S
C1068 C1072 1.368 . S
C1069 C1050 1.429 . S
C1069 C1063 1.429 . S
C1069 C1070 1.523 . S
C1070 C1051 1.368 . S
C1070 C1064 1.368 . S
C1070 C1069 1.523 . S
C1071 C1055 1.429 . S
C1071 C1067 1.429 . S
C1071 C1072 1.523 . S
C1072 C1056 1.368 . S
C1072 C1068 1.368 . S
C1072 C1071 1.523 . S
H1073 C1048 0.950 . S
H1074 C1050 0.950 . S
H1075 C1051 0.949 . S
H1076 C1053 0.950 . S
H1077 C1055 0.950 . S
C1078 C1079 1.349 . S
C1078 C1080 1.327 . S
C1078 H1103 0.950 . S
C1079 C1078 1.349 . S
C1079 C1095 1.349 . S
C1080 C1078 1.327 . S
C1080 C1099 1.429 . S
C1080 H1104 0.950 . S
C1081 C1098 1.574 . S
C1081 C1100 1.368 . S
C1081 H1105 0.949 . S
H1082 C1086 0.949 1_565 S
C1083 C1084 1.349 . S
C1083 C1085 1.327 . S
C1083 H1106 0.950 . S
C1084 C1083 1.349 . S
C1084 C1096 1.349 . S
C1085 C1083 1.327 . S
C1085 C1101 1.429 . S
C1085 H1107 0.950 . S
C1086 H1082 0.949 1_545 S
C1086 C1094 1.574 . S
C1086 C1102 1.368 1_545 S
H1087 C1095 0.950 . S
H1088 C1093 0.950 . S
H1089 C1094 0.949 . S
H1090 C1096 0.950 . S
H1091 C1097 0.950 . S
H1092 C1098 0.949 1_565 S
C1093 H1088 0.950 . S
C1093 C1095 1.327 . S
C1093 C1099 1.429 . S
C1094 C1086 1.574 . S
C1094 H1089 0.949 . S
C1094 C1100 1.368 . S
C1095 C1079 1.349 . S
C1095 H1087 0.950 . S
C1095 C1093 1.327 . S
C1096 C1084 1.349 . S
C1096 H1090 0.950 . S
C1096 C1097 1.327 . S
C1097 H1091 0.950 . S
C1097 C1096 1.327 . S
C1097 C1101 1.429 . S
C1098 C1081 1.574 . S
C1098 H1092 0.949 1_545 S
C1098 C1102 1.368 1_545 S
C1099 C1080 1.429 . S
C1099 C1093 1.429 . S
C1099 C1100 1.523 . S
C1100 C1081 1.368 . S
C1100 C1094 1.368 . S
C1100 C1099 1.523 . S
C1101 C1085 1.429 . S
C1101 C1097 1.429 . S
C1101 C1102 1.523 . S
C1102 C1086 1.368 1_565 S
C1102 C1098 1.368 1_565 S
C1102 C1101 1.523 . S
H1103 C1078 0.950 . S
H1104 C1080 0.950 . S
H1105 C1081 0.949 . S
H1106 C1083 0.950 . S
H1107 C1085 0.950 . S
C1108 C1109 1.349 . S
C1108 C1110 1.327 . S
C1108 H1133 0.950 . S
C1109 C1108 1.349 . S
C1109 C1125 1.349 . S
C1110 C1108 1.327 . S
C1110 C1129 1.429 . S
C1110 H1134 0.950 . S
C1111 C1128 1.574 . S
C1111 C1130 1.368 . S
C1111 H1135 0.949 . S
H1112 C1116 0.949 . S
C1113 C1114 1.349 . S
C1113 C1115 1.327 . S
C1113 H1136 0.950 . S
C1114 C1113 1.349 . S
C1114 C1126 1.349 . S
C1115 C1113 1.327 . S
C1115 C1131 1.429 . S
C1115 H1137 0.950 . S
C1116 H1112 0.949 . S
C1116 C1124 1.574 . S
C1116 C1132 1.368 . S
H1117 C1125 0.950 . S
H1118 C1123 0.950 . S
H1119 C1124 0.949 . S
H1120 C1126 0.950 . S
H1121 C1127 0.950 . S
H1122 C1128 0.949 . S
C1123 H1118 0.950 . S
C1123 C1125 1.327 . S
C1123 C1129 1.429 . S
C1124 C1116 1.574 . S
C1124 H1119 0.949 . S
C1124 C1130 1.368 . S
C1125 C1109 1.349 . S
C1125 H1117 0.950 . S
C1125 C1123 1.327 . S
C1126 C1114 1.349 . S
C1126 H1120 0.950 . S
C1126 C1127 1.327 . S
C1127 H1121 0.950 . S
C1127 C1126 1.327 . S
C1127 C1131 1.429 . S
C1128 C1111 1.574 . S
C1128 H1122 0.949 . S
C1128 C1132 1.368 . S
C1129 C1110 1.429 . S
C1129 C1123 1.429 . S
C1129 C1130 1.523 . S
C1130 C1111 1.368 . S
C1130 C1124 1.368 . S
C1130 C1129 1.523 . S
C1131 C1115 1.429 . S
C1131 C1127 1.429 . S
C1131 C1132 1.523 . S
C1132 C1116 1.368 . S
C1132 C1128 1.368 . S
C1132 C1131 1.523 . S
H1133 C1108 0.950 . S
H1134 C1110 0.950 . S
H1135 C1111 0.949 . S
H1136 C1113 0.950 . S
H1137 C1115 0.950 . S
C1138 C1139 1.349 . S
C1138 C1140 1.327 . S
C1138 H1163 0.950 . S
C1139 C1138 1.349 . S
C1139 C1155 1.349 . S
C1140 C1138 1.327 . S
C1140 C1159 1.429 . S
C1140 H1164 0.950 . S
C1141 C1158 1.574 1_565 S
C1141 C1160 1.368 . S
C1141 H1165 0.949 . S
H1142 C1146 0.949 . S
C1143 C1144 1.349 . S
C1143 C1145 1.327 . S
C1143 H1166 0.950 . S
C1144 C1143 1.349 . S
C1144 C1156 1.349 . S
C1145 C1143 1.327 . S
C1145 C1161 1.429 . S
C1145 H1167 0.950 . S
C1146 H1142 0.949 . S
C1146 C1154 1.574 1_545 S
C1146 C1162 1.368 . S
H1147 C1155 0.950 . S
H1148 C1153 0.950 . S
H1149 C1154 0.949 . S
H1150 C1156 0.950 . S
H1151 C1157 0.950 . S
H1152 C1158 0.949 . S
C1153 H1148 0.950 . S
C1153 C1155 1.327 . S
C1153 C1159 1.429 . S
C1154 C1146 1.574 1_565 S
C1154 H1149 0.949 . S
C1154 C1160 1.368 . S
C1155 C1139 1.349 . S
C1155 H1147 0.950 . S
C1155 C1153 1.327 . S
C1156 C1144 1.349 . S
C1156 H1150 0.950 . S
C1156 C1157 1.327 . S
C1157 H1151 0.950 . S
C1157 C1156 1.327 . S
C1157 C1161 1.429 . S
C1158 C1141 1.574 1_545 S
C1158 H1152 0.949 . S
C1158 C1162 1.368 . S
C1159 C1140 1.429 . S
C1159 C1153 1.429 . S
C1159 C1160 1.523 . S
C1160 C1141 1.368 . S
C1160 C1154 1.368 . S
C1160 C1159 1.523 . S
C1161 C1145 1.429 . S
C1161 C1157 1.429 . S
C1161 C1162 1.523 . S
C1162 C1146 1.368 . S
C1162 C1158 1.368 . S
C1162 C1161 1.523 . S
H1163 C1138 0.950 . S
H1164 C1140 0.950 . S
H1165 C1141 0.949 . S
H1166 C1143 0.950 . S
H1167 C1145 0.950 . S
C1168 C1169 1.349 . S
C1168 C1170 1.327 . S
C1168 H1193 0.950 . S
C1169 C1168 1.349 . S
C1169 C1185 1.349 . S
C1170 C1168 1.327 . S
C1170 C1189 1.429 . S
C1170 H1194 0.950 . S
C1171 C1188 1.574 . S
C1171 C1190 1.368 . S
C1171 H1195 0.949 . S
H1172 C1176 0.949 . S
C1173 C1174 1.349 . S
C1173 C1175 1.327 . S
C1173 H1196 0.950 . S
C1174 C1173 1.349 . S
C1174 C1186 1.349 . S
C1175 C1173 1.327 . S
C1175 C1191 1.429 . S
C1175 H1197 0.950 . S
C1176 H1172 0.949 . S
C1176 C1184 1.574 . S
C1176 C1192 1.368 . S
H1177 C1185 0.950 . S
H1178 C1183 0.950 . S
H1179 C1184 0.949 . S
H1180 C1186 0.950 . S
H1181 C1187 0.950 . S
H1182 C1188 0.949 . S
C1183 H1178 0.950 . S
C1183 C1185 1.327 . S
C1183 C1189 1.429 . S
C1184 C1176 1.574 . S
C1184 H1179 0.949 . S
C1184 C1190 1.368 . S
C1185 C1169 1.349 . S
C1185 H1177 0.950 . S
C1185 C1183 1.327 . S
C1186 C1174 1.349 . S
C1186 H1180 0.950 . S
C1186 C1187 1.327 . S
C1187 H1181 0.950 . S
C1187 C1186 1.327 . S
C1187 C1191 1.429 . S
C1188 C1171 1.574 . S
C1188 H1182 0.949 . S
C1188 C1192 1.368 . S
C1189 C1170 1.429 . S
C1189 C1183 1.429 . S
C1189 C1190 1.523 . S
C1190 C1171 1.368 . S
C1190 C1184 1.368 . S
C1190 C1189 1.523 . S
C1191 C1175 1.429 . S
C1191 C1187 1.429 . S
C1191 C1192 1.523 . S
C1192 C1176 1.368 . S
C1192 C1188 1.368 . S
C1192 C1191 1.523 . S
H1193 C1168 0.950 . S
H1194 C1170 0.950 . S
H1195 C1171 0.949 . S
H1196 C1173 0.950 . S
H1197 C1175 0.950 . S
C1198 C1199 1.349 . S
C1198 C1200 1.327 . S
C1198 H1223 0.950 . S
C1199 C1198 1.349 . S
C1199 C1215 1.349 . S
C1200 C1198 1.327 . S
C1200 C1219 1.429 . S
C1200 H1224 0.950 . S
C1201 C1218 1.574 . S
C1201 C1220 1.368 . S
C1201 H1225 0.949 . S
H1202 C1206 0.949 . S
C1203 C1204 1.349 . S
C1203 C1205 1.327 . S
C1203 H1226 0.950 . S
C1204 C1203 1.349 . S
C1204 C1216 1.349 . S
C1205 C1203 1.327 . S
C1205 C1221 1.429 . S
C1205 H1227 0.950 . S
C1206 H1202 0.949 . S
C1206 C1214 1.574 . S
C1206 C1222 1.368 . S
H1207 C1215 0.950 . S
H1208 C1213 0.950 . S
H1209 C1214 0.949 . S
H1210 C1216 0.950 . S
H1211 C1217 0.950 . S
H1212 C1218 0.949 . S
C1213 H1208 0.950 . S
C1213 C1215 1.327 . S
C1213 C1219 1.429 . S
C1214 C1206 1.574 . S
C1214 H1209 0.949 . S
C1214 C1220 1.368 . S
C1215 C1199 1.349 . S
C1215 H1207 0.950 . S
C1215 C1213 1.327 . S
C1216 C1204 1.349 . S
C1216 H1210 0.950 . S
C1216 C1217 1.327 . S
C1217 H1211 0.950 . S
C1217 C1216 1.327 . S
C1217 C1221 1.429 . S
C1218 C1201 1.574 . S
C1218 H1212 0.949 . S
C1218 C1222 1.368 . S
C1219 C1200 1.429 . S
C1219 C1213 1.429 . S
C1219 C1220 1.523 . S
C1220 C1201 1.368 . S
C1220 C1214 1.368 . S
C1220 C1219 1.523 . S
C1221 C1205 1.429 . S
C1221 C1217 1.429 . S
C1221 C1222 1.523 . S
C1222 C1206 1.368 . S
C1222 C1218 1.368 . S
C1222 C1221 1.523 . S
H1223 C1198 0.950 . S
H1224 C1200 0.950 . S
H1225 C1201 0.949 . S
H1226 C1203 0.950 . S
H1227 C1205 0.950 . S
C1228 C1229 1.349 . S
C1228 C1230 1.327 . S
C1228 H1253 0.950 . S
C1229 C1228 1.349 . S
C1229 C1245 1.349 . S
C1230 C1228 1.327 . S
C1230 C1249 1.429 . S
C1230 H1254 0.950 . S
C1231 C1248 1.574 . S
C1231 C1250 1.368 . S
C1231 H1255 0.949 . S
H1232 C1236 0.949 1_655 S
C1233 C1234 1.349 . S
C1233 C1235 1.327 . S
C1233 H1256 0.950 . S
C1234 C1233 1.349 . S
C1234 C1246 1.349 . S
C1235 C1233 1.327 . S
C1235 C1251 1.429 . S
C1235 H1257 0.950 . S
C1236 H1232 0.949 1_455 S
C1236 C1244 1.574 . S
C1236 C1252 1.368 1_455 S
H1237 C1245 0.950 . S
H1238 C1243 0.950 . S
H1239 C1244 0.949 . S
H1240 C1246 0.950 . S
H1241 C1247 0.950 . S
H1242 C1248 0.928 1_655 S
C1243 H1238 0.950 . S
C1243 C1245 1.327 . S
C1243 C1249 1.429 . S
C1244 C1236 1.574 . S
C1244 H1239 0.949 . S
C1244 C1250 1.368 . S
C1245 C1229 1.349 . S
C1245 H1237 0.950 . S
C1245 C1243 1.327 . S
C1246 C1234 1.349 . S
C1246 H1240 0.950 . S
C1246 C1247 1.327 . S
C1247 H1241 0.950 . S
C1247 C1246 1.327 . S
C1247 C1251 1.429 . S
C1248 C1231 1.574 . S
C1248 H1242 0.928 1_455 S
C1248 C1252 1.368 1_455 S
C1249 C1230 1.429 . S
C1249 C1243 1.429 . S
C1249 C1250 1.523 . S
C1250 C1231 1.368 . S
C1250 C1244 1.368 . S
C1250 C1249 1.523 . S
C1251 C1235 1.429 . S
C1251 C1247 1.429 . S
C1251 C1252 1.523 . S
C1252 C1236 1.368 1_655 S
C1252 C1248 1.368 1_655 S
C1252 C1251 1.523 . S
H1253 C1228 0.950 . S
H1254 C1230 0.950 . S
H1255 C1231 0.949 . S
H1256 C1233 0.950 . S
H1257 C1235 0.950 . S
C1258 C1259 1.349 . S
C1258 C1260 1.327 . S
C1258 H1283 0.950 . S
C1259 C1258 1.349 . S
C1259 C1275 1.349 . S
C1260 C1258 1.327 . S
C1260 C1279 1.429 . S
C1260 H1284 0.950 . S
C1261 C1278 1.574 . S
C1261 C1280 1.368 . S
C1261 H1285 0.949 . S
H1262 C1266 0.949 . S
C1263 C1264 1.349 . S
C1263 C1265 1.327 . S
C1263 H1286 0.950 . S
C1264 C1263 1.349 . S
C1264 C1276 1.349 . S
C1265 C1263 1.327 . S
C1265 C1281 1.429 . S
C1265 H1287 0.950 . S
C1266 H1262 0.949 . S
C1266 C1274 1.574 . S
C1266 C1282 1.368 . S
H1267 C1275 0.950 . S
H1268 C1273 0.950 . S
H1269 C1274 0.949 . S
H1270 C1276 0.950 . S
H1271 C1277 0.950 . S
H1272 C1278 0.949 . S
C1273 H1268 0.950 . S
C1273 C1275 1.327 . S
C1273 C1279 1.429 . S
C1274 C1266 1.574 . S
C1274 H1269 0.949 . S
C1274 C1280 1.368 . S
C1275 C1259 1.349 . S
C1275 H1267 0.950 . S
C1275 C1273 1.327 . S
C1276 C1264 1.349 . S
C1276 H1270 0.950 . S
C1276 C1277 1.327 . S
C1277 H1271 0.950 . S
C1277 C1276 1.327 . S
C1277 C1281 1.429 . S
C1278 C1261 1.574 . S
C1278 H1272 0.949 . S
C1278 C1282 1.368 . S
C1279 C1260 1.429 . S
C1279 C1273 1.429 . S
C1279 C1280 1.523 . S
C1280 C1261 1.368 . S
C1280 C1274 1.368 . S
C1280 C1279 1.523 . S
C1281 C1265 1.429 . S
C1281 C1277 1.429 . S
C1281 C1282 1.523 . S
C1282 C1266 1.368 . S
C1282 C1278 1.368 . S
C1282 C1281 1.523 . S
H1283 C1258 0.950 . S
H1284 C1260 0.950 . S
H1285 C1261 0.949 . S
H1286 C1263 0.950 . S
H1287 C1265 0.950 . S
C1288 C1289 1.349 . S
C1288 C1290 1.327 . S
C1288 H1313 0.950 . S
C1289 C1288 1.349 . S
C1289 C1305 1.349 . S
C1290 C1288 1.327 . S
C1290 C1309 1.429 . S
C1290 H1314 0.950 . S
C1291 C1308 1.574 . S
C1291 C1310 1.368 . S
C1291 H1315 0.949 . S
H1292 C1296 0.949 . S
C1293 C1294 1.349 . S
C1293 C1295 1.327 . S
C1293 H1316 0.950 . S
C1294 C1293 1.349 . S
C1294 C1306 1.349 . S
C1295 C1293 1.327 . S
C1295 C1311 1.429 . S
C1295 H1317 0.950 . S
C1296 H1292 0.949 . S
C1296 C1304 1.574 1_455 S
C1296 C1312 1.368 . S
H1297 C1305 0.950 . S
H1298 C1303 0.950 . S
H1299 C1304 0.949 . S
H1300 C1306 0.950 . S
H1301 C1307 0.950 . S
H1302 C1308 0.949 . S
C1303 H1298 0.950 . S
C1303 C1305 1.327 . S
C1303 C1309 1.429 . S
C1304 C1296 1.574 1_655 S
C1304 H1299 0.949 . S
C1304 C1310 1.368 . S
C1305 C1289 1.349 . S
C1305 H1297 0.950 . S
C1305 C1303 1.327 . S
C1306 C1294 1.349 . S
C1306 H1300 0.950 . S
C1306 C1307 1.327 . S
C1307 H1301 0.950 . S
C1307 C1306 1.327 . S
C1307 C1311 1.429 . S
C1308 C1291 1.574 . S
C1308 H1302 0.949 . S
C1308 C1312 1.368 1_655 S
C1309 C1290 1.429 . S
C1309 C1303 1.429 . S
C1309 C1310 1.523 . S
C1310 C1291 1.368 . S
C1310 C1304 1.368 . S
C1310 C1309 1.523 . S
C1311 C1295 1.429 . S
C1311 C1307 1.429 . S
C1311 C1312 1.523 . S
C1312 C1296 1.368 . S
C1312 C1308 1.368 1_455 S
C1312 C1311 1.523 . S
H1313 C1288 0.950 . S
H1314 C1290 0.950 . S
H1315 C1291 0.949 . S
H1316 C1293 0.950 . S
H1317 C1295 0.950 . S
C1318 C1319 1.349 . S
C1318 C1320 1.327 . S
C1318 H1343 0.950 . S
C1319 C1318 1.349 . S
C1319 C1335 1.349 . S
C1320 C1318 1.327 . S
C1320 C1339 1.429 . S
C1320 H1344 0.950 . S
C1321 C1338 1.574 . S
C1321 C1340 1.368 . S
C1321 H1345 0.949 . S
H1322 C1326 0.949 . S
C1323 C1324 1.349 . S
C1323 C1325 1.327 . S
C1323 H1346 0.950 . S
C1324 C1323 1.349 . S
C1324 C1336 1.349 . S
C1325 C1323 1.327 . S
C1325 C1341 1.429 . S
C1325 H1347 0.950 . S
C1326 H1322 0.949 . S
C1326 C1334 1.574 . S
C1326 C1342 1.368 . S
H1327 C1335 0.950 . S
H1328 C1333 0.950 . S
H1329 C1334 0.949 . S
H1330 C1336 0.950 . S
H1331 C1337 0.950 . S
H1332 C1338 0.949 . S
C1333 H1328 0.950 . S
C1333 C1335 1.327 . S
C1333 C1339 1.429 . S
C1334 C1326 1.574 . S
C1334 H1329 0.949 . S
C1334 C1340 1.368 . S
C1335 C1319 1.349 . S
C1335 H1327 0.950 . S
C1335 C1333 1.327 . S
C1336 C1324 1.349 . S
C1336 H1330 0.950 . S
C1336 C1337 1.327 . S
C1337 H1331 0.950 . S
C1337 C1336 1.327 . S
C1337 C1341 1.429 . S
C1338 C1321 1.574 . S
C1338 H1332 0.949 . S
C1338 C1342 1.368 . S
C1339 C1320 1.429 . S
C1339 C1333 1.429 . S
C1339 C1340 1.523 . S
C1340 C1321 1.368 . S
C1340 C1334 1.368 . S
C1340 C1339 1.523 . S
C1341 C1325 1.429 . S
C1341 C1337 1.429 . S
C1341 C1342 1.523 . S
C1342 C1326 1.368 . S
C1342 C1338 1.368 . S
C1342 C1341 1.523 . S
H1343 C1318 0.950 . S
H1344 C1320 0.950 . S
H1345 C1321 0.949 . S
H1346 C1323 0.950 . S
H1347 C1325 0.950 . S
C1348 C1349 1.349 . S
C1348 C1350 1.327 . S
C1348 H1373 0.950 . S
C1349 C1348 1.349 . S
C1349 C1365 1.349 . S
C1350 C1348 1.327 . S
C1350 C1369 1.429 . S
C1350 H1374 0.950 . S
C1351 C1368 1.574 1_455 S
C1351 C1370 1.368 . S
C1351 H1375 0.949 . S
H1352 C1356 0.949 . S
C1353 C1354 1.349 . S
C1353 C1355 1.327 . S
C1353 H1376 0.950 . S
C1354 C1353 1.349 . S
C1354 C1366 1.349 . S
C1355 C1353 1.327 . S
C1355 C1371 1.429 . S
C1355 H1377 0.950 . S
C1356 H1352 0.949 . S
C1356 C1364 1.574 . S
C1356 C1372 1.368 1_455 S
H1357 C1365 0.950 . S
H1358 C1363 0.950 . S
H1359 C1364 0.949 . S
H1360 C1366 0.950 . S
H1361 C1367 0.950 . S
H1362 C1368 0.949 . S
C1363 H1358 0.950 . S
C1363 C1365 1.327 . S
C1363 C1369 1.429 . S
C1364 C1356 1.574 . S
C1364 H1359 0.949 . S
C1364 C1370 1.368 . S
C1365 C1349 1.349 . S
C1365 H1357 0.950 . S
C1365 C1363 1.327 . S
C1366 C1354 1.349 . S
C1366 H1360 0.950 . S
C1366 C1367 1.327 . S
C1367 H1361 0.950 . S
C1367 C1366 1.327 . S
C1367 C1371 1.429 . S
C1368 C1351 1.574 1_655 S
C1368 H1362 0.949 . S
C1368 C1372 1.368 . S
C1369 C1350 1.429 . S
C1369 C1363 1.429 . S
C1369 C1370 1.523 . S
C1370 C1351 1.368 . S
C1370 C1364 1.368 . S
C1370 C1369 1.523 . S
C1371 C1355 1.429 . S
C1371 C1367 1.429 . S
C1371 C1372 1.523 . S
C1372 C1356 1.368 1_655 S
C1372 C1368 1.368 . S
C1372 C1371 1.523 . S
H1373 C1348 0.950 . S
H1374 C1350 0.950 . S
H1375 C1351 0.949 . S
H1376 C1353 0.950 . S
H1377 C1355 0.950 . S
C1378 C1379 1.349 . S
C1378 C1380 1.327 . S
C1378 H1403 0.950 . S
C1379 C1378 1.349 . S
C1379 C1395 1.349 . S
C1380 C1378 1.327 . S
C1380 C1399 1.429 . S
C1380 H1404 0.950 . S
C1381 C1398 1.574 . S
C1381 C1400 1.368 . S
C1381 H1405 0.949 . S
H1382 C1386 0.949 . S
C1383 C1384 1.349 . S
C1383 C1385 1.327 . S
C1383 H1406 0.950 . S
C1384 C1383 1.349 . S
C1384 C1396 1.349 . S
C1385 C1383 1.327 . S
C1385 C1401 1.429 . S
C1385 H1407 0.950 . S
C1386 H1382 0.949 . S
C1386 C1394 1.574 . S
C1386 C1402 1.368 . S
H1387 C1395 0.950 . S
H1388 C1393 0.950 . S
H1389 C1394 0.949 . S
H1390 C1396 0.950 . S
H1391 C1397 0.950 . S
H1392 C1398 0.949 . S
C1393 H1388 0.950 . S
C1393 C1395 1.327 . S
C1393 C1399 1.429 . S
C1394 C1386 1.574 . S
C1394 H1389 0.949 . S
C1394 C1400 1.368 . S
C1395 C1379 1.349 . S
C1395 H1387 0.950 . S
C1395 C1393 1.327 . S
C1396 C1384 1.349 . S
C1396 H1390 0.950 . S
C1396 C1397 1.327 . S
C1397 H1391 0.950 . S
C1397 C1396 1.327 . S
C1397 C1401 1.429 . S
C1398 C1381 1.574 . S
C1398 H1392 0.949 . S
C1398 C1402 1.368 . S
C1399 C1380 1.429 . S
C1399 C1393 1.429 . S
C1399 C1400 1.523 . S
C1400 C1381 1.368 . S
C1400 C1394 1.368 . S
C1400 C1399 1.523 . S
C1401 C1385 1.429 . S
C1401 C1397 1.429 . S
C1401 C1402 1.523 . S
C1402 C1386 1.368 . S
C1402 C1398 1.368 . S
C1402 C1401 1.523 . S
H1403 C1378 0.950 . S
H1404 C1380 0.950 . S
H1405 C1381 0.949 . S
H1406 C1383 0.950 . S
H1407 C1385 0.950 . S
C1408 C1409 1.349 . S
C1408 C1410 1.327 . S
C1408 H1433 0.950 . S
C1409 C1408 1.349 . S
C1409 C1425 1.349 . S
C1410 C1408 1.327 . S
C1410 C1429 1.429 . S
C1410 H1434 0.950 . S
C1411 C1428 1.574 . S
C1411 C1430 1.368 . S
C1411 H1435 0.949 . S
H1412 C1416 0.949 . S
C1413 C1414 1.349 . S
C1413 C1415 1.327 . S
C1413 H1436 0.950 . S
C1414 C1413 1.349 . S
C1414 C1426 1.349 . S
C1415 C1413 1.327 . S
C1415 C1431 1.429 . S
C1415 H1437 0.950 . S
C1416 H1412 0.949 . S
C1416 C1424 1.574 . S
C1416 C1432 1.368 . S
H1417 C1425 0.950 . S
H1418 C1423 0.950 . S
H1419 C1424 0.949 . S
H1420 C1426 0.950 . S
H1421 C1427 0.950 . S
H1422 C1428 0.949 . S
C1423 H1418 0.950 . S
C1423 C1425 1.327 . S
C1423 C1429 1.429 . S
C1424 C1416 1.574 . S
C1424 H1419 0.949 . S
C1424 C1430 1.368 . S
C1425 C1409 1.349 . S
C1425 H1417 0.950 . S
C1425 C1423 1.327 . S
C1426 C1414 1.349 . S
C1426 H1420 0.950 . S
C1426 C1427 1.327 . S
C1427 H1421 0.950 . S
C1427 C1426 1.327 . S
C1427 C1431 1.429 . S
C1428 C1411 1.574 . S
C1428 H1422 0.949 . S
C1428 C1432 1.368 . S
C1429 C1410 1.429 . S
C1429 C1423 1.429 . S
C1429 C1430 1.523 . S
C1430 C1411 1.368 . S
C1430 C1424 1.368 . S
C1430 C1429 1.523 . S
C1431 C1415 1.429 . S
C1431 C1427 1.429 . S
C1431 C1432 1.523 . S
C1432 C1416 1.368 . S
C1432 C1428 1.368 . S
C1432 C1431 1.523 . S
H1433 C1408 0.950 . S
H1434 C1410 0.950 . S
H1435 C1411 0.949 . S
H1436 C1413 0.950 . S
H1437 C1415 0.950 . S
C1438 C1439 1.349 . S
C1438 C1440 1.327 . S
C1438 H1463 0.950 . S
C1439 C1438 1.349 . S
C1439 C1455 1.349 . S
C1440 C1438 1.327 . S
C1440 C1459 1.429 . S
C1440 H1464 0.950 . S
C1441 C1458 1.574 . S
C1441 C1460 1.368 . S
C1441 H1465 0.949 . S
H1442 C1446 0.949 . S
C1443 C1444 1.349 . S
C1443 C1445 1.327 . S
C1443 H1466 0.950 . S
C1444 C1443 1.349 . S
C1444 C1456 1.349 . S
C1445 C1443 1.327 . S
C1445 C1461 1.429 . S
C1445 H1467 0.950 . S
C1446 H1442 0.949 . S
C1446 C1454 1.574 . S
C1446 C1462 1.368 . S
H1447 C1455 0.950 . S
H1448 C1453 0.950 . S
H1449 C1454 0.949 . S
H1450 C1456 0.950 . S
H1451 C1457 0.950 . S
H1452 C1458 0.949 . S
C1453 H1448 0.950 . S
C1453 C1455 1.327 . S
C1453 C1459 1.429 . S
C1454 C1446 1.574 . S
C1454 H1449 0.949 . S
C1454 C1460 1.368 . S
C1455 C1439 1.349 . S
C1455 H1447 0.950 . S
C1455 C1453 1.327 . S
C1456 C1444 1.349 . S
C1456 H1450 0.950 . S
C1456 C1457 1.327 . S
C1457 H1451 0.950 . S
C1457 C1456 1.327 . S
C1457 C1461 1.429 . S
C1458 C1441 1.574 . S
C1458 H1452 0.949 . S
C1458 C1462 1.368 . S
C1459 C1440 1.429 . S
C1459 C1453 1.429 . S
C1459 C1460 1.523 . S
C1460 C1441 1.368 . S
C1460 C1454 1.368 . S
C1460 C1459 1.523 . S
C1461 C1445 1.429 . S
C1461 C1457 1.429 . S
C1461 C1462 1.523 . S
C1462 C1446 1.368 . S
C1462 C1458 1.368 . S
C1462 C1461 1.523 . S
H1463 C1438 0.950 . S
H1464 C1440 0.950 . S
H1465 C1441 0.949 . S
H1466 C1443 0.950 . S
H1467 C1445 0.950 . S
C1468 C1469 1.349 . S
C1468 C1470 1.327 . S
C1468 H1493 0.950 . S
C1469 C1468 1.349 . S
C1469 C1485 1.349 . S
C1470 C1468 1.327 . S
C1470 C1489 1.429 . S
C1470 H1494 0.950 . S
C1471 C1488 1.574 . S
C1471 C1490 1.368 . S
C1471 H1495 0.949 . S
H1472 C1476 0.949 . S
C1473 C1474 1.349 . S
C1473 C1475 1.327 . S
C1473 H1496 0.950 . S
C1474 C1473 1.349 . S
C1474 C1486 1.349 . S
C1475 C1473 1.327 . S
C1475 C1491 1.429 . S
C1475 H1497 0.950 . S
C1476 H1472 0.949 . S
C1476 C1484 1.574 . S
C1476 C1492 1.368 . S
H1477 C1485 0.950 . S
H1478 C1483 0.950 . S
H1479 C1484 0.949 . S
H1480 C1486 0.950 . S
H1481 C1487 0.950 . S
H1482 C1488 0.949 . S
C1483 H1478 0.950 . S
C1483 C1485 1.327 . S
C1483 C1489 1.429 . S
C1484 C1476 1.574 . S
C1484 H1479 0.949 . S
C1484 C1490 1.368 . S
C1485 C1469 1.349 . S
C1485 H1477 0.950 . S
C1485 C1483 1.327 . S
C1486 C1474 1.349 . S
C1486 H1480 0.950 . S
C1486 C1487 1.327 . S
C1487 H1481 0.950 . S
C1487 C1486 1.327 . S
C1487 C1491 1.429 . S
C1488 C1471 1.574 . S
C1488 H1482 0.949 . S
C1488 C1492 1.368 . S
C1489 C1470 1.429 . S
C1489 C1483 1.429 . S
C1489 C1490 1.523 . S
C1490 C1471 1.368 . S
C1490 C1484 1.368 . S
C1490 C1489 1.523 . S
C1491 C1475 1.429 . S
C1491 C1487 1.429 . S
C1491 C1492 1.523 . S
C1492 C1476 1.368 . S
C1492 C1488 1.368 . S
C1492 C1491 1.523 . S
H1493 C1468 0.950 . S
H1494 C1470 0.950 . S
H1495 C1471 0.949 . S
H1496 C1473 0.950 . S
H1497 C1475 0.950 . S
C1498 C1499 1.349 . S
C1498 C1500 1.327 . S
C1498 H1523 0.950 . S
C1499 C1498 1.349 . S
C1499 C1515 1.349 . S
C1500 C1498 1.327 . S
C1500 C1519 1.429 . S
C1500 H1524 0.950 . S
C1501 C1518 1.582 . S
C1501 C1520 1.368 . S
C1501 H1525 0.949 . S
H1502 C1506 0.949 . S
C1503 C1504 1.349 . S
C1503 C1505 1.327 . S
C1503 H1526 0.950 . S
C1504 C1503 1.349 . S
C1504 C1516 1.349 . S
C1505 C1503 1.327 . S
C1505 C1521 1.429 . S
C1505 H1527 0.950 . S
C1506 H1502 0.949 . S
C1506 C1514 1.574 1_554 S
C1506 C1522 1.368 . S
H1507 C1515 0.950 . S
H1508 C1513 0.950 . S
H1509 C1514 0.949 . S
H1510 C1516 0.950 . S
H1511 C1517 0.950 . S
H1512 C1518 0.946 1_554 S
C1513 H1508 0.950 . S
C1513 C1515 1.327 . S
C1513 C1519 1.429 . S
C1514 C1506 1.574 1_556 S
C1514 H1509 0.949 . S
C1514 C1520 1.368 . S
C1515 C1499 1.349 . S
C1515 H1507 0.950 . S
C1515 C1513 1.327 . S
C1516 C1504 1.349 . S
C1516 H1510 0.950 . S
C1516 C1517 1.327 . S
C1517 H1511 0.950 . S
C1517 C1516 1.327 . S
C1517 C1521 1.429 . S
C1518 C1501 1.582 . S
C1518 H1512 0.946 1_556 S
C1518 C1522 1.363 1_556 S
C1519 C1500 1.429 . S
C1519 C1513 1.429 . S
C1519 C1520 1.523 . S
C1520 C1501 1.368 . S
C1520 C1514 1.368 . S
C1520 C1519 1.523 . S
C1521 C1505 1.429 . S
C1521 C1517 1.429 . S
C1521 C1522 1.523 . S
C1522 C1506 1.368 . S
C1522 C1518 1.363 1_554 S
C1522 C1521 1.523 . S
H1523 C1498 0.950 . S
H1524 C1500 0.950 . S
H1525 C1501 0.949 . S
H1526 C1503 0.950 . S
H1527 C1505 0.950 . S
C1528 C1529 1.349 . S
C1528 C1530 1.327 . S
C1528 H1553 0.950 . S
C1529 C1528 1.349 . S
C1529 C1545 1.349 . S
C1530 C1528 1.327 . S
C1530 C1549 1.429 . S
C1530 H1554 0.950 . S
C1531 C1548 1.574 . S
C1531 C1550 1.368 . S
C1531 H1555 0.949 . S
H1532 C1536 0.949 . S
C1533 C1534 1.349 . S
C1533 C1535 1.327 . S
C1533 H1556 0.950 . S
C1534 C1533 1.349 . S
C1534 C1546 1.349 . S
C1535 C1533 1.327 . S
C1535 C1551 1.429 . S
C1535 H1557 0.950 . S
C1536 H1532 0.949 . S
C1536 C1544 1.574 . S
C1536 C1552 1.368 . S
H1537 C1545 0.950 . S
H1538 C1543 0.950 . S
H1539 C1544 0.949 . S
H1540 C1546 0.950 . S
H1541 C1547 0.950 . S
H1542 C1548 0.949 . S
C1543 H1538 0.950 . S
C1543 C1545 1.327 . S
C1543 C1549 1.429 . S
C1544 C1536 1.574 . S
C1544 H1539 0.949 . S
C1544 C1550 1.368 . S
C1545 C1529 1.349 . S
C1545 H1537 0.950 . S
C1545 C1543 1.327 . S
C1546 C1534 1.349 . S
C1546 H1540 0.950 . S
C1546 C1547 1.327 . S
C1547 H1541 0.950 . S
C1547 C1546 1.327 . S
C1547 C1551 1.429 . S
C1548 C1531 1.574 . S
C1548 H1542 0.949 . S
C1548 C1552 1.368 . S
C1549 C1530 1.429 . S
C1549 C1543 1.429 . S
C1549 C1550 1.523 . S
C1550 C1531 1.368 . S
C1550 C1544 1.368 . S
C1550 C1549 1.523 . S
C1551 C1535 1.429 . S
C1551 C1547 1.429 . S
C1551 C1552 1.523 . S
C1552 C1536 1.368 . S
C1552 C1548 1.368 . S
C1552 C1551 1.523 . S
H1553 C1528 0.950 . S
H1554 C1530 0.950 . S
H1555 C1531 0.949 . S
H1556 C1533 0.950 . S
H1557 C1535 0.950 . S
C1558 C1559 1.349 . S
C1558 C1560 1.327 . S
C1558 H1583 0.950 . S
C1559 C1558 1.349 . S
C1559 C1575 1.349 . S
C1560 C1558 1.327 . S
C1560 C1579 1.429 . S
C1560 H1584 0.950 . S
C1561 C1578 1.574 . S
C1561 C1580 1.368 . S
C1561 H1585 0.949 . S
H1562 C1566 0.949 . S
C1563 C1564 1.349 . S
C1563 C1565 1.327 . S
C1563 H1586 0.950 . S
C1564 C1563 1.349 . S
C1564 C1576 1.349 . S
C1565 C1563 1.327 . S
C1565 C1581 1.429 . S
C1565 H1587 0.950 . S
C1566 H1562 0.949 . S
C1566 C1574 1.574 . S
C1566 C1582 1.368 . S
H1567 C1575 0.950 . S
H1568 C1573 0.950 . S
H1569 C1574 0.949 . S
H1570 C1576 0.950 . S
H1571 C1577 0.950 . S
H1572 C1578 0.949 . S
C1573 H1568 0.950 . S
C1573 C1575 1.327 . S
C1573 C1579 1.429 . S
C1574 C1566 1.574 . S
C1574 H1569 0.949 . S
C1574 C1580 1.368 . S
C1575 C1559 1.349 . S
C1575 H1567 0.950 . S
C1575 C1573 1.327 . S
C1576 C1564 1.349 . S
C1576 H1570 0.950 . S
C1576 C1577 1.327 . S
C1577 H1571 0.950 . S
C1577 C1576 1.327 . S
C1577 C1581 1.429 . S
C1578 C1561 1.574 . S
C1578 H1572 0.949 . S
C1578 C1582 1.368 . S
C1579 C1560 1.429 . S
C1579 C1573 1.429 . S
C1579 C1580 1.523 . S
C1580 C1561 1.368 . S
C1580 C1574 1.368 . S
C1580 C1579 1.523 . S
C1581 C1565 1.429 . S
C1581 C1577 1.429 . S
C1581 C1582 1.523 . S
C1582 C1566 1.368 . S
C1582 C1578 1.368 . S
C1582 C1581 1.523 . S
H1583 C1558 0.950 . S
H1584 C1560 0.950 . S
H1585 C1561 0.949 . S
H1586 C1563 0.950 . S
H1587 C1565 0.950 . S
C1588 C1589 1.349 . S
C1588 C1590 1.327 . S
C1588 H1613 0.950 . S
C1589 C1588 1.349 . S
C1589 C1605 1.349 . S
C1590 C1588 1.327 . S
C1590 C1609 1.429 . S
C1590 H1614 0.950 . S
C1591 C1608 1.574 . S
C1591 C1610 1.368 . S
C1591 H1615 0.949 . S
H1592 C1596 0.949 . S
C1593 C1594 1.349 . S
C1593 C1595 1.327 . S
C1593 H1616 0.950 . S
C1594 C1593 1.349 . S
C1594 C1606 1.349 . S
C1595 C1593 1.327 . S
C1595 C1611 1.429 . S
C1595 H1617 0.950 . S
C1596 H1592 0.949 . S
C1596 C1604 1.574 . S
C1596 C1612 1.368 . S
H1597 C1605 0.950 . S
H1598 C1603 0.950 . S
H1599 C1604 0.949 . S
H1600 C1606 0.950 . S
H1601 C1607 0.950 . S
H1602 C1608 0.949 . S
C1603 H1598 0.950 . S
C1603 C1605 1.327 . S
C1603 C1609 1.429 . S
C1604 C1596 1.574 . S
C1604 H1599 0.949 . S
C1604 C1610 1.368 . S
C1605 C1589 1.349 . S
C1605 H1597 0.950 . S
C1605 C1603 1.327 . S
C1606 C1594 1.349 . S
C1606 H1600 0.950 . S
C1606 C1607 1.327 . S
C1607 H1601 0.950 . S
C1607 C1606 1.327 . S
C1607 C1611 1.429 . S
C1608 C1591 1.574 . S
C1608 H1602 0.949 . S
C1608 C1612 1.368 . S
C1609 C1590 1.429 . S
C1609 C1603 1.429 . S
C1609 C1610 1.523 . S
C1610 C1591 1.368 . S
C1610 C1604 1.368 . S
C1610 C1609 1.523 . S
C1611 C1595 1.429 . S
C1611 C1607 1.429 . S
C1611 C1612 1.523 . S
C1612 C1596 1.368 . S
C1612 C1608 1.368 . S
C1612 C1611 1.523 . S
H1613 C1588 0.950 . S
H1614 C1590 0.950 . S
H1615 C1591 0.949 . S
H1616 C1593 0.950 . S
H1617 C1595 0.950 . S
C1618 C1619 1.349 . S
C1618 C1620 1.327 . S
C1618 H1643 0.950 . S
C1619 C1618 1.349 . S
C1619 C1635 1.349 . S
C1620 C1618 1.327 . S
C1620 C1639 1.429 . S
C1620 H1644 0.950 . S
C1621 C1638 1.555 1_554 S
C1621 C1640 1.368 . S
C1621 H1645 0.949 . S
H1622 C1626 0.949 . S
C1623 C1624 1.349 . S
C1623 C1625 1.327 . S
C1623 H1646 0.950 . S
C1624 C1623 1.349 . S
C1624 C1636 1.349 . S
C1625 C1623 1.327 . S
C1625 C1641 1.429 . S
C1625 H1647 0.950 . S
C1626 H1622 0.949 . S
C1626 C1634 1.574 . S
C1626 C1642 1.346 1_554 S
H1627 C1635 0.950 . S
H1628 C1633 0.950 . S
H1629 C1634 0.949 . S
H1630 C1636 0.950 . S
H1631 C1637 0.950 . S
H1632 C1638 0.965 . S
C1633 H1628 0.950 . S
C1633 C1635 1.327 . S
C1633 C1639 1.429 . S
C1634 C1626 1.574 . S
C1634 H1629 0.949 . S
C1634 C1640 1.368 . S
C1635 C1619 1.349 . S
C1635 H1627 0.950 . S
C1635 C1633 1.327 . S
C1636 C1624 1.349 . S
C1636 H1630 0.950 . S
C1636 C1637 1.327 . S
C1637 H1631 0.950 . S
C1637 C1636 1.327 . S
C1637 C1641 1.429 . S
C1638 C1621 1.555 1_556 S
C1638 H1632 0.965 . S
C1638 C1642 1.368 . S
C1639 C1620 1.429 . S
C1639 C1633 1.429 . S
C1639 C1640 1.523 . S
C1640 C1621 1.368 . S
C1640 C1634 1.368 . S
C1640 C1639 1.523 . S
C1641 C1625 1.429 . S
C1641 C1637 1.429 . S
C1641 C1642 1.553 . S
C1642 C1626 1.346 1_556 S
C1642 C1638 1.368 . S
C1642 C1641 1.553 . S
H1643 C1618 0.950 . S
H1644 C1620 0.950 . S
H1645 C1621 0.949 . S
H1646 C1623 0.950 . S
H1647 C1625 0.950 . S
C1648 C1649 1.349 . S
C1648 C1650 1.327 . S
C1648 H1673 0.950 . S
C1649 C1648 1.349 . S
C1649 C1665 1.349 . S
C1650 C1648 1.327 . S
C1650 C1669 1.429 . S
C1650 H1674 0.950 . S
C1651 C1668 1.574 . S
C1651 C1670 1.368 . S
C1651 H1675 0.949 . S
H1652 C1656 0.949 . S
C1653 C1654 1.349 . S
C1653 C1655 1.327 . S
C1653 H1676 0.950 . S
C1654 C1653 1.349 . S
C1654 C1666 1.349 . S
C1655 C1653 1.327 . S
C1655 C1671 1.429 . S
C1655 H1677 0.950 . S
C1656 H1652 0.949 . S
C1656 C1664 1.574 . S
C1656 C1672 1.368 . S
H1657 C1665 0.950 . S
H1658 C1663 0.950 . S
H1659 C1664 0.949 . S
H1660 C1666 0.950 . S
H1661 C1667 0.950 . S
H1662 C1668 0.949 . S
C1663 H1658 0.950 . S
C1663 C1665 1.327 . S
C1663 C1669 1.429 . S
C1664 C1656 1.574 . S
C1664 H1659 0.949 . S
C1664 C1670 1.368 . S
C1665 C1649 1.349 . S
C1665 H1657 0.950 . S
C1665 C1663 1.327 . S
C1666 C1654 1.349 . S
C1666 H1660 0.950 . S
C1666 C1667 1.327 . S
C1667 H1661 0.950 . S
C1667 C1666 1.327 . S
C1667 C1671 1.429 . S
C1668 C1651 1.574 . S
C1668 H1662 0.949 . S
C1668 C1672 1.368 . S
C1669 C1650 1.429 . S
C1669 C1663 1.429 . S
C1669 C1670 1.523 . S
C1670 C1651 1.368 . S
C1670 C1664 1.368 . S
C1670 C1669 1.523 . S
C1671 C1655 1.429 . S
C1671 C1667 1.429 . S
C1671 C1672 1.523 . S
C1672 C1656 1.368 . S
C1672 C1668 1.368 . S
C1672 C1671 1.523 . S
H1673 C1648 0.950 . S
H1674 C1650 0.950 . S
H1675 C1651 0.949 . S
H1676 C1653 0.950 . S
H1677 C1655 0.950 . S
C1678 C1679 1.349 . S
C1678 C1680 1.327 . S
C1678 H1703 0.950 . S
C1679 C1678 1.349 . S
C1679 C1695 1.349 . S
C1680 C1678 1.327 . S
C1680 C1699 1.429 . S
C1680 H1704 0.950 . S
C1681 C1698 1.574 1_565 S
C1681 C1700 1.368 . S
C1681 H1705 0.949 . S
H1682 C1686 0.949 . S
C1683 C1684 1.349 . S
C1683 C1685 1.327 . S
C1683 H1706 0.950 . S
C1684 C1683 1.349 . S
C1684 C1696 1.349 . S
C1685 C1683 1.327 . S
C1685 C1701 1.429 . S
C1685 H1707 0.950 . S
C1686 H1682 0.949 . S
C1686 C1694 1.574 . S
C1686 C1702 1.368 1_565 S
H1687 C1695 0.950 . S
H1688 C1693 0.950 . S
H1689 C1694 0.949 . S
H1690 C1696 0.950 . S
H1691 C1697 0.950 . S
H1692 C1698 0.949 . S
C1693 H1688 0.950 . S
C1693 C1695 1.327 . S
C1693 C1699 1.429 . S
C1694 C1686 1.574 . S
C1694 H1689 0.949 . S
C1694 C1700 1.368 . S
C1695 C1679 1.349 . S
C1695 H1687 0.950 . S
C1695 C1693 1.327 . S
C1696 C1684 1.349 . S
C1696 H1690 0.950 . S
C1696 C1697 1.327 . S
C1697 H1691 0.950 . S
C1697 C1696 1.327 . S
C1697 C1701 1.429 . S
C1698 C1681 1.574 1_545 S
C1698 H1692 0.949 . S
C1698 C1702 1.368 . S
C1699 C1680 1.429 . S
C1699 C1693 1.429 . S
C1699 C1700 1.523 . S
C1700 C1681 1.368 . S
C1700 C1694 1.368 . S
C1700 C1699 1.523 . S
C1701 C1685 1.429 . S
C1701 C1697 1.429 . S
C1701 C1702 1.523 . S
C1702 C1686 1.368 1_545 S
C1702 C1698 1.368 . S
C1702 C1701 1.523 . S
H1703 C1678 0.950 . S
H1704 C1680 0.950 . S
H1705 C1681 0.949 . S
H1706 C1683 0.950 . S
H1707 C1685 0.950 . S
C1708 C1709 1.349 . S
C1708 C1710 1.327 . S
C1708 H1733 0.950 . S
C1709 C1708 1.349 . S
C1709 C1725 1.349 . S
C1710 C1708 1.327 . S
C1710 C1729 1.429 . S
C1710 H1734 0.950 . S
C1711 C1728 1.574 . S
C1711 C1730 1.368 . S
C1711 H1735 0.949 . S
H1712 C1716 0.949 . S
C1713 C1714 1.349 . S
C1713 C1715 1.327 . S
C1713 H1736 0.950 . S
C1714 C1713 1.349 . S
C1714 C1726 1.349 . S
C1715 C1713 1.327 . S
C1715 C1731 1.429 . S
C1715 H1737 0.950 . S
C1716 H1712 0.949 . S
C1716 C1724 1.574 . S
C1716 C1732 1.368 . S
H1717 C1725 0.950 . S
H1718 C1723 0.950 . S
H1719 C1724 0.949 . S
H1720 C1726 0.950 . S
H1721 C1727 0.950 . S
H1722 C1728 0.949 . S
C1723 H1718 0.950 . S
C1723 C1725 1.327 . S
C1723 C1729 1.429 . S
C1724 C1716 1.574 . S
C1724 H1719 0.949 . S
C1724 C1730 1.368 . S
C1725 C1709 1.349 . S
C1725 H1717 0.950 . S
C1725 C1723 1.327 . S
C1726 C1714 1.349 . S
C1726 H1720 0.950 . S
C1726 C1727 1.327 . S
C1727 H1721 0.950 . S
C1727 C1726 1.327 . S
C1727 C1731 1.429 . S
C1728 C1711 1.574 . S
C1728 H1722 0.949 . S
C1728 C1732 1.368 . S
C1729 C1710 1.429 . S
C1729 C1723 1.429 . S
C1729 C1730 1.523 . S
C1730 C1711 1.368 . S
C1730 C1724 1.368 . S
C1730 C1729 1.523 . S
C1731 C1715 1.429 . S
C1731 C1727 1.429 . S
C1731 C1732 1.523 . S
C1732 C1716 1.368 . S
C1732 C1728 1.368 . S
C1732 C1731 1.523 . S
H1733 C1708 0.950 . S
H1734 C1710 0.950 . S
H1735 C1711 0.949 . S
H1736 C1713 0.950 . S
H1737 C1715 0.950 . S
C1738 C1739 1.349 . S
C1738 C1740 1.327 . S
C1738 H1763 0.972 . S
C1739 C1738 1.349 . S
C1739 C1755 1.349 . S
C1740 C1738 1.327 . S
C1740 C1759 1.429 . S
C1740 H1764 0.950 . S
C1741 C1758 1.574 . S
C1741 C1760 1.368 . S
C1741 H1765 0.949 . S
H1742 C1746 0.949 . S
C1743 C1744 1.349 . S
C1743 C1745 1.327 . S
C1743 H1766 0.950 . S
C1744 C1743 1.349 . S
C1744 C1756 1.349 . S
C1745 C1743 1.327 . S
C1745 C1761 1.429 . S
C1745 H1767 0.950 . S
C1746 H1742 0.949 . S
C1746 C1754 1.574 1_565 S
C1746 C1762 1.368 . S
H1747 C1755 0.950 . S
H1748 C1753 0.950 . S
H1749 C1754 0.949 . S
H1750 C1756 0.950 . S
H1751 C1757 0.950 . S
H1752 C1758 0.949 . S
C1753 H1748 0.950 . S
C1753 C1755 1.327 . S
C1753 C1759 1.429 . S
C1754 C1746 1.574 1_545 S
C1754 H1749 0.949 . S
C1754 C1760 1.368 . S
C1755 C1739 1.349 . S
C1755 H1747 0.950 . S
C1755 C1753 1.327 . S
C1756 C1744 1.349 . S
C1756 H1750 0.950 . S
C1756 C1757 1.327 . S
C1757 H1751 0.950 . S
C1757 C1756 1.327 . S
C1757 C1761 1.429 . S
C1758 C1741 1.574 . S
C1758 H1752 0.949 . S
C1758 C1762 1.368 1_545 S
C1759 C1740 1.429 . S
C1759 C1753 1.429 . S
C1759 C1760 1.523 . S
C1760 C1741 1.368 . S
C1760 C1754 1.368 . S
C1760 C1759 1.523 . S
C1761 C1745 1.429 . S
C1761 C1757 1.429 . S
C1761 C1762 1.523 . S
C1762 C1746 1.368 . S
C1762 C1758 1.368 1_565 S
C1762 C1761 1.523 . S
H1763 C1738 0.972 . S
H1764 C1740 0.950 . S
H1765 C1741 0.949 . S
H1766 C1743 0.950 . S
H1767 C1745 0.950 . S
C1768 C1769 1.349 . S
C1768 C1770 1.327 . S
C1768 H1793 0.950 . S
C1769 C1768 1.349 . S
C1769 C1785 1.349 . S
C1770 C1768 1.327 . S
C1770 C1789 1.429 . S
C1770 H1794 0.950 . S
C1771 C1788 1.574 . S
C1771 C1790 1.368 . S
C1771 H1795 0.949 . S
H1772 C1776 0.949 . S
C1773 C1774 1.349 . S
C1773 C1775 1.327 . S
C1773 H1796 0.950 . S
C1774 C1773 1.349 . S
C1774 C1786 1.349 . S
C1775 C1773 1.327 . S
C1775 C1791 1.429 . S
C1775 H1797 0.950 . S
C1776 H1772 0.949 . S
C1776 C1784 1.574 . S
C1776 C1792 1.368 . S
H1777 C1785 0.950 . S
H1778 C1783 0.950 . S
H1779 C1784 0.949 . S
H1780 C1786 0.950 . S
H1781 C1787 0.950 . S
H1782 C1788 0.949 . S
C1783 H1778 0.950 . S
C1783 C1785 1.327 . S
C1783 C1789 1.429 . S
C1784 C1776 1.574 . S
C1784 H1779 0.949 . S
C1784 C1790 1.368 . S
C1785 C1769 1.349 . S
C1785 H1777 0.950 . S
C1785 C1783 1.327 . S
C1786 C1774 1.349 . S
C1786 H1780 0.950 . S
C1786 C1787 1.327 . S
C1787 H1781 0.950 . S
C1787 C1786 1.327 . S
C1787 C1791 1.429 . S
C1788 C1771 1.574 . S
C1788 H1782 0.949 . S
C1788 C1792 1.368 . S
C1789 C1770 1.429 . S
C1789 C1783 1.429 . S
C1789 C1790 1.523 . S
C1790 C1771 1.368 . S
C1790 C1784 1.368 . S
C1790 C1789 1.523 . S
C1791 C1775 1.429 . S
C1791 C1787 1.429 . S
C1791 C1792 1.523 . S
C1792 C1776 1.368 . S
C1792 C1788 1.368 . S
C1792 C1791 1.523 . S
H1793 C1768 0.950 . S
H1794 C1770 0.950 . S
H1795 C1771 0.949 . S
H1796 C1773 0.950 . S
H1797 C1775 0.950 . S
C1798 C1799 1.349 . S
C1798 C1800 1.327 . S
C1798 H1823 0.950 . S
C1799 C1798 1.349 . S
C1799 C1815 1.349 . S
C1800 C1798 1.327 . S
C1800 C1819 1.429 . S
C1800 H1824 0.950 . S
C1801 C1818 1.574 1_565 S
C1801 C1820 1.368 . S
C1801 H1825 0.949 . S
H1802 C1806 0.949 . S
C1803 C1804 1.349 . S
C1803 C1805 1.327 . S
C1803 H1826 0.950 . S
C1804 C1803 1.349 . S
C1804 C1816 1.349 . S
C1805 C1803 1.327 . S
C1805 C1821 1.429 . S
C1805 H1827 0.950 . S
C1806 H1802 0.949 . S
C1806 C1814 1.574 . S
C1806 C1822 1.368 1_565 S
H1807 C1815 0.950 . S
H1808 C1813 0.950 . S
H1809 C1814 0.949 . S
H1810 C1816 0.950 . S
H1811 C1817 0.950 . S
H1812 C1818 0.949 . S
C1813 H1808 0.950 . S
C1813 C1815 1.327 . S
C1813 C1819 1.429 . S
C1814 C1806 1.574 . S
C1814 H1809 0.949 . S
C1814 C1820 1.368 . S
C1815 C1799 1.349 . S
C1815 H1807 0.950 . S
C1815 C1813 1.327 . S
C1816 C1804 1.349 . S
C1816 H1810 0.950 . S
C1816 C1817 1.327 . S
C1817 H1811 0.950 . S
C1817 C1816 1.327 . S
C1817 C1821 1.429 . S
C1818 C1801 1.574 1_545 S
C1818 H1812 0.949 . S
C1818 C1822 1.368 . S
C1819 C1800 1.429 . S
C1819 C1813 1.429 . S
C1819 C1820 1.523 . S
C1820 C1801 1.368 . S
C1820 C1814 1.368 . S
C1820 C1819 1.523 . S
C1821 C1805 1.429 . S
C1821 C1817 1.429 . S
C1821 C1822 1.523 . S
C1822 C1806 1.368 1_545 S
C1822 C1818 1.368 . S
C1822 C1821 1.523 . S
H1823 C1798 0.950 . S
H1824 C1800 0.950 . S
H1825 C1801 0.949 . S
H1826 C1803 0.950 . S
H1827 C1805 0.950 . S
C1828 C1829 1.349 . S
C1828 C1830 1.327 . S
C1828 H1853 0.950 . S
C1829 C1828 1.349 . S
C1829 C1845 1.349 . S
C1830 C1828 1.327 . S
C1830 C1849 1.429 . S
C1830 H1854 0.950 . S
C1831 C1848 1.574 . S
C1831 C1850 1.368 . S
C1831 H1855 0.949 . S
H1832 C1836 0.949 . S
C1833 C1834 1.349 . S
C1833 C1835 1.327 . S
C1833 H1856 0.950 . S
C1834 C1833 1.349 . S
C1834 C1846 1.349 . S
C1835 C1833 1.327 . S
C1835 C1851 1.429 . S
C1835 H1857 0.950 . S
C1836 H1832 0.949 . S
C1836 C1844 1.574 . S
C1836 C1852 1.368 . S
H1837 C1845 0.950 . S
H1838 C1843 0.950 . S
H1839 C1844 0.949 . S
H1840 C1846 0.950 . S
H1841 C1847 0.950 . S
H1842 C1848 0.949 . S
C1843 H1838 0.950 . S
C1843 C1845 1.327 . S
C1843 C1849 1.429 . S
C1844 C1836 1.574 . S
C1844 H1839 0.949 . S
C1844 C1850 1.368 . S
C1845 C1829 1.349 . S
C1845 H1837 0.950 . S
C1845 C1843 1.327 . S
C1846 C1834 1.349 . S
C1846 H1840 0.950 . S
C1846 C1847 1.327 . S
C1847 H1841 0.950 . S
C1847 C1846 1.327 . S
C1847 C1851 1.429 . S
C1848 C1831 1.574 . S
C1848 H1842 0.949 . S
C1848 C1852 1.368 . S
C1849 C1830 1.429 . S
C1849 C1843 1.429 . S
C1849 C1850 1.523 . S
C1850 C1831 1.368 . S
C1850 C1844 1.368 . S
C1850 C1849 1.523 . S
C1851 C1835 1.429 . S
C1851 C1847 1.429 . S
C1851 C1852 1.523 . S
C1852 C1836 1.368 . S
C1852 C1848 1.368 . S
C1852 C1851 1.523 . S
H1853 C1828 0.950 . S
H1854 C1830 0.950 . S
H1855 C1831 0.949 . S
H1856 C1833 0.950 . S
H1857 C1835 0.950 . S
C1858 C1859 1.349 . S
C1858 C1860 1.327 . S
C1858 H1883 0.950 . S
C1859 C1858 1.349 . S
C1859 C1875 1.349 . S
C1860 C1858 1.327 . S
C1860 C1879 1.429 . S
C1860 H1884 0.950 . S
C1861 C1878 1.574 1_545 S
C1861 C1880 1.368 . S
C1861 H1885 0.949 . S
H1862 C1866 0.949 . S
C1863 C1864 1.349 . S
C1863 C1865 1.327 . S
C1863 H1886 0.950 . S
C1864 C1863 1.349 . S
C1864 C1876 1.349 . S
C1865 C1863 1.327 . S
C1865 C1881 1.429 . S
C1865 H1887 0.950 . S
C1866 H1862 0.949 . S
C1866 C1874 1.574 . S
C1866 C1882 1.368 1_545 S
H1867 C1875 0.950 . S
H1868 C1873 0.950 . S
H1869 C1874 0.949 . S
H1870 C1876 0.950 . S
H1871 C1877 0.950 . S
H1872 C1878 0.949 . S
C1873 H1868 0.950 . S
C1873 C1875 1.327 . S
C1873 C1879 1.429 . S
C1874 C1866 1.574 . S
C1874 H1869 0.949 . S
C1874 C1880 1.368 . S
C1875 C1859 1.349 . S
C1875 H1867 0.950 . S
C1875 C1873 1.327 . S
C1876 C1864 1.349 . S
C1876 H1870 0.950 . S
C1876 C1877 1.327 . S
C1877 H1871 0.950 . S
C1877 C1876 1.327 . S
C1877 C1881 1.429 . S
C1878 C1861 1.574 1_565 S
C1878 H1872 0.949 . S
C1878 C1882 1.368 . S
C1879 C1860 1.429 . S
C1879 C1873 1.429 . S
C1879 C1880 1.523 . S
C1880 C1861 1.368 . S
C1880 C1874 1.368 . S
C1880 C1879 1.523 . S
C1881 C1865 1.429 . S
C1881 C1877 1.429 . S
C1881 C1882 1.523 . S
C1882 C1866 1.368 1_565 S
C1882 C1878 1.368 . S
C1882 C1881 1.523 . S
H1883 C1858 0.950 . S
H1884 C1860 0.950 . S
H1885 C1861 0.949 . S
H1886 C1863 0.950 . S
H1887 C1865 0.950 . S
C1888 C1889 1.349 . S
C1888 C1890 1.327 . S
C1888 H1913 0.950 . S
C1889 C1888 1.349 . S
C1889 C1905 1.349 . S
C1890 C1888 1.327 . S
C1890 C1909 1.429 . S
C1890 H1914 0.950 . S
C1891 C1908 1.574 . S
C1891 C1910 1.368 . S
C1891 H1915 0.949 . S
H1892 C1896 0.949 . S
C1893 C1894 1.349 . S
C1893 C1895 1.327 . S
C1893 H1916 0.950 . S
C1894 C1893 1.349 . S
C1894 C1906 1.349 . S
C1895 C1893 1.327 . S
C1895 C1911 1.429 . S
C1895 H1917 0.950 . S
C1896 H1892 0.949 . S
C1896 C1904 1.574 . S
C1896 C1912 1.368 . S
H1897 C1905 0.950 . S
H1898 C1903 0.950 . S
H1899 C1904 0.949 . S
H1900 C1906 0.950 . S
H1901 C1907 0.950 . S
H1902 C1908 0.949 . S
C1903 H1898 0.950 . S
C1903 C1905 1.327 . S
C1903 C1909 1.429 . S
C1904 C1896 1.574 . S
C1904 H1899 0.949 . S
C1904 C1910 1.368 . S
C1905 C1889 1.349 . S
C1905 H1897 0.950 . S
C1905 C1903 1.327 . S
C1906 C1894 1.349 . S
C1906 H1900 0.950 . S
C1906 C1907 1.327 . S
C1907 H1901 0.950 . S
C1907 C1906 1.327 . S
C1907 C1911 1.429 . S
C1908 C1891 1.574 . S
C1908 H1902 0.949 . S
C1908 C1912 1.368 . S
C1909 C1890 1.429 . S
C1909 C1903 1.429 . S
C1909 C1910 1.523 . S
C1910 C1891 1.368 . S
C1910 C1904 1.368 . S
C1910 C1909 1.523 . S
C1911 C1895 1.429 . S
C1911 C1907 1.429 . S
C1911 C1912 1.523 . S
C1912 C1896 1.368 . S
C1912 C1908 1.368 . S
C1912 C1911 1.523 . S
H1913 C1888 0.950 . S
H1914 C1890 0.950 . S
H1915 C1891 0.949 . S
H1916 C1893 0.950 . S
H1917 C1895 0.950 . S
C1918 C1919 1.349 . S
C1918 C1920 1.327 . S
C1918 H1943 0.950 . S
C1919 C1918 1.349 . S
C1919 C1935 1.349 . S
C1920 C1918 1.327 . S
C1920 C1939 1.429 . S
C1920 H1944 0.950 . S
C1921 C1938 1.574 . S
C1921 C1940 1.368 . S
C1921 H1945 0.949 . S
H1922 C1926 0.949 . S
C1923 C1924 1.349 . S
C1923 C1925 1.327 . S
C1923 H1946 0.950 . S
C1924 C1923 1.349 . S
C1924 C1936 1.349 . S
C1925 C1923 1.327 . S
C1925 C1941 1.429 . S
C1925 H1947 0.950 . S
C1926 H1922 0.949 . S
C1926 C1934 1.574 . S
C1926 C1942 1.368 . S
H1927 C1935 0.950 . S
H1928 C1933 0.950 . S
H1929 C1934 0.949 . S
H1930 C1936 0.950 . S
H1931 C1937 0.950 . S
H1932 C1938 0.949 . S
C1933 H1928 0.950 . S
C1933 C1935 1.327 . S
C1933 C1939 1.429 . S
C1934 C1926 1.574 . S
C1934 H1929 0.949 . S
C1934 C1940 1.368 . S
C1935 C1919 1.349 . S
C1935 H1927 0.950 . S
C1935 C1933 1.327 . S
C1936 C1924 1.349 . S
C1936 H1930 0.950 . S
C1936 C1937 1.327 . S
C1937 H1931 0.950 . S
C1937 C1936 1.327 . S
C1937 C1941 1.429 . S
C1938 C1921 1.574 . S
C1938 H1932 0.949 . S
C1938 C1942 1.368 . S
C1939 C1920 1.429 . S
C1939 C1933 1.429 . S
C1939 C1940 1.523 . S
C1940 C1921 1.368 . S
C1940 C1934 1.368 . S
C1940 C1939 1.523 . S
C1941 C1925 1.429 . S
C1941 C1937 1.429 . S
C1941 C1942 1.523 . S
C1942 C1926 1.368 . S
C1942 C1938 1.368 . S
C1942 C1941 1.523 . S
H1943 C1918 0.950 . S
H1944 C1920 0.950 . S
H1945 C1921 0.949 . S
H1946 C1923 0.950 . S
H1947 C1925 0.950 . S
C1948 C1949 1.349 . S
C1948 C1950 1.327 . S
C1948 H1973 0.950 . S
C1949 C1948 1.349 . S
C1949 C1965 1.349 . S
C1950 C1948 1.327 . S
C1950 C1969 1.429 . S
C1950 H1974 0.950 . S
C1951 C1968 1.574 1_655 S
C1951 C1970 1.368 . S
C1951 H1975 0.949 . S
H1952 C1956 0.949 . S
C1953 C1954 1.349 . S
C1953 C1955 1.327 . S
C1953 H1976 0.950 . S
C1954 C1953 1.349 . S
C1954 C1966 1.349 . S
C1955 C1953 1.327 . S
C1955 C1971 1.429 . S
C1955 H1977 0.950 . S
C1956 H1952 0.949 . S
C1956 C1964 1.574 . S
C1956 C1972 1.368 1_655 S
H1957 C1965 0.950 . S
H1958 C1963 0.950 . S
H1959 C1964 0.949 . S
H1960 C1966 0.950 . S
H1961 C1967 0.950 . S
H1962 C1968 0.949 . S
C1963 H1958 0.950 . S
C1963 C1965 1.327 . S
C1963 C1969 1.429 . S
C1964 C1956 1.574 . S
C1964 H1959 0.949 . S
C1964 C1970 1.368 . S
C1965 C1949 1.349 . S
C1965 H1957 0.950 . S
C1965 C1963 1.327 . S
C1966 C1954 1.349 . S
C1966 H1960 0.950 . S
C1966 C1967 1.327 . S
C1967 H1961 0.950 . S
C1967 C1966 1.327 . S
C1967 C1971 1.429 . S
C1968 C1951 1.574 1_455 S
C1968 H1962 0.949 . S
C1968 C1972 1.368 . S
C1969 C1950 1.429 . S
C1969 C1963 1.429 . S
C1969 C1970 1.523 . S
C1970 C1951 1.368 . S
C1970 C1964 1.368 . S
C1970 C1969 1.523 . S
C1971 C1955 1.429 . S
C1971 C1967 1.429 . S
C1971 C1972 1.523 . S
C1972 C1956 1.368 1_455 S
C1972 C1968 1.368 . S
C1972 C1971 1.523 . S
H1973 C1948 0.950 . S
H1974 C1950 0.950 . S
H1975 C1951 0.949 . S
H1976 C1953 0.950 . S
H1977 C1955 0.950 . S
C1978 C1979 1.349 . S
C1978 C1980 1.327 . S
C1978 H2003 0.950 . S
C1979 C1978 1.349 . S
C1979 C1995 1.349 . S
C1980 C1978 1.327 . S
C1980 C1999 1.429 . S
C1980 H2004 0.950 . S
C1981 C1998 1.574 . S
C1981 C2000 1.368 . S
C1981 H2005 0.949 . S
H1982 C1986 0.949 . S
C1983 C1984 1.349 . S
C1983 C1985 1.327 . S
C1983 H2006 0.950 . S
C1984 C1983 1.349 . S
C1984 C1996 1.349 . S
C1985 C1983 1.327 . S
C1985 C2001 1.429 . S
C1985 H2007 0.950 . S
C1986 H1982 0.949 . S
C1986 C1994 1.574 . S
C1986 C2002 1.368 . S
H1987 C1995 0.950 . S
H1988 C1993 0.950 . S
H1989 C1994 0.949 . S
H1990 C1996 0.950 . S
H1991 C1997 0.950 . S
H1992 C1998 0.949 . S
C1993 H1988 0.950 . S
C1993 C1995 1.327 . S
C1993 C1999 1.429 . S
C1994 C1986 1.574 . S
C1994 H1989 0.949 . S
C1994 C2000 1.368 . S
C1995 C1979 1.349 . S
C1995 H1987 0.950 . S
C1995 C1993 1.327 . S
C1996 C1984 1.349 . S
C1996 H1990 0.950 . S
C1996 C1997 1.327 . S
C1997 H1991 0.950 . S
C1997 C1996 1.327 . S
C1997 C2001 1.429 . S
C1998 C1981 1.574 . S
C1998 H1992 0.949 . S
C1998 C2002 1.368 . S
C1999 C1980 1.429 . S
C1999 C1993 1.429 . S
C1999 C2000 1.523 . S
C2000 C1981 1.368 . S
C2000 C1994 1.368 . S
C2000 C1999 1.523 . S
C2001 C1985 1.429 . S
C2001 C1997 1.429 . S
C2001 C2002 1.523 . S
C2002 C1986 1.368 . S
C2002 C1998 1.368 . S
C2002 C2001 1.523 . S
H2003 C1978 0.950 . S
H2004 C1980 0.950 . S
H2005 C1981 0.949 . S
H2006 C1983 0.950 . S
H2007 C1985 0.950 . S
C2008 C2009 1.349 . S
C2008 C2010 1.327 . S
C2008 H2033 0.950 . S
C2009 C2008 1.349 . S
C2009 C2025 1.349 . S
C2010 C2008 1.327 . S
C2010 C2029 1.429 . S
C2010 H2034 0.950 . S
C2011 C2028 1.574 . S
C2011 C2030 1.368 . S
C2011 H2035 0.949 . S
H2012 C2016 0.949 . S
C2013 C2014 1.349 . S
C2013 C2015 1.327 . S
C2013 H2036 0.950 . S
C2014 C2013 1.349 . S
C2014 C2026 1.349 . S
C2015 C2013 1.327 . S
C2015 C2031 1.429 . S
C2015 H2037 0.950 . S
C2016 H2012 0.949 . S
C2016 C2024 1.574 1_655 S
C2016 C2032 1.368 . S
H2017 C2025 0.950 . S
H2018 C2023 0.950 . S
H2019 C2024 0.949 . S
H2020 C2026 0.950 . S
H2021 C2027 0.950 . S
H2022 C2028 0.949 . S
C2023 H2018 0.950 . S
C2023 C2025 1.327 . S
C2023 C2029 1.429 . S
C2024 C2016 1.574 1_455 S
C2024 H2019 0.949 . S
C2024 C2030 1.368 . S
C2025 C2009 1.349 . S
C2025 H2017 0.950 . S
C2025 C2023 1.327 . S
C2026 C2014 1.349 . S
C2026 H2020 0.950 . S
C2026 C2027 1.327 . S
C2027 H2021 0.950 . S
C2027 C2026 1.327 . S
C2027 C2031 1.429 . S
C2028 C2011 1.574 . S
C2028 H2022 0.949 . S
C2028 C2032 1.368 1_455 S
C2029 C2010 1.429 . S
C2029 C2023 1.429 . S
C2029 C2030 1.523 . S
C2030 C2011 1.368 . S
C2030 C2024 1.368 . S
C2030 C2029 1.523 . S
C2031 C2015 1.429 . S
C2031 C2027 1.429 . S
C2031 C2032 1.523 . S
C2032 C2016 1.368 . S
C2032 C2028 1.368 1_655 S
C2032 C2031 1.523 . S
H2033 C2008 0.950 . S
H2034 C2010 0.950 . S
H2035 C2011 0.949 . S
H2036 C2013 0.950 . S
H2037 C2015 0.950 . S
C2038 C2039 1.349 . S
C2038 C2040 1.327 . S
C2038 H2063 0.950 . S
C2039 C2038 1.349 . S
C2039 C2055 1.349 . S
C2040 C2038 1.327 . S
C2040 C2059 1.429 . S
C2040 H2064 0.950 . S
C2041 C2058 1.574 . S
C2041 C2060 1.368 . S
C2041 H2065 0.949 . S
H2042 C2046 0.949 . S
C2043 C2044 1.349 . S
C2043 C2045 1.327 . S
C2043 H2066 0.950 . S
C2044 C2043 1.349 . S
C2044 C2056 1.349 . S
C2045 C2043 1.327 . S
C2045 C2061 1.429 . S
C2045 H2067 0.950 . S
C2046 H2042 0.949 . S
C2046 C2054 1.574 . S
C2046 C2062 1.368 . S
H2047 C2055 0.950 . S
H2048 C2053 0.950 . S
H2049 C2054 0.949 . S
H2050 C2056 0.950 . S
H2051 C2057 0.950 . S
H2052 C2058 0.949 . S
C2053 H2048 0.950 . S
C2053 C2055 1.327 . S
C2053 C2059 1.429 . S
C2054 C2046 1.574 . S
C2054 H2049 0.949 . S
C2054 C2060 1.368 . S
C2055 C2039 1.349 . S
C2055 H2047 0.950 . S
C2055 C2053 1.327 . S
C2056 C2044 1.349 . S
C2056 H2050 0.950 . S
C2056 C2057 1.327 . S
C2057 H2051 0.950 . S
C2057 C2056 1.327 . S
C2057 C2061 1.429 . S
C2058 C2041 1.574 . S
C2058 H2052 0.949 . S
C2058 C2062 1.368 . S
C2059 C2040 1.429 . S
C2059 C2053 1.429 . S
C2059 C2060 1.523 . S
C2060 C2041 1.368 . S
C2060 C2054 1.368 . S
C2060 C2059 1.523 . S
C2061 C2045 1.429 . S
C2061 C2057 1.429 . S
C2061 C2062 1.523 . S
C2062 C2046 1.368 . S
C2062 C2058 1.368 . S
C2062 C2061 1.523 . S
H2063 C2038 0.950 . S
H2064 C2040 0.950 . S
H2065 C2041 0.949 . S
H2066 C2043 0.950 . S
H2067 C2045 0.950 . S
C2068 C2069 1.349 . S
C2068 C2070 1.327 . S
C2068 H2093 0.950 . S
C2069 C2068 1.349 . S
C2069 C2085 1.349 . S
C2070 C2068 1.327 . S
C2070 C2089 1.429 . S
C2070 H2094 0.950 . S
C2071 C2088 1.574 . S
C2071 C2090 1.368 . S
C2071 H2095 0.949 . S
H2072 C2076 0.949 . S
C2073 C2074 1.349 . S
C2073 C2075 1.327 . S
C2073 H2096 0.950 . S
C2074 C2073 1.349 . S
C2074 C2086 1.349 . S
C2075 C2073 1.327 . S
C2075 C2091 1.429 . S
C2075 H2097 0.950 . S
C2076 H2072 0.949 . S
C2076 C2084 1.574 1_455 S
C2076 C2092 1.368 . S
H2077 C2085 0.950 . S
H2078 C2083 0.950 . S
H2079 C2084 0.949 . S
H2080 C2086 0.950 . S
H2081 C2087 0.950 . S
H2082 C2088 0.949 . S
C2083 H2078 0.950 . S
C2083 C2085 1.327 . S
C2083 C2089 1.429 . S
C2084 C2076 1.574 1_655 S
C2084 H2079 0.949 . S
C2084 C2090 1.368 . S
C2085 C2069 1.349 . S
C2085 H2077 0.950 . S
C2085 C2083 1.327 . S
C2086 C2074 1.349 . S
C2086 H2080 0.950 . S
C2086 C2087 1.327 . S
C2087 H2081 0.950 . S
C2087 C2086 1.327 . S
C2087 C2091 1.429 . S
C2088 C2071 1.574 . S
C2088 H2082 0.949 . S
C2088 C2092 1.368 1_655 S
C2089 C2070 1.429 . S
C2089 C2083 1.429 . S
C2089 C2090 1.523 . S
C2090 C2071 1.368 . S
C2090 C2084 1.368 . S
C2090 C2089 1.523 . S
C2091 C2075 1.429 . S
C2091 C2087 1.429 . S
C2091 C2092 1.523 . S
C2092 C2076 1.368 . S
C2092 C2088 1.368 1_455 S
C2092 C2091 1.523 . S
H2093 C2068 0.950 . S
H2094 C2070 0.950 . S
H2095 C2071 0.949 . S
H2096 C2073 0.950 . S
H2097 C2075 0.950 . S
C2098 C2099 1.349 . S
C2098 C2100 1.327 . S
C2098 H2123 0.950 . S
C2099 C2098 1.349 . S
C2099 C2115 1.349 . S
C2100 C2098 1.327 . S
C2100 C2119 1.429 . S
C2100 H2124 0.950 . S
C2101 C2118 1.574 . S
C2101 C2120 1.368 . S
C2101 H2125 0.949 . S
H2102 C2106 0.949 . S
C2103 C2104 1.349 . S
C2103 C2105 1.327 . S
C2103 H2126 0.950 . S
C2104 C2103 1.349 . S
C2104 C2116 1.349 . S
C2105 C2103 1.327 . S
C2105 C2121 1.429 . S
C2105 H2127 0.950 . S
C2106 H2102 0.949 . S
C2106 C2114 1.574 . S
C2106 C2122 1.368 . S
H2107 C2115 0.950 . S
H2108 C2113 0.950 . S
H2109 C2114 0.949 . S
H2110 C2116 0.950 . S
H2111 C2117 0.950 . S
H2112 C2118 0.949 . S
C2113 H2108 0.950 . S
C2113 C2115 1.327 . S
C2113 C2119 1.429 . S
C2114 C2106 1.574 . S
C2114 H2109 0.949 . S
C2114 C2120 1.368 . S
C2115 C2099 1.349 . S
C2115 H2107 0.950 . S
C2115 C2113 1.327 . S
C2116 C2104 1.349 . S
C2116 H2110 0.950 . S
C2116 C2117 1.327 . S
C2117 H2111 0.950 . S
C2117 C2116 1.327 . S
C2117 C2121 1.429 . S
C2118 C2101 1.574 . S
C2118 H2112 0.949 . S
C2118 C2122 1.368 . S
C2119 C2100 1.429 . S
C2119 C2113 1.429 . S
C2119 C2120 1.523 . S
C2120 C2101 1.368 . S
C2120 C2114 1.368 . S
C2120 C2119 1.523 . S
C2121 C2105 1.429 . S
C2121 C2117 1.429 . S
C2121 C2122 1.523 . S
C2122 C2106 1.368 . S
C2122 C2118 1.368 . S
C2122 C2121 1.523 . S
H2123 C2098 0.950 . S
H2124 C2100 0.950 . S
H2125 C2101 0.949 . S
H2126 C2103 0.950 . S
H2127 C2105 0.950 . S
C2128 C2129 1.349 . S
C2128 C2130 1.327 . S
C2128 H2153 0.950 . S
C2129 C2128 1.349 . S
C2129 C2145 1.349 . S
C2130 C2128 1.327 . S
C2130 C2149 1.429 . S
C2130 H2154 0.950 . S
C2131 C2148 1.574 . S
C2131 C2150 1.368 . S
C2131 H2155 0.949 . S
H2132 C2136 0.949 . S
C2133 C2134 1.349 . S
C2133 C2135 1.327 . S
C2133 H2156 0.950 . S
C2134 C2133 1.349 . S
C2134 C2146 1.349 . S
C2135 C2133 1.327 . S
C2135 C2151 1.429 . S
C2135 H2157 0.950 . S
C2136 H2132 0.949 . S
C2136 C2144 1.574 . S
C2136 C2152 1.368 . S
H2137 C2145 0.950 . S
H2138 C2143 0.950 . S
H2139 C2144 0.949 . S
H2140 C2146 0.950 . S
H2141 C2147 0.950 . S
H2142 C2148 0.949 . S
C2143 H2138 0.950 . S
C2143 C2145 1.327 . S
C2143 C2149 1.429 . S
C2144 C2136 1.574 . S
C2144 H2139 0.949 . S
C2144 C2150 1.368 . S
C2145 C2129 1.349 . S
C2145 H2137 0.950 . S
C2145 C2143 1.327 . S
C2146 C2134 1.349 . S
C2146 H2140 0.950 . S
C2146 C2147 1.327 . S
C2147 H2141 0.950 . S
C2147 C2146 1.327 . S
C2147 C2151 1.429 . S
C2148 C2131 1.574 . S
C2148 H2142 0.949 . S
C2148 C2152 1.368 . S
C2149 C2130 1.429 . S
C2149 C2143 1.429 . S
C2149 C2150 1.523 . S
C2150 C2131 1.368 . S
C2150 C2144 1.368 . S
C2150 C2149 1.523 . S
C2151 C2135 1.429 . S
C2151 C2147 1.429 . S
C2151 C2152 1.523 . S
C2152 C2136 1.368 . S
C2152 C2148 1.368 . S
C2152 C2151 1.523 . S
H2153 C2128 0.950 . S
H2154 C2130 0.950 . S
H2155 C2131 0.949 . S
H2156 C2133 0.950 . S
H2157 C2135 0.950 . S
C2158 C2159 1.349 . S
C2158 C2160 1.327 . S
C2158 H2183 0.950 . S
C2159 C2158 1.349 . S
C2159 C2175 1.349 . S
C2160 C2158 1.327 . S
C2160 C2179 1.429 . S
C2160 H2184 0.950 . S
C2161 C2178 1.574 1_554 S
C2161 C2180 1.368 . S
C2161 H2185 0.949 . S
H2162 C2166 0.949 . S
C2163 C2164 1.349 . S
C2163 C2165 1.327 . S
C2163 H2186 0.950 . S
C2164 C2163 1.349 . S
C2164 C2176 1.349 . S
C2165 C2163 1.327 . S
C2165 C2181 1.429 . S
C2165 H2187 0.950 . S
C2166 H2162 0.949 . S
C2166 C2174 1.574 . S
C2166 C2182 1.368 1_554 S
H2167 C2175 0.950 . S
H2168 C2173 0.950 . S
H2169 C2174 0.949 . S
H2170 C2176 0.950 . S
H2171 C2177 0.950 . S
H2172 C2178 0.949 . S
C2173 H2168 0.950 . S
C2173 C2175 1.327 . S
C2173 C2179 1.429 . S
C2174 C2166 1.574 . S
C2174 H2169 0.949 . S
C2174 C2180 1.368 . S
C2175 C2159 1.349 . S
C2175 H2167 0.950 . S
C2175 C2173 1.327 . S
C2176 C2164 1.349 . S
C2176 H2170 0.950 . S
C2176 C2177 1.327 . S
C2177 H2171 0.950 . S
C2177 C2176 1.327 . S
C2177 C2181 1.429 . S
C2178 C2161 1.574 1_556 S
C2178 H2172 0.949 . S
C2178 C2182 1.368 . S
C2179 C2160 1.429 . S
C2179 C2173 1.429 . S
C2179 C2180 1.523 . S
C2180 C2161 1.368 . S
C2180 C2174 1.368 . S
C2180 C2179 1.523 . S
C2181 C2165 1.429 . S
C2181 C2177 1.429 . S
C2181 C2182 1.523 . S
C2182 C2166 1.368 1_556 S
C2182 C2178 1.368 . S
C2182 C2181 1.523 . S
H2183 C2158 0.950 . S
H2184 C2160 0.950 . S
H2185 C2161 0.949 . S
H2186 C2163 0.950 . S
H2187 C2165 0.950 . S
C2188 C2189 1.349 . S
C2188 C2190 1.327 . S
C2188 H2213 0.950 1_655 S
C2189 C2188 1.349 . S
C2189 C2205 1.349 . S
C2190 C2188 1.327 . S
C2190 C2209 1.429 . S
C2190 H2214 0.950 . S
C2191 C2208 1.574 . S
C2191 C2210 1.368 . S
C2191 H2215 0.949 . S
H2192 C2196 0.949 . S
C2193 C2194 1.349 . S
C2193 C2195 1.327 . S
C2193 H2216 0.950 . S
C2194 C2193 1.349 . S
C2194 C2206 1.349 . S
C2195 C2193 1.327 . S
C2195 C2211 1.429 . S
C2195 H2217 0.950 . S
C2196 H2192 0.949 . S
C2196 C2204 1.574 . S
C2196 C2212 1.368 . S
H2197 C2205 0.950 . S
H2198 C2203 0.950 . S
H2199 C2204 0.949 . S
H2200 C2206 0.950 . S
H2201 C2207 0.950 . S
H2202 C2208 0.949 . S
C2203 H2198 0.950 . S
C2203 C2205 1.327 . S
C2203 C2209 1.429 . S
C2204 C2196 1.574 . S
C2204 H2199 0.949 . S
C2204 C2210 1.368 . S
C2205 C2189 1.349 . S
C2205 H2197 0.950 . S
C2205 C2203 1.327 . S
C2206 C2194 1.349 . S
C2206 H2200 0.950 . S
C2206 C2207 1.327 . S
C2207 H2201 0.950 . S
C2207 C2206 1.327 . S
C2207 C2211 1.429 . S
C2208 C2191 1.574 . S
C2208 H2202 0.949 . S
C2208 C2212 1.368 . S
C2209 C2190 1.429 . S
C2209 C2203 1.429 . S
C2209 C2210 1.523 . S
C2210 C2191 1.368 . S
C2210 C2204 1.368 . S
C2210 C2209 1.523 . S
C2211 C2195 1.429 . S
C2211 C2207 1.429 . S
C2211 C2212 1.523 . S
C2212 C2196 1.368 . S
C2212 C2208 1.368 . S
C2212 C2211 1.523 . S
H2213 C2188 0.950 1_455 S
H2214 C2190 0.950 . S
H2215 C2191 0.949 . S
H2216 C2193 0.950 . S
H2217 C2195 0.950 . S
C2218 C2219 1.349 . S
C2218 C2220 1.327 . S
C2218 H2243 0.950 . S
C2219 C2218 1.349 . S
C2219 C2235 1.349 . S
C2220 C2218 1.327 . S
C2220 C2239 1.429 . S
C2220 H2244 0.950 . S
C2221 C2238 1.574 . S
C2221 C2240 1.368 . S
C2221 H2245 0.949 . S
H2222 C2226 0.949 . S
C2223 C2224 1.349 . S
C2223 C2225 1.327 . S
C2223 H2246 0.950 . S
C2224 C2223 1.349 . S
C2224 C2236 1.349 . S
C2225 C2223 1.327 . S
C2225 C2241 1.429 . S
C2225 H2247 0.950 . S
C2226 H2222 0.949 . S
C2226 C2234 1.574 . S
C2226 C2242 1.368 . S
H2227 C2235 0.950 . S
H2228 C2233 0.950 . S
H2229 C2234 0.949 . S
H2230 C2236 0.950 . S
H2231 C2237 0.950 . S
H2232 C2238 0.949 . S
C2233 H2228 0.950 . S
C2233 C2235 1.327 . S
C2233 C2239 1.429 . S
C2234 C2226 1.574 . S
C2234 H2229 0.949 . S
C2234 C2240 1.368 . S
C2235 C2219 1.349 . S
C2235 H2227 0.950 . S
C2235 C2233 1.327 . S
C2236 C2224 1.349 . S
C2236 H2230 0.950 . S
C2236 C2237 1.327 . S
C2237 H2231 0.950 . S
C2237 C2236 1.327 . S
C2237 C2241 1.429 . S
C2238 C2221 1.574 . S
C2238 H2232 0.949 . S
C2238 C2242 1.368 . S
C2239 C2220 1.429 . S
C2239 C2233 1.429 . S
C2239 C2240 1.523 . S
C2240 C2221 1.368 . S
C2240 C2234 1.368 . S
C2240 C2239 1.523 . S
C2241 C2225 1.429 . S
C2241 C2237 1.429 . S
C2241 C2242 1.523 . S
C2242 C2226 1.368 . S
C2242 C2238 1.368 . S
C2242 C2241 1.523 . S
H2243 C2218 0.950 . S
H2244 C2220 0.950 . S
H2245 C2221 0.949 . S
H2246 C2223 0.950 . S
H2247 C2225 0.950 . S
C2248 C2249 1.349 . S
C2248 C2250 1.327 . S
C2248 H2273 0.950 . S
C2249 C2248 1.349 . S
C2249 C2265 1.349 . S
C2250 C2248 1.327 . S
C2250 C2269 1.429 . S
C2250 H2274 0.950 . S
C2251 C2268 1.574 . S
C2251 C2270 1.368 . S
C2251 H2275 0.949 . S
H2252 C2256 0.949 . S
C2253 C2254 1.349 . S
C2253 C2255 1.327 . S
C2253 H2276 0.950 . S
C2254 C2253 1.349 . S
C2254 C2266 1.349 . S
C2255 C2253 1.327 . S
C2255 C2271 1.429 . S
C2255 H2277 0.950 . S
C2256 H2252 0.949 . S
C2256 C2264 1.574 . S
C2256 C2272 1.368 . S
H2257 C2265 0.950 . S
H2258 C2263 0.950 . S
H2259 C2264 0.949 . S
H2260 C2266 0.950 . S
H2261 C2267 0.950 . S
H2262 C2268 0.949 . S
C2263 H2258 0.950 . S
C2263 C2265 1.327 . S
C2263 C2269 1.429 . S
C2264 C2256 1.574 . S
C2264 H2259 0.949 . S
C2264 C2270 1.368 . S
C2265 C2249 1.349 . S
C2265 H2257 0.950 . S
C2265 C2263 1.327 . S
C2266 C2254 1.349 . S
C2266 H2260 0.950 . S
C2266 C2267 1.327 . S
C2267 H2261 0.950 . S
C2267 C2266 1.327 . S
C2267 C2271 1.429 . S
C2268 C2251 1.574 . S
C2268 H2262 0.949 . S
C2268 C2272 1.368 . S
C2269 C2250 1.429 . S
C2269 C2263 1.429 . S
C2269 C2270 1.523 . S
C2270 C2251 1.368 . S
C2270 C2264 1.368 . S
C2270 C2269 1.523 . S
C2271 C2255 1.429 . S
C2271 C2267 1.429 . S
C2271 C2272 1.523 . S
C2272 C2256 1.368 . S
C2272 C2268 1.368 . S
C2272 C2271 1.523 . S
H2273 C2248 0.950 . S
H2274 C2250 0.950 . S
H2275 C2251 0.949 . S
H2276 C2253 0.950 . S
H2277 C2255 0.950 . S
C2278 C2279 1.349 . S
C2278 C2280 1.327 . S
C2278 H2303 0.950 . S
C2279 C2278 1.349 . S
C2279 C2295 1.349 . S
C2280 C2278 1.327 . S
C2280 C2299 1.429 . S
C2280 H2304 0.950 . S
C2281 C2298 1.574 1_556 S
C2281 C2300 1.368 . S
C2281 H2305 0.949 . S
H2282 C2286 0.949 . S
C2283 C2284 1.349 . S
C2283 C2285 1.327 . S
C2283 H2306 0.950 . S
C2284 C2283 1.349 . S
C2284 C2296 1.349 . S
C2285 C2283 1.327 . S
C2285 C2301 1.429 . S
C2285 H2307 0.950 . S
C2286 H2282 0.949 . S
C2286 C2294 1.574 . S
C2286 C2302 1.368 1_556 S
H2287 C2295 0.950 . S
H2288 C2293 0.950 . S
H2289 C2294 0.949 . S
H2290 C2296 0.950 . S
H2291 C2297 0.950 . S
H2292 C2298 0.949 . S
C2293 H2288 0.950 . S
C2293 C2295 1.327 . S
C2293 C2299 1.429 . S
C2294 C2286 1.574 . S
C2294 H2289 0.949 . S
C2294 C2300 1.368 . S
C2295 C2279 1.349 . S
C2295 H2287 0.950 . S
C2295 C2293 1.327 . S
C2296 C2284 1.349 . S
C2296 H2290 0.950 . S
C2296 C2297 1.327 . S
C2297 H2291 0.950 . S
C2297 C2296 1.327 . S
C2297 C2301 1.429 . S
C2298 C2281 1.574 1_554 S
C2298 H2292 0.949 . S
C2298 C2302 1.368 . S
C2299 C2280 1.429 . S
C2299 C2293 1.429 . S
C2299 C2300 1.523 . S
C2300 C2281 1.368 . S
C2300 C2294 1.368 . S
C2300 C2299 1.523 . S
C2301 C2285 1.429 . S
C2301 C2297 1.429 . S
C2301 C2302 1.523 . S
C2302 C2286 1.368 1_554 S
C2302 C2298 1.368 . S
C2302 C2301 1.523 . S
H2303 C2278 0.950 . S
H2304 C2280 0.950 . S
H2305 C2281 0.949 . S
H2306 C2283 0.950 . S
H2307 C2285 0.950 . S
C2308 C2309 1.349 . S
C2308 C2310 1.327 . S
C2308 H2333 0.950 . S
C2309 C2308 1.349 . S
C2309 C2325 1.349 . S
C2310 C2308 1.327 . S
C2310 C2329 1.429 . S
C2310 H2334 0.950 . S
C2311 C2328 1.574 . S
C2311 C2330 1.368 . S
C2311 H2335 0.949 . S
H2312 C2316 0.949 . S
C2313 C2314 1.349 . S
C2313 C2315 1.327 . S
C2313 H2336 0.950 . S
C2314 C2313 1.349 . S
C2314 C2326 1.349 . S
C2315 C2313 1.327 . S
C2315 C2331 1.429 . S
C2315 H2337 0.950 . S
C2316 H2312 0.949 . S
C2316 C2324 1.574 . S
C2316 C2332 1.368 . S
H2317 C2325 0.950 . S
H2318 C2323 0.950 . S
H2319 C2324 0.949 . S
H2320 C2326 0.950 . S
H2321 C2327 0.950 . S
H2322 C2328 0.949 . S
C2323 H2318 0.950 . S
C2323 C2325 1.327 . S
C2323 C2329 1.429 . S
C2324 C2316 1.574 . S
C2324 H2319 0.949 . S
C2324 C2330 1.368 . S
C2325 C2309 1.349 . S
C2325 H2317 0.950 . S
C2325 C2323 1.327 . S
C2326 C2314 1.349 . S
C2326 H2320 0.950 . S
C2326 C2327 1.327 . S
C2327 H2321 0.950 . S
C2327 C2326 1.327 . S
C2327 C2331 1.429 . S
C2328 C2311 1.574 . S
C2328 H2322 0.949 . S
C2328 C2332 1.368 . S
C2329 C2310 1.429 . S
C2329 C2323 1.429 . S
C2329 C2330 1.523 . S
C2330 C2311 1.368 . S
C2330 C2324 1.368 . S
C2330 C2329 1.523 . S
C2331 C2315 1.429 . S
C2331 C2327 1.429 . S
C2331 C2332 1.523 . S
C2332 C2316 1.368 . S
C2332 C2328 1.368 . S
C2332 C2331 1.523 . S
H2333 C2308 0.950 . S
H2334 C2310 0.950 . S
H2335 C2311 0.949 . S
H2336 C2313 0.950 . S
H2337 C2315 0.950 . S
C2338 C2339 1.349 . S
C2338 C2340 1.327 . S
C2338 H2363 0.950 . S
C2339 C2338 1.349 . S
C2339 C2355 1.349 . S
C2340 C2338 1.327 . S
C2340 C2359 1.429 . S
C2340 H2364 0.950 . S
C2341 C2358 1.574 . S
C2341 C2360 1.368 . S
C2341 H2365 0.949 . S
H2342 C2346 0.949 . S
C2343 C2344 1.349 . S
C2343 C2345 1.327 . S
C2343 H2366 0.950 . S
C2344 C2343 1.349 . S
C2344 C2356 1.349 . S
C2345 C2343 1.327 . S
C2345 C2361 1.429 . S
C2345 H2367 0.950 . S
C2346 H2342 0.949 . S
C2346 C2354 1.574 . S
C2346 C2362 1.368 . S
H2347 C2355 0.950 . S
H2348 C2353 0.950 . S
H2349 C2354 0.949 . S
H2350 C2356 0.950 . S
H2351 C2357 0.950 . S
H2352 C2358 0.949 . S
C2353 H2348 0.950 . S
C2353 C2355 1.327 . S
C2353 C2359 1.429 . S
C2354 C2346 1.574 . S
C2354 H2349 0.949 . S
C2354 C2360 1.368 . S
C2355 C2339 1.349 . S
C2355 H2347 0.950 . S
C2355 C2353 1.327 . S
C2356 C2344 1.349 . S
C2356 H2350 0.950 . S
C2356 C2357 1.327 . S
C2357 H2351 0.950 . S
C2357 C2356 1.327 . S
C2357 C2361 1.429 . S
C2358 C2341 1.574 . S
C2358 H2352 0.949 . S
C2358 C2362 1.368 . S
C2359 C2340 1.429 . S
C2359 C2353 1.429 . S
C2359 C2360 1.523 . S
C2360 C2341 1.368 . S
C2360 C2354 1.368 . S
C2360 C2359 1.523 . S
C2361 C2345 1.429 . S
C2361 C2357 1.429 . S
C2361 C2362 1.523 . S
C2362 C2346 1.368 . S
C2362 C2358 1.368 . S
C2362 C2361 1.523 . S
H2363 C2338 0.950 . S
H2364 C2340 0.950 . S
H2365 C2341 0.949 . S
H2366 C2343 0.950 . S
H2367 C2345 0.950 . S
C2368 C2369 1.349 . S
C2368 C2370 1.327 . S
C2368 H2393 0.950 . S
C2369 C2368 1.349 . S
C2369 C2385 1.349 . S
C2370 C2368 1.327 . S
C2370 C2389 1.429 . S
C2370 H2394 0.950 . S
C2371 C2388 1.574 . S
C2371 C2390 1.368 . S
C2371 H2395 0.949 . S
H2372 C2376 0.949 . S
C2373 C2374 1.349 . S
C2373 C2375 1.327 . S
C2373 H2396 0.950 . S
C2374 C2373 1.349 . S
C2374 C2386 1.349 . S
C2375 C2373 1.327 . S
C2375 C2391 1.429 . S
C2375 H2397 0.950 . S
C2376 H2372 0.949 . S
C2376 C2384 1.574 . S
C2376 C2392 1.368 . S
H2377 C2385 0.950 . S
H2378 C2383 0.950 . S
H2379 C2384 0.949 . S
H2380 C2386 0.950 . S
H2381 C2387 0.950 . S
H2382 C2388 0.949 . S
C2383 H2378 0.950 . S
C2383 C2385 1.327 . S
C2383 C2389 1.429 . S
C2384 C2376 1.574 . S
C2384 H2379 0.949 . S
C2384 C2390 1.368 . S
C2385 C2369 1.349 . S
C2385 H2377 0.950 . S
C2385 C2383 1.327 . S
C2386 C2374 1.349 . S
C2386 H2380 0.950 . S
C2386 C2387 1.327 . S
C2387 H2381 0.950 . S
C2387 C2386 1.327 . S
C2387 C2391 1.429 . S
C2388 C2371 1.574 . S
C2388 H2382 0.949 . S
C2388 C2392 1.368 . S
C2389 C2370 1.429 . S
C2389 C2383 1.429 . S
C2389 C2390 1.523 . S
C2390 C2371 1.368 . S
C2390 C2384 1.368 . S
C2390 C2389 1.523 . S
C2391 C2375 1.429 . S
C2391 C2387 1.429 . S
C2391 C2392 1.523 . S
C2392 C2376 1.368 . S
C2392 C2388 1.368 . S
C2392 C2391 1.523 . S
H2393 C2368 0.950 . S
H2394 C2370 0.950 . S
H2395 C2371 0.949 . S
H2396 C2373 0.950 . S
H2397 C2375 0.950 . S
C2398 C2399 1.349 . S
C2398 C2400 1.327 . S
C2398 H2423 0.950 . S
C2399 C2398 1.349 . S
C2399 C2415 1.349 . S
C2400 C2398 1.327 . S
C2400 C2419 1.429 . S
C2400 H2424 0.950 . S
C2401 C2418 1.574 . S
C2401 C2420 1.368 . S
C2401 H2425 0.949 . S
H2402 C2406 0.949 . S
C2403 C2404 1.349 . S
C2403 C2405 1.327 . S
C2403 H2426 0.950 . S
C2404 C2403 1.349 . S
C2404 C2416 1.349 . S
C2405 C2403 1.327 . S
C2405 C2421 1.429 . S
C2405 H2427 0.950 . S
C2406 H2402 0.949 . S
C2406 C2414 1.574 . S
C2406 C2422 1.368 . S
H2407 C2415 0.950 . S
H2408 C2413 0.950 . S
H2409 C2414 0.949 . S
H2410 C2416 0.950 . S
H2411 C2417 0.950 . S
H2412 C2418 0.949 . S
C2413 H2408 0.950 . S
C2413 C2415 1.327 . S
C2413 C2419 1.429 . S
C2414 C2406 1.574 . S
C2414 H2409 0.949 . S
C2414 C2420 1.368 . S
C2415 C2399 1.349 . S
C2415 H2407 0.950 . S
C2415 C2413 1.327 . S
C2416 C2404 1.349 . S
C2416 H2410 0.950 . S
C2416 C2417 1.327 . S
C2417 H2411 0.950 . S
C2417 C2416 1.327 . S
C2417 C2421 1.429 . S
C2418 C2401 1.574 . S
C2418 H2412 0.949 . S
C2418 C2422 1.368 . S
C2419 C2400 1.429 . S
C2419 C2413 1.429 . S
C2419 C2420 1.523 . S
C2420 C2401 1.368 . S
C2420 C2414 1.368 . S
C2420 C2419 1.523 . S
C2421 C2405 1.429 . S
C2421 C2417 1.429 . S
C2421 C2422 1.523 . S
C2422 C2406 1.368 . S
C2422 C2418 1.368 . S
C2422 C2421 1.523 . S
H2423 C2398 0.950 . S
H2424 C2400 0.950 . S
H2425 C2401 0.949 . S
H2426 C2403 0.950 . S
H2427 C2405 0.950 . S
C2428 C2429 1.349 . S
C2428 C2430 1.327 . S
C2428 H2453 0.950 . S
C2429 C2428 1.349 . S
C2429 C2445 1.349 . S
C2430 C2428 1.327 . S
C2430 C2449 1.429 . S
C2430 H2454 0.950 . S
C2431 C2448 1.574 . S
C2431 C2450 1.368 . S
C2431 H2455 0.949 . S
H2432 C2436 0.949 . S
C2433 C2434 1.349 . S
C2433 C2435 1.327 . S
C2433 H2456 0.950 . S
C2434 C2433 1.349 . S
C2434 C2446 1.349 . S
C2435 C2433 1.327 . S
C2435 C2451 1.429 . S
C2435 H2457 0.950 . S
C2436 H2432 0.949 . S
C2436 C2444 1.574 . S
C2436 C2452 1.368 . S
H2437 C2445 0.950 . S
H2438 C2443 0.950 . S
H2439 C2444 0.949 . S
H2440 C2446 0.950 . S
H2441 C2447 0.950 . S
H2442 C2448 0.949 . S
C2443 H2438 0.950 . S
C2443 C2445 1.327 . S
C2443 C2449 1.429 . S
C2444 C2436 1.574 . S
C2444 H2439 0.949 . S
C2444 C2450 1.368 . S
C2445 C2429 1.349 . S
C2445 H2437 0.950 . S
C2445 C2443 1.327 . S
C2446 C2434 1.349 . S
C2446 H2440 0.950 . S
C2446 C2447 1.327 . S
C2447 H2441 0.950 . S
C2447 C2446 1.327 . S
C2447 C2451 1.429 . S
C2448 C2431 1.574 . S
C2448 H2442 0.949 . S
C2448 C2452 1.368 . S
C2449 C2430 1.429 . S
C2449 C2443 1.429 . S
C2449 C2450 1.523 . S
C2450 C2431 1.368 . S
C2450 C2444 1.368 . S
C2450 C2449 1.523 . S
C2451 C2435 1.429 . S
C2451 C2447 1.429 . S
C2451 C2452 1.523 . S
C2452 C2436 1.368 . S
C2452 C2448 1.368 . S
C2452 C2451 1.523 . S
H2453 C2428 0.950 . S
H2454 C2430 0.950 . S
H2455 C2431 0.949 . S
H2456 C2433 0.950 . S
H2457 C2435 0.950 . S
C2458 C2459 1.349 . S
C2458 C2460 1.327 . S
C2458 H2483 0.950 . S
C2459 C2458 1.349 . S
C2459 C2475 1.349 . S
C2460 C2458 1.327 . S
C2460 C2479 1.429 . S
C2460 H2484 0.950 . S
C2461 C2478 1.574 . S
C2461 C2480 1.368 . S
C2461 H2485 0.949 . S
H2462 C2466 0.949 . S
C2463 C2464 1.349 . S
C2463 C2465 1.327 . S
C2463 H2486 0.950 . S
C2464 C2463 1.349 . S
C2464 C2476 1.349 . S
C2465 C2463 1.327 . S
C2465 C2481 1.429 . S
C2465 H2487 0.950 . S
C2466 H2462 0.949 . S
C2466 C2474 1.574 . S
C2466 C2482 1.368 . S
H2467 C2475 0.950 . S
H2468 C2473 0.950 . S
H2469 C2474 0.949 . S
H2470 C2476 0.950 . S
H2471 C2477 0.950 . S
H2472 C2478 0.949 . S
C2473 H2468 0.950 . S
C2473 C2475 1.327 . S
C2473 C2479 1.429 . S
C2474 C2466 1.574 . S
C2474 H2469 0.949 . S
C2474 C2480 1.368 . S
C2475 C2459 1.349 . S
C2475 H2467 0.950 . S
C2475 C2473 1.327 . S
C2476 C2464 1.349 . S
C2476 H2470 0.950 . S
C2476 C2477 1.327 . S
C2477 H2471 0.950 . S
C2477 C2476 1.327 . S
C2477 C2481 1.429 . S
C2478 C2461 1.574 . S
C2478 H2472 0.949 . S
C2478 C2482 1.368 . S
C2479 C2460 1.429 . S
C2479 C2473 1.429 . S
C2479 C2480 1.523 . S
C2480 C2461 1.368 . S
C2480 C2474 1.368 . S
C2480 C2479 1.523 . S
C2481 C2465 1.429 . S
C2481 C2477 1.429 . S
C2481 C2482 1.523 . S
C2482 C2466 1.368 . S
C2482 C2478 1.368 . S
C2482 C2481 1.523 . S
H2483 C2458 0.950 . S
H2484 C2460 0.950 . S
H2485 C2461 0.949 . S
H2486 C2463 0.950 . S
H2487 C2465 0.950 . S
C2488 C2489 1.349 . S
C2488 C2490 1.327 . S
C2488 H2513 0.950 . S
C2489 C2488 1.349 . S
C2489 C2505 1.349 . S
C2490 C2488 1.327 . S
C2490 C2509 1.429 . S
C2490 H2514 0.950 . S
C2491 C2508 1.574 . S
C2491 C2510 1.368 . S
C2491 H2515 0.949 . S
H2492 C2496 0.949 . S
C2493 C2494 1.349 . S
C2493 C2495 1.327 . S
C2493 H2516 0.950 . S
C2494 C2493 1.349 . S
C2494 C2506 1.349 . S
C2495 C2493 1.327 . S
C2495 C2511 1.429 . S
C2495 H2517 0.950 . S
C2496 H2492 0.949 . S
C2496 C2504 1.574 . S
C2496 C2512 1.368 . S
H2497 C2505 0.950 . S
H2498 C2503 0.950 . S
H2499 C2504 0.949 . S
H2500 C2506 0.950 . S
H2501 C2507 0.950 . S
H2502 C2508 0.949 . S
C2503 H2498 0.950 . S
C2503 C2505 1.327 . S
C2503 C2509 1.429 . S
C2504 C2496 1.574 . S
C2504 H2499 0.949 . S
C2504 C2510 1.368 . S
C2505 C2489 1.349 . S
C2505 H2497 0.950 . S
C2505 C2503 1.327 . S
C2506 C2494 1.349 . S
C2506 H2500 0.950 . S
C2506 C2507 1.327 . S
C2507 H2501 0.950 . S
C2507 C2506 1.327 . S
C2507 C2511 1.429 . S
C2508 C2491 1.574 . S
C2508 H2502 0.949 . S
C2508 C2512 1.368 . S
C2509 C2490 1.429 . S
C2509 C2503 1.429 . S
C2509 C2510 1.523 . S
C2510 C2491 1.368 . S
C2510 C2504 1.368 . S
C2510 C2509 1.523 . S
C2511 C2495 1.429 . S
C2511 C2507 1.429 . S
C2511 C2512 1.523 . S
C2512 C2496 1.368 . S
C2512 C2508 1.368 . S
C2512 C2511 1.523 . S
H2513 C2488 0.950 . S
H2514 C2490 0.950 . S
H2515 C2491 0.949 . S
H2516 C2493 0.950 . S
H2517 C2495 0.950 . S
C2518 C2519 1.349 . S
C2518 C2520 1.327 . S
C2518 H2543 0.950 . S
C2519 C2518 1.349 . S
C2519 C2535 1.349 . S
C2520 C2518 1.327 . S
C2520 C2539 1.429 . S
C2520 H2544 0.950 . S
C2521 C2538 1.574 . S
C2521 C2540 1.368 . S
C2521 H2545 0.949 . S
H2522 C2526 0.949 . S
C2523 C2524 1.349 . S
C2523 C2525 1.327 . S
C2523 H2546 0.950 . S
C2524 C2523 1.349 . S
C2524 C2536 1.349 . S
C2525 C2523 1.327 . S
C2525 C2541 1.429 . S
C2525 H2547 0.950 . S
C2526 H2522 0.949 . S
C2526 C2534 1.574 . S
C2526 C2542 1.368 . S
H2527 C2535 0.950 . S
H2528 C2533 0.950 . S
H2529 C2534 0.949 . S
H2530 C2536 0.950 . S
H2531 C2537 0.950 . S
H2532 C2538 0.949 . S
C2533 H2528 0.950 . S
C2533 C2535 1.327 . S
C2533 C2539 1.429 . S
C2534 C2526 1.574 . S
C2534 H2529 0.949 . S
C2534 C2540 1.368 . S
C2535 C2519 1.349 . S
C2535 H2527 0.950 . S
C2535 C2533 1.327 . S
C2536 C2524 1.349 . S
C2536 H2530 0.950 . S
C2536 C2537 1.327 . S
C2537 H2531 0.950 . S
C2537 C2536 1.327 . S
C2537 C2541 1.429 . S
C2538 C2521 1.574 . S
C2538 H2532 0.949 . S
C2538 C2542 1.368 . S
C2539 C2520 1.429 . S
C2539 C2533 1.429 . S
C2539 C2540 1.523 . S
C2540 C2521 1.368 . S
C2540 C2534 1.368 . S
C2540 C2539 1.523 . S
C2541 C2525 1.429 . S
C2541 C2537 1.429 . S
C2541 C2542 1.523 . S
C2542 C2526 1.368 . S
C2542 C2538 1.368 . S
C2542 C2541 1.523 . S
H2543 C2518 0.950 . S
H2544 C2520 0.950 . S
H2545 C2521 0.949 . S
H2546 C2523 0.950 . S
H2547 C2525 0.950 . S
C2548 C2549 1.349 . S
C2548 C2550 1.327 . S
C2548 H2573 0.950 . S
C2549 C2548 1.349 . S
C2549 C2565 1.349 . S
C2550 C2548 1.327 . S
C2550 C2569 1.429 . S
C2550 H2574 0.950 . S
C2551 C2568 1.574 . S
C2551 C2570 1.368 . S
C2551 H2575 0.949 . S
H2552 C2556 0.949 . S
C2553 C2554 1.349 . S
C2553 C2555 1.327 . S
C2553 H2576 0.950 . S
C2554 C2553 1.349 . S
C2554 C2566 1.349 . S
C2555 C2553 1.327 . S
C2555 C2571 1.429 . S
C2555 H2577 0.950 . S
C2556 H2552 0.949 . S
C2556 C2564 1.574 . S
C2556 C2572 1.368 . S
H2557 C2565 0.950 . S
H2558 C2563 0.950 . S
H2559 C2564 0.949 . S
H2560 C2566 0.950 . S
H2561 C2567 0.950 . S
H2562 C2568 0.949 . S
C2563 H2558 0.950 . S
C2563 C2565 1.327 . S
C2563 C2569 1.429 . S
C2564 C2556 1.574 . S
C2564 H2559 0.949 . S
C2564 C2570 1.368 . S
C2565 C2549 1.349 . S
C2565 H2557 0.950 . S
C2565 C2563 1.327 . S
C2566 C2554 1.349 . S
C2566 H2560 0.950 . S
C2566 C2567 1.327 . S
C2567 H2561 0.950 . S
C2567 C2566 1.327 . S
C2567 C2571 1.429 . S
C2568 C2551 1.574 . S
C2568 H2562 0.949 . S
C2568 C2572 1.368 . S
C2569 C2550 1.429 . S
C2569 C2563 1.429 . S
C2569 C2570 1.523 . S
C2570 C2551 1.368 . S
C2570 C2564 1.368 . S
C2570 C2569 1.523 . S
C2571 C2555 1.429 . S
C2571 C2567 1.429 . S
C2571 C2572 1.523 . S
C2572 C2556 1.368 . S
C2572 C2568 1.368 . S
C2572 C2571 1.523 . S
H2573 C2548 0.950 . S
H2574 C2550 0.950 . S
H2575 C2551 0.949 . S
H2576 C2553 0.950 . S
H2577 C2555 0.950 . S
C2578 C2579 1.349 . S
C2578 C2580 1.327 . S
C2578 H2603 0.950 . S
C2579 C2578 1.349 . S
C2579 C2595 1.349 . S
C2580 C2578 1.327 . S
C2580 C2599 1.429 . S
C2580 H2604 0.950 . S
C2581 C2598 1.574 . S
C2581 C2600 1.368 . S
C2581 H2605 0.949 . S
H2582 C2586 0.949 . S
C2583 C2584 1.349 . S
C2583 C2585 1.327 . S
C2583 H2606 0.950 . S
C2584 C2583 1.349 . S
C2584 C2596 1.349 . S
C2585 C2583 1.327 . S
C2585 C2601 1.429 . S
C2585 H2607 0.950 . S
C2586 H2582 0.949 . S
C2586 C2594 1.574 . S
C2586 C2602 1.368 . S
H2587 C2595 0.950 . S
H2588 C2593 0.950 . S
H2589 C2594 0.949 . S
H2590 C2596 0.950 . S
H2591 C2597 0.950 . S
H2592 C2598 0.949 . S
C2593 H2588 0.950 . S
C2593 C2595 1.327 . S
C2593 C2599 1.429 . S
C2594 C2586 1.574 . S
C2594 H2589 0.949 . S
C2594 C2600 1.368 . S
C2595 C2579 1.349 . S
C2595 H2587 0.950 . S
C2595 C2593 1.327 . S
C2596 C2584 1.349 . S
C2596 H2590 0.950 . S
C2596 C2597 1.327 . S
C2597 H2591 0.950 . S
C2597 C2596 1.327 . S
C2597 C2601 1.429 . S
C2598 C2581 1.574 . S
C2598 H2592 0.949 . S
C2598 C2602 1.368 . S
C2599 C2580 1.429 . S
C2599 C2593 1.429 . S
C2599 C2600 1.523 . S
C2600 C2581 1.368 . S
C2600 C2594 1.368 . S
C2600 C2599 1.523 . S
C2601 C2585 1.429 . S
C2601 C2597 1.429 . S
C2601 C2602 1.523 . S
C2602 C2586 1.368 . S
C2602 C2598 1.368 . S
C2602 C2601 1.523 . S
H2603 C2578 0.950 . S
H2604 C2580 0.950 . S
H2605 C2581 0.949 . S
H2606 C2583 0.950 . S
H2607 C2585 0.950 . S
C2608 C2609 1.349 . S
C2608 C2610 1.327 . S
C2608 H2633 0.950 . S
C2609 C2608 1.349 . S
C2609 C2625 1.349 . S
C2610 C2608 1.327 . S
C2610 C2629 1.429 . S
C2610 H2634 0.950 . S
C2611 C2628 1.574 . S
C2611 C2630 1.368 . S
C2611 H2635 0.949 . S
H2612 C2616 0.949 . S
C2613 C2614 1.349 . S
C2613 C2615 1.327 . S
C2613 H2636 0.950 . S
C2614 C2613 1.349 . S
C2614 C2626 1.349 . S
C2615 C2613 1.327 . S
C2615 C2631 1.429 . S
C2615 H2637 0.950 . S
C2616 H2612 0.949 . S
C2616 C2624 1.574 . S
C2616 C2632 1.368 . S
H2617 C2625 0.950 . S
H2618 C2623 0.950 . S
H2619 C2624 0.949 . S
H2620 C2626 0.950 . S
H2621 C2627 0.950 . S
H2622 C2628 0.949 . S
C2623 H2618 0.950 . S
C2623 C2625 1.327 . S
C2623 C2629 1.429 . S
C2624 C2616 1.574 . S
C2624 H2619 0.949 . S
C2624 C2630 1.368 . S
C2625 C2609 1.349 . S
C2625 H2617 0.950 . S
C2625 C2623 1.327 . S
C2626 C2614 1.349 . S
C2626 H2620 0.950 . S
C2626 C2627 1.327 . S
C2627 H2621 0.950 . S
C2627 C2626 1.327 . S
C2627 C2631 1.429 . S
C2628 C2611 1.574 . S
C2628 H2622 0.949 . S
C2628 C2632 1.368 . S
C2629 C2610 1.429 . S
C2629 C2623 1.429 . S
C2629 C2630 1.523 . S
C2630 C2611 1.368 . S
C2630 C2624 1.368 . S
C2630 C2629 1.523 . S
C2631 C2615 1.429 . S
C2631 C2627 1.429 . S
C2631 C2632 1.523 . S
C2632 C2616 1.368 . S
C2632 C2628 1.368 . S
C2632 C2631 1.523 . S
H2633 C2608 0.950 . S
H2634 C2610 0.950 . S
H2635 C2611 0.949 . S
H2636 C2613 0.950 . S
H2637 C2615 0.950 . S
C2638 C2639 1.349 . S
C2638 C2640 1.327 . S
C2638 H2663 0.950 . S
C2639 C2638 1.349 . S
C2639 C2655 1.349 . S
C2640 C2638 1.327 . S
C2640 C2659 1.429 . S
C2640 H2664 0.950 . S
C2641 C2658 1.574 . S
C2641 C2660 1.368 . S
C2641 H2665 0.949 . S
H2642 C2646 0.949 . S
C2643 C2644 1.349 . S
C2643 C2645 1.327 . S
C2643 H2666 0.950 . S
C2644 C2643 1.349 . S
C2644 C2656 1.349 . S
C2645 C2643 1.327 . S
C2645 C2661 1.429 . S
C2645 H2667 0.950 . S
C2646 H2642 0.949 . S
C2646 C2654 1.574 . S
C2646 C2662 1.368 . S
H2647 C2655 0.950 . S
H2648 C2653 0.950 . S
H2649 C2654 0.949 . S
H2650 C2656 0.950 . S
H2651 C2657 0.950 . S
H2652 C2658 0.949 . S
C2653 H2648 0.950 . S
C2653 C2655 1.327 . S
C2653 C2659 1.429 . S
C2654 C2646 1.574 . S
C2654 H2649 0.949 . S
C2654 C2660 1.368 . S
C2655 C2639 1.349 . S
C2655 H2647 0.950 . S
C2655 C2653 1.327 . S
C2656 C2644 1.349 . S
C2656 H2650 0.950 . S
C2656 C2657 1.327 . S
C2657 H2651 0.950 . S
C2657 C2656 1.327 . S
C2657 C2661 1.429 . S
C2658 C2641 1.574 . S
C2658 H2652 0.949 . S
C2658 C2662 1.368 . S
C2659 C2640 1.429 . S
C2659 C2653 1.429 . S
C2659 C2660 1.523 . S
C2660 C2641 1.368 . S
C2660 C2654 1.368 . S
C2660 C2659 1.523 . S
C2661 C2645 1.429 . S
C2661 C2657 1.429 . S
C2661 C2662 1.523 . S
C2662 C2646 1.368 . S
C2662 C2658 1.368 . S
C2662 C2661 1.523 . S
H2663 C2638 0.950 . S
H2664 C2640 0.950 . S
H2665 C2641 0.949 . S
H2666 C2643 0.950 . S
H2667 C2645 0.950 . S
C2668 C2669 1.349 . S
C2668 C2670 1.327 . S
C2668 H2693 0.950 . S
C2669 C2668 1.349 . S
C2669 C2685 1.349 . S
C2670 C2668 1.327 . S
C2670 C2689 1.429 . S
C2670 H2694 0.950 . S
C2671 C2688 1.574 . S
C2671 C2690 1.368 . S
C2671 H2695 0.949 . S
H2672 C2676 0.949 . S
C2673 C2674 1.349 . S
C2673 C2675 1.327 . S
C2673 H2696 0.950 . S
C2674 C2673 1.349 . S
C2674 C2686 1.349 . S
C2675 C2673 1.327 . S
C2675 C2691 1.429 . S
C2675 H2697 0.950 . S
C2676 H2672 0.949 . S
C2676 C2684 1.574 . S
C2676 C2692 1.368 . S
H2677 C2685 0.950 . S
H2678 C2683 0.950 . S
H2679 C2684 0.949 . S
H2680 C2686 0.950 . S
H2681 C2687 0.950 . S
H2682 C2688 0.949 . S
C2683 H2678 0.950 . S
C2683 C2685 1.327 . S
C2683 C2689 1.429 . S
C2684 C2676 1.574 . S
C2684 H2679 0.949 . S
C2684 C2690 1.368 . S
C2685 C2669 1.349 . S
C2685 H2677 0.950 . S
C2685 C2683 1.327 . S
C2686 C2674 1.349 . S
C2686 H2680 0.950 . S
C2686 C2687 1.327 . S
C2687 H2681 0.950 . S
C2687 C2686 1.327 . S
C2687 C2691 1.429 . S
C2688 C2671 1.574 . S
C2688 H2682 0.949 . S
C2688 C2692 1.368 . S
C2689 C2670 1.429 . S
C2689 C2683 1.429 . S
C2689 C2690 1.523 . S
C2690 C2671 1.368 . S
C2690 C2684 1.368 . S
C2690 C2689 1.523 . S
C2691 C2675 1.429 . S
C2691 C2687 1.429 . S
C2691 C2692 1.523 . S
C2692 C2676 1.368 . S
C2692 C2688 1.368 . S
C2692 C2691 1.523 . S
H2693 C2668 0.950 . S
H2694 C2670 0.950 . S
H2695 C2671 0.949 . S
H2696 C2673 0.950 . S
H2697 C2675 0.950 . S
C2698 C2699 1.349 . S
C2698 C2700 1.327 . S
C2698 H2723 0.950 . S
C2699 C2698 1.349 . S
C2699 C2715 1.349 . S
C2700 C2698 1.327 . S
C2700 C2719 1.429 . S
C2700 H2724 0.950 . S
C2701 C2718 1.574 . S
C2701 C2720 1.368 . S
C2701 H2725 0.949 . S
H2702 C2706 0.949 . S
C2703 C2704 1.349 . S
C2703 C2705 1.327 . S
C2703 H2726 0.950 . S
C2704 C2703 1.349 . S
C2704 C2716 1.349 . S
C2705 C2703 1.327 . S
C2705 C2721 1.429 . S
C2705 H2727 0.950 . S
C2706 H2702 0.949 . S
C2706 C2714 1.574 . S
C2706 C2722 1.368 . S
H2707 C2715 0.950 . S
H2708 C2713 0.950 . S
H2709 C2714 0.949 . S
H2710 C2716 0.950 . S
H2711 C2717 0.950 . S
H2712 C2718 0.949 . S
C2713 H2708 0.950 . S
C2713 C2715 1.327 . S
C2713 C2719 1.429 . S
C2714 C2706 1.574 . S
C2714 H2709 0.949 . S
C2714 C2720 1.368 . S
C2715 C2699 1.349 . S
C2715 H2707 0.950 . S
C2715 C2713 1.327 . S
C2716 C2704 1.349 . S
C2716 H2710 0.950 . S
C2716 C2717 1.327 . S
C2717 H2711 0.950 . S
C2717 C2716 1.327 . S
C2717 C2721 1.429 . S
C2718 C2701 1.574 . S
C2718 H2712 0.949 . S
C2718 C2722 1.368 . S
C2719 C2700 1.429 . S
C2719 C2713 1.429 . S
C2719 C2720 1.523 . S
C2720 C2701 1.368 . S
C2720 C2714 1.368 . S
C2720 C2719 1.523 . S
C2721 C2705 1.429 . S
C2721 C2717 1.429 . S
C2721 C2722 1.523 . S
C2722 C2706 1.368 . S
C2722 C2718 1.368 . S
C2722 C2721 1.523 . S
H2723 C2698 0.950 . S
H2724 C2700 0.950 . S
H2725 C2701 0.949 . S
H2726 C2703 0.950 . S
H2727 C2705 0.950 . S
C2728 C2729 1.349 . S
C2728 C2730 1.327 . S
C2728 H2753 0.950 . S
C2729 C2728 1.349 . S
C2729 C2745 1.349 . S
C2730 C2728 1.327 . S
C2730 C2749 1.429 . S
C2730 H2754 0.950 . S
C2731 C2748 1.574 . S
C2731 C2750 1.368 . S
C2731 H2755 0.949 . S
H2732 C2736 0.949 . S
C2733 C2734 1.349 . S
C2733 C2735 1.327 . S
C2733 H2756 0.950 . S
C2734 C2733 1.349 . S
C2734 C2746 1.349 . S
C2735 C2733 1.327 . S
C2735 C2751 1.429 . S
C2735 H2757 0.950 . S
C2736 H2732 0.949 . S
C2736 C2744 1.574 . S
C2736 C2752 1.368 . S
H2737 C2745 0.950 . S
H2738 C2743 0.950 . S
H2739 C2744 0.949 . S
H2740 C2746 0.950 . S
H2741 C2747 0.950 . S
H2742 C2748 0.949 . S
C2743 H2738 0.950 . S
C2743 C2745 1.327 . S
C2743 C2749 1.429 . S
C2744 C2736 1.574 . S
C2744 H2739 0.949 . S
C2744 C2750 1.368 . S
C2745 C2729 1.349 . S
C2745 H2737 0.950 . S
C2745 C2743 1.327 . S
C2746 C2734 1.349 . S
C2746 H2740 0.950 . S
C2746 C2747 1.327 . S
C2747 H2741 0.950 . S
C2747 C2746 1.327 . S
C2747 C2751 1.429 . S
C2748 C2731 1.574 . S
C2748 H2742 0.949 . S
C2748 C2752 1.368 . S
C2749 C2730 1.429 . S
C2749 C2743 1.429 . S
C2749 C2750 1.523 . S
C2750 C2731 1.368 . S
C2750 C2744 1.368 . S
C2750 C2749 1.523 . S
C2751 C2735 1.429 . S
C2751 C2747 1.429 . S
C2751 C2752 1.523 . S
C2752 C2736 1.368 . S
C2752 C2748 1.368 . S
C2752 C2751 1.523 . S
H2753 C2728 0.950 . S
H2754 C2730 0.950 . S
H2755 C2731 0.949 . S
H2756 C2733 0.950 . S
H2757 C2735 0.950 . S
C2758 C2759 1.349 . S
C2758 C2760 1.327 . S
C2758 H2783 0.950 . S
C2759 C2758 1.349 . S
C2759 C2775 1.349 . S
C2760 C2758 1.327 . S
C2760 C2779 1.429 . S
C2760 H2784 0.950 . S
C2761 C2778 1.574 . S
C2761 C2780 1.368 . S
C2761 H2785 0.949 . S
H2762 C2766 0.949 . S
C2763 C2764 1.349 . S
C2763 C2765 1.327 . S
C2763 H2786 0.950 . S
C2764 C2763 1.349 . S
C2764 C2776 1.349 . S
C2765 C2763 1.327 . S
C2765 C2781 1.429 . S
C2765 H2787 0.950 . S
C2766 H2762 0.949 . S
C2766 C2774 1.574 . S
C2766 C2782 1.368 . S
H2767 C2775 0.950 . S
H2768 C2773 0.950 . S
H2769 C2774 0.949 . S
H2770 C2776 0.950 . S
H2771 C2777 0.950 . S
H2772 C2778 0.949 . S
C2773 H2768 0.950 . S
C2773 C2775 1.327 . S
C2773 C2779 1.429 . S
C2774 C2766 1.574 . S
C2774 H2769 0.949 . S
C2774 C2780 1.368 . S
C2775 C2759 1.349 . S
C2775 H2767 0.950 . S
C2775 C2773 1.327 . S
C2776 C2764 1.349 . S
C2776 H2770 0.950 . S
C2776 C2777 1.327 . S
C2777 H2771 0.950 . S
C2777 C2776 1.327 . S
C2777 C2781 1.429 . S
C2778 C2761 1.574 . S
C2778 H2772 0.949 . S
C2778 C2782 1.368 . S
C2779 C2760 1.429 . S
C2779 C2773 1.429 . S
C2779 C2780 1.523 . S
C2780 C2761 1.368 . S
C2780 C2774 1.368 . S
C2780 C2779 1.523 . S
C2781 C2765 1.429 . S
C2781 C2777 1.429 . S
C2781 C2782 1.523 . S
C2782 C2766 1.368 . S
C2782 C2778 1.368 . S
C2782 C2781 1.523 . S
H2783 C2758 0.950 . S
H2784 C2760 0.950 . S
H2785 C2761 0.949 . S
H2786 C2763 0.950 . S
H2787 C2765 0.950 . S
C2788 C2789 1.349 . S
C2788 C2790 1.327 . S
C2788 H2813 0.950 . S
C2789 C2788 1.349 . S
C2789 C2805 1.349 . S
C2790 C2788 1.327 . S
C2790 C2809 1.429 . S
C2790 H2814 0.950 . S
C2791 C2808 1.574 . S
C2791 C2810 1.368 . S
C2791 H2815 0.949 . S
H2792 C2796 0.949 . S
C2793 C2794 1.349 . S
C2793 C2795 1.327 . S
C2793 H2816 0.950 . S
C2794 C2793 1.349 . S
C2794 C2806 1.349 . S
C2795 C2793 1.327 . S
C2795 C2811 1.429 . S
C2795 H2817 0.950 . S
C2796 H2792 0.949 . S
C2796 C2804 1.574 . S
C2796 C2812 1.368 . S
H2797 C2805 0.950 . S
H2798 C2803 0.950 . S
H2799 C2804 0.949 . S
H2800 C2806 0.950 . S
H2801 C2807 0.950 . S
H2802 C2808 0.949 . S
C2803 H2798 0.950 . S
C2803 C2805 1.327 . S
C2803 C2809 1.429 . S
C2804 C2796 1.574 . S
C2804 H2799 0.949 . S
C2804 C2810 1.368 . S
C2805 C2789 1.349 . S
C2805 H2797 0.950 . S
C2805 C2803 1.327 . S
C2806 C2794 1.349 . S
C2806 H2800 0.950 . S
C2806 C2807 1.327 . S
C2807 H2801 0.950 . S
C2807 C2806 1.327 . S
C2807 C2811 1.429 . S
C2808 C2791 1.574 . S
C2808 H2802 0.949 . S
C2808 C2812 1.368 . S
C2809 C2790 1.429 . S
C2809 C2803 1.429 . S
C2809 C2810 1.523 . S
C2810 C2791 1.368 . S
C2810 C2804 1.368 . S
C2810 C2809 1.523 . S
C2811 C2795 1.429 . S
C2811 C2807 1.429 . S
C2811 C2812 1.523 . S
C2812 C2796 1.368 . S
C2812 C2808 1.368 . S
C2812 C2811 1.523 . S
H2813 C2788 0.950 . S
H2814 C2790 0.950 . S
H2815 C2791 0.949 . S
H2816 C2793 0.950 . S
H2817 C2795 0.950 . S
C2818 C2819 1.349 . S
C2818 C2820 1.327 . S
C2818 H2843 0.950 . S
C2819 C2818 1.349 . S
C2819 C2835 1.349 . S
C2820 C2818 1.327 . S
C2820 C2839 1.429 . S
C2820 H2844 0.950 . S
C2821 C2838 1.574 . S
C2821 C2840 1.368 . S
C2821 H2845 0.949 . S
H2822 C2826 0.949 . S
C2823 C2824 1.349 . S
C2823 C2825 1.327 . S
C2823 H2846 0.950 . S
C2824 C2823 1.349 . S
C2824 C2836 1.349 . S
C2825 C2823 1.327 . S
C2825 C2841 1.429 . S
C2825 H2847 0.950 . S
C2826 H2822 0.949 . S
C2826 C2834 1.574 1_455 S
C2826 C2842 1.368 . S
H2827 C2835 0.950 . S
H2828 C2833 0.950 . S
H2829 C2834 0.949 . S
H2830 C2836 0.950 . S
H2831 C2837 0.950 . S
H2832 C2838 0.949 . S
C2833 H2828 0.950 . S
C2833 C2835 1.327 . S
C2833 C2839 1.429 . S
C2834 C2826 1.574 1_655 S
C2834 H2829 0.949 . S
C2834 C2840 1.368 . S
C2835 C2819 1.349 . S
C2835 H2827 0.950 . S
C2835 C2833 1.327 . S
C2836 C2824 1.349 . S
C2836 H2830 0.950 . S
C2836 C2837 1.327 . S
C2837 H2831 0.950 . S
C2837 C2836 1.327 . S
C2837 C2841 1.429 . S
C2838 C2821 1.574 . S
C2838 H2832 0.949 . S
C2838 C2842 1.368 1_655 S
C2839 C2820 1.429 . S
C2839 C2833 1.429 . S
C2839 C2840 1.523 . S
C2840 C2821 1.368 . S
C2840 C2834 1.368 . S
C2840 C2839 1.523 . S
C2841 C2825 1.429 . S
C2841 C2837 1.429 . S
C2841 C2842 1.523 . S
C2842 C2826 1.368 . S
C2842 C2838 1.368 1_455 S
C2842 C2841 1.523 . S
H2843 C2818 0.950 . S
H2844 C2820 0.950 . S
H2845 C2821 0.949 . S
H2846 C2823 0.950 . S
H2847 C2825 0.950 . S
C2848 C2849 1.349 . S
C2848 C2850 1.327 . S
C2848 H2873 0.950 . S
C2849 C2848 1.349 . S
C2849 C2865 1.349 . S
C2850 C2848 1.327 . S
C2850 C2869 1.429 . S
C2850 H2874 0.950 . S
C2851 C2868 1.574 . S
C2851 C2870 1.368 . S
C2851 H2875 0.949 . S
H2852 C2856 0.949 . S
C2853 C2854 1.349 . S
C2853 C2855 1.327 . S
C2853 H2876 0.950 . S
C2854 C2853 1.349 . S
C2854 C2866 1.349 . S
C2855 C2853 1.327 . S
C2855 C2871 1.429 . S
C2855 H2877 0.950 . S
C2856 H2852 0.949 . S
C2856 C2864 1.574 . S
C2856 C2872 1.368 . S
H2857 C2865 0.950 . S
H2858 C2863 0.950 . S
H2859 C2864 0.949 . S
H2860 C2866 0.950 . S
H2861 C2867 0.950 . S
H2862 C2868 0.949 . S
C2863 H2858 0.950 . S
C2863 C2865 1.327 . S
C2863 C2869 1.429 . S
C2864 C2856 1.574 . S
C2864 H2859 0.949 . S
C2864 C2870 1.368 . S
C2865 C2849 1.349 . S
C2865 H2857 0.950 . S
C2865 C2863 1.327 . S
C2866 C2854 1.349 . S
C2866 H2860 0.950 . S
C2866 C2867 1.327 . S
C2867 H2861 0.950 . S
C2867 C2866 1.327 . S
C2867 C2871 1.429 . S
C2868 C2851 1.574 . S
C2868 H2862 0.949 . S
C2868 C2872 1.368 . S
C2869 C2850 1.429 . S
C2869 C2863 1.429 . S
C2869 C2870 1.523 . S
C2870 C2851 1.368 . S
C2870 C2864 1.368 . S
C2870 C2869 1.523 . S
C2871 C2855 1.429 . S
C2871 C2867 1.429 . S
C2871 C2872 1.523 . S
C2872 C2856 1.368 . S
C2872 C2868 1.368 . S
C2872 C2871 1.523 . S
H2873 C2848 0.950 . S
H2874 C2850 0.950 . S
H2875 C2851 0.949 . S
H2876 C2853 0.950 . S
H2877 C2855 0.950 . S
C2878 C2879 1.349 . S
C2878 C2880 1.327 . S
C2878 H2903 0.950 . S
C2879 C2878 1.349 . S
C2879 C2895 1.349 . S
C2880 C2878 1.327 . S
C2880 C2899 1.429 . S
C2880 H2904 0.950 . S
C2881 C2898 1.581 . S
C2881 C2900 1.368 . S
C2881 H2905 0.949 . S
H2882 C2886 0.949 . S
C2883 C2884 1.349 . S
C2883 C2885 1.327 . S
C2883 H2906 0.950 . S
C2884 C2883 1.349 . S
C2884 C2896 1.349 . S
C2885 C2883 1.327 . S
C2885 C2901 1.429 . S
C2885 H2907 0.950 . S
C2886 H2882 0.949 . S
C2886 C2894 1.574 1_554 S
C2886 C2902 1.368 . S
H2887 C2895 0.950 . S
H2888 C2893 0.950 . S
H2889 C2894 0.949 . S
H2890 C2896 0.950 . S
H2891 C2897 0.950 . S
H2892 C2898 0.946 1_554 S
C2893 H2888 0.950 . S
C2893 C2895 1.327 . S
C2893 C2899 1.429 . S
C2894 C2886 1.574 1_556 S
C2894 H2889 0.949 . S
C2894 C2900 1.368 . S
C2895 C2879 1.349 . S
C2895 H2887 0.950 . S
C2895 C2893 1.327 . S
C2896 C2884 1.349 . S
C2896 H2890 0.950 . S
C2896 C2897 1.327 . S
C2897 H2891 0.950 . S
C2897 C2896 1.327 . S
C2897 C2901 1.429 . S
C2898 C2881 1.581 . S
C2898 H2892 0.946 1_556 S
C2898 C2902 1.364 1_556 S
C2899 C2880 1.429 . S
C2899 C2893 1.429 . S
C2899 C2900 1.523 . S
C2900 C2881 1.368 . S
C2900 C2894 1.368 . S
C2900 C2899 1.523 . S
C2901 C2885 1.429 . S
C2901 C2897 1.429 . S
C2901 C2902 1.523 . S
C2902 C2886 1.368 . S
C2902 C2898 1.364 1_554 S
C2902 C2901 1.523 . S
H2903 C2878 0.950 . S
H2904 C2880 0.950 . S
H2905 C2881 0.949 . S
H2906 C2883 0.950 . S
H2907 C2885 0.950 . S
C2908 C2909 1.349 . S
C2908 C2910 1.327 . S
C2908 H2933 0.950 . S
C2909 C2908 1.349 . S
C2909 C2925 1.349 . S
C2910 C2908 1.327 . S
C2910 C2929 1.429 . S
C2910 H2934 0.950 . S
C2911 C2928 1.574 . S
C2911 C2930 1.368 . S
C2911 H2935 0.949 . S
H2912 C2916 0.949 . S
C2913 C2914 1.349 . S
C2913 C2915 1.327 . S
C2913 H2936 0.950 . S
C2914 C2913 1.349 . S
C2914 C2926 1.349 . S
C2915 C2913 1.327 . S
C2915 C2931 1.429 . S
C2915 H2937 0.950 . S
C2916 H2912 0.949 . S
C2916 C2924 1.574 . S
C2916 C2932 1.368 . S
H2917 C2925 0.950 . S
H2918 C2923 0.950 . S
H2919 C2924 0.949 . S
H2920 C2926 0.950 . S
H2921 C2927 0.950 . S
H2922 C2928 0.949 . S
C2923 H2918 0.950 . S
C2923 C2925 1.327 . S
C2923 C2929 1.429 . S
C2924 C2916 1.574 . S
C2924 H2919 0.949 . S
C2924 C2930 1.368 . S
C2925 C2909 1.349 . S
C2925 H2917 0.950 . S
C2925 C2923 1.327 . S
C2926 C2914 1.349 . S
C2926 H2920 0.950 . S
C2926 C2927 1.327 . S
C2927 H2921 0.950 . S
C2927 C2926 1.327 . S
C2927 C2931 1.429 . S
C2928 C2911 1.574 . S
C2928 H2922 0.949 . S
C2928 C2932 1.368 . S
C2929 C2910 1.429 . S
C2929 C2923 1.429 . S
C2929 C2930 1.523 . S
C2930 C2911 1.368 . S
C2930 C2924 1.368 . S
C2930 C2929 1.523 . S
C2931 C2915 1.429 . S
C2931 C2927 1.429 . S
C2931 C2932 1.523 . S
C2932 C2916 1.368 . S
C2932 C2928 1.368 . S
C2932 C2931 1.523 . S
H2933 C2908 0.950 . S
H2934 C2910 0.950 . S
H2935 C2911 0.949 . S
H2936 C2913 0.950 . S
H2937 C2915 0.950 . S
C2938 C2939 1.349 . S
C2938 C2940 1.327 . S
C2938 H2963 0.950 . S
C2939 C2938 1.349 . S
C2939 C2955 1.349 . S
C2940 C2938 1.327 . S
C2940 C2959 1.429 . S
C2940 H2964 0.950 . S
C2941 C2958 1.574 . S
C2941 C2960 1.368 . S
C2941 H2965 0.949 . S
H2942 C2946 0.949 . S
C2943 C2944 1.349 . S
C2943 C2945 1.327 . S
C2943 H2966 0.950 . S
C2944 C2943 1.349 . S
C2944 C2956 1.349 . S
C2945 C2943 1.327 . S
C2945 C2961 1.429 . S
C2945 H2967 0.950 . S
C2946 H2942 0.949 . S
C2946 C2954 1.574 . S
C2946 C2962 1.368 . S
H2947 C2955 0.950 . S
H2948 C2953 0.950 . S
H2949 C2954 0.949 . S
H2950 C2956 0.950 . S
H2951 C2957 0.950 . S
H2952 C2958 0.949 . S
C2953 H2948 0.950 . S
C2953 C2955 1.327 . S
C2953 C2959 1.429 . S
C2954 C2946 1.574 . S
C2954 H2949 0.949 . S
C2954 C2960 1.368 . S
C2955 C2939 1.349 . S
C2955 H2947 0.950 . S
C2955 C2953 1.327 . S
C2956 C2944 1.349 . S
C2956 H2950 0.950 . S
C2956 C2957 1.327 . S
C2957 H2951 0.950 . S
C2957 C2956 1.327 . S
C2957 C2961 1.429 . S
C2958 C2941 1.574 . S
C2958 H2952 0.949 . S
C2958 C2962 1.368 . S
C2959 C2940 1.429 . S
C2959 C2953 1.429 . S
C2959 C2960 1.523 . S
C2960 C2941 1.368 . S
C2960 C2954 1.368 . S
C2960 C2959 1.523 . S
C2961 C2945 1.429 . S
C2961 C2957 1.429 . S
C2961 C2962 1.523 . S
C2962 C2946 1.368 . S
C2962 C2958 1.368 . S
C2962 C2961 1.523 . S
H2963 C2938 0.950 . S
H2964 C2940 0.950 . S
H2965 C2941 0.949 . S
H2966 C2943 0.950 . S
H2967 C2945 0.950 . S
C2968 C2969 1.349 . S
C2968 C2970 1.327 . S
C2968 H2993 0.950 . S
C2969 C2968 1.349 . S
C2969 C2985 1.349 . S
C2970 C2968 1.327 . S
C2970 C2989 1.429 . S
C2970 H2994 0.950 . S
C2971 C2988 1.574 . S
C2971 C2990 1.368 . S
C2971 H2995 0.949 . S
H2972 C2976 0.949 . S
C2973 C2974 1.349 . S
C2973 C2975 1.327 . S
C2973 H2996 0.950 . S
C2974 C2973 1.349 . S
C2974 C2986 1.349 . S
C2975 C2973 1.327 . S
C2975 C2991 1.429 . S
C2975 H2997 0.950 . S
C2976 H2972 0.949 . S
C2976 C2984 1.574 . S
C2976 C2992 1.368 . S
H2977 C2985 0.950 . S
H2978 C2983 0.950 . S
H2979 C2984 0.949 . S
H2980 C2986 0.950 . S
H2981 C2987 0.950 . S
H2982 C2988 0.949 . S
C2983 H2978 0.950 . S
C2983 C2985 1.327 . S
C2983 C2989 1.429 . S
C2984 C2976 1.574 . S
C2984 H2979 0.949 . S
C2984 C2990 1.368 . S
C2985 C2969 1.349 . S
C2985 H2977 0.950 . S
C2985 C2983 1.327 . S
C2986 C2974 1.349 . S
C2986 H2980 0.950 . S
C2986 C2987 1.327 . S
C2987 H2981 0.950 . S
C2987 C2986 1.327 . S
C2987 C2991 1.429 . S
C2988 C2971 1.574 . S
C2988 H2982 0.949 . S
C2988 C2992 1.368 . S
C2989 C2970 1.429 . S
C2989 C2983 1.429 . S
C2989 C2990 1.523 . S
C2990 C2971 1.368 . S
C2990 C2984 1.368 . S
C2990 C2989 1.523 . S
C2991 C2975 1.429 . S
C2991 C2987 1.429 . S
C2991 C2992 1.523 . S
C2992 C2976 1.368 . S
C2992 C2988 1.368 . S
C2992 C2991 1.523 . S
H2993 C2968 0.950 . S
H2994 C2970 0.950 . S
H2995 C2971 0.949 . S
H2996 C2973 0.950 . S
H2997 C2975 0.950 . S
C2998 C2999 1.349 . S
C2998 C3000 1.327 . S
C2998 H3023 0.950 . S
C2999 C2998 1.349 . S
C2999 C3015 1.349 . S
C3000 C2998 1.327 . S
C3000 C3019 1.429 . S
C3000 H3024 0.950 . S
C3001 C3018 1.574 . S
C3001 C3020 1.368 . S
C3001 H3025 0.949 . S
H3002 C3006 0.949 1_556 S
C3003 C3004 1.349 . S
C3003 C3005 1.327 . S
C3003 H3026 0.950 . S
C3004 C3003 1.349 . S
C3004 C3016 1.349 . S
C3005 C3003 1.327 . S
C3005 C3021 1.429 . S
C3005 H3027 0.950 . S
C3006 H3002 0.949 1_554 S
C3006 C3014 1.574 . S
C3006 C3022 1.368 1_554 S
H3007 C3015 0.950 . S
H3008 C3013 0.950 . S
H3009 C3014 0.949 . S
H3010 C3016 0.950 . S
H3011 C3017 0.950 . S
H3012 C3018 0.949 1_556 S
C3013 H3008 0.950 . S
C3013 C3015 1.327 . S
C3013 C3019 1.429 . S
C3014 C3006 1.574 . S
C3014 H3009 0.949 . S
C3014 C3020 1.368 . S
C3015 C2999 1.349 . S
C3015 H3007 0.950 . S
C3015 C3013 1.327 . S
C3016 C3004 1.349 . S
C3016 H3010 0.950 . S
C3016 C3017 1.327 . S
C3017 H3011 0.950 . S
C3017 C3016 1.327 . S
C3017 C3021 1.429 . S
C3018 C3001 1.574 . S
C3018 H3012 0.949 1_554 S
C3018 C3022 1.368 1_554 S
C3019 C3000 1.429 . S
C3019 C3013 1.429 . S
C3019 C3020 1.523 . S
C3020 C3001 1.368 . S
C3020 C3014 1.368 . S
C3020 C3019 1.523 . S
C3021 C3005 1.429 . S
C3021 C3017 1.429 . S
C3021 C3022 1.523 . S
C3022 C3006 1.368 1_556 S
C3022 C3018 1.368 1_556 S
C3022 C3021 1.523 . S
H3023 C2998 0.950 . S
H3024 C3000 0.950 . S
H3025 C3001 0.949 . S
H3026 C3003 0.950 . S
H3027 C3005 0.950 . S
C3028 C3029 1.349 . S
C3028 C3030 1.327 . S
C3028 H3053 0.950 . S
C3029 C3028 1.349 . S
C3029 C3045 1.349 . S
C3030 C3028 1.327 . S
C3030 C3049 1.429 . S
C3030 H3054 0.950 . S
C3031 C3048 1.574 . S
C3031 C3050 1.368 . S
C3031 H3055 0.949 . S
H3032 C3036 0.949 . S
C3033 C3034 1.349 . S
C3033 C3035 1.327 . S
C3033 H3056 0.950 . S
C3034 C3033 1.349 . S
C3034 C3046 1.349 . S
C3035 C3033 1.327 . S
C3035 C3051 1.429 . S
C3035 H3057 0.950 . S
C3036 H3032 0.949 . S
C3036 C3044 1.574 . S
C3036 C3052 1.368 . S
H3037 C3045 0.950 . S
H3038 C3043 0.950 . S
H3039 C3044 0.949 . S
H3040 C3046 0.950 . S
H3041 C3047 0.950 . S
H3042 C3048 0.949 . S
C3043 H3038 0.950 . S
C3043 C3045 1.327 . S
C3043 C3049 1.429 . S
C3044 C3036 1.574 . S
C3044 H3039 0.949 . S
C3044 C3050 1.368 . S
C3045 C3029 1.349 . S
C3045 H3037 0.950 . S
C3045 C3043 1.327 . S
C3046 C3034 1.349 . S
C3046 H3040 0.950 . S
C3046 C3047 1.327 . S
C3047 H3041 0.950 . S
C3047 C3046 1.327 . S
C3047 C3051 1.429 . S
C3048 C3031 1.574 . S
C3048 H3042 0.949 . S
C3048 C3052 1.368 . S
C3049 C3030 1.429 . S
C3049 C3043 1.429 . S
C3049 C3050 1.523 . S
C3050 C3031 1.368 . S
C3050 C3044 1.368 . S
C3050 C3049 1.523 . S
C3051 C3035 1.429 . S
C3051 C3047 1.429 . S
C3051 C3052 1.523 . S
C3052 C3036 1.368 . S
C3052 C3048 1.368 . S
C3052 C3051 1.523 . S
H3053 C3028 0.950 . S
H3054 C3030 0.950 . S
H3055 C3031 0.949 . S
H3056 C3033 0.950 . S
H3057 C3035 0.950 . S
C3058 C3059 1.349 . S
C3058 C3060 1.327 . S
C3058 H3083 0.950 . S
C3059 C3058 1.349 . S
C3059 C3075 1.349 . S
C3060 C3058 1.327 . S
C3060 C3079 1.429 . S
C3060 H3084 0.950 . S
C3061 C3078 1.574 . S
C3061 C3080 1.368 . S
C3061 H3085 0.949 . S
H3062 C3066 0.949 . S
C3063 C3064 1.349 . S
C3063 C3065 1.327 . S
C3063 H3086 0.950 . S
C3064 C3063 1.349 . S
C3064 C3076 1.349 . S
C3065 C3063 1.327 . S
C3065 C3081 1.429 . S
C3065 H3087 0.950 . S
C3066 H3062 0.949 . S
C3066 C3074 1.574 . S
C3066 C3082 1.368 . S
H3067 C3075 0.950 . S
H3068 C3073 0.950 . S
H3069 C3074 0.949 . S
H3070 C3076 0.950 . S
H3071 C3077 0.950 . S
H3072 C3078 0.949 . S
C3073 H3068 0.950 . S
C3073 C3075 1.327 . S
C3073 C3079 1.429 . S
C3074 C3066 1.574 . S
C3074 H3069 0.949 . S
C3074 C3080 1.368 . S
C3075 C3059 1.349 . S
C3075 H3067 0.950 . S
C3075 C3073 1.327 . S
C3076 C3064 1.349 . S
C3076 H3070 0.950 . S
C3076 C3077 1.327 . S
C3077 H3071 0.950 . S
C3077 C3076 1.327 . S
C3077 C3081 1.429 . S
C3078 C3061 1.574 . S
C3078 H3072 0.949 . S
C3078 C3082 1.368 . S
C3079 C3060 1.429 . S
C3079 C3073 1.429 . S
C3079 C3080 1.523 . S
C3080 C3061 1.368 . S
C3080 C3074 1.368 . S
C3080 C3079 1.523 . S
C3081 C3065 1.429 . S
C3081 C3077 1.429 . S
C3081 C3082 1.523 . S
C3082 C3066 1.368 . S
C3082 C3078 1.368 . S
C3082 C3081 1.523 . S
H3083 C3058 0.950 . S
H3084 C3060 0.950 . S
H3085 C3061 0.949 . S
H3086 C3063 0.950 . S
H3087 C3065 0.950 . S
C3088 C3089 1.349 . S
C3088 C3090 1.327 . S
C3088 H3113 0.950 . S
C3089 C3088 1.349 . S
C3089 C3105 1.349 . S
C3090 C3088 1.327 . S
C3090 C3109 1.429 . S
C3090 H3114 0.950 . S
C3091 C3108 1.574 . S
C3091 C3110 1.368 . S
C3091 H3115 0.949 . S
H3092 C3096 0.949 . S
C3093 C3094 1.349 . S
C3093 C3095 1.327 . S
C3093 H3116 0.950 . S
C3094 C3093 1.349 . S
C3094 C3106 1.349 . S
C3095 C3093 1.327 . S
C3095 C3111 1.429 . S
C3095 H3117 0.950 . S
C3096 H3092 0.949 . S
C3096 C3104 1.574 . S
C3096 C3112 1.368 . S
H3097 C3105 0.950 . S
H3098 C3103 0.950 . S
H3099 C3104 0.949 . S
H3100 C3106 0.950 . S
H3101 C3107 0.950 . S
H3102 C3108 0.949 . S
C3103 H3098 0.950 . S
C3103 C3105 1.327 . S
C3103 C3109 1.429 . S
C3104 C3096 1.574 . S
C3104 H3099 0.949 . S
C3104 C3110 1.368 . S
C3105 C3089 1.349 . S
C3105 H3097 0.950 . S
C3105 C3103 1.327 . S
C3106 C3094 1.349 . S
C3106 H3100 0.950 . S
C3106 C3107 1.327 . S
C3107 H3101 0.950 . S
C3107 C3106 1.327 . S
C3107 C3111 1.429 . S
C3108 C3091 1.574 . S
C3108 H3102 0.949 . S
C3108 C3112 1.368 . S
C3109 C3090 1.429 . S
C3109 C3103 1.429 . S
C3109 C3110 1.523 . S
C3110 C3091 1.368 . S
C3110 C3104 1.368 . S
C3110 C3109 1.523 . S
C3111 C3095 1.429 . S
C3111 C3107 1.429 . S
C3111 C3112 1.523 . S
C3112 C3096 1.368 . S
C3112 C3108 1.368 . S
C3112 C3111 1.523 . S
H3113 C3088 0.950 . S
H3114 C3090 0.950 . S
H3115 C3091 0.949 . S
H3116 C3093 0.950 . S
H3117 C3095 0.950 . S
C3118 C3119 1.349 . S
C3118 C3120 1.327 . S
C3118 H3143 0.950 . S
C3119 C3118 1.349 . S
C3119 C3135 1.349 . S
C3120 C3118 1.327 . S
C3120 C3139 1.429 . S
C3120 H3144 0.950 . S
C3121 C3138 1.574 . S
C3121 C3140 1.368 . S
C3121 H3145 0.949 . S
H3122 C3126 0.949 . S
C3123 C3124 1.349 . S
C3123 C3125 1.327 . S
C3123 H3146 0.950 . S
C3124 C3123 1.349 . S
C3124 C3136 1.349 . S
C3125 C3123 1.327 . S
C3125 C3141 1.429 . S
C3125 H3147 0.950 . S
C3126 H3122 0.949 . S
C3126 C3134 1.574 . S
C3126 C3142 1.368 . S
H3127 C3135 0.950 . S
H3128 C3133 0.950 . S
H3129 C3134 0.949 . S
H3130 C3136 0.950 . S
H3131 C3137 0.950 . S
H3132 C3138 0.949 . S
C3133 H3128 0.950 . S
C3133 C3135 1.327 . S
C3133 C3139 1.429 . S
C3134 C3126 1.574 . S
C3134 H3129 0.949 . S
C3134 C3140 1.368 . S
C3135 C3119 1.349 . S
C3135 H3127 0.950 . S
C3135 C3133 1.327 . S
C3136 C3124 1.349 . S
C3136 H3130 0.950 . S
C3136 C3137 1.327 . S
C3137 H3131 0.950 . S
C3137 C3136 1.327 . S
C3137 C3141 1.429 . S
C3138 C3121 1.574 . S
C3138 H3132 0.949 . S
C3138 C3142 1.368 . S
C3139 C3120 1.429 . S
C3139 C3133 1.429 . S
C3139 C3140 1.523 . S
C3140 C3121 1.368 . S
C3140 C3134 1.368 . S
C3140 C3139 1.523 . S
C3141 C3125 1.429 . S
C3141 C3137 1.429 . S
C3141 C3142 1.523 . S
C3142 C3126 1.368 . S
C3142 C3138 1.368 . S
C3142 C3141 1.523 . S
H3143 C3118 0.950 . S
H3144 C3120 0.950 . S
H3145 C3121 0.949 . S
H3146 C3123 0.950 . S
H3147 C3125 0.950 . S
C3148 C3149 1.349 . S
C3148 C3150 1.327 . S
C3148 H3173 0.950 . S
C3149 C3148 1.349 . S
C3149 C3165 1.349 . S
C3150 C3148 1.327 . S
C3150 C3169 1.429 . S
C3150 H3174 0.950 . S
C3151 C3168 1.574 . S
C3151 C3170 1.368 . S
C3151 H3175 0.949 . S
H3152 C3156 0.949 . S
C3153 C3154 1.349 . S
C3153 C3155 1.327 . S
C3153 H3176 0.950 . S
C3154 C3153 1.349 . S
C3154 C3166 1.349 . S
C3155 C3153 1.327 . S
C3155 C3171 1.429 . S
C3155 H3177 0.950 . S
C3156 H3152 0.949 . S
C3156 C3164 1.574 . S
C3156 C3172 1.368 . S
H3157 C3165 0.950 . S
H3158 C3163 0.950 . S
H3159 C3164 0.949 . S
H3160 C3166 0.950 . S
H3161 C3167 0.950 . S
H3162 C3168 0.949 . S
C3163 H3158 0.950 . S
C3163 C3165 1.327 . S
C3163 C3169 1.429 . S
C3164 C3156 1.574 . S
C3164 H3159 0.949 . S
C3164 C3170 1.368 . S
C3165 C3149 1.349 . S
C3165 H3157 0.950 . S
C3165 C3163 1.327 . S
C3166 C3154 1.349 . S
C3166 H3160 0.950 . S
C3166 C3167 1.327 . S
C3167 H3161 0.950 . S
C3167 C3166 1.327 . S
C3167 C3171 1.429 . S
C3168 C3151 1.574 . S
C3168 H3162 0.949 . S
C3168 C3172 1.368 . S
C3169 C3150 1.429 . S
C3169 C3163 1.429 . S
C3169 C3170 1.523 . S
C3170 C3151 1.368 . S
C3170 C3164 1.368 . S
C3170 C3169 1.523 . S
C3171 C3155 1.429 . S
C3171 C3167 1.429 . S
C3171 C3172 1.523 . S
C3172 C3156 1.368 . S
C3172 C3168 1.368 . S
C3172 C3171 1.523 . S
H3173 C3148 0.950 . S
H3174 C3150 0.950 . S
H3175 C3151 0.949 . S
H3176 C3153 0.950 . S
H3177 C3155 0.950 . S
C3178 C3179 1.349 . S
C3178 C3180 1.327 . S
C3178 H3203 0.950 . S
C3179 C3178 1.349 . S
C3179 C3195 1.349 . S
C3180 C3178 1.327 . S
C3180 C3199 1.429 . S
C3180 H3204 0.950 . S
C3181 C3198 1.574 . S
C3181 C3200 1.368 . S
C3181 H3205 0.949 . S
H3182 C3186 0.949 . S
C3183 C3184 1.349 . S
C3183 C3185 1.327 . S
C3183 H3206 0.950 . S
C3184 C3183 1.349 . S
C3184 C3196 1.349 . S
C3185 C3183 1.327 . S
C3185 C3201 1.429 . S
C3185 H3207 0.950 . S
C3186 H3182 0.949 . S
C3186 C3194 1.574 . S
C3186 C3202 1.368 . S
H3187 C3195 0.950 . S
H3188 C3193 0.950 . S
H3189 C3194 0.949 . S
H3190 C3196 0.950 . S
H3191 C3197 0.950 . S
H3192 C3198 0.949 . S
C3193 H3188 0.950 . S
C3193 C3195 1.327 . S
C3193 C3199 1.429 . S
C3194 C3186 1.574 . S
C3194 H3189 0.949 . S
C3194 C3200 1.368 . S
C3195 C3179 1.349 . S
C3195 H3187 0.950 . S
C3195 C3193 1.327 . S
C3196 C3184 1.349 . S
C3196 H3190 0.950 . S
C3196 C3197 1.327 . S
C3197 H3191 0.950 . S
C3197 C3196 1.327 . S
C3197 C3201 1.429 . S
C3198 C3181 1.574 . S
C3198 H3192 0.949 . S
C3198 C3202 1.368 . S
C3199 C3180 1.429 . S
C3199 C3193 1.429 . S
C3199 C3200 1.523 . S
C3200 C3181 1.368 . S
C3200 C3194 1.368 . S
C3200 C3199 1.523 . S
C3201 C3185 1.429 . S
C3201 C3197 1.429 . S
C3201 C3202 1.523 . S
C3202 C3186 1.368 . S
C3202 C3198 1.368 . S
C3202 C3201 1.523 . S
H3203 C3178 0.950 . S
H3204 C3180 0.950 . S
H3205 C3181 0.949 . S
H3206 C3183 0.950 . S
H3207 C3185 0.950 . S
C3208 C3209 1.349 . S
C3208 C3210 1.327 . S
C3208 H3233 0.950 . S
C3209 C3208 1.349 . S
C3209 C3225 1.349 . S
C3210 C3208 1.327 . S
C3210 C3229 1.429 . S
C3210 H3234 0.950 . S
C3211 C3228 1.574 . S
C3211 C3230 1.368 . S
C3211 H3235 0.949 . S
H3212 C3216 0.949 . S
C3213 C3214 1.349 . S
C3213 C3215 1.327 . S
C3213 H3236 0.950 . S
C3214 C3213 1.349 . S
C3214 C3226 1.349 . S
C3215 C3213 1.327 . S
C3215 C3231 1.429 . S
C3215 H3237 0.950 . S
C3216 H3212 0.949 . S
C3216 C3224 1.574 . S
C3216 C3232 1.368 . S
H3217 C3225 0.950 . S
H3218 C3223 0.950 . S
H3219 C3224 0.949 . S
H3220 C3226 0.950 . S
H3221 C3227 0.950 . S
H3222 C3228 0.949 . S
C3223 H3218 0.950 . S
C3223 C3225 1.327 . S
C3223 C3229 1.429 . S
C3224 C3216 1.574 . S
C3224 H3219 0.949 . S
C3224 C3230 1.368 . S
C3225 C3209 1.349 . S
C3225 H3217 0.950 . S
C3225 C3223 1.327 . S
C3226 C3214 1.349 . S
C3226 H3220 0.950 . S
C3226 C3227 1.327 . S
C3227 H3221 0.950 . S
C3227 C3226 1.327 . S
C3227 C3231 1.429 . S
C3228 C3211 1.574 . S
C3228 H3222 0.949 . S
C3228 C3232 1.368 . S
C3229 C3210 1.429 . S
C3229 C3223 1.429 . S
C3229 C3230 1.523 . S
C3230 C3211 1.368 . S
C3230 C3224 1.368 . S
C3230 C3229 1.523 . S
C3231 C3215 1.429 . S
C3231 C3227 1.429 . S
C3231 C3232 1.523 . S
C3232 C3216 1.368 . S
C3232 C3228 1.368 . S
C3232 C3231 1.523 . S
H3233 C3208 0.950 . S
H3234 C3210 0.950 . S
H3235 C3211 0.949 . S
H3236 C3213 0.950 . S
H3237 C3215 0.950 . S
C3238 C3239 1.349 . S
C3238 C3240 1.327 . S
C3238 H3263 0.950 . S
C3239 C3238 1.349 . S
C3239 C3255 1.349 . S
C3240 C3238 1.327 . S
C3240 C3259 1.429 . S
C3240 H3264 0.950 . S
C3241 C3258 1.574 . S
C3241 C3260 1.368 . S
C3241 H3265 0.949 . S
H3242 C3246 0.949 . S
C3243 C3244 1.349 . S
C3243 C3245 1.327 . S
C3243 H3266 0.950 . S
C3244 C3243 1.349 . S
C3244 C3256 1.349 . S
C3245 C3243 1.327 . S
C3245 C3261 1.429 . S
C3245 H3267 0.950 . S
C3246 H3242 0.949 . S
C3246 C3254 1.574 . S
C3246 C3262 1.368 . S
H3247 C3255 0.950 . S
H3248 C3253 0.950 . S
H3249 C3254 0.949 . S
H3250 C3256 0.950 . S
H3251 C3257 0.950 . S
H3252 C3258 0.949 . S
C3253 H3248 0.950 . S
C3253 C3255 1.327 . S
C3253 C3259 1.429 . S
C3254 C3246 1.574 . S
C3254 H3249 0.949 . S
C3254 C3260 1.368 . S
C3255 C3239 1.349 . S
C3255 H3247 0.950 . S
C3255 C3253 1.327 . S
C3256 C3244 1.349 . S
C3256 H3250 0.950 . S
C3256 C3257 1.327 . S
C3257 H3251 0.950 . S
C3257 C3256 1.327 . S
C3257 C3261 1.429 . S
C3258 C3241 1.574 . S
C3258 H3252 0.949 . S
C3258 C3262 1.368 . S
C3259 C3240 1.429 . S
C3259 C3253 1.429 . S
C3259 C3260 1.523 . S
C3260 C3241 1.368 . S
C3260 C3254 1.368 . S
C3260 C3259 1.523 . S
C3261 C3245 1.429 . S
C3261 C3257 1.429 . S
C3261 C3262 1.523 . S
C3262 C3246 1.368 . S
C3262 C3258 1.368 . S
C3262 C3261 1.523 . S
H3263 C3238 0.950 . S
H3264 C3240 0.950 . S
H3265 C3241 0.949 . S
H3266 C3243 0.950 . S
H3267 C3245 0.950 . S
C3268 C3269 1.349 . S
C3268 C3270 1.327 . S
C3268 H3293 0.950 . S
C3269 C3268 1.349 . S
C3269 C3285 1.349 . S
C3270 C3268 1.327 . S
C3270 C3289 1.429 . S
C3270 H3294 0.950 . S
C3271 C3288 1.574 . S
C3271 C3290 1.368 . S
C3271 H3295 0.949 . S
H3272 C3276 0.949 . S
C3273 C3274 1.349 . S
C3273 C3275 1.327 . S
C3273 H3296 0.950 . S
C3274 C3273 1.349 . S
C3274 C3286 1.349 . S
C3275 C3273 1.327 . S
C3275 C3291 1.429 . S
C3275 H3297 0.950 . S
C3276 H3272 0.949 . S
C3276 C3284 1.574 . S
C3276 C3292 1.368 . S
H3277 C3285 0.950 . S
H3278 C3283 0.950 . S
H3279 C3284 0.949 . S
H3280 C3286 0.950 . S
H3281 C3287 0.950 . S
H3282 C3288 0.949 . S
C3283 H3278 0.950 . S
C3283 C3285 1.327 . S
C3283 C3289 1.429 . S
C3284 C3276 1.574 . S
C3284 H3279 0.949 . S
C3284 C3290 1.368 . S
C3285 C3269 1.349 . S
C3285 H3277 0.950 . S
C3285 C3283 1.327 . S
C3286 C3274 1.349 . S
C3286 H3280 0.950 . S
C3286 C3287 1.327 . S
C3287 H3281 0.950 . S
C3287 C3286 1.327 . S
C3287 C3291 1.429 . S
C3288 C3271 1.574 . S
C3288 H3282 0.949 . S
C3288 C3292 1.368 . S
C3289 C3270 1.429 . S
C3289 C3283 1.429 . S
C3289 C3290 1.523 . S
C3290 C3271 1.368 . S
C3290 C3284 1.368 . S
C3290 C3289 1.523 . S
C3291 C3275 1.429 . S
C3291 C3287 1.429 . S
C3291 C3292 1.523 . S
C3292 C3276 1.368 . S
C3292 C3288 1.368 . S
C3292 C3291 1.523 . S
H3293 C3268 0.950 . S
H3294 C3270 0.950 . S
H3295 C3271 0.949 . S
H3296 C3273 0.950 . S
H3297 C3275 0.950 . S
C3298 C3299 1.349 . S
C3298 C3300 1.327 . S
C3298 H3323 0.950 . S
C3299 C3298 1.349 . S
C3299 C3315 1.349 . S
C3300 C3298 1.327 . S
C3300 C3319 1.429 . S
C3300 H3324 0.950 . S
C3301 C3318 1.574 . S
C3301 C3320 1.368 . S
C3301 H3325 0.949 . S
H3302 C3306 0.949 . S
C3303 C3304 1.349 . S
C3303 C3305 1.327 . S
C3303 H3326 0.950 . S
C3304 C3303 1.349 . S
C3304 C3316 1.349 . S
C3305 C3303 1.327 . S
C3305 C3321 1.429 . S
C3305 H3327 0.950 . S
C3306 H3302 0.949 . S
C3306 C3314 1.574 . S
C3306 C3322 1.368 . S
H3307 C3315 0.950 . S
H3308 C3313 0.950 . S
H3309 C3314 0.949 . S
H3310 C3316 0.950 . S
H3311 C3317 0.950 . S
H3312 C3318 0.949 . S
C3313 H3308 0.950 . S
C3313 C3315 1.327 . S
C3313 C3319 1.429 . S
C3314 C3306 1.574 . S
C3314 H3309 0.949 . S
C3314 C3320 1.368 . S
C3315 C3299 1.349 . S
C3315 H3307 0.950 . S
C3315 C3313 1.327 . S
C3316 C3304 1.349 . S
C3316 H3310 0.950 . S
C3316 C3317 1.327 . S
C3317 H3311 0.950 . S
C3317 C3316 1.327 . S
C3317 C3321 1.429 . S
C3318 C3301 1.574 . S
C3318 H3312 0.949 . S
C3318 C3322 1.368 . S
C3319 C3300 1.429 . S
C3319 C3313 1.429 . S
C3319 C3320 1.523 . S
C3320 C3301 1.368 . S
C3320 C3314 1.368 . S
C3320 C3319 1.523 . S
C3321 C3305 1.429 . S
C3321 C3317 1.429 . S
C3321 C3322 1.523 . S
C3322 C3306 1.368 . S
C3322 C3318 1.368 . S
C3322 C3321 1.523 . S
H3323 C3298 0.950 . S
H3324 C3300 0.950 . S
H3325 C3301 0.949 . S
H3326 C3303 0.950 . S
H3327 C3305 0.950 . S
C3328 C3329 1.349 . S
C3328 C3330 1.327 . S
C3328 H3353 0.950 . S
C3329 C3328 1.349 . S
C3329 C3345 1.349 . S
C3330 C3328 1.327 . S
C3330 C3349 1.429 . S
C3330 H3354 0.950 . S
C3331 C3348 1.574 . S
C3331 C3350 1.368 . S
C3331 H3355 0.949 . S
H3332 C3336 0.949 . S
C3333 C3334 1.349 . S
C3333 C3335 1.327 . S
C3333 H3356 0.950 . S
C3334 C3333 1.349 . S
C3334 C3346 1.349 . S
C3335 C3333 1.327 . S
C3335 C3351 1.429 . S
C3335 H3357 0.950 . S
C3336 H3332 0.949 . S
C3336 C3344 1.574 . S
C3336 C3352 1.368 . S
H3337 C3345 0.950 . S
H3338 C3343 0.950 . S
H3339 C3344 0.949 . S
H3340 C3346 0.950 . S
H3341 C3347 0.950 . S
H3342 C3348 0.949 . S
C3343 H3338 0.950 . S
C3343 C3345 1.327 . S
C3343 C3349 1.429 . S
C3344 C3336 1.574 . S
C3344 H3339 0.949 . S
C3344 C3350 1.368 . S
C3345 C3329 1.349 . S
C3345 H3337 0.950 . S
C3345 C3343 1.327 . S
C3346 C3334 1.349 . S
C3346 H3340 0.950 . S
C3346 C3347 1.327 . S
C3347 H3341 0.950 . S
C3347 C3346 1.327 . S
C3347 C3351 1.429 . S
C3348 C3331 1.574 . S
C3348 H3342 0.949 . S
C3348 C3352 1.368 . S
C3349 C3330 1.429 . S
C3349 C3343 1.429 . S
C3349 C3350 1.523 . S
C3350 C3331 1.368 . S
C3350 C3344 1.368 . S
C3350 C3349 1.523 . S
C3351 C3335 1.429 . S
C3351 C3347 1.429 . S
C3351 C3352 1.523 . S
C3352 C3336 1.368 . S
C3352 C3348 1.368 . S
C3352 C3351 1.523 . S
H3353 C3328 0.950 . S
H3354 C3330 0.950 . S
H3355 C3331 0.949 . S
H3356 C3333 0.950 . S
H3357 C3335 0.950 . S
C3358 C3359 1.349 . S
C3358 C3360 1.327 . S
C3358 H3383 0.950 . S
C3359 C3358 1.349 . S
C3359 C3375 1.349 . S
C3360 C3358 1.327 . S
C3360 C3379 1.429 . S
C3360 H3384 0.950 . S
C3361 C3378 1.574 . S
C3361 C3380 1.368 . S
C3361 H3385 0.949 . S
H3362 C3366 0.949 . S
C3363 C3364 1.349 . S
C3363 C3365 1.327 . S
C3363 H3386 0.950 . S
C3364 C3363 1.349 . S
C3364 C3376 1.349 . S
C3365 C3363 1.327 . S
C3365 C3381 1.429 . S
C3365 H3387 0.950 . S
C3366 H3362 0.949 . S
C3366 C3374 1.574 . S
C3366 C3382 1.368 . S
H3367 C3375 0.950 . S
H3368 C3373 0.950 . S
H3369 C3374 0.949 . S
H3370 C3376 0.950 . S
H3371 C3377 0.950 . S
H3372 C3378 0.949 . S
C3373 H3368 0.950 . S
C3373 C3375 1.327 . S
C3373 C3379 1.429 . S
C3374 C3366 1.574 . S
C3374 H3369 0.949 . S
C3374 C3380 1.368 . S
C3375 C3359 1.349 . S
C3375 H3367 0.950 . S
C3375 C3373 1.327 . S
C3376 C3364 1.349 . S
C3376 H3370 0.950 . S
C3376 C3377 1.327 . S
C3377 H3371 0.950 . S
C3377 C3376 1.327 . S
C3377 C3381 1.429 . S
C3378 C3361 1.574 . S
C3378 H3372 0.949 . S
C3378 C3382 1.368 . S
C3379 C3360 1.429 . S
C3379 C3373 1.429 . S
C3379 C3380 1.523 . S
C3380 C3361 1.368 . S
C3380 C3374 1.368 . S
C3380 C3379 1.523 . S
C3381 C3365 1.429 . S
C3381 C3377 1.429 . S
C3381 C3382 1.523 . S
C3382 C3366 1.368 . S
C3382 C3378 1.368 . S
C3382 C3381 1.523 . S
H3383 C3358 0.950 . S
H3384 C3360 0.950 . S
H3385 C3361 0.949 . S
H3386 C3363 0.950 . S
H3387 C3365 0.950 . S
C3388 C3389 1.349 . S
C3388 C3390 1.327 . S
C3388 H3413 0.994 . S
C3389 C3388 1.349 . S
C3389 C3405 1.349 . S
C3390 C3388 1.327 . S
C3390 C3409 1.429 . S
C3390 H3414 0.950 . S
C3391 C3408 1.574 . S
C3391 C3410 1.368 . S
C3391 H3415 0.949 . S
H3392 C3396 0.949 . S
C3393 C3394 1.349 . S
C3393 C3395 1.327 . S
C3393 H3416 0.950 . S
C3394 C3393 1.349 . S
C3394 C3406 1.349 . S
C3395 C3393 1.327 . S
C3395 C3411 1.429 . S
C3395 H3417 0.950 . S
C3396 H3392 0.949 . S
C3396 C3404 1.574 . S
C3396 C3412 1.368 . S
H3397 C3405 0.950 . S
H3398 C3403 0.950 . S
H3399 C3404 0.949 . S
H3400 C3406 0.950 . S
H3401 C3407 0.950 . S
H3402 C3408 0.949 . S
C3403 H3398 0.950 . S
C3403 C3405 1.327 . S
C3403 C3409 1.429 . S
C3404 C3396 1.574 . S
C3404 H3399 0.949 . S
C3404 C3410 1.368 . S
C3405 C3389 1.349 . S
C3405 H3397 0.950 . S
C3405 C3403 1.327 . S
C3406 C3394 1.349 . S
C3406 H3400 0.950 . S
C3406 C3407 1.327 . S
C3407 H3401 0.950 . S
C3407 C3406 1.327 . S
C3407 C3411 1.429 . S
C3408 C3391 1.574 . S
C3408 H3402 0.949 . S
C3408 C3412 1.368 . S
C3409 C3390 1.429 . S
C3409 C3403 1.429 . S
C3409 C3410 1.523 . S
C3410 C3391 1.368 . S
C3410 C3404 1.368 . S
C3410 C3409 1.523 . S
C3411 C3395 1.429 . S
C3411 C3407 1.429 . S
C3411 C3412 1.523 . S
C3412 C3396 1.368 . S
C3412 C3408 1.368 . S
C3412 C3411 1.523 . S
H3413 C3388 0.994 . S
H3414 C3390 0.950 . S
H3415 C3391 0.949 . S
H3416 C3393 0.950 . S
H3417 C3395 0.950 . S
C3418 C3419 1.349 . S
C3418 C3420 1.327 . S
C3418 H3443 0.950 . S
C3419 C3418 1.349 . S
C3419 C3435 1.349 . S
C3420 C3418 1.327 . S
C3420 C3439 1.429 . S
C3420 H3444 0.950 . S
C3421 C3438 1.574 . S
C3421 C3440 1.368 . S
C3421 H3445 0.949 . S
H3422 C3426 0.949 . S
C3423 C3424 1.349 . S
C3423 C3425 1.327 . S
C3423 H3446 0.950 . S
C3424 C3423 1.349 . S
C3424 C3436 1.349 . S
C3425 C3423 1.327 . S
C3425 C3441 1.429 . S
C3425 H3447 0.950 . S
C3426 H3422 0.949 . S
C3426 C3434 1.574 . S
C3426 C3442 1.368 . S
H3427 C3435 0.950 . S
H3428 C3433 0.950 . S
H3429 C3434 0.949 . S
H3430 C3436 0.950 . S
H3431 C3437 0.950 . S
H3432 C3438 0.949 . S
C3433 H3428 0.950 . S
C3433 C3435 1.327 . S
C3433 C3439 1.429 . S
C3434 C3426 1.574 . S
C3434 H3429 0.949 . S
C3434 C3440 1.368 . S
C3435 C3419 1.349 . S
C3435 H3427 0.950 . S
C3435 C3433 1.327 . S
C3436 C3424 1.349 . S
C3436 H3430 0.950 . S
C3436 C3437 1.327 . S
C3437 H3431 0.950 . S
C3437 C3436 1.327 . S
C3437 C3441 1.429 . S
C3438 C3421 1.574 . S
C3438 H3432 0.949 . S
C3438 C3442 1.368 . S
C3439 C3420 1.429 . S
C3439 C3433 1.429 . S
C3439 C3440 1.523 . S
C3440 C3421 1.368 . S
C3440 C3434 1.368 . S
C3440 C3439 1.523 . S
C3441 C3425 1.429 . S
C3441 C3437 1.429 . S
C3441 C3442 1.523 . S
C3442 C3426 1.368 . S
C3442 C3438 1.368 . S
C3442 C3441 1.523 . S
H3443 C3418 0.950 . S
H3444 C3420 0.950 . S
H3445 C3421 0.949 . S
H3446 C3423 0.950 . S
H3447 C3425 0.950 . S
C3448 C3449 1.349 . S
C3448 C3450 1.327 . S
C3448 H3473 0.950 . S
C3449 C3448 1.349 . S
C3449 C3465 1.349 . S
C3450 C3448 1.327 . S
C3450 C3469 1.429 . S
C3450 H3474 0.950 . S
C3451 C3468 1.574 . S
C3451 C3470 1.368 . S
C3451 H3475 0.949 . S
H3452 C3456 0.949 . S
C3453 C3454 1.349 . S
C3453 C3455 1.327 . S
C3453 H3476 0.950 . S
C3454 C3453 1.349 . S
C3454 C3466 1.349 . S
C3455 C3453 1.327 . S
C3455 C3471 1.429 . S
C3455 H3477 0.950 . S
C3456 H3452 0.949 . S
C3456 C3464 1.574 . S
C3456 C3472 1.368 . S
H3457 C3465 0.950 . S
H3458 C3463 0.950 . S
H3459 C3464 0.949 . S
H3460 C3466 0.950 . S
H3461 C3467 0.950 . S
H3462 C3468 0.949 . S
C3463 H3458 0.950 . S
C3463 C3465 1.327 . S
C3463 C3469 1.429 . S
C3464 C3456 1.574 . S
C3464 H3459 0.949 . S
C3464 C3470 1.368 . S
C3465 C3449 1.349 . S
C3465 H3457 0.950 . S
C3465 C3463 1.327 . S
C3466 C3454 1.349 . S
C3466 H3460 0.950 . S
C3466 C3467 1.327 . S
C3467 H3461 0.950 . S
C3467 C3466 1.327 . S
C3467 C3471 1.429 . S
C3468 C3451 1.574 . S
C3468 H3462 0.949 . S
C3468 C3472 1.368 . S
C3469 C3450 1.429 . S
C3469 C3463 1.429 . S
C3469 C3470 1.523 . S
C3470 C3451 1.368 . S
C3470 C3464 1.368 . S
C3470 C3469 1.523 . S
C3471 C3455 1.429 . S
C3471 C3467 1.429 . S
C3471 C3472 1.523 . S
C3472 C3456 1.368 . S
C3472 C3468 1.368 . S
C3472 C3471 1.523 . S
H3473 C3448 0.950 . S
H3474 C3450 0.950 . S
H3475 C3451 0.949 . S
H3476 C3453 0.950 . S
H3477 C3455 0.950 . S
C3478 C3479 1.349 . S
C3478 C3480 1.327 . S
C3478 H3503 0.950 . S
C3479 C3478 1.349 . S
C3479 C3495 1.349 . S
C3480 C3478 1.327 . S
C3480 C3499 1.429 . S
C3480 H3504 0.950 . S
C3481 C3498 1.574 . S
C3481 C3500 1.368 . S
C3481 H3505 0.949 . S
H3482 C3486 0.949 . S
C3483 C3484 1.349 . S
C3483 C3485 1.327 . S
C3483 H3506 0.950 . S
C3484 C3483 1.349 . S
C3484 C3496 1.349 . S
C3485 C3483 1.327 . S
C3485 C3501 1.429 . S
C3485 H3507 0.950 . S
C3486 H3482 0.949 . S
C3486 C3494 1.574 . S
C3486 C3502 1.368 . S
H3487 C3495 0.950 . S
H3488 C3493 0.950 . S
H3489 C3494 0.949 . S
H3490 C3496 0.950 . S
H3491 C3497 0.950 . S
H3492 C3498 0.949 . S
C3493 H3488 0.950 . S
C3493 C3495 1.327 . S
C3493 C3499 1.429 . S
C3494 C3486 1.574 . S
C3494 H3489 0.949 . S
C3494 C3500 1.368 . S
C3495 C3479 1.349 . S
C3495 H3487 0.950 . S
C3495 C3493 1.327 . S
C3496 C3484 1.349 . S
C3496 H3490 0.950 . S
C3496 C3497 1.327 . S
C3497 H3491 0.950 . S
C3497 C3496 1.327 . S
C3497 C3501 1.429 . S
C3498 C3481 1.574 . S
C3498 H3492 0.949 . S
C3498 C3502 1.368 . S
C3499 C3480 1.429 . S
C3499 C3493 1.429 . S
C3499 C3500 1.523 . S
C3500 C3481 1.368 . S
C3500 C3494 1.368 . S
C3500 C3499 1.523 . S
C3501 C3485 1.429 . S
C3501 C3497 1.429 . S
C3501 C3502 1.523 . S
C3502 C3486 1.368 . S
C3502 C3498 1.368 . S
C3502 C3501 1.523 . S
H3503 C3478 0.950 . S
H3504 C3480 0.950 . S
H3505 C3481 0.949 . S
H3506 C3483 0.950 . S
H3507 C3485 0.950 . S
C3508 C3509 1.349 . S
C3508 C3510 1.327 . S
C3508 H3533 0.950 1_565 S
C3509 C3508 1.349 . S
C3509 C3525 1.349 . S
C3510 C3508 1.327 . S
C3510 C3529 1.429 . S
C3510 H3534 0.950 . S
C3511 C3528 1.574 . S
C3511 C3530 1.368 . S
C3511 H3535 0.949 . S
H3512 C3516 0.949 . S
C3513 C3514 1.349 . S
C3513 C3515 1.327 . S
C3513 H3536 0.950 . S
C3514 C3513 1.349 . S
C3514 C3526 1.349 . S
C3515 C3513 1.327 . S
C3515 C3531 1.429 . S
C3515 H3537 0.950 . S
C3516 H3512 0.949 . S
C3516 C3524 1.574 . S
C3516 C3532 1.368 . S
H3517 C3525 0.950 . S
H3518 C3523 0.950 . S
H3519 C3524 0.949 . S
H3520 C3526 0.950 . S
H3521 C3527 0.950 . S
H3522 C3528 0.949 . S
C3523 H3518 0.950 . S
C3523 C3525 1.327 . S
C3523 C3529 1.429 . S
C3524 C3516 1.574 . S
C3524 H3519 0.949 . S
C3524 C3530 1.368 . S
C3525 C3509 1.349 . S
C3525 H3517 0.950 . S
C3525 C3523 1.327 . S
C3526 C3514 1.349 . S
C3526 H3520 0.950 . S
C3526 C3527 1.327 . S
C3527 H3521 0.950 . S
C3527 C3526 1.327 . S
C3527 C3531 1.429 . S
C3528 C3511 1.574 . S
C3528 H3522 0.949 . S
C3528 C3532 1.368 . S
C3529 C3510 1.429 . S
C3529 C3523 1.429 . S
C3529 C3530 1.523 . S
C3530 C3511 1.368 . S
C3530 C3524 1.368 . S
C3530 C3529 1.523 . S
C3531 C3515 1.429 . S
C3531 C3527 1.429 . S
C3531 C3532 1.523 . S
C3532 C3516 1.368 . S
C3532 C3528 1.368 . S
C3532 C3531 1.523 . S
H3533 C3508 0.950 1_545 S
H3534 C3510 0.950 . S
H3535 C3511 0.949 . S
H3536 C3513 0.950 . S
H3537 C3515 0.950 . S
C3538 C3539 1.349 . S
C3538 C3540 1.327 . S
C3538 H3563 0.950 . S
C3539 C3538 1.349 . S
C3539 C3555 1.349 . S
C3540 C3538 1.327 . S
C3540 C3559 1.429 . S
C3540 H3564 0.950 . S
C3541 C3558 1.574 . S
C3541 C3560 1.368 . S
C3541 H3565 0.949 . S
H3542 C3546 0.949 . S
C3543 C3544 1.349 . S
C3543 C3545 1.327 . S
C3543 H3566 0.950 . S
C3544 C3543 1.349 . S
C3544 C3556 1.349 . S
C3545 C3543 1.327 . S
C3545 C3561 1.429 . S
C3545 H3567 0.950 . S
C3546 H3542 0.949 . S
C3546 C3554 1.574 1_655 S
C3546 C3562 1.368 . S
H3547 C3555 0.950 . S
H3548 C3553 0.950 . S
H3549 C3554 0.949 . S
H3550 C3556 0.950 . S
H3551 C3557 0.950 . S
H3552 C3558 0.949 1_655 S
C3553 H3548 0.950 . S
C3553 C3555 1.327 . S
C3553 C3559 1.429 . S
C3554 C3546 1.574 1_455 S
C3554 H3549 0.949 . S
C3554 C3560 1.368 . S
C3555 C3539 1.349 . S
C3555 H3547 0.950 . S
C3555 C3553 1.327 . S
C3556 C3544 1.349 . S
C3556 H3550 0.950 . S
C3556 C3557 1.327 . S
C3557 H3551 0.950 . S
C3557 C3556 1.327 . S
C3557 C3561 1.429 . S
C3558 C3541 1.574 . S
C3558 H3552 0.949 1_455 S
C3558 C3562 1.368 1_455 S
C3559 C3540 1.429 . S
C3559 C3553 1.429 . S
C3559 C3560 1.523 . S
C3560 C3541 1.368 . S
C3560 C3554 1.368 . S
C3560 C3559 1.523 . S
C3561 C3545 1.429 . S
C3561 C3557 1.429 . S
C3561 C3562 1.523 . S
C3562 C3546 1.368 . S
C3562 C3558 1.368 1_655 S
C3562 C3561 1.523 . S
H3563 C3538 0.950 . S
H3564 C3540 0.950 . S
H3565 C3541 0.949 . S
H3566 C3543 0.950 . S
H3567 C3545 0.950 . S
C694 C343 0.890 . S
C689 C11 0.908 . S
C719 C14 1.039 . S
C724 C363 1.019 . S
C754 C384 1.046 . S
C749 C37 1.075 . S
C784 C411 0.999 . S
C779 C47 1.033 . S
C814 C367 0.998 . S
C809 C61 1.029 . S
C839 C79 1.075 . S
C844 C387 1.046 . S
C874 C407 1.019 . S
C869 C84 1.039 . S
C899 C109 0.908 . S
C904 C340 0.890 . S
C929 C123 0.922 . S
C934 C345 0.903 . S
C964 C362 0.987 . S
C959 C131 1.021 . S
C994 C386 1.067 . S
C989 C140 1.094 . S
C1024 C410 0.996 . S
C1019 C163 1.018 . S
C1054 C366 0.995 . S
C1049 C121 1.018 . S
C1084 C389 1.067 . S
C1079 C126 1.091 . S
C1109 C145 1.022 . S
C1114 C406 0.988 . S
C1144 C342 0.903 . S
C1139 C165 0.922 . S
C1169 C168 0.960 . S
C1174 C344 0.943 . S
C1199 C193 0.979 . S
C1204 C431 0.956 . S
C1234 C451 1.021 . S
C1229 C205 1.048 . S
C1264 C474 1.029 . S
C1259 C215 1.066 . S
C1289 C224 0.960 . S
C1294 C341 0.942 . S
C1319 C247 1.048 . S
C1324 C385 1.021 . S
C1354 C475 0.956 . S
C1349 C207 0.979 . S
C1384 C430 1.029 . S
C1379 C257 1.066 . S
C1414 C498 1.020 . S
C1409 C23 1.041 . S
C1444 C519 0.958 . S
C1439 C0 0.974 . S
C1469 C53 0.889 . S
C1474 C538 0.876 . S
C1499 C33 1.055 . S
C1504 C563 1.028 . S
C1529 C103 1.055 . S
C1534 C518 1.028 . S
C1559 C95 0.889 . S
C1564 C543 0.875 . S
C1594 C562 0.958 . S
C1589 C70 0.974 . S
C1619 C65 1.042 . S
C1624 C495 1.024 . S
C1649 C271 1.078 . S
C1654 C499 1.045 . S
C1684 C520 1.000 . S
C1679 C219 1.016 . S
C1714 C539 0.877 . S
C1709 C235 0.891 . S
C1744 C564 0.959 . S
C1739 C182 0.976 . S
C1774 C516 0.960 . S
C1769 C266 0.976 . S
C1804 C541 0.877 . S
C1799 C221 0.890 . S
C1834 C560 1.000 . S
C1829 C233 1.016 . S
C1859 C187 1.078 . S
C1864 C496 1.045 . S
C1894 C497 0.975 . S
C1889 C289 0.995 . S
C1919 C154 1.026 . S
C1924 C583 1.009 . S
C1954 C608 0.944 . S
C1949 C299 0.967 . S
C1979 C137 0.968 . S
C1984 C627 0.951 . S
C2014 C494 0.975 . S
C2009 C149 0.998 . S
C2044 C540 0.944 . S
C2039 C313 0.968 . S
C2074 C631 1.009 . S
C2069 C294 1.026 . S
C2099 C333 0.968 . S
C2104 C587 0.951 . S
C2129 C39 0.909 . S
C2134 C651 0.890 . S
C2159 C42 1.038 . S
C2164 C429 1.019 . S
C2194 C453 1.046 . S
C2189 C9 1.075 . S
C2219 C19 1.032 . S
C2224 C477 0.999 . S
C2249 C89 1.033 . S
C2254 C433 0.999 . S
C2279 C107 1.075 . S
C2284 C450 1.046 . S
C2314 C473 1.019 . S
C2309 C56 1.042 . S
C2344 C648 0.890 . S
C2339 C81 0.908 . S
C2374 C653 0.903 . S
C2369 C305 0.922 . S
C2404 C428 0.987 . S
C2399 C285 1.021 . S
C2434 C455 1.068 . S
C2429 C322 1.091 . S
C2459 C317 1.019 . S
C2464 C476 0.996 . S
C2494 C432 0.996 . S
C2489 C303 1.018 . S
C2519 C280 1.091 . S
C2524 C452 1.067 . S
C2554 C472 0.988 . S
C2549 C327 1.022 . S
C2579 C319 0.922 . S
C2584 C650 0.902 . S
C2614 C652 0.943 . S
C2609 C210 0.960 . S
C2639 C249 0.979 . S
C2644 C365 0.956 . S
C2674 C388 1.021 . S
C2669 C275 1.048 . S
C2699 C173 1.066 . S
C2704 C408 1.029 . S
C2734 C649 0.942 . S
C2729 C252 0.960 . S
C2764 C454 1.021 . S
C2759 C191 1.048 . S
C2794 C409 0.956 . S
C2789 C277 0.979 . S
C2824 C364 1.029 . S
C2819 C229 1.066 . S
C2849 C51 1.041 . S
C2854 C675 1.021 . S
C2879 C28 0.974 . S
C2884 C585 0.958 . S
C2909 C25 0.889 . S
C2914 C604 0.876 . S
C2944 C629 1.028 . S
C2939 C5 1.055 . S
C2974 C584 1.028 . S
C2969 C75 1.055 . S
C2999 C67 0.889 . S
C3004 C609 0.872 . S
C3034 C628 0.958 . S
C3029 C98 0.974 . S
C3059 C93 1.041 . S
C3064 C670 1.021 . S
C3094 C673 1.045 . S
C3089 C201 1.078 . S
C3119 C177 1.016 . S
C3124 C586 1.000 . S
C3149 C263 0.890 . S
C3154 C605 0.877 . S
C3184 C630 0.959 . S
C3179 C238 0.976 . S
C3214 C582 0.960 . S
C3209 C196 0.976 . S
C3239 C179 0.890 . S
C3244 C607 0.877 . S
C3274 C626 1.000 . S
C3269 C261 1.016 . S
C3304 C671 1.045 . S
C3299 C243 1.078 . S
C3334 C674 0.975 . S
C3329 C135 0.995 . S
C3364 C517 1.009 . S
C3359 C308 1.026 . S
C3389 C117 0.967 . S
C3394 C542 0.944 . S
C3419 C291 0.968 . S
C3424 C561 0.951 . S
C3454 C672 0.975 . S
C3449 C331 0.995 . S
C3484 C606 0.944 . S
C3479 C159 0.967 . S
C3514 C565 1.009 . S
C3509 C112 1.026 . S
C3544 C521 0.951 . S
C3539 C151 0.966 . S
