# Generated by pormake.
# Topology pyr, (3,6)-cn, num edge types: 1
# Building blocks:
#     Node 0, Type 0, BuildingBlock: OLANEW_clean_sbu_2, # of connection points: 3
#     Node 1, Type 0, BuildingBlock: OLANEW_clean_sbu_2, # of connection points: 3
#     Node 2, Type 0, BuildingBlock: OLANEW_clean_sbu_2, # of connection points: 3
#     Node 3, Type 0, BuildingBlock: OLANEW_clean_sbu_2, # of connection points: 3
#     Node 4, Type 0, BuildingBlock: OLANEW_clean_sbu_2, # of connection points: 3
#     Node 5, Type 0, BuildingBlock: OLANEW_clean_sbu_2, # of connection points: 3
#     Node 6, Type 0, BuildingBlock: OLANEW_clean_sbu_2, # of connection points: 3
#     Node 7, Type 0, BuildingBlock: OLANEW_clean_sbu_2, # of connection points: 3
#     Node 8, Type 1, BuildingBlock: BETDEL_clean_sbu_0, # of connection points: 6
#     Node 9, Type 1, BuildingBlock: BETDEL_clean_sbu_0, # of connection points: 6
#     Node 10, Type 1, BuildingBlock: BETDEL_clean_sbu_0, # of connection points: 6
#     Node 11, Type 1, BuildingBlock: BETDEL_clean_sbu_0, # of connection points: 6
#     Edge 12, Type (0, 1), BuildingBlock: TEMPAE_clean_linker_10, # of connection points: 2
#     Edge 13, Type (0, 1), BuildingBlock: TEMPAE_clean_linker_10, # of connection points: 2
#     Edge 14, Type (0, 1), BuildingBlock: TEMPAE_clean_linker_10, # of connection points: 2
#     Edge 15, Type (0, 1), BuildingBlock: TEMPAE_clean_linker_10, # of connection points: 2
#     Edge 16, Type (0, 1), BuildingBlock: TEMPAE_clean_linker_10, # of connection points: 2
#     Edge 17, Type (0, 1), BuildingBlock: TEMPAE_clean_linker_10, # of connection points: 2
#     Edge 18, Type (0, 1), BuildingBlock: TEMPAE_clean_linker_10, # of connection points: 2
#     Edge 19, Type (0, 1), BuildingBlock: TEMPAE_clean_linker_10, # of connection points: 2
#     Edge 20, Type (0, 1), BuildingBlock: TEMPAE_clean_linker_10, # of connection points: 2
#     Edge 21, Type (0, 1), BuildingBlock: TEMPAE_clean_linker_10, # of connection points: 2
#     Edge 22, Type (0, 1), BuildingBlock: TEMPAE_clean_linker_10, # of connection points: 2
#     Edge 23, Type (0, 1), BuildingBlock: TEMPAE_clean_linker_10, # of connection points: 2
#     Edge 24, Type (0, 1), BuildingBlock: TEMPAE_clean_linker_10, # of connection points: 2
#     Edge 25, Type (0, 1), BuildingBlock: TEMPAE_clean_linker_10, # of connection points: 2
#     Edge 26, Type (0, 1), BuildingBlock: TEMPAE_clean_linker_10, # of connection points: 2
#     Edge 27, Type (0, 1), BuildingBlock: TEMPAE_clean_linker_10, # of connection points: 2
#     Edge 28, Type (0, 1), BuildingBlock: TEMPAE_clean_linker_10, # of connection points: 2
#     Edge 29, Type (0, 1), BuildingBlock: TEMPAE_clean_linker_10, # of connection points: 2
#     Edge 30, Type (0, 1), BuildingBlock: TEMPAE_clean_linker_10, # of connection points: 2
#     Edge 31, Type (0, 1), BuildingBlock: TEMPAE_clean_linker_10, # of connection points: 2
#     Edge 32, Type (0, 1), BuildingBlock: TEMPAE_clean_linker_10, # of connection points: 2
#     Edge 33, Type (0, 1), BuildingBlock: TEMPAE_clean_linker_10, # of connection points: 2
#     Edge 34, Type (0, 1), BuildingBlock: TEMPAE_clean_linker_10, # of connection points: 2
#     Edge 35, Type (0, 1), BuildingBlock: TEMPAE_clean_linker_10, # of connection points: 2
# Relax obj value: 0.054
# Max RMSD: 0.144
# Mean RMSD: 0.111
data_MOF--net-pyr--node1-OLANEW_clean_sbu_2--node2-BETDEL_clean_sbu_0--edge1-TEMPAE_clean_linker_10
_symmetry_space_group_name_H-M    P1
_symmetry_Int_Tables_number       1
_symmetry_cell_setting            triclinic
loop_
_symmetry_equiv_pos_as_xyz
'x, y, z'
_cell_length_a     39.424031
_cell_length_b     41.6571
_cell_length_c     37.218205
_cell_angle_alpha  96.493661
_cell_angle_beta   87.990645
_cell_angle_gamma 99.927374
loop_
_atom_site_label
_atom_site_type_symbol
_atom_site_fract_x
_atom_site_fract_y
_atom_site_fract_z
_atom_type_partial_charge
O0 O 0.24741 0.19667 0.12456 0.0
Cd1 Cd 0.18977 0.20901 0.14107 0.0
O2 O 0.25899 0.19747 0.18209 0.0
Cd3 Cd 0.20916 0.20596 0.20473 0.0
O4 O 0.17156 0.18875 0.24564 0.0
C5 C 0.15615 0.15924 0.24027 0.0
O6 O 0.1612 0.14209 0.20928 0.0
C7 C 0.26811 0.19364 0.14898 0.0
C8 C 0.16741 0.25924 0.10925 0.0
O9 O 0.18507 0.26533 0.13826 0.0
O10 O 0.16137 0.22951 0.09454 0.0
O11 O 0.30454 0.84487 0.78551 0.0
Cd12 Cd 0.2824 0.82917 0.72468 0.0
O13 O 0.26244 0.81834 0.81651 0.0
Cd14 Cd 0.23186 0.81024 0.7675 0.0
O15 O 0.21113 0.82959 0.72236 0.0
C16 C 0.17921 0.82591 0.71576 0.0
O17 O 0.15703 0.80799 0.73569 0.0
C18 C 0.29221 0.8358 0.81547 0.0
C19 C 0.32034 0.78311 0.69215 0.0
O20 O 0.33206 0.81387 0.69354 0.0
O21 O 0.29007 0.77402 0.70506 0.0
O22 O 0.7097 0.3998 0.86409 0.0
Cd23 Cd 0.6583 0.37174 0.83079 0.0
O24 O 0.70397 0.3692 0.90948 0.0
Cd25 Cd 0.65751 0.33354 0.89558 0.0
O26 O 0.62626 0.28764 0.90974 0.0
C27 C 0.64223 0.26426 0.91383 0.0
O28 O 0.67562 0.26837 0.90755 0.0
C29 C 0.7204 0.39285 0.89369 0.0
C30 C 0.63287 0.40992 0.78372 0.0
O31 O 0.61912 0.40646 0.81507 0.0
O32 O 0.65882 0.39582 0.77478 0.0
O33 O 0.86868 0.71874 0.38777 0.0
Cd34 Cd 0.83179 0.66854 0.36207 0.0
O35 O 0.90107 0.6933 0.41789 0.0
Cd36 Cd 0.86466 0.64764 0.40842 0.0
O37 O 0.81316 0.62024 0.41646 0.0
C38 C 0.80614 0.60671 0.44537 0.0
O39 O 0.83096 0.60737 0.46825 0.0
C40 C 0.8945 0.7197 0.40771 0.0
C41 C 0.86257 0.63856 0.30152 0.0
O42 O 0.84223 0.65889 0.29803 0.0
O43 O 0.86821 0.63243 0.33354 0.0
O44 O 0.90294 0.88904 0.90497 0.0
Cd45 Cd 0.86926 0.87652 0.95962 0.0
O46 O 0.86101 0.8654 0.86852 0.0
Cd47 Cd 0.82219 0.86146 0.91187 0.0
O48 O 0.77745 0.87575 0.94184 0.0
C49 C 0.76003 0.89248 0.92552 0.0
O50 O 0.76966 0.89911 0.89262 0.0
C51 C 0.89206 0.87957 0.8731 0.0
C52 C 0.8876 0.82103 0.98397 0.0
O53 O 0.86274 0.81854 0.96197 0.0
O54 O 0.90329 0.84985 0.99502 0.0
O55 O 0.78977 0.17 0.32858 0.0
Cd56 Cd 0.82654 0.19306 0.38002 0.0
O57 O 0.76619 0.2133 0.34458 0.0
Cd58 Cd 0.72689 0.24432 0.34438 0.0
O59 O 0.69041 0.2782 0.35399 0.0
C60 C 0.69577 0.29968 0.38115 0.0
O61 O 0.72269 0.30031 0.40124 0.0
C62 C 0.76712 0.18724 0.32345 0.0
C63 C 0.86268 0.15023 0.40869 0.0
O64 O 0.83125 0.15134 0.41795 0.0
O65 O 0.87674 0.16876 0.38513 0.0
O66 O 0.42032 0.74675 0.18413 0.0
Cd67 Cd 0.39658 0.68967 0.19412 0.0
O68 O 0.37946 0.76921 0.21361 0.0
Cd69 Cd 0.3485 0.72161 0.22084 0.0
O70 O 0.30491 0.683 0.20584 0.0
C71 C 0.30148 0.67365 0.17226 0.0
O72 O 0.3251 0.68613 0.14958 0.0
C73 C 0.40758 0.77217 0.19555 0.0
C74 C 0.41439 0.66716 0.258 0.0
O75 O 0.43521 0.66889 0.23078 0.0
O76 O 0.38554 0.67694 0.25551 0.0
O77 O 0.15752 0.40486 0.75246 0.0
Cd78 Cd 0.17592 0.37218 0.69891 0.0
O79 O 0.18621 0.38495 0.7919 0.0
Cd80 Cd 0.20038 0.34779 0.75072 0.0
O81 O 0.19202 0.30071 0.71718 0.0
C82 C 0.16075 0.28867 0.71039 0.0
O83 O 0.13674 0.30555 0.72278 0.0
C84 C 0.16666 0.40466 0.78487 0.0
C85 C 0.2327 0.40594 0.66406 0.0
O86 O 0.20201 0.40963 0.6574 0.0
O87 O 0.23652 0.38639 0.68728 0.0
Dy88 Dy 0.06397 0.00872 0.5162 0.0
C89 C 0.01188 0.96689 0.65419 0.0
C90 C 0.07844 0.03745 0.45396 0.0
Dy91 Dy 0.03199 0.99225 0.59085 0.0
O92 O 0.10032 0.02501 0.47121 0.0
O93 O 0.04876 0.03387 0.47053 0.0
O94 O 0.09868 0.97151 0.51842 0.0
O95 O 0.08299 0.99721 0.56644 0.0
C96 C 0.09852 0.97433 0.55365 0.0
C97 C 0.99627 0.02487 0.55208 0.0
O98 O 0.06966 0.03738 0.60823 0.0
O99 O 0.07678 0.05655 0.55178 0.0
O100 O 0.00179 0.99205 0.64304 0.0
O101 O 0.03311 0.95539 0.63067 0.0
O102 O 0.99605 0.02831 0.58717 0.0
O103 O 0.01271 0.00254 0.54021 0.0
O104 O 0.03181 0.96059 0.49818 0.0
O105 O 0.01659 0.94451 0.55552 0.0
C106 C 0.08007 0.06119 0.58747 0.0
C107 C 0.0178 0.93834 0.51963 0.0
Dy108 Dy 0.53968 0.0527 0.09936 0.0
C109 C 0.43543 0.9594 0.01491 0.0
C110 C 0.58419 0.09829 0.14041 0.0
Dy111 Dy 0.48613 0.00662 0.04479 0.0
O112 O 0.58992 0.08738 0.10698 0.0
O113 O 0.55372 0.08495 0.15096 0.0
O114 O 0.54107 0.00977 0.1304 0.0
O115 O 0.49648 0.01199 0.1026 0.0
C116 C 0.51101 0.9942 0.12018 0.0
C117 C 0.52183 0.05794 0.01341 0.0
O118 O 0.45326 0.03826 0.07738 0.0
O119 O 0.49619 0.08113 0.09944 0.0
O120 O 0.43476 0.99065 0.01892 0.0
O121 O 0.46407 0.95373 0.02727 0.0
O122 O 0.49924 0.0356 0.99614 0.0
O123 O 0.52351 0.05022 0.04472 0.0
O124 O 0.5741 0.02632 0.06224 0.0
O125 O 0.53302 0.98249 0.03838 0.0
C126 C 0.46342 0.06875 0.09234 0.0
C127 C 0.56551 0.9969 0.0439 0.0
Dy128 Dy 0.50987 0.50711 0.50616 0.0
C129 C 0.46536 0.61603 0.59269 0.0
C130 C 0.53846 0.45895 0.46682 0.0
Dy131 Dy 0.49575 0.56742 0.5569 0.0
O132 O 0.5183 0.45486 0.49485 0.0
O133 O 0.54253 0.48922 0.45992 0.0
O134 O 0.45322 0.48904 0.49968 0.0
O135 O 0.47141 0.51617 0.54799 0.0
C136 C 0.44464 0.50336 0.53072 0.0
C137 C 0.56112 0.57065 0.53476 0.0
O138 O 0.51274 0.53896 0.59841 0.0
O139 O 0.53661 0.50225 0.55725 0.0
O140 O 0.48564 0.61912 0.56465 0.0
O141 O 0.46217 0.58646 0.60186 0.0
O142 O 0.55207 0.58685 0.56446 0.0
O143 O 0.5349 0.55787 0.51648 0.0
O144 O 0.49545 0.53673 0.46465 0.0
O145 O 0.47008 0.57246 0.50517 0.0
C146 C 0.53109 0.51508 0.59084 0.0
C147 C 0.47715 0.56059 0.47168 0.0
Dy148 Dy 0.01752 0.49293 0.04309 0.0
C149 C 0.98219 0.61914 0.02522 0.0
C150 C 0.04495 0.43724 0.04528 0.0
Dy151 Dy 0.0066 0.56209 0.02835 0.0
O152 O 0.0189 0.44485 0.06476 0.0
O153 O 0.05567 0.45985 0.02423 0.0
O154 O 0.97563 0.49176 0.08578 0.0
O155 O 0.00622 0.53651 0.07599 0.0
C156 C 0.98028 0.52348 0.093 0.0
C157 C 0.0447 0.53157 0.97938 0.0
O158 O 0.05255 0.57695 0.0634 0.0
O159 O 0.06749 0.5251 0.06135 0.0
O160 O 0.00303 0.60713 0.00168 0.0
O161 O 0.97473 0.60004 0.05066 0.0
O162 O 0.04979 0.56323 0.98714 0.0
O163 O 0.01821 0.51861 0.99562 0.0
O164 O 0.97203 0.47872 0.00684 0.0
O165 O 0.95602 0.5303 0.01219 0.0
C166 C 0.07454 0.55746 0.06945 0.0
C167 C 0.94945 0.49818 0.00243 0.0
C168 C 0.12246 0.10968 0.26478 0.0
C169 C 0.13754 0.14288 0.27032 0.0
C170 C 0.10924 0.09247 0.29391 0.0
C171 C 0.11121 0.10883 0.32942 0.0
C172 C 0.12456 0.14277 0.33496 0.0
C173 C 0.13752 0.15942 0.30533 0.0
C174 C 0.09473 0.05638 0.28687 0.0
C175 C 0.12686 0.16111 0.37243 0.0
C176 C 0.06093 0.06821 0.406 0.0
C177 C 0.08641 0.0547 0.42147 0.0
C178 C 0.06844 0.0857 0.37579 0.0
C179 C 0.10227 0.08984 0.36094 0.0
C180 C 0.12797 0.07596 0.37635 0.0
C181 C 0.1197 0.05851 0.40645 0.0
C182 C 0.04034 0.10017 0.36022 0.0
C183 C 0.16433 0.07977 0.36123 0.0
H184 H 0.12207 0.09676 0.23779 0.0
H185 H 0.14894 0.18511 0.30986 0.0
H186 H 0.11196 0.04193 0.29849 0.0
H187 H 0.06915 0.0509 0.30033 0.0
H188 H 0.09201 0.04804 0.25753 0.0
H189 H 0.13496 0.18795 0.37185 0.0
H190 H 0.10163 0.15666 0.38678 0.0
H191 H 0.14577 0.15201 0.38837 0.0
H192 H 0.03514 0.06532 0.4177 0.0
H193 H 0.13941 0.0481 0.41845 0.0
H194 H 0.03945 0.09417 0.33042 0.0
H195 H 0.04586 0.12727 0.36587 0.0
H196 H 0.01458 0.09122 0.3719 0.0
H197 H 0.16419 0.06955 0.33238 0.0
H198 H 0.18119 0.06725 0.37619 0.0
H199 H 0.17569 0.10616 0.36246 0.0
C200 C 0.29888 0.83969 0.88293 0.0
C201 C 0.31231 0.84702 0.84881 0.0
C202 C 0.31698 0.85289 0.91462 0.0
C203 C 0.34896 0.87407 0.91199 0.0
C204 C 0.36326 0.88031 0.87755 0.0
C205 C 0.34485 0.86664 0.84648 0.0
C206 C 0.30123 0.84529 0.95088 0.0
C207 C 0.3973 0.90279 0.87347 0.0
C208 C 0.38082 0.94513 0.98121 0.0
C209 C 0.40956 0.93501 0.99454 0.0
C210 C 0.35905 0.92434 0.95637 0.0
C211 C 0.36622 0.89263 0.94472 0.0
C212 C 0.3935 0.88129 0.96051 0.0
C213 C 0.41502 0.90274 0.98528 0.0
C214 C 0.33018 0.93741 0.94034 0.0
C215 C 0.40156 0.84744 0.94925 0.0
H216 H 0.27387 0.82433 0.88497 0.0
H217 H 0.35566 0.87221 0.82028 0.0
H218 H 0.32077 0.83923 0.96857 0.0
H219 H 0.29178 0.8672 0.96457 0.0
H220 H 0.27925 0.82457 0.94822 0.0
H221 H 0.40575 0.90357 0.84475 0.0
H222 H 0.39505 0.92805 0.88523 0.0
H223 H 0.41761 0.89475 0.88844 0.0
H224 H 0.37632 0.96998 0.98871 0.0
H225 H 0.43707 0.89479 0.99591 0.0
H226 H 0.30598 0.91932 0.94018 0.0
H227 H 0.33683 0.9417 0.91185 0.0
H228 H 0.32543 0.96085 0.95539 0.0
H229 H 0.37759 0.829 0.94686 0.0
H230 H 0.41881 0.84015 0.9687 0.0
H231 H 0.41454 0.847 0.92231 0.0
C232 C 0.63932 0.44234 0.73043 0.0
C233 C 0.61852 0.42863 0.75803 0.0
C234 C 0.62565 0.45877 0.70483 0.0
C235 C 0.59008 0.46068 0.70618 0.0
C236 C 0.56904 0.44719 0.73428 0.0
C237 C 0.58362 0.43175 0.76016 0.0
C238 C 0.64918 0.47358 0.67594 0.0
C239 C 0.53086 0.44791 0.73618 0.0
C240 C 0.55588 0.52115 0.65296 0.0
C241 C 0.54573 0.50149 0.62076 0.0
C242 C 0.57074 0.50837 0.6809 0.0
C243 C 0.57452 0.47491 0.67693 0.0
C244 C 0.56362 0.45486 0.64471 0.0
C245 C 0.54986 0.46851 0.61686 0.0
C246 C 0.58292 0.53077 0.71437 0.0
C247 C 0.56632 0.41889 0.63967 0.0
H248 H 0.66637 0.44024 0.72884 0.0
H249 H 0.56738 0.42101 0.78131 0.0
H250 H 0.64197 0.46018 0.64909 0.0
H251 H 0.64629 0.4995 0.67491 0.0
H252 H 0.67666 0.47268 0.68059 0.0
H253 H 0.51827 0.43728 0.76035 0.0
H254 H 0.52613 0.47345 0.7368 0.0
H255 H 0.5184 0.43385 0.7116 0.0
H256 H 0.55298 0.54673 0.65594 0.0
H257 H 0.54174 0.45312 0.59215 0.0
H258 H 0.61083 0.53118 0.71797 0.0
H259 H 0.56932 0.52141 0.73866 0.0
H260 H 0.57859 0.55627 0.71309 0.0
H261 H 0.5937 0.41592 0.64032 0.0
H262 H 0.55526 0.40636 0.61368 0.0
H263 H 0.55267 0.40642 0.66218 0.0
C264 C 0.86897 0.62527 0.23447 0.0
C265 C 0.87912 0.62258 0.26963 0.0
C266 C 0.88427 0.60981 0.20414 0.0
C267 C 0.91055 0.59154 0.20912 0.0
C268 C 0.92115 0.58906 0.24451 0.0
C269 C 0.90518 0.60444 0.27432 0.0
C270 C 0.87215 0.61279 0.1668 0.0
C271 C 0.9494 0.57015 0.25091 0.0
C272 C 0.93147 0.52525 0.13722 0.0
C273 C 0.96129 0.54136 0.12114 0.0
C274 C 0.91402 0.54164 0.16516 0.0
C275 C 0.92699 0.57478 0.17746 0.0
C276 C 0.95672 0.59133 0.16071 0.0
C277 C 0.97345 0.57442 0.13264 0.0
C278 C 0.88212 0.5233 0.182 0.0
C279 C 0.97145 0.62659 0.17315 0.0
H280 H 0.8488 0.63919 0.23064 0.0
H281 H 0.9133 0.60239 0.30137 0.0
H282 H 0.89397 0.62412 0.15026 0.0
H283 H 0.86247 0.58807 0.15291 0.0
H284 H 0.85135 0.62778 0.16755 0.0
H285 H 0.95511 0.57113 0.28007 0.0
H286 H 0.94192 0.5441 0.23986 0.0
H287 H 0.97334 0.58013 0.23648 0.0
H288 H 0.92191 0.49973 0.12816 0.0
H289 H 0.99656 0.58692 0.12023 0.0
H290 H 0.86048 0.53711 0.1816 0.0
H291 H 0.88691 0.52102 0.21072 0.0
H292 H 0.87414 0.49834 0.1678 0.0
H293 H 0.95147 0.64225 0.17241 0.0
H294 H 0.99383 0.63632 0.15623 0.0
H295 H 0.97984 0.62868 0.20159 0.0
C296 C 0.32133 0.17487 0.16696 0.0
C297 C 0.30122 0.18207 0.13948 0.0
C298 C 0.34982 0.15917 0.15886 0.0
C299 C 0.35884 0.1508 0.12231 0.0
C300 C 0.34003 0.15978 0.09438 0.0
C301 C 0.31129 0.17517 0.10327 0.0
C302 C 0.369 0.14985 0.18947 0.0
C303 C 0.34927 0.15178 0.05507 0.0
C304 C 0.44615 0.12422 0.10457 0.0
C305 C 0.43695 0.08994 0.1005 0.0
C306 C 0.42097 0.14445 0.11078 0.0
C307 C 0.38586 0.13003 0.11358 0.0
C308 C 0.37648 0.09545 0.10963 0.0
C309 C 0.40208 0.07586 0.10288 0.0
C310 C 0.4319 0.18121 0.11431 0.0
C311 C 0.33938 0.07907 0.11299 0.0
H312 H 0.31395 0.18019 0.19509 0.0
H313 H 0.29609 0.18076 0.08186 0.0
H314 H 0.36485 0.12276 0.18882 0.0
H315 H 0.39708 0.15835 0.18635 0.0
H316 H 0.36042 0.16031 0.21637 0.0
H317 H 0.33495 0.16387 0.03687 0.0
H318 H 0.3773 0.15943 0.05034 0.0
H319 H 0.34322 0.12488 0.04767 0.0
H320 H 0.47301 0.13529 0.1023 0.0
H321 H 0.39474 0.04941 0.09984 0.0
H322 H 0.42493 0.19193 0.14165 0.0
H323 H 0.41804 0.19196 0.09448 0.0
H324 H 0.46005 0.18856 0.10987 0.0
H325 H 0.32894 0.08641 0.14018 0.0
H326 H 0.33636 0.0519 0.10891 0.0
H327 H 0.32354 0.08716 0.09282 0.0
C328 C 0.19075 0.86746 0.6714 0.0
C329 C 0.16719 0.84443 0.68837 0.0
C330 C 0.1796 0.88739 0.64787 0.0
C331 C 0.14406 0.88403 0.64082 0.0
C332 C 0.12024 0.86004 0.65679 0.0
C333 C 0.13208 0.84059 0.6805 0.0
C334 C 0.20577 0.91286 0.63158 0.0
C335 C 0.08218 0.85548 0.6495 0.0
C336 C 0.11254 0.95863 0.61324 0.0
C337 C 0.11069 0.95142 0.57562 0.0
C338 C 0.12299 0.93671 0.63479 0.0
C339 C 0.13178 0.90685 0.61825 0.0
C340 C 0.1298 0.89939 0.58022 0.0
C341 C 0.1194 0.92189 0.5593 0.0
C342 C 0.12474 0.94557 0.67525 0.0
C343 C 0.1386 0.86766 0.56169 0.0
H344 H 0.21793 0.87062 0.67726 0.0
H345 H 0.11372 0.82274 0.69333 0.0
H346 H 0.20363 0.9099 0.60171 0.0
H347 H 0.20059 0.93773 0.64146 0.0
H348 H 0.2326 0.91138 0.63852 0.0
H349 H 0.06714 0.83504 0.66309 0.0
H350 H 0.07222 0.87832 0.65907 0.0
H351 H 0.07768 0.85053 0.61998 0.0
H352 H 0.10581 0.98149 0.62588 0.0
H353 H 0.11771 0.9162 0.5302 0.0
H354 H 0.15129 0.94607 0.68452 0.0
H355 H 0.10745 0.92673 0.68915 0.0
H356 H 0.11719 0.96982 0.6838 0.0
H357 H 0.16583 0.86622 0.56675 0.0
H358 H 0.13478 0.86515 0.53201 0.0
H359 H 0.12239 0.84654 0.57303 0.0
C360 C 0.77712 0.43042 0.88858 0.0
C361 C 0.75312 0.41119 0.90946 0.0
C362 C 0.8093 0.44566 0.90261 0.0
C363 C 0.81746 0.44189 0.93851 0.0
C364 C 0.79296 0.42329 0.96001 0.0
C365 C 0.76123 0.40804 0.94519 0.0
C366 C 0.83487 0.46512 0.87878 0.0
C367 C 0.80044 0.41908 0.99858 0.0
C368 C 0.91079 0.45222 0.96697 0.0
C369 C 0.916 0.48395 0.9853 0.0
C370 C 0.8791 0.43854 0.95087 0.0
C371 C 0.85182 0.45686 0.95355 0.0
C372 C 0.85697 0.48895 0.97186 0.0
C373 C 0.88903 0.50216 0.98733 0.0
C374 C 0.87471 0.40435 0.93126 0.0
C375 C 0.82842 0.50911 0.97571 0.0
H376 H 0.77116 0.43286 0.86091 0.0
H377 H 0.74279 0.39341 0.96164 0.0
H378 H 0.84275 0.49045 0.89194 0.0
H379 H 0.85843 0.45382 0.87495 0.0
H380 H 0.8243 0.46636 0.85179 0.0
H381 H 0.77811 0.40494 0.01215 0.0
H382 H 0.82273 0.40613 0.9991 0.0
H383 H 0.8075 0.4434 0.01443 0.0
H384 H 0.93154 0.43806 0.96503 0.0
H385 H 0.89273 0.52665 0.00157 0.0
H386 H 0.86611 0.40452 0.90323 0.0
H387 H 0.85446 0.3879 0.94501 0.0
H388 H 0.89889 0.39394 0.93014 0.0
H389 H 0.81884 0.51165 0.94868 0.0
H390 H 0.83686 0.53399 0.98993 0.0
H391 H 0.80641 0.49645 0.99104 0.0
C392 C 0.76197 0.58093 0.48812 0.0
C393 C 0.76987 0.59476 0.45555 0.0
C394 C 0.72775 0.57347 0.50041 0.0
C395 C 0.70086 0.58021 0.47975 0.0
C396 C 0.7085 0.59254 0.44595 0.0
C397 C 0.74292 0.59958 0.4342 0.0
C398 C 0.72047 0.55959 0.53619 0.0
C399 C 0.68047 0.5998 0.42304 0.0
C400 C 0.6074 0.5459 0.50046 0.0
C401 C 0.5969 0.57261 0.52135 0.0
C402 C 0.64138 0.5476 0.48725 0.0
C403 C 0.66516 0.57703 0.4948 0.0
C404 C 0.6547 0.60396 0.51645 0.0
C405 C 0.62073 0.60127 0.52981 0.0
C406 C 0.65152 0.51807 0.46489 0.0
C407 C 0.67924 0.63581 0.52504 0.0
H408 H 0.78259 0.57681 0.50463 0.0
H409 H 0.74874 0.61007 0.40888 0.0
H410 H 0.71071 0.57791 0.55608 0.0
H411 H 0.70014 0.53749 0.53313 0.0
H412 H 0.74378 0.55294 0.54734 0.0
H413 H 0.69043 0.60742 0.39646 0.0
H414 H 0.66012 0.57787 0.41828 0.0
H415 H 0.66823 0.61972 0.43755 0.0
H416 H 0.58927 0.52344 0.49518 0.0
H417 H 0.61258 0.62188 0.54621 0.0
H418 H 0.67737 0.51411 0.47233 0.0
H419 H 0.65268 0.52217 0.4359 0.0
H420 H 0.6327 0.4954 0.46812 0.0
H421 H 0.70206 0.63136 0.53911 0.0
H422 H 0.66707 0.65433 0.54236 0.0
H423 H 0.6886 0.64615 0.4996 0.0
C424 C 0.12951 0.2777 0.06574 0.0
C425 C 0.15258 0.28539 0.09456 0.0
C426 C 0.11257 0.30163 0.05405 0.0
C427 C 0.11894 0.33404 0.07152 0.0
C428 C 0.14327 0.34225 0.09961 0.0
C429 C 0.15973 0.31784 0.11083 0.0
C430 C 0.08687 0.29192 0.02398 0.0
C431 C 0.15098 0.37659 0.11876 0.0
C432 C 0.09228 0.40494 0.02953 0.0
C433 C 0.06218 0.4091 0.0494 0.0
C434 C 0.11063 0.38003 0.03568 0.0
C435 C 0.09851 0.35886 0.06231 0.0
C436 C 0.06747 0.36236 0.08155 0.0
C437 C 0.0497 0.38747 0.07487 0.0
C438 C 0.14353 0.37707 0.01453 0.0
C439 C 0.05354 0.3402 0.11001 0.0
H440 H 0.12384 0.25272 0.05296 0.0
H441 H 0.17763 0.32407 0.13299 0.0
H442 H 0.06061 0.29371 0.03484 0.0
H443 H 0.09249 0.30893 0.00282 0.0
H444 H 0.0869 0.26649 0.01121 0.0
H445 H 0.17225 0.37952 0.1383 0.0
H446 H 0.15806 0.3946 0.09882 0.0
H447 H 0.12763 0.38267 0.13362 0.0
H448 H 0.10195 0.42164 0.00976 0.0
H449 H 0.0264 0.39062 0.09023 0.0
H450 H 0.1429 0.3515 0.00203 0.0
H451 H 0.16569 0.38305 0.03308 0.0
H452 H 0.14801 0.39373 0.9929 0.0
H453 H 0.05066 0.31415 0.09846 0.0
H454 H 0.0282 0.34505 0.1212 0.0
H455 H 0.07197 0.3437 0.13254 0.0
C456 C 0.59016 0.23114 0.9407 0.0
C457 C 0.62418 0.23359 0.92747 0.0
C458 C 0.57353 0.2027 0.95519 0.0
C459 C 0.5912 0.17595 0.95617 0.0
C460 C 0.62538 0.17814 0.94249 0.0
C461 C 0.64147 0.20695 0.92845 0.0
C462 C 0.53711 0.20134 0.96968 0.0
C463 C 0.64497 0.15004 0.94269 0.0
C464 C 0.55994 0.11273 0.02161 0.0
C465 C 0.54051 0.08768 0.9989 0.0
C466 C 0.57659 0.14165 0.00812 0.0
C467 C 0.57379 0.14544 0.97101 0.0
C468 C 0.55441 0.11999 0.94796 0.0
C469 C 0.53789 0.09147 0.96223 0.0
C470 C 0.59686 0.16827 0.03362 0.0
C471 C 0.55103 0.12292 0.90821 0.0
H472 H 0.57665 0.25165 0.94022 0.0
H473 H 0.66773 0.20856 0.91823 0.0
H474 H 0.51984 0.18063 0.95478 0.0
H475 H 0.53599 0.19684 0.99856 0.0
H476 H 0.52708 0.22434 0.96733 0.0
H477 H 0.67133 0.15557 0.93089 0.0
H478 H 0.64703 0.14419 0.9708 0.0
H479 H 0.63084 0.12776 0.9271 0.0
H480 H 0.5617 0.10991 0.05004 0.0
H481 H 0.52281 0.0721 0.94464 0.0
H482 H 0.58595 0.19117 0.03424 0.0
H483 H 0.62395 0.17373 0.02389 0.0
H484 H 0.59674 0.16139 0.06162 0.0
H485 H 0.53884 0.14445 0.90477 0.0
H486 H 0.53539 0.10074 0.89387 0.0
H487 H 0.57691 0.12697 0.89512 0.0
C488 C 0.90286 0.78084 0.41844 0.0
C489 C 0.91532 0.75163 0.42108 0.0
C490 C 0.92068 0.81108 0.43379 0.0
C491 C 0.95199 0.81222 0.45174 0.0
C492 C 0.96533 0.78299 0.45346 0.0
C493 C 0.9467 0.75299 0.43834 0.0
C494 C 0.90547 0.8417 0.4317 0.0
C495 C 0.99896 0.78335 0.47185 0.0
C496 C 0.00955 0.89542 0.46654 0.0
C497 C 0.00191 0.90558 0.50272 0.0
C498 C 0.99413 0.86474 0.44984 0.0
C499 C 0.97015 0.84393 0.46964 0.0
C500 C 0.9626 0.85388 0.50627 0.0
C501 C 0.97876 0.8845 0.52245 0.0
C502 C 0.00323 0.85474 0.4109 0.0
C503 C 0.93687 0.83248 0.52816 0.0
H504 H 0.87857 0.78001 0.40531 0.0
H505 H 0.95658 0.73054 0.44033 0.0
H506 H 0.89995 0.85273 0.45938 0.0
H507 H 0.9242 0.86018 0.41881 0.0
H508 H 0.88125 0.83673 0.41612 0.0
H509 H 0.00678 0.7588 0.46901 0.0
H510 H 0.01972 0.80096 0.46033 0.0
H511 H 0.99661 0.7917 0.50107 0.0
H512 H 0.02769 0.91142 0.4512 0.0
H513 H 0.97268 0.89219 0.55039 0.0
H514 H 0.98006 0.85171 0.39397 0.0
H515 H 0.01215 0.83072 0.40845 0.0
H516 H 0.02367 0.87303 0.39987 0.0
H517 H 0.91123 0.82825 0.5154 0.0
H518 H 0.93433 0.84356 0.5565 0.0
H519 H 0.94467 0.80818 0.52855 0.0
C520 C 0.37764 0.76621 0.68073 0.0
C521 C 0.34177 0.75883 0.67746 0.0
C522 C 0.39844 0.74298 0.66838 0.0
C523 C 0.38303 0.71208 0.65129 0.0
C524 C 0.34681 0.70471 0.6474 0.0
C525 C 0.32653 0.72803 0.66113 0.0
C526 C 0.43686 0.75139 0.67394 0.0
C527 C 0.32956 0.67241 0.62831 0.0
C528 C 0.43999 0.66589 0.58805 0.0
C529 C 0.44562 0.6412 0.6086 0.0
C530 C 0.41933 0.6889 0.60148 0.0
C531 C 0.40489 0.68773 0.63677 0.0
C532 C 0.41124 0.66328 0.658 0.0
C533 C 0.43112 0.63989 0.64337 0.0
C534 C 0.41238 0.714 0.57763 0.0
C535 C 0.3971 0.66187 0.69612 0.0
H536 H 0.3894 0.78992 0.69378 0.0
H537 H 0.29877 0.72239 0.65851 0.0
H538 H 0.44554 0.73273 0.68884 0.0
H539 H 0.45059 0.75105 0.64741 0.0
H540 H 0.44457 0.77591 0.68924 0.0
H541 H 0.30122 0.67084 0.62676 0.0
H542 H 0.34027 0.66897 0.60043 0.0
H543 H 0.33485 0.65187 0.64258 0.0
H544 H 0.45093 0.66664 0.56095 0.0
H545 H 0.43555 0.62074 0.65921 0.0
H546 H 0.42198 0.73909 0.59056 0.0
H547 H 0.38422 0.71198 0.57417 0.0
H548 H 0.42479 0.71097 0.55048 0.0
H549 H 0.40532 0.68577 0.71246 0.0
H550 H 0.40578 0.64231 0.70961 0.0
H551 H 0.36855 0.65733 0.69588 0.0
C552 C 0.94761 0.90587 0.84581 0.0
C553 C 0.91458 0.88708 0.84129 0.0
C554 C 0.96741 0.91653 0.81594 0.0
C555 C 0.95383 0.9082 0.78076 0.0
C556 C 0.92143 0.88762 0.77586 0.0
C557 C 0.9022 0.87732 0.80616 0.0
C558 C 0.00197 0.93825 0.82224 0.0
C559 C 0.90613 0.87801 0.73876 0.0
C560 C 0.97666 0.96804 0.71076 0.0
C561 C 0.99935 0.95276 0.68774 0.0
C562 C 0.96252 0.95417 0.74166 0.0
C563 C 0.97124 0.92421 0.7497 0.0
C564 C 0.99499 0.90912 0.72709 0.0
C565 C 0.00882 0.92363 0.69626 0.0
C566 C 0.93747 0.9712 0.76516 0.0
C567 C 0.005 0.87724 0.73482 0.0
H568 H 0.95756 0.91334 0.87282 0.0
H569 H 0.87688 0.86253 0.80231 0.0
H570 H 0.02168 0.92975 0.80321 0.0
H571 H 0.00013 0.96361 0.8171 0.0
H572 H 0.01084 0.9389 0.85036 0.0
H573 H 0.8825 0.85916 0.73912 0.0
H574 H 0.89945 0.89996 0.72819 0.0
H575 H 0.92514 0.86839 0.71964 0.0
H576 H 0.96946 0.99067 0.7043 0.0
H577 H 0.02645 0.91186 0.67846 0.0
H578 H 0.94613 0.97555 0.7936 0.0
H579 H 0.91178 0.95532 0.7648 0.0
H580 H 0.93463 0.99507 0.75604 0.0
H581 H 0.0129 0.8788 0.76337 0.0
H582 H 0.02637 0.8705 0.71687 0.0
H583 H 0.98244 0.85727 0.7309 0.0
C584 C 0.72969 0.14304 0.28502 0.0
C585 C 0.74151 0.1765 0.2946 0.0
C586 C 0.70428 0.13249 0.25877 0.0
C587 C 0.69061 0.15599 0.24154 0.0
C588 C 0.7031 0.18979 0.25049 0.0
C589 C 0.72857 0.19962 0.27678 0.0
C590 C 0.69166 0.0962 0.2499 0.0
C591 C 0.68937 0.21555 0.23251 0.0
C592 C 0.64504 0.12419 0.15311 0.0
C593 C 0.61065 0.11757 0.16488 0.0
C594 C 0.67133 0.13777 0.17758 0.0
C595 C 0.66287 0.14505 0.21457 0.0
C596 C 0.62794 0.14001 0.22616 0.0
C597 C 0.60223 0.12621 0.20115 0.0
C598 C 0.70825 0.14281 0.16418 0.0
C599 C 0.61786 0.14781 0.26527 0.0
H600 H 0.7398 0.12512 0.29863 0.0
H601 H 0.73866 0.22544 0.28305 0.0
H602 H 0.66372 0.09039 0.25631 0.0
H603 H 0.69506 0.08905 0.22053 0.0
H604 H 0.70545 0.0811 0.26515 0.0
H605 H 0.70191 0.24081 0.24245 0.0
H606 H 0.69344 0.21164 0.20281 0.0
H607 H 0.66121 0.21342 0.23758 0.0
H608 H 0.6516 0.11745 0.12506 0.0
H609 H 0.57562 0.12115 0.21027 0.0
H610 H 0.7223 0.12565 0.17589 0.0
H611 H 0.72138 0.16805 0.17318 0.0
H612 H 0.71027 0.13859 0.13423 0.0
H613 H 0.62789 0.13125 0.28207 0.0
H614 H 0.58949 0.14492 0.26934 0.0
H615 H 0.62949 0.17329 0.27528 0.0
C616 C 0.39654 0.63914 0.31341 0.0
C617 C 0.42287 0.65304 0.29071 0.0
C618 C 0.40406 0.62376 0.3432 0.0
C619 C 0.43879 0.62301 0.35106 0.0
C620 C 0.46552 0.63778 0.32877 0.0
C621 C 0.45721 0.65221 0.29859 0.0
C622 C 0.37479 0.60769 0.3658 0.0
C623 C 0.50291 0.63828 0.33673 0.0
C624 C 0.4601 0.60845 0.44626 0.0
C625 C 0.46555 0.57581 0.44119 0.0
C626 C 0.45142 0.62411 0.41721 0.0
C627 C 0.44723 0.60649 0.38237 0.0
C628 C 0.45177 0.57325 0.3773 0.0
C629 C 0.46133 0.55845 0.40666 0.0
C630 C 0.44762 0.65977 0.42364 0.0
C631 C 0.44671 0.55336 0.3408 0.0
H632 H 0.36993 0.63945 0.30727 0.0
H633 H 0.47767 0.66306 0.28124 0.0
H634 H 0.3759 0.58121 0.3654 0.0
H635 H 0.37725 0.61863 0.39437 0.0
H636 H 0.3492 0.61024 0.35599 0.0
H637 H 0.52062 0.65212 0.31782 0.0
H638 H 0.50868 0.64957 0.36478 0.0
H639 H 0.50826 0.61286 0.33478 0.0
H640 H 0.46367 0.62214 0.4728 0.0
H641 H 0.46534 0.53318 0.40262 0.0
H642 H 0.42165 0.66285 0.41558 0.0
H643 H 0.46665 0.67441 0.40664 0.0
H644 H 0.45149 0.66993 0.45239 0.0
H645 H 0.42081 0.55412 0.3305 0.0
H646 H 0.44934 0.52734 0.34179 0.0
H647 H 0.46593 0.56406 0.32108 0.0
C648 C 0.16221 0.42575 0.85049 0.0
C649 C 0.15268 0.4258 0.81449 0.0
C650 C 0.14698 0.44374 0.87894 0.0
C651 C 0.12154 0.46203 0.87119 0.0
C652 C 0.11242 0.4628 0.83489 0.0
C653 C 0.12819 0.4448 0.80701 0.0
C654 C 0.15752 0.44257 0.91734 0.0
C655 C 0.08523 0.48186 0.82556 0.0
C656 C 0.05404 0.48019 0.94218 0.0
C657 C 0.06534 0.51349 0.95318 0.0
C658 C 0.07261 0.46291 0.91617 0.0
C659 C 0.10328 0.47936 0.90096 0.0
C660 C 0.11531 0.51279 0.91277 0.0
C661 C 0.09606 0.52953 0.93867 0.0
C662 C 0.05887 0.42731 0.90424 0.0
C663 C 0.14812 0.53101 0.8975 0.0
H664 H 0.18116 0.41123 0.85654 0.0
H665 H 0.12062 0.44501 0.77932 0.0
H666 H 0.16536 0.4678 0.93082 0.0
H667 H 0.13531 0.43068 0.93298 0.0
H668 H 0.17913 0.42882 0.91865 0.0
H669 H 0.08184 0.48073 0.79591 0.0
H670 H 0.06018 0.47197 0.83805 0.0
H671 H 0.09211 0.50794 0.83671 0.0
H672 H 0.03027 0.46775 0.95342 0.0
H673 H 0.10494 0.55524 0.94739 0.0
H674 H 0.07877 0.41207 0.90754 0.0
H675 H 0.05254 0.42428 0.8751 0.0
H676 H 0.0354 0.41783 0.91977 0.0
H677 H 0.16971 0.51753 0.90008 0.0
H678 H 0.15514 0.55626 0.91129 0.0
H679 H 0.1451 0.53255 0.86825 0.0
C680 C 0.71213 0.9247 0.92514 0.0
C681 C 0.7302 0.90543 0.94341 0.0
C682 C 0.68466 0.9383 0.94192 0.0
C683 C 0.67492 0.93246 0.97788 0.0
C684 C 0.69263 0.91258 0.99631 0.0
C685 C 0.7201 0.89931 0.97886 0.0
C686 C 0.66643 0.95938 0.92135 0.0
C687 C 0.68289 0.90575 0.03464 0.0
C688 C 0.62805 0.99512 0.03134 0.0
C689 C 0.59352 0.97972 0.02826 0.0
C690 C 0.6548 0.97974 0.01565 0.0
C691 C 0.64691 0.94813 0.99644 0.0
C692 C 0.61222 0.93216 0.99376 0.0
C693 C 0.58594 0.94815 0.00965 0.0
C694 C 0.69148 0.99762 0.01903 0.0
C695 C 0.60282 0.89841 0.97356 0.0
H696 H 0.71966 0.92954 0.89772 0.0
H697 H 0.73387 0.8844 0.99316 0.0
H698 H 0.63844 0.94952 0.92035 0.0
H699 H 0.66945 0.98459 0.9355 0.0
H700 H 0.67652 0.96079 0.89322 0.0
H701 H 0.69834 0.8888 0.04472 0.0
H702 H 0.68673 0.92905 0.05282 0.0
H703 H 0.65521 0.8949 0.03636 0.0
H704 H 0.63429 0.01947 0.04566 0.0
H705 H 0.5594 0.93594 0.0072 0.0
H706 H 0.70244 0.00203 0.99181 0.0
H707 H 0.7076 0.98238 0.03105 0.0
H708 H 0.6934 0.02157 0.03599 0.0
H709 H 0.61033 0.89918 0.94462 0.0
H710 H 0.5748 0.88873 0.97536 0.0
H711 H 0.61717 0.88105 0.98444 0.0
C712 C 0.86573 0.10443 0.44585 0.0
C713 C 0.88264 0.12939 0.42609 0.0
C714 C 0.88442 0.08602 0.46459 0.0
C715 C 0.92086 0.09316 0.46408 0.0
C716 C 0.9381 0.11782 0.4435 0.0
C717 C 0.91876 0.1355 0.42454 0.0
C718 C 0.86517 0.05936 0.48554 0.0
C719 C 0.97692 0.1265 0.44272 0.0
C720 C 0.96574 0.07107 0.54416 0.0
C721 C 0.97742 0.04245 0.52945 0.0
C722 C 0.94769 0.08807 0.52299 0.0
C723 C 0.94084 0.07583 0.48641 0.0
C724 C 0.95264 0.04688 0.47146 0.0
C725 C 0.97089 0.03055 0.49319 0.0
C726 C 0.93597 0.11913 0.53975 0.0
C727 C 0.94577 0.03304 0.43262 0.0
H728 H 0.83783 0.09944 0.44693 0.0
H729 H 0.93198 0.15488 0.40947 0.0
H730 H 0.87462 0.03595 0.47748 0.0
H731 H 0.86996 0.06589 0.51487 0.0
H732 H 0.83694 0.05539 0.48122 0.0
H733 H 0.98643 0.14343 0.42216 0.0
H734 H 0.98592 0.13846 0.46967 0.0
H735 H 0.98875 0.10413 0.43698 0.0
H736 H 0.97093 0.08031 0.57219 0.0
H737 H 0.9797 0.00821 0.48191 0.0
H738 H 0.90746 0.11604 0.53928 0.0
H739 H 0.94629 0.1397 0.52377 0.0
H740 H 0.9444 0.12595 0.56817 0.0
H741 H 0.91761 0.02778 0.42794 0.0
H742 H 0.95647 0.01014 0.42525 0.0
H743 H 0.95726 0.0513 0.41422 0.0
C744 C 0.26513 0.64413 0.12107 0.0
C745 C 0.2697 0.65201 0.15844 0.0
C746 C 0.23389 0.62653 0.10722 0.0
C747 C 0.20655 0.61647 0.13131 0.0
C748 C 0.21144 0.62314 0.1691 0.0
C749 C 0.24297 0.64086 0.18224 0.0
C750 C 0.2297 0.61985 0.06673 0.0
C751 C 0.18294 0.61261 0.19563 0.0
C752 C 0.11615 0.60636 0.09498 0.0
C753 C 0.1079 0.57228 0.08641 0.0
C754 C 0.14797 0.62094 0.11006 0.0
C755 C 0.17219 0.60098 0.11683 0.0
C756 C 0.16391 0.56654 0.10875 0.0
C757 C 0.13188 0.55259 0.09358 0.0
C758 C 0.15586 0.65779 0.11825 0.0
C759 C 0.18906 0.54449 0.11568 0.0
H760 H 0.28567 0.65249 0.10246 0.0
H761 H 0.24631 0.64672 0.21116 0.0
H762 H 0.22044 0.59337 0.05891 0.0
H763 H 0.21003 0.63337 0.0581 0.0
H764 H 0.25413 0.62738 0.05176 0.0
H765 H 0.19172 0.61734 0.22407 0.0
H766 H 0.16138 0.62609 0.19296 0.0
H767 H 0.17265 0.5861 0.18961 0.0
H768 H 0.09787 0.62184 0.08962 0.0
H769 H 0.12579 0.52623 0.08712 0.0
H770 H 0.17863 0.66778 0.10207 0.0
H771 H 0.16237 0.66454 0.14719 0.0
H772 H 0.13393 0.66975 0.11219 0.0
H773 H 0.2128 0.55034 0.0991 0.0
H774 H 0.1782 0.51811 0.10918 0.0
H775 H 0.19673 0.54878 0.14445 0.0
C776 C 0.25945 0.44944 0.62547 0.0
C777 C 0.26281 0.4233 0.64504 0.0
C778 C 0.28772 0.4656 0.60673 0.0
C779 C 0.31992 0.45498 0.60709 0.0
C780 C 0.32349 0.42874 0.62698 0.0
C781 C 0.29497 0.4134 0.64594 0.0
C782 C 0.28311 0.49388 0.58639 0.0
C783 C 0.35731 0.41645 0.62771 0.0
C784 C 0.38564 0.47008 0.53124 0.0
C785 C 0.41076 0.49431 0.54845 0.0
C786 C 0.35532 0.45782 0.54965 0.0
C787 C 0.3498 0.47053 0.58591 0.0
C788 C 0.37418 0.49637 0.60266 0.0
C789 C 0.40456 0.50774 0.58381 0.0
C790 C 0.3301 0.43008 0.53091 0.0
C791 C 0.36893 0.51106 0.641 0.0
H792 H 0.23471 0.45737 0.62488 0.0
H793 H 0.29774 0.39317 0.66091 0.0
H794 H 0.30215 0.51591 0.59555 0.0
H795 H 0.28793 0.48775 0.55708 0.0
H796 H 0.25682 0.50009 0.59014 0.0
H797 H 0.35583 0.39585 0.64455 0.0
H798 H 0.36524 0.40804 0.59981 0.0
H799 H 0.37777 0.43662 0.6385 0.0
H800 H 0.39032 0.45966 0.50386 0.0
H801 H 0.42392 0.52648 0.59718 0.0
H802 H 0.30376 0.43619 0.5326 0.0
H803 H 0.32933 0.40769 0.5447 0.0
H804 H 0.33705 0.42442 0.50198 0.0
H805 H 0.34266 0.5172 0.64477 0.0
H806 H 0.38804 0.53356 0.64843 0.0
H807 H 0.37139 0.4929 0.65996 0.0
C808 C 0.92765 0.79452 0.01702 0.0
C809 C 0.89892 0.79147 0.9949 0.0
C810 C 0.94045 0.76676 0.02504 0.0
C811 C 0.92412 0.7352 0.01062 0.0
C812 C 0.89434 0.7319 0.98942 0.0
C813 C 0.88211 0.76007 0.98179 0.0
C814 C 0.97224 0.77127 0.0478 0.0
C815 C 0.87613 0.69865 0.97366 0.0
C816 C 0.97795 0.66765 0.99341 0.0
C817 C 0.96809 0.64932 0.02247 0.0
C818 C 0.96406 0.69584 0.98951 0.0
C819 C 0.93966 0.70587 0.01532 0.0
C820 C 0.92987 0.6876 0.045 0.0
C821 C 0.94427 0.65948 0.04825 0.0
C822 C 0.97525 0.71469 0.95754 0.0
C823 C 0.90393 0.69754 0.07303 0.0
H824 H 0.94074 0.81868 0.02738 0.0
H825 H 0.85981 0.75747 0.96481 0.0
H826 H 0.96763 0.75565 0.07031 0.0
H827 H 0.99382 0.76345 0.03104 0.0
H828 H 0.98029 0.79716 0.05931 0.0
H829 H 0.85188 0.70009 0.96005 0.0
H830 H 0.89331 0.68737 0.95361 0.0
H831 H 0.87 0.68208 0.99518 0.0
H832 H 0.99641 0.65983 0.97347 0.0
H833 H 0.93663 0.64529 0.07076 0.0
H834 H 0.98601 0.74053 0.96704 0.0
H835 H 0.95268 0.71499 0.94066 0.0
H836 H 0.99496 0.70398 0.94031 0.0
H837 H 0.91267 0.72306 0.08524 0.0
H838 H 0.89976 0.68119 0.09496 0.0
H839 H 0.87892 0.69699 0.06003 0.0
C840 C 0.41466 0.83353 0.20356 0.0
C841 C 0.42393 0.80482 0.18545 0.0
C842 C 0.42841 0.86447 0.19284 0.0
C843 C 0.45152 0.86677 0.16287 0.0
C844 C 0.46093 0.83789 0.14443 0.0
C845 C 0.44729 0.80731 0.15615 0.0
C846 C 0.41826 0.89473 0.21365 0.0
C847 C 0.4851 0.83926 0.11204 0.0
C848 C 0.46381 0.94526 0.1168 0.0
C849 C 0.49546 0.96165 0.13067 0.0
C850 C 0.44942 0.91405 0.12649 0.0
C851 C 0.46665 0.89946 0.15149 0.0
C852 C 0.49841 0.91621 0.1659 0.0
C853 C 0.51258 0.94691 0.15501 0.0
C854 C 0.41588 0.89671 0.10991 0.0
C855 C 0.51734 0.90181 0.19305 0.0
H856 H 0.39664 0.83182 0.22622 0.0
H857 H 0.4543 0.78524 0.14173 0.0
H858 H 0.44157 0.91146 0.22439 0.0
H859 H 0.4057 0.90824 0.19539 0.0
H860 H 0.40036 0.88881 0.2366 0.0
H861 H 0.48913 0.81451 0.10007 0.0
H862 H 0.47471 0.85157 0.09097 0.0
H863 H 0.51046 0.85399 0.11993 0.0
H864 H 0.45038 0.95675 0.09827 0.0
H865 H 0.53701 0.9596 0.16593 0.0
H866 H 0.39575 0.89312 0.13135 0.0
H867 H 0.41891 0.87205 0.09684 0.0
H868 H 0.40677 0.91057 0.08941 0.0
H869 H 0.50052 0.89694 0.21705 0.0
H870 H 0.54144 0.91828 0.20219 0.0
H871 H 0.52393 0.87801 0.18107 0.0
C872 C 0.11638 0.24285 0.68358 0.0
C873 C 0.15112 0.25562 0.6905 0.0
C874 C 0.10644 0.21115 0.66609 0.0
C875 C 0.13185 0.19167 0.65522 0.0
C876 C 0.16702 0.20451 0.66168 0.0
C877 C 0.17626 0.23637 0.67924 0.0
C878 C 0.06866 0.19836 0.65961 0.0
C879 C 0.19481 0.18445 0.65041 0.0
C880 C 0.10005 0.09981 0.64213 0.0
C881 C 0.09561 0.09409 0.60457 0.0
C882 C 0.11283 0.13129 0.65885 0.0
C883 C 0.12131 0.15771 0.63753 0.0
C884 C 0.11779 0.15196 0.59954 0.0
C885 C 0.105 0.12023 0.58351 0.0
C886 C 0.11633 0.13645 0.69946 0.0
C887 C 0.12658 0.17951 0.57589 0.0
H888 H 0.09677 0.25753 0.6921 0.0
H889 H 0.20316 0.24605 0.68448 0.0
H890 H 0.06426 0.191 0.63034 0.0
H891 H 0.06031 0.17622 0.67379 0.0
H892 H 0.05218 0.21682 0.66918 0.0
H893 H 0.22102 0.19826 0.65666 0.0
H894 H 0.1907 0.16194 0.66445 0.0
H895 H 0.1935 0.17651 0.62094 0.0
H896 H 0.09303 0.0798 0.65865 0.0
H897 H 0.10176 0.11612 0.55446 0.0
H898 H 0.09842 0.15276 0.71134 0.0
H899 H 0.14282 0.14874 0.7068 0.0
H900 H 0.11061 0.11306 0.71192 0.0
H901 H 0.10898 0.19752 0.58251 0.0
H902 H 0.12443 0.17062 0.54664 0.0
H903 H 0.15318 0.19267 0.58116 0.0
C904 C 0.67762 0.34615 0.42126 0.0
C905 C 0.6718 0.32316 0.39062 0.0
C906 C 0.6548 0.36807 0.43124 0.0
C907 C 0.62542 0.36698 0.41006 0.0
C908 C 0.61956 0.34414 0.37883 0.0
C909 C 0.64283 0.32245 0.36947 0.0
C910 C 0.66192 0.39214 0.46475 0.0
C911 C 0.58854 0.34239 0.35558 0.0
C912 C 0.55234 0.40252 0.45948 0.0
C913 C 0.55781 0.43424 0.44894 0.0
C914 C 0.57334 0.37986 0.44583 0.0
C915 C 0.60052 0.38935 0.42129 0.0
C916 C 0.6053 0.42101 0.40955 0.0
C917 C 0.58372 0.44307 0.42343 0.0
C918 C 0.56736 0.34626 0.45885 0.0
C919 C 0.63412 0.43208 0.38361 0.0
H920 H 0.69995 0.34691 0.43772 0.0
H921 H 0.63818 0.3048 0.3457 0.0
H922 H 0.66332 0.41756 0.45784 0.0
H923 H 0.64052 0.38764 0.48469 0.0
H924 H 0.68636 0.39035 0.47776 0.0
H925 H 0.58815 0.32379 0.33166 0.0
H926 H 0.5646 0.33623 0.37177 0.0
H927 H 0.5882 0.36663 0.34606 0.0
H928 H 0.53225 0.39569 0.47919 0.0
H929 H 0.58798 0.46766 0.41533 0.0
H930 H 0.58956 0.34357 0.47511 0.0
H931 H 0.56544 0.327 0.4355 0.0
H932 H 0.54356 0.34189 0.47573 0.0
H933 H 0.65928 0.43362 0.39673 0.0
H934 H 0.63262 0.45646 0.37496 0.0
H935 H 0.63358 0.414 0.35926 0.0
loop_
_geom_bond_atom_site_label_1
_geom_bond_atom_site_label_2
_geom_bond_distance
_geom_bond_site_symmetry_2
_ccdc_geom_bond_type
O0 Cd1 2.300 . S
O0 C7 1.275 . S
Cd1 O0 2.300 . S
Cd1 O9 2.381 . S
Cd1 O10 2.378 . S
O2 Cd3 2.385 . S
O2 C7 1.255 . S
Cd3 O2 2.385 . S
Cd3 O4 2.317 . S
O4 Cd3 2.317 . S
O4 C5 1.232 . S
C5 O4 1.232 . S
C5 O6 1.218 . S
O6 C5 1.218 . S
C7 O0 1.275 . S
C7 O2 1.255 . S
C8 O9 1.258 . S
C8 O10 1.256 . S
O9 Cd1 2.381 . S
O9 C8 1.258 . S
O10 Cd1 2.378 . S
O10 C8 1.256 . S
O11 Cd12 2.300 . S
O11 C18 1.275 . S
Cd12 O11 2.300 . S
Cd12 O20 2.381 . S
Cd12 O21 2.378 . S
O13 Cd14 2.385 . S
O13 C18 1.255 . S
Cd14 O13 2.385 . S
Cd14 O15 2.317 . S
O15 Cd14 2.317 . S
O15 C16 1.232 . S
C16 O15 1.232 . S
C16 O17 1.218 . S
O17 C16 1.218 . S
C18 O11 1.275 . S
C18 O13 1.255 . S
C19 O20 1.258 . S
C19 O21 1.256 . S
O20 Cd12 2.381 . S
O20 C19 1.258 . S
O21 Cd12 2.378 . S
O21 C19 1.256 . S
O22 Cd23 2.300 . S
O22 C29 1.275 . S
Cd23 O22 2.300 . S
Cd23 O31 2.381 . S
Cd23 O32 2.378 . S
O24 Cd25 2.385 . S
O24 C29 1.255 . S
Cd25 O24 2.385 . S
Cd25 O26 2.317 . S
O26 Cd25 2.317 . S
O26 C27 1.232 . S
C27 O26 1.232 . S
C27 O28 1.218 . S
O28 C27 1.218 . S
C29 O22 1.275 . S
C29 O24 1.255 . S
C30 O31 1.258 . S
C30 O32 1.256 . S
O31 Cd23 2.381 . S
O31 C30 1.258 . S
O32 Cd23 2.378 . S
O32 C30 1.256 . S
O33 Cd34 2.300 . S
O33 C40 1.275 . S
Cd34 O33 2.300 . S
Cd34 O42 2.381 . S
Cd34 O43 2.378 . S
O35 Cd36 2.385 . S
O35 C40 1.255 . S
Cd36 O35 2.385 . S
Cd36 O37 2.317 . S
O37 Cd36 2.317 . S
O37 C38 1.232 . S
C38 O37 1.232 . S
C38 O39 1.218 . S
O39 C38 1.218 . S
C40 O33 1.275 . S
C40 O35 1.255 . S
C41 O42 1.258 . S
C41 O43 1.256 . S
O42 Cd34 2.381 . S
O42 C41 1.258 . S
O43 Cd34 2.378 . S
O43 C41 1.256 . S
O44 Cd45 2.300 . S
O44 C51 1.275 . S
Cd45 O44 2.300 . S
Cd45 O53 2.381 . S
Cd45 O54 2.378 . S
O46 Cd47 2.385 . S
O46 C51 1.255 . S
Cd47 O46 2.385 . S
Cd47 O48 2.317 . S
O48 Cd47 2.317 . S
O48 C49 1.232 . S
C49 O48 1.232 . S
C49 O50 1.218 . S
O50 C49 1.218 . S
C51 O44 1.275 . S
C51 O46 1.255 . S
C52 O53 1.258 . S
C52 O54 1.256 . S
O53 Cd45 2.381 . S
O53 C52 1.258 . S
O54 Cd45 2.378 . S
O54 C52 1.256 . S
O55 Cd56 2.300 . S
O55 C62 1.275 . S
Cd56 O55 2.300 . S
Cd56 O64 2.381 . S
Cd56 O65 2.378 . S
O57 Cd58 2.385 . S
O57 C62 1.255 . S
Cd58 O57 2.385 . S
Cd58 O59 2.317 . S
O59 Cd58 2.317 . S
O59 C60 1.232 . S
C60 O59 1.232 . S
C60 O61 1.218 . S
O61 C60 1.218 . S
C62 O55 1.275 . S
C62 O57 1.255 . S
C63 O64 1.258 . S
C63 O65 1.256 . S
O64 Cd56 2.381 . S
O64 C63 1.258 . S
O65 Cd56 2.378 . S
O65 C63 1.256 . S
O66 Cd67 2.300 . S
O66 C73 1.275 . S
Cd67 O66 2.300 . S
Cd67 O75 2.381 . S
Cd67 O76 2.378 . S
O68 Cd69 2.385 . S
O68 C73 1.255 . S
Cd69 O68 2.385 . S
Cd69 O70 2.317 . S
O70 Cd69 2.317 . S
O70 C71 1.232 . S
C71 O70 1.232 . S
C71 O72 1.218 . S
O72 C71 1.218 . S
C73 O66 1.275 . S
C73 O68 1.255 . S
C74 O75 1.258 . S
C74 O76 1.256 . S
O75 Cd67 2.381 . S
O75 C74 1.258 . S
O76 Cd67 2.378 . S
O76 C74 1.256 . S
O77 Cd78 2.300 . S
O77 C84 1.275 . S
Cd78 O77 2.300 . S
Cd78 O86 2.381 . S
Cd78 O87 2.378 . S
O79 Cd80 2.385 . S
O79 C84 1.255 . S
Cd80 O79 2.385 . S
Cd80 O81 2.317 . S
O81 Cd80 2.317 . S
O81 C82 1.232 . S
C82 O81 1.232 . S
C82 O83 1.218 . S
O83 C82 1.218 . S
C84 O77 1.275 . S
C84 O79 1.255 . S
C85 O86 1.258 . S
C85 O87 1.256 . S
O86 Cd78 2.381 . S
O86 C85 1.258 . S
O87 Cd78 2.378 . S
O87 C85 1.256 . S
Dy88 O92 2.398 . S
Dy88 O93 2.491 . S
Dy88 O94 2.392 1_545 S
Dy88 O95 2.664 1_545 S
Dy88 O99 2.326 . S
Dy88 O103 2.310 1_455 S
Dy88 O104 2.351 1_545 S
C89 O100 1.185 . S
C89 O101 1.355 . S
C90 O92 1.185 . S
C90 O93 1.355 . S
Dy91 O95 2.310 1_645 S
Dy91 O98 2.351 1_655 S
Dy91 O100 2.398 1_545 S
Dy91 O101 2.491 1_545 S
Dy91 O102 2.403 . S
Dy91 O103 2.664 . S
Dy91 O105 2.326 1_545 S
O92 Dy88 2.398 . S
O92 C90 1.185 . S
O93 Dy88 2.491 . S
O93 C90 1.355 . S
O94 Dy88 2.392 1_565 S
O94 C96 1.262 . S
O95 Dy88 2.664 1_565 S
O95 Dy91 2.310 1_465 S
O95 C96 1.268 . S
C96 O94 1.262 . S
C96 O95 1.268 . S
C97 O102 1.254 . S
C97 O103 1.268 . S
O98 Dy91 2.351 1_455 S
O98 C106 1.249 . S
O99 Dy88 2.326 . S
O99 C106 1.267 . S
O100 C89 1.185 . S
O100 Dy91 2.398 1_565 S
O101 C89 1.355 . S
O101 Dy91 2.491 1_565 S
O102 Dy91 2.403 . S
O102 C97 1.254 . S
O103 Dy88 2.310 1_655 S
O103 Dy91 2.664 . S
O103 C97 1.268 . S
O104 Dy88 2.351 1_565 S
O104 C107 1.249 1_455 S
O105 Dy91 2.326 1_565 S
O105 C107 1.267 . S
C106 O98 1.249 . S
C106 O99 1.267 . S
C107 O104 1.249 1_655 S
C107 O105 1.267 . S
Dy108 O112 2.398 . S
Dy108 O113 2.491 . S
Dy108 O114 2.403 1_545 S
Dy108 O115 2.664 1_545 S
Dy108 O119 2.326 . S
Dy108 O123 2.310 . S
Dy108 O124 2.351 . S
C109 O120 1.185 1_565 S
C109 O121 1.355 . S
C110 O112 1.185 . S
C110 O113 1.355 . S
Dy111 O115 2.310 1_545 S
Dy111 O118 2.351 . S
Dy111 O120 2.398 1_554 S
Dy111 O121 2.491 1_544 S
Dy111 O122 2.412 . S
Dy111 O123 2.664 . S
Dy111 O125 2.332 . S
O112 Dy108 2.398 . S
O112 C110 1.185 . S
O113 Dy108 2.491 . S
O113 C110 1.355 . S
O114 Dy108 2.403 1_565 S
O114 C116 1.254 . S
O115 Dy108 2.664 1_565 S
O115 Dy111 2.310 1_565 S
O115 C116 1.268 . S
C116 O114 1.254 . S
C116 O115 1.268 . S
C117 O122 1.275 . S
C117 O123 1.268 . S
O118 Dy111 2.351 . S
O118 C126 1.249 . S
O119 Dy108 2.326 . S
O119 C126 1.267 . S
O120 C109 1.185 1_545 S
O120 Dy111 2.398 1_556 S
O121 C109 1.355 . S
O121 Dy111 2.491 1_566 S
O122 Dy111 2.412 . S
O122 C117 1.275 . S
O123 Dy108 2.310 . S
O123 Dy111 2.664 . S
O123 C117 1.268 . S
O124 Dy108 2.351 . S
O124 C127 1.249 1_545 S
O125 Dy111 2.332 . S
O125 C127 1.281 1_545 S
C126 O118 1.249 . S
C126 O119 1.267 . S
C127 O124 1.249 1_565 S
C127 O125 1.281 1_565 S
Dy128 O132 2.398 . S
Dy128 O133 2.491 . S
Dy128 O134 2.403 . S
Dy128 O135 2.664 . S
Dy128 O139 2.326 . S
Dy128 O143 2.310 . S
Dy128 O144 2.351 . S
C129 O140 1.185 . S
C129 O141 1.355 . S
C130 O132 1.185 . S
C130 O133 1.355 . S
Dy131 O135 2.310 . S
Dy131 O138 2.351 . S
Dy131 O140 2.398 . S
Dy131 O141 2.491 . S
Dy131 O142 2.403 . S
Dy131 O143 2.664 . S
Dy131 O145 2.326 . S
O132 Dy128 2.398 . S
O132 C130 1.185 . S
O133 Dy128 2.491 . S
O133 C130 1.355 . S
O134 Dy128 2.403 . S
O134 C136 1.254 . S
O135 Dy128 2.664 . S
O135 Dy131 2.310 . S
O135 C136 1.268 . S
C136 O134 1.254 . S
C136 O135 1.268 . S
C137 O142 1.254 . S
C137 O143 1.268 . S
O138 Dy131 2.351 . S
O138 C146 1.249 . S
O139 Dy128 2.326 . S
O139 C146 1.267 . S
O140 C129 1.185 . S
O140 Dy131 2.398 . S
O141 C129 1.355 . S
O141 Dy131 2.491 . S
O142 Dy131 2.403 . S
O142 C137 1.254 . S
O143 Dy128 2.310 . S
O143 Dy131 2.664 . S
O143 C137 1.268 . S
O144 Dy128 2.351 . S
O144 C147 1.249 . S
O145 Dy131 2.326 . S
O145 C147 1.267 . S
C146 O138 1.249 . S
C146 O139 1.267 . S
C147 O144 1.249 . S
C147 O145 1.267 . S
Dy148 O152 2.398 . S
Dy148 O153 2.491 . S
Dy148 O154 2.403 . S
Dy148 O155 2.664 . S
Dy148 O159 2.326 . S
Dy148 O163 2.310 1_554 S
Dy148 O164 2.351 1_455 S
C149 O160 1.185 . S
C149 O161 1.355 . S
C150 O152 1.185 . S
C150 O153 1.355 . S
Dy151 O155 2.310 1_556 S
Dy151 O158 2.351 1_556 S
Dy151 O160 2.398 1_455 S
Dy151 O161 2.491 1_455 S
Dy151 O162 2.403 . S
Dy151 O163 2.664 . S
Dy151 O165 2.326 1_455 S
O152 Dy148 2.398 . S
O152 C150 1.185 . S
O153 Dy148 2.491 . S
O153 C150 1.355 . S
O154 Dy148 2.403 . S
O154 C156 1.254 1_455 S
O155 Dy148 2.664 . S
O155 Dy151 2.310 1_554 S
O155 C156 1.268 1_455 S
C156 O154 1.254 1_655 S
C156 O155 1.268 1_655 S
C157 O162 1.254 . S
C157 O163 1.268 . S
O158 Dy151 2.351 1_554 S
O158 C166 1.249 . S
O159 Dy148 2.326 . S
O159 C166 1.267 . S
O160 C149 1.185 . S
O160 Dy151 2.398 1_655 S
O161 C149 1.355 . S
O161 Dy151 2.491 1_655 S
O162 Dy151 2.403 . S
O162 C157 1.254 . S
O163 Dy148 2.310 1_556 S
O163 Dy151 2.664 . S
O163 C157 1.268 . S
O164 Dy148 2.351 1_655 S
O164 C167 1.249 1_554 S
O165 Dy151 2.326 1_655 S
O165 C167 1.267 . S
C166 O158 1.249 . S
C166 O159 1.267 . S
C167 O164 1.249 1_556 S
C167 O165 1.267 . S
C168 C169 1.391 . S
C168 C170 1.394 . S
C168 H184 0.931 . S
C169 C168 1.391 . S
C169 C173 1.376 . S
C170 C168 1.394 . S
C170 C171 1.369 . S
C170 C174 1.531 . S
C171 C170 1.369 . S
C171 C172 1.410 . S
C171 C179 1.503 . S
C172 C171 1.410 . S
C172 C173 1.392 . S
C172 C175 1.511 . S
C173 C169 1.376 . S
C173 C172 1.392 . S
C173 H185 0.929 . S
C174 C170 1.531 . S
C174 H186 0.960 . S
C174 H187 0.962 . S
C174 H188 0.960 . S
C175 C172 1.511 . S
C175 H189 0.961 . S
C175 H190 0.961 . S
C175 H191 0.961 . S
C176 C177 1.370 . S
C176 C178 1.363 . S
C176 H192 0.931 . S
C177 C176 1.370 . S
C177 C181 1.408 . S
C178 C176 1.363 . S
C178 C179 1.370 . S
C178 C182 1.524 . S
C179 C171 1.503 . S
C179 C178 1.370 . S
C179 C180 1.403 . S
C180 C179 1.403 . S
C180 C181 1.404 . S
C180 C183 1.539 . S
C181 C177 1.408 . S
C181 C180 1.404 . S
C181 H193 0.930 . S
C182 C178 1.524 . S
C182 H194 0.956 . S
C182 H195 0.961 . S
C182 H196 0.961 . S
C183 C180 1.539 . S
C183 H197 0.958 . S
C183 H198 0.961 . S
C183 H199 0.960 . S
H184 C168 0.931 . S
H185 C173 0.929 . S
H186 C174 0.960 . S
H187 C174 0.962 . S
H188 C174 0.960 . S
H189 C175 0.961 . S
H190 C175 0.961 . S
H191 C175 0.961 . S
H192 C176 0.931 . S
H193 C181 0.930 . S
H194 C182 0.956 . S
H195 C182 0.961 . S
H196 C182 0.961 . S
H197 C183 0.958 . S
H198 C183 0.961 . S
H199 C183 0.960 . S
C200 C201 1.391 . S
C200 C202 1.394 . S
C200 H216 0.931 . S
C201 C200 1.391 . S
C201 C205 1.376 . S
C202 C200 1.394 . S
C202 C203 1.369 . S
C202 C206 1.531 . S
C203 C202 1.369 . S
C203 C204 1.410 . S
C203 C211 1.503 . S
C204 C203 1.410 . S
C204 C205 1.392 . S
C204 C207 1.511 . S
C205 C201 1.376 . S
C205 C204 1.392 . S
C205 H217 0.929 . S
C206 C202 1.531 . S
C206 H218 0.960 . S
C206 H219 0.962 . S
C206 H220 0.960 . S
C207 C204 1.511 . S
C207 H221 0.961 . S
C207 H222 0.961 . S
C207 H223 0.961 . S
C208 C209 1.370 . S
C208 C210 1.363 . S
C208 H224 0.931 . S
C209 C208 1.370 . S
C209 C213 1.408 . S
C210 C208 1.363 . S
C210 C211 1.370 . S
C210 C214 1.524 . S
C211 C203 1.503 . S
C211 C210 1.370 . S
C211 C212 1.403 . S
C212 C211 1.403 . S
C212 C213 1.404 . S
C212 C215 1.539 . S
C213 C209 1.408 . S
C213 C212 1.404 . S
C213 H225 0.930 . S
C214 C210 1.524 . S
C214 H226 0.956 . S
C214 H227 0.961 . S
C214 H228 0.961 1_565 S
C215 C212 1.539 . S
C215 H229 0.958 . S
C215 H230 0.961 . S
C215 H231 0.960 . S
H216 C200 0.931 . S
H217 C205 0.929 . S
H218 C206 0.960 . S
H219 C206 0.962 . S
H220 C206 0.960 . S
H221 C207 0.961 . S
H222 C207 0.961 . S
H223 C207 0.961 . S
H224 C208 0.931 . S
H225 C213 0.930 . S
H226 C214 0.956 . S
H227 C214 0.961 . S
H228 C214 0.961 1_545 S
H229 C215 0.958 . S
H230 C215 0.961 . S
H231 C215 0.960 . S
C232 C233 1.391 . S
C232 C234 1.394 . S
C232 H248 0.931 . S
C233 C232 1.391 . S
C233 C237 1.376 . S
C234 C232 1.394 . S
C234 C235 1.369 . S
C234 C238 1.531 . S
C235 C234 1.369 . S
C235 C236 1.410 . S
C235 C243 1.503 . S
C236 C235 1.410 . S
C236 C237 1.392 . S
C236 C239 1.511 . S
C237 C233 1.376 . S
C237 C236 1.392 . S
C237 H249 0.929 . S
C238 C234 1.531 . S
C238 H250 0.960 . S
C238 H251 0.962 . S
C238 H252 0.960 . S
C239 C236 1.511 . S
C239 H253 0.961 . S
C239 H254 0.961 . S
C239 H255 0.961 . S
C240 C241 1.370 . S
C240 C242 1.363 . S
C240 H256 0.931 . S
C241 C240 1.370 . S
C241 C245 1.408 . S
C242 C240 1.363 . S
C242 C243 1.370 . S
C242 C246 1.524 . S
C243 C235 1.503 . S
C243 C242 1.370 . S
C243 C244 1.403 . S
C244 C243 1.403 . S
C244 C245 1.404 . S
C244 C247 1.539 . S
C245 C241 1.408 . S
C245 C244 1.404 . S
C245 H257 0.930 . S
C246 C242 1.524 . S
C246 H258 0.956 . S
C246 H259 0.961 . S
C246 H260 0.961 . S
C247 C244 1.539 . S
C247 H261 0.958 . S
C247 H262 0.961 . S
C247 H263 0.960 . S
H248 C232 0.931 . S
H249 C237 0.929 . S
H250 C238 0.960 . S
H251 C238 0.962 . S
H252 C238 0.960 . S
H253 C239 0.961 . S
H254 C239 0.961 . S
H255 C239 0.961 . S
H256 C240 0.931 . S
H257 C245 0.930 . S
H258 C246 0.956 . S
H259 C246 0.961 . S
H260 C246 0.961 . S
H261 C247 0.958 . S
H262 C247 0.961 . S
H263 C247 0.960 . S
C264 C265 1.391 . S
C264 C266 1.394 . S
C264 H280 0.931 . S
C265 C264 1.391 . S
C265 C269 1.376 . S
C266 C264 1.394 . S
C266 C267 1.369 . S
C266 C270 1.531 . S
C267 C266 1.369 . S
C267 C268 1.410 . S
C267 C275 1.503 . S
C268 C267 1.410 . S
C268 C269 1.392 . S
C268 C271 1.511 . S
C269 C265 1.376 . S
C269 C268 1.392 . S
C269 H281 0.929 . S
C270 C266 1.531 . S
C270 H282 0.960 . S
C270 H283 0.962 . S
C270 H284 0.960 . S
C271 C268 1.511 . S
C271 H285 0.961 . S
C271 H286 0.961 . S
C271 H287 0.961 . S
C272 C273 1.370 . S
C272 C274 1.363 . S
C272 H288 0.931 . S
C273 C272 1.370 . S
C273 C277 1.408 1_655 S
C274 C272 1.363 . S
C274 C275 1.370 . S
C274 C278 1.524 . S
C275 C267 1.503 . S
C275 C274 1.370 . S
C275 C276 1.403 1_655 S
C276 C275 1.403 1_455 S
C276 C277 1.404 . S
C276 C279 1.539 . S
C277 C273 1.408 1_455 S
C277 C276 1.404 . S
C277 H289 0.930 . S
C278 C274 1.524 . S
C278 H290 0.956 . S
C278 H291 0.961 . S
C278 H292 0.961 . S
C279 C276 1.539 . S
C279 H293 0.958 . S
C279 H294 0.961 . S
C279 H295 0.960 . S
H280 C264 0.931 . S
H281 C269 0.929 . S
H282 C270 0.960 . S
H283 C270 0.962 . S
H284 C270 0.960 . S
H285 C271 0.961 . S
H286 C271 0.961 . S
H287 C271 0.961 . S
H288 C272 0.931 . S
H289 C277 0.930 . S
H290 C278 0.956 . S
H291 C278 0.961 . S
H292 C278 0.961 . S
H293 C279 0.958 . S
H294 C279 0.961 . S
H295 C279 0.960 . S
C296 C297 1.391 . S
C296 C298 1.394 . S
C296 H312 0.931 . S
C297 C296 1.391 . S
C297 C301 1.376 . S
C298 C296 1.394 . S
C298 C299 1.369 . S
C298 C302 1.531 . S
C299 C298 1.369 . S
C299 C300 1.410 . S
C299 C307 1.503 . S
C300 C299 1.410 . S
C300 C301 1.392 . S
C300 C303 1.511 . S
C301 C297 1.376 . S
C301 C300 1.392 . S
C301 H313 0.929 . S
C302 C298 1.531 . S
C302 H314 0.960 . S
C302 H315 0.962 . S
C302 H316 0.960 . S
C303 C300 1.511 . S
C303 H317 0.961 . S
C303 H318 0.961 . S
C303 H319 0.961 . S
C304 C305 1.370 . S
C304 C306 1.363 . S
C304 H320 0.931 . S
C305 C304 1.370 . S
C305 C309 1.408 . S
C306 C304 1.363 . S
C306 C307 1.370 . S
C306 C310 1.524 . S
C307 C299 1.503 . S
C307 C306 1.370 . S
C307 C308 1.403 . S
C308 C307 1.403 . S
C308 C309 1.404 . S
C308 C311 1.539 . S
C309 C305 1.408 . S
C309 C308 1.404 . S
C309 H321 0.930 . S
C310 C306 1.524 . S
C310 H322 0.956 . S
C310 H323 0.961 . S
C310 H324 0.961 . S
C311 C308 1.539 . S
C311 H325 0.958 . S
C311 H326 0.961 . S
C311 H327 0.960 . S
H312 C296 0.931 . S
H313 C301 0.929 . S
H314 C302 0.960 . S
H315 C302 0.962 . S
H316 C302 0.960 . S
H317 C303 0.961 . S
H318 C303 0.961 . S
H319 C303 0.961 . S
H320 C304 0.931 . S
H321 C309 0.930 . S
H322 C310 0.956 . S
H323 C310 0.961 . S
H324 C310 0.961 . S
H325 C311 0.958 . S
H326 C311 0.961 . S
H327 C311 0.960 . S
C328 C329 1.391 . S
C328 C330 1.394 . S
C328 H344 0.931 . S
C329 C328 1.391 . S
C329 C333 1.376 . S
C330 C328 1.394 . S
C330 C331 1.369 . S
C330 C334 1.531 . S
C331 C330 1.369 . S
C331 C332 1.410 . S
C331 C339 1.503 . S
C332 C331 1.410 . S
C332 C333 1.392 . S
C332 C335 1.511 . S
C333 C329 1.376 . S
C333 C332 1.392 . S
C333 H345 0.929 . S
C334 C330 1.531 . S
C334 H346 0.960 . S
C334 H347 0.962 . S
C334 H348 0.960 . S
C335 C332 1.511 . S
C335 H349 0.961 . S
C335 H350 0.961 . S
C335 H351 0.961 . S
C336 C337 1.370 . S
C336 C338 1.363 . S
C336 H352 0.931 1_565 S
C337 C336 1.370 . S
C337 C341 1.408 . S
C338 C336 1.363 . S
C338 C339 1.370 . S
C338 C342 1.524 1_565 S
C339 C331 1.503 . S
C339 C338 1.370 . S
C339 C340 1.403 . S
C340 C339 1.403 . S
C340 C341 1.404 . S
C340 C343 1.539 . S
C341 C337 1.408 . S
C341 C340 1.404 . S
C341 H353 0.930 . S
C342 C338 1.524 1_545 S
C342 H354 0.956 . S
C342 H355 0.961 . S
C342 H356 0.961 . S
C343 C340 1.539 . S
C343 H357 0.958 . S
C343 H358 0.961 . S
C343 H359 0.960 . S
H344 C328 0.931 . S
H345 C333 0.929 . S
H346 C334 0.960 . S
H347 C334 0.962 . S
H348 C334 0.960 . S
H349 C335 0.961 . S
H350 C335 0.961 . S
H351 C335 0.961 . S
H352 C336 0.931 1_545 S
H353 C341 0.930 . S
H354 C342 0.956 . S
H355 C342 0.961 . S
H356 C342 0.961 . S
H357 C343 0.958 . S
H358 C343 0.961 . S
H359 C343 0.960 . S
C360 C361 1.391 . S
C360 C362 1.394 . S
C360 H376 0.931 . S
C361 C360 1.391 . S
C361 C365 1.376 . S
C362 C360 1.394 . S
C362 C363 1.369 . S
C362 C366 1.531 . S
C363 C362 1.369 . S
C363 C364 1.410 . S
C363 C371 1.503 . S
C364 C363 1.410 . S
C364 C365 1.392 . S
C364 C367 1.511 1_556 S
C365 C361 1.376 . S
C365 C364 1.392 . S
C365 H377 0.929 . S
C366 C362 1.531 . S
C366 H378 0.960 . S
C366 H379 0.962 . S
C366 H380 0.960 . S
C367 C364 1.511 1_554 S
C367 H381 0.961 . S
C367 H382 0.961 . S
C367 H383 0.961 . S
C368 C369 1.370 . S
C368 C370 1.363 . S
C368 H384 0.931 . S
C369 C368 1.370 . S
C369 C373 1.408 . S
C370 C368 1.363 . S
C370 C371 1.370 . S
C370 C374 1.524 . S
C371 C363 1.503 . S
C371 C370 1.370 . S
C371 C372 1.403 . S
C372 C371 1.403 . S
C372 C373 1.404 . S
C372 C375 1.539 . S
C373 C369 1.408 . S
C373 C372 1.404 . S
C373 H385 0.930 1_556 S
C374 C370 1.524 . S
C374 H386 0.956 . S
C374 H387 0.961 . S
C374 H388 0.961 . S
C375 C372 1.539 . S
C375 H389 0.958 . S
C375 H390 0.961 1_556 S
C375 H391 0.960 . S
H376 C360 0.931 . S
H377 C365 0.929 . S
H378 C366 0.960 . S
H379 C366 0.962 . S
H380 C366 0.960 . S
H381 C367 0.961 . S
H382 C367 0.961 . S
H383 C367 0.961 . S
H384 C368 0.931 . S
H385 C373 0.930 1_554 S
H386 C374 0.956 . S
H387 C374 0.961 . S
H388 C374 0.961 . S
H389 C375 0.958 . S
H390 C375 0.961 1_554 S
H391 C375 0.960 . S
C392 C393 1.391 . S
C392 C394 1.394 . S
C392 H408 0.931 . S
C393 C392 1.391 . S
C393 C397 1.376 . S
C394 C392 1.394 . S
C394 C395 1.369 . S
C394 C398 1.531 . S
C395 C394 1.369 . S
C395 C396 1.410 . S
C395 C403 1.503 . S
C396 C395 1.410 . S
C396 C397 1.392 . S
C396 C399 1.511 . S
C397 C393 1.376 . S
C397 C396 1.392 . S
C397 H409 0.929 . S
C398 C394 1.531 . S
C398 H410 0.960 . S
C398 H411 0.962 . S
C398 H412 0.960 . S
C399 C396 1.511 . S
C399 H413 0.961 . S
C399 H414 0.961 . S
C399 H415 0.961 . S
C400 C401 1.370 . S
C400 C402 1.363 . S
C400 H416 0.931 . S
C401 C400 1.370 . S
C401 C405 1.408 . S
C402 C400 1.363 . S
C402 C403 1.370 . S
C402 C406 1.524 . S
C403 C395 1.503 . S
C403 C402 1.370 . S
C403 C404 1.403 . S
C404 C403 1.403 . S
C404 C405 1.404 . S
C404 C407 1.539 . S
C405 C401 1.408 . S
C405 C404 1.404 . S
C405 H417 0.930 . S
C406 C402 1.524 . S
C406 H418 0.956 . S
C406 H419 0.961 . S
C406 H420 0.961 . S
C407 C404 1.539 . S
C407 H421 0.958 . S
C407 H422 0.961 . S
C407 H423 0.960 . S
H408 C392 0.931 . S
H409 C397 0.929 . S
H410 C398 0.960 . S
H411 C398 0.962 . S
H412 C398 0.960 . S
H413 C399 0.961 . S
H414 C399 0.961 . S
H415 C399 0.961 . S
H416 C400 0.931 . S
H417 C405 0.930 . S
H418 C406 0.956 . S
H419 C406 0.961 . S
H420 C406 0.961 . S
H421 C407 0.958 . S
H422 C407 0.961 . S
H423 C407 0.960 . S
C424 C425 1.391 . S
C424 C426 1.394 . S
C424 H440 0.931 . S
C425 C424 1.391 . S
C425 C429 1.376 . S
C426 C424 1.394 . S
C426 C427 1.369 . S
C426 C430 1.531 . S
C427 C426 1.369 . S
C427 C428 1.410 . S
C427 C435 1.503 . S
C428 C427 1.410 . S
C428 C429 1.392 . S
C428 C431 1.511 . S
C429 C425 1.376 . S
C429 C428 1.392 . S
C429 H441 0.929 . S
C430 C426 1.531 . S
C430 H442 0.960 . S
C430 H443 0.962 . S
C430 H444 0.960 . S
C431 C428 1.511 . S
C431 H445 0.961 . S
C431 H446 0.961 . S
C431 H447 0.961 . S
C432 C433 1.370 . S
C432 C434 1.363 . S
C432 H448 0.931 . S
C433 C432 1.370 . S
C433 C437 1.408 . S
C434 C432 1.363 . S
C434 C435 1.370 . S
C434 C438 1.524 . S
C435 C427 1.503 . S
C435 C434 1.370 . S
C435 C436 1.403 . S
C436 C435 1.403 . S
C436 C437 1.404 . S
C436 C439 1.539 . S
C437 C433 1.408 . S
C437 C436 1.404 . S
C437 H449 0.930 . S
C438 C434 1.524 . S
C438 H450 0.956 . S
C438 H451 0.961 . S
C438 H452 0.961 . S
C439 C436 1.539 . S
C439 H453 0.958 . S
C439 H454 0.961 . S
C439 H455 0.960 . S
H440 C424 0.931 . S
H441 C429 0.929 . S
H442 C430 0.960 . S
H443 C430 0.962 . S
H444 C430 0.960 . S
H445 C431 0.961 . S
H446 C431 0.961 . S
H447 C431 0.961 . S
H448 C432 0.931 . S
H449 C437 0.930 . S
H450 C438 0.956 . S
H451 C438 0.961 . S
H452 C438 0.961 . S
H453 C439 0.958 . S
H454 C439 0.961 . S
H455 C439 0.960 . S
C456 C457 1.391 . S
C456 C458 1.394 . S
C456 H472 0.931 . S
C457 C456 1.391 . S
C457 C461 1.376 . S
C458 C456 1.394 . S
C458 C459 1.369 . S
C458 C462 1.531 . S
C459 C458 1.369 . S
C459 C460 1.410 . S
C459 C467 1.503 . S
C460 C459 1.410 . S
C460 C461 1.392 . S
C460 C463 1.513 . S
C461 C457 1.376 . S
C461 C460 1.392 . S
C461 H473 0.929 . S
C462 C458 1.531 . S
C462 H474 0.960 . S
C462 H475 0.962 . S
C462 H476 0.960 . S
C463 C460 1.513 . S
C463 H477 0.959 1_556 S
C463 H478 0.959 1_556 S
C463 H479 0.962 . S
C464 C465 1.370 . S
C464 C466 1.363 . S
C464 H480 0.931 . S
C465 C464 1.370 . S
C465 C469 1.408 1_554 S
C466 C464 1.363 . S
C466 C467 1.370 1_554 S
C466 C470 1.524 . S
C467 C459 1.503 . S
C467 C466 1.370 1_556 S
C467 C468 1.403 . S
C468 C467 1.403 . S
C468 C469 1.404 . S
C468 C471 1.539 . S
C469 C465 1.408 1_556 S
C469 C468 1.404 . S
C469 H481 0.930 . S
C470 C466 1.524 . S
C470 H482 0.956 . S
C470 H483 0.961 . S
C470 H484 0.961 . S
C471 C468 1.539 . S
C471 H485 0.958 . S
C471 H486 0.961 . S
C471 H487 0.960 . S
H472 C456 0.931 . S
H473 C461 0.929 . S
H474 C462 0.960 . S
H475 C462 0.962 . S
H476 C462 0.960 . S
H477 C463 0.959 1_554 S
H478 C463 0.959 1_554 S
H479 C463 0.962 . S
H480 C464 0.931 . S
H481 C469 0.930 . S
H482 C470 0.956 . S
H483 C470 0.961 . S
H484 C470 0.961 . S
H485 C471 0.958 . S
H486 C471 0.961 . S
H487 C471 0.960 . S
C488 C489 1.391 . S
C488 C490 1.394 . S
C488 H504 0.931 . S
C489 C488 1.391 . S
C489 C493 1.376 . S
C490 C488 1.394 . S
C490 C491 1.369 . S
C490 C494 1.531 . S
C491 C490 1.369 . S
C491 C492 1.410 . S
C491 C499 1.503 . S
C492 C491 1.410 . S
C492 C493 1.392 . S
C492 C495 1.511 . S
C493 C489 1.376 . S
C493 C492 1.392 . S
C493 H505 0.929 . S
C494 C490 1.531 . S
C494 H506 0.960 . S
C494 H507 0.962 . S
C494 H508 0.960 . S
C495 C492 1.511 . S
C495 H509 0.961 1_655 S
C495 H510 0.962 1_655 S
C495 H511 0.961 1_655 S
C496 C497 1.370 . S
C496 C498 1.363 . S
C496 H512 0.931 . S
C497 C496 1.370 . S
C497 C501 1.408 . S
C498 C496 1.363 . S
C498 C499 1.370 . S
C498 C502 1.524 . S
C499 C491 1.503 . S
C499 C498 1.370 . S
C499 C500 1.403 . S
C500 C499 1.403 . S
C500 C501 1.404 . S
C500 C503 1.539 . S
C501 C497 1.408 . S
C501 C500 1.404 . S
C501 H513 0.930 . S
C502 C498 1.524 . S
C502 H514 0.956 . S
C502 H515 0.961 . S
C502 H516 0.961 . S
C503 C500 1.539 . S
C503 H517 0.958 . S
C503 H518 0.961 . S
C503 H519 0.960 . S
H504 C488 0.931 . S
H505 C493 0.929 . S
H506 C494 0.960 . S
H507 C494 0.962 . S
H508 C494 0.960 . S
H509 C495 0.961 1_455 S
H510 C495 0.962 1_455 S
H511 C495 0.961 1_455 S
H512 C496 0.931 . S
H513 C501 0.930 . S
H514 C502 0.956 . S
H515 C502 0.961 . S
H516 C502 0.961 . S
H517 C503 0.958 . S
H518 C503 0.961 . S
H519 C503 0.960 . S
C520 C521 1.391 . S
C520 C522 1.394 . S
C520 H536 0.931 . S
C521 C520 1.391 . S
C521 C525 1.376 . S
C522 C520 1.394 . S
C522 C523 1.369 . S
C522 C526 1.531 . S
C523 C522 1.369 . S
C523 C524 1.410 . S
C523 C531 1.503 . S
C524 C523 1.410 . S
C524 C525 1.392 . S
C524 C527 1.511 . S
C525 C521 1.376 . S
C525 C524 1.392 . S
C525 H537 0.929 . S
C526 C522 1.531 . S
C526 H538 0.960 . S
C526 H539 0.962 . S
C526 H540 0.960 . S
C527 C524 1.511 . S
C527 H541 0.961 . S
C527 H542 0.961 . S
C527 H543 0.961 . S
C528 C529 1.370 . S
C528 C530 1.363 . S
C528 H544 0.931 . S
C529 C528 1.370 . S
C529 C533 1.408 . S
C530 C528 1.363 . S
C530 C531 1.370 . S
C530 C534 1.524 . S
C531 C523 1.503 . S
C531 C530 1.370 . S
C531 C532 1.403 . S
C532 C531 1.403 . S
C532 C533 1.404 . S
C532 C535 1.539 . S
C533 C529 1.408 . S
C533 C532 1.404 . S
C533 H545 0.930 . S
C534 C530 1.524 . S
C534 H546 0.956 . S
C534 H547 0.961 . S
C534 H548 0.961 . S
C535 C532 1.539 . S
C535 H549 0.958 . S
C535 H550 0.961 . S
C535 H551 0.960 . S
H536 C520 0.931 . S
H537 C525 0.929 . S
H538 C526 0.960 . S
H539 C526 0.962 . S
H540 C526 0.960 . S
H541 C527 0.961 . S
H542 C527 0.961 . S
H543 C527 0.961 . S
H544 C528 0.931 . S
H545 C533 0.930 . S
H546 C534 0.956 . S
H547 C534 0.961 . S
H548 C534 0.961 . S
H549 C535 0.958 . S
H550 C535 0.961 . S
H551 C535 0.960 . S
C552 C553 1.391 . S
C552 C554 1.394 . S
C552 H568 0.931 . S
C553 C552 1.391 . S
C553 C557 1.376 . S
C554 C552 1.394 . S
C554 C555 1.369 . S
C554 C558 1.531 . S
C555 C554 1.369 . S
C555 C556 1.410 . S
C555 C563 1.503 . S
C556 C555 1.410 . S
C556 C557 1.392 . S
C556 C559 1.511 . S
C557 C553 1.376 . S
C557 C556 1.392 . S
C557 H569 0.929 . S
C558 C554 1.531 . S
C558 H570 0.960 . S
C558 H571 0.962 . S
C558 H572 0.960 . S
C559 C556 1.511 . S
C559 H573 0.961 . S
C559 H574 0.961 . S
C559 H575 0.961 . S
C560 C561 1.370 . S
C560 C562 1.363 . S
C560 H576 0.931 . S
C561 C560 1.370 . S
C561 C565 1.408 . S
C562 C560 1.363 . S
C562 C563 1.370 . S
C562 C566 1.524 . S
C563 C555 1.503 . S
C563 C562 1.370 . S
C563 C564 1.403 . S
C564 C563 1.403 . S
C564 C565 1.404 . S
C564 C567 1.539 . S
C565 C561 1.408 . S
C565 C564 1.404 . S
C565 H577 0.930 . S
C566 C562 1.524 . S
C566 H578 0.956 . S
C566 H579 0.961 . S
C566 H580 0.961 . S
C567 C564 1.539 . S
C567 H581 0.958 . S
C567 H582 0.961 . S
C567 H583 0.960 . S
H568 C552 0.931 . S
H569 C557 0.929 . S
H570 C558 0.960 . S
H571 C558 0.962 . S
H572 C558 0.960 . S
H573 C559 0.961 . S
H574 C559 0.961 . S
H575 C559 0.961 . S
H576 C560 0.931 . S
H577 C565 0.930 . S
H578 C566 0.956 . S
H579 C566 0.961 . S
H580 C566 0.961 . S
H581 C567 0.958 . S
H582 C567 0.961 . S
H583 C567 0.960 . S
C584 C585 1.391 . S
C584 C586 1.394 . S
C584 H600 0.931 . S
C585 C584 1.391 . S
C585 C589 1.376 . S
C586 C584 1.394 . S
C586 C587 1.369 . S
C586 C590 1.531 . S
C587 C586 1.369 . S
C587 C588 1.410 . S
C587 C595 1.503 . S
C588 C587 1.410 . S
C588 C589 1.392 . S
C588 C591 1.511 . S
C589 C585 1.376 . S
C589 C588 1.392 . S
C589 H601 0.929 . S
C590 C586 1.531 . S
C590 H602 0.960 . S
C590 H603 0.962 . S
C590 H604 0.960 . S
C591 C588 1.511 . S
C591 H605 0.961 . S
C591 H606 0.961 . S
C591 H607 0.961 . S
C592 C593 1.370 . S
C592 C594 1.363 . S
C592 H608 0.931 . S
C593 C592 1.370 . S
C593 C597 1.408 . S
C594 C592 1.363 . S
C594 C595 1.370 . S
C594 C598 1.524 . S
C595 C587 1.503 . S
C595 C594 1.370 . S
C595 C596 1.403 . S
C596 C595 1.403 . S
C596 C597 1.404 . S
C596 C599 1.539 . S
C597 C593 1.408 . S
C597 C596 1.404 . S
C597 H609 0.930 . S
C598 C594 1.524 . S
C598 H610 0.956 . S
C598 H611 0.961 . S
C598 H612 0.961 . S
C599 C596 1.539 . S
C599 H613 0.958 . S
C599 H614 0.961 . S
C599 H615 0.960 . S
H600 C584 0.931 . S
H601 C589 0.929 . S
H602 C590 0.960 . S
H603 C590 0.962 . S
H604 C590 0.960 . S
H605 C591 0.961 . S
H606 C591 0.961 . S
H607 C591 0.961 . S
H608 C592 0.931 . S
H609 C597 0.930 . S
H610 C598 0.956 . S
H611 C598 0.961 . S
H612 C598 0.961 . S
H613 C599 0.958 . S
H614 C599 0.961 . S
H615 C599 0.960 . S
C616 C617 1.391 . S
C616 C618 1.394 . S
C616 H632 0.931 . S
C617 C616 1.391 . S
C617 C621 1.376 . S
C618 C616 1.394 . S
C618 C619 1.369 . S
C618 C622 1.531 . S
C619 C618 1.369 . S
C619 C620 1.410 . S
C619 C627 1.503 . S
C620 C619 1.410 . S
C620 C621 1.392 . S
C620 C623 1.511 . S
C621 C617 1.376 . S
C621 C620 1.392 . S
C621 H633 0.929 . S
C622 C618 1.531 . S
C622 H634 0.960 . S
C622 H635 0.962 . S
C622 H636 0.960 . S
C623 C620 1.511 . S
C623 H637 0.961 . S
C623 H638 0.961 . S
C623 H639 0.961 . S
C624 C625 1.370 . S
C624 C626 1.363 . S
C624 H640 0.931 . S
C625 C624 1.370 . S
C625 C629 1.408 . S
C626 C624 1.363 . S
C626 C627 1.370 . S
C626 C630 1.524 . S
C627 C619 1.503 . S
C627 C626 1.370 . S
C627 C628 1.403 . S
C628 C627 1.403 . S
C628 C629 1.404 . S
C628 C631 1.539 . S
C629 C625 1.408 . S
C629 C628 1.404 . S
C629 H641 0.930 . S
C630 C626 1.524 . S
C630 H642 0.956 . S
C630 H643 0.961 . S
C630 H644 0.961 . S
C631 C628 1.539 . S
C631 H645 0.958 . S
C631 H646 0.961 . S
C631 H647 0.960 . S
H632 C616 0.931 . S
H633 C621 0.929 . S
H634 C622 0.960 . S
H635 C622 0.962 . S
H636 C622 0.960 . S
H637 C623 0.961 . S
H638 C623 0.961 . S
H639 C623 0.961 . S
H640 C624 0.931 . S
H641 C629 0.930 . S
H642 C630 0.956 . S
H643 C630 0.961 . S
H644 C630 0.961 . S
H645 C631 0.958 . S
H646 C631 0.961 . S
H647 C631 0.960 . S
C648 C649 1.391 . S
C648 C650 1.394 . S
C648 H664 0.931 . S
C649 C648 1.391 . S
C649 C653 1.376 . S
C650 C648 1.394 . S
C650 C651 1.369 . S
C650 C654 1.531 . S
C651 C650 1.369 . S
C651 C652 1.410 . S
C651 C659 1.503 . S
C652 C651 1.410 . S
C652 C653 1.392 . S
C652 C655 1.511 . S
C653 C649 1.376 . S
C653 C652 1.392 . S
C653 H665 0.929 . S
C654 C650 1.531 . S
C654 H666 0.960 . S
C654 H667 0.962 . S
C654 H668 0.960 . S
C655 C652 1.511 . S
C655 H669 0.961 . S
C655 H670 0.961 . S
C655 H671 0.961 . S
C656 C657 1.370 . S
C656 C658 1.363 . S
C656 H672 0.931 . S
C657 C656 1.370 . S
C657 C661 1.408 . S
C658 C656 1.363 . S
C658 C659 1.370 . S
C658 C662 1.524 . S
C659 C651 1.503 . S
C659 C658 1.370 . S
C659 C660 1.403 . S
C660 C659 1.403 . S
C660 C661 1.404 . S
C660 C663 1.539 . S
C661 C657 1.408 . S
C661 C660 1.404 . S
C661 H673 0.930 . S
C662 C658 1.524 . S
C662 H674 0.956 . S
C662 H675 0.961 . S
C662 H676 0.961 . S
C663 C660 1.539 . S
C663 H677 0.958 . S
C663 H678 0.961 . S
C663 H679 0.960 . S
H664 C648 0.931 . S
H665 C653 0.929 . S
H666 C654 0.960 . S
H667 C654 0.962 . S
H668 C654 0.960 . S
H669 C655 0.961 . S
H670 C655 0.961 . S
H671 C655 0.961 . S
H672 C656 0.931 . S
H673 C661 0.930 . S
H674 C662 0.956 . S
H675 C662 0.961 . S
H676 C662 0.961 . S
H677 C663 0.958 . S
H678 C663 0.961 . S
H679 C663 0.960 . S
C680 C681 1.391 . S
C680 C682 1.394 . S
C680 H696 0.931 . S
C681 C680 1.391 . S
C681 C685 1.376 . S
C682 C680 1.394 . S
C682 C683 1.369 . S
C682 C686 1.531 . S
C683 C682 1.369 . S
C683 C684 1.410 . S
C683 C691 1.503 . S
C684 C683 1.410 . S
C684 C685 1.392 . S
C684 C687 1.511 . S
C685 C681 1.376 . S
C685 C684 1.392 . S
C685 H697 0.929 . S
C686 C682 1.531 . S
C686 H698 0.960 . S
C686 H699 0.962 . S
C686 H700 0.960 . S
C687 C684 1.511 . S
C687 H701 0.961 . S
C687 H702 0.961 . S
C687 H703 0.961 . S
C688 C689 1.370 . S
C688 C690 1.363 . S
C688 H704 0.931 . S
C689 C688 1.370 . S
C689 C693 1.408 1_556 S
C690 C688 1.363 . S
C690 C691 1.370 . S
C690 C694 1.524 . S
C691 C683 1.503 . S
C691 C690 1.370 . S
C691 C692 1.403 . S
C692 C691 1.403 . S
C692 C693 1.404 1_556 S
C692 C695 1.539 1_556 S
C693 C689 1.408 1_554 S
C693 C692 1.404 1_554 S
C693 H705 0.930 . S
C694 C690 1.524 . S
C694 H706 0.956 . S
C694 H707 0.961 . S
C694 H708 0.961 . S
C695 C692 1.539 1_554 S
C695 H709 0.958 . S
C695 H710 0.961 . S
C695 H711 0.960 1_554 S
H696 C680 0.931 . S
H697 C685 0.929 . S
H698 C686 0.960 . S
H699 C686 0.962 . S
H700 C686 0.960 . S
H701 C687 0.961 . S
H702 C687 0.961 . S
H703 C687 0.961 . S
H704 C688 0.931 . S
H705 C693 0.930 . S
H706 C694 0.956 . S
H707 C694 0.961 . S
H708 C694 0.961 . S
H709 C695 0.958 . S
H710 C695 0.961 . S
H711 C695 0.960 1_556 S
C712 C713 1.391 . S
C712 C714 1.394 . S
C712 H728 0.931 . S
C713 C712 1.391 . S
C713 C717 1.376 . S
C714 C712 1.394 . S
C714 C715 1.369 . S
C714 C718 1.531 . S
C715 C714 1.369 . S
C715 C716 1.410 . S
C715 C723 1.503 . S
C716 C715 1.410 . S
C716 C717 1.392 . S
C716 C719 1.511 . S
C717 C713 1.376 . S
C717 C716 1.392 . S
C717 H729 0.929 . S
C718 C714 1.531 . S
C718 H730 0.960 . S
C718 H731 0.962 . S
C718 H732 0.960 . S
C719 C716 1.511 . S
C719 H733 0.961 . S
C719 H734 0.961 . S
C719 H735 0.961 . S
C720 C721 1.370 . S
C720 C722 1.363 . S
C720 H736 0.931 . S
C721 C720 1.370 . S
C721 C725 1.408 . S
C722 C720 1.363 . S
C722 C723 1.370 . S
C722 C726 1.524 . S
C723 C715 1.503 . S
C723 C722 1.370 . S
C723 C724 1.403 . S
C724 C723 1.403 . S
C724 C725 1.404 . S
C724 C727 1.539 . S
C725 C721 1.408 . S
C725 C724 1.404 . S
C725 H737 0.930 . S
C726 C722 1.524 . S
C726 H738 0.956 . S
C726 H739 0.961 . S
C726 H740 0.961 . S
C727 C724 1.539 . S
C727 H741 0.958 . S
C727 H742 0.961 . S
C727 H743 0.960 . S
H728 C712 0.931 . S
H729 C717 0.929 . S
H730 C718 0.960 . S
H731 C718 0.962 . S
H732 C718 0.960 . S
H733 C719 0.961 . S
H734 C719 0.961 . S
H735 C719 0.961 . S
H736 C720 0.931 . S
H737 C725 0.930 . S
H738 C726 0.956 . S
H739 C726 0.961 . S
H740 C726 0.961 . S
H741 C727 0.958 . S
H742 C727 0.961 . S
H743 C727 0.960 . S
C744 C745 1.391 . S
C744 C746 1.394 . S
C744 H760 0.931 . S
C745 C744 1.391 . S
C745 C749 1.376 . S
C746 C744 1.394 . S
C746 C747 1.369 . S
C746 C750 1.531 . S
C747 C746 1.369 . S
C747 C748 1.410 . S
C747 C755 1.503 . S
C748 C747 1.410 . S
C748 C749 1.392 . S
C748 C751 1.511 . S
C749 C745 1.376 . S
C749 C748 1.392 . S
C749 H761 0.929 . S
C750 C746 1.531 . S
C750 H762 0.960 . S
C750 H763 0.962 . S
C750 H764 0.960 . S
C751 C748 1.511 . S
C751 H765 0.961 . S
C751 H766 0.961 . S
C751 H767 0.961 . S
C752 C753 1.370 . S
C752 C754 1.363 . S
C752 H768 0.931 . S
C753 C752 1.370 . S
C753 C757 1.408 . S
C754 C752 1.363 . S
C754 C755 1.370 . S
C754 C758 1.524 . S
C755 C747 1.503 . S
C755 C754 1.370 . S
C755 C756 1.403 . S
C756 C755 1.403 . S
C756 C757 1.404 . S
C756 C759 1.539 . S
C757 C753 1.408 . S
C757 C756 1.404 . S
C757 H769 0.930 . S
C758 C754 1.524 . S
C758 H770 0.956 . S
C758 H771 0.961 . S
C758 H772 0.961 . S
C759 C756 1.539 . S
C759 H773 0.958 . S
C759 H774 0.961 . S
C759 H775 0.960 . S
H760 C744 0.931 . S
H761 C749 0.929 . S
H762 C750 0.960 . S
H763 C750 0.962 . S
H764 C750 0.960 . S
H765 C751 0.961 . S
H766 C751 0.961 . S
H767 C751 0.961 . S
H768 C752 0.931 . S
H769 C757 0.930 . S
H770 C758 0.956 . S
H771 C758 0.961 . S
H772 C758 0.961 . S
H773 C759 0.958 . S
H774 C759 0.961 . S
H775 C759 0.960 . S
C776 C777 1.391 . S
C776 C778 1.394 . S
C776 H792 0.931 . S
C777 C776 1.391 . S
C777 C781 1.376 . S
C778 C776 1.394 . S
C778 C779 1.369 . S
C778 C782 1.531 . S
C779 C778 1.369 . S
C779 C780 1.410 . S
C779 C787 1.503 . S
C780 C779 1.410 . S
C780 C781 1.392 . S
C780 C783 1.511 . S
C781 C777 1.376 . S
C781 C780 1.392 . S
C781 H793 0.929 . S
C782 C778 1.531 . S
C782 H794 0.960 . S
C782 H795 0.962 . S
C782 H796 0.960 . S
C783 C780 1.511 . S
C783 H797 0.961 . S
C783 H798 0.961 . S
C783 H799 0.961 . S
C784 C785 1.370 . S
C784 C786 1.363 . S
C784 H800 0.931 . S
C785 C784 1.370 . S
C785 C789 1.408 . S
C786 C784 1.363 . S
C786 C787 1.370 . S
C786 C790 1.524 . S
C787 C779 1.503 . S
C787 C786 1.370 . S
C787 C788 1.403 . S
C788 C787 1.403 . S
C788 C789 1.404 . S
C788 C791 1.539 . S
C789 C785 1.408 . S
C789 C788 1.404 . S
C789 H801 0.930 . S
C790 C786 1.524 . S
C790 H802 0.956 . S
C790 H803 0.961 . S
C790 H804 0.961 . S
C791 C788 1.539 . S
C791 H805 0.958 . S
C791 H806 0.961 . S
C791 H807 0.960 . S
H792 C776 0.931 . S
H793 C781 0.929 . S
H794 C782 0.960 . S
H795 C782 0.962 . S
H796 C782 0.960 . S
H797 C783 0.961 . S
H798 C783 0.961 . S
H799 C783 0.961 . S
H800 C784 0.931 . S
H801 C789 0.930 . S
H802 C790 0.956 . S
H803 C790 0.961 . S
H804 C790 0.961 . S
H805 C791 0.958 . S
H806 C791 0.961 . S
H807 C791 0.960 . S
C808 C809 1.391 . S
C808 C810 1.394 . S
C808 H824 0.931 . S
C809 C808 1.391 . S
C809 C813 1.376 . S
C810 C808 1.394 . S
C810 C811 1.369 . S
C810 C814 1.531 . S
C811 C810 1.369 . S
C811 C812 1.410 . S
C811 C819 1.503 . S
C812 C811 1.410 . S
C812 C813 1.392 . S
C812 C815 1.511 . S
C813 C809 1.376 . S
C813 C812 1.392 . S
C813 H825 0.929 . S
C814 C810 1.531 . S
C814 H826 0.960 . S
C814 H827 0.962 . S
C814 H828 0.960 . S
C815 C812 1.511 . S
C815 H829 0.961 . S
C815 H830 0.961 . S
C815 H831 0.961 . S
C816 C817 1.370 . S
C816 C818 1.363 . S
C816 H832 0.931 . S
C817 C816 1.370 . S
C817 C821 1.408 . S
C818 C816 1.363 . S
C818 C819 1.370 . S
C818 C822 1.524 . S
C819 C811 1.503 . S
C819 C818 1.370 . S
C819 C820 1.403 . S
C820 C819 1.403 . S
C820 C821 1.404 . S
C820 C823 1.539 . S
C821 C817 1.408 . S
C821 C820 1.404 . S
C821 H833 0.930 . S
C822 C818 1.524 . S
C822 H834 0.956 . S
C822 H835 0.961 . S
C822 H836 0.961 . S
C823 C820 1.539 . S
C823 H837 0.958 . S
C823 H838 0.961 . S
C823 H839 0.960 . S
H824 C808 0.931 . S
H825 C813 0.929 . S
H826 C814 0.960 . S
H827 C814 0.962 . S
H828 C814 0.960 . S
H829 C815 0.961 . S
H830 C815 0.961 . S
H831 C815 0.961 . S
H832 C816 0.931 . S
H833 C821 0.930 . S
H834 C822 0.956 . S
H835 C822 0.961 . S
H836 C822 0.961 . S
H837 C823 0.958 . S
H838 C823 0.961 . S
H839 C823 0.960 . S
C840 C841 1.391 . S
C840 C842 1.394 . S
C840 H856 0.931 . S
C841 C840 1.391 . S
C841 C845 1.376 . S
C842 C840 1.394 . S
C842 C843 1.369 . S
C842 C846 1.531 . S
C843 C842 1.369 . S
C843 C844 1.410 . S
C843 C851 1.503 . S
C844 C843 1.410 . S
C844 C845 1.392 . S
C844 C847 1.511 . S
C845 C841 1.376 . S
C845 C844 1.392 . S
C845 H857 0.929 . S
C846 C842 1.531 . S
C846 H858 0.960 . S
C846 H859 0.962 . S
C846 H860 0.960 . S
C847 C844 1.511 . S
C847 H861 0.961 . S
C847 H862 0.961 . S
C847 H863 0.961 . S
C848 C849 1.370 . S
C848 C850 1.363 . S
C848 H864 0.931 . S
C849 C848 1.370 . S
C849 C853 1.408 . S
C850 C848 1.363 . S
C850 C851 1.370 . S
C850 C854 1.524 . S
C851 C843 1.503 . S
C851 C850 1.370 . S
C851 C852 1.403 . S
C852 C851 1.403 . S
C852 C853 1.404 . S
C852 C855 1.539 . S
C853 C849 1.408 . S
C853 C852 1.404 . S
C853 H865 0.930 . S
C854 C850 1.524 . S
C854 H866 0.956 . S
C854 H867 0.961 . S
C854 H868 0.961 . S
C855 C852 1.539 . S
C855 H869 0.958 . S
C855 H870 0.961 . S
C855 H871 0.960 . S
H856 C840 0.931 . S
H857 C845 0.929 . S
H858 C846 0.960 . S
H859 C846 0.962 . S
H860 C846 0.960 . S
H861 C847 0.961 . S
H862 C847 0.961 . S
H863 C847 0.961 . S
H864 C848 0.931 . S
H865 C853 0.930 . S
H866 C854 0.956 . S
H867 C854 0.961 . S
H868 C854 0.961 . S
H869 C855 0.958 . S
H870 C855 0.961 . S
H871 C855 0.960 . S
C872 C873 1.391 . S
C872 C874 1.394 . S
C872 H888 0.931 . S
C873 C872 1.391 . S
C873 C877 1.376 . S
C874 C872 1.394 . S
C874 C875 1.369 . S
C874 C878 1.531 . S
C875 C874 1.369 . S
C875 C876 1.410 . S
C875 C883 1.503 . S
C876 C875 1.410 . S
C876 C877 1.392 . S
C876 C879 1.511 . S
C877 C873 1.376 . S
C877 C876 1.392 . S
C877 H889 0.929 . S
C878 C874 1.531 . S
C878 H890 0.960 . S
C878 H891 0.962 . S
C878 H892 0.960 . S
C879 C876 1.511 . S
C879 H893 0.961 . S
C879 H894 0.961 . S
C879 H895 0.961 . S
C880 C881 1.370 . S
C880 C882 1.363 . S
C880 H896 0.931 . S
C881 C880 1.370 . S
C881 C885 1.408 . S
C882 C880 1.363 . S
C882 C883 1.370 . S
C882 C886 1.524 . S
C883 C875 1.503 . S
C883 C882 1.370 . S
C883 C884 1.403 . S
C884 C883 1.403 . S
C884 C885 1.404 . S
C884 C887 1.539 . S
C885 C881 1.408 . S
C885 C884 1.404 . S
C885 H897 0.930 . S
C886 C882 1.524 . S
C886 H898 0.956 . S
C886 H899 0.961 . S
C886 H900 0.961 . S
C887 C884 1.539 . S
C887 H901 0.958 . S
C887 H902 0.961 . S
C887 H903 0.960 . S
H888 C872 0.931 . S
H889 C877 0.929 . S
H890 C878 0.960 . S
H891 C878 0.962 . S
H892 C878 0.960 . S
H893 C879 0.961 . S
H894 C879 0.961 . S
H895 C879 0.961 . S
H896 C880 0.931 . S
H897 C885 0.930 . S
H898 C886 0.956 . S
H899 C886 0.961 . S
H900 C886 0.961 . S
H901 C887 0.958 . S
H902 C887 0.961 . S
H903 C887 0.960 . S
C904 C905 1.391 . S
C904 C906 1.394 . S
C904 H920 0.931 . S
C905 C904 1.391 . S
C905 C909 1.376 . S
C906 C904 1.394 . S
C906 C907 1.369 . S
C906 C910 1.531 . S
C907 C906 1.369 . S
C907 C908 1.410 . S
C907 C915 1.503 . S
C908 C907 1.410 . S
C908 C909 1.392 . S
C908 C911 1.511 . S
C909 C905 1.376 . S
C909 C908 1.392 . S
C909 H921 0.929 . S
C910 C906 1.531 . S
C910 H922 0.960 . S
C910 H923 0.962 . S
C910 H924 0.960 . S
C911 C908 1.511 . S
C911 H925 0.961 . S
C911 H926 0.961 . S
C911 H927 0.961 . S
C912 C913 1.370 . S
C912 C914 1.363 . S
C912 H928 0.931 . S
C913 C912 1.370 . S
C913 C917 1.408 . S
C914 C912 1.363 . S
C914 C915 1.370 . S
C914 C918 1.524 . S
C915 C907 1.503 . S
C915 C914 1.370 . S
C915 C916 1.403 . S
C916 C915 1.403 . S
C916 C917 1.404 . S
C916 C919 1.539 . S
C917 C913 1.408 . S
C917 C916 1.404 . S
C917 H929 0.930 . S
C918 C914 1.524 . S
C918 H930 0.956 . S
C918 H931 0.961 . S
C918 H932 0.961 . S
C919 C916 1.539 . S
C919 H933 0.958 . S
C919 H934 0.961 . S
C919 H935 0.960 . S
H920 C904 0.931 . S
H921 C909 0.929 . S
H922 C910 0.960 . S
H923 C910 0.962 . S
H924 C910 0.960 . S
H925 C911 0.961 . S
H926 C911 0.961 . S
H927 C911 0.961 . S
H928 C912 0.931 . S
H929 C917 0.930 . S
H930 C918 0.956 . S
H931 C918 0.961 . S
H932 C918 0.961 . S
H933 C919 0.958 . S
H934 C919 0.961 . S
H935 C919 0.960 . S
C169 C5 1.372 . S
C177 C90 1.624 . S
C201 C18 1.323 . S
C209 C109 1.448 . S
C241 C146 1.574 . S
C233 C30 1.571 . S
C265 C41 1.434 . S
C273 C156 1.386 . S
C305 C126 2.063 . S
C297 C7 1.918 . S
C337 C96 1.605 . S
C329 C16 1.354 . S
C369 C167 1.573 . S
C361 C29 1.511 . S
C401 C137 1.021 . S
C393 C38 1.007 . S
C425 C8 1.664 . S
C433 C150 1.726 . S
C465 C117 1.892 . S
C457 C27 1.670 . S
C489 C40 1.767 . S
C497 C107 1.801 . S
C521 C19 0.936 . S
C529 C129 0.970 . S
C561 C89 1.475 . S
C553 C51 1.378 . S
C585 C62 1.555 . S
C593 C110 1.572 . S
C617 C74 1.702 . S
C625 C147 1.697 . S
C649 C84 1.532 . S
C657 C157 1.557 . S
C681 C49 1.761 . S
C689 C127 2.169 1_556 S
C721 C97 1.484 . S
C713 C63 1.473 . S
C753 C166 1.495 . S
C745 C71 1.396 . S
C785 C136 1.142 . S
C777 C85 1.121 . S
C809 C52 1.637 . S
C817 C149 1.673 . S
C849 C116 1.947 . S
C841 C73 1.936 . S
C881 C106 1.452 . S
C873 C82 1.220 . S
C905 C60 1.111 . S
C913 C130 1.307 . S
