# Generated by pormake.
# Topology pth, (4,4)-cn, num edge types: 1
# Building blocks:
#     Node 0, Type 0, BuildingBlock: QUQFOY_clean_sbu_3, # of connection points: 4
#     Node 1, Type 0, BuildingBlock: QUQFOY_clean_sbu_3, # of connection points: 4
#     Node 2, Type 0, BuildingBlock: QUQFOY_clean_sbu_3, # of connection points: 4
#     Node 3, Type 1, BuildingBlock: NAWXER_clean_sbu_0, # of connection points: 4
#     Node 4, Type 1, BuildingBlock: NAWXER_clean_sbu_0, # of connection points: 4
#     Node 5, Type 1, BuildingBlock: NAWXER_clean_sbu_0, # of connection points: 4
#     Edge 6, Type (0, 1), BuildingBlock: FUNLAD_clean_linker_1, # of connection points: 2
#     Edge 7, Type (0, 1), BuildingBlock: FUNLAD_clean_linker_1, # of connection points: 2
#     Edge 8, Type (0, 1), BuildingBlock: FUNLAD_clean_linker_1, # of connection points: 2
#     Edge 9, Type (0, 1), BuildingBlock: FUNLAD_clean_linker_1, # of connection points: 2
#     Edge 10, Type (0, 1), BuildingBlock: FUNLAD_clean_linker_1, # of connection points: 2
#     Edge 11, Type (0, 1), BuildingBlock: FUNLAD_clean_linker_1, # of connection points: 2
#     Edge 12, Type (0, 1), BuildingBlock: FUNLAD_clean_linker_1, # of connection points: 2
#     Edge 13, Type (0, 1), BuildingBlock: FUNLAD_clean_linker_1, # of connection points: 2
#     Edge 14, Type (0, 1), BuildingBlock: FUNLAD_clean_linker_1, # of connection points: 2
#     Edge 15, Type (0, 1), BuildingBlock: FUNLAD_clean_linker_1, # of connection points: 2
#     Edge 16, Type (0, 1), BuildingBlock: FUNLAD_clean_linker_1, # of connection points: 2
#     Edge 17, Type (0, 1), BuildingBlock: FUNLAD_clean_linker_1, # of connection points: 2
# Relax obj value: 0.004
# Max RMSD: 0.054
# Mean RMSD: 0.030
data_MOF--net-pth--node1-QUQFOY_clean_sbu_3--node2-NAWXER_clean_sbu_0--edge1-FUNLAD_clean_linker_1
_symmetry_space_group_name_H-M    P1
_symmetry_Int_Tables_number       1
_symmetry_cell_setting            triclinic
loop_
_symmetry_equiv_pos_as_xyz
'x, y, z'
_cell_length_a     24.135692
_cell_length_b     23.938916
_cell_length_c     61.564771
_cell_angle_alpha  89.944502
_cell_angle_beta   90.912171
_cell_angle_gamma 120.81044
loop_
_atom_site_label
_atom_site_type_symbol
_atom_site_fract_x
_atom_site_fract_y
_atom_site_fract_z
_atom_type_partial_charge
C0 C 0.99694 0.18813 0.09812 0.0
O1 O 0.96694 0.18973 0.08124 0.0
Cd2 Cd 0.95626 0.12811 0.04924 0.0
O3 O 0.02027 0.151 0.09892 0.0
Cd4 Cd 0.02266 0.06773 0.07531 0.0
C5 C 0.11439 0.17945 0.03832 0.0
O6 O 0.91407 0.0168 0.05948 0.0
O7 O 0.98113 0.99844 0.04262 0.0
O8 O 0.99167 0.99167 0.1052 0.0
C9 C 0.92355 0.9852 0.04502 0.0
O10 O 0.06281 0.1783 0.03267 0.0
C11 C 0.04186 0.98742 0.10525 0.0
O12 O 0.11521 0.1465 0.05442 0.0
O13 O 0.08449 0.02099 0.09137 0.0
C14 C 0.15687 0.11809 0.43282 0.0
O15 O 0.18898 0.1427 0.41573 0.0
Cd16 Cd 0.14491 0.16016 0.3831 0.0
O17 O 0.09792 0.10223 0.43375 0.0
Cd18 Cd 0.01426 0.10173 0.4094 0.0
C19 C 0.02664 0.00137 0.37349 0.0
O20 O 0.08083 0.20726 0.39187 0.0
O21 O 0.98567 0.14414 0.37793 0.0
O22 O 0.97473 0.1369 0.43962 0.0
C23 C 0.03744 0.19896 0.37812 0.0
O24 O 0.08031 0.05084 0.36838 0.0
C25 C 0.91774 0.0881 0.43884 0.0
O26 O 0.99248 0.00473 0.38841 0.0
O27 O 0.90544 0.04496 0.42451 0.0
C28 C 0.90598 0.08039 0.72172 0.0
O29 O 0.89965 0.10373 0.73939 0.0
Cd30 Cd 0.96737 0.1247 0.77105 0.0
O31 O 0.94939 0.06563 0.71987 0.0
Cd32 Cd 0.03317 0.06448 0.74342 0.0
C33 C 0.92781 0.96875 0.78177 0.0
O34 O 0.07778 0.17183 0.76074 0.0
O35 O 0.10872 0.10827 0.77401 0.0
O36 O 0.10574 0.09912 0.71279 0.0
C37 C 0.11429 0.16381 0.77382 0.0
O38 O 0.92777 0.01957 0.78771 0.0
C39 C 0.11379 0.05075 0.71305 0.0
O40 O 0.95822 0.96882 0.765 0.0
O41 O 0.08315 0.00741 0.72718 0.0
C42 C 0.04717 0.67129 0.27029 0.0
C43 C 0.01719 0.51131 0.21558 0.0
O44 O 0.10096 0.68016 0.26344 0.0
Zn45 Zn 0.13301 0.63541 0.24044 0.0
O46 O 0.99433 0.62438 0.26283 0.0
Zn47 Zn 0.03167 0.59078 0.2431 0.0
O48 O 0.07633 0.55371 0.26462 0.0
O49 O 0.18093 0.60815 0.2584 0.0
O50 O 0.9741 0.51577 0.22564 0.0
O51 O 0.07702 0.55227 0.21959 0.0
O52 O 0.17983 0.70453 0.22 0.0
O53 O 0.075 0.66684 0.21936 0.0
C54 C 0.13332 0.56454 0.26876 0.0
C55 C 0.13163 0.70612 0.21223 0.0
C56 C 0.56441 0.0245 0.6048 0.0
C57 C 0.42911 0.0334 0.54689 0.0
O58 O 0.51737 0.97663 0.59499 0.0
Zn59 Zn 0.49619 0.02722 0.57569 0.0
O60 O 0.58 0.08275 0.59985 0.0
Zn61 Zn 0.54868 0.1307 0.57781 0.0
O62 O 0.52141 0.1754 0.59702 0.0
O63 O 0.45843 0.06847 0.59779 0.0
O64 O 0.47186 0.08975 0.55413 0.0
O65 O 0.4265 0.98283 0.55455 0.0
O66 O 0.57924 0.07531 0.55536 0.0
O67 O 0.62417 0.18124 0.56046 0.0
C68 C 0.47238 0.12511 0.6044 0.0
C69 C 0.62358 0.13374 0.55107 0.0
C70 C 0.46089 0.50094 0.93197 0.0
C71 C 0.62242 0.6017 0.87595 0.0
O72 O 0.46136 0.55015 0.92351 0.0
Zn73 Zn 0.51396 0.62063 0.89869 0.0
O74 O 0.50056 0.48466 0.92566 0.0
Zn75 Zn 0.54249 0.55151 0.90427 0.0
O76 O 0.59305 0.63905 0.92362 0.0
O77 O 0.55548 0.70257 0.91394 0.0
O78 O 0.61076 0.55325 0.88762 0.0
O79 O 0.59 0.63001 0.87857 0.0
O80 O 0.44714 0.60454 0.87777 0.0
O81 O 0.46665 0.52408 0.88035 0.0
C82 C 0.59349 0.69266 0.92553 0.0
C83 C 0.43491 0.54851 0.87186 0.0
H84 H 0.03726 0.2323 0.1303 0.0
C85 C 0.00633 0.23043 0.11694 0.0
H86 H 0.94891 0.26657 0.10437 0.0
H87 H 0.98898 0.3456 0.21024 0.0
H88 H 0.92897 0.22963 0.217 0.0
H89 H 0.8948 0.15066 0.18674 0.0
H90 H 0.92167 0.18723 0.1496 0.0
C91 C 0.97872 0.26693 0.11785 0.0
C92 C 0.99311 0.31367 0.13603 0.0
C93 C 0.97432 0.29129 0.15755 0.0
C94 C 0.99126 0.33679 0.17489 0.0
C95 C 0.97526 0.31324 0.19636 0.0
C96 C 0.94108 0.24675 0.20049 0.0
C97 C 0.92205 0.20229 0.18347 0.0
C98 C 0.93824 0.22399 0.16222 0.0
H99 H 0.94736 0.42757 0.19532 0.0
C100 C 0.99836 0.45978 0.19907 0.0
H101 H 0.09376 0.48587 0.19159 0.0
H102 H 0.0357 0.37303 0.09667 0.0
H103 H 0.09116 0.48881 0.08975 0.0
H104 H 0.11587 0.56736 0.11958 0.0
H105 H 0.08574 0.53055 0.15654 0.0
C106 C 0.0426 0.45268 0.18843 0.0
C107 C 0.02422 0.4044 0.17052 0.0
C108 C 0.04144 0.42667 0.14895 0.0
C109 C 0.02612 0.38131 0.1317 0.0
C110 C 0.04514 0.40513 0.11038 0.0
C111 C 0.07719 0.47157 0.10616 0.0
C112 C 0.09119 0.51579 0.12295 0.0
C113 C 0.0737 0.49393 0.14411 0.0
H114 H 0.82108 0.03641 0.45334 0.0
C115 C 0.86765 0.08136 0.45382 0.0
H116 H 0.92316 0.17528 0.46784 0.0
H117 H 0.66216 0.16564 0.4935 0.0
H118 H 0.68793 0.2302 0.46084 0.0
H119 H 0.77771 0.24685 0.43776 0.0
H120 H 0.84179 0.19825 0.44712 0.0
C121 C 0.87772 0.12918 0.46765 0.0
C122 C 0.82604 0.12191 0.48228 0.0
C123 C 0.79044 0.15236 0.47698 0.0
C124 C 0.73973 0.14411 0.49061 0.0
C125 C 0.70267 0.17213 0.48423 0.0
C126 C 0.71663 0.20894 0.4654 0.0
C127 C 0.7671 0.21822 0.45238 0.0
C128 C 0.80355 0.19014 0.45797 0.0
H129 H 0.71452 0.19512 0.53363 0.0
C130 C 0.67449 0.14565 0.53558 0.0
H131 H 0.63351 0.04706 0.52645 0.0
H132 H 0.88733 0.05983 0.4976 0.0
H133 H 0.86297 0.99647 0.53057 0.0
H134 H 0.77626 0.98343 0.55456 0.0
H135 H 0.71341 0.03355 0.54574 0.0
C136 C 0.67265 0.0968 0.52418 0.0
C137 C 0.72617 0.10703 0.50988 0.0
C138 C 0.76237 0.07718 0.51527 0.0
C139 C 0.81237 0.08467 0.50146 0.0
C140 C 0.84832 0.05508 0.50738 0.0
C141 C 0.83502 0.01878 0.52631 0.0
C142 C 0.7862 0.01143 0.53981 0.0
C143 C 0.7503 0.04031 0.53449 0.0
H144 H 0.86707 0.91433 0.80906 0.0
C145 C 0.89056 0.90976 0.79479 0.0
H146 H 0.90277 0.84425 0.77523 0.0
H147 H 0.7859 0.72586 0.87458 0.0
H148 H 0.89526 0.79943 0.88745 0.0
H149 H 0.98066 0.86955 0.86192 0.0
H150 H 0.95652 0.867 0.82326 0.0
C151 C 0.88226 0.85131 0.78981 0.0
C152 C 0.83867 0.79448 0.80342 0.0
C153 C 0.85417 0.79357 0.82568 0.0
C154 C 0.80537 0.75163 0.84025 0.0
C155 C 0.82124 0.75537 0.86266 0.0
C156 C 0.88391 0.79756 0.87029 0.0
C157 C 0.93197 0.83715 0.85592 0.0
C158 C 0.9175 0.83548 0.83385 0.0
H159 H 0.70461 0.60552 0.85889 0.0
C160 C 0.67464 0.62715 0.85997 0.0
H161 H 0.6561 0.69888 0.8481 0.0
H162 H 0.79705 0.77497 0.76104 0.0
H163 H 0.68957 0.6957 0.74756 0.0
H164 H 0.60533 0.62102 0.77268 0.0
H165 H 0.62801 0.62529 0.81148 0.0
C166 C 0.6871 0.67833 0.84753 0.0
C167 C 0.74171 0.70919 0.83228 0.0
C168 C 0.72839 0.70467 0.80965 0.0
C169 C 0.77704 0.74733 0.79516 0.0
C170 C 0.76177 0.74352 0.77272 0.0
C171 C 0.70037 0.69821 0.76478 0.0
C172 C 0.65292 0.65617 0.77893 0.0
C173 C 0.66645 0.65924 0.80113 0.0
H174 H 0.00643 0.91177 0.13018 0.0
C175 C 0.04869 0.94466 0.12088 0.0
H176 H 0.14698 0.97835 0.11536 0.0
H177 H 0.05939 0.82068 0.21115 0.0
H178 H 0.03608 0.90364 0.22221 0.0
H179 H 0.05307 0.99134 0.19725 0.0
H180 H 0.08932 0.99423 0.16057 0.0
C181 C 0.10452 0.94634 0.12469 0.0
C182 C 0.10834 0.90242 0.14112 0.0
C183 C 0.09193 0.90429 0.16305 0.0
C184 C 0.08578 0.85585 0.17784 0.0
C185 C 0.06557 0.85669 0.19927 0.0
C186 C 0.05267 0.90441 0.20594 0.0
C187 C 0.06169 0.95349 0.19182 0.0
C188 C 0.08169 0.95405 0.1707 0.0
H189 H 0.18979 0.78891 0.19045 0.0
C190 C 0.14097 0.75405 0.19541 0.0
H191 H 0.04205 0.72282 0.19188 0.0
H192 H 0.14644 0.88817 0.10084 0.0
H193 H 0.17039 0.80574 0.08977 0.0
H194 H 0.16175 0.72297 0.11563 0.0
H195 H 0.12925 0.72222 0.15271 0.0
C196 C 0.09085 0.75626 0.18655 0.0
C197 C 0.09995 0.80799 0.17109 0.0
C198 C 0.1198 0.80816 0.14951 0.0
C199 C 0.12418 0.85558 0.13452 0.0
C200 C 0.14256 0.8536 0.11293 0.0
C201 C 0.15635 0.80643 0.10634 0.0
C202 C 0.15157 0.75989 0.1209 0.0
C203 C 0.13322 0.76028 0.14221 0.0
H204 H 0.16834 0.10467 0.46778 0.0
C205 C 0.18776 0.1068 0.45179 0.0
H206 H 0.25619 0.09849 0.43347 0.0
H207 H 0.46904 0.17068 0.50495 0.0
H208 H 0.52414 0.25658 0.47876 0.0
H209 H 0.46465 0.26855 0.44793 0.0
H210 H 0.34998 0.19411 0.44293 0.0
C211 C 0.23749 0.09703 0.44954 0.0
C212 C 0.27216 0.08965 0.46856 0.0
C213 C 0.3391 0.13471 0.47152 0.0
C214 C 0.37299 0.12911 0.48968 0.0
C215 C 0.44033 0.17355 0.49181 0.0
C216 C 0.47277 0.22305 0.47682 0.0
C217 C 0.43932 0.22968 0.45944 0.0
C218 C 0.37336 0.18629 0.45674 0.0
H219 H 0.35999 0.98384 0.51955 0.0
C220 C 0.38449 0.02814 0.52929 0.0
H221 H 0.40047 0.12224 0.53469 0.0
H222 H 0.14733 0.98715 0.4656 0.0
H223 H 0.09083 0.90454 0.49276 0.0
H224 H 0.14629 0.90343 0.52663 0.0
H225 H 0.25907 0.98359 0.53315 0.0
C226 C 0.37553 0.07806 0.52489 0.0
C227 C 0.33961 0.0797 0.50526 0.0
C228 C 0.27261 0.03473 0.50237 0.0
C229 C 0.23942 0.03819 0.48357 0.0
C230 C 0.17393 0.98932 0.48018 0.0
C231 C 0.14103 0.94117 0.49556 0.0
C232 C 0.17234 0.94034 0.51456 0.0
C233 C 0.23732 0.98644 0.51803 0.0
H234 H 0.18916 0.20403 0.79953 0.0
C235 C 0.15943 0.21499 0.78898 0.0
H236 H 0.13701 0.28624 0.77956 0.0
H237 H 0.28665 0.37502 0.87714 0.0
H238 H 0.18908 0.28247 0.89089 0.0
H239 H 0.10024 0.20911 0.86592 0.0
H240 H 0.10874 0.22761 0.82702 0.0
C241 C 0.16492 0.2736 0.79035 0.0
C242 C 0.21279 0.32372 0.80569 0.0
C243 C 0.20616 0.31326 0.82842 0.0
C244 C 0.2568 0.35619 0.84283 0.0
C245 C 0.24964 0.34386 0.86544 0.0
C246 C 0.1938 0.29104 0.87357 0.0
C247 C 0.14383 0.2497 0.85951 0.0
C248 C 0.14955 0.26057 0.8372 0.0
H249 H 0.3567 0.53239 0.84879 0.0
C250 C 0.3834 0.51103 0.85561 0.0
H251 H 0.39301 0.42816 0.85683 0.0
H252 H 0.23736 0.36152 0.76323 0.0
H253 H 0.33348 0.45599 0.74957 0.0
H254 H 0.42174 0.53026 0.77456 0.0
H255 H 0.41431 0.51071 0.81334 0.0
C256 C 0.36816 0.45086 0.84954 0.0
C257 C 0.31316 0.41036 0.83452 0.0
C258 C 0.31823 0.423 0.81191 0.0
C259 C 0.26766 0.37978 0.79748 0.0
C260 C 0.27431 0.39275 0.77492 0.0
C261 C 0.32926 0.44678 0.76686 0.0
C262 C 0.37892 0.48863 0.78093 0.0
C263 C 0.37389 0.47698 0.80319 0.0
H264 H 0.88097 0.07096 0.68677 0.0
C265 C 0.86348 0.07106 0.70292 0.0
H266 H 0.78656 0.06121 0.72154 0.0
H267 H 0.65513 0.14853 0.65191 0.0
H268 H 0.6834 0.2278 0.68073 0.0
H269 H 0.74996 0.23181 0.71217 0.0
H270 H 0.78767 0.15595 0.71515 0.0
C271 C 0.80405 0.0617 0.70533 0.0
C272 C 0.7631 0.05794 0.68633 0.0
C273 C 0.74267 0.10381 0.68463 0.0
C274 C 0.70617 0.10295 0.66614 0.0
C275 C 0.68458 0.14802 0.66525 0.0
C276 C 0.70019 0.19371 0.68174 0.0
C277 C 0.7375 0.19586 0.69946 0.0
C278 C 0.75867 0.1517 0.70098 0.0
H279 H 0.57734 0.96683 0.63039 0.0
C280 C 0.59997 0.01376 0.62241 0.0
H281 H 0.68062 0.10873 0.62098 0.0
H282 H 0.78119 0.95371 0.68659 0.0
H283 H 0.75764 0.87769 0.65696 0.0
H284 H 0.70767 0.88578 0.62275 0.0
H285 H 0.67892 0.96838 0.61829 0.0
C286 C 0.65862 0.06191 0.62905 0.0
C287 C 0.69193 0.0577 0.649 0.0
C288 C 0.71202 0.01155 0.65073 0.0
C289 C 0.74527 0.00997 0.66982 0.0
C290 C 0.75964 0.95978 0.67193 0.0
C291 C 0.74579 0.91538 0.65512 0.0
C292 C 0.71734 0.91971 0.63591 0.0
C293 C 0.70059 0.96714 0.63364 0.0
H294 H 0.8222 0.91221 0.03754 0.0
C295 C 0.87032 0.93848 0.03085 0.0
H296 H 0.92761 0.95743 0.0033 0.0
H297 H 0.75429 0.70216 0.94986 0.0
H298 H 0.85508 0.704 0.95369 0.0
H299 H 0.94289 0.78508 0.97738 0.0
H300 H 0.9309 0.86565 0.99697 0.0
C301 C 0.87941 0.93012 0.00991 0.0
C302 C 0.82577 0.8813 0.99564 0.0
C303 C 0.83282 0.83293 0.98489 0.0
C304 C 0.7812 0.78452 0.97191 0.0
C305 C 0.79088 0.73883 0.96051 0.0
C306 C 0.84873 0.73944 0.96247 0.0
C307 C 0.89821 0.78518 0.97576 0.0
C308 C 0.89064 0.8314 0.98688 0.0
H309 H 0.65356 0.79401 0.93709 0.0
C310 C 0.64039 0.74408 0.9403 0.0
H311 H 0.65419 0.68047 0.96017 0.0
H312 H 0.80124 0.97614 0.00883 0.0
H313 H 0.69784 0.96995 0.00738 0.0
H314 H 0.6023 0.8748 0.99088 0.0
H315 H 0.61055 0.78706 0.97481 0.0
C316 C 0.6677 0.73059 0.95712 0.0
C317 C 0.72149 0.78264 0.97047 0.0
C318 C 0.71403 0.83028 0.98159 0.0
C319 C 0.7674 0.8818 0.99305 0.0
C320 C 0.76095 0.93315 0.00153 0.0
C321 C 0.70203 0.93062 0.00057 0.0
C322 C 0.64838 0.87731 0.99114 0.0
C323 C 0.654 0.82757 0.98176 0.0
H324 H 0.95217 0.90453 0.36065 0.0
C325 C 0.00361 0.93972 0.36155 0.0
H326 H 0.09694 0.96355 0.35253 0.0
H327 H 0.93459 0.65039 0.32529 0.0
H328 H 0.90211 0.62719 0.36289 0.0
H329 H 0.92745 0.71604 0.3888 0.0
H330 H 0.98464 0.82834 0.37727 0.0
C331 C 0.04559 0.92791 0.35143 0.0
C332 C 0.02535 0.87267 0.33602 0.0
C333 C 0.99221 0.80721 0.34319 0.0
C334 C 0.97905 0.75599 0.32839 0.0
C335 C 0.94608 0.69108 0.33589 0.0
C336 C 0.92725 0.6771 0.35743 0.0
C337 C 0.94141 0.72712 0.372 0.0
C338 C 0.97385 0.79149 0.3651 0.0
H339 H 0.09536 0.75614 0.29215 0.0
C340 C 0.04841 0.71797 0.28612 0.0
H341 H 0.94764 0.68003 0.28673 0.0
H342 H 0.08546 0.99226 0.31653 0.0
H343 H 0.12057 0.01525 0.27929 0.0
H344 H 0.10037 0.9268 0.25403 0.0
H345 H 0.04241 0.81441 0.26556 0.0
C346 C 0.99527 0.71804 0.29222 0.0
C347 C 0.001 0.7705 0.30675 0.0
C348 C 0.03224 0.8357 0.29941 0.0
C349 C 0.04445 0.88675 0.31406 0.0
C350 C 0.07596 0.9515 0.30628 0.0
C351 C 0.09601 0.96545 0.28486 0.0
C352 C 0.08432 0.91559 0.2706 0.0
C353 C 0.05189 0.85134 0.27757 0.0
H354 H 0.15974 0.00117 0.69795 0.0
C355 C 0.15788 0.04559 0.698 0.0
H356 H 0.1976 0.14068 0.68553 0.0
H357 H 0.45628 0.14313 0.66266 0.0
H358 H 0.48972 0.20236 0.69683 0.0
H359 H 0.4116 0.21224 0.71942 0.0
H360 H 0.29925 0.16206 0.70806 0.0
C361 C 0.19706 0.09503 0.68506 0.0
C362 C 0.24423 0.09096 0.67093 0.0
C363 C 0.31008 0.12233 0.67744 0.0
C364 C 0.35547 0.11818 0.66411 0.0
C365 C 0.42019 0.14682 0.67166 0.0
C366 C 0.43997 0.18054 0.69137 0.0
C367 C 0.39597 0.18599 0.70411 0.0
C368 C 0.33167 0.15707 0.69737 0.0
H369 H 0.43904 0.18005 0.62362 0.0
C370 C 0.43048 0.13175 0.62008 0.0
H371 H 0.37223 0.03103 0.62583 0.0
H372 H 0.12189 0.0272 0.65347 0.0
H373 H 0.08823 0.9692 0.61901 0.0
H374 H 0.16708 0.96383 0.59542 0.0
H375 H 0.27991 0.01624 0.60614 0.0
C376 C 0.38173 0.07951 0.62967 0.0
C377 C 0.33513 0.0845 0.6439 0.0
C378 C 0.26919 0.05338 0.63737 0.0
C379 C 0.2237 0.05657 0.65092 0.0
C380 C 0.15835 0.02577 0.64389 0.0
C381 C 0.13839 0.99249 0.62411 0.0
C382 C 0.18277 0.98946 0.61083 0.0
C383 C 0.24745 0.0196 0.61725 0.0
H384 H 0.21738 0.21886 0.03125 0.0
C385 C 0.17414 0.21891 0.02606 0.0
H386 H 0.1329 0.2528 0.00288 0.0
H387 H 0.44501 0.46744 0.99216 0.0
H388 H 0.44162 0.5022 0.02888 0.0
H389 H 0.34342 0.44209 0.05064 0.0
H390 H 0.24847 0.34647 0.03597 0.0
C391 C 0.17628 0.25408 0.00871 0.0
C392 C 0.23578 0.29126 0.99577 0.0
C393 C 0.29035 0.348 0.0045 0.0
C394 C 0.34616 0.38412 0.99167 0.0
C395 C 0.40073 0.43937 0.00097 0.0
C396 C 0.39954 0.45968 0.02207 0.0
C397 C 0.34433 0.42572 0.03434 0.0
C398 C 0.29022 0.3706 0.02574 0.0
H399 H 0.381 0.48032 0.95364 0.0
C400 C 0.41209 0.46264 0.94832 0.0
H401 H 0.43046 0.38535 0.94982 0.0
H402 H 0.14015 0.184 0.97432 0.0
H403 H 0.14248 0.15164 0.93717 0.0
H404 H 0.2379 0.21642 0.91456 0.0
H405 H 0.33178 0.31365 0.92901 0.0
C406 C 0.40208 0.40549 0.95574 0.0
C407 C 0.34645 0.36471 0.96994 0.0
C408 C 0.29214 0.3078 0.96128 0.0
C409 C 0.23678 0.27101 0.97421 0.0
C410 C 0.1832 0.21427 0.96514 0.0
C411 C 0.18392 0.19504 0.94384 0.0
C412 C 0.23768 0.23145 0.93113 0.0
C413 C 0.29128 0.28718 0.93964 0.0
H414 H 0.008 0.23672 0.35047 0.0
C415 C 0.04705 0.24861 0.36206 0.0
H416 H 0.14034 0.32073 0.37297 0.0
H417 H 0.10478 0.40139 0.27162 0.0
H418 H 0.11349 0.30898 0.26062 0.0
H419 H 0.12201 0.23821 0.28798 0.0
H420 H 0.12095 0.25899 0.32651 0.0
C421 C 0.10147 0.30698 0.36115 0.0
C422 C 0.10755 0.35553 0.34479 0.0
C423 C 0.11082 0.3442 0.32236 0.0
C424 C 0.108 0.38622 0.30661 0.0
C425 C 0.10826 0.37198 0.2843 0.0
C426 C 0.11309 0.31896 0.27775 0.0
C427 C 0.11772 0.27902 0.29315 0.0
C428 C 0.11666 0.29127 0.31521 0.0
H429 H 0.19152 0.53309 0.2875 0.0
C430 C 0.14343 0.52565 0.28522 0.0
H431 H 0.04661 0.47428 0.29545 0.0
H432 H 0.10629 0.39426 0.38651 0.0
H433 H 0.10221 0.48938 0.39756 0.0
H434 H 0.09939 0.56344 0.37025 0.0
H435 H 0.1005 0.54276 0.3317 0.0
C436 C 0.09453 0.48094 0.29709 0.0
C437 C 0.10381 0.4405 0.31338 0.0
C438 C 0.10401 0.45375 0.33582 0.0
C439 C 0.10607 0.4113 0.35156 0.0
C440 C 0.1051 0.42508 0.37387 0.0
C441 C 0.10276 0.4795 0.38043 0.0
C442 C 0.10113 0.52118 0.36506 0.0
C443 C 0.10168 0.50869 0.34299 0.0
loop_
_geom_bond_atom_site_label_1
_geom_bond_atom_site_label_2
_geom_bond_distance
_geom_bond_site_symmetry_2
_ccdc_geom_bond_type
C0 O1 1.306 1_455 S
C0 O3 1.160 . S
O1 C0 1.306 1_655 S
O1 Cd2 2.228 . S
Cd2 O1 2.228 . S
Cd2 O6 2.273 . S
Cd2 O10 2.277 1_655 S
O3 C0 1.160 . S
O3 Cd4 2.203 . S
Cd4 O3 2.203 . S
Cd4 O6 2.411 1_455 S
Cd4 O7 2.333 . S
Cd4 O8 2.352 . S
Cd4 O12 2.277 . S
Cd4 O13 2.356 . S
C5 O10 1.209 . S
C5 O12 1.226 . S
O6 Cd2 2.273 . S
O6 Cd4 2.411 1_655 S
O6 C9 1.320 . S
O7 Cd4 2.333 . S
O7 C9 1.214 1_455 S
O8 Cd4 2.352 . S
O8 C11 1.258 1_545 S
C9 O6 1.320 . S
C9 O7 1.214 1_655 S
O10 Cd2 2.277 1_455 S
O10 C5 1.209 . S
C11 O8 1.258 1_565 S
C11 O13 1.282 1_565 S
O12 Cd4 2.277 . S
O12 C5 1.226 . S
O13 Cd4 2.356 . S
O13 C11 1.282 1_545 S
C14 O15 1.306 . S
C14 O17 1.160 . S
O15 C14 1.306 . S
O15 Cd16 2.228 . S
Cd16 O15 2.228 . S
Cd16 O20 2.273 . S
Cd16 O24 2.277 . S
O17 C14 1.160 . S
O17 Cd18 2.203 . S
Cd18 O17 2.203 . S
Cd18 O20 2.411 . S
Cd18 O21 2.333 1_455 S
Cd18 O22 2.352 1_455 S
Cd18 O26 2.277 1_445 S
Cd18 O27 2.356 1_455 S
C19 O24 1.209 1_565 S
C19 O26 1.226 1_455 S
O20 Cd16 2.273 . S
O20 Cd18 2.411 . S
O20 C23 1.320 . S
O21 Cd18 2.333 1_655 S
O21 C23 1.214 1_655 S
O22 Cd18 2.352 1_655 S
O22 C25 1.258 . S
C23 O20 1.320 . S
C23 O21 1.214 1_455 S
O24 Cd16 2.277 . S
O24 C19 1.209 1_545 S
C25 O22 1.258 . S
C25 O27 1.282 . S
O26 Cd18 2.277 1_665 S
O26 C19 1.226 1_655 S
O27 Cd18 2.356 1_655 S
O27 C25 1.282 . S
C28 O29 1.306 . S
C28 O31 1.160 . S
O29 C28 1.306 . S
O29 Cd30 2.228 . S
Cd30 O29 2.228 . S
Cd30 O34 2.273 1_655 S
Cd30 O38 2.277 . S
O31 C28 1.160 . S
O31 Cd32 2.203 1_655 S
Cd32 O31 2.203 1_455 S
Cd32 O34 2.411 . S
Cd32 O35 2.333 . S
Cd32 O36 2.352 . S
Cd32 O40 2.277 1_445 S
Cd32 O41 2.356 . S
C33 O38 1.209 . S
C33 O40 1.226 1_545 S
O34 Cd30 2.273 1_455 S
O34 Cd32 2.411 . S
O34 C37 1.320 . S
O35 Cd32 2.333 . S
O35 C37 1.214 . S
O36 Cd32 2.352 . S
O36 C39 1.258 . S
C37 O34 1.320 . S
C37 O35 1.214 . S
O38 Cd30 2.277 . S
O38 C33 1.209 . S
C39 O36 1.258 . S
C39 O41 1.282 . S
O40 Cd32 2.277 1_665 S
O40 C33 1.226 1_565 S
O41 Cd32 2.356 . S
O41 C39 1.282 . S
C42 O44 1.247 . S
C42 O46 1.258 1_455 S
C43 O50 1.235 1_455 S
C43 O51 1.258 . S
O44 C42 1.247 . S
O44 Zn45 2.028 . S
Zn45 O44 2.028 . S
Zn45 O49 2.035 . S
Zn45 O51 2.035 . S
Zn45 O52 2.028 . S
O46 C42 1.258 1_655 S
O46 Zn47 2.035 . S
Zn47 O46 2.035 . S
Zn47 O48 2.028 . S
Zn47 O50 2.035 . S
Zn47 O53 2.033 . S
O48 Zn47 2.028 . S
O48 C54 1.247 1_655 S
O49 Zn45 2.035 . S
O49 C54 1.258 . S
O50 C43 1.235 1_655 S
O50 Zn47 2.035 . S
O51 C43 1.258 . S
O51 Zn45 2.035 . S
O52 Zn45 2.028 . S
O52 C55 1.247 . S
O53 Zn47 2.033 . S
O53 C55 1.251 1_655 S
C54 O48 1.247 1_455 S
C54 O49 1.258 . S
C55 O52 1.247 . S
C55 O53 1.251 1_455 S
C56 O58 1.247 . S
C56 O60 1.258 . S
C57 O64 1.247 . S
C57 O65 1.258 . S
O58 C56 1.247 . S
O58 Zn59 2.028 . S
Zn59 O58 2.028 . S
Zn59 O63 2.035 . S
Zn59 O65 2.035 . S
Zn59 O66 2.028 . S
O60 C56 1.258 . S
O60 Zn61 2.035 . S
Zn61 O60 2.035 . S
Zn61 O62 2.028 . S
Zn61 O64 2.028 . S
Zn61 O67 2.035 . S
O62 Zn61 2.028 . S
O62 C68 1.247 . S
O63 Zn59 2.035 . S
O63 C68 1.258 . S
O64 C57 1.247 . S
O64 Zn61 2.028 . S
O65 C57 1.258 . S
O65 Zn59 2.035 . S
O66 Zn59 2.028 . S
O66 C69 1.247 . S
O67 Zn61 2.035 . S
O67 C69 1.258 . S
C68 O62 1.247 . S
C68 O63 1.258 . S
C69 O66 1.247 . S
C69 O67 1.258 . S
C70 O72 1.247 . S
C70 O74 1.258 . S
C71 O78 1.247 . S
C71 O79 1.258 . S
O72 C70 1.247 . S
O72 Zn73 2.028 . S
Zn73 O72 2.028 . S
Zn73 O77 2.035 . S
Zn73 O79 2.035 . S
Zn73 O80 2.028 . S
O74 C70 1.258 . S
O74 Zn75 2.035 . S
Zn75 O74 2.035 . S
Zn75 O76 2.028 . S
Zn75 O78 2.028 . S
Zn75 O81 2.035 . S
O76 Zn75 2.028 . S
O76 C82 1.247 . S
O77 Zn73 2.035 . S
O77 C82 1.258 . S
O78 C71 1.247 . S
O78 Zn75 2.028 . S
O79 C71 1.258 . S
O79 Zn73 2.035 . S
O80 Zn73 2.028 . S
O80 C83 1.247 . S
O81 Zn75 2.035 . S
O81 C83 1.258 . S
C82 O76 1.247 . S
C82 O77 1.258 . S
C83 O80 1.247 . S
C83 O81 1.258 . S
H84 C85 0.951 . S
C85 H84 0.951 . S
C85 C91 1.265 . S
H86 C91 0.950 1_655 S
H87 C95 0.949 . S
H88 C96 0.950 1_655 S
H89 C97 0.951 . S
H90 C98 0.951 . S
C91 C85 1.265 . S
C91 H86 0.950 1_455 S
C91 C92 1.478 . S
C92 C91 1.478 . S
C92 C93 1.397 . S
C92 C109 1.394 . S
C93 C92 1.397 . S
C93 C94 1.438 . S
C93 C98 1.429 1_455 S
C94 C93 1.438 . S
C94 C95 1.428 . S
C94 C107 1.394 . S
C95 H87 0.949 . S
C95 C94 1.428 . S
C95 C96 1.345 . S
C96 H88 0.950 1_455 S
C96 C95 1.345 . S
C96 C97 1.424 1_455 S
C97 H89 0.951 . S
C97 C96 1.424 1_655 S
C97 C98 1.347 . S
C98 H90 0.951 . S
C98 C93 1.429 1_655 S
C98 C97 1.347 . S
H99 C100 0.952 1_655 S
C100 H99 0.952 1_455 S
C100 C106 1.265 . S
H101 C106 0.950 . S
H102 C110 0.949 . S
H103 C111 0.950 . S
H104 C112 0.951 . S
H105 C113 0.951 . S
C106 C100 1.265 . S
C106 H101 0.950 . S
C106 C107 1.478 . S
C107 C94 1.394 . S
C107 C106 1.478 . S
C107 C108 1.397 . S
C108 C107 1.397 . S
C108 C109 1.438 . S
C108 C113 1.429 . S
C109 C92 1.394 . S
C109 C108 1.438 . S
C109 C110 1.428 . S
C110 H102 0.949 . S
C110 C109 1.428 . S
C110 C111 1.345 . S
C111 H103 0.950 . S
C111 C110 1.345 . S
C111 C112 1.424 . S
C112 H104 0.951 . S
C112 C111 1.424 . S
C112 C113 1.347 . S
C113 H105 0.951 . S
C113 C108 1.429 . S
C113 C112 1.347 . S
H114 C115 0.951 . S
C115 H114 0.951 . S
C115 C121 1.265 . S
H116 C121 0.950 . S
H117 C125 0.949 . S
H118 C126 0.950 . S
H119 C127 0.951 . S
H120 C128 0.951 . S
C121 C115 1.265 . S
C121 H116 0.950 . S
C121 C122 1.478 . S
C122 C121 1.478 . S
C122 C123 1.397 . S
C122 C139 1.394 . S
C123 C122 1.397 . S
C123 C124 1.438 . S
C123 C128 1.429 . S
C124 C123 1.438 . S
C124 C125 1.428 . S
C124 C137 1.394 . S
C125 H117 0.949 . S
C125 C124 1.428 . S
C125 C126 1.345 . S
C126 H118 0.950 . S
C126 C125 1.345 . S
C126 C127 1.424 . S
C127 H119 0.951 . S
C127 C126 1.424 . S
C127 C128 1.347 . S
C128 H120 0.951 . S
C128 C123 1.429 . S
C128 C127 1.347 . S
H129 C130 0.951 . S
C130 H129 0.951 . S
C130 C136 1.265 . S
H131 C136 0.950 . S
H132 C140 0.949 . S
H133 C141 0.950 . S
H134 C142 0.951 . S
H135 C143 0.951 . S
C136 C130 1.265 . S
C136 H131 0.950 . S
C136 C137 1.478 . S
C137 C124 1.394 . S
C137 C136 1.478 . S
C137 C138 1.397 . S
C138 C137 1.397 . S
C138 C139 1.438 . S
C138 C143 1.429 1_545 S
C139 C122 1.394 . S
C139 C138 1.438 . S
C139 C140 1.428 1_545 S
C140 H132 0.949 . S
C140 C139 1.428 1_565 S
C140 C141 1.345 . S
C141 H133 0.950 . S
C141 C140 1.345 . S
C141 C142 1.424 . S
C142 H134 0.951 . S
C142 C141 1.424 . S
C142 C143 1.347 . S
C143 H135 0.951 . S
C143 C138 1.429 1_565 S
C143 C142 1.347 . S
H144 C145 0.951 . S
C145 H144 0.951 . S
C145 C151 1.265 . S
H146 C151 0.950 . S
H147 C155 0.949 . S
H148 C156 0.950 . S
H149 C157 0.951 1_545 S
H150 C158 0.951 . S
C151 C145 1.265 . S
C151 H146 0.950 . S
C151 C152 1.478 . S
C152 C151 1.478 . S
C152 C153 1.397 . S
C152 C169 1.394 . S
C153 C152 1.397 . S
C153 C154 1.438 . S
C153 C158 1.429 . S
C154 C153 1.438 . S
C154 C155 1.428 . S
C154 C167 1.394 . S
C155 H147 0.949 . S
C155 C154 1.428 . S
C155 C156 1.345 . S
C156 H148 0.950 . S
C156 C155 1.345 . S
C156 C157 1.424 . S
C157 H149 0.951 1_565 S
C157 C156 1.424 . S
C157 C158 1.347 . S
C158 H150 0.951 . S
C158 C153 1.429 . S
C158 C157 1.347 . S
H159 C160 0.951 . S
C160 H159 0.951 . S
C160 C166 1.265 . S
H161 C166 0.950 . S
H162 C170 0.949 . S
H163 C171 0.950 . S
H164 C172 0.951 . S
H165 C173 0.951 . S
C166 C160 1.265 . S
C166 H161 0.950 . S
C166 C167 1.478 . S
C167 C154 1.394 . S
C167 C166 1.478 . S
C167 C168 1.397 . S
C168 C167 1.397 . S
C168 C169 1.438 . S
C168 C173 1.429 . S
C169 C152 1.394 . S
C169 C168 1.438 . S
C169 C170 1.428 . S
C170 H162 0.949 . S
C170 C169 1.428 . S
C170 C171 1.345 . S
C171 H163 0.950 . S
C171 C170 1.345 . S
C171 C172 1.424 . S
C172 H164 0.951 . S
C172 C171 1.424 . S
C172 C173 1.347 . S
C173 H165 0.951 . S
C173 C168 1.429 . S
C173 C172 1.347 . S
H174 C175 0.951 . S
C175 H174 0.951 . S
C175 C181 1.265 . S
H176 C181 0.950 . S
H177 C185 0.949 . S
H178 C186 0.950 . S
H179 C187 0.951 . S
H180 C188 0.951 . S
C181 C175 1.265 . S
C181 H176 0.950 . S
C181 C182 1.478 . S
C182 C181 1.478 . S
C182 C183 1.397 . S
C182 C199 1.394 . S
C183 C182 1.397 . S
C183 C184 1.438 . S
C183 C188 1.429 . S
C184 C183 1.438 . S
C184 C185 1.428 . S
C184 C197 1.394 . S
C185 H177 0.949 . S
C185 C184 1.428 . S
C185 C186 1.345 . S
C186 H178 0.950 . S
C186 C185 1.345 . S
C186 C187 1.424 . S
C187 H179 0.951 . S
C187 C186 1.424 . S
C187 C188 1.347 . S
C188 H180 0.951 . S
C188 C183 1.429 . S
C188 C187 1.347 . S
H189 C190 0.951 . S
C190 H189 0.951 . S
C190 C196 1.265 . S
H191 C196 0.950 1_655 S
H192 C200 0.949 . S
H193 C201 0.950 . S
H194 C202 0.951 . S
H195 C203 0.951 . S
C196 C190 1.265 . S
C196 H191 0.950 1_455 S
C196 C197 1.478 . S
C197 C184 1.394 . S
C197 C196 1.478 . S
C197 C198 1.397 . S
C198 C197 1.397 . S
C198 C199 1.438 . S
C198 C203 1.429 . S
C199 C182 1.394 . S
C199 C198 1.438 . S
C199 C200 1.428 . S
C200 H192 0.949 . S
C200 C199 1.428 . S
C200 C201 1.345 . S
C201 H193 0.950 . S
C201 C200 1.345 . S
C201 C202 1.424 . S
C202 H194 0.951 . S
C202 C201 1.424 . S
C202 C203 1.347 . S
C203 H195 0.951 . S
C203 C198 1.429 . S
C203 C202 1.347 . S
H204 C205 0.951 . S
C205 H204 0.951 . S
C205 C211 1.265 . S
H206 C211 0.950 . S
H207 C215 0.949 . S
H208 C216 0.950 . S
H209 C217 0.951 . S
H210 C218 0.951 . S
C211 C205 1.265 . S
C211 H206 0.950 . S
C211 C212 1.478 . S
C212 C211 1.478 . S
C212 C213 1.397 . S
C212 C229 1.394 . S
C213 C212 1.397 . S
C213 C214 1.438 . S
C213 C218 1.429 . S
C214 C213 1.438 . S
C214 C215 1.428 . S
C214 C227 1.394 . S
C215 H207 0.949 . S
C215 C214 1.428 . S
C215 C216 1.345 . S
C216 H208 0.950 . S
C216 C215 1.345 . S
C216 C217 1.424 . S
C217 H209 0.951 . S
C217 C216 1.424 . S
C217 C218 1.347 . S
C218 H210 0.951 . S
C218 C213 1.429 . S
C218 C217 1.347 . S
H219 C220 0.951 . S
C220 H219 0.951 . S
C220 C226 1.265 . S
H221 C226 0.950 . S
H222 C230 0.949 . S
H223 C231 0.950 . S
H224 C232 0.951 . S
H225 C233 0.951 . S
C226 C220 1.265 . S
C226 H221 0.950 . S
C226 C227 1.478 . S
C227 C214 1.394 . S
C227 C226 1.478 . S
C227 C228 1.397 . S
C228 C227 1.397 . S
C228 C229 1.438 . S
C228 C233 1.429 1_545 S
C229 C212 1.394 . S
C229 C228 1.438 . S
C229 C230 1.428 1_545 S
C230 H222 0.949 . S
C230 C229 1.428 1_565 S
C230 C231 1.345 . S
C231 H223 0.950 . S
C231 C230 1.345 . S
C231 C232 1.424 . S
C232 H224 0.951 . S
C232 C231 1.424 . S
C232 C233 1.347 . S
C233 H225 0.951 . S
C233 C228 1.429 1_565 S
C233 C232 1.347 . S
H234 C235 0.951 . S
C235 H234 0.951 . S
C235 C241 1.265 . S
H236 C241 0.950 . S
H237 C245 0.949 . S
H238 C246 0.950 . S
H239 C247 0.951 . S
H240 C248 0.951 . S
C241 C235 1.265 . S
C241 H236 0.950 . S
C241 C242 1.478 . S
C242 C241 1.478 . S
C242 C243 1.397 . S
C242 C259 1.394 . S
C243 C242 1.397 . S
C243 C244 1.438 . S
C243 C248 1.429 . S
C244 C243 1.438 . S
C244 C245 1.428 . S
C244 C257 1.394 . S
C245 H237 0.949 . S
C245 C244 1.428 . S
C245 C246 1.345 . S
C246 H238 0.950 . S
C246 C245 1.345 . S
C246 C247 1.424 . S
C247 H239 0.951 . S
C247 C246 1.424 . S
C247 C248 1.347 . S
C248 H240 0.951 . S
C248 C243 1.429 . S
C248 C247 1.347 . S
H249 C250 0.951 . S
C250 H249 0.951 . S
C250 C256 1.265 . S
H251 C256 0.950 . S
H252 C260 0.949 . S
H253 C261 0.950 . S
H254 C262 0.951 . S
H255 C263 0.951 . S
C256 C250 1.265 . S
C256 H251 0.950 . S
C256 C257 1.478 . S
C257 C244 1.394 . S
C257 C256 1.478 . S
C257 C258 1.397 . S
C258 C257 1.397 . S
C258 C259 1.438 . S
C258 C263 1.429 . S
C259 C242 1.394 . S
C259 C258 1.438 . S
C259 C260 1.428 . S
C260 H252 0.949 . S
C260 C259 1.428 . S
C260 C261 1.345 . S
C261 H253 0.950 . S
C261 C260 1.345 . S
C261 C262 1.424 . S
C262 H254 0.951 . S
C262 C261 1.424 . S
C262 C263 1.347 . S
C263 H255 0.951 . S
C263 C258 1.429 . S
C263 C262 1.347 . S
H264 C265 0.951 . S
C265 H264 0.951 . S
C265 C271 1.265 . S
H266 C271 0.950 . S
H267 C275 0.949 . S
H268 C276 0.950 . S
H269 C277 0.951 . S
H270 C278 0.951 . S
C271 C265 1.265 . S
C271 H266 0.950 . S
C271 C272 1.478 . S
C272 C271 1.478 . S
C272 C273 1.397 . S
C272 C289 1.394 . S
C273 C272 1.397 . S
C273 C274 1.438 . S
C273 C278 1.429 . S
C274 C273 1.438 . S
C274 C275 1.428 . S
C274 C287 1.394 . S
C275 H267 0.949 . S
C275 C274 1.428 . S
C275 C276 1.345 . S
C276 H268 0.950 . S
C276 C275 1.345 . S
C276 C277 1.424 . S
C277 H269 0.951 . S
C277 C276 1.424 . S
C277 C278 1.347 . S
C278 H270 0.951 . S
C278 C273 1.429 . S
C278 C277 1.347 . S
H279 C280 0.951 . S
C280 H279 0.951 . S
C280 C286 1.265 . S
H281 C286 0.950 . S
H282 C290 0.949 . S
H283 C291 0.950 . S
H284 C292 0.951 . S
H285 C293 0.953 . S
C286 C280 1.265 . S
C286 H281 0.950 . S
C286 C287 1.478 . S
C287 C274 1.394 . S
C287 C286 1.478 . S
C287 C288 1.397 . S
C288 C287 1.397 . S
C288 C289 1.438 . S
C288 C293 1.442 . S
C289 C272 1.394 . S
C289 C288 1.438 . S
C289 C290 1.428 1_545 S
C290 H282 0.949 . S
C290 C289 1.428 1_565 S
C290 C291 1.345 . S
C291 H283 0.950 . S
C291 C290 1.345 . S
C291 C292 1.424 . S
C292 H284 0.951 . S
C292 C291 1.424 . S
C292 C293 1.328 1_565 S
C293 H285 0.953 . S
C293 C288 1.442 . S
C293 C292 1.328 1_545 S
H294 C295 0.951 . S
C295 H294 0.951 . S
C295 C301 1.265 . S
H296 C301 0.950 . S
H297 C305 0.949 . S
H298 C306 0.950 . S
H299 C307 0.951 . S
H300 C308 0.951 1_554 S
C301 C295 1.265 . S
C301 H296 0.950 . S
C301 C302 1.478 . S
C302 C301 1.478 . S
C302 C303 1.397 1_554 S
C302 C319 1.394 1_554 S
C303 C302 1.397 1_556 S
C303 C304 1.438 . S
C303 C308 1.429 . S
C304 C303 1.438 . S
C304 C305 1.428 . S
C304 C317 1.394 . S
C305 H297 0.949 . S
C305 C304 1.428 . S
C305 C306 1.345 . S
C306 H298 0.950 . S
C306 C305 1.345 . S
C306 C307 1.424 . S
C307 H299 0.951 . S
C307 C306 1.424 . S
C307 C308 1.347 . S
C308 H300 0.951 1_556 S
C308 C303 1.429 . S
C308 C307 1.347 . S
H309 C310 0.951 . S
C310 H309 0.951 . S
C310 C316 1.265 . S
H311 C316 0.950 . S
H312 C320 0.949 . S
H313 C321 0.950 1_545 S
H314 C322 0.951 . S
H315 C323 0.951 . S
C316 C310 1.265 . S
C316 H311 0.950 . S
C316 C317 1.478 . S
C317 C304 1.394 . S
C317 C316 1.478 . S
C317 C318 1.397 . S
C318 C317 1.397 . S
C318 C319 1.438 . S
C318 C323 1.429 . S
C319 C302 1.394 1_556 S
C319 C318 1.438 . S
C319 C320 1.428 1_556 S
C320 H312 0.949 . S
C320 C319 1.428 1_554 S
C320 C321 1.345 . S
C321 H313 0.950 1_565 S
C321 C320 1.345 . S
C321 C322 1.424 1_554 S
C322 H314 0.951 . S
C322 C321 1.424 1_556 S
C322 C323 1.347 . S
C323 H315 0.951 . S
C323 C318 1.429 . S
C323 C322 1.347 . S
H324 C325 0.951 1_655 S
C325 H324 0.951 1_455 S
C325 C331 1.265 . S
H326 C331 0.950 . S
H327 C335 0.949 . S
H328 C336 0.950 . S
H329 C337 0.951 . S
H330 C338 0.951 . S
C331 C325 1.265 . S
C331 H326 0.950 . S
C331 C332 1.478 . S
C332 C331 1.478 . S
C332 C333 1.397 . S
C332 C349 1.394 . S
C333 C332 1.397 . S
C333 C334 1.438 . S
C333 C338 1.429 1_455 S
C334 C333 1.438 . S
C334 C335 1.428 1_455 S
C334 C347 1.394 . S
C335 H327 0.949 . S
C335 C334 1.428 1_655 S
C335 C336 1.345 . S
C336 H328 0.950 . S
C336 C335 1.345 . S
C336 C337 1.424 . S
C337 H329 0.951 . S
C337 C336 1.424 . S
C337 C338 1.347 . S
C338 H330 0.951 . S
C338 C333 1.429 1_655 S
C338 C337 1.347 . S
H339 C340 0.951 . S
C340 H339 0.951 . S
C340 C346 1.265 . S
H341 C346 0.950 . S
H342 C350 0.949 . S
H343 C351 0.950 1_545 S
H344 C352 0.951 . S
H345 C353 0.951 . S
C346 C340 1.265 . S
C346 H341 0.950 . S
C346 C347 1.478 . S
C347 C334 1.394 . S
C347 C346 1.478 . S
C347 C348 1.397 . S
C348 C347 1.397 . S
C348 C349 1.438 . S
C348 C353 1.429 . S
C349 C332 1.394 . S
C349 C348 1.438 . S
C349 C350 1.428 . S
C350 H342 0.949 . S
C350 C349 1.428 . S
C350 C351 1.345 . S
C351 H343 0.950 1_565 S
C351 C350 1.345 . S
C351 C352 1.424 . S
C352 H344 0.951 . S
C352 C351 1.424 . S
C352 C353 1.347 . S
C353 H345 0.951 . S
C353 C348 1.429 . S
C353 C352 1.347 . S
H354 C355 0.951 . S
C355 H354 0.951 . S
C355 C361 1.265 . S
H356 C361 0.950 . S
H357 C365 0.949 . S
H358 C366 0.950 . S
H359 C367 0.951 . S
H360 C368 0.951 . S
C361 C355 1.265 . S
C361 H356 0.950 . S
C361 C362 1.478 . S
C362 C361 1.478 . S
C362 C363 1.397 . S
C362 C379 1.394 . S
C363 C362 1.397 . S
C363 C364 1.438 . S
C363 C368 1.429 . S
C364 C363 1.438 . S
C364 C365 1.428 . S
C364 C377 1.394 . S
C365 H357 0.949 . S
C365 C364 1.428 . S
C365 C366 1.345 . S
C366 H358 0.950 . S
C366 C365 1.345 . S
C366 C367 1.424 . S
C367 H359 0.951 . S
C367 C366 1.424 . S
C367 C368 1.347 . S
C368 H360 0.951 . S
C368 C363 1.429 . S
C368 C367 1.347 . S
H369 C370 0.951 . S
C370 H369 0.951 . S
C370 C376 1.265 . S
H371 C376 0.950 . S
H372 C380 0.949 . S
H373 C381 0.950 . S
H374 C382 0.951 . S
H375 C383 0.951 . S
C376 C370 1.265 . S
C376 H371 0.950 . S
C376 C377 1.478 . S
C377 C364 1.394 . S
C377 C376 1.478 . S
C377 C378 1.397 . S
C378 C377 1.397 . S
C378 C379 1.438 . S
C378 C383 1.429 1_545 S
C379 C362 1.394 . S
C379 C378 1.438 . S
C379 C380 1.428 1_545 S
C380 H372 0.949 . S
C380 C379 1.428 1_565 S
C380 C381 1.345 . S
C381 H373 0.950 . S
C381 C380 1.345 . S
C381 C382 1.424 . S
C382 H374 0.951 . S
C382 C381 1.424 . S
C382 C383 1.347 . S
C383 H375 0.951 . S
C383 C378 1.429 1_565 S
C383 C382 1.347 . S
H384 C385 0.951 . S
C385 H384 0.951 . S
C385 C391 1.265 . S
H386 C391 0.950 . S
H387 C395 0.949 . S
H388 C396 0.950 . S
H389 C397 0.951 . S
H390 C398 0.951 . S
C391 C385 1.265 . S
C391 H386 0.950 . S
C391 C392 1.478 . S
C392 C391 1.478 . S
C392 C393 1.397 . S
C392 C409 1.394 1_554 S
C393 C392 1.397 . S
C393 C394 1.438 1_554 S
C393 C398 1.429 . S
C394 C393 1.438 1_556 S
C394 C395 1.428 . S
C394 C407 1.394 . S
C395 H387 0.949 . S
C395 C394 1.428 . S
C395 C396 1.345 1_556 S
C396 H388 0.950 . S
C396 C395 1.345 1_554 S
C396 C397 1.424 . S
C397 H389 0.951 . S
C397 C396 1.424 . S
C397 C398 1.347 . S
C398 H390 0.951 . S
C398 C393 1.429 . S
C398 C397 1.347 . S
H399 C400 0.951 . S
C400 H399 0.951 . S
C400 C406 1.265 . S
H401 C406 0.950 . S
H402 C410 0.949 . S
H403 C411 0.950 . S
H404 C412 0.951 . S
H405 C413 0.951 . S
C406 C400 1.265 . S
C406 H401 0.950 . S
C406 C407 1.478 . S
C407 C394 1.394 . S
C407 C406 1.478 . S
C407 C408 1.397 . S
C408 C407 1.397 . S
C408 C409 1.438 . S
C408 C413 1.429 . S
C409 C392 1.394 1_556 S
C409 C408 1.438 . S
C409 C410 1.428 . S
C410 H402 0.949 . S
C410 C409 1.428 . S
C410 C411 1.345 . S
C411 H403 0.950 . S
C411 C410 1.345 . S
C411 C412 1.424 . S
C412 H404 0.951 . S
C412 C411 1.424 . S
C412 C413 1.347 . S
C413 H405 0.951 . S
C413 C408 1.429 . S
C413 C412 1.347 . S
H414 C415 0.951 1_655 S
C415 H414 0.951 1_455 S
C415 C421 1.265 . S
H416 C421 0.950 . S
H417 C425 0.949 . S
H418 C426 0.950 . S
H419 C427 0.951 . S
H420 C428 0.951 . S
C421 C415 1.265 . S
C421 H416 0.950 . S
C421 C422 1.478 . S
C422 C421 1.478 . S
C422 C423 1.397 . S
C422 C439 1.394 . S
C423 C422 1.397 . S
C423 C424 1.438 . S
C423 C428 1.429 . S
C424 C423 1.438 . S
C424 C425 1.428 . S
C424 C437 1.394 . S
C425 H417 0.949 . S
C425 C424 1.428 . S
C425 C426 1.345 . S
C426 H418 0.950 . S
C426 C425 1.345 . S
C426 C427 1.424 . S
C427 H419 0.951 . S
C427 C426 1.424 . S
C427 C428 1.347 . S
C428 H420 0.951 . S
C428 C423 1.429 . S
C428 C427 1.347 . S
H429 C430 0.951 . S
C430 H429 0.951 . S
C430 C436 1.265 . S
H431 C436 0.950 1_655 S
H432 C440 0.949 . S
H433 C441 0.950 . S
H434 C442 0.951 . S
H435 C443 0.951 . S
C436 C430 1.265 . S
C436 H431 0.950 1_455 S
C436 C437 1.478 . S
C437 C424 1.394 . S
C437 C436 1.478 . S
C437 C438 1.397 . S
C438 C437 1.397 . S
C438 C439 1.438 . S
C438 C443 1.429 . S
C439 C422 1.394 . S
C439 C438 1.438 . S
C439 C440 1.428 . S
C440 H432 0.949 . S
C440 C439 1.428 . S
C440 C441 1.345 . S
C441 H433 0.950 . S
C441 C440 1.345 . S
C441 C442 1.424 . S
C442 H434 0.951 . S
C442 C441 1.424 . S
C442 C443 1.347 . S
C443 H435 0.951 . S
C443 C438 1.429 . S
C443 C442 1.347 . S
C100 C43 1.427 . S
C85 C0 1.426 . S
C115 C25 1.451 . S
C130 C69 1.462 . S
C145 C33 1.465 1_565 S
C160 C71 1.471 . S
C175 C11 1.408 . S
C190 C55 1.412 . S
C220 C57 1.447 . S
C205 C14 1.465 . S
C235 C37 1.451 . S
C250 C83 1.477 . S
C280 C56 1.446 . S
C265 C28 1.464 . S
C295 C9 1.468 1_565 S
C310 C82 1.474 . S
C340 C42 1.492 . S
C325 C19 1.499 . S
C370 C68 1.460 . S
C355 C39 1.449 . S
C400 C70 1.479 . S
C385 C5 1.480 . S
C415 C23 1.490 . S
C430 C54 1.518 . S
