# Generated by pormake.
# Topology gar, (4,6)-cn, num edge types: 1
# Building blocks:
#     Node 0, Type 0, BuildingBlock: QUQFOY_clean_sbu_3, # of connection points: 4
#     Node 1, Type 0, BuildingBlock: QUQFOY_clean_sbu_3, # of connection points: 4
#     Node 2, Type 0, BuildingBlock: QUQFOY_clean_sbu_3, # of connection points: 4
#     Node 3, Type 0, BuildingBlock: QUQFOY_clean_sbu_3, # of connection points: 4
#     Node 4, Type 0, BuildingBlock: QUQFOY_clean_sbu_3, # of connection points: 4
#     Node 5, Type 0, BuildingBlock: QUQFOY_clean_sbu_3, # of connection points: 4
#     Node 6, Type 0, BuildingBlock: QUQFOY_clean_sbu_3, # of connection points: 4
#     Node 7, Type 0, BuildingBlock: QUQFOY_clean_sbu_3, # of connection points: 4
#     Node 8, Type 0, BuildingBlock: QUQFOY_clean_sbu_3, # of connection points: 4
#     Node 9, Type 0, BuildingBlock: QUQFOY_clean_sbu_3, # of connection points: 4
#     Node 10, Type 0, BuildingBlock: QUQFOY_clean_sbu_3, # of connection points: 4
#     Node 11, Type 0, BuildingBlock: QUQFOY_clean_sbu_3, # of connection points: 4
#     Node 12, Type 0, BuildingBlock: QUQFOY_clean_sbu_3, # of connection points: 4
#     Node 13, Type 0, BuildingBlock: QUQFOY_clean_sbu_3, # of connection points: 4
#     Node 14, Type 0, BuildingBlock: QUQFOY_clean_sbu_3, # of connection points: 4
#     Node 15, Type 0, BuildingBlock: QUQFOY_clean_sbu_3, # of connection points: 4
#     Node 16, Type 0, BuildingBlock: QUQFOY_clean_sbu_3, # of connection points: 4
#     Node 17, Type 0, BuildingBlock: QUQFOY_clean_sbu_3, # of connection points: 4
#     Node 18, Type 0, BuildingBlock: QUQFOY_clean_sbu_3, # of connection points: 4
#     Node 19, Type 0, BuildingBlock: QUQFOY_clean_sbu_3, # of connection points: 4
#     Node 20, Type 0, BuildingBlock: QUQFOY_clean_sbu_3, # of connection points: 4
#     Node 21, Type 0, BuildingBlock: QUQFOY_clean_sbu_3, # of connection points: 4
#     Node 22, Type 0, BuildingBlock: QUQFOY_clean_sbu_3, # of connection points: 4
#     Node 23, Type 0, BuildingBlock: QUQFOY_clean_sbu_3, # of connection points: 4
#     Node 24, Type 1, BuildingBlock: PAMTOO_clean_sbu_0, # of connection points: 6
#     Node 25, Type 1, BuildingBlock: PAMTOO_clean_sbu_0, # of connection points: 6
#     Node 26, Type 1, BuildingBlock: PAMTOO_clean_sbu_0, # of connection points: 6
#     Node 27, Type 1, BuildingBlock: PAMTOO_clean_sbu_0, # of connection points: 6
#     Node 28, Type 1, BuildingBlock: PAMTOO_clean_sbu_0, # of connection points: 6
#     Node 29, Type 1, BuildingBlock: PAMTOO_clean_sbu_0, # of connection points: 6
#     Node 30, Type 1, BuildingBlock: PAMTOO_clean_sbu_0, # of connection points: 6
#     Node 31, Type 1, BuildingBlock: PAMTOO_clean_sbu_0, # of connection points: 6
#     Node 32, Type 1, BuildingBlock: PAMTOO_clean_sbu_0, # of connection points: 6
#     Node 33, Type 1, BuildingBlock: PAMTOO_clean_sbu_0, # of connection points: 6
#     Node 34, Type 1, BuildingBlock: PAMTOO_clean_sbu_0, # of connection points: 6
#     Node 35, Type 1, BuildingBlock: PAMTOO_clean_sbu_0, # of connection points: 6
#     Node 36, Type 1, BuildingBlock: PAMTOO_clean_sbu_0, # of connection points: 6
#     Node 37, Type 1, BuildingBlock: PAMTOO_clean_sbu_0, # of connection points: 6
#     Node 38, Type 1, BuildingBlock: PAMTOO_clean_sbu_0, # of connection points: 6
#     Node 39, Type 1, BuildingBlock: PAMTOO_clean_sbu_0, # of connection points: 6
#     Edge 40, Type (0, 1), BuildingBlock: UVAHIK_clean_linker_0, # of connection points: 2
#     Edge 41, Type (0, 1), BuildingBlock: UVAHIK_clean_linker_0, # of connection points: 2
#     Edge 42, Type (0, 1), BuildingBlock: UVAHIK_clean_linker_0, # of connection points: 2
#     Edge 43, Type (0, 1), BuildingBlock: UVAHIK_clean_linker_0, # of connection points: 2
#     Edge 44, Type (0, 1), BuildingBlock: UVAHIK_clean_linker_0, # of connection points: 2
#     Edge 45, Type (0, 1), BuildingBlock: UVAHIK_clean_linker_0, # of connection points: 2
#     Edge 46, Type (0, 1), BuildingBlock: UVAHIK_clean_linker_0, # of connection points: 2
#     Edge 47, Type (0, 1), BuildingBlock: UVAHIK_clean_linker_0, # of connection points: 2
#     Edge 48, Type (0, 1), BuildingBlock: UVAHIK_clean_linker_0, # of connection points: 2
#     Edge 49, Type (0, 1), BuildingBlock: UVAHIK_clean_linker_0, # of connection points: 2
#     Edge 50, Type (0, 1), BuildingBlock: UVAHIK_clean_linker_0, # of connection points: 2
#     Edge 51, Type (0, 1), BuildingBlock: UVAHIK_clean_linker_0, # of connection points: 2
#     Edge 52, Type (0, 1), BuildingBlock: UVAHIK_clean_linker_0, # of connection points: 2
#     Edge 53, Type (0, 1), BuildingBlock: UVAHIK_clean_linker_0, # of connection points: 2
#     Edge 54, Type (0, 1), BuildingBlock: UVAHIK_clean_linker_0, # of connection points: 2
#     Edge 55, Type (0, 1), BuildingBlock: UVAHIK_clean_linker_0, # of connection points: 2
#     Edge 56, Type (0, 1), BuildingBlock: UVAHIK_clean_linker_0, # of connection points: 2
#     Edge 57, Type (0, 1), BuildingBlock: UVAHIK_clean_linker_0, # of connection points: 2
#     Edge 58, Type (0, 1), BuildingBlock: UVAHIK_clean_linker_0, # of connection points: 2
#     Edge 59, Type (0, 1), BuildingBlock: UVAHIK_clean_linker_0, # of connection points: 2
#     Edge 60, Type (0, 1), BuildingBlock: UVAHIK_clean_linker_0, # of connection points: 2
#     Edge 61, Type (0, 1), BuildingBlock: UVAHIK_clean_linker_0, # of connection points: 2
#     Edge 62, Type (0, 1), BuildingBlock: UVAHIK_clean_linker_0, # of connection points: 2
#     Edge 63, Type (0, 1), BuildingBlock: UVAHIK_clean_linker_0, # of connection points: 2
#     Edge 64, Type (0, 1), BuildingBlock: UVAHIK_clean_linker_0, # of connection points: 2
#     Edge 65, Type (0, 1), BuildingBlock: UVAHIK_clean_linker_0, # of connection points: 2
#     Edge 66, Type (0, 1), BuildingBlock: UVAHIK_clean_linker_0, # of connection points: 2
#     Edge 67, Type (0, 1), BuildingBlock: UVAHIK_clean_linker_0, # of connection points: 2
#     Edge 68, Type (0, 1), BuildingBlock: UVAHIK_clean_linker_0, # of connection points: 2
#     Edge 69, Type (0, 1), BuildingBlock: UVAHIK_clean_linker_0, # of connection points: 2
#     Edge 70, Type (0, 1), BuildingBlock: UVAHIK_clean_linker_0, # of connection points: 2
#     Edge 71, Type (0, 1), BuildingBlock: UVAHIK_clean_linker_0, # of connection points: 2
#     Edge 72, Type (0, 1), BuildingBlock: UVAHIK_clean_linker_0, # of connection points: 2
#     Edge 73, Type (0, 1), BuildingBlock: UVAHIK_clean_linker_0, # of connection points: 2
#     Edge 74, Type (0, 1), BuildingBlock: UVAHIK_clean_linker_0, # of connection points: 2
#     Edge 75, Type (0, 1), BuildingBlock: UVAHIK_clean_linker_0, # of connection points: 2
#     Edge 76, Type (0, 1), BuildingBlock: UVAHIK_clean_linker_0, # of connection points: 2
#     Edge 77, Type (0, 1), BuildingBlock: UVAHIK_clean_linker_0, # of connection points: 2
#     Edge 78, Type (0, 1), BuildingBlock: UVAHIK_clean_linker_0, # of connection points: 2
#     Edge 79, Type (0, 1), BuildingBlock: UVAHIK_clean_linker_0, # of connection points: 2
#     Edge 80, Type (0, 1), BuildingBlock: UVAHIK_clean_linker_0, # of connection points: 2
#     Edge 81, Type (0, 1), BuildingBlock: UVAHIK_clean_linker_0, # of connection points: 2
#     Edge 82, Type (0, 1), BuildingBlock: UVAHIK_clean_linker_0, # of connection points: 2
#     Edge 83, Type (0, 1), BuildingBlock: UVAHIK_clean_linker_0, # of connection points: 2
#     Edge 84, Type (0, 1), BuildingBlock: UVAHIK_clean_linker_0, # of connection points: 2
#     Edge 85, Type (0, 1), BuildingBlock: UVAHIK_clean_linker_0, # of connection points: 2
#     Edge 86, Type (0, 1), BuildingBlock: UVAHIK_clean_linker_0, # of connection points: 2
#     Edge 87, Type (0, 1), BuildingBlock: UVAHIK_clean_linker_0, # of connection points: 2
#     Edge 88, Type (0, 1), BuildingBlock: UVAHIK_clean_linker_0, # of connection points: 2
#     Edge 89, Type (0, 1), BuildingBlock: UVAHIK_clean_linker_0, # of connection points: 2
#     Edge 90, Type (0, 1), BuildingBlock: UVAHIK_clean_linker_0, # of connection points: 2
#     Edge 91, Type (0, 1), BuildingBlock: UVAHIK_clean_linker_0, # of connection points: 2
#     Edge 92, Type (0, 1), BuildingBlock: UVAHIK_clean_linker_0, # of connection points: 2
#     Edge 93, Type (0, 1), BuildingBlock: UVAHIK_clean_linker_0, # of connection points: 2
#     Edge 94, Type (0, 1), BuildingBlock: UVAHIK_clean_linker_0, # of connection points: 2
#     Edge 95, Type (0, 1), BuildingBlock: UVAHIK_clean_linker_0, # of connection points: 2
#     Edge 96, Type (0, 1), BuildingBlock: UVAHIK_clean_linker_0, # of connection points: 2
#     Edge 97, Type (0, 1), BuildingBlock: UVAHIK_clean_linker_0, # of connection points: 2
#     Edge 98, Type (0, 1), BuildingBlock: UVAHIK_clean_linker_0, # of connection points: 2
#     Edge 99, Type (0, 1), BuildingBlock: UVAHIK_clean_linker_0, # of connection points: 2
#     Edge 100, Type (0, 1), BuildingBlock: UVAHIK_clean_linker_0, # of connection points: 2
#     Edge 101, Type (0, 1), BuildingBlock: UVAHIK_clean_linker_0, # of connection points: 2
#     Edge 102, Type (0, 1), BuildingBlock: UVAHIK_clean_linker_0, # of connection points: 2
#     Edge 103, Type (0, 1), BuildingBlock: UVAHIK_clean_linker_0, # of connection points: 2
#     Edge 104, Type (0, 1), BuildingBlock: UVAHIK_clean_linker_0, # of connection points: 2
#     Edge 105, Type (0, 1), BuildingBlock: UVAHIK_clean_linker_0, # of connection points: 2
#     Edge 106, Type (0, 1), BuildingBlock: UVAHIK_clean_linker_0, # of connection points: 2
#     Edge 107, Type (0, 1), BuildingBlock: UVAHIK_clean_linker_0, # of connection points: 2
#     Edge 108, Type (0, 1), BuildingBlock: UVAHIK_clean_linker_0, # of connection points: 2
#     Edge 109, Type (0, 1), BuildingBlock: UVAHIK_clean_linker_0, # of connection points: 2
#     Edge 110, Type (0, 1), BuildingBlock: UVAHIK_clean_linker_0, # of connection points: 2
#     Edge 111, Type (0, 1), BuildingBlock: UVAHIK_clean_linker_0, # of connection points: 2
#     Edge 112, Type (0, 1), BuildingBlock: UVAHIK_clean_linker_0, # of connection points: 2
#     Edge 113, Type (0, 1), BuildingBlock: UVAHIK_clean_linker_0, # of connection points: 2
#     Edge 114, Type (0, 1), BuildingBlock: UVAHIK_clean_linker_0, # of connection points: 2
#     Edge 115, Type (0, 1), BuildingBlock: UVAHIK_clean_linker_0, # of connection points: 2
#     Edge 116, Type (0, 1), BuildingBlock: UVAHIK_clean_linker_0, # of connection points: 2
#     Edge 117, Type (0, 1), BuildingBlock: UVAHIK_clean_linker_0, # of connection points: 2
#     Edge 118, Type (0, 1), BuildingBlock: UVAHIK_clean_linker_0, # of connection points: 2
#     Edge 119, Type (0, 1), BuildingBlock: UVAHIK_clean_linker_0, # of connection points: 2
#     Edge 120, Type (0, 1), BuildingBlock: UVAHIK_clean_linker_0, # of connection points: 2
#     Edge 121, Type (0, 1), BuildingBlock: UVAHIK_clean_linker_0, # of connection points: 2
#     Edge 122, Type (0, 1), BuildingBlock: UVAHIK_clean_linker_0, # of connection points: 2
#     Edge 123, Type (0, 1), BuildingBlock: UVAHIK_clean_linker_0, # of connection points: 2
#     Edge 124, Type (0, 1), BuildingBlock: UVAHIK_clean_linker_0, # of connection points: 2
#     Edge 125, Type (0, 1), BuildingBlock: UVAHIK_clean_linker_0, # of connection points: 2
#     Edge 126, Type (0, 1), BuildingBlock: UVAHIK_clean_linker_0, # of connection points: 2
#     Edge 127, Type (0, 1), BuildingBlock: UVAHIK_clean_linker_0, # of connection points: 2
#     Edge 128, Type (0, 1), BuildingBlock: UVAHIK_clean_linker_0, # of connection points: 2
#     Edge 129, Type (0, 1), BuildingBlock: UVAHIK_clean_linker_0, # of connection points: 2
#     Edge 130, Type (0, 1), BuildingBlock: UVAHIK_clean_linker_0, # of connection points: 2
#     Edge 131, Type (0, 1), BuildingBlock: UVAHIK_clean_linker_0, # of connection points: 2
#     Edge 132, Type (0, 1), BuildingBlock: UVAHIK_clean_linker_0, # of connection points: 2
#     Edge 133, Type (0, 1), BuildingBlock: UVAHIK_clean_linker_0, # of connection points: 2
#     Edge 134, Type (0, 1), BuildingBlock: UVAHIK_clean_linker_0, # of connection points: 2
#     Edge 135, Type (0, 1), BuildingBlock: UVAHIK_clean_linker_0, # of connection points: 2
# Relax obj value: 0.124
# Max RMSD: 0.263
# Mean RMSD: 0.149
data_MOF--net-gar--node1-QUQFOY_clean_sbu_3--node2-PAMTOO_clean_sbu_0--edge1-UVAHIK_clean_linker_0
_symmetry_space_group_name_H-M    P1
_symmetry_Int_Tables_number       1
_symmetry_cell_setting            triclinic
loop_
_symmetry_equiv_pos_as_xyz
'x, y, z'
_cell_length_a     76.469393
_cell_length_b     78.680207
_cell_length_c     75.854746
_cell_angle_alpha  96.718281
_cell_angle_beta   95.252799
_cell_angle_gamma 103.19808
loop_
_atom_site_label
_atom_site_type_symbol
_atom_site_fract_x
_atom_site_fract_y
_atom_site_fract_z
_atom_type_partial_charge
C0 C -0.00684 0.28664 0.32809 0.0
O1 O 0.00402 0.29624 0.31953 0.0
Cd2 Cd 0.03586 0.3059 0.32941 0.0
O3 O -0.00052 0.28063 0.34166 0.0
Cd4 Cd 0.03155 0.28273 0.35773 0.0
C5 C 0.03501 0.32686 0.37129 0.0
O6 O 0.04986 0.28125 0.33178 0.0
O7 O 0.0654 0.29044 0.35752 0.0
O8 O 0.02226 0.25087 0.36112 0.0
C9 C 0.06532 0.28529 0.34101 0.0
O10 O 0.03814 0.32856 0.35531 0.0
C11 C 0.02668 0.25286 0.37793 0.0
O12 O 0.03167 0.31153 0.37609 0.0
O13 O 0.03323 0.26864 0.38543 0.0
C14 C 0.96777 0.73485 0.68608 0.0
O15 O 0.976 0.72522 0.69424 0.0
Cd16 Cd 0.00488 0.7203 0.68717 0.0
O17 O 0.97487 0.74225 0.67338 0.0
Cd18 Cd 0.00419 0.74254 0.65827 0.0
C19 C -0.00257 0.6976 0.64512 0.0
O20 O 0.02796 0.74673 0.6851 0.0
O21 O 0.03589 0.73961 0.65934 0.0
O22 O 0.0081 0.77419 0.65446 0.0
C23 C 0.04056 0.7443 0.67598 0.0
O24 O 0.00099 0.69711 0.66175 0.0
C25 C 0.00628 0.77194 0.63748 0.0
O26 O -0.00365 0.71219 0.63974 0.0
O27 O 0.00344 0.75607 0.63 0.0
C28 C 0.49262 0.78564 0.82765 0.0
O29 O 0.50338 0.79548 0.81919 0.0
Cd30 Cd 0.53535 0.80504 0.82861 0.0
O31 O 0.49903 0.77945 0.84104 0.0
Cd32 Cd 0.53103 0.78167 0.85706 0.0
C33 C 0.53487 0.82601 0.87053 0.0
O34 O 0.54904 0.78018 0.83084 0.0
O35 O 0.56474 0.78834 0.85662 0.0
O36 O 0.52146 0.74989 0.86061 0.0
C37 C 0.56452 0.78363 0.84 0.0
O38 O 0.53796 0.8277 0.85454 0.0
C39 C 0.52599 0.75196 0.87741 0.0
O40 O 0.53145 0.81068 0.87532 0.0
O41 O 0.53271 0.76774 0.88482 0.0
C42 C 0.46788 0.23465 0.18564 0.0
O43 O 0.47538 0.22414 0.19323 0.0
Cd44 Cd 0.50439 0.21897 0.18665 0.0
O45 O 0.47551 0.24252 0.17347 0.0
Cd46 Cd 0.50455 0.242 0.15812 0.0
C47 C 0.49742 0.19682 0.14458 0.0
O48 O 0.52793 0.24529 0.18523 0.0
O49 O 0.53661 0.24062 0.15931 0.0
O50 O 0.50758 0.27354 0.15416 0.0
C51 C 0.54085 0.24393 0.17611 0.0
O52 O 0.50069 0.19604 0.16117 0.0
C53 C 0.50653 0.27127 0.13721 0.0
O54 O 0.49662 0.21157 0.13941 0.0
O55 O 0.50448 0.25547 0.12985 0.0
C56 C 0.00999 0.76855 0.12387 0.0
O57 O 0.02035 0.76034 0.13147 0.0
Cd58 Cd 0.04951 0.75722 0.12571 0.0
O59 O 0.01486 0.77694 0.11087 0.0
Cd60 Cd 0.04271 0.78275 0.09306 0.0
C61 C 0.03808 0.73613 0.08177 0.0
O62 O 0.06368 0.78564 0.12008 0.0
O63 O 0.07709 0.78637 0.09661 0.0
O64 O 0.04108 0.81464 0.09392 0.0
C65 C 0.07842 0.78682 0.11348 0.0
O66 O 0.04271 0.73623 0.09835 0.0
C67 C 0.03917 0.81536 0.07724 0.0
O68 O 0.03649 0.75046 0.07575 0.0
O69 O 0.03882 0.80098 0.06735 0.0
C70 C 0.45398 0.75272 0.38547 0.0
O71 O 0.46671 0.76333 0.3799 0.0
Cd72 Cd 0.49813 0.77148 0.38918 0.0
O73 O 0.45752 0.7444 0.39851 0.0
Cd74 Cd 0.48812 0.74497 0.41833 0.0
C75 C 0.49643 0.79155 0.43144 0.0
O76 O 0.50546 0.74439 0.39273 0.0
O77 O 0.52229 0.75232 0.41774 0.0
O78 O 0.48123 0.71178 0.41791 0.0
C79 C 0.52123 0.74795 0.40096 0.0
O80 O 0.50184 0.79262 0.41614 0.0
C81 C 0.48514 0.71134 0.43447 0.0
O82 O 0.48956 0.77633 0.43589 0.0
O83 O 0.48924 0.72637 0.44419 0.0
C84 C 0.50981 0.26727 0.62355 0.0
O85 O 0.52016 0.25892 0.63095 0.0
Cd86 Cd 0.54955 0.25641 0.62528 0.0
O87 O 0.51473 0.27597 0.61078 0.0
Cd88 Cd 0.54257 0.28241 0.59304 0.0
C89 C 0.53843 0.23591 0.58121 0.0
O90 O 0.56298 0.28541 0.62061 0.0
O91 O 0.57718 0.28763 0.59778 0.0
O92 O 0.53429 0.31188 0.5925 0.0
C93 C 0.57804 0.28744 0.61454 0.0
O94 O 0.54351 0.23575 0.59763 0.0
C95 C 0.53792 0.3146 0.5769 0.0
O96 O 0.53616 0.25024 0.57562 0.0
O97 O 0.54356 0.30241 0.56829 0.0
C98 C 0.95092 0.24881 0.88594 0.0
O99 O 0.96201 0.259 0.87809 0.0
Cd100 Cd -0.00676 0.2713 0.88736 0.0
O101 O 0.95638 0.243 0.90012 0.0
Cd102 Cd -0.01205 0.24537 0.91867 0.0
C103 C -0.00801 0.29152 0.93026 0.0
O104 O 0.0043 0.24619 0.8923 0.0
O105 O 0.02183 0.25339 0.917 0.0
O106 O 0.98231 0.21229 0.91814 0.0
C107 C 0.02032 0.25008 0.90007 0.0
O108 O -0.00567 0.29254 0.91398 0.0
C109 C 0.98609 0.21185 0.93471 0.0
O110 O -0.01104 0.27646 0.936 0.0
O111 O -0.01016 0.22686 0.94448 0.0
C112 C 0.42059 0.02157 0.30008 0.0
O113 O 0.42751 0.01484 0.28723 0.0
Cd114 Cd 0.41257 0.0053 0.25761 0.0
O115 O 0.40469 0.02407 0.29768 0.0
Cd116 Cd 0.37999 0.01993 0.27273 0.0
C117 C 0.375 0.97585 0.26711 0.0
O118 O 0.39955 0.02886 0.25071 0.0
O119 O 0.37205 0.01644 0.23997 0.0
O120 O 0.37401 0.04759 0.28528 0.0
C121 C 0.38776 0.02419 0.23715 0.0
O122 O 0.38957 0.97857 0.25982 0.0
C123 C 0.35694 0.04183 0.28355 0.0
O124 O 0.36906 -0.01133 0.27388 0.0
O125 O 0.35064 0.02563 0.27743 0.0
C126 C 0.2861 0.14072 0.50956 0.0
O127 O 0.27409 0.13303 0.51842 0.0
Cd128 Cd 0.24456 0.13685 0.52077 0.0
O129 O 0.28312 0.1526 0.50026 0.0
Cd130 Cd 0.25692 0.16738 0.49377 0.0
C131 C 0.25624 0.18103 0.53918 0.0
O132 O 0.23485 0.13956 0.49103 0.0
O133 O 0.2229 0.16149 0.48926 0.0
O134 O 0.26387 0.16692 0.46247 0.0
C135 C 0.22059 0.14496 0.48885 0.0
O136 O 0.25037 0.16474 0.54027 0.0
C137 C 0.26408 0.18289 0.46114 0.0
O138 O 0.26019 0.18615 0.52428 0.0
O139 O 0.26158 0.19213 0.47519 0.0
C140 C 0.08802 0.02218 0.79948 0.0
O141 O 0.07877 0.03002 0.78996 0.0
Cd142 Cd 0.08513 0.03758 0.76089 0.0
O143 O 0.10116 0.01691 0.79329 0.0
Cd144 Cd 0.11474 0.01708 0.76366 0.0
C145 C 0.12913 0.06188 0.76841 0.0
O146 O 0.08758 0.01256 0.74068 0.0
O147 O 0.1137 0.02105 0.73182 0.0
O148 O 0.11733 -0.0138 0.76279 0.0
C149 C 0.09668 0.01606 0.72778 0.0
O150 O 0.1125 0.06144 0.76429 0.0
C151 C 0.13446 -0.0103 0.76354 0.0
O152 O 0.13401 0.04769 0.77045 0.0
O153 O 0.14245 0.00588 0.76448 0.0
C154 C 0.28298 0.91163 0.97394 0.0
O155 O 0.27247 0.91836 0.96451 0.0
Cd156 Cd 0.24017 0.91119 0.96394 0.0
O157 O 0.27661 0.89979 0.98334 0.0
Cd158 Cd 0.24647 0.88384 -0.01031 0.0
C159 C 0.22923 0.86821 0.94607 0.0
O160 O 0.23732 0.91126 -0.00458 0.0
O161 O 0.21788 0.88806 -0.00024 0.0
O162 O 0.26289 0.8782 0.01686 0.0
C163 C 0.22242 0.9047 0.00081 0.0
O164 O 0.22822 0.88363 0.94337 0.0
C165 C 0.2542 0.86217 0.01539 0.0
O166 O 0.23591 0.86561 0.96117 0.0
O167 O 0.24207 0.8565 0.00212 0.0
C168 C 0.30074 0.38998 0.01183 0.0
O169 O 0.29093 0.39468 -0.0002 0.0
Cd170 Cd 0.25896 0.38593 -0.00733 0.0
O171 O 0.29388 0.37841 0.02141 0.0
Cd172 Cd 0.26235 0.35885 0.02167 0.0
C173 C 0.25776 0.34345 0.97591 0.0
O174 O 0.24868 0.38366 0.02097 0.0
O175 O 0.22907 0.35899 0.01839 0.0
O176 O 0.26871 0.36019 0.05446 0.0
C177 C 0.23223 0.37569 0.01992 0.0
O178 O 0.254 0.35799 0.97343 0.0
C179 C 0.26395 0.34374 0.05507 0.0
O180 O 0.26263 0.34054 -0.00832 0.0
O181 O 0.25898 0.33391 0.04006 0.0
C182 C 0.79165 0.106 0.02972 0.0
O183 O 0.78065 0.09969 0.04021 0.0
Cd184 Cd 0.75343 0.10833 0.04511 0.0
O185 O 0.78939 0.11886 0.02172 0.0
Cd186 Cd 0.76752 0.13764 0.02113 0.0
C187 C 0.77028 0.15032 0.06569 0.0
O188 O 0.74204 0.11242 0.01595 0.0
O189 O 0.73487 0.13734 0.01969 0.0
O190 O 0.77287 0.14251 -0.00932 0.0
C191 C 0.72974 0.12072 0.01579 0.0
O192 O 0.76072 0.13502 0.06666 0.0
C193 C 0.77602 0.1592 -0.00604 0.0
O194 O 0.77594 0.15415 0.05107 0.0
O195 O 0.77579 0.16579 0.01 0.0
C196 C 0.11186 0.51349 0.25462 0.0
O197 O 0.10264 0.516 0.24078 0.0
Cd198 Cd 0.11017 0.51284 0.21102 0.0
O199 O 0.12652 0.50852 0.25347 0.0
Cd200 Cd 0.14505 0.50146 0.2297 0.0
C201 C 0.15077 0.54345 0.22007 0.0
O202 O 0.11946 0.48583 0.20879 0.0
O203 O 0.14437 0.49099 0.19735 0.0
O204 O 0.15389 0.47954 0.24657 0.0
C205 C 0.12752 0.48398 0.19517 0.0
O206 O 0.13493 0.53903 0.21147 0.0
C207 C 0.17066 0.48466 0.24517 0.0
O208 O 0.15698 0.5326 0.2285 0.0
O209 O 0.17538 0.49759 0.23666 0.0
C210 C 0.79937 0.89261 0.51297 0.0
O211 O 0.78869 0.89741 0.50183 0.0
Cd212 Cd 0.75704 0.8862 0.49503 0.0
O213 O 0.79344 0.87999 0.52178 0.0
Cd214 Cd 0.76262 0.85927 0.52273 0.0
C215 C 0.75816 0.8445 0.47709 0.0
O216 O 0.74803 0.88355 0.52384 0.0
O217 O 0.72903 0.85844 0.51954 0.0
O218 O 0.77178 0.86053 0.55518 0.0
C219 C 0.73175 0.8751 0.52261 0.0
O220 O 0.75358 0.85879 0.47509 0.0
C221 C 0.76563 0.84429 0.55612 0.0
O222 O 0.76345 0.84146 0.49267 0.0
O223 O 0.75871 0.83459 0.54139 0.0
C224 C 0.94797 0.00562 0.28199 0.0
O225 O 0.95517 -0.00304 0.27079 0.0
Cd226 Cd 0.94463 -0.00981 0.23931 0.0
O227 O 0.93491 0.01211 0.27648 0.0
Cd228 Cd 0.91762 0.0123 0.24588 0.0
C229 C 0.90133 0.96749 0.24082 0.0
O230 O 0.94246 0.01633 0.22617 0.0
O231 O 0.91537 0.00757 0.21263 0.0
O232 O 0.91518 0.04325 0.25359 0.0
C233 C 0.93209 0.01313 0.21149 0.0
O234 O 0.9168 0.96671 0.23636 0.0
C235 C 0.898 0.03971 0.25085 0.0
O236 O 0.89815 0.98239 0.24592 0.0
O237 O 0.89003 0.02358 0.24611 0.0
C238 C 0.29125 0.61077 0.53337 0.0
O239 O 0.28018 0.60456 0.54385 0.0
Cd240 Cd 0.25217 0.61226 0.54743 0.0
O241 O 0.28862 0.62305 0.52464 0.0
Cd242 Cd 0.26592 0.64081 0.52225 0.0
C243 C 0.26679 0.65512 0.5663 0.0
O244 O 0.24123 0.61485 0.51759 0.0
O245 O 0.2331 0.63937 0.51924 0.0
O246 O 0.2718 0.64487 0.49173 0.0
C247 C 0.22857 0.62267 0.51628 0.0
O248 O 0.25792 0.6397 0.56783 0.0
C249 C 0.27482 0.66156 0.49458 0.0
O250 O 0.27263 0.65851 0.55163 0.0
O251 O 0.27421 0.66851 0.5104 0.0
C252 C 0.44826 0.50468 0.78137 0.0
O253 O 0.4553 0.4958 0.77021 0.0
Cd254 Cd 0.44478 0.48893 0.73872 0.0
O255 O 0.43529 0.51127 0.77583 0.0
Cd256 Cd 0.41789 0.51122 0.74525 0.0
C257 C 0.40145 0.46639 0.74024 0.0
O258 O 0.4428 0.51513 0.72562 0.0
O259 O 0.41573 0.50674 0.712 0.0
O260 O 0.41538 0.54216 0.75278 0.0
C261 C 0.43249 0.51212 0.71092 0.0
O262 O 0.4169 0.46552 0.73578 0.0
C263 C 0.39819 0.53855 0.75017 0.0
O264 O 0.39836 0.48134 0.7453 0.0
O265 O 0.39026 0.52239 0.74557 0.0
C266 C 0.61514 0.0202 0.75851 0.0
O267 O 0.60515 0.02285 0.74527 0.0
Cd268 Cd 0.60881 0.01701 0.71451 0.0
O269 O 0.62866 0.01359 0.75618 0.0
Cd270 Cd 0.64366 0.00331 0.73064 0.0
C271 C 0.65097 0.04474 0.71889 0.0
O272 O 0.61566 -0.01109 0.71302 0.0
O273 O 0.63849 -0.01035 0.69853 0.0
O274 O 0.65239 0.98175 0.74812 0.0
C275 C 0.62151 -0.01535 0.69855 0.0
O276 O 0.63455 0.04126 0.71186 0.0
C277 C 0.66879 -0.01461 0.74501 0.0
O278 O 0.65703 0.03362 0.72702 0.0
O279 O 0.67336 -0.00267 0.73525 0.0
C280 C 0.78686 0.64128 0.00882 0.0
O281 O 0.77461 0.63241 0.01662 0.0
Cd282 Cd 0.74461 0.63521 0.01827 0.0
O283 O 0.78387 0.65379 0.00045 0.0
Cd284 Cd 0.75736 0.66824 -0.00591 0.0
C285 C 0.75492 0.67866 0.03959 0.0
O286 O 0.73565 0.63986 -0.01096 0.0
O287 O 0.72333 0.66165 -0.01135 0.0
O288 O 0.76749 0.67055 0.96413 0.0
C289 C 0.72124 0.64507 -0.01282 0.0
O290 O 0.74907 0.66208 0.03911 0.0
C291 C 0.76568 0.68603 0.96295 0.0
O292 O 0.75962 0.68514 0.02549 0.0
O293 O 0.76056 0.69378 0.97651 0.0
C294 C 0.91555 0.51893 0.79753 0.0
O295 O 0.92224 0.51256 0.7843 0.0
Cd296 Cd 0.90845 0.5064 0.75396 0.0
O297 O 0.90017 0.52262 0.7954 0.0
Cd298 Cd 0.87631 0.52083 0.77038 0.0
C299 C 0.87001 0.47669 0.76013 0.0
O300 O 0.89661 0.53126 0.74953 0.0
O301 O 0.86925 0.51991 0.73772 0.0
O302 O 0.86908 0.5477 0.78377 0.0
C303 C 0.88522 0.52767 0.73566 0.0
O304 O 0.88424 0.47962 0.75232 0.0
C305 C 0.85216 0.54098 0.78247 0.0
O306 O 0.8651 0.48923 0.7689 0.0
O307 O 0.84668 0.52476 0.77612 0.0
C308 C 0.78355 0.40917 0.47602 0.0
O309 O 0.77253 0.41633 0.46785 0.0
Cd310 Cd 0.74048 0.40824 0.46879 0.0
O311 O 0.77782 0.39662 0.48484 0.0
Cd312 Cd 0.74863 0.37955 0.49225 0.0
C313 C 0.72989 0.36556 0.44899 0.0
O314 O 0.73902 0.40638 0.50017 0.0
O315 O 0.72011 0.38245 0.50355 0.0
O316 O 0.76736 0.37436 0.51799 0.0
C317 C 0.72432 0.39915 0.50553 0.0
O318 O 0.72849 0.38116 0.44759 0.0
C319 C 0.75925 0.35821 0.51699 0.0
O320 O 0.7373 0.3621 0.46337 0.0
O321 O 0.74623 0.35218 0.50459 0.0
C322 C 0.58771 0.52233 0.29836 0.0
O323 O 0.57863 0.5302 0.2887 0.0
Cd324 Cd 0.58543 0.53791 0.25978 0.0
O325 O 0.60105 0.51718 0.29246 0.0
Cd326 Cd 0.61538 0.51755 0.26326 0.0
C327 C 0.62932 0.56247 0.26807 0.0
O328 O 0.58829 0.51273 0.24008 0.0
O329 O 0.61449 0.52032 0.23116 0.0
O330 O 0.61868 0.48709 0.26449 0.0
C331 C 0.59747 0.5157 0.22713 0.0
O332 O 0.61271 0.56191 0.26362 0.0
C333 C 0.6357 0.4907 0.26414 0.0
O334 O 0.63425 0.54834 0.27024 0.0
O335 O 0.64328 0.50673 0.26353 0.0
Dy336 Dy 0.03393 0.02514 0.01724 0.0
Dy337 Dy -0.00504 0.00408 -0.00365 0.0
C338 C 0.03022 0.01078 0.97563 0.0
O339 O 0.02405 0.0454 0.00284 0.0
O340 O -0.00641 0.03289 -0.00113 0.0
O341 O 0.06079 0.04165 0.01755 0.0
O342 O 0.05156 0.03381 0.0421 0.0
O343 O -0.0097 0.00735 0.02514 0.0
O344 O 0.01407 0.03084 0.03584 0.0
O345 O 0.00972 -0.01737 0.00057 0.0
O346 O 0.0301 -0.00254 0.02437 0.0
O347 O 0.97125 0.98247 -0.00644 0.0
O348 O 0.97447 0.00016 0.9737 0.0
C349 C 0.0073 0.04655 -0.00145 0.0
O350 O 0.04041 0.01271 -0.00897 0.0
O351 O 0.01285 0.00986 0.97512 0.0
C352 C 0.08224 0.03528 0.03887 0.0
C353 C 0.11176 0.02021 0.04586 0.0
C354 C 0.10909 0.02692 0.02972 0.0
C355 C 0.09449 0.03441 0.02626 0.0
C356 C 0.08562 0.02965 0.05549 0.0
C357 C 0.10019 0.02209 0.05892 0.0
C358 C 0.0654 0.04089 0.03437 0.0
C359 C -0.00119 0.02 0.03798 0.0
C360 C 0.02114 0.98248 0.01466 0.0
C361 C 0.94525 -0.01 0.98093 0.0
C362 C 0.91229 -0.00022 0.98246 0.0
C363 C 0.92389 0.00077 -0.00179 0.0
C364 C 0.94029 -0.00398 -0.00255 0.0
C365 C 0.93335 -0.01179 0.96527 0.0
C366 C 0.91697 -0.00688 0.96601 0.0
C367 C 0.96354 -0.01248 0.97973 0.0
H368 H 0.11771 0.02555 0.01934 0.0
H369 H 0.09241 0.03885 0.01341 0.0
H370 H 0.07661 0.03046 0.06561 0.0
H371 H 0.10211 0.01725 0.07158 0.0
H372 H 0.92078 0.00615 0.01103 0.0
H373 H 0.94941 -0.00224 0.00969 0.0
H374 H 0.93707 -0.0163 0.95241 0.0
H375 H 0.90821 -0.0078 0.9537 0.0
Dy376 Dy 0.27242 0.75718 0.23591 0.0
Dy377 Dy 0.25023 0.76468 0.26941 0.0
C378 C 0.27766 0.79521 0.25676 0.0
O379 O 0.28635 0.7474 0.2587 0.0
O380 O 0.2778 0.7637 0.28198 0.0
O381 O 0.29222 0.7675 0.21905 0.0
O382 O 0.27993 0.73948 0.21551 0.0
O383 O 0.24772 0.73563 0.26403 0.0
O384 O 0.24858 0.73448 0.23405 0.0
O385 O 0.23044 0.76347 0.24521 0.0
O386 O 0.24993 0.76811 0.22389 0.0
O387 O 0.22775 0.75696 0.28447 0.0
O388 O 0.24763 0.78171 0.2929 0.0
C389 C 0.28849 0.75408 0.27574 0.0
O390 O 0.28622 0.78324 0.25163 0.0
O391 O 0.26093 0.79047 0.26019 0.0
C392 C 0.28725 0.75282 0.18997 0.0
C393 C 0.2832 0.76086 0.15495 0.0
C394 C 0.26817 0.75745 0.16453 0.0
C395 C 0.2702 0.75352 0.18197 0.0
C396 C 0.30201 0.75516 0.18011 0.0
C397 C 0.30001 0.75914 0.1627 0.0
C398 C 0.29033 0.75234 0.2092 0.0
C399 C 0.24385 0.7268 0.24785 0.0
C400 C 0.23376 0.7671 0.22913 0.0
C401 C 0.23673 0.76527 0.31551 0.0
C402 C 0.24344 0.75267 0.34811 0.0
C403 C 0.25592 0.76695 0.34336 0.0
C404 C 0.25262 0.77318 0.32722 0.0
C405 C 0.22379 0.75166 0.32074 0.0
C406 C 0.22715 0.74535 0.33686 0.0
C407 C 0.23429 0.77005 0.29735 0.0
H408 H 0.25511 0.75889 0.15899 0.0
H409 H 0.25871 0.75195 0.18951 0.0
H410 H 0.31528 0.75477 0.18619 0.0
H411 H 0.31176 0.76155 0.15555 0.0
H412 H 0.26864 0.77276 0.35172 0.0
H413 H 0.26288 0.78375 0.32366 0.0
H414 H 0.21136 0.74545 0.31205 0.0
H415 H 0.2172 0.73448 0.34034 0.0
Dy416 Dy 0.49211 0.0097 0.51233 0.0
Dy417 Dy 0.53452 0.01577 0.50385 0.0
C418 C 0.50375 0.02148 0.47556 0.0
O419 O 0.4937 -0.01672 0.4977 0.0
O420 O 0.52439 -0.01359 0.50295 0.0
O421 O 0.4635 0.00104 0.50318 0.0
O422 O 0.47269 0.01287 0.53071 0.0
O423 O 0.53406 0.01612 0.53321 0.0
O424 O 0.50606 -0.00198 0.5332 0.0
O425 O 0.53032 0.04345 0.50786 0.0
O426 O 0.50611 0.03788 0.52401 0.0
O427 O 0.56324 0.02545 0.51254 0.0
O428 O 0.55397 0.0109 0.48613 0.0
C429 C 0.50797 0.97642 0.4978 0.0
O430 O 0.49407 0.0237 0.48861 0.0
O431 O 0.51819 0.01527 0.47776 0.0
C432 C 0.44669 0.01948 0.51663 0.0
C433 C 0.42276 0.04181 0.51268 0.0
C434 C 0.44082 0.04709 0.50913 0.0
C435 C 0.45266 0.03602 0.51106 0.0
C436 C 0.42881 0.01421 0.52035 0.0
C437 C 0.41697 0.02525 0.51842 0.0
C438 C 0.45892 0.00756 0.51821 0.0
C439 C 0.52262 0.00508 0.54081 0.0
C440 C 0.51922 0.04911 0.51821 0.0
C441 C 0.58003 0.00576 0.50131 0.0
C442 C 0.60307 -0.01727 0.50601 0.0
C443 C 0.58561 0.979 0.51137 0.0
C444 C 0.57422 -0.00959 0.50906 0.0
C445 C 0.5974 0.00959 0.49598 0.0
C446 C 0.60883 -0.00178 0.49832 0.0
C447 C 0.56781 0.01744 0.49828 0.0
H448 H 0.44573 0.05964 0.50453 0.0
H449 H 0.46644 0.0403 0.50807 0.0
H450 H 0.42398 0.00152 0.5247 0.0
H451 H 0.40328 0.02085 0.52157 0.0
H452 H 0.5808 0.96734 0.51754 0.0
H453 H 0.56085 -0.01278 0.51329 0.0
H454 H 0.60207 0.02132 0.48986 0.0
H455 H 0.62208 0.00141 0.49383 0.0
Dy456 Dy 0.28305 0.26055 0.75936 0.0
Dy457 Dy 0.24343 0.27184 0.7561 0.0
C458 C 0.2804 0.2988 0.75148 0.0
O459 O 0.28068 0.27331 0.78704 0.0
O460 O 0.24978 0.26836 0.78453 0.0
O461 O 0.31199 0.26833 0.76736 0.0
O462 O 0.29965 0.24224 0.7532 0.0
O463 O 0.23741 0.24251 0.75433 0.0
O464 O 0.26371 0.23802 0.76819 0.0
O465 O 0.24992 0.26854 0.72762 0.0
O466 O 0.26933 0.25046 0.73156 0.0
O467 O 0.21464 0.26641 0.74709 0.0
O468 O 0.22789 0.29037 0.76474 0.0
C469 C 0.2656 0.27283 0.79434 0.0
O470 O 0.28692 0.28515 0.74676 0.0
O471 O 0.26515 0.29693 0.75856 0.0
C472 C 0.32907 0.25596 0.74712 0.0
C473 C 0.3571 0.26058 0.72466 0.0
C474 C 0.34 0.26338 0.71906 0.0
C475 C 0.32616 0.26114 0.73019 0.0
C476 C 0.34599 0.25303 0.75269 0.0
C477 C 0.35983 0.2553 0.74163 0.0
C478 C 0.31478 0.25383 0.75919 0.0
C479 C 0.24633 0.23251 0.76229 0.0
C480 C 0.25904 0.25739 0.72106 0.0
C481 C 0.19769 0.27684 0.7694 0.0
C482 C 0.16936 0.27151 0.79167 0.0
C483 C 0.1691 0.25925 0.77646 0.0
C484 C 0.18304 0.26189 0.76548 0.0
C485 C 0.19791 0.28912 0.78455 0.0
C486 C 0.18401 0.28647 0.79554 0.0
C487 C 0.21243 0.27993 0.75761 0.0
H488 H 0.3374 0.26761 0.7062 0.0
H489 H 0.31321 0.26355 0.72563 0.0
H490 H 0.34854 0.249 0.76567 0.0
H491 H 0.37264 0.25272 0.74633 0.0
H492 H 0.15818 0.24748 0.7731 0.0
H493 H 0.18231 0.25218 0.75389 0.0
H494 H 0.20881 0.3009 0.78792 0.0
H495 H 0.1846 0.29637 0.80691 0.0
Dy496 Dy 0.02021 -0.00701 0.50517 0.0
Dy497 Dy 0.00803 0.03147 0.51018 0.0
C498 C 0.98054 -0.00452 0.51487 0.0
O499 O 0.01552 -0.00066 0.47708 0.0
O500 O -0.00334 0.01788 0.48253 0.0
O501 O 0.0151 0.96522 0.49468 0.0
O502 O 0.03935 0.97782 0.51267 0.0
O503 O 0.03236 0.03525 0.49578 0.0
O504 O 0.0455 0.01455 0.50645 0.0
O505 O 0.02311 0.02958 0.53667 0.0
O506 O 0.01801 -0.00052 0.5342 0.0
O507 O 0.01591 0.05962 0.51901 0.0
O508 O -0.01104 0.04757 0.50569 0.0
C509 C 0.00363 0.00793 0.47135 0.0
O510 O -0.00968 -0.01323 0.50571 0.0
O511 O 0.98618 0.0125 0.52066 0.0
C512 C 0.02632 0.94785 0.5147 0.0
C513 C 0.02207 0.9193 0.53508 0.0
C514 C 0.01053 0.93096 0.53604 0.0
C515 C 0.01267 0.94511 0.52602 0.0
C516 C 0.03775 0.93622 0.51362 0.0
C517 C 0.03567 0.92215 0.52365 0.0
C518 C 0.02919 0.96293 0.50432 0.0
C519 C 0.04672 0.02935 0.49966 0.0
C520 C 0.02302 0.01511 0.54392 0.0
C521 C 0.00248 0.07668 0.50058 0.0
C522 C 0.00643 0.10491 0.47981 0.0
C523 C 0.01054 0.08887 0.47343 0.0
C524 C 0.00863 0.07493 0.48371 0.0
C525 C -0.00175 0.09254 0.50693 0.0
C526 C 0.00019 0.10647 0.49671 0.0
C527 C 0.0008 0.06234 0.51186 0.0
H528 H 4e-05 0.92938 0.54481 0.0
H529 H 0.00376 0.95399 0.52721 0.0
H530 H 0.04838 0.93805 0.505 0.0
H531 H 0.04467 0.91338 0.5223 0.0
H532 H 0.01557 0.08717 0.46061 0.0
H533 H 0.01207 0.06284 0.47855 0.0
H534 H -0.00653 0.0942 0.51989 0.0
H535 H -0.00339 0.11843 0.50202 0.0
Dy536 Dy 0.26658 0.78374 0.76255 0.0
Dy537 Dy 0.26064 0.74062 0.76217 0.0
C538 C 0.2547 0.76511 0.79528 0.0
O539 O 0.29492 0.77975 0.76623 0.0
O540 O 0.2884 0.75305 0.77689 0.0
O541 O 0.26751 0.80896 0.77767 0.0
O542 O 0.27151 0.80744 0.74974 0.0
O543 O 0.27698 0.74866 0.74043 0.0
O544 O 0.26447 0.77125 0.7342 0.0
O545 O 0.23496 0.74408 0.74717 0.0
O546 O 0.23644 0.77283 0.75873 0.0
O547 O 0.25483 0.71419 0.7475 0.0
O548 O 0.26065 0.71842 0.77642 0.0
C549 C 0.30014 0.76738 0.77424 0.0
O550 O 0.26744 0.77709 0.7903 0.0
O551 O 0.24678 0.75071 0.78434 0.0
C552 C 0.2572 0.82949 0.76145 0.0
C553 C 0.23584 0.8545 0.75938 0.0
C554 C 0.22924 0.83846 0.76586 0.0
C555 C 0.23978 0.82609 0.76684 0.0
C556 C 0.26364 0.84521 0.75456 0.0
C557 C 0.25309 0.85754 0.75348 0.0
C558 C 0.26923 0.81741 0.76391 0.0
C559 C 0.27287 0.75904 0.72927 0.0
C560 C 0.22729 0.75745 0.74996 0.0
C561 C 0.27031 0.69487 0.76064 0.0
C562 C 0.29239 0.6703 0.75902 0.0
C563 C 0.2751 0.66627 0.74909 0.0
C564 C 0.2642 0.67838 0.74994 0.0
C565 C 0.28769 0.69915 0.77031 0.0
C566 C 0.29857 0.687 0.76955 0.0
C567 C 0.25819 0.70715 0.76181 0.0
H568 H 0.21614 0.83565 0.77069 0.0
H569 H 0.23446 0.81403 0.77219 0.0
H570 H 0.277 0.8481 0.75026 0.0
H571 H 0.25852 0.86951 0.74805 0.0
H572 H 0.26995 0.65375 0.74055 0.0
H573 H 0.2509 0.6748 0.74228 0.0
H574 H 0.29281 0.71181 0.77863 0.0
H575 H 0.31169 0.69058 0.77753 0.0
Dy576 Dy 0.5055 0.01923 -0.01207 0.0
Dy577 Dy 0.5128 0.00065 0.02334 0.0
C578 C 0.51539 0.98125 0.9845 0.0
O579 O 0.47845 0.01093 -0.00296 0.0
O580 O 0.48413 -0.01137 0.01176 0.0
O581 O 0.49209 0.01879 0.96149 0.0
O582 O 0.51128 0.04246 0.97494 0.0
O583 O 0.50062 0.02302 0.03288 0.0
O584 O 0.50941 0.04032 0.01156 0.0
O585 O 0.53873 0.01971 0.02108 0.0
O586 O 0.53482 0.02001 -0.00909 0.0
O587 O 0.52359 0.00275 0.05105 0.0
O588 O 0.5106 0.97718 0.03597 0.0
C589 C 0.47277 -0.00358 0.00388 0.0
O590 O 0.50591 -0.00865 0.97743 0.0
O591 O 0.52236 -0.01527 0.00141 0.0
C592 C 0.5121 0.03524 0.9445 0.0
C593 C 0.53511 0.03916 0.91765 0.0
C594 C 0.53373 0.02482 0.92732 0.0
C595 C 0.52239 0.02293 0.94069 0.0
C596 C 0.51316 0.04941 0.93475 0.0
C597 C 0.52458 0.05136 0.92138 0.0
C598 C 0.50189 0.03433 0.95989 0.0
C599 C 0.50395 0.03853 0.02731 0.0
C600 C 0.54523 0.02338 0.0062 0.0
C601 C 0.5044 -0.01705 0.06547 0.0
C602 C 0.4817 -0.0171 0.09255 0.0
C603 C 0.47463 0.98178 0.07459 0.0
C604 C 0.4859 0.98189 0.06118 0.0
C605 C 0.51137 -0.01683 0.08324 0.0
C606 C 0.50007 -0.01687 0.09672 0.0
C607 C 0.51659 -0.01385 0.05178 0.0
H608 H 0.54142 0.01503 0.92457 0.0
H609 H 0.52193 0.01204 0.9483 0.0
H610 H 0.50552 0.05918 0.93778 0.0
H611 H 0.5255 0.06264 0.91428 0.0
H612 H 0.46062 0.98189 0.07097 0.0
H613 H 0.48032 0.98199 0.04755 0.0
H614 H 0.52565 -0.01587 0.08676 0.0
H615 H 0.50583 -0.01613 0.11046 0.0
Dy616 Dy 0.25576 0.24552 0.24927 0.0
Dy617 Dy 0.27685 0.28497 0.26976 0.0
C618 C 0.2716 0.25108 0.29085 0.0
O619 O 0.23437 0.25557 0.26271 0.0
O620 O 0.2473 0.28534 0.26845 0.0
O621 O 0.23682 0.22064 0.24976 0.0
O622 O 0.24996 0.22538 0.22613 0.0
O623 O 0.27343 0.28773 0.24066 0.0
O624 O 0.25031 0.26357 0.22962 0.0
O625 O 0.29955 0.27187 0.26443 0.0
O626 O 0.28445 0.24891 0.24286 0.0
O627 O 0.29702 0.3094 0.27082 0.0
O628 O 0.28123 0.30509 0.29278 0.0
C629 C 0.2333 0.27182 0.26788 0.0
O630 O 0.2687 0.24063 0.27548 0.0
O631 O 0.27291 0.26806 0.29148 0.0
C632 C 0.2471 0.19746 0.23568 0.0
C633 C 0.26105 0.16927 0.24534 0.0
C634 C 0.2724 0.18397 0.23997 0.0
C635 C 0.26552 0.19796 0.23528 0.0
C636 C 0.23549 0.18234 0.23994 0.0
C637 C 0.24241 0.16829 0.2447 0.0
C638 C 0.24068 0.2136 0.23465 0.0
C639 C 0.26113 0.27866 0.22764 0.0
C640 C 0.29962 0.2592 0.25144 0.0
C641 C 0.28865 0.33402 0.28579 0.0
C642 C 0.27804 0.36605 0.28619 0.0
C643 C 0.28195 0.35751 0.27023 0.0
C644 C 0.28714 0.3416 0.27 0.0
C645 C 0.28544 0.34291 0.30187 0.0
C646 C 0.28007 0.35874 0.30206 0.0
C647 C 0.29253 0.31649 0.2856 0.0
H648 H 0.28677 0.18493 0.24001 0.0
H649 H 0.27482 0.20952 0.23219 0.0
H650 H 0.22127 0.1818 0.24052 0.0
H651 H 0.23337 0.15713 0.24882 0.0
H652 H 0.28028 0.36277 0.25777 0.0
H653 H 0.28947 0.33504 0.25738 0.0
H654 H 0.2866 0.33735 0.31421 0.0
H655 H 0.27727 0.36514 0.31455 0.0
Dy656 Dy 0.52051 0.49294 0.0044 0.0
Dy657 Dy 0.50882 0.53152 0.01011 0.0
C658 C 0.48069 0.49569 0.01268 0.0
O659 O 0.5165 0.49966 0.97644 0.0
O660 O 0.49813 0.51869 0.98201 0.0
O661 O 0.51435 0.46488 -0.00552 0.0
O662 O 0.5395 0.47743 0.01112 0.0
O663 O 0.5334 0.53573 -0.00391 0.0
O664 O 0.54611 0.51417 0.00548 0.0
O665 O 0.5239 0.52928 0.03645 0.0
O666 O 0.51813 0.49915 0.03343 0.0
O667 O 0.51652 0.55961 0.01927 0.0
O668 O 0.48955 0.54749 0.006 0.0
C669 C 0.50498 0.50865 0.97077 0.0
O670 O 0.4904 0.48746 0.00292 0.0
O671 O 0.48691 0.5122 0.02014 0.0
C672 C 0.52575 0.4477 0.01483 0.0
C673 C 0.52139 0.41881 0.03493 0.0
C674 C 0.51317 0.41664 0.01712 0.0
C675 C 0.51537 0.43085 0.00723 0.0
C676 C 0.53382 0.44998 0.03267 0.0
C677 C 0.53168 0.43576 0.04255 0.0
C678 C 0.52855 0.46249 0.00385 0.0
C679 C 0.54756 0.52934 -0.00067 0.0
C680 C 0.52361 0.51462 0.04338 0.0
C681 C 0.5029 0.57662 0.00094 0.0
C682 C 0.50655 0.60474 0.98008 0.0
C683 C 0.51058 0.58868 0.97364 0.0
C684 C 0.50882 0.5748 0.98397 0.0
C685 C 0.49876 0.5925 0.00736 0.0
C686 C 0.50055 0.60638 -0.00291 0.0
C687 C 0.50134 0.56228 0.01221 0.0
H688 H 0.5049 0.40396 0.01078 0.0
H689 H 0.509 0.42862 -0.00647 0.0
H690 H 0.54198 0.46272 0.03902 0.0
H691 H 0.53847 0.43804 0.05608 0.0
H692 H 0.51543 0.58692 0.96074 0.0
H693 H 0.51219 0.56268 0.97876 0.0
H694 H 0.49416 0.5942 0.0204 0.0
H695 H 0.49703 0.61836 0.00244 0.0
Dy696 Dy 0.76821 0.28576 0.25776 0.0
Dy697 Dy 0.76218 0.24329 0.26293 0.0
C698 C 0.75158 0.27075 0.29186 0.0
O699 O 0.79626 0.28138 0.26337 0.0
O700 O 0.78903 0.25753 0.27844 0.0
O701 O 0.77769 0.31356 0.26845 0.0
O702 O 0.76546 0.30557 0.24099 0.0
O703 O 0.77922 0.24841 0.24095 0.0
O704 O 0.768 0.27052 0.23106 0.0
O705 O 0.7361 0.24548 0.24745 0.0
O706 O 0.73815 0.27521 0.25451 0.0
O707 O 0.75542 0.216 0.2505 0.0
O708 O 0.76368 0.22265 0.27906 0.0
C709 C 0.80111 0.2706 0.27392 0.0
O710 O 0.76238 0.28362 0.28571 0.0
O711 O 0.74765 0.25434 0.28396 0.0
C712 C 0.76002 0.33162 0.25626 0.0
C713 C 0.73924 0.35724 0.25941 0.0
C714 C 0.758 0.36182 0.26511 0.0
C715 C 0.76824 0.34917 0.2635 0.0
C716 C 0.74126 0.32686 0.25089 0.0
C717 C 0.73101 0.33952 0.2524 0.0
C718 C 0.77126 0.31864 0.25397 0.0
C719 C 0.77604 0.25761 0.22825 0.0
C720 C 0.72869 0.25916 0.24804 0.0
C721 C 0.77204 0.19777 0.26403 0.0
C722 C 0.79372 0.17281 0.26195 0.0
C723 C 0.77666 0.16932 0.25165 0.0
C724 C 0.76597 0.18161 0.25273 0.0
C725 C 0.78918 0.20149 0.27414 0.0
C726 C 0.79986 0.18915 0.27314 0.0
C727 C 0.76011 0.21027 0.26526 0.0
H728 H 0.76481 0.3752 0.2709 0.0
H729 H 0.78267 0.35315 0.26782 0.0
H730 H 0.73452 0.3134 0.24531 0.0
H731 H 0.71668 0.33546 0.24767 0.0
H732 H 0.77155 0.15711 0.24261 0.0
H733 H 0.75286 0.17843 0.24474 0.0
H734 H 0.79429 0.21386 0.28296 0.0
H735 H 0.81279 0.1923 0.28142 0.0
Dy736 Dy 0.00476 0.51931 0.48899 0.0
Dy737 Dy 0.0127 0.50111 0.52449 0.0
C738 C 0.01487 0.48145 0.48572 0.0
O739 O 0.97806 0.51132 0.4989 0.0
O740 O 0.98403 0.48884 0.51308 0.0
O741 O -0.01033 0.51867 0.46335 0.0
O742 O 0.01107 0.54159 0.47464 0.0
O743 O 0.00065 0.52359 0.53402 0.0
O744 O 0.00874 0.54071 0.51234 0.0
O745 O 0.03852 0.52008 0.52179 0.0
O746 O 0.0341 0.52015 0.49159 0.0
O747 O 0.02379 0.50344 0.55214 0.0
O748 O 0.01068 0.47778 0.53734 0.0
C749 C 0.97252 0.49666 0.50553 0.0
O750 O 0.00507 0.49134 0.47876 0.0
O751 O 0.02215 0.48514 0.50253 0.0
C752 C 0.00898 0.5322 0.44412 0.0
C753 C 0.02827 0.53131 0.41441 0.0
C754 C 0.02859 0.51906 0.42643 0.0
C755 C 0.01907 0.51955 0.44119 0.0
C756 C 0.00848 0.54439 0.43216 0.0
C757 C 0.01809 0.54396 0.41736 0.0
C758 C 0.00023 0.53335 0.46041 0.0
C759 C 0.0037 0.53902 0.52827 0.0
C760 C 0.04475 0.52361 0.50675 0.0
C761 C 0.00476 0.48384 0.56689 0.0
C762 C 0.98234 0.48407 0.5942 0.0
C763 C 0.97518 0.48311 0.57629 0.0
C764 C 0.9863 0.48307 0.56277 0.0
C765 C 0.01182 0.48392 0.58459 0.0
C766 C 0.00067 0.48401 0.5982 0.0
C767 C 0.01682 0.48688 0.55306 0.0
H768 H 0.03653 0.50935 0.42465 0.0
H769 H 0.01984 0.51023 0.45052 0.0
H770 H 0.00089 0.55434 0.43439 0.0
H771 H 0.01754 0.55347 0.40821 0.0
H772 H 0.96122 0.48346 0.57279 0.0
H773 H 0.98066 0.48329 0.54919 0.0
H774 H 0.02608 0.48466 0.58798 0.0
H775 H 0.00649 0.48462 0.61189 0.0
Dy776 Dy 0.78308 0.76144 0.25984 0.0
Dy777 Dy 0.74365 0.77297 0.25697 0.0
C778 C 0.78056 0.79967 0.25195 0.0
O779 O 0.78096 0.77425 0.28762 0.0
O780 O 0.75008 0.76939 0.28534 0.0
O781 O 0.81207 0.76927 0.26744 0.0
O782 O 0.7996 0.74303 0.25374 0.0
O783 O 0.73737 0.74366 0.25552 0.0
O784 O 0.76381 0.73897 0.26889 0.0
O785 O 0.74988 0.76941 0.22844 0.0
O786 O 0.76882 0.75087 0.23227 0.0
O787 O 0.71501 0.76802 0.24769 0.0
O788 O 0.72825 0.79146 0.26612 0.0
C789 C 0.76596 0.77385 0.29505 0.0
O790 O 0.78683 0.78591 0.24701 0.0
O791 O 0.76548 0.79793 0.25932 0.0
C792 C 0.82896 0.75646 0.2473 0.0
C793 C 0.85658 0.7598 0.22435 0.0
C794 C 0.84039 0.76485 0.21974 0.0
C795 C 0.82673 0.76318 0.23109 0.0
C796 C 0.84506 0.75153 0.252 0.0
C797 C 0.8587 0.75319 0.24071 0.0
C798 C 0.81477 0.75464 0.2595 0.0
C799 C 0.74635 0.73358 0.26328 0.0
C800 C 0.75844 0.75777 0.22185 0.0
C801 C 0.698 0.77788 0.27025 0.0
C802 C 0.67001 0.77196 0.29278 0.0
C803 C 0.67151 0.75858 0.27934 0.0
C804 C 0.68532 0.76149 0.26824 0.0
C805 C 0.6964 0.79128 0.28357 0.0
C806 C 0.68267 0.78835 0.29472 0.0
C807 C 0.7128 0.78128 0.2586 0.0
H808 H 0.83814 0.76984 0.20724 0.0
H809 H 0.81439 0.76709 0.22719 0.0
H810 H 0.84714 0.74643 0.26449 0.0
H811 H 0.87104 0.74946 0.24496 0.0
H812 H 0.66214 0.74574 0.27753 0.0
H813 H 0.68607 0.75084 0.25813 0.0
H814 H 0.7058 0.80412 0.28539 0.0
H815 H 0.68182 0.79907 0.30469 0.0
Dy816 Dy 0.77201 0.2589 0.73896 0.0
Dy817 Dy 0.74876 0.2653 0.77181 0.0
C818 C 0.77567 0.29633 0.75966 0.0
O819 O 0.78572 0.24916 0.76189 0.0
O820 O 0.77623 0.26477 0.78503 0.0
O821 O 0.79123 0.27019 0.72204 0.0
O822 O 0.78176 0.24178 0.71977 0.0
O823 O 0.74662 0.23631 0.76589 0.0
O824 O 0.74848 0.23581 0.73608 0.0
O825 O 0.72922 0.26383 0.74738 0.0
O826 O 0.74903 0.2689 0.72636 0.0
O827 O 0.72621 0.25691 0.78662 0.0
O828 O 0.74532 0.28214 0.79509 0.0
C829 C 0.78737 0.25558 0.77895 0.0
O830 O 0.78494 0.2847 0.75559 0.0
O831 O 0.75873 0.29109 0.76223 0.0
C832 C 0.7891 0.25424 0.69376 0.0
C833 C 0.78754 0.25997 0.65788 0.0
C834 C 0.77215 0.25895 0.66694 0.0
C835 C 0.77295 0.25613 0.6848 0.0
C836 C 0.80406 0.25406 0.68448 0.0
C837 C 0.80329 0.25687 0.66663 0.0
C838 C 0.79131 0.25498 0.7132 0.0
C839 C 0.74336 0.22778 0.74956 0.0
C840 C 0.7327 0.26755 0.73136 0.0
C841 C 0.73488 0.26542 0.81766 0.0
C842 C 0.7418 0.25272 0.85015 0.0
C843 C 0.75448 0.26668 0.84514 0.0
C844 C 0.75108 0.27295 0.82904 0.0
C845 C 0.72177 0.25214 0.82316 0.0
C846 C 0.72524 0.24578 0.83923 0.0
C847 C 0.73229 0.27012 0.79948 0.0
H848 H 0.75989 0.26148 0.66064 0.0
H849 H 0.76132 0.25642 0.69188 0.0
H850 H 0.81664 0.25265 0.69128 0.0
H851 H 0.81526 0.25739 0.6599 0.0
H852 H 0.76742 0.27217 0.85323 0.0
H853 H 0.7615 0.28321 0.82523 0.0
H854 H 0.70914 0.24621 0.81469 0.0
H855 H 0.71515 0.23514 0.84292 0.0
Dy856 Dy 0.75618 0.74596 0.75042 0.0
Dy857 Dy 0.77688 0.78533 0.76976 0.0
C858 C 0.77213 0.75314 0.79204 0.0
O859 O 0.73354 0.7596 0.75395 0.0
O860 O 0.7484 0.78082 0.77702 0.0
O861 O 0.73387 0.72303 0.74816 0.0
O862 O 0.75523 0.72289 0.73144 0.0
O863 O 0.76381 0.78969 0.74334 0.0
O864 O 0.75947 0.7619 0.72783 0.0
O865 O 0.79732 0.77585 0.75429 0.0
O866 O 0.78601 0.74625 0.75324 0.0
O867 O 0.7963 0.81009 0.77014 0.0
O868 O 0.7816 0.80549 0.79281 0.0
C869 C 0.73322 0.77132 0.76774 0.0
O870 O 0.75861 0.7449 0.77988 0.0
O871 O 0.7837 0.7673 0.78892 0.0
C872 C 0.74461 0.69744 0.7442 0.0
C873 C 0.75436 0.6681 0.75644 0.0
C874 C 0.75763 0.68418 0.76783 0.0
C875 C 0.7529 0.69872 0.76173 0.0
C876 C 0.74073 0.68129 0.73291 0.0
C877 C 0.74554 0.66666 0.73901 0.0
C878 C 0.74145 0.7134 0.73758 0.0
C879 C 0.76079 0.77889 0.72813 0.0
C880 C 0.7992 0.75964 0.75113 0.0
C881 C 0.78753 0.83434 0.78532 0.0
C882 C 0.77598 0.86591 0.78565 0.0
C883 C 0.78013 0.85754 0.76972 0.0
C884 C 0.78578 0.84187 0.76953 0.0
C885 C 0.78399 0.84302 0.80136 0.0
C886 C 0.77816 0.85862 0.80152 0.0
C887 C 0.79213 0.8171 0.78513 0.0
H888 H 0.76417 0.68564 0.7814 0.0
H889 H 0.75614 0.7111 0.77061 0.0
H890 H 0.73446 0.68014 0.71928 0.0
H891 H 0.74299 0.65445 0.7299 0.0
H892 H 0.77835 0.86274 0.75725 0.0
H893 H 0.78835 0.83549 0.75692 0.0
H894 H 0.78532 0.83751 0.81371 0.0
H895 H 0.77518 0.86489 0.814 0.0
Dy896 Dy 0.53315 0.52304 0.51506 0.0
Dy897 Dy 0.49306 0.50341 0.49534 0.0
C898 C 0.52749 0.50836 0.47341 0.0
O899 O 0.52374 0.5441 0.50147 0.0
O900 O 0.4931 0.53256 0.4985 0.0
O901 O 0.56074 0.53717 0.51392 0.0
O902 O 0.55182 0.53168 0.53928 0.0
O903 O 0.48911 0.50736 0.52425 0.0
O904 O 0.5147 0.52891 0.53521 0.0
O905 O 0.50611 0.48081 0.49982 0.0
O906 O 0.529 0.49522 0.52174 0.0
O907 O 0.46861 0.48269 0.49288 0.0
O908 O 0.47209 0.50073 0.47337 0.0
C909 C 0.50708 0.54584 0.49781 0.0
O910 O 0.53795 0.50986 0.48853 0.0
O911 O 0.51033 0.50818 0.4734 0.0
C912 C 0.5801 0.52748 0.53402 0.0
C913 C 0.60614 0.50853 0.54189 0.0
C914 C 0.58994 0.50024 0.53087 0.0
C915 C 0.57709 0.50964 0.52694 0.0
C916 C 0.59628 0.53594 0.5449 0.0
C917 C 0.60933 0.52653 0.54872 0.0
C918 C 0.56567 0.53655 0.53069 0.0
C919 C 0.49879 0.51914 0.53728 0.0
C920 C 0.51864 0.48042 0.51285 0.0
C921 C 0.44312 0.49195 0.48171 0.0
C922 C 0.41134 0.50356 0.48516 0.0
C923 C 0.42342 0.50383 0.50036 0.0
C924 C 0.43923 0.49817 0.49865 0.0
C925 C 0.43076 0.49095 0.46658 0.0
C926 C 0.41496 0.49676 0.46828 0.0
C927 C 0.46087 0.48843 0.47955 0.0
H928 H 0.58728 0.4865 0.52512 0.0
H929 H 0.56469 0.50293 0.51846 0.0
H930 H 0.59872 0.54969 0.55054 0.0
H931 H 0.62175 0.53319 0.55722 0.0
H932 H 0.42114 0.50929 0.5135 0.0
H933 H 0.44874 0.49933 0.51048 0.0
H934 H 0.43365 0.4863 0.4534 0.0
H935 H 0.40582 0.49638 0.45637 0.0
Dy936 Dy -0.00767 0.51068 0.01165 0.0
Dy937 Dy 0.03388 0.51623 0.00105 0.0
C938 C 0.00168 0.51995 0.9735 0.0
O939 O -0.00652 0.48408 -0.00286 0.0
O940 O 0.02413 0.48711 0.00211 0.0
O941 O 0.96347 0.50207 0.00372 0.0
O942 O 0.97381 0.5145 0.03083 0.0
O943 O 0.03447 0.51914 0.03055 0.0
O944 O 0.0076 0.50038 0.03286 0.0
O945 O 0.02965 0.544 0.00428 0.0
O946 O 0.00666 0.53903 0.022 0.0
O947 O 0.06279 0.52496 0.00931 0.0
O948 O 0.05273 0.51197 0.98242 0.0
C949 C 0.00766 0.4771 -0.00273 0.0
O950 O -0.00685 0.52358 -0.0129 0.0
O951 O 0.01606 0.51363 0.97546 0.0
C952 C 0.94762 0.52134 0.0175 0.0
C953 C 0.92458 0.54471 0.01485 0.0
C954 C 0.94186 0.54869 0.00908 0.0
C955 C 0.95327 0.53714 0.01042 0.0
C956 C 0.93043 0.51726 0.02321 0.0
C957 C 0.91903 0.52882 0.02192 0.0
C958 C 0.95959 0.50912 0.01887 0.0
C959 C 0.02438 0.50816 0.03934 0.0
C960 C 0.01924 0.55001 0.01526 0.0
C961 C 0.07895 0.50531 -0.00351 0.0
C962 C 0.10245 0.48254 0.00105 0.0
C963 C 0.10836 0.5008 0.00707 0.0
C964 C 0.09677 0.51202 0.00476 0.0
C965 C 0.07289 0.48708 -0.00937 0.0
C966 C 0.08452 0.47586 -0.00719 0.0
C967 C 0.06679 0.51736 -0.00547 0.0
H968 H 0.9467 0.56088 0.00379 0.0
H969 H 0.96654 0.54056 0.00598 0.0
H970 H 0.9258 0.50511 0.02864 0.0
H971 H 0.90575 0.52519 0.02627 0.0
H972 H 0.12191 0.50645 0.0138 0.0
H973 H 0.1017 0.52599 0.00956 0.0
H974 H 0.05915 0.48146 0.98434 0.0
H975 H 0.07947 0.46196 -0.01221 0.0
C976 C -0.01133 0.19357 0.96036 0.0
C977 C 0.98696 0.19477 0.94188 0.0
C978 C -0.00996 0.17763 0.96675 0.0
C979 C 0.00319 0.13509 0.95367 0.0
H980 H 0.97832 0.11865 -0.00698 0.0
C981 C 0.01872 0.0763 -0.01187 0.0
C982 C 0.0042 0.06358 -0.00733 0.0
C983 C 0.01616 0.092 0.98216 0.0
C984 C 0.98535 0.12295 0.98197 0.0
H985 H 0.98544 0.17961 0.91579 0.0
H986 H -0.01186 0.15225 0.92681 0.0
H987 H 0.97484 0.1462 0.98254 0.0
H988 H 0.9754 0.05805 -0.00551 0.0
H989 H 0.971 0.08559 0.9845 0.0
H990 H 0.01389 0.11204 0.95319 0.0
C991 C -0.01163 0.1636 0.93647 0.0
C992 C 0.98346 0.13893 0.97601 0.0
C993 C 0.98668 0.1794 0.93009 0.0
C994 C 0.98698 0.06737 -0.00881 0.0
C995 C 0.98447 0.0833 -0.01451 0.0
C996 C 0.00534 0.11932 0.95982 0.0
C997 C -0.00988 0.16234 0.95493 0.0
C998 C -0.00772 0.14531 0.96166 0.0
C999 C -0.001 0.09589 0.9807 0.0
C1000 C -0.00356 0.11285 0.97407 0.0
H1001 H -0.01101 0.20501 0.96995 0.0
H1002 H -0.00853 0.17741 0.98105 0.0
H1003 H 0.01038 0.13942 0.94272 0.0
H1004 H 0.03221 0.07406 -0.01103 0.0
H1005 H 0.02779 0.10125 0.97885 0.0
C1006 C 0.09526 0.78477 0.14299 0.0
C1007 C 0.09536 0.78595 0.12462 0.0
C1008 C 0.11078 0.78346 0.15362 0.0
C1009 C 0.15555 0.77202 0.15137 0.0
H1010 H 0.16462 0.79434 0.20075 0.0
C1011 C 0.22078 0.77233 0.19871 0.0
C1012 C 0.21866 0.76998 0.2166 0.0
C1013 C 0.2064 0.77477 0.18705 0.0
C1014 C 0.16226 0.78783 0.18705 0.0
H1015 H 0.11219 0.78671 0.10312 0.0
H1016 H 0.1394 0.78466 0.1217 0.0
H1017 H 0.13887 0.79785 0.18145 0.0
H1018 H 0.19943 0.76836 0.23603 0.0
H1019 H 0.17461 0.77253 0.2159 0.0
H1020 H 0.17907 0.76204 0.15709 0.0
C1021 C 0.12717 0.78453 0.12788 0.0
C1022 C 0.14738 0.78985 0.1759 0.0
C1023 C 0.11156 0.78584 0.1172 0.0
C1024 C 0.20173 0.77018 0.22243 0.0
C1025 C 0.18743 0.7727 0.21084 0.0
C1026 C 0.17051 0.77004 0.16255 0.0
C1027 C 0.12705 0.78332 0.1463 0.0
C1028 C 0.1436 0.78181 0.15791 0.0
C1029 C 0.18948 0.77506 0.19295 0.0
C1030 C 0.174 0.77776 0.18065 0.0
H1031 H 0.08306 0.78469 0.14923 0.0
H1032 H 0.10987 0.78223 0.16759 0.0
H1033 H 0.15311 0.76544 0.13771 0.0
H1034 H 0.23356 0.77223 0.19365 0.0
H1035 H 0.20864 0.77668 0.17345 0.0
C1036 C 0.51317 0.82267 0.44374 0.0
C1037 C 0.49771 0.80874 0.44313 0.0
C1038 C 0.51368 0.83993 0.45152 0.0
C1039 C 0.48418 0.8705 0.46156 0.0
H1040 H 0.52774 0.90013 0.48936 0.0
C1041 C 0.48882 0.94467 0.4899 0.0
C1042 C 0.50581 0.95687 0.49225 0.0
C1043 C 0.48719 0.9264 0.48501 0.0
C1044 C 0.51549 0.8923 0.48136 0.0
H1045 H 0.4705 0.80242 0.45038 0.0
H1046 H 0.47126 0.8327 0.46387 0.0
H1047 H 0.52615 0.86922 0.47953 0.0
H1048 H 0.53439 0.95895 0.4908 0.0
H1049 H 0.53159 0.92776 0.48179 0.0
H1050 H 0.47369 0.89366 0.46284 0.0
C1051 C 0.48316 0.83012 0.45844 0.0
C1052 C 0.51455 0.87434 0.4758 0.0
C1053 C 0.48279 0.81265 0.45093 0.0
C1054 C 0.52104 0.95013 0.48933 0.0
C1055 C 0.51942 0.93198 0.48426 0.0
C1056 C 0.48519 0.88857 0.46693 0.0
C1057 C 0.49857 0.84412 0.45867 0.0
C1058 C 0.49895 0.8631 0.46567 0.0
C1059 C 0.50249 0.91962 0.4821 0.0
C1060 C 0.50096 0.89995 0.47682 0.0
H1061 H 0.52482 0.8203 0.43763 0.0
H1062 H 0.52575 0.8502 0.4512 0.0
H1063 H 0.47197 0.86245 0.45364 0.0
H1064 H 0.47673 0.9492 0.49206 0.0
H1065 H 0.47388 0.9176 0.4838 0.0
C1066 C 0.4825 0.27988 0.6287 0.0
C1067 C 0.49212 0.26681 0.63067 0.0
C1068 C 0.46708 0.28007 0.63757 0.0
C1069 C 0.4469 0.26381 0.6771 0.0
H1070 H 0.40315 0.275 0.65701 0.0
C1071 C 0.39011 0.27069 0.72057 0.0
C1072 C 0.37209 0.26317 0.71302 0.0
C1073 C 0.4043 0.27243 0.70994 0.0
C1074 C 0.41525 0.27176 0.6628 0.0
H1075 H 0.49221 0.24304 0.64259 0.0
H1076 H 0.46563 0.24324 0.65755 0.0
H1077 H 0.42829 0.27522 0.63906 0.0
H1078 H 0.35501 0.25189 0.68805 0.0
H1079 H 0.37978 0.25486 0.66953 0.0
H1080 H 0.43396 0.25997 0.70062 0.0
C1081 C 0.47014 0.25368 0.64968 0.0
C1082 C 0.42974 0.27207 0.65255 0.0
C1083 C 0.48542 0.25353 0.64096 0.0
C1084 C 0.36866 0.25787 0.69437 0.0
C1085 C 0.38291 0.2596 0.68371 0.0
C1086 C 0.43252 0.26356 0.68731 0.0
C1087 C 0.46099 0.26718 0.64857 0.0
C1088 C 0.44571 0.26788 0.6595 0.0
C1089 C 0.40099 0.26669 0.69138 0.0
C1090 C 0.41642 0.26744 0.68034 0.0
H1091 H 0.48726 0.29032 0.6209 0.0
H1092 H 0.46036 0.29066 0.63636 0.0
H1093 H 0.45903 0.26078 0.68307 0.0
H1094 H 0.39331 0.27533 0.73477 0.0
H1095 H 0.41795 0.27833 0.71633 0.0
C1096 C 0.01149 0.80453 0.63573 0.0
C1097 C 0.00749 0.78705 0.62699 0.0
C1098 C 0.01279 0.81877 0.62594 0.0
C1099 C -0.00025 0.83028 0.581 0.0
H1100 H 0.03701 0.87319 0.59724 0.0
C1101 C 0.00291 0.89435 0.54842 0.0
C1102 C 0.02009 0.90431 0.54596 0.0
C1103 C 0.00115 0.88014 0.55833 0.0
C1104 C 0.02657 0.8613 0.59241 0.0
H1105 H 0.00168 0.77098 0.60096 0.0
H1106 H 0.004 0.79574 0.58391 0.0
H1107 H 0.03456 0.84833 0.61403 0.0
H1108 H 0.04892 0.90713 0.5525 0.0
H1109 H 0.04587 0.8824 0.56949 0.0
H1110 H -0.00805 0.84318 0.55922 0.0
C1111 C 0.00598 0.79847 0.59837 0.0
C1112 C 0.02503 0.84704 0.60219 0.0
C1113 C 0.00475 0.78423 0.60817 0.0
C1114 C 0.03545 0.8997 0.55387 0.0
C1115 C 0.03369 0.88558 0.56383 0.0
C1116 C 0.00124 0.84458 0.57126 0.0
C1117 C 0.01008 0.81599 0.6071 0.0
C1118 C 0.01162 0.83128 0.59664 0.0
C1119 C 0.01652 0.87552 0.5662 0.0
C1120 C 0.01471 0.86031 0.57676 0.0
H1121 H 0.01365 0.80726 0.6502 0.0
H1122 H 0.01573 0.83199 0.6332 0.0
H1123 H -0.01087 0.81848 0.57635 0.0
H1124 H -0.00925 0.89734 0.54246 0.0
H1125 H -0.01231 0.87288 0.55997 0.0
C1126 C 0.46611 0.79174 0.80936 0.0
C1127 C 0.47261 0.78248 0.82232 0.0
C1128 C 0.44751 0.7898 0.80475 0.0
C1129 C 0.40223 0.76026 0.80502 0.0
H1130 H 0.38533 0.80238 0.79936 0.0
C1131 C 0.32534 0.75762 0.79112 0.0
C1132 C 0.31981 0.76935 0.78037 0.0
C1133 C 0.34374 0.75913 0.79666 0.0
C1134 C 0.38972 0.79039 0.80056 0.0
H1135 H 0.46421 0.76355 0.84033 0.0
H1136 H 0.43161 0.75994 0.83205 0.0
H1137 H 0.41733 0.80479 0.80805 0.0
H1138 H 0.32968 0.79185 0.76695 0.0
H1139 H 0.36165 0.79425 0.77614 0.0
H1140 H 0.37474 0.74577 0.79714 0.0
C1141 C 0.44107 0.7688 0.8255 0.0
C1142 C 0.40819 0.7918 0.80567 0.0
C1143 C 0.45979 0.7709 0.8303 0.0
C1144 C 0.33332 0.78265 0.77533 0.0
C1145 C 0.35176 0.78407 0.78074 0.0
C1146 C 0.38376 0.75881 0.79972 0.0
C1147 C 0.43466 0.77839 0.81279 0.0
C1148 C 0.41477 0.77677 0.80791 0.0
C1149 C 0.35734 0.77234 0.79152 0.0
C1150 C 0.37715 0.77385 0.79734 0.0
H1151 H 0.47542 0.80079 0.80285 0.0
H1152 H 0.44319 0.79721 0.79473 0.0
H1153 H 0.40677 0.74836 0.8064 0.0
H1154 H 0.31541 0.74722 0.79538 0.0
H1155 H 0.34724 0.75 0.80519 0.0
C1156 C 0.49357 0.16401 0.13768 0.0
C1157 C 0.49558 0.18048 0.13152 0.0
C1158 C 0.49344 0.14874 0.12608 0.0
C1159 C 0.4889 0.12973 0.07771 0.0
H1160 H 0.51222 0.0958 0.09691 0.0
C1161 C 0.50409 0.07086 0.0326 0.0
C1162 C 0.50189 0.05449 0.03902 0.0
C1163 C 0.50263 0.08601 0.04358 0.0
C1164 C 0.50544 0.10498 0.09133 0.0
H1165 H 0.49865 0.19352 0.10798 0.0
H1166 H 0.4987 0.16689 0.08772 0.0
H1167 H 0.51103 0.12244 0.11609 0.0
H1168 H 0.49625 0.04142 0.06222 0.0
H1169 H 0.49369 0.0678 0.08133 0.0
H1170 H 0.48359 0.11228 0.05283 0.0
C1171 C 0.49698 0.16575 0.10157 0.0
C1172 C 0.50472 0.12035 0.10239 0.0
C1173 C 0.49698 0.18109 0.11322 0.0
C1174 C 0.49806 0.05374 0.05676 0.0
C1175 C 0.4967 0.06894 0.06779 0.0
C1176 C 0.48971 0.11436 0.06661 0.0
C1177 C 0.49547 0.14934 0.10789 0.0
C1178 C 0.49637 0.13298 0.09582 0.0
C1179 C 0.49901 0.08534 0.06139 0.0
C1180 C 0.49796 0.10171 0.07325 0.0
H1181 H 0.49228 0.16289 0.15162 0.0
H1182 H 0.49176 0.13641 0.13148 0.0
H1183 H 0.48213 0.13891 0.07211 0.0
H1184 H 0.50707 0.07205 0.01905 0.0
H1185 H 0.50472 0.09836 0.03817 0.0
C1186 C 0.09951 0.29368 0.34204 0.0
C1187 C 0.08244 0.28454 0.33294 0.0
C1188 C 0.11557 0.29297 0.33454 0.0
C1189 C 0.13519 0.26528 0.30293 0.0
H1190 H 0.17223 0.30788 0.30213 0.0
C1191 C 0.19943 0.26196 0.26813 0.0
C1192 C 0.21583 0.2746 0.27393 0.0
C1193 C 0.1832 0.26372 0.27467 0.0
C1194 C 0.1623 0.29572 0.30245 0.0
H1195 H 0.06914 0.26731 0.30872 0.0
H1196 H 0.09713 0.26563 0.29593 0.0
H1197 H 0.14454 0.30968 0.31502 0.0
H1198 H 0.22777 0.29911 0.29139 0.0
H1199 H 0.19988 0.30186 0.30341 0.0
H1200 H 0.15298 0.25111 0.29121 0.0
C1201 C 0.09807 0.27353 0.30882 0.0
C1202 C 0.14624 0.29682 0.30981 0.0
C1203 C 0.08197 0.27456 0.31614 0.0
C1204 C 0.21542 0.28918 0.28642 0.0
C1205 C 0.19923 0.29077 0.29329 0.0
C1206 C 0.15138 0.26411 0.29592 0.0
C1207 C 0.11514 0.28277 0.31787 0.0
C1208 C 0.13237 0.28163 0.31008 0.0
C1209 C 0.18273 0.27799 0.28767 0.0
C1210 C 0.1653 0.27932 0.29539 0.0
H1211 H 0.10047 0.30152 0.35497 0.0
H1212 H 0.1284 0.30017 0.34199 0.0
H1213 H 0.12498 0.25325 0.3031 0.0
H1214 H 0.1991 0.2506 0.25844 0.0
H1215 H 0.171 0.25377 0.26938 0.0
C1216 C 0.9275 0.00815 0.17775 0.0
C1217 C 0.93912 0.01463 0.19381 0.0
C1218 C 0.93399 0.00928 0.1611 0.0
C1219 C 0.97117 0.03347 0.13859 0.0
H1220 H 0.95558 -0.00688 0.10141 0.0
C1221 C 0.00236 0.0309 0.07115 0.0
C1222 C -0.00852 0.02127 0.05559 0.0
C1223 C -0.00402 0.03069 0.08796 0.0
C1224 C 0.9599 0.00468 0.11145 0.0
H1225 H 0.96676 0.02759 0.20476 0.0
H1226 H 0.97806 0.02973 0.1757 0.0
H1227 H 0.94462 -0.00837 0.13044 0.0
H1228 H 0.96498 0.00438 0.04563 0.0
H1229 H 0.95367 0.00452 0.07459 0.0
H1230 H 0.98621 0.04667 0.11955 0.0
C1231 C 0.96387 0.02376 0.17601 0.0
C1232 C 0.95362 0.00377 0.12822 0.0
C1233 C 0.95741 0.02244 0.19271 0.0
C1234 C 0.97384 0.01187 0.05728 0.0
C1235 C 0.96739 0.01181 0.07403 0.0
C1236 C 0.97732 0.03446 0.12173 0.0
C1237 C 0.95227 0.01709 0.15994 0.0
C1238 C 0.95915 0.01813 0.14206 0.0
C1239 C 0.97843 0.02098 0.08974 0.0
C1240 C 0.97179 0.02008 0.10783 0.0
H1241 H 0.91333 0.00207 0.17802 0.0
H1242 H 0.92458 0.00418 0.14907 0.0
H1243 H 0.97558 0.04488 0.14881 0.0
H1244 H 0.01607 0.03818 0.07045 0.0
H1245 H 0.00508 0.03777 0.09962 0.0
C1246 C 0.27385 0.66422 0.46206 0.0
C1247 C 0.27725 0.67233 0.47993 0.0
C1248 C 0.2735 0.67436 0.44818 0.0
C1249 C 0.26488 0.71696 0.43994 0.0
H1250 H 0.2785 0.70394 0.39317 0.0
C1251 C 0.25603 0.75519 0.38027 0.0
C1252 C 0.24811 0.74462 0.364 0.0
C1253 C 0.26146 0.74751 0.39487 0.0
C1254 C 0.2746 0.70768 0.40617 0.0
H1255 H 0.2842 0.69744 0.49731 0.0
H1256 H 0.28401 0.71517 0.47304 0.0
H1257 H 0.28622 0.68877 0.41797 0.0
H1258 H 0.23974 0.7178 0.35019 0.0
H1259 H 0.24907 0.70439 0.37574 0.0
H1260 H 0.25312 0.73577 0.42805 0.0
C1261 C 0.28114 0.70096 0.46976 0.0
C1262 C 0.27901 0.699 0.42035 0.0
C1263 C 0.28136 0.69081 0.48365 0.0
C1264 C 0.2456 0.72625 0.36264 0.0
C1265 C 0.25116 0.7186 0.37717 0.0
C1266 C 0.26059 0.72571 0.42579 0.0
C1267 C 0.27668 0.69282 0.4519 0.0
C1268 C 0.27389 0.70331 0.43732 0.0
C1269 C 0.25924 0.72916 0.39338 0.0
C1270 C 0.2651 0.72092 0.4087 0.0
H1271 H 0.27062 0.64999 0.45879 0.0
H1272 H 0.26985 0.66763 0.43459 0.0
H1273 H 0.26047 0.72042 0.45275 0.0
H1274 H 0.25806 0.76939 0.38167 0.0
H1275 H 0.26769 0.75594 0.40723 0.0
C1276 C 0.59018 0.97613 0.68264 0.0
C1277 C 0.60892 0.97918 0.68183 0.0
C1278 C 0.57824 0.97446 0.66717 0.0
C1279 C 0.5626 -0.00959 0.63676 0.0
H1280 H 0.56217 0.96397 0.59017 0.0
C1281 C 0.54261 0.01215 0.56973 0.0
C1282 C 0.52902 9e-05 0.55788 0.0
C1283 C 0.54986 0.00713 0.58526 0.0
C1284 C 0.56203 0.97124 0.60318 0.0
H1285 H 0.62968 0.9812 0.664 0.0
H1286 H 0.60866 0.97815 0.63681 0.0
H1287 H 0.57995 0.95801 0.61642 0.0
H1288 H 0.5123 0.97335 0.55282 0.0
H1289 H 0.52552 0.96437 0.57997 0.0
H1290 H 0.54554 0.00431 0.62344 0.0
C1291 C 0.60331 0.97716 0.64949 0.0
C1292 C 0.57223 0.96792 0.61809 0.0
C1293 C 0.61533 0.97897 0.66504 0.0
C1294 C 0.52265 -0.01707 0.56188 0.0
C1295 C 0.53025 0.97777 0.57726 0.0
C1296 C 0.55272 -0.00605 0.62185 0.0
C1297 C 0.58477 0.97562 0.65056 0.0
C1298 C 0.57273 0.97762 0.63497 0.0
C1299 C 0.54393 -0.01015 0.589 0.0
C1300 C 0.55255 -0.01544 0.60494 0.0
H1301 H 0.58479 0.976 0.69535 0.0
H1302 H 0.56397 0.97307 0.66829 0.0
H1303 H 0.56295 -0.00176 0.64959 0.0
H1304 H 0.54774 0.02545 0.56692 0.0
H1305 H 0.56048 0.01662 0.59413 0.0
C1306 C 0.24436 0.32883 0.94508 0.0
C1307 C 0.2577 0.33078 0.95971 0.0
C1308 C 0.24571 0.31964 0.92851 0.0
C1309 C 0.27903 0.30942 0.90015 0.0
H1310 H 0.23749 0.27725 0.87143 0.0
C1311 C 0.2817 0.2798 0.82614 0.0
C1312 C 0.26596 0.27757 0.81407 0.0
C1313 C 0.28153 0.28437 0.84465 0.0
C1314 C 0.24922 0.28638 0.8791 0.0
H1315 H 0.28288 0.32439 0.96842 0.0
H1316 H 0.28548 0.30851 0.93917 0.0
H1317 H 0.23537 0.28816 0.90234 0.0
H1318 H 0.23778 0.27883 0.81221 0.0
H1319 H 0.23763 0.28716 0.84386 0.0
H1320 H 0.29266 0.30832 0.87671 0.0
C1321 C 0.27382 0.31396 0.9407 0.0
C1322 C 0.24801 0.29253 0.89694 0.0
C1323 C 0.27224 0.32285 0.95749 0.0
C1324 C 0.25016 0.28017 0.821 0.0
C1325 C 0.25003 0.28486 0.83934 0.0
C1326 C 0.28019 0.30345 0.88217 0.0
C1327 C 0.26068 0.31246 0.92594 0.0
C1328 C 0.26277 0.30435 0.90763 0.0
C1329 C 0.26564 0.28694 0.85155 0.0
C1330 C 0.26516 0.2921 0.87123 0.0
H1331 H 0.2331 0.33493 0.94631 0.0
H1332 H 0.23542 0.31888 0.91744 0.0
H1333 H 0.29062 0.31864 0.90797 0.0
H1334 H 0.29412 0.27792 0.82132 0.0
H1335 H 0.29382 0.2857 0.85353 0.0
C1336 C 0.96841 -0.00056 0.30719 0.0
C1337 C 0.95433 0.00715 0.30153 0.0
C1338 C 0.97388 -0.00021 0.32541 0.0
C1339 C 0.95829 0.00571 0.37042 0.0
H1340 H 0.00874 0.01001 0.38733 0.0
C1341 C 0.98454 0.01547 0.44596 0.0
C1342 C -0.00209 0.00694 0.45176 0.0
C1343 C 0.97931 0.01523 0.42773 0.0
C1344 C -0.00544 0.00857 0.38284 0.0
H1345 H 0.9352 0.02157 0.31094 0.0
H1346 H 0.94493 0.02244 0.34275 0.0
H1347 H -0.00024 0.01098 0.35585 0.0
H1348 H 0.01619 -0.00858 0.44255 0.0
H1349 H 0.007 -0.00906 0.41064 0.0
H1350 H 0.95312 0.00339 0.39744 0.0
C1351 C 0.95158 0.01584 0.33302 0.0
C1352 C -0.01063 0.00914 0.36471 0.0
C1353 C 0.94607 0.01548 0.31473 0.0
C1354 C 0.00585 -0.0019 0.43866 0.0
C1355 C 0.00065 -0.00206 0.42033 0.0
C1356 C 0.96349 0.00518 0.38856 0.0
C1357 C 0.96552 0.00789 0.33866 0.0
C1358 C 0.97114 0.00771 0.35817 0.0
C1359 C -0.01272 0.00652 0.41459 0.0
C1360 C 0.98171 0.00662 0.39508 0.0
H1361 H 0.9751 -0.00718 0.29752 0.0
H1362 H 0.98444 -0.00673 0.32905 0.0
H1363 H 0.94409 0.00421 0.36597 0.0
H1364 H 0.9781 0.02251 0.45554 0.0
H1365 H 0.96921 0.02223 0.42396 0.0
C1366 C 0.25961 0.66701 0.59603 0.0
C1367 C 0.26947 0.66948 0.58142 0.0
C1368 C 0.2613 0.68081 0.60987 0.0
C1369 C 0.29194 0.72084 0.63311 0.0
H1370 H 0.24853 0.72858 0.65207 0.0
C1371 C 0.26658 0.7613 0.69678 0.0
C1372 C 0.27641 0.75567 0.71057 0.0
C1373 C 0.26785 0.75552 0.67891 0.0
C1374 C 0.26078 0.72689 0.64674 0.0
H1375 H 0.28913 0.68828 0.57002 0.0
H1376 H 0.29232 0.71235 0.59455 0.0
H1377 H 0.2459 0.70848 0.62444 0.0
H1378 H 0.29643 0.74092 0.71659 0.0
H1379 H 0.29863 0.73088 0.68552 0.0
H1380 H 0.30681 0.73868 0.65589 0.0
C1381 C 0.28318 0.69974 0.5951 0.0
C1382 C 0.25926 0.71523 0.63105 0.0
C1383 C 0.28132 0.68598 0.5811 0.0
C1384 C 0.28854 0.74531 0.70622 0.0
C1385 C 0.28994 0.7397 0.68842 0.0
C1386 C 0.29347 0.73242 0.64892 0.0
C1387 C 0.27302 0.69731 0.60949 0.0
C1388 C 0.2748 0.71167 0.62443 0.0
C1389 C 0.27914 0.74423 0.67459 0.0
C1390 C 0.27788 0.73511 0.65616 0.0
H1391 H 0.25034 0.6545 0.59668 0.0
H1392 H 0.25355 0.67851 0.62099 0.0
H1393 H 0.30412 0.7183 0.62825 0.0
H1394 H 0.25717 0.76935 0.69976 0.0
H1395 H 0.25947 0.75929 0.66847 0.0
C1396 C 0.59651 0.033 0.77928 0.0
C1397 C 0.61099 0.0251 0.77679 0.0
C1398 C 0.59225 0.03746 0.79639 0.0
C1399 C 0.59578 0.02519 0.84121 0.0
H1400 H 0.57774 0.06687 0.85297 0.0
C1401 C 0.5646 0.03758 0.90636 0.0
C1402 C 0.54747 0.04126 0.90368 0.0
C1403 C 0.57573 0.03838 0.89275 0.0
C1404 C 0.5828 0.05521 0.84988 0.0
H1405 H 0.6326 0.01598 0.79039 0.0
H1406 H 0.62508 0.02381 0.82043 0.0
H1407 H 0.59166 0.06318 0.82552 0.0
H1408 H 0.52881 0.04911 0.8848 0.0
H1409 H 0.54829 0.05061 0.86109 0.0
H1410 H 0.58642 0.01698 0.8653 0.0
C1411 C 0.61699 0.02643 0.80904 0.0
C1412 C 0.59073 0.05308 0.83419 0.0
C1413 C 0.6213 0.02198 0.79186 0.0
C1414 C 0.542 0.04639 0.88735 0.0
C1415 C 0.55317 0.04727 0.87378 0.0
C1416 C 0.58789 0.02735 0.85694 0.0
C1417 C 0.60236 0.03415 0.81145 0.0
C1418 C 0.59677 0.03778 0.82941 0.0
C1419 C 0.57001 0.043 0.87624 0.0
C1420 C 0.58083 0.04212 0.86113 0.0
H1421 H 0.58827 0.03562 0.76799 0.0
H1422 H 0.58067 0.04307 0.79777 0.0
H1423 H 0.60016 0.01319 0.83781 0.0
H1424 H 0.56936 0.03395 0.91895 0.0
H1425 H 0.58874 0.03522 0.89505 0.0
C1426 C 0.26435 0.34797 0.08851 0.0
C1427 C 0.26356 0.33665 0.07252 0.0
C1428 C 0.26346 0.3415 0.10495 0.0
C1429 C 0.27038 0.3276 0.13981 0.0
H1430 H 0.24446 0.27972 0.14241 0.0
C1431 C 0.275 0.29829 0.20613 0.0
C1432 C 0.26038 0.28534 0.20996 0.0
C1433 C 0.27501 0.30419 0.1894 0.0
C1434 C 0.25158 0.29322 0.14208 0.0
H1435 H 0.26136 0.3095 0.06145 0.0
H1436 H 0.26066 0.29827 0.09014 0.0
H1437 H 0.24476 0.29056 0.11369 0.0
H1438 H 0.23413 0.2686 0.19895 0.0
H1439 H 0.23372 0.2794 0.17002 0.0
H1440 H 0.2764 0.33065 0.16821 0.0
C1441 C 0.2614 0.31215 0.09001 0.0
C1442 C 0.25203 0.2994 0.1254 0.0
C1443 C 0.26197 0.31862 0.07348 0.0
C1444 C 0.24564 0.27857 0.19652 0.0
C1445 C 0.24551 0.2847 0.1798 0.0
C1446 C 0.26968 0.32153 0.15646 0.0
C1447 C 0.2621 0.32348 0.10609 0.0
C1448 C 0.26151 0.31671 0.12393 0.0
C1449 C 0.26025 0.2976 0.17589 0.0
C1450 C 0.2604 0.30418 0.15795 0.0
H1451 H 0.26533 0.3619 0.08831 0.0
H1452 H 0.26356 0.35072 0.11674 0.0
H1453 H 0.27812 0.34089 0.13949 0.0
H1454 H 0.28674 0.30368 0.21598 0.0
H1455 H 0.28688 0.31373 0.18702 0.0
C1456 C 0.21665 0.9344 0.00872 0.0
C1457 C 0.21151 0.91609 0.00879 0.0
C1458 C 0.20667 0.94536 0.01653 0.0
C1459 C 0.16145 0.94489 0.02921 0.0
H1460 H 0.18542 -0.00836 0.0538 0.0
C1461 C 0.12046 -0.00678 0.0542 0.0
C1462 C 0.12533 0.00967 0.04814 0.0
C1463 C 0.13204 0.98185 0.05354 0.0
C1464 C 0.17857 0.9786 0.047 0.0
H1465 H 0.192 0.8949 0.0172 0.0
H1466 H 0.17458 0.91414 0.03102 0.0
H1467 H 0.20347 0.97106 0.04441 0.0
H1468 H 0.14662 0.02766 0.03789 0.0
H1469 H 0.16683 0.00773 0.03658 0.0
H1470 H 0.13658 0.95254 0.03144 0.0
C1471 C 0.18623 0.91997 0.02475 0.0
C1472 C 0.18887 0.96685 0.04157 0.0
C1473 C 0.1962 0.90896 0.01686 0.0
C1474 C 0.14247 0.01499 0.04248 0.0
C1475 C 0.15409 0.00364 0.04188 0.0
C1476 C 0.15115 0.9566 0.03471 0.0
C1477 C 0.19136 0.93829 0.02464 0.0
C1478 C 0.18043 0.95001 0.03223 0.0
C1479 C 0.14873 -0.01325 0.04687 0.0
C1480 C 0.15963 0.9737 0.04331 0.0
H1481 H 0.22836 0.94028 0.00255 0.0
H1482 H 0.21077 0.95937 0.01588 0.0
H1483 H 0.15454 0.93211 0.02186 0.0
H1484 H 0.10728 -0.0113 0.05851 0.0
H1485 H 0.12767 0.96897 0.05765 0.0
C1486 C 0.70205 0.61497 -0.01125 0.0
C1487 C 0.70326 0.63273 -0.01331 0.0
C1488 C 0.68527 0.60343 -0.01073 0.0
C1489 C 0.63803 0.60322 -0.00249 0.0
H1490 H 0.62838 0.55392 0.97721 0.0
C1491 C 0.56694 0.55689 -0.00872 0.0
C1492 C 0.56553 0.54005 -0.00356 0.0
C1493 C 0.58377 0.56766 -0.01045 0.0
C1494 C 0.63094 0.56762 0.98309 0.0
H1495 H 0.6877 0.65214 0.98311 0.0
H1496 H 0.65835 0.63192 0.98357 0.0
H1497 H 0.65734 0.57384 0.97465 0.0
H1498 H 0.58085 0.52126 0.00343 0.0
H1499 H 0.61037 0.54014 0.00026 0.0
H1500 H 0.61154 0.59703 0.00574 0.0
C1501 C 0.67042 0.62698 -0.01479 0.0
C1502 C 0.64756 0.57907 0.98165 0.0
C1503 C 0.68724 0.63857 -0.0152 0.0
C1504 C 0.58142 0.53413 -0.00058 0.0
C1505 C 0.59833 0.54492 -0.00245 0.0
C1506 C 0.62139 0.59182 -0.00117 0.0
C1507 C 0.6692 0.60927 -0.01237 0.0
C1508 C 0.65136 0.59705 -0.01116 0.0
C1509 C 0.5997 0.56192 -0.00717 0.0
C1510 C 0.61761 0.57388 -0.00838 0.0
H1511 H 0.71412 0.61003 -0.00968 0.0
H1512 H 0.68499 0.59001 -0.00858 0.0
H1513 H 0.64053 0.61685 0.00357 0.0
H1514 H 0.55505 0.56195 -0.0112 0.0
H1515 H 0.58429 0.58055 -0.0144 0.0
C1516 C 0.6378 0.4595 0.26628 0.0
C1517 C 0.64618 0.47692 0.26425 0.0
C1518 C 0.64769 0.44652 0.26623 0.0
C1519 C 0.69499 0.44081 0.27153 0.0
H1520 H 0.67237 0.3931 0.24881 0.0
C1521 C 0.73592 0.3882 0.25726 0.0
C1522 C 0.72842 0.37092 0.26049 0.0
C1523 C 0.72582 0.40099 0.25813 0.0
C1524 C 0.67884 0.40632 0.25538 0.0
H1525 H 0.67158 0.49426 0.26049 0.0
H1526 H 0.68869 0.47166 0.26003 0.0
H1527 H 0.655 0.41555 0.24945 0.0
H1528 H 0.70427 0.35381 0.26744 0.0
H1529 H 0.68661 0.37603 0.26869 0.0
H1530 H 0.71892 0.43159 0.2772 0.0
C1531 C 0.67456 0.46803 0.26203 0.0
C1532 C 0.66886 0.41922 0.25578 0.0
C1533 C 0.6647 0.48102 0.26218 0.0
C1534 C 0.71046 0.36684 0.26458 0.0
C1535 C 0.70031 0.37961 0.26533 0.0
C1536 C 0.705 0.42794 0.27102 0.0
C1537 C 0.66622 0.45057 0.26406 0.0
C1538 C 0.67679 0.43669 0.26383 0.0
C1539 C 0.70786 0.39687 0.26214 0.0
C1540 C 0.69708 0.41052 0.26291 0.0
H1541 H 0.62358 0.45589 0.26797 0.0
H1542 H 0.64081 0.43333 0.2681 0.0
H1543 H 0.70152 0.45399 0.27817 0.0
H1544 H 0.74954 0.39182 0.25371 0.0
H1545 H 0.73198 0.41405 0.25532 0.0
C1546 C 0.80983 0.43145 0.46849 0.0
C1547 C 0.80326 0.41652 0.47667 0.0
C1548 C 0.82828 0.43963 0.47084 0.0
C1549 C 0.8736 0.43335 0.48498 0.0
H1550 H 0.8862 0.48431 0.49685 0.0
C1551 C 0.94659 0.4726 0.51069 0.0
C1552 C 0.95296 0.48817 0.50342 0.0
C1553 C 0.92828 0.46387 0.50758 0.0
C1554 C 0.88292 0.4701 0.49337 0.0
H1555 H 0.81107 0.39801 0.4931 0.0
H1556 H 0.84324 0.41234 0.49722 0.0
H1557 H 0.85449 0.46851 0.48995 0.0
H1558 H 0.945 0.50699 0.48752 0.0
H1559 H 0.91313 0.49169 0.482 0.0
H1560 H 0.90205 0.43494 0.48839 0.0
C1561 C 0.83412 0.41767 0.48894 0.0
C1562 C 0.86476 0.46105 0.48938 0.0
C1563 C 0.81566 0.40951 0.48662 0.0
C1564 C 0.94055 0.49505 0.49336 0.0
C1565 C 0.92225 0.48631 0.49024 0.0
C1566 C 0.89178 0.4424 0.48893 0.0
C1567 C 0.84057 0.43303 0.48138 0.0
C1568 C 0.85991 0.44258 0.48514 0.0
C1569 C 0.91595 0.47053 0.49715 0.0
C1570 C 0.89663 0.46088 0.49318 0.0
H1571 H 0.80068 0.43715 0.46065 0.0
H1572 H 0.83291 0.45128 0.4646 0.0
H1573 H 0.87028 0.41913 0.48158 0.0
H1574 H 0.95577 0.467 0.5186 0.0
H1575 H 0.92378 0.4519 0.51335 0.0
C1576 C 0.35221 0.07142 0.29441 0.0
C1577 C 0.34496 0.05389 0.28645 0.0
C1578 C 0.34169 0.08374 0.2941 0.0
C1579 C 0.29512 0.08948 0.28269 0.0
H1580 H 0.32132 0.13234 0.2672 0.0
C1581 C 0.26097 0.1377 0.24801 0.0
C1582 C 0.269 0.15579 0.25282 0.0
C1583 C 0.26913 0.12518 0.25471 0.0
C1584 C 0.31384 0.12057 0.27177 0.0
H1585 H 0.32064 0.03516 0.27315 0.0
H1586 H 0.30241 0.05674 0.27218 0.0
H1587 H 0.33747 0.11073 0.27546 0.0
H1588 H 0.29113 0.17497 0.2693 0.0
H1589 H 0.30533 0.1532 0.28087 0.0
H1590 H 0.27133 0.0993 0.27835 0.0
C1591 C 0.31613 0.06098 0.27887 0.0
C1592 C 0.32312 0.1082 0.2766 0.0
C1593 C 0.32661 0.04861 0.27935 0.0
C1594 C 0.2849 0.16111 0.26496 0.0
C1595 C 0.293 0.14866 0.27164 0.0
C1596 C 0.28578 0.1019 0.27777 0.0
C1597 C 0.32377 0.07881 0.28563 0.0
C1598 C 0.31388 0.09246 0.28204 0.0
C1599 C 0.28539 0.13057 0.26636 0.0
C1600 C 0.29508 0.11753 0.27219 0.0
H1601 H 0.36626 0.07582 0.30019 0.0
H1602 H 0.34783 0.0973 0.29983 0.0
H1603 H 0.28764 0.07753 0.28693 0.0
H1604 H 0.24871 0.13325 0.23868 0.0
H1605 H 0.26304 0.11131 0.25032 0.0
C1606 C 0.31368 0.13574 0.49553 0.0
C1607 C 0.30324 0.1348 0.50989 0.0
C1608 C 0.32807 0.12733 0.49504 0.0
C1609 C 0.34171 0.08995 0.5127 0.0
H1610 H 0.3886 0.10827 0.49762 0.0
C1611 C 0.39179 0.04607 0.50322 0.0
C1612 C 0.40995 0.0534 0.51038 0.0
C1613 C 0.37952 0.05672 0.50175 0.0
C1614 C 0.37557 0.103 0.50191 0.0
H1615 H 0.30069 0.12557 0.53561 0.0
H1616 H 0.32563 0.11133 0.53486 0.0
H1617 H 0.36634 0.12636 0.49824 0.0
H1618 H 0.42945 0.07789 0.52124 0.0
H1619 H 0.40799 0.09648 0.51867 0.0
H1620 H 0.35081 0.06679 0.51667 0.0
C1621 C 0.32249 0.11804 0.52372 0.0
C1622 C 0.36278 0.11331 0.50212 0.0
C1623 C 0.30822 0.12631 0.52418 0.0
C1624 C 0.41562 0.07178 0.51554 0.0
C1625 C 0.40331 0.08247 0.51405 0.0
C1626 C 0.35437 0.07967 0.5124 0.0
C1627 C 0.33222 0.1179 0.50891 0.0
C1628 C 0.34577 0.10696 0.50774 0.0
C1629 C 0.38503 0.07502 0.50737 0.0
C1630 C 0.37151 0.08605 0.5071 0.0
H1631 H 0.31017 0.14216 0.4843 0.0
H1632 H 0.33535 0.1275 0.48345 0.0
H1633 H 0.32865 0.08452 0.51685 0.0
H1634 H 0.38701 0.03205 0.49871 0.0
H1635 H 0.36564 0.05057 0.49621 0.0
C1636 C 0.63721 0.59491 0.2664 0.0
C1637 C 0.64291 0.57966 0.26968 0.0
C1638 C 0.64978 0.61089 0.26646 0.0
C1639 C 0.69669 0.6361 0.28172 0.0
H1640 H 0.68739 0.66216 0.24299 0.0
C1641 C 0.74479 0.70268 0.2706 0.0
C1642 C 0.73609 0.71555 0.26533 0.0
C1643 C 0.73471 0.68553 0.27158 0.0
C1644 C 0.69013 0.65517 0.25401 0.0
H1645 H 0.66646 0.56955 0.27622 0.0
H1646 H 0.68851 0.59766 0.27641 0.0
H1647 H 0.66753 0.63352 0.24418 0.0
H1648 H 0.70983 0.72054 0.25769 0.0
H1649 H 0.69253 0.69111 0.25961 0.0
H1650 H 0.71923 0.65805 0.29166 0.0
C1651 C 0.67422 0.59712 0.27377 0.0
C1652 C 0.67873 0.6387 0.25467 0.0
C1653 C 0.66158 0.58101 0.27361 0.0
C1654 C 0.71711 0.71098 0.26154 0.0
C1655 C 0.70713 0.69399 0.26255 0.0
C1656 C 0.70813 0.65271 0.2811 0.0
C1657 C 0.66845 0.61216 0.26985 0.0
C1658 C 0.68162 0.62909 0.2687 0.0
C1659 C 0.71575 0.68092 0.26729 0.0
C1660 C 0.70475 0.66261 0.26741 0.0
H1661 H 0.62298 0.5945 0.26344 0.0
H1662 H 0.64484 0.62229 0.26374 0.0
H1663 H 0.69927 0.62903 0.29272 0.0
H1664 H 0.75938 0.70574 0.27365 0.0
H1665 H 0.7418 0.67578 0.27527 0.0
C1666 C 0.85991 0.44544 0.7452 0.0
C1667 C 0.85912 0.45847 0.7592 0.0
C1668 C 0.84972 0.42816 0.74447 0.0
C1669 C 0.81178 0.40087 0.76415 0.0
H1670 H 0.83345 0.3631 0.747 0.0
C1671 C 0.77392 0.32734 0.7574 0.0
C1672 C 0.7843 0.3152 0.76063 0.0
C1673 C 0.78238 0.34499 0.75693 0.0
C1674 C 0.82727 0.37346 0.75207 0.0
H1675 H 0.84712 0.46372 0.78345 0.0
H1676 H 0.83002 0.43348 0.7827 0.0
H1677 H 0.84945 0.39339 0.74688 0.0
H1678 H 0.81151 0.312 0.76671 0.0
H1679 H 0.82622 0.34283 0.76679 0.0
H1680 H 0.79008 0.38089 0.77032 0.0
C1681 C 0.83798 0.43661 0.7719 0.0
C1682 C 0.83632 0.3909 0.75167 0.0
C1683 C 0.8479 0.45394 0.77243 0.0
C1684 C 0.8032 0.32107 0.76398 0.0
C1685 C 0.81162 0.33873 0.76385 0.0
C1686 C 0.80286 0.38341 0.76484 0.0
C1687 C 0.83879 0.42346 0.75794 0.0
C1688 C 0.82875 0.40486 0.75777 0.0
C1689 C 0.80137 0.35087 0.75998 0.0
C1690 C 0.81055 0.36948 0.75891 0.0
H1691 H 0.86829 0.44862 0.7347 0.0
H1692 H 0.85039 0.41852 0.7333 0.0
H1693 H 0.80536 0.41123 0.76867 0.0
H1694 H 0.75931 0.32309 0.75465 0.0
H1695 H 0.77404 0.35389 0.7537 0.0
C1696 C 0.03215 0.83248 0.05173 0.0
C1697 C 0.03753 0.83221 0.06998 0.0
C1698 C 0.03043 0.8483 0.04528 0.0
C1699 C 0.04527 0.89783 0.05655 0.0
H1700 H 0.00518 0.89795 0.02154 0.0
C1701 C 0.03291 0.96454 0.03694 0.0
C1702 C 0.0236 0.96511 0.02016 0.0
C1703 C 0.03466 0.94842 0.04254 0.0
C1704 C 0.01671 0.89834 0.03109 0.0
H1705 H 0.04539 0.84893 0.0956 0.0
H1706 H 0.04273 0.87624 0.08445 0.0
H1707 H 0.00826 0.87035 0.03163 0.0
H1708 H 0.00903 0.94852 -0.00392 0.0
H1709 H 0.0126 0.92071 0.00537 0.0
H1710 H 0.05411 0.92558 0.0558 0.0
C1711 C 0.03979 0.86423 0.075 0.0
C1712 C 0.01843 0.8823 0.03699 0.0
C1713 C 0.04124 0.84841 0.08147 0.0
C1714 C 0.01627 0.94883 0.00911 0.0
C1715 C 0.01821 0.93268 0.01461 0.0
C1716 C 0.04371 0.91382 0.0505 0.0
C1717 C 0.0343 0.86455 0.05678 0.0
C1718 C 0.03267 0.88171 0.04997 0.0
C1719 C 0.02739 0.93203 0.03153 0.0
C1720 C 0.0293 0.91456 0.03771 0.0
H1721 H 0.02913 0.82039 0.04238 0.0
H1722 H 0.02629 0.84782 0.03116 0.0
H1723 H 0.05664 0.89811 0.0663 0.0
H1724 H 0.03865 0.97663 0.04603 0.0
H1725 H 0.0415 0.94894 0.05579 0.0
C1726 C 0.9278 0.23896 0.85912 0.0
C1727 C 0.93164 0.24399 0.87774 0.0
C1728 C 0.91067 0.23794 0.85015 0.0
C1729 C 0.87107 0.25706 0.8533 0.0
H1730 H 0.84979 0.22134 0.81266 0.0
C1731 C 0.80399 0.2582 0.81007 0.0
C1732 C 0.80249 0.25279 0.7915 0.0
C1733 C 0.81848 0.25593 0.82169 0.0
C1734 C 0.85558 0.23159 0.82381 0.0
H1735 H 0.92027 0.25179 0.90159 0.0
H1736 H 0.89011 0.2501 0.88587 0.0
H1737 H 0.87666 0.21889 0.83107 0.0
H1738 H 0.81535 0.24073 0.77076 0.0
H1739 H 0.84055 0.23712 0.79074 0.0
H1740 H 0.85032 0.27007 0.84575 0.0
C1741 C 0.90045 0.24678 0.87823 0.0
C1742 C 0.87102 0.23011 0.83449 0.0
C1743 C 0.91764 0.24751 0.8873 0.0
C1744 C 0.81588 0.24497 0.78495 0.0
C1745 C 0.83037 0.24278 0.79652 0.0
C1746 C 0.85566 0.25863 0.84253 0.0
C1747 C 0.89682 0.24227 0.85945 0.0
C1748 C 0.8792 0.24294 0.84925 0.0
C1749 C 0.83198 0.24822 0.81512 0.0
C1750 C 0.8478 0.24605 0.8274 0.0
H1751 H 0.93837 0.23644 0.85133 0.0
H1752 H 0.90858 0.23462 0.83573 0.0
H1753 H 0.87704 0.26733 0.86441 0.0
H1754 H 0.79395 0.26421 0.81569 0.0
H1755 H 0.81896 0.26009 0.83588 0.0
C1756 C 0.51882 0.20544 0.57145 0.0
C1757 C 0.5342 0.21848 0.56938 0.0
C1758 C 0.51679 0.18762 0.56442 0.0
C1759 C 0.53535 0.15648 0.53368 0.0
H1760 H 0.5141 0.12253 0.56352 0.0
C1761 C 0.53584 0.0814 0.51915 0.0
C1762 C 0.52121 0.06868 0.52343 0.0
C1763 C 0.53744 0.09965 0.52404 0.0
C1764 C 0.51983 0.13167 0.55477 0.0
H1765 H 0.55964 0.22273 0.5583 0.0
H1766 H 0.55612 0.19173 0.54582 0.0
H1767 H 0.51634 0.15369 0.57238 0.0
H1768 H 0.49658 0.06569 0.53607 0.0
H1769 H 0.49916 0.09706 0.54424 0.0
H1770 H 0.53886 0.13435 0.51607 0.0
C1771 C 0.54532 0.19529 0.55257 0.0
C1772 C 0.52113 0.14976 0.55991 0.0
C1773 C 0.54732 0.21318 0.55962 0.0
C1774 C 0.50819 0.0749 0.53264 0.0
C1775 C 0.50975 0.09309 0.53746 0.0
C1776 C 0.534 0.13832 0.52849 0.0
C1777 C 0.53023 0.18206 0.55527 0.0
C1778 C 0.52884 0.16257 0.54946 0.0
C1779 C 0.52445 0.10589 0.53337 0.0
C1780 C 0.52615 0.1255 0.5389 0.0
H1781 H 0.50867 0.20893 0.57927 0.0
H1782 H 0.50479 0.17812 0.56659 0.0
H1783 H 0.54124 0.16573 0.52509 0.0
H1784 H 0.54618 0.07728 0.51208 0.0
H1785 H 0.54911 0.10884 0.52073 0.0
C1786 C 0.53504 0.74391 0.37247 0.0
C1787 C 0.53736 0.74962 0.39101 0.0
C1788 C 0.54989 0.74582 0.36271 0.0
C1789 C 0.59706 0.77157 0.36343 0.0
H1790 H 0.59884 0.73436 0.3258 0.0
C1791 C 0.65866 0.77564 0.32298 0.0
C1792 C 0.65525 0.76893 0.30463 0.0
C1793 C 0.6448 0.77296 0.33403 0.0
C1794 C 0.5985 0.74502 0.33608 0.0
H1795 H 0.55729 0.76179 0.4138 0.0
H1796 H 0.58331 0.76519 0.39671 0.0
H1797 H 0.57409 0.73026 0.34415 0.0
H1798 H 0.63431 0.75431 0.28358 0.0
H1799 H 0.6102 0.74981 0.30268 0.0
H1800 H 0.62131 0.78645 0.35519 0.0
C1801 C 0.56991 0.75928 0.38972 0.0
C1802 C 0.58427 0.74262 0.34668 0.0
C1803 C 0.555 0.75723 0.39955 0.0
C1804 C 0.63756 0.75944 0.29767 0.0
C1805 C 0.62369 0.75684 0.3087 0.0
C1806 C 0.61126 0.774 0.35276 0.0
C1807 C 0.56754 0.7536 0.37114 0.0
C1808 C 0.58325 0.7559 0.36043 0.0
C1809 C 0.62707 0.76355 0.32707 0.0
C1810 C 0.61215 0.76081 0.33882 0.0
H1811 H 0.52167 0.73801 0.3654 0.0
H1812 H 0.54745 0.7415 0.34842 0.0
H1813 H 0.59664 0.78218 0.37372 0.0
H1814 H 0.67214 0.78277 0.32891 0.0
H1815 H 0.6481 0.77809 0.34812 0.0
C1816 C 0.02918 0.2402 0.4069 0.0
C1817 C 0.02442 0.23758 0.38824 0.0
C1818 C 0.02716 0.22586 0.41659 0.0
C1819 C 0.02203 0.17709 0.4113 0.0
H1820 H 0.00574 0.18137 0.45815 0.0
C1821 C 0.00432 0.11705 0.45032 0.0
C1822 C 0.00871 0.11999 0.46905 0.0
C1823 C 0.0062 0.13121 0.44036 0.0
C1824 C 0.01053 0.17995 0.44519 0.0
H1825 H 0.01372 0.2176 0.36522 0.0
H1826 H 0.01008 0.19265 0.38206 0.0
H1827 H 0.00902 0.20613 0.4412 0.0
H1828 H 0.01907 0.14042 0.49178 0.0
H1829 H 0.02239 0.16494 0.47454 0.0
H1830 H 0.0236 0.15092 0.41531 0.0
C1831 C 0.01559 0.20581 0.38924 0.0
C1832 C 0.01241 0.19423 0.43542 0.0
C1833 C 0.01757 0.22017 0.37956 0.0
C1834 C 0.0152 0.13755 0.47746 0.0
C1835 C 0.0171 0.15169 0.46751 0.0
C1836 C 0.02018 0.16281 0.42108 0.0
C1837 C 0.02034 0.20841 0.40792 0.0
C1838 C 0.01822 0.19306 0.41832 0.0
C1839 C 0.01256 0.14879 0.4488 0.0
C1840 C 0.01443 0.16401 0.43822 0.0
H1841 H 0.03455 0.25339 0.41407 0.0
H1842 H 0.03121 0.22846 0.43089 0.0
H1843 H 0.0268 0.1757 0.39832 0.0
H1844 H -0.00094 0.10378 0.44333 0.0
H1845 H 0.0023 0.12835 0.42604 0.0
C1846 C 0.57346 0.24374 0.17341 0.0
C1847 C 0.55986 0.24543 0.18437 0.0
C1848 C 0.59123 0.24468 0.18082 0.0
C1849 C 0.62351 0.25991 0.22291 0.0
H1850 H 0.65129 0.23086 0.19882 0.0
C1851 C 0.70114 0.27128 0.24214 0.0
C1852 C 0.70902 0.2567 0.24131 0.0
C1853 C 0.68285 0.26934 0.23579 0.0
C1854 C 0.64376 0.23898 0.20588 0.0
H1855 H 0.55459 0.24948 0.21192 0.0
H1856 H 0.58556 0.25101 0.22489 0.0
H1857 H 0.61993 0.22837 0.18711 0.0
H1858 H 0.70338 0.22849 0.23305 0.0
H1859 H 0.67146 0.22504 0.22211 0.0
H1860 H 0.64725 0.27031 0.24185 0.0
C1861 C 0.58251 0.24914 0.21047 0.0
C1862 C 0.62571 0.23772 0.19899 0.0
C1863 C 0.56466 0.24819 0.20303 0.0
C1864 C 0.69791 0.24005 0.23392 0.0
C1865 C 0.67955 0.2381 0.22752 0.0
C1866 C 0.64157 0.26119 0.22979 0.0
C1867 C 0.59612 0.24732 0.19948 0.0
C1868 C 0.61528 0.24826 0.20729 0.0
C1869 C 0.67168 0.25273 0.22835 0.0
C1870 C 0.65208 0.25084 0.22133 0.0
H1871 H 0.57039 0.24166 0.15899 0.0
H1872 H 0.60123 0.24354 0.1718 0.0
H1873 H 0.61613 0.26838 0.22969 0.0
H1874 H 0.70912 0.28436 0.24766 0.0
H1875 H 0.67757 0.28101 0.23644 0.0
C1876 C 0.53361 0.85784 0.87647 0.0
C1877 C 0.53422 0.84197 0.88309 0.0
C1878 C 0.53216 0.87273 0.88782 0.0
C1879 C 0.52033 0.88693 0.93341 0.0
H1880 H 0.54108 0.93355 0.9221 0.0
C1881 C 0.5235 0.95177 0.98105 0.0
C1882 C 0.5182 0.96544 0.97317 0.0
C1883 C 0.52574 0.93672 0.97045 0.0
C1884 C 0.53509 0.92063 0.92539 0.0
H1885 H 0.53405 0.82958 0.90713 0.0
H1886 H 0.53224 0.85569 0.92709 0.0
H1887 H 0.54512 0.90764 0.90356 0.0
H1888 H 0.51137 0.97397 0.94781 0.0
H1889 H 0.51566 0.9479 0.92936 0.0
H1890 H 0.51077 0.90018 0.9556 0.0
C1891 C 0.53237 0.85655 0.91296 0.0
C1892 C 0.53733 0.90565 0.91468 0.0
C1893 C 0.53357 0.84153 0.90151 0.0
C1894 C 0.51542 0.96372 0.95438 0.0
C1895 C 0.51797 0.9488 0.94378 0.0
C1896 C 0.51835 0.90195 0.94429 0.0
C1897 C 0.53154 0.87242 0.9063 0.0
C1898 C 0.52982 0.88849 0.91834 0.0
C1899 C 0.52306 0.93503 0.95166 0.0
C1900 C 0.52555 0.919 0.94034 0.0
H1901 H 0.53386 0.85872 0.86235 0.0
H1902 H 0.53114 0.88438 0.88191 0.0
H1903 H 0.51405 0.87409 0.93666 0.0
H1904 H 0.52571 0.95258 -0.00453 0.0
H1905 H 0.52981 0.92646 0.97699 0.0
C1906 C 0.94264 0.75133 0.68737 0.0
C1907 C 0.94994 0.73721 0.6916 0.0
C1908 C 0.92633 0.75369 0.69351 0.0
C1909 C 0.89388 0.73817 0.72679 0.0
H1910 H 0.86284 0.76166 0.70059 0.0
C1911 C 0.82109 0.74033 0.74434 0.0
C1912 C 0.8164 0.75666 0.74452 0.0
C1913 C 0.83719 0.73781 0.73788 0.0
C1914 C 0.87138 0.75514 0.70816 0.0
H1915 H 0.94515 0.71416 0.70523 0.0
H1916 H 0.91677 0.71768 0.71509 0.0
H1917 H 0.8906 0.75756 0.68918 0.0
H1918 H 0.82519 0.78304 0.73767 0.0
H1919 H 0.85282 0.77853 0.72623 0.0
H1920 H 0.87426 0.73538 0.7455 0.0
C1921 C 0.92381 0.72749 0.70767 0.0
C1922 C 0.8875 0.75285 0.70164 0.0
C1923 C 0.94018 0.72533 0.70181 0.0
C1924 C 0.82826 0.77028 0.73788 0.0
C1925 C 0.84414 0.76767 0.73116 0.0
C1926 C 0.87762 0.74021 0.73314 0.0
C1927 C 0.91659 0.74184 0.70389 0.0
C1928 C 0.89916 0.74434 0.71083 0.0
C1929 C 0.84893 0.75141 0.73107 0.0
C1930 C 0.86612 0.7488 0.72399 0.0
H1931 H 0.94975 0.76083 0.67964 0.0
H1932 H 0.92162 0.76507 0.69037 0.0
H1933 H 0.90243 0.73195 0.7347 0.0
H1934 H 0.81236 0.7295 0.74926 0.0
H1935 H 0.8403 0.72506 0.73795 0.0
C1936 C 0.09542 0.01494 0.8307 0.0
C1937 C 0.08349 0.01968 0.81795 0.0
C1938 C 0.09128 0.01374 0.84832 0.0
C1939 C 0.06104 0.02836 0.8802 0.0
H1940 H 0.07357 -0.00662 0.90772 0.0
C1941 C 0.02725 0.01165 0.94256 0.0
C1942 C 0.03814 0.01075 0.95828 0.0
C1943 C 0.03435 0.01269 0.92627 0.0
C1944 C 0.07015 0.00335 0.90027 0.0
H1945 H 0.05747 0.02616 0.81376 0.0
H1946 H 0.0501 0.02359 0.84388 0.0
H1947 H 0.08269 -0.00502 0.87767 0.0
H1948 H 0.06517 0.00982 0.96884 0.0
H1949 H 0.07756 0.0113 0.94003 0.0
H1950 H 0.04808 0.0364 0.90251 0.0
C1951 C 0.06296 0.02136 0.84063 0.0
C1952 C 0.0754 0.0043 0.88301 0.0
C1953 C 0.06714 0.0227 0.82319 0.0
C1954 C 0.05636 0.01049 0.95705 0.0
C1955 C 0.06345 0.0113 0.94054 0.0
C1956 C 0.05567 0.02728 0.89727 0.0
C1957 C 0.07505 0.01716 0.85363 0.0
C1958 C 0.07063 0.01664 0.87255 0.0
C1959 C 0.05256 0.0127 0.92499 0.0
C1960 C 0.05987 0.0146 0.90746 0.0
H1961 H 0.10815 0.01255 0.8272 0.0
H1962 H 0.10103 0.01056 0.85787 0.0
H1963 H 0.05756 0.03844 0.87297 0.0
H1964 H 0.01317 0.01187 0.94279 0.0
H1965 H 0.02548 0.01348 0.91456 0.0
C1966 C 0.75355 0.33006 0.53002 0.0
C1967 C 0.76455 0.34693 0.52969 0.0
C1968 C 0.75822 0.31951 0.54233 0.0
C1969 C 0.78547 0.32277 0.58578 0.0
H1970 H 0.77469 0.27181 0.57429 0.0
C1971 C 0.80254 0.28002 0.63764 0.0
C1972 C 0.78785 0.26659 0.6404 0.0
C1973 C 0.8018 0.2884 0.62249 0.0
C1974 C 0.77776 0.28602 0.57764 0.0
H1975 H 0.78934 0.36581 0.54157 0.0
H1976 H 0.79775 0.34722 0.56283 0.0
H1977 H 0.76973 0.28961 0.55083 0.0
H1978 H 0.76135 0.25065 0.62893 0.0
H1979 H 0.76002 0.2654 0.60236 0.0
H1980 H 0.79341 0.31918 0.61257 0.0
C1981 C 0.78529 0.34228 0.55385 0.0
C1982 C 0.77487 0.29622 0.56426 0.0
C1983 C 0.78052 0.35291 0.54164 0.0
C1984 C 0.77281 0.26104 0.62719 0.0
C1985 C 0.77211 0.26938 0.61195 0.0
C1986 C 0.78851 0.3126 0.59907 0.0
C1987 C 0.77409 0.32553 0.55447 0.0
C1988 C 0.77845 0.3147 0.56825 0.0
C1989 C 0.78638 0.28349 0.60976 0.0
C1990 C 0.78449 0.29413 0.59518 0.0
H1991 H 0.74112 0.32511 0.52099 0.0
H1992 H 0.74913 0.30681 0.54263 0.0
H1993 H 0.78806 0.33692 0.58942 0.0
H1994 H 0.81424 0.28474 0.64766 0.0
H1995 H 0.81305 0.29914 0.62102 0.0
C1996 C 0.44778 0.02176 0.32117 0.0
C1997 C 0.43091 0.02588 0.31814 0.0
C1998 C 0.45697 0.02458 0.3384 0.0
C1999 C 0.44795 0.02773 0.38506 0.0
H2000 H 0.50028 0.0422 0.39522 0.0
C2001 C 0.48327 0.03397 0.4561 0.0
C2002 C 0.49773 0.02576 0.45792 0.0
C2003 C 0.47642 0.03677 0.43932 0.0
C2004 C 0.48567 0.03808 0.39254 0.0
H2005 H 0.41084 0.03696 0.33073 0.0
H2006 H 0.42702 0.04207 0.36082 0.0
H2007 H 0.48574 0.04252 0.36523 0.0
H2008 H 0.51685 0.01475 0.44367 0.0
H2009 H 0.50467 0.01946 0.41421 0.0
H2010 H 0.44782 0.02298 0.41219 0.0
C2011 C 0.43297 0.03636 0.34987 0.0
C2012 C 0.47734 0.03827 0.3754 0.0
C2013 C 0.42374 0.03349 0.33263 0.0
C2014 C 0.50567 0.02107 0.44268 0.0
C2015 C 0.49877 0.02385 0.42584 0.0
C2016 C 0.45625 0.02758 0.40216 0.0
C2017 C 0.44952 0.03164 0.35298 0.0
C2018 C 0.4584 0.03291 0.37144 0.0
C2019 C 0.48383 0.03139 0.42397 0.0
C2020 C 0.47519 0.03259 0.40604 0.0
H2021 H 0.45371 0.0159 0.3103 0.0
H2022 H 0.46958 0.0206 0.34036 0.0
H2023 H 0.43336 0.02318 0.38237 0.0
H2024 H 0.47697 0.03798 0.46759 0.0
H2025 H 0.46511 0.0429 0.43832 0.0
C2026 C 0.75812 0.68209 0.07292 0.0
C2027 C 0.75643 0.68986 0.05726 0.0
C2028 C 0.75768 0.69128 0.0897 0.0
C2029 C 0.76154 0.73543 0.11561 0.0
H2030 H 0.73679 0.70662 0.14822 0.0
C2031 C 0.75106 0.76164 0.18938 0.0
C2032 C 0.75636 0.75162 0.2022 0.0
C2033 C 0.75005 0.75572 0.17094 0.0
C2034 C 0.74376 0.71488 0.13931 0.0
H2035 H 0.75366 0.71389 0.04721 0.0
H2036 H 0.75263 0.73008 0.07682 0.0
H2037 H 0.73711 0.69378 0.11756 0.0
H2038 H 0.7645 0.72738 0.20551 0.0
H2039 H 0.76235 0.71705 0.17377 0.0
H2040 H 0.76807 0.75658 0.13772 0.0
C2041 C 0.7544 0.71675 0.07597 0.0
C2042 C 0.74405 0.70749 0.12169 0.0
C2043 C 0.755 0.7075 0.05898 0.0
C2044 C 0.76039 0.73551 0.19612 0.0
C2045 C 0.75908 0.72951 0.17785 0.0
C2046 C 0.7611 0.74291 0.13334 0.0
C2047 C 0.7553 0.70857 0.09153 0.0
C2048 C 0.75342 0.71745 0.10968 0.0
C2049 C 0.75394 0.73949 0.16498 0.0
C2050 C 0.7526 0.73256 0.14553 0.0
H2051 H 0.7596 0.66867 0.07224 0.0
H2052 H 0.75908 0.68466 0.1013 0.0
H2053 H 0.76887 0.74354 0.10681 0.0
H2054 H 0.74798 0.77415 0.19358 0.0
H2055 H 0.746 0.76369 0.16136 0.0
C2056 C 0.06913 0.01192 0.70501 0.0
C2057 C 0.08806 0.01591 0.70924 0.0
C2058 C 0.06126 0.01238 0.68762 0.0
C2059 C 0.07194 0.0303 0.64517 0.0
H2060 H 0.02843 -0.00471 0.6242 0.0
C2061 C 0.03574 0.03236 0.57459 0.0
C2062 C 0.02897 0.01611 0.56345 0.0
C2063 C 0.04204 0.03296 0.59273 0.0
C2064 C 0.04064 0.00514 0.62977 0.0
H2065 H 0.11348 0.02332 0.69828 0.0
H2066 H 0.09987 0.02387 0.66814 0.0
H2067 H 0.04131 -0.0052 0.65468 0.0
H2068 H 0.02346 -0.01228 0.56298 0.0
H2069 H 0.03448 -0.01121 0.59422 0.0
H2070 H 0.07157 0.04033 0.62008 0.0
C2071 C 0.09102 0.02069 0.67826 0.0
C2072 C 0.04794 0.00498 0.64741 0.0
C2073 C 0.09886 0.02023 0.69559 0.0
C2074 C 0.02848 0.00052 0.57105 0.0
C2075 C 0.03473 0.00112 0.58911 0.0
C2076 C 0.06464 0.03047 0.62753 0.0
C2077 C 0.07209 0.01686 0.67397 0.0
C2078 C 0.06382 0.01745 0.65535 0.0
C2079 C 0.04171 0.01733 0.60026 0.0
C2080 C 0.04897 0.01778 0.61947 0.0
H2081 H 0.06038 0.00861 0.71518 0.0
H2082 H 0.04665 0.00951 0.68496 0.0
H2083 H 0.08401 0.04031 0.65082 0.0
H2084 H 0.03634 0.04464 0.56927 0.0
H2085 H 0.04711 0.04571 0.60088 0.0
C2086 C 0.72345 0.33384 0.43558 0.0
C2087 C 0.72404 0.35147 0.43347 0.0
C2088 C 0.72019 0.32081 0.4207 0.0
C2089 C 0.70661 0.31215 0.37131 0.0
H2090 H 0.74192 0.28374 0.37211 0.0
C2091 C 0.73985 0.2924 0.31084 0.0
C2092 C 0.74295 0.27546 0.3077 0.0
C2093 C 0.73228 0.2975 0.32598 0.0
C2094 C 0.73166 0.29122 0.37178 0.0
H2095 H 0.72066 0.36909 0.41417 0.0
H2096 H 0.71548 0.34653 0.38819 0.0
H2097 H 0.7379 0.30077 0.39969 0.0
H2098 H 0.74014 0.25035 0.31759 0.0
H2099 H 0.72738 0.25961 0.34471 0.0
H2100 H 0.7014 0.30351 0.34307 0.0
C2101 C 0.7172 0.34263 0.40134 0.0
C2102 C 0.72932 0.301 0.38759 0.0
C2103 C 0.72031 0.35563 0.41625 0.0
C2104 C 0.73793 0.26351 0.31978 0.0
C2105 C 0.73064 0.26877 0.33522 0.0
C2106 C 0.70907 0.30249 0.35548 0.0
C2107 C 0.71758 0.32515 0.40336 0.0
C2108 C 0.71729 0.31214 0.38741 0.0
C2109 C 0.72786 0.28587 0.33845 0.0
C2110 C 0.72212 0.2925 0.35548 0.0
H2111 H 0.72602 0.33015 0.44872 0.0
H2112 H 0.72024 0.30743 0.42274 0.0
H2113 H 0.69692 0.32026 0.37079 0.0
H2114 H 0.74337 0.30182 0.30163 0.0
H2115 H 0.73054 0.31084 0.32826 0.0
C2116 C 0.38221 0.01197 0.20463 0.0
C2117 C 0.39332 0.02335 0.21905 0.0
C2118 C 0.38897 0.00874 0.18839 0.0
C2119 C 0.42705 0.02407 0.16268 0.0
H2120 H 0.42176 0.97416 0.14735 0.0
C2121 C 0.47731 -0.0008 0.12141 0.0
C2122 C 0.47034 -0.01413 0.10684 0.0
C2123 C 0.46608 0.00377 0.13366 0.0
C2124 C 0.42314 -0.01187 0.15128 0.0
H2125 H 0.41958 0.04137 0.22743 0.0
H2126 H 0.43133 0.03579 0.19919 0.0
H2127 H 0.40417 -0.0165 0.17026 0.0
H2128 H 0.44635 0.96633 0.09409 0.0
H2129 H 0.42663 0.9744 0.11556 0.0
H2130 H 0.4464 0.02869 0.14407 0.0
C2131 C 0.41746 0.02933 0.20034 0.0
C2132 C 0.41301 -0.00651 0.16432 0.0
C2133 C 0.41076 0.03244 0.21656 0.0
C2134 C 0.45205 0.97674 0.10515 0.0
C2135 C 0.44079 0.9813 0.11745 0.0
C2136 C 0.43716 0.01872 0.14965 0.0
C2137 C 0.40685 0.017 0.1863 0.0
C2138 C 0.41522 0.0115 0.17046 0.0
C2139 C 0.44764 -0.00489 0.13161 0.0
C2140 C 0.43565 0.0007 0.14417 0.0
H2141 H 0.36867 0.00483 0.20617 0.0
H2142 H 0.38046 -0.00067 0.17769 0.0
H2143 H 0.42883 0.03804 0.167 0.0
H2144 H 0.49129 0.00662 0.12296 0.0
H2145 H 0.4718 0.01424 0.14466 0.0
C2146 C 0.76418 0.71021 0.94392 0.0
C2147 C 0.76865 0.69415 0.94623 0.0
C2148 C 0.76593 0.71712 0.92769 0.0
C2149 C 0.7781 0.73326 0.89448 0.0
H2150 H 0.7669 0.69995 0.85078 0.0
C2151 C 0.7867 0.75547 0.82404 0.0
C2152 C 0.77349 0.74656 0.80976 0.0
C2153 C 0.78715 0.74943 0.84081 0.0
C2154 C 0.76997 0.70952 0.8628 0.0
H2155 H 0.77898 0.67308 0.93326 0.0
H2156 H 0.78239 0.6852 0.90533 0.0
H2157 H 0.76531 0.6892 0.87946 0.0
H2158 H 0.75039 0.72414 0.80222 0.0
H2159 H 0.75107 0.71386 0.83111 0.0
H2160 H 0.78218 0.75361 0.87766 0.0
C2161 C 0.77711 0.69234 0.91584 0.0
C2162 C 0.7693 0.7033 0.87938 0.0
C2163 C 0.77529 0.68542 0.932 0.0
C2164 C 0.76088 0.73137 0.81275 0.0
C2165 C 0.76133 0.72536 0.82942 0.0
C2166 C 0.77874 0.7395 0.87784 0.0
C2167 C 0.77224 0.7082 0.91328 0.0
C2168 C 0.7733 0.71504 0.89554 0.0
C2169 C 0.77443 0.73427 0.84379 0.0
C2170 C 0.77456 0.72773 0.86169 0.0
H2171 H 0.75895 0.71728 0.95453 0.0
H2172 H 0.76184 0.72924 0.9263 0.0
H2173 H 0.78149 0.74278 0.90654 0.0
H2174 H 0.79663 0.76721 0.82231 0.0
H2175 H 0.79759 0.75659 0.85142 0.0
C2176 C 0.81522 0.10051 0.01043 0.0
C2177 C 0.80584 0.09687 0.02518 0.0
C2178 C 0.82641 0.08987 0.0044 0.0
C2179 C 0.83202 0.04483 0.005 0.0
H2180 H 0.87882 0.06302 -0.01034 0.0
C2181 C 0.88541 0.00465 -0.00311 0.0
C2182 C 0.89646 0.00753 0.98321 0.0
C2183 C 0.87259 0.01444 -0.0004 0.0
C2184 C 0.86561 0.05773 -0.00642 0.0
H2185 H 0.80181 0.08003 0.04592 0.0
H2186 H 0.82153 0.06172 0.03557 0.0
H2187 H 0.86115 0.08347 0.00026 0.0
H2188 H 0.90213 0.02216 0.96102 0.0
H2189 H 0.87948 0.03911 0.96561 0.0
H2190 H 0.83661 0.01911 -0.00138 0.0
C2191 C 0.81986 0.07248 0.02838 0.0
C2192 C 0.85556 0.06944 -0.00028 0.0
C2193 C 0.80869 0.08306 0.03439 0.0
C2194 C 0.8937 0.01958 0.97159 0.0
C2195 C 0.8809 0.02942 0.97435 0.0
C2196 C 0.84207 0.03313 -0.00112 0.0
C2197 C 0.82841 0.07545 0.01304 0.0
C2198 C 0.8388 0.06311 0.00577 0.0
C2199 C 0.87062 0.02731 -0.0113 0.0
C2200 C 0.85907 0.03948 -0.00665 0.0
H2201 H 0.81331 0.11105 0.00304 0.0
H2202 H 0.83285 0.09246 -0.00747 0.0
H2203 H 0.81894 0.03956 0.0092 0.0
H2204 H 0.8872 -0.00467 0.00593 0.0
H2205 H 0.86491 0.01258 0.01084 0.0
C2206 C 0.32979 0.40559 0.03124 0.0
C2207 C 0.32033 0.39839 0.01427 0.0
C2208 C 0.34742 0.41639 0.03283 0.0
C2209 C 0.37756 0.44347 0.0051 0.0
H2210 H 0.41536 0.44622 0.0438 0.0
C2211 C 0.45285 0.47214 0.00111 0.0
C2212 C 0.46209 0.48594 0.01455 0.0
C2213 C 0.43548 0.46246 0.00266 0.0
C2214 C 0.40481 0.44568 0.03304 0.0
H2215 H 0.3222 0.39567 -0.01417 0.0
H2216 H 0.35302 0.41342 -0.01145 0.0
H2217 H 0.3855 0.42624 0.04343 0.0
H2218 H 0.46043 0.50026 0.0403 0.0
H2219 H 0.42994 0.48281 0.04323 0.0
H2220 H 0.39711 0.46227 -0.00567 0.0
C2221 C 0.34676 0.41162 0.00065 0.0
C2222 C 0.38771 0.43427 0.03281 0.0
C2223 C 0.32914 0.40122 -0.00093 0.0
C2224 C 0.45357 0.48977 0.02969 0.0
C2225 C 0.43624 0.47975 0.03143 0.0
C2226 C 0.39465 0.45458 0.0052 0.0
C2227 C 0.35594 0.41995 0.01748 0.0
C2228 C 0.37393 0.43276 0.01862 0.0
C2229 C 0.42703 0.46608 0.01784 0.0
C2230 C 0.40851 0.45563 0.01901 0.0
H2231 H 0.3232 0.40372 0.04315 0.0
H2232 H 0.35401 0.42255 0.04602 0.0
H2233 H 0.36721 0.44322 -0.00573 0.0
H2234 H 0.45899 0.46888 -0.01074 0.0
H2235 H 0.42868 0.45196 -0.00797 0.0
C2236 C 0.36881 0.54779 0.7504 0.0
C2237 C 0.38784 0.55244 0.75204 0.0
C2238 C 0.35896 0.56078 0.75177 0.0
C2239 C 0.36209 0.60775 0.74745 0.0
H2240 H 0.32025 0.60145 0.77343 0.0
C2241 C 0.32271 0.66235 0.75917 0.0
C2242 C 0.30375 0.65705 0.75856 0.0
C2243 C 0.33327 0.64991 0.7588 0.0
C2244 C 0.33174 0.60337 0.7659 0.0
H2245 H 0.41139 0.57452 0.75646 0.0
H2246 H 0.3942 0.5972 0.75881 0.0
H2247 H 0.33796 0.57933 0.77202 0.0
H2248 H 0.28122 0.63427 0.75732 0.0
H2249 H 0.29944 0.61269 0.75606 0.0
H2250 H 0.35575 0.63164 0.74108 0.0
C2251 C 0.38689 0.58347 0.75637 0.0
C2252 C 0.34195 0.59065 0.76514 0.0
C2253 C 0.39676 0.57045 0.75513 0.0
C2254 C 0.29571 0.63893 0.75756 0.0
C2255 C 0.30625 0.6265 0.75711 0.0
C2256 C 0.35181 0.62043 0.74811 0.0
C2257 C 0.36784 0.57881 0.7547 0.0
C2258 C 0.35723 0.59262 0.75585 0.0
C2259 C 0.3252 0.63177 0.75776 0.0
C2260 C 0.33643 0.61841 0.7573 0.0
H2261 H 0.36147 0.53407 0.74798 0.0
H2262 H 0.34432 0.55668 0.7502 0.0
H2263 H 0.37362 0.60961 0.73997 0.0
H2264 H 0.32944 0.67612 0.75975 0.0
H2265 H 0.34781 0.65457 0.75953 0.0
C2266 C 0.19535 0.62119 0.51437 0.0
C2267 C 0.20952 0.61261 0.51356 0.0
C2268 C 0.17742 0.61139 0.51278 0.0
C2269 C 0.15086 0.56778 0.51898 0.0
H2270 H 0.1118 0.58036 0.49117 0.0
C2271 C 0.07066 0.5374 0.49115 0.0
C2272 C 0.064 0.53248 0.50695 0.0
C2273 C 0.08853 0.54686 0.49154 0.0
C2274 C 0.1226 0.57662 0.49888 0.0
H2275 H 0.21605 0.58709 0.50982 0.0
H2276 H 0.18488 0.57005 0.50689 0.0
H2277 H 0.14282 0.59776 0.49215 0.0
H2278 H 0.07097 0.53331 0.53549 0.0
H2279 H 0.10215 0.54987 0.53614 0.0
H2280 H 0.13073 0.54653 0.52555 0.0
C2281 C 0.18758 0.58433 0.50908 0.0
C2282 C 0.1403 0.58669 0.49959 0.0
C2283 C 0.20544 0.59409 0.51066 0.0
C2284 C 0.07569 0.53687 0.52307 0.0
C2285 C 0.09357 0.5463 0.52345 0.0
C2286 C 0.13318 0.55775 0.5183 0.0
C2287 C 0.17341 0.59285 0.51036 0.0
C2288 C 0.1546 0.58233 0.50962 0.0
C2289 C 0.10011 0.55154 0.50771 0.0
C2290 C 0.11888 0.56207 0.50824 0.0
H2291 H 0.19812 0.63549 0.51659 0.0
H2292 H 0.16675 0.61829 0.51392 0.0
H2293 H 0.16159 0.56424 0.527 0.0
H2294 H 0.06202 0.53418 0.47849 0.0
H2295 H 0.0933 0.5505 0.47917 0.0
C2296 C 0.67678 0.963 0.76313 0.0
C2297 C 0.6819 0.97591 0.75202 0.0
C2298 C 0.68898 0.95347 0.76903 0.0
C2299 C 0.72847 0.9387 0.75594 0.0
H2300 H 0.73264 0.92647 0.80395 0.0
C2301 C 0.77564 0.89514 0.77578 0.0
C2302 C 0.76828 0.88152 0.78535 0.0
C2303 C 0.76716 0.90887 0.77386 0.0
C2304 C 0.73155 0.9297 0.79047 0.0
H2305 H 0.70396 -0.01067 0.73881 0.0
H2306 H 0.72521 0.97268 0.74909 0.0
H2307 H 0.71361 0.94632 0.79648 0.0
H2308 H 0.74659 0.87183 0.80082 0.0
H2309 H 0.7316 0.89561 0.79723 0.0
H2310 H 0.74585 0.92172 0.74967 0.0
C2311 C 0.71173 0.96983 0.75311 0.0
C2312 C 0.72068 0.94107 0.78621 0.0
C2313 C 0.69958 0.97939 0.74728 0.0
C2314 C 0.75267 0.88226 0.79354 0.0
C2315 C 0.74411 0.89592 0.7915 0.0
C2316 C 0.73925 0.92728 0.76015 0.0
C2317 C 0.70649 0.95663 0.76386 0.0
C2318 C 0.71889 0.94553 0.76885 0.0
C2319 C 0.75104 0.90918 0.78132 0.0
C2320 C 0.74077 0.92249 0.77741 0.0
H2321 H 0.66326 0.96004 0.76704 0.0
H2322 H 0.6845 0.94325 0.77716 0.0
H2323 H 0.72714 0.94168 0.74237 0.0
H2324 H 0.78781 0.895 0.76955 0.0
H2325 H 0.77305 0.91907 0.76624 0.0
C2326 C 0.6987 0.87558 0.5177 0.0
C2327 C 0.71699 0.88454 0.52227 0.0
C2328 C 0.68516 0.88501 0.5168 0.0
C2329 C 0.67671 0.92884 0.53199 0.0
H2330 H 0.63887 0.91685 0.49181 0.0
C2331 C 0.63382 0.9773 0.51415 0.0
C2332 C 0.61523 0.97057 0.50844 0.0
C2333 C 0.64524 0.96595 0.51647 0.0
C2334 C 0.6492 0.92025 0.50325 0.0
H2335 H 0.73533 0.91042 0.52965 0.0
H2336 H 0.71198 0.92667 0.52801 0.0
H2337 H 0.66026 0.89828 0.49505 0.0
H2338 H 0.59419 0.94649 0.50049 0.0
H2339 H 0.6141 0.92668 0.50476 0.0
H2340 H 0.66586 0.95089 0.54011 0.0
C2341 C 0.70794 0.91241 0.5253 0.0
C2342 C 0.66146 0.90957 0.50512 0.0
C2343 C 0.72139 0.90305 0.52612 0.0
C2344 C 0.60839 0.95215 0.50508 0.0
C2345 C 0.61985 0.94077 0.50735 0.0
C2346 C 0.6645 0.93949 0.53013 0.0
C2347 C 0.68965 0.90357 0.52059 0.0
C2348 C 0.67556 0.91391 0.51936 0.0
C2349 C 0.63843 0.94753 0.51312 0.0
C2350 C 0.65074 0.93551 0.51559 0.0
H2351 H 0.69486 0.86133 0.51465 0.0
H2352 H 0.67118 0.87778 0.51325 0.0
H2353 H 0.68716 0.93238 0.54334 0.0
H2354 H 0.63954 -0.00861 0.51704 0.0
H2355 H 0.65951 0.97164 0.5207 0.0
C2356 C 0.37069 0.45013 0.74658 0.0
C2357 C 0.38726 0.44983 0.74001 0.0
C2358 C 0.35772 0.4344 0.74695 0.0
C2359 C 0.3442 0.38706 0.72723 0.0
H2360 H 0.31982 0.38076 0.76947 0.0
C2361 C 0.30698 0.31841 0.74098 0.0
C2362 C 0.29084 0.3166 0.74892 0.0
C2363 C 0.31735 0.33506 0.73912 0.0
C2364 C 0.32628 0.38237 0.75745 0.0
H2365 H 0.40301 0.4326 0.72851 0.0
H2366 H 0.38054 0.40534 0.72921 0.0
H2367 H 0.34037 0.40906 0.76759 0.0
H2368 H 0.27294 0.33106 0.76097 0.0
H2369 H 0.29103 0.3602 0.75758 0.0
H2370 H 0.33029 0.36038 0.71713 0.0
C2371 C 0.37745 0.41772 0.73393 0.0
C2372 C 0.33809 0.39862 0.75638 0.0
C2373 C 0.39041 0.4334 0.73363 0.0
C2374 C 0.28528 0.33194 0.75479 0.0
C2375 C 0.29572 0.34866 0.75295 0.0
C2376 C 0.33239 0.37086 0.72829 0.0
C2377 C 0.36095 0.41797 0.74066 0.0
C2378 C 0.34742 0.4011 0.74136 0.0
C2379 C 0.31194 0.35044 0.74513 0.0
C2380 C 0.32347 0.36818 0.74352 0.0
H2381 H 0.36778 0.46252 0.75161 0.0
H2382 H 0.3451 0.43511 0.75207 0.0
H2383 H 0.35085 0.38858 0.7153 0.0
H2384 H 0.31178 0.30695 0.73634 0.0
H2385 H 0.32988 0.33586 0.7333 0.0
C2386 C 0.17557 0.56862 0.23556 0.0
C2387 C 0.16159 0.5618 0.22144 0.0
C2388 C 0.18484 0.58635 0.23789 0.0
C2389 C 0.18045 0.62948 0.22504 0.0
H2390 H 0.2309 0.64441 0.24529 0.0
C2391 C 0.22491 0.70014 0.22811 0.0
C2392 C 0.23419 0.70801 0.24499 0.0
C2393 C 0.21595 0.68231 0.22518 0.0
C2394 C 0.21677 0.64038 0.23973 0.0
H2395 H 0.14683 0.568 0.19824 0.0
H2396 H 0.16354 0.59877 0.20179 0.0
H2397 H 0.21609 0.61304 0.23917 0.0
H2398 H 0.24148 0.70344 0.27203 0.0
H2399 H 0.22613 0.67202 0.26673 0.0
H2400 H 0.18147 0.65694 0.22509 0.0
C2401 C 0.16695 0.59061 0.21149 0.0
C2402 C 0.20824 0.62243 0.23627 0.0
C2403 C 0.15746 0.57293 0.20934 0.0
C2404 C 0.23438 0.69771 0.2589 0.0
C2405 C 0.2257 0.67977 0.25587 0.0
C2406 C 0.18909 0.64741 0.2282 0.0
C2407 C 0.18057 0.59764 0.22597 0.0
C2408 C 0.18991 0.61673 0.22899 0.0
C2409 C 0.2164 0.67196 0.23899 0.0
C2410 C 0.20728 0.65299 0.23567 0.0
H2411 H 0.17897 0.56042 0.24523 0.0
H2412 H 0.19499 0.59128 0.24939 0.0
H2413 H 0.16624 0.62569 0.21979 0.0
H2414 H 0.22447 0.70778 0.21716 0.0
H2415 H 0.20893 0.67653 0.21204 0.0
C2416 C 0.48812 0.69313 0.46013 0.0
C2417 C 0.48598 0.69423 0.44164 0.0
C2418 C 0.48969 0.67723 0.46653 0.0
C2419 C 0.50262 0.63457 0.45318 0.0
H2420 H 0.47893 0.61856 0.49334 0.0
C2421 C 0.51865 0.57556 0.48721 0.0
C2422 C 0.50421 0.56307 0.49221 0.0
C2423 C 0.51612 0.59133 0.48133 0.0
C2424 C 0.48564 0.62274 0.48207 0.0
H2425 H 0.48392 0.67891 0.41553 0.0
H2426 H 0.48694 0.65163 0.42656 0.0
H2427 H 0.47515 0.64601 0.48285 0.0
H2428 H 0.47561 0.55806 0.49495 0.0
H2429 H 0.47129 0.58566 0.48516 0.0
H2430 H 0.51328 0.61148 0.45247 0.0
C2431 C 0.48735 0.66303 0.43623 0.0
C2432 C 0.48358 0.63867 0.4761 0.0
C2433 C 0.48547 0.67878 0.42985 0.0
C2434 C 0.48714 0.56719 0.4913 0.0
C2435 C 0.48467 0.58317 0.48571 0.0
C2436 C 0.50495 0.61885 0.45934 0.0
C2437 C 0.48955 0.66188 0.45471 0.0
C2438 C 0.49194 0.64489 0.46145 0.0
C2439 C 0.49909 0.59552 0.48044 0.0
C2440 C 0.49647 0.61252 0.47388 0.0
H2441 H 0.48867 0.70462 0.46973 0.0
H2442 H 0.49146 0.67711 0.48084 0.0
H2443 H 0.50946 0.63878 0.44199 0.0
H2444 H 0.53202 0.57305 0.48759 0.0
H2445 H 0.52768 0.60039 0.47763 0.0
C2446 C 0.61131 0.28701 0.61885 0.0
C2447 C 0.59481 0.28645 0.6259 0.0
C2448 C 0.62669 0.28526 0.6296 0.0
C2449 C 0.63984 0.26845 0.67184 0.0
H2450 H 0.68809 0.29571 0.66809 0.0
C2451 C 0.70037 0.26953 0.72419 0.0
C2452 C 0.71756 0.27013 0.71865 0.0
C2453 C 0.68596 0.27161 0.71244 0.0
C2454 C 0.67476 0.2878 0.66921 0.0
H2455 H 0.58183 0.28391 0.65002 0.0
H2456 H 0.60838 0.28105 0.66861 0.0
H2457 H 0.66226 0.29922 0.64856 0.0
H2458 H 0.73286 0.27352 0.69609 0.0
H2459 H 0.70769 0.27695 0.67553 0.0
H2460 H 0.65219 0.25695 0.69236 0.0
C2461 C 0.6095 0.28255 0.65472 0.0
C2462 C 0.65987 0.28984 0.65795 0.0
C2463 C 0.59422 0.28434 0.64403 0.0
C2464 C 0.71988 0.27301 0.70093 0.0
C2465 C 0.7054 0.27507 0.68912 0.0
C2466 C 0.65467 0.26639 0.68302 0.0
C2467 C 0.62598 0.28281 0.64769 0.0
C2468 C 0.64212 0.28032 0.65921 0.0
C2469 C 0.68814 0.2743 0.69465 0.0
C2470 C 0.6724 0.27615 0.68207 0.0
H2471 H 0.61231 0.28858 0.60496 0.0
H2472 H 0.63902 0.28543 0.6236 0.0
H2473 H 0.62652 0.26053 0.67301 0.0
H2474 H 0.69795 0.26747 0.73771 0.0
H2475 H 0.6731 0.27127 0.71746 0.0
C2476 C 0.00786 0.31884 0.95194 0.0
C2477 C -0.00807 0.30837 0.94176 0.0
C2478 C 0.00898 0.33649 0.95925 0.0
C2479 C 0.98615 0.37384 0.95349 0.0
H2480 H 0.01765 0.39688 -0.00331 0.0
C2481 C -0.01167 0.44636 0.98449 0.0
C2482 C 0.00525 0.45749 -0.00811 0.0
C2483 C 0.98637 0.42815 0.97906 0.0
C2484 C 0.00888 0.39078 0.98449 0.0
H2485 H 0.96471 0.30845 0.93128 0.0
H2486 H 0.96624 0.33867 0.94451 0.0
H2487 H 0.0147 0.36562 -0.01324 0.0
H2488 H 0.03336 0.45763 -0.00064 0.0
H2489 H 0.02994 0.42619 -0.00994 0.0
H2490 H 0.98028 0.399 0.9513 0.0
C2491 C 0.9781 0.33352 0.94677 0.0
C2492 C 0.00718 0.37267 0.97872 0.0
C2493 C 0.97705 0.31596 0.93942 0.0
C2494 C 0.02007 0.44966 -0.0062 0.0
C2495 C 0.01807 0.43146 -0.01149 0.0
C2496 C -0.01224 0.39189 0.95932 0.0
C2497 C -0.00577 0.34436 0.9565 0.0
C2498 C -0.00419 0.36379 0.96305 0.0
C2499 C 0.00121 0.42032 0.98095 0.0
C2500 C -0.00079 0.40077 0.97491 0.0
H2501 H 0.01978 0.31365 0.95352 0.0
H2502 H 0.02177 0.34419 0.96637 0.0
H2503 H 0.97755 0.3679 0.94116 0.0
H2504 H 0.97656 0.45174 0.98275 0.0
H2505 H 0.97309 0.42016 0.97352 0.0
C2506 C 0.98508 0.75418 0.14027 0.0
C2507 C -0.00776 0.76803 0.13083 0.0
C2508 C 0.96976 0.75414 0.14896 0.0
C2509 C 0.93009 0.77354 0.1532 0.0
H2510 H 0.93298 0.75773 0.1997 0.0
C2511 C 0.87557 0.7757 0.20268 0.0
C2512 C 0.87122 0.7613 0.21227 0.0
C2513 C 0.8898 0.77731 0.19199 0.0
C2514 C 0.93178 0.762 0.18667 0.0
H2515 H -0.01183 0.79239 0.12251 0.0
H2516 H 0.96119 0.79244 0.13797 0.0
H2517 H 0.95831 0.75935 0.18238 0.0
H2518 H 0.87807 0.73686 0.21722 0.0
H2519 H 0.90271 0.7397 0.19884 0.0
H2520 H 0.90341 0.77621 0.15771 0.0
C2521 C 0.96758 0.78153 0.13852 0.0
C2522 C 0.94639 0.76294 0.17668 0.0
C2523 C 0.98303 0.78152 0.12964 0.0
C2524 C 0.88124 0.74837 0.21047 0.0
C2525 C 0.89542 0.75 0.19986 0.0
C2526 C 0.91539 0.77263 0.16328 0.0
C2527 C 0.96103 0.76803 0.1487 0.0
C2528 C 0.94568 0.7684 0.15965 0.0
C2529 C 0.9001 0.76459 0.19062 0.0
C2530 C 0.91593 0.76654 0.18005 0.0
H2531 H -0.00844 0.74338 0.14125 0.0
H2532 H 0.96487 0.74322 0.15613 0.0
H2533 H 0.929 0.77776 0.14015 0.0
H2534 H 0.86831 0.78601 0.2038 0.0
H2535 H 0.89304 0.78878 0.18519 0.0
C2536 C 0.50927 0.30356 0.13511 0.0
C2537 C 0.50773 0.2863 0.12661 0.0
C2538 C 0.51049 0.31771 0.1252 0.0
C2539 C 0.52201 0.33138 0.08139 0.0
H2540 H 0.49695 0.36786 0.09393 0.0
C2541 C 0.51875 0.38635 0.03699 0.0
C2542 C 0.51943 0.40348 0.0454 0.0
C2543 C 0.51712 0.37209 0.04677 0.0
C2544 C 0.50427 0.35795 0.09033 0.0
H2545 H 0.50625 0.27051 0.10087 0.0
H2546 H 0.50831 0.29509 0.08361 0.0
H2547 H 0.4946 0.34325 0.11105 0.0
H2548 H 0.51864 0.41868 0.07098 0.0
H2549 H 0.51637 0.39407 0.08802 0.0
H2550 H 0.53182 0.34612 0.06079 0.0
C2551 C 0.50875 0.29776 0.09799 0.0
C2552 C 0.50288 0.34376 0.10019 0.0
C2553 C 0.50745 0.2836 0.1079 0.0
C2554 C 0.5184 0.40581 0.06396 0.0
C2555 C 0.51683 0.39156 0.07375 0.0
C2556 C 0.52345 0.34561 0.07157 0.0
C2557 C 0.51028 0.31505 0.10647 0.0
C2558 C 0.51172 0.33023 0.09588 0.0
C2559 C 0.51618 0.37443 0.06534 0.0
C2560 C 0.5146 0.35916 0.07586 0.0
H2561 H 0.50958 0.30619 0.14949 0.0
H2562 H 0.51188 0.33081 0.13228 0.0
H2563 H 0.52926 0.32142 0.07779 0.0
H2564 H 0.51973 0.38392 0.02281 0.0
H2565 H 0.51644 0.35914 0.03967 0.0
C2566 C 0.96017 0.27294 0.33129 0.0
C2567 C 0.97316 0.28349 0.32258 0.0
C2568 C 0.94149 0.27088 0.32625 0.0
C2569 C 0.90856 0.27787 0.28909 0.0
H2570 H 0.87531 0.27426 0.32483 0.0
C2571 C 0.83449 0.28429 0.27358 0.0
C2572 C 0.82074 0.27256 0.28031 0.0
C2573 C 0.85287 0.28536 0.27895 0.0
C2574 C 0.88436 0.27511 0.31462 0.0
H2575 H 0.9763 0.30021 0.30168 0.0
H2576 H 0.9443 0.29699 0.29332 0.0
H2577 H 0.9073 0.27609 0.33361 0.0
H2578 H 0.81587 0.2529 0.29827 0.0
H2579 H 0.84774 0.2549 0.30767 0.0
H2580 H 0.88568 0.27717 0.27018 0.0
C2581 C 0.94831 0.28987 0.30375 0.0
C2582 C 0.9028 0.2761 0.31966 0.0
C2583 C 0.96686 0.29183 0.30868 0.0
C2584 C 0.82598 0.26215 0.29279 0.0
C2585 C 0.84434 0.26334 0.29827 0.0
C2586 C 0.8902 0.27704 0.2841 0.0
C2587 C 0.93522 0.27937 0.31239 0.0
C2588 C 0.91528 0.2776 0.307 0.0
C2589 C 0.85811 0.27486 0.29134 0.0
C2590 C 0.87778 0.27571 0.29678 0.0
H2591 H 0.96442 0.26631 0.34205 0.0
H2592 H 0.93197 0.26251 0.33317 0.0
H2593 H 0.91747 0.27857 0.27876 0.0
H2594 H 0.83108 0.2925 0.26395 0.0
H2595 H 0.86302 0.29454 0.27344 0.0
C2596 C -0.00586 0.66484 0.63859 0.0
C2597 C -0.00439 0.68116 0.63223 0.0
C2598 C -0.00603 0.6495 0.62707 0.0
C2599 C -0.01169 0.63 0.57874 0.0
H2600 H 0.01288 0.59676 0.59757 0.0
C2601 C 0.00344 0.57126 0.5334 0.0
C2602 C 0.00166 0.555 0.53996 0.0
C2603 C 0.00199 0.58642 0.54437 0.0
C2604 C 0.00576 0.60575 0.5921 0.0
H2605 H -0.00228 0.69388 0.60842 0.0
H2606 H -0.00229 0.66717 0.58829 0.0
H2607 H 0.01173 0.62343 0.61672 0.0
H2608 H -0.00318 0.54211 0.56341 0.0
H2609 H -0.00569 0.5685 0.58252 0.0
H2610 H 0.98262 0.61233 0.55399 0.0
C2611 C -0.00357 0.66617 0.60225 0.0
C2612 C 0.00506 0.62114 0.60315 0.0
C2613 C -0.00353 0.68157 0.61382 0.0
C2614 C -0.00171 0.55435 0.55784 0.0
C2615 C -0.00304 0.56956 0.56886 0.0
C2616 C -0.0109 0.61463 0.56765 0.0
C2617 C -0.00457 0.64991 0.60874 0.0
C2618 C -0.00374 0.63352 0.59671 0.0
C2619 C -0.00117 0.58586 0.56231 0.0
C2620 C -0.0022 0.60223 0.57417 0.0
H2621 H -0.00672 0.66388 0.65263 0.0
H2622 H -0.0073 0.63728 0.63262 0.0
H2623 H 0.98119 0.63898 0.57326 0.0
H2624 H 0.00606 0.57236 0.51973 0.0
H2625 H 0.00373 0.5987 0.53885 0.0
C2626 C 0.58082 0.77497 0.81388 0.0
C2627 C 0.58149 0.78257 0.83178 0.0
C2628 C 0.59678 0.77381 0.80636 0.0
C2629 C 0.64667 0.79351 0.81211 0.0
H2630 H 0.64893 0.75098 0.78195 0.0
C2631 C 0.71513 0.78358 0.79023 0.0
C2632 C 0.71547 0.77328 0.77382 0.0
C2633 C 0.6987 0.78482 0.79661 0.0
C2634 C 0.64859 0.76312 0.79008 0.0
H2635 H 0.5998 0.79498 0.85567 0.0
H2636 H 0.62747 0.79319 0.84258 0.0
H2637 H 0.62085 0.75296 0.79404 0.0
H2638 H 0.69833 0.75635 0.75121 0.0
H2639 H 0.66974 0.75892 0.76197 0.0
H2640 H 0.67416 0.8039 0.80797 0.0
C2641 C 0.6146 0.78811 0.83428 0.0
C2642 C 0.63236 0.76422 0.79711 0.0
C2643 C 0.59865 0.78907 0.84186 0.0
C2644 C 0.69872 0.76441 0.7639 0.0
C2645 C 0.68222 0.76578 0.77022 0.0
C2646 C 0.66281 0.7925 0.80493 0.0
C2647 C 0.61398 0.78043 0.81641 0.0
C2648 C 0.63116 0.77938 0.80839 0.0
C2649 C 0.68186 0.77595 0.78677 0.0
C2650 C 0.6642 0.77722 0.7939 0.0
H2651 H 0.56791 0.76979 0.80567 0.0
H2652 H 0.59565 0.76793 0.79253 0.0
H2653 H 0.6463 0.80555 0.82043 0.0
H2654 H 0.72764 0.7905 0.79844 0.0
H2655 H 0.69931 0.7925 0.80955 0.0
C2656 C 0.42788 0.50801 0.6772 0.0
C2657 C 0.43959 0.51374 0.6933 0.0
C2658 C 0.43444 0.50923 0.66059 0.0
C2659 C 0.47271 0.53238 0.63856 0.0
H2660 H 0.45483 0.49323 0.60037 0.0
C2661 C 0.50329 0.52919 0.57071 0.0
C2662 C 0.49181 0.52064 0.55507 0.0
C2663 C 0.49705 0.52905 0.58759 0.0
C2664 C 0.45981 0.50447 0.61071 0.0
H2665 H 0.46747 0.52546 0.70437 0.0
H2666 H 0.47891 0.52771 0.67539 0.0
H2667 H 0.44388 0.49165 0.62938 0.0
H2668 H 0.46445 0.5058 0.54509 0.0
H2669 H 0.45348 0.50602 0.57418 0.0
H2670 H 0.48849 0.54532 0.61983 0.0
C2671 C 0.46459 0.52228 0.67563 0.0
C2672 C 0.45353 0.50351 0.62747 0.0
C2673 C 0.45805 0.5209 0.69228 0.0
C2674 C 0.47377 0.51242 0.55678 0.0
C2675 C 0.4675 0.51241 0.5736 0.0
C2676 C 0.47891 0.53341 0.62172 0.0
C2677 C 0.4529 0.51637 0.65951 0.0
C2678 C 0.45984 0.51744 0.64166 0.0
C2679 C 0.47909 0.52045 0.58936 0.0
C2680 C 0.47253 0.51948 0.60747 0.0
H2681 H 0.41358 0.50246 0.6774 0.0
H2682 H 0.42495 0.50474 0.64854 0.0
H2683 H 0.47776 0.54347 0.64906 0.0
H2684 H 0.51729 0.53555 0.56999 0.0
H2685 H 0.50652 0.53525 0.5993 0.0
C2686 C 0.78218 0.18878 0.98367 0.0
C2687 C 0.77811 0.17032 0.97957 0.0
C2688 C 0.78163 0.19924 0.97006 0.0
C2689 C 0.77852 0.19814 0.92066 0.0
H2690 H 0.75293 0.23493 0.92983 0.0
C2691 C 0.74374 0.2261 0.86441 0.0
C2692 C 0.74656 0.2445 0.86591 0.0
C2693 C 0.74952 0.21827 0.87871 0.0
C2694 C 0.7603 0.22486 0.92716 0.0
H2695 H 0.77119 0.14836 0.95801 0.0
H2696 H 0.76984 0.16651 0.93434 0.0
H2697 H 0.76081 0.21918 0.95402 0.0
H2698 H 0.75726 0.26916 0.88359 0.0
H2699 H 0.76723 0.2554 0.90878 0.0
H2700 H 0.77733 0.20345 0.89358 0.0
C2701 C 0.77372 0.173 0.94799 0.0
C2702 C 0.76491 0.21588 0.94102 0.0
C2703 C 0.7744 0.16256 0.96158 0.0
C2704 C 0.75497 0.25494 0.8821 0.0
C2705 C 0.76061 0.24708 0.89649 0.0
C2706 C 0.77377 0.20703 0.90677 0.0
C2707 C 0.77689 0.19143 0.95211 0.0
C2708 C 0.77381 0.20221 0.93786 0.0
C2709 C 0.75813 0.22869 0.89483 0.0
C2710 C 0.76436 0.22026 0.90984 0.0
H2711 H 0.78524 0.19515 -0.00258 0.0
H2712 H 0.7845 0.21342 0.97365 0.0
H2713 H 0.78566 0.18792 0.91785 0.0
H2714 H 0.7375 0.21776 0.85201 0.0
H2715 H 0.74723 0.20404 0.87717 0.0
C2716 C 0.09844 0.4716 0.17536 0.0
C2717 C 0.11702 0.47983 0.17727 0.0
C2718 C 0.08739 0.47146 0.1596 0.0
C2719 C 0.08433 0.501 0.12817 0.0
H2720 H 0.04901 0.4633 0.09764 0.0
C2721 C 0.05097 0.51273 0.06228 0.0
C2722 C 0.03278 0.50429 0.05626 0.0
C2723 C 0.05977 0.50853 0.07739 0.0
C2724 C 0.05859 0.47398 0.10626 0.0
H2725 H 0.1389 0.49295 0.16368 0.0
H2726 H 0.11949 0.49296 0.13625 0.0
H2727 H 0.06801 0.45638 0.12241 0.0
H2728 H 0.00949 0.48488 0.06159 0.0
H2729 H 0.02494 0.47776 0.08858 0.0
H2730 H 0.07482 0.51871 0.11268 0.0
C2731 C 0.11354 0.48664 0.14697 0.0
C2732 C 0.06953 0.46998 0.12027 0.0
C2733 C 0.12463 0.48656 0.16261 0.0
C2734 C 0.02349 0.49167 0.06595 0.0
C2735 C 0.03236 0.48749 0.08129 0.0
C2736 C 0.07327 0.50501 0.11446 0.0
C2737 C 0.09476 0.47973 0.14565 0.0
C2738 C 0.08277 0.48347 0.13101 0.0
C2739 C 0.05064 0.4959 0.08712 0.0
C2740 C 0.0606 0.49154 0.10303 0.0
H2741 H 0.09226 0.46621 0.18644 0.0
H2742 H 0.07293 0.46607 0.15885 0.0
H2743 H 0.0941 0.51166 0.13664 0.0
H2744 H 0.05866 0.52242 0.05511 0.0
H2745 H 0.07395 0.51497 0.08121 0.0
C2746 C 0.74516 0.83055 0.44591 0.0
C2747 C 0.75839 0.83229 0.46059 0.0
C2748 C 0.74657 0.82151 0.42927 0.0
C2749 C 0.77978 0.81109 0.40083 0.0
H2750 H 0.73814 0.77893 0.37226 0.0
C2751 C 0.78221 0.78105 0.32682 0.0
C2752 C 0.76643 0.77872 0.31479 0.0
C2753 C 0.78212 0.78576 0.34533 0.0
C2754 C 0.7499 0.78806 0.37988 0.0
H2755 H 0.78349 0.8257 0.46927 0.0
H2756 H 0.7862 0.81013 0.4399 0.0
H2757 H 0.73609 0.79002 0.40313 0.0
H2758 H 0.73825 0.77999 0.31301 0.0
H2759 H 0.73823 0.78856 0.34462 0.0
H2760 H 0.79337 0.80981 0.37736 0.0
C2761 C 0.77458 0.81563 0.44145 0.0
C2762 C 0.74873 0.79431 0.3977 0.0
C2763 C 0.77293 0.82436 0.4583 0.0
C2764 C 0.75066 0.78138 0.32177 0.0
C2765 C 0.75061 0.78621 0.3401 0.0
C2766 C 0.7809 0.80502 0.38285 0.0
C2767 C 0.76149 0.81427 0.42667 0.0
C2768 C 0.76353 0.80613 0.40835 0.0
C2769 C 0.76626 0.78839 0.35228 0.0
C2770 C 0.76583 0.79368 0.37196 0.0
H2771 H 0.73387 0.83661 0.44718 0.0
H2772 H 0.73632 0.82085 0.41819 0.0
H2773 H 0.79141 0.82029 0.40861 0.0
H2774 H 0.79461 0.77913 0.32198 0.0
H2775 H 0.79444 0.78715 0.35419 0.0
C2776 C 0.4686 0.49846 0.80661 0.0
C2777 C 0.45473 0.5064 0.8009 0.0
C2778 C 0.47421 0.49904 0.82483 0.0
C2779 C 0.45929 0.50631 0.87001 0.0
H2780 H 0.50966 0.50968 0.88647 0.0
C2781 C 0.48633 0.51675 0.94541 0.0
C2782 C 0.49933 0.5078 0.95119 0.0
C2783 C 0.48102 0.51644 0.92718 0.0
C2784 C 0.4955 0.50851 0.88211 0.0
H2785 H 0.4361 0.52148 0.81022 0.0
H2786 H 0.44608 0.52277 0.84205 0.0
H2787 H 0.50045 0.51025 0.85495 0.0
H2788 H 0.51689 0.49146 0.94196 0.0
H2789 H 0.50756 0.49086 0.91006 0.0
H2790 H 0.45439 0.50468 0.89721 0.0
C2791 C 0.45245 0.5158 0.83235 0.0
C2792 C 0.49017 0.50885 0.86395 0.0
C2793 C 0.4468 0.51519 0.81405 0.0
C2794 C 0.50685 0.4985 0.93808 0.0
C2795 C 0.50157 0.49825 0.91976 0.0
C2796 C 0.46463 0.50603 0.88817 0.0
C2797 C 0.46619 0.50763 0.83805 0.0
C2798 C 0.47197 0.50773 0.85758 0.0
C2799 C 0.48854 0.50721 0.91403 0.0
C2800 C 0.48282 0.50713 0.89452 0.0
H2801 H 0.47503 0.49147 0.79698 0.0
H2802 H 0.48459 0.49233 0.82853 0.0
H2803 H 0.44511 0.50508 0.86569 0.0
H2804 H 0.48022 0.52416 0.95499 0.0
H2805 H 0.47119 0.52373 0.9234 0.0
C2806 C 0.76359 0.16174 0.09576 0.0
C2807 C 0.7739 0.16409 0.08144 0.0
C2808 C 0.76603 0.17515 0.11012 0.0
C2809 C 0.79805 0.21271 0.13571 0.0
H2810 H 0.755 0.22517 0.15103 0.0
C2811 C 0.77297 0.25859 0.1953 0.0
C2812 C 0.78043 0.25241 0.21018 0.0
C2813 C 0.775 0.25167 0.17801 0.0
C2814 C 0.7672 0.22211 0.14674 0.0
H2815 H 0.79524 0.18212 0.07119 0.0
H2816 H 0.79976 0.20551 0.09671 0.0
H2817 H 0.75254 0.20485 0.12357 0.0
H2818 H 0.79707 0.23519 0.21871 0.0
H2819 H 0.80056 0.22313 0.18856 0.0
H2820 H 0.81257 0.22939 0.15939 0.0
C2821 C 0.78968 0.19332 0.09658 0.0
C2822 C 0.76575 0.21036 0.13115 0.0
C2823 C 0.78706 0.17997 0.08202 0.0
C2824 C 0.79101 0.2401 0.2075 0.0
C2825 C 0.79316 0.23331 0.19023 0.0
C2826 C 0.79948 0.22434 0.15148 0.0
C2827 C 0.77897 0.19108 0.11058 0.0
C2828 C 0.78107 0.20523 0.12576 0.0
C2829 C 0.78468 0.2386 0.17533 0.0
C2830 C 0.78398 0.22881 0.15733 0.0
H2831 H 0.75334 0.14969 0.09571 0.0
H2832 H 0.75779 0.17307 0.12093 0.0
H2833 H 0.81004 0.2089 0.13177 0.0
H2834 H 0.76484 0.26815 0.19695 0.0
H2835 H 0.76845 0.25606 0.16671 0.0
C2836 C 0.11576 0.51494 0.28801 0.0
C2837 C 0.10555 0.51672 0.27225 0.0
C2838 C 0.1097 0.51817 0.30462 0.0
C2839 C 0.07801 0.54 0.32704 0.0
H2840 H 0.07926 0.50633 0.36031 0.0
C2841 C 0.03861 0.51477 0.38885 0.0
C2842 C 0.03877 0.53092 0.39901 0.0
C2843 C 0.0488 0.51427 0.37457 0.0
C2844 C 0.0788 0.51583 0.35114 0.0
H2845 H 0.08098 0.52332 0.2616 0.0
H2846 H 0.07033 0.52863 0.29042 0.0
H2847 H 0.09332 0.50332 0.33291 0.0
H2848 H 0.04988 0.5592 0.40239 0.0
H2849 H 0.06776 0.55834 0.37735 0.0
H2850 H 0.06279 0.55203 0.34485 0.0
C2851 C 0.08317 0.52506 0.29001 0.0
C2852 C 0.08704 0.51423 0.33556 0.0
C2853 C 0.08921 0.52186 0.27346 0.0
C2854 C 0.04932 0.54659 0.39461 0.0
C2855 C 0.05957 0.54609 0.38033 0.0
C2856 C 0.06974 0.54157 0.34259 0.0
C2857 C 0.09333 0.52326 0.30576 0.0
C2858 C 0.08638 0.52608 0.32318 0.0
C2859 C 0.05941 0.52991 0.37017 0.0
C2860 C 0.06973 0.52929 0.35461 0.0
H2861 H 0.12845 0.51108 0.28754 0.0
H2862 H 0.11786 0.51679 0.31656 0.0
H2863 H 0.07753 0.54949 0.31786 0.0
H2864 H 0.0304 0.50252 0.3918 0.0
H2865 H 0.04809 0.50164 0.36676 0.0
C2866 C 0.75903 0.81931 0.57466 0.0
C2867 C 0.76577 0.83734 0.57368 0.0
C2868 C 0.7584 0.81306 0.59128 0.0
C2869 C 0.75831 0.82794 0.63986 0.0
H2870 H 0.77016 0.78352 0.646 0.0
C2871 C 0.76483 0.80422 0.70982 0.0
C2872 C 0.75971 0.78599 0.71067 0.0
C2873 C 0.76521 0.8106 0.69324 0.0
C2874 C 0.76652 0.79584 0.64454 0.0
H2875 H 0.77726 0.86287 0.58964 0.0
H2876 H 0.77622 0.85202 0.61845 0.0
H2877 H 0.77161 0.79408 0.61712 0.0
H2878 H 0.75042 0.7603 0.69446 0.0
H2879 H 0.75061 0.77134 0.66585 0.0
H2880 H 0.75307 0.82965 0.66722 0.0
C2881 C 0.77125 0.84268 0.6064 0.0
C2882 C 0.7674 0.80194 0.62789 0.0
C2883 C 0.77198 0.8489 0.5898 0.0
C2884 C 0.75455 0.77441 0.69445 0.0
C2885 C 0.75483 0.78077 0.67793 0.0
C2886 C 0.75734 0.8218 0.65651 0.0
C2887 C 0.76436 0.82467 0.60744 0.0
C2888 C 0.76334 0.8181 0.62526 0.0
C2889 C 0.7604 0.79896 0.67699 0.0
C2890 C 0.76142 0.80563 0.65916 0.0
H2891 H 0.75405 0.81001 0.56257 0.0
H2892 H 0.75285 0.79914 0.59147 0.0
H2893 H 0.75481 0.84032 0.63836 0.0
H2894 H 0.76902 0.81357 0.72197 0.0
H2895 H 0.76976 0.82467 0.69322 0.0
C2896 C 0.71788 0.42829 0.51505 0.0
C2897 C 0.7128 0.40982 0.51365 0.0
C2898 C 0.70696 0.43852 0.52239 0.0
C2899 C 0.65985 0.43598 0.52957 0.0
H2900 H 0.68018 0.4818 0.55794 0.0
C2901 C 0.61413 0.4811 0.54981 0.0
C2902 C 0.61969 0.49827 0.54557 0.0
C2903 C 0.62616 0.47022 0.55034 0.0
C2904 C 0.67433 0.46903 0.55004 0.0
H2905 H 0.69252 0.38756 0.51922 0.0
H2906 H 0.67341 0.4055 0.53217 0.0
H2907 H 0.69996 0.46235 0.55032 0.0
H2908 H 0.64242 0.51794 0.5397 0.0
H2909 H 0.66351 0.49887 0.54049 0.0
H2910 H 0.63435 0.44278 0.52882 0.0
C2911 C 0.68577 0.41203 0.5274 0.0
C2912 C 0.68563 0.45791 0.54566 0.0
C2913 C 0.69672 0.40177 0.52002 0.0
C2914 C 0.63783 0.50478 0.54308 0.0
C2915 C 0.64989 0.49386 0.54356 0.0
C2916 C 0.64857 0.44705 0.53398 0.0
C2917 C 0.69073 0.43051 0.52853 0.0
C2918 C 0.67856 0.44143 0.53504 0.0
C2919 C 0.64399 0.47628 0.5466 0.0
C2920 C 0.65574 0.46384 0.54396 0.0
H2921 H 0.73021 0.43488 0.51026 0.0
H2922 H 0.71101 0.45269 0.52278 0.0
H2923 H 0.65401 0.42348 0.52116 0.0
H2924 H 0.60027 0.47587 0.55211 0.0
H2925 H 0.62134 0.45685 0.55308 0.0
C2926 C 0.20115 0.11531 0.49135 0.0
C2927 C 0.20252 0.1329 0.48857 0.0
C2928 C 0.18428 0.10391 0.49172 0.0
C2929 C 0.13669 0.10385 0.49802 0.0
H2930 H 0.12776 0.05432 0.4788 0.0
C2931 C 0.06584 0.05682 0.4912 0.0
C2932 C 0.06461 0.04022 0.49686 0.0
C2933 C 0.08262 0.06773 0.48957 0.0
C2934 C 0.13011 0.06808 0.48437 0.0
H2935 H 0.18718 0.15223 0.48369 0.0
H2936 H 0.15763 0.13222 0.48392 0.0
H2937 H 0.1568 0.07425 0.47664 0.0
H2938 H 0.0802 0.02197 0.50487 0.0
H2939 H 0.10961 0.04108 0.50188 0.0
H2940 H 0.1099 0.09767 0.50556 0.0
C2941 C 0.16965 0.12731 0.48619 0.0
C2942 C 0.14677 0.07954 0.48316 0.0
C2943 C 0.18658 0.13877 0.48594 0.0
C2944 C 0.08063 0.03465 0.50046 0.0
C2945 C 0.09748 0.04558 0.4987 0.0
C2946 C 0.12 0.09242 0.49911 0.0
C2947 C 0.16828 0.10973 0.48919 0.0
C2948 C 0.15033 0.09758 0.49002 0.0
C2949 C 0.09866 0.06235 0.49345 0.0
C2950 C 0.1165 0.0744 0.49232 0.0
H2951 H 0.21316 0.11036 0.49352 0.0
H2952 H 0.18385 0.0906 0.49437 0.0
H2953 H 0.139 0.11754 0.50378 0.0
H2954 H 0.05383 0.06159 0.48826 0.0
H2955 H 0.08302 0.08044 0.48523 0.0
C2956 C 0.13541 0.95772 0.76044 0.0
C2957 C 0.14461 0.97564 0.76314 0.0
C2958 C 0.14499 0.94449 0.75979 0.0
C2959 C 0.1905 0.93679 0.75319 0.0
H2960 H 0.17285 0.89415 0.77367 0.0
C2961 C 0.23371 0.88627 0.76327 0.0
C2962 C 0.22506 0.86819 0.75926 0.0
C2963 C 0.22371 0.89913 0.76339 0.0
C2964 C 0.17788 0.90589 0.76771 0.0
H2965 H 0.17118 -0.00635 0.76749 0.0
H2966 H 0.18787 0.97069 0.76674 0.0
H2967 H 0.15594 0.91697 0.77481 0.0
H2968 H 0.19889 0.84967 0.75201 0.0
H2969 H 0.18147 0.8721 0.75246 0.0
H2970 H 0.21256 0.92577 0.74631 0.0
C2971 C 0.17323 0.96677 0.76474 0.0
C2972 C 0.16815 0.91901 0.76834 0.0
C2973 C 0.16364 0.97999 0.7653 0.0
C2974 C 0.20606 0.8634 0.75542 0.0
C2975 C 0.19604 0.87628 0.75565 0.0
C2976 C 0.20027 0.92373 0.75266 0.0
C2977 C 0.16406 0.9488 0.7619 0.0
C2978 C 0.17434 0.93469 0.76112 0.0
C2979 C 0.20473 0.89432 0.75963 0.0
C2980 C 0.19412 0.90811 0.75994 0.0
H2981 H 0.12076 0.95388 0.75865 0.0
H2982 H 0.1374 0.93085 0.75733 0.0
H2983 H 0.19555 0.94848 0.74715 0.0
H2984 H 0.24825 0.89054 0.76668 0.0
H2985 H 0.23085 0.91287 0.7668 0.0
C2986 C 0.30998 0.93307 0.9665 0.0
C2987 C 0.3028 0.91867 0.9752 0.0
C2988 C 0.32849 0.94097 0.96923 0.0
C2989 C 0.37309 0.93428 -0.01487 0.0
H2990 H 0.38667 -0.01462 -0.00521 0.0
C2991 C 0.44659 0.97295 0.00968 0.0
C2992 C 0.45317 -0.0119 0.00183 0.0
C2993 C 0.42821 0.96448 0.00682 0.0
C2994 C 0.38313 0.97112 -0.00807 0.0
H2995 H 0.3096 0.90084 -0.00699 0.0
H2996 H 0.34194 0.91466 -0.00226 0.0
H2997 H 0.35482 0.97006 -0.01194 0.0
H2998 H 0.44552 0.00641 -0.01495 0.0
H2999 H 0.41355 -0.00848 0.97991 0.0
H3000 H 0.40142 0.93534 -0.0111 0.0
C3001 C 0.33321 0.9198 -0.01121 0.0
C3002 C 0.36488 0.96235 -0.01194 0.0
C3003 C 0.31467 0.91192 -0.01388 0.0
C3004 C 0.44091 -0.0052 -0.00864 0.0
C3005 C 0.42255 -0.0137 -0.01154 0.0
C3006 C 0.39136 0.94306 -0.01105 0.0
C3007 C 0.34025 0.93461 0.98064 0.0
C3008 C 0.35967 0.94384 0.98457 0.0
C3009 C 0.41601 0.97096 -0.00398 0.0
C3010 C 0.39658 0.96159 -0.00764 0.0
H3011 H 0.30125 0.93857 0.95794 0.0
H3012 H 0.33359 0.9522 0.96253 0.0
H3013 H 0.36948 0.92001 0.98233 0.0
H3014 H 0.45566 0.9675 0.01792 0.0
H3015 H 0.42354 0.95285 0.01308 0.0
C3016 C 0.82054 0.5446 0.78236 0.0
C3017 C 0.83927 0.55189 0.78634 0.0
C3018 C 0.80844 0.55545 0.78311 0.0
C3019 C 0.80406 0.6006 0.79838 0.0
H3020 H 0.77245 0.59367 0.75378 0.0
C3021 C 0.77872 0.65676 0.7718 0.0
C3022 C 0.76125 0.65336 0.76249 0.0
C3023 C 0.78558 0.64306 0.77734 0.0
C3024 C 0.78086 0.5956 0.76649 0.0
H3025 H 0.85991 0.57604 0.79549 0.0
H3026 H 0.83879 0.59498 0.79675 0.0
H3027 H 0.78917 0.57173 0.7599 0.0
H3028 H 0.73717 0.63294 0.75188 0.0
H3029 H 0.7492 0.60882 0.76162 0.0
H3030 H 0.79615 0.62477 0.80471 0.0
C3031 C 0.83344 0.58089 0.79309 0.0
C3032 C 0.79045 0.58302 0.77 0.0
C3033 C 0.84556 0.57005 0.79228 0.0
C3034 C 0.75073 0.63591 0.7589 0.0
C3035 C 0.75761 0.62214 0.76451 0.0
C3036 C 0.79441 0.61316 0.7949 0.0
C3037 C 0.81482 0.57376 0.78795 0.0
C3038 C 0.80254 0.58564 0.78574 0.0
C3039 C 0.77514 0.62559 0.77374 0.0
C3040 C 0.78314 0.61105 0.77867 0.0
H3041 H 0.81528 0.53062 0.77786 0.0
H3042 H 0.79413 0.54959 0.7793 0.0
H3043 H 0.81309 0.60283 0.81073 0.0
H3044 H 0.78731 0.67002 0.77444 0.0
H3045 H 0.7993 0.64613 0.78401 0.0
C3046 C 0.80971 0.62791 0.02381 0.0
C3047 C 0.80451 0.6363 0.00952 0.0
C3048 C 0.82499 0.62105 0.02394 0.0
C3049 C 0.85317 0.60287 -0.00608 0.0
H3050 H 0.88338 0.60444 0.03831 0.0
C3051 C 0.91109 0.56596 -0.0013 0.0
C3052 C 0.91247 0.55712 0.01369 0.0
C3053 C 0.89959 0.57748 -0.00238 0.0
C3054 C 0.87501 0.60375 0.02581 0.0
H3055 H 0.81168 0.6445 0.98432 0.0
H3056 H 0.83861 0.63229 0.98446 0.0
H3057 H 0.86105 0.6221 0.03746 0.0
H3058 H 0.90297 0.55382 0.03943 0.0
H3059 H 0.8828 0.57357 0.03745 0.0
H3060 H 0.86687 0.58416 0.98238 0.0
C3061 C 0.8307 0.63107 -0.00442 0.0
C3062 C 0.86224 0.61395 0.0253 0.0
C3063 C 0.8154 0.63819 -0.00443 0.0
C3064 C 0.90213 0.56021 0.0276 0.0
C3065 C 0.89071 0.57175 0.02656 0.0
C3066 C 0.86598 0.59263 -0.00558 0.0
C3067 C 0.83554 0.62223 0.00971 0.0
C3068 C 0.85084 0.61334 0.00947 0.0
C3069 C 0.88926 0.58055 0.01156 0.0
C3070 C 0.87678 0.59263 0.01049 0.0
H3071 H 0.80167 0.62625 0.03482 0.0
H3072 H 0.82812 0.61417 0.03493 0.0
H3073 H 0.84451 0.60195 0.98154 0.0
H3074 H 0.91871 0.56379 -0.01235 0.0
H3075 H 0.89892 0.58409 -0.01407 0.0
C3076 C 0.1372 0.09421 0.76624 0.0
C3077 C 0.1428 0.07899 0.7698 0.0
C3078 C 0.14984 0.11009 0.7661 0.0
C3079 C 0.19664 0.13533 0.78139 0.0
H3080 H 0.18783 0.16062 0.74188 0.0
C3081 C 0.24479 0.20174 0.76998 0.0
C3082 C 0.2361 0.21445 0.76427 0.0
C3083 C 0.23475 0.18459 0.77102 0.0
C3084 C 0.19044 0.15385 0.75311 0.0
H3085 H 0.16626 0.06882 0.77661 0.0
H3086 H 0.18844 0.09679 0.77648 0.0
H3087 H 0.16793 0.13207 0.74336 0.0
H3088 H 0.20988 0.21914 0.75586 0.0
H3089 H 0.19265 0.18973 0.75789 0.0
H3090 H 0.21905 0.15742 0.79128 0.0
C3091 C 0.17417 0.09629 0.77376 0.0
C3092 C 0.17902 0.13744 0.75394 0.0
C3093 C 0.16146 0.08026 0.77379 0.0
C3094 C 0.21716 0.20971 0.76006 0.0
C3095 C 0.20721 0.19272 0.76113 0.0
C3096 C 0.20809 0.1519 0.78061 0.0
C3097 C 0.16849 0.1113 0.76958 0.0
C3098 C 0.18172 0.12811 0.76825 0.0
C3099 C 0.21584 0.17982 0.76636 0.0
C3100 C 0.20488 0.16153 0.76664 0.0
H3101 H 0.12299 0.09384 0.76321 0.0
H3102 H 0.14498 0.12147 0.76316 0.0
H3103 H 0.19907 0.12847 0.7926 0.0
H3104 H 0.25935 0.20493 0.77337 0.0
H3105 H 0.24185 0.17497 0.77508 0.0
C3106 C 0.37183 0.94325 0.26136 0.0
C3107 C 0.36479 0.95755 0.26755 0.0
C3108 C 0.36211 0.92597 0.26155 0.0
C3109 C 0.31614 0.89912 0.26151 0.0
H3110 H 0.34105 0.86451 0.27652 0.0
C3111 C 0.27871 0.82718 0.2656 0.0
C3112 C 0.28715 0.81405 0.25902 0.0
C3113 C 0.28788 0.84497 0.26778 0.0
C3114 C 0.33393 0.87399 0.27215 0.0
H3115 H 0.34203 0.96489 0.27886 0.0
H3116 H 0.32509 0.93465 0.27918 0.0
H3117 H 0.35773 0.89513 0.27828 0.0
H3118 H 0.31173 0.80927 0.24943 0.0
H3119 H 0.32754 0.8402 0.25298 0.0
H3120 H 0.2924 0.87792 0.2551 0.0
C3121 C 0.33808 0.93687 0.27409 0.0
C3122 C 0.34348 0.89151 0.27318 0.0
C3123 C 0.34784 0.95418 0.27399 0.0
C3124 C 0.30487 0.81905 0.25462 0.0
C3125 C 0.314 0.83678 0.25677 0.0
C3126 C 0.30659 0.88156 0.26043 0.0
C3127 C 0.34513 0.9226 0.26787 0.0
C3128 C 0.33473 0.90422 0.26768 0.0
C3129 C 0.30564 0.84994 0.26342 0.0
C3130 C 0.31544 0.86877 0.26554 0.0
H3131 H 0.38483 0.94537 0.25629 0.0
H3132 H 0.36777 0.91522 0.25645 0.0
H3133 H 0.3091 0.90861 0.25702 0.0
H3134 H 0.26507 0.82374 0.26915 0.0
H3135 H 0.28114 0.8548 0.27307 0.0
C3136 C 0.52604 0.34245 0.57779 0.0
C3137 C 0.53578 0.33121 0.56942 0.0
C3138 C 0.5241 0.35805 0.5711 0.0
C3139 C 0.54484 0.39162 0.54285 0.0
H3140 H 0.49897 0.4048 0.54208 0.0
C3141 C 0.53667 0.46182 0.52883 0.0
C3142 C 0.52096 0.46293 0.51812 0.0
C3143 C 0.53861 0.44571 0.53437 0.0
C3144 C 0.5119 0.40138 0.54209 0.0
H3145 H 0.55126 0.32818 0.54725 0.0
H3146 H 0.54825 0.35546 0.53585 0.0
H3147 H 0.50199 0.37735 0.55285 0.0
H3148 H 0.49491 0.44736 0.50506 0.0
H3149 H 0.4981 0.41953 0.51493 0.0
H3150 H 0.55482 0.41581 0.53233 0.0
C3151 C 0.54196 0.35212 0.54761 0.0
C3152 C 0.51369 0.38558 0.54846 0.0
C3153 C 0.54362 0.33632 0.55412 0.0
C3154 C 0.50726 0.44722 0.51319 0.0
C3155 C 0.50905 0.43117 0.51901 0.0
C3156 C 0.54314 0.4076 0.53679 0.0
C3157 C 0.5321 0.36331 0.55593 0.0
C3158 C 0.53019 0.38031 0.54895 0.0
C3159 C 0.52476 0.43005 0.52974 0.0
C3160 C 0.52662 0.41281 0.53622 0.0
H3161 H 0.51978 0.33915 0.58958 0.0
H3162 H 0.51655 0.3662 0.5781 0.0
H3163 H 0.55783 0.38829 0.54305 0.0
H3164 H 0.54758 0.47349 0.53302 0.0
H3165 H 0.55087 0.44565 0.54268 0.0
C3166 C 0.43303 0.76095 0.36237 0.0
C3167 C 0.43524 0.7506 0.37602 0.0
C3168 C 0.41622 0.75931 0.35259 0.0
C3169 C 0.36668 0.74466 0.35191 0.0
H3170 H 0.36758 0.74705 0.30121 0.0
C3171 C 0.30709 0.75887 0.30618 0.0
C3172 C 0.3037 0.75115 0.28808 0.0
C3173 C 0.32192 0.75682 0.31747 0.0
C3174 C 0.36688 0.74613 0.31526 0.0
H3175 H 0.42074 0.73055 0.39021 0.0
H3176 H 0.39093 0.72768 0.37293 0.0
H3177 H 0.39497 0.74638 0.31968 0.0
H3178 H 0.31321 0.73465 0.26802 0.0
H3179 H 0.33872 0.7309 0.28757 0.0
H3180 H 0.33843 0.74442 0.34735 0.0
C3181 C 0.40259 0.73711 0.36992 0.0
C3182 C 0.38275 0.74594 0.32598 0.0
C3183 C 0.41969 0.73871 0.3798 0.0
C3184 C 0.31536 0.74095 0.28178 0.0
C3185 C 0.33015 0.73888 0.29304 0.0
C3186 C 0.35069 0.7449 0.34114 0.0
C3187 C 0.40072 0.74725 0.35595 0.0
C3188 C 0.38304 0.7455 0.34452 0.0
C3189 C 0.33387 0.74698 0.31103 0.0
C3190 C 0.35058 0.74583 0.32263 0.0
H3191 H 0.44442 0.77047 0.35899 0.0
H3192 H 0.41538 0.76769 0.34233 0.0
H3193 H 0.36633 0.74438 0.36611 0.0
H3194 H 0.29845 0.7668 0.31161 0.0
H3195 H 0.32431 0.76342 0.33112 0.0
C3196 C 0.02122 0.70441 0.07586 0.0
C3197 C 0.03353 0.71841 0.07034 0.0
C3198 C 0.01942 0.68682 0.06835 0.0
C3199 C 0.03202 0.65712 0.03114 0.0
H3200 H 0.02246 0.62327 0.06441 0.0
C3201 C 0.03428 0.58238 0.01375 0.0
C3202 C 0.02145 0.56962 0.02047 0.0
C3203 C 0.03603 0.60064 0.01887 0.0
C3204 C 0.02492 0.63239 0.05477 0.0
H3205 H 0.05358 0.72461 0.05224 0.0
H3206 H 0.05061 0.69381 0.03909 0.0
H3207 H 0.02463 0.65418 0.07436 0.0
H3208 H 0.0002 0.5666 0.03779 0.0
H3209 H 0.0032 0.59791 0.04654 0.0
H3210 H 0.03255 0.63508 0.01162 0.0
C3211 C 0.04198 0.69648 0.04907 0.0
C3212 C 0.02612 0.65034 0.06051 0.0
C3213 C 0.04364 0.71425 0.05654 0.0
C3214 C 0.01039 0.57581 0.03236 0.0
C3215 C 0.01218 0.59396 0.0375 0.0
C3216 C 0.03088 0.63907 0.02539 0.0
C3217 C 0.03018 0.68235 0.05522 0.0
C3218 C 0.02946 0.6631 0.0488 0.0
C3219 C 0.02509 0.60679 0.03098 0.0
C3220 C 0.02709 0.62631 0.03706 0.0
H3221 H 0.01333 0.70706 0.08656 0.0
H3222 H 0.00976 0.67665 0.07321 0.0
H3223 H 0.03452 0.66631 0.02157 0.0
H3224 H 0.04305 0.57828 0.00455 0.0
H3225 H 0.04622 0.60995 0.01356 0.0
C3226 C 0.05406 0.25806 0.89819 0.0
C3227 C 0.03617 0.25212 0.88969 0.0
C3228 C 0.0688 0.25997 0.88814 0.0
C3229 C 0.08134 0.24539 0.84339 0.0
H3230 H 0.12234 0.28576 0.85571 0.0
C3231 C 0.13621 0.26194 0.79582 0.0
C3232 C 0.15436 0.26885 0.80331 0.0
C3233 C 0.12217 0.25971 0.80667 0.0
C3234 C 0.11114 0.27426 0.85217 0.0
H3235 H 0.01989 0.24355 0.86387 0.0
H3236 H 0.04537 0.24692 0.84648 0.0
H3237 H 0.09753 0.28218 0.8741 0.0
H3238 H 0.17178 0.27849 0.82839 0.0
H3239 H 0.14741 0.27455 0.84724 0.0
H3240 H 0.09488 0.23742 0.82151 0.0
C3241 C 0.04812 0.24994 0.86091 0.0
C3242 C 0.09685 0.27221 0.86276 0.0
C3243 C 0.03345 0.24811 0.87092 0.0
C3244 C 0.158 0.27339 0.82204 0.0
C3245 C 0.14396 0.27114 0.8329 0.0
C3246 C 0.09562 0.24741 0.83284 0.0
C3247 C 0.06604 0.25588 0.86934 0.0
C3248 C 0.08166 0.25781 0.85846 0.0
C3249 C 0.1258 0.26427 0.82539 0.0
C3250 C 0.11071 0.26194 0.83697 0.0
H3251 H 0.05668 0.26125 0.91261 0.0
H3252 H 0.08237 0.26443 0.89515 0.0
H3253 H 0.07008 0.23394 0.83979 0.0
H3254 H 0.13277 0.25856 0.78147 0.0
H3255 H 0.1084 0.25468 0.80029 0.0
C3256 C 0.52864 0.73946 0.90644 0.0
C3257 C 0.52371 0.73675 0.8878 0.0
C3258 C 0.52664 0.72517 0.9162 0.0
C3259 C 0.52136 0.67642 0.9111 0.0
H3260 H 0.50552 0.68101 0.95813 0.0
C3261 C 0.504 0.6167 0.95054 0.0
C3262 C 0.50865 0.61974 0.96924 0.0
C3263 C 0.50575 0.63079 0.94051 0.0
C3264 C 0.51018 0.67951 0.94512 0.0
H3265 H 0.51273 0.7167 0.8649 0.0
H3266 H 0.50913 0.69185 0.88188 0.0
H3267 H 0.50865 0.70566 0.94104 0.0
H3268 H 0.51932 0.64027 -0.00817 0.0
H3269 H 0.52242 0.66468 0.97445 0.0
H3270 H 0.52294 0.65029 0.9152 0.0
C3271 C 0.51476 0.70503 0.88897 0.0
C3272 C 0.51198 0.69372 0.93527 0.0
C3273 C 0.51671 0.71933 0.87921 0.0
C3274 C 0.51525 0.63733 0.97754 0.0
C3275 C 0.51702 0.6514 0.96752 0.0
C3276 C 0.51959 0.66221 0.92097 0.0
C3277 C 0.51969 0.70771 0.90763 0.0
C3278 C 0.51763 0.69243 0.9181 0.0
C3279 C 0.51225 0.64839 0.94884 0.0
C3280 C 0.51401 0.66353 0.93817 0.0
H3281 H 0.53413 0.75266 0.91352 0.0
H3282 H 0.53084 0.72783 0.93048 0.0
H3283 H 0.52601 0.67495 0.89807 0.0
H3284 H 0.49864 0.60341 0.94365 0.0
H3285 H 0.50167 0.62787 0.92622 0.0
C3286 C 0.0662 0.7546 0.7015 0.0
C3287 C 0.0595 0.74558 0.68421 0.0
C3288 C 0.08415 0.75587 0.70886 0.0
C3289 C 0.12897 0.74847 0.69589 0.0
H3290 H 0.14153 0.75341 0.74719 0.0
C3291 C 0.19891 0.74201 0.72893 0.0
C3292 C 0.20779 0.75536 0.74302 0.0
C3293 C 0.18084 0.74068 0.72197 0.0
C3294 C 0.13827 0.7521 0.73282 0.0
H3295 H 0.06649 0.73041 0.66136 0.0
H3296 H 0.09708 0.73181 0.67428 0.0
H3297 H 0.11035 0.7512 0.73492 0.0
H3298 H 0.20424 0.77753 0.761 0.0
H3299 H 0.17272 0.77486 0.74923 0.0
H3300 H 0.1569 0.74879 0.69392 0.0
C3301 C 0.08894 0.73861 0.68208 0.0
C3302 C 0.1203 0.75095 0.7257 0.0
C3303 C 0.07117 0.73765 0.67464 0.0
C3304 C 0.19793 0.76709 0.75015 0.0
C3305 C 0.17978 0.76552 0.74344 0.0
C3306 C 0.14683 0.74928 0.703 0.0
C3307 C 0.09592 0.74788 0.69929 0.0
C3308 C 0.11526 0.74915 0.70706 0.0
C3309 C 0.171 0.7524 0.72914 0.0
C3310 C 0.15179 0.75117 0.72157 0.0
H3311 H 0.05766 0.76094 0.70927 0.0
H3312 H 0.08882 0.7634 0.72199 0.0
H3313 H 0.12608 0.74758 0.68153 0.0
H3314 H 0.20602 0.73278 0.72303 0.0
H3315 H 0.17451 0.73034 0.71103 0.0
C3316 C 0.03377 0.34232 0.40229 0.0
C3317 C 0.03425 0.34277 0.38384 0.0
C3318 C 0.03251 0.35729 0.41377 0.0
C3319 C 0.03691 0.40631 0.41549 0.0
H3320 H 0.01083 0.40056 0.4567 0.0
C3321 C 0.01466 0.46393 0.45556 0.0
C3322 C 0.01771 0.4657 0.47434 0.0
C3323 C 0.01727 0.44908 0.4449 0.0
C3324 C 0.01827 0.4024 0.44531 0.0
H3325 H 0.03351 0.35945 0.3631 0.0
H3326 H 0.03066 0.38503 0.38271 0.0
H3327 H 0.01419 0.37458 0.43764 0.0
H3328 H 0.02578 0.45301 0.49656 0.0
H3329 H 0.02997 0.427 0.47797 0.0
H3330 H 0.04043 0.43417 0.42294 0.0
C3331 C 0.03187 0.37342 0.38861 0.0
C3332 C 0.02031 0.38745 0.43436 0.0
C3333 C 0.03339 0.35859 0.37723 0.0
C3334 C 0.02335 0.45216 0.48215 0.0
C3335 C 0.02565 0.43717 0.4715 0.0
C3336 C 0.03462 0.42122 0.42627 0.0
C3337 C 0.03143 0.37311 0.40711 0.0
C3338 C 0.02963 0.38912 0.4192 0.0
C3339 C 0.0227 0.43543 0.45271 0.0
C3340 C 0.02526 0.41949 0.44132 0.0
H3341 H 0.03445 0.33041 0.4079 0.0
H3342 H 0.03252 0.35644 0.4279 0.0
H3343 H 0.04458 0.40837 0.40429 0.0
H3344 H 0.01035 0.47408 0.44904 0.0
H3345 H 0.01475 0.44814 0.43049 0.0
C3346 C 0.4383 0.22391 0.19777 0.0
C3347 C 0.45022 0.23745 0.19119 0.0
C3348 C 0.42212 0.22639 0.20387 0.0
C3349 C 0.39157 0.25865 0.20654 0.0
H3350 H 0.37023 0.22883 0.24003 0.0
C3351 C 0.33247 0.27119 0.24719 0.0
C3352 C 0.3173 0.25679 0.24566 0.0
C3353 C 0.34863 0.26917 0.24054 0.0
C3354 C 0.37596 0.23725 0.23064 0.0
H3355 H 0.45426 0.26444 0.18603 0.0
H3356 H 0.42672 0.26925 0.19754 0.0
H3357 H 0.39817 0.22517 0.22903 0.0
H3358 H 0.30762 0.22883 0.2362 0.0
H3359 H 0.33599 0.22517 0.22541 0.0
H3360 H 0.36953 0.27127 0.20916 0.0
C3361 C 0.42936 0.25632 0.19744 0.0
C3362 C 0.39206 0.23506 0.22406 0.0
C3363 C 0.44537 0.25363 0.19085 0.0
C3364 C 0.31895 0.24023 0.23765 0.0
C3365 C 0.33526 0.23811 0.23146 0.0
C3366 C 0.37569 0.26113 0.21352 0.0
C3367 C 0.41736 0.24276 0.20421 0.0
C3368 C 0.40018 0.24555 0.21166 0.0
C3369 C 0.35029 0.25259 0.23261 0.0
C3370 C 0.36754 0.25034 0.22554 0.0
H3371 H 0.44141 0.21118 0.19808 0.0
H3372 H 0.41334 0.21525 0.20822 0.0
H3373 H 0.39682 0.26693 0.19688 0.0
H3374 H 0.33171 0.28417 0.25311 0.0
H3375 H 0.35992 0.28059 0.24173 0.0
C3376 C 0.59433 0.51467 0.32954 0.0
C3377 C 0.58269 0.51954 0.31661 0.0
C3378 C 0.58967 0.51306 0.34692 0.0
C3379 C 0.55816 0.5265 0.37805 0.0
H3380 H 0.57072 0.49133 0.40528 0.0
C3381 C 0.52413 0.50919 0.44029 0.0
C3382 C 0.53509 0.50809 0.45589 0.0
C3383 C 0.53113 0.51029 0.42394 0.0
C3384 C 0.56726 0.50134 0.3979 0.0
H3385 H 0.55664 0.52584 0.31186 0.0
H3386 H 0.54836 0.52254 0.34156 0.0
H3387 H 0.58046 0.49361 0.37556 0.0
H3388 H 0.56209 0.50681 0.46616 0.0
H3389 H 0.57429 0.50844 0.43733 0.0
H3390 H 0.5446 0.53393 0.40013 0.0
C3391 C 0.56139 0.52053 0.33865 0.0
C3392 C 0.57288 0.50268 0.38083 0.0
C3393 C 0.56611 0.52229 0.32143 0.0
C3394 C 0.55323 0.50763 0.45448 0.0
C3395 C 0.56022 0.50853 0.43794 0.0
C3396 C 0.55241 0.52502 0.39493 0.0
C3397 C 0.57318 0.51617 0.35183 0.0
C3398 C 0.56817 0.51514 0.3705 0.0
C3399 C 0.54931 0.51018 0.42252 0.0
C3400 C 0.55665 0.51228 0.40503 0.0
H3401 H 0.60723 0.51247 0.32635 0.0
H3402 H 0.5992 0.50978 0.35662 0.0
H3403 H 0.55469 0.53665 0.37092 0.0
H3404 H 0.5101 0.50956 0.4407 0.0
H3405 H 0.52224 0.51127 0.41234 0.0
C3406 C 0.27268 0.85616 0.04191 0.0
C3407 C 0.25791 0.85052 0.02842 0.0
C3408 C 0.27606 0.84499 0.05416 0.0
C3409 C 0.25332 0.80761 0.07474 0.0
H3410 H 0.30182 0.80224 0.08763 0.0
C3411 C 0.26674 0.76134 0.1249 0.0
C3412 C 0.28177 0.76819 0.13792 0.0
C3413 C 0.26448 0.76968 0.10986 0.0
C3414 C 0.28822 0.8037 0.08426 0.0
H3415 H 0.23515 0.82879 0.01711 0.0
H3416 H 0.241 0.80941 0.03858 0.0
H3417 H 0.29659 0.82078 0.06499 0.0
H3418 H 0.30635 0.78895 0.1453 0.0
H3419 H 0.30232 0.80358 0.11929 0.0
H3420 H 0.24496 0.79104 0.09432 0.0
C3421 C 0.24992 0.82245 0.0397 0.0
C3422 C 0.28525 0.8143 0.07131 0.0
C3423 C 0.24663 0.83353 0.02739 0.0
C3424 C 0.29478 0.78318 0.13533 0.0
C3425 C 0.29247 0.79157 0.12039 0.0
C3426 C 0.2563 0.79713 0.08778 0.0
C3427 C 0.26464 0.82807 0.05321 0.0
C3428 C 0.26779 0.81645 0.06653 0.0
C3429 C 0.27713 0.78512 0.10764 0.0
C3430 C 0.27381 0.79516 0.0928 0.0
H3431 H 0.28163 0.86918 0.043 0.0
H3432 H 0.28741 0.8497 0.06457 0.0
H3433 H 0.23976 0.80921 0.07145 0.0
H3434 H 0.25659 0.74971 0.1265 0.0
H3435 H 0.25268 0.76419 0.10012 0.0
C3436 C 0.94203 0.51661 0.81827 0.0
C3437 C 0.92554 0.52156 0.81565 0.0
C3438 C 0.95108 0.5183 0.83544 0.0
C3439 C 0.94271 0.52057 0.88238 0.0
H3440 H -0.00497 0.53586 0.89205 0.0
C3441 C 0.9794 0.52989 0.9535 0.0
C3442 C -0.00548 0.52265 0.95558 0.0
C3443 C 0.97178 0.53138 0.93651 0.0
C3444 C 0.98043 0.53146 0.8895 0.0
H3445 H 0.90588 0.53262 0.82899 0.0
H3446 H 0.92181 0.53573 0.85897 0.0
H3447 H 0.98012 0.53568 0.86212 0.0
H3448 H 0.01384 0.51176 0.94149 0.0
H3449 H 0.00039 0.51424 0.91176 0.0
H3450 H 0.94298 0.51616 0.90966 0.0
C3451 C 0.92757 0.53029 0.84773 0.0
C3452 C 0.9719 0.53135 0.87239 0.0
C3453 C 0.9185 0.52859 0.83055 0.0
C3454 C 0.00219 0.5174 0.94033 0.0
C3455 C -0.00545 0.51889 0.92331 0.0
C3456 C 0.95123 0.52069 0.89946 0.0
C3457 C 0.94386 0.525 0.85036 0.0
C3458 C 0.95295 0.52583 0.86865 0.0
C3459 C 0.9791 0.52566 0.92123 0.0
C3460 C 0.97017 0.52607 0.90319 0.0
H3461 H 0.94783 0.51113 0.80708 0.0
H3462 H 0.96349 0.51391 0.83705 0.0
H3463 H 0.92812 0.51593 0.87983 0.0
H3464 H 0.97323 0.53419 0.96497 0.0
H3465 H 0.96006 0.53692 0.93534 0.0
C3466 C 0.25311 0.20918 0.55732 0.0
C3467 C 0.25916 0.19353 0.55609 0.0
C3468 C 0.25365 0.21922 0.57415 0.0
C3469 C 0.27617 0.22718 0.62079 0.0
H3470 H 0.23202 0.23767 0.63532 0.0
C3471 C 0.2674 0.23955 0.69495 0.0
C3472 C 0.25827 0.25224 0.7013 0.0
C3473 C 0.26763 0.23485 0.67665 0.0
C3474 C 0.24457 0.23514 0.63144 0.0
H3475 H 0.27105 0.17652 0.57138 0.0
H3476 H 0.27259 0.19413 0.6003 0.0
H3477 H 0.23294 0.22585 0.60409 0.0
H3478 H 0.24196 0.26976 0.69299 0.0
H3479 H 0.24246 0.26156 0.66077 0.0
H3480 H 0.28785 0.23622 0.64791 0.0
C3481 C 0.26727 0.19868 0.58847 0.0
C3482 C 0.24509 0.22836 0.61351 0.0
C3483 C 0.26637 0.18855 0.57186 0.0
C3484 C 0.24912 0.25993 0.68864 0.0
C3485 C 0.24937 0.25519 0.67015 0.0
C3486 C 0.2757 0.23404 0.63857 0.0
C3487 C 0.26068 0.21399 0.58994 0.0
C3488 C 0.26076 0.22381 0.6081 0.0
C3489 C 0.25885 0.24271 0.66391 0.0
C3490 C 0.25974 0.2376 0.64435 0.0
H3491 H 0.24726 0.21323 0.54543 0.0
H3492 H 0.2485 0.23097 0.57483 0.0
H3493 H 0.28855 0.22411 0.61704 0.0
H3494 H 0.27451 0.23314 0.70413 0.0
H3495 H 0.27467 0.22486 0.6725 0.0
C3496 C 0.59978 0.51661 0.19439 0.0
C3497 C 0.58899 0.51514 0.20846 0.0
C3498 C 0.59217 0.51663 0.17687 0.0
C3499 C 0.55274 0.52522 0.1503 0.0
H3500 H 0.56847 0.49845 0.11119 0.0
C3501 C 0.53461 0.53104 0.07475 0.0
C3502 C 0.52993 0.51519 0.06275 0.0
C3503 C 0.54115 0.53127 0.09277 0.0
C3504 C 0.56384 0.50596 0.12193 0.0
H3505 H 0.5616 0.51262 0.215 0.0
H3506 H 0.54829 0.51276 0.18435 0.0
H3507 H 0.58074 0.49799 0.1419 0.0
H3508 H 0.52838 0.48709 0.06061 0.0
H3509 H 0.53973 0.48756 0.09168 0.0
H3510 H 0.53581 0.53317 0.1302 0.0
C3511 C 0.56271 0.51392 0.18694 0.0
C3512 C 0.57101 0.50581 0.13958 0.0
C3513 C 0.57032 0.51371 0.2045 0.0
C3514 C 0.53182 0.4996 0.06934 0.0
C3515 C 0.53848 0.49986 0.08721 0.0
C3516 C 0.54569 0.52552 0.13258 0.0
C3517 C 0.57354 0.51535 0.17286 0.0
C3518 C 0.56557 0.51541 0.15405 0.0
C3519 C 0.54337 0.51569 0.09919 0.0
C3520 C 0.55108 0.51582 0.11814 0.0
H3521 H 0.61421 0.5178 0.1969 0.0
H3522 H 0.60099 0.51795 0.16647 0.0
H3523 H 0.54834 0.5329 0.16107 0.0
H3524 H 0.53336 0.5433 0.07021 0.0
H3525 H 0.54487 0.54373 0.10158 0.0
C3526 C 0.22309 0.83601 0.93503 0.0
C3527 C 0.22399 0.85327 0.93134 0.0
C3528 C 0.22104 0.82216 0.92115 0.0
C3529 C 0.21149 0.80918 0.8719 0.0
H3530 H 0.24931 0.78432 0.8794 0.0
C3531 C 0.26052 0.78006 0.82663 0.0
C3532 C 0.24845 0.76892 0.81274 0.0
C3533 C 0.25431 0.78595 0.84235 0.0
C3534 C 0.23852 0.79096 0.8772 0.0
H3535 H 0.22208 0.8693 0.91019 0.0
H3536 H 0.21881 0.84513 0.8859 0.0
H3537 H 0.24281 0.80343 0.90428 0.0
H3538 H 0.22056 0.75468 0.80449 0.0
H3539 H 0.20953 0.76537 0.83209 0.0
H3540 H 0.208 0.79735 0.84448 0.0
C3541 C 0.21952 0.84228 0.89954 0.0
C3542 C 0.23469 0.80181 0.89146 0.0
C3543 C 0.2215 0.85617 0.91346 0.0
C3544 C 0.23014 0.76316 0.8151 0.0
C3545 C 0.22383 0.76935 0.83078 0.0
C3546 C 0.21526 0.79818 0.85762 0.0
C3547 C 0.21992 0.82527 0.90328 0.0
C3548 C 0.22154 0.81149 0.88884 0.0
C3549 C 0.23585 0.78102 0.8444 0.0
C3550 C 0.22925 0.78948 0.86004 0.0
H3551 H 0.22467 0.83327 0.94868 0.0
H3552 H 0.22106 0.80913 0.92443 0.0
H3553 H 0.20118 0.81635 0.86954 0.0
H3554 H 0.27471 0.78467 0.82511 0.0
H3555 H 0.26383 0.79509 0.85255 0.0
C3556 C 0.90933 0.53602 0.71624 0.0
C3557 C 0.89151 0.52724 0.71788 0.0
C3558 C 0.9168 0.53278 0.70048 0.0
C3559 C 0.91305 0.49671 0.66488 0.0
H3560 H 0.94865 0.53096 0.64587 0.0
C3561 C 0.95273 0.47843 0.60688 0.0
C3562 C 0.97114 0.48717 0.6086 0.0
C3563 C 0.94159 0.48331 0.61914 0.0
C3564 C 0.93882 0.52124 0.65114 0.0
H3565 H 0.86702 0.50931 0.70387 0.0
H3566 H 0.88014 0.50366 0.67621 0.0
H3567 H 0.93055 0.54105 0.6679 0.0
H3568 H -0.00755 0.50746 0.62486 0.0
H3569 H 0.97315 0.51559 0.64654 0.0
H3570 H 0.92165 0.47687 0.64849 0.0
C3571 C 0.88835 0.51287 0.68723 0.0
C3572 C 0.9284 0.52702 0.66364 0.0
C3573 C 0.88082 0.5162 0.703 0.0
C3574 C 0.97837 0.50034 0.62326 0.0
C3575 C 0.96725 0.50521 0.63551 0.0
C3576 C 0.92348 0.49092 0.65237 0.0
C3577 C 0.9066 0.52067 0.68608 0.0
C3578 C 0.91567 0.5148 0.6709 0.0
C3579 C 0.94868 0.49703 0.63334 0.0
C3580 C 0.93674 0.50312 0.64568 0.0
H3581 H 0.91784 0.54467 0.72748 0.0
H3582 H 0.93093 0.53892 0.70004 0.0
H3583 H 0.90353 0.48696 0.67045 0.0
H3584 H 0.94684 0.46812 0.59578 0.0
H3585 H 0.92733 0.47677 0.61714 0.0
C3586 C 0.26719 0.17879 0.42819 0.0
C3587 C 0.26639 0.19002 0.44382 0.0
C3588 C 0.26855 0.18514 0.4117 0.0
C3589 C 0.28153 0.22632 0.39125 0.0
H3590 H 0.25301 0.19786 0.34858 0.0
C3591 C 0.27433 0.25472 0.32452 0.0
C3592 C 0.27266 0.24366 0.30813 0.0
C3593 C 0.27432 0.24793 0.3408 0.0
C3594 C 0.26132 0.20592 0.36026 0.0
H3595 H 0.26659 0.21692 0.45422 0.0
H3596 H 0.26907 0.22805 0.42551 0.0
H3597 H 0.25157 0.18676 0.37724 0.0
H3598 H 0.2699 0.21659 0.29631 0.0
H3599 H 0.27028 0.20477 0.32474 0.0
H3600 H 0.29141 0.24542 0.37434 0.0
C3601 C 0.26873 0.21428 0.42601 0.0
C3602 C 0.26045 0.19954 0.37679 0.0
C3603 C 0.26723 0.20788 0.44251 0.0
C3604 C 0.27121 0.22556 0.3086 0.0
C3605 C 0.27128 0.21875 0.32497 0.0
C3606 C 0.28249 0.23265 0.37472 0.0
C3607 C 0.26928 0.20298 0.41031 0.0
C3608 C 0.27045 0.20968 0.39258 0.0
C3609 C 0.27274 0.22982 0.34136 0.0
C3610 C 0.27229 0.22264 0.35893 0.0
H3611 H 0.26658 0.16496 0.42863 0.0
H3612 H 0.26918 0.17606 0.40003 0.0
H3613 H 0.28969 0.23441 0.403 0.0
H3614 H 0.27534 0.26871 0.32482 0.0
H3615 H 0.27513 0.25693 0.35295 0.0
C3616 C 0.30897 0.58861 0.53928 0.0
C3617 C 0.30592 0.60203 0.52957 0.0
C3618 C 0.32051 0.57819 0.53381 0.0
C3619 C 0.35643 0.57484 0.50534 0.0
H3620 H 0.33761 0.52457 0.50481 0.0
C3621 C 0.39327 0.52436 0.47568 0.0
C3622 C 0.39611 0.51203 0.48694 0.0
C3623 C 0.38095 0.53458 0.47918 0.0
C3624 C 0.34306 0.53857 0.50494 0.0
H3625 H 0.31347 0.61576 0.50716 0.0
H3626 H 0.3336 0.59746 0.49758 0.0
H3627 H 0.32007 0.54508 0.51548 0.0
H3628 H 0.38751 0.49984 0.50989 0.0
H3629 H 0.36605 0.51776 0.51608 0.0
H3630 H 0.3795 0.56831 0.49494 0.0
C3631 C 0.32706 0.59504 0.50943 0.0
C3632 C 0.33308 0.55032 0.51113 0.0
C3633 C 0.31552 0.60551 0.51493 0.0
C3634 C 0.38566 0.50937 0.50111 0.0
C3635 C 0.3733 0.51953 0.50456 0.0
C3636 C 0.36642 0.56308 0.49914 0.0
C3637 C 0.32922 0.58094 0.51851 0.0
C3638 C 0.33977 0.56858 0.5116 0.0
C3639 C 0.37121 0.53257 0.49393 0.0
C3640 C 0.3599 0.54485 0.49906 0.0
H3641 H 0.30193 0.5857 0.55074 0.0
H3642 H 0.32228 0.56768 0.54132 0.0
H3643 H 0.36196 0.58885 0.50566 0.0
H3644 H 0.40125 0.52677 0.46475 0.0
H3645 H 0.37941 0.54438 0.47063 0.0
C3646 C 0.83084 0.90061 0.5301 0.0
C3647 C 0.81871 0.90241 0.51573 0.0
C3648 C 0.84872 0.91098 0.53291 0.0
C3649 C 0.87669 0.95244 0.52114 0.0
H3650 H 0.91737 0.93238 0.53273 0.0
C3651 C 0.95715 0.96709 0.51318 0.0
C3652 C 0.96256 -0.01454 0.51846 0.0
C3653 C 0.94011 0.95746 0.51587 0.0
C3654 C 0.90615 0.93819 0.52948 0.0
H3655 H 0.81619 0.91608 0.49268 0.0
H3656 H 0.84702 0.93368 0.4974 0.0
H3657 H 0.88657 0.91433 0.53129 0.0
H3658 H 0.95431 0.00799 0.53124 0.0
H3659 H 0.92448 -0.0089 0.53606 0.0
H3660 H 0.89614 0.976 0.5185 0.0
C3661 C 0.84273 0.9247 0.50682 0.0
C3662 C 0.88849 0.92789 0.52885 0.0
C3663 C 0.82501 0.91444 0.50404 0.0
C3664 C 0.95057 -0.00611 0.5269 0.0
C3665 C 0.93344 -0.01579 0.5296 0.0
C3666 C 0.89431 0.96271 0.52173 0.0
C3667 C 0.85477 0.92333 0.52141 0.0
C3668 C 0.87354 0.93475 0.52422 0.0
C3669 C 0.92794 0.96587 0.52398 0.0
C3670 C 0.90928 0.95561 0.5255 0.0
H3671 H 0.82643 0.89149 0.53936 0.0
H3672 H 0.85767 0.9096 0.54429 0.0
H3673 H 0.86549 0.95827 0.51787 0.0
H3674 H 0.966 0.96006 0.5067 0.0
H3675 H 0.9363 0.94344 0.51109 0.0
C3676 C 0.86867 0.0491 0.25057 0.0
C3677 C 0.8877 0.05366 0.25271 0.0
C3678 C 0.85887 0.06214 0.25183 0.0
C3679 C 0.86324 0.10976 0.2683 0.0
H3680 H 0.81849 0.10236 0.23679 0.0
C3681 C 0.82389 0.16451 0.26223 0.0
C3682 C 0.80488 0.15938 0.26112 0.0
C3683 C 0.83424 0.15188 0.26136 0.0
C3684 C 0.83087 0.10459 0.24582 0.0
H3685 H 0.91133 0.07565 0.25793 0.0
H3686 H 0.89429 0.09841 0.25982 0.0
H3687 H 0.836 0.0801 0.23498 0.0
H3688 H 0.78203 0.13669 0.25868 0.0
H3689 H 0.79998 0.11481 0.25692 0.0
H3690 H 0.85811 0.13439 0.27899 0.0
C3691 C 0.88688 0.08471 0.25746 0.0
C3692 C 0.84093 0.09176 0.24482 0.0
C3693 C 0.89669 0.07164 0.25627 0.0
C3694 C 0.79657 0.14123 0.25919 0.0
C3695 C 0.8069 0.12862 0.25822 0.0
C3696 C 0.8532 0.12265 0.26924 0.0
C3697 C 0.8678 0.08017 0.25517 0.0
C3698 C 0.85723 0.09408 0.25611 0.0
C3699 C 0.82588 0.13375 0.25926 0.0
C3700 C 0.83682 0.1202 0.25808 0.0
H3701 H 0.86127 0.03539 0.24791 0.0
H3702 H 0.84424 0.05803 0.25032 0.0
H3703 H 0.87556 0.11198 0.27741 0.0
H3704 H 0.83083 0.17831 0.26346 0.0
H3705 H 0.8488 0.15633 0.262 0.0
C3706 C 0.69679 0.12019 0.01524 0.0
C3707 C 0.71054 0.11116 0.01348 0.0
C3708 C 0.67873 0.1108 0.01397 0.0
C3709 C 0.65137 0.06733 0.01945 0.0
H3710 H 0.61252 0.08118 -0.00736 0.0
C3711 C 0.57129 0.03782 -0.00883 0.0
C3712 C 0.56448 0.0324 0.00674 0.0
C3713 C 0.58916 0.04741 -0.00812 0.0
C3714 C 0.62327 0.07711 9e-05 0.0
H3715 H 0.71617 0.08531 0.00848 0.0
H3716 H 0.68477 0.06904 0.00617 0.0
H3717 H 0.64369 0.09831 -0.00626 0.0
H3718 H 0.57118 0.0325 0.03519 0.0
H3719 H 0.60239 0.04925 0.0364 0.0
H3720 H 0.63104 0.04602 0.02561 0.0
C3721 C 0.68792 0.08331 0.0088 0.0
C3722 C 0.64104 0.08701 0.00086 0.0
C3723 C 0.70589 0.09265 0.01003 0.0
C3724 C 0.57602 0.03645 0.02295 0.0
C3725 C 0.5939 0.046 0.02364 0.0
C3726 C 0.63362 0.05749 0.01872 0.0
C3727 C 0.67419 0.09226 0.01098 0.0
C3728 C 0.65526 0.08214 0.01047 0.0
C3729 C 0.60059 0.05171 0.00815 0.0
C3730 C 0.6194 0.06224 0.00898 0.0
H3731 H 0.7 0.13446 0.01788 0.0
H3732 H 0.66839 0.11802 0.01578 0.0
H3733 H 0.66206 0.0634 0.02712 0.0
H3734 H 0.56277 0.0349 0.97844 0.0
H3735 H 0.59405 0.05142 0.97968 0.0
C3736 C 0.20199 0.48007 0.24871 0.0
C3737 C 0.18402 0.47565 0.25257 0.0
C3738 C 0.21438 0.47083 0.25472 0.0
C3739 C 0.22326 0.44152 0.28712 0.0
H3740 H 0.24933 0.42318 0.2508 0.0
C3741 C 0.25493 0.38261 0.29402 0.0
C3742 C 0.27056 0.3818 0.28592 0.0
C3743 C 0.24657 0.39642 0.29209 0.0
C3744 C 0.24251 0.42848 0.26125 0.0
H3745 H 0.16509 0.45853 0.26628 0.0
H3746 H 0.18679 0.4424 0.27681 0.0
H3747 H 0.23061 0.44317 0.24361 0.0
H3748 H 0.29033 0.39523 0.27033 0.0
H3749 H 0.27598 0.41962 0.26725 0.0
H3750 H 0.23504 0.42671 0.30474 0.0
C3751 C 0.19128 0.45304 0.26918 0.0
C3752 C 0.23171 0.4399 0.25708 0.0
C3753 C 0.17883 0.4622 0.26305 0.0
C3754 C 0.27815 0.39545 0.27652 0.0
C3755 C 0.26989 0.40936 0.27472 0.0
C3756 C 0.23419 0.4302 0.29135 0.0
C3757 C 0.20909 0.45709 0.26483 0.0
C3758 C 0.22175 0.44629 0.26987 0.0
C3759 C 0.25375 0.40979 0.28212 0.0
C3760 C 0.24369 0.42329 0.27835 0.0
H3761 H 0.20641 0.49043 0.24071 0.0
H3762 H 0.22808 0.47431 0.25131 0.0
H3763 H 0.21587 0.44644 0.29728 0.0
H3764 H 0.24866 0.37214 0.30116 0.0
H3765 H 0.23402 0.39615 0.29774 0.0
C3766 C 0.22249 0.40359 0.01716 0.0
C3767 C 0.21778 0.38546 0.01843 0.0
C3768 C 0.20926 0.41317 0.0158 0.0
C3769 C 0.15988 0.40857 0.00457 0.0
H3770 H 0.17216 0.45709 0.02777 0.0
C3771 C 0.10856 0.45328 0.00701 0.0
C3772 C 0.11497 0.47061 0.00331 0.0
C3773 C 0.12037 0.44222 0.00921 0.0
C3774 C 0.16855 0.4436 0.02111 0.0
H3775 H 0.19535 0.36318 0.01923 0.0
H3776 H 0.17212 0.38004 0.01723 0.0
H3777 H 0.19373 0.43895 0.0314 0.0
H3778 H 0.13897 0.48954 -0.00144 0.0
H3779 H 0.1595 0.47045 0.00281 0.0
H3780 H 0.13454 0.41334 -0.00553 0.0
C3781 C 0.1861 0.38679 0.01701 0.0
C3782 C 0.18095 0.43317 0.02314 0.0
C3783 C 0.19942 0.37712 0.01825 0.0
C3784 C 0.13353 0.47648 0.0018 0.0
C3785 C 0.14533 0.46549 0.00417 0.0
C3786 C 0.14738 0.419 0.00267 0.0
C3787 C 0.19088 0.40499 0.01586 0.0
C3788 C 0.17696 0.41559 0.01465 0.0
C3789 C 0.13893 0.44824 0.00795 0.0
C3790 C 0.15169 0.43674 0.01069 0.0
H3791 H 0.23647 0.41045 0.01708 0.0
H3792 H 0.2135 0.42702 0.0145 0.0
H3793 H 0.15635 0.39517 -0.00231 0.0
H3794 H 0.09444 0.44832 0.00855 0.0
H3795 H 0.11503 0.42906 0.01228 0.0
C3796 C 0.87062 0.95106 0.24712 0.0
C3797 C 0.88722 0.95086 0.24056 0.0
C3798 C 0.85774 0.93526 0.24747 0.0
C3799 C 0.84448 0.88793 0.22774 0.0
H3800 H 0.8201 0.88152 0.26997 0.0
C3801 C 0.80716 0.8192 0.24137 0.0
C3802 C 0.79105 0.81743 0.24936 0.0
C3803 C 0.81757 0.83584 0.23952 0.0
C3804 C 0.82656 0.88315 0.25795 0.0
H3805 H 0.90309 0.93377 0.22904 0.0
H3806 H 0.88077 0.9064 0.2297 0.0
H3807 H 0.84056 0.90986 0.2681 0.0
H3808 H 0.77324 0.83196 0.26147 0.0
H3809 H 0.79137 0.86105 0.25808 0.0
H3810 H 0.83064 0.86123 0.21762 0.0
C3811 C 0.87759 0.91875 0.23443 0.0
C3812 C 0.83832 0.89943 0.25688 0.0
C3813 C 0.89047 0.93449 0.23416 0.0
C3814 C 0.78555 0.8328 0.25527 0.0
C3815 C 0.79602 0.8495 0.25343 0.0
C3816 C 0.83272 0.87169 0.22878 0.0
C3817 C 0.86107 0.91889 0.24117 0.0
C3818 C 0.84764 0.90196 0.24186 0.0
C3819 C 0.81222 0.85125 0.24558 0.0
C3820 C 0.82378 0.86898 0.24401 0.0
H3821 H 0.86763 0.9634 0.25217 0.0
H3822 H 0.8451 0.93589 0.25259 0.0
H3823 H 0.85112 0.88948 0.21581 0.0
H3824 H 0.81191 0.80771 0.23671 0.0
H3825 H 0.83008 0.83661 0.23368 0.0
C3826 C 0.65807 0.07396 0.70769 0.0
C3827 C 0.66257 0.06264 0.7194 0.0
C3828 C 0.66783 0.09155 0.70967 0.0
C3829 C 0.70971 0.12319 0.73383 0.0
H3830 H 0.68192 0.15763 0.72548 0.0
C3831 C 0.7344 0.19814 0.75959 0.0
C3832 C 0.73398 0.20894 0.74613 0.0
C3833 C 0.72609 0.18012 0.75591 0.0
C3834 C 0.68982 0.14811 0.7278 0.0
H3835 H 0.68109 0.06072 0.74211 0.0
H3836 H 0.69758 0.0914 0.74603 0.0
H3837 H 0.66713 0.12631 0.71921 0.0
H3838 H 0.72422 0.20954 0.7185 0.0
H3839 H 0.70925 0.17816 0.7123 0.0
H3840 H 0.7322 0.14527 0.74315 0.0
C3841 C 0.68691 0.08672 0.73496 0.0
C3842 C 0.68143 0.13015 0.72405 0.0
C3843 C 0.67737 0.06908 0.73276 0.0
C3844 C 0.72482 0.2015 0.72909 0.0
C3845 C 0.71621 0.1836 0.72555 0.0
C3846 C 0.71799 0.14117 0.7379 0.0
C3847 C 0.68208 0.09829 0.72364 0.0
C3848 C 0.69126 0.11742 0.72699 0.0
C3849 C 0.71691 0.17275 0.73887 0.0
C3850 C 0.70811 0.15375 0.73489 0.0
H3851 H 0.64681 0.06932 0.69717 0.0
H3852 H 0.664 0.09991 0.7004 0.0
H3853 H 0.71783 0.11383 0.73597 0.0
H3854 H 0.74143 0.20355 0.77281 0.0
H3855 H 0.72669 0.17196 0.7664 0.0
loop_
_geom_bond_atom_site_label_1
_geom_bond_atom_site_label_2
_geom_bond_distance
_geom_bond_site_symmetry_2
_ccdc_geom_bond_type
C0 O1 1.306 1_655 S
C0 O3 1.160 1_655 S
O1 C0 1.306 1_455 S
O1 Cd2 2.228 . S
Cd2 O1 2.228 . S
Cd2 O6 2.273 . S
Cd2 O10 2.277 . S
O3 C0 1.160 1_455 S
O3 Cd4 2.203 . S
Cd4 O3 2.203 . S
Cd4 O6 2.411 . S
Cd4 O7 2.333 . S
Cd4 O8 2.352 . S
Cd4 O12 2.277 . S
Cd4 O13 2.356 . S
C5 O10 1.209 . S
C5 O12 1.226 . S
O6 Cd2 2.273 . S
O6 Cd4 2.411 . S
O6 C9 1.320 . S
O7 Cd4 2.333 . S
O7 C9 1.214 . S
O8 Cd4 2.352 . S
O8 C11 1.258 . S
C9 O6 1.320 . S
C9 O7 1.214 . S
O10 Cd2 2.277 . S
O10 C5 1.209 . S
C11 O8 1.258 . S
C11 O13 1.282 . S
O12 Cd4 2.277 . S
O12 C5 1.226 . S
O13 Cd4 2.356 . S
O13 C11 1.282 . S
C14 O15 1.328 . S
C14 O17 1.160 . S
O15 C14 1.328 . S
O15 Cd16 2.196 1_655 S
Cd16 O15 2.196 1_455 S
Cd16 O20 2.273 . S
Cd16 O24 2.277 . S
O17 C14 1.160 . S
O17 Cd18 2.203 1_655 S
Cd18 O17 2.203 1_455 S
Cd18 O20 2.411 . S
Cd18 O21 2.333 . S
Cd18 O22 2.352 . S
Cd18 O26 2.277 . S
Cd18 O27 2.356 . S
C19 O24 1.209 . S
C19 O26 1.226 . S
O20 Cd16 2.273 . S
O20 Cd18 2.411 . S
O20 C23 1.320 . S
O21 Cd18 2.333 . S
O21 C23 1.214 . S
O22 Cd18 2.352 . S
O22 C25 1.258 . S
C23 O20 1.320 . S
C23 O21 1.214 . S
O24 Cd16 2.277 . S
O24 C19 1.209 . S
C25 O22 1.258 . S
C25 O27 1.282 . S
O26 Cd18 2.277 . S
O26 C19 1.226 . S
O27 Cd18 2.356 . S
O27 C25 1.282 . S
C28 O29 1.306 . S
C28 O31 1.160 . S
O29 C28 1.306 . S
O29 Cd30 2.228 . S
Cd30 O29 2.228 . S
Cd30 O34 2.273 . S
Cd30 O38 2.277 . S
O31 C28 1.160 . S
O31 Cd32 2.203 . S
Cd32 O31 2.203 . S
Cd32 O34 2.411 . S
Cd32 O35 2.333 . S
Cd32 O36 2.352 . S
Cd32 O40 2.277 . S
Cd32 O41 2.356 . S
C33 O38 1.209 . S
C33 O40 1.226 . S
O34 Cd30 2.273 . S
O34 Cd32 2.411 . S
O34 C37 1.320 . S
O35 Cd32 2.333 . S
O35 C37 1.214 . S
O36 Cd32 2.352 . S
O36 C39 1.258 . S
C37 O34 1.320 . S
C37 O35 1.214 . S
O38 Cd30 2.277 . S
O38 C33 1.209 . S
C39 O36 1.258 . S
C39 O41 1.282 . S
O40 Cd32 2.277 . S
O40 C33 1.226 . S
O41 Cd32 2.356 . S
O41 C39 1.282 . S
C42 O43 1.306 . S
C42 O45 1.160 . S
O43 C42 1.306 . S
O43 Cd44 2.228 . S
Cd44 O43 2.228 . S
Cd44 O48 2.273 . S
Cd44 O52 2.277 . S
O45 C42 1.160 . S
O45 Cd46 2.203 . S
Cd46 O45 2.203 . S
Cd46 O48 2.411 . S
Cd46 O49 2.333 . S
Cd46 O50 2.352 . S
Cd46 O54 2.277 . S
Cd46 O55 2.356 . S
C47 O52 1.209 . S
C47 O54 1.226 . S
O48 Cd44 2.273 . S
O48 Cd46 2.411 . S
O48 C51 1.320 . S
O49 Cd46 2.333 . S
O49 C51 1.214 . S
O50 Cd46 2.352 . S
O50 C53 1.258 . S
C51 O48 1.320 . S
C51 O49 1.214 . S
O52 Cd44 2.277 . S
O52 C47 1.209 . S
C53 O50 1.258 . S
C53 O55 1.282 . S
O54 Cd46 2.277 . S
O54 C47 1.226 . S
O55 Cd46 2.356 . S
O55 C53 1.282 . S
C56 O57 1.306 . S
C56 O59 1.160 . S
O57 C56 1.306 . S
O57 Cd58 2.228 . S
Cd58 O57 2.228 . S
Cd58 O62 2.273 . S
Cd58 O66 2.277 . S
O59 C56 1.160 . S
O59 Cd60 2.203 . S
Cd60 O59 2.203 . S
Cd60 O62 2.411 . S
Cd60 O63 2.333 . S
Cd60 O64 2.352 . S
Cd60 O68 2.277 . S
Cd60 O69 2.356 . S
C61 O66 1.209 . S
C61 O68 1.226 . S
O62 Cd58 2.273 . S
O62 Cd60 2.411 . S
O62 C65 1.320 . S
O63 Cd60 2.333 . S
O63 C65 1.214 . S
O64 Cd60 2.352 . S
O64 C67 1.258 . S
C65 O62 1.320 . S
C65 O63 1.214 . S
O66 Cd58 2.277 . S
O66 C61 1.209 . S
C67 O64 1.258 . S
C67 O69 1.282 . S
O68 Cd60 2.277 . S
O68 C61 1.226 . S
O69 Cd60 2.356 . S
O69 C67 1.282 . S
C70 O71 1.306 . S
C70 O73 1.160 . S
O71 C70 1.306 . S
O71 Cd72 2.228 . S
Cd72 O71 2.228 . S
Cd72 O76 2.273 . S
Cd72 O80 2.277 . S
O73 C70 1.160 . S
O73 Cd74 2.203 . S
Cd74 O73 2.203 . S
Cd74 O76 2.411 . S
Cd74 O77 2.333 . S
Cd74 O78 2.352 . S
Cd74 O82 2.277 . S
Cd74 O83 2.356 . S
C75 O80 1.209 . S
C75 O82 1.226 . S
O76 Cd72 2.273 . S
O76 Cd74 2.411 . S
O76 C79 1.320 . S
O77 Cd74 2.333 . S
O77 C79 1.214 . S
O78 Cd74 2.352 . S
O78 C81 1.258 . S
C79 O76 1.320 . S
C79 O77 1.214 . S
O80 Cd72 2.277 . S
O80 C75 1.209 . S
C81 O78 1.258 . S
C81 O83 1.282 . S
O82 Cd74 2.277 . S
O82 C75 1.226 . S
O83 Cd74 2.356 . S
O83 C81 1.282 . S
C84 O85 1.306 . S
C84 O87 1.160 . S
O85 C84 1.306 . S
O85 Cd86 2.228 . S
Cd86 O85 2.228 . S
Cd86 O90 2.273 . S
Cd86 O94 2.277 . S
O87 C84 1.160 . S
O87 Cd88 2.203 . S
Cd88 O87 2.203 . S
Cd88 O90 2.411 . S
Cd88 O91 2.333 . S
Cd88 O92 2.352 . S
Cd88 O96 2.277 . S
Cd88 O97 2.356 . S
C89 O94 1.209 . S
C89 O96 1.226 . S
O90 Cd86 2.273 . S
O90 Cd88 2.411 . S
O90 C93 1.320 . S
O91 Cd88 2.333 . S
O91 C93 1.214 . S
O92 Cd88 2.352 . S
O92 C95 1.258 . S
C93 O90 1.320 . S
C93 O91 1.214 . S
O94 Cd86 2.277 . S
O94 C89 1.209 . S
C95 O92 1.258 . S
C95 O97 1.282 . S
O96 Cd88 2.277 . S
O96 C89 1.226 . S
O97 Cd88 2.356 . S
O97 C95 1.282 . S
C98 O99 1.306 . S
C98 O101 1.160 . S
O99 C98 1.306 . S
O99 Cd100 2.228 1_655 S
Cd100 O99 2.228 1_455 S
Cd100 O104 2.273 . S
Cd100 O108 2.277 . S
O101 C98 1.160 . S
O101 Cd102 2.203 1_655 S
Cd102 O101 2.203 1_455 S
Cd102 O104 2.411 . S
Cd102 O105 2.333 . S
Cd102 O106 2.352 1_455 S
Cd102 O110 2.277 . S
Cd102 O111 2.356 . S
C103 O108 1.209 . S
C103 O110 1.226 . S
O104 Cd100 2.273 . S
O104 Cd102 2.411 . S
O104 C107 1.320 . S
O105 Cd102 2.333 . S
O105 C107 1.214 . S
O106 Cd102 2.352 1_655 S
O106 C109 1.258 . S
C107 O104 1.320 . S
C107 O105 1.214 . S
O108 Cd100 2.277 . S
O108 C103 1.209 . S
C109 O106 1.258 . S
C109 O111 1.282 1_655 S
O110 Cd102 2.277 . S
O110 C103 1.226 . S
O111 Cd102 2.356 . S
O111 C109 1.282 1_455 S
C112 O113 1.306 1_545 S
C112 O115 1.160 . S
O113 C112 1.306 1_565 S
O113 Cd114 2.228 . S
Cd114 O113 2.228 . S
Cd114 O118 2.273 1_565 S
Cd114 O122 2.277 . S
O115 C112 1.160 . S
O115 Cd116 2.203 . S
Cd116 O115 2.203 . S
Cd116 O118 2.411 . S
Cd116 O119 2.333 . S
Cd116 O120 2.352 . S
Cd116 O124 2.277 1_545 S
Cd116 O125 2.356 . S
C117 O122 1.209 . S
C117 O124 1.226 . S
O118 Cd114 2.273 1_545 S
O118 Cd116 2.411 . S
O118 C121 1.320 . S
O119 Cd116 2.333 . S
O119 C121 1.214 . S
O120 Cd116 2.352 . S
O120 C123 1.258 . S
C121 O118 1.320 . S
C121 O119 1.214 . S
O122 Cd114 2.277 . S
O122 C117 1.209 . S
C123 O120 1.258 . S
C123 O125 1.282 . S
O124 Cd116 2.277 1_565 S
O124 C117 1.226 . S
O125 Cd116 2.356 . S
O125 C123 1.282 . S
C126 O127 1.306 . S
C126 O129 1.160 . S
O127 C126 1.306 . S
O127 Cd128 2.228 . S
Cd128 O127 2.228 . S
Cd128 O132 2.273 . S
Cd128 O136 2.277 . S
O129 C126 1.160 . S
O129 Cd130 2.203 . S
Cd130 O129 2.203 . S
Cd130 O132 2.411 . S
Cd130 O133 2.333 . S
Cd130 O134 2.352 . S
Cd130 O138 2.277 . S
Cd130 O139 2.356 . S
C131 O136 1.209 . S
C131 O138 1.226 . S
O132 Cd128 2.273 . S
O132 Cd130 2.411 . S
O132 C135 1.320 . S
O133 Cd130 2.333 . S
O133 C135 1.214 . S
O134 Cd130 2.352 . S
O134 C137 1.258 . S
C135 O132 1.320 . S
C135 O133 1.214 . S
O136 Cd128 2.277 . S
O136 C131 1.209 . S
C137 O134 1.258 . S
C137 O139 1.282 . S
O138 Cd130 2.277 . S
O138 C131 1.226 . S
O139 Cd130 2.356 . S
O139 C137 1.282 . S
C140 O141 1.306 . S
C140 O143 1.160 . S
O141 C140 1.306 . S
O141 Cd142 2.228 . S
Cd142 O141 2.228 . S
Cd142 O146 2.273 . S
Cd142 O150 2.277 . S
O143 C140 1.160 . S
O143 Cd144 2.203 . S
Cd144 O143 2.203 . S
Cd144 O146 2.411 . S
Cd144 O147 2.333 . S
Cd144 O148 2.359 1_545 S
Cd144 O152 2.277 . S
Cd144 O153 2.356 . S
C145 O150 1.209 . S
C145 O152 1.226 . S
O146 Cd142 2.273 . S
O146 Cd144 2.411 . S
O146 C149 1.320 . S
O147 Cd144 2.333 . S
O147 C149 1.214 . S
O148 Cd144 2.359 1_565 S
O148 C151 1.270 1_565 S
C149 O146 1.320 . S
C149 O147 1.214 . S
O150 Cd142 2.277 . S
O150 C145 1.209 . S
C151 O148 1.270 1_545 S
C151 O153 1.322 . S
O152 Cd144 2.277 . S
O152 C145 1.226 . S
O153 Cd144 2.356 . S
O153 C151 1.322 . S
C154 O155 1.292 1_554 S
C154 O157 1.172 . S
O155 C154 1.292 1_556 S
O155 Cd156 2.228 . S
Cd156 O155 2.228 . S
Cd156 O160 2.267 . S
Cd156 O164 2.277 . S
O157 C154 1.172 . S
O157 Cd158 2.203 . S
Cd158 O157 2.203 . S
Cd158 O160 2.412 1_554 S
Cd158 O161 2.331 . S
Cd158 O162 2.352 . S
Cd158 O166 2.277 1_554 S
Cd158 O167 2.356 . S
C159 O164 1.209 . S
C159 O166 1.226 . S
O160 Cd156 2.267 . S
O160 Cd158 2.412 1_556 S
O160 C163 1.322 . S
O161 Cd158 2.331 . S
O161 C163 1.204 1_554 S
O162 Cd158 2.352 . S
O162 C165 1.258 . S
C163 O160 1.322 . S
C163 O161 1.204 1_556 S
O164 Cd156 2.277 . S
O164 C159 1.209 . S
C165 O162 1.258 . S
C165 O167 1.282 . S
O166 Cd158 2.277 1_556 S
O166 C159 1.226 . S
O167 Cd158 2.356 . S
O167 C165 1.282 . S
C168 O169 1.306 . S
C168 O171 1.160 . S
O169 C168 1.306 . S
O169 Cd170 2.228 . S
Cd170 O169 2.228 . S
Cd170 O174 2.273 . S
Cd170 O178 2.277 1_554 S
O171 C168 1.160 . S
O171 Cd172 2.203 . S
Cd172 O171 2.203 . S
Cd172 O174 2.411 . S
Cd172 O175 2.333 . S
Cd172 O176 2.352 . S
Cd172 O180 2.277 . S
Cd172 O181 2.356 . S
C173 O178 1.209 . S
C173 O180 1.226 1_556 S
O174 Cd170 2.273 . S
O174 Cd172 2.411 . S
O174 C177 1.320 . S
O175 Cd172 2.333 . S
O175 C177 1.214 . S
O176 Cd172 2.352 . S
O176 C179 1.258 . S
C177 O174 1.320 . S
C177 O175 1.214 . S
O178 Cd170 2.277 1_556 S
O178 C173 1.209 . S
C179 O176 1.258 . S
C179 O181 1.282 . S
O180 Cd172 2.277 . S
O180 C173 1.226 1_554 S
O181 Cd172 2.356 . S
O181 C179 1.282 . S
C182 O183 1.306 . S
C182 O185 1.160 . S
O183 C182 1.306 . S
O183 Cd184 2.228 . S
Cd184 O183 2.228 . S
Cd184 O188 2.273 . S
Cd184 O192 2.277 . S
O185 C182 1.160 . S
O185 Cd186 2.203 . S
Cd186 O185 2.203 . S
Cd186 O188 2.411 . S
Cd186 O189 2.333 . S
Cd186 O190 2.352 . S
Cd186 O194 2.277 . S
Cd186 O195 2.356 . S
C187 O192 1.209 . S
C187 O194 1.226 . S
O188 Cd184 2.273 . S
O188 Cd186 2.411 . S
O188 C191 1.320 . S
O189 Cd186 2.333 . S
O189 C191 1.214 . S
O190 Cd186 2.352 . S
O190 C193 1.258 . S
C191 O188 1.320 . S
C191 O189 1.214 . S
O192 Cd184 2.277 . S
O192 C187 1.209 . S
C193 O190 1.258 . S
C193 O195 1.282 . S
O194 Cd186 2.277 . S
O194 C187 1.226 . S
O195 Cd186 2.356 . S
O195 C193 1.282 . S
C196 O197 1.306 . S
C196 O199 1.160 . S
O197 C196 1.306 . S
O197 Cd198 2.228 . S
Cd198 O197 2.228 . S
Cd198 O202 2.273 . S
Cd198 O206 2.277 . S
O199 C196 1.160 . S
O199 Cd200 2.203 . S
Cd200 O199 2.203 . S
Cd200 O202 2.411 . S
Cd200 O203 2.333 . S
Cd200 O204 2.352 . S
Cd200 O208 2.277 . S
Cd200 O209 2.356 . S
C201 O206 1.209 . S
C201 O208 1.226 . S
O202 Cd198 2.273 . S
O202 Cd200 2.411 . S
O202 C205 1.320 . S
O203 Cd200 2.333 . S
O203 C205 1.214 . S
O204 Cd200 2.352 . S
O204 C207 1.258 . S
C205 O202 1.320 . S
C205 O203 1.214 . S
O206 Cd198 2.277 . S
O206 C201 1.209 . S
C207 O204 1.258 . S
C207 O209 1.282 . S
O208 Cd200 2.277 . S
O208 C201 1.226 . S
O209 Cd200 2.356 . S
O209 C207 1.282 . S
C210 O211 1.306 . S
C210 O213 1.160 . S
O211 C210 1.306 . S
O211 Cd212 2.228 . S
Cd212 O211 2.228 . S
Cd212 O216 2.273 . S
Cd212 O220 2.277 . S
O213 C210 1.160 . S
O213 Cd214 2.203 . S
Cd214 O213 2.203 . S
Cd214 O216 2.411 . S
Cd214 O217 2.333 . S
Cd214 O218 2.352 . S
Cd214 O222 2.277 . S
Cd214 O223 2.356 . S
C215 O220 1.209 . S
C215 O222 1.226 . S
O216 Cd212 2.273 . S
O216 Cd214 2.411 . S
O216 C219 1.320 . S
O217 Cd214 2.333 . S
O217 C219 1.214 . S
O218 Cd214 2.352 . S
O218 C221 1.258 . S
C219 O216 1.320 . S
C219 O217 1.214 . S
O220 Cd212 2.277 . S
O220 C215 1.209 . S
C221 O218 1.258 . S
C221 O223 1.282 . S
O222 Cd214 2.277 . S
O222 C215 1.226 . S
O223 Cd214 2.356 . S
O223 C221 1.282 . S
C224 O225 1.306 . S
C224 O227 1.160 . S
O225 C224 1.306 . S
O225 Cd226 2.228 . S
Cd226 O225 2.228 . S
Cd226 O230 2.273 . S
Cd226 O234 2.277 1_545 S
O227 C224 1.160 . S
O227 Cd228 2.203 . S
Cd228 O227 2.203 . S
Cd228 O230 2.411 . S
Cd228 O231 2.333 . S
Cd228 O232 2.352 . S
Cd228 O236 2.277 . S
Cd228 O237 2.356 . S
C229 O234 1.209 . S
C229 O236 1.226 1_565 S
O230 Cd226 2.273 . S
O230 Cd228 2.411 . S
O230 C233 1.320 . S
O231 Cd228 2.333 . S
O231 C233 1.214 . S
O232 Cd228 2.352 . S
O232 C235 1.258 . S
C233 O230 1.320 . S
C233 O231 1.214 . S
O234 Cd226 2.277 1_565 S
O234 C229 1.209 . S
C235 O232 1.258 . S
C235 O237 1.282 . S
O236 Cd228 2.277 . S
O236 C229 1.226 1_545 S
O237 Cd228 2.356 . S
O237 C235 1.282 . S
C238 O239 1.306 . S
C238 O241 1.160 . S
O239 C238 1.306 . S
O239 Cd240 2.228 . S
Cd240 O239 2.228 . S
Cd240 O244 2.273 . S
Cd240 O248 2.277 . S
O241 C238 1.160 . S
O241 Cd242 2.203 . S
Cd242 O241 2.203 . S
Cd242 O244 2.411 . S
Cd242 O245 2.333 . S
Cd242 O246 2.352 . S
Cd242 O250 2.277 . S
Cd242 O251 2.356 . S
C243 O248 1.209 . S
C243 O250 1.226 . S
O244 Cd240 2.273 . S
O244 Cd242 2.411 . S
O244 C247 1.320 . S
O245 Cd242 2.333 . S
O245 C247 1.214 . S
O246 Cd242 2.352 . S
O246 C249 1.258 . S
C247 O244 1.320 . S
C247 O245 1.214 . S
O248 Cd240 2.277 . S
O248 C243 1.209 . S
C249 O246 1.258 . S
C249 O251 1.282 . S
O250 Cd242 2.277 . S
O250 C243 1.226 . S
O251 Cd242 2.356 . S
O251 C249 1.282 . S
C252 O253 1.306 . S
C252 O255 1.160 . S
O253 C252 1.306 . S
O253 Cd254 2.228 . S
Cd254 O253 2.228 . S
Cd254 O258 2.273 . S
Cd254 O262 2.277 . S
O255 C252 1.160 . S
O255 Cd256 2.203 . S
Cd256 O255 2.203 . S
Cd256 O258 2.411 . S
Cd256 O259 2.333 . S
Cd256 O260 2.352 . S
Cd256 O264 2.277 . S
Cd256 O265 2.356 . S
C257 O262 1.209 . S
C257 O264 1.226 . S
O258 Cd254 2.273 . S
O258 Cd256 2.411 . S
O258 C261 1.320 . S
O259 Cd256 2.333 . S
O259 C261 1.214 . S
O260 Cd256 2.352 . S
O260 C263 1.258 . S
C261 O258 1.320 . S
C261 O259 1.214 . S
O262 Cd254 2.277 . S
O262 C257 1.209 . S
C263 O260 1.258 . S
C263 O265 1.282 . S
O264 Cd256 2.277 . S
O264 C257 1.226 . S
O265 Cd256 2.356 . S
O265 C263 1.282 . S
C266 O267 1.306 . S
C266 O269 1.160 . S
O267 C266 1.306 . S
O267 Cd268 2.228 . S
Cd268 O267 2.228 . S
Cd268 O272 2.273 . S
Cd268 O276 2.277 . S
O269 C266 1.160 . S
O269 Cd270 2.203 . S
Cd270 O269 2.203 . S
Cd270 O272 2.411 . S
Cd270 O273 2.333 . S
Cd270 O274 2.352 . S
Cd270 O278 2.277 . S
Cd270 O279 2.356 . S
C271 O276 1.209 . S
C271 O278 1.226 . S
O272 Cd268 2.273 . S
O272 Cd270 2.411 . S
O272 C275 1.320 . S
O273 Cd270 2.333 . S
O273 C275 1.214 . S
O274 Cd270 2.352 . S
O274 C277 1.258 . S
C275 O272 1.320 . S
C275 O273 1.214 . S
O276 Cd268 2.277 . S
O276 C271 1.209 . S
C277 O274 1.258 . S
C277 O279 1.282 . S
O278 Cd270 2.277 . S
O278 C271 1.226 . S
O279 Cd270 2.356 . S
O279 C277 1.282 . S
C280 O281 1.306 . S
C280 O283 1.160 . S
O281 C280 1.306 . S
O281 Cd282 2.228 . S
Cd282 O281 2.228 . S
Cd282 O286 2.273 . S
Cd282 O290 2.277 . S
O283 C280 1.160 . S
O283 Cd284 2.203 . S
Cd284 O283 2.203 . S
Cd284 O286 2.411 . S
Cd284 O287 2.333 . S
Cd284 O288 2.352 1_554 S
Cd284 O292 2.277 . S
Cd284 O293 2.356 1_554 S
C285 O290 1.209 . S
C285 O292 1.226 . S
O286 Cd282 2.273 . S
O286 Cd284 2.411 . S
O286 C289 1.320 . S
O287 Cd284 2.333 . S
O287 C289 1.214 . S
O288 Cd284 2.352 1_556 S
O288 C291 1.258 . S
C289 O286 1.320 . S
C289 O287 1.214 . S
O290 Cd282 2.277 . S
O290 C285 1.209 . S
C291 O288 1.258 . S
C291 O293 1.282 . S
O292 Cd284 2.277 . S
O292 C285 1.226 . S
O293 Cd284 2.356 1_556 S
O293 C291 1.282 . S
C294 O295 1.306 . S
C294 O297 1.160 . S
O295 C294 1.306 . S
O295 Cd296 2.228 . S
Cd296 O295 2.228 . S
Cd296 O300 2.273 . S
Cd296 O304 2.277 . S
O297 C294 1.160 . S
O297 Cd298 2.203 . S
Cd298 O297 2.203 . S
Cd298 O300 2.411 . S
Cd298 O301 2.333 . S
Cd298 O302 2.352 . S
Cd298 O306 2.277 . S
Cd298 O307 2.356 . S
C299 O304 1.209 . S
C299 O306 1.226 . S
O300 Cd296 2.273 . S
O300 Cd298 2.411 . S
O300 C303 1.320 . S
O301 Cd298 2.333 . S
O301 C303 1.214 . S
O302 Cd298 2.352 . S
O302 C305 1.258 . S
C303 O300 1.320 . S
C303 O301 1.214 . S
O304 Cd296 2.277 . S
O304 C299 1.209 . S
C305 O302 1.258 . S
C305 O307 1.282 . S
O306 Cd298 2.277 . S
O306 C299 1.226 . S
O307 Cd298 2.356 . S
O307 C305 1.282 . S
C308 O309 1.306 . S
C308 O311 1.160 . S
O309 C308 1.306 . S
O309 Cd310 2.228 . S
Cd310 O309 2.228 . S
Cd310 O314 2.273 . S
Cd310 O318 2.277 . S
O311 C308 1.160 . S
O311 Cd312 2.203 . S
Cd312 O311 2.203 . S
Cd312 O314 2.411 . S
Cd312 O315 2.333 . S
Cd312 O316 2.352 . S
Cd312 O320 2.277 . S
Cd312 O321 2.356 . S
C313 O318 1.209 . S
C313 O320 1.226 . S
O314 Cd310 2.273 . S
O314 Cd312 2.411 . S
O314 C317 1.320 . S
O315 Cd312 2.333 . S
O315 C317 1.214 . S
O316 Cd312 2.352 . S
O316 C319 1.258 . S
C317 O314 1.320 . S
C317 O315 1.214 . S
O318 Cd310 2.277 . S
O318 C313 1.209 . S
C319 O316 1.258 . S
C319 O321 1.282 . S
O320 Cd312 2.277 . S
O320 C313 1.226 . S
O321 Cd312 2.356 . S
O321 C319 1.282 . S
C322 O323 1.306 . S
C322 O325 1.160 . S
O323 C322 1.306 . S
O323 Cd324 2.228 . S
Cd324 O323 2.228 . S
Cd324 O328 2.273 . S
Cd324 O332 2.277 . S
O325 C322 1.160 . S
O325 Cd326 2.203 . S
Cd326 O325 2.203 . S
Cd326 O328 2.411 . S
Cd326 O329 2.333 . S
Cd326 O330 2.352 . S
Cd326 O334 2.277 . S
Cd326 O335 2.356 . S
C327 O332 1.209 . S
C327 O334 1.226 . S
O328 Cd324 2.273 . S
O328 Cd326 2.411 . S
O328 C331 1.320 . S
O329 Cd326 2.333 . S
O329 C331 1.214 . S
O330 Cd326 2.352 . S
O330 C333 1.258 . S
C331 O328 1.320 . S
C331 O329 1.214 . S
O332 Cd324 2.277 . S
O332 C327 1.209 . S
C333 O330 1.258 . S
C333 O335 1.282 . S
O334 Cd326 2.277 . S
O334 C327 1.226 . S
O335 Cd326 2.356 . S
O335 C333 1.282 . S
Dy336 O339 2.307 . S
Dy336 O341 2.395 . S
Dy336 O342 2.379 . S
Dy336 O344 2.339 . S
Dy336 O346 2.298 . S
Dy336 O350 2.275 . S
Dy336 C358 2.738 . S
Dy337 O340 2.303 . S
Dy337 O343 2.287 . S
Dy337 O345 2.295 1_545 S
Dy337 O347 2.371 1_455 S
Dy337 O348 2.357 1_454 S
Dy337 O351 2.352 1_554 S
Dy337 C367 2.712 1_455 S
C338 O350 1.254 1_556 S
C338 O351 1.257 . S
O339 Dy336 2.307 . S
O339 C349 1.266 . S
O340 Dy337 2.303 . S
O340 C349 1.236 . S
O341 Dy336 2.395 . S
O341 C358 1.255 . S
O342 Dy336 2.379 . S
O342 C358 1.249 . S
O343 Dy337 2.287 . S
O343 C359 1.254 . S
O344 Dy336 2.339 . S
O344 C359 1.257 . S
O345 Dy337 2.295 1_565 S
O345 C360 1.281 . S
O346 Dy336 2.298 . S
O346 C360 1.236 1_545 S
O347 Dy337 2.371 1_655 S
O347 C367 1.255 . S
O348 Dy337 2.357 1_656 S
O348 C367 1.249 1_556 S
C349 O339 1.266 . S
C349 O340 1.236 . S
O350 Dy336 2.275 . S
O350 C338 1.254 1_554 S
O351 Dy337 2.352 1_556 S
O351 C338 1.257 . S
C352 C355 1.344 . S
C352 C356 1.328 . S
C352 C358 1.516 . S
C353 C354 1.305 1_545 S
C353 C357 1.323 . S
C354 C353 1.305 1_565 S
C354 C355 1.366 1_565 S
C354 H368 0.935 . S
C355 C352 1.344 . S
C355 C354 1.366 1_545 S
C355 H369 0.931 . S
C356 C352 1.328 . S
C356 C357 1.433 . S
C356 H370 0.931 . S
C357 C353 1.323 . S
C357 C356 1.433 . S
C357 H371 0.933 . S
C358 Dy336 2.738 . S
C358 O341 1.255 . S
C358 O342 1.249 . S
C358 C352 1.516 . S
C359 O343 1.254 . S
C359 O344 1.257 . S
C360 O345 1.281 . S
C360 O346 1.236 1_565 S
C361 C364 1.344 . S
C361 C365 1.328 1_554 S
C361 C367 1.516 . S
C362 C363 1.304 . S
C362 C366 1.323 1_554 S
C363 C362 1.304 . S
C363 C364 1.371 . S
C363 H372 0.930 . S
C364 C361 1.344 . S
C364 C363 1.371 . S
C364 H373 0.931 . S
C365 C361 1.328 1_556 S
C365 C366 1.433 . S
C365 H374 0.931 . S
C366 C362 1.323 1_556 S
C366 C365 1.433 . S
C366 H375 0.933 . S
C367 Dy337 2.712 1_655 S
C367 O347 1.255 . S
C367 O348 1.249 1_554 S
C367 C361 1.516 . S
H368 C354 0.935 . S
H369 C355 0.931 . S
H370 C356 0.931 . S
H371 C357 0.933 . S
H372 C363 0.930 . S
H373 C364 0.931 . S
H374 C365 0.931 . S
H375 C366 0.933 . S
Dy376 O379 2.307 . S
Dy376 O381 2.395 . S
Dy376 O382 2.379 . S
Dy376 O384 2.339 . S
Dy376 O386 2.298 . S
Dy376 O390 2.275 . S
Dy376 C398 2.738 . S
Dy377 O380 2.298 . S
Dy377 O383 2.275 . S
Dy377 O385 2.307 . S
Dy377 O387 2.395 . S
Dy377 O388 2.379 . S
Dy377 O391 2.339 . S
Dy377 C407 2.738 . S
C378 O390 1.254 . S
C378 O391 1.257 . S
O379 Dy376 2.307 . S
O379 C389 1.266 . S
O380 Dy377 2.298 . S
O380 C389 1.236 . S
O381 Dy376 2.395 . S
O381 C398 1.255 . S
O382 Dy376 2.379 . S
O382 C398 1.249 . S
O383 Dy377 2.275 . S
O383 C399 1.254 . S
O384 Dy376 2.339 . S
O384 C399 1.257 . S
O385 Dy377 2.307 . S
O385 C400 1.266 . S
O386 Dy376 2.298 . S
O386 C400 1.236 . S
O387 Dy377 2.395 . S
O387 C407 1.255 . S
O388 Dy377 2.379 . S
O388 C407 1.249 . S
C389 O379 1.266 . S
C389 O380 1.236 . S
O390 Dy376 2.275 . S
O390 C378 1.254 . S
O391 Dy377 2.339 . S
O391 C378 1.257 . S
C392 C395 1.344 . S
C392 C396 1.328 . S
C392 C398 1.516 . S
C393 C394 1.304 . S
C393 C397 1.323 . S
C394 C393 1.304 . S
C394 C395 1.371 . S
C394 H408 0.930 . S
C395 C392 1.344 . S
C395 C394 1.371 . S
C395 H409 0.931 . S
C396 C392 1.328 . S
C396 C397 1.433 . S
C396 H410 0.931 . S
C397 C393 1.323 . S
C397 C396 1.433 . S
C397 H411 0.933 . S
C398 Dy376 2.738 . S
C398 O381 1.255 . S
C398 O382 1.249 . S
C398 C392 1.516 . S
C399 O383 1.254 . S
C399 O384 1.257 . S
C400 O385 1.266 . S
C400 O386 1.236 . S
C401 C404 1.344 . S
C401 C405 1.328 . S
C401 C407 1.516 . S
C402 C403 1.304 . S
C402 C406 1.323 . S
C403 C402 1.304 . S
C403 C404 1.371 . S
C403 H412 0.930 . S
C404 C401 1.344 . S
C404 C403 1.371 . S
C404 H413 0.931 . S
C405 C401 1.328 . S
C405 C406 1.433 . S
C405 H414 0.931 . S
C406 C402 1.323 . S
C406 C405 1.433 . S
C406 H415 0.933 . S
C407 Dy377 2.738 . S
C407 O387 1.255 . S
C407 O388 1.249 . S
C407 C401 1.516 . S
H408 C394 0.930 . S
H409 C395 0.931 . S
H410 C396 0.931 . S
H411 C397 0.933 . S
H412 C403 0.930 . S
H413 C404 0.931 . S
H414 C405 0.931 . S
H415 C406 0.933 . S
Dy416 O419 2.281 1_545 S
Dy416 O421 2.395 . S
Dy416 O422 2.379 . S
Dy416 O424 2.339 . S
Dy416 O426 2.298 . S
Dy416 O430 2.275 . S
Dy416 C438 2.738 . S
Dy417 O420 2.298 . S
Dy417 O423 2.275 . S
Dy417 O425 2.307 . S
Dy417 O427 2.395 . S
Dy417 O428 2.379 . S
Dy417 O431 2.339 . S
Dy417 C447 2.738 . S
C418 O430 1.254 . S
C418 O431 1.257 . S
O419 Dy416 2.281 1_565 S
O419 C429 1.280 . S
O420 Dy417 2.298 . S
O420 C429 1.236 1_545 S
O421 Dy416 2.395 . S
O421 C438 1.255 . S
O422 Dy416 2.379 . S
O422 C438 1.249 . S
O423 Dy417 2.275 . S
O423 C439 1.254 . S
O424 Dy416 2.339 . S
O424 C439 1.257 . S
O425 Dy417 2.307 . S
O425 C440 1.266 . S
O426 Dy416 2.298 . S
O426 C440 1.236 . S
O427 Dy417 2.395 . S
O427 C447 1.255 . S
O428 Dy417 2.379 . S
O428 C447 1.249 . S
C429 O419 1.280 . S
C429 O420 1.236 1_565 S
O430 Dy416 2.275 . S
O430 C418 1.254 . S
O431 Dy417 2.339 . S
O431 C418 1.257 . S
C432 C435 1.344 . S
C432 C436 1.328 . S
C432 C438 1.516 . S
C433 C434 1.304 . S
C433 C437 1.323 . S
C434 C433 1.304 . S
C434 C435 1.371 . S
C434 H448 0.930 . S
C435 C432 1.344 . S
C435 C434 1.371 . S
C435 H449 0.931 . S
C436 C432 1.328 . S
C436 C437 1.433 . S
C436 H450 0.931 . S
C437 C433 1.323 . S
C437 C436 1.433 . S
C437 H451 0.933 . S
C438 Dy416 2.738 . S
C438 O421 1.255 . S
C438 O422 1.249 . S
C438 C432 1.516 . S
C439 O423 1.254 . S
C439 O424 1.257 . S
C440 O425 1.266 . S
C440 O426 1.236 . S
C441 C444 1.344 1_545 S
C441 C445 1.328 1_545 S
C441 C447 1.516 . S
C442 C443 1.304 . S
C442 C446 1.323 . S
C443 C442 1.304 . S
C443 C444 1.371 . S
C443 H452 0.930 . S
C444 C441 1.344 1_565 S
C444 C443 1.371 . S
C444 H453 0.931 . S
C445 C441 1.328 1_565 S
C445 C446 1.429 . S
C445 H454 0.935 1_565 S
C446 C442 1.323 . S
C446 C445 1.429 . S
C446 H455 0.933 . S
C447 Dy417 2.738 . S
C447 O427 1.255 . S
C447 O428 1.249 . S
C447 C441 1.516 . S
H448 C434 0.930 . S
H449 C435 0.931 . S
H450 C436 0.931 . S
H451 C437 0.933 . S
H452 C443 0.930 . S
H453 C444 0.931 . S
H454 C445 0.935 1_545 S
H455 C446 0.933 . S
Dy456 O459 2.307 . S
Dy456 O461 2.395 . S
Dy456 O462 2.379 . S
Dy456 O464 2.339 . S
Dy456 O466 2.298 . S
Dy456 O470 2.275 . S
Dy456 C478 2.738 . S
Dy457 O460 2.298 . S
Dy457 O463 2.275 . S
Dy457 O465 2.307 . S
Dy457 O467 2.395 . S
Dy457 O468 2.379 . S
Dy457 O471 2.339 . S
Dy457 C487 2.738 . S
C458 O470 1.254 . S
C458 O471 1.257 . S
O459 Dy456 2.307 . S
O459 C469 1.266 . S
O460 Dy457 2.298 . S
O460 C469 1.236 . S
O461 Dy456 2.395 . S
O461 C478 1.255 . S
O462 Dy456 2.379 . S
O462 C478 1.249 . S
O463 Dy457 2.275 . S
O463 C479 1.254 . S
O464 Dy456 2.339 . S
O464 C479 1.257 . S
O465 Dy457 2.307 . S
O465 C480 1.266 . S
O466 Dy456 2.298 . S
O466 C480 1.236 . S
O467 Dy457 2.395 . S
O467 C487 1.255 . S
O468 Dy457 2.379 . S
O468 C487 1.249 . S
C469 O459 1.266 . S
C469 O460 1.236 . S
O470 Dy456 2.275 . S
O470 C458 1.254 . S
O471 Dy457 2.339 . S
O471 C458 1.257 . S
C472 C475 1.344 . S
C472 C476 1.328 . S
C472 C478 1.516 . S
C473 C474 1.304 . S
C473 C477 1.323 . S
C474 C473 1.304 . S
C474 C475 1.371 . S
C474 H488 0.930 . S
C475 C472 1.344 . S
C475 C474 1.371 . S
C475 H489 0.931 . S
C476 C472 1.328 . S
C476 C477 1.433 . S
C476 H490 0.931 . S
C477 C473 1.323 . S
C477 C476 1.433 . S
C477 H491 0.933 . S
C478 Dy456 2.738 . S
C478 O461 1.255 . S
C478 O462 1.249 . S
C478 C472 1.516 . S
C479 O463 1.254 . S
C479 O464 1.257 . S
C480 O465 1.266 . S
C480 O466 1.236 . S
C481 C484 1.344 . S
C481 C485 1.328 . S
C481 C487 1.516 . S
C482 C483 1.304 . S
C482 C486 1.323 . S
C483 C482 1.304 . S
C483 C484 1.371 . S
C483 H492 0.930 . S
C484 C481 1.344 . S
C484 C483 1.371 . S
C484 H493 0.931 . S
C485 C481 1.328 . S
C485 C486 1.433 . S
C485 H494 0.931 . S
C486 C482 1.323 . S
C486 C485 1.433 . S
C486 H495 0.933 . S
C487 Dy457 2.738 . S
C487 O467 1.255 . S
C487 O468 1.249 . S
C487 C481 1.516 . S
H488 C474 0.930 . S
H489 C475 0.931 . S
H490 C476 0.931 . S
H491 C477 0.933 . S
H492 C483 0.930 . S
H493 C484 0.931 . S
H494 C485 0.931 . S
H495 C486 0.933 . S
Dy496 O499 2.307 . S
Dy496 O501 2.395 1_545 S
Dy496 O502 2.379 1_545 S
Dy496 O504 2.339 . S
Dy496 O506 2.298 . S
Dy496 O510 2.275 . S
Dy496 C518 2.738 1_545 S
Dy497 O500 2.298 . S
Dy497 O503 2.275 . S
Dy497 O505 2.307 . S
Dy497 O507 2.395 . S
Dy497 O508 2.379 . S
Dy497 O511 2.339 1_455 S
Dy497 C527 2.738 . S
C498 O510 1.254 1_655 S
C498 O511 1.257 . S
O499 Dy496 2.307 . S
O499 C509 1.266 . S
O500 Dy497 2.298 . S
O500 C509 1.236 . S
O501 Dy496 2.395 1_565 S
O501 C518 1.255 . S
O502 Dy496 2.379 1_565 S
O502 C518 1.249 . S
O503 Dy497 2.275 . S
O503 C519 1.254 . S
O504 Dy496 2.339 . S
O504 C519 1.257 . S
O505 Dy497 2.307 . S
O505 C520 1.266 . S
O506 Dy496 2.298 . S
O506 C520 1.236 . S
O507 Dy497 2.395 . S
O507 C527 1.255 . S
O508 Dy497 2.379 . S
O508 C527 1.249 . S
C509 O499 1.266 . S
C509 O500 1.236 . S
O510 Dy496 2.275 . S
O510 C498 1.254 1_455 S
O511 Dy497 2.339 1_655 S
O511 C498 1.257 . S
C512 C515 1.344 . S
C512 C516 1.328 . S
C512 C518 1.516 . S
C513 C514 1.304 . S
C513 C517 1.323 . S
C514 C513 1.304 . S
C514 C515 1.371 . S
C514 H528 0.930 . S
C515 C512 1.344 . S
C515 C514 1.371 . S
C515 H529 0.931 . S
C516 C512 1.328 . S
C516 C517 1.433 . S
C516 H530 0.931 . S
C517 C513 1.323 . S
C517 C516 1.433 . S
C517 H531 0.933 . S
C518 Dy496 2.738 1_565 S
C518 O501 1.255 . S
C518 O502 1.249 . S
C518 C512 1.516 . S
C519 O503 1.254 . S
C519 O504 1.257 . S
C520 O505 1.266 . S
C520 O506 1.236 . S
C521 C524 1.344 . S
C521 C525 1.328 1_455 S
C521 C527 1.516 . S
C522 C523 1.304 . S
C522 C526 1.323 1_455 S
C523 C522 1.304 . S
C523 C524 1.371 . S
C523 H532 0.930 . S
C524 C521 1.344 . S
C524 C523 1.371 . S
C524 H533 0.931 . S
C525 C521 1.328 1_655 S
C525 C526 1.433 . S
C525 H534 0.931 . S
C526 C522 1.323 1_655 S
C526 C525 1.433 . S
C526 H535 0.933 . S
C527 Dy497 2.738 . S
C527 O507 1.255 . S
C527 O508 1.249 . S
C527 C521 1.516 . S
H528 C514 0.930 . S
H529 C515 0.931 . S
H530 C516 0.931 . S
H531 C517 0.933 . S
H532 C523 0.930 . S
H533 C524 0.931 . S
H534 C525 0.931 . S
H535 C526 0.933 . S
Dy536 O539 2.307 . S
Dy536 O541 2.395 . S
Dy536 O542 2.379 . S
Dy536 O544 2.339 . S
Dy536 O546 2.298 . S
Dy536 O550 2.275 . S
Dy536 C558 2.738 . S
Dy537 O540 2.298 . S
Dy537 O543 2.275 . S
Dy537 O545 2.307 . S
Dy537 O547 2.395 . S
Dy537 O548 2.379 . S
Dy537 O551 2.339 . S
Dy537 C567 2.738 . S
C538 O550 1.254 . S
C538 O551 1.257 . S
O539 Dy536 2.307 . S
O539 C549 1.266 . S
O540 Dy537 2.298 . S
O540 C549 1.236 . S
O541 Dy536 2.395 . S
O541 C558 1.255 . S
O542 Dy536 2.379 . S
O542 C558 1.249 . S
O543 Dy537 2.275 . S
O543 C559 1.254 . S
O544 Dy536 2.339 . S
O544 C559 1.257 . S
O545 Dy537 2.307 . S
O545 C560 1.266 . S
O546 Dy536 2.298 . S
O546 C560 1.236 . S
O547 Dy537 2.395 . S
O547 C567 1.255 . S
O548 Dy537 2.379 . S
O548 C567 1.249 . S
C549 O539 1.266 . S
C549 O540 1.236 . S
O550 Dy536 2.275 . S
O550 C538 1.254 . S
O551 Dy537 2.339 . S
O551 C538 1.257 . S
C552 C555 1.344 . S
C552 C556 1.328 . S
C552 C558 1.516 . S
C553 C554 1.304 . S
C553 C557 1.323 . S
C554 C553 1.304 . S
C554 C555 1.371 . S
C554 H568 0.930 . S
C555 C552 1.344 . S
C555 C554 1.371 . S
C555 H569 0.931 . S
C556 C552 1.328 . S
C556 C557 1.433 . S
C556 H570 0.931 . S
C557 C553 1.323 . S
C557 C556 1.433 . S
C557 H571 0.933 . S
C558 Dy536 2.738 . S
C558 O541 1.255 . S
C558 O542 1.249 . S
C558 C552 1.516 . S
C559 O543 1.254 . S
C559 O544 1.257 . S
C560 O545 1.266 . S
C560 O546 1.236 . S
C561 C564 1.344 . S
C561 C565 1.328 . S
C561 C567 1.516 . S
C562 C563 1.304 . S
C562 C566 1.323 . S
C563 C562 1.304 . S
C563 C564 1.371 . S
C563 H572 0.930 . S
C564 C561 1.344 . S
C564 C563 1.371 . S
C564 H573 0.931 . S
C565 C561 1.328 . S
C565 C566 1.433 . S
C565 H574 0.931 . S
C566 C562 1.323 . S
C566 C565 1.433 . S
C566 H575 0.933 . S
C567 Dy537 2.738 . S
C567 O547 1.255 . S
C567 O548 1.249 . S
C567 C561 1.516 . S
H568 C554 0.930 . S
H569 C555 0.931 . S
H570 C556 0.931 . S
H571 C557 0.933 . S
H572 C563 0.930 . S
H573 C564 0.931 . S
H574 C565 0.931 . S
H575 C566 0.933 . S
Dy576 O579 2.307 1_556 S
Dy576 O581 2.395 . S
Dy576 O582 2.379 . S
Dy576 O584 2.339 1_556 S
Dy576 O586 2.298 1_556 S
Dy576 O590 2.275 1_556 S
Dy576 C598 2.738 . S
Dy577 O580 2.298 . S
Dy577 O583 2.275 . S
Dy577 O585 2.307 . S
Dy577 O587 2.395 . S
Dy577 O588 2.424 . S
Dy577 O591 2.339 1_545 S
Dy577 C607 2.738 . S
C578 O590 1.255 1_565 S
C578 O591 1.257 . S
O579 Dy576 2.307 1_554 S
O579 C589 1.266 . S
O580 Dy577 2.298 . S
O580 C589 1.236 . S
O581 Dy576 2.395 . S
O581 C598 1.255 . S
O582 Dy576 2.379 . S
O582 C598 1.249 . S
O583 Dy577 2.275 . S
O583 C599 1.254 . S
O584 Dy576 2.339 1_554 S
O584 C599 1.257 . S
O585 Dy577 2.307 . S
O585 C600 1.266 . S
O586 Dy576 2.298 1_554 S
O586 C600 1.236 . S
O587 Dy577 2.395 . S
O587 C607 1.255 . S
O588 Dy577 2.424 . S
O588 C607 1.299 . S
C589 O579 1.266 . S
C589 O580 1.236 . S
O590 Dy576 2.275 1_554 S
O590 C578 1.255 1_545 S
O591 Dy577 2.339 1_565 S
O591 C578 1.257 . S
C592 C595 1.344 . S
C592 C596 1.328 . S
C592 C598 1.516 . S
C593 C594 1.304 . S
C593 C597 1.323 . S
C594 C593 1.304 . S
C594 C595 1.371 . S
C594 H608 0.930 . S
C595 C592 1.344 . S
C595 C594 1.371 . S
C595 H609 0.931 . S
C596 C592 1.328 . S
C596 C597 1.433 . S
C596 H610 0.931 . S
C597 C593 1.323 . S
C597 C596 1.433 . S
C597 H611 0.933 . S
C598 Dy576 2.738 . S
C598 O581 1.255 . S
C598 O582 1.249 . S
C598 C592 1.516 . S
C599 O583 1.254 . S
C599 O584 1.257 . S
C600 O585 1.266 . S
C600 O586 1.236 . S
C601 C604 1.344 . S
C601 C605 1.328 1_545 S
C601 C607 1.516 . S
C602 C603 1.304 1_565 S
C602 C606 1.323 . S
C603 C602 1.304 1_545 S
C603 C604 1.371 . S
C603 H612 0.930 . S
C604 C601 1.344 . S
C604 C603 1.371 . S
C604 H613 0.931 . S
C605 C601 1.328 1_565 S
C605 C606 1.433 . S
C605 H614 0.931 . S
C606 C602 1.323 . S
C606 C605 1.433 . S
C606 H615 0.933 . S
C607 Dy577 2.738 . S
C607 O587 1.255 . S
C607 O588 1.299 . S
C607 C601 1.516 . S
H608 C594 0.930 . S
H609 C595 0.931 . S
H610 C596 0.931 . S
H611 C597 0.933 . S
H612 C603 0.930 . S
H613 C604 0.931 . S
H614 C605 0.931 . S
H615 C606 0.933 . S
Dy616 O619 2.307 . S
Dy616 O621 2.395 . S
Dy616 O622 2.379 . S
Dy616 O624 2.339 . S
Dy616 O626 2.298 . S
Dy616 O630 2.275 . S
Dy616 C638 2.738 . S
Dy617 O620 2.298 . S
Dy617 O623 2.275 . S
Dy617 O625 2.307 . S
Dy617 O627 2.395 . S
Dy617 O628 2.379 . S
Dy617 O631 2.339 . S
Dy617 C647 2.738 . S
C618 O630 1.254 . S
C618 O631 1.257 . S
O619 Dy616 2.307 . S
O619 C629 1.266 . S
O620 Dy617 2.298 . S
O620 C629 1.236 . S
O621 Dy616 2.395 . S
O621 C638 1.255 . S
O622 Dy616 2.379 . S
O622 C638 1.249 . S
O623 Dy617 2.275 . S
O623 C639 1.254 . S
O624 Dy616 2.339 . S
O624 C639 1.257 . S
O625 Dy617 2.307 . S
O625 C640 1.266 . S
O626 Dy616 2.298 . S
O626 C640 1.236 . S
O627 Dy617 2.395 . S
O627 C647 1.255 . S
O628 Dy617 2.379 . S
O628 C647 1.249 . S
C629 O619 1.266 . S
C629 O620 1.236 . S
O630 Dy616 2.275 . S
O630 C618 1.254 . S
O631 Dy617 2.339 . S
O631 C618 1.257 . S
C632 C635 1.344 . S
C632 C636 1.328 . S
C632 C638 1.516 . S
C633 C634 1.304 . S
C633 C637 1.323 . S
C634 C633 1.304 . S
C634 C635 1.371 . S
C634 H648 0.930 . S
C635 C632 1.344 . S
C635 C634 1.371 . S
C635 H649 0.931 . S
C636 C632 1.328 . S
C636 C637 1.433 . S
C636 H650 0.931 . S
C637 C633 1.323 . S
C637 C636 1.433 . S
C637 H651 0.933 . S
C638 Dy616 2.738 . S
C638 O621 1.255 . S
C638 O622 1.249 . S
C638 C632 1.516 . S
C639 O623 1.254 . S
C639 O624 1.257 . S
C640 O625 1.266 . S
C640 O626 1.236 . S
C641 C644 1.344 . S
C641 C645 1.328 . S
C641 C647 1.516 . S
C642 C643 1.304 . S
C642 C646 1.323 . S
C643 C642 1.304 . S
C643 C644 1.371 . S
C643 H652 0.930 . S
C644 C641 1.344 . S
C644 C643 1.371 . S
C644 H653 0.931 . S
C645 C641 1.328 . S
C645 C646 1.433 . S
C645 H654 0.931 . S
C646 C642 1.323 . S
C646 C645 1.433 . S
C646 H655 0.933 . S
C647 Dy617 2.738 . S
C647 O627 1.255 . S
C647 O628 1.249 . S
C647 C641 1.516 . S
H648 C634 0.930 . S
H649 C635 0.931 . S
H650 C636 0.931 . S
H651 C637 0.933 . S
H652 C643 0.930 . S
H653 C644 0.931 . S
H654 C645 0.931 . S
H655 C646 0.933 . S
Dy656 O659 2.307 1_554 S
Dy656 O661 2.395 . S
Dy656 O662 2.379 . S
Dy656 O664 2.339 . S
Dy656 O666 2.298 . S
Dy656 O670 2.275 . S
Dy656 C678 2.738 . S
Dy657 O660 2.298 1_554 S
Dy657 O663 2.275 . S
Dy657 O665 2.307 . S
Dy657 O667 2.395 . S
Dy657 O668 2.379 . S
Dy657 O671 2.339 . S
Dy657 C687 2.738 . S
C658 O670 1.254 . S
C658 O671 1.257 . S
O659 Dy656 2.307 1_556 S
O659 C669 1.266 . S
O660 Dy657 2.298 1_556 S
O660 C669 1.236 . S
O661 Dy656 2.395 . S
O661 C678 1.255 . S
O662 Dy656 2.379 . S
O662 C678 1.249 . S
O663 Dy657 2.275 . S
O663 C679 1.254 . S
O664 Dy656 2.339 . S
O664 C679 1.257 . S
O665 Dy657 2.307 . S
O665 C680 1.266 . S
O666 Dy656 2.298 . S
O666 C680 1.236 . S
O667 Dy657 2.395 . S
O667 C687 1.255 . S
O668 Dy657 2.379 . S
O668 C687 1.249 . S
C669 O659 1.266 . S
C669 O660 1.236 . S
O670 Dy656 2.275 . S
O670 C658 1.254 . S
O671 Dy657 2.339 . S
O671 C658 1.257 . S
C672 C675 1.344 . S
C672 C676 1.328 . S
C672 C678 1.516 . S
C673 C674 1.304 . S
C673 C677 1.323 . S
C674 C673 1.304 . S
C674 C675 1.371 . S
C674 H688 0.930 . S
C675 C672 1.344 . S
C675 C674 1.371 . S
C675 H689 0.931 . S
C676 C672 1.328 . S
C676 C677 1.433 . S
C676 H690 0.931 . S
C677 C673 1.323 . S
C677 C676 1.433 . S
C677 H691 0.933 . S
C678 Dy656 2.738 . S
C678 O661 1.255 . S
C678 O662 1.249 . S
C678 C672 1.516 . S
C679 O663 1.254 . S
C679 O664 1.257 . S
C680 O665 1.266 . S
C680 O666 1.236 . S
C681 C684 1.344 . S
C681 C685 1.328 . S
C681 C687 1.516 1_556 S
C682 C683 1.304 . S
C682 C686 1.323 . S
C683 C682 1.304 . S
C683 C684 1.371 . S
C683 H692 0.930 . S
C684 C681 1.344 . S
C684 C683 1.371 . S
C684 H693 0.931 . S
C685 C681 1.328 . S
C685 C686 1.433 . S
C685 H694 0.931 1_556 S
C686 C682 1.323 . S
C686 C685 1.433 . S
C686 H695 0.933 . S
C687 Dy657 2.738 . S
C687 O667 1.255 . S
C687 O668 1.249 . S
C687 C681 1.516 1_554 S
H688 C674 0.930 . S
H689 C675 0.931 . S
H690 C676 0.931 . S
H691 C677 0.933 . S
H692 C683 0.930 . S
H693 C684 0.931 . S
H694 C685 0.931 1_554 S
H695 C686 0.933 . S
Dy696 O699 2.307 . S
Dy696 O701 2.395 . S
Dy696 O702 2.379 . S
Dy696 O704 2.339 . S
Dy696 O706 2.298 . S
Dy696 O710 2.275 . S
Dy696 C718 2.738 . S
Dy697 O700 2.298 . S
Dy697 O703 2.275 . S
Dy697 O705 2.307 . S
Dy697 O707 2.395 . S
Dy697 O708 2.379 . S
Dy697 O711 2.339 . S
Dy697 C727 2.738 . S
C698 O710 1.254 . S
C698 O711 1.257 . S
O699 Dy696 2.307 . S
O699 C709 1.266 . S
O700 Dy697 2.298 . S
O700 C709 1.236 . S
O701 Dy696 2.395 . S
O701 C718 1.255 . S
O702 Dy696 2.379 . S
O702 C718 1.249 . S
O703 Dy697 2.275 . S
O703 C719 1.254 . S
O704 Dy696 2.339 . S
O704 C719 1.257 . S
O705 Dy697 2.307 . S
O705 C720 1.266 . S
O706 Dy696 2.298 . S
O706 C720 1.236 . S
O707 Dy697 2.395 . S
O707 C727 1.255 . S
O708 Dy697 2.379 . S
O708 C727 1.249 . S
C709 O699 1.266 . S
C709 O700 1.236 . S
O710 Dy696 2.275 . S
O710 C698 1.254 . S
O711 Dy697 2.339 . S
O711 C698 1.257 . S
C712 C715 1.344 . S
C712 C716 1.328 . S
C712 C718 1.516 . S
C713 C714 1.304 . S
C713 C717 1.323 . S
C714 C713 1.304 . S
C714 C715 1.371 . S
C714 H728 0.930 . S
C715 C712 1.344 . S
C715 C714 1.371 . S
C715 H729 0.931 . S
C716 C712 1.328 . S
C716 C717 1.433 . S
C716 H730 0.931 . S
C717 C713 1.323 . S
C717 C716 1.433 . S
C717 H731 0.933 . S
C718 Dy696 2.738 . S
C718 O701 1.255 . S
C718 O702 1.249 . S
C718 C712 1.516 . S
C719 O703 1.254 . S
C719 O704 1.257 . S
C720 O705 1.266 . S
C720 O706 1.236 . S
C721 C724 1.344 . S
C721 C725 1.328 . S
C721 C727 1.516 . S
C722 C723 1.304 . S
C722 C726 1.323 . S
C723 C722 1.304 . S
C723 C724 1.371 . S
C723 H732 0.930 . S
C724 C721 1.344 . S
C724 C723 1.371 . S
C724 H733 0.931 . S
C725 C721 1.328 . S
C725 C726 1.433 . S
C725 H734 0.931 . S
C726 C722 1.323 . S
C726 C725 1.433 . S
C726 H735 0.933 . S
C727 Dy697 2.738 . S
C727 O707 1.255 . S
C727 O708 1.249 . S
C727 C721 1.516 . S
H728 C714 0.930 . S
H729 C715 0.931 . S
H730 C716 0.931 . S
H731 C717 0.933 . S
H732 C723 0.930 . S
H733 C724 0.931 . S
H734 C725 0.931 . S
H735 C726 0.933 . S
Dy736 O739 2.307 1_455 S
Dy736 O741 2.395 . S
Dy736 O742 2.379 . S
Dy736 O744 2.339 . S
Dy736 O746 2.298 . S
Dy736 O750 2.275 . S
Dy736 C758 2.738 . S
Dy737 O740 2.298 1_455 S
Dy737 O743 2.275 . S
Dy737 O745 2.307 . S
Dy737 O747 2.395 . S
Dy737 O748 2.379 . S
Dy737 O751 2.339 . S
Dy737 C767 2.738 . S
C738 O750 1.254 . S
C738 O751 1.257 . S
O739 Dy736 2.307 1_655 S
O739 C749 1.266 . S
O740 Dy737 2.298 1_655 S
O740 C749 1.236 . S
O741 Dy736 2.395 . S
O741 C758 1.255 . S
O742 Dy736 2.379 . S
O742 C758 1.249 . S
O743 Dy737 2.275 . S
O743 C759 1.254 . S
O744 Dy736 2.339 . S
O744 C759 1.257 . S
O745 Dy737 2.307 . S
O745 C760 1.266 . S
O746 Dy736 2.298 . S
O746 C760 1.236 . S
O747 Dy737 2.395 . S
O747 C767 1.255 . S
O748 Dy737 2.379 . S
O748 C767 1.249 . S
C749 O739 1.266 . S
C749 O740 1.236 . S
O750 Dy736 2.275 . S
O750 C738 1.254 . S
O751 Dy737 2.339 . S
O751 C738 1.257 . S
C752 C755 1.344 . S
C752 C756 1.328 . S
C752 C758 1.516 . S
C753 C754 1.304 . S
C753 C757 1.323 . S
C754 C753 1.304 . S
C754 C755 1.371 . S
C754 H768 0.930 . S
C755 C752 1.344 . S
C755 C754 1.371 . S
C755 H769 0.931 . S
C756 C752 1.328 . S
C756 C757 1.433 . S
C756 H770 0.931 . S
C757 C753 1.323 . S
C757 C756 1.433 . S
C757 H771 0.933 . S
C758 Dy736 2.738 . S
C758 O741 1.255 . S
C758 O742 1.249 . S
C758 C752 1.516 . S
C759 O743 1.254 . S
C759 O744 1.257 . S
C760 O745 1.266 . S
C760 O746 1.236 . S
C761 C764 1.344 . S
C761 C765 1.328 . S
C761 C767 1.516 1_655 S
C762 C763 1.304 . S
C762 C766 1.323 . S
C763 C762 1.304 . S
C763 C764 1.371 . S
C763 H772 0.930 . S
C764 C761 1.344 . S
C764 C763 1.371 . S
C764 H773 0.931 . S
C765 C761 1.328 . S
C765 C766 1.433 . S
C765 H774 0.931 1_655 S
C766 C762 1.323 . S
C766 C765 1.433 . S
C766 H775 0.933 . S
C767 Dy737 2.738 . S
C767 O747 1.255 . S
C767 O748 1.249 . S
C767 C761 1.516 1_455 S
H768 C754 0.930 . S
H769 C755 0.931 . S
H770 C756 0.931 . S
H771 C757 0.933 . S
H772 C763 0.930 . S
H773 C764 0.931 . S
H774 C765 0.931 1_455 S
H775 C766 0.933 . S
Dy776 O779 2.307 . S
Dy776 O781 2.395 . S
Dy776 O782 2.379 . S
Dy776 O784 2.339 . S
Dy776 O786 2.298 . S
Dy776 O790 2.275 . S
Dy776 C798 2.738 . S
Dy777 O780 2.298 . S
Dy777 O783 2.275 . S
Dy777 O785 2.307 . S
Dy777 O787 2.395 . S
Dy777 O788 2.379 . S
Dy777 O791 2.339 . S
Dy777 C807 2.738 . S
C778 O790 1.254 . S
C778 O791 1.257 . S
O779 Dy776 2.307 . S
O779 C789 1.266 . S
O780 Dy777 2.298 . S
O780 C789 1.236 . S
O781 Dy776 2.395 . S
O781 C798 1.255 . S
O782 Dy776 2.379 . S
O782 C798 1.249 . S
O783 Dy777 2.275 . S
O783 C799 1.254 . S
O784 Dy776 2.339 . S
O784 C799 1.257 . S
O785 Dy777 2.307 . S
O785 C800 1.266 . S
O786 Dy776 2.298 . S
O786 C800 1.236 . S
O787 Dy777 2.395 . S
O787 C807 1.255 . S
O788 Dy777 2.379 . S
O788 C807 1.249 . S
C789 O779 1.266 . S
C789 O780 1.236 . S
O790 Dy776 2.275 . S
O790 C778 1.254 . S
O791 Dy777 2.339 . S
O791 C778 1.257 . S
C792 C795 1.344 . S
C792 C796 1.328 . S
C792 C798 1.516 . S
C793 C794 1.304 . S
C793 C797 1.323 . S
C794 C793 1.304 . S
C794 C795 1.371 . S
C794 H808 0.930 . S
C795 C792 1.344 . S
C795 C794 1.371 . S
C795 H809 0.931 . S
C796 C792 1.328 . S
C796 C797 1.433 . S
C796 H810 0.931 . S
C797 C793 1.323 . S
C797 C796 1.433 . S
C797 H811 0.933 . S
C798 Dy776 2.738 . S
C798 O781 1.255 . S
C798 O782 1.249 . S
C798 C792 1.516 . S
C799 O783 1.254 . S
C799 O784 1.257 . S
C800 O785 1.266 . S
C800 O786 1.236 . S
C801 C804 1.344 . S
C801 C805 1.328 . S
C801 C807 1.516 . S
C802 C803 1.304 . S
C802 C806 1.323 . S
C803 C802 1.304 . S
C803 C804 1.371 . S
C803 H812 0.930 . S
C804 C801 1.344 . S
C804 C803 1.371 . S
C804 H813 0.931 . S
C805 C801 1.328 . S
C805 C806 1.433 . S
C805 H814 0.931 . S
C806 C802 1.323 . S
C806 C805 1.433 . S
C806 H815 0.933 . S
C807 Dy777 2.738 . S
C807 O787 1.255 . S
C807 O788 1.249 . S
C807 C801 1.516 . S
H808 C794 0.930 . S
H809 C795 0.931 . S
H810 C796 0.931 . S
H811 C797 0.933 . S
H812 C803 0.930 . S
H813 C804 0.931 . S
H814 C805 0.931 . S
H815 C806 0.933 . S
Dy816 O819 2.307 . S
Dy816 O821 2.395 . S
Dy816 O822 2.379 . S
Dy816 O824 2.339 . S
Dy816 O826 2.298 . S
Dy816 O830 2.275 . S
Dy816 C838 2.738 . S
Dy817 O820 2.298 . S
Dy817 O823 2.275 . S
Dy817 O825 2.307 . S
Dy817 O827 2.395 . S
Dy817 O828 2.379 . S
Dy817 O831 2.339 . S
Dy817 C847 2.738 . S
C818 O830 1.254 . S
C818 O831 1.257 . S
O819 Dy816 2.307 . S
O819 C829 1.266 . S
O820 Dy817 2.298 . S
O820 C829 1.236 . S
O821 Dy816 2.395 . S
O821 C838 1.255 . S
O822 Dy816 2.379 . S
O822 C838 1.249 . S
O823 Dy817 2.275 . S
O823 C839 1.254 . S
O824 Dy816 2.339 . S
O824 C839 1.257 . S
O825 Dy817 2.307 . S
O825 C840 1.266 . S
O826 Dy816 2.298 . S
O826 C840 1.236 . S
O827 Dy817 2.395 . S
O827 C847 1.255 . S
O828 Dy817 2.379 . S
O828 C847 1.249 . S
C829 O819 1.266 . S
C829 O820 1.236 . S
O830 Dy816 2.275 . S
O830 C818 1.254 . S
O831 Dy817 2.339 . S
O831 C818 1.257 . S
C832 C835 1.344 . S
C832 C836 1.328 . S
C832 C838 1.516 . S
C833 C834 1.304 . S
C833 C837 1.323 . S
C834 C833 1.304 . S
C834 C835 1.371 . S
C834 H848 0.930 . S
C835 C832 1.344 . S
C835 C834 1.371 . S
C835 H849 0.931 . S
C836 C832 1.328 . S
C836 C837 1.433 . S
C836 H850 0.931 . S
C837 C833 1.323 . S
C837 C836 1.433 . S
C837 H851 0.933 . S
C838 Dy816 2.738 . S
C838 O821 1.255 . S
C838 O822 1.249 . S
C838 C832 1.516 . S
C839 O823 1.254 . S
C839 O824 1.257 . S
C840 O825 1.266 . S
C840 O826 1.236 . S
C841 C844 1.344 . S
C841 C845 1.328 . S
C841 C847 1.516 . S
C842 C843 1.304 . S
C842 C846 1.323 . S
C843 C842 1.304 . S
C843 C844 1.371 . S
C843 H852 0.930 . S
C844 C841 1.344 . S
C844 C843 1.371 . S
C844 H853 0.931 . S
C845 C841 1.328 . S
C845 C846 1.433 . S
C845 H854 0.931 . S
C846 C842 1.323 . S
C846 C845 1.433 . S
C846 H855 0.933 . S
C847 Dy817 2.738 . S
C847 O827 1.255 . S
C847 O828 1.249 . S
C847 C841 1.516 . S
H848 C834 0.930 . S
H849 C835 0.931 . S
H850 C836 0.931 . S
H851 C837 0.933 . S
H852 C843 0.930 . S
H853 C844 0.931 . S
H854 C845 0.931 . S
H855 C846 0.933 . S
Dy856 O859 2.307 . S
Dy856 O861 2.395 . S
Dy856 O862 2.379 . S
Dy856 O864 2.339 . S
Dy856 O866 2.298 . S
Dy856 O870 2.275 . S
Dy856 C878 2.738 . S
Dy857 O860 2.298 . S
Dy857 O863 2.275 . S
Dy857 O865 2.307 . S
Dy857 O867 2.395 . S
Dy857 O868 2.379 . S
Dy857 O871 2.339 . S
Dy857 C887 2.738 . S
C858 O870 1.254 . S
C858 O871 1.257 . S
O859 Dy856 2.307 . S
O859 C869 1.266 . S
O860 Dy857 2.298 . S
O860 C869 1.236 . S
O861 Dy856 2.395 . S
O861 C878 1.255 . S
O862 Dy856 2.379 . S
O862 C878 1.249 . S
O863 Dy857 2.275 . S
O863 C879 1.254 . S
O864 Dy856 2.339 . S
O864 C879 1.257 . S
O865 Dy857 2.307 . S
O865 C880 1.266 . S
O866 Dy856 2.298 . S
O866 C880 1.236 . S
O867 Dy857 2.395 . S
O867 C887 1.255 . S
O868 Dy857 2.379 . S
O868 C887 1.249 . S
C869 O859 1.266 . S
C869 O860 1.236 . S
O870 Dy856 2.275 . S
O870 C858 1.254 . S
O871 Dy857 2.339 . S
O871 C858 1.257 . S
C872 C875 1.344 . S
C872 C876 1.328 . S
C872 C878 1.516 . S
C873 C874 1.304 . S
C873 C877 1.323 . S
C874 C873 1.304 . S
C874 C875 1.371 . S
C874 H888 0.930 . S
C875 C872 1.344 . S
C875 C874 1.371 . S
C875 H889 0.931 . S
C876 C872 1.328 . S
C876 C877 1.433 . S
C876 H890 0.931 . S
C877 C873 1.323 . S
C877 C876 1.433 . S
C877 H891 0.933 . S
C878 Dy856 2.738 . S
C878 O861 1.255 . S
C878 O862 1.249 . S
C878 C872 1.516 . S
C879 O863 1.254 . S
C879 O864 1.257 . S
C880 O865 1.266 . S
C880 O866 1.236 . S
C881 C884 1.344 . S
C881 C885 1.328 . S
C881 C887 1.516 . S
C882 C883 1.304 . S
C882 C886 1.323 . S
C883 C882 1.304 . S
C883 C884 1.371 . S
C883 H892 0.930 . S
C884 C881 1.344 . S
C884 C883 1.371 . S
C884 H893 0.931 . S
C885 C881 1.328 . S
C885 C886 1.433 . S
C885 H894 0.931 . S
C886 C882 1.323 . S
C886 C885 1.433 . S
C886 H895 0.933 . S
C887 Dy857 2.738 . S
C887 O867 1.255 . S
C887 O868 1.249 . S
C887 C881 1.516 . S
H888 C874 0.930 . S
H889 C875 0.931 . S
H890 C876 0.931 . S
H891 C877 0.933 . S
H892 C883 0.930 . S
H893 C884 0.931 . S
H894 C885 0.931 . S
H895 C886 0.933 . S
Dy896 O899 2.307 . S
Dy896 O901 2.395 . S
Dy896 O902 2.379 . S
Dy896 O904 2.339 . S
Dy896 O906 2.298 . S
Dy896 O910 2.275 . S
Dy896 C918 2.738 . S
Dy897 O900 2.298 . S
Dy897 O903 2.275 . S
Dy897 O905 2.307 . S
Dy897 O907 2.395 . S
Dy897 O908 2.379 . S
Dy897 O911 2.339 . S
Dy897 C927 2.738 . S
C898 O910 1.254 . S
C898 O911 1.257 . S
O899 Dy896 2.307 . S
O899 C909 1.266 . S
O900 Dy897 2.298 . S
O900 C909 1.236 . S
O901 Dy896 2.395 . S
O901 C918 1.255 . S
O902 Dy896 2.379 . S
O902 C918 1.249 . S
O903 Dy897 2.275 . S
O903 C919 1.254 . S
O904 Dy896 2.339 . S
O904 C919 1.257 . S
O905 Dy897 2.307 . S
O905 C920 1.266 . S
O906 Dy896 2.298 . S
O906 C920 1.236 . S
O907 Dy897 2.395 . S
O907 C927 1.255 . S
O908 Dy897 2.379 . S
O908 C927 1.249 . S
C909 O899 1.266 . S
C909 O900 1.236 . S
O910 Dy896 2.275 . S
O910 C898 1.254 . S
O911 Dy897 2.339 . S
O911 C898 1.257 . S
C912 C915 1.344 . S
C912 C916 1.328 . S
C912 C918 1.516 . S
C913 C914 1.304 . S
C913 C917 1.323 . S
C914 C913 1.304 . S
C914 C915 1.371 . S
C914 H928 0.930 . S
C915 C912 1.344 . S
C915 C914 1.371 . S
C915 H929 0.931 . S
C916 C912 1.328 . S
C916 C917 1.433 . S
C916 H930 0.931 . S
C917 C913 1.323 . S
C917 C916 1.433 . S
C917 H931 0.933 . S
C918 Dy896 2.738 . S
C918 O901 1.255 . S
C918 O902 1.249 . S
C918 C912 1.516 . S
C919 O903 1.254 . S
C919 O904 1.257 . S
C920 O905 1.266 . S
C920 O906 1.236 . S
C921 C924 1.344 . S
C921 C925 1.328 . S
C921 C927 1.516 . S
C922 C923 1.304 . S
C922 C926 1.323 . S
C923 C922 1.304 . S
C923 C924 1.371 . S
C923 H932 0.930 . S
C924 C921 1.344 . S
C924 C923 1.371 . S
C924 H933 0.931 . S
C925 C921 1.328 . S
C925 C926 1.433 . S
C925 H934 0.931 . S
C926 C922 1.323 . S
C926 C925 1.433 . S
C926 H935 0.933 . S
C927 Dy897 2.738 . S
C927 O907 1.255 . S
C927 O908 1.249 . S
C927 C921 1.516 . S
H928 C914 0.930 . S
H929 C915 0.931 . S
H930 C916 0.931 . S
H931 C917 0.933 . S
H932 C923 0.930 . S
H933 C924 0.931 . S
H934 C925 0.931 . S
H935 C926 0.933 . S
Dy936 O939 2.307 . S
Dy936 O941 2.395 1_455 S
Dy936 O942 2.379 1_455 S
Dy936 O944 2.339 . S
Dy936 O946 2.298 . S
Dy936 O950 2.275 . S
Dy936 C958 2.738 1_455 S
Dy937 O940 2.298 . S
Dy937 O943 2.275 . S
Dy937 O945 2.307 . S
Dy937 O947 2.395 . S
Dy937 O948 2.379 1_554 S
Dy937 O951 2.339 1_554 S
Dy937 C967 2.738 . S
C938 O950 1.254 1_556 S
C938 O951 1.257 . S
O939 Dy936 2.307 . S
O939 C949 1.266 . S
O940 Dy937 2.298 . S
O940 C949 1.236 . S
O941 Dy936 2.395 1_655 S
O941 C958 1.255 . S
O942 Dy936 2.379 1_655 S
O942 C958 1.249 . S
O943 Dy937 2.275 . S
O943 C959 1.254 . S
O944 Dy936 2.339 . S
O944 C959 1.257 . S
O945 Dy937 2.307 . S
O945 C960 1.266 . S
O946 Dy936 2.298 . S
O946 C960 1.236 . S
O947 Dy937 2.395 . S
O947 C967 1.255 . S
O948 Dy937 2.379 1_556 S
O948 C967 1.249 1_556 S
C949 O939 1.266 . S
C949 O940 1.236 . S
O950 Dy936 2.275 . S
O950 C938 1.254 1_554 S
O951 Dy937 2.339 1_556 S
O951 C938 1.257 . S
C952 C955 1.344 . S
C952 C956 1.328 . S
C952 C958 1.516 . S
C953 C954 1.304 . S
C953 C957 1.323 . S
C954 C953 1.304 . S
C954 C955 1.371 . S
C954 H968 0.930 . S
C955 C952 1.344 . S
C955 C954 1.371 . S
C955 H969 0.931 . S
C956 C952 1.328 . S
C956 C957 1.433 . S
C956 H970 0.931 . S
C957 C953 1.323 . S
C957 C956 1.433 . S
C957 H971 0.933 . S
C958 Dy936 2.738 1_655 S
C958 O941 1.255 . S
C958 O942 1.249 . S
C958 C952 1.516 . S
C959 O943 1.254 . S
C959 O944 1.257 . S
C960 O945 1.266 . S
C960 O946 1.236 . S
C961 C964 1.344 . S
C961 C965 1.328 1_554 S
C961 C967 1.516 . S
C962 C963 1.304 . S
C962 C966 1.323 1_554 S
C963 C962 1.304 . S
C963 C964 1.371 . S
C963 H972 0.930 . S
C964 C961 1.344 . S
C964 C963 1.371 . S
C964 H973 0.931 . S
C965 C961 1.328 1_556 S
C965 C966 1.433 . S
C965 H974 0.931 . S
C966 C962 1.323 1_556 S
C966 C965 1.433 . S
C966 H975 0.933 . S
C967 Dy937 2.738 . S
C967 O947 1.255 . S
C967 O948 1.249 1_554 S
C967 C961 1.516 . S
H968 C954 0.930 . S
H969 C955 0.931 . S
H970 C956 0.931 . S
H971 C957 0.933 . S
H972 C963 0.930 . S
H973 C964 0.931 . S
H974 C965 0.931 . S
H975 C966 0.933 . S
C976 C977 1.357 . S
C976 C978 1.343 . S
C976 H1001 0.950 . S
C977 C976 1.357 . S
C977 C993 1.327 1_655 S
C978 C976 1.343 . S
C978 C997 1.405 1_655 S
C978 H1002 0.960 1_556 S
C979 C996 1.574 . S
C979 C998 1.368 . S
C979 H1003 0.949 . S
H980 C984 0.949 . S
C981 C982 1.349 . S
C981 C983 1.327 1_554 S
C981 H1004 0.950 1_554 S
C982 C981 1.349 . S
C982 C994 1.349 . S
C983 C981 1.327 1_556 S
C983 C999 1.429 1_556 S
C983 H1005 0.950 . S
C984 H980 0.949 . S
C984 C992 1.574 . S
C984 C1000 1.383 . S
H985 C993 0.950 . S
H986 C991 0.950 . S
H987 C992 0.949 . S
H988 C994 0.950 . S
H989 C995 0.950 . S
H990 C996 0.949 . S
C991 H986 0.950 . S
C991 C993 1.327 . S
C991 C997 1.429 . S
C992 C984 1.574 . S
C992 H987 0.949 . S
C992 C998 1.368 1_554 S
C993 C977 1.327 1_455 S
C993 H985 0.950 . S
C993 C991 1.327 . S
C994 C982 1.349 . S
C994 H988 0.950 . S
C994 C995 1.327 . S
C995 H989 0.950 . S
C995 C994 1.327 . S
C995 C999 1.429 . S
C996 C979 1.574 . S
C996 H990 0.949 . S
C996 C1000 1.347 1_556 S
C997 C978 1.405 1_455 S
C997 C991 1.429 . S
C997 C998 1.523 . S
C998 C979 1.368 . S
C998 C992 1.368 1_556 S
C998 C997 1.523 . S
C999 C983 1.429 1_554 S
C999 C995 1.429 . S
C999 C1000 1.532 . S
C1000 C984 1.383 . S
C1000 C996 1.347 1_554 S
C1000 C999 1.532 . S
H1001 C976 0.950 . S
H1002 C978 0.960 1_554 S
H1003 C979 0.949 . S
H1004 C981 0.950 1_556 S
H1005 C983 0.950 . S
C1006 C1007 1.349 . S
C1006 C1008 1.327 . S
C1006 H1031 0.950 . S
C1007 C1006 1.349 . S
C1007 C1023 1.349 . S
C1008 C1006 1.327 . S
C1008 C1027 1.429 . S
C1008 H1032 0.950 . S
C1009 C1026 1.574 . S
C1009 C1028 1.368 . S
C1009 H1033 0.949 . S
H1010 C1014 0.949 . S
C1011 C1012 1.349 . S
C1011 C1013 1.327 . S
C1011 H1034 0.950 . S
C1012 C1011 1.349 . S
C1012 C1024 1.349 . S
C1013 C1011 1.327 . S
C1013 C1029 1.429 . S
C1013 H1035 0.950 . S
C1014 H1010 0.949 . S
C1014 C1022 1.574 . S
C1014 C1030 1.368 . S
H1015 C1023 0.950 . S
H1016 C1021 0.950 . S
H1017 C1022 0.949 . S
H1018 C1024 0.950 . S
H1019 C1025 0.950 . S
H1020 C1026 0.949 . S
C1021 H1016 0.950 . S
C1021 C1023 1.327 . S
C1021 C1027 1.429 . S
C1022 C1014 1.574 . S
C1022 H1017 0.949 . S
C1022 C1028 1.368 . S
C1023 C1007 1.349 . S
C1023 H1015 0.950 . S
C1023 C1021 1.327 . S
C1024 C1012 1.349 . S
C1024 H1018 0.950 . S
C1024 C1025 1.327 . S
C1025 H1019 0.950 . S
C1025 C1024 1.327 . S
C1025 C1029 1.429 . S
C1026 C1009 1.574 . S
C1026 H1020 0.949 . S
C1026 C1030 1.368 . S
C1027 C1008 1.429 . S
C1027 C1021 1.429 . S
C1027 C1028 1.523 . S
C1028 C1009 1.368 . S
C1028 C1022 1.368 . S
C1028 C1027 1.523 . S
C1029 C1013 1.429 . S
C1029 C1025 1.429 . S
C1029 C1030 1.523 . S
C1030 C1014 1.368 . S
C1030 C1026 1.368 . S
C1030 C1029 1.523 . S
H1031 C1006 0.950 . S
H1032 C1008 0.950 . S
H1033 C1009 0.949 . S
H1034 C1011 0.950 . S
H1035 C1013 0.950 . S
C1036 C1037 1.349 . S
C1036 C1038 1.327 . S
C1036 H1061 0.950 . S
C1037 C1036 1.349 . S
C1037 C1053 1.349 . S
C1038 C1036 1.327 . S
C1038 C1057 1.429 . S
C1038 H1062 0.950 . S
C1039 C1056 1.574 . S
C1039 C1058 1.368 . S
C1039 H1063 0.949 . S
H1040 C1044 0.949 . S
C1041 C1042 1.349 . S
C1041 C1043 1.327 . S
C1041 H1064 0.950 . S
C1042 C1041 1.349 . S
C1042 C1054 1.349 . S
C1043 C1041 1.327 . S
C1043 C1059 1.429 . S
C1043 H1065 0.950 . S
C1044 H1040 0.949 . S
C1044 C1052 1.574 . S
C1044 C1060 1.368 . S
H1045 C1053 0.950 . S
H1046 C1051 0.950 . S
H1047 C1052 0.949 . S
H1048 C1054 0.950 . S
H1049 C1055 0.950 . S
H1050 C1056 0.949 . S
C1051 H1046 0.950 . S
C1051 C1053 1.327 . S
C1051 C1057 1.429 . S
C1052 C1044 1.574 . S
C1052 H1047 0.949 . S
C1052 C1058 1.368 . S
C1053 C1037 1.349 . S
C1053 H1045 0.950 . S
C1053 C1051 1.327 . S
C1054 C1042 1.349 . S
C1054 H1048 0.950 . S
C1054 C1055 1.327 . S
C1055 H1049 0.950 . S
C1055 C1054 1.327 . S
C1055 C1059 1.429 . S
C1056 C1039 1.574 . S
C1056 H1050 0.949 . S
C1056 C1060 1.368 . S
C1057 C1038 1.429 . S
C1057 C1051 1.429 . S
C1057 C1058 1.523 . S
C1058 C1039 1.368 . S
C1058 C1052 1.368 . S
C1058 C1057 1.523 . S
C1059 C1043 1.429 . S
C1059 C1055 1.429 . S
C1059 C1060 1.523 . S
C1060 C1044 1.368 . S
C1060 C1056 1.368 . S
C1060 C1059 1.523 . S
H1061 C1036 0.950 . S
H1062 C1038 0.950 . S
H1063 C1039 0.949 . S
H1064 C1041 0.950 . S
H1065 C1043 0.950 . S
C1066 C1067 1.349 . S
C1066 C1068 1.327 . S
C1066 H1091 0.950 . S
C1067 C1066 1.349 . S
C1067 C1083 1.349 . S
C1068 C1066 1.327 . S
C1068 C1087 1.429 . S
C1068 H1092 0.950 . S
C1069 C1086 1.574 . S
C1069 C1088 1.368 . S
C1069 H1093 0.949 . S
H1070 C1074 0.949 . S
C1071 C1072 1.349 . S
C1071 C1073 1.327 . S
C1071 H1094 0.950 . S
C1072 C1071 1.349 . S
C1072 C1084 1.349 . S
C1073 C1071 1.327 . S
C1073 C1089 1.429 . S
C1073 H1095 0.950 . S
C1074 H1070 0.949 . S
C1074 C1082 1.574 . S
C1074 C1090 1.368 . S
H1075 C1083 0.950 . S
H1076 C1081 0.950 . S
H1077 C1082 0.949 . S
H1078 C1084 0.950 . S
H1079 C1085 0.950 . S
H1080 C1086 0.949 . S
C1081 H1076 0.950 . S
C1081 C1083 1.327 . S
C1081 C1087 1.429 . S
C1082 C1074 1.574 . S
C1082 H1077 0.949 . S
C1082 C1088 1.368 . S
C1083 C1067 1.349 . S
C1083 H1075 0.950 . S
C1083 C1081 1.327 . S
C1084 C1072 1.349 . S
C1084 H1078 0.950 . S
C1084 C1085 1.327 . S
C1085 H1079 0.950 . S
C1085 C1084 1.327 . S
C1085 C1089 1.429 . S
C1086 C1069 1.574 . S
C1086 H1080 0.949 . S
C1086 C1090 1.368 . S
C1087 C1068 1.429 . S
C1087 C1081 1.429 . S
C1087 C1088 1.523 . S
C1088 C1069 1.368 . S
C1088 C1082 1.368 . S
C1088 C1087 1.523 . S
C1089 C1073 1.429 . S
C1089 C1085 1.429 . S
C1089 C1090 1.523 . S
C1090 C1074 1.368 . S
C1090 C1086 1.368 . S
C1090 C1089 1.523 . S
H1091 C1066 0.950 . S
H1092 C1068 0.950 . S
H1093 C1069 0.949 . S
H1094 C1071 0.950 . S
H1095 C1073 0.950 . S
C1096 C1097 1.349 . S
C1096 C1098 1.327 . S
C1096 H1121 0.950 . S
C1097 C1096 1.349 . S
C1097 C1113 1.349 . S
C1098 C1096 1.327 . S
C1098 C1117 1.429 . S
C1098 H1122 0.950 . S
C1099 C1116 1.574 . S
C1099 C1118 1.368 . S
C1099 H1123 0.949 . S
H1100 C1104 0.949 . S
C1101 C1102 1.349 . S
C1101 C1103 1.327 . S
C1101 H1124 0.950 . S
C1102 C1101 1.349 . S
C1102 C1114 1.349 . S
C1103 C1101 1.327 . S
C1103 C1119 1.429 . S
C1103 H1125 0.950 . S
C1104 H1100 0.949 . S
C1104 C1112 1.574 . S
C1104 C1120 1.368 . S
H1105 C1113 0.950 . S
H1106 C1111 0.950 . S
H1107 C1112 0.949 . S
H1108 C1114 0.950 . S
H1109 C1115 0.950 . S
H1110 C1116 0.949 . S
C1111 H1106 0.950 . S
C1111 C1113 1.327 . S
C1111 C1117 1.429 . S
C1112 C1104 1.574 . S
C1112 H1107 0.949 . S
C1112 C1118 1.368 . S
C1113 C1097 1.349 . S
C1113 H1105 0.950 . S
C1113 C1111 1.327 . S
C1114 C1102 1.349 . S
C1114 H1108 0.950 . S
C1114 C1115 1.327 . S
C1115 H1109 0.950 . S
C1115 C1114 1.327 . S
C1115 C1119 1.429 . S
C1116 C1099 1.574 . S
C1116 H1110 0.949 . S
C1116 C1120 1.368 . S
C1117 C1098 1.429 . S
C1117 C1111 1.429 . S
C1117 C1118 1.523 . S
C1118 C1099 1.368 . S
C1118 C1112 1.368 . S
C1118 C1117 1.523 . S
C1119 C1103 1.429 . S
C1119 C1115 1.429 . S
C1119 C1120 1.523 . S
C1120 C1104 1.368 . S
C1120 C1116 1.368 . S
C1120 C1119 1.523 . S
H1121 C1096 0.950 . S
H1122 C1098 0.950 . S
H1123 C1099 0.949 . S
H1124 C1101 0.950 . S
H1125 C1103 0.950 . S
C1126 C1127 1.349 . S
C1126 C1128 1.327 . S
C1126 H1151 0.950 . S
C1127 C1126 1.349 . S
C1127 C1143 1.349 . S
C1128 C1126 1.327 . S
C1128 C1147 1.429 . S
C1128 H1152 0.950 . S
C1129 C1146 1.574 . S
C1129 C1148 1.368 . S
C1129 H1153 0.949 . S
H1130 C1134 0.949 . S
C1131 C1132 1.349 . S
C1131 C1133 1.327 . S
C1131 H1154 0.950 . S
C1132 C1131 1.349 . S
C1132 C1144 1.349 . S
C1133 C1131 1.327 . S
C1133 C1149 1.429 . S
C1133 H1155 0.950 . S
C1134 H1130 0.949 . S
C1134 C1142 1.574 . S
C1134 C1150 1.368 . S
H1135 C1143 0.950 . S
H1136 C1141 0.950 . S
H1137 C1142 0.949 . S
H1138 C1144 0.950 . S
H1139 C1145 0.950 . S
H1140 C1146 0.949 . S
C1141 H1136 0.950 . S
C1141 C1143 1.327 . S
C1141 C1147 1.429 . S
C1142 C1134 1.574 . S
C1142 H1137 0.949 . S
C1142 C1148 1.368 . S
C1143 C1127 1.349 . S
C1143 H1135 0.950 . S
C1143 C1141 1.327 . S
C1144 C1132 1.349 . S
C1144 H1138 0.950 . S
C1144 C1145 1.327 . S
C1145 H1139 0.950 . S
C1145 C1144 1.327 . S
C1145 C1149 1.429 . S
C1146 C1129 1.574 . S
C1146 H1140 0.949 . S
C1146 C1150 1.368 . S
C1147 C1128 1.429 . S
C1147 C1141 1.429 . S
C1147 C1148 1.523 . S
C1148 C1129 1.368 . S
C1148 C1142 1.368 . S
C1148 C1147 1.523 . S
C1149 C1133 1.429 . S
C1149 C1145 1.429 . S
C1149 C1150 1.523 . S
C1150 C1134 1.368 . S
C1150 C1146 1.368 . S
C1150 C1149 1.523 . S
H1151 C1126 0.950 . S
H1152 C1128 0.950 . S
H1153 C1129 0.949 . S
H1154 C1131 0.950 . S
H1155 C1133 0.950 . S
C1156 C1157 1.349 . S
C1156 C1158 1.327 . S
C1156 H1181 0.950 . S
C1157 C1156 1.349 . S
C1157 C1173 1.349 . S
C1158 C1156 1.327 . S
C1158 C1177 1.429 . S
C1158 H1182 0.950 . S
C1159 C1176 1.574 . S
C1159 C1178 1.368 . S
C1159 H1183 0.949 . S
H1160 C1164 0.949 . S
C1161 C1162 1.349 . S
C1161 C1163 1.327 . S
C1161 H1184 0.950 . S
C1162 C1161 1.349 . S
C1162 C1174 1.349 . S
C1163 C1161 1.327 . S
C1163 C1179 1.429 . S
C1163 H1185 0.950 . S
C1164 H1160 0.949 . S
C1164 C1172 1.574 . S
C1164 C1180 1.368 . S
H1165 C1173 0.950 . S
H1166 C1171 0.950 . S
H1167 C1172 0.949 . S
H1168 C1174 0.950 . S
H1169 C1175 0.950 . S
H1170 C1176 0.949 . S
C1171 H1166 0.950 . S
C1171 C1173 1.327 . S
C1171 C1177 1.429 . S
C1172 C1164 1.574 . S
C1172 H1167 0.949 . S
C1172 C1178 1.368 . S
C1173 C1157 1.349 . S
C1173 H1165 0.950 . S
C1173 C1171 1.327 . S
C1174 C1162 1.349 . S
C1174 H1168 0.950 . S
C1174 C1175 1.327 . S
C1175 H1169 0.950 . S
C1175 C1174 1.327 . S
C1175 C1179 1.429 . S
C1176 C1159 1.574 . S
C1176 H1170 0.949 . S
C1176 C1180 1.368 . S
C1177 C1158 1.429 . S
C1177 C1171 1.429 . S
C1177 C1178 1.523 . S
C1178 C1159 1.368 . S
C1178 C1172 1.368 . S
C1178 C1177 1.523 . S
C1179 C1163 1.429 . S
C1179 C1175 1.429 . S
C1179 C1180 1.523 . S
C1180 C1164 1.368 . S
C1180 C1176 1.368 . S
C1180 C1179 1.523 . S
H1181 C1156 0.950 . S
H1182 C1158 0.950 . S
H1183 C1159 0.949 . S
H1184 C1161 0.950 . S
H1185 C1163 0.950 . S
C1186 C1187 1.349 . S
C1186 C1188 1.327 . S
C1186 H1211 0.950 . S
C1187 C1186 1.349 . S
C1187 C1203 1.349 . S
C1188 C1186 1.327 . S
C1188 C1207 1.429 . S
C1188 H1212 0.950 . S
C1189 C1206 1.574 . S
C1189 C1208 1.368 . S
C1189 H1213 0.949 . S
H1190 C1194 0.949 . S
C1191 C1192 1.349 . S
C1191 C1193 1.327 . S
C1191 H1214 0.950 . S
C1192 C1191 1.349 . S
C1192 C1204 1.349 . S
C1193 C1191 1.327 . S
C1193 C1209 1.429 . S
C1193 H1215 0.950 . S
C1194 H1190 0.949 . S
C1194 C1202 1.574 . S
C1194 C1210 1.368 . S
H1195 C1203 0.950 . S
H1196 C1201 0.950 . S
H1197 C1202 0.949 . S
H1198 C1204 0.950 . S
H1199 C1205 0.950 . S
H1200 C1206 0.949 . S
C1201 H1196 0.950 . S
C1201 C1203 1.327 . S
C1201 C1207 1.429 . S
C1202 C1194 1.574 . S
C1202 H1197 0.949 . S
C1202 C1208 1.368 . S
C1203 C1187 1.349 . S
C1203 H1195 0.950 . S
C1203 C1201 1.327 . S
C1204 C1192 1.349 . S
C1204 H1198 0.950 . S
C1204 C1205 1.327 . S
C1205 H1199 0.950 . S
C1205 C1204 1.327 . S
C1205 C1209 1.429 . S
C1206 C1189 1.574 . S
C1206 H1200 0.949 . S
C1206 C1210 1.368 . S
C1207 C1188 1.429 . S
C1207 C1201 1.429 . S
C1207 C1208 1.523 . S
C1208 C1189 1.368 . S
C1208 C1202 1.368 . S
C1208 C1207 1.523 . S
C1209 C1193 1.429 . S
C1209 C1205 1.429 . S
C1209 C1210 1.523 . S
C1210 C1194 1.368 . S
C1210 C1206 1.368 . S
C1210 C1209 1.523 . S
H1211 C1186 0.950 . S
H1212 C1188 0.950 . S
H1213 C1189 0.949 . S
H1214 C1191 0.950 . S
H1215 C1193 0.950 . S
C1216 C1217 1.349 . S
C1216 C1218 1.327 . S
C1216 H1241 0.950 . S
C1217 C1216 1.349 . S
C1217 C1233 1.349 . S
C1218 C1216 1.327 . S
C1218 C1237 1.429 . S
C1218 H1242 0.950 . S
C1219 C1236 1.574 1_655 S
C1219 C1238 1.368 . S
C1219 H1243 0.949 . S
H1220 C1224 0.949 . S
C1221 C1222 1.349 . S
C1221 C1223 1.327 . S
C1221 H1244 0.950 . S
C1222 C1221 1.349 . S
C1222 C1234 1.328 1_455 S
C1223 C1221 1.327 . S
C1223 C1239 1.425 1_455 S
C1223 H1245 0.950 . S
C1224 H1220 0.949 . S
C1224 C1232 1.574 . S
C1224 C1240 1.368 . S
H1225 C1233 0.950 . S
H1226 C1231 0.950 . S
H1227 C1232 0.949 . S
H1228 C1234 0.956 . S
H1229 C1235 0.950 . S
H1230 C1236 0.949 . S
C1231 H1226 0.950 . S
C1231 C1233 1.327 . S
C1231 C1237 1.429 . S
C1232 C1224 1.574 . S
C1232 H1227 0.949 . S
C1232 C1238 1.368 . S
C1233 C1217 1.349 . S
C1233 H1225 0.950 . S
C1233 C1231 1.327 . S
C1234 C1222 1.328 1_655 S
C1234 H1228 0.956 . S
C1234 C1235 1.343 . S
C1235 H1229 0.950 . S
C1235 C1234 1.343 . S
C1235 C1239 1.429 . S
C1236 C1219 1.574 1_455 S
C1236 H1230 0.949 . S
C1236 C1240 1.368 1_455 S
C1237 C1218 1.429 . S
C1237 C1231 1.429 . S
C1237 C1238 1.523 . S
C1238 C1219 1.368 . S
C1238 C1232 1.368 . S
C1238 C1237 1.523 . S
C1239 C1223 1.425 1_655 S
C1239 C1235 1.429 . S
C1239 C1240 1.526 . S
C1240 C1224 1.368 . S
C1240 C1236 1.368 1_655 S
C1240 C1239 1.526 . S
H1241 C1216 0.950 . S
H1242 C1218 0.950 . S
H1243 C1219 0.949 . S
H1244 C1221 0.950 . S
H1245 C1223 0.950 . S
C1246 C1247 1.349 . S
C1246 C1248 1.327 . S
C1246 H1271 0.950 . S
C1247 C1246 1.349 . S
C1247 C1263 1.349 . S
C1248 C1246 1.327 . S
C1248 C1267 1.429 . S
C1248 H1272 0.950 . S
C1249 C1266 1.574 . S
C1249 C1268 1.368 . S
C1249 H1273 0.949 . S
H1250 C1254 0.949 . S
C1251 C1252 1.349 . S
C1251 C1253 1.327 . S
C1251 H1274 0.950 . S
C1252 C1251 1.349 . S
C1252 C1264 1.349 . S
C1253 C1251 1.327 . S
C1253 C1269 1.429 . S
C1253 H1275 0.950 . S
C1254 H1250 0.949 . S
C1254 C1262 1.574 . S
C1254 C1270 1.368 . S
H1255 C1263 0.950 . S
H1256 C1261 0.950 . S
H1257 C1262 0.949 . S
H1258 C1264 0.950 . S
H1259 C1265 0.950 . S
H1260 C1266 0.949 . S
C1261 H1256 0.950 . S
C1261 C1263 1.327 . S
C1261 C1267 1.429 . S
C1262 C1254 1.574 . S
C1262 H1257 0.949 . S
C1262 C1268 1.368 . S
C1263 C1247 1.349 . S
C1263 H1255 0.950 . S
C1263 C1261 1.327 . S
C1264 C1252 1.349 . S
C1264 H1258 0.950 . S
C1264 C1265 1.327 . S
C1265 H1259 0.950 . S
C1265 C1264 1.327 . S
C1265 C1269 1.429 . S
C1266 C1249 1.574 . S
C1266 H1260 0.949 . S
C1266 C1270 1.368 . S
C1267 C1248 1.429 . S
C1267 C1261 1.429 . S
C1267 C1268 1.523 . S
C1268 C1249 1.368 . S
C1268 C1262 1.368 . S
C1268 C1267 1.523 . S
C1269 C1253 1.429 . S
C1269 C1265 1.429 . S
C1269 C1270 1.523 . S
C1270 C1254 1.368 . S
C1270 C1266 1.368 . S
C1270 C1269 1.523 . S
H1271 C1246 0.950 . S
H1272 C1248 0.950 . S
H1273 C1249 0.949 . S
H1274 C1251 0.950 . S
H1275 C1253 0.950 . S
C1276 C1277 1.349 . S
C1276 C1278 1.327 . S
C1276 H1301 0.950 . S
C1277 C1276 1.349 . S
C1277 C1293 1.349 . S
C1278 C1276 1.327 . S
C1278 C1297 1.429 . S
C1278 H1302 0.950 . S
C1279 C1296 1.574 . S
C1279 C1298 1.368 . S
C1279 H1303 0.949 . S
H1280 C1284 0.949 . S
C1281 C1282 1.349 . S
C1281 C1283 1.327 . S
C1281 H1304 0.950 . S
C1282 C1281 1.349 . S
C1282 C1294 1.349 . S
C1283 C1281 1.327 . S
C1283 C1299 1.429 . S
C1283 H1305 0.950 . S
C1284 H1280 0.949 . S
C1284 C1292 1.574 . S
C1284 C1300 1.368 . S
H1285 C1293 0.950 . S
H1286 C1291 0.950 . S
H1287 C1292 0.949 . S
H1288 C1294 0.950 . S
H1289 C1295 0.950 . S
H1290 C1296 0.949 . S
C1291 H1286 0.950 . S
C1291 C1293 1.327 . S
C1291 C1297 1.429 . S
C1292 C1284 1.574 . S
C1292 H1287 0.949 . S
C1292 C1298 1.368 . S
C1293 C1277 1.349 . S
C1293 H1285 0.950 . S
C1293 C1291 1.327 . S
C1294 C1282 1.349 . S
C1294 H1288 0.950 . S
C1294 C1295 1.327 . S
C1295 H1289 0.950 . S
C1295 C1294 1.327 . S
C1295 C1299 1.429 . S
C1296 C1279 1.574 . S
C1296 H1290 0.949 . S
C1296 C1300 1.368 . S
C1297 C1278 1.429 . S
C1297 C1291 1.429 . S
C1297 C1298 1.523 . S
C1298 C1279 1.368 . S
C1298 C1292 1.368 . S
C1298 C1297 1.523 . S
C1299 C1283 1.429 . S
C1299 C1295 1.429 . S
C1299 C1300 1.523 . S
C1300 C1284 1.368 . S
C1300 C1296 1.368 . S
C1300 C1299 1.523 . S
H1301 C1276 0.950 . S
H1302 C1278 0.950 . S
H1303 C1279 0.949 . S
H1304 C1281 0.950 . S
H1305 C1283 0.950 . S
C1306 C1307 1.349 . S
C1306 C1308 1.327 . S
C1306 H1331 0.950 . S
C1307 C1306 1.349 . S
C1307 C1323 1.349 . S
C1308 C1306 1.327 . S
C1308 C1327 1.429 . S
C1308 H1332 0.950 . S
C1309 C1326 1.574 . S
C1309 C1328 1.368 . S
C1309 H1333 0.949 . S
H1310 C1314 0.949 . S
C1311 C1312 1.349 . S
C1311 C1313 1.327 . S
C1311 H1334 0.950 . S
C1312 C1311 1.349 . S
C1312 C1324 1.349 . S
C1313 C1311 1.327 . S
C1313 C1329 1.429 . S
C1313 H1335 0.950 . S
C1314 H1310 0.949 . S
C1314 C1322 1.574 . S
C1314 C1330 1.368 . S
H1315 C1323 0.950 . S
H1316 C1321 0.950 . S
H1317 C1322 0.949 . S
H1318 C1324 0.950 . S
H1319 C1325 0.950 . S
H1320 C1326 0.949 . S
C1321 H1316 0.950 . S
C1321 C1323 1.327 . S
C1321 C1327 1.429 . S
C1322 C1314 1.574 . S
C1322 H1317 0.949 . S
C1322 C1328 1.368 . S
C1323 C1307 1.349 . S
C1323 H1315 0.950 . S
C1323 C1321 1.327 . S
C1324 C1312 1.349 . S
C1324 H1318 0.950 . S
C1324 C1325 1.327 . S
C1325 H1319 0.950 . S
C1325 C1324 1.327 . S
C1325 C1329 1.429 . S
C1326 C1309 1.574 . S
C1326 H1320 0.949 . S
C1326 C1330 1.368 . S
C1327 C1308 1.429 . S
C1327 C1321 1.429 . S
C1327 C1328 1.523 . S
C1328 C1309 1.368 . S
C1328 C1322 1.368 . S
C1328 C1327 1.523 . S
C1329 C1313 1.429 . S
C1329 C1325 1.429 . S
C1329 C1330 1.523 . S
C1330 C1314 1.368 . S
C1330 C1326 1.368 . S
C1330 C1329 1.523 . S
H1331 C1306 0.950 . S
H1332 C1308 0.950 . S
H1333 C1309 0.949 . S
H1334 C1311 0.950 . S
H1335 C1313 0.950 . S
C1336 C1337 1.349 . S
C1336 C1338 1.327 . S
C1336 H1361 0.950 . S
C1337 C1336 1.349 . S
C1337 C1353 1.349 . S
C1338 C1336 1.327 . S
C1338 C1357 1.429 . S
C1338 H1362 0.950 . S
C1339 C1356 1.574 . S
C1339 C1358 1.368 . S
C1339 H1363 0.949 . S
H1340 C1344 0.949 1_455 S
C1341 C1342 1.349 . S
C1341 C1343 1.349 . S
C1341 H1364 0.950 . S
C1342 C1341 1.349 . S
C1342 C1354 1.349 . S
C1343 C1341 1.349 . S
C1343 C1359 1.450 . S
C1343 H1365 0.909 1_455 S
C1344 H1340 0.949 1_655 S
C1344 C1352 1.574 . S
C1344 C1360 1.368 . S
H1345 C1353 0.950 . S
H1346 C1351 0.950 . S
H1347 C1352 0.949 . S
H1348 C1354 0.950 . S
H1349 C1355 0.950 . S
H1350 C1356 0.949 . S
C1351 H1346 0.950 . S
C1351 C1353 1.327 . S
C1351 C1357 1.429 . S
C1352 C1344 1.574 . S
C1352 H1347 0.949 . S
C1352 C1358 1.368 . S
C1353 C1337 1.349 . S
C1353 H1345 0.950 . S
C1353 C1351 1.327 . S
C1354 C1342 1.349 . S
C1354 H1348 0.950 . S
C1354 C1355 1.327 . S
C1355 H1349 0.950 . S
C1355 C1354 1.327 . S
C1355 C1359 1.429 . S
C1356 C1339 1.574 . S
C1356 H1350 0.949 . S
C1356 C1360 1.368 . S
C1357 C1338 1.429 . S
C1357 C1351 1.429 . S
C1357 C1358 1.523 . S
C1358 C1339 1.368 . S
C1358 C1352 1.368 . S
C1358 C1357 1.523 . S
C1359 C1343 1.450 . S
C1359 C1355 1.429 . S
C1359 C1360 1.523 1_455 S
C1360 C1344 1.368 . S
C1360 C1356 1.368 . S
C1360 C1359 1.523 1_655 S
H1361 C1336 0.950 . S
H1362 C1338 0.950 . S
H1363 C1339 0.949 . S
H1364 C1341 0.950 . S
H1365 C1343 0.909 1_655 S
C1366 C1367 1.349 . S
C1366 C1368 1.327 . S
C1366 H1391 0.950 . S
C1367 C1366 1.349 . S
C1367 C1383 1.349 . S
C1368 C1366 1.327 . S
C1368 C1387 1.429 . S
C1368 H1392 0.950 . S
C1369 C1386 1.574 . S
C1369 C1388 1.368 . S
C1369 H1393 0.949 . S
H1370 C1374 0.949 . S
C1371 C1372 1.349 . S
C1371 C1373 1.327 . S
C1371 H1394 0.950 . S
C1372 C1371 1.349 . S
C1372 C1384 1.349 . S
C1373 C1371 1.327 . S
C1373 C1389 1.429 . S
C1373 H1395 0.950 . S
C1374 H1370 0.949 . S
C1374 C1382 1.574 . S
C1374 C1390 1.368 . S
H1375 C1383 0.950 . S
H1376 C1381 0.950 . S
H1377 C1382 0.949 . S
H1378 C1384 0.950 . S
H1379 C1385 0.950 . S
H1380 C1386 0.949 . S
C1381 H1376 0.950 . S
C1381 C1383 1.327 . S
C1381 C1387 1.429 . S
C1382 C1374 1.574 . S
C1382 H1377 0.949 . S
C1382 C1388 1.368 . S
C1383 C1367 1.349 . S
C1383 H1375 0.950 . S
C1383 C1381 1.327 . S
C1384 C1372 1.349 . S
C1384 H1378 0.950 . S
C1384 C1385 1.327 . S
C1385 H1379 0.950 . S
C1385 C1384 1.327 . S
C1385 C1389 1.429 . S
C1386 C1369 1.574 . S
C1386 H1380 0.949 . S
C1386 C1390 1.368 . S
C1387 C1368 1.429 . S
C1387 C1381 1.429 . S
C1387 C1388 1.523 . S
C1388 C1369 1.368 . S
C1388 C1382 1.368 . S
C1388 C1387 1.523 . S
C1389 C1373 1.429 . S
C1389 C1385 1.429 . S
C1389 C1390 1.523 . S
C1390 C1374 1.368 . S
C1390 C1386 1.368 . S
C1390 C1389 1.523 . S
H1391 C1366 0.950 . S
H1392 C1368 0.950 . S
H1393 C1369 0.949 . S
H1394 C1371 0.950 . S
H1395 C1373 0.950 . S
C1396 C1397 1.349 . S
C1396 C1398 1.327 . S
C1396 H1421 0.950 . S
C1397 C1396 1.349 . S
C1397 C1413 1.349 . S
C1398 C1396 1.327 . S
C1398 C1417 1.429 . S
C1398 H1422 0.950 . S
C1399 C1416 1.574 . S
C1399 C1418 1.368 . S
C1399 H1423 0.949 . S
H1400 C1404 0.949 . S
C1401 C1402 1.349 . S
C1401 C1403 1.327 . S
C1401 H1424 0.950 . S
C1402 C1401 1.349 . S
C1402 C1414 1.349 . S
C1403 C1401 1.327 . S
C1403 C1419 1.429 . S
C1403 H1425 0.950 . S
C1404 H1400 0.949 . S
C1404 C1412 1.574 . S
C1404 C1420 1.368 . S
H1405 C1413 0.950 . S
H1406 C1411 0.950 . S
H1407 C1412 0.949 . S
H1408 C1414 0.950 . S
H1409 C1415 0.950 . S
H1410 C1416 0.949 . S
C1411 H1406 0.950 . S
C1411 C1413 1.327 . S
C1411 C1417 1.429 . S
C1412 C1404 1.574 . S
C1412 H1407 0.949 . S
C1412 C1418 1.368 . S
C1413 C1397 1.349 . S
C1413 H1405 0.950 . S
C1413 C1411 1.327 . S
C1414 C1402 1.349 . S
C1414 H1408 0.950 . S
C1414 C1415 1.327 . S
C1415 H1409 0.950 . S
C1415 C1414 1.327 . S
C1415 C1419 1.429 . S
C1416 C1399 1.574 . S
C1416 H1410 0.949 . S
C1416 C1420 1.368 . S
C1417 C1398 1.429 . S
C1417 C1411 1.429 . S
C1417 C1418 1.523 . S
C1418 C1399 1.368 . S
C1418 C1412 1.368 . S
C1418 C1417 1.523 . S
C1419 C1403 1.429 . S
C1419 C1415 1.429 . S
C1419 C1420 1.523 . S
C1420 C1404 1.368 . S
C1420 C1416 1.368 . S
C1420 C1419 1.523 . S
H1421 C1396 0.950 . S
H1422 C1398 0.950 . S
H1423 C1399 0.949 . S
H1424 C1401 0.950 . S
H1425 C1403 0.950 . S
C1426 C1427 1.349 . S
C1426 C1428 1.327 . S
C1426 H1451 0.950 . S
C1427 C1426 1.349 . S
C1427 C1443 1.349 . S
C1428 C1426 1.327 . S
C1428 C1447 1.429 . S
C1428 H1452 0.950 . S
C1429 C1446 1.574 . S
C1429 C1448 1.368 . S
C1429 H1453 0.949 . S
H1430 C1434 0.949 . S
C1431 C1432 1.349 . S
C1431 C1433 1.327 . S
C1431 H1454 0.950 . S
C1432 C1431 1.349 . S
C1432 C1444 1.349 . S
C1433 C1431 1.327 . S
C1433 C1449 1.429 . S
C1433 H1455 0.950 . S
C1434 H1430 0.949 . S
C1434 C1442 1.574 . S
C1434 C1450 1.368 . S
H1435 C1443 0.950 . S
H1436 C1441 0.950 . S
H1437 C1442 0.949 . S
H1438 C1444 0.950 . S
H1439 C1445 0.950 . S
H1440 C1446 0.949 . S
C1441 H1436 0.950 . S
C1441 C1443 1.327 . S
C1441 C1447 1.429 . S
C1442 C1434 1.574 . S
C1442 H1437 0.949 . S
C1442 C1448 1.368 . S
C1443 C1427 1.349 . S
C1443 H1435 0.950 . S
C1443 C1441 1.327 . S
C1444 C1432 1.349 . S
C1444 H1438 0.950 . S
C1444 C1445 1.327 . S
C1445 H1439 0.950 . S
C1445 C1444 1.327 . S
C1445 C1449 1.429 . S
C1446 C1429 1.574 . S
C1446 H1440 0.949 . S
C1446 C1450 1.368 . S
C1447 C1428 1.429 . S
C1447 C1441 1.429 . S
C1447 C1448 1.523 . S
C1448 C1429 1.368 . S
C1448 C1442 1.368 . S
C1448 C1447 1.523 . S
C1449 C1433 1.429 . S
C1449 C1445 1.429 . S
C1449 C1450 1.523 . S
C1450 C1434 1.368 . S
C1450 C1446 1.368 . S
C1450 C1449 1.523 . S
H1451 C1426 0.950 . S
H1452 C1428 0.950 . S
H1453 C1429 0.949 . S
H1454 C1431 0.950 . S
H1455 C1433 0.950 . S
C1456 C1457 1.350 . S
C1456 C1458 1.327 . S
C1456 H1481 0.950 . S
C1457 C1456 1.350 . S
C1457 C1473 1.347 1_556 S
C1458 C1456 1.327 . S
C1458 C1477 1.429 1_556 S
C1458 H1482 0.950 . S
C1459 C1476 1.574 . S
C1459 C1478 1.368 . S
C1459 H1483 0.949 . S
H1460 C1464 0.949 . S
C1461 C1462 1.380 . S
C1461 C1463 1.327 . S
C1461 H1484 0.950 . S
C1462 C1461 1.380 . S
C1462 C1474 1.341 1_565 S
C1463 C1461 1.327 . S
C1463 C1479 1.429 . S
C1463 H1485 0.950 . S
C1464 H1460 0.949 . S
C1464 C1472 1.574 . S
C1464 C1480 1.368 . S
H1465 C1473 0.950 . S
H1466 C1471 0.950 . S
H1467 C1472 0.908 1_556 S
H1468 C1474 0.950 . S
H1469 C1475 0.935 1_545 S
H1470 C1476 0.949 . S
C1471 H1466 0.950 . S
C1471 C1473 1.327 . S
C1471 C1477 1.429 . S
C1472 C1464 1.574 . S
C1472 H1467 0.908 1_554 S
C1472 C1478 1.368 . S
C1473 C1457 1.347 1_554 S
C1473 H1465 0.950 . S
C1473 C1471 1.327 . S
C1474 C1462 1.341 1_545 S
C1474 H1468 0.950 . S
C1474 C1475 1.327 1_545 S
C1475 H1469 0.935 1_565 S
C1475 C1474 1.327 1_565 S
C1475 C1479 1.429 . S
C1476 C1459 1.574 . S
C1476 H1470 0.949 . S
C1476 C1480 1.368 . S
C1477 C1458 1.429 1_554 S
C1477 C1471 1.429 . S
C1477 C1478 1.523 . S
C1478 C1459 1.368 . S
C1478 C1472 1.368 . S
C1478 C1477 1.523 . S
C1479 C1463 1.429 . S
C1479 C1475 1.429 . S
C1479 C1480 1.523 . S
C1480 C1464 1.368 . S
C1480 C1476 1.368 . S
C1480 C1479 1.523 . S
H1481 C1456 0.950 . S
H1482 C1458 0.950 . S
H1483 C1459 0.949 . S
H1484 C1461 0.950 . S
H1485 C1463 0.950 . S
C1486 C1487 1.349 . S
C1486 C1488 1.327 . S
C1486 H1511 0.950 . S
C1487 C1486 1.349 . S
C1487 C1503 1.349 . S
C1488 C1486 1.327 . S
C1488 C1507 1.429 . S
C1488 H1512 0.950 . S
C1489 C1506 1.574 . S
C1489 C1508 1.368 . S
C1489 H1513 0.949 . S
H1490 C1494 0.949 . S
C1491 C1492 1.349 . S
C1491 C1493 1.327 . S
C1491 H1514 0.950 . S
C1492 C1491 1.349 . S
C1492 C1504 1.349 . S
C1493 C1491 1.327 . S
C1493 C1509 1.429 . S
C1493 H1515 0.950 . S
C1494 H1490 0.949 . S
C1494 C1502 1.574 . S
C1494 C1510 1.368 . S
H1495 C1503 0.950 . S
H1496 C1501 0.950 . S
H1497 C1502 0.949 . S
H1498 C1504 0.950 . S
H1499 C1505 0.950 . S
H1500 C1506 0.949 . S
C1501 H1496 0.950 . S
C1501 C1503 1.327 . S
C1501 C1507 1.429 . S
C1502 C1494 1.574 . S
C1502 H1497 0.949 . S
C1502 C1508 1.368 . S
C1503 C1487 1.349 . S
C1503 H1495 0.950 . S
C1503 C1501 1.327 . S
C1504 C1492 1.349 . S
C1504 H1498 0.950 . S
C1504 C1505 1.327 . S
C1505 H1499 0.950 . S
C1505 C1504 1.327 . S
C1505 C1509 1.429 . S
C1506 C1489 1.574 . S
C1506 H1500 0.949 . S
C1506 C1510 1.368 . S
C1507 C1488 1.429 . S
C1507 C1501 1.429 . S
C1507 C1508 1.523 . S
C1508 C1489 1.368 . S
C1508 C1502 1.368 . S
C1508 C1507 1.523 . S
C1509 C1493 1.429 . S
C1509 C1505 1.429 . S
C1509 C1510 1.523 . S
C1510 C1494 1.368 . S
C1510 C1506 1.368 . S
C1510 C1509 1.523 . S
H1511 C1486 0.950 . S
H1512 C1488 0.950 . S
H1513 C1489 0.949 . S
H1514 C1491 0.950 . S
H1515 C1493 0.950 . S
C1516 C1517 1.349 . S
C1516 C1518 1.327 . S
C1516 H1541 0.950 . S
C1517 C1516 1.349 . S
C1517 C1533 1.349 . S
C1518 C1516 1.327 . S
C1518 C1537 1.429 . S
C1518 H1542 0.950 . S
C1519 C1536 1.574 . S
C1519 C1538 1.368 . S
C1519 H1543 0.949 . S
H1520 C1524 0.949 . S
C1521 C1522 1.349 . S
C1521 C1523 1.327 . S
C1521 H1544 0.950 . S
C1522 C1521 1.349 . S
C1522 C1534 1.349 . S
C1523 C1521 1.327 . S
C1523 C1539 1.429 . S
C1523 H1545 0.950 . S
C1524 H1520 0.949 . S
C1524 C1532 1.574 . S
C1524 C1540 1.368 . S
H1525 C1533 0.950 . S
H1526 C1531 0.950 . S
H1527 C1532 0.949 . S
H1528 C1534 0.950 . S
H1529 C1535 0.950 . S
H1530 C1536 0.949 . S
C1531 H1526 0.950 . S
C1531 C1533 1.327 . S
C1531 C1537 1.429 . S
C1532 C1524 1.574 . S
C1532 H1527 0.949 . S
C1532 C1538 1.368 . S
C1533 C1517 1.349 . S
C1533 H1525 0.950 . S
C1533 C1531 1.327 . S
C1534 C1522 1.349 . S
C1534 H1528 0.950 . S
C1534 C1535 1.327 . S
C1535 H1529 0.950 . S
C1535 C1534 1.327 . S
C1535 C1539 1.429 . S
C1536 C1519 1.574 . S
C1536 H1530 0.949 . S
C1536 C1540 1.368 . S
C1537 C1518 1.429 . S
C1537 C1531 1.429 . S
C1537 C1538 1.523 . S
C1538 C1519 1.368 . S
C1538 C1532 1.368 . S
C1538 C1537 1.523 . S
C1539 C1523 1.429 . S
C1539 C1535 1.429 . S
C1539 C1540 1.523 . S
C1540 C1524 1.368 . S
C1540 C1536 1.368 . S
C1540 C1539 1.523 . S
H1541 C1516 0.950 . S
H1542 C1518 0.950 . S
H1543 C1519 0.949 . S
H1544 C1521 0.950 . S
H1545 C1523 0.950 . S
C1546 C1547 1.349 . S
C1546 C1548 1.327 . S
C1546 H1571 0.950 . S
C1547 C1546 1.349 . S
C1547 C1563 1.349 . S
C1548 C1546 1.327 . S
C1548 C1567 1.429 . S
C1548 H1572 0.950 . S
C1549 C1566 1.574 . S
C1549 C1568 1.368 . S
C1549 H1573 0.949 . S
H1550 C1554 0.949 . S
C1551 C1552 1.349 . S
C1551 C1553 1.327 . S
C1551 H1574 0.950 . S
C1552 C1551 1.349 . S
C1552 C1564 1.349 . S
C1553 C1551 1.327 . S
C1553 C1569 1.429 . S
C1553 H1575 0.950 . S
C1554 H1550 0.949 . S
C1554 C1562 1.574 . S
C1554 C1570 1.368 . S
H1555 C1563 0.950 . S
H1556 C1561 0.950 . S
H1557 C1562 0.949 . S
H1558 C1564 0.950 . S
H1559 C1565 0.950 . S
H1560 C1566 0.949 . S
C1561 H1556 0.950 . S
C1561 C1563 1.327 . S
C1561 C1567 1.429 . S
C1562 C1554 1.574 . S
C1562 H1557 0.949 . S
C1562 C1568 1.368 . S
C1563 C1547 1.349 . S
C1563 H1555 0.950 . S
C1563 C1561 1.327 . S
C1564 C1552 1.349 . S
C1564 H1558 0.950 . S
C1564 C1565 1.327 . S
C1565 H1559 0.950 . S
C1565 C1564 1.327 . S
C1565 C1569 1.429 . S
C1566 C1549 1.574 . S
C1566 H1560 0.949 . S
C1566 C1570 1.368 . S
C1567 C1548 1.429 . S
C1567 C1561 1.429 . S
C1567 C1568 1.523 . S
C1568 C1549 1.368 . S
C1568 C1562 1.368 . S
C1568 C1567 1.523 . S
C1569 C1553 1.429 . S
C1569 C1565 1.429 . S
C1569 C1570 1.523 . S
C1570 C1554 1.368 . S
C1570 C1566 1.368 . S
C1570 C1569 1.523 . S
H1571 C1546 0.950 . S
H1572 C1548 0.950 . S
H1573 C1549 0.949 . S
H1574 C1551 0.950 . S
H1575 C1553 0.950 . S
C1576 C1577 1.349 . S
C1576 C1578 1.327 . S
C1576 H1601 0.950 . S
C1577 C1576 1.349 . S
C1577 C1593 1.349 . S
C1578 C1576 1.327 . S
C1578 C1597 1.429 . S
C1578 H1602 0.950 . S
C1579 C1596 1.574 . S
C1579 C1598 1.368 . S
C1579 H1603 0.949 . S
H1580 C1584 0.949 . S
C1581 C1582 1.349 . S
C1581 C1583 1.327 . S
C1581 H1604 0.950 . S
C1582 C1581 1.349 . S
C1582 C1594 1.349 . S
C1583 C1581 1.327 . S
C1583 C1599 1.429 . S
C1583 H1605 0.950 . S
C1584 H1580 0.949 . S
C1584 C1592 1.574 . S
C1584 C1600 1.368 . S
H1585 C1593 0.950 . S
H1586 C1591 0.950 . S
H1587 C1592 0.949 . S
H1588 C1594 0.950 . S
H1589 C1595 0.950 . S
H1590 C1596 0.949 . S
C1591 H1586 0.950 . S
C1591 C1593 1.327 . S
C1591 C1597 1.429 . S
C1592 C1584 1.574 . S
C1592 H1587 0.949 . S
C1592 C1598 1.368 . S
C1593 C1577 1.349 . S
C1593 H1585 0.950 . S
C1593 C1591 1.327 . S
C1594 C1582 1.349 . S
C1594 H1588 0.950 . S
C1594 C1595 1.327 . S
C1595 H1589 0.950 . S
C1595 C1594 1.327 . S
C1595 C1599 1.429 . S
C1596 C1579 1.574 . S
C1596 H1590 0.949 . S
C1596 C1600 1.368 . S
C1597 C1578 1.429 . S
C1597 C1591 1.429 . S
C1597 C1598 1.523 . S
C1598 C1579 1.368 . S
C1598 C1592 1.368 . S
C1598 C1597 1.523 . S
C1599 C1583 1.429 . S
C1599 C1595 1.429 . S
C1599 C1600 1.523 . S
C1600 C1584 1.368 . S
C1600 C1596 1.368 . S
C1600 C1599 1.523 . S
H1601 C1576 0.950 . S
H1602 C1578 0.950 . S
H1603 C1579 0.949 . S
H1604 C1581 0.950 . S
H1605 C1583 0.950 . S
C1606 C1607 1.349 . S
C1606 C1608 1.327 . S
C1606 H1631 0.950 . S
C1607 C1606 1.349 . S
C1607 C1623 1.349 . S
C1608 C1606 1.327 . S
C1608 C1627 1.429 . S
C1608 H1632 0.950 . S
C1609 C1626 1.574 . S
C1609 C1628 1.368 . S
C1609 H1633 0.949 . S
H1610 C1614 0.949 . S
C1611 C1612 1.349 . S
C1611 C1613 1.327 . S
C1611 H1634 0.950 . S
C1612 C1611 1.349 . S
C1612 C1624 1.349 . S
C1613 C1611 1.327 . S
C1613 C1629 1.429 . S
C1613 H1635 0.950 . S
C1614 H1610 0.949 . S
C1614 C1622 1.574 . S
C1614 C1630 1.368 . S
H1615 C1623 0.950 . S
H1616 C1621 0.950 . S
H1617 C1622 0.949 . S
H1618 C1624 0.950 . S
H1619 C1625 0.950 . S
H1620 C1626 0.949 . S
C1621 H1616 0.950 . S
C1621 C1623 1.327 . S
C1621 C1627 1.429 . S
C1622 C1614 1.574 . S
C1622 H1617 0.949 . S
C1622 C1628 1.368 . S
C1623 C1607 1.349 . S
C1623 H1615 0.950 . S
C1623 C1621 1.327 . S
C1624 C1612 1.349 . S
C1624 H1618 0.950 . S
C1624 C1625 1.327 . S
C1625 H1619 0.950 . S
C1625 C1624 1.327 . S
C1625 C1629 1.429 . S
C1626 C1609 1.574 . S
C1626 H1620 0.949 . S
C1626 C1630 1.368 . S
C1627 C1608 1.429 . S
C1627 C1621 1.429 . S
C1627 C1628 1.523 . S
C1628 C1609 1.368 . S
C1628 C1622 1.368 . S
C1628 C1627 1.523 . S
C1629 C1613 1.429 . S
C1629 C1625 1.429 . S
C1629 C1630 1.523 . S
C1630 C1614 1.368 . S
C1630 C1626 1.368 . S
C1630 C1629 1.523 . S
H1631 C1606 0.950 . S
H1632 C1608 0.950 . S
H1633 C1609 0.949 . S
H1634 C1611 0.950 . S
H1635 C1613 0.950 . S
C1636 C1637 1.349 . S
C1636 C1638 1.327 . S
C1636 H1661 0.950 . S
C1637 C1636 1.349 . S
C1637 C1653 1.349 . S
C1638 C1636 1.327 . S
C1638 C1657 1.429 . S
C1638 H1662 0.950 . S
C1639 C1656 1.574 . S
C1639 C1658 1.368 . S
C1639 H1663 0.949 . S
H1640 C1644 0.949 . S
C1641 C1642 1.349 . S
C1641 C1643 1.327 . S
C1641 H1664 0.950 . S
C1642 C1641 1.349 . S
C1642 C1654 1.349 . S
C1643 C1641 1.327 . S
C1643 C1659 1.429 . S
C1643 H1665 0.950 . S
C1644 H1640 0.949 . S
C1644 C1652 1.574 . S
C1644 C1660 1.368 . S
H1645 C1653 0.950 . S
H1646 C1651 0.950 . S
H1647 C1652 0.949 . S
H1648 C1654 0.950 . S
H1649 C1655 0.950 . S
H1650 C1656 0.949 . S
C1651 H1646 0.950 . S
C1651 C1653 1.327 . S
C1651 C1657 1.429 . S
C1652 C1644 1.574 . S
C1652 H1647 0.949 . S
C1652 C1658 1.368 . S
C1653 C1637 1.349 . S
C1653 H1645 0.950 . S
C1653 C1651 1.327 . S
C1654 C1642 1.349 . S
C1654 H1648 0.950 . S
C1654 C1655 1.327 . S
C1655 H1649 0.950 . S
C1655 C1654 1.327 . S
C1655 C1659 1.429 . S
C1656 C1639 1.574 . S
C1656 H1650 0.949 . S
C1656 C1660 1.368 . S
C1657 C1638 1.429 . S
C1657 C1651 1.429 . S
C1657 C1658 1.523 . S
C1658 C1639 1.368 . S
C1658 C1652 1.368 . S
C1658 C1657 1.523 . S
C1659 C1643 1.429 . S
C1659 C1655 1.429 . S
C1659 C1660 1.523 . S
C1660 C1644 1.368 . S
C1660 C1656 1.368 . S
C1660 C1659 1.523 . S
H1661 C1636 0.950 . S
H1662 C1638 0.950 . S
H1663 C1639 0.949 . S
H1664 C1641 0.950 . S
H1665 C1643 0.950 . S
C1666 C1667 1.349 . S
C1666 C1668 1.327 . S
C1666 H1691 0.950 . S
C1667 C1666 1.349 . S
C1667 C1683 1.349 . S
C1668 C1666 1.327 . S
C1668 C1687 1.429 . S
C1668 H1692 0.950 . S
C1669 C1686 1.574 . S
C1669 C1688 1.368 . S
C1669 H1693 0.949 . S
H1670 C1674 0.949 . S
C1671 C1672 1.349 . S
C1671 C1673 1.327 . S
C1671 H1694 0.950 . S
C1672 C1671 1.349 . S
C1672 C1684 1.349 . S
C1673 C1671 1.327 . S
C1673 C1689 1.429 . S
C1673 H1695 0.950 . S
C1674 H1670 0.949 . S
C1674 C1682 1.574 . S
C1674 C1690 1.368 . S
H1675 C1683 0.950 . S
H1676 C1681 0.950 . S
H1677 C1682 0.949 . S
H1678 C1684 0.950 . S
H1679 C1685 0.950 . S
H1680 C1686 0.949 . S
C1681 H1676 0.950 . S
C1681 C1683 1.327 . S
C1681 C1687 1.429 . S
C1682 C1674 1.574 . S
C1682 H1677 0.949 . S
C1682 C1688 1.368 . S
C1683 C1667 1.349 . S
C1683 H1675 0.950 . S
C1683 C1681 1.327 . S
C1684 C1672 1.349 . S
C1684 H1678 0.950 . S
C1684 C1685 1.327 . S
C1685 H1679 0.950 . S
C1685 C1684 1.327 . S
C1685 C1689 1.429 . S
C1686 C1669 1.574 . S
C1686 H1680 0.949 . S
C1686 C1690 1.368 . S
C1687 C1668 1.429 . S
C1687 C1681 1.429 . S
C1687 C1688 1.523 . S
C1688 C1669 1.368 . S
C1688 C1682 1.368 . S
C1688 C1687 1.523 . S
C1689 C1673 1.429 . S
C1689 C1685 1.429 . S
C1689 C1690 1.523 . S
C1690 C1674 1.368 . S
C1690 C1686 1.368 . S
C1690 C1689 1.523 . S
H1691 C1666 0.950 . S
H1692 C1668 0.950 . S
H1693 C1669 0.949 . S
H1694 C1671 0.950 . S
H1695 C1673 0.950 . S
C1696 C1697 1.349 . S
C1696 C1698 1.327 . S
C1696 H1721 0.950 . S
C1697 C1696 1.349 . S
C1697 C1713 1.349 . S
C1698 C1696 1.327 . S
C1698 C1717 1.429 . S
C1698 H1722 0.950 . S
C1699 C1716 1.574 . S
C1699 C1718 1.368 . S
C1699 H1723 0.949 . S
H1700 C1704 0.949 . S
C1701 C1702 1.349 . S
C1701 C1703 1.327 . S
C1701 H1724 0.950 . S
C1702 C1701 1.349 . S
C1702 C1714 1.349 . S
C1703 C1701 1.327 . S
C1703 C1719 1.429 . S
C1703 H1725 0.950 . S
C1704 H1700 0.949 . S
C1704 C1712 1.574 . S
C1704 C1720 1.368 . S
H1705 C1713 0.950 . S
H1706 C1711 0.950 . S
H1707 C1712 0.949 . S
H1708 C1714 0.950 . S
H1709 C1715 0.950 . S
H1710 C1716 0.949 . S
C1711 H1706 0.950 . S
C1711 C1713 1.327 . S
C1711 C1717 1.429 . S
C1712 C1704 1.574 . S
C1712 H1707 0.949 . S
C1712 C1718 1.368 . S
C1713 C1697 1.349 . S
C1713 H1705 0.950 . S
C1713 C1711 1.327 . S
C1714 C1702 1.349 . S
C1714 H1708 0.950 . S
C1714 C1715 1.327 . S
C1715 H1709 0.950 . S
C1715 C1714 1.327 . S
C1715 C1719 1.429 . S
C1716 C1699 1.574 . S
C1716 H1710 0.949 . S
C1716 C1720 1.368 . S
C1717 C1698 1.429 . S
C1717 C1711 1.429 . S
C1717 C1718 1.523 . S
C1718 C1699 1.368 . S
C1718 C1712 1.368 . S
C1718 C1717 1.523 . S
C1719 C1703 1.429 . S
C1719 C1715 1.429 . S
C1719 C1720 1.523 . S
C1720 C1704 1.368 . S
C1720 C1716 1.368 . S
C1720 C1719 1.523 . S
H1721 C1696 0.950 . S
H1722 C1698 0.950 . S
H1723 C1699 0.949 . S
H1724 C1701 0.950 . S
H1725 C1703 0.950 . S
C1726 C1727 1.349 . S
C1726 C1728 1.327 . S
C1726 H1751 0.950 . S
C1727 C1726 1.349 . S
C1727 C1743 1.349 . S
C1728 C1726 1.327 . S
C1728 C1747 1.429 . S
C1728 H1752 0.950 . S
C1729 C1746 1.574 . S
C1729 C1748 1.368 . S
C1729 H1753 0.949 . S
H1730 C1734 0.949 . S
C1731 C1732 1.349 . S
C1731 C1733 1.327 . S
C1731 H1754 0.950 . S
C1732 C1731 1.349 . S
C1732 C1744 1.349 . S
C1733 C1731 1.327 . S
C1733 C1749 1.429 . S
C1733 H1755 0.950 . S
C1734 H1730 0.949 . S
C1734 C1742 1.574 . S
C1734 C1750 1.368 . S
H1735 C1743 0.950 . S
H1736 C1741 0.950 . S
H1737 C1742 0.949 . S
H1738 C1744 0.950 . S
H1739 C1745 0.950 . S
H1740 C1746 0.949 . S
C1741 H1736 0.950 . S
C1741 C1743 1.327 . S
C1741 C1747 1.429 . S
C1742 C1734 1.574 . S
C1742 H1737 0.949 . S
C1742 C1748 1.368 . S
C1743 C1727 1.349 . S
C1743 H1735 0.950 . S
C1743 C1741 1.327 . S
C1744 C1732 1.349 . S
C1744 H1738 0.950 . S
C1744 C1745 1.327 . S
C1745 H1739 0.950 . S
C1745 C1744 1.327 . S
C1745 C1749 1.429 . S
C1746 C1729 1.574 . S
C1746 H1740 0.949 . S
C1746 C1750 1.368 . S
C1747 C1728 1.429 . S
C1747 C1741 1.429 . S
C1747 C1748 1.523 . S
C1748 C1729 1.368 . S
C1748 C1742 1.368 . S
C1748 C1747 1.523 . S
C1749 C1733 1.429 . S
C1749 C1745 1.429 . S
C1749 C1750 1.523 . S
C1750 C1734 1.368 . S
C1750 C1746 1.368 . S
C1750 C1749 1.523 . S
H1751 C1726 0.950 . S
H1752 C1728 0.950 . S
H1753 C1729 0.949 . S
H1754 C1731 0.950 . S
H1755 C1733 0.950 . S
C1756 C1757 1.349 . S
C1756 C1758 1.327 . S
C1756 H1781 0.950 . S
C1757 C1756 1.349 . S
C1757 C1773 1.349 . S
C1758 C1756 1.327 . S
C1758 C1777 1.429 . S
C1758 H1782 0.950 . S
C1759 C1776 1.574 . S
C1759 C1778 1.368 . S
C1759 H1783 0.949 . S
H1760 C1764 0.949 . S
C1761 C1762 1.349 . S
C1761 C1763 1.327 . S
C1761 H1784 0.950 . S
C1762 C1761 1.349 . S
C1762 C1774 1.349 . S
C1763 C1761 1.327 . S
C1763 C1779 1.429 . S
C1763 H1785 0.950 . S
C1764 H1760 0.949 . S
C1764 C1772 1.574 . S
C1764 C1780 1.368 . S
H1765 C1773 0.950 . S
H1766 C1771 0.950 . S
H1767 C1772 0.949 . S
H1768 C1774 0.950 . S
H1769 C1775 0.950 . S
H1770 C1776 0.949 . S
C1771 H1766 0.950 . S
C1771 C1773 1.327 . S
C1771 C1777 1.429 . S
C1772 C1764 1.574 . S
C1772 H1767 0.949 . S
C1772 C1778 1.368 . S
C1773 C1757 1.349 . S
C1773 H1765 0.950 . S
C1773 C1771 1.327 . S
C1774 C1762 1.349 . S
C1774 H1768 0.950 . S
C1774 C1775 1.327 . S
C1775 H1769 0.950 . S
C1775 C1774 1.327 . S
C1775 C1779 1.429 . S
C1776 C1759 1.574 . S
C1776 H1770 0.949 . S
C1776 C1780 1.368 . S
C1777 C1758 1.429 . S
C1777 C1771 1.429 . S
C1777 C1778 1.523 . S
C1778 C1759 1.368 . S
C1778 C1772 1.368 . S
C1778 C1777 1.523 . S
C1779 C1763 1.429 . S
C1779 C1775 1.429 . S
C1779 C1780 1.523 . S
C1780 C1764 1.368 . S
C1780 C1776 1.368 . S
C1780 C1779 1.523 . S
H1781 C1756 0.950 . S
H1782 C1758 0.950 . S
H1783 C1759 0.949 . S
H1784 C1761 0.950 . S
H1785 C1763 0.950 . S
C1786 C1787 1.349 . S
C1786 C1788 1.327 . S
C1786 H1811 0.950 . S
C1787 C1786 1.349 . S
C1787 C1803 1.349 . S
C1788 C1786 1.327 . S
C1788 C1807 1.429 . S
C1788 H1812 0.950 . S
C1789 C1806 1.574 . S
C1789 C1808 1.368 . S
C1789 H1813 0.949 . S
H1790 C1794 0.949 . S
C1791 C1792 1.349 . S
C1791 C1793 1.327 . S
C1791 H1814 0.950 . S
C1792 C1791 1.349 . S
C1792 C1804 1.349 . S
C1793 C1791 1.327 . S
C1793 C1809 1.429 . S
C1793 H1815 0.950 . S
C1794 H1790 0.949 . S
C1794 C1802 1.574 . S
C1794 C1810 1.368 . S
H1795 C1803 0.950 . S
H1796 C1801 0.950 . S
H1797 C1802 0.949 . S
H1798 C1804 0.950 . S
H1799 C1805 0.950 . S
H1800 C1806 0.949 . S
C1801 H1796 0.950 . S
C1801 C1803 1.327 . S
C1801 C1807 1.429 . S
C1802 C1794 1.574 . S
C1802 H1797 0.949 . S
C1802 C1808 1.368 . S
C1803 C1787 1.349 . S
C1803 H1795 0.950 . S
C1803 C1801 1.327 . S
C1804 C1792 1.349 . S
C1804 H1798 0.950 . S
C1804 C1805 1.327 . S
C1805 H1799 0.950 . S
C1805 C1804 1.327 . S
C1805 C1809 1.429 . S
C1806 C1789 1.574 . S
C1806 H1800 0.949 . S
C1806 C1810 1.368 . S
C1807 C1788 1.429 . S
C1807 C1801 1.429 . S
C1807 C1808 1.523 . S
C1808 C1789 1.368 . S
C1808 C1802 1.368 . S
C1808 C1807 1.523 . S
C1809 C1793 1.429 . S
C1809 C1805 1.429 . S
C1809 C1810 1.523 . S
C1810 C1794 1.368 . S
C1810 C1806 1.368 . S
C1810 C1809 1.523 . S
H1811 C1786 0.950 . S
H1812 C1788 0.950 . S
H1813 C1789 0.949 . S
H1814 C1791 0.950 . S
H1815 C1793 0.950 . S
C1816 C1817 1.349 . S
C1816 C1818 1.327 . S
C1816 H1841 0.950 . S
C1817 C1816 1.349 . S
C1817 C1833 1.349 . S
C1818 C1816 1.327 . S
C1818 C1837 1.429 . S
C1818 H1842 0.950 . S
C1819 C1836 1.574 . S
C1819 C1838 1.368 . S
C1819 H1843 0.949 . S
H1820 C1824 0.949 . S
C1821 C1822 1.349 . S
C1821 C1823 1.327 . S
C1821 H1844 0.950 . S
C1822 C1821 1.349 . S
C1822 C1834 1.349 . S
C1823 C1821 1.327 . S
C1823 C1839 1.429 . S
C1823 H1845 0.950 . S
C1824 H1820 0.949 . S
C1824 C1832 1.574 . S
C1824 C1840 1.368 . S
H1825 C1833 0.950 . S
H1826 C1831 0.950 . S
H1827 C1832 0.949 . S
H1828 C1834 0.950 . S
H1829 C1835 0.950 . S
H1830 C1836 0.949 . S
C1831 H1826 0.950 . S
C1831 C1833 1.327 . S
C1831 C1837 1.429 . S
C1832 C1824 1.574 . S
C1832 H1827 0.949 . S
C1832 C1838 1.368 . S
C1833 C1817 1.349 . S
C1833 H1825 0.950 . S
C1833 C1831 1.327 . S
C1834 C1822 1.349 . S
C1834 H1828 0.950 . S
C1834 C1835 1.327 . S
C1835 H1829 0.950 . S
C1835 C1834 1.327 . S
C1835 C1839 1.429 . S
C1836 C1819 1.574 . S
C1836 H1830 0.949 . S
C1836 C1840 1.368 . S
C1837 C1818 1.429 . S
C1837 C1831 1.429 . S
C1837 C1838 1.523 . S
C1838 C1819 1.368 . S
C1838 C1832 1.368 . S
C1838 C1837 1.523 . S
C1839 C1823 1.429 . S
C1839 C1835 1.429 . S
C1839 C1840 1.523 . S
C1840 C1824 1.368 . S
C1840 C1836 1.368 . S
C1840 C1839 1.523 . S
H1841 C1816 0.950 . S
H1842 C1818 0.950 . S
H1843 C1819 0.949 . S
H1844 C1821 0.950 . S
H1845 C1823 0.950 . S
C1846 C1847 1.349 . S
C1846 C1848 1.327 . S
C1846 H1871 0.950 . S
C1847 C1846 1.349 . S
C1847 C1863 1.349 . S
C1848 C1846 1.327 . S
C1848 C1867 1.429 . S
C1848 H1872 0.950 . S
C1849 C1866 1.574 . S
C1849 C1868 1.368 . S
C1849 H1873 0.949 . S
H1850 C1854 0.949 . S
C1851 C1852 1.349 . S
C1851 C1853 1.327 . S
C1851 H1874 0.950 . S
C1852 C1851 1.349 . S
C1852 C1864 1.349 . S
C1853 C1851 1.327 . S
C1853 C1869 1.429 . S
C1853 H1875 0.950 . S
C1854 H1850 0.949 . S
C1854 C1862 1.574 . S
C1854 C1870 1.368 . S
H1855 C1863 0.950 . S
H1856 C1861 0.950 . S
H1857 C1862 0.949 . S
H1858 C1864 0.950 . S
H1859 C1865 0.950 . S
H1860 C1866 0.949 . S
C1861 H1856 0.950 . S
C1861 C1863 1.327 . S
C1861 C1867 1.429 . S
C1862 C1854 1.574 . S
C1862 H1857 0.949 . S
C1862 C1868 1.368 . S
C1863 C1847 1.349 . S
C1863 H1855 0.950 . S
C1863 C1861 1.327 . S
C1864 C1852 1.349 . S
C1864 H1858 0.950 . S
C1864 C1865 1.327 . S
C1865 H1859 0.950 . S
C1865 C1864 1.327 . S
C1865 C1869 1.429 . S
C1866 C1849 1.574 . S
C1866 H1860 0.949 . S
C1866 C1870 1.368 . S
C1867 C1848 1.429 . S
C1867 C1861 1.429 . S
C1867 C1868 1.523 . S
C1868 C1849 1.368 . S
C1868 C1862 1.368 . S
C1868 C1867 1.523 . S
C1869 C1853 1.429 . S
C1869 C1865 1.429 . S
C1869 C1870 1.523 . S
C1870 C1854 1.368 . S
C1870 C1866 1.368 . S
C1870 C1869 1.523 . S
H1871 C1846 0.950 . S
H1872 C1848 0.950 . S
H1873 C1849 0.949 . S
H1874 C1851 0.950 . S
H1875 C1853 0.950 . S
C1876 C1877 1.349 . S
C1876 C1878 1.327 . S
C1876 H1901 0.950 . S
C1877 C1876 1.349 . S
C1877 C1893 1.349 . S
C1878 C1876 1.327 . S
C1878 C1897 1.429 . S
C1878 H1902 0.950 . S
C1879 C1896 1.574 . S
C1879 C1898 1.368 . S
C1879 H1903 0.949 . S
H1880 C1884 0.949 . S
C1881 C1882 1.349 . S
C1881 C1883 1.327 . S
C1881 H1904 0.950 1_556 S
C1882 C1881 1.349 . S
C1882 C1894 1.349 . S
C1883 C1881 1.327 . S
C1883 C1899 1.429 . S
C1883 H1905 0.950 . S
C1884 H1880 0.949 . S
C1884 C1892 1.574 . S
C1884 C1900 1.368 . S
H1885 C1893 0.950 . S
H1886 C1891 0.950 . S
H1887 C1892 0.949 . S
H1888 C1894 0.950 . S
H1889 C1895 0.950 . S
H1890 C1896 0.949 . S
C1891 H1886 0.950 . S
C1891 C1893 1.327 . S
C1891 C1897 1.429 . S
C1892 C1884 1.574 . S
C1892 H1887 0.949 . S
C1892 C1898 1.368 . S
C1893 C1877 1.349 . S
C1893 H1885 0.950 . S
C1893 C1891 1.327 . S
C1894 C1882 1.349 . S
C1894 H1888 0.950 . S
C1894 C1895 1.327 . S
C1895 H1889 0.950 . S
C1895 C1894 1.327 . S
C1895 C1899 1.429 . S
C1896 C1879 1.574 . S
C1896 H1890 0.949 . S
C1896 C1900 1.368 . S
C1897 C1878 1.429 . S
C1897 C1891 1.429 . S
C1897 C1898 1.523 . S
C1898 C1879 1.368 . S
C1898 C1892 1.368 . S
C1898 C1897 1.523 . S
C1899 C1883 1.429 . S
C1899 C1895 1.429 . S
C1899 C1900 1.523 . S
C1900 C1884 1.368 . S
C1900 C1896 1.368 . S
C1900 C1899 1.523 . S
H1901 C1876 0.950 . S
H1902 C1878 0.950 . S
H1903 C1879 0.949 . S
H1904 C1881 0.950 1_554 S
H1905 C1883 0.950 . S
C1906 C1907 1.349 . S
C1906 C1908 1.327 . S
C1906 H1931 0.950 . S
C1907 C1906 1.349 . S
C1907 C1923 1.349 . S
C1908 C1906 1.327 . S
C1908 C1927 1.429 . S
C1908 H1932 0.950 . S
C1909 C1926 1.574 . S
C1909 C1928 1.368 . S
C1909 H1933 0.949 . S
H1910 C1914 0.949 . S
C1911 C1912 1.349 . S
C1911 C1913 1.327 . S
C1911 H1934 0.950 . S
C1912 C1911 1.349 . S
C1912 C1924 1.349 . S
C1913 C1911 1.327 . S
C1913 C1929 1.429 . S
C1913 H1935 0.950 . S
C1914 H1910 0.949 . S
C1914 C1922 1.574 . S
C1914 C1930 1.368 . S
H1915 C1923 0.950 . S
H1916 C1921 0.950 . S
H1917 C1922 0.949 . S
H1918 C1924 0.950 . S
H1919 C1925 0.950 . S
H1920 C1926 0.949 . S
C1921 H1916 0.950 . S
C1921 C1923 1.327 . S
C1921 C1927 1.429 . S
C1922 C1914 1.574 . S
C1922 H1917 0.949 . S
C1922 C1928 1.368 . S
C1923 C1907 1.349 . S
C1923 H1915 0.950 . S
C1923 C1921 1.327 . S
C1924 C1912 1.349 . S
C1924 H1918 0.950 . S
C1924 C1925 1.327 . S
C1925 H1919 0.950 . S
C1925 C1924 1.327 . S
C1925 C1929 1.429 . S
C1926 C1909 1.574 . S
C1926 H1920 0.949 . S
C1926 C1930 1.368 . S
C1927 C1908 1.429 . S
C1927 C1921 1.429 . S
C1927 C1928 1.523 . S
C1928 C1909 1.368 . S
C1928 C1922 1.368 . S
C1928 C1927 1.523 . S
C1929 C1913 1.429 . S
C1929 C1925 1.429 . S
C1929 C1930 1.523 . S
C1930 C1914 1.368 . S
C1930 C1926 1.368 . S
C1930 C1929 1.523 . S
H1931 C1906 0.950 . S
H1932 C1908 0.950 . S
H1933 C1909 0.949 . S
H1934 C1911 0.950 . S
H1935 C1913 0.950 . S
C1936 C1937 1.349 . S
C1936 C1938 1.327 . S
C1936 H1961 0.950 . S
C1937 C1936 1.349 . S
C1937 C1953 1.349 . S
C1938 C1936 1.327 . S
C1938 C1957 1.429 . S
C1938 H1962 0.950 . S
C1939 C1956 1.574 . S
C1939 C1958 1.368 . S
C1939 H1963 0.949 . S
H1940 C1944 0.949 . S
C1941 C1942 1.349 . S
C1941 C1943 1.327 . S
C1941 H1964 0.950 . S
C1942 C1941 1.349 . S
C1942 C1954 1.349 . S
C1943 C1941 1.327 . S
C1943 C1959 1.429 . S
C1943 H1965 0.950 . S
C1944 H1940 0.949 . S
C1944 C1952 1.574 . S
C1944 C1960 1.368 . S
H1945 C1953 0.950 . S
H1946 C1951 0.950 . S
H1947 C1952 0.949 . S
H1948 C1954 0.950 . S
H1949 C1955 0.950 . S
H1950 C1956 0.949 . S
C1951 H1946 0.950 . S
C1951 C1953 1.327 . S
C1951 C1957 1.429 . S
C1952 C1944 1.574 . S
C1952 H1947 0.949 . S
C1952 C1958 1.368 . S
C1953 C1937 1.349 . S
C1953 H1945 0.950 . S
C1953 C1951 1.327 . S
C1954 C1942 1.349 . S
C1954 H1948 0.950 . S
C1954 C1955 1.327 . S
C1955 H1949 0.950 . S
C1955 C1954 1.327 . S
C1955 C1959 1.429 . S
C1956 C1939 1.574 . S
C1956 H1950 0.949 . S
C1956 C1960 1.368 . S
C1957 C1938 1.429 . S
C1957 C1951 1.429 . S
C1957 C1958 1.523 . S
C1958 C1939 1.368 . S
C1958 C1952 1.368 . S
C1958 C1957 1.523 . S
C1959 C1943 1.429 . S
C1959 C1955 1.429 . S
C1959 C1960 1.523 . S
C1960 C1944 1.368 . S
C1960 C1956 1.368 . S
C1960 C1959 1.523 . S
H1961 C1936 0.950 . S
H1962 C1938 0.950 . S
H1963 C1939 0.949 . S
H1964 C1941 0.950 . S
H1965 C1943 0.950 . S
C1966 C1967 1.349 . S
C1966 C1968 1.327 . S
C1966 H1991 0.950 . S
C1967 C1966 1.349 . S
C1967 C1983 1.349 . S
C1968 C1966 1.327 . S
C1968 C1987 1.429 . S
C1968 H1992 0.950 . S
C1969 C1986 1.574 . S
C1969 C1988 1.368 . S
C1969 H1993 0.949 . S
H1970 C1974 0.949 . S
C1971 C1972 1.349 . S
C1971 C1973 1.327 . S
C1971 H1994 0.950 . S
C1972 C1971 1.349 . S
C1972 C1984 1.349 . S
C1973 C1971 1.327 . S
C1973 C1989 1.429 . S
C1973 H1995 0.950 . S
C1974 H1970 0.949 . S
C1974 C1982 1.574 . S
C1974 C1990 1.368 . S
H1975 C1983 0.950 . S
H1976 C1981 0.950 . S
H1977 C1982 0.949 . S
H1978 C1984 0.950 . S
H1979 C1985 0.950 . S
H1980 C1986 0.949 . S
C1981 H1976 0.950 . S
C1981 C1983 1.327 . S
C1981 C1987 1.429 . S
C1982 C1974 1.574 . S
C1982 H1977 0.949 . S
C1982 C1988 1.368 . S
C1983 C1967 1.349 . S
C1983 H1975 0.950 . S
C1983 C1981 1.327 . S
C1984 C1972 1.349 . S
C1984 H1978 0.950 . S
C1984 C1985 1.327 . S
C1985 H1979 0.950 . S
C1985 C1984 1.327 . S
C1985 C1989 1.429 . S
C1986 C1969 1.574 . S
C1986 H1980 0.949 . S
C1986 C1990 1.368 . S
C1987 C1968 1.429 . S
C1987 C1981 1.429 . S
C1987 C1988 1.523 . S
C1988 C1969 1.368 . S
C1988 C1982 1.368 . S
C1988 C1987 1.523 . S
C1989 C1973 1.429 . S
C1989 C1985 1.429 . S
C1989 C1990 1.523 . S
C1990 C1974 1.368 . S
C1990 C1986 1.368 . S
C1990 C1989 1.523 . S
H1991 C1966 0.950 . S
H1992 C1968 0.950 . S
H1993 C1969 0.949 . S
H1994 C1971 0.950 . S
H1995 C1973 0.950 . S
C1996 C1997 1.349 1_565 S
C1996 C1998 1.322 . S
C1996 H2021 0.950 . S
C1997 C1996 1.349 1_545 S
C1997 C2013 1.349 . S
C1998 C1996 1.322 . S
C1998 C2017 1.401 1_565 S
C1998 H2022 0.985 . S
C1999 C2016 1.574 . S
C1999 C2018 1.368 . S
C1999 H2023 0.949 . S
H2000 C2004 0.928 1_565 S
C2001 C2002 1.349 . S
C2001 C2003 1.327 . S
C2001 H2024 0.950 . S
C2002 C2001 1.349 . S
C2002 C2014 1.349 . S
C2003 C2001 1.327 . S
C2003 C2019 1.429 . S
C2003 H2025 0.950 . S
C2004 H2000 0.928 1_545 S
C2004 C2012 1.574 . S
C2004 C2020 1.368 . S
H2005 C2013 0.950 . S
H2006 C2011 0.950 . S
H2007 C2012 0.949 1_565 S
H2008 C2014 0.950 . S
H2009 C2015 0.950 . S
H2010 C2016 0.949 . S
C2011 H2006 0.950 . S
C2011 C2013 1.327 . S
C2011 C2017 1.429 . S
C2012 C2004 1.574 . S
C2012 H2007 0.949 1_545 S
C2012 C2018 1.368 . S
C2013 C1997 1.349 . S
C2013 H2005 0.950 . S
C2013 C2011 1.327 . S
C2014 C2002 1.349 . S
C2014 H2008 0.950 . S
C2014 C2015 1.327 . S
C2015 H2009 0.950 . S
C2015 C2014 1.327 . S
C2015 C2019 1.429 . S
C2016 C1999 1.574 . S
C2016 H2010 0.949 . S
C2016 C2020 1.368 . S
C2017 C1998 1.401 1_545 S
C2017 C2011 1.429 . S
C2017 C2018 1.523 . S
C2018 C1999 1.368 . S
C2018 C2012 1.368 . S
C2018 C2017 1.523 . S
C2019 C2003 1.429 . S
C2019 C2015 1.429 . S
C2019 C2020 1.523 . S
C2020 C2004 1.368 . S
C2020 C2016 1.368 . S
C2020 C2019 1.523 . S
H2021 C1996 0.950 . S
H2022 C1998 0.985 . S
H2023 C1999 0.949 . S
H2024 C2001 0.950 . S
H2025 C2003 0.950 . S
C2026 C2027 1.349 . S
C2026 C2028 1.327 . S
C2026 H2051 0.950 . S
C2027 C2026 1.349 . S
C2027 C2043 1.349 . S
C2028 C2026 1.327 . S
C2028 C2047 1.429 . S
C2028 H2052 0.950 . S
C2029 C2046 1.574 . S
C2029 C2048 1.368 . S
C2029 H2053 0.949 . S
H2030 C2034 0.949 . S
C2031 C2032 1.349 . S
C2031 C2033 1.327 . S
C2031 H2054 0.950 . S
C2032 C2031 1.349 . S
C2032 C2044 1.349 . S
C2033 C2031 1.327 . S
C2033 C2049 1.429 . S
C2033 H2055 0.950 . S
C2034 H2030 0.949 . S
C2034 C2042 1.574 . S
C2034 C2050 1.368 . S
H2035 C2043 0.950 . S
H2036 C2041 0.950 . S
H2037 C2042 0.949 . S
H2038 C2044 0.950 . S
H2039 C2045 0.950 . S
H2040 C2046 0.949 . S
C2041 H2036 0.950 . S
C2041 C2043 1.327 . S
C2041 C2047 1.429 . S
C2042 C2034 1.574 . S
C2042 H2037 0.949 . S
C2042 C2048 1.368 . S
C2043 C2027 1.349 . S
C2043 H2035 0.950 . S
C2043 C2041 1.327 . S
C2044 C2032 1.349 . S
C2044 H2038 0.950 . S
C2044 C2045 1.327 . S
C2045 H2039 0.950 . S
C2045 C2044 1.327 . S
C2045 C2049 1.429 . S
C2046 C2029 1.574 . S
C2046 H2040 0.949 . S
C2046 C2050 1.368 . S
C2047 C2028 1.429 . S
C2047 C2041 1.429 . S
C2047 C2048 1.523 . S
C2048 C2029 1.368 . S
C2048 C2042 1.368 . S
C2048 C2047 1.523 . S
C2049 C2033 1.429 . S
C2049 C2045 1.429 . S
C2049 C2050 1.523 . S
C2050 C2034 1.368 . S
C2050 C2046 1.368 . S
C2050 C2049 1.523 . S
H2051 C2026 0.950 . S
H2052 C2028 0.950 . S
H2053 C2029 0.949 . S
H2054 C2031 0.950 . S
H2055 C2033 0.950 . S
C2056 C2057 1.349 . S
C2056 C2058 1.327 . S
C2056 H2081 0.950 . S
C2057 C2056 1.349 . S
C2057 C2073 1.349 . S
C2058 C2056 1.327 . S
C2058 C2077 1.429 . S
C2058 H2082 0.950 . S
C2059 C2076 1.574 . S
C2059 C2078 1.368 . S
C2059 H2083 0.949 . S
H2060 C2064 0.949 . S
C2061 C2062 1.349 . S
C2061 C2063 1.327 . S
C2061 H2084 0.950 . S
C2062 C2061 1.349 . S
C2062 C2074 1.349 . S
C2063 C2061 1.327 . S
C2063 C2079 1.429 . S
C2063 H2085 0.950 . S
C2064 H2060 0.949 . S
C2064 C2072 1.574 . S
C2064 C2080 1.368 . S
H2065 C2073 0.950 . S
H2066 C2071 0.950 . S
H2067 C2072 0.949 . S
H2068 C2074 0.950 . S
H2069 C2075 0.950 . S
H2070 C2076 0.949 . S
C2071 H2066 0.950 . S
C2071 C2073 1.327 . S
C2071 C2077 1.429 . S
C2072 C2064 1.574 . S
C2072 H2067 0.949 . S
C2072 C2078 1.368 . S
C2073 C2057 1.349 . S
C2073 H2065 0.950 . S
C2073 C2071 1.327 . S
C2074 C2062 1.349 . S
C2074 H2068 0.950 . S
C2074 C2075 1.327 . S
C2075 H2069 0.950 . S
C2075 C2074 1.327 . S
C2075 C2079 1.429 . S
C2076 C2059 1.574 . S
C2076 H2070 0.949 . S
C2076 C2080 1.368 . S
C2077 C2058 1.429 . S
C2077 C2071 1.429 . S
C2077 C2078 1.523 . S
C2078 C2059 1.368 . S
C2078 C2072 1.368 . S
C2078 C2077 1.523 . S
C2079 C2063 1.429 . S
C2079 C2075 1.429 . S
C2079 C2080 1.523 . S
C2080 C2064 1.368 . S
C2080 C2076 1.368 . S
C2080 C2079 1.523 . S
H2081 C2056 0.950 . S
H2082 C2058 0.950 . S
H2083 C2059 0.949 . S
H2084 C2061 0.950 . S
H2085 C2063 0.950 . S
C2086 C2087 1.349 . S
C2086 C2088 1.327 . S
C2086 H2111 0.950 . S
C2087 C2086 1.349 . S
C2087 C2103 1.349 . S
C2088 C2086 1.327 . S
C2088 C2107 1.429 . S
C2088 H2112 0.950 . S
C2089 C2106 1.574 . S
C2089 C2108 1.368 . S
C2089 H2113 0.949 . S
H2090 C2094 0.949 . S
C2091 C2092 1.349 . S
C2091 C2093 1.327 . S
C2091 H2114 0.950 . S
C2092 C2091 1.349 . S
C2092 C2104 1.349 . S
C2093 C2091 1.327 . S
C2093 C2109 1.429 . S
C2093 H2115 0.950 . S
C2094 H2090 0.949 . S
C2094 C2102 1.574 . S
C2094 C2110 1.368 . S
H2095 C2103 0.950 . S
H2096 C2101 0.950 . S
H2097 C2102 0.949 . S
H2098 C2104 0.950 . S
H2099 C2105 0.950 . S
H2100 C2106 0.949 . S
C2101 H2096 0.950 . S
C2101 C2103 1.327 . S
C2101 C2107 1.429 . S
C2102 C2094 1.574 . S
C2102 H2097 0.949 . S
C2102 C2108 1.368 . S
C2103 C2087 1.349 . S
C2103 H2095 0.950 . S
C2103 C2101 1.327 . S
C2104 C2092 1.349 . S
C2104 H2098 0.950 . S
C2104 C2105 1.327 . S
C2105 H2099 0.950 . S
C2105 C2104 1.327 . S
C2105 C2109 1.429 . S
C2106 C2089 1.574 . S
C2106 H2100 0.949 . S
C2106 C2110 1.368 . S
C2107 C2088 1.429 . S
C2107 C2101 1.429 . S
C2107 C2108 1.523 . S
C2108 C2089 1.368 . S
C2108 C2102 1.368 . S
C2108 C2107 1.523 . S
C2109 C2093 1.429 . S
C2109 C2105 1.429 . S
C2109 C2110 1.523 . S
C2110 C2094 1.368 . S
C2110 C2106 1.368 . S
C2110 C2109 1.523 . S
H2111 C2086 0.950 . S
H2112 C2088 0.950 . S
H2113 C2089 0.949 . S
H2114 C2091 0.950 . S
H2115 C2093 0.950 . S
C2116 C2117 1.349 1_565 S
C2116 C2118 1.327 . S
C2116 H2141 0.950 . S
C2117 C2116 1.349 1_545 S
C2117 C2133 1.349 . S
C2118 C2116 1.327 . S
C2118 C2137 1.421 1_565 S
C2118 H2142 0.950 . S
C2119 C2136 1.574 . S
C2119 C2138 1.318 1_545 S
C2119 H2143 0.949 . S
H2120 C2124 0.949 . S
C2121 C2122 1.349 1_545 S
C2121 C2123 1.327 . S
C2121 H2144 0.950 . S
C2122 C2121 1.349 1_565 S
C2122 C2134 1.349 . S
C2123 C2121 1.327 . S
C2123 C2139 1.429 1_545 S
C2123 H2145 0.950 . S
C2124 H2120 0.949 . S
C2124 C2132 1.574 . S
C2124 C2140 1.368 . S
H2125 C2133 0.950 . S
H2126 C2131 0.950 . S
H2127 C2132 0.949 . S
H2128 C2134 0.950 . S
H2129 C2135 0.950 . S
H2130 C2136 0.949 . S
C2131 H2126 0.950 . S
C2131 C2133 1.327 . S
C2131 C2137 1.437 . S
C2132 C2124 1.574 . S
C2132 H2127 0.949 . S
C2132 C2138 1.423 . S
C2133 C2117 1.349 . S
C2133 H2125 0.950 . S
C2133 C2131 1.327 . S
C2134 C2122 1.349 . S
C2134 H2128 0.950 . S
C2134 C2135 1.327 . S
C2135 H2129 0.950 . S
C2135 C2134 1.327 . S
C2135 C2139 1.429 . S
C2136 C2119 1.574 . S
C2136 H2130 0.949 . S
C2136 C2140 1.368 1_545 S
C2137 C2118 1.421 1_545 S
C2137 C2131 1.437 . S
C2137 C2138 1.519 1_545 S
C2138 C2119 1.318 1_565 S
C2138 C2132 1.423 . S
C2138 C2137 1.519 1_565 S
C2139 C2123 1.429 1_565 S
C2139 C2135 1.429 . S
C2139 C2140 1.523 . S
C2140 C2124 1.368 . S
C2140 C2136 1.368 1_565 S
C2140 C2139 1.523 . S
H2141 C2116 0.950 . S
H2142 C2118 0.950 . S
H2143 C2119 0.949 . S
H2144 C2121 0.950 . S
H2145 C2123 0.950 . S
C2146 C2147 1.349 . S
C2146 C2148 1.327 . S
C2146 H2171 0.950 . S
C2147 C2146 1.349 . S
C2147 C2163 1.349 . S
C2148 C2146 1.327 . S
C2148 C2167 1.429 . S
C2148 H2172 0.950 . S
C2149 C2166 1.574 . S
C2149 C2168 1.368 . S
C2149 H2173 0.949 . S
H2150 C2154 0.949 . S
C2151 C2152 1.349 . S
C2151 C2153 1.327 . S
C2151 H2174 0.950 . S
C2152 C2151 1.349 . S
C2152 C2164 1.349 . S
C2153 C2151 1.327 . S
C2153 C2169 1.429 . S
C2153 H2175 0.950 . S
C2154 H2150 0.949 . S
C2154 C2162 1.574 . S
C2154 C2170 1.368 . S
H2155 C2163 0.950 . S
H2156 C2161 0.950 . S
H2157 C2162 0.949 . S
H2158 C2164 0.950 . S
H2159 C2165 0.950 . S
H2160 C2166 0.949 . S
C2161 H2156 0.950 . S
C2161 C2163 1.327 . S
C2161 C2167 1.429 . S
C2162 C2154 1.574 . S
C2162 H2157 0.949 . S
C2162 C2168 1.368 . S
C2163 C2147 1.349 . S
C2163 H2155 0.950 . S
C2163 C2161 1.327 . S
C2164 C2152 1.349 . S
C2164 H2158 0.950 . S
C2164 C2165 1.327 . S
C2165 H2159 0.950 . S
C2165 C2164 1.327 . S
C2165 C2169 1.429 . S
C2166 C2149 1.574 . S
C2166 H2160 0.949 . S
C2166 C2170 1.368 . S
C2167 C2148 1.429 . S
C2167 C2161 1.429 . S
C2167 C2168 1.523 . S
C2168 C2149 1.368 . S
C2168 C2162 1.368 . S
C2168 C2167 1.523 . S
C2169 C2153 1.429 . S
C2169 C2165 1.429 . S
C2169 C2170 1.523 . S
C2170 C2154 1.368 . S
C2170 C2166 1.368 . S
C2170 C2169 1.523 . S
H2171 C2146 0.950 . S
H2172 C2148 0.950 . S
H2173 C2149 0.949 . S
H2174 C2151 0.950 . S
H2175 C2153 0.950 . S
C2176 C2177 1.349 . S
C2176 C2178 1.327 . S
C2176 H2201 0.950 . S
C2177 C2176 1.349 . S
C2177 C2193 1.349 . S
C2178 C2176 1.327 . S
C2178 C2197 1.429 . S
C2178 H2202 0.950 . S
C2179 C2196 1.574 . S
C2179 C2198 1.368 . S
C2179 H2203 0.949 . S
H2180 C2184 0.949 . S
C2181 C2182 1.349 . S
C2181 C2183 1.327 . S
C2181 H2204 0.950 . S
C2182 C2181 1.349 . S
C2182 C2194 1.349 1_554 S
C2183 C2181 1.327 . S
C2183 C2199 1.429 . S
C2183 H2205 0.950 . S
C2184 H2180 0.949 . S
C2184 C2192 1.574 . S
C2184 C2200 1.368 . S
H2185 C2193 0.950 . S
H2186 C2191 0.950 . S
H2187 C2192 0.949 . S
H2188 C2194 0.950 . S
H2189 C2195 0.950 1_556 S
H2190 C2196 0.949 . S
C2191 H2186 0.950 . S
C2191 C2193 1.327 . S
C2191 C2197 1.429 . S
C2192 C2184 1.574 . S
C2192 H2187 0.949 . S
C2192 C2198 1.368 . S
C2193 C2177 1.349 . S
C2193 H2185 0.950 . S
C2193 C2191 1.327 . S
C2194 C2182 1.349 1_556 S
C2194 H2188 0.950 . S
C2194 C2195 1.327 1_556 S
C2195 H2189 0.950 1_554 S
C2195 C2194 1.327 1_554 S
C2195 C2199 1.429 . S
C2196 C2179 1.574 . S
C2196 H2190 0.949 . S
C2196 C2200 1.368 . S
C2197 C2178 1.429 . S
C2197 C2191 1.429 . S
C2197 C2198 1.523 . S
C2198 C2179 1.368 . S
C2198 C2192 1.368 . S
C2198 C2197 1.523 . S
C2199 C2183 1.429 . S
C2199 C2195 1.429 . S
C2199 C2200 1.523 . S
C2200 C2184 1.368 . S
C2200 C2196 1.368 . S
C2200 C2199 1.523 . S
H2201 C2176 0.950 . S
H2202 C2178 0.950 . S
H2203 C2179 0.949 . S
H2204 C2181 0.950 . S
H2205 C2183 0.950 . S
C2206 C2207 1.349 . S
C2206 C2208 1.327 . S
C2206 H2231 0.950 . S
C2207 C2206 1.349 . S
C2207 C2223 1.349 . S
C2208 C2206 1.327 . S
C2208 C2227 1.429 . S
C2208 H2232 0.950 . S
C2209 C2226 1.574 . S
C2209 C2228 1.368 . S
C2209 H2233 0.949 . S
H2210 C2214 0.949 . S
C2211 C2212 1.349 . S
C2211 C2213 1.327 . S
C2211 H2234 0.950 . S
C2212 C2211 1.349 . S
C2212 C2224 1.349 . S
C2213 C2211 1.327 . S
C2213 C2229 1.429 . S
C2213 H2235 0.950 . S
C2214 H2210 0.949 . S
C2214 C2222 1.574 . S
C2214 C2230 1.368 . S
H2215 C2223 0.950 . S
H2216 C2221 0.950 . S
H2217 C2222 0.949 . S
H2218 C2224 0.950 . S
H2219 C2225 0.950 . S
H2220 C2226 0.949 . S
C2221 H2216 0.950 . S
C2221 C2223 1.327 . S
C2221 C2227 1.429 . S
C2222 C2214 1.574 . S
C2222 H2217 0.949 . S
C2222 C2228 1.368 . S
C2223 C2207 1.349 . S
C2223 H2215 0.950 . S
C2223 C2221 1.327 . S
C2224 C2212 1.349 . S
C2224 H2218 0.950 . S
C2224 C2225 1.327 . S
C2225 H2219 0.950 . S
C2225 C2224 1.327 . S
C2225 C2229 1.429 . S
C2226 C2209 1.574 . S
C2226 H2220 0.949 . S
C2226 C2230 1.368 . S
C2227 C2208 1.429 . S
C2227 C2221 1.429 . S
C2227 C2228 1.523 . S
C2228 C2209 1.368 . S
C2228 C2222 1.368 . S
C2228 C2227 1.523 . S
C2229 C2213 1.429 . S
C2229 C2225 1.429 . S
C2229 C2230 1.523 . S
C2230 C2214 1.368 . S
C2230 C2226 1.368 . S
C2230 C2229 1.523 . S
H2231 C2206 0.950 . S
H2232 C2208 0.950 . S
H2233 C2209 0.949 . S
H2234 C2211 0.950 . S
H2235 C2213 0.950 . S
C2236 C2237 1.349 . S
C2236 C2238 1.327 . S
C2236 H2261 0.950 . S
C2237 C2236 1.349 . S
C2237 C2253 1.349 . S
C2238 C2236 1.327 . S
C2238 C2257 1.429 . S
C2238 H2262 0.950 . S
C2239 C2256 1.574 . S
C2239 C2258 1.368 . S
C2239 H2263 0.949 . S
H2240 C2244 0.949 . S
C2241 C2242 1.349 . S
C2241 C2243 1.327 . S
C2241 H2264 0.950 . S
C2242 C2241 1.349 . S
C2242 C2254 1.349 . S
C2243 C2241 1.327 . S
C2243 C2259 1.429 . S
C2243 H2265 0.950 . S
C2244 H2240 0.949 . S
C2244 C2252 1.574 . S
C2244 C2260 1.368 . S
H2245 C2253 0.950 . S
H2246 C2251 0.950 . S
H2247 C2252 0.949 . S
H2248 C2254 0.950 . S
H2249 C2255 0.950 . S
H2250 C2256 0.949 . S
C2251 H2246 0.950 . S
C2251 C2253 1.327 . S
C2251 C2257 1.429 . S
C2252 C2244 1.574 . S
C2252 H2247 0.949 . S
C2252 C2258 1.368 . S
C2253 C2237 1.349 . S
C2253 H2245 0.950 . S
C2253 C2251 1.327 . S
C2254 C2242 1.349 . S
C2254 H2248 0.950 . S
C2254 C2255 1.327 . S
C2255 H2249 0.950 . S
C2255 C2254 1.327 . S
C2255 C2259 1.429 . S
C2256 C2239 1.574 . S
C2256 H2250 0.949 . S
C2256 C2260 1.368 . S
C2257 C2238 1.429 . S
C2257 C2251 1.429 . S
C2257 C2258 1.523 . S
C2258 C2239 1.368 . S
C2258 C2252 1.368 . S
C2258 C2257 1.523 . S
C2259 C2243 1.429 . S
C2259 C2255 1.429 . S
C2259 C2260 1.523 . S
C2260 C2244 1.368 . S
C2260 C2256 1.368 . S
C2260 C2259 1.523 . S
H2261 C2236 0.950 . S
H2262 C2238 0.950 . S
H2263 C2239 0.949 . S
H2264 C2241 0.950 . S
H2265 C2243 0.950 . S
C2266 C2267 1.349 . S
C2266 C2268 1.327 . S
C2266 H2291 0.950 . S
C2267 C2266 1.349 . S
C2267 C2283 1.349 . S
C2268 C2266 1.327 . S
C2268 C2287 1.429 . S
C2268 H2292 0.950 . S
C2269 C2286 1.574 . S
C2269 C2288 1.368 . S
C2269 H2293 0.949 . S
H2270 C2274 0.949 . S
C2271 C2272 1.349 . S
C2271 C2273 1.327 . S
C2271 H2294 0.950 . S
C2272 C2271 1.349 . S
C2272 C2284 1.349 . S
C2273 C2271 1.327 . S
C2273 C2289 1.429 . S
C2273 H2295 0.950 . S
C2274 H2270 0.949 . S
C2274 C2282 1.574 . S
C2274 C2290 1.368 . S
H2275 C2283 0.950 . S
H2276 C2281 0.950 . S
H2277 C2282 0.949 . S
H2278 C2284 0.950 . S
H2279 C2285 0.950 . S
H2280 C2286 0.949 . S
C2281 H2276 0.950 . S
C2281 C2283 1.327 . S
C2281 C2287 1.429 . S
C2282 C2274 1.574 . S
C2282 H2277 0.949 . S
C2282 C2288 1.368 . S
C2283 C2267 1.349 . S
C2283 H2275 0.950 . S
C2283 C2281 1.327 . S
C2284 C2272 1.349 . S
C2284 H2278 0.950 . S
C2284 C2285 1.327 . S
C2285 H2279 0.950 . S
C2285 C2284 1.327 . S
C2285 C2289 1.429 . S
C2286 C2269 1.574 . S
C2286 H2280 0.949 . S
C2286 C2290 1.368 . S
C2287 C2268 1.429 . S
C2287 C2281 1.429 . S
C2287 C2288 1.523 . S
C2288 C2269 1.368 . S
C2288 C2282 1.368 . S
C2288 C2287 1.523 . S
C2289 C2273 1.429 . S
C2289 C2285 1.429 . S
C2289 C2290 1.523 . S
C2290 C2274 1.368 . S
C2290 C2286 1.368 . S
C2290 C2289 1.523 . S
H2291 C2266 0.950 . S
H2292 C2268 0.950 . S
H2293 C2269 0.949 . S
H2294 C2271 0.950 . S
H2295 C2273 0.950 . S
C2296 C2297 1.349 . S
C2296 C2298 1.327 1_545 S
C2296 H2321 0.950 . S
C2297 C2296 1.349 . S
C2297 C2313 1.349 . S
C2298 C2296 1.327 1_565 S
C2298 C2317 1.429 . S
C2298 H2322 0.950 . S
C2299 C2316 1.574 . S
C2299 C2318 1.368 . S
C2299 H2323 0.949 . S
H2300 C2304 0.949 . S
C2301 C2302 1.349 . S
C2301 C2303 1.327 . S
C2301 H2324 0.950 . S
C2302 C2301 1.349 . S
C2302 C2314 1.349 . S
C2303 C2301 1.327 . S
C2303 C2319 1.429 . S
C2303 H2325 0.950 . S
C2304 H2300 0.949 . S
C2304 C2312 1.574 . S
C2304 C2320 1.368 . S
H2305 C2313 0.950 . S
H2306 C2311 0.950 . S
H2307 C2312 0.949 . S
H2308 C2314 0.950 . S
H2309 C2315 0.950 . S
H2310 C2316 0.949 . S
C2311 H2306 0.950 . S
C2311 C2313 1.327 1_565 S
C2311 C2317 1.429 . S
C2312 C2304 1.574 . S
C2312 H2307 0.949 . S
C2312 C2318 1.368 . S
C2313 C2297 1.349 . S
C2313 H2305 0.950 . S
C2313 C2311 1.327 1_545 S
C2314 C2302 1.349 . S
C2314 H2308 0.950 . S
C2314 C2315 1.327 . S
C2315 H2309 0.950 . S
C2315 C2314 1.327 . S
C2315 C2319 1.429 . S
C2316 C2299 1.574 . S
C2316 H2310 0.949 . S
C2316 C2320 1.368 . S
C2317 C2298 1.429 . S
C2317 C2311 1.429 . S
C2317 C2318 1.523 . S
C2318 C2299 1.368 . S
C2318 C2312 1.368 . S
C2318 C2317 1.523 . S
C2319 C2303 1.429 . S
C2319 C2315 1.429 . S
C2319 C2320 1.523 . S
C2320 C2304 1.368 . S
C2320 C2316 1.368 . S
C2320 C2319 1.523 . S
H2321 C2296 0.950 . S
H2322 C2298 0.950 . S
H2323 C2299 0.949 . S
H2324 C2301 0.950 . S
H2325 C2303 0.950 . S
C2326 C2327 1.349 . S
C2326 C2328 1.327 . S
C2326 H2351 0.950 . S
C2327 C2326 1.349 . S
C2327 C2343 1.349 . S
C2328 C2326 1.327 . S
C2328 C2347 1.429 . S
C2328 H2352 0.950 . S
C2329 C2346 1.574 . S
C2329 C2348 1.368 . S
C2329 H2353 0.949 . S
H2330 C2334 0.949 . S
C2331 C2332 1.349 . S
C2331 C2333 1.327 . S
C2331 H2354 0.950 . S
C2332 C2331 1.349 . S
C2332 C2344 1.349 . S
C2333 C2331 1.327 . S
C2333 C2349 1.429 . S
C2333 H2355 0.950 . S
C2334 H2330 0.949 . S
C2334 C2342 1.574 . S
C2334 C2350 1.368 . S
H2335 C2343 0.950 . S
H2336 C2341 0.950 . S
H2337 C2342 0.949 . S
H2338 C2344 0.950 . S
H2339 C2345 0.950 . S
H2340 C2346 0.949 . S
C2341 H2336 0.950 . S
C2341 C2343 1.327 . S
C2341 C2347 1.429 . S
C2342 C2334 1.574 . S
C2342 H2337 0.949 . S
C2342 C2348 1.368 . S
C2343 C2327 1.349 . S
C2343 H2335 0.950 . S
C2343 C2341 1.327 . S
C2344 C2332 1.349 . S
C2344 H2338 0.950 . S
C2344 C2345 1.327 . S
C2345 H2339 0.950 . S
C2345 C2344 1.327 . S
C2345 C2349 1.429 . S
C2346 C2329 1.574 . S
C2346 H2340 0.949 . S
C2346 C2350 1.368 . S
C2347 C2328 1.429 . S
C2347 C2341 1.429 . S
C2347 C2348 1.523 . S
C2348 C2329 1.368 . S
C2348 C2342 1.368 . S
C2348 C2347 1.523 . S
C2349 C2333 1.429 . S
C2349 C2345 1.429 . S
C2349 C2350 1.523 . S
C2350 C2334 1.368 . S
C2350 C2346 1.368 . S
C2350 C2349 1.523 . S
H2351 C2326 0.950 . S
H2352 C2328 0.950 . S
H2353 C2329 0.949 . S
H2354 C2331 0.950 . S
H2355 C2333 0.950 . S
C2356 C2357 1.349 . S
C2356 C2358 1.327 . S
C2356 H2381 0.950 . S
C2357 C2356 1.349 . S
C2357 C2373 1.349 . S
C2358 C2356 1.327 . S
C2358 C2377 1.429 . S
C2358 H2382 0.950 . S
C2359 C2376 1.574 . S
C2359 C2378 1.368 . S
C2359 H2383 0.949 . S
H2360 C2364 0.949 . S
C2361 C2362 1.349 . S
C2361 C2363 1.327 . S
C2361 H2384 0.950 . S
C2362 C2361 1.349 . S
C2362 C2374 1.349 . S
C2363 C2361 1.327 . S
C2363 C2379 1.429 . S
C2363 H2385 0.950 . S
C2364 H2360 0.949 . S
C2364 C2372 1.574 . S
C2364 C2380 1.368 . S
H2365 C2373 0.950 . S
H2366 C2371 0.950 . S
H2367 C2372 0.949 . S
H2368 C2374 0.950 . S
H2369 C2375 0.950 . S
H2370 C2376 0.949 . S
C2371 H2366 0.950 . S
C2371 C2373 1.327 . S
C2371 C2377 1.429 . S
C2372 C2364 1.574 . S
C2372 H2367 0.949 . S
C2372 C2378 1.368 . S
C2373 C2357 1.349 . S
C2373 H2365 0.950 . S
C2373 C2371 1.327 . S
C2374 C2362 1.349 . S
C2374 H2368 0.950 . S
C2374 C2375 1.327 . S
C2375 H2369 0.950 . S
C2375 C2374 1.327 . S
C2375 C2379 1.429 . S
C2376 C2359 1.574 . S
C2376 H2370 0.949 . S
C2376 C2380 1.368 . S
C2377 C2358 1.429 . S
C2377 C2371 1.429 . S
C2377 C2378 1.523 . S
C2378 C2359 1.368 . S
C2378 C2372 1.368 . S
C2378 C2377 1.523 . S
C2379 C2363 1.429 . S
C2379 C2375 1.429 . S
C2379 C2380 1.523 . S
C2380 C2364 1.368 . S
C2380 C2376 1.368 . S
C2380 C2379 1.523 . S
H2381 C2356 0.950 . S
H2382 C2358 0.950 . S
H2383 C2359 0.949 . S
H2384 C2361 0.950 . S
H2385 C2363 0.950 . S
C2386 C2387 1.349 . S
C2386 C2388 1.327 . S
C2386 H2411 0.950 . S
C2387 C2386 1.349 . S
C2387 C2403 1.349 . S
C2388 C2386 1.327 . S
C2388 C2407 1.429 . S
C2388 H2412 0.950 . S
C2389 C2406 1.574 . S
C2389 C2408 1.368 . S
C2389 H2413 0.949 . S
H2390 C2394 0.949 . S
C2391 C2392 1.349 . S
C2391 C2393 1.327 . S
C2391 H2414 0.950 . S
C2392 C2391 1.349 . S
C2392 C2404 1.349 . S
C2393 C2391 1.327 . S
C2393 C2409 1.429 . S
C2393 H2415 0.950 . S
C2394 H2390 0.949 . S
C2394 C2402 1.574 . S
C2394 C2410 1.368 . S
H2395 C2403 0.950 . S
H2396 C2401 0.950 . S
H2397 C2402 0.949 . S
H2398 C2404 0.950 . S
H2399 C2405 0.950 . S
H2400 C2406 0.949 . S
C2401 H2396 0.950 . S
C2401 C2403 1.327 . S
C2401 C2407 1.429 . S
C2402 C2394 1.574 . S
C2402 H2397 0.949 . S
C2402 C2408 1.368 . S
C2403 C2387 1.349 . S
C2403 H2395 0.950 . S
C2403 C2401 1.327 . S
C2404 C2392 1.349 . S
C2404 H2398 0.950 . S
C2404 C2405 1.327 . S
C2405 H2399 0.950 . S
C2405 C2404 1.327 . S
C2405 C2409 1.429 . S
C2406 C2389 1.574 . S
C2406 H2400 0.949 . S
C2406 C2410 1.368 . S
C2407 C2388 1.429 . S
C2407 C2401 1.429 . S
C2407 C2408 1.523 . S
C2408 C2389 1.368 . S
C2408 C2402 1.368 . S
C2408 C2407 1.523 . S
C2409 C2393 1.429 . S
C2409 C2405 1.429 . S
C2409 C2410 1.523 . S
C2410 C2394 1.368 . S
C2410 C2406 1.368 . S
C2410 C2409 1.523 . S
H2411 C2386 0.950 . S
H2412 C2388 0.950 . S
H2413 C2389 0.949 . S
H2414 C2391 0.950 . S
H2415 C2393 0.950 . S
C2416 C2417 1.349 . S
C2416 C2418 1.327 . S
C2416 H2441 0.950 . S
C2417 C2416 1.349 . S
C2417 C2433 1.349 . S
C2418 C2416 1.327 . S
C2418 C2437 1.429 . S
C2418 H2442 0.950 . S
C2419 C2436 1.574 . S
C2419 C2438 1.368 . S
C2419 H2443 0.949 . S
H2420 C2424 0.949 . S
C2421 C2422 1.349 . S
C2421 C2423 1.327 . S
C2421 H2444 0.950 . S
C2422 C2421 1.349 . S
C2422 C2434 1.349 . S
C2423 C2421 1.327 . S
C2423 C2439 1.429 . S
C2423 H2445 0.950 . S
C2424 H2420 0.949 . S
C2424 C2432 1.574 . S
C2424 C2440 1.368 . S
H2425 C2433 0.950 . S
H2426 C2431 0.950 . S
H2427 C2432 0.949 . S
H2428 C2434 0.950 . S
H2429 C2435 0.950 . S
H2430 C2436 0.949 . S
C2431 H2426 0.950 . S
C2431 C2433 1.327 . S
C2431 C2437 1.429 . S
C2432 C2424 1.574 . S
C2432 H2427 0.949 . S
C2432 C2438 1.368 . S
C2433 C2417 1.349 . S
C2433 H2425 0.950 . S
C2433 C2431 1.327 . S
C2434 C2422 1.349 . S
C2434 H2428 0.950 . S
C2434 C2435 1.327 . S
C2435 H2429 0.950 . S
C2435 C2434 1.327 . S
C2435 C2439 1.429 . S
C2436 C2419 1.574 . S
C2436 H2430 0.949 . S
C2436 C2440 1.368 . S
C2437 C2418 1.429 . S
C2437 C2431 1.429 . S
C2437 C2438 1.523 . S
C2438 C2419 1.368 . S
C2438 C2432 1.368 . S
C2438 C2437 1.523 . S
C2439 C2423 1.429 . S
C2439 C2435 1.429 . S
C2439 C2440 1.523 . S
C2440 C2424 1.368 . S
C2440 C2436 1.368 . S
C2440 C2439 1.523 . S
H2441 C2416 0.950 . S
H2442 C2418 0.950 . S
H2443 C2419 0.949 . S
H2444 C2421 0.950 . S
H2445 C2423 0.950 . S
C2446 C2447 1.349 . S
C2446 C2448 1.327 . S
C2446 H2471 0.950 . S
C2447 C2446 1.349 . S
C2447 C2463 1.349 . S
C2448 C2446 1.327 . S
C2448 C2467 1.429 . S
C2448 H2472 0.950 . S
C2449 C2466 1.574 . S
C2449 C2468 1.368 . S
C2449 H2473 0.949 . S
H2450 C2454 0.949 . S
C2451 C2452 1.349 . S
C2451 C2453 1.327 . S
C2451 H2474 0.950 . S
C2452 C2451 1.349 . S
C2452 C2464 1.349 . S
C2453 C2451 1.327 . S
C2453 C2469 1.429 . S
C2453 H2475 0.950 . S
C2454 H2450 0.949 . S
C2454 C2462 1.574 . S
C2454 C2470 1.368 . S
H2455 C2463 0.950 . S
H2456 C2461 0.950 . S
H2457 C2462 0.949 . S
H2458 C2464 0.950 . S
H2459 C2465 0.950 . S
H2460 C2466 0.949 . S
C2461 H2456 0.950 . S
C2461 C2463 1.327 . S
C2461 C2467 1.429 . S
C2462 C2454 1.574 . S
C2462 H2457 0.949 . S
C2462 C2468 1.368 . S
C2463 C2447 1.349 . S
C2463 H2455 0.950 . S
C2463 C2461 1.327 . S
C2464 C2452 1.349 . S
C2464 H2458 0.950 . S
C2464 C2465 1.327 . S
C2465 H2459 0.950 . S
C2465 C2464 1.327 . S
C2465 C2469 1.429 . S
C2466 C2449 1.574 . S
C2466 H2460 0.949 . S
C2466 C2470 1.368 . S
C2467 C2448 1.429 . S
C2467 C2461 1.429 . S
C2467 C2468 1.523 . S
C2468 C2449 1.368 . S
C2468 C2462 1.368 . S
C2468 C2467 1.523 . S
C2469 C2453 1.429 . S
C2469 C2465 1.429 . S
C2469 C2470 1.523 . S
C2470 C2454 1.368 . S
C2470 C2466 1.368 . S
C2470 C2469 1.523 . S
H2471 C2446 0.950 . S
H2472 C2448 0.950 . S
H2473 C2449 0.949 . S
H2474 C2451 0.950 . S
H2475 C2453 0.950 . S
C2476 C2477 1.349 . S
C2476 C2478 1.327 . S
C2476 H2501 0.950 . S
C2477 C2476 1.349 . S
C2477 C2493 1.349 . S
C2478 C2476 1.327 . S
C2478 C2497 1.429 . S
C2478 H2502 0.950 1_556 S
C2479 C2496 1.574 . S
C2479 C2498 1.368 . S
C2479 H2503 0.949 . S
H2480 C2484 0.949 . S
C2481 C2482 1.341 1_556 S
C2481 C2483 1.329 . S
C2481 H2504 0.956 . S
C2482 C2481 1.341 1_554 S
C2482 C2494 1.349 . S
C2483 C2481 1.329 . S
C2483 C2499 1.429 1_556 S
C2483 H2505 0.950 . S
C2484 H2480 0.949 . S
C2484 C2492 1.574 . S
C2484 C2500 1.342 1_554 S
H2485 C2493 0.942 1_655 S
H2486 C2491 0.975 . S
H2487 C2492 0.949 . S
H2488 C2494 0.950 . S
H2489 C2495 0.950 . S
H2490 C2496 0.949 . S
C2491 H2486 0.975 . S
C2491 C2493 1.327 . S
C2491 C2497 1.429 . S
C2492 C2484 1.574 . S
C2492 H2487 0.949 . S
C2492 C2498 1.368 1_554 S
C2493 C2477 1.349 . S
C2493 H2485 0.942 1_455 S
C2493 C2491 1.327 . S
C2494 C2482 1.349 . S
C2494 H2488 0.950 . S
C2494 C2495 1.327 . S
C2495 H2489 0.950 . S
C2495 C2494 1.327 . S
C2495 C2499 1.429 . S
C2496 C2479 1.574 . S
C2496 H2490 0.949 . S
C2496 C2500 1.400 . S
C2497 C2478 1.429 . S
C2497 C2491 1.429 . S
C2497 C2498 1.523 . S
C2498 C2479 1.368 . S
C2498 C2492 1.368 1_556 S
C2498 C2497 1.523 . S
C2499 C2483 1.429 1_554 S
C2499 C2495 1.429 . S
C2499 C2500 1.517 1_554 S
C2500 C2484 1.342 1_556 S
C2500 C2496 1.400 . S
C2500 C2499 1.517 1_556 S
H2501 C2476 0.950 . S
H2502 C2478 0.950 1_554 S
H2503 C2479 0.949 . S
H2504 C2481 0.956 . S
H2505 C2483 0.950 . S
C2506 C2507 1.349 1_655 S
C2506 C2508 1.327 . S
C2506 H2531 0.950 1_655 S
C2507 C2506 1.349 1_455 S
C2507 C2523 1.349 1_455 S
C2508 C2506 1.327 . S
C2508 C2527 1.429 . S
C2508 H2532 0.950 . S
C2509 C2526 1.574 . S
C2509 C2528 1.368 . S
C2509 H2533 0.949 . S
H2510 C2514 0.949 . S
C2511 C2512 1.349 . S
C2511 C2513 1.327 . S
C2511 H2534 0.950 . S
C2512 C2511 1.349 . S
C2512 C2524 1.349 . S
C2513 C2511 1.327 . S
C2513 C2529 1.429 . S
C2513 H2535 0.950 . S
C2514 H2510 0.949 . S
C2514 C2522 1.574 . S
C2514 C2530 1.368 . S
H2515 C2523 0.950 . S
H2516 C2521 0.950 . S
H2517 C2522 0.949 . S
H2518 C2524 0.950 . S
H2519 C2525 0.950 . S
H2520 C2526 0.949 . S
C2521 H2516 0.950 . S
C2521 C2523 1.327 . S
C2521 C2527 1.429 . S
C2522 C2514 1.574 . S
C2522 H2517 0.949 . S
C2522 C2528 1.368 . S
C2523 C2507 1.349 1_655 S
C2523 H2515 0.950 . S
C2523 C2521 1.327 . S
C2524 C2512 1.349 . S
C2524 H2518 0.950 . S
C2524 C2525 1.327 . S
C2525 H2519 0.950 . S
C2525 C2524 1.327 . S
C2525 C2529 1.429 . S
C2526 C2509 1.574 . S
C2526 H2520 0.949 . S
C2526 C2530 1.368 . S
C2527 C2508 1.429 . S
C2527 C2521 1.429 . S
C2527 C2528 1.523 . S
C2528 C2509 1.368 . S
C2528 C2522 1.368 . S
C2528 C2527 1.523 . S
C2529 C2513 1.429 . S
C2529 C2525 1.429 . S
C2529 C2530 1.523 . S
C2530 C2514 1.368 . S
C2530 C2526 1.368 . S
C2530 C2529 1.523 . S
H2531 C2506 0.950 1_455 S
H2532 C2508 0.950 . S
H2533 C2509 0.949 . S
H2534 C2511 0.950 . S
H2535 C2513 0.950 . S
C2536 C2537 1.349 . S
C2536 C2538 1.327 . S
C2536 H2561 0.950 . S
C2537 C2536 1.349 . S
C2537 C2553 1.349 . S
C2538 C2536 1.327 . S
C2538 C2557 1.429 . S
C2538 H2562 0.950 . S
C2539 C2556 1.574 . S
C2539 C2558 1.368 . S
C2539 H2563 0.949 . S
H2540 C2544 0.949 . S
C2541 C2542 1.349 . S
C2541 C2543 1.327 . S
C2541 H2564 0.950 . S
C2542 C2541 1.349 . S
C2542 C2554 1.349 . S
C2543 C2541 1.327 . S
C2543 C2559 1.429 . S
C2543 H2565 0.950 . S
C2544 H2540 0.949 . S
C2544 C2552 1.574 . S
C2544 C2560 1.368 . S
H2545 C2553 0.950 . S
H2546 C2551 0.950 . S
H2547 C2552 0.949 . S
H2548 C2554 0.950 . S
H2549 C2555 0.950 . S
H2550 C2556 0.949 . S
C2551 H2546 0.950 . S
C2551 C2553 1.327 . S
C2551 C2557 1.429 . S
C2552 C2544 1.574 . S
C2552 H2547 0.949 . S
C2552 C2558 1.368 . S
C2553 C2537 1.349 . S
C2553 H2545 0.950 . S
C2553 C2551 1.327 . S
C2554 C2542 1.349 . S
C2554 H2548 0.950 . S
C2554 C2555 1.327 . S
C2555 H2549 0.950 . S
C2555 C2554 1.327 . S
C2555 C2559 1.429 . S
C2556 C2539 1.574 . S
C2556 H2550 0.949 . S
C2556 C2560 1.368 . S
C2557 C2538 1.429 . S
C2557 C2551 1.429 . S
C2557 C2558 1.523 . S
C2558 C2539 1.368 . S
C2558 C2552 1.368 . S
C2558 C2557 1.523 . S
C2559 C2543 1.429 . S
C2559 C2555 1.429 . S
C2559 C2560 1.523 . S
C2560 C2544 1.368 . S
C2560 C2556 1.368 . S
C2560 C2559 1.523 . S
H2561 C2536 0.950 . S
H2562 C2538 0.950 . S
H2563 C2539 0.949 . S
H2564 C2541 0.950 . S
H2565 C2543 0.950 . S
C2566 C2567 1.349 . S
C2566 C2568 1.327 . S
C2566 H2591 0.950 . S
C2567 C2566 1.349 . S
C2567 C2583 1.349 . S
C2568 C2566 1.327 . S
C2568 C2587 1.429 . S
C2568 H2592 0.950 . S
C2569 C2586 1.574 . S
C2569 C2588 1.368 . S
C2569 H2593 0.949 . S
H2570 C2574 0.949 . S
C2571 C2572 1.349 . S
C2571 C2573 1.327 . S
C2571 H2594 0.950 . S
C2572 C2571 1.349 . S
C2572 C2584 1.349 . S
C2573 C2571 1.327 . S
C2573 C2589 1.429 . S
C2573 H2595 0.950 . S
C2574 H2570 0.949 . S
C2574 C2582 1.574 . S
C2574 C2590 1.368 . S
H2575 C2583 0.950 . S
H2576 C2581 0.950 . S
H2577 C2582 0.949 . S
H2578 C2584 0.950 . S
H2579 C2585 0.950 . S
H2580 C2586 0.949 . S
C2581 H2576 0.950 . S
C2581 C2583 1.327 . S
C2581 C2587 1.429 . S
C2582 C2574 1.574 . S
C2582 H2577 0.949 . S
C2582 C2588 1.368 . S
C2583 C2567 1.349 . S
C2583 H2575 0.950 . S
C2583 C2581 1.327 . S
C2584 C2572 1.349 . S
C2584 H2578 0.950 . S
C2584 C2585 1.327 . S
C2585 H2579 0.950 . S
C2585 C2584 1.327 . S
C2585 C2589 1.429 . S
C2586 C2569 1.574 . S
C2586 H2580 0.949 . S
C2586 C2590 1.368 . S
C2587 C2568 1.429 . S
C2587 C2581 1.429 . S
C2587 C2588 1.523 . S
C2588 C2569 1.368 . S
C2588 C2582 1.368 . S
C2588 C2587 1.523 . S
C2589 C2573 1.429 . S
C2589 C2585 1.429 . S
C2589 C2590 1.523 . S
C2590 C2574 1.368 . S
C2590 C2586 1.368 . S
C2590 C2589 1.523 . S
H2591 C2566 0.950 . S
H2592 C2568 0.950 . S
H2593 C2569 0.949 . S
H2594 C2571 0.950 . S
H2595 C2573 0.950 . S
C2596 C2597 1.349 . S
C2596 C2598 1.327 . S
C2596 H2621 0.950 . S
C2597 C2596 1.349 . S
C2597 C2613 1.349 . S
C2598 C2596 1.327 . S
C2598 C2617 1.429 . S
C2598 H2622 0.950 . S
C2599 C2616 1.574 . S
C2599 C2618 1.368 . S
C2599 H2623 0.949 . S
H2600 C2604 0.949 . S
C2601 C2602 1.349 . S
C2601 C2603 1.327 . S
C2601 H2624 0.950 . S
C2602 C2601 1.349 . S
C2602 C2614 1.349 . S
C2603 C2601 1.327 . S
C2603 C2619 1.429 . S
C2603 H2625 0.950 . S
C2604 H2600 0.949 . S
C2604 C2612 1.574 . S
C2604 C2620 1.368 . S
H2605 C2613 0.950 . S
H2606 C2611 0.950 . S
H2607 C2612 0.949 . S
H2608 C2614 0.950 . S
H2609 C2615 0.950 . S
H2610 C2616 0.949 . S
C2611 H2606 0.950 . S
C2611 C2613 1.327 . S
C2611 C2617 1.429 . S
C2612 C2604 1.574 . S
C2612 H2607 0.949 . S
C2612 C2618 1.368 . S
C2613 C2597 1.349 . S
C2613 H2605 0.950 . S
C2613 C2611 1.327 . S
C2614 C2602 1.349 . S
C2614 H2608 0.950 . S
C2614 C2615 1.327 . S
C2615 H2609 0.950 . S
C2615 C2614 1.327 . S
C2615 C2619 1.429 . S
C2616 C2599 1.574 . S
C2616 H2610 0.949 . S
C2616 C2620 1.368 . S
C2617 C2598 1.429 . S
C2617 C2611 1.429 . S
C2617 C2618 1.523 . S
C2618 C2599 1.368 . S
C2618 C2612 1.368 . S
C2618 C2617 1.523 . S
C2619 C2603 1.429 . S
C2619 C2615 1.429 . S
C2619 C2620 1.523 . S
C2620 C2604 1.368 . S
C2620 C2616 1.368 . S
C2620 C2619 1.523 . S
H2621 C2596 0.950 . S
H2622 C2598 0.950 . S
H2623 C2599 0.949 . S
H2624 C2601 0.950 . S
H2625 C2603 0.950 . S
C2626 C2627 1.349 . S
C2626 C2628 1.327 . S
C2626 H2651 0.950 . S
C2627 C2626 1.349 . S
C2627 C2643 1.349 . S
C2628 C2626 1.327 . S
C2628 C2647 1.429 . S
C2628 H2652 0.950 . S
C2629 C2646 1.574 . S
C2629 C2648 1.368 . S
C2629 H2653 0.949 . S
H2630 C2634 0.949 . S
C2631 C2632 1.349 . S
C2631 C2633 1.327 . S
C2631 H2654 0.950 . S
C2632 C2631 1.349 . S
C2632 C2644 1.349 . S
C2633 C2631 1.327 . S
C2633 C2649 1.429 . S
C2633 H2655 0.950 . S
C2634 H2630 0.949 . S
C2634 C2642 1.574 . S
C2634 C2650 1.368 . S
H2635 C2643 0.950 . S
H2636 C2641 0.950 . S
H2637 C2642 0.949 . S
H2638 C2644 0.950 . S
H2639 C2645 0.950 . S
H2640 C2646 0.949 . S
C2641 H2636 0.950 . S
C2641 C2643 1.327 . S
C2641 C2647 1.429 . S
C2642 C2634 1.574 . S
C2642 H2637 0.949 . S
C2642 C2648 1.368 . S
C2643 C2627 1.349 . S
C2643 H2635 0.950 . S
C2643 C2641 1.327 . S
C2644 C2632 1.349 . S
C2644 H2638 0.950 . S
C2644 C2645 1.327 . S
C2645 H2639 0.950 . S
C2645 C2644 1.327 . S
C2645 C2649 1.429 . S
C2646 C2629 1.574 . S
C2646 H2640 0.949 . S
C2646 C2650 1.368 . S
C2647 C2628 1.429 . S
C2647 C2641 1.429 . S
C2647 C2648 1.523 . S
C2648 C2629 1.368 . S
C2648 C2642 1.368 . S
C2648 C2647 1.523 . S
C2649 C2633 1.429 . S
C2649 C2645 1.429 . S
C2649 C2650 1.523 . S
C2650 C2634 1.368 . S
C2650 C2646 1.368 . S
C2650 C2649 1.523 . S
H2651 C2626 0.950 . S
H2652 C2628 0.950 . S
H2653 C2629 0.949 . S
H2654 C2631 0.950 . S
H2655 C2633 0.950 . S
C2656 C2657 1.349 . S
C2656 C2658 1.327 . S
C2656 H2681 0.950 . S
C2657 C2656 1.349 . S
C2657 C2673 1.349 . S
C2658 C2656 1.327 . S
C2658 C2677 1.429 . S
C2658 H2682 0.950 . S
C2659 C2676 1.574 . S
C2659 C2678 1.368 . S
C2659 H2683 0.949 . S
H2660 C2664 0.949 . S
C2661 C2662 1.349 . S
C2661 C2663 1.327 . S
C2661 H2684 0.950 . S
C2662 C2661 1.349 . S
C2662 C2674 1.349 . S
C2663 C2661 1.327 . S
C2663 C2679 1.429 . S
C2663 H2685 0.950 . S
C2664 H2660 0.949 . S
C2664 C2672 1.574 . S
C2664 C2680 1.368 . S
H2665 C2673 0.950 . S
H2666 C2671 0.950 . S
H2667 C2672 0.949 . S
H2668 C2674 0.950 . S
H2669 C2675 0.950 . S
H2670 C2676 0.949 . S
C2671 H2666 0.950 . S
C2671 C2673 1.327 . S
C2671 C2677 1.429 . S
C2672 C2664 1.574 . S
C2672 H2667 0.949 . S
C2672 C2678 1.368 . S
C2673 C2657 1.349 . S
C2673 H2665 0.950 . S
C2673 C2671 1.327 . S
C2674 C2662 1.349 . S
C2674 H2668 0.950 . S
C2674 C2675 1.327 . S
C2675 H2669 0.950 . S
C2675 C2674 1.327 . S
C2675 C2679 1.429 . S
C2676 C2659 1.574 . S
C2676 H2670 0.949 . S
C2676 C2680 1.368 . S
C2677 C2658 1.429 . S
C2677 C2671 1.429 . S
C2677 C2678 1.523 . S
C2678 C2659 1.368 . S
C2678 C2672 1.368 . S
C2678 C2677 1.523 . S
C2679 C2663 1.429 . S
C2679 C2675 1.429 . S
C2679 C2680 1.523 . S
C2680 C2664 1.368 . S
C2680 C2676 1.368 . S
C2680 C2679 1.523 . S
H2681 C2656 0.950 . S
H2682 C2658 0.950 . S
H2683 C2659 0.949 . S
H2684 C2661 0.950 . S
H2685 C2663 0.950 . S
C2686 C2687 1.349 . S
C2686 C2688 1.327 1_554 S
C2686 H2711 0.950 . S
C2687 C2686 1.349 . S
C2687 C2703 1.349 1_554 S
C2688 C2686 1.327 1_556 S
C2688 C2707 1.429 . S
C2688 H2712 0.950 . S
C2689 C2706 1.574 . S
C2689 C2708 1.368 . S
C2689 H2713 0.949 . S
H2690 C2694 0.949 . S
C2691 C2692 1.349 . S
C2691 C2693 1.327 . S
C2691 H2714 0.950 . S
C2692 C2691 1.349 . S
C2692 C2704 1.349 . S
C2693 C2691 1.327 . S
C2693 C2709 1.429 . S
C2693 H2715 0.950 . S
C2694 H2690 0.949 . S
C2694 C2702 1.574 . S
C2694 C2710 1.368 . S
H2695 C2703 0.950 . S
H2696 C2701 0.950 . S
H2697 C2702 0.949 . S
H2698 C2704 0.950 . S
H2699 C2705 0.950 . S
H2700 C2706 0.949 . S
C2701 H2696 0.950 . S
C2701 C2703 1.327 . S
C2701 C2707 1.429 . S
C2702 C2694 1.574 . S
C2702 H2697 0.949 . S
C2702 C2708 1.368 . S
C2703 C2687 1.349 1_556 S
C2703 H2695 0.950 . S
C2703 C2701 1.327 . S
C2704 C2692 1.349 . S
C2704 H2698 0.950 . S
C2704 C2705 1.327 . S
C2705 H2699 0.950 . S
C2705 C2704 1.327 . S
C2705 C2709 1.429 . S
C2706 C2689 1.574 . S
C2706 H2700 0.949 . S
C2706 C2710 1.368 . S
C2707 C2688 1.429 . S
C2707 C2701 1.429 . S
C2707 C2708 1.523 . S
C2708 C2689 1.368 . S
C2708 C2702 1.368 . S
C2708 C2707 1.523 . S
C2709 C2693 1.429 . S
C2709 C2705 1.429 . S
C2709 C2710 1.523 . S
C2710 C2694 1.368 . S
C2710 C2706 1.368 . S
C2710 C2709 1.523 . S
H2711 C2686 0.950 . S
H2712 C2688 0.950 . S
H2713 C2689 0.949 . S
H2714 C2691 0.950 . S
H2715 C2693 0.950 . S
C2716 C2717 1.349 . S
C2716 C2718 1.327 . S
C2716 H2741 0.950 . S
C2717 C2716 1.349 . S
C2717 C2733 1.349 . S
C2718 C2716 1.327 . S
C2718 C2737 1.429 . S
C2718 H2742 0.950 . S
C2719 C2736 1.574 . S
C2719 C2738 1.368 . S
C2719 H2743 0.949 . S
H2720 C2724 0.949 . S
C2721 C2722 1.349 . S
C2721 C2723 1.327 . S
C2721 H2744 0.950 . S
C2722 C2721 1.349 . S
C2722 C2734 1.349 . S
C2723 C2721 1.327 . S
C2723 C2739 1.429 . S
C2723 H2745 0.950 . S
C2724 H2720 0.949 . S
C2724 C2732 1.574 . S
C2724 C2740 1.368 . S
H2725 C2733 0.950 . S
H2726 C2731 0.950 . S
H2727 C2732 0.949 . S
H2728 C2734 0.950 . S
H2729 C2735 0.950 . S
H2730 C2736 0.949 . S
C2731 H2726 0.950 . S
C2731 C2733 1.327 . S
C2731 C2737 1.429 . S
C2732 C2724 1.574 . S
C2732 H2727 0.949 . S
C2732 C2738 1.368 . S
C2733 C2717 1.349 . S
C2733 H2725 0.950 . S
C2733 C2731 1.327 . S
C2734 C2722 1.349 . S
C2734 H2728 0.950 . S
C2734 C2735 1.327 . S
C2735 H2729 0.950 . S
C2735 C2734 1.327 . S
C2735 C2739 1.429 . S
C2736 C2719 1.574 . S
C2736 H2730 0.949 . S
C2736 C2740 1.368 . S
C2737 C2718 1.429 . S
C2737 C2731 1.429 . S
C2737 C2738 1.523 . S
C2738 C2719 1.368 . S
C2738 C2732 1.368 . S
C2738 C2737 1.523 . S
C2739 C2723 1.429 . S
C2739 C2735 1.429 . S
C2739 C2740 1.523 . S
C2740 C2724 1.368 . S
C2740 C2736 1.368 . S
C2740 C2739 1.523 . S
H2741 C2716 0.950 . S
H2742 C2718 0.950 . S
H2743 C2719 0.949 . S
H2744 C2721 0.950 . S
H2745 C2723 0.950 . S
C2746 C2747 1.349 . S
C2746 C2748 1.327 . S
C2746 H2771 0.950 . S
C2747 C2746 1.349 . S
C2747 C2763 1.349 . S
C2748 C2746 1.327 . S
C2748 C2767 1.429 . S
C2748 H2772 0.950 . S
C2749 C2766 1.574 . S
C2749 C2768 1.368 . S
C2749 H2773 0.949 . S
H2750 C2754 0.949 . S
C2751 C2752 1.349 . S
C2751 C2753 1.327 . S
C2751 H2774 0.950 . S
C2752 C2751 1.349 . S
C2752 C2764 1.349 . S
C2753 C2751 1.327 . S
C2753 C2769 1.429 . S
C2753 H2775 0.950 . S
C2754 H2750 0.949 . S
C2754 C2762 1.574 . S
C2754 C2770 1.368 . S
H2755 C2763 0.950 . S
H2756 C2761 0.950 . S
H2757 C2762 0.949 . S
H2758 C2764 0.950 . S
H2759 C2765 0.950 . S
H2760 C2766 0.949 . S
C2761 H2756 0.950 . S
C2761 C2763 1.327 . S
C2761 C2767 1.429 . S
C2762 C2754 1.574 . S
C2762 H2757 0.949 . S
C2762 C2768 1.368 . S
C2763 C2747 1.349 . S
C2763 H2755 0.950 . S
C2763 C2761 1.327 . S
C2764 C2752 1.349 . S
C2764 H2758 0.950 . S
C2764 C2765 1.327 . S
C2765 H2759 0.950 . S
C2765 C2764 1.327 . S
C2765 C2769 1.429 . S
C2766 C2749 1.574 . S
C2766 H2760 0.949 . S
C2766 C2770 1.368 . S
C2767 C2748 1.429 . S
C2767 C2761 1.429 . S
C2767 C2768 1.523 . S
C2768 C2749 1.368 . S
C2768 C2762 1.368 . S
C2768 C2767 1.523 . S
C2769 C2753 1.429 . S
C2769 C2765 1.429 . S
C2769 C2770 1.523 . S
C2770 C2754 1.368 . S
C2770 C2766 1.368 . S
C2770 C2769 1.523 . S
H2771 C2746 0.950 . S
H2772 C2748 0.950 . S
H2773 C2749 0.949 . S
H2774 C2751 0.950 . S
H2775 C2753 0.950 . S
C2776 C2777 1.349 . S
C2776 C2778 1.327 . S
C2776 H2801 0.950 . S
C2777 C2776 1.349 . S
C2777 C2793 1.349 . S
C2778 C2776 1.327 . S
C2778 C2797 1.429 . S
C2778 H2802 0.950 . S
C2779 C2796 1.574 . S
C2779 C2798 1.368 . S
C2779 H2803 0.949 . S
H2780 C2784 0.949 . S
C2781 C2782 1.349 . S
C2781 C2783 1.327 . S
C2781 H2804 0.950 . S
C2782 C2781 1.349 . S
C2782 C2794 1.349 . S
C2783 C2781 1.327 . S
C2783 C2799 1.429 . S
C2783 H2805 0.950 . S
C2784 H2780 0.949 . S
C2784 C2792 1.574 . S
C2784 C2800 1.368 . S
H2785 C2793 0.950 . S
H2786 C2791 0.950 . S
H2787 C2792 0.949 . S
H2788 C2794 0.950 . S
H2789 C2795 0.950 . S
H2790 C2796 0.949 . S
C2791 H2786 0.950 . S
C2791 C2793 1.327 . S
C2791 C2797 1.429 . S
C2792 C2784 1.574 . S
C2792 H2787 0.949 . S
C2792 C2798 1.368 . S
C2793 C2777 1.349 . S
C2793 H2785 0.950 . S
C2793 C2791 1.327 . S
C2794 C2782 1.349 . S
C2794 H2788 0.950 . S
C2794 C2795 1.327 . S
C2795 H2789 0.950 . S
C2795 C2794 1.327 . S
C2795 C2799 1.429 . S
C2796 C2779 1.574 . S
C2796 H2790 0.949 . S
C2796 C2800 1.368 . S
C2797 C2778 1.429 . S
C2797 C2791 1.429 . S
C2797 C2798 1.523 . S
C2798 C2779 1.368 . S
C2798 C2792 1.368 . S
C2798 C2797 1.523 . S
C2799 C2783 1.429 . S
C2799 C2795 1.429 . S
C2799 C2800 1.523 . S
C2800 C2784 1.368 . S
C2800 C2796 1.368 . S
C2800 C2799 1.523 . S
H2801 C2776 0.950 . S
H2802 C2778 0.950 . S
H2803 C2779 0.949 . S
H2804 C2781 0.950 . S
H2805 C2783 0.950 . S
C2806 C2807 1.349 . S
C2806 C2808 1.327 . S
C2806 H2831 0.950 . S
C2807 C2806 1.349 . S
C2807 C2823 1.349 . S
C2808 C2806 1.327 . S
C2808 C2827 1.429 . S
C2808 H2832 0.950 . S
C2809 C2826 1.574 . S
C2809 C2828 1.368 . S
C2809 H2833 0.949 . S
H2810 C2814 0.949 . S
C2811 C2812 1.349 . S
C2811 C2813 1.327 . S
C2811 H2834 0.950 . S
C2812 C2811 1.349 . S
C2812 C2824 1.349 . S
C2813 C2811 1.327 . S
C2813 C2829 1.429 . S
C2813 H2835 0.950 . S
C2814 H2810 0.949 . S
C2814 C2822 1.574 . S
C2814 C2830 1.368 . S
H2815 C2823 0.950 . S
H2816 C2821 0.950 . S
H2817 C2822 0.949 . S
H2818 C2824 0.950 . S
H2819 C2825 0.950 . S
H2820 C2826 0.949 . S
C2821 H2816 0.950 . S
C2821 C2823 1.327 . S
C2821 C2827 1.429 . S
C2822 C2814 1.574 . S
C2822 H2817 0.949 . S
C2822 C2828 1.368 . S
C2823 C2807 1.349 . S
C2823 H2815 0.950 . S
C2823 C2821 1.327 . S
C2824 C2812 1.349 . S
C2824 H2818 0.950 . S
C2824 C2825 1.327 . S
C2825 H2819 0.950 . S
C2825 C2824 1.327 . S
C2825 C2829 1.429 . S
C2826 C2809 1.574 . S
C2826 H2820 0.949 . S
C2826 C2830 1.368 . S
C2827 C2808 1.429 . S
C2827 C2821 1.429 . S
C2827 C2828 1.523 . S
C2828 C2809 1.368 . S
C2828 C2822 1.368 . S
C2828 C2827 1.523 . S
C2829 C2813 1.429 . S
C2829 C2825 1.429 . S
C2829 C2830 1.523 . S
C2830 C2814 1.368 . S
C2830 C2826 1.368 . S
C2830 C2829 1.523 . S
H2831 C2806 0.950 . S
H2832 C2808 0.950 . S
H2833 C2809 0.949 . S
H2834 C2811 0.950 . S
H2835 C2813 0.950 . S
C2836 C2837 1.349 . S
C2836 C2838 1.327 . S
C2836 H2861 0.950 . S
C2837 C2836 1.349 . S
C2837 C2853 1.349 . S
C2838 C2836 1.327 . S
C2838 C2857 1.429 . S
C2838 H2862 0.950 . S
C2839 C2856 1.574 . S
C2839 C2858 1.368 . S
C2839 H2863 0.949 . S
H2840 C2844 0.949 . S
C2841 C2842 1.349 . S
C2841 C2843 1.327 . S
C2841 H2864 0.950 . S
C2842 C2841 1.349 . S
C2842 C2854 1.349 . S
C2843 C2841 1.327 . S
C2843 C2859 1.429 . S
C2843 H2865 0.950 . S
C2844 H2840 0.949 . S
C2844 C2852 1.574 . S
C2844 C2860 1.368 . S
H2845 C2853 0.950 . S
H2846 C2851 0.950 . S
H2847 C2852 0.949 . S
H2848 C2854 0.950 . S
H2849 C2855 0.950 . S
H2850 C2856 0.949 . S
C2851 H2846 0.950 . S
C2851 C2853 1.327 . S
C2851 C2857 1.429 . S
C2852 C2844 1.574 . S
C2852 H2847 0.949 . S
C2852 C2858 1.368 . S
C2853 C2837 1.349 . S
C2853 H2845 0.950 . S
C2853 C2851 1.327 . S
C2854 C2842 1.349 . S
C2854 H2848 0.950 . S
C2854 C2855 1.327 . S
C2855 H2849 0.950 . S
C2855 C2854 1.327 . S
C2855 C2859 1.429 . S
C2856 C2839 1.574 . S
C2856 H2850 0.949 . S
C2856 C2860 1.368 . S
C2857 C2838 1.429 . S
C2857 C2851 1.429 . S
C2857 C2858 1.523 . S
C2858 C2839 1.368 . S
C2858 C2852 1.368 . S
C2858 C2857 1.523 . S
C2859 C2843 1.429 . S
C2859 C2855 1.429 . S
C2859 C2860 1.523 . S
C2860 C2844 1.368 . S
C2860 C2856 1.368 . S
C2860 C2859 1.523 . S
H2861 C2836 0.950 . S
H2862 C2838 0.950 . S
H2863 C2839 0.949 . S
H2864 C2841 0.950 . S
H2865 C2843 0.950 . S
C2866 C2867 1.349 . S
C2866 C2868 1.327 . S
C2866 H2891 0.950 . S
C2867 C2866 1.349 . S
C2867 C2883 1.349 . S
C2868 C2866 1.327 . S
C2868 C2887 1.429 . S
C2868 H2892 0.950 . S
C2869 C2886 1.574 . S
C2869 C2888 1.368 . S
C2869 H2893 0.949 . S
H2870 C2874 0.949 . S
C2871 C2872 1.349 . S
C2871 C2873 1.327 . S
C2871 H2894 0.950 . S
C2872 C2871 1.349 . S
C2872 C2884 1.349 . S
C2873 C2871 1.327 . S
C2873 C2889 1.429 . S
C2873 H2895 0.950 . S
C2874 H2870 0.949 . S
C2874 C2882 1.574 . S
C2874 C2890 1.368 . S
H2875 C2883 0.950 . S
H2876 C2881 0.950 . S
H2877 C2882 0.949 . S
H2878 C2884 0.950 . S
H2879 C2885 0.950 . S
H2880 C2886 0.949 . S
C2881 H2876 0.950 . S
C2881 C2883 1.327 . S
C2881 C2887 1.429 . S
C2882 C2874 1.574 . S
C2882 H2877 0.949 . S
C2882 C2888 1.368 . S
C2883 C2867 1.349 . S
C2883 H2875 0.950 . S
C2883 C2881 1.327 . S
C2884 C2872 1.349 . S
C2884 H2878 0.950 . S
C2884 C2885 1.327 . S
C2885 H2879 0.950 . S
C2885 C2884 1.327 . S
C2885 C2889 1.429 . S
C2886 C2869 1.574 . S
C2886 H2880 0.949 . S
C2886 C2890 1.368 . S
C2887 C2868 1.429 . S
C2887 C2881 1.429 . S
C2887 C2888 1.523 . S
C2888 C2869 1.368 . S
C2888 C2882 1.368 . S
C2888 C2887 1.523 . S
C2889 C2873 1.429 . S
C2889 C2885 1.429 . S
C2889 C2890 1.523 . S
C2890 C2874 1.368 . S
C2890 C2886 1.368 . S
C2890 C2889 1.523 . S
H2891 C2866 0.950 . S
H2892 C2868 0.950 . S
H2893 C2869 0.949 . S
H2894 C2871 0.950 . S
H2895 C2873 0.950 . S
C2896 C2897 1.349 . S
C2896 C2898 1.327 . S
C2896 H2921 0.950 . S
C2897 C2896 1.349 . S
C2897 C2913 1.349 . S
C2898 C2896 1.327 . S
C2898 C2917 1.429 . S
C2898 H2922 0.950 . S
C2899 C2916 1.574 . S
C2899 C2918 1.368 . S
C2899 H2923 0.949 . S
H2900 C2904 0.949 . S
C2901 C2902 1.349 . S
C2901 C2903 1.327 . S
C2901 H2924 0.950 . S
C2902 C2901 1.349 . S
C2902 C2914 1.349 . S
C2903 C2901 1.327 . S
C2903 C2919 1.429 . S
C2903 H2925 0.950 . S
C2904 H2900 0.949 . S
C2904 C2912 1.574 . S
C2904 C2920 1.368 . S
H2905 C2913 0.950 . S
H2906 C2911 0.950 . S
H2907 C2912 0.949 . S
H2908 C2914 0.950 . S
H2909 C2915 0.950 . S
H2910 C2916 0.949 . S
C2911 H2906 0.950 . S
C2911 C2913 1.327 . S
C2911 C2917 1.429 . S
C2912 C2904 1.574 . S
C2912 H2907 0.949 . S
C2912 C2918 1.368 . S
C2913 C2897 1.349 . S
C2913 H2905 0.950 . S
C2913 C2911 1.327 . S
C2914 C2902 1.349 . S
C2914 H2908 0.950 . S
C2914 C2915 1.327 . S
C2915 H2909 0.950 . S
C2915 C2914 1.327 . S
C2915 C2919 1.429 . S
C2916 C2899 1.574 . S
C2916 H2910 0.949 . S
C2916 C2920 1.368 . S
C2917 C2898 1.429 . S
C2917 C2911 1.429 . S
C2917 C2918 1.523 . S
C2918 C2899 1.368 . S
C2918 C2912 1.368 . S
C2918 C2917 1.523 . S
C2919 C2903 1.429 . S
C2919 C2915 1.429 . S
C2919 C2920 1.523 . S
C2920 C2904 1.368 . S
C2920 C2916 1.368 . S
C2920 C2919 1.523 . S
H2921 C2896 0.950 . S
H2922 C2898 0.950 . S
H2923 C2899 0.949 . S
H2924 C2901 0.950 . S
H2925 C2903 0.950 . S
C2926 C2927 1.349 . S
C2926 C2928 1.327 . S
C2926 H2951 0.950 . S
C2927 C2926 1.349 . S
C2927 C2943 1.349 . S
C2928 C2926 1.327 . S
C2928 C2947 1.429 . S
C2928 H2952 0.950 . S
C2929 C2946 1.574 . S
C2929 C2948 1.368 . S
C2929 H2953 0.949 . S
H2930 C2934 0.949 . S
C2931 C2932 1.349 . S
C2931 C2933 1.327 . S
C2931 H2954 0.950 . S
C2932 C2931 1.349 . S
C2932 C2944 1.349 . S
C2933 C2931 1.327 . S
C2933 C2949 1.429 . S
C2933 H2955 0.950 . S
C2934 H2930 0.949 . S
C2934 C2942 1.574 . S
C2934 C2950 1.368 . S
H2935 C2943 0.950 . S
H2936 C2941 0.950 . S
H2937 C2942 0.949 . S
H2938 C2944 0.950 . S
H2939 C2945 0.950 . S
H2940 C2946 0.949 . S
C2941 H2936 0.950 . S
C2941 C2943 1.327 . S
C2941 C2947 1.429 . S
C2942 C2934 1.574 . S
C2942 H2937 0.949 . S
C2942 C2948 1.368 . S
C2943 C2927 1.349 . S
C2943 H2935 0.950 . S
C2943 C2941 1.327 . S
C2944 C2932 1.349 . S
C2944 H2938 0.950 . S
C2944 C2945 1.327 . S
C2945 H2939 0.950 . S
C2945 C2944 1.327 . S
C2945 C2949 1.429 . S
C2946 C2929 1.574 . S
C2946 H2940 0.949 . S
C2946 C2950 1.368 . S
C2947 C2928 1.429 . S
C2947 C2941 1.429 . S
C2947 C2948 1.523 . S
C2948 C2929 1.368 . S
C2948 C2942 1.368 . S
C2948 C2947 1.523 . S
C2949 C2933 1.429 . S
C2949 C2945 1.429 . S
C2949 C2950 1.523 . S
C2950 C2934 1.368 . S
C2950 C2946 1.368 . S
C2950 C2949 1.523 . S
H2951 C2926 0.950 . S
H2952 C2928 0.950 . S
H2953 C2929 0.949 . S
H2954 C2931 0.950 . S
H2955 C2933 0.950 . S
C2956 C2957 1.349 . S
C2956 C2958 1.327 . S
C2956 H2981 0.950 . S
C2957 C2956 1.349 . S
C2957 C2973 1.349 . S
C2958 C2956 1.327 . S
C2958 C2977 1.429 . S
C2958 H2982 0.950 . S
C2959 C2976 1.574 . S
C2959 C2978 1.368 . S
C2959 H2983 0.949 . S
H2960 C2964 0.949 . S
C2961 C2962 1.349 . S
C2961 C2963 1.327 . S
C2961 H2984 0.950 . S
C2962 C2961 1.349 . S
C2962 C2974 1.349 . S
C2963 C2961 1.327 . S
C2963 C2979 1.429 . S
C2963 H2985 0.950 . S
C2964 H2960 0.949 . S
C2964 C2972 1.574 . S
C2964 C2980 1.368 . S
H2965 C2973 0.950 1_545 S
H2966 C2971 0.950 . S
H2967 C2972 0.949 . S
H2968 C2974 0.950 . S
H2969 C2975 0.950 . S
H2970 C2976 0.949 . S
C2971 H2966 0.950 . S
C2971 C2973 1.327 . S
C2971 C2977 1.429 . S
C2972 C2964 1.574 . S
C2972 H2967 0.949 . S
C2972 C2978 1.368 . S
C2973 C2957 1.349 . S
C2973 H2965 0.950 1_565 S
C2973 C2971 1.327 . S
C2974 C2962 1.349 . S
C2974 H2968 0.950 . S
C2974 C2975 1.327 . S
C2975 H2969 0.950 . S
C2975 C2974 1.327 . S
C2975 C2979 1.429 . S
C2976 C2959 1.574 . S
C2976 H2970 0.949 . S
C2976 C2980 1.368 . S
C2977 C2958 1.429 . S
C2977 C2971 1.429 . S
C2977 C2978 1.523 . S
C2978 C2959 1.368 . S
C2978 C2972 1.368 . S
C2978 C2977 1.523 . S
C2979 C2963 1.429 . S
C2979 C2975 1.429 . S
C2979 C2980 1.523 . S
C2980 C2964 1.368 . S
C2980 C2976 1.368 . S
C2980 C2979 1.523 . S
H2981 C2956 0.950 . S
H2982 C2958 0.950 . S
H2983 C2959 0.949 . S
H2984 C2961 0.950 . S
H2985 C2963 0.950 . S
C2986 C2987 1.349 1_556 S
C2986 C2988 1.327 . S
C2986 H3011 0.950 . S
C2987 C2986 1.349 1_554 S
C2987 C3003 1.349 . S
C2988 C2986 1.327 . S
C2988 C3007 1.429 1_556 S
C2988 H3012 0.950 . S
C2989 C3006 1.574 . S
C2989 C3008 1.368 . S
C2989 H3013 0.949 . S
H2990 C2994 0.969 . S
C2991 C2992 1.349 . S
C2991 C2993 1.327 1_545 S
C2991 H3014 0.950 . S
C2992 C2991 1.349 . S
C2992 C3004 1.349 . S
C2993 C2991 1.327 1_565 S
C2993 C3009 1.429 . S
C2993 H3015 0.950 . S
C2994 H2990 0.969 . S
C2994 C3002 1.573 . S
C2994 C3010 1.348 1_556 S
H2995 C3003 0.950 . S
H2996 C3001 0.950 . S
H2997 C3002 0.949 . S
H2998 C3004 0.911 1_556 S
H2999 C3005 0.950 1_556 S
H3000 C3006 0.949 . S
C3001 H2996 0.950 . S
C3001 C3003 1.327 . S
C3001 C3007 1.429 . S
C3002 C2994 1.573 . S
C3002 H2997 0.949 . S
C3002 C3008 1.368 1_556 S
C3003 C2987 1.349 . S
C3003 H2995 0.950 . S
C3003 C3001 1.327 . S
C3004 C2992 1.349 . S
C3004 H2998 0.911 1_554 S
C3004 C3005 1.327 . S
C3005 H2999 0.950 1_554 S
C3005 C3004 1.327 . S
C3005 C3009 1.429 1_545 S
C3006 C2989 1.574 . S
C3006 H3000 0.949 . S
C3006 C3010 1.368 . S
C3007 C2988 1.429 1_554 S
C3007 C3001 1.429 . S
C3007 C3008 1.523 . S
C3008 C2989 1.368 . S
C3008 C3002 1.368 1_554 S
C3008 C3007 1.523 . S
C3009 C2993 1.429 . S
C3009 C3005 1.429 1_565 S
C3009 C3010 1.523 . S
C3010 C2994 1.348 1_554 S
C3010 C3006 1.368 . S
C3010 C3009 1.523 . S
H3011 C2986 0.950 . S
H3012 C2988 0.950 . S
H3013 C2989 0.949 . S
H3014 C2991 0.950 . S
H3015 C2993 0.950 . S
C3016 C3017 1.349 . S
C3016 C3018 1.327 . S
C3016 H3041 0.950 . S
C3017 C3016 1.349 . S
C3017 C3033 1.349 . S
C3018 C3016 1.327 . S
C3018 C3037 1.429 . S
C3018 H3042 0.950 . S
C3019 C3036 1.574 . S
C3019 C3038 1.368 . S
C3019 H3043 0.949 . S
H3020 C3024 0.949 . S
C3021 C3022 1.349 . S
C3021 C3023 1.327 . S
C3021 H3044 0.950 . S
C3022 C3021 1.349 . S
C3022 C3034 1.349 . S
C3023 C3021 1.327 . S
C3023 C3039 1.429 . S
C3023 H3045 0.950 . S
C3024 H3020 0.949 . S
C3024 C3032 1.574 . S
C3024 C3040 1.368 . S
H3025 C3033 0.950 . S
H3026 C3031 0.950 . S
H3027 C3032 0.949 . S
H3028 C3034 0.950 . S
H3029 C3035 0.950 . S
H3030 C3036 0.949 . S
C3031 H3026 0.950 . S
C3031 C3033 1.327 . S
C3031 C3037 1.429 . S
C3032 C3024 1.574 . S
C3032 H3027 0.949 . S
C3032 C3038 1.368 . S
C3033 C3017 1.349 . S
C3033 H3025 0.950 . S
C3033 C3031 1.327 . S
C3034 C3022 1.349 . S
C3034 H3028 0.950 . S
C3034 C3035 1.327 . S
C3035 H3029 0.950 . S
C3035 C3034 1.327 . S
C3035 C3039 1.429 . S
C3036 C3019 1.574 . S
C3036 H3030 0.949 . S
C3036 C3040 1.368 . S
C3037 C3018 1.429 . S
C3037 C3031 1.429 . S
C3037 C3038 1.523 . S
C3038 C3019 1.368 . S
C3038 C3032 1.368 . S
C3038 C3037 1.523 . S
C3039 C3023 1.429 . S
C3039 C3035 1.429 . S
C3039 C3040 1.523 . S
C3040 C3024 1.368 . S
C3040 C3036 1.368 . S
C3040 C3039 1.523 . S
H3041 C3016 0.950 . S
H3042 C3018 0.950 . S
H3043 C3019 0.949 . S
H3044 C3021 0.950 . S
H3045 C3023 0.950 . S
C3046 C3047 1.349 . S
C3046 C3048 1.327 . S
C3046 H3071 0.950 . S
C3047 C3046 1.349 . S
C3047 C3063 1.349 . S
C3048 C3046 1.327 . S
C3048 C3067 1.429 . S
C3048 H3072 0.950 . S
C3049 C3066 1.574 . S
C3049 C3068 1.368 . S
C3049 H3073 0.949 . S
H3050 C3054 0.949 . S
C3051 C3052 1.349 . S
C3051 C3053 1.327 . S
C3051 H3074 0.950 . S
C3052 C3051 1.349 . S
C3052 C3064 1.349 . S
C3053 C3051 1.327 . S
C3053 C3069 1.429 . S
C3053 H3075 0.950 . S
C3054 H3050 0.949 . S
C3054 C3062 1.574 . S
C3054 C3070 1.368 . S
H3055 C3063 0.950 . S
H3056 C3061 0.950 . S
H3057 C3062 0.949 . S
H3058 C3064 0.950 . S
H3059 C3065 0.950 . S
H3060 C3066 0.949 . S
C3061 H3056 0.950 . S
C3061 C3063 1.327 . S
C3061 C3067 1.429 . S
C3062 C3054 1.574 . S
C3062 H3057 0.949 . S
C3062 C3068 1.368 . S
C3063 C3047 1.349 . S
C3063 H3055 0.950 . S
C3063 C3061 1.327 . S
C3064 C3052 1.349 . S
C3064 H3058 0.950 . S
C3064 C3065 1.327 . S
C3065 H3059 0.950 . S
C3065 C3064 1.327 . S
C3065 C3069 1.429 . S
C3066 C3049 1.574 . S
C3066 H3060 0.949 . S
C3066 C3070 1.368 . S
C3067 C3048 1.429 . S
C3067 C3061 1.429 . S
C3067 C3068 1.523 . S
C3068 C3049 1.368 . S
C3068 C3062 1.368 . S
C3068 C3067 1.523 . S
C3069 C3053 1.429 . S
C3069 C3065 1.429 . S
C3069 C3070 1.523 . S
C3070 C3054 1.368 . S
C3070 C3066 1.368 . S
C3070 C3069 1.523 . S
H3071 C3046 0.950 . S
H3072 C3048 0.950 . S
H3073 C3049 0.949 . S
H3074 C3051 0.950 . S
H3075 C3053 0.950 . S
C3076 C3077 1.349 . S
C3076 C3078 1.327 . S
C3076 H3101 0.950 . S
C3077 C3076 1.349 . S
C3077 C3093 1.349 . S
C3078 C3076 1.327 . S
C3078 C3097 1.429 . S
C3078 H3102 0.950 . S
C3079 C3096 1.574 . S
C3079 C3098 1.368 . S
C3079 H3103 0.949 . S
H3080 C3084 0.949 . S
C3081 C3082 1.349 . S
C3081 C3083 1.327 . S
C3081 H3104 0.950 . S
C3082 C3081 1.349 . S
C3082 C3094 1.349 . S
C3083 C3081 1.327 . S
C3083 C3099 1.429 . S
C3083 H3105 0.950 . S
C3084 H3080 0.949 . S
C3084 C3092 1.574 . S
C3084 C3100 1.368 . S
H3085 C3093 0.950 . S
H3086 C3091 0.950 . S
H3087 C3092 0.949 . S
H3088 C3094 0.950 . S
H3089 C3095 0.950 . S
H3090 C3096 0.949 . S
C3091 H3086 0.950 . S
C3091 C3093 1.327 . S
C3091 C3097 1.429 . S
C3092 C3084 1.574 . S
C3092 H3087 0.949 . S
C3092 C3098 1.368 . S
C3093 C3077 1.349 . S
C3093 H3085 0.950 . S
C3093 C3091 1.327 . S
C3094 C3082 1.349 . S
C3094 H3088 0.950 . S
C3094 C3095 1.327 . S
C3095 H3089 0.950 . S
C3095 C3094 1.327 . S
C3095 C3099 1.429 . S
C3096 C3079 1.574 . S
C3096 H3090 0.949 . S
C3096 C3100 1.368 . S
C3097 C3078 1.429 . S
C3097 C3091 1.429 . S
C3097 C3098 1.523 . S
C3098 C3079 1.368 . S
C3098 C3092 1.368 . S
C3098 C3097 1.523 . S
C3099 C3083 1.429 . S
C3099 C3095 1.429 . S
C3099 C3100 1.523 . S
C3100 C3084 1.368 . S
C3100 C3096 1.368 . S
C3100 C3099 1.523 . S
H3101 C3076 0.950 . S
H3102 C3078 0.950 . S
H3103 C3079 0.949 . S
H3104 C3081 0.950 . S
H3105 C3083 0.950 . S
C3106 C3107 1.349 . S
C3106 C3108 1.327 . S
C3106 H3131 0.950 . S
C3107 C3106 1.349 . S
C3107 C3123 1.349 . S
C3108 C3106 1.327 . S
C3108 C3127 1.429 . S
C3108 H3132 0.950 . S
C3109 C3126 1.574 . S
C3109 C3128 1.368 . S
C3109 H3133 0.949 . S
H3110 C3114 0.949 . S
C3111 C3112 1.349 . S
C3111 C3113 1.327 . S
C3111 H3134 0.950 . S
C3112 C3111 1.349 . S
C3112 C3124 1.349 . S
C3113 C3111 1.327 . S
C3113 C3129 1.429 . S
C3113 H3135 0.950 . S
C3114 H3110 0.949 . S
C3114 C3122 1.574 . S
C3114 C3130 1.368 . S
H3115 C3123 0.950 . S
H3116 C3121 0.950 . S
H3117 C3122 0.949 . S
H3118 C3124 0.950 . S
H3119 C3125 0.950 . S
H3120 C3126 0.949 . S
C3121 H3116 0.950 . S
C3121 C3123 1.327 . S
C3121 C3127 1.429 . S
C3122 C3114 1.574 . S
C3122 H3117 0.949 . S
C3122 C3128 1.368 . S
C3123 C3107 1.349 . S
C3123 H3115 0.950 . S
C3123 C3121 1.327 . S
C3124 C3112 1.349 . S
C3124 H3118 0.950 . S
C3124 C3125 1.327 . S
C3125 H3119 0.950 . S
C3125 C3124 1.327 . S
C3125 C3129 1.429 . S
C3126 C3109 1.574 . S
C3126 H3120 0.949 . S
C3126 C3130 1.368 . S
C3127 C3108 1.429 . S
C3127 C3121 1.429 . S
C3127 C3128 1.523 . S
C3128 C3109 1.368 . S
C3128 C3122 1.368 . S
C3128 C3127 1.523 . S
C3129 C3113 1.429 . S
C3129 C3125 1.429 . S
C3129 C3130 1.523 . S
C3130 C3114 1.368 . S
C3130 C3126 1.368 . S
C3130 C3129 1.523 . S
H3131 C3106 0.950 . S
H3132 C3108 0.950 . S
H3133 C3109 0.949 . S
H3134 C3111 0.950 . S
H3135 C3113 0.950 . S
C3136 C3137 1.349 . S
C3136 C3138 1.327 . S
C3136 H3161 0.950 . S
C3137 C3136 1.349 . S
C3137 C3153 1.349 . S
C3138 C3136 1.327 . S
C3138 C3157 1.429 . S
C3138 H3162 0.950 . S
C3139 C3156 1.574 . S
C3139 C3158 1.368 . S
C3139 H3163 0.949 . S
H3140 C3144 0.949 . S
C3141 C3142 1.349 . S
C3141 C3143 1.327 . S
C3141 H3164 0.950 . S
C3142 C3141 1.349 . S
C3142 C3154 1.349 . S
C3143 C3141 1.327 . S
C3143 C3159 1.429 . S
C3143 H3165 0.950 . S
C3144 H3140 0.949 . S
C3144 C3152 1.574 . S
C3144 C3160 1.368 . S
H3145 C3153 0.950 . S
H3146 C3151 0.950 . S
H3147 C3152 0.949 . S
H3148 C3154 0.950 . S
H3149 C3155 0.950 . S
H3150 C3156 0.949 . S
C3151 H3146 0.950 . S
C3151 C3153 1.327 . S
C3151 C3157 1.429 . S
C3152 C3144 1.574 . S
C3152 H3147 0.949 . S
C3152 C3158 1.368 . S
C3153 C3137 1.349 . S
C3153 H3145 0.950 . S
C3153 C3151 1.327 . S
C3154 C3142 1.349 . S
C3154 H3148 0.950 . S
C3154 C3155 1.327 . S
C3155 H3149 0.950 . S
C3155 C3154 1.327 . S
C3155 C3159 1.429 . S
C3156 C3139 1.574 . S
C3156 H3150 0.949 . S
C3156 C3160 1.368 . S
C3157 C3138 1.429 . S
C3157 C3151 1.429 . S
C3157 C3158 1.523 . S
C3158 C3139 1.368 . S
C3158 C3152 1.368 . S
C3158 C3157 1.523 . S
C3159 C3143 1.429 . S
C3159 C3155 1.429 . S
C3159 C3160 1.523 . S
C3160 C3144 1.368 . S
C3160 C3156 1.368 . S
C3160 C3159 1.523 . S
H3161 C3136 0.950 . S
H3162 C3138 0.950 . S
H3163 C3139 0.949 . S
H3164 C3141 0.950 . S
H3165 C3143 0.950 . S
C3166 C3167 1.349 . S
C3166 C3168 1.327 . S
C3166 H3191 0.950 . S
C3167 C3166 1.349 . S
C3167 C3183 1.349 . S
C3168 C3166 1.327 . S
C3168 C3187 1.429 . S
C3168 H3192 0.950 . S
C3169 C3186 1.574 . S
C3169 C3188 1.368 . S
C3169 H3193 0.949 . S
H3170 C3174 0.949 . S
C3171 C3172 1.349 . S
C3171 C3173 1.327 . S
C3171 H3194 0.950 . S
C3172 C3171 1.349 . S
C3172 C3184 1.349 . S
C3173 C3171 1.327 . S
C3173 C3189 1.429 . S
C3173 H3195 0.950 . S
C3174 H3170 0.949 . S
C3174 C3182 1.574 . S
C3174 C3190 1.368 . S
H3175 C3183 0.950 . S
H3176 C3181 0.950 . S
H3177 C3182 0.949 . S
H3178 C3184 0.950 . S
H3179 C3185 0.950 . S
H3180 C3186 0.949 . S
C3181 H3176 0.950 . S
C3181 C3183 1.327 . S
C3181 C3187 1.429 . S
C3182 C3174 1.574 . S
C3182 H3177 0.949 . S
C3182 C3188 1.368 . S
C3183 C3167 1.349 . S
C3183 H3175 0.950 . S
C3183 C3181 1.327 . S
C3184 C3172 1.349 . S
C3184 H3178 0.950 . S
C3184 C3185 1.327 . S
C3185 H3179 0.950 . S
C3185 C3184 1.327 . S
C3185 C3189 1.429 . S
C3186 C3169 1.574 . S
C3186 H3180 0.949 . S
C3186 C3190 1.368 . S
C3187 C3168 1.429 . S
C3187 C3181 1.429 . S
C3187 C3188 1.523 . S
C3188 C3169 1.368 . S
C3188 C3182 1.368 . S
C3188 C3187 1.523 . S
C3189 C3173 1.429 . S
C3189 C3185 1.429 . S
C3189 C3190 1.523 . S
C3190 C3174 1.368 . S
C3190 C3186 1.368 . S
C3190 C3189 1.523 . S
H3191 C3166 0.950 . S
H3192 C3168 0.950 . S
H3193 C3169 0.949 . S
H3194 C3171 0.950 . S
H3195 C3173 0.950 . S
C3196 C3197 1.349 . S
C3196 C3198 1.327 . S
C3196 H3221 0.950 . S
C3197 C3196 1.349 . S
C3197 C3213 1.349 . S
C3198 C3196 1.327 . S
C3198 C3217 1.429 . S
C3198 H3222 0.950 . S
C3199 C3216 1.574 . S
C3199 C3218 1.368 . S
C3199 H3223 0.949 . S
H3200 C3204 0.949 . S
C3201 C3202 1.349 . S
C3201 C3203 1.327 . S
C3201 H3224 0.950 . S
C3202 C3201 1.349 . S
C3202 C3214 1.349 . S
C3203 C3201 1.327 . S
C3203 C3219 1.429 . S
C3203 H3225 0.950 . S
C3204 H3200 0.949 . S
C3204 C3212 1.574 . S
C3204 C3220 1.368 . S
H3205 C3213 0.950 . S
H3206 C3211 0.950 . S
H3207 C3212 0.949 . S
H3208 C3214 0.950 . S
H3209 C3215 0.950 . S
H3210 C3216 0.949 . S
C3211 H3206 0.950 . S
C3211 C3213 1.327 . S
C3211 C3217 1.429 . S
C3212 C3204 1.574 . S
C3212 H3207 0.949 . S
C3212 C3218 1.368 . S
C3213 C3197 1.349 . S
C3213 H3205 0.950 . S
C3213 C3211 1.327 . S
C3214 C3202 1.349 . S
C3214 H3208 0.950 . S
C3214 C3215 1.327 . S
C3215 H3209 0.950 . S
C3215 C3214 1.327 . S
C3215 C3219 1.429 . S
C3216 C3199 1.574 . S
C3216 H3210 0.949 . S
C3216 C3220 1.368 . S
C3217 C3198 1.429 . S
C3217 C3211 1.429 . S
C3217 C3218 1.523 . S
C3218 C3199 1.368 . S
C3218 C3212 1.368 . S
C3218 C3217 1.523 . S
C3219 C3203 1.429 . S
C3219 C3215 1.429 . S
C3219 C3220 1.523 . S
C3220 C3204 1.368 . S
C3220 C3216 1.368 . S
C3220 C3219 1.523 . S
H3221 C3196 0.950 . S
H3222 C3198 0.950 . S
H3223 C3199 0.949 . S
H3224 C3201 0.950 . S
H3225 C3203 0.950 . S
C3226 C3227 1.349 . S
C3226 C3228 1.327 . S
C3226 H3251 0.950 . S
C3227 C3226 1.349 . S
C3227 C3243 1.349 . S
C3228 C3226 1.327 . S
C3228 C3247 1.429 . S
C3228 H3252 0.950 . S
C3229 C3246 1.574 . S
C3229 C3248 1.368 . S
C3229 H3253 0.949 . S
H3230 C3234 0.949 . S
C3231 C3232 1.349 . S
C3231 C3233 1.327 . S
C3231 H3254 0.950 . S
C3232 C3231 1.349 . S
C3232 C3244 1.349 . S
C3233 C3231 1.327 . S
C3233 C3249 1.429 . S
C3233 H3255 0.950 . S
C3234 H3230 0.949 . S
C3234 C3242 1.574 . S
C3234 C3250 1.368 . S
H3235 C3243 0.950 . S
H3236 C3241 0.950 . S
H3237 C3242 0.949 . S
H3238 C3244 0.950 . S
H3239 C3245 0.950 . S
H3240 C3246 0.949 . S
C3241 H3236 0.950 . S
C3241 C3243 1.327 . S
C3241 C3247 1.429 . S
C3242 C3234 1.574 . S
C3242 H3237 0.949 . S
C3242 C3248 1.368 . S
C3243 C3227 1.349 . S
C3243 H3235 0.950 . S
C3243 C3241 1.327 . S
C3244 C3232 1.349 . S
C3244 H3238 0.950 . S
C3244 C3245 1.327 . S
C3245 H3239 0.950 . S
C3245 C3244 1.327 . S
C3245 C3249 1.429 . S
C3246 C3229 1.574 . S
C3246 H3240 0.949 . S
C3246 C3250 1.368 . S
C3247 C3228 1.429 . S
C3247 C3241 1.429 . S
C3247 C3248 1.523 . S
C3248 C3229 1.368 . S
C3248 C3242 1.368 . S
C3248 C3247 1.523 . S
C3249 C3233 1.429 . S
C3249 C3245 1.429 . S
C3249 C3250 1.523 . S
C3250 C3234 1.368 . S
C3250 C3246 1.368 . S
C3250 C3249 1.523 . S
H3251 C3226 0.950 . S
H3252 C3228 0.950 . S
H3253 C3229 0.949 . S
H3254 C3231 0.950 . S
H3255 C3233 0.950 . S
C3256 C3257 1.349 . S
C3256 C3258 1.327 . S
C3256 H3281 0.950 . S
C3257 C3256 1.349 . S
C3257 C3273 1.349 . S
C3258 C3256 1.327 . S
C3258 C3277 1.429 . S
C3258 H3282 0.950 . S
C3259 C3276 1.574 . S
C3259 C3278 1.368 . S
C3259 H3283 0.949 . S
H3260 C3264 0.949 . S
C3261 C3262 1.349 . S
C3261 C3263 1.327 . S
C3261 H3284 0.950 . S
C3262 C3261 1.349 . S
C3262 C3274 1.349 . S
C3263 C3261 1.327 . S
C3263 C3279 1.429 . S
C3263 H3285 0.950 . S
C3264 H3260 0.949 . S
C3264 C3272 1.574 . S
C3264 C3280 1.368 . S
H3265 C3273 0.950 . S
H3266 C3271 0.950 . S
H3267 C3272 0.949 . S
H3268 C3274 0.950 . S
H3269 C3275 0.950 . S
H3270 C3276 0.949 . S
C3271 H3266 0.950 . S
C3271 C3273 1.327 . S
C3271 C3277 1.429 . S
C3272 C3264 1.574 . S
C3272 H3267 0.949 . S
C3272 C3278 1.368 . S
C3273 C3257 1.349 . S
C3273 H3265 0.950 . S
C3273 C3271 1.327 . S
C3274 C3262 1.349 . S
C3274 H3268 0.950 . S
C3274 C3275 1.327 . S
C3275 H3269 0.950 . S
C3275 C3274 1.327 . S
C3275 C3279 1.429 . S
C3276 C3259 1.574 . S
C3276 H3270 0.949 . S
C3276 C3280 1.368 . S
C3277 C3258 1.429 . S
C3277 C3271 1.429 . S
C3277 C3278 1.523 . S
C3278 C3259 1.368 . S
C3278 C3272 1.368 . S
C3278 C3277 1.523 . S
C3279 C3263 1.429 . S
C3279 C3275 1.429 . S
C3279 C3280 1.523 . S
C3280 C3264 1.368 . S
C3280 C3276 1.368 . S
C3280 C3279 1.523 . S
H3281 C3256 0.950 . S
H3282 C3258 0.950 . S
H3283 C3259 0.949 . S
H3284 C3261 0.950 . S
H3285 C3263 0.950 . S
C3286 C3287 1.349 . S
C3286 C3288 1.327 . S
C3286 H3311 0.950 . S
C3287 C3286 1.349 . S
C3287 C3303 1.349 . S
C3288 C3286 1.327 . S
C3288 C3307 1.429 . S
C3288 H3312 0.950 . S
C3289 C3306 1.574 . S
C3289 C3308 1.368 . S
C3289 H3313 0.949 . S
H3290 C3294 0.949 . S
C3291 C3292 1.349 . S
C3291 C3293 1.327 . S
C3291 H3314 0.950 . S
C3292 C3291 1.349 . S
C3292 C3304 1.349 . S
C3293 C3291 1.327 . S
C3293 C3309 1.429 . S
C3293 H3315 0.950 . S
C3294 H3290 0.949 . S
C3294 C3302 1.574 . S
C3294 C3310 1.368 . S
H3295 C3303 0.950 . S
H3296 C3301 0.950 . S
H3297 C3302 0.949 . S
H3298 C3304 0.950 . S
H3299 C3305 0.950 . S
H3300 C3306 0.949 . S
C3301 H3296 0.950 . S
C3301 C3303 1.327 . S
C3301 C3307 1.429 . S
C3302 C3294 1.574 . S
C3302 H3297 0.949 . S
C3302 C3308 1.368 . S
C3303 C3287 1.349 . S
C3303 H3295 0.950 . S
C3303 C3301 1.327 . S
C3304 C3292 1.349 . S
C3304 H3298 0.950 . S
C3304 C3305 1.327 . S
C3305 H3299 0.950 . S
C3305 C3304 1.327 . S
C3305 C3309 1.429 . S
C3306 C3289 1.574 . S
C3306 H3300 0.949 . S
C3306 C3310 1.368 . S
C3307 C3288 1.429 . S
C3307 C3301 1.429 . S
C3307 C3308 1.523 . S
C3308 C3289 1.368 . S
C3308 C3302 1.368 . S
C3308 C3307 1.523 . S
C3309 C3293 1.429 . S
C3309 C3305 1.429 . S
C3309 C3310 1.523 . S
C3310 C3294 1.368 . S
C3310 C3306 1.368 . S
C3310 C3309 1.523 . S
H3311 C3286 0.950 . S
H3312 C3288 0.950 . S
H3313 C3289 0.949 . S
H3314 C3291 0.950 . S
H3315 C3293 0.950 . S
C3316 C3317 1.349 . S
C3316 C3318 1.327 . S
C3316 H3341 0.950 . S
C3317 C3316 1.349 . S
C3317 C3333 1.349 . S
C3318 C3316 1.327 . S
C3318 C3337 1.429 . S
C3318 H3342 0.950 . S
C3319 C3336 1.574 . S
C3319 C3338 1.368 . S
C3319 H3343 0.949 . S
H3320 C3324 0.949 . S
C3321 C3322 1.349 . S
C3321 C3323 1.327 . S
C3321 H3344 0.950 . S
C3322 C3321 1.349 . S
C3322 C3334 1.349 . S
C3323 C3321 1.327 . S
C3323 C3339 1.429 . S
C3323 H3345 0.950 . S
C3324 H3320 0.949 . S
C3324 C3332 1.574 . S
C3324 C3340 1.368 . S
H3325 C3333 0.950 . S
H3326 C3331 0.950 . S
H3327 C3332 0.949 . S
H3328 C3334 0.950 . S
H3329 C3335 0.950 . S
H3330 C3336 0.949 . S
C3331 H3326 0.950 . S
C3331 C3333 1.327 . S
C3331 C3337 1.429 . S
C3332 C3324 1.574 . S
C3332 H3327 0.949 . S
C3332 C3338 1.368 . S
C3333 C3317 1.349 . S
C3333 H3325 0.950 . S
C3333 C3331 1.327 . S
C3334 C3322 1.349 . S
C3334 H3328 0.950 . S
C3334 C3335 1.327 . S
C3335 H3329 0.950 . S
C3335 C3334 1.327 . S
C3335 C3339 1.429 . S
C3336 C3319 1.574 . S
C3336 H3330 0.949 . S
C3336 C3340 1.368 . S
C3337 C3318 1.429 . S
C3337 C3331 1.429 . S
C3337 C3338 1.523 . S
C3338 C3319 1.368 . S
C3338 C3332 1.368 . S
C3338 C3337 1.523 . S
C3339 C3323 1.429 . S
C3339 C3335 1.429 . S
C3339 C3340 1.523 . S
C3340 C3324 1.368 . S
C3340 C3336 1.368 . S
C3340 C3339 1.523 . S
H3341 C3316 0.950 . S
H3342 C3318 0.950 . S
H3343 C3319 0.949 . S
H3344 C3321 0.950 . S
H3345 C3323 0.950 . S
C3346 C3347 1.349 . S
C3346 C3348 1.327 . S
C3346 H3371 0.950 . S
C3347 C3346 1.349 . S
C3347 C3363 1.349 . S
C3348 C3346 1.327 . S
C3348 C3367 1.429 . S
C3348 H3372 0.950 . S
C3349 C3366 1.574 . S
C3349 C3368 1.368 . S
C3349 H3373 0.949 . S
H3350 C3354 0.949 . S
C3351 C3352 1.349 . S
C3351 C3353 1.327 . S
C3351 H3374 0.950 . S
C3352 C3351 1.349 . S
C3352 C3364 1.349 . S
C3353 C3351 1.327 . S
C3353 C3369 1.429 . S
C3353 H3375 0.950 . S
C3354 H3350 0.949 . S
C3354 C3362 1.574 . S
C3354 C3370 1.368 . S
H3355 C3363 0.950 . S
H3356 C3361 0.950 . S
H3357 C3362 0.949 . S
H3358 C3364 0.950 . S
H3359 C3365 0.950 . S
H3360 C3366 0.949 . S
C3361 H3356 0.950 . S
C3361 C3363 1.327 . S
C3361 C3367 1.429 . S
C3362 C3354 1.574 . S
C3362 H3357 0.949 . S
C3362 C3368 1.368 . S
C3363 C3347 1.349 . S
C3363 H3355 0.950 . S
C3363 C3361 1.327 . S
C3364 C3352 1.349 . S
C3364 H3358 0.950 . S
C3364 C3365 1.327 . S
C3365 H3359 0.950 . S
C3365 C3364 1.327 . S
C3365 C3369 1.429 . S
C3366 C3349 1.574 . S
C3366 H3360 0.949 . S
C3366 C3370 1.368 . S
C3367 C3348 1.429 . S
C3367 C3361 1.429 . S
C3367 C3368 1.523 . S
C3368 C3349 1.368 . S
C3368 C3362 1.368 . S
C3368 C3367 1.523 . S
C3369 C3353 1.429 . S
C3369 C3365 1.429 . S
C3369 C3370 1.523 . S
C3370 C3354 1.368 . S
C3370 C3366 1.368 . S
C3370 C3369 1.523 . S
H3371 C3346 0.950 . S
H3372 C3348 0.950 . S
H3373 C3349 0.949 . S
H3374 C3351 0.950 . S
H3375 C3353 0.950 . S
C3376 C3377 1.349 . S
C3376 C3378 1.327 . S
C3376 H3401 0.950 . S
C3377 C3376 1.349 . S
C3377 C3393 1.349 . S
C3378 C3376 1.327 . S
C3378 C3397 1.429 . S
C3378 H3402 0.950 . S
C3379 C3396 1.574 . S
C3379 C3398 1.368 . S
C3379 H3403 0.949 . S
H3380 C3384 0.949 . S
C3381 C3382 1.349 . S
C3381 C3383 1.327 . S
C3381 H3404 0.950 . S
C3382 C3381 1.349 . S
C3382 C3394 1.349 . S
C3383 C3381 1.327 . S
C3383 C3399 1.429 . S
C3383 H3405 0.950 . S
C3384 H3380 0.949 . S
C3384 C3392 1.574 . S
C3384 C3400 1.368 . S
H3385 C3393 0.950 . S
H3386 C3391 0.950 . S
H3387 C3392 0.949 . S
H3388 C3394 0.950 . S
H3389 C3395 0.950 . S
H3390 C3396 0.949 . S
C3391 H3386 0.950 . S
C3391 C3393 1.327 . S
C3391 C3397 1.429 . S
C3392 C3384 1.574 . S
C3392 H3387 0.949 . S
C3392 C3398 1.368 . S
C3393 C3377 1.349 . S
C3393 H3385 0.950 . S
C3393 C3391 1.327 . S
C3394 C3382 1.349 . S
C3394 H3388 0.950 . S
C3394 C3395 1.327 . S
C3395 H3389 0.950 . S
C3395 C3394 1.327 . S
C3395 C3399 1.429 . S
C3396 C3379 1.574 . S
C3396 H3390 0.949 . S
C3396 C3400 1.368 . S
C3397 C3378 1.429 . S
C3397 C3391 1.429 . S
C3397 C3398 1.523 . S
C3398 C3379 1.368 . S
C3398 C3392 1.368 . S
C3398 C3397 1.523 . S
C3399 C3383 1.429 . S
C3399 C3395 1.429 . S
C3399 C3400 1.523 . S
C3400 C3384 1.368 . S
C3400 C3396 1.368 . S
C3400 C3399 1.523 . S
H3401 C3376 0.950 . S
H3402 C3378 0.950 . S
H3403 C3379 0.949 . S
H3404 C3381 0.950 . S
H3405 C3383 0.950 . S
C3406 C3407 1.349 . S
C3406 C3408 1.327 . S
C3406 H3431 0.950 . S
C3407 C3406 1.349 . S
C3407 C3423 1.349 . S
C3408 C3406 1.327 . S
C3408 C3427 1.429 . S
C3408 H3432 0.950 . S
C3409 C3426 1.574 . S
C3409 C3428 1.368 . S
C3409 H3433 0.949 . S
H3410 C3414 0.949 . S
C3411 C3412 1.349 . S
C3411 C3413 1.327 . S
C3411 H3434 0.950 . S
C3412 C3411 1.349 . S
C3412 C3424 1.349 . S
C3413 C3411 1.327 . S
C3413 C3429 1.429 . S
C3413 H3435 0.950 . S
C3414 H3410 0.949 . S
C3414 C3422 1.574 . S
C3414 C3430 1.368 . S
H3415 C3423 0.950 . S
H3416 C3421 0.950 . S
H3417 C3422 0.949 . S
H3418 C3424 0.950 . S
H3419 C3425 0.950 . S
H3420 C3426 0.949 . S
C3421 H3416 0.950 . S
C3421 C3423 1.327 . S
C3421 C3427 1.429 . S
C3422 C3414 1.574 . S
C3422 H3417 0.949 . S
C3422 C3428 1.368 . S
C3423 C3407 1.349 . S
C3423 H3415 0.950 . S
C3423 C3421 1.327 . S
C3424 C3412 1.349 . S
C3424 H3418 0.950 . S
C3424 C3425 1.327 . S
C3425 H3419 0.950 . S
C3425 C3424 1.327 . S
C3425 C3429 1.429 . S
C3426 C3409 1.574 . S
C3426 H3420 0.949 . S
C3426 C3430 1.368 . S
C3427 C3408 1.429 . S
C3427 C3421 1.429 . S
C3427 C3428 1.523 . S
C3428 C3409 1.368 . S
C3428 C3422 1.368 . S
C3428 C3427 1.523 . S
C3429 C3413 1.429 . S
C3429 C3425 1.429 . S
C3429 C3430 1.523 . S
C3430 C3414 1.368 . S
C3430 C3426 1.368 . S
C3430 C3429 1.523 . S
H3431 C3406 0.950 . S
H3432 C3408 0.950 . S
H3433 C3409 0.949 . S
H3434 C3411 0.950 . S
H3435 C3413 0.950 . S
C3436 C3437 1.349 . S
C3436 C3438 1.327 . S
C3436 H3461 0.950 . S
C3437 C3436 1.349 . S
C3437 C3453 1.349 . S
C3438 C3436 1.327 . S
C3438 C3457 1.429 . S
C3438 H3462 0.950 . S
C3439 C3456 1.574 . S
C3439 C3458 1.368 . S
C3439 H3463 0.949 . S
H3440 C3444 0.949 . S
C3441 C3442 1.349 1_655 S
C3441 C3443 1.327 . S
C3441 H3464 0.950 . S
C3442 C3441 1.349 1_455 S
C3442 C3454 1.349 . S
C3443 C3441 1.327 . S
C3443 C3459 1.429 . S
C3443 H3465 0.950 . S
C3444 H3440 0.949 . S
C3444 C3452 1.574 . S
C3444 C3460 1.368 . S
H3445 C3453 0.950 . S
H3446 C3451 0.950 . S
H3447 C3452 0.949 . S
H3448 C3454 0.950 . S
H3449 C3455 0.950 . S
H3450 C3456 0.949 . S
C3451 H3446 0.950 . S
C3451 C3453 1.327 . S
C3451 C3457 1.429 . S
C3452 C3444 1.574 . S
C3452 H3447 0.949 . S
C3452 C3458 1.368 . S
C3453 C3437 1.349 . S
C3453 H3445 0.950 . S
C3453 C3451 1.327 . S
C3454 C3442 1.349 . S
C3454 H3448 0.950 . S
C3454 C3455 1.327 1_455 S
C3455 H3449 0.950 . S
C3455 C3454 1.327 1_655 S
C3455 C3459 1.429 . S
C3456 C3439 1.574 . S
C3456 H3450 0.949 . S
C3456 C3460 1.368 . S
C3457 C3438 1.429 . S
C3457 C3451 1.429 . S
C3457 C3458 1.523 . S
C3458 C3439 1.368 . S
C3458 C3452 1.368 . S
C3458 C3457 1.523 . S
C3459 C3443 1.429 . S
C3459 C3455 1.429 . S
C3459 C3460 1.523 . S
C3460 C3444 1.368 . S
C3460 C3456 1.368 . S
C3460 C3459 1.523 . S
H3461 C3436 0.950 . S
H3462 C3438 0.950 . S
H3463 C3439 0.949 . S
H3464 C3441 0.950 . S
H3465 C3443 0.950 . S
C3466 C3467 1.349 . S
C3466 C3468 1.327 . S
C3466 H3491 0.950 . S
C3467 C3466 1.349 . S
C3467 C3483 1.349 . S
C3468 C3466 1.327 . S
C3468 C3487 1.429 . S
C3468 H3492 0.950 . S
C3469 C3486 1.574 . S
C3469 C3488 1.368 . S
C3469 H3493 0.949 . S
H3470 C3474 0.949 . S
C3471 C3472 1.349 . S
C3471 C3473 1.327 . S
C3471 H3494 0.950 . S
C3472 C3471 1.349 . S
C3472 C3484 1.349 . S
C3473 C3471 1.327 . S
C3473 C3489 1.429 . S
C3473 H3495 0.950 . S
C3474 H3470 0.949 . S
C3474 C3482 1.574 . S
C3474 C3490 1.368 . S
H3475 C3483 0.950 . S
H3476 C3481 0.950 . S
H3477 C3482 0.949 . S
H3478 C3484 0.950 . S
H3479 C3485 0.950 . S
H3480 C3486 0.949 . S
C3481 H3476 0.950 . S
C3481 C3483 1.327 . S
C3481 C3487 1.429 . S
C3482 C3474 1.574 . S
C3482 H3477 0.949 . S
C3482 C3488 1.368 . S
C3483 C3467 1.349 . S
C3483 H3475 0.950 . S
C3483 C3481 1.327 . S
C3484 C3472 1.349 . S
C3484 H3478 0.950 . S
C3484 C3485 1.327 . S
C3485 H3479 0.950 . S
C3485 C3484 1.327 . S
C3485 C3489 1.429 . S
C3486 C3469 1.574 . S
C3486 H3480 0.949 . S
C3486 C3490 1.368 . S
C3487 C3468 1.429 . S
C3487 C3481 1.429 . S
C3487 C3488 1.523 . S
C3488 C3469 1.368 . S
C3488 C3482 1.368 . S
C3488 C3487 1.523 . S
C3489 C3473 1.429 . S
C3489 C3485 1.429 . S
C3489 C3490 1.523 . S
C3490 C3474 1.368 . S
C3490 C3486 1.368 . S
C3490 C3489 1.523 . S
H3491 C3466 0.950 . S
H3492 C3468 0.950 . S
H3493 C3469 0.949 . S
H3494 C3471 0.950 . S
H3495 C3473 0.950 . S
C3496 C3497 1.349 . S
C3496 C3498 1.327 . S
C3496 H3521 0.950 . S
C3497 C3496 1.349 . S
C3497 C3513 1.349 . S
C3498 C3496 1.327 . S
C3498 C3517 1.429 . S
C3498 H3522 0.950 . S
C3499 C3516 1.574 . S
C3499 C3518 1.368 . S
C3499 H3523 0.949 . S
H3500 C3504 0.949 . S
C3501 C3502 1.349 . S
C3501 C3503 1.327 . S
C3501 H3524 0.950 . S
C3502 C3501 1.349 . S
C3502 C3514 1.349 . S
C3503 C3501 1.327 . S
C3503 C3519 1.429 . S
C3503 H3525 0.950 . S
C3504 H3500 0.949 . S
C3504 C3512 1.574 . S
C3504 C3520 1.368 . S
H3505 C3513 0.950 . S
H3506 C3511 0.950 . S
H3507 C3512 0.949 . S
H3508 C3514 0.950 . S
H3509 C3515 0.950 . S
H3510 C3516 0.949 . S
C3511 H3506 0.950 . S
C3511 C3513 1.327 . S
C3511 C3517 1.429 . S
C3512 C3504 1.574 . S
C3512 H3507 0.949 . S
C3512 C3518 1.368 . S
C3513 C3497 1.349 . S
C3513 H3505 0.950 . S
C3513 C3511 1.327 . S
C3514 C3502 1.349 . S
C3514 H3508 0.950 . S
C3514 C3515 1.327 . S
C3515 H3509 0.950 . S
C3515 C3514 1.327 . S
C3515 C3519 1.429 . S
C3516 C3499 1.574 . S
C3516 H3510 0.949 . S
C3516 C3520 1.368 . S
C3517 C3498 1.429 . S
C3517 C3511 1.429 . S
C3517 C3518 1.523 . S
C3518 C3499 1.368 . S
C3518 C3512 1.368 . S
C3518 C3517 1.523 . S
C3519 C3503 1.429 . S
C3519 C3515 1.429 . S
C3519 C3520 1.523 . S
C3520 C3504 1.368 . S
C3520 C3516 1.368 . S
C3520 C3519 1.523 . S
H3521 C3496 0.950 . S
H3522 C3498 0.950 . S
H3523 C3499 0.949 . S
H3524 C3501 0.950 . S
H3525 C3503 0.950 . S
C3526 C3527 1.349 . S
C3526 C3528 1.327 . S
C3526 H3551 0.950 . S
C3527 C3526 1.349 . S
C3527 C3543 1.349 . S
C3528 C3526 1.327 . S
C3528 C3547 1.429 . S
C3528 H3552 0.950 . S
C3529 C3546 1.574 . S
C3529 C3548 1.368 . S
C3529 H3553 0.949 . S
H3530 C3534 0.949 . S
C3531 C3532 1.349 . S
C3531 C3533 1.327 . S
C3531 H3554 0.950 . S
C3532 C3531 1.349 . S
C3532 C3544 1.349 . S
C3533 C3531 1.327 . S
C3533 C3549 1.429 . S
C3533 H3555 0.950 . S
C3534 H3530 0.949 . S
C3534 C3542 1.574 . S
C3534 C3550 1.368 . S
H3535 C3543 0.950 . S
H3536 C3541 0.950 . S
H3537 C3542 0.949 . S
H3538 C3544 0.950 . S
H3539 C3545 0.950 . S
H3540 C3546 0.949 . S
C3541 H3536 0.950 . S
C3541 C3543 1.327 . S
C3541 C3547 1.429 . S
C3542 C3534 1.574 . S
C3542 H3537 0.949 . S
C3542 C3548 1.368 . S
C3543 C3527 1.349 . S
C3543 H3535 0.950 . S
C3543 C3541 1.327 . S
C3544 C3532 1.349 . S
C3544 H3538 0.950 . S
C3544 C3545 1.327 . S
C3545 H3539 0.950 . S
C3545 C3544 1.327 . S
C3545 C3549 1.429 . S
C3546 C3529 1.574 . S
C3546 H3540 0.949 . S
C3546 C3550 1.368 . S
C3547 C3528 1.429 . S
C3547 C3541 1.429 . S
C3547 C3548 1.523 . S
C3548 C3529 1.368 . S
C3548 C3542 1.368 . S
C3548 C3547 1.523 . S
C3549 C3533 1.429 . S
C3549 C3545 1.429 . S
C3549 C3550 1.523 . S
C3550 C3534 1.368 . S
C3550 C3546 1.368 . S
C3550 C3549 1.523 . S
H3551 C3526 0.950 . S
H3552 C3528 0.950 . S
H3553 C3529 0.949 . S
H3554 C3531 0.950 . S
H3555 C3533 0.950 . S
C3556 C3557 1.349 . S
C3556 C3558 1.327 . S
C3556 H3581 0.950 . S
C3557 C3556 1.349 . S
C3557 C3573 1.349 . S
C3558 C3556 1.327 . S
C3558 C3577 1.429 . S
C3558 H3582 0.950 . S
C3559 C3576 1.574 . S
C3559 C3578 1.368 . S
C3559 H3583 0.949 . S
H3560 C3564 0.949 . S
C3561 C3562 1.349 . S
C3561 C3563 1.327 . S
C3561 H3584 0.950 . S
C3562 C3561 1.349 . S
C3562 C3574 1.349 . S
C3563 C3561 1.327 . S
C3563 C3579 1.429 . S
C3563 H3585 0.950 . S
C3564 H3560 0.949 . S
C3564 C3572 1.574 . S
C3564 C3580 1.368 . S
H3565 C3573 0.950 . S
H3566 C3571 0.950 . S
H3567 C3572 0.949 . S
H3568 C3574 0.950 . S
H3569 C3575 0.950 . S
H3570 C3576 0.949 . S
C3571 H3566 0.950 . S
C3571 C3573 1.327 . S
C3571 C3577 1.429 . S
C3572 C3564 1.574 . S
C3572 H3567 0.949 . S
C3572 C3578 1.368 . S
C3573 C3557 1.349 . S
C3573 H3565 0.950 . S
C3573 C3571 1.327 . S
C3574 C3562 1.349 . S
C3574 H3568 0.950 . S
C3574 C3575 1.327 . S
C3575 H3569 0.950 . S
C3575 C3574 1.327 . S
C3575 C3579 1.429 . S
C3576 C3559 1.574 . S
C3576 H3570 0.949 . S
C3576 C3580 1.368 . S
C3577 C3558 1.429 . S
C3577 C3571 1.429 . S
C3577 C3578 1.523 . S
C3578 C3559 1.368 . S
C3578 C3572 1.368 . S
C3578 C3577 1.523 . S
C3579 C3563 1.429 . S
C3579 C3575 1.429 . S
C3579 C3580 1.523 . S
C3580 C3564 1.368 . S
C3580 C3576 1.368 . S
C3580 C3579 1.523 . S
H3581 C3556 0.950 . S
H3582 C3558 0.950 . S
H3583 C3559 0.949 . S
H3584 C3561 0.950 . S
H3585 C3563 0.950 . S
C3586 C3587 1.349 . S
C3586 C3588 1.327 . S
C3586 H3611 0.950 . S
C3587 C3586 1.349 . S
C3587 C3603 1.349 . S
C3588 C3586 1.327 . S
C3588 C3607 1.429 . S
C3588 H3612 0.950 . S
C3589 C3606 1.574 . S
C3589 C3608 1.368 . S
C3589 H3613 0.949 . S
H3590 C3594 0.949 . S
C3591 C3592 1.349 . S
C3591 C3593 1.327 . S
C3591 H3614 0.950 . S
C3592 C3591 1.349 . S
C3592 C3604 1.349 . S
C3593 C3591 1.327 . S
C3593 C3609 1.429 . S
C3593 H3615 0.950 . S
C3594 H3590 0.949 . S
C3594 C3602 1.574 . S
C3594 C3610 1.368 . S
H3595 C3603 0.950 . S
H3596 C3601 0.950 . S
H3597 C3602 0.949 . S
H3598 C3604 0.950 . S
H3599 C3605 0.950 . S
H3600 C3606 0.949 . S
C3601 H3596 0.950 . S
C3601 C3603 1.327 . S
C3601 C3607 1.429 . S
C3602 C3594 1.574 . S
C3602 H3597 0.949 . S
C3602 C3608 1.368 . S
C3603 C3587 1.349 . S
C3603 H3595 0.950 . S
C3603 C3601 1.327 . S
C3604 C3592 1.349 . S
C3604 H3598 0.950 . S
C3604 C3605 1.327 . S
C3605 H3599 0.950 . S
C3605 C3604 1.327 . S
C3605 C3609 1.429 . S
C3606 C3589 1.574 . S
C3606 H3600 0.949 . S
C3606 C3610 1.368 . S
C3607 C3588 1.429 . S
C3607 C3601 1.429 . S
C3607 C3608 1.523 . S
C3608 C3589 1.368 . S
C3608 C3602 1.368 . S
C3608 C3607 1.523 . S
C3609 C3593 1.429 . S
C3609 C3605 1.429 . S
C3609 C3610 1.523 . S
C3610 C3594 1.368 . S
C3610 C3606 1.368 . S
C3610 C3609 1.523 . S
H3611 C3586 0.950 . S
H3612 C3588 0.950 . S
H3613 C3589 0.949 . S
H3614 C3591 0.950 . S
H3615 C3593 0.950 . S
C3616 C3617 1.349 . S
C3616 C3618 1.327 . S
C3616 H3641 0.950 . S
C3617 C3616 1.349 . S
C3617 C3633 1.349 . S
C3618 C3616 1.327 . S
C3618 C3637 1.429 . S
C3618 H3642 0.950 . S
C3619 C3636 1.574 . S
C3619 C3638 1.368 . S
C3619 H3643 0.949 . S
H3620 C3624 0.949 . S
C3621 C3622 1.349 . S
C3621 C3623 1.327 . S
C3621 H3644 0.950 . S
C3622 C3621 1.349 . S
C3622 C3634 1.349 . S
C3623 C3621 1.327 . S
C3623 C3639 1.429 . S
C3623 H3645 0.950 . S
C3624 H3620 0.949 . S
C3624 C3632 1.574 . S
C3624 C3640 1.368 . S
H3625 C3633 0.950 . S
H3626 C3631 0.950 . S
H3627 C3632 0.949 . S
H3628 C3634 0.950 . S
H3629 C3635 0.950 . S
H3630 C3636 0.949 . S
C3631 H3626 0.950 . S
C3631 C3633 1.327 . S
C3631 C3637 1.429 . S
C3632 C3624 1.574 . S
C3632 H3627 0.949 . S
C3632 C3638 1.368 . S
C3633 C3617 1.349 . S
C3633 H3625 0.950 . S
C3633 C3631 1.327 . S
C3634 C3622 1.349 . S
C3634 H3628 0.950 . S
C3634 C3635 1.327 . S
C3635 H3629 0.950 . S
C3635 C3634 1.327 . S
C3635 C3639 1.429 . S
C3636 C3619 1.574 . S
C3636 H3630 0.949 . S
C3636 C3640 1.368 . S
C3637 C3618 1.429 . S
C3637 C3631 1.429 . S
C3637 C3638 1.523 . S
C3638 C3619 1.368 . S
C3638 C3632 1.368 . S
C3638 C3637 1.523 . S
C3639 C3623 1.429 . S
C3639 C3635 1.429 . S
C3639 C3640 1.523 . S
C3640 C3624 1.368 . S
C3640 C3636 1.368 . S
C3640 C3639 1.523 . S
H3641 C3616 0.950 . S
H3642 C3618 0.950 . S
H3643 C3619 0.949 . S
H3644 C3621 0.950 . S
H3645 C3623 0.950 . S
C3646 C3647 1.349 . S
C3646 C3648 1.327 . S
C3646 H3671 0.950 . S
C3647 C3646 1.349 . S
C3647 C3663 1.349 . S
C3648 C3646 1.327 . S
C3648 C3667 1.429 . S
C3648 H3672 0.950 . S
C3649 C3666 1.574 . S
C3649 C3668 1.368 . S
C3649 H3673 0.949 . S
H3650 C3654 0.949 . S
C3651 C3652 1.351 1_565 S
C3651 C3653 1.332 . S
C3651 H3674 0.942 1_565 S
C3652 C3651 1.351 1_545 S
C3652 C3664 1.349 1_545 S
C3653 C3651 1.332 . S
C3653 C3669 1.429 . S
C3653 H3675 0.950 . S
C3654 H3650 0.949 . S
C3654 C3662 1.574 . S
C3654 C3670 1.368 . S
H3655 C3663 0.950 . S
H3656 C3661 0.950 . S
H3657 C3662 0.949 . S
H3658 C3664 0.950 . S
H3659 C3665 0.950 . S
H3660 C3666 0.949 . S
C3661 H3656 0.950 . S
C3661 C3663 1.327 . S
C3661 C3667 1.429 . S
C3662 C3654 1.574 . S
C3662 H3657 0.949 . S
C3662 C3668 1.368 . S
C3663 C3647 1.349 . S
C3663 H3655 0.950 . S
C3663 C3661 1.327 . S
C3664 C3652 1.349 1_565 S
C3664 H3658 0.950 . S
C3664 C3665 1.327 . S
C3665 H3659 0.950 . S
C3665 C3664 1.327 . S
C3665 C3669 1.429 . S
C3666 C3649 1.574 . S
C3666 H3660 0.949 . S
C3666 C3670 1.368 . S
C3667 C3648 1.429 . S
C3667 C3661 1.429 . S
C3667 C3668 1.523 . S
C3668 C3649 1.368 . S
C3668 C3662 1.368 . S
C3668 C3667 1.523 . S
C3669 C3653 1.429 . S
C3669 C3665 1.429 . S
C3669 C3670 1.523 . S
C3670 C3654 1.368 . S
C3670 C3666 1.368 . S
C3670 C3669 1.523 . S
H3671 C3646 0.950 . S
H3672 C3648 0.950 . S
H3673 C3649 0.949 . S
H3674 C3651 0.942 1_545 S
H3675 C3653 0.950 . S
C3676 C3677 1.349 . S
C3676 C3678 1.327 . S
C3676 H3701 0.950 . S
C3677 C3676 1.349 . S
C3677 C3693 1.349 . S
C3678 C3676 1.327 . S
C3678 C3697 1.429 . S
C3678 H3702 0.950 . S
C3679 C3696 1.574 . S
C3679 C3698 1.368 . S
C3679 H3703 0.949 . S
H3680 C3684 0.949 . S
C3681 C3682 1.349 . S
C3681 C3683 1.327 . S
C3681 H3704 0.950 . S
C3682 C3681 1.349 . S
C3682 C3694 1.349 . S
C3683 C3681 1.327 . S
C3683 C3699 1.429 . S
C3683 H3705 0.950 . S
C3684 H3680 0.949 . S
C3684 C3692 1.574 . S
C3684 C3700 1.368 . S
H3685 C3693 0.950 . S
H3686 C3691 0.950 . S
H3687 C3692 0.949 . S
H3688 C3694 0.950 . S
H3689 C3695 0.950 . S
H3690 C3696 0.949 . S
C3691 H3686 0.950 . S
C3691 C3693 1.327 . S
C3691 C3697 1.429 . S
C3692 C3684 1.574 . S
C3692 H3687 0.949 . S
C3692 C3698 1.368 . S
C3693 C3677 1.349 . S
C3693 H3685 0.950 . S
C3693 C3691 1.327 . S
C3694 C3682 1.349 . S
C3694 H3688 0.950 . S
C3694 C3695 1.327 . S
C3695 H3689 0.950 . S
C3695 C3694 1.327 . S
C3695 C3699 1.429 . S
C3696 C3679 1.574 . S
C3696 H3690 0.949 . S
C3696 C3700 1.368 . S
C3697 C3678 1.429 . S
C3697 C3691 1.429 . S
C3697 C3698 1.523 . S
C3698 C3679 1.368 . S
C3698 C3692 1.368 . S
C3698 C3697 1.523 . S
C3699 C3683 1.429 . S
C3699 C3695 1.429 . S
C3699 C3700 1.523 . S
C3700 C3684 1.368 . S
C3700 C3696 1.368 . S
C3700 C3699 1.523 . S
H3701 C3676 0.950 . S
H3702 C3678 0.950 . S
H3703 C3679 0.949 . S
H3704 C3681 0.950 . S
H3705 C3683 0.950 . S
C3706 C3707 1.349 . S
C3706 C3708 1.327 . S
C3706 H3731 0.950 . S
C3707 C3706 1.349 . S
C3707 C3723 1.349 . S
C3708 C3706 1.327 . S
C3708 C3727 1.429 . S
C3708 H3732 0.950 . S
C3709 C3726 1.574 . S
C3709 C3728 1.368 . S
C3709 H3733 0.949 . S
H3710 C3714 0.949 . S
C3711 C3712 1.349 . S
C3711 C3713 1.327 . S
C3711 H3734 0.957 . S
C3712 C3711 1.349 . S
C3712 C3724 1.349 . S
C3713 C3711 1.327 . S
C3713 C3729 1.429 . S
C3713 H3735 0.950 . S
C3714 H3710 0.949 . S
C3714 C3722 1.574 . S
C3714 C3730 1.368 . S
H3715 C3723 0.950 . S
H3716 C3721 0.950 . S
H3717 C3722 0.949 . S
H3718 C3724 0.950 . S
H3719 C3725 0.950 . S
H3720 C3726 0.949 . S
C3721 H3716 0.950 . S
C3721 C3723 1.327 . S
C3721 C3727 1.429 . S
C3722 C3714 1.574 . S
C3722 H3717 0.949 . S
C3722 C3728 1.368 . S
C3723 C3707 1.349 . S
C3723 H3715 0.950 . S
C3723 C3721 1.327 . S
C3724 C3712 1.349 . S
C3724 H3718 0.950 . S
C3724 C3725 1.327 . S
C3725 H3719 0.950 . S
C3725 C3724 1.327 . S
C3725 C3729 1.429 . S
C3726 C3709 1.574 . S
C3726 H3720 0.949 . S
C3726 C3730 1.368 . S
C3727 C3708 1.429 . S
C3727 C3721 1.429 . S
C3727 C3728 1.523 . S
C3728 C3709 1.368 . S
C3728 C3722 1.368 . S
C3728 C3727 1.523 . S
C3729 C3713 1.429 . S
C3729 C3725 1.429 . S
C3729 C3730 1.523 . S
C3730 C3714 1.368 . S
C3730 C3726 1.368 . S
C3730 C3729 1.523 . S
H3731 C3706 0.950 . S
H3732 C3708 0.950 . S
H3733 C3709 0.949 . S
H3734 C3711 0.957 . S
H3735 C3713 0.950 . S
C3736 C3737 1.349 . S
C3736 C3738 1.327 . S
C3736 H3761 0.950 . S
C3737 C3736 1.349 . S
C3737 C3753 1.349 . S
C3738 C3736 1.327 . S
C3738 C3757 1.429 . S
C3738 H3762 0.950 . S
C3739 C3756 1.574 . S
C3739 C3758 1.368 . S
C3739 H3763 0.949 . S
H3740 C3744 0.949 . S
C3741 C3742 1.349 . S
C3741 C3743 1.327 . S
C3741 H3764 0.950 . S
C3742 C3741 1.349 . S
C3742 C3754 1.349 . S
C3743 C3741 1.327 . S
C3743 C3759 1.429 . S
C3743 H3765 0.950 . S
C3744 H3740 0.949 . S
C3744 C3752 1.574 . S
C3744 C3760 1.368 . S
H3745 C3753 0.950 . S
H3746 C3751 0.950 . S
H3747 C3752 0.949 . S
H3748 C3754 0.950 . S
H3749 C3755 0.950 . S
H3750 C3756 0.949 . S
C3751 H3746 0.950 . S
C3751 C3753 1.327 . S
C3751 C3757 1.429 . S
C3752 C3744 1.574 . S
C3752 H3747 0.949 . S
C3752 C3758 1.368 . S
C3753 C3737 1.349 . S
C3753 H3745 0.950 . S
C3753 C3751 1.327 . S
C3754 C3742 1.349 . S
C3754 H3748 0.950 . S
C3754 C3755 1.327 . S
C3755 H3749 0.950 . S
C3755 C3754 1.327 . S
C3755 C3759 1.429 . S
C3756 C3739 1.574 . S
C3756 H3750 0.949 . S
C3756 C3760 1.368 . S
C3757 C3738 1.429 . S
C3757 C3751 1.429 . S
C3757 C3758 1.523 . S
C3758 C3739 1.368 . S
C3758 C3752 1.368 . S
C3758 C3757 1.523 . S
C3759 C3743 1.429 . S
C3759 C3755 1.429 . S
C3759 C3760 1.523 . S
C3760 C3744 1.368 . S
C3760 C3756 1.368 . S
C3760 C3759 1.523 . S
H3761 C3736 0.950 . S
H3762 C3738 0.950 . S
H3763 C3739 0.949 . S
H3764 C3741 0.950 . S
H3765 C3743 0.950 . S
C3766 C3767 1.349 . S
C3766 C3768 1.327 . S
C3766 H3791 0.950 . S
C3767 C3766 1.349 . S
C3767 C3783 1.349 . S
C3768 C3766 1.327 . S
C3768 C3787 1.429 . S
C3768 H3792 0.950 . S
C3769 C3786 1.573 1_554 S
C3769 C3788 1.368 . S
C3769 H3793 0.949 1_554 S
H3770 C3774 0.949 . S
C3771 C3772 1.329 1_556 S
C3771 C3773 1.327 . S
C3771 H3794 0.950 . S
C3772 C3771 1.329 1_554 S
C3772 C3784 1.380 . S
C3773 C3771 1.327 . S
C3773 C3789 1.429 1_556 S
C3773 H3795 0.950 . S
C3774 H3770 0.949 . S
C3774 C3782 1.574 . S
C3774 C3790 1.368 . S
H3775 C3783 0.950 . S
H3776 C3781 0.950 . S
H3777 C3782 0.949 . S
H3778 C3784 0.950 . S
H3779 C3785 0.950 . S
H3780 C3786 0.951 . S
C3781 H3776 0.950 . S
C3781 C3783 1.327 . S
C3781 C3787 1.429 . S
C3782 C3774 1.574 . S
C3782 H3777 0.949 . S
C3782 C3788 1.368 . S
C3783 C3767 1.349 . S
C3783 H3775 0.950 . S
C3783 C3781 1.327 . S
C3784 C3772 1.380 . S
C3784 H3778 0.950 . S
C3784 C3785 1.327 . S
C3785 H3779 0.950 . S
C3785 C3784 1.327 . S
C3785 C3789 1.429 . S
C3786 C3769 1.573 1_556 S
C3786 H3780 0.951 . S
C3786 C3790 1.367 1_556 S
C3787 C3768 1.429 . S
C3787 C3781 1.429 . S
C3787 C3788 1.523 . S
C3788 C3769 1.368 . S
C3788 C3782 1.368 . S
C3788 C3787 1.523 . S
C3789 C3773 1.429 1_554 S
C3789 C3785 1.429 . S
C3789 C3790 1.523 . S
C3790 C3774 1.368 . S
C3790 C3786 1.367 1_554 S
C3790 C3789 1.523 . S
H3791 C3766 0.950 . S
H3792 C3768 0.950 . S
H3793 C3769 0.949 1_556 S
H3794 C3771 0.950 . S
H3795 C3773 0.950 . S
C3796 C3797 1.349 . S
C3796 C3798 1.327 . S
C3796 H3821 0.950 . S
C3797 C3796 1.349 . S
C3797 C3813 1.349 . S
C3798 C3796 1.327 . S
C3798 C3817 1.429 . S
C3798 H3822 0.950 . S
C3799 C3816 1.574 . S
C3799 C3818 1.368 . S
C3799 H3823 0.949 . S
H3800 C3804 0.949 . S
C3801 C3802 1.349 . S
C3801 C3803 1.327 . S
C3801 H3824 0.950 . S
C3802 C3801 1.349 . S
C3802 C3814 1.349 . S
C3803 C3801 1.327 . S
C3803 C3819 1.429 . S
C3803 H3825 0.950 . S
C3804 H3800 0.949 . S
C3804 C3812 1.574 . S
C3804 C3820 1.368 . S
H3805 C3813 0.950 . S
H3806 C3811 0.950 . S
H3807 C3812 0.949 . S
H3808 C3814 0.950 . S
H3809 C3815 0.950 . S
H3810 C3816 0.949 . S
C3811 H3806 0.950 . S
C3811 C3813 1.327 . S
C3811 C3817 1.429 . S
C3812 C3804 1.574 . S
C3812 H3807 0.949 . S
C3812 C3818 1.368 . S
C3813 C3797 1.349 . S
C3813 H3805 0.950 . S
C3813 C3811 1.327 . S
C3814 C3802 1.349 . S
C3814 H3808 0.950 . S
C3814 C3815 1.327 . S
C3815 H3809 0.950 . S
C3815 C3814 1.327 . S
C3815 C3819 1.429 . S
C3816 C3799 1.574 . S
C3816 H3810 0.949 . S
C3816 C3820 1.368 . S
C3817 C3798 1.429 . S
C3817 C3811 1.429 . S
C3817 C3818 1.523 . S
C3818 C3799 1.368 . S
C3818 C3812 1.368 . S
C3818 C3817 1.523 . S
C3819 C3803 1.429 . S
C3819 C3815 1.429 . S
C3819 C3820 1.523 . S
C3820 C3804 1.368 . S
C3820 C3816 1.368 . S
C3820 C3819 1.523 . S
H3821 C3796 0.950 . S
H3822 C3798 0.950 . S
H3823 C3799 0.949 . S
H3824 C3801 0.950 . S
H3825 C3803 0.950 . S
C3826 C3827 1.349 . S
C3826 C3828 1.327 . S
C3826 H3851 0.950 . S
C3827 C3826 1.349 . S
C3827 C3843 1.349 . S
C3828 C3826 1.327 . S
C3828 C3847 1.429 . S
C3828 H3852 0.950 . S
C3829 C3846 1.574 . S
C3829 C3848 1.368 . S
C3829 H3853 0.949 . S
H3830 C3834 0.949 . S
C3831 C3832 1.349 . S
C3831 C3833 1.327 . S
C3831 H3854 0.950 . S
C3832 C3831 1.349 . S
C3832 C3844 1.349 . S
C3833 C3831 1.327 . S
C3833 C3849 1.429 . S
C3833 H3855 0.950 . S
C3834 H3830 0.949 . S
C3834 C3842 1.574 . S
C3834 C3850 1.368 . S
H3835 C3843 0.950 . S
H3836 C3841 0.950 . S
H3837 C3842 0.949 . S
H3838 C3844 0.950 . S
H3839 C3845 0.950 . S
H3840 C3846 0.949 . S
C3841 H3836 0.950 . S
C3841 C3843 1.327 . S
C3841 C3847 1.429 . S
C3842 C3834 1.574 . S
C3842 H3837 0.949 . S
C3842 C3848 1.368 . S
C3843 C3827 1.349 . S
C3843 H3835 0.950 . S
C3843 C3841 1.327 . S
C3844 C3832 1.349 . S
C3844 H3838 0.950 . S
C3844 C3845 1.327 . S
C3845 H3839 0.950 . S
C3845 C3844 1.327 . S
C3845 C3849 1.429 . S
C3846 C3829 1.574 . S
C3846 H3840 0.949 . S
C3846 C3850 1.368 . S
C3847 C3828 1.429 . S
C3847 C3841 1.429 . S
C3847 C3848 1.523 . S
C3848 C3829 1.368 . S
C3848 C3842 1.368 . S
C3848 C3847 1.523 . S
C3849 C3833 1.429 . S
C3849 C3845 1.429 . S
C3849 C3850 1.523 . S
C3850 C3834 1.368 . S
C3850 C3846 1.368 . S
C3850 C3849 1.523 . S
H3851 C3826 0.950 . S
H3852 C3828 0.950 . S
H3853 C3829 0.949 . S
H3854 C3831 0.950 . S
H3855 C3833 0.950 . S
C977 C109 1.980 . S
C982 C349 1.945 . S
C1007 C65 2.040 . S
C1012 C400 2.020 . S
C1037 C75 1.456 . S
C1042 C429 1.441 . S
C1072 C473 1.496 . S
C1067 C84 1.513 . S
C1097 C25 1.369 . S
C1102 C513 1.345 . S
C1132 C549 1.416 . S
C1127 C28 1.430 . S
C1162 C599 1.761 . S
C1157 C47 1.751 . S
C1187 C9 2.150 . S
C1192 C629 2.138 . S
C1222 C359 1.876 . S
C1217 C233 1.895 . S
C1247 C249 0.408 . S
C1252 C402 0.465 . S
C1282 C439 1.195 . S
C1277 C275 1.205 . S
C1312 C469 1.309 . S
C1307 C173 1.324 . S
C1337 C224 1.427 . S
C1342 C509 1.419 . S
C1372 C559 0.859 . S
C1367 C243 0.861 . S
C1402 C593 0.690 . S
C1397 C266 0.684 . S
C1432 C639 1.714 . S
C1427 C179 1.735 . S
C1462 C353 1.001 1_565 S
C1457 C163 1.042 . S
C1487 C289 1.671 . S
C1492 C679 1.657 . S
C1522 C713 1.337 . S
C1517 C333 1.356 . S
C1552 C749 0.835 . S
C1547 C308 0.840 . S
C1577 C123 1.301 . S
C1582 C633 1.271 . S
C1607 C126 1.504 . S
C1612 C433 1.487 . S
C1637 C327 1.616 . S
C1642 C799 1.610 . S
C1672 C818 0.263 . S
C1667 C299 0.184 . S
C1702 C360 1.973 . S
C1697 C67 2.004 . S
C1732 C829 2.067 . S
C1727 C98 2.044 . S
C1757 C89 1.498 . S
C1762 C440 1.486 . S
C1787 C79 1.583 . S
C1792 C802 1.541 . S
C1822 C522 1.367 . S
C1817 C11 1.391 . S
C1847 C51 1.476 . S
C1852 C720 1.467 . S
C1882 C578 1.818 1_556 S
C1877 C33 1.811 . S
C1912 C880 2.144 . S
C1907 C14 2.183 . S
C1942 C338 1.871 . S
C1937 C140 1.902 . S
C1972 C833 0.463 . S
C1967 C319 0.408 . S
C1997 C112 1.220 . S
C2002 C418 1.221 . S
C2027 C285 1.356 . S
C2032 C800 1.344 . S
C2057 C149 1.481 . S
C2062 C520 1.473 . S
C2092 C698 0.920 . S
C2087 C313 0.924 . S
C2117 C121 0.741 . S
C2122 C602 0.742 . S
C2147 C291 1.784 . S
C2152 C858 1.760 . S
C2177 C182 1.022 . S
C2182 C362 0.997 . S
C2207 C168 1.677 . S
C2212 C658 1.687 . S
C2237 C263 1.384 . S
C2242 C562 1.361 . S
C2267 C247 0.900 . S
C2272 C760 0.892 . S
C2302 C882 1.267 . S
C2297 C277 1.304 . S
C2327 C219 1.552 . S
C2332 C442 1.503 . S
C2362 C458 1.662 . S
C2357 C257 1.670 . S
C2392 C399 0.270 . S
C2387 C201 0.202 . S
C2417 C81 1.970 . S
C2422 C909 1.948 . S
C2452 C840 2.021 . S
C2447 C93 2.040 . S
C2477 C103 1.456 . S
C2482 C949 1.443 . S
C2507 C56 1.513 . S
C2512 C793 1.496 . S
C2537 C53 1.369 . S
C2542 C673 1.345 . S
C2572 C709 1.416 . S
C2567 C0 1.430 . S
C2602 C759 1.761 . S
C2597 C19 1.751 . S
C2632 C869 2.137 . S
C2627 C37 2.150 . S
C2662 C919 1.876 . S
C2657 C261 1.895 . S
C2687 C193 0.408 . S
C2692 C842 0.465 . S
C2722 C959 1.195 . S
C2717 C205 1.205 . S
C2752 C789 1.309 . S
C2747 C215 1.323 . S
C2782 C669 1.419 . S
C2777 C252 1.427 . S
C2807 C187 0.861 . S
C2812 C719 0.859 . S
C2842 C753 0.691 . S
C2837 C196 0.684 . S
C2867 C221 1.736 . S
C2872 C879 1.714 . S
C2902 C913 1.018 . S
C2897 C317 1.041 . S
C2927 C135 1.671 . S
C2932 C519 1.657 . S
C2962 C553 1.337 . S
C2957 C151 1.304 1_565 S
C2992 C589 0.835 . S
C2987 C154 0.841 . S
C3022 C873 1.270 . S
C3017 C305 1.301 . S
C3047 C280 1.504 . S
C3052 C953 1.487 . S
C3082 C479 1.610 . S
C3077 C145 1.616 . S
C3112 C378 0.263 . S
C3107 C117 0.184 . S
C3137 C95 2.003 . S
C3142 C920 1.972 . S
C3172 C389 2.067 . S
C3167 C70 2.038 . S
C3197 C61 1.498 . S
C3202 C960 1.486 . S
C3227 C107 1.583 . S
C3232 C482 1.535 . S
C3257 C39 1.391 . S
C3262 C682 1.367 . S
C3292 C560 1.468 . S
C3287 C23 1.476 . S
C3317 C5 1.811 . S
C3322 C738 1.819 . S
C3347 C42 2.184 . S
C3352 C640 2.144 . S
C3382 C898 1.871 . S
C3377 C322 1.902 . S
C3407 C165 0.408 . S
C3412 C393 0.457 . S
C3442 C938 1.221 . S
C3437 C294 1.220 . S
C3467 C131 1.356 . S
C3472 C480 1.344 . S
C3497 C331 1.481 . S
C3502 C680 1.473 . S
C3532 C538 0.920 . S
C3527 C159 0.931 . S
C3557 C303 0.741 . S
C3562 C762 0.742 . S
C3592 C618 1.760 . S
C3587 C137 1.784 . S
C3622 C922 0.997 . S
C3617 C238 1.023 . S
C3652 C498 1.687 . S
C3647 C210 1.677 . S
C3677 C235 1.384 . S
C3682 C722 1.362 . S
C3712 C600 0.892 . S
C3707 C191 0.900 . S
C3737 C207 1.304 . S
C3742 C642 1.267 . S
C3767 C177 1.553 . S
C3772 C962 1.508 . S
C3802 C778 1.663 . S
C3797 C229 1.670 . S
C3832 C839 0.270 . S
C3827 C271 0.202 . S
