# Generated by pormake.
# Topology hwx, (6,3)-cn, num edge types: 1
# Building blocks:
#     Node 0, Type 0, BuildingBlock: IZENUY_clean_sbu_0, # of connection points: 6
#     Node 1, Type 0, BuildingBlock: IZENUY_clean_sbu_0, # of connection points: 6
#     Node 2, Type 0, BuildingBlock: IZENUY_clean_sbu_0, # of connection points: 6
#     Node 3, Type 0, BuildingBlock: IZENUY_clean_sbu_0, # of connection points: 6
#     Node 4, Type 1, BuildingBlock: OLANEW_clean_sbu_2, # of connection points: 3
#     Node 5, Type 1, BuildingBlock: OLANEW_clean_sbu_2, # of connection points: 3
#     Node 6, Type 1, BuildingBlock: OLANEW_clean_sbu_2, # of connection points: 3
#     Node 7, Type 1, BuildingBlock: OLANEW_clean_sbu_2, # of connection points: 3
#     Node 8, Type 1, BuildingBlock: OLANEW_clean_sbu_2, # of connection points: 3
#     Node 9, Type 1, BuildingBlock: OLANEW_clean_sbu_2, # of connection points: 3
#     Node 10, Type 1, BuildingBlock: OLANEW_clean_sbu_2, # of connection points: 3
#     Node 11, Type 1, BuildingBlock: OLANEW_clean_sbu_2, # of connection points: 3
#     Edge 12, Type (0, 1), BuildingBlock: AJUNOK_clean_linker_0, # of connection points: 2
#     Edge 13, Type (0, 1), BuildingBlock: AJUNOK_clean_linker_0, # of connection points: 2
#     Edge 14, Type (0, 1), BuildingBlock: AJUNOK_clean_linker_0, # of connection points: 2
#     Edge 15, Type (0, 1), BuildingBlock: AJUNOK_clean_linker_0, # of connection points: 2
#     Edge 16, Type (0, 1), BuildingBlock: AJUNOK_clean_linker_0, # of connection points: 2
#     Edge 17, Type (0, 1), BuildingBlock: AJUNOK_clean_linker_0, # of connection points: 2
#     Edge 18, Type (0, 1), BuildingBlock: AJUNOK_clean_linker_0, # of connection points: 2
#     Edge 19, Type (0, 1), BuildingBlock: AJUNOK_clean_linker_0, # of connection points: 2
#     Edge 20, Type (0, 1), BuildingBlock: AJUNOK_clean_linker_0, # of connection points: 2
#     Edge 21, Type (0, 1), BuildingBlock: AJUNOK_clean_linker_0, # of connection points: 2
#     Edge 22, Type (0, 1), BuildingBlock: AJUNOK_clean_linker_0, # of connection points: 2
#     Edge 23, Type (0, 1), BuildingBlock: AJUNOK_clean_linker_0, # of connection points: 2
#     Edge 24, Type (0, 1), BuildingBlock: AJUNOK_clean_linker_0, # of connection points: 2
#     Edge 25, Type (0, 1), BuildingBlock: AJUNOK_clean_linker_0, # of connection points: 2
#     Edge 26, Type (0, 1), BuildingBlock: AJUNOK_clean_linker_0, # of connection points: 2
#     Edge 27, Type (0, 1), BuildingBlock: AJUNOK_clean_linker_0, # of connection points: 2
#     Edge 28, Type (0, 1), BuildingBlock: AJUNOK_clean_linker_0, # of connection points: 2
#     Edge 29, Type (0, 1), BuildingBlock: AJUNOK_clean_linker_0, # of connection points: 2
#     Edge 30, Type (0, 1), BuildingBlock: AJUNOK_clean_linker_0, # of connection points: 2
#     Edge 31, Type (0, 1), BuildingBlock: AJUNOK_clean_linker_0, # of connection points: 2
#     Edge 32, Type (0, 1), BuildingBlock: AJUNOK_clean_linker_0, # of connection points: 2
#     Edge 33, Type (0, 1), BuildingBlock: AJUNOK_clean_linker_0, # of connection points: 2
#     Edge 34, Type (0, 1), BuildingBlock: AJUNOK_clean_linker_0, # of connection points: 2
#     Edge 35, Type (0, 1), BuildingBlock: AJUNOK_clean_linker_0, # of connection points: 2
# Relax obj value: 0.015
# Max RMSD: 0.063
# Mean RMSD: 0.058
data_MOF--net-hwx--node1-IZENUY_clean_sbu_0--node2-OLANEW_clean_sbu_2--edge1-AJUNOK_clean_linker_0
_symmetry_space_group_name_H-M    P1
_symmetry_Int_Tables_number       1
_symmetry_cell_setting            triclinic
loop_
_symmetry_equiv_pos_as_xyz
'x, y, z'
_cell_length_a     41.070539
_cell_length_b     41.312943
_cell_length_c     16.728539
_cell_angle_alpha  84.242079
_cell_angle_beta   95.865487
_cell_angle_gamma 90.132638
loop_
_atom_site_label
_atom_site_type_symbol
_atom_site_fract_x
_atom_site_fract_y
_atom_site_fract_z
_atom_type_partial_charge
Fe0 Fe 0.23031 0.25867 0.12965 0.0
Fe1 Fe 0.22631 0.26593 0.94498 0.0
O2 O 0.21205 0.24799 0.03554 0.0
Fe3 Fe 0.17945 0.21967 0.03237 0.0
O4 O 0.15432 0.2456 0.08418 0.0
O5 O 0.19301 0.25396 0.1799 0.0
O6 O 0.21874 0.30116 0.10273 0.0
C7 C 0.22669 0.31814 0.04092 0.0
C8 C 0.22349 0.19285 0.16394 0.0
O9 O 0.23723 0.30495 0.98354 0.0
C10 C 0.21503 0.20069 0.91495 0.0
O11 O 0.2712 0.26518 0.09685 0.0
O12 O 0.26734 0.24931 0.97501 0.0
O13 O 0.19494 0.19524 0.12677 0.0
O14 O 0.24267 0.21681 0.16183 0.0
C15 C 0.15999 0.267 0.90081 0.0
O16 O 0.21806 0.23036 0.89035 0.0
O17 O 0.20223 0.19224 0.97932 0.0
C18 C 0.28421 0.2536 0.0405 0.0
O19 O 0.18603 0.28335 0.90863 0.0
O20 O 0.15847 0.23874 0.93742 0.0
C21 C 0.16364 0.25712 0.14969 0.0
Fe22 Fe 0.28456 0.74566 0.61728 0.0
Fe23 Fe 0.33714 0.70054 0.56793 0.0
O24 O 0.30343 0.72778 0.54154 0.0
Fe25 Fe 0.28896 0.737 0.43856 0.0
O26 O 0.29755 0.77956 0.44284 0.0
O27 O 0.2761 0.78516 0.55605 0.0
O28 O 0.32299 0.76318 0.65599 0.0
C29 C 0.34936 0.74775 0.67801 0.0
C30 C 0.23035 0.73341 0.51433 0.0
O31 O 0.35296 0.71927 0.65871 0.0
C32 C 0.30142 0.67287 0.43683 0.0
O33 O 0.28967 0.70894 0.69031 0.0
O34 O 0.31253 0.67232 0.62545 0.0
O35 O 0.24601 0.74262 0.45507 0.0
O36 O 0.24462 0.72973 0.58498 0.0
C37 C 0.35763 0.73628 0.43735 0.0
O38 O 0.32775 0.67638 0.48163 0.0
O39 O 0.27966 0.69474 0.42806 0.0
C40 C 0.29574 0.6795 0.68043 0.0
O41 O 0.36385 0.72745 0.51173 0.0
O42 O 0.32922 0.73338 0.40198 0.0
C43 C 0.28764 0.79744 0.49218 0.0
Fe44 Fe 0.76359 0.77362 0.97176 0.0
Fe45 Fe 0.77499 0.76632 0.15685 0.0
O46 O 0.78538 0.78421 0.06226 0.0
Fe47 Fe 0.81734 0.81311 0.05875 0.0
O48 O 0.79919 0.83691 0.96696 0.0
O49 O 0.75071 0.81565 0.94081 0.0
O50 O 0.72435 0.76736 0.01432 0.0
C51 C 0.71401 0.77774 0.07576 0.0
C52 C 0.82937 0.77781 0.93448 0.0
O53 O 0.73344 0.78269 0.13675 0.0
C54 C 0.84188 0.76564 0.1846 0.0
O55 O 0.77482 0.73084 0.99578 0.0
O56 O 0.76225 0.72744 0.12074 0.0
O57 O 0.84057 0.78796 1.00068 0.0
O58 O 0.79887 0.77796 0.91336 0.0
C59 C 0.78461 0.83144 0.18206 0.0
O60 O 0.81594 0.74903 0.18301 0.0
O61 O 0.84163 0.79441 0.15011 0.0
C62 C 0.76848 0.71393 0.05941 0.0
O63 O 0.7857 0.8019 0.20993 0.0
O64 O 0.79554 0.84015 0.11543 0.0
C65 C 0.77002 0.83942 0.93432 0.0
Fe66 Fe 0.69394 0.30104 0.47239 0.0
Fe67 Fe 0.74556 0.25384 0.56436 0.0
O68 O 0.72488 0.27117 0.4721 0.0
Fe69 Fe 0.73553 0.25894 0.37958 0.0
O70 O 0.72716 0.29906 0.3216 0.0
O71 O 0.7164 0.33076 0.41341 0.0
O72 O 0.71302 0.31842 0.56263 0.0
C73 C 0.74203 0.31683 0.59708 0.0
C74 C 0.66873 0.26224 0.35004 0.0
O75 O 0.76034 0.2931 0.59003 0.0
C76 C 0.7382 0.19989 0.48415 0.0
O77 O 0.66942 0.27356 0.53294 0.0
O78 O 0.71032 0.25623 0.62217 0.0
O79 O 0.69424 0.24497 0.35381 0.0
O80 O 0.66918 0.28888 0.38182 0.0
C81 C 0.79628 0.26232 0.46254 0.0
O82 O 0.73222 0.21351 0.54509 0.0
O83 O 0.74572 0.21652 0.42072 0.0
C84 C 0.67996 0.25912 0.6007 0.0
O85 O 0.78467 0.24807 0.5237 0.0
O86 O 0.77766 0.27219 0.40011 0.0
C87 C 0.72557 0.32721 0.34524 0.0
O88 O 0.21954 0.56083 0.8739 0.0
Cd89 Cd 0.20253 0.52585 0.99021 0.0
O90 O 0.26535 0.56019 0.95196 0.0
Cd91 Cd 0.31088 0.57887 0.00682 0.0
O92 O 0.32159 0.59625 0.12523 0.0
C93 C 0.29633 0.59755 0.16292 0.0
O94 O 0.26808 0.58858 0.12805 0.0
C95 C 0.24828 0.57178 0.88795 0.0
C96 C 0.21237 0.45867 1.0008 0.0
O97 O 0.18412 0.4713 0.97704 0.0
O98 O 0.23623 0.47779 0.01697 0.0
O99 O 0.98488 0.70625 0.34142 0.0
Cd100 Cd 0.02944 0.6747 0.42426 0.0
O101 O 0.96134 0.706 0.45282 0.0
Cd102 Cd 0.9247 0.71852 0.53069 0.0
O103 O 0.89698 0.7335 0.62567 0.0
C104 C 0.91091 0.7375 0.69549 0.0
O105 O 0.94259 0.73234 0.71035 0.0
C106 C 0.96021 0.71319 0.37686 0.0
C107 C 0.09237 0.70081 0.44996 0.0
O108 O 0.08353 0.68641 0.3869 0.0
O109 O 0.07091 0.70425 0.49908 0.0
O110 O 0.72013 0.47089 0.14964 0.0
Cd111 Cd 0.71191 0.51455 0.03789 0.0
O112 O 0.75222 0.45019 0.07169 0.0
Cd113 Cd 0.78247 0.41455 0.02576 0.0
O114 O 0.78704 0.38725 0.92324 0.0
C115 C 0.76819 0.3973 0.86075 0.0
O116 O 0.7493 0.42269 0.86388 0.0
C117 C 0.73722 0.44704 0.13477 0.0
C118 C 0.73673 0.57666 0.05552 0.0
O119 O 0.70978 0.56746 0.0828 0.0
O120 O 0.7529 0.55591 0.02292 0.0
O121 O 0.04009 0.27333 0.6165 0.0
Cd122 Cd 0.0069 0.27013 0.48566 0.0
O123 O 0.05787 0.32275 0.58647 0.0
Cd124 Cd 0.0325 0.32374 0.46498 0.0
O125 O 0.04919 0.30836 0.3549 0.0
C126 C 0.07865 0.3171 0.35034 0.0
O127 O 0.09223 0.3346 0.40599 0.0
C128 C 0.05773 0.29732 0.63593 0.0
C129 C 0.93853 0.27001 0.48094 0.0
O130 O 0.9555 0.24398 0.50199 0.0
O131 O 0.95392 0.29651 0.46479 0.0
O132 O 0.77587 0.96226 0.66633 0.0
Cd133 Cd 0.78609 0.99607 0.54166 0.0
O134 O 0.72839 0.94348 0.6198 0.0
Cd135 Cd 0.73324 0.96845 0.50022 0.0
O136 O 0.74749 0.94948 0.39177 0.0
C137 C 0.73372 0.92228 0.38384 0.0
O138 O 0.71232 0.91263 0.43431 0.0
C139 C 0.7511 0.94438 0.67709 0.0
C140 C 0.76547 0.06103 0.52564 0.0
O141 O 0.74821 0.03964 0.49065 0.0
O142 O 0.79174 0.05156 0.56972 0.0
O143 O 0.52756 0.2044 0.21538 0.0
Cd144 Cd 0.48129 0.17894 0.13946 0.0
O145 O 0.54081 0.22898 0.10159 0.0
Cd146 Cd 0.57217 0.25361 0.0174 0.0
O147 O 0.5955 0.26203 0.90555 0.0
C148 C 0.60528 0.23711 0.87575 0.0
O149 O 0.60114 0.20821 0.91366 0.0
C150 C 0.54738 0.22213 0.17727 0.0
C151 C 0.42016 0.21009 0.10622 0.0
O152 O 0.42853 0.1937 0.17443 0.0
O153 O 0.44134 0.21313 0.05477 0.0
O154 O 0.27281 0.04607 0.31107 0.0
Cd155 Cd 0.30091 0.00587 0.4143 0.0
O156 O 0.26828 0.06616 0.42476 0.0
Cd157 Cd 0.2552 0.10078 0.50576 0.0
O158 O 0.24954 0.12774 0.60838 0.0
C159 C 0.2352 0.11613 0.66865 0.0
O160 O 0.22194 0.08717 0.66816 0.0
C161 C 0.26477 0.06976 0.34805 0.0
C162 C 0.2908 0.93875 0.42174 0.0
O163 O 0.27315 0.95689 0.45827 0.0
O164 O 0.31167 0.95273 0.37798 0.0
O165 O 0.46996 0.78124 0.94739 0.0
Cd166 Cd 0.50453 0.79136 0.07215 0.0
O167 O 0.43602 0.82171 0.95387 0.0
Cd168 Cd 0.45917 0.83211 0.07178 0.0
O169 O 0.44885 0.8138 0.19336 0.0
C170 C 0.44248 0.7836 0.19907 0.0
O171 O 0.44619 0.7675 0.13671 0.0
C172 C 0.44462 0.79783 0.91812 0.0
C173 C 0.57266 0.78826 0.07153 0.0
O174 O 0.55556 0.76237 0.07961 0.0
O175 O 0.55755 0.81571 0.06118 0.0
C176 C 0.10798 0.2646 0.19647 0.0
C177 C 0.1407 0.27435 0.19378 0.0
C178 C 0.0874 0.27936 0.24487 0.0
C179 C 0.0988 0.30463 0.29108 0.0
H180 H 0.09864 0.24465 0.16368 0.0
H181 H 0.0628 0.27017 0.24808 0.0
S182 S 0.18099 0.34251 0.29334 0.0
N183 N 0.18244 0.31295 0.2345 0.0
N184 N 0.14384 0.34119 0.32264 0.0
C185 C 0.13084 0.3159 0.28428 0.0
C186 C 0.15177 0.30061 0.2364 0.0
C187 C 0.30439 0.62669 0.76803 0.0
C188 C 0.28368 0.6529 0.73562 0.0
C189 C 0.29295 0.60072 0.8184 0.0
C190 C 0.26013 0.59953 0.83569 0.0
H191 H 0.32966 0.62639 0.75485 0.0
H192 H 0.30973 0.58113 0.84258 0.0
S193 S 0.19597 0.6618 0.76423 0.0
N194 N 0.22899 0.67614 0.72473 0.0
N195 N 0.20714 0.62684 0.81642 0.0
C196 C 0.23916 0.62545 0.80297 0.0
C197 C 0.25104 0.65228 0.75375 0.0
C198 C 0.87066 0.7294 0.30026 0.0
C199 C 0.8723 0.75282 0.23358 0.0
C200 C 0.89916 0.71753 0.34792 0.0
C201 C 0.93043 0.72811 0.32977 0.0
H202 H 0.84718 0.72032 0.31625 0.0
H203 H 0.8967 0.69924 0.39798 0.0
S204 S 0.94836 0.78897 0.16197 0.0
N205 N 0.90805 0.7864 0.15278 0.0
N206 N 0.96138 0.76331 0.24079 0.0
C207 C 0.93246 0.75134 0.2632 0.0
C208 C 0.90348 0.76392 0.21566 0.0
C209 C 0.73116 0.36566 0.66731 0.0
C210 C 0.7521 0.33969 0.6579 0.0
C211 C 0.73737 0.38491 0.73125 0.0
C212 C 0.76467 0.37893 0.78881 0.0
H213 H 0.70913 0.37062 0.62649 0.0
H214 H 0.71984 0.40387 0.73707 0.0
S215 S 0.82953 0.31675 0.7861 0.0
N216 N 0.80321 0.31113 0.70743 0.0
N217 N 0.81463 0.34727 0.82801 0.0
C218 C 0.78684 0.35426 0.77781 0.0
C219 C 0.78066 0.33472 0.71221 0.0
C220 C 0.61839 0.27427 0.25284 0.0
C221 C 0.63822 0.25176 0.30498 0.0
C222 C 0.58938 0.26445 0.20982 0.0
C223 C 0.57868 0.23205 0.21979 0.0
H224 H 0.62557 0.29954 0.24451 0.0
H225 H 0.57486 0.28243 0.16995 0.0
S226 S 0.62171 0.16386 0.34921 0.0
N227 N 0.64538 0.19561 0.36283 0.0
N228 N 0.59033 0.1775 0.28507 0.0
C229 C 0.59821 0.20944 0.27207 0.0
C230 C 0.62812 0.2192 0.31384 0.0
C231 C 0.20433 0.14843 0.8525 0.0
C232 C 0.22325 0.17651 0.86083 0.0
C233 C 0.20897 0.12832 0.7916 0.0
C234 C 0.23267 0.13567 0.73733 0.0
H235 H 0.18486 0.14282 0.89062 0.0
H236 H 0.19306 0.10759 0.78523 0.0
S237 S 0.29197 0.20358 0.74309 0.0
N238 N 0.26902 0.20852 0.81638 0.0
N239 N 0.27775 0.17093 0.70251 0.0
C240 C 0.25302 0.1626 0.74861 0.0
C241 C 0.24832 0.18294 0.81027 0.0
C242 C 0.40165 0.77375 0.3941 0.0
C243 C 0.38423 0.74476 0.38694 0.0
C244 C 0.42195 0.78547 0.33506 0.0
C245 C 0.42565 0.76834 0.26764 0.0
H246 H 0.39804 0.78838 0.44277 0.0
H247 H 0.4337 0.80875 0.34062 0.0
S248 S 0.38733 0.68915 0.2275 0.0
N249 N 0.37333 0.6981 0.31169 0.0
N250 N 0.41203 0.71918 0.20215 0.0
C251 C 0.40987 0.73813 0.26336 0.0
C252 C 0.38892 0.72662 0.32262 0.0
C253 C 0.73693 0.86688 0.81139 0.0
C254 C 0.76083 0.8687 0.87732 0.0
C255 C 0.73226 0.89254 0.74935 0.0
C256 C 0.75131 0.92098 0.75089 0.0
H257 H 0.72302 0.84481 0.80519 0.0
H258 H 0.71494 0.88917 0.6976 0.0
S259 S 0.81242 0.94034 0.91823 0.0
N260 N 0.80025 0.90319 0.94626 0.0
N261 N 0.79163 0.95114 0.82986 0.0
C262 C 0.77333 0.92411 0.81976 0.0
C263 C 0.77805 0.89806 0.88284 0.0
C264 C 0.83841 0.76459 0.79613 0.0
C265 C 0.85153 0.76812 0.87595 0.0
C266 C 0.85784 0.75483 0.73889 0.0
C267 C 0.89138 0.74804 0.75853 0.0
H268 H 0.81274 0.76945 0.77704 0.0
H269 H 0.84626 0.7526 0.67856 0.0
S270 S 0.93795 0.75286 0.9595 0.0
N271 N 0.90027 0.76365 0.97206 0.0
N272 N 0.93703 0.74529 0.86423 0.0
C273 C 0.90501 0.75146 0.83813 0.0
C274 C 0.88508 0.76151 0.89676 0.0
C275 C 0.73538 0.38718 0.32162 0.0
C276 C 0.73113 0.35686 0.29006 0.0
C277 C 0.73827 0.41605 0.27113 0.0
C278 C 0.73735 0.41585 0.18702 0.0
H279 H 0.73603 0.38877 0.38602 0.0
H280 H 0.74089 0.43881 0.29812 0.0
S281 S 0.72492 0.34352 0.07279 0.0
N282 N 0.72558 0.32874 0.16838 0.0
N283 N 0.73023 0.38311 0.07374 0.0
C284 C 0.73331 0.38581 0.15442 0.0
C285 C 0.73047 0.35632 0.20585 0.0
C286 C 0.10466 0.25821 0.8285 0.0
C287 C 0.13222 0.27833 0.83972 0.0
C288 C 0.07984 0.26561 0.76543 0.0
C289 C 0.08119 0.29359 0.7106 0.0
H290 H 0.10263 0.23577 0.86702 0.0
H291 H 0.06 0.24849 0.75804 0.0
S292 S 0.14578 0.35675 0.71907 0.0
N293 N 0.15769 0.32927 0.79493 0.0
N294 N 0.111 0.34329 0.67643 0.0
C295 C 0.10749 0.31512 0.72408 0.0
C296 C 0.13296 0.30747 0.78846 0.0
C297 C 0.27028 0.64485 0.32805 0.0
C298 C 0.29964 0.64824 0.37773 0.0
C299 C 0.26924 0.62714 0.26085 0.0
C300 C 0.29758 0.6124 0.23999 0.0
H301 H 0.24811 0.65712 0.33901 0.0
H302 H 0.24632 0.62639 0.22282 0.0
S303 S 0.3793 0.60889 0.35759 0.0
N304 N 0.3568 0.63132 0.40749 0.0
N305 N 0.35486 0.59875 0.27956 0.0
C306 C 0.32659 0.61363 0.29193 0.0
C307 C 0.32757 0.63124 0.36139 0.0
C308 C 0.36858 0.78967 0.77107 0.0
C309 C 0.37523 0.76176 0.73344 0.0
C310 C 0.39175 0.802 0.82765 0.0
C311 C 0.42268 0.78707 0.84915 0.0
H312 H 0.34494 0.80165 0.75856 0.0
H313 H 0.38479 0.82287 0.8567 0.0
S314 S 0.45395 0.71575 0.76066 0.0
N315 N 0.41632 0.72129 0.71638 0.0
N316 N 0.45966 0.74439 0.82259 0.0
C317 C 0.43028 0.7601 0.80898 0.0
C318 C 0.40664 0.7475 0.75136 0.0
C319 C 0.78038 0.88791 0.22501 0.0
C320 C 0.77047 0.85523 0.22971 0.0
C321 C 0.76784 0.90983 0.27355 0.0
C322 C 0.74447 0.89997 0.32713 0.0
H323 H 0.79857 0.89636 0.18537 0.0
H324 H 0.77691 0.93452 0.26994 0.0
S325 S 0.70779 0.81774 0.35456 0.0
N326 N 0.73434 0.81465 0.28817 0.0
N327 N 0.71015 0.85573 0.37663 0.0
C328 C 0.73328 0.8677 0.32915 0.0
C329 C 0.74646 0.84537 0.28123 0.0
C330 C 0.63385 0.27347 0.67721 0.0
C331 C 0.65745 0.2508 0.66269 0.0
C332 C 0.61666 0.26863 0.74575 0.0
C333 C 0.62206 0.24066 0.80108 0.0
H334 H 0.62987 0.29586 0.63777 0.0
H335 H 0.59941 0.28718 0.7561 0.0
S336 S 0.67963 0.1729 0.7858 0.0
N337 N 0.68432 0.19884 0.70616 0.0
N338 N 0.65149 0.18916 0.83363 0.0
C339 C 0.6445 0.2171 0.78473 0.0
C340 C 0.66236 0.22234 0.71589 0.0
C341 C 0.21995 0.13214 0.19261 0.0
C342 C 0.23378 0.16186 0.21319 0.0
C343 C 0.23004 0.10235 0.23624 0.0
C344 C 0.25366 0.10126 0.30345 0.0
H345 H 0.20163 0.13179 0.14128 0.0
H346 H 0.21912 0.08005 0.21762 0.0
S347 S 0.29789 0.17176 0.38201 0.0
N348 N 0.27288 0.18797 0.30493 0.0
N349 N 0.29128 0.1322 0.38738 0.0
C350 C 0.26755 0.1307 0.32502 0.0
C351 C 0.25778 0.16093 0.27979 0.0
C352 C 0.19594 0.36903 0.05372 0.0
C353 C 0.2245 0.35393 0.03539 0.0
C354 C 0.19204 0.40297 0.04121 0.0
C355 C 0.21695 0.42296 0.01213 0.0
H356 H 0.17608 0.35446 0.07545 0.0
H357 H 0.16948 0.41365 0.0551 0.0
S358 S 0.29691 0.39521 0.95812 0.0
N359 N 0.27816 0.36132 0.98748 0.0
N360 N 0.27142 0.42518 0.96718 0.0
C361 C 0.24595 0.40815 0.9956 0.0
C362 C 0.24955 0.37359 0.00631 0.0
C363 C 0.1819 0.71787 0.42355 0.0
C364 C 0.19474 0.72696 0.49928 0.0
C365 C 0.14875 0.71014 0.40792 0.0
C366 C 0.12684 0.7115 0.46699 0.0
H367 H 0.19775 0.71593 0.37627 0.0
H368 H 0.14037 0.70267 0.3491 0.0
S369 S 0.14764 0.73627 0.67352 0.0
N370 N 0.18267 0.73842 0.63289 0.0
N371 N 0.1203 0.72415 0.60359 0.0
C372 C 0.13918 0.72145 0.54241 0.0
C373 C 0.1731 0.72903 0.55857 0.0
C374 C 0.7427 0.66281 0.11435 0.0
C375 C 0.76293 0.67841 0.0594 0.0
C376 C 0.73508 0.62982 0.1136 0.0
C377 C 0.74774 0.61078 0.05879 0.0
H378 H 0.7318 0.67636 0.15716 0.0
H379 H 0.71879 0.61926 0.15597 0.0
S380 S 0.80347 0.63928 0.90531 0.0
N381 N 0.79652 0.67198 0.95046 0.0
N382 N 0.7826 0.60965 0.94977 0.0
C383 C 0.76889 0.62571 0.0051 0.0
C384 C 0.77631 0.65959 0.00511 0.0
C385 C 0.85244 0.24131 0.51183 0.0
C386 C 0.83233 0.2647 0.4634 0.0
C387 C 0.88662 0.24327 0.51675 0.0
C388 C 0.9022 0.26908 0.47477 0.0
H389 H 0.84168 0.22109 0.54602 0.0
H390 H 0.90093 0.22452 0.55458 0.0
S391 S 0.8607 0.33694 0.34027 0.0
N392 N 0.83042 0.3145 0.37245 0.0
N393 N 0.89478 0.31865 0.38279 0.0
C394 C 0.88241 0.2928 0.42636 0.0
C395 C 0.84748 0.29046 0.42026 0.0
C396 C 0.75806 0.14903 0.5671 0.0
C397 C 0.74287 0.16421 0.49371 0.0
C398 C 0.7649 0.1156 0.57696 0.0
C399 C 0.75602 0.09588 0.51463 0.0
H400 H 0.76564 0.16327 0.61665 0.0
H401 H 0.77734 0.10513 0.63389 0.0
S402 S 0.71404 0.12354 0.31225 0.0
N403 N 0.71842 0.15705 0.35836 0.0
N404 N 0.73016 0.09381 0.37771 0.0
C405 C 0.73984 0.11056 0.44176 0.0
C406 C 0.73361 0.14484 0.43103 0.0
C407 C 0.33387 0.23651 0.13363 0.0
C408 C 0.31948 0.2446 0.05403 0.0
C409 C 0.36651 0.22606 0.14965 0.0
C410 C 0.38643 0.22366 0.08691 0.0
H411 H 0.31954 0.23738 0.1843 0.0
H412 H 0.37606 0.2195 0.21195 0.0
S413 S 0.36119 0.24359 0.86783 0.0
N414 N 0.32799 0.2505 0.91171 0.0
N415 N 0.3896 0.23128 0.94167 0.0
C416 C 0.37267 0.2325 0.00697 0.0
C417 C 0.33915 0.24277 0.99058 0.0
C418 C 0.26826 0.85384 0.50907 0.0
C419 C 0.28811 0.83332 0.47201 0.0
C420 C 0.26852 0.88777 0.49054 0.0
C421 C 0.28884 0.90262 0.43465 0.0
H422 H 0.25231 0.84366 0.55272 0.0
H423 H 0.25303 0.90246 0.52146 0.0
S424 S 0.34598 0.85975 0.32163 0.0
N425 N 0.32893 0.83043 0.37702 0.0
N426 N 0.32937 0.89387 0.34232 0.0
C427 C 0.30866 0.88232 0.39675 0.0
C428 C 0.30833 0.84782 0.41542 0.0
C429 C 0.65751 0.75653 0.04872 0.0
C430 C 0.6783 0.78067 0.07835 0.0
C431 C 0.62343 0.75905 0.04772 0.0
C432 C 0.6088 0.78628 0.07416 0.0
H433 H 0.66771 0.73536 0.02663 0.0
H434 H 0.60841 0.73977 0.02473 0.0
S435 S 0.6526 0.85637 0.15653 0.0
N436 N 0.68205 0.83251 0.1351 0.0
N437 N 0.61789 0.83783 0.1314 0.0
C438 C 0.62936 0.8107 0.10359 0.0
C439 C 0.66414 0.80773 0.10629 0.0
loop_
_geom_bond_atom_site_label_1
_geom_bond_atom_site_label_2
_geom_bond_distance
_geom_bond_site_symmetry_2
_ccdc_geom_bond_type
Fe0 O2 1.918 . S
Fe0 O5 1.997 . S
Fe0 O6 2.002 . S
Fe0 O11 1.976 . S
Fe0 O14 1.996 . S
Fe1 O2 1.918 1_556 S
Fe1 O9 1.997 . S
Fe1 O12 1.996 . S
Fe1 O16 1.976 . S
Fe1 O19 2.002 . S
O2 Fe0 1.918 . S
O2 Fe1 1.918 1_554 S
O2 Fe3 1.918 . S
Fe3 O2 1.918 . S
Fe3 O4 2.002 . S
Fe3 O13 1.976 . S
Fe3 O17 1.996 1_554 S
Fe3 O20 1.997 1_554 S
O4 Fe3 2.002 . S
O4 C21 1.295 . S
O5 Fe0 1.997 . S
O5 C21 1.235 . S
O6 Fe0 2.002 . S
O6 C7 1.295 . S
C7 O6 1.295 . S
C7 O9 1.235 1_554 S
C8 O13 1.287 . S
C8 O14 1.255 . S
O9 Fe1 1.997 . S
O9 C7 1.235 1_556 S
C10 O16 1.287 . S
C10 O17 1.255 . S
O11 Fe0 1.976 . S
O11 C18 1.287 . S
O12 Fe1 1.996 . S
O12 C18 1.255 1_556 S
O13 Fe3 1.976 . S
O13 C8 1.287 . S
O14 Fe0 1.996 . S
O14 C8 1.255 . S
C15 O19 1.295 . S
C15 O20 1.235 . S
O16 Fe1 1.976 . S
O16 C10 1.287 . S
O17 Fe3 1.996 1_556 S
O17 C10 1.255 . S
C18 O11 1.287 . S
C18 O12 1.255 1_554 S
O19 Fe1 2.002 . S
O19 C15 1.295 . S
O20 Fe3 1.997 1_556 S
O20 C15 1.235 . S
C21 O4 1.295 . S
C21 O5 1.235 . S
Fe22 O24 1.918 . S
Fe22 O27 1.997 . S
Fe22 O28 2.002 . S
Fe22 O33 1.976 . S
Fe22 O36 1.996 . S
Fe23 O24 1.918 . S
Fe23 O31 1.997 . S
Fe23 O34 1.996 . S
Fe23 O38 1.976 . S
Fe23 O41 2.002 . S
O24 Fe22 1.918 . S
O24 Fe23 1.918 . S
O24 Fe25 1.918 . S
Fe25 O24 1.918 . S
Fe25 O26 2.002 . S
Fe25 O35 1.976 . S
Fe25 O39 1.996 . S
Fe25 O42 1.997 . S
O26 Fe25 2.002 . S
O26 C43 1.295 . S
O27 Fe22 1.997 . S
O27 C43 1.235 . S
O28 Fe22 2.002 . S
O28 C29 1.295 . S
C29 O28 1.295 . S
C29 O31 1.235 . S
C30 O35 1.287 . S
C30 O36 1.255 . S
O31 Fe23 1.997 . S
O31 C29 1.235 . S
C32 O38 1.287 . S
C32 O39 1.255 . S
O33 Fe22 1.976 . S
O33 C40 1.287 . S
O34 Fe23 1.996 . S
O34 C40 1.255 . S
O35 Fe25 1.976 . S
O35 C30 1.287 . S
O36 Fe22 1.996 . S
O36 C30 1.255 . S
C37 O41 1.295 . S
C37 O42 1.235 . S
O38 Fe23 1.976 . S
O38 C32 1.287 . S
O39 Fe25 1.996 . S
O39 C32 1.255 . S
C40 O33 1.287 . S
C40 O34 1.255 . S
O41 Fe23 2.002 . S
O41 C37 1.295 . S
O42 Fe25 1.997 . S
O42 C37 1.235 . S
C43 O26 1.295 . S
C43 O27 1.235 . S
Fe44 O46 1.918 1_556 S
Fe44 O49 1.997 . S
Fe44 O50 2.002 . S
Fe44 O55 1.976 . S
Fe44 O58 1.996 . S
Fe45 O46 1.918 . S
Fe45 O53 1.997 . S
Fe45 O56 1.996 . S
Fe45 O60 1.976 . S
Fe45 O63 2.002 . S
O46 Fe44 1.918 1_554 S
O46 Fe45 1.918 . S
O46 Fe47 1.918 . S
Fe47 O46 1.918 . S
Fe47 O48 2.002 1_554 S
Fe47 O57 1.976 1_554 S
Fe47 O61 1.996 . S
Fe47 O64 1.997 . S
O48 Fe47 2.002 1_556 S
O48 C65 1.295 . S
O49 Fe44 1.997 . S
O49 C65 1.235 . S
O50 Fe44 2.002 . S
O50 C51 1.295 1_556 S
C51 O50 1.295 1_554 S
C51 O53 1.235 . S
C52 O57 1.287 . S
C52 O58 1.255 . S
O53 Fe45 1.997 . S
O53 C51 1.235 . S
C54 O60 1.287 . S
C54 O61 1.255 . S
O55 Fe44 1.976 . S
O55 C62 1.287 1_556 S
O56 Fe45 1.996 . S
O56 C62 1.255 . S
O57 Fe47 1.976 1_556 S
O57 C52 1.287 . S
O58 Fe44 1.996 . S
O58 C52 1.255 . S
C59 O63 1.295 . S
C59 O64 1.235 . S
O60 Fe45 1.976 . S
O60 C54 1.287 . S
O61 Fe47 1.996 . S
O61 C54 1.255 . S
C62 O55 1.287 1_554 S
C62 O56 1.255 . S
O63 Fe45 2.002 . S
O63 C59 1.295 . S
O64 Fe47 1.997 . S
O64 C59 1.235 . S
C65 O48 1.295 . S
C65 O49 1.235 . S
Fe66 O68 1.918 . S
Fe66 O71 1.997 . S
Fe66 O72 2.002 . S
Fe66 O77 1.976 . S
Fe66 O80 1.996 . S
Fe67 O68 1.918 . S
Fe67 O75 1.997 . S
Fe67 O78 1.996 . S
Fe67 O82 1.976 . S
Fe67 O85 2.002 . S
O68 Fe66 1.918 . S
O68 Fe67 1.918 . S
O68 Fe69 1.918 . S
Fe69 O68 1.918 . S
Fe69 O70 2.002 . S
Fe69 O79 1.976 . S
Fe69 O83 1.996 . S
Fe69 O86 1.997 . S
O70 Fe69 2.002 . S
O70 C87 1.295 . S
O71 Fe66 1.997 . S
O71 C87 1.235 . S
O72 Fe66 2.002 . S
O72 C73 1.295 . S
C73 O72 1.295 . S
C73 O75 1.235 . S
C74 O79 1.287 . S
C74 O80 1.255 . S
O75 Fe67 1.997 . S
O75 C73 1.235 . S
C76 O82 1.287 . S
C76 O83 1.255 . S
O77 Fe66 1.976 . S
O77 C84 1.287 . S
O78 Fe67 1.996 . S
O78 C84 1.255 . S
O79 Fe69 1.976 . S
O79 C74 1.287 . S
O80 Fe66 1.996 . S
O80 C74 1.255 . S
C81 O85 1.295 . S
C81 O86 1.235 . S
O82 Fe67 1.976 . S
O82 C76 1.287 . S
O83 Fe69 1.996 . S
O83 C76 1.255 . S
C84 O77 1.287 . S
C84 O78 1.255 . S
O85 Fe67 2.002 . S
O85 C81 1.295 . S
O86 Fe69 1.997 . S
O86 C81 1.235 . S
C87 O70 1.295 . S
C87 O71 1.235 . S
O88 Cd89 2.300 1_556 S
O88 C95 1.275 . S
Cd89 O88 2.300 1_554 S
Cd89 O97 2.381 1_554 S
Cd89 O98 2.378 . S
O90 Cd91 2.385 1_556 S
O90 C95 1.255 . S
Cd91 O90 2.385 1_554 S
Cd91 O92 2.317 . S
O92 Cd91 2.317 . S
O92 C93 1.232 . S
C93 O92 1.232 . S
C93 O94 1.218 . S
O94 C93 1.218 . S
C95 O88 1.275 . S
C95 O90 1.255 . S
C96 O97 1.258 1_554 S
C96 O98 1.256 . S
O97 Cd89 2.381 1_556 S
O97 C96 1.258 1_556 S
O98 Cd89 2.378 . S
O98 C96 1.256 . S
O99 Cd100 2.300 1_655 S
O99 C106 1.275 . S
Cd100 O99 2.300 1_455 S
Cd100 O108 2.381 . S
Cd100 O109 2.378 . S
O101 Cd102 2.385 . S
O101 C106 1.255 . S
Cd102 O101 2.385 . S
Cd102 O103 2.317 . S
O103 Cd102 2.317 . S
O103 C104 1.232 . S
C104 O103 1.232 . S
C104 O105 1.218 . S
O105 C104 1.218 . S
C106 O99 1.275 . S
C106 O101 1.255 . S
C107 O108 1.258 . S
C107 O109 1.256 . S
O108 Cd100 2.381 . S
O108 C107 1.258 . S
O109 Cd100 2.378 . S
O109 C107 1.256 . S
O110 Cd111 2.300 . S
O110 C117 1.275 . S
Cd111 O110 2.300 . S
Cd111 O119 2.381 . S
Cd111 O120 2.378 1_554 S
O112 Cd113 2.385 1_554 S
O112 C117 1.255 . S
Cd113 O112 2.385 1_556 S
Cd113 O114 2.317 . S
O114 Cd113 2.317 . S
O114 C115 1.232 . S
C115 O114 1.232 . S
C115 O116 1.218 . S
O116 C115 1.218 . S
C117 O110 1.275 . S
C117 O112 1.255 . S
C118 O119 1.258 . S
C118 O120 1.256 1_554 S
O119 Cd111 2.381 . S
O119 C118 1.258 . S
O120 Cd111 2.378 1_556 S
O120 C118 1.256 1_556 S
O121 Cd122 2.300 1_455 S
O121 C128 1.275 . S
Cd122 O121 2.300 1_655 S
Cd122 O130 2.381 . S
Cd122 O131 2.378 . S
O123 Cd124 2.385 . S
O123 C128 1.255 . S
Cd124 O123 2.385 . S
Cd124 O125 2.317 . S
O125 Cd124 2.317 . S
O125 C126 1.232 . S
C126 O125 1.232 . S
C126 O127 1.218 . S
O127 C126 1.218 . S
C128 O121 1.275 . S
C128 O123 1.255 . S
C129 O130 1.258 . S
C129 O131 1.256 . S
O130 Cd122 2.381 . S
O130 C129 1.258 . S
O131 Cd122 2.378 . S
O131 C129 1.256 . S
O132 Cd133 2.300 1_565 S
O132 C139 1.275 . S
Cd133 O132 2.300 1_545 S
Cd133 O141 2.381 . S
Cd133 O142 2.378 . S
O134 Cd135 2.385 . S
O134 C139 1.255 . S
Cd135 O134 2.385 . S
Cd135 O136 2.317 . S
O136 Cd135 2.317 . S
O136 C137 1.232 . S
C137 O136 1.232 . S
C137 O138 1.218 . S
O138 C137 1.218 . S
C139 O132 1.275 . S
C139 O134 1.255 . S
C140 O141 1.258 . S
C140 O142 1.256 . S
O141 Cd133 2.381 . S
O141 C140 1.258 . S
O142 Cd133 2.378 . S
O142 C140 1.256 . S
O143 Cd144 2.300 . S
O143 C150 1.275 . S
Cd144 O143 2.300 . S
Cd144 O152 2.381 . S
Cd144 O153 2.378 1_554 S
O145 Cd146 2.385 1_554 S
O145 C150 1.255 . S
Cd146 O145 2.385 1_556 S
Cd146 O147 2.317 . S
O147 Cd146 2.317 . S
O147 C148 1.232 . S
C148 O147 1.232 . S
C148 O149 1.218 . S
O149 C148 1.218 . S
C150 O143 1.275 . S
C150 O145 1.255 . S
C151 O152 1.258 . S
C151 O153 1.256 1_554 S
O152 Cd144 2.381 . S
O152 C151 1.258 . S
O153 Cd144 2.378 1_556 S
O153 C151 1.256 1_556 S
O154 Cd155 2.310 . S
O154 C161 1.275 . S
Cd155 O154 2.310 . S
Cd155 O163 2.361 1_545 S
Cd155 O164 2.358 1_545 S
O156 Cd157 2.385 . S
O156 C161 1.255 . S
Cd157 O156 2.385 . S
Cd157 O158 2.317 . S
O158 Cd157 2.317 . S
O158 C159 1.232 . S
C159 O158 1.232 . S
C159 O160 1.218 . S
O160 C159 1.218 . S
C161 O154 1.275 . S
C161 O156 1.255 . S
C162 O163 1.258 . S
C162 O164 1.256 . S
O163 Cd155 2.361 1_565 S
O163 C162 1.258 . S
O164 Cd155 2.358 1_565 S
O164 C162 1.256 . S
O165 Cd166 2.300 . S
O165 C172 1.275 . S
Cd166 O165 2.300 . S
Cd166 O174 2.381 . S
Cd166 O175 2.378 1_556 S
O167 Cd168 2.385 1_556 S
O167 C172 1.255 . S
Cd168 O167 2.385 1_554 S
Cd168 O169 2.317 . S
O169 Cd168 2.317 . S
O169 C170 1.232 . S
C170 O169 1.232 . S
C170 O171 1.218 . S
O171 C170 1.218 . S
C172 O165 1.275 . S
C172 O167 1.255 . S
C173 O174 1.258 . S
C173 O175 1.256 1_556 S
O174 Cd166 2.381 . S
O174 C173 1.258 . S
O175 Cd166 2.378 1_554 S
O175 C173 1.256 1_554 S
C176 C177 1.369 . S
C176 C178 1.419 . S
C176 H180 0.930 . S
C177 C176 1.369 . S
C177 C186 1.429 . S
C178 C176 1.419 . S
C178 C179 1.363 . S
C178 H181 0.929 . S
C179 C178 1.363 . S
C179 C185 1.428 . S
H180 C176 0.930 . S
H181 C178 0.929 . S
S182 N183 1.613 . S
S182 N184 1.610 . S
N183 S182 1.613 . S
N183 C186 1.350 . S
N184 S182 1.610 . S
N184 C185 1.351 . S
C185 C179 1.428 . S
C185 N184 1.351 . S
C185 C186 1.434 . S
C186 C177 1.429 . S
C186 N183 1.350 . S
C186 C185 1.434 . S
C187 C188 1.369 . S
C187 C189 1.419 . S
C187 H191 0.930 . S
C188 C187 1.369 . S
C188 C197 1.429 . S
C189 C187 1.419 . S
C189 C190 1.363 . S
C189 H192 0.929 . S
C190 C189 1.363 . S
C190 C196 1.428 . S
H191 C187 0.930 . S
H192 C189 0.929 . S
S193 N194 1.613 . S
S193 N195 1.610 . S
N194 S193 1.613 . S
N194 C197 1.350 . S
N195 S193 1.610 . S
N195 C196 1.351 . S
C196 C190 1.428 . S
C196 N195 1.351 . S
C196 C197 1.434 . S
C197 C188 1.429 . S
C197 N194 1.350 . S
C197 C196 1.434 . S
C198 C199 1.369 . S
C198 C200 1.419 . S
C198 H202 0.930 . S
C199 C198 1.369 . S
C199 C208 1.429 . S
C200 C198 1.419 . S
C200 C201 1.363 . S
C200 H203 0.929 . S
C201 C200 1.363 . S
C201 C207 1.428 . S
H202 C198 0.930 . S
H203 C200 0.929 . S
S204 N205 1.613 . S
S204 N206 1.610 . S
N205 S204 1.613 . S
N205 C208 1.350 . S
N206 S204 1.610 . S
N206 C207 1.351 . S
C207 C201 1.428 . S
C207 N206 1.351 . S
C207 C208 1.434 . S
C208 C199 1.429 . S
C208 N205 1.350 . S
C208 C207 1.434 . S
C209 C210 1.369 . S
C209 C211 1.419 . S
C209 H213 0.930 . S
C210 C209 1.369 . S
C210 C219 1.429 . S
C211 C209 1.419 . S
C211 C212 1.363 . S
C211 H214 0.929 . S
C212 C211 1.363 . S
C212 C218 1.428 . S
H213 C209 0.930 . S
H214 C211 0.929 . S
S215 N216 1.613 . S
S215 N217 1.610 . S
N216 S215 1.613 . S
N216 C219 1.350 . S
N217 S215 1.610 . S
N217 C218 1.351 . S
C218 C212 1.428 . S
C218 N217 1.351 . S
C218 C219 1.434 . S
C219 C210 1.429 . S
C219 N216 1.350 . S
C219 C218 1.434 . S
C220 C221 1.369 . S
C220 C222 1.419 . S
C220 H224 0.930 . S
C221 C220 1.369 . S
C221 C230 1.429 . S
C222 C220 1.419 . S
C222 C223 1.363 . S
C222 H225 0.929 . S
C223 C222 1.363 . S
C223 C229 1.428 . S
H224 C220 0.930 . S
H225 C222 0.929 . S
S226 N227 1.613 . S
S226 N228 1.610 . S
N227 S226 1.613 . S
N227 C230 1.350 . S
N228 S226 1.610 . S
N228 C229 1.351 . S
C229 C223 1.428 . S
C229 N228 1.351 . S
C229 C230 1.434 . S
C230 C221 1.429 . S
C230 N227 1.350 . S
C230 C229 1.434 . S
C231 C232 1.369 . S
C231 C233 1.419 . S
C231 H235 0.930 . S
C232 C231 1.369 . S
C232 C241 1.429 . S
C233 C231 1.419 . S
C233 C234 1.363 . S
C233 H236 0.929 . S
C234 C233 1.363 . S
C234 C240 1.428 . S
H235 C231 0.930 . S
H236 C233 0.929 . S
S237 N238 1.613 . S
S237 N239 1.610 . S
N238 S237 1.613 . S
N238 C241 1.350 . S
N239 S237 1.610 . S
N239 C240 1.351 . S
C240 C234 1.428 . S
C240 N239 1.351 . S
C240 C241 1.434 . S
C241 C232 1.429 . S
C241 N238 1.350 . S
C241 C240 1.434 . S
C242 C243 1.369 . S
C242 C244 1.419 . S
C242 H246 0.930 . S
C243 C242 1.369 . S
C243 C252 1.429 . S
C244 C242 1.419 . S
C244 C245 1.363 . S
C244 H247 0.929 . S
C245 C244 1.363 . S
C245 C251 1.428 . S
H246 C242 0.930 . S
H247 C244 0.929 . S
S248 N249 1.613 . S
S248 N250 1.610 . S
N249 S248 1.613 . S
N249 C252 1.350 . S
N250 S248 1.610 . S
N250 C251 1.351 . S
C251 C245 1.428 . S
C251 N250 1.351 . S
C251 C252 1.434 . S
C252 C243 1.429 . S
C252 N249 1.350 . S
C252 C251 1.434 . S
C253 C254 1.369 . S
C253 C255 1.419 . S
C253 H257 0.930 . S
C254 C253 1.369 . S
C254 C263 1.429 . S
C255 C253 1.419 . S
C255 C256 1.363 . S
C255 H258 0.929 . S
C256 C255 1.363 . S
C256 C262 1.428 . S
H257 C253 0.930 . S
H258 C255 0.929 . S
S259 N260 1.613 . S
S259 N261 1.610 . S
N260 S259 1.613 . S
N260 C263 1.350 . S
N261 S259 1.610 . S
N261 C262 1.351 . S
C262 C256 1.428 . S
C262 N261 1.351 . S
C262 C263 1.434 . S
C263 C254 1.429 . S
C263 N260 1.350 . S
C263 C262 1.434 . S
C264 C265 1.369 . S
C264 C266 1.419 . S
C264 H268 0.930 . S
C265 C264 1.369 . S
C265 C274 1.429 . S
C266 C264 1.419 . S
C266 C267 1.363 . S
C266 H269 0.929 . S
C267 C266 1.363 . S
C267 C273 1.428 . S
H268 C264 0.930 . S
H269 C266 0.929 . S
S270 N271 1.613 . S
S270 N272 1.610 . S
N271 S270 1.613 . S
N271 C274 1.350 . S
N272 S270 1.610 . S
N272 C273 1.351 . S
C273 C267 1.428 . S
C273 N272 1.351 . S
C273 C274 1.434 . S
C274 C265 1.429 . S
C274 N271 1.350 . S
C274 C273 1.434 . S
C275 C276 1.369 . S
C275 C277 1.419 . S
C275 H279 0.930 . S
C276 C275 1.369 . S
C276 C285 1.429 . S
C277 C275 1.419 . S
C277 C278 1.363 . S
C277 H280 0.929 . S
C278 C277 1.363 . S
C278 C284 1.428 . S
H279 C275 0.930 . S
H280 C277 0.929 . S
S281 N282 1.613 . S
S281 N283 1.610 . S
N282 S281 1.613 . S
N282 C285 1.350 . S
N283 S281 1.610 . S
N283 C284 1.351 . S
C284 C278 1.428 . S
C284 N283 1.351 . S
C284 C285 1.434 . S
C285 C276 1.429 . S
C285 N282 1.350 . S
C285 C284 1.434 . S
C286 C287 1.369 . S
C286 C288 1.419 . S
C286 H290 0.930 . S
C287 C286 1.369 . S
C287 C296 1.429 . S
C288 C286 1.419 . S
C288 C289 1.363 . S
C288 H291 0.929 . S
C289 C288 1.363 . S
C289 C295 1.428 . S
H290 C286 0.930 . S
H291 C288 0.929 . S
S292 N293 1.613 . S
S292 N294 1.610 . S
N293 S292 1.613 . S
N293 C296 1.350 . S
N294 S292 1.610 . S
N294 C295 1.351 . S
C295 C289 1.428 . S
C295 N294 1.351 . S
C295 C296 1.434 . S
C296 C287 1.429 . S
C296 N293 1.350 . S
C296 C295 1.434 . S
C297 C298 1.369 . S
C297 C299 1.419 . S
C297 H301 0.930 . S
C298 C297 1.369 . S
C298 C307 1.429 . S
C299 C297 1.419 . S
C299 C300 1.363 . S
C299 H302 0.929 . S
C300 C299 1.363 . S
C300 C306 1.428 . S
H301 C297 0.930 . S
H302 C299 0.929 . S
S303 N304 1.613 . S
S303 N305 1.610 . S
N304 S303 1.613 . S
N304 C307 1.350 . S
N305 S303 1.610 . S
N305 C306 1.351 . S
C306 C300 1.428 . S
C306 N305 1.351 . S
C306 C307 1.434 . S
C307 C298 1.429 . S
C307 N304 1.350 . S
C307 C306 1.434 . S
C308 C309 1.369 . S
C308 C310 1.419 . S
C308 H312 0.930 . S
C309 C308 1.369 . S
C309 C318 1.429 . S
C310 C308 1.419 . S
C310 C311 1.363 . S
C310 H313 0.929 . S
C311 C310 1.363 . S
C311 C317 1.428 . S
H312 C308 0.930 . S
H313 C310 0.929 . S
S314 N315 1.613 . S
S314 N316 1.610 . S
N315 S314 1.613 . S
N315 C318 1.350 . S
N316 S314 1.610 . S
N316 C317 1.351 . S
C317 C311 1.428 . S
C317 N316 1.351 . S
C317 C318 1.434 . S
C318 C309 1.429 . S
C318 N315 1.350 . S
C318 C317 1.434 . S
C319 C320 1.369 . S
C319 C321 1.419 . S
C319 H323 0.930 . S
C320 C319 1.369 . S
C320 C329 1.429 . S
C321 C319 1.419 . S
C321 C322 1.363 . S
C321 H324 0.929 . S
C322 C321 1.363 . S
C322 C328 1.428 . S
H323 C319 0.930 . S
H324 C321 0.929 . S
S325 N326 1.613 . S
S325 N327 1.610 . S
N326 S325 1.613 . S
N326 C329 1.350 . S
N327 S325 1.610 . S
N327 C328 1.351 . S
C328 C322 1.428 . S
C328 N327 1.351 . S
C328 C329 1.434 . S
C329 C320 1.429 . S
C329 N326 1.350 . S
C329 C328 1.434 . S
C330 C331 1.369 . S
C330 C332 1.419 . S
C330 H334 0.930 . S
C331 C330 1.369 . S
C331 C340 1.429 . S
C332 C330 1.419 . S
C332 C333 1.363 . S
C332 H335 0.929 . S
C333 C332 1.363 . S
C333 C339 1.428 . S
H334 C330 0.930 . S
H335 C332 0.929 . S
S336 N337 1.613 . S
S336 N338 1.610 . S
N337 S336 1.613 . S
N337 C340 1.350 . S
N338 S336 1.610 . S
N338 C339 1.351 . S
C339 C333 1.428 . S
C339 N338 1.351 . S
C339 C340 1.434 . S
C340 C331 1.429 . S
C340 N337 1.350 . S
C340 C339 1.434 . S
C341 C342 1.369 . S
C341 C343 1.419 . S
C341 H345 0.930 . S
C342 C341 1.369 . S
C342 C351 1.429 . S
C343 C341 1.419 . S
C343 C344 1.363 . S
C343 H346 0.929 . S
C344 C343 1.363 . S
C344 C350 1.428 . S
H345 C341 0.930 . S
H346 C343 0.929 . S
S347 N348 1.613 . S
S347 N349 1.610 . S
N348 S347 1.613 . S
N348 C351 1.350 . S
N349 S347 1.610 . S
N349 C350 1.351 . S
C350 C344 1.428 . S
C350 N349 1.351 . S
C350 C351 1.434 . S
C351 C342 1.429 . S
C351 N348 1.350 . S
C351 C350 1.434 . S
C352 C353 1.369 1_556 S
C352 C354 1.419 . S
C352 H356 0.930 . S
C353 C352 1.369 1_554 S
C353 C362 1.429 . S
C354 C352 1.419 . S
C354 C355 1.363 1_556 S
C354 H357 0.929 . S
C355 C354 1.363 1_554 S
C355 C361 1.428 . S
H356 C352 0.930 . S
H357 C354 0.929 . S
S358 N359 1.613 . S
S358 N360 1.610 . S
N359 S358 1.613 . S
N359 C362 1.350 . S
N360 S358 1.610 . S
N360 C361 1.351 . S
C361 C355 1.428 . S
C361 N360 1.351 . S
C361 C362 1.434 . S
C362 C353 1.429 . S
C362 N359 1.350 . S
C362 C361 1.434 . S
C363 C364 1.369 . S
C363 C365 1.419 . S
C363 H367 0.930 . S
C364 C363 1.369 . S
C364 C373 1.429 . S
C365 C363 1.419 . S
C365 C366 1.363 . S
C365 H368 0.929 . S
C366 C365 1.363 . S
C366 C372 1.428 . S
H367 C363 0.930 . S
H368 C365 0.929 . S
S369 N370 1.613 . S
S369 N371 1.610 . S
N370 S369 1.613 . S
N370 C373 1.350 . S
N371 S369 1.610 . S
N371 C372 1.351 . S
C372 C366 1.428 . S
C372 N371 1.351 . S
C372 C373 1.434 . S
C373 C364 1.429 . S
C373 N370 1.350 . S
C373 C372 1.434 . S
C374 C375 1.369 . S
C374 C376 1.419 . S
C374 H378 0.930 . S
C375 C374 1.369 . S
C375 C384 1.429 1_554 S
C376 C374 1.419 . S
C376 C377 1.363 . S
C376 H379 0.929 . S
C377 C376 1.363 . S
C377 C383 1.428 1_554 S
H378 C374 0.930 . S
H379 C376 0.929 . S
S380 N381 1.613 . S
S380 N382 1.610 . S
N381 S380 1.613 . S
N381 C384 1.350 . S
N382 S380 1.610 . S
N382 C383 1.351 . S
C383 C377 1.428 1_556 S
C383 N382 1.351 . S
C383 C384 1.434 . S
C384 C375 1.429 1_556 S
C384 N381 1.350 . S
C384 C383 1.434 . S
C385 C386 1.369 . S
C385 C387 1.419 . S
C385 H389 0.930 . S
C386 C385 1.369 . S
C386 C395 1.429 . S
C387 C385 1.419 . S
C387 C388 1.363 . S
C387 H390 0.929 . S
C388 C387 1.363 . S
C388 C394 1.428 . S
H389 C385 0.930 . S
H390 C387 0.929 . S
S391 N392 1.613 . S
S391 N393 1.610 . S
N392 S391 1.613 . S
N392 C395 1.350 . S
N393 S391 1.610 . S
N393 C394 1.351 . S
C394 C388 1.428 . S
C394 N393 1.351 . S
C394 C395 1.434 . S
C395 C386 1.429 . S
C395 N392 1.350 . S
C395 C394 1.434 . S
C396 C397 1.369 . S
C396 C398 1.419 . S
C396 H400 0.930 . S
C397 C396 1.369 . S
C397 C406 1.429 . S
C398 C396 1.419 . S
C398 C399 1.363 . S
C398 H401 0.929 . S
C399 C398 1.363 . S
C399 C405 1.428 . S
H400 C396 0.930 . S
H401 C398 0.929 . S
S402 N403 1.613 . S
S402 N404 1.610 . S
N403 S402 1.613 . S
N403 C406 1.350 . S
N404 S402 1.610 . S
N404 C405 1.351 . S
C405 C399 1.428 . S
C405 N404 1.351 . S
C405 C406 1.434 . S
C406 C397 1.429 . S
C406 N403 1.350 . S
C406 C405 1.434 . S
C407 C408 1.369 . S
C407 C409 1.419 . S
C407 H411 0.930 . S
C408 C407 1.369 . S
C408 C417 1.429 . S
C409 C407 1.419 . S
C409 C410 1.363 . S
C409 H412 0.929 . S
C410 C409 1.363 . S
C410 C416 1.428 . S
H411 C407 0.930 . S
H412 C409 0.929 . S
S413 N414 1.613 1_556 S
S413 N415 1.610 1_556 S
N414 S413 1.613 1_554 S
N414 C417 1.350 . S
N415 S413 1.610 1_554 S
N415 C416 1.351 . S
C416 C410 1.428 . S
C416 N415 1.351 . S
C416 C417 1.434 . S
C417 C408 1.429 . S
C417 N414 1.350 . S
C417 C416 1.434 . S
C418 C419 1.369 . S
C418 C420 1.419 . S
C418 H422 0.930 . S
C419 C418 1.369 . S
C419 C428 1.429 . S
C420 C418 1.419 . S
C420 C421 1.363 . S
C420 H423 0.929 . S
C421 C420 1.363 . S
C421 C427 1.428 . S
H422 C418 0.930 . S
H423 C420 0.929 . S
S424 N425 1.613 . S
S424 N426 1.610 . S
N425 S424 1.613 . S
N425 C428 1.350 . S
N426 S424 1.610 . S
N426 C427 1.351 . S
C427 C421 1.428 . S
C427 N426 1.351 . S
C427 C428 1.434 . S
C428 C419 1.429 . S
C428 N425 1.350 . S
C428 C427 1.434 . S
C429 C430 1.369 1_556 S
C429 C431 1.419 . S
C429 H433 0.930 . S
C430 C429 1.369 1_554 S
C430 C439 1.429 . S
C431 C429 1.419 . S
C431 C432 1.358 1_556 S
C431 H434 0.929 . S
C432 C431 1.358 1_554 S
C432 C438 1.433 . S
H433 C429 0.930 . S
H434 C431 0.929 . S
S435 N436 1.613 . S
S435 N437 1.610 . S
N436 S435 1.613 . S
N436 C439 1.350 . S
N437 S435 1.610 . S
N437 C438 1.351 . S
C438 C432 1.433 . S
C438 N437 1.351 . S
C438 C439 1.434 . S
C439 C430 1.429 . S
C439 N436 1.350 . S
C439 C438 1.434 . S
C177 C21 1.580 . S
C179 C126 1.488 . S
C188 C40 1.530 . S
C190 C95 1.520 . S
C201 C106 1.453 . S
C199 C54 1.532 . S
C210 C73 1.458 . S
C212 C115 1.200 . S
C223 C150 1.478 . S
C221 C74 1.569 . S
C234 C159 1.200 . S
C232 C10 1.466 . S
C245 C170 1.440 . S
C243 C37 1.535 . S
C256 C139 1.525 . S
C254 C65 1.516 . S
C265 C52 1.512 . S
C267 C104 1.181 . S
C276 C87 1.543 . S
C278 C117 1.498 . S
C287 C15 1.586 . S
C289 C128 1.586 . S
C300 C93 1.328 . S
C298 C32 1.444 . S
C309 C29 1.629 . S
C311 C172 1.625 . S
C322 C137 1.360 . S
C320 C59 1.477 . S
C333 C148 1.172 . S
C331 C84 1.474 . S
C342 C8 1.504 . S
C344 C161 1.442 . S
C355 C96 1.560 . S
C353 C7 1.530 . S
C366 C107 1.522 . S
C364 C30 1.576 . S
C375 C62 1.513 . S
C377 C118 1.487 . S
C386 C81 1.631 . S
C388 C129 1.628 . S
C399 C140 1.517 . S
C397 C76 1.513 . S
C408 C18 1.573 . S
C410 C151 1.515 . S
C419 C43 1.535 . S
C421 C162 1.519 . S
C430 C51 1.627 . S
C432 C173 1.626 1_554 S
