# Generated by pormake.
# Topology tph, (6,8)-cn, num edge types: 1
# Building blocks:
#     Node 0, Type 0, BuildingBlock: IZENUY_clean_sbu_0, # of connection points: 6
#     Node 1, Type 0, BuildingBlock: IZENUY_clean_sbu_0, # of connection points: 6
#     Node 2, Type 0, BuildingBlock: IZENUY_clean_sbu_0, # of connection points: 6
#     Node 3, Type 0, BuildingBlock: IZENUY_clean_sbu_0, # of connection points: 6
#     Node 4, Type 0, BuildingBlock: IZENUY_clean_sbu_0, # of connection points: 6
#     Node 5, Type 0, BuildingBlock: IZENUY_clean_sbu_0, # of connection points: 6
#     Node 6, Type 0, BuildingBlock: IZENUY_clean_sbu_0, # of connection points: 6
#     Node 7, Type 0, BuildingBlock: IZENUY_clean_sbu_0, # of connection points: 6
#     Node 8, Type 0, BuildingBlock: IZENUY_clean_sbu_0, # of connection points: 6
#     Node 9, Type 0, BuildingBlock: IZENUY_clean_sbu_0, # of connection points: 6
#     Node 10, Type 0, BuildingBlock: IZENUY_clean_sbu_0, # of connection points: 6
#     Node 11, Type 0, BuildingBlock: IZENUY_clean_sbu_0, # of connection points: 6
#     Node 12, Type 0, BuildingBlock: IZENUY_clean_sbu_0, # of connection points: 6
#     Node 13, Type 0, BuildingBlock: IZENUY_clean_sbu_0, # of connection points: 6
#     Node 14, Type 0, BuildingBlock: IZENUY_clean_sbu_0, # of connection points: 6
#     Node 15, Type 0, BuildingBlock: IZENUY_clean_sbu_0, # of connection points: 6
#     Node 16, Type 1, BuildingBlock: TAGTUT_clean_sbu_1, # of connection points: 8
#     Node 17, Type 1, BuildingBlock: TAGTUT_clean_sbu_1, # of connection points: 8
#     Node 18, Type 1, BuildingBlock: TAGTUT_clean_sbu_1, # of connection points: 8
#     Node 19, Type 1, BuildingBlock: TAGTUT_clean_sbu_1, # of connection points: 8
#     Node 20, Type 1, BuildingBlock: TAGTUT_clean_sbu_1, # of connection points: 8
#     Node 21, Type 1, BuildingBlock: TAGTUT_clean_sbu_1, # of connection points: 8
#     Node 22, Type 1, BuildingBlock: TAGTUT_clean_sbu_1, # of connection points: 8
#     Node 23, Type 1, BuildingBlock: TAGTUT_clean_sbu_1, # of connection points: 8
#     Node 24, Type 1, BuildingBlock: TAGTUT_clean_sbu_1, # of connection points: 8
#     Node 25, Type 1, BuildingBlock: TAGTUT_clean_sbu_1, # of connection points: 8
#     Node 26, Type 1, BuildingBlock: TAGTUT_clean_sbu_1, # of connection points: 8
#     Node 27, Type 1, BuildingBlock: TAGTUT_clean_sbu_1, # of connection points: 8
#     Edge 28, Type (0, 1), None
#     Edge 29, Type (0, 1), None
#     Edge 30, Type (0, 1), None
#     Edge 31, Type (0, 1), None
#     Edge 32, Type (0, 1), None
#     Edge 33, Type (0, 1), None
#     Edge 34, Type (0, 1), None
#     Edge 35, Type (0, 1), None
#     Edge 36, Type (0, 1), None
#     Edge 37, Type (0, 1), None
#     Edge 38, Type (0, 1), None
#     Edge 39, Type (0, 1), None
#     Edge 40, Type (0, 1), None
#     Edge 41, Type (0, 1), None
#     Edge 42, Type (0, 1), None
#     Edge 43, Type (0, 1), None
#     Edge 44, Type (0, 1), None
#     Edge 45, Type (0, 1), None
#     Edge 46, Type (0, 1), None
#     Edge 47, Type (0, 1), None
#     Edge 48, Type (0, 1), None
#     Edge 49, Type (0, 1), None
#     Edge 50, Type (0, 1), None
#     Edge 51, Type (0, 1), None
#     Edge 52, Type (0, 1), None
#     Edge 53, Type (0, 1), None
#     Edge 54, Type (0, 1), None
#     Edge 55, Type (0, 1), None
#     Edge 56, Type (0, 1), None
#     Edge 57, Type (0, 1), None
#     Edge 58, Type (0, 1), None
#     Edge 59, Type (0, 1), None
#     Edge 60, Type (0, 1), None
#     Edge 61, Type (0, 1), None
#     Edge 62, Type (0, 1), None
#     Edge 63, Type (0, 1), None
#     Edge 64, Type (0, 1), None
#     Edge 65, Type (0, 1), None
#     Edge 66, Type (0, 1), None
#     Edge 67, Type (0, 1), None
#     Edge 68, Type (0, 1), None
#     Edge 69, Type (0, 1), None
#     Edge 70, Type (0, 1), None
#     Edge 71, Type (0, 1), None
#     Edge 72, Type (0, 1), None
#     Edge 73, Type (0, 1), None
#     Edge 74, Type (0, 1), None
#     Edge 75, Type (0, 1), None
#     Edge 76, Type (0, 1), None
#     Edge 77, Type (0, 1), None
#     Edge 78, Type (0, 1), None
#     Edge 79, Type (0, 1), None
#     Edge 80, Type (0, 1), None
#     Edge 81, Type (0, 1), None
#     Edge 82, Type (0, 1), None
#     Edge 83, Type (0, 1), None
#     Edge 84, Type (0, 1), None
#     Edge 85, Type (0, 1), None
#     Edge 86, Type (0, 1), None
#     Edge 87, Type (0, 1), None
#     Edge 88, Type (0, 1), None
#     Edge 89, Type (0, 1), None
#     Edge 90, Type (0, 1), None
#     Edge 91, Type (0, 1), None
#     Edge 92, Type (0, 1), None
#     Edge 93, Type (0, 1), None
#     Edge 94, Type (0, 1), None
#     Edge 95, Type (0, 1), None
#     Edge 96, Type (0, 1), None
#     Edge 97, Type (0, 1), None
#     Edge 98, Type (0, 1), None
#     Edge 99, Type (0, 1), None
#     Edge 100, Type (0, 1), None
#     Edge 101, Type (0, 1), None
#     Edge 102, Type (0, 1), None
#     Edge 103, Type (0, 1), None
#     Edge 104, Type (0, 1), None
#     Edge 105, Type (0, 1), None
#     Edge 106, Type (0, 1), None
#     Edge 107, Type (0, 1), None
#     Edge 108, Type (0, 1), None
#     Edge 109, Type (0, 1), None
#     Edge 110, Type (0, 1), None
#     Edge 111, Type (0, 1), None
#     Edge 112, Type (0, 1), None
#     Edge 113, Type (0, 1), None
#     Edge 114, Type (0, 1), None
#     Edge 115, Type (0, 1), None
#     Edge 116, Type (0, 1), None
#     Edge 117, Type (0, 1), None
#     Edge 118, Type (0, 1), None
#     Edge 119, Type (0, 1), None
#     Edge 120, Type (0, 1), None
#     Edge 121, Type (0, 1), None
#     Edge 122, Type (0, 1), None
#     Edge 123, Type (0, 1), None
# Relax obj value: 0.236
# Max RMSD: 0.319
# Mean RMSD: 0.276
data_MOF--net-tph--node1-IZENUY_clean_sbu_0--node2-TAGTUT_clean_sbu_1--edge1-none
_symmetry_space_group_name_H-M    P1
_symmetry_Int_Tables_number       1
_symmetry_cell_setting            triclinic
loop_
_symmetry_equiv_pos_as_xyz
'x, y, z'
_cell_length_a     23.198688
_cell_length_b     23.054237
_cell_length_c     23.038685
_cell_angle_alpha  90.596316
_cell_angle_beta   90.308594
_cell_angle_gamma 89.545715
loop_
_atom_site_label
_atom_site_type_symbol
_atom_site_fract_x
_atom_site_fract_y
_atom_site_fract_z
_atom_type_partial_charge
Fe0 Fe 0.2585 0.244 0.11883 0.0
Fe1 Fe 0.15385 0.24844 0.19754 0.0
O2 O 0.21493 0.21167 0.17063 0.0
Fe3 Fe 0.23305 0.14161 0.19512 0.0
O4 O 0.21868 0.11213 0.12454 0.0
O5 O 0.27499 0.17365 0.08119 0.0
O6 O 0.20186 0.24964 0.06799 0.0
C7 C 0.15777 0.27943 0.07704 0.0
C8 C 0.34353 0.19365 0.17456 0.0
O9 O 0.13773 0.28704 0.12804 0.0
C10 C 0.20176 0.18995 0.29702 0.0
O11 O 0.24447 0.31824 0.14586 0.0
O12 O 0.19565 0.30513 0.22575 0.0
O13 O 0.31321 0.14787 0.17952 0.0
O14 O 0.31805 0.24091 0.16824 0.0
C15 C 0.11208 0.14417 0.19017 0.0
O16 O 0.16033 0.21604 0.27107 0.0
O17 O 0.24368 0.16781 0.2689 0.0
C18 C 0.21887 0.3377 0.19077 0.0
O19 O 0.10836 0.19394 0.17084 0.0
O20 O 0.15826 0.12348 0.21134 0.0
C21 C 0.24282 0.12881 0.07948 0.0
Fe22 Fe 0.47907 0.59303 0.14841 0.0
Fe23 Fe 0.45331 0.66358 0.03728 0.0
O24 O 0.4395 0.60318 0.08272 0.0
Fe25 Fe 0.37793 0.55779 0.06785 0.0
O26 O 0.34245 0.58918 0.13184 0.0
O27 O 0.4148 0.5747 0.19219 0.0
O28 O 0.46262 0.66415 0.17321 0.0
C29 C 0.45185 0.71189 0.15028 0.0
C30 C 0.45799 0.47812 0.12937 0.0
O31 O 0.46078 0.71888 0.09644 0.0
C32 C 0.42425 0.56405 0.96125 0.0
O33 O 0.54913 0.6145 0.1152 0.0
O34 O 0.53078 0.65287 0.02991 0.0
O35 O 0.40787 0.49399 0.11065 0.0
O36 O 0.49672 0.51652 0.13211 0.0
C37 C 0.34491 0.65962 0.00786 0.0
O38 O 0.44342 0.61543 0.97244 0.0
O39 O 0.40936 0.52929 1.00123 0.0
C40 C 0.56653 0.63844 0.06832 0.0
O41 O 0.38048 0.68334 0.04012 0.0
O42 O 0.33461 0.60722 0.01842 0.0
C43 C 0.36329 0.59236 0.18302 0.0
Fe44 Fe 0.82119 0.29936 0.1506 0.0
Fe45 Fe 0.88129 0.27471 0.26659 0.0
O46 O 0.83564 0.31815 0.22299 0.0
Fe47 Fe 0.80368 0.38098 0.25168 0.0
O48 O 0.83998 0.42633 0.20323 0.0
O49 O 0.80864 0.37608 0.12836 0.0
O50 O 0.89323 0.31321 0.13606 0.0
C51 C 0.93508 0.28449 0.15442 0.0
C52 C 0.71348 0.33235 0.18017 0.0
O53 O 0.93197 0.25683 0.20279 0.0
C54 C 0.78873 0.32019 0.34231 0.0
O55 O 0.83822 0.21815 0.15856 0.0
O56 O 0.83768 0.21127 0.25261 0.0
O57 O 0.73691 0.37551 0.20625 0.0
O58 O 0.74415 0.28903 0.16395 0.0
C59 C 0.91898 0.38022 0.30113 0.0
O60 O 0.83838 0.29419 0.33658 0.0
O61 O 0.76437 0.3369 0.29843 0.0
C62 C 0.84479 0.18662 0.20377 0.0
O63 O 0.92981 0.33136 0.28069 0.0
O64 O 0.86653 0.39863 0.30247 0.0
C65 C 0.82877 0.42277 0.15071 0.0
Fe66 Fe 0.54565 0.948 0.14938 0.0
Fe67 Fe 0.58274 0.88488 0.03511 0.0
O68 O 0.59266 0.94269 0.08749 0.0
Fe69 Fe 0.65429 0.9887 0.08438 0.0
O70 O 0.67577 0.96731 0.15505 0.0
O71 O 0.59777 0.97263 0.20544 0.0
O72 O 0.56811 0.87737 0.16908 0.0
C73 C 0.57136 0.83029 0.14148 0.0
C74 C 0.5609 0.06473 0.12876 0.0
O75 O 0.56031 0.82876 0.0877 0.0
C76 C 0.63394 0.97831 0.96582 0.0
O77 O 0.48104 0.91958 0.11037 0.0
O78 O 0.50821 0.90542 0.02055 0.0
O79 O 0.61261 0.05387 0.11169 0.0
O80 O 0.52475 0.02357 0.13459 0.0
C81 C 0.69984 0.87716 0.06155 0.0
O82 O 0.60935 0.92902 0.9722 0.0
O83 O 0.64236 1.01144 0.00935 0.0
C84 C 0.46937 0.90196 0.05919 0.0
O85 O 0.65215 0.85591 0.04867 0.0
O86 O 0.70689 0.9316 0.0617 0.0
C87 C 0.65119 0.96464 0.20302 0.0
Fe88 Fe 0.24282 0.89174 0.32275 0.0
Fe89 Fe 0.23444 0.78709 0.40289 0.0
O90 O 0.20912 0.82539 0.34071 0.0
Fe91 Fe 0.15219 0.79772 0.29729 0.0
O92 O 0.1096 0.86369 0.29816 0.0
O93 O 0.17945 0.9248 0.28513 0.0
O94 O 0.21849 0.92378 0.38871 0.0
C95 C 0.23987 0.90668 0.43558 0.0
C96 C 0.23674 0.84254 0.21854 0.0
O97 O 0.25625 0.85433 0.44229 0.0
C98 C 0.18888 0.69384 0.33109 0.0
O99 O 0.31411 0.87227 0.35529 0.0
O100 O 0.30548 0.77868 0.37132 0.0
O101 O 0.18809 0.81894 0.22877 0.0
O102 O 0.26877 0.86301 0.25707 0.0
C103 C 0.12186 0.77712 0.41714 0.0
O104 O 0.21124 0.71206 0.37843 0.0
O105 O 0.18635 0.72781 0.28921 0.0
C106 C 0.3366 0.82349 0.36767 0.0
O107 O 0.16819 0.7951 0.43767 0.0
O108 O 0.1109 0.7745 0.36249 0.0
C109 C 0.12704 0.91066 0.27806 0.0
Fe110 Fe 0.14743 0.53978 0.95962 0.0
Fe111 Fe 0.04883 0.58533 0.88175 0.0
O112 O 0.08808 0.58924 0.94796 0.0
Fe113 Fe 0.07713 0.64696 0.99779 0.0
O114 O 0.15109 0.66345 0.99104 0.0
O115 O 0.19284 0.58481 0.01248 0.0
O116 O 0.18494 0.57195 0.89914 0.0
C117 C 0.16472 0.57802 0.8483 0.0
C118 C 0.10479 0.54193 0.06562 0.0
O119 O 0.11272 0.5633 0.8377 0.0
C120 C 0.96328 0.63217 0.96244 0.0
O121 O 0.11488 0.4805 0.91278 0.0
O122 O 0.02672 0.51044 0.89453 0.0
O123 O 0.08988 0.59592 0.06106 0.0
O124 O 0.11273 0.50984 0.02139 0.0
C125 C 0.07538 0.70365 0.88925 0.0
O126 O 0.97946 0.61221 0.91321 0.0
O127 O 0.99904 0.63748 1.00417 0.0
C128 C 0.06278 0.46906 0.89791 0.0
O129 O 0.06929 0.65642 0.86261 0.0
O130 O 0.06758 0.7065 0.94368 0.0
C131 C 0.18825 0.63872 0.02082 0.0
Fe132 Fe 0.79175 0.64313 0.24435 0.0
Fe133 Fe 0.88582 0.73409 0.26014 0.0
O134 O 0.82462 0.69685 0.2867 0.0
Fe135 Fe 0.80069 0.71175 0.35697 0.0
O136 O 0.73064 0.73267 0.33519 0.0
O137 O 0.71837 0.65981 0.27337 0.0
O138 O 0.78058 0.69593 0.1889 0.0
C139 C 0.82344 0.70484 0.15745 0.0
C140 C 0.79263 0.59055 0.34723 0.0
O141 O 0.87002 0.7201 0.18178 0.0
C142 C 0.90958 0.72176 0.37852 0.0
O143 O 0.8614 0.61637 0.21556 0.0
O144 O 0.9256 0.67025 0.26255 0.0
O145 O 0.77806 0.63769 0.37173 0.0
O146 O 0.80343 0.58728 0.2949 0.0
C147 C 0.8316 0.82163 0.30867 0.0
O148 O 0.91595 0.75122 0.33305 0.0
O149 O 0.86858 0.68851 0.3828 0.0
C150 C 0.91015 0.62338 0.24001 0.0
O151 O 0.84618 0.8004 0.26004 0.0
O152 O 0.81937 0.78984 0.352 0.0
C153 C 0.69866 0.69714 0.3101 0.0
Fe154 Fe 0.8845 0.99909 0.94125 0.0
Fe155 Fe 0.99354 0.9507 0.87627 0.0
O156 O 0.94243 0.94662 0.9352 0.0
Fe157 Fe 0.94469 0.8849 0.98194 0.0
O158 O 0.87377 0.86588 0.95943 0.0
O159 O 0.82545 0.94743 0.95551 0.0
O160 O 0.8651 0.98738 0.86808 0.0
C161 C 0.89082 0.98089 0.82099 0.0
C162 C 0.89633 0.9755 0.05913 0.0
O163 O 0.94494 0.98063 0.81999 0.0
C164 C 0.06266 0.89977 0.97061 0.0
O165 O 0.93227 0.06016 0.92228 0.0
O166 O 1.01713 0.02263 0.89777 0.0
O167 O 0.91671 0.92492 0.04765 0.0
O168 O 0.89424 1.01366 0.01956 0.0
C169 C 0.96 0.83582 0.87108 0.0
O170 O 0.05433 0.91651 0.91846 0.0
O171 O 0.02005 0.89714 1.00528 0.0
C172 C 0.98324 0.06599 0.9024 0.0
O173 O 0.96993 0.88316 0.84751 0.0
O174 O 0.96738 0.83091 0.9254 0.0
C175 C 0.82756 0.89299 0.94974 0.0
Fe176 Fe 0.3845 0.49909 0.44125 0.0
Fe177 Fe 0.49355 0.45069 0.37627 0.0
O178 O 0.44243 0.44662 0.4352 0.0
Fe179 Fe 0.44469 0.3849 0.48194 0.0
O180 O 0.37377 0.36588 0.45943 0.0
O181 O 0.32545 0.44743 0.45551 0.0
O182 O 0.3651 0.48738 0.36808 0.0
C183 C 0.39082 0.48089 0.32099 0.0
C184 C 0.39633 0.47549 0.55913 0.0
O185 O 0.44495 0.48063 0.31999 0.0
C186 C 0.56266 0.39977 0.47061 0.0
O187 O 0.43227 0.56015 0.42228 0.0
O188 O 0.51714 0.52263 0.39778 0.0
O189 O 0.41671 0.42492 0.54765 0.0
O190 O 0.39424 0.51366 0.51956 0.0
C191 C 0.46001 0.33582 0.37108 0.0
O192 O 0.55433 0.4165 0.41846 0.0
O193 O 0.52005 0.39713 0.50529 0.0
C194 C 0.48325 0.56598 0.4024 0.0
O195 O 0.46994 0.38316 0.34751 0.0
O196 O 0.46738 0.33091 0.4254 0.0
C197 C 0.32756 0.39299 0.44974 0.0
Fe198 Fe 0.32118 0.79936 0.65061 0.0
Fe199 Fe 0.3037 0.88097 0.75171 0.0
O200 O 0.33566 0.81814 0.72299 0.0
Fe201 Fe 0.38131 0.7747 0.76658 0.0
O202 O 0.33769 0.71126 0.75261 0.0
O203 O 0.3382 0.71815 0.65857 0.0
O204 O 0.24414 0.78905 0.66397 0.0
C205 C 0.21348 0.83236 0.68022 0.0
C206 C 0.43505 0.78442 0.65436 0.0
O207 O 0.23692 0.87551 0.70629 0.0
C208 C 0.41903 0.88021 0.80107 0.0
O209 O 0.30863 0.87608 0.62838 0.0
O210 O 0.33999 0.92633 0.70325 0.0
O211 O 0.43197 0.75681 0.70276 0.0
O212 O 0.39322 0.8132 0.63605 0.0
C213 C 0.28876 0.82014 0.84233 0.0
O214 O 0.36658 0.89861 0.80247 0.0
O215 O 0.42985 0.83133 0.78064 0.0
C216 C 0.32874 0.92278 0.65073 0.0
O217 O 0.2644 0.83688 0.79846 0.0
O218 O 0.33843 0.79419 0.83657 0.0
C219 C 0.34476 0.68661 0.70377 0.0
Fe220 Fe 0.08274 0.38488 0.53511 0.0
Fe221 Fe 0.15429 0.4887 0.58438 0.0
O222 O 0.09265 0.44269 0.58749 0.0
Fe223 Fe 0.04565 0.44801 0.64938 0.0
O224 O 0.0681 0.37737 0.66907 0.0
O225 O 0.0603 0.32876 0.5877 0.0
O226 O 0.15215 0.35591 0.54867 0.0
C227 C 0.19984 0.37717 0.56154 0.0
C228 C 0.96937 0.40197 0.55918 0.0
O229 O 0.20689 0.4316 0.5617 0.0
C230 C 0.0609 0.56474 0.62876 0.0
O231 O 0.10935 0.42902 0.47219 0.0
O232 O 0.14236 0.51145 0.50935 0.0
O233 O 0.98103 0.41959 0.61036 0.0
O234 O 1.00821 0.40542 0.52054 0.0
C235 C 0.15119 0.46465 0.70301 0.0
O236 O 0.11261 0.55388 0.61168 0.0
O237 O 0.02475 0.52358 0.63459 0.0
C238 C 0.13394 0.47832 0.46581 0.0
O239 O 0.17577 0.46732 0.65505 0.0
O240 O 0.09777 0.47263 0.70543 0.0
C241 C 0.07135 0.3303 0.64147 0.0
Fe242 Fe 0.97907 0.09304 0.64841 0.0
Fe243 Fe 0.95331 0.16359 0.53728 0.0
O244 O 0.93949 0.10319 0.58271 0.0
Fe245 Fe 0.87793 0.0578 0.56785 0.0
O246 O 0.84244 0.08919 0.63184 0.0
O247 O 0.9148 0.07471 0.69219 0.0
O248 O 0.96262 0.16415 0.67321 0.0
C249 C 0.95185 0.2119 0.65028 0.0
C250 C 0.95798 0.97813 0.62937 0.0
O251 O 0.96078 0.21889 0.59644 0.0
C252 C 0.92425 0.06406 0.46124 0.0
O253 O 0.04913 0.11451 0.6152 0.0
O254 O 0.03078 0.15288 0.52991 0.0
O255 O 0.90787 0.994 0.61065 0.0
O256 O 0.99672 0.01652 0.63211 0.0
C257 C 0.84491 0.15962 0.50786 0.0
O258 O 0.94342 0.11544 0.47244 0.0
O259 O 0.90937 0.0293 0.50123 0.0
C260 C 0.06653 0.13845 0.56832 0.0
O261 O 0.88048 0.18335 0.54011 0.0
O262 O 0.83461 0.10723 0.51842 0.0
C263 C 0.86328 0.09236 0.68302 0.0
Fe264 Fe 0.75851 0.744 0.61884 0.0
Fe265 Fe 0.73304 0.64162 0.69514 0.0
O266 O 0.71492 0.71168 0.67064 0.0
Fe267 Fe 0.65385 0.74845 0.69755 0.0
O268 O 0.69566 0.80514 0.72575 0.0
O269 O 0.74447 0.81824 0.64586 0.0
O270 O 0.81805 0.74091 0.66825 0.0
C271 C 0.84353 0.69365 0.67462 0.0
C272 C 0.65777 0.77942 0.57704 0.0
O273 O 0.8132 0.64787 0.67953 0.0
C274 C 0.61206 0.64419 0.69019 0.0
O275 O 0.77499 0.67364 0.5812 0.0
O276 O 0.71866 0.61214 0.62456 0.0
O277 O 0.63774 0.78705 0.62804 0.0
O278 O 0.70186 0.74963 0.56799 0.0
C279 C 0.70175 0.68997 0.79703 0.0
O280 O 0.65824 0.6235 0.71136 0.0
O281 O 0.60835 0.69396 0.67085 0.0
C282 C 0.74284 0.62879 0.5795 0.0
O283 O 0.74367 0.66782 0.76891 0.0
O284 O 0.66033 0.71607 0.77108 0.0
C285 C 0.71888 0.8377 0.69077 0.0
Fe286 Fe 0.74283 0.39175 0.82275 0.0
Fe287 Fe 0.73444 0.2871 0.90289 0.0
O288 O 0.70913 0.3254 0.84071 0.0
Fe289 Fe 0.6522 0.29773 0.79729 0.0
O290 O 0.60961 0.3637 0.79815 0.0
O291 O 0.67946 0.4248 0.78512 0.0
O292 O 0.71849 0.42379 0.88871 0.0
C293 C 0.73987 0.40669 0.93558 0.0
C294 C 0.73675 0.34255 0.71854 0.0
O295 O 0.75625 0.35435 0.94229 0.0
C296 C 0.68888 0.19385 0.8311 0.0
O297 O 0.81411 0.37228 0.85529 0.0
O298 O 0.80549 0.27868 0.87132 0.0
O299 O 0.6881 0.31895 0.72877 0.0
O300 O 0.76877 0.36301 0.75707 0.0
C301 C 0.62186 0.27713 0.91714 0.0
O302 O 0.71124 0.21207 0.87843 0.0
O303 O 0.68636 0.22782 0.78921 0.0
C304 C 0.8366 0.32349 0.86767 0.0
O305 O 0.66819 0.29512 0.93767 0.0
O306 O 0.61091 0.27451 0.86249 0.0
C307 C 0.62704 0.41067 0.77806 0.0
Fe308 Fe 0.64744 0.03977 0.45962 0.0
Fe309 Fe 0.54883 0.08533 0.38174 0.0
O310 O 0.58809 0.08923 0.44796 0.0
Fe311 Fe 0.57713 0.14696 0.49778 0.0
O312 O 0.6511 0.16345 0.49103 0.0
O313 O 0.69285 0.0848 0.51247 0.0
O314 O 0.68495 0.07195 0.39914 0.0
C315 C 0.66472 0.07802 0.3483 0.0
C316 C 0.6048 0.04193 0.56562 0.0
O317 O 0.61272 0.0633 0.3377 0.0
C318 C 0.46328 0.13217 0.46244 0.0
O319 O 0.61489 0.9805 0.41278 0.0
O320 O 0.52673 1.01043 0.39453 0.0
O321 O 0.58988 0.09591 0.56105 0.0
O322 O 0.61275 1.00984 0.52139 0.0
C323 C 0.57539 0.20365 0.38924 0.0
O324 O 0.47946 0.1122 0.41321 0.0
O325 O 0.49905 0.13749 0.50416 0.0
C326 C 0.56279 0.96905 0.39791 0.0
O327 O 0.56929 0.15642 0.36261 0.0
O328 O 0.56759 0.2065 0.44368 0.0
C329 C 0.68826 0.13871 0.52081 0.0
Fe330 Fe 0.29174 0.14313 0.74436 0.0
Fe331 Fe 0.38582 0.23407 0.76013 0.0
O332 O 0.32462 0.19685 0.78669 0.0
Fe333 Fe 0.3007 0.21174 0.85698 0.0
O334 O 0.23065 0.23266 0.8352 0.0
O335 O 0.21836 0.1598 0.77337 0.0
O336 O 0.28058 0.19592 0.6889 0.0
C337 C 0.32344 0.20482 0.65745 0.0
C338 C 0.29264 0.09055 0.84723 0.0
O339 O 0.37002 0.22008 0.68178 0.0
C340 C 0.40959 0.22175 0.87851 0.0
O341 O 0.36139 0.11636 0.71556 0.0
O342 O 0.4256 0.17023 0.76254 0.0
O343 O 0.27807 0.13768 0.87174 0.0
O344 O 0.30342 0.08727 0.7949 0.0
C345 C 0.33161 0.32162 0.80866 0.0
O346 O 0.41596 0.25121 0.83304 0.0
O347 O 0.36859 0.18851 0.88279 0.0
C348 C 0.41014 0.12336 0.74003 0.0
O349 O 0.34619 0.30039 0.76003 0.0
O350 O 0.31938 0.28984 0.85199 0.0
C351 C 0.19866 0.19714 0.8101 0.0
C352 C 0.9779 0.27849 0.1078 0.0
C353 C 0.12614 0.29672 0.02616 0.0
C354 C 0.04901 0.41239 0.86678 0.0
Mg355 Mg 0.04418 0.2112 0.01039 0.0
O356 O 0.99987 0.25977 0.96394 0.0
Mg357 Mg 1.00441 0.347 0.98231 0.0
Mg358 Mg 0.02077 0.26336 0.87881 0.0
O359 O 0.03333 0.27084 0.80001 0.0
Mg360 Mg 0.02882 0.33626 0.75392 0.0
Mg361 Mg 0.02002 0.19327 0.76769 0.0
C362 C 1.00783 0.12464 0.90613 0.0
C363 C 0.13786 0.19821 0.825 0.0
O364 O 0.97324 0.31903 0.06995 0.0
O365 O 1.00441 0.2306 0.09656 0.0
O366 O 0.08995 0.33808 0.03044 0.0
O367 O 0.11878 0.25638 0.98965 0.0
O368 O 0.02596 0.13568 0.95778 0.0
O369 O 0.99564 0.16556 0.86852 0.0
C370 C 0.89602 0.32113 0.89017 0.0
O371 O 0.92928 0.28531 0.8656 0.0
O372 O 0.9127 0.35128 0.93456 0.0
O373 O 0.05924 0.23388 0.67752 0.0
O374 O 0.1087 0.29773 0.72562 0.0
O375 O 0.93549 0.23979 0.74532 0.0
C376 C 0.08987 0.28002 0.6772 0.0
O377 O 0.96158 0.30909 0.68725 0.0
O378 O 0.04131 0.41319 0.81157 0.0
C379 C 0.93905 0.25893 0.69362 0.0
O380 O 0.04471 0.36392 0.8941 0.0
O381 O 0.11785 0.23253 0.86572 0.0
O382 O 0.10611 0.16908 0.79074 0.0
C383 C 0.47789 0.77846 0.60778 0.0
C384 C 0.62615 0.79673 0.52616 0.0
C385 C 0.54901 0.91239 0.36678 0.0
Mg386 Mg 0.54421 0.71119 0.51038 0.0
O387 O 0.49988 0.75976 0.46393 0.0
Mg388 Mg 0.50442 0.84699 0.48231 0.0
Mg389 Mg 0.52077 0.76335 0.3788 0.0
O390 O 0.53332 0.77084 0.3 0.0
Mg391 Mg 0.52882 0.83625 0.25391 0.0
Mg392 Mg 0.52002 0.69327 0.26768 0.0
C393 C 0.50784 0.62464 0.40613 0.0
C394 C 0.63786 0.69821 0.32499 0.0
O395 O 0.47323 0.81901 0.56993 0.0
O396 O 0.50443 0.73058 0.59653 0.0
O397 O 0.58995 0.83808 0.53044 0.0
O398 O 0.61879 0.75639 0.48964 0.0
O399 O 0.52598 0.63568 0.45776 0.0
O400 O 0.49564 0.66556 0.36852 0.0
C401 C 0.39602 0.82112 0.39017 0.0
O402 O 0.42927 0.78531 0.36559 0.0
O403 O 0.4127 0.85127 0.43456 0.0
O404 O 0.55924 0.73388 0.17751 0.0
O405 O 0.6087 0.79772 0.22562 0.0
O406 O 0.43549 0.73979 0.24532 0.0
C407 C 0.58988 0.78002 0.1772 0.0
O408 O 0.46159 0.80909 0.18725 0.0
O409 O 0.54132 0.91319 0.31157 0.0
C410 C 0.43906 0.75892 0.19362 0.0
O411 O 0.54471 0.86392 0.3941 0.0
O412 O 0.61784 0.73253 0.36571 0.0
O413 O 0.60611 0.66907 0.29073 0.0
C414 C 0.93281 0.73975 0.43261 0.0
C415 C 0.07772 0.7706 0.45873 0.0
C416 C 0.0484 0.62325 0.65764 0.0
Mg417 Mg 0.97915 0.82562 0.51647 0.0
O418 O 0.9902 0.76825 0.56948 0.0
Mg419 Mg 0.99876 0.68522 0.5468 0.0
Mg420 Mg 0.02334 0.77065 0.64753 0.0
O421 O 0.04798 0.76531 0.72411 0.0
Mg422 Mg 0.03421 0.70163 0.77221 0.0
Mg423 Mg 0.03326 0.8434 0.75454 0.0
C424 C 0.97416 0.91437 0.62043 0.0
C425 C 0.14935 0.83127 0.67805 0.0
O426 O 0.94867 0.69929 0.46631 0.0
O427 O 0.93082 0.79317 0.44706 0.0
O428 O 0.06974 0.7213 0.48395 0.0
O429 O 0.05384 0.81814 0.47337 0.0
O430 O 0.96527 0.90044 0.56745 0.0
O431 O 0.99525 0.87595 0.65838 0.0
C432 C 0.90389 0.69423 0.65357 0.0
O433 O 0.9342 0.73701 0.67147 0.0
O434 O 0.91842 0.66543 0.60755 0.0
O435 O 0.06973 0.80017 0.84744 0.0
O436 O 0.11623 0.73 0.80454 0.0
O437 O 0.94673 0.80464 0.77709 0.0
C438 C 0.09728 0.75147 0.85141 0.0
O439 O 0.96935 0.7367 0.83812 0.0
O440 O 0.03838 0.6243 0.71259 0.0
C441 C 0.94832 0.78744 0.82923 0.0
O442 O 0.05183 0.67138 0.62945 0.0
O443 O 0.12131 0.80087 0.63947 0.0
O444 O 0.12393 0.85651 0.72101 0.0
C445 C 0.06024 0.11627 0.20122 0.0
C446 C 0.08481 0.95566 0.25999 0.0
C447 C 0.86715 0.98682 0.11806 0.0
Mg448 Mg 1.01673 0.05882 0.29853 0.0
O449 O 0.96839 1.00782 0.26171 0.0
Mg450 Mg 0.97734 0.02007 0.17526 0.0
Mg451 Mg 0.8856 1.00313 0.26596 0.0
O452 O 0.80749 0.99929 0.26412 0.0
Mg453 Mg 0.75938 1.01258 0.20161 0.0
Mg454 Mg 0.78244 1.00143 0.34468 0.0
C455 C 0.92743 0.04588 0.39997 0.0
C456 C 0.84168 0.88246 0.31832 0.0
O457 O 0.05512 0.06759 0.17769 0.0
O458 O 0.03132 0.13122 0.24558 0.0
O459 O 0.04641 0.94805 0.21831 0.0
O460 O 0.08635 1.00153 0.29131 0.0
O461 O 0.97575 0.06037 0.37879 0.0
O462 O 0.88404 0.02804 0.36742 0.0
C463 C 0.87695 0.12791 0.20361 0.0
O464 O 0.87122 0.09833 0.24893 0.0
O465 O 0.91326 0.10923 0.16488 0.0
O466 O 0.68941 0.97012 0.30147 0.0
O467 O 0.73678 0.92788 0.23178 0.0
O468 O 0.75901 0.09188 0.31941 0.0
C469 C 0.68877 0.94415 0.25164 0.0
O470 O 0.69716 0.07459 0.24873 0.0
O471 O 0.81512 1.00697 0.12046 0.0
C472 C 0.70713 0.09124 0.30156 0.0
O473 O 0.89381 0.97483 0.16563 0.0
O474 O 0.87949 0.9078 0.28705 0.0
O475 O 0.80645 0.90936 0.35122 0.0
C476 C 0.28279 0.0377 0.87579 0.0
C477 C 0.24844 0.08482 0.03405 0.0
C478 C 0.11925 0.86878 0.98613 0.0
Mg479 Mg 0.33131 0.99989 0.97763 0.0
O480 O 0.27222 0.95924 0.01117 0.0
Mg481 Mg 0.20218 0.9687 0.9577 0.0
Mg482 Mg 0.26467 0.87769 0.02894 0.0
O483 O 0.24855 0.8007 0.0423 0.0
Mg484 Mg 0.19776 0.75556 0.99776 0.0
Mg485 Mg 0.32312 0.77145 0.06544 0.0
C486 C 0.40816 0.90687 0.04084 0.0
C487 C 0.25985 0.84225 0.16161 0.0
O488 O 0.23671 0.03564 0.90385 0.0
O489 O 0.32493 1.00439 0.88683 0.0
O490 O 0.20692 0.0477 0.0252 0.0
O491 O 0.29918 0.07839 0.01335 0.0
O492 O 0.39978 0.95552 0.01642 0.0
O493 O 0.36677 0.86808 0.04726 0.0
C494 C 0.26876 0.85443 0.8942 0.0
O495 O 0.29459 0.84954 0.94136 0.0
O496 O 0.22858 0.89319 0.88966 0.0
O497 O 0.26511 0.68008 0.07914 0.0
O498 O 0.17939 0.71765 0.07972 0.0
O499 O 0.33253 0.74926 0.97016 0.0
C500 C 0.21039 0.67301 0.07233 0.0
O501 O 0.26106 0.69195 0.95362 0.0
O502 O 0.12442 0.81449 0.97376 0.0
C503 C 0.31475 0.69795 0.9653 0.0
O504 O 0.16278 0.89616 0.00813 0.0
O505 O 0.24535 0.88229 0.12549 0.0
O506 O 0.29541 0.80129 0.15051 0.0
C507 C 0.94844 0.57712 0.25035 0.0
C508 C 0.96967 0.41886 0.29859 0.0
C509 C 0.16194 0.49333 0.40788 0.0
Mg510 Mg 0.02811 0.48314 0.21054 0.0
O511 O 0.07139 0.5316 0.25751 0.0
Mg512 Mg 0.05047 0.53717 0.3419 0.0
Mg513 Mg 0.15218 0.5125 0.25934 0.0
O514 O 0.2295 0.49841 0.26417 0.0
Mg515 Mg 0.27412 0.52037 0.32742 0.0
Mg516 Mg 0.2544 0.51627 0.18445 0.0
C517 C 0.11733 0.51574 0.12258 0.0
C518 C 0.20363 0.39776 0.19371 0.0
O519 O 0.97778 0.58199 0.29776 0.0
O520 O 0.95772 0.54008 0.20991 0.0
O521 O 0.98062 0.45953 0.33538 0.0
O522 O 1.00171 0.41055 0.25475 0.0
O523 O 0.08127 0.47681 0.13616 0.0
O524 O 0.1538 0.53816 0.16011 0.0
C525 C 0.15849 0.63637 0.32491 0.0
O526 O 0.17401 0.60421 0.28337 0.0
O527 O 0.11286 0.62292 0.35348 0.0
O528 O 0.34871 0.48538 0.22524 0.0
O529 O 0.3074 0.43881 0.29492 0.0
O530 O 0.26978 0.6057 0.21627 0.0
C531 C 0.35339 0.45793 0.27347 0.0
O532 O 0.33318 0.58692 0.28369 0.0
O533 O 0.21497 0.51033 0.40646 0.0
C534 C 0.32198 0.60499 0.23196 0.0
O535 O 0.13436 0.48585 0.35998 0.0
O536 O 0.16254 0.41687 0.22739 0.0
O537 O 0.2369 0.42969 0.1651 0.0
C538 C 0.82087 0.47687 0.12194 0.0
C539 C 0.75912 0.45085 0.97522 0.0
C540 C 0.9053 0.66251 0.96692 0.0
Mg541 Mg 0.72723 0.5361 0.06816 0.0
O542 O 0.76173 0.57043 1.00462 0.0
Mg543 Mg 0.84867 0.55786 0.01646 0.0
Mg544 Mg 0.75903 0.65212 0.98384 0.0
O545 O 0.76492 0.7302 0.96632 0.0
Mg546 Mg 0.82888 0.77588 0.98529 0.0
Mg547 Mg 0.68806 0.76014 0.98146 0.0
C548 C 0.62922 0.63107 0.05275 0.0
C549 C 0.70077 0.68699 0.86084 0.0
O550 O 0.84674 0.48346 0.07489 0.0
O551 O 0.78137 0.51171 0.13852 0.0
O552 O 0.80222 0.48396 0.96115 0.0
O553 O 0.72604 0.46019 0.0185 0.0
O554 O 0.64975 0.58469 0.07494 0.0
O555 O 0.66025 0.66317 0.01726 0.0
C556 C 0.82485 0.67106 0.10267 0.0
O557 O 0.78078 0.67667 0.07176 0.0
O558 O 0.86154 0.63024 0.09169 0.0
O559 O 0.73125 0.85282 0.94883 0.0
O560 O 0.80219 0.81027 0.90347 0.0
O561 O 0.72639 0.78159 0.07002 0.0
C562 C 0.78065 0.85669 0.92355 0.0
O563 O 0.79665 0.84071 0.05273 0.0
O564 O 0.90438 0.71637 0.98191 0.0
C565 C 0.74566 0.83296 0.07177 0.0
O566 O 0.85782 0.63498 0.95773 0.0
O567 O 0.73069 0.64759 0.88725 0.0
O568 O 0.67514 0.72883 0.88795 0.0
C569 C 0.32085 0.97687 0.62195 0.0
C570 C 0.25911 0.95084 0.47522 0.0
C571 C 0.40531 0.1625 0.46693 0.0
Mg572 Mg 0.22722 0.0361 0.56816 0.0
O573 O 0.26172 0.07042 0.50461 0.0
Mg574 Mg 0.34866 0.05785 0.51646 0.0
Mg575 Mg 0.25903 0.15211 0.48384 0.0
O576 O 0.26492 0.23019 0.46632 0.0
Mg577 Mg 0.32888 0.27587 0.48529 0.0
Mg578 Mg 0.18806 0.26013 0.48145 0.0
C579 C 0.12922 0.13107 0.55274 0.0
C580 C 0.20078 0.18698 0.36083 0.0
O581 O 0.34672 0.98344 0.57489 0.0
O582 O 0.28136 1.01173 0.63852 0.0
O583 O 0.30222 0.98395 0.46115 0.0
O584 O 0.22603 0.96018 0.5185 0.0
O585 O 0.14975 0.08469 0.57494 0.0
O586 O 0.16024 0.16317 0.51726 0.0
C587 C 0.32484 0.17104 0.60267 0.0
O588 O 0.28077 0.17666 0.57176 0.0
O589 O 0.36154 0.13023 0.59169 0.0
O590 O 0.23125 0.35282 0.44882 0.0
O591 O 0.30219 0.31026 0.40347 0.0
O592 O 0.22639 0.28159 0.57001 0.0
C593 C 0.28065 0.35669 0.42355 0.0
O594 O 0.29665 0.34071 0.55272 0.0
O595 O 0.40438 0.21636 0.48191 0.0
C596 C 0.24566 0.33296 0.57177 0.0
O597 O 0.35782 0.13497 0.45773 0.0
O598 O 0.2307 0.14758 0.38724 0.0
O599 O 0.17515 0.22882 0.38794 0.0
C600 C 0.56022 0.61628 0.70123 0.0
C601 C 0.58482 0.45567 0.75998 0.0
C602 C 0.36715 0.48682 0.61805 0.0
Mg603 Mg 0.51673 0.55882 0.79854 0.0
O604 O 0.46839 0.50782 0.76171 0.0
Mg605 Mg 0.47734 0.52008 0.67526 0.0
Mg606 Mg 0.3856 0.50312 0.76596 0.0
O607 O 0.30749 0.49929 0.76412 0.0
Mg608 Mg 0.25938 0.51257 0.70161 0.0
Mg609 Mg 0.28244 0.50143 0.84468 0.0
C610 C 0.42743 0.54587 0.89998 0.0
C611 C 0.34168 0.38246 0.81831 0.0
O612 O 0.55512 0.56761 0.6777 0.0
O613 O 0.5313 0.63122 0.7456 0.0
O614 O 0.54641 0.44805 0.71831 0.0
O615 O 0.58636 0.50154 0.79131 0.0
O616 O 0.47575 0.56036 0.8788 0.0
O617 O 0.38404 0.52803 0.86742 0.0
C618 C 0.37694 0.62791 0.70362 0.0
O619 O 0.37122 0.59833 0.74894 0.0
O620 O 0.41325 0.60924 0.66489 0.0
O621 O 0.1894 0.47012 0.80147 0.0
O622 O 0.23677 0.42788 0.73178 0.0
O623 O 0.25901 0.59187 0.81942 0.0
C624 C 0.18876 0.44415 0.75164 0.0
O625 O 0.19716 0.57458 0.74873 0.0
O626 O 0.31512 0.50697 0.62046 0.0
C627 C 0.20713 0.59124 0.80156 0.0
O628 O 0.39382 0.47483 0.66563 0.0
O629 O 0.37949 0.40779 0.78704 0.0
O630 O 0.30645 0.40935 0.85121 0.0
C631 C 0.78277 0.5377 0.37579 0.0
C632 C 0.74845 0.58482 0.53405 0.0
C633 C 0.61925 0.36878 0.48614 0.0
Mg634 Mg 0.8313 0.49989 0.47762 0.0
O635 O 0.77222 0.45924 0.51117 0.0
Mg636 Mg 0.70217 0.46871 0.45771 0.0
Mg637 Mg 0.76467 0.37769 0.52894 0.0
O638 O 0.74854 0.3007 0.54231 0.0
Mg639 Mg 0.69776 0.25556 0.49777 0.0
Mg640 Mg 0.82312 0.27145 0.56544 0.0
C641 C 0.90816 0.40687 0.54083 0.0
C642 C 0.75986 0.34226 0.66161 0.0
O643 O 0.73669 0.53565 0.40385 0.0
O644 O 0.82491 0.50439 0.38682 0.0
O645 O 0.70692 0.5477 0.52522 0.0
O646 O 0.79918 0.5784 0.51334 0.0
O647 O 0.89978 0.45552 0.51641 0.0
O648 O 0.86677 0.36808 0.54725 0.0
C649 C 0.76871 0.35443 0.3942 0.0
O650 O 0.79456 0.34954 0.44136 0.0
O651 O 0.72855 0.3932 0.38967 0.0
O652 O 0.76511 0.18008 0.57913 0.0
O653 O 0.67939 0.21764 0.57971 0.0
O654 O 0.83253 0.24927 0.47016 0.0
C655 C 0.71039 0.17301 0.57233 0.0
O656 O 0.76106 0.19196 0.45361 0.0
O657 O 0.62442 0.3145 0.47377 0.0
C658 C 0.81475 0.19796 0.4653 0.0
O659 O 0.66277 0.39616 0.50814 0.0
O660 O 0.74536 0.38229 0.62549 0.0
O661 O 0.79542 0.30129 0.65051 0.0
C662 C 0.44841 0.07709 0.75041 0.0
C663 C 0.46975 0.91883 0.79864 0.0
C664 C 0.66193 0.99333 0.90788 0.0
Mg665 Mg 0.52811 0.98311 0.71061 0.0
O666 O 0.57137 0.03163 0.75753 0.0
Mg667 Mg 0.55047 0.03718 0.84193 0.0
Mg668 Mg 0.65216 1.01251 0.75935 0.0
O669 O 0.72949 0.99841 0.76417 0.0
Mg670 Mg 0.77411 0.02036 0.82742 0.0
Mg671 Mg 0.75438 0.01628 0.68445 0.0
C672 C 0.6173 0.01575 0.62259 0.0
C673 C 0.70362 0.89777 0.69371 0.0
O674 O 0.47778 0.08201 0.7978 0.0
O675 O 0.45765 0.03999 0.71002 0.0
O676 O 0.48058 0.95957 0.8354 0.0
O677 O 0.5019 0.91049 0.7549 0.0
O678 O 0.58118 0.97687 0.63617 0.0
O679 O 0.65377 0.03815 0.66012 0.0
C680 C 0.65849 0.13638 0.82492 0.0
O681 O 0.674 0.10422 0.78338 0.0
O682 O 0.61287 0.12293 0.8535 0.0
O683 O 0.84869 0.98539 0.72524 0.0
O684 O 0.80739 0.93882 0.79492 0.0
O685 O 0.76977 0.10571 0.71627 0.0
C686 C 0.85338 0.95793 0.77346 0.0
O687 O 0.83317 0.08693 0.78368 0.0
O688 O 0.71497 1.01032 0.90646 0.0
C689 C 0.82197 0.10499 0.73196 0.0
O690 O 0.63435 0.98585 0.85998 0.0
O691 O 0.66254 0.91687 0.72739 0.0
O692 O 0.73689 0.9297 0.66509 0.0
C693 C 0.43282 0.23974 0.93259 0.0
C694 C 0.57772 0.27061 0.95872 0.0
C695 C 0.5484 0.12324 0.15763 0.0
Mg696 Mg 0.47915 0.32561 0.01647 0.0
O697 O 0.4902 0.26824 0.06947 0.0
Mg698 Mg 0.49878 0.18522 0.04679 0.0
Mg699 Mg 0.52335 0.27064 0.14752 0.0
O700 O 0.54799 0.2653 0.2241 0.0
Mg701 Mg 0.53421 0.20163 0.27221 0.0
Mg702 Mg 0.53327 0.34339 0.25453 0.0
C703 C 0.47416 0.41436 0.12043 0.0
C704 C 0.64935 0.33125 0.17802 0.0
O705 O 0.44869 0.19928 0.9663 0.0
O706 O 0.43082 0.29316 0.94705 0.0
O707 O 0.56976 0.2213 0.98395 0.0
O708 O 0.55384 0.31814 0.97337 0.0
O709 O 0.46527 0.40043 0.06745 0.0
O710 O 0.49526 0.37594 0.15838 0.0
C711 C 0.4039 0.19421 0.15356 0.0
O712 O 0.43421 0.237 0.17146 0.0
O713 O 0.41844 0.16541 0.10754 0.0
O714 O 0.56974 0.30016 0.34743 0.0
O715 O 0.61624 0.22999 0.30454 0.0
O716 O 0.44674 0.30464 0.27709 0.0
C717 C 0.59729 0.25146 0.3514 0.0
O718 O 0.46935 0.2367 0.33812 0.0
O719 O 0.53838 0.1243 0.21258 0.0
C720 C 0.44832 0.28744 0.32923 0.0
O721 O 0.55184 0.17138 0.12945 0.0
O722 O 0.6213 0.30086 0.13945 0.0
O723 O 0.62394 0.35649 0.22099 0.0
loop_
_geom_bond_atom_site_label_1
_geom_bond_atom_site_label_2
_geom_bond_distance
_geom_bond_site_symmetry_2
_ccdc_geom_bond_type
Fe0 O2 1.918 . S
Fe0 O5 1.997 . S
Fe0 O6 2.002 . S
Fe0 O11 1.976 . S
Fe0 O14 1.996 . S
Fe1 O2 1.918 . S
Fe1 O9 1.997 . S
Fe1 O12 1.996 . S
Fe1 O16 1.976 . S
Fe1 O19 2.002 . S
O2 Fe0 1.918 . S
O2 Fe1 1.918 . S
O2 Fe3 1.918 . S
Fe3 O2 1.918 . S
Fe3 O4 2.002 . S
Fe3 O13 1.976 . S
Fe3 O17 1.996 . S
Fe3 O20 1.997 . S
O4 Fe3 2.002 . S
O4 C21 1.295 . S
O5 Fe0 1.997 . S
O5 C21 1.235 . S
O6 Fe0 2.002 . S
O6 C7 1.295 . S
C7 O6 1.295 . S
C7 O9 1.235 . S
C8 O13 1.287 . S
C8 O14 1.255 . S
O9 Fe1 1.997 . S
O9 C7 1.235 . S
C10 O16 1.287 . S
C10 O17 1.255 . S
O11 Fe0 1.976 . S
O11 C18 1.287 . S
O12 Fe1 1.996 . S
O12 C18 1.255 . S
O13 Fe3 1.976 . S
O13 C8 1.287 . S
O14 Fe0 1.996 . S
O14 C8 1.255 . S
C15 O19 1.295 . S
C15 O20 1.235 . S
O16 Fe1 1.976 . S
O16 C10 1.287 . S
O17 Fe3 1.996 . S
O17 C10 1.255 . S
C18 O11 1.287 . S
C18 O12 1.255 . S
O19 Fe1 2.002 . S
O19 C15 1.295 . S
O20 Fe3 1.997 . S
O20 C15 1.235 . S
C21 O4 1.295 . S
C21 O5 1.235 . S
Fe22 O24 1.918 . S
Fe22 O27 1.997 . S
Fe22 O28 2.002 . S
Fe22 O33 1.976 . S
Fe22 O36 1.996 . S
Fe23 O24 1.918 . S
Fe23 O31 1.997 . S
Fe23 O34 1.996 . S
Fe23 O38 1.976 1_554 S
Fe23 O41 2.002 . S
O24 Fe22 1.918 . S
O24 Fe23 1.918 . S
O24 Fe25 1.918 . S
Fe25 O24 1.918 . S
Fe25 O26 2.002 . S
Fe25 O35 1.976 . S
Fe25 O39 1.996 1_554 S
Fe25 O42 1.997 . S
O26 Fe25 2.002 . S
O26 C43 1.295 . S
O27 Fe22 1.997 . S
O27 C43 1.235 . S
O28 Fe22 2.002 . S
O28 C29 1.295 . S
C29 O28 1.295 . S
C29 O31 1.235 . S
C30 O35 1.287 . S
C30 O36 1.255 . S
O31 Fe23 1.997 . S
O31 C29 1.235 . S
C32 O38 1.287 . S
C32 O39 1.255 . S
O33 Fe22 1.976 . S
O33 C40 1.287 . S
O34 Fe23 1.996 . S
O34 C40 1.255 . S
O35 Fe25 1.976 . S
O35 C30 1.287 . S
O36 Fe22 1.996 . S
O36 C30 1.255 . S
C37 O41 1.295 . S
C37 O42 1.235 . S
O38 Fe23 1.976 1_556 S
O38 C32 1.287 . S
O39 Fe25 1.996 1_556 S
O39 C32 1.255 . S
C40 O33 1.287 . S
C40 O34 1.255 . S
O41 Fe23 2.002 . S
O41 C37 1.295 . S
O42 Fe25 1.997 . S
O42 C37 1.235 . S
C43 O26 1.295 . S
C43 O27 1.235 . S
Fe44 O46 1.918 . S
Fe44 O49 1.997 . S
Fe44 O50 2.002 . S
Fe44 O55 1.976 . S
Fe44 O58 1.996 . S
Fe45 O46 1.918 . S
Fe45 O53 1.997 . S
Fe45 O56 1.996 . S
Fe45 O60 1.976 . S
Fe45 O63 2.002 . S
O46 Fe44 1.918 . S
O46 Fe45 1.918 . S
O46 Fe47 1.918 . S
Fe47 O46 1.918 . S
Fe47 O48 2.002 . S
Fe47 O57 1.976 . S
Fe47 O61 1.996 . S
Fe47 O64 1.997 . S
O48 Fe47 2.002 . S
O48 C65 1.295 . S
O49 Fe44 1.997 . S
O49 C65 1.235 . S
O50 Fe44 2.002 . S
O50 C51 1.295 . S
C51 O50 1.295 . S
C51 O53 1.235 . S
C52 O57 1.287 . S
C52 O58 1.255 . S
O53 Fe45 1.997 . S
O53 C51 1.235 . S
C54 O60 1.287 . S
C54 O61 1.255 . S
O55 Fe44 1.976 . S
O55 C62 1.287 . S
O56 Fe45 1.996 . S
O56 C62 1.255 . S
O57 Fe47 1.976 . S
O57 C52 1.287 . S
O58 Fe44 1.996 . S
O58 C52 1.255 . S
C59 O63 1.295 . S
C59 O64 1.235 . S
O60 Fe45 1.976 . S
O60 C54 1.287 . S
O61 Fe47 1.996 . S
O61 C54 1.255 . S
C62 O55 1.287 . S
C62 O56 1.255 . S
O63 Fe45 2.002 . S
O63 C59 1.295 . S
O64 Fe47 1.997 . S
O64 C59 1.235 . S
C65 O48 1.295 . S
C65 O49 1.235 . S
Fe66 O68 1.918 . S
Fe66 O71 1.997 . S
Fe66 O72 2.002 . S
Fe66 O77 1.976 . S
Fe66 O80 1.996 1_565 S
Fe67 O68 1.918 . S
Fe67 O75 1.997 . S
Fe67 O78 1.996 . S
Fe67 O82 1.976 1_554 S
Fe67 O85 2.002 . S
O68 Fe66 1.918 . S
O68 Fe67 1.918 . S
O68 Fe69 1.918 . S
Fe69 O68 1.918 . S
Fe69 O70 2.002 . S
Fe69 O79 1.976 1_565 S
Fe69 O83 1.996 1_554 S
Fe69 O86 1.997 . S
O70 Fe69 2.002 . S
O70 C87 1.295 . S
O71 Fe66 1.997 . S
O71 C87 1.235 . S
O72 Fe66 2.002 . S
O72 C73 1.295 . S
C73 O72 1.295 . S
C73 O75 1.235 . S
C74 O79 1.287 . S
C74 O80 1.255 . S
O75 Fe67 1.997 . S
O75 C73 1.235 . S
C76 O82 1.287 . S
C76 O83 1.255 . S
O77 Fe66 1.976 . S
O77 C84 1.287 . S
O78 Fe67 1.996 . S
O78 C84 1.255 . S
O79 Fe69 1.976 1_545 S
O79 C74 1.287 . S
O80 Fe66 1.996 1_545 S
O80 C74 1.255 . S
C81 O85 1.295 . S
C81 O86 1.235 . S
O82 Fe67 1.976 1_556 S
O82 C76 1.287 . S
O83 Fe69 1.996 1_556 S
O83 C76 1.255 . S
C84 O77 1.287 . S
C84 O78 1.255 . S
O85 Fe67 2.002 . S
O85 C81 1.295 . S
O86 Fe69 1.997 . S
O86 C81 1.235 . S
C87 O70 1.295 . S
C87 O71 1.235 . S
Fe88 O90 1.918 . S
Fe88 O93 1.997 . S
Fe88 O94 2.002 . S
Fe88 O99 1.976 . S
Fe88 O102 1.996 . S
Fe89 O90 1.918 . S
Fe89 O97 1.997 . S
Fe89 O100 1.996 . S
Fe89 O104 1.976 . S
Fe89 O107 2.002 . S
O90 Fe88 1.918 . S
O90 Fe89 1.918 . S
O90 Fe91 1.918 . S
Fe91 O90 1.918 . S
Fe91 O92 2.002 . S
Fe91 O101 1.976 . S
Fe91 O105 1.996 . S
Fe91 O108 1.997 . S
O92 Fe91 2.002 . S
O92 C109 1.295 . S
O93 Fe88 1.997 . S
O93 C109 1.235 . S
O94 Fe88 2.002 . S
O94 C95 1.295 . S
C95 O94 1.295 . S
C95 O97 1.235 . S
C96 O101 1.287 . S
C96 O102 1.255 . S
O97 Fe89 1.997 . S
O97 C95 1.235 . S
C98 O104 1.287 . S
C98 O105 1.255 . S
O99 Fe88 1.976 . S
O99 C106 1.287 . S
O100 Fe89 1.996 . S
O100 C106 1.255 . S
O101 Fe91 1.976 . S
O101 C96 1.287 . S
O102 Fe88 1.996 . S
O102 C96 1.255 . S
C103 O107 1.295 . S
C103 O108 1.235 . S
O104 Fe89 1.976 . S
O104 C98 1.287 . S
O105 Fe91 1.996 . S
O105 C98 1.255 . S
C106 O99 1.287 . S
C106 O100 1.255 . S
O107 Fe89 2.002 . S
O107 C103 1.295 . S
O108 Fe91 1.997 . S
O108 C103 1.235 . S
C109 O92 1.295 . S
C109 O93 1.235 . S
Fe110 O112 1.918 . S
Fe110 O115 1.997 . S
Fe110 O116 2.002 . S
Fe110 O121 1.976 . S
Fe110 O124 1.996 1_556 S
Fe111 O112 1.918 . S
Fe111 O119 1.997 . S
Fe111 O122 1.996 . S
Fe111 O126 1.976 1_455 S
Fe111 O129 2.002 . S
O112 Fe110 1.918 . S
O112 Fe111 1.918 . S
O112 Fe113 1.918 . S
Fe113 O112 1.918 . S
Fe113 O114 2.002 . S
Fe113 O123 1.976 1_556 S
Fe113 O127 1.996 1_455 S
Fe113 O130 1.997 . S
O114 Fe113 2.002 . S
O114 C131 1.295 . S
O115 Fe110 1.997 . S
O115 C131 1.235 . S
O116 Fe110 2.002 . S
O116 C117 1.295 . S
C117 O116 1.295 . S
C117 O119 1.235 . S
C118 O123 1.287 . S
C118 O124 1.255 . S
O119 Fe111 1.997 . S
O119 C117 1.235 . S
C120 O126 1.287 . S
C120 O127 1.255 . S
O121 Fe110 1.976 . S
O121 C128 1.287 . S
O122 Fe111 1.996 . S
O122 C128 1.255 . S
O123 Fe113 1.976 1_554 S
O123 C118 1.287 . S
O124 Fe110 1.996 1_554 S
O124 C118 1.255 . S
C125 O129 1.295 . S
C125 O130 1.235 . S
O126 Fe111 1.976 1_655 S
O126 C120 1.287 . S
O127 Fe113 1.996 1_655 S
O127 C120 1.255 . S
C128 O121 1.287 . S
C128 O122 1.255 . S
O129 Fe111 2.002 . S
O129 C125 1.295 . S
O130 Fe113 1.997 . S
O130 C125 1.235 . S
C131 O114 1.295 . S
C131 O115 1.235 . S
Fe132 O134 1.918 . S
Fe132 O137 1.997 . S
Fe132 O138 2.002 . S
Fe132 O143 1.976 . S
Fe132 O146 1.996 . S
Fe133 O134 1.918 . S
Fe133 O141 1.997 . S
Fe133 O144 1.996 . S
Fe133 O148 1.976 . S
Fe133 O151 2.002 . S
O134 Fe132 1.918 . S
O134 Fe133 1.918 . S
O134 Fe135 1.918 . S
Fe135 O134 1.918 . S
Fe135 O136 2.002 . S
Fe135 O145 1.976 . S
Fe135 O149 1.996 . S
Fe135 O152 1.997 . S
O136 Fe135 2.002 . S
O136 C153 1.295 . S
O137 Fe132 1.997 . S
O137 C153 1.235 . S
O138 Fe132 2.002 . S
O138 C139 1.295 . S
C139 O138 1.295 . S
C139 O141 1.235 . S
C140 O145 1.287 . S
C140 O146 1.255 . S
O141 Fe133 1.997 . S
O141 C139 1.235 . S
C142 O148 1.287 . S
C142 O149 1.255 . S
O143 Fe132 1.976 . S
O143 C150 1.287 . S
O144 Fe133 1.996 . S
O144 C150 1.255 . S
O145 Fe135 1.976 . S
O145 C140 1.287 . S
O146 Fe132 1.996 . S
O146 C140 1.255 . S
C147 O151 1.295 . S
C147 O152 1.235 . S
O148 Fe133 1.976 . S
O148 C142 1.287 . S
O149 Fe135 1.996 . S
O149 C142 1.255 . S
C150 O143 1.287 . S
C150 O144 1.255 . S
O151 Fe133 2.002 . S
O151 C147 1.295 . S
O152 Fe135 1.997 . S
O152 C147 1.235 . S
C153 O136 1.295 . S
C153 O137 1.235 . S
Fe154 O156 1.918 . S
Fe154 O159 1.997 . S
Fe154 O160 2.002 . S
Fe154 O165 1.976 1_565 S
Fe154 O168 1.996 1_556 S
Fe155 O156 1.918 . S
Fe155 O163 1.997 . S
Fe155 O166 1.996 1_565 S
Fe155 O170 1.976 1_655 S
Fe155 O173 2.002 . S
O156 Fe154 1.918 . S
O156 Fe155 1.918 . S
O156 Fe157 1.918 . S
Fe157 O156 1.918 . S
Fe157 O158 2.002 . S
Fe157 O167 1.976 1_556 S
Fe157 O171 1.996 1_655 S
Fe157 O174 1.997 . S
O158 Fe157 2.002 . S
O158 C175 1.295 . S
O159 Fe154 1.997 . S
O159 C175 1.235 . S
O160 Fe154 2.002 . S
O160 C161 1.295 . S
C161 O160 1.295 . S
C161 O163 1.235 . S
C162 O167 1.287 . S
C162 O168 1.255 . S
O163 Fe155 1.997 . S
O163 C161 1.235 . S
C164 O170 1.287 . S
C164 O171 1.255 . S
O165 Fe154 1.976 1_545 S
O165 C172 1.287 . S
O166 Fe155 1.996 1_545 S
O166 C172 1.255 . S
O167 Fe157 1.976 1_554 S
O167 C162 1.287 . S
O168 Fe154 1.996 1_554 S
O168 C162 1.255 . S
C169 O173 1.295 . S
C169 O174 1.235 . S
O170 Fe155 1.976 1_455 S
O170 C164 1.287 . S
O171 Fe157 1.996 1_455 S
O171 C164 1.255 . S
C172 O165 1.287 . S
C172 O166 1.255 . S
O173 Fe155 2.002 . S
O173 C169 1.295 . S
O174 Fe157 1.997 . S
O174 C169 1.235 . S
C175 O158 1.295 . S
C175 O159 1.235 . S
Fe176 O178 1.918 . S
Fe176 O181 1.997 . S
Fe176 O182 2.002 . S
Fe176 O187 1.976 . S
Fe176 O190 1.996 . S
Fe177 O178 1.918 . S
Fe177 O185 1.997 . S
Fe177 O188 1.996 . S
Fe177 O192 1.976 . S
Fe177 O195 2.002 . S
O178 Fe176 1.918 . S
O178 Fe177 1.918 . S
O178 Fe179 1.918 . S
Fe179 O178 1.918 . S
Fe179 O180 2.002 . S
Fe179 O189 1.976 . S
Fe179 O193 1.996 . S
Fe179 O196 1.997 . S
O180 Fe179 2.002 . S
O180 C197 1.295 . S
O181 Fe176 1.997 . S
O181 C197 1.235 . S
O182 Fe176 2.002 . S
O182 C183 1.295 . S
C183 O182 1.295 . S
C183 O185 1.235 . S
C184 O189 1.287 . S
C184 O190 1.255 . S
O185 Fe177 1.997 . S
O185 C183 1.235 . S
C186 O192 1.287 . S
C186 O193 1.255 . S
O187 Fe176 1.976 . S
O187 C194 1.287 . S
O188 Fe177 1.996 . S
O188 C194 1.255 . S
O189 Fe179 1.976 . S
O189 C184 1.287 . S
O190 Fe176 1.996 . S
O190 C184 1.255 . S
C191 O195 1.295 . S
C191 O196 1.235 . S
O192 Fe177 1.976 . S
O192 C186 1.287 . S
O193 Fe179 1.996 . S
O193 C186 1.255 . S
C194 O187 1.287 . S
C194 O188 1.255 . S
O195 Fe177 2.002 . S
O195 C191 1.295 . S
O196 Fe179 1.997 . S
O196 C191 1.235 . S
C197 O180 1.295 . S
C197 O181 1.235 . S
Fe198 O200 1.918 . S
Fe198 O203 1.997 . S
Fe198 O204 2.002 . S
Fe198 O209 1.976 . S
Fe198 O212 1.996 . S
Fe199 O200 1.918 . S
Fe199 O207 1.997 . S
Fe199 O210 1.996 . S
Fe199 O214 1.976 . S
Fe199 O217 2.002 . S
O200 Fe198 1.918 . S
O200 Fe199 1.918 . S
O200 Fe201 1.918 . S
Fe201 O200 1.918 . S
Fe201 O202 2.002 . S
Fe201 O211 1.976 . S
Fe201 O215 1.996 . S
Fe201 O218 1.997 . S
O202 Fe201 2.002 . S
O202 C219 1.295 . S
O203 Fe198 1.997 . S
O203 C219 1.235 . S
O204 Fe198 2.002 . S
O204 C205 1.295 . S
C205 O204 1.295 . S
C205 O207 1.235 . S
C206 O211 1.287 . S
C206 O212 1.255 . S
O207 Fe199 1.997 . S
O207 C205 1.235 . S
C208 O214 1.287 . S
C208 O215 1.255 . S
O209 Fe198 1.976 . S
O209 C216 1.287 . S
O210 Fe199 1.996 . S
O210 C216 1.255 . S
O211 Fe201 1.976 . S
O211 C206 1.287 . S
O212 Fe198 1.996 . S
O212 C206 1.255 . S
C213 O217 1.295 . S
C213 O218 1.235 . S
O214 Fe199 1.976 . S
O214 C208 1.287 . S
O215 Fe201 1.996 . S
O215 C208 1.255 . S
C216 O209 1.287 . S
C216 O210 1.255 . S
O217 Fe199 2.002 . S
O217 C213 1.295 . S
O218 Fe201 1.997 . S
O218 C213 1.235 . S
C219 O202 1.295 . S
C219 O203 1.235 . S
Fe220 O222 1.918 . S
Fe220 O225 1.997 . S
Fe220 O226 2.002 . S
Fe220 O231 1.976 . S
Fe220 O234 1.996 1_455 S
Fe221 O222 1.918 . S
Fe221 O229 1.997 . S
Fe221 O232 1.996 . S
Fe221 O236 1.976 . S
Fe221 O239 2.002 . S
O222 Fe220 1.918 . S
O222 Fe221 1.918 . S
O222 Fe223 1.918 . S
Fe223 O222 1.918 . S
Fe223 O224 2.002 . S
Fe223 O233 1.976 1_455 S
Fe223 O237 1.996 . S
Fe223 O240 1.997 . S
O224 Fe223 2.002 . S
O224 C241 1.295 . S
O225 Fe220 1.997 . S
O225 C241 1.235 . S
O226 Fe220 2.002 . S
O226 C227 1.295 . S
C227 O226 1.295 . S
C227 O229 1.235 . S
C228 O233 1.287 . S
C228 O234 1.255 . S
O229 Fe221 1.997 . S
O229 C227 1.235 . S
C230 O236 1.287 . S
C230 O237 1.255 . S
O231 Fe220 1.976 . S
O231 C238 1.287 . S
O232 Fe221 1.996 . S
O232 C238 1.255 . S
O233 Fe223 1.976 1_655 S
O233 C228 1.287 . S
O234 Fe220 1.996 1_655 S
O234 C228 1.255 . S
C235 O239 1.295 . S
C235 O240 1.235 . S
O236 Fe221 1.976 . S
O236 C230 1.287 . S
O237 Fe223 1.996 . S
O237 C230 1.255 . S
C238 O231 1.287 . S
C238 O232 1.255 . S
O239 Fe221 2.002 . S
O239 C235 1.295 . S
O240 Fe223 1.997 . S
O240 C235 1.235 . S
C241 O224 1.295 . S
C241 O225 1.235 . S
Fe242 O244 1.918 . S
Fe242 O247 1.997 . S
Fe242 O248 2.002 . S
Fe242 O253 1.976 1_655 S
Fe242 O256 1.996 1_545 S
Fe243 O244 1.918 . S
Fe243 O251 1.997 . S
Fe243 O254 1.996 1_655 S
Fe243 O258 1.976 . S
Fe243 O261 2.002 . S
O244 Fe242 1.918 . S
O244 Fe243 1.918 . S
O244 Fe245 1.918 . S
Fe245 O244 1.918 . S
Fe245 O246 2.002 . S
Fe245 O255 1.976 1_545 S
Fe245 O259 1.996 . S
Fe245 O262 1.997 . S
O246 Fe245 2.002 . S
O246 C263 1.295 . S
O247 Fe242 1.997 . S
O247 C263 1.235 . S
O248 Fe242 2.002 . S
O248 C249 1.295 . S
C249 O248 1.295 . S
C249 O251 1.235 . S
C250 O255 1.287 . S
C250 O256 1.255 . S
O251 Fe243 1.997 . S
O251 C249 1.235 . S
C252 O258 1.287 . S
C252 O259 1.255 . S
O253 Fe242 1.976 1_455 S
O253 C260 1.287 . S
O254 Fe243 1.996 1_455 S
O254 C260 1.255 . S
O255 Fe245 1.976 1_565 S
O255 C250 1.287 . S
O256 Fe242 1.996 1_565 S
O256 C250 1.255 . S
C257 O261 1.295 . S
C257 O262 1.235 . S
O258 Fe243 1.976 . S
O258 C252 1.287 . S
O259 Fe245 1.996 . S
O259 C252 1.255 . S
C260 O253 1.287 . S
C260 O254 1.255 . S
O261 Fe243 2.002 . S
O261 C257 1.295 . S
O262 Fe245 1.997 . S
O262 C257 1.235 . S
C263 O246 1.295 . S
C263 O247 1.235 . S
Fe264 O266 1.918 . S
Fe264 O269 1.997 . S
Fe264 O270 2.002 . S
Fe264 O275 1.976 . S
Fe264 O278 1.996 . S
Fe265 O266 1.918 . S
Fe265 O273 1.997 . S
Fe265 O276 1.996 . S
Fe265 O280 1.976 . S
Fe265 O283 2.002 . S
O266 Fe264 1.918 . S
O266 Fe265 1.918 . S
O266 Fe267 1.918 . S
Fe267 O266 1.918 . S
Fe267 O268 2.002 . S
Fe267 O277 1.976 . S
Fe267 O281 1.996 . S
Fe267 O284 1.997 . S
O268 Fe267 2.002 . S
O268 C285 1.295 . S
O269 Fe264 1.997 . S
O269 C285 1.235 . S
O270 Fe264 2.002 . S
O270 C271 1.295 . S
C271 O270 1.295 . S
C271 O273 1.235 . S
C272 O277 1.287 . S
C272 O278 1.255 . S
O273 Fe265 1.997 . S
O273 C271 1.235 . S
C274 O280 1.287 . S
C274 O281 1.255 . S
O275 Fe264 1.976 . S
O275 C282 1.287 . S
O276 Fe265 1.996 . S
O276 C282 1.255 . S
O277 Fe267 1.976 . S
O277 C272 1.287 . S
O278 Fe264 1.996 . S
O278 C272 1.255 . S
C279 O283 1.295 . S
C279 O284 1.235 . S
O280 Fe265 1.976 . S
O280 C274 1.287 . S
O281 Fe267 1.996 . S
O281 C274 1.255 . S
C282 O275 1.287 . S
C282 O276 1.255 . S
O283 Fe265 2.002 . S
O283 C279 1.295 . S
O284 Fe267 1.997 . S
O284 C279 1.235 . S
C285 O268 1.295 . S
C285 O269 1.235 . S
Fe286 O288 1.918 . S
Fe286 O291 1.997 . S
Fe286 O292 2.002 . S
Fe286 O297 1.976 . S
Fe286 O300 1.996 . S
Fe287 O288 1.918 . S
Fe287 O295 1.997 . S
Fe287 O298 1.996 . S
Fe287 O302 1.976 . S
Fe287 O305 2.002 . S
O288 Fe286 1.918 . S
O288 Fe287 1.918 . S
O288 Fe289 1.918 . S
Fe289 O288 1.918 . S
Fe289 O290 2.002 . S
Fe289 O299 1.976 . S
Fe289 O303 1.996 . S
Fe289 O306 1.997 . S
O290 Fe289 2.002 . S
O290 C307 1.295 . S
O291 Fe286 1.997 . S
O291 C307 1.235 . S
O292 Fe286 2.002 . S
O292 C293 1.295 . S
C293 O292 1.295 . S
C293 O295 1.235 . S
C294 O299 1.287 . S
C294 O300 1.255 . S
O295 Fe287 1.997 . S
O295 C293 1.235 . S
C296 O302 1.287 . S
C296 O303 1.255 . S
O297 Fe286 1.976 . S
O297 C304 1.287 . S
O298 Fe287 1.996 . S
O298 C304 1.255 . S
O299 Fe289 1.976 . S
O299 C294 1.287 . S
O300 Fe286 1.996 . S
O300 C294 1.255 . S
C301 O305 1.295 . S
C301 O306 1.235 . S
O302 Fe287 1.976 . S
O302 C296 1.287 . S
O303 Fe289 1.996 . S
O303 C296 1.255 . S
C304 O297 1.287 . S
C304 O298 1.255 . S
O305 Fe287 2.002 . S
O305 C301 1.295 . S
O306 Fe289 1.997 . S
O306 C301 1.235 . S
C307 O290 1.295 . S
C307 O291 1.235 . S
Fe308 O310 1.918 . S
Fe308 O313 1.997 . S
Fe308 O314 2.002 . S
Fe308 O319 1.976 1_545 S
Fe308 O322 1.996 . S
Fe309 O310 1.918 . S
Fe309 O317 1.997 . S
Fe309 O320 1.996 1_545 S
Fe309 O324 1.976 . S
Fe309 O327 2.002 . S
O310 Fe308 1.918 . S
O310 Fe309 1.918 . S
O310 Fe311 1.918 . S
Fe311 O310 1.918 . S
Fe311 O312 2.002 . S
Fe311 O321 1.976 . S
Fe311 O325 1.996 . S
Fe311 O328 1.997 . S
O312 Fe311 2.002 . S
O312 C329 1.295 . S
O313 Fe308 1.997 . S
O313 C329 1.235 . S
O314 Fe308 2.002 . S
O314 C315 1.295 . S
C315 O314 1.295 . S
C315 O317 1.235 . S
C316 O321 1.287 . S
C316 O322 1.255 . S
O317 Fe309 1.997 . S
O317 C315 1.235 . S
C318 O324 1.287 . S
C318 O325 1.255 . S
O319 Fe308 1.976 1_565 S
O319 C326 1.287 . S
O320 Fe309 1.996 1_565 S
O320 C326 1.255 . S
O321 Fe311 1.976 . S
O321 C316 1.287 . S
O322 Fe308 1.996 . S
O322 C316 1.255 . S
C323 O327 1.295 . S
C323 O328 1.235 . S
O324 Fe309 1.976 . S
O324 C318 1.287 . S
O325 Fe311 1.996 . S
O325 C318 1.255 . S
C326 O319 1.287 . S
C326 O320 1.255 . S
O327 Fe309 2.002 . S
O327 C323 1.295 . S
O328 Fe311 1.997 . S
O328 C323 1.235 . S
C329 O312 1.295 . S
C329 O313 1.235 . S
Fe330 O332 1.918 . S
Fe330 O335 1.997 . S
Fe330 O336 2.002 . S
Fe330 O341 1.976 . S
Fe330 O344 1.996 . S
Fe331 O332 1.918 . S
Fe331 O339 1.997 . S
Fe331 O342 1.996 . S
Fe331 O346 1.976 . S
Fe331 O349 2.002 . S
O332 Fe330 1.918 . S
O332 Fe331 1.918 . S
O332 Fe333 1.918 . S
Fe333 O332 1.918 . S
Fe333 O334 2.002 . S
Fe333 O343 1.976 . S
Fe333 O347 1.996 . S
Fe333 O350 1.997 . S
O334 Fe333 2.002 . S
O334 C351 1.295 . S
O335 Fe330 1.997 . S
O335 C351 1.235 . S
O336 Fe330 2.002 . S
O336 C337 1.295 . S
C337 O336 1.295 . S
C337 O339 1.235 . S
C338 O343 1.287 . S
C338 O344 1.255 . S
O339 Fe331 1.997 . S
O339 C337 1.235 . S
C340 O346 1.287 . S
C340 O347 1.255 . S
O341 Fe330 1.976 . S
O341 C348 1.287 . S
O342 Fe331 1.996 . S
O342 C348 1.255 . S
O343 Fe333 1.976 . S
O343 C338 1.287 . S
O344 Fe330 1.996 . S
O344 C338 1.255 . S
C345 O349 1.295 . S
C345 O350 1.235 . S
O346 Fe331 1.976 . S
O346 C340 1.287 . S
O347 Fe333 1.996 . S
O347 C340 1.255 . S
C348 O341 1.287 . S
C348 O342 1.255 . S
O349 Fe331 2.002 . S
O349 C345 1.295 . S
O350 Fe333 1.997 . S
O350 C345 1.235 . S
C351 O334 1.295 . S
C351 O335 1.235 . S
C352 O364 1.241 . S
C352 O365 1.280 . S
C353 O366 1.277 . S
C353 O367 1.245 . S
C354 O378 1.247 1_455 S
C354 O380 1.289 . S
Mg355 O356 1.926 1_454 S
Mg355 O365 1.984 1_455 S
Mg355 O367 1.988 . S
Mg355 O368 2.061 1_554 S
O356 Mg355 1.926 1_656 S
O356 Mg357 1.986 . S
O356 Mg358 1.915 1_655 S
Mg357 O356 1.986 . S
Mg357 O364 2.042 1_556 S
Mg357 O366 2.041 1_656 S
Mg357 O372 2.038 . S
Mg357 O380 2.238 1_655 S
Mg358 O356 1.915 1_455 S
Mg358 O359 1.919 . S
Mg358 O369 2.106 1_455 S
Mg358 O371 2.068 1_455 S
Mg358 O380 2.107 . S
Mg358 O381 2.089 . S
O359 Mg358 1.919 . S
O359 Mg360 1.926 1_455 S
O359 Mg361 1.986 . S
Mg360 O359 1.926 1_655 S
Mg360 O374 1.984 1_655 S
Mg360 O377 1.988 . S
Mg360 O378 2.061 . S
Mg361 O359 1.986 . S
Mg361 O369 2.238 1_455 S
Mg361 O373 2.042 . S
Mg361 O375 2.041 1_455 S
Mg361 O382 2.038 . S
C362 O368 1.247 1_655 S
C362 O369 1.289 . S
C363 O381 1.245 . S
C363 O382 1.274 . S
O364 C352 1.241 . S
O364 Mg357 2.042 1_554 S
O365 C352 1.280 . S
O365 Mg355 1.984 1_655 S
O366 C353 1.277 . S
O366 Mg357 2.041 1_454 S
O367 C353 1.245 . S
O367 Mg355 1.988 . S
O368 Mg355 2.061 1_556 S
O368 C362 1.247 1_455 S
O369 Mg358 2.106 1_655 S
O369 Mg361 2.238 1_655 S
O369 C362 1.289 . S
C370 O371 1.245 . S
C370 O372 1.274 . S
O371 Mg358 2.068 1_655 S
O371 C370 1.245 . S
O372 Mg357 2.038 . S
O372 C370 1.274 . S
O373 Mg361 2.042 . S
O373 C376 1.241 . S
O374 Mg360 1.984 1_455 S
O374 C376 1.280 . S
O375 Mg361 2.041 1_655 S
O375 C379 1.277 . S
C376 O373 1.241 . S
C376 O374 1.280 . S
O377 Mg360 1.988 . S
O377 C379 1.245 . S
O378 C354 1.247 1_655 S
O378 Mg360 2.061 . S
C379 O375 1.277 . S
C379 O377 1.245 . S
O380 C354 1.289 . S
O380 Mg357 2.238 1_455 S
O380 Mg358 2.107 . S
O381 Mg358 2.089 . S
O381 C363 1.245 . S
O382 Mg361 2.038 . S
O382 C363 1.274 . S
C383 O395 1.241 . S
C383 O396 1.280 . S
C384 O397 1.277 . S
C384 O398 1.245 . S
C385 O409 1.247 . S
C385 O411 1.289 . S
Mg386 O387 1.926 . S
Mg386 O396 1.984 . S
Mg386 O398 1.988 . S
Mg386 O399 2.061 . S
O387 Mg386 1.926 . S
O387 Mg388 1.986 . S
O387 Mg389 1.917 . S
Mg388 O387 1.986 . S
Mg388 O395 2.042 . S
Mg388 O397 2.041 . S
Mg388 O403 2.038 . S
Mg388 O411 2.238 . S
Mg389 O387 1.917 . S
Mg389 O390 1.917 . S
Mg389 O400 2.106 . S
Mg389 O402 2.079 . S
Mg389 O411 2.106 . S
Mg389 O412 2.079 . S
O390 Mg389 1.917 . S
O390 Mg391 1.926 . S
O390 Mg392 1.986 . S
Mg391 O390 1.926 . S
Mg391 O405 1.984 . S
Mg391 O408 1.988 . S
Mg391 O409 2.061 . S
Mg392 O390 1.986 . S
Mg392 O400 2.238 . S
Mg392 O404 2.042 . S
Mg392 O406 2.041 . S
Mg392 O413 2.038 . S
C393 O399 1.247 . S
C393 O400 1.289 . S
C394 O412 1.245 . S
C394 O413 1.274 . S
O395 C383 1.241 . S
O395 Mg388 2.042 . S
O396 C383 1.280 . S
O396 Mg386 1.984 . S
O397 C384 1.277 . S
O397 Mg388 2.041 . S
O398 C384 1.245 . S
O398 Mg386 1.988 . S
O399 Mg386 2.061 . S
O399 C393 1.247 . S
O400 Mg389 2.106 . S
O400 Mg392 2.238 . S
O400 C393 1.289 . S
C401 O402 1.245 . S
C401 O403 1.274 . S
O402 Mg389 2.079 . S
O402 C401 1.245 . S
O403 Mg388 2.038 . S
O403 C401 1.274 . S
O404 Mg392 2.042 . S
O404 C407 1.241 . S
O405 Mg391 1.984 . S
O405 C407 1.280 . S
O406 Mg392 2.041 . S
O406 C410 1.277 . S
C407 O404 1.241 . S
C407 O405 1.280 . S
O408 Mg391 1.988 . S
O408 C410 1.245 . S
O409 C385 1.247 . S
O409 Mg391 2.061 . S
C410 O406 1.277 . S
C410 O408 1.245 . S
O411 C385 1.289 . S
O411 Mg388 2.238 . S
O411 Mg389 2.106 . S
O412 Mg389 2.079 . S
O412 C394 1.245 . S
O413 Mg392 2.038 . S
O413 C394 1.274 . S
C414 O426 1.241 . S
C414 O427 1.280 . S
C415 O428 1.277 . S
C415 O429 1.245 . S
C416 O440 1.247 . S
C416 O442 1.289 . S
Mg417 O418 1.926 1_455 S
Mg417 O427 1.984 1_455 S
Mg417 O429 1.988 . S
Mg417 O430 2.061 . S
O418 Mg417 1.926 1_655 S
O418 Mg419 1.986 . S
O418 Mg420 1.917 1_655 S
Mg419 O418 1.986 . S
Mg419 O426 2.042 . S
Mg419 O428 2.041 1_655 S
Mg419 O434 2.038 . S
Mg419 O442 2.238 1_655 S
Mg420 O418 1.917 1_455 S
Mg420 O421 1.917 . S
Mg420 O431 2.106 1_455 S
Mg420 O433 2.079 1_455 S
Mg420 O442 2.106 . S
Mg420 O443 2.079 . S
O421 Mg420 1.917 . S
O421 Mg422 1.926 1_455 S
O421 Mg423 1.986 . S
Mg422 O421 1.926 1_655 S
Mg422 O436 1.984 1_655 S
Mg422 O439 1.988 . S
Mg422 O440 2.061 1_655 S
Mg423 O421 1.986 . S
Mg423 O431 2.232 1_455 S
Mg423 O435 2.042 . S
Mg423 O437 2.041 1_455 S
Mg423 O444 2.038 . S
C424 O430 1.247 1_655 S
C424 O431 1.291 . S
C425 O443 1.245 . S
C425 O444 1.274 . S
O426 C414 1.241 . S
O426 Mg419 2.042 . S
O427 C414 1.280 . S
O427 Mg417 1.984 1_655 S
O428 C415 1.277 . S
O428 Mg419 2.041 1_455 S
O429 C415 1.245 . S
O429 Mg417 1.988 . S
O430 Mg417 2.061 . S
O430 C424 1.247 1_455 S
O431 Mg420 2.106 1_655 S
O431 Mg423 2.232 1_655 S
O431 C424 1.291 . S
C432 O433 1.245 . S
C432 O434 1.274 . S
O433 Mg420 2.079 1_655 S
O433 C432 1.245 . S
O434 Mg419 2.038 . S
O434 C432 1.274 . S
O435 Mg423 2.042 . S
O435 C438 1.241 . S
O436 Mg422 1.984 1_455 S
O436 C438 1.280 . S
O437 Mg423 2.041 1_655 S
O437 C441 1.277 . S
C438 O435 1.241 . S
C438 O436 1.280 . S
O439 Mg422 1.988 . S
O439 C441 1.245 . S
O440 C416 1.247 . S
O440 Mg422 2.061 1_455 S
C441 O437 1.277 . S
C441 O439 1.245 . S
O442 C416 1.289 . S
O442 Mg419 2.238 1_455 S
O442 Mg420 2.106 . S
O443 Mg420 2.079 . S
O443 C425 1.245 . S
O444 Mg423 2.038 . S
O444 C425 1.274 . S
C445 O457 1.241 . S
C445 O458 1.280 . S
C446 O459 1.277 . S
C446 O460 1.245 . S
C447 O471 1.247 1_565 S
C447 O473 1.289 . S
Mg448 O449 1.926 1_465 S
Mg448 O458 1.984 1_565 S
Mg448 O460 1.988 . S
Mg448 O461 2.058 1_465 S
O449 Mg448 1.926 1_645 S
O449 Mg450 1.986 . S
O449 Mg451 1.919 . S
Mg450 O449 1.986 . S
Mg450 O457 2.042 1_655 S
Mg450 O459 2.041 1_645 S
Mg450 O465 2.038 . S
Mg450 O473 2.238 1_545 S
Mg451 O449 1.919 . S
Mg451 O452 1.915 1_545 S
Mg451 O462 2.107 . S
Mg451 O464 2.089 . S
Mg451 O473 2.106 1_545 S
Mg451 O474 2.068 1_545 S
O452 Mg451 1.915 1_565 S
O452 Mg453 1.926 1_565 S
O452 Mg454 1.986 . S
Mg453 O452 1.926 1_545 S
Mg453 O467 1.984 1_545 S
Mg453 O470 1.988 . S
Mg453 O471 2.061 . S
Mg454 O452 1.986 . S
Mg454 O462 2.238 1_565 S
Mg454 O466 2.042 . S
Mg454 O468 2.041 1_565 S
Mg454 O475 2.038 . S
C455 O461 1.253 . S
C455 O462 1.289 . S
C456 O474 1.245 . S
C456 O475 1.274 . S
O457 C445 1.241 . S
O457 Mg450 2.042 1_455 S
O458 C445 1.280 . S
O458 Mg448 1.984 1_545 S
O459 C446 1.277 . S
O459 Mg450 2.041 1_465 S
O460 C446 1.245 . S
O460 Mg448 1.988 . S
O461 Mg448 2.058 1_645 S
O461 C455 1.253 . S
O462 Mg451 2.107 . S
O462 Mg454 2.238 1_545 S
O462 C455 1.289 . S
C463 O464 1.245 . S
C463 O465 1.274 . S
O464 Mg451 2.089 . S
O464 C463 1.245 . S
O465 Mg450 2.038 . S
O465 C463 1.274 . S
O466 Mg454 2.042 . S
O466 C469 1.241 . S
O467 Mg453 1.984 1_565 S
O467 C469 1.280 . S
O468 Mg454 2.041 1_545 S
O468 C472 1.277 . S
C469 O466 1.241 . S
C469 O467 1.280 . S
O470 Mg453 1.988 . S
O470 C472 1.245 . S
O471 C447 1.247 1_545 S
O471 Mg453 2.061 . S
C472 O468 1.277 . S
C472 O470 1.245 . S
O473 C447 1.289 . S
O473 Mg450 2.238 1_565 S
O473 Mg451 2.106 1_565 S
O474 Mg451 2.068 1_565 S
O474 C456 1.245 . S
O475 Mg454 2.038 . S
O475 C456 1.274 . S
C476 O488 1.241 . S
C476 O489 1.280 . S
C477 O490 1.277 . S
C477 O491 1.245 . S
C478 O502 1.247 . S
C478 O504 1.289 . S
Mg479 O480 1.926 1_544 S
Mg479 O489 1.984 1_554 S
Mg479 O491 1.988 . S
Mg479 O492 2.061 1_545 S
O480 Mg479 1.926 1_566 S
O480 Mg481 1.986 . S
O480 Mg482 1.917 1_556 S
Mg481 O480 1.986 . S
Mg481 O488 2.042 1_565 S
Mg481 O490 2.041 1_566 S
Mg481 O496 2.038 . S
Mg481 O504 2.238 . S
Mg482 O480 1.917 1_554 S
Mg482 O483 1.917 . S
Mg482 O493 2.106 . S
Mg482 O495 2.079 1_554 S
Mg482 O504 2.106 1_554 S
Mg482 O505 2.079 . S
O483 Mg482 1.917 . S
O483 Mg484 1.926 1_554 S
O483 Mg485 1.986 . S
Mg484 O483 1.926 1_556 S
Mg484 O498 1.984 1_556 S
Mg484 O501 1.988 . S
Mg484 O502 2.061 . S
Mg485 O483 1.986 . S
Mg485 O493 2.238 . S
Mg485 O497 2.042 . S
Mg485 O499 2.041 . S
Mg485 O506 2.038 . S
C486 O492 1.247 . S
C486 O493 1.289 . S
C487 O505 1.245 . S
C487 O506 1.274 . S
O488 C476 1.241 . S
O488 Mg481 2.042 1_545 S
O489 C476 1.280 . S
O489 Mg479 1.984 1_556 S
O490 C477 1.277 . S
O490 Mg481 2.041 1_544 S
O491 C477 1.245 . S
O491 Mg479 1.988 . S
O492 Mg479 2.061 1_565 S
O492 C486 1.247 . S
O493 Mg482 2.106 . S
O493 Mg485 2.238 . S
O493 C486 1.289 . S
C494 O495 1.245 . S
C494 O496 1.274 . S
O495 Mg482 2.079 1_556 S
O495 C494 1.245 . S
O496 Mg481 2.038 . S
O496 C494 1.274 . S
O497 Mg485 2.042 . S
O497 C500 1.241 . S
O498 Mg484 1.984 1_554 S
O498 C500 1.280 . S
O499 Mg485 2.041 . S
O499 C503 1.277 1_554 S
C500 O497 1.241 . S
C500 O498 1.280 . S
O501 Mg484 1.988 . S
O501 C503 1.245 . S
O502 C478 1.247 . S
O502 Mg484 2.061 . S
C503 O499 1.277 1_556 S
C503 O501 1.245 . S
O504 C478 1.289 . S
O504 Mg481 2.238 . S
O504 Mg482 2.106 1_556 S
O505 Mg482 2.079 . S
O505 C487 1.245 . S
O506 Mg485 2.038 . S
O506 C487 1.274 . S
C507 O519 1.241 . S
C507 O520 1.280 . S
C508 O521 1.277 . S
C508 O522 1.245 . S
C509 O533 1.247 . S
C509 O535 1.289 . S
Mg510 O511 1.926 1_655 S
Mg510 O520 1.984 . S
Mg510 O522 1.988 . S
Mg510 O523 2.061 1_655 S
O511 Mg510 1.926 1_455 S
O511 Mg512 1.986 . S
O511 Mg513 1.917 . S
Mg512 O511 1.986 . S
Mg512 O519 2.042 1_455 S
Mg512 O521 2.041 1_455 S
Mg512 O527 2.038 . S
Mg512 O535 2.238 . S
Mg513 O511 1.917 . S
Mg513 O514 1.917 . S
Mg513 O524 2.106 . S
Mg513 O526 2.079 . S
Mg513 O535 2.106 . S
Mg513 O536 2.079 . S
O514 Mg513 1.917 . S
O514 Mg515 1.926 . S
O514 Mg516 1.986 . S
Mg515 O514 1.926 . S
Mg515 O529 1.984 . S
Mg515 O532 1.988 . S
Mg515 O533 2.061 . S
Mg516 O514 1.986 . S
Mg516 O524 2.238 . S
Mg516 O528 2.042 . S
Mg516 O530 2.041 . S
Mg516 O537 2.038 . S
C517 O523 1.247 . S
C517 O524 1.289 . S
C518 O536 1.245 . S
C518 O537 1.274 . S
O519 C507 1.241 . S
O519 Mg512 2.042 1_655 S
O520 C507 1.280 . S
O520 Mg510 1.984 . S
O521 C508 1.277 . S
O521 Mg512 2.041 1_655 S
O522 C508 1.245 . S
O522 Mg510 1.988 . S
O523 Mg510 2.061 1_455 S
O523 C517 1.247 . S
O524 Mg513 2.106 . S
O524 Mg516 2.238 . S
O524 C517 1.289 . S
C525 O526 1.245 . S
C525 O527 1.274 . S
O526 Mg513 2.079 . S
O526 C525 1.245 . S
O527 Mg512 2.038 . S
O527 C525 1.274 . S
O528 Mg516 2.042 . S
O528 C531 1.241 . S
O529 Mg515 1.984 . S
O529 C531 1.280 . S
O530 Mg516 2.041 . S
O530 C534 1.277 . S
C531 O528 1.241 . S
C531 O529 1.280 . S
O532 Mg515 1.988 . S
O532 C534 1.245 . S
O533 C509 1.247 . S
O533 Mg515 2.061 . S
C534 O530 1.277 . S
C534 O532 1.245 . S
O535 C509 1.289 . S
O535 Mg512 2.238 . S
O535 Mg513 2.106 . S
O536 Mg513 2.079 . S
O536 C518 1.245 . S
O537 Mg516 2.038 . S
O537 C518 1.274 . S
C538 O550 1.241 . S
C538 O551 1.280 . S
C539 O552 1.277 . S
C539 O553 1.245 . S
C540 O564 1.247 1_556 S
C540 O566 1.289 . S
Mg541 O542 1.926 1_556 S
Mg541 O551 1.984 1_556 S
Mg541 O553 1.988 . S
Mg541 O554 2.061 . S
O542 Mg541 1.926 1_554 S
O542 Mg543 1.986 . S
O542 Mg544 1.917 . S
Mg543 O542 1.986 . S
Mg543 O550 2.042 . S
Mg543 O552 2.041 1_554 S
Mg543 O558 2.038 . S
Mg543 O566 2.238 1_554 S
Mg544 O542 1.917 . S
Mg544 O545 1.917 1_554 S
Mg544 O555 2.106 . S
Mg544 O557 2.079 . S
Mg544 O566 2.106 1_554 S
Mg544 O567 2.079 1_554 S
O545 Mg544 1.917 1_556 S
O545 Mg546 1.926 1_556 S
O545 Mg547 1.986 . S
Mg546 O545 1.926 1_554 S
Mg546 O560 1.984 1_554 S
Mg546 O563 1.988 . S
Mg546 O564 2.061 . S
Mg547 O545 1.986 . S
Mg547 O555 2.238 1_556 S
Mg547 O559 2.042 . S
Mg547 O561 2.041 1_556 S
Mg547 O568 2.038 . S
C548 O554 1.247 1_554 S
C548 O555 1.289 . S
C549 O567 1.245 . S
C549 O568 1.274 . S
O550 C538 1.241 . S
O550 Mg543 2.042 . S
O551 C538 1.280 . S
O551 Mg541 1.984 1_554 S
O552 C539 1.277 . S
O552 Mg543 2.041 1_556 S
O553 C539 1.245 . S
O553 Mg541 1.988 . S
O554 Mg541 2.061 . S
O554 C548 1.247 1_556 S
O555 Mg544 2.106 . S
O555 Mg547 2.238 1_554 S
O555 C548 1.289 . S
C556 O557 1.245 . S
C556 O558 1.274 . S
O557 Mg544 2.079 . S
O557 C556 1.245 . S
O558 Mg543 2.038 . S
O558 C556 1.274 . S
O559 Mg547 2.042 . S
O559 C562 1.241 . S
O560 Mg546 1.984 1_556 S
O560 C562 1.280 . S
O561 Mg547 2.041 1_554 S
O561 C565 1.277 . S
C562 O559 1.241 . S
C562 O560 1.280 . S
O563 Mg546 1.988 . S
O563 C565 1.245 . S
O564 C540 1.247 1_554 S
O564 Mg546 2.061 . S
C565 O561 1.277 . S
C565 O563 1.245 . S
O566 C540 1.289 . S
O566 Mg543 2.238 1_556 S
O566 Mg544 2.106 1_556 S
O567 Mg544 2.079 1_556 S
O567 C549 1.245 . S
O568 Mg547 2.038 . S
O568 C549 1.274 . S
C569 O581 1.241 . S
C569 O582 1.280 . S
C570 O583 1.277 . S
C570 O584 1.245 . S
C571 O595 1.247 . S
C571 O597 1.289 . S
Mg572 O573 1.926 1_565 S
Mg572 O582 1.984 . S
Mg572 O584 1.988 . S
Mg572 O585 2.061 1_565 S
O573 Mg572 1.926 1_545 S
O573 Mg574 1.986 . S
O573 Mg575 1.917 . S
Mg574 O573 1.986 . S
Mg574 O581 2.042 1_545 S
Mg574 O583 2.041 1_545 S
Mg574 O589 2.038 . S
Mg574 O597 2.238 . S
Mg575 O573 1.917 . S
Mg575 O576 1.917 . S
Mg575 O586 2.106 . S
Mg575 O588 2.079 . S
Mg575 O597 2.106 . S
Mg575 O598 2.079 . S
O576 Mg575 1.917 . S
O576 Mg577 1.926 . S
O576 Mg578 1.986 . S
Mg577 O576 1.926 . S
Mg577 O591 1.984 . S
Mg577 O594 1.988 . S
Mg577 O595 2.061 . S
Mg578 O576 1.986 . S
Mg578 O586 2.238 . S
Mg578 O590 2.042 . S
Mg578 O592 2.041 . S
Mg578 O599 2.038 . S
C579 O585 1.247 . S
C579 O586 1.289 . S
C580 O598 1.245 . S
C580 O599 1.274 . S
O581 C569 1.241 . S
O581 Mg574 2.042 1_565 S
O582 C569 1.280 . S
O582 Mg572 1.984 . S
O583 C570 1.277 . S
O583 Mg574 2.041 1_565 S
O584 C570 1.245 . S
O584 Mg572 1.988 . S
O585 Mg572 2.061 1_545 S
O585 C579 1.247 . S
O586 Mg575 2.106 . S
O586 Mg578 2.238 . S
O586 C579 1.289 . S
C587 O588 1.245 . S
C587 O589 1.274 . S
O588 Mg575 2.079 . S
O588 C587 1.245 . S
O589 Mg574 2.038 . S
O589 C587 1.274 . S
O590 Mg578 2.042 . S
O590 C593 1.241 . S
O591 Mg577 1.984 . S
O591 C593 1.280 . S
O592 Mg578 2.041 . S
O592 C596 1.277 . S
C593 O590 1.241 . S
C593 O591 1.280 . S
O594 Mg577 1.988 . S
O594 C596 1.245 . S
O595 C571 1.247 . S
O595 Mg577 2.061 . S
C596 O592 1.277 . S
C596 O594 1.245 . S
O597 C571 1.289 . S
O597 Mg574 2.238 . S
O597 Mg575 2.106 . S
O598 Mg575 2.079 . S
O598 C580 1.245 . S
O599 Mg578 2.038 . S
O599 C580 1.274 . S
C600 O612 1.241 . S
C600 O613 1.280 . S
C601 O614 1.277 . S
C601 O615 1.245 . S
C602 O626 1.247 . S
C602 O628 1.289 . S
Mg603 O604 1.926 . S
Mg603 O613 1.984 . S
Mg603 O615 1.988 . S
Mg603 O616 2.061 . S
O604 Mg603 1.926 . S
O604 Mg605 1.986 . S
O604 Mg606 1.917 . S
Mg605 O604 1.986 . S
Mg605 O612 2.042 . S
Mg605 O614 2.041 . S
Mg605 O620 2.038 . S
Mg605 O628 2.238 . S
Mg606 O604 1.917 . S
Mg606 O607 1.917 . S
Mg606 O617 2.106 . S
Mg606 O619 2.079 . S
Mg606 O628 2.106 . S
Mg606 O629 2.079 . S
O607 Mg606 1.917 . S
O607 Mg608 1.926 . S
O607 Mg609 1.986 . S
Mg608 O607 1.926 . S
Mg608 O622 1.984 . S
Mg608 O625 1.988 . S
Mg608 O626 2.061 . S
Mg609 O607 1.986 . S
Mg609 O617 2.238 . S
Mg609 O621 2.042 . S
Mg609 O623 2.041 . S
Mg609 O630 2.038 . S
C610 O616 1.247 . S
C610 O617 1.289 . S
C611 O629 1.245 . S
C611 O630 1.274 . S
O612 C600 1.241 . S
O612 Mg605 2.042 . S
O613 C600 1.280 . S
O613 Mg603 1.984 . S
O614 C601 1.277 . S
O614 Mg605 2.041 . S
O615 C601 1.245 . S
O615 Mg603 1.988 . S
O616 Mg603 2.061 . S
O616 C610 1.247 . S
O617 Mg606 2.106 . S
O617 Mg609 2.238 . S
O617 C610 1.289 . S
C618 O619 1.245 . S
C618 O620 1.274 . S
O619 Mg606 2.079 . S
O619 C618 1.245 . S
O620 Mg605 2.038 . S
O620 C618 1.274 . S
O621 Mg609 2.042 . S
O621 C624 1.241 . S
O622 Mg608 1.984 . S
O622 C624 1.280 . S
O623 Mg609 2.041 . S
O623 C627 1.277 . S
C624 O621 1.241 . S
C624 O622 1.280 . S
O625 Mg608 1.988 . S
O625 C627 1.245 . S
O626 C602 1.247 . S
O626 Mg608 2.061 . S
C627 O623 1.277 . S
C627 O625 1.245 . S
O628 C602 1.289 . S
O628 Mg605 2.238 . S
O628 Mg606 2.106 . S
O629 Mg606 2.079 . S
O629 C611 1.245 . S
O630 Mg609 2.038 . S
O630 C611 1.274 . S
C631 O643 1.241 . S
C631 O644 1.280 . S
C632 O645 1.277 . S
C632 O646 1.245 . S
C633 O657 1.247 . S
C633 O659 1.289 . S
Mg634 O635 1.926 . S
Mg634 O644 1.984 . S
Mg634 O646 1.988 . S
Mg634 O647 2.061 . S
O635 Mg634 1.926 . S
O635 Mg636 1.986 . S
O635 Mg637 1.917 . S
Mg636 O635 1.986 . S
Mg636 O643 2.042 . S
Mg636 O645 2.041 . S
Mg636 O651 2.038 . S
Mg636 O659 2.238 . S
Mg637 O635 1.917 . S
Mg637 O638 1.917 . S
Mg637 O648 2.106 . S
Mg637 O650 2.079 . S
Mg637 O659 2.106 . S
Mg637 O660 2.079 . S
O638 Mg637 1.917 . S
O638 Mg639 1.926 . S
O638 Mg640 1.986 . S
Mg639 O638 1.926 . S
Mg639 O653 1.984 . S
Mg639 O656 1.988 . S
Mg639 O657 2.061 . S
Mg640 O638 1.986 . S
Mg640 O648 2.238 . S
Mg640 O652 2.042 . S
Mg640 O654 2.041 . S
Mg640 O661 2.038 . S
C641 O647 1.247 . S
C641 O648 1.289 . S
C642 O660 1.245 . S
C642 O661 1.274 . S
O643 C631 1.241 . S
O643 Mg636 2.042 . S
O644 C631 1.280 . S
O644 Mg634 1.984 . S
O645 C632 1.277 . S
O645 Mg636 2.041 . S
O646 C632 1.245 . S
O646 Mg634 1.988 . S
O647 Mg634 2.061 . S
O647 C641 1.247 . S
O648 Mg637 2.106 . S
O648 Mg640 2.238 . S
O648 C641 1.289 . S
C649 O650 1.245 . S
C649 O651 1.274 . S
O650 Mg637 2.079 . S
O650 C649 1.245 . S
O651 Mg636 2.038 . S
O651 C649 1.274 . S
O652 Mg640 2.042 . S
O652 C655 1.241 . S
O653 Mg639 1.984 . S
O653 C655 1.280 . S
O654 Mg640 2.041 . S
O654 C658 1.277 . S
C655 O652 1.241 . S
C655 O653 1.280 . S
O656 Mg639 1.988 . S
O656 C658 1.245 . S
O657 C633 1.247 . S
O657 Mg639 2.061 . S
C658 O654 1.277 . S
C658 O656 1.245 . S
O659 C633 1.289 . S
O659 Mg636 2.238 . S
O659 Mg637 2.106 . S
O660 Mg637 2.079 . S
O660 C642 1.245 . S
O661 Mg640 2.038 . S
O661 C642 1.274 . S
C662 O674 1.241 . S
C662 O675 1.280 . S
C663 O676 1.277 . S
C663 O677 1.245 . S
C664 O688 1.247 1_565 S
C664 O690 1.289 . S
Mg665 O666 1.926 1_565 S
Mg665 O675 1.984 1_565 S
Mg665 O677 1.988 . S
Mg665 O678 2.061 1_565 S
O666 Mg665 1.926 1_545 S
O666 Mg667 1.986 . S
O666 Mg668 1.920 . S
Mg667 O666 1.986 . S
Mg667 O674 2.042 . S
Mg667 O676 2.041 1_545 S
Mg667 O682 2.038 . S
Mg667 O690 2.238 1_545 S
Mg668 O666 1.920 . S
Mg668 O669 1.914 1_545 S
Mg668 O679 2.108 . S
Mg668 O681 2.093 . S
Mg668 O690 2.105 1_545 S
Mg668 O691 2.065 1_545 S
O669 Mg668 1.914 1_565 S
O669 Mg670 1.926 1_565 S
O669 Mg671 1.986 . S
Mg670 O669 1.926 1_545 S
Mg670 O684 1.984 1_545 S
Mg670 O687 1.988 . S
Mg670 O688 2.062 . S
Mg671 O669 1.986 . S
Mg671 O679 2.238 1_565 S
Mg671 O683 2.042 . S
Mg671 O685 2.041 1_565 S
Mg671 O692 2.038 . S
C672 O678 1.247 . S
C672 O679 1.289 . S
C673 O691 1.245 . S
C673 O692 1.274 . S
O674 C662 1.241 . S
O674 Mg667 2.042 . S
O675 C662 1.280 . S
O675 Mg665 1.984 1_545 S
O676 C663 1.277 . S
O676 Mg667 2.041 1_565 S
O677 C663 1.245 . S
O677 Mg665 1.988 . S
O678 Mg665 2.061 1_545 S
O678 C672 1.247 . S
O679 Mg668 2.108 . S
O679 Mg671 2.238 1_545 S
O679 C672 1.289 . S
C680 O681 1.245 . S
C680 O682 1.274 . S
O681 Mg668 2.093 . S
O681 C680 1.245 . S
O682 Mg667 2.038 . S
O682 C680 1.274 . S
O683 Mg671 2.042 . S
O683 C686 1.241 . S
O684 Mg670 1.984 1_565 S
O684 C686 1.280 . S
O685 Mg671 2.041 1_545 S
O685 C689 1.277 . S
C686 O683 1.241 . S
C686 O684 1.280 . S
O687 Mg670 1.988 . S
O687 C689 1.245 . S
O688 C664 1.247 1_545 S
O688 Mg670 2.062 . S
C689 O685 1.277 . S
C689 O687 1.245 . S
O690 C664 1.289 . S
O690 Mg667 2.238 1_565 S
O690 Mg668 2.105 1_565 S
O691 Mg668 2.065 1_565 S
O691 C673 1.245 . S
O692 Mg671 2.038 . S
O692 C673 1.274 . S
C693 O705 1.241 . S
C693 O706 1.280 . S
C694 O707 1.277 . S
C694 O708 1.245 . S
C695 O719 1.247 . S
C695 O721 1.289 . S
Mg696 O697 1.938 . S
Mg696 O706 1.972 1_554 S
Mg696 O708 1.980 1_554 S
Mg696 O709 2.078 . S
O697 Mg696 1.938 . S
O697 Mg698 1.986 . S
O697 Mg699 1.917 . S
Mg698 O697 1.986 . S
Mg698 O705 2.042 1_554 S
Mg698 O707 2.041 1_554 S
Mg698 O713 2.038 . S
Mg698 O721 2.238 . S
Mg699 O697 1.917 . S
Mg699 O700 1.917 . S
Mg699 O710 2.106 . S
Mg699 O712 2.079 . S
Mg699 O721 2.106 . S
Mg699 O722 2.079 . S
O700 Mg699 1.917 . S
O700 Mg701 1.926 . S
O700 Mg702 1.986 . S
Mg701 O700 1.926 . S
Mg701 O715 1.984 . S
Mg701 O718 1.988 . S
Mg701 O719 2.061 . S
Mg702 O700 1.986 . S
Mg702 O710 2.238 . S
Mg702 O714 2.042 . S
Mg702 O716 2.041 . S
Mg702 O723 2.038 . S
C703 O709 1.247 . S
C703 O710 1.289 . S
C704 O722 1.245 . S
C704 O723 1.274 . S
O705 C693 1.241 . S
O705 Mg698 2.042 1_556 S
O706 C693 1.280 . S
O706 Mg696 1.972 1_556 S
O707 C694 1.277 . S
O707 Mg698 2.041 1_556 S
O708 C694 1.245 . S
O708 Mg696 1.980 1_556 S
O709 Mg696 2.078 . S
O709 C703 1.247 . S
O710 Mg699 2.106 . S
O710 Mg702 2.238 . S
O710 C703 1.289 . S
C711 O712 1.245 . S
C711 O713 1.274 . S
O712 Mg699 2.079 . S
O712 C711 1.245 . S
O713 Mg698 2.038 . S
O713 C711 1.274 . S
O714 Mg702 2.042 . S
O714 C717 1.241 . S
O715 Mg701 1.984 . S
O715 C717 1.280 . S
O716 Mg702 2.041 . S
O716 C720 1.277 . S
C717 O714 1.241 . S
C717 O715 1.280 . S
O718 Mg701 1.988 . S
O718 C720 1.245 . S
O719 C695 1.247 . S
O719 Mg701 2.061 . S
C720 O716 1.277 . S
C720 O718 1.245 . S
O721 C695 1.289 . S
O721 Mg698 2.238 . S
O721 Mg699 2.106 . S
O722 Mg699 2.079 . S
O722 C704 1.245 . S
O723 Mg702 2.038 . S
O723 C704 1.274 . S
C376 C241 1.819 . S
C384 C272 1.338 . S
C379 C249 1.947 . S
C206 C383 1.596 . S
C438 C125 2.287 . S
C142 C414 1.211 . S
C441 C169 1.706 . S
C103 C415 1.810 . S
C315 C472 2.391 . S
C338 C476 1.780 . S
C531 C183 1.910 . S
C539 C293 1.903 . S
C469 C87 1.972 . S
C477 C21 1.941 . S
C43 C534 2.157 . S
C65 C538 1.707 . S
C37 C503 1.877 1_554 S
C593 C197 2.114 . S
C307 C601 1.723 . S
C655 C329 1.995 . S
C150 C507 1.359 . S
C596 C227 1.891 . S
C600 C274 1.674 . S
C663 C208 1.479 . S
C73 C407 1.809 . S
C7 C353 1.384 . S
C410 C29 1.931 . S
C51 C352 1.644 . S
C323 C717 2.289 . S
C340 C693 1.197 . S
C720 C191 1.709 . S
C301 C694 1.793 . S
C117 C627 2.380 . S
C631 C140 1.805 . S
C686 C161 1.904 . S
C570 C95 1.900 . S
C624 C235 1.967 . S
C282 C632 1.893 . S
C263 C689 2.155 . S
C569 C216 1.646 . S
C257 C658 1.878 . S
C562 C175 2.119 . S
C109 C446 1.705 . S
C131 C500 1.985 1_556 S
C348 C662 1.372 . S
C81 C565 1.898 . S
C15 C445 1.720 . S
C508 C59 1.521 . S
C363 C351 2.116 . S
C393 C194 2.308 . S
C370 C304 2.403 . S
C385 C326 2.653 . S
C425 C205 2.068 . S
C230 C416 2.710 . S
C271 C432 2.569 . S
C250 C424 2.549 . S
C463 C62 2.112 . S
C486 C84 1.910 . S
C18 C518 1.594 . S
C548 C40 2.263 . S
C147 C456 1.693 . S
C478 C164 2.146 . S
C525 C98 2.099 . S
C120 C540 2.370 . S
C487 C96 2.109 . S
C10 C580 2.031 . S
C32 C610 2.025 . S
C54 C649 2.337 . S
C509 C238 2.497 . S
C587 C337 2.363 . S
C184 C602 2.554 . S
C672 C316 1.764 . S
C394 C153 2.105 . S
C172 C362 2.299 . S
C106 C401 2.389 . S
C128 C354 2.637 . S
C704 C52 2.021 . S
C695 C74 2.711 . S
C8 C711 2.519 . S
C30 C703 2.551 . S
C219 C618 2.146 . S
C641 C228 1.886 . S
C673 C285 1.630 . S
C260 C579 2.246 . S
C611 C345 1.689 . S
C186 C633 2.176 . S
C680 C296 2.091 . S
C318 C571 2.396 . S
C294 C642 2.105 . S
C279 C549 2.082 . S
C455 C252 2.036 . S
C213 C494 2.381 . S
C76 C664 2.482 . S
C139 C556 2.371 . S
C447 C162 2.530 . S
C118 C517 1.739 . S
