# Generated by pormake.
# Topology cor, (4,6)-cn, num edge types: 1
# Building blocks:
#     Node 0, Type 0, BuildingBlock: NAHDIM_clean_sbu_0, # of connection points: 4
#     Node 1, Type 0, BuildingBlock: NAHDIM_clean_sbu_0, # of connection points: 4
#     Node 2, Type 0, BuildingBlock: NAHDIM_clean_sbu_0, # of connection points: 4
#     Node 3, Type 0, BuildingBlock: NAHDIM_clean_sbu_0, # of connection points: 4
#     Node 4, Type 0, BuildingBlock: NAHDIM_clean_sbu_0, # of connection points: 4
#     Node 5, Type 0, BuildingBlock: NAHDIM_clean_sbu_0, # of connection points: 4
#     Node 6, Type 0, BuildingBlock: NAHDIM_clean_sbu_0, # of connection points: 4
#     Node 7, Type 0, BuildingBlock: NAHDIM_clean_sbu_0, # of connection points: 4
#     Node 8, Type 0, BuildingBlock: NAHDIM_clean_sbu_0, # of connection points: 4
#     Node 9, Type 0, BuildingBlock: NAHDIM_clean_sbu_0, # of connection points: 4
#     Node 10, Type 0, BuildingBlock: NAHDIM_clean_sbu_0, # of connection points: 4
#     Node 11, Type 0, BuildingBlock: NAHDIM_clean_sbu_0, # of connection points: 4
#     Node 12, Type 0, BuildingBlock: NAHDIM_clean_sbu_0, # of connection points: 4
#     Node 13, Type 0, BuildingBlock: NAHDIM_clean_sbu_0, # of connection points: 4
#     Node 14, Type 0, BuildingBlock: NAHDIM_clean_sbu_0, # of connection points: 4
#     Node 15, Type 0, BuildingBlock: NAHDIM_clean_sbu_0, # of connection points: 4
#     Node 16, Type 0, BuildingBlock: NAHDIM_clean_sbu_0, # of connection points: 4
#     Node 17, Type 0, BuildingBlock: NAHDIM_clean_sbu_0, # of connection points: 4
#     Node 18, Type 1, BuildingBlock: MIDCAF_clean_sbu_0, # of connection points: 6
#     Node 19, Type 1, BuildingBlock: MIDCAF_clean_sbu_0, # of connection points: 6
#     Node 20, Type 1, BuildingBlock: MIDCAF_clean_sbu_0, # of connection points: 6
#     Node 21, Type 1, BuildingBlock: MIDCAF_clean_sbu_0, # of connection points: 6
#     Node 22, Type 1, BuildingBlock: MIDCAF_clean_sbu_0, # of connection points: 6
#     Node 23, Type 1, BuildingBlock: MIDCAF_clean_sbu_0, # of connection points: 6
#     Node 24, Type 1, BuildingBlock: MIDCAF_clean_sbu_0, # of connection points: 6
#     Node 25, Type 1, BuildingBlock: MIDCAF_clean_sbu_0, # of connection points: 6
#     Node 26, Type 1, BuildingBlock: MIDCAF_clean_sbu_0, # of connection points: 6
#     Node 27, Type 1, BuildingBlock: MIDCAF_clean_sbu_0, # of connection points: 6
#     Node 28, Type 1, BuildingBlock: MIDCAF_clean_sbu_0, # of connection points: 6
#     Node 29, Type 1, BuildingBlock: MIDCAF_clean_sbu_0, # of connection points: 6
#     Edge 30, Type (0, 1), BuildingBlock: EZIPEK_clean_linker_0, # of connection points: 2
#     Edge 31, Type (0, 1), BuildingBlock: EZIPEK_clean_linker_0, # of connection points: 2
#     Edge 32, Type (0, 1), BuildingBlock: EZIPEK_clean_linker_0, # of connection points: 2
#     Edge 33, Type (0, 1), BuildingBlock: EZIPEK_clean_linker_0, # of connection points: 2
#     Edge 34, Type (0, 1), BuildingBlock: EZIPEK_clean_linker_0, # of connection points: 2
#     Edge 35, Type (0, 1), BuildingBlock: EZIPEK_clean_linker_0, # of connection points: 2
#     Edge 36, Type (0, 1), BuildingBlock: EZIPEK_clean_linker_0, # of connection points: 2
#     Edge 37, Type (0, 1), BuildingBlock: EZIPEK_clean_linker_0, # of connection points: 2
#     Edge 38, Type (0, 1), BuildingBlock: EZIPEK_clean_linker_0, # of connection points: 2
#     Edge 39, Type (0, 1), BuildingBlock: EZIPEK_clean_linker_0, # of connection points: 2
#     Edge 40, Type (0, 1), BuildingBlock: EZIPEK_clean_linker_0, # of connection points: 2
#     Edge 41, Type (0, 1), BuildingBlock: EZIPEK_clean_linker_0, # of connection points: 2
#     Edge 42, Type (0, 1), BuildingBlock: EZIPEK_clean_linker_0, # of connection points: 2
#     Edge 43, Type (0, 1), BuildingBlock: EZIPEK_clean_linker_0, # of connection points: 2
#     Edge 44, Type (0, 1), BuildingBlock: EZIPEK_clean_linker_0, # of connection points: 2
#     Edge 45, Type (0, 1), BuildingBlock: EZIPEK_clean_linker_0, # of connection points: 2
#     Edge 46, Type (0, 1), BuildingBlock: EZIPEK_clean_linker_0, # of connection points: 2
#     Edge 47, Type (0, 1), BuildingBlock: EZIPEK_clean_linker_0, # of connection points: 2
#     Edge 48, Type (0, 1), BuildingBlock: EZIPEK_clean_linker_0, # of connection points: 2
#     Edge 49, Type (0, 1), BuildingBlock: EZIPEK_clean_linker_0, # of connection points: 2
#     Edge 50, Type (0, 1), BuildingBlock: EZIPEK_clean_linker_0, # of connection points: 2
#     Edge 51, Type (0, 1), BuildingBlock: EZIPEK_clean_linker_0, # of connection points: 2
#     Edge 52, Type (0, 1), BuildingBlock: EZIPEK_clean_linker_0, # of connection points: 2
#     Edge 53, Type (0, 1), BuildingBlock: EZIPEK_clean_linker_0, # of connection points: 2
#     Edge 54, Type (0, 1), BuildingBlock: EZIPEK_clean_linker_0, # of connection points: 2
#     Edge 55, Type (0, 1), BuildingBlock: EZIPEK_clean_linker_0, # of connection points: 2
#     Edge 56, Type (0, 1), BuildingBlock: EZIPEK_clean_linker_0, # of connection points: 2
#     Edge 57, Type (0, 1), BuildingBlock: EZIPEK_clean_linker_0, # of connection points: 2
#     Edge 58, Type (0, 1), BuildingBlock: EZIPEK_clean_linker_0, # of connection points: 2
#     Edge 59, Type (0, 1), BuildingBlock: EZIPEK_clean_linker_0, # of connection points: 2
#     Edge 60, Type (0, 1), BuildingBlock: EZIPEK_clean_linker_0, # of connection points: 2
#     Edge 61, Type (0, 1), BuildingBlock: EZIPEK_clean_linker_0, # of connection points: 2
#     Edge 62, Type (0, 1), BuildingBlock: EZIPEK_clean_linker_0, # of connection points: 2
#     Edge 63, Type (0, 1), BuildingBlock: EZIPEK_clean_linker_0, # of connection points: 2
#     Edge 64, Type (0, 1), BuildingBlock: EZIPEK_clean_linker_0, # of connection points: 2
#     Edge 65, Type (0, 1), BuildingBlock: EZIPEK_clean_linker_0, # of connection points: 2
#     Edge 66, Type (0, 1), BuildingBlock: EZIPEK_clean_linker_0, # of connection points: 2
#     Edge 67, Type (0, 1), BuildingBlock: EZIPEK_clean_linker_0, # of connection points: 2
#     Edge 68, Type (0, 1), BuildingBlock: EZIPEK_clean_linker_0, # of connection points: 2
#     Edge 69, Type (0, 1), BuildingBlock: EZIPEK_clean_linker_0, # of connection points: 2
#     Edge 70, Type (0, 1), BuildingBlock: EZIPEK_clean_linker_0, # of connection points: 2
#     Edge 71, Type (0, 1), BuildingBlock: EZIPEK_clean_linker_0, # of connection points: 2
#     Edge 72, Type (0, 1), BuildingBlock: EZIPEK_clean_linker_0, # of connection points: 2
#     Edge 73, Type (0, 1), BuildingBlock: EZIPEK_clean_linker_0, # of connection points: 2
#     Edge 74, Type (0, 1), BuildingBlock: EZIPEK_clean_linker_0, # of connection points: 2
#     Edge 75, Type (0, 1), BuildingBlock: EZIPEK_clean_linker_0, # of connection points: 2
#     Edge 76, Type (0, 1), BuildingBlock: EZIPEK_clean_linker_0, # of connection points: 2
#     Edge 77, Type (0, 1), BuildingBlock: EZIPEK_clean_linker_0, # of connection points: 2
#     Edge 78, Type (0, 1), BuildingBlock: EZIPEK_clean_linker_0, # of connection points: 2
#     Edge 79, Type (0, 1), BuildingBlock: EZIPEK_clean_linker_0, # of connection points: 2
#     Edge 80, Type (0, 1), BuildingBlock: EZIPEK_clean_linker_0, # of connection points: 2
#     Edge 81, Type (0, 1), BuildingBlock: EZIPEK_clean_linker_0, # of connection points: 2
#     Edge 82, Type (0, 1), BuildingBlock: EZIPEK_clean_linker_0, # of connection points: 2
#     Edge 83, Type (0, 1), BuildingBlock: EZIPEK_clean_linker_0, # of connection points: 2
#     Edge 84, Type (0, 1), BuildingBlock: EZIPEK_clean_linker_0, # of connection points: 2
#     Edge 85, Type (0, 1), BuildingBlock: EZIPEK_clean_linker_0, # of connection points: 2
#     Edge 86, Type (0, 1), BuildingBlock: EZIPEK_clean_linker_0, # of connection points: 2
#     Edge 87, Type (0, 1), BuildingBlock: EZIPEK_clean_linker_0, # of connection points: 2
#     Edge 88, Type (0, 1), BuildingBlock: EZIPEK_clean_linker_0, # of connection points: 2
#     Edge 89, Type (0, 1), BuildingBlock: EZIPEK_clean_linker_0, # of connection points: 2
#     Edge 90, Type (0, 1), BuildingBlock: EZIPEK_clean_linker_0, # of connection points: 2
#     Edge 91, Type (0, 1), BuildingBlock: EZIPEK_clean_linker_0, # of connection points: 2
#     Edge 92, Type (0, 1), BuildingBlock: EZIPEK_clean_linker_0, # of connection points: 2
#     Edge 93, Type (0, 1), BuildingBlock: EZIPEK_clean_linker_0, # of connection points: 2
#     Edge 94, Type (0, 1), BuildingBlock: EZIPEK_clean_linker_0, # of connection points: 2
#     Edge 95, Type (0, 1), BuildingBlock: EZIPEK_clean_linker_0, # of connection points: 2
#     Edge 96, Type (0, 1), BuildingBlock: EZIPEK_clean_linker_0, # of connection points: 2
#     Edge 97, Type (0, 1), BuildingBlock: EZIPEK_clean_linker_0, # of connection points: 2
#     Edge 98, Type (0, 1), BuildingBlock: EZIPEK_clean_linker_0, # of connection points: 2
#     Edge 99, Type (0, 1), BuildingBlock: EZIPEK_clean_linker_0, # of connection points: 2
#     Edge 100, Type (0, 1), BuildingBlock: EZIPEK_clean_linker_0, # of connection points: 2
#     Edge 101, Type (0, 1), BuildingBlock: EZIPEK_clean_linker_0, # of connection points: 2
# Relax obj value: 0.159
# Max RMSD: 0.191
# Mean RMSD: 0.174
data_MOF--net-cor--node1-NAHDIM_clean_sbu_0--node2-MIDCAF_clean_sbu_0--edge1-EZIPEK_clean_linker_0
_symmetry_space_group_name_H-M    P1
_symmetry_Int_Tables_number       1
_symmetry_cell_setting            triclinic
loop_
_symmetry_equiv_pos_as_xyz
'x, y, z'
_cell_length_a     28.989389
_cell_length_b     28.662946
_cell_length_c     72.101064
_cell_angle_alpha  91.762803
_cell_angle_beta   89.121404
_cell_angle_gamma 121.30315
loop_
_atom_site_label
_atom_site_type_symbol
_atom_site_fract_x
_atom_site_fract_y
_atom_site_fract_z
_atom_type_partial_charge
C0 C 0.72265 0.11128 0.23891 0.0
O1 O 0.71484 0.07504 0.22582 0.0
O2 O 0.66051 0.9728 0.26534 0.0
Zn3 Zn 0.73448 0.037 0.26068 0.0
O4 O 0.76827 0.02236 0.23817 0.0
C5 C 0.78072 0.00893 0.28973 0.0
O6 O 0.7701 0.96908 0.27776 0.0
O7 O 0.73078 0.10366 0.25552 0.0
C8 C 0.81689 0.05469 0.23329 0.0
O9 O 0.84784 0.09805 0.24379 0.0
C10 C 0.64482 0.92404 0.26008 0.0
O11 O 0.67571 0.91434 0.24914 0.0
O12 O 0.77216 0.0461 0.28498 0.0
C13 C 0.10144 0.75171 0.26961 0.0
O14 O 0.05521 0.70908 0.27457 0.0
O15 O 0.97454 0.69498 0.24594 0.0
Zn16 Zn 0.02643 0.77197 0.25452 0.0
O17 O 0.0028 0.78104 0.2799 0.0
C18 C 0.01588 0.79904 0.21838 0.0
O19 O 0.01674 0.75405 0.21547 0.0
O20 O 0.10079 0.78624 0.25916 0.0
C21 C 0.02894 0.82694 0.28833 0.0
O22 O 0.06752 0.86861 0.27942 0.0
C23 C 0.92523 0.68131 0.24624 0.0
O24 O 0.91238 0.71619 0.25298 0.0
O25 O 0.02352 0.81966 0.23479 0.0
C26 C 0.36773 0.31029 0.24617 0.0
O27 O 0.36167 0.35109 0.24199 0.0
O28 O 0.27562 0.34372 0.26449 0.0
Zn29 Zn 0.26089 0.26858 0.25767 0.0
O30 O 0.2265 0.24313 0.23203 0.0
C31 C 0.22565 0.24083 0.29493 0.0
O32 O 0.26536 0.2914 0.29781 0.0
O33 O 0.33066 0.27081 0.25511 0.0
C34 C 0.24188 0.21773 0.22119 0.0
O35 O 0.27196 0.20072 0.22818 0.0
C36 C 0.23917 0.35578 0.2651 0.0
O37 O 0.18976 0.31912 0.25989 0.0
O38 O 0.21578 0.22014 0.27852 0.0
C39 C 0.26926 0.90355 0.76504 0.0
O40 O 0.3121 0.94954 0.7707 0.0
O41 O 0.32744 0.03509 0.74485 0.0
Zn42 Zn 0.25067 0.98292 0.75263 0.0
O43 O 0.23987 0.00239 0.77882 0.0
C44 C 0.22155 0.00618 0.71753 0.0
O45 O 0.26725 0.01039 0.71252 0.0
O46 O 0.23488 0.90591 0.75499 0.0
C47 C 0.19261 0.97623 0.78559 0.0
O48 O 0.15295 0.94024 0.77488 0.0
C49 C 0.34351 0.08563 0.74619 0.0
O50 O 0.31118 0.10059 0.75344 0.0
O51 O 0.20362 0.99164 0.73394 0.0
C52 C 0.89971 0.27543 0.75371 0.0
O53 O 0.94339 0.29751 0.74344 0.0
O54 O 0.02867 0.31843 0.77011 0.0
Zn55 Zn 0.96276 0.24265 0.77031 0.0
O56 O 0.95657 0.19719 0.74738 0.0
C57 C -0.00257 0.19463 0.7976 0.0
O58 O 0.02281 0.18897 0.7833 0.0
O59 O 0.8977 0.24985 0.76809 0.0
C60 C 0.98638 0.2169 0.73315 0.0
O61 O 0.02849 0.26677 0.73409 0.0
C62 C 0.07652 0.32758 0.77023 0.0
O63 O 0.08478 0.28688 0.76804 0.0
O64 O 0.96571 0.21218 0.79519 0.0
C65 C 0.63914 0.73231 0.78696 0.0
O66 O 0.6688 0.73293 0.80064 0.0
O67 O 0.71746 0.66844 0.76082 0.0
Zn68 Zn 0.7272 0.74269 0.76494 0.0
O69 O 0.7756 0.78334 0.787 0.0
C70 C 0.80663 0.80611 0.73657 0.0
O71 O 0.84162 0.815 0.74961 0.0
O72 O 0.65494 0.73461 0.77027 0.0
C73 C 0.78451 0.83039 0.79186 0.0
O74 O 0.76432 0.85303 0.7818 0.0
C75 C 0.75819 0.66393 0.75748 0.0
O76 O 0.807 0.70706 0.75899 0.0
O77 O 0.75649 0.77904 0.74029 0.0
C78 C 0.39282 0.43056 0.57499 0.0
O79 O 0.37425 0.38757 0.56378 0.0
O80 O 0.32941 0.3017 0.60284 0.0
Zn81 Zn 0.40567 0.35792 0.59636 0.0
O82 O 0.42537 0.33534 0.5721 0.0
C83 C 0.43144 0.34747 0.63412 0.0
O84 O 0.38152 0.33498 0.637 0.0
O85 O 0.4095 0.42902 0.59109 0.0
C86 C 0.47099 0.36687 0.56472 0.0
O87 O 0.50673 0.41078 0.57408 0.0
C88 C 0.31437 0.25141 0.60262 0.0
O89 O 0.34822 0.23636 0.59709 0.0
O90 O 0.45211 0.36125 0.61798 0.0
C91 C 0.74336 0.06041 0.60159 0.0
O92 O 0.69742 0.02146 0.60831 0.0
O93 O 0.60968 0.03053 0.58729 0.0
Zn94 Zn 0.67773 0.10328 0.59141 0.0
O95 O 0.67433 0.13797 0.61595 0.0
C96 C 0.68421 0.12784 0.55303 0.0
O97 O 0.69383 0.08795 0.55154 0.0
O98 O 0.74458 0.0989 0.5929 0.0
C99 C 0.66146 0.11115 0.63086 0.0
O100 O 0.64671 0.05943 0.63021 0.0
C101 C 0.60841 0.99101 0.57834 0.0
O102 O 0.65379 -0.00478 0.57284 0.0
O103 O 0.67979 0.14506 0.56908 0.0
C104 C 0.04459 0.6346 0.58452 0.0
O105 O 0.04589 0.68055 0.58214 0.0
O106 O 0.97254 0.68652 0.61024 0.0
Zn107 Zn 0.94587 0.61005 0.6009 0.0
O108 O 0.90428 0.59581 0.57719 0.0
C109 C 0.91018 0.58076 0.63816 0.0
O110 O 0.9524 0.62955 0.64154 0.0
O111 O 0.00567 0.59722 0.59357 0.0
C112 C 0.88665 0.54905 0.56957 0.0
O113 O 0.89384 0.51339 0.57807 0.0
C114 C 0.93722 0.69995 0.61197 0.0
O115 O 0.88763 0.66532 0.60637 0.0
O116 O 0.89967 0.56149 0.62157 0.0
C117 C 0.9552 0.27642 0.11534 0.0
O118 O 0.9738 0.31745 0.12743 0.0
O119 O 0.01604 0.41182 0.0901 0.0
Zn120 Zn 0.94031 0.35195 0.09562 0.0
O121 O 0.91704 0.36869 0.12025 0.0
C122 C 0.91488 0.36293 0.05802 0.0
O123 O 0.9662 0.38001 0.05563 0.0
O124 O 0.93926 0.28115 0.0995 0.0
C125 C 0.87778 0.32824 0.12816 0.0
O126 O 0.84715 0.28416 0.11795 0.0
C127 C 0.02987 0.46173 0.0916 0.0
O128 O -0.0051 0.47448 0.09787 0.0
O129 O 0.89344 0.34729 0.07396 0.0
C130 C 0.57161 0.59546 0.06904 0.0
O131 O 0.59264 0.57922 0.05602 0.0
O132 O 0.72256 0.68315 0.09271 0.0
Zn133 Zn 0.65977 0.60612 0.09088 0.0
O134 O 0.67014 0.56496 0.0696 0.0
C135 C 0.67181 0.60322 0.13061 0.0
O136 O 0.68395 0.65413 0.13015 0.0
O137 O 0.59246 0.60811 0.08523 0.0
C138 C 0.64645 0.51323 0.06962 0.0
O139 O 0.6191 0.48724 0.08439 0.0
C140 C 0.77044 0.69799 0.08781 0.0
O141 O 0.78037 0.66265 0.07954 0.0
O142 O 0.65753 0.57368 0.11577 0.0
C143 C 0.30933 0.07316 0.10283 0.0
O144 O 0.32838 0.05315 0.11453 0.0
O145 O 0.39419 0.02202 0.08381 0.0
Zn146 Zn 0.40609 0.09742 0.08439 0.0
O147 O 0.4528 0.14208 0.1063 0.0
C148 C 0.48998 0.14977 0.05624 0.0
O149 O 0.52213 0.16052 0.07045 0.0
O150 O 0.33469 0.09343 0.08783 0.0
C151 C 0.45236 0.1203 0.1215 0.0
O152 O 0.42467 0.06692 0.12276 0.0
C153 C 0.43526 0.01702 0.08332 0.0
O154 O 0.48334 0.06021 0.08633 0.0
O155 O 0.43937 0.12661 0.059 0.0
C156 C 0.06763 0.76817 0.91004 0.0
O157 O 0.05081 0.72473 0.89918 0.0
O158 O 0.01359 0.63863 0.93517 0.0
Zn159 Zn 0.08868 0.70188 0.93097 0.0
O160 O 0.12549 0.69669 0.90757 0.0
C161 C 0.15705 0.68597 0.95578 0.0
O162 O 0.16932 0.66862 0.9405 0.0
O163 O 0.08492 0.7688 0.92626 0.0
C164 C 0.10654 0.66066 0.89455 0.0
O165 O 0.05923 0.61601 0.89667 0.0
C166 C 0.00291 0.58996 0.93682 0.0
O167 O 0.04098 0.57892 0.9336 0.0
O168 O 0.12733 0.70635 0.95475 0.0
C169 C 0.4391 0.38999 0.93739 0.0
O170 O 0.39254 0.34438 0.93944 0.0
O171 O 0.3075 0.35277 0.92244 0.0
Zn172 Zn 0.37337 0.42881 0.92239 0.0
O173 O 0.37275 0.47672 0.94336 0.0
C174 C 0.33657 0.45345 0.88958 0.0
O175 O 0.29477 0.43839 0.90047 0.0
O176 O 0.44047 0.42916 0.92913 0.0
C177 C 0.34645 0.50002 0.94687 0.0
O178 O 0.30983 0.49534 0.93523 0.0
C179 C 0.26075 0.34112 0.92776 0.0
O180 O 0.25385 0.37906 0.93551 0.0
O181 O 0.37807 0.45552 0.89616 0.0
C182 C 0.71682 0.95703 0.92316 0.0
O183 O 0.72424 0.98792 0.93801 0.0
O184 O 0.62276 0.00634 0.92829 0.0
Zn185 Zn 0.60617 0.92958 0.9266 0.0
O186 O 0.54974 0.88927 0.90723 0.0
C187 C 0.54223 0.90085 0.95872 0.0
O188 O 0.51398 0.91033 0.94699 0.0
O189 O 0.66986 0.92782 0.91646 0.0
C190 C 0.53168 0.83934 0.90322 0.0
O191 O 0.54553 0.81152 0.91352 0.0
C192 C 0.59036 0.02006 0.92256 0.0
O193 O 0.54631 0.98431 0.91358 0.0
O194 O 0.58469 0.90268 0.95282 0.0
C195 C 0.61899 0.59052 0.42825 0.0
O196 O 0.65849 0.63954 0.43327 0.0
O197 O 0.65501 0.72097 0.41319 0.0
Zn198 Zn 0.58013 0.65409 0.41391 0.0
O199 O 0.53896 0.65306 0.43693 0.0
C200 C 0.56231 0.64759 0.37384 0.0
O201 O 0.60098 0.63661 0.37301 0.0
O202 O 0.58222 0.58616 0.41766 0.0
C203 C 0.55114 0.69122 0.44887 0.0
O204 O 0.59264 0.74026 0.44582 0.0
C205 C 0.6608 0.76452 0.40674 0.0
O206 O 0.61789 0.76624 0.40238 0.0
O207 O 0.54446 0.65284 0.38956 0.0
C208 C 0.23782 0.95416 0.4092 0.0
O209 O 0.26338 0.94728 0.39522 0.0
O210 O 0.38807 0.0237 0.43111 0.0
Zn211 Zn 0.31895 0.95037 0.43013 0.0
O212 O 0.31628 0.90013 0.40916 0.0
C213 C 0.33775 0.89675 0.46017 0.0
O214 O 0.3615 0.88419 0.44698 0.0
O215 O 0.25512 0.95885 0.42569 0.0
C216 C 0.34947 0.91349 0.39574 0.0
O217 O 0.39294 0.96255 0.39584 0.0
C218 C 0.43324 0.02726 0.43341 0.0
O219 O 0.43617 0.9831 0.43236 0.0
O220 O 0.31393 0.92177 0.45603 0.0
C221 C 0.97287 0.40084 0.44554 0.0
O222 O 0.00558 0.39873 0.45741 0.0
O223 O 0.04064 0.33262 0.41542 0.0
Zn224 Zn 0.05128 0.40636 0.42008 0.0
O225 O 0.10298 0.44205 0.44124 0.0
C226 C 0.12776 0.46895 0.39162 0.0
O227 O 0.16274 0.47484 0.40422 0.0
O228 O 0.98269 0.40245 0.42823 0.0
C229 C 0.12006 0.49116 0.44623 0.0
O230 O 0.10872 0.52103 0.43597 0.0
C231 C 0.08281 0.32962 0.41417 0.0
O232 O 0.13041 0.37325 0.4174 0.0
O233 O 0.07785 0.44386 0.39561 0.0
Zn234 Zn 0.00497 0.02915 0.10571 0.0
Zn235 Zn 0.00051 0.97047 0.18103 0.0
Zn236 Zn -0.00156 0.00738 0.14227 0.0
C237 C 0.9696 0.87949 0.15313 0.0
C238 C 0.10017 0.06814 0.17015 0.0
O239 O 0.96112 0.05649 0.14186 0.0
O240 O -0.01119 0.08618 0.11331 0.0
C241 C 0.93334 0.9208 0.10776 0.0
O242 O 0.98083 0.92901 0.15418 0.0
O243 O 0.98088 0.92811 0.15518 0.0
O244 O 0.0742 0.03559 0.18303 0.0
O245 O 0.08057 0.06094 0.1536 0.0
O246 O 0.94716 0.95732 0.09594 0.0
O247 O 0.95178 0.93367 0.12429 0.0
O248 O 0.08377 0.05199 0.13443 0.0
O249 O 0.08034 0.04602 0.10372 0.0
C250 C 0.10677 0.05709 0.1186 0.0
O251 O 0.94847 0.02977 0.15964 0.0
O252 O 0.94709 0.99215 0.18659 0.0
C253 C 0.96787 0.08849 0.12856 0.0
C254 C 0.93187 0.01731 0.17656 0.0
Zn255 Zn 0.98595 -0.00434 0.3406 0.0
Zn256 Zn 0.98238 0.009 0.40657 0.0
Zn257 Zn 0.98749 0.0053 0.37104 0.0
C258 C 0.03047 0.11528 0.39328 0.0
C259 C 0.87796 0.94067 0.3939 0.0
O260 O 0.01277 0.9464 0.36235 0.0
O261 O 0.95869 0.91717 0.33828 0.0
C262 C 0.07424 0.08968 0.34495 0.0
O263 O 0.03393 0.092 0.37825 0.0
O264 O 0.00481 0.08728 0.4071 0.0
O265 O 0.90507 0.95123 0.4086 0.0
O266 O 0.90135 0.96218 0.37847 0.0
O267 O 0.06278 0.0475 0.33537 0.0
O268 O 0.04506 0.08569 0.35918 0.0
O269 O 0.90503 0.98126 0.36081 0.0
O270 O 0.93688 0.01986 0.33398 0.0
C271 C 0.89898 2e-05 0.34558 0.0
O272 O 0.03 0.96614 0.38052 0.0
O273 O 0.04006 0.9922 0.41014 0.0
C274 C -0.01067 0.91135 0.34892 0.0
C275 C 0.05184 0.97175 0.39647 0.0
Zn276 Zn 0.01573 0.01301 0.91076 0.0
Zn277 Zn 0.03867 0.07123 0.82717 0.0
Zn278 Zn 0.02565 0.03285 0.876 0.0
C279 C 0.07048 0.1338 0.85865 0.0
C280 C 0.93142 0.98268 0.8439 0.0
O281 O 0.06152 0.98277 0.87873 0.0
O282 O 0.03016 0.95359 0.90691 0.0
C283 C 0.08844 0.12144 0.90961 0.0
O284 O 0.05837 0.12051 0.87542 0.0
O285 O 0.08281 0.10439 0.84933 0.0
O286 O 0.96137 0.01216 0.83085 0.0
O287 O 0.94811 0.98824 0.86083 0.0
O288 O 0.07314 0.08402 0.92117 0.0
O289 O 0.07025 0.11002 0.89286 0.0
O290 O 0.93857 0.99078 0.88066 0.0
O291 O 0.94069 -0.00358 0.91137 0.0
C292 C 0.91494 0.98587 0.89635 0.0
O293 O 0.07541 0.00689 0.8601 0.0
O294 O 0.0834 0.0368 0.83095 0.0
C295 C 0.05337 0.95121 0.89228 0.0
C296 C 0.09395 0.01293 0.84334 0.0
Zn297 Zn -0.00685 0.05284 0.6875 0.0
Zn298 Zn -0.00719 0.0024 0.61164 0.0
Zn299 Zn -0.00501 0.02051 0.64743 0.0
C300 C 0.96888 0.90793 0.63125 0.0
C301 C 0.09786 0.08462 0.62253 0.0
O302 O 0.97021 0.07394 0.66207 0.0
O303 O 0.97023 0.07474 0.66315 0.0
C304 C 0.92526 0.93618 0.67939 0.0
O305 O 0.96245 0.93231 0.64548 0.0
O306 O 0.98401 0.93139 0.6159 0.0
O307 O 0.06697 0.06631 0.60856 0.0
O308 O 0.0795 0.06705 0.63883 0.0
O309 O 0.93902 0.97527 0.69102 0.0
O310 O 0.94447 0.94388 0.66269 0.0
O311 O 0.07753 0.05361 0.65754 0.0
O312 O 0.06494 0.06016 0.68792 0.0
C313 C 0.09312 0.0588 0.67458 0.0
O314 O 0.94942 0.04715 0.63104 0.0
O315 O 0.92974 0.00562 0.60368 0.0
C316 C 0.95272 0.10683 0.66247 0.0
C317 C 0.92325 0.03427 0.61582 0.0
Zn318 Zn 0.65823 0.3417 0.51211 0.0
Zn319 Zn 0.67303 0.34685 0.4486 0.0
Zn320 Zn 0.66437 0.34851 0.48214 0.0
C321 C 0.7743 0.38571 0.46332 0.0
C322 C 0.6022 0.24141 0.4562 0.0
O323 O 0.60347 0.37 0.49121 0.0
O324 O 0.57985 0.31056 0.51312 0.0
C325 C 0.74723 0.43514 0.51095 0.0
O326 O 0.75152 0.39347 0.47756 0.0
O327 O 0.74713 0.36086 0.449 0.0
O328 O 0.61316 0.27208 0.4426 0.0
O329 O 0.62362 0.26204 0.4722 0.0
O330 O 0.70517 0.41758 0.52067 0.0
O331 O 0.74434 0.40976 0.49547 0.0
O332 O 0.6387 0.26347 0.49028 0.0
O333 O 0.68396 0.29189 0.51654 0.0
C334 C 0.6589 0.25433 0.50455 0.0
O335 O 0.62374 0.39027 0.47233 0.0
O336 O 0.66219 0.40792 0.44465 0.0
C337 C 0.56959 0.3407 0.50386 0.0
C338 C 0.63502 0.41551 0.45689 0.0
Zn339 Zn 0.6559 0.34285 0.74284 0.0
Zn340 Zn 0.66583 0.3397 0.67805 0.0
Zn341 Zn 0.66224 0.34039 0.70856 0.0
C342 C 0.57571 0.33678 0.68252 0.0
C343 C 0.75288 0.43155 0.68575 0.0
O344 O 0.70583 0.30139 0.71761 0.0
O345 O 0.71493 0.32889 0.74704 0.0
C346 C 0.55367 0.26675 0.72948 0.0
O347 O 0.5808 0.31386 0.69685 0.0
O348 O 0.61596 0.36435 0.67226 0.0
O349 O 0.74329 0.39205 0.67501 0.0
O350 O 0.72048 0.42401 0.69933 0.0
O351 O 0.5813 0.28068 0.74418 0.0
O352 O 0.5753 0.29077 0.71419 0.0
O353 O 0.70434 0.42738 0.71769 0.0
O354 O 0.67269 0.41862 0.7463 0.0
C355 C 0.69885 0.4486 0.73295 0.0
O356 O 0.68889 0.28332 0.69928 0.0
O357 O 0.6402 0.2621 0.67385 0.0
C358 C 0.72703 0.30758 0.73373 0.0
C359 C 0.66666 0.2517 0.68493 0.0
Zn360 Zn 0.66756 0.36659 0.23422 0.0
Zn361 Zn 0.68671 0.37627 0.1695 0.0
Zn362 Zn 0.67146 0.36668 0.20043 0.0
C363 C 0.68718 0.46587 0.17712 0.0
C364 C 0.58958 0.28397 0.17267 0.0
O365 O 0.70624 0.31893 0.20976 0.0
O366 O 0.67124 0.30056 0.23794 0.0
C367 C 0.74594 0.47039 0.22491 0.0
O368 O 0.69903 0.45276 0.19255 0.0
O369 O 0.67126 0.43265 0.16352 0.0
O370 O 0.63122 0.30117 0.16277 0.0
O371 O 0.59173 0.30948 0.18797 0.0
O372 O 0.73316 0.43851 0.23826 0.0
O373 O 0.72036 0.4529 0.20937 0.0
O374 O 0.58485 0.3242 0.20677 0.0
O375 O 0.59646 0.35934 0.23525 0.0
C376 C 0.56572 0.33356 0.2217 0.0
O377 O 0.72752 0.33922 0.19244 0.0
O378 O 0.76171 0.39363 0.16872 0.0
C379 C 0.69509 0.2918 0.22476 0.0
C380 C 0.76361 0.36125 0.17969 0.0
Zn381 Zn 0.67902 0.28346 0.02628 0.0
Zn382 Zn 0.6832 0.34417 0.94293 0.0
Zn383 Zn 0.68297 0.33145 0.97626 0.0
C384 C 0.64647 0.23923 0.94281 0.0
C385 C 0.78861 0.41444 0.95513 0.0
O386 O 0.65175 0.3672 0.99614 0.0
O387 O 0.65984 0.34303 0.02502 0.0
C388 C 0.6266 0.22238 0.99363 0.0
O389 O 0.64549 0.25267 0.95995 0.0
O390 O 0.66563 0.27508 0.93062 0.0
O391 O 0.75815 0.40443 0.94137 0.0
O392 O 0.76937 0.387 0.97001 0.0
O393 O 0.67207 0.24566 1.00159 0.0
O394 O 0.62577 0.24302 0.97833 0.0
O395 O 0.76335 0.36244 0.98817 0.0
O396 O 0.72719 0.28705 1.00387 0.0
C397 C 0.76809 0.33341 1.00032 0.0
O398 O 0.63855 0.37384 0.97601 0.0
O399 O 0.62593 0.36154 0.94571 0.0
C400 C 0.6496 0.37063 0.01403 0.0
C401 C 0.61589 0.37626 0.96119 0.0
Zn402 Zn 0.28137 0.63088 0.84253 0.0
Zn403 Zn 0.32341 0.65507 0.77809 0.0
Zn404 Zn 0.31166 0.65097 0.81306 0.0
C405 C 0.42379 0.69072 0.79507 0.0
C406 C 0.24927 0.54737 0.78685 0.0
O407 O 0.25756 0.68213 0.8224 0.0
O408 O 0.20605 0.61185 0.83958 0.0
C409 C 0.38482 0.72118 0.8443 0.0
O410 O 0.3989 0.69301 0.80967 0.0
O411 O 0.39906 0.67248 0.77981 0.0
O412 O 0.26344 0.57848 0.77319 0.0
O413 O 0.2691 0.5666 0.80308 0.0
O414 O 0.33979 0.70387 0.85227 0.0
O415 O 0.38628 0.7015 0.82821 0.0
O416 O 0.28984 0.56502 0.82022 0.0
O417 O 0.29119 0.57383 0.85071 0.0
C418 C 0.29172 0.54793 0.83644 0.0
O419 O 0.27528 0.69702 0.80281 0.0
O420 O 0.30932 0.71446 0.77447 0.0
C421 C 0.21519 0.65555 0.83263 0.0
C422 C 0.28388 0.72198 0.78741 0.0
Zn423 Zn 0.35639 0.69783 0.07487 0.0
Zn424 Zn 0.32143 0.7192 0.98832 0.0
Zn425 Zn 0.34117 0.69296 0.04021 0.0
C426 C 0.25584 0.6634 0.01853 0.0
C427 C 0.40198 0.80818 0.01199 0.0
O428 O 0.38675 0.65229 0.04249 0.0
O429 O 0.41023 0.67483 0.07197 0.0
C430 C 0.24655 0.62806 0.07039 0.0
O431 O 0.25402 0.65483 0.03573 0.0
O432 O 0.30079 0.68171 0.01106 0.0
O433 O 0.37443 0.79505 0.99706 0.0
O434 O 0.38984 0.77418 0.02539 0.0
O435 O 0.28212 0.64356 0.08283 0.0
O436 O 0.26019 0.64565 0.05375 0.0
O437 O 0.38485 0.77922 0.04679 0.0
O438 O 0.38059 0.77631 0.07736 0.0
C439 C 0.39218 0.80322 0.06271 0.0
O440 O 0.36712 0.64693 0.02323 0.0
O441 O 0.3465 0.66487 0.99549 0.0
C442 C 0.41348 0.65365 0.05675 0.0
C443 C 0.36266 0.63999 1.00546 0.0
Zn444 Zn 0.34033 0.68091 0.56822 0.0
Zn445 Zn 0.35235 0.69998 0.50519 0.0
Zn446 Zn 0.34094 0.68541 0.5346 0.0
C447 C 0.34863 0.78462 0.51448 0.0
C448 C 0.25871 0.6085 0.50593 0.0
O449 O 0.37845 0.63728 0.54064 0.0
O450 O 0.34992 0.61812 0.56959 0.0
C451 C 0.41479 0.78687 0.56061 0.0
O452 O 0.36797 0.77322 0.52849 0.0
O453 O 0.32686 0.74981 0.50147 0.0
O454 O 0.30168 0.62511 0.49683 0.0
O455 O 0.26046 0.63205 0.52168 0.0
O456 O 0.40386 0.75382 0.57346 0.0
O457 O 0.38908 0.77026 0.54507 0.0
O458 O 0.25424 0.64243 0.5413 0.0
O459 O 0.26691 0.66831 0.57092 0.0
C460 C 0.23567 0.64714 0.55715 0.0
O461 O 0.39456 0.6581 0.52213 0.0
O462 O 0.43029 0.72694 0.50323 0.0
C463 C 0.37191 0.61074 0.55551 0.0
C464 C 0.431 0.68742 0.51012 0.0
Zn465 Zn 0.32732 0.67942 0.27778 0.0
Zn466 Zn 0.35089 0.68625 0.34151 0.0
Zn467 Zn 0.33938 0.6832 0.31097 0.0
C468 C 0.43381 0.6809 0.32982 0.0
C469 C 0.25639 0.5941 0.33606 0.0
O470 O 0.29937 0.72988 0.30607 0.0
O471 O 0.26978 0.69615 0.27789 0.0
C472 C 0.43638 0.75109 0.28446 0.0
O473 O 0.42376 0.70332 0.31646 0.0
O474 O 0.40058 0.66031 0.34289 0.0
O475 O 0.27592 0.63269 0.34794 0.0
O476 O 0.28047 0.60027 0.32037 0.0
O477 O 0.40111 0.73981 0.27225 0.0
O478 O 0.42242 0.72782 0.30026 0.0
O479 O 0.2944 0.59523 0.30234 0.0
O480 O 0.30917 0.60454 0.27216 0.0
C481 C 0.29326 0.5745 0.28609 0.0
O482 O 0.31709 0.73929 0.32528 0.0
O483 O 0.37715 0.76346 0.34747 0.0
C484 C 0.2701 0.72382 0.29188 0.0
C485 C 0.3432 0.77054 0.33932 0.0
C486 C 0.17487 0.20238 0.19615 0.0
C487 C 0.21904 0.1986 0.20203 0.0
C488 C 0.19785 0.12753 0.1781 0.0
C489 C 0.14654 0.12138 0.17615 0.0
N490 N 0.0859 0.15408 0.18243 0.0
N491 N 0.28802 0.18133 0.19128 0.0
C492 C 0.13558 0.16026 0.18444 0.0
C493 C 0.23568 0.16859 0.19064 0.0
N494 N 0.17176 0.24699 0.20111 0.0
N495 N 0.20871 0.09199 0.16887 0.0
H496 H 0.31723 0.21489 0.19901 0.0
H497 H 0.30384 0.16329 0.18265 0.0
H498 H 0.18189 0.06312 0.15918 0.0
H499 H 0.24299 0.08998 0.17114 0.0
H500 H 0.14209 0.25357 0.19615 0.0
H501 H 0.20334 0.28101 0.20794 0.0
H502 H 0.07335 0.17708 0.19 0.0
H503 H 0.05589 0.1234 0.17402 0.0
C504 C 0.87244 0.0884 0.20399 0.0
C505 C 0.83842 0.04426 0.21572 0.0
C506 C 0.84684 0.98241 0.19374 0.0
C507 C 0.89113 0.02759 0.1852 0.0
N508 N 0.94698 0.12507 0.18221 0.0
N509 N 0.79939 0.94848 0.22254 0.0
C510 C 0.90375 0.08114 0.19008 0.0
C511 C 0.82622 0.99068 0.21065 0.0
N512 N 0.87364 0.13658 0.20571 0.0
N513 N 0.82643 0.93129 0.18605 0.0
H514 H 0.78784 0.95297 0.2359 0.0
H515 H 0.79425 0.91007 0.21997 0.0
H516 H 0.84141 0.92471 0.1736 0.0
H517 H 0.79155 0.89707 0.1909 0.0
H518 H 0.89449 0.16844 0.19656 0.0
H519 H 0.84857 0.14201 0.21486 0.0
H520 H 0.96191 0.16516 0.1869 0.0
H521 H 0.96955 0.12103 0.17161 0.0
C522 C 0.03523 0.83153 0.18589 0.0
C523 C 0.00492 0.82344 0.20239 0.0
C524 C 0.94717 0.8487 0.18622 0.0
C525 C 0.97564 0.85315 0.16951 0.0
N526 N 0.03904 0.83826 0.15241 0.0
N527 N 0.92763 0.81782 0.21789 0.0
C528 C 0.01699 0.84084 0.16903 0.0
C529 C 0.95987 0.83068 0.20254 0.0
N530 N 0.08317 0.83312 0.18654 0.0
N531 N 0.90775 0.86138 0.18639 0.0
H532 H 0.93553 0.80522 0.2302 0.0
H533 H 0.89079 0.8159 0.21814 0.0
H534 H 0.89358 0.86894 0.17431 0.0
H535 H 0.89054 0.86656 0.19845 0.0
H536 H 0.10983 0.84427 0.17541 0.0
H537 H 0.09917 0.82906 0.19883 0.0
H538 H 0.06558 0.82417 0.15092 0.0
H539 H 0.02693 0.84542 0.13979 0.0
C540 C 0.13486 0.19838 0.31016 0.0
C541 C 0.18904 0.21052 0.31042 0.0
C542 C 0.1705 0.15738 0.33852 0.0
C543 C 0.11579 0.14245 0.33744 0.0
N544 N 0.04788 0.15782 0.32566 0.0
N545 N 0.26189 0.21171 0.32666 0.0
C546 C 0.0989 0.1666 0.32446 0.0
C547 C 0.20815 0.1938 0.32535 0.0
N548 N 0.11739 0.21563 0.29586 0.0
N549 N 0.18535 0.13405 0.35158 0.0
H550 H 0.29011 0.23573 0.3167 0.0
H551 H 0.27933 0.20536 0.33807 0.0
H552 H 0.15878 0.10954 0.36188 0.0
H553 H 0.22283 0.13744 0.35202 0.0
H554 H 0.07719 0.20312 0.29358 0.0
H555 H 0.14297 0.24094 0.28556 0.0
H556 H 0.03392 0.17782 0.3178 0.0
H557 H 0.02039 0.13325 0.3357 0.0
C558 C 0.77717 0.95615 0.31753 0.0
C559 C 0.79872 0.00754 0.3089 0.0
C560 C 0.85737 0.05008 0.33586 0.0
C561 C 0.84944 -0.00094 0.34044 0.0
N562 N 0.79639 0.90143 0.33745 0.0
N563 N 0.86292 0.10564 0.31056 0.0
C564 C 0.80667 0.95119 0.33212 0.0
C565 C 0.83884 0.05563 0.31847 0.0
N566 N 0.72824 0.91291 0.31211 0.0
N567 N 0.88559 0.09345 0.34778 0.0
H568 H 0.85424 0.11209 0.29729 0.0
H569 H 0.89579 0.14032 0.31659 0.0
H570 H 0.89794 0.08809 0.36066 0.0
H571 H 0.89052 0.13166 0.34581 0.0
H572 H 0.70927 0.87555 0.3187 0.0
H573 H 0.7039 0.91699 0.30259 0.0
H574 H 0.76963 0.865 0.33044 0.0
H575 H 0.81647 0.89749 0.34863 0.0
C576 C 0.96682 0.80846 0.31614 0.0
C577 C 0.01969 0.83311 0.30839 0.0
C578 C 0.05728 0.89024 0.33657 0.0
C579 C 0.00402 0.871 0.34277 0.0
N580 N 0.9141 0.79441 0.34422 0.0
N581 N 0.11491 0.87661 0.3152 0.0
C582 C 0.96131 0.8227 0.33469 0.0
C583 C 0.06503 0.86717 0.31996 0.0
N584 N 0.92183 0.77617 0.3056 0.0
N585 N 0.09987 0.93269 0.34575 0.0
H586 H 0.12113 0.85793 0.30358 0.0
H587 H 0.14856 0.89774 0.32381 0.0
H588 H 0.0955 0.94738 0.35862 0.0
H589 H 0.139 0.95357 0.34046 0.0
H590 H 0.88285 0.76217 0.31045 0.0
H591 H 0.92269 0.76706 0.29159 0.0
H592 H 0.88177 0.75687 0.33961 0.0
H593 H 0.91046 0.8068 0.35766 0.0
C594 C 0.86608 0.86303 0.81254 0.0
C595 C 0.81621 0.85938 0.80891 0.0
C596 C 0.83436 0.92603 0.83436 0.0
C597 C 0.88438 0.93048 0.83737 0.0
N598 N 0.9389 0.88999 0.83441 0.0
N599 N 0.74512 0.87248 0.82076 0.0
C600 C 0.89638 0.89346 0.82838 0.0
C601 C 0.79777 0.88621 0.82124 0.0
N602 N 0.88738 0.84225 0.80012 0.0
N603 N 0.82275 0.9609 0.84362 0.0
H604 H 0.71667 0.84101 0.81218 0.0
H605 H 0.7285 0.88783 0.83024 0.0
H606 H 0.84787 0.9877 0.85409 0.0
H607 H 0.78969 0.96435 0.84051 0.0
H608 H 0.92626 0.84924 0.80129 0.0
H609 H 0.86909 0.82289 0.7876 0.0
H610 H 0.94692 0.86034 0.8295 0.0
H611 H 0.96269 0.91344 0.84567 0.0
C612 C 0.14208 0.9372 0.81515 0.0
C613 C 0.18131 0.98384 0.80538 0.0
C614 C 0.18354 0.04114 0.83164 0.0
C615 C 0.13341 -0.00246 0.8376 0.0
N616 N 0.06761 0.90179 0.83707 0.0
N617 N 0.24093 0.08275 0.80518 0.0
C618 C 0.11425 0.94442 0.83031 0.0
C619 C 0.20406 0.0366 0.8141 0.0
N620 N 0.13189 0.88647 0.80998 0.0
N621 N 0.20865 0.08819 0.84218 0.0
H622 H 0.25604 0.08291 0.79202 0.0
H623 H 0.25361 0.12196 0.81033 0.0
H624 H 0.19219 0.0916 0.85479 0.0
H625 H 0.24734 0.12072 0.83939 0.0
H626 H 0.10627 0.85153 0.81736 0.0
H627 H 0.15383 0.88056 0.79954 0.0
H628 H 0.04771 0.86282 0.83091 0.0
H629 H 0.04818 0.9067 0.8486 0.0
C630 C 0.06634 0.22351 0.82282 0.0
C631 C 0.01239 0.18838 0.81658 0.0
C632 C -0.00746 0.13591 0.84482 0.0
C633 C 0.04873 0.16261 0.84852 0.0
N634 N 0.1392 0.23558 0.8425 0.0
N635 N 0.92299 0.11133 0.82176 0.0
C636 C 0.08552 0.20826 0.83812 0.0
C637 C 0.97475 0.14536 0.82783 0.0
N638 N 0.09878 0.27181 0.81428 0.0
N639 N 0.95629 0.10147 0.85744 0.0
H640 H 0.90835 0.11744 0.80952 0.0
H641 H 0.89563 0.07516 0.82822 0.0
H642 H 0.96819 0.09361 0.86988 0.0
H643 H 0.91489 0.0854 0.85645 0.0
H644 H 0.13691 0.30161 0.81908 0.0
H645 H 0.08506 0.28439 0.80339 0.0
H646 H 0.16939 0.26478 0.83413 0.0
H647 H 0.15356 0.22742 0.85441 0.0
C648 C 0.86625 0.81613 0.70942 0.0
C649 C 0.82608 0.82496 0.71743 0.0
C650 C 0.83325 0.87798 0.69044 0.0
C651 C 0.88275 0.88229 0.68583 0.0
N652 N 0.94459 0.8514 0.68916 0.0
N653 N 0.77121 0.86587 0.71517 0.0
C654 C 0.89802 0.84893 0.69449 0.0
C655 C 0.80817 0.85493 0.70757 0.0
N656 N 0.87341 0.77611 0.71595 0.0
N657 N 0.81265 0.89943 0.67885 0.0
H658 H 0.75342 0.85238 0.72809 0.0
H659 H 0.76147 0.89247 0.70934 0.0
H660 H 0.8319 0.9171 0.66641 0.0
H661 H 0.77474 0.89473 0.68063 0.0
H662 H 0.89938 0.76525 0.70981 0.0
H663 H 0.84892 0.74986 0.72627 0.0
H664 H 0.96173 0.83313 0.69634 0.0
H665 H 0.96688 0.87376 0.67775 0.0
C666 C 0.1973 0.07348 0.70684 0.0
C667 C 0.19364 0.0223 0.70441 0.0
C668 C 0.13319 0.00017 0.6779 0.0
C669 C 0.13853 0.05232 0.67998 0.0
N670 N 0.18783 0.14374 0.69263 0.0
N671 N 0.16878 0.94267 0.68493 0.0
C672 C 0.17535 0.09085 0.69309 0.0
C673 C 0.16572 0.98791 0.68888 0.0
N674 N 0.21929 0.1044 0.72265 0.0
N675 N 0.09366 0.9604 0.66681 0.0
H676 H 0.18964 0.93054 0.69324 0.0
H677 H 0.15394 0.91957 0.67265 0.0
H678 H 0.06835 0.9669 0.65867 0.0
H679 H 0.08333 0.91973 0.66671 0.0
H680 H 0.21827 0.13952 0.72588 0.0
H681 H 0.2343 0.09238 0.73333 0.0
H682 H 0.21773 0.17506 0.70088 0.0
H683 H 0.17186 0.15679 0.68253 0.0
C684 C 0.94925 0.12954 0.71383 0.0
C685 C 0.96993 0.18668 0.71498 0.0
C686 C 0.96836 0.18887 0.68095 0.0
C687 C 0.94836 0.13224 0.68008 0.0
N688 N 0.89606 0.04667 0.69539 0.0
N689 N 0.97883 0.26515 0.69963 0.0
C690 C 0.93096 0.10181 0.69646 0.0
C691 C 0.97343 0.21487 0.69853 0.0
N692 N 0.95011 0.10207 0.72884 0.0
N693 N 0.9841 0.21819 0.66509 0.0
H694 H 0.97885 0.28422 0.71214 0.0
H695 H 0.9767 0.28499 0.6881 0.0
H696 H 0.97828 0.19986 0.65191 0.0
H697 H 0.00541 0.26074 0.66512 0.0
H698 H 0.93959 0.06132 0.72794 0.0
H699 H 0.96682 0.12106 0.74159 0.0
H700 H 0.87869 0.02308 0.70706 0.0
H701 H 0.88029 0.02601 0.68273 0.0
C702 C 0.81996 0.54417 0.54596 0.0
C703 C 0.86213 0.53531 0.55073 0.0
C704 C 0.84273 0.47611 0.52308 0.0
C705 C 0.7979 0.48148 0.51917 0.0
N706 N 0.75984 0.53835 0.52174 0.0
N707 N 0.92754 0.51327 0.53953 0.0
C708 C 0.79281 0.52245 0.52877 0.0
C709 C 0.87819 0.50806 0.5378 0.0
N710 N 0.8025 0.5689 0.55827 0.0
N711 N 0.84978 0.43837 0.51366 0.0
H712 H 0.95517 0.53824 0.54979 0.0
H713 H 0.94329 0.49803 0.52964 0.0
H714 H 0.82692 0.4169 0.50214 0.0
H715 H 0.87717 0.4274 0.51768 0.0
H716 H 0.76798 0.57063 0.55609 0.0
H717 H 0.81947 0.58383 0.57132 0.0
H718 H 0.7572 0.57088 0.5273 0.0
H719 H 0.73975 0.5223 0.50913 0.0
C720 C 0.46711 0.30499 0.53797 0.0
C721 C 0.48206 0.35787 0.54508 0.0
C722 C 0.53378 0.39841 0.51662 0.0
C723 C 0.52424 0.34654 0.51099 0.0
N724 N 0.46009 0.25063 0.51047 0.0
N725 N 0.50856 0.44995 0.53727 0.0
C726 C 0.48216 0.29994 0.51957 0.0
C727 C 0.50888 0.4033 0.53316 0.0
N728 N 0.44322 0.26049 0.54901 0.0
N729 N 0.56719 0.4427 0.50641 0.0
H730 H 0.48689 0.4529 0.54844 0.0
H731 H 0.52431 0.48309 0.52854 0.0
H732 H 0.57878 0.43807 0.49309 0.0
H733 H 0.58223 0.4829 0.51096 0.0
H734 H 0.4365 0.22244 0.54466 0.0
H735 H 0.43488 0.2622 0.56301 0.0
H736 H 0.42704 0.21498 0.51547 0.0
H737 H 0.47186 0.24786 0.49693 0.0
C738 C 0.6176 0.14054 0.53567 0.0
C739 C 0.66907 0.14581 0.53634 0.0
C740 C 0.69173 0.19147 0.50659 0.0
C741 C 0.64842 0.19999 0.50904 0.0
N742 N 0.56456 0.17639 0.52364 0.0
N743 N 0.75453 0.17286 0.52151 0.0
C744 C 0.60871 0.17111 0.5226 0.0
C745 C 0.70551 0.16889 0.52125 0.0
N746 N 0.57747 0.10605 0.54737 0.0
N747 N 0.72004 0.20654 0.49041 0.0
H748 H 0.76652 0.15764 0.53216 0.0
H749 H 0.78467 0.19437 0.51178 0.0
H750 H 0.7092 0.22301 0.47977 0.0
H751 H 0.74999 0.19804 0.48696 0.0
H752 H 0.53795 0.09743 0.54661 0.0
H753 H 0.58252 0.08188 0.55668 0.0
H754 H 0.53703 0.16214 0.53454 0.0
H755 H 0.55684 0.19694 0.51358 0.0
C756 C 0.88934 0.53222 0.66834 0.0
C757 C 0.87234 0.55109 0.65341 0.0
C758 C 0.78325 0.51362 0.6678 0.0
C759 C 0.79685 0.48576 0.68029 0.0
N760 N 0.86218 0.47028 0.69407 0.0
N761 N 0.80299 0.56018 0.63872 0.0
C762 C 0.85028 0.49681 0.68134 0.0
C763 C 0.81945 0.54263 0.65321 0.0
N764 N 0.94215 0.54663 0.66972 0.0
N765 N 0.73487 0.51069 0.66967 0.0
H766 H 0.82837 0.5826 0.62792 0.0
H767 H 0.76324 0.54979 0.63674 0.0
H768 H 0.70779 0.48885 0.68022 0.0
H769 H 0.72388 0.53371 0.66207 0.0
H770 H 0.95808 0.5387 0.6812 0.0
H771 H 0.97117 0.56923 0.65977 0.0
H772 H 0.89822 0.47061 0.69439 0.0
H773 H 0.83432 0.44618 0.70414 0.0
C774 C 0.47873 0.3741 0.66509 0.0
C775 C 0.46071 0.33885 0.64908 0.0
C776 C 0.49697 0.28603 0.66195 0.0
C777 C 0.52341 0.32701 0.67587 0.0
N778 N 0.53661 0.40663 0.69245 0.0
N779 N 0.45096 0.25998 0.63226 0.0
C780 C 0.51242 0.36946 0.67818 0.0
C781 C 0.46872 0.29393 0.64762 0.0
N782 N 0.46447 0.41246 0.66754 0.0
N783 N 0.49991 0.24003 0.66246 0.0
H784 H 0.42892 0.26348 0.62169 0.0
H785 H 0.46046 0.23014 0.62939 0.0
H786 H 0.52031 0.23398 0.67304 0.0
H787 H 0.47836 0.20612 0.65363 0.0
H788 H 0.47216 0.43621 0.67961 0.0
H789 H 0.4422 0.41878 0.65779 0.0
H790 H 0.53628 0.44266 0.69399 0.0
H791 H 0.55821 0.4012 0.70276 0.0
C792 C 0.62176 0.12284 0.66071 0.0
C793 C 0.66735 0.13927 0.64905 0.0
C794 C 0.72199 0.21977 0.6692 0.0
C795 C 0.67483 0.20665 0.67933 0.0
N796 N 0.58717 0.13875 0.6897 0.0
N797 N 0.76417 0.19182 0.6456 0.0
C798 C 0.62744 0.15501 0.67688 0.0
C799 C 0.71877 0.18399 0.65448 0.0
N800 N 0.57244 0.07931 0.65564 0.0
N801 N 0.76855 0.26831 0.67286 0.0
H802 H 0.76289 0.16585 0.63489 0.0
H803 H 0.8032 0.22094 0.64983 0.0
H804 H 0.77204 0.29343 0.68421 0.0
H805 H 0.80285 0.28417 0.66455 0.0
H806 H 0.53675 0.0689 0.6626 0.0
H807 H 0.56635 0.05525 0.64374 0.0
H808 H 0.55246 0.10003 0.68969 0.0
H809 H 0.59156 0.16322 0.70138 0.0
C810 C 0.5182 0.15049 0.14801 0.0
C811 C 0.4788 0.15519 0.13819 0.0
C812 C 0.50031 0.23737 0.15659 0.0
C813 C 0.54086 0.23371 0.1659 0.0
N814 N 0.57794 0.17972 0.17468 0.0
N815 N 0.41975 0.1911 0.13756 0.0
C816 C 0.54544 0.18714 0.16317 0.0
C817 C 0.46564 0.19474 0.14397 0.0
N818 N 0.53271 0.11416 0.14201 0.0
N819 N 0.4975 0.2833 0.15874 0.0
H820 H 0.39277 0.15941 0.1287 0.0
H821 H 0.40567 0.21597 0.14253 0.0
H822 H 0.52224 0.31498 0.16798 0.0
H823 H 0.47313 0.29131 0.15061 0.0
H824 H 0.5653 0.11319 0.1474 0.0
H825 H 0.51506 0.08767 0.13061 0.0
H826 H 0.57981 0.1444 0.17456 0.0
H827 H 0.59941 0.20736 0.18551 0.0
C828 C 0.8885 0.3813 0.15839 0.0
C829 C 0.86342 0.33137 0.148 0.0
C830 C 0.78698 0.29224 0.16928 0.0
C831 C 0.80423 0.34602 0.17581 0.0
N832 N 0.87642 0.43841 0.18128 0.0
N833 N 0.81127 0.23421 0.15199 0.0
C834 C 0.85757 0.38923 0.17223 0.0
C835 C 0.81964 0.28479 0.15616 0.0
N836 N 0.94172 0.4192 0.15562 0.0
N837 N 0.73792 0.24929 0.17432 0.0
H838 H 0.83863 0.22917 0.14392 0.0
H839 H 0.78217 0.19886 0.15846 0.0
H840 H 0.71433 0.25245 0.18471 0.0
H841 H 0.72015 0.21076 0.16789 0.0
H842 H 0.96296 0.45595 0.16311 0.0
H843 H 0.96642 0.41069 0.14735 0.0
H844 H 0.91254 0.47387 0.17813 0.0
H845 H 0.85446 0.44329 0.19199 0.0
C846 C 0.63638 0.54791 0.15933 0.0
C847 C 0.68073 0.58203 0.14782 0.0
C848 C 0.73853 0.55869 0.16465 0.0
C849 C 0.69235 0.51903 0.17415 0.0
N850 N 0.60472 0.48992 0.18629 0.0
N851 N 0.77706 0.63327 0.14303 0.0
C852 C 0.64378 0.51903 0.17352 0.0
C853 C 0.73314 0.59235 0.15182 0.0
N854 N 0.58704 0.54145 0.15613 0.0
N855 N 0.78631 0.56105 0.16713 0.0
H856 H 0.77388 0.65811 0.13351 0.0
H857 H 0.81676 0.64527 0.14605 0.0
H858 H 0.79052 0.53782 0.1771 0.0
H859 H 0.82095 0.58479 0.15935 0.0
H860 H 0.55175 0.51303 0.16277 0.0
H861 H 0.58119 0.56373 0.14623 0.0
H862 H 0.56887 0.48986 0.18751 0.0
H863 H 0.61125 0.46975 0.19682 0.0
C864 C 0.50591 0.18805 0.02387 0.0
C865 C 0.51227 0.15612 0.03709 0.0
C866 C 0.57791 0.15018 0.01692 0.0
C867 C 0.57707 0.18799 1.00491 0.0
N868 N 0.52177 0.21983 0.99227 0.0
N869 N 0.53474 0.08758 0.04204 0.0
C870 C 0.53505 0.19962 1.00679 0.0
C871 C 0.54228 0.13113 0.03231 0.0
N872 N 0.47376 0.20888 0.02787 0.0
N873 N 0.61356 0.13317 0.01368 0.0
H874 H 0.50599 0.0706 0.05249 0.0
H875 H 0.55183 0.06439 0.03839 0.0
H876 H 0.63612 0.14189 1.00148 0.0
H877 H 0.62172 0.11179 0.0232 0.0
H878 H 0.46969 0.23504 0.01929 0.0
H879 H 0.45261 0.20199 0.04029 0.0
H880 H 0.48817 0.22395 0.9923 0.0
H881 H 0.53915 0.22501 0.97921 0.0
C882 C 0.86147 0.39626 0.04183 0.0
C883 C 0.88237 0.36111 0.042 0.0
C884 C 0.84395 0.32479 0.01108 0.0
C885 C 0.81636 0.35356 0.01221 0.0
N886 N 0.79671 0.41556 0.02869 0.0
N887 N 0.89101 0.28907 0.02744 0.0
C888 C 0.82517 0.38972 0.02747 0.0
C889 C 0.87368 0.32518 0.02666 0.0
N890 N 0.87725 0.43659 0.05519 0.0
N891 N 0.84117 0.29667 0.99506 0.0
H892 H 0.91227 0.28745 0.03869 0.0
H893 H 0.88075 0.25771 0.01766 0.0
H894 H 0.81887 0.29507 0.98356 0.0
H895 H 0.8645 0.27922 0.9925 0.0
H896 H 0.86792 0.46707 0.05481 0.0
H897 H 0.90351 0.44233 0.06595 0.0
H898 H 0.7957 0.43676 0.04053 0.0
H899 H 0.77183 0.41358 0.01804 0.0
C900 C 0.59496 0.43622 0.04648 0.0
C901 C 0.64496 0.48202 0.05253 0.0
C902 C 0.6897 0.46548 0.02623 0.0
C903 C 0.64274 0.41355 0.0231 0.0
N904 N 0.55084 0.3475 0.0309 0.0
N905 N 0.74207 0.53705 0.04899 0.0
C906 C 0.59515 0.39859 0.03327 0.0
C907 C 0.69293 0.4966 0.04243 0.0
N908 N 0.54733 0.42936 0.05294 0.0
N909 N 0.7318 0.48416 0.01406 0.0
H910 H 0.74702 0.55886 0.06137 0.0
H911 H 0.77852 0.54518 0.04315 0.0
H912 H 0.73038 0.46196 1.00211 0.0
H913 H 0.76542 0.52365 0.0148 0.0
H914 H 0.50983 0.39914 0.04775 0.0
H915 H 0.54548 0.45758 0.06191 0.0
H916 H 0.51699 0.33197 0.03946 0.0
H917 H 0.54979 0.31965 0.02103 0.0
C918 C 0.45853 0.82502 0.8812 0.0
C919 C 0.4996 0.81459 0.88602 0.0
C920 C 0.47432 0.75038 0.85945 0.0
C921 C 0.43389 0.76172 0.85466 0.0
N922 N 0.40415 0.82581 0.85625 0.0
N923 N 0.55911 0.78362 0.87534 0.0
C924 C 0.43198 0.8048 0.86394 0.0
C925 C 0.51152 0.78228 0.87379 0.0
N926 N 0.442 0.85073 0.89346 0.0
N927 N 0.47603 0.7079 0.85111 0.0
H928 H 0.58909 0.8092 0.88484 0.0
H929 H 0.57149 0.76442 0.86573 0.0
H930 H 0.4512 0.68465 0.84009 0.0
H931 H 0.50041 0.69396 0.85587 0.0
H932 H 0.40886 0.85464 0.89096 0.0
H933 H 0.45706 0.86253 0.90692 0.0
H934 H 0.40439 0.85996 0.8618 0.0
H935 H 0.38637 0.81264 0.84316 0.0
C936 C 0.10582 0.65482 0.85936 0.0
C937 C 0.13539 0.67204 0.87638 0.0
C938 C 0.21844 0.71444 0.85812 0.0
C939 C 0.1896 0.68213 0.84252 0.0
N940 N 0.10466 0.62468 0.8274 0.0
N941 N 0.2233 0.71396 0.89135 0.0
C942 C 0.13271 0.65412 0.84277 0.0
C943 C 0.19284 0.70184 0.87566 0.0
N944 N 0.05314 0.64104 0.85885 0.0
N945 N 0.27118 0.7544 0.85635 0.0
H946 H 0.207 0.70019 0.90441 0.0
H947 H 0.26512 0.73183 0.89098 0.0
H948 H 0.28992 0.76357 0.84344 0.0
H949 H 0.29339 0.78159 0.86718 0.0
H950 H 0.03138 0.63174 0.84653 0.0
H951 H 0.03338 0.64556 0.87033 0.0
H952 H 0.06294 0.59802 0.8273 0.0
H953 H 0.12437 0.62583 0.815 0.0
C954 C 0.37436 0.51293 0.86108 0.0
C955 C 0.33264 0.46546 0.86982 0.0
C956 C 0.26786 0.45633 0.84628 0.0
C957 C 0.30738 0.50739 0.83948 0.0
N958 N 0.40096 0.57145 0.83442 0.0
N959 N 0.24782 0.38036 0.86574 0.0
C960 C 0.36191 0.5301 0.84458 0.0
C961 C 0.28204 0.43299 0.86061 0.0
N962 N 0.42385 0.5446 0.86922 0.0
N963 N 0.21619 0.43259 0.83992 0.0
H964 H 0.25853 0.36197 0.8757 0.0
H965 H 0.21172 0.35365 0.8589 0.0
H966 H 0.20651 0.44932 0.82905 0.0
H967 H 0.18353 0.39813 0.84565 0.0
H968 H 0.45275 0.58308 0.86458 0.0
H969 H 0.43577 0.53437 0.88118 0.0
H970 H 0.44212 0.58729 0.83622 0.0
H971 H 0.39102 0.58636 0.82311 0.0
C972 C 0.52457 0.85132 0.98936 0.0
C973 C 0.52576 0.89285 0.97865 0.0
C974 C 0.46605 0.90115 1.00114 0.0
C975 C 0.45832 0.85418 0.00983 0.0
N976 N 0.50297 0.8084 0.01938 0.0
N977 N 0.52005 0.97395 0.97988 0.0
C978 C 0.4964 0.8383 1.00654 0.0
C979 C 0.50416 0.92368 0.98649 0.0
N980 N 0.5462 0.8216 0.98282 0.0
N981 N 0.43337 0.92068 1.00584 0.0
H982 H 0.55011 0.99211 0.96981 0.0
H983 H 0.50803 -0.00039 0.98578 0.0
H984 H 0.40568 0.90397 0.01668 0.0
H985 H 0.4324 0.95114 0.99866 0.0
H986 H 0.54086 0.78735 0.98946 0.0
H987 H 0.56662 0.82864 0.97027 0.0
H988 H 0.53216 0.79762 0.01823 0.0
H989 H 0.48324 0.80067 0.03214 0.0
C990 C 0.16317 0.6233 0.97811 0.0
C991 C 0.17261 0.67608 0.97422 0.0
C992 C 0.21085 0.70792 1.00545 0.0
C993 C 0.21154 0.65952 1.00752 0.0
N994 N 0.18774 0.56996 0.99655 0.0
N995 N 0.20983 0.77056 0.98396 0.0
C996 C 0.18652 0.61644 0.9942 0.0
C997 C 0.19662 0.71875 0.98799 0.0
N998 N 0.13108 0.57946 0.9667 0.0
N999 N 0.22549 0.74407 0.02012 0.0
H1000 H 0.20285 0.78121 0.97107 0.0
H1001 H 0.23234 0.80421 0.99281 0.0
H1002 H 0.23546 0.73585 0.03297 0.0
H1003 H 0.22222 0.77857 0.02014 0.0
H1004 H 0.11839 0.53935 0.96989 0.0
H1005 H 0.11274 0.58223 0.95486 0.0
H1006 H 0.17734 0.53994 0.98621 0.0
H1007 H 0.2016 0.56282 0.0088 0.0
C1008 C 0.40444 0.5844 0.96637 0.0
C1009 C 0.35705 0.53188 0.96445 0.0
C1010 C 0.32408 0.54406 0.99458 0.0
C1011 C 0.36927 0.59799 0.99575 0.0
N1012 N 0.45904 0.66428 0.98641 0.0
N1013 N 0.2806 0.45537 0.97879 0.0
C1014 C 0.41197 0.61609 0.98286 0.0
C1015 C 0.31971 0.50956 0.97928 0.0
N1016 N 0.44059 0.60494 0.95208 0.0
N1017 N 0.28381 0.52729 1.00746 0.0
H1018 H 0.27675 0.4291 0.9678 0.0
H1019 H 0.25514 0.43542 0.98988 0.0
H1020 H 0.2873 0.55076 0.0193 0.0
H1021 H 0.24637 0.49136 1.00611 0.0
H1022 H 0.47309 0.64499 0.95181 0.0
H1023 H 0.43656 0.5826 0.93988 0.0
H1024 H 0.49369 0.67886 0.97834 0.0
H1025 H 0.46452 0.68733 0.99859 0.0
C1026 C 0.13373 0.54456 0.47605 0.0
C1027 C 0.14734 0.51247 0.46445 0.0
C1028 C 0.21132 0.52196 0.48809 0.0
C1029 C 0.2087 0.56565 0.49663 0.0
N1030 N 0.16865 0.62151 0.49751 0.0
N1031 N 0.2051 0.47541 0.45899 0.0
C1032 C 0.16943 0.57716 0.49058 0.0
C1033 C 0.18699 0.5013 0.47049 0.0
N1034 N 0.08652 0.54328 0.47347 0.0
N1035 N 0.23995 0.50273 0.49639 0.0
H1036 H 0.1922 0.46357 0.44533 0.0
H1037 H 0.23759 0.47121 0.46232 0.0
H1038 H 0.25877 0.51838 0.5092 0.0
H1039 H 0.24021 0.46826 0.4915 0.0
H1040 H 0.07328 0.56298 0.48253 0.0
H1041 H 0.05766 0.51718 0.46375 0.0
H1042 H 0.14469 0.63496 0.49195 0.0
H1043 H 0.19491 0.64713 0.50782 0.0
C1044 C 0.46354 0.64395 0.46718 0.0
C1045 C 0.52074 0.6793 0.46675 0.0
C1046 C 0.51959 0.70239 0.49977 0.0
C1047 C 0.46283 0.66841 0.4998 0.0
N1048 N 0.3849 0.58995 0.48643 0.0
N1049 N 0.60342 0.72405 0.48473 0.0
C1050 C 0.43656 0.63268 0.48453 0.0
C1051 C 0.54905 0.70289 0.48373 0.0
N1052 N 0.43416 0.62493 0.45115 0.0
N1053 N 0.54488 0.73567 0.51483 0.0
H1054 H 0.62567 0.7215 0.47366 0.0
H1055 H 0.62506 0.73816 0.49711 0.0
H1056 H 0.52385 0.73342 0.527 0.0
H1057 H 0.58556 0.76633 0.5149 0.0
H1058 H 0.39208 0.6031 0.45097 0.0
H1059 H 0.45097 0.63606 0.43798 0.0
H1060 H 0.36458 0.56036 0.476 0.0
H1061 H 0.36525 0.581 0.49923 0.0
C1062 C 0.29948 0.8569 0.49169 0.0
C1063 C 0.34455 0.88692 0.47983 0.0
C1064 C 0.40243 0.87559 0.50133 0.0
C1065 C 0.35592 0.83862 0.51126 0.0
N1066 N 0.26888 0.81621 0.52197 0.0
N1067 N 0.44142 0.94428 0.47774 0.0
C1068 C 0.30764 0.8381 0.50864 0.0
C1069 C 0.3971 0.90302 0.48619 0.0
N1070 N 0.24875 0.8425 0.48625 0.0
N1071 N 0.45045 0.88042 0.50545 0.0
H1072 H 0.43809 0.96619 0.46712 0.0
H1073 H 0.48072 0.96036 0.48249 0.0
H1074 H 0.45421 0.86137 0.51691 0.0
H1075 H 0.48515 0.90142 0.49742 0.0
H1076 H 0.2141 0.81572 0.49358 0.0
H1077 H 0.24076 0.8547 0.47386 0.0
H1078 H 0.2334 0.81705 0.52165 0.0
H1079 H 0.27586 0.80235 0.53425 0.0
C1080 C 0.18013 0.47031 0.36353 0.0
C1081 C 0.14663 0.48688 0.37246 0.0
C1082 C 0.16339 0.54802 0.34698 0.0
C1083 C 0.20757 0.54305 0.34151 0.0
N1084 N 0.25415 0.49431 0.34201 0.0
N1085 N 0.10354 0.54004 0.37207 0.0
C1086 C 0.21369 0.50129 0.34861 0.0
C1087 C 0.13592 0.52404 0.36372 0.0
N1088 N 0.1797 0.4252 0.36936 0.0
N1089 N 0.1504 0.57853 0.33657 0.0
H1090 H 0.08343 0.52445 0.38453 0.0
H1091 H 0.09928 0.57149 0.36727 0.0
H1092 H 0.17139 0.5964 0.32439 0.0
H1093 H 0.11649 0.58152 0.33895 0.0
H1094 H 0.20001 0.40856 0.36255 0.0
H1095 H 0.15475 0.40137 0.38007 0.0
H1096 H 0.2655 0.46929 0.34809 0.0
H1097 H 0.27737 0.51522 0.33055 0.0
C1098 C 0.56085 0.71232 0.35154 0.0
C1099 C 0.54206 0.65775 0.35657 0.0
C1100 C 0.47357 0.62437 0.33223 0.0
C1101 C 0.48277 0.67769 0.33109 0.0
N1102 N 0.54004 0.77407 0.33641 0.0
N1103 N 0.48632 0.56115 0.34997 0.0
C1104 C 0.52912 0.72247 0.33931 0.0
C1105 C 0.50098 0.61342 0.34603 0.0
N1106 N 0.60876 0.75385 0.35846 0.0
N1107 N 0.43613 0.58425 0.3207 0.0
H1108 H 0.50676 0.55233 0.35973 0.0
H1109 H 0.45319 0.52661 0.34407 0.0
H1110 H 0.41565 0.59278 0.31084 0.0
H1111 H 0.42853 0.54455 0.31988 0.0
H1112 H 0.62664 0.79428 0.35453 0.0
H1113 H 0.63309 0.74663 0.36692 0.0
H1114 H 0.56957 0.80874 0.34354 0.0
H1115 H 0.51808 0.78157 0.32686 0.0
C1116 C 0.31101 0.81775 0.38203 0.0
C1117 C 0.3375 0.87512 0.37953 0.0
C1118 C 0.35245 0.86086 0.3467 0.0
C1119 C 0.32576 0.80421 0.34949 0.0
N1120 N 0.26033 0.72831 0.36705 0.0
N1121 N 0.36327 0.94679 0.35741 0.0
C1122 C 0.29774 0.78271 0.3662 0.0
C1123 C 0.35207 0.89554 0.36119 0.0
N1124 N 0.30273 0.79654 0.39933 0.0
N1125 N 0.37927 0.88151 0.33047 0.0
H1126 H 0.3585 0.97152 0.36718 0.0
H1127 H 0.37052 0.96179 0.34402 0.0
H1128 H 0.37758 0.85621 0.31942 0.0
H1129 H 0.40464 0.92323 0.32842 0.0
H1130 H 0.28739 0.7552 0.40144 0.0
H1131 H 0.31735 0.82031 0.41145 0.0
H1132 H 0.23606 0.71073 0.37864 0.0
H1133 H 0.24943 0.70278 0.35526 0.0
C1134 C 0.21173 0.01924 0.11127 0.0
C1135 C 0.25806 0.07056 0.10725 0.0
C1136 C 0.20606 0.11533 0.11258 0.0
C1137 C 0.16089 0.06439 0.1175 0.0
N1138 N 0.12328 0.9702 0.12546 0.0
N1139 N 0.30277 0.16901 0.10753 0.0
C1140 C 0.16474 0.01718 0.11822 0.0
C1141 C 0.25628 0.11919 0.10885 0.0
N1142 N 0.21151 0.97209 0.10738 0.0
N1143 N 0.20059 0.15965 0.11118 0.0
H1144 H 0.34031 0.17362 0.1048 0.0
H1145 H 0.30496 0.20585 0.11057 0.0
H1146 H 0.16511 0.15865 0.11484 0.0
H1147 H 0.23003 0.19637 0.10553 0.0
H1148 H 0.17706 0.93331 0.10816 0.0
H1149 H 0.24435 0.97156 0.10153 0.0
H1150 H 0.12624 0.93639 0.12822 0.0
H1151 H 0.08752 0.96655 0.13033 0.0
C1152 C 0.90735 0.17442 0.11999 0.0
C1153 C 0.95578 0.22673 0.12022 0.0
C1154 C 0.00466 0.18691 0.13345 0.0
C1155 C 0.95847 0.13416 0.13086 0.0
N1156 N 0.86608 0.07591 0.12156 0.0
N1157 N 0.05245 0.28141 0.12458 0.0
C1158 C 0.90958 0.12747 0.12435 0.0
C1159 C 0.00484 0.2328 0.12654 0.0
N1160 N 0.85919 0.16966 0.11594 0.0
N1161 N 0.04908 0.19263 0.14204 0.0
H1162 H 0.0551 0.31528 0.11852 0.0
H1163 H 0.09015 0.28676 0.12717 0.0
H1164 H 0.05067 0.15917 0.1464 0.0
H1165 H 0.08211 0.23017 0.14623 0.0
H1166 H 0.82192 0.13401 0.11766 0.0
H1167 H 0.85603 0.20241 0.11193 0.0
H1168 H 0.83118 0.06724 0.1146 0.0
H1169 H 0.86602 0.04126 0.12567 0.0
C1170 C 0.86195 0.76621 0.10137 0.0
C1171 C 0.8145 0.75502 0.09183 0.0
C1172 C 0.84253 0.85144 0.09494 0.0
C1173 C 0.89251 0.86355 0.10259 0.0
N1174 N 0.95454 0.83396 0.1093 0.0
N1175 N 0.76683 0.78962 0.07543 0.0
C1176 C 0.90368 0.82138 0.10473 0.0
C1177 C 0.80692 0.79846 0.08739 0.0
N1178 N 0.86633 0.7246 0.10809 0.0
N1179 N 0.8278 0.8897 0.09561 0.0
H1180 H 0.74137 0.75186 0.06888 0.0
H1181 H 0.76284 0.82107 0.07042 0.0
H1182 H 0.85157 0.92842 0.10176 0.0
H1183 H 0.78945 0.88094 0.09188 0.0
H1184 H 0.89742 0.73114 0.1169 0.0
H1185 H 0.83645 0.68356 0.10643 0.0
H1186 H 0.96614 0.80511 0.10916 0.0
H1187 H 0.9865 0.87399 0.11147 0.0
C1188 C 0.09813 0.25187 0.41743 0.0
C1189 C 0.07879 0.27911 0.40687 0.0
C1190 C 0.03805 0.20291 0.38432 0.0
C1191 C 0.05619 0.17507 0.39513 0.0
N1192 N 0.11747 0.17917 0.41814 0.0
N1193 N 0.04665 0.28924 0.37746 0.0
C1194 C 0.09116 0.20187 0.41041 0.0
C1195 C 0.05409 0.25745 0.38935 0.0
N1196 N 0.12003 0.27181 0.43462 0.0
N1197 N 0.00269 0.17635 0.37005 0.0
H1198 H 0.05829 0.32965 0.38065 0.0
H1199 H 0.03399 0.27746 0.36377 0.0
H1200 H -0.01 0.13641 0.3659 0.0
H1201 H 0.98318 0.19265 0.36313 0.0
H1202 H 0.12924 0.25034 0.44376 0.0
H1203 H 0.12519 0.30799 0.44043 0.0
H1204 H 0.14717 0.19895 0.42829 0.0
H1205 H 0.11342 0.14278 0.41298 0.0
C1206 C 0.73271 0.86409 0.40956 0.0
C1207 C 0.71532 0.81088 0.40223 0.0
C1208 C 0.80365 0.84478 0.38756 0.0
C1209 C 0.82021 0.89812 0.39436 0.0
N1210 N 0.79829 0.96142 0.4083 0.0
N1211 N 0.72972 0.75334 0.38065 0.0
C1212 C 0.78387 0.90866 0.40422 0.0
C1213 C 0.74945 0.80202 0.39016 0.0
N1214 N 0.70176 0.87158 0.42239 0.0
N1215 N 0.84036 0.83426 0.37942 0.0
H1216 H 0.69044 0.72065 0.38216 0.0
H1217 H 0.75069 0.74699 0.36999 0.0
H1218 H 0.88019 0.86455 0.3767 0.0
H1219 H 0.83239 0.7949 0.37657 0.0
H1220 H 0.71482 0.90826 0.42969 0.0
H1221 H 0.66462 0.83984 0.42699 0.0
H1222 H 0.77181 0.97239 0.41389 0.0
H1223 H 0.83554 -0.00529 0.40445 0.0
C1224 C 0.14055 0.91042 0.40002 0.0
C1225 C 0.18998 0.958 0.40553 0.0
C1226 C 0.15036 0.01427 0.4015 0.0
C1227 C 0.09938 0.96616 0.39815 0.0
N1228 N 0.04401 0.86837 0.39486 0.0
N1229 N 0.24165 0.05457 0.41302 0.0
C1230 C 0.09394 0.91412 0.39742 0.0
C1231 C 0.19475 0.00974 0.40675 0.0
N1232 N 0.13835 0.86189 0.39726 0.0
N1233 N 0.15681 0.06441 0.39881 0.0
H1234 H 0.27625 0.05369 0.41606 0.0
H1235 H 0.2453 0.09192 0.41641 0.0
H1236 H 0.12555 0.06949 0.39447 0.0
H1237 H 0.1941 0.10076 0.39906 0.0
H1238 H 0.10555 0.82715 0.3913 0.0
H1239 H 0.17081 0.85699 0.39998 0.0
H1240 H 0.03597 0.82875 0.3961 0.0
H1241 H 0.00951 0.87006 0.39246 0.0
C1242 C 0.80572 0.01605 0.90793 0.0
C1243 C 0.76375 0.96297 0.91261 0.0
C1244 C 0.81503 0.9249 0.89832 0.0
C1245 C 0.86071 0.97829 0.8976 0.0
N1246 N 0.90141 0.07552 0.90316 0.0
N1247 N 0.72802 0.86565 0.91257 0.0
C1248 C 0.85644 0.02422 0.90254 0.0
C1249 C 0.76766 0.91674 0.90754 0.0
N1250 N 0.7968 0.05845 0.90827 0.0
N1251 N 0.81761 0.88223 0.89058 0.0
H1252 H 0.69333 0.85802 0.91971 0.0
H1253 H 0.73132 0.83128 0.91094 0.0
H1254 H 0.85226 0.88781 0.88389 0.0
H1255 H 0.78431 0.84271 0.88924 0.0
H1256 H 0.82464 0.09695 0.90332 0.0
H1257 H 0.75932 0.05353 0.91149 0.0
H1258 H 0.90141 0.10947 0.90875 0.0
H1259 H 0.93972 0.08352 0.8995 0.0
C1260 C 0.01717 0.80818 0.89658 0.0
C1261 C 0.06664 0.81559 0.90304 0.0
C1262 C 0.1127 0.91345 0.89679 0.0
C1263 C 0.06309 0.90575 0.89065 0.0
N1264 N 0.97254 0.84562 0.87969 0.0
N1265 N 0.1639 0.87156 0.90467 0.0
C1266 C 0.01698 0.85274 0.8887 0.0
C1267 C 0.11532 0.86718 0.90172 0.0
N1268 N 0.96981 0.75981 0.89918 0.0
N1269 N 0.1565 0.96519 0.89863 0.0
H1270 H 0.16734 0.83835 0.90802 0.0
H1271 H 0.20091 0.90692 0.90224 0.0
H1272 H 0.15602 -0.00075 0.89416 0.0
H1273 H 0.19218 0.97449 0.90517 0.0
H1274 H 0.93196 0.75402 0.89651 0.0
H1275 H 0.96765 0.72668 0.90565 0.0
H1276 H 0.93928 0.80747 0.87619 0.0
H1277 H 0.9714 0.87822 0.87416 0.0
C1278 C 0.21777 0.24016 0.92993 0.0
C1279 C 0.21412 0.28516 0.92445 0.0
C1280 C 0.12361 0.22205 0.91191 0.0
C1281 C 0.13099 0.17776 0.91497 0.0
N1282 N 0.19133 0.14668 0.92298 0.0
N1283 N 0.167 0.31886 0.90702 0.0
C1284 C 0.17973 0.18724 0.92295 0.0
C1285 C 0.16788 0.27625 0.91462 0.0
N1286 N 0.25663 0.24766 0.94221 0.0
N1287 N 0.07403 0.21252 0.90698 0.0
H1288 H 0.1986 0.35924 0.90831 0.0
H1289 H 0.13693 0.31349 0.89793 0.0
H1290 H 0.04019 0.17332 0.9054 0.0
H1291 H 0.06527 0.24338 0.90633 0.0
H1292 H 0.25785 0.21535 0.94792 0.0
H1293 H 0.28379 0.28564 0.9483 0.0
H1294 H 0.22875 0.15345 0.92701 0.0
H1295 H 0.16621 0.10793 0.91705 0.0
C1296 C -0.00153 0.8021 0.61553 0.0
C1297 C 0.95081 0.75325 0.6206 0.0
C1298 C 0.91813 0.8066 0.63718 0.0
C1299 C 0.96607 0.85508 0.63221 0.0
N1300 N 0.05955 0.89765 0.62297 0.0
N1301 N 0.87662 0.7099 0.64224 0.0
C1302 C 0.00906 0.85209 0.62376 0.0
C1303 C 0.91417 0.75572 0.63339 0.0
N1304 N 0.03136 0.80206 0.60173 0.0
N1305 N 0.87531 0.80848 0.64439 0.0
H1306 H 0.87539 0.673 0.64074 0.0
H1307 H 0.8517 0.71043 0.65272 0.0
H1308 H 0.87637 0.84492 0.64707 0.0
H1309 H 0.83753 0.77362 0.64642 0.0
H1310 H 0.06349 0.83783 0.59642 0.0
H1311 H 0.02352 0.76732 0.59408 0.0
H1312 H 0.09328 0.89645 0.61847 0.0
H1313 H 0.06846 0.93546 0.62852 0.0
C1314 C 0.21411 0.21091 0.60194 0.0
C1315 C 0.2593 0.21026 0.60885 0.0
C1316 C 0.19862 0.12653 0.6255 0.0
C1317 C 0.154 0.12998 0.61974 0.0
N1318 N 0.12153 0.18514 0.60738 0.0
N1319 N 0.29467 0.1763 0.6315 0.0
C1320 C 0.16249 0.1753 0.60951 0.0
C1321 C 0.25169 0.17068 0.62193 0.0
N1322 N 0.21964 0.24322 0.58748 0.0
N1323 N 0.1907 0.0804 0.63356 0.0
H1324 H 0.33376 0.20958 0.63 0.0
H1325 H 0.29051 0.15132 0.64239 0.0
H1326 H 0.1525 0.04646 0.6359 0.0
H1327 H 0.22208 0.07392 0.63635 0.0
H1328 H 0.18677 0.2409 0.58086 0.0
H1329 H 0.25618 0.26788 0.58072 0.0
H1330 H 0.12717 0.22047 0.60146 0.0
H1331 H 0.0836 0.16127 0.61343 0.0
C1332 C 0.83069 0.06852 0.59119 0.0
C1333 C 0.79362 0.06118 0.60554 0.0
C1334 C 0.84191 0.03682 0.62684 0.0
C1335 C 0.8815 0.04828 0.61298 0.0
N1336 N 0.92126 0.08985 0.5838 0.0
N1337 N 0.77565 0.05709 0.6385 0.0
C1338 C 0.87839 0.06894 0.59571 0.0
C1339 C 0.803 0.0514 0.62386 0.0
N1340 N 0.81929 0.07197 0.57314 0.0
N1341 N 0.83858 0.0086 0.64225 0.0
H1342 H 0.74848 0.07023 0.637 0.0
H1343 H 0.78485 0.05506 0.65226 0.0
H1344 H 0.86342 0.99311 0.64456 0.0
H1345 H 0.80701 -0.00482 0.65176 0.0
H1346 H 0.84265 0.07174 0.56205 0.0
H1347 H 0.78386 0.06969 0.56902 0.0
H1348 H 0.92277 0.10984 0.57176 0.0
H1349 H 0.95759 0.09257 0.58698 0.0
C1350 C 0.88698 0.35941 0.46377 0.0
C1351 C 0.9253 0.40204 0.45247 0.0
C1352 C 0.86911 0.44288 0.45244 0.0
C1353 C 0.83092 0.40003 0.46359 0.0
N1354 N 0.80947 0.3266 0.48401 0.0
N1355 N 0.95994 0.49149 0.43995 0.0
C1356 C 0.8422 0.36163 0.47075 0.0
C1357 C 0.91861 0.44613 0.448 0.0
N1358 N 0.89091 0.31464 0.46665 0.0
N1359 N 0.85705 0.47927 0.44563 0.0
H1360 H -0.00309 0.49546 0.4366 0.0
H1361 H 0.95943 0.52706 0.43802 0.0
H1362 H 0.82249 0.47968 0.44963 0.0
H1363 H 0.87987 0.50734 0.43552 0.0
H1364 H 0.8608 0.27964 0.47302 0.0
H1365 H 0.92182 0.30999 0.46118 0.0
H1366 H 0.81967 0.30272 0.4915 0.0
H1367 H 0.77508 0.32583 0.48894 0.0
C1368 C 0.62818 0.54411 0.45577 0.0
C1369 C 0.61423 0.54152 0.43676 0.0
C1370 C 0.59162 0.4465 0.43515 0.0
C1371 C 0.61759 0.45408 0.45243 0.0
N1372 N 0.66889 0.51495 0.47798 0.0
N1373 N 0.58922 0.49048 0.40748 0.0
C1374 C 0.63781 0.50404 0.46255 0.0
C1375 C 0.59687 0.49246 0.42621 0.0
N1376 N 0.63038 0.58344 0.46756 0.0
N1377 N 0.56289 0.39544 0.42715 0.0
H1378 H 0.5964 0.52407 0.39997 0.0
H1379 H 0.58151 0.45697 0.39906 0.0
H1380 H 0.55808 0.36103 0.43359 0.0
H1381 H 0.53943 0.38674 0.41527 0.0
H1382 H 0.6365 0.58404 0.4818 0.0
H1383 H 0.61913 0.61084 0.46358 0.0
H1384 H 0.68921 0.55335 0.48458 0.0
H1385 H 0.67723 0.48683 0.48339 0.0
C1386 C 0.47425 0.10129 0.45785 0.0
C1387 C 0.47968 0.07881 0.44074 0.0
C1388 C 0.57305 0.15475 0.43835 0.0
C1389 C 0.5637 0.18219 0.45328 0.0
N1390 N 0.50335 0.18309 0.47662 0.0
N1391 N 0.53359 0.08442 0.41412 0.0
C1392 C 0.51411 0.15562 0.4631 0.0
C1393 C 0.5292 0.10519 0.43092 0.0
N1394 N 0.43165 0.0703 0.46931 0.0
N1395 N 0.62413 0.17591 0.43149 0.0
H1396 H 0.50228 0.04823 0.40821 0.0
H1397 H 0.56676 0.10511 0.40539 0.0
H1398 H 0.65718 0.21151 0.43705 0.0
H1399 H 0.63461 0.15548 0.42172 0.0
H1400 H 0.42887 0.08256 0.48283 0.0
H1401 H 0.4019 0.02998 0.46608 0.0
H1402 H 0.46536 0.16745 0.48261 0.0
H1403 H 0.53091 0.22311 0.48091 0.0
C1404 C 0.77154 0.58412 0.7583 0.0
C1405 C 0.75033 0.6123 0.74933 0.0
C1406 C 0.70343 0.53651 0.7267 0.0
C1407 C 0.72421 0.5082 0.7358 0.0
N1408 N 0.7896 0.51037 0.75651 0.0
N1409 N 0.71087 0.62341 0.72182 0.0
C1410 C 0.76229 0.534 0.75037 0.0
C1411 C 0.72087 0.59102 0.7325 0.0
N1412 N 0.79782 0.60353 0.7749 0.0
N1413 N 0.66492 0.51049 0.71326 0.0
H1414 H 0.7244 0.66409 0.72538 0.0
H1415 H 0.69415 0.6118 0.70857 0.0
H1416 H 0.65207 0.47098 0.70838 0.0
H1417 H 0.64344 0.52678 0.70775 0.0
H1418 H 0.80888 0.5816 0.78309 0.0
H1419 H 0.80501 0.63987 0.78126 0.0
H1420 H 0.82143 0.52937 0.76594 0.0
H1421 H 0.78388 0.47389 0.75071 0.0
C1422 C 0.44439 0.12843 0.74453 0.0
C1423 C 0.39719 0.12763 0.73911 0.0
C1424 C 0.45268 0.217 0.72493 0.0
C1425 C 0.49954 0.21681 0.72993 0.0
N1426 N 0.53897 0.16408 0.73837 0.0
N1427 N 0.35701 0.16165 0.71854 0.0
C1428 C 0.49496 0.16963 0.73768 0.0
C1429 C 0.40147 0.16905 0.72755 0.0
N1430 N 0.44182 0.09246 0.75712 0.0
N1431 N 0.45663 0.2633 0.71854 0.0
H1432 H 0.31999 0.12513 0.71909 0.0
H1433 H 0.35858 0.18857 0.70881 0.0
H1434 H 0.49348 0.29947 0.71675 0.0
H1435 H 0.42318 0.26699 0.71646 0.0
H1436 H 0.47607 0.09551 0.76288 0.0
H1437 H 0.40604 0.06299 0.76327 0.0
H1438 H 0.53662 0.12824 0.74233 0.0
H1439 H 0.57651 0.19295 0.733 0.0
C1440 C 0.86227 0.33527 0.74963 0.0
C1441 C 0.85457 0.28229 0.74857 0.0
C1442 C 0.76307 0.24484 0.73623 0.0
C1443 C 0.77195 0.29835 0.73658 0.0
N1444 N 0.83352 0.3958 0.7394 0.0
N1445 N 0.80246 0.18818 0.73793 0.0
C1446 C 0.82271 0.34397 0.74201 0.0
C1447 C 0.80628 0.23737 0.74103 0.0
N1448 N 0.90654 0.37691 0.75856 0.0
N1449 N 0.71299 0.20119 0.73201 0.0
H1450 H 0.83302 0.18112 0.74149 0.0
H1451 H 0.77084 0.1556 0.73064 0.0
H1452 H 0.68094 0.20545 0.72804 0.0
H1453 H 0.70219 0.16073 0.73351 0.0
H1454 H 0.91139 0.41497 0.76159 0.0
H1455 H 0.93636 0.37203 0.76447 0.0
H1456 H 0.87164 0.43062 0.74119 0.0
H1457 H 0.80562 0.40387 0.73368 0.0
C1458 C 0.44113 0.28842 0.2491 0.0
C1459 C 0.41349 0.3069 0.23829 0.0
C1460 C 0.48115 0.3327 0.21372 0.0
C1461 C 0.5078 0.31309 0.22438 0.0
N1462 N 0.5028 0.25524 0.24879 0.0
N1463 N 0.39636 0.32612 0.20749 0.0
C1464 C 0.48377 0.28467 0.24085 0.0
C1465 C 0.42996 0.32252 0.21967 0.0
N1466 N 0.4299 0.27845 0.26754 0.0
N1467 N 0.50578 0.36391 0.19866 0.0
H1468 H 0.357 0.31535 0.21089 0.0
H1469 H 0.40515 0.33303 0.19341 0.0
H1470 H 0.54362 0.37287 0.194 0.0
H1471 H 0.49024 0.38411 0.19169 0.0
H1472 H 0.45281 0.26995 0.27626 0.0
H1473 H 0.40174 0.28437 0.27466 0.0
H1474 H 0.48404 0.23011 0.26002 0.0
H1475 H 0.53384 0.25158 0.24278 0.0
C1476 C 0.66383 0.14861 0.23265 0.0
C1477 C 0.71648 0.15772 0.23455 0.0
C1478 C 0.75638 0.25509 0.22832 0.0
C1479 C 0.70363 0.24556 0.22611 0.0
N1480 N 0.60777 0.18292 0.22262 0.0
N1481 N 0.81304 0.2167 0.23244 0.0
C1482 C 0.65753 0.19212 0.22721 0.0
C1483 C 0.7629 0.21018 0.23181 0.0
N1484 N 0.61987 0.09884 0.23681 0.0
N1485 N 0.79984 0.30733 0.22788 0.0
H1486 H 0.8192 0.18542 0.23608 0.0
H1487 H 0.84834 0.25198 0.22853 0.0
H1488 H 0.79641 0.34079 0.2249 0.0
H1489 H 0.83899 0.31828 0.23131 0.0
H1490 H 0.58073 0.09128 0.23784 0.0
H1491 H 0.62279 0.06567 0.24065 0.0
H1492 H 0.57348 0.14418 0.22105 0.0
H1493 H 0.60139 0.21393 0.21879 0.0
C1494 C 0.88167 0.57925 0.24276 0.0
C1495 C 0.88264 0.62771 0.23848 0.0
C1496 C 0.79402 0.57322 0.22356 0.0
C1497 C 0.79475 0.52528 0.227 0.0
N1498 N 0.84824 0.48533 0.23355 0.0
N1499 N 0.84858 0.67042 0.219 0.0
C1500 C 0.84165 0.52922 0.2345 0.0
C1501 C 0.84152 0.62467 0.22706 0.0
N1502 N 0.91626 0.57985 0.25557 0.0
N1503 N 0.74773 0.57011 0.21791 0.0
H1504 H 0.88456 0.70799 0.22016 0.0
H1505 H 0.82163 0.66941 0.20935 0.0
H1506 H 0.71147 0.53319 0.21589 0.0
H1507 H 0.74424 0.60434 0.2169 0.0
H1508 H 0.91312 0.54427 0.26027 0.0
H1509 H 0.94401 0.61477 0.26307 0.0
H1510 H 0.88392 0.48775 0.23745 0.0
H1511 H 0.82065 0.44852 0.22684 0.0
C1512 C 0.56427 0.08494 0.9363 0.0
C1513 C 0.60223 0.07605 0.92657 0.0
C1514 C 0.67016 0.17325 0.92946 0.0
C1515 C 0.63081 0.18289 0.9375 0.0
N1516 N 0.53803 0.14995 0.94554 0.0
N1517 N 0.6868 0.1132 0.9101 0.0
C1518 C 0.57709 0.13932 0.94006 0.0
C1519 C 0.65389 0.12068 0.92202 0.0
N1520 N 0.51722 0.04183 0.94275 0.0
N1521 N 0.72353 0.2136 0.92965 0.0
H1522 H 0.67553 0.07548 0.90381 0.0
H1523 H 0.72273 0.14537 0.90492 0.0
H1524 H 0.73764 0.25244 0.93551 0.0
H1525 H 0.75438 0.20686 0.92573 0.0
H1526 H 0.49132 0.04644 0.95176 0.0
H1527 H 0.50617 0.00124 0.94057 0.0
H1528 H 0.49708 0.12021 0.94581 0.0
H1529 H 0.54597 0.18944 0.94817 0.0
C1530 C 0.90174 0.54574 0.93691 0.0
C1531 C 0.94841 0.54657 0.94305 0.0
C1532 C 0.8904 0.45993 0.95864 0.0
C1533 C 0.84443 0.4622 0.95384 0.0
N1534 N 0.81038 0.51936 0.94476 0.0
N1535 N 0.98566 0.51394 0.96557 0.0
C1536 C 0.85149 0.50921 0.94509 0.0
C1537 C 0.94249 0.50648 0.95567 0.0
N1538 N 0.90419 0.57707 0.92259 0.0
N1539 N 0.88501 0.41323 0.96521 0.0
H1540 H 0.02306 0.55013 0.96533 0.0
H1541 H 0.98216 0.48753 0.97587 0.0
H1542 H 0.8477 0.37757 0.96681 0.0
H1543 H 0.9179 0.4086 0.96733 0.0
H1544 H 0.8698 0.57398 0.91691 0.0
H1545 H 0.939 0.6007 0.91483 0.0
H1546 H 0.81529 0.55534 0.93967 0.0
H1547 H 0.77383 0.49511 0.95162 0.0
C1548 C 0.53947 0.42522 0.93703 0.0
C1549 C 0.4887 0.39737 0.94619 0.0
C1550 C 0.52782 0.36918 0.97013 0.0
C1551 C 0.578 0.39635 0.96075 0.0
N1552 N 0.63638 0.46817 0.94029 0.0
N1553 N 0.44265 0.36386 0.97545 0.0
C1554 C 0.58536 0.43124 0.94608 0.0
C1555 C 0.48537 0.37607 0.96407 0.0
N1556 N 0.54365 0.44181 0.91919 0.0
N1557 N 0.51927 0.33435 0.98402 0.0
H1558 H 0.41267 0.3719 0.97201 0.0
H1559 H 0.44069 0.35231 0.98914 0.0
H1560 H 0.54941 0.32861 0.98892 0.0
H1561 H 0.48139 0.30891 0.98983 0.0
H1562 H 0.57929 0.45774 0.91156 0.0
H1563 H 0.51072 0.43423 0.91122 0.0
H1564 H 0.6445 0.4975 0.93049 0.0
H1565 H 0.67044 0.47282 0.94687 0.0
C1566 C 0.54096 0.66742 0.79178 0.0
C1567 C 0.58461 0.72203 0.79085 0.0
C1568 C 0.52363 0.75559 0.79788 0.0
C1569 C 0.47924 0.7013 0.79614 0.0
N1570 N 0.44447 0.60517 0.78988 0.0
N1571 N 0.61826 0.81862 0.79114 0.0
C1572 C 0.48757 0.65703 0.79279 0.0
C1573 C 0.57631 0.76639 0.79355 0.0
N1574 N 0.55056 0.62546 0.79183 0.0
N1575 N 0.51535 0.79669 0.80342 0.0
H1576 H 0.65709 0.82778 0.78768 0.0
H1577 H 0.61382 0.8524 0.79108 0.0
H1578 H 0.47706 0.79021 0.80619 0.0
H1579 H 0.54653 0.83623 0.80673 0.0
H1580 H 0.52098 0.58536 0.7947 0.0
H1581 H 0.58909 0.6313 0.7905 0.0
H1582 H 0.44819 0.57274 0.78496 0.0
H1583 H 0.40441 0.59478 0.79131 0.0
C1584 C 0.24314 0.80436 0.76008 0.0
C1585 C 0.26007 0.85091 0.77199 0.0
C1586 C 0.28489 0.80871 0.79581 0.0
C1587 C 0.26648 0.76153 0.78421 0.0
N1588 N 0.21209 0.7078 0.75806 0.0
N1589 N 0.27543 0.88584 0.80367 0.0
C1590 C 0.23991 0.75711 0.7673 0.0
C1591 C 0.27368 0.84919 0.79071 0.0
N1592 N 0.23391 0.80607 0.74166 0.0
N1593 N 0.31696 0.81759 0.81078 0.0
H1594 H 0.26442 0.91414 0.80064 0.0
H1595 H 0.28129 0.88345 0.81776 0.0
H1596 H 0.32968 0.79105 0.81427 0.0
H1597 H 0.3354 0.85411 0.81855 0.0
H1598 H 0.22713 0.77501 0.73215 0.0
H1599 H 0.23787 0.84025 0.73545 0.0
H1600 H 0.18815 0.70109 0.74647 0.0
H1601 H 0.20839 0.6724 0.76326 0.0
C1602 C 0.11867 0.41086 0.79117 0.0
C1603 C 0.12213 0.3828 0.77511 0.0
C1604 C 0.21458 0.45801 0.76995 0.0
C1605 C 0.20755 0.48925 0.78407 0.0
N1606 N 0.14858 0.49867 0.80597 0.0
N1607 N 0.17077 0.3832 0.74752 0.0
C1608 C 0.15857 0.46658 0.7942 0.0
C1609 C 0.16953 0.40713 0.76407 0.0
N1610 N 0.07852 0.3841 0.80391 0.0
N1611 N 0.26454 0.47644 0.76245 0.0
H1612 H 0.13799 0.34683 0.74235 0.0
H1613 H 0.2024 0.40215 0.73808 0.0
H1614 H 0.29872 0.51301 0.7668 0.0
H1615 H 0.27305 0.45291 0.75336 0.0
H1616 H 0.07802 0.40151 0.81676 0.0
H1617 H 0.04897 0.3428 0.80264 0.0
H1618 H 0.11103 0.48513 0.81207 0.0
H1619 H 0.17576 0.54027 0.80825 0.0
C1620 C 0.39762 0.93825 0.06043 0.0
C1621 C 0.42985 0.96523 0.07636 0.0
C1622 C 0.45242 0.89424 0.07774 0.0
C1623 C 0.41113 0.86198 0.06465 0.0
N1624 N 0.33784 0.85092 0.04556 0.0
N1625 N 0.48378 0.96518 0.10163 0.0
C1626 C 0.38215 0.88338 0.05636 0.0
C1627 C 0.4568 0.94265 0.08532 0.0
N1628 N 0.38319 0.96535 0.04882 0.0
N1629 N 0.4874 0.87851 0.08288 0.0
H1630 H 0.4858 -0.00094 0.10822 0.0
H1631 H 0.49952 0.9469 0.10957 0.0
H1632 H 0.48581 0.84379 0.07715 0.0
H1633 H 0.52114 0.90287 0.09119 0.0
H1634 H 0.36327 0.94837 0.03626 0.0
H1635 H 0.39678 0.00678 0.05055 0.0
H1636 H 0.3123 0.86366 0.04097 0.0
H1637 H 0.32385 0.81003 0.04245 0.0
C1638 C 0.09266 0.54697 0.07406 0.0
C1639 C 0.08497 0.50493 0.08603 0.0
C1640 C 0.18134 0.53811 0.08418 0.0
C1641 C 0.1903 0.58499 0.07481 0.0
N1642 N 0.15457 0.63859 0.06365 0.0
N1643 N 0.12485 0.46878 0.10591 0.0
C1644 C 0.14599 0.59078 0.07048 0.0
C1645 C 0.13012 0.50282 0.09208 0.0
N1646 N 0.04957 0.54395 0.0654 0.0
N1647 N 0.22092 0.52575 0.08488 0.0
H1648 H 0.08862 0.44421 0.11286 0.0
H1649 H 0.15783 0.46969 0.11189 0.0
H1650 H 0.25806 0.54848 0.07822 0.0
H1651 H 0.21438 0.48931 0.09013 0.0
H1652 H 0.05377 0.57087 0.05519 0.0
H1653 H 0.0101 0.51126 0.06685 0.0
H1654 H 0.12369 0.64654 0.06193 0.0
H1655 H 0.19302 0.67233 0.06147 0.0
C1656 C 0.54769 0.66496 0.0619 0.0
C1657 C 0.53111 0.60924 0.06377 0.0
C1658 C 0.43734 0.58118 0.05677 0.0
C1659 C 0.4538 0.63694 0.05552 0.0
N1660 N 0.52437 0.73095 0.05276 0.0
N1661 N 0.46355 0.51375 0.05966 0.0
C1662 C 0.50907 0.6785 0.05676 0.0
C1663 C 0.47695 0.56708 0.06002 0.0
N1664 N 0.60022 0.70495 0.06536 0.0
N1665 N 0.38364 0.54216 0.05574 0.0
H1666 H 0.49104 0.50204 0.06279 0.0
H1667 H 0.4263 0.48126 0.05523 0.0
H1668 H 0.35419 0.5513 0.05263 0.0
H1669 H 0.3678 0.50126 0.05866 0.0
H1670 H 0.61368 0.74636 0.06654 0.0
H1671 H 0.63063 0.69679 0.06791 0.0
H1672 H 0.56426 0.76272 0.05152 0.0
H1673 H 0.49663 0.74186 0.04917 0.0
C1674 C 0.10427 0.64619 0.55738 0.0
C1675 C 0.08605 0.62583 0.57543 0.0
C1676 C 0.15193 0.5968 0.57569 0.0
C1677 C 0.17835 0.62969 0.56022 0.0
N1678 N 0.18277 0.69297 0.53788 0.0
N1679 N 0.09754 0.58558 0.60279 0.0
C1680 C 0.155 0.65569 0.55121 0.0
C1681 C 0.1104 0.60106 0.5848 0.0
N1682 N 0.07301 0.65587 0.54604 0.0
N1683 N 0.16768 0.56269 0.58193 0.0
H1684 H 0.07004 0.59088 0.61059 0.0
H1685 H 0.11842 0.57249 0.61062 0.0
H1686 H 0.1979 0.55881 0.57533 0.0
H1687 H 0.14701 0.53445 0.59224 0.0
H1688 H 0.08316 0.66688 0.53225 0.0
H1689 H 0.03412 0.64628 0.54967 0.0
H1690 H 0.16908 0.71668 0.53226 0.0
H1691 H 0.22138 0.70341 0.53361 0.0
C1692 C 0.43708 0.53068 0.56797 0.0
C1693 C 0.38972 0.47792 0.56907 0.0
C1694 C 0.33682 0.51186 0.5549 0.0
C1695 C 0.3822 0.56557 0.55607 0.0
N1696 N 0.47511 0.62804 0.56411 0.0
N1697 N 0.29274 0.42016 0.56639 0.0
C1698 C 0.43247 0.57551 0.56256 0.0
C1699 C 0.33916 0.46882 0.56308 0.0
N1700 N 0.48643 0.53764 0.57165 0.0
N1701 N 0.2911 0.50238 0.54615 0.0
H1702 H 0.29211 0.38839 0.5733 0.0
H1703 H 0.25425 0.41313 0.56406 0.0
H1704 H 0.28798 0.53363 0.54043 0.0
H1705 H 0.25845 0.46343 0.54308 0.0
H1706 H 0.52284 0.5736 0.56917 0.0
H1707 H 0.49133 0.50616 0.57603 0.0
H1708 H 0.51107 0.63912 0.57082 0.0
H1709 H 0.47344 0.6611 0.55928 0.0
C1710 C 0.54968 0.91803 0.55499 0.0
C1711 C 0.55604 0.9419 0.57304 0.0
C1712 C 0.46228 0.87265 0.57986 0.0
C1713 C 0.46032 0.84335 0.56341 0.0
N1714 N 0.50875 0.83305 0.53748 0.0
N1715 N 0.5199 0.93478 0.60409 0.0
C1716 C 0.50567 0.8646 0.55146 0.0
C1717 C 0.51259 0.91769 0.58589 0.0
N1718 N 0.5843 0.94671 0.54099 0.0
N1719 N 0.41618 0.85732 0.58973 0.0
H1720 H 0.55702 0.96474 0.60959 0.0
H1721 H 0.49047 0.91477 0.6142 0.0
H1722 H 0.37849 0.82496 0.58543 0.0
H1723 H 0.41467 0.88023 0.60098 0.0
H1724 H 0.57816 0.93184 0.5273 0.0
H1725 H 0.61474 0.9876 0.54254 0.0
H1726 H 0.54375 0.84572 0.52971 0.0
H1727 H 0.47844 0.7927 0.53472 0.0
C1728 C 0.22036 0.41866 0.28482 0.0
C1729 C 0.25303 0.41133 0.2715 0.0
C1730 C 0.31804 0.50942 0.27299 0.0
C1731 C 0.28078 0.5177 0.28336 0.0
N1732 N 0.19251 0.4798 0.29721 0.0
N1733 N 0.32757 0.45265 0.24984 0.0
C1734 C 0.23083 0.47223 0.28888 0.0
C1735 C 0.30058 0.45749 0.26478 0.0
N1736 N 0.18093 0.37511 0.29416 0.0
N1737 N 0.37049 0.55098 0.27121 0.0
H1738 H 0.31396 0.4161 0.24236 0.0
H1739 H 0.35977 0.48628 0.24353 0.0
H1740 H 0.38557 0.58928 0.27767 0.0
H1741 H 0.40018 0.54534 0.26514 0.0
H1742 H 0.15956 0.37923 0.3052 0.0
H1743 H 0.17379 0.33572 0.29231 0.0
H1744 H 0.15344 0.44778 0.29986 0.0
H1745 H 0.19822 0.51835 0.29999 0.0
C1746 C 0.58766 0.83173 0.27471 0.0
C1747 C 0.59203 0.87874 0.26668 0.0
C1748 C 0.49879 0.84679 0.27556 0.0
C1749 C 0.49192 0.79635 0.28084 0.0
N1750 N 0.52799 0.73774 0.28362 0.0
N1751 N 0.54727 0.92432 0.25589 0.0
C1752 C 0.5359 0.78793 0.28003 0.0
C1753 C 0.54638 0.88455 0.26617 0.0
N1754 N 0.63281 0.82956 0.27796 0.0
N1755 N 0.46007 0.85905 0.27981 0.0
H1756 H 0.58012 0.95085 0.24775 0.0
H1757 H 0.51317 0.92684 0.25372 0.0
H1758 H 0.42528 0.833 0.28728 0.0
H1759 H 0.46536 0.89738 0.27777 0.0
H1760 H 0.6323 0.79908 0.28563 0.0
H1761 H 0.67163 0.86073 0.2746 0.0
H1762 H 0.55726 0.72754 0.28123 0.0
H1763 H 0.49077 0.7049 0.28767 0.0
C1764 C 0.15344 0.74719 0.29623 0.0
C1765 C 0.1526 0.7602 0.27739 0.0
C1766 C 0.24456 0.77869 0.27395 0.0
C1767 C 0.23827 0.75053 0.29046 0.0
N1768 N 0.1861 0.70801 0.31788 0.0
N1769 N 0.19862 0.78626 0.24769 0.0
C1770 C 0.19313 0.73582 0.30204 0.0
C1771 C 0.19903 0.77684 0.26613 0.0
N1772 N 0.11689 0.74644 0.30859 0.0
N1773 N 0.29379 0.80535 0.26546 0.0
H1774 H 0.16547 0.78246 0.24084 0.0
H1775 H 0.22979 0.79284 0.23869 0.0
H1776 H 0.32758 0.80702 0.27114 0.0
H1777 H 0.30208 0.83026 0.25413 0.0
H1778 H 0.11858 0.74151 0.32277 0.0
H1779 H 0.08892 0.75713 0.30498 0.0
H1780 H 0.15052 0.69058 0.32559 0.0
H1781 H 0.21456 0.69959 0.32272 0.0
loop_
_geom_bond_atom_site_label_1
_geom_bond_atom_site_label_2
_geom_bond_distance
_geom_bond_site_symmetry_2
_ccdc_geom_bond_type
C0 O1 1.160 . S
C0 O7 1.185 . S
O1 C0 1.160 . S
O2 Zn3 1.899 1_565 S
O2 C10 1.284 . S
Zn3 O2 1.899 1_545 S
Zn3 O4 2.032 . S
Zn3 O7 2.086 . S
Zn3 O12 1.977 . S
O4 Zn3 2.032 . S
O4 C8 1.278 1_545 S
C5 O6 1.203 1_545 S
C5 O12 1.267 . S
O6 C5 1.203 1_565 S
O7 C0 1.185 . S
O7 Zn3 2.086 . S
C8 O4 1.278 1_565 S
C8 O9 1.211 . S
O9 C8 1.211 . S
C10 O2 1.284 . S
C10 O11 1.273 . S
O11 C10 1.273 . S
O12 Zn3 1.977 . S
O12 C5 1.267 . S
C13 O14 1.160 . S
C13 O20 1.185 . S
O14 C13 1.160 . S
O15 Zn16 1.899 1_655 S
O15 C23 1.284 . S
Zn16 O15 1.899 1_455 S
Zn16 O17 2.032 . S
Zn16 O20 2.086 . S
Zn16 O25 1.977 . S
O17 Zn16 2.032 . S
O17 C21 1.278 1_455 S
C18 O19 1.203 1_455 S
C18 O25 1.267 . S
O19 C18 1.203 1_655 S
O20 C13 1.185 . S
O20 Zn16 2.086 . S
C21 O17 1.278 1_655 S
C21 O22 1.211 . S
O22 C21 1.211 . S
C23 O15 1.284 . S
C23 O24 1.273 . S
O24 C23 1.273 . S
O25 Zn16 1.977 . S
O25 C18 1.267 . S
C26 O27 1.160 . S
C26 O33 1.185 . S
O27 C26 1.160 . S
O28 Zn29 1.899 . S
O28 C36 1.284 . S
Zn29 O28 1.899 . S
Zn29 O30 2.032 . S
Zn29 O33 2.086 . S
Zn29 O38 1.977 . S
O30 Zn29 2.032 . S
O30 C34 1.278 . S
C31 O32 1.203 . S
C31 O38 1.267 . S
O32 C31 1.203 . S
O33 C26 1.185 . S
O33 Zn29 2.086 . S
C34 O30 1.278 . S
C34 O35 1.211 . S
O35 C34 1.211 . S
C36 O28 1.284 . S
C36 O37 1.273 . S
O37 C36 1.273 . S
O38 Zn29 1.977 . S
O38 C31 1.267 . S
C39 O40 1.160 . S
C39 O46 1.185 . S
O40 C39 1.160 . S
O41 Zn42 1.899 . S
O41 C49 1.284 . S
Zn42 O41 1.899 . S
Zn42 O43 2.032 . S
Zn42 O46 2.086 1_545 S
Zn42 O51 1.977 1_545 S
O43 Zn42 2.032 . S
O43 C47 1.278 . S
C44 O45 1.203 . S
C44 O51 1.267 1_545 S
O45 C44 1.203 . S
O46 C39 1.185 . S
O46 Zn42 2.086 1_565 S
C47 O43 1.278 . S
C47 O48 1.211 . S
O48 C47 1.211 . S
C49 O41 1.284 . S
C49 O50 1.273 . S
O50 C49 1.273 . S
O51 Zn42 1.977 1_565 S
O51 C44 1.267 1_565 S
C52 O53 1.160 . S
C52 O59 1.185 . S
O53 C52 1.160 . S
O54 Zn55 1.899 . S
O54 C62 1.284 . S
Zn55 O54 1.899 . S
Zn55 O56 2.032 . S
Zn55 O59 2.086 1_455 S
Zn55 O64 1.977 1_455 S
O56 Zn55 2.032 . S
O56 C60 1.278 . S
C57 O58 1.203 . S
C57 O64 1.267 1_455 S
O58 C57 1.203 . S
O59 C52 1.185 . S
O59 Zn55 2.086 1_655 S
C60 O56 1.278 . S
C60 O61 1.211 . S
O61 C60 1.211 . S
C62 O54 1.284 . S
C62 O63 1.273 . S
O63 C62 1.273 . S
O64 Zn55 1.977 1_655 S
O64 C57 1.267 1_655 S
C65 O66 1.160 . S
C65 O72 1.185 . S
O66 C65 1.160 . S
O67 Zn68 1.899 . S
O67 C75 1.284 . S
Zn68 O67 1.899 . S
Zn68 O69 2.032 . S
Zn68 O72 2.086 . S
Zn68 O77 1.977 . S
O69 Zn68 2.032 . S
O69 C73 1.278 . S
C70 O71 1.203 . S
C70 O77 1.267 . S
O71 C70 1.203 . S
O72 C65 1.185 . S
O72 Zn68 2.086 . S
C73 O69 1.278 . S
C73 O74 1.211 . S
O74 C73 1.211 . S
C75 O67 1.284 . S
C75 O76 1.273 . S
O76 C75 1.273 . S
O77 Zn68 1.977 . S
O77 C70 1.267 . S
C78 O79 1.160 . S
C78 O85 1.185 . S
O79 C78 1.160 . S
O80 Zn81 1.899 . S
O80 C88 1.284 . S
Zn81 O80 1.899 . S
Zn81 O82 2.032 . S
Zn81 O85 2.086 . S
Zn81 O90 1.977 . S
O82 Zn81 2.032 . S
O82 C86 1.278 . S
C83 O84 1.203 . S
C83 O90 1.267 . S
O84 C83 1.203 . S
O85 C78 1.185 . S
O85 Zn81 2.086 . S
C86 O82 1.278 . S
C86 O87 1.211 . S
O87 C86 1.211 . S
C88 O80 1.284 . S
C88 O89 1.273 . S
O89 C88 1.273 . S
O90 Zn81 1.977 . S
O90 C83 1.267 . S
C91 O92 1.160 . S
C91 O98 1.185 . S
O92 C91 1.160 . S
O93 Zn94 1.899 . S
O93 C101 1.284 1_545 S
Zn94 O93 1.899 . S
Zn94 O95 2.032 . S
Zn94 O98 2.086 . S
Zn94 O103 1.977 . S
O95 Zn94 2.032 . S
O95 C99 1.278 . S
C96 O97 1.203 . S
C96 O103 1.267 . S
O97 C96 1.203 . S
O98 C91 1.185 . S
O98 Zn94 2.086 . S
C99 O95 1.278 . S
C99 O100 1.211 . S
O100 C99 1.211 . S
C101 O93 1.284 1_565 S
C101 O102 1.273 1_565 S
O102 C101 1.273 1_545 S
O103 Zn94 1.977 . S
O103 C96 1.267 . S
C104 O105 1.160 . S
C104 O111 1.185 . S
O105 C104 1.160 . S
O106 Zn107 1.899 . S
O106 C114 1.284 . S
Zn107 O106 1.899 . S
Zn107 O108 2.032 . S
Zn107 O111 2.086 1_655 S
Zn107 O116 1.977 . S
O108 Zn107 2.032 . S
O108 C112 1.278 . S
C109 O110 1.203 . S
C109 O116 1.267 . S
O110 C109 1.203 . S
O111 C104 1.185 . S
O111 Zn107 2.086 1_455 S
C112 O108 1.278 . S
C112 O113 1.211 . S
O113 C112 1.211 . S
C114 O106 1.284 . S
C114 O115 1.273 . S
O115 C114 1.273 . S
O116 Zn107 1.977 . S
O116 C109 1.267 . S
C117 O118 1.160 1_655 S
C117 O124 1.185 . S
O118 C117 1.160 1_455 S
O119 Zn120 1.899 1_455 S
O119 C127 1.284 . S
Zn120 O119 1.899 1_655 S
Zn120 O121 2.032 . S
Zn120 O124 2.086 . S
Zn120 O129 1.977 . S
O121 Zn120 2.032 . S
O121 C125 1.278 . S
C122 O123 1.203 . S
C122 O129 1.267 . S
O123 C122 1.203 . S
O124 C117 1.185 . S
O124 Zn120 2.086 . S
C125 O121 1.278 . S
C125 O126 1.211 . S
O126 C125 1.211 . S
C127 O119 1.284 . S
C127 O128 1.273 . S
O128 C127 1.273 . S
O129 Zn120 1.977 . S
O129 C122 1.267 . S
C130 O131 1.160 . S
C130 O137 1.185 . S
O131 C130 1.160 . S
O132 Zn133 1.899 . S
O132 C140 1.284 . S
Zn133 O132 1.899 . S
Zn133 O134 2.032 . S
Zn133 O137 2.086 . S
Zn133 O142 1.977 . S
O134 Zn133 2.032 . S
O134 C138 1.278 . S
C135 O136 1.203 . S
C135 O142 1.267 . S
O136 C135 1.203 . S
O137 C130 1.185 . S
O137 Zn133 2.086 . S
C138 O134 1.278 . S
C138 O139 1.211 . S
O139 C138 1.211 . S
C140 O132 1.284 . S
C140 O141 1.273 . S
O141 C140 1.273 . S
O142 Zn133 1.977 . S
O142 C135 1.267 . S
C143 O144 1.160 . S
C143 O150 1.185 . S
O144 C143 1.160 . S
O145 Zn146 1.891 1_565 S
O145 C153 1.292 . S
Zn146 O145 1.891 1_545 S
Zn146 O147 2.032 . S
Zn146 O150 2.086 . S
Zn146 O155 1.977 . S
O147 Zn146 2.032 . S
O147 C151 1.278 . S
C148 O149 1.203 . S
C148 O155 1.267 . S
O149 C148 1.203 . S
O150 C143 1.185 . S
O150 Zn146 2.086 . S
C151 O147 1.278 . S
C151 O152 1.211 . S
O152 C151 1.211 . S
C153 O145 1.292 . S
C153 O154 1.273 1_565 S
O154 C153 1.273 1_545 S
O155 Zn146 1.977 . S
O155 C148 1.267 . S
C156 O157 1.160 . S
C156 O163 1.185 . S
O157 C156 1.160 . S
O158 Zn159 1.899 1_655 S
O158 C166 1.284 . S
Zn159 O158 1.899 1_455 S
Zn159 O160 2.032 . S
Zn159 O163 2.086 . S
Zn159 O168 1.977 . S
O160 Zn159 2.032 . S
O160 C164 1.278 . S
C161 O162 1.203 . S
C161 O168 1.267 . S
O162 C161 1.203 . S
O163 C156 1.185 . S
O163 Zn159 2.086 . S
C164 O160 1.278 . S
C164 O165 1.211 . S
O165 C164 1.211 . S
C166 O158 1.284 . S
C166 O167 1.273 1_655 S
O167 C166 1.273 1_455 S
O168 Zn159 1.977 . S
O168 C161 1.267 . S
C169 O170 1.160 . S
C169 O176 1.185 . S
O170 C169 1.160 . S
O171 Zn172 1.899 . S
O171 C179 1.284 . S
Zn172 O171 1.899 . S
Zn172 O173 2.032 . S
Zn172 O176 2.086 . S
Zn172 O181 1.977 . S
O173 Zn172 2.032 . S
O173 C177 1.278 . S
C174 O175 1.203 . S
C174 O181 1.267 . S
O175 C174 1.203 . S
O176 C169 1.185 . S
O176 Zn172 2.086 . S
C177 O173 1.278 . S
C177 O178 1.211 . S
O178 C177 1.211 . S
C179 O171 1.284 . S
C179 O180 1.273 . S
O180 C179 1.273 . S
O181 Zn172 1.977 . S
O181 C174 1.267 . S
C182 O183 1.160 1_565 S
C182 O189 1.185 . S
O183 C182 1.160 1_545 S
O184 Zn185 1.899 1_545 S
O184 C192 1.284 . S
Zn185 O184 1.899 1_565 S
Zn185 O186 2.032 . S
Zn185 O189 2.086 . S
Zn185 O194 1.977 . S
O186 Zn185 2.032 . S
O186 C190 1.278 . S
C187 O188 1.203 . S
C187 O194 1.267 . S
O188 C187 1.203 . S
O189 C182 1.185 . S
O189 Zn185 2.086 . S
C190 O186 1.278 . S
C190 O191 1.211 . S
O191 C190 1.211 . S
C192 O184 1.284 . S
C192 O193 1.273 . S
O193 C192 1.273 . S
O194 Zn185 1.977 . S
O194 C187 1.267 . S
C195 O196 1.160 . S
C195 O202 1.185 . S
O196 C195 1.160 . S
O197 Zn198 1.899 . S
O197 C205 1.284 . S
Zn198 O197 1.899 . S
Zn198 O199 2.032 . S
Zn198 O202 2.086 . S
Zn198 O207 1.977 . S
O199 Zn198 2.032 . S
O199 C203 1.278 . S
C200 O201 1.203 . S
C200 O207 1.267 . S
O201 C200 1.203 . S
O202 C195 1.185 . S
O202 Zn198 2.086 . S
C203 O199 1.278 . S
C203 O204 1.211 . S
O204 C203 1.211 . S
C205 O197 1.284 . S
C205 O206 1.273 . S
O206 C205 1.273 . S
O207 Zn198 1.977 . S
O207 C200 1.267 . S
C208 O209 1.160 1_565 S
C208 O215 1.185 . S
O209 C208 1.160 1_545 S
O210 Zn211 1.899 1_545 S
O210 C218 1.284 . S
Zn211 O210 1.899 1_565 S
Zn211 O212 2.032 . S
Zn211 O215 2.086 . S
Zn211 O220 1.977 . S
O212 Zn211 2.032 . S
O212 C216 1.278 . S
C213 O214 1.203 . S
C213 O220 1.267 . S
O214 C213 1.203 . S
O215 C208 1.185 . S
O215 Zn211 2.086 . S
C216 O212 1.278 . S
C216 O217 1.211 . S
O217 C216 1.211 . S
C218 O210 1.284 . S
C218 O219 1.273 . S
O219 C218 1.273 . S
O220 Zn211 1.977 . S
O220 C213 1.267 . S
C221 O222 1.160 . S
C221 O228 1.185 . S
O222 C221 1.160 . S
O223 Zn224 1.899 . S
O223 C231 1.284 . S
Zn224 O223 1.899 . S
Zn224 O225 2.032 . S
Zn224 O228 2.086 1_455 S
Zn224 O233 1.977 . S
O225 Zn224 2.032 . S
O225 C229 1.278 . S
C226 O227 1.203 . S
C226 O233 1.267 . S
O227 C226 1.203 . S
O228 C221 1.185 . S
O228 Zn224 2.086 1_655 S
C229 O225 1.278 . S
C229 O230 1.211 . S
O230 C229 1.211 . S
C231 O223 1.284 . S
C231 O232 1.273 . S
O232 C231 1.273 . S
O233 Zn224 1.977 . S
O233 C226 1.267 . S
Zn234 O240 1.920 1_455 S
Zn234 O246 1.898 1_445 S
Zn234 O249 1.905 . S
Zn235 O243 1.905 1_445 S
Zn235 O244 1.898 . S
Zn235 O252 1.920 1_455 S
Zn236 O239 2.080 . S
Zn236 O242 2.114 1_545 S
Zn236 O245 2.120 . S
Zn236 O247 2.120 1_445 S
Zn236 O248 2.114 . S
Zn236 O251 2.080 1_455 S
C237 O242 1.166 1_655 S
C237 O243 1.182 . S
C238 O244 1.167 . S
C238 O245 1.299 . S
O239 Zn236 2.080 . S
O239 C253 1.305 1_455 S
O240 Zn234 1.920 1_655 S
O240 C253 1.234 . S
C241 O246 1.167 . S
C241 O247 1.299 . S
O242 Zn236 2.114 1_565 S
O242 C237 1.166 1_455 S
O243 Zn235 1.905 1_665 S
O243 C237 1.182 . S
O244 Zn235 1.898 . S
O244 C238 1.167 . S
O245 Zn236 2.120 . S
O245 C238 1.299 . S
O246 Zn234 1.898 1_665 S
O246 C241 1.167 . S
O247 Zn236 2.120 1_665 S
O247 C241 1.299 . S
O248 Zn236 2.114 . S
O248 C250 1.166 . S
O249 Zn234 1.905 . S
O249 C250 1.182 . S
C250 O248 1.166 . S
C250 O249 1.182 . S
O251 Zn236 2.080 1_655 S
O251 C254 1.305 . S
O252 Zn235 1.920 1_655 S
O252 C254 1.234 . S
C253 O239 1.305 1_655 S
C253 O240 1.234 . S
C254 O251 1.305 . S
C254 O252 1.234 . S
Zn255 O261 1.920 1_545 S
Zn255 O267 1.898 . S
Zn255 O270 1.905 1_445 S
Zn256 O264 1.905 . S
Zn256 O265 1.898 1_445 S
Zn256 O273 1.920 1_545 S
Zn257 O260 2.080 1_545 S
Zn257 O263 2.114 . S
Zn257 O266 2.120 1_445 S
Zn257 O268 2.120 . S
Zn257 O269 2.114 1_455 S
Zn257 O272 2.080 . S
C258 O263 1.166 . S
C258 O264 1.182 . S
C259 O265 1.167 . S
C259 O266 1.299 . S
O260 Zn257 2.080 1_565 S
O260 C274 1.305 . S
O261 Zn255 1.920 1_565 S
O261 C274 1.234 . S
C262 O267 1.167 . S
C262 O268 1.299 . S
O263 Zn257 2.114 . S
O263 C258 1.166 . S
O264 Zn256 1.905 . S
O264 C258 1.182 . S
O265 Zn256 1.898 1_665 S
O265 C259 1.167 . S
O266 Zn257 2.120 1_665 S
O266 C259 1.299 . S
O267 Zn255 1.898 . S
O267 C262 1.167 . S
O268 Zn257 2.120 . S
O268 C262 1.299 . S
O269 Zn257 2.114 1_655 S
O269 C271 1.166 . S
O270 Zn255 1.905 1_665 S
O270 C271 1.182 1_565 S
C271 O269 1.166 . S
C271 O270 1.182 1_545 S
O272 Zn257 2.080 . S
O272 C275 1.305 1_545 S
O273 Zn256 1.920 1_565 S
O273 C275 1.234 . S
C274 O260 1.305 . S
C274 O261 1.234 . S
C275 O272 1.305 1_565 S
C275 O273 1.234 . S
Zn276 O282 1.920 1_545 S
Zn276 O288 1.898 . S
Zn276 O291 1.905 1_445 S
Zn277 O285 1.905 . S
Zn277 O286 1.898 1_445 S
Zn277 O294 1.920 1_545 S
Zn278 O281 2.080 1_545 S
Zn278 O284 2.114 . S
Zn278 O287 2.120 1_445 S
Zn278 O289 2.120 . S
Zn278 O290 2.114 1_455 S
Zn278 O293 2.080 . S
C279 O284 1.166 . S
C279 O285 1.182 . S
C280 O286 1.167 . S
C280 O287 1.299 . S
O281 Zn278 2.080 1_565 S
O281 C295 1.305 . S
O282 Zn276 1.920 1_565 S
O282 C295 1.234 . S
C283 O288 1.167 . S
C283 O289 1.299 . S
O284 Zn278 2.114 . S
O284 C279 1.166 . S
O285 Zn277 1.905 . S
O285 C279 1.182 . S
O286 Zn277 1.898 1_665 S
O286 C280 1.167 . S
O287 Zn278 2.120 1_665 S
O287 C280 1.299 . S
O288 Zn276 1.898 . S
O288 C283 1.167 . S
O289 Zn278 2.120 . S
O289 C283 1.299 . S
O290 Zn278 2.114 1_655 S
O290 C292 1.164 1_545 S
O291 Zn276 1.905 1_665 S
O291 C292 1.185 . S
C292 O290 1.164 1_565 S
C292 O291 1.185 . S
O293 Zn278 2.080 . S
O293 C296 1.305 . S
O294 Zn277 1.920 1_565 S
O294 C296 1.234 1_565 S
C295 O281 1.305 . S
C295 O282 1.234 . S
C296 O293 1.305 . S
C296 O294 1.234 1_545 S
Zn297 O303 1.920 1_455 S
Zn297 O309 1.898 1_445 S
Zn297 O312 1.905 . S
Zn298 O306 1.905 1_445 S
Zn298 O307 1.898 . S
Zn298 O315 1.920 1_455 S
Zn299 O302 2.080 . S
Zn299 O305 2.114 1_545 S
Zn299 O308 2.120 . S
Zn299 O310 2.120 1_445 S
Zn299 O311 2.114 . S
Zn299 O314 2.080 1_455 S
C300 O305 1.166 1_655 S
C300 O306 1.182 . S
C301 O307 1.167 . S
C301 O308 1.299 . S
O302 Zn299 2.080 . S
O302 C316 1.305 . S
O303 Zn297 1.920 1_655 S
O303 C316 1.234 1_655 S
C304 O309 1.167 . S
C304 O310 1.299 . S
O305 Zn299 2.114 1_565 S
O305 C300 1.166 1_455 S
O306 Zn298 1.905 1_665 S
O306 C300 1.182 . S
O307 Zn298 1.898 . S
O307 C301 1.167 . S
O308 Zn299 2.120 . S
O308 C301 1.299 . S
O309 Zn297 1.898 1_665 S
O309 C304 1.167 . S
O310 Zn299 2.120 1_665 S
O310 C304 1.299 . S
O311 Zn299 2.114 . S
O311 C313 1.166 . S
O312 Zn297 1.905 . S
O312 C313 1.182 . S
C313 O311 1.166 . S
C313 O312 1.182 . S
O314 Zn299 2.080 1_655 S
O314 C317 1.305 . S
O315 Zn298 1.920 1_655 S
O315 C317 1.234 . S
C316 O302 1.305 . S
C316 O303 1.234 1_455 S
C317 O314 1.305 . S
C317 O315 1.234 . S
Zn318 O324 1.920 . S
Zn318 O330 1.898 . S
Zn318 O333 1.905 . S
Zn319 O327 1.905 . S
Zn319 O328 1.898 . S
Zn319 O336 1.920 . S
Zn320 O323 2.080 . S
Zn320 O326 2.114 . S
Zn320 O329 2.120 . S
Zn320 O331 2.120 . S
Zn320 O332 2.114 . S
Zn320 O335 2.080 . S
C321 O326 1.166 . S
C321 O327 1.182 . S
C322 O328 1.167 . S
C322 O329 1.299 . S
O323 Zn320 2.080 . S
O323 C337 1.305 . S
O324 Zn318 1.920 . S
O324 C337 1.234 . S
C325 O330 1.167 . S
C325 O331 1.299 . S
O326 Zn320 2.114 . S
O326 C321 1.166 . S
O327 Zn319 1.905 . S
O327 C321 1.182 . S
O328 Zn319 1.898 . S
O328 C322 1.167 . S
O329 Zn320 2.120 . S
O329 C322 1.299 . S
O330 Zn318 1.898 . S
O330 C325 1.167 . S
O331 Zn320 2.120 . S
O331 C325 1.299 . S
O332 Zn320 2.114 . S
O332 C334 1.166 . S
O333 Zn318 1.905 . S
O333 C334 1.182 . S
C334 O332 1.166 . S
C334 O333 1.182 . S
O335 Zn320 2.080 . S
O335 C338 1.305 . S
O336 Zn319 1.920 . S
O336 C338 1.234 . S
C337 O323 1.305 . S
C337 O324 1.234 . S
C338 O335 1.305 . S
C338 O336 1.234 . S
Zn339 O345 1.920 . S
Zn339 O351 1.898 . S
Zn339 O354 1.905 . S
Zn340 O348 1.905 . S
Zn340 O349 1.898 . S
Zn340 O357 1.920 . S
Zn341 O344 2.080 . S
Zn341 O347 2.114 . S
Zn341 O350 2.120 . S
Zn341 O352 2.120 . S
Zn341 O353 2.114 . S
Zn341 O356 2.080 . S
C342 O347 1.166 . S
C342 O348 1.182 . S
C343 O349 1.167 . S
C343 O350 1.299 . S
O344 Zn341 2.080 . S
O344 C358 1.305 . S
O345 Zn339 1.920 . S
O345 C358 1.234 . S
C346 O351 1.167 . S
C346 O352 1.299 . S
O347 Zn341 2.114 . S
O347 C342 1.166 . S
O348 Zn340 1.905 . S
O348 C342 1.182 . S
O349 Zn340 1.898 . S
O349 C343 1.167 . S
O350 Zn341 2.120 . S
O350 C343 1.299 . S
O351 Zn339 1.898 . S
O351 C346 1.167 . S
O352 Zn341 2.120 . S
O352 C346 1.299 . S
O353 Zn341 2.114 . S
O353 C355 1.166 . S
O354 Zn339 1.905 . S
O354 C355 1.182 . S
C355 O353 1.166 . S
C355 O354 1.182 . S
O356 Zn341 2.080 . S
O356 C359 1.305 . S
O357 Zn340 1.920 . S
O357 C359 1.234 . S
C358 O344 1.305 . S
C358 O345 1.234 . S
C359 O356 1.305 . S
C359 O357 1.234 . S
Zn360 O366 1.920 . S
Zn360 O372 1.898 . S
Zn360 O375 1.905 . S
Zn361 O369 1.905 . S
Zn361 O370 1.898 . S
Zn361 O378 1.920 . S
Zn362 O365 2.080 . S
Zn362 O368 2.114 . S
Zn362 O371 2.120 . S
Zn362 O373 2.120 . S
Zn362 O374 2.114 . S
Zn362 O377 2.080 . S
C363 O368 1.166 . S
C363 O369 1.182 . S
C364 O370 1.167 . S
C364 O371 1.299 . S
O365 Zn362 2.080 . S
O365 C379 1.305 . S
O366 Zn360 1.920 . S
O366 C379 1.234 . S
C367 O372 1.167 . S
C367 O373 1.299 . S
O368 Zn362 2.114 . S
O368 C363 1.166 . S
O369 Zn361 1.905 . S
O369 C363 1.182 . S
O370 Zn361 1.898 . S
O370 C364 1.167 . S
O371 Zn362 2.120 . S
O371 C364 1.299 . S
O372 Zn360 1.898 . S
O372 C367 1.167 . S
O373 Zn362 2.120 . S
O373 C367 1.299 . S
O374 Zn362 2.114 . S
O374 C376 1.166 . S
O375 Zn360 1.905 . S
O375 C376 1.182 . S
C376 O374 1.166 . S
C376 O375 1.182 . S
O377 Zn362 2.080 . S
O377 C380 1.305 . S
O378 Zn361 1.920 . S
O378 C380 1.234 . S
C379 O365 1.305 . S
C379 O366 1.234 . S
C380 O377 1.305 . S
C380 O378 1.234 . S
Zn381 O387 1.920 . S
Zn381 O393 1.898 . S
Zn381 O396 1.905 . S
Zn382 O390 1.905 . S
Zn382 O391 1.898 . S
Zn382 O399 1.920 . S
Zn383 O386 2.080 . S
Zn383 O389 2.114 . S
Zn383 O392 2.120 . S
Zn383 O394 2.120 . S
Zn383 O395 2.114 . S
Zn383 O398 2.080 . S
C384 O389 1.166 . S
C384 O390 1.182 . S
C385 O391 1.167 . S
C385 O392 1.299 . S
O386 Zn383 2.080 . S
O386 C400 1.305 1_556 S
O387 Zn381 1.920 . S
O387 C400 1.234 . S
C388 O393 1.167 . S
C388 O394 1.299 1_554 S
O389 Zn383 2.114 . S
O389 C384 1.166 . S
O390 Zn382 1.905 . S
O390 C384 1.182 . S
O391 Zn382 1.898 . S
O391 C385 1.167 . S
O392 Zn383 2.120 . S
O392 C385 1.299 . S
O393 Zn381 1.898 . S
O393 C388 1.167 . S
O394 Zn383 2.120 . S
O394 C388 1.299 1_556 S
O395 Zn383 2.114 . S
O395 C397 1.166 1_556 S
O396 Zn381 1.905 . S
O396 C397 1.182 . S
C397 O395 1.166 1_554 S
C397 O396 1.182 . S
O398 Zn383 2.080 . S
O398 C401 1.305 . S
O399 Zn382 1.920 . S
O399 C401 1.234 . S
C400 O386 1.305 1_554 S
C400 O387 1.234 . S
C401 O398 1.305 . S
C401 O399 1.234 . S
Zn402 O408 1.920 . S
Zn402 O414 1.898 . S
Zn402 O417 1.905 . S
Zn403 O411 1.905 . S
Zn403 O412 1.898 . S
Zn403 O420 1.920 . S
Zn404 O407 2.080 . S
Zn404 O410 2.114 . S
Zn404 O413 2.120 . S
Zn404 O415 2.120 . S
Zn404 O416 2.114 . S
Zn404 O419 2.080 . S
C405 O410 1.166 . S
C405 O411 1.182 . S
C406 O412 1.167 . S
C406 O413 1.299 . S
O407 Zn404 2.080 . S
O407 C421 1.305 . S
O408 Zn402 1.920 . S
O408 C421 1.234 . S
C409 O414 1.167 . S
C409 O415 1.299 . S
O410 Zn404 2.114 . S
O410 C405 1.166 . S
O411 Zn403 1.905 . S
O411 C405 1.182 . S
O412 Zn403 1.898 . S
O412 C406 1.167 . S
O413 Zn404 2.120 . S
O413 C406 1.299 . S
O414 Zn402 1.898 . S
O414 C409 1.167 . S
O415 Zn404 2.120 . S
O415 C409 1.299 . S
O416 Zn404 2.114 . S
O416 C418 1.166 . S
O417 Zn402 1.905 . S
O417 C418 1.182 . S
C418 O416 1.166 . S
C418 O417 1.182 . S
O419 Zn404 2.080 . S
O419 C422 1.305 . S
O420 Zn403 1.920 . S
O420 C422 1.234 . S
C421 O407 1.305 . S
C421 O408 1.234 . S
C422 O419 1.305 . S
C422 O420 1.234 . S
Zn423 O429 1.920 . S
Zn423 O435 1.898 . S
Zn423 O438 1.905 . S
Zn424 O432 1.905 . S
Zn424 O433 1.898 . S
Zn424 O441 1.920 . S
Zn425 O428 2.080 . S
Zn425 O431 2.114 . S
Zn425 O434 2.120 . S
Zn425 O436 2.120 . S
Zn425 O437 2.114 . S
Zn425 O440 2.080 . S
C426 O431 1.166 1_556 S
C426 O432 1.182 . S
C427 O433 1.167 . S
C427 O434 1.299 1_556 S
O428 Zn425 2.080 . S
O428 C442 1.305 . S
O429 Zn423 1.920 . S
O429 C442 1.234 . S
C430 O435 1.167 . S
C430 O436 1.299 . S
O431 Zn425 2.114 . S
O431 C426 1.166 1_554 S
O432 Zn424 1.905 . S
O432 C426 1.182 . S
O433 Zn424 1.898 . S
O433 C427 1.167 . S
O434 Zn425 2.120 . S
O434 C427 1.299 1_554 S
O435 Zn423 1.898 . S
O435 C430 1.167 . S
O436 Zn425 2.120 . S
O436 C430 1.299 . S
O437 Zn425 2.114 . S
O437 C439 1.166 . S
O438 Zn423 1.905 . S
O438 C439 1.182 . S
C439 O437 1.166 . S
C439 O438 1.182 . S
O440 Zn425 2.080 . S
O440 C443 1.305 1_554 S
O441 Zn424 1.920 . S
O441 C443 1.234 . S
C442 O428 1.305 . S
C442 O429 1.234 . S
C443 O440 1.305 1_556 S
C443 O441 1.234 . S
Zn444 O450 1.920 . S
Zn444 O456 1.898 . S
Zn444 O459 1.905 . S
Zn445 O453 1.905 . S
Zn445 O454 1.898 . S
Zn445 O462 1.920 . S
Zn446 O449 2.080 . S
Zn446 O452 2.114 . S
Zn446 O455 2.120 . S
Zn446 O457 2.120 . S
Zn446 O458 2.114 . S
Zn446 O461 2.080 . S
C447 O452 1.166 . S
C447 O453 1.182 . S
C448 O454 1.167 . S
C448 O455 1.299 . S
O449 Zn446 2.080 . S
O449 C463 1.305 . S
O450 Zn444 1.920 . S
O450 C463 1.234 . S
C451 O456 1.167 . S
C451 O457 1.299 . S
O452 Zn446 2.114 . S
O452 C447 1.166 . S
O453 Zn445 1.905 . S
O453 C447 1.182 . S
O454 Zn445 1.898 . S
O454 C448 1.167 . S
O455 Zn446 2.120 . S
O455 C448 1.299 . S
O456 Zn444 1.898 . S
O456 C451 1.167 . S
O457 Zn446 2.120 . S
O457 C451 1.299 . S
O458 Zn446 2.114 . S
O458 C460 1.166 . S
O459 Zn444 1.905 . S
O459 C460 1.182 . S
C460 O458 1.166 . S
C460 O459 1.182 . S
O461 Zn446 2.080 . S
O461 C464 1.305 . S
O462 Zn445 1.920 . S
O462 C464 1.234 . S
C463 O449 1.305 . S
C463 O450 1.234 . S
C464 O461 1.305 . S
C464 O462 1.234 . S
Zn465 O471 1.920 . S
Zn465 O477 1.898 . S
Zn465 O480 1.905 . S
Zn466 O474 1.905 . S
Zn466 O475 1.898 . S
Zn466 O483 1.920 . S
Zn467 O470 2.080 . S
Zn467 O473 2.114 . S
Zn467 O476 2.120 . S
Zn467 O478 2.120 . S
Zn467 O479 2.114 . S
Zn467 O482 2.080 . S
C468 O473 1.166 . S
C468 O474 1.182 . S
C469 O475 1.167 . S
C469 O476 1.299 . S
O470 Zn467 2.080 . S
O470 C484 1.305 . S
O471 Zn465 1.920 . S
O471 C484 1.234 . S
C472 O477 1.167 . S
C472 O478 1.299 . S
O473 Zn467 2.114 . S
O473 C468 1.166 . S
O474 Zn466 1.905 . S
O474 C468 1.182 . S
O475 Zn466 1.898 . S
O475 C469 1.167 . S
O476 Zn467 2.120 . S
O476 C469 1.299 . S
O477 Zn465 1.898 . S
O477 C472 1.167 . S
O478 Zn467 2.120 . S
O478 C472 1.299 . S
O479 Zn467 2.114 . S
O479 C481 1.166 . S
O480 Zn465 1.905 . S
O480 C481 1.182 . S
C481 O479 1.166 . S
C481 O480 1.182 . S
O482 Zn467 2.080 . S
O482 C485 1.305 . S
O483 Zn466 1.920 . S
O483 C485 1.234 . S
C484 O470 1.305 . S
C484 O471 1.234 . S
C485 O482 1.305 . S
C485 O483 1.234 . S
C486 C487 1.363 . S
C486 C492 1.379 . S
C486 N494 1.356 . S
C487 C486 1.363 . S
C487 C493 1.363 . S
C488 C489 1.363 . S
C488 C493 1.379 . S
C488 N495 1.356 . S
C489 C488 1.363 . S
C489 C492 1.363 . S
N490 C492 1.356 . S
N490 H502 0.984 . S
N490 H503 0.985 . S
N491 C493 1.356 . S
N491 H496 0.984 . S
N491 H497 0.985 . S
C492 C486 1.379 . S
C492 C489 1.363 . S
C492 N490 1.356 . S
C493 C487 1.363 . S
C493 C488 1.379 . S
C493 N491 1.356 . S
N494 C486 1.356 . S
N494 H500 0.984 . S
N494 H501 0.984 . S
N495 C488 1.356 . S
N495 H498 0.984 . S
N495 H499 0.985 . S
H496 N491 0.984 . S
H497 N491 0.985 . S
H498 N495 0.984 . S
H499 N495 0.985 . S
H500 N494 0.984 . S
H501 N494 0.984 . S
H502 N490 0.984 . S
H503 N490 0.985 . S
C504 C505 1.357 1_545 S
C504 C510 1.379 . S
C504 N512 1.356 . S
C505 C504 1.357 1_565 S
C505 C511 1.370 . S
C506 C507 1.363 1_565 S
C506 C511 1.379 . S
C506 N513 1.356 . S
C507 C506 1.363 1_545 S
C507 C510 1.363 . S
N508 C510 1.356 . S
N508 H520 0.984 . S
N508 H521 0.985 . S
N509 C511 1.356 . S
N509 H514 0.984 . S
N509 H515 0.985 . S
C510 C504 1.379 . S
C510 C507 1.363 . S
C510 N508 1.356 . S
C511 C505 1.370 . S
C511 C506 1.379 . S
C511 N509 1.356 . S
N512 C504 1.356 . S
N512 H518 0.984 . S
N512 H519 0.984 . S
N513 C506 1.356 . S
N513 H516 0.984 . S
N513 H517 0.985 . S
H514 N509 0.984 . S
H515 N509 0.985 . S
H516 N513 0.984 . S
H517 N513 0.985 . S
H518 N512 0.984 . S
H519 N512 0.984 . S
H520 N508 0.984 . S
H521 N508 0.985 . S
C522 C523 1.363 . S
C522 C528 1.379 . S
C522 N530 1.356 . S
C523 C522 1.363 . S
C523 C529 1.363 . S
C524 C525 1.363 1_455 S
C524 C529 1.379 . S
C524 N531 1.356 1_455 S
C525 C524 1.363 1_655 S
C525 C528 1.363 1_655 S
N526 C528 1.356 1_655 S
N526 H538 0.984 1_655 S
N526 H539 0.985 . S
N527 C529 1.356 . S
N527 H532 0.984 . S
N527 H533 0.985 . S
C528 C522 1.379 . S
C528 C525 1.363 1_455 S
C528 N526 1.356 1_455 S
C529 C523 1.363 . S
C529 C524 1.379 . S
C529 N527 1.356 . S
N530 C522 1.356 . S
N530 H536 0.984 . S
N530 H537 0.984 . S
N531 C524 1.356 1_655 S
N531 H534 0.984 . S
N531 H535 0.985 . S
H532 N527 0.984 . S
H533 N527 0.985 . S
H534 N531 0.984 . S
H535 N531 0.985 . S
H536 N530 0.984 . S
H537 N530 0.984 . S
H538 N526 0.984 1_455 S
H539 N526 0.985 . S
C540 C541 1.363 . S
C540 C546 1.379 . S
C540 N548 1.356 . S
C541 C540 1.363 . S
C541 C547 1.363 . S
C542 C543 1.363 . S
C542 C547 1.379 . S
C542 N549 1.356 . S
C543 C542 1.363 . S
C543 C546 1.363 . S
N544 C546 1.356 . S
N544 H556 0.984 . S
N544 H557 0.985 . S
N545 C547 1.356 . S
N545 H550 0.984 . S
N545 H551 0.985 . S
C546 C540 1.379 . S
C546 C543 1.363 . S
C546 N544 1.356 . S
C547 C541 1.363 . S
C547 C542 1.379 . S
C547 N545 1.356 . S
N548 C540 1.356 . S
N548 H554 0.984 . S
N548 H555 0.984 . S
N549 C542 1.356 . S
N549 H552 0.984 . S
N549 H553 0.985 . S
H550 N545 0.984 . S
H551 N545 0.985 . S
H552 N549 0.984 . S
H553 N549 0.985 . S
H554 N548 0.984 . S
H555 N548 0.984 . S
H556 N544 0.984 . S
H557 N544 0.985 . S
C558 C559 1.363 1_565 S
C558 C564 1.379 . S
C558 N566 1.356 . S
C559 C558 1.363 1_545 S
C559 C565 1.363 . S
C560 C561 1.363 . S
C560 C565 1.379 . S
C560 N567 1.356 . S
C561 C560 1.363 . S
C561 C564 1.363 1_545 S
N562 C564 1.356 . S
N562 H574 0.984 . S
N562 H575 0.985 . S
N563 C565 1.356 . S
N563 H568 0.984 . S
N563 H569 0.985 . S
C564 C558 1.379 . S
C564 C561 1.363 1_565 S
C564 N562 1.356 . S
C565 C559 1.363 . S
C565 C560 1.379 . S
C565 N563 1.356 . S
N566 C558 1.356 . S
N566 H572 0.984 . S
N566 H573 0.984 . S
N567 C560 1.356 . S
N567 H570 0.984 . S
N567 H571 0.985 . S
H568 N563 0.984 . S
H569 N563 0.985 . S
H570 N567 0.984 . S
H571 N567 0.985 . S
H572 N566 0.984 . S
H573 N566 0.984 . S
H574 N562 0.984 . S
H575 N562 0.985 . S
C576 C577 1.363 . S
C576 C582 1.379 . S
C576 N584 1.356 . S
C577 C576 1.363 . S
C577 C583 1.363 1_655 S
C578 C579 1.363 . S
C578 C583 1.379 . S
C578 N585 1.356 . S
C579 C578 1.363 . S
C579 C582 1.363 1_455 S
N580 C582 1.356 . S
N580 H592 0.984 . S
N580 H593 0.985 . S
N581 C583 1.356 . S
N581 H586 0.984 . S
N581 H587 0.985 . S
C582 C576 1.379 . S
C582 C579 1.363 1_655 S
C582 N580 1.356 . S
C583 C577 1.363 1_455 S
C583 C578 1.379 . S
C583 N581 1.356 . S
N584 C576 1.356 . S
N584 H590 0.984 . S
N584 H591 0.984 . S
N585 C578 1.356 . S
N585 H588 0.984 . S
N585 H589 0.985 . S
H586 N581 0.984 . S
H587 N581 0.985 . S
H588 N585 0.984 . S
H589 N585 0.985 . S
H590 N584 0.984 . S
H591 N584 0.984 . S
H592 N580 0.984 . S
H593 N580 0.985 . S
C594 C595 1.363 . S
C594 C600 1.379 . S
C594 N602 1.356 . S
C595 C594 1.363 . S
C595 C601 1.363 . S
C596 C597 1.363 . S
C596 C601 1.379 . S
C596 N603 1.356 . S
C597 C596 1.363 . S
C597 C600 1.363 . S
N598 C600 1.356 . S
N598 H610 0.984 . S
N598 H611 0.985 . S
N599 C601 1.356 . S
N599 H604 0.984 . S
N599 H605 0.985 . S
C600 C594 1.379 . S
C600 C597 1.363 . S
C600 N598 1.356 . S
C601 C595 1.363 . S
C601 C596 1.379 . S
C601 N599 1.356 . S
N602 C594 1.356 . S
N602 H608 0.984 . S
N602 H609 0.984 . S
N603 C596 1.356 . S
N603 H606 0.984 . S
N603 H607 0.985 . S
H604 N599 0.984 . S
H605 N599 0.985 . S
H606 N603 0.984 . S
H607 N603 0.985 . S
H608 N602 0.984 . S
H609 N602 0.984 . S
H610 N598 0.984 . S
H611 N598 0.985 . S
C612 C613 1.363 . S
C612 C618 1.379 1_545 S
C612 N620 1.356 1_545 S
C613 C612 1.363 . S
C613 C619 1.363 . S
C614 C615 1.363 . S
C614 C619 1.379 . S
C614 N621 1.356 . S
C615 C614 1.363 . S
C615 C618 1.363 1_545 S
N616 C618 1.356 . S
N616 H628 0.984 . S
N616 H629 0.985 . S
N617 C619 1.356 . S
N617 H622 0.984 . S
N617 H623 0.985 . S
C618 C612 1.379 1_565 S
C618 C615 1.363 1_565 S
C618 N616 1.356 . S
C619 C613 1.363 . S
C619 C614 1.379 . S
C619 N617 1.356 . S
N620 C612 1.356 1_565 S
N620 H626 0.984 . S
N620 H627 0.984 1_565 S
N621 C614 1.356 . S
N621 H624 0.984 . S
N621 H625 0.985 . S
H622 N617 0.984 . S
H623 N617 0.985 . S
H624 N621 0.984 . S
H625 N621 0.985 . S
H626 N620 0.984 . S
H627 N620 0.984 1_545 S
H628 N616 0.984 . S
H629 N616 0.985 . S
C630 C631 1.363 . S
C630 C636 1.379 . S
C630 N638 1.356 . S
C631 C630 1.363 . S
C631 C637 1.363 1_455 S
C632 C633 1.363 1_655 S
C632 C637 1.379 . S
C632 N639 1.356 . S
C633 C632 1.363 1_455 S
C633 C636 1.363 . S
N634 C636 1.356 . S
N634 H646 0.984 . S
N634 H647 0.985 . S
N635 C637 1.356 . S
N635 H640 0.984 . S
N635 H641 0.985 . S
C636 C630 1.379 . S
C636 C633 1.363 . S
C636 N634 1.356 . S
C637 C631 1.363 1_655 S
C637 C632 1.379 . S
C637 N635 1.356 . S
N638 C630 1.356 . S
N638 H644 0.984 . S
N638 H645 0.984 . S
N639 C632 1.356 . S
N639 H642 0.984 . S
N639 H643 0.985 . S
H640 N635 0.984 . S
H641 N635 0.985 . S
H642 N639 0.984 . S
H643 N639 0.985 . S
H644 N638 0.984 . S
H645 N638 0.984 . S
H646 N634 0.984 . S
H647 N634 0.985 . S
C648 C649 1.363 . S
C648 C654 1.379 . S
C648 N656 1.356 . S
C649 C648 1.363 . S
C649 C655 1.363 . S
C650 C651 1.363 . S
C650 C655 1.379 . S
C650 N657 1.356 . S
C651 C650 1.363 . S
C651 C654 1.363 . S
N652 C654 1.356 . S
N652 H664 0.984 . S
N652 H665 0.985 . S
N653 C655 1.356 . S
N653 H658 0.984 . S
N653 H659 0.985 . S
C654 C648 1.379 . S
C654 C651 1.363 . S
C654 N652 1.356 . S
C655 C649 1.363 . S
C655 C650 1.379 . S
C655 N653 1.356 . S
N656 C648 1.356 . S
N656 H662 0.984 . S
N656 H663 0.984 . S
N657 C650 1.356 . S
N657 H660 0.984 . S
N657 H661 0.985 . S
H658 N653 0.984 . S
H659 N653 0.985 . S
H660 N657 0.984 . S
H661 N657 0.985 . S
H662 N656 0.984 . S
H663 N656 0.984 . S
H664 N652 0.984 . S
H665 N652 0.985 . S
C666 C667 1.363 . S
C666 C672 1.379 . S
C666 N674 1.356 . S
C667 C666 1.363 . S
C667 C673 1.363 1_545 S
C668 C669 1.363 1_565 S
C668 C673 1.379 . S
C668 N675 1.356 . S
C669 C668 1.363 1_545 S
C669 C672 1.363 . S
N670 C672 1.356 . S
N670 H682 0.984 . S
N670 H683 0.985 . S
N671 C673 1.356 . S
N671 H676 0.984 . S
N671 H677 0.985 . S
C672 C666 1.379 . S
C672 C669 1.363 . S
C672 N670 1.356 . S
C673 C667 1.363 1_565 S
C673 C668 1.379 . S
C673 N671 1.356 . S
N674 C666 1.356 . S
N674 H680 0.984 . S
N674 H681 0.984 . S
N675 C668 1.356 . S
N675 H678 0.984 . S
N675 H679 0.985 . S
H676 N671 0.984 . S
H677 N671 0.985 . S
H678 N675 0.984 . S
H679 N675 0.985 . S
H680 N674 0.984 . S
H681 N674 0.984 . S
H682 N670 0.984 . S
H683 N670 0.985 . S
C684 C685 1.363 . S
C684 C690 1.379 . S
C684 N692 1.356 . S
C685 C684 1.363 . S
C685 C691 1.363 . S
C686 C687 1.363 . S
C686 C691 1.379 . S
C686 N693 1.356 . S
C687 C686 1.363 . S
C687 C690 1.363 . S
N688 C690 1.356 1_655 S
N688 H700 0.984 . S
N688 H701 0.985 . S
N689 C691 1.356 . S
N689 H694 0.984 . S
N689 H695 0.985 . S
C690 C684 1.379 . S
C690 C687 1.363 . S
C690 N688 1.356 1_455 S
C691 C685 1.363 . S
C691 C686 1.379 . S
C691 N689 1.356 . S
N692 C684 1.356 . S
N692 H698 0.984 . S
N692 H699 0.984 . S
N693 C686 1.356 . S
N693 H696 0.988 1_455 S
N693 H697 0.985 . S
H694 N689 0.984 . S
H695 N689 0.985 . S
H696 N693 0.988 1_655 S
H697 N693 0.985 . S
H698 N692 0.984 . S
H699 N692 0.984 . S
H700 N688 0.984 . S
H701 N688 0.985 . S
C702 C703 1.363 . S
C702 C708 1.379 . S
C702 N710 1.356 . S
C703 C702 1.363 . S
C703 C709 1.363 . S
C704 C705 1.363 . S
C704 C709 1.379 . S
C704 N711 1.356 . S
C705 C704 1.363 . S
C705 C708 1.363 . S
N706 C708 1.356 . S
N706 H718 0.984 . S
N706 H719 0.985 . S
N707 C709 1.356 . S
N707 H712 0.984 . S
N707 H713 0.985 . S
C708 C702 1.379 . S
C708 C705 1.363 . S
C708 N706 1.356 . S
C709 C703 1.363 . S
C709 C704 1.379 . S
C709 N707 1.356 . S
N710 C702 1.356 . S
N710 H716 0.984 . S
N710 H717 0.984 . S
N711 C704 1.356 . S
N711 H714 0.984 . S
N711 H715 0.985 . S
H712 N707 0.984 . S
H713 N707 0.985 . S
H714 N711 0.984 . S
H715 N711 0.985 . S
H716 N710 0.984 . S
H717 N710 0.984 . S
H718 N706 0.984 . S
H719 N706 0.985 . S
C720 C721 1.363 . S
C720 C726 1.379 . S
C720 N728 1.356 . S
C721 C720 1.363 . S
C721 C727 1.363 . S
C722 C723 1.363 . S
C722 C727 1.379 . S
C722 N729 1.356 . S
C723 C722 1.363 . S
C723 C726 1.363 . S
N724 C726 1.356 . S
N724 H736 0.984 . S
N724 H737 0.985 . S
N725 C727 1.356 . S
N725 H730 0.984 . S
N725 H731 0.985 . S
C726 C720 1.379 . S
C726 C723 1.363 . S
C726 N724 1.356 . S
C727 C721 1.363 . S
C727 C722 1.379 . S
C727 N725 1.356 . S
N728 C720 1.356 . S
N728 H734 0.984 . S
N728 H735 0.984 . S
N729 C722 1.356 . S
N729 H732 0.984 . S
N729 H733 0.985 . S
H730 N725 0.984 . S
H731 N725 0.985 . S
H732 N729 0.984 . S
H733 N729 0.985 . S
H734 N728 0.984 . S
H735 N728 0.984 . S
H736 N724 0.984 . S
H737 N724 0.985 . S
C738 C739 1.363 . S
C738 C744 1.379 . S
C738 N746 1.356 . S
C739 C738 1.363 . S
C739 C745 1.363 . S
C740 C741 1.363 . S
C740 C745 1.379 . S
C740 N747 1.356 . S
C741 C740 1.363 . S
C741 C744 1.363 . S
N742 C744 1.356 . S
N742 H754 0.984 . S
N742 H755 0.985 . S
N743 C745 1.356 . S
N743 H748 0.984 . S
N743 H749 0.985 . S
C744 C738 1.379 . S
C744 C741 1.363 . S
C744 N742 1.356 . S
C745 C739 1.363 . S
C745 C740 1.379 . S
C745 N743 1.356 . S
N746 C738 1.356 . S
N746 H752 0.984 . S
N746 H753 0.984 . S
N747 C740 1.356 . S
N747 H750 0.984 . S
N747 H751 0.985 . S
H748 N743 0.984 . S
H749 N743 0.985 . S
H750 N747 0.984 . S
H751 N747 0.985 . S
H752 N746 0.984 . S
H753 N746 0.984 . S
H754 N742 0.984 . S
H755 N742 0.985 . S
C756 C757 1.363 . S
C756 C762 1.379 . S
C756 N764 1.356 . S
C757 C756 1.363 . S
C757 C763 1.363 . S
C758 C759 1.363 . S
C758 C763 1.379 . S
C758 N765 1.356 . S
C759 C758 1.363 . S
C759 C762 1.363 . S
N760 C762 1.356 . S
N760 H772 0.984 . S
N760 H773 0.985 . S
N761 C763 1.356 . S
N761 H766 0.984 . S
N761 H767 0.985 . S
C762 C756 1.379 . S
C762 C759 1.363 . S
C762 N760 1.356 . S
C763 C757 1.363 . S
C763 C758 1.379 . S
C763 N761 1.356 . S
N764 C756 1.356 . S
N764 H770 0.984 . S
N764 H771 0.984 . S
N765 C758 1.356 . S
N765 H768 0.984 . S
N765 H769 0.985 . S
H766 N761 0.984 . S
H767 N761 0.985 . S
H768 N765 0.984 . S
H769 N765 0.985 . S
H770 N764 0.984 . S
H771 N764 0.984 . S
H772 N760 0.984 . S
H773 N760 0.985 . S
C774 C775 1.363 . S
C774 C780 1.379 . S
C774 N782 1.356 . S
C775 C774 1.363 . S
C775 C781 1.363 . S
C776 C777 1.363 . S
C776 C781 1.379 . S
C776 N783 1.356 . S
C777 C776 1.363 . S
C777 C780 1.363 . S
N778 C780 1.356 . S
N778 H790 0.984 . S
N778 H791 0.985 . S
N779 C781 1.356 . S
N779 H784 0.984 . S
N779 H785 0.985 . S
C780 C774 1.379 . S
C780 C777 1.363 . S
C780 N778 1.356 . S
C781 C775 1.363 . S
C781 C776 1.379 . S
C781 N779 1.356 . S
N782 C774 1.356 . S
N782 H788 0.984 . S
N782 H789 0.984 . S
N783 C776 1.356 . S
N783 H786 0.984 . S
N783 H787 0.985 . S
H784 N779 0.984 . S
H785 N779 0.985 . S
H786 N783 0.984 . S
H787 N783 0.985 . S
H788 N782 0.984 . S
H789 N782 0.984 . S
H790 N778 0.984 . S
H791 N778 0.985 . S
C792 C793 1.363 . S
C792 C798 1.379 . S
C792 N800 1.356 . S
C793 C792 1.363 . S
C793 C799 1.363 . S
C794 C795 1.363 . S
C794 C799 1.379 . S
C794 N801 1.356 . S
C795 C794 1.363 . S
C795 C798 1.363 . S
N796 C798 1.356 . S
N796 H808 0.984 . S
N796 H809 0.985 . S
N797 C799 1.356 . S
N797 H802 0.984 . S
N797 H803 0.985 . S
C798 C792 1.379 . S
C798 C795 1.363 . S
C798 N796 1.356 . S
C799 C793 1.363 . S
C799 C794 1.379 . S
C799 N797 1.356 . S
N800 C792 1.356 . S
N800 H806 0.984 . S
N800 H807 0.984 . S
N801 C794 1.356 . S
N801 H804 0.984 . S
N801 H805 0.985 . S
H802 N797 0.984 . S
H803 N797 0.985 . S
H804 N801 0.984 . S
H805 N801 0.985 . S
H806 N800 0.984 . S
H807 N800 0.984 . S
H808 N796 0.984 . S
H809 N796 0.985 . S
C810 C811 1.363 . S
C810 C816 1.379 . S
C810 N818 1.356 . S
C811 C810 1.363 . S
C811 C817 1.363 . S
C812 C813 1.363 . S
C812 C817 1.379 . S
C812 N819 1.356 . S
C813 C812 1.363 . S
C813 C816 1.363 . S
N814 C816 1.356 . S
N814 H826 0.984 . S
N814 H827 0.985 . S
N815 C817 1.356 . S
N815 H820 0.984 . S
N815 H821 0.985 . S
C816 C810 1.379 . S
C816 C813 1.363 . S
C816 N814 1.356 . S
C817 C811 1.363 . S
C817 C812 1.379 . S
C817 N815 1.356 . S
N818 C810 1.356 . S
N818 H824 0.984 . S
N818 H825 0.984 . S
N819 C812 1.356 . S
N819 H822 0.984 . S
N819 H823 0.985 . S
H820 N815 0.984 . S
H821 N815 0.985 . S
H822 N819 0.984 . S
H823 N819 0.985 . S
H824 N818 0.984 . S
H825 N818 0.984 . S
H826 N814 0.984 . S
H827 N814 0.985 . S
C828 C829 1.363 . S
C828 C834 1.379 . S
C828 N836 1.356 . S
C829 C828 1.363 . S
C829 C835 1.363 . S
C830 C831 1.363 . S
C830 C835 1.379 . S
C830 N837 1.356 . S
C831 C830 1.363 . S
C831 C834 1.363 . S
N832 C834 1.356 . S
N832 H844 0.984 . S
N832 H845 0.985 . S
N833 C835 1.356 . S
N833 H838 0.984 . S
N833 H839 0.985 . S
C834 C828 1.379 . S
C834 C831 1.363 . S
C834 N832 1.356 . S
C835 C829 1.363 . S
C835 C830 1.379 . S
C835 N833 1.356 . S
N836 C828 1.356 . S
N836 H842 0.984 . S
N836 H843 0.984 . S
N837 C830 1.356 . S
N837 H840 0.984 . S
N837 H841 0.985 . S
H838 N833 0.984 . S
H839 N833 0.985 . S
H840 N837 0.984 . S
H841 N837 0.985 . S
H842 N836 0.984 . S
H843 N836 0.984 . S
H844 N832 0.984 . S
H845 N832 0.985 . S
C846 C847 1.363 . S
C846 C852 1.379 . S
C846 N854 1.356 . S
C847 C846 1.363 . S
C847 C853 1.363 . S
C848 C849 1.363 . S
C848 C853 1.379 . S
C848 N855 1.356 . S
C849 C848 1.363 . S
C849 C852 1.363 . S
N850 C852 1.356 . S
N850 H862 0.984 . S
N850 H863 0.985 . S
N851 C853 1.356 . S
N851 H856 0.984 . S
N851 H857 0.985 . S
C852 C846 1.379 . S
C852 C849 1.363 . S
C852 N850 1.356 . S
C853 C847 1.363 . S
C853 C848 1.379 . S
C853 N851 1.356 . S
N854 C846 1.356 . S
N854 H860 0.984 . S
N854 H861 0.984 . S
N855 C848 1.356 . S
N855 H858 0.984 . S
N855 H859 0.985 . S
H856 N851 0.984 . S
H857 N851 0.985 . S
H858 N855 0.984 . S
H859 N855 0.985 . S
H860 N854 0.984 . S
H861 N854 0.984 . S
H862 N850 0.984 . S
H863 N850 0.985 . S
C864 C865 1.363 . S
C864 C870 1.379 . S
C864 N872 1.356 . S
C865 C864 1.363 . S
C865 C871 1.363 . S
C866 C867 1.363 . S
C866 C871 1.379 . S
C866 N873 1.356 1_554 S
C867 C866 1.363 . S
C867 C870 1.363 . S
N868 C870 1.356 . S
N868 H880 0.984 . S
N868 H881 0.985 . S
N869 C871 1.356 . S
N869 H874 0.984 . S
N869 H875 0.985 . S
C870 C864 1.379 . S
C870 C867 1.363 . S
C870 N868 1.356 . S
C871 C865 1.363 . S
C871 C866 1.379 . S
C871 N869 1.356 . S
N872 C864 1.356 . S
N872 H878 0.984 . S
N872 H879 0.984 . S
N873 C866 1.356 1_556 S
N873 H876 0.984 . S
N873 H877 0.985 . S
H874 N869 0.984 . S
H875 N869 0.985 . S
H876 N873 0.984 . S
H877 N873 0.985 . S
H878 N872 0.984 . S
H879 N872 0.984 . S
H880 N868 0.984 . S
H881 N868 0.985 . S
C882 C883 1.363 . S
C882 C888 1.379 . S
C882 N890 1.356 . S
C883 C882 1.363 . S
C883 C889 1.363 . S
C884 C885 1.363 . S
C884 C889 1.379 . S
C884 N891 1.356 1_554 S
C885 C884 1.363 . S
C885 C888 1.363 . S
N886 C888 1.356 . S
N886 H898 0.984 . S
N886 H899 0.985 . S
N887 C889 1.356 . S
N887 H892 0.984 . S
N887 H893 0.985 . S
C888 C882 1.379 . S
C888 C885 1.363 . S
C888 N886 1.356 . S
C889 C883 1.363 . S
C889 C884 1.379 . S
C889 N887 1.356 . S
N890 C882 1.356 . S
N890 H896 0.984 . S
N890 H897 0.984 . S
N891 C884 1.356 1_556 S
N891 H894 0.984 . S
N891 H895 0.985 . S
H892 N887 0.984 . S
H893 N887 0.985 . S
H894 N891 0.984 . S
H895 N891 0.985 . S
H896 N890 0.984 . S
H897 N890 0.984 . S
H898 N886 0.984 . S
H899 N886 0.985 . S
C900 C901 1.363 . S
C900 C906 1.379 . S
C900 N908 1.356 . S
C901 C900 1.363 . S
C901 C907 1.363 . S
C902 C903 1.363 . S
C902 C907 1.379 . S
C902 N909 1.356 1_554 S
C903 C902 1.363 . S
C903 C906 1.363 . S
N904 C906 1.356 . S
N904 H916 0.984 . S
N904 H917 0.985 . S
N905 C907 1.356 . S
N905 H910 0.984 . S
N905 H911 0.985 . S
C906 C900 1.379 . S
C906 C903 1.363 . S
C906 N904 1.356 . S
C907 C901 1.363 . S
C907 C902 1.379 . S
C907 N905 1.356 . S
N908 C900 1.356 . S
N908 H914 0.984 . S
N908 H915 0.984 . S
N909 C902 1.356 1_556 S
N909 H912 0.984 . S
N909 H913 0.985 . S
H910 N905 0.984 . S
H911 N905 0.985 . S
H912 N909 0.984 . S
H913 N909 0.985 . S
H914 N908 0.984 . S
H915 N908 0.984 . S
H916 N904 0.984 . S
H917 N904 0.985 . S
C918 C919 1.363 . S
C918 C924 1.379 . S
C918 N926 1.356 . S
C919 C918 1.363 . S
C919 C925 1.363 . S
C920 C921 1.363 . S
C920 C925 1.379 . S
C920 N927 1.356 . S
C921 C920 1.363 . S
C921 C924 1.363 . S
N922 C924 1.356 . S
N922 H934 0.984 . S
N922 H935 0.985 . S
N923 C925 1.356 . S
N923 H928 0.984 . S
N923 H929 0.985 . S
C924 C918 1.379 . S
C924 C921 1.363 . S
C924 N922 1.356 . S
C925 C919 1.363 . S
C925 C920 1.379 . S
C925 N923 1.356 . S
N926 C918 1.356 . S
N926 H932 0.984 . S
N926 H933 0.984 . S
N927 C920 1.356 . S
N927 H930 0.984 . S
N927 H931 0.985 . S
H928 N923 0.984 . S
H929 N923 0.985 . S
H930 N927 0.984 . S
H931 N927 0.985 . S
H932 N926 0.984 . S
H933 N926 0.984 . S
H934 N922 0.984 . S
H935 N922 0.985 . S
C936 C937 1.363 . S
C936 C942 1.379 . S
C936 N944 1.356 . S
C937 C936 1.363 . S
C937 C943 1.363 . S
C938 C939 1.363 . S
C938 C943 1.379 . S
C938 N945 1.356 . S
C939 C938 1.363 . S
C939 C942 1.363 . S
N940 C942 1.356 . S
N940 H952 0.984 . S
N940 H953 0.985 . S
N941 C943 1.356 . S
N941 H946 0.984 . S
N941 H947 0.985 . S
C942 C936 1.379 . S
C942 C939 1.363 . S
C942 N940 1.356 . S
C943 C937 1.363 . S
C943 C938 1.379 . S
C943 N941 1.356 . S
N944 C936 1.356 . S
N944 H950 0.984 . S
N944 H951 0.984 . S
N945 C938 1.356 . S
N945 H948 0.984 . S
N945 H949 0.985 . S
H946 N941 0.984 . S
H947 N941 0.985 . S
H948 N945 0.984 . S
H949 N945 0.985 . S
H950 N944 0.984 . S
H951 N944 0.984 . S
H952 N940 0.984 . S
H953 N940 0.985 . S
C954 C955 1.363 . S
C954 C960 1.379 . S
C954 N962 1.356 . S
C955 C954 1.363 . S
C955 C961 1.363 . S
C956 C957 1.363 . S
C956 C961 1.379 . S
C956 N963 1.356 . S
C957 C956 1.363 . S
C957 C960 1.363 . S
N958 C960 1.356 . S
N958 H970 0.984 . S
N958 H971 0.985 . S
N959 C961 1.356 . S
N959 H964 0.984 . S
N959 H965 0.985 . S
C960 C954 1.379 . S
C960 C957 1.363 . S
C960 N958 1.356 . S
C961 C955 1.363 . S
C961 C956 1.379 . S
C961 N959 1.356 . S
N962 C954 1.356 . S
N962 H968 0.984 . S
N962 H969 0.984 . S
N963 C956 1.356 . S
N963 H966 0.984 . S
N963 H967 0.985 . S
H964 N959 0.984 . S
H965 N959 0.985 . S
H966 N963 0.984 . S
H967 N963 0.985 . S
H968 N962 0.984 . S
H969 N962 0.984 . S
H970 N958 0.984 . S
H971 N958 0.985 . S
C972 C973 1.363 . S
C972 C978 1.379 . S
C972 N980 1.356 . S
C973 C972 1.363 . S
C973 C979 1.363 . S
C974 C975 1.363 . S
C974 C979 1.379 . S
C974 N981 1.356 . S
C975 C974 1.363 . S
C975 C978 1.363 . S
N976 C978 1.356 . S
N976 H988 0.984 . S
N976 H989 0.985 . S
N977 C979 1.356 . S
N977 H982 0.984 . S
N977 H983 0.985 . S
C978 C972 1.379 . S
C978 C975 1.363 . S
C978 N976 1.356 . S
C979 C973 1.363 . S
C979 C974 1.379 . S
C979 N977 1.356 . S
N980 C972 1.356 . S
N980 H986 0.984 . S
N980 H987 0.984 . S
N981 C974 1.356 . S
N981 H984 0.984 1_556 S
N981 H985 0.986 . S
H982 N977 0.984 . S
H983 N977 0.985 . S
H984 N981 0.984 1_554 S
H985 N981 0.986 . S
H986 N980 0.984 . S
H987 N980 0.984 . S
H988 N976 0.984 . S
H989 N976 0.985 . S
C990 C991 1.363 . S
C990 C996 1.379 . S
C990 N998 1.356 . S
C991 C990 1.363 . S
C991 C997 1.363 . S
C992 C993 1.363 . S
C992 C997 1.379 . S
C992 N999 1.356 . S
C993 C992 1.363 . S
C993 C996 1.363 . S
N994 C996 1.356 . S
N994 H1006 0.984 . S
N994 H1007 0.985 . S
N995 C997 1.356 . S
N995 H1000 0.984 . S
N995 H1001 0.985 . S
C996 C990 1.379 . S
C996 C993 1.363 . S
C996 N994 1.356 . S
C997 C991 1.363 . S
C997 C992 1.379 . S
C997 N995 1.356 . S
N998 C990 1.356 . S
N998 H1004 0.984 . S
N998 H1005 0.984 . S
N999 C992 1.356 . S
N999 H1002 0.984 . S
N999 H1003 0.985 . S
H1000 N995 0.984 . S
H1001 N995 0.985 . S
H1002 N999 0.984 . S
H1003 N999 0.985 . S
H1004 N998 0.984 . S
H1005 N998 0.984 . S
H1006 N994 0.984 . S
H1007 N994 0.985 . S
C1008 C1009 1.363 . S
C1008 C1014 1.379 . S
C1008 N1016 1.356 . S
C1009 C1008 1.363 . S
C1009 C1015 1.363 . S
C1010 C1011 1.363 . S
C1010 C1015 1.379 . S
C1010 N1017 1.356 1_556 S
C1011 C1010 1.363 . S
C1011 C1014 1.363 . S
N1012 C1014 1.356 . S
N1012 H1024 0.984 . S
N1012 H1025 0.985 . S
N1013 C1015 1.356 . S
N1013 H1018 0.984 . S
N1013 H1019 0.985 . S
C1014 C1008 1.379 . S
C1014 C1011 1.363 . S
C1014 N1012 1.356 . S
C1015 C1009 1.363 . S
C1015 C1010 1.379 . S
C1015 N1013 1.356 . S
N1016 C1008 1.356 . S
N1016 H1022 0.984 . S
N1016 H1023 0.984 . S
N1017 C1010 1.356 1_554 S
N1017 H1020 0.984 . S
N1017 H1021 0.985 . S
H1018 N1013 0.984 . S
H1019 N1013 0.985 . S
H1020 N1017 0.984 . S
H1021 N1017 0.985 . S
H1022 N1016 0.984 . S
H1023 N1016 0.984 . S
H1024 N1012 0.984 . S
H1025 N1012 0.985 . S
C1026 C1027 1.363 . S
C1026 C1032 1.379 . S
C1026 N1034 1.356 . S
C1027 C1026 1.363 . S
C1027 C1033 1.363 . S
C1028 C1029 1.363 . S
C1028 C1033 1.379 . S
C1028 N1035 1.356 . S
C1029 C1028 1.363 . S
C1029 C1032 1.363 . S
N1030 C1032 1.356 . S
N1030 H1042 0.984 . S
N1030 H1043 0.985 . S
N1031 C1033 1.356 . S
N1031 H1036 0.984 . S
N1031 H1037 0.985 . S
C1032 C1026 1.379 . S
C1032 C1029 1.363 . S
C1032 N1030 1.356 . S
C1033 C1027 1.363 . S
C1033 C1028 1.379 . S
C1033 N1031 1.356 . S
N1034 C1026 1.356 . S
N1034 H1040 0.984 . S
N1034 H1041 0.984 . S
N1035 C1028 1.356 . S
N1035 H1038 0.984 . S
N1035 H1039 0.985 . S
H1036 N1031 0.984 . S
H1037 N1031 0.985 . S
H1038 N1035 0.984 . S
H1039 N1035 0.985 . S
H1040 N1034 0.984 . S
H1041 N1034 0.984 . S
H1042 N1030 0.984 . S
H1043 N1030 0.985 . S
C1044 C1045 1.363 . S
C1044 C1050 1.379 . S
C1044 N1052 1.356 . S
C1045 C1044 1.363 . S
C1045 C1051 1.363 . S
C1046 C1047 1.363 . S
C1046 C1051 1.379 . S
C1046 N1053 1.356 . S
C1047 C1046 1.363 . S
C1047 C1050 1.363 . S
N1048 C1050 1.356 . S
N1048 H1060 0.984 . S
N1048 H1061 0.985 . S
N1049 C1051 1.356 . S
N1049 H1054 0.984 . S
N1049 H1055 0.985 . S
C1050 C1044 1.379 . S
C1050 C1047 1.363 . S
C1050 N1048 1.356 . S
C1051 C1045 1.363 . S
C1051 C1046 1.379 . S
C1051 N1049 1.356 . S
N1052 C1044 1.356 . S
N1052 H1058 0.984 . S
N1052 H1059 0.984 . S
N1053 C1046 1.356 . S
N1053 H1056 0.984 . S
N1053 H1057 0.985 . S
H1054 N1049 0.984 . S
H1055 N1049 0.985 . S
H1056 N1053 0.984 . S
H1057 N1053 0.985 . S
H1058 N1052 0.984 . S
H1059 N1052 0.984 . S
H1060 N1048 0.984 . S
H1061 N1048 0.985 . S
C1062 C1063 1.363 . S
C1062 C1068 1.379 . S
C1062 N1070 1.356 . S
C1063 C1062 1.363 . S
C1063 C1069 1.363 . S
C1064 C1065 1.363 . S
C1064 C1069 1.379 . S
C1064 N1071 1.356 . S
C1065 C1064 1.363 . S
C1065 C1068 1.363 . S
N1066 C1068 1.356 . S
N1066 H1078 0.984 . S
N1066 H1079 0.985 . S
N1067 C1069 1.356 . S
N1067 H1072 0.984 . S
N1067 H1073 0.985 . S
C1068 C1062 1.379 . S
C1068 C1065 1.363 . S
C1068 N1066 1.356 . S
C1069 C1063 1.363 . S
C1069 C1064 1.379 . S
C1069 N1067 1.356 . S
N1070 C1062 1.356 . S
N1070 H1076 0.984 . S
N1070 H1077 0.984 . S
N1071 C1064 1.356 . S
N1071 H1074 0.984 . S
N1071 H1075 0.985 . S
H1072 N1067 0.984 . S
H1073 N1067 0.985 . S
H1074 N1071 0.984 . S
H1075 N1071 0.985 . S
H1076 N1070 0.984 . S
H1077 N1070 0.984 . S
H1078 N1066 0.984 . S
H1079 N1066 0.985 . S
C1080 C1081 1.363 . S
C1080 C1086 1.379 . S
C1080 N1088 1.356 . S
C1081 C1080 1.363 . S
C1081 C1087 1.363 . S
C1082 C1083 1.363 . S
C1082 C1087 1.379 . S
C1082 N1089 1.356 . S
C1083 C1082 1.363 . S
C1083 C1086 1.363 . S
N1084 C1086 1.356 . S
N1084 H1096 0.984 . S
N1084 H1097 0.985 . S
N1085 C1087 1.356 . S
N1085 H1090 0.984 . S
N1085 H1091 0.985 . S
C1086 C1080 1.379 . S
C1086 C1083 1.363 . S
C1086 N1084 1.356 . S
C1087 C1081 1.363 . S
C1087 C1082 1.379 . S
C1087 N1085 1.356 . S
N1088 C1080 1.356 . S
N1088 H1094 0.984 . S
N1088 H1095 0.984 . S
N1089 C1082 1.356 . S
N1089 H1092 0.984 . S
N1089 H1093 0.985 . S
H1090 N1085 0.984 . S
H1091 N1085 0.985 . S
H1092 N1089 0.984 . S
H1093 N1089 0.985 . S
H1094 N1088 0.984 . S
H1095 N1088 0.984 . S
H1096 N1084 0.984 . S
H1097 N1084 0.985 . S
C1098 C1099 1.363 . S
C1098 C1104 1.379 . S
C1098 N1106 1.356 . S
C1099 C1098 1.363 . S
C1099 C1105 1.363 . S
C1100 C1101 1.363 . S
C1100 C1105 1.379 . S
C1100 N1107 1.356 . S
C1101 C1100 1.363 . S
C1101 C1104 1.363 . S
N1102 C1104 1.356 . S
N1102 H1114 0.984 . S
N1102 H1115 0.985 . S
N1103 C1105 1.356 . S
N1103 H1108 0.984 . S
N1103 H1109 0.985 . S
C1104 C1098 1.379 . S
C1104 C1101 1.363 . S
C1104 N1102 1.356 . S
C1105 C1099 1.363 . S
C1105 C1100 1.379 . S
C1105 N1103 1.356 . S
N1106 C1098 1.356 . S
N1106 H1112 0.984 . S
N1106 H1113 0.984 . S
N1107 C1100 1.356 . S
N1107 H1110 0.984 . S
N1107 H1111 0.985 . S
H1108 N1103 0.984 . S
H1109 N1103 0.985 . S
H1110 N1107 0.984 . S
H1111 N1107 0.985 . S
H1112 N1106 0.984 . S
H1113 N1106 0.984 . S
H1114 N1102 0.984 . S
H1115 N1102 0.985 . S
C1116 C1117 1.363 . S
C1116 C1122 1.379 . S
C1116 N1124 1.356 . S
C1117 C1116 1.363 . S
C1117 C1123 1.363 . S
C1118 C1119 1.363 . S
C1118 C1123 1.379 . S
C1118 N1125 1.356 . S
C1119 C1118 1.363 . S
C1119 C1122 1.363 . S
N1120 C1122 1.356 . S
N1120 H1132 0.984 . S
N1120 H1133 0.985 . S
N1121 C1123 1.356 . S
N1121 H1126 0.984 . S
N1121 H1127 0.985 . S
C1122 C1116 1.379 . S
C1122 C1119 1.363 . S
C1122 N1120 1.356 . S
C1123 C1117 1.363 . S
C1123 C1118 1.379 . S
C1123 N1121 1.356 . S
N1124 C1116 1.356 . S
N1124 H1130 0.984 . S
N1124 H1131 0.984 . S
N1125 C1118 1.356 . S
N1125 H1128 0.984 . S
N1125 H1129 0.985 . S
H1126 N1121 0.984 . S
H1127 N1121 0.985 . S
H1128 N1125 0.984 . S
H1129 N1125 0.985 . S
H1130 N1124 0.984 . S
H1131 N1124 0.984 . S
H1132 N1120 0.984 . S
H1133 N1120 0.985 . S
C1134 C1135 1.363 . S
C1134 C1140 1.379 . S
C1134 N1142 1.356 1_545 S
C1135 C1134 1.363 . S
C1135 C1141 1.363 . S
C1136 C1137 1.363 . S
C1136 C1141 1.379 . S
C1136 N1143 1.356 . S
C1137 C1136 1.363 . S
C1137 C1140 1.363 . S
N1138 C1140 1.356 1_565 S
N1138 H1150 0.984 . S
N1138 H1151 0.985 . S
N1139 C1141 1.356 . S
N1139 H1144 0.984 . S
N1139 H1145 0.985 . S
C1140 C1134 1.379 . S
C1140 C1137 1.363 . S
C1140 N1138 1.356 1_545 S
C1141 C1135 1.363 . S
C1141 C1136 1.379 . S
C1141 N1139 1.356 . S
N1142 C1134 1.356 1_565 S
N1142 H1148 0.984 . S
N1142 H1149 0.984 . S
N1143 C1136 1.356 . S
N1143 H1146 0.984 . S
N1143 H1147 0.985 . S
H1144 N1139 0.984 . S
H1145 N1139 0.985 . S
H1146 N1143 0.984 . S
H1147 N1143 0.985 . S
H1148 N1142 0.984 . S
H1149 N1142 0.984 . S
H1150 N1138 0.984 . S
H1151 N1138 0.985 . S
C1152 C1153 1.363 . S
C1152 C1158 1.379 . S
C1152 N1160 1.356 . S
C1153 C1152 1.363 . S
C1153 C1159 1.363 1_655 S
C1154 C1155 1.363 1_455 S
C1154 C1159 1.379 . S
C1154 N1161 1.356 . S
C1155 C1154 1.363 1_655 S
C1155 C1158 1.363 . S
N1156 C1158 1.356 . S
N1156 H1168 0.984 . S
N1156 H1169 0.985 . S
N1157 C1159 1.356 . S
N1157 H1162 0.984 . S
N1157 H1163 0.985 . S
C1158 C1152 1.379 . S
C1158 C1155 1.363 . S
C1158 N1156 1.356 . S
C1159 C1153 1.363 1_455 S
C1159 C1154 1.379 . S
C1159 N1157 1.356 . S
N1160 C1152 1.356 . S
N1160 H1166 0.984 . S
N1160 H1167 0.984 . S
N1161 C1154 1.356 . S
N1161 H1164 0.984 . S
N1161 H1165 0.985 . S
H1162 N1157 0.984 . S
H1163 N1157 0.985 . S
H1164 N1161 0.984 . S
H1165 N1161 0.985 . S
H1166 N1160 0.984 . S
H1167 N1160 0.984 . S
H1168 N1156 0.984 . S
H1169 N1156 0.985 . S
C1170 C1171 1.363 . S
C1170 C1176 1.379 . S
C1170 N1178 1.356 . S
C1171 C1170 1.363 . S
C1171 C1177 1.363 . S
C1172 C1173 1.363 . S
C1172 C1177 1.379 . S
C1172 N1179 1.356 . S
C1173 C1172 1.363 . S
C1173 C1176 1.363 . S
N1174 C1176 1.356 . S
N1174 H1186 0.984 . S
N1174 H1187 0.985 . S
N1175 C1177 1.356 . S
N1175 H1180 0.984 . S
N1175 H1181 0.985 . S
C1176 C1170 1.379 . S
C1176 C1173 1.363 . S
C1176 N1174 1.356 . S
C1177 C1171 1.363 . S
C1177 C1172 1.379 . S
C1177 N1175 1.356 . S
N1178 C1170 1.356 . S
N1178 H1184 0.984 . S
N1178 H1185 0.984 . S
N1179 C1172 1.356 . S
N1179 H1182 0.984 . S
N1179 H1183 0.985 . S
H1180 N1175 0.984 . S
H1181 N1175 0.985 . S
H1182 N1179 0.984 . S
H1183 N1179 0.985 . S
H1184 N1178 0.984 . S
H1185 N1178 0.984 . S
H1186 N1174 0.984 . S
H1187 N1174 0.985 . S
C1188 C1189 1.363 . S
C1188 C1194 1.379 . S
C1188 N1196 1.356 . S
C1189 C1188 1.363 . S
C1189 C1195 1.363 . S
C1190 C1191 1.363 . S
C1190 C1195 1.379 . S
C1190 N1197 1.356 . S
C1191 C1190 1.363 . S
C1191 C1194 1.363 . S
N1192 C1194 1.356 . S
N1192 H1204 0.984 . S
N1192 H1205 0.985 . S
N1193 C1195 1.356 . S
N1193 H1198 0.984 . S
N1193 H1199 0.985 . S
C1194 C1188 1.379 . S
C1194 C1191 1.363 . S
C1194 N1192 1.356 . S
C1195 C1189 1.363 . S
C1195 C1190 1.379 . S
C1195 N1193 1.356 . S
N1196 C1188 1.356 . S
N1196 H1202 0.984 . S
N1196 H1203 0.984 . S
N1197 C1190 1.356 . S
N1197 H1200 0.984 . S
N1197 H1201 0.985 . S
H1198 N1193 0.984 . S
H1199 N1193 0.985 . S
H1200 N1197 0.984 . S
H1201 N1197 0.985 . S
H1202 N1196 0.984 . S
H1203 N1196 0.984 . S
H1204 N1192 0.984 . S
H1205 N1192 0.985 . S
C1206 C1207 1.363 . S
C1206 C1212 1.379 . S
C1206 N1214 1.356 . S
C1207 C1206 1.363 . S
C1207 C1213 1.363 . S
C1208 C1209 1.363 . S
C1208 C1213 1.379 . S
C1208 N1215 1.356 . S
C1209 C1208 1.363 . S
C1209 C1212 1.363 . S
N1210 C1212 1.356 . S
N1210 H1222 0.984 . S
N1210 H1223 0.985 . S
N1211 C1213 1.356 . S
N1211 H1216 0.984 . S
N1211 H1217 0.985 . S
C1212 C1206 1.379 . S
C1212 C1209 1.363 . S
C1212 N1210 1.356 . S
C1213 C1207 1.363 . S
C1213 C1208 1.379 . S
C1213 N1211 1.356 . S
N1214 C1206 1.356 . S
N1214 H1220 0.984 . S
N1214 H1221 0.984 . S
N1215 C1208 1.356 . S
N1215 H1218 0.984 . S
N1215 H1219 0.985 . S
H1216 N1211 0.984 . S
H1217 N1211 0.985 . S
H1218 N1215 0.984 . S
H1219 N1215 0.985 . S
H1220 N1214 0.984 . S
H1221 N1214 0.984 . S
H1222 N1210 0.984 . S
H1223 N1210 0.985 . S
C1224 C1225 1.363 . S
C1224 C1230 1.379 . S
C1224 N1232 1.356 . S
C1225 C1224 1.363 . S
C1225 C1231 1.363 1_565 S
C1226 C1227 1.363 1_545 S
C1226 C1231 1.379 . S
C1226 N1233 1.356 . S
C1227 C1226 1.363 1_565 S
C1227 C1230 1.363 . S
N1228 C1230 1.356 . S
N1228 H1240 0.984 . S
N1228 H1241 0.985 . S
N1229 C1231 1.356 . S
N1229 H1234 0.984 . S
N1229 H1235 0.985 . S
C1230 C1224 1.379 . S
C1230 C1227 1.363 . S
C1230 N1228 1.356 . S
C1231 C1225 1.363 1_545 S
C1231 C1226 1.379 . S
C1231 N1229 1.356 . S
N1232 C1224 1.356 . S
N1232 H1238 0.984 . S
N1232 H1239 0.984 . S
N1233 C1226 1.356 . S
N1233 H1236 0.984 . S
N1233 H1237 0.985 . S
H1234 N1229 0.984 . S
H1235 N1229 0.985 . S
H1236 N1233 0.984 . S
H1237 N1233 0.985 . S
H1238 N1232 0.984 . S
H1239 N1232 0.984 . S
H1240 N1228 0.984 . S
H1241 N1228 0.985 . S
C1242 C1243 1.363 1_545 S
C1242 C1248 1.379 . S
C1242 N1250 1.356 . S
C1243 C1242 1.363 1_565 S
C1243 C1249 1.363 . S
C1244 C1245 1.363 . S
C1244 C1249 1.379 . S
C1244 N1251 1.356 . S
C1245 C1244 1.363 . S
C1245 C1248 1.363 1_565 S
N1246 C1248 1.356 . S
N1246 H1258 0.984 . S
N1246 H1259 0.985 . S
N1247 C1249 1.356 . S
N1247 H1252 0.984 . S
N1247 H1253 0.985 . S
C1248 C1242 1.379 . S
C1248 C1245 1.363 1_545 S
C1248 N1246 1.356 . S
C1249 C1243 1.363 . S
C1249 C1244 1.379 . S
C1249 N1247 1.356 . S
N1250 C1242 1.356 . S
N1250 H1256 0.984 . S
N1250 H1257 0.984 . S
N1251 C1244 1.356 . S
N1251 H1254 0.984 . S
N1251 H1255 0.985 . S
H1252 N1247 0.984 . S
H1253 N1247 0.985 . S
H1254 N1251 0.984 . S
H1255 N1251 0.985 . S
H1256 N1250 0.984 . S
H1257 N1250 0.984 . S
H1258 N1246 0.984 . S
H1259 N1246 0.985 . S
C1260 C1261 1.363 . S
C1260 C1266 1.379 . S
C1260 N1268 1.356 . S
C1261 C1260 1.363 . S
C1261 C1267 1.363 . S
C1262 C1263 1.363 . S
C1262 C1267 1.379 . S
C1262 N1269 1.356 . S
C1263 C1262 1.363 . S
C1263 C1266 1.363 . S
N1264 C1266 1.356 . S
N1264 H1276 0.984 1_455 S
N1264 H1277 0.985 . S
N1265 C1267 1.356 . S
N1265 H1270 0.984 . S
N1265 H1271 0.985 . S
C1266 C1260 1.379 . S
C1266 C1263 1.363 . S
C1266 N1264 1.356 . S
C1267 C1261 1.363 . S
C1267 C1262 1.379 . S
C1267 N1265 1.356 . S
N1268 C1260 1.356 . S
N1268 H1274 0.984 1_455 S
N1268 H1275 0.984 . S
N1269 C1262 1.356 . S
N1269 H1272 0.984 . S
N1269 H1273 0.985 . S
H1270 N1265 0.984 . S
H1271 N1265 0.985 . S
H1272 N1269 0.984 . S
H1273 N1269 0.985 . S
H1274 N1268 0.984 1_655 S
H1275 N1268 0.984 . S
H1276 N1264 0.984 1_655 S
H1277 N1264 0.985 . S
C1278 C1279 1.363 . S
C1278 C1284 1.379 . S
C1278 N1286 1.356 . S
C1279 C1278 1.363 . S
C1279 C1285 1.363 . S
C1280 C1281 1.363 . S
C1280 C1285 1.379 . S
C1280 N1287 1.356 . S
C1281 C1280 1.363 . S
C1281 C1284 1.363 . S
N1282 C1284 1.356 . S
N1282 H1294 0.984 . S
N1282 H1295 0.985 . S
N1283 C1285 1.356 . S
N1283 H1288 0.984 . S
N1283 H1289 0.985 . S
C1284 C1278 1.379 . S
C1284 C1281 1.363 . S
C1284 N1282 1.356 . S
C1285 C1279 1.363 . S
C1285 C1280 1.379 . S
C1285 N1283 1.356 . S
N1286 C1278 1.356 . S
N1286 H1292 0.984 . S
N1286 H1293 0.984 . S
N1287 C1280 1.356 . S
N1287 H1290 0.984 . S
N1287 H1291 0.985 . S
H1288 N1283 0.984 . S
H1289 N1283 0.985 . S
H1290 N1287 0.984 . S
H1291 N1287 0.985 . S
H1292 N1286 0.984 . S
H1293 N1286 0.984 . S
H1294 N1282 0.984 . S
H1295 N1282 0.985 . S
C1296 C1297 1.363 1_455 S
C1296 C1302 1.379 . S
C1296 N1304 1.356 . S
C1297 C1296 1.363 1_655 S
C1297 C1303 1.363 . S
C1298 C1299 1.363 . S
C1298 C1303 1.379 . S
C1298 N1305 1.356 . S
C1299 C1298 1.363 . S
C1299 C1302 1.363 1_655 S
N1300 C1302 1.356 . S
N1300 H1312 0.984 . S
N1300 H1313 0.985 . S
N1301 C1303 1.356 . S
N1301 H1306 0.984 . S
N1301 H1307 0.985 . S
C1302 C1296 1.379 . S
C1302 C1299 1.363 1_455 S
C1302 N1300 1.356 . S
C1303 C1297 1.363 . S
C1303 C1298 1.379 . S
C1303 N1301 1.356 . S
N1304 C1296 1.356 . S
N1304 H1310 0.984 . S
N1304 H1311 0.984 . S
N1305 C1298 1.356 . S
N1305 H1308 0.984 . S
N1305 H1309 0.985 . S
H1306 N1301 0.984 . S
H1307 N1301 0.985 . S
H1308 N1305 0.984 . S
H1309 N1305 0.985 . S
H1310 N1304 0.984 . S
H1311 N1304 0.984 . S
H1312 N1300 0.984 . S
H1313 N1300 0.985 . S
C1314 C1315 1.363 . S
C1314 C1320 1.379 . S
C1314 N1322 1.356 . S
C1315 C1314 1.363 . S
C1315 C1321 1.363 . S
C1316 C1317 1.363 . S
C1316 C1321 1.379 . S
C1316 N1323 1.356 . S
C1317 C1316 1.363 . S
C1317 C1320 1.363 . S
N1318 C1320 1.356 . S
N1318 H1330 0.984 . S
N1318 H1331 0.985 . S
N1319 C1321 1.356 . S
N1319 H1324 0.984 . S
N1319 H1325 0.985 . S
C1320 C1314 1.379 . S
C1320 C1317 1.363 . S
C1320 N1318 1.356 . S
C1321 C1315 1.363 . S
C1321 C1316 1.379 . S
C1321 N1319 1.356 . S
N1322 C1314 1.356 . S
N1322 H1328 0.984 . S
N1322 H1329 0.984 . S
N1323 C1316 1.356 . S
N1323 H1326 0.984 . S
N1323 H1327 0.985 . S
H1324 N1319 0.984 . S
H1325 N1319 0.985 . S
H1326 N1323 0.984 . S
H1327 N1323 0.985 . S
H1328 N1322 0.984 . S
H1329 N1322 0.984 . S
H1330 N1318 0.984 . S
H1331 N1318 0.985 . S
C1332 C1333 1.363 . S
C1332 C1338 1.379 . S
C1332 N1340 1.356 . S
C1333 C1332 1.363 . S
C1333 C1339 1.363 . S
C1334 C1335 1.363 . S
C1334 C1339 1.379 . S
C1334 N1341 1.356 1_545 S
C1335 C1334 1.363 . S
C1335 C1338 1.363 . S
N1336 C1338 1.356 . S
N1336 H1348 0.984 . S
N1336 H1349 0.985 . S
N1337 C1339 1.356 1_565 S
N1337 H1342 0.984 . S
N1337 H1343 0.985 . S
C1338 C1332 1.379 . S
C1338 C1335 1.363 . S
C1338 N1336 1.356 . S
C1339 C1333 1.363 . S
C1339 C1334 1.379 . S
C1339 N1337 1.356 1_545 S
N1340 C1332 1.356 . S
N1340 H1346 0.984 . S
N1340 H1347 0.984 . S
N1341 C1334 1.356 1_565 S
N1341 H1344 0.984 . S
N1341 H1345 0.985 . S
H1342 N1337 0.984 . S
H1343 N1337 0.985 . S
H1344 N1341 0.984 . S
H1345 N1341 0.985 . S
H1346 N1340 0.984 . S
H1347 N1340 0.984 . S
H1348 N1336 0.984 . S
H1349 N1336 0.985 . S
C1350 C1351 1.363 . S
C1350 C1356 1.379 . S
C1350 N1358 1.356 . S
C1351 C1350 1.363 . S
C1351 C1357 1.363 . S
C1352 C1353 1.363 . S
C1352 C1357 1.379 . S
C1352 N1359 1.356 . S
C1353 C1352 1.363 . S
C1353 C1356 1.363 . S
N1354 C1356 1.356 . S
N1354 H1366 0.984 . S
N1354 H1367 0.985 . S
N1355 C1357 1.356 . S
N1355 H1360 0.984 . S
N1355 H1361 0.985 . S
C1356 C1350 1.379 . S
C1356 C1353 1.363 . S
C1356 N1354 1.356 . S
C1357 C1351 1.363 . S
C1357 C1352 1.379 . S
C1357 N1355 1.356 . S
N1358 C1350 1.356 . S
N1358 H1364 0.984 . S
N1358 H1365 0.984 . S
N1359 C1352 1.356 . S
N1359 H1362 0.984 . S
N1359 H1363 0.985 . S
H1360 N1355 0.984 . S
H1361 N1355 0.985 . S
H1362 N1359 0.984 . S
H1363 N1359 0.985 . S
H1364 N1358 0.984 . S
H1365 N1358 0.984 . S
H1366 N1354 0.984 . S
H1367 N1354 0.985 . S
C1368 C1369 1.363 . S
C1368 C1374 1.379 . S
C1368 N1376 1.356 . S
C1369 C1368 1.363 . S
C1369 C1375 1.363 . S
C1370 C1371 1.363 . S
C1370 C1375 1.379 . S
C1370 N1377 1.356 . S
C1371 C1370 1.363 . S
C1371 C1374 1.363 . S
N1372 C1374 1.356 . S
N1372 H1384 0.984 . S
N1372 H1385 0.985 . S
N1373 C1375 1.356 . S
N1373 H1378 0.984 . S
N1373 H1379 0.985 . S
C1374 C1368 1.379 . S
C1374 C1371 1.363 . S
C1374 N1372 1.356 . S
C1375 C1369 1.363 . S
C1375 C1370 1.379 . S
C1375 N1373 1.356 . S
N1376 C1368 1.356 . S
N1376 H1382 0.984 . S
N1376 H1383 0.984 . S
N1377 C1370 1.356 . S
N1377 H1380 0.984 . S
N1377 H1381 0.985 . S
H1378 N1373 0.984 . S
H1379 N1373 0.985 . S
H1380 N1377 0.984 . S
H1381 N1377 0.985 . S
H1382 N1376 0.984 . S
H1383 N1376 0.984 . S
H1384 N1372 0.984 . S
H1385 N1372 0.985 . S
C1386 C1387 1.363 . S
C1386 C1392 1.379 . S
C1386 N1394 1.356 . S
C1387 C1386 1.363 . S
C1387 C1393 1.363 . S
C1388 C1389 1.363 . S
C1388 C1393 1.379 . S
C1388 N1395 1.356 . S
C1389 C1388 1.363 . S
C1389 C1392 1.363 . S
N1390 C1392 1.356 . S
N1390 H1402 0.984 . S
N1390 H1403 0.985 . S
N1391 C1393 1.356 . S
N1391 H1396 0.984 . S
N1391 H1397 0.985 . S
C1392 C1386 1.379 . S
C1392 C1389 1.363 . S
C1392 N1390 1.356 . S
C1393 C1387 1.363 . S
C1393 C1388 1.379 . S
C1393 N1391 1.356 . S
N1394 C1386 1.356 . S
N1394 H1400 0.984 . S
N1394 H1401 0.984 . S
N1395 C1388 1.356 . S
N1395 H1398 0.984 . S
N1395 H1399 0.985 . S
H1396 N1391 0.984 . S
H1397 N1391 0.985 . S
H1398 N1395 0.984 . S
H1399 N1395 0.985 . S
H1400 N1394 0.984 . S
H1401 N1394 0.984 . S
H1402 N1390 0.984 . S
H1403 N1390 0.985 . S
C1404 C1405 1.363 . S
C1404 C1410 1.379 . S
C1404 N1412 1.356 . S
C1405 C1404 1.363 . S
C1405 C1411 1.363 . S
C1406 C1407 1.363 . S
C1406 C1411 1.379 . S
C1406 N1413 1.356 . S
C1407 C1406 1.363 . S
C1407 C1410 1.363 . S
N1408 C1410 1.356 . S
N1408 H1420 0.984 . S
N1408 H1421 0.985 . S
N1409 C1411 1.356 . S
N1409 H1414 0.984 . S
N1409 H1415 0.985 . S
C1410 C1404 1.379 . S
C1410 C1407 1.363 . S
C1410 N1408 1.356 . S
C1411 C1405 1.363 . S
C1411 C1406 1.379 . S
C1411 N1409 1.356 . S
N1412 C1404 1.356 . S
N1412 H1418 0.984 . S
N1412 H1419 0.984 . S
N1413 C1406 1.356 . S
N1413 H1416 0.984 . S
N1413 H1417 0.985 . S
H1414 N1409 0.984 . S
H1415 N1409 0.985 . S
H1416 N1413 0.984 . S
H1417 N1413 0.985 . S
H1418 N1412 0.984 . S
H1419 N1412 0.984 . S
H1420 N1408 0.984 . S
H1421 N1408 0.985 . S
C1422 C1423 1.363 . S
C1422 C1428 1.379 . S
C1422 N1430 1.356 . S
C1423 C1422 1.363 . S
C1423 C1429 1.363 . S
C1424 C1425 1.363 . S
C1424 C1429 1.379 . S
C1424 N1431 1.356 . S
C1425 C1424 1.363 . S
C1425 C1428 1.363 . S
N1426 C1428 1.356 . S
N1426 H1438 0.984 . S
N1426 H1439 0.985 . S
N1427 C1429 1.356 . S
N1427 H1432 0.984 . S
N1427 H1433 0.985 . S
C1428 C1422 1.379 . S
C1428 C1425 1.363 . S
C1428 N1426 1.356 . S
C1429 C1423 1.363 . S
C1429 C1424 1.379 . S
C1429 N1427 1.356 . S
N1430 C1422 1.356 . S
N1430 H1436 0.984 . S
N1430 H1437 0.984 . S
N1431 C1424 1.356 . S
N1431 H1434 0.984 . S
N1431 H1435 0.985 . S
H1432 N1427 0.984 . S
H1433 N1427 0.985 . S
H1434 N1431 0.984 . S
H1435 N1431 0.985 . S
H1436 N1430 0.984 . S
H1437 N1430 0.984 . S
H1438 N1426 0.984 . S
H1439 N1426 0.985 . S
C1440 C1441 1.363 . S
C1440 C1446 1.379 . S
C1440 N1448 1.356 . S
C1441 C1440 1.363 . S
C1441 C1447 1.363 . S
C1442 C1443 1.363 . S
C1442 C1447 1.379 . S
C1442 N1449 1.356 . S
C1443 C1442 1.363 . S
C1443 C1446 1.363 . S
N1444 C1446 1.356 . S
N1444 H1456 0.984 . S
N1444 H1457 0.985 . S
N1445 C1447 1.356 . S
N1445 H1450 0.984 . S
N1445 H1451 0.985 . S
C1446 C1440 1.379 . S
C1446 C1443 1.363 . S
C1446 N1444 1.356 . S
C1447 C1441 1.363 . S
C1447 C1442 1.379 . S
C1447 N1445 1.356 . S
N1448 C1440 1.356 . S
N1448 H1454 0.984 . S
N1448 H1455 0.984 . S
N1449 C1442 1.356 . S
N1449 H1452 0.984 . S
N1449 H1453 0.985 . S
H1450 N1445 0.984 . S
H1451 N1445 0.985 . S
H1452 N1449 0.984 . S
H1453 N1449 0.985 . S
H1454 N1448 0.984 . S
H1455 N1448 0.984 . S
H1456 N1444 0.984 . S
H1457 N1444 0.985 . S
C1458 C1459 1.363 . S
C1458 C1464 1.379 . S
C1458 N1466 1.356 . S
C1459 C1458 1.363 . S
C1459 C1465 1.363 . S
C1460 C1461 1.363 . S
C1460 C1465 1.379 . S
C1460 N1467 1.356 . S
C1461 C1460 1.363 . S
C1461 C1464 1.363 . S
N1462 C1464 1.356 . S
N1462 H1474 0.984 . S
N1462 H1475 0.985 . S
N1463 C1465 1.356 . S
N1463 H1468 0.984 . S
N1463 H1469 0.985 . S
C1464 C1458 1.379 . S
C1464 C1461 1.363 . S
C1464 N1462 1.356 . S
C1465 C1459 1.363 . S
C1465 C1460 1.379 . S
C1465 N1463 1.356 . S
N1466 C1458 1.356 . S
N1466 H1472 0.984 . S
N1466 H1473 0.984 . S
N1467 C1460 1.356 . S
N1467 H1470 0.984 . S
N1467 H1471 0.985 . S
H1468 N1463 0.984 . S
H1469 N1463 0.985 . S
H1470 N1467 0.984 . S
H1471 N1467 0.985 . S
H1472 N1466 0.984 . S
H1473 N1466 0.984 . S
H1474 N1462 0.984 . S
H1475 N1462 0.985 . S
C1476 C1477 1.363 . S
C1476 C1482 1.379 . S
C1476 N1484 1.356 . S
C1477 C1476 1.363 . S
C1477 C1483 1.363 . S
C1478 C1479 1.363 . S
C1478 C1483 1.379 . S
C1478 N1485 1.356 . S
C1479 C1478 1.363 . S
C1479 C1482 1.363 . S
N1480 C1482 1.356 . S
N1480 H1492 0.984 . S
N1480 H1493 0.985 . S
N1481 C1483 1.356 . S
N1481 H1486 0.984 . S
N1481 H1487 0.985 . S
C1482 C1476 1.379 . S
C1482 C1479 1.363 . S
C1482 N1480 1.356 . S
C1483 C1477 1.363 . S
C1483 C1478 1.379 . S
C1483 N1481 1.356 . S
N1484 C1476 1.356 . S
N1484 H1490 0.984 . S
N1484 H1491 0.984 . S
N1485 C1478 1.356 . S
N1485 H1488 0.984 . S
N1485 H1489 0.985 . S
H1486 N1481 0.984 . S
H1487 N1481 0.985 . S
H1488 N1485 0.984 . S
H1489 N1485 0.985 . S
H1490 N1484 0.984 . S
H1491 N1484 0.984 . S
H1492 N1480 0.984 . S
H1493 N1480 0.985 . S
C1494 C1495 1.363 . S
C1494 C1500 1.379 . S
C1494 N1502 1.356 . S
C1495 C1494 1.363 . S
C1495 C1501 1.363 . S
C1496 C1497 1.363 . S
C1496 C1501 1.379 . S
C1496 N1503 1.356 . S
C1497 C1496 1.363 . S
C1497 C1500 1.363 . S
N1498 C1500 1.356 . S
N1498 H1510 0.984 . S
N1498 H1511 0.985 . S
N1499 C1501 1.356 . S
N1499 H1504 0.984 . S
N1499 H1505 0.985 . S
C1500 C1494 1.379 . S
C1500 C1497 1.363 . S
C1500 N1498 1.356 . S
C1501 C1495 1.363 . S
C1501 C1496 1.379 . S
C1501 N1499 1.356 . S
N1502 C1494 1.356 . S
N1502 H1508 0.984 . S
N1502 H1509 0.984 . S
N1503 C1496 1.356 . S
N1503 H1506 0.984 . S
N1503 H1507 0.985 . S
H1504 N1499 0.984 . S
H1505 N1499 0.985 . S
H1506 N1503 0.984 . S
H1507 N1503 0.985 . S
H1508 N1502 0.984 . S
H1509 N1502 0.984 . S
H1510 N1498 0.984 . S
H1511 N1498 0.985 . S
C1512 C1513 1.363 . S
C1512 C1518 1.379 . S
C1512 N1520 1.356 . S
C1513 C1512 1.363 . S
C1513 C1519 1.363 . S
C1514 C1515 1.363 . S
C1514 C1519 1.379 . S
C1514 N1521 1.356 . S
C1515 C1514 1.363 . S
C1515 C1518 1.363 . S
N1516 C1518 1.356 . S
N1516 H1528 0.984 . S
N1516 H1529 0.985 . S
N1517 C1519 1.356 . S
N1517 H1522 0.984 . S
N1517 H1523 0.985 . S
C1518 C1512 1.379 . S
C1518 C1515 1.363 . S
C1518 N1516 1.356 . S
C1519 C1513 1.363 . S
C1519 C1514 1.379 . S
C1519 N1517 1.356 . S
N1520 C1512 1.356 . S
N1520 H1526 0.984 . S
N1520 H1527 0.984 . S
N1521 C1514 1.356 . S
N1521 H1524 0.984 . S
N1521 H1525 0.985 . S
H1522 N1517 0.984 . S
H1523 N1517 0.985 . S
H1524 N1521 0.984 . S
H1525 N1521 0.985 . S
H1526 N1520 0.984 . S
H1527 N1520 0.984 . S
H1528 N1516 0.984 . S
H1529 N1516 0.985 . S
C1530 C1531 1.363 . S
C1530 C1536 1.379 . S
C1530 N1538 1.356 . S
C1531 C1530 1.363 . S
C1531 C1537 1.363 . S
C1532 C1533 1.363 . S
C1532 C1537 1.379 . S
C1532 N1539 1.356 . S
C1533 C1532 1.363 . S
C1533 C1536 1.363 . S
N1534 C1536 1.356 . S
N1534 H1546 0.984 . S
N1534 H1547 0.985 . S
N1535 C1537 1.356 . S
N1535 H1540 0.984 . S
N1535 H1541 0.985 . S
C1536 C1530 1.379 . S
C1536 C1533 1.363 . S
C1536 N1534 1.356 . S
C1537 C1531 1.363 . S
C1537 C1532 1.379 . S
C1537 N1535 1.356 . S
N1538 C1530 1.356 . S
N1538 H1544 0.984 . S
N1538 H1545 0.984 . S
N1539 C1532 1.356 . S
N1539 H1542 0.984 . S
N1539 H1543 0.985 . S
H1540 N1535 0.984 . S
H1541 N1535 0.985 . S
H1542 N1539 0.984 . S
H1543 N1539 0.985 . S
H1544 N1538 0.984 . S
H1545 N1538 0.984 . S
H1546 N1534 0.984 . S
H1547 N1534 0.985 . S
C1548 C1549 1.363 . S
C1548 C1554 1.379 . S
C1548 N1556 1.356 . S
C1549 C1548 1.363 . S
C1549 C1555 1.363 . S
C1550 C1551 1.363 . S
C1550 C1555 1.379 . S
C1550 N1557 1.356 . S
C1551 C1550 1.363 . S
C1551 C1554 1.363 . S
N1552 C1554 1.356 . S
N1552 H1564 0.984 . S
N1552 H1565 0.985 . S
N1553 C1555 1.356 . S
N1553 H1558 0.984 . S
N1553 H1559 0.985 . S
C1554 C1548 1.379 . S
C1554 C1551 1.363 . S
C1554 N1552 1.356 . S
C1555 C1549 1.363 . S
C1555 C1550 1.379 . S
C1555 N1553 1.356 . S
N1556 C1548 1.356 . S
N1556 H1562 0.984 . S
N1556 H1563 0.984 . S
N1557 C1550 1.356 . S
N1557 H1560 0.984 . S
N1557 H1561 0.985 . S
H1558 N1553 0.984 . S
H1559 N1553 0.985 . S
H1560 N1557 0.984 . S
H1561 N1557 0.985 . S
H1562 N1556 0.984 . S
H1563 N1556 0.984 . S
H1564 N1552 0.984 . S
H1565 N1552 0.985 . S
C1566 C1567 1.363 . S
C1566 C1572 1.379 . S
C1566 N1574 1.356 . S
C1567 C1566 1.363 . S
C1567 C1573 1.363 . S
C1568 C1569 1.363 . S
C1568 C1573 1.379 . S
C1568 N1575 1.356 . S
C1569 C1568 1.363 . S
C1569 C1572 1.363 . S
N1570 C1572 1.356 . S
N1570 H1582 0.984 . S
N1570 H1583 0.985 . S
N1571 C1573 1.356 . S
N1571 H1576 0.984 . S
N1571 H1577 0.985 . S
C1572 C1566 1.379 . S
C1572 C1569 1.363 . S
C1572 N1570 1.356 . S
C1573 C1567 1.363 . S
C1573 C1568 1.379 . S
C1573 N1571 1.356 . S
N1574 C1566 1.356 . S
N1574 H1580 0.984 . S
N1574 H1581 0.984 . S
N1575 C1568 1.356 . S
N1575 H1578 0.984 . S
N1575 H1579 0.985 . S
H1576 N1571 0.984 . S
H1577 N1571 0.985 . S
H1578 N1575 0.984 . S
H1579 N1575 0.985 . S
H1580 N1574 0.984 . S
H1581 N1574 0.984 . S
H1582 N1570 0.984 . S
H1583 N1570 0.985 . S
C1584 C1585 1.363 . S
C1584 C1590 1.379 . S
C1584 N1592 1.356 . S
C1585 C1584 1.363 . S
C1585 C1591 1.363 . S
C1586 C1587 1.363 . S
C1586 C1591 1.379 . S
C1586 N1593 1.356 . S
C1587 C1586 1.363 . S
C1587 C1590 1.363 . S
N1588 C1590 1.356 . S
N1588 H1600 0.984 . S
N1588 H1601 0.985 . S
N1589 C1591 1.356 . S
N1589 H1594 0.984 . S
N1589 H1595 0.985 . S
C1590 C1584 1.379 . S
C1590 C1587 1.363 . S
C1590 N1588 1.356 . S
C1591 C1585 1.363 . S
C1591 C1586 1.379 . S
C1591 N1589 1.356 . S
N1592 C1584 1.356 . S
N1592 H1598 0.984 . S
N1592 H1599 0.984 . S
N1593 C1586 1.356 . S
N1593 H1596 0.984 . S
N1593 H1597 0.985 . S
H1594 N1589 0.984 . S
H1595 N1589 0.985 . S
H1596 N1593 0.984 . S
H1597 N1593 0.985 . S
H1598 N1592 0.984 . S
H1599 N1592 0.984 . S
H1600 N1588 0.984 . S
H1601 N1588 0.985 . S
C1602 C1603 1.363 . S
C1602 C1608 1.379 . S
C1602 N1610 1.356 . S
C1603 C1602 1.363 . S
C1603 C1609 1.363 . S
C1604 C1605 1.363 . S
C1604 C1609 1.379 . S
C1604 N1611 1.356 . S
C1605 C1604 1.363 . S
C1605 C1608 1.363 . S
N1606 C1608 1.356 . S
N1606 H1618 0.984 . S
N1606 H1619 0.985 . S
N1607 C1609 1.356 . S
N1607 H1612 0.984 . S
N1607 H1613 0.985 . S
C1608 C1602 1.379 . S
C1608 C1605 1.363 . S
C1608 N1606 1.356 . S
C1609 C1603 1.363 . S
C1609 C1604 1.379 . S
C1609 N1607 1.356 . S
N1610 C1602 1.356 . S
N1610 H1616 0.984 . S
N1610 H1617 0.984 . S
N1611 C1604 1.356 . S
N1611 H1614 0.984 . S
N1611 H1615 0.985 . S
H1612 N1607 0.984 . S
H1613 N1607 0.985 . S
H1614 N1611 0.984 . S
H1615 N1611 0.985 . S
H1616 N1610 0.984 . S
H1617 N1610 0.984 . S
H1618 N1606 0.984 . S
H1619 N1606 0.985 . S
C1620 C1621 1.363 . S
C1620 C1626 1.379 . S
C1620 N1628 1.356 . S
C1621 C1620 1.363 . S
C1621 C1627 1.363 . S
C1622 C1623 1.363 . S
C1622 C1627 1.379 . S
C1622 N1629 1.356 . S
C1623 C1622 1.363 . S
C1623 C1626 1.363 . S
N1624 C1626 1.356 . S
N1624 H1636 0.984 . S
N1624 H1637 0.985 . S
N1625 C1627 1.356 . S
N1625 H1630 0.984 . S
N1625 H1631 0.985 . S
C1626 C1620 1.379 . S
C1626 C1623 1.363 . S
C1626 N1624 1.356 . S
C1627 C1621 1.363 . S
C1627 C1622 1.379 . S
C1627 N1625 1.356 . S
N1628 C1620 1.356 . S
N1628 H1634 0.984 . S
N1628 H1635 0.984 . S
N1629 C1622 1.356 . S
N1629 H1632 0.984 . S
N1629 H1633 0.985 . S
H1630 N1625 0.984 . S
H1631 N1625 0.985 . S
H1632 N1629 0.984 . S
H1633 N1629 0.985 . S
H1634 N1628 0.984 . S
H1635 N1628 0.984 . S
H1636 N1624 0.984 . S
H1637 N1624 0.985 . S
C1638 C1639 1.363 . S
C1638 C1644 1.379 . S
C1638 N1646 1.356 . S
C1639 C1638 1.363 . S
C1639 C1645 1.363 . S
C1640 C1641 1.363 . S
C1640 C1645 1.379 . S
C1640 N1647 1.356 . S
C1641 C1640 1.363 . S
C1641 C1644 1.363 . S
N1642 C1644 1.356 . S
N1642 H1654 0.984 . S
N1642 H1655 0.985 . S
N1643 C1645 1.356 . S
N1643 H1648 0.984 . S
N1643 H1649 0.985 . S
C1644 C1638 1.379 . S
C1644 C1641 1.363 . S
C1644 N1642 1.356 . S
C1645 C1639 1.363 . S
C1645 C1640 1.379 . S
C1645 N1643 1.356 . S
N1646 C1638 1.356 . S
N1646 H1652 0.984 . S
N1646 H1653 0.984 . S
N1647 C1640 1.356 . S
N1647 H1650 0.984 . S
N1647 H1651 0.985 . S
H1648 N1643 0.984 . S
H1649 N1643 0.985 . S
H1650 N1647 0.984 . S
H1651 N1647 0.985 . S
H1652 N1646 0.984 . S
H1653 N1646 0.984 . S
H1654 N1642 0.984 . S
H1655 N1642 0.985 . S
C1656 C1657 1.363 . S
C1656 C1662 1.379 . S
C1656 N1664 1.356 . S
C1657 C1656 1.363 . S
C1657 C1663 1.363 . S
C1658 C1659 1.363 . S
C1658 C1663 1.379 . S
C1658 N1665 1.356 . S
C1659 C1658 1.363 . S
C1659 C1662 1.363 . S
N1660 C1662 1.356 . S
N1660 H1672 0.984 . S
N1660 H1673 0.985 . S
N1661 C1663 1.356 . S
N1661 H1666 0.984 . S
N1661 H1667 0.985 . S
C1662 C1656 1.379 . S
C1662 C1659 1.363 . S
C1662 N1660 1.356 . S
C1663 C1657 1.363 . S
C1663 C1658 1.379 . S
C1663 N1661 1.356 . S
N1664 C1656 1.356 . S
N1664 H1670 0.984 . S
N1664 H1671 0.984 . S
N1665 C1658 1.356 . S
N1665 H1668 0.984 . S
N1665 H1669 0.985 . S
H1666 N1661 0.984 . S
H1667 N1661 0.985 . S
H1668 N1665 0.984 . S
H1669 N1665 0.985 . S
H1670 N1664 0.984 . S
H1671 N1664 0.984 . S
H1672 N1660 0.984 . S
H1673 N1660 0.985 . S
C1674 C1675 1.363 . S
C1674 C1680 1.379 . S
C1674 N1682 1.356 . S
C1675 C1674 1.363 . S
C1675 C1681 1.363 . S
C1676 C1677 1.363 . S
C1676 C1681 1.379 . S
C1676 N1683 1.356 . S
C1677 C1676 1.363 . S
C1677 C1680 1.363 . S
N1678 C1680 1.356 . S
N1678 H1690 0.984 . S
N1678 H1691 0.985 . S
N1679 C1681 1.356 . S
N1679 H1684 0.984 . S
N1679 H1685 0.985 . S
C1680 C1674 1.379 . S
C1680 C1677 1.363 . S
C1680 N1678 1.356 . S
C1681 C1675 1.363 . S
C1681 C1676 1.379 . S
C1681 N1679 1.356 . S
N1682 C1674 1.356 . S
N1682 H1688 0.984 . S
N1682 H1689 0.984 . S
N1683 C1676 1.356 . S
N1683 H1686 0.984 . S
N1683 H1687 0.985 . S
H1684 N1679 0.984 . S
H1685 N1679 0.985 . S
H1686 N1683 0.984 . S
H1687 N1683 0.985 . S
H1688 N1682 0.984 . S
H1689 N1682 0.984 . S
H1690 N1678 0.984 . S
H1691 N1678 0.985 . S
C1692 C1693 1.363 . S
C1692 C1698 1.379 . S
C1692 N1700 1.356 . S
C1693 C1692 1.363 . S
C1693 C1699 1.363 . S
C1694 C1695 1.363 . S
C1694 C1699 1.379 . S
C1694 N1701 1.356 . S
C1695 C1694 1.363 . S
C1695 C1698 1.363 . S
N1696 C1698 1.356 . S
N1696 H1708 0.984 . S
N1696 H1709 0.985 . S
N1697 C1699 1.356 . S
N1697 H1702 0.984 . S
N1697 H1703 0.985 . S
C1698 C1692 1.379 . S
C1698 C1695 1.363 . S
C1698 N1696 1.356 . S
C1699 C1693 1.363 . S
C1699 C1694 1.379 . S
C1699 N1697 1.356 . S
N1700 C1692 1.356 . S
N1700 H1706 0.984 . S
N1700 H1707 0.984 . S
N1701 C1694 1.356 . S
N1701 H1704 0.984 . S
N1701 H1705 0.985 . S
H1702 N1697 0.984 . S
H1703 N1697 0.985 . S
H1704 N1701 0.984 . S
H1705 N1701 0.985 . S
H1706 N1700 0.984 . S
H1707 N1700 0.984 . S
H1708 N1696 0.984 . S
H1709 N1696 0.985 . S
C1710 C1711 1.363 . S
C1710 C1716 1.379 . S
C1710 N1718 1.356 . S
C1711 C1710 1.363 . S
C1711 C1717 1.363 . S
C1712 C1713 1.363 . S
C1712 C1717 1.379 . S
C1712 N1719 1.356 . S
C1713 C1712 1.363 . S
C1713 C1716 1.363 . S
N1714 C1716 1.356 . S
N1714 H1726 0.984 . S
N1714 H1727 0.985 . S
N1715 C1717 1.356 . S
N1715 H1720 0.984 . S
N1715 H1721 0.985 . S
C1716 C1710 1.379 . S
C1716 C1713 1.363 . S
C1716 N1714 1.356 . S
C1717 C1711 1.363 . S
C1717 C1712 1.379 . S
C1717 N1715 1.356 . S
N1718 C1710 1.356 . S
N1718 H1724 0.984 . S
N1718 H1725 0.984 . S
N1719 C1712 1.356 . S
N1719 H1722 0.984 . S
N1719 H1723 0.985 . S
H1720 N1715 0.984 . S
H1721 N1715 0.985 . S
H1722 N1719 0.984 . S
H1723 N1719 0.985 . S
H1724 N1718 0.984 . S
H1725 N1718 0.984 . S
H1726 N1714 0.984 . S
H1727 N1714 0.985 . S
C1728 C1729 1.363 . S
C1728 C1734 1.379 . S
C1728 N1736 1.356 . S
C1729 C1728 1.363 . S
C1729 C1735 1.363 . S
C1730 C1731 1.363 . S
C1730 C1735 1.379 . S
C1730 N1737 1.356 . S
C1731 C1730 1.363 . S
C1731 C1734 1.363 . S
N1732 C1734 1.356 . S
N1732 H1744 0.984 . S
N1732 H1745 0.985 . S
N1733 C1735 1.356 . S
N1733 H1738 0.984 . S
N1733 H1739 0.985 . S
C1734 C1728 1.379 . S
C1734 C1731 1.363 . S
C1734 N1732 1.356 . S
C1735 C1729 1.363 . S
C1735 C1730 1.379 . S
C1735 N1733 1.356 . S
N1736 C1728 1.356 . S
N1736 H1742 0.984 . S
N1736 H1743 0.984 . S
N1737 C1730 1.356 . S
N1737 H1740 0.984 . S
N1737 H1741 0.985 . S
H1738 N1733 0.984 . S
H1739 N1733 0.985 . S
H1740 N1737 0.984 . S
H1741 N1737 0.985 . S
H1742 N1736 0.984 . S
H1743 N1736 0.984 . S
H1744 N1732 0.984 . S
H1745 N1732 0.985 . S
C1746 C1747 1.363 . S
C1746 C1752 1.379 . S
C1746 N1754 1.356 . S
C1747 C1746 1.363 . S
C1747 C1753 1.363 . S
C1748 C1749 1.363 . S
C1748 C1753 1.379 . S
C1748 N1755 1.356 . S
C1749 C1748 1.363 . S
C1749 C1752 1.363 . S
N1750 C1752 1.356 . S
N1750 H1762 0.984 . S
N1750 H1763 0.985 . S
N1751 C1753 1.356 . S
N1751 H1756 0.984 . S
N1751 H1757 0.985 . S
C1752 C1746 1.379 . S
C1752 C1749 1.363 . S
C1752 N1750 1.356 . S
C1753 C1747 1.363 . S
C1753 C1748 1.379 . S
C1753 N1751 1.356 . S
N1754 C1746 1.356 . S
N1754 H1760 0.984 . S
N1754 H1761 0.984 . S
N1755 C1748 1.356 . S
N1755 H1758 0.984 . S
N1755 H1759 0.985 . S
H1756 N1751 0.984 . S
H1757 N1751 0.985 . S
H1758 N1755 0.984 . S
H1759 N1755 0.985 . S
H1760 N1754 0.984 . S
H1761 N1754 0.984 . S
H1762 N1750 0.984 . S
H1763 N1750 0.985 . S
C1764 C1765 1.363 . S
C1764 C1770 1.379 . S
C1764 N1772 1.356 . S
C1765 C1764 1.363 . S
C1765 C1771 1.363 . S
C1766 C1767 1.363 . S
C1766 C1771 1.379 . S
C1766 N1773 1.356 . S
C1767 C1766 1.363 . S
C1767 C1770 1.363 . S
N1768 C1770 1.356 . S
N1768 H1780 0.984 . S
N1768 H1781 0.985 . S
N1769 C1771 1.356 . S
N1769 H1774 0.984 . S
N1769 H1775 0.985 . S
C1770 C1764 1.379 . S
C1770 C1767 1.363 . S
C1770 N1768 1.356 . S
C1771 C1765 1.363 . S
C1771 C1766 1.379 . S
C1771 N1769 1.356 . S
N1772 C1764 1.356 . S
N1772 H1778 0.984 . S
N1772 H1779 0.984 . S
N1773 C1766 1.356 . S
N1773 H1776 0.984 . S
N1773 H1777 0.985 . S
H1774 N1769 0.984 . S
H1775 N1769 0.985 . S
H1776 N1773 0.984 . S
H1777 N1773 0.985 . S
H1778 N1772 0.984 . S
H1779 N1772 0.984 . S
H1780 N1768 0.984 . S
H1781 N1768 0.985 . S
C487 C34 1.369 . S
C489 C238 1.228 . S
C505 C8 1.382 . S
C507 C254 1.246 . S
C525 C237 1.219 . S
C523 C18 1.325 . S
C543 C262 1.193 . S
C541 C31 1.317 . S
C559 C5 1.347 . S
C561 C271 1.238 . S
C579 C274 1.234 . S
C577 C21 1.372 . S
C595 C73 1.369 . S
C597 C280 1.228 . S
C615 C296 1.246 . S
C613 C47 1.384 . S
C633 C279 1.219 . S
C631 C57 1.325 . S
C649 C70 1.317 . S
C651 C304 1.193 . S
C669 C313 1.238 . S
C667 C44 1.347 . S
C687 C316 1.234 . S
C685 C60 1.372 . S
C705 C325 1.229 . S
C703 C112 1.369 . S
C723 C337 1.246 . S
C721 C86 1.384 . S
C741 C334 1.219 . S
C739 C96 1.325 . S
C757 C109 1.317 . S
C759 C343 1.193 . S
C777 C342 1.238 . S
C775 C83 1.347 . S
C793 C99 1.372 . S
C795 C359 1.234 . S
C813 C364 1.229 . S
C811 C151 1.369 . S
C831 C380 1.246 . S
C829 C125 1.384 . S
C847 C135 1.325 . S
C849 C363 1.219 . S
C867 C388 1.193 . S
C865 C148 1.317 . S
C885 C397 1.238 . S
C883 C122 1.347 . S
C901 C138 1.372 . S
C903 C400 1.234 . S
C919 C190 1.369 . S
C921 C409 1.228 . S
C939 C421 1.246 . S
C937 C164 1.384 . S
C957 C418 1.219 . S
C955 C174 1.325 . S
C973 C187 1.317 . S
C975 C427 1.193 . S
C993 C426 1.238 . S
C991 C161 1.347 . S
C1009 C177 1.372 . S
C1011 C443 1.234 . S
C1029 C448 1.229 . S
C1027 C229 1.369 . S
C1047 C464 1.246 . S
C1045 C203 1.384 . S
C1063 C213 1.325 . S
C1065 C447 1.219 . S
C1083 C469 1.193 . S
C1081 C226 1.317 . S
C1101 C468 1.238 . S
C1099 C200 1.347 . S
C1119 C485 1.234 . S
C1117 C216 1.372 . S
C1137 C250 1.390 . S
C1135 C143 1.475 . S
C1153 C117 1.493 . S
C1155 C253 1.395 . S
C1173 C241 1.352 . S
C1171 C140 1.457 . S
C1189 C231 1.490 . S
C1191 C258 1.409 . S
C1207 C205 1.510 . S
C1209 C259 1.407 . S
C1227 C275 1.425 . S
C1225 C208 1.504 . S
C1245 C292 1.386 . S
C1243 C182 1.475 . S
C1263 C295 1.395 . S
C1261 C156 1.494 . S
C1279 C179 1.457 . S
C1281 C283 1.352 . S
C1299 C300 1.409 . S
C1297 C114 1.490 . S
C1315 C88 1.510 . S
C1317 C301 1.407 . S
C1333 C91 1.504 . S
C1335 C317 1.425 . S
C1351 C221 1.475 . S
C1353 C321 1.390 . S
C1369 C195 1.493 . S
C1371 C338 1.395 . S
C1389 C322 1.352 . S
C1387 C218 1.457 . S
C1407 C355 1.409 . S
C1405 C75 1.490 . S
C1425 C346 1.407 . S
C1423 C49 1.510 . S
C1441 C52 1.504 . S
C1443 C358 1.425 . S
C1461 C376 1.390 . S
C1459 C26 1.475 . S
C1479 C379 1.395 . S
C1477 C0 1.493 . S
C1495 C23 1.457 . S
C1497 C367 1.352 . S
C1515 C384 1.409 . S
C1513 C192 1.490 . S
C1533 C385 1.407 . S
C1531 C166 1.510 . S
C1551 C401 1.425 . S
C1549 C169 1.504 . S
C1569 C405 1.390 . S
C1567 C65 1.475 . S
C1587 C422 1.395 . S
C1585 C39 1.493 . S
C1603 C62 1.457 . S
C1605 C406 1.352 . S
C1621 C153 1.490 . S
C1623 C439 1.409 . S
C1639 C127 1.510 . S
C1641 C430 1.407 . S
C1659 C442 1.425 . S
C1657 C130 1.504 . S
C1675 C104 1.475 . S
C1677 C460 1.390 . S
C1693 C78 1.494 . S
C1695 C463 1.395 . S
C1713 C451 1.352 . S
C1711 C101 1.457 . S
C1731 C481 1.409 . S
C1729 C36 1.490 . S
C1749 C472 1.407 . S
C1747 C10 1.510 . S
C1765 C13 1.504 . S
C1767 C484 1.425 . S
