# Generated by pormake.
# Topology anh, (6,3)-cn, num edge types: 1
# Building blocks:
#     Node 0, Type 0, BuildingBlock: NUHQIS_clean_sbu_0, # of connection points: 6
#     Node 1, Type 0, BuildingBlock: NUHQIS_clean_sbu_0, # of connection points: 6
#     Node 2, Type 0, BuildingBlock: NUHQIS_clean_sbu_0, # of connection points: 6
#     Node 3, Type 1, BuildingBlock: WUSLED_clean_sbu_0, # of connection points: 3
#     Node 4, Type 1, BuildingBlock: WUSLED_clean_sbu_0, # of connection points: 3
#     Node 5, Type 1, BuildingBlock: WUSLED_clean_sbu_0, # of connection points: 3
#     Node 6, Type 1, BuildingBlock: WUSLED_clean_sbu_0, # of connection points: 3
#     Node 7, Type 1, BuildingBlock: WUSLED_clean_sbu_0, # of connection points: 3
#     Node 8, Type 1, BuildingBlock: WUSLED_clean_sbu_0, # of connection points: 3
#     Edge 9, Type (0, 1), BuildingBlock: XIVTED_clean_linker_0, # of connection points: 2
#     Edge 10, Type (0, 1), BuildingBlock: XIVTED_clean_linker_0, # of connection points: 2
#     Edge 11, Type (0, 1), BuildingBlock: XIVTED_clean_linker_0, # of connection points: 2
#     Edge 12, Type (0, 1), BuildingBlock: XIVTED_clean_linker_0, # of connection points: 2
#     Edge 13, Type (0, 1), BuildingBlock: XIVTED_clean_linker_0, # of connection points: 2
#     Edge 14, Type (0, 1), BuildingBlock: XIVTED_clean_linker_0, # of connection points: 2
#     Edge 15, Type (0, 1), BuildingBlock: XIVTED_clean_linker_0, # of connection points: 2
#     Edge 16, Type (0, 1), BuildingBlock: XIVTED_clean_linker_0, # of connection points: 2
#     Edge 17, Type (0, 1), BuildingBlock: XIVTED_clean_linker_0, # of connection points: 2
#     Edge 18, Type (0, 1), BuildingBlock: XIVTED_clean_linker_0, # of connection points: 2
#     Edge 19, Type (0, 1), BuildingBlock: XIVTED_clean_linker_0, # of connection points: 2
#     Edge 20, Type (0, 1), BuildingBlock: XIVTED_clean_linker_0, # of connection points: 2
#     Edge 21, Type (0, 1), BuildingBlock: XIVTED_clean_linker_0, # of connection points: 2
#     Edge 22, Type (0, 1), BuildingBlock: XIVTED_clean_linker_0, # of connection points: 2
#     Edge 23, Type (0, 1), BuildingBlock: XIVTED_clean_linker_0, # of connection points: 2
#     Edge 24, Type (0, 1), BuildingBlock: XIVTED_clean_linker_0, # of connection points: 2
#     Edge 25, Type (0, 1), BuildingBlock: XIVTED_clean_linker_0, # of connection points: 2
#     Edge 26, Type (0, 1), BuildingBlock: XIVTED_clean_linker_0, # of connection points: 2
# Relax obj value: 0.218
# Max RMSD: 0.182
# Mean RMSD: 0.148
data_MOF--net-anh--node1-NUHQIS_clean_sbu_0--node2-WUSLED_clean_sbu_0--edge1-XIVTED_clean_linker_0
_symmetry_space_group_name_H-M    P1
_symmetry_Int_Tables_number       1
_symmetry_cell_setting            triclinic
loop_
_symmetry_equiv_pos_as_xyz
'x, y, z'
_cell_length_a     39.070786
_cell_length_b     39.218921
_cell_length_c     70.379931
_cell_angle_alpha  90.917114
_cell_angle_beta   92.233118
_cell_angle_gamma 119.84326
loop_
_atom_site_label
_atom_site_type_symbol
_atom_site_fract_x
_atom_site_fract_y
_atom_site_fract_z
_atom_type_partial_charge
Tb0 Tb 0.14052 0.55174 0.1632 0.0
Eu1 Eu 0.09438 0.6009 0.15975 0.0
C2 C 0.11591 0.5784 0.19944 0.0
C3 C 1.04553 0.50506 0.16442 0.0
C4 C 0.21789 0.52948 0.17698 0.0
C5 C 0.25649 0.52373 0.20339 0.0
C6 C 0.21997 0.51204 0.19394 0.0
C7 C 0.25273 0.55992 0.17007 0.0
C8 C 0.28908 0.57134 0.17938 0.0
C9 C 0.29163 0.55275 0.1959 0.0
C10 C 0.17938 0.5169 0.16698 0.0
O11 O 0.11823 0.54458 0.13341 0.0
O12 O 0.11966 0.60309 0.13147 0.0
O13 O 0.15759 0.64779 0.1681 0.0
O14 O 0.18994 0.6133 0.16295 0.0
C15 C 0.11964 0.573 0.12318 0.0
O16 O 1.05039 0.61205 0.14564 0.0
O17 O 1.08547 0.64819 0.17034 0.0
O18 O 1.08784 0.57896 0.18907 0.0
O19 O 0.14484 0.57656 0.19164 0.0
O20 O 1.07941 0.50604 0.16801 0.0
O21 O 1.04466 0.5366 0.15876 0.0
C22 C 0.19062 0.64673 0.16696 0.0
O23 O 0.15091 0.51129 0.17783 0.0
O24 O 0.17962 0.53585 0.15185 0.0
C25 C 1.01783 0.62588 0.16901 0.0
C26 C 0.94353 0.59398 0.18453 0.0
C27 C 0.95466 0.62282 0.17077 0.0
C28 C 0.99166 0.6386 0.16298 0.0
C29 C 1.00755 0.59875 0.18348 0.0
C30 C 0.97076 0.58298 0.1912 0.0
C31 C 1.05398 0.63705 0.15915 0.0
H32 H 0.2573 0.509 0.21614 0.0
H33 H 0.19339 0.48891 0.19972 0.0
H34 H 0.25221 0.5744 0.15717 0.0
H35 H 0.3153 0.59315 0.17282 0.0
H36 H 0.93393 0.63141 0.16521 0.0
H37 H 0.9991 0.6593 0.15174 0.0
H38 H 1.02731 0.58841 0.18825 0.0
H39 H 0.96297 0.56098 0.20183 0.0
Tb40 Tb 0.6547 0.10294 0.49939 0.0
Eu41 Eu 0.55997 0.06091 0.49412 0.0
C42 C 0.60333 0.07719 0.53451 0.0
C43 C 0.60533 1.00984 0.4996 0.0
C44 C 0.75628 0.18155 0.50397 0.0
C45 C 0.81737 0.24052 0.51393 0.0
C46 C 0.79278 0.19977 0.51431 0.0
C47 C 0.74413 0.20412 0.49354 0.0
C48 C 0.76852 0.24453 0.49314 0.0
C49 C 0.80542 0.26302 0.50319 0.0
C50 C 0.72846 0.13994 0.50578 0.0
O51 O 0.64471 0.10917 0.46893 0.0
O52 O 0.57858 0.06395 0.46423 0.0
O53 O 0.58004 0.12511 0.48933 0.0
O54 O 0.64111 0.15079 0.50469 0.0
C55 C 0.61309 0.08764 0.45754 0.0
O56 O 0.50296 1.01312 0.48294 0.0
O57 O 0.50521 1.05759 0.50236 0.0
O58 O 0.57669 0.08091 0.52458 0.0
O59 O 0.63199 0.07591 0.52618 0.0
O60 O 0.63811 1.04097 0.49476 0.0
O61 O 0.57353 1.01241 0.50255 0.0
C62 C 0.61157 0.15513 0.49781 0.0
O63 O 0.7033 0.13315 0.51875 0.0
O64 O 0.71114 0.11999 0.48993 0.0
C65 C 0.46181 0.99198 0.5083 0.0
C66 C 0.42319 0.92655 0.53085 0.0
C67 C 0.40151 0.93589 0.51752 0.0
C68 C 0.4208 0.96835 0.5062 0.0
C69 C 0.48315 0.98424 0.52247 0.0
C70 C 0.46402 0.95148 0.53355 0.0
C71 C 0.48361 1.02225 0.49477 0.0
H72 H 0.84577 0.25432 0.52176 0.0
H73 H 0.80194 0.18262 0.5228 0.0
H74 H 0.71545 0.19052 0.48595 0.0
H75 H 0.75841 0.26143 0.48504 0.0
H76 H 0.37003 0.91638 0.51485 0.0
H77 H 0.40405 0.97381 0.49524 0.0
H78 H 0.51495 1.00237 0.52426 0.0
H79 H 0.48129 0.94445 0.54349 0.0
Tb80 Tb 0.63492 0.61735 0.82982 0.0
Eu81 Eu 0.58541 0.52303 0.82472 0.0
C82 C 0.61369 0.56541 0.86501 0.0
C83 C 0.68196 0.56956 0.83018 0.0
C84 C 0.65823 0.71621 0.8434 0.0
C85 C 0.66246 0.77964 0.84669 0.0
C86 C 0.6787 0.75676 0.84091 0.0
C87 C 0.62269 0.69897 0.85274 0.0
C88 C 0.60634 0.7217 0.8584 0.0
C89 C 0.62543 0.76197 0.85482 0.0
C90 C 0.67105 0.69101 0.83441 0.0
O91 O 0.63898 0.60242 0.80008 0.0
O92 O 0.58011 0.54536 0.79625 0.0
O93 O 0.5402 0.53956 0.83358 0.0
O94 O 0.57329 0.60531 0.82769 0.0
C95 C 0.60964 0.57575 0.78895 0.0
O96 O 0.57278 0.467 0.81147 0.0
O97 O 0.53759 0.46811 0.83432 0.0
O98 O 0.61363 0.53836 0.854 0.0
O99 O 0.61263 0.59537 0.85764 0.0
O100 O 0.68132 0.60195 0.83476 0.0
O101 O 0.64962 0.53754 0.82364 0.0
C102 C 0.54072 0.57316 0.83197 0.0
O103 O 0.67621 0.66789 0.84579 0.0
O104 O 0.6505 0.67228 0.81886 0.0
C105 C 0.56105 0.42334 0.83633 0.0
C106 C 0.59519 0.38885 0.85931 0.0
C107 C 0.60004 0.39118 0.83959 0.0
C108 C 0.58299 0.40802 0.82822 0.0
C109 C 0.55546 0.42028 0.85606 0.0
C110 C 0.5722 0.40291 0.86743 0.0
C111 C 0.54912 0.44716 0.82479 0.0
H112 H 0.67753 0.81056 0.84358 0.0
H113 H 0.7061 0.77032 0.83366 0.0
H114 H 0.6066 0.66758 0.85479 0.0
H115 H 0.5779 0.70749 0.86473 0.0
H116 H 0.61633 0.37906 0.83282 0.0
H117 H 0.58774 0.40983 0.81311 0.0
H118 H 0.53879 0.43193 0.86282 0.0
H119 H 0.56726 0.40048 0.88251 0.0
C120 C 0.71781 0.17633 0.19513 0.0
C121 C 0.75378 0.18394 0.20435 0.0
C122 C 0.79017 0.24976 0.19075 0.0
C123 C 0.7892 0.22 0.20227 0.0
C124 C 0.75382 0.24204 0.18183 0.0
C125 C 0.71856 0.2062 0.18399 0.0
U126 U 0.62573 0.08254 0.21601 0.0
O127 O 0.56442 1.05216 0.20314 0.0
O128 O 0.59675 1.02002 0.20562 0.0
C129 C 0.56354 1.01859 0.19993 0.0
C130 C 0.68037 0.13665 0.19493 0.0
C131 C 0.52456 0.98038 0.20018 0.0
C132 C 0.45549 0.94097 0.18761 0.0
C133 C 0.49094 0.97731 0.19036 0.0
C134 C 0.48551 0.90897 0.20468 0.0
C135 C 0.45189 0.90578 0.19456 0.0
C136 C 0.52119 0.94548 0.20735 0.0
C137 C 0.63031 0.09389 0.27373 0.0
C138 C 0.60572 1.05624 0.30224 0.0
C139 C 0.64917 0.12672 0.30521 0.0
C140 C 0.65072 0.12822 0.2854 0.0
C141 C 0.6269 0.09075 0.314 0.0
C142 C 0.60765 1.05774 0.28227 0.0
C143 C 0.63598 0.0975 0.25299 0.0
O144 O 0.68206 0.10623 0.20144 0.0
O145 O 0.64741 0.13581 0.19894 0.0
O146 O 0.61551 0.1084 0.24196 0.0
O147 O 0.64858 0.07637 0.24416 0.0
H148 H 0.75479 0.1618 0.21297 0.0
H149 H 0.81589 0.22435 0.20974 0.0
H150 H 0.75256 0.26316 0.17256 0.0
H151 H 0.69178 0.20137 0.17638 0.0
H152 H 0.43127 0.94049 0.17939 0.0
H153 H 0.49243 1.00306 0.18412 0.0
H154 H 0.48447 0.88316 0.21055 0.0
H155 H 0.54639 0.94616 0.21471 0.0
H156 H 0.5884 1.02797 0.30849 0.0
H157 H 0.66534 0.15396 0.31367 0.0
H158 H 0.66855 0.15642 0.27915 0.0
H159 H 0.59186 1.03079 0.27358 0.0
C160 C 0.60629 0.68001 0.52843 0.0
C161 C 0.63441 0.71504 0.53836 0.0
C162 C 0.60449 0.75227 0.52438 0.0
C163 C 0.63344 0.75049 0.53642 0.0
C164 C 0.57623 0.71691 0.5147 0.0
C165 C 0.57717 0.68167 0.51669 0.0
U166 U 0.6117 0.58551 0.54643 0.0
O167 O 0.5804 0.52712 0.53123 0.0
O168 O 0.64495 0.55906 0.53391 0.0
C169 C 0.61292 0.52662 0.52767 0.0
C170 C 0.60891 0.64283 0.5279 0.0
C171 C 0.61204 0.48764 0.528 0.0
C172 C 0.58401 0.42051 0.51407 0.0
C173 C 0.58348 0.45604 0.51627 0.0
C174 C 0.64148 0.44632 0.53567 0.0
C175 C 0.61312 0.41471 0.5236 0.0
C176 C 0.64109 0.48218 0.53775 0.0
C177 C 0.61044 0.58571 0.60472 0.0
C178 C 0.58327 0.55151 0.63378 0.0
C179 C 0.63672 0.61895 0.63586 0.0
C180 C 0.63723 0.61913 0.61592 0.0
C181 C 0.60984 0.58505 0.64517 0.0
C182 C 0.58335 0.55199 0.61385 0.0
C183 C 0.611 0.58576 0.58364 0.0
O184 O 0.64197 0.64421 0.53379 0.0
O185 O 0.57746 0.6095 0.53169 0.0
O186 O 0.57845 0.56761 0.57262 0.0
O187 O 0.64397 0.60389 0.57466 0.0
H188 H 0.65761 0.7153 0.54741 0.0
H189 H 0.65557 0.77657 0.54438 0.0
H190 H 0.55386 0.71652 0.50499 0.0
H191 H 0.55554 0.65567 0.50846 0.0
H192 H 0.56201 0.39805 0.50428 0.0
H193 H 0.56113 0.45923 0.5082 0.0
H194 H 0.66423 0.44358 0.54358 0.0
H195 H 0.66393 0.50581 0.54677 0.0
H196 H 0.56266 0.52447 0.6402 0.0
H197 H 0.65718 0.64568 0.64392 0.0
H198 H 0.65829 0.64564 0.60924 0.0
H199 H 0.56262 0.52566 0.60557 0.0
C200 C 1.0119 0.56354 0.86168 0.0
C201 C 1.00507 0.59045 0.87204 0.0
C202 C 0.93788 0.56261 0.85696 0.0
C203 C 0.96863 0.58987 0.86978 0.0
C204 C 0.9449 0.53546 0.84689 0.0
C205 C 0.98109 0.53594 0.84923 0.0
U206 U 0.11285 0.5682 0.88041 0.0
O207 O 0.14158 0.53924 0.86598 0.0
O208 O 0.17072 0.6035 0.86757 0.0
C209 C 0.17283 0.57252 0.86191 0.0
C210 C 1.05172 0.56628 0.86143 0.0
C211 C 0.21263 0.57513 0.86253 0.0
C212 C 0.27834 0.60373 0.84954 0.0
C213 C 0.24242 0.60328 0.85162 0.0
C214 C 0.25645 0.54824 0.86966 0.0
C215 C 0.28609 0.57598 0.85833 0.0
C216 C 0.22028 0.5477 0.87166 0.0
C217 C 0.11505 0.56514 0.93877 0.0
C218 C 0.14242 0.59813 0.96986 0.0
C219 C 1.08997 0.53023 0.96797 0.0
C220 C 1.08938 0.5308 0.94801 0.0
C221 C 0.11644 0.56395 0.97922 0.0
C222 C 0.1416 0.59875 0.94993 0.0
C223 C 0.11412 0.56608 0.91762 0.0
O224 O 1.0833 0.59891 0.86783 0.0
O225 O 1.05413 0.53472 0.86501 0.0
O226 O 0.09805 0.53396 0.90655 0.0
O227 O 0.12945 0.59925 0.90864 0.0
H228 H 1.02812 0.61246 0.88163 0.0
H229 H 0.96472 0.61103 0.87809 0.0
H230 H 0.92292 0.51444 0.83659 0.0
H231 H 0.98546 0.5153 0.84071 0.0
H232 H 0.29947 0.6252 0.8404 0.0
H233 H 0.23737 0.62438 0.84408 0.0
H234 H 0.26098 0.52664 0.87698 0.0
H235 H 0.19805 0.52531 0.88006 0.0
H236 H 0.16379 0.62448 0.97791 0.0
H237 H 1.06911 0.50351 0.97455 0.0
H238 H 1.06842 0.50445 0.93981 0.0
H239 H 0.16203 0.62558 0.94327 0.0
C240 C 1.04548 0.61196 0.4684 0.0
C241 C 1.00767 0.59819 0.45982 0.0
C242 C 0.98002 0.54849 0.48346 0.0
C243 C 0.97504 0.56697 0.46748 0.0
C244 C 1.01723 0.56526 0.49321 0.0
C245 C 1.04978 0.59697 0.48571 0.0
U246 U 0.10181 0.63662 0.42318 0.0
O247 O 0.14705 0.69391 0.41316 0.0
O248 O 0.16225 0.64829 0.41968 0.0
C249 C 0.17533 0.68593 0.41763 0.0
C250 C 1.08083 0.63647 0.4581 0.0
C251 C 0.20257 0.70994 0.43346 0.0
C252 C 0.20663 0.72684 0.46705 0.0
C253 C 0.18601 0.71638 0.4495 0.0
C254 C 0.2626 0.72832 0.45259 0.0
C255 C 0.24505 0.73254 0.46895 0.0
C256 C 0.24125 0.71653 0.43499 0.0
C257 C 1.06241 0.58322 0.37665 0.0
C258 C 0.10231 0.6129 0.34977 0.0
C259 C 1.04887 0.54515 0.34705 0.0
C260 C 1.04021 0.54784 0.36594 0.0
C261 C 1.07957 0.57797 0.33878 0.0
C262 C 0.09399 0.61542 0.36858 0.0
C263 C 1.0542 0.58688 0.39645 0.0
O264 O 0.09908 0.61789 0.4525 0.0
O265 O 1.07773 0.65847 0.44498 0.0
O266 O 1.05467 0.61985 0.40092 0.0
O267 O 1.07404 0.5779 0.40895 0.0
H268 H 1.00363 0.60948 0.44648 0.0
H269 H 0.94645 0.55511 0.45995 0.0
H270 H 1.02203 0.55165 0.50552 0.0
H271 H 1.07884 0.60748 0.49254 0.0
H272 H 0.19156 0.72888 0.47922 0.0
H273 H 0.15582 0.71051 0.44882 0.0
H274 H 0.29252 0.73342 0.4534 0.0
H275 H 0.25413 0.71073 0.42287 0.0
H276 H 0.1264 0.6384 0.34373 0.0
H277 H 1.03094 0.51797 0.33875 0.0
H278 H 1.01614 0.52257 0.37212 0.0
H279 H 0.11202 0.64272 0.3768 0.0
C280 C 0.52266 0.99827 0.80417 0.0
C281 C 0.52033 0.96641 0.79375 0.0
C282 C 0.52245 0.93607 0.82325 0.0
C283 C 0.52011 0.93539 0.80324 0.0
C284 C 0.52299 0.9673 0.83358 0.0
C285 C 0.52311 0.99826 0.82406 0.0
U286 U 0.54342 1.05835 0.75992 0.0
O287 O 0.52491 0.10109 0.75188 0.0
O288 O 0.58791 0.12049 0.75706 0.0
C289 C 0.56066 0.1308 0.75619 0.0
C290 C 0.52933 1.03355 0.79461 0.0
C291 C 0.56374 0.15566 0.77265 0.0
C292 C 0.55452 0.15684 0.80651 0.0
C293 C 0.54408 0.13689 0.7889 0.0
C294 C 0.60254 0.21594 0.79176 0.0
C295 C 0.58442 0.19643 0.80829 0.0
C296 C 0.59259 0.19552 0.77408 0.0
C297 C 0.55266 1.02044 0.71206 0.0
C298 C 0.58098 0.06509 0.68642 0.0
C299 C 0.5444 0.99455 0.67973 0.0
C300 C 0.53796 0.98834 0.69904 0.0
C301 C 0.56585 1.03298 0.67327 0.0
C302 C 0.57419 1.05887 0.70569 0.0
C303 C 0.54414 1.01378 0.73213 0.0
O304 O 0.56505 1.05432 0.78849 0.0
O305 O 0.50134 1.02915 0.78215 0.0
O306 O 0.51183 1.01361 0.73688 0.0
O307 O 0.57457 1.03428 0.74421 0.0
H308 H 0.52048 0.96641 0.77836 0.0
H309 H 0.52036 0.91203 0.79493 0.0
H310 H 0.52461 0.96837 0.84899 0.0
H311 H 0.52517 1.02293 0.83223 0.0
H312 H 0.54016 0.14057 0.81882 0.0
H313 H 0.52225 0.10588 0.78824 0.0
H314 H 0.62492 0.24677 0.79248 0.0
H315 H 0.60861 0.2103 0.76179 0.0
H316 H 0.59721 0.09498 0.68172 0.0
H317 H 0.53269 0.96936 0.66983 0.0
H318 H 0.52119 0.95854 0.70379 0.0
H319 H 0.58535 0.08402 0.71559 0.0
C320 C 0.6068 0.46929 0.1373 0.0
C321 C 0.63705 0.46485 0.12977 0.0
C322 C 0.66534 0.46974 0.16177 0.0
C323 C 0.66609 0.46487 0.14196 0.0
C324 C 0.63358 0.47175 0.16924 0.0
C325 C 0.60444 0.47148 0.15705 0.0
U326 U 0.57391 0.49383 0.08964 0.0
O327 O 0.5134 0.47647 0.07903 0.0
O328 O 0.55653 0.5387 0.08567 0.0
C329 C 0.51904 0.51183 0.0832 0.0
C330 C 0.58069 0.477 0.12502 0.0
C331 C 0.49539 0.51371 0.09839 0.0
C332 C 0.47927 0.50014 0.13136 0.0
C333 C 0.49153 0.49177 0.11455 0.0
C334 C 0.47208 0.5512 0.11592 0.0
C335 C 0.47002 0.53038 0.1324 0.0
C336 C 0.48504 0.54312 0.09905 0.0
C337 C 0.62244 0.50716 0.04355 0.0
C338 C 0.59573 0.52616 0.01667 0.0
C339 C 0.65053 0.51449 0.0128 0.0
C340 C 0.65019 0.50595 0.03202 0.0
C341 C 0.62307 0.52436 0.00491 0.0
C342 C 0.5954 0.51757 0.03585 0.0
C343 C 0.621 0.49696 0.06352 0.0
O344 O 0.59704 0.51303 0.11905 0.0
O345 O 0.55911 0.45004 0.11168 0.0
O346 O 0.58911 0.46417 0.06755 0.0
O347 O 0.6302 0.52625 0.0758 0.0
H348 H 0.63937 0.46356 0.11451 0.0
H349 H 0.69059 0.46393 0.13579 0.0
H350 H 0.63233 0.47545 0.18444 0.0
H351 H 0.58124 0.47512 0.16301 0.0
H352 H 0.47865 0.48389 0.14376 0.0
H353 H 0.50033 0.46959 0.11456 0.0
H354 H 0.46435 0.57415 0.11614 0.0
H355 H 0.48868 0.56093 0.08687 0.0
H356 H 0.57393 0.53318 0.01096 0.0
H357 H 0.67225 0.51335 0.00412 0.0
H358 H 0.67133 0.49811 0.03782 0.0
H359 H 0.57371 0.51854 0.04464 0.0
H360 H 0.30854 0.49698 0.20909 0.0
H361 H 0.48819 0.6029 0.14765 0.0
H362 H 0.3647 0.62062 0.19778 0.0
H363 H 0.42519 0.47909 0.15904 0.0
H364 H 0.46074 0.61595 0.17565 0.0
H365 H 0.37001 0.49833 0.20403 0.0
C366 C 0.3341 0.52492 0.20626 0.0
C367 C 0.33064 0.55815 0.20249 0.0
C368 C 0.45376 0.58606 0.17226 0.0
C369 C 0.40047 0.55911 0.19558 0.0
C370 C 0.46889 0.57851 0.1561 0.0
C371 C 0.45796 0.53968 0.15059 0.0
C372 C 0.42725 0.55451 0.18286 0.0
C373 C 0.43422 0.50947 0.16254 0.0
C374 C 0.36934 0.52554 0.20312 0.0
C375 C 0.36541 0.5936 0.19951 0.0
N376 N 0.41917 0.51748 0.17788 0.0
N377 N 0.39858 0.59283 0.1952 0.0
H378 H 0.84629 0.31924 0.53174 0.0
H379 H 0.9364 0.48961 0.45735 0.0
H380 H 0.82376 0.30287 0.47083 0.0
H381 H 0.95619 0.51431 0.51808 0.0
H382 H 0.89341 0.42097 0.46289 0.0
H383 H 0.88692 0.39061 0.52792 0.0
C384 C 0.85014 0.33074 0.5176 0.0
C385 C 0.83163 0.30551 0.50155 0.0
C386 C 0.9066 0.44128 0.47509 0.0
C387 C 0.87717 0.38611 0.49713 0.0
C388 C 0.93083 0.48077 0.47192 0.0
C389 C 0.94946 0.50792 0.48729 0.0
C390 C 0.90101 0.42844 0.49378 0.0
C391 C 0.9423 0.49425 0.50585 0.0
C392 C 0.87295 0.37127 0.51545 0.0
C393 C 0.83713 0.32149 0.48356 0.0
N394 N 0.91864 0.45524 0.50861 0.0
N395 N 0.85935 0.36073 0.48186 0.0
H396 H 0.65365 0.8363 0.87029 0.0
H397 H 0.48422 0.85643 0.81617 0.0
H398 H 0.54957 0.73814 0.84299 0.0
H399 H 0.57618 0.94925 0.85238 0.0
H400 H 0.5033 0.81045 0.82902 0.0
H401 H 0.6217 0.87623 0.86743 0.0
C402 C 0.6238 0.82304 0.86402 0.0
C403 C 0.6043 0.78411 0.85673 0.0
C404 C 0.51881 0.8407 0.83445 0.0
C405 C 0.56786 0.82942 0.85316 0.0
C406 C 0.508 0.86692 0.82706 0.0
C407 C 0.52887 0.90666 0.83313 0.0
C408 C 0.55106 0.85452 0.84779 0.0
C409 C 0.5592 0.91877 0.84738 0.0
C410 C 0.60554 0.84571 0.86242 0.0
C411 C 0.56556 0.76804 0.84888 0.0
N412 N 0.56981 0.8929 0.85403 0.0
N413 N 0.54885 0.79099 0.847 0.0
H414 H 0.89749 0.51451 0.18589 0.0
H415 H 0.70271 0.52933 0.18864 0.0
H416 H 0.89533 0.62253 0.19487 0.0
H417 H 0.7091 0.43265 0.16231 0.0
H418 H 0.76966 0.5551 0.2025 0.0
H419 H 0.82608 0.47738 0.18871 0.0
C420 C 0.88211 0.53037 0.18899 0.0
C421 C 0.90211 0.57166 0.18988 0.0
C422 C 0.75601 0.52772 0.19409 0.0
C423 C 0.8206 0.52941 0.19288 0.0
C424 C 0.7177 0.51279 0.18629 0.0
C425 C 0.70072 0.47918 0.17403 0.0
C426 C 0.77732 0.5089 0.18955 0.0
C427 C 0.72156 0.4591 0.17137 0.0
C428 C 0.84137 0.50915 0.1905 0.0
C429 C 0.88076 0.59073 0.19374 0.0
N430 N 0.75914 0.47466 0.17881 0.0
N431 N 0.84095 0.56942 0.19485 0.0
H432 H 0.44405 0.87095 0.52553 0.0
H433 H 0.29971 0.71357 0.48397 0.0
H434 H 0.35823 0.89131 0.55226 0.0
H435 H 0.23934 0.77726 0.49766 0.0
H436 H 0.34273 0.74305 0.5127 0.0
H437 H 0.39575 0.80172 0.52151 0.0
C438 C 0.41556 0.86033 0.53158 0.0
C439 C 0.40414 0.88681 0.53831 0.0
C440 C 0.31967 0.75005 0.50951 0.0
C441 C 0.34822 0.80791 0.53329 0.0
C442 C 0.2953 0.73353 0.49299 0.0
C443 C 0.26691 0.74426 0.48782 0.0
C444 C 0.3157 0.77774 0.52074 0.0
C445 C 0.26101 0.76832 0.50068 0.0
C446 C 0.38763 0.82048 0.52922 0.0
C447 C 0.36738 0.87171 0.54624 0.0
N448 N 0.28556 0.7846 0.51631 0.0
N449 N 0.34011 0.83321 0.54298 0.0
H450 H 0.66944 0.39801 0.86168 0.0
H451 H 0.53735 0.18576 0.8383 0.0
H452 H 0.55256 0.32693 0.88154 0.0
H453 H 0.65818 0.25393 0.8222 0.0
H454 H 0.5541 0.22741 0.86675 0.0
H455 H 0.67931 0.34148 0.86281 0.0
C456 C 0.64655 0.37089 0.86718 0.0
C457 C 0.60919 0.36607 0.87028 0.0
C458 C 0.57731 0.23292 0.85724 0.0
C459 C 0.61934 0.30126 0.87067 0.0
C460 C 0.5677 0.20897 0.84085 0.0
C461 C 0.59595 0.21739 0.82724 0.0
C462 C 0.61485 0.26665 0.85964 0.0
C463 C 0.6348 0.24772 0.83169 0.0
C464 C 0.65203 0.33843 0.86772 0.0
C465 C 0.58114 0.33113 0.87809 0.0
N466 N 0.64283 0.27199 0.84722 0.0
N467 N 0.58611 0.29932 0.87728 0.0
H468 H 0.66883 0.99721 0.50299 0.0
H469 H 0.54025 0.76372 0.51764 0.0
H470 H 0.54184 0.93504 0.50449 0.0
H471 H 0.66752 0.82935 0.52433 0.0
H472 H 0.54021 0.82497 0.51157 0.0
H473 H 0.66872 0.93594 0.50954 0.0
C474 C 0.6408 0.97069 0.50454 0.0
C475 C 0.60526 0.97177 0.50302 0.0
C476 C 0.56819 0.82606 0.51442 0.0
C477 C 0.60497 0.90048 0.5106 0.0
C478 C 0.56834 0.7908 0.5178 0.0
C479 C 0.604 0.79052 0.52149 0.0
C480 C 0.60397 0.86204 0.51457 0.0
C481 C 0.63911 0.82742 0.52178 0.0
C482 C 0.64081 0.93554 0.50838 0.0
C483 C 0.57006 0.93605 0.50545 0.0
N484 N 0.63818 0.86126 0.51831 0.0
N485 N 0.57082 0.90214 0.509 0.0
H486 H 0.75523 0.63029 0.84296 0.0
H487 H 0.86237 0.50006 0.84746 0.0
H488 H 0.69622 0.50718 0.82582 0.0
H489 H 0.9239 0.62573 0.85871 0.0
H490 H 0.80138 0.50163 0.84058 0.0
H491 H 0.81621 0.62851 0.84979 0.0
C492 C 0.75496 0.60282 0.8405 0.0
C493 C 0.72004 0.56888 0.83363 0.0
C494 C 0.8282 0.52889 0.84457 0.0
C495 C 0.79077 0.56663 0.84169 0.0
C496 C 0.86345 0.52814 0.84843 0.0
C497 C 0.89926 0.56289 0.85363 0.0
C498 C 0.82801 0.56462 0.84594 0.0
C499 C 0.89751 0.59795 0.85502 0.0
C500 C 0.79003 0.60186 0.84447 0.0
C501 C 0.72213 0.53425 0.83095 0.0
N502 N 0.86283 0.59787 0.8512 0.0
N503 N 0.75662 0.53403 0.83499 0.0
H504 H 0.20372 0.72228 0.17207 0.0
H505 H 0.441 0.82986 0.18991 0.0
H506 H 0.26746 0.65881 0.1706 0.0
H507 H 0.37405 0.89023 0.19072 0.0
H508 H 0.37915 0.76751 0.18335 0.0
H509 H 0.26612 0.7834 0.17881 0.0
C510 C 0.23077 0.72097 0.17313 0.0
C511 C 0.22967 0.68468 0.17066 0.0
C512 C 0.37801 0.79442 0.18493 0.0
C513 C 0.3026 0.75598 0.17863 0.0
C514 C 0.41355 0.83036 0.18886 0.0
C515 C 0.4137 0.86636 0.19091 0.0
C516 C 0.34165 0.79377 0.18299 0.0
C517 C 0.37642 0.86405 0.18899 0.0
C518 C 0.26668 0.75622 0.17702 0.0
C519 C 0.26636 0.68573 0.17226 0.0
N520 N 0.34244 0.82885 0.18519 0.0
N521 N 0.30101 0.7205 0.17615 0.0
H522 H 0.55204 0.17274 0.49064 0.0
H523 H 0.67734 0.40146 0.52578 0.0
H524 H 0.67315 0.227 0.51246 0.0
H525 H 0.5509 0.33883 0.51428 0.0
H526 H 0.6777 0.33989 0.51975 0.0
H527 H 0.55281 0.23467 0.49722 0.0
C528 C 0.57898 0.19764 0.4967 0.0
C529 C 0.61259 0.19404 0.50091 0.0
C530 C 0.64988 0.33966 0.51853 0.0
C531 C 0.61362 0.26621 0.50864 0.0
C532 C 0.6495 0.37504 0.52213 0.0
C533 C 0.61403 0.37642 0.52052 0.0
C534 C 0.61459 0.30477 0.51306 0.0
C535 C 0.57933 0.34041 0.51536 0.0
C536 C 0.57932 0.23319 0.50056 0.0
C537 C 0.64641 0.2279 0.50891 0.0
N538 N 0.58059 0.30663 0.5118 0.0
N539 N 0.64606 0.26225 0.51243 0.0
H540 H 0.52877 0.6374 0.83237 0.0
H541 H 0.29911 0.51234 0.85699 0.0
H542 H 0.46726 0.51232 0.84023 0.0
H543 H 0.36125 0.63842 0.85217 0.0
H544 H 0.36019 0.51209 0.85093 0.0
H545 H 0.46804 0.63851 0.83908 0.0
C546 C 0.50259 0.6101 0.83541 0.0
C547 C 0.50358 0.57467 0.83559 0.0
C548 C 0.36052 0.53986 0.8512 0.0
C549 C 0.43326 0.5758 0.84347 0.0
C550 C 0.32545 0.54013 0.85485 0.0
C551 C 0.32419 0.57546 0.85516 0.0
C552 C 0.39524 0.57517 0.84773 0.0
C553 C 0.35988 0.61019 0.85182 0.0
C554 C 0.46778 0.61079 0.83931 0.0
C555 C 0.46834 0.54042 0.83981 0.0
N556 N 0.39355 0.60912 0.84825 0.0
N557 N 0.43498 0.54187 0.84353 0.0
H558 H 0.96829 0.49118 0.16229 0.0
H559 H 0.86758 0.26357 0.19081 0.0
H560 H 1.03459 0.43257 0.17486 0.0
H561 H 0.80198 0.32462 0.18321 0.0
H562 H 0.92826 0.32452 0.18476 0.0
H563 H 0.90727 0.43053 0.16904 0.0
C564 C 0.97021 0.46563 0.16634 0.0
C565 C 1.00724 0.46752 0.16782 0.0
C566 C 0.90059 0.32463 0.18441 0.0
C567 C 0.93649 0.39707 0.17577 0.0
C568 C 0.86557 0.2896 0.18804 0.0
C569 C 0.82858 0.28793 0.18756 0.0
C570 C 0.89941 0.35902 0.18011 0.0
C571 C 0.82902 0.32338 0.18346 0.0
C572 C 0.93513 0.43084 0.17028 0.0
C573 C 1.00714 0.433 0.17337 0.0
N574 N 0.86345 0.35698 0.1799 0.0
N575 N 0.97269 0.3996 0.17707 0.0
H576 H 0.13104 0.63062 0.09867 0.0
H577 H 0.10463 0.50379 1.00299 0.0
H578 H 0.10904 0.51136 0.0992 0.0
H579 H 0.12859 0.62381 0.00448 0.0
H580 H 0.10534 0.50492 0.03784 0.0
H581 H 0.1303 0.62778 0.0641 0.0
C582 C 0.126 0.60371 0.09154 0.0
C583 C 0.11999 0.57113 0.102 0.0
C584 C 0.11054 0.53101 0.03052 0.0
C585 C 0.11901 0.56766 0.06197 0.0
C586 C 0.10989 0.53035 0.01056 0.0
C587 C 0.11671 0.56383 1.00057 0.0
C588 C 0.118 0.56538 0.04069 0.0
C589 C 0.12387 0.59746 0.01137 0.0
C590 C 0.12561 0.60214 0.0717 0.0
C591 C 0.11386 0.53723 0.09179 0.0
N592 N 0.1243 0.59732 0.03071 0.0
N593 N 0.11341 0.53634 0.07236 0.0
H594 H 0.55258 1.05233 0.43024 0.0
H595 H 0.6885 0.1315 0.34069 0.0
H596 H 0.67928 0.12702 0.43629 0.0
H597 H 0.5635 1.04804 0.33608 0.0
H598 H 0.68602 0.13205 0.37541 0.0
H599 H 0.55639 1.05292 0.3958 0.0
C600 C 0.58134 0.06894 0.42438 0.0
C601 C 0.61571 0.08955 0.43639 0.0
C602 C 0.65914 0.11357 0.36682 0.0
C603 C 0.62021 0.09017 0.39647 0.0
C604 C 0.66045 0.11333 0.34694 0.0
C605 C 0.62608 0.08977 0.33529 0.0
C606 C 0.62312 0.09027 0.37529 0.0
C607 C 0.59082 0.06641 0.34437 0.0
C608 C 0.58344 0.06917 0.4046 0.0
C609 C 0.65196 0.11067 0.42771 0.0
N610 N 0.59025 0.06742 0.36373 0.0
N611 N 0.65326 0.11038 0.40833 0.0
H612 H 0.66953 0.62917 0.7676 0.0
H613 H 0.54636 0.54441 0.6677 0.0
H614 H 0.55143 0.52919 0.76197 0.0
H615 H 0.67238 0.62463 0.67194 0.0
H616 H 0.54666 0.54252 0.70228 0.0
H617 H 0.66988 0.63239 0.7328 0.0
C618 C 0.64365 0.60793 0.7591 0.0
C619 C 0.61043 0.5788 0.76784 0.0
C620 C 0.57426 0.56057 0.69564 0.0
C621 C 0.61061 0.58246 0.72789 0.0
C622 C 0.57423 0.56149 0.67577 0.0
C623 C 0.60947 0.58452 0.66655 0.0
C624 C 0.60967 0.58317 0.70664 0.0
C625 C 0.64429 0.60678 0.67816 0.0
C626 C 0.64392 0.60975 0.73921 0.0
C627 C 0.57778 0.55212 0.75598 0.0
N628 N 0.64347 0.60557 0.69751 0.0
N629 N 0.57869 0.55465 0.73671 0.0
H630 H 0.66035 0.08873 0.56177 0.0
H631 H 0.50996 1.00058 0.6441 0.0
H632 H 0.5368 1.05349 0.55391 0.0
H633 H 0.63443 0.08051 0.65611 0.0
H634 H 0.51961 1.01206 0.61016 0.0
H635 H 0.65185 0.07876 0.59598 0.0
C636 C 0.6315 0.07885 0.56725 0.0
C637 C 0.59924 0.07189 0.55507 0.0
C638 C 0.54478 1.02712 0.62024 0.0
C639 C 0.5893 0.06011 0.59385 0.0
C640 C 0.53934 1.02038 0.63953 0.0
C641 C 0.5715 1.03957 0.6528 0.0
C642 C 0.58273 1.05278 0.61421 0.0
C643 C 0.60891 0.06533 0.64625 0.0
C644 C 0.62673 0.07336 0.58671 0.0
C645 C 0.56249 1.05933 0.56284 0.0
N646 N 0.6136 0.07103 0.62733 0.0
N647 N 0.55845 1.05354 0.58174 0.0
H648 H 0.61103 0.61283 0.89363 0.0
H649 H 0.62949 0.48228 0.97544 0.0
H650 H 0.61796 0.50747 0.88373 0.0
H651 H 0.61338 0.58149 0.9875 0.0
H652 H 0.6269 0.493 0.94159 0.0
H653 H 0.61279 0.6035 0.92803 0.0
C654 C 0.61297 0.58786 0.89866 0.0
C655 C 0.61455 0.56104 0.88579 0.0
C656 C 0.62396 0.51253 0.9516 0.0
C657 C 0.6166 0.55026 0.9249 0.0
C658 C 0.62575 0.50657 0.97095 0.0
C659 C 0.62194 0.53119 0.98431 0.0
C660 C 0.61839 0.54343 0.94546 0.0
C661 C 0.61623 0.56169 0.97765 0.0
C662 C 0.61392 0.58252 0.91826 0.0
C663 C 0.61684 0.52906 0.89307 0.0
N664 N 0.61473 0.56705 0.95865 0.0
N665 N 0.61787 0.52467 0.91208 0.0
H666 H 1.08335 0.61338 0.21938 0.0
H667 H 1.09127 0.52451 0.31856 0.0
H668 H 0.14426 0.54758 0.22647 0.0
H669 H 1.0837 0.62995 0.31296 0.0
H670 H 0.10375 0.5257 0.28444 0.0
H671 H 1.07621 0.61331 0.25355 0.0
C672 C 0.09536 0.59901 0.2282 0.0
C673 C 0.1144 0.58044 0.22019 0.0
C674 C 0.09957 0.54861 0.2908 0.0
C675 C 0.10591 0.57985 0.25926 0.0
C676 C 1.09217 0.54775 0.31011 0.0
C677 C 1.08656 0.57722 0.31842 0.0
C678 C 0.10046 0.57866 0.27987 0.0
C679 C 1.08818 0.6069 0.30705 0.0
C680 C 1.09138 0.59908 0.24769 0.0
C681 C 0.1296 0.56241 0.23222 0.0
N682 N 0.09473 0.60672 0.28832 0.0
N683 N 0.12465 0.56216 0.25126 0.0
loop_
_geom_bond_atom_site_label_1
_geom_bond_atom_site_label_2
_geom_bond_distance
_geom_bond_site_symmetry_2
_ccdc_geom_bond_type
Tb0 C10 2.825 . S
Tb0 O11 2.347 . S
Tb0 O14 2.366 . S
Tb0 O19 2.418 . S
Tb0 O20 2.384 1_455 S
Tb0 O23 2.479 . S
Tb0 O24 2.471 . S
Eu1 O12 2.418 . S
Eu1 O13 2.384 1_655 S
Eu1 O16 2.479 . S
Eu1 O17 2.471 . S
Eu1 O18 2.347 1_655 S
Eu1 O21 2.366 . S
Eu1 C31 2.825 . S
C2 O18 1.259 . S
C2 O19 1.265 . S
C3 O20 1.255 . S
C3 O21 1.265 . S
C4 C6 1.380 . S
C4 C7 1.374 . S
C4 C10 1.507 . S
C5 C6 1.384 . S
C5 C9 1.387 . S
C5 H32 0.930 . S
C6 C4 1.380 . S
C6 C5 1.384 . S
C6 H33 0.931 . S
C7 C4 1.374 . S
C7 C8 1.390 . S
C7 H34 0.930 . S
C8 C7 1.390 . S
C8 C9 1.391 . S
C8 H35 0.930 . S
C9 C5 1.387 . S
C9 C8 1.391 . S
C10 Tb0 2.825 . S
C10 C4 1.507 . S
C10 O23 1.238 . S
C10 O24 1.247 . S
O11 Tb0 2.347 . S
O11 C15 1.259 . S
O12 Eu1 2.418 . S
O12 C15 1.265 1_655 S
O13 Eu1 2.384 1_455 S
O13 C22 1.255 . S
O14 Tb0 2.366 . S
O14 C22 1.265 . S
C15 O11 1.259 . S
C15 O12 1.265 1_455 S
O16 Eu1 2.479 . S
O16 C31 1.238 . S
O17 Eu1 2.471 . S
O17 C31 1.247 . S
O18 Eu1 2.347 1_455 S
O18 C2 1.259 . S
O19 Tb0 2.418 . S
O19 C2 1.265 . S
O20 Tb0 2.384 1_655 S
O20 C3 1.255 . S
O21 Eu1 2.366 . S
O21 C3 1.265 . S
C22 O13 1.255 . S
C22 O14 1.265 . S
O23 Tb0 2.479 . S
O23 C10 1.238 . S
O24 Tb0 2.471 . S
O24 C10 1.247 . S
C25 C28 1.380 . S
C25 C29 1.374 . S
C25 C31 1.507 . S
C26 C27 1.387 . S
C26 C30 1.391 . S
C27 C26 1.387 . S
C27 C28 1.384 . S
C27 H36 0.930 . S
C28 C25 1.380 . S
C28 C27 1.384 . S
C28 H37 0.931 . S
C29 C25 1.374 . S
C29 C30 1.390 . S
C29 H38 0.930 . S
C30 C26 1.391 . S
C30 C29 1.390 . S
C30 H39 0.930 . S
C31 Eu1 2.825 . S
C31 O16 1.238 . S
C31 O17 1.247 . S
C31 C25 1.507 . S
H32 C5 0.930 . S
H33 C6 0.931 . S
H34 C7 0.930 . S
H35 C8 0.930 . S
H36 C27 0.930 . S
H37 C28 0.931 . S
H38 C29 0.930 . S
H39 C30 0.930 . S
Tb40 C50 2.825 . S
Tb40 O51 2.347 . S
Tb40 O54 2.366 . S
Tb40 O59 2.418 . S
Tb40 O60 2.384 1_545 S
Tb40 O63 2.479 . S
Tb40 O64 2.471 . S
Eu41 O52 2.418 . S
Eu41 O53 2.384 . S
Eu41 O56 2.479 1_545 S
Eu41 O57 2.471 1_545 S
Eu41 O58 2.347 . S
Eu41 O61 2.366 1_545 S
Eu41 C71 2.825 1_545 S
C42 O58 1.259 . S
C42 O59 1.265 . S
C43 O60 1.255 . S
C43 O61 1.265 . S
C44 C46 1.380 . S
C44 C47 1.374 . S
C44 C50 1.507 . S
C45 C46 1.384 . S
C45 C49 1.387 . S
C45 H72 0.930 . S
C46 C44 1.380 . S
C46 C45 1.384 . S
C46 H73 0.931 . S
C47 C44 1.374 . S
C47 C48 1.390 . S
C47 H74 0.930 . S
C48 C47 1.390 . S
C48 C49 1.391 . S
C48 H75 0.930 . S
C49 C45 1.387 . S
C49 C48 1.391 . S
C50 Tb40 2.825 . S
C50 C44 1.507 . S
C50 O63 1.238 . S
C50 O64 1.247 . S
O51 Tb40 2.347 . S
O51 C55 1.259 . S
O52 Eu41 2.418 . S
O52 C55 1.265 . S
O53 Eu41 2.384 . S
O53 C62 1.255 . S
O54 Tb40 2.366 . S
O54 C62 1.265 . S
C55 O51 1.259 . S
C55 O52 1.265 . S
O56 Eu41 2.479 1_565 S
O56 C71 1.238 . S
O57 Eu41 2.471 1_565 S
O57 C71 1.247 . S
O58 Eu41 2.347 . S
O58 C42 1.259 . S
O59 Tb40 2.418 . S
O59 C42 1.265 . S
O60 Tb40 2.384 1_565 S
O60 C43 1.255 . S
O61 Eu41 2.366 1_565 S
O61 C43 1.265 . S
C62 O53 1.255 . S
C62 O54 1.265 . S
O63 Tb40 2.479 . S
O63 C50 1.238 . S
O64 Tb40 2.471 . S
O64 C50 1.247 . S
C65 C68 1.380 . S
C65 C69 1.374 . S
C65 C71 1.507 . S
C66 C67 1.387 . S
C66 C70 1.391 . S
C67 C66 1.387 . S
C67 C68 1.384 . S
C67 H76 0.930 . S
C68 C65 1.380 . S
C68 C67 1.384 . S
C68 H77 0.931 . S
C69 C65 1.374 . S
C69 C70 1.390 . S
C69 H78 0.930 . S
C70 C66 1.391 . S
C70 C69 1.390 . S
C70 H79 0.930 . S
C71 Eu41 2.825 1_565 S
C71 O56 1.238 . S
C71 O57 1.247 . S
C71 C65 1.507 . S
H72 C45 0.930 . S
H73 C46 0.931 . S
H74 C47 0.930 . S
H75 C48 0.930 . S
H76 C67 0.930 . S
H77 C68 0.931 . S
H78 C69 0.930 . S
H79 C70 0.930 . S
Tb80 C90 2.825 . S
Tb80 O91 2.347 . S
Tb80 O94 2.366 . S
Tb80 O99 2.418 . S
Tb80 O100 2.384 . S
Tb80 O103 2.479 . S
Tb80 O104 2.471 . S
Eu81 O92 2.418 . S
Eu81 O93 2.384 . S
Eu81 O96 2.479 . S
Eu81 O97 2.471 . S
Eu81 O98 2.347 . S
Eu81 O101 2.366 . S
Eu81 C111 2.825 . S
C82 O98 1.259 . S
C82 O99 1.265 . S
C83 O100 1.255 . S
C83 O101 1.265 . S
C84 C86 1.380 . S
C84 C87 1.374 . S
C84 C90 1.507 . S
C85 C86 1.384 . S
C85 C89 1.387 . S
C85 H112 0.930 . S
C86 C84 1.380 . S
C86 C85 1.384 . S
C86 H113 0.931 . S
C87 C84 1.374 . S
C87 C88 1.390 . S
C87 H114 0.930 . S
C88 C87 1.390 . S
C88 C89 1.391 . S
C88 H115 0.930 . S
C89 C85 1.387 . S
C89 C88 1.391 . S
C90 Tb80 2.825 . S
C90 C84 1.507 . S
C90 O103 1.238 . S
C90 O104 1.247 . S
O91 Tb80 2.347 . S
O91 C95 1.259 . S
O92 Eu81 2.418 . S
O92 C95 1.265 . S
O93 Eu81 2.384 . S
O93 C102 1.255 . S
O94 Tb80 2.366 . S
O94 C102 1.265 . S
C95 O91 1.259 . S
C95 O92 1.265 . S
O96 Eu81 2.479 . S
O96 C111 1.238 . S
O97 Eu81 2.471 . S
O97 C111 1.247 . S
O98 Eu81 2.347 . S
O98 C82 1.259 . S
O99 Tb80 2.418 . S
O99 C82 1.265 . S
O100 Tb80 2.384 . S
O100 C83 1.255 . S
O101 Eu81 2.366 . S
O101 C83 1.265 . S
C102 O93 1.255 . S
C102 O94 1.265 . S
O103 Tb80 2.479 . S
O103 C90 1.238 . S
O104 Tb80 2.471 . S
O104 C90 1.247 . S
C105 C108 1.380 . S
C105 C109 1.374 . S
C105 C111 1.507 . S
C106 C107 1.387 . S
C106 C110 1.391 . S
C107 C106 1.387 . S
C107 C108 1.384 . S
C107 H116 0.930 . S
C108 C105 1.380 . S
C108 C107 1.384 . S
C108 H117 0.931 . S
C109 C105 1.374 . S
C109 C110 1.390 . S
C109 H118 0.930 . S
C110 C106 1.391 . S
C110 C109 1.390 . S
C110 H119 0.930 . S
C111 Eu81 2.825 . S
C111 O96 1.238 . S
C111 O97 1.247 . S
C111 C105 1.507 . S
H112 C85 0.930 . S
H113 C86 0.931 . S
H114 C87 0.930 . S
H115 C88 0.930 . S
H116 C107 0.930 . S
H117 C108 0.931 . S
H118 C109 0.930 . S
H119 C110 0.930 . S
C120 C121 1.264 . S
C120 C125 1.479 . S
C120 C130 1.465 . S
C121 C120 1.264 . S
C121 C123 1.339 . S
C121 H148 0.931 . S
C122 C123 1.395 . S
C122 C124 1.320 . S
C123 C121 1.339 . S
C123 C122 1.395 . S
C123 H149 0.929 . S
C124 C122 1.320 . S
C124 C125 1.405 . S
C124 H150 0.930 . S
C125 C120 1.479 . S
C125 C124 1.405 . S
C125 H151 0.931 . S
U126 O127 2.454 1_545 S
U126 O128 2.458 1_545 S
U126 C129 2.984 1_545 S
U126 C130 2.847 . S
U126 C143 2.882 . S
U126 O144 2.441 . S
U126 O145 2.420 . S
U126 O146 2.455 . S
U126 O147 2.449 . S
O127 U126 2.454 1_565 S
O127 C129 1.353 . S
O128 U126 2.458 1_565 S
O128 C129 1.286 . S
C129 U126 2.984 1_565 S
C129 O127 1.353 . S
C129 O128 1.286 . S
C129 C131 1.363 . S
C130 C120 1.465 . S
C130 U126 2.847 . S
C130 O144 1.249 . S
C130 O145 1.202 . S
C131 C129 1.363 . S
C131 C133 1.408 . S
C131 C136 1.342 . S
C132 C133 1.310 . S
C132 C135 1.461 . S
C132 H152 0.932 . S
C133 C131 1.408 . S
C133 C132 1.310 . S
C133 H153 0.930 . S
C134 C135 1.474 . S
C134 C136 1.285 . S
C134 H154 0.929 . S
C135 C132 1.461 . S
C135 C134 1.474 . S
C136 C131 1.342 . S
C136 C134 1.285 . S
C136 H155 0.930 . S
C137 C140 1.424 . S
C137 C142 1.245 . S
C137 C143 1.428 . S
C138 C141 1.260 . S
C138 C142 1.477 . S
C138 H156 0.932 1_545 S
C139 C140 1.384 . S
C139 C141 1.479 . S
C139 H157 0.929 . S
C140 C137 1.424 . S
C140 C139 1.384 . S
C140 H158 0.928 . S
C141 C138 1.260 . S
C141 C139 1.479 . S
C142 C137 1.245 . S
C142 C138 1.477 . S
C142 H159 0.932 1_545 S
C143 U126 2.882 . S
C143 C137 1.428 . S
C143 O146 1.301 . S
C143 O147 1.282 . S
O144 U126 2.441 . S
O144 C130 1.249 . S
O145 U126 2.420 . S
O145 C130 1.202 . S
O146 U126 2.455 . S
O146 C143 1.301 . S
O147 U126 2.449 . S
O147 C143 1.282 . S
H148 C121 0.931 . S
H149 C123 0.929 . S
H150 C124 0.930 . S
H151 C125 0.931 . S
H152 C132 0.932 . S
H153 C133 0.930 . S
H154 C134 0.929 . S
H155 C136 0.930 . S
H156 C138 0.932 1_565 S
H157 C139 0.929 . S
H158 C140 0.928 . S
H159 C142 0.932 1_565 S
C160 C161 1.264 . S
C160 C165 1.479 . S
C160 C170 1.465 . S
C161 C160 1.264 . S
C161 C163 1.339 . S
C161 H188 0.931 . S
C162 C163 1.395 . S
C162 C164 1.320 . S
C163 C161 1.339 . S
C163 C162 1.395 . S
C163 H189 0.929 . S
C164 C162 1.320 . S
C164 C165 1.405 . S
C164 H190 0.930 . S
C165 C160 1.479 . S
C165 C164 1.405 . S
C165 H191 0.931 . S
U166 O167 2.454 . S
U166 O168 2.458 . S
U166 C169 2.984 . S
U166 C170 2.847 . S
U166 C183 2.882 . S
U166 O184 2.441 . S
U166 O185 2.420 . S
U166 O186 2.455 . S
U166 O187 2.449 . S
O167 U166 2.454 . S
O167 C169 1.353 . S
O168 U166 2.458 . S
O168 C169 1.286 . S
C169 U166 2.984 . S
C169 O167 1.353 . S
C169 O168 1.286 . S
C169 C171 1.363 . S
C170 C160 1.465 . S
C170 U166 2.847 . S
C170 O184 1.249 . S
C170 O185 1.202 . S
C171 C169 1.363 . S
C171 C173 1.408 . S
C171 C176 1.342 . S
C172 C173 1.310 . S
C172 C175 1.461 . S
C172 H192 0.932 . S
C173 C171 1.408 . S
C173 C172 1.310 . S
C173 H193 0.930 . S
C174 C175 1.474 . S
C174 C176 1.285 . S
C174 H194 0.929 . S
C175 C172 1.461 . S
C175 C174 1.474 . S
C176 C171 1.342 . S
C176 C174 1.285 . S
C176 H195 0.930 . S
C177 C180 1.424 . S
C177 C182 1.245 . S
C177 C183 1.428 . S
C178 C181 1.260 . S
C178 C182 1.477 . S
C178 H196 0.932 . S
C179 C180 1.384 . S
C179 C181 1.479 . S
C179 H197 0.929 . S
C180 C177 1.424 . S
C180 C179 1.384 . S
C180 H198 0.928 . S
C181 C178 1.260 . S
C181 C179 1.479 . S
C182 C177 1.245 . S
C182 C178 1.477 . S
C182 H199 0.932 . S
C183 U166 2.882 . S
C183 C177 1.428 . S
C183 O186 1.301 . S
C183 O187 1.282 . S
O184 U166 2.441 . S
O184 C170 1.249 . S
O185 U166 2.420 . S
O185 C170 1.202 . S
O186 U166 2.455 . S
O186 C183 1.301 . S
O187 U166 2.449 . S
O187 C183 1.282 . S
H188 C161 0.931 . S
H189 C163 0.929 . S
H190 C164 0.930 . S
H191 C165 0.931 . S
H192 C172 0.932 . S
H193 C173 0.930 . S
H194 C174 0.929 . S
H195 C176 0.930 . S
H196 C178 0.932 . S
H197 C179 0.929 . S
H198 C180 0.928 . S
H199 C182 0.932 . S
C200 C201 1.264 . S
C200 C205 1.479 . S
C200 C210 1.465 . S
C201 C200 1.264 . S
C201 C203 1.339 . S
C201 H228 0.931 . S
C202 C203 1.395 . S
C202 C204 1.320 . S
C203 C201 1.339 . S
C203 C202 1.395 . S
C203 H229 0.929 . S
C204 C202 1.320 . S
C204 C205 1.405 . S
C204 H230 0.930 . S
C205 C200 1.479 . S
C205 C204 1.405 . S
C205 H231 0.931 . S
U206 O207 2.454 . S
U206 O208 2.458 . S
U206 C209 2.984 . S
U206 C210 2.847 1_455 S
U206 C223 2.882 . S
U206 O224 2.441 1_455 S
U206 O225 2.420 1_455 S
U206 O226 2.455 . S
U206 O227 2.449 1_455 S
O207 U206 2.454 . S
O207 C209 1.353 . S
O208 U206 2.458 . S
O208 C209 1.286 . S
C209 U206 2.984 . S
C209 O207 1.353 . S
C209 O208 1.286 . S
C209 C211 1.363 . S
C210 C200 1.465 . S
C210 U206 2.847 1_655 S
C210 O224 1.249 . S
C210 O225 1.202 . S
C211 C209 1.363 . S
C211 C213 1.408 . S
C211 C216 1.342 . S
C212 C213 1.310 . S
C212 C215 1.461 . S
C212 H232 0.932 . S
C213 C211 1.408 . S
C213 C212 1.310 . S
C213 H233 0.930 . S
C214 C215 1.474 . S
C214 C216 1.285 . S
C214 H234 0.929 . S
C215 C212 1.461 . S
C215 C214 1.474 . S
C216 C211 1.342 . S
C216 C214 1.285 . S
C216 H235 0.930 . S
C217 C220 1.424 1_455 S
C217 C222 1.245 . S
C217 C223 1.428 . S
C218 C221 1.260 . S
C218 C222 1.477 . S
C218 H236 0.932 . S
C219 C220 1.384 . S
C219 C221 1.479 1_655 S
C219 H237 0.929 . S
C220 C217 1.424 1_655 S
C220 C219 1.384 . S
C220 H238 0.928 . S
C221 C218 1.260 . S
C221 C219 1.479 1_455 S
C222 C217 1.245 . S
C222 C218 1.477 . S
C222 H239 0.932 . S
C223 U206 2.882 . S
C223 C217 1.428 . S
C223 O226 1.301 . S
C223 O227 1.282 1_455 S
O224 U206 2.441 1_655 S
O224 C210 1.249 . S
O225 U206 2.420 1_655 S
O225 C210 1.202 . S
O226 U206 2.455 . S
O226 C223 1.301 . S
O227 U206 2.449 1_655 S
O227 C223 1.282 1_655 S
H228 C201 0.931 . S
H229 C203 0.929 . S
H230 C204 0.930 . S
H231 C205 0.931 . S
H232 C212 0.932 . S
H233 C213 0.930 . S
H234 C214 0.929 . S
H235 C216 0.930 . S
H236 C218 0.932 . S
H237 C219 0.929 . S
H238 C220 0.928 . S
H239 C222 0.932 . S
C240 C241 1.264 . S
C240 C245 1.479 . S
C240 C250 1.465 . S
C241 C240 1.264 . S
C241 C243 1.339 . S
C241 H268 0.931 . S
C242 C243 1.395 . S
C242 C244 1.320 . S
C243 C241 1.339 . S
C243 C242 1.395 . S
C243 H269 0.929 . S
C244 C242 1.320 . S
C244 C245 1.405 . S
C244 H270 0.930 . S
C245 C240 1.479 . S
C245 C244 1.405 . S
C245 H271 0.931 . S
U246 O247 2.454 1_655 S
U246 O248 2.458 1_655 S
U246 C249 2.984 1_655 S
U246 C250 2.847 . S
U246 C263 2.882 . S
U246 O264 2.441 . S
U246 O265 2.420 . S
U246 O266 2.455 1_655 S
U246 O267 2.449 . S
O247 U246 2.454 1_455 S
O247 C249 1.353 . S
O248 U246 2.458 1_455 S
O248 C249 1.286 . S
C249 U246 2.984 1_455 S
C249 O247 1.353 . S
C249 O248 1.286 . S
C249 C251 1.363 . S
C250 C240 1.465 . S
C250 U246 2.847 . S
C250 O264 1.249 . S
C250 O265 1.202 . S
C251 C249 1.363 . S
C251 C253 1.408 . S
C251 C256 1.342 . S
C252 C253 1.310 . S
C252 C255 1.461 . S
C252 H272 0.932 . S
C253 C251 1.408 . S
C253 C252 1.310 . S
C253 H273 0.930 . S
C254 C255 1.474 . S
C254 C256 1.285 . S
C254 H274 0.929 . S
C255 C252 1.461 . S
C255 C254 1.474 . S
C256 C251 1.342 . S
C256 C254 1.285 . S
C256 H275 0.930 . S
C257 C260 1.424 . S
C257 C262 1.245 1_655 S
C257 C263 1.428 . S
C258 C261 1.260 1_455 S
C258 C262 1.477 . S
C258 H276 0.932 . S
C259 C260 1.384 . S
C259 C261 1.479 . S
C259 H277 0.929 . S
C260 C257 1.424 . S
C260 C259 1.384 . S
C260 H278 0.928 . S
C261 C258 1.260 1_655 S
C261 C259 1.479 . S
C262 C257 1.245 1_455 S
C262 C258 1.477 . S
C262 H279 0.932 . S
C263 U246 2.882 . S
C263 C257 1.428 . S
C263 O266 1.301 1_655 S
C263 O267 1.282 . S
O264 U246 2.441 . S
O264 C250 1.249 . S
O265 U246 2.420 . S
O265 C250 1.202 . S
O266 U246 2.455 1_455 S
O266 C263 1.301 1_455 S
O267 U246 2.449 . S
O267 C263 1.282 . S
H268 C241 0.931 . S
H269 C243 0.929 . S
H270 C244 0.930 . S
H271 C245 0.931 . S
H272 C252 0.932 . S
H273 C253 0.930 . S
H274 C254 0.929 . S
H275 C256 0.930 . S
H276 C258 0.932 . S
H277 C259 0.929 . S
H278 C260 0.928 . S
H279 C262 0.932 . S
C280 C281 1.264 . S
C280 C285 1.479 . S
C280 C290 1.465 . S
C281 C280 1.264 . S
C281 C283 1.339 . S
C281 H308 0.931 . S
C282 C283 1.395 . S
C282 C284 1.320 . S
C283 C281 1.339 . S
C283 C282 1.395 . S
C283 H309 0.929 . S
C284 C282 1.320 . S
C284 C285 1.405 . S
C284 H310 0.930 . S
C285 C280 1.479 . S
C285 C284 1.405 . S
C285 H311 0.931 . S
U286 O287 2.454 1_565 S
U286 O288 2.458 1_565 S
U286 C289 2.984 1_565 S
U286 C290 2.847 . S
U286 C303 2.882 . S
U286 O304 2.441 . S
U286 O305 2.420 . S
U286 O306 2.455 1_565 S
U286 O307 2.449 . S
O287 U286 2.454 1_545 S
O287 C289 1.353 . S
O288 U286 2.458 1_545 S
O288 C289 1.286 . S
C289 U286 2.984 1_545 S
C289 O287 1.353 . S
C289 O288 1.286 . S
C289 C291 1.363 . S
C290 C280 1.465 . S
C290 U286 2.847 . S
C290 O304 1.249 . S
C290 O305 1.202 . S
C291 C289 1.363 . S
C291 C293 1.408 . S
C291 C296 1.342 . S
C292 C293 1.310 . S
C292 C295 1.461 . S
C292 H312 0.932 . S
C293 C291 1.408 . S
C293 C292 1.310 . S
C293 H313 0.930 . S
C294 C295 1.474 . S
C294 C296 1.285 . S
C294 H314 0.929 . S
C295 C292 1.461 . S
C295 C294 1.474 . S
C296 C291 1.342 . S
C296 C294 1.285 . S
C296 H315 0.930 . S
C297 C300 1.424 . S
C297 C302 1.245 1_565 S
C297 C303 1.428 . S
C298 C301 1.232 1_545 S
C298 C302 1.477 . S
C298 H316 0.932 . S
C299 C300 1.384 . S
C299 C301 1.507 . S
C299 H317 0.929 . S
C300 C297 1.424 . S
C300 C299 1.384 . S
C300 H318 0.928 . S
C301 C298 1.232 1_565 S
C301 C299 1.507 . S
C302 C297 1.245 1_545 S
C302 C298 1.477 . S
C302 H319 0.932 . S
C303 U286 2.882 . S
C303 C297 1.428 . S
C303 O306 1.301 1_565 S
C303 O307 1.282 . S
O304 U286 2.441 . S
O304 C290 1.249 . S
O305 U286 2.420 . S
O305 C290 1.202 . S
O306 U286 2.455 1_545 S
O306 C303 1.301 1_545 S
O307 U286 2.449 . S
O307 C303 1.282 . S
H308 C281 0.931 . S
H309 C283 0.929 . S
H310 C284 0.930 . S
H311 C285 0.931 . S
H312 C292 0.932 . S
H313 C293 0.930 . S
H314 C294 0.929 . S
H315 C296 0.930 . S
H316 C298 0.932 . S
H317 C299 0.929 . S
H318 C300 0.928 . S
H319 C302 0.932 . S
C320 C321 1.264 . S
C320 C325 1.479 . S
C320 C330 1.465 . S
C321 C320 1.264 . S
C321 C323 1.339 . S
C321 H348 0.931 . S
C322 C323 1.395 . S
C322 C324 1.320 . S
C323 C321 1.339 . S
C323 C322 1.395 . S
C323 H349 0.929 . S
C324 C322 1.320 . S
C324 C325 1.405 . S
C324 H350 0.930 . S
C325 C320 1.479 . S
C325 C324 1.405 . S
C325 H351 0.931 . S
U326 O327 2.454 . S
U326 O328 2.458 . S
U326 C329 2.984 . S
U326 C330 2.847 . S
U326 C343 2.882 . S
U326 O344 2.441 . S
U326 O345 2.420 . S
U326 O346 2.455 . S
U326 O347 2.449 . S
O327 U326 2.454 . S
O327 C329 1.353 . S
O328 U326 2.458 . S
O328 C329 1.286 . S
C329 U326 2.984 . S
C329 O327 1.353 . S
C329 O328 1.286 . S
C329 C331 1.363 . S
C330 C320 1.465 . S
C330 U326 2.847 . S
C330 O344 1.249 . S
C330 O345 1.202 . S
C331 C329 1.363 . S
C331 C333 1.408 . S
C331 C336 1.342 . S
C332 C333 1.310 . S
C332 C335 1.461 . S
C332 H352 0.932 . S
C333 C331 1.408 . S
C333 C332 1.310 . S
C333 H353 0.930 . S
C334 C335 1.474 . S
C334 C336 1.285 . S
C334 H354 0.929 . S
C335 C332 1.461 . S
C335 C334 1.474 . S
C336 C331 1.342 . S
C336 C334 1.285 . S
C336 H355 0.930 . S
C337 C340 1.424 . S
C337 C342 1.245 . S
C337 C343 1.428 . S
C338 C341 1.260 1_554 S
C338 C342 1.477 . S
C338 H356 0.942 . S
C339 C340 1.384 . S
C339 C341 1.479 1_554 S
C339 H357 0.929 . S
C340 C337 1.424 . S
C340 C339 1.384 . S
C340 H358 0.928 . S
C341 C338 1.260 1_556 S
C341 C339 1.479 1_556 S
C342 C337 1.245 . S
C342 C338 1.477 . S
C342 H359 0.932 . S
C343 U326 2.882 . S
C343 C337 1.428 . S
C343 O346 1.301 . S
C343 O347 1.282 . S
O344 U326 2.441 . S
O344 C330 1.249 . S
O345 U326 2.420 . S
O345 C330 1.202 . S
O346 U326 2.455 . S
O346 C343 1.301 . S
O347 U326 2.449 . S
O347 C343 1.282 . S
H348 C321 0.931 . S
H349 C323 0.929 . S
H350 C324 0.930 . S
H351 C325 0.931 . S
H352 C332 0.932 . S
H353 C333 0.930 . S
H354 C334 0.929 . S
H355 C336 0.930 . S
H356 C338 0.942 . S
H357 C339 0.929 . S
H358 C340 0.928 . S
H359 C342 0.932 . S
H360 C366 0.930 . S
H361 C370 0.930 . S
H362 C375 0.929 . S
H363 C373 0.929 . S
H364 C368 0.929 . S
H365 C374 0.929 . S
C366 H360 0.930 . S
C366 C367 1.367 . S
C366 C374 1.378 . S
C367 C366 1.367 . S
C367 C375 1.433 . S
C368 H364 0.929 . S
C368 C370 1.378 . S
C368 C372 1.350 . S
C369 C372 1.463 . S
C369 C374 1.350 . S
C369 N377 1.427 . S
C370 H361 0.930 . S
C370 C368 1.378 . S
C370 C371 1.367 . S
C371 C370 1.367 . S
C371 C373 1.433 . S
C372 C368 1.350 . S
C372 C369 1.463 . S
C372 N376 1.427 . S
C373 H363 0.929 . S
C373 C371 1.433 . S
C373 N376 1.384 . S
C374 H365 0.929 . S
C374 C366 1.378 . S
C374 C369 1.350 . S
C375 H362 0.929 . S
C375 C367 1.433 . S
C375 N377 1.384 . S
N376 C372 1.427 . S
N376 C373 1.384 . S
N377 C369 1.427 . S
N377 C375 1.384 . S
H378 C384 0.930 . S
H379 C388 0.930 . S
H380 C393 0.929 . S
H381 C391 0.929 . S
H382 C386 0.929 . S
H383 C392 0.929 . S
C384 H378 0.930 . S
C384 C385 1.367 . S
C384 C392 1.378 . S
C385 C384 1.367 . S
C385 C393 1.433 . S
C386 H382 0.929 . S
C386 C388 1.378 . S
C386 C390 1.350 . S
C387 C390 1.463 . S
C387 C392 1.350 . S
C387 N395 1.427 . S
C388 H379 0.930 . S
C388 C386 1.378 . S
C388 C389 1.367 . S
C389 C388 1.367 . S
C389 C391 1.433 . S
C390 C386 1.350 . S
C390 C387 1.463 . S
C390 N394 1.427 . S
C391 H381 0.929 . S
C391 C389 1.433 . S
C391 N394 1.384 . S
C392 H383 0.929 . S
C392 C384 1.378 . S
C392 C387 1.350 . S
C393 H380 0.929 . S
C393 C385 1.433 . S
C393 N395 1.384 . S
N394 C390 1.427 . S
N394 C391 1.384 . S
N395 C387 1.427 . S
N395 C393 1.384 . S
H396 C402 0.930 . S
H397 C406 0.930 . S
H398 C411 0.929 . S
H399 C409 0.929 . S
H400 C404 0.929 . S
H401 C410 0.929 . S
C402 H396 0.930 . S
C402 C403 1.367 . S
C402 C410 1.378 . S
C403 C402 1.367 . S
C403 C411 1.433 . S
C404 H400 0.929 . S
C404 C406 1.378 . S
C404 C408 1.350 . S
C405 C408 1.463 . S
C405 C410 1.350 . S
C405 N413 1.427 . S
C406 H397 0.930 . S
C406 C404 1.378 . S
C406 C407 1.367 . S
C407 C406 1.367 . S
C407 C409 1.433 . S
C408 C404 1.350 . S
C408 C405 1.463 . S
C408 N412 1.427 . S
C409 H399 0.929 . S
C409 C407 1.433 . S
C409 N412 1.384 . S
C410 H401 0.929 . S
C410 C402 1.378 . S
C410 C405 1.350 . S
C411 H398 0.929 . S
C411 C403 1.433 . S
C411 N413 1.384 . S
N412 C408 1.427 . S
N412 C409 1.384 . S
N413 C405 1.427 . S
N413 C411 1.384 . S
H414 C420 0.930 . S
H415 C424 0.930 . S
H416 C429 0.929 . S
H417 C427 0.929 . S
H418 C422 0.929 . S
H419 C428 0.929 . S
C420 H414 0.930 . S
C420 C421 1.367 . S
C420 C428 1.378 . S
C421 C420 1.367 . S
C421 C429 1.433 . S
C422 H418 0.929 . S
C422 C424 1.378 . S
C422 C426 1.350 . S
C423 C426 1.463 . S
C423 C428 1.350 . S
C423 N431 1.427 . S
C424 H415 0.930 . S
C424 C422 1.378 . S
C424 C425 1.367 . S
C425 C424 1.367 . S
C425 C427 1.433 . S
C426 C422 1.350 . S
C426 C423 1.463 . S
C426 N430 1.427 . S
C427 H417 0.929 . S
C427 C425 1.433 . S
C427 N430 1.384 . S
C428 H419 0.929 . S
C428 C420 1.378 . S
C428 C423 1.350 . S
C429 H416 0.929 . S
C429 C421 1.433 . S
C429 N431 1.384 . S
N430 C426 1.427 . S
N430 C427 1.384 . S
N431 C423 1.427 . S
N431 C429 1.384 . S
H432 C438 0.930 . S
H433 C442 0.930 . S
H434 C447 0.929 . S
H435 C445 0.929 . S
H436 C440 0.929 . S
H437 C446 0.929 . S
C438 H432 0.930 . S
C438 C439 1.367 . S
C438 C446 1.378 . S
C439 C438 1.367 . S
C439 C447 1.433 . S
C440 H436 0.929 . S
C440 C442 1.378 . S
C440 C444 1.350 . S
C441 C444 1.463 . S
C441 C446 1.350 . S
C441 N449 1.427 . S
C442 H433 0.930 . S
C442 C440 1.378 . S
C442 C443 1.367 . S
C443 C442 1.367 . S
C443 C445 1.433 . S
C444 C440 1.350 . S
C444 C441 1.463 . S
C444 N448 1.427 . S
C445 H435 0.929 . S
C445 C443 1.433 . S
C445 N448 1.384 . S
C446 H437 0.929 . S
C446 C438 1.378 . S
C446 C441 1.350 . S
C447 H434 0.929 . S
C447 C439 1.433 . S
C447 N449 1.384 . S
N448 C444 1.427 . S
N448 C445 1.384 . S
N449 C441 1.427 . S
N449 C447 1.384 . S
H450 C456 0.930 . S
H451 C460 0.930 . S
H452 C465 0.929 . S
H453 C463 0.929 . S
H454 C458 0.929 . S
H455 C464 0.929 . S
C456 H450 0.930 . S
C456 C457 1.367 . S
C456 C464 1.378 . S
C457 C456 1.367 . S
C457 C465 1.433 . S
C458 H454 0.929 . S
C458 C460 1.378 . S
C458 C462 1.350 . S
C459 C462 1.463 . S
C459 C464 1.350 . S
C459 N467 1.427 . S
C460 H451 0.930 . S
C460 C458 1.378 . S
C460 C461 1.367 . S
C461 C460 1.367 . S
C461 C463 1.433 . S
C462 C458 1.350 . S
C462 C459 1.463 . S
C462 N466 1.427 . S
C463 H453 0.929 . S
C463 C461 1.433 . S
C463 N466 1.384 . S
C464 H455 0.929 . S
C464 C456 1.378 . S
C464 C459 1.350 . S
C465 H452 0.929 . S
C465 C457 1.433 . S
C465 N467 1.384 . S
N466 C462 1.427 . S
N466 C463 1.384 . S
N467 C459 1.427 . S
N467 C465 1.384 . S
H468 C474 0.930 . S
H469 C478 0.930 . S
H470 C483 0.929 . S
H471 C481 0.929 . S
H472 C476 0.929 . S
H473 C482 0.929 . S
C474 H468 0.930 . S
C474 C475 1.367 . S
C474 C482 1.378 . S
C475 C474 1.367 . S
C475 C483 1.433 . S
C476 H472 0.929 . S
C476 C478 1.378 . S
C476 C480 1.350 . S
C477 C480 1.463 . S
C477 C482 1.350 . S
C477 N485 1.427 . S
C478 H469 0.930 . S
C478 C476 1.378 . S
C478 C479 1.367 . S
C479 C478 1.367 . S
C479 C481 1.433 . S
C480 C476 1.350 . S
C480 C477 1.463 . S
C480 N484 1.427 . S
C481 H471 0.929 . S
C481 C479 1.433 . S
C481 N484 1.384 . S
C482 H473 0.929 . S
C482 C474 1.378 . S
C482 C477 1.350 . S
C483 H470 0.929 . S
C483 C475 1.433 . S
C483 N485 1.384 . S
N484 C480 1.427 . S
N484 C481 1.384 . S
N485 C477 1.427 . S
N485 C483 1.384 . S
H486 C492 0.930 . S
H487 C496 0.930 . S
H488 C501 0.929 . S
H489 C499 0.929 . S
H490 C494 0.929 . S
H491 C500 0.929 . S
C492 H486 0.930 . S
C492 C493 1.367 . S
C492 C500 1.378 . S
C493 C492 1.367 . S
C493 C501 1.433 . S
C494 H490 0.929 . S
C494 C496 1.378 . S
C494 C498 1.350 . S
C495 C498 1.463 . S
C495 C500 1.350 . S
C495 N503 1.427 . S
C496 H487 0.930 . S
C496 C494 1.378 . S
C496 C497 1.367 . S
C497 C496 1.367 . S
C497 C499 1.433 . S
C498 C494 1.350 . S
C498 C495 1.463 . S
C498 N502 1.427 . S
C499 H489 0.929 . S
C499 C497 1.433 . S
C499 N502 1.384 . S
C500 H491 0.929 . S
C500 C492 1.378 . S
C500 C495 1.350 . S
C501 H488 0.929 . S
C501 C493 1.433 . S
C501 N503 1.384 . S
N502 C498 1.427 . S
N502 C499 1.384 . S
N503 C495 1.427 . S
N503 C501 1.384 . S
H504 C510 0.930 . S
H505 C514 0.930 . S
H506 C519 0.929 . S
H507 C517 0.929 . S
H508 C512 0.929 . S
H509 C518 0.929 . S
C510 H504 0.930 . S
C510 C511 1.367 . S
C510 C518 1.378 . S
C511 C510 1.367 . S
C511 C519 1.433 . S
C512 H508 0.929 . S
C512 C514 1.378 . S
C512 C516 1.350 . S
C513 C516 1.463 . S
C513 C518 1.350 . S
C513 N521 1.427 . S
C514 H505 0.930 . S
C514 C512 1.378 . S
C514 C515 1.367 . S
C515 C514 1.367 . S
C515 C517 1.433 . S
C516 C512 1.350 . S
C516 C513 1.463 . S
C516 N520 1.427 . S
C517 H507 0.929 . S
C517 C515 1.433 . S
C517 N520 1.384 . S
C518 H509 0.929 . S
C518 C510 1.378 . S
C518 C513 1.350 . S
C519 H506 0.929 . S
C519 C511 1.433 . S
C519 N521 1.384 . S
N520 C516 1.427 . S
N520 C517 1.384 . S
N521 C513 1.427 . S
N521 C519 1.384 . S
H522 C528 0.930 . S
H523 C532 0.930 . S
H524 C537 0.929 . S
H525 C535 0.929 . S
H526 C530 0.929 . S
H527 C536 0.929 . S
C528 H522 0.930 . S
C528 C529 1.367 . S
C528 C536 1.378 . S
C529 C528 1.367 . S
C529 C537 1.433 . S
C530 H526 0.929 . S
C530 C532 1.378 . S
C530 C534 1.350 . S
C531 C534 1.463 . S
C531 C536 1.350 . S
C531 N539 1.427 . S
C532 H523 0.930 . S
C532 C530 1.378 . S
C532 C533 1.367 . S
C533 C532 1.367 . S
C533 C535 1.433 . S
C534 C530 1.350 . S
C534 C531 1.463 . S
C534 N538 1.427 . S
C535 H525 0.929 . S
C535 C533 1.433 . S
C535 N538 1.384 . S
C536 H527 0.929 . S
C536 C528 1.378 . S
C536 C531 1.350 . S
C537 H524 0.929 . S
C537 C529 1.433 . S
C537 N539 1.384 . S
N538 C534 1.427 . S
N538 C535 1.384 . S
N539 C531 1.427 . S
N539 C537 1.384 . S
H540 C546 0.930 . S
H541 C550 0.930 . S
H542 C555 0.929 . S
H543 C553 0.929 . S
H544 C548 0.929 . S
H545 C554 0.929 . S
C546 H540 0.930 . S
C546 C547 1.367 . S
C546 C554 1.378 . S
C547 C546 1.367 . S
C547 C555 1.433 . S
C548 H544 0.929 . S
C548 C550 1.378 . S
C548 C552 1.350 . S
C549 C552 1.463 . S
C549 C554 1.350 . S
C549 N557 1.427 . S
C550 H541 0.930 . S
C550 C548 1.378 . S
C550 C551 1.367 . S
C551 C550 1.367 . S
C551 C553 1.433 . S
C552 C548 1.350 . S
C552 C549 1.463 . S
C552 N556 1.427 . S
C553 H543 0.929 . S
C553 C551 1.433 . S
C553 N556 1.384 . S
C554 H545 0.929 . S
C554 C546 1.378 . S
C554 C549 1.350 . S
C555 H542 0.929 . S
C555 C547 1.433 . S
C555 N557 1.384 . S
N556 C552 1.427 . S
N556 C553 1.384 . S
N557 C549 1.427 . S
N557 C555 1.384 . S
H558 C564 0.930 . S
H559 C568 0.930 . S
H560 C573 0.929 . S
H561 C571 0.929 . S
H562 C566 0.929 . S
H563 C572 0.929 . S
C564 H558 0.930 . S
C564 C565 1.367 . S
C564 C572 1.378 . S
C565 C564 1.367 . S
C565 C573 1.433 . S
C566 H562 0.929 . S
C566 C568 1.378 . S
C566 C570 1.350 . S
C567 C570 1.463 . S
C567 C572 1.350 . S
C567 N575 1.427 . S
C568 H559 0.930 . S
C568 C566 1.378 . S
C568 C569 1.367 . S
C569 C568 1.367 . S
C569 C571 1.433 . S
C570 C566 1.350 . S
C570 C567 1.463 . S
C570 N574 1.427 . S
C571 H561 0.929 . S
C571 C569 1.433 . S
C571 N574 1.384 . S
C572 H563 0.929 . S
C572 C564 1.378 . S
C572 C567 1.350 . S
C573 H560 0.929 . S
C573 C565 1.433 . S
C573 N575 1.384 . S
N574 C570 1.427 . S
N574 C571 1.384 . S
N575 C567 1.427 . S
N575 C573 1.384 . S
H576 C582 0.930 . S
H577 C586 0.930 . S
H578 C591 0.929 . S
H579 C589 0.929 . S
H580 C584 0.929 . S
H581 C590 0.929 . S
C582 H576 0.930 . S
C582 C583 1.367 . S
C582 C590 1.378 . S
C583 C582 1.367 . S
C583 C591 1.433 1_455 S
C584 H580 0.929 . S
C584 C586 1.378 . S
C584 C588 1.350 1_655 S
C585 C588 1.463 . S
C585 C590 1.350 . S
C585 N593 1.427 1_455 S
C586 H577 0.930 . S
C586 C584 1.378 . S
C586 C587 1.367 1_655 S
C587 C586 1.367 1_455 S
C587 C589 1.433 . S
C588 C584 1.350 1_455 S
C588 C585 1.463 . S
C588 N592 1.427 . S
C589 H579 0.929 . S
C589 C587 1.433 . S
C589 N592 1.384 . S
C590 H581 0.929 . S
C590 C582 1.378 . S
C590 C585 1.350 . S
C591 H578 0.929 . S
C591 C583 1.433 1_655 S
C591 N593 1.384 . S
N592 C588 1.427 . S
N592 C589 1.384 . S
N593 C585 1.427 1_655 S
N593 C591 1.384 . S
H594 C600 0.930 1_565 S
H595 C604 0.930 . S
H596 C609 0.929 . S
H597 C607 0.929 1_565 S
H598 C602 0.929 . S
H599 C608 0.929 1_565 S
C600 H594 0.930 1_545 S
C600 C601 1.367 . S
C600 C608 1.378 . S
C601 C600 1.367 . S
C601 C609 1.433 . S
C602 H598 0.929 . S
C602 C604 1.378 . S
C602 C606 1.350 . S
C603 C606 1.463 . S
C603 C608 1.350 . S
C603 N611 1.427 . S
C604 H595 0.930 . S
C604 C602 1.378 . S
C604 C605 1.367 . S
C605 C604 1.367 . S
C605 C607 1.433 . S
C606 C602 1.350 . S
C606 C603 1.463 . S
C606 N610 1.427 . S
C607 H597 0.929 1_545 S
C607 C605 1.433 . S
C607 N610 1.384 . S
C608 H599 0.929 1_545 S
C608 C600 1.378 . S
C608 C603 1.350 . S
C609 H596 0.929 . S
C609 C601 1.433 . S
C609 N611 1.384 . S
N610 C606 1.427 . S
N610 C607 1.384 . S
N611 C603 1.427 . S
N611 C609 1.384 . S
H612 C618 0.930 . S
H613 C622 0.930 . S
H614 C627 0.929 . S
H615 C625 0.929 . S
H616 C620 0.929 . S
H617 C626 0.929 . S
C618 H612 0.930 . S
C618 C619 1.367 . S
C618 C626 1.378 . S
C619 C618 1.367 . S
C619 C627 1.433 . S
C620 H616 0.929 . S
C620 C622 1.378 . S
C620 C624 1.350 . S
C621 C624 1.463 . S
C621 C626 1.350 . S
C621 N629 1.427 . S
C622 H613 0.930 . S
C622 C620 1.378 . S
C622 C623 1.367 . S
C623 C622 1.367 . S
C623 C625 1.433 . S
C624 C620 1.350 . S
C624 C621 1.463 . S
C624 N628 1.427 . S
C625 H615 0.929 . S
C625 C623 1.433 . S
C625 N628 1.384 . S
C626 H617 0.929 . S
C626 C618 1.378 . S
C626 C621 1.350 . S
C627 H614 0.929 . S
C627 C619 1.433 . S
C627 N629 1.384 . S
N628 C624 1.427 . S
N628 C625 1.384 . S
N629 C621 1.427 . S
N629 C627 1.384 . S
H630 C636 0.930 . S
H631 C640 0.930 . S
H632 C645 0.929 . S
H633 C643 0.929 . S
H634 C638 0.929 . S
H635 C644 0.929 . S
C636 H630 0.930 . S
C636 C637 1.367 . S
C636 C644 1.378 . S
C637 C636 1.367 . S
C637 C645 1.433 1_545 S
C638 H634 0.929 . S
C638 C640 1.378 . S
C638 C642 1.350 1_565 S
C639 C642 1.463 . S
C639 C644 1.350 . S
C639 N647 1.427 1_545 S
C640 H631 0.930 . S
C640 C638 1.378 . S
C640 C641 1.367 1_565 S
C641 C640 1.367 1_545 S
C641 C643 1.433 . S
C642 C638 1.350 1_545 S
C642 C639 1.463 . S
C642 N646 1.427 . S
C643 H633 0.929 . S
C643 C641 1.433 . S
C643 N646 1.384 . S
C644 H635 0.929 . S
C644 C636 1.378 . S
C644 C639 1.350 . S
C645 H632 0.929 . S
C645 C637 1.433 1_565 S
C645 N647 1.384 . S
N646 C642 1.427 . S
N646 C643 1.384 . S
N647 C639 1.427 1_565 S
N647 C645 1.384 . S
H648 C654 0.930 . S
H649 C658 0.930 . S
H650 C663 0.929 . S
H651 C661 0.929 . S
H652 C656 0.929 . S
H653 C662 0.929 . S
C654 H648 0.930 . S
C654 C655 1.367 . S
C654 C662 1.378 . S
C655 C654 1.367 . S
C655 C663 1.433 . S
C656 H652 0.929 . S
C656 C658 1.378 . S
C656 C660 1.350 . S
C657 C660 1.463 . S
C657 C662 1.350 . S
C657 N665 1.427 . S
C658 H649 0.930 . S
C658 C656 1.378 . S
C658 C659 1.367 . S
C659 C658 1.367 . S
C659 C661 1.433 . S
C660 C656 1.350 . S
C660 C657 1.463 . S
C660 N664 1.427 . S
C661 H651 0.929 . S
C661 C659 1.433 . S
C661 N664 1.384 . S
C662 H653 0.929 . S
C662 C654 1.378 . S
C662 C657 1.350 . S
C663 H650 0.929 . S
C663 C655 1.433 . S
C663 N665 1.384 . S
N664 C660 1.427 . S
N664 C661 1.384 . S
N665 C657 1.427 . S
N665 C663 1.384 . S
H666 C672 0.930 1_655 S
H667 C676 0.930 . S
H668 C681 0.929 . S
H669 C679 0.929 . S
H670 C674 0.929 . S
H671 C680 0.915 1_655 S
C672 H666 0.930 1_455 S
C672 C673 1.367 . S
C672 C680 1.382 . S
C673 C672 1.367 . S
C673 C681 1.433 . S
C674 H670 0.929 . S
C674 C676 1.378 . S
C674 C678 1.350 . S
C675 C678 1.463 . S
C675 C680 1.360 . S
C675 N683 1.427 . S
C676 H667 0.930 . S
C676 C674 1.378 . S
C676 C677 1.367 . S
C677 C676 1.367 . S
C677 C679 1.433 1_455 S
C678 C674 1.350 . S
C678 C675 1.463 . S
C678 N682 1.427 1_455 S
C679 H669 0.929 . S
C679 C677 1.433 1_655 S
C679 N682 1.384 . S
C680 H671 0.915 1_455 S
C680 C672 1.382 . S
C680 C675 1.360 . S
C681 H668 0.929 . S
C681 C673 1.433 . S
C681 N683 1.384 . S
N682 C678 1.427 1_655 S
N682 C679 1.384 . S
N683 C675 1.427 . S
N683 C681 1.384 . S
C367 C9 0.491 . S
C371 C335 0.480 . S
C385 C49 0.287 . S
C389 C242 0.261 . S
C403 C89 0.288 . S
C407 C282 0.271 . S
C421 C26 0.372 . S
C425 C322 0.289 . S
C443 C255 0.439 . S
C439 C66 0.473 . S
C461 C295 0.471 . S
C457 C106 0.542 . S
C475 C43 2.998 . S
C479 C162 2.955 . S
C493 C83 3.158 . S
C497 C202 3.106 . S
C511 C22 3.243 . S
C515 C135 3.162 . S
C533 C175 3.156 . S
C529 C62 3.235 . S
C551 C215 3.006 . S
C547 C102 3.072 . S
C565 C3 2.992 . S
C569 C122 2.949 . S
C587 C221 1.766 1_554 S
C583 C15 1.725 . S
C601 C55 1.735 . S
C605 C141 1.774 . S
C619 C95 1.740 . S
C623 C181 1.766 . S
C641 C301 1.104 1_545 S
C637 C42 1.090 . S
C659 C341 1.107 . S
C655 C82 1.094 . S
C673 C2 1.096 . S
C677 C261 1.101 1_455 S
