# Generated by pormake.
# Topology gar, (4,6)-cn, num edge types: 1
# Building blocks:
#     Node 0, Type 0, BuildingBlock: AZAVOO_clean_sbu_0, # of connection points: 4
#     Node 1, Type 0, BuildingBlock: AZAVOO_clean_sbu_0, # of connection points: 4
#     Node 2, Type 0, BuildingBlock: AZAVOO_clean_sbu_0, # of connection points: 4
#     Node 3, Type 0, BuildingBlock: AZAVOO_clean_sbu_0, # of connection points: 4
#     Node 4, Type 0, BuildingBlock: AZAVOO_clean_sbu_0, # of connection points: 4
#     Node 5, Type 0, BuildingBlock: AZAVOO_clean_sbu_0, # of connection points: 4
#     Node 6, Type 0, BuildingBlock: AZAVOO_clean_sbu_0, # of connection points: 4
#     Node 7, Type 0, BuildingBlock: AZAVOO_clean_sbu_0, # of connection points: 4
#     Node 8, Type 0, BuildingBlock: AZAVOO_clean_sbu_0, # of connection points: 4
#     Node 9, Type 0, BuildingBlock: AZAVOO_clean_sbu_0, # of connection points: 4
#     Node 10, Type 0, BuildingBlock: AZAVOO_clean_sbu_0, # of connection points: 4
#     Node 11, Type 0, BuildingBlock: AZAVOO_clean_sbu_0, # of connection points: 4
#     Node 12, Type 0, BuildingBlock: AZAVOO_clean_sbu_0, # of connection points: 4
#     Node 13, Type 0, BuildingBlock: AZAVOO_clean_sbu_0, # of connection points: 4
#     Node 14, Type 0, BuildingBlock: AZAVOO_clean_sbu_0, # of connection points: 4
#     Node 15, Type 0, BuildingBlock: AZAVOO_clean_sbu_0, # of connection points: 4
#     Node 16, Type 0, BuildingBlock: AZAVOO_clean_sbu_0, # of connection points: 4
#     Node 17, Type 0, BuildingBlock: AZAVOO_clean_sbu_0, # of connection points: 4
#     Node 18, Type 0, BuildingBlock: AZAVOO_clean_sbu_0, # of connection points: 4
#     Node 19, Type 0, BuildingBlock: AZAVOO_clean_sbu_0, # of connection points: 4
#     Node 20, Type 0, BuildingBlock: AZAVOO_clean_sbu_0, # of connection points: 4
#     Node 21, Type 0, BuildingBlock: AZAVOO_clean_sbu_0, # of connection points: 4
#     Node 22, Type 0, BuildingBlock: AZAVOO_clean_sbu_0, # of connection points: 4
#     Node 23, Type 0, BuildingBlock: AZAVOO_clean_sbu_0, # of connection points: 4
#     Node 24, Type 1, BuildingBlock: MIFKUJ_clean_sbu_0, # of connection points: 6
#     Node 25, Type 1, BuildingBlock: MIFKUJ_clean_sbu_0, # of connection points: 6
#     Node 26, Type 1, BuildingBlock: MIFKUJ_clean_sbu_0, # of connection points: 6
#     Node 27, Type 1, BuildingBlock: MIFKUJ_clean_sbu_0, # of connection points: 6
#     Node 28, Type 1, BuildingBlock: MIFKUJ_clean_sbu_0, # of connection points: 6
#     Node 29, Type 1, BuildingBlock: MIFKUJ_clean_sbu_0, # of connection points: 6
#     Node 30, Type 1, BuildingBlock: MIFKUJ_clean_sbu_0, # of connection points: 6
#     Node 31, Type 1, BuildingBlock: MIFKUJ_clean_sbu_0, # of connection points: 6
#     Node 32, Type 1, BuildingBlock: MIFKUJ_clean_sbu_0, # of connection points: 6
#     Node 33, Type 1, BuildingBlock: MIFKUJ_clean_sbu_0, # of connection points: 6
#     Node 34, Type 1, BuildingBlock: MIFKUJ_clean_sbu_0, # of connection points: 6
#     Node 35, Type 1, BuildingBlock: MIFKUJ_clean_sbu_0, # of connection points: 6
#     Node 36, Type 1, BuildingBlock: MIFKUJ_clean_sbu_0, # of connection points: 6
#     Node 37, Type 1, BuildingBlock: MIFKUJ_clean_sbu_0, # of connection points: 6
#     Node 38, Type 1, BuildingBlock: MIFKUJ_clean_sbu_0, # of connection points: 6
#     Node 39, Type 1, BuildingBlock: MIFKUJ_clean_sbu_0, # of connection points: 6
#     Edge 40, Type (0, 1), None
#     Edge 41, Type (0, 1), None
#     Edge 42, Type (0, 1), None
#     Edge 43, Type (0, 1), None
#     Edge 44, Type (0, 1), None
#     Edge 45, Type (0, 1), None
#     Edge 46, Type (0, 1), None
#     Edge 47, Type (0, 1), None
#     Edge 48, Type (0, 1), None
#     Edge 49, Type (0, 1), None
#     Edge 50, Type (0, 1), None
#     Edge 51, Type (0, 1), None
#     Edge 52, Type (0, 1), None
#     Edge 53, Type (0, 1), None
#     Edge 54, Type (0, 1), None
#     Edge 55, Type (0, 1), None
#     Edge 56, Type (0, 1), None
#     Edge 57, Type (0, 1), None
#     Edge 58, Type (0, 1), None
#     Edge 59, Type (0, 1), None
#     Edge 60, Type (0, 1), None
#     Edge 61, Type (0, 1), None
#     Edge 62, Type (0, 1), None
#     Edge 63, Type (0, 1), None
#     Edge 64, Type (0, 1), None
#     Edge 65, Type (0, 1), None
#     Edge 66, Type (0, 1), None
#     Edge 67, Type (0, 1), None
#     Edge 68, Type (0, 1), None
#     Edge 69, Type (0, 1), None
#     Edge 70, Type (0, 1), None
#     Edge 71, Type (0, 1), None
#     Edge 72, Type (0, 1), None
#     Edge 73, Type (0, 1), None
#     Edge 74, Type (0, 1), None
#     Edge 75, Type (0, 1), None
#     Edge 76, Type (0, 1), None
#     Edge 77, Type (0, 1), None
#     Edge 78, Type (0, 1), None
#     Edge 79, Type (0, 1), None
#     Edge 80, Type (0, 1), None
#     Edge 81, Type (0, 1), None
#     Edge 82, Type (0, 1), None
#     Edge 83, Type (0, 1), None
#     Edge 84, Type (0, 1), None
#     Edge 85, Type (0, 1), None
#     Edge 86, Type (0, 1), None
#     Edge 87, Type (0, 1), None
#     Edge 88, Type (0, 1), None
#     Edge 89, Type (0, 1), None
#     Edge 90, Type (0, 1), None
#     Edge 91, Type (0, 1), None
#     Edge 92, Type (0, 1), None
#     Edge 93, Type (0, 1), None
#     Edge 94, Type (0, 1), None
#     Edge 95, Type (0, 1), None
#     Edge 96, Type (0, 1), None
#     Edge 97, Type (0, 1), None
#     Edge 98, Type (0, 1), None
#     Edge 99, Type (0, 1), None
#     Edge 100, Type (0, 1), None
#     Edge 101, Type (0, 1), None
#     Edge 102, Type (0, 1), None
#     Edge 103, Type (0, 1), None
#     Edge 104, Type (0, 1), None
#     Edge 105, Type (0, 1), None
#     Edge 106, Type (0, 1), None
#     Edge 107, Type (0, 1), None
#     Edge 108, Type (0, 1), None
#     Edge 109, Type (0, 1), None
#     Edge 110, Type (0, 1), None
#     Edge 111, Type (0, 1), None
#     Edge 112, Type (0, 1), None
#     Edge 113, Type (0, 1), None
#     Edge 114, Type (0, 1), None
#     Edge 115, Type (0, 1), None
#     Edge 116, Type (0, 1), None
#     Edge 117, Type (0, 1), None
#     Edge 118, Type (0, 1), None
#     Edge 119, Type (0, 1), None
#     Edge 120, Type (0, 1), None
#     Edge 121, Type (0, 1), None
#     Edge 122, Type (0, 1), None
#     Edge 123, Type (0, 1), None
#     Edge 124, Type (0, 1), None
#     Edge 125, Type (0, 1), None
#     Edge 126, Type (0, 1), None
#     Edge 127, Type (0, 1), None
#     Edge 128, Type (0, 1), None
#     Edge 129, Type (0, 1), None
#     Edge 130, Type (0, 1), None
#     Edge 131, Type (0, 1), None
#     Edge 132, Type (0, 1), None
#     Edge 133, Type (0, 1), None
#     Edge 134, Type (0, 1), None
#     Edge 135, Type (0, 1), None
# Relax obj value: 0.168
# Max RMSD: 0.396
# Mean RMSD: 0.190
data_MOF--net-gar--node1-AZAVOO_clean_sbu_0--node2-MIFKUJ_clean_sbu_0--edge1-none
_symmetry_space_group_name_H-M    P1
_symmetry_Int_Tables_number       1
_symmetry_cell_setting            triclinic
loop_
_symmetry_equiv_pos_as_xyz
'x, y, z'
_cell_length_a     27.89554
_cell_length_b     26.037885
_cell_length_c     25.19529
_cell_angle_alpha  100.13536
_cell_angle_beta   94.714382
_cell_angle_gamma 104.43334
loop_
_atom_site_label
_atom_site_type_symbol
_atom_site_fract_x
_atom_site_fract_y
_atom_site_fract_z
_atom_type_partial_charge
Mg0 Mg 0.0265 0.26757 0.39769 0.0
O1 O 0.02918 0.34706 0.45526 0.0
O2 O 0.97192 0.32869 0.51119 0.0
Mg3 Mg 0.92843 0.23935 0.48449 0.0
C4 C 0.00724 0.36155 0.49542 0.0
C5 C 0.11981 0.28628 0.33643 0.0
O6 O 0.09209 0.24372 0.30132 0.0
O7 O 0.06123 0.23467 0.46462 0.0
O8 O 0.99574 0.20924 0.50877 0.0
O9 O 0.9702 0.28269 0.33717 0.0
O10 O 0.95213 0.23808 0.40319 0.0
C11 C 0.04046 0.21064 0.50008 0.0
C12 C 0.93706 0.25706 0.36324 0.0
O13 O 0.1026 0.30567 0.37812 0.0
Mg14 Mg 0.01817 0.77038 0.6748 0.0
O15 O 0.01397 0.68186 0.63748 0.0
O16 O 0.94637 0.65484 0.57446 0.0
Mg17 Mg 0.89759 0.71283 0.5878 0.0
C18 C 0.98597 0.64761 0.59732 0.0
C19 C 0.12723 0.77818 0.73492 0.0
O20 O 0.1053 0.7473 0.7667 0.0
O21 O 0.0321 0.79173 0.59317 0.0
O22 O 0.95295 0.77682 0.55752 0.0
O23 O 0.97851 0.75163 0.74756 0.0
O24 O 0.94206 0.75185 0.66677 0.0
C25 C -0.00077 0.80006 0.56016 0.0
C26 C 0.938 0.74601 0.71555 0.0
O27 O 0.10158 0.79107 0.69812 0.0
Mg28 Mg 0.52651 0.76757 0.89769 0.0
O29 O 0.52918 0.84706 0.95526 0.0
O30 O 0.47192 0.8287 0.01117 0.0
Mg31 Mg 0.42843 0.73935 0.98448 0.0
C32 C 0.50724 0.86155 0.99541 0.0
C33 C 0.61982 0.78628 0.83643 0.0
O34 O 0.59209 0.74372 0.80132 0.0
O35 O 0.56123 0.73467 0.96461 0.0
O36 O 0.49573 0.70925 0.00876 0.0
O37 O 0.4702 0.78269 0.83716 0.0
O38 O 0.45213 0.73808 0.90318 0.0
C39 C 0.54046 0.71064 8e-05 0.0
C40 C 0.43706 0.75706 0.86323 0.0
O41 O 0.6026 0.80567 0.87812 0.0
Mg42 Mg 0.51817 0.27038 0.17481 0.0
O43 O 0.51397 0.18186 0.13748 0.0
O44 O 0.44637 0.15485 0.07446 0.0
Mg45 Mg 0.39759 0.21284 0.08781 0.0
C46 C 0.48597 0.14761 0.09732 0.0
C47 C 0.62723 0.27818 0.23493 0.0
O48 O 0.6053 0.2473 0.26671 0.0
O49 O 0.5321 0.29174 0.09318 0.0
O50 O 0.45295 0.27682 0.05753 0.0
O51 O 0.47851 0.25161 0.24757 0.0
O52 O 0.44206 0.25185 0.16678 0.0
C53 C 0.49923 0.30007 0.06017 0.0
C54 C 0.438 0.246 0.21556 0.0
O55 O 0.60158 0.29107 0.19813 0.0
Mg56 Mg 0.06399 0.8486 0.22062 0.0
O57 O 0.05795 0.76782 0.16825 0.0
O58 O 0.99711 0.75077 0.0994 0.0
Mg59 Mg 0.956 0.81745 0.11681 0.0
C60 C 0.03275 0.7382 0.12464 0.0
C61 C 0.16362 0.85105 0.29397 0.0
O62 O 0.14162 0.86421 0.33646 0.0
O63 O 0.08833 0.89463 0.1551 0.0
O64 O 0.01883 0.88424 0.09809 0.0
O65 O 0.01332 0.80532 0.27306 0.0
O66 O 0.98987 0.83938 0.20347 0.0
C67 C 0.0649 0.90665 0.11532 0.0
C68 C 0.9781 0.81263 0.24074 0.0
O69 O 0.14212 0.84589 0.24637 0.0
Mg70 Mg 0.48241 0.73447 0.3376 0.0
O71 O 0.52434 0.82047 0.38454 0.0
O72 O 0.48476 0.83866 0.45611 0.0
Mg73 Mg 0.41413 0.77142 0.4464 0.0
C74 C 0.52067 0.85095 0.42868 0.0
C75 C 0.58327 0.76502 0.29118 0.0
O76 O 0.57728 0.81405 0.30116 0.0
O77 O 0.50898 0.70024 0.40744 0.0
O78 O 0.4594 0.71416 0.47029 0.0
O79 O 0.43615 0.76378 0.27906 0.0
O80 O 0.41646 0.747 0.35874 0.0
C81 C 0.49411 0.69452 0.45299 0.0
C82 C 0.40548 0.76311 0.31496 0.0
O83 O 0.54992 0.7252 0.29906 0.0
Mg84 Mg 0.56399 0.34859 0.72061 0.0
O85 O 0.55795 0.26781 0.66822 0.0
O86 O 0.49711 0.25077 0.59937 0.0
Mg87 Mg 0.45601 0.31744 0.61679 0.0
C88 C 0.53276 0.2382 0.62461 0.0
C89 C 0.66362 0.35104 0.79397 0.0
O90 O 0.64161 0.3642 0.83646 0.0
O91 O 0.58833 0.39463 0.6551 0.0
O92 O 0.51883 0.38425 0.59808 0.0
O93 O 0.51332 0.3053 0.77303 0.0
O94 O 0.48986 0.33936 0.70345 0.0
C95 C 0.5649 0.40666 0.61532 0.0
C96 C 0.4781 0.31261 0.74072 0.0
O97 O 0.64212 0.34588 0.74637 0.0
Mg98 Mg 0.98242 0.23449 0.83763 0.0
O99 O 0.02435 0.32049 0.88456 0.0
O100 O 0.98477 0.33869 0.95613 0.0
Mg101 Mg 0.91414 0.27145 0.94643 0.0
C102 C 0.02068 0.35098 0.9287 0.0
C103 C 0.08328 0.26503 0.7912 0.0
O104 O 0.07729 0.31407 0.80118 0.0
O105 O 0.00899 0.20027 0.90746 0.0
O106 O 0.95941 0.21418 0.97031 0.0
O107 O 0.93616 0.2638 0.77908 0.0
O108 O 0.91647 0.24703 0.85877 0.0
C109 C 0.99411 0.19454 0.95301 0.0
C110 C 0.90549 0.26313 0.81498 0.0
O111 O 0.04992 0.22522 0.79909 0.0
Mg112 Mg 0.47185 0.09157 0.32162 0.0
O113 O 0.43565 1.00054 0.28303 0.0
O114 O 0.3799 0.9771 0.33984 0.0
Mg115 Mg 0.38898 0.04053 0.41601 0.0
C116 C 0.39882 0.96682 0.29615 0.0
C117 C 0.53668 0.08944 0.22308 0.0
O118 O 0.57053 0.11781 0.19885 0.0
O119 O 0.39724 0.10685 0.29293 0.0
O120 O 0.35471 0.08877 0.36188 0.0
O121 O 0.53689 0.07889 0.36894 0.0
O122 O 0.46475 0.07528 0.39947 0.0
C123 C 0.35871 0.10555 0.31728 0.0
C124 C 0.50952 0.07016 0.40674 0.0
O125 O 0.50827 0.11333 0.24861 0.0
Mg126 Mg 0.26779 0.13314 0.46974 0.0
O127 O 0.26421 0.1803 0.55463 0.0
O128 O 0.33553 0.24466 0.58114 0.0
Mg129 Mg 0.38172 0.24291 0.50869 0.0
C130 C 0.293 0.21839 0.5905 0.0
C131 C 0.16965 0.04551 0.4754 0.0
O132 O 0.19847 0.01285 0.46652 0.0
O133 O 0.25519 0.19854 0.4216 0.0
O134 O 0.32815 0.26246 0.44368 0.0
O135 O 0.30922 0.082 0.50924 0.0
O136 O 0.34537 0.15516 0.47937 0.0
C137 C 0.28503 0.24286 0.41548 0.0
C138 C 0.34968 0.11606 0.50251 0.0
O139 O 0.18579 0.09516 0.47331 0.0
Mg140 Mg 0.14002 0.02076 0.82003 0.0
O141 O 0.18254 0.10573 0.80411 0.0
O142 O 0.24347 0.13674 0.87456 0.0
Mg143 Mg 0.22193 0.09029 0.94429 0.0
C144 C 0.22417 0.13893 0.82737 0.0
C145 C 0.10065 0.00556 0.69295 0.0
O146 O 0.09135 0.05283 0.70643 0.0
O147 O 0.21218 0.99343 0.81521 0.0
O148 O 0.25164 0.02149 0.90012 0.0
O149 O 0.07091 0.03873 0.8557 0.0
O150 O 0.14364 0.05323 0.90359 0.0
C151 C 0.24652 0.99349 0.85195 0.0
C152 C 0.0967 0.05023 0.90328 0.0
O153 O 0.11866 0.98477 0.72918 0.0
Mg154 Mg 0.27093 0.9015 0.05849 0.0
O155 O 0.28012 0.86038 0.97203 0.0
O156 O 0.31739 0.79336 0.97661 0.0
Mg157 Mg 0.32945 0.78743 0.06553 0.0
C158 C 0.29723 0.82163 0.94979 0.0
C159 C 0.22342 0.99558 0.0569 0.0
O160 O 0.25509 0.01415 0.10181 0.0
O161 O 0.20502 0.82957 0.05792 0.0
O162 O 0.24474 0.76814 0.0506 0.0
O163 O 0.34516 0.95774 0.06827 0.0
O164 O 0.33273 0.87593 0.08782 0.0
C165 C 0.22431 0.79841 0.08059 0.0
C166 C 0.36334 0.92085 0.08374 0.0
O167 O 0.22101 0.94938 0.02821 0.0
Mg168 Mg 0.31883 0.42474 0.08749 0.0
O169 O 0.28328 0.37985 0.00108 0.0
O170 O 0.32271 0.31734 0.97326 0.0
Mg171 Mg 0.38519 0.32534 0.0423 0.0
C172 C 0.28948 0.34201 0.96502 0.0
C173 C 0.23455 0.48282 0.06476 0.0
O174 O 0.26379 0.50055 0.02988 0.0
O175 O 0.28795 0.35212 0.12693 0.0
O176 O 0.33371 0.29416 0.10586 0.0
O177 O 0.37217 0.48694 0.05416 0.0
O178 O 0.38857 0.4125 0.07201 0.0
C179 C 0.30019 0.30876 0.13178 0.0
C180 C 0.40227 0.45626 0.05333 0.0
O181 O 0.2478 0.45345 0.09547 0.0
Mg182 Mg 0.78967 0.15532 0.04156 0.0
O183 O 0.78918 0.19418 0.13048 0.0
O184 O 0.85515 0.26724 0.1452 0.0
Mg185 Mg 0.91227 0.24835 0.08927 0.0
C186 C 0.81316 0.24183 0.15661 0.0
C187 C 0.67413 0.09872 0.04702 0.0
O188 O 0.69067 0.07464 0.0834 0.0
O189 O 0.78631 0.23736 0.02741 0.0
O190 O 0.86668 0.27018 0.02247 0.0
O191 O 0.81936 0.08132 0.04801 0.0
O192 O 0.86612 0.1644 0.05883 0.0
C193 C 0.82102 0.26655 0.00779 0.0
C194 C 0.86357 0.11386 0.05313 0.0
O195 O 0.7047 0.13003 0.02448 0.0
Mg196 Mg 0.10906 0.50223 0.26709 0.0
O197 O 0.15177 0.59234 0.27257 0.0
O198 O 0.20433 0.61499 0.35019 0.0
Mg199 Mg 0.19154 0.5468 0.39787 0.0
C200 C 0.18674 0.62637 0.30667 0.0
C201 C 0.05424 0.48503 0.13085 0.0
O202 O 0.0399 0.43653 0.0996 0.0
O203 O 0.17881 0.47261 0.2507 0.0
O204 O 0.22026 0.49167 0.33535 0.0
O205 O 0.0486 0.52282 0.31348 0.0
O206 O 0.11907 0.51051 0.34886 0.0
C207 C 0.2138 0.46887 0.28515 0.0
C208 C 0.07657 0.51894 0.35534 0.0
O209 O 0.07384 0.49105 0.17957 0.0
Mg210 Mg 0.81883 0.92475 0.58749 0.0
O211 O 0.78328 0.87985 0.50109 0.0
O212 O 0.82271 0.81734 0.47326 0.0
Mg213 Mg 0.88519 0.82534 0.5423 0.0
C214 C 0.78949 0.84201 0.46503 0.0
C215 C 0.73455 0.98282 0.56474 0.0
O216 O 0.7638 1.00054 0.52985 0.0
O217 O 0.78796 0.85213 0.62694 0.0
O218 O 0.83371 0.79416 0.60586 0.0
O219 O 0.87218 0.98694 0.55415 0.0
O220 O 0.88857 0.9125 0.57202 0.0
C221 C 0.80019 0.80877 0.63179 0.0
C222 C 0.90228 0.95626 0.55333 0.0
O223 O 0.74781 0.95346 0.59547 0.0
Mg224 Mg 0.92753 0.03673 0.27343 0.0
O225 O 0.87542 0.94669 0.25991 0.0
O226 O 0.82351 0.94833 0.32356 0.0
Mg227 Mg 0.84398 0.03049 0.38134 0.0
C228 C 0.83843 0.92348 0.28263 0.0
C229 C 0.00703 0.05954 0.18951 0.0
O230 O 0.03462 0.08797 0.23493 0.0
O231 O 0.86294 0.06955 0.24332 0.0
O232 O 0.821 0.0722 0.31562 0.0
O233 O 0.98406 0.01977 0.33258 0.0
O234 O 0.91747 0.04538 0.35435 0.0
C235 C 0.82881 0.08316 0.2692 0.0
C236 C 0.9568 0.03219 0.36937 0.0
O237 O 0.96213 0.032 0.19112 0.0
Mg238 Mg 0.28967 0.65531 0.54156 0.0
O239 O 0.28918 0.69418 0.63048 0.0
O240 O 0.35515 0.76724 0.64518 0.0
Mg241 Mg 0.41226 0.74835 0.58925 0.0
C242 C 0.31316 0.74183 0.6566 0.0
C243 C 0.17413 0.59872 0.54703 0.0
O244 O 0.19067 0.57464 0.58341 0.0
O245 O 0.28631 0.73734 0.5274 0.0
O246 O 0.36667 0.77017 0.52245 0.0
O247 O 0.31936 0.58132 0.54801 0.0
O248 O 0.36612 0.6644 0.55883 0.0
C249 C 0.321 0.76653 0.50777 0.0
C250 C 0.36357 0.61386 0.55312 0.0
O251 O 0.2047 0.63002 0.52448 0.0
Mg252 Mg 0.42754 0.53673 0.77343 0.0
O253 O 0.37542 0.44669 0.75991 0.0
O254 O 0.32351 0.44832 0.82355 0.0
Mg255 Mg 0.34398 0.53048 0.88133 0.0
C256 C 0.33844 0.42348 0.78262 0.0
C257 C 0.50703 0.55954 0.68951 0.0
O258 O 0.53462 0.58797 0.73494 0.0
O259 O 0.36294 0.56955 0.74332 0.0
O260 O 0.321 0.57219 0.81562 0.0
O261 O 0.48406 0.51977 0.83258 0.0
O262 O 0.41747 0.54538 0.85435 0.0
C263 C 0.32881 0.58316 0.7692 0.0
C264 C 0.4568 0.53219 0.86937 0.0
O265 O 0.46214 0.532 0.69112 0.0
Mg266 Mg 0.60908 1.00228 0.76714 0.0
O267 O 0.65178 0.09238 0.77264 0.0
O268 O 0.70435 0.11499 0.85026 0.0
Mg269 Mg 0.69154 0.04677 0.8979 0.0
C270 C 0.68676 0.1264 0.80675 0.0
C271 C 0.55434 0.98508 0.63085 0.0
O272 O 0.53985 0.93664 0.59951 0.0
O273 O 0.67881 0.97264 0.75073 0.0
O274 O 0.72027 0.99166 0.83536 0.0
O275 O 0.54862 0.02287 0.81352 0.0
O276 O 0.61908 0.01051 0.84889 0.0
C277 C 0.7138 0.96888 0.78515 0.0
C278 C 0.57657 0.01893 0.85537 0.0
O279 O 0.57391 0.99088 0.67955 0.0
Mg280 Mg 0.76779 0.63314 0.96975 0.0
O281 O 0.76421 0.6803 0.05464 0.0
O282 O 0.83554 0.74467 0.08115 0.0
Mg283 Mg 0.88173 0.74291 0.0087 0.0
C284 C 0.79301 0.71839 0.09051 0.0
C285 C 0.66965 0.54552 0.97541 0.0
O286 O 0.69847 0.51286 0.96652 0.0
O287 O 0.7552 0.69854 0.92161 0.0
O288 O 0.82816 0.76246 0.94369 0.0
O289 O 0.80923 0.582 0.00926 0.0
O290 O 0.84538 0.65516 0.97938 0.0
C291 C 0.78504 0.74286 0.91549 0.0
C292 C 0.84968 0.61606 0.00253 0.0
O293 O 0.6858 0.59517 0.97333 0.0
Mg294 Mg 0.97186 0.59158 0.82164 0.0
O295 O 0.93566 0.50054 0.78305 0.0
O296 O 0.8799 0.47711 0.83986 0.0
Mg297 Mg 0.88898 0.54054 0.91602 0.0
C298 C 0.89883 0.46683 0.79617 0.0
C299 C 0.03669 0.58944 0.7231 0.0
O300 O 0.07054 0.61781 0.69886 0.0
O301 O 0.89726 0.60686 0.79294 0.0
O302 O 0.85472 0.58879 0.86189 0.0
O303 O 0.0369 0.57888 0.86898 0.0
O304 O 0.96476 0.57528 0.8995 0.0
C305 C 0.85872 0.60557 0.81729 0.0
C306 C 0.00952 0.57016 0.90678 0.0
O307 O 0.00829 0.61334 0.74864 0.0
Mg308 Mg 0.77093 0.40149 0.5585 0.0
O309 O 0.78012 0.36037 0.47204 0.0
O310 O 0.81738 0.29336 0.47662 0.0
Mg311 Mg 0.82945 0.28743 0.56553 0.0
C312 C 0.79723 0.32162 0.4498 0.0
C313 C 0.72342 0.49558 0.55691 0.0
O314 O 0.75509 0.51415 0.60181 0.0
O315 O 0.70502 0.32956 0.55793 0.0
O316 O 0.74474 0.26813 0.55061 0.0
O317 O 0.84516 0.45774 0.56828 0.0
O318 O 0.83272 0.37592 0.58783 0.0
C319 C 0.72431 0.2984 0.5806 0.0
C320 C 0.86334 0.42084 0.58375 0.0
O321 O 0.72101 0.44937 0.52822 0.0
Mg322 Mg 0.64003 0.52076 0.32003 0.0
O323 O 0.68255 0.60573 0.30412 0.0
O324 O 0.74348 0.63675 0.37457 0.0
Mg325 Mg 0.72194 0.59029 0.4443 0.0
C326 C 0.72417 0.63893 0.32738 0.0
C327 C 0.60065 0.50556 0.19296 0.0
O328 O 0.59134 0.55283 0.20644 0.0
O329 O 0.71219 0.49343 0.31522 0.0
O330 O 0.75165 0.52149 0.40012 0.0
O331 O 0.57092 0.53874 0.35571 0.0
O332 O 0.64364 0.55323 0.40359 0.0
C333 C 0.74652 0.49349 0.35196 0.0
C334 C 0.59672 0.55024 0.40328 0.0
O335 O 0.61867 0.48477 0.22918 0.0
Zn336 Zn 0.10169 0.05498 0.06826 0.0
Zn337 Zn 0.99352 0.06574 0.02176 0.0
C338 C 0.08862 0.95747 0.09997 0.0
O339 O 0.1247 0.99153 0.13527 0.0
C340 C 0.00035 0.14644 0.97134 0.0
O341 O 0.97928 0.1004 0.93736 0.0
O342 O 0.17456 0.0564 0.08271 0.0
O343 O 0.10126 0.08348 0.99812 0.0
O344 O 0.02783 0.03235 0.95722 0.0
C345 C 0.18433 0.02194 0.04546 0.0
O346 O 0.15134 0.99973 0.00206 0.0
O347 O 0.06876 0.97446 0.0614 0.0
C348 C 0.90953 0.09553 0.05487 0.0
O349 O 0.94672 0.12327 0.09254 0.0
O350 O 0.91811 0.06236 0.01487 0.0
O351 O 0.99762 0.03985 0.09332 0.0
O352 O 0.07218 0.08756 0.13438 0.0
O353 O 0.01585 0.1459 0.02033 0.0
C354 C 0.07332 0.05718 0.95462 0.0
C355 C 0.02701 0.06237 0.13682 0.0
Zn356 Zn 0.27607 0.79657 0.36117 0.0
Zn357 Zn 0.29126 0.81227 0.23908 0.0
C358 C 0.20631 0.68202 0.29821 0.0
O359 O 0.19025 0.69671 0.25433 0.0
C360 C 0.37483 0.9143 0.26027 0.0
O361 O 0.39672 0.89367 0.22086 0.0
O362 O 0.28488 0.80542 0.44177 0.0
O363 O 0.34742 0.80963 0.34559 0.0
O364 O 0.33186 0.76377 0.26108 0.0
C365 C 0.30887 0.77245 0.45274 0.0
O366 O 0.31893 0.73849 0.41299 0.0
O367 O 0.23674 0.71644 0.33623 0.0
C368 C 0.24766 0.81959 0.13698 0.0
O369 O 0.23177 0.8563 0.16797 0.0
O370 O 0.27807 0.79736 0.15803 0.0
O371 O 0.22198 0.80721 0.25927 0.0
O372 O 0.23699 0.84756 0.34558 0.0
O373 O 0.33279 0.88785 0.27021 0.0
C374 C 0.35998 0.78046 0.30633 0.0
C375 C 0.21047 0.83592 0.29984 0.0
Zn376 Zn 0.48225 0.07579 0.55348 0.0
Zn377 Zn 0.59387 0.00951 0.51459 0.0
C378 C 0.53789 0.18311 0.60999 0.0
O379 O 0.54875 0.15893 0.6491 0.0
C380 C 0.55731 0.90341 0.44791 0.0
O381 O 0.59009 0.92274 0.41694 0.0
O382 O 0.40799 0.0742 0.5422 0.0
O383 O 0.49963 0.032 0.48541 0.0
O384 O 0.57235 0.0428 0.45406 0.0
C385 C 0.39986 0.11074 0.51768 0.0
O386 O 0.43721 0.14204 0.50029 0.0
O387 O 0.51735 0.15485 0.56395 0.0
C388 C 0.68377 0.98995 0.56274 0.0
O389 O 0.65234 0.96503 0.59196 0.0
O390 O 0.66812 0.01428 0.52808 0.0
O391 O 0.56633 0.0488 0.57392 0.0
O392 O 0.50289 0.04316 0.61815 0.0
O393 O 0.55416 0.93246 0.4929 0.0
C394 C 0.52868 0.05035 0.45267 0.0
C395 C 0.54374 0.03115 0.61113 0.0
Zn396 Zn 0.33477 0.25878 0.77007 0.0
Zn397 Zn 0.23817 0.2841 0.79192 0.0
C398 C 0.27943 0.22752 0.64632 0.0
O399 O 0.23245 0.21813 0.65456 0.0
C400 C 0.25951 0.32909 0.91103 0.0
O401 O 0.2211 0.34892 0.90379 0.0
O402 O 0.40786 0.26149 0.77553 0.0
O403 O 0.34276 0.33851 0.79843 0.0
O404 O 0.27497 0.34055 0.75088 0.0
C405 C 0.42543 0.29386 0.74514 0.0
O406 O 0.39529 0.31414 0.71765 0.0
O407 O 0.31395 0.2399 0.68638 0.0
C408 C 0.13134 0.25678 0.78038 0.0
O409 O 0.13509 0.20724 0.7655 0.0
O410 O 0.17029 0.2962 0.7936 0.0
O411 O 0.22629 0.20207 0.768 0.0
O412 O 0.29705 0.20525 0.81402 0.0
O413 O 0.27299 0.30227 0.87039 0.0
C414 C 0.31988 0.36391 0.77154 0.0
C415 C 0.25061 0.18247 0.80028 0.0
Zn416 Zn 0.0431 0.94924 0.52219 0.0
Zn417 Zn 0.03622 0.05737 0.52394 0.0
C418 C 0.08947 0.97555 0.63633 0.0
O419 O 0.10312 0.93075 0.62295 0.0
C420 C 0.9714 0.03606 0.42712 0.0
O421 O 0.9444 0.05425 0.46248 0.0
O422 O 0.04389 0.87214 0.5217 0.0
O423 O 0.96909 0.94432 0.50288 0.0
O424 O 0.98194 0.01923 0.56362 0.0
C425 C 0.0093 0.85369 0.54837 0.0
O426 O 0.98604 0.88661 0.5737 0.0
O427 O 0.0651 0.9915 0.60063 0.0
C428 C 0.06228 0.17082 0.51988 0.0
O429 O 0.10249 0.1614 0.50111 0.0
O430 O 0.03292 0.13413 0.53785 0.0
O431 O 0.10852 0.05819 0.53224 0.0
O432 O 0.0932 0.97992 0.47509 0.0
O433 O 0.01379 0.0313 0.44384 0.0
C434 C 0.95274 0.97447 0.53812 0.0
C435 C 0.12162 0.02692 0.49488 0.0
Zn436 Zn 0.27876 0.84411 0.79216 0.0
Zn437 Zn 0.29093 0.72819 0.79481 0.0
C438 C 0.18116 0.80252 0.74377 0.0
O439 O 0.20132 0.83434 0.71185 0.0
C440 C 0.38354 0.74761 0.84826 0.0
O441 O 0.35303 0.72021 0.8767 0.0
O442 O 0.26672 0.91946 0.79635 0.0
O443 O 0.31173 0.84404 0.8652 0.0
O444 O 0.26917 0.76013 0.86531 0.0
C445 C 0.27596 0.95371 0.8414 0.0
O446 O 0.30317 0.94579 0.88265 0.0
O447 O 0.2084 0.79683 0.78394 0.0
C448 C 0.30705 0.62489 0.75348 0.0
O449 O 0.32552 0.64977 0.71574 0.0
O450 O 0.28463 0.64852 0.78824 0.0
O451 O 0.26036 0.73689 0.72446 0.0
O452 O 0.31295 0.81579 0.72839 0.0
O453 O 0.36562 0.75972 0.8056 0.0
C454 C 0.29234 0.80794 0.89066 0.0
C455 C 0.29294 0.76701 0.70337 0.0
Zn456 Zn 0.51804 0.02321 0.99858 0.0
Zn457 Zn 0.51821 1.00282 0.10842 0.0
C458 C 0.62049 0.08752 0.02928 0.0
O459 O 0.6047 0.11715 0.99826 0.0
C460 C 0.41727 0.93119 0.0955 0.0
O461 O 0.43755 0.89446 0.10986 0.0
O462 O 0.52489 0.03593 0.92331 0.0
O463 O 0.48999 0.94402 0.98976 0.0
O464 O 0.54141 0.9438 0.06066 0.0
C465 C 0.55923 0.01553 0.90744 0.0
O466 O 0.57934 0.98873 0.93835 0.0
O467 O 0.5898 0.04598 0.03848 0.0
C468 C 0.53938 0.03507 0.22863 0.0
O469 O 0.54852 0.02451 0.27676 0.0
O470 O 0.53589 0.99839 0.18674 0.0
O471 O 0.53212 0.08269 0.10255 0.0
O472 O 0.47598 0.0675 0.03183 0.0
O473 O 0.4443 0.97764 0.09344 0.0
C474 C 0.51452 0.91936 0.01572 0.0
C475 C 0.49872 0.09727 0.0764 0.0
Zn476 Zn 0.29754 0.21492 0.25765 0.0
Zn477 Zn 0.26307 0.33228 0.2953 0.0
C478 C 0.38824 0.22615 0.2295 0.0
O479 O 0.35639 0.18909 0.19208 0.0
C480 C 0.17165 0.31 0.3303 0.0
O481 O 0.19963 0.3488 0.36926 0.0
O482 O 0.30574 0.13853 0.25854 0.0
O483 O 0.25612 0.22909 0.32149 0.0
O484 O 0.29721 0.31171 0.36095 0.0
C485 C 0.32816 0.14139 0.30572 0.0
O486 O 0.33487 0.18559 0.34248 0.0
O487 O 0.37193 0.2511 0.26947 0.0
C488 C 0.23923 0.42644 0.27058 0.0
O489 O 0.2266 0.39478 0.22215 0.0
O490 O 0.26063 0.41041 0.30888 0.0
O491 O 0.28539 0.32149 0.22211 0.0
O492 O 0.2804 0.23663 0.1834 0.0
O493 O 0.19087 0.29242 0.28929 0.0
C494 C 0.27561 0.26361 0.36511 0.0
C495 C 0.28656 0.28651 0.18066 0.0
Zn496 Zn 0.5431 0.44925 0.02219 0.0
Zn497 Zn 0.53621 0.55737 0.02394 0.0
C498 C 0.58947 0.47556 0.13634 0.0
O499 O 0.60313 0.43077 0.12295 0.0
C500 C 0.4714 0.53607 0.92712 0.0
O501 O 0.4444 0.55425 0.96248 0.0
O502 O 0.54389 0.37215 0.02171 0.0
O503 O 0.46909 0.44432 0.00289 0.0
O504 O 0.48193 0.51924 0.06362 0.0
C505 C 0.5093 0.3537 0.04838 0.0
O506 O 0.48604 0.38662 0.0737 0.0
O507 O 0.5651 0.49151 0.10064 0.0
C508 C 0.56228 0.67082 0.01988 0.0
O509 O 0.60248 0.6614 0.00111 0.0
O510 O 0.53291 0.63414 0.03784 0.0
O511 O 0.60852 0.5582 0.03224 0.0
O512 O 0.5932 0.47992 0.9751 0.0
O513 O 0.51379 0.53131 0.94384 0.0
C514 C 0.45273 0.47447 0.03812 0.0
C515 C 0.62162 0.52693 0.99489 0.0
Zn516 Zn 0.77877 0.34411 0.29217 0.0
Zn517 Zn 0.79093 0.22819 0.29482 0.0
C518 C 0.68116 0.30252 0.24378 0.0
O519 O 0.70132 0.33434 0.21185 0.0
C520 C 0.88353 0.24761 0.34827 0.0
O521 O 0.85302 0.22021 0.37671 0.0
O522 O 0.76672 0.41946 0.29635 0.0
O523 O 0.81173 0.34404 0.36521 0.0
O524 O 0.76917 0.26013 0.36532 0.0
C525 C 0.77596 0.4537 0.34141 0.0
O526 O 0.80318 0.44579 0.38266 0.0
O527 O 0.7084 0.29683 0.28395 0.0
C528 C 0.80704 0.12489 0.25349 0.0
O529 O 0.82552 0.14977 0.21574 0.0
O530 O 0.78463 0.14852 0.28825 0.0
O531 O 0.76036 0.23689 0.22447 0.0
O532 O 0.81295 0.31579 0.2284 0.0
O533 O 0.86562 0.25972 0.30561 0.0
C534 C 0.79234 0.30794 0.39067 0.0
C535 C 0.79294 0.26701 0.20338 0.0
Zn536 Zn 0.01804 0.52321 0.49857 0.0
Zn537 Zn 0.01821 0.50282 0.60843 0.0
C538 C 0.12049 0.58752 0.52928 0.0
O539 O 0.1047 0.61715 0.49827 0.0
C540 C 0.91727 0.43119 0.59552 0.0
O541 O 0.93754 0.39445 0.60986 0.0
O542 O 0.02489 0.53594 0.42329 0.0
O543 O 0.99 0.44401 0.48976 0.0
O544 O 0.0414 0.44379 0.56067 0.0
C545 C 0.05924 0.51556 0.40742 0.0
O546 O 0.07936 0.48876 0.43833 0.0
O547 O 0.0898 0.54598 0.53848 0.0
C548 C 0.03939 0.53508 0.72865 0.0
O549 O 0.04854 0.52452 0.77678 0.0
O550 O 0.0359 0.4984 0.68675 0.0
O551 O 0.03211 0.58269 0.60256 0.0
O552 O 0.97598 0.5675 0.53184 0.0
O553 O 0.9443 0.47763 0.59346 0.0
C554 C 0.01452 0.41936 0.51573 0.0
C555 C -0.00128 0.59726 0.57641 0.0
Zn556 Zn 0.83477 0.75879 0.27008 0.0
Zn557 Zn 0.73817 0.7841 0.29192 0.0
C558 C 0.77944 0.72753 0.14633 0.0
O559 O 0.73246 0.71815 0.15457 0.0
C560 C 0.75951 0.82909 0.41103 0.0
O561 O 0.7211 0.84892 0.40379 0.0
O562 O 0.90787 0.7615 0.27555 0.0
O563 O 0.84275 0.83852 0.29844 0.0
O564 O 0.77497 0.84055 0.25089 0.0
C565 C 0.92544 0.79388 0.24516 0.0
O566 O 0.8953 0.81416 0.21767 0.0
O567 O 0.81396 0.73991 0.18639 0.0
C568 C 0.63134 0.75678 0.28036 0.0
O569 O 0.63508 0.70724 0.26544 0.0
O570 O 0.67028 0.79619 0.29361 0.0
O571 O 0.72629 0.70207 0.26801 0.0
O572 O 0.79705 0.70525 0.31402 0.0
O573 O 0.77299 0.80227 0.3704 0.0
C574 C 0.81988 0.86391 0.27154 0.0
C575 C 0.75062 0.68247 0.30029 0.0
Zn576 Zn 0.77608 0.29659 0.8612 0.0
Zn577 Zn 0.79127 0.31228 0.73909 0.0
C578 C 0.70633 0.18204 0.79828 0.0
O579 O 0.69026 0.19672 0.7544 0.0
C580 C 0.87484 0.41431 0.76028 0.0
O581 O 0.89673 0.39368 0.72088 0.0
O582 O 0.7849 0.30545 0.9418 0.0
O583 O 0.84742 0.30965 0.84561 0.0
O584 O 0.83187 0.26379 0.7611 0.0
C585 C 0.80889 0.27248 0.95277 0.0
O586 O 0.81894 0.23852 0.91301 0.0
O587 O 0.73676 0.21646 0.8363 0.0
C588 C 0.74766 0.31959 0.63699 0.0
O589 O 0.73177 0.3563 0.66797 0.0
O590 O 0.77808 0.29736 0.65804 0.0
O591 O 0.72199 0.30721 0.75928 0.0
O592 O 0.73698 0.34756 0.84559 0.0
O593 O 0.83279 0.38786 0.77022 0.0
C594 C 0.85999 0.28048 0.80635 0.0
C595 C 0.71046 0.33592 0.79984 0.0
Zn596 Zn 0.79755 0.71493 0.75765 0.0
Zn597 Zn 0.76307 0.83229 0.79531 0.0
C598 C 0.88824 0.72616 0.72949 0.0
O599 O 0.85639 0.68911 0.69208 0.0
C600 C 0.67166 0.80999 0.8303 0.0
O601 O 0.69963 0.8488 0.86926 0.0
O602 O 0.80575 0.63854 0.75855 0.0
O603 O 0.75613 0.72909 0.8215 0.0
O604 O 0.79722 0.81171 0.86096 0.0
C605 C 0.82818 0.64141 0.80573 0.0
O606 O 0.8349 0.68562 0.84248 0.0
O607 O 0.87194 0.75111 0.76947 0.0
C608 C 0.73923 0.92645 0.77057 0.0
O609 O 0.7266 0.8948 0.72214 0.0
O610 O 0.76063 0.91042 0.80887 0.0
O611 O 0.7854 0.8215 0.72212 0.0
O612 O 0.7804 0.73663 0.68341 0.0
O613 O 0.69088 0.79242 0.78929 0.0
C614 C 0.77561 0.76362 0.86512 0.0
C615 C 0.78657 0.78652 0.68066 0.0
Zn616 Zn 0.6017 0.55499 0.56827 0.0
Zn617 Zn 0.49353 0.56574 0.52177 0.0
C618 C 0.58862 0.45748 0.59997 0.0
O619 O 0.62469 0.49154 0.63528 0.0
C620 C 0.50035 0.64643 0.47133 0.0
O621 O 0.47928 0.60039 0.43736 0.0
O622 O 0.67457 0.5564 0.58271 0.0
O623 O 0.60127 0.5835 0.49813 0.0
O624 O 0.52784 0.53235 0.45723 0.0
C625 C 0.68433 0.52194 0.54547 0.0
O626 O 0.65135 0.49973 0.50207 0.0
O627 O 0.56876 0.47447 0.5614 0.0
C628 C 0.40953 0.59553 0.55486 0.0
O629 O 0.44673 0.62327 0.59254 0.0
O630 O 0.41811 0.56236 0.51487 0.0
O631 O 0.49763 0.53986 0.59333 0.0
O632 O 0.57219 0.58757 0.63439 0.0
O633 O 0.51585 0.6459 0.52032 0.0
C634 C 0.57333 0.55719 0.45463 0.0
C635 C 0.52702 0.56238 0.63683 0.0
Zn636 Zn 0.98224 0.57581 0.05353 0.0
Zn637 Zn 0.09388 0.50955 0.01466 0.0
C638 C 0.03788 0.68312 0.11004 0.0
O639 O 0.04874 0.65894 0.14916 0.0
C640 C 0.05732 0.40345 0.94793 0.0
O641 O 0.09011 0.42277 0.91697 0.0
O642 O 0.90799 0.57421 0.04224 0.0
O643 O -0.00038 0.53202 0.98546 0.0
O644 O 0.07237 0.54287 0.95416 0.0
C645 C 0.89987 0.61074 0.01771 0.0
O646 O 0.93722 0.64203 0.00031 0.0
O647 O 0.01735 0.65485 0.064 0.0
C648 C 0.18377 0.48995 0.06277 0.0
O649 O 0.15233 0.46503 0.09199 0.0
O650 O 0.16812 0.51431 0.02813 0.0
O651 O 0.0663 0.54879 0.07396 0.0
O652 O 0.0028 0.54313 0.11815 0.0
O653 O 0.05416 0.4325 0.99291 0.0
C654 C 0.02869 0.55039 0.95274 0.0
C655 C 0.04358 0.53101 0.11104 0.0
loop_
_geom_bond_atom_site_label_1
_geom_bond_atom_site_label_2
_geom_bond_distance
_geom_bond_site_symmetry_2
_ccdc_geom_bond_type
Mg0 O1 2.028 . S
Mg0 O7 1.986 . S
Mg0 O9 2.114 . S
Mg0 O10 2.251 1_455 S
Mg0 O13 2.010 . S
O1 Mg0 2.028 . S
O1 C4 1.250 . S
O2 Mg3 2.028 1_455 S
O2 C4 1.248 . S
Mg3 O2 2.028 1_655 S
Mg3 O8 2.031 . S
Mg3 O10 2.079 . S
C4 O1 1.250 . S
C4 O2 1.248 . S
C5 O6 1.264 . S
C5 O13 1.249 . S
O6 C5 1.264 . S
O7 Mg0 1.986 . S
O7 C11 1.246 . S
O8 Mg3 2.031 . S
O8 C11 1.261 1_655 S
O9 Mg0 2.114 . S
O9 C12 1.252 1_455 S
O10 Mg0 2.251 1_655 S
O10 Mg3 2.079 . S
O10 C12 1.273 . S
C11 O7 1.246 . S
C11 O8 1.261 1_455 S
C12 O9 1.252 1_655 S
C12 O10 1.273 . S
O13 Mg0 2.010 . S
O13 C5 1.249 . S
Mg14 O15 2.028 . S
Mg14 O21 1.986 . S
Mg14 O23 2.114 1_455 S
Mg14 O24 2.251 1_455 S
Mg14 O27 2.010 . S
O15 Mg14 2.028 . S
O15 C18 1.250 1_455 S
O16 Mg17 2.028 . S
O16 C18 1.248 . S
Mg17 O16 2.028 . S
Mg17 O22 2.032 . S
Mg17 O24 2.079 . S
C18 O15 1.250 1_655 S
C18 O16 1.248 . S
C19 O20 1.264 . S
C19 O27 1.249 . S
O20 C19 1.264 . S
O21 Mg14 1.986 . S
O21 C25 1.246 . S
O22 Mg17 2.032 . S
O22 C25 1.259 1_655 S
O23 Mg14 2.114 1_655 S
O23 C26 1.252 . S
O24 Mg14 2.251 1_655 S
O24 Mg17 2.079 . S
O24 C26 1.273 . S
C25 O21 1.246 . S
C25 O22 1.259 1_455 S
C26 O23 1.252 . S
C26 O24 1.273 . S
O27 Mg14 2.010 . S
O27 C19 1.249 . S
Mg28 O29 2.028 . S
Mg28 O35 1.986 . S
Mg28 O37 2.114 . S
Mg28 O38 2.251 . S
Mg28 O41 2.010 . S
O29 Mg28 2.028 . S
O29 C32 1.250 . S
O30 Mg31 2.028 1_554 S
O30 C32 1.248 1_554 S
Mg31 O30 2.028 1_556 S
Mg31 O36 2.032 1_556 S
Mg31 O38 2.079 . S
C32 O29 1.250 . S
C32 O30 1.248 1_556 S
C33 O34 1.264 . S
C33 O41 1.249 . S
O34 C33 1.264 . S
O35 Mg28 1.986 . S
O35 C39 1.246 1_556 S
O36 Mg31 2.032 1_554 S
O36 C39 1.259 . S
O37 Mg28 2.114 . S
O37 C40 1.252 . S
O38 Mg28 2.251 . S
O38 Mg31 2.079 . S
O38 C40 1.273 . S
C39 O35 1.246 1_554 S
C39 O36 1.259 . S
C40 O37 1.252 . S
C40 O38 1.273 . S
O41 Mg28 2.010 . S
O41 C33 1.249 . S
Mg42 O43 2.028 . S
Mg42 O49 1.986 . S
Mg42 O51 2.114 . S
Mg42 O52 2.251 . S
Mg42 O55 2.010 . S
O43 Mg42 2.028 . S
O43 C46 1.250 . S
O44 Mg45 2.028 . S
O44 C46 1.248 . S
Mg45 O44 2.028 . S
Mg45 O50 2.032 . S
Mg45 O52 2.079 . S
C46 O43 1.250 . S
C46 O44 1.248 . S
C47 O48 1.264 . S
C47 O55 1.249 . S
O48 C47 1.264 . S
O49 Mg42 1.986 . S
O49 C53 1.246 . S
O50 Mg45 2.032 . S
O50 C53 1.259 . S
O51 Mg42 2.114 . S
O51 C54 1.252 . S
O52 Mg42 2.251 . S
O52 Mg45 2.079 . S
O52 C54 1.273 . S
C53 O49 1.246 . S
C53 O50 1.259 . S
C54 O51 1.252 . S
C54 O52 1.273 . S
O55 Mg42 2.010 . S
O55 C47 1.249 . S
Mg56 O57 2.028 . S
Mg56 O63 1.986 . S
Mg56 O65 2.114 . S
Mg56 O66 2.251 1_455 S
Mg56 O69 2.010 . S
O57 Mg56 2.028 . S
O57 C60 1.250 . S
O58 Mg59 2.028 1_455 S
O58 C60 1.248 . S
Mg59 O58 2.028 1_655 S
Mg59 O64 2.032 1_655 S
Mg59 O66 2.079 . S
C60 O57 1.250 . S
C60 O58 1.248 . S
C61 O62 1.264 . S
C61 O69 1.249 . S
O62 C61 1.264 . S
O63 Mg56 1.986 . S
O63 C67 1.246 . S
O64 Mg59 2.032 1_455 S
O64 C67 1.259 . S
O65 Mg56 2.114 . S
O65 C68 1.252 1_455 S
O66 Mg56 2.251 1_655 S
O66 Mg59 2.079 . S
O66 C68 1.273 . S
C67 O63 1.246 . S
C67 O64 1.259 . S
C68 O65 1.252 1_655 S
C68 O66 1.273 . S
O69 Mg56 2.010 . S
O69 C61 1.249 . S
Mg70 O71 2.028 . S
Mg70 O77 1.986 . S
Mg70 O79 2.114 . S
Mg70 O80 2.251 . S
Mg70 O83 2.010 . S
O71 Mg70 2.028 . S
O71 C74 1.250 . S
O72 Mg73 2.028 . S
O72 C74 1.248 . S
Mg73 O72 2.028 . S
Mg73 O78 2.032 . S
Mg73 O80 2.079 . S
C74 O71 1.250 . S
C74 O72 1.248 . S
C75 O76 1.264 . S
C75 O83 1.249 . S
O76 C75 1.264 . S
O77 Mg70 1.986 . S
O77 C81 1.246 . S
O78 Mg73 2.032 . S
O78 C81 1.259 . S
O79 Mg70 2.114 . S
O79 C82 1.252 . S
O80 Mg70 2.251 . S
O80 Mg73 2.079 . S
O80 C82 1.273 . S
C81 O77 1.246 . S
C81 O78 1.259 . S
C82 O79 1.252 . S
C82 O80 1.273 . S
O83 Mg70 2.010 . S
O83 C75 1.249 . S
Mg84 O85 2.028 . S
Mg84 O91 1.986 . S
Mg84 O93 2.114 . S
Mg84 O94 2.251 . S
Mg84 O97 2.010 . S
O85 Mg84 2.028 . S
O85 C88 1.250 . S
O86 Mg87 2.028 . S
O86 C88 1.248 . S
Mg87 O86 2.028 . S
Mg87 O92 2.032 . S
Mg87 O94 2.079 . S
C88 O85 1.250 . S
C88 O86 1.248 . S
C89 O90 1.264 . S
C89 O97 1.249 . S
O90 C89 1.264 . S
O91 Mg84 1.986 . S
O91 C95 1.246 . S
O92 Mg87 2.032 . S
O92 C95 1.259 . S
O93 Mg84 2.114 . S
O93 C96 1.252 . S
O94 Mg84 2.251 . S
O94 Mg87 2.079 . S
O94 C96 1.273 . S
C95 O91 1.246 . S
C95 O92 1.259 . S
C96 O93 1.252 . S
C96 O94 1.273 . S
O97 Mg84 2.010 . S
O97 C89 1.249 . S
Mg98 O99 2.028 1_655 S
Mg98 O105 1.986 1_655 S
Mg98 O107 2.114 . S
Mg98 O108 2.251 . S
Mg98 O111 2.010 1_655 S
O99 Mg98 2.028 1_455 S
O99 C102 1.250 . S
O100 Mg101 2.028 . S
O100 C102 1.248 1_655 S
Mg101 O100 2.028 . S
Mg101 O106 2.032 . S
Mg101 O108 2.079 . S
C102 O99 1.250 . S
C102 O100 1.248 1_455 S
C103 O104 1.264 . S
C103 O111 1.249 . S
O104 C103 1.264 . S
O105 Mg98 1.986 1_455 S
O105 C109 1.246 1_455 S
O106 Mg101 2.032 . S
O106 C109 1.259 . S
O107 Mg98 2.114 . S
O107 C110 1.252 . S
O108 Mg98 2.251 . S
O108 Mg101 2.079 . S
O108 C110 1.273 . S
C109 O105 1.246 1_655 S
C109 O106 1.259 . S
C110 O107 1.252 . S
C110 O108 1.273 . S
O111 Mg98 2.010 1_455 S
O111 C103 1.249 . S
Mg112 O113 2.028 1_545 S
Mg112 O119 1.986 . S
Mg112 O121 2.114 . S
Mg112 O122 2.251 . S
Mg112 O125 2.010 . S
O113 Mg112 2.028 1_565 S
O113 C116 1.250 . S
O114 Mg115 2.028 1_565 S
O114 C116 1.248 . S
Mg115 O114 2.028 1_545 S
Mg115 O120 2.032 . S
Mg115 O122 2.079 . S
C116 O113 1.250 . S
C116 O114 1.248 . S
C117 O118 1.264 . S
C117 O125 1.249 . S
O118 C117 1.264 . S
O119 Mg112 1.986 . S
O119 C123 1.246 . S
O120 Mg115 2.032 . S
O120 C123 1.259 . S
O121 Mg112 2.114 . S
O121 C124 1.252 . S
O122 Mg112 2.251 . S
O122 Mg115 2.079 . S
O122 C124 1.273 . S
C123 O119 1.246 . S
C123 O120 1.259 . S
C124 O121 1.252 . S
C124 O122 1.273 . S
O125 Mg112 2.010 . S
O125 C117 1.249 . S
Mg126 O127 2.028 . S
Mg126 O133 1.986 . S
Mg126 O135 2.114 . S
Mg126 O136 2.251 . S
Mg126 O139 2.010 . S
O127 Mg126 2.028 . S
O127 C130 1.250 . S
O128 Mg129 2.028 . S
O128 C130 1.248 . S
Mg129 O128 2.028 . S
Mg129 O134 2.032 . S
Mg129 O136 2.079 . S
C130 O127 1.250 . S
C130 O128 1.248 . S
C131 O132 1.264 . S
C131 O139 1.249 . S
O132 C131 1.264 . S
O133 Mg126 1.986 . S
O133 C137 1.246 . S
O134 Mg129 2.032 . S
O134 C137 1.259 . S
O135 Mg126 2.114 . S
O135 C138 1.252 . S
O136 Mg126 2.251 . S
O136 Mg129 2.079 . S
O136 C138 1.273 . S
C137 O133 1.246 . S
C137 O134 1.259 . S
C138 O135 1.252 . S
C138 O136 1.273 . S
O139 Mg126 2.010 . S
O139 C131 1.249 . S
Mg140 O141 2.028 . S
Mg140 O147 1.986 1_545 S
Mg140 O149 2.114 . S
Mg140 O150 2.251 . S
Mg140 O153 2.010 . S
O141 Mg140 2.028 . S
O141 C144 1.250 . S
O142 Mg143 2.028 . S
O142 C144 1.248 . S
Mg143 O142 2.028 . S
Mg143 O148 2.032 . S
Mg143 O150 2.079 . S
C144 O141 1.250 . S
C144 O142 1.248 . S
C145 O146 1.264 1_545 S
C145 O153 1.249 . S
O146 C145 1.264 1_565 S
O147 Mg140 1.986 1_565 S
O147 C151 1.246 . S
O148 Mg143 2.032 . S
O148 C151 1.259 1_545 S
O149 Mg140 2.114 . S
O149 C152 1.252 . S
O150 Mg140 2.251 . S
O150 Mg143 2.079 . S
O150 C152 1.273 . S
C151 O147 1.246 . S
C151 O148 1.259 1_565 S
C152 O149 1.252 . S
C152 O150 1.273 . S
O153 Mg140 2.010 . S
O153 C145 1.249 . S
Mg154 O155 2.028 1_554 S
Mg154 O161 1.986 . S
Mg154 O163 2.114 . S
Mg154 O164 2.251 . S
Mg154 O167 2.010 . S
O155 Mg154 2.028 1_556 S
O155 C158 1.250 . S
O156 Mg157 2.028 1_556 S
O156 C158 1.248 . S
Mg157 O156 2.028 1_554 S
Mg157 O162 2.032 . S
Mg157 O164 2.079 . S
C158 O155 1.250 . S
C158 O156 1.248 . S
C159 O160 1.264 . S
C159 O167 1.249 . S
O160 C159 1.264 . S
O161 Mg154 1.986 . S
O161 C165 1.246 . S
O162 Mg157 2.032 . S
O162 C165 1.259 . S
O163 Mg154 2.114 . S
O163 C166 1.252 . S
O164 Mg154 2.251 . S
O164 Mg157 2.079 . S
O164 C166 1.273 . S
C165 O161 1.246 . S
C165 O162 1.259 . S
C166 O163 1.252 . S
C166 O164 1.273 . S
O167 Mg154 2.010 . S
O167 C159 1.249 . S
Mg168 O169 2.028 . S
Mg168 O175 1.986 . S
Mg168 O177 2.114 . S
Mg168 O178 2.251 . S
Mg168 O181 2.010 . S
O169 Mg168 2.028 . S
O169 C172 1.255 . S
O170 Mg171 2.028 . S
O170 C172 1.251 . S
Mg171 O170 2.028 . S
Mg171 O176 2.032 . S
Mg171 O178 2.079 . S
C172 O169 1.255 . S
C172 O170 1.251 . S
C173 O174 1.264 . S
C173 O181 1.249 . S
O174 C173 1.264 . S
O175 Mg168 1.986 . S
O175 C179 1.246 . S
O176 Mg171 2.032 . S
O176 C179 1.259 . S
O177 Mg168 2.114 . S
O177 C180 1.252 . S
O178 Mg168 2.251 . S
O178 Mg171 2.079 . S
O178 C180 1.273 . S
C179 O175 1.246 . S
C179 O176 1.259 . S
C180 O177 1.252 . S
C180 O178 1.273 . S
O181 Mg168 2.010 . S
O181 C173 1.249 . S
Mg182 O183 2.028 . S
Mg182 O189 1.986 . S
Mg182 O191 2.114 . S
Mg182 O192 2.251 . S
Mg182 O195 2.010 . S
O183 Mg182 2.028 . S
O183 C186 1.250 . S
O184 Mg185 2.028 . S
O184 C186 1.248 . S
Mg185 O184 2.028 . S
Mg185 O190 2.032 . S
Mg185 O192 2.079 . S
C186 O183 1.250 . S
C186 O184 1.248 . S
C187 O188 1.264 . S
C187 O195 1.249 . S
O188 C187 1.264 . S
O189 Mg182 1.986 . S
O189 C193 1.246 1_554 S
O190 Mg185 2.032 . S
O190 C193 1.259 1_554 S
O191 Mg182 2.114 . S
O191 C194 1.252 . S
O192 Mg182 2.251 . S
O192 Mg185 2.079 . S
O192 C194 1.273 . S
C193 O189 1.246 1_556 S
C193 O190 1.259 1_556 S
C194 O191 1.252 . S
C194 O192 1.273 . S
O195 Mg182 2.010 . S
O195 C187 1.249 . S
Mg196 O197 2.028 . S
Mg196 O203 1.986 . S
Mg196 O205 2.114 . S
Mg196 O206 2.251 . S
Mg196 O209 2.010 . S
O197 Mg196 2.028 . S
O197 C200 1.250 . S
O198 Mg199 2.028 . S
O198 C200 1.248 . S
Mg199 O198 2.028 . S
Mg199 O204 2.032 . S
Mg199 O206 2.079 . S
C200 O197 1.250 . S
C200 O198 1.248 . S
C201 O202 1.264 . S
C201 O209 1.249 . S
O202 C201 1.264 . S
O203 Mg196 1.986 . S
O203 C207 1.246 . S
O204 Mg199 2.032 . S
O204 C207 1.259 . S
O205 Mg196 2.114 . S
O205 C208 1.252 . S
O206 Mg196 2.251 . S
O206 Mg199 2.079 . S
O206 C208 1.273 . S
C207 O203 1.246 . S
C207 O204 1.259 . S
C208 O205 1.252 . S
C208 O206 1.273 . S
O209 Mg196 2.010 . S
O209 C201 1.249 . S
Mg210 O211 2.028 . S
Mg210 O217 1.986 . S
Mg210 O219 2.114 . S
Mg210 O220 2.251 . S
Mg210 O223 2.010 . S
O211 Mg210 2.028 . S
O211 C214 1.250 . S
O212 Mg213 2.028 . S
O212 C214 1.248 . S
Mg213 O212 2.028 . S
Mg213 O218 2.032 . S
Mg213 O220 2.079 . S
C214 O211 1.250 . S
C214 O212 1.248 . S
C215 O216 1.264 1_565 S
C215 O223 1.249 . S
O216 C215 1.264 1_545 S
O217 Mg210 1.986 . S
O217 C221 1.246 . S
O218 Mg213 2.032 . S
O218 C221 1.259 . S
O219 Mg210 2.114 . S
O219 C222 1.252 . S
O220 Mg210 2.251 . S
O220 Mg213 2.079 . S
O220 C222 1.273 . S
C221 O217 1.246 . S
C221 O218 1.259 . S
C222 O219 1.252 . S
C222 O220 1.273 . S
O223 Mg210 2.010 . S
O223 C215 1.249 . S
Mg224 O225 2.028 1_545 S
Mg224 O231 1.986 . S
Mg224 O233 2.117 . S
Mg224 O234 2.251 . S
Mg224 O237 2.010 . S
O225 Mg224 2.028 1_565 S
O225 C228 1.250 . S
O226 Mg227 2.028 1_565 S
O226 C228 1.248 . S
Mg227 O226 2.028 1_545 S
Mg227 O232 2.032 . S
Mg227 O234 2.079 . S
C228 O225 1.250 . S
C228 O226 1.248 . S
C229 O230 1.264 1_655 S
C229 O237 1.249 . S
O230 C229 1.264 1_455 S
O231 Mg224 1.986 . S
O231 C235 1.246 . S
O232 Mg227 2.032 . S
O232 C235 1.259 . S
O233 Mg224 2.117 . S
O233 C236 1.253 . S
O234 Mg224 2.251 . S
O234 Mg227 2.079 . S
O234 C236 1.273 . S
C235 O231 1.246 . S
C235 O232 1.259 . S
C236 O233 1.253 . S
C236 O234 1.273 . S
O237 Mg224 2.010 . S
O237 C229 1.249 . S
Mg238 O239 2.028 . S
Mg238 O245 1.986 . S
Mg238 O247 2.114 . S
Mg238 O248 2.251 . S
Mg238 O251 2.010 . S
O239 Mg238 2.028 . S
O239 C242 1.250 . S
O240 Mg241 2.028 . S
O240 C242 1.248 . S
Mg241 O240 2.028 . S
Mg241 O246 2.032 . S
Mg241 O248 2.079 . S
C242 O239 1.250 . S
C242 O240 1.248 . S
C243 O244 1.264 . S
C243 O251 1.249 . S
O244 C243 1.264 . S
O245 Mg238 1.986 . S
O245 C249 1.246 . S
O246 Mg241 2.032 . S
O246 C249 1.259 . S
O247 Mg238 2.114 . S
O247 C250 1.252 . S
O248 Mg238 2.251 . S
O248 Mg241 2.079 . S
O248 C250 1.273 . S
C249 O245 1.246 . S
C249 O246 1.259 . S
C250 O247 1.252 . S
C250 O248 1.273 . S
O251 Mg238 2.010 . S
O251 C243 1.249 . S
Mg252 O253 2.028 . S
Mg252 O259 1.986 . S
Mg252 O261 2.114 . S
Mg252 O262 2.251 . S
Mg252 O265 2.010 . S
O253 Mg252 2.028 . S
O253 C256 1.250 . S
O254 Mg255 2.028 . S
O254 C256 1.248 . S
Mg255 O254 2.028 . S
Mg255 O260 2.032 . S
Mg255 O262 2.079 . S
C256 O253 1.250 . S
C256 O254 1.248 . S
C257 O258 1.264 . S
C257 O265 1.249 . S
O258 C257 1.264 . S
O259 Mg252 1.986 . S
O259 C263 1.246 . S
O260 Mg255 2.032 . S
O260 C263 1.259 . S
O261 Mg252 2.114 . S
O261 C264 1.252 . S
O262 Mg252 2.251 . S
O262 Mg255 2.079 . S
O262 C264 1.273 . S
C263 O259 1.246 . S
C263 O260 1.259 . S
C264 O261 1.252 . S
C264 O262 1.273 . S
O265 Mg252 2.010 . S
O265 C257 1.249 . S
Mg266 O267 2.028 1_565 S
Mg266 O273 1.986 . S
Mg266 O275 2.114 1_565 S
Mg266 O276 2.251 1_565 S
Mg266 O279 2.010 . S
O267 Mg266 2.028 1_545 S
O267 C270 1.250 . S
O268 Mg269 2.028 . S
O268 C270 1.248 . S
Mg269 O268 2.028 . S
Mg269 O274 2.032 1_545 S
Mg269 O276 2.079 . S
C270 O267 1.250 . S
C270 O268 1.248 . S
C271 O272 1.264 . S
C271 O279 1.249 . S
O272 C271 1.264 . S
O273 Mg266 1.986 . S
O273 C277 1.246 . S
O274 Mg269 2.032 1_565 S
O274 C277 1.259 . S
O275 Mg266 2.114 1_545 S
O275 C278 1.252 . S
O276 Mg266 2.251 1_545 S
O276 Mg269 2.079 . S
O276 C278 1.273 . S
C277 O273 1.246 . S
C277 O274 1.259 . S
C278 O275 1.252 . S
C278 O276 1.273 . S
O279 Mg266 2.010 . S
O279 C271 1.249 . S
Mg280 O281 2.028 1_556 S
Mg280 O287 1.986 . S
Mg280 O289 2.114 1_556 S
Mg280 O290 2.251 . S
Mg280 O293 2.010 . S
O281 Mg280 2.028 1_554 S
O281 C284 1.250 . S
O282 Mg283 2.028 . S
O282 C284 1.248 . S
Mg283 O282 2.028 . S
Mg283 O288 2.032 1_554 S
Mg283 O290 2.079 1_554 S
C284 O281 1.250 . S
C284 O282 1.248 . S
C285 O286 1.264 . S
C285 O293 1.249 . S
O286 C285 1.264 . S
O287 Mg280 1.986 . S
O287 C291 1.246 . S
O288 Mg283 2.032 1_556 S
O288 C291 1.259 . S
O289 Mg280 2.114 1_554 S
O289 C292 1.252 . S
O290 Mg280 2.251 . S
O290 Mg283 2.079 1_556 S
O290 C292 1.273 1_556 S
C291 O287 1.246 . S
C291 O288 1.259 . S
C292 O289 1.252 . S
C292 O290 1.273 1_554 S
O293 Mg280 2.010 . S
O293 C285 1.249 . S
Mg294 O295 2.028 . S
Mg294 O301 1.986 . S
Mg294 O303 2.114 1_655 S
Mg294 O304 2.251 . S
Mg294 O307 2.010 . S
O295 Mg294 2.028 . S
O295 C298 1.250 . S
O296 Mg297 2.028 . S
O296 C298 1.248 . S
Mg297 O296 2.028 . S
Mg297 O302 2.032 . S
Mg297 O304 2.079 . S
C298 O295 1.250 . S
C298 O296 1.248 . S
C299 O300 1.264 . S
C299 O307 1.249 1_455 S
O300 C299 1.264 . S
O301 Mg294 1.986 . S
O301 C305 1.246 . S
O302 Mg297 2.032 . S
O302 C305 1.259 . S
O303 Mg294 2.114 1_455 S
O303 C306 1.252 1_455 S
O304 Mg294 2.251 . S
O304 Mg297 2.079 . S
O304 C306 1.273 . S
C305 O301 1.246 . S
C305 O302 1.259 . S
C306 O303 1.252 1_655 S
C306 O304 1.273 . S
O307 Mg294 2.010 . S
O307 C299 1.249 1_655 S
Mg308 O309 2.028 . S
Mg308 O315 1.986 . S
Mg308 O317 2.114 . S
Mg308 O318 2.251 . S
Mg308 O321 2.010 . S
O309 Mg308 2.028 . S
O309 C312 1.250 . S
O310 Mg311 2.028 . S
O310 C312 1.248 . S
Mg311 O310 2.028 . S
Mg311 O316 2.032 . S
Mg311 O318 2.079 . S
C312 O309 1.250 . S
C312 O310 1.248 . S
C313 O314 1.264 . S
C313 O321 1.249 . S
O314 C313 1.264 . S
O315 Mg308 1.986 . S
O315 C319 1.246 . S
O316 Mg311 2.032 . S
O316 C319 1.259 . S
O317 Mg308 2.114 . S
O317 C320 1.252 . S
O318 Mg308 2.251 . S
O318 Mg311 2.079 . S
O318 C320 1.273 . S
C319 O315 1.246 . S
C319 O316 1.259 . S
C320 O317 1.252 . S
C320 O318 1.273 . S
O321 Mg308 2.010 . S
O321 C313 1.249 . S
Mg322 O323 2.028 . S
Mg322 O329 1.986 . S
Mg322 O331 2.114 . S
Mg322 O332 2.251 . S
Mg322 O335 2.010 . S
O323 Mg322 2.028 . S
O323 C326 1.250 . S
O324 Mg325 2.028 . S
O324 C326 1.248 . S
Mg325 O324 2.028 . S
Mg325 O330 2.032 . S
Mg325 O332 2.079 . S
C326 O323 1.250 . S
C326 O324 1.248 . S
C327 O328 1.264 . S
C327 O335 1.249 . S
O328 C327 1.264 . S
O329 Mg322 1.986 . S
O329 C333 1.246 . S
O330 Mg325 2.032 . S
O330 C333 1.259 . S
O331 Mg322 2.114 . S
O331 C334 1.252 . S
O332 Mg322 2.251 . S
O332 Mg325 2.079 . S
O332 C334 1.273 . S
C333 O329 1.246 . S
C333 O330 1.259 . S
C334 O331 1.252 . S
C334 O332 1.273 . S
O335 Mg322 2.010 . S
O335 C327 1.249 . S
Zn336 O342 1.969 . S
Zn336 O343 1.966 1_565 S
Zn336 O347 2.024 . S
Zn336 O352 1.969 1_565 S
Zn337 O344 1.969 1_654 S
Zn337 O350 1.969 1_554 S
Zn337 O351 1.965 . S
Zn337 O353 2.024 1_655 S
C338 O339 1.229 . S
C338 O347 1.058 . S
O339 C338 1.229 . S
C340 O341 1.229 1_454 S
C340 O353 1.058 . S
O341 C340 1.229 1_656 S
O342 Zn336 1.969 . S
O342 C345 1.267 . S
O343 Zn336 1.966 1_545 S
O343 C354 1.258 1_554 S
O344 Zn337 1.969 1_456 S
O344 C354 1.258 . S
C345 O342 1.267 . S
C345 O346 1.228 . S
O346 C345 1.228 . S
O347 Zn336 2.024 . S
O347 C338 1.058 . S
C348 O349 1.228 1_556 S
C348 O350 1.267 . S
O349 C348 1.228 1_554 S
O350 Zn337 1.969 1_556 S
O350 C348 1.267 . S
O351 Zn337 1.965 . S
O351 C355 1.260 1_655 S
O352 Zn336 1.969 1_545 S
O352 C355 1.258 . S
O353 Zn337 2.024 1_455 S
O353 C340 1.058 . S
C354 O343 1.258 1_556 S
C354 O344 1.258 . S
C355 O351 1.260 1_455 S
C355 O352 1.258 . S
Zn356 O362 1.969 . S
Zn356 O363 1.965 . S
Zn356 O367 2.024 . S
Zn356 O372 1.969 . S
Zn357 O364 1.969 . S
Zn357 O370 1.969 . S
Zn357 O371 1.965 . S
Zn357 O373 2.024 . S
C358 O359 1.229 . S
C358 O367 1.058 . S
O359 C358 1.229 . S
C360 O361 1.229 . S
C360 O373 1.058 . S
O361 C360 1.229 . S
O362 Zn356 1.969 . S
O362 C365 1.267 . S
O363 Zn356 1.965 . S
O363 C374 1.260 . S
O364 Zn357 1.969 . S
O364 C374 1.258 . S
C365 O362 1.267 . S
C365 O366 1.228 . S
O366 C365 1.228 . S
O367 Zn356 2.024 . S
O367 C358 1.058 . S
C368 O369 1.228 . S
C368 O370 1.267 . S
O369 C368 1.228 . S
O370 Zn357 1.969 . S
O370 C368 1.267 . S
O371 Zn357 1.965 . S
O371 C375 1.260 . S
O372 Zn356 1.969 . S
O372 C375 1.258 . S
O373 Zn357 2.024 . S
O373 C360 1.058 . S
C374 O363 1.260 . S
C374 O364 1.258 . S
C375 O371 1.260 . S
C375 O372 1.258 . S
Zn376 O382 1.969 . S
Zn376 O383 1.965 . S
Zn376 O387 2.024 . S
Zn376 O392 1.969 . S
Zn377 O384 1.969 1_565 S
Zn377 O390 1.969 . S
Zn377 O391 1.965 1_565 S
Zn377 O393 2.024 . S
C378 O379 1.229 . S
C378 O387 1.058 . S
O379 C378 1.229 . S
C380 O381 1.229 . S
C380 O393 1.058 . S
O381 C380 1.229 . S
O382 Zn376 1.969 . S
O382 C385 1.267 . S
O383 Zn376 1.965 . S
O383 C394 1.260 . S
O384 Zn377 1.969 1_545 S
O384 C394 1.258 . S
C385 O382 1.267 . S
C385 O386 1.228 . S
O386 C385 1.228 . S
O387 Zn376 2.024 . S
O387 C378 1.058 . S
C388 O389 1.228 . S
C388 O390 1.267 . S
O389 C388 1.228 . S
O390 Zn377 1.969 . S
O390 C388 1.267 . S
O391 Zn377 1.965 1_545 S
O391 C395 1.260 . S
O392 Zn376 1.969 . S
O392 C395 1.258 . S
O393 Zn377 2.024 . S
O393 C380 1.058 . S
C394 O383 1.260 . S
C394 O384 1.258 . S
C395 O391 1.260 . S
C395 O392 1.258 . S
Zn396 O402 1.969 . S
Zn396 O403 1.965 . S
Zn396 O407 2.024 . S
Zn396 O412 1.969 . S
Zn397 O404 1.969 . S
Zn397 O410 1.969 . S
Zn397 O411 1.965 . S
Zn397 O413 2.024 . S
C398 O399 1.229 . S
C398 O407 1.058 . S
O399 C398 1.229 . S
C400 O401 1.229 . S
C400 O413 1.058 . S
O401 C400 1.229 . S
O402 Zn396 1.969 . S
O402 C405 1.267 . S
O403 Zn396 1.965 . S
O403 C414 1.260 . S
O404 Zn397 1.969 . S
O404 C414 1.258 . S
C405 O402 1.267 . S
C405 O406 1.228 . S
O406 C405 1.228 . S
O407 Zn396 2.024 . S
O407 C398 1.058 . S
C408 O409 1.228 . S
C408 O410 1.267 . S
O409 C408 1.228 . S
O410 Zn397 1.969 . S
O410 C408 1.267 . S
O411 Zn397 1.965 . S
O411 C415 1.260 . S
O412 Zn396 1.969 . S
O412 C415 1.258 . S
O413 Zn397 2.024 . S
O413 C400 1.058 . S
C414 O403 1.260 . S
C414 O404 1.258 . S
C415 O411 1.260 . S
C415 O412 1.258 . S
Zn416 O422 1.969 . S
Zn416 O423 1.965 1_455 S
Zn416 O427 2.024 1_565 S
Zn416 O432 1.969 1_565 S
Zn417 O424 1.969 1_455 S
Zn417 O430 1.969 1_455 S
Zn417 O431 1.965 . S
Zn417 O433 2.023 1_455 S
C418 O419 1.229 1_545 S
C418 O427 1.058 . S
O419 C418 1.229 1_565 S
C420 O421 1.229 . S
C420 O433 1.057 . S
O421 C420 1.229 . S
O422 Zn416 1.969 . S
O422 C425 1.267 . S
O423 Zn416 1.965 1_655 S
O423 C434 1.260 . S
O424 Zn417 1.969 1_655 S
O424 C434 1.258 1_545 S
C425 O422 1.267 . S
C425 O426 1.228 . S
O426 C425 1.228 . S
O427 Zn416 2.024 1_545 S
O427 C418 1.058 . S
C428 O429 1.228 . S
C428 O430 1.267 1_455 S
O429 C428 1.228 . S
O430 Zn417 1.969 1_655 S
O430 C428 1.267 1_655 S
O431 Zn417 1.965 . S
O431 C435 1.260 . S
O432 Zn416 1.969 1_545 S
O432 C435 1.258 . S
O433 Zn417 2.023 1_655 S
O433 C420 1.057 . S
C434 O423 1.260 . S
C434 O424 1.258 1_565 S
C435 O431 1.260 . S
C435 O432 1.258 . S
Zn436 O442 1.969 . S
Zn436 O443 1.965 . S
Zn436 O447 2.024 . S
Zn436 O452 1.969 . S
Zn437 O444 1.969 . S
Zn437 O450 1.969 . S
Zn437 O451 1.965 . S
Zn437 O453 2.024 . S
C438 O439 1.229 . S
C438 O447 1.058 . S
O439 C438 1.229 . S
C440 O441 1.229 . S
C440 O453 1.058 . S
O441 C440 1.229 . S
O442 Zn436 1.969 . S
O442 C445 1.267 . S
O443 Zn436 1.965 . S
O443 C454 1.260 . S
O444 Zn437 1.969 . S
O444 C454 1.258 . S
C445 O442 1.267 . S
C445 O446 1.228 . S
O446 C445 1.228 . S
O447 Zn436 2.024 . S
O447 C438 1.058 . S
C448 O449 1.228 . S
C448 O450 1.267 . S
O449 C448 1.228 . S
O450 Zn437 1.969 . S
O450 C448 1.267 . S
O451 Zn437 1.965 . S
O451 C455 1.260 . S
O452 Zn436 1.969 . S
O452 C455 1.258 . S
O453 Zn437 2.024 . S
O453 C440 1.058 . S
C454 O443 1.260 . S
C454 O444 1.258 . S
C455 O451 1.260 . S
C455 O452 1.258 . S
Zn456 O462 1.969 . S
Zn456 O463 1.965 1_545 S
Zn456 O467 2.024 1_556 S
Zn456 O472 1.969 1_556 S
Zn457 O464 1.969 . S
Zn457 O470 1.969 . S
Zn457 O471 1.965 1_565 S
Zn457 O473 2.024 . S
C458 O459 1.229 . S
C458 O467 1.058 . S
O459 C458 1.229 . S
C460 O461 1.229 . S
C460 O473 1.058 . S
O461 C460 1.229 . S
O462 Zn456 1.969 . S
O462 C465 1.267 . S
O463 Zn456 1.965 1_565 S
O463 C474 1.260 1_556 S
O464 Zn457 1.969 . S
O464 C474 1.258 . S
C465 O462 1.267 . S
C465 O466 1.228 . S
O466 C465 1.228 . S
O467 Zn456 2.024 1_554 S
O467 C458 1.058 . S
C468 O469 1.228 . S
C468 O470 1.267 1_545 S
O469 C468 1.228 . S
O470 Zn457 1.969 . S
O470 C468 1.267 1_565 S
O471 Zn457 1.965 1_545 S
O471 C475 1.260 . S
O472 Zn456 1.969 1_554 S
O472 C475 1.258 . S
O473 Zn457 2.024 . S
O473 C460 1.058 . S
C474 O463 1.260 1_554 S
C474 O464 1.258 . S
C475 O471 1.260 . S
C475 O472 1.258 . S
Zn476 O482 1.969 . S
Zn476 O483 1.965 . S
Zn476 O487 2.024 . S
Zn476 O492 1.969 . S
Zn477 O484 1.969 . S
Zn477 O490 1.969 . S
Zn477 O491 1.965 . S
Zn477 O493 2.024 . S
C478 O479 1.229 . S
C478 O487 1.058 . S
O479 C478 1.229 . S
C480 O481 1.229 . S
C480 O493 1.058 . S
O481 C480 1.229 . S
O482 Zn476 1.969 . S
O482 C485 1.267 . S
O483 Zn476 1.965 . S
O483 C494 1.260 . S
O484 Zn477 1.969 . S
O484 C494 1.258 . S
C485 O482 1.267 . S
C485 O486 1.228 . S
O486 C485 1.228 . S
O487 Zn476 2.024 . S
O487 C478 1.058 . S
C488 O489 1.228 . S
C488 O490 1.267 . S
O489 C488 1.228 . S
O490 Zn477 1.969 . S
O490 C488 1.267 . S
O491 Zn477 1.965 . S
O491 C495 1.260 . S
O492 Zn476 1.969 . S
O492 C495 1.258 . S
O493 Zn477 2.024 . S
O493 C480 1.058 . S
C494 O483 1.260 . S
C494 O484 1.258 . S
C495 O491 1.260 . S
C495 O492 1.258 . S
Zn496 O502 1.969 . S
Zn496 O503 1.965 . S
Zn496 O507 2.024 . S
Zn496 O512 1.969 . S
Zn497 O504 1.969 1_556 S
Zn497 O510 1.969 1_556 S
Zn497 O511 1.965 1_556 S
Zn497 O513 2.024 . S
C498 O499 1.229 . S
C498 O507 1.058 . S
O499 C498 1.229 . S
C500 O501 1.229 . S
C500 O513 1.058 . S
O501 C500 1.229 . S
O502 Zn496 1.969 . S
O502 C505 1.267 . S
O503 Zn496 1.965 . S
O503 C514 1.260 . S
O504 Zn497 1.969 1_554 S
O504 C514 1.258 . S
C505 O502 1.267 . S
C505 O506 1.228 . S
O506 C505 1.228 . S
O507 Zn496 2.024 . S
O507 C498 1.058 . S
C508 O509 1.228 . S
C508 O510 1.267 1_556 S
O509 C508 1.228 . S
O510 Zn497 1.969 1_554 S
O510 C508 1.267 1_554 S
O511 Zn497 1.965 1_554 S
O511 C515 1.260 . S
O512 Zn496 1.969 . S
O512 C515 1.258 . S
O513 Zn497 2.024 . S
O513 C500 1.058 . S
C514 O503 1.260 . S
C514 O504 1.258 . S
C515 O511 1.260 . S
C515 O512 1.258 . S
Zn516 O522 1.969 . S
Zn516 O523 1.965 . S
Zn516 O527 2.024 . S
Zn516 O532 1.969 . S
Zn517 O524 1.969 . S
Zn517 O530 1.969 . S
Zn517 O531 1.965 . S
Zn517 O533 2.024 . S
C518 O519 1.229 . S
C518 O527 1.058 . S
O519 C518 1.229 . S
C520 O521 1.229 . S
C520 O533 1.058 . S
O521 C520 1.229 . S
O522 Zn516 1.969 . S
O522 C525 1.267 . S
O523 Zn516 1.965 . S
O523 C534 1.260 . S
O524 Zn517 1.969 . S
O524 C534 1.258 . S
C525 O522 1.267 . S
C525 O526 1.228 . S
O526 C525 1.228 . S
O527 Zn516 2.024 . S
O527 C518 1.058 . S
C528 O529 1.228 . S
C528 O530 1.267 . S
O529 C528 1.228 . S
O530 Zn517 1.969 . S
O530 C528 1.267 . S
O531 Zn517 1.965 . S
O531 C535 1.260 . S
O532 Zn516 1.969 . S
O532 C535 1.258 . S
O533 Zn517 2.024 . S
O533 C520 1.058 . S
C534 O523 1.260 . S
C534 O524 1.258 . S
C535 O531 1.260 . S
C535 O532 1.258 . S
Zn536 O542 1.969 . S
Zn536 O543 1.965 . S
Zn536 O547 2.024 . S
Zn536 O552 1.969 . S
Zn537 O544 1.969 1_655 S
Zn537 O550 1.969 . S
Zn537 O551 1.965 1_655 S
Zn537 O553 2.024 . S
C538 O539 1.229 . S
C538 O547 1.058 . S
O539 C538 1.229 . S
C540 O541 1.229 . S
C540 O553 1.058 . S
O541 C540 1.229 . S
O542 Zn536 1.969 . S
O542 C545 1.267 . S
O543 Zn536 1.965 . S
O543 C554 1.260 . S
O544 Zn537 1.969 1_455 S
O544 C554 1.258 . S
C545 O542 1.267 . S
C545 O546 1.228 . S
O546 C545 1.228 . S
O547 Zn536 2.024 . S
O547 C538 1.058 . S
C548 O549 1.228 . S
C548 O550 1.267 . S
O549 C548 1.228 . S
O550 Zn537 1.969 . S
O550 C548 1.267 . S
O551 Zn537 1.965 1_455 S
O551 C555 1.260 . S
O552 Zn536 1.969 . S
O552 C555 1.258 . S
O553 Zn537 2.024 . S
O553 C540 1.058 . S
C554 O543 1.260 . S
C554 O544 1.258 . S
C555 O551 1.260 . S
C555 O552 1.258 . S
Zn556 O562 1.969 . S
Zn556 O563 1.965 . S
Zn556 O567 2.024 . S
Zn556 O572 1.969 . S
Zn557 O564 1.969 . S
Zn557 O570 1.969 . S
Zn557 O571 1.965 . S
Zn557 O573 2.024 . S
C558 O559 1.229 . S
C558 O567 1.058 . S
O559 C558 1.229 . S
C560 O561 1.229 . S
C560 O573 1.058 . S
O561 C560 1.229 . S
O562 Zn556 1.969 . S
O562 C565 1.267 . S
O563 Zn556 1.965 . S
O563 C574 1.260 . S
O564 Zn557 1.969 . S
O564 C574 1.258 . S
C565 O562 1.267 . S
C565 O566 1.228 . S
O566 C565 1.228 . S
O567 Zn556 2.024 . S
O567 C558 1.058 . S
C568 O569 1.228 . S
C568 O570 1.267 . S
O569 C568 1.228 . S
O570 Zn557 1.969 . S
O570 C568 1.267 . S
O571 Zn557 1.965 . S
O571 C575 1.260 . S
O572 Zn556 1.969 . S
O572 C575 1.258 . S
O573 Zn557 2.024 . S
O573 C560 1.058 . S
C574 O563 1.260 . S
C574 O564 1.258 . S
C575 O571 1.260 . S
C575 O572 1.258 . S
Zn576 O582 1.969 . S
Zn576 O583 1.965 . S
Zn576 O587 2.024 . S
Zn576 O592 1.969 . S
Zn577 O584 1.969 . S
Zn577 O590 1.969 . S
Zn577 O591 1.965 . S
Zn577 O593 2.024 . S
C578 O579 1.229 . S
C578 O587 1.058 . S
O579 C578 1.229 . S
C580 O581 1.229 . S
C580 O593 1.058 . S
O581 C580 1.229 . S
O582 Zn576 1.969 . S
O582 C585 1.267 . S
O583 Zn576 1.965 . S
O583 C594 1.260 . S
O584 Zn577 1.969 . S
O584 C594 1.258 . S
C585 O582 1.267 . S
C585 O586 1.228 . S
O586 C585 1.228 . S
O587 Zn576 2.024 . S
O587 C578 1.058 . S
C588 O589 1.228 . S
C588 O590 1.267 . S
O589 C588 1.228 . S
O590 Zn577 1.969 . S
O590 C588 1.267 . S
O591 Zn577 1.965 . S
O591 C595 1.260 . S
O592 Zn576 1.969 . S
O592 C595 1.258 . S
O593 Zn577 2.024 . S
O593 C580 1.058 . S
C594 O583 1.260 . S
C594 O584 1.258 . S
C595 O591 1.260 . S
C595 O592 1.258 . S
Zn596 O602 1.969 . S
Zn596 O603 1.965 . S
Zn596 O607 2.024 . S
Zn596 O612 1.969 . S
Zn597 O604 1.969 . S
Zn597 O610 1.969 . S
Zn597 O611 1.965 . S
Zn597 O613 2.024 . S
C598 O599 1.229 . S
C598 O607 1.058 . S
O599 C598 1.229 . S
C600 O601 1.229 . S
C600 O613 1.058 . S
O601 C600 1.229 . S
O602 Zn596 1.969 . S
O602 C605 1.267 . S
O603 Zn596 1.965 . S
O603 C614 1.260 . S
O604 Zn597 1.969 . S
O604 C614 1.258 . S
C605 O602 1.267 . S
C605 O606 1.228 . S
O606 C605 1.228 . S
O607 Zn596 2.024 . S
O607 C598 1.058 . S
C608 O609 1.228 . S
C608 O610 1.267 . S
O609 C608 1.228 . S
O610 Zn597 1.969 . S
O610 C608 1.267 . S
O611 Zn597 1.965 . S
O611 C615 1.260 . S
O612 Zn596 1.969 . S
O612 C615 1.258 . S
O613 Zn597 2.024 . S
O613 C600 1.058 . S
C614 O603 1.260 . S
C614 O604 1.258 . S
C615 O611 1.260 . S
C615 O612 1.258 . S
Zn616 O622 1.969 . S
Zn616 O623 1.965 . S
Zn616 O627 2.024 . S
Zn616 O632 1.969 . S
Zn617 O624 1.969 . S
Zn617 O630 1.969 . S
Zn617 O631 1.965 . S
Zn617 O633 2.024 . S
C618 O619 1.229 . S
C618 O627 1.058 . S
O619 C618 1.229 . S
C620 O621 1.229 . S
C620 O633 1.058 . S
O621 C620 1.229 . S
O622 Zn616 1.969 . S
O622 C625 1.267 . S
O623 Zn616 1.965 . S
O623 C634 1.260 . S
O624 Zn617 1.969 . S
O624 C634 1.258 . S
C625 O622 1.267 . S
C625 O626 1.228 . S
O626 C625 1.228 . S
O627 Zn616 2.024 . S
O627 C618 1.058 . S
C628 O629 1.228 . S
C628 O630 1.267 . S
O629 C628 1.228 . S
O630 Zn617 1.969 . S
O630 C628 1.267 . S
O631 Zn617 1.965 . S
O631 C635 1.260 . S
O632 Zn616 1.969 . S
O632 C635 1.258 . S
O633 Zn617 2.024 . S
O633 C620 1.058 . S
C634 O623 1.260 . S
C634 O624 1.258 . S
C635 O631 1.260 . S
C635 O632 1.258 . S
Zn636 O642 1.969 . S
Zn636 O643 1.965 1_554 S
Zn636 O647 2.024 1_655 S
Zn636 O652 1.969 1_655 S
Zn637 O644 1.969 1_554 S
Zn637 O650 1.969 1_554 S
Zn637 O651 1.965 . S
Zn637 O653 2.024 . S
C638 O639 1.229 . S
C638 O647 1.058 . S
O639 C638 1.229 . S
C640 O641 1.229 . S
C640 O653 1.058 1_556 S
O641 C640 1.229 . S
O642 Zn636 1.969 . S
O642 C645 1.267 . S
O643 Zn636 1.965 1_556 S
O643 C654 1.260 1_655 S
O644 Zn637 1.969 1_556 S
O644 C654 1.258 . S
C645 O642 1.267 . S
C645 O646 1.228 . S
O646 C645 1.228 . S
O647 Zn636 2.024 1_455 S
O647 C638 1.058 . S
C648 O649 1.228 . S
C648 O650 1.267 1_554 S
O649 C648 1.228 . S
O650 Zn637 1.969 1_556 S
O650 C648 1.267 1_556 S
O651 Zn637 1.965 . S
O651 C655 1.260 . S
O652 Zn636 1.969 1_455 S
O652 C655 1.258 . S
O653 Zn637 2.024 . S
O653 C640 1.058 1_554 S
C654 O643 1.260 1_455 S
C654 O644 1.258 . S
C655 O651 1.260 . S
C655 O652 1.258 . S
C109 C340 1.660 1_656 S
C61 C375 1.949 . S
C74 C380 1.084 . S
C405 C96 1.626 . S
C25 C425 1.698 . S
C440 C40 0.937 . S
C475 C46 2.065 . S
C5 C480 0.803 . S
C355 C229 1.311 1_455 S
C249 C365 1.866 . S
C395 C271 1.547 1_545 S
C400 C172 1.444 1_556 S
C236 C420 1.104 . S
C455 C242 1.969 . S
C465 C278 1.038 . S
C495 C179 2.070 . S
C345 C159 1.372 . S
C285 C515 2.269 1_556 S
C525 C333 1.936 . S
C540 C320 0.959 . S
C123 C485 2.233 . S
C138 C385 1.932 . S
C326 C575 2.661 . S
C580 C298 1.169 . S
C338 C67 1.670 . S
C594 C110 1.674 . S
C88 C378 0.962 . S
C75 C568 1.836 . S
C428 C11 1.588 . S
C47 C518 0.611 . S
C474 C32 1.578 1_554 S
C598 C26 2.011 . S
C354 C152 2.351 . S
C588 C319 1.540 . S
C124 C394 1.377 . S
C284 C558 1.394 . S
C145 C418 0.783 . S
C534 C312 1.471 . S
C117 C468 1.683 . S
C291 C614 1.979 . S
C194 C348 2.528 1_554 S
C180 C514 2.064 . S
C263 C448 1.608 . S
C243 C538 0.575 . S
C608 C277 1.946 . S
C215 C388 2.108 . S
C414 C256 2.137 . S
C358 C200 0.937 . S
C81 C620 1.660 . S
C595 C89 1.949 . S
C102 C640 1.084 . S
C68 C565 1.625 . S
C53 C505 1.698 . S
C520 C12 0.937 . S
C555 C18 2.065 1_455 S
C600 C33 0.802 . S
C635 C257 1.312 . S
C193 C585 1.866 . S
C655 C201 1.547 . S
C560 C214 1.453 . S
C500 C264 1.104 . S
C186 C535 1.970 . S
C545 C208 1.038 . S
C221 C615 2.070 . S
C625 C313 1.372 . S
C131 C435 2.270 . S
C445 C151 1.936 . S
C460 C166 0.959 . S
C605 C305 2.233 . S
C292 C645 1.932 . S
C415 C144 2.661 . S
C360 C116 1.169 . S
C95 C618 1.670 . S
C374 C82 1.674 . S
C60 C638 0.962 . S
C103 C408 1.835 . S
C39 C508 1.588 1_554 S
C438 C19 0.611 . S
C4 C554 1.578 . S
C54 C478 2.011 . S
C634 C334 2.350 . S
C165 C368 1.540 . S
C654 C306 1.377 1_455 S
C130 C398 1.395 . S
C327 C498 0.783 . S
C454 C158 1.471 . S
C299 C548 1.683 1_455 S
C494 C137 1.979 . S
C628 C250 2.528 . S
C434 C222 2.064 . S
C235 C528 1.605 . S
C458 C187 0.575 . S
C207 C488 1.946 . S
C173 C648 2.107 . S
C574 C228 2.139 . S
C578 C270 0.937 . S
