# Generated by pormake.
# Topology ocu, (6,8)-cn, num edge types: 1
# Building blocks:
#     Node 0, Type 0, BuildingBlock: FUNLAD_clean_sbu_0, # of connection points: 6
#     Node 1, Type 0, BuildingBlock: FUNLAD_clean_sbu_0, # of connection points: 6
#     Node 2, Type 0, BuildingBlock: FUNLAD_clean_sbu_0, # of connection points: 6
#     Node 3, Type 0, BuildingBlock: FUNLAD_clean_sbu_0, # of connection points: 6
#     Node 4, Type 0, BuildingBlock: FUNLAD_clean_sbu_0, # of connection points: 6
#     Node 5, Type 0, BuildingBlock: FUNLAD_clean_sbu_0, # of connection points: 6
#     Node 6, Type 0, BuildingBlock: FUNLAD_clean_sbu_0, # of connection points: 6
#     Node 7, Type 0, BuildingBlock: FUNLAD_clean_sbu_0, # of connection points: 6
#     Node 8, Type 1, BuildingBlock: VETTIZ_charged_sbu_0, # of connection points: 8
#     Node 9, Type 1, BuildingBlock: VETTIZ_charged_sbu_0, # of connection points: 8
#     Node 10, Type 1, BuildingBlock: VETTIZ_charged_sbu_0, # of connection points: 8
#     Node 11, Type 1, BuildingBlock: VETTIZ_charged_sbu_0, # of connection points: 8
#     Node 12, Type 1, BuildingBlock: VETTIZ_charged_sbu_0, # of connection points: 8
#     Node 13, Type 1, BuildingBlock: VETTIZ_charged_sbu_0, # of connection points: 8
#     Edge 14, Type (0, 1), BuildingBlock: ZUJKAS_clean_linker_0, # of connection points: 2
#     Edge 15, Type (0, 1), BuildingBlock: ZUJKAS_clean_linker_0, # of connection points: 2
#     Edge 16, Type (0, 1), BuildingBlock: ZUJKAS_clean_linker_0, # of connection points: 2
#     Edge 17, Type (0, 1), BuildingBlock: ZUJKAS_clean_linker_0, # of connection points: 2
#     Edge 18, Type (0, 1), BuildingBlock: ZUJKAS_clean_linker_0, # of connection points: 2
#     Edge 19, Type (0, 1), BuildingBlock: ZUJKAS_clean_linker_0, # of connection points: 2
#     Edge 20, Type (0, 1), BuildingBlock: ZUJKAS_clean_linker_0, # of connection points: 2
#     Edge 21, Type (0, 1), BuildingBlock: ZUJKAS_clean_linker_0, # of connection points: 2
#     Edge 22, Type (0, 1), BuildingBlock: ZUJKAS_clean_linker_0, # of connection points: 2
#     Edge 23, Type (0, 1), BuildingBlock: ZUJKAS_clean_linker_0, # of connection points: 2
#     Edge 24, Type (0, 1), BuildingBlock: ZUJKAS_clean_linker_0, # of connection points: 2
#     Edge 25, Type (0, 1), BuildingBlock: ZUJKAS_clean_linker_0, # of connection points: 2
#     Edge 26, Type (0, 1), BuildingBlock: ZUJKAS_clean_linker_0, # of connection points: 2
#     Edge 27, Type (0, 1), BuildingBlock: ZUJKAS_clean_linker_0, # of connection points: 2
#     Edge 28, Type (0, 1), BuildingBlock: ZUJKAS_clean_linker_0, # of connection points: 2
#     Edge 29, Type (0, 1), BuildingBlock: ZUJKAS_clean_linker_0, # of connection points: 2
#     Edge 30, Type (0, 1), BuildingBlock: ZUJKAS_clean_linker_0, # of connection points: 2
#     Edge 31, Type (0, 1), BuildingBlock: ZUJKAS_clean_linker_0, # of connection points: 2
#     Edge 32, Type (0, 1), BuildingBlock: ZUJKAS_clean_linker_0, # of connection points: 2
#     Edge 33, Type (0, 1), BuildingBlock: ZUJKAS_clean_linker_0, # of connection points: 2
#     Edge 34, Type (0, 1), BuildingBlock: ZUJKAS_clean_linker_0, # of connection points: 2
#     Edge 35, Type (0, 1), BuildingBlock: ZUJKAS_clean_linker_0, # of connection points: 2
#     Edge 36, Type (0, 1), BuildingBlock: ZUJKAS_clean_linker_0, # of connection points: 2
#     Edge 37, Type (0, 1), BuildingBlock: ZUJKAS_clean_linker_0, # of connection points: 2
#     Edge 38, Type (0, 1), BuildingBlock: ZUJKAS_clean_linker_0, # of connection points: 2
#     Edge 39, Type (0, 1), BuildingBlock: ZUJKAS_clean_linker_0, # of connection points: 2
#     Edge 40, Type (0, 1), BuildingBlock: ZUJKAS_clean_linker_0, # of connection points: 2
#     Edge 41, Type (0, 1), BuildingBlock: ZUJKAS_clean_linker_0, # of connection points: 2
#     Edge 42, Type (0, 1), BuildingBlock: ZUJKAS_clean_linker_0, # of connection points: 2
#     Edge 43, Type (0, 1), BuildingBlock: ZUJKAS_clean_linker_0, # of connection points: 2
#     Edge 44, Type (0, 1), BuildingBlock: ZUJKAS_clean_linker_0, # of connection points: 2
#     Edge 45, Type (0, 1), BuildingBlock: ZUJKAS_clean_linker_0, # of connection points: 2
#     Edge 46, Type (0, 1), BuildingBlock: ZUJKAS_clean_linker_0, # of connection points: 2
#     Edge 47, Type (0, 1), BuildingBlock: ZUJKAS_clean_linker_0, # of connection points: 2
#     Edge 48, Type (0, 1), BuildingBlock: ZUJKAS_clean_linker_0, # of connection points: 2
#     Edge 49, Type (0, 1), BuildingBlock: ZUJKAS_clean_linker_0, # of connection points: 2
#     Edge 50, Type (0, 1), BuildingBlock: ZUJKAS_clean_linker_0, # of connection points: 2
#     Edge 51, Type (0, 1), BuildingBlock: ZUJKAS_clean_linker_0, # of connection points: 2
#     Edge 52, Type (0, 1), BuildingBlock: ZUJKAS_clean_linker_0, # of connection points: 2
#     Edge 53, Type (0, 1), BuildingBlock: ZUJKAS_clean_linker_0, # of connection points: 2
#     Edge 54, Type (0, 1), BuildingBlock: ZUJKAS_clean_linker_0, # of connection points: 2
#     Edge 55, Type (0, 1), BuildingBlock: ZUJKAS_clean_linker_0, # of connection points: 2
#     Edge 56, Type (0, 1), BuildingBlock: ZUJKAS_clean_linker_0, # of connection points: 2
#     Edge 57, Type (0, 1), BuildingBlock: ZUJKAS_clean_linker_0, # of connection points: 2
#     Edge 58, Type (0, 1), BuildingBlock: ZUJKAS_clean_linker_0, # of connection points: 2
#     Edge 59, Type (0, 1), BuildingBlock: ZUJKAS_clean_linker_0, # of connection points: 2
#     Edge 60, Type (0, 1), BuildingBlock: ZUJKAS_clean_linker_0, # of connection points: 2
#     Edge 61, Type (0, 1), BuildingBlock: ZUJKAS_clean_linker_0, # of connection points: 2
# Relax obj value: 0.133
# Max RMSD: 0.255
# Mean RMSD: 0.150
data_MOF--net-ocu--node1-FUNLAD_clean_sbu_0--node2-VETTIZ_charged_sbu_0--edge1-ZUJKAS_clean_linker_0
_symmetry_space_group_name_H-M    P1
_symmetry_Int_Tables_number       1
_symmetry_cell_setting            triclinic
loop_
_symmetry_equiv_pos_as_xyz
'x, y, z'
_cell_length_a     49.253617
_cell_length_b     49.186619
_cell_length_c     49.213131
_cell_angle_alpha  85.773601
_cell_angle_beta   85.667643
_cell_angle_gamma 83.241629
loop_
_atom_site_label
_atom_site_type_symbol
_atom_site_fract_x
_atom_site_fract_y
_atom_site_fract_z
_atom_type_partial_charge
C0 C 0.21118 0.2639 0.29635 0.0
N1 N 0.20011 0.19529 0.25412 0.0
C2 C 0.18856 0.18584 0.27839 0.0
C3 C 0.16838 0.16821 0.27897 0.0
C4 C 0.16033 0.15997 0.25437 0.0
C5 C 0.17299 0.16938 0.22962 0.0
C6 C 0.19279 0.18744 0.22995 0.0
Zn7 Zn 0.22725 0.22331 0.25384 0.0
C8 C 0.21021 0.2722 0.2176 0.0
N9 N 0.28324 0.28305 0.25165 0.0
C10 C 0.29585 0.28963 0.27361 0.0
C11 C 0.28859 0.29498 0.22631 0.0
C12 C 0.30677 0.31461 0.22227 0.0
C13 C 0.32011 0.32179 0.24439 0.0
C14 C 0.31481 0.30896 0.27034 0.0
Zn15 Zn 0.2563 0.25443 0.25391 0.0
O16 O 0.20385 0.24299 0.28639 0.0
C17 C 0.27261 0.20583 0.29086 0.0
O18 O 0.23297 0.27349 0.2865 0.0
H19 H 0.27896 0.28904 0.20898 0.0
H20 H 0.19481 0.1922 0.29732 0.0
H21 H 0.2914 0.27974 0.29355 0.0
O22 O 0.25108 0.19804 0.28257 0.0
O23 O 0.27981 0.22904 0.28201 0.0
H24 H 0.20207 0.19545 0.21087 0.0
O25 O 0.27994 0.23467 0.2217 0.0
O26 O 0.2512 0.20394 0.2215 0.0
O27 O 0.23176 0.27977 0.22586 0.0
O28 O 0.2035 0.24869 0.22573 0.0
C29 C 0.27323 0.21331 0.21218 0.0
H30 H 0.15934 0.16081 0.29848 0.0
H31 H 0.16731 0.16322 0.21034 0.0
H32 H 0.31089 0.32368 0.20185 0.0
H33 H 0.32504 0.31393 0.28775 0.0
C34 C 0.70704 0.29441 0.24488 0.0
N35 N 0.73242 0.2163 0.21768 0.0
C36 C 0.70487 0.21508 0.22027 0.0
C37 C 0.69263 0.19861 0.20417 0.0
C38 C 0.70868 0.18312 0.18485 0.0
C39 C 0.73705 0.18505 0.18196 0.0
C40 C 0.74864 0.20178 0.19887 0.0
Zn41 Zn 0.74599 0.24126 0.24445 0.0
C42 C 0.7848 0.27916 0.22058 0.0
N43 N 0.76468 0.29498 0.30277 0.0
C44 C 0.74665 0.30976 0.31991 0.0
C45 C 0.79212 0.29627 0.30268 0.0
C46 C 0.80247 0.31266 0.32034 0.0
C47 C 0.78449 0.32805 0.33838 0.0
C48 C 0.75619 0.32665 0.33796 0.0
Zn49 Zn 0.75243 0.27009 0.2757 0.0
O50 O 0.71366 0.27187 0.23371 0.0
C51 C 0.71439 0.23185 0.3 0.0
O52 O 0.7205 0.30012 0.2643 0.0
H53 H 0.80614 0.2846 0.28877 0.0
H54 H 0.6921 0.22693 0.23499 0.0
H55 H 0.72491 0.30845 0.31959 0.0
O56 O 0.71986 0.22361 0.27611 0.0
O57 O 0.72523 0.25247 0.30655 0.0
H58 H 0.77048 0.20307 0.19703 0.0
O59 O 0.78415 0.23985 0.28671 0.0
O60 O 0.77858 0.21109 0.25601 0.0
O61 O 0.77956 0.28707 0.24465 0.0
O62 O 0.77291 0.25942 0.21335 0.0
C63 C 0.79141 0.21732 0.27576 0.0
H64 H 0.67063 0.19827 0.20666 0.0
H65 H 0.75011 0.17345 0.16717 0.0
H66 H 0.82438 0.31357 0.31956 0.0
H67 H 0.74168 0.3382 0.3516 0.0
C68 C 0.78195 0.71172 0.28624 0.0
N69 N 0.80234 0.79133 0.27345 0.0
C70 C 0.80394 0.78738 0.30097 0.0
C71 C 0.82522 0.79647 0.31353 0.0
C72 C 0.84492 0.81011 0.29776 0.0
C73 C 0.8421 0.81549 0.26966 0.0
C74 C 0.82055 0.80558 0.25773 0.0
Zn75 Zn 0.77502 0.7697 0.25746 0.0
C76 C 0.7991 0.73851 0.21159 0.0
N77 N 0.71944 0.7184 0.23111 0.0
C78 C 0.7039 0.7008 0.2461 0.0
C79 C 0.71798 0.72238 0.20357 0.0
C80 C 0.7002 0.70893 0.19009 0.0
C81 C 0.68371 0.69088 0.2049 0.0
C82 C 0.68588 0.68658 0.23327 0.0
Zn83 Zn 0.74598 0.74097 0.2475 0.0
O84 O 0.79014 0.73531 0.2826 0.0
C85 C 0.72195 0.77229 0.29354 0.0
O86 O 0.76167 0.7067 0.27359 0.0
H87 H 0.73066 0.73613 0.19185 0.0
H88 H 0.78944 0.77592 0.31315 0.0
H89 H 0.70538 0.6979 0.26796 0.0
O90 O 0.74475 0.78205 0.28864 0.0
O91 O 0.71616 0.75363 0.27906 0.0
H92 H 0.81905 0.80825 0.23586 0.0
O93 O 0.7309 0.77582 0.22193 0.0
O94 O 0.75979 0.80376 0.23183 0.0
O95 O 0.77635 0.72866 0.21634 0.0
O96 O 0.80468 0.75713 0.22613 0.0
C97 C 0.73969 0.79925 0.21868 0.0
H98 H 0.82665 0.79231 0.33534 0.0
H99 H 0.857 0.8261 0.25699 0.0
H100 H 0.69962 0.71241 0.16814 0.0
H101 H 0.6735 0.67276 0.24539 0.0
C102 C 0.20712 0.80028 0.26643 0.0
N103 N 0.28512 0.77363 0.29241 0.0
C104 C 0.28749 0.80097 0.29141 0.0
C105 C 0.30417 0.81129 0.30876 0.0
C106 C 0.3184 0.79344 0.32768 0.0
C107 C 0.31521 0.76537 0.3289 0.0
C108 C 0.29846 0.75577 0.31076 0.0
Zn109 Zn 0.26029 0.76173 0.26511 0.0
C110 C 0.22191 0.72362 0.28856 0.0
N111 N 0.20642 0.74371 0.207 0.0
C112 C 0.19069 0.76131 0.19033 0.0
C113 C 0.20451 0.71626 0.20862 0.0
C114 C 0.18558 0.7056 0.19413 0.0
C115 C 0.16855 0.72321 0.17744 0.0
C116 C 0.17156 0.75133 0.17498 0.0
Zn117 Zn 0.23193 0.75584 0.23353 0.0
O118 O 0.22964 0.79334 0.27745 0.0
C119 C 0.26961 0.79469 0.21032 0.0
O120 O 0.20186 0.78794 0.24597 0.0
H121 H 0.2172 0.70253 0.22185 0.0
H122 H 0.27639 0.81495 0.27708 0.0
H123 H 0.19249 0.78307 0.18945 0.0
O124 O 0.27731 0.78914 0.23439 0.0
O125 O 0.24966 0.78329 0.20298 0.0
H126 H 0.29616 0.73413 0.31128 0.0
O127 O 0.26252 0.72353 0.22154 0.0
O128 O 0.29082 0.7301 0.25219 0.0
O129 O 0.21428 0.7293 0.26451 0.0
O130 O 0.24261 0.73399 0.29558 0.0
C131 C 0.28532 0.71716 0.23222 0.0
H132 H 0.30574 0.83314 0.30755 0.0
H133 H 0.3259 0.75103 0.34331 0.0
H134 H 0.18404 0.68373 0.19615 0.0
H135 H 0.15873 0.76541 0.16211 0.0
C136 C 0.21567 0.78157 0.7309 0.0
N137 N 0.24562 0.70418 0.70519 0.0
C138 C 0.21841 0.70381 0.7023 0.0
C139 C 0.20962 0.68756 0.68357 0.0
C140 C 0.22891 0.67096 0.66798 0.0
C141 C 0.25688 0.67103 0.67159 0.0
C142 C 0.26489 0.68821 0.69032 0.0
Zn143 Zn 0.25516 0.72957 0.73332 0.0
C144 C 0.2943 0.7682 0.71173 0.0
N145 N 0.26918 0.78408 0.79304 0.0
C146 C 0.27395 0.81018 0.78467 0.0
C147 C 0.27467 0.77339 0.81859 0.0
C148 C 0.28689 0.78854 0.83624 0.0
C149 C 0.29383 0.81485 0.82745 0.0
C150 C 0.28637 0.82595 0.80156 0.0
Zn151 Zn 0.25955 0.75868 0.76491 0.0
O152 O 0.22384 0.7591 0.72023 0.0
C153 C 0.21982 0.72036 0.78606 0.0
O154 O 0.22739 0.7881 0.75123 0.0
H155 H 0.27084 0.75256 0.82482 0.0
H156 H 0.20332 0.71607 0.71468 0.0
H157 H 0.26953 0.81828 0.76424 0.0
O158 O 0.22647 0.71207 0.76234 0.0
O159 O 0.23098 0.7403 0.79377 0.0
H160 H 0.28641 0.68871 0.69304 0.0
O161 O 0.29157 0.72898 0.77794 0.0
O162 O 0.28678 0.70034 0.74694 0.0
O163 O 0.28779 0.77641 0.73552 0.0
O164 O 0.28372 0.74771 0.70444 0.0
C165 C 0.29899 0.70635 0.76714 0.0
H166 H 0.18785 0.68757 0.6816 0.0
H167 H 0.27222 0.65823 0.65994 0.0
H168 H 0.29168 0.77932 0.85622 0.0
H169 H 0.29147 0.846 0.79372 0.0
C170 C 0.26428 0.20601 0.7844 0.0
N171 N 0.28348 0.28727 0.77453 0.0
C172 C 0.28312 0.2846 0.80228 0.0
C173 C 0.29944 0.29924 0.8163 0.0
C174 C 0.31669 0.31672 0.80177 0.0
C175 C 0.31731 0.31874 0.77308 0.0
C176 C 0.30025 0.30385 0.75976 0.0
Zn177 Zn 0.25735 0.26478 0.7574 0.0
C178 C 0.28082 0.2359 0.70974 0.0
N179 N 0.20078 0.21558 0.72956 0.0
C180 C 0.18288 0.2004 0.74458 0.0
C181 C 0.19885 0.221 0.7022 0.0
C182 C 0.17764 0.21237 0.68915 0.0
C183 C 0.15825 0.19771 0.70421 0.0
C184 C 0.16139 0.19093 0.73212 0.0
Zn185 Zn 0.22813 0.23664 0.74646 0.0
O186 O 0.27237 0.22977 0.78243 0.0
C187 C 0.20418 0.2657 0.79358 0.0
O188 O 0.24469 0.20154 0.77045 0.0
H189 H 0.21305 0.23322 0.69054 0.0
H190 H 0.27004 0.27105 0.81374 0.0
H191 H 0.18459 0.19657 0.76634 0.0
O192 O 0.22649 0.27631 0.78862 0.0
O193 O 0.19894 0.24709 0.77885 0.0
H194 H 0.30032 0.30561 0.73772 0.0
O195 O 0.212 0.2719 0.72332 0.0
O196 O 0.24168 0.2995 0.73177 0.0
O197 O 0.25772 0.22666 0.71395 0.0
O198 O 0.28753 0.25277 0.72577 0.0
C199 C 0.2207 0.29527 0.71978 0.0
H200 H 0.29872 0.29671 0.83839 0.0
H201 H 0.3304 0.33205 0.76118 0.0
H202 H 0.17612 0.21756 0.66749 0.0
H203 H 0.1468 0.17947 0.74429 0.0
C204 C 0.72255 0.28027 0.77015 0.0
N205 N 0.80175 0.25617 0.79588 0.0
C206 C 0.80034 0.28383 0.79719 0.0
C207 C 0.81805 0.29517 0.81256 0.0
C208 C 0.83806 0.27809 0.82643 0.0
C209 C 0.83863 0.2495 0.82564 0.0
C210 C 0.82013 0.23888 0.81004 0.0
Zn211 Zn 0.77756 0.24386 0.76825 0.0
C212 C 0.74175 0.20243 0.78887 0.0
N213 N 0.72699 0.22629 0.70709 0.0
C214 C 0.71128 0.24438 0.69086 0.0
C215 C 0.72848 0.19877 0.70465 0.0
C216 C 0.71441 0.18846 0.68502 0.0
C217 C 0.69823 0.20651 0.66788 0.0
C218 C 0.69637 0.23482 0.67109 0.0
Zn219 Zn 0.75023 0.23811 0.73577 0.0
O220 O 0.74533 0.2742 0.7809 0.0
C221 C 0.78697 0.27872 0.71479 0.0
O222 O 0.71794 0.26799 0.7494 0.0
H223 H 0.7407 0.18465 0.71795 0.0
H224 H 0.78607 0.29738 0.78546 0.0
H225 H 0.71039 0.26617 0.6932 0.0
O226 O 0.79456 0.27234 0.73877 0.0
O227 O 0.76686 0.26792 0.70703 0.0
H228 H 0.82107 0.21696 0.80852 0.0
O229 O 0.78256 0.20848 0.72271 0.0
O230 O 0.80921 0.21327 0.75531 0.0
O231 O 0.73436 0.2082 0.76469 0.0
O232 O 0.76046 0.21487 0.79729 0.0
C233 C 0.80485 0.2016 0.73411 0.0
H234 H 0.81636 0.31728 0.81313 0.0
H235 H 0.85375 0.23561 0.83609 0.0
H236 H 0.71583 0.16645 0.68356 0.0
H237 H 0.68388 0.24929 0.65826 0.0
C238 C 0.73488 0.79075 0.79394 0.0
N239 N 0.72861 0.72034 0.75378 0.0
C240 C 0.72415 0.70818 0.77919 0.0
C241 C 0.70697 0.68764 0.78352 0.0
C242 C 0.6937 0.6798 0.76166 0.0
C243 C 0.69822 0.69275 0.73562 0.0
C244 C 0.7162 0.71299 0.73203 0.0
Zn245 Zn 0.75338 0.75097 0.75117 0.0
C246 C 0.73344 0.79854 0.71537 0.0
N247 N 0.80465 0.81461 0.75062 0.0
C248 C 0.81433 0.82132 0.77416 0.0
C249 C 0.81045 0.82842 0.72634 0.0
C250 C 0.8265 0.85 0.72509 0.0
C251 C 0.83682 0.85738 0.74903 0.0
C252 C 0.83071 0.84269 0.7738 0.0
Zn253 Zn 0.78049 0.78381 0.75154 0.0
O254 O 0.72866 0.76962 0.78353 0.0
C255 C 0.80088 0.73557 0.78673 0.0
O256 O 0.75671 0.80079 0.78513 0.0
H257 H 0.80266 0.82262 0.70789 0.0
H258 H 0.73353 0.71474 0.79637 0.0
H259 H 0.80932 0.8101 0.79326 0.0
O260 O 0.7793 0.7275 0.77908 0.0
O261 O 0.807 0.75925 0.77826 0.0
H262 H 0.71991 0.72309 0.71204 0.0
O263 O 0.80392 0.76664 0.71759 0.0
O264 O 0.77776 0.73332 0.71844 0.0
O265 O 0.75372 0.80799 0.72442 0.0
O266 O 0.72841 0.77434 0.72314 0.0
C267 C 0.79815 0.74493 0.70782 0.0
H268 H 0.70343 0.67851 0.80401 0.0
H269 H 0.68802 0.68728 0.71839 0.0
H270 H 0.83127 0.86044 0.70546 0.0
H271 H 0.83835 0.84777 0.79264 0.0
Fe272 Fe 0.99878 0.03004 0.49707 0.0
O273 O 0.98021 0.99688 0.49261 0.0
Fe274 Fe 0.06762 0.00311 0.49919 0.0
Fe275 Fe 0.94201 0.99389 0.50584 0.0
O276 O 0.02869 0.00302 0.51142 0.0
O277 O 0.02932 1.00047 0.51134 0.0
O278 O 0.98084 0.99418 0.49267 0.0
Fe279 Fe 0.0107 0.96739 0.5075 0.0
C280 C 0.9562 0.0358 0.54367 0.0
O281 O 0.96495 0.05371 0.47999 0.0
O282 O 0.93522 0.0221 0.4734 0.0
O283 O 0.02838 0.96269 0.46865 0.0
O284 O 0.07109 0.96964 0.47561 0.0
O285 O 0.06015 0.02797 0.46447 0.0
O286 O 0.01584 0.02739 0.458 0.0
O287 O 0.947 0.95864 0.48506 0.0
O288 O 0.98723 0.93587 0.50061 0.0
C289 C 0.0404 0.02935 0.44899 0.0
O290 O 0.04409 0.94373 0.52508 0.0
O291 O 0.07379 0.97519 0.53188 0.0
O292 O 0.98155 0.03369 0.53615 0.0
O293 O 0.93873 0.02724 0.52954 0.0
C294 C 0.94442 0.04582 0.46842 0.0
C295 C 0.96486 0.93713 0.48775 0.0
C296 C 0.96971 0.96837 0.55589 0.0
O297 O 0.95005 0.96878 0.54045 0.0
O298 O 0.99391 0.97124 0.54642 0.0
C299 C 0.05391 0.96023 0.46172 0.0
O300 O 0.06206 0.03801 0.5204 0.0
O301 O 0.02217 0.06147 0.50494 0.0
C302 C 0.06439 0.95162 0.53694 0.0
C303 C 0.0439 0.05939 0.51893 0.0
Fe304 Fe 0.50797 0.94282 0.02752 0.0
O305 O 0.50509 0.98283 0.02119 0.0
Fe306 Fe 0.47104 0.0027 1.00172 0.0
Fe307 Fe 0.53435 0.00251 1.00059 0.0
O308 O 0.50229 0.98293 0.02149 0.0
O309 O 0.50025 0.02262 0.98125 0.0
O310 O 0.50309 0.02247 0.98091 0.0
Fe311 Fe 0.49724 0.06272 0.97544 0.0
C312 C 0.55947 0.96214 0.04662 0.0
O313 O 0.54033 0.93591 0.99883 0.0
O314 O 0.54036 0.97404 0.9714 0.0
O315 O 0.46788 0.05543 0.94986 0.0
O316 O 0.44218 0.02636 0.97721 0.0
O317 O 0.4755 0.97453 0.97257 0.0
O318 O 0.48116 0.93583 0.99899 0.0
O319 O 0.561 0.02662 0.9758 0.0
O320 O 0.53186 0.05603 0.94945 0.0
C321 C 0.47333 0.94909 0.97718 0.0
O322 O 0.46489 0.06934 0.00417 0.0
O323 O 0.46489 0.03093 0.0311 0.0
O324 O 0.5373 0.95038 0.05298 0.0
O325 O 0.56318 0.97888 0.02509 0.0
C326 C 0.54722 0.94849 0.97628 0.0
C327 C 0.55612 0.04505 0.95565 0.0
C328 C 0.53266 0.05597 0.02531 0.0
O329 O 0.53008 0.03062 0.02981 0.0
O330 O 0.5243 0.06953 0.00387 0.0
C331 C 0.44581 0.04345 0.95593 0.0
O332 O 0.44439 0.97854 0.02634 0.0
O333 O 0.4733 0.94999 0.05357 0.0
C334 C 0.45802 0.05649 0.02655 0.0
C335 C 0.44909 0.96104 0.04726 0.0
Fe336 Fe 1.00156 0.53295 0.99867 0.0
O337 O 0.97842 0.5058 0.01844 0.0
Fe338 Fe 0.06493 0.49414 0.98899 0.0
Fe339 Fe 0.93859 0.50794 0.01633 0.0
O340 O 0.02491 0.49941 0.98665 0.0
O341 O 0.02514 0.49662 0.98785 0.0
O342 O 0.97864 0.50292 0.01962 0.0
Fe343 Fe 1.00219 0.46941 0.00758 0.0
C344 C 0.95261 0.56321 0.03269 0.0
O345 O 0.98022 0.53524 0.96399 0.0
O346 O 0.93764 0.53556 0.98288 0.0
O347 O 0.02976 0.43793 0.99079 0.0
O348 O 0.06293 0.46094 0.96617 0.0
O349 O 0.06304 0.52488 0.95817 0.0
O350 O 0.02958 0.55703 0.97574 0.0
O351 O 0.93852 0.47626 0.99089 0.0
O352 O 0.98139 0.46973 0.97325 0.0
C353 C 0.051 0.54979 0.95936 0.0
O354 O 0.02381 0.46705 0.04209 0.0
O355 O 0.06615 0.46635 0.02227 0.0
O356 O 0.97381 0.56439 0.01518 0.0
O357 O 0.93964 0.54171 0.03864 0.0
C358 C 0.95445 0.54113 0.96291 0.0
C359 C 0.95637 0.46613 0.97326 0.0
C360 C 0.95221 0.45247 0.04638 0.0
O361 O 0.94012 0.47738 0.04741 0.0
O362 O 0.97396 0.44527 0.03037 0.0
C363 C 0.04977 0.43957 0.97195 0.0
O364 O 0.06553 0.52538 0.01476 0.0
O365 O 0.02279 0.53287 0.03289 0.0
C366 C 0.04967 0.46145 0.04275 0.0
C367 C 0.04812 0.53555 0.0328 0.0
Fe368 Fe 0.50674 0.49598 0.97124 0.0
O369 O 0.52924 0.47997 1.00181 0.0
Fe370 Fe 0.44445 0.51958 0.00472 0.0
Fe371 Fe 0.56947 0.47841 0.99956 0.0
O372 O 0.48449 0.517 1.00003 0.0
O373 O 0.48464 0.51764 1.00248 0.0
O374 O 0.52941 0.48064 0.00425 0.0
Fe375 Fe 0.507 0.50152 0.03307 0.0
C376 C 0.55335 0.4522 0.94988 0.0
O377 O 0.53005 0.52778 0.96398 0.0
O378 O 0.5716 0.50491 0.96499 0.0
O379 O 0.48023 0.52587 0.05963 0.0
O380 O 0.44826 0.54906 0.03169 0.0
O381 O 0.44793 0.54318 0.96832 0.0
O382 O 0.48046 0.51622 0.9427 0.0
O383 O 0.57216 0.5104 0.02393 0.0
O384 O 0.53053 0.53347 0.02761 0.0
C385 C 0.46101 0.53645 0.94536 0.0
O386 O 0.48359 0.4698 0.04003 0.0
O387 O 0.4422 0.49307 0.03936 0.0
O388 O 0.53337 0.47142 0.9448 0.0
O389 O 0.56596 0.44897 0.97243 0.0
C390 C 0.55518 0.52485 0.95581 0.0
C391 C 0.55614 0.53155 0.0304 0.0
C392 C 0.55337 0.46156 0.05903 0.0
O393 O 0.56633 0.45485 0.036 0.0
O394 O 0.53329 0.4812 0.06158 0.0
C395 C 0.46062 0.54541 0.05435 0.0
O396 O 0.44154 0.48754 0.98051 0.0
O397 O 0.48307 0.46414 0.97681 0.0
C398 C 0.45853 0.47299 0.04845 0.0
C399 C 0.45741 0.46623 0.97419 0.0
Fe400 Fe 1.0016 0.47294 0.50655 0.0
O401 O 0.98459 0.50632 0.52466 0.0
Fe402 Fe 0.02193 0.49958 0.44144 0.0
Fe403 Fe 0.98294 0.50891 0.56422 0.0
O404 O 0.0205 0.49976 0.48148 0.0
O405 O 0.02032 0.5025 0.48097 0.0
O406 O 0.98438 0.50905 0.52414 0.0
Fe407 Fe 1.00328 0.53589 0.49904 0.0
C408 C 0.95839 0.45713 0.55327 0.0
O409 O 0.03421 0.46851 0.53103 0.0
O410 O 0.01124 0.47501 0.57111 0.0
O411 O 0.02663 0.5596 0.47021 0.0
O412 O 0.04996 0.52759 0.4423 0.0
O413 O 0.04758 0.46424 0.44961 0.0
O414 O 0.02271 0.44123 0.48386 0.0
O415 O 0.0143 0.53337 0.56469 0.0
O416 O 0.03576 0.53265 0.52313 0.0
C417 C 0.04255 0.44242 0.46481 0.0
O418 O 0.97064 0.54026 0.47458 0.0
O419 O 0.99327 0.53317 0.43439 0.0
O420 O 0.97822 0.44924 0.53534 0.0
O421 O 0.95464 0.48121 0.56312 0.0
C422 C 0.03281 0.46622 0.557 0.0
C423 C 0.03544 0.53597 0.54851 0.0
C424 C 0.96272 0.56653 0.54119 0.0
O425 O 0.95765 0.54468 0.55635 0.0
O426 O 0.98225 0.56753 0.52178 0.0
C427 C 0.0464 0.55162 0.45226 0.0
O428 O 0.99096 0.47448 0.44118 0.0
O429 O 0.96914 0.47644 0.48244 0.0
C430 C 0.97188 0.54228 0.4486 0.0
C431 C 0.96965 0.47231 0.45724 0.0
Fe432 Fe 0.50329 0.96942 0.50668 0.0
O433 O 0.48388 1.00122 0.526 0.0
Fe434 Fe 0.52092 0.9991 0.44227 0.0
Fe435 Fe 0.48288 0.00325 0.56573 0.0
O436 O 0.51957 0.99853 0.4823 0.0
O437 O 0.51923 0.00133 0.48193 0.0
O438 O 0.48347 0.00408 0.52559 0.0
Fe439 Fe 0.49981 0.03317 0.50114 0.0
C440 C 0.46348 0.94861 0.55448 0.0
O441 O 0.53615 0.96663 0.53053 0.0
O442 O 0.51427 0.97223 0.57132 0.0
O443 O 0.52086 0.05948 0.47287 0.0
O444 O 0.54573 0.03005 0.44331 0.0
O445 O 0.54954 0.96557 0.44926 0.0
O446 O 0.5265 0.93984 0.48274 0.0
O447 O 0.51062 0.03163 0.56608 0.0
O448 O 0.53236 0.03195 0.52484 0.0
C449 C 0.54581 0.94272 0.46337 0.0
O450 O 0.46715 0.03597 0.47694 0.0
O451 O 0.48954 0.03022 0.43635 0.0
O452 O 0.48259 0.94306 0.5351 0.0
O453 O 0.458 0.97231 0.56499 0.0
C454 C 0.53544 0.96395 0.55645 0.0
C455 C 0.53071 0.03746 0.54973 0.0
C456 C 0.45828 0.05986 0.54577 0.0
O457 O 0.45446 0.03677 0.55933 0.0
O458 O 0.47655 0.0628 0.52535 0.0
C459 C 0.5403 0.05376 0.45382 0.0
O460 O 0.49322 0.97068 0.44181 0.0
O461 O 0.47084 0.97035 0.48281 0.0
C462 C 0.46826 0.03882 0.45098 0.0
C463 C 0.47301 0.96462 0.45793 0.0
H464 H 0.10898 0.16643 0.27848 0.0
H465 H 0.0811 0.12954 0.29322 0.0
H466 H 0.13734 0.07286 0.24782 0.0
H467 H 0.16544 0.10996 0.23297 0.0
H468 H 0.05825 0.07921 0.27432 0.0
H469 H 0.15344 0.0607 0.33122 0.0
H470 H 0.14569 0.09231 0.31099 0.0
H471 H 0.15618 0.061 0.29458 0.0
C472 C 0.1147 0.14636 0.2707 0.0
C473 C 0.13955 0.14069 0.25524 0.0
C474 C 0.09863 0.12538 0.27886 0.0
C475 C 0.10747 0.09847 0.27192 0.0
C476 C 0.13028 0.09355 0.25334 0.0
H477 H 0.08095 1.00029 0.42019 0.0
H478 H 0.09334 0.00537 0.37139 0.0
C479 C 0.14635 0.11467 0.24501 0.0
C480 C 0.09803 0.07607 0.29042 0.0
H481 H 0.11446 0.04421 0.35151 0.0
C482 C 0.07068 0.07064 0.29084 0.0
C483 C 0.11443 0.06477 0.31174 0.0
C484 C 0.14405 0.06992 0.31236 0.0
C485 C 0.05871 0.0558 0.31318 0.0
C486 C 0.07426 0.04739 0.33602 0.0
C487 C 0.1023 0.05068 0.33423 0.0
C488 C 0.06175 0.039 0.36331 0.0
C489 C 0.0294 0.05007 0.31229 0.0
C490 C 0.03902 0.05524 0.37506 0.0
C491 C 0.0311 0.0513 0.40281 0.0
C492 C 0.04664 0.03202 0.41941 0.0
C493 C 0.06874 0.01528 0.40767 0.0
C494 C 0.07577 0.0182 0.37977 0.0
H495 H 0.02521 0.04563 0.29129 0.0
H496 H 0.02456 0.03245 0.32652 0.0
H497 H 0.01548 0.06857 0.31775 0.0
H498 H 0.02837 0.0721 0.36329 0.0
H499 H 0.01393 0.06439 0.41159 0.0
H500 H 0.80006 0.16114 0.27517 0.0
H501 H 0.83112 0.13032 0.3036 0.0
H502 H 0.86298 0.20022 0.33215 0.0
H503 H 0.8322 0.23097 0.30417 0.0
H504 H 0.89905 0.13481 0.31435 0.0
H505 H 0.81552 0.15067 0.39664 0.0
H506 H 0.80826 0.15126 0.36116 0.0
H507 H 0.82308 0.17924 0.37333 0.0
C508 C 0.81428 0.16983 0.28688 0.0
C509 C 0.81352 0.1984 0.28774 0.0
C510 C 0.83195 0.15226 0.30307 0.0
C511 C 0.84916 0.16315 0.31992 0.0
C512 C 0.84985 0.19154 0.31919 0.0
H513 H 0.96227 0.09227 0.44156 0.0
H514 H 0.94036 0.12103 0.40465 0.0
C515 C 0.83216 0.20903 0.30329 0.0
C516 C 0.86348 0.14556 0.34117 0.0
H517 H 0.85671 0.12535 0.40887 0.0
C518 C 0.88987 0.13253 0.33501 0.0
C519 C 0.85132 0.14289 0.368 0.0
C520 C 0.82295 0.15663 0.3754 0.0
C521 C 0.90449 0.1167 0.35524 0.0
C522 C 0.89241 0.11433 0.38223 0.0
C523 C 0.86596 0.12735 0.38821 0.0
C524 C 0.90608 0.09728 0.4044 0.0
C525 C 0.93244 0.10223 0.34754 0.0
C526 C 0.89364 0.07498 0.41696 0.0
C527 C 0.90584 0.05879 0.43811 0.0
C528 C 0.93079 0.06457 0.44733 0.0
C529 C 0.94302 0.0873 0.43506 0.0
C530 C 0.93072 0.10355 0.41375 0.0
H531 H 0.93624 0.10131 0.32507 0.0
H532 H 0.94835 0.11347 0.35501 0.0
H533 H 0.93478 0.08101 0.35716 0.0
H534 H 0.87451 0.06994 0.41019 0.0
H535 H 0.8957 0.04157 0.4471 0.0
H536 H 0.85963 0.86125 0.30196 0.0
H537 H 0.8927 0.87378 0.33233 0.0
H538 H 0.91618 0.78804 0.35408 0.0
H539 H 0.88241 0.77567 0.3245 0.0
H540 H 0.90166 0.81409 0.39774 0.0
H541 H 0.97368 0.87405 0.33462 0.0
H542 H 0.93909 0.88748 0.3286 0.0
H543 H 0.95166 0.8531 0.31981 0.0
C544 C 0.8725 0.84517 0.31262 0.0
C545 C 0.86857 0.81758 0.31109 0.0
C546 C 0.89151 0.85227 0.32984 0.0
C547 C 0.90718 0.83182 0.34532 0.0
C548 C 0.90441 0.80415 0.34232 0.0
H549 H 1.00313 0.90084 0.4623 0.0
H550 H 0.99436 0.8682 0.42938 0.0
C551 C 0.88518 0.7971 0.32544 0.0
C552 C 0.92302 0.83939 0.36756 0.0
H553 H 0.96639 0.88452 0.38261 0.0
C554 C 0.91636 0.82898 0.39429 0.0
C555 C 0.94261 0.85839 0.3632 0.0
C556 C 0.95238 0.86863 0.33493 0.0
C557 C 0.927 0.83871 0.41685 0.0
C558 C 0.94429 0.8598 0.41261 0.0
C559 C 0.95281 0.86857 0.38585 0.0
C560 C 0.9502 0.87582 0.43533 0.0
C561 C 0.91874 0.82709 0.44509 0.0
C562 C 0.92831 0.89046 0.44983 0.0
C563 C 0.93323 0.90903 0.46841 0.0
C564 C 0.96016 0.91335 0.47288 0.0
C565 C 0.98217 0.89761 0.45951 0.0
C566 C 0.9772 0.87914 0.44059 0.0
H567 H 0.91431 0.8055 0.44467 0.0
H568 H 0.93498 0.82787 0.4594 0.0
H569 H 0.89976 0.83925 0.45303 0.0
H570 H 0.90733 0.88865 0.44569 0.0
H571 H 0.9159 0.92097 0.47836 0.0
H572 H 0.21595 0.83604 0.30357 0.0
H573 H 0.18192 0.86661 0.32852 0.0
H574 H 0.11817 0.8425 0.28311 0.0
H575 H 0.15229 0.81157 0.25785 0.0
H576 H 0.1413 0.91118 0.30902 0.0
H577 H 0.09582 0.82318 0.36584 0.0
H578 H 0.12925 0.81892 0.34792 0.0
H579 H 0.09908 0.82417 0.3291 0.0
C580 C 0.19475 0.8374 0.2986 0.0
C581 C 0.18679 0.8212 0.27886 0.0
C582 C 0.17534 0.85496 0.31286 0.0
C583 C 0.14753 0.85657 0.30786 0.0
C584 C 0.13954 0.84131 0.28742 0.0
H585 H 0.02456 0.93776 0.42517 0.0
H586 H 0.04272 0.91453 0.38402 0.0
C587 C 0.15905 0.82379 0.27293 0.0
C588 C 0.12718 0.87314 0.32541 0.0
H589 H 0.08203 0.86701 0.38113 0.0
C590 C 0.12793 0.90162 0.32446 0.0
C591 C 0.10963 0.86061 0.3454 0.0
C592 C 0.1083 0.83003 0.3474 0.0
C593 C 0.11257 0.91773 0.34383 0.0
C594 C 0.09658 0.9049 0.36501 0.0
C595 C 0.09441 0.87673 0.36491 0.0
C596 C 0.08501 0.91962 0.38923 0.0
C597 C 0.11413 0.94827 0.34194 0.0
C598 C 0.10282 0.92958 0.40604 0.0
C599 C 0.09265 0.94249 0.42957 0.0
C600 C 0.06434 0.94583 0.4369 0.0
C601 C 0.04646 0.9356 0.42013 0.0
C602 C 0.05676 0.92242 0.39657 0.0
H603 H 0.12004 0.95592 0.32077 0.0
H604 H 0.0942 0.95956 0.34874 0.0
H605 H 0.12989 0.95295 0.35534 0.0
H606 H 0.12475 0.92703 0.40112 0.0
H607 H 0.10709 0.94994 0.44198 0.0
H608 H 0.177 0.76682 0.70047 0.0
H609 H 0.14574 0.79696 0.67251 0.0
H610 H 0.17312 0.8677 0.7042 0.0
H611 H 0.20464 0.83748 0.73265 0.0
H612 H 0.1074 0.86268 0.6918 0.0
H613 H 0.19163 0.84763 0.61011 0.0
H614 H 0.18345 0.81831 0.63202 0.0
H615 H 0.19825 0.84544 0.64585 0.0
C616 C 0.17598 0.78878 0.70199 0.0
C617 C 0.19351 0.79989 0.71841 0.0
C618 C 0.15799 0.80591 0.68613 0.0
C619 C 0.15731 0.83439 0.68633 0.0
C620 C 0.17336 0.84567 0.70404 0.0
H621 H 0.1123 0.95618 0.55959 0.0
H622 H 0.13263 0.92785 0.59698 0.0
C623 C 0.19133 0.82844 0.72018 0.0
C624 C 0.14304 0.85188 0.66507 0.0
H625 H 0.15019 0.87218 0.59746 0.0
C626 C 0.11666 0.86495 0.67118 0.0
C627 C 0.15535 0.85456 0.6383 0.0
C628 C 0.18378 0.84089 0.63099 0.0
C629 C 0.10218 0.88084 0.6509 0.0
C630 C 0.11444 0.88323 0.62401 0.0
C631 C 0.14085 0.87014 0.61808 0.0
C632 C 0.10107 0.90047 0.60188 0.0
C633 C 0.07419 0.89532 0.65843 0.0
C634 C 0.07673 0.89415 0.59197 0.0
C635 C 0.06494 0.91036 0.5704 0.0
C636 C 0.07742 0.93305 0.55844 0.0
C637 C 0.10202 0.93895 0.56831 0.0
C638 C 0.1137 0.92281 0.58974 0.0
H639 H 0.07011 0.89596 0.68091 0.0
H640 H 0.07204 0.91664 0.64907 0.0
H641 H 0.05833 0.88429 0.65054 0.0
H642 H 0.06698 0.87662 0.60079 0.0
H643 H 0.04592 0.90534 0.56339 0.0
H644 H 0.142 0.14678 0.70211 0.0
H645 H 0.10909 0.13359 0.67184 0.0
H646 H 0.08886 0.2186 0.64509 0.0
H647 H 0.12231 0.23171 0.67469 0.0
H648 H 0.05339 0.14693 0.66317 0.0
H649 H 0.1197 0.18474 0.57489 0.0
H650 H 0.13051 0.18137 0.60927 0.0
H651 H 0.1061 0.20956 0.59879 0.0
C652 C 0.13008 0.16263 0.69018 0.0
C653 C 0.1349 0.19015 0.69033 0.0
C654 C 0.11132 0.15514 0.67291 0.0
C655 C 0.097 0.1751 0.65576 0.0
C656 C 0.10017 0.20284 0.65764 0.0
H657 H 0.01887 0.113 0.51816 0.0
H658 H 0.02407 0.14752 0.55085 0.0
C659 C 0.11916 0.21028 0.6746 0.0
C660 C 0.08115 0.1664 0.63413 0.0
H661 H 0.08423 0.16022 0.56523 0.0
C662 C 0.05969 0.15039 0.64171 0.0
C663 C 0.08932 0.17105 0.60607 0.0
C664 C 0.11277 0.18744 0.59664 0.0
C665 C 0.04744 0.13742 0.62211 0.0
C666 C 0.057 0.1405 0.5944 0.0
C667 C 0.07683 0.15824 0.58654 0.0
C668 C 0.05218 0.12044 0.57496 0.0
C669 C 0.02566 0.11896 0.63125 0.0
C670 C 0.06666 0.09431 0.57757 0.0
C671 C 0.06428 0.07505 0.55891 0.0
C672 C 0.04713 0.08132 0.53715 0.0
C673 C 0.03237 0.1076 0.53457 0.0
C674 C 0.03516 0.12722 0.55325 0.0
H675 H 0.01558 0.12409 0.65148 0.0
H676 H 0.00985 0.12045 0.61609 0.0
H677 H 0.03523 0.09737 0.63297 0.0
H678 H 0.0801 0.08885 0.59405 0.0
H679 H 0.07567 0.05497 0.56197 0.0
H680 H 0.85963 0.19057 0.74327 0.0
H681 H 0.89391 0.15868 0.71921 0.0
H682 H 0.83071 0.13406 0.67344 0.0
H683 H 0.7966 0.16569 0.697 0.0
H684 H 0.87245 0.08932 0.6978 0.0
H685 H 0.91541 0.17458 0.63371 0.0
H686 H 0.9105 0.17658 0.67022 0.0
H687 H 0.8813 0.17914 0.65017 0.0
C688 C 0.85305 0.17811 0.72831 0.0
C689 C 0.82546 0.1808 0.72189 0.0
C690 C 0.87263 0.15999 0.71457 0.0
C691 C 0.86478 0.14418 0.6945 0.0
C692 C 0.83713 0.14609 0.68887 0.0
H693 H 0.90482 0.03883 0.56897 0.0
H694 H 0.88777 0.06275 0.60944 0.0
C695 C 0.8177 0.16428 0.70231 0.0
C696 C 0.88515 0.12666 0.67793 0.0
H697 H 0.92836 0.12985 0.62051 0.0
C698 C 0.88514 0.09809 0.68122 0.0
C699 C 0.90182 0.13818 0.6565 0.0
C700 C 0.90241 0.1688 0.65219 0.0
C701 C 0.90038 0.08078 0.66278 0.0
C702 C 0.91532 0.09248 0.64004 0.0
C703 C 0.91677 0.12091 0.63783 0.0
C704 C 0.92674 0.0762 0.61673 0.0
C705 C 0.89981 0.05018 0.6675 0.0
C706 C 0.95426 0.07625 0.6069 0.0
C707 C 0.96408 0.06277 0.5834 0.0
C708 C 0.94643 0.04928 0.56916 0.0
C709 C 0.91899 0.04906 0.57931 0.0
C710 C 0.90925 0.06247 0.60271 0.0
H711 H 0.89678 0.04411 0.68962 0.0
H712 H 0.88236 0.04404 0.65727 0.0
H713 H 0.91903 0.03871 0.65915 0.0
H714 H 0.96806 0.08697 0.61723 0.0
H715 H 0.98534 0.06336 0.57615 0.0
H716 H 0.88576 0.85665 0.77212 0.0
H717 H 0.92041 0.88806 0.75977 0.0
H718 H 0.86382 0.93794 0.70869 0.0
H719 H 0.82914 0.90745 0.7218 0.0
H720 H 0.94005 0.88922 0.71025 0.0
H721 H 0.9058 0.99633 0.72842 0.0
H722 H 0.89021 0.96871 0.74759 0.0
H723 H 0.8774 0.98309 0.7155 0.0
C724 C 0.88039 0.87504 0.75926 0.0
C725 C 0.85502 0.87939 0.74741 0.0
C726 C 0.90019 0.89299 0.75225 0.0
C727 C 0.89481 0.9155 0.73337 0.0
C728 C 0.86845 0.9212 0.72377 0.0
H729 H 0.92004 0.96888 0.58438 0.0
H730 H 0.911 0.96139 0.63353 0.0
C731 C 0.84871 0.90341 0.73085 0.0
C732 C 0.91757 0.92851 0.71816 0.0
H733 H 0.92647 0.98801 0.68036 0.0
C734 C 0.93798 0.91105 0.70457 0.0
C735 C 0.91542 0.95702 0.71104 0.0
C736 C 0.89614 0.97727 0.72676 0.0
C737 C 0.95293 0.92061 0.68119 0.0
C738 C 0.9474 0.94834 0.67153 0.0
C739 C 0.93016 0.96659 0.6875 0.0
C740 C 0.95371 0.95674 0.64257 0.0
C741 C 0.97197 0.9003 0.66519 0.0
C742 C 0.98073 0.95697 0.63148 0.0
C743 C 0.98601 0.96091 0.60324 0.0
C744 C 0.96429 0.96467 0.58577 0.0
C745 C 0.93723 0.96553 0.59717 0.0
C746 C 0.93202 0.96162 0.6253 0.0
H747 H 0.97298 0.87917 0.67503 0.0
H748 H 0.96512 0.89988 0.64426 0.0
H749 H 0.99296 0.90663 0.66334 0.0
H750 H 0.9977 0.95342 0.64454 0.0
H751 H 0.0071 0.96049 0.5951 0.0
H752 H 0.26125 0.17635 0.17716 0.0
H753 H 0.29346 0.14938 0.14646 0.0
H754 H 0.36028 0.18775 0.17334 0.0
H755 H 0.32805 0.21578 0.20278 0.0
H756 H 0.36732 0.18428 0.1219 0.0
H757 H 0.34307 0.08265 0.16608 0.0
H758 H 0.31328 0.10266 0.15355 0.0
H759 H 0.3297 0.11401 0.18154 0.0
C760 C 0.2828 0.17911 0.17634 0.0
C761 C 0.29214 0.19814 0.19236 0.0
C762 C 0.30125 0.16345 0.15905 0.0
C763 C 0.32947 0.16591 0.15812 0.0
C764 C 0.33868 0.18531 0.17377 0.0
H765 H 0.45253 0.04569 0.08211 0.0
H766 H 0.42278 0.07242 0.11524 0.0
C767 C 0.3202 0.20139 0.19056 0.0
C768 C 0.34941 0.14887 0.14038 0.0
H769 H 0.36961 0.08313 0.12326 0.0
C770 C 0.36793 0.16214 0.12241 0.0
C771 C 0.35078 0.11987 0.14141 0.0
C772 C 0.33335 0.10396 0.16191 0.0
C773 C 0.38725 0.14738 0.10508 0.0
C774 C 0.3873 0.11861 0.10473 0.0
C775 C 0.36931 0.10522 0.12319 0.0
C776 C 0.40532 0.10222 0.08488 0.0
C777 C 0.40773 0.16286 0.08774 0.0
C778 C 0.40501 0.10969 0.05683 0.0
C779 C 0.42231 0.09488 0.03807 0.0
C780 C 0.43976 0.07173 0.04685 0.0
C781 C 0.43937 0.06353 0.07482 0.0
C782 C 0.42238 0.07876 0.09371 0.0
H783 H 0.41139 0.18178 0.09728 0.0
H784 H 0.42767 0.15006 0.08446 0.0
H785 H 0.39951 0.16923 0.06758 0.0
H786 H 0.3913 0.127 0.04936 0.0
H787 H 0.42171 0.10137 0.01658 0.0
H788 H 0.82443 0.30873 0.23441 0.0
H789 H 0.85596 0.33375 0.20441 0.0
H790 H 0.82192 0.30716 0.134 0.0
H791 H 0.79087 0.28089 0.1642 0.0
H792 H 0.87665 0.30744 0.12507 0.0
H793 H 0.83353 0.40623 0.16622 0.0
H794 H 0.8467 0.38214 0.19243 0.0
H795 H 0.81793 0.37508 0.17459 0.0
C796 C 0.82362 0.3081 0.21253 0.0
C797 C 0.80478 0.29308 0.20174 0.0
C798 C 0.84165 0.32259 0.19534 0.0
C799 C 0.84091 0.32314 0.16682 0.0
C800 C 0.82281 0.30733 0.15591 0.0
H801 H 0.89769 0.45369 0.05914 0.0
H802 H 0.87292 0.42056 0.08675 0.0
C803 C 0.805 0.29235 0.17319 0.0
C804 C 0.85842 0.34087 0.14867 0.0
H805 H 0.87456 0.40671 0.13784 0.0
C806 C 0.87611 0.32918 0.12776 0.0
C807 C 0.85761 0.36938 0.15183 0.0
C808 C 0.83772 0.384 0.17228 0.0
C809 C 0.89298 0.34511 0.11017 0.0
C810 C 0.89275 0.37345 0.11396 0.0
C811 C 0.87509 0.385 0.13493 0.0
C812 C 0.90878 0.39227 0.09538 0.0
C813 C 0.9102 0.33155 0.08721 0.0
C814 C 0.93749 0.38754 0.09038 0.0
C815 C 0.95191 0.40657 0.07395 0.0
C816 C 0.93795 0.43098 0.06282 0.0
C817 C 0.90928 0.43538 0.06771 0.0
C818 C 0.89497 0.41633 0.08354 0.0
H819 H 0.90265 0.31208 0.08263 0.0
H820 H 0.91039 0.34534 0.06831 0.0
H821 H 0.93158 0.32664 0.0932 0.0
H822 H 0.94886 0.36951 0.09966 0.0
H823 H 0.97397 0.40259 0.07065 0.0
H824 H 0.75136 0.8525 0.20693 0.0
H825 H 0.72795 0.88753 0.17591 0.0
H826 H 0.67413 0.8295 0.15696 0.0
H827 H 0.6974 0.79453 0.18736 0.0
H828 H 0.69509 0.85892 0.11084 0.0
H829 H 0.65086 0.928 0.19156 0.0
H830 H 0.6874 0.91914 0.18965 0.0
H831 H 0.66526 0.89311 0.1995 0.0
C832 C 0.73456 0.84723 0.19612 0.0
C833 C 0.72619 0.82073 0.19978 0.0
C834 C 0.72113 0.86731 0.1785 0.0
C835 C 0.6991 0.86121 0.16432 0.0
C836 C 0.69106 0.83468 0.16768 0.0
H837 H 0.55674 0.93794 0.09824 0.0
H838 H 0.59444 0.91841 0.12529 0.0
C839 C 0.70438 0.81471 0.18519 0.0
C840 C 0.68388 0.88217 0.14612 0.0
H841 H 0.63764 0.93968 0.147 0.0
C842 C 0.68288 0.87687 0.11858 0.0
C843 C 0.66788 0.90549 0.15634 0.0
C844 C 0.66763 0.91184 0.1859 0.0
C845 C 0.66535 0.89345 0.10133 0.0
C846 C 0.64865 0.91626 0.11178 0.0
C847 C 0.65061 0.92232 0.13898 0.0
C848 C 0.62625 0.93141 0.09619 0.0
C849 C 0.66356 0.88539 0.07256 0.0
C850 C 0.6315 0.94608 0.07109 0.0
C851 C 0.60979 0.95733 0.05534 0.0
C852 C 0.58252 0.95401 0.06446 0.0
C853 C 0.57744 0.94061 0.09032 0.0
C854 C 0.59902 0.92951 0.10595 0.0
H855 H 0.67469 0.86482 0.06907 0.0
H856 H 0.64184 0.88526 0.06799 0.0
H857 H 0.67267 0.9006 0.05792 0.0
H858 H 0.65237 0.9482 0.06336 0.0
H859 H 0.61445 0.96762 0.03561 0.0
H860 H 0.1633 0.72386 0.12258 0.0
H861 H 0.13561 0.69518 0.09973 0.0
H862 H 0.09994 0.667 0.17804 0.0
H863 H 0.12796 0.6951 0.20079 0.0
H864 H 0.12443 0.62529 0.14886 0.0
H865 H 0.05542 0.69509 0.08421 0.0
H866 H 0.09066 0.70152 0.07936 0.0
H867 H 0.07222 0.70683 0.11184 0.0
C868 C 0.14884 0.71222 0.13473 0.0
C869 C 0.14768 0.71152 0.16334 0.0
C870 C 0.13301 0.6959 0.12172 0.0
C871 C 0.11563 0.67904 0.13721 0.0
C872 C 0.11318 0.67986 0.16572 0.0
H873 H 0.01603 0.56919 0.06734 0.0
H874 H 0.03093 0.60353 0.09474 0.0
C875 C 0.12912 0.69591 0.17867 0.0
C876 C 0.10302 0.65781 0.12424 0.0
H877 H 0.06142 0.64766 0.07438 0.0
C878 C 0.1104 0.63023 0.13278 0.0
C879 C 0.0846 0.66428 0.10342 0.0
C880 C 0.07502 0.69355 0.09431 0.0
C881 C 0.10047 0.60888 0.12056 0.0
C882 C 0.08307 0.61528 0.09891 0.0
C883 C 0.07495 0.64286 0.09089 0.0
C884 C 0.07409 0.59358 0.08358 0.0
C885 C 0.10878 0.57964 0.13086 0.0
C886 C 0.09348 0.57654 0.06844 0.0
C887 C 0.0851 0.5569 0.05281 0.0
C888 C 0.05712 0.55401 0.05193 0.0
C889 C 0.03776 0.57074 0.06766 0.0
C890 C 0.04619 0.59049 0.08321 0.0
H891 H 0.11573 0.5785 0.15191 0.0
H892 H 0.09155 0.56699 0.13071 0.0
H893 H 0.12602 0.5706 0.11733 0.0
H894 H 0.1151 0.57888 0.06819 0.0
H895 H 0.10055 0.54445 0.04089 0.0
H896 H 0.29057 0.87036 0.83376 0.0
H897 H 0.32116 0.89444 0.85805 0.0
H898 H 0.36564 0.81712 0.88334 0.0
H899 H 0.33593 0.79289 0.85849 0.0
H900 H 0.3485 0.85813 0.92603 0.0
H901 H 0.4054 0.89864 0.83249 0.0
H902 H 0.36853 0.90297 0.83346 0.0
H903 H 0.38665 0.86919 0.83256 0.0
C904 C 0.30692 0.85844 0.84436 0.0
C905 C 0.31072 0.82962 0.84409 0.0
C906 C 0.32432 0.87225 0.85828 0.0
C907 C 0.34575 0.85752 0.87223 0.0
C908 C 0.34919 0.82882 0.87265 0.0
H909 H 0.46981 0.89413 0.97564 0.0
H910 H 0.43947 0.87218 0.94921 0.0
C911 C 0.33198 0.815 0.85862 0.0
C912 C 0.3648 0.87192 0.8863 0.0
H913 H 0.41802 0.91087 0.8748 0.0
C914 C 0.36371 0.8697 0.9149 0.0
C915 C 0.38444 0.88707 0.87162 0.0
C916 C 0.38661 0.88961 0.84082 0.0
C917 C 0.3817 0.88241 0.92932 0.0
C918 C 0.40186 0.89703 0.91465 0.0
C919 C 0.4027 0.89951 0.886 0.0
C920 C 0.42212 0.91001 0.92875 0.0
C921 C 0.37853 0.88051 0.96013 0.0
C922 C 0.4236 0.93836 0.92486 0.0
C923 C 0.44127 0.95095 0.93961 0.0
C924 C 0.45777 0.93537 0.9586 0.0
C925 C 0.45718 0.90677 0.96143 0.0
C926 C 0.43968 0.89421 0.94649 0.0
H927 H 0.35769 0.87576 0.96779 0.0
H928 H 0.39351 0.86377 0.96814 0.0
H929 H 0.38243 0.89995 0.9685 0.0
H930 H 0.41041 0.95092 0.91108 0.0
H931 H 0.44114 0.97302 0.93693 0.0
H932 H 0.21139 0.30216 0.8308 0.0
H933 H 0.17795 0.32131 0.86529 0.0
H934 H 0.11846 0.27155 0.84136 0.0
H935 H 0.15192 0.25231 0.80635 0.0
H936 H 0.09818 0.32589 0.84403 0.0
H937 H 0.14831 0.28964 0.93873 0.0
H938 H 0.17155 0.30533 0.91429 0.0
H939 H 0.15809 0.27449 0.90657 0.0
C940 C 0.19132 0.29499 0.83301 0.0
C941 C 0.18433 0.27571 0.81577 0.0
C942 C 0.17227 0.3058 0.85296 0.0
C943 C 0.14586 0.29749 0.85627 0.0
C944 C 0.13884 0.27801 0.83933 0.0
H945 H 0.04214 0.38528 0.98459 0.0
H946 H 0.05965 0.34591 0.95766 0.0
C947 C 0.15797 0.26706 0.81935 0.0
C948 C 0.12515 0.31122 0.87575 0.0
H949 H 0.11706 0.33177 0.94091 0.0
C950 C 0.10192 0.32662 0.86539 0.0
C951 C 0.12968 0.31178 0.90376 0.0
C952 C 0.15312 0.29416 0.91654 0.0
C953 C 0.08453 0.34445 0.88169 0.0
C954 C 0.09076 0.34713 0.90887 0.0
C955 C 0.1125 0.32992 0.91995 0.0
C956 C 0.07792 0.37047 0.92447 0.0
C957 C 0.06034 0.36125 0.86935 0.0
C958 C 0.08254 0.39713 0.91474 0.0
C959 C 0.07296 0.41941 0.93006 0.0
C960 C 0.05847 0.41559 0.95554 0.0
C961 C 0.05322 0.38889 0.96504 0.0
C962 C 0.06318 0.36641 0.94972 0.0
H963 H 0.05321 0.35092 0.85231 0.0
H964 H 0.04301 0.36506 0.8849 0.0
H965 H 0.0665 0.38137 0.86101 0.0
H966 H 0.09427 0.40066 0.89554 0.0
H967 H 0.07718 0.43967 0.92195 0.0
H968 H 0.71582 0.16073 0.77339 0.0
H969 H 0.68945 0.12932 0.80225 0.0
H970 H 0.70849 0.16697 0.87387 0.0
H971 H 0.73614 0.19771 0.845 0.0
H972 H 0.70804 0.11276 0.88465 0.0
H973 H 0.6141 0.1531 0.83311 0.0
H974 H 0.64059 0.13856 0.80975 0.0
H975 H 0.64554 0.16858 0.82688 0.0
C976 C 0.7146 0.1622 0.79531 0.0
C977 C 0.72781 0.18197 0.80688 0.0
C978 C 0.69934 0.14431 0.81182 0.0
C979 C 0.69618 0.14624 0.84025 0.0
C980 C 0.71037 0.16516 0.85199 0.0
H981 H 0.55739 0.09853 0.94003 0.0
H982 H 0.59331 0.12067 0.91372 0.0
C983 C 0.72616 0.18276 0.83548 0.0
C984 C 0.67713 0.12946 0.85745 0.0
H985 H 0.61094 0.11423 0.86388 0.0
C986 C 0.68677 0.11312 0.88018 0.0
C987 C 0.64923 0.13011 0.8519 0.0
C988 C 0.63666 0.14874 0.82928 0.0
C989 C 0.66934 0.09756 0.89744 0.0
C990 C 0.64162 0.09772 0.89142 0.0
C991 C 0.63218 0.11382 0.8685 0.0
C992 C 0.62115 0.08351 0.90958 0.0
C993 C 0.68056 0.08191 0.92244 0.0
C994 C 0.62478 0.05506 0.91674 0.0
C995 C 0.60414 0.04225 0.93245 0.0
C996 C 0.57932 0.05759 0.94057 0.0
C997 C 0.57606 0.08599 0.93369 0.0
C998 C 0.59668 0.09874 0.91863 0.0
H999 H 0.69967 0.08951 0.92791 0.0
H1000 H 0.66533 0.08346 0.94024 0.0
H1001 H 0.68542 0.05994 0.91831 0.0
H1002 H 0.64318 0.04264 0.90962 0.0
H1003 H 0.60719 0.02034 0.93743 0.0
H1004 H 0.85285 0.74194 0.79995 0.0
H1005 H 0.88334 0.70973 0.82748 0.0
H1006 H 0.82067 0.65506 0.84065 0.0
H1007 H 0.79017 0.68687 0.81318 0.0
H1008 H 0.84826 0.67003 0.88963 0.0
H1009 H 0.91934 0.63029 0.80436 0.0
H1010 H 0.91031 0.66682 0.80528 0.0
H1011 H 0.88475 0.6454 0.79897 0.0
C1012 C 0.84553 0.7231 0.80878 0.0
C1013 C 0.81908 0.71697 0.80434 0.0
C1014 C 0.86304 0.70467 0.82433 0.0
C1015 C 0.85431 0.67993 0.8358 0.0
C1016 C 0.82781 0.67399 0.8318 0.0
H1017 H 0.90353 0.54275 0.94485 0.0
H1018 H 0.88161 0.57659 0.91226 0.0
C1019 C 0.81041 0.69223 0.81612 0.0
C1020 C 0.87237 0.66036 0.85261 0.0
H1021 H 0.92723 0.61096 0.84873 0.0
C1022 C 0.86563 0.65723 0.88075 0.0
C1023 C 0.89514 0.64392 0.84093 0.0
C1024 C 0.90294 0.64652 0.81071 0.0
C1025 C 0.88081 0.63775 0.89754 0.0
C1026 C 0.90288 0.62039 0.88572 0.0
C1027 C 0.9102 0.62412 0.85768 0.0
C1028 C 0.91761 0.5976 0.90221 0.0
C1029 C 0.87307 0.636 0.92784 0.0
C1030 C 0.94567 0.59704 0.90601 0.0
C1031 C 0.95845 0.57735 0.92442 0.0
C1032 C 0.94325 0.55805 0.93932 0.0
C1033 C 0.91568 0.55757 0.93395 0.0
C1034 C 0.90308 0.577 0.91545 0.0
H1035 H 0.86164 0.65547 0.93453 0.0
H1036 H 0.85962 0.61947 0.93271 0.0
H1037 H 0.89149 0.63115 0.93976 0.0
H1038 H 0.95733 0.61261 0.89576 0.0
H1039 H 0.9797 0.57827 0.92819 0.0
H1040 H 0.22078 0.32181 0.19273 0.0
H1041 H 0.19014 0.35409 0.16569 0.0
H1042 H 0.12845 0.29819 0.17607 0.0
H1043 H 0.15895 0.26566 0.20304 0.0
H1044 H 0.16391 0.34124 0.11593 0.0
H1045 H 0.08994 0.37492 0.20145 0.0
H1046 H 0.12451 0.3598 0.20693 0.0
H1047 H 0.09929 0.33861 0.1991 0.0
C1048 C 0.20073 0.31632 0.18921 0.0
C1049 C 0.19231 0.29115 0.20005 0.0
C1050 C 0.18325 0.33481 0.17382 0.0
C1051 C 0.15694 0.32864 0.16925 0.0
C1052 C 0.14855 0.30345 0.17973 0.0
H1053 H 0.02735 0.42216 0.07711 0.0
H1054 H 0.05195 0.38974 0.10976 0.0
C1055 C 0.16609 0.28483 0.19495 0.0
C1056 C 0.13863 0.34833 0.15286 0.0
H1057 H 0.08061 0.39378 0.15716 0.0
C1058 C 0.14568 0.35272 0.1249 0.0
C1059 C 0.11474 0.36299 0.16465 0.0
C1060 C 0.10658 0.35909 0.19471 0.0
C1061 C 0.12951 0.37151 0.10834 0.0
C1062 C 0.10607 0.38692 0.12025 0.0
C1063 C 0.09866 0.38209 0.14814 0.0
C1064 C 0.08969 0.40862 0.10397 0.0
C1065 C 0.13756 0.37446 0.07814 0.0
C1066 C 0.10229 0.43072 0.0911 0.0
C1067 C 0.08844 0.449 0.07246 0.0
C1068 C 0.06153 0.44584 0.06667 0.0
C1069 C 0.04805 0.4251 0.08128 0.0
C1070 C 0.06211 0.40653 0.09979 0.0
H1071 H 0.15074 0.35604 0.07115 0.0
H1072 H 0.11922 0.37788 0.06599 0.0
H1073 H 0.14936 0.39236 0.07387 0.0
H1074 H 0.12329 0.43315 0.0946 0.0
H1075 H 0.0992 0.465 0.06172 0.0
H1076 H 0.18029 0.69158 0.77054 0.0
H1077 H 0.14671 0.66805 0.79943 0.0
H1078 H 0.17944 0.69349 0.87119 0.0
H1079 H 0.21221 0.71841 0.84212 0.0
H1080 H 0.15353 0.62666 0.83241 0.0
H1081 H 0.10068 0.70946 0.89337 0.0
H1082 H 0.1238 0.71626 0.8641 0.0
H1083 H 0.13688 0.70583 0.89697 0.0
C1084 C 0.18014 0.69246 0.79249 0.0
C1085 C 0.19895 0.7069 0.80402 0.0
C1086 C 0.16087 0.67896 0.80905 0.0
C1087 C 0.16005 0.67915 0.83766 0.0
C1088 C 0.17887 0.69362 0.84925 0.0
H1089 H 0.10521 0.5486 0.94501 0.0
H1090 H 0.12901 0.58142 0.91585 0.0
C1091 C 0.19784 0.70767 0.8326 0.0
C1092 C 0.141 0.66242 0.85506 0.0
H1093 H 0.09474 0.66328 0.91072 0.0
C1094 C 0.14048 0.63492 0.8493 0.0
C1095 C 0.1234 0.67302 0.87692 0.0
C1096 C 0.12096 0.70284 0.88301 0.0
C1097 C 0.12372 0.61767 0.86504 0.0
C1098 C 0.10767 0.62767 0.88808 0.0
C1099 C 0.10732 0.65541 0.89336 0.0
C1100 C 0.09262 0.60905 0.90762 0.0
C1101 C 0.12334 0.58883 0.85657 0.0
C1102 C 0.06421 0.61425 0.91418 0.0
C1103 C 0.05037 0.59549 0.93152 0.0
C1104 C 0.06475 0.57116 0.94233 0.0
C1105 C 0.09329 0.56672 0.93649 0.0
C1106 C 0.10702 0.5855 0.91968 0.0
H1107 H 0.12841 0.58758 0.83427 0.0
H1108 H 0.13902 0.57487 0.86731 0.0
H1109 H 0.10302 0.5814 0.8617 0.0
H1110 H 0.05266 0.63247 0.90541 0.0
H1111 H 0.02844 0.59961 0.93581 0.0
H1112 H 0.3055 0.21085 0.81697 0.0
H1113 H 0.32909 0.1757 0.84686 0.0
H1114 H 0.27802 0.1166 0.82455 0.0
H1115 H 0.25425 0.1519 0.79399 0.0
H1116 H 0.3083 0.14461 0.89163 0.0
H1117 H 0.35629 0.07851 0.80992 0.0
H1118 H 0.34101 0.11319 0.80251 0.0
H1119 H 0.31963 0.08629 0.81126 0.0
C1120 C 0.29918 0.19041 0.81827 0.0
C1121 C 0.27802 0.18421 0.80288 0.0
C1122 C 0.3127 0.17031 0.83551 0.0
C1123 C 0.30554 0.14343 0.83782 0.0
C1124 C 0.28418 0.13711 0.8228 0.0
H1125 H 0.39095 0.03673 0.96608 0.0
H1126 H 0.35308 0.05585 0.93813 0.0
C1127 C 0.27054 0.15733 0.80543 0.0
C1128 C 0.32095 0.12244 0.85589 0.0
H1129 H 0.36904 0.06638 0.85456 0.0
C1130 C 0.32123 0.12719 0.88367 0.0
C1131 C 0.33791 0.09982 0.84541 0.0
C1132 C 0.33898 0.09408 0.81563 0.0
C1133 C 0.33894 0.11081 0.90093 0.0
C1134 C 0.35659 0.08873 0.89023 0.0
C1135 C 0.35537 0.08318 0.86277 0.0
C1136 C 0.37909 0.07391 0.90599 0.0
C1137 C 0.33986 0.11836 0.92999 0.0
C1138 C 0.4063 0.07664 0.89669 0.0
C1139 C 0.42786 0.0657 0.91245 0.0
C1140 C 0.42282 0.05162 0.93797 0.0
C1141 C 0.3956 0.04755 0.94662 0.0
C1142 C 0.3739 0.05863 0.93076 0.0
H1143 H 0.32808 0.13858 0.93373 0.0
H1144 H 0.33095 0.1026 0.94411 0.0
H1145 H 0.36136 0.11901 0.93507 0.0
H1146 H 0.41086 0.08822 0.87763 0.0
H1147 H 0.44852 0.06898 0.90485 0.0
H1148 H 0.85816 0.26211 0.87659 0.0
H1149 H 0.88648 0.28754 0.90233 0.0
H1150 H 0.89046 0.34857 0.83491 0.0
H1151 H 0.86412 0.32249 0.80863 0.0
H1152 H 0.93694 0.34156 0.85802 0.0
H1153 H 0.85174 0.35427 0.93856 0.0
H1154 H 0.86594 0.31944 0.93431 0.0
H1155 H 0.84812 0.33871 0.90724 0.0
C1156 C 0.86566 0.2806 0.86709 0.0
C1157 C 0.85825 0.29073 0.8409 0.0
C1158 C 0.88154 0.29529 0.88192 0.0
C1159 C 0.88979 0.32046 0.8709 0.0
C1160 C 0.88406 0.32941 0.84403 0.0
H1161 H 0.9068 0.46417 0.95271 0.0
H1162 H 0.89327 0.42775 0.92703 0.0
C1163 C 0.86868 0.31462 0.82913 0.0
C1164 C 0.90259 0.33881 0.88749 0.0
H1165 H 0.89013 0.377 0.94314 0.0
C1166 C 0.92683 0.34921 0.87675 0.0
C1167 C 0.88914 0.34903 0.91173 0.0
C1168 C 0.86219 0.34002 0.92357 0.0
C1169 C 0.93738 0.37031 0.88888 0.0
C1170 C 0.9239 0.38052 0.91311 0.0
C1171 C 0.90035 0.36928 0.92448 0.0
C1172 C 0.93302 0.40355 0.92659 0.0
C1173 C 0.96199 0.3823 0.87475 0.0
C1174 C 0.95994 0.40232 0.9345 0.0
C1175 C 0.96787 0.4235 0.9484 0.0
C1176 C 0.94878 0.44588 0.95542 0.0
C1177 C 0.9219 0.44719 0.94745 0.0
C1178 C 0.91417 0.42633 0.93292 0.0
H1179 H 0.96444 0.37822 0.85274 0.0
H1180 H 0.96041 0.40482 0.87649 0.0
H1181 H 0.98078 0.3727 0.88431 0.0
H1182 H 0.97465 0.38464 0.93067 0.0
H1183 H 0.98863 0.42169 0.95477 0.0
H1184 H 0.6801 0.78729 0.80266 0.0
H1185 H 0.64707 0.81504 0.83166 0.0
H1186 H 0.71284 0.85379 0.86018 0.0
H1187 H 0.74582 0.82711 0.82999 0.0
H1188 H 0.63852 0.81919 0.88307 0.0
H1189 H 0.6638 0.92029 0.83842 0.0
H1190 H 0.67753 0.88871 0.82359 0.0
H1191 H 0.69327 0.90046 0.85181 0.0
C1192 C 0.68755 0.80165 0.81521 0.0
C1193 C 0.71553 0.80517 0.81394 0.0
C1194 C 0.66862 0.81758 0.83173 0.0
C1195 C 0.6773 0.83711 0.8476 0.0
C1196 C 0.70545 0.83966 0.84738 0.0
H1197 H 0.58303 0.90338 0.98693 0.0
H1198 H 0.61353 0.87721 0.95468 0.0
C1199 C 0.72435 0.82414 0.83039 0.0
C1200 C 0.6569 0.85436 0.86469 0.0
H1201 H 0.63646 0.92039 0.88079 0.0
C1202 C 0.63797 0.84134 0.88236 0.0
C1203 C 0.65557 0.88338 0.86334 0.0
C1204 C 0.67343 0.89903 0.84303 0.0
C1205 C 0.61833 0.85635 0.8992 0.0
C1206 C 0.61835 0.88515 0.89932 0.0
C1207 C 0.6367 0.89829 0.88106 0.0
C1208 C 0.60013 0.9018 0.91881 0.0
C1209 C 0.59751 0.84112 0.9163 0.0
C1210 C 0.58337 0.92533 0.90961 0.0
C1211 C 0.56631 0.94088 0.92821 0.0
C1212 C 0.56554 0.93294 0.95625 0.0
C1213 C 0.5827 0.9097 0.96538 0.0
C1214 C 0.60005 0.89456 0.94692 0.0
H1215 H 0.59392 0.82216 0.9068 0.0
H1216 H 0.60536 0.83485 0.93664 0.0
H1217 H 0.57759 0.85405 0.91919 0.0
H1218 H 0.58329 0.9315 0.88803 0.0
H1219 H 0.5534 0.95877 0.92064 0.0
H1220 H 0.7919 0.70042 0.1761 0.0
H1221 H 0.82512 0.68044 0.14184 0.0
H1222 H 0.88442 0.73186 0.16297 0.0
H1223 H 0.85123 0.75192 0.19779 0.0
H1224 H 0.85331 0.70617 0.09622 0.0
H1225 H 0.9244 0.65316 0.17134 0.0
H1226 H 0.88979 0.66679 0.18153 0.0
H1227 H 0.91547 0.68957 0.17289 0.0
C1228 C 0.81196 0.7076 0.1735 0.0
C1229 C 0.81898 0.72764 0.18984 0.0
C1230 C 0.83091 0.6962 0.15382 0.0
C1231 C 0.8573 0.70446 0.15006 0.0
C1232 C 0.86427 0.72493 0.16583 0.0
H1233 H 0.97974 0.60653 0.04407 0.0
H1234 H 0.96077 0.64643 0.06972 0.0
C1235 C 0.84525 0.73644 0.18561 0.0
C1236 C 0.87734 0.69079 0.13 0.0
H1237 H 0.93259 0.64196 0.12576 0.0
C1238 C 0.87101 0.69257 0.10255 0.0
C1239 C 0.90053 0.67322 0.13829 0.0
C1240 C 0.90804 0.67032 0.16761 0.0
C1241 C 0.88621 0.67598 0.08354 0.0
C1242 C 0.9081 0.65696 0.09229 0.0
C1243 C 0.91578 0.65663 0.11919 0.0
C1244 C 0.91983 0.63422 0.07541 0.0
C1245 C 0.87793 0.6779 0.05452 0.0
C1246 C 0.90312 0.61423 0.0704 0.0
C1247 C 0.91384 0.59149 0.05623 0.0
C1248 C 0.94156 0.58824 0.04659 0.0
C1249 C 0.95828 0.60856 0.05115 0.0
C1250 C 0.94752 0.63128 0.06578 0.0
H1251 H 0.86677 0.6983 0.04902 0.0
H1252 H 0.8961 0.67419 0.03992 0.0
H1253 H 0.86408 0.66208 0.05229 0.0
H1254 H 0.8818 0.61593 0.078 0.0
H1255 H 0.90034 0.57636 0.05292 0.0
H1256 H 0.31501 0.81846 0.21978 0.0
H1257 H 0.34042 0.84906 0.18907 0.0
H1258 H 0.28384 0.84554 0.12712 0.0
H1259 H 0.25804 0.81456 0.15791 0.0
H1260 H 0.36466 0.83589 0.13478 0.0
H1261 H 0.28974 0.93 0.13314 0.0
H1262 H 0.28856 0.9033 0.16034 0.0
H1263 H 0.27762 0.89787 0.12744 0.0
C1264 C 0.30775 0.8242 0.19969 0.0
C1265 C 0.28439 0.81394 0.19137 0.0
C1266 C 0.32238 0.84177 0.18214 0.0
C1267 C 0.31395 0.84982 0.15588 0.0
C1268 C 0.29053 0.83988 0.14744 0.0
H1269 H 0.39734 0.9564 0.03156 0.0
H1270 H 0.36251 0.93033 0.05642 0.0
C1271 C 0.27588 0.82206 0.16501 0.0
C1272 C 0.33071 0.86758 0.13724 0.0
H1273 H 0.33225 0.93289 0.10826 0.0
C1274 C 0.35749 0.85703 0.12883 0.0
C1275 C 0.32128 0.89511 0.12926 0.0
C1276 C 0.29279 0.90748 0.13803 0.0
C1277 C 0.37525 0.87332 0.11313 0.0
C1278 C 0.36632 0.90125 0.10618 0.0
C1279 C 0.33918 0.91159 0.11374 0.0
C1280 C 0.38549 0.92004 0.09225 0.0
C1281 C 0.4035 0.86036 0.10411 0.0
C1282 C 0.40937 0.92406 0.10458 0.0
C1283 C 0.42922 0.9388 0.09047 0.0
C1284 C 0.42557 0.95029 0.06377 0.0
C1285 C 0.40075 0.94796 0.05213 0.0
C1286 C 0.38088 0.93293 0.06627 0.0
H1287 H 0.40422 0.83772 0.10378 0.0
H1288 H 0.41022 0.86878 0.08346 0.0
H1289 H 0.41831 0.8647 0.1187 0.0
H1290 H 0.4131 0.91496 0.12487 0.0
H1291 H 0.44792 0.94043 0.10021 0.0
H1292 H 0.71523 0.17886 0.12932 0.0
H1293 H 0.68692 0.15563 0.10127 0.0
H1294 H 0.64298 0.12525 0.17416 0.0
H1295 H 0.67112 0.14812 0.20216 0.0
H1296 H 0.67404 0.09815 0.1023 0.0
H1297 H 0.58405 0.17293 0.12869 0.0
H1298 H 0.61876 0.17893 0.13365 0.0
H1299 H 0.60125 0.15635 0.15743 0.0
C1300 C 0.69993 0.16673 0.13932 0.0
C1301 C 0.69511 0.16563 0.16789 0.0
C1302 C 0.68371 0.1536 0.12331 0.0
C1303 C 0.66251 0.13923 0.13567 0.0
C1304 C 0.65888 0.13669 0.16422 0.0
H1305 H 0.56004 0.03201 0.06906 0.0
H1306 H 0.59158 0.05241 0.09546 0.0
C1307 C 0.67498 0.14975 0.18017 0.0
C1308 C 0.6431 0.12812 0.11895 0.0
H1309 H 0.57561 0.13474 0.10514 0.0
C1310 C 0.65255 0.10617 0.10279 0.0
C1311 C 0.61514 0.13889 0.11941 0.0
C1312 C 0.60413 0.16323 0.13552 0.0
C1313 C 0.63456 0.09424 0.08757 0.0
C1314 C 0.60639 0.1044 0.08882 0.0
C1315 C 0.59713 0.12679 0.10446 0.0
C1316 C 0.58624 0.09234 0.07373 0.0
C1317 C 0.64588 0.07108 0.07003 0.0
C1318 C 0.57187 0.10835 0.05353 0.0
C1319 C 0.55362 0.09685 0.03852 0.0
C1320 C 0.54922 0.0691 0.04353 0.0
C1321 C 0.56288 0.05343 0.06458 0.0
C1322 C 0.58117 0.06496 0.07953 0.0
H1323 H 0.66846 0.07027 0.06604 0.0
H1324 H 0.64131 0.0513 0.0807 0.0
H1325 H 0.63627 0.07316 0.05017 0.0
H1326 H 0.57529 0.12961 0.04892 0.0
H1327 H 0.54349 0.10955 0.02251 0.0
H1328 H 0.63937 0.68583 0.75234 0.0
H1329 H 0.60504 0.65756 0.77463 0.0
H1330 H 0.66974 0.60059 0.8074 0.0
H1331 H 0.70384 0.62842 0.78494 0.0
H1332 H 0.62336 0.57549 0.79492 0.0
H1333 H 0.59608 0.66604 0.85766 0.0
H1334 H 0.59231 0.67107 0.82153 0.0
H1335 H 0.62589 0.66347 0.83398 0.0
C1336 C 0.64617 0.66665 0.76336 0.0
C1337 C 0.67409 0.65932 0.76729 0.0
C1338 C 0.6266 0.65069 0.77625 0.0
C1339 C 0.63491 0.62739 0.79315 0.0
C1340 C 0.66292 0.61858 0.79456 0.0
H1341 H 0.60654 0.52321 0.93035 0.0
H1342 H 0.62054 0.54834 0.88803 0.0
C1343 C 0.68238 0.63446 0.78177 0.0
C1344 C 0.61531 0.61452 0.81284 0.0
H1345 H 0.58073 0.62467 0.87469 0.0
C1346 C 0.61346 0.58635 0.81205 0.0
C1347 C 0.60245 0.62878 0.83519 0.0
C1348 C 0.60428 0.65897 0.83741 0.0
C1349 C 0.60042 0.57174 0.83381 0.0
C1350 C 0.58942 0.58564 0.85701 0.0
C1351 C 0.58942 0.61412 0.8569 0.0
C1352 C 0.58054 0.57067 0.88265 0.0
C1353 C 0.59937 0.54137 0.8322 0.0
C1354 C 0.55373 0.57588 0.89426 0.0
C1355 C 0.54569 0.56175 0.91866 0.0
C1356 C 0.56444 0.54231 0.93195 0.0
C1357 C 0.59155 0.53793 0.92067 0.0
C1358 C 0.59952 0.55203 0.89629 0.0
H1359 H 0.60042 0.53575 0.81065 0.0
H1360 H 0.61721 0.52991 0.84202 0.0
H1361 H 0.58036 0.53475 0.84295 0.0
H1362 H 0.53893 0.59053 0.88419 0.0
H1363 H 0.52461 0.5656 0.92673 0.0
H1364 H 0.32319 0.65802 0.74721 0.0
H1365 H 0.35904 0.62576 0.7676 0.0
H1366 H 0.36044 0.67889 0.8333 0.0
H1367 H 0.3253 0.71136 0.8129 0.0
H1368 H 0.41238 0.65828 0.81362 0.0
H1369 H 0.34425 0.57532 0.83525 0.0
H1370 H 0.34881 0.58807 0.80024 0.0
H1371 H 0.33115 0.61006 0.82501 0.0
C1372 C 0.33124 0.66284 0.76595 0.0
C1373 C 0.32125 0.68713 0.77857 0.0
C1374 C 0.35164 0.64437 0.77759 0.0
C1375 C 0.3621 0.64979 0.80213 0.0
C1376 C 0.35263 0.67433 0.81433 0.0
H1377 H 0.43681 0.58906 0.94151 0.0
H1378 H 0.4185 0.61462 0.90129 0.0
C1379 C 0.33245 0.69282 0.80268 0.0
C1380 C 0.38212 0.62975 0.81608 0.0
H1381 H 0.38746 0.56807 0.85302 0.0
C1382 C 0.40716 0.63833 0.82183 0.0
C1383 C 0.3753 0.60368 0.82664 0.0
C1384 C 0.34838 0.59367 0.82171 0.0
C1385 C 0.42485 0.62219 0.83914 0.0
C1386 C 0.41721 0.59696 0.85099 0.0
C1387 C 0.39318 0.58746 0.84376 0.0
C1388 C 0.43142 0.5823 0.87402 0.0
C1389 C 0.45103 0.63271 0.8456 0.0
C1390 C 0.44481 0.55569 0.87189 0.0
C1391 C 0.45549 0.54101 0.89489 0.0
C1392 C 0.45231 0.5526 0.9204 0.0
C1393 C 0.43939 0.5795 0.92221 0.0
C1394 C 0.42913 0.59422 0.89921 0.0
H1395 H 0.45764 0.64813 0.82958 0.0
H1396 H 0.44763 0.64269 0.86527 0.0
H1397 H 0.46777 0.61563 0.84773 0.0
H1398 H 0.44648 0.54612 0.8526 0.0
H1399 H 0.46526 0.52027 0.89292 0.0
H1400 H 0.3 0.34702 0.84522 0.0
H1401 H 0.32821 0.36954 0.87342 0.0
H1402 H 0.40001 0.344 0.82176 0.0
H1403 H 0.3716 0.32177 0.79306 0.0
H1404 H 0.36982 0.345 0.90283 0.0
H1405 H 0.40798 0.42433 0.82793 0.0
H1406 H 0.38001 0.40556 0.82155 0.0
H1407 H 0.41477 0.3898 0.81759 0.0
C1408 C 0.32177 0.34644 0.83971 0.0
C1409 C 0.33364 0.33262 0.81698 0.0
C1410 C 0.33787 0.35929 0.85585 0.0
C1411 C 0.36621 0.3586 0.84967 0.0
C1412 C 0.37811 0.34526 0.82664 0.0
H1413 H 0.48518 0.42852 0.94084 0.0
H1414 H 0.46536 0.39901 0.91144 0.0
C1415 C 0.3619 0.33255 0.81028 0.0
C1416 C 0.38313 0.37083 0.86827 0.0
H1417 H 0.4249 0.42104 0.87185 0.0
C1418 C 0.38195 0.36155 0.896 0.0
C1419 C 0.3991 0.39232 0.85934 0.0
C1420 C 0.40044 0.40381 0.83004 0.0
C1421 C 0.39579 0.37354 0.9151 0.0
C1422 C 0.41113 0.39545 0.90629 0.0
C1423 C 0.41315 0.40414 0.87847 0.0
C1424 C 0.42342 0.41105 0.92591 0.0
C1425 C 0.39371 0.36289 0.94463 0.0
C1426 C 0.40639 0.42728 0.94399 0.0
C1427 C 0.41758 0.44423 0.96068 0.0
C1428 C 0.44606 0.4452 0.9597 0.0
C1429 C 0.46318 0.42806 0.94231 0.0
C1430 C 0.45191 0.41131 0.92538 0.0
H1431 H 0.38699 0.34201 0.94699 0.0
H1432 H 0.4137 0.36232 0.95383 0.0
H1433 H 0.37845 0.37682 0.95622 0.0
H1434 H 0.38433 0.42758 0.94447 0.0
H1435 H 0.40383 0.45718 0.97379 0.0
H1436 H 0.72938 0.31421 0.80981 0.0
H1437 H 0.69454 0.34462 0.83396 0.0
H1438 H 0.63311 0.32289 0.78412 0.0
H1439 H 0.66805 0.29205 0.75972 0.0
H1440 H 0.65792 0.3901 0.81425 0.0
H1441 H 0.60349 0.30462 0.86409 0.0
H1442 H 0.63764 0.29893 0.84794 0.0
H1443 H 0.6087 0.30608 0.82745 0.0
C1444 C 0.70851 0.31594 0.80378 0.0
C1445 C 0.7015 0.30049 0.78291 0.0
C1446 C 0.68861 0.33343 0.8176 0.0
C1447 C 0.66117 0.33581 0.81109 0.0
C1448 C 0.65412 0.32109 0.78972 0.0
H1449 H 0.5441 0.45842 0.8951 0.0
H1450 H 0.56637 0.4305 0.85862 0.0
C1451 C 0.67413 0.30361 0.7757 0.0
C1452 C 0.64016 0.35305 0.82754 0.0
H1453 H 0.58801 0.34908 0.87711 0.0
C1454 C 0.64231 0.38126 0.82768 0.0
C1455 C 0.62 0.34138 0.84523 0.0
C1456 C 0.61726 0.31108 0.84646 0.0
C1457 C 0.62543 0.39795 0.84561 0.0
C1458 C 0.60571 0.38615 0.86376 0.0
C1459 C 0.60299 0.35811 0.86304 0.0
C1460 C 0.58998 0.40184 0.88565 0.0
C1461 C 0.62979 0.42778 0.846 0.0
C1462 C 0.5951 0.39447 0.91301 0.0
C1463 C 0.58245 0.41028 0.93385 0.0
C1464 C 0.56416 0.43382 0.92787 0.0
C1465 C 0.55807 0.44048 0.90049 0.0
C1466 C 0.57092 0.42465 0.87957 0.0
H1467 H 0.64867 0.43266 0.83372 0.0
H1468 H 0.61206 0.44076 0.83746 0.0
H1469 H 0.63116 0.43336 0.86727 0.0
H1470 H 0.60964 0.37689 0.91821 0.0
H1471 H 0.58751 0.40431 0.95465 0.0
H1472 H 0.6897 0.34641 0.26052 0.0
H1473 H 0.65467 0.37964 0.2401 0.0
H1474 H 0.63899 0.31983 0.18508 0.0
H1475 H 0.67335 0.28658 0.20548 0.0
H1476 H 0.65765 0.3994 0.18774 0.0
H1477 H 0.56193 0.35123 0.20753 0.0
H1478 H 0.59189 0.34031 0.2263 0.0
H1479 H 0.58865 0.32728 0.19354 0.0
C1480 C 0.67841 0.34022 0.2444 0.0
C1481 C 0.6844 0.31392 0.23452 0.0
C1482 C 0.65837 0.35919 0.23283 0.0
C1483 C 0.64385 0.35205 0.21142 0.0
C1484 C 0.64933 0.32556 0.20209 0.0
H1485 H 0.59947 0.42532 0.06358 0.0
H1486 H 0.61781 0.40278 0.10496 0.0
C1487 C 0.66928 0.30666 0.21359 0.0
C1488 C 0.62566 0.37298 0.19621 0.0
H1489 H 0.56485 0.38165 0.1659 0.0
C1490 C 0.63706 0.39593 0.18359 0.0
C1491 C 0.59863 0.36874 0.19107 0.0
C1492 C 0.58449 0.34569 0.20561 0.0
C1493 C 0.62312 0.4133 0.1641 0.0
C1494 C 0.59735 0.4073 0.15686 0.0
C1495 C 0.58484 0.38589 0.17122 0.0
C1496 C 0.58507 0.42067 0.13213 0.0
C1497 C 0.63666 0.43715 0.15039 0.0
C1498 C 0.56005 0.43752 0.13371 0.0
C1499 C 0.54935 0.45056 0.10992 0.0
C1500 C 0.56343 0.44665 0.08425 0.0
C1501 C 0.58805 0.42897 0.0829 0.0
C1502 C 0.59871 0.41615 0.10657 0.0
H1503 H 0.65176 0.44385 0.16344 0.0
H1504 H 0.64778 0.43079 0.13101 0.0
H1505 H 0.62125 0.45485 0.14551 0.0
H1506 H 0.54912 0.44095 0.15331 0.0
H1507 H 0.53022 0.46385 0.11169 0.0
H1508 H 0.64903 0.71314 0.16654 0.0
H1509 H 0.62275 0.689 0.1378 0.0
H1510 H 0.65019 0.61213 0.18058 0.0
H1511 H 0.67642 0.63631 0.20962 0.0
H1512 H 0.6451 0.65071 0.10317 0.0
H1513 H 0.56877 0.60647 0.17688 0.0
H1514 H 0.58811 0.63339 0.18515 0.0
H1515 H 0.60343 0.59831 0.18636 0.0
C1516 C 0.64918 0.69112 0.17006 0.0
C1517 C 0.6649 0.67657 0.19023 0.0
C1518 C 0.63412 0.67737 0.15366 0.0
C1519 C 0.63436 0.64878 0.1571 0.0
C1520 C 0.64925 0.63426 0.17788 0.0
H1521 H 0.60975 0.53589 0.03845 0.0
H1522 H 0.62743 0.56647 0.06794 0.0
C1523 C 0.66426 0.64807 0.19445 0.0
C1524 C 0.62098 0.6341 0.13743 0.0
H1525 H 0.57421 0.58895 0.13253 0.0
C1526 C 0.62943 0.63738 0.10958 0.0
C1527 C 0.60032 0.61697 0.14574 0.0
C1528 C 0.5894 0.61373 0.17513 0.0
C1529 C 0.61833 0.62345 0.08993 0.0
C1530 C 0.59857 0.60539 0.09838 0.0
C1531 C 0.58952 0.60268 0.12611 0.0
C1532 C 0.58784 0.58829 0.07895 0.0
C1533 C 0.62782 0.62828 0.06027 0.0
C1534 C 0.55966 0.59037 0.07533 0.0
C1535 C 0.54941 0.57285 0.05844 0.0
C1536 C 0.56717 0.5527 0.04509 0.0
C1537 C 0.59548 0.5512 0.04828 0.0
C1538 C 0.60567 0.56875 0.06509 0.0
H1539 H 0.63659 0.64812 0.05637 0.0
H1540 H 0.64403 0.61165 0.05458 0.0
H1541 H 0.6107 0.62818 0.04684 0.0
H1542 H 0.54555 0.60527 0.08593 0.0
H1543 H 0.52749 0.57448 0.05665 0.0
H1544 H 0.27518 0.67274 0.20645 0.0
H1545 H 0.30816 0.6409 0.18163 0.0
H1546 H 0.37416 0.68394 0.20312 0.0
H1547 H 0.34124 0.71475 0.22943 0.0
H1548 H 0.33713 0.65115 0.13872 0.0
H1549 H 0.40999 0.60849 0.21509 0.0
H1550 H 0.37789 0.62823 0.22452 0.0
H1551 H 0.40735 0.64521 0.21214 0.0
C1552 C 0.29681 0.67497 0.2064 0.0
C1553 C 0.30566 0.69612 0.21999 0.0
C1554 C 0.31569 0.65681 0.19212 0.0
C1555 C 0.34386 0.65968 0.19056 0.0
C1556 C 0.35276 0.68059 0.20457 0.0
H1557 H 0.44557 0.60043 0.04988 0.0
H1558 H 0.41996 0.62865 0.08423 0.0
C1559 C 0.33388 0.69836 0.2195 0.0
C1560 C 0.36325 0.64243 0.17223 0.0
H1561 H 0.42511 0.60263 0.16815 0.0
C1562 C 0.35623 0.64037 0.14536 0.0
C1563 C 0.38814 0.62797 0.18073 0.0
C1564 C 0.39614 0.62733 0.20978 0.0
C1565 C 0.37322 0.62458 0.12684 0.0
C1566 C 0.39884 0.61144 0.13481 0.0
C1567 C 0.40578 0.61311 0.16178 0.0
C1568 C 0.41822 0.59542 0.11552 0.0
C1569 C 0.36295 0.62158 0.09918 0.0
C1570 C 0.42783 0.56784 0.12229 0.0
C1571 C 0.44339 0.55192 0.10291 0.0
C1572 C 0.44929 0.56323 0.07636 0.0
C1573 C 0.44105 0.59116 0.07013 0.0
C1574 C 0.42615 0.60721 0.08967 0.0
H1575 H 0.34022 0.62503 0.09967 0.0
H1576 H 0.37102 0.63716 0.08422 0.0
H1577 H 0.36969 0.60089 0.09185 0.0
H1578 H 0.42224 0.55827 0.14213 0.0
H1579 H 0.44934 0.53037 0.10817 0.0
H1580 H 0.31112 0.37377 0.22251 0.0
H1581 H 0.34583 0.40078 0.19995 0.0
H1582 H 0.40958 0.34127 0.23072 0.0
H1583 H 0.37459 0.31382 0.25307 0.0
H1584 H 0.39346 0.42399 0.21121 0.0
H1585 H 0.41625 0.33348 0.14776 0.0
H1586 H 0.38708 0.33673 0.17219 0.0
H1587 H 0.42095 0.32805 0.18369 0.0
C1588 C 0.33254 0.36701 0.22527 0.0
C1589 C 0.34033 0.34168 0.23914 0.0
C1590 C 0.35235 0.38242 0.21243 0.0
C1591 C 0.38022 0.37265 0.21317 0.0
C1592 C 0.38812 0.34888 0.22959 0.0
H1593 H 0.48902 0.43177 0.07698 0.0
H1594 H 0.47525 0.40736 0.11998 0.0
C1595 C 0.3682 0.33338 0.24252 0.0
C1596 C 0.39985 0.385 0.19311 0.0
H1597 H 0.43248 0.37433 0.13045 0.0
C1598 C 0.4026 0.413 0.19385 0.0
C1599 C 0.41168 0.37058 0.17044 0.0
C1600 C 0.40883 0.3406 0.1682 0.0
C1601 C 0.41547 0.42733 0.17179 0.0
C1602 C 0.42542 0.41332 0.14835 0.0
C1603 C 0.42459 0.38495 0.14845 0.0
C1604 C 0.43401 0.42813 0.1225 0.0
C1605 C 0.41745 0.45755 0.17333 0.0
C1606 C 0.41504 0.44715 0.1093 0.0
C1607 C 0.42268 0.46095 0.08464 0.0
C1608 C 0.44946 0.45588 0.07265 0.0
C1609 C 0.46819 0.43613 0.08557 0.0
C1610 C 0.46047 0.42229 0.11024 0.0
H1611 H 0.4171 0.46309 0.19485 0.0
H1612 H 0.43644 0.46367 0.16214 0.0
H1613 H 0.39961 0.46949 0.16392 0.0
H1614 H 0.39427 0.45134 0.1181 0.0
H1615 H 0.40774 0.47598 0.07529 0.0
H1616 H 0.84356 0.76399 0.6808 0.0
H1617 H 0.87227 0.74348 0.64312 0.0
H1618 H 0.82016 0.6787 0.64478 0.0
H1619 H 0.79124 0.69913 0.68209 0.0
H1620 H 0.90096 0.69229 0.64454 0.0
H1621 H 0.82786 0.70133 0.56371 0.0
H1622 H 0.82186 0.72078 0.59375 0.0
H1623 H 0.81395 0.68586 0.59504 0.0
C1624 C 0.83805 0.74552 0.67296 0.0
C1625 C 0.81509 0.73318 0.68446 0.0
C1626 C 0.85445 0.73389 0.65139 0.0
C1627 C 0.84805 0.70988 0.64079 0.0
C1628 C 0.82507 0.69765 0.65213 0.0
H1629 H 0.91049 0.57124 0.56349 0.0
H1630 H 0.88438 0.61162 0.58205 0.0
C1631 C 0.80869 0.70922 0.67366 0.0
C1632 C 0.86653 0.69612 0.61953 0.0
H1633 H 0.8662 0.66583 0.55937 0.0
C1634 C 0.89364 0.68708 0.62556 0.0
C1635 C 0.85696 0.68954 0.59471 0.0
C1636 C 0.82864 0.70015 0.58628 0.0
C1637 C 0.91073 0.66973 0.6085 0.0
C1638 C 0.90047 0.66159 0.58464 0.0
C1639 C 0.87399 0.67211 0.57769 0.0
C1640 C 0.91511 0.63881 0.56938 0.0
C1641 C 0.93888 0.65864 0.61715 0.0
C1642 C 0.94068 0.64097 0.55517 0.0
C1643 C 0.95578 0.61775 0.5444 0.0
C1644 C 0.94549 0.59214 0.54797 0.0
C1645 C 0.91916 0.59059 0.56075 0.0
C1646 C 0.90412 0.61369 0.57125 0.0
H1647 H 0.9425 0.66461 0.6378 0.0
H1648 H 0.94171 0.6359 0.61718 0.0
H1649 H 0.95464 0.66665 0.60237 0.0
H1650 H 0.94934 0.66031 0.55326 0.0
H1651 H 0.97599 0.61954 0.53462 0.0
H1652 H 0.31465 0.75604 0.65971 0.0
H1653 H 0.34635 0.78106 0.62914 0.0
H1654 H 0.34848 0.83913 0.69021 0.0
H1655 H 0.31746 0.81419 0.72085 0.0
H1656 H 0.34139 0.83448 0.60717 0.0
H1657 H 0.42922 0.81787 0.67232 0.0
H1658 H 0.40007 0.79863 0.67831 0.0
H1659 H 0.39873 0.8324 0.6906 0.0
C1660 C 0.32204 0.77403 0.66668 0.0
C1661 C 0.31365 0.78291 0.69288 0.0
C1662 C 0.34013 0.78835 0.64916 0.0
C1663 C 0.35031 0.81171 0.65753 0.0
C1664 C 0.34158 0.82078 0.68349 0.0
H1665 H 0.42996 0.94931 0.60129 0.0
H1666 H 0.40426 0.91329 0.62268 0.0
C1667 C 0.32364 0.80651 0.70098 0.0
C1668 C 0.36944 0.82725 0.63913 0.0
H1669 H 0.42988 0.85532 0.63792 0.0
C1670 C 0.36099 0.83859 0.61364 0.0
C1671 C 0.39518 0.83248 0.64739 0.0
C1672 C 0.40647 0.81945 0.67352 0.0
C1673 C 0.3768 0.85631 0.59708 0.0
C1674 C 0.40168 0.86276 0.60618 0.0
C1675 C 0.41072 0.85044 0.63101 0.0
C1676 C 0.4171 0.8845 0.59187 0.0
C1677 C 0.36622 0.86918 0.57061 0.0
C1678 C 0.433 0.88032 0.56726 0.0
C1679 C 0.44807 0.90104 0.55482 0.0
C1680 C 0.44733 0.92634 0.56674 0.0
C1681 C 0.43108 0.93029 0.59128 0.0
C1682 C 0.41633 0.90964 0.60369 0.0
H1683 H 0.3458 0.86318 0.56704 0.0
H1684 H 0.36472 0.89188 0.57064 0.0
H1685 H 0.38086 0.86283 0.55335 0.0
H1686 H 0.434 0.86096 0.55788 0.0
H1687 H 0.46026 0.89724 0.53595 0.0
H1688 H 0.23556 0.34603 0.70009 0.0
H1689 H 0.21038 0.37974 0.66893 0.0
H1690 H 0.14705 0.32627 0.66827 0.0
H1691 H 0.17198 0.2927 0.69843 0.0
H1692 H 0.1624 0.3457 0.61726 0.0
H1693 H 0.14117 0.4311 0.68675 0.0
H1694 H 0.17658 0.41836 0.68001 0.0
H1695 H 0.15377 0.3967 0.69871 0.0
C1696 C 0.21621 0.34161 0.69334 0.0
C1697 C 0.20584 0.31666 0.70179 0.0
C1698 C 0.20179 0.36091 0.67563 0.0
C1699 C 0.17668 0.35563 0.66638 0.0
C1700 C 0.16638 0.33082 0.67499 0.0
H1701 H 0.03385 0.44907 0.61102 0.0
H1702 H 0.07197 0.42468 0.63485 0.0
C1703 C 0.18073 0.31161 0.69237 0.0
C1704 C 0.16071 0.37536 0.64756 0.0
H1705 H 0.12199 0.43774 0.64416 0.0
C1706 C 0.15382 0.36599 0.62296 0.0
C1707 C 0.14942 0.40175 0.6551 0.0
C1708 C 0.15537 0.41263 0.68165 0.0
C1709 C 0.13497 0.38163 0.60637 0.0
C1710 C 0.1232 0.4078 0.61418 0.0
C1711 C 0.13106 0.41771 0.63816 0.0
C1712 C 0.10073 0.42394 0.59935 0.0
C1713 C 0.12664 0.3692 0.58154 0.0
C1714 C 0.10419 0.43204 0.57142 0.0
C1715 C 0.08219 0.44572 0.55755 0.0
C1716 C 0.05641 0.45196 0.57145 0.0
C1717 C 0.05333 0.44454 0.59959 0.0
C1718 C 0.07519 0.43066 0.61332 0.0
H1719 H 0.1328 0.34671 0.58194 0.0
H1720 H 0.10412 0.37299 0.57994 0.0
H1721 H 0.13676 0.37872 0.56291 0.0
H1722 H 0.12386 0.42767 0.56031 0.0
H1723 H 0.0854 0.45147 0.53597 0.0
H1724 H 0.64352 0.21668 0.66043 0.0
H1725 H 0.61687 0.18996 0.63419 0.0
H1726 H 0.69153 0.14369 0.60406 0.0
H1727 H 0.71815 0.17005 0.63044 0.0
H1728 H 0.61795 0.1757 0.57767 0.0
H1729 H 0.6481 0.08707 0.6502 0.0
H1730 H 0.65296 0.12184 0.65632 0.0
H1731 H 0.6761 0.10292 0.63268 0.0
C1732 C 0.65422 0.20133 0.64758 0.0
C1733 C 0.68277 0.19509 0.64767 0.0
C1734 C 0.63903 0.18607 0.63269 0.0
C1735 C 0.65227 0.16454 0.6177 0.0
C1736 C 0.68096 0.15992 0.61592 0.0
H1737 H 0.57251 0.05996 0.51935 0.0
H1738 H 0.60317 0.09063 0.53448 0.0
C1739 C 0.69609 0.17498 0.63092 0.0
C1740 C 0.63611 0.14509 0.60642 0.0
H1741 H 0.62166 0.07869 0.61439 0.0
C1742 C 0.61878 0.15446 0.58555 0.0
C1743 C 0.63705 0.11752 0.61712 0.0
C1744 C 0.65435 0.10669 0.64047 0.0
C1745 C 0.60234 0.13683 0.57498 0.0
C1746 C 0.6036 0.10916 0.58545 0.0
C1747 C 0.62096 0.09986 0.60629 0.0
C1748 C 0.58592 0.08983 0.57625 0.0
C1749 C 0.58318 0.14813 0.55332 0.0
C1750 C 0.56683 0.07844 0.595 0.0
C1751 C 0.5495 0.0607 0.58656 0.0
C1752 C 0.55099 0.05395 0.55918 0.0
C1753 C 0.57078 0.06473 0.5406 0.0
C1754 C 0.58815 0.08249 0.54911 0.0
H1755 H 0.58031 0.17093 0.55185 0.0
H1756 H 0.59183 0.14117 0.5332 0.0
H1757 H 0.56283 0.14053 0.55756 0.0
H1758 H 0.56498 0.08371 0.6161 0.0
H1759 H 0.53457 0.05274 0.60142 0.0
H1760 H 0.82886 0.31494 0.36852 0.0
H1761 H 0.85143 0.34551 0.39382 0.0
H1762 H 0.78811 0.41146 0.37622 0.0
H1763 H 0.76579 0.38101 0.34984 0.0
H1764 H 0.83831 0.42695 0.36378 0.0
H1765 H 0.83607 0.3762 0.46746 0.0
H1766 H 0.84953 0.35206 0.44295 0.0
H1767 H 0.81464 0.36781 0.44179 0.0
C1768 C 0.81956 0.33588 0.37024 0.0
C1769 C 0.79568 0.34565 0.35701 0.0
C1770 C 0.8323 0.35325 0.38504 0.0
C1771 C 0.82125 0.38067 0.38728 0.0
C1772 C 0.79684 0.39029 0.37493 0.0
H1773 H 0.91841 0.47219 0.48292 0.0
H1774 H 0.8785 0.455 0.46645 0.0
C1775 C 0.78405 0.37286 0.36001 0.0
C1776 C 0.83697 0.39964 0.40008 0.0
H1777 H 0.87346 0.40404 0.45546 0.0
C1778 C 0.84553 0.42231 0.38407 0.0
C1779 C 0.84598 0.39396 0.42673 0.0
C1780 C 0.83579 0.37135 0.44579 0.0
C1781 C 0.8644 0.43822 0.39327 0.0
C1782 C 0.87548 0.43082 0.41882 0.0
C1783 C 0.86539 0.40941 0.43563 0.0
C1784 C 0.89882 0.44361 0.42774 0.0
C1785 C 0.87259 0.46251 0.37529 0.0
C1786 C 0.92354 0.44293 0.41145 0.0
C1787 C 0.94635 0.45289 0.42071 0.0
C1788 C 0.94505 0.46329 0.44668 0.0
C1789 C 0.92017 0.4642 0.46285 0.0
C1790 C 0.8973 0.45444 0.45347 0.0
H1791 H 0.85588 0.47116 0.36213 0.0
H1792 H 0.87787 0.47897 0.38756 0.0
H1793 H 0.89074 0.45578 0.36166 0.0
H1794 H 0.92546 0.43396 0.39186 0.0
H1795 H 0.96521 0.45171 0.4078 0.0
H1796 H 0.6725 0.75476 0.31264 0.0
H1797 H 0.64004 0.77459 0.34816 0.0
H1798 H 0.69443 0.83497 0.35897 0.0
H1799 H 0.72709 0.81499 0.32431 0.0
H1800 H 0.67346 0.814 0.40767 0.0
H1801 H 0.58994 0.8454 0.33776 0.0
H1802 H 0.60198 0.80945 0.34014 0.0
H1803 H 0.6244 0.83366 0.32533 0.0
C1804 C 0.67754 0.77221 0.32267 0.0
C1805 C 0.70233 0.78338 0.31548 0.0
C1806 C 0.6589 0.78361 0.34286 0.0
C1807 C 0.66458 0.80656 0.35595 0.0
C1808 C 0.68955 0.81731 0.34916 0.0
H1809 H 0.59908 0.94009 0.44408 0.0
H1810 H 0.62665 0.9018 0.4228 0.0
C1811 C 0.7082 0.80587 0.32922 0.0
C1812 C 0.64463 0.82009 0.37635 0.0
H1813 H 0.58213 0.85827 0.38289 0.0
C1814 C 0.65334 0.82335 0.40235 0.0
C1815 C 0.61829 0.83224 0.36949 0.0
C1816 C 0.60806 0.83027 0.34163 0.0
C1817 C 0.63697 0.83937 0.42116 0.0
C1818 C 0.61128 0.85252 0.41378 0.0
C1819 C 0.60184 0.84802 0.38848 0.0
C1820 C 0.59565 0.87392 0.43025 0.0
C1821 C 0.64763 0.84285 0.44848 0.0
C1822 C 0.56916 0.87082 0.44184 0.0
C1823 C 0.5534 0.89268 0.45438 0.0
C1824 C 0.56373 0.9181 0.45486 0.0
C1825 C 0.59058 0.92075 0.44401 0.0
C1826 C 0.6064 0.89885 0.43194 0.0
H1827 H 0.66367 0.82595 0.45402 0.0
H1828 H 0.65683 0.86246 0.44755 0.0
H1829 H 0.63076 0.8436 0.46481 0.0
H1830 H 0.56043 0.85179 0.4405 0.0
H1831 H 0.53265 0.89019 0.4623 0.0
H1832 H 0.2329 0.70322 0.34098 0.0
H1833 H 0.20507 0.67455 0.37229 0.0
H1834 H 0.14573 0.67715 0.31181 0.0
H1835 H 0.17348 0.70483 0.28044 0.0
H1836 H 0.15222 0.68296 0.39512 0.0
H1837 H 0.16125 0.59585 0.32887 0.0
H1838 H 0.18234 0.62355 0.32263 0.0
H1839 H 0.14803 0.62735 0.31143 0.0
C1840 C 0.21403 0.69748 0.33432 0.0
C1841 C 0.20569 0.70608 0.30801 0.0
C1842 C 0.19806 0.68118 0.35227 0.0
C1843 C 0.1735 0.67317 0.34427 0.0
C1844 C 0.16491 0.68234 0.31828 0.0
H1845 H 0.03783 0.60805 0.44449 0.0
H1846 H 0.06934 0.63844 0.42058 0.0
C1847 C 0.18085 0.69833 0.30034 0.0
C1848 C 0.15666 0.65525 0.36278 0.0
H1849 H 0.12618 0.59614 0.36503 0.0
C1850 C 0.14671 0.66384 0.38867 0.0
C1851 C 0.1497 0.63007 0.35462 0.0
C1852 C 0.16112 0.61851 0.328 0.0
C1853 C 0.12951 0.64832 0.40624 0.0
C1854 C 0.1215 0.6238 0.39747 0.0
C1855 C 0.13196 0.61502 0.3718 0.0
C1856 C 0.10292 0.60633 0.41453 0.0
C1857 C 0.12051 0.65813 0.43417 0.0
C1858 C 0.11101 0.57812 0.41912 0.0
C1859 C 0.0929 0.56075 0.43222 0.0
C1860 C 0.06618 0.57108 0.44138 0.0
C1861 C 0.05834 0.59949 0.43791 0.0
C1862 C 0.07644 0.61691 0.42433 0.0
H1863 H 0.13468 0.67196 0.4408 0.0
H1864 H 0.09988 0.66986 0.4335 0.0
H1865 H 0.11936 0.64064 0.44965 0.0
H1866 H 0.13127 0.56934 0.41195 0.0
H1867 H 0.09972 0.53901 0.43476 0.0
H1868 H 0.32295 0.21335 0.30679 0.0
H1869 H 0.35177 0.18314 0.33718 0.0
H1870 H 0.28929 0.12811 0.34989 0.0
H1871 H 0.26056 0.15792 0.31882 0.0
H1872 H 0.34423 0.16616 0.39047 0.0
H1873 H 0.35557 0.07664 0.32637 0.0
H1874 H 0.34099 0.11029 0.31423 0.0
H1875 H 0.32076 0.08876 0.33658 0.0
C1876 C 0.31529 0.19482 0.31602 0.0
C1877 C 0.28953 0.18793 0.31017 0.0
C1878 C 0.33179 0.17758 0.33345 0.0
C1879 C 0.32291 0.15313 0.3455 0.0
C1880 C 0.29687 0.14654 0.34033 0.0
H1881 H 0.41777 0.05913 0.47373 0.0
H1882 H 0.38006 0.08549 0.4502 0.0
C1883 C 0.28041 0.16368 0.32267 0.0
C1884 C 0.34121 0.13457 0.36316 0.0
H1885 H 0.37622 0.07041 0.3684 0.0
C1886 C 0.35113 0.14516 0.38576 0.0
C1887 C 0.35037 0.10726 0.35682 0.0
C1888 C 0.34161 0.09507 0.33206 0.0
C1889 C 0.37037 0.12942 0.40184 0.0
C1890 C 0.37945 0.10207 0.39555 0.0
C1891 C 0.36907 0.0913 0.37333 0.0
C1892 C 0.4015 0.08508 0.41014 0.0
C1893 C 0.38168 0.14263 0.42464 0.0
C1894 C 0.4257 0.07529 0.39537 0.0
C1895 C 0.44706 0.05996 0.40863 0.0
C1896 C 0.44479 0.05405 0.43708 0.0
C1897 C 0.4203 0.06344 0.45184 0.0
C1898 C 0.39878 0.07868 0.43845 0.0
H1899 H 0.3774 0.16536 0.42272 0.0
H1900 H 0.37199 0.13528 0.44449 0.0
H1901 H 0.40417 0.13708 0.425 0.0
H1902 H 0.42827 0.07992 0.37351 0.0
H1903 H 0.46554 0.0531 0.39651 0.0
H1904 H 0.69432 0.78181 0.68601 0.0
H1905 H 0.66408 0.80981 0.65524 0.0
H1906 H 0.70123 0.88169 0.67119 0.0
H1907 H 0.7322 0.85361 0.70139 0.0
H1908 H 0.62626 0.85047 0.66733 0.0
H1909 H 0.70133 0.88998 0.58926 0.0
H1910 H 0.71069 0.86227 0.61411 0.0
H1911 H 0.70777 0.89734 0.6232 0.0
C1912 C 0.69626 0.80354 0.68279 0.0
C1913 C 0.71569 0.81549 0.69614 0.0
C1914 C 0.67896 0.81952 0.66515 0.0
C1915 C 0.68062 0.84781 0.66054 0.0
C1916 C 0.70004 0.85981 0.67382 0.0
H1917 H 0.54706 0.96532 0.60951 0.0
H1918 H 0.58341 0.93763 0.63339 0.0
C1919 C 0.71758 0.84376 0.69127 0.0
C1920 C 0.66075 0.8649 0.64334 0.0
H1921 H 0.65538 0.91219 0.58895 0.0
C1922 C 0.63268 0.8638 0.65008 0.0
C1923 C 0.66907 0.88202 0.62056 0.0
C1924 C 0.69886 0.8828 0.61115 0.0
C1925 C 0.61272 0.87973 0.6351 0.0
C1926 C 0.62102 0.89791 0.61323 0.0
C1927 C 0.64907 0.89854 0.60598 0.0
C1928 C 0.60073 0.91654 0.59793 0.0
C1929 C 0.58292 0.87661 0.6427 0.0
C1930 C 0.59927 0.91494 0.56971 0.0
C1931 C 0.57865 0.93108 0.55584 0.0
C1932 C 0.55912 0.94898 0.57005 0.0
C1933 C 0.56148 0.95139 0.59805 0.0
C1934 C 0.58219 0.9355 0.61178 0.0
H1935 H 0.58037 0.85656 0.65398 0.0
H1936 H 0.57421 0.89303 0.65619 0.0
H1937 H 0.57092 0.87837 0.62431 0.0
H1938 H 0.61354 0.90059 0.55859 0.0
H1939 H 0.57742 0.9288 0.53425 0.0
H1940 H 0.69384 0.2453 0.35172 0.0
H1941 H 0.66405 0.21939 0.38384 0.0
H1942 H 0.66375 0.15877 0.32502 0.0
H1943 H 0.69305 0.18434 0.29293 0.0
H1944 H 0.60863 0.19958 0.37231 0.0
H1945 H 0.69102 0.117 0.39893 0.0
H1946 H 0.69801 0.1509 0.38563 0.0
H1947 H 0.68928 0.12667 0.36308 0.0
C1948 C 0.68738 0.22648 0.34563 0.0
C1949 C 0.69598 0.2169 0.31973 0.0
C1950 C 0.67031 0.21174 0.36398 0.0
C1951 C 0.66185 0.18704 0.35689 0.0
C1952 C 0.67019 0.17765 0.33101 0.0
H1953 H 0.57519 0.0525 0.40801 0.0
H1954 H 0.60359 0.08706 0.3886 0.0
C1955 C 0.68696 0.19238 0.31266 0.0
C1956 C 0.64455 0.17056 0.37627 0.0
H1957 H 0.64521 0.10775 0.41095 0.0
C1958 C 0.61663 0.1797 0.38122 0.0
C1959 C 0.65506 0.14466 0.38785 0.0
C1960 C 0.68503 0.1342 0.38386 0.0
C1961 C 0.59863 0.16289 0.39612 0.0
C1962 C 0.60897 0.13643 0.40675 0.0
C1963 C 0.63719 0.12795 0.40283 0.0
C1964 C 0.59075 0.11601 0.41931 0.0
C1965 C 0.56849 0.17293 0.39904 0.0
C1966 C 0.57383 0.12058 0.44329 0.0
C1967 C 0.55719 0.10063 0.45462 0.0
C1968 C 0.55735 0.07563 0.44228 0.0
C1969 C 0.57444 0.0713 0.41834 0.0
C1970 C 0.59083 0.09114 0.40709 0.0
H1971 H 0.56314 0.19153 0.38543 0.0
H1972 H 0.55602 0.15669 0.39433 0.0
H1973 H 0.56281 0.17814 0.42043 0.0
H1974 H 0.57373 0.13938 0.45345 0.0
H1975 H 0.5445 0.10464 0.47315 0.0
H1976 H 0.82903 0.71632 0.30994 0.0
H1977 H 0.85451 0.68309 0.33998 0.0
H1978 H 0.79442 0.62667 0.33587 0.0
H1979 H 0.76879 0.65999 0.30473 0.0
H1980 H 0.84003 0.66138 0.3898 0.0
H1981 H 0.86529 0.57861 0.31777 0.0
H1982 H 0.85113 0.6128 0.30677 0.0
H1983 H 0.82945 0.58945 0.32461 0.0
C1984 C 0.82109 0.69685 0.31524 0.0
C1985 C 0.79682 0.69083 0.30476 0.0
C1986 C 0.83575 0.67783 0.33257 0.0
C1987 C 0.8266 0.65224 0.34009 0.0
C1988 C 0.80219 0.64609 0.32997 0.0
H1989 H 0.919 0.55576 0.46943 0.0
H1990 H 0.88041 0.57939 0.44516 0.0
C1991 C 0.78748 0.66519 0.3123 0.0
C1992 C 0.84307 0.63255 0.35856 0.0
H1993 H 0.88368 0.5712 0.36071 0.0
C1994 C 0.84934 0.6415 0.38359 0.0
C1995 C 0.85535 0.60669 0.35038 0.0
C1996 C 0.85021 0.59628 0.32335 0.0
C1997 C 0.86846 0.62601 0.40001 0.0
C1998 C 0.88112 0.60036 0.39161 0.0
C1999 C 0.87393 0.59083 0.36718 0.0
C2000 C 0.90376 0.5844 0.4064 0.0
C2001 C 0.87605 0.6381 0.42535 0.0
C2002 C 0.92951 0.57843 0.39254 0.0
C2003 C 0.95144 0.56461 0.40622 0.0
C2004 C 0.94824 0.55653 0.4342 0.0
C2005 C 0.92229 0.56206 0.44799 0.0
C2006 C 0.90022 0.57565 0.43416 0.0
H2007 H 0.86934 0.66047 0.42538 0.0
H2008 H 0.8659 0.62796 0.44361 0.0
H2009 H 0.89853 0.63478 0.42726 0.0
H2010 H 0.93281 0.58493 0.37115 0.0
H2011 H 0.97106 0.56066 0.39489 0.0
H2012 H 0.31924 0.78582 0.38335 0.0
H2013 H 0.34529 0.80967 0.41316 0.0
H2014 H 0.38349 0.8504 0.34223 0.0
H2015 H 0.35777 0.82672 0.31256 0.0
H2016 H 0.4196 0.82763 0.38605 0.0
H2017 H 0.32651 0.89523 0.42116 0.0
H2018 H 0.32543 0.85864 0.42352 0.0
H2019 H 0.32757 0.87679 0.39062 0.0
C2020 C 0.33358 0.7995 0.37422 0.0
C2021 C 0.3364 0.80465 0.34573 0.0
C2022 C 0.34824 0.81321 0.3912 0.0
C2023 C 0.36599 0.83199 0.37981 0.0
C2024 C 0.36978 0.83607 0.35136 0.0
H2025 H 0.46785 0.95219 0.40561 0.0
H2026 H 0.44095 0.91829 0.39043 0.0
C2027 C 0.35505 0.82261 0.33448 0.0
C2028 C 0.37989 0.8486 0.39709 0.0
H2029 H 0.36905 0.9062 0.43292 0.0
C2030 C 0.40856 0.84453 0.39671 0.0
C2031 C 0.36534 0.87054 0.41101 0.0
C2032 C 0.33451 0.87582 0.41166 0.0
C2033 C 0.42319 0.86251 0.40903 0.0
C2034 C 0.40874 0.88547 0.42145 0.0
C2035 C 0.38001 0.88869 0.42317 0.0
C2036 C 0.42328 0.90737 0.43078 0.0
C2037 C 0.45404 0.8571 0.40815 0.0
C2038 C 0.42113 0.91341 0.45832 0.0
C2039 C 0.43634 0.93302 0.4671 0.0
C2040 C 0.45385 0.94692 0.44838 0.0
C2041 C 0.4548 0.9417 0.4206 0.0
C2042 C 0.43959 0.92219 0.4119 0.0
H2043 H 0.46117 0.83509 0.40562 0.0
H2044 H 0.46292 0.86922 0.39046 0.0
H2045 H 0.46204 0.86324 0.42701 0.0
H2046 H 0.40839 0.90236 0.47313 0.0
H2047 H 0.43515 0.93651 0.48866 0.0
H2048 H 0.16302 0.24921 0.32152 0.0
H2049 H 0.13319 0.27378 0.35601 0.0
H2050 H 0.19074 0.33335 0.35614 0.0
H2051 H 0.2206 0.30916 0.32165 0.0
H2052 H 0.14434 0.29135 0.41053 0.0
H2053 H 0.11645 0.37689 0.334 0.0
H2054 H 0.13188 0.3435 0.32447 0.0
H2055 H 0.15267 0.3675 0.33592 0.0
C2056 C 0.16944 0.26743 0.32903 0.0
C2057 C 0.19405 0.27743 0.3186 0.0
C2058 C 0.15242 0.28134 0.34881 0.0
C2059 C 0.1597 0.30545 0.35835 0.0
C2060 C 0.1847 0.31488 0.34878 0.0
H2061 H 0.09711 0.4377 0.45258 0.0
H2062 H 0.12492 0.39993 0.43079 0.0
C2063 C 0.20171 0.30103 0.32906 0.0
C2064 C 0.14052 0.32191 0.37696 0.0
H2065 H 0.10336 0.38468 0.38042 0.0
C2066 C 0.1351 0.31165 0.40398 0.0
C2067 C 0.12832 0.3482 0.36815 0.0
C2068 C 0.13236 0.35965 0.33899 0.0
C2069 C 0.11873 0.32774 0.42284 0.0
C2070 C 0.10756 0.35446 0.41422 0.0
C2071 C 0.11218 0.3642 0.38696 0.0
C2072 C 0.09241 0.37372 0.43318 0.0
C2073 C 0.11427 0.31665 0.452 0.0
C2074 C 0.06521 0.37093 0.44278 0.0
C2075 C 0.04924 0.39255 0.45551 0.0
C2076 C 0.0603 0.41717 0.45831 0.0
C2077 C 0.08808 0.41897 0.45049 0.0
C2078 C 0.10398 0.39743 0.43808 0.0
H2079 H 0.12632 0.29639 0.45602 0.0
H2080 H 0.12002 0.3313 0.46611 0.0
H2081 H 0.09221 0.3144 0.45662 0.0
H2082 H 0.05586 0.35288 0.43885 0.0
H2083 H 0.02779 0.39081 0.46118 0.0
H2084 H 0.33702 0.23123 0.705 0.0
H2085 H 0.36725 0.2092 0.66915 0.0
H2086 H 0.29678 0.19783 0.62593 0.0
H2087 H 0.26663 0.21849 0.66229 0.0
H2088 H 0.32654 0.1522 0.63135 0.0
H2089 H 0.39631 0.22865 0.59348 0.0
H2090 H 0.39669 0.22257 0.62981 0.0
H2091 H 0.36559 0.23749 0.61488 0.0
C2092 C 0.32808 0.22447 0.68757 0.0
C2093 C 0.2995 0.22635 0.68653 0.0
C2094 C 0.34539 0.2121 0.66692 0.0
C2095 C 0.3344 0.20208 0.64452 0.0
C2096 C 0.30584 0.20533 0.64292 0.0
H2097 H 0.43719 0.10806 0.51826 0.0
H2098 H 0.40657 0.14602 0.53834 0.0
C2099 C 0.2886 0.21711 0.66375 0.0
C2100 C 0.35212 0.18511 0.62476 0.0
H2101 H 0.41249 0.18115 0.58517 0.0
C2102 C 0.34499 0.15891 0.62086 0.0
C2103 C 0.37615 0.19372 0.61067 0.0
C2104 C 0.38395 0.22228 0.61219 0.0
C2105 C 0.36176 0.1407 0.60453 0.0
C2106 C 0.38681 0.14849 0.59225 0.0
C2107 C 0.39339 0.17513 0.59483 0.0
C2108 C 0.40749 0.12787 0.57974 0.0
C2109 C 0.35289 0.11284 0.60123 0.0
C2110 C 0.41868 0.10576 0.59645 0.0
C2111 C 0.43564 0.08428 0.58516 0.0
C2112 C 0.44217 0.08443 0.55683 0.0
C2113 C 0.43234 0.10737 0.54011 0.0
C2114 C 0.41493 0.12898 0.55154 0.0
H2115 H 0.3303 0.11305 0.60466 0.0
H2116 H 0.35931 0.10578 0.58056 0.0
H2117 H 0.36254 0.09776 0.61652 0.0
H2118 H 0.41363 0.10475 0.6183 0.0
H2119 H 0.44341 0.06724 0.59872 0.0
H2120 H 0.77523 0.30134 0.66333 0.0
H2121 H 0.80277 0.33079 0.63278 0.0
H2122 H 0.86275 0.32611 0.69294 0.0
H2123 H 0.83508 0.29777 0.72369 0.0
H2124 H 0.8531 0.3765 0.6734 0.0
H2125 H 0.87124 0.31048 0.58583 0.0
H2126 H 0.83557 0.3199 0.59488 0.0
H2127 H 0.85632 0.29873 0.61858 0.0
C2128 C 0.79426 0.30665 0.67002 0.0
C2129 C 0.80285 0.29716 0.69603 0.0
C2130 C 0.81018 0.32328 0.6524 0.0
C2131 C 0.83523 0.33035 0.66023 0.0
C2132 C 0.84362 0.32098 0.68626 0.0
H2133 H 0.9677 0.40068 0.5598 0.0
H2134 H 0.93732 0.36949 0.5844 0.0
C2135 C 0.82767 0.30472 0.70391 0.0
C2136 C 0.85244 0.34829 0.64208 0.0
H2137 H 0.88616 0.35492 0.57887 0.0
C2138 C 0.86031 0.37168 0.65274 0.0
C2139 C 0.86234 0.34192 0.61521 0.0
C2140 C 0.85619 0.31626 0.603 0.0
C2141 C 0.87757 0.38881 0.63748 0.0
C2142 C 0.88663 0.38307 0.61026 0.0
C2143 C 0.879 0.35956 0.59958 0.0
C2144 C 0.90408 0.40129 0.59283 0.0
C2145 C 0.88655 0.41247 0.65111 0.0
C2146 C 0.8952 0.42934 0.58836 0.0
C2147 C 0.91259 0.44714 0.57471 0.0
C2148 C 0.93914 0.43731 0.56457 0.0
C2149 C 0.94741 0.40893 0.56738 0.0
C2150 C 0.93006 0.39109 0.58148 0.0
H2151 H 0.88495 0.40907 0.67372 0.0
H2152 H 0.90803 0.41574 0.64442 0.0
H2153 H 0.87307 0.43148 0.64564 0.0
H2154 H 0.87498 0.43765 0.59606 0.0
H2155 H 0.90534 0.46881 0.57248 0.0
H2156 H 0.19935 0.6873 0.62439 0.0
H2157 H 0.17275 0.65886 0.60026 0.0
H2158 H 0.2077 0.58663 0.64592 0.0
H2159 H 0.23489 0.61511 0.66975 0.0
H2160 H 0.19692 0.5788 0.58903 0.0
H2161 H 0.10834 0.63014 0.64953 0.0
H2162 H 0.12839 0.65339 0.62929 0.0
H2163 H 0.14338 0.63214 0.65682 0.0
C2164 C 0.20202 0.66523 0.62854 0.0
C2165 C 0.21896 0.65327 0.64888 0.0
C2166 C 0.18678 0.64906 0.61489 0.0
C2167 C 0.18792 0.62078 0.62174 0.0
C2168 C 0.20656 0.60845 0.64043 0.0
H2169 H 0.0479 0.53402 0.60182 0.0
H2170 H 0.0874 0.55045 0.61992 0.0
C2171 C 0.22209 0.62465 0.65393 0.0
C2172 C 0.16713 0.60505 0.61214 0.0
H2173 H 0.09811 0.60233 0.61524 0.0
C2174 C 0.17531 0.58376 0.59481 0.0
C2175 C 0.13905 0.61122 0.62028 0.0
C2176 C 0.1292 0.63278 0.64021 0.0
C2177 C 0.1559 0.56904 0.58462 0.0
C2178 C 0.12769 0.57619 0.5917 0.0
C2179 C 0.11972 0.59696 0.60969 0.0
C2180 C 0.1058 0.5631 0.58036 0.0
C2181 C 0.16578 0.54586 0.56662 0.0
C2182 C 0.10314 0.56455 0.55209 0.0
C2183 C 0.08065 0.55504 0.54166 0.0
C2184 C 0.06015 0.54436 0.55938 0.0
C2185 C 0.06317 0.54241 0.58765 0.0
C2186 C 0.08579 0.55166 0.59802 0.0
H2187 H 0.1873 0.53754 0.5701 0.0
H2188 H 0.15265 0.5289 0.57023 0.0
H2189 H 0.16505 0.55361 0.54491 0.0
H2190 H 0.11792 0.57393 0.53811 0.0
H2191 H 0.07888 0.55693 0.51977 0.0
loop_
_geom_bond_atom_site_label_1
_geom_bond_atom_site_label_2
_geom_bond_distance
_geom_bond_site_symmetry_2
_ccdc_geom_bond_type
C0 O16 1.251 . S
C0 O18 1.254 . S
N1 C2 1.333 . S
N1 C6 1.307 . S
N1 Zn7 2.020 . S
C2 N1 1.333 . S
C2 C3 1.379 . S
C2 H20 0.952 . S
C3 C2 1.379 . S
C3 C4 1.390 . S
C3 H30 0.949 . S
C4 C3 1.390 . S
C4 C5 1.357 . S
C5 C4 1.357 . S
C5 C6 1.370 . S
C5 H31 0.950 . S
C6 N1 1.307 . S
C6 C5 1.370 . S
C6 H24 0.948 . S
Zn7 N1 2.020 . S
Zn7 O16 2.039 . S
Zn7 O22 2.034 . S
Zn7 O26 2.025 . S
Zn7 O28 2.024 . S
C8 O27 1.246 . S
C8 O28 1.249 . S
N9 C10 1.307 . S
N9 C11 1.333 . S
N9 Zn15 2.020 . S
C10 N9 1.307 . S
C10 C14 1.370 . S
C10 H21 0.948 . S
C11 N9 1.333 . S
C11 C12 1.379 . S
C11 H19 0.952 . S
C12 C11 1.379 . S
C12 C13 1.390 . S
C12 H32 0.949 . S
C13 C12 1.390 . S
C13 C14 1.357 . S
C14 C10 1.370 . S
C14 C13 1.357 . S
C14 H33 0.950 . S
Zn15 N9 2.020 . S
Zn15 O18 2.025 . S
Zn15 O23 2.024 . S
Zn15 O25 2.039 . S
Zn15 O27 2.034 . S
O16 C0 1.251 . S
O16 Zn7 2.039 . S
C17 O22 1.246 . S
C17 O23 1.249 . S
O18 C0 1.254 . S
O18 Zn15 2.025 . S
H19 C11 0.952 . S
H20 C2 0.952 . S
H21 C10 0.948 . S
O22 Zn7 2.034 . S
O22 C17 1.246 . S
O23 Zn15 2.024 . S
O23 C17 1.249 . S
H24 C6 0.948 . S
O25 Zn15 2.039 . S
O25 C29 1.251 . S
O26 Zn7 2.025 . S
O26 C29 1.254 . S
O27 C8 1.246 . S
O27 Zn15 2.034 . S
O28 Zn7 2.024 . S
O28 C8 1.249 . S
C29 O25 1.251 . S
C29 O26 1.254 . S
H30 C3 0.949 . S
H31 C5 0.950 . S
H32 C12 0.949 . S
H33 C14 0.950 . S
C34 O50 1.251 . S
C34 O52 1.254 . S
N35 C36 1.333 . S
N35 C40 1.307 . S
N35 Zn41 2.020 . S
C36 N35 1.333 . S
C36 C37 1.379 . S
C36 H54 0.952 . S
C37 C36 1.379 . S
C37 C38 1.390 . S
C37 H64 0.949 . S
C38 C37 1.390 . S
C38 C39 1.357 . S
C39 C38 1.357 . S
C39 C40 1.370 . S
C39 H65 0.950 . S
C40 N35 1.307 . S
C40 C39 1.370 . S
C40 H58 0.948 . S
Zn41 N35 2.020 . S
Zn41 O50 2.039 . S
Zn41 O56 2.034 . S
Zn41 O60 2.025 . S
Zn41 O62 2.024 . S
C42 O61 1.246 . S
C42 O62 1.249 . S
N43 C44 1.307 . S
N43 C45 1.333 . S
N43 Zn49 2.020 . S
C44 N43 1.307 . S
C44 C48 1.370 . S
C44 H55 0.948 . S
C45 N43 1.333 . S
C45 C46 1.379 . S
C45 H53 0.952 . S
C46 C45 1.379 . S
C46 C47 1.390 . S
C46 H66 0.949 . S
C47 C46 1.390 . S
C47 C48 1.357 . S
C48 C44 1.370 . S
C48 C47 1.357 . S
C48 H67 0.950 . S
Zn49 N43 2.020 . S
Zn49 O52 2.025 . S
Zn49 O57 2.024 . S
Zn49 O59 2.039 . S
Zn49 O61 2.034 . S
O50 C34 1.251 . S
O50 Zn41 2.039 . S
C51 O56 1.246 . S
C51 O57 1.249 . S
O52 C34 1.254 . S
O52 Zn49 2.025 . S
H53 C45 0.952 . S
H54 C36 0.952 . S
H55 C44 0.948 . S
O56 Zn41 2.034 . S
O56 C51 1.246 . S
O57 Zn49 2.024 . S
O57 C51 1.249 . S
H58 C40 0.948 . S
O59 Zn49 2.039 . S
O59 C63 1.251 . S
O60 Zn41 2.025 . S
O60 C63 1.254 . S
O61 C42 1.246 . S
O61 Zn49 2.034 . S
O62 Zn41 2.024 . S
O62 C42 1.249 . S
C63 O59 1.251 . S
C63 O60 1.254 . S
H64 C37 0.949 . S
H65 C39 0.950 . S
H66 C46 0.949 . S
H67 C48 0.950 . S
C68 O84 1.251 . S
C68 O86 1.254 . S
N69 C70 1.333 . S
N69 C74 1.307 . S
N69 Zn75 2.020 . S
C70 N69 1.333 . S
C70 C71 1.379 . S
C70 H88 0.952 . S
C71 C70 1.379 . S
C71 C72 1.390 . S
C71 H98 0.949 . S
C72 C71 1.390 . S
C72 C73 1.357 . S
C73 C72 1.357 . S
C73 C74 1.370 . S
C73 H99 0.950 . S
C74 N69 1.307 . S
C74 C73 1.370 . S
C74 H92 0.948 . S
Zn75 N69 2.020 . S
Zn75 O84 2.039 . S
Zn75 O90 2.034 . S
Zn75 O94 2.025 . S
Zn75 O96 2.024 . S
C76 O95 1.246 . S
C76 O96 1.249 . S
N77 C78 1.307 . S
N77 C79 1.333 . S
N77 Zn83 2.020 . S
C78 N77 1.307 . S
C78 C82 1.370 . S
C78 H89 0.948 . S
C79 N77 1.333 . S
C79 C80 1.379 . S
C79 H87 0.952 . S
C80 C79 1.379 . S
C80 C81 1.390 . S
C80 H100 0.949 . S
C81 C80 1.390 . S
C81 C82 1.357 . S
C82 C78 1.370 . S
C82 C81 1.357 . S
C82 H101 0.950 . S
Zn83 N77 2.020 . S
Zn83 O86 2.025 . S
Zn83 O91 2.024 . S
Zn83 O93 2.039 . S
Zn83 O95 2.034 . S
O84 C68 1.251 . S
O84 Zn75 2.039 . S
C85 O90 1.246 . S
C85 O91 1.249 . S
O86 C68 1.254 . S
O86 Zn83 2.025 . S
H87 C79 0.952 . S
H88 C70 0.952 . S
H89 C78 0.948 . S
O90 Zn75 2.034 . S
O90 C85 1.246 . S
O91 Zn83 2.024 . S
O91 C85 1.249 . S
H92 C74 0.948 . S
O93 Zn83 2.039 . S
O93 C97 1.251 . S
O94 Zn75 2.025 . S
O94 C97 1.254 . S
O95 C76 1.246 . S
O95 Zn83 2.034 . S
O96 Zn75 2.024 . S
O96 C76 1.249 . S
C97 O93 1.251 . S
C97 O94 1.254 . S
H98 C71 0.949 . S
H99 C73 0.950 . S
H100 C80 0.949 . S
H101 C82 0.950 . S
C102 O118 1.251 . S
C102 O120 1.254 . S
N103 C104 1.333 . S
N103 C108 1.307 . S
N103 Zn109 2.020 . S
C104 N103 1.333 . S
C104 C105 1.379 . S
C104 H122 0.952 . S
C105 C104 1.379 . S
C105 C106 1.390 . S
C105 H132 0.949 . S
C106 C105 1.390 . S
C106 C107 1.357 . S
C107 C106 1.357 . S
C107 C108 1.370 . S
C107 H133 0.950 . S
C108 N103 1.307 . S
C108 C107 1.370 . S
C108 H126 0.948 . S
Zn109 N103 2.020 . S
Zn109 O118 2.039 . S
Zn109 O124 2.034 . S
Zn109 O128 2.025 . S
Zn109 O130 2.024 . S
C110 O129 1.246 . S
C110 O130 1.249 . S
N111 C112 1.307 . S
N111 C113 1.333 . S
N111 Zn117 2.020 . S
C112 N111 1.307 . S
C112 C116 1.370 . S
C112 H123 0.948 . S
C113 N111 1.333 . S
C113 C114 1.379 . S
C113 H121 0.952 . S
C114 C113 1.379 . S
C114 C115 1.390 . S
C114 H134 0.949 . S
C115 C114 1.390 . S
C115 C116 1.357 . S
C116 C112 1.370 . S
C116 C115 1.357 . S
C116 H135 0.950 . S
Zn117 N111 2.020 . S
Zn117 O120 2.025 . S
Zn117 O125 2.024 . S
Zn117 O127 2.039 . S
Zn117 O129 2.034 . S
O118 C102 1.251 . S
O118 Zn109 2.039 . S
C119 O124 1.246 . S
C119 O125 1.249 . S
O120 C102 1.254 . S
O120 Zn117 2.025 . S
H121 C113 0.952 . S
H122 C104 0.952 . S
H123 C112 0.948 . S
O124 Zn109 2.034 . S
O124 C119 1.246 . S
O125 Zn117 2.024 . S
O125 C119 1.249 . S
H126 C108 0.948 . S
O127 Zn117 2.039 . S
O127 C131 1.251 . S
O128 Zn109 2.025 . S
O128 C131 1.254 . S
O129 C110 1.246 . S
O129 Zn117 2.034 . S
O130 Zn109 2.024 . S
O130 C110 1.249 . S
C131 O127 1.251 . S
C131 O128 1.254 . S
H132 C105 0.949 . S
H133 C107 0.950 . S
H134 C114 0.949 . S
H135 C116 0.950 . S
C136 O152 1.251 . S
C136 O154 1.254 . S
N137 C138 1.333 . S
N137 C142 1.307 . S
N137 Zn143 2.020 . S
C138 N137 1.333 . S
C138 C139 1.379 . S
C138 H156 0.952 . S
C139 C138 1.379 . S
C139 C140 1.390 . S
C139 H166 0.949 . S
C140 C139 1.390 . S
C140 C141 1.357 . S
C141 C140 1.357 . S
C141 C142 1.370 . S
C141 H167 0.950 . S
C142 N137 1.307 . S
C142 C141 1.370 . S
C142 H160 0.948 . S
Zn143 N137 2.020 . S
Zn143 O152 2.039 . S
Zn143 O158 2.034 . S
Zn143 O162 2.025 . S
Zn143 O164 2.024 . S
C144 O163 1.246 . S
C144 O164 1.249 . S
N145 C146 1.307 . S
N145 C147 1.333 . S
N145 Zn151 2.020 . S
C146 N145 1.307 . S
C146 C150 1.370 . S
C146 H157 0.948 . S
C147 N145 1.333 . S
C147 C148 1.379 . S
C147 H155 0.952 . S
C148 C147 1.379 . S
C148 C149 1.390 . S
C148 H168 0.949 . S
C149 C148 1.390 . S
C149 C150 1.357 . S
C150 C146 1.370 . S
C150 C149 1.357 . S
C150 H169 0.950 . S
Zn151 N145 2.020 . S
Zn151 O154 2.025 . S
Zn151 O159 2.024 . S
Zn151 O161 2.039 . S
Zn151 O163 2.034 . S
O152 C136 1.251 . S
O152 Zn143 2.039 . S
C153 O158 1.246 . S
C153 O159 1.249 . S
O154 C136 1.254 . S
O154 Zn151 2.025 . S
H155 C147 0.952 . S
H156 C138 0.952 . S
H157 C146 0.948 . S
O158 Zn143 2.034 . S
O158 C153 1.246 . S
O159 Zn151 2.024 . S
O159 C153 1.249 . S
H160 C142 0.948 . S
O161 Zn151 2.039 . S
O161 C165 1.251 . S
O162 Zn143 2.025 . S
O162 C165 1.254 . S
O163 C144 1.246 . S
O163 Zn151 2.034 . S
O164 Zn143 2.024 . S
O164 C144 1.249 . S
C165 O161 1.251 . S
C165 O162 1.254 . S
H166 C139 0.949 . S
H167 C141 0.950 . S
H168 C148 0.949 . S
H169 C150 0.950 . S
C170 O186 1.251 . S
C170 O188 1.254 . S
N171 C172 1.333 . S
N171 C176 1.307 . S
N171 Zn177 2.020 . S
C172 N171 1.333 . S
C172 C173 1.379 . S
C172 H190 0.952 . S
C173 C172 1.379 . S
C173 C174 1.390 . S
C173 H200 0.949 . S
C174 C173 1.390 . S
C174 C175 1.357 . S
C175 C174 1.357 . S
C175 C176 1.370 . S
C175 H201 0.950 . S
C176 N171 1.307 . S
C176 C175 1.370 . S
C176 H194 0.948 . S
Zn177 N171 2.020 . S
Zn177 O186 2.039 . S
Zn177 O192 2.034 . S
Zn177 O196 2.025 . S
Zn177 O198 2.024 . S
C178 O197 1.246 . S
C178 O198 1.249 . S
N179 C180 1.307 . S
N179 C181 1.333 . S
N179 Zn185 2.020 . S
C180 N179 1.307 . S
C180 C184 1.370 . S
C180 H191 0.948 . S
C181 N179 1.333 . S
C181 C182 1.379 . S
C181 H189 0.952 . S
C182 C181 1.379 . S
C182 C183 1.390 . S
C182 H202 0.949 . S
C183 C182 1.390 . S
C183 C184 1.357 . S
C184 C180 1.370 . S
C184 C183 1.357 . S
C184 H203 0.950 . S
Zn185 N179 2.020 . S
Zn185 O188 2.025 . S
Zn185 O193 2.024 . S
Zn185 O195 2.039 . S
Zn185 O197 2.034 . S
O186 C170 1.251 . S
O186 Zn177 2.039 . S
C187 O192 1.246 . S
C187 O193 1.249 . S
O188 C170 1.254 . S
O188 Zn185 2.025 . S
H189 C181 0.952 . S
H190 C172 0.952 . S
H191 C180 0.948 . S
O192 Zn177 2.034 . S
O192 C187 1.246 . S
O193 Zn185 2.024 . S
O193 C187 1.249 . S
H194 C176 0.948 . S
O195 Zn185 2.039 . S
O195 C199 1.251 . S
O196 Zn177 2.025 . S
O196 C199 1.254 . S
O197 C178 1.246 . S
O197 Zn185 2.034 . S
O198 Zn177 2.024 . S
O198 C178 1.249 . S
C199 O195 1.251 . S
C199 O196 1.254 . S
H200 C173 0.949 . S
H201 C175 0.950 . S
H202 C182 0.949 . S
H203 C184 0.950 . S
C204 O220 1.251 . S
C204 O222 1.254 . S
N205 C206 1.333 . S
N205 C210 1.307 . S
N205 Zn211 2.020 . S
C206 N205 1.333 . S
C206 C207 1.379 . S
C206 H224 0.952 . S
C207 C206 1.379 . S
C207 C208 1.390 . S
C207 H234 0.949 . S
C208 C207 1.390 . S
C208 C209 1.357 . S
C209 C208 1.357 . S
C209 C210 1.370 . S
C209 H235 0.950 . S
C210 N205 1.307 . S
C210 C209 1.370 . S
C210 H228 0.948 . S
Zn211 N205 2.020 . S
Zn211 O220 2.039 . S
Zn211 O226 2.034 . S
Zn211 O230 2.025 . S
Zn211 O232 2.024 . S
C212 O231 1.246 . S
C212 O232 1.249 . S
N213 C214 1.307 . S
N213 C215 1.333 . S
N213 Zn219 2.020 . S
C214 N213 1.307 . S
C214 C218 1.370 . S
C214 H225 0.948 . S
C215 N213 1.333 . S
C215 C216 1.379 . S
C215 H223 0.952 . S
C216 C215 1.379 . S
C216 C217 1.390 . S
C216 H236 0.949 . S
C217 C216 1.390 . S
C217 C218 1.357 . S
C218 C214 1.370 . S
C218 C217 1.357 . S
C218 H237 0.950 . S
Zn219 N213 2.020 . S
Zn219 O222 2.025 . S
Zn219 O227 2.024 . S
Zn219 O229 2.039 . S
Zn219 O231 2.034 . S
O220 C204 1.251 . S
O220 Zn211 2.039 . S
C221 O226 1.246 . S
C221 O227 1.249 . S
O222 C204 1.254 . S
O222 Zn219 2.025 . S
H223 C215 0.952 . S
H224 C206 0.952 . S
H225 C214 0.948 . S
O226 Zn211 2.034 . S
O226 C221 1.246 . S
O227 Zn219 2.024 . S
O227 C221 1.249 . S
H228 C210 0.948 . S
O229 Zn219 2.039 . S
O229 C233 1.251 . S
O230 Zn211 2.025 . S
O230 C233 1.254 . S
O231 C212 1.246 . S
O231 Zn219 2.034 . S
O232 Zn211 2.024 . S
O232 C212 1.249 . S
C233 O229 1.251 . S
C233 O230 1.254 . S
H234 C207 0.949 . S
H235 C209 0.950 . S
H236 C216 0.949 . S
H237 C218 0.950 . S
C238 O254 1.251 . S
C238 O256 1.254 . S
N239 C240 1.333 . S
N239 C244 1.307 . S
N239 Zn245 2.020 . S
C240 N239 1.333 . S
C240 C241 1.379 . S
C240 H258 0.952 . S
C241 C240 1.379 . S
C241 C242 1.390 . S
C241 H268 0.949 . S
C242 C241 1.390 . S
C242 C243 1.357 . S
C243 C242 1.357 . S
C243 C244 1.370 . S
C243 H269 0.950 . S
C244 N239 1.307 . S
C244 C243 1.370 . S
C244 H262 0.948 . S
Zn245 N239 2.020 . S
Zn245 O254 2.039 . S
Zn245 O260 2.034 . S
Zn245 O264 2.025 . S
Zn245 O266 2.024 . S
C246 O265 1.246 . S
C246 O266 1.249 . S
N247 C248 1.307 . S
N247 C249 1.333 . S
N247 Zn253 2.020 . S
C248 N247 1.307 . S
C248 C252 1.370 . S
C248 H259 0.948 . S
C249 N247 1.333 . S
C249 C250 1.379 . S
C249 H257 0.952 . S
C250 C249 1.379 . S
C250 C251 1.390 . S
C250 H270 0.949 . S
C251 C250 1.390 . S
C251 C252 1.357 . S
C252 C248 1.370 . S
C252 C251 1.357 . S
C252 H271 0.950 . S
Zn253 N247 2.020 . S
Zn253 O256 2.025 . S
Zn253 O261 2.024 . S
Zn253 O263 2.039 . S
Zn253 O265 2.034 . S
O254 C238 1.251 . S
O254 Zn245 2.039 . S
C255 O260 1.246 . S
C255 O261 1.249 . S
O256 C238 1.254 . S
O256 Zn253 2.025 . S
H257 C249 0.952 . S
H258 C240 0.952 . S
H259 C248 0.948 . S
O260 Zn245 2.034 . S
O260 C255 1.246 . S
O261 Zn253 2.024 . S
O261 C255 1.249 . S
H262 C244 0.948 . S
O263 Zn253 2.039 . S
O263 C267 1.251 . S
O264 Zn245 2.025 . S
O264 C267 1.254 . S
O265 C246 1.246 . S
O265 Zn253 2.034 . S
O266 Zn245 2.024 . S
O266 C246 1.249 . S
C267 O263 1.251 . S
C267 O264 1.254 . S
H268 C241 0.949 . S
H269 C243 0.950 . S
H270 C250 0.949 . S
H271 C252 0.950 . S
Fe272 O273 1.886 . S
Fe272 O276 1.715 1_655 S
Fe272 O281 2.077 . S
Fe272 O286 1.935 1_655 S
Fe272 O292 2.077 . S
Fe272 O301 1.935 1_655 S
O273 Fe272 1.886 . S
O273 Fe275 1.715 . S
Fe274 O276 1.886 1_565 S
Fe274 O277 1.715 . S
Fe274 O284 1.935 . S
Fe274 O285 2.077 1_565 S
Fe274 O291 1.935 . S
Fe274 O300 2.077 1_565 S
Fe275 O273 1.715 . S
Fe275 O278 1.886 1_545 S
Fe275 O282 1.935 . S
Fe275 O287 2.077 1_545 S
Fe275 O293 1.935 . S
Fe275 O297 2.077 1_545 S
O276 Fe272 1.715 1_455 S
O276 Fe274 1.886 1_545 S
O277 Fe274 1.715 . S
O277 Fe279 1.886 . S
O278 Fe275 1.886 1_565 S
O278 Fe279 1.715 1_655 S
Fe279 O277 1.886 . S
Fe279 O278 1.715 1_455 S
Fe279 O283 2.077 . S
Fe279 O288 1.935 1_455 S
Fe279 O290 2.077 . S
Fe279 O298 1.935 1_455 S
C280 O292 1.381 . S
C280 O293 1.421 . S
O281 Fe272 2.077 . S
O281 C294 1.381 . S
O282 Fe275 1.935 . S
O282 C294 1.421 . S
O283 Fe279 2.077 . S
O283 C299 1.381 . S
O284 Fe274 1.935 . S
O284 C299 1.421 . S
O285 Fe274 2.077 1_545 S
O285 C289 1.381 . S
O286 Fe272 1.935 1_455 S
O286 C289 1.421 . S
O287 Fe275 2.077 1_565 S
O287 C295 1.381 . S
O288 Fe279 1.935 1_655 S
O288 C295 1.421 . S
C289 O285 1.381 . S
C289 O286 1.421 . S
O290 Fe279 2.077 . S
O290 C302 1.381 . S
O291 Fe274 1.935 . S
O291 C302 1.421 . S
O292 Fe272 2.077 . S
O292 C280 1.381 . S
O293 Fe275 1.935 . S
O293 C280 1.421 . S
C294 O281 1.381 . S
C294 O282 1.421 . S
C295 O287 1.381 . S
C295 O288 1.421 . S
C296 O297 1.381 . S
C296 O298 1.421 . S
O297 Fe275 2.077 1_565 S
O297 C296 1.381 . S
O298 Fe279 1.935 1_655 S
O298 C296 1.421 . S
C299 O283 1.381 . S
C299 O284 1.421 . S
O300 Fe274 2.077 1_545 S
O300 C303 1.381 . S
O301 Fe272 1.935 1_455 S
O301 C303 1.421 . S
C302 O290 1.381 . S
C302 O291 1.421 . S
C303 O300 1.381 . S
C303 O301 1.421 . S
Fe304 O305 1.886 . S
Fe304 O308 1.715 . S
Fe304 O313 2.077 1_554 S
Fe304 O318 1.935 1_554 S
Fe304 O324 2.077 . S
Fe304 O333 1.935 . S
O305 Fe304 1.886 . S
O305 Fe307 1.715 1_554 S
Fe306 O308 1.886 1_545 S
Fe306 O309 1.715 . S
Fe306 O316 1.935 1_554 S
Fe306 O317 2.077 1_544 S
Fe306 O323 1.935 . S
Fe306 O332 2.077 1_545 S
Fe307 O305 1.715 1_556 S
Fe307 O310 1.886 1_565 S
Fe307 O314 1.935 . S
Fe307 O319 2.077 1_565 S
Fe307 O325 1.935 1_556 S
Fe307 O329 2.077 1_566 S
O308 Fe304 1.715 . S
O308 Fe306 1.886 1_565 S
O309 Fe306 1.715 . S
O309 Fe311 1.886 1_554 S
O310 Fe307 1.886 1_545 S
O310 Fe311 1.715 . S
Fe311 O309 1.886 1_556 S
Fe311 O310 1.715 . S
Fe311 O315 2.077 . S
Fe311 O320 1.935 . S
Fe311 O322 2.077 1_556 S
Fe311 O330 1.935 1_556 S
C312 O324 1.381 . S
C312 O325 1.421 . S
O313 Fe304 2.077 1_556 S
O313 C326 1.381 . S
O314 Fe307 1.935 . S
O314 C326 1.421 . S
O315 Fe311 2.077 . S
O315 C331 1.381 . S
O316 Fe306 1.935 1_556 S
O316 C331 1.421 . S
O317 Fe306 2.077 1_566 S
O317 C321 1.381 . S
O318 Fe304 1.935 1_556 S
O318 C321 1.421 . S
O319 Fe307 2.077 1_545 S
O319 C327 1.381 . S
O320 Fe311 1.935 . S
O320 C327 1.421 . S
C321 O317 1.381 . S
C321 O318 1.421 . S
O322 Fe311 2.077 1_554 S
O322 C334 1.381 . S
O323 Fe306 1.935 . S
O323 C334 1.421 . S
O324 Fe304 2.077 . S
O324 C312 1.381 . S
O325 Fe307 1.935 1_554 S
O325 C312 1.421 . S
C326 O313 1.381 . S
C326 O314 1.421 . S
C327 O319 1.381 . S
C327 O320 1.421 . S
C328 O329 1.381 . S
C328 O330 1.421 . S
O329 Fe307 2.077 1_544 S
O329 C328 1.381 . S
O330 Fe311 1.935 1_554 S
O330 C328 1.421 . S
C331 O315 1.381 . S
C331 O316 1.421 . S
O332 Fe306 2.077 1_565 S
O332 C335 1.381 . S
O333 Fe304 1.935 . S
O333 C335 1.421 . S
C334 O322 1.381 . S
C334 O323 1.421 . S
C335 O332 1.381 . S
C335 O333 1.421 . S
Fe336 O337 1.886 1_556 S
Fe336 O340 1.715 1_655 S
Fe336 O345 2.077 . S
Fe336 O350 1.935 1_655 S
Fe336 O356 2.077 1_556 S
Fe336 O365 1.935 1_656 S
O337 Fe336 1.886 1_554 S
O337 Fe339 1.715 . S
Fe338 O340 1.886 . S
Fe338 O341 1.715 1_556 S
Fe338 O348 1.935 . S
Fe338 O349 2.077 . S
Fe338 O355 1.935 1_556 S
Fe338 O364 2.077 1_556 S
Fe339 O337 1.715 . S
Fe339 O342 1.886 . S
Fe339 O346 1.935 1_554 S
Fe339 O351 2.077 1_554 S
Fe339 O357 1.935 . S
Fe339 O361 2.077 . S
O340 Fe336 1.715 1_455 S
O340 Fe338 1.886 . S
O341 Fe338 1.715 1_554 S
O341 Fe343 1.886 . S
O342 Fe339 1.886 . S
O342 Fe343 1.715 1_655 S
Fe343 O341 1.886 . S
Fe343 O342 1.715 1_455 S
Fe343 O347 2.077 1_554 S
Fe343 O352 1.935 1_454 S
Fe343 O354 2.077 . S
Fe343 O362 1.935 1_455 S
C344 O356 1.381 . S
C344 O357 1.421 . S
O345 Fe336 2.077 . S
O345 C358 1.381 . S
O346 Fe339 1.935 1_556 S
O346 C358 1.421 . S
O347 Fe343 2.077 1_556 S
O347 C363 1.381 . S
O348 Fe338 1.935 . S
O348 C363 1.421 . S
O349 Fe338 2.077 . S
O349 C353 1.381 . S
O350 Fe336 1.935 1_455 S
O350 C353 1.421 . S
O351 Fe339 2.077 1_556 S
O351 C359 1.381 . S
O352 Fe343 1.935 1_656 S
O352 C359 1.421 . S
C353 O349 1.381 . S
C353 O350 1.421 . S
O354 Fe343 2.077 . S
O354 C366 1.381 . S
O355 Fe338 1.935 1_554 S
O355 C366 1.421 . S
O356 Fe336 2.077 1_554 S
O356 C344 1.381 . S
O357 Fe339 1.935 . S
O357 C344 1.421 . S
C358 O345 1.381 . S
C358 O346 1.421 . S
C359 O351 1.381 . S
C359 O352 1.421 . S
C360 O361 1.381 . S
C360 O362 1.421 . S
O361 Fe339 2.077 . S
O361 C360 1.381 . S
O362 Fe343 1.935 1_655 S
O362 C360 1.421 . S
C363 O347 1.381 . S
C363 O348 1.421 . S
O364 Fe338 2.077 1_554 S
O364 C367 1.381 . S
O365 Fe336 1.935 1_454 S
O365 C367 1.421 . S
C366 O354 1.381 . S
C366 O355 1.421 . S
C367 O364 1.381 . S
C367 O365 1.421 . S
Fe368 O369 1.886 . S
Fe368 O372 1.715 . S
Fe368 O377 2.077 . S
Fe368 O382 1.935 . S
Fe368 O388 2.077 . S
Fe368 O397 1.935 . S
O369 Fe368 1.886 . S
O369 Fe371 1.740 . S
Fe370 O372 1.856 1_554 S
Fe370 O373 1.747 . S
Fe370 O380 1.959 . S
Fe370 O381 2.050 1_554 S
Fe370 O387 1.957 . S
Fe370 O396 2.049 1_554 S
Fe371 O369 1.740 . S
Fe371 O374 1.863 1_556 S
Fe371 O378 1.952 . S
Fe371 O383 2.055 1_556 S
Fe371 O389 1.954 . S
Fe371 O393 2.057 1_556 S
O372 Fe368 1.715 . S
O372 Fe370 1.856 1_556 S
O373 Fe370 1.747 . S
O373 Fe375 1.886 . S
O374 Fe371 1.863 1_554 S
O374 Fe375 1.715 . S
Fe375 O373 1.886 . S
Fe375 O374 1.715 . S
Fe375 O379 2.077 . S
Fe375 O384 1.935 . S
Fe375 O386 2.077 . S
Fe375 O394 1.935 . S
C376 O388 1.381 . S
C376 O389 1.421 . S
O377 Fe368 2.077 . S
O377 C390 1.381 . S
O378 Fe371 1.952 . S
O378 C390 1.421 . S
O379 Fe375 2.077 . S
O379 C395 1.381 . S
O380 Fe370 1.959 . S
O380 C395 1.421 . S
O381 Fe370 2.050 1_556 S
O381 C385 1.381 . S
O382 Fe368 1.935 . S
O382 C385 1.421 . S
O383 Fe371 2.055 1_554 S
O383 C391 1.381 . S
O384 Fe375 1.935 . S
O384 C391 1.421 . S
C385 O381 1.381 . S
C385 O382 1.421 . S
O386 Fe375 2.077 . S
O386 C398 1.381 . S
O387 Fe370 1.957 . S
O387 C398 1.421 . S
O388 Fe368 2.077 . S
O388 C376 1.381 . S
O389 Fe371 1.954 . S
O389 C376 1.421 . S
C390 O377 1.381 . S
C390 O378 1.421 . S
C391 O383 1.381 . S
C391 O384 1.421 . S
C392 O393 1.381 . S
C392 O394 1.421 . S
O393 Fe371 2.057 1_554 S
O393 C392 1.381 . S
O394 Fe375 1.935 . S
O394 C392 1.421 . S
C395 O379 1.381 . S
C395 O380 1.421 . S
O396 Fe370 2.049 1_556 S
O396 C399 1.381 . S
O397 Fe368 1.935 . S
O397 C399 1.421 . S
C398 O386 1.381 . S
C398 O387 1.421 . S
C399 O396 1.381 . S
C399 O397 1.421 . S
Fe400 O401 1.884 . S
Fe400 O404 1.715 . S
Fe400 O409 2.077 . S
Fe400 O414 1.935 . S
Fe400 O420 2.077 1_455 S
Fe400 O429 1.935 1_455 S
O401 Fe400 1.884 . S
O401 Fe403 1.718 1_455 S
Fe402 O404 1.886 . S
Fe402 O405 1.717 1_455 S
Fe402 O412 1.935 . S
Fe402 O413 2.077 . S
Fe402 O419 1.935 1_455 S
Fe402 O428 2.077 1_455 S
Fe403 O401 1.718 1_655 S
Fe403 O406 1.886 . S
Fe403 O410 1.935 1_655 S
Fe403 O415 2.077 1_655 S
Fe403 O421 1.935 . S
Fe403 O425 2.077 . S
O404 Fe400 1.715 . S
O404 Fe402 1.886 . S
O405 Fe402 1.717 1_655 S
O405 Fe407 1.884 . S
O406 Fe403 1.886 . S
O406 Fe407 1.715 . S
Fe407 O405 1.884 . S
Fe407 O406 1.715 . S
Fe407 O411 2.077 1_655 S
Fe407 O416 1.935 1_655 S
Fe407 O418 2.077 . S
Fe407 O426 1.935 . S
C408 O420 1.381 . S
C408 O421 1.421 . S
O409 Fe400 2.077 . S
O409 C422 1.381 . S
O410 Fe403 1.935 1_455 S
O410 C422 1.421 . S
O411 Fe407 2.077 1_455 S
O411 C427 1.381 . S
O412 Fe402 1.935 . S
O412 C427 1.421 . S
O413 Fe402 2.077 . S
O413 C417 1.381 . S
O414 Fe400 1.935 . S
O414 C417 1.421 . S
O415 Fe403 2.077 1_455 S
O415 C423 1.381 . S
O416 Fe407 1.935 1_455 S
O416 C423 1.421 . S
C417 O413 1.381 . S
C417 O414 1.421 . S
O418 Fe407 2.077 . S
O418 C430 1.381 . S
O419 Fe402 1.935 1_655 S
O419 C430 1.421 . S
O420 Fe400 2.077 1_655 S
O420 C408 1.381 . S
O421 Fe403 1.935 . S
O421 C408 1.421 . S
C422 O409 1.381 . S
C422 O410 1.421 . S
C423 O415 1.381 . S
C423 O416 1.421 . S
C424 O425 1.381 . S
C424 O426 1.421 . S
O425 Fe403 2.077 . S
O425 C424 1.381 . S
O426 Fe407 1.935 . S
O426 C424 1.421 . S
C427 O411 1.381 . S
C427 O412 1.421 . S
O428 Fe402 2.077 1_655 S
O428 C431 1.381 . S
O429 Fe400 1.935 1_655 S
O429 C431 1.421 . S
C430 O418 1.381 . S
C430 O419 1.421 . S
C431 O428 1.381 . S
C431 O429 1.421 . S
Fe432 O433 1.886 . S
Fe432 O436 1.715 . S
Fe432 O441 2.077 . S
Fe432 O446 1.935 . S
Fe432 O452 2.077 . S
Fe432 O461 1.935 . S
O433 Fe432 1.886 . S
O433 Fe435 1.739 . S
Fe434 O436 1.857 1_545 S
Fe434 O437 1.747 . S
Fe434 O444 1.960 . S
Fe434 O445 2.052 1_545 S
Fe434 O451 1.956 . S
Fe434 O460 2.048 1_545 S
Fe435 O433 1.739 . S
Fe435 O438 1.863 1_565 S
Fe435 O442 1.951 . S
Fe435 O447 2.055 1_565 S
Fe435 O453 1.954 . S
Fe435 O457 2.058 1_565 S
O436 Fe432 1.715 . S
O436 Fe434 1.857 1_565 S
O437 Fe434 1.747 . S
O437 Fe439 1.886 . S
O438 Fe435 1.863 1_545 S
O438 Fe439 1.715 . S
Fe439 O437 1.886 . S
Fe439 O438 1.715 . S
Fe439 O443 2.077 . S
Fe439 O448 1.935 . S
Fe439 O450 2.077 . S
Fe439 O458 1.935 . S
C440 O452 1.381 . S
C440 O453 1.421 . S
O441 Fe432 2.077 . S
O441 C454 1.381 . S
O442 Fe435 1.951 . S
O442 C454 1.421 . S
O443 Fe439 2.077 . S
O443 C459 1.381 . S
O444 Fe434 1.960 . S
O444 C459 1.421 . S
O445 Fe434 2.052 1_565 S
O445 C449 1.381 . S
O446 Fe432 1.935 . S
O446 C449 1.421 . S
O447 Fe435 2.055 1_545 S
O447 C455 1.381 . S
O448 Fe439 1.935 . S
O448 C455 1.421 . S
C449 O445 1.381 . S
C449 O446 1.421 . S
O450 Fe439 2.077 . S
O450 C462 1.381 . S
O451 Fe434 1.956 . S
O451 C462 1.421 . S
O452 Fe432 2.077 . S
O452 C440 1.381 . S
O453 Fe435 1.954 . S
O453 C440 1.421 . S
C454 O441 1.381 . S
C454 O442 1.421 . S
C455 O447 1.381 . S
C455 O448 1.421 . S
C456 O457 1.381 . S
C456 O458 1.421 . S
O457 Fe435 2.058 1_545 S
O457 C456 1.381 . S
O458 Fe439 1.935 . S
O458 C456 1.421 . S
C459 O443 1.381 . S
C459 O444 1.421 . S
O460 Fe434 2.048 1_565 S
O460 C463 1.381 . S
O461 Fe432 1.935 . S
O461 C463 1.421 . S
C462 O450 1.381 . S
C462 O451 1.421 . S
C463 O460 1.381 . S
C463 O461 1.421 . S
H464 C472 0.929 . S
H465 C474 0.930 . S
H466 C476 0.930 . S
H467 C479 0.929 . S
H468 C482 0.930 . S
H469 C484 0.960 . S
H470 C484 0.960 . S
H471 C484 0.960 . S
C472 H464 0.929 . S
C472 C473 1.377 . S
C472 C474 1.384 . S
C473 C472 1.377 . S
C473 C479 1.390 . S
C474 H465 0.930 . S
C474 C472 1.384 . S
C474 C475 1.372 . S
C475 C474 1.372 . S
C475 C476 1.400 . S
C475 C480 1.490 . S
C476 H466 0.930 . S
C476 C475 1.400 . S
C476 C479 1.386 . S
H477 C493 0.930 . S
H478 C494 0.931 . S
C479 H467 0.929 . S
C479 C473 1.390 . S
C479 C476 1.386 . S
C480 C475 1.490 . S
C480 C482 1.395 . S
C480 C483 1.403 . S
H481 C487 0.930 . S
C482 H468 0.930 . S
C482 C480 1.395 . S
C482 C485 1.403 . S
C483 C480 1.403 . S
C483 C484 1.524 . S
C483 C487 1.400 . S
C484 H469 0.960 . S
C484 H470 0.960 . S
C484 H471 0.960 . S
C484 C483 1.524 . S
C485 C482 1.403 . S
C485 C486 1.392 . S
C485 C489 1.495 . S
C486 C485 1.392 . S
C486 C487 1.385 . S
C486 C488 1.478 . S
C487 H481 0.930 . S
C487 C483 1.400 . S
C487 C486 1.385 . S
C488 C486 1.478 . S
C488 C490 1.381 . S
C488 C494 1.383 . S
C489 C485 1.495 . S
C489 H495 0.959 . S
C489 H496 0.961 . S
C489 H497 0.960 . S
C490 C488 1.381 . S
C490 C491 1.394 . S
C490 H498 0.930 . S
C491 C490 1.394 . S
C491 C492 1.383 . S
C491 H499 0.929 . S
C492 C491 1.383 . S
C492 C493 1.377 . S
C493 H477 0.930 . S
C493 C492 1.377 . S
C493 C494 1.379 . S
C494 H478 0.931 . S
C494 C488 1.383 . S
C494 C493 1.379 . S
H495 C489 0.959 . S
H496 C489 0.961 . S
H497 C489 0.960 . S
H498 C490 0.930 . S
H499 C491 0.929 . S
H500 C508 0.929 . S
H501 C510 0.930 . S
H502 C512 0.930 . S
H503 C515 0.929 . S
H504 C518 0.930 . S
H505 C520 0.960 . S
H506 C520 0.960 . S
H507 C520 0.960 . S
C508 H500 0.929 . S
C508 C509 1.377 . S
C508 C510 1.384 . S
C509 C508 1.377 . S
C509 C515 1.390 . S
C510 H501 0.930 . S
C510 C508 1.384 . S
C510 C511 1.372 . S
C511 C510 1.372 . S
C511 C512 1.400 . S
C511 C516 1.490 . S
C512 H502 0.930 . S
C512 C511 1.400 . S
C512 C515 1.386 . S
H513 C529 0.930 . S
H514 C530 0.931 . S
C515 H503 0.929 . S
C515 C509 1.390 . S
C515 C512 1.386 . S
C516 C511 1.490 . S
C516 C518 1.395 . S
C516 C519 1.403 . S
H517 C523 0.930 . S
C518 H504 0.930 . S
C518 C516 1.395 . S
C518 C521 1.403 . S
C519 C516 1.403 . S
C519 C520 1.524 . S
C519 C523 1.400 . S
C520 H505 0.960 . S
C520 H506 0.960 . S
C520 H507 0.960 . S
C520 C519 1.524 . S
C521 C518 1.403 . S
C521 C522 1.392 . S
C521 C525 1.495 . S
C522 C521 1.392 . S
C522 C523 1.385 . S
C522 C524 1.478 . S
C523 H517 0.930 . S
C523 C519 1.400 . S
C523 C522 1.385 . S
C524 C522 1.478 . S
C524 C526 1.381 . S
C524 C530 1.383 . S
C525 C521 1.495 . S
C525 H531 0.959 . S
C525 H532 0.961 . S
C525 H533 0.960 . S
C526 C524 1.381 . S
C526 C527 1.394 . S
C526 H534 0.930 . S
C527 C526 1.394 . S
C527 C528 1.383 . S
C527 H535 0.929 . S
C528 C527 1.383 . S
C528 C529 1.377 . S
C529 H513 0.930 . S
C529 C528 1.377 . S
C529 C530 1.379 . S
C530 H514 0.931 . S
C530 C524 1.383 . S
C530 C529 1.379 . S
H531 C525 0.959 . S
H532 C525 0.961 . S
H533 C525 0.960 . S
H534 C526 0.930 . S
H535 C527 0.929 . S
H536 C544 0.929 . S
H537 C546 0.930 . S
H538 C548 0.930 . S
H539 C551 0.929 . S
H540 C554 0.930 . S
H541 C556 0.960 . S
H542 C556 0.960 . S
H543 C556 0.960 . S
C544 H536 0.929 . S
C544 C545 1.377 . S
C544 C546 1.384 . S
C545 C544 1.377 . S
C545 C551 1.390 . S
C546 H537 0.930 . S
C546 C544 1.384 . S
C546 C547 1.372 . S
C547 C546 1.372 . S
C547 C548 1.400 . S
C547 C552 1.490 . S
C548 H538 0.930 . S
C548 C547 1.400 . S
C548 C551 1.386 . S
H549 C565 0.930 . S
H550 C566 0.931 . S
C551 H539 0.929 . S
C551 C545 1.390 . S
C551 C548 1.386 . S
C552 C547 1.490 . S
C552 C554 1.395 . S
C552 C555 1.403 . S
H553 C559 0.930 . S
C554 H540 0.930 . S
C554 C552 1.395 . S
C554 C557 1.403 . S
C555 C552 1.403 . S
C555 C556 1.524 . S
C555 C559 1.400 . S
C556 H541 0.960 . S
C556 H542 0.960 . S
C556 H543 0.960 . S
C556 C555 1.524 . S
C557 C554 1.403 . S
C557 C558 1.392 . S
C557 C561 1.495 . S
C558 C557 1.392 . S
C558 C559 1.385 . S
C558 C560 1.478 . S
C559 H553 0.930 . S
C559 C555 1.400 . S
C559 C558 1.385 . S
C560 C558 1.478 . S
C560 C562 1.381 . S
C560 C566 1.383 . S
C561 C557 1.495 . S
C561 H567 0.959 . S
C561 H568 0.961 . S
C561 H569 0.960 . S
C562 C560 1.381 . S
C562 C563 1.394 . S
C562 H570 0.930 . S
C563 C562 1.394 . S
C563 C564 1.383 . S
C563 H571 0.929 . S
C564 C563 1.383 . S
C564 C565 1.377 . S
C565 H549 0.930 . S
C565 C564 1.377 . S
C565 C566 1.379 . S
C566 H550 0.931 . S
C566 C560 1.383 . S
C566 C565 1.379 . S
H567 C561 0.959 . S
H568 C561 0.961 . S
H569 C561 0.960 . S
H570 C562 0.930 . S
H571 C563 0.929 . S
H572 C580 0.929 . S
H573 C582 0.930 . S
H574 C584 0.930 . S
H575 C587 0.929 . S
H576 C590 0.930 . S
H577 C592 0.960 . S
H578 C592 0.960 . S
H579 C592 0.960 . S
C580 H572 0.929 . S
C580 C581 1.377 . S
C580 C582 1.384 . S
C581 C580 1.377 . S
C581 C587 1.390 . S
C582 H573 0.930 . S
C582 C580 1.384 . S
C582 C583 1.372 . S
C583 C582 1.372 . S
C583 C584 1.400 . S
C583 C588 1.490 . S
C584 H574 0.930 . S
C584 C583 1.400 . S
C584 C587 1.386 . S
H585 C601 0.930 . S
H586 C602 0.931 . S
C587 H575 0.929 . S
C587 C581 1.390 . S
C587 C584 1.386 . S
C588 C583 1.490 . S
C588 C590 1.395 . S
C588 C591 1.403 . S
H589 C595 0.930 . S
C590 H576 0.930 . S
C590 C588 1.395 . S
C590 C593 1.403 . S
C591 C588 1.403 . S
C591 C592 1.524 . S
C591 C595 1.400 . S
C592 H577 0.960 . S
C592 H578 0.960 . S
C592 H579 0.960 . S
C592 C591 1.524 . S
C593 C590 1.403 . S
C593 C594 1.392 . S
C593 C597 1.495 . S
C594 C593 1.392 . S
C594 C595 1.385 . S
C594 C596 1.478 . S
C595 H589 0.930 . S
C595 C591 1.400 . S
C595 C594 1.385 . S
C596 C594 1.478 . S
C596 C598 1.381 . S
C596 C602 1.383 . S
C597 C593 1.495 . S
C597 H603 0.959 . S
C597 H604 0.961 . S
C597 H605 0.960 . S
C598 C596 1.381 . S
C598 C599 1.394 . S
C598 H606 0.930 . S
C599 C598 1.394 . S
C599 C600 1.383 . S
C599 H607 0.929 . S
C600 C599 1.383 . S
C600 C601 1.377 . S
C601 H585 0.930 . S
C601 C600 1.377 . S
C601 C602 1.379 . S
C602 H586 0.931 . S
C602 C596 1.383 . S
C602 C601 1.379 . S
H603 C597 0.959 . S
H604 C597 0.961 . S
H605 C597 0.960 . S
H606 C598 0.930 . S
H607 C599 0.929 . S
H608 C616 0.929 . S
H609 C618 0.930 . S
H610 C620 0.930 . S
H611 C623 0.929 . S
H612 C626 0.930 . S
H613 C628 0.960 . S
H614 C628 0.960 . S
H615 C628 0.960 . S
C616 H608 0.929 . S
C616 C617 1.377 . S
C616 C618 1.384 . S
C617 C616 1.377 . S
C617 C623 1.390 . S
C618 H609 0.930 . S
C618 C616 1.384 . S
C618 C619 1.372 . S
C619 C618 1.372 . S
C619 C620 1.400 . S
C619 C624 1.490 . S
C620 H610 0.930 . S
C620 C619 1.400 . S
C620 C623 1.386 . S
H621 C637 0.930 . S
H622 C638 0.931 . S
C623 H611 0.929 . S
C623 C617 1.390 . S
C623 C620 1.386 . S
C624 C619 1.490 . S
C624 C626 1.395 . S
C624 C627 1.403 . S
H625 C631 0.930 . S
C626 H612 0.930 . S
C626 C624 1.395 . S
C626 C629 1.403 . S
C627 C624 1.403 . S
C627 C628 1.524 . S
C627 C631 1.400 . S
C628 H613 0.960 . S
C628 H614 0.960 . S
C628 H615 0.960 . S
C628 C627 1.524 . S
C629 C626 1.403 . S
C629 C630 1.392 . S
C629 C633 1.495 . S
C630 C629 1.392 . S
C630 C631 1.385 . S
C630 C632 1.478 . S
C631 H625 0.930 . S
C631 C627 1.400 . S
C631 C630 1.385 . S
C632 C630 1.478 . S
C632 C634 1.381 . S
C632 C638 1.383 . S
C633 C629 1.495 . S
C633 H639 0.959 . S
C633 H640 0.961 . S
C633 H641 0.960 . S
C634 C632 1.381 . S
C634 C635 1.394 . S
C634 H642 0.930 . S
C635 C634 1.394 . S
C635 C636 1.383 . S
C635 H643 0.929 . S
C636 C635 1.383 . S
C636 C637 1.377 . S
C637 H621 0.930 . S
C637 C636 1.377 . S
C637 C638 1.379 . S
C638 H622 0.931 . S
C638 C632 1.383 . S
C638 C637 1.379 . S
H639 C633 0.959 . S
H640 C633 0.961 . S
H641 C633 0.960 . S
H642 C634 0.930 . S
H643 C635 0.929 . S
H644 C652 0.929 . S
H645 C654 0.930 . S
H646 C656 0.930 . S
H647 C659 0.929 . S
H648 C662 0.930 . S
H649 C664 0.960 . S
H650 C664 0.960 . S
H651 C664 0.960 . S
C652 H644 0.929 . S
C652 C653 1.377 . S
C652 C654 1.384 . S
C653 C652 1.377 . S
C653 C659 1.390 . S
C654 H645 0.930 . S
C654 C652 1.384 . S
C654 C655 1.372 . S
C655 C654 1.372 . S
C655 C656 1.400 . S
C655 C660 1.490 . S
C656 H646 0.930 . S
C656 C655 1.400 . S
C656 C659 1.386 . S
H657 C673 0.930 . S
H658 C674 0.931 . S
C659 H647 0.929 . S
C659 C653 1.390 . S
C659 C656 1.386 . S
C660 C655 1.490 . S
C660 C662 1.395 . S
C660 C663 1.403 . S
H661 C667 0.930 . S
C662 H648 0.930 . S
C662 C660 1.395 . S
C662 C665 1.403 . S
C663 C660 1.403 . S
C663 C664 1.524 . S
C663 C667 1.400 . S
C664 H649 0.960 . S
C664 H650 0.960 . S
C664 H651 0.960 . S
C664 C663 1.524 . S
C665 C662 1.403 . S
C665 C666 1.392 . S
C665 C669 1.495 . S
C666 C665 1.392 . S
C666 C667 1.385 . S
C666 C668 1.478 . S
C667 H661 0.930 . S
C667 C663 1.400 . S
C667 C666 1.385 . S
C668 C666 1.478 . S
C668 C670 1.381 . S
C668 C674 1.383 . S
C669 C665 1.495 . S
C669 H675 0.959 . S
C669 H676 0.961 . S
C669 H677 0.960 . S
C670 C668 1.381 . S
C670 C671 1.394 . S
C670 H678 0.930 . S
C671 C670 1.394 . S
C671 C672 1.383 . S
C671 H679 0.929 . S
C672 C671 1.383 . S
C672 C673 1.377 . S
C673 H657 0.930 . S
C673 C672 1.377 . S
C673 C674 1.379 . S
C674 H658 0.931 . S
C674 C668 1.383 . S
C674 C673 1.379 . S
H675 C669 0.959 . S
H676 C669 0.961 . S
H677 C669 0.960 . S
H678 C670 0.930 . S
H679 C671 0.929 . S
H680 C688 0.929 . S
H681 C690 0.930 . S
H682 C692 0.930 . S
H683 C695 0.929 . S
H684 C698 0.930 . S
H685 C700 0.960 . S
H686 C700 0.960 . S
H687 C700 0.960 . S
C688 H680 0.929 . S
C688 C689 1.377 . S
C688 C690 1.384 . S
C689 C688 1.377 . S
C689 C695 1.390 . S
C690 H681 0.930 . S
C690 C688 1.384 . S
C690 C691 1.372 . S
C691 C690 1.372 . S
C691 C692 1.400 . S
C691 C696 1.490 . S
C692 H682 0.930 . S
C692 C691 1.400 . S
C692 C695 1.386 . S
H693 C709 0.930 . S
H694 C710 0.931 . S
C695 H683 0.929 . S
C695 C689 1.390 . S
C695 C692 1.386 . S
C696 C691 1.490 . S
C696 C698 1.395 . S
C696 C699 1.403 . S
H697 C703 0.930 . S
C698 H684 0.930 . S
C698 C696 1.395 . S
C698 C701 1.403 . S
C699 C696 1.403 . S
C699 C700 1.524 . S
C699 C703 1.400 . S
C700 H685 0.960 . S
C700 H686 0.960 . S
C700 H687 0.960 . S
C700 C699 1.524 . S
C701 C698 1.403 . S
C701 C702 1.392 . S
C701 C705 1.495 . S
C702 C701 1.392 . S
C702 C703 1.385 . S
C702 C704 1.478 . S
C703 H697 0.930 . S
C703 C699 1.400 . S
C703 C702 1.385 . S
C704 C702 1.478 . S
C704 C706 1.381 . S
C704 C710 1.383 . S
C705 C701 1.495 . S
C705 H711 0.959 . S
C705 H712 0.961 . S
C705 H713 0.960 . S
C706 C704 1.381 . S
C706 C707 1.394 . S
C706 H714 0.930 . S
C707 C706 1.394 . S
C707 C708 1.383 . S
C707 H715 0.929 . S
C708 C707 1.383 . S
C708 C709 1.377 . S
C709 H693 0.930 . S
C709 C708 1.377 . S
C709 C710 1.379 . S
C710 H694 0.931 . S
C710 C704 1.383 . S
C710 C709 1.379 . S
H711 C705 0.959 . S
H712 C705 0.961 . S
H713 C705 0.960 . S
H714 C706 0.930 . S
H715 C707 0.929 . S
H716 C724 0.929 . S
H717 C726 0.930 . S
H718 C728 0.930 . S
H719 C731 0.929 . S
H720 C734 0.930 . S
H721 C736 0.960 . S
H722 C736 0.960 . S
H723 C736 0.960 . S
C724 H716 0.929 . S
C724 C725 1.377 . S
C724 C726 1.384 . S
C725 C724 1.377 . S
C725 C731 1.390 . S
C726 H717 0.930 . S
C726 C724 1.384 . S
C726 C727 1.372 . S
C727 C726 1.372 . S
C727 C728 1.400 . S
C727 C732 1.490 . S
C728 H718 0.930 . S
C728 C727 1.400 . S
C728 C731 1.386 . S
H729 C745 0.930 . S
H730 C746 0.931 . S
C731 H719 0.929 . S
C731 C725 1.390 . S
C731 C728 1.386 . S
C732 C727 1.490 . S
C732 C734 1.395 . S
C732 C735 1.403 . S
H733 C739 0.930 . S
C734 H720 0.930 . S
C734 C732 1.395 . S
C734 C737 1.403 . S
C735 C732 1.403 . S
C735 C736 1.524 . S
C735 C739 1.400 . S
C736 H721 0.960 . S
C736 H722 0.960 . S
C736 H723 0.960 . S
C736 C735 1.524 . S
C737 C734 1.403 . S
C737 C738 1.392 . S
C737 C741 1.495 . S
C738 C737 1.392 . S
C738 C739 1.385 . S
C738 C740 1.478 . S
C739 H733 0.930 . S
C739 C735 1.400 . S
C739 C738 1.385 . S
C740 C738 1.478 . S
C740 C742 1.381 . S
C740 C746 1.383 . S
C741 C737 1.495 . S
C741 H747 0.959 . S
C741 H748 0.961 . S
C741 H749 0.960 . S
C742 C740 1.381 . S
C742 C743 1.394 . S
C742 H750 0.930 . S
C743 C742 1.394 . S
C743 C744 1.383 . S
C743 H751 0.929 . S
C744 C743 1.383 . S
C744 C745 1.377 . S
C745 H729 0.930 . S
C745 C744 1.377 . S
C745 C746 1.379 . S
C746 H730 0.931 . S
C746 C740 1.383 . S
C746 C745 1.379 . S
H747 C741 0.959 . S
H748 C741 0.961 . S
H749 C741 0.960 . S
H750 C742 0.930 . S
H751 C743 0.929 . S
H752 C760 0.929 . S
H753 C762 0.930 . S
H754 C764 0.930 . S
H755 C767 0.929 . S
H756 C770 0.930 . S
H757 C772 0.960 . S
H758 C772 0.960 . S
H759 C772 0.960 . S
C760 H752 0.929 . S
C760 C761 1.377 . S
C760 C762 1.384 . S
C761 C760 1.377 . S
C761 C767 1.390 . S
C762 H753 0.930 . S
C762 C760 1.384 . S
C762 C763 1.372 . S
C763 C762 1.372 . S
C763 C764 1.400 . S
C763 C768 1.490 . S
C764 H754 0.930 . S
C764 C763 1.400 . S
C764 C767 1.386 . S
H765 C781 0.930 . S
H766 C782 0.931 . S
C767 H755 0.929 . S
C767 C761 1.390 . S
C767 C764 1.386 . S
C768 C763 1.490 . S
C768 C770 1.395 . S
C768 C771 1.403 . S
H769 C775 0.930 . S
C770 H756 0.930 . S
C770 C768 1.395 . S
C770 C773 1.403 . S
C771 C768 1.403 . S
C771 C772 1.524 . S
C771 C775 1.400 . S
C772 H757 0.960 . S
C772 H758 0.960 . S
C772 H759 0.960 . S
C772 C771 1.524 . S
C773 C770 1.403 . S
C773 C774 1.392 . S
C773 C777 1.495 . S
C774 C773 1.392 . S
C774 C775 1.385 . S
C774 C776 1.478 . S
C775 H769 0.930 . S
C775 C771 1.400 . S
C775 C774 1.385 . S
C776 C774 1.478 . S
C776 C778 1.381 . S
C776 C782 1.383 . S
C777 C773 1.495 . S
C777 H783 0.959 . S
C777 H784 0.961 . S
C777 H785 0.960 . S
C778 C776 1.381 . S
C778 C779 1.394 . S
C778 H786 0.930 . S
C779 C778 1.394 . S
C779 C780 1.383 . S
C779 H787 0.929 . S
C780 C779 1.383 . S
C780 C781 1.377 . S
C781 H765 0.930 . S
C781 C780 1.377 . S
C781 C782 1.379 . S
C782 H766 0.931 . S
C782 C776 1.383 . S
C782 C781 1.379 . S
H783 C777 0.959 . S
H784 C777 0.961 . S
H785 C777 0.960 . S
H786 C778 0.930 . S
H787 C779 0.929 . S
H788 C796 0.929 . S
H789 C798 0.930 . S
H790 C800 0.930 . S
H791 C803 0.929 . S
H792 C806 0.930 . S
H793 C808 0.960 . S
H794 C808 0.960 . S
H795 C808 0.960 . S
C796 H788 0.929 . S
C796 C797 1.377 . S
C796 C798 1.384 . S
C797 C796 1.377 . S
C797 C803 1.390 . S
C798 H789 0.930 . S
C798 C796 1.384 . S
C798 C799 1.372 . S
C799 C798 1.372 . S
C799 C800 1.400 . S
C799 C804 1.490 . S
C800 H790 0.930 . S
C800 C799 1.400 . S
C800 C803 1.386 . S
H801 C817 0.930 . S
H802 C818 0.931 . S
C803 H791 0.929 . S
C803 C797 1.390 . S
C803 C800 1.386 . S
C804 C799 1.490 . S
C804 C806 1.395 . S
C804 C807 1.403 . S
H805 C811 0.930 . S
C806 H792 0.930 . S
C806 C804 1.395 . S
C806 C809 1.403 . S
C807 C804 1.403 . S
C807 C808 1.524 . S
C807 C811 1.400 . S
C808 H793 0.960 . S
C808 H794 0.960 . S
C808 H795 0.960 . S
C808 C807 1.524 . S
C809 C806 1.403 . S
C809 C810 1.392 . S
C809 C813 1.495 . S
C810 C809 1.392 . S
C810 C811 1.385 . S
C810 C812 1.478 . S
C811 H805 0.930 . S
C811 C807 1.400 . S
C811 C810 1.385 . S
C812 C810 1.478 . S
C812 C814 1.381 . S
C812 C818 1.383 . S
C813 C809 1.495 . S
C813 H819 0.959 . S
C813 H820 0.961 . S
C813 H821 0.960 . S
C814 C812 1.381 . S
C814 C815 1.394 . S
C814 H822 0.930 . S
C815 C814 1.394 . S
C815 C816 1.383 . S
C815 H823 0.929 . S
C816 C815 1.383 . S
C816 C817 1.377 . S
C817 H801 0.930 . S
C817 C816 1.377 . S
C817 C818 1.379 . S
C818 H802 0.931 . S
C818 C812 1.383 . S
C818 C817 1.379 . S
H819 C813 0.959 . S
H820 C813 0.961 . S
H821 C813 0.960 . S
H822 C814 0.930 . S
H823 C815 0.929 . S
H824 C832 0.929 . S
H825 C834 0.930 . S
H826 C836 0.930 . S
H827 C839 0.929 . S
H828 C842 0.930 . S
H829 C844 0.960 . S
H830 C844 0.960 . S
H831 C844 0.960 . S
C832 H824 0.929 . S
C832 C833 1.377 . S
C832 C834 1.384 . S
C833 C832 1.377 . S
C833 C839 1.390 . S
C834 H825 0.930 . S
C834 C832 1.384 . S
C834 C835 1.372 . S
C835 C834 1.372 . S
C835 C836 1.400 . S
C835 C840 1.490 . S
C836 H826 0.930 . S
C836 C835 1.400 . S
C836 C839 1.386 . S
H837 C853 0.930 . S
H838 C854 0.931 . S
C839 H827 0.929 . S
C839 C833 1.390 . S
C839 C836 1.386 . S
C840 C835 1.490 . S
C840 C842 1.395 . S
C840 C843 1.403 . S
H841 C847 0.930 . S
C842 H828 0.930 . S
C842 C840 1.395 . S
C842 C845 1.403 . S
C843 C840 1.403 . S
C843 C844 1.524 . S
C843 C847 1.400 . S
C844 H829 0.960 . S
C844 H830 0.960 . S
C844 H831 0.960 . S
C844 C843 1.524 . S
C845 C842 1.403 . S
C845 C846 1.392 . S
C845 C849 1.495 . S
C846 C845 1.392 . S
C846 C847 1.385 . S
C846 C848 1.478 . S
C847 H841 0.930 . S
C847 C843 1.400 . S
C847 C846 1.385 . S
C848 C846 1.478 . S
C848 C850 1.381 . S
C848 C854 1.383 . S
C849 C845 1.495 . S
C849 H855 0.959 . S
C849 H856 0.961 . S
C849 H857 0.960 . S
C850 C848 1.381 . S
C850 C851 1.394 . S
C850 H858 0.930 . S
C851 C850 1.394 . S
C851 C852 1.383 . S
C851 H859 0.929 . S
C852 C851 1.383 . S
C852 C853 1.377 . S
C853 H837 0.930 . S
C853 C852 1.377 . S
C853 C854 1.379 . S
C854 H838 0.931 . S
C854 C848 1.383 . S
C854 C853 1.379 . S
H855 C849 0.959 . S
H856 C849 0.961 . S
H857 C849 0.960 . S
H858 C850 0.930 . S
H859 C851 0.929 . S
H860 C868 0.929 . S
H861 C870 0.930 . S
H862 C872 0.930 . S
H863 C875 0.929 . S
H864 C878 0.930 . S
H865 C880 0.960 . S
H866 C880 0.960 . S
H867 C880 0.960 . S
C868 H860 0.929 . S
C868 C869 1.377 . S
C868 C870 1.384 . S
C869 C868 1.377 . S
C869 C875 1.390 . S
C870 H861 0.930 . S
C870 C868 1.384 . S
C870 C871 1.372 . S
C871 C870 1.372 . S
C871 C872 1.400 . S
C871 C876 1.490 . S
C872 H862 0.930 . S
C872 C871 1.400 . S
C872 C875 1.386 . S
H873 C889 0.930 . S
H874 C890 0.931 . S
C875 H863 0.929 . S
C875 C869 1.390 . S
C875 C872 1.386 . S
C876 C871 1.490 . S
C876 C878 1.395 . S
C876 C879 1.403 . S
H877 C883 0.930 . S
C878 H864 0.930 . S
C878 C876 1.395 . S
C878 C881 1.403 . S
C879 C876 1.403 . S
C879 C880 1.524 . S
C879 C883 1.400 . S
C880 H865 0.960 . S
C880 H866 0.960 . S
C880 H867 0.960 . S
C880 C879 1.524 . S
C881 C878 1.403 . S
C881 C882 1.392 . S
C881 C885 1.495 . S
C882 C881 1.392 . S
C882 C883 1.385 . S
C882 C884 1.478 . S
C883 H877 0.930 . S
C883 C879 1.400 . S
C883 C882 1.385 . S
C884 C882 1.478 . S
C884 C886 1.381 . S
C884 C890 1.383 . S
C885 C881 1.495 . S
C885 H891 0.959 . S
C885 H892 0.961 . S
C885 H893 0.960 . S
C886 C884 1.381 . S
C886 C887 1.394 . S
C886 H894 0.930 . S
C887 C886 1.394 . S
C887 C888 1.383 . S
C887 H895 0.929 . S
C888 C887 1.383 . S
C888 C889 1.377 . S
C889 H873 0.930 . S
C889 C888 1.377 . S
C889 C890 1.379 . S
C890 H874 0.931 . S
C890 C884 1.383 . S
C890 C889 1.379 . S
H891 C885 0.959 . S
H892 C885 0.961 . S
H893 C885 0.960 . S
H894 C886 0.930 . S
H895 C887 0.929 . S
H896 C904 0.929 . S
H897 C906 0.930 . S
H898 C908 0.930 . S
H899 C911 0.929 . S
H900 C914 0.930 . S
H901 C916 0.960 . S
H902 C916 0.960 . S
H903 C916 0.960 . S
C904 H896 0.929 . S
C904 C905 1.377 . S
C904 C906 1.384 . S
C905 C904 1.377 . S
C905 C911 1.390 . S
C906 H897 0.930 . S
C906 C904 1.384 . S
C906 C907 1.372 . S
C907 C906 1.372 . S
C907 C908 1.400 . S
C907 C912 1.490 . S
C908 H898 0.930 . S
C908 C907 1.400 . S
C908 C911 1.386 . S
H909 C925 0.930 . S
H910 C926 0.931 . S
C911 H899 0.929 . S
C911 C905 1.390 . S
C911 C908 1.386 . S
C912 C907 1.490 . S
C912 C914 1.395 . S
C912 C915 1.403 . S
H913 C919 0.930 . S
C914 H900 0.930 . S
C914 C912 1.395 . S
C914 C917 1.403 . S
C915 C912 1.403 . S
C915 C916 1.524 . S
C915 C919 1.400 . S
C916 H901 0.960 . S
C916 H902 0.960 . S
C916 H903 0.960 . S
C916 C915 1.524 . S
C917 C914 1.403 . S
C917 C918 1.392 . S
C917 C921 1.495 . S
C918 C917 1.392 . S
C918 C919 1.385 . S
C918 C920 1.478 . S
C919 H913 0.930 . S
C919 C915 1.400 . S
C919 C918 1.385 . S
C920 C918 1.478 . S
C920 C922 1.381 . S
C920 C926 1.383 . S
C921 C917 1.495 . S
C921 H927 0.959 . S
C921 H928 0.961 . S
C921 H929 0.960 . S
C922 C920 1.381 . S
C922 C923 1.394 . S
C922 H930 0.930 . S
C923 C922 1.394 . S
C923 C924 1.383 . S
C923 H931 0.929 . S
C924 C923 1.383 . S
C924 C925 1.377 . S
C925 H909 0.930 . S
C925 C924 1.377 . S
C925 C926 1.379 . S
C926 H910 0.931 . S
C926 C920 1.383 . S
C926 C925 1.379 . S
H927 C921 0.959 . S
H928 C921 0.961 . S
H929 C921 0.960 . S
H930 C922 0.930 . S
H931 C923 0.929 . S
H932 C940 0.929 . S
H933 C942 0.930 . S
H934 C944 0.930 . S
H935 C947 0.929 . S
H936 C950 0.930 . S
H937 C952 0.960 . S
H938 C952 0.960 . S
H939 C952 0.960 . S
C940 H932 0.929 . S
C940 C941 1.377 . S
C940 C942 1.384 . S
C941 C940 1.377 . S
C941 C947 1.390 . S
C942 H933 0.930 . S
C942 C940 1.384 . S
C942 C943 1.372 . S
C943 C942 1.372 . S
C943 C944 1.400 . S
C943 C948 1.490 . S
C944 H934 0.930 . S
C944 C943 1.400 . S
C944 C947 1.386 . S
H945 C961 0.930 . S
H946 C962 0.931 . S
C947 H935 0.929 . S
C947 C941 1.390 . S
C947 C944 1.386 . S
C948 C943 1.490 . S
C948 C950 1.395 . S
C948 C951 1.403 . S
H949 C955 0.930 . S
C950 H936 0.930 . S
C950 C948 1.395 . S
C950 C953 1.403 . S
C951 C948 1.403 . S
C951 C952 1.524 . S
C951 C955 1.400 . S
C952 H937 0.960 . S
C952 H938 0.960 . S
C952 H939 0.960 . S
C952 C951 1.524 . S
C953 C950 1.403 . S
C953 C954 1.392 . S
C953 C957 1.495 . S
C954 C953 1.392 . S
C954 C955 1.385 . S
C954 C956 1.478 . S
C955 H949 0.930 . S
C955 C951 1.400 . S
C955 C954 1.385 . S
C956 C954 1.478 . S
C956 C958 1.381 . S
C956 C962 1.383 . S
C957 C953 1.495 . S
C957 H963 0.959 . S
C957 H964 0.961 . S
C957 H965 0.960 . S
C958 C956 1.381 . S
C958 C959 1.394 . S
C958 H966 0.930 . S
C959 C958 1.394 . S
C959 C960 1.383 . S
C959 H967 0.929 . S
C960 C959 1.383 . S
C960 C961 1.377 . S
C961 H945 0.930 . S
C961 C960 1.377 . S
C961 C962 1.379 . S
C962 H946 0.931 . S
C962 C956 1.383 . S
C962 C961 1.379 . S
H963 C957 0.959 . S
H964 C957 0.961 . S
H965 C957 0.960 . S
H966 C958 0.930 . S
H967 C959 0.929 . S
H968 C976 0.929 . S
H969 C978 0.930 . S
H970 C980 0.930 . S
H971 C983 0.929 . S
H972 C986 0.930 . S
H973 C988 0.960 . S
H974 C988 0.960 . S
H975 C988 0.960 . S
C976 H968 0.929 . S
C976 C977 1.377 . S
C976 C978 1.384 . S
C977 C976 1.377 . S
C977 C983 1.390 . S
C978 H969 0.930 . S
C978 C976 1.384 . S
C978 C979 1.372 . S
C979 C978 1.372 . S
C979 C980 1.400 . S
C979 C984 1.490 . S
C980 H970 0.930 . S
C980 C979 1.400 . S
C980 C983 1.386 . S
H981 C997 0.930 . S
H982 C998 0.931 . S
C983 H971 0.929 . S
C983 C977 1.390 . S
C983 C980 1.386 . S
C984 C979 1.490 . S
C984 C986 1.395 . S
C984 C987 1.403 . S
H985 C991 0.930 . S
C986 H972 0.930 . S
C986 C984 1.395 . S
C986 C989 1.403 . S
C987 C984 1.403 . S
C987 C988 1.524 . S
C987 C991 1.400 . S
C988 H973 0.960 . S
C988 H974 0.960 . S
C988 H975 0.960 . S
C988 C987 1.524 . S
C989 C986 1.403 . S
C989 C990 1.392 . S
C989 C993 1.495 . S
C990 C989 1.392 . S
C990 C991 1.385 . S
C990 C992 1.478 . S
C991 H985 0.930 . S
C991 C987 1.400 . S
C991 C990 1.385 . S
C992 C990 1.478 . S
C992 C994 1.381 . S
C992 C998 1.383 . S
C993 C989 1.495 . S
C993 H999 0.959 . S
C993 H1000 0.961 . S
C993 H1001 0.960 . S
C994 C992 1.381 . S
C994 C995 1.394 . S
C994 H1002 0.930 . S
C995 C994 1.394 . S
C995 C996 1.383 . S
C995 H1003 0.929 . S
C996 C995 1.383 . S
C996 C997 1.377 . S
C997 H981 0.930 . S
C997 C996 1.377 . S
C997 C998 1.379 . S
C998 H982 0.931 . S
C998 C992 1.383 . S
C998 C997 1.379 . S
H999 C993 0.959 . S
H1000 C993 0.961 . S
H1001 C993 0.960 . S
H1002 C994 0.930 . S
H1003 C995 0.929 . S
H1004 C1012 0.929 . S
H1005 C1014 0.930 . S
H1006 C1016 0.930 . S
H1007 C1019 0.929 . S
H1008 C1022 0.930 . S
H1009 C1024 0.960 . S
H1010 C1024 0.960 . S
H1011 C1024 0.960 . S
C1012 H1004 0.929 . S
C1012 C1013 1.377 . S
C1012 C1014 1.384 . S
C1013 C1012 1.377 . S
C1013 C1019 1.390 . S
C1014 H1005 0.930 . S
C1014 C1012 1.384 . S
C1014 C1015 1.372 . S
C1015 C1014 1.372 . S
C1015 C1016 1.400 . S
C1015 C1020 1.490 . S
C1016 H1006 0.930 . S
C1016 C1015 1.400 . S
C1016 C1019 1.386 . S
H1017 C1033 0.930 . S
H1018 C1034 0.931 . S
C1019 H1007 0.929 . S
C1019 C1013 1.390 . S
C1019 C1016 1.386 . S
C1020 C1015 1.490 . S
C1020 C1022 1.395 . S
C1020 C1023 1.403 . S
H1021 C1027 0.930 . S
C1022 H1008 0.930 . S
C1022 C1020 1.395 . S
C1022 C1025 1.403 . S
C1023 C1020 1.403 . S
C1023 C1024 1.524 . S
C1023 C1027 1.400 . S
C1024 H1009 0.960 . S
C1024 H1010 0.960 . S
C1024 H1011 0.960 . S
C1024 C1023 1.524 . S
C1025 C1022 1.403 . S
C1025 C1026 1.392 . S
C1025 C1029 1.495 . S
C1026 C1025 1.392 . S
C1026 C1027 1.385 . S
C1026 C1028 1.478 . S
C1027 H1021 0.930 . S
C1027 C1023 1.400 . S
C1027 C1026 1.385 . S
C1028 C1026 1.478 . S
C1028 C1030 1.381 . S
C1028 C1034 1.383 . S
C1029 C1025 1.495 . S
C1029 H1035 0.959 . S
C1029 H1036 0.961 . S
C1029 H1037 0.960 . S
C1030 C1028 1.381 . S
C1030 C1031 1.394 . S
C1030 H1038 0.930 . S
C1031 C1030 1.394 . S
C1031 C1032 1.383 . S
C1031 H1039 0.929 . S
C1032 C1031 1.383 . S
C1032 C1033 1.377 . S
C1033 H1017 0.930 . S
C1033 C1032 1.377 . S
C1033 C1034 1.379 . S
C1034 H1018 0.931 . S
C1034 C1028 1.383 . S
C1034 C1033 1.379 . S
H1035 C1029 0.959 . S
H1036 C1029 0.961 . S
H1037 C1029 0.960 . S
H1038 C1030 0.930 . S
H1039 C1031 0.929 . S
H1040 C1048 0.929 . S
H1041 C1050 0.930 . S
H1042 C1052 0.930 . S
H1043 C1055 0.929 . S
H1044 C1058 0.930 . S
H1045 C1060 0.960 . S
H1046 C1060 0.960 . S
H1047 C1060 0.960 . S
C1048 H1040 0.929 . S
C1048 C1049 1.377 . S
C1048 C1050 1.384 . S
C1049 C1048 1.377 . S
C1049 C1055 1.390 . S
C1050 H1041 0.930 . S
C1050 C1048 1.384 . S
C1050 C1051 1.372 . S
C1051 C1050 1.372 . S
C1051 C1052 1.400 . S
C1051 C1056 1.490 . S
C1052 H1042 0.930 . S
C1052 C1051 1.400 . S
C1052 C1055 1.386 . S
H1053 C1069 0.930 . S
H1054 C1070 0.931 . S
C1055 H1043 0.929 . S
C1055 C1049 1.390 . S
C1055 C1052 1.386 . S
C1056 C1051 1.490 . S
C1056 C1058 1.395 . S
C1056 C1059 1.403 . S
H1057 C1063 0.930 . S
C1058 H1044 0.930 . S
C1058 C1056 1.395 . S
C1058 C1061 1.403 . S
C1059 C1056 1.403 . S
C1059 C1060 1.524 . S
C1059 C1063 1.400 . S
C1060 H1045 0.960 . S
C1060 H1046 0.960 . S
C1060 H1047 0.960 . S
C1060 C1059 1.524 . S
C1061 C1058 1.403 . S
C1061 C1062 1.392 . S
C1061 C1065 1.495 . S
C1062 C1061 1.392 . S
C1062 C1063 1.385 . S
C1062 C1064 1.478 . S
C1063 H1057 0.930 . S
C1063 C1059 1.400 . S
C1063 C1062 1.385 . S
C1064 C1062 1.478 . S
C1064 C1066 1.381 . S
C1064 C1070 1.383 . S
C1065 C1061 1.495 . S
C1065 H1071 0.959 . S
C1065 H1072 0.961 . S
C1065 H1073 0.960 . S
C1066 C1064 1.381 . S
C1066 C1067 1.394 . S
C1066 H1074 0.930 . S
C1067 C1066 1.394 . S
C1067 C1068 1.383 . S
C1067 H1075 0.929 . S
C1068 C1067 1.383 . S
C1068 C1069 1.377 . S
C1069 H1053 0.930 . S
C1069 C1068 1.377 . S
C1069 C1070 1.379 . S
C1070 H1054 0.931 . S
C1070 C1064 1.383 . S
C1070 C1069 1.379 . S
H1071 C1065 0.959 . S
H1072 C1065 0.961 . S
H1073 C1065 0.960 . S
H1074 C1066 0.930 . S
H1075 C1067 0.929 . S
H1076 C1084 0.929 . S
H1077 C1086 0.930 . S
H1078 C1088 0.930 . S
H1079 C1091 0.929 . S
H1080 C1094 0.930 . S
H1081 C1096 0.960 . S
H1082 C1096 0.960 . S
H1083 C1096 0.960 . S
C1084 H1076 0.929 . S
C1084 C1085 1.377 . S
C1084 C1086 1.384 . S
C1085 C1084 1.377 . S
C1085 C1091 1.390 . S
C1086 H1077 0.930 . S
C1086 C1084 1.384 . S
C1086 C1087 1.372 . S
C1087 C1086 1.372 . S
C1087 C1088 1.400 . S
C1087 C1092 1.490 . S
C1088 H1078 0.930 . S
C1088 C1087 1.400 . S
C1088 C1091 1.386 . S
H1089 C1105 0.930 . S
H1090 C1106 0.931 . S
C1091 H1079 0.929 . S
C1091 C1085 1.390 . S
C1091 C1088 1.386 . S
C1092 C1087 1.490 . S
C1092 C1094 1.395 . S
C1092 C1095 1.403 . S
H1093 C1099 0.930 . S
C1094 H1080 0.930 . S
C1094 C1092 1.395 . S
C1094 C1097 1.403 . S
C1095 C1092 1.403 . S
C1095 C1096 1.524 . S
C1095 C1099 1.400 . S
C1096 H1081 0.960 . S
C1096 H1082 0.960 . S
C1096 H1083 0.960 . S
C1096 C1095 1.524 . S
C1097 C1094 1.403 . S
C1097 C1098 1.392 . S
C1097 C1101 1.495 . S
C1098 C1097 1.392 . S
C1098 C1099 1.385 . S
C1098 C1100 1.478 . S
C1099 H1093 0.930 . S
C1099 C1095 1.400 . S
C1099 C1098 1.385 . S
C1100 C1098 1.478 . S
C1100 C1102 1.381 . S
C1100 C1106 1.383 . S
C1101 C1097 1.495 . S
C1101 H1107 0.959 . S
C1101 H1108 0.961 . S
C1101 H1109 0.960 . S
C1102 C1100 1.381 . S
C1102 C1103 1.394 . S
C1102 H1110 0.930 . S
C1103 C1102 1.394 . S
C1103 C1104 1.383 . S
C1103 H1111 0.929 . S
C1104 C1103 1.383 . S
C1104 C1105 1.377 . S
C1105 H1089 0.930 . S
C1105 C1104 1.377 . S
C1105 C1106 1.379 . S
C1106 H1090 0.931 . S
C1106 C1100 1.383 . S
C1106 C1105 1.379 . S
H1107 C1101 0.959 . S
H1108 C1101 0.961 . S
H1109 C1101 0.960 . S
H1110 C1102 0.930 . S
H1111 C1103 0.929 . S
H1112 C1120 0.929 . S
H1113 C1122 0.930 . S
H1114 C1124 0.930 . S
H1115 C1127 0.929 . S
H1116 C1130 0.930 . S
H1117 C1132 0.960 . S
H1118 C1132 0.960 . S
H1119 C1132 0.960 . S
C1120 H1112 0.929 . S
C1120 C1121 1.377 . S
C1120 C1122 1.384 . S
C1121 C1120 1.377 . S
C1121 C1127 1.390 . S
C1122 H1113 0.930 . S
C1122 C1120 1.384 . S
C1122 C1123 1.372 . S
C1123 C1122 1.372 . S
C1123 C1124 1.400 . S
C1123 C1128 1.490 . S
C1124 H1114 0.930 . S
C1124 C1123 1.400 . S
C1124 C1127 1.386 . S
H1125 C1141 0.930 . S
H1126 C1142 0.931 . S
C1127 H1115 0.929 . S
C1127 C1121 1.390 . S
C1127 C1124 1.386 . S
C1128 C1123 1.490 . S
C1128 C1130 1.395 . S
C1128 C1131 1.403 . S
H1129 C1135 0.930 . S
C1130 H1116 0.930 . S
C1130 C1128 1.395 . S
C1130 C1133 1.403 . S
C1131 C1128 1.403 . S
C1131 C1132 1.524 . S
C1131 C1135 1.400 . S
C1132 H1117 0.960 . S
C1132 H1118 0.960 . S
C1132 H1119 0.960 . S
C1132 C1131 1.524 . S
C1133 C1130 1.403 . S
C1133 C1134 1.392 . S
C1133 C1137 1.495 . S
C1134 C1133 1.392 . S
C1134 C1135 1.385 . S
C1134 C1136 1.478 . S
C1135 H1129 0.930 . S
C1135 C1131 1.400 . S
C1135 C1134 1.385 . S
C1136 C1134 1.478 . S
C1136 C1138 1.381 . S
C1136 C1142 1.383 . S
C1137 C1133 1.495 . S
C1137 H1143 0.959 . S
C1137 H1144 0.961 . S
C1137 H1145 0.960 . S
C1138 C1136 1.381 . S
C1138 C1139 1.394 . S
C1138 H1146 0.930 . S
C1139 C1138 1.394 . S
C1139 C1140 1.383 . S
C1139 H1147 0.929 . S
C1140 C1139 1.383 . S
C1140 C1141 1.377 . S
C1141 H1125 0.930 . S
C1141 C1140 1.377 . S
C1141 C1142 1.379 . S
C1142 H1126 0.931 . S
C1142 C1136 1.383 . S
C1142 C1141 1.379 . S
H1143 C1137 0.959 . S
H1144 C1137 0.961 . S
H1145 C1137 0.960 . S
H1146 C1138 0.930 . S
H1147 C1139 0.929 . S
H1148 C1156 0.929 . S
H1149 C1158 0.930 . S
H1150 C1160 0.930 . S
H1151 C1163 0.929 . S
H1152 C1166 0.930 . S
H1153 C1168 0.960 . S
H1154 C1168 0.960 . S
H1155 C1168 0.960 . S
C1156 H1148 0.929 . S
C1156 C1157 1.377 . S
C1156 C1158 1.384 . S
C1157 C1156 1.377 . S
C1157 C1163 1.390 . S
C1158 H1149 0.930 . S
C1158 C1156 1.384 . S
C1158 C1159 1.372 . S
C1159 C1158 1.372 . S
C1159 C1160 1.400 . S
C1159 C1164 1.490 . S
C1160 H1150 0.930 . S
C1160 C1159 1.400 . S
C1160 C1163 1.386 . S
H1161 C1177 0.930 . S
H1162 C1178 0.931 . S
C1163 H1151 0.929 . S
C1163 C1157 1.390 . S
C1163 C1160 1.386 . S
C1164 C1159 1.490 . S
C1164 C1166 1.395 . S
C1164 C1167 1.403 . S
H1165 C1171 0.930 . S
C1166 H1152 0.930 . S
C1166 C1164 1.395 . S
C1166 C1169 1.403 . S
C1167 C1164 1.403 . S
C1167 C1168 1.524 . S
C1167 C1171 1.400 . S
C1168 H1153 0.960 . S
C1168 H1154 0.960 . S
C1168 H1155 0.960 . S
C1168 C1167 1.524 . S
C1169 C1166 1.403 . S
C1169 C1170 1.392 . S
C1169 C1173 1.495 . S
C1170 C1169 1.392 . S
C1170 C1171 1.385 . S
C1170 C1172 1.478 . S
C1171 H1165 0.930 . S
C1171 C1167 1.400 . S
C1171 C1170 1.385 . S
C1172 C1170 1.478 . S
C1172 C1174 1.381 . S
C1172 C1178 1.383 . S
C1173 C1169 1.495 . S
C1173 H1179 0.959 . S
C1173 H1180 0.961 . S
C1173 H1181 0.960 . S
C1174 C1172 1.381 . S
C1174 C1175 1.394 . S
C1174 H1182 0.930 . S
C1175 C1174 1.394 . S
C1175 C1176 1.383 . S
C1175 H1183 0.929 . S
C1176 C1175 1.383 . S
C1176 C1177 1.377 . S
C1177 H1161 0.930 . S
C1177 C1176 1.377 . S
C1177 C1178 1.379 . S
C1178 H1162 0.931 . S
C1178 C1172 1.383 . S
C1178 C1177 1.379 . S
H1179 C1173 0.959 . S
H1180 C1173 0.961 . S
H1181 C1173 0.960 . S
H1182 C1174 0.930 . S
H1183 C1175 0.929 . S
H1184 C1192 0.929 . S
H1185 C1194 0.930 . S
H1186 C1196 0.930 . S
H1187 C1199 0.929 . S
H1188 C1202 0.930 . S
H1189 C1204 0.960 . S
H1190 C1204 0.960 . S
H1191 C1204 0.960 . S
C1192 H1184 0.929 . S
C1192 C1193 1.377 . S
C1192 C1194 1.384 . S
C1193 C1192 1.377 . S
C1193 C1199 1.390 . S
C1194 H1185 0.930 . S
C1194 C1192 1.384 . S
C1194 C1195 1.372 . S
C1195 C1194 1.372 . S
C1195 C1196 1.400 . S
C1195 C1200 1.490 . S
C1196 H1186 0.930 . S
C1196 C1195 1.400 . S
C1196 C1199 1.386 . S
H1197 C1213 0.930 . S
H1198 C1214 0.931 . S
C1199 H1187 0.929 . S
C1199 C1193 1.390 . S
C1199 C1196 1.386 . S
C1200 C1195 1.490 . S
C1200 C1202 1.395 . S
C1200 C1203 1.403 . S
H1201 C1207 0.930 . S
C1202 H1188 0.930 . S
C1202 C1200 1.395 . S
C1202 C1205 1.403 . S
C1203 C1200 1.403 . S
C1203 C1204 1.524 . S
C1203 C1207 1.400 . S
C1204 H1189 0.960 . S
C1204 H1190 0.960 . S
C1204 H1191 0.960 . S
C1204 C1203 1.524 . S
C1205 C1202 1.403 . S
C1205 C1206 1.392 . S
C1205 C1209 1.495 . S
C1206 C1205 1.392 . S
C1206 C1207 1.385 . S
C1206 C1208 1.478 . S
C1207 H1201 0.930 . S
C1207 C1203 1.400 . S
C1207 C1206 1.385 . S
C1208 C1206 1.478 . S
C1208 C1210 1.381 . S
C1208 C1214 1.383 . S
C1209 C1205 1.495 . S
C1209 H1215 0.959 . S
C1209 H1216 0.961 . S
C1209 H1217 0.960 . S
C1210 C1208 1.381 . S
C1210 C1211 1.394 . S
C1210 H1218 0.930 . S
C1211 C1210 1.394 . S
C1211 C1212 1.383 . S
C1211 H1219 0.929 . S
C1212 C1211 1.383 . S
C1212 C1213 1.377 . S
C1213 H1197 0.930 . S
C1213 C1212 1.377 . S
C1213 C1214 1.379 . S
C1214 H1198 0.931 . S
C1214 C1208 1.383 . S
C1214 C1213 1.379 . S
H1215 C1209 0.959 . S
H1216 C1209 0.961 . S
H1217 C1209 0.960 . S
H1218 C1210 0.930 . S
H1219 C1211 0.929 . S
H1220 C1228 0.929 . S
H1221 C1230 0.930 . S
H1222 C1232 0.930 . S
H1223 C1235 0.929 . S
H1224 C1238 0.930 . S
H1225 C1240 0.960 . S
H1226 C1240 0.960 . S
H1227 C1240 0.960 . S
C1228 H1220 0.929 . S
C1228 C1229 1.377 . S
C1228 C1230 1.384 . S
C1229 C1228 1.377 . S
C1229 C1235 1.390 . S
C1230 H1221 0.930 . S
C1230 C1228 1.384 . S
C1230 C1231 1.372 . S
C1231 C1230 1.372 . S
C1231 C1232 1.400 . S
C1231 C1236 1.490 . S
C1232 H1222 0.930 . S
C1232 C1231 1.400 . S
C1232 C1235 1.386 . S
H1233 C1249 0.930 . S
H1234 C1250 0.931 . S
C1235 H1223 0.929 . S
C1235 C1229 1.390 . S
C1235 C1232 1.386 . S
C1236 C1231 1.490 . S
C1236 C1238 1.395 . S
C1236 C1239 1.403 . S
H1237 C1243 0.930 . S
C1238 H1224 0.930 . S
C1238 C1236 1.395 . S
C1238 C1241 1.403 . S
C1239 C1236 1.403 . S
C1239 C1240 1.524 . S
C1239 C1243 1.400 . S
C1240 H1225 0.960 . S
C1240 H1226 0.960 . S
C1240 H1227 0.960 . S
C1240 C1239 1.524 . S
C1241 C1238 1.403 . S
C1241 C1242 1.392 . S
C1241 C1245 1.495 . S
C1242 C1241 1.392 . S
C1242 C1243 1.385 . S
C1242 C1244 1.478 . S
C1243 H1237 0.930 . S
C1243 C1239 1.400 . S
C1243 C1242 1.385 . S
C1244 C1242 1.478 . S
C1244 C1246 1.381 . S
C1244 C1250 1.383 . S
C1245 C1241 1.495 . S
C1245 H1251 0.959 . S
C1245 H1252 0.961 . S
C1245 H1253 0.960 . S
C1246 C1244 1.381 . S
C1246 C1247 1.394 . S
C1246 H1254 0.930 . S
C1247 C1246 1.394 . S
C1247 C1248 1.383 . S
C1247 H1255 0.929 . S
C1248 C1247 1.383 . S
C1248 C1249 1.377 . S
C1249 H1233 0.930 . S
C1249 C1248 1.377 . S
C1249 C1250 1.379 . S
C1250 H1234 0.931 . S
C1250 C1244 1.383 . S
C1250 C1249 1.379 . S
H1251 C1245 0.959 . S
H1252 C1245 0.961 . S
H1253 C1245 0.960 . S
H1254 C1246 0.930 . S
H1255 C1247 0.929 . S
H1256 C1264 0.929 . S
H1257 C1266 0.930 . S
H1258 C1268 0.930 . S
H1259 C1271 0.929 . S
H1260 C1274 0.930 . S
H1261 C1276 0.960 . S
H1262 C1276 0.960 . S
H1263 C1276 0.960 . S
C1264 H1256 0.929 . S
C1264 C1265 1.377 . S
C1264 C1266 1.384 . S
C1265 C1264 1.377 . S
C1265 C1271 1.390 . S
C1266 H1257 0.930 . S
C1266 C1264 1.384 . S
C1266 C1267 1.372 . S
C1267 C1266 1.372 . S
C1267 C1268 1.400 . S
C1267 C1272 1.490 . S
C1268 H1258 0.930 . S
C1268 C1267 1.400 . S
C1268 C1271 1.386 . S
H1269 C1285 0.930 . S
H1270 C1286 0.931 . S
C1271 H1259 0.929 . S
C1271 C1265 1.390 . S
C1271 C1268 1.386 . S
C1272 C1267 1.490 . S
C1272 C1274 1.395 . S
C1272 C1275 1.403 . S
H1273 C1279 0.930 . S
C1274 H1260 0.930 . S
C1274 C1272 1.395 . S
C1274 C1277 1.403 . S
C1275 C1272 1.403 . S
C1275 C1276 1.524 . S
C1275 C1279 1.400 . S
C1276 H1261 0.960 . S
C1276 H1262 0.960 . S
C1276 H1263 0.960 . S
C1276 C1275 1.524 . S
C1277 C1274 1.403 . S
C1277 C1278 1.392 . S
C1277 C1281 1.495 . S
C1278 C1277 1.392 . S
C1278 C1279 1.385 . S
C1278 C1280 1.478 . S
C1279 H1273 0.930 . S
C1279 C1275 1.400 . S
C1279 C1278 1.385 . S
C1280 C1278 1.478 . S
C1280 C1282 1.381 . S
C1280 C1286 1.383 . S
C1281 C1277 1.495 . S
C1281 H1287 0.959 . S
C1281 H1288 0.961 . S
C1281 H1289 0.960 . S
C1282 C1280 1.381 . S
C1282 C1283 1.394 . S
C1282 H1290 0.930 . S
C1283 C1282 1.394 . S
C1283 C1284 1.383 . S
C1283 H1291 0.929 . S
C1284 C1283 1.383 . S
C1284 C1285 1.377 . S
C1285 H1269 0.930 . S
C1285 C1284 1.377 . S
C1285 C1286 1.379 . S
C1286 H1270 0.931 . S
C1286 C1280 1.383 . S
C1286 C1285 1.379 . S
H1287 C1281 0.959 . S
H1288 C1281 0.961 . S
H1289 C1281 0.960 . S
H1290 C1282 0.930 . S
H1291 C1283 0.929 . S
H1292 C1300 0.929 . S
H1293 C1302 0.930 . S
H1294 C1304 0.930 . S
H1295 C1307 0.929 . S
H1296 C1310 0.930 . S
H1297 C1312 0.960 . S
H1298 C1312 0.960 . S
H1299 C1312 0.960 . S
C1300 H1292 0.929 . S
C1300 C1301 1.377 . S
C1300 C1302 1.384 . S
C1301 C1300 1.377 . S
C1301 C1307 1.390 . S
C1302 H1293 0.930 . S
C1302 C1300 1.384 . S
C1302 C1303 1.372 . S
C1303 C1302 1.372 . S
C1303 C1304 1.400 . S
C1303 C1308 1.490 . S
C1304 H1294 0.930 . S
C1304 C1303 1.400 . S
C1304 C1307 1.386 . S
H1305 C1321 0.930 . S
H1306 C1322 0.931 . S
C1307 H1295 0.929 . S
C1307 C1301 1.390 . S
C1307 C1304 1.386 . S
C1308 C1303 1.490 . S
C1308 C1310 1.395 . S
C1308 C1311 1.403 . S
H1309 C1315 0.930 . S
C1310 H1296 0.930 . S
C1310 C1308 1.395 . S
C1310 C1313 1.403 . S
C1311 C1308 1.403 . S
C1311 C1312 1.524 . S
C1311 C1315 1.400 . S
C1312 H1297 0.960 . S
C1312 H1298 0.960 . S
C1312 H1299 0.960 . S
C1312 C1311 1.524 . S
C1313 C1310 1.403 . S
C1313 C1314 1.392 . S
C1313 C1317 1.495 . S
C1314 C1313 1.392 . S
C1314 C1315 1.385 . S
C1314 C1316 1.478 . S
C1315 H1309 0.930 . S
C1315 C1311 1.400 . S
C1315 C1314 1.385 . S
C1316 C1314 1.478 . S
C1316 C1318 1.381 . S
C1316 C1322 1.383 . S
C1317 C1313 1.495 . S
C1317 H1323 0.959 . S
C1317 H1324 0.961 . S
C1317 H1325 0.960 . S
C1318 C1316 1.381 . S
C1318 C1319 1.394 . S
C1318 H1326 0.930 . S
C1319 C1318 1.394 . S
C1319 C1320 1.383 . S
C1319 H1327 0.929 . S
C1320 C1319 1.383 . S
C1320 C1321 1.377 . S
C1321 H1305 0.930 . S
C1321 C1320 1.377 . S
C1321 C1322 1.379 . S
C1322 H1306 0.931 . S
C1322 C1316 1.383 . S
C1322 C1321 1.379 . S
H1323 C1317 0.959 . S
H1324 C1317 0.961 . S
H1325 C1317 0.960 . S
H1326 C1318 0.930 . S
H1327 C1319 0.929 . S
H1328 C1336 0.929 . S
H1329 C1338 0.930 . S
H1330 C1340 0.930 . S
H1331 C1343 0.929 . S
H1332 C1346 0.930 . S
H1333 C1348 0.960 . S
H1334 C1348 0.960 . S
H1335 C1348 0.960 . S
C1336 H1328 0.929 . S
C1336 C1337 1.377 . S
C1336 C1338 1.384 . S
C1337 C1336 1.377 . S
C1337 C1343 1.390 . S
C1338 H1329 0.930 . S
C1338 C1336 1.384 . S
C1338 C1339 1.372 . S
C1339 C1338 1.372 . S
C1339 C1340 1.400 . S
C1339 C1344 1.490 . S
C1340 H1330 0.930 . S
C1340 C1339 1.400 . S
C1340 C1343 1.386 . S
H1341 C1357 0.930 . S
H1342 C1358 0.931 . S
C1343 H1331 0.929 . S
C1343 C1337 1.390 . S
C1343 C1340 1.386 . S
C1344 C1339 1.490 . S
C1344 C1346 1.395 . S
C1344 C1347 1.403 . S
H1345 C1351 0.930 . S
C1346 H1332 0.930 . S
C1346 C1344 1.395 . S
C1346 C1349 1.403 . S
C1347 C1344 1.403 . S
C1347 C1348 1.524 . S
C1347 C1351 1.400 . S
C1348 H1333 0.960 . S
C1348 H1334 0.960 . S
C1348 H1335 0.960 . S
C1348 C1347 1.524 . S
C1349 C1346 1.403 . S
C1349 C1350 1.392 . S
C1349 C1353 1.495 . S
C1350 C1349 1.392 . S
C1350 C1351 1.385 . S
C1350 C1352 1.478 . S
C1351 H1345 0.930 . S
C1351 C1347 1.400 . S
C1351 C1350 1.385 . S
C1352 C1350 1.478 . S
C1352 C1354 1.381 . S
C1352 C1358 1.383 . S
C1353 C1349 1.495 . S
C1353 H1359 0.959 . S
C1353 H1360 0.961 . S
C1353 H1361 0.960 . S
C1354 C1352 1.381 . S
C1354 C1355 1.394 . S
C1354 H1362 0.930 . S
C1355 C1354 1.394 . S
C1355 C1356 1.383 . S
C1355 H1363 0.929 . S
C1356 C1355 1.383 . S
C1356 C1357 1.377 . S
C1357 H1341 0.930 . S
C1357 C1356 1.377 . S
C1357 C1358 1.379 . S
C1358 H1342 0.931 . S
C1358 C1352 1.383 . S
C1358 C1357 1.379 . S
H1359 C1353 0.959 . S
H1360 C1353 0.961 . S
H1361 C1353 0.960 . S
H1362 C1354 0.930 . S
H1363 C1355 0.929 . S
H1364 C1372 0.929 . S
H1365 C1374 0.930 . S
H1366 C1376 0.930 . S
H1367 C1379 0.929 . S
H1368 C1382 0.930 . S
H1369 C1384 0.960 . S
H1370 C1384 0.960 . S
H1371 C1384 0.960 . S
C1372 H1364 0.929 . S
C1372 C1373 1.377 . S
C1372 C1374 1.384 . S
C1373 C1372 1.377 . S
C1373 C1379 1.390 . S
C1374 H1365 0.930 . S
C1374 C1372 1.384 . S
C1374 C1375 1.372 . S
C1375 C1374 1.372 . S
C1375 C1376 1.400 . S
C1375 C1380 1.490 . S
C1376 H1366 0.930 . S
C1376 C1375 1.400 . S
C1376 C1379 1.386 . S
H1377 C1393 0.930 . S
H1378 C1394 0.931 . S
C1379 H1367 0.929 . S
C1379 C1373 1.390 . S
C1379 C1376 1.386 . S
C1380 C1375 1.490 . S
C1380 C1382 1.395 . S
C1380 C1383 1.403 . S
H1381 C1387 0.930 . S
C1382 H1368 0.930 . S
C1382 C1380 1.395 . S
C1382 C1385 1.403 . S
C1383 C1380 1.403 . S
C1383 C1384 1.524 . S
C1383 C1387 1.400 . S
C1384 H1369 0.960 . S
C1384 H1370 0.960 . S
C1384 H1371 0.960 . S
C1384 C1383 1.524 . S
C1385 C1382 1.403 . S
C1385 C1386 1.392 . S
C1385 C1389 1.495 . S
C1386 C1385 1.392 . S
C1386 C1387 1.385 . S
C1386 C1388 1.478 . S
C1387 H1381 0.930 . S
C1387 C1383 1.400 . S
C1387 C1386 1.385 . S
C1388 C1386 1.478 . S
C1388 C1390 1.381 . S
C1388 C1394 1.383 . S
C1389 C1385 1.495 . S
C1389 H1395 0.959 . S
C1389 H1396 0.961 . S
C1389 H1397 0.960 . S
C1390 C1388 1.381 . S
C1390 C1391 1.394 . S
C1390 H1398 0.930 . S
C1391 C1390 1.394 . S
C1391 C1392 1.383 . S
C1391 H1399 0.929 . S
C1392 C1391 1.383 . S
C1392 C1393 1.377 . S
C1393 H1377 0.930 . S
C1393 C1392 1.377 . S
C1393 C1394 1.379 . S
C1394 H1378 0.931 . S
C1394 C1388 1.383 . S
C1394 C1393 1.379 . S
H1395 C1389 0.959 . S
H1396 C1389 0.961 . S
H1397 C1389 0.960 . S
H1398 C1390 0.930 . S
H1399 C1391 0.929 . S
H1400 C1408 0.929 . S
H1401 C1410 0.930 . S
H1402 C1412 0.930 . S
H1403 C1415 0.929 . S
H1404 C1418 0.930 . S
H1405 C1420 0.960 . S
H1406 C1420 0.960 . S
H1407 C1420 0.960 . S
C1408 H1400 0.929 . S
C1408 C1409 1.377 . S
C1408 C1410 1.384 . S
C1409 C1408 1.377 . S
C1409 C1415 1.390 . S
C1410 H1401 0.930 . S
C1410 C1408 1.384 . S
C1410 C1411 1.372 . S
C1411 C1410 1.372 . S
C1411 C1412 1.400 . S
C1411 C1416 1.490 . S
C1412 H1402 0.930 . S
C1412 C1411 1.400 . S
C1412 C1415 1.386 . S
H1413 C1429 0.930 . S
H1414 C1430 0.931 . S
C1415 H1403 0.929 . S
C1415 C1409 1.390 . S
C1415 C1412 1.386 . S
C1416 C1411 1.490 . S
C1416 C1418 1.395 . S
C1416 C1419 1.403 . S
H1417 C1423 0.930 . S
C1418 H1404 0.930 . S
C1418 C1416 1.395 . S
C1418 C1421 1.403 . S
C1419 C1416 1.403 . S
C1419 C1420 1.524 . S
C1419 C1423 1.400 . S
C1420 H1405 0.960 . S
C1420 H1406 0.960 . S
C1420 H1407 0.960 . S
C1420 C1419 1.524 . S
C1421 C1418 1.403 . S
C1421 C1422 1.392 . S
C1421 C1425 1.495 . S
C1422 C1421 1.392 . S
C1422 C1423 1.385 . S
C1422 C1424 1.478 . S
C1423 H1417 0.930 . S
C1423 C1419 1.400 . S
C1423 C1422 1.385 . S
C1424 C1422 1.478 . S
C1424 C1426 1.381 . S
C1424 C1430 1.383 . S
C1425 C1421 1.495 . S
C1425 H1431 0.959 . S
C1425 H1432 0.961 . S
C1425 H1433 0.960 . S
C1426 C1424 1.381 . S
C1426 C1427 1.394 . S
C1426 H1434 0.930 . S
C1427 C1426 1.394 . S
C1427 C1428 1.383 . S
C1427 H1435 0.929 . S
C1428 C1427 1.383 . S
C1428 C1429 1.377 . S
C1429 H1413 0.930 . S
C1429 C1428 1.377 . S
C1429 C1430 1.379 . S
C1430 H1414 0.931 . S
C1430 C1424 1.383 . S
C1430 C1429 1.379 . S
H1431 C1425 0.959 . S
H1432 C1425 0.961 . S
H1433 C1425 0.960 . S
H1434 C1426 0.930 . S
H1435 C1427 0.929 . S
H1436 C1444 0.929 . S
H1437 C1446 0.930 . S
H1438 C1448 0.930 . S
H1439 C1451 0.929 . S
H1440 C1454 0.930 . S
H1441 C1456 0.960 . S
H1442 C1456 0.960 . S
H1443 C1456 0.960 . S
C1444 H1436 0.929 . S
C1444 C1445 1.377 . S
C1444 C1446 1.384 . S
C1445 C1444 1.377 . S
C1445 C1451 1.390 . S
C1446 H1437 0.930 . S
C1446 C1444 1.384 . S
C1446 C1447 1.372 . S
C1447 C1446 1.372 . S
C1447 C1448 1.400 . S
C1447 C1452 1.490 . S
C1448 H1438 0.930 . S
C1448 C1447 1.400 . S
C1448 C1451 1.386 . S
H1449 C1465 0.930 . S
H1450 C1466 0.931 . S
C1451 H1439 0.929 . S
C1451 C1445 1.390 . S
C1451 C1448 1.386 . S
C1452 C1447 1.490 . S
C1452 C1454 1.395 . S
C1452 C1455 1.403 . S
H1453 C1459 0.930 . S
C1454 H1440 0.930 . S
C1454 C1452 1.395 . S
C1454 C1457 1.403 . S
C1455 C1452 1.403 . S
C1455 C1456 1.524 . S
C1455 C1459 1.400 . S
C1456 H1441 0.960 . S
C1456 H1442 0.960 . S
C1456 H1443 0.960 . S
C1456 C1455 1.524 . S
C1457 C1454 1.403 . S
C1457 C1458 1.392 . S
C1457 C1461 1.495 . S
C1458 C1457 1.392 . S
C1458 C1459 1.385 . S
C1458 C1460 1.478 . S
C1459 H1453 0.930 . S
C1459 C1455 1.400 . S
C1459 C1458 1.385 . S
C1460 C1458 1.478 . S
C1460 C1462 1.381 . S
C1460 C1466 1.383 . S
C1461 C1457 1.495 . S
C1461 H1467 0.959 . S
C1461 H1468 0.961 . S
C1461 H1469 0.960 . S
C1462 C1460 1.381 . S
C1462 C1463 1.394 . S
C1462 H1470 0.930 . S
C1463 C1462 1.394 . S
C1463 C1464 1.383 . S
C1463 H1471 0.929 . S
C1464 C1463 1.383 . S
C1464 C1465 1.377 . S
C1465 H1449 0.930 . S
C1465 C1464 1.377 . S
C1465 C1466 1.379 . S
C1466 H1450 0.931 . S
C1466 C1460 1.383 . S
C1466 C1465 1.379 . S
H1467 C1461 0.959 . S
H1468 C1461 0.961 . S
H1469 C1461 0.960 . S
H1470 C1462 0.930 . S
H1471 C1463 0.929 . S
H1472 C1480 0.929 . S
H1473 C1482 0.930 . S
H1474 C1484 0.930 . S
H1475 C1487 0.929 . S
H1476 C1490 0.930 . S
H1477 C1492 0.960 . S
H1478 C1492 0.960 . S
H1479 C1492 0.960 . S
C1480 H1472 0.929 . S
C1480 C1481 1.377 . S
C1480 C1482 1.384 . S
C1481 C1480 1.377 . S
C1481 C1487 1.390 . S
C1482 H1473 0.930 . S
C1482 C1480 1.384 . S
C1482 C1483 1.372 . S
C1483 C1482 1.372 . S
C1483 C1484 1.400 . S
C1483 C1488 1.490 . S
C1484 H1474 0.930 . S
C1484 C1483 1.400 . S
C1484 C1487 1.386 . S
H1485 C1501 0.930 . S
H1486 C1502 0.931 . S
C1487 H1475 0.929 . S
C1487 C1481 1.390 . S
C1487 C1484 1.386 . S
C1488 C1483 1.490 . S
C1488 C1490 1.395 . S
C1488 C1491 1.403 . S
H1489 C1495 0.930 . S
C1490 H1476 0.930 . S
C1490 C1488 1.395 . S
C1490 C1493 1.403 . S
C1491 C1488 1.403 . S
C1491 C1492 1.524 . S
C1491 C1495 1.400 . S
C1492 H1477 0.960 . S
C1492 H1478 0.960 . S
C1492 H1479 0.960 . S
C1492 C1491 1.524 . S
C1493 C1490 1.403 . S
C1493 C1494 1.392 . S
C1493 C1497 1.495 . S
C1494 C1493 1.392 . S
C1494 C1495 1.385 . S
C1494 C1496 1.478 . S
C1495 H1489 0.930 . S
C1495 C1491 1.400 . S
C1495 C1494 1.385 . S
C1496 C1494 1.478 . S
C1496 C1498 1.381 . S
C1496 C1502 1.383 . S
C1497 C1493 1.495 . S
C1497 H1503 0.959 . S
C1497 H1504 0.961 . S
C1497 H1505 0.960 . S
C1498 C1496 1.381 . S
C1498 C1499 1.394 . S
C1498 H1506 0.930 . S
C1499 C1498 1.394 . S
C1499 C1500 1.383 . S
C1499 H1507 0.929 . S
C1500 C1499 1.383 . S
C1500 C1501 1.377 . S
C1501 H1485 0.930 . S
C1501 C1500 1.377 . S
C1501 C1502 1.379 . S
C1502 H1486 0.931 . S
C1502 C1496 1.383 . S
C1502 C1501 1.379 . S
H1503 C1497 0.959 . S
H1504 C1497 0.961 . S
H1505 C1497 0.960 . S
H1506 C1498 0.930 . S
H1507 C1499 0.929 . S
H1508 C1516 0.929 . S
H1509 C1518 0.930 . S
H1510 C1520 0.930 . S
H1511 C1523 0.929 . S
H1512 C1526 0.930 . S
H1513 C1528 0.960 . S
H1514 C1528 0.960 . S
H1515 C1528 0.960 . S
C1516 H1508 0.929 . S
C1516 C1517 1.377 . S
C1516 C1518 1.384 . S
C1517 C1516 1.377 . S
C1517 C1523 1.390 . S
C1518 H1509 0.930 . S
C1518 C1516 1.384 . S
C1518 C1519 1.372 . S
C1519 C1518 1.372 . S
C1519 C1520 1.400 . S
C1519 C1524 1.490 . S
C1520 H1510 0.930 . S
C1520 C1519 1.400 . S
C1520 C1523 1.386 . S
H1521 C1537 0.930 . S
H1522 C1538 0.931 . S
C1523 H1511 0.929 . S
C1523 C1517 1.390 . S
C1523 C1520 1.386 . S
C1524 C1519 1.490 . S
C1524 C1526 1.395 . S
C1524 C1527 1.403 . S
H1525 C1531 0.930 . S
C1526 H1512 0.930 . S
C1526 C1524 1.395 . S
C1526 C1529 1.403 . S
C1527 C1524 1.403 . S
C1527 C1528 1.524 . S
C1527 C1531 1.400 . S
C1528 H1513 0.960 . S
C1528 H1514 0.960 . S
C1528 H1515 0.960 . S
C1528 C1527 1.524 . S
C1529 C1526 1.403 . S
C1529 C1530 1.392 . S
C1529 C1533 1.495 . S
C1530 C1529 1.392 . S
C1530 C1531 1.385 . S
C1530 C1532 1.478 . S
C1531 H1525 0.930 . S
C1531 C1527 1.400 . S
C1531 C1530 1.385 . S
C1532 C1530 1.478 . S
C1532 C1534 1.381 . S
C1532 C1538 1.383 . S
C1533 C1529 1.495 . S
C1533 H1539 0.959 . S
C1533 H1540 0.961 . S
C1533 H1541 0.960 . S
C1534 C1532 1.381 . S
C1534 C1535 1.394 . S
C1534 H1542 0.930 . S
C1535 C1534 1.394 . S
C1535 C1536 1.383 . S
C1535 H1543 0.929 . S
C1536 C1535 1.383 . S
C1536 C1537 1.377 . S
C1537 H1521 0.930 . S
C1537 C1536 1.377 . S
C1537 C1538 1.379 . S
C1538 H1522 0.931 . S
C1538 C1532 1.383 . S
C1538 C1537 1.379 . S
H1539 C1533 0.959 . S
H1540 C1533 0.961 . S
H1541 C1533 0.960 . S
H1542 C1534 0.930 . S
H1543 C1535 0.929 . S
H1544 C1552 0.929 . S
H1545 C1554 0.930 . S
H1546 C1556 0.930 . S
H1547 C1559 0.929 . S
H1548 C1562 0.930 . S
H1549 C1564 0.960 . S
H1550 C1564 0.960 . S
H1551 C1564 0.960 . S
C1552 H1544 0.929 . S
C1552 C1553 1.377 . S
C1552 C1554 1.384 . S
C1553 C1552 1.377 . S
C1553 C1559 1.390 . S
C1554 H1545 0.930 . S
C1554 C1552 1.384 . S
C1554 C1555 1.372 . S
C1555 C1554 1.372 . S
C1555 C1556 1.400 . S
C1555 C1560 1.490 . S
C1556 H1546 0.930 . S
C1556 C1555 1.400 . S
C1556 C1559 1.386 . S
H1557 C1573 0.930 . S
H1558 C1574 0.931 . S
C1559 H1547 0.929 . S
C1559 C1553 1.390 . S
C1559 C1556 1.386 . S
C1560 C1555 1.490 . S
C1560 C1562 1.395 . S
C1560 C1563 1.403 . S
H1561 C1567 0.930 . S
C1562 H1548 0.930 . S
C1562 C1560 1.395 . S
C1562 C1565 1.403 . S
C1563 C1560 1.403 . S
C1563 C1564 1.524 . S
C1563 C1567 1.400 . S
C1564 H1549 0.960 . S
C1564 H1550 0.960 . S
C1564 H1551 0.960 . S
C1564 C1563 1.524 . S
C1565 C1562 1.403 . S
C1565 C1566 1.392 . S
C1565 C1569 1.495 . S
C1566 C1565 1.392 . S
C1566 C1567 1.385 . S
C1566 C1568 1.478 . S
C1567 H1561 0.930 . S
C1567 C1563 1.400 . S
C1567 C1566 1.385 . S
C1568 C1566 1.478 . S
C1568 C1570 1.381 . S
C1568 C1574 1.383 . S
C1569 C1565 1.495 . S
C1569 H1575 0.959 . S
C1569 H1576 0.961 . S
C1569 H1577 0.960 . S
C1570 C1568 1.381 . S
C1570 C1571 1.394 . S
C1570 H1578 0.930 . S
C1571 C1570 1.394 . S
C1571 C1572 1.383 . S
C1571 H1579 0.929 . S
C1572 C1571 1.383 . S
C1572 C1573 1.377 . S
C1573 H1557 0.930 . S
C1573 C1572 1.377 . S
C1573 C1574 1.379 . S
C1574 H1558 0.931 . S
C1574 C1568 1.383 . S
C1574 C1573 1.379 . S
H1575 C1569 0.959 . S
H1576 C1569 0.961 . S
H1577 C1569 0.960 . S
H1578 C1570 0.930 . S
H1579 C1571 0.929 . S
H1580 C1588 0.929 . S
H1581 C1590 0.930 . S
H1582 C1592 0.930 . S
H1583 C1595 0.929 . S
H1584 C1598 0.930 . S
H1585 C1600 0.960 . S
H1586 C1600 0.960 . S
H1587 C1600 0.960 . S
C1588 H1580 0.929 . S
C1588 C1589 1.377 . S
C1588 C1590 1.384 . S
C1589 C1588 1.377 . S
C1589 C1595 1.390 . S
C1590 H1581 0.930 . S
C1590 C1588 1.384 . S
C1590 C1591 1.372 . S
C1591 C1590 1.372 . S
C1591 C1592 1.400 . S
C1591 C1596 1.490 . S
C1592 H1582 0.930 . S
C1592 C1591 1.400 . S
C1592 C1595 1.386 . S
H1593 C1609 0.930 . S
H1594 C1610 0.931 . S
C1595 H1583 0.929 . S
C1595 C1589 1.390 . S
C1595 C1592 1.386 . S
C1596 C1591 1.490 . S
C1596 C1598 1.395 . S
C1596 C1599 1.403 . S
H1597 C1603 0.930 . S
C1598 H1584 0.930 . S
C1598 C1596 1.395 . S
C1598 C1601 1.403 . S
C1599 C1596 1.403 . S
C1599 C1600 1.524 . S
C1599 C1603 1.400 . S
C1600 H1585 0.960 . S
C1600 H1586 0.960 . S
C1600 H1587 0.960 . S
C1600 C1599 1.524 . S
C1601 C1598 1.403 . S
C1601 C1602 1.392 . S
C1601 C1605 1.495 . S
C1602 C1601 1.392 . S
C1602 C1603 1.385 . S
C1602 C1604 1.478 . S
C1603 H1597 0.930 . S
C1603 C1599 1.400 . S
C1603 C1602 1.385 . S
C1604 C1602 1.478 . S
C1604 C1606 1.381 . S
C1604 C1610 1.383 . S
C1605 C1601 1.495 . S
C1605 H1611 0.959 . S
C1605 H1612 0.961 . S
C1605 H1613 0.960 . S
C1606 C1604 1.381 . S
C1606 C1607 1.394 . S
C1606 H1614 0.930 . S
C1607 C1606 1.394 . S
C1607 C1608 1.383 . S
C1607 H1615 0.929 . S
C1608 C1607 1.383 . S
C1608 C1609 1.377 . S
C1609 H1593 0.930 . S
C1609 C1608 1.377 . S
C1609 C1610 1.379 . S
C1610 H1594 0.931 . S
C1610 C1604 1.383 . S
C1610 C1609 1.379 . S
H1611 C1605 0.959 . S
H1612 C1605 0.961 . S
H1613 C1605 0.960 . S
H1614 C1606 0.930 . S
H1615 C1607 0.929 . S
H1616 C1624 0.929 . S
H1617 C1626 0.930 . S
H1618 C1628 0.930 . S
H1619 C1631 0.929 . S
H1620 C1634 0.930 . S
H1621 C1636 0.960 . S
H1622 C1636 0.960 . S
H1623 C1636 0.960 . S
C1624 H1616 0.929 . S
C1624 C1625 1.377 . S
C1624 C1626 1.384 . S
C1625 C1624 1.377 . S
C1625 C1631 1.390 . S
C1626 H1617 0.930 . S
C1626 C1624 1.384 . S
C1626 C1627 1.372 . S
C1627 C1626 1.372 . S
C1627 C1628 1.400 . S
C1627 C1632 1.490 . S
C1628 H1618 0.930 . S
C1628 C1627 1.400 . S
C1628 C1631 1.386 . S
H1629 C1645 0.930 . S
H1630 C1646 0.931 . S
C1631 H1619 0.929 . S
C1631 C1625 1.390 . S
C1631 C1628 1.386 . S
C1632 C1627 1.490 . S
C1632 C1634 1.395 . S
C1632 C1635 1.403 . S
H1633 C1639 0.930 . S
C1634 H1620 0.930 . S
C1634 C1632 1.395 . S
C1634 C1637 1.403 . S
C1635 C1632 1.403 . S
C1635 C1636 1.524 . S
C1635 C1639 1.400 . S
C1636 H1621 0.960 . S
C1636 H1622 0.960 . S
C1636 H1623 0.960 . S
C1636 C1635 1.524 . S
C1637 C1634 1.403 . S
C1637 C1638 1.392 . S
C1637 C1641 1.495 . S
C1638 C1637 1.392 . S
C1638 C1639 1.385 . S
C1638 C1640 1.478 . S
C1639 H1633 0.930 . S
C1639 C1635 1.400 . S
C1639 C1638 1.385 . S
C1640 C1638 1.478 . S
C1640 C1642 1.381 . S
C1640 C1646 1.383 . S
C1641 C1637 1.495 . S
C1641 H1647 0.959 . S
C1641 H1648 0.961 . S
C1641 H1649 0.960 . S
C1642 C1640 1.381 . S
C1642 C1643 1.394 . S
C1642 H1650 0.930 . S
C1643 C1642 1.394 . S
C1643 C1644 1.383 . S
C1643 H1651 0.929 . S
C1644 C1643 1.383 . S
C1644 C1645 1.377 . S
C1645 H1629 0.930 . S
C1645 C1644 1.377 . S
C1645 C1646 1.379 . S
C1646 H1630 0.931 . S
C1646 C1640 1.383 . S
C1646 C1645 1.379 . S
H1647 C1641 0.959 . S
H1648 C1641 0.961 . S
H1649 C1641 0.960 . S
H1650 C1642 0.930 . S
H1651 C1643 0.929 . S
H1652 C1660 0.929 . S
H1653 C1662 0.930 . S
H1654 C1664 0.930 . S
H1655 C1667 0.929 . S
H1656 C1670 0.930 . S
H1657 C1672 0.960 . S
H1658 C1672 0.960 . S
H1659 C1672 0.960 . S
C1660 H1652 0.929 . S
C1660 C1661 1.377 . S
C1660 C1662 1.384 . S
C1661 C1660 1.377 . S
C1661 C1667 1.390 . S
C1662 H1653 0.930 . S
C1662 C1660 1.384 . S
C1662 C1663 1.372 . S
C1663 C1662 1.372 . S
C1663 C1664 1.400 . S
C1663 C1668 1.490 . S
C1664 H1654 0.930 . S
C1664 C1663 1.400 . S
C1664 C1667 1.386 . S
H1665 C1681 0.930 . S
H1666 C1682 0.931 . S
C1667 H1655 0.929 . S
C1667 C1661 1.390 . S
C1667 C1664 1.386 . S
C1668 C1663 1.490 . S
C1668 C1670 1.395 . S
C1668 C1671 1.403 . S
H1669 C1675 0.930 . S
C1670 H1656 0.930 . S
C1670 C1668 1.395 . S
C1670 C1673 1.403 . S
C1671 C1668 1.403 . S
C1671 C1672 1.524 . S
C1671 C1675 1.400 . S
C1672 H1657 0.960 . S
C1672 H1658 0.960 . S
C1672 H1659 0.960 . S
C1672 C1671 1.524 . S
C1673 C1670 1.403 . S
C1673 C1674 1.392 . S
C1673 C1677 1.495 . S
C1674 C1673 1.392 . S
C1674 C1675 1.385 . S
C1674 C1676 1.478 . S
C1675 H1669 0.930 . S
C1675 C1671 1.400 . S
C1675 C1674 1.385 . S
C1676 C1674 1.478 . S
C1676 C1678 1.381 . S
C1676 C1682 1.383 . S
C1677 C1673 1.495 . S
C1677 H1683 0.959 . S
C1677 H1684 0.961 . S
C1677 H1685 0.960 . S
C1678 C1676 1.381 . S
C1678 C1679 1.394 . S
C1678 H1686 0.930 . S
C1679 C1678 1.394 . S
C1679 C1680 1.383 . S
C1679 H1687 0.929 . S
C1680 C1679 1.383 . S
C1680 C1681 1.377 . S
C1681 H1665 0.930 . S
C1681 C1680 1.377 . S
C1681 C1682 1.379 . S
C1682 H1666 0.931 . S
C1682 C1676 1.383 . S
C1682 C1681 1.379 . S
H1683 C1677 0.959 . S
H1684 C1677 0.961 . S
H1685 C1677 0.960 . S
H1686 C1678 0.930 . S
H1687 C1679 0.929 . S
H1688 C1696 0.929 . S
H1689 C1698 0.930 . S
H1690 C1700 0.930 . S
H1691 C1703 0.929 . S
H1692 C1706 0.930 . S
H1693 C1708 0.960 . S
H1694 C1708 0.960 . S
H1695 C1708 0.960 . S
C1696 H1688 0.929 . S
C1696 C1697 1.377 . S
C1696 C1698 1.384 . S
C1697 C1696 1.377 . S
C1697 C1703 1.390 . S
C1698 H1689 0.930 . S
C1698 C1696 1.384 . S
C1698 C1699 1.372 . S
C1699 C1698 1.372 . S
C1699 C1700 1.400 . S
C1699 C1704 1.490 . S
C1700 H1690 0.930 . S
C1700 C1699 1.400 . S
C1700 C1703 1.386 . S
H1701 C1717 0.930 . S
H1702 C1718 0.931 . S
C1703 H1691 0.929 . S
C1703 C1697 1.390 . S
C1703 C1700 1.386 . S
C1704 C1699 1.490 . S
C1704 C1706 1.395 . S
C1704 C1707 1.403 . S
H1705 C1711 0.930 . S
C1706 H1692 0.930 . S
C1706 C1704 1.395 . S
C1706 C1709 1.403 . S
C1707 C1704 1.403 . S
C1707 C1708 1.524 . S
C1707 C1711 1.400 . S
C1708 H1693 0.960 . S
C1708 H1694 0.960 . S
C1708 H1695 0.960 . S
C1708 C1707 1.524 . S
C1709 C1706 1.403 . S
C1709 C1710 1.392 . S
C1709 C1713 1.495 . S
C1710 C1709 1.392 . S
C1710 C1711 1.385 . S
C1710 C1712 1.478 . S
C1711 H1705 0.930 . S
C1711 C1707 1.400 . S
C1711 C1710 1.385 . S
C1712 C1710 1.478 . S
C1712 C1714 1.381 . S
C1712 C1718 1.383 . S
C1713 C1709 1.495 . S
C1713 H1719 0.959 . S
C1713 H1720 0.961 . S
C1713 H1721 0.960 . S
C1714 C1712 1.381 . S
C1714 C1715 1.394 . S
C1714 H1722 0.930 . S
C1715 C1714 1.394 . S
C1715 C1716 1.383 . S
C1715 H1723 0.929 . S
C1716 C1715 1.383 . S
C1716 C1717 1.377 . S
C1717 H1701 0.930 . S
C1717 C1716 1.377 . S
C1717 C1718 1.379 . S
C1718 H1702 0.931 . S
C1718 C1712 1.383 . S
C1718 C1717 1.379 . S
H1719 C1713 0.959 . S
H1720 C1713 0.961 . S
H1721 C1713 0.960 . S
H1722 C1714 0.930 . S
H1723 C1715 0.929 . S
H1724 C1732 0.929 . S
H1725 C1734 0.930 . S
H1726 C1736 0.930 . S
H1727 C1739 0.929 . S
H1728 C1742 0.930 . S
H1729 C1744 0.960 . S
H1730 C1744 0.960 . S
H1731 C1744 0.960 . S
C1732 H1724 0.929 . S
C1732 C1733 1.377 . S
C1732 C1734 1.384 . S
C1733 C1732 1.377 . S
C1733 C1739 1.390 . S
C1734 H1725 0.930 . S
C1734 C1732 1.384 . S
C1734 C1735 1.372 . S
C1735 C1734 1.372 . S
C1735 C1736 1.400 . S
C1735 C1740 1.490 . S
C1736 H1726 0.930 . S
C1736 C1735 1.400 . S
C1736 C1739 1.386 . S
H1737 C1753 0.930 . S
H1738 C1754 0.931 . S
C1739 H1727 0.929 . S
C1739 C1733 1.390 . S
C1739 C1736 1.386 . S
C1740 C1735 1.490 . S
C1740 C1742 1.395 . S
C1740 C1743 1.403 . S
H1741 C1747 0.930 . S
C1742 H1728 0.930 . S
C1742 C1740 1.395 . S
C1742 C1745 1.403 . S
C1743 C1740 1.403 . S
C1743 C1744 1.524 . S
C1743 C1747 1.400 . S
C1744 H1729 0.960 . S
C1744 H1730 0.960 . S
C1744 H1731 0.960 . S
C1744 C1743 1.524 . S
C1745 C1742 1.403 . S
C1745 C1746 1.392 . S
C1745 C1749 1.495 . S
C1746 C1745 1.392 . S
C1746 C1747 1.385 . S
C1746 C1748 1.478 . S
C1747 H1741 0.930 . S
C1747 C1743 1.400 . S
C1747 C1746 1.385 . S
C1748 C1746 1.478 . S
C1748 C1750 1.381 . S
C1748 C1754 1.383 . S
C1749 C1745 1.495 . S
C1749 H1755 0.959 . S
C1749 H1756 0.961 . S
C1749 H1757 0.960 . S
C1750 C1748 1.381 . S
C1750 C1751 1.394 . S
C1750 H1758 0.930 . S
C1751 C1750 1.394 . S
C1751 C1752 1.383 . S
C1751 H1759 0.929 . S
C1752 C1751 1.383 . S
C1752 C1753 1.377 . S
C1753 H1737 0.930 . S
C1753 C1752 1.377 . S
C1753 C1754 1.379 . S
C1754 H1738 0.931 . S
C1754 C1748 1.383 . S
C1754 C1753 1.379 . S
H1755 C1749 0.959 . S
H1756 C1749 0.961 . S
H1757 C1749 0.960 . S
H1758 C1750 0.930 . S
H1759 C1751 0.929 . S
H1760 C1768 0.929 . S
H1761 C1770 0.930 . S
H1762 C1772 0.930 . S
H1763 C1775 0.929 . S
H1764 C1778 0.930 . S
H1765 C1780 0.960 . S
H1766 C1780 0.960 . S
H1767 C1780 0.960 . S
C1768 H1760 0.929 . S
C1768 C1769 1.377 . S
C1768 C1770 1.384 . S
C1769 C1768 1.377 . S
C1769 C1775 1.390 . S
C1770 H1761 0.930 . S
C1770 C1768 1.384 . S
C1770 C1771 1.372 . S
C1771 C1770 1.372 . S
C1771 C1772 1.400 . S
C1771 C1776 1.490 . S
C1772 H1762 0.930 . S
C1772 C1771 1.400 . S
C1772 C1775 1.386 . S
H1773 C1789 0.930 . S
H1774 C1790 0.931 . S
C1775 H1763 0.929 . S
C1775 C1769 1.390 . S
C1775 C1772 1.386 . S
C1776 C1771 1.490 . S
C1776 C1778 1.395 . S
C1776 C1779 1.403 . S
H1777 C1783 0.930 . S
C1778 H1764 0.930 . S
C1778 C1776 1.395 . S
C1778 C1781 1.403 . S
C1779 C1776 1.403 . S
C1779 C1780 1.524 . S
C1779 C1783 1.400 . S
C1780 H1765 0.960 . S
C1780 H1766 0.960 . S
C1780 H1767 0.960 . S
C1780 C1779 1.524 . S
C1781 C1778 1.403 . S
C1781 C1782 1.392 . S
C1781 C1785 1.495 . S
C1782 C1781 1.392 . S
C1782 C1783 1.385 . S
C1782 C1784 1.478 . S
C1783 H1777 0.930 . S
C1783 C1779 1.400 . S
C1783 C1782 1.385 . S
C1784 C1782 1.478 . S
C1784 C1786 1.381 . S
C1784 C1790 1.383 . S
C1785 C1781 1.495 . S
C1785 H1791 0.959 . S
C1785 H1792 0.961 . S
C1785 H1793 0.960 . S
C1786 C1784 1.381 . S
C1786 C1787 1.394 . S
C1786 H1794 0.930 . S
C1787 C1786 1.394 . S
C1787 C1788 1.383 . S
C1787 H1795 0.929 . S
C1788 C1787 1.383 . S
C1788 C1789 1.377 . S
C1789 H1773 0.930 . S
C1789 C1788 1.377 . S
C1789 C1790 1.379 . S
C1790 H1774 0.931 . S
C1790 C1784 1.383 . S
C1790 C1789 1.379 . S
H1791 C1785 0.959 . S
H1792 C1785 0.961 . S
H1793 C1785 0.960 . S
H1794 C1786 0.930 . S
H1795 C1787 0.929 . S
H1796 C1804 0.929 . S
H1797 C1806 0.930 . S
H1798 C1808 0.930 . S
H1799 C1811 0.929 . S
H1800 C1814 0.930 . S
H1801 C1816 0.960 . S
H1802 C1816 0.960 . S
H1803 C1816 0.960 . S
C1804 H1796 0.929 . S
C1804 C1805 1.377 . S
C1804 C1806 1.384 . S
C1805 C1804 1.377 . S
C1805 C1811 1.390 . S
C1806 H1797 0.930 . S
C1806 C1804 1.384 . S
C1806 C1807 1.372 . S
C1807 C1806 1.372 . S
C1807 C1808 1.400 . S
C1807 C1812 1.490 . S
C1808 H1798 0.930 . S
C1808 C1807 1.400 . S
C1808 C1811 1.386 . S
H1809 C1825 0.930 . S
H1810 C1826 0.931 . S
C1811 H1799 0.929 . S
C1811 C1805 1.390 . S
C1811 C1808 1.386 . S
C1812 C1807 1.490 . S
C1812 C1814 1.395 . S
C1812 C1815 1.403 . S
H1813 C1819 0.930 . S
C1814 H1800 0.930 . S
C1814 C1812 1.395 . S
C1814 C1817 1.403 . S
C1815 C1812 1.403 . S
C1815 C1816 1.524 . S
C1815 C1819 1.400 . S
C1816 H1801 0.960 . S
C1816 H1802 0.960 . S
C1816 H1803 0.960 . S
C1816 C1815 1.524 . S
C1817 C1814 1.403 . S
C1817 C1818 1.392 . S
C1817 C1821 1.495 . S
C1818 C1817 1.392 . S
C1818 C1819 1.385 . S
C1818 C1820 1.478 . S
C1819 H1813 0.930 . S
C1819 C1815 1.400 . S
C1819 C1818 1.385 . S
C1820 C1818 1.478 . S
C1820 C1822 1.381 . S
C1820 C1826 1.383 . S
C1821 C1817 1.495 . S
C1821 H1827 0.959 . S
C1821 H1828 0.961 . S
C1821 H1829 0.960 . S
C1822 C1820 1.381 . S
C1822 C1823 1.394 . S
C1822 H1830 0.930 . S
C1823 C1822 1.394 . S
C1823 C1824 1.383 . S
C1823 H1831 0.929 . S
C1824 C1823 1.383 . S
C1824 C1825 1.377 . S
C1825 H1809 0.930 . S
C1825 C1824 1.377 . S
C1825 C1826 1.379 . S
C1826 H1810 0.931 . S
C1826 C1820 1.383 . S
C1826 C1825 1.379 . S
H1827 C1821 0.959 . S
H1828 C1821 0.961 . S
H1829 C1821 0.960 . S
H1830 C1822 0.930 . S
H1831 C1823 0.929 . S
H1832 C1840 0.929 . S
H1833 C1842 0.930 . S
H1834 C1844 0.930 . S
H1835 C1847 0.929 . S
H1836 C1850 0.930 . S
H1837 C1852 0.960 . S
H1838 C1852 0.960 . S
H1839 C1852 0.960 . S
C1840 H1832 0.929 . S
C1840 C1841 1.377 . S
C1840 C1842 1.384 . S
C1841 C1840 1.377 . S
C1841 C1847 1.390 . S
C1842 H1833 0.930 . S
C1842 C1840 1.384 . S
C1842 C1843 1.372 . S
C1843 C1842 1.372 . S
C1843 C1844 1.400 . S
C1843 C1848 1.490 . S
C1844 H1834 0.930 . S
C1844 C1843 1.400 . S
C1844 C1847 1.386 . S
H1845 C1861 0.930 . S
H1846 C1862 0.931 . S
C1847 H1835 0.929 . S
C1847 C1841 1.390 . S
C1847 C1844 1.386 . S
C1848 C1843 1.490 . S
C1848 C1850 1.395 . S
C1848 C1851 1.403 . S
H1849 C1855 0.930 . S
C1850 H1836 0.930 . S
C1850 C1848 1.395 . S
C1850 C1853 1.403 . S
C1851 C1848 1.403 . S
C1851 C1852 1.524 . S
C1851 C1855 1.400 . S
C1852 H1837 0.960 . S
C1852 H1838 0.960 . S
C1852 H1839 0.960 . S
C1852 C1851 1.524 . S
C1853 C1850 1.403 . S
C1853 C1854 1.392 . S
C1853 C1857 1.495 . S
C1854 C1853 1.392 . S
C1854 C1855 1.385 . S
C1854 C1856 1.478 . S
C1855 H1849 0.930 . S
C1855 C1851 1.400 . S
C1855 C1854 1.385 . S
C1856 C1854 1.478 . S
C1856 C1858 1.381 . S
C1856 C1862 1.383 . S
C1857 C1853 1.495 . S
C1857 H1863 0.959 . S
C1857 H1864 0.961 . S
C1857 H1865 0.960 . S
C1858 C1856 1.381 . S
C1858 C1859 1.394 . S
C1858 H1866 0.930 . S
C1859 C1858 1.394 . S
C1859 C1860 1.383 . S
C1859 H1867 0.929 . S
C1860 C1859 1.383 . S
C1860 C1861 1.377 . S
C1861 H1845 0.930 . S
C1861 C1860 1.377 . S
C1861 C1862 1.379 . S
C1862 H1846 0.931 . S
C1862 C1856 1.383 . S
C1862 C1861 1.379 . S
H1863 C1857 0.959 . S
H1864 C1857 0.961 . S
H1865 C1857 0.960 . S
H1866 C1858 0.930 . S
H1867 C1859 0.929 . S
H1868 C1876 0.929 . S
H1869 C1878 0.930 . S
H1870 C1880 0.930 . S
H1871 C1883 0.929 . S
H1872 C1886 0.930 . S
H1873 C1888 0.960 . S
H1874 C1888 0.960 . S
H1875 C1888 0.960 . S
C1876 H1868 0.929 . S
C1876 C1877 1.377 . S
C1876 C1878 1.384 . S
C1877 C1876 1.377 . S
C1877 C1883 1.390 . S
C1878 H1869 0.930 . S
C1878 C1876 1.384 . S
C1878 C1879 1.372 . S
C1879 C1878 1.372 . S
C1879 C1880 1.400 . S
C1879 C1884 1.490 . S
C1880 H1870 0.930 . S
C1880 C1879 1.400 . S
C1880 C1883 1.386 . S
H1881 C1897 0.930 . S
H1882 C1898 0.931 . S
C1883 H1871 0.929 . S
C1883 C1877 1.390 . S
C1883 C1880 1.386 . S
C1884 C1879 1.490 . S
C1884 C1886 1.395 . S
C1884 C1887 1.403 . S
H1885 C1891 0.930 . S
C1886 H1872 0.930 . S
C1886 C1884 1.395 . S
C1886 C1889 1.403 . S
C1887 C1884 1.403 . S
C1887 C1888 1.524 . S
C1887 C1891 1.400 . S
C1888 H1873 0.960 . S
C1888 H1874 0.960 . S
C1888 H1875 0.960 . S
C1888 C1887 1.524 . S
C1889 C1886 1.403 . S
C1889 C1890 1.392 . S
C1889 C1893 1.495 . S
C1890 C1889 1.392 . S
C1890 C1891 1.385 . S
C1890 C1892 1.478 . S
C1891 H1885 0.930 . S
C1891 C1887 1.400 . S
C1891 C1890 1.385 . S
C1892 C1890 1.478 . S
C1892 C1894 1.381 . S
C1892 C1898 1.383 . S
C1893 C1889 1.495 . S
C1893 H1899 0.959 . S
C1893 H1900 0.961 . S
C1893 H1901 0.960 . S
C1894 C1892 1.381 . S
C1894 C1895 1.394 . S
C1894 H1902 0.930 . S
C1895 C1894 1.394 . S
C1895 C1896 1.383 . S
C1895 H1903 0.929 . S
C1896 C1895 1.383 . S
C1896 C1897 1.377 . S
C1897 H1881 0.930 . S
C1897 C1896 1.377 . S
C1897 C1898 1.379 . S
C1898 H1882 0.931 . S
C1898 C1892 1.383 . S
C1898 C1897 1.379 . S
H1899 C1893 0.959 . S
H1900 C1893 0.961 . S
H1901 C1893 0.960 . S
H1902 C1894 0.930 . S
H1903 C1895 0.929 . S
H1904 C1912 0.929 . S
H1905 C1914 0.930 . S
H1906 C1916 0.930 . S
H1907 C1919 0.929 . S
H1908 C1922 0.930 . S
H1909 C1924 0.960 . S
H1910 C1924 0.960 . S
H1911 C1924 0.960 . S
C1912 H1904 0.929 . S
C1912 C1913 1.377 . S
C1912 C1914 1.384 . S
C1913 C1912 1.377 . S
C1913 C1919 1.390 . S
C1914 H1905 0.930 . S
C1914 C1912 1.384 . S
C1914 C1915 1.372 . S
C1915 C1914 1.372 . S
C1915 C1916 1.400 . S
C1915 C1920 1.490 . S
C1916 H1906 0.930 . S
C1916 C1915 1.400 . S
C1916 C1919 1.386 . S
H1917 C1933 0.930 . S
H1918 C1934 0.931 . S
C1919 H1907 0.929 . S
C1919 C1913 1.390 . S
C1919 C1916 1.386 . S
C1920 C1915 1.490 . S
C1920 C1922 1.395 . S
C1920 C1923 1.403 . S
H1921 C1927 0.930 . S
C1922 H1908 0.930 . S
C1922 C1920 1.395 . S
C1922 C1925 1.403 . S
C1923 C1920 1.403 . S
C1923 C1924 1.524 . S
C1923 C1927 1.400 . S
C1924 H1909 0.960 . S
C1924 H1910 0.960 . S
C1924 H1911 0.960 . S
C1924 C1923 1.524 . S
C1925 C1922 1.403 . S
C1925 C1926 1.392 . S
C1925 C1929 1.495 . S
C1926 C1925 1.392 . S
C1926 C1927 1.385 . S
C1926 C1928 1.478 . S
C1927 H1921 0.930 . S
C1927 C1923 1.400 . S
C1927 C1926 1.385 . S
C1928 C1926 1.478 . S
C1928 C1930 1.381 . S
C1928 C1934 1.383 . S
C1929 C1925 1.495 . S
C1929 H1935 0.959 . S
C1929 H1936 0.961 . S
C1929 H1937 0.960 . S
C1930 C1928 1.381 . S
C1930 C1931 1.394 . S
C1930 H1938 0.930 . S
C1931 C1930 1.394 . S
C1931 C1932 1.383 . S
C1931 H1939 0.929 . S
C1932 C1931 1.383 . S
C1932 C1933 1.377 . S
C1933 H1917 0.930 . S
C1933 C1932 1.377 . S
C1933 C1934 1.379 . S
C1934 H1918 0.931 . S
C1934 C1928 1.383 . S
C1934 C1933 1.379 . S
H1935 C1929 0.959 . S
H1936 C1929 0.961 . S
H1937 C1929 0.960 . S
H1938 C1930 0.930 . S
H1939 C1931 0.929 . S
H1940 C1948 0.929 . S
H1941 C1950 0.930 . S
H1942 C1952 0.930 . S
H1943 C1955 0.929 . S
H1944 C1958 0.930 . S
H1945 C1960 0.960 . S
H1946 C1960 0.960 . S
H1947 C1960 0.960 . S
C1948 H1940 0.929 . S
C1948 C1949 1.377 . S
C1948 C1950 1.384 . S
C1949 C1948 1.377 . S
C1949 C1955 1.390 . S
C1950 H1941 0.930 . S
C1950 C1948 1.384 . S
C1950 C1951 1.372 . S
C1951 C1950 1.372 . S
C1951 C1952 1.400 . S
C1951 C1956 1.490 . S
C1952 H1942 0.930 . S
C1952 C1951 1.400 . S
C1952 C1955 1.386 . S
H1953 C1969 0.930 . S
H1954 C1970 0.931 . S
C1955 H1943 0.929 . S
C1955 C1949 1.390 . S
C1955 C1952 1.386 . S
C1956 C1951 1.490 . S
C1956 C1958 1.395 . S
C1956 C1959 1.403 . S
H1957 C1963 0.930 . S
C1958 H1944 0.930 . S
C1958 C1956 1.395 . S
C1958 C1961 1.403 . S
C1959 C1956 1.403 . S
C1959 C1960 1.524 . S
C1959 C1963 1.400 . S
C1960 H1945 0.960 . S
C1960 H1946 0.960 . S
C1960 H1947 0.960 . S
C1960 C1959 1.524 . S
C1961 C1958 1.403 . S
C1961 C1962 1.392 . S
C1961 C1965 1.495 . S
C1962 C1961 1.392 . S
C1962 C1963 1.385 . S
C1962 C1964 1.478 . S
C1963 H1957 0.930 . S
C1963 C1959 1.400 . S
C1963 C1962 1.385 . S
C1964 C1962 1.478 . S
C1964 C1966 1.381 . S
C1964 C1970 1.383 . S
C1965 C1961 1.495 . S
C1965 H1971 0.959 . S
C1965 H1972 0.961 . S
C1965 H1973 0.960 . S
C1966 C1964 1.381 . S
C1966 C1967 1.394 . S
C1966 H1974 0.930 . S
C1967 C1966 1.394 . S
C1967 C1968 1.383 . S
C1967 H1975 0.929 . S
C1968 C1967 1.383 . S
C1968 C1969 1.377 . S
C1969 H1953 0.930 . S
C1969 C1968 1.377 . S
C1969 C1970 1.379 . S
C1970 H1954 0.931 . S
C1970 C1964 1.383 . S
C1970 C1969 1.379 . S
H1971 C1965 0.959 . S
H1972 C1965 0.961 . S
H1973 C1965 0.960 . S
H1974 C1966 0.930 . S
H1975 C1967 0.929 . S
H1976 C1984 0.929 . S
H1977 C1986 0.930 . S
H1978 C1988 0.930 . S
H1979 C1991 0.929 . S
H1980 C1994 0.930 . S
H1981 C1996 0.960 . S
H1982 C1996 0.960 . S
H1983 C1996 0.960 . S
C1984 H1976 0.929 . S
C1984 C1985 1.377 . S
C1984 C1986 1.384 . S
C1985 C1984 1.377 . S
C1985 C1991 1.390 . S
C1986 H1977 0.930 . S
C1986 C1984 1.384 . S
C1986 C1987 1.372 . S
C1987 C1986 1.372 . S
C1987 C1988 1.400 . S
C1987 C1992 1.490 . S
C1988 H1978 0.930 . S
C1988 C1987 1.400 . S
C1988 C1991 1.386 . S
H1989 C2005 0.930 . S
H1990 C2006 0.931 . S
C1991 H1979 0.929 . S
C1991 C1985 1.390 . S
C1991 C1988 1.386 . S
C1992 C1987 1.490 . S
C1992 C1994 1.395 . S
C1992 C1995 1.403 . S
H1993 C1999 0.930 . S
C1994 H1980 0.930 . S
C1994 C1992 1.395 . S
C1994 C1997 1.403 . S
C1995 C1992 1.403 . S
C1995 C1996 1.524 . S
C1995 C1999 1.400 . S
C1996 H1981 0.960 . S
C1996 H1982 0.960 . S
C1996 H1983 0.960 . S
C1996 C1995 1.524 . S
C1997 C1994 1.403 . S
C1997 C1998 1.392 . S
C1997 C2001 1.495 . S
C1998 C1997 1.392 . S
C1998 C1999 1.385 . S
C1998 C2000 1.478 . S
C1999 H1993 0.930 . S
C1999 C1995 1.400 . S
C1999 C1998 1.385 . S
C2000 C1998 1.478 . S
C2000 C2002 1.381 . S
C2000 C2006 1.383 . S
C2001 C1997 1.495 . S
C2001 H2007 0.959 . S
C2001 H2008 0.961 . S
C2001 H2009 0.960 . S
C2002 C2000 1.381 . S
C2002 C2003 1.394 . S
C2002 H2010 0.930 . S
C2003 C2002 1.394 . S
C2003 C2004 1.383 . S
C2003 H2011 0.929 . S
C2004 C2003 1.383 . S
C2004 C2005 1.377 . S
C2005 H1989 0.930 . S
C2005 C2004 1.377 . S
C2005 C2006 1.379 . S
C2006 H1990 0.931 . S
C2006 C2000 1.383 . S
C2006 C2005 1.379 . S
H2007 C2001 0.959 . S
H2008 C2001 0.961 . S
H2009 C2001 0.960 . S
H2010 C2002 0.930 . S
H2011 C2003 0.929 . S
H2012 C2020 0.929 . S
H2013 C2022 0.930 . S
H2014 C2024 0.930 . S
H2015 C2027 0.929 . S
H2016 C2030 0.930 . S
H2017 C2032 0.960 . S
H2018 C2032 0.960 . S
H2019 C2032 0.960 . S
C2020 H2012 0.929 . S
C2020 C2021 1.377 . S
C2020 C2022 1.384 . S
C2021 C2020 1.377 . S
C2021 C2027 1.390 . S
C2022 H2013 0.930 . S
C2022 C2020 1.384 . S
C2022 C2023 1.372 . S
C2023 C2022 1.372 . S
C2023 C2024 1.400 . S
C2023 C2028 1.490 . S
C2024 H2014 0.930 . S
C2024 C2023 1.400 . S
C2024 C2027 1.386 . S
H2025 C2041 0.930 . S
H2026 C2042 0.931 . S
C2027 H2015 0.929 . S
C2027 C2021 1.390 . S
C2027 C2024 1.386 . S
C2028 C2023 1.490 . S
C2028 C2030 1.395 . S
C2028 C2031 1.403 . S
H2029 C2035 0.930 . S
C2030 H2016 0.930 . S
C2030 C2028 1.395 . S
C2030 C2033 1.403 . S
C2031 C2028 1.403 . S
C2031 C2032 1.524 . S
C2031 C2035 1.400 . S
C2032 H2017 0.960 . S
C2032 H2018 0.960 . S
C2032 H2019 0.960 . S
C2032 C2031 1.524 . S
C2033 C2030 1.403 . S
C2033 C2034 1.392 . S
C2033 C2037 1.495 . S
C2034 C2033 1.392 . S
C2034 C2035 1.385 . S
C2034 C2036 1.478 . S
C2035 H2029 0.930 . S
C2035 C2031 1.400 . S
C2035 C2034 1.385 . S
C2036 C2034 1.478 . S
C2036 C2038 1.381 . S
C2036 C2042 1.383 . S
C2037 C2033 1.495 . S
C2037 H2043 0.959 . S
C2037 H2044 0.961 . S
C2037 H2045 0.960 . S
C2038 C2036 1.381 . S
C2038 C2039 1.394 . S
C2038 H2046 0.930 . S
C2039 C2038 1.394 . S
C2039 C2040 1.383 . S
C2039 H2047 0.929 . S
C2040 C2039 1.383 . S
C2040 C2041 1.377 . S
C2041 H2025 0.930 . S
C2041 C2040 1.377 . S
C2041 C2042 1.379 . S
C2042 H2026 0.931 . S
C2042 C2036 1.383 . S
C2042 C2041 1.379 . S
H2043 C2037 0.959 . S
H2044 C2037 0.961 . S
H2045 C2037 0.960 . S
H2046 C2038 0.930 . S
H2047 C2039 0.929 . S
H2048 C2056 0.929 . S
H2049 C2058 0.930 . S
H2050 C2060 0.930 . S
H2051 C2063 0.929 . S
H2052 C2066 0.930 . S
H2053 C2068 0.960 . S
H2054 C2068 0.960 . S
H2055 C2068 0.960 . S
C2056 H2048 0.929 . S
C2056 C2057 1.377 . S
C2056 C2058 1.384 . S
C2057 C2056 1.377 . S
C2057 C2063 1.390 . S
C2058 H2049 0.930 . S
C2058 C2056 1.384 . S
C2058 C2059 1.372 . S
C2059 C2058 1.372 . S
C2059 C2060 1.400 . S
C2059 C2064 1.490 . S
C2060 H2050 0.930 . S
C2060 C2059 1.400 . S
C2060 C2063 1.386 . S
H2061 C2077 0.930 . S
H2062 C2078 0.931 . S
C2063 H2051 0.929 . S
C2063 C2057 1.390 . S
C2063 C2060 1.386 . S
C2064 C2059 1.490 . S
C2064 C2066 1.395 . S
C2064 C2067 1.403 . S
H2065 C2071 0.930 . S
C2066 H2052 0.930 . S
C2066 C2064 1.395 . S
C2066 C2069 1.403 . S
C2067 C2064 1.403 . S
C2067 C2068 1.524 . S
C2067 C2071 1.400 . S
C2068 H2053 0.960 . S
C2068 H2054 0.960 . S
C2068 H2055 0.960 . S
C2068 C2067 1.524 . S
C2069 C2066 1.403 . S
C2069 C2070 1.392 . S
C2069 C2073 1.495 . S
C2070 C2069 1.392 . S
C2070 C2071 1.385 . S
C2070 C2072 1.478 . S
C2071 H2065 0.930 . S
C2071 C2067 1.400 . S
C2071 C2070 1.385 . S
C2072 C2070 1.478 . S
C2072 C2074 1.381 . S
C2072 C2078 1.383 . S
C2073 C2069 1.495 . S
C2073 H2079 0.959 . S
C2073 H2080 0.961 . S
C2073 H2081 0.960 . S
C2074 C2072 1.381 . S
C2074 C2075 1.394 . S
C2074 H2082 0.930 . S
C2075 C2074 1.394 . S
C2075 C2076 1.383 . S
C2075 H2083 0.929 . S
C2076 C2075 1.383 . S
C2076 C2077 1.377 . S
C2077 H2061 0.930 . S
C2077 C2076 1.377 . S
C2077 C2078 1.379 . S
C2078 H2062 0.931 . S
C2078 C2072 1.383 . S
C2078 C2077 1.379 . S
H2079 C2073 0.959 . S
H2080 C2073 0.961 . S
H2081 C2073 0.960 . S
H2082 C2074 0.930 . S
H2083 C2075 0.929 . S
H2084 C2092 0.929 . S
H2085 C2094 0.930 . S
H2086 C2096 0.930 . S
H2087 C2099 0.929 . S
H2088 C2102 0.930 . S
H2089 C2104 0.960 . S
H2090 C2104 0.960 . S
H2091 C2104 0.960 . S
C2092 H2084 0.929 . S
C2092 C2093 1.377 . S
C2092 C2094 1.384 . S
C2093 C2092 1.377 . S
C2093 C2099 1.390 . S
C2094 H2085 0.930 . S
C2094 C2092 1.384 . S
C2094 C2095 1.372 . S
C2095 C2094 1.372 . S
C2095 C2096 1.400 . S
C2095 C2100 1.490 . S
C2096 H2086 0.930 . S
C2096 C2095 1.400 . S
C2096 C2099 1.386 . S
H2097 C2113 0.930 . S
H2098 C2114 0.931 . S
C2099 H2087 0.929 . S
C2099 C2093 1.390 . S
C2099 C2096 1.386 . S
C2100 C2095 1.490 . S
C2100 C2102 1.395 . S
C2100 C2103 1.403 . S
H2101 C2107 0.930 . S
C2102 H2088 0.930 . S
C2102 C2100 1.395 . S
C2102 C2105 1.403 . S
C2103 C2100 1.403 . S
C2103 C2104 1.524 . S
C2103 C2107 1.400 . S
C2104 H2089 0.960 . S
C2104 H2090 0.960 . S
C2104 H2091 0.960 . S
C2104 C2103 1.524 . S
C2105 C2102 1.403 . S
C2105 C2106 1.392 . S
C2105 C2109 1.495 . S
C2106 C2105 1.392 . S
C2106 C2107 1.385 . S
C2106 C2108 1.478 . S
C2107 H2101 0.930 . S
C2107 C2103 1.400 . S
C2107 C2106 1.385 . S
C2108 C2106 1.478 . S
C2108 C2110 1.381 . S
C2108 C2114 1.383 . S
C2109 C2105 1.495 . S
C2109 H2115 0.959 . S
C2109 H2116 0.961 . S
C2109 H2117 0.960 . S
C2110 C2108 1.381 . S
C2110 C2111 1.394 . S
C2110 H2118 0.930 . S
C2111 C2110 1.394 . S
C2111 C2112 1.383 . S
C2111 H2119 0.929 . S
C2112 C2111 1.383 . S
C2112 C2113 1.377 . S
C2113 H2097 0.930 . S
C2113 C2112 1.377 . S
C2113 C2114 1.379 . S
C2114 H2098 0.931 . S
C2114 C2108 1.383 . S
C2114 C2113 1.379 . S
H2115 C2109 0.959 . S
H2116 C2109 0.961 . S
H2117 C2109 0.960 . S
H2118 C2110 0.930 . S
H2119 C2111 0.929 . S
H2120 C2128 0.929 . S
H2121 C2130 0.930 . S
H2122 C2132 0.930 . S
H2123 C2135 0.929 . S
H2124 C2138 0.930 . S
H2125 C2140 0.960 . S
H2126 C2140 0.960 . S
H2127 C2140 0.960 . S
C2128 H2120 0.929 . S
C2128 C2129 1.377 . S
C2128 C2130 1.384 . S
C2129 C2128 1.377 . S
C2129 C2135 1.390 . S
C2130 H2121 0.930 . S
C2130 C2128 1.384 . S
C2130 C2131 1.372 . S
C2131 C2130 1.372 . S
C2131 C2132 1.400 . S
C2131 C2136 1.490 . S
C2132 H2122 0.930 . S
C2132 C2131 1.400 . S
C2132 C2135 1.386 . S
H2133 C2149 0.930 . S
H2134 C2150 0.931 . S
C2135 H2123 0.929 . S
C2135 C2129 1.390 . S
C2135 C2132 1.386 . S
C2136 C2131 1.490 . S
C2136 C2138 1.395 . S
C2136 C2139 1.403 . S
H2137 C2143 0.930 . S
C2138 H2124 0.930 . S
C2138 C2136 1.395 . S
C2138 C2141 1.403 . S
C2139 C2136 1.403 . S
C2139 C2140 1.524 . S
C2139 C2143 1.400 . S
C2140 H2125 0.960 . S
C2140 H2126 0.960 . S
C2140 H2127 0.960 . S
C2140 C2139 1.524 . S
C2141 C2138 1.403 . S
C2141 C2142 1.392 . S
C2141 C2145 1.495 . S
C2142 C2141 1.392 . S
C2142 C2143 1.385 . S
C2142 C2144 1.478 . S
C2143 H2137 0.930 . S
C2143 C2139 1.400 . S
C2143 C2142 1.385 . S
C2144 C2142 1.478 . S
C2144 C2146 1.381 . S
C2144 C2150 1.383 . S
C2145 C2141 1.495 . S
C2145 H2151 0.959 . S
C2145 H2152 0.961 . S
C2145 H2153 0.960 . S
C2146 C2144 1.381 . S
C2146 C2147 1.394 . S
C2146 H2154 0.930 . S
C2147 C2146 1.394 . S
C2147 C2148 1.383 . S
C2147 H2155 0.929 . S
C2148 C2147 1.383 . S
C2148 C2149 1.377 . S
C2149 H2133 0.930 . S
C2149 C2148 1.377 . S
C2149 C2150 1.379 . S
C2150 H2134 0.931 . S
C2150 C2144 1.383 . S
C2150 C2149 1.379 . S
H2151 C2145 0.959 . S
H2152 C2145 0.961 . S
H2153 C2145 0.960 . S
H2154 C2146 0.930 . S
H2155 C2147 0.929 . S
H2156 C2164 0.929 . S
H2157 C2166 0.930 . S
H2158 C2168 0.930 . S
H2159 C2171 0.929 . S
H2160 C2174 0.930 . S
H2161 C2176 0.960 . S
H2162 C2176 0.960 . S
H2163 C2176 0.960 . S
C2164 H2156 0.929 . S
C2164 C2165 1.377 . S
C2164 C2166 1.384 . S
C2165 C2164 1.377 . S
C2165 C2171 1.390 . S
C2166 H2157 0.930 . S
C2166 C2164 1.384 . S
C2166 C2167 1.372 . S
C2167 C2166 1.372 . S
C2167 C2168 1.400 . S
C2167 C2172 1.490 . S
C2168 H2158 0.930 . S
C2168 C2167 1.400 . S
C2168 C2171 1.386 . S
H2169 C2185 0.930 . S
H2170 C2186 0.931 . S
C2171 H2159 0.929 . S
C2171 C2165 1.390 . S
C2171 C2168 1.386 . S
C2172 C2167 1.490 . S
C2172 C2174 1.395 . S
C2172 C2175 1.403 . S
H2173 C2179 0.930 . S
C2174 H2160 0.930 . S
C2174 C2172 1.395 . S
C2174 C2177 1.403 . S
C2175 C2172 1.403 . S
C2175 C2176 1.524 . S
C2175 C2179 1.400 . S
C2176 H2161 0.960 . S
C2176 H2162 0.960 . S
C2176 H2163 0.960 . S
C2176 C2175 1.524 . S
C2177 C2174 1.403 . S
C2177 C2178 1.392 . S
C2177 C2181 1.495 . S
C2178 C2177 1.392 . S
C2178 C2179 1.385 . S
C2178 C2180 1.478 . S
C2179 H2173 0.930 . S
C2179 C2175 1.400 . S
C2179 C2178 1.385 . S
C2180 C2178 1.478 . S
C2180 C2182 1.381 . S
C2180 C2186 1.383 . S
C2181 C2177 1.495 . S
C2181 H2187 0.959 . S
C2181 H2188 0.961 . S
C2181 H2189 0.960 . S
C2182 C2180 1.381 . S
C2182 C2183 1.394 . S
C2182 H2190 0.930 . S
C2183 C2182 1.394 . S
C2183 C2184 1.383 . S
C2183 H2191 0.929 . S
C2184 C2183 1.383 . S
C2184 C2185 1.377 . S
C2185 H2169 0.930 . S
C2185 C2184 1.377 . S
C2185 C2186 1.379 . S
C2186 H2170 0.931 . S
C2186 C2180 1.383 . S
C2186 C2185 1.379 . S
H2187 C2181 0.959 . S
H2188 C2181 0.961 . S
H2189 C2181 0.960 . S
H2190 C2182 0.930 . S
H2191 C2183 0.929 . S
C492 C289 0.398 . S
C473 C4 0.223 . S
C528 C294 1.458 . S
C509 C63 1.466 . S
C564 C295 1.036 . S
C545 C72 1.064 . S
C581 C102 1.473 . S
C600 C299 1.443 . S
C617 C136 1.466 . S
C636 C302 1.469 . S
C672 C303 1.076 . S
C653 C183 1.046 . S
C689 C233 1.476 . S
C708 C280 1.458 . S
C725 C251 0.251 . S
C744 C296 0.219 . S
C780 C334 1.386 . S
C761 C29 1.435 . S
C797 C42 1.880 . S
C816 C360 1.798 . S
C852 C312 1.392 . S
C833 C97 1.456 . S
C888 C367 1.016 . S
C869 C115 1.044 . S
C905 C149 1.061 . S
C924 C321 0.999 . S
C960 C363 1.441 . S
C941 C187 1.455 . S
C977 C212 1.899 . S
C996 C327 1.819 . S
C1013 C255 1.437 . S
C1032 C358 1.376 . S
C1049 C8 1.435 . S
C1068 C366 1.368 . S
C1085 C153 1.883 . S
C1104 C353 1.833 . S
C1140 C331 1.389 . S
C1121 C170 1.452 . S
C1176 C359 1.027 . S
C1157 C208 1.053 . S
C1193 C238 1.439 . S
C1212 C326 1.420 . S
C1229 C76 1.454 . S
C1248 C344 1.396 . S
C1284 C335 1.819 . S
C1265 C119 1.899 . S
C1301 C38 1.060 . S
C1320 C328 1.007 . S
C1337 C242 0.234 . S
C1356 C390 0.286 . S
C1373 C165 1.441 . S
C1392 C385 1.368 . S
C1428 C399 1.037 . S
C1409 C174 1.019 . S
C1464 C376 1.397 . S
C1445 C204 1.442 . S
C1481 C34 1.444 . S
C1500 C392 1.362 . S
C1536 C391 1.024 . S
C1517 C81 1.020 . S
C1553 C131 1.443 . S
C1572 C395 1.397 . S
C1589 C13 0.207 . S
C1608 C398 0.350 . S
C1625 C267 1.431 . S
C1644 C424 1.366 . S
C1680 C440 1.892 . S
C1661 C144 1.922 . S
C1697 C199 1.446 . S
C1716 C422 1.435 . S
C1733 C217 1.074 . S
C1752 C455 1.041 . S
C1788 C431 1.054 . S
C1769 C47 1.071 . S
C1805 C85 1.479 . S
C1824 C449 1.432 . S
C1860 C427 1.885 . S
C1841 C110 1.903 . S
C1896 C462 1.402 . S
C1877 C17 1.460 . S
C1932 C454 1.392 . S
C1913 C246 1.463 . S
C1949 C51 1.921 . S
C1968 C459 1.855 . S
C1985 C68 1.444 . S
C2004 C430 1.412 . S
C2040 C463 1.013 . S
C2021 C106 1.081 . S
C2057 C0 1.430 . S
C2076 C417 1.372 . S
C2093 C178 1.479 . S
C2112 C456 1.440 . S
C2148 C408 1.885 . S
C2129 C221 1.909 . S
C2184 C423 1.083 . S
C2165 C140 1.061 . S
