# Generated by pormake.
# Topology ocu, (6,8)-cn, num edge types: 1
# Building blocks:
#     Node 0, Type 0, BuildingBlock: KUMJIN_clean_sbu_0, # of connection points: 6
#     Node 1, Type 0, BuildingBlock: KUMJIN_clean_sbu_0, # of connection points: 6
#     Node 2, Type 0, BuildingBlock: KUMJIN_clean_sbu_0, # of connection points: 6
#     Node 3, Type 0, BuildingBlock: KUMJIN_clean_sbu_0, # of connection points: 6
#     Node 4, Type 0, BuildingBlock: KUMJIN_clean_sbu_0, # of connection points: 6
#     Node 5, Type 0, BuildingBlock: KUMJIN_clean_sbu_0, # of connection points: 6
#     Node 6, Type 0, BuildingBlock: KUMJIN_clean_sbu_0, # of connection points: 6
#     Node 7, Type 0, BuildingBlock: KUMJIN_clean_sbu_0, # of connection points: 6
#     Node 8, Type 1, BuildingBlock: GIZVER_clean_sbu_0, # of connection points: 8
#     Node 9, Type 1, BuildingBlock: GIZVER_clean_sbu_0, # of connection points: 8
#     Node 10, Type 1, BuildingBlock: GIZVER_clean_sbu_0, # of connection points: 8
#     Node 11, Type 1, BuildingBlock: GIZVER_clean_sbu_0, # of connection points: 8
#     Node 12, Type 1, BuildingBlock: GIZVER_clean_sbu_0, # of connection points: 8
#     Node 13, Type 1, BuildingBlock: GIZVER_clean_sbu_0, # of connection points: 8
#     Edge 14, Type (0, 1), BuildingBlock: TEMPAE_clean_linker_10, # of connection points: 2
#     Edge 15, Type (0, 1), BuildingBlock: TEMPAE_clean_linker_10, # of connection points: 2
#     Edge 16, Type (0, 1), BuildingBlock: TEMPAE_clean_linker_10, # of connection points: 2
#     Edge 17, Type (0, 1), BuildingBlock: TEMPAE_clean_linker_10, # of connection points: 2
#     Edge 18, Type (0, 1), BuildingBlock: TEMPAE_clean_linker_10, # of connection points: 2
#     Edge 19, Type (0, 1), BuildingBlock: TEMPAE_clean_linker_10, # of connection points: 2
#     Edge 20, Type (0, 1), BuildingBlock: TEMPAE_clean_linker_10, # of connection points: 2
#     Edge 21, Type (0, 1), BuildingBlock: TEMPAE_clean_linker_10, # of connection points: 2
#     Edge 22, Type (0, 1), BuildingBlock: TEMPAE_clean_linker_10, # of connection points: 2
#     Edge 23, Type (0, 1), BuildingBlock: TEMPAE_clean_linker_10, # of connection points: 2
#     Edge 24, Type (0, 1), BuildingBlock: TEMPAE_clean_linker_10, # of connection points: 2
#     Edge 25, Type (0, 1), BuildingBlock: TEMPAE_clean_linker_10, # of connection points: 2
#     Edge 26, Type (0, 1), BuildingBlock: TEMPAE_clean_linker_10, # of connection points: 2
#     Edge 27, Type (0, 1), BuildingBlock: TEMPAE_clean_linker_10, # of connection points: 2
#     Edge 28, Type (0, 1), BuildingBlock: TEMPAE_clean_linker_10, # of connection points: 2
#     Edge 29, Type (0, 1), BuildingBlock: TEMPAE_clean_linker_10, # of connection points: 2
#     Edge 30, Type (0, 1), BuildingBlock: TEMPAE_clean_linker_10, # of connection points: 2
#     Edge 31, Type (0, 1), BuildingBlock: TEMPAE_clean_linker_10, # of connection points: 2
#     Edge 32, Type (0, 1), BuildingBlock: TEMPAE_clean_linker_10, # of connection points: 2
#     Edge 33, Type (0, 1), BuildingBlock: TEMPAE_clean_linker_10, # of connection points: 2
#     Edge 34, Type (0, 1), BuildingBlock: TEMPAE_clean_linker_10, # of connection points: 2
#     Edge 35, Type (0, 1), BuildingBlock: TEMPAE_clean_linker_10, # of connection points: 2
#     Edge 36, Type (0, 1), BuildingBlock: TEMPAE_clean_linker_10, # of connection points: 2
#     Edge 37, Type (0, 1), BuildingBlock: TEMPAE_clean_linker_10, # of connection points: 2
#     Edge 38, Type (0, 1), BuildingBlock: TEMPAE_clean_linker_10, # of connection points: 2
#     Edge 39, Type (0, 1), BuildingBlock: TEMPAE_clean_linker_10, # of connection points: 2
#     Edge 40, Type (0, 1), BuildingBlock: TEMPAE_clean_linker_10, # of connection points: 2
#     Edge 41, Type (0, 1), BuildingBlock: TEMPAE_clean_linker_10, # of connection points: 2
#     Edge 42, Type (0, 1), BuildingBlock: TEMPAE_clean_linker_10, # of connection points: 2
#     Edge 43, Type (0, 1), BuildingBlock: TEMPAE_clean_linker_10, # of connection points: 2
#     Edge 44, Type (0, 1), BuildingBlock: TEMPAE_clean_linker_10, # of connection points: 2
#     Edge 45, Type (0, 1), BuildingBlock: TEMPAE_clean_linker_10, # of connection points: 2
#     Edge 46, Type (0, 1), BuildingBlock: TEMPAE_clean_linker_10, # of connection points: 2
#     Edge 47, Type (0, 1), BuildingBlock: TEMPAE_clean_linker_10, # of connection points: 2
#     Edge 48, Type (0, 1), BuildingBlock: TEMPAE_clean_linker_10, # of connection points: 2
#     Edge 49, Type (0, 1), BuildingBlock: TEMPAE_clean_linker_10, # of connection points: 2
#     Edge 50, Type (0, 1), BuildingBlock: TEMPAE_clean_linker_10, # of connection points: 2
#     Edge 51, Type (0, 1), BuildingBlock: TEMPAE_clean_linker_10, # of connection points: 2
#     Edge 52, Type (0, 1), BuildingBlock: TEMPAE_clean_linker_10, # of connection points: 2
#     Edge 53, Type (0, 1), BuildingBlock: TEMPAE_clean_linker_10, # of connection points: 2
#     Edge 54, Type (0, 1), BuildingBlock: TEMPAE_clean_linker_10, # of connection points: 2
#     Edge 55, Type (0, 1), BuildingBlock: TEMPAE_clean_linker_10, # of connection points: 2
#     Edge 56, Type (0, 1), BuildingBlock: TEMPAE_clean_linker_10, # of connection points: 2
#     Edge 57, Type (0, 1), BuildingBlock: TEMPAE_clean_linker_10, # of connection points: 2
#     Edge 58, Type (0, 1), BuildingBlock: TEMPAE_clean_linker_10, # of connection points: 2
#     Edge 59, Type (0, 1), BuildingBlock: TEMPAE_clean_linker_10, # of connection points: 2
#     Edge 60, Type (0, 1), BuildingBlock: TEMPAE_clean_linker_10, # of connection points: 2
#     Edge 61, Type (0, 1), BuildingBlock: TEMPAE_clean_linker_10, # of connection points: 2
# Relax obj value: 0.167
# Max RMSD: 0.298
# Mean RMSD: 0.214
data_MOF--net-ocu--node1-KUMJIN_clean_sbu_0--node2-GIZVER_clean_sbu_0--edge1-TEMPAE_clean_linker_10
_symmetry_space_group_name_H-M    P1
_symmetry_Int_Tables_number       1
_symmetry_cell_setting            triclinic
loop_
_symmetry_equiv_pos_as_xyz
'x, y, z'
_cell_length_a     42.898026
_cell_length_b     44.436052
_cell_length_c     35.238957
_cell_angle_alpha  77.39702
_cell_angle_beta   102.08494
_cell_angle_gamma 111.53328
loop_
_atom_site_label
_atom_site_type_symbol
_atom_site_fract_x
_atom_site_fract_y
_atom_site_fract_z
_atom_type_partial_charge
Eu0 Eu 0.27226 0.24157 0.21311 0.0
C1 C 0.35585 0.27569 0.35091 0.0
C2 C 0.33063 0.23445 0.40367 0.0
C3 C 0.39159 0.25501 0.40572 0.0
C4 C 0.32728 0.25487 0.36724 0.0
C5 C 0.38836 0.27619 0.37043 0.0
C6 C 0.36281 0.2342 0.42232 0.0
C7 C 0.4127 0.32169 0.32195 0.0
N8 N 0.35209 0.29674 0.31732 0.0
C9 C 0.38014 0.32093 0.3043 0.0
C10 C 0.41686 0.29884 0.35476 0.0
Eu11 Eu 0.29523 0.29192 0.28768 0.0
N12 N 0.29643 0.25597 0.34891 0.0
C13 C 0.26883 0.24048 0.36826 0.0
C14 C 0.30167 0.21586 0.42115 0.0
C15 C 0.27074 0.21944 0.40375 0.0
H16 H 0.37813 0.3406 0.28099 0.0
H17 H 0.24849 0.20671 0.41821 0.0
H18 H 0.36585 0.21883 0.45028 0.0
H19 H 0.43462 0.34046 0.31074 0.0
H20 H 0.24535 0.245 0.35765 0.0
H21 H 0.33362 0.31375 0.08467 0.0
H22 H 0.30311 0.19998 0.449 0.0
H23 H 0.18608 0.2056 0.21328 0.0
H24 H 0.32838 0.27659 0.14714 0.0
H25 H 0.13428 0.21412 0.1776 0.0
H26 H 0.41636 0.25537 0.42112 0.0
H27 H 0.28544 0.33102 0.04913 0.0
H28 H 0.22403 0.3233 0.0427 0.0
H29 H 0.44217 0.29982 0.36877 0.0
H30 H 0.16967 0.29552 0.0674 0.0
N31 N 0.27917 0.27629 0.15104 0.0
C32 C 0.30769 0.28543 0.13366 0.0
C33 C 0.28329 0.31548 0.07747 0.0
C34 C 0.25272 0.30272 0.09283 0.0
C35 C 0.3106 0.30599 0.0975 0.0
C36 C 0.25121 0.28246 0.12991 0.0
H37 H 0.13606 0.25531 0.1177 0.0
N38 N 0.21914 0.24484 0.17785 0.0
C39 C 0.15834 0.22932 0.16798 0.0
C40 C 0.22032 0.26608 0.14349 0.0
C41 C 0.18836 0.22524 0.18896 0.0
C42 C 0.15942 0.25244 0.13412 0.0
C43 C 0.19047 0.27051 0.12086 0.0
O44 O 0.24708 0.19797 0.18446 0.0
O45 O 0.30854 0.25306 0.26897 0.0
O46 O 0.32815 0.3209 0.24082 0.0
O47 O 0.32626 0.2775 0.21295 0.0
O48 O 0.27924 0.20431 0.26625 0.0
O49 O 0.30153 0.21846 0.19297 0.0
O50 O 0.3165 0.33621 0.31526 0.0
O51 O 0.25846 0.27995 0.23229 0.0
O52 O 0.23581 0.21382 0.25628 0.0
O53 O 0.24152 0.25548 0.28994 0.0
O54 O 0.28621 0.329 0.23533 0.0
O55 O 0.26356 0.30788 0.31458 0.0
C56 C 0.30373 0.22382 0.2869 0.0
C57 C 0.27639 0.19201 0.13775 0.0
C58 C 0.2987 0.16989 0.09544 0.0
C59 C 0.29422 0.17232 0.13316 0.0
C60 C 0.28443 0.18747 0.06247 0.0
C61 C 0.26182 0.20851 0.1044 0.0
C62 C 0.26588 0.20623 0.06701 0.0
C63 C 0.339 0.30863 0.21751 0.0
C64 C 0.27514 0.19655 0.17756 0.0
C65 C 0.19231 0.29206 0.08517 0.0
C66 C 0.22333 0.30804 0.07116 0.0
C67 C 0.26234 0.30913 0.21446 0.0
C68 C 0.29038 0.3355 0.36881 0.0
C69 C 0.26977 0.35023 0.37865 0.0
C70 C 0.2699 0.35194 0.41819 0.0
C71 C 0.29107 0.33879 0.44772 0.0
C72 C 0.31157 0.32287 0.39877 0.0
C73 C 0.31183 0.3245 0.43797 0.0
C74 C 0.22579 0.22561 0.28096 0.0
C75 C 0.28844 0.33237 0.32744 0.0
H76 H 0.30464 0.15911 0.1592 0.0
H77 H 0.28804 0.1874 0.03301 0.0
H78 H 0.2477 0.22348 0.1072 0.0
H79 H 0.25502 0.21948 0.04143 0.0
H80 H 0.25312 0.3597 0.35561 0.0
H81 H 0.29181 0.33986 0.47834 0.0
H82 H 0.32781 0.31165 0.39194 0.0
H83 H 0.32816 0.31459 0.4609 0.0
Eu84 Eu 0.80326 0.24198 0.25601 0.0
C85 C 0.68516 0.27398 0.27551 0.0
C86 C 0.64734 0.28234 0.21551 0.0
C87 C 0.62434 0.2562 0.27645 0.0
C88 C 0.68021 0.28488 0.23537 0.0
C89 C 0.65716 0.26007 0.29649 0.0
C90 C 0.61945 0.26735 0.23609 0.0
C91 C 0.696 0.25634 0.35619 0.0
N92 N 0.71722 0.2779 0.29431 0.0
C93 C 0.72298 0.27032 0.33436 0.0
C94 C 0.66294 0.25084 0.33716 0.0
Eu95 Eu 0.7605 0.29889 0.25337 0.0
N96 N 0.70755 0.29904 0.21597 0.0
C97 C 0.70399 0.31336 0.17743 0.0
C98 C 0.64347 0.2956 0.17567 0.0
C99 C 0.67198 0.31158 0.15671 0.0
H100 H 0.74812 0.27442 0.35017 0.0
H101 H 0.66932 0.32236 0.12605 0.0
H102 H 0.59402 0.26485 0.2212 0.0
H103 H 0.70075 0.24977 0.38777 0.0
H104 H 0.72573 0.32504 0.16209 0.0
H105 H 0.93753 0.31295 0.24548 0.0
H106 H 0.61866 0.29418 0.15949 0.0
H107 H 0.75539 0.17559 0.21192 0.0
H108 H 0.8865 0.29104 0.27633 0.0
H109 H 0.75532 0.1508 0.15609 0.0
H110 H 0.6026 0.24518 0.29207 0.0
H111 H 0.938 0.29673 0.18289 0.0
H112 H 0.90787 0.2628 0.13008 0.0
H113 H 0.64213 0.2401 0.35422 0.0
H114 H 0.8583 0.21851 0.10574 0.0
N115 N 0.85587 0.26378 0.23055 0.0
C116 C 0.88502 0.2844 0.24829 0.0
C117 C 0.91485 0.28756 0.19585 0.0
C118 C 0.88575 0.26509 0.17888 0.0
C119 C 0.91465 0.29676 0.23108 0.0
C120 C 0.85639 0.253 0.19744 0.0
H121 H 0.80189 0.17607 0.11587 0.0
N122 N 0.80173 0.21488 0.20397 0.0
C123 C 0.77603 0.17252 0.16344 0.0
C124 C 0.82854 0.22789 0.18376 0.0
C125 C 0.7764 0.18652 0.19545 0.0
C126 C 0.80224 0.18697 0.1407 0.0
C127 C 0.82928 0.21452 0.15119 0.0
O128 O 0.81088 0.22333 0.31886 0.0
O129 O 0.76284 0.24966 0.28079 0.0
O130 O 0.79064 0.28811 0.3127 0.0
O131 O 0.83446 0.28441 0.28938 0.0
O132 O 0.74955 0.20681 0.25822 0.0
O133 O 0.82224 0.20092 0.27797 0.0
O134 O 0.80153 0.34322 0.26831 0.0
O135 O 0.80592 0.29373 0.23732 0.0
O136 O 0.76827 0.24246 0.19784 0.0
O137 O 0.73082 0.26655 0.20653 0.0
O138 O 0.78078 0.31937 0.19478 0.0
O139 O 0.75067 0.34277 0.25908 0.0
C140 C 0.73902 0.22321 0.27541 0.0
C141 C 0.79453 0.16628 0.33093 0.0
C142 C 0.7785 0.12542 0.3884 0.0
C143 C 0.80008 0.15552 0.37132 0.0
C144 C 0.75011 0.10713 0.36494 0.0
C145 C 0.76673 0.14702 0.3077 0.0
C146 C 0.74442 0.11791 0.32471 0.0
C147 C 0.8233 0.29344 0.31574 0.0
C148 C 0.81694 0.19817 0.31371 0.0
C149 C 0.85752 0.22814 0.13112 0.0
C150 C 0.88573 0.25334 0.14499 0.0
C151 C 0.8065 0.30938 0.20283 0.0
C152 C 0.79264 0.39044 0.23287 0.0
C153 C 0.77327 0.39143 0.19579 0.0
C154 C 0.7843 0.41668 0.1649 0.0
C155 C 0.81581 0.44134 0.17145 0.0
C156 C 0.82393 0.41531 0.23927 0.0
C157 C 0.8354 0.44068 0.20863 0.0
C158 C 0.73981 0.24917 0.18741 0.0
C159 C 0.78247 0.36091 0.26234 0.0
H160 H 0.8224 0.16965 0.38894 0.0
H161 H 0.73341 0.0837 0.37738 0.0
H162 H 0.76227 0.15423 0.27639 0.0
H163 H 0.72322 0.1032 0.30644 0.0
H164 H 0.74958 0.37196 0.1907 0.0
H165 H 0.82494 0.46132 0.14824 0.0
H166 H 0.83986 0.41454 0.26746 0.0
H167 H 0.85967 0.4597 0.2136 0.0
Eu168 Eu 0.75916 0.75115 0.30033 0.0
C169 C 0.83535 0.85129 0.16483 0.0
C170 C 0.79028 0.85987 0.11436 0.0
C171 C 0.84546 0.90251 0.11929 0.0
C172 C 0.80223 0.84032 0.14713 0.0
C173 C 0.85764 0.8822 0.15056 0.0
C174 C 0.81181 0.89135 0.10119 0.0
C175 C 0.90301 0.86922 0.19649 0.0
N176 N 0.84634 0.83084 0.19447 0.0
C177 C 0.87991 0.83877 0.20946 0.0
C178 C 0.89174 0.89125 0.1673 0.0
Eu179 Eu 0.80608 0.78 0.21616 0.0
N180 N 0.7823 0.80969 0.16043 0.0
C181 C 0.75104 0.79609 0.14008 0.0
C182 C 0.75745 0.84679 0.09503 0.0
C183 C 0.73795 0.81455 0.10758 0.0
H184 H 0.88872 0.82193 0.23223 0.0
H185 H 0.7128 0.8039 0.09229 0.0
H186 H 0.80295 0.90687 0.07638 0.0
H187 H 0.92944 0.87571 0.20913 0.0
H188 H 0.73557 0.77123 0.14929 0.0
H189 H 0.84905 0.73183 0.431 0.0
H190 H 0.74733 0.86107 0.06986 0.0
H191 H 0.67793 0.70501 0.28059 0.0
H192 H 0.82656 0.76335 0.37306 0.0
H193 H 0.63999 0.64869 0.29995 0.0
H194 H 0.8621 0.92647 0.10816 0.0
H195 H 0.81837 0.67298 0.44936 0.0
H196 H 0.76654 0.62393 0.43748 0.0
H197 H 0.90969 0.91478 0.15719 0.0
H198 H 0.70932 0.60132 0.40214 0.0
N199 N 0.7833 0.72279 0.35724 0.0
C200 C 0.81261 0.73773 0.38014 0.0
C201 C 0.80825 0.68662 0.42357 0.0
C202 C 0.77723 0.67185 0.40154 0.0
C203 C 0.8256 0.71988 0.41335 0.0
C204 C 0.76498 0.69099 0.36853 0.0
H205 H 0.66161 0.61058 0.3514 0.0
N206 N 0.72074 0.69844 0.31975 0.0
C207 C 0.66603 0.65667 0.31394 0.0
C208 C 0.73264 0.67841 0.34912 0.0
C209 C 0.68754 0.68854 0.30311 0.0
C210 C 0.67837 0.6352 0.34287 0.0
C211 C 0.71185 0.64615 0.3614 0.0
O212 O 0.71806 0.75718 0.32274 0.0
O213 O 0.76626 0.78653 0.24338 0.0
O214 O 0.82642 0.82122 0.25284 0.0
O215 O 0.80945 0.79122 0.31254 0.0
O216 O 0.71721 0.76106 0.25376 0.0
O217 O 0.76993 0.78694 0.33884 0.0
O218 O 0.84425 0.76547 0.19918 0.0
O219 O 0.79901 0.74565 0.27315 0.0
O220 O 0.74454 0.70867 0.26704 0.0
O221 O 0.75632 0.73854 0.20578 0.0
O222 O 0.84797 0.76822 0.26198 0.0
O223 O 0.79249 0.74945 0.17061 0.0
C224 C 0.73552 0.78355 0.22988 0.0
C225 C 0.73241 0.77778 0.38326 0.0
C226 C 0.71815 0.80286 0.42966 0.0
C227 C 0.72057 0.80106 0.39092 0.0
C228 C 0.72718 0.78002 0.46048 0.0
C229 C 0.74069 0.75502 0.41422 0.0
C230 C 0.73784 0.75606 0.45261 0.0
C231 C 0.82782 0.81786 0.29143 0.0
C232 C 0.73853 0.77968 0.34321 0.0
C233 C 0.72476 0.62629 0.39253 0.0
C234 C 0.75738 0.63915 0.41263 0.0
C235 C 0.82938 0.74755 0.28697 0.0
C236 C 0.83437 0.75181 0.13526 0.0
C237 C 0.84089 0.72523 0.12729 0.0
C238 C 0.85102 0.7266 0.09124 0.0
C239 C 0.85408 0.75508 0.06312 0.0
C240 C 0.83756 0.77992 0.10696 0.0
C241 C 0.84733 0.78145 0.07098 0.0
C242 C 0.74266 0.7109 0.22875 0.0
C243 C 0.82291 0.74891 0.17271 0.0
H244 H 0.71338 0.8178 0.36637 0.0
H245 H 0.72643 0.78072 0.49078 0.0
H246 H 0.74978 0.73684 0.40881 0.0
H247 H 0.74432 0.73845 0.47642 0.0
H248 H 0.83772 0.70336 0.14912 0.0
H249 H 0.86235 0.75729 0.03532 0.0
H250 H 0.83235 0.80049 0.11261 0.0
H251 H 0.84985 0.80321 0.04916 0.0
Eu252 Eu 0.31281 0.74047 0.27552 0.0
C253 C 0.24568 0.81722 0.13138 0.0
C254 C 0.28697 0.8702 0.11327 0.0
C255 C 0.24388 0.84331 0.06308 0.0
C256 C 0.27426 0.84284 0.14168 0.0
C257 C 0.22965 0.81744 0.0921 0.0
C258 C 0.27241 0.86978 0.07369 0.0
C259 C 0.18436 0.76904 0.11408 0.0
N260 N 0.23198 0.79339 0.16039 0.0
C261 C 0.201 0.77016 0.15263 0.0
C262 C 0.19902 0.79245 0.08355 0.0
Eu263 Eu 0.26276 0.79533 0.22465 0.0
N264 N 0.28739 0.84258 0.18021 0.0
C265 C 0.3108 0.87023 0.19283 0.0
C266 C 0.31252 0.89789 0.12582 0.0
C267 C 0.32403 0.89811 0.1659 0.0
H268 H 0.1897 0.75178 0.17607 0.0
H269 H 0.34289 0.91978 0.17615 0.0
H270 H 0.28221 0.89033 0.05134 0.0
H271 H 0.16024 0.75017 0.10798 0.0
H272 H 0.31954 0.87086 0.22367 0.0
H273 H 0.23875 0.61341 0.32029 0.0
H274 H 0.32235 0.91966 0.10504 0.0
H275 H 0.38457 0.78599 0.32477 0.0
H276 H 0.2564 0.66494 0.27513 0.0
H277 H 0.41489 0.78682 0.39245 0.0
H278 H 0.23217 0.84377 0.03266 0.0
H279 H 0.26122 0.61112 0.39121 0.0
H280 H 0.30132 0.63949 0.44557 0.0
H281 H 0.18594 0.79167 0.05374 0.0
H282 H 0.34938 0.68716 0.46533 0.0
N283 N 0.29013 0.6919 0.31913 0.0
C284 C 0.26669 0.66454 0.3058 0.0
C285 C 0.26935 0.63394 0.37133 0.0
C286 C 0.29392 0.66178 0.38471 0.0
C287 C 0.25632 0.63518 0.33149 0.0
C288 C 0.30453 0.69053 0.35732 0.0
H289 H 0.3923 0.74204 0.44558 0.0
N290 N 0.34415 0.74215 0.33971 0.0
C291 C 0.39161 0.76697 0.38606 0.0
C292 C 0.33215 0.71678 0.3681 0.0
C293 C 0.37438 0.76637 0.34772 0.0
C294 C 0.37867 0.74177 0.41599 0.0
C295 C 0.3491 0.71579 0.40702 0.0
O296 O 0.36013 0.73889 0.26355 0.0
O297 O 0.30871 0.78218 0.22837 0.0
O298 O 0.26123 0.76104 0.18446 0.0
O299 O 0.268 0.71699 0.23097 0.0
O300 O 0.35705 0.78445 0.255 0.0
O301 O 0.31315 0.70111 0.24765 0.0
O302 O 0.21696 0.80489 0.22791 0.0
O303 O 0.26559 0.75246 0.27054 0.0
O304 O 0.31436 0.77449 0.31639 0.0
O305 O 0.30675 0.81838 0.26993 0.0
O306 O 0.21779 0.7534 0.24706 0.0
O307 O 0.26529 0.83258 0.2576 0.0
C308 C 0.33968 0.79888 0.22815 0.0
C309 C 0.36253 0.68642 0.26542 0.0
C310 C 0.39344 0.65289 0.25502 0.0
C311 C 0.37707 0.67634 0.24032 0.0
C312 C 0.39488 0.63981 0.29526 0.0
C313 C 0.36437 0.67301 0.30535 0.0
C314 C 0.38039 0.64979 0.32012 0.0
C315 C 0.2565 0.72941 0.19536 0.0
C316 C 0.34599 0.71126 0.24989 0.0
C317 C 0.33691 0.68828 0.43521 0.0
C318 C 0.30951 0.66118 0.42398 0.0
C319 C 0.23439 0.73724 0.27254 0.0
C320 C 0.22602 0.85988 0.23299 0.0
C321 C 0.21933 0.87547 0.2594 0.0
C322 C 0.21391 0.90573 0.24674 0.0
C323 C 0.21579 0.92029 0.2072 0.0
C324 C 0.22711 0.87449 0.19357 0.0
C325 C 0.22224 0.90466 0.18085 0.0
C326 C 0.31814 0.80603 0.30565 0.0
C327 C 0.23334 0.82922 0.24751 0.0
H328 H 0.37541 0.68659 0.20939 0.0
H329 H 0.40772 0.62222 0.30776 0.0
H330 H 0.35366 0.68066 0.32516 0.0
H331 H 0.38183 0.63967 0.35104 0.0
H332 H 0.21782 0.86367 0.28964 0.0
H333 H 0.21228 0.94377 0.19659 0.0
H334 H 0.23181 0.86268 0.17268 0.0
H335 H 0.22344 0.91597 0.15045 0.0
Eu336 Eu 0.3261 0.7349 0.77343 0.0
C337 C 0.1902 0.75401 0.77147 0.0
C338 C 0.14864 0.74145 0.71378 0.0
C339 C 0.1301 0.73714 0.77584 0.0
C340 C 0.18261 0.75138 0.7321 0.0
C341 C 0.16398 0.74744 0.79372 0.0
C342 C 0.12242 0.73368 0.73608 0.0
C343 C 0.20661 0.7649 0.84855 0.0
N344 N 0.22324 0.76521 0.78736 0.0
C345 C 0.23168 0.77148 0.82517 0.0
C346 C 0.17261 0.75266 0.83284 0.0
Eu347 Eu 0.2645 0.77919 0.74482 0.0
N348 N 0.20853 0.76079 0.71104 0.0
C349 C 0.20226 0.763 0.671 0.0
C350 C 0.14211 0.74117 0.67323 0.0
C351 C 0.1691 0.75235 0.65166 0.0
H352 H 0.25766 0.78126 0.83805 0.0
H353 H 0.16438 0.75323 0.6201 0.0
H354 H 0.09619 0.72609 0.72257 0.0
H355 H 0.21359 0.76946 0.87864 0.0
H356 H 0.22309 0.77246 0.65409 0.0
H357 H 0.4437 0.81648 0.71864 0.0
H358 H 0.11638 0.73354 0.65813 0.0
H359 H 0.29547 0.65241 0.77768 0.0
H360 H 0.39912 0.79732 0.76073 0.0
H361 H 0.29621 0.61107 0.74197 0.0
H362 H 0.10966 0.73225 0.79236 0.0
H363 H 0.44371 0.78188 0.67225 0.0
H364 H 0.41855 0.72756 0.64777 0.0
H365 H 0.15326 0.74799 0.85089 0.0
H366 H 0.37828 0.67106 0.65453 0.0
N367 N 0.37278 0.75284 0.7376 0.0
C368 C 0.39842 0.78201 0.74054 0.0
C369 C 0.42384 0.77344 0.69057 0.0
C370 C 0.3991 0.74243 0.69001 0.0
C371 C 0.42397 0.79297 0.71672 0.0
C372 C 0.37391 0.73265 0.71461 0.0
H373 H 0.33294 0.62712 0.69027 0.0
N374 N 0.33018 0.69235 0.74539 0.0
C375 C 0.31185 0.63639 0.7349 0.0
C376 C 0.35177 0.70112 0.71869 0.0
C377 C 0.31145 0.66009 0.75505 0.0
C378 C 0.33251 0.64554 0.70566 0.0
C379 C 0.35346 0.67814 0.69789 0.0
O380 O 0.32828 0.70533 0.83168 0.0
O381 O 0.27997 0.74097 0.78727 0.0
O382 O 0.30079 0.79326 0.80086 0.0
O383 O 0.34709 0.78745 0.78491 0.0
O384 O 0.2806 0.69359 0.79474 0.0
O385 O 0.37203 0.74627 0.81666 0.0
O386 O 0.27935 0.82688 0.764 0.0
O387 O 0.31451 0.77824 0.73764 0.0
O388 O 0.29044 0.71499 0.7202 0.0
O389 O 0.24432 0.73299 0.71602 0.0
O390 O 0.28659 0.79227 0.6873 0.0
O391 O 0.25599 0.821 0.70455 0.0
C392 C 0.26307 0.71103 0.79686 0.0
C393 C 0.35811 0.73875 0.87997 0.0
C394 C 0.3878 0.75396 0.94353 0.0
C395 C 0.38674 0.7434 0.90825 0.0
C396 C 0.36037 0.76178 0.94909 0.0
C397 C 0.33067 0.7464 0.88595 0.0
C398 C 0.33207 0.75833 0.9201 0.0
C399 C 0.3339 0.8002 0.80522 0.0
C400 C 0.35719 0.7254 0.84484 0.0
C401 C 0.37685 0.68822 0.67117 0.0
C402 C 0.39972 0.72038 0.66728 0.0
C403 C 0.31506 0.78782 0.70131 0.0
C404 C 0.29894 0.87135 0.71339 0.0
C405 C 0.29319 0.88521 0.6741 0.0
C406 C 0.3171 0.91369 0.65784 0.0
C407 C 0.34722 0.92876 0.68142 0.0
C408 C 0.32942 0.8863 0.73675 0.0
C409 C 0.35341 0.91486 0.72069 0.0
C410 C 0.25904 0.71464 0.70638 0.0
C411 C 0.27243 0.84164 0.72887 0.0
H412 H 0.40736 0.73663 0.90368 0.0
H413 H 0.36044 0.76946 0.97624 0.0
H414 H 0.30819 0.74311 0.86437 0.0
H415 H 0.31081 0.76414 0.9245 0.0
H416 H 0.26932 0.87432 0.65624 0.0
H417 H 0.36571 0.95116 0.66952 0.0
H418 H 0.33467 0.87613 0.76726 0.0
H419 H 0.37674 0.92639 0.73883 0.0
Eu420 Eu 0.27594 0.25812 0.80061 0.0
C421 C 0.3347 0.34172 0.64583 0.0
C422 C 0.28639 0.34513 0.5975 0.0
C423 C 0.34128 0.38747 0.59211 0.0
C424 C 0.3006 0.32912 0.63205 0.0
C425 C 0.35556 0.37081 0.62572 0.0
C426 C 0.30676 0.37462 0.57797 0.0
C427 C 0.40356 0.36337 0.67162 0.0
N428 N 0.34783 0.32472 0.67791 0.0
C429 C 0.38192 0.33445 0.69024 0.0
C430 C 0.39029 0.38181 0.63941 0.0
Eu431 Eu 0.30982 0.2759 0.70777 0.0
N432 N 0.28164 0.30041 0.65135 0.0
C433 C 0.24866 0.28553 0.63646 0.0
C434 C 0.25226 0.33072 0.58316 0.0
C435 C 0.23336 0.30065 0.60252 0.0
H436 H 0.39239 0.32026 0.715 0.0
H437 H 0.20703 0.28909 0.5913 0.0
H438 H 0.29618 0.38736 0.55155 0.0
H439 H 0.43047 0.37135 0.68203 0.0
H440 H 0.23378 0.2622 0.65095 0.0
H441 H 0.38208 0.24773 0.91352 0.0
H442 H 0.24056 0.34241 0.55686 0.0
H443 H 0.19375 0.21381 0.79815 0.0
H444 H 0.35343 0.2733 0.85458 0.0
H445 H 0.15689 0.16344 0.83372 0.0
H446 H 0.35685 0.40994 0.57637 0.0
H447 H 0.35012 0.19514 0.95065 0.0
H448 H 0.29443 0.15093 0.95965 0.0
H449 H 0.40715 0.40407 0.62482 0.0
H450 H 0.23343 0.12737 0.93767 0.0
N451 N 0.30585 0.2348 0.85657 0.0
C452 C 0.33911 0.25018 0.87002 0.0
C453 C 0.33745 0.20609 0.92442 0.0
C454 C 0.30298 0.19134 0.91171 0.0
C455 C 0.35553 0.23579 0.90361 0.0
C456 C 0.2877 0.20648 0.87727 0.0
H457 H 0.18188 0.13191 0.89075 0.0
N458 N 0.23929 0.20989 0.83325 0.0
C459 C 0.184 0.17153 0.84279 0.0
C460 C 0.25335 0.19356 0.86513 0.0
C461 C 0.20497 0.20001 0.82264 0.0
C462 C 0.1982 0.15377 0.87488 0.0
C463 C 0.23321 0.16501 0.88687 0.0
O464 O 0.24169 0.27717 0.81839 0.0
O465 O 0.27515 0.28633 0.7391 0.0
O466 O 0.32944 0.32351 0.73244 0.0
O467 O 0.32597 0.30013 0.79786 0.0
O468 O 0.22941 0.26425 0.7601 0.0
O469 O 0.2949 0.29284 0.84205 0.0
O470 O 0.34427 0.2575 0.68931 0.0
O471 O 0.30943 0.24692 0.76874 0.0
O472 O 0.25336 0.21112 0.77439 0.0
O473 O 0.25969 0.23423 0.70906 0.0
O474 O 0.35564 0.26808 0.74915 0.0
O475 O 0.29125 0.24251 0.6647 0.0
C476 C 0.24381 0.28291 0.73068 0.0
C477 C 0.25699 0.29446 0.8806 0.0
C478 C 0.23942 0.32075 0.9224 0.0
C479 C 0.24735 0.32005 0.88588 0.0
C480 C 0.2417 0.29541 0.95369 0.0
C481 C 0.25908 0.26946 0.91203 0.0
C482 C 0.25152 0.27005 0.94845 0.0
C483 C 0.33589 0.32561 0.77029 0.0
C484 C 0.26538 0.2948 0.84222 0.0
C485 C 0.24844 0.14929 0.92051 0.0
C486 C 0.28322 0.16256 0.93298 0.0
C487 C 0.34036 0.24919 0.77786 0.0
C488 C 0.32981 0.24236 0.62588 0.0
C489 C 0.33784 0.21641 0.61855 0.0
C490 C 0.34647 0.21718 0.58179 0.0
C491 C 0.34655 0.24439 0.5524 0.0
C492 C 0.33001 0.26914 0.59621 0.0
C493 C 0.33828 0.27006 0.55963 0.0
C494 C 0.24719 0.20939 0.73637 0.0
C495 C 0.32084 0.24067 0.66449 0.0
H496 H 0.24629 0.33953 0.86153 0.0
H497 H 0.23522 0.29477 0.98203 0.0
H498 H 0.2666 0.24964 0.90847 0.0
H499 H 0.25305 0.25066 0.97263 0.0
H500 H 0.33709 0.19554 0.64146 0.0
H501 H 0.35363 0.24622 0.52402 0.0
H502 H 0.32376 0.28924 0.60127 0.0
H503 H 0.33852 0.29087 0.53685 0.0
Eu504 Eu 0.81633 0.23329 0.77906 0.0
C505 C 0.74792 0.31355 0.6354 0.0
C506 C 0.78657 0.36826 0.61856 0.0
C507 C 0.74258 0.34232 0.5685 0.0
C508 C 0.77612 0.33942 0.64587 0.0
C509 C 0.73038 0.31489 0.59677 0.0
C510 C 0.77046 0.36914 0.57949 0.0
C511 C 0.68721 0.26446 0.6184 0.0
N512 N 0.73584 0.2884 0.66395 0.0
C513 C 0.70504 0.26477 0.65647 0.0
C514 C 0.70019 0.28941 0.58824 0.0
Eu515 Eu 0.76796 0.28955 0.72767 0.0
N516 N 0.79102 0.33779 0.68387 0.0
C517 C 0.81441 0.36512 0.69728 0.0
C518 C 0.81133 0.396 0.63195 0.0
C519 C 0.82455 0.3946 0.67173 0.0
H520 H 0.69484 0.24539 0.67965 0.0
H521 H 0.84197 0.41638 0.68304 0.0
H522 H 0.77855 0.39088 0.55795 0.0
H523 H 0.66344 0.24506 0.61239 0.0
H524 H 0.82464 0.36475 0.72794 0.0
H525 H 0.73543 0.11286 0.83934 0.0
H526 H 0.81928 0.41892 0.61218 0.0
H527 H 0.89167 0.27864 0.82182 0.0
H528 H 0.7575 0.15879 0.78766 0.0
H529 H 0.9239 0.28376 0.88821 0.0
H530 H 0.72966 0.3437 0.53859 0.0
H531 H 0.75932 0.11692 0.90917 0.0
H532 H 0.80267 0.14878 0.95879 0.0
H533 H 0.68609 0.28941 0.55889 0.0
H534 H 0.8543 0.1956 0.97215 0.0
N535 N 0.79275 0.18905 0.82755 0.0
C536 C 0.76794 0.16099 0.81793 0.0
C537 C 0.76875 0.13732 0.88654 0.0
C538 C 0.79556 0.16537 0.89602 0.0
C539 C 0.75533 0.13488 0.84721 0.0
C540 C 0.80761 0.19084 0.86534 0.0
H541 H 0.90018 0.24577 0.94589 0.0
N542 N 0.84981 0.23845 0.84168 0.0
C543 C 0.89943 0.26485 0.88433 0.0
C544 C 0.83709 0.21651 0.87269 0.0
C545 C 0.8812 0.26172 0.84671 0.0
C546 C 0.8859 0.24341 0.9168 0.0
C547 C 0.85471 0.21837 0.91114 0.0
O548 O 0.86113 0.22383 0.77193 0.0
O549 O 0.81347 0.27525 0.73125 0.0
O550 O 0.76287 0.25266 0.68838 0.0
O551 O 0.7713 0.2094 0.7355 0.0
O552 O 0.86108 0.27345 0.75363 0.0
O553 O 0.81113 0.19109 0.75312 0.0
O554 O 0.7229 0.29875 0.73474 0.0
O555 O 0.77075 0.24737 0.77405 0.0
O556 O 0.81915 0.26871 0.81827 0.0
O557 O 0.81474 0.31261 0.77021 0.0
O558 O 0.72273 0.24782 0.75024 0.0
O559 O 0.77184 0.3256 0.76343 0.0
C560 C 0.84457 0.28958 0.728 0.0
C561 C 0.85419 0.168 0.7759 0.0
C562 C 0.87389 0.12504 0.76777 0.0
C563 C 0.86456 0.15302 0.75206 0.0
C564 C 0.87238 0.1122 0.80782 0.0
C565 C 0.8534 0.15515 0.81585 0.0
C566 C 0.86229 0.12727 0.83164 0.0
C567 C 0.75906 0.22111 0.69989 0.0
C568 C 0.8436 0.1965 0.75834 0.0
C569 C 0.84133 0.19446 0.94233 0.0
C570 C 0.81188 0.16786 0.93474 0.0
C571 C 0.7397 0.23226 0.77602 0.0
C572 C 0.73245 0.35321 0.7428 0.0
C573 C 0.72929 0.36952 0.77109 0.0
C574 C 0.72354 0.39975 0.75977 0.0
C575 C 0.72126 0.41335 0.71969 0.0
C576 C 0.72979 0.36718 0.70305 0.0
C577 C 0.72437 0.39715 0.69165 0.0
C578 C 0.82524 0.30043 0.80641 0.0
C579 C 0.73991 0.32239 0.75518 0.0
H580 H 0.86584 0.16358 0.72139 0.0
H581 H 0.87891 0.09045 0.82074 0.0
H582 H 0.84595 0.1666 0.83479 0.0
H583 H 0.86137 0.11732 0.86246 0.0
H584 H 0.73157 0.3588 0.80184 0.0
H585 H 0.71624 0.43619 0.70981 0.0
H586 H 0.73189 0.35494 0.68082 0.0
H587 H 0.72233 0.40776 0.6609 0.0
Eu588 Eu 0.78443 0.74892 0.70999 0.0
C589 C 0.88326 0.81871 0.84563 0.0
C590 C 0.88985 0.77543 0.89845 0.0
C591 C 0.93562 0.82762 0.89145 0.0
C592 C 0.87064 0.78699 0.86471 0.0
C593 C 0.91567 0.83959 0.85916 0.0
C594 C 0.9227 0.79561 0.91112 0.0
C595 C 0.9051 0.88338 0.80999 0.0
N596 N 0.86317 0.82965 0.81489 0.0
C597 C 0.8731 0.86179 0.79777 0.0
C598 C 0.92666 0.87214 0.84052 0.0
Eu599 Eu 0.80969 0.79143 0.79522 0.0
N600 N 0.83865 0.76827 0.85204 0.0
C601 C 0.82346 0.73875 0.8735 0.0
C602 C 0.87497 0.74445 0.91937 0.0
C603 C 0.84149 0.7262 0.90707 0.0
H604 H 0.85668 0.87064 0.77402 0.0
H605 H 0.82946 0.70248 0.92342 0.0
H606 H 0.93794 0.78699 0.93672 0.0
H607 H 0.91315 0.90862 0.79577 0.0
H608 H 0.79754 0.72442 0.8645 0.0
H609 H 0.77792 0.84825 0.58807 0.0
H610 H 0.88879 0.73494 0.94567 0.0
H611 H 0.73233 0.67169 0.72256 0.0
H612 H 0.803 0.8224 0.64901 0.0
H613 H 0.67738 0.63683 0.69176 0.0
H614 H 0.96068 0.8432 0.9021 0.0
H615 H 0.7222 0.81794 0.55457 0.0
H616 H 0.67192 0.76616 0.55282 0.0
H617 H 0.95141 0.88893 0.84999 0.0
H618 H 0.64437 0.70894 0.58117 0.0
N619 N 0.76141 0.77731 0.652 0.0
C620 C 0.77853 0.80845 0.63548 0.0
C621 C 0.73278 0.80632 0.58186 0.0
C622 C 0.71568 0.7742 0.5981 0.0
C623 C 0.76435 0.82346 0.60059 0.0
C624 C 0.73095 0.76009 0.63349 0.0
H625 H 0.64621 0.66051 0.63283 0.0
N626 N 0.73152 0.71477 0.68235 0.0
C627 C 0.68772 0.66243 0.67957 0.0
C628 C 0.71544 0.72791 0.64933 0.0
C629 C 0.71877 0.68221 0.69692 0.0
C630 C 0.67018 0.67591 0.64639 0.0
C631 C 0.68422 0.70889 0.63048 0.0
O632 O 0.79266 0.70883 0.69093 0.0
O633 O 0.81652 0.75316 0.76892 0.0
O634 O 0.85631 0.80479 0.76639 0.0
O635 O 0.82917 0.79626 0.70353 0.0
O636 O 0.79151 0.70641 0.75666 0.0
O637 O 0.82298 0.75893 0.67297 0.0
O638 O 0.79625 0.83032 0.80943 0.0
O639 O 0.77504 0.78559 0.73727 0.0
O640 O 0.73887 0.7314 0.74211 0.0
O641 O 0.76571 0.74373 0.80429 0.0
O642 O 0.8011 0.83256 0.7483 0.0
O643 O 0.77984 0.78146 0.84246 0.0
C644 C 0.81246 0.72331 0.78247 0.0
C645 C 0.81308 0.72159 0.6297 0.0
C646 C 0.82797 0.69501 0.58535 0.0
C647 C 0.82818 0.70003 0.62369 0.0
C648 C 0.81214 0.71198 0.55331 0.0
C649 C 0.79721 0.73782 0.59725 0.0
C650 C 0.79683 0.73303 0.55935 0.0
C651 C 0.85654 0.80877 0.72822 0.0
C652 C 0.81574 0.7284 0.66962 0.0
C653 C 0.66844 0.7231 0.59595 0.0
C654 C 0.68418 0.75567 0.57975 0.0
C655 C 0.77838 0.81543 0.72393 0.0
C656 C 0.78864 0.82567 0.8753 0.0
C657 C 0.76869 0.84284 0.88112 0.0
C658 C 0.77411 0.85455 0.91677 0.0
C659 C 0.79997 0.84934 0.94637 0.0
C660 C 0.8147 0.82106 0.90499 0.0
C661 C 0.82033 0.83294 0.94031 0.0
C662 C 0.7392 0.72815 0.78044 0.0
C663 C 0.78102 0.8117 0.83882 0.0
H664 H 0.84018 0.68736 0.6489 0.0
H665 H 0.81221 0.70963 0.52338 0.0
H666 H 0.7857 0.7547 0.60107 0.0
H667 H 0.78514 0.7462 0.53449 0.0
H668 H 0.74833 0.84625 0.85844 0.0
H669 H 0.80432 0.85792 0.97417 0.0
H670 H 0.83033 0.80793 0.90114 0.0
H671 H 0.84026 0.82905 0.96324 0.0
Co672 Co 0.08142 0.97409 0.46943 0.0
Co673 Co 0.10147 0.97931 0.54187 0.0
Co674 Co 0.04634 1.01353 0.51152 0.0
O675 O 0.08608 1.00576 0.50102 0.0
H676 H 0.10439 0.02594 0.49521 0.0
O677 O 1.00666 0.02149 0.52195 0.0
Co678 Co 1.01293 0.05366 0.55369 0.0
Co679 Co 0.99068 0.04776 0.48072 0.0
H680 H 0.98841 1.00139 0.52841 0.0
O681 O 0.1462 0.98673 0.55038 0.0
O682 O 0.10488 0.95048 0.5144 0.0
O683 O 0.07498 0.95793 0.58396 0.0
O684 O 1.03142 0.97335 0.55169 0.0
O685 O 0.07612 0.03791 0.55394 0.0
O686 O 1.01542 0.08125 0.58444 0.0
O687 O 0.9741 0.0334 0.57472 0.0
O688 O 0.05537 0.07815 0.53732 0.0
O689 O 0.06128 0.05415 0.47184 0.0
O690 O 1.01802 0.06992 0.43927 0.0
O691 O 0.98973 0.07736 0.50935 0.0
O692 O 0.94594 0.04291 0.4742 0.0
C693 C 0.10936 0.96902 0.43234 0.0
C694 C 1.01446 0.95985 0.46682 0.0
C695 C 0.04465 0.95692 0.58055 0.0
C696 C 0.13656 0.96332 0.52941 0.0
C697 C 0.98646 0.05946 0.59184 0.0
C698 C 0.07841 0.06683 0.55612 0.0
C699 C 0.04879 0.07188 0.44386 0.0
C700 C 0.95757 0.06579 0.49613 0.0
O701 O 0.08029 0.94702 0.43884 0.0
O702 O 0.12092 0.99495 0.44966 0.0
O703 O 1.01647 0.9887 0.4693 0.0
O704 O 1.03824 0.94891 0.48417 0.0
Co705 Co 0.5814 0.96544 0.99905 0.0
Co706 Co 0.58183 0.97359 0.06666 0.0
Co707 Co 0.53955 0.01841 0.00394 0.0
O708 O 0.58002 1.00203 0.02003 0.0
H709 H 0.60115 0.02013 0.01924 0.0
O710 O 0.49864 0.03383 0.98772 0.0
Co711 Co 0.49683 0.06965 0.00851 0.0
Co712 Co 0.49588 0.06159 0.94086 0.0
H713 H 0.47775 1.01548 0.98879 0.0
O714 O 0.62182 0.97246 0.0984 0.0
O715 O 0.59136 0.93981 0.05307 0.0
O716 O 0.54068 0.95651 0.08778 0.0
O717 O 0.51206 0.98649 0.04621 0.0
O718 O 0.5629 0.05225 0.04012 0.0
O719 O 0.49204 0.10016 0.02972 0.0
O720 O 0.45256 0.05265 0.01509 0.0
O721 O 0.54333 0.09143 0.00561 0.0
O722 O 0.56669 0.05023 0.96147 0.0
O723 O 0.53727 0.07936 0.91947 0.0
O724 O 0.48508 0.09449 0.95479 0.0
O725 O 0.45513 0.06175 0.9096 0.0
C726 C 0.6174 0.95404 0.98 0.0
C727 C 0.51178 0.95506 0.97533 0.0
C728 C 0.51402 0.96389 0.07552 0.0
C729 C 0.61615 0.94686 0.08241 0.0
C730 C 0.46112 0.07989 0.02922 0.0
C731 C 0.5658 0.0826 0.03031 0.0
C732 C 0.56421 0.07237 0.93176 0.0
C733 C 0.46007 0.087 0.92591 0.0
O734 O 0.58596 0.93497 0.97755 0.0
O735 O 0.62647 0.98089 0.99522 0.0
O736 O 0.51641 0.98568 0.96725 0.0
O737 O 0.53361 0.94429 0.99892 0.0
Co738 Co 0.07411 0.46019 1.0 0.0
Co739 Co 0.07894 0.47372 0.06733 0.0
Co740 Co 1.03585 0.51621 0.00382 0.0
O741 O 0.07517 0.49862 0.01811 0.0
H742 H 0.09643 0.51623 0.01501 0.0
O743 O 0.99662 0.53403 0.98997 0.0
Co744 Co 0.99929 0.57343 0.00763 0.0
Co745 Co 0.99238 0.55846 0.94074 0.0
H746 H 0.97537 0.51674 0.99383 0.0
O747 O 0.12009 0.47163 0.09556 0.0
O748 O 0.08394 0.43694 0.05532 0.0
O749 O 1.03986 0.46 0.09261 0.0
O750 O 1.0088 0.48497 0.04699 0.0
O751 O 0.06152 0.54905 0.03976 0.0
O752 O 0.99872 0.60723 0.02545 0.0
O753 O 0.95498 0.56141 0.01409 0.0
O754 O 0.04655 0.59107 0.00517 0.0
O755 O 0.06276 0.54738 0.96034 0.0
O756 O 1.03059 0.57108 0.91456 0.0
O757 O 0.98851 0.59603 0.95215 0.0
O758 O 0.95126 0.56064 0.91322 0.0
C759 C 0.10819 0.4451 0.98296 0.0
C760 C 1.00575 0.45261 0.97631 0.0
C761 C 1.01221 0.46533 0.07911 0.0
C762 C 0.11108 0.44441 0.08166 0.0
C763 C 0.9668 0.59018 0.02542 0.0
C764 C 0.06725 0.57982 0.03028 0.0
C765 C 0.05855 0.56635 0.92782 0.0
C766 C 0.96102 0.58833 0.92628 0.0
O767 O 0.07642 0.42712 0.98185 0.0
O768 O 0.11869 0.47352 0.99491 0.0
O769 O 1.01029 0.48326 0.96787 0.0
O770 O 1.02678 0.44166 1.00121 0.0
Co771 Co 0.58026 0.48966 0.93771 0.0
Co772 Co 0.5606 0.45329 0.99783 0.0
Co773 Co 0.54423 0.51558 0.9993 0.0
O774 O 0.57736 0.49799 0.98842 0.0
H775 H 0.59948 0.50622 1.00345 0.0
O776 O 0.51116 0.53309 0.01125 0.0
Co777 Co 0.52594 0.56564 0.0447 0.0
Co778 Co 0.49946 0.5638 0.97162 0.0
H779 H 0.49089 0.51558 0.01835 0.0
O780 O 0.59161 0.4367 0.02748 0.0
O781 O 0.57817 0.44377 0.96099 0.0
O782 O 0.5157 0.43331 0.01305 0.0
O783 O 0.52617 0.47712 0.04091 0.0
O784 O 0.58069 0.53716 0.04058 0.0
O785 O 0.53576 0.59375 0.07852 0.0
O786 O 0.48656 0.55371 0.06383 0.0
O787 O 0.56864 0.58243 0.02816 0.0
O788 O 0.56312 0.55349 0.95751 0.0
O789 O 0.52579 0.57892 0.9293 0.0
O790 O 0.51262 0.59679 1.00175 0.0
O791 O 0.46102 0.57537 0.96871 0.0
C792 C 0.6178 0.4932 0.90736 0.0
C793 C 0.5069 0.47769 0.93313 0.0
C794 C 0.50957 0.44709 0.03735 0.0
C795 C 0.59756 0.43625 0.99293 0.0
C796 C 0.50433 0.57764 0.08359 0.0
C797 C 0.58922 0.56732 0.04299 0.0
C798 C 0.55326 0.57384 0.93051 0.0
C799 C 0.48207 0.59706 0.98974 0.0
O800 O 0.58607 0.48322 0.89243 0.0
O801 O 0.62617 0.50261 0.94186 0.0
O802 O 0.50719 0.49382 0.95898 0.0
O803 O 0.53334 0.47495 0.92596 0.0
Co804 Co 0.09918 0.47541 0.54155 0.0
Co805 Co 0.07453 0.47469 0.46857 0.0
Co806 Co 1.03735 0.5133 0.49879 0.0
O807 O 0.05567 0.47558 0.51047 0.0
H808 H 1.03807 0.45481 0.51621 0.0
O809 O 1.01863 0.55073 0.48674 0.0
Co810 Co 0.97374 0.5501 0.45812 0.0
Co811 Co 1.00238 0.55225 0.5308 0.0
H812 H 1.03582 0.5715 0.47972 0.0
O813 O 0.07628 0.43684 0.45876 0.0
O814 O 0.11687 0.47387 0.49363 0.0
O815 O 0.08127 0.5114 0.42767 0.0
O816 O 0.07062 0.54284 0.46088 0.0
O817 O 1.00378 0.49241 0.45565 0.0
O818 O 0.93395 0.55379 0.43134 0.0
O819 O 0.98211 0.59483 0.44526 0.0
O820 O 0.95859 0.50281 0.46444 0.0
O821 O 1.00423 0.48401 0.53667 0.0
O822 O 0.99819 0.51606 0.57291 0.0
O823 O 0.95865 0.55015 0.50836 0.0
O824 O 0.99881 0.59015 0.53936 0.0
C825 C 0.12075 0.44012 0.57369 0.0
C826 C 0.1028 0.53987 0.54664 0.0
C827 C 0.08344 0.53941 0.43299 0.0
C828 C 0.1074 0.44845 0.47541 0.0
C829 C 0.95029 0.58513 0.42922 0.0
C830 C 0.97172 0.48526 0.45293 0.0
C831 C 0.99395 0.4878 0.56636 0.0
C832 C 0.96751 0.57635 0.52479 0.0
O833 O 0.13743 0.47135 0.57193 0.0
O834 O 0.08981 0.43073 0.55493 0.0
O835 O 0.07083 0.53404 0.54239 0.0
O836 O 0.11517 0.52258 0.53356 0.0
Co837 Co 0.59934 0.97637 0.53887 0.0
Co838 Co 0.57054 0.97839 0.46678 0.0
Co839 Co 0.53556 1.01335 0.5041 0.0
O840 O 0.55475 0.97686 0.5117 0.0
H841 H 0.53771 0.95564 0.51714 0.0
O842 O 0.51575 0.04979 0.49684 0.0
Co843 Co 0.47322 0.05167 0.46313 0.0
Co844 Co 0.493 0.04626 0.53746 0.0
H845 H 0.53327 0.07102 0.4943 0.0
O846 O 0.56759 0.94093 0.4527 0.0
O847 O 0.61242 0.97489 0.4876 0.0
O848 O 0.57568 1.01614 0.42738 0.0
O849 O 0.56571 0.04514 0.46437 0.0
O850 O 0.50065 0.99285 0.46151 0.0
O851 O 0.43621 0.05732 0.43103 0.0
O852 O 0.48332 0.09684 0.45151 0.0
O853 O 0.45611 1.00454 0.46895 0.0
O854 O 0.50535 0.98127 0.54362 0.0
O855 O 0.48067 1.00548 0.57135 0.0
O856 O 0.45323 0.05133 0.5098 0.0
O857 O 0.49263 0.0832 0.55166 0.0
C858 C 0.62206 0.94059 0.568 0.0
C859 C 0.60328 0.04127 0.54602 0.0
C860 C 0.57692 0.04335 0.43428 0.0
C861 C 0.59934 0.94998 0.46804 0.0
C862 C 0.45299 0.08839 0.43098 0.0
C863 C 0.46871 0.98551 0.45981 0.0
C864 C 0.48629 0.98029 0.56771 0.0
C865 C 0.46302 0.07528 0.53034 0.0
O866 O 0.63922 0.97181 0.56482 0.0
O867 O 0.59015 0.93143 0.55227 0.0
O868 O 0.57138 0.03361 0.54626 0.0
O869 O 0.61517 0.02397 0.53196 0.0
C870 C 0.17975 0.21765 0.31945 0.0
C871 C 0.19527 0.20452 0.29908 0.0
C872 C 0.15307 0.19731 0.34022 0.0
C873 C 0.14131 0.16313 0.34002 0.0
C874 C 0.15546 0.14998 0.31753 0.0
C875 C 0.18238 0.17083 0.29745 0.0
C876 C 0.13876 0.2122 0.3641 0.0
C877 C 0.14339 0.11366 0.31632 0.0
C878 C 0.1069 0.10611 0.42964 0.0
C879 C 0.07184 0.09619 0.41728 0.0
C880 C 0.12962 0.12838 0.40497 0.0
C881 C 0.11703 0.14076 0.36673 0.0
C882 C 0.08168 0.13114 0.35406 0.0
C883 C 0.0594 0.10909 0.37968 0.0
C884 C 0.16716 0.13839 0.41976 0.0
C885 C 0.0675 0.14363 0.31327 0.0
H886 H 0.18909 0.24376 0.32019 0.0
H887 H 0.19403 0.16047 0.28153 0.0
H888 H 0.11071 0.20341 0.35805 0.0
H889 H 0.14594 0.2044 0.39585 0.0
H890 H 0.14822 0.2394 0.35798 0.0
H891 H 0.15411 0.10789 0.29382 0.0
H892 H 0.151 0.10068 0.34542 0.0
H893 H 0.11536 0.10389 0.31001 0.0
H894 H 0.11671 0.09654 0.45884 0.0
H895 H 1.03234 0.1014 0.36997 0.0
H896 H 0.17831 0.16544 0.41732 0.0
H897 H 0.18006 0.13063 0.4014 0.0
H898 H 0.17267 0.12747 0.45083 0.0
H899 H 0.07656 0.17079 0.30815 0.0
H900 H 1.03937 0.13451 0.30832 0.0
H901 H 0.07668 0.13582 0.29114 0.0
C902 C 0.80543 0.1281 0.45837 0.0
C903 C 0.79071 0.11001 0.42728 0.0
C904 C 0.82951 0.11948 0.48803 0.0
C905 C 0.83996 0.09357 0.48473 0.0
C906 C 0.82074 0.07204 0.45741 0.0
C907 C 0.79578 0.08032 0.42936 0.0
C908 C 0.84634 0.14041 0.51988 0.0
C909 C 0.82987 0.04314 0.45356 0.0
C910 C 0.93002 0.10745 0.47856 0.0
C911 C 0.93392 0.07973 0.50358 0.0
C912 C 0.90064 0.11506 0.4756 0.0
C913 C 0.87533 0.09478 0.49931 0.0
C914 C 0.882 0.06996 0.52904 0.0
C915 C 0.91075 0.06183 0.5298 0.0
C916 C 0.89502 0.14214 0.44355 0.0
C917 C 0.85748 0.04976 0.55747 0.0
H918 H 0.80052 0.15051 0.45757 0.0
H919 H 0.78382 0.06591 0.40578 0.0
H920 H 0.86026 0.12822 0.54483 0.0
H921 H 0.86431 0.16406 0.50767 0.0
H922 H 0.82708 0.14612 0.53101 0.0
H923 H 0.81224 0.02905 0.43062 0.0
H924 H 0.85589 0.05166 0.44593 0.0
H925 H 0.82924 0.02625 0.4818 0.0
H926 H 0.94823 0.1211 0.45844 0.0
H927 H 0.9138 0.04021 0.54911 0.0
H928 H 0.88942 0.16003 0.45615 0.0
H929 H 0.873 0.13182 0.42157 0.0
H930 H 0.9174 0.15552 0.42801 0.0
H931 H 0.87157 0.04616 0.58735 0.0
H932 H 0.84385 0.02506 0.54919 0.0
H933 H 0.83878 0.06132 0.5585 0.0
C934 C 0.85269 0.84021 0.35432 0.0
C935 C 0.85317 0.84323 0.31387 0.0
C936 C 0.87836 0.86109 0.37768 0.0
C937 C 0.90544 0.88578 0.36034 0.0
C938 C 0.90539 0.89017 0.31927 0.0
C939 C 0.87898 0.86903 0.29642 0.0
C940 C 0.87706 0.85588 0.42125 0.0
C941 C 0.93382 0.91637 0.29972 0.0
C942 C 0.95973 0.95227 0.42142 0.0
C943 C 0.98654 0.94081 0.43965 0.0
C944 C 0.93361 0.93511 0.39468 0.0
C945 C 0.93434 0.90584 0.38584 0.0
C946 C 0.96148 0.8943 0.40378 0.0
C947 C 0.98718 0.91185 0.43058 0.0
C948 C 0.90489 0.94797 0.37649 0.0
C949 C 0.9631 0.86313 0.39511 0.0
H950 H 0.83253 0.82099 0.36826 0.0
H951 H 0.8791 0.87228 0.26518 0.0
H952 H 0.89855 0.84811 0.43788 0.0
H953 H 0.87966 0.8791 0.43048 0.0
H954 H 0.85312 0.83695 0.42967 0.0
H955 H 0.92904 0.91785 0.26724 0.0
H956 H 0.93754 0.94059 0.30708 0.0
H957 H 0.95779 0.91116 0.3109 0.0
H958 H 0.95902 0.97465 0.42818 0.0
H959 H 1.00787 0.90291 0.44428 0.0
H960 H 0.88086 0.93025 0.3861 0.0
H961 H 0.90167 0.95058 0.34401 0.0
H962 H 0.90904 0.97204 0.38474 0.0
H963 H 0.94138 0.84198 0.40532 0.0
H964 H 0.9869 0.85855 0.40964 0.0
H965 H 0.96112 0.86426 0.36296 0.0
C966 C 0.21994 0.92021 0.31374 0.0
C967 C 0.20477 0.92122 0.27429 0.0
C968 C 0.20881 0.93161 0.34082 0.0
C969 C 0.18208 0.94456 0.32805 0.0
C970 C 0.16803 0.94738 0.28788 0.0
C971 C 0.1794 0.93553 0.26156 0.0
C972 C 0.22452 0.92833 0.38341 0.0
C973 C 0.1395 0.96107 0.27306 0.0
C974 C 0.12013 0.93187 0.39704 0.0
C975 C 0.12941 0.96319 0.407 0.0
C976 C 0.13786 0.92539 0.37247 0.0
C977 C 0.16554 0.95092 0.35714 0.0
C978 C 0.17568 0.98246 0.36779 0.0
C979 C 0.15748 0.98824 0.39274 0.0
C980 C 0.12641 0.89129 0.36224 0.0
C981 C 0.20512 1.01023 0.35205 0.0
H982 H 0.24007 0.90986 0.32366 0.0
H983 H 0.16726 0.93617 0.2313 0.0
H984 H 0.23301 0.95218 0.39404 0.0
H985 H 0.20536 0.9107 0.40167 0.0
H986 H 0.24649 0.9197 0.38815 0.0
H987 H 0.13413 0.96519 0.24046 0.0
H988 H 0.11615 0.94375 0.28466 0.0
H989 H 0.14561 0.9846 0.2837 0.0
H990 H 0.09878 0.91222 0.40838 0.0
H991 H 0.16488 1.01244 0.40053 0.0
H992 H 0.11758 0.89198 0.33023 0.0
H993 H 0.1055 0.87382 0.37823 0.0
H994 H 0.14789 0.88182 0.36927 0.0
H995 H 0.22788 1.00278 0.35767 0.0
H996 H 0.21135 0.03257 0.3654 0.0
H997 H 0.19901 1.01641 0.31975 0.0
C998 C 0.30252 0.95898 0.61263 0.0
C999 C 0.30743 0.92889 0.61772 0.0
C1000 C 0.27888 0.96674 0.58176 0.0
C1001 C 0.2607 0.94396 0.55554 0.0
C1002 C 0.27158 0.91763 0.55552 0.0
C1003 C 0.2941 0.90961 0.58759 0.0
C1004 C 0.26954 0.99644 0.58127 0.0
C1005 C 0.2556 0.89509 0.52519 0.0
C1006 C 0.16828 0.9259 0.55628 0.0
C1007 C 0.16207 0.94997 0.52615 0.0
C1008 C 0.19974 0.92146 0.56399 0.0
C1009 C 0.22503 0.94111 0.53994 0.0
C1010 C 0.2169 0.96214 0.50606 0.0
C1011 C 0.18573 0.96715 0.50027 0.0
C1012 C 0.20692 0.89844 0.60054 0.0
C1013 C 0.24174 0.98149 0.47767 0.0
H1014 H 0.31338 0.97415 0.6356 0.0
H1015 H 0.2984 0.88652 0.59114 0.0
H1016 H 0.24409 0.98856 0.59035 0.0
H1017 H 0.28796 1.01299 0.6014 0.0
H1018 H 0.26845 1.01047 0.55119 0.0
H1019 H 0.23307 0.87499 0.53532 0.0
H1020 H 0.24732 0.9084 0.49663 0.0
H1021 H 0.27361 0.88387 0.52083 0.0
H1022 H 0.14986 0.91304 0.57636 0.0
H1023 H 0.18104 0.98624 0.47731 0.0
H1024 H 0.18434 0.88515 0.61578 0.0
H1025 H 0.22749 0.91237 0.62148 0.0
H1026 H 0.21538 0.88003 0.59295 0.0
H1027 H 0.25325 1.00722 0.48318 0.0
H1028 H 0.22833 0.98208 0.44705 0.0
H1029 H 0.26219 0.97121 0.48013 0.0
C1030 C 0.19111 0.16489 0.73078 0.0
C1031 C 0.22415 0.17931 0.72176 0.0
C1032 C 0.16658 0.1421 0.7084 0.0
C1033 C 0.17558 0.13419 0.67628 0.0
C1034 C 0.20966 0.14671 0.66938 0.0
C1035 C 0.23357 0.16896 0.69248 0.0
C1036 C 0.1306 0.12862 0.71713 0.0
C1037 C 0.22039 0.13902 0.63543 0.0
C1038 C 0.11785 0.06642 0.61912 0.0
C1039 C 0.10315 0.08401 0.58693 0.0
C1040 C 0.14048 0.08218 0.64939 0.0
C1041 C 0.14911 0.11639 0.64687 0.0
C1042 C 0.13426 0.13425 0.6145 0.0
C1043 C 0.11117 0.11774 0.58507 0.0
C1044 C 0.15538 0.06234 0.68383 0.0
C1045 C 0.14336 0.17092 0.61048 0.0
H1046 H 0.18378 0.17313 0.75316 0.0
H1047 H 0.25937 0.17982 0.68606 0.0
H1048 H 0.11507 0.14125 0.69505 0.0
H1049 H 0.11935 0.1021 0.71513 0.0
H1050 H 0.12901 0.13228 0.74678 0.0
H1051 H 0.24835 0.14821 0.63652 0.0
H1052 H 0.21091 0.11225 0.63516 0.0
H1053 H 0.20923 0.15057 0.60735 0.0
H1054 H 0.11133 0.0402 0.62097 0.0
H1055 H 0.09978 0.13134 0.56026 0.0
H1056 H 0.15147 0.06709 0.71181 0.0
H1057 H 0.1831 0.06983 0.68411 0.0
H1058 H 0.14405 0.03563 0.68284 0.0
H1059 H 0.13821 0.17733 0.63671 0.0
H1060 H 0.12901 0.18101 0.58392 0.0
H1061 H 0.17082 0.18306 0.60878 0.0
C1062 C 0.87131 0.10798 0.70344 0.0
C1063 C 0.88621 0.11009 0.74266 0.0
C1064 C 0.8848 0.09691 0.67837 0.0
C1065 C 0.9134 0.08692 0.69316 0.0
C1066 C 0.92751 0.08743 0.7332 0.0
C1067 C 0.91391 0.09922 0.75738 0.0
C1068 C 0.86847 0.09629 0.63607 0.0
C1069 C 0.95798 0.07694 0.7501 0.0
C1070 C 0.94051 0.04059 0.63436 0.0
C1071 C 0.96709 0.06582 0.61747 0.0
C1072 C 0.92244 0.04701 0.65888 0.0
C1073 C 0.93097 0.07941 0.66612 0.0
C1074 C 0.95724 0.105 0.64833 0.0
C1075 C 0.9751 0.09786 0.6245 0.0
C1076 C 0.89432 0.01922 0.67706 0.0
C1077 C 0.96645 0.14004 0.65435 0.0
H1078 H 0.84931 0.11545 0.6921 0.0
H1079 H 0.92584 0.10102 0.7875 0.0
H1080 H 0.88766 0.10458 0.61581 0.0
H1081 H 0.85229 0.0708 0.63252 0.0
H1082 H 0.85219 0.11188 0.62707 0.0
H1083 H 0.9638 0.07569 0.78253 0.0
H1084 H 0.95377 0.05258 0.74275 0.0
H1085 H 0.98043 0.0946 0.73694 0.0
H1086 H 0.93406 1.01584 0.62872 0.0
H1087 H 0.99523 0.11759 0.61098 0.0
H1088 H 0.87012 0.02419 0.6674 0.0
H1089 H 0.89956 0.01729 0.70954 0.0
H1090 H 0.89113 0.99535 0.66896 0.0
H1091 H 0.94391 0.14793 0.64488 0.0
H1092 H 0.98706 0.15719 0.63771 0.0
H1093 H 0.97469 0.14199 0.68601 0.0
C1094 C 0.91776 0.84437 0.73566 0.0
C1095 C 0.88805 0.82906 0.7116 0.0
C1096 C 0.94697 0.86518 0.7194 0.0
C1097 C 0.94665 0.86989 0.67829 0.0
C1098 C 0.91729 0.85322 0.65415 0.0
C1099 C 0.88831 0.83332 0.67102 0.0
C1100 C 0.97765 0.88298 0.74597 0.0
C1101 C 0.91607 0.85713 0.61021 0.0
C1102 C 0.99892 0.94654 0.61944 0.0
C1103 C 1.02313 0.93604 0.6103 0.0
C1104 C 0.9755 0.92603 0.64429 0.0
C1105 C 0.97583 0.89392 0.65957 0.0
C1106 C 1.00139 0.88377 0.65213 0.0
C1107 C 1.02509 0.9052 0.62779 0.0
C1108 C 0.94915 0.93809 0.65217 0.0
C1109 C 1.00225 0.84958 0.66756 0.0
H1110 H 0.91811 0.84055 0.76711 0.0
H1111 H 0.86571 0.82137 0.65207 0.0
H1112 H 1.00066 0.87965 0.7406 0.0
H1113 H 0.98171 0.90963 0.73936 0.0
H1114 H 0.97484 0.87448 0.77755 0.0
H1115 H 0.89231 0.84029 0.59616 0.0
H1116 H 0.91799 0.88265 0.59673 0.0
H1117 H 0.93785 0.85244 0.60345 0.0
H1118 H 0.99784 0.9707 0.60643 0.0
H1119 H 0.04391 0.89716 0.62072 0.0
H1120 H 0.94653 0.93206 0.68386 0.0
H1121 H 0.9242 0.92568 0.63574 0.0
H1122 H 0.95542 0.96496 0.64301 0.0
H1123 H 0.99931 0.84282 0.69914 0.0
H1124 H 1.02615 0.84698 0.66374 0.0
H1125 H 0.98073 0.83188 0.65155 0.0
C1126 C 0.34676 0.14706 0.11861 0.0
C1127 C 0.31922 0.15034 0.09032 0.0
C1128 C 0.36766 0.13093 0.11268 0.0
C1129 C 0.36196 0.11893 0.0769 0.0
C1130 C 0.33344 0.12071 0.04901 0.0
C1131 C 0.31224 0.13593 0.05628 0.0
C1132 C 0.39675 0.12798 0.14414 0.0
C1133 C 0.32628 0.10848 0.01023 0.0
C1134 C 0.43999 0.12241 0.03916 0.0
C1135 C 0.43585 0.08917 0.04255 0.0
C1136 C 0.41603 0.13225 0.05006 0.0
C1137 C 0.38794 0.10834 0.06655 0.0
C1138 C 0.38433 0.07472 0.07165 0.0
C1139 C 0.40795 0.06547 0.05871 0.0
C1140 C 0.42034 0.16827 0.04287 0.0
C1141 C 0.35545 0.04861 0.09053 0.0
H1142 H 0.35298 0.15809 0.14495 0.0
H1143 H 0.2905 0.13705 0.03466 0.0
H1144 H 0.39864 0.10319 0.14829 0.0
H1145 H 0.42088 0.14593 0.13511 0.0
H1146 H 0.394 0.13272 0.17273 0.0
H1147 H 0.3343 0.08706 0.01252 0.0
H1148 H 0.29889 0.10148 0.99843 0.0
H1149 H 0.34056 0.12834 0.98876 0.0
H1150 H 0.4616 0.14087 0.02685 0.0
H1151 H 0.40495 0.03977 0.06189 0.0
H1152 H 0.42069 0.17643 0.07055 0.0
H1153 H 0.39852 0.17248 0.02198 0.0
H1154 H 0.44407 0.18381 0.03072 0.0
H1155 H 0.35416 0.05468 0.11897 0.0
H1156 H 0.35802 0.02399 0.09578 0.0
H1157 H 0.33111 0.04758 0.07141 0.0
C1158 C 0.84737 0.32517 0.15443 0.0
C1159 C 0.83829 0.33083 0.18744 0.0
C1160 C 0.87606 0.34747 0.13782 0.0
C1161 C 0.89502 0.37692 0.15336 0.0
C1162 C 0.88556 0.3827 0.18658 0.0
C1163 C 0.85768 0.35942 0.20343 0.0
C1164 C 0.88634 0.33935 0.10394 0.0
C1165 C 0.90474 0.41364 0.20416 0.0
C1166 C 0.986 0.42214 0.1331 0.0
C1167 C 0.98228 0.44526 0.09976 0.0
C1168 C 0.95814 0.40037 0.15114 0.0
C1169 C 0.92521 0.40129 0.13561 0.0
C1170 C 0.92129 0.42551 0.10302 0.0
C1171 C 0.94978 0.44701 0.08528 0.0
C1172 C 0.96451 0.37562 0.18584 0.0
C1173 C 0.88694 0.42858 0.08676 0.0
H1174 H 0.8321 0.30329 0.14171 0.0
H1175 H 0.85051 0.36407 0.22866 0.0
H1176 H 0.88637 0.35868 0.07801 0.0
H1177 H 0.91252 0.33861 0.11208 0.0
H1178 H 0.86922 0.31539 0.09551 0.0
H1179 H 0.8945 0.41421 0.23035 0.0
H1180 H 0.93182 0.41599 0.21296 0.0
H1181 H 0.90355 0.43524 0.18185 0.0
H1182 H 1.01081 0.42032 0.14488 0.0
H1183 H 0.94646 0.46479 0.05971 0.0
H1184 H 0.94536 0.36764 0.206 0.0
H1185 H 0.98994 0.38557 0.20292 0.0
H1186 H 0.96399 0.35395 0.17472 0.0
H1187 H 0.87002 0.4061 0.07465 0.0
H1188 H 0.88837 0.45 0.06317 0.0
H1189 H 0.87512 0.43099 0.11061 0.0
C1190 C 0.74085 0.84175 0.19377 0.0
C1191 C 0.72133 0.80867 0.20366 0.0
C1192 C 0.72576 0.86493 0.17129 0.0
C1193 C 0.68998 0.85552 0.16033 0.0
C1194 C 0.67037 0.82216 0.17042 0.0
C1195 C 0.68618 0.79938 0.19129 0.0
C1196 C 0.74819 0.89938 0.15854 0.0
C1197 C 0.63238 0.81045 0.15952 0.0
C1198 C 0.64696 0.92088 0.14219 0.0
C1199 C 0.6354 0.92369 0.10154 0.0
C1200 C 0.66462 0.89909 0.16136 0.0
C1201 C 0.67263 0.88026 0.13944 0.0
C1202 C 0.66155 0.88353 0.0982 0.0
C1203 C 0.64266 0.90454 0.08003 0.0
C1204 C 0.67354 0.8953 0.20551 0.0
C1205 C 0.66954 0.86538 0.07225 0.0
H1206 H 0.76787 0.84955 0.2036 0.0
H1207 H 0.67065 0.77402 0.19875 0.0
H1208 H 0.74321 0.90568 0.12608 0.0
H1209 H 0.74231 0.91699 0.17141 0.0
H1210 H 0.7755 0.90255 0.16735 0.0
H1211 H 0.62038 0.78433 0.17176 0.0
H1212 H 0.62142 0.82553 0.17032 0.0
H1213 H 0.62583 0.81337 0.12706 0.0
H1214 H 0.64127 0.93513 0.15947 0.0
H1215 H 0.63408 0.90628 0.04872 0.0
H1216 H 0.70133 0.90177 0.21393 0.0
H1217 H 0.66184 0.86934 0.21851 0.0
H1218 H 0.66482 0.9109 0.21856 0.0
H1219 H 0.68288 0.84822 0.08835 0.0
H1220 H 0.6857 0.88356 0.05113 0.0
H1221 H 0.64577 0.85154 0.05494 0.0
C1222 C 0.21046 0.67659 0.18542 0.0
C1223 C 0.23247 0.70656 0.16919 0.0
C1224 C 0.18443 0.65631 0.16152 0.0
C1225 C 0.18116 0.66555 0.12016 0.0
C1226 C 0.20425 0.69521 0.1035 0.0
C1227 C 0.22931 0.71563 0.12828 0.0
C1228 C 0.15938 0.62584 0.1807 0.0
C1229 C 0.20198 0.70584 0.05962 0.0
C1230 C 0.12761 0.59631 0.06226 0.0
C1231 C 0.09706 0.60273 0.05105 0.0
C1232 C 0.15569 0.61738 0.08327 0.0
C1233 C 0.15265 0.64473 0.09473 0.0
C1234 C 0.12176 0.65125 0.08339 0.0
C1235 C 0.09462 0.63058 0.06093 0.0
C1236 C 0.18855 0.61033 0.09335 0.0
C1237 C 0.117 0.67987 0.09502 0.0
H1238 H 0.21252 0.66966 0.21704 0.0
H1239 H 0.24625 0.73887 0.11567 0.0
H1240 H 0.13358 0.62757 0.17262 0.0
H1241 H 0.15875 0.60393 0.16994 0.0
H1242 H 0.16547 0.62215 0.21326 0.0
H1243 H 0.22493 0.72641 0.05126 0.0
H1244 H 0.19844 0.68509 0.04455 0.0
H1245 H 0.17975 0.71403 0.04877 0.0
H1246 H 0.12962 0.57494 0.05424 0.0
H1247 H 0.071 0.63559 0.05231 0.0
H1248 H 0.19452 0.60414 0.12565 0.0
H1249 H 0.2096 0.63246 0.08351 0.0
H1250 H 0.1876 0.58972 0.07957 0.0
H1251 H 0.12949 0.68363 0.12538 0.0
H1252 H 0.08978 0.67656 0.09304 0.0
H1253 H 0.1285 0.7024 0.07476 0.0
C1254 C 0.39123 0.83892 0.82553 0.0
C1255 C 0.35711 0.82404 0.83091 0.0
C1256 C 0.41439 0.86023 0.85047 0.0
C1257 C 0.40342 0.86656 0.88218 0.0
C1258 C 0.3689 0.85186 0.88766 0.0
C1259 C 0.34602 0.8311 0.86158 0.0
C1260 C 0.45078 0.87572 0.84303 0.0
C1261 C 0.35631 0.85749 0.92149 0.0
C1262 C 0.47487 0.89801 0.96361 0.0
C1263 C 0.48196 0.93201 0.95405 0.0
C1264 C 0.4483 0.87628 0.94162 0.0
C1265 C 0.42839 0.88877 0.90915 0.0
C1266 C 0.43461 0.92294 0.90027 0.0
C1267 C 0.46115 0.94408 0.92288 0.0
C1268 C 0.44207 0.83997 0.95248 0.0
C1269 C 0.41418 0.93732 0.86576 0.0
H1270 H 0.39997 0.83404 0.80159 0.0
H1271 H 0.3197 0.8196 0.86595 0.0
H1272 H 0.45848 0.90278 0.83954 0.0
H1273 H 0.4676 0.86784 0.86861 0.0
H1274 H 0.45495 0.86909 0.81633 0.0
H1275 H 0.3285 0.84547 0.92067 0.0
H1276 H 0.36902 0.8477 0.94966 0.0
H1277 H 0.36279 0.88411 0.92119 0.0
H1278 H 0.49045 0.88834 0.9879 0.0
H1279 H 0.4662 0.97025 0.91527 0.0
H1280 H 0.44429 0.8301 0.92722 0.0
H1281 H 0.41592 0.82716 0.95951 0.0
H1282 H 0.46006 0.83411 0.97816 0.0
H1283 H 0.419 0.93298 0.83801 0.0
H1284 H 0.42052 0.96408 0.86441 0.0
H1285 H 0.38672 0.9251 0.86733 0.0
C1286 C 0.20464 0.35783 0.89805 0.0
C1287 C 0.2274 0.34691 0.92757 0.0
C1288 C 0.1898 0.37933 0.90457 0.0
C1289 C 0.19729 0.38958 0.94176 0.0
C1290 C 0.22207 0.38059 0.97056 0.0
C1291 C 0.23701 0.3596 0.96299 0.0
C1292 C 0.16436 0.38921 0.87253 0.0
C1293 C 0.23081 0.3908 0.01061 0.0
C1294 C 0.16266 0.45232 0.95996 0.0
C1295 C 0.13191 0.43181 0.97289 0.0
C1296 C 0.18425 0.43912 0.9492 0.0
C1297 C 0.17525 0.40467 0.95269 0.0
C1298 C 0.14458 0.38398 0.96659 0.0
C1299 C 0.12313 0.39779 0.97587 0.0
C1300 C 0.2162 0.46196 0.93326 0.0
C1301 C 0.13428 0.3471 0.97161 0.0
H1302 H 0.19702 0.34831 0.87048 0.0
H1303 H 0.25544 0.35222 0.98542 0.0
H1304 H 0.1384 0.37498 0.87953 0.0
H1305 H 0.16807 0.41554 0.87044 0.0
H1306 H 0.16613 0.38456 0.84345 0.0
H1307 H 0.25452 0.38693 0.02689 0.0
H1308 H 0.23356 0.41688 0.00854 0.0
H1309 H 0.20988 0.37594 0.02781 0.0
H1310 H 0.1694 0.47863 0.95731 0.0
H1311 H 0.09948 0.38174 0.98599 0.0
H1312 H 0.21504 0.45851 0.90268 0.0
H1313 H 0.23854 0.45616 0.95079 0.0
H1314 H 0.22007 0.48807 0.93336 0.0
H1315 H 0.13134 0.33926 0.94289 0.0
H1316 H 0.11007 0.33447 0.98383 0.0
H1317 H 0.15432 0.33881 0.99148 0.0
C1318 C 0.6967 0.17718 0.78608 0.0
C1319 C 0.72326 0.20248 0.80235 0.0
C1320 C 0.67508 0.15188 0.80975 0.0
C1321 C 0.67929 0.15261 0.85056 0.0
C1322 C 0.7074 0.17717 0.86745 0.0
C1323 C 0.72902 0.20198 0.84304 0.0
C1324 C 0.64605 0.12592 0.79045 0.0
C1325 C 0.71315 0.17877 0.91077 0.0
C1326 C 0.59623 0.12376 0.8914 0.0
C1327 C 0.59435 0.09247 0.91205 0.0
C1328 C 0.62416 0.14366 0.87244 0.0
C1329 C 0.65093 0.13195 0.87339 0.0
C1330 C 0.64933 0.1004 0.89434 0.0
C1331 C 0.62126 0.0812 0.9139 0.0
C1332 C 0.62473 0.17721 0.8509 0.0
C1333 C 0.67707 0.08681 0.89597 0.0
H1334 H 0.69204 0.17791 0.75448 0.0
H1335 H 0.74922 0.22195 0.85546 0.0
H1336 H 0.64297 0.10137 0.80822 0.0
H1337 H 0.6222 0.13096 0.78839 0.0
H1338 H 0.64974 0.12537 0.76035 0.0
H1339 H 0.73894 0.19538 0.9203 0.0
H1340 H 0.69432 0.18792 0.91734 0.0
H1341 H 0.70961 0.15408 0.9283 0.0
H1342 H 0.57585 0.13298 0.89032 0.0
H1343 H 0.62008 0.05712 0.92996 0.0
H1344 H 0.62463 0.17849 0.81908 0.0
H1345 H 0.64825 0.19621 0.86176 0.0
H1346 H 0.60267 0.18323 0.8545 0.0
H1347 H 0.68253 0.08883 0.86595 0.0
H1348 H 0.67047 0.06074 0.91001 0.0
H1349 H 0.70045 0.10128 0.91307 0.0
C1350 C 0.82484 0.67936 0.83495 0.0
C1351 C 0.83703 0.70963 0.81092 0.0
C1352 C 0.84686 0.66308 0.85788 0.0
C1353 C 0.88194 0.67589 0.85471 0.0
C1354 C 0.89456 0.70705 0.83136 0.0
C1355 C 0.87211 0.72376 0.81034 0.0
C1356 C 0.8324 0.63177 0.88513 0.0
C1357 C 0.93164 0.72213 0.82735 0.0
C1358 C 0.9446 0.63814 0.92632 0.0
C1359 C 0.94236 0.61214 0.90805 0.0
C1360 C 0.9255 0.65923 0.90962 0.0
C1361 C 0.90432 0.65519 0.8728 0.0
C1362 C 0.90346 0.63 0.85339 0.0
C1363 C 0.92173 0.60861 0.87143 0.0
C1364 C 0.92841 0.68553 0.93214 0.0
C1365 C 0.88333 0.62566 0.81311 0.0
H1366 H 0.79781 0.66831 0.83577 0.0
H1367 H 0.88178 0.74698 0.79163 0.0
H1368 H 0.83161 0.61056 0.87275 0.0
H1369 H 0.84871 0.63192 0.91412 0.0
H1370 H 0.80632 0.62816 0.88966 0.0
H1371 H 0.93743 0.74579 0.80703 0.0
H1372 H 0.9467 0.72642 0.85657 0.0
H1373 H 0.93984 0.70502 0.81638 0.0
H1374 H 0.96079 0.64173 0.95416 0.0
H1375 H 0.92013 0.58919 0.85633 0.0
H1376 H 0.90942 0.69787 0.92015 0.0
H1377 H 0.9541 0.70419 0.93193 0.0
H1378 H 0.92557 0.67479 0.96322 0.0
H1379 H 0.85587 0.61662 0.81511 0.0
H1380 H 0.88873 0.60799 0.79972 0.0
H1381 H 0.88909 0.64953 0.79321 0.0
C1382 C 0.20247 0.31083 0.19722 0.0
C1383 C 0.23577 0.32172 0.18875 0.0
C1384 C 0.17964 0.32767 0.17813 0.0
C1385 C 0.19015 0.3562 0.14971 0.0
C1386 C 0.22338 0.36626 0.14003 0.0
C1387 C 0.2457 0.3493 0.15992 0.0
C1388 C 0.14493 0.31607 0.19024 0.0
C1389 C 0.23649 0.39632 0.11044 0.0
C1390 C 0.12528 0.39323 0.08227 0.0
C1391 C 0.13019 0.42083 0.09913 0.0
C1392 C 0.14406 0.37178 0.09847 0.0
C1393 C 0.16803 0.37738 0.13304 0.0
C1394 C 0.17224 0.40463 0.1508 0.0
C1395 C 0.15376 0.426 0.13355 0.0
C1396 C 0.13906 0.3438 0.07764 0.0
C1397 C 0.19655 0.41145 0.18815 0.0
H1398 H 0.1948 0.29011 0.22019 0.0
H1399 H 0.27156 0.3583 0.15368 0.0
H1400 H 0.14325 0.33422 0.20625 0.0
H1401 H 0.12521 0.31417 0.16404 0.0
H1402 H 0.13927 0.29191 0.20957 0.0
H1403 H 0.25744 0.39511 0.09754 0.0
H1404 H 0.21617 0.39969 0.08643 0.0
H1405 H 0.24656 0.41825 0.12532 0.0
H1406 H 0.10706 0.38861 0.05601 0.0
H1407 H 0.15776 0.44686 0.14743 0.0
H1408 H 0.13699 0.3209 0.09878 0.0
H1409 H 0.16146 0.34959 0.06291 0.0
H1410 H 0.11613 0.33946 0.05519 0.0
H1411 H 0.19166 0.38908 0.21063 0.0
H1412 H 0.19461 0.43156 0.20049 0.0
H1413 H 0.2229 0.41834 0.18228 0.0
C1414 C 0.20472 0.67117 0.79181 0.0
C1415 C 0.2298 0.69575 0.81101 0.0
C1416 C 0.17665 0.64936 0.8097 0.0
C1417 C 0.17325 0.65238 0.84775 0.0
C1418 C 0.19807 0.67786 0.86678 0.0
C1419 C 0.22654 0.6985 0.84871 0.0
C1420 C 0.15131 0.62232 0.78845 0.0
C1421 C 0.19496 0.68291 0.90661 0.0
C1422 C 0.08551 0.6144 0.87924 0.0
C1423 C 0.08783 0.58668 0.90635 0.0
C1424 C 0.11286 0.6356 0.86003 0.0
C1425 C 0.14364 0.62911 0.86744 0.0
C1426 C 0.14607 0.60071 0.89402 0.0
C1427 C 0.1183 0.58005 0.91355 0.0
C1428 C 0.10906 0.66578 0.83308 0.0
C1429 C 0.17801 0.59218 0.90182 0.0
H1430 H 0.20793 0.668 0.76341 0.0
H1431 H 0.24686 0.71603 0.86474 0.0
H1432 H 0.14986 0.59818 0.80659 0.0
H1433 H 0.12574 0.62435 0.78394 0.0
H1434 H 0.15794 0.62291 0.75939 0.0
H1435 H 0.17028 0.68605 0.90561 0.0
H1436 H 0.19559 0.66103 0.92864 0.0
H1437 H 0.21557 0.7047 0.91665 0.0
H1438 H 0.0624 0.62027 0.87368 0.0
H1439 H 0.12043 0.55873 0.93434 0.0
H1440 H 0.08229 0.6649 0.82576 0.0
H1441 H 0.11917 0.6693 0.80535 0.0
H1442 H 0.12384 0.68734 0.84792 0.0
H1443 H 0.17518 0.56822 0.92113 0.0
H1444 H 0.19916 0.6114 0.916 0.0
H1445 H 0.18518 0.59131 0.87368 0.0
C1446 C 0.33551 0.1939 0.82188 0.0
C1447 C 0.35528 0.22509 0.80512 0.0
C1448 C 0.35067 0.17113 0.84526 0.0
C1449 C 0.38638 0.17868 0.85013 0.0
C1450 C 0.40626 0.21007 0.833 0.0
C1451 C 0.39063 0.23278 0.81142 0.0
C1452 C 0.32848 0.13903 0.86497 0.0
C1453 C 0.44423 0.21956 0.83681 0.0
C1454 C 0.43718 0.13197 0.92839 0.0
C1455 C 0.43995 0.10959 0.90768 0.0
C1456 C 0.41875 0.15352 0.91087 0.0
C1457 C 0.40315 0.15355 0.87103 0.0
C1458 C 0.40599 0.13102 0.85 0.0
C1459 C 0.42371 0.10919 0.86859 0.0
C1460 C 0.41563 0.17574 0.93561 0.0
C1461 C 0.3913 0.13073 0.80717 0.0
H1462 H 0.3082 0.1872 0.81659 0.0
H1463 H 0.40629 0.2566 0.79847 0.0
H1464 H 0.33021 0.11839 0.85361 0.0
H1465 H 0.33747 0.13602 0.89704 0.0
H1466 H 0.30152 0.13744 0.86027 0.0
H1467 H 0.45613 0.24453 0.82103 0.0
H1468 H 0.45535 0.21871 0.86827 0.0
H1469 H 0.45076 0.2018 0.82493 0.0
H1470 H 0.44935 0.13258 0.95848 0.0
H1471 H 0.4257 0.09235 0.85188 0.0
H1472 H 0.41504 0.1996 0.91824 0.0
H1473 H 0.43682 0.18042 0.96022 0.0
H1474 H 0.39158 0.16363 0.94822 0.0
H1475 H 0.36369 0.12611 0.80332 0.0
H1476 H 0.39551 0.11181 0.7948 0.0
H1477 H 0.40297 0.15507 0.78993 0.0
C1478 C 0.87081 0.35337 0.81702 0.0
C1479 C 0.84853 0.32338 0.83279 0.0
C1480 C 0.89543 0.37421 0.84149 0.0
C1481 C 0.897 0.36541 0.88281 0.0
C1482 C 0.8737 0.33565 0.8989 0.0
C1483 C 0.85007 0.31472 0.87366 0.0
C1484 C 0.92066 0.40497 0.82307 0.0
C1485 C 0.8741 0.32557 0.94271 0.0
C1486 C 0.98105 0.40196 0.9454 0.0
C1487 C 0.97714 0.42947 0.95437 0.0
C1488 C 0.95516 0.38089 0.92222 0.0
C1489 C 0.92407 0.38675 0.90895 0.0
C1490 C 0.9195 0.4138 0.91926 0.0
C1491 C 0.94635 0.43523 0.94126 0.0
C1492 C 0.96139 0.35267 0.91153 0.0
C1493 C 0.88633 0.42019 0.90686 0.0
H1494 H 0.86996 0.35996 0.78545 0.0
H1495 H 0.83285 0.29149 0.88588 0.0
H1496 H 0.91964 0.42676 0.83255 0.0
H1497 H 0.94667 0.40412 0.83314 0.0
H1498 H 0.91602 0.40818 0.79045 0.0
H1499 H 0.85126 0.30447 0.95019 0.0
H1500 H 0.89673 0.31843 0.95571 0.0
H1501 H 0.87568 0.34633 0.95659 0.0
H1502 H 1.00487 0.3975 0.95539 0.0
H1503 H 0.94319 0.45633 0.94853 0.0
H1504 H 0.95342 0.35145 0.87967 0.0
H1505 H 0.9462 0.32937 0.92782 0.0
H1506 H 0.98845 0.35453 0.91894 0.0
H1507 H 0.88155 0.42608 0.87439 0.0
H1508 H 0.88602 0.44078 0.91971 0.0
H1509 H 0.86519 0.39787 0.91598 0.0
C1510 C 0.72941 0.85436 0.95185 0.0
C1511 C 0.7516 0.87046 0.92418 0.0
C1512 C 0.70751 0.86861 0.95937 0.0
C1513 C 0.70885 0.90053 0.93991 0.0
C1514 C 0.73124 0.91681 0.91164 0.0
C1515 C 0.75215 0.90142 0.90384 0.0
C1516 C 0.68301 0.84859 0.9879 0.0
C1517 C 0.73272 0.95027 0.88923 0.0
C1518 C 0.63141 0.92369 0.93795 0.0
C1519 C 0.64227 0.94363 0.96734 0.0
C1520 C 0.65313 0.91042 0.92795 0.0
C1521 C 0.68644 0.91659 0.94837 0.0
C1522 C 0.69769 0.93691 0.97793 0.0
C1523 C 0.67563 0.95065 0.98664 0.0
C1524 C 0.63995 0.88865 0.8966 0.0
C1525 C 0.73258 0.94309 1.00136 0.0
H1526 H 0.72873 0.83019 0.96721 0.0
H1527 H 0.76926 0.91371 0.88223 0.0
H1528 H 0.66379 0.85943 0.98891 0.0
H1529 H 0.66961 0.82369 0.97995 0.0
H1530 H 0.69744 0.84541 0.01765 0.0
H1531 H 0.75125 0.95951 0.86802 0.0
H1532 H 0.70736 0.94936 0.87292 0.0
H1533 H 0.7398 0.96799 0.90999 0.0
H1534 H 0.60561 0.91809 0.92299 0.0
H1535 H 0.68394 0.96554 0.00985 0.0
H1536 H 0.63841 0.86322 0.91016 0.0
H1537 H 0.6576 0.8969 0.87451 0.0
H1538 H 0.61444 0.88836 0.88128 0.0
H1539 H 0.73598 0.91942 0.01575 0.0
H1540 H 0.73712 0.95843 0.02431 0.0
H1541 H 0.75204 0.95549 0.98147 0.0
C1542 C 0.87813 0.68302 0.11336 0.0
C1543 C 0.85977 0.6991 0.08358 0.0
C1544 C 0.89003 0.6598 0.10547 0.0
C1545 C 0.88384 0.65271 0.06676 0.0
C1546 C 0.86304 0.66685 0.03732 0.0
C1547 C 0.85141 0.68997 0.04602 0.0
C1548 C 0.91121 0.64456 0.13806 0.0
C1549 C 0.85488 0.65968 0.99576 0.0
C1550 C 0.95671 0.63894 0.03678 0.0
C1551 C 0.94458 0.6051 0.03593 0.0
C1552 C 0.93687 0.6545 0.04604 0.0
C1553 C 0.90415 0.63577 0.05577 0.0
C1554 C 0.89163 0.60152 0.05527 0.0
C1555 C 0.91188 0.58658 0.04486 0.0
C1556 C 0.95094 0.69122 0.04496 0.0
C1557 C 0.85698 0.58076 0.06586 0.0
H1558 H 0.88479 0.68976 0.1425 0.0
H1559 H 0.83647 0.70153 0.02299 0.0
H1560 H 0.904 0.61801 0.13726 0.0
H1561 H 0.93827 0.65618 0.13404 0.0
H1562 H 0.90856 0.64779 0.16747 0.0
H1563 H 0.8734 0.67881 0.97801 0.0
H1564 H 0.85608 0.63557 0.99389 0.0
H1565 H 0.82926 0.66039 0.98238 0.0
H1566 H 0.98176 0.65362 0.02945 0.0
H1567 H 0.90236 0.56045 0.0443 0.0
H1568 H 0.95376 0.69712 0.07476 0.0
H1569 H 0.93317 0.70274 0.02534 0.0
H1570 H 0.97598 0.70243 0.0344 0.0
H1571 H 0.85519 0.58349 0.09581 0.0
H1572 H 0.85117 0.55441 0.06488 0.0
H1573 H 0.8374 0.58925 0.04531 0.0
C1574 C 0.34945 0.83072 0.16135 0.0
C1575 C 0.35572 0.82918 0.20222 0.0
C1576 C 0.37042 0.85651 0.13715 0.0
C1577 C 0.39838 0.88095 0.15441 0.0
C1578 C 0.40299 0.88062 0.19549 0.0
C1579 C 0.38207 0.8544 0.21892 0.0
C1580 C 0.36411 0.85625 0.09349 0.0
C1581 C 0.43174 0.90655 0.21517 0.0
C1582 C 0.48147 0.9115 0.11357 0.0
C1583 C 0.48354 0.94323 0.09436 0.0
C1584 C 0.45338 0.89092 0.1318 0.0
C1585 C 0.42657 0.90233 0.13165 0.0
C1586 C 0.42824 0.93429 0.112 0.0
C1587 C 0.4565 0.95419 0.09303 0.0
C1588 C 0.45277 0.85699 0.15187 0.0
C1589 C 0.40036 0.94757 0.11082 0.0
H1590 H 0.32938 0.81089 0.14853 0.0
H1591 H 0.38712 0.85294 0.25062 0.0
H1592 H 0.36596 0.88106 0.07721 0.0
H1593 H 0.38375 0.84912 0.08526 0.0
H1594 H 0.33881 0.83877 0.08405 0.0
H1595 H 0.42844 0.90599 0.2458 0.0
H1596 H 0.45592 0.9025 0.21593 0.0
H1597 H 0.43385 0.93127 0.19836 0.0
H1598 H 0.50188 0.90246 0.11413 0.0
H1599 H 0.45773 0.97853 0.07789 0.0
H1600 H 0.45295 0.85477 0.18389 0.0
H1601 H 0.47479 0.85126 0.14751 0.0
H1602 H 0.42923 0.83831 0.14045 0.0
H1603 H 0.37863 0.93631 0.08916 0.0
H1604 H 0.40852 0.97458 0.10187 0.0
H1605 H 0.39158 0.94142 0.13988 0.0
C1606 C 0.68 0.22024 0.16044 0.0
C1607 C 0.71457 0.23123 0.15726 0.0
C1608 C 0.65636 0.19708 0.13784 0.0
C1609 C 0.66751 0.18503 0.11097 0.0
C1610 C 0.70209 0.19773 0.10582 0.0
C1611 C 0.72518 0.22067 0.12904 0.0
C1612 C 0.61973 0.18431 0.1442 0.0
C1613 C 0.71499 0.18607 0.07702 0.0
C1614 C 0.61326 0.1004 0.08522 0.0
C1615 C 0.594 0.10831 0.04962 0.0
C1616 C 0.63765 0.12514 0.10524 0.0
C1617 C 0.64312 0.15854 0.08908 0.0
C1618 C 0.62463 0.16659 0.05247 0.0
C1619 C 0.6003 0.14147 0.03331 0.0
C1620 C 0.65691 0.11557 0.14423 0.0
C1621 C 0.63002 0.20181 0.0339 0.0
H1622 H 0.67162 0.22827 0.18223 0.0
H1623 H 0.75185 0.22951 0.12609 0.0
H1624 H 0.60315 0.18679 0.11581 0.0
H1625 H 0.61239 0.15786 0.15648 0.0
H1626 H 0.61489 0.19739 0.16467 0.0
H1627 H 0.74198 0.20033 0.07417 0.0
H1628 H 0.71247 0.15991 0.08686 0.0
H1629 H 0.69963 0.18787 0.04762 0.0
H1630 H 0.60857 0.07492 0.09807 0.0
H1631 H 0.58584 0.1479 0.0056 0.0
H1632 H 0.65112 0.12496 0.16769 0.0
H1633 H 0.68456 0.12685 0.14339 0.0
H1634 H 0.65053 0.08861 0.15225 0.0
H1635 H 0.62288 0.21436 0.05296 0.0
H1636 H 0.61489 0.20396 0.00435 0.0
H1637 H 0.65717 0.21498 0.03113 0.0
C1638 C 0.68037 0.6869 0.7754 0.0
C1639 C 0.7093 0.7049 0.79839 0.0
C1640 C 0.65272 0.66379 0.79279 0.0
C1641 C 0.65367 0.65937 0.83397 0.0
C1642 C 0.68242 0.67803 0.8572 0.0
C1643 C 0.70992 0.70033 0.83919 0.0
C1644 C 0.62265 0.64398 0.76718 0.0
C1645 C 0.68421 0.67443 0.90119 0.0
C1646 C 0.57457 0.62478 0.88294 0.0
C1647 C 0.57612 0.59397 0.90153 0.0
C1648 C 0.59877 0.64582 0.85913 0.0
C1649 C 0.62473 0.63551 0.8533 0.0
C1650 C 0.6251 0.6036 0.86991 0.0
C1651 C 0.60096 0.5833 0.89418 0.0
C1652 C 0.59781 0.67983 0.84234 0.0
C1653 C 0.65198 0.59149 0.86367 0.0
H1654 H 0.67925 0.69075 0.74384 0.0
H1655 H 0.73195 0.7142 0.85735 0.0
H1656 H 0.61777 0.61744 0.77763 0.0
H1657 H 0.59966 0.64906 0.76927 0.0
H1658 H 0.62646 0.64945 0.73585 0.0
H1659 H 0.70805 0.69146 0.91483 0.0
H1660 H 0.66251 0.67915 0.90813 0.0
H1661 H 0.68242 0.649 0.91493 0.0
H1662 H 0.55544 0.63316 0.88855 0.0
H1663 H 0.60194 0.55929 0.90803 0.0
H1664 H 0.60005 0.68547 0.81058 0.0
H1665 H 0.61969 0.69807 0.85718 0.0
H1666 H 0.57417 0.68289 0.84626 0.0
H1667 H 0.65491 0.59666 0.83211 0.0
H1668 H 0.64606 0.56479 0.874 0.0
H1669 H 0.67669 0.6046 0.87997 0.0
C1670 C 0.44694 0.75696 0.96821 0.0
C1671 C 0.4141 0.74934 0.97643 0.0
C1672 C 0.46479 0.73527 0.98422 0.0
C1673 C 0.44978 0.7068 0.01041 0.0
C1674 C 0.42143 0.70463 0.02674 0.0
C1675 C 0.40355 0.7261 0.00924 0.0
C1676 C 0.49634 0.73988 0.96784 0.0
C1677 C 0.40645 0.67658 0.05772 0.0
C1678 C 0.44211 0.62791 0.97912 0.0
C1679 C 0.47235 0.62327 0.99818 0.0
C1680 C 0.43419 0.65463 0.98374 0.0
C1681 C 0.4563 0.67636 0.0098 0.0
C1682 C 0.48582 0.67047 0.03113 0.0
C1683 C 0.49403 0.64468 0.02402 0.0
C1684 C 0.40295 0.66034 0.95892 0.0
C1685 C 0.50964 0.69143 0.06072 0.0
H1686 H 0.45573 0.77611 0.94401 0.0
H1687 H 0.37878 0.72104 0.01706 0.0
H1688 H 0.51729 0.73934 0.99214 0.0
H1689 H 0.49174 0.71965 0.95138 0.0
H1690 H 0.50461 0.76349 0.94777 0.0
H1691 H 0.40032 0.686 0.08092 0.0
H1692 H 0.38233 0.65967 0.04455 0.0
H1693 H 0.42378 0.66262 0.07132 0.0
H1694 H 0.42532 0.61152 0.95906 0.0
H1695 H 0.51777 0.64168 0.03859 0.0
H1696 H 0.40949 0.68575 0.94298 0.0
H1697 H 0.38393 0.6568 0.97791 0.0
H1698 H 0.39095 0.64338 0.93695 0.0
H1699 H 0.5342 0.70504 0.04958 0.0
H1700 H 0.51506 0.67549 0.08845 0.0
H1701 H 0.49962 0.70911 0.06745 0.0
C1702 C 0.34297 0.36775 0.8097 0.0
C1703 C 0.35587 0.35696 0.78388 0.0
C1704 C 0.36399 0.39228 0.83172 0.0
C1705 C 0.3987 0.40631 0.82753 0.0
C1706 C 0.41105 0.39772 0.79855 0.0
C1707 C 0.38938 0.37291 0.77706 0.0
C1708 C 0.3497 0.4008 0.86201 0.0
C1709 C 0.44786 0.41244 0.79288 0.0
C1710 C 0.45912 0.47698 0.87924 0.0
C1711 C 0.47487 0.46016 0.91099 0.0
C1712 C 0.43312 0.45978 0.85231 0.0
C1713 C 0.42298 0.42517 0.85769 0.0
C1714 C 0.43765 0.40818 0.89119 0.0
C1715 C 0.46369 0.42597 0.91724 0.0
C1716 C 0.41803 0.47866 0.81703 0.0
C1717 C 0.42717 0.37124 0.89843 0.0
H1718 H 0.31675 0.35574 0.81426 0.0
H1719 H 0.39937 0.36434 0.75737 0.0
H1720 H 0.35803 0.38913 0.89167 0.0
H1721 H 0.35922 0.42763 0.86195 0.0
H1722 H 0.32157 0.39208 0.85698 0.0
H1723 H 0.45221 0.40714 0.76541 0.0
H1724 H 0.45701 0.43936 0.79204 0.0
H1725 H 0.46326 0.40216 0.81806 0.0
H1726 H 0.46843 0.50355 0.87426 0.0
H1727 H 0.47637 0.4132 0.94168 0.0
H1728 H 0.39002 0.46762 0.81237 0.0
H1729 H 0.42723 0.47755 0.79037 0.0
H1730 H 0.42505 0.50479 0.82005 0.0
H1731 H 0.3993 0.36013 0.89748 0.0
H1732 H 0.4394 0.36184 0.92726 0.0
H1733 H 0.43416 0.36289 0.87495 0.0
C1734 C 0.69719 0.39863 0.81765 0.0
C1735 C 0.71816 0.41653 0.78896 0.0
C1736 C 0.68743 0.41457 0.84108 0.0
C1737 C 0.69882 0.44927 0.83564 0.0
C1738 C 0.72219 0.46737 0.80904 0.0
C1739 C 0.73153 0.45081 0.786 0.0
C1740 C 0.66273 0.39426 0.86941 0.0
C1741 C 0.73541 0.50433 0.80276 0.0
C1742 C 0.63247 0.48219 0.84836 0.0
C1743 C 0.64265 0.48924 0.88687 0.0
C1744 C 0.65153 0.47078 0.83083 0.0
C1745 C 0.68166 0.46614 0.85231 0.0
C1746 C 0.69348 0.4755 0.89014 0.0
C1747 C 0.67402 0.48744 0.90676 0.0
C1748 C 0.63816 0.46172 0.79014 0.0
C1749 C 0.72556 0.47115 0.91392 0.0
H1750 H 0.68669 0.37217 0.8202 0.0
H1751 H 0.74843 0.46483 0.76459 0.0
H1752 H 0.67087 0.40318 0.89816 0.0
H1753 H 0.6375 0.39661 0.85754 0.0
H1754 H 0.66004 0.36792 0.87428 0.0
H1755 H 0.75775 0.51449 0.78684 0.0
H1756 H 0.71523 0.51367 0.78521 0.0
H1757 H 0.74248 0.51365 0.83121 0.0
H1758 H 0.6086 0.48413 0.83236 0.0
H1759 H 0.68257 0.49376 0.93601 0.0
H1760 H 0.63111 0.43486 0.79171 0.0
H1761 H 0.65801 0.47375 0.77071 0.0
H1762 H 0.61556 0.46881 0.77644 0.0
H1763 H 0.72184 0.44465 0.92242 0.0
H1764 H 0.73299 0.48245 0.94108 0.0
H1765 H 0.74666 0.482 0.89612 0.0
C1766 C 0.77385 0.42548 0.0907 0.0
C1767 C 0.76161 0.41726 0.12688 0.0
C1768 C 0.75171 0.42631 0.0551 0.0
C1769 C 0.71681 0.41905 0.05604 0.0
C1770 C 0.70426 0.4088 0.0926 0.0
C1771 C 0.72683 0.40862 0.12729 0.0
C1772 C 0.76605 0.43613 0.01692 0.0
C1773 C 0.66717 0.40009 0.09559 0.0
C1774 C 0.65879 0.46228 0.00471 0.0
C1775 C 0.63136 0.43619 0.99132 0.0
C1776 C 0.69061 0.45927 0.01811 0.0
C1777 C 0.69416 0.42843 0.02118 0.0
C1778 C 0.6682 0.40376 1.00201 0.0
C1779 C 0.63659 0.40782 0.98736 0.0
C1780 C 0.71829 0.48714 0.0358 0.0
C1781 C 0.672 0.37132 1.0024 0.0
H1782 H 0.80064 0.43143 0.09017 0.0
H1783 H 0.71715 0.40265 0.15505 0.0
H1784 H 0.77545 0.46322 0.00957 0.0
H1785 H 0.78786 0.42763 0.01954 0.0
H1786 H 0.74678 0.42611 0.99234 0.0
H1787 H 0.65124 0.38157 0.0766 0.0
H1788 H 0.66149 0.39003 0.1261 0.0
H1789 H 0.65959 0.42221 0.08566 0.0
H1790 H 0.65466 0.48408 0.00837 0.0
H1791 H 0.6153 0.38762 0.97699 0.0
H1792 H 0.7433 0.48937 0.02932 0.0
H1793 H 0.71909 0.48235 0.0682 0.0
H1794 H 0.71392 0.51085 0.02444 0.0
H1795 H 0.69876 0.37423 1.00201 0.0
H1796 H 0.6559 0.35974 0.97682 0.0
H1797 H 0.66383 0.35458 0.02958 0.0
C1798 C 0.68958 0.66617 0.21052 0.0
C1799 C 0.72428 0.68182 0.20981 0.0
C1800 C 0.67074 0.64256 0.18623 0.0
C1801 C 0.68721 0.63475 0.16069 0.0
C1802 C 0.72278 0.64875 0.16226 0.0
C1803 C 0.7409 0.67229 0.18679 0.0
C1804 C 0.63281 0.6282 0.18542 0.0
C1805 C 0.74136 0.64095 0.13581 0.0
C1806 C 0.63201 0.56591 0.10326 0.0
C1807 C 0.61927 0.58365 0.06958 0.0
C1808 C 0.65566 0.58221 0.1327 0.0
C1809 C 0.66663 0.61684 0.12797 0.0
C1810 C 0.65566 0.63478 0.09267 0.0
C1811 C 0.63214 0.61794 0.06394 0.0
C1812 C 0.66718 0.56238 0.16979 0.0
C1813 C 0.66705 0.67177 0.08618 0.0
H1814 H 0.67675 0.67399 0.22784 0.0
H1815 H 0.76794 0.68418 0.18683 0.0
H1816 H 0.62026 0.63902 0.15786 0.0
H1817 H 0.62388 0.60135 0.18579 0.0
H1818 H 0.62464 0.63312 0.21067 0.0
H1819 H 0.76915 0.64921 0.14545 0.0
H1820 H 0.73215 0.61426 0.13491 0.0
H1821 H 0.73651 0.65347 0.10543 0.0
H1822 H 0.62202 0.53937 0.10771 0.0
H1823 H 0.62258 0.63169 0.03767 0.0
H1824 H 0.65476 0.56301 0.19409 0.0
H1825 H 0.69492 0.57296 0.17848 0.0
H1826 H 0.66071 0.5364 0.1664 0.0
H1827 H 0.65729 0.67996 0.10745 0.0
H1828 H 0.65795 0.68198 0.056 0.0
H1829 H 0.69508 0.68227 0.0913 0.0
C1830 C 0.42811 0.66512 0.20051 0.0
C1831 C 0.40942 0.64228 0.22888 0.0
C1832 C 0.44415 0.65557 0.17659 0.0
C1833 C 0.44164 0.62225 0.18118 0.0
C1834 C 0.42312 0.59916 0.21009 0.0
C1835 C 0.40701 0.60936 0.23324 0.0
C1836 C 0.4645 0.68178 0.14751 0.0
C1837 C 0.42072 0.56367 0.21707 0.0
C1838 C 0.45384 0.585 0.0999 0.0
C1839 C 0.48824 0.58839 0.10902 0.0
C1840 C 0.43861 0.59686 0.12227 0.0
C1841 C 0.45792 0.61122 0.15572 0.0
C1842 C 0.49265 0.61436 0.16525 0.0
C1843 C 0.50754 0.60351 0.14133 0.0
C1844 C 0.40174 0.59351 0.10985 0.0
C1845 C 0.5141 0.62897 0.20087 0.0
H1846 H 0.43085 0.69075 0.19745 0.0
H1847 H 0.39242 0.59141 0.25482 0.0
H1848 H 0.48947 0.69503 0.16321 0.0
H1849 H 0.46886 0.67174 0.12379 0.0
H1850 H 0.45174 0.70008 0.13418 0.0
H1851 H 0.4056 0.55203 0.19123 0.0
H1852 H 0.44633 0.56183 0.22077 0.0
H1853 H 0.40863 0.54962 0.24346 0.0
H1854 H 0.43893 0.57386 0.0745 0.0
H1855 H 0.53422 0.60636 0.14832 0.0
H1856 H 0.39519 0.61241 0.11932 0.0
H1857 H 0.38585 0.56906 0.12306 0.0
H1858 H 0.39504 0.59523 0.07742 0.0
H1859 H 0.5178 0.65548 0.19621 0.0
H1860 H 0.53941 0.62605 0.20687 0.0
H1861 H 0.50115 0.61732 0.2272 0.0
C1862 C 0.39295 0.32101 0.19213 0.0
C1863 C 0.3659 0.33056 0.19464 0.0
C1864 C 0.41714 0.34049 0.16751 0.0
C1865 C 0.41332 0.36948 0.14391 0.0
C1866 C 0.38583 0.37907 0.14636 0.0
C1867 C 0.36273 0.35971 0.17229 0.0
C1868 C 0.44645 0.32981 0.16629 0.0
C1869 C 0.3802 0.40914 0.12071 0.0
C1870 C 0.48916 0.43502 0.10213 0.0
C1871 C 0.48491 0.42734 0.06444 0.0
C1872 C 0.46624 0.41615 0.12846 0.0
C1873 C 0.43791 0.38956 0.11636 0.0
C1874 C 0.43324 0.38204 0.07806 0.0
C1875 C 0.45704 0.40082 0.05269 0.0
C1876 C 0.47255 0.42443 0.16937 0.0
C1877 C 0.40269 0.35474 0.06344 0.0
H1878 H 0.3951 0.29828 0.20941 0.0
H1879 H 0.34126 0.36656 0.17378 0.0
H1880 H 0.44487 0.3242 0.13663 0.0
H1881 H 0.47074 0.34994 0.17191 0.0
H1882 H 0.44688 0.30777 0.18825 0.0
H1883 H 0.35766 0.41325 0.12636 0.0
H1884 H 0.40272 0.43114 0.12564 0.0
H1885 H 0.3767 0.40658 0.08932 0.0
H1886 H 0.51083 0.45544 0.11135 0.0
H1887 H 0.45348 0.39517 0.02332 0.0
H1888 H 0.47422 0.40284 0.19145 0.0
H1889 H 0.45109 0.4306 0.17442 0.0
H1890 H 0.49624 0.44538 0.17448 0.0
H1891 H 0.39916 0.3318 0.08485 0.0
H1892 H 0.40462 0.34984 0.03457 0.0
H1893 H 0.37976 0.36158 0.06018 0.0
C1894 C 0.8759 0.6721 0.60102 0.0
C1895 C 0.84514 0.67326 0.57828 0.0
C1896 C 0.89347 0.65366 0.59259 0.0
C1897 C 0.88036 0.6363 0.56024 0.0
C1898 C 0.84883 0.63641 0.5381 0.0
C1899 C 0.83158 0.65469 0.54741 0.0
C1900 C 0.92659 0.6535 0.61768 0.0
C1901 C 0.83414 0.61872 0.50311 0.0
C1902 C 0.94624 0.62297 0.51448 0.0
C1903 C 0.94211 0.59002 0.52904 0.0
C1904 C 0.92535 0.6379 0.5231 0.0
C1905 C 0.90061 0.61975 0.54816 0.0
C1906 C 0.89594 0.58617 0.56226 0.0
C1907 C 0.91649 0.57157 0.55205 0.0
C1908 C 0.93033 0.67334 0.50617 0.0
C1909 C 0.87019 0.56606 0.58939 0.0
H1910 H 0.88692 0.68648 0.6247 0.0
H1911 H 0.80756 0.65474 0.53001 0.0
H1912 H 0.92652 0.62799 0.62748 0.0
H1913 H 0.94768 0.66659 0.60013 0.0
H1914 H 0.93168 0.66547 0.64398 0.0
H1915 H 0.80699 0.61587 0.49368 0.0
H1916 H 0.84841 0.63315 0.47854 0.0
H1917 H 0.83676 0.59415 0.50929 0.0
H1918 H 0.96617 0.63717 0.49673 0.0
H1919 H 0.91374 0.54618 0.56376 0.0
H1920 H 0.93898 0.68831 0.5302 0.0
H1921 H 0.90592 0.67595 0.49058 0.0
H1922 H 0.94925 0.68339 0.48539 0.0
H1923 H 0.87662 0.57667 0.61693 0.0
H1924 H 0.86905 0.5401 0.59698 0.0
H1925 H 0.84468 0.56677 0.57563 0.0
C1926 C 0.36766 0.83675 0.70238 0.0
C1927 C 0.34585 0.80999 0.68417 0.0
C1928 C 0.39454 0.86073 0.68441 0.0
C1929 C 0.3991 0.85881 0.64641 0.0
C1930 C 0.37764 0.83131 0.62831 0.0
C1931 C 0.35114 0.80733 0.64731 0.0
C1932 C 0.4169 0.88921 0.7052 0.0
C1933 C 0.38149 0.82806 0.58797 0.0
C1934 C 0.4304 0.94262 0.58455 0.0
C1935 C 0.46497 0.94819 0.58668 0.0
C1936 C 0.40875 0.91307 0.60209 0.0
C1937 C 0.42184 0.88832 0.62339 0.0
C1938 C 0.45668 0.89329 0.62457 0.0
C1939 C 0.47784 0.92312 0.60579 0.0
C1940 C 0.37165 0.90842 0.59731 0.0
C1941 C 0.47185 0.86762 0.64643 0.0
H1942 H 0.36312 0.83947 0.73033 0.0
H1943 H 0.33393 0.78699 0.63284 0.0
H1944 H 0.44393 0.89249 0.70597 0.0
H1945 H 0.41273 0.91206 0.68878 0.0
H1946 H 0.41188 0.8858 0.73581 0.0
H1947 H 0.36764 0.80283 0.58127 0.0
H1948 H 0.37128 0.8452 0.56561 0.0
H1949 H 0.40859 0.83464 0.58524 0.0
H1950 H 0.4201 0.96149 0.56857 0.0
H1951 H 0.50451 0.92716 0.607 0.0
H1952 H 0.36149 0.89729 0.62542 0.0
H1953 H 0.35757 0.89147 0.5758 0.0
H1954 H 0.36672 0.9319 0.58644 0.0
H1955 H 0.47577 0.86835 0.67838 0.0
H1956 H 0.4967 0.87183 0.63762 0.0
H1957 H 0.45457 0.84278 0.64136 0.0
C1958 C 0.19185 0.29717 0.70054 0.0
C1959 C 0.22715 0.30565 0.70347 0.0
C1960 C 0.17458 0.31878 0.68008 0.0
C1961 C 0.19242 0.34936 0.65904 0.0
C1962 C 0.22809 0.35776 0.66081 0.0
C1963 C 0.24513 0.33658 0.68436 0.0
C1964 C 0.1373 0.30842 0.68274 0.0
C1965 C 0.24836 0.38915 0.63773 0.0
C1966 C 0.13367 0.3876 0.58148 0.0
C1967 C 0.13783 0.41611 0.59582 0.0
C1968 C 0.15186 0.36631 0.601 0.0
C1969 C 0.17409 0.37284 0.63673 0.0
C1970 C 0.17715 0.40109 0.652 0.0
C1971 C 0.15994 0.42267 0.63084 0.0
C1972 C 0.14652 0.33643 0.58347 0.0
C1973 C 0.19776 0.40885 0.69121 0.0
H1974 H 0.17748 0.27374 0.71581 0.0
H1975 H 0.27247 0.34427 0.68774 0.0
H1976 H 0.12673 0.3286 0.67267 0.0
H1977 H 0.12307 0.28848 0.66503 0.0
H1978 H 0.13276 0.29813 0.71359 0.0
H1979 H 0.27473 0.39027 0.6382 0.0
H1980 H 0.23597 0.39166 0.60675 0.0
H1981 H 0.24951 0.41038 0.65024 0.0
H1982 H 0.11683 0.38235 0.55434 0.0
H1983 H 0.16323 0.4445 0.64244 0.0
H1984 H 0.12771 0.31498 0.59831 0.0
H1985 H 0.17038 0.33099 0.58746 0.0
H1986 H 0.13631 0.33935 0.55173 0.0
H1987 H 0.20476 0.38802 0.70963 0.0
H1988 H 0.18342 0.41646 0.70799 0.0
H1989 H 0.22119 0.42997 0.68626 0.0
C1990 C 0.72496 0.16355 0.68939 0.0
C1991 C 0.73764 0.19685 0.67353 0.0
C1992 C 0.70387 0.13996 0.66596 0.0
C1993 C 0.69509 0.14965 0.62531 0.0
C1994 C 0.70796 0.18318 0.60886 0.0
C1995 C 0.72914 0.20637 0.63314 0.0
C1996 C 0.69056 0.10463 0.685 0.0
C1997 C 0.69918 0.19456 0.56569 0.0
C1998 C 0.66219 0.07971 0.56506 0.0
C1999 C 0.62697 0.07079 0.56323 0.0
C2000 C 0.68466 0.10631 0.58352 0.0
C2001 C 0.67173 0.12448 0.60072 0.0
C2002 C 0.63623 0.11639 0.59766 0.0
C2003 C 0.61437 0.08978 0.57898 0.0
C2004 C 0.72231 0.11418 0.58592 0.0
C2005 C 0.62128 0.13502 0.61555 0.0
H2006 H 0.73103 0.15576 0.72052 0.0
H2007 H 0.73907 0.23194 0.62047 0.0
H2008 H 0.66249 0.096 0.68126 0.0
H2009 H 0.69795 0.08896 0.67051 0.0
H2010 H 0.70016 0.10106 0.7169 0.0
H2011 H 0.71123 0.22142 0.5574 0.0
H2012 H 0.70738 0.18178 0.54795 0.0
H2013 H 0.67134 0.18822 0.55788 0.0
H2014 H 0.67231 0.06549 0.55279 0.0
H2015 H 0.58727 0.08344 0.57755 0.0
H2016 H 0.7334 0.10863 0.61691 0.0
H2017 H 0.73473 0.14066 0.5759 0.0
H2018 H 0.72833 0.09991 0.56794 0.0
H2019 H 0.62736 0.13052 0.64803 0.0
H2020 H 0.59333 0.12768 0.60762 0.0
H2021 H 0.63251 0.16174 0.60587 0.0
C2022 C 0.83963 0.32067 0.37546 0.0
C2023 C 0.84698 0.31846 0.33948 0.0
C2024 C 0.86014 0.34645 0.39626 0.0
C2025 C 0.88788 0.37125 0.3799 0.0
C2026 C 0.8954 0.36899 0.34353 0.0
C2027 C 0.87518 0.34236 0.3241 0.0
C2028 C 0.85182 0.34742 0.43544 0.0
C2029 C 0.92392 0.39538 0.32425 0.0
C2030 C 0.91874 0.45521 0.41198 0.0
C2031 C 0.94932 0.45555 0.43602 0.0
C2032 C 0.89852 0.42796 0.39349 0.0
C2033 C 0.90857 0.39997 0.40025 0.0
C2034 C 0.93887 0.39982 0.42564 0.0
C2035 C 0.95915 0.4278 0.44268 0.0
C2036 C 0.86698 0.42956 0.36569 0.0
C2037 C 0.95004 0.37021 0.43453 0.0
H2038 H 0.8177 0.30229 0.38724 0.0
H2039 H 0.88051 0.34116 0.29583 0.0
H2040 H 0.87455 0.34996 0.45805 0.0
H2041 H 0.84415 0.36906 0.43336 0.0
H2042 H 0.83102 0.32507 0.44543 0.0
H2043 H 0.92769 0.38899 0.29717 0.0
H2044 H 0.9183 0.41863 0.31639 0.0
H2045 H 0.94795 0.39991 0.34488 0.0
H2046 H 0.91126 0.47675 0.4065 0.0
H2047 H 0.98266 0.4279 0.46152 0.0
H2048 H 0.84459 0.40872 0.37478 0.0
H2049 H 0.86949 0.42749 0.33574 0.0
H2050 H 0.86223 0.45275 0.36431 0.0
H2051 H 0.92942 0.34816 0.44544 0.0
H2052 H 0.97308 0.37325 0.45679 0.0
H2053 H 0.95544 0.36564 0.40727 0.0
C2054 C 0.71138 0.8586 0.41282 0.0
C2055 C 0.7059 0.82818 0.4375 0.0
C2056 C 0.69675 0.88105 0.41697 0.0
C2057 C 0.67787 0.87401 0.44826 0.0
C2058 C 0.67422 0.84439 0.47504 0.0
C2059 C 0.68757 0.82167 0.46878 0.0
C2060 C 0.70107 0.91179 0.387 0.0
C2061 C 0.65493 0.83532 0.50957 0.0
C2062 C 0.65573 0.94372 0.47024 0.0
C2063 C 0.62036 0.93194 0.46172 0.0
C2064 C 0.67525 0.9257 0.46536 0.0
C2065 C 0.65886 0.89555 0.45061 0.0
C2066 C 0.62335 0.88502 0.43905 0.0
C2067 C 0.60458 0.90288 0.44554 0.0
C2068 C 0.71322 0.93972 0.47561 0.0
C2069 C 0.60484 0.85474 0.41988 0.0
H2070 H 0.72664 0.86485 0.3895 0.0
H2071 H 0.68256 0.79831 0.48795 0.0
H2072 H 0.67856 0.91968 0.3812 0.0
H2073 H 0.72334 0.93181 0.39815 0.0
H2074 H 0.70579 0.90834 0.35868 0.0
H2075 H 0.66982 0.82657 0.53652 0.0
H2076 H 0.64867 0.85577 0.51555 0.0
H2077 H 0.63111 0.81462 0.50418 0.0
H2078 H 0.66825 0.96679 0.48135 0.0
H2079 H 0.57728 0.89384 0.43783 0.0
H2080 H 0.72006 0.95158 0.50227 0.0
H2081 H 0.72351 0.95914 0.45127 0.0
H2082 H 0.72583 0.92116 0.48049 0.0
H2083 H 0.62003 0.85211 0.39966 0.0
H2084 H 0.58 0.85523 0.40303 0.0
H2085 H 0.59997 0.83276 0.44285 0.0
C2086 C 0.18579 0.68568 0.27906 0.0
C2087 C 0.21675 0.70588 0.29644 0.0
C2088 C 0.16416 0.65904 0.30133 0.0
C2089 C 0.17368 0.65186 0.34235 0.0
C2090 C 0.20525 0.67186 0.36015 0.0
C2091 C 0.22606 0.69914 0.33712 0.0
C2092 C 0.13071 0.63893 0.28091 0.0
C2093 C 0.2169 0.66461 0.40353 0.0
C2094 C 0.10498 0.60031 0.40729 0.0
C2095 C 0.10542 0.56858 0.4092 0.0
C2096 C 0.1269 0.62761 0.38556 0.0
C2097 C 0.15051 0.62327 0.36616 0.0
C2098 C 0.15073 0.59118 0.36797 0.0
C2099 C 0.1284 0.56451 0.38931 0.0
C2100 C 0.12417 0.66097 0.38253 0.0
C2101 C 0.17511 0.5845 0.34852 0.0
H2102 H 0.17789 0.69143 0.24782 0.0
H2103 H 0.24913 0.71554 0.35102 0.0
H2104 H 0.13003 0.61339 0.28337 0.0
H2105 H 0.10965 0.63804 0.29531 0.0
H2106 H 0.12618 0.64888 0.24926 0.0
H2107 H 0.24289 0.68111 0.41248 0.0
H2108 H 0.19943 0.66736 0.42063 0.0
H2109 H 0.21636 0.63885 0.41147 0.0
H2110 H 0.08728 0.60377 0.42241 0.0
H2111 H 0.12954 0.54028 0.39095 0.0
H2112 H 0.11872 0.67119 0.35117 0.0
H2113 H 0.14856 0.67805 0.39481 0.0
H2114 H 0.10394 0.66018 0.3983 0.0
H2115 H 0.18027 0.60122 0.32051 0.0
H2116 H 0.16554 0.5589 0.34244 0.0
H2117 H 0.1992 0.58791 0.36886 0.0
C2118 C 0.31997 0.18244 0.34031 0.0
C2119 C 0.33011 0.21063 0.31238 0.0
C2120 C 0.34251 0.16584 0.36075 0.0
C2121 C 0.37626 0.17661 0.3522 0.0
C2122 C 0.38679 0.20554 0.32416 0.0
C2123 C 0.36382 0.22228 0.30511 0.0
C2124 C 0.32906 0.13579 0.39025 0.0
C2125 C 0.42186 0.21883 0.31266 0.0
C2126 C 0.44318 0.14302 0.42144 0.0
C2127 C 0.43641 0.11304 0.40886 0.0
C2128 C 0.4245 0.16422 0.40304 0.0
C2129 C 0.39895 0.15604 0.37027 0.0
C2130 C 0.39373 0.12677 0.35599 0.0
C2131 C 0.41172 0.10547 0.37587 0.0
C2132 C 0.43155 0.19502 0.41938 0.0
C2133 C 0.36889 0.11759 0.31967 0.0
H2134 H 0.2939 0.17293 0.34588 0.0
H2135 H 0.37191 0.2437 0.2831 0.0
H2136 H 0.31561 0.11442 0.37467 0.0
H2137 H 0.3494 0.13024 0.41262 0.0
H2138 H 0.31033 0.13874 0.40538 0.0
H2139 H 0.42052 0.22642 0.28032 0.0
H2140 H 0.4367 0.24111 0.32628 0.0
H2141 H 0.43567 0.20109 0.3218 0.0
H2142 H 0.46224 0.14939 0.44663 0.0
H2143 H 0.40643 0.08268 0.36532 0.0
H2144 H 0.40794 0.19507 0.42736 0.0
H2145 H 0.44014 0.21669 0.39671 0.0
H2146 H 0.45125 0.19755 0.44564 0.0
H2147 H 0.34287 0.10648 0.3274 0.0
H2148 H 0.37398 0.09948 0.30672 0.0
H2149 H 0.3698 0.13951 0.29703 0.0
C2150 C 0.75946 0.86343 0.69293 0.0
C2151 C 0.75216 0.82931 0.69872 0.0
C2152 C 0.73544 0.8783 0.67297 0.0
C2153 C 0.70335 0.85916 0.65541 0.0
C2154 C 0.69583 0.82461 0.66048 0.0
C2155 C 0.71967 0.81006 0.68338 0.0
C2156 C 0.74479 0.91481 0.67097 0.0
C2157 C 0.66277 0.80297 0.64142 0.0
C2158 C 0.63084 0.89578 0.62348 0.0
C2159 C 0.63962 0.91633 0.58816 0.0
C2160 C 0.65062 0.87651 0.64543 0.0
C2161 C 0.67895 0.876 0.63069 0.0
C2162 C 0.68632 0.89516 0.59361 0.0
C2163 C 0.66762 0.91586 0.57395 0.0
C2164 C 0.64127 0.85788 0.685 0.0
C2165 C 0.71452 0.8949 0.57437 0.0
H2166 H 0.7841 0.87883 0.70506 0.0
H2167 H 0.71289 0.78367 0.68902 0.0
H2168 H 0.75375 0.92752 0.64248 0.0
H2169 H 0.72271 0.92134 0.67326 0.0
H2170 H 0.76551 0.92424 0.69473 0.0
H2171 H 0.66266 0.77766 0.64326 0.0
H2172 H 0.64184 0.80167 0.65624 0.0
H2173 H 0.65764 0.81336 0.61006 0.0
H2174 H 0.60956 0.89614 0.6352 0.0
H2175 H 0.67532 0.93206 0.54741 0.0
H2176 H 0.66205 0.85049 0.70431 0.0
H2177 H 0.61897 0.83557 0.68058 0.0
H2178 H 0.63372 0.87286 0.70045 0.0
H2179 H 0.72509 0.8752 0.58863 0.0
H2180 H 0.73517 0.91896 0.57426 0.0
H2181 H 0.70502 0.89158 0.54332 0.0
C2182 C 0.67837 0.19632 0.28467 0.0
C2183 C 0.71258 0.20561 0.30087 0.0
C2184 C 0.65323 0.17433 0.30696 0.0
C2185 C 0.66278 0.15976 0.34553 0.0
C2186 C 0.69741 0.16984 0.36225 0.0
C2187 C 0.72181 0.19296 0.33985 0.0
C2188 C 0.61663 0.16554 0.28851 0.0
C2189 C 0.70904 0.15442 0.40273 0.0
C2190 C 0.60012 0.10513 0.41615 0.0
C2191 C 0.59568 0.07374 0.40917 0.0
C2192 C 0.62085 0.13356 0.39474 0.0
C2193 C 0.63779 0.13056 0.36597 0.0
C2194 C 0.63248 0.099 0.35808 0.0
C2195 C 0.61142 0.0712 0.3794 0.0
C2196 C 0.62462 0.16676 0.40288 0.0
C2197 C 0.65019 0.09441 0.3281 0.0
H2198 H 0.67136 0.20578 0.25429 0.0
H2199 H 0.7484 0.19964 0.352 0.0
H2200 H 0.60748 0.14041 0.28116 0.0
H2201 H 0.60072 0.1658 0.30945 0.0
H2202 H 0.61301 0.18266 0.26117 0.0
H2203 H 0.73661 0.1659 0.4121 0.0
H2204 H 0.69498 0.15648 0.42457 0.0
H2205 H 0.70354 0.12794 0.40304 0.0
H2206 H 0.58787 0.10749 0.43877 0.0
H2207 H 0.60822 0.04725 0.37342 0.0
H2208 H 0.61259 0.17969 0.37679 0.0
H2209 H 0.65173 0.18198 0.40804 0.0
H2210 H 0.61259 0.16499 0.42867 0.0
H2211 H 0.64226 0.10639 0.29851 0.0
H2212 H 0.64489 0.06819 0.32688 0.0
H2213 H 0.67785 0.1063 0.33534 0.0
C2214 C 0.83116 0.69001 0.3023 0.0
C2215 C 0.84144 0.72126 0.31282 0.0
C2216 C 0.84839 0.66759 0.32043 0.0
C2217 C 0.87545 0.67554 0.35201 0.0
C2218 C 0.88456 0.70667 0.36389 0.0
C2219 C 0.86878 0.72947 0.34292 0.0
C2220 C 0.83808 0.63632 0.3036 0.0
C2221 C 0.91151 0.71687 0.39824 0.0
C2222 C 0.898 0.60148 0.41501 0.0
C2223 C 0.9319 0.6089 0.4103 0.0
C2224 C 0.87965 0.62288 0.39692 0.0
C2225 C 0.89484 0.65221 0.37173 0.0
C2226 C 0.92899 0.65933 0.36615 0.0
C2227 C 0.94723 0.63821 0.3863 0.0
C2228 C 0.8437 0.61346 0.40457 0.0
C2229 C 0.94669 0.68892 0.33843 0.0
H2230 H 0.81109 0.68386 0.27786 0.0
H2231 H 0.87781 0.75395 0.35042 0.0
H2232 H 0.85614 0.62272 0.31419 0.0
H2233 H 0.8127 0.62025 0.31108 0.0
H2234 H 0.83561 0.64184 0.27103 0.0
H2235 H 0.90416 0.73105 0.41504 0.0
H2236 H 0.91634 0.69575 0.41864 0.0
H2237 H 0.93539 0.7333 0.38713 0.0
H2238 H 0.88581 0.57893 0.43352 0.0
H2239 H 0.97324 0.64413 0.382 0.0
H2240 H 0.82609 0.60123 0.38032 0.0
H2241 H 0.83746 0.63524 0.40617 0.0
H2242 H 0.83904 0.59582 0.43215 0.0
H2243 H 0.92873 0.69781 0.31539 0.0
H2244 H 0.96403 0.68331 0.32379 0.0
H2245 H 0.96245 0.70893 0.35546 0.0
C2246 C 0.34457 0.81965 0.37355 0.0
C2247 C 0.33906 0.82957 0.33282 0.0
C2248 C 0.36498 0.84234 0.39876 0.0
C2249 C 0.38027 0.8756 0.38274 0.0
C2250 C 0.37485 0.88556 0.34165 0.0
C2251 C 0.3543 0.86254 0.31738 0.0
C2252 C 0.37017 0.83077 0.44242 0.0
C2253 C 0.39103 0.92059 0.32308 0.0
C2254 C 0.41037 0.94716 0.43938 0.0
C2255 C 0.44568 0.95513 0.44425 0.0
C2256 C 0.38858 0.92002 0.42158 0.0
C2257 C 0.40235 0.90035 0.40827 0.0
C2258 C 0.43782 0.9072 0.41502 0.0
C2259 C 0.45901 0.93443 0.43292 0.0
C2260 C 0.35089 0.91344 0.4152 0.0
C2261 C 0.4536 0.88686 0.40136 0.0
H2262 H 0.33281 0.79423 0.38573 0.0
H2263 H 0.35074 0.87046 0.286 0.0
H2264 H 0.39758 0.83639 0.45339 0.0
H2265 H 0.36057 0.84402 0.45798 0.0
H2266 H 0.35708 0.80403 0.45015 0.0
H2267 H 0.38438 0.92427 0.29059 0.0
H2268 H 0.38291 0.93722 0.33504 0.0
H2269 H 0.41899 0.92793 0.33035 0.0
H2270 H 0.3997 0.96267 0.44842 0.0
H2271 H 0.4862 0.94 0.43696 0.0
H2272 H 0.33714 0.88715 0.42472 0.0
H2273 H 0.34213 0.91923 0.38341 0.0
H2274 H 0.34391 0.92835 0.43136 0.0
H2275 H 0.44045 0.86038 0.4105 0.0
H2276 H 0.48096 0.8928 0.41304 0.0
H2277 H 0.45083 0.89137 0.36879 0.0
C2278 C 0.24599 0.39734 0.40897 0.0
C2279 C 0.24756 0.36681 0.42882 0.0
C2280 C 0.22483 0.41148 0.41873 0.0
C2281 C 0.20431 0.39446 0.44864 0.0
C2282 C 0.2058 0.3636 0.46865 0.0
C2283 C 0.22767 0.35035 0.45889 0.0
C2284 C 0.22397 0.44438 0.39657 0.0
C2285 C 0.18388 0.34439 0.50002 0.0
C2286 C 0.16497 0.44171 0.49185 0.0
C2287 C 0.1323 0.43397 0.4704 0.0
C2288 C 0.18856 0.42858 0.48572 0.0
C2289 C 0.17948 0.40777 0.45694 0.0
C2290 C 0.14644 0.39966 0.43561 0.0
C2291 C 0.12331 0.41263 0.44276 0.0
C2292 C 0.22327 0.43716 0.50977 0.0
C2293 C 0.13552 0.37747 0.40482 0.0
H2294 H 0.26155 0.41029 0.38596 0.0
H2295 H 0.2286 0.32664 0.47417 0.0
H2296 H 0.19831 0.4418 0.38008 0.0
H2297 H 0.2293 0.46166 0.41747 0.0
H2298 H 0.24263 0.45519 0.37549 0.0
H2299 H 0.18709 0.32026 0.51205 0.0
H2300 H 0.19041 0.35884 0.52426 0.0
H2301 H 0.15682 0.34025 0.48814 0.0
H2302 H 0.17211 0.45797 0.51343 0.0
H2303 H 0.0982 0.40644 0.42591 0.0
H2304 H 0.24283 0.45026 0.49011 0.0
H2305 H 0.22832 0.41451 0.52539 0.0
H2306 H 0.22609 0.45281 0.53178 0.0
H2307 H 0.15184 0.38843 0.3813 0.0
H2308 H 0.10874 0.37311 0.39123 0.0
H2309 H 0.1386 0.35349 0.41804 0.0
C2310 C 0.37668 0.17593 0.60371 0.0
C2311 C 0.35653 0.19039 0.57438 0.0
C2312 C 0.38907 0.15304 0.59585 0.0
C2313 C 0.38174 0.14485 0.55756 0.0
C2314 C 0.35979 0.15779 0.52857 0.0
C2315 C 0.34735 0.18027 0.53734 0.0
C2316 C 0.41137 0.13883 0.62806 0.0
C2317 C 0.35081 0.14907 0.48775 0.0
C2318 C 0.45292 0.12687 0.52936 0.0
C2319 C 0.44013 0.09278 0.53178 0.0
C2320 C 0.43337 0.14407 0.53574 0.0
C2321 C 0.40069 0.12659 0.54652 0.0
C2322 C 0.38728 0.09208 0.54818 0.0
C2323 C 0.40708 0.0756 0.54016 0.0
C2324 C 0.44819 0.18093 0.53219 0.0
C2325 C 0.35313 0.07225 0.56089 0.0
H2326 H 0.38404 0.18347 0.63245 0.0
H2327 H 0.33094 0.19046 0.51488 0.0
H2328 H 0.40351 0.11197 0.629 0.0
H2329 H 0.43795 0.14965 0.62201 0.0
H2330 H 0.41058 0.14375 0.65737 0.0
H2331 H 0.33193 0.15966 0.46917 0.0
H2332 H 0.374 0.15813 0.47357 0.0
H2333 H 0.34049 0.12211 0.48897 0.0
H2334 H 0.47853 0.14008 0.52289 0.0
H2335 H 0.39747 0.04912 0.54273 0.0
H2336 H 0.45254 0.18833 0.56147 0.0
H2337 H 0.43019 0.19225 0.51274 0.0
H2338 H 0.47264 0.19095 0.52028 0.0
H2339 H 0.35559 0.06937 0.59335 0.0
H2340 H 0.34333 0.04742 0.55236 0.0
H2341 H 0.33425 0.08468 0.54831 0.0
C2342 C 0.85253 0.32832 0.66378 0.0
C2343 C 0.86226 0.32105 0.70428 0.0
C2344 C 0.87311 0.35588 0.64087 0.0
C2345 C 0.90487 0.37567 0.65856 0.0
C2346 C 0.91482 0.36795 0.69941 0.0
C2347 C 0.89337 0.34106 0.7216 0.0
C2348 C 0.86101 0.36367 0.59769 0.0
C2349 C 0.94855 0.38769 0.71966 0.0
C2350 C 0.97211 0.42701 0.5918 0.0
C2351 C 0.97238 0.45886 0.59077 0.0
C2352 C 0.95059 0.3998 0.61402 0.0
C2353 C 0.92794 0.40434 0.63472 0.0
C2354 C 0.92854 0.43659 0.63391 0.0
C2355 C 0.95057 0.4632 0.61209 0.0
C2356 C 0.95281 0.36633 0.61625 0.0
C2357 C 0.90542 0.44364 0.65494 0.0
H2358 H 0.82927 0.31213 0.64991 0.0
H2359 H 0.90152 0.33499 0.75272 0.0
H2360 H 0.86194 0.38956 0.59032 0.0
H2361 H 0.87795 0.36083 0.57994 0.0
H2362 H 0.8348 0.34749 0.58897 0.0
H2363 H 0.95345 0.37724 0.75107 0.0
H2364 H 0.9693 0.38887 0.70451 0.0
H2365 H 0.94937 0.41317 0.7181 0.0
H2366 H 0.98901 0.42339 0.57562 0.0
H2367 H 0.95006 0.48757 0.61115 0.0
H2368 H 0.92824 0.3496 0.60388 0.0
H2369 H 0.95833 0.3557 0.64742 0.0
H2370 H 0.97278 0.3671 0.60008 0.0
H2371 H 0.88161 0.44251 0.6347 0.0
H2372 H 0.91669 0.46863 0.66301 0.0
H2373 H 0.8994 0.42585 0.682 0.0
C2374 C 0.22232 0.69973 0.64361 0.0
C2375 C 0.2379 0.69014 0.68097 0.0
C2376 C 0.20082 0.67631 0.62 0.0
C2377 C 0.1945 0.64254 0.63444 0.0
C2378 C 0.21037 0.63287 0.67225 0.0
C2379 C 0.23197 0.65684 0.69497 0.0
C2380 C 0.18474 0.68769 0.57973 0.0
C2381 C 0.20391 0.59719 0.68914 0.0
C2382 C 0.11381 0.58028 0.59184 0.0
C2383 C 0.12608 0.56715 0.56769 0.0
C2384 C 0.13575 0.60495 0.61349 0.0
C2385 C 0.17077 0.61724 0.61047 0.0
C2386 C 0.1832 0.60467 0.58542 0.0
C2387 C 0.16079 0.57961 0.5646 0.0
C2388 C 0.12153 0.61736 0.64028 0.0
C2389 C 0.22028 0.61748 0.58092 0.0
H2390 H 0.22721 0.72555 0.63272 0.0
H2391 H 0.24332 0.64947 0.72431 0.0
H2392 H 0.19131 0.67801 0.55713 0.0
H2393 H 0.15677 0.67798 0.57802 0.0
H2394 H 0.19295 0.71483 0.57247 0.0
H2395 H 0.21892 0.59383 0.71855 0.0
H2396 H 0.17664 0.58478 0.6918 0.0
H2397 H 0.21025 0.58484 0.66916 0.0
H2398 H 0.08709 0.57074 0.59458 0.0
H2399 H 0.17049 0.56981 0.54582 0.0
H2400 H 0.12759 0.64425 0.63234 0.0
H2401 H 0.13344 0.61252 0.67108 0.0
H2402 H 0.09364 0.60563 0.63888 0.0
H2403 H 0.22875 0.64443 0.5718 0.0
H2404 H 0.22568 0.60619 0.55896 0.0
H2405 H 0.23557 0.61246 0.60957 0.0
loop_
_geom_bond_atom_site_label_1
_geom_bond_atom_site_label_2
_geom_bond_distance
_geom_bond_site_symmetry_2
_ccdc_geom_bond_type
Eu0 N31 2.657 . S
Eu0 N38 2.609 . S
Eu0 O44 2.558 . S
Eu0 O45 2.612 . S
Eu0 O47 2.339 . S
Eu0 O48 2.563 . S
Eu0 O49 2.419 . S
Eu0 O51 2.380 . S
Eu0 O52 2.432 . S
Eu0 C64 2.848 . S
C1 C4 1.429 . S
C1 C5 1.411 . S
C1 N8 1.377 . S
C2 C4 1.420 . S
C2 C6 1.423 . S
C2 C14 1.392 . S
C3 C5 1.420 . S
C3 C6 1.351 . S
C3 H26 0.931 . S
C4 C1 1.429 . S
C4 C2 1.420 . S
C4 N12 1.362 . S
C5 C1 1.411 . S
C5 C3 1.420 . S
C5 C10 1.395 . S
C6 C2 1.423 . S
C6 C3 1.351 . S
C6 H18 0.930 . S
C7 C9 1.400 . S
C7 C10 1.386 . S
C7 H19 0.930 . S
N8 C1 1.377 . S
N8 C9 1.321 . S
N8 Eu11 2.609 . S
C9 C7 1.400 . S
C9 N8 1.321 . S
C9 H16 0.930 . S
C10 C5 1.395 . S
C10 C7 1.386 . S
C10 H29 0.930 . S
Eu11 N8 2.609 . S
Eu11 N12 2.657 . S
Eu11 O45 2.380 . S
Eu11 O46 2.432 . S
Eu11 O50 2.558 . S
Eu11 O51 2.612 . S
Eu11 O53 2.339 . S
Eu11 O54 2.563 . S
Eu11 O55 2.419 . S
Eu11 C75 2.848 . S
N12 C4 1.362 . S
N12 Eu11 2.657 . S
N12 C13 1.334 . S
C13 N12 1.334 . S
C13 C15 1.413 . S
C13 H20 0.929 . S
C14 C2 1.392 . S
C14 C15 1.367 . S
C14 H22 0.930 . S
C15 C13 1.413 . S
C15 C14 1.367 . S
C15 H17 0.930 . S
H16 C9 0.930 . S
H17 C15 0.930 . S
H18 C6 0.930 . S
H19 C7 0.930 . S
H20 C13 0.929 . S
H21 C35 0.930 . S
H22 C14 0.930 . S
H23 C41 0.930 . S
H24 C32 0.929 . S
H25 C39 0.930 . S
H26 C3 0.931 . S
H27 C33 0.930 . S
H28 C66 0.930 . S
H29 C10 0.930 . S
H30 C65 0.931 . S
N31 Eu0 2.657 . S
N31 C32 1.334 . S
N31 C36 1.362 . S
C32 H24 0.929 . S
C32 N31 1.334 . S
C32 C35 1.413 . S
C33 H27 0.930 . S
C33 C34 1.392 . S
C33 C35 1.367 . S
C34 C33 1.392 . S
C34 C36 1.420 . S
C34 C66 1.423 . S
C35 H21 0.930 . S
C35 C32 1.413 . S
C35 C33 1.367 . S
C36 N31 1.362 . S
C36 C34 1.420 . S
C36 C40 1.429 . S
H37 C42 0.930 . S
N38 Eu0 2.609 . S
N38 C40 1.377 . S
N38 C41 1.321 . S
C39 H25 0.930 . S
C39 C41 1.400 . S
C39 C42 1.386 . S
C40 C36 1.429 . S
C40 N38 1.377 . S
C40 C43 1.411 . S
C41 H23 0.930 . S
C41 N38 1.321 . S
C41 C39 1.400 . S
C42 H37 0.930 . S
C42 C39 1.386 . S
C42 C43 1.395 . S
C43 C40 1.411 . S
C43 C42 1.395 . S
C43 C65 1.420 . S
O44 Eu0 2.558 . S
O44 C64 1.257 . S
O45 Eu0 2.612 . S
O45 Eu11 2.380 . S
O45 C56 1.276 . S
O46 Eu11 2.432 . S
O46 C63 1.264 . S
O47 Eu0 2.339 . S
O47 C63 1.254 . S
O48 Eu0 2.563 . S
O48 C56 1.235 . S
O49 Eu0 2.419 . S
O49 C64 1.249 . S
O50 Eu11 2.558 . S
O50 C75 1.257 . S
O51 Eu0 2.380 . S
O51 Eu11 2.612 . S
O51 C67 1.276 . S
O52 Eu0 2.432 . S
O52 C74 1.264 . S
O53 Eu11 2.339 . S
O53 C74 1.254 . S
O54 Eu11 2.563 . S
O54 C67 1.235 . S
O55 Eu11 2.419 . S
O55 C75 1.249 . S
C56 O45 1.276 . S
C56 O48 1.235 . S
C57 C59 1.393 . S
C57 C61 1.395 . S
C57 C64 1.492 . S
C58 C59 1.392 . S
C58 C60 1.386 . S
C59 C57 1.393 . S
C59 C58 1.392 . S
C59 H76 0.930 . S
C60 C58 1.386 . S
C60 C62 1.395 . S
C60 H77 0.930 . S
C61 C57 1.395 . S
C61 C62 1.379 . S
C61 H78 0.930 . S
C62 C60 1.395 . S
C62 C61 1.379 . S
C62 H79 0.930 . S
C63 O46 1.264 . S
C63 O47 1.254 . S
C64 Eu0 2.848 . S
C64 O44 1.257 . S
C64 O49 1.249 . S
C64 C57 1.492 . S
C65 H30 0.931 . S
C65 C43 1.420 . S
C65 C66 1.351 . S
C66 H28 0.930 . S
C66 C34 1.423 . S
C66 C65 1.351 . S
C67 O51 1.276 . S
C67 O54 1.235 . S
C68 C69 1.393 . S
C68 C72 1.395 . S
C68 C75 1.492 . S
C69 C68 1.393 . S
C69 C70 1.392 . S
C69 H80 0.930 . S
C70 C69 1.392 . S
C70 C71 1.386 . S
C71 C70 1.386 . S
C71 C73 1.395 . S
C71 H81 0.930 . S
C72 C68 1.395 . S
C72 C73 1.379 . S
C72 H82 0.930 . S
C73 C71 1.395 . S
C73 C72 1.379 . S
C73 H83 0.930 . S
C74 O52 1.264 . S
C74 O53 1.254 . S
C75 Eu11 2.848 . S
C75 O50 1.257 . S
C75 O55 1.249 . S
C75 C68 1.492 . S
H76 C59 0.930 . S
H77 C60 0.930 . S
H78 C61 0.930 . S
H79 C62 0.930 . S
H80 C69 0.930 . S
H81 C71 0.930 . S
H82 C72 0.930 . S
H83 C73 0.930 . S
Eu84 N115 2.657 . S
Eu84 N122 2.609 . S
Eu84 O128 2.558 . S
Eu84 O129 2.612 . S
Eu84 O131 2.339 . S
Eu84 O132 2.563 . S
Eu84 O133 2.419 . S
Eu84 O135 2.380 . S
Eu84 O136 2.432 . S
Eu84 C148 2.848 . S
C85 C88 1.429 . S
C85 C89 1.411 . S
C85 N92 1.377 . S
C86 C88 1.420 . S
C86 C90 1.423 . S
C86 C98 1.392 . S
C87 C89 1.420 . S
C87 C90 1.351 . S
C87 H110 0.931 . S
C88 C85 1.429 . S
C88 C86 1.420 . S
C88 N96 1.362 . S
C89 C85 1.411 . S
C89 C87 1.420 . S
C89 C94 1.395 . S
C90 C86 1.423 . S
C90 C87 1.351 . S
C90 H102 0.930 . S
C91 C93 1.400 . S
C91 C94 1.386 . S
C91 H103 0.930 . S
N92 C85 1.377 . S
N92 C93 1.321 . S
N92 Eu95 2.609 . S
C93 C91 1.400 . S
C93 N92 1.321 . S
C93 H100 0.930 . S
C94 C89 1.395 . S
C94 C91 1.386 . S
C94 H113 0.930 . S
Eu95 N92 2.609 . S
Eu95 N96 2.657 . S
Eu95 O129 2.380 . S
Eu95 O130 2.432 . S
Eu95 O134 2.558 . S
Eu95 O135 2.612 . S
Eu95 O137 2.339 . S
Eu95 O138 2.563 . S
Eu95 O139 2.419 . S
Eu95 C159 2.848 . S
N96 C88 1.362 . S
N96 Eu95 2.657 . S
N96 C97 1.334 . S
C97 N96 1.334 . S
C97 C99 1.413 . S
C97 H104 0.929 . S
C98 C86 1.392 . S
C98 C99 1.367 . S
C98 H106 0.930 . S
C99 C97 1.413 . S
C99 C98 1.367 . S
C99 H101 0.930 . S
H100 C93 0.930 . S
H101 C99 0.930 . S
H102 C90 0.930 . S
H103 C91 0.930 . S
H104 C97 0.929 . S
H105 C119 0.930 . S
H106 C98 0.930 . S
H107 C125 0.930 . S
H108 C116 0.929 . S
H109 C123 0.930 . S
H110 C87 0.931 . S
H111 C117 0.930 . S
H112 C150 0.930 . S
H113 C94 0.930 . S
H114 C149 0.931 . S
N115 Eu84 2.657 . S
N115 C116 1.334 . S
N115 C120 1.362 . S
C116 H108 0.929 . S
C116 N115 1.334 . S
C116 C119 1.413 . S
C117 H111 0.930 . S
C117 C118 1.392 . S
C117 C119 1.367 . S
C118 C117 1.392 . S
C118 C120 1.420 . S
C118 C150 1.423 . S
C119 H105 0.930 . S
C119 C116 1.413 . S
C119 C117 1.367 . S
C120 N115 1.362 . S
C120 C118 1.420 . S
C120 C124 1.429 . S
H121 C126 0.930 . S
N122 Eu84 2.609 . S
N122 C124 1.377 . S
N122 C125 1.321 . S
C123 H109 0.930 . S
C123 C125 1.400 . S
C123 C126 1.386 . S
C124 C120 1.429 . S
C124 N122 1.377 . S
C124 C127 1.411 . S
C125 H107 0.930 . S
C125 N122 1.321 . S
C125 C123 1.400 . S
C126 H121 0.930 . S
C126 C123 1.386 . S
C126 C127 1.395 . S
C127 C124 1.411 . S
C127 C126 1.395 . S
C127 C149 1.420 . S
O128 Eu84 2.558 . S
O128 C148 1.257 . S
O129 Eu84 2.612 . S
O129 Eu95 2.380 . S
O129 C140 1.276 . S
O130 Eu95 2.432 . S
O130 C147 1.264 . S
O131 Eu84 2.339 . S
O131 C147 1.254 . S
O132 Eu84 2.563 . S
O132 C140 1.235 . S
O133 Eu84 2.419 . S
O133 C148 1.249 . S
O134 Eu95 2.558 . S
O134 C159 1.257 . S
O135 Eu84 2.380 . S
O135 Eu95 2.612 . S
O135 C151 1.276 . S
O136 Eu84 2.432 . S
O136 C158 1.264 . S
O137 Eu95 2.339 . S
O137 C158 1.254 . S
O138 Eu95 2.563 . S
O138 C151 1.235 . S
O139 Eu95 2.419 . S
O139 C159 1.249 . S
C140 O129 1.276 . S
C140 O132 1.235 . S
C141 C143 1.393 . S
C141 C145 1.395 . S
C141 C148 1.492 . S
C142 C143 1.392 . S
C142 C144 1.386 . S
C143 C141 1.393 . S
C143 C142 1.392 . S
C143 H160 0.930 . S
C144 C142 1.386 . S
C144 C146 1.395 . S
C144 H161 0.930 . S
C145 C141 1.395 . S
C145 C146 1.379 . S
C145 H162 0.930 . S
C146 C144 1.395 . S
C146 C145 1.379 . S
C146 H163 0.930 . S
C147 O130 1.264 . S
C147 O131 1.254 . S
C148 Eu84 2.848 . S
C148 O128 1.257 . S
C148 O133 1.249 . S
C148 C141 1.492 . S
C149 H114 0.931 . S
C149 C127 1.420 . S
C149 C150 1.351 . S
C150 H112 0.930 . S
C150 C118 1.423 . S
C150 C149 1.351 . S
C151 O135 1.276 . S
C151 O138 1.235 . S
C152 C153 1.393 . S
C152 C156 1.395 . S
C152 C159 1.492 . S
C153 C152 1.393 . S
C153 C154 1.392 . S
C153 H164 0.930 . S
C154 C153 1.392 . S
C154 C155 1.386 . S
C155 C154 1.386 . S
C155 C157 1.395 . S
C155 H165 0.930 . S
C156 C152 1.395 . S
C156 C157 1.379 . S
C156 H166 0.930 . S
C157 C155 1.395 . S
C157 C156 1.379 . S
C157 H167 0.930 . S
C158 O136 1.264 . S
C158 O137 1.254 . S
C159 Eu95 2.848 . S
C159 O134 1.257 . S
C159 O139 1.249 . S
C159 C152 1.492 . S
H160 C143 0.930 . S
H161 C144 0.930 . S
H162 C145 0.930 . S
H163 C146 0.930 . S
H164 C153 0.930 . S
H165 C155 0.930 . S
H166 C156 0.930 . S
H167 C157 0.930 . S
Eu168 N199 2.657 . S
Eu168 N206 2.609 . S
Eu168 O212 2.558 . S
Eu168 O213 2.612 . S
Eu168 O215 2.339 . S
Eu168 O216 2.563 . S
Eu168 O217 2.419 . S
Eu168 O219 2.380 . S
Eu168 O220 2.432 . S
Eu168 C232 2.848 . S
C169 C172 1.429 . S
C169 C173 1.411 . S
C169 N176 1.377 . S
C170 C172 1.420 . S
C170 C174 1.423 . S
C170 C182 1.392 . S
C171 C173 1.420 . S
C171 C174 1.351 . S
C171 H194 0.931 . S
C172 C169 1.429 . S
C172 C170 1.420 . S
C172 N180 1.362 . S
C173 C169 1.411 . S
C173 C171 1.420 . S
C173 C178 1.395 . S
C174 C170 1.423 . S
C174 C171 1.351 . S
C174 H186 0.930 . S
C175 C177 1.400 . S
C175 C178 1.386 . S
C175 H187 0.930 . S
N176 C169 1.377 . S
N176 C177 1.321 . S
N176 Eu179 2.609 . S
C177 C175 1.400 . S
C177 N176 1.321 . S
C177 H184 0.930 . S
C178 C173 1.395 . S
C178 C175 1.386 . S
C178 H197 0.930 . S
Eu179 N176 2.609 . S
Eu179 N180 2.657 . S
Eu179 O213 2.380 . S
Eu179 O214 2.432 . S
Eu179 O218 2.558 . S
Eu179 O219 2.612 . S
Eu179 O221 2.339 . S
Eu179 O222 2.563 . S
Eu179 O223 2.419 . S
Eu179 C243 2.848 . S
N180 C172 1.362 . S
N180 Eu179 2.657 . S
N180 C181 1.334 . S
C181 N180 1.334 . S
C181 C183 1.413 . S
C181 H188 0.929 . S
C182 C170 1.392 . S
C182 C183 1.367 . S
C182 H190 0.930 . S
C183 C181 1.413 . S
C183 C182 1.367 . S
C183 H185 0.930 . S
H184 C177 0.930 . S
H185 C183 0.930 . S
H186 C174 0.930 . S
H187 C175 0.930 . S
H188 C181 0.929 . S
H189 C203 0.930 . S
H190 C182 0.930 . S
H191 C209 0.930 . S
H192 C200 0.929 . S
H193 C207 0.930 . S
H194 C171 0.931 . S
H195 C201 0.930 . S
H196 C234 0.930 . S
H197 C178 0.930 . S
H198 C233 0.931 . S
N199 Eu168 2.657 . S
N199 C200 1.334 . S
N199 C204 1.362 . S
C200 H192 0.929 . S
C200 N199 1.334 . S
C200 C203 1.413 . S
C201 H195 0.930 . S
C201 C202 1.392 . S
C201 C203 1.367 . S
C202 C201 1.392 . S
C202 C204 1.420 . S
C202 C234 1.423 . S
C203 H189 0.930 . S
C203 C200 1.413 . S
C203 C201 1.367 . S
C204 N199 1.362 . S
C204 C202 1.420 . S
C204 C208 1.429 . S
H205 C210 0.930 . S
N206 Eu168 2.609 . S
N206 C208 1.377 . S
N206 C209 1.321 . S
C207 H193 0.930 . S
C207 C209 1.400 . S
C207 C210 1.386 . S
C208 C204 1.429 . S
C208 N206 1.377 . S
C208 C211 1.411 . S
C209 H191 0.930 . S
C209 N206 1.321 . S
C209 C207 1.400 . S
C210 H205 0.930 . S
C210 C207 1.386 . S
C210 C211 1.395 . S
C211 C208 1.411 . S
C211 C210 1.395 . S
C211 C233 1.420 . S
O212 Eu168 2.558 . S
O212 C232 1.257 . S
O213 Eu168 2.612 . S
O213 Eu179 2.380 . S
O213 C224 1.276 . S
O214 Eu179 2.432 . S
O214 C231 1.264 . S
O215 Eu168 2.339 . S
O215 C231 1.254 . S
O216 Eu168 2.563 . S
O216 C224 1.235 . S
O217 Eu168 2.419 . S
O217 C232 1.249 . S
O218 Eu179 2.558 . S
O218 C243 1.257 . S
O219 Eu168 2.380 . S
O219 Eu179 2.612 . S
O219 C235 1.276 . S
O220 Eu168 2.432 . S
O220 C242 1.264 . S
O221 Eu179 2.339 . S
O221 C242 1.254 . S
O222 Eu179 2.563 . S
O222 C235 1.235 . S
O223 Eu179 2.419 . S
O223 C243 1.249 . S
C224 O213 1.276 . S
C224 O216 1.235 . S
C225 C227 1.393 . S
C225 C229 1.395 . S
C225 C232 1.492 . S
C226 C227 1.392 . S
C226 C228 1.386 . S
C227 C225 1.393 . S
C227 C226 1.392 . S
C227 H244 0.930 . S
C228 C226 1.386 . S
C228 C230 1.395 . S
C228 H245 0.930 . S
C229 C225 1.395 . S
C229 C230 1.379 . S
C229 H246 0.930 . S
C230 C228 1.395 . S
C230 C229 1.379 . S
C230 H247 0.930 . S
C231 O214 1.264 . S
C231 O215 1.254 . S
C232 Eu168 2.848 . S
C232 O212 1.257 . S
C232 O217 1.249 . S
C232 C225 1.492 . S
C233 H198 0.931 . S
C233 C211 1.420 . S
C233 C234 1.351 . S
C234 H196 0.930 . S
C234 C202 1.423 . S
C234 C233 1.351 . S
C235 O219 1.276 . S
C235 O222 1.235 . S
C236 C237 1.393 . S
C236 C240 1.395 . S
C236 C243 1.492 . S
C237 C236 1.393 . S
C237 C238 1.392 . S
C237 H248 0.930 . S
C238 C237 1.392 . S
C238 C239 1.386 . S
C239 C238 1.386 . S
C239 C241 1.395 . S
C239 H249 0.930 . S
C240 C236 1.395 . S
C240 C241 1.379 . S
C240 H250 0.930 . S
C241 C239 1.395 . S
C241 C240 1.379 . S
C241 H251 0.930 . S
C242 O220 1.264 . S
C242 O221 1.254 . S
C243 Eu179 2.848 . S
C243 O218 1.257 . S
C243 O223 1.249 . S
C243 C236 1.492 . S
H244 C227 0.930 . S
H245 C228 0.930 . S
H246 C229 0.930 . S
H247 C230 0.930 . S
H248 C237 0.930 . S
H249 C239 0.930 . S
H250 C240 0.930 . S
H251 C241 0.930 . S
Eu252 N283 2.657 . S
Eu252 N290 2.609 . S
Eu252 O296 2.558 . S
Eu252 O297 2.612 . S
Eu252 O299 2.339 . S
Eu252 O300 2.563 . S
Eu252 O301 2.419 . S
Eu252 O303 2.380 . S
Eu252 O304 2.432 . S
Eu252 C316 2.848 . S
C253 C256 1.429 . S
C253 C257 1.411 . S
C253 N260 1.377 . S
C254 C256 1.420 . S
C254 C258 1.423 . S
C254 C266 1.392 . S
C255 C257 1.420 . S
C255 C258 1.351 . S
C255 H278 0.931 . S
C256 C253 1.429 . S
C256 C254 1.420 . S
C256 N264 1.362 . S
C257 C253 1.411 . S
C257 C255 1.420 . S
C257 C262 1.395 . S
C258 C254 1.423 . S
C258 C255 1.351 . S
C258 H270 0.930 . S
C259 C261 1.400 . S
C259 C262 1.386 . S
C259 H271 0.930 . S
N260 C253 1.377 . S
N260 C261 1.321 . S
N260 Eu263 2.609 . S
C261 C259 1.400 . S
C261 N260 1.321 . S
C261 H268 0.930 . S
C262 C257 1.395 . S
C262 C259 1.386 . S
C262 H281 0.930 . S
Eu263 N260 2.609 . S
Eu263 N264 2.657 . S
Eu263 O297 2.380 . S
Eu263 O298 2.432 . S
Eu263 O302 2.558 . S
Eu263 O303 2.612 . S
Eu263 O305 2.339 . S
Eu263 O306 2.563 . S
Eu263 O307 2.419 . S
Eu263 C327 2.848 . S
N264 C256 1.362 . S
N264 Eu263 2.657 . S
N264 C265 1.334 . S
C265 N264 1.334 . S
C265 C267 1.413 . S
C265 H272 0.929 . S
C266 C254 1.392 . S
C266 C267 1.367 . S
C266 H274 0.930 . S
C267 C265 1.413 . S
C267 C266 1.367 . S
C267 H269 0.930 . S
H268 C261 0.930 . S
H269 C267 0.930 . S
H270 C258 0.930 . S
H271 C259 0.930 . S
H272 C265 0.929 . S
H273 C287 0.930 . S
H274 C266 0.930 . S
H275 C293 0.930 . S
H276 C284 0.929 . S
H277 C291 0.930 . S
H278 C255 0.931 . S
H279 C285 0.930 . S
H280 C318 0.930 . S
H281 C262 0.930 . S
H282 C317 0.931 . S
N283 Eu252 2.657 . S
N283 C284 1.334 . S
N283 C288 1.362 . S
C284 H276 0.929 . S
C284 N283 1.334 . S
C284 C287 1.413 . S
C285 H279 0.930 . S
C285 C286 1.392 . S
C285 C287 1.367 . S
C286 C285 1.392 . S
C286 C288 1.420 . S
C286 C318 1.423 . S
C287 H273 0.930 . S
C287 C284 1.413 . S
C287 C285 1.367 . S
C288 N283 1.362 . S
C288 C286 1.420 . S
C288 C292 1.429 . S
H289 C294 0.930 . S
N290 Eu252 2.609 . S
N290 C292 1.377 . S
N290 C293 1.321 . S
C291 H277 0.930 . S
C291 C293 1.400 . S
C291 C294 1.386 . S
C292 C288 1.429 . S
C292 N290 1.377 . S
C292 C295 1.411 . S
C293 H275 0.930 . S
C293 N290 1.321 . S
C293 C291 1.400 . S
C294 H289 0.930 . S
C294 C291 1.386 . S
C294 C295 1.395 . S
C295 C292 1.411 . S
C295 C294 1.395 . S
C295 C317 1.420 . S
O296 Eu252 2.558 . S
O296 C316 1.257 . S
O297 Eu252 2.612 . S
O297 Eu263 2.380 . S
O297 C308 1.276 . S
O298 Eu263 2.432 . S
O298 C315 1.264 . S
O299 Eu252 2.339 . S
O299 C315 1.254 . S
O300 Eu252 2.563 . S
O300 C308 1.235 . S
O301 Eu252 2.419 . S
O301 C316 1.249 . S
O302 Eu263 2.558 . S
O302 C327 1.257 . S
O303 Eu252 2.380 . S
O303 Eu263 2.612 . S
O303 C319 1.276 . S
O304 Eu252 2.432 . S
O304 C326 1.264 . S
O305 Eu263 2.339 . S
O305 C326 1.254 . S
O306 Eu263 2.563 . S
O306 C319 1.235 . S
O307 Eu263 2.419 . S
O307 C327 1.249 . S
C308 O297 1.276 . S
C308 O300 1.235 . S
C309 C311 1.393 . S
C309 C313 1.395 . S
C309 C316 1.492 . S
C310 C311 1.392 . S
C310 C312 1.386 . S
C311 C309 1.393 . S
C311 C310 1.392 . S
C311 H328 0.930 . S
C312 C310 1.386 . S
C312 C314 1.395 . S
C312 H329 0.930 . S
C313 C309 1.395 . S
C313 C314 1.379 . S
C313 H330 0.930 . S
C314 C312 1.395 . S
C314 C313 1.379 . S
C314 H331 0.930 . S
C315 O298 1.264 . S
C315 O299 1.254 . S
C316 Eu252 2.848 . S
C316 O296 1.257 . S
C316 O301 1.249 . S
C316 C309 1.492 . S
C317 H282 0.931 . S
C317 C295 1.420 . S
C317 C318 1.351 . S
C318 H280 0.930 . S
C318 C286 1.423 . S
C318 C317 1.351 . S
C319 O303 1.276 . S
C319 O306 1.235 . S
C320 C321 1.393 . S
C320 C324 1.395 . S
C320 C327 1.492 . S
C321 C320 1.393 . S
C321 C322 1.392 . S
C321 H332 0.930 . S
C322 C321 1.392 . S
C322 C323 1.386 . S
C323 C322 1.386 . S
C323 C325 1.395 . S
C323 H333 0.930 . S
C324 C320 1.395 . S
C324 C325 1.379 . S
C324 H334 0.930 . S
C325 C323 1.395 . S
C325 C324 1.379 . S
C325 H335 0.930 . S
C326 O304 1.264 . S
C326 O305 1.254 . S
C327 Eu263 2.848 . S
C327 O302 1.257 . S
C327 O307 1.249 . S
C327 C320 1.492 . S
H328 C311 0.930 . S
H329 C312 0.930 . S
H330 C313 0.930 . S
H331 C314 0.930 . S
H332 C321 0.930 . S
H333 C323 0.930 . S
H334 C324 0.930 . S
H335 C325 0.930 . S
Eu336 N367 2.657 . S
Eu336 N374 2.609 . S
Eu336 O380 2.558 . S
Eu336 O381 2.612 . S
Eu336 O383 2.339 . S
Eu336 O384 2.563 . S
Eu336 O385 2.419 . S
Eu336 O387 2.380 . S
Eu336 O388 2.432 . S
Eu336 C400 2.848 . S
C337 C340 1.429 . S
C337 C341 1.411 . S
C337 N344 1.377 . S
C338 C340 1.420 . S
C338 C342 1.423 . S
C338 C350 1.392 . S
C339 C341 1.420 . S
C339 C342 1.351 . S
C339 H362 0.931 . S
C340 C337 1.429 . S
C340 C338 1.420 . S
C340 N348 1.362 . S
C341 C337 1.411 . S
C341 C339 1.420 . S
C341 C346 1.395 . S
C342 C338 1.423 . S
C342 C339 1.351 . S
C342 H354 0.930 . S
C343 C345 1.400 . S
C343 C346 1.386 . S
C343 H355 0.930 . S
N344 C337 1.377 . S
N344 C345 1.321 . S
N344 Eu347 2.609 . S
C345 C343 1.400 . S
C345 N344 1.321 . S
C345 H352 0.930 . S
C346 C341 1.395 . S
C346 C343 1.386 . S
C346 H365 0.930 . S
Eu347 N344 2.609 . S
Eu347 N348 2.657 . S
Eu347 O381 2.380 . S
Eu347 O382 2.432 . S
Eu347 O386 2.558 . S
Eu347 O387 2.612 . S
Eu347 O389 2.339 . S
Eu347 O390 2.563 . S
Eu347 O391 2.419 . S
Eu347 C411 2.848 . S
N348 C340 1.362 . S
N348 Eu347 2.657 . S
N348 C349 1.334 . S
C349 N348 1.334 . S
C349 C351 1.413 . S
C349 H356 0.929 . S
C350 C338 1.392 . S
C350 C351 1.367 . S
C350 H358 0.930 . S
C351 C349 1.413 . S
C351 C350 1.367 . S
C351 H353 0.930 . S
H352 C345 0.930 . S
H353 C351 0.930 . S
H354 C342 0.930 . S
H355 C343 0.930 . S
H356 C349 0.929 . S
H357 C371 0.930 . S
H358 C350 0.930 . S
H359 C377 0.930 . S
H360 C368 0.929 . S
H361 C375 0.930 . S
H362 C339 0.931 . S
H363 C369 0.930 . S
H364 C402 0.930 . S
H365 C346 0.930 . S
H366 C401 0.931 . S
N367 Eu336 2.657 . S
N367 C368 1.334 . S
N367 C372 1.362 . S
C368 H360 0.929 . S
C368 N367 1.334 . S
C368 C371 1.413 . S
C369 H363 0.930 . S
C369 C370 1.392 . S
C369 C371 1.367 . S
C370 C369 1.392 . S
C370 C372 1.420 . S
C370 C402 1.423 . S
C371 H357 0.930 . S
C371 C368 1.413 . S
C371 C369 1.367 . S
C372 N367 1.362 . S
C372 C370 1.420 . S
C372 C376 1.429 . S
H373 C378 0.930 . S
N374 Eu336 2.609 . S
N374 C376 1.377 . S
N374 C377 1.321 . S
C375 H361 0.930 . S
C375 C377 1.400 . S
C375 C378 1.386 . S
C376 C372 1.429 . S
C376 N374 1.377 . S
C376 C379 1.411 . S
C377 H359 0.930 . S
C377 N374 1.321 . S
C377 C375 1.400 . S
C378 H373 0.930 . S
C378 C375 1.386 . S
C378 C379 1.395 . S
C379 C376 1.411 . S
C379 C378 1.395 . S
C379 C401 1.420 . S
O380 Eu336 2.558 . S
O380 C400 1.257 . S
O381 Eu336 2.612 . S
O381 Eu347 2.380 . S
O381 C392 1.276 . S
O382 Eu347 2.432 . S
O382 C399 1.264 . S
O383 Eu336 2.339 . S
O383 C399 1.254 . S
O384 Eu336 2.563 . S
O384 C392 1.235 . S
O385 Eu336 2.419 . S
O385 C400 1.249 . S
O386 Eu347 2.558 . S
O386 C411 1.257 . S
O387 Eu336 2.380 . S
O387 Eu347 2.612 . S
O387 C403 1.276 . S
O388 Eu336 2.432 . S
O388 C410 1.264 . S
O389 Eu347 2.339 . S
O389 C410 1.254 . S
O390 Eu347 2.563 . S
O390 C403 1.235 . S
O391 Eu347 2.419 . S
O391 C411 1.249 . S
C392 O381 1.276 . S
C392 O384 1.235 . S
C393 C395 1.393 . S
C393 C397 1.395 . S
C393 C400 1.492 . S
C394 C395 1.392 . S
C394 C396 1.386 . S
C395 C393 1.393 . S
C395 C394 1.392 . S
C395 H412 0.930 . S
C396 C394 1.386 . S
C396 C398 1.395 . S
C396 H413 0.930 . S
C397 C393 1.395 . S
C397 C398 1.379 . S
C397 H414 0.930 . S
C398 C396 1.395 . S
C398 C397 1.379 . S
C398 H415 0.930 . S
C399 O382 1.264 . S
C399 O383 1.254 . S
C400 Eu336 2.848 . S
C400 O380 1.257 . S
C400 O385 1.249 . S
C400 C393 1.492 . S
C401 H366 0.931 . S
C401 C379 1.420 . S
C401 C402 1.351 . S
C402 H364 0.930 . S
C402 C370 1.423 . S
C402 C401 1.351 . S
C403 O387 1.276 . S
C403 O390 1.235 . S
C404 C405 1.393 . S
C404 C408 1.395 . S
C404 C411 1.492 . S
C405 C404 1.393 . S
C405 C406 1.392 . S
C405 H416 0.930 . S
C406 C405 1.392 . S
C406 C407 1.386 . S
C407 C406 1.386 . S
C407 C409 1.395 . S
C407 H417 0.930 . S
C408 C404 1.395 . S
C408 C409 1.379 . S
C408 H418 0.930 . S
C409 C407 1.395 . S
C409 C408 1.379 . S
C409 H419 0.930 . S
C410 O388 1.264 . S
C410 O389 1.254 . S
C411 Eu347 2.848 . S
C411 O386 1.257 . S
C411 O391 1.249 . S
C411 C404 1.492 . S
H412 C395 0.930 . S
H413 C396 0.930 . S
H414 C397 0.930 . S
H415 C398 0.930 . S
H416 C405 0.930 . S
H417 C407 0.930 . S
H418 C408 0.930 . S
H419 C409 0.930 . S
Eu420 N451 2.657 . S
Eu420 N458 2.609 . S
Eu420 O464 2.558 . S
Eu420 O465 2.612 . S
Eu420 O467 2.339 . S
Eu420 O468 2.563 . S
Eu420 O469 2.419 . S
Eu420 O471 2.380 . S
Eu420 O472 2.432 . S
Eu420 C484 2.848 . S
C421 C424 1.429 . S
C421 C425 1.411 . S
C421 N428 1.377 . S
C422 C424 1.420 . S
C422 C426 1.423 . S
C422 C434 1.392 . S
C423 C425 1.420 . S
C423 C426 1.351 . S
C423 H446 0.931 . S
C424 C421 1.429 . S
C424 C422 1.420 . S
C424 N432 1.362 . S
C425 C421 1.411 . S
C425 C423 1.420 . S
C425 C430 1.395 . S
C426 C422 1.423 . S
C426 C423 1.351 . S
C426 H438 0.930 . S
C427 C429 1.400 . S
C427 C430 1.386 . S
C427 H439 0.930 . S
N428 C421 1.377 . S
N428 C429 1.321 . S
N428 Eu431 2.609 . S
C429 C427 1.400 . S
C429 N428 1.321 . S
C429 H436 0.930 . S
C430 C425 1.395 . S
C430 C427 1.386 . S
C430 H449 0.930 . S
Eu431 N428 2.609 . S
Eu431 N432 2.657 . S
Eu431 O465 2.380 . S
Eu431 O466 2.432 . S
Eu431 O470 2.558 . S
Eu431 O471 2.612 . S
Eu431 O473 2.339 . S
Eu431 O474 2.563 . S
Eu431 O475 2.419 . S
Eu431 C495 2.848 . S
N432 C424 1.362 . S
N432 Eu431 2.657 . S
N432 C433 1.334 . S
C433 N432 1.334 . S
C433 C435 1.413 . S
C433 H440 0.929 . S
C434 C422 1.392 . S
C434 C435 1.367 . S
C434 H442 0.930 . S
C435 C433 1.413 . S
C435 C434 1.367 . S
C435 H437 0.930 . S
H436 C429 0.930 . S
H437 C435 0.930 . S
H438 C426 0.930 . S
H439 C427 0.930 . S
H440 C433 0.929 . S
H441 C455 0.930 . S
H442 C434 0.930 . S
H443 C461 0.930 . S
H444 C452 0.929 . S
H445 C459 0.930 . S
H446 C423 0.931 . S
H447 C453 0.930 . S
H448 C486 0.930 . S
H449 C430 0.930 . S
H450 C485 0.931 . S
N451 Eu420 2.657 . S
N451 C452 1.334 . S
N451 C456 1.362 . S
C452 H444 0.929 . S
C452 N451 1.334 . S
C452 C455 1.413 . S
C453 H447 0.930 . S
C453 C454 1.392 . S
C453 C455 1.367 . S
C454 C453 1.392 . S
C454 C456 1.420 . S
C454 C486 1.423 . S
C455 H441 0.930 . S
C455 C452 1.413 . S
C455 C453 1.367 . S
C456 N451 1.362 . S
C456 C454 1.420 . S
C456 C460 1.429 . S
H457 C462 0.930 . S
N458 Eu420 2.609 . S
N458 C460 1.377 . S
N458 C461 1.321 . S
C459 H445 0.930 . S
C459 C461 1.400 . S
C459 C462 1.386 . S
C460 C456 1.429 . S
C460 N458 1.377 . S
C460 C463 1.411 . S
C461 H443 0.930 . S
C461 N458 1.321 . S
C461 C459 1.400 . S
C462 H457 0.930 . S
C462 C459 1.386 . S
C462 C463 1.395 . S
C463 C460 1.411 . S
C463 C462 1.395 . S
C463 C485 1.420 . S
O464 Eu420 2.558 . S
O464 C484 1.257 . S
O465 Eu420 2.612 . S
O465 Eu431 2.380 . S
O465 C476 1.276 . S
O466 Eu431 2.432 . S
O466 C483 1.264 . S
O467 Eu420 2.339 . S
O467 C483 1.254 . S
O468 Eu420 2.563 . S
O468 C476 1.235 . S
O469 Eu420 2.419 . S
O469 C484 1.249 . S
O470 Eu431 2.558 . S
O470 C495 1.257 . S
O471 Eu420 2.380 . S
O471 Eu431 2.612 . S
O471 C487 1.276 . S
O472 Eu420 2.432 . S
O472 C494 1.264 . S
O473 Eu431 2.339 . S
O473 C494 1.254 . S
O474 Eu431 2.563 . S
O474 C487 1.235 . S
O475 Eu431 2.419 . S
O475 C495 1.249 . S
C476 O465 1.276 . S
C476 O468 1.235 . S
C477 C479 1.393 . S
C477 C481 1.395 . S
C477 C484 1.492 . S
C478 C479 1.392 . S
C478 C480 1.386 . S
C479 C477 1.393 . S
C479 C478 1.392 . S
C479 H496 0.930 . S
C480 C478 1.386 . S
C480 C482 1.395 . S
C480 H497 0.930 . S
C481 C477 1.395 . S
C481 C482 1.379 . S
C481 H498 0.930 . S
C482 C480 1.395 . S
C482 C481 1.379 . S
C482 H499 0.930 . S
C483 O466 1.264 . S
C483 O467 1.254 . S
C484 Eu420 2.848 . S
C484 O464 1.257 . S
C484 O469 1.249 . S
C484 C477 1.492 . S
C485 H450 0.931 . S
C485 C463 1.420 . S
C485 C486 1.351 . S
C486 H448 0.930 . S
C486 C454 1.423 . S
C486 C485 1.351 . S
C487 O471 1.276 . S
C487 O474 1.235 . S
C488 C489 1.393 . S
C488 C492 1.395 . S
C488 C495 1.492 . S
C489 C488 1.393 . S
C489 C490 1.392 . S
C489 H500 0.930 . S
C490 C489 1.392 . S
C490 C491 1.386 . S
C491 C490 1.386 . S
C491 C493 1.395 . S
C491 H501 0.930 . S
C492 C488 1.395 . S
C492 C493 1.379 . S
C492 H502 0.930 . S
C493 C491 1.395 . S
C493 C492 1.379 . S
C493 H503 0.930 . S
C494 O472 1.264 . S
C494 O473 1.254 . S
C495 Eu431 2.848 . S
C495 O470 1.257 . S
C495 O475 1.249 . S
C495 C488 1.492 . S
H496 C479 0.930 . S
H497 C480 0.930 . S
H498 C481 0.930 . S
H499 C482 0.930 . S
H500 C489 0.930 . S
H501 C491 0.930 . S
H502 C492 0.930 . S
H503 C493 0.930 . S
Eu504 N535 2.657 . S
Eu504 N542 2.609 . S
Eu504 O548 2.558 . S
Eu504 O549 2.612 . S
Eu504 O551 2.339 . S
Eu504 O552 2.563 . S
Eu504 O553 2.419 . S
Eu504 O555 2.380 . S
Eu504 O556 2.432 . S
Eu504 C568 2.848 . S
C505 C508 1.429 . S
C505 C509 1.411 . S
C505 N512 1.377 . S
C506 C508 1.420 . S
C506 C510 1.423 . S
C506 C518 1.392 . S
C507 C509 1.420 . S
C507 C510 1.351 . S
C507 H530 0.931 . S
C508 C505 1.429 . S
C508 C506 1.420 . S
C508 N516 1.362 . S
C509 C505 1.411 . S
C509 C507 1.420 . S
C509 C514 1.395 . S
C510 C506 1.423 . S
C510 C507 1.351 . S
C510 H522 0.930 . S
C511 C513 1.400 . S
C511 C514 1.386 . S
C511 H523 0.930 . S
N512 C505 1.377 . S
N512 C513 1.321 . S
N512 Eu515 2.609 . S
C513 C511 1.400 . S
C513 N512 1.321 . S
C513 H520 0.930 . S
C514 C509 1.395 . S
C514 C511 1.386 . S
C514 H533 0.930 . S
Eu515 N512 2.609 . S
Eu515 N516 2.657 . S
Eu515 O549 2.380 . S
Eu515 O550 2.432 . S
Eu515 O554 2.558 . S
Eu515 O555 2.612 . S
Eu515 O557 2.339 . S
Eu515 O558 2.563 . S
Eu515 O559 2.419 . S
Eu515 C579 2.848 . S
N516 C508 1.362 . S
N516 Eu515 2.657 . S
N516 C517 1.334 . S
C517 N516 1.334 . S
C517 C519 1.413 . S
C517 H524 0.929 . S
C518 C506 1.392 . S
C518 C519 1.367 . S
C518 H526 0.930 . S
C519 C517 1.413 . S
C519 C518 1.367 . S
C519 H521 0.930 . S
H520 C513 0.930 . S
H521 C519 0.930 . S
H522 C510 0.930 . S
H523 C511 0.930 . S
H524 C517 0.929 . S
H525 C539 0.930 . S
H526 C518 0.930 . S
H527 C545 0.930 . S
H528 C536 0.929 . S
H529 C543 0.930 . S
H530 C507 0.931 . S
H531 C537 0.930 . S
H532 C570 0.930 . S
H533 C514 0.930 . S
H534 C569 0.931 . S
N535 Eu504 2.657 . S
N535 C536 1.334 . S
N535 C540 1.362 . S
C536 H528 0.929 . S
C536 N535 1.334 . S
C536 C539 1.413 . S
C537 H531 0.930 . S
C537 C538 1.392 . S
C537 C539 1.367 . S
C538 C537 1.392 . S
C538 C540 1.420 . S
C538 C570 1.423 . S
C539 H525 0.930 . S
C539 C536 1.413 . S
C539 C537 1.367 . S
C540 N535 1.362 . S
C540 C538 1.420 . S
C540 C544 1.429 . S
H541 C546 0.930 . S
N542 Eu504 2.609 . S
N542 C544 1.377 . S
N542 C545 1.321 . S
C543 H529 0.930 . S
C543 C545 1.400 . S
C543 C546 1.386 . S
C544 C540 1.429 . S
C544 N542 1.377 . S
C544 C547 1.411 . S
C545 H527 0.930 . S
C545 N542 1.321 . S
C545 C543 1.400 . S
C546 H541 0.930 . S
C546 C543 1.386 . S
C546 C547 1.395 . S
C547 C544 1.411 . S
C547 C546 1.395 . S
C547 C569 1.420 . S
O548 Eu504 2.558 . S
O548 C568 1.257 . S
O549 Eu504 2.612 . S
O549 Eu515 2.380 . S
O549 C560 1.276 . S
O550 Eu515 2.432 . S
O550 C567 1.264 . S
O551 Eu504 2.339 . S
O551 C567 1.254 . S
O552 Eu504 2.563 . S
O552 C560 1.235 . S
O553 Eu504 2.419 . S
O553 C568 1.249 . S
O554 Eu515 2.558 . S
O554 C579 1.257 . S
O555 Eu504 2.380 . S
O555 Eu515 2.612 . S
O555 C571 1.276 . S
O556 Eu504 2.432 . S
O556 C578 1.264 . S
O557 Eu515 2.339 . S
O557 C578 1.254 . S
O558 Eu515 2.563 . S
O558 C571 1.235 . S
O559 Eu515 2.419 . S
O559 C579 1.249 . S
C560 O549 1.276 . S
C560 O552 1.235 . S
C561 C563 1.393 . S
C561 C565 1.395 . S
C561 C568 1.492 . S
C562 C563 1.392 . S
C562 C564 1.386 . S
C563 C561 1.393 . S
C563 C562 1.392 . S
C563 H580 0.930 . S
C564 C562 1.386 . S
C564 C566 1.395 . S
C564 H581 0.930 . S
C565 C561 1.395 . S
C565 C566 1.379 . S
C565 H582 0.930 . S
C566 C564 1.395 . S
C566 C565 1.379 . S
C566 H583 0.930 . S
C567 O550 1.264 . S
C567 O551 1.254 . S
C568 Eu504 2.848 . S
C568 O548 1.257 . S
C568 O553 1.249 . S
C568 C561 1.492 . S
C569 H534 0.931 . S
C569 C547 1.420 . S
C569 C570 1.351 . S
C570 H532 0.930 . S
C570 C538 1.423 . S
C570 C569 1.351 . S
C571 O555 1.276 . S
C571 O558 1.235 . S
C572 C573 1.393 . S
C572 C576 1.395 . S
C572 C579 1.492 . S
C573 C572 1.393 . S
C573 C574 1.392 . S
C573 H584 0.930 . S
C574 C573 1.392 . S
C574 C575 1.386 . S
C575 C574 1.386 . S
C575 C577 1.395 . S
C575 H585 0.930 . S
C576 C572 1.395 . S
C576 C577 1.379 . S
C576 H586 0.930 . S
C577 C575 1.395 . S
C577 C576 1.379 . S
C577 H587 0.930 . S
C578 O556 1.264 . S
C578 O557 1.254 . S
C579 Eu515 2.848 . S
C579 O554 1.257 . S
C579 O559 1.249 . S
C579 C572 1.492 . S
H580 C563 0.930 . S
H581 C564 0.930 . S
H582 C565 0.930 . S
H583 C566 0.930 . S
H584 C573 0.930 . S
H585 C575 0.930 . S
H586 C576 0.930 . S
H587 C577 0.930 . S
Eu588 N619 2.657 . S
Eu588 N626 2.609 . S
Eu588 O632 2.558 . S
Eu588 O633 2.612 . S
Eu588 O635 2.339 . S
Eu588 O636 2.563 . S
Eu588 O637 2.419 . S
Eu588 O639 2.380 . S
Eu588 O640 2.432 . S
Eu588 C652 2.848 . S
C589 C592 1.429 . S
C589 C593 1.411 . S
C589 N596 1.377 . S
C590 C592 1.420 . S
C590 C594 1.423 . S
C590 C602 1.392 . S
C591 C593 1.420 . S
C591 C594 1.351 . S
C591 H614 0.931 . S
C592 C589 1.429 . S
C592 C590 1.420 . S
C592 N600 1.362 . S
C593 C589 1.411 . S
C593 C591 1.420 . S
C593 C598 1.395 . S
C594 C590 1.423 . S
C594 C591 1.351 . S
C594 H606 0.930 . S
C595 C597 1.400 . S
C595 C598 1.386 . S
C595 H607 0.930 . S
N596 C589 1.377 . S
N596 C597 1.321 . S
N596 Eu599 2.609 . S
C597 C595 1.400 . S
C597 N596 1.321 . S
C597 H604 0.930 . S
C598 C593 1.395 . S
C598 C595 1.386 . S
C598 H617 0.930 . S
Eu599 N596 2.609 . S
Eu599 N600 2.657 . S
Eu599 O633 2.380 . S
Eu599 O634 2.432 . S
Eu599 O638 2.558 . S
Eu599 O639 2.612 . S
Eu599 O641 2.339 . S
Eu599 O642 2.563 . S
Eu599 O643 2.419 . S
Eu599 C663 2.848 . S
N600 C592 1.362 . S
N600 Eu599 2.657 . S
N600 C601 1.334 . S
C601 N600 1.334 . S
C601 C603 1.413 . S
C601 H608 0.929 . S
C602 C590 1.392 . S
C602 C603 1.367 . S
C602 H610 0.930 . S
C603 C601 1.413 . S
C603 C602 1.367 . S
C603 H605 0.930 . S
H604 C597 0.930 . S
H605 C603 0.930 . S
H606 C594 0.930 . S
H607 C595 0.930 . S
H608 C601 0.929 . S
H609 C623 0.930 . S
H610 C602 0.930 . S
H611 C629 0.930 . S
H612 C620 0.929 . S
H613 C627 0.930 . S
H614 C591 0.931 . S
H615 C621 0.930 . S
H616 C654 0.930 . S
H617 C598 0.930 . S
H618 C653 0.931 . S
N619 Eu588 2.657 . S
N619 C620 1.334 . S
N619 C624 1.362 . S
C620 H612 0.929 . S
C620 N619 1.334 . S
C620 C623 1.413 . S
C621 H615 0.930 . S
C621 C622 1.392 . S
C621 C623 1.367 . S
C622 C621 1.392 . S
C622 C624 1.420 . S
C622 C654 1.423 . S
C623 H609 0.930 . S
C623 C620 1.413 . S
C623 C621 1.367 . S
C624 N619 1.362 . S
C624 C622 1.420 . S
C624 C628 1.429 . S
H625 C630 0.930 . S
N626 Eu588 2.609 . S
N626 C628 1.377 . S
N626 C629 1.321 . S
C627 H613 0.930 . S
C627 C629 1.400 . S
C627 C630 1.386 . S
C628 C624 1.429 . S
C628 N626 1.377 . S
C628 C631 1.411 . S
C629 H611 0.930 . S
C629 N626 1.321 . S
C629 C627 1.400 . S
C630 H625 0.930 . S
C630 C627 1.386 . S
C630 C631 1.395 . S
C631 C628 1.411 . S
C631 C630 1.395 . S
C631 C653 1.420 . S
O632 Eu588 2.558 . S
O632 C652 1.257 . S
O633 Eu588 2.612 . S
O633 Eu599 2.380 . S
O633 C644 1.276 . S
O634 Eu599 2.432 . S
O634 C651 1.264 . S
O635 Eu588 2.339 . S
O635 C651 1.254 . S
O636 Eu588 2.563 . S
O636 C644 1.235 . S
O637 Eu588 2.419 . S
O637 C652 1.249 . S
O638 Eu599 2.558 . S
O638 C663 1.257 . S
O639 Eu588 2.380 . S
O639 Eu599 2.612 . S
O639 C655 1.276 . S
O640 Eu588 2.432 . S
O640 C662 1.264 . S
O641 Eu599 2.339 . S
O641 C662 1.254 . S
O642 Eu599 2.563 . S
O642 C655 1.235 . S
O643 Eu599 2.419 . S
O643 C663 1.249 . S
C644 O633 1.276 . S
C644 O636 1.235 . S
C645 C647 1.393 . S
C645 C649 1.395 . S
C645 C652 1.492 . S
C646 C647 1.392 . S
C646 C648 1.386 . S
C647 C645 1.393 . S
C647 C646 1.392 . S
C647 H664 0.930 . S
C648 C646 1.386 . S
C648 C650 1.395 . S
C648 H665 0.930 . S
C649 C645 1.395 . S
C649 C650 1.379 . S
C649 H666 0.930 . S
C650 C648 1.395 . S
C650 C649 1.379 . S
C650 H667 0.930 . S
C651 O634 1.264 . S
C651 O635 1.254 . S
C652 Eu588 2.848 . S
C652 O632 1.257 . S
C652 O637 1.249 . S
C652 C645 1.492 . S
C653 H618 0.931 . S
C653 C631 1.420 . S
C653 C654 1.351 . S
C654 H616 0.930 . S
C654 C622 1.423 . S
C654 C653 1.351 . S
C655 O639 1.276 . S
C655 O642 1.235 . S
C656 C657 1.393 . S
C656 C660 1.395 . S
C656 C663 1.492 . S
C657 C656 1.393 . S
C657 C658 1.392 . S
C657 H668 0.930 . S
C658 C657 1.392 . S
C658 C659 1.386 . S
C659 C658 1.386 . S
C659 C661 1.395 . S
C659 H669 0.930 . S
C660 C656 1.395 . S
C660 C661 1.379 . S
C660 H670 0.930 . S
C661 C659 1.395 . S
C661 C660 1.379 . S
C661 H671 0.930 . S
C662 O640 1.264 . S
C662 O641 1.254 . S
C663 Eu599 2.848 . S
C663 O638 1.257 . S
C663 O643 1.249 . S
C663 C656 1.492 . S
H664 C647 0.930 . S
H665 C648 0.930 . S
H666 C649 0.930 . S
H667 C650 0.930 . S
H668 C657 0.930 . S
H669 C659 0.930 . S
H670 C660 0.930 . S
H671 C661 0.930 . S
Co672 O675 2.042 . S
Co672 O682 2.264 . S
Co672 O701 2.286 . S
Co672 O702 2.069 . S
Co672 O704 2.015 1_455 S
Co673 O675 2.122 . S
Co673 O681 2.073 . S
Co673 O682 2.327 . S
Co673 O683 1.976 1_455 S
Co674 O675 2.086 1_545 S
Co674 O677 2.088 1_455 S
Co674 O684 2.108 1_445 S
Co674 O685 2.147 . S
Co674 O689 2.115 . S
Co674 O703 2.139 1_445 S
O675 Co672 2.042 . S
O675 Co673 2.122 . S
O675 Co674 2.086 1_565 S
O675 H676 0.980 . S
H676 O675 0.980 . S
O677 Co674 2.088 1_655 S
O677 Co678 2.042 . S
O677 Co679 2.122 . S
O677 H680 0.980 . S
Co678 O677 2.042 . S
Co678 O686 2.286 . S
Co678 O687 2.069 . S
Co678 O688 2.015 1_655 S
Co678 O691 2.264 . S
Co679 O677 2.122 . S
Co679 O690 1.976 1_655 S
Co679 O691 2.327 . S
Co679 O692 2.073 . S
H680 O677 0.980 . S
O681 Co673 2.073 . S
O681 C696 1.245 . S
O682 Co672 2.264 . S
O682 Co673 2.327 . S
O682 C696 1.257 . S
O683 Co673 1.976 1_655 S
O683 C695 1.251 . S
O684 Co674 2.108 1_665 S
O684 C695 1.274 . S
O685 Co674 2.147 . S
O685 C698 1.246 . S
O686 Co678 2.286 . S
O686 C697 1.259 . S
O687 Co678 2.069 . S
O687 C697 1.289 . S
O688 Co678 2.015 1_455 S
O688 C698 1.257 . S
O689 Co674 2.115 . S
O689 C699 1.274 . S
O690 Co679 1.976 1_455 S
O690 C699 1.251 . S
O691 Co678 2.264 . S
O691 Co679 2.327 . S
O691 C700 1.257 . S
O692 Co679 2.073 . S
O692 C700 1.245 . S
C693 O701 1.259 . S
C693 O702 1.289 . S
C694 O703 1.246 . S
C694 O704 1.257 . S
C695 O683 1.251 . S
C695 O684 1.274 . S
C696 O681 1.245 . S
C696 O682 1.257 . S
C697 O686 1.259 . S
C697 O687 1.289 . S
C698 O685 1.246 . S
C698 O688 1.257 . S
C699 O689 1.274 . S
C699 O690 1.251 . S
C700 O691 1.257 . S
C700 O692 1.245 . S
O701 Co672 2.286 . S
O701 C693 1.259 . S
O702 Co672 2.069 . S
O702 C693 1.289 . S
O703 Co674 2.139 1_665 S
O703 C694 1.246 . S
O704 Co672 2.015 1_655 S
O704 C694 1.257 . S
Co705 O708 2.042 1_556 S
Co705 O715 2.264 1_556 S
Co705 O734 2.286 . S
Co705 O735 2.069 . S
Co705 O737 2.015 . S
Co706 O708 2.122 . S
Co706 O714 2.073 . S
Co706 O715 2.327 . S
Co706 O716 1.976 . S
Co707 O708 2.082 1_545 S
Co707 O710 2.092 1_554 S
Co707 O717 2.110 1_545 S
Co707 O718 2.146 . S
Co707 O722 2.112 1_554 S
Co707 O736 2.141 1_544 S
O708 Co705 2.042 1_554 S
O708 Co706 2.122 . S
O708 Co707 2.082 1_565 S
O708 H709 0.980 . S
H709 O708 0.980 . S
O710 Co707 2.092 1_556 S
O710 Co711 2.042 1_556 S
O710 Co712 2.122 . S
O710 H713 0.980 . S
Co711 O710 2.042 1_554 S
Co711 O719 2.286 . S
Co711 O720 2.069 . S
Co711 O721 2.015 . S
Co711 O724 2.264 1_554 S
Co712 O710 2.122 . S
Co712 O723 1.976 . S
Co712 O724 2.327 . S
Co712 O725 2.073 . S
H713 O710 0.980 . S
O714 Co706 2.073 . S
O714 C729 1.245 . S
O715 Co705 2.264 1_554 S
O715 Co706 2.327 . S
O715 C729 1.257 . S
O716 Co706 1.976 . S
O716 C728 1.251 . S
O717 Co707 2.110 1_565 S
O717 C728 1.274 . S
O718 Co707 2.146 . S
O718 C731 1.246 . S
O719 Co711 2.286 . S
O719 C730 1.259 . S
O720 Co711 2.069 . S
O720 C730 1.289 . S
O721 Co711 2.015 . S
O721 C731 1.257 . S
O722 Co707 2.112 1_556 S
O722 C732 1.274 . S
O723 Co712 1.976 . S
O723 C732 1.251 . S
O724 Co711 2.264 1_556 S
O724 Co712 2.327 . S
O724 C733 1.257 . S
O725 Co712 2.073 . S
O725 C733 1.245 . S
C726 O734 1.259 . S
C726 O735 1.289 . S
C727 O736 1.246 . S
C727 O737 1.257 . S
C728 O716 1.251 . S
C728 O717 1.274 . S
C729 O714 1.245 . S
C729 O715 1.257 . S
C730 O719 1.259 . S
C730 O720 1.289 . S
C731 O718 1.246 . S
C731 O721 1.257 . S
C732 O722 1.274 . S
C732 O723 1.251 . S
C733 O724 1.257 . S
C733 O725 1.245 . S
O734 Co705 2.286 . S
O734 C726 1.259 . S
O735 Co705 2.069 . S
O735 C726 1.289 . S
O736 Co707 2.141 1_566 S
O736 C727 1.246 . S
O737 Co705 2.015 . S
O737 C727 1.257 . S
Co738 O741 2.042 1_556 S
Co738 O748 2.264 1_556 S
Co738 O767 2.286 . S
Co738 O768 2.069 . S
Co738 O770 2.015 1_455 S
Co739 O741 2.122 . S
Co739 O747 2.073 . S
Co739 O748 2.327 . S
Co739 O749 1.976 1_455 S
Co740 O741 2.091 . S
Co740 O743 2.083 1_454 S
Co740 O750 2.109 1_455 S
Co740 O751 2.145 . S
Co740 O755 2.114 1_554 S
Co740 O769 2.142 1_454 S
O741 Co738 2.042 1_554 S
O741 Co739 2.122 . S
O741 Co740 2.091 . S
O741 H742 0.980 . S
H742 O741 0.980 . S
O743 Co740 2.083 1_656 S
O743 Co744 2.042 1_556 S
O743 Co745 2.122 . S
O743 H746 0.980 . S
Co744 O743 2.042 1_554 S
Co744 O752 2.286 . S
Co744 O753 2.069 . S
Co744 O754 2.015 1_655 S
Co744 O757 2.264 1_554 S
Co745 O743 2.122 . S
Co745 O756 1.976 1_655 S
Co745 O757 2.327 . S
Co745 O758 2.073 . S
H746 O743 0.980 . S
O747 Co739 2.073 . S
O747 C762 1.245 . S
O748 Co738 2.264 1_554 S
O748 Co739 2.327 . S
O748 C762 1.257 . S
O749 Co739 1.976 1_655 S
O749 C761 1.251 . S
O750 Co740 2.109 1_655 S
O750 C761 1.274 . S
O751 Co740 2.145 . S
O751 C764 1.246 . S
O752 Co744 2.286 . S
O752 C763 1.259 . S
O753 Co744 2.069 . S
O753 C763 1.289 . S
O754 Co744 2.015 1_455 S
O754 C764 1.257 . S
O755 Co740 2.114 1_556 S
O755 C765 1.274 . S
O756 Co745 1.976 1_455 S
O756 C765 1.251 . S
O757 Co744 2.264 1_556 S
O757 Co745 2.327 . S
O757 C766 1.257 . S
O758 Co745 2.073 . S
O758 C766 1.245 . S
C759 O767 1.259 . S
C759 O768 1.289 . S
C760 O769 1.246 . S
C760 O770 1.257 . S
C761 O749 1.251 . S
C761 O750 1.274 . S
C762 O747 1.245 . S
C762 O748 1.257 . S
C763 O752 1.259 . S
C763 O753 1.289 . S
C764 O751 1.246 . S
C764 O754 1.257 . S
C765 O755 1.274 . S
C765 O756 1.251 . S
C766 O757 1.257 . S
C766 O758 1.245 . S
O767 Co738 2.286 . S
O767 C759 1.259 . S
O768 Co738 2.069 . S
O768 C759 1.289 . S
O769 Co740 2.142 1_656 S
O769 C760 1.246 . S
O770 Co738 2.015 1_655 S
O770 C760 1.257 . S
Co771 O774 2.042 1_556 S
Co771 O781 2.264 1_556 S
Co771 O800 2.286 . S
Co771 O801 2.069 . S
Co771 O803 2.015 . S
Co772 O774 2.122 . S
Co772 O780 2.073 . S
Co772 O781 2.327 . S
Co772 O782 1.976 . S
Co773 O774 2.087 . S
Co773 O776 2.087 1_554 S
Co773 O783 2.111 . S
Co773 O784 2.143 . S
Co773 O788 2.111 1_554 S
Co773 O802 2.143 1_554 S
O774 Co771 2.042 1_554 S
O774 Co772 2.122 . S
O774 Co773 2.087 . S
O774 H775 0.980 . S
H775 O774 0.980 . S
O776 Co773 2.087 1_556 S
O776 Co777 2.042 1_556 S
O776 Co778 2.122 . S
O776 H779 0.980 . S
Co777 O776 2.042 1_554 S
Co777 O785 2.286 . S
Co777 O786 2.069 . S
Co777 O787 2.015 . S
Co777 O790 2.264 1_554 S
Co778 O776 2.122 . S
Co778 O789 1.976 . S
Co778 O790 2.327 . S
Co778 O791 2.073 . S
H779 O776 0.980 . S
O780 Co772 2.073 . S
O780 C795 1.245 . S
O781 Co771 2.264 1_554 S
O781 Co772 2.327 . S
O781 C795 1.257 . S
O782 Co772 1.976 . S
O782 C794 1.251 . S
O783 Co773 2.111 . S
O783 C794 1.274 . S
O784 Co773 2.143 . S
O784 C797 1.246 . S
O785 Co777 2.286 . S
O785 C796 1.259 . S
O786 Co777 2.069 . S
O786 C796 1.289 . S
O787 Co777 2.015 . S
O787 C797 1.257 . S
O788 Co773 2.111 1_556 S
O788 C798 1.274 . S
O789 Co778 1.976 . S
O789 C798 1.251 . S
O790 Co777 2.264 1_556 S
O790 Co778 2.327 . S
O790 C799 1.257 . S
O791 Co778 2.073 . S
O791 C799 1.245 . S
C792 O800 1.259 . S
C792 O801 1.289 . S
C793 O802 1.246 . S
C793 O803 1.257 . S
C794 O782 1.251 . S
C794 O783 1.274 . S
C795 O780 1.245 . S
C795 O781 1.257 . S
C796 O785 1.259 . S
C796 O786 1.289 . S
C797 O784 1.246 . S
C797 O787 1.257 . S
C798 O788 1.274 . S
C798 O789 1.251 . S
C799 O790 1.257 . S
C799 O791 1.245 . S
O800 Co771 2.286 . S
O800 C792 1.259 . S
O801 Co771 2.069 . S
O801 C792 1.289 . S
O802 Co773 2.143 1_556 S
O802 C793 1.246 . S
O803 Co771 2.015 . S
O803 C793 1.257 . S
Co804 O807 2.042 . S
Co804 O814 2.264 . S
Co804 O833 2.286 . S
Co804 O834 2.069 . S
Co804 O836 2.015 . S
Co805 O807 2.122 . S
Co805 O813 2.073 . S
Co805 O814 2.327 . S
Co805 O815 1.976 . S
Co806 O807 2.091 . S
Co806 O809 2.083 1_455 S
Co806 O816 2.112 . S
Co806 O817 2.141 1_455 S
Co806 O821 2.110 1_455 S
Co806 O835 2.145 . S
O807 Co804 2.042 . S
O807 Co805 2.122 . S
O807 Co806 2.091 . S
O807 H808 0.980 . S
H808 O807 0.980 . S
O809 Co806 2.083 1_655 S
O809 Co810 2.042 . S
O809 Co811 2.122 . S
O809 H812 0.980 . S
Co810 O809 2.042 . S
Co810 O818 2.286 . S
Co810 O819 2.069 . S
Co810 O820 2.015 . S
Co810 O823 2.264 . S
Co811 O809 2.122 . S
Co811 O822 1.976 . S
Co811 O823 2.327 . S
Co811 O824 2.073 . S
H812 O809 0.980 . S
O813 Co805 2.073 . S
O813 C828 1.245 . S
O814 Co804 2.264 . S
O814 Co805 2.327 . S
O814 C828 1.257 . S
O815 Co805 1.976 . S
O815 C827 1.251 . S
O816 Co806 2.112 . S
O816 C827 1.274 . S
O817 Co806 2.141 1_655 S
O817 C830 1.246 . S
O818 Co810 2.286 . S
O818 C829 1.259 . S
O819 Co810 2.069 . S
O819 C829 1.289 . S
O820 Co810 2.015 . S
O820 C830 1.257 . S
O821 Co806 2.110 1_655 S
O821 C831 1.274 . S
O822 Co811 1.976 . S
O822 C831 1.251 . S
O823 Co810 2.264 . S
O823 Co811 2.327 . S
O823 C832 1.257 . S
O824 Co811 2.073 . S
O824 C832 1.245 . S
C825 O833 1.259 . S
C825 O834 1.289 . S
C826 O835 1.246 . S
C826 O836 1.257 . S
C827 O815 1.251 . S
C827 O816 1.274 . S
C828 O813 1.245 . S
C828 O814 1.257 . S
C829 O818 1.259 . S
C829 O819 1.289 . S
C830 O817 1.246 . S
C830 O820 1.257 . S
C831 O821 1.274 . S
C831 O822 1.251 . S
C832 O823 1.257 . S
C832 O824 1.245 . S
O833 Co804 2.286 . S
O833 C825 1.259 . S
O834 Co804 2.069 . S
O834 C825 1.289 . S
O835 Co806 2.145 . S
O835 C826 1.246 . S
O836 Co804 2.015 . S
O836 C826 1.257 . S
Co837 O840 2.042 . S
Co837 O847 2.264 . S
Co837 O866 2.286 . S
Co837 O867 2.069 . S
Co837 O869 2.015 1_565 S
Co838 O840 2.122 . S
Co838 O846 2.073 . S
Co838 O847 2.327 . S
Co838 O848 1.976 1_565 S
Co839 O840 2.082 1_545 S
Co839 O842 2.092 . S
Co839 O849 2.114 . S
Co839 O850 2.142 1_545 S
Co839 O854 2.109 1_545 S
Co839 O868 2.145 . S
O840 Co837 2.042 . S
O840 Co838 2.122 . S
O840 Co839 2.082 1_565 S
O840 H841 0.980 . S
H841 O840 0.980 . S
O842 Co839 2.092 . S
O842 Co843 2.042 . S
O842 Co844 2.122 . S
O842 H845 0.980 . S
Co843 O842 2.042 . S
Co843 O851 2.286 . S
Co843 O852 2.069 . S
Co843 O853 2.015 1_545 S
Co843 O856 2.264 . S
Co844 O842 2.122 . S
Co844 O855 1.976 1_545 S
Co844 O856 2.327 . S
Co844 O857 2.073 . S
H845 O842 0.980 . S
O846 Co838 2.073 . S
O846 C861 1.245 . S
O847 Co837 2.264 . S
O847 Co838 2.327 . S
O847 C861 1.257 . S
O848 Co838 1.976 1_545 S
O848 C860 1.251 . S
O849 Co839 2.114 . S
O849 C860 1.274 . S
O850 Co839 2.142 1_565 S
O850 C863 1.246 . S
O851 Co843 2.286 . S
O851 C862 1.259 . S
O852 Co843 2.069 . S
O852 C862 1.289 . S
O853 Co843 2.015 1_565 S
O853 C863 1.257 . S
O854 Co839 2.109 1_565 S
O854 C864 1.274 . S
O855 Co844 1.976 1_565 S
O855 C864 1.251 . S
O856 Co843 2.264 . S
O856 Co844 2.327 . S
O856 C865 1.257 . S
O857 Co844 2.073 . S
O857 C865 1.245 . S
C858 O866 1.259 . S
C858 O867 1.289 . S
C859 O868 1.246 . S
C859 O869 1.257 . S
C860 O848 1.251 . S
C860 O849 1.274 . S
C861 O846 1.245 . S
C861 O847 1.257 . S
C862 O851 1.259 . S
C862 O852 1.289 . S
C863 O850 1.246 . S
C863 O853 1.257 . S
C864 O854 1.274 . S
C864 O855 1.251 . S
C865 O856 1.257 . S
C865 O857 1.245 . S
O866 Co837 2.286 . S
O866 C858 1.259 . S
O867 Co837 2.069 . S
O867 C858 1.289 . S
O868 Co839 2.145 . S
O868 C859 1.246 . S
O869 Co837 2.015 1_545 S
O869 C859 1.257 . S
C870 C871 1.391 . S
C870 C872 1.394 . S
C870 H886 0.931 . S
C871 C870 1.391 . S
C871 C875 1.376 . S
C872 C870 1.394 . S
C872 C873 1.369 . S
C872 C876 1.531 . S
C873 C872 1.369 . S
C873 C874 1.410 . S
C873 C881 1.503 . S
C874 C873 1.410 . S
C874 C875 1.392 . S
C874 C877 1.511 . S
C875 C871 1.376 . S
C875 C874 1.392 . S
C875 H887 0.929 . S
C876 C872 1.531 . S
C876 H888 0.960 . S
C876 H889 0.962 . S
C876 H890 0.960 . S
C877 C874 1.511 . S
C877 H891 0.961 . S
C877 H892 0.961 . S
C877 H893 0.961 . S
C878 C879 1.370 . S
C878 C880 1.363 . S
C878 H894 0.931 . S
C879 C878 1.370 . S
C879 C883 1.408 . S
C880 C878 1.363 . S
C880 C881 1.370 . S
C880 C884 1.524 . S
C881 C873 1.503 . S
C881 C880 1.370 . S
C881 C882 1.403 . S
C882 C881 1.403 . S
C882 C883 1.404 . S
C882 C885 1.539 . S
C883 C879 1.408 . S
C883 C882 1.404 . S
C883 H895 0.930 . S
C884 C880 1.524 . S
C884 H896 0.956 . S
C884 H897 0.961 . S
C884 H898 0.961 . S
C885 C882 1.539 . S
C885 H899 0.958 . S
C885 H900 0.961 . S
C885 H901 0.960 . S
H886 C870 0.931 . S
H887 C875 0.929 . S
H888 C876 0.960 . S
H889 C876 0.962 . S
H890 C876 0.960 . S
H891 C877 0.961 . S
H892 C877 0.961 . S
H893 C877 0.961 . S
H894 C878 0.931 . S
H895 C883 0.930 . S
H896 C884 0.956 . S
H897 C884 0.961 . S
H898 C884 0.961 . S
H899 C885 0.958 . S
H900 C885 0.961 . S
H901 C885 0.960 . S
C902 C903 1.391 . S
C902 C904 1.394 . S
C902 H918 0.931 . S
C903 C902 1.391 . S
C903 C907 1.376 . S
C904 C902 1.394 . S
C904 C905 1.369 . S
C904 C908 1.531 . S
C905 C904 1.369 . S
C905 C906 1.410 . S
C905 C913 1.503 . S
C906 C905 1.410 . S
C906 C907 1.392 . S
C906 C909 1.511 . S
C907 C903 1.376 . S
C907 C906 1.392 . S
C907 H919 0.929 . S
C908 C904 1.531 . S
C908 H920 0.960 . S
C908 H921 0.962 . S
C908 H922 0.960 . S
C909 C906 1.511 . S
C909 H923 0.961 . S
C909 H924 0.961 . S
C909 H925 0.961 . S
C910 C911 1.370 . S
C910 C912 1.363 . S
C910 H926 0.931 . S
C911 C910 1.370 . S
C911 C915 1.408 . S
C912 C910 1.363 . S
C912 C913 1.370 . S
C912 C916 1.524 . S
C913 C905 1.503 . S
C913 C912 1.370 . S
C913 C914 1.403 . S
C914 C913 1.403 . S
C914 C915 1.404 . S
C914 C917 1.539 . S
C915 C911 1.408 . S
C915 C914 1.404 . S
C915 H927 0.930 . S
C916 C912 1.524 . S
C916 H928 0.956 . S
C916 H929 0.961 . S
C916 H930 0.961 . S
C917 C914 1.539 . S
C917 H931 0.958 . S
C917 H932 0.961 . S
C917 H933 0.960 . S
H918 C902 0.931 . S
H919 C907 0.929 . S
H920 C908 0.960 . S
H921 C908 0.962 . S
H922 C908 0.960 . S
H923 C909 0.961 . S
H924 C909 0.961 . S
H925 C909 0.961 . S
H926 C910 0.931 . S
H927 C915 0.930 . S
H928 C916 0.956 . S
H929 C916 0.961 . S
H930 C916 0.961 . S
H931 C917 0.958 . S
H932 C917 0.961 . S
H933 C917 0.960 . S
C934 C935 1.391 . S
C934 C936 1.394 . S
C934 H950 0.931 . S
C935 C934 1.391 . S
C935 C939 1.376 . S
C936 C934 1.394 . S
C936 C937 1.369 . S
C936 C940 1.531 . S
C937 C936 1.369 . S
C937 C938 1.410 . S
C937 C945 1.503 . S
C938 C937 1.410 . S
C938 C939 1.392 . S
C938 C941 1.511 . S
C939 C935 1.376 . S
C939 C938 1.392 . S
C939 H951 0.929 . S
C940 C936 1.531 . S
C940 H952 0.960 . S
C940 H953 0.962 . S
C940 H954 0.960 . S
C941 C938 1.511 . S
C941 H955 0.961 . S
C941 H956 0.961 . S
C941 H957 0.961 . S
C942 C943 1.370 . S
C942 C944 1.363 . S
C942 H958 0.931 . S
C943 C942 1.370 . S
C943 C947 1.408 . S
C944 C942 1.363 . S
C944 C945 1.370 . S
C944 C948 1.524 . S
C945 C937 1.503 . S
C945 C944 1.370 . S
C945 C946 1.403 . S
C946 C945 1.403 . S
C946 C947 1.404 . S
C946 C949 1.539 . S
C947 C943 1.408 . S
C947 C946 1.404 . S
C947 H959 0.930 . S
C948 C944 1.524 . S
C948 H960 0.956 . S
C948 H961 0.961 . S
C948 H962 0.961 . S
C949 C946 1.539 . S
C949 H963 0.958 . S
C949 H964 0.961 . S
C949 H965 0.960 . S
H950 C934 0.931 . S
H951 C939 0.929 . S
H952 C940 0.960 . S
H953 C940 0.962 . S
H954 C940 0.960 . S
H955 C941 0.961 . S
H956 C941 0.961 . S
H957 C941 0.961 . S
H958 C942 0.931 . S
H959 C947 0.930 . S
H960 C948 0.956 . S
H961 C948 0.961 . S
H962 C948 0.961 . S
H963 C949 0.958 . S
H964 C949 0.961 . S
H965 C949 0.960 . S
C966 C967 1.391 . S
C966 C968 1.394 . S
C966 H982 0.931 . S
C967 C966 1.391 . S
C967 C971 1.376 . S
C968 C966 1.394 . S
C968 C969 1.369 . S
C968 C972 1.531 . S
C969 C968 1.369 . S
C969 C970 1.410 . S
C969 C977 1.503 . S
C970 C969 1.410 . S
C970 C971 1.392 . S
C970 C973 1.511 . S
C971 C967 1.376 . S
C971 C970 1.392 . S
C971 H983 0.929 . S
C972 C968 1.531 . S
C972 H984 0.960 . S
C972 H985 0.962 . S
C972 H986 0.960 . S
C973 C970 1.511 . S
C973 H987 0.961 . S
C973 H988 0.961 . S
C973 H989 0.961 . S
C974 C975 1.370 . S
C974 C976 1.363 . S
C974 H990 0.931 . S
C975 C974 1.370 . S
C975 C979 1.408 . S
C976 C974 1.363 . S
C976 C977 1.370 . S
C976 C980 1.524 . S
C977 C969 1.503 . S
C977 C976 1.370 . S
C977 C978 1.403 . S
C978 C977 1.403 . S
C978 C979 1.404 . S
C978 C981 1.539 . S
C979 C975 1.408 . S
C979 C978 1.404 . S
C979 H991 0.930 . S
C980 C976 1.524 . S
C980 H992 0.956 . S
C980 H993 0.961 . S
C980 H994 0.961 . S
C981 C978 1.539 . S
C981 H995 0.958 . S
C981 H996 0.961 . S
C981 H997 0.960 . S
H982 C966 0.931 . S
H983 C971 0.929 . S
H984 C972 0.960 . S
H985 C972 0.962 . S
H986 C972 0.960 . S
H987 C973 0.961 . S
H988 C973 0.961 . S
H989 C973 0.961 . S
H990 C974 0.931 . S
H991 C979 0.930 . S
H992 C980 0.956 . S
H993 C980 0.961 . S
H994 C980 0.961 . S
H995 C981 0.958 . S
H996 C981 0.961 . S
H997 C981 0.960 . S
C998 C999 1.391 . S
C998 C1000 1.394 . S
C998 H1014 0.931 . S
C999 C998 1.391 . S
C999 C1003 1.376 . S
C1000 C998 1.394 . S
C1000 C1001 1.369 . S
C1000 C1004 1.531 . S
C1001 C1000 1.369 . S
C1001 C1002 1.410 . S
C1001 C1009 1.503 . S
C1002 C1001 1.410 . S
C1002 C1003 1.392 . S
C1002 C1005 1.511 . S
C1003 C999 1.376 . S
C1003 C1002 1.392 . S
C1003 H1015 0.929 . S
C1004 C1000 1.531 . S
C1004 H1016 0.960 . S
C1004 H1017 0.962 . S
C1004 H1018 0.960 . S
C1005 C1002 1.511 . S
C1005 H1019 0.961 . S
C1005 H1020 0.961 . S
C1005 H1021 0.961 . S
C1006 C1007 1.370 . S
C1006 C1008 1.363 . S
C1006 H1022 0.931 . S
C1007 C1006 1.370 . S
C1007 C1011 1.408 . S
C1008 C1006 1.363 . S
C1008 C1009 1.370 . S
C1008 C1012 1.524 . S
C1009 C1001 1.503 . S
C1009 C1008 1.370 . S
C1009 C1010 1.403 . S
C1010 C1009 1.403 . S
C1010 C1011 1.404 . S
C1010 C1013 1.539 . S
C1011 C1007 1.408 . S
C1011 C1010 1.404 . S
C1011 H1023 0.930 . S
C1012 C1008 1.524 . S
C1012 H1024 0.956 . S
C1012 H1025 0.961 . S
C1012 H1026 0.961 . S
C1013 C1010 1.539 . S
C1013 H1027 0.958 . S
C1013 H1028 0.961 . S
C1013 H1029 0.960 . S
H1014 C998 0.931 . S
H1015 C1003 0.929 . S
H1016 C1004 0.960 . S
H1017 C1004 0.962 . S
H1018 C1004 0.960 . S
H1019 C1005 0.961 . S
H1020 C1005 0.961 . S
H1021 C1005 0.961 . S
H1022 C1006 0.931 . S
H1023 C1011 0.930 . S
H1024 C1012 0.956 . S
H1025 C1012 0.961 . S
H1026 C1012 0.961 . S
H1027 C1013 0.958 . S
H1028 C1013 0.961 . S
H1029 C1013 0.960 . S
C1030 C1031 1.391 . S
C1030 C1032 1.394 . S
C1030 H1046 0.931 . S
C1031 C1030 1.391 . S
C1031 C1035 1.376 . S
C1032 C1030 1.394 . S
C1032 C1033 1.369 . S
C1032 C1036 1.531 . S
C1033 C1032 1.369 . S
C1033 C1034 1.410 . S
C1033 C1041 1.503 . S
C1034 C1033 1.410 . S
C1034 C1035 1.392 . S
C1034 C1037 1.511 . S
C1035 C1031 1.376 . S
C1035 C1034 1.392 . S
C1035 H1047 0.929 . S
C1036 C1032 1.531 . S
C1036 H1048 0.960 . S
C1036 H1049 0.962 . S
C1036 H1050 0.960 . S
C1037 C1034 1.511 . S
C1037 H1051 0.961 . S
C1037 H1052 0.961 . S
C1037 H1053 0.961 . S
C1038 C1039 1.370 . S
C1038 C1040 1.363 . S
C1038 H1054 0.931 . S
C1039 C1038 1.370 . S
C1039 C1043 1.408 . S
C1040 C1038 1.363 . S
C1040 C1041 1.370 . S
C1040 C1044 1.524 . S
C1041 C1033 1.503 . S
C1041 C1040 1.370 . S
C1041 C1042 1.403 . S
C1042 C1041 1.403 . S
C1042 C1043 1.404 . S
C1042 C1045 1.539 . S
C1043 C1039 1.408 . S
C1043 C1042 1.404 . S
C1043 H1055 0.930 . S
C1044 C1040 1.524 . S
C1044 H1056 0.956 . S
C1044 H1057 0.961 . S
C1044 H1058 0.961 . S
C1045 C1042 1.539 . S
C1045 H1059 0.958 . S
C1045 H1060 0.961 . S
C1045 H1061 0.960 . S
H1046 C1030 0.931 . S
H1047 C1035 0.929 . S
H1048 C1036 0.960 . S
H1049 C1036 0.962 . S
H1050 C1036 0.960 . S
H1051 C1037 0.961 . S
H1052 C1037 0.961 . S
H1053 C1037 0.961 . S
H1054 C1038 0.931 . S
H1055 C1043 0.930 . S
H1056 C1044 0.956 . S
H1057 C1044 0.961 . S
H1058 C1044 0.961 . S
H1059 C1045 0.958 . S
H1060 C1045 0.961 . S
H1061 C1045 0.960 . S
C1062 C1063 1.391 . S
C1062 C1064 1.394 . S
C1062 H1078 0.931 . S
C1063 C1062 1.391 . S
C1063 C1067 1.376 . S
C1064 C1062 1.394 . S
C1064 C1065 1.369 . S
C1064 C1068 1.531 . S
C1065 C1064 1.369 . S
C1065 C1066 1.410 . S
C1065 C1073 1.503 . S
C1066 C1065 1.410 . S
C1066 C1067 1.392 . S
C1066 C1069 1.511 . S
C1067 C1063 1.376 . S
C1067 C1066 1.392 . S
C1067 H1079 0.929 . S
C1068 C1064 1.531 . S
C1068 H1080 0.960 . S
C1068 H1081 0.962 . S
C1068 H1082 0.960 . S
C1069 C1066 1.511 . S
C1069 H1083 0.961 . S
C1069 H1084 0.961 . S
C1069 H1085 0.961 . S
C1070 C1071 1.370 . S
C1070 C1072 1.363 . S
C1070 H1086 0.931 . S
C1071 C1070 1.370 . S
C1071 C1075 1.408 . S
C1072 C1070 1.363 . S
C1072 C1073 1.370 . S
C1072 C1076 1.524 . S
C1073 C1065 1.503 . S
C1073 C1072 1.370 . S
C1073 C1074 1.403 . S
C1074 C1073 1.403 . S
C1074 C1075 1.404 . S
C1074 C1077 1.539 . S
C1075 C1071 1.408 . S
C1075 C1074 1.404 . S
C1075 H1087 0.930 . S
C1076 C1072 1.524 . S
C1076 H1088 0.956 . S
C1076 H1089 0.961 . S
C1076 H1090 0.961 . S
C1077 C1074 1.539 . S
C1077 H1091 0.958 . S
C1077 H1092 0.961 . S
C1077 H1093 0.960 . S
H1078 C1062 0.931 . S
H1079 C1067 0.929 . S
H1080 C1068 0.960 . S
H1081 C1068 0.962 . S
H1082 C1068 0.960 . S
H1083 C1069 0.961 . S
H1084 C1069 0.961 . S
H1085 C1069 0.961 . S
H1086 C1070 0.931 . S
H1087 C1075 0.930 . S
H1088 C1076 0.956 . S
H1089 C1076 0.961 . S
H1090 C1076 0.961 . S
H1091 C1077 0.958 . S
H1092 C1077 0.961 . S
H1093 C1077 0.960 . S
C1094 C1095 1.391 . S
C1094 C1096 1.394 . S
C1094 H1110 0.931 . S
C1095 C1094 1.391 . S
C1095 C1099 1.376 . S
C1096 C1094 1.394 . S
C1096 C1097 1.369 . S
C1096 C1100 1.531 . S
C1097 C1096 1.369 . S
C1097 C1098 1.410 . S
C1097 C1105 1.503 . S
C1098 C1097 1.410 . S
C1098 C1099 1.392 . S
C1098 C1101 1.511 . S
C1099 C1095 1.376 . S
C1099 C1098 1.392 . S
C1099 H1111 0.929 . S
C1100 C1096 1.531 . S
C1100 H1112 0.960 . S
C1100 H1113 0.962 . S
C1100 H1114 0.960 . S
C1101 C1098 1.511 . S
C1101 H1115 0.961 . S
C1101 H1116 0.961 . S
C1101 H1117 0.961 . S
C1102 C1103 1.370 . S
C1102 C1104 1.363 . S
C1102 H1118 0.931 . S
C1103 C1102 1.370 . S
C1103 C1107 1.408 . S
C1104 C1102 1.363 . S
C1104 C1105 1.370 . S
C1104 C1108 1.524 . S
C1105 C1097 1.503 . S
C1105 C1104 1.370 . S
C1105 C1106 1.403 . S
C1106 C1105 1.403 . S
C1106 C1107 1.404 . S
C1106 C1109 1.539 . S
C1107 C1103 1.408 . S
C1107 C1106 1.404 . S
C1107 H1119 0.930 . S
C1108 C1104 1.524 . S
C1108 H1120 0.956 . S
C1108 H1121 0.961 . S
C1108 H1122 0.961 . S
C1109 C1106 1.539 . S
C1109 H1123 0.958 . S
C1109 H1124 0.961 . S
C1109 H1125 0.960 . S
H1110 C1094 0.931 . S
H1111 C1099 0.929 . S
H1112 C1100 0.960 . S
H1113 C1100 0.962 . S
H1114 C1100 0.960 . S
H1115 C1101 0.961 . S
H1116 C1101 0.961 . S
H1117 C1101 0.961 . S
H1118 C1102 0.931 . S
H1119 C1107 0.930 . S
H1120 C1108 0.956 . S
H1121 C1108 0.961 . S
H1122 C1108 0.961 . S
H1123 C1109 0.958 . S
H1124 C1109 0.961 . S
H1125 C1109 0.960 . S
C1126 C1127 1.391 . S
C1126 C1128 1.394 . S
C1126 H1142 0.931 . S
C1127 C1126 1.391 . S
C1127 C1131 1.376 . S
C1128 C1126 1.394 . S
C1128 C1129 1.369 . S
C1128 C1132 1.531 . S
C1129 C1128 1.369 . S
C1129 C1130 1.410 . S
C1129 C1137 1.503 . S
C1130 C1129 1.410 . S
C1130 C1131 1.392 . S
C1130 C1133 1.511 . S
C1131 C1127 1.376 . S
C1131 C1130 1.392 . S
C1131 H1143 0.929 . S
C1132 C1128 1.531 . S
C1132 H1144 0.960 . S
C1132 H1145 0.962 . S
C1132 H1146 0.960 . S
C1133 C1130 1.511 . S
C1133 H1147 0.961 . S
C1133 H1148 0.961 . S
C1133 H1149 0.961 . S
C1134 C1135 1.370 . S
C1134 C1136 1.363 . S
C1134 H1150 0.931 . S
C1135 C1134 1.370 . S
C1135 C1139 1.408 . S
C1136 C1134 1.363 . S
C1136 C1137 1.370 . S
C1136 C1140 1.524 . S
C1137 C1129 1.503 . S
C1137 C1136 1.370 . S
C1137 C1138 1.403 . S
C1138 C1137 1.403 . S
C1138 C1139 1.404 . S
C1138 C1141 1.539 . S
C1139 C1135 1.408 . S
C1139 C1138 1.404 . S
C1139 H1151 0.930 . S
C1140 C1136 1.524 . S
C1140 H1152 0.956 . S
C1140 H1153 0.961 . S
C1140 H1154 0.961 1_554 S
C1141 C1138 1.539 . S
C1141 H1155 0.958 . S
C1141 H1156 0.961 . S
C1141 H1157 0.960 . S
H1142 C1126 0.931 . S
H1143 C1131 0.929 . S
H1144 C1132 0.960 . S
H1145 C1132 0.962 . S
H1146 C1132 0.960 . S
H1147 C1133 0.961 . S
H1148 C1133 0.961 . S
H1149 C1133 0.961 . S
H1150 C1134 0.931 . S
H1151 C1139 0.930 . S
H1152 C1140 0.956 . S
H1153 C1140 0.961 . S
H1154 C1140 0.961 1_556 S
H1155 C1141 0.958 . S
H1156 C1141 0.961 . S
H1157 C1141 0.960 . S
C1158 C1159 1.391 . S
C1158 C1160 1.394 . S
C1158 H1174 0.931 . S
C1159 C1158 1.391 . S
C1159 C1163 1.376 . S
C1160 C1158 1.394 . S
C1160 C1161 1.369 . S
C1160 C1164 1.531 . S
C1161 C1160 1.369 . S
C1161 C1162 1.410 . S
C1161 C1169 1.503 . S
C1162 C1161 1.410 . S
C1162 C1163 1.392 . S
C1162 C1165 1.511 . S
C1163 C1159 1.376 . S
C1163 C1162 1.392 . S
C1163 H1175 0.929 . S
C1164 C1160 1.531 . S
C1164 H1176 0.960 . S
C1164 H1177 0.962 . S
C1164 H1178 0.960 . S
C1165 C1162 1.511 . S
C1165 H1179 0.961 . S
C1165 H1180 0.961 . S
C1165 H1181 0.961 . S
C1166 C1167 1.370 . S
C1166 C1168 1.363 . S
C1166 H1182 0.931 . S
C1167 C1166 1.370 . S
C1167 C1171 1.408 . S
C1168 C1166 1.363 . S
C1168 C1169 1.370 . S
C1168 C1172 1.524 . S
C1169 C1161 1.503 . S
C1169 C1168 1.370 . S
C1169 C1170 1.403 . S
C1170 C1169 1.403 . S
C1170 C1171 1.404 . S
C1170 C1173 1.539 . S
C1171 C1167 1.408 . S
C1171 C1170 1.404 . S
C1171 H1183 0.930 . S
C1172 C1168 1.524 . S
C1172 H1184 0.956 . S
C1172 H1185 0.961 . S
C1172 H1186 0.961 . S
C1173 C1170 1.539 . S
C1173 H1187 0.958 . S
C1173 H1188 0.961 . S
C1173 H1189 0.960 . S
H1174 C1158 0.931 . S
H1175 C1163 0.929 . S
H1176 C1164 0.960 . S
H1177 C1164 0.962 . S
H1178 C1164 0.960 . S
H1179 C1165 0.961 . S
H1180 C1165 0.961 . S
H1181 C1165 0.961 . S
H1182 C1166 0.931 . S
H1183 C1171 0.930 . S
H1184 C1172 0.956 . S
H1185 C1172 0.961 . S
H1186 C1172 0.961 . S
H1187 C1173 0.958 . S
H1188 C1173 0.961 . S
H1189 C1173 0.960 . S
C1190 C1191 1.391 . S
C1190 C1192 1.394 . S
C1190 H1206 0.931 . S
C1191 C1190 1.391 . S
C1191 C1195 1.376 . S
C1192 C1190 1.394 . S
C1192 C1193 1.369 . S
C1192 C1196 1.531 . S
C1193 C1192 1.369 . S
C1193 C1194 1.410 . S
C1193 C1201 1.503 . S
C1194 C1193 1.410 . S
C1194 C1195 1.392 . S
C1194 C1197 1.511 . S
C1195 C1191 1.376 . S
C1195 C1194 1.392 . S
C1195 H1207 0.929 . S
C1196 C1192 1.531 . S
C1196 H1208 0.960 . S
C1196 H1209 0.962 . S
C1196 H1210 0.960 . S
C1197 C1194 1.511 . S
C1197 H1211 0.961 . S
C1197 H1212 0.961 . S
C1197 H1213 0.961 . S
C1198 C1199 1.370 . S
C1198 C1200 1.363 . S
C1198 H1214 0.931 . S
C1199 C1198 1.370 . S
C1199 C1203 1.408 . S
C1200 C1198 1.363 . S
C1200 C1201 1.370 . S
C1200 C1204 1.524 . S
C1201 C1193 1.503 . S
C1201 C1200 1.370 . S
C1201 C1202 1.403 . S
C1202 C1201 1.403 . S
C1202 C1203 1.404 . S
C1202 C1205 1.539 . S
C1203 C1199 1.408 . S
C1203 C1202 1.404 . S
C1203 H1215 0.930 . S
C1204 C1200 1.524 . S
C1204 H1216 0.956 . S
C1204 H1217 0.961 . S
C1204 H1218 0.961 . S
C1205 C1202 1.539 . S
C1205 H1219 0.958 . S
C1205 H1220 0.961 . S
C1205 H1221 0.960 . S
H1206 C1190 0.931 . S
H1207 C1195 0.929 . S
H1208 C1196 0.960 . S
H1209 C1196 0.962 . S
H1210 C1196 0.960 . S
H1211 C1197 0.961 . S
H1212 C1197 0.961 . S
H1213 C1197 0.961 . S
H1214 C1198 0.931 . S
H1215 C1203 0.930 . S
H1216 C1204 0.956 . S
H1217 C1204 0.961 . S
H1218 C1204 0.961 . S
H1219 C1205 0.958 . S
H1220 C1205 0.961 . S
H1221 C1205 0.960 . S
C1222 C1223 1.391 . S
C1222 C1224 1.394 . S
C1222 H1238 0.931 . S
C1223 C1222 1.391 . S
C1223 C1227 1.376 . S
C1224 C1222 1.394 . S
C1224 C1225 1.369 . S
C1224 C1228 1.531 . S
C1225 C1224 1.369 . S
C1225 C1226 1.410 . S
C1225 C1233 1.503 . S
C1226 C1225 1.410 . S
C1226 C1227 1.392 . S
C1226 C1229 1.511 . S
C1227 C1223 1.376 . S
C1227 C1226 1.392 . S
C1227 H1239 0.929 . S
C1228 C1224 1.531 . S
C1228 H1240 0.960 . S
C1228 H1241 0.962 . S
C1228 H1242 0.960 . S
C1229 C1226 1.511 . S
C1229 H1243 0.961 . S
C1229 H1244 0.961 . S
C1229 H1245 0.961 . S
C1230 C1231 1.370 . S
C1230 C1232 1.363 . S
C1230 H1246 0.931 . S
C1231 C1230 1.370 . S
C1231 C1235 1.408 . S
C1232 C1230 1.363 . S
C1232 C1233 1.370 . S
C1232 C1236 1.524 . S
C1233 C1225 1.503 . S
C1233 C1232 1.370 . S
C1233 C1234 1.403 . S
C1234 C1233 1.403 . S
C1234 C1235 1.404 . S
C1234 C1237 1.539 . S
C1235 C1231 1.408 . S
C1235 C1234 1.404 . S
C1235 H1247 0.930 . S
C1236 C1232 1.524 . S
C1236 H1248 0.956 . S
C1236 H1249 0.961 . S
C1236 H1250 0.961 . S
C1237 C1234 1.539 . S
C1237 H1251 0.958 . S
C1237 H1252 0.961 . S
C1237 H1253 0.960 . S
H1238 C1222 0.931 . S
H1239 C1227 0.929 . S
H1240 C1228 0.960 . S
H1241 C1228 0.962 . S
H1242 C1228 0.960 . S
H1243 C1229 0.961 . S
H1244 C1229 0.961 . S
H1245 C1229 0.961 . S
H1246 C1230 0.931 . S
H1247 C1235 0.930 . S
H1248 C1236 0.956 . S
H1249 C1236 0.961 . S
H1250 C1236 0.961 . S
H1251 C1237 0.958 . S
H1252 C1237 0.961 . S
H1253 C1237 0.960 . S
C1254 C1255 1.391 . S
C1254 C1256 1.394 . S
C1254 H1270 0.931 . S
C1255 C1254 1.391 . S
C1255 C1259 1.376 . S
C1256 C1254 1.394 . S
C1256 C1257 1.369 . S
C1256 C1260 1.531 . S
C1257 C1256 1.369 . S
C1257 C1258 1.410 . S
C1257 C1265 1.503 . S
C1258 C1257 1.410 . S
C1258 C1259 1.392 . S
C1258 C1261 1.511 . S
C1259 C1255 1.376 . S
C1259 C1258 1.392 . S
C1259 H1271 0.929 . S
C1260 C1256 1.531 . S
C1260 H1272 0.960 . S
C1260 H1273 0.962 . S
C1260 H1274 0.960 . S
C1261 C1258 1.511 . S
C1261 H1275 0.961 . S
C1261 H1276 0.961 . S
C1261 H1277 0.961 . S
C1262 C1263 1.370 . S
C1262 C1264 1.363 . S
C1262 H1278 0.931 . S
C1263 C1262 1.370 . S
C1263 C1267 1.408 . S
C1264 C1262 1.363 . S
C1264 C1265 1.370 . S
C1264 C1268 1.524 . S
C1265 C1257 1.503 . S
C1265 C1264 1.370 . S
C1265 C1266 1.403 . S
C1266 C1265 1.403 . S
C1266 C1267 1.404 . S
C1266 C1269 1.539 . S
C1267 C1263 1.408 . S
C1267 C1266 1.404 . S
C1267 H1279 0.930 . S
C1268 C1264 1.524 . S
C1268 H1280 0.956 . S
C1268 H1281 0.961 . S
C1268 H1282 0.961 . S
C1269 C1266 1.539 . S
C1269 H1283 0.958 . S
C1269 H1284 0.961 . S
C1269 H1285 0.960 . S
H1270 C1254 0.931 . S
H1271 C1259 0.929 . S
H1272 C1260 0.960 . S
H1273 C1260 0.962 . S
H1274 C1260 0.960 . S
H1275 C1261 0.961 . S
H1276 C1261 0.961 . S
H1277 C1261 0.961 . S
H1278 C1262 0.931 . S
H1279 C1267 0.930 . S
H1280 C1268 0.956 . S
H1281 C1268 0.961 . S
H1282 C1268 0.961 . S
H1283 C1269 0.958 . S
H1284 C1269 0.961 . S
H1285 C1269 0.960 . S
C1286 C1287 1.391 . S
C1286 C1288 1.394 . S
C1286 H1302 0.931 . S
C1287 C1286 1.391 . S
C1287 C1291 1.376 . S
C1288 C1286 1.394 . S
C1288 C1289 1.369 . S
C1288 C1292 1.531 . S
C1289 C1288 1.369 . S
C1289 C1290 1.410 . S
C1289 C1297 1.503 . S
C1290 C1289 1.410 . S
C1290 C1291 1.392 . S
C1290 C1293 1.511 . S
C1291 C1287 1.376 . S
C1291 C1290 1.392 . S
C1291 H1303 0.929 . S
C1292 C1288 1.531 . S
C1292 H1304 0.960 . S
C1292 H1305 0.962 . S
C1292 H1306 0.960 . S
C1293 C1290 1.511 . S
C1293 H1307 0.961 . S
C1293 H1308 0.961 . S
C1293 H1309 0.961 . S
C1294 C1295 1.370 . S
C1294 C1296 1.363 . S
C1294 H1310 0.931 . S
C1295 C1294 1.370 . S
C1295 C1299 1.408 . S
C1296 C1294 1.363 . S
C1296 C1297 1.370 . S
C1296 C1300 1.524 . S
C1297 C1289 1.503 . S
C1297 C1296 1.370 . S
C1297 C1298 1.403 . S
C1298 C1297 1.403 . S
C1298 C1299 1.404 . S
C1298 C1301 1.530 1_556 S
C1299 C1295 1.408 . S
C1299 C1298 1.404 . S
C1299 H1311 0.930 1_556 S
C1300 C1296 1.524 . S
C1300 H1312 0.956 . S
C1300 H1313 0.961 . S
C1300 H1314 0.961 . S
C1301 C1298 1.530 1_554 S
C1301 H1315 0.959 . S
C1301 H1316 0.977 . S
C1301 H1317 0.952 1_554 S
H1302 C1286 0.931 . S
H1303 C1291 0.929 . S
H1304 C1292 0.960 . S
H1305 C1292 0.962 . S
H1306 C1292 0.960 . S
H1307 C1293 0.961 . S
H1308 C1293 0.961 . S
H1309 C1293 0.961 . S
H1310 C1294 0.931 . S
H1311 C1299 0.930 1_554 S
H1312 C1300 0.956 . S
H1313 C1300 0.961 . S
H1314 C1300 0.961 . S
H1315 C1301 0.959 . S
H1316 C1301 0.977 . S
H1317 C1301 0.952 1_556 S
C1318 C1319 1.391 . S
C1318 C1320 1.394 . S
C1318 H1334 0.931 . S
C1319 C1318 1.391 . S
C1319 C1323 1.376 . S
C1320 C1318 1.394 . S
C1320 C1321 1.369 . S
C1320 C1324 1.531 . S
C1321 C1320 1.369 . S
C1321 C1322 1.410 . S
C1321 C1329 1.503 . S
C1322 C1321 1.410 . S
C1322 C1323 1.392 . S
C1322 C1325 1.511 . S
C1323 C1319 1.376 . S
C1323 C1322 1.392 . S
C1323 H1335 0.929 . S
C1324 C1320 1.531 . S
C1324 H1336 0.960 . S
C1324 H1337 0.962 . S
C1324 H1338 0.960 . S
C1325 C1322 1.511 . S
C1325 H1339 0.961 . S
C1325 H1340 0.961 . S
C1325 H1341 0.961 . S
C1326 C1327 1.370 . S
C1326 C1328 1.363 . S
C1326 H1342 0.931 . S
C1327 C1326 1.370 . S
C1327 C1331 1.408 . S
C1328 C1326 1.363 . S
C1328 C1329 1.370 . S
C1328 C1332 1.524 . S
C1329 C1321 1.503 . S
C1329 C1328 1.370 . S
C1329 C1330 1.403 . S
C1330 C1329 1.403 . S
C1330 C1331 1.404 . S
C1330 C1333 1.539 . S
C1331 C1327 1.408 . S
C1331 C1330 1.404 . S
C1331 H1343 0.930 . S
C1332 C1328 1.524 . S
C1332 H1344 0.956 . S
C1332 H1345 0.961 . S
C1332 H1346 0.961 . S
C1333 C1330 1.539 . S
C1333 H1347 0.958 . S
C1333 H1348 0.961 . S
C1333 H1349 0.960 . S
H1334 C1318 0.931 . S
H1335 C1323 0.929 . S
H1336 C1324 0.960 . S
H1337 C1324 0.962 . S
H1338 C1324 0.960 . S
H1339 C1325 0.961 . S
H1340 C1325 0.961 . S
H1341 C1325 0.961 . S
H1342 C1326 0.931 . S
H1343 C1331 0.930 . S
H1344 C1332 0.956 . S
H1345 C1332 0.961 . S
H1346 C1332 0.961 . S
H1347 C1333 0.958 . S
H1348 C1333 0.961 . S
H1349 C1333 0.960 . S
C1350 C1351 1.391 . S
C1350 C1352 1.394 . S
C1350 H1366 0.931 . S
C1351 C1350 1.391 . S
C1351 C1355 1.376 . S
C1352 C1350 1.394 . S
C1352 C1353 1.369 . S
C1352 C1356 1.531 . S
C1353 C1352 1.369 . S
C1353 C1354 1.410 . S
C1353 C1361 1.503 . S
C1354 C1353 1.410 . S
C1354 C1355 1.392 . S
C1354 C1357 1.511 . S
C1355 C1351 1.376 . S
C1355 C1354 1.392 . S
C1355 H1367 0.929 . S
C1356 C1352 1.531 . S
C1356 H1368 0.960 . S
C1356 H1369 0.962 . S
C1356 H1370 0.960 . S
C1357 C1354 1.511 . S
C1357 H1371 0.961 . S
C1357 H1372 0.961 . S
C1357 H1373 0.961 . S
C1358 C1359 1.370 . S
C1358 C1360 1.363 . S
C1358 H1374 0.931 . S
C1359 C1358 1.370 . S
C1359 C1363 1.408 . S
C1360 C1358 1.363 . S
C1360 C1361 1.370 . S
C1360 C1364 1.524 . S
C1361 C1353 1.503 . S
C1361 C1360 1.370 . S
C1361 C1362 1.403 . S
C1362 C1361 1.403 . S
C1362 C1363 1.404 . S
C1362 C1365 1.539 . S
C1363 C1359 1.408 . S
C1363 C1362 1.404 . S
C1363 H1375 0.930 . S
C1364 C1360 1.524 . S
C1364 H1376 0.956 . S
C1364 H1377 0.961 . S
C1364 H1378 0.961 . S
C1365 C1362 1.539 . S
C1365 H1379 0.958 . S
C1365 H1380 0.961 . S
C1365 H1381 0.960 . S
H1366 C1350 0.931 . S
H1367 C1355 0.929 . S
H1368 C1356 0.960 . S
H1369 C1356 0.962 . S
H1370 C1356 0.960 . S
H1371 C1357 0.961 . S
H1372 C1357 0.961 . S
H1373 C1357 0.961 . S
H1374 C1358 0.931 . S
H1375 C1363 0.930 . S
H1376 C1364 0.956 . S
H1377 C1364 0.961 . S
H1378 C1364 0.961 . S
H1379 C1365 0.958 . S
H1380 C1365 0.961 . S
H1381 C1365 0.960 . S
C1382 C1383 1.391 . S
C1382 C1384 1.394 . S
C1382 H1398 0.931 . S
C1383 C1382 1.391 . S
C1383 C1387 1.376 . S
C1384 C1382 1.394 . S
C1384 C1385 1.369 . S
C1384 C1388 1.531 . S
C1385 C1384 1.369 . S
C1385 C1386 1.410 . S
C1385 C1393 1.503 . S
C1386 C1385 1.410 . S
C1386 C1387 1.392 . S
C1386 C1389 1.511 . S
C1387 C1383 1.376 . S
C1387 C1386 1.392 . S
C1387 H1399 0.929 . S
C1388 C1384 1.531 . S
C1388 H1400 0.960 . S
C1388 H1401 0.962 . S
C1388 H1402 0.960 . S
C1389 C1386 1.511 . S
C1389 H1403 0.961 . S
C1389 H1404 0.961 . S
C1389 H1405 0.961 . S
C1390 C1391 1.370 . S
C1390 C1392 1.363 . S
C1390 H1406 0.931 . S
C1391 C1390 1.370 . S
C1391 C1395 1.408 . S
C1392 C1390 1.363 . S
C1392 C1393 1.370 . S
C1392 C1396 1.524 . S
C1393 C1385 1.503 . S
C1393 C1392 1.370 . S
C1393 C1394 1.403 . S
C1394 C1393 1.403 . S
C1394 C1395 1.404 . S
C1394 C1397 1.539 . S
C1395 C1391 1.408 . S
C1395 C1394 1.404 . S
C1395 H1407 0.930 . S
C1396 C1392 1.524 . S
C1396 H1408 0.956 . S
C1396 H1409 0.961 . S
C1396 H1410 0.961 . S
C1397 C1394 1.539 . S
C1397 H1411 0.958 . S
C1397 H1412 0.961 . S
C1397 H1413 0.960 . S
H1398 C1382 0.931 . S
H1399 C1387 0.929 . S
H1400 C1388 0.960 . S
H1401 C1388 0.962 . S
H1402 C1388 0.960 . S
H1403 C1389 0.961 . S
H1404 C1389 0.961 . S
H1405 C1389 0.961 . S
H1406 C1390 0.931 . S
H1407 C1395 0.930 . S
H1408 C1396 0.956 . S
H1409 C1396 0.961 . S
H1410 C1396 0.961 . S
H1411 C1397 0.958 . S
H1412 C1397 0.961 . S
H1413 C1397 0.960 . S
C1414 C1415 1.391 . S
C1414 C1416 1.394 . S
C1414 H1430 0.931 . S
C1415 C1414 1.391 . S
C1415 C1419 1.376 . S
C1416 C1414 1.394 . S
C1416 C1417 1.369 . S
C1416 C1420 1.531 . S
C1417 C1416 1.369 . S
C1417 C1418 1.410 . S
C1417 C1425 1.503 . S
C1418 C1417 1.410 . S
C1418 C1419 1.392 . S
C1418 C1421 1.511 . S
C1419 C1415 1.376 . S
C1419 C1418 1.392 . S
C1419 H1431 0.929 . S
C1420 C1416 1.531 . S
C1420 H1432 0.960 . S
C1420 H1433 0.962 . S
C1420 H1434 0.960 . S
C1421 C1418 1.511 . S
C1421 H1435 0.961 . S
C1421 H1436 0.961 . S
C1421 H1437 0.961 . S
C1422 C1423 1.370 . S
C1422 C1424 1.363 . S
C1422 H1438 0.931 . S
C1423 C1422 1.370 . S
C1423 C1427 1.408 . S
C1424 C1422 1.363 . S
C1424 C1425 1.370 . S
C1424 C1428 1.524 . S
C1425 C1417 1.503 . S
C1425 C1424 1.370 . S
C1425 C1426 1.403 . S
C1426 C1425 1.403 . S
C1426 C1427 1.404 . S
C1426 C1429 1.539 . S
C1427 C1423 1.408 . S
C1427 C1426 1.404 . S
C1427 H1439 0.930 . S
C1428 C1424 1.524 . S
C1428 H1440 0.956 . S
C1428 H1441 0.961 . S
C1428 H1442 0.961 . S
C1429 C1426 1.539 . S
C1429 H1443 0.958 . S
C1429 H1444 0.961 . S
C1429 H1445 0.960 . S
H1430 C1414 0.931 . S
H1431 C1419 0.929 . S
H1432 C1420 0.960 . S
H1433 C1420 0.962 . S
H1434 C1420 0.960 . S
H1435 C1421 0.961 . S
H1436 C1421 0.961 . S
H1437 C1421 0.961 . S
H1438 C1422 0.931 . S
H1439 C1427 0.930 . S
H1440 C1428 0.956 . S
H1441 C1428 0.961 . S
H1442 C1428 0.961 . S
H1443 C1429 0.958 . S
H1444 C1429 0.961 . S
H1445 C1429 0.960 . S
C1446 C1447 1.391 . S
C1446 C1448 1.394 . S
C1446 H1462 0.931 . S
C1447 C1446 1.391 . S
C1447 C1451 1.376 . S
C1448 C1446 1.394 . S
C1448 C1449 1.369 . S
C1448 C1452 1.531 . S
C1449 C1448 1.369 . S
C1449 C1450 1.410 . S
C1449 C1457 1.503 . S
C1450 C1449 1.410 . S
C1450 C1451 1.392 . S
C1450 C1453 1.511 . S
C1451 C1447 1.376 . S
C1451 C1450 1.392 . S
C1451 H1463 0.929 . S
C1452 C1448 1.531 . S
C1452 H1464 0.960 . S
C1452 H1465 0.962 . S
C1452 H1466 0.960 . S
C1453 C1450 1.511 . S
C1453 H1467 0.961 . S
C1453 H1468 0.961 . S
C1453 H1469 0.961 . S
C1454 C1455 1.370 . S
C1454 C1456 1.363 . S
C1454 H1470 0.931 . S
C1455 C1454 1.370 . S
C1455 C1459 1.408 . S
C1456 C1454 1.363 . S
C1456 C1457 1.370 . S
C1456 C1460 1.524 . S
C1457 C1449 1.503 . S
C1457 C1456 1.370 . S
C1457 C1458 1.403 . S
C1458 C1457 1.403 . S
C1458 C1459 1.404 . S
C1458 C1461 1.539 . S
C1459 C1455 1.408 . S
C1459 C1458 1.404 . S
C1459 H1471 0.930 . S
C1460 C1456 1.524 . S
C1460 H1472 0.956 . S
C1460 H1473 0.961 . S
C1460 H1474 0.961 . S
C1461 C1458 1.539 . S
C1461 H1475 0.958 . S
C1461 H1476 0.961 . S
C1461 H1477 0.960 . S
H1462 C1446 0.931 . S
H1463 C1451 0.929 . S
H1464 C1452 0.960 . S
H1465 C1452 0.962 . S
H1466 C1452 0.960 . S
H1467 C1453 0.961 . S
H1468 C1453 0.961 . S
H1469 C1453 0.961 . S
H1470 C1454 0.931 . S
H1471 C1459 0.930 . S
H1472 C1460 0.956 . S
H1473 C1460 0.961 . S
H1474 C1460 0.961 . S
H1475 C1461 0.958 . S
H1476 C1461 0.961 . S
H1477 C1461 0.960 . S
C1478 C1479 1.391 . S
C1478 C1480 1.394 . S
C1478 H1494 0.931 . S
C1479 C1478 1.391 . S
C1479 C1483 1.376 . S
C1480 C1478 1.394 . S
C1480 C1481 1.369 . S
C1480 C1484 1.531 . S
C1481 C1480 1.369 . S
C1481 C1482 1.410 . S
C1481 C1489 1.503 . S
C1482 C1481 1.410 . S
C1482 C1483 1.392 . S
C1482 C1485 1.511 . S
C1483 C1479 1.376 . S
C1483 C1482 1.392 . S
C1483 H1495 0.929 . S
C1484 C1480 1.531 . S
C1484 H1496 0.960 . S
C1484 H1497 0.962 . S
C1484 H1498 0.960 . S
C1485 C1482 1.511 . S
C1485 H1499 0.961 . S
C1485 H1500 0.961 . S
C1485 H1501 0.961 . S
C1486 C1487 1.370 . S
C1486 C1488 1.363 . S
C1486 H1502 0.931 . S
C1487 C1486 1.370 . S
C1487 C1491 1.408 . S
C1488 C1486 1.363 . S
C1488 C1489 1.370 . S
C1488 C1492 1.524 . S
C1489 C1481 1.503 . S
C1489 C1488 1.370 . S
C1489 C1490 1.403 . S
C1490 C1489 1.403 . S
C1490 C1491 1.404 . S
C1490 C1493 1.539 . S
C1491 C1487 1.408 . S
C1491 C1490 1.404 . S
C1491 H1503 0.930 . S
C1492 C1488 1.524 . S
C1492 H1504 0.956 . S
C1492 H1505 0.961 . S
C1492 H1506 0.961 . S
C1493 C1490 1.539 . S
C1493 H1507 0.958 . S
C1493 H1508 0.961 . S
C1493 H1509 0.960 . S
H1494 C1478 0.931 . S
H1495 C1483 0.929 . S
H1496 C1484 0.960 . S
H1497 C1484 0.962 . S
H1498 C1484 0.960 . S
H1499 C1485 0.961 . S
H1500 C1485 0.961 . S
H1501 C1485 0.961 . S
H1502 C1486 0.931 . S
H1503 C1491 0.930 . S
H1504 C1492 0.956 . S
H1505 C1492 0.961 . S
H1506 C1492 0.961 . S
H1507 C1493 0.958 . S
H1508 C1493 0.961 . S
H1509 C1493 0.960 . S
C1510 C1511 1.391 . S
C1510 C1512 1.394 . S
C1510 H1526 0.931 . S
C1511 C1510 1.391 . S
C1511 C1515 1.376 . S
C1512 C1510 1.394 . S
C1512 C1513 1.369 . S
C1512 C1516 1.531 . S
C1513 C1512 1.369 . S
C1513 C1514 1.410 . S
C1513 C1521 1.503 . S
C1514 C1513 1.410 . S
C1514 C1515 1.392 . S
C1514 C1517 1.511 . S
C1515 C1511 1.376 . S
C1515 C1514 1.392 . S
C1515 H1527 0.929 . S
C1516 C1512 1.531 . S
C1516 H1528 0.960 . S
C1516 H1529 0.962 . S
C1516 H1530 0.960 . S
C1517 C1514 1.511 . S
C1517 H1531 0.961 . S
C1517 H1532 0.961 . S
C1517 H1533 0.961 . S
C1518 C1519 1.370 . S
C1518 C1520 1.363 . S
C1518 H1534 0.931 . S
C1519 C1518 1.370 . S
C1519 C1523 1.408 . S
C1520 C1518 1.363 . S
C1520 C1521 1.370 . S
C1520 C1524 1.524 . S
C1521 C1513 1.503 . S
C1521 C1520 1.370 . S
C1521 C1522 1.403 . S
C1522 C1521 1.403 . S
C1522 C1523 1.404 . S
C1522 C1525 1.539 . S
C1523 C1519 1.408 . S
C1523 C1522 1.404 . S
C1523 H1535 0.930 . S
C1524 C1520 1.524 . S
C1524 H1536 0.956 . S
C1524 H1537 0.961 . S
C1524 H1538 0.961 . S
C1525 C1522 1.539 . S
C1525 H1539 0.958 . S
C1525 H1540 0.961 . S
C1525 H1541 0.960 . S
H1526 C1510 0.931 . S
H1527 C1515 0.929 . S
H1528 C1516 0.960 . S
H1529 C1516 0.962 . S
H1530 C1516 0.960 . S
H1531 C1517 0.961 . S
H1532 C1517 0.961 . S
H1533 C1517 0.961 . S
H1534 C1518 0.931 . S
H1535 C1523 0.930 . S
H1536 C1524 0.956 . S
H1537 C1524 0.961 . S
H1538 C1524 0.961 . S
H1539 C1525 0.958 . S
H1540 C1525 0.961 . S
H1541 C1525 0.960 . S
C1542 C1543 1.391 . S
C1542 C1544 1.394 . S
C1542 H1558 0.931 . S
C1543 C1542 1.391 . S
C1543 C1547 1.376 . S
C1544 C1542 1.394 . S
C1544 C1545 1.369 . S
C1544 C1548 1.531 . S
C1545 C1544 1.369 . S
C1545 C1546 1.410 . S
C1545 C1553 1.503 . S
C1546 C1545 1.410 . S
C1546 C1547 1.392 . S
C1546 C1549 1.511 . S
C1547 C1543 1.376 . S
C1547 C1546 1.392 . S
C1547 H1559 0.929 . S
C1548 C1544 1.531 . S
C1548 H1560 0.960 . S
C1548 H1561 0.962 . S
C1548 H1562 0.960 . S
C1549 C1546 1.511 . S
C1549 H1563 0.961 . S
C1549 H1564 0.961 . S
C1549 H1565 0.961 . S
C1550 C1551 1.370 . S
C1550 C1552 1.363 . S
C1550 H1566 0.931 . S
C1551 C1550 1.370 . S
C1551 C1555 1.408 . S
C1552 C1550 1.363 . S
C1552 C1553 1.370 . S
C1552 C1556 1.524 . S
C1553 C1545 1.503 . S
C1553 C1552 1.370 . S
C1553 C1554 1.403 . S
C1554 C1553 1.403 . S
C1554 C1555 1.404 . S
C1554 C1557 1.539 . S
C1555 C1551 1.408 . S
C1555 C1554 1.404 . S
C1555 H1567 0.930 . S
C1556 C1552 1.524 . S
C1556 H1568 0.956 . S
C1556 H1569 0.961 . S
C1556 H1570 0.961 . S
C1557 C1554 1.539 . S
C1557 H1571 0.958 . S
C1557 H1572 0.961 . S
C1557 H1573 0.960 . S
H1558 C1542 0.931 . S
H1559 C1547 0.929 . S
H1560 C1548 0.960 . S
H1561 C1548 0.962 . S
H1562 C1548 0.960 . S
H1563 C1549 0.961 . S
H1564 C1549 0.961 . S
H1565 C1549 0.961 . S
H1566 C1550 0.931 . S
H1567 C1555 0.930 . S
H1568 C1556 0.956 . S
H1569 C1556 0.961 . S
H1570 C1556 0.961 . S
H1571 C1557 0.958 . S
H1572 C1557 0.961 . S
H1573 C1557 0.960 . S
C1574 C1575 1.391 . S
C1574 C1576 1.394 . S
C1574 H1590 0.931 . S
C1575 C1574 1.391 . S
C1575 C1579 1.376 . S
C1576 C1574 1.394 . S
C1576 C1577 1.369 . S
C1576 C1580 1.531 . S
C1577 C1576 1.369 . S
C1577 C1578 1.410 . S
C1577 C1585 1.503 . S
C1578 C1577 1.410 . S
C1578 C1579 1.392 . S
C1578 C1581 1.511 . S
C1579 C1575 1.376 . S
C1579 C1578 1.392 . S
C1579 H1591 0.929 . S
C1580 C1576 1.531 . S
C1580 H1592 0.960 . S
C1580 H1593 0.962 . S
C1580 H1594 0.960 . S
C1581 C1578 1.511 . S
C1581 H1595 0.961 . S
C1581 H1596 0.961 . S
C1581 H1597 0.961 . S
C1582 C1583 1.370 . S
C1582 C1584 1.363 . S
C1582 H1598 0.931 . S
C1583 C1582 1.370 . S
C1583 C1587 1.408 . S
C1584 C1582 1.363 . S
C1584 C1585 1.370 . S
C1584 C1588 1.524 . S
C1585 C1577 1.503 . S
C1585 C1584 1.370 . S
C1585 C1586 1.403 . S
C1586 C1585 1.403 . S
C1586 C1587 1.404 . S
C1586 C1589 1.539 . S
C1587 C1583 1.408 . S
C1587 C1586 1.404 . S
C1587 H1599 0.930 . S
C1588 C1584 1.524 . S
C1588 H1600 0.956 . S
C1588 H1601 0.961 . S
C1588 H1602 0.961 . S
C1589 C1586 1.539 . S
C1589 H1603 0.958 . S
C1589 H1604 0.961 . S
C1589 H1605 0.960 . S
H1590 C1574 0.931 . S
H1591 C1579 0.929 . S
H1592 C1580 0.960 . S
H1593 C1580 0.962 . S
H1594 C1580 0.960 . S
H1595 C1581 0.961 . S
H1596 C1581 0.961 . S
H1597 C1581 0.961 . S
H1598 C1582 0.931 . S
H1599 C1587 0.930 . S
H1600 C1588 0.956 . S
H1601 C1588 0.961 . S
H1602 C1588 0.961 . S
H1603 C1589 0.958 . S
H1604 C1589 0.961 . S
H1605 C1589 0.960 . S
C1606 C1607 1.391 . S
C1606 C1608 1.394 . S
C1606 H1622 0.931 . S
C1607 C1606 1.391 . S
C1607 C1611 1.376 . S
C1608 C1606 1.394 . S
C1608 C1609 1.369 . S
C1608 C1612 1.531 . S
C1609 C1608 1.369 . S
C1609 C1610 1.410 . S
C1609 C1617 1.503 . S
C1610 C1609 1.410 . S
C1610 C1611 1.392 . S
C1610 C1613 1.511 . S
C1611 C1607 1.376 . S
C1611 C1610 1.392 . S
C1611 H1623 0.929 . S
C1612 C1608 1.531 . S
C1612 H1624 0.960 . S
C1612 H1625 0.962 . S
C1612 H1626 0.960 . S
C1613 C1610 1.511 . S
C1613 H1627 0.961 . S
C1613 H1628 0.961 . S
C1613 H1629 0.961 . S
C1614 C1615 1.370 . S
C1614 C1616 1.363 . S
C1614 H1630 0.931 . S
C1615 C1614 1.370 . S
C1615 C1619 1.408 . S
C1616 C1614 1.363 . S
C1616 C1617 1.370 . S
C1616 C1620 1.524 . S
C1617 C1609 1.503 . S
C1617 C1616 1.370 . S
C1617 C1618 1.403 . S
C1618 C1617 1.403 . S
C1618 C1619 1.404 . S
C1618 C1621 1.539 . S
C1619 C1615 1.408 . S
C1619 C1618 1.404 . S
C1619 H1631 0.930 . S
C1620 C1616 1.524 . S
C1620 H1632 0.956 . S
C1620 H1633 0.961 . S
C1620 H1634 0.961 . S
C1621 C1618 1.539 . S
C1621 H1635 0.958 . S
C1621 H1636 0.961 . S
C1621 H1637 0.960 . S
H1622 C1606 0.931 . S
H1623 C1611 0.929 . S
H1624 C1612 0.960 . S
H1625 C1612 0.962 . S
H1626 C1612 0.960 . S
H1627 C1613 0.961 . S
H1628 C1613 0.961 . S
H1629 C1613 0.961 . S
H1630 C1614 0.931 . S
H1631 C1619 0.930 . S
H1632 C1620 0.956 . S
H1633 C1620 0.961 . S
H1634 C1620 0.961 . S
H1635 C1621 0.958 . S
H1636 C1621 0.961 . S
H1637 C1621 0.960 . S
C1638 C1639 1.391 . S
C1638 C1640 1.394 . S
C1638 H1654 0.931 . S
C1639 C1638 1.391 . S
C1639 C1643 1.376 . S
C1640 C1638 1.394 . S
C1640 C1641 1.369 . S
C1640 C1644 1.531 . S
C1641 C1640 1.369 . S
C1641 C1642 1.410 . S
C1641 C1649 1.503 . S
C1642 C1641 1.410 . S
C1642 C1643 1.392 . S
C1642 C1645 1.511 . S
C1643 C1639 1.376 . S
C1643 C1642 1.392 . S
C1643 H1655 0.929 . S
C1644 C1640 1.531 . S
C1644 H1656 0.960 . S
C1644 H1657 0.962 . S
C1644 H1658 0.960 . S
C1645 C1642 1.511 . S
C1645 H1659 0.961 . S
C1645 H1660 0.961 . S
C1645 H1661 0.961 . S
C1646 C1647 1.370 . S
C1646 C1648 1.363 . S
C1646 H1662 0.931 . S
C1647 C1646 1.370 . S
C1647 C1651 1.408 . S
C1648 C1646 1.363 . S
C1648 C1649 1.370 . S
C1648 C1652 1.524 . S
C1649 C1641 1.503 . S
C1649 C1648 1.370 . S
C1649 C1650 1.403 . S
C1650 C1649 1.403 . S
C1650 C1651 1.404 . S
C1650 C1653 1.539 . S
C1651 C1647 1.408 . S
C1651 C1650 1.404 . S
C1651 H1663 0.930 . S
C1652 C1648 1.524 . S
C1652 H1664 0.956 . S
C1652 H1665 0.961 . S
C1652 H1666 0.961 . S
C1653 C1650 1.539 . S
C1653 H1667 0.958 . S
C1653 H1668 0.961 . S
C1653 H1669 0.960 . S
H1654 C1638 0.931 . S
H1655 C1643 0.929 . S
H1656 C1644 0.960 . S
H1657 C1644 0.962 . S
H1658 C1644 0.960 . S
H1659 C1645 0.961 . S
H1660 C1645 0.961 . S
H1661 C1645 0.961 . S
H1662 C1646 0.931 . S
H1663 C1651 0.930 . S
H1664 C1652 0.956 . S
H1665 C1652 0.961 . S
H1666 C1652 0.961 . S
H1667 C1653 0.958 . S
H1668 C1653 0.961 . S
H1669 C1653 0.960 . S
C1670 C1671 1.391 . S
C1670 C1672 1.394 . S
C1670 H1686 0.931 . S
C1671 C1670 1.391 . S
C1671 C1675 1.376 . S
C1672 C1670 1.394 . S
C1672 C1673 1.369 . S
C1672 C1676 1.531 . S
C1673 C1672 1.369 . S
C1673 C1674 1.410 . S
C1673 C1681 1.503 . S
C1674 C1673 1.410 . S
C1674 C1675 1.392 . S
C1674 C1677 1.511 . S
C1675 C1671 1.376 . S
C1675 C1674 1.392 . S
C1675 H1687 0.929 . S
C1676 C1672 1.531 . S
C1676 H1688 0.960 . S
C1676 H1689 0.962 . S
C1676 H1690 0.960 . S
C1677 C1674 1.511 . S
C1677 H1691 0.961 . S
C1677 H1692 0.961 . S
C1677 H1693 0.961 . S
C1678 C1679 1.370 . S
C1678 C1680 1.363 . S
C1678 H1694 0.931 . S
C1679 C1678 1.370 . S
C1679 C1683 1.408 . S
C1680 C1678 1.363 . S
C1680 C1681 1.370 . S
C1680 C1684 1.524 . S
C1681 C1673 1.503 . S
C1681 C1680 1.370 . S
C1681 C1682 1.403 . S
C1682 C1681 1.403 . S
C1682 C1683 1.404 . S
C1682 C1685 1.539 . S
C1683 C1679 1.408 . S
C1683 C1682 1.404 . S
C1683 H1695 0.930 . S
C1684 C1680 1.524 . S
C1684 H1696 0.956 . S
C1684 H1697 0.961 . S
C1684 H1698 0.961 . S
C1685 C1682 1.539 . S
C1685 H1699 0.958 . S
C1685 H1700 0.961 . S
C1685 H1701 0.960 . S
H1686 C1670 0.931 . S
H1687 C1675 0.929 . S
H1688 C1676 0.960 . S
H1689 C1676 0.962 . S
H1690 C1676 0.960 . S
H1691 C1677 0.961 . S
H1692 C1677 0.961 . S
H1693 C1677 0.961 . S
H1694 C1678 0.931 . S
H1695 C1683 0.930 . S
H1696 C1684 0.956 . S
H1697 C1684 0.961 . S
H1698 C1684 0.961 . S
H1699 C1685 0.958 . S
H1700 C1685 0.961 . S
H1701 C1685 0.960 . S
C1702 C1703 1.391 . S
C1702 C1704 1.394 . S
C1702 H1718 0.931 . S
C1703 C1702 1.391 . S
C1703 C1707 1.376 . S
C1704 C1702 1.394 . S
C1704 C1705 1.369 . S
C1704 C1708 1.531 . S
C1705 C1704 1.369 . S
C1705 C1706 1.410 . S
C1705 C1713 1.503 . S
C1706 C1705 1.410 . S
C1706 C1707 1.392 . S
C1706 C1709 1.511 . S
C1707 C1703 1.376 . S
C1707 C1706 1.392 . S
C1707 H1719 0.929 . S
C1708 C1704 1.531 . S
C1708 H1720 0.960 . S
C1708 H1721 0.962 . S
C1708 H1722 0.960 . S
C1709 C1706 1.511 . S
C1709 H1723 0.961 . S
C1709 H1724 0.961 . S
C1709 H1725 0.961 . S
C1710 C1711 1.370 . S
C1710 C1712 1.363 . S
C1710 H1726 0.931 . S
C1711 C1710 1.370 . S
C1711 C1715 1.408 . S
C1712 C1710 1.363 . S
C1712 C1713 1.370 . S
C1712 C1716 1.524 . S
C1713 C1705 1.503 . S
C1713 C1712 1.370 . S
C1713 C1714 1.403 . S
C1714 C1713 1.403 . S
C1714 C1715 1.404 . S
C1714 C1717 1.539 . S
C1715 C1711 1.408 . S
C1715 C1714 1.404 . S
C1715 H1727 0.930 . S
C1716 C1712 1.524 . S
C1716 H1728 0.956 . S
C1716 H1729 0.961 . S
C1716 H1730 0.961 . S
C1717 C1714 1.539 . S
C1717 H1731 0.958 . S
C1717 H1732 0.961 . S
C1717 H1733 0.960 . S
H1718 C1702 0.931 . S
H1719 C1707 0.929 . S
H1720 C1708 0.960 . S
H1721 C1708 0.962 . S
H1722 C1708 0.960 . S
H1723 C1709 0.961 . S
H1724 C1709 0.961 . S
H1725 C1709 0.961 . S
H1726 C1710 0.931 . S
H1727 C1715 0.930 . S
H1728 C1716 0.956 . S
H1729 C1716 0.961 . S
H1730 C1716 0.961 . S
H1731 C1717 0.958 . S
H1732 C1717 0.961 . S
H1733 C1717 0.960 . S
C1734 C1735 1.391 . S
C1734 C1736 1.394 . S
C1734 H1750 0.931 . S
C1735 C1734 1.391 . S
C1735 C1739 1.376 . S
C1736 C1734 1.394 . S
C1736 C1737 1.369 . S
C1736 C1740 1.531 . S
C1737 C1736 1.369 . S
C1737 C1738 1.410 . S
C1737 C1745 1.503 . S
C1738 C1737 1.410 . S
C1738 C1739 1.392 . S
C1738 C1741 1.511 . S
C1739 C1735 1.376 . S
C1739 C1738 1.392 . S
C1739 H1751 0.929 . S
C1740 C1736 1.531 . S
C1740 H1752 0.960 . S
C1740 H1753 0.962 . S
C1740 H1754 0.960 . S
C1741 C1738 1.511 . S
C1741 H1755 0.961 . S
C1741 H1756 0.961 . S
C1741 H1757 0.961 . S
C1742 C1743 1.370 . S
C1742 C1744 1.363 . S
C1742 H1758 0.931 . S
C1743 C1742 1.370 . S
C1743 C1747 1.408 . S
C1744 C1742 1.363 . S
C1744 C1745 1.370 . S
C1744 C1748 1.524 . S
C1745 C1737 1.503 . S
C1745 C1744 1.370 . S
C1745 C1746 1.403 . S
C1746 C1745 1.403 . S
C1746 C1747 1.404 . S
C1746 C1749 1.539 . S
C1747 C1743 1.408 . S
C1747 C1746 1.404 . S
C1747 H1759 0.930 1_556 S
C1748 C1744 1.524 . S
C1748 H1760 0.956 . S
C1748 H1761 0.961 . S
C1748 H1762 0.961 . S
C1749 C1746 1.539 . S
C1749 H1763 0.958 1_556 S
C1749 H1764 0.961 1_556 S
C1749 H1765 0.960 . S
H1750 C1734 0.931 . S
H1751 C1739 0.929 . S
H1752 C1740 0.960 . S
H1753 C1740 0.962 . S
H1754 C1740 0.960 . S
H1755 C1741 0.961 . S
H1756 C1741 0.961 . S
H1757 C1741 0.961 . S
H1758 C1742 0.931 . S
H1759 C1747 0.930 1_554 S
H1760 C1748 0.956 . S
H1761 C1748 0.961 . S
H1762 C1748 0.961 . S
H1763 C1749 0.958 1_554 S
H1764 C1749 0.961 1_554 S
H1765 C1749 0.960 . S
C1766 C1767 1.391 . S
C1766 C1768 1.394 . S
C1766 H1782 0.931 . S
C1767 C1766 1.391 . S
C1767 C1771 1.376 . S
C1768 C1766 1.394 . S
C1768 C1769 1.369 . S
C1768 C1772 1.531 . S
C1769 C1768 1.369 . S
C1769 C1770 1.410 . S
C1769 C1777 1.503 . S
C1770 C1769 1.410 . S
C1770 C1771 1.392 . S
C1770 C1773 1.511 . S
C1771 C1767 1.376 . S
C1771 C1770 1.392 . S
C1771 H1783 0.929 . S
C1772 C1768 1.531 . S
C1772 H1784 0.960 . S
C1772 H1785 0.962 . S
C1772 H1786 0.960 . S
C1773 C1770 1.511 . S
C1773 H1787 0.961 . S
C1773 H1788 0.961 . S
C1773 H1789 0.961 . S
C1774 C1775 1.370 . S
C1774 C1776 1.363 . S
C1774 H1790 0.931 . S
C1775 C1774 1.370 . S
C1775 C1779 1.408 . S
C1776 C1774 1.363 . S
C1776 C1777 1.370 . S
C1776 C1780 1.524 . S
C1777 C1769 1.503 . S
C1777 C1776 1.370 . S
C1777 C1778 1.403 . S
C1778 C1777 1.403 . S
C1778 C1779 1.404 . S
C1778 C1781 1.539 . S
C1779 C1775 1.408 . S
C1779 C1778 1.404 . S
C1779 H1791 0.927 1_554 S
C1780 C1776 1.524 . S
C1780 H1792 0.956 . S
C1780 H1793 0.961 . S
C1780 H1794 0.961 . S
C1781 C1778 1.539 . S
C1781 H1795 0.958 1_554 S
C1781 H1796 0.961 1_554 S
C1781 H1797 0.960 . S
H1782 C1766 0.931 . S
H1783 C1771 0.929 . S
H1784 C1772 0.960 . S
H1785 C1772 0.962 . S
H1786 C1772 0.960 . S
H1787 C1773 0.961 . S
H1788 C1773 0.961 . S
H1789 C1773 0.961 . S
H1790 C1774 0.931 . S
H1791 C1779 0.927 1_556 S
H1792 C1780 0.956 . S
H1793 C1780 0.961 . S
H1794 C1780 0.961 . S
H1795 C1781 0.958 1_556 S
H1796 C1781 0.961 1_556 S
H1797 C1781 0.960 . S
C1798 C1799 1.391 . S
C1798 C1800 1.394 . S
C1798 H1814 0.931 . S
C1799 C1798 1.391 . S
C1799 C1803 1.376 . S
C1800 C1798 1.394 . S
C1800 C1801 1.369 . S
C1800 C1804 1.531 . S
C1801 C1800 1.369 . S
C1801 C1802 1.410 . S
C1801 C1809 1.503 . S
C1802 C1801 1.410 . S
C1802 C1803 1.392 . S
C1802 C1805 1.511 . S
C1803 C1799 1.376 . S
C1803 C1802 1.392 . S
C1803 H1815 0.929 . S
C1804 C1800 1.531 . S
C1804 H1816 0.960 . S
C1804 H1817 0.962 . S
C1804 H1818 0.960 . S
C1805 C1802 1.511 . S
C1805 H1819 0.961 . S
C1805 H1820 0.961 . S
C1805 H1821 0.961 . S
C1806 C1807 1.370 . S
C1806 C1808 1.363 . S
C1806 H1822 0.931 . S
C1807 C1806 1.370 . S
C1807 C1811 1.408 . S
C1808 C1806 1.363 . S
C1808 C1809 1.370 . S
C1808 C1812 1.524 . S
C1809 C1801 1.503 . S
C1809 C1808 1.370 . S
C1809 C1810 1.403 . S
C1810 C1809 1.403 . S
C1810 C1811 1.404 . S
C1810 C1813 1.539 . S
C1811 C1807 1.408 . S
C1811 C1810 1.404 . S
C1811 H1823 0.930 . S
C1812 C1808 1.524 . S
C1812 H1824 0.956 . S
C1812 H1825 0.961 . S
C1812 H1826 0.961 . S
C1813 C1810 1.539 . S
C1813 H1827 0.958 . S
C1813 H1828 0.961 . S
C1813 H1829 0.960 . S
H1814 C1798 0.931 . S
H1815 C1803 0.929 . S
H1816 C1804 0.960 . S
H1817 C1804 0.962 . S
H1818 C1804 0.960 . S
H1819 C1805 0.961 . S
H1820 C1805 0.961 . S
H1821 C1805 0.961 . S
H1822 C1806 0.931 . S
H1823 C1811 0.930 . S
H1824 C1812 0.956 . S
H1825 C1812 0.961 . S
H1826 C1812 0.961 . S
H1827 C1813 0.958 . S
H1828 C1813 0.961 . S
H1829 C1813 0.960 . S
C1830 C1831 1.391 . S
C1830 C1832 1.394 . S
C1830 H1846 0.931 . S
C1831 C1830 1.391 . S
C1831 C1835 1.376 . S
C1832 C1830 1.394 . S
C1832 C1833 1.369 . S
C1832 C1836 1.531 . S
C1833 C1832 1.369 . S
C1833 C1834 1.410 . S
C1833 C1841 1.503 . S
C1834 C1833 1.410 . S
C1834 C1835 1.392 . S
C1834 C1837 1.511 . S
C1835 C1831 1.376 . S
C1835 C1834 1.392 . S
C1835 H1847 0.929 . S
C1836 C1832 1.531 . S
C1836 H1848 0.960 . S
C1836 H1849 0.962 . S
C1836 H1850 0.960 . S
C1837 C1834 1.511 . S
C1837 H1851 0.961 . S
C1837 H1852 0.961 . S
C1837 H1853 0.961 . S
C1838 C1839 1.370 . S
C1838 C1840 1.363 . S
C1838 H1854 0.931 . S
C1839 C1838 1.370 . S
C1839 C1843 1.408 . S
C1840 C1838 1.363 . S
C1840 C1841 1.370 . S
C1840 C1844 1.524 . S
C1841 C1833 1.503 . S
C1841 C1840 1.370 . S
C1841 C1842 1.403 . S
C1842 C1841 1.403 . S
C1842 C1843 1.404 . S
C1842 C1845 1.539 . S
C1843 C1839 1.408 . S
C1843 C1842 1.404 . S
C1843 H1855 0.930 . S
C1844 C1840 1.524 . S
C1844 H1856 0.956 . S
C1844 H1857 0.961 . S
C1844 H1858 0.961 . S
C1845 C1842 1.539 . S
C1845 H1859 0.958 . S
C1845 H1860 0.961 . S
C1845 H1861 0.960 . S
H1846 C1830 0.931 . S
H1847 C1835 0.929 . S
H1848 C1836 0.960 . S
H1849 C1836 0.962 . S
H1850 C1836 0.960 . S
H1851 C1837 0.961 . S
H1852 C1837 0.961 . S
H1853 C1837 0.961 . S
H1854 C1838 0.931 . S
H1855 C1843 0.930 . S
H1856 C1844 0.956 . S
H1857 C1844 0.961 . S
H1858 C1844 0.961 . S
H1859 C1845 0.958 . S
H1860 C1845 0.961 . S
H1861 C1845 0.960 . S
C1862 C1863 1.391 . S
C1862 C1864 1.394 . S
C1862 H1878 0.931 . S
C1863 C1862 1.391 . S
C1863 C1867 1.376 . S
C1864 C1862 1.394 . S
C1864 C1865 1.369 . S
C1864 C1868 1.531 . S
C1865 C1864 1.369 . S
C1865 C1866 1.410 . S
C1865 C1873 1.503 . S
C1866 C1865 1.410 . S
C1866 C1867 1.392 . S
C1866 C1869 1.511 . S
C1867 C1863 1.376 . S
C1867 C1866 1.392 . S
C1867 H1879 0.929 . S
C1868 C1864 1.531 . S
C1868 H1880 0.960 . S
C1868 H1881 0.962 . S
C1868 H1882 0.960 . S
C1869 C1866 1.511 . S
C1869 H1883 0.961 . S
C1869 H1884 0.961 . S
C1869 H1885 0.961 . S
C1870 C1871 1.370 . S
C1870 C1872 1.363 . S
C1870 H1886 0.931 . S
C1871 C1870 1.370 . S
C1871 C1875 1.408 . S
C1872 C1870 1.363 . S
C1872 C1873 1.370 . S
C1872 C1876 1.524 . S
C1873 C1865 1.503 . S
C1873 C1872 1.370 . S
C1873 C1874 1.403 . S
C1874 C1873 1.403 . S
C1874 C1875 1.404 . S
C1874 C1877 1.539 . S
C1875 C1871 1.408 . S
C1875 C1874 1.404 . S
C1875 H1887 0.930 . S
C1876 C1872 1.524 . S
C1876 H1888 0.956 . S
C1876 H1889 0.961 . S
C1876 H1890 0.961 . S
C1877 C1874 1.539 . S
C1877 H1891 0.958 . S
C1877 H1892 0.961 . S
C1877 H1893 0.960 . S
H1878 C1862 0.931 . S
H1879 C1867 0.929 . S
H1880 C1868 0.960 . S
H1881 C1868 0.962 . S
H1882 C1868 0.960 . S
H1883 C1869 0.961 . S
H1884 C1869 0.961 . S
H1885 C1869 0.961 . S
H1886 C1870 0.931 . S
H1887 C1875 0.930 . S
H1888 C1876 0.956 . S
H1889 C1876 0.961 . S
H1890 C1876 0.961 . S
H1891 C1877 0.958 . S
H1892 C1877 0.961 . S
H1893 C1877 0.960 . S
C1894 C1895 1.391 . S
C1894 C1896 1.394 . S
C1894 H1910 0.931 . S
C1895 C1894 1.391 . S
C1895 C1899 1.376 . S
C1896 C1894 1.394 . S
C1896 C1897 1.369 . S
C1896 C1900 1.531 . S
C1897 C1896 1.369 . S
C1897 C1898 1.410 . S
C1897 C1905 1.503 . S
C1898 C1897 1.410 . S
C1898 C1899 1.392 . S
C1898 C1901 1.511 . S
C1899 C1895 1.376 . S
C1899 C1898 1.392 . S
C1899 H1911 0.929 . S
C1900 C1896 1.531 . S
C1900 H1912 0.960 . S
C1900 H1913 0.962 . S
C1900 H1914 0.960 . S
C1901 C1898 1.511 . S
C1901 H1915 0.961 . S
C1901 H1916 0.961 . S
C1901 H1917 0.961 . S
C1902 C1903 1.370 . S
C1902 C1904 1.363 . S
C1902 H1918 0.931 . S
C1903 C1902 1.370 . S
C1903 C1907 1.408 . S
C1904 C1902 1.363 . S
C1904 C1905 1.370 . S
C1904 C1908 1.524 . S
C1905 C1897 1.503 . S
C1905 C1904 1.370 . S
C1905 C1906 1.403 . S
C1906 C1905 1.403 . S
C1906 C1907 1.404 . S
C1906 C1909 1.539 . S
C1907 C1903 1.408 . S
C1907 C1906 1.404 . S
C1907 H1919 0.930 . S
C1908 C1904 1.524 . S
C1908 H1920 0.956 . S
C1908 H1921 0.961 . S
C1908 H1922 0.961 . S
C1909 C1906 1.539 . S
C1909 H1923 0.958 . S
C1909 H1924 0.961 . S
C1909 H1925 0.960 . S
H1910 C1894 0.931 . S
H1911 C1899 0.929 . S
H1912 C1900 0.960 . S
H1913 C1900 0.962 . S
H1914 C1900 0.960 . S
H1915 C1901 0.961 . S
H1916 C1901 0.961 . S
H1917 C1901 0.961 . S
H1918 C1902 0.931 . S
H1919 C1907 0.930 . S
H1920 C1908 0.956 . S
H1921 C1908 0.961 . S
H1922 C1908 0.961 . S
H1923 C1909 0.958 . S
H1924 C1909 0.961 . S
H1925 C1909 0.960 . S
C1926 C1927 1.391 . S
C1926 C1928 1.394 . S
C1926 H1942 0.931 . S
C1927 C1926 1.391 . S
C1927 C1931 1.376 . S
C1928 C1926 1.394 . S
C1928 C1929 1.369 . S
C1928 C1932 1.531 . S
C1929 C1928 1.369 . S
C1929 C1930 1.410 . S
C1929 C1937 1.503 . S
C1930 C1929 1.410 . S
C1930 C1931 1.392 . S
C1930 C1933 1.511 . S
C1931 C1927 1.376 . S
C1931 C1930 1.392 . S
C1931 H1943 0.929 . S
C1932 C1928 1.531 . S
C1932 H1944 0.960 . S
C1932 H1945 0.962 . S
C1932 H1946 0.960 . S
C1933 C1930 1.511 . S
C1933 H1947 0.961 . S
C1933 H1948 0.961 . S
C1933 H1949 0.961 . S
C1934 C1935 1.370 . S
C1934 C1936 1.363 . S
C1934 H1950 0.931 . S
C1935 C1934 1.370 . S
C1935 C1939 1.408 . S
C1936 C1934 1.363 . S
C1936 C1937 1.370 . S
C1936 C1940 1.524 . S
C1937 C1929 1.503 . S
C1937 C1936 1.370 . S
C1937 C1938 1.403 . S
C1938 C1937 1.403 . S
C1938 C1939 1.404 . S
C1938 C1941 1.539 . S
C1939 C1935 1.408 . S
C1939 C1938 1.404 . S
C1939 H1951 0.930 . S
C1940 C1936 1.524 . S
C1940 H1952 0.956 . S
C1940 H1953 0.961 . S
C1940 H1954 0.961 . S
C1941 C1938 1.539 . S
C1941 H1955 0.958 . S
C1941 H1956 0.961 . S
C1941 H1957 0.960 . S
H1942 C1926 0.931 . S
H1943 C1931 0.929 . S
H1944 C1932 0.960 . S
H1945 C1932 0.962 . S
H1946 C1932 0.960 . S
H1947 C1933 0.961 . S
H1948 C1933 0.961 . S
H1949 C1933 0.961 . S
H1950 C1934 0.931 . S
H1951 C1939 0.930 . S
H1952 C1940 0.956 . S
H1953 C1940 0.961 . S
H1954 C1940 0.961 . S
H1955 C1941 0.958 . S
H1956 C1941 0.961 . S
H1957 C1941 0.960 . S
C1958 C1959 1.391 . S
C1958 C1960 1.394 . S
C1958 H1974 0.931 . S
C1959 C1958 1.391 . S
C1959 C1963 1.376 . S
C1960 C1958 1.394 . S
C1960 C1961 1.369 . S
C1960 C1964 1.531 . S
C1961 C1960 1.369 . S
C1961 C1962 1.410 . S
C1961 C1969 1.503 . S
C1962 C1961 1.410 . S
C1962 C1963 1.392 . S
C1962 C1965 1.511 . S
C1963 C1959 1.376 . S
C1963 C1962 1.392 . S
C1963 H1975 0.929 . S
C1964 C1960 1.531 . S
C1964 H1976 0.960 . S
C1964 H1977 0.962 . S
C1964 H1978 0.960 . S
C1965 C1962 1.511 . S
C1965 H1979 0.961 . S
C1965 H1980 0.961 . S
C1965 H1981 0.961 . S
C1966 C1967 1.370 . S
C1966 C1968 1.363 . S
C1966 H1982 0.931 . S
C1967 C1966 1.370 . S
C1967 C1971 1.408 . S
C1968 C1966 1.363 . S
C1968 C1969 1.370 . S
C1968 C1972 1.524 . S
C1969 C1961 1.503 . S
C1969 C1968 1.370 . S
C1969 C1970 1.403 . S
C1970 C1969 1.403 . S
C1970 C1971 1.404 . S
C1970 C1973 1.539 . S
C1971 C1967 1.408 . S
C1971 C1970 1.404 . S
C1971 H1983 0.930 . S
C1972 C1968 1.524 . S
C1972 H1984 0.956 . S
C1972 H1985 0.961 . S
C1972 H1986 0.961 . S
C1973 C1970 1.539 . S
C1973 H1987 0.958 . S
C1973 H1988 0.961 . S
C1973 H1989 0.960 . S
H1974 C1958 0.931 . S
H1975 C1963 0.929 . S
H1976 C1964 0.960 . S
H1977 C1964 0.962 . S
H1978 C1964 0.960 . S
H1979 C1965 0.961 . S
H1980 C1965 0.961 . S
H1981 C1965 0.961 . S
H1982 C1966 0.931 . S
H1983 C1971 0.930 . S
H1984 C1972 0.956 . S
H1985 C1972 0.961 . S
H1986 C1972 0.961 . S
H1987 C1973 0.958 . S
H1988 C1973 0.961 . S
H1989 C1973 0.960 . S
C1990 C1991 1.391 . S
C1990 C1992 1.394 . S
C1990 H2006 0.931 . S
C1991 C1990 1.391 . S
C1991 C1995 1.376 . S
C1992 C1990 1.394 . S
C1992 C1993 1.369 . S
C1992 C1996 1.531 . S
C1993 C1992 1.369 . S
C1993 C1994 1.410 . S
C1993 C2001 1.503 . S
C1994 C1993 1.410 . S
C1994 C1995 1.392 . S
C1994 C1997 1.511 . S
C1995 C1991 1.376 . S
C1995 C1994 1.392 . S
C1995 H2007 0.929 . S
C1996 C1992 1.531 . S
C1996 H2008 0.960 . S
C1996 H2009 0.962 . S
C1996 H2010 0.960 . S
C1997 C1994 1.511 . S
C1997 H2011 0.961 . S
C1997 H2012 0.961 . S
C1997 H2013 0.961 . S
C1998 C1999 1.370 . S
C1998 C2000 1.363 . S
C1998 H2014 0.931 . S
C1999 C1998 1.370 . S
C1999 C2003 1.408 . S
C2000 C1998 1.363 . S
C2000 C2001 1.370 . S
C2000 C2004 1.524 . S
C2001 C1993 1.503 . S
C2001 C2000 1.370 . S
C2001 C2002 1.403 . S
C2002 C2001 1.403 . S
C2002 C2003 1.404 . S
C2002 C2005 1.539 . S
C2003 C1999 1.408 . S
C2003 C2002 1.404 . S
C2003 H2015 0.930 . S
C2004 C2000 1.524 . S
C2004 H2016 0.956 . S
C2004 H2017 0.961 . S
C2004 H2018 0.961 . S
C2005 C2002 1.539 . S
C2005 H2019 0.958 . S
C2005 H2020 0.961 . S
C2005 H2021 0.960 . S
H2006 C1990 0.931 . S
H2007 C1995 0.929 . S
H2008 C1996 0.960 . S
H2009 C1996 0.962 . S
H2010 C1996 0.960 . S
H2011 C1997 0.961 . S
H2012 C1997 0.961 . S
H2013 C1997 0.961 . S
H2014 C1998 0.931 . S
H2015 C2003 0.930 . S
H2016 C2004 0.956 . S
H2017 C2004 0.961 . S
H2018 C2004 0.961 . S
H2019 C2005 0.958 . S
H2020 C2005 0.961 . S
H2021 C2005 0.960 . S
C2022 C2023 1.391 . S
C2022 C2024 1.394 . S
C2022 H2038 0.931 . S
C2023 C2022 1.391 . S
C2023 C2027 1.376 . S
C2024 C2022 1.394 . S
C2024 C2025 1.369 . S
C2024 C2028 1.531 . S
C2025 C2024 1.369 . S
C2025 C2026 1.410 . S
C2025 C2033 1.503 . S
C2026 C2025 1.410 . S
C2026 C2027 1.392 . S
C2026 C2029 1.511 . S
C2027 C2023 1.376 . S
C2027 C2026 1.392 . S
C2027 H2039 0.929 . S
C2028 C2024 1.531 . S
C2028 H2040 0.960 . S
C2028 H2041 0.962 . S
C2028 H2042 0.960 . S
C2029 C2026 1.511 . S
C2029 H2043 0.961 . S
C2029 H2044 0.961 . S
C2029 H2045 0.961 . S
C2030 C2031 1.370 . S
C2030 C2032 1.363 . S
C2030 H2046 0.931 . S
C2031 C2030 1.370 . S
C2031 C2035 1.408 . S
C2032 C2030 1.363 . S
C2032 C2033 1.370 . S
C2032 C2036 1.524 . S
C2033 C2025 1.503 . S
C2033 C2032 1.370 . S
C2033 C2034 1.403 . S
C2034 C2033 1.403 . S
C2034 C2035 1.404 . S
C2034 C2037 1.539 . S
C2035 C2031 1.408 . S
C2035 C2034 1.404 . S
C2035 H2047 0.930 . S
C2036 C2032 1.524 . S
C2036 H2048 0.956 . S
C2036 H2049 0.961 . S
C2036 H2050 0.961 . S
C2037 C2034 1.539 . S
C2037 H2051 0.958 . S
C2037 H2052 0.961 . S
C2037 H2053 0.960 . S
H2038 C2022 0.931 . S
H2039 C2027 0.929 . S
H2040 C2028 0.960 . S
H2041 C2028 0.962 . S
H2042 C2028 0.960 . S
H2043 C2029 0.961 . S
H2044 C2029 0.961 . S
H2045 C2029 0.961 . S
H2046 C2030 0.931 . S
H2047 C2035 0.930 . S
H2048 C2036 0.956 . S
H2049 C2036 0.961 . S
H2050 C2036 0.961 . S
H2051 C2037 0.958 . S
H2052 C2037 0.961 . S
H2053 C2037 0.960 . S
C2054 C2055 1.391 . S
C2054 C2056 1.394 . S
C2054 H2070 0.931 . S
C2055 C2054 1.391 . S
C2055 C2059 1.376 . S
C2056 C2054 1.394 . S
C2056 C2057 1.369 . S
C2056 C2060 1.531 . S
C2057 C2056 1.369 . S
C2057 C2058 1.410 . S
C2057 C2065 1.503 . S
C2058 C2057 1.410 . S
C2058 C2059 1.392 . S
C2058 C2061 1.511 . S
C2059 C2055 1.376 . S
C2059 C2058 1.392 . S
C2059 H2071 0.929 . S
C2060 C2056 1.531 . S
C2060 H2072 0.960 . S
C2060 H2073 0.962 . S
C2060 H2074 0.960 . S
C2061 C2058 1.511 . S
C2061 H2075 0.961 . S
C2061 H2076 0.961 . S
C2061 H2077 0.961 . S
C2062 C2063 1.370 . S
C2062 C2064 1.363 . S
C2062 H2078 0.931 . S
C2063 C2062 1.370 . S
C2063 C2067 1.408 . S
C2064 C2062 1.363 . S
C2064 C2065 1.370 . S
C2064 C2068 1.524 . S
C2065 C2057 1.503 . S
C2065 C2064 1.370 . S
C2065 C2066 1.403 . S
C2066 C2065 1.403 . S
C2066 C2067 1.404 . S
C2066 C2069 1.539 . S
C2067 C2063 1.408 . S
C2067 C2066 1.404 . S
C2067 H2079 0.930 . S
C2068 C2064 1.524 . S
C2068 H2080 0.956 . S
C2068 H2081 0.961 . S
C2068 H2082 0.961 . S
C2069 C2066 1.539 . S
C2069 H2083 0.958 . S
C2069 H2084 0.961 . S
C2069 H2085 0.960 . S
H2070 C2054 0.931 . S
H2071 C2059 0.929 . S
H2072 C2060 0.960 . S
H2073 C2060 0.962 . S
H2074 C2060 0.960 . S
H2075 C2061 0.961 . S
H2076 C2061 0.961 . S
H2077 C2061 0.961 . S
H2078 C2062 0.931 . S
H2079 C2067 0.930 . S
H2080 C2068 0.956 . S
H2081 C2068 0.961 . S
H2082 C2068 0.961 . S
H2083 C2069 0.958 . S
H2084 C2069 0.961 . S
H2085 C2069 0.960 . S
C2086 C2087 1.391 . S
C2086 C2088 1.394 . S
C2086 H2102 0.931 . S
C2087 C2086 1.391 . S
C2087 C2091 1.376 . S
C2088 C2086 1.394 . S
C2088 C2089 1.369 . S
C2088 C2092 1.531 . S
C2089 C2088 1.369 . S
C2089 C2090 1.410 . S
C2089 C2097 1.503 . S
C2090 C2089 1.410 . S
C2090 C2091 1.392 . S
C2090 C2093 1.511 . S
C2091 C2087 1.376 . S
C2091 C2090 1.392 . S
C2091 H2103 0.929 . S
C2092 C2088 1.531 . S
C2092 H2104 0.960 . S
C2092 H2105 0.962 . S
C2092 H2106 0.960 . S
C2093 C2090 1.511 . S
C2093 H2107 0.961 . S
C2093 H2108 0.961 . S
C2093 H2109 0.961 . S
C2094 C2095 1.370 . S
C2094 C2096 1.363 . S
C2094 H2110 0.931 . S
C2095 C2094 1.370 . S
C2095 C2099 1.408 . S
C2096 C2094 1.363 . S
C2096 C2097 1.370 . S
C2096 C2100 1.524 . S
C2097 C2089 1.503 . S
C2097 C2096 1.370 . S
C2097 C2098 1.403 . S
C2098 C2097 1.403 . S
C2098 C2099 1.404 . S
C2098 C2101 1.539 . S
C2099 C2095 1.408 . S
C2099 C2098 1.404 . S
C2099 H2111 0.930 . S
C2100 C2096 1.524 . S
C2100 H2112 0.956 . S
C2100 H2113 0.961 . S
C2100 H2114 0.961 . S
C2101 C2098 1.539 . S
C2101 H2115 0.958 . S
C2101 H2116 0.961 . S
C2101 H2117 0.960 . S
H2102 C2086 0.931 . S
H2103 C2091 0.929 . S
H2104 C2092 0.960 . S
H2105 C2092 0.962 . S
H2106 C2092 0.960 . S
H2107 C2093 0.961 . S
H2108 C2093 0.961 . S
H2109 C2093 0.961 . S
H2110 C2094 0.931 . S
H2111 C2099 0.930 . S
H2112 C2100 0.956 . S
H2113 C2100 0.961 . S
H2114 C2100 0.961 . S
H2115 C2101 0.958 . S
H2116 C2101 0.961 . S
H2117 C2101 0.960 . S
C2118 C2119 1.391 . S
C2118 C2120 1.394 . S
C2118 H2134 0.931 . S
C2119 C2118 1.391 . S
C2119 C2123 1.376 . S
C2120 C2118 1.394 . S
C2120 C2121 1.369 . S
C2120 C2124 1.531 . S
C2121 C2120 1.369 . S
C2121 C2122 1.410 . S
C2121 C2129 1.503 . S
C2122 C2121 1.410 . S
C2122 C2123 1.392 . S
C2122 C2125 1.511 . S
C2123 C2119 1.376 . S
C2123 C2122 1.392 . S
C2123 H2135 0.929 . S
C2124 C2120 1.531 . S
C2124 H2136 0.960 . S
C2124 H2137 0.962 . S
C2124 H2138 0.960 . S
C2125 C2122 1.511 . S
C2125 H2139 0.961 . S
C2125 H2140 0.961 . S
C2125 H2141 0.961 . S
C2126 C2127 1.370 . S
C2126 C2128 1.363 . S
C2126 H2142 0.931 . S
C2127 C2126 1.370 . S
C2127 C2131 1.408 . S
C2128 C2126 1.363 . S
C2128 C2129 1.370 . S
C2128 C2132 1.524 . S
C2129 C2121 1.503 . S
C2129 C2128 1.370 . S
C2129 C2130 1.403 . S
C2130 C2129 1.403 . S
C2130 C2131 1.404 . S
C2130 C2133 1.539 . S
C2131 C2127 1.408 . S
C2131 C2130 1.404 . S
C2131 H2143 0.930 . S
C2132 C2128 1.524 . S
C2132 H2144 0.956 . S
C2132 H2145 0.961 . S
C2132 H2146 0.961 . S
C2133 C2130 1.539 . S
C2133 H2147 0.958 . S
C2133 H2148 0.961 . S
C2133 H2149 0.960 . S
H2134 C2118 0.931 . S
H2135 C2123 0.929 . S
H2136 C2124 0.960 . S
H2137 C2124 0.962 . S
H2138 C2124 0.960 . S
H2139 C2125 0.961 . S
H2140 C2125 0.961 . S
H2141 C2125 0.961 . S
H2142 C2126 0.931 . S
H2143 C2131 0.930 . S
H2144 C2132 0.956 . S
H2145 C2132 0.961 . S
H2146 C2132 0.961 . S
H2147 C2133 0.958 . S
H2148 C2133 0.961 . S
H2149 C2133 0.960 . S
C2150 C2151 1.391 . S
C2150 C2152 1.394 . S
C2150 H2166 0.931 . S
C2151 C2150 1.391 . S
C2151 C2155 1.376 . S
C2152 C2150 1.394 . S
C2152 C2153 1.369 . S
C2152 C2156 1.531 . S
C2153 C2152 1.369 . S
C2153 C2154 1.410 . S
C2153 C2161 1.503 . S
C2154 C2153 1.410 . S
C2154 C2155 1.392 . S
C2154 C2157 1.511 . S
C2155 C2151 1.376 . S
C2155 C2154 1.392 . S
C2155 H2167 0.929 . S
C2156 C2152 1.531 . S
C2156 H2168 0.960 . S
C2156 H2169 0.962 . S
C2156 H2170 0.960 . S
C2157 C2154 1.511 . S
C2157 H2171 0.961 . S
C2157 H2172 0.961 . S
C2157 H2173 0.961 . S
C2158 C2159 1.370 . S
C2158 C2160 1.363 . S
C2158 H2174 0.931 . S
C2159 C2158 1.370 . S
C2159 C2163 1.408 . S
C2160 C2158 1.363 . S
C2160 C2161 1.370 . S
C2160 C2164 1.524 . S
C2161 C2153 1.503 . S
C2161 C2160 1.370 . S
C2161 C2162 1.403 . S
C2162 C2161 1.403 . S
C2162 C2163 1.404 . S
C2162 C2165 1.539 . S
C2163 C2159 1.408 . S
C2163 C2162 1.404 . S
C2163 H2175 0.930 . S
C2164 C2160 1.524 . S
C2164 H2176 0.956 . S
C2164 H2177 0.961 . S
C2164 H2178 0.961 . S
C2165 C2162 1.539 . S
C2165 H2179 0.958 . S
C2165 H2180 0.961 . S
C2165 H2181 0.960 . S
H2166 C2150 0.931 . S
H2167 C2155 0.929 . S
H2168 C2156 0.960 . S
H2169 C2156 0.962 . S
H2170 C2156 0.960 . S
H2171 C2157 0.961 . S
H2172 C2157 0.961 . S
H2173 C2157 0.961 . S
H2174 C2158 0.931 . S
H2175 C2163 0.930 . S
H2176 C2164 0.956 . S
H2177 C2164 0.961 . S
H2178 C2164 0.961 . S
H2179 C2165 0.958 . S
H2180 C2165 0.961 . S
H2181 C2165 0.960 . S
C2182 C2183 1.391 . S
C2182 C2184 1.394 . S
C2182 H2198 0.931 . S
C2183 C2182 1.391 . S
C2183 C2187 1.376 . S
C2184 C2182 1.394 . S
C2184 C2185 1.369 . S
C2184 C2188 1.531 . S
C2185 C2184 1.369 . S
C2185 C2186 1.410 . S
C2185 C2193 1.503 . S
C2186 C2185 1.410 . S
C2186 C2187 1.392 . S
C2186 C2189 1.511 . S
C2187 C2183 1.376 . S
C2187 C2186 1.392 . S
C2187 H2199 0.929 . S
C2188 C2184 1.531 . S
C2188 H2200 0.960 . S
C2188 H2201 0.962 . S
C2188 H2202 0.960 . S
C2189 C2186 1.511 . S
C2189 H2203 0.961 . S
C2189 H2204 0.961 . S
C2189 H2205 0.961 . S
C2190 C2191 1.370 . S
C2190 C2192 1.363 . S
C2190 H2206 0.931 . S
C2191 C2190 1.370 . S
C2191 C2195 1.408 . S
C2192 C2190 1.363 . S
C2192 C2193 1.370 . S
C2192 C2196 1.524 . S
C2193 C2185 1.503 . S
C2193 C2192 1.370 . S
C2193 C2194 1.403 . S
C2194 C2193 1.403 . S
C2194 C2195 1.404 . S
C2194 C2197 1.539 . S
C2195 C2191 1.408 . S
C2195 C2194 1.404 . S
C2195 H2207 0.930 . S
C2196 C2192 1.524 . S
C2196 H2208 0.956 . S
C2196 H2209 0.961 . S
C2196 H2210 0.961 . S
C2197 C2194 1.539 . S
C2197 H2211 0.958 . S
C2197 H2212 0.961 . S
C2197 H2213 0.960 . S
H2198 C2182 0.931 . S
H2199 C2187 0.929 . S
H2200 C2188 0.960 . S
H2201 C2188 0.962 . S
H2202 C2188 0.960 . S
H2203 C2189 0.961 . S
H2204 C2189 0.961 . S
H2205 C2189 0.961 . S
H2206 C2190 0.931 . S
H2207 C2195 0.930 . S
H2208 C2196 0.956 . S
H2209 C2196 0.961 . S
H2210 C2196 0.961 . S
H2211 C2197 0.958 . S
H2212 C2197 0.961 . S
H2213 C2197 0.960 . S
C2214 C2215 1.391 . S
C2214 C2216 1.394 . S
C2214 H2230 0.931 . S
C2215 C2214 1.391 . S
C2215 C2219 1.376 . S
C2216 C2214 1.394 . S
C2216 C2217 1.369 . S
C2216 C2220 1.531 . S
C2217 C2216 1.369 . S
C2217 C2218 1.410 . S
C2217 C2225 1.503 . S
C2218 C2217 1.410 . S
C2218 C2219 1.392 . S
C2218 C2221 1.511 . S
C2219 C2215 1.376 . S
C2219 C2218 1.392 . S
C2219 H2231 0.929 . S
C2220 C2216 1.531 . S
C2220 H2232 0.960 . S
C2220 H2233 0.962 . S
C2220 H2234 0.960 . S
C2221 C2218 1.511 . S
C2221 H2235 0.961 . S
C2221 H2236 0.961 . S
C2221 H2237 0.961 . S
C2222 C2223 1.370 . S
C2222 C2224 1.363 . S
C2222 H2238 0.931 . S
C2223 C2222 1.370 . S
C2223 C2227 1.408 . S
C2224 C2222 1.363 . S
C2224 C2225 1.370 . S
C2224 C2228 1.524 . S
C2225 C2217 1.503 . S
C2225 C2224 1.370 . S
C2225 C2226 1.403 . S
C2226 C2225 1.403 . S
C2226 C2227 1.404 . S
C2226 C2229 1.539 . S
C2227 C2223 1.408 . S
C2227 C2226 1.404 . S
C2227 H2239 0.930 . S
C2228 C2224 1.524 . S
C2228 H2240 0.956 . S
C2228 H2241 0.961 . S
C2228 H2242 0.961 . S
C2229 C2226 1.539 . S
C2229 H2243 0.958 . S
C2229 H2244 0.961 . S
C2229 H2245 0.960 . S
H2230 C2214 0.931 . S
H2231 C2219 0.929 . S
H2232 C2220 0.960 . S
H2233 C2220 0.962 . S
H2234 C2220 0.960 . S
H2235 C2221 0.961 . S
H2236 C2221 0.961 . S
H2237 C2221 0.961 . S
H2238 C2222 0.931 . S
H2239 C2227 0.930 . S
H2240 C2228 0.956 . S
H2241 C2228 0.961 . S
H2242 C2228 0.961 . S
H2243 C2229 0.958 . S
H2244 C2229 0.961 . S
H2245 C2229 0.960 . S
C2246 C2247 1.391 . S
C2246 C2248 1.394 . S
C2246 H2262 0.931 . S
C2247 C2246 1.391 . S
C2247 C2251 1.376 . S
C2248 C2246 1.394 . S
C2248 C2249 1.369 . S
C2248 C2252 1.531 . S
C2249 C2248 1.369 . S
C2249 C2250 1.410 . S
C2249 C2257 1.503 . S
C2250 C2249 1.410 . S
C2250 C2251 1.392 . S
C2250 C2253 1.511 . S
C2251 C2247 1.376 . S
C2251 C2250 1.392 . S
C2251 H2263 0.929 . S
C2252 C2248 1.531 . S
C2252 H2264 0.960 . S
C2252 H2265 0.962 . S
C2252 H2266 0.960 . S
C2253 C2250 1.511 . S
C2253 H2267 0.961 . S
C2253 H2268 0.961 . S
C2253 H2269 0.961 . S
C2254 C2255 1.370 . S
C2254 C2256 1.363 . S
C2254 H2270 0.931 . S
C2255 C2254 1.370 . S
C2255 C2259 1.408 . S
C2256 C2254 1.363 . S
C2256 C2257 1.370 . S
C2256 C2260 1.524 . S
C2257 C2249 1.503 . S
C2257 C2256 1.370 . S
C2257 C2258 1.403 . S
C2258 C2257 1.403 . S
C2258 C2259 1.404 . S
C2258 C2261 1.539 . S
C2259 C2255 1.408 . S
C2259 C2258 1.404 . S
C2259 H2271 0.930 . S
C2260 C2256 1.524 . S
C2260 H2272 0.956 . S
C2260 H2273 0.961 . S
C2260 H2274 0.961 . S
C2261 C2258 1.539 . S
C2261 H2275 0.958 . S
C2261 H2276 0.961 . S
C2261 H2277 0.960 . S
H2262 C2246 0.931 . S
H2263 C2251 0.929 . S
H2264 C2252 0.960 . S
H2265 C2252 0.962 . S
H2266 C2252 0.960 . S
H2267 C2253 0.961 . S
H2268 C2253 0.961 . S
H2269 C2253 0.961 . S
H2270 C2254 0.931 . S
H2271 C2259 0.930 . S
H2272 C2260 0.956 . S
H2273 C2260 0.961 . S
H2274 C2260 0.961 . S
H2275 C2261 0.958 . S
H2276 C2261 0.961 . S
H2277 C2261 0.960 . S
C2278 C2279 1.391 . S
C2278 C2280 1.394 . S
C2278 H2294 0.931 . S
C2279 C2278 1.391 . S
C2279 C2283 1.376 . S
C2280 C2278 1.394 . S
C2280 C2281 1.369 . S
C2280 C2284 1.531 . S
C2281 C2280 1.369 . S
C2281 C2282 1.410 . S
C2281 C2289 1.503 . S
C2282 C2281 1.410 . S
C2282 C2283 1.392 . S
C2282 C2285 1.511 . S
C2283 C2279 1.376 . S
C2283 C2282 1.392 . S
C2283 H2295 0.929 . S
C2284 C2280 1.531 . S
C2284 H2296 0.960 . S
C2284 H2297 0.962 . S
C2284 H2298 0.960 . S
C2285 C2282 1.511 . S
C2285 H2299 0.961 . S
C2285 H2300 0.961 . S
C2285 H2301 0.961 . S
C2286 C2287 1.370 . S
C2286 C2288 1.363 . S
C2286 H2302 0.931 . S
C2287 C2286 1.370 . S
C2287 C2291 1.408 . S
C2288 C2286 1.363 . S
C2288 C2289 1.370 . S
C2288 C2292 1.524 . S
C2289 C2281 1.503 . S
C2289 C2288 1.370 . S
C2289 C2290 1.403 . S
C2290 C2289 1.403 . S
C2290 C2291 1.404 . S
C2290 C2293 1.539 . S
C2291 C2287 1.408 . S
C2291 C2290 1.404 . S
C2291 H2303 0.930 . S
C2292 C2288 1.524 . S
C2292 H2304 0.956 . S
C2292 H2305 0.961 . S
C2292 H2306 0.961 . S
C2293 C2290 1.539 . S
C2293 H2307 0.958 . S
C2293 H2308 0.961 . S
C2293 H2309 0.960 . S
H2294 C2278 0.931 . S
H2295 C2283 0.929 . S
H2296 C2284 0.960 . S
H2297 C2284 0.962 . S
H2298 C2284 0.960 . S
H2299 C2285 0.961 . S
H2300 C2285 0.961 . S
H2301 C2285 0.961 . S
H2302 C2286 0.931 . S
H2303 C2291 0.930 . S
H2304 C2292 0.956 . S
H2305 C2292 0.961 . S
H2306 C2292 0.961 . S
H2307 C2293 0.958 . S
H2308 C2293 0.961 . S
H2309 C2293 0.960 . S
C2310 C2311 1.391 . S
C2310 C2312 1.394 . S
C2310 H2326 0.931 . S
C2311 C2310 1.391 . S
C2311 C2315 1.376 . S
C2312 C2310 1.394 . S
C2312 C2313 1.369 . S
C2312 C2316 1.531 . S
C2313 C2312 1.369 . S
C2313 C2314 1.410 . S
C2313 C2321 1.503 . S
C2314 C2313 1.410 . S
C2314 C2315 1.392 . S
C2314 C2317 1.511 . S
C2315 C2311 1.376 . S
C2315 C2314 1.392 . S
C2315 H2327 0.929 . S
C2316 C2312 1.531 . S
C2316 H2328 0.960 . S
C2316 H2329 0.962 . S
C2316 H2330 0.960 . S
C2317 C2314 1.511 . S
C2317 H2331 0.961 . S
C2317 H2332 0.961 . S
C2317 H2333 0.961 . S
C2318 C2319 1.370 . S
C2318 C2320 1.363 . S
C2318 H2334 0.931 . S
C2319 C2318 1.370 . S
C2319 C2323 1.408 . S
C2320 C2318 1.363 . S
C2320 C2321 1.370 . S
C2320 C2324 1.524 . S
C2321 C2313 1.503 . S
C2321 C2320 1.370 . S
C2321 C2322 1.403 . S
C2322 C2321 1.403 . S
C2322 C2323 1.404 . S
C2322 C2325 1.539 . S
C2323 C2319 1.408 . S
C2323 C2322 1.404 . S
C2323 H2335 0.930 . S
C2324 C2320 1.524 . S
C2324 H2336 0.956 . S
C2324 H2337 0.961 . S
C2324 H2338 0.961 . S
C2325 C2322 1.539 . S
C2325 H2339 0.958 . S
C2325 H2340 0.961 . S
C2325 H2341 0.960 . S
H2326 C2310 0.931 . S
H2327 C2315 0.929 . S
H2328 C2316 0.960 . S
H2329 C2316 0.962 . S
H2330 C2316 0.960 . S
H2331 C2317 0.961 . S
H2332 C2317 0.961 . S
H2333 C2317 0.961 . S
H2334 C2318 0.931 . S
H2335 C2323 0.930 . S
H2336 C2324 0.956 . S
H2337 C2324 0.961 . S
H2338 C2324 0.961 . S
H2339 C2325 0.958 . S
H2340 C2325 0.961 . S
H2341 C2325 0.960 . S
C2342 C2343 1.391 . S
C2342 C2344 1.394 . S
C2342 H2358 0.931 . S
C2343 C2342 1.391 . S
C2343 C2347 1.376 . S
C2344 C2342 1.394 . S
C2344 C2345 1.369 . S
C2344 C2348 1.531 . S
C2345 C2344 1.369 . S
C2345 C2346 1.410 . S
C2345 C2353 1.503 . S
C2346 C2345 1.410 . S
C2346 C2347 1.392 . S
C2346 C2349 1.511 . S
C2347 C2343 1.376 . S
C2347 C2346 1.392 . S
C2347 H2359 0.929 . S
C2348 C2344 1.531 . S
C2348 H2360 0.960 . S
C2348 H2361 0.962 . S
C2348 H2362 0.960 . S
C2349 C2346 1.511 . S
C2349 H2363 0.961 . S
C2349 H2364 0.961 . S
C2349 H2365 0.961 . S
C2350 C2351 1.370 . S
C2350 C2352 1.363 . S
C2350 H2366 0.931 . S
C2351 C2350 1.370 . S
C2351 C2355 1.408 . S
C2352 C2350 1.363 . S
C2352 C2353 1.370 . S
C2352 C2356 1.524 . S
C2353 C2345 1.503 . S
C2353 C2352 1.370 . S
C2353 C2354 1.403 . S
C2354 C2353 1.403 . S
C2354 C2355 1.404 . S
C2354 C2357 1.539 . S
C2355 C2351 1.408 . S
C2355 C2354 1.404 . S
C2355 H2367 0.930 . S
C2356 C2352 1.524 . S
C2356 H2368 0.956 . S
C2356 H2369 0.961 . S
C2356 H2370 0.961 . S
C2357 C2354 1.539 . S
C2357 H2371 0.958 . S
C2357 H2372 0.961 . S
C2357 H2373 0.960 . S
H2358 C2342 0.931 . S
H2359 C2347 0.929 . S
H2360 C2348 0.960 . S
H2361 C2348 0.962 . S
H2362 C2348 0.960 . S
H2363 C2349 0.961 . S
H2364 C2349 0.961 . S
H2365 C2349 0.961 . S
H2366 C2350 0.931 . S
H2367 C2355 0.930 . S
H2368 C2356 0.956 . S
H2369 C2356 0.961 . S
H2370 C2356 0.961 . S
H2371 C2357 0.958 . S
H2372 C2357 0.961 . S
H2373 C2357 0.960 . S
C2374 C2375 1.391 . S
C2374 C2376 1.394 . S
C2374 H2390 0.931 . S
C2375 C2374 1.391 . S
C2375 C2379 1.376 . S
C2376 C2374 1.394 . S
C2376 C2377 1.369 . S
C2376 C2380 1.531 . S
C2377 C2376 1.369 . S
C2377 C2378 1.410 . S
C2377 C2385 1.503 . S
C2378 C2377 1.410 . S
C2378 C2379 1.392 . S
C2378 C2381 1.511 . S
C2379 C2375 1.376 . S
C2379 C2378 1.392 . S
C2379 H2391 0.929 . S
C2380 C2376 1.531 . S
C2380 H2392 0.960 . S
C2380 H2393 0.962 . S
C2380 H2394 0.960 . S
C2381 C2378 1.511 . S
C2381 H2395 0.961 . S
C2381 H2396 0.961 . S
C2381 H2397 0.961 . S
C2382 C2383 1.370 . S
C2382 C2384 1.363 . S
C2382 H2398 0.931 . S
C2383 C2382 1.370 . S
C2383 C2387 1.408 . S
C2384 C2382 1.363 . S
C2384 C2385 1.370 . S
C2384 C2388 1.524 . S
C2385 C2377 1.503 . S
C2385 C2384 1.370 . S
C2385 C2386 1.403 . S
C2386 C2385 1.403 . S
C2386 C2387 1.404 . S
C2386 C2389 1.539 . S
C2387 C2383 1.408 . S
C2387 C2386 1.404 . S
C2387 H2399 0.930 . S
C2388 C2384 1.524 . S
C2388 H2400 0.956 . S
C2388 H2401 0.961 . S
C2388 H2402 0.961 . S
C2389 C2386 1.539 . S
C2389 H2403 0.958 . S
C2389 H2404 0.961 . S
C2389 H2405 0.960 . S
H2390 C2374 0.931 . S
H2391 C2379 0.929 . S
H2392 C2380 0.960 . S
H2393 C2380 0.962 . S
H2394 C2380 0.960 . S
H2395 C2381 0.961 . S
H2396 C2381 0.961 . S
H2397 C2381 0.961 . S
H2398 C2382 0.931 . S
H2399 C2387 0.930 . S
H2400 C2388 0.956 . S
H2401 C2388 0.961 . S
H2402 C2388 0.961 . S
H2403 C2389 0.958 . S
H2404 C2389 0.961 . S
H2405 C2389 0.960 . S
C879 C699 1.267 . S
C871 C74 1.357 . S
C911 C700 0.444 . S
C903 C142 0.792 . S
C943 C694 1.242 . S
C935 C231 1.154 . S
C967 C322 1.075 . S
C975 C693 1.191 . S
C999 C406 0.852 . S
C1007 C696 0.458 . S
C1039 C698 1.260 . S
C1031 C494 1.177 . S
C1063 C562 1.159 . S
C1071 C697 1.201 . S
C1095 C651 1.359 . S
C1103 C695 1.267 . S
C1135 C730 1.587 . S
C1127 C58 1.466 . S
C1159 C151 1.666 . S
C1167 C761 1.636 . S
C1199 C729 2.557 . S
C1191 C224 2.466 . S
C1231 C764 1.203 . S
C1223 C315 1.202 . S
C1255 C399 1.424 . S
C1263 C727 1.507 . S
C1295 C759 1.548 . S
C1287 C478 1.417 . S
C1319 C571 1.318 . S
C1327 C732 1.329 . S
C1351 C644 2.455 . S
C1359 C766 2.540 . S
C1383 C67 2.492 . S
C1391 C762 2.539 . S
C1415 C392 1.675 . S
C1423 C765 1.630 . S
C1455 C733 2.544 . S
C1447 C487 2.418 . S
C1487 C760 1.220 . S
C1479 C578 1.143 . S
C1511 C658 1.423 . S
C1519 C726 1.594 . S
C1543 C238 1.458 . S
C1551 C763 1.548 . S
C1583 C728 1.296 . S
C1575 C308 1.231 . S
C1607 C158 1.463 . S
C1615 C731 1.486 . S
C1639 C662 1.233 . S
C1647 C798 1.236 . S
C1671 C394 0.992 . S
C1679 C799 0.405 . S
C1711 C793 1.402 . S
C1703 C483 1.334 . S
C1743 C792 1.553 . S
C1735 C574 1.434 . S
C1767 C154 1.014 . S
C1775 C795 0.414 . S
C1807 C797 1.402 . S
C1799 C242 1.336 . S
C1831 C310 1.328 . S
C1839 C796 1.541 . S
C1863 C63 1.249 . S
C1871 C794 1.247 . S
C1895 C646 1.511 . S
C1903 C832 1.604 . S
C1935 C864 1.230 . S
C1927 C403 1.245 . S
C1959 C476 2.320 . S
C1967 C825 2.464 . S
C1991 C567 1.455 . S
C1999 C859 1.559 . S
C2031 C830 1.336 . S
C2023 C147 1.241 . S
C2055 C226 1.635 . S
C2063 C861 1.671 . S
C2095 C827 1.505 . S
C2087 C319 1.554 . S
C2127 C862 2.497 . S
C2119 C56 2.248 . S
C2159 C858 2.499 . S
C2151 C655 2.276 . S
C2183 C140 1.197 . S
C2191 C860 1.206 . S
C2215 C235 2.311 . S
C2223 C829 2.465 . S
C2255 C863 1.569 . S
C2247 C326 1.527 . S
C2279 C70 1.516 . S
C2287 C828 1.604 . S
C2311 C490 1.664 . S
C2319 C865 1.685 . S
C2351 C831 1.503 . S
C2343 C560 1.555 . S
C2383 C826 1.338 . S
C2375 C410 1.259 . S
