# Generated by pormake.
# Topology rtl, (3,6)-cn, num edge types: 1
# Building blocks:
#     Node 0, Type 0, BuildingBlock: WUSLED_clean_sbu_0, # of connection points: 3
#     Node 1, Type 0, BuildingBlock: WUSLED_clean_sbu_0, # of connection points: 3
#     Node 2, Type 0, BuildingBlock: WUSLED_clean_sbu_0, # of connection points: 3
#     Node 3, Type 0, BuildingBlock: WUSLED_clean_sbu_0, # of connection points: 3
#     Node 4, Type 1, BuildingBlock: KUMJIN_clean_sbu_1, # of connection points: 6
#     Node 5, Type 1, BuildingBlock: KUMJIN_clean_sbu_1, # of connection points: 6
#     Edge 6, Type (0, 1), BuildingBlock: MIFKUJ_clean_linker_0, # of connection points: 2
#     Edge 7, Type (0, 1), BuildingBlock: MIFKUJ_clean_linker_0, # of connection points: 2
#     Edge 8, Type (0, 1), BuildingBlock: MIFKUJ_clean_linker_0, # of connection points: 2
#     Edge 9, Type (0, 1), BuildingBlock: MIFKUJ_clean_linker_0, # of connection points: 2
#     Edge 10, Type (0, 1), BuildingBlock: MIFKUJ_clean_linker_0, # of connection points: 2
#     Edge 11, Type (0, 1), BuildingBlock: MIFKUJ_clean_linker_0, # of connection points: 2
#     Edge 12, Type (0, 1), BuildingBlock: MIFKUJ_clean_linker_0, # of connection points: 2
#     Edge 13, Type (0, 1), BuildingBlock: MIFKUJ_clean_linker_0, # of connection points: 2
#     Edge 14, Type (0, 1), BuildingBlock: MIFKUJ_clean_linker_0, # of connection points: 2
#     Edge 15, Type (0, 1), BuildingBlock: MIFKUJ_clean_linker_0, # of connection points: 2
#     Edge 16, Type (0, 1), BuildingBlock: MIFKUJ_clean_linker_0, # of connection points: 2
#     Edge 17, Type (0, 1), BuildingBlock: MIFKUJ_clean_linker_0, # of connection points: 2
# Relax obj value: 0.016
# Max RMSD: 0.092
# Mean RMSD: 0.053
data_MOF--net-rtl--node1-WUSLED_clean_sbu_0--node2-KUMJIN_clean_sbu_1--edge1-MIFKUJ_clean_linker_0
_symmetry_space_group_name_H-M    P1
_symmetry_Int_Tables_number       1
_symmetry_cell_setting            triclinic
loop_
_symmetry_equiv_pos_as_xyz
'x, y, z'
_cell_length_a     51.971723
_cell_length_b     52.34883
_cell_length_c     44.079608
_cell_angle_alpha  82.646966
_cell_angle_beta   99.460705
_cell_angle_gamma 90.382244
loop_
_atom_site_label
_atom_site_type_symbol
_atom_site_fract_x
_atom_site_fract_y
_atom_site_fract_z
_atom_type_partial_charge
C0 C 0.20158 0.8433 0.10952 0.0
C1 C 0.17461 0.84796 0.10673 0.0
C2 C 0.18143 0.86674 0.15523 0.0
C3 C 0.16463 0.85943 0.12947 0.0
C4 C 0.20839 0.86216 0.15783 0.0
C5 C 0.21832 0.85049 0.13527 0.0
U6 U 0.20673 0.83704 0.02517 0.0
O7 O 0.24107 0.83162 1.00332 0.0
O8 O 0.21019 0.80276 1.00183 0.0
C9 C 0.23327 0.8092 0.99509 0.0
C10 C 0.21271 0.83115 0.08597 0.0
C11 C 0.25316 0.78851 1.00095 0.0
C12 C 0.28621 0.76104 0.03515 0.0
C13 C 0.26686 0.78035 0.03077 0.0
C14 C 0.27802 0.75784 0.98006 0.0
C15 C 0.29216 0.74972 1.00975 0.0
C16 C 0.25877 0.77703 0.97575 0.0
C17 C 0.1653 0.88087 0.95984 0.0
C18 C 0.16897 0.87969 0.90575 0.0
C19 C 0.13766 0.90859 0.91925 0.0
C20 C 0.14563 0.89973 0.95067 0.0
C21 C 0.14927 0.89875 0.89638 0.0
C22 C 0.17693 0.87084 0.93724 0.0
C23 C 0.17358 0.87196 0.99301 0.0
O24 O 0.19683 0.8171 0.06867 0.0
O25 O 0.22778 0.84589 0.07015 0.0
O26 O 0.1978 0.87708 1.00424 0.0
O27 O 0.1668 0.84842 1.00242 0.0
H28 H 0.16123 0.84281 0.08697 0.0
H29 H 0.1438 0.86293 0.12666 0.0
H30 H 0.22181 0.86729 0.17756 0.0
H31 H 0.23916 0.84706 0.13794 0.0
H32 H 0.29683 0.75534 0.05828 0.0
H33 H 0.26276 0.78904 0.05052 0.0
H34 H 0.2817 0.74923 0.96009 0.0
H35 H 0.24829 0.78302 0.95259 0.0
H36 H 0.17848 0.87187 0.88881 0.0
H37 H 0.12214 0.92293 0.91286 0.0
H38 H 0.13639 0.9076 0.96783 0.0
H39 H 0.19221 0.85625 0.94398 0.0
C40 C 0.68839 0.67711 0.69259 0.0
C41 C 0.66408 0.66559 0.68512 0.0
C42 C 0.6627 0.65262 0.74004 0.0
C43 C 0.65131 0.65355 0.70863 0.0
C44 C 0.68717 0.66405 0.74731 0.0
C45 C 0.69984 0.67619 0.72381 0.0
U46 U 0.69885 0.68886 0.60822 0.0
O47 O 0.70621 0.72456 0.579 0.0
O48 O 0.73508 0.69289 0.58819 0.0
C49 C 0.7293 0.71663 0.57524 0.0
C50 C 0.70207 0.68997 0.66817 0.0
C51 C 0.7506 0.73539 0.57792 0.0
C52 C 0.77267 0.7716 0.60003 0.0
C53 C 0.7533 0.75277 0.6 0.0
C54 C 0.78711 0.75544 0.55646 0.0
C55 C 0.78954 0.77341 0.57789 0.0
C56 C 0.76786 0.7367 0.55649 0.0
C57 C 0.65646 0.65253 0.54856 0.0
C58 C 0.66353 0.65332 0.49523 0.0
C59 C 0.62591 0.63175 0.51193 0.0
C60 C 0.63374 0.63841 0.54174 0.0
C61 C 0.6407 0.63908 0.48828 0.0
C62 C 0.67131 0.66005 0.52513 0.0
C63 C 0.6644 0.65894 0.58028 0.0
O64 O 0.71678 0.67488 0.65629 0.0
O65 O 0.68803 0.70657 0.64709 0.0
O66 O 0.65901 0.68258 0.58454 0.0
O67 O 0.68786 0.65097 0.59404 0.0
H68 H 0.65499 0.6659 0.66112 0.0
H69 H 0.63266 0.64468 0.70218 0.0
H70 H 0.69637 0.66397 0.77122 0.0
H71 H 0.7186 0.68495 0.73003 0.0
H72 H 0.77396 0.78519 0.61677 0.0
H73 H 0.74016 0.75209 0.61678 0.0
H74 H 0.80006 0.75592 0.5395 0.0
H75 H 0.76616 0.72343 0.53932 0.0
H76 H 0.67523 0.65946 0.47751 0.0
H77 H 0.60848 0.62043 0.50757 0.0
H78 H 0.62209 0.63238 0.55957 0.0
H79 H 0.6889 0.67105 0.52999 0.0
C80 C 0.84167 0.17341 0.12273 0.0
C81 C 0.85331 0.14938 0.12222 0.0
C82 C 0.87046 0.14693 0.17744 0.0
C83 C 0.8675 0.13619 0.1494 0.0
C84 C 0.85895 0.17113 0.17766 0.0
C85 C 0.84467 0.18421 0.15055 0.0
U86 U 0.8236 0.18878 0.03443 0.0
O87 O 0.78509 0.19654 1.00549 0.0
O88 O 0.81496 0.22634 1.00587 0.0
C89 C 0.79043 0.22071 0.99693 0.0
C90 C 0.82636 0.18755 0.09462 0.0
C91 C 0.77122 0.2398 1.00147 0.0
C92 C 0.74709 0.25994 0.03511 0.0
C93 C 0.76528 0.24159 0.03106 0.0
C94 C 0.7407 0.27497 0.98005 0.0
C95 C 0.73462 0.27692 1.00965 0.0
C96 C 0.75881 0.25656 0.97602 0.0
C97 C 0.85962 0.1531 0.98233 0.0
C98 C 0.85861 0.16548 0.92705 0.0
C99 C 0.87937 0.12526 0.95223 0.0
C100 C 0.87302 0.13037 0.98049 0.0
C101 C 0.87248 0.14285 0.92517 0.0
C102 C 0.85221 0.17055 0.95539 0.0
C103 C 0.85427 0.15844 0.0127 0.0
O104 O 0.83952 0.20381 0.07801 0.0
O105 O 0.80976 0.17386 0.07773 0.0
O106 O 0.83133 0.1514 0.01942 0.0
O107 O 0.86121 0.18124 0.02043 0.0
H108 H 0.85138 0.14082 0.10086 0.0
H109 H 0.87635 0.1177 0.14843 0.0
H110 H 0.86058 0.17978 0.19893 0.0
H111 H 0.83581 0.20274 0.15136 0.0
H112 H 0.7431 0.26111 0.05825 0.0
H113 H 0.77479 0.22885 0.05102 0.0
H114 H 0.73122 0.28749 0.95989 0.0
H115 H 0.76314 0.25541 0.95301 0.0
H116 H 0.85319 0.17957 0.90679 0.0
H117 H 0.88962 0.10744 0.95157 0.0
H118 H 0.87879 0.11662 1.00103 0.0
H119 H 0.84182 0.18822 0.95638 0.0
C120 C 0.34604 0.33302 0.37301 0.0
C121 C 0.33566 0.35609 0.35546 0.0
C122 C 0.37209 0.3593 0.32663 0.0
C123 C 0.34854 0.36909 0.33266 0.0
C124 C 0.38243 0.33619 0.34412 0.0
C125 C 0.36954 0.32318 0.36692 0.0
U126 U 0.33349 0.31898 0.45674 0.0
O127 O 0.29689 0.31382 0.47585 0.0
O128 O 0.3264 0.28271 0.48514 0.0
C129 C 0.303 0.29007 0.48851 0.0
C130 C 0.33205 0.31903 0.39688 0.0
C131 C 0.28197 0.27097 0.48538 0.0
C132 C 0.26204 0.23295 0.46528 0.0
C133 C 0.28136 0.25187 0.4656 0.0
C134 C 0.24359 0.25235 0.50402 0.0
C135 C 0.24299 0.23287 0.48467 0.0
C136 C 0.26281 0.27113 0.50431 0.0
C137 C 0.37385 0.35652 0.51705 0.0
C138 C 0.37051 0.35084 0.57188 0.0
C139 C 0.39914 0.38317 0.55188 0.0
C140 C 0.39181 0.37619 0.52216 0.0
C141 C 0.38867 0.37055 0.57717 0.0
C142 C 0.36317 0.34387 0.54203 0.0
C143 C 0.36648 0.34974 0.48545 0.0
O144 O 0.34587 0.30225 0.41798 0.0
O145 O 0.31599 0.33288 0.40855 0.0
O146 O 0.34293 0.35704 0.47138 0.0
O147 O 0.37266 0.32623 0.48148 0.0
H148 H 0.31749 0.36415 0.35926 0.0
H149 H 0.3401 0.38694 0.31988 0.0
H150 H 0.40027 0.32783 0.33977 0.0
H151 H 0.37795 0.30528 0.37962 0.0
H152 H 0.26205 0.2184 0.44989 0.0
H153 H 0.29596 0.25135 0.45074 0.0
H154 H 0.22962 0.2527 0.51969 0.0
H155 H 0.26305 0.28555 0.51995 0.0
H156 H 0.36223 0.34059 0.59085 0.0
H157 H 0.41277 0.39873 0.55494 0.0
H158 H 0.40012 0.38626 0.50308 0.0
H159 H 0.34923 0.32862 0.53845 0.0
Eu160 Eu 0.03057 0.98181 0.50736 0.0
C161 C 0.9485 0.06369 0.49194 0.0
N162 N 0.97231 0.06653 0.50898 0.0
C163 C 0.97607 0.1084 0.48095 0.0
C164 C 0.93787 0.08287 0.46776 0.0
C165 C 0.98596 0.08867 0.50437 0.0
C166 C 0.95204 0.10537 0.46232 0.0
C167 C 0.90959 0.03834 0.48219 0.0
C168 C 0.9347 0.04161 0.49896 0.0
C169 C 0.89937 0.05682 0.45718 0.0
C170 C 0.91347 0.07905 0.44999 0.0
Eu171 Eu 0.98854 0.03193 0.54704 0.0
N172 N 0.94513 0.02411 0.52334 0.0
C173 C 0.89512 0.01707 0.49174 0.0
C174 C 0.92992 1.005 0.53467 0.0
C175 C 0.90511 1.00066 0.51853 0.0
H176 H 1.00458 0.09089 0.51868 0.0
H177 H 0.89355 0.98492 0.52702 0.0
H178 H 0.98633 0.94192 0.4758 0.0
H179 H 0.12816 0.95664 0.57142 0.0
H180 H 0.93658 0.99321 0.55642 0.0
H181 H 0.87578 0.01382 0.47948 0.0
H182 H 0.09365 0.98493 0.53868 0.0
H183 H 0.98706 0.12581 0.47713 0.0
H184 H 0.88027 0.05443 0.44378 0.0
H185 H 0.90514 0.09338 0.43103 0.0
H186 H 0.97485 0.89582 0.48362 0.0
H187 H 0.94453 0.12056 0.44399 0.0
H188 H 0.11899 0.91078 0.58696 0.0
N189 N 0.01989 0.93764 0.51083 0.0
C190 C 0.03673 0.921 0.53035 0.0
C191 C 0.9922 0.90267 0.49716 0.0
C192 C 0.03142 0.89447 0.53507 0.0
C193 C 0.99861 0.92875 0.49297 0.0
C194 C 1.00844 0.88551 0.51875 0.0
N195 N 0.06525 0.9556 0.53673 0.0
C196 C 0.08962 0.96492 0.54531 0.0
C197 C 0.07937 0.91331 0.56194 0.0
C198 C 0.06031 0.93025 0.54354 0.0
C199 C 0.10385 0.92313 0.57267 0.0
C200 C 0.10912 0.94898 0.5639 0.0
H201 H 1.00358 0.86528 0.52176 0.0
H202 H 0.04583 0.85728 0.55905 0.0
H203 H 0.08788 0.87382 0.58266 0.0
O204 O 0.04158 1.00536 0.46698 0.0
O205 O 0.0464 0.98687 0.55748 0.0
O206 O 0.01239 1.00096 0.58018 0.0
O207 O 0.04463 0.96405 0.47065 0.0
O208 O 0.05184 0.0184 0.51941 0.0
O209 O 0.02944 0.04628 0.54438 0.0
O210 O 0.96228 0.04177 0.57791 0.0
O211 O 0.99859 0.03869 0.49829 0.0
O212 O 0.99158 0.99889 0.48455 0.0
O213 O 1.00011 0.05902 0.58074 0.0
O214 O 0.9831 0.9887 0.55881 0.0
O215 O 0.98814 0.97566 0.51269 0.0
C216 C 0.03578 0.99087 0.58166 0.0
C217 C 0.07504 0.98805 0.445 0.0
C218 C 0.10352 0.98029 0.40792 0.0
C219 C 0.12422 0.99128 0.42659 0.0
C220 C 0.09598 0.99888 0.46307 0.0
C221 C 0.12039 1.00055 0.45384 0.0
C222 C 0.07882 0.97886 0.4174 0.0
C223 C 0.04983 0.03959 0.53253 0.0
C224 C 0.04935 0.98587 0.45502 0.0
C225 C 0.04968 0.87768 0.55483 0.0
C226 C 0.07364 0.88709 0.56824 0.0
C227 C 0.98997 0.02381 0.47722 0.0
C228 C 0.96655 0.08177 0.59733 0.0
C229 C 0.94742 0.10563 0.63262 0.0
C230 C 0.94273 0.12664 0.609 0.0
C231 C 0.96152 0.10289 0.57414 0.0
C232 C 0.95953 0.08324 0.62656 0.0
C233 C 0.94977 0.12523 0.58003 0.0
C234 C 0.98028 0.9712 0.53964 0.0
C235 C 0.97815 0.05769 0.59138 0.0
H236 H 0.14359 0.99229 0.42053 0.0
H237 H 0.09344 0.00592 0.48437 0.0
H238 H 0.13647 0.00889 0.468 0.0
H239 H 0.06249 0.97075 0.40335 0.0
H240 H 0.9338 0.14428 0.61302 0.0
H241 H 0.96649 0.10213 0.55151 0.0
H242 H 0.96301 0.06673 0.64434 0.0
H243 H 0.94604 0.1415 0.56201 0.0
Eu244 Eu 0.48737 0.49397 0.99852 0.0
C245 C 0.5937 0.54497 0.04815 0.0
N246 N 0.58405 0.52329 0.06241 0.0
C247 C 0.62674 0.50395 0.0744 0.0
C248 C 0.62039 0.54663 0.04572 0.0
C249 C 0.6001 0.50307 0.07588 0.0
C250 C 0.63692 0.52574 0.05902 0.0
C251 C 0.5861 0.58801 0.02013 0.0
C252 C 0.57672 0.56545 0.03554 0.0
C253 C 0.61262 0.5896 0.01736 0.0
C254 C 0.62972 0.56899 0.03015 0.0
Eu255 Eu 0.53885 0.52317 0.06322 0.0
N256 N 0.55093 0.56304 0.03771 0.0
C257 C 0.56853 0.60831 1.00796 0.0
C258 C 0.53409 0.58332 0.02743 0.0
C259 C 0.54249 0.60607 1.01198 0.0
H260 H 0.5924 0.48649 0.08837 0.0
H261 H 0.5289 0.62195 1.00344 0.0
H262 H 0.43513 0.53409 0.98486 0.0
H263 H 0.49562 0.39136 0.0425 0.0
H264 H 0.51431 0.58234 0.0315 0.0
H265 H 0.57495 0.62595 0.99593 0.0
H266 H 0.51155 0.43365 0.02329 0.0
H267 H 0.63938 0.48789 0.08531 0.0
H268 H 0.62013 0.60673 1.00546 0.0
H269 H 0.65014 0.57056 0.02792 0.0
H270 H 0.389 0.53261 0.99195 0.0
H271 H 0.65756 0.52634 0.05779 0.0
H272 H 0.44922 0.38615 0.04761 0.0
N273 N 0.44288 0.49482 1.00311 0.0
C274 C 0.43285 0.47191 0.01359 0.0
C275 C 0.40111 0.51543 0.99802 0.0
C276 C 0.4063 0.47 0.01668 0.0
C277 C 0.42739 0.51632 0.99467 0.0
C278 C 0.39049 0.49218 1.009 0.0
N279 N 0.47518 0.45296 0.02013 0.0
C280 C 0.49162 0.43207 0.02683 0.0
C281 C 0.43934 0.42637 0.03258 0.0
C282 C 0.44935 0.45037 0.02198 0.0
C283 C 0.45627 0.40502 0.04012 0.0
C284 C 0.48251 0.40789 0.03725 0.0
H285 H 0.37005 0.49155 1.01131 0.0
H286 H 0.376 0.44429 0.02978 0.0
H287 H 0.40469 0.40606 0.04279 0.0
O288 O 0.49432 0.47131 0.96226 0.0
O289 O 0.47891 0.48938 0.04827 0.0
O290 O 0.51907 0.48648 0.07964 0.0
O291 O 0.46123 0.49739 0.95389 0.0
O292 O 0.5288 0.47749 1.00884 0.0
O293 O 0.54569 0.48081 0.06027 0.0
O294 O 0.53184 0.54925 0.09591 0.0
O295 O 0.54857 0.52472 0.01436 0.0
O296 O 0.50884 0.52983 0.98254 0.0
O297 O 0.56161 0.51971 0.1101 0.0
O298 O 0.49651 0.53767 0.05342 0.0
O299 O 0.48353 0.53648 1.00114 0.0
C300 C 0.49401 0.48164 0.07483 0.0
C301 C 0.47992 0.48956 0.91066 0.0
C302 C 0.47598 0.48237 0.85641 0.0
C303 C 0.49058 0.50471 0.85072 0.0
C304 C 0.49433 0.51173 0.90445 0.0
C305 C 0.49956 0.51932 0.8746 0.0
C306 C 0.47068 0.47495 0.88662 0.0
C307 C 0.54543 0.47032 0.03453 0.0
C308 C 0.47465 0.48138 0.94216 0.0
C309 C 0.39638 0.44614 0.02743 0.0
C310 C 0.41278 0.42437 0.03505 0.0
C311 C 0.53425 0.53262 0.98741 0.0
C312 C 0.53943 0.53216 0.14857 0.0
C313 C 0.54198 0.53846 0.20299 0.0
C314 C 0.52045 0.52218 0.20481 0.0
C315 C 0.51771 0.51646 0.1508 0.0
C316 C 0.55158 0.54311 0.17469 0.0
C317 C 0.50845 0.51128 0.17888 0.0
C318 C 0.48147 0.54578 0.02692 0.0
C319 C 0.54876 0.53799 0.11873 0.0
H320 H 0.49469 0.51114 0.82768 0.0
H321 H 0.50139 0.52313 0.92271 0.0
H322 H 0.51047 0.53665 0.86993 0.0
H323 H 0.45968 0.45767 0.89154 0.0
H324 H 0.51287 0.51784 0.22634 0.0
H325 H 0.50777 0.50852 0.13069 0.0
H326 H 0.56798 0.55575 0.1727 0.0
H327 H 0.49177 0.49897 0.18046 0.0
H328 H 0.19135 0.23791 0.48938 0.0
H329 H 0.16002 0.20375 0.49728 0.0
H330 H 0.21752 0.14684 0.49008 0.0
H331 H 0.2493 0.18095 0.48272 0.0
H332 H 0.16712 0.13634 0.45966 0.0
H333 H 0.20819 0.1562 0.55946 0.0
H334 H 0.2232 0.18475 0.59898 0.0
H335 H 0.14417 0.20912 0.59717 0.0
H336 H 0.12873 0.181 0.55727 0.0
H337 H 0.10012 0.03033 0.52485 0.0
H338 H 0.13402 0.06177 0.51703 0.0
H339 H 0.08333 0.12231 0.53169 0.0
H340 H 0.04946 0.09088 0.53991 0.0
H341 H 0.13199 0.1296 0.55849 0.0
H342 H 0.0907 0.11112 0.45792 0.0
H343 H 0.07489 0.08179 0.41956 0.0
H344 H 0.1532 0.05467 0.42285 0.0
H345 H 0.16946 0.0836 0.46162 0.0
C346 C 0.19743 0.21815 0.48948 0.0
C347 C 0.22304 0.21223 0.48584 0.0
C348 C 0.17941 0.19863 0.49386 0.0
C349 C 0.18652 0.17269 0.49472 0.0
C350 C 0.21161 0.16672 0.48954 0.0
C351 C 0.22974 0.18628 0.48524 0.0
C352 C 0.16818 0.15191 0.50277 0.0
C353 C 0.1597 0.13464 0.48143 0.0
C354 C 0.15814 0.14991 0.53097 0.0
C355 C 0.16734 0.16667 0.55517 0.0
C356 C 0.19403 0.1678 0.56732 0.0
C357 C 0.20262 0.18388 0.58981 0.0
C358 C 0.18466 0.19879 0.60053 0.0
C359 C 0.15806 0.19759 0.58882 0.0
C360 C 0.14938 0.18156 0.56628 0.0
C361 C 0.09609 0.0503 0.52628 0.0
C362 C 0.07167 0.05807 0.53203 0.0
C363 C 0.11556 0.0683 0.52187 0.0
C364 C 0.11101 0.09457 0.5229 0.0
C365 C 0.08723 0.10221 0.53044 0.0
C366 C 0.06781 0.08416 0.53506 0.0
C367 C 0.13066 0.11417 0.51528 0.0
C368 C 0.13942 0.13123 0.53673 0.0
C369 C 0.14082 0.11601 0.48713 0.0
C370 C 0.13128 0.0994 0.46284 0.0
C371 C 0.10455 0.09887 0.4505 0.0
C372 C 0.0955 0.08231 0.4287 0.0
C373 C 0.11303 0.06637 0.41879 0.0
C374 C 0.13966 0.06706 0.43053 0.0
C375 C 0.14881 0.08355 0.45241 0.0
H376 H 0.10598 0.05346 0.40202 0.0
H377 H 0.19134 0.21123 0.61794 0.0
H378 H 0.30299 0.70895 0.05605 0.0
H379 H 0.33582 0.6747 0.06063 0.0
H380 H 0.36115 0.7106 0.97712 0.0
H381 H 0.32861 0.74488 0.97253 0.0
H382 H 0.35404 0.6603 0.9752 0.0
H383 H 0.39785 0.71307 0.04859 0.0
H384 H 0.40277 0.73666 0.09413 0.0
H385 H 0.3938 0.6663 0.15296 0.0
H386 H 0.38847 0.64233 0.10768 0.0
H387 H 0.46743 0.58496 0.98041 0.0
H388 H 0.43611 0.61991 0.97875 0.0
H389 H 0.41981 0.58775 0.06873 0.0
H390 H 0.45257 0.55377 0.07121 0.0
H391 H 0.42139 0.63585 0.06782 0.0
H392 H 0.37629 0.58312 0.99329 0.0
H393 H 0.37022 0.56047 0.94676 0.0
H394 H 0.38169 0.63107 0.88986 0.0
H395 H 0.38763 0.6542 0.93583 0.0
C396 C 0.3158 0.70975 0.03892 0.0
C397 C 0.31303 0.7296 0.01381 0.0
C398 C 0.33455 0.69013 0.04154 0.0
C399 C 0.35102 0.69009 0.01924 0.0
C400 C 0.34857 0.71011 0.99449 0.0
C401 C 0.32987 0.72967 0.99185 0.0
C402 C 0.37022 0.66877 0.02092 0.0
C403 C 0.36895 0.6551 0.99535 0.0
C404 C 0.38928 0.66158 0.04745 0.0
C405 C 0.39248 0.67596 0.07469 0.0
C406 C 0.3967 0.70267 0.0712 0.0
C407 C 0.39961 0.7161 0.09697 0.0
C408 C 0.39852 0.703 0.1264 0.0
C409 C 0.39459 0.67643 0.13014 0.0
C410 C 0.39165 0.66291 0.10443 0.0
C411 C 0.45709 0.5854 0.99978 0.0
C412 C 0.46229 0.56669 0.02589 0.0
C413 C 0.43898 0.60525 0.99873 0.0
C414 C 0.42492 0.60624 0.02325 0.0
C415 C 0.43026 0.58748 0.04943 0.0
C416 C 0.44895 0.56805 0.05086 0.0
C417 C 0.40524 0.62716 0.02206 0.0
C418 C 0.40639 0.64083 0.04773 0.0
C419 C 0.38599 0.63435 0.99558 0.0
C420 C 0.38262 0.62033 0.96803 0.0
C421 C 0.37767 0.59376 0.97087 0.0
C422 C 0.37423 0.58086 0.94463 0.0
C423 C 0.37576 0.59428 0.91549 0.0
C424 C 0.38056 0.62069 0.91246 0.0
C425 C 0.38387 0.63372 0.93856 0.0
H426 H 0.37312 0.58422 0.89524 0.0
H427 H 0.40079 0.71344 0.14633 0.0
H428 H 0.80164 0.80235 0.52616 0.0
H429 H 0.83515 0.83496 0.52294 0.0
H430 H 0.85551 0.82469 0.62265 0.0
H431 H 0.82181 0.79184 0.62606 0.0
H432 H 0.8548 0.8752 0.59958 0.0
H433 H 0.89351 0.79825 0.57852 0.0
H434 H 0.89622 0.75943 0.55282 0.0
H435 H 0.89201 0.80645 0.46482 0.0
H436 H 0.88888 0.84556 0.48993 0.0
H437 H 0.97316 0.94539 0.59535 0.0
H438 H 0.942 0.91105 0.60493 0.0
H439 H 0.91511 0.91503 0.50646 0.0
H440 H 0.94604 0.94931 0.4969 0.0
H441 H 0.92146 0.86586 0.53287 0.0
H442 H 0.8799 0.94242 0.5537 0.0
H443 H 0.87733 0.98131 0.57946 0.0
H444 H 0.88746 0.9347 0.66821 0.0
H445 H 0.89043 0.8956 0.643 0.0
C446 C 0.81334 0.80685 0.54744 0.0
C447 C 0.80925 0.79418 0.57636 0.0
C448 C 0.8325 0.82556 0.54556 0.0
C449 C 0.84824 0.83197 0.57251 0.0
C450 C 0.8437 0.81999 0.60152 0.0
C451 C 0.8244 0.80126 0.60344 0.0
C452 C 0.86951 0.85098 0.57011 0.0
C453 C 0.86963 0.87294 0.58541 0.0
C454 C 0.88869 0.84829 0.55126 0.0
C455 C 0.89074 0.82482 0.53609 0.0
C456 C 0.89297 0.8003 0.55365 0.0
C457 C 0.89461 0.77825 0.53919 0.0
C458 C 0.89423 0.78047 0.5072 0.0
C459 C 0.89228 0.80476 0.4896 0.0
C460 C 0.8906 0.82688 0.50394 0.0
C461 C 0.96065 0.9388 0.5758 0.0
C462 C 0.96233 0.94969 0.54537 0.0
C463 C 0.9428 0.91927 0.58128 0.0
C464 C 0.92607 0.91052 0.55642 0.0
C465 C 0.9279 0.9213 0.52601 0.0
C466 C 0.94573 0.94078 0.52055 0.0
C467 C 0.90649 0.89027 0.56189 0.0
C468 C 0.90673 0.86803 0.54721 0.0
C469 C 0.88771 0.8927 0.58133 0.0
C470 C 0.88568 0.91615 0.5965 0.0
C471 C 0.88179 0.94052 0.57872 0.0
C472 C 0.88023 0.96258 0.59321 0.0
C473 C 0.88234 0.96048 0.62545 0.0
C474 C 0.88589 0.9363 0.64325 0.0
C475 C 0.88749 0.91419 0.62887 0.0
H476 H 0.88113 0.97758 0.63662 0.0
H477 H 0.8955 0.76337 0.49605 0.0
H478 H 0.69627 0.27137 0.04592 0.0
H479 H 0.66454 0.30383 0.05224 0.0
H480 H 0.69746 0.35934 0.98886 0.0
H481 H 0.72964 0.32723 0.98308 0.0
H482 H 0.68781 0.38082 0.03792 0.0
H483 H 0.64122 0.32902 0.96516 0.0
H484 H 0.62427 0.28872 0.94654 0.0
H485 H 0.58124 0.27514 0.02215 0.0
H486 H 0.59823 0.31521 0.04147 0.0
H487 H 0.55475 0.4489 0.98396 0.0
H488 H 0.58688 0.41578 0.98178 0.0
H489 H 0.61275 0.41209 0.08029 0.0
H490 H 0.57967 0.44448 0.08309 0.0
H491 H 0.59287 0.36483 0.01406 0.0
H492 H 0.6829 0.40575 0.08689 0.0
H493 H 0.70142 0.44748 0.09912 0.0
H494 H 0.65766 0.48551 0.01444 0.0
H495 H 0.6392 0.444 1.00149 0.0
C496 C 0.69693 0.29056 0.03357 0.0
C497 C 0.71545 0.29666 0.01388 0.0
C498 C 0.67864 0.30904 0.03701 0.0
C499 C 0.67845 0.33397 0.0208 0.0
C500 C 0.69719 0.34023 1.00156 0.0
C501 C 0.71543 0.32177 0.99805 0.0
C502 C 0.65859 0.35351 0.02352 0.0
C503 C 0.66705 0.37723 0.03292 0.0
C504 C 0.63148 0.34903 0.01653 0.0
C505 C 0.62122 0.32496 1.00494 0.0
C506 C 0.62831 0.31733 0.97796 0.0
C507 C 0.61867 0.29455 0.96725 0.0
C508 C 0.60175 0.27934 0.9832 0.0
C509 C 0.59438 0.28692 1.00985 0.0
C510 C 0.604 0.30967 0.02068 0.0
C511 C 0.56711 0.44104 1.00531 0.0
C512 C 0.56486 0.44981 0.03368 0.0
C513 C 0.58549 0.42206 1.00395 0.0
C514 C 0.60233 0.41167 0.03079 0.0
C515 C 0.60011 0.42013 0.05923 0.0
C516 C 0.58134 0.43882 0.06073 0.0
C517 C 0.62214 0.39195 0.02882 0.0
C518 C 0.61363 0.36822 0.01952 0.0
C519 C 0.64919 0.39659 0.03539 0.0
C520 C 0.65943 0.4218 0.04345 0.0
C521 C 0.6772 0.42304 0.07092 0.0
C522 C 0.68775 0.44663 0.07792 0.0
C523 C 0.68078 0.4691 0.05752 0.0
C524 C 0.66306 0.46808 0.0302 0.0
C525 C 0.65247 0.44453 0.02309 0.0
H526 H 0.68906 0.48732 0.06294 0.0
H527 H 0.59429 0.26171 0.97488 0.0
H528 H 0.2003 0.90874 0.18219 0.0
H529 H 0.18437 0.9281 0.22327 0.0
H530 H 0.12322 0.87201 0.22433 0.0
H531 H 0.13886 0.85282 0.18271 0.0
H532 H 0.10448 0.91734 0.23073 0.0
H533 H 0.17871 0.86625 0.28 0.0
H534 H 0.22411 0.8501 0.28837 0.0
H535 H 0.25212 0.92555 0.30342 0.0
H536 H 0.20686 0.94226 0.29468 0.0
H537 H 0.08271 0.93696 0.38435 0.0
H538 H 0.09274 0.91851 0.33928 0.0
H539 H 0.14553 0.98053 0.32218 0.0
H540 H 0.13487 0.99975 0.36626 0.0
H541 H 0.1673 0.93036 0.32498 0.0
H542 H 0.09067 0.98036 0.27544 0.0
H543 H 0.04458 0.99402 0.26904 0.0
H544 H 0.02032 0.9168 0.25752 0.0
H545 H 0.06631 0.90258 0.26435 0.0
C546 C 0.1835 0.90048 0.19122 0.0
C547 C 0.171 0.87909 0.17939 0.0
C548 C 0.17439 0.91156 0.21474 0.0
C549 C 0.15286 0.90124 0.2274 0.0
C550 C 0.13989 0.8803 0.21504 0.0
C551 C 0.14885 0.86935 0.19125 0.0
C552 C 0.14432 0.91204 0.25389 0.0
C553 C 0.11816 0.91985 0.2515 0.0
C554 C 0.16213 0.91552 0.28101 0.0
C555 C 0.18939 0.90555 0.28639 0.0
C556 C 0.19456 0.87944 0.28486 0.0
C557 C 0.22026 0.87018 0.28971 0.0
C558 C 0.24099 0.8868 0.29635 0.0
C559 C 0.23604 0.91271 0.29823 0.0
C560 C 0.21037 0.92208 0.29336 0.0
C561 C 0.09603 0.94703 0.37066 0.0
C562 C 0.10811 0.96981 0.37924 0.0
C563 C 0.10184 0.93634 0.34498 0.0
C564 C 0.11995 0.94811 0.32747 0.0
C565 C 0.13164 0.97104 0.33553 0.0
C566 C 0.12562 0.98191 0.36091 0.0
C567 C 0.12766 0.93599 0.30155 0.0
C568 C 0.15366 0.92781 0.30417 0.0
C569 C 0.10961 0.9318 0.27498 0.0
C570 C 0.08195 0.94035 0.27075 0.0
C571 C 0.07552 0.96624 0.27184 0.0
C572 C 0.04941 0.97409 0.26808 0.0
C573 C 0.02953 0.95628 0.26297 0.0
C574 C 0.03573 0.93057 0.26153 0.0
C575 C 0.06182 0.92261 0.26533 0.0
H576 H 1.00933 0.9624 0.26005 0.0
H577 H 0.26088 0.8796 0.3001 0.0
H578 H 0.61074 0.65541 0.74436 0.0
H579 H 0.58872 0.63522 0.78609 0.0
H580 H 0.66181 0.60135 0.83461 0.0
H581 H 0.68387 0.62104 0.79265 0.0
H582 H 0.62215 0.56687 0.83535 0.0
H583 H 0.63701 0.65403 0.85719 0.0
H584 H 0.63466 0.70137 0.84529 0.0
H585 H 0.55098 0.69889 0.82844 0.0
H586 H 0.55284 0.65148 0.83982 0.0
H587 H 0.58562 0.52977 0.98175 0.0
H588 H 0.60706 0.55108 0.94024 0.0
H589 H 0.53397 0.58721 0.89515 0.0
H590 H 0.51259 0.56672 0.93739 0.0
H591 H 0.57304 0.62046 0.89211 0.0
H592 H 0.55718 0.53449 0.86862 0.0
H593 H 0.55799 0.48714 0.88052 0.0
H594 H 0.64175 0.48721 0.89915 0.0
H595 H 0.64133 0.53465 0.88778 0.0
C596 C 0.6221 0.64347 0.76376 0.0
C597 C 0.64912 0.63995 0.76518 0.0
C598 C 0.60951 0.6321 0.78774 0.0
C599 C 0.62364 0.61698 0.8137 0.0
C600 C 0.6505 0.61301 0.8149 0.0
C601 C 0.66313 0.62446 0.79099 0.0
C602 C 0.61049 0.60547 0.83971 0.0
C603 C 0.6117 0.57863 0.848 0.0
C604 C 0.59624 0.62069 0.85576 0.0
C605 C 0.59508 0.64919 0.84905 0.0
C606 C 0.61811 0.66357 0.85071 0.0
C607 C 0.61687 0.69041 0.8441 0.0
C608 C 0.59268 0.70312 0.83603 0.0
C609 C 0.56969 0.68901 0.83464 0.0
C610 C 0.57084 0.66216 0.8412 0.0
C611 C 0.57412 0.54239 0.96311 0.0
C612 C 0.54727 0.54617 0.96255 0.0
C613 C 0.58638 0.55444 0.93926 0.0
C614 C 0.57204 0.57034 0.91416 0.0
C615 C 0.54542 0.57487 0.91411 0.0
C616 C 0.53317 0.56296 0.93812 0.0
C617 C 0.58476 0.58189 0.88779 0.0
C618 C 0.58347 0.6087 0.87943 0.0
C619 C 0.59875 0.56664 0.87149 0.0
C620 C 0.59918 0.5381 0.87765 0.0
C621 C 0.57573 0.52439 0.87545 0.0
C622 C 0.57613 0.49755 0.88207 0.0
C623 C 0.59992 0.48417 0.89067 0.0
C624 C 0.62334 0.49761 0.89252 0.0
C625 C 0.62303 0.52448 0.88595 0.0
H626 H 0.60021 0.46339 0.89584 0.0
H627 H 0.59176 0.72391 0.83092 0.0
H628 H 0.86811 0.09572 0.19924 0.0
H629 H 0.89045 0.07316 0.24852 0.0
H630 H 0.92774 0.14374 0.27099 0.0
H631 H 0.90583 0.16633 0.22152 0.0
H632 H 0.96161 0.1017 0.28595 0.0
H633 H 0.87522 0.12444 0.30146 0.0
H634 H 0.82714 0.12553 0.2899 0.0
H635 H 0.82594 0.04287 0.3047 0.0
H636 H 0.87406 0.04129 0.31593 0.0
H637 H 0.99991 0.07112 0.44814 0.0
H638 H 0.98061 0.09065 0.39611 0.0
H639 H 0.93863 0.02072 0.38116 0.0
H640 H 0.95695 1.0016 0.43386 0.0
H641 H 0.90759 0.06093 0.36126 0.0
H642 H 0.99335 0.03729 0.34799 0.0
H643 H 0.04139 0.0354 0.3604 0.0
H644 H 0.04422 0.11779 0.34127 0.0
H645 H 0.99616 0.12022 0.32922 0.0
C646 C 0.88135 0.10636 0.21448 0.0
C647 C 0.88508 0.13285 0.20656 0.0
C648 C 0.89396 0.09348 0.24271 0.0
C649 C 0.91055 0.10684 0.26356 0.0
C650 C 0.91497 0.13308 0.25529 0.0
C651 C 0.90227 0.146 0.22714 0.0
C652 C 0.92254 0.09373 0.29447 0.0
C653 C 0.94983 0.09296 0.30254 0.0
C654 C 0.90716 0.08181 0.31582 0.0
C655 C 0.87824 0.08275 0.30919 0.0
C656 C 0.86471 0.1065 0.30199 0.0
C657 C 0.83745 0.1072 0.29555 0.0
C658 C 0.8235 0.08428 0.29648 0.0
C659 C 0.83678 0.06061 0.30394 0.0
C660 C 0.86404 0.0598 0.31036 0.0
C661 C 0.98641 0.06001 0.43382 0.0
C662 C 0.9797 0.03498 0.4451 0.0
C663 C 0.97562 0.07106 0.40395 0.0
C664 C 0.95838 0.05705 0.38453 0.0
C665 C 0.95189 0.03189 0.39569 0.0
C666 C 0.96252 0.02092 0.42569 0.0
C667 C 0.94672 0.06882 0.35283 0.0
C668 C 0.91945 0.06943 0.34462 0.0
C669 C 0.96216 0.08037 0.33129 0.0
C670 C 0.99111 0.07895 0.33789 0.0
C671 C 1.0042 0.05502 0.34657 0.0
C672 C 0.03144 0.05385 0.35354 0.0
C673 C 0.04584 0.07646 0.35163 0.0
C674 C 0.03303 0.10029 0.34271 0.0
C675 C 1.00579 0.10158 0.33578 0.0
H676 H 0.06692 0.07553 0.35701 0.0
H677 H 0.8024 0.08487 0.29149 0.0
H678 H 0.35793 0.37563 0.62125 0.0
H679 H 0.37098 0.39023 0.67205 0.0
H680 H 0.45019 0.39822 0.65492 0.0
H681 H 0.43753 0.38272 0.60475 0.0
H682 H 0.44971 0.37793 0.7133 0.0
H683 H 0.40783 0.45037 0.6445 0.0
H684 H 0.37186 0.47316 0.60774 0.0
H685 H 0.32181 0.46135 0.67654 0.0
H686 H 0.35741 0.43818 0.7136 0.0
H687 H 0.50232 0.46842 0.81214 0.0
H688 H 0.48555 0.44538 0.76831 0.0
H689 H 0.41077 0.43865 0.79875 0.0
H690 H 0.42735 0.46213 0.84247 0.0
H691 H 0.40596 0.45525 0.73689 0.0
H692 H 0.44974 0.38648 0.8075 0.0
H693 H 0.48623 0.3645 0.84415 0.0
H694 H 0.5332 0.36988 0.77209 0.0
H695 H 0.49711 0.39226 0.73509 0.0
C696 C 0.37821 0.38012 0.62848 0.0
C697 C 0.39663 0.37821 0.60875 0.0
C698 C 0.38559 0.3887 0.65743 0.0
C699 C 0.4115 0.39571 0.66714 0.0
C700 C 0.43006 0.39305 0.64791 0.0
C701 C 0.42273 0.38442 0.61906 0.0
C702 C 0.41931 0.40651 0.69688 0.0
C703 C 0.44027 0.39495 0.71835 0.0
C704 C 0.40657 0.42833 0.70391 0.0
C705 C 0.38518 0.44229 0.68168 0.0
C706 C 0.38909 0.45246 0.6517 0.0
C707 C 0.36878 0.46547 0.63083 0.0
C708 C 0.34454 0.46863 0.63977 0.0
C709 C 0.34058 0.45884 0.66963 0.0
C710 C 0.36081 0.44578 0.69058 0.0
C711 C 0.4823 0.46204 0.80951 0.0
C712 C 0.46615 0.46714 0.83074 0.0
C713 C 0.4728 0.44868 0.7846 0.0
C714 C 0.44696 0.44009 0.78038 0.0
C715 C 0.4308 0.44502 0.80162 0.0
C716 C 0.44035 0.45827 0.82669 0.0
C717 C 0.43663 0.42692 0.75306 0.0
C718 C 0.41521 0.43805 0.73203 0.0
C719 C 0.44901 0.40476 0.74641 0.0
C720 C 0.47076 0.39125 0.76857 0.0
C721 C 0.46791 0.38317 0.79952 0.0
C722 C 0.48852 0.3706 0.82035 0.0
C723 C 0.51204 0.36585 0.81047 0.0
C724 C 0.51497 0.3736 0.77972 0.0
C725 C 0.49444 0.3862 0.75879 0.0
H726 H 0.52796 0.35611 0.82664 0.0
H727 H 0.32884 0.47872 0.62358 0.0
H728 H 0.59127 0.63979 0.45516 0.0
H729 H 0.57699 0.62426 0.40527 0.0
H730 H 0.65669 0.60589 0.39965 0.0
H731 H 0.67118 0.62132 0.44981 0.0
H732 H 0.62959 0.62742 0.34314 0.0
H733 H 0.6177 0.55888 0.42245 0.0
H734 H 0.60225 0.53906 0.46989 0.0
H735 H 0.52295 0.55672 0.42718 0.0
H736 H 0.53796 0.577 0.37962 0.0
H737 H 0.59396 0.54421 0.22548 0.0
H738 H 0.61296 0.56304 0.27212 0.0
H739 H 0.53573 0.57972 0.28893 0.0
H740 H 0.51672 0.56088 0.24262 0.0
H741 H 0.5644 0.55773 0.34028 0.0
H742 H 0.57629 0.62722 0.26125 0.0
H743 H 0.59177 0.64745 0.214 0.0
H744 H 0.67093 0.62807 0.25584 0.0
H745 H 0.65588 0.6074 0.30321 0.0
C746 C 0.60579 0.6324 0.44339 0.0
C747 C 0.63234 0.6315 0.45672 0.0
C748 C 0.5976 0.62361 0.4148 0.0
C749 C 0.61572 0.61352 0.39894 0.0
C750 C 0.64236 0.61355 0.4115 0.0
C751 C 0.6506 0.62241 0.44015 0.0
C752 C 0.6066 0.60201 0.36996 0.0
C753 C 0.6156 0.61194 0.34255 0.0
C754 C 0.58809 0.58205 0.3691 0.0
C755 C 0.57898 0.56965 0.39757 0.0
C756 C 0.59698 0.55869 0.42325 0.0
C757 C 0.5883 0.54736 0.45015 0.0
C758 C 0.56164 0.54668 0.45157 0.0
C759 C 0.5436 0.55728 0.42606 0.0
C760 C 0.55218 0.56868 0.39911 0.0
C761 C 0.58107 0.55216 0.23895 0.0
C762 C 0.55382 0.55089 0.23044 0.0
C763 C 0.59195 0.56294 0.2656 0.0
C764 C 0.57579 0.57293 0.28403 0.0
C765 C 0.54862 0.57202 0.27524 0.0
C766 C 0.53777 0.56116 0.24878 0.0
C767 C 0.58694 0.58345 0.31316 0.0
C768 C 0.5784 0.5732 0.34075 0.0
C769 C 0.60585 0.60308 0.31409 0.0
C770 C 0.61493 0.61551 0.28564 0.0
C771 C 0.59698 0.62708 0.26027 0.0
C772 C 0.60568 0.63866 0.23349 0.0
C773 C 0.63231 0.63898 0.23189 0.0
C774 C 0.6503 0.62777 0.2571 0.0
C775 C 0.6417 0.61613 0.28392 0.0
H776 H 0.63901 0.64796 0.21113 0.0
H777 H 0.55496 0.5379 0.47242 0.0
H778 H 0.84387 0.15189 0.86652 0.0
H779 H 0.85687 0.14384 0.81772 0.0
H780 H 0.93107 0.11349 0.8674 0.0
H781 H 0.91863 0.12242 0.91611 0.0
H782 H 0.93801 0.14424 0.81725 0.0
H783 H 0.88238 0.07362 0.83904 0.0
H784 H 0.84238 0.05227 0.8518 0.0
H785 H 0.79825 0.0909 0.76772 0.0
H786 H 0.83794 0.11278 0.75466 0.0
H787 H 0.97502 0.08962 0.69047 0.0
H788 H 0.96236 0.09373 0.7408 0.0
H789 H 0.88949 0.12956 0.69447 0.0
H790 H 0.90178 0.12506 0.64417 0.0
H791 H 0.88271 0.09426 0.74374 0.0
H792 H 0.93911 0.16579 0.72345 0.0
H793 H 0.97971 0.18617 0.71116 0.0
H794 H 0.02314 0.14412 0.79349 0.0
H795 H 0.98282 0.12321 0.80604 0.0
C796 C 0.86304 0.1437 0.86707 0.0
C797 C 0.88014 0.13773 0.89533 0.0
C798 C 0.87034 0.13883 0.83915 0.0
C799 C 0.89483 0.12771 0.83888 0.0
C800 C 0.91203 0.12195 0.867 0.0
C801 C 0.90477 0.12686 0.8949 0.0
C802 C 0.90272 0.12252 0.80924 0.0
C803 C 0.92608 0.13298 0.80142 0.0
C804 C 0.88701 0.10816 0.78827 0.0
C805 C 0.8631 0.09504 0.79603 0.0
C806 C 0.86411 0.07773 0.82339 0.0
C807 C 0.8415 0.0655 0.83066 0.0
C808 C 0.81778 0.07028 0.81062 0.0
C809 C 0.81663 0.08725 0.78324 0.0
C810 C 0.83918 0.09956 0.77588 0.0
C811 C 0.95619 0.09812 0.69102 0.0
C812 C 0.93949 0.10718 0.6633 0.0
C813 C 0.94906 0.10063 0.71979 0.0
C814 C 0.92509 0.11222 0.7214 0.0
C815 C 0.90811 0.12064 0.6938 0.0
C816 C 0.91526 0.11824 0.66506 0.0
C817 C 0.91786 0.11611 0.75177 0.0
C818 C 0.89464 0.10542 0.75969 0.0
C819 C 0.93377 0.13009 0.77294 0.0
C820 C 0.958 0.14274 0.7655 0.0
C821 C 0.95735 0.16074 0.7388 0.0
C822 C 0.9803 0.17241 0.73181 0.0
C823 C 1.004 0.16639 0.75148 0.0
C824 C 1.00478 0.14873 0.77824 0.0
C825 C 0.98188 0.13698 0.78531 0.0
H826 H 0.02175 0.17545 0.74604 0.0
H827 H 0.8003 0.06079 0.81628 0.0
H828 H 0.42467 0.36648 0.3275 0.0
H829 H 0.44639 0.38718 0.28574 0.0
H830 H 0.37157 0.40384 0.22789 0.0
H831 H 0.3498 0.38253 0.26909 0.0
H832 H 0.4047 0.38352 0.1969 0.0
H833 H 0.40832 0.45086 0.26239 0.0
H834 H 0.41933 0.4701 0.31103 0.0
H835 H 0.50062 0.45423 0.31331 0.0
H836 H 0.49007 0.43453 0.26492 0.0
H837 H 0.44212 0.47466 0.07834 0.0
H838 H 0.42302 0.45214 0.12108 0.0
H839 H 0.49996 0.43478 0.17319 0.0
H840 H 0.51931 0.45647 0.12999 0.0
H841 H 0.46759 0.45473 0.20794 0.0
H842 H 0.46607 0.38571 0.14734 0.0
H843 H 0.45742 0.36125 0.10263 0.0
H844 H 0.37541 0.37759 0.0931 0.0
H845 H 0.38359 0.40204 0.13796 0.0
C846 C 0.41283 0.37447 0.30585 0.0
C847 C 0.38544 0.3728 0.30173 0.0
C848 C 0.42528 0.38656 0.28209 0.0
C849 C 0.41063 0.39733 0.25371 0.0
C850 C 0.38332 0.39578 0.24959 0.0
C851 C 0.37086 0.38374 0.27331 0.0
C852 C 0.42368 0.40918 0.22774 0.0
C853 C 0.4181 0.3994 0.19921 0.0
C854 C 0.44202 0.4292 0.23103 0.0
C855 C 0.44836 0.44095 0.26021 0.0
C856 C 0.42852 0.45124 0.27342 0.0
C857 C 0.43468 0.46227 0.30092 0.0
C858 C 0.46065 0.46331 0.31531 0.0
C859 C 0.48051 0.45337 0.30218 0.0
C860 C 0.47445 0.44228 0.27471 0.0
C861 C 0.45506 0.46558 0.09853 0.0
C862 C 0.4823 0.46722 0.10046 0.0
C863 C 0.44407 0.45279 0.12308 0.0
C864 C 0.46004 0.44164 0.15034 0.0
C865 C 0.48724 0.4432 0.15239 0.0
C866 C 0.49826 0.45561 0.12762 0.0
C867 C 0.44827 0.42926 0.17706 0.0
C868 C 0.4541 0.43892 0.20567 0.0
C869 C 0.43037 0.40892 0.17404 0.0
C870 C 0.42547 0.39589 0.14578 0.0
C871 C 0.44623 0.38436 0.13547 0.0
C872 C 0.44139 0.37032 0.11027 0.0
C873 C 0.41587 0.3678 0.09509 0.0
C874 C 0.39515 0.37946 0.10497 0.0
C875 C 0.39987 0.39337 0.13031 0.0
H876 H 0.41217 0.35693 0.07556 0.0
H877 H 0.46538 0.47188 0.33658 0.0
H878 H 0.13753 0.94838 0.86988 0.0
H879 H 0.12075 0.96371 0.81558 0.0
H880 H 0.12503 0.88638 0.79263 0.0
H881 H 0.14159 0.87077 0.84709 0.0
H882 H 0.14182 0.92266 0.74872 0.0
H883 H 0.06784 0.90985 0.80147 0.0
H884 H 0.04196 0.91518 0.84243 0.0
H885 H 0.03865 0.99702 0.81547 0.0
H886 H 0.06485 0.99221 0.77461 0.0
H887 H 0.05846 0.94382 0.60232 0.0
H888 H 0.07999 0.92797 0.65485 0.0
H889 H 0.0664 1.00178 0.68384 0.0
H890 H 0.04399 0.01717 0.63137 0.0
H891 H 0.05508 0.96634 0.72477 0.0
H892 H 0.12884 0.97969 0.67169 0.0
H893 H 0.15382 0.97452 0.62984 0.0
H894 H 0.15758 0.89266 0.65658 0.0
H895 H 0.13231 0.8973 0.69835 0.0
C896 C 0.13481 0.93458 0.85334 0.0
C897 C 0.14063 0.90828 0.86295 0.0
C898 C 0.12534 0.9434 0.82227 0.0
C899 C 0.12134 0.92614 0.80012 0.0
C900 C 0.12799 0.90003 0.80934 0.0
C901 C 0.13748 0.89116 0.84048 0.0
C902 C 0.10913 0.93521 0.76766 0.0
C903 C 0.12275 0.93199 0.74338 0.0
C904 C 0.08445 0.94777 0.76078 0.0
C905 C 0.06852 0.95069 0.78518 0.0
C906 C 0.06176 0.929 0.80443 0.0
C907 C 0.047 0.93192 0.8276 0.0
C908 C 0.03872 0.95643 0.8316 0.0
C909 C 0.04511 0.97806 0.81237 0.0
C910 C 0.05989 0.97524 0.78919 0.0
C911 C 0.06063 0.95674 0.61976 0.0
C912 C 0.05012 0.9818 0.61278 0.0
C913 C 0.07287 0.9477 0.64985 0.0
C914 C 0.07534 0.96381 0.67334 0.0
C915 C 0.06485 0.98896 0.66619 0.0
C916 C 0.05214 0.99779 0.63625 0.0
C917 C 0.08789 0.95423 0.70561 0.0
C918 C 0.07425 0.9572 0.72995 0.0
C919 C 0.1126 0.94159 0.71248 0.0
C920 C 0.12854 0.93884 0.68804 0.0
C921 C 0.13495 0.96058 0.6686 0.0
C922 C 0.14915 0.95774 0.64489 0.0
C923 C 0.15728 0.93328 0.64055 0.0
C924 C 0.15129 0.9116 0.65999 0.0
C925 C 0.13706 0.91433 0.68372 0.0
H926 H 0.16819 0.93111 0.62211 0.0
H927 H 0.0273 0.95865 0.84956 0.0
loop_
_geom_bond_atom_site_label_1
_geom_bond_atom_site_label_2
_geom_bond_distance
_geom_bond_site_symmetry_2
_ccdc_geom_bond_type
C0 C1 1.264 . S
C0 C5 1.479 . S
C0 C10 1.465 . S
C1 C0 1.264 . S
C1 C3 1.339 . S
C1 H28 0.931 . S
C2 C3 1.395 . S
C2 C4 1.320 . S
C3 C1 1.339 . S
C3 C2 1.395 . S
C3 H29 0.929 . S
C4 C2 1.320 . S
C4 C5 1.405 . S
C4 H30 0.930 . S
C5 C0 1.479 . S
C5 C4 1.405 . S
C5 H31 0.931 . S
U6 O7 2.454 . S
U6 O8 2.458 . S
U6 C9 2.984 . S
U6 C10 2.847 . S
U6 C23 2.882 1_554 S
U6 O24 2.441 . S
U6 O25 2.420 . S
U6 O26 2.455 1_554 S
U6 O27 2.449 1_554 S
O7 U6 2.454 . S
O7 C9 1.353 . S
O8 U6 2.458 . S
O8 C9 1.286 . S
C9 U6 2.984 . S
C9 O7 1.353 . S
C9 O8 1.286 . S
C9 C11 1.363 . S
C10 C0 1.465 . S
C10 U6 2.847 . S
C10 O24 1.249 . S
C10 O25 1.202 . S
C11 C9 1.363 . S
C11 C13 1.408 . S
C11 C16 1.342 . S
C12 C13 1.310 . S
C12 C15 1.461 . S
C12 H32 0.932 . S
C13 C11 1.408 . S
C13 C12 1.310 . S
C13 H33 0.930 . S
C14 C15 1.474 . S
C14 C16 1.285 . S
C14 H34 0.929 1_554 S
C15 C12 1.461 . S
C15 C14 1.474 . S
C16 C11 1.342 . S
C16 C14 1.285 . S
C16 H35 0.930 1_554 S
C17 C20 1.424 . S
C17 C22 1.245 . S
C17 C23 1.428 . S
C18 C21 1.260 . S
C18 C22 1.477 . S
C18 H36 0.932 . S
C19 C20 1.384 . S
C19 C21 1.479 . S
C19 H37 0.929 . S
C20 C17 1.424 . S
C20 C19 1.384 . S
C20 H38 0.928 . S
C21 C18 1.260 . S
C21 C19 1.479 . S
C22 C17 1.245 . S
C22 C18 1.477 . S
C22 H39 0.932 . S
C23 U6 2.882 1_556 S
C23 C17 1.428 . S
C23 O26 1.301 . S
C23 O27 1.282 . S
O24 U6 2.441 . S
O24 C10 1.249 . S
O25 U6 2.420 . S
O25 C10 1.202 . S
O26 U6 2.455 1_556 S
O26 C23 1.301 . S
O27 U6 2.449 1_556 S
O27 C23 1.282 . S
H28 C1 0.931 . S
H29 C3 0.929 . S
H30 C4 0.930 . S
H31 C5 0.931 . S
H32 C12 0.932 . S
H33 C13 0.930 . S
H34 C14 0.929 1_556 S
H35 C16 0.930 1_556 S
H36 C18 0.932 . S
H37 C19 0.929 . S
H38 C20 0.928 . S
H39 C22 0.932 . S
C40 C41 1.264 . S
C40 C45 1.479 . S
C40 C50 1.465 . S
C41 C40 1.264 . S
C41 C43 1.339 . S
C41 H68 0.931 . S
C42 C43 1.395 . S
C42 C44 1.320 . S
C43 C41 1.339 . S
C43 C42 1.395 . S
C43 H69 0.929 . S
C44 C42 1.320 . S
C44 C45 1.405 . S
C44 H70 0.930 . S
C45 C40 1.479 . S
C45 C44 1.405 . S
C45 H71 0.931 . S
U46 O47 2.454 . S
U46 O48 2.458 . S
U46 C49 2.984 . S
U46 C50 2.847 . S
U46 C63 2.882 . S
U46 O64 2.441 . S
U46 O65 2.420 . S
U46 O66 2.455 . S
U46 O67 2.449 . S
O47 U46 2.454 . S
O47 C49 1.353 . S
O48 U46 2.458 . S
O48 C49 1.286 . S
C49 U46 2.984 . S
C49 O47 1.353 . S
C49 O48 1.286 . S
C49 C51 1.363 . S
C50 C40 1.465 . S
C50 U46 2.847 . S
C50 O64 1.249 . S
C50 O65 1.202 . S
C51 C49 1.363 . S
C51 C53 1.408 . S
C51 C56 1.342 . S
C52 C53 1.310 . S
C52 C55 1.461 . S
C52 H72 0.932 . S
C53 C51 1.408 . S
C53 C52 1.310 . S
C53 H73 0.930 . S
C54 C55 1.474 . S
C54 C56 1.285 . S
C54 H74 0.929 . S
C55 C52 1.461 . S
C55 C54 1.474 . S
C56 C51 1.342 . S
C56 C54 1.285 . S
C56 H75 0.930 . S
C57 C60 1.424 . S
C57 C62 1.245 . S
C57 C63 1.428 . S
C58 C61 1.260 . S
C58 C62 1.477 . S
C58 H76 0.932 . S
C59 C60 1.384 . S
C59 C61 1.479 . S
C59 H77 0.929 . S
C60 C57 1.424 . S
C60 C59 1.384 . S
C60 H78 0.928 . S
C61 C58 1.260 . S
C61 C59 1.479 . S
C62 C57 1.245 . S
C62 C58 1.477 . S
C62 H79 0.932 . S
C63 U46 2.882 . S
C63 C57 1.428 . S
C63 O66 1.301 . S
C63 O67 1.282 . S
O64 U46 2.441 . S
O64 C50 1.249 . S
O65 U46 2.420 . S
O65 C50 1.202 . S
O66 U46 2.455 . S
O66 C63 1.301 . S
O67 U46 2.449 . S
O67 C63 1.282 . S
H68 C41 0.931 . S
H69 C43 0.929 . S
H70 C44 0.930 . S
H71 C45 0.931 . S
H72 C52 0.932 . S
H73 C53 0.930 . S
H74 C54 0.929 . S
H75 C56 0.930 . S
H76 C58 0.932 . S
H77 C59 0.929 . S
H78 C60 0.928 . S
H79 C62 0.932 . S
C80 C81 1.264 . S
C80 C85 1.479 . S
C80 C90 1.465 . S
C81 C80 1.264 . S
C81 C83 1.339 . S
C81 H108 0.931 . S
C82 C83 1.395 . S
C82 C84 1.320 . S
C83 C81 1.339 . S
C83 C82 1.395 . S
C83 H109 0.929 . S
C84 C82 1.320 . S
C84 C85 1.405 . S
C84 H110 0.930 . S
C85 C80 1.479 . S
C85 C84 1.405 . S
C85 H111 0.931 . S
U86 O87 2.454 . S
U86 O88 2.458 1_554 S
U86 C89 2.984 . S
U86 C90 2.847 . S
U86 C103 2.882 1_554 S
U86 O104 2.441 . S
U86 O105 2.420 . S
U86 O106 2.455 1_554 S
U86 O107 2.449 1_554 S
O87 U86 2.454 . S
O87 C89 1.353 . S
O88 U86 2.458 1_556 S
O88 C89 1.286 1_556 S
C89 U86 2.984 . S
C89 O87 1.353 . S
C89 O88 1.286 1_554 S
C89 C91 1.363 . S
C90 C80 1.465 . S
C90 U86 2.847 . S
C90 O104 1.249 . S
C90 O105 1.202 . S
C91 C89 1.363 . S
C91 C93 1.408 . S
C91 C96 1.342 1_554 S
C92 C93 1.310 . S
C92 C95 1.461 1_554 S
C92 H112 0.932 . S
C93 C91 1.408 . S
C93 C92 1.310 . S
C93 H113 0.930 . S
C94 C95 1.474 . S
C94 C96 1.285 . S
C94 H114 0.929 . S
C95 C92 1.461 1_556 S
C95 C94 1.474 . S
C96 C91 1.342 1_556 S
C96 C94 1.285 . S
C96 H115 0.930 . S
C97 C100 1.424 . S
C97 C102 1.245 . S
C97 C103 1.428 . S
C98 C101 1.260 . S
C98 C102 1.477 . S
C98 H116 0.932 . S
C99 C100 1.384 . S
C99 C101 1.479 . S
C99 H117 0.929 . S
C100 C97 1.424 . S
C100 C99 1.384 . S
C100 H118 0.928 . S
C101 C98 1.260 . S
C101 C99 1.479 . S
C102 C97 1.245 . S
C102 C98 1.477 . S
C102 H119 0.932 . S
C103 U86 2.882 1_556 S
C103 C97 1.428 . S
C103 O106 1.301 . S
C103 O107 1.282 . S
O104 U86 2.441 . S
O104 C90 1.249 . S
O105 U86 2.420 . S
O105 C90 1.202 . S
O106 U86 2.455 1_556 S
O106 C103 1.301 . S
O107 U86 2.449 1_556 S
O107 C103 1.282 . S
H108 C81 0.931 . S
H109 C83 0.929 . S
H110 C84 0.930 . S
H111 C85 0.931 . S
H112 C92 0.932 . S
H113 C93 0.930 . S
H114 C94 0.929 . S
H115 C96 0.930 . S
H116 C98 0.932 . S
H117 C99 0.929 . S
H118 C100 0.928 . S
H119 C102 0.932 . S
C120 C121 1.264 . S
C120 C125 1.479 . S
C120 C130 1.465 . S
C121 C120 1.264 . S
C121 C123 1.339 . S
C121 H148 0.931 . S
C122 C123 1.395 . S
C122 C124 1.320 . S
C123 C121 1.339 . S
C123 C122 1.395 . S
C123 H149 0.929 . S
C124 C122 1.320 . S
C124 C125 1.405 . S
C124 H150 0.930 . S
C125 C120 1.479 . S
C125 C124 1.405 . S
C125 H151 0.931 . S
U126 O127 2.454 . S
U126 O128 2.458 . S
U126 C129 2.984 . S
U126 C130 2.847 . S
U126 C143 2.882 . S
U126 O144 2.441 . S
U126 O145 2.420 . S
U126 O146 2.455 . S
U126 O147 2.449 . S
O127 U126 2.454 . S
O127 C129 1.353 . S
O128 U126 2.458 . S
O128 C129 1.286 . S
C129 U126 2.984 . S
C129 O127 1.353 . S
C129 O128 1.286 . S
C129 C131 1.363 . S
C130 C120 1.465 . S
C130 U126 2.847 . S
C130 O144 1.249 . S
C130 O145 1.202 . S
C131 C129 1.363 . S
C131 C133 1.408 . S
C131 C136 1.342 . S
C132 C133 1.310 . S
C132 C135 1.461 . S
C132 H152 0.932 . S
C133 C131 1.408 . S
C133 C132 1.310 . S
C133 H153 0.930 . S
C134 C135 1.474 . S
C134 C136 1.285 . S
C134 H154 0.929 . S
C135 C132 1.461 . S
C135 C134 1.474 . S
C136 C131 1.342 . S
C136 C134 1.285 . S
C136 H155 0.930 . S
C137 C140 1.424 . S
C137 C142 1.245 . S
C137 C143 1.428 . S
C138 C141 1.260 . S
C138 C142 1.477 . S
C138 H156 0.932 . S
C139 C140 1.384 . S
C139 C141 1.479 . S
C139 H157 0.929 . S
C140 C137 1.424 . S
C140 C139 1.384 . S
C140 H158 0.928 . S
C141 C138 1.260 . S
C141 C139 1.479 . S
C142 C137 1.245 . S
C142 C138 1.477 . S
C142 H159 0.932 . S
C143 U126 2.882 . S
C143 C137 1.428 . S
C143 O146 1.301 . S
C143 O147 1.282 . S
O144 U126 2.441 . S
O144 C130 1.249 . S
O145 U126 2.420 . S
O145 C130 1.202 . S
O146 U126 2.455 . S
O146 C143 1.301 . S
O147 U126 2.449 . S
O147 C143 1.282 . S
H148 C121 0.931 . S
H149 C123 0.929 . S
H150 C124 0.930 . S
H151 C125 0.931 . S
H152 C132 0.932 . S
H153 C133 0.930 . S
H154 C134 0.929 . S
H155 C136 0.930 . S
H156 C138 0.932 . S
H157 C139 0.929 . S
H158 C140 0.928 . S
H159 C142 0.932 . S
Eu160 N189 2.600 . S
Eu160 N195 2.562 . S
Eu160 O204 2.462 . S
Eu160 O205 2.373 . S
Eu160 O207 2.432 . S
Eu160 O208 2.291 1_565 S
Eu160 O212 2.336 1_455 S
Eu160 O215 2.372 1_455 S
Eu160 C224 2.787 . S
C161 N162 1.365 . S
C161 C164 1.405 . S
C161 C168 1.448 . S
N162 C161 1.365 . S
N162 C165 1.319 1_655 S
N162 Eu171 2.600 . S
C163 C165 1.397 . S
C163 C166 1.367 1_455 S
C163 H183 0.931 . S
C164 C161 1.405 . S
C164 C166 1.403 . S
C164 C170 1.439 . S
C165 N162 1.319 1_455 S
C165 C163 1.397 . S
C165 H176 0.930 . S
C166 C163 1.367 1_655 S
C166 C164 1.403 . S
C166 H187 0.929 . S
C167 C168 1.430 . S
C167 C169 1.387 . S
C167 C173 1.404 . S
C168 C161 1.448 . S
C168 C167 1.430 . S
C168 N172 1.351 . S
C169 C167 1.387 . S
C169 C170 1.374 . S
C169 H184 0.931 . S
C170 C164 1.439 . S
C170 C169 1.374 . S
C170 H185 0.931 . S
Eu171 N162 2.600 . S
Eu171 N172 2.562 . S
Eu171 O206 2.335 1_655 S
Eu171 O209 2.372 1_655 S
Eu171 O210 2.462 . S
Eu171 O211 2.373 . S
Eu171 O213 2.432 . S
Eu171 O214 2.291 1_545 S
Eu171 C235 2.787 . S
N172 C168 1.351 . S
N172 Eu171 2.562 . S
N172 C174 1.325 . S
C173 C167 1.404 . S
C173 C175 1.366 . S
C173 H181 0.930 . S
C174 N172 1.325 . S
C174 C175 1.416 . S
C174 H180 0.929 . S
C175 C173 1.366 . S
C175 C174 1.416 . S
C175 H177 0.930 . S
H176 C165 0.930 . S
H177 C175 0.930 . S
H178 C193 0.930 1_655 S
H179 C200 0.930 . S
H180 C174 0.929 . S
H181 C173 0.930 . S
H182 C196 0.929 . S
H183 C163 0.931 . S
H184 C169 0.931 . S
H185 C170 0.931 . S
H186 C191 0.931 1_655 S
H187 C166 0.929 . S
H188 C199 0.930 . S
N189 Eu160 2.600 . S
N189 C190 1.365 . S
N189 C193 1.319 . S
C190 N189 1.365 . S
C190 C192 1.405 . S
C190 C198 1.448 . S
C191 H186 0.931 1_455 S
C191 C193 1.397 . S
C191 C194 1.367 . S
C192 C190 1.405 . S
C192 C194 1.403 . S
C192 C225 1.439 . S
C193 H178 0.930 1_455 S
C193 N189 1.319 . S
C193 C191 1.397 . S
C194 C191 1.367 . S
C194 C192 1.403 . S
C194 H201 0.929 . S
N195 Eu160 2.562 . S
N195 C196 1.325 . S
N195 C198 1.351 . S
C196 H182 0.929 . S
C196 N195 1.325 . S
C196 C200 1.416 . S
C197 C198 1.430 . S
C197 C199 1.404 . S
C197 C226 1.387 . S
C198 C190 1.448 . S
C198 N195 1.351 . S
C198 C197 1.430 . S
C199 H188 0.930 . S
C199 C197 1.404 . S
C199 C200 1.366 . S
C200 H179 0.930 . S
C200 C196 1.416 . S
C200 C199 1.366 . S
H201 C194 0.929 . S
H202 C225 0.931 . S
H203 C226 0.931 . S
O204 Eu160 2.462 . S
O204 C224 1.252 . S
O205 Eu160 2.373 . S
O205 C216 1.249 . S
O206 Eu171 2.335 1_455 S
O206 C216 1.264 1_545 S
O207 Eu160 2.432 . S
O207 C224 1.268 . S
O208 Eu160 2.291 1_545 S
O208 C223 1.255 . S
O209 Eu171 2.372 1_455 S
O209 C223 1.257 . S
O210 Eu171 2.462 . S
O210 C235 1.252 . S
O211 Eu171 2.373 . S
O211 C227 1.249 . S
O212 Eu160 2.336 1_655 S
O212 C227 1.262 1_565 S
O213 Eu171 2.432 . S
O213 C235 1.268 . S
O214 Eu171 2.291 1_565 S
O214 C234 1.255 . S
O215 Eu160 2.372 1_655 S
O215 C234 1.257 . S
C216 O205 1.249 . S
C216 O206 1.264 1_565 S
C217 C220 1.382 . S
C217 C222 1.390 . S
C217 C224 1.506 . S
C218 C219 1.398 . S
C218 C222 1.392 . S
C219 C218 1.398 . S
C219 C221 1.372 . S
C219 H236 0.931 . S
C220 C217 1.382 . S
C220 C221 1.390 . S
C220 H237 0.931 . S
C221 C219 1.372 . S
C221 C220 1.390 . S
C221 H238 0.929 . S
C222 C217 1.390 . S
C222 C218 1.392 . S
C222 H239 0.930 . S
C223 O208 1.255 . S
C223 O209 1.257 . S
C224 Eu160 2.787 . S
C224 O204 1.252 . S
C224 O207 1.268 . S
C224 C217 1.506 . S
C225 C192 1.439 . S
C225 H202 0.931 . S
C225 C226 1.374 . S
C226 C197 1.387 . S
C226 H203 0.931 . S
C226 C225 1.374 . S
C227 O211 1.249 . S
C227 O212 1.262 1_545 S
C228 C231 1.382 . S
C228 C232 1.390 . S
C228 C235 1.506 . S
C229 C230 1.398 . S
C229 C232 1.392 . S
C230 C229 1.398 . S
C230 C233 1.372 . S
C230 H240 0.931 . S
C231 C228 1.382 . S
C231 C233 1.390 . S
C231 H241 0.931 . S
C232 C228 1.390 . S
C232 C229 1.392 . S
C232 H242 0.930 . S
C233 C230 1.372 . S
C233 C231 1.390 . S
C233 H243 0.929 . S
C234 O214 1.255 . S
C234 O215 1.257 . S
C235 Eu171 2.787 . S
C235 O210 1.252 . S
C235 O213 1.268 . S
C235 C228 1.506 . S
H236 C219 0.931 . S
H237 C220 0.931 . S
H238 C221 0.929 . S
H239 C222 0.930 . S
H240 C230 0.931 . S
H241 C231 0.931 . S
H242 C232 0.930 . S
H243 C233 0.929 . S
Eu244 N273 2.600 . S
Eu244 N279 2.559 1_556 S
Eu244 O288 2.462 . S
Eu244 O289 2.373 1_556 S
Eu244 O291 2.432 . S
Eu244 O292 2.291 1_556 S
Eu244 O296 2.335 . S
Eu244 O299 2.372 . S
Eu244 C308 2.787 . S
C245 N246 1.365 . S
C245 C248 1.405 . S
C245 C252 1.448 . S
N246 C245 1.365 . S
N246 C249 1.319 . S
N246 Eu255 2.600 . S
C247 C249 1.397 . S
C247 C250 1.367 . S
C247 H267 0.931 . S
C248 C245 1.405 . S
C248 C250 1.403 . S
C248 C254 1.439 . S
C249 N246 1.319 . S
C249 C247 1.397 . S
C249 H260 0.930 . S
C250 C247 1.367 . S
C250 C248 1.403 . S
C250 H271 0.929 . S
C251 C252 1.430 . S
C251 C253 1.387 . S
C251 C257 1.404 . S
C252 C245 1.448 . S
C252 C251 1.430 . S
C252 N256 1.351 . S
C253 C251 1.387 . S
C253 C254 1.374 . S
C253 H268 0.931 . S
C254 C248 1.439 . S
C254 C253 1.374 . S
C254 H269 0.931 . S
Eu255 N246 2.600 . S
Eu255 N256 2.562 . S
Eu255 O290 2.335 . S
Eu255 O293 2.372 . S
Eu255 O294 2.462 . S
Eu255 O295 2.373 1_554 S
Eu255 O297 2.432 . S
Eu255 O298 2.291 . S
Eu255 C319 2.787 . S
N256 C252 1.351 . S
N256 Eu255 2.562 . S
N256 C258 1.325 . S
C257 C251 1.404 . S
C257 C259 1.366 . S
C257 H265 0.938 . S
C258 N256 1.325 . S
C258 C259 1.416 . S
C258 H264 0.929 . S
C259 C257 1.366 . S
C259 C258 1.416 . S
C259 H261 0.930 . S
H260 C249 0.930 . S
H261 C259 0.930 . S
H262 C277 0.930 . S
H263 C284 0.930 . S
H264 C258 0.929 . S
H265 C257 0.938 . S
H266 C280 0.929 . S
H267 C247 0.931 . S
H268 C253 0.931 . S
H269 C254 0.931 . S
H270 C275 0.931 . S
H271 C250 0.929 . S
H272 C283 0.930 . S
N273 Eu244 2.600 . S
N273 C274 1.365 1_556 S
N273 C277 1.319 . S
C274 N273 1.365 1_554 S
C274 C276 1.405 . S
C274 C282 1.448 . S
C275 H270 0.931 . S
C275 C277 1.397 . S
C275 C278 1.367 1_556 S
C276 C274 1.405 . S
C276 C278 1.403 . S
C276 C309 1.439 . S
C277 H262 0.930 . S
C277 N273 1.319 . S
C277 C275 1.397 . S
C278 C275 1.367 1_554 S
C278 C276 1.403 . S
C278 H285 0.929 . S
N279 Eu244 2.559 1_554 S
N279 C280 1.324 . S
N279 C282 1.357 . S
C280 H266 0.929 . S
C280 N279 1.324 . S
C280 C284 1.416 . S
C281 C282 1.430 . S
C281 C283 1.404 . S
C281 C310 1.387 . S
C282 C274 1.448 . S
C282 N279 1.357 . S
C282 C281 1.430 . S
C283 H272 0.930 . S
C283 C281 1.404 . S
C283 C284 1.366 . S
C284 H263 0.930 . S
C284 C280 1.416 . S
C284 C283 1.366 . S
H285 C278 0.929 . S
H286 C309 0.931 . S
H287 C310 0.931 . S
O288 Eu244 2.462 . S
O288 C308 1.252 . S
O289 Eu244 2.373 1_554 S
O289 C300 1.249 . S
O290 Eu255 2.335 . S
O290 C300 1.264 . S
O291 Eu244 2.432 . S
O291 C308 1.268 . S
O292 Eu244 2.291 1_554 S
O292 C307 1.255 . S
O293 Eu255 2.372 . S
O293 C307 1.257 . S
O294 Eu255 2.462 . S
O294 C319 1.252 . S
O295 Eu255 2.373 1_556 S
O295 C311 1.249 . S
O296 Eu244 2.335 . S
O296 C311 1.264 . S
O297 Eu255 2.432 . S
O297 C319 1.268 . S
O298 Eu255 2.291 . S
O298 C318 1.255 . S
O299 Eu244 2.372 . S
O299 C318 1.257 1_556 S
C300 O289 1.249 . S
C300 O290 1.264 . S
C301 C304 1.382 . S
C301 C306 1.390 . S
C301 C308 1.506 . S
C302 C303 1.398 . S
C302 C306 1.392 . S
C303 C302 1.398 . S
C303 C305 1.372 . S
C303 H320 0.931 . S
C304 C301 1.382 . S
C304 C305 1.390 . S
C304 H321 0.931 . S
C305 C303 1.372 . S
C305 C304 1.390 . S
C305 H322 0.929 . S
C306 C301 1.390 . S
C306 C302 1.392 . S
C306 H323 0.930 . S
C307 O292 1.255 . S
C307 O293 1.257 . S
C308 Eu244 2.787 . S
C308 O288 1.252 . S
C308 O291 1.268 . S
C308 C301 1.506 . S
C309 C276 1.439 . S
C309 H286 0.931 . S
C309 C310 1.374 . S
C310 C281 1.387 . S
C310 H287 0.931 . S
C310 C309 1.374 . S
C311 O295 1.249 . S
C311 O296 1.264 . S
C312 C315 1.382 . S
C312 C316 1.390 . S
C312 C319 1.506 . S
C313 C314 1.398 . S
C313 C316 1.392 . S
C314 C313 1.398 . S
C314 C317 1.372 . S
C314 H324 0.931 . S
C315 C312 1.382 . S
C315 C317 1.390 . S
C315 H325 0.931 . S
C316 C312 1.390 . S
C316 C313 1.392 . S
C316 H326 0.930 . S
C317 C314 1.372 . S
C317 C315 1.390 . S
C317 H327 0.929 . S
C318 O298 1.255 . S
C318 O299 1.257 1_554 S
C319 Eu255 2.787 . S
C319 O294 1.252 . S
C319 O297 1.268 . S
C319 C312 1.506 . S
H320 C303 0.931 . S
H321 C304 0.931 . S
H322 C305 0.929 . S
H323 C306 0.930 . S
H324 C314 0.931 . S
H325 C315 0.931 . S
H326 C316 0.930 . S
H327 C317 0.929 . S
H328 C346 0.951 . S
H329 C348 0.951 . S
H330 C350 0.950 . S
H331 C351 0.950 . S
H332 C353 0.950 . S
H333 C356 0.950 . S
H334 C357 0.950 . S
H335 C359 0.950 . S
H336 C360 0.950 . S
H337 C361 0.951 . S
H338 C363 0.951 . S
H339 C365 0.950 . S
H340 C366 0.950 . S
H341 C368 0.950 . S
H342 C371 0.950 . S
H343 C372 0.950 . S
H344 C374 0.950 . S
H345 C375 0.950 . S
C346 H328 0.951 . S
C346 C347 1.366 . S
C346 C348 1.388 . S
C347 C346 1.366 . S
C347 C351 1.385 . S
C348 H329 0.951 . S
C348 C346 1.388 . S
C348 C349 1.366 . S
C349 C348 1.366 . S
C349 C350 1.414 . S
C349 C352 1.499 . S
C350 H330 0.950 . S
C350 C349 1.414 . S
C350 C351 1.374 . S
C351 H331 0.950 . S
C351 C347 1.385 . S
C351 C350 1.374 . S
C352 C349 1.499 . S
C352 C353 1.373 . S
C352 C354 1.389 . S
C353 H332 0.950 . S
C353 C352 1.373 . S
C353 C369 1.377 . S
C354 C352 1.389 . S
C354 C355 1.524 . S
C354 C368 1.377 . S
C355 C354 1.524 . S
C355 C356 1.397 . S
C355 C360 1.363 . S
C356 H333 0.950 . S
C356 C355 1.397 . S
C356 C357 1.334 . S
C357 H334 0.950 . S
C357 C356 1.334 . S
C357 C358 1.287 . S
C358 C357 1.287 . S
C358 C359 1.524 . S
C358 H377 0.913 . S
C359 H335 0.950 . S
C359 C358 1.524 . S
C359 C360 1.415 . S
C360 H336 0.950 . S
C360 C355 1.363 . S
C360 C359 1.415 . S
C361 H337 0.951 . S
C361 C362 1.366 . S
C361 C363 1.388 . S
C362 C361 1.366 . S
C362 C366 1.385 . S
C363 H338 0.951 . S
C363 C361 1.388 . S
C363 C364 1.366 . S
C364 C363 1.366 . S
C364 C365 1.414 . S
C364 C367 1.499 . S
C365 H339 0.950 . S
C365 C364 1.414 . S
C365 C366 1.374 . S
C366 H340 0.950 . S
C366 C362 1.385 . S
C366 C365 1.374 . S
C367 C364 1.499 . S
C367 C368 1.373 . S
C367 C369 1.389 . S
C368 H341 0.950 . S
C368 C354 1.377 . S
C368 C367 1.373 . S
C369 C353 1.377 . S
C369 C367 1.389 . S
C369 C370 1.524 . S
C370 C369 1.524 . S
C370 C371 1.397 . S
C370 C375 1.363 . S
C371 H342 0.950 . S
C371 C370 1.397 . S
C371 C372 1.334 . S
C372 H343 0.950 . S
C372 C371 1.334 . S
C372 C373 1.287 . S
C373 C372 1.287 . S
C373 C374 1.524 . S
C373 H376 0.999 . S
C374 H344 0.950 . S
C374 C373 1.524 . S
C374 C375 1.415 . S
C375 H345 0.950 . S
C375 C370 1.363 . S
C375 C374 1.415 . S
H376 C373 0.999 . S
H377 C358 0.913 . S
H378 C396 0.951 . S
H379 C398 0.951 . S
H380 C400 0.950 . S
H381 C401 0.950 . S
H382 C403 0.950 1_556 S
H383 C406 0.950 . S
H384 C407 0.950 . S
H385 C409 0.950 . S
H386 C410 0.950 . S
H387 C411 0.951 . S
H388 C413 0.951 . S
H389 C415 0.950 . S
H390 C416 0.950 . S
H391 C418 0.950 . S
H392 C421 0.950 . S
H393 C422 0.950 . S
H394 C424 0.950 . S
H395 C425 0.950 . S
C396 H378 0.951 . S
C396 C397 1.366 . S
C396 C398 1.388 . S
C397 C396 1.366 . S
C397 C401 1.385 . S
C398 H379 0.951 . S
C398 C396 1.388 . S
C398 C399 1.366 . S
C399 C398 1.366 . S
C399 C400 1.414 . S
C399 C402 1.499 . S
C400 H380 0.950 . S
C400 C399 1.414 . S
C400 C401 1.374 . S
C401 H381 0.950 . S
C401 C397 1.385 . S
C401 C400 1.374 . S
C402 C399 1.499 . S
C402 C403 1.373 . S
C402 C404 1.389 . S
C403 H382 0.950 1_554 S
C403 C402 1.373 . S
C403 C419 1.377 . S
C404 C402 1.389 . S
C404 C405 1.524 . S
C404 C418 1.377 . S
C405 C404 1.524 . S
C405 C406 1.397 . S
C405 C410 1.363 . S
C406 H383 0.950 . S
C406 C405 1.397 . S
C406 C407 1.334 . S
C407 H384 0.950 . S
C407 C406 1.334 . S
C407 C408 1.287 . S
C408 C407 1.287 . S
C408 C409 1.524 . S
C408 H427 0.913 . S
C409 H385 0.950 . S
C409 C408 1.524 . S
C409 C410 1.415 . S
C410 H386 0.950 . S
C410 C405 1.363 . S
C410 C409 1.415 . S
C411 H387 0.951 . S
C411 C412 1.366 . S
C411 C413 1.388 . S
C412 C411 1.366 . S
C412 C416 1.385 . S
C413 H388 0.951 . S
C413 C411 1.388 . S
C413 C414 1.366 . S
C414 C413 1.366 . S
C414 C415 1.414 . S
C414 C417 1.499 . S
C415 H389 0.950 . S
C415 C414 1.414 . S
C415 C416 1.374 . S
C416 H390 0.950 . S
C416 C412 1.385 . S
C416 C415 1.374 . S
C417 C414 1.499 . S
C417 C418 1.373 . S
C417 C419 1.389 . S
C418 H391 0.950 . S
C418 C404 1.377 . S
C418 C417 1.373 . S
C419 C403 1.377 . S
C419 C417 1.389 . S
C419 C420 1.524 1_554 S
C420 C419 1.524 1_556 S
C420 C421 1.397 . S
C420 C425 1.363 . S
C421 H392 0.950 . S
C421 C420 1.397 . S
C421 C422 1.334 . S
C422 H393 0.950 . S
C422 C421 1.334 . S
C422 C423 1.287 . S
C423 C422 1.287 . S
C423 C424 1.524 . S
C423 H426 0.999 . S
C424 H394 0.950 . S
C424 C423 1.524 . S
C424 C425 1.415 . S
C425 H395 0.950 . S
C425 C420 1.363 . S
C425 C424 1.415 . S
H426 C423 0.999 . S
H427 C408 0.913 . S
H428 C446 0.951 . S
H429 C448 0.951 . S
H430 C450 0.950 . S
H431 C451 0.950 . S
H432 C453 0.950 . S
H433 C456 0.950 . S
H434 C457 0.950 . S
H435 C459 0.950 . S
H436 C460 0.950 . S
H437 C461 0.951 . S
H438 C463 0.951 . S
H439 C465 0.950 . S
H440 C466 0.950 . S
H441 C468 0.950 . S
H442 C471 0.950 . S
H443 C472 0.950 . S
H444 C474 0.950 . S
H445 C475 0.950 . S
C446 H428 0.951 . S
C446 C447 1.366 . S
C446 C448 1.388 . S
C447 C446 1.366 . S
C447 C451 1.385 . S
C448 H429 0.951 . S
C448 C446 1.388 . S
C448 C449 1.366 . S
C449 C448 1.366 . S
C449 C450 1.414 . S
C449 C452 1.499 . S
C450 H430 0.950 . S
C450 C449 1.414 . S
C450 C451 1.374 . S
C451 H431 0.950 . S
C451 C447 1.385 . S
C451 C450 1.374 . S
C452 C449 1.499 . S
C452 C453 1.373 . S
C452 C454 1.389 . S
C453 H432 0.950 . S
C453 C452 1.373 . S
C453 C469 1.377 . S
C454 C452 1.389 . S
C454 C455 1.524 . S
C454 C468 1.377 . S
C455 C454 1.524 . S
C455 C456 1.397 . S
C455 C460 1.363 . S
C456 H433 0.950 . S
C456 C455 1.397 . S
C456 C457 1.334 . S
C457 H434 0.950 . S
C457 C456 1.334 . S
C457 C458 1.287 . S
C458 C457 1.287 . S
C458 C459 1.524 . S
C458 H477 0.913 . S
C459 H435 0.950 . S
C459 C458 1.524 . S
C459 C460 1.415 . S
C460 H436 0.950 . S
C460 C455 1.363 . S
C460 C459 1.415 . S
C461 H437 0.951 . S
C461 C462 1.366 . S
C461 C463 1.388 . S
C462 C461 1.366 . S
C462 C466 1.385 . S
C463 H438 0.951 . S
C463 C461 1.388 . S
C463 C464 1.366 . S
C464 C463 1.366 . S
C464 C465 1.414 . S
C464 C467 1.499 . S
C465 H439 0.950 . S
C465 C464 1.414 . S
C465 C466 1.374 . S
C466 H440 0.950 . S
C466 C462 1.385 . S
C466 C465 1.374 . S
C467 C464 1.499 . S
C467 C468 1.373 . S
C467 C469 1.389 . S
C468 H441 0.950 . S
C468 C454 1.377 . S
C468 C467 1.373 . S
C469 C453 1.377 . S
C469 C467 1.389 . S
C469 C470 1.524 . S
C470 C469 1.524 . S
C470 C471 1.397 . S
C470 C475 1.363 . S
C471 H442 0.950 . S
C471 C470 1.397 . S
C471 C472 1.334 . S
C472 H443 0.950 . S
C472 C471 1.334 . S
C472 C473 1.287 . S
C473 C472 1.287 . S
C473 C474 1.524 . S
C473 H476 0.999 . S
C474 H444 0.950 . S
C474 C473 1.524 . S
C474 C475 1.415 . S
C475 H445 0.950 . S
C475 C470 1.363 . S
C475 C474 1.415 . S
H476 C473 0.999 . S
H477 C458 0.913 . S
H478 C496 0.951 . S
H479 C498 0.951 . S
H480 C500 0.950 . S
H481 C501 0.950 . S
H482 C503 0.950 . S
H483 C506 0.950 . S
H484 C507 0.950 . S
H485 C509 0.950 . S
H486 C510 0.950 1_554 S
H487 C511 0.951 . S
H488 C513 0.951 . S
H489 C515 0.950 . S
H490 C516 0.950 . S
H491 C518 0.950 . S
H492 C521 0.950 . S
H493 C522 0.950 . S
H494 C524 0.950 . S
H495 C525 0.950 1_556 S
C496 H478 0.951 . S
C496 C497 1.366 1_554 S
C496 C498 1.388 . S
C497 C496 1.366 1_556 S
C497 C501 1.385 . S
C498 H479 0.951 . S
C498 C496 1.388 . S
C498 C499 1.366 1_554 S
C499 C498 1.366 1_556 S
C499 C500 1.414 . S
C499 C502 1.505 . S
C500 H480 0.950 . S
C500 C499 1.414 . S
C500 C501 1.374 . S
C501 H481 0.950 . S
C501 C497 1.385 . S
C501 C500 1.374 . S
C502 C499 1.505 . S
C502 C503 1.365 1_556 S
C502 C504 1.389 . S
C503 H482 0.950 . S
C503 C502 1.365 1_554 S
C503 C519 1.377 . S
C504 C502 1.389 . S
C504 C505 1.524 . S
C504 C518 1.377 . S
C505 C504 1.524 . S
C505 C506 1.397 . S
C505 C510 1.363 . S
C506 H483 0.950 . S
C506 C505 1.397 . S
C506 C507 1.334 . S
C507 H484 0.950 . S
C507 C506 1.334 . S
C507 C508 1.287 . S
C508 C507 1.287 . S
C508 C509 1.524 . S
C508 H527 0.913 . S
C509 H485 0.950 . S
C509 C508 1.524 . S
C509 C510 1.415 . S
C510 H486 0.950 1_556 S
C510 C505 1.363 . S
C510 C509 1.415 . S
C511 H487 0.951 . S
C511 C512 1.366 1_556 S
C511 C513 1.388 . S
C512 C511 1.366 1_554 S
C512 C516 1.385 . S
C513 H488 0.951 . S
C513 C511 1.388 . S
C513 C514 1.366 1_556 S
C514 C513 1.366 1_554 S
C514 C515 1.414 . S
C514 C517 1.499 . S
C515 H489 0.950 . S
C515 C514 1.414 . S
C515 C516 1.374 . S
C516 H490 0.950 . S
C516 C512 1.385 . S
C516 C515 1.374 . S
C517 C514 1.499 . S
C517 C518 1.373 1_554 S
C517 C519 1.389 . S
C518 H491 0.950 . S
C518 C504 1.377 . S
C518 C517 1.373 1_556 S
C519 C503 1.377 . S
C519 C517 1.389 . S
C519 C520 1.524 . S
C520 C519 1.524 . S
C520 C521 1.397 . S
C520 C525 1.363 . S
C521 H492 0.950 . S
C521 C520 1.397 . S
C521 C522 1.334 . S
C522 H493 0.950 . S
C522 C521 1.334 . S
C522 C523 1.287 . S
C523 C522 1.287 . S
C523 C524 1.524 . S
C523 H526 0.999 . S
C524 H494 0.950 . S
C524 C523 1.524 . S
C524 C525 1.415 . S
C525 H495 0.950 1_554 S
C525 C520 1.363 . S
C525 C524 1.415 . S
H526 C523 0.999 . S
H527 C508 0.913 . S
H528 C546 0.951 . S
H529 C548 0.951 . S
H530 C550 0.950 . S
H531 C551 0.950 . S
H532 C553 0.950 . S
H533 C556 0.950 . S
H534 C557 0.950 . S
H535 C559 0.950 . S
H536 C560 0.950 . S
H537 C561 0.951 . S
H538 C563 0.951 . S
H539 C565 0.950 . S
H540 C566 0.950 . S
H541 C568 0.950 . S
H542 C571 0.950 . S
H543 C572 0.950 . S
H544 C574 0.950 . S
H545 C575 0.950 . S
C546 H528 0.951 . S
C546 C547 1.366 . S
C546 C548 1.388 . S
C547 C546 1.366 . S
C547 C551 1.385 . S
C548 H529 0.951 . S
C548 C546 1.388 . S
C548 C549 1.366 . S
C549 C548 1.366 . S
C549 C550 1.414 . S
C549 C552 1.499 . S
C550 H530 0.950 . S
C550 C549 1.414 . S
C550 C551 1.374 . S
C551 H531 0.950 . S
C551 C547 1.385 . S
C551 C550 1.374 . S
C552 C549 1.499 . S
C552 C553 1.373 . S
C552 C554 1.389 . S
C553 H532 0.950 . S
C553 C552 1.373 . S
C553 C569 1.377 . S
C554 C552 1.389 . S
C554 C555 1.524 . S
C554 C568 1.377 . S
C555 C554 1.524 . S
C555 C556 1.397 . S
C555 C560 1.363 . S
C556 H533 0.950 . S
C556 C555 1.397 . S
C556 C557 1.334 . S
C557 H534 0.950 . S
C557 C556 1.334 . S
C557 C558 1.287 . S
C558 C557 1.287 . S
C558 C559 1.524 . S
C558 H577 0.913 . S
C559 H535 0.950 . S
C559 C558 1.524 . S
C559 C560 1.415 . S
C560 H536 0.950 . S
C560 C555 1.363 . S
C560 C559 1.415 . S
C561 H537 0.951 . S
C561 C562 1.366 . S
C561 C563 1.388 . S
C562 C561 1.366 . S
C562 C566 1.385 . S
C563 H538 0.951 . S
C563 C561 1.388 . S
C563 C564 1.366 . S
C564 C563 1.366 . S
C564 C565 1.414 . S
C564 C567 1.499 . S
C565 H539 0.950 . S
C565 C564 1.414 . S
C565 C566 1.374 . S
C566 H540 0.950 . S
C566 C562 1.385 . S
C566 C565 1.374 . S
C567 C564 1.499 . S
C567 C568 1.373 . S
C567 C569 1.389 . S
C568 H541 0.950 . S
C568 C554 1.377 . S
C568 C567 1.373 . S
C569 C553 1.377 . S
C569 C567 1.389 . S
C569 C570 1.524 . S
C570 C569 1.524 . S
C570 C571 1.397 . S
C570 C575 1.363 . S
C571 H542 0.950 . S
C571 C570 1.397 . S
C571 C572 1.334 1_565 S
C572 H543 0.950 . S
C572 C571 1.334 1_545 S
C572 C573 1.287 1_545 S
C573 C572 1.287 1_565 S
C573 C574 1.524 . S
C573 H576 1.016 . S
C574 H544 0.950 . S
C574 C573 1.524 . S
C574 C575 1.415 . S
C575 H545 0.950 . S
C575 C570 1.363 . S
C575 C574 1.415 . S
H576 C573 1.016 . S
H577 C558 0.913 . S
H578 C596 0.951 . S
H579 C598 0.951 . S
H580 C600 0.950 . S
H581 C601 0.950 . S
H582 C603 0.950 . S
H583 C606 0.950 . S
H584 C607 0.950 . S
H585 C609 0.950 . S
H586 C610 0.950 . S
H587 C611 0.951 . S
H588 C613 0.951 . S
H589 C615 0.950 . S
H590 C616 0.950 . S
H591 C618 0.950 . S
H592 C621 0.950 . S
H593 C622 0.950 . S
H594 C624 0.950 . S
H595 C625 0.950 . S
C596 H578 0.951 . S
C596 C597 1.366 . S
C596 C598 1.388 . S
C597 C596 1.366 . S
C597 C601 1.385 . S
C598 H579 0.951 . S
C598 C596 1.388 . S
C598 C599 1.366 . S
C599 C598 1.366 . S
C599 C600 1.414 . S
C599 C602 1.499 . S
C600 H580 0.950 . S
C600 C599 1.414 . S
C600 C601 1.374 . S
C601 H581 0.950 . S
C601 C597 1.385 . S
C601 C600 1.374 . S
C602 C599 1.499 . S
C602 C603 1.373 . S
C602 C604 1.389 . S
C603 H582 0.950 . S
C603 C602 1.373 . S
C603 C619 1.377 . S
C604 C602 1.389 . S
C604 C605 1.524 . S
C604 C618 1.377 . S
C605 C604 1.524 . S
C605 C606 1.397 . S
C605 C610 1.363 . S
C606 H583 0.950 . S
C606 C605 1.397 . S
C606 C607 1.334 . S
C607 H584 0.950 . S
C607 C606 1.334 . S
C607 C608 1.287 . S
C608 C607 1.287 . S
C608 C609 1.524 . S
C608 H627 0.913 . S
C609 H585 0.950 . S
C609 C608 1.524 . S
C609 C610 1.415 . S
C610 H586 0.950 . S
C610 C605 1.363 . S
C610 C609 1.415 . S
C611 H587 0.951 . S
C611 C612 1.366 . S
C611 C613 1.388 . S
C612 C611 1.366 . S
C612 C616 1.385 . S
C613 H588 0.951 . S
C613 C611 1.388 . S
C613 C614 1.366 . S
C614 C613 1.366 . S
C614 C615 1.414 . S
C614 C617 1.499 . S
C615 H589 0.950 . S
C615 C614 1.414 . S
C615 C616 1.374 . S
C616 H590 0.950 . S
C616 C612 1.385 . S
C616 C615 1.374 . S
C617 C614 1.499 . S
C617 C618 1.373 . S
C617 C619 1.389 . S
C618 H591 0.950 . S
C618 C604 1.377 . S
C618 C617 1.373 . S
C619 C603 1.377 . S
C619 C617 1.389 . S
C619 C620 1.524 . S
C620 C619 1.524 . S
C620 C621 1.397 . S
C620 C625 1.363 . S
C621 H592 0.950 . S
C621 C620 1.397 . S
C621 C622 1.334 . S
C622 H593 0.950 . S
C622 C621 1.334 . S
C622 C623 1.287 . S
C623 C622 1.287 . S
C623 C624 1.524 . S
C623 H626 0.999 . S
C624 H594 0.950 . S
C624 C623 1.524 . S
C624 C625 1.415 . S
C625 H595 0.950 . S
C625 C620 1.363 . S
C625 C624 1.415 . S
H626 C623 0.999 . S
H627 C608 0.913 . S
H628 C646 0.951 . S
H629 C648 0.951 . S
H630 C650 0.950 . S
H631 C651 0.950 . S
H632 C653 0.950 . S
H633 C656 0.950 . S
H634 C657 0.950 . S
H635 C659 0.950 . S
H636 C660 0.950 . S
H637 C661 0.951 . S
H638 C663 0.951 . S
H639 C665 0.950 . S
H640 C666 0.950 1_565 S
H641 C668 0.950 . S
H642 C671 0.950 . S
H643 C672 0.950 . S
H644 C674 0.950 . S
H645 C675 0.950 . S
C646 H628 0.951 . S
C646 C647 1.366 . S
C646 C648 1.388 . S
C647 C646 1.366 . S
C647 C651 1.385 . S
C648 H629 0.951 . S
C648 C646 1.388 . S
C648 C649 1.366 . S
C649 C648 1.366 . S
C649 C650 1.414 . S
C649 C652 1.499 . S
C650 H630 0.950 . S
C650 C649 1.414 . S
C650 C651 1.374 . S
C651 H631 0.950 . S
C651 C647 1.385 . S
C651 C650 1.374 . S
C652 C649 1.499 . S
C652 C653 1.373 . S
C652 C654 1.389 . S
C653 H632 0.950 . S
C653 C652 1.373 . S
C653 C669 1.377 . S
C654 C652 1.389 . S
C654 C655 1.524 . S
C654 C668 1.377 . S
C655 C654 1.524 . S
C655 C656 1.397 . S
C655 C660 1.363 1_545 S
C656 H633 0.950 . S
C656 C655 1.397 . S
C656 C657 1.334 1_545 S
C657 H634 0.950 . S
C657 C656 1.334 1_565 S
C657 C658 1.287 . S
C658 C657 1.287 . S
C658 C659 1.524 . S
C658 H677 0.913 . S
C659 H635 0.950 . S
C659 C658 1.524 . S
C659 C660 1.415 . S
C660 H636 0.950 . S
C660 C655 1.363 1_565 S
C660 C659 1.415 . S
C661 H637 0.951 . S
C661 C662 1.366 . S
C661 C663 1.388 . S
C662 C661 1.366 . S
C662 C666 1.385 . S
C663 H638 0.951 . S
C663 C661 1.388 . S
C663 C664 1.366 . S
C664 C663 1.366 . S
C664 C665 1.414 . S
C664 C667 1.499 . S
C665 H639 0.950 . S
C665 C664 1.414 . S
C665 C666 1.374 . S
C666 H640 0.950 1_545 S
C666 C662 1.385 . S
C666 C665 1.374 . S
C667 C664 1.499 . S
C667 C668 1.373 . S
C667 C669 1.389 . S
C668 H641 0.950 . S
C668 C654 1.377 . S
C668 C667 1.373 . S
C669 C653 1.377 . S
C669 C667 1.389 . S
C669 C670 1.524 . S
C670 C669 1.524 . S
C670 C671 1.397 . S
C670 C675 1.363 . S
C671 H642 0.950 . S
C671 C670 1.397 . S
C671 C672 1.334 . S
C672 H643 0.950 . S
C672 C671 1.334 . S
C672 C673 1.287 . S
C673 C672 1.287 . S
C673 C674 1.524 . S
C673 H676 0.999 . S
C674 H644 0.950 . S
C674 C673 1.524 . S
C674 C675 1.415 . S
C675 H645 0.950 . S
C675 C670 1.363 . S
C675 C674 1.415 . S
H676 C673 0.999 . S
H677 C658 0.913 . S
H678 C696 0.951 . S
H679 C698 0.951 . S
H680 C700 0.950 . S
H681 C701 0.950 . S
H682 C703 0.950 . S
H683 C706 0.950 . S
H684 C707 0.950 . S
H685 C709 0.950 . S
H686 C710 0.950 . S
H687 C711 0.951 . S
H688 C713 0.951 . S
H689 C715 0.950 . S
H690 C716 0.950 . S
H691 C718 0.950 . S
H692 C721 0.950 . S
H693 C722 0.950 . S
H694 C724 0.950 . S
H695 C725 0.950 . S
C696 H678 0.951 . S
C696 C697 1.366 . S
C696 C698 1.388 . S
C697 C696 1.366 . S
C697 C701 1.385 . S
C698 H679 0.951 . S
C698 C696 1.388 . S
C698 C699 1.366 . S
C699 C698 1.366 . S
C699 C700 1.414 . S
C699 C702 1.499 . S
C700 H680 0.950 . S
C700 C699 1.414 . S
C700 C701 1.374 . S
C701 H681 0.950 . S
C701 C697 1.385 . S
C701 C700 1.374 . S
C702 C699 1.499 . S
C702 C703 1.373 . S
C702 C704 1.389 . S
C703 H682 0.950 . S
C703 C702 1.373 . S
C703 C719 1.377 . S
C704 C702 1.389 . S
C704 C705 1.524 . S
C704 C718 1.377 . S
C705 C704 1.524 . S
C705 C706 1.397 . S
C705 C710 1.363 . S
C706 H683 0.950 . S
C706 C705 1.397 . S
C706 C707 1.334 . S
C707 H684 0.950 . S
C707 C706 1.334 . S
C707 C708 1.287 . S
C708 C707 1.287 . S
C708 C709 1.524 . S
C708 H727 0.913 . S
C709 H685 0.950 . S
C709 C708 1.524 . S
C709 C710 1.415 . S
C710 H686 0.950 . S
C710 C705 1.363 . S
C710 C709 1.415 . S
C711 H687 0.951 . S
C711 C712 1.366 . S
C711 C713 1.388 . S
C712 C711 1.366 . S
C712 C716 1.385 . S
C713 H688 0.951 . S
C713 C711 1.388 . S
C713 C714 1.366 . S
C714 C713 1.366 . S
C714 C715 1.414 . S
C714 C717 1.499 . S
C715 H689 0.950 . S
C715 C714 1.414 . S
C715 C716 1.374 . S
C716 H690 0.950 . S
C716 C712 1.385 . S
C716 C715 1.374 . S
C717 C714 1.499 . S
C717 C718 1.373 . S
C717 C719 1.389 . S
C718 H691 0.950 . S
C718 C704 1.377 . S
C718 C717 1.373 . S
C719 C703 1.377 . S
C719 C717 1.389 . S
C719 C720 1.524 . S
C720 C719 1.524 . S
C720 C721 1.397 . S
C720 C725 1.363 . S
C721 H692 0.950 . S
C721 C720 1.397 . S
C721 C722 1.334 . S
C722 H693 0.950 . S
C722 C721 1.334 . S
C722 C723 1.287 . S
C723 C722 1.287 . S
C723 C724 1.524 . S
C723 H726 0.999 . S
C724 H694 0.950 . S
C724 C723 1.524 . S
C724 C725 1.415 . S
C725 H695 0.950 . S
C725 C720 1.363 . S
C725 C724 1.415 . S
H726 C723 0.999 . S
H727 C708 0.913 . S
H728 C746 0.951 . S
H729 C748 0.951 . S
H730 C750 0.950 . S
H731 C751 0.950 . S
H732 C753 0.950 . S
H733 C756 0.950 . S
H734 C757 0.950 . S
H735 C759 0.950 . S
H736 C760 0.950 . S
H737 C761 0.951 . S
H738 C763 0.951 . S
H739 C765 0.950 . S
H740 C766 0.950 . S
H741 C768 0.950 . S
H742 C771 0.950 . S
H743 C772 0.950 . S
H744 C774 0.950 . S
H745 C775 0.950 . S
C746 H728 0.951 . S
C746 C747 1.366 . S
C746 C748 1.388 . S
C747 C746 1.366 . S
C747 C751 1.385 . S
C748 H729 0.951 . S
C748 C746 1.388 . S
C748 C749 1.366 . S
C749 C748 1.366 . S
C749 C750 1.414 . S
C749 C752 1.499 . S
C750 H730 0.950 . S
C750 C749 1.414 . S
C750 C751 1.374 . S
C751 H731 0.950 . S
C751 C747 1.385 . S
C751 C750 1.374 . S
C752 C749 1.499 . S
C752 C753 1.373 . S
C752 C754 1.389 . S
C753 H732 0.950 . S
C753 C752 1.373 . S
C753 C769 1.377 . S
C754 C752 1.389 . S
C754 C755 1.524 . S
C754 C768 1.377 . S
C755 C754 1.524 . S
C755 C756 1.397 . S
C755 C760 1.363 . S
C756 H733 0.950 . S
C756 C755 1.397 . S
C756 C757 1.334 . S
C757 H734 0.950 . S
C757 C756 1.334 . S
C757 C758 1.287 . S
C758 C757 1.287 . S
C758 C759 1.524 . S
C758 H777 0.913 . S
C759 H735 0.950 . S
C759 C758 1.524 . S
C759 C760 1.415 . S
C760 H736 0.950 . S
C760 C755 1.363 . S
C760 C759 1.415 . S
C761 H737 0.951 . S
C761 C762 1.366 . S
C761 C763 1.388 . S
C762 C761 1.366 . S
C762 C766 1.385 . S
C763 H738 0.951 . S
C763 C761 1.388 . S
C763 C764 1.366 . S
C764 C763 1.366 . S
C764 C765 1.414 . S
C764 C767 1.499 . S
C765 H739 0.950 . S
C765 C764 1.414 . S
C765 C766 1.374 . S
C766 H740 0.950 . S
C766 C762 1.385 . S
C766 C765 1.374 . S
C767 C764 1.499 . S
C767 C768 1.373 . S
C767 C769 1.389 . S
C768 H741 0.950 . S
C768 C754 1.377 . S
C768 C767 1.373 . S
C769 C753 1.377 . S
C769 C767 1.389 . S
C769 C770 1.524 . S
C770 C769 1.524 . S
C770 C771 1.397 . S
C770 C775 1.363 . S
C771 H742 0.950 . S
C771 C770 1.397 . S
C771 C772 1.334 . S
C772 H743 0.950 . S
C772 C771 1.334 . S
C772 C773 1.287 . S
C773 C772 1.287 . S
C773 C774 1.524 . S
C773 H776 0.999 . S
C774 H744 0.950 . S
C774 C773 1.524 . S
C774 C775 1.415 . S
C775 H745 0.950 . S
C775 C770 1.363 . S
C775 C774 1.415 . S
H776 C773 0.999 . S
H777 C758 0.913 . S
H778 C796 0.951 . S
H779 C798 0.951 . S
H780 C800 0.950 . S
H781 C801 0.950 . S
H782 C803 0.950 . S
H783 C806 0.950 . S
H784 C807 0.950 . S
H785 C809 0.950 . S
H786 C810 0.950 . S
H787 C811 0.951 . S
H788 C813 0.951 . S
H789 C815 0.950 . S
H790 C816 0.950 . S
H791 C818 0.950 . S
H792 C821 0.950 . S
H793 C822 0.950 . S
H794 C824 0.950 . S
H795 C825 0.950 . S
C796 H778 0.951 . S
C796 C797 1.366 . S
C796 C798 1.388 . S
C797 C796 1.366 . S
C797 C801 1.385 . S
C798 H779 0.951 . S
C798 C796 1.388 . S
C798 C799 1.366 . S
C799 C798 1.366 . S
C799 C800 1.414 . S
C799 C802 1.499 . S
C800 H780 0.950 . S
C800 C799 1.414 . S
C800 C801 1.374 . S
C801 H781 0.950 . S
C801 C797 1.385 . S
C801 C800 1.374 . S
C802 C799 1.499 . S
C802 C803 1.373 . S
C802 C804 1.389 . S
C803 H782 0.950 . S
C803 C802 1.373 . S
C803 C819 1.377 . S
C804 C802 1.389 . S
C804 C805 1.524 . S
C804 C818 1.377 . S
C805 C804 1.524 . S
C805 C806 1.397 . S
C805 C810 1.363 . S
C806 H783 0.950 . S
C806 C805 1.397 . S
C806 C807 1.334 1_545 S
C807 H784 0.950 . S
C807 C806 1.334 1_565 S
C807 C808 1.287 . S
C808 C807 1.287 . S
C808 C809 1.524 . S
C808 H827 0.913 . S
C809 H785 0.950 . S
C809 C808 1.524 . S
C809 C810 1.415 1_565 S
C810 H786 0.950 . S
C810 C805 1.363 . S
C810 C809 1.415 1_545 S
C811 H787 0.951 . S
C811 C812 1.366 . S
C811 C813 1.388 . S
C812 C811 1.366 . S
C812 C816 1.385 . S
C813 H788 0.951 . S
C813 C811 1.388 . S
C813 C814 1.366 . S
C814 C813 1.366 . S
C814 C815 1.414 . S
C814 C817 1.499 . S
C815 H789 0.950 . S
C815 C814 1.414 . S
C815 C816 1.374 . S
C816 H790 0.950 . S
C816 C812 1.385 . S
C816 C815 1.374 . S
C817 C814 1.499 . S
C817 C818 1.373 . S
C817 C819 1.389 . S
C818 H791 0.950 . S
C818 C804 1.377 . S
C818 C817 1.373 . S
C819 C803 1.377 . S
C819 C817 1.389 . S
C819 C820 1.524 . S
C820 C819 1.524 . S
C820 C821 1.397 . S
C820 C825 1.363 . S
C821 H792 0.950 . S
C821 C820 1.397 . S
C821 C822 1.334 . S
C822 H793 0.950 . S
C822 C821 1.334 . S
C822 C823 1.287 . S
C823 C822 1.287 . S
C823 C824 1.524 . S
C823 H826 0.999 . S
C824 H794 0.950 . S
C824 C823 1.524 . S
C824 C825 1.415 . S
C825 H795 0.950 . S
C825 C820 1.363 . S
C825 C824 1.415 . S
H826 C823 0.999 . S
H827 C808 0.913 . S
H828 C846 0.951 . S
H829 C848 0.951 . S
H830 C850 0.950 . S
H831 C851 0.950 . S
H832 C853 0.950 . S
H833 C856 0.950 . S
H834 C857 0.950 . S
H835 C859 0.950 . S
H836 C860 0.950 . S
H837 C861 0.951 . S
H838 C863 0.951 . S
H839 C865 0.950 . S
H840 C866 0.950 . S
H841 C868 0.950 . S
H842 C871 0.950 . S
H843 C872 0.950 . S
H844 C874 0.950 . S
H845 C875 0.950 . S
C846 H828 0.951 . S
C846 C847 1.366 . S
C846 C848 1.388 . S
C847 C846 1.366 . S
C847 C851 1.385 . S
C848 H829 0.951 . S
C848 C846 1.388 . S
C848 C849 1.366 . S
C849 C848 1.366 . S
C849 C850 1.414 . S
C849 C852 1.499 . S
C850 H830 0.950 . S
C850 C849 1.414 . S
C850 C851 1.374 . S
C851 H831 0.950 . S
C851 C847 1.385 . S
C851 C850 1.374 . S
C852 C849 1.499 . S
C852 C853 1.373 . S
C852 C854 1.389 . S
C853 H832 0.950 . S
C853 C852 1.373 . S
C853 C869 1.377 . S
C854 C852 1.389 . S
C854 C855 1.524 . S
C854 C868 1.377 . S
C855 C854 1.524 . S
C855 C856 1.397 . S
C855 C860 1.363 . S
C856 H833 0.950 . S
C856 C855 1.397 . S
C856 C857 1.334 . S
C857 H834 0.950 . S
C857 C856 1.334 . S
C857 C858 1.287 . S
C858 C857 1.287 . S
C858 C859 1.524 . S
C858 H877 0.913 . S
C859 H835 0.950 . S
C859 C858 1.524 . S
C859 C860 1.415 . S
C860 H836 0.950 . S
C860 C855 1.363 . S
C860 C859 1.415 . S
C861 H837 0.951 . S
C861 C862 1.366 . S
C861 C863 1.388 . S
C862 C861 1.366 . S
C862 C866 1.385 . S
C863 H838 0.951 . S
C863 C861 1.388 . S
C863 C864 1.366 . S
C864 C863 1.366 . S
C864 C865 1.414 . S
C864 C867 1.499 . S
C865 H839 0.950 . S
C865 C864 1.414 . S
C865 C866 1.374 . S
C866 H840 0.950 . S
C866 C862 1.385 . S
C866 C865 1.374 . S
C867 C864 1.499 . S
C867 C868 1.373 . S
C867 C869 1.389 . S
C868 H841 0.950 . S
C868 C854 1.377 . S
C868 C867 1.373 . S
C869 C853 1.377 . S
C869 C867 1.389 . S
C869 C870 1.524 . S
C870 C869 1.524 . S
C870 C871 1.397 . S
C870 C875 1.363 . S
C871 H842 0.950 . S
C871 C870 1.397 . S
C871 C872 1.334 . S
C872 H843 0.950 . S
C872 C871 1.334 . S
C872 C873 1.287 . S
C873 C872 1.287 . S
C873 C874 1.524 . S
C873 H876 0.999 . S
C874 H844 0.950 . S
C874 C873 1.524 . S
C874 C875 1.415 . S
C875 H845 0.950 . S
C875 C870 1.363 . S
C875 C874 1.415 . S
H876 C873 0.999 . S
H877 C858 0.913 . S
H878 C896 0.951 . S
H879 C898 0.951 . S
H880 C900 0.950 . S
H881 C901 0.950 . S
H882 C903 0.950 . S
H883 C906 0.950 . S
H884 C907 0.950 . S
H885 C909 0.950 . S
H886 C910 0.950 . S
H887 C911 0.951 . S
H888 C913 0.951 . S
H889 C915 0.936 1_545 S
H890 C916 0.950 1_545 S
H891 C918 0.964 . S
H892 C921 0.950 . S
H893 C922 0.950 . S
H894 C924 0.950 . S
H895 C925 0.950 . S
C896 H878 0.951 . S
C896 C897 1.366 . S
C896 C898 1.388 . S
C897 C896 1.366 . S
C897 C901 1.385 . S
C898 H879 0.951 . S
C898 C896 1.388 . S
C898 C899 1.366 . S
C899 C898 1.366 . S
C899 C900 1.414 . S
C899 C902 1.499 . S
C900 H880 0.950 . S
C900 C899 1.414 . S
C900 C901 1.374 . S
C901 H881 0.950 . S
C901 C897 1.385 . S
C901 C900 1.374 . S
C902 C899 1.499 . S
C902 C903 1.373 . S
C902 C904 1.389 . S
C903 H882 0.950 . S
C903 C902 1.373 . S
C903 C919 1.377 . S
C904 C902 1.389 . S
C904 C905 1.519 1_565 S
C904 C918 1.377 . S
C905 C904 1.519 1_545 S
C905 C906 1.397 1_545 S
C905 C910 1.368 . S
C906 H883 0.950 . S
C906 C905 1.397 1_565 S
C906 C907 1.334 1_565 S
C907 H884 0.950 . S
C907 C906 1.334 1_545 S
C907 C908 1.287 . S
C908 C907 1.287 . S
C908 C909 1.524 . S
C908 H927 0.913 . S
C909 H885 0.950 . S
C909 C908 1.524 . S
C909 C910 1.415 . S
C910 H886 0.950 . S
C910 C905 1.368 . S
C910 C909 1.415 . S
C911 H887 0.951 . S
C911 C912 1.366 . S
C911 C913 1.388 . S
C912 C911 1.366 . S
C912 C916 1.385 . S
C913 H888 0.951 . S
C913 C911 1.388 . S
C913 C914 1.366 . S
C914 C913 1.366 . S
C914 C915 1.414 . S
C914 C917 1.499 . S
C915 H889 0.936 1_565 S
C915 C914 1.414 . S
C915 C916 1.374 . S
C916 H890 0.950 1_565 S
C916 C912 1.385 . S
C916 C915 1.374 . S
C917 C914 1.499 . S
C917 C918 1.373 . S
C917 C919 1.389 . S
C918 H891 0.964 . S
C918 C904 1.377 . S
C918 C917 1.373 . S
C919 C903 1.377 . S
C919 C917 1.389 . S
C919 C920 1.524 . S
C920 C919 1.524 . S
C920 C921 1.397 . S
C920 C925 1.363 . S
C921 H892 0.950 . S
C921 C920 1.397 . S
C921 C922 1.334 . S
C922 H893 0.950 . S
C922 C921 1.334 . S
C922 C923 1.287 . S
C923 C922 1.287 . S
C923 C924 1.524 . S
C923 H926 0.999 . S
C924 H894 0.950 . S
C924 C923 1.524 . S
C924 C925 1.415 . S
C925 H895 0.950 . S
C925 C920 1.363 . S
C925 C924 1.415 . S
H926 C923 0.999 . S
H927 C908 0.913 . S
C362 C223 1.650 . S
C347 C135 1.652 . S
C397 C15 1.640 . S
C412 C318 1.635 . S
C447 C55 1.649 . S
C462 C234 1.642 . S
C497 C95 1.650 . S
C512 C307 1.649 . S
C562 C218 1.420 . S
C547 C2 1.564 . S
C612 C311 1.613 . S
C597 C42 1.613 . S
C647 C82 1.599 . S
C662 C227 1.608 . S
C697 C141 1.522 . S
C712 C302 1.408 . S
C762 C313 1.428 . S
C747 C61 1.568 . S
C812 C229 1.450 . S
C797 C101 1.594 . S
C862 C300 1.644 . S
C847 C122 1.609 . S
C897 C21 1.642 . S
C912 C216 1.641 . S
