# Generated by pormake.
# Topology ocu, (6,8)-cn, num edge types: 1
# Building blocks:
#     Node 0, Type 0, BuildingBlock: VOLQOD_clean_sbu_1, # of connection points: 6
#     Node 1, Type 0, BuildingBlock: VOLQOD_clean_sbu_1, # of connection points: 6
#     Node 2, Type 0, BuildingBlock: VOLQOD_clean_sbu_1, # of connection points: 6
#     Node 3, Type 0, BuildingBlock: VOLQOD_clean_sbu_1, # of connection points: 6
#     Node 4, Type 0, BuildingBlock: VOLQOD_clean_sbu_1, # of connection points: 6
#     Node 5, Type 0, BuildingBlock: VOLQOD_clean_sbu_1, # of connection points: 6
#     Node 6, Type 0, BuildingBlock: VOLQOD_clean_sbu_1, # of connection points: 6
#     Node 7, Type 0, BuildingBlock: VOLQOD_clean_sbu_1, # of connection points: 6
#     Node 8, Type 1, BuildingBlock: TAGTUT_clean_sbu_1, # of connection points: 8
#     Node 9, Type 1, BuildingBlock: TAGTUT_clean_sbu_1, # of connection points: 8
#     Node 10, Type 1, BuildingBlock: TAGTUT_clean_sbu_1, # of connection points: 8
#     Node 11, Type 1, BuildingBlock: TAGTUT_clean_sbu_1, # of connection points: 8
#     Node 12, Type 1, BuildingBlock: TAGTUT_clean_sbu_1, # of connection points: 8
#     Node 13, Type 1, BuildingBlock: TAGTUT_clean_sbu_1, # of connection points: 8
#     Edge 14, Type (0, 1), BuildingBlock: CIFDUS_clean_linker_0, # of connection points: 2
#     Edge 15, Type (0, 1), BuildingBlock: CIFDUS_clean_linker_0, # of connection points: 2
#     Edge 16, Type (0, 1), BuildingBlock: CIFDUS_clean_linker_0, # of connection points: 2
#     Edge 17, Type (0, 1), BuildingBlock: CIFDUS_clean_linker_0, # of connection points: 2
#     Edge 18, Type (0, 1), BuildingBlock: CIFDUS_clean_linker_0, # of connection points: 2
#     Edge 19, Type (0, 1), BuildingBlock: CIFDUS_clean_linker_0, # of connection points: 2
#     Edge 20, Type (0, 1), BuildingBlock: CIFDUS_clean_linker_0, # of connection points: 2
#     Edge 21, Type (0, 1), BuildingBlock: CIFDUS_clean_linker_0, # of connection points: 2
#     Edge 22, Type (0, 1), BuildingBlock: CIFDUS_clean_linker_0, # of connection points: 2
#     Edge 23, Type (0, 1), BuildingBlock: CIFDUS_clean_linker_0, # of connection points: 2
#     Edge 24, Type (0, 1), BuildingBlock: CIFDUS_clean_linker_0, # of connection points: 2
#     Edge 25, Type (0, 1), BuildingBlock: CIFDUS_clean_linker_0, # of connection points: 2
#     Edge 26, Type (0, 1), BuildingBlock: CIFDUS_clean_linker_0, # of connection points: 2
#     Edge 27, Type (0, 1), BuildingBlock: CIFDUS_clean_linker_0, # of connection points: 2
#     Edge 28, Type (0, 1), BuildingBlock: CIFDUS_clean_linker_0, # of connection points: 2
#     Edge 29, Type (0, 1), BuildingBlock: CIFDUS_clean_linker_0, # of connection points: 2
#     Edge 30, Type (0, 1), BuildingBlock: CIFDUS_clean_linker_0, # of connection points: 2
#     Edge 31, Type (0, 1), BuildingBlock: CIFDUS_clean_linker_0, # of connection points: 2
#     Edge 32, Type (0, 1), BuildingBlock: CIFDUS_clean_linker_0, # of connection points: 2
#     Edge 33, Type (0, 1), BuildingBlock: CIFDUS_clean_linker_0, # of connection points: 2
#     Edge 34, Type (0, 1), BuildingBlock: CIFDUS_clean_linker_0, # of connection points: 2
#     Edge 35, Type (0, 1), BuildingBlock: CIFDUS_clean_linker_0, # of connection points: 2
#     Edge 36, Type (0, 1), BuildingBlock: CIFDUS_clean_linker_0, # of connection points: 2
#     Edge 37, Type (0, 1), BuildingBlock: CIFDUS_clean_linker_0, # of connection points: 2
#     Edge 38, Type (0, 1), BuildingBlock: CIFDUS_clean_linker_0, # of connection points: 2
#     Edge 39, Type (0, 1), BuildingBlock: CIFDUS_clean_linker_0, # of connection points: 2
#     Edge 40, Type (0, 1), BuildingBlock: CIFDUS_clean_linker_0, # of connection points: 2
#     Edge 41, Type (0, 1), BuildingBlock: CIFDUS_clean_linker_0, # of connection points: 2
#     Edge 42, Type (0, 1), BuildingBlock: CIFDUS_clean_linker_0, # of connection points: 2
#     Edge 43, Type (0, 1), BuildingBlock: CIFDUS_clean_linker_0, # of connection points: 2
#     Edge 44, Type (0, 1), BuildingBlock: CIFDUS_clean_linker_0, # of connection points: 2
#     Edge 45, Type (0, 1), BuildingBlock: CIFDUS_clean_linker_0, # of connection points: 2
#     Edge 46, Type (0, 1), BuildingBlock: CIFDUS_clean_linker_0, # of connection points: 2
#     Edge 47, Type (0, 1), BuildingBlock: CIFDUS_clean_linker_0, # of connection points: 2
#     Edge 48, Type (0, 1), BuildingBlock: CIFDUS_clean_linker_0, # of connection points: 2
#     Edge 49, Type (0, 1), BuildingBlock: CIFDUS_clean_linker_0, # of connection points: 2
#     Edge 50, Type (0, 1), BuildingBlock: CIFDUS_clean_linker_0, # of connection points: 2
#     Edge 51, Type (0, 1), BuildingBlock: CIFDUS_clean_linker_0, # of connection points: 2
#     Edge 52, Type (0, 1), BuildingBlock: CIFDUS_clean_linker_0, # of connection points: 2
#     Edge 53, Type (0, 1), BuildingBlock: CIFDUS_clean_linker_0, # of connection points: 2
#     Edge 54, Type (0, 1), BuildingBlock: CIFDUS_clean_linker_0, # of connection points: 2
#     Edge 55, Type (0, 1), BuildingBlock: CIFDUS_clean_linker_0, # of connection points: 2
#     Edge 56, Type (0, 1), BuildingBlock: CIFDUS_clean_linker_0, # of connection points: 2
#     Edge 57, Type (0, 1), BuildingBlock: CIFDUS_clean_linker_0, # of connection points: 2
#     Edge 58, Type (0, 1), BuildingBlock: CIFDUS_clean_linker_0, # of connection points: 2
#     Edge 59, Type (0, 1), BuildingBlock: CIFDUS_clean_linker_0, # of connection points: 2
#     Edge 60, Type (0, 1), BuildingBlock: CIFDUS_clean_linker_0, # of connection points: 2
#     Edge 61, Type (0, 1), BuildingBlock: CIFDUS_clean_linker_0, # of connection points: 2
# Relax obj value: 0.187
# Max RMSD: 0.332
# Mean RMSD: 0.220
data_MOF--net-ocu--node1-VOLQOD_clean_sbu_1--node2-TAGTUT_clean_sbu_1--edge1-CIFDUS_clean_linker_0
_symmetry_space_group_name_H-M    P1
_symmetry_Int_Tables_number       1
_symmetry_cell_setting            triclinic
loop_
_symmetry_equiv_pos_as_xyz
'x, y, z'
_cell_length_a     34.352778
_cell_length_b     32.774265
_cell_length_c     35.573253
_cell_angle_alpha  91.737816
_cell_angle_beta   91.994566
_cell_angle_gamma 100.69703
loop_
_atom_site_label
_atom_site_type_symbol
_atom_site_fract_x
_atom_site_fract_y
_atom_site_fract_z
_atom_type_partial_charge
O0 O 0.34185 0.31457 0.23982 0.0
Zn1 Zn 0.30215 0.2775 0.27175 0.0
O2 O 0.25594 0.24864 0.2405 0.0
Zn3 Zn 0.20694 0.25098 0.26474 0.0
Zn4 Zn 0.25541 0.27627 0.19291 0.0
Zn5 Zn 0.2572 0.18962 0.23251 0.0
O6 O 0.17958 0.19602 0.28186 0.0
O7 O 0.20935 0.15101 0.25194 0.0
O8 O 0.28372 0.31247 0.31465 0.0
O9 O 0.21878 0.28766 0.31023 0.0
O10 O 0.16882 0.27507 0.23229 0.0
O11 O 0.20527 0.30029 0.18481 0.0
O12 O 0.26274 0.23631 0.15061 0.0
O13 O 0.33055 0.23437 0.29432 0.0
O14 O 0.26703 0.17717 0.17818 0.0
O15 O 0.30178 0.17548 0.26404 0.0
C16 C 0.33643 0.33062 0.2083 0.0
C17 C 0.18274 0.15881 0.27372 0.0
C18 C 0.17313 0.29553 0.20246 0.0
C19 C 0.2488 0.31057 0.32667 0.0
C20 C 0.2686 0.199 0.149 0.0
C21 C 0.3275 0.19536 0.28775 0.0
O22 O 0.3035 0.32155 0.18962 0.0
O23 O 0.76977 0.1978 0.19633 0.0
Zn24 Zn 0.79301 0.2249 0.24621 0.0
O25 O 0.75087 0.23699 0.27867 0.0
Zn26 Zn 0.75318 0.29667 0.28467 0.0
Zn27 Zn 0.69896 0.21351 0.25679 0.0
Zn28 Zn 0.75667 0.21295 0.32699 0.0
O29 O 0.76021 0.31532 0.33888 0.0
O30 O 0.76831 0.25811 0.36763 0.0
O31 O 0.82889 0.27726 0.23449 0.0
O32 O 0.80153 0.32661 0.26093 0.0
O33 O 0.70714 0.31607 0.25812 0.0
O34 O 0.66791 0.25643 0.24117 0.0
O35 O 0.66637 0.1733 0.2893 0.0
O36 O 0.829 0.19105 0.27191 0.0
O37 O 0.7087 0.17041 0.33748 0.0
O38 O 0.80319 0.18399 0.32832 0.0
C39 C 0.73386 0.18189 0.18729 0.0
C40 C 0.76856 0.29708 0.36839 0.0
C41 C 0.67533 0.29589 0.24209 0.0
C42 C 0.82894 0.31529 0.2424 0.0
C43 C 0.6752 0.15848 0.32031 0.0
C44 C 0.82904 0.1778 0.30515 0.0
O45 O 0.70572 0.18417 0.209 0.0
O46 O 0.69707 0.67222 0.25183 0.0
Zn47 Zn 0.72601 0.71969 0.28745 0.0
O48 O 0.73763 0.77047 0.25888 0.0
Zn49 Zn 0.79216 0.78386 0.24532 0.0
Zn50 Zn 0.70398 0.75859 0.21483 0.0
Zn51 Zn 0.72569 0.81898 0.28364 0.0
O52 O 0.82019 0.84029 0.26615 0.0
O53 O 0.77563 0.85386 0.30593 0.0
O54 O 0.77823 0.70351 0.30459 0.0
O55 O 0.82188 0.74615 0.27221 0.0
O56 O 0.79758 0.77206 0.18987 0.0
O57 O 0.73566 0.74268 0.1722 0.0
O58 O 0.67859 0.80613 0.20184 0.0
O59 O 0.69256 0.73147 0.33253 0.0
O60 O 0.69538 0.85219 0.24948 0.0
O61 O 0.6938 0.79949 0.32668 0.0
C62 C 0.66877 0.67517 0.22853 0.0
C63 C 0.81097 0.86028 0.29484 0.0
C64 C 0.77241 0.75181 0.16567 0.0
C65 C 0.81366 0.71679 0.29481 0.0
C66 C 0.67735 0.84103 0.21785 0.0
C67 C 0.68319 0.76583 0.34361 0.0
O68 O 0.66078 0.71059 0.22193 0.0
O69 O 0.3213 0.75032 0.30758 0.0
Zn70 Zn 0.29933 0.71288 0.26228 0.0
O71 O 0.2784 0.74831 0.2276 0.0
Zn72 Zn 0.22309 0.7451 0.22986 0.0
Zn73 Zn 0.30407 0.8042 0.23968 0.0
Zn74 Zn 0.28573 0.7315 0.17828 0.0
O75 O 0.1959 0.74465 0.17918 0.0
O76 O 0.23542 0.70824 0.15091 0.0
O77 O 0.25351 0.66961 0.27682 0.0
O78 O 0.20094 0.69191 0.2525 0.0
O79 O 0.21213 0.7893 0.2644 0.0
O80 O 0.26905 0.83419 0.27134 0.0
O81 O 0.32339 0.83285 0.19326 0.0
O82 O 0.33976 0.6832 0.23733 0.0
O83 O 0.31133 0.77966 0.15119 0.0
O84 O 0.31958 0.68991 0.17804 0.0
C85 C 0.34329 0.78594 0.30494 0.0
C86 C 0.20296 0.72131 0.15204 0.0
C87 C 0.23289 0.82232 0.27935 0.0
C88 C 0.21619 0.6653 0.2703 0.0
C89 C 0.32445 0.81764 0.16002 0.0
C90 C 0.3403 0.67461 0.20213 0.0
O91 O 0.35045 0.80068 0.2728 0.0
O92 O 0.25949 0.68331 0.69699 0.0
Zn93 Zn 0.2839 0.71459 0.74511 0.0
O94 O 0.24071 0.72697 0.77551 0.0
Zn95 Zn 0.24025 0.78597 0.77965 0.0
Zn96 Zn 0.1897 0.69872 0.75501 0.0
Zn97 Zn 0.24739 0.7089 0.82537 0.0
O98 O 0.25539 0.81084 0.83166 0.0
O99 O 0.27475 0.75716 0.85815 0.0
O100 O 0.31869 0.76846 0.72976 0.0
O101 O 0.28384 0.8148 0.75012 0.0
O102 O 0.19085 0.80128 0.75617 0.0
O103 O 0.15972 0.73997 0.73267 0.0
O104 O 0.15549 0.66929 0.79444 0.0
O105 O 0.31659 0.67801 0.77393 0.0
O106 O 0.19461 0.6861 0.84585 0.0
O107 O 0.28206 0.66581 0.82561 0.0
C108 C 0.2252 0.66121 0.68985 0.0
C109 C 0.27362 0.79577 0.85809 0.0
C110 C 0.16267 0.7792 0.73625 0.0
C111 C 0.31324 0.80588 0.73315 0.0
C112 C 0.16121 0.6701 0.83002 0.0
C113 C 0.30976 0.65919 0.80465 0.0
O114 O 0.19687 0.6606 0.71209 0.0
O115 O 0.17713 0.1699 0.76402 0.0
Zn116 Zn 0.2093 0.21745 0.79717 0.0
O117 O 0.22898 0.26203 0.76381 0.0
Zn118 Zn 0.28234 0.26097 0.75086 0.0
Zn119 Zn 0.19436 0.2512 0.72016 0.0
Zn120 Zn 0.22649 0.31548 0.78471 0.0
O121 O 0.31935 0.31476 0.7659 0.0
O122 O 0.28015 0.34438 0.80207 0.0
O123 O 0.2566 0.19903 0.82255 0.0
O124 O 0.30417 0.22138 0.78315 0.0
O125 O 0.28423 0.24017 0.69756 0.0
O126 O 0.22044 0.22162 0.67954 0.0
O127 O 0.17859 0.30369 0.70254 0.0
O128 O 0.17619 0.23926 0.8371 0.0
O129 O 0.20347 0.35056 0.74791 0.0
O130 O 0.19332 0.30746 0.82921 0.0
C131 C 0.14993 0.17603 0.74071 0.0
C132 C 0.31428 0.34218 0.79055 0.0
C133 C 0.25706 0.22209 0.67412 0.0
C134 C 0.29208 0.20159 0.81196 0.0
C135 C 0.18452 0.34064 0.71663 0.0
C136 C 0.17503 0.27688 0.84677 0.0
O137 O 0.14589 0.21303 0.73486 0.0
O138 O 0.79514 0.27784 0.80611 0.0
Zn139 Zn 0.779 0.23913 0.7601 0.0
O140 O 0.7614 0.26943 0.71854 0.0
Zn141 Zn 0.70471 0.25808 0.70986 0.0
Zn142 Zn 0.77588 0.32863 0.72887 0.0
Zn143 Zn 0.785 0.25501 0.67405 0.0
O144 O 0.68895 0.24741 0.65508 0.0
O145 O 0.74546 0.23503 0.63259 0.0
O146 O 0.73147 0.20057 0.77569 0.0
O147 O 0.68056 0.20825 0.73778 0.0
O148 O 0.68429 0.30393 0.73619 0.0
O149 O 0.72979 0.35785 0.72383 0.0
O150 O 0.82246 0.35348 0.69979 0.0
O151 O 0.82115 0.20512 0.74488 0.0
O152 O 0.8263 0.30123 0.65963 0.0
O153 O 0.81436 0.21054 0.68295 0.0
C154 C 0.79601 0.31683 0.81014 0.0
C155 C 0.70872 0.23556 0.62853 0.0
C156 C 0.69882 0.34243 0.74085 0.0
C157 C 0.69509 0.19091 0.76501 0.0
C158 C 0.83929 0.3377 0.67314 0.0
C159 C 0.82885 0.19531 0.71131 0.0
O160 O 0.79009 0.33852 0.7824 0.0
O161 O 0.85173 0.82087 0.75673 0.0
Zn162 Zn 0.81137 0.77869 0.78233 0.0
O163 O 0.76587 0.75655 0.74796 0.0
Zn164 Zn 0.71657 0.75621 0.77189 0.0
Zn165 Zn 0.7683 0.79251 0.70552 0.0
Zn166 Zn 0.76566 0.69919 0.73165 0.0
O167 O 0.68913 0.69941 0.78287 0.0
O168 O 0.71703 0.65814 0.74633 0.0
O169 O 0.7928 0.80607 0.82942 0.0
O170 O 0.72728 0.78709 0.82063 0.0
O171 O 0.67903 0.78263 0.74129 0.0
O172 O 0.71675 0.81303 0.69667 0.0
O173 O 0.78291 0.76179 0.65967 0.0
O174 O 0.83906 0.73207 0.79692 0.0
O175 O 0.77732 0.69626 0.67683 0.0
O176 O 0.80937 0.679 0.7594 0.0
C177 C 0.84614 0.84533 0.73081 0.0
C178 C 0.69105 0.6634 0.76983 0.0
C179 C 0.68384 0.80541 0.71296 0.0
C180 C 0.75757 0.80515 0.84016 0.0
C181 C 0.78535 0.72404 0.65247 0.0
C182 C 0.83549 0.69457 0.78458 0.0
O183 O 0.81321 0.8412 0.71226 0.0
C184 C 0.95277 0.10065 0.56657 0.0
C185 C 0.957 0.07222 0.44432 0.0
C186 C 0.95861 0.92249 0.47063 0.0
Mg187 Mg 0.01893 0.09155 0.51057 0.0
O188 O 0.00297 0.03743 0.52956 0.0
Mg189 Mg 0.94666 0.00961 0.5178 0.0
Mg190 Mg 0.03088 0.99241 0.51107 0.0
O191 O 0.05783 0.94941 0.4898 0.0
Mg192 Mg 0.03887 0.89282 0.49612 0.0
Mg193 Mg 0.11307 0.97546 0.50548 0.0
C194 C 0.0947 0.06604 0.54049 0.0
C195 C 0.08281 0.0302 0.44025 0.0
O196 O 0.933 0.06488 0.5548 0.0
O197 O 0.98652 0.11672 0.55377 0.0
O198 O 0.94003 0.0431 0.4642 0.0
O199 O 0.98963 0.09531 0.45564 0.0
O200 O 0.0814 0.08375 0.51247 0.0
O201 O 0.08892 0.02619 0.54053 0.0
C202 C 0.98067 0.95762 0.58336 0.0
O203 O 0.0127 0.95733 0.56594 0.0
O204 O 0.95338 0.97528 0.57012 0.0
O205 O 0.13211 0.92409 0.46805 0.0
O206 O 0.08016 0.87121 0.46003 0.0
O207 O 0.10963 0.93459 0.55768 0.0
C208 C 0.11563 0.88865 0.45314 0.0
O209 O 0.05549 0.88433 0.55407 0.0
O210 O 0.97869 0.89307 0.47247 0.0
C211 C 0.08662 0.90412 0.57194 0.0
O212 O 0.97243 0.95904 0.48443 0.0
O213 O 0.04952 0.02703 0.45632 0.0
O214 O 0.11117 0.0143 0.4541 0.0
C215 C 0.40365 0.09548 0.01553 0.0
C216 C 0.46318 0.11171 0.91404 0.0
C217 C 0.4692 0.94505 0.9291 0.0
Mg218 Mg 0.49305 0.11151 -0.00344 0.0
O219 O 0.48162 0.05301 -0.00671 0.0
Mg220 Mg 0.43603 0.02342 0.96074 0.0
Mg221 Mg 0.52202 0.02019 0.97845 0.0
O222 O 0.56333 0.98713 0.96478 0.0
Mg223 Mg 0.54998 0.92954 0.97029 0.0
Mg224 Mg 0.60705 0.01711 0.00054 0.0
C225 C 0.5719 0.09215 0.03636 0.0
C226 C 0.58986 0.07827 0.93493 0.0
O227 O 0.39774 0.06204 -0.0054 0.0
O228 O 0.43798 0.11859 0.02137 0.0
O229 O 0.44486 0.07451 0.91788 0.0
O230 O 0.48671 0.13157 0.93982 0.0
O231 O 0.55052 0.11973 0.02957 0.0
O232 O 0.56293 0.055 0.02275 0.0
C233 C 0.45602 0.96117 0.02332 0.0
O234 O 0.49322 0.97336 0.0198 0.0
O235 O 0.42997 0.9756 0.00404 0.0
O236 O 0.64666 0.97535 0.97275 0.0
O237 O 0.60574 0.91638 0.95162 0.0
O238 O 0.59463 0.97109 0.04771 0.0
C239 C 0.64043 0.93911 0.95629 0.0
O240 O 0.54853 0.91659 0.02924 0.0
O241 O 0.49202 0.92014 0.93984 0.0
C242 C 0.57182 0.93707 0.0547 0.0
O243 O 0.47887 0.98472 0.93405 0.0
O244 O 0.5523 0.06713 0.93769 0.0
O245 O 0.61524 0.06335 0.95491 0.0
C246 C 0.85711 0.59474 0.03424 0.0
C247 C 0.90277 0.55186 0.93141 0.0
C248 C 0.89878 0.40676 -0.00325 0.0
Mg249 Mg 0.93966 0.58464 0.008 0.0
O250 O 0.92513 0.53319 0.02893 0.0
Mg251 Mg 0.87393 0.49879 0.00903 0.0
Mg252 Mg 0.96063 0.49259 0.02012 0.0
O253 O 0.99627 0.4521 0.01125 0.0
Mg254 Mg 0.98489 0.39837 0.02953 0.0
Mg255 Mg 0.04833 0.48732 0.0273 0.0
C256 C 0.02323 0.57727 0.04447 0.0
C257 C 0.01653 0.52581 0.95201 0.0
O258 O 0.84464 0.5554 0.02813 0.0
O259 O 0.89292 0.61215 0.02883 0.0
O260 O 0.87889 0.52437 0.9484 0.0
O261 O 0.9312 0.57608 0.94908 0.0
O262 O -0.00046 0.59958 0.03087 0.0
O263 O 0.01311 0.53771 0.04708 0.0
C264 C 0.90394 0.46602 0.08834 0.0
O265 O 0.93885 0.46758 0.07599 0.0
O266 O 0.87534 0.47583 0.0685 0.0
O267 O 0.07613 0.43365 0.00272 0.0
O268 O 0.03015 0.37479 -0.00029 0.0
O269 O 0.05047 0.45723 0.08472 0.0
C270 C 0.06501 0.39482 -0.00633 0.0
O271 O 0.00364 0.40062 0.08796 0.0
O272 O 0.92269 0.38431 0.01007 0.0
C273 C 0.03345 0.426 0.10254 0.0
O274 O 0.90917 0.44639 -0.00588 0.0
O275 O 0.98122 0.51979 0.96378 0.0
O276 O 0.04546 0.51592 0.97091 0.0
C277 C 0.43583 0.56596 0.04159 0.0
C278 C 0.4624 0.55823 0.92279 0.0
C279 C 0.47978 0.4009 0.95307 0.0
Mg280 Mg 0.51274 0.57353 -0.0026 0.0
O281 O 0.50042 0.51729 0.00952 0.0
Mg282 Mg 0.44937 0.48394 0.98821 0.0
Mg283 Mg 0.53763 0.48075 -0.00456 0.0
O284 O 0.5747 0.44517 0.97921 0.0
Mg285 Mg 0.56411 0.38841 0.98848 0.0
Mg286 Mg 0.62544 0.47985 -0.00098 0.0
C287 C 0.59311 0.56167 0.03384 0.0
C288 C 0.59223 0.52886 0.93115 0.0
O289 O 0.42195 0.53131 0.02355 0.0
O290 O 0.47055 0.58723 0.03674 0.0
O291 O 0.44608 0.52347 0.93563 0.0
O292 O 0.49066 0.58212 0.94115 0.0
O293 O 0.577 0.58171 0.00911 0.0
O294 O 0.58784 0.52181 0.03159 0.0
C295 C 0.47949 0.43468 0.05849 0.0
O296 O 0.51541 0.4414 0.04771 0.0
O297 O 0.45183 0.44715 0.03989 0.0
O298 O 0.65506 0.43497 0.96202 0.0
O299 O 0.61126 0.37457 0.955 0.0
O300 O 0.62615 0.44031 0.05158 0.0
C301 C 0.64417 0.39793 0.94766 0.0
O302 O 0.57795 0.38414 0.04778 0.0
O303 O 0.50373 0.37673 0.96274 0.0
C304 C 0.60632 0.4081 0.06616 0.0
O305 O 0.48793 0.44026 0.9604 0.0
O306 O 0.55751 0.51988 0.94409 0.0
O307 O 0.62206 0.51786 0.94748 0.0
C308 C 0.91442 0.61748 0.51375 0.0
C309 C 0.95462 0.59585 0.40469 0.0
C310 C 0.9547 0.44009 0.45551 0.0
Mg311 Mg -0.00151 0.62 0.48261 0.0
O312 O 0.98645 0.56334 0.49257 0.0
Mg313 Mg 0.93444 0.52944 0.47453 0.0
Mg314 Mg 0.0209 0.5217 0.48233 0.0
O315 O 0.05465 0.47948 0.47256 0.0
Mg316 Mg 0.03785 0.42573 0.489 0.0
Mg317 Mg 0.10596 0.5114 0.49511 0.0
C318 C 0.08331 0.60358 0.51632 0.0
C319 C 0.08062 0.55042 0.41712 0.0
O320 O 0.90534 0.58027 0.49993 0.0
O321 O 0.94964 0.63905 0.51261 0.0
O322 O 0.93679 0.56244 0.41892 0.0
O323 O 0.98182 0.6215 0.42319 0.0
O324 O 0.06065 0.62927 0.50668 0.0
O325 O 0.07204 0.56404 0.51189 0.0
C326 C 0.96473 0.49148 0.54995 0.0
O327 O -0.00057 0.49441 0.53735 0.0
O328 O 0.93588 0.50135 0.53098 0.0
O329 O 0.1346 0.45592 0.47317 0.0
O330 O 0.0856 0.39967 0.46666 0.0
O331 O 0.0985 0.4806 0.55301 0.0
C332 C 0.12196 0.41732 0.46389 0.0
O333 O 0.04649 0.42841 0.5485 0.0
O334 O 0.97637 0.41461 0.46717 0.0
C335 C 0.07461 0.45132 0.5678 0.0
O336 O 0.96817 0.47917 0.45372 0.0
O337 O 0.04494 0.54889 0.42745 0.0
O338 O 0.10744 0.53891 0.43808 0.0
C339 C 0.38101 0.09399 0.54702 0.0
C340 C 0.41008 0.05666 0.43682 0.0
C341 C 0.41158 0.90577 0.49243 0.0
Mg342 Mg 0.45792 0.08105 0.50973 0.0
O343 O 0.4443 0.02904 0.52935 0.0
Mg344 Mg 0.39026 -0.00232 0.51348 0.0
Mg345 Mg 0.4778 0.98777 0.51568 0.0
O346 O 0.51088 0.94545 0.50356 0.0
Mg347 Mg 0.49709 0.89314 0.52492 0.0
Mg348 Mg 0.56412 0.97842 0.52006 0.0
C349 C 0.54421 0.07027 0.53534 0.0
C350 C 0.53202 0.01792 0.44537 0.0
O351 O 0.36542 0.05525 0.54047 0.0
O352 O 0.41636 0.10917 0.5381 0.0
O353 O 0.38835 0.02815 0.45466 0.0
O354 O 0.4414 0.07834 0.45214 0.0
O355 O 0.51985 0.09319 0.5245 0.0
O356 O 0.53302 0.03122 0.54059 0.0
C357 C 0.4242 0.95307 0.58512 0.0
O358 O 0.45829 0.9576 0.57057 0.0
O359 O 0.39499 0.96688 0.56995 0.0
O360 O 0.58876 0.92144 0.49688 0.0
O361 O 0.54033 0.86467 0.49619 0.0
O362 O 0.56528 0.95162 0.57818 0.0
C363 C 0.5758 0.88247 0.48946 0.0
O364 O 0.51628 0.89763 0.5836 0.0
O365 O 0.43445 0.88228 0.50597 0.0
C366 C 0.5465 0.92284 0.59752 0.0
O367 O 0.42297 0.94533 0.49028 0.0
O368 O 0.49768 0.01681 0.45904 0.0
O369 O 0.55983 0.00456 0.46323 0.0
H370 H 0.11874 0.16257 0.31592 0.0
H371 H 0.19551 0.07937 0.2807 0.0
H372 H 0.16809 0.03007 0.3273 0.0
H373 H 0.12916 0.01514 0.38356 0.0
H374 H 0.0532 0.09848 0.41951 0.0
H375 H 0.07311 0.143 0.3669 0.0
C376 C 0.12894 0.13328 0.31788 0.0
C377 C 0.15962 0.12504 0.29515 0.0
C378 C 0.11352 0.10533 0.34521 0.0
C379 C 0.17207 0.08667 0.29781 0.0
C380 C 0.15662 0.05856 0.32471 0.0
C381 C 0.11659 0.04281 0.37956 0.0
C382 C 0.09 0.0538 0.40559 0.0
C383 C 0.12848 0.06832 0.34946 0.0
C384 C 0.07346 0.08927 0.39978 0.0
C385 C 0.08512 0.11488 0.36984 0.0
H386 H 0.82433 0.10012 0.32898 0.0
H387 H 0.90637 0.21428 0.31438 0.0
H388 H 0.95708 0.18948 0.35313 0.0
H389 H 0.97351 0.13952 0.39929 0.0
H390 H 0.89097 0.0243 0.41116 0.0
H391 H 0.84566 0.04477 0.36472 0.0
C392 C 0.85378 0.11887 0.33339 0.0
C393 C 0.86187 0.15878 0.3192 0.0
C394 C 0.88253 0.10444 0.35561 0.0
C395 C 0.89987 0.1832 0.32498 0.0
C396 C 0.92866 0.16918 0.34737 0.0
C397 C 0.94605 0.11853 0.39107 0.0
C398 C 0.93518 0.08112 0.40974 0.0
C399 C 0.91974 0.13048 0.3641 0.0
C400 C 0.89976 0.05388 0.39813 0.0
C401 C 0.87365 0.06549 0.37149 0.0
H402 H 0.80419 0.89381 0.36515 0.0
H403 H 0.89046 0.87692 0.28326 0.0
H404 H 0.94363 0.8962 0.33113 0.0
H405 H 0.9648 0.90892 0.39748 0.0
H406 H 0.88034 0.92736 0.47998 0.0
H407 H 0.82688 0.91591 0.43061 0.0
C408 C 0.83468 0.8953 0.35746 0.0
C409 C 0.84313 0.88318 0.32062 0.0
C410 C 0.8652 0.90556 0.38544 0.0
C411 C 0.88292 0.88569 0.3113 0.0
C412 C 0.91339 0.89636 0.33878 0.0
C413 C 0.93459 0.91041 0.40454 0.0
C414 C 0.92589 0.91753 0.44217 0.0
C415 C 0.90466 0.90462 0.37613 0.0
C416 C 0.88722 0.92094 0.45116 0.0
C417 C 0.85689 0.91461 0.42296 0.0
H418 H 0.16852 0.78983 0.31677 0.0
H419 H 0.26026 0.89924 0.31415 0.0
H420 H 0.23342 0.92871 0.36971 0.0
H421 H 0.18308 0.92302 0.41834 0.0
H422 H 0.09383 0.8112 0.42063 0.0
H423 H 0.12138 0.78263 0.36598 0.0
C424 C 0.18259 0.8204 0.32791 0.0
C425 C 0.21593 0.84268 0.31085 0.0
C426 C 0.16782 0.83636 0.36012 0.0
C427 C 0.2342 0.88174 0.32643 0.0
C428 C 0.21903 0.89841 0.35831 0.0
C429 C 0.17 0.89216 0.40722 0.0
C430 C 0.13625 0.86941 0.42354 0.0
C431 C 0.18586 0.87587 0.37543 0.0
C432 C 0.11965 0.82952 0.40864 0.0
C433 C 0.13525 0.81319 0.37724 0.0
H434 H 0.17372 0.86074 0.71922 0.0
H435 H 0.09383 0.74353 0.69778 0.0
H436 H 0.05948 0.77386 0.64763 0.0
H437 H 0.05831 0.8306 0.60422 0.0
H438 H 0.14109 0.94632 0.62363 0.0
H439 H 0.16775 0.91972 0.6803 0.0
C440 C 0.14822 0.84203 0.70422 0.0
C441 C 0.13671 0.79978 0.71202 0.0
C442 C 0.12944 0.85925 0.67456 0.0
C443 C 0.10358 0.77605 0.69217 0.0
C444 C 0.084 0.79332 0.66334 0.0
C445 C 0.08173 0.85026 0.62117 0.0
C446 C 0.09815 0.8901 0.60924 0.0
C447 C 0.09765 0.83442 0.65334 0.0
C448 C 0.12833 0.91524 0.63174 0.0
C449 C 0.14362 0.90008 0.66423 0.0
H450 H 0.09876 0.18408 0.68343 0.0
H451 H 0.16488 0.09661 0.73063 0.0
H452 H 0.15047 0.05258 0.67307 0.0
H453 H 0.12634 0.04397 0.60635 0.0
H454 H 0.06833 0.13774 0.5584 0.0
H455 H 0.07285 0.17445 0.61908 0.0
C456 C 0.10961 0.15506 0.68157 0.0
C457 C 0.1333 0.14399 0.71123 0.0
C458 C 0.10331 0.1314 0.64782 0.0
C459 C 0.1466 0.10598 0.70827 0.0
C460 C 0.13876 0.08104 0.67516 0.0
C461 C 0.11441 0.07226 0.60934 0.0
C462 C 0.0968 0.08782 0.5778 0.0
C463 C 0.11842 0.09429 0.64424 0.0
C464 C 0.08185 0.12477 0.58203 0.0
C465 C 0.0844 0.14589 0.61682 0.0
H466 H 0.90096 0.22187 0.6873 0.0
H467 H 0.8184 0.11099 0.71128 0.0
H468 H 0.85181 0.07008 0.66833 0.0
H469 H 0.89684 0.06899 0.61588 0.0
H470 H 0.97609 0.18198 0.58931 0.0
H471 H 0.95118 0.21922 0.64079 0.0
C472 C 0.89164 0.18835 0.68447 0.0
C473 C 0.85786 0.16918 0.70274 0.0
C474 C 0.90923 0.1659 0.65793 0.0
C475 C 0.84505 0.12607 0.69821 0.0
C476 C 0.86354 0.10297 0.67293 0.0
C477 C 0.90864 0.10177 0.62132 0.0
C478 C 0.93757 0.1229 0.59808 0.0
C479 C 0.89424 0.12307 0.65114 0.0
C480 C 0.95333 0.16509 0.60626 0.0
C481 C 0.93932 0.18638 0.63589 0.0
H482 H 0.91274 0.82882 0.7005 0.0
H483 H 0.8518 0.92845 0.7291 0.0
H484 H 0.89659 0.97584 0.69125 0.0
H485 H 0.94313 0.98452 0.64087 0.0
H486 H -0.00113 0.8832 0.60537 0.0
H487 H 0.96731 0.84106 0.65576 0.0
C488 C 0.91045 0.86135 0.69946 0.0
C489 C 0.87944 0.87554 0.71761 0.0
C490 C 0.93501 0.88774 0.67596 0.0
C491 C 0.87576 0.91726 0.71552 0.0
C492 C 0.90114 0.94415 0.69369 0.0
C493 C 0.94916 0.95352 0.64479 0.0
C494 C 0.97271 0.93663 0.61919 0.0
C495 C 0.92942 0.92912 0.67237 0.0
C496 C 0.98088 0.89682 0.62477 0.0
C497 C 0.9624 0.87261 0.6533 0.0
H498 H 0.27258 0.11907 0.12828 0.0
H499 H 0.3044 0.24551 0.09327 0.0
H500 H 0.34742 0.224 0.04658 0.0
H501 H 0.38314 0.17103 0.02187 0.0
H502 H 0.34945 0.04414 0.05429 0.0
H503 H 0.30002 0.06394 0.09571 0.0
C504 C 0.28819 0.14173 0.10982 0.0
C505 C 0.28568 0.18391 0.11474 0.0
C506 C 0.31311 0.12919 0.08299 0.0
C507 C 0.30574 0.21282 0.09024 0.0
C508 C 0.33073 0.20065 0.0637 0.0
C509 C 0.36449 0.14774 0.03766 0.0
C510 C 0.37015 0.10644 0.03572 0.0
C511 C 0.33581 0.15925 0.06087 0.0
C512 C 0.34554 0.0762 0.0556 0.0
C513 C 0.31742 0.08753 0.07933 0.0
H514 H 0.82203 0.39441 0.23051 0.0
H515 H 0.89961 0.30652 0.21324 0.0
H516 H 0.93624 0.35184 0.16802 0.0
H517 H 0.93611 0.40803 0.12405 0.0
H518 H 0.85251 0.49032 0.13635 0.0
H519 H 0.82838 0.45585 0.19313 0.0
C520 C 0.84764 0.38568 0.21769 0.0
C521 C 0.85756 0.34685 0.22435 0.0
C522 C 0.8669 0.41054 0.19026 0.0
C523 C 0.89101 0.33605 0.20786 0.0
C524 C 0.9118 0.3618 0.18191 0.0
C525 C 0.91338 0.419 0.13982 0.0
C526 C 0.89545 0.45087 0.12596 0.0
C527 C 0.89845 0.39783 0.17132 0.0
C528 C 0.86604 0.46511 0.14635 0.0
C529 C 0.85232 0.44551 0.17875 0.0
H530 H 0.60888 0.81747 0.17774 0.0
H531 H 0.69519 0.92573 0.21382 0.0
H532 H 0.66458 0.96793 0.16984 0.0
H533 H 0.62066 0.97043 0.1142 0.0
H534 H 0.53557 0.86093 0.07758 0.0
H535 H 0.55765 0.82301 0.12962 0.0
C536 C 0.6205 0.85051 0.17643 0.0
C537 C 0.65464 0.86847 0.1982 0.0
C538 C 0.60313 0.87416 0.15092 0.0
C539 C 0.66904 0.91133 0.19705 0.0
C540 C 0.65169 0.93531 0.17179 0.0
C541 C 0.60632 0.93853 0.118 0.0
C542 C 0.57735 0.91815 0.09128 0.0
C543 C 0.6198 0.91657 0.14749 0.0
C544 C 0.55846 0.87714 0.09723 0.0
C545 C 0.5712 0.85534 0.1269 0.0
H546 H 0.19063 0.64438 0.12117 0.0
H547 H 0.1432 0.75743 0.12444 0.0
H548 H 0.08489 0.72293 0.08644 0.0
H549 H 0.04521 0.65939 0.05892 0.0
H550 H 0.08897 0.54411 0.06286 0.0
H551 H 0.15164 0.58103 0.09149 0.0
C552 C 0.16786 0.66165 0.11288 0.0
C553 C 0.17085 0.70322 0.12525 0.0
C554 C 0.1339 0.64117 0.09284 0.0
C555 C 0.14112 0.7253 0.11509 0.0
C556 C 0.10794 0.70561 0.09356 0.0
C557 C 0.06857 0.64224 0.06552 0.0
C558 C 0.06243 0.59899 0.05877 0.0
C559 C 0.10362 0.66329 0.08329 0.0
C560 C 0.09289 0.57733 0.06779 0.0
C561 C 0.1287 0.59843 0.0842 0.0
H562 H 0.30296 0.87769 0.84914 0.0
H563 H 0.30859 0.77728 0.92382 0.0
H564 H 0.36886 0.8171 0.95473 0.0
H565 H 0.42513 0.87494 0.95349 0.0
H566 H 0.42089 0.97506 0.87847 0.0
H567 H 0.35478 0.94062 0.85442 0.0
C568 C 0.31665 0.86497 0.87291 0.0
C569 C 0.30165 0.82425 0.88376 0.0
C570 C 0.35212 0.88741 0.88965 0.0
C571 C 0.31977 0.80835 0.91467 0.0
C572 C 0.35444 0.83093 0.93213 0.0
C573 C 0.40966 0.88925 0.93191 0.0
C574 C 0.42816 0.92669 0.91676 0.0
C575 C 0.37185 0.86948 0.91854 0.0
C576 C 0.40736 0.94579 0.88993 0.0
C577 C 0.36962 0.92618 0.8763 0.0
H578 H 0.19586 0.34186 0.89499 0.0
H579 H 0.10414 0.23441 0.87085 0.0
H580 H 0.06266 0.25974 0.91792 0.0
H581 H 0.05007 0.31698 0.95998 0.0
H582 H 0.14276 0.42473 0.9818 0.0
H583 H 0.18644 0.39448 0.94157 0.0
C584 C 0.16693 0.32371 0.90036 0.0
C585 C 0.15262 0.2868 0.87923 0.0
C586 C 0.14338 0.33873 0.92671 0.0
C587 C 0.11559 0.26303 0.88685 0.0
C588 C 0.09186 0.27767 0.9135 0.0
C589 C 0.08 0.33359 0.95635 0.0
C590 C 0.09279 0.37348 0.97336 0.0
C591 C 0.10502 0.31619 0.93271 0.0
C592 C 0.13183 0.39434 0.96863 0.0
C593 C 0.15692 0.37707 0.94563 0.0
H594 H 0.70079 0.19973 0.83909 0.0
H595 H 0.6279 0.13212 0.7482 0.0
H596 H 0.58381 0.09444 0.79399 0.0
H597 H 0.57036 0.0773 0.86051 0.0
H598 H 0.6455 0.14598 0.94957 0.0
H599 H 0.68404 0.18815 0.90366 0.0
C600 C 0.67544 0.17641 0.82928 0.0
C601 C 0.66811 0.16728 0.79073 0.0
C602 C 0.65046 0.15591 0.85537 0.0
C603 C 0.63434 0.13861 0.77804 0.0
C604 C 0.60918 0.11742 0.80411 0.0
C605 C 0.59452 0.1023 0.86958 0.0
C606 C 0.60554 0.10884 0.90793 0.0
C607 C 0.61739 0.12542 0.84291 0.0
C608 C 0.63694 0.14074 0.91994 0.0
C609 C 0.65906 0.16449 0.89382 0.0
H610 H 0.81204 0.61328 0.7978 0.0
H611 H 0.91165 0.7149 0.81231 0.0
H612 H 0.94681 0.67253 0.85175 0.0
H613 H 0.94363 0.61268 0.89077 0.0
H614 H 0.83915 0.51596 0.88496 0.0
H615 H 0.81227 0.54918 0.83194 0.0
C616 C 0.84184 0.6257 0.80891 0.0
C617 C 0.85923 0.66716 0.80268 0.0
C618 C 0.86086 0.60198 0.83312 0.0
C619 C 0.89765 0.68319 0.81728 0.0
C620 C 0.91768 0.65898 0.83971 0.0
C621 C 0.9153 0.59825 0.87751 0.0
C622 C 0.89284 0.56257 0.8926 0.0
C623 C 0.89876 0.61914 0.8492 0.0
C624 C 0.85678 0.54375 0.87429 0.0
C625 C 0.8412 0.56302 0.84424 0.0
H626 H 0.17621 0.37677 0.18966 0.0
H627 H 0.0966 0.25848 0.18744 0.0
H628 H 0.04231 0.29066 0.16309 0.0
H629 H 0.02024 0.35084 0.13569 0.0
H630 H 0.09977 0.46977 0.13997 0.0
H631 H 0.15062 0.43941 0.17216 0.0
C632 C 0.14689 0.35823 0.18385 0.0
C633 C 0.14039 0.31528 0.18909 0.0
C634 C 0.11571 0.37715 0.17089 0.0
C635 C 0.10218 0.29154 0.1828 0.0
C636 C 0.07119 0.30996 0.16914 0.0
C637 C 0.0482 0.37052 0.14467 0.0
C638 C 0.05643 0.41233 0.13436 0.0
C639 C 0.07785 0.3526 0.16228 0.0
C640 C 0.0927 0.43735 0.14692 0.0
C641 C 0.1221 0.41989 0.16493 0.0
H642 H 0.1013 0.60433 0.81336 0.0
H643 H 0.14821 0.69714 0.90008 0.0
H644 H 0.09919 0.6646 0.94317 0.0
H645 H 0.0508 0.60439 0.95921 0.0
H646 H 0.00884 0.50634 0.87633 0.0
H647 H 0.04695 0.54666 0.82809 0.0
C648 C 0.1002 0.61768 0.84149 0.0
C649 C 0.12857 0.6526 0.85387 0.0
C650 C 0.07274 0.5979 0.86661 0.0
C651 C 0.12707 0.66978 0.89029 0.0
C652 C 0.09898 0.65135 0.91485 0.0
C653 C 0.04901 0.59267 0.93018 0.0
C654 C 0.02714 0.55303 0.92084 0.0
C655 C 0.07272 0.61469 0.90372 0.0
C656 C 0.02522 0.53726 0.88364 0.0
C657 C 0.04741 0.56003 0.85638 0.0
H658 H 0.35799 0.17461 0.7893 0.0
H659 H 0.29302 0.19479 0.88777 0.0
H660 H 0.34533 0.17588 0.9281 0.0
H661 H 0.40769 0.15121 0.93525 0.0
H662 H 0.46896 0.1213 0.83758 0.0
H663 H 0.42064 0.14786 0.79664 0.0
C664 C 0.35529 0.1746 0.81959 0.0
C665 C 0.32162 0.18576 0.83563 0.0
C666 C 0.38517 0.16295 0.84254 0.0
C667 C 0.31831 0.18563 0.87481 0.0
C668 C 0.34839 0.17532 0.89786 0.0
C669 C 0.41103 0.15173 0.90499 0.0
C670 C 0.4423 0.13593 0.88922 0.0
C671 C 0.38182 0.16397 0.88201 0.0
C672 C 0.4457 0.13472 0.8501 0.0
C673 C 0.41778 0.14923 0.82687 0.0
H674 H 0.80815 0.28329 0.87798 0.0
H675 H 0.79767 0.39878 0.82654 0.0
H676 H 0.81805 0.43679 0.88561 0.0
H677 H 0.85219 0.43886 0.94689 0.0
H678 H 0.86534 0.32428 -0.00181 0.0
H679 H 0.82873 0.28448 0.94505 0.0
C680 C 0.80997 0.31669 0.87983 0.0
C681 C 0.80332 0.33827 0.84747 0.0
C682 C 0.82202 0.3387 0.91396 0.0
C683 C 0.80421 0.38141 0.85065 0.0
C684 C 0.81556 0.40332 0.88454 0.0
C685 C 0.84589 0.4052 0.94717 0.0
C686 C 0.86308 0.38462 0.97547 0.0
C687 C 0.82653 0.38254 0.91577 0.0
C688 C 0.85349 0.34095 0.976 0.0
C689 C 0.83292 0.31809 0.94542 0.0
H690 H 0.77085 0.88785 0.85623 0.0
H691 H 0.7229 0.76872 0.90004 0.0
H692 H 0.68467 0.80147 0.94459 0.0
H693 H 0.65489 0.86155 0.96132 0.0
H694 H 0.70128 0.98108 0.91739 0.0
H695 H 0.75023 0.95098 0.88265 0.0
C696 C 0.75354 0.86954 0.87687 0.0
C697 C 0.74968 0.82613 0.87524 0.0
C698 C 0.73039 0.8885 0.9014 0.0
C699 C 0.7265 0.8023 0.90131 0.0
C700 C 0.70419 0.82093 0.92634 0.0
C701 C 0.67628 0.88106 0.94468 0.0
C702 C 0.67416 0.92308 0.94109 0.0
C703 C 0.70421 0.8636 0.92505 0.0
C704 C 0.70233 0.94847 0.92018 0.0
C705 C 0.73021 0.93126 0.9003 0.0
H706 H 0.74092 0.67762 0.13115 0.0
H707 H 0.83813 0.78163 0.12716 0.0
H708 H 0.87003 0.74327 0.08117 0.0
H709 H 0.87456 0.67776 0.04935 0.0
H710 H 0.78086 0.57089 0.0577 0.0
H711 H 0.74291 0.61309 0.09442 0.0
C712 C 0.76857 0.69227 0.11942 0.0
C713 C 0.78725 0.73241 0.13247 0.0
C714 C 0.78758 0.66931 0.09429 0.0
C715 C 0.82333 0.75078 0.11755 0.0
C716 C 0.84161 0.72878 0.09143 0.0
C717 C 0.84563 0.66357 0.05873 0.0
C718 C 0.83093 0.62093 0.05122 0.0
C719 C 0.82471 0.68756 0.08075 0.0
C720 C 0.7931 0.6035 0.06329 0.0
C721 C 0.77144 0.6276 0.0844 0.0
H722 H 0.39592 0.86761 0.16644 0.0
H723 H 0.29713 0.82154 0.08886 0.0
H724 H 0.33238 0.85831 0.03777 0.0
H725 H 0.38972 0.90479 0.01625 0.0
H726 H 0.48972 0.95103 0.09238 0.0
H727 H 0.45633 0.91102 0.14317 0.0
C728 C 0.38214 0.86637 0.1384 0.0
C729 C 0.34393 0.84319 0.13111 0.0
C730 C 0.40302 0.88645 0.10913 0.0
C731 C 0.32639 0.84009 0.09474 0.0
C732 C 0.34657 0.86065 0.06566 0.0
C733 C 0.40434 0.90573 0.04392 0.0
C734 C 0.44151 0.93102 0.05115 0.0
C735 C 0.38474 0.88389 0.07265 0.0
C736 C 0.4609 0.93155 0.08655 0.0
C737 C 0.44165 0.90925 0.11554 0.0
H738 H 0.69956 0.10431 0.16745 0.0
H739 H 0.73774 0.22554 0.12382 0.0
H740 H 0.69047 0.208 0.06997 0.0
H741 H 0.6298 0.16211 0.04223 0.0
H742 H 0.59188 0.04162 0.08835 0.0
H743 H 0.64719 0.0547 0.13427 0.0
C744 C 0.6988 0.12599 0.14507 0.0
C745 C 0.72194 0.16583 0.14911 0.0
C746 C 0.67053 0.1163 0.1154 0.0
C747 C 0.72053 0.1943 0.12062 0.0
C748 C 0.69289 0.1846 0.09036 0.0
C749 C 0.63399 0.13887 0.06228 0.0
C750 C 0.60667 0.10131 0.06246 0.0
C751 C 0.66622 0.1465 0.08865 0.0
C752 C 0.61263 0.07083 0.08786 0.0
C753 C 0.64424 0.0782 0.1141 0.0
H754 H 0.62321 0.66127 0.80706 0.0
H755 H 0.7076 0.58531 0.77507 0.0
H756 H 0.68105 0.53406 0.82052 0.0
H757 H 0.64146 0.51696 0.87616 0.0
H758 H 0.55796 0.59333 0.90886 0.0
H759 H 0.57631 0.6383 0.85616 0.0
C760 C 0.63512 0.63297 0.80935 0.0
C761 C 0.66775 0.62743 0.78815 0.0
C762 C 0.62034 0.60416 0.83614 0.0
C763 C 0.68252 0.59038 0.79103 0.0
C764 C 0.66765 0.56128 0.81735 0.0
C765 C 0.62695 0.54318 0.87137 0.0
C766 C 0.59879 0.55233 0.89653 0.0
C767 C 0.63786 0.56886 0.84119 0.0
C768 C 0.57958 0.58575 0.88977 0.0
C769 C 0.59029 0.61155 0.85979 0.0
H770 H 0.39054 0.67133 0.80973 0.0
H771 H 0.28499 0.58265 0.83086 0.0
H772 H 0.32472 0.53902 0.86348 0.0
H773 H 0.38762 0.5313 0.89379 0.0
H774 H 0.49273 0.62354 0.87923 0.0
H775 H 0.45547 0.66001 0.83584 0.0
C776 C 0.37652 0.64191 0.82068 0.0
C777 C 0.33496 0.63005 0.81786 0.0
C778 C 0.3995 0.61785 0.84099 0.0
C779 C 0.31694 0.59231 0.83274 0.0
C780 C 0.33964 0.56745 0.85149 0.0
C781 C 0.40276 0.55879 0.88043 0.0
C782 C 0.44294 0.57473 0.89004 0.0
C783 C 0.38074 0.58062 0.85694 0.0
C784 C 0.4618 0.61063 0.87255 0.0
C785 C 0.44042 0.63167 0.84787 0.0
H786 H 0.36206 0.30241 0.8289 0.0
H787 H 0.33807 0.42466 0.80982 0.0
H788 H 0.38599 0.45391 0.86103 0.0
H789 H 0.43326 0.44354 0.91194 0.0
H790 H 0.45179 0.3194 0.9337 0.0
H791 H 0.40605 0.29162 0.88144 0.0
C792 C 0.36825 0.33564 0.83536 0.0
C793 C 0.34809 0.36181 0.81498 0.0
C794 C 0.3937 0.3515 0.86599 0.0
C795 C 0.35449 0.40441 0.82457 0.0
C796 C 0.3813 0.42088 0.85411 0.0
C797 C 0.42681 0.41037 0.90571 0.0
C798 C 0.44617 0.3837 0.92668 0.0
C799 C 0.40063 0.39453 0.87537 0.0
C800 C 0.43746 0.34072 0.91805 0.0
C801 C 0.41159 0.32479 0.88792 0.0
H802 H 0.68662 0.30289 0.80561 0.0
H803 H 0.69983 0.42489 0.75993 0.0
H804 H 0.6909 0.45456 0.82277 0.0
H805 H 0.67347 0.444 0.88943 0.0
H806 H 0.65915 0.32085 0.93284 0.0
H807 H 0.67594 0.29345 0.87211 0.0
C808 C 0.68703 0.33598 0.80912 0.0
C809 C 0.69221 0.36151 0.77782 0.0
C810 C 0.68262 0.35258 0.84507 0.0
C811 C 0.6947 0.40452 0.78338 0.0
C812 C 0.68994 0.42142 0.81932 0.0
C813 C 0.67535 0.41144 0.88586 0.0
C814 C 0.66536 0.3844 0.91558 0.0
C815 C 0.68331 0.3956 0.85028 0.0
C816 C 0.66701 0.34216 0.91044 0.0
C817 C 0.67611 0.32646 0.87563 0.0
H818 H 0.69413 0.37426 0.21661 0.0
H819 H 0.60131 0.26537 0.21118 0.0
H820 H 0.56893 0.29295 0.15809 0.0
H821 H 0.57259 0.34272 0.10744 0.0
H822 H 0.6671 0.45024 0.11182 0.0
H823 H 0.69286 0.42849 0.17099 0.0
C824 C 0.66624 0.35704 0.20455 0.0
C825 C 0.65054 0.31752 0.21758 0.0
C826 C 0.64843 0.37242 0.17319 0.0
C827 C 0.61432 0.29571 0.2015 0.0
C828 C 0.59588 0.31132 0.17092 0.0
C829 C 0.59854 0.36168 0.12153 0.0
C830 C 0.61832 0.39755 0.10461 0.0
C831 C 0.61363 0.34876 0.1555 0.0
C832 C 0.65154 0.42208 0.12373 0.0
C833 C 0.66637 0.40972 0.1577 0.0
H834 H 0.60325 0.6697 0.18376 0.0
H835 H 0.69846 0.60481 0.21019 0.0
H836 H 0.68155 0.56103 0.15264 0.0
H837 H 0.64494 0.54791 0.09035 0.0
H838 H 0.55447 0.61929 0.06356 0.0
H839 H 0.5647 0.65404 0.12519 0.0
C840 C 0.61989 0.64543 0.17741 0.0
C841 C 0.65227 0.64085 0.20109 0.0
C842 C 0.61148 0.62219 0.14351 0.0
C843 C 0.67322 0.60892 0.19258 0.0
C844 C 0.66393 0.58429 0.15934 0.0
C845 C 0.62751 0.571 0.0982 0.0
C846 C 0.59965 0.5816 0.07202 0.0
C847 C 0.6341 0.5918 0.13382 0.0
C848 C 0.57686 0.61124 0.08267 0.0
C849 C 0.5824 0.63095 0.11812 0.0
H850 H 0.31466 0.60789 0.15799 0.0
H851 H 0.42077 0.68234 0.20928 0.0
H852 H 0.46097 0.6534 0.16326 0.0
H853 H 0.46391 0.61528 0.10293 0.0
H854 H 0.35632 0.54409 0.05024 0.0
H855 H 0.31827 0.56417 0.10205 0.0
C856 C 0.34678 0.6165 0.15985 0.0
C857 C 0.36501 0.64685 0.18677 0.0
C858 C 0.36902 0.60164 0.13223 0.0
C859 C 0.4064 0.65839 0.18907 0.0
C860 C 0.42915 0.64254 0.16229 0.0
C861 C 0.43209 0.60438 0.10267 0.0
C862 C 0.41272 0.57914 0.0723 0.0
C863 C 0.41047 0.61577 0.13268 0.0
C864 C 0.37174 0.56413 0.07295 0.0
C865 C 0.35004 0.57531 0.10267 0.0
H866 H 0.40427 0.31247 0.18005 0.0
H867 H 0.33944 0.41182 0.19652 0.0
H868 H 0.38432 0.45601 0.15632 0.0
H869 H 0.43453 0.46233 0.10921 0.0
H870 H 0.49692 0.3622 0.08715 0.0
H871 H 0.46147 0.32258 0.13743 0.0
C872 C 0.40095 0.34427 0.17566 0.0
C873 C 0.36893 0.35925 0.19144 0.0
C874 C 0.42615 0.369 0.15121 0.0
C875 C 0.3641 0.39999 0.18494 0.0
C876 C 0.38961 0.42509 0.1618 0.0
C877 C 0.44108 0.43217 0.11603 0.0
C878 C 0.46796 0.41496 0.09438 0.0
C879 C 0.41966 0.40936 0.14373 0.0
C880 C 0.47647 0.37612 0.10356 0.0
C881 C 0.45583 0.35335 0.132 0.0
H882 H 0.77732 0.64885 0.61676 0.0
H883 H 0.83957 0.77554 0.61287 0.0
H884 H 0.88464 0.7545 0.56752 0.0
H885 H 0.91129 0.69821 0.53498 0.0
H886 H 0.84709 0.57195 0.53923 0.0
H887 H 0.79823 0.59478 0.57818 0.0
C888 C 0.80019 0.67199 0.60531 0.0
C889 C 0.8053 0.7135 0.61837 0.0
C890 C 0.82624 0.65965 0.57972 0.0
C891 C 0.83485 0.7433 0.6031 0.0
C892 C 0.86097 0.73122 0.57749 0.0
C893 C 0.88641 0.67585 0.54418 0.0
C894 C 0.88336 0.6334 0.53454 0.0
C895 C 0.85782 0.68919 0.56662 0.0
C896 C 0.85051 0.60485 0.54625 0.0
C897 C 0.82239 0.61779 0.56864 0.0
H898 H 0.37219 0.80035 0.68463 0.0
H899 H 0.31256 0.88863 0.74063 0.0
H900 H 0.34582 0.9438 0.70261 0.0
H901 H 0.38459 0.96504 0.64753 0.0
H902 H 0.44263 0.8769 0.59031 0.0
H903 H 0.41829 0.82416 0.63509 0.0
C904 C 0.36707 0.83178 0.689 0.0
C905 C 0.3392 0.83998 0.71478 0.0
C906 C 0.3861 0.86358 0.66676 0.0
C907 C 0.33327 0.8811 0.72042 0.0
C908 C 0.35228 0.91284 0.69869 0.0
C909 C 0.39265 0.93458 0.64564 0.0
C910 C 0.416 0.92498 0.61637 0.0
C911 C 0.3776 0.90412 0.67086 0.0
C912 C 0.42602 0.88539 0.61363 0.0
C913 C 0.41145 0.85498 0.6388 0.0
H914 H 0.1086 0.33564 0.69416 0.0
H915 H 0.22313 0.41592 0.69529 0.0
H916 H 0.19648 0.4636 0.65386 0.0
H917 H 0.14328 0.4753 0.60976 0.0
H918 H 0.02844 0.39487 0.61006 0.0
H919 H 0.05209 0.35521 0.65979 0.0
C920 C 0.12742 0.36396 0.68569 0.0
C921 C 0.16774 0.37213 0.69665 0.0
C922 C 0.11183 0.39113 0.66241 0.0
C923 C 0.192 0.40912 0.68656 0.0
C924 C 0.17679 0.43623 0.66297 0.0
C925 C 0.12299 0.45008 0.62159 0.0
C926 C 0.08447 0.43748 0.6055 0.0
C927 C 0.13706 0.4267 0.64965 0.0
C928 C 0.05847 0.40484 0.62143 0.0
C929 C 0.07205 0.38185 0.64969 0.0
H930 H 0.70193 0.15416 0.61835 0.0
H931 H 0.66488 0.26136 0.57187 0.0
H932 H 0.61602 0.21605 0.52994 0.0
H933 H 0.57653 0.14766 0.51652 0.0
H934 H 0.60446 0.0411 0.57287 0.0
H935 H 0.66556 0.08407 0.60004 0.0
C936 C 0.68386 0.16735 0.5981 0.0
C937 C 0.68664 0.21061 0.59756 0.0
C938 C 0.65418 0.14117 0.5764 0.0
C939 C 0.66298 0.22801 0.5722 0.0
C940 C 0.63509 0.20214 0.54856 0.0
C941 C 0.59613 0.1335 0.5344 0.0
C942 C 0.5854 0.09156 0.54375 0.0
C943 C 0.6292 0.15884 0.55193 0.0
C944 C 0.6118 0.07345 0.56578 0.0
C945 C 0.6465 0.09809 0.58151 0.0
H946 H 0.78972 0.38127 0.37325 0.0
H947 H 0.79691 0.27112 0.43479 0.0
H948 H 0.85382 0.30909 0.47199 0.0
H949 H 0.90974 0.36796 0.47641 0.0
H950 H 0.90498 0.47622 0.41149 0.0
H951 H 0.83904 0.44449 0.38613 0.0
C952 C 0.80286 0.36579 0.39558 0.0
C953 C 0.78995 0.32294 0.40021 0.0
C954 C 0.83688 0.38713 0.41543 0.0
C955 C 0.80674 0.30383 0.43 0.0
C956 C 0.83965 0.32541 0.45101 0.0
C957 C 0.89407 0.3848 0.45704 0.0
C958 C 0.91265 0.42382 0.44492 0.0
C959 C 0.85648 0.3661 0.44211 0.0
C960 C 0.89154 0.44587 0.42079 0.0
C961 C 0.85383 0.42773 0.40627 0.0
H962 H 0.70833 0.81741 0.40187 0.0
H963 H 0.60888 0.72523 0.36039 0.0
H964 H 0.56656 0.75077 0.4066 0.0
H965 H 0.55607 0.80743 0.45075 0.0
H966 H 0.65605 0.90247 0.4874 0.0
H967 H 0.69999 0.86782 0.45114 0.0
C968 C 0.67767 0.80201 0.40394 0.0
C969 C 0.66159 0.76954 0.37811 0.0
C970 C 0.65347 0.81819 0.42901 0.0
C971 C 0.6219 0.7499 0.3805 0.0
C972 C 0.59765 0.765 0.40646 0.0
C973 C 0.58757 0.82013 0.45129 0.0
C974 C 0.6026 0.85798 0.47122 0.0
C975 C 0.61274 0.80042 0.42961 0.0
C976 C 0.64353 0.87389 0.47177 0.0
C977 C 0.66877 0.85401 0.45115 0.0
H978 H 0.13948 0.66315 0.28594 0.0
H979 H 0.23346 0.59227 0.29407 0.0
H980 H 0.19397 0.54405 0.33514 0.0
H981 H 0.13932 0.53055 0.37717 0.0
H982 H 0.0487 0.6058 0.37504 0.0
H983 H 0.07982 0.64341 0.32204 0.0
C984 C 0.15093 0.63658 0.29596 0.0
C985 C 0.18958 0.6316 0.28779 0.0
C986 C 0.12888 0.61022 0.32081 0.0
C987 C 0.20404 0.59701 0.30068 0.0
C988 C 0.18153 0.56954 0.32411 0.0
C989 C 0.12607 0.55486 0.36477 0.0
C990 C 0.09266 0.56651 0.3805 0.0
C991 C 0.14495 0.57722 0.3358 0.0
C992 C 0.07483 0.59688 0.36356 0.0
C993 C 0.09274 0.61846 0.33352 0.0
H994 H 0.309 0.11431 0.30535 0.0
H995 H 0.40059 0.22369 0.32106 0.0
H996 H 0.43798 0.18653 0.36354 0.0
H997 H 0.4407 0.12654 0.40131 0.0
H998 H 0.34561 0.01964 0.39176 0.0
H999 H 0.314 0.05187 0.34071 0.0
C1000 C 0.33747 0.12978 0.31761 0.0
C1001 C 0.352 0.17177 0.31027 0.0
C1002 C 0.35805 0.10869 0.34305 0.0
C1003 C 0.38869 0.19155 0.32658 0.0
C1004 C 0.41006 0.17029 0.35078 0.0
C1005 C 0.4134 0.10973 0.38774 0.0
C1006 C 0.39532 0.07081 0.40074 0.0
C1007 C 0.39446 0.12931 0.35998 0.0
C1008 C 0.36005 0.04968 0.38251 0.0
C1009 C 0.34184 0.06825 0.35351 0.0
H1010 H 0.68416 0.88567 0.69864 0.0
H1011 H 0.60855 0.76501 0.69708 0.0
H1012 H 0.55415 0.79338 0.66782 0.0
H1013 H 0.53231 0.85024 0.63444 0.0
H1014 H 0.60793 0.97142 0.63771 0.0
H1015 H 0.65734 0.94562 0.67635 0.0
C1016 C 0.65559 0.86585 0.69213 0.0
C1017 C 0.65035 0.82331 0.69878 0.0
C1018 C 0.6244 0.88252 0.67611 0.0
C1019 C 0.61311 0.79784 0.69147 0.0
C1020 C 0.58208 0.81404 0.67492 0.0
C1021 C 0.55894 0.87142 0.64467 0.0
C1022 C 0.56696 0.91232 0.63215 0.0
C1023 C 0.58782 0.8561 0.66604 0.0
C1024 C 0.60135 0.9395 0.64628 0.0
C1025 C 0.62989 0.92469 0.66803 0.0
H1026 H 0.59881 0.15717 0.3378 0.0
H1027 H 0.69026 0.08321 0.33529 0.0
H1028 H 0.6471 0.02665 0.365 0.0
H1029 H 0.58868 0.00342 0.40009 0.0
H1030 H 0.50161 0.08144 0.41315 0.0
H1031 H 0.53621 0.13028 0.36926 0.0
C1032 C 0.60878 0.12834 0.34343 0.0
C1033 C 0.6475 0.12407 0.33513 0.0
C1034 C 0.58443 0.09677 0.36211 0.0
C1035 C 0.66062 0.08696 0.34222 0.0
C1036 C 0.63596 0.0547 0.35894 0.0
C1037 C 0.57679 0.03074 0.39278 0.0
C1038 C 0.54319 0.03939 0.41047 0.0
C1039 C 0.59851 0.05996 0.37024 0.0
C1040 C 0.52747 0.07418 0.40003 0.0
C1041 C 0.54769 0.10245 0.3754 0.0
H1042 H 0.81831 0.63551 0.30158 0.0
H1043 H 0.88374 0.76004 0.32293 0.0
H1044 H 0.93855 0.73292 0.35244 0.0
H1045 H 0.96387 0.6743 0.37879 0.0
H1046 H 0.89927 0.54937 0.35598 0.0
H1047 H 0.84925 0.57602 0.31879 0.0
C1048 C 0.84469 0.65651 0.31264 0.0
C1049 C 0.8468 0.69957 0.3111 0.0
C1050 C 0.87648 0.64068 0.32875 0.0
C1051 C 0.88144 0.72669 0.3244 0.0
C1052 C 0.9128 0.71124 0.34109 0.0
C1053 C 0.93964 0.65272 0.36467 0.0
C1054 C 0.93489 0.60998 0.37108 0.0
C1055 C 0.91028 0.6683 0.34417 0.0
C1056 C 0.90343 0.58254 0.35206 0.0
C1057 C 0.87444 0.59776 0.33115 0.0
H1058 H 0.33254 0.76868 0.37903 0.0
H1059 H 0.3707 0.86914 0.30483 0.0
H1060 H 0.38245 0.9184 0.35799 0.0
H1061 H 0.39133 0.93163 0.42521 0.0
H1062 H 0.36255 0.83096 0.50066 0.0
H1063 H 0.33515 0.78381 0.44762 0.0
C1064 C 0.34348 0.80132 0.37457 0.0
C1065 C 0.35169 0.81486 0.33808 0.0
C1066 C 0.35094 0.82973 0.4055 0.0
C1067 C 0.36511 0.85748 0.33268 0.0
C1068 C 0.37139 0.88592 0.36303 0.0
C1069 C 0.37758 0.8998 0.4303 0.0
C1070 C 0.3794 0.88456 0.46658 0.0
C1071 C 0.36544 0.87226 0.39957 0.0
C1072 C 0.36151 0.84326 0.47278 0.0
C1073 C 0.34666 0.81613 0.44239 0.0
H1074 H 0.20092 0.28421 0.38177 0.0
H1075 H 0.27696 0.39345 0.34376 0.0
H1076 H 0.24711 0.43718 0.38752 0.0
H1077 H 0.19156 0.44432 0.42882 0.0
H1078 H 0.11398 0.33349 0.46287 0.0
H1079 H 0.15227 0.2904 0.42858 0.0
C1080 C 0.2117 0.31754 0.38385 0.0
C1081 C 0.24081 0.33574 0.35959 0.0
C1082 C 0.1935 0.3422 0.40785 0.0
C1083 C 0.25476 0.37881 0.36246 0.0
C1084 C 0.23729 0.40377 0.3871 0.0
C1085 C 0.18358 0.41075 0.42931 0.0
C1086 C 0.14947 0.39218 0.44783 0.0
C1087 C 0.20542 0.3859 0.40876 0.0
C1088 C 0.13958 0.34862 0.44829 0.0
C1089 C 0.16153 0.32389 0.42876 0.0
H1090 H 0.3246 0.23871 0.63738 0.0
H1091 H 0.21689 0.148 0.64234 0.0
H1092 H 0.24463 0.09962 0.60163 0.0
H1093 H 0.30323 0.08082 0.57006 0.0
H1094 H 0.40984 0.1746 0.56701 0.0
H1095 H 0.37885 0.22337 0.60138 0.0
C1096 C 0.30689 0.20862 0.62897 0.0
C1097 C 0.26903 0.19684 0.64297 0.0
C1098 C 0.32316 0.181 0.60632 0.0
C1099 C 0.24617 0.15791 0.63165 0.0
C1100 C 0.26221 0.13005 0.60875 0.0
C1101 C 0.31949 0.11196 0.57674 0.0
C1102 C 0.35917 0.12334 0.56624 0.0
C1103 C 0.3013 0.14079 0.59682 0.0
C1104 C 0.37951 0.16425 0.57483 0.0
C1105 C 0.36181 0.19258 0.59455 0.0
H1106 H 0.86444 0.42092 0.67932 0.0
H1107 H 0.89378 0.30818 0.63178 0.0
H1108 H 0.94553 0.34861 0.59595 0.0
H1109 H 0.97074 0.41474 0.56777 0.0
H1110 H 0.93607 0.52663 0.60985 0.0
H1111 H 0.89886 0.48819 0.6591 0.0
C1112 C 0.88272 0.40528 0.6617 0.0
C1113 C 0.87453 0.36192 0.65702 0.0
C1114 C 0.91143 0.42864 0.64026 0.0
C1115 C 0.89878 0.34177 0.63473 0.0
C1116 C 0.92849 0.36477 0.61441 0.0
C1117 C 0.9567 0.43081 0.58902 0.0
C1118 C 0.95589 0.47295 0.58584 0.0
C1119 C 0.93353 0.40811 0.61543 0.0
C1120 C 0.93683 0.49391 0.6124 0.0
C1121 C 0.91532 0.47193 0.64014 0.0
H1122 H 0.21374 0.70241 0.62815 0.0
H1123 H 0.20878 0.57931 0.66895 0.0
H1124 H 0.1699 0.54949 0.61239 0.0
H1125 H 0.12671 0.55989 0.55901 0.0
H1126 H 0.12426 0.68386 0.52277 0.0
H1127 H 0.177 0.71207 0.56946 0.0
C1128 C 0.20546 0.66897 0.62369 0.0
C1129 C 0.21444 0.64285 0.65202 0.0
C1130 C 0.18098 0.65242 0.59239 0.0
C1131 C 0.20266 0.59971 0.64699 0.0
C1132 C 0.18005 0.5828 0.61493 0.0
C1133 C 0.13839 0.59293 0.56049 0.0
C1134 C 0.1211 0.61972 0.53773 0.0
C1135 C 0.16738 0.60902 0.58849 0.0
C1136 C 0.13667 0.66256 0.54023 0.0
C1137 C 0.16677 0.67873 0.56701 0.0
loop_
_geom_bond_atom_site_label_1
_geom_bond_atom_site_label_2
_geom_bond_distance
_geom_bond_site_symmetry_2
_ccdc_geom_bond_type
O0 Zn1 1.953 . S
O0 C16 1.225 . S
Zn1 O0 1.953 . S
Zn1 O2 1.949 . S
Zn1 O8 1.919 . S
Zn1 O13 1.924 . S
O2 Zn1 1.949 . S
O2 Zn3 1.923 . S
O2 Zn4 1.950 . S
O2 Zn5 1.945 . S
Zn3 O2 1.923 . S
Zn3 O6 1.933 . S
Zn3 O9 1.941 . S
Zn3 O10 1.965 . S
Zn4 O2 1.950 . S
Zn4 O11 1.938 . S
Zn4 O12 1.906 . S
Zn4 O22 1.953 . S
Zn5 O2 1.945 . S
Zn5 O7 1.932 . S
Zn5 O14 1.977 . S
Zn5 O15 1.910 . S
O6 Zn3 1.933 . S
O6 C17 1.226 . S
O7 Zn5 1.932 . S
O7 C17 1.307 . S
O8 Zn1 1.919 . S
O8 C19 1.253 . S
O9 Zn3 1.941 . S
O9 C19 1.283 . S
O10 Zn3 1.965 . S
O10 C18 1.303 . S
O11 Zn4 1.938 . S
O11 C18 1.247 . S
O12 Zn4 1.906 . S
O12 C20 1.304 . S
O13 Zn1 1.924 . S
O13 C21 1.311 . S
O14 Zn5 1.977 . S
O14 C20 1.272 . S
O15 Zn5 1.910 . S
O15 C21 1.231 . S
C16 O0 1.225 . S
C16 O22 1.298 . S
C17 O6 1.226 . S
C17 O7 1.307 . S
C18 O10 1.303 . S
C18 O11 1.247 . S
C19 O8 1.253 . S
C19 O9 1.283 . S
C20 O12 1.304 . S
C20 O14 1.272 . S
C21 O13 1.311 . S
C21 O15 1.231 . S
O22 Zn4 1.953 . S
O22 C16 1.298 . S
O23 Zn24 1.953 . S
O23 C39 1.225 . S
Zn24 O23 1.953 . S
Zn24 O25 1.949 . S
Zn24 O31 1.919 . S
Zn24 O36 1.924 . S
O25 Zn24 1.949 . S
O25 Zn26 1.923 . S
O25 Zn27 1.950 . S
O25 Zn28 1.945 . S
Zn26 O25 1.923 . S
Zn26 O29 1.933 . S
Zn26 O32 1.941 . S
Zn26 O33 1.965 . S
Zn27 O25 1.950 . S
Zn27 O34 1.938 . S
Zn27 O35 1.906 . S
Zn27 O45 1.953 . S
Zn28 O25 1.945 . S
Zn28 O30 1.932 . S
Zn28 O37 1.977 . S
Zn28 O38 1.910 . S
O29 Zn26 1.933 . S
O29 C40 1.226 . S
O30 Zn28 1.932 . S
O30 C40 1.307 . S
O31 Zn24 1.919 . S
O31 C42 1.253 . S
O32 Zn26 1.941 . S
O32 C42 1.283 . S
O33 Zn26 1.965 . S
O33 C41 1.303 . S
O34 Zn27 1.938 . S
O34 C41 1.247 . S
O35 Zn27 1.906 . S
O35 C43 1.304 . S
O36 Zn24 1.924 . S
O36 C44 1.311 . S
O37 Zn28 1.977 . S
O37 C43 1.272 . S
O38 Zn28 1.910 . S
O38 C44 1.231 . S
C39 O23 1.225 . S
C39 O45 1.298 . S
C40 O29 1.226 . S
C40 O30 1.307 . S
C41 O33 1.303 . S
C41 O34 1.247 . S
C42 O31 1.253 . S
C42 O32 1.283 . S
C43 O35 1.304 . S
C43 O37 1.272 . S
C44 O36 1.311 . S
C44 O38 1.231 . S
O45 Zn27 1.953 . S
O45 C39 1.298 . S
O46 Zn47 1.953 . S
O46 C62 1.225 . S
Zn47 O46 1.953 . S
Zn47 O48 1.949 . S
Zn47 O54 1.919 . S
Zn47 O59 1.924 . S
O48 Zn47 1.949 . S
O48 Zn49 1.923 . S
O48 Zn50 1.950 . S
O48 Zn51 1.945 . S
Zn49 O48 1.923 . S
Zn49 O52 1.933 . S
Zn49 O55 1.941 . S
Zn49 O56 1.965 . S
Zn50 O48 1.950 . S
Zn50 O57 1.938 . S
Zn50 O58 1.906 . S
Zn50 O68 1.953 . S
Zn51 O48 1.945 . S
Zn51 O53 1.932 . S
Zn51 O60 1.977 . S
Zn51 O61 1.910 . S
O52 Zn49 1.933 . S
O52 C63 1.226 . S
O53 Zn51 1.932 . S
O53 C63 1.307 . S
O54 Zn47 1.919 . S
O54 C65 1.253 . S
O55 Zn49 1.941 . S
O55 C65 1.283 . S
O56 Zn49 1.965 . S
O56 C64 1.303 . S
O57 Zn50 1.938 . S
O57 C64 1.247 . S
O58 Zn50 1.906 . S
O58 C66 1.304 . S
O59 Zn47 1.924 . S
O59 C67 1.311 . S
O60 Zn51 1.977 . S
O60 C66 1.272 . S
O61 Zn51 1.910 . S
O61 C67 1.231 . S
C62 O46 1.225 . S
C62 O68 1.298 . S
C63 O52 1.226 . S
C63 O53 1.307 . S
C64 O56 1.303 . S
C64 O57 1.247 . S
C65 O54 1.253 . S
C65 O55 1.283 . S
C66 O58 1.304 . S
C66 O60 1.272 . S
C67 O59 1.311 . S
C67 O61 1.231 . S
O68 Zn50 1.953 . S
O68 C62 1.298 . S
O69 Zn70 1.953 . S
O69 C85 1.225 . S
Zn70 O69 1.953 . S
Zn70 O71 1.949 . S
Zn70 O77 1.919 . S
Zn70 O82 1.924 . S
O71 Zn70 1.949 . S
O71 Zn72 1.923 . S
O71 Zn73 1.950 . S
O71 Zn74 1.945 . S
Zn72 O71 1.923 . S
Zn72 O75 1.933 . S
Zn72 O78 1.941 . S
Zn72 O79 1.965 . S
Zn73 O71 1.950 . S
Zn73 O80 1.938 . S
Zn73 O81 1.906 . S
Zn73 O91 1.953 . S
Zn74 O71 1.945 . S
Zn74 O76 1.932 . S
Zn74 O83 1.977 . S
Zn74 O84 1.910 . S
O75 Zn72 1.933 . S
O75 C86 1.226 . S
O76 Zn74 1.932 . S
O76 C86 1.307 . S
O77 Zn70 1.919 . S
O77 C88 1.253 . S
O78 Zn72 1.941 . S
O78 C88 1.283 . S
O79 Zn72 1.965 . S
O79 C87 1.303 . S
O80 Zn73 1.938 . S
O80 C87 1.247 . S
O81 Zn73 1.906 . S
O81 C89 1.304 . S
O82 Zn70 1.924 . S
O82 C90 1.311 . S
O83 Zn74 1.977 . S
O83 C89 1.272 . S
O84 Zn74 1.910 . S
O84 C90 1.231 . S
C85 O69 1.225 . S
C85 O91 1.298 . S
C86 O75 1.226 . S
C86 O76 1.307 . S
C87 O79 1.303 . S
C87 O80 1.247 . S
C88 O77 1.253 . S
C88 O78 1.283 . S
C89 O81 1.304 . S
C89 O83 1.272 . S
C90 O82 1.311 . S
C90 O84 1.231 . S
O91 Zn73 1.953 . S
O91 C85 1.298 . S
O92 Zn93 1.953 . S
O92 C108 1.225 . S
Zn93 O92 1.953 . S
Zn93 O94 1.949 . S
Zn93 O100 1.919 . S
Zn93 O105 1.924 . S
O94 Zn93 1.949 . S
O94 Zn95 1.923 . S
O94 Zn96 1.950 . S
O94 Zn97 1.945 . S
Zn95 O94 1.923 . S
Zn95 O98 1.933 . S
Zn95 O101 1.941 . S
Zn95 O102 1.965 . S
Zn96 O94 1.950 . S
Zn96 O103 1.938 . S
Zn96 O104 1.906 . S
Zn96 O114 1.953 . S
Zn97 O94 1.945 . S
Zn97 O99 1.932 . S
Zn97 O106 1.977 . S
Zn97 O107 1.910 . S
O98 Zn95 1.933 . S
O98 C109 1.226 . S
O99 Zn97 1.932 . S
O99 C109 1.307 . S
O100 Zn93 1.919 . S
O100 C111 1.253 . S
O101 Zn95 1.941 . S
O101 C111 1.283 . S
O102 Zn95 1.965 . S
O102 C110 1.303 . S
O103 Zn96 1.938 . S
O103 C110 1.247 . S
O104 Zn96 1.906 . S
O104 C112 1.304 . S
O105 Zn93 1.924 . S
O105 C113 1.311 . S
O106 Zn97 1.977 . S
O106 C112 1.272 . S
O107 Zn97 1.910 . S
O107 C113 1.231 . S
C108 O92 1.225 . S
C108 O114 1.298 . S
C109 O98 1.226 . S
C109 O99 1.307 . S
C110 O102 1.303 . S
C110 O103 1.247 . S
C111 O100 1.253 . S
C111 O101 1.283 . S
C112 O104 1.304 . S
C112 O106 1.272 . S
C113 O105 1.311 . S
C113 O107 1.231 . S
O114 Zn96 1.953 . S
O114 C108 1.298 . S
O115 Zn116 1.953 . S
O115 C131 1.225 . S
Zn116 O115 1.953 . S
Zn116 O117 1.949 . S
Zn116 O123 1.919 . S
Zn116 O128 1.924 . S
O117 Zn116 1.949 . S
O117 Zn118 1.923 . S
O117 Zn119 1.950 . S
O117 Zn120 1.945 . S
Zn118 O117 1.923 . S
Zn118 O121 1.933 . S
Zn118 O124 1.941 . S
Zn118 O125 1.965 . S
Zn119 O117 1.950 . S
Zn119 O126 1.938 . S
Zn119 O127 1.906 . S
Zn119 O137 1.953 . S
Zn120 O117 1.945 . S
Zn120 O122 1.932 . S
Zn120 O129 1.977 . S
Zn120 O130 1.910 . S
O121 Zn118 1.933 . S
O121 C132 1.226 . S
O122 Zn120 1.932 . S
O122 C132 1.307 . S
O123 Zn116 1.919 . S
O123 C134 1.253 . S
O124 Zn118 1.941 . S
O124 C134 1.283 . S
O125 Zn118 1.965 . S
O125 C133 1.303 . S
O126 Zn119 1.938 . S
O126 C133 1.247 . S
O127 Zn119 1.906 . S
O127 C135 1.304 . S
O128 Zn116 1.924 . S
O128 C136 1.311 . S
O129 Zn120 1.977 . S
O129 C135 1.272 . S
O130 Zn120 1.910 . S
O130 C136 1.231 . S
C131 O115 1.225 . S
C131 O137 1.298 . S
C132 O121 1.226 . S
C132 O122 1.307 . S
C133 O125 1.303 . S
C133 O126 1.247 . S
C134 O123 1.253 . S
C134 O124 1.283 . S
C135 O127 1.304 . S
C135 O129 1.272 . S
C136 O128 1.311 . S
C136 O130 1.231 . S
O137 Zn119 1.953 . S
O137 C131 1.298 . S
O138 Zn139 1.953 . S
O138 C154 1.225 . S
Zn139 O138 1.953 . S
Zn139 O140 1.949 . S
Zn139 O146 1.919 . S
Zn139 O151 1.924 . S
O140 Zn139 1.949 . S
O140 Zn141 1.923 . S
O140 Zn142 1.950 . S
O140 Zn143 1.945 . S
Zn141 O140 1.923 . S
Zn141 O144 1.933 . S
Zn141 O147 1.941 . S
Zn141 O148 1.965 . S
Zn142 O140 1.950 . S
Zn142 O149 1.938 . S
Zn142 O150 1.906 . S
Zn142 O160 1.953 . S
Zn143 O140 1.945 . S
Zn143 O145 1.932 . S
Zn143 O152 1.977 . S
Zn143 O153 1.910 . S
O144 Zn141 1.933 . S
O144 C155 1.226 . S
O145 Zn143 1.932 . S
O145 C155 1.307 . S
O146 Zn139 1.919 . S
O146 C157 1.253 . S
O147 Zn141 1.941 . S
O147 C157 1.283 . S
O148 Zn141 1.965 . S
O148 C156 1.303 . S
O149 Zn142 1.938 . S
O149 C156 1.247 . S
O150 Zn142 1.906 . S
O150 C158 1.304 . S
O151 Zn139 1.924 . S
O151 C159 1.311 . S
O152 Zn143 1.977 . S
O152 C158 1.272 . S
O153 Zn143 1.910 . S
O153 C159 1.231 . S
C154 O138 1.225 . S
C154 O160 1.298 . S
C155 O144 1.226 . S
C155 O145 1.307 . S
C156 O148 1.303 . S
C156 O149 1.247 . S
C157 O146 1.253 . S
C157 O147 1.283 . S
C158 O150 1.304 . S
C158 O152 1.272 . S
C159 O151 1.311 . S
C159 O153 1.231 . S
O160 Zn142 1.953 . S
O160 C154 1.298 . S
O161 Zn162 1.953 . S
O161 C177 1.225 . S
Zn162 O161 1.953 . S
Zn162 O163 1.949 . S
Zn162 O169 1.919 . S
Zn162 O174 1.924 . S
O163 Zn162 1.949 . S
O163 Zn164 1.923 . S
O163 Zn165 1.950 . S
O163 Zn166 1.945 . S
Zn164 O163 1.923 . S
Zn164 O167 1.933 . S
Zn164 O170 1.941 . S
Zn164 O171 1.965 . S
Zn165 O163 1.950 . S
Zn165 O172 1.938 . S
Zn165 O173 1.906 . S
Zn165 O183 1.953 . S
Zn166 O163 1.945 . S
Zn166 O168 1.932 . S
Zn166 O175 1.977 . S
Zn166 O176 1.910 . S
O167 Zn164 1.933 . S
O167 C178 1.226 . S
O168 Zn166 1.932 . S
O168 C178 1.307 . S
O169 Zn162 1.919 . S
O169 C180 1.253 . S
O170 Zn164 1.941 . S
O170 C180 1.283 . S
O171 Zn164 1.965 . S
O171 C179 1.303 . S
O172 Zn165 1.938 . S
O172 C179 1.247 . S
O173 Zn165 1.906 . S
O173 C181 1.304 . S
O174 Zn162 1.924 . S
O174 C182 1.311 . S
O175 Zn166 1.977 . S
O175 C181 1.272 . S
O176 Zn166 1.910 . S
O176 C182 1.231 . S
C177 O161 1.225 . S
C177 O183 1.298 . S
C178 O167 1.226 . S
C178 O168 1.307 . S
C179 O171 1.303 . S
C179 O172 1.247 . S
C180 O169 1.253 . S
C180 O170 1.283 . S
C181 O173 1.304 . S
C181 O175 1.272 . S
C182 O174 1.311 . S
C182 O176 1.231 . S
O183 Zn165 1.953 . S
O183 C177 1.298 . S
C184 O196 1.241 . S
C184 O197 1.280 . S
C185 O198 1.277 . S
C185 O199 1.245 . S
C186 O210 1.247 . S
C186 O212 1.289 . S
Mg187 O188 1.926 . S
Mg187 O197 1.984 . S
Mg187 O199 1.988 . S
Mg187 O200 2.061 1_655 S
O188 Mg187 1.926 . S
O188 Mg189 1.986 . S
O188 Mg190 1.917 1_655 S
Mg189 O188 1.986 . S
Mg189 O196 2.042 . S
Mg189 O198 2.041 . S
Mg189 O204 2.038 1_545 S
Mg189 O212 2.238 1_545 S
Mg190 O188 1.917 1_455 S
Mg190 O191 1.917 1_545 S
Mg190 O201 2.106 . S
Mg190 O203 2.079 1_445 S
Mg190 O212 2.106 1_445 S
Mg190 O213 2.079 . S
O191 Mg190 1.917 1_565 S
O191 Mg192 1.926 . S
O191 Mg193 1.993 . S
Mg192 O191 1.926 . S
Mg192 O206 1.984 . S
Mg192 O209 1.988 . S
Mg192 O210 2.061 1_455 S
Mg193 O191 1.993 . S
Mg193 O201 2.225 1_565 S
Mg193 O205 2.056 . S
Mg193 O207 2.054 . S
Mg193 O214 2.025 1_565 S
C194 O200 1.247 . S
C194 O201 1.289 . S
C195 O213 1.245 . S
C195 O214 1.274 . S
O196 C184 1.241 . S
O196 Mg189 2.042 . S
O197 C184 1.280 . S
O197 Mg187 1.984 . S
O198 C185 1.277 . S
O198 Mg189 2.041 . S
O199 C185 1.245 . S
O199 Mg187 1.988 . S
O200 Mg187 2.061 1_455 S
O200 C194 1.247 . S
O201 Mg190 2.106 . S
O201 Mg193 2.225 1_545 S
O201 C194 1.289 . S
C202 O203 1.245 . S
C202 O204 1.274 . S
O203 Mg190 2.079 1_665 S
O203 C202 1.245 . S
O204 Mg189 2.038 1_565 S
O204 C202 1.274 . S
O205 Mg193 2.056 . S
O205 C208 1.241 . S
O206 Mg192 1.984 . S
O206 C208 1.280 . S
O207 Mg193 2.054 . S
O207 C211 1.277 . S
C208 O205 1.241 . S
C208 O206 1.280 . S
O209 Mg192 1.988 . S
O209 C211 1.245 . S
O210 C186 1.247 . S
O210 Mg192 2.061 1_655 S
C211 O207 1.277 . S
C211 O209 1.245 . S
O212 C186 1.289 . S
O212 Mg189 2.238 1_565 S
O212 Mg190 2.106 1_665 S
O213 Mg190 2.079 . S
O213 C195 1.245 . S
O214 Mg193 2.025 1_545 S
O214 C195 1.274 . S
C215 O227 1.241 . S
C215 O228 1.280 . S
C216 O229 1.277 . S
C216 O230 1.245 . S
C217 O241 1.247 . S
C217 O243 1.289 . S
Mg218 O219 1.926 . S
Mg218 O228 1.984 . S
Mg218 O230 1.988 1_554 S
Mg218 O231 2.061 . S
O219 Mg218 1.926 . S
O219 Mg220 1.986 . S
O219 Mg221 1.917 . S
Mg220 O219 1.986 . S
Mg220 O227 2.042 . S
Mg220 O229 2.041 1_554 S
Mg220 O235 2.038 1_545 S
Mg220 O243 2.238 1_544 S
Mg221 O219 1.917 . S
Mg221 O222 1.918 1_545 S
Mg221 O232 2.106 . S
Mg221 O234 2.079 1_545 S
Mg221 O243 2.106 1_544 S
Mg221 O244 2.079 1_554 S
O222 Mg221 1.918 1_565 S
O222 Mg223 1.926 1_554 S
O222 Mg224 1.987 . S
Mg223 O222 1.926 1_556 S
Mg223 O237 1.984 . S
Mg223 O240 1.988 1_556 S
Mg223 O241 2.061 . S
Mg224 O222 1.987 . S
Mg224 O232 2.238 1_565 S
Mg224 O236 2.042 1_554 S
Mg224 O238 2.041 . S
Mg224 O245 2.038 1_564 S
C225 O231 1.247 . S
C225 O232 1.289 . S
C226 O244 1.245 . S
C226 O245 1.274 . S
O227 C215 1.241 . S
O227 Mg220 2.042 . S
O228 C215 1.280 . S
O228 Mg218 1.984 . S
O229 C216 1.277 . S
O229 Mg220 2.041 1_556 S
O230 C216 1.245 . S
O230 Mg218 1.988 1_556 S
O231 Mg218 2.061 . S
O231 C225 1.247 . S
O232 Mg221 2.106 . S
O232 Mg224 2.238 1_545 S
O232 C225 1.289 . S
C233 O234 1.245 . S
C233 O235 1.274 . S
O234 Mg221 2.079 1_565 S
O234 C233 1.245 . S
O235 Mg220 2.038 1_565 S
O235 C233 1.274 . S
O236 Mg224 2.042 1_556 S
O236 C239 1.241 . S
O237 Mg223 1.984 . S
O237 C239 1.280 . S
O238 Mg224 2.041 . S
O238 C242 1.277 . S
C239 O236 1.241 . S
C239 O237 1.280 . S
O240 Mg223 1.988 1_554 S
O240 C242 1.245 . S
O241 C217 1.247 . S
O241 Mg223 2.061 . S
C242 O238 1.277 . S
C242 O240 1.245 . S
O243 C217 1.289 . S
O243 Mg220 2.238 1_566 S
O243 Mg221 2.106 1_566 S
O244 Mg221 2.079 1_556 S
O244 C226 1.245 . S
O245 Mg224 2.038 1_546 S
O245 C226 1.274 . S
C246 O258 1.241 . S
C246 O259 1.280 . S
C247 O260 1.277 . S
C247 O261 1.245 . S
C248 O272 1.247 . S
C248 O274 1.289 . S
Mg249 O250 1.926 . S
Mg249 O259 1.984 . S
Mg249 O261 1.988 1_554 S
Mg249 O262 2.061 1_655 S
O250 Mg249 1.926 . S
O250 Mg251 1.986 . S
O250 Mg252 1.917 1_655 S
Mg251 O250 1.986 . S
Mg251 O258 2.042 . S
Mg251 O260 2.041 1_554 S
Mg251 O266 2.038 . S
Mg251 O274 2.238 1_554 S
Mg252 O250 1.917 1_455 S
Mg252 O253 1.917 1_554 S
Mg252 O263 2.106 . S
Mg252 O265 2.079 1_455 S
Mg252 O274 2.106 1_454 S
Mg252 O275 2.079 1_554 S
O253 Mg252 1.917 1_556 S
O253 Mg254 1.926 . S
O253 Mg255 1.986 1_556 S
Mg254 O253 1.926 . S
Mg254 O268 1.984 . S
Mg254 O271 1.988 1_556 S
Mg254 O272 2.061 1_455 S
Mg255 O253 1.986 1_554 S
Mg255 O263 2.238 . S
Mg255 O267 2.042 1_554 S
Mg255 O269 2.041 . S
Mg255 O276 2.038 1_554 S
C256 O262 1.247 . S
C256 O263 1.289 . S
C257 O275 1.245 . S
C257 O276 1.274 . S
O258 C246 1.241 . S
O258 Mg251 2.042 . S
O259 C246 1.280 . S
O259 Mg249 1.984 . S
O260 C247 1.277 . S
O260 Mg251 2.041 1_556 S
O261 C247 1.245 . S
O261 Mg249 1.988 1_556 S
O262 Mg249 2.061 1_455 S
O262 C256 1.247 . S
O263 Mg252 2.106 . S
O263 Mg255 2.238 . S
O263 C256 1.289 . S
C264 O265 1.245 . S
C264 O266 1.274 . S
O265 Mg252 2.079 1_655 S
O265 C264 1.245 . S
O266 Mg251 2.038 . S
O266 C264 1.274 . S
O267 Mg255 2.042 1_556 S
O267 C270 1.241 . S
O268 Mg254 1.984 . S
O268 C270 1.280 . S
O269 Mg255 2.041 . S
O269 C273 1.277 . S
C270 O267 1.241 . S
C270 O268 1.280 . S
O271 Mg254 1.988 1_554 S
O271 C273 1.245 . S
O272 C248 1.247 . S
O272 Mg254 2.061 1_655 S
C273 O269 1.277 . S
C273 O271 1.245 . S
O274 C248 1.289 . S
O274 Mg251 2.238 1_556 S
O274 Mg252 2.106 1_656 S
O275 Mg252 2.079 1_556 S
O275 C257 1.245 . S
O276 Mg255 2.038 1_556 S
O276 C257 1.274 . S
C277 O289 1.241 . S
C277 O290 1.280 . S
C278 O291 1.277 . S
C278 O292 1.245 . S
C279 O303 1.247 . S
C279 O305 1.289 . S
Mg280 O281 1.926 . S
Mg280 O290 1.984 . S
Mg280 O292 1.988 1_554 S
Mg280 O293 2.061 . S
O281 Mg280 1.926 . S
O281 Mg282 1.986 . S
O281 Mg283 1.917 . S
Mg282 O281 1.986 . S
Mg282 O289 2.042 . S
Mg282 O291 2.041 1_554 S
Mg282 O297 2.038 . S
Mg282 O305 2.238 1_554 S
Mg283 O281 1.917 . S
Mg283 O284 1.917 1_554 S
Mg283 O294 2.106 . S
Mg283 O296 2.079 . S
Mg283 O305 2.106 1_554 S
Mg283 O306 2.079 1_554 S
O284 Mg283 1.917 1_556 S
O284 Mg285 1.926 . S
O284 Mg286 1.986 1_556 S
Mg285 O284 1.926 . S
Mg285 O299 1.984 . S
Mg285 O302 1.988 1_556 S
Mg285 O303 2.061 . S
Mg286 O284 1.986 1_554 S
Mg286 O294 2.238 . S
Mg286 O298 2.042 1_554 S
Mg286 O300 2.041 . S
Mg286 O307 2.038 1_554 S
C287 O293 1.247 . S
C287 O294 1.289 . S
C288 O306 1.245 . S
C288 O307 1.274 . S
O289 C277 1.241 . S
O289 Mg282 2.042 . S
O290 C277 1.280 . S
O290 Mg280 1.984 . S
O291 C278 1.277 . S
O291 Mg282 2.041 1_556 S
O292 C278 1.245 . S
O292 Mg280 1.988 1_556 S
O293 Mg280 2.061 . S
O293 C287 1.247 . S
O294 Mg283 2.106 . S
O294 Mg286 2.238 . S
O294 C287 1.289 . S
C295 O296 1.245 . S
C295 O297 1.274 . S
O296 Mg283 2.079 . S
O296 C295 1.245 . S
O297 Mg282 2.038 . S
O297 C295 1.274 . S
O298 Mg286 2.042 1_556 S
O298 C301 1.241 . S
O299 Mg285 1.984 . S
O299 C301 1.280 . S
O300 Mg286 2.041 . S
O300 C304 1.277 . S
C301 O298 1.241 . S
C301 O299 1.280 . S
O302 Mg285 1.988 1_554 S
O302 C304 1.245 . S
O303 C279 1.247 . S
O303 Mg285 2.061 . S
C304 O300 1.277 . S
C304 O302 1.245 . S
O305 C279 1.289 . S
O305 Mg282 2.238 1_556 S
O305 Mg283 2.106 1_556 S
O306 Mg283 2.079 1_556 S
O306 C288 1.245 . S
O307 Mg286 2.038 1_556 S
O307 C288 1.274 . S
C308 O320 1.241 . S
C308 O321 1.280 . S
C309 O322 1.277 . S
C309 O323 1.245 . S
C310 O334 1.247 . S
C310 O336 1.289 . S
Mg311 O312 1.926 . S
Mg311 O321 1.984 . S
Mg311 O323 1.988 . S
Mg311 O324 2.061 1_655 S
O312 Mg311 1.926 . S
O312 Mg313 1.986 . S
O312 Mg314 1.917 1_655 S
Mg313 O312 1.986 . S
Mg313 O320 2.042 . S
Mg313 O322 2.041 . S
Mg313 O328 2.038 . S
Mg313 O336 2.238 . S
Mg314 O312 1.917 1_455 S
Mg314 O315 1.917 . S
Mg314 O325 2.106 . S
Mg314 O327 2.079 1_455 S
Mg314 O336 2.106 1_455 S
Mg314 O337 2.079 . S
O315 Mg314 1.917 . S
O315 Mg316 1.926 . S
O315 Mg317 1.986 . S
Mg316 O315 1.926 . S
Mg316 O330 1.984 . S
Mg316 O333 1.988 . S
Mg316 O334 2.061 1_455 S
Mg317 O315 1.986 . S
Mg317 O325 2.238 . S
Mg317 O329 2.042 . S
Mg317 O331 2.041 . S
Mg317 O338 2.038 . S
C318 O324 1.247 . S
C318 O325 1.289 . S
C319 O337 1.245 . S
C319 O338 1.274 . S
O320 C308 1.241 . S
O320 Mg313 2.042 . S
O321 C308 1.280 . S
O321 Mg311 1.984 . S
O322 C309 1.277 . S
O322 Mg313 2.041 . S
O323 C309 1.245 . S
O323 Mg311 1.988 . S
O324 Mg311 2.061 1_455 S
O324 C318 1.247 . S
O325 Mg314 2.106 . S
O325 Mg317 2.238 . S
O325 C318 1.289 . S
C326 O327 1.245 . S
C326 O328 1.274 . S
O327 Mg314 2.079 1_655 S
O327 C326 1.245 . S
O328 Mg313 2.038 . S
O328 C326 1.274 . S
O329 Mg317 2.042 . S
O329 C332 1.241 . S
O330 Mg316 1.984 . S
O330 C332 1.280 . S
O331 Mg317 2.041 . S
O331 C335 1.277 . S
C332 O329 1.241 . S
C332 O330 1.280 . S
O333 Mg316 1.988 . S
O333 C335 1.245 . S
O334 C310 1.247 . S
O334 Mg316 2.061 1_655 S
C335 O331 1.277 . S
C335 O333 1.245 . S
O336 C310 1.289 . S
O336 Mg313 2.238 . S
O336 Mg314 2.106 1_655 S
O337 Mg314 2.079 . S
O337 C319 1.245 . S
O338 Mg317 2.038 . S
O338 C319 1.274 . S
C339 O351 1.241 . S
C339 O352 1.280 . S
C340 O353 1.277 . S
C340 O354 1.245 . S
C341 O365 1.247 . S
C341 O367 1.289 . S
Mg342 O343 1.926 . S
Mg342 O352 1.984 . S
Mg342 O354 1.988 . S
Mg342 O355 2.061 . S
O343 Mg342 1.926 . S
O343 Mg344 1.986 . S
O343 Mg345 1.917 . S
Mg344 O343 1.986 . S
Mg344 O351 2.042 . S
Mg344 O353 2.041 . S
Mg344 O359 2.038 1_545 S
Mg344 O367 2.238 1_545 S
Mg345 O343 1.917 . S
Mg345 O346 1.917 1_545 S
Mg345 O356 2.106 . S
Mg345 O358 2.079 1_545 S
Mg345 O367 2.106 1_545 S
Mg345 O368 2.079 . S
O346 Mg345 1.917 1_565 S
O346 Mg347 1.926 . S
O346 Mg348 1.986 1_565 S
Mg347 O346 1.926 . S
Mg347 O361 1.984 . S
Mg347 O364 1.988 . S
Mg347 O365 2.061 . S
Mg348 O346 1.986 1_545 S
Mg348 O356 2.238 . S
Mg348 O360 2.042 1_545 S
Mg348 O362 2.041 1_545 S
Mg348 O369 2.038 . S
C349 O355 1.247 . S
C349 O356 1.289 . S
C350 O368 1.245 . S
C350 O369 1.274 . S
O351 C339 1.241 . S
O351 Mg344 2.042 . S
O352 C339 1.280 . S
O352 Mg342 1.984 . S
O353 C340 1.277 . S
O353 Mg344 2.041 . S
O354 C340 1.245 . S
O354 Mg342 1.988 . S
O355 Mg342 2.061 . S
O355 C349 1.247 . S
O356 Mg345 2.106 . S
O356 Mg348 2.238 . S
O356 C349 1.289 . S
C357 O358 1.245 . S
C357 O359 1.274 . S
O358 Mg345 2.079 1_565 S
O358 C357 1.245 . S
O359 Mg344 2.038 1_565 S
O359 C357 1.274 . S
O360 Mg348 2.042 1_565 S
O360 C363 1.241 . S
O361 Mg347 1.984 . S
O361 C363 1.280 . S
O362 Mg348 2.041 1_565 S
O362 C366 1.277 . S
C363 O360 1.241 . S
C363 O361 1.280 . S
O364 Mg347 1.988 . S
O364 C366 1.245 . S
O365 C341 1.247 . S
O365 Mg347 2.061 . S
C366 O362 1.277 . S
C366 O364 1.245 . S
O367 C341 1.289 . S
O367 Mg344 2.238 1_565 S
O367 Mg345 2.106 1_565 S
O368 Mg345 2.079 . S
O368 C350 1.245 . S
O369 Mg348 2.038 . S
O369 C350 1.274 . S
H370 C376 0.930 . S
H371 C379 0.930 . S
H372 C380 0.930 . S
H373 C381 0.930 . S
H374 C384 0.930 . S
H375 C385 0.930 . S
C376 H370 0.930 . S
C376 C377 1.355 . S
C376 C378 1.415 . S
C377 C376 1.355 . S
C377 C379 1.419 . S
C378 C376 1.415 . S
C378 C383 1.425 . S
C378 C385 1.409 . S
C379 H371 0.930 . S
C379 C377 1.419 . S
C379 C380 1.362 . S
C380 H372 0.930 . S
C380 C379 1.362 . S
C380 C383 1.409 . S
C381 H373 0.930 . S
C381 C382 1.355 . S
C381 C383 1.415 . S
C382 C381 1.355 . S
C382 C384 1.419 . S
C383 C378 1.425 . S
C383 C380 1.409 . S
C383 C381 1.415 . S
C384 H374 0.930 . S
C384 C382 1.419 . S
C384 C385 1.362 . S
C385 H375 0.930 . S
C385 C378 1.409 . S
C385 C384 1.362 . S
H386 C392 0.930 . S
H387 C395 0.930 . S
H388 C396 0.930 . S
H389 C397 0.930 . S
H390 C400 0.930 . S
H391 C401 0.930 . S
C392 H386 0.930 . S
C392 C393 1.355 . S
C392 C394 1.415 . S
C393 C392 1.355 . S
C393 C395 1.419 . S
C394 C392 1.415 . S
C394 C399 1.425 . S
C394 C401 1.409 . S
C395 H387 0.930 . S
C395 C393 1.419 . S
C395 C396 1.362 . S
C396 H388 0.930 . S
C396 C395 1.362 . S
C396 C399 1.409 . S
C397 H389 0.930 . S
C397 C398 1.355 . S
C397 C399 1.415 . S
C398 C397 1.355 . S
C398 C400 1.419 . S
C399 C394 1.425 . S
C399 C396 1.409 . S
C399 C397 1.415 . S
C400 H390 0.930 . S
C400 C398 1.419 . S
C400 C401 1.362 . S
C401 H391 0.930 . S
C401 C394 1.409 . S
C401 C400 1.362 . S
H402 C408 0.930 . S
H403 C411 0.930 . S
H404 C412 0.930 . S
H405 C413 0.930 . S
H406 C416 0.930 . S
H407 C417 0.930 . S
C408 H402 0.930 . S
C408 C409 1.355 . S
C408 C410 1.415 . S
C409 C408 1.355 . S
C409 C411 1.419 . S
C410 C408 1.415 . S
C410 C415 1.425 . S
C410 C417 1.409 . S
C411 H403 0.930 . S
C411 C409 1.419 . S
C411 C412 1.362 . S
C412 H404 0.930 . S
C412 C411 1.362 . S
C412 C415 1.409 . S
C413 H405 0.930 . S
C413 C414 1.355 . S
C413 C415 1.415 . S
C414 C413 1.355 . S
C414 C416 1.419 . S
C415 C410 1.425 . S
C415 C412 1.409 . S
C415 C413 1.415 . S
C416 H406 0.930 . S
C416 C414 1.419 . S
C416 C417 1.362 . S
C417 H407 0.930 . S
C417 C410 1.409 . S
C417 C416 1.362 . S
H418 C424 0.930 . S
H419 C427 0.930 . S
H420 C428 0.930 . S
H421 C429 0.930 . S
H422 C432 0.930 . S
H423 C433 0.930 . S
C424 H418 0.930 . S
C424 C425 1.355 . S
C424 C426 1.415 . S
C425 C424 1.355 . S
C425 C427 1.419 . S
C426 C424 1.415 . S
C426 C431 1.425 . S
C426 C433 1.409 . S
C427 H419 0.930 . S
C427 C425 1.419 . S
C427 C428 1.362 . S
C428 H420 0.930 . S
C428 C427 1.362 . S
C428 C431 1.409 . S
C429 H421 0.930 . S
C429 C430 1.355 . S
C429 C431 1.415 . S
C430 C429 1.355 . S
C430 C432 1.419 . S
C431 C426 1.425 . S
C431 C428 1.409 . S
C431 C429 1.415 . S
C432 H422 0.930 . S
C432 C430 1.419 . S
C432 C433 1.362 . S
C433 H423 0.930 . S
C433 C426 1.409 . S
C433 C432 1.362 . S
H434 C440 0.930 . S
H435 C443 0.930 . S
H436 C444 0.930 . S
H437 C445 0.930 . S
H438 C448 0.930 . S
H439 C449 0.930 . S
C440 H434 0.930 . S
C440 C441 1.355 . S
C440 C442 1.415 . S
C441 C440 1.355 . S
C441 C443 1.419 . S
C442 C440 1.415 . S
C442 C447 1.425 . S
C442 C449 1.409 . S
C443 H435 0.930 . S
C443 C441 1.419 . S
C443 C444 1.362 . S
C444 H436 0.930 . S
C444 C443 1.362 . S
C444 C447 1.409 . S
C445 H437 0.930 . S
C445 C446 1.355 . S
C445 C447 1.415 . S
C446 C445 1.355 . S
C446 C448 1.419 . S
C447 C442 1.425 . S
C447 C444 1.409 . S
C447 C445 1.415 . S
C448 H438 0.930 . S
C448 C446 1.419 . S
C448 C449 1.362 . S
C449 H439 0.930 . S
C449 C442 1.409 . S
C449 C448 1.362 . S
H450 C456 0.930 . S
H451 C459 0.930 . S
H452 C460 0.930 . S
H453 C461 0.930 . S
H454 C464 0.930 . S
H455 C465 0.930 . S
C456 H450 0.930 . S
C456 C457 1.355 . S
C456 C458 1.415 . S
C457 C456 1.355 . S
C457 C459 1.419 . S
C458 C456 1.415 . S
C458 C463 1.425 . S
C458 C465 1.409 . S
C459 H451 0.930 . S
C459 C457 1.419 . S
C459 C460 1.362 . S
C460 H452 0.930 . S
C460 C459 1.362 . S
C460 C463 1.409 . S
C461 H453 0.930 . S
C461 C462 1.355 . S
C461 C463 1.415 . S
C462 C461 1.355 . S
C462 C464 1.419 . S
C463 C458 1.425 . S
C463 C460 1.409 . S
C463 C461 1.415 . S
C464 H454 0.930 . S
C464 C462 1.419 . S
C464 C465 1.362 . S
C465 H455 0.930 . S
C465 C458 1.409 . S
C465 C464 1.362 . S
H466 C472 0.930 . S
H467 C475 0.930 . S
H468 C476 0.930 . S
H469 C477 0.930 . S
H470 C480 0.930 . S
H471 C481 0.930 . S
C472 H466 0.930 . S
C472 C473 1.355 . S
C472 C474 1.415 . S
C473 C472 1.355 . S
C473 C475 1.419 . S
C474 C472 1.415 . S
C474 C479 1.425 . S
C474 C481 1.409 . S
C475 H467 0.930 . S
C475 C473 1.419 . S
C475 C476 1.362 . S
C476 H468 0.930 . S
C476 C475 1.362 . S
C476 C479 1.409 . S
C477 H469 0.930 . S
C477 C478 1.355 . S
C477 C479 1.415 . S
C478 C477 1.355 . S
C478 C480 1.419 . S
C479 C474 1.425 . S
C479 C476 1.409 . S
C479 C477 1.415 . S
C480 H470 0.930 . S
C480 C478 1.419 . S
C480 C481 1.362 . S
C481 H471 0.930 . S
C481 C474 1.409 . S
C481 C480 1.362 . S
H482 C488 0.930 . S
H483 C491 0.930 . S
H484 C492 0.930 . S
H485 C493 0.930 . S
H486 C496 0.930 . S
H487 C497 0.930 . S
C488 H482 0.930 . S
C488 C489 1.355 . S
C488 C490 1.415 . S
C489 C488 1.355 . S
C489 C491 1.419 . S
C490 C488 1.415 . S
C490 C495 1.425 . S
C490 C497 1.409 . S
C491 H483 0.930 . S
C491 C489 1.419 . S
C491 C492 1.362 . S
C492 H484 0.930 . S
C492 C491 1.362 . S
C492 C495 1.409 . S
C493 H485 0.930 . S
C493 C494 1.355 . S
C493 C495 1.415 . S
C494 C493 1.355 . S
C494 C496 1.419 . S
C495 C490 1.425 . S
C495 C492 1.409 . S
C495 C493 1.415 . S
C496 H486 0.930 . S
C496 C494 1.419 . S
C496 C497 1.362 . S
C497 H487 0.930 . S
C497 C490 1.409 . S
C497 C496 1.362 . S
H498 C504 0.930 . S
H499 C507 0.930 . S
H500 C508 0.930 . S
H501 C509 0.930 . S
H502 C512 0.930 . S
H503 C513 0.930 . S
C504 H498 0.930 . S
C504 C505 1.355 . S
C504 C506 1.415 . S
C505 C504 1.355 . S
C505 C507 1.419 . S
C506 C504 1.415 . S
C506 C511 1.425 . S
C506 C513 1.409 . S
C507 H499 0.930 . S
C507 C505 1.419 . S
C507 C508 1.362 . S
C508 H500 0.930 . S
C508 C507 1.362 . S
C508 C511 1.409 . S
C509 H501 0.930 . S
C509 C510 1.355 . S
C509 C511 1.415 . S
C510 C509 1.355 . S
C510 C512 1.419 . S
C511 C506 1.425 . S
C511 C508 1.409 . S
C511 C509 1.415 . S
C512 H502 0.930 . S
C512 C510 1.419 . S
C512 C513 1.362 . S
C513 H503 0.930 . S
C513 C506 1.409 . S
C513 C512 1.362 . S
H514 C520 0.930 . S
H515 C523 0.930 . S
H516 C524 0.930 . S
H517 C525 0.930 . S
H518 C528 0.930 . S
H519 C529 0.930 . S
C520 H514 0.930 . S
C520 C521 1.355 . S
C520 C522 1.415 . S
C521 C520 1.355 . S
C521 C523 1.419 . S
C522 C520 1.415 . S
C522 C527 1.425 . S
C522 C529 1.409 . S
C523 H515 0.930 . S
C523 C521 1.419 . S
C523 C524 1.362 . S
C524 H516 0.930 . S
C524 C523 1.362 . S
C524 C527 1.409 . S
C525 H517 0.930 . S
C525 C526 1.355 . S
C525 C527 1.415 . S
C526 C525 1.355 . S
C526 C528 1.419 . S
C527 C522 1.425 . S
C527 C524 1.409 . S
C527 C525 1.415 . S
C528 H518 0.930 . S
C528 C526 1.419 . S
C528 C529 1.362 . S
C529 H519 0.930 . S
C529 C522 1.409 . S
C529 C528 1.362 . S
H530 C536 0.930 . S
H531 C539 0.930 . S
H532 C540 0.930 . S
H533 C541 0.930 . S
H534 C544 0.930 . S
H535 C545 0.930 . S
C536 H530 0.930 . S
C536 C537 1.355 . S
C536 C538 1.415 . S
C537 C536 1.355 . S
C537 C539 1.419 . S
C538 C536 1.415 . S
C538 C543 1.425 . S
C538 C545 1.409 . S
C539 H531 0.930 . S
C539 C537 1.419 . S
C539 C540 1.362 . S
C540 H532 0.930 . S
C540 C539 1.362 . S
C540 C543 1.409 . S
C541 H533 0.930 . S
C541 C542 1.355 . S
C541 C543 1.415 . S
C542 C541 1.355 . S
C542 C544 1.419 . S
C543 C538 1.425 . S
C543 C540 1.409 . S
C543 C541 1.415 . S
C544 H534 0.930 . S
C544 C542 1.419 . S
C544 C545 1.362 . S
C545 H535 0.930 . S
C545 C538 1.409 . S
C545 C544 1.362 . S
H546 C552 0.930 . S
H547 C555 0.930 . S
H548 C556 0.930 . S
H549 C557 0.930 . S
H550 C560 0.930 . S
H551 C561 0.930 . S
C552 H546 0.930 . S
C552 C553 1.355 . S
C552 C554 1.415 . S
C553 C552 1.355 . S
C553 C555 1.419 . S
C554 C552 1.415 . S
C554 C559 1.425 . S
C554 C561 1.409 . S
C555 H547 0.930 . S
C555 C553 1.419 . S
C555 C556 1.362 . S
C556 H548 0.930 . S
C556 C555 1.362 . S
C556 C559 1.409 . S
C557 H549 0.930 . S
C557 C558 1.355 . S
C557 C559 1.415 . S
C558 C557 1.355 . S
C558 C560 1.419 . S
C559 C554 1.425 . S
C559 C556 1.409 . S
C559 C557 1.415 . S
C560 H550 0.930 . S
C560 C558 1.419 . S
C560 C561 1.362 . S
C561 H551 0.930 . S
C561 C554 1.409 . S
C561 C560 1.362 . S
H562 C568 0.930 . S
H563 C571 0.930 . S
H564 C572 0.930 . S
H565 C573 0.930 . S
H566 C576 0.930 . S
H567 C577 0.930 . S
C568 H562 0.930 . S
C568 C569 1.355 . S
C568 C570 1.415 . S
C569 C568 1.355 . S
C569 C571 1.419 . S
C570 C568 1.415 . S
C570 C575 1.425 . S
C570 C577 1.409 . S
C571 H563 0.930 . S
C571 C569 1.419 . S
C571 C572 1.362 . S
C572 H564 0.930 . S
C572 C571 1.362 . S
C572 C575 1.409 . S
C573 H565 0.930 . S
C573 C574 1.355 . S
C573 C575 1.415 . S
C574 C573 1.355 . S
C574 C576 1.419 . S
C575 C570 1.425 . S
C575 C572 1.409 . S
C575 C573 1.415 . S
C576 H566 0.930 . S
C576 C574 1.419 . S
C576 C577 1.362 . S
C577 H567 0.930 . S
C577 C570 1.409 . S
C577 C576 1.362 . S
H578 C584 0.930 . S
H579 C587 0.930 . S
H580 C588 0.930 . S
H581 C589 0.930 . S
H582 C592 0.930 . S
H583 C593 0.930 . S
C584 H578 0.930 . S
C584 C585 1.355 . S
C584 C586 1.415 . S
C585 C584 1.355 . S
C585 C587 1.419 . S
C586 C584 1.415 . S
C586 C591 1.425 . S
C586 C593 1.409 . S
C587 H579 0.930 . S
C587 C585 1.419 . S
C587 C588 1.362 . S
C588 H580 0.930 . S
C588 C587 1.362 . S
C588 C591 1.409 . S
C589 H581 0.930 . S
C589 C590 1.355 . S
C589 C591 1.415 . S
C590 C589 1.355 . S
C590 C592 1.419 . S
C591 C586 1.425 . S
C591 C588 1.409 . S
C591 C589 1.415 . S
C592 H582 0.930 . S
C592 C590 1.419 . S
C592 C593 1.362 . S
C593 H583 0.930 . S
C593 C586 1.409 . S
C593 C592 1.362 . S
H594 C600 0.930 . S
H595 C603 0.930 . S
H596 C604 0.930 . S
H597 C605 0.930 . S
H598 C608 0.930 . S
H599 C609 0.930 . S
C600 H594 0.930 . S
C600 C601 1.355 . S
C600 C602 1.415 . S
C601 C600 1.355 . S
C601 C603 1.419 . S
C602 C600 1.415 . S
C602 C607 1.425 . S
C602 C609 1.409 . S
C603 H595 0.930 . S
C603 C601 1.419 . S
C603 C604 1.362 . S
C604 H596 0.930 . S
C604 C603 1.362 . S
C604 C607 1.409 . S
C605 H597 0.930 . S
C605 C606 1.355 . S
C605 C607 1.415 . S
C606 C605 1.355 . S
C606 C608 1.419 . S
C607 C602 1.425 . S
C607 C604 1.409 . S
C607 C605 1.415 . S
C608 H598 0.930 . S
C608 C606 1.419 . S
C608 C609 1.362 . S
C609 H599 0.930 . S
C609 C602 1.409 . S
C609 C608 1.362 . S
H610 C616 0.930 . S
H611 C619 0.930 . S
H612 C620 0.930 . S
H613 C621 0.930 . S
H614 C624 0.930 . S
H615 C625 0.930 . S
C616 H610 0.930 . S
C616 C617 1.355 . S
C616 C618 1.415 . S
C617 C616 1.355 . S
C617 C619 1.419 . S
C618 C616 1.415 . S
C618 C623 1.425 . S
C618 C625 1.409 . S
C619 H611 0.930 . S
C619 C617 1.419 . S
C619 C620 1.362 . S
C620 H612 0.930 . S
C620 C619 1.362 . S
C620 C623 1.409 . S
C621 H613 0.930 . S
C621 C622 1.355 . S
C621 C623 1.415 . S
C622 C621 1.355 . S
C622 C624 1.419 . S
C623 C618 1.425 . S
C623 C620 1.409 . S
C623 C621 1.415 . S
C624 H614 0.930 . S
C624 C622 1.419 . S
C624 C625 1.362 . S
C625 H615 0.930 . S
C625 C618 1.409 . S
C625 C624 1.362 . S
H626 C632 0.930 . S
H627 C635 0.930 . S
H628 C636 0.930 . S
H629 C637 0.930 . S
H630 C640 0.930 . S
H631 C641 0.930 . S
C632 H626 0.930 . S
C632 C633 1.355 . S
C632 C634 1.415 . S
C633 C632 1.355 . S
C633 C635 1.419 . S
C634 C632 1.415 . S
C634 C639 1.425 . S
C634 C641 1.409 . S
C635 H627 0.930 . S
C635 C633 1.419 . S
C635 C636 1.362 . S
C636 H628 0.930 . S
C636 C635 1.362 . S
C636 C639 1.409 . S
C637 H629 0.930 . S
C637 C638 1.355 . S
C637 C639 1.415 . S
C638 C637 1.355 . S
C638 C640 1.419 . S
C639 C634 1.425 . S
C639 C636 1.409 . S
C639 C637 1.415 . S
C640 H630 0.930 . S
C640 C638 1.419 . S
C640 C641 1.362 . S
C641 H631 0.930 . S
C641 C634 1.409 . S
C641 C640 1.362 . S
H642 C648 0.930 . S
H643 C651 0.930 . S
H644 C652 0.930 . S
H645 C653 0.930 . S
H646 C656 0.930 . S
H647 C657 0.930 . S
C648 H642 0.930 . S
C648 C649 1.355 . S
C648 C650 1.415 . S
C649 C648 1.355 . S
C649 C651 1.419 . S
C650 C648 1.415 . S
C650 C655 1.425 . S
C650 C657 1.409 . S
C651 H643 0.930 . S
C651 C649 1.419 . S
C651 C652 1.362 . S
C652 H644 0.930 . S
C652 C651 1.362 . S
C652 C655 1.409 . S
C653 H645 0.930 . S
C653 C654 1.355 . S
C653 C655 1.415 . S
C654 C653 1.355 . S
C654 C656 1.419 . S
C655 C650 1.425 . S
C655 C652 1.409 . S
C655 C653 1.415 . S
C656 H646 0.930 . S
C656 C654 1.419 . S
C656 C657 1.362 . S
C657 H647 0.930 . S
C657 C650 1.409 . S
C657 C656 1.362 . S
H658 C664 0.930 . S
H659 C667 0.930 . S
H660 C668 0.930 . S
H661 C669 0.930 . S
H662 C672 0.930 . S
H663 C673 0.930 . S
C664 H658 0.930 . S
C664 C665 1.355 . S
C664 C666 1.415 . S
C665 C664 1.355 . S
C665 C667 1.419 . S
C666 C664 1.415 . S
C666 C671 1.425 . S
C666 C673 1.409 . S
C667 H659 0.930 . S
C667 C665 1.419 . S
C667 C668 1.362 . S
C668 H660 0.930 . S
C668 C667 1.362 . S
C668 C671 1.409 . S
C669 H661 0.930 . S
C669 C670 1.355 . S
C669 C671 1.415 . S
C670 C669 1.355 . S
C670 C672 1.419 . S
C671 C666 1.425 . S
C671 C668 1.409 . S
C671 C669 1.415 . S
C672 H662 0.930 . S
C672 C670 1.419 . S
C672 C673 1.362 . S
C673 H663 0.930 . S
C673 C666 1.409 . S
C673 C672 1.362 . S
H674 C680 0.930 . S
H675 C683 0.930 . S
H676 C684 0.930 . S
H677 C685 0.930 . S
H678 C688 0.930 . S
H679 C689 0.930 . S
C680 H674 0.930 . S
C680 C681 1.355 . S
C680 C682 1.415 . S
C681 C680 1.355 . S
C681 C683 1.419 . S
C682 C680 1.415 . S
C682 C687 1.425 . S
C682 C689 1.409 . S
C683 H675 0.930 . S
C683 C681 1.419 . S
C683 C684 1.362 . S
C684 H676 0.930 . S
C684 C683 1.362 . S
C684 C687 1.409 . S
C685 H677 0.930 . S
C685 C686 1.355 . S
C685 C687 1.415 . S
C686 C685 1.355 . S
C686 C688 1.419 . S
C687 C682 1.425 . S
C687 C684 1.409 . S
C687 C685 1.415 . S
C688 H678 0.930 . S
C688 C686 1.419 . S
C688 C689 1.362 . S
C689 H679 0.930 . S
C689 C682 1.409 . S
C689 C688 1.362 . S
H690 C696 0.930 . S
H691 C699 0.930 . S
H692 C700 0.930 . S
H693 C701 0.930 . S
H694 C704 0.930 . S
H695 C705 0.930 . S
C696 H690 0.930 . S
C696 C697 1.355 . S
C696 C698 1.415 . S
C697 C696 1.355 . S
C697 C699 1.419 . S
C698 C696 1.415 . S
C698 C703 1.425 . S
C698 C705 1.409 . S
C699 H691 0.930 . S
C699 C697 1.419 . S
C699 C700 1.362 . S
C700 H692 0.930 . S
C700 C699 1.362 . S
C700 C703 1.409 . S
C701 H693 0.930 . S
C701 C702 1.355 . S
C701 C703 1.415 . S
C702 C701 1.355 . S
C702 C704 1.419 . S
C703 C698 1.425 . S
C703 C700 1.409 . S
C703 C701 1.415 . S
C704 H694 0.930 . S
C704 C702 1.419 . S
C704 C705 1.362 . S
C705 H695 0.930 . S
C705 C698 1.409 . S
C705 C704 1.362 . S
H706 C712 0.930 . S
H707 C715 0.930 . S
H708 C716 0.930 . S
H709 C717 0.930 . S
H710 C720 0.930 . S
H711 C721 0.930 . S
C712 H706 0.930 . S
C712 C713 1.355 . S
C712 C714 1.415 . S
C713 C712 1.355 . S
C713 C715 1.419 . S
C714 C712 1.415 . S
C714 C719 1.425 . S
C714 C721 1.409 . S
C715 H707 0.930 . S
C715 C713 1.419 . S
C715 C716 1.362 . S
C716 H708 0.930 . S
C716 C715 1.362 . S
C716 C719 1.409 . S
C717 H709 0.930 . S
C717 C718 1.355 . S
C717 C719 1.415 . S
C718 C717 1.355 . S
C718 C720 1.419 . S
C719 C714 1.425 . S
C719 C716 1.409 . S
C719 C717 1.415 . S
C720 H710 0.930 . S
C720 C718 1.419 . S
C720 C721 1.362 . S
C721 H711 0.930 . S
C721 C714 1.409 . S
C721 C720 1.362 . S
H722 C728 0.930 . S
H723 C731 0.930 . S
H724 C732 0.930 . S
H725 C733 0.930 . S
H726 C736 0.930 . S
H727 C737 0.930 . S
C728 H722 0.930 . S
C728 C729 1.355 . S
C728 C730 1.415 . S
C729 C728 1.355 . S
C729 C731 1.419 . S
C730 C728 1.415 . S
C730 C735 1.425 . S
C730 C737 1.409 . S
C731 H723 0.930 . S
C731 C729 1.419 . S
C731 C732 1.362 . S
C732 H724 0.930 . S
C732 C731 1.362 . S
C732 C735 1.409 . S
C733 H725 0.930 . S
C733 C734 1.355 . S
C733 C735 1.415 . S
C734 C733 1.355 . S
C734 C736 1.419 . S
C735 C730 1.425 . S
C735 C732 1.409 . S
C735 C733 1.415 . S
C736 H726 0.930 . S
C736 C734 1.419 . S
C736 C737 1.362 . S
C737 H727 0.930 . S
C737 C730 1.409 . S
C737 C736 1.362 . S
H738 C744 0.930 . S
H739 C747 0.930 . S
H740 C748 0.930 . S
H741 C749 0.930 . S
H742 C752 0.930 . S
H743 C753 0.930 . S
C744 H738 0.930 . S
C744 C745 1.355 . S
C744 C746 1.415 . S
C745 C744 1.355 . S
C745 C747 1.419 . S
C746 C744 1.415 . S
C746 C751 1.425 . S
C746 C753 1.409 . S
C747 H739 0.930 . S
C747 C745 1.419 . S
C747 C748 1.362 . S
C748 H740 0.930 . S
C748 C747 1.362 . S
C748 C751 1.409 . S
C749 H741 0.930 . S
C749 C750 1.355 . S
C749 C751 1.415 . S
C750 C749 1.355 . S
C750 C752 1.419 . S
C751 C746 1.425 . S
C751 C748 1.409 . S
C751 C749 1.415 . S
C752 H742 0.930 . S
C752 C750 1.419 . S
C752 C753 1.362 . S
C753 H743 0.930 . S
C753 C746 1.409 . S
C753 C752 1.362 . S
H754 C760 0.930 . S
H755 C763 0.930 . S
H756 C764 0.930 . S
H757 C765 0.930 . S
H758 C768 0.930 . S
H759 C769 0.930 . S
C760 H754 0.930 . S
C760 C761 1.355 . S
C760 C762 1.415 . S
C761 C760 1.355 . S
C761 C763 1.419 . S
C762 C760 1.415 . S
C762 C767 1.425 . S
C762 C769 1.409 . S
C763 H755 0.930 . S
C763 C761 1.419 . S
C763 C764 1.362 . S
C764 H756 0.930 . S
C764 C763 1.362 . S
C764 C767 1.409 . S
C765 H757 0.930 . S
C765 C766 1.355 . S
C765 C767 1.415 . S
C766 C765 1.355 . S
C766 C768 1.419 . S
C767 C762 1.425 . S
C767 C764 1.409 . S
C767 C765 1.415 . S
C768 H758 0.930 . S
C768 C766 1.419 . S
C768 C769 1.362 . S
C769 H759 0.930 . S
C769 C762 1.409 . S
C769 C768 1.362 . S
H770 C776 0.930 . S
H771 C779 0.930 . S
H772 C780 0.930 . S
H773 C781 0.930 . S
H774 C784 0.930 . S
H775 C785 0.930 . S
C776 H770 0.930 . S
C776 C777 1.355 . S
C776 C778 1.415 . S
C777 C776 1.355 . S
C777 C779 1.419 . S
C778 C776 1.415 . S
C778 C783 1.425 . S
C778 C785 1.409 . S
C779 H771 0.930 . S
C779 C777 1.419 . S
C779 C780 1.362 . S
C780 H772 0.930 . S
C780 C779 1.362 . S
C780 C783 1.409 . S
C781 H773 0.930 . S
C781 C782 1.355 . S
C781 C783 1.415 . S
C782 C781 1.355 . S
C782 C784 1.419 . S
C783 C778 1.425 . S
C783 C780 1.409 . S
C783 C781 1.415 . S
C784 H774 0.930 . S
C784 C782 1.419 . S
C784 C785 1.362 . S
C785 H775 0.930 . S
C785 C778 1.409 . S
C785 C784 1.362 . S
H786 C792 0.930 . S
H787 C795 0.930 . S
H788 C796 0.930 . S
H789 C797 0.930 . S
H790 C800 0.930 . S
H791 C801 0.930 . S
C792 H786 0.930 . S
C792 C793 1.355 . S
C792 C794 1.415 . S
C793 C792 1.355 . S
C793 C795 1.419 . S
C794 C792 1.415 . S
C794 C799 1.425 . S
C794 C801 1.409 . S
C795 H787 0.930 . S
C795 C793 1.419 . S
C795 C796 1.362 . S
C796 H788 0.930 . S
C796 C795 1.362 . S
C796 C799 1.409 . S
C797 H789 0.930 . S
C797 C798 1.355 . S
C797 C799 1.415 . S
C798 C797 1.355 . S
C798 C800 1.419 . S
C799 C794 1.425 . S
C799 C796 1.409 . S
C799 C797 1.415 . S
C800 H790 0.930 . S
C800 C798 1.419 . S
C800 C801 1.362 . S
C801 H791 0.930 . S
C801 C794 1.409 . S
C801 C800 1.362 . S
H802 C808 0.930 . S
H803 C811 0.930 . S
H804 C812 0.930 . S
H805 C813 0.930 . S
H806 C816 0.930 . S
H807 C817 0.930 . S
C808 H802 0.930 . S
C808 C809 1.355 . S
C808 C810 1.415 . S
C809 C808 1.355 . S
C809 C811 1.419 . S
C810 C808 1.415 . S
C810 C815 1.425 . S
C810 C817 1.409 . S
C811 H803 0.930 . S
C811 C809 1.419 . S
C811 C812 1.362 . S
C812 H804 0.930 . S
C812 C811 1.362 . S
C812 C815 1.409 . S
C813 H805 0.930 . S
C813 C814 1.355 . S
C813 C815 1.415 . S
C814 C813 1.355 . S
C814 C816 1.419 . S
C815 C810 1.425 . S
C815 C812 1.409 . S
C815 C813 1.415 . S
C816 H806 0.930 . S
C816 C814 1.419 . S
C816 C817 1.362 . S
C817 H807 0.930 . S
C817 C810 1.409 . S
C817 C816 1.362 . S
H818 C824 0.930 . S
H819 C827 0.930 . S
H820 C828 0.930 . S
H821 C829 0.930 . S
H822 C832 0.930 . S
H823 C833 0.930 . S
C824 H818 0.930 . S
C824 C825 1.355 . S
C824 C826 1.415 . S
C825 C824 1.355 . S
C825 C827 1.419 . S
C826 C824 1.415 . S
C826 C831 1.425 . S
C826 C833 1.409 . S
C827 H819 0.930 . S
C827 C825 1.419 . S
C827 C828 1.362 . S
C828 H820 0.930 . S
C828 C827 1.362 . S
C828 C831 1.409 . S
C829 H821 0.930 . S
C829 C830 1.355 . S
C829 C831 1.415 . S
C830 C829 1.355 . S
C830 C832 1.419 . S
C831 C826 1.425 . S
C831 C828 1.409 . S
C831 C829 1.415 . S
C832 H822 0.930 . S
C832 C830 1.419 . S
C832 C833 1.362 . S
C833 H823 0.930 . S
C833 C826 1.409 . S
C833 C832 1.362 . S
H834 C840 0.930 . S
H835 C843 0.930 . S
H836 C844 0.930 . S
H837 C845 0.930 . S
H838 C848 0.930 . S
H839 C849 0.930 . S
C840 H834 0.930 . S
C840 C841 1.355 . S
C840 C842 1.415 . S
C841 C840 1.355 . S
C841 C843 1.419 . S
C842 C840 1.415 . S
C842 C847 1.425 . S
C842 C849 1.409 . S
C843 H835 0.930 . S
C843 C841 1.419 . S
C843 C844 1.362 . S
C844 H836 0.930 . S
C844 C843 1.362 . S
C844 C847 1.409 . S
C845 H837 0.930 . S
C845 C846 1.355 . S
C845 C847 1.415 . S
C846 C845 1.355 . S
C846 C848 1.419 . S
C847 C842 1.425 . S
C847 C844 1.409 . S
C847 C845 1.415 . S
C848 H838 0.930 . S
C848 C846 1.419 . S
C848 C849 1.362 . S
C849 H839 0.930 . S
C849 C842 1.409 . S
C849 C848 1.362 . S
H850 C856 0.930 . S
H851 C859 0.930 . S
H852 C860 0.930 . S
H853 C861 0.930 . S
H854 C864 0.930 . S
H855 C865 0.930 . S
C856 H850 0.930 . S
C856 C857 1.355 . S
C856 C858 1.415 . S
C857 C856 1.355 . S
C857 C859 1.419 . S
C858 C856 1.415 . S
C858 C863 1.425 . S
C858 C865 1.409 . S
C859 H851 0.930 . S
C859 C857 1.419 . S
C859 C860 1.362 . S
C860 H852 0.930 . S
C860 C859 1.362 . S
C860 C863 1.409 . S
C861 H853 0.930 . S
C861 C862 1.355 . S
C861 C863 1.415 . S
C862 C861 1.355 . S
C862 C864 1.419 . S
C863 C858 1.425 . S
C863 C860 1.409 . S
C863 C861 1.415 . S
C864 H854 0.930 . S
C864 C862 1.419 . S
C864 C865 1.362 . S
C865 H855 0.930 . S
C865 C858 1.409 . S
C865 C864 1.362 . S
H866 C872 0.930 . S
H867 C875 0.930 . S
H868 C876 0.930 . S
H869 C877 0.930 . S
H870 C880 0.930 . S
H871 C881 0.930 . S
C872 H866 0.930 . S
C872 C873 1.355 . S
C872 C874 1.415 . S
C873 C872 1.355 . S
C873 C875 1.419 . S
C874 C872 1.415 . S
C874 C879 1.425 . S
C874 C881 1.409 . S
C875 H867 0.930 . S
C875 C873 1.419 . S
C875 C876 1.362 . S
C876 H868 0.930 . S
C876 C875 1.362 . S
C876 C879 1.409 . S
C877 H869 0.930 . S
C877 C878 1.355 . S
C877 C879 1.415 . S
C878 C877 1.355 . S
C878 C880 1.419 . S
C879 C874 1.425 . S
C879 C876 1.409 . S
C879 C877 1.415 . S
C880 H870 0.930 . S
C880 C878 1.419 . S
C880 C881 1.362 . S
C881 H871 0.930 . S
C881 C874 1.409 . S
C881 C880 1.362 . S
H882 C888 0.930 . S
H883 C891 0.930 . S
H884 C892 0.930 . S
H885 C893 0.930 . S
H886 C896 0.930 . S
H887 C897 0.930 . S
C888 H882 0.930 . S
C888 C889 1.355 . S
C888 C890 1.415 . S
C889 C888 1.355 . S
C889 C891 1.419 . S
C890 C888 1.415 . S
C890 C895 1.425 . S
C890 C897 1.409 . S
C891 H883 0.930 . S
C891 C889 1.419 . S
C891 C892 1.362 . S
C892 H884 0.930 . S
C892 C891 1.362 . S
C892 C895 1.409 . S
C893 H885 0.930 . S
C893 C894 1.355 . S
C893 C895 1.415 . S
C894 C893 1.355 . S
C894 C896 1.419 . S
C895 C890 1.425 . S
C895 C892 1.409 . S
C895 C893 1.415 . S
C896 H886 0.930 . S
C896 C894 1.419 . S
C896 C897 1.362 . S
C897 H887 0.930 . S
C897 C890 1.409 . S
C897 C896 1.362 . S
H898 C904 0.930 . S
H899 C907 0.930 . S
H900 C908 0.930 . S
H901 C909 0.930 . S
H902 C912 0.930 . S
H903 C913 0.930 . S
C904 H898 0.930 . S
C904 C905 1.355 . S
C904 C906 1.415 . S
C905 C904 1.355 . S
C905 C907 1.419 . S
C906 C904 1.415 . S
C906 C911 1.425 . S
C906 C913 1.409 . S
C907 H899 0.930 . S
C907 C905 1.419 . S
C907 C908 1.362 . S
C908 H900 0.930 . S
C908 C907 1.362 . S
C908 C911 1.409 . S
C909 H901 0.930 . S
C909 C910 1.355 . S
C909 C911 1.415 . S
C910 C909 1.355 . S
C910 C912 1.419 . S
C911 C906 1.425 . S
C911 C908 1.409 . S
C911 C909 1.415 . S
C912 H902 0.930 . S
C912 C910 1.419 . S
C912 C913 1.362 . S
C913 H903 0.930 . S
C913 C906 1.409 . S
C913 C912 1.362 . S
H914 C920 0.930 . S
H915 C923 0.930 . S
H916 C924 0.930 . S
H917 C925 0.930 . S
H918 C928 0.930 . S
H919 C929 0.930 . S
C920 H914 0.930 . S
C920 C921 1.355 . S
C920 C922 1.415 . S
C921 C920 1.355 . S
C921 C923 1.419 . S
C922 C920 1.415 . S
C922 C927 1.425 . S
C922 C929 1.409 . S
C923 H915 0.930 . S
C923 C921 1.419 . S
C923 C924 1.362 . S
C924 H916 0.930 . S
C924 C923 1.362 . S
C924 C927 1.409 . S
C925 H917 0.930 . S
C925 C926 1.355 . S
C925 C927 1.415 . S
C926 C925 1.355 . S
C926 C928 1.419 . S
C927 C922 1.425 . S
C927 C924 1.409 . S
C927 C925 1.415 . S
C928 H918 0.930 . S
C928 C926 1.419 . S
C928 C929 1.362 . S
C929 H919 0.930 . S
C929 C922 1.409 . S
C929 C928 1.362 . S
H930 C936 0.930 . S
H931 C939 0.930 . S
H932 C940 0.930 . S
H933 C941 0.930 . S
H934 C944 0.930 . S
H935 C945 0.930 . S
C936 H930 0.930 . S
C936 C937 1.355 . S
C936 C938 1.415 . S
C937 C936 1.355 . S
C937 C939 1.419 . S
C938 C936 1.415 . S
C938 C943 1.425 . S
C938 C945 1.409 . S
C939 H931 0.930 . S
C939 C937 1.419 . S
C939 C940 1.362 . S
C940 H932 0.930 . S
C940 C939 1.362 . S
C940 C943 1.409 . S
C941 H933 0.930 . S
C941 C942 1.355 . S
C941 C943 1.415 . S
C942 C941 1.355 . S
C942 C944 1.419 . S
C943 C938 1.425 . S
C943 C940 1.409 . S
C943 C941 1.415 . S
C944 H934 0.930 . S
C944 C942 1.419 . S
C944 C945 1.362 . S
C945 H935 0.930 . S
C945 C938 1.409 . S
C945 C944 1.362 . S
H946 C952 0.930 . S
H947 C955 0.930 . S
H948 C956 0.930 . S
H949 C957 0.930 . S
H950 C960 0.930 . S
H951 C961 0.930 . S
C952 H946 0.930 . S
C952 C953 1.355 . S
C952 C954 1.415 . S
C953 C952 1.355 . S
C953 C955 1.419 . S
C954 C952 1.415 . S
C954 C959 1.425 . S
C954 C961 1.409 . S
C955 H947 0.930 . S
C955 C953 1.419 . S
C955 C956 1.362 . S
C956 H948 0.930 . S
C956 C955 1.362 . S
C956 C959 1.409 . S
C957 H949 0.930 . S
C957 C958 1.355 . S
C957 C959 1.415 . S
C958 C957 1.355 . S
C958 C960 1.419 . S
C959 C954 1.425 . S
C959 C956 1.409 . S
C959 C957 1.415 . S
C960 H950 0.930 . S
C960 C958 1.419 . S
C960 C961 1.362 . S
C961 H951 0.930 . S
C961 C954 1.409 . S
C961 C960 1.362 . S
H962 C968 0.930 . S
H963 C971 0.930 . S
H964 C972 0.930 . S
H965 C973 0.930 . S
H966 C976 0.930 . S
H967 C977 0.930 . S
C968 H962 0.930 . S
C968 C969 1.355 . S
C968 C970 1.415 . S
C969 C968 1.355 . S
C969 C971 1.419 . S
C970 C968 1.415 . S
C970 C975 1.425 . S
C970 C977 1.409 . S
C971 H963 0.930 . S
C971 C969 1.419 . S
C971 C972 1.362 . S
C972 H964 0.930 . S
C972 C971 1.362 . S
C972 C975 1.409 . S
C973 H965 0.930 . S
C973 C974 1.355 . S
C973 C975 1.415 . S
C974 C973 1.355 . S
C974 C976 1.419 . S
C975 C970 1.425 . S
C975 C972 1.409 . S
C975 C973 1.415 . S
C976 H966 0.930 . S
C976 C974 1.419 . S
C976 C977 1.362 . S
C977 H967 0.930 . S
C977 C970 1.409 . S
C977 C976 1.362 . S
H978 C984 0.930 . S
H979 C987 0.930 . S
H980 C988 0.930 . S
H981 C989 0.930 . S
H982 C992 0.930 . S
H983 C993 0.930 . S
C984 H978 0.930 . S
C984 C985 1.355 . S
C984 C986 1.415 . S
C985 C984 1.355 . S
C985 C987 1.419 . S
C986 C984 1.415 . S
C986 C991 1.425 . S
C986 C993 1.409 . S
C987 H979 0.930 . S
C987 C985 1.419 . S
C987 C988 1.362 . S
C988 H980 0.930 . S
C988 C987 1.362 . S
C988 C991 1.409 . S
C989 H981 0.930 . S
C989 C990 1.355 . S
C989 C991 1.415 . S
C990 C989 1.355 . S
C990 C992 1.419 . S
C991 C986 1.425 . S
C991 C988 1.409 . S
C991 C989 1.415 . S
C992 H982 0.930 . S
C992 C990 1.419 . S
C992 C993 1.362 . S
C993 H983 0.930 . S
C993 C986 1.409 . S
C993 C992 1.362 . S
H994 C1000 0.930 . S
H995 C1003 0.930 . S
H996 C1004 0.930 . S
H997 C1005 0.930 . S
H998 C1008 0.930 . S
H999 C1009 0.930 . S
C1000 H994 0.930 . S
C1000 C1001 1.355 . S
C1000 C1002 1.415 . S
C1001 C1000 1.355 . S
C1001 C1003 1.419 . S
C1002 C1000 1.415 . S
C1002 C1007 1.425 . S
C1002 C1009 1.409 . S
C1003 H995 0.930 . S
C1003 C1001 1.419 . S
C1003 C1004 1.362 . S
C1004 H996 0.930 . S
C1004 C1003 1.362 . S
C1004 C1007 1.409 . S
C1005 H997 0.930 . S
C1005 C1006 1.355 . S
C1005 C1007 1.415 . S
C1006 C1005 1.355 . S
C1006 C1008 1.419 . S
C1007 C1002 1.425 . S
C1007 C1004 1.409 . S
C1007 C1005 1.415 . S
C1008 H998 0.930 . S
C1008 C1006 1.419 . S
C1008 C1009 1.362 . S
C1009 H999 0.930 . S
C1009 C1002 1.409 . S
C1009 C1008 1.362 . S
H1010 C1016 0.930 . S
H1011 C1019 0.930 . S
H1012 C1020 0.930 . S
H1013 C1021 0.930 . S
H1014 C1024 0.930 . S
H1015 C1025 0.930 . S
C1016 H1010 0.930 . S
C1016 C1017 1.355 . S
C1016 C1018 1.415 . S
C1017 C1016 1.355 . S
C1017 C1019 1.419 . S
C1018 C1016 1.415 . S
C1018 C1023 1.425 . S
C1018 C1025 1.409 . S
C1019 H1011 0.930 . S
C1019 C1017 1.419 . S
C1019 C1020 1.362 . S
C1020 H1012 0.930 . S
C1020 C1019 1.362 . S
C1020 C1023 1.409 . S
C1021 H1013 0.930 . S
C1021 C1022 1.355 . S
C1021 C1023 1.415 . S
C1022 C1021 1.355 . S
C1022 C1024 1.419 . S
C1023 C1018 1.425 . S
C1023 C1020 1.409 . S
C1023 C1021 1.415 . S
C1024 H1014 0.930 . S
C1024 C1022 1.419 . S
C1024 C1025 1.362 . S
C1025 H1015 0.930 . S
C1025 C1018 1.409 . S
C1025 C1024 1.362 . S
H1026 C1032 0.930 . S
H1027 C1035 0.930 . S
H1028 C1036 0.930 . S
H1029 C1037 0.930 . S
H1030 C1040 0.930 . S
H1031 C1041 0.930 . S
C1032 H1026 0.930 . S
C1032 C1033 1.355 . S
C1032 C1034 1.415 . S
C1033 C1032 1.355 . S
C1033 C1035 1.419 . S
C1034 C1032 1.415 . S
C1034 C1039 1.425 . S
C1034 C1041 1.409 . S
C1035 H1027 0.930 . S
C1035 C1033 1.419 . S
C1035 C1036 1.362 . S
C1036 H1028 0.930 . S
C1036 C1035 1.362 . S
C1036 C1039 1.409 . S
C1037 H1029 0.930 . S
C1037 C1038 1.355 . S
C1037 C1039 1.415 . S
C1038 C1037 1.355 . S
C1038 C1040 1.419 . S
C1039 C1034 1.425 . S
C1039 C1036 1.409 . S
C1039 C1037 1.415 . S
C1040 H1030 0.930 . S
C1040 C1038 1.419 . S
C1040 C1041 1.362 . S
C1041 H1031 0.930 . S
C1041 C1034 1.409 . S
C1041 C1040 1.362 . S
H1042 C1048 0.930 . S
H1043 C1051 0.930 . S
H1044 C1052 0.930 . S
H1045 C1053 0.930 . S
H1046 C1056 0.930 . S
H1047 C1057 0.930 . S
C1048 H1042 0.930 . S
C1048 C1049 1.355 . S
C1048 C1050 1.415 . S
C1049 C1048 1.355 . S
C1049 C1051 1.419 . S
C1050 C1048 1.415 . S
C1050 C1055 1.425 . S
C1050 C1057 1.409 . S
C1051 H1043 0.930 . S
C1051 C1049 1.419 . S
C1051 C1052 1.362 . S
C1052 H1044 0.930 . S
C1052 C1051 1.362 . S
C1052 C1055 1.409 . S
C1053 H1045 0.930 . S
C1053 C1054 1.355 . S
C1053 C1055 1.415 . S
C1054 C1053 1.355 . S
C1054 C1056 1.419 . S
C1055 C1050 1.425 . S
C1055 C1052 1.409 . S
C1055 C1053 1.415 . S
C1056 H1046 0.930 . S
C1056 C1054 1.419 . S
C1056 C1057 1.362 . S
C1057 H1047 0.930 . S
C1057 C1050 1.409 . S
C1057 C1056 1.362 . S
H1058 C1064 0.930 . S
H1059 C1067 0.930 . S
H1060 C1068 0.930 . S
H1061 C1069 0.930 . S
H1062 C1072 0.930 . S
H1063 C1073 0.930 . S
C1064 H1058 0.930 . S
C1064 C1065 1.355 . S
C1064 C1066 1.415 . S
C1065 C1064 1.355 . S
C1065 C1067 1.419 . S
C1066 C1064 1.415 . S
C1066 C1071 1.425 . S
C1066 C1073 1.409 . S
C1067 H1059 0.930 . S
C1067 C1065 1.419 . S
C1067 C1068 1.362 . S
C1068 H1060 0.930 . S
C1068 C1067 1.362 . S
C1068 C1071 1.409 . S
C1069 H1061 0.930 . S
C1069 C1070 1.355 . S
C1069 C1071 1.415 . S
C1070 C1069 1.355 . S
C1070 C1072 1.419 . S
C1071 C1066 1.425 . S
C1071 C1068 1.409 . S
C1071 C1069 1.415 . S
C1072 H1062 0.930 . S
C1072 C1070 1.419 . S
C1072 C1073 1.362 . S
C1073 H1063 0.930 . S
C1073 C1066 1.409 . S
C1073 C1072 1.362 . S
H1074 C1080 0.930 . S
H1075 C1083 0.930 . S
H1076 C1084 0.930 . S
H1077 C1085 0.930 . S
H1078 C1088 0.930 . S
H1079 C1089 0.930 . S
C1080 H1074 0.930 . S
C1080 C1081 1.355 . S
C1080 C1082 1.415 . S
C1081 C1080 1.355 . S
C1081 C1083 1.419 . S
C1082 C1080 1.415 . S
C1082 C1087 1.425 . S
C1082 C1089 1.409 . S
C1083 H1075 0.930 . S
C1083 C1081 1.419 . S
C1083 C1084 1.362 . S
C1084 H1076 0.930 . S
C1084 C1083 1.362 . S
C1084 C1087 1.409 . S
C1085 H1077 0.930 . S
C1085 C1086 1.355 . S
C1085 C1087 1.415 . S
C1086 C1085 1.355 . S
C1086 C1088 1.419 . S
C1087 C1082 1.425 . S
C1087 C1084 1.409 . S
C1087 C1085 1.415 . S
C1088 H1078 0.930 . S
C1088 C1086 1.419 . S
C1088 C1089 1.362 . S
C1089 H1079 0.930 . S
C1089 C1082 1.409 . S
C1089 C1088 1.362 . S
H1090 C1096 0.930 . S
H1091 C1099 0.930 . S
H1092 C1100 0.930 . S
H1093 C1101 0.930 . S
H1094 C1104 0.930 . S
H1095 C1105 0.930 . S
C1096 H1090 0.930 . S
C1096 C1097 1.355 . S
C1096 C1098 1.415 . S
C1097 C1096 1.355 . S
C1097 C1099 1.419 . S
C1098 C1096 1.415 . S
C1098 C1103 1.425 . S
C1098 C1105 1.409 . S
C1099 H1091 0.930 . S
C1099 C1097 1.419 . S
C1099 C1100 1.362 . S
C1100 H1092 0.930 . S
C1100 C1099 1.362 . S
C1100 C1103 1.409 . S
C1101 H1093 0.930 . S
C1101 C1102 1.355 . S
C1101 C1103 1.415 . S
C1102 C1101 1.355 . S
C1102 C1104 1.419 . S
C1103 C1098 1.425 . S
C1103 C1100 1.409 . S
C1103 C1101 1.415 . S
C1104 H1094 0.930 . S
C1104 C1102 1.419 . S
C1104 C1105 1.362 . S
C1105 H1095 0.930 . S
C1105 C1098 1.409 . S
C1105 C1104 1.362 . S
H1106 C1112 0.930 . S
H1107 C1115 0.930 . S
H1108 C1116 0.930 . S
H1109 C1117 0.930 . S
H1110 C1120 0.930 . S
H1111 C1121 0.930 . S
C1112 H1106 0.930 . S
C1112 C1113 1.355 . S
C1112 C1114 1.415 . S
C1113 C1112 1.355 . S
C1113 C1115 1.419 . S
C1114 C1112 1.415 . S
C1114 C1119 1.425 . S
C1114 C1121 1.409 . S
C1115 H1107 0.930 . S
C1115 C1113 1.419 . S
C1115 C1116 1.362 . S
C1116 H1108 0.930 . S
C1116 C1115 1.362 . S
C1116 C1119 1.409 . S
C1117 H1109 0.930 . S
C1117 C1118 1.355 . S
C1117 C1119 1.415 . S
C1118 C1117 1.355 . S
C1118 C1120 1.419 . S
C1119 C1114 1.425 . S
C1119 C1116 1.409 . S
C1119 C1117 1.415 . S
C1120 H1110 0.930 . S
C1120 C1118 1.419 . S
C1120 C1121 1.362 . S
C1121 H1111 0.930 . S
C1121 C1114 1.409 . S
C1121 C1120 1.362 . S
H1122 C1128 0.930 . S
H1123 C1131 0.930 . S
H1124 C1132 0.930 . S
H1125 C1133 0.930 . S
H1126 C1136 0.930 . S
H1127 C1137 0.930 . S
C1128 H1122 0.930 . S
C1128 C1129 1.355 . S
C1128 C1130 1.415 . S
C1129 C1128 1.355 . S
C1129 C1131 1.419 . S
C1130 C1128 1.415 . S
C1130 C1135 1.425 . S
C1130 C1137 1.409 . S
C1131 H1123 0.930 . S
C1131 C1129 1.419 . S
C1131 C1132 1.362 . S
C1132 H1124 0.930 . S
C1132 C1131 1.362 . S
C1132 C1135 1.409 . S
C1133 H1125 0.930 . S
C1133 C1134 1.355 . S
C1133 C1135 1.415 . S
C1134 C1133 1.355 . S
C1134 C1136 1.419 . S
C1135 C1130 1.425 . S
C1135 C1132 1.409 . S
C1135 C1133 1.415 . S
C1136 H1126 0.930 . S
C1136 C1134 1.419 . S
C1136 C1137 1.362 . S
C1137 H1127 0.930 . S
C1137 C1130 1.409 . S
C1137 C1136 1.362 . S
C382 C195 1.330 . S
C377 C17 1.372 . S
C398 C185 1.704 . S
C393 C44 1.546 . S
C414 C186 1.027 . S
C409 C63 1.066 . S
C425 C87 1.410 . S
C430 C208 1.394 . S
C441 C110 1.430 . S
C446 C211 1.428 . S
C462 C194 1.056 . S
C457 C131 1.074 . S
C473 C159 1.477 . S
C478 C184 1.605 . S
C489 C177 1.364 . S
C494 C202 1.379 . S
C510 C215 1.482 . S
C505 C20 1.316 . S
C521 C42 1.416 . S
C526 C264 1.401 . S
C542 C242 1.632 . S
C537 C66 1.510 . S
C558 C256 1.018 . S
C553 C86 1.013 . S
C569 C109 0.988 . S
C574 C217 1.006 . S
C590 C270 1.550 . S
C585 C136 1.426 . S
C601 C157 1.445 . S
C606 C226 1.369 . S
C617 C182 1.506 . S
C622 C247 1.523 . S
C633 C18 1.459 . S
C638 C273 1.417 . S
C649 C112 1.361 . S
C654 C257 1.411 . S
C670 C216 1.411 . S
C665 C134 1.441 . S
C686 C248 1.027 . S
C681 C154 1.084 . S
C697 C180 1.351 . S
C702 C239 1.328 . S
C713 C64 1.408 . S
C718 C246 1.329 . S
C734 C233 1.406 . S
C729 C89 1.393 . S
C745 C39 1.152 . S
C750 C225 1.097 . S
C761 C178 1.336 . S
C766 C288 1.368 . S
C777 C113 1.570 . S
C782 C278 1.735 . S
C798 C279 1.071 . S
C793 C132 1.029 . S
C814 C301 1.359 . S
C809 C156 1.401 . S
C825 C41 1.416 . S
C830 C304 1.377 . S
C846 C287 1.057 . S
C841 C62 1.074 . S
C857 C90 1.532 . S
C862 C277 1.636 . S
C873 C16 1.352 . S
C878 C295 1.385 . S
C889 C181 1.393 . S
C894 C308 1.520 . S
C910 C357 1.389 . S
C905 C111 1.415 . S
C921 C135 1.556 . S
C926 C335 1.693 . S
C937 C155 0.982 . S
C942 C349 0.973 . S
C958 C310 0.972 . S
C953 C40 1.007 . S
C969 C67 1.533 . S
C974 C363 1.592 . S
C990 C319 1.430 . S
C985 C88 1.416 . S
C1006 C340 1.550 . S
C1001 C21 1.510 . S
C1022 C366 1.398 . S
C1017 C179 1.462 . S
C1033 C43 1.255 . S
C1038 C350 1.339 . S
C1049 C65 1.442 . S
C1054 C309 1.413 . S
C1070 C341 1.013 . S
C1065 C85 1.078 . S
C1081 C19 1.331 . S
C1086 C332 1.311 . S
C1097 C133 1.418 . S
C1102 C339 1.334 . S
C1118 C326 1.320 . S
C1113 C158 1.287 . S
C1134 C318 1.071 . S
C1129 C108 1.147 . S
