# Generated by pormake.
# Topology pyr, (3,6)-cn, num edge types: 1
# Building blocks:
#     Node 0, Type 0, BuildingBlock: WUSLED_clean_sbu_0, # of connection points: 3
#     Node 1, Type 0, BuildingBlock: WUSLED_clean_sbu_0, # of connection points: 3
#     Node 2, Type 0, BuildingBlock: WUSLED_clean_sbu_0, # of connection points: 3
#     Node 3, Type 0, BuildingBlock: WUSLED_clean_sbu_0, # of connection points: 3
#     Node 4, Type 0, BuildingBlock: WUSLED_clean_sbu_0, # of connection points: 3
#     Node 5, Type 0, BuildingBlock: WUSLED_clean_sbu_0, # of connection points: 3
#     Node 6, Type 0, BuildingBlock: WUSLED_clean_sbu_0, # of connection points: 3
#     Node 7, Type 0, BuildingBlock: WUSLED_clean_sbu_0, # of connection points: 3
#     Node 8, Type 1, BuildingBlock: BETDEL_clean_sbu_0, # of connection points: 6
#     Node 9, Type 1, BuildingBlock: BETDEL_clean_sbu_0, # of connection points: 6
#     Node 10, Type 1, BuildingBlock: BETDEL_clean_sbu_0, # of connection points: 6
#     Node 11, Type 1, BuildingBlock: BETDEL_clean_sbu_0, # of connection points: 6
#     Edge 12, Type (0, 1), BuildingBlock: XIVTED_clean_linker_0, # of connection points: 2
#     Edge 13, Type (0, 1), BuildingBlock: XIVTED_clean_linker_0, # of connection points: 2
#     Edge 14, Type (0, 1), BuildingBlock: XIVTED_clean_linker_0, # of connection points: 2
#     Edge 15, Type (0, 1), BuildingBlock: XIVTED_clean_linker_0, # of connection points: 2
#     Edge 16, Type (0, 1), BuildingBlock: XIVTED_clean_linker_0, # of connection points: 2
#     Edge 17, Type (0, 1), BuildingBlock: XIVTED_clean_linker_0, # of connection points: 2
#     Edge 18, Type (0, 1), BuildingBlock: XIVTED_clean_linker_0, # of connection points: 2
#     Edge 19, Type (0, 1), BuildingBlock: XIVTED_clean_linker_0, # of connection points: 2
#     Edge 20, Type (0, 1), BuildingBlock: XIVTED_clean_linker_0, # of connection points: 2
#     Edge 21, Type (0, 1), BuildingBlock: XIVTED_clean_linker_0, # of connection points: 2
#     Edge 22, Type (0, 1), BuildingBlock: XIVTED_clean_linker_0, # of connection points: 2
#     Edge 23, Type (0, 1), BuildingBlock: XIVTED_clean_linker_0, # of connection points: 2
#     Edge 24, Type (0, 1), BuildingBlock: XIVTED_clean_linker_0, # of connection points: 2
#     Edge 25, Type (0, 1), BuildingBlock: XIVTED_clean_linker_0, # of connection points: 2
#     Edge 26, Type (0, 1), BuildingBlock: XIVTED_clean_linker_0, # of connection points: 2
#     Edge 27, Type (0, 1), BuildingBlock: XIVTED_clean_linker_0, # of connection points: 2
#     Edge 28, Type (0, 1), BuildingBlock: XIVTED_clean_linker_0, # of connection points: 2
#     Edge 29, Type (0, 1), BuildingBlock: XIVTED_clean_linker_0, # of connection points: 2
#     Edge 30, Type (0, 1), BuildingBlock: XIVTED_clean_linker_0, # of connection points: 2
#     Edge 31, Type (0, 1), BuildingBlock: XIVTED_clean_linker_0, # of connection points: 2
#     Edge 32, Type (0, 1), BuildingBlock: XIVTED_clean_linker_0, # of connection points: 2
#     Edge 33, Type (0, 1), BuildingBlock: XIVTED_clean_linker_0, # of connection points: 2
#     Edge 34, Type (0, 1), BuildingBlock: XIVTED_clean_linker_0, # of connection points: 2
#     Edge 35, Type (0, 1), BuildingBlock: XIVTED_clean_linker_0, # of connection points: 2
# Relax obj value: 0.026
# Max RMSD: 0.091
# Mean RMSD: 0.038
data_MOF--net-pyr--node1-WUSLED_clean_sbu_0--node2-BETDEL_clean_sbu_0--edge1-XIVTED_clean_linker_0
_symmetry_space_group_name_H-M    P1
_symmetry_Int_Tables_number       1
_symmetry_cell_setting            triclinic
loop_
_symmetry_equiv_pos_as_xyz
'x, y, z'
_cell_length_a     47.638994
_cell_length_b     49.374221
_cell_length_c     45.592683
_cell_angle_alpha  91.15262
_cell_angle_beta   88.98268
_cell_angle_gamma 95.253653
loop_
_atom_site_label
_atom_site_type_symbol
_atom_site_fract_x
_atom_site_fract_y
_atom_site_fract_z
_atom_type_partial_charge
C0 C 0.19106 0.24561 0.09754 0.0
C1 C 0.16726 0.25371 0.11265 0.0
C2 C 0.15935 0.28504 0.07381 0.0
C3 C 0.15158 0.27327 0.10094 0.0
C4 C 0.18326 0.2768 0.05869 0.0
C5 C 0.199 0.25717 0.0705 0.0
U6 U 0.19823 0.19688 0.15806 0.0
O7 O 0.20937 0.15475 0.1583 0.0
O8 O 0.23502 0.18655 0.18271 0.0
C9 C 0.23247 0.16114 0.17324 0.0
C10 C 0.20731 0.22508 0.11025 0.0
C11 C 0.25807 0.15115 0.16035 0.0
C12 C 0.28859 0.14438 0.11818 0.0
C13 C 0.26498 0.15522 0.13063 0.0
C14 C 0.29916 0.12609 0.16528 0.0
C15 C 0.30578 0.12949 0.13532 0.0
C16 C 0.2754 0.13678 0.17767 0.0
C17 C 0.14155 0.19105 0.21753 0.0
C18 C 0.14755 0.17103 0.26496 0.0
C19 C 0.10113 0.1691 0.24372 0.0
C20 C 0.11254 0.1833 0.21944 0.0
C21 C 0.11856 0.16251 0.26663 0.0
C22 C 0.15897 0.18497 0.24056 0.0
C23 C 0.15349 0.20374 0.19062 0.0
O24 O 0.21903 0.23235 0.13544 0.0
O25 O 0.19443 0.20038 0.11032 0.0
O26 O 0.153 0.18746 0.16745 0.0
O27 O 0.17745 0.21903 0.19334 0.0
H28 H 0.1609 0.24498 0.13363 0.0
H29 H 0.13364 0.2795 0.11343 0.0
H30 H 0.18965 0.28534 0.03765 0.0
H31 H 0.21731 0.25102 0.05856 0.0
H32 H 0.29341 0.14763 0.09514 0.0
H33 H 0.25189 0.16648 0.11701 0.0
H34 H 0.3119 0.11454 0.17895 0.0
H35 H 0.27033 0.1335 0.20066 0.0
H36 H 0.16153 0.16678 0.28242 0.0
H37 H 0.0788 0.16258 0.24407 0.0
H38 H 0.09881 0.18763 0.20177 0.0
H39 H 0.18149 0.19058 0.23953 0.0
C40 C 0.24286 0.84627 0.6181 0.0
C41 C 0.22585 0.85895 0.6387 0.0
C42 C 0.19808 0.87523 0.59934 0.0
C43 C 0.20361 0.87318 0.62942 0.0
C44 C 0.21534 0.86254 0.57884 0.0
C45 C 0.23744 0.84818 0.58816 0.0
U46 U 0.29958 0.83609 0.67323 0.0
O47 O 0.31566 0.79911 0.68988 0.0
O48 O 0.34434 0.82927 0.66686 0.0
C49 C 0.34127 0.80546 0.67947 0.0
C50 C 0.26683 0.83184 0.62743 0.0
C51 C 0.35503 0.78341 0.66463 0.0
C52 C 0.35568 0.74621 0.62894 0.0
C53 C 0.3422 0.76774 0.6417 0.0
C54 C 0.3949 0.75616 0.66175 0.0
C55 C 0.38221 0.74015 0.63888 0.0
C56 C 0.38144 0.77754 0.67444 0.0
C57 C 0.30639 0.8802 0.74192 0.0
C58 C 0.34835 0.88183 0.77166 0.0
C59 C 0.30696 0.90221 0.79001 0.0
C60 C 0.29282 0.89426 0.76417 0.0
C61 C 0.33502 0.89633 0.79397 0.0
C62 C 0.33412 0.87374 0.74594 0.0
C63 C 0.29161 0.87238 0.71459 0.0
O64 O 0.29127 0.84654 0.62767 0.0
O65 O 0.26234 0.81665 0.65072 0.0
O66 O 0.2782 0.84791 0.71414 0.0
O67 O 0.30616 0.87804 0.69037 0.0
H68 H 0.22982 0.8579 0.66196 0.0
H69 H 0.19064 0.88239 0.64587 0.0
H70 H 0.21216 0.8641 0.55551 0.0
H71 H 0.25053 0.83879 0.57192 0.0
H72 H 0.34546 0.73446 0.61118 0.0
H73 H 0.32177 0.77204 0.63384 0.0
H74 H 0.41503 0.75183 0.67033 0.0
H75 H 0.39157 0.78936 0.69223 0.0
H76 H 0.37002 0.87725 0.7737 0.0
H77 H 0.29586 0.91293 0.80689 0.0
H78 H 0.27132 0.89918 0.76152 0.0
H79 H 0.3449 0.86274 0.72902 0.0
C80 C 0.62174 0.36676 0.78805 0.0
C81 C 0.64224 0.37897 0.76871 0.0
C82 C 0.60584 0.3989 0.74128 0.0
C83 C 0.63435 0.39478 0.74552 0.0
C84 C 0.58549 0.38699 0.76103 0.0
C85 C 0.59336 0.37106 0.78406 0.0
U86 U 0.66897 0.34878 0.85129 0.0
O87 O 0.65737 0.33149 0.89442 0.0
O88 O 0.68306 0.30926 0.86351 0.0
C89 C 0.66962 0.30909 0.88894 0.0
C90 C 0.62922 0.34895 0.81198 0.0
C91 C 0.6535 0.28324 0.897 0.0
C92 C 0.61007 0.25319 0.89925 0.0
C93 C 0.62487 0.27762 0.89034 0.0
C94 C 0.65236 0.23968 0.92129 0.0
C95 C 0.6236 0.2339 0.91496 0.0
C96 C 0.66708 0.26405 0.91241 0.0
C97 C 0.73407 0.39828 0.86993 0.0
C98 C 0.76955 0.39039 0.90583 0.0
C99 C 0.77118 0.43374 0.88164 0.0
C100 C 0.74715 0.42453 0.86588 0.0
C101 C 0.7827 0.41686 0.9019 0.0
C102 C 0.74538 0.3812 0.89002 0.0
C103 C 0.70877 0.38939 0.85289 0.0
O104 O 0.65215 0.33631 0.80795 0.0
O105 O 0.62659 0.3587 0.83883 0.0
O106 O 0.68452 0.3898 0.867 0.0
O107 O 0.71024 0.36757 0.83613 0.0
H108 H 0.66433 0.37618 0.77137 0.0
H109 H 0.65062 0.40391 0.73099 0.0
H110 H 0.56333 0.38943 0.75829 0.0
H111 H 0.57717 0.36182 0.79863 0.0
H112 H 0.5879 0.24962 0.89421 0.0
H113 H 0.61394 0.29217 0.8785 0.0
H114 H 0.66367 0.22522 0.93284 0.0
H115 H 0.68919 0.26797 0.91772 0.0
H116 H 0.77768 0.37692 0.92141 0.0
H117 H 0.78095 0.45403 0.87762 0.0
H118 H 0.7388 0.43797 0.85039 0.0
H119 H 0.73549 0.36084 0.8935 0.0
C120 C 0.788 0.62824 0.36287 0.0
C121 C 0.77708 0.64553 0.38415 0.0
C122 C 0.73935 0.61037 0.39625 0.0
C123 C 0.75298 0.63667 0.4007 0.0
C124 C 0.75068 0.59314 0.37503 0.0
C125 C 0.7747 0.602 0.35855 0.0
U126 U 0.85146 0.67885 0.34262 0.0
O127 O 0.8944 0.67059 0.32889 0.0
O128 O 0.86801 0.69091 0.29887 0.0
C129 C 0.89174 0.67979 0.30231 0.0
C130 C 0.81305 0.63706 0.34483 0.0
C131 C 0.90033 0.66204 0.27794 0.0
C132 C 0.89931 0.61788 0.253 0.0
C133 C 0.89021 0.63446 0.27597 0.0
C134 C 0.92836 0.65637 0.23347 0.0
C135 C 0.91859 0.62861 0.23147 0.0
C136 C 0.91934 0.67285 0.25647 0.0
C137 C 0.86435 0.74522 0.38973 0.0
C138 C 0.90102 0.78227 0.38215 0.0
C139 C 0.87039 0.7827 0.42508 0.0
C140 C 0.85623 0.75809 0.41576 0.0
C141 C 0.89314 0.79507 0.40858 0.0
C142 C 0.88679 0.75747 0.37284 0.0
C143 C 0.84906 0.71899 0.3812 0.0
O144 O 0.81089 0.65829 0.32836 0.0
O145 O 0.83742 0.63773 0.35802 0.0
O146 O 0.86201 0.69714 0.38594 0.0
O147 O 0.83604 0.71805 0.35597 0.0
H148 H 0.78709 0.66589 0.38781 0.0
H149 H 0.74474 0.65061 0.41661 0.0
H150 H 0.74113 0.57263 0.3713 0.0
H151 H 0.7829 0.58831 0.34233 0.0
H152 H 0.89107 0.59671 0.25198 0.0
H153 H 0.87539 0.62573 0.29226 0.0
H154 H 0.94347 0.66529 0.21759 0.0
H155 H 0.92744 0.69408 0.25763 0.0
H156 H 0.91854 0.79112 0.36901 0.0
H157 H 0.86335 0.79214 0.44522 0.0
H158 H 0.83888 0.74903 0.42902 0.0
H159 H 0.89339 0.7478 0.35266 0.0
C160 C 0.82839 0.77873 0.92337 0.0
C161 C 0.84942 0.76969 0.90467 0.0
C162 C 0.85908 0.73554 0.93978 0.0
C163 C 0.86456 0.74828 0.91274 0.0
C164 C 0.83806 0.74472 0.95862 0.0
C165 C 0.82275 0.76619 0.9504 0.0
U166 U 0.82674 0.83648 0.87282 0.0
O167 O 0.79256 0.85303 0.84893 0.0
O168 O 0.81871 0.87928 0.87919 0.0
C169 C 0.79632 0.87677 0.86255 0.0
C170 C 0.8136 0.80203 0.91479 0.0
C171 C 0.77083 0.88687 0.87565 0.0
C172 C 0.73946 0.89227 0.91747 0.0
C173 C 0.7632 0.88164 0.905 0.0
C174 C 0.7302 0.91266 0.87109 0.0
C175 C 0.72284 0.90805 0.90069 0.0
C176 C 0.75408 0.9022 0.85871 0.0
C177 C 0.88693 0.84513 0.8172 0.0
C178 C 0.89083 0.88308 0.78401 0.0
C179 C 0.92706 0.85163 0.78382 0.0
C180 C 0.91236 0.83682 0.80594 0.0
C181 C 0.91653 0.87502 0.77275 0.0
C182 C 0.87615 0.86825 0.80608 0.0
C183 C 0.87227 0.83017 0.8412 0.0
O184 O 0.82782 0.82578 0.91938 0.0
O185 O 0.80229 0.79958 0.88865 0.0
O186 O 0.84738 0.81796 0.83485 0.0
O187 O 0.87261 0.84337 0.8665 0.0
H188 H 0.85434 0.77942 0.88387 0.0
H189 H 0.88096 0.74206 0.89801 0.0
H190 H 0.83334 0.73518 0.97953 0.0
H191 H 0.80671 0.7731 0.96516 0.0
H192 H 0.73406 0.88811 0.94022 0.0
H193 H 0.77574 0.86957 0.91833 0.0
H194 H 0.7179 0.92491 0.85772 0.0
H195 H 0.75967 0.90635 0.83599 0.0
H196 H 0.88194 0.90075 0.77562 0.0
H197 H 0.94692 0.84506 0.7758 0.0
H198 H 0.92098 0.81906 0.81446 0.0
H199 H 0.85649 0.87489 0.81462 0.0
C200 C 0.68717 0.19542 0.29435 0.0
C201 C 0.67946 0.21105 0.27101 0.0
C202 C 0.6683 0.17003 0.24136 0.0
C203 C 0.6702 0.19852 0.24474 0.0
C204 C 0.67681 0.15445 0.26459 0.0
C205 C 0.68624 0.16704 0.29084 0.0
U206 U 0.73004 0.2041 0.36523 0.0
O207 O 0.74725 0.24208 0.38701 0.0
O208 O 0.7156 0.21466 0.40974 0.0
C209 C 0.72951 0.23891 0.40936 0.0
C210 C 0.69494 0.20915 0.32238 0.0
C211 C 0.7121 0.26166 0.41483 0.0
C212 C 0.67343 0.28728 0.40074 0.0
C213 C 0.69009 0.26571 0.39581 0.0
C214 C 0.70074 0.30121 0.44368 0.0
C215 C 0.67852 0.3053 0.42474 0.0
C216 C 0.71737 0.27952 0.43876 0.0
C217 C 0.78618 0.15444 0.37987 0.0
C218 C 0.81037 0.14991 0.42578 0.0
C219 C 0.82471 0.12561 0.38215 0.0
C220 C 0.80394 0.13675 0.36621 0.0
C221 C 0.82815 0.13194 0.41217 0.0
C222 C 0.78958 0.16113 0.40973 0.0
C223 C 0.76404 0.16509 0.3625 0.0
O224 O 0.68806 0.19542 0.34626 0.0
O225 O 0.72022 0.2222 0.32325 0.0
O226 O 0.77038 0.18916 0.3511 0.0
O227 O 0.7383 0.16188 0.37357 0.0
H228 H 0.68019 0.233 0.27326 0.0
H229 H 0.66434 0.21119 0.22715 0.0
H230 H 0.67537 0.13246 0.26289 0.0
H231 H 0.69222 0.15457 0.30856 0.0
H232 H 0.6568 0.29004 0.38549 0.0
H233 H 0.68583 0.25219 0.37708 0.0
H234 H 0.70504 0.31454 0.46253 0.0
H235 H 0.73429 0.27668 0.45365 0.0
H236 H 0.81264 0.15543 0.44878 0.0
H237 H 0.83769 0.11156 0.37106 0.0
H238 H 0.80154 0.13129 0.34319 0.0
H239 H 0.77609 0.17486 0.42062 0.0
C240 C 0.29534 0.64251 0.16246 0.0
C241 C 0.29643 0.62359 0.13909 0.0
C242 C 0.24566 0.62298 0.13228 0.0
C243 C 0.27197 0.61405 0.12414 0.0
C244 C 0.24463 0.64226 0.15534 0.0
C245 C 0.26912 0.65182 0.17031 0.0
U246 U 0.36176 0.69015 0.18255 0.0
O247 O 0.37827 0.70227 0.22625 0.0
O248 O 0.4037 0.67969 0.19539 0.0
C249 C 0.40111 0.68951 0.22224 0.0
C250 C 0.32093 0.65054 0.18001 0.0
C251 C 0.40845 0.67204 0.24652 0.0
C252 C 0.41481 0.62769 0.26683 0.0
C253 C 0.40665 0.6435 0.24374 0.0
C254 C 0.42622 0.6686 0.29595 0.0
C255 C 0.42474 0.64005 0.29326 0.0
C256 C 0.41822 0.68435 0.27286 0.0
C257 C 0.37794 0.75592 0.13696 0.0
C258 C 0.42139 0.7859 0.13423 0.0
C259 C 0.3789 0.79943 0.11262 0.0
C260 C 0.36424 0.77511 0.12168 0.0
C261 C 0.40773 0.80517 0.11863 0.0
C262 C 0.40664 0.7615 0.14331 0.0
C263 C 0.3618 0.7301 0.1451 0.0
O264 O 0.34547 0.64943 0.16655 0.0
O265 O 0.32018 0.67196 0.19752 0.0
O266 O 0.3483 0.72998 0.17049 0.0
O267 O 0.37394 0.70762 0.13963 0.0
H268 H 0.31616 0.61572 0.13263 0.0
H269 H 0.27367 0.59948 0.10626 0.0
H270 H 0.22473 0.64934 0.16252 0.0
H271 H 0.26734 0.66605 0.18849 0.0
H272 H 0.41309 0.60577 0.26409 0.0
H273 H 0.39906 0.63342 0.22371 0.0
H274 H 0.43409 0.67889 0.31576 0.0
H275 H 0.41994 0.7063 0.27549 0.0
H276 H 0.44362 0.78946 0.13903 0.0
H277 H 0.3675 0.81389 0.10118 0.0
H278 H 0.34208 0.77122 0.11661 0.0
H279 H 0.41766 0.74693 0.15504 0.0
C280 C 0.1367 0.29008 0.67296 0.0
C281 C 0.12267 0.28975 0.64601 0.0
C282 C 0.11862 0.24005 0.64421 0.0
C283 C 0.11381 0.26508 0.63182 0.0
C284 C 0.13297 0.24046 0.67097 0.0
C285 C 0.14176 0.26511 0.68519 0.0
U286 U 0.18358 0.3571 0.68694 0.0
O287 O 0.1715 0.39798 0.69897 0.0
O288 O 0.1977 0.37681 0.72852 0.0
C289 C 0.18356 0.3981 0.72469 0.0
C290 C 0.1444 0.31599 0.68939 0.0
C291 C 0.16702 0.40772 0.75008 0.0
C292 C 0.14617 0.44529 0.77497 0.0
C293 C 0.15968 0.43459 0.75045 0.0
C294 C 0.14643 0.40219 0.79924 0.0
C295 C 0.13975 0.42942 0.79993 0.0
C296 C 0.15997 0.39145 0.77459 0.0
C297 C 0.24751 0.37326 0.63399 0.0
C298 C 0.28205 0.41278 0.63622 0.0
C299 C 0.28417 0.37978 0.59641 0.0
C300 C 0.26065 0.36455 0.60822 0.0
C301 C 0.29514 0.40419 0.6101 0.0
C302 C 0.25834 0.39746 0.64804 0.0
C303 C 0.22254 0.3566 0.64532 0.0
O304 O 0.16766 0.31729 0.70468 0.0
O305 O 0.14117 0.33874 0.67582 0.0
O306 O 0.1981 0.36636 0.64182 0.0
O307 O 0.22492 0.34569 0.67111 0.0
H308 H 0.11805 0.30853 0.63605 0.0
H309 H 0.10248 0.26565 0.61149 0.0
H310 H 0.13743 0.22168 0.68104 0.0
H311 H 0.15226 0.2646 0.70603 0.0
H312 H 0.14086 0.46613 0.77436 0.0
H313 H 0.16487 0.44756 0.73186 0.0
H314 H 0.14198 0.3894 0.81808 0.0
H315 H 0.16538 0.37063 0.77498 0.0
H316 H 0.28981 0.43154 0.64724 0.0
H317 H 0.29396 0.37219 0.57665 0.0
H318 H 0.25268 0.34586 0.59714 0.0
H319 H 0.24843 0.40451 0.66798 0.0
Dy320 Dy 0.02822 0.02563 0.48817 0.0
C321 C 0.99931 0.98006 0.60276 0.0
C322 C 0.04591 0.05207 0.43848 0.0
Dy323 Dy 1.00532 1.00642 0.551 0.0
O324 O 0.06232 0.04361 0.45809 0.0
O325 O 0.01963 0.04598 0.44586 0.0
O326 O 0.05419 0.99007 0.48656 0.0
O327 O 0.04567 1.00865 0.52727 0.0
C328 C 0.05668 0.98904 0.51483 0.0
C329 C 0.96715 0.03388 0.52351 0.0
O330 O 0.03309 0.04368 0.56349 0.0
O331 O 0.03895 0.06272 0.51708 0.0
O332 O 0.99494 1.00539 0.59916 0.0
O333 O 1.0073 0.96922 0.57812 0.0
O334 O 0.96266 0.02368 0.54942 0.0
O335 O 0.99113 0.0283 0.51491 0.0
O336 O 0.99737 0.99054 0.47507 0.0
O337 O 0.99246 0.97075 0.52122 0.0
C338 C 0.04141 0.06426 0.54612 0.0
C339 C 0.98861 0.96997 0.49237 0.0
Dy340 Dy 0.53572 0.03293 0.04243 0.0
C341 C 0.4539 0.97725 0.95796 0.0
C342 C 0.57182 0.0665 0.0752 0.0
Dy343 Dy 0.49313 1.00704 0.99082 0.0
O344 O 0.57557 0.04144 0.06799 0.0
O345 O 0.54855 0.07331 0.06412 0.0
O346 O 0.52582 0.99834 0.07433 0.0
O347 O 0.50644 0.99783 0.0343 0.0
C348 C 0.50788 0.98451 0.0573 0.0
C349 C 0.52138 0.05536 0.97595 0.0
O350 O 0.46414 0.02327 0.02478 0.0
O351 O 0.49581 0.05193 0.05267 0.0
O352 O 0.45169 1.00176 0.96808 0.0
O353 O 0.47758 0.96868 0.96612 0.0
O354 O 0.50362 0.04151 0.9588 0.0
O355 O 0.52236 0.04212 0.99904 0.0
O356 O 0.56464 0.01571 1.00904 0.0
O357 O 0.53258 0.98681 0.98163 0.0
C358 C 0.46985 0.04287 0.04483 0.0
C359 C 0.55865 0.9957 0.98946 0.0
Dy360 Dy 0.52732 0.49584 0.49632 0.0
C361 C 0.48147 0.58165 0.56204 0.0
C362 C 0.55946 0.45893 0.4698 0.0
Dy363 Dy 0.51017 0.54268 0.53437 0.0
O364 O 0.53214 0.45602 0.4724 0.0
O365 O 0.56905 0.48223 0.48107 0.0
O366 O 0.48232 0.47876 0.493 0.0
O367 O 0.49596 0.49943 0.5317 0.0
C368 C 0.47473 0.48831 0.51843 0.0
C369 C 0.56248 0.54991 0.51078 0.0
O370 O 0.52325 0.51669 0.5705 0.0
O371 O 0.54719 0.48833 0.53987 0.0
O372 O 0.50869 0.58233 0.55937 0.0
O373 O 0.46987 0.5594 0.55004 0.0
O374 O 0.55577 0.5595 0.53643 0.0
O375 O 0.54072 0.53895 0.49858 0.0
O376 O 0.51272 0.52132 0.4603 0.0
O377 O 0.48924 0.54974 0.49141 0.0
C378 C 0.54067 0.49741 0.56654 0.0
C379 C 0.49519 0.54051 0.46464 0.0
Dy380 Dy 0.02389 0.4875 0.02605 0.0
C381 C 0.98215 0.58999 0.99076 0.0
C382 C 0.04932 0.4405 0.02674 0.0
Dy383 Dy 1.00815 0.54516 1.0044 0.0
O384 O 0.02374 0.44314 0.0362 0.0
O385 O 0.06085 0.46348 0.01685 0.0
O386 O 1.00704 0.49107 0.07305 0.0
O387 O 1.00413 0.52164 0.04343 0.0
C388 C 0.9984 0.51505 0.06944 0.0
C389 C 0.0426 0.51846 0.96915 0.0
O390 O 0.0453 0.55834 0.03232 0.0
O391 O 0.06267 0.51574 0.03552 0.0
O392 O 0.98654 0.57009 0.9727 0.0
O393 O 0.99248 0.58571 0.01628 0.0
O394 O 0.04351 0.54485 0.97111 0.0
O395 O 0.02209 0.50801 0.98422 0.0
O396 O 0.98397 0.47515 1.00203 0.0
O397 O 0.96762 0.51819 0.99971 0.0
C398 C 0.06526 0.54264 0.03947 0.0
C399 C 0.9639 0.49126 0.99651 0.0
H400 H 0.06721 0.16446 0.29503 0.0
H401 H 0.0996 0.05916 0.41734 0.0
H402 H 0.14297 0.12259 0.29522 0.0
H403 H 0.01529 0.07954 0.4006 0.0
H404 H 0.11683 0.08563 0.37498 0.0
H405 H 0.04852 0.13656 0.33593 0.0
C406 C 0.07988 0.14935 0.30351 0.0
C407 C 0.10681 0.14602 0.29167 0.0
C408 C 0.09453 0.08423 0.38044 0.0
C409 C 0.08568 0.11438 0.33874 0.0
C410 C 0.08471 0.06918 0.40463 0.0
C411 C 0.05602 0.06721 0.41233 0.0
C412 C 0.07556 0.0977 0.36407 0.0
C413 C 0.03759 0.08055 0.39522 0.0
C414 C 0.06921 0.13351 0.32692 0.0
C415 C 0.12239 0.12637 0.30395 0.0
N416 N 0.04771 0.09543 0.37191 0.0
N417 N 0.11164 0.11141 0.32685 0.0
H418 H 0.37338 0.87025 0.82501 0.0
H419 H 0.40524 0.99465 0.93848 0.0
H420 H 0.33255 0.94479 0.82403 0.0
H421 H 0.45707 0.92761 0.93051 0.0
H422 H 0.37436 0.97334 0.90083 0.0
H423 H 0.40067 0.88803 0.86727 0.0
C424 C 0.37012 0.89034 0.83362 0.0
C425 C 0.35065 0.90607 0.82074 0.0
C426 C 0.39237 0.96316 0.90738 0.0
C427 C 0.38157 0.92633 0.86945 0.0
C428 C 0.40996 0.97528 0.92896 0.0
C429 C 0.4338 0.96292 0.93744 0.0
C430 C 0.39864 0.93846 0.89414 0.0
C431 C 0.4389 0.93781 0.92447 0.0
C432 C 0.38562 0.9004 0.85786 0.0
C433 C 0.34698 0.93173 0.83333 0.0
N434 N 0.42153 0.92643 0.9033 0.0
N435 N 0.36233 0.94105 0.85686 0.0
H436 H 0.56607 0.43599 0.74068 0.0
H437 H 0.57993 0.46008 0.5674 0.0
H438 H 0.62577 0.39863 0.68428 0.0
H439 H 0.5269 0.50451 0.62497 0.0
H440 H 0.59669 0.43729 0.6099 0.0
H441 H 0.55109 0.46091 0.69869 0.0
C442 C 0.57602 0.43296 0.71947 0.0
C443 C 0.59721 0.41506 0.7161 0.0
C444 C 0.58147 0.4521 0.61329 0.0
C445 C 0.58016 0.44373 0.66777 0.0
C446 C 0.57183 0.46515 0.58897 0.0
C447 C 0.55188 0.48429 0.59248 0.0
C448 C 0.57101 0.45801 0.64149 0.0
C449 C 0.54229 0.48996 0.6211 0.0
C450 C 0.56754 0.44734 0.6955 0.0
C451 C 0.60958 0.41236 0.68808 0.0
N452 N 0.55183 0.47681 0.64443 0.0
N453 N 0.60079 0.42639 0.66505 0.0
H454 H 0.93284 0.57598 0.2344 0.0
H455 H 0.97827 0.56499 0.06447 0.0
H456 H 0.92802 0.64094 0.17328 0.0
H457 H 0.98871 0.50267 0.127 0.0
H458 H 0.95793 0.5924 0.10339 0.0
H459 H 0.95099 0.54797 0.19483 0.0
C460 C 0.93536 0.58431 0.21263 0.0
C461 C 0.92888 0.61096 0.2073 0.0
C462 C 0.96467 0.57274 0.10865 0.0
C463 C 0.95004 0.57895 0.16175 0.0
C464 C 0.97635 0.55714 0.08639 0.0
C465 C 0.98541 0.53167 0.0925 0.0
C466 C 0.9619 0.56272 0.13732 0.0
C467 C 0.98208 0.52227 0.12132 0.0
C468 C 0.94593 0.56834 0.19004 0.0
C469 C 0.93305 0.6207 0.17861 0.0
N470 N 0.97065 0.53777 0.14263 0.0
N471 N 0.94334 0.60474 0.15699 0.0
H472 H 0.30745 0.10128 0.08326 0.0
H473 H 0.47084 0.07787 0.09241 0.0
H474 H 0.35917 0.12883 0.15667 0.0
H475 H 0.41424 0.03655 0.0296 0.0
H476 H 0.43106 0.09907 0.11467 0.0
H477 H 0.34741 0.08009 0.0614 0.0
C478 C 0.3273 0.10301 0.09468 0.0
C479 C 0.33004 0.11688 0.12178 0.0
C480 C 0.42737 0.0853 0.09607 0.0
C481 C 0.3758 0.09251 0.09702 0.0
C482 C 0.45008 0.07321 0.08329 0.0
C483 C 0.44591 0.05537 0.05906 0.0
C484 C 0.40034 0.07971 0.08439 0.0
C485 C 0.41849 0.05008 0.04828 0.0
C486 C 0.35004 0.09075 0.0823 0.0
C487 C 0.35611 0.11814 0.13585 0.0
N488 N 0.39679 0.06228 0.06095 0.0
N489 N 0.37804 0.10618 0.12325 0.0
H490 H 0.18012 0.9228 0.6226 0.0
H491 H 0.07655 0.94353 0.49128 0.0
H492 H 0.16256 0.86334 0.55302 0.0
H493 H 0.07662 0.99186 0.57112 0.0
H494 H 0.1087 0.91437 0.51349 0.0
H495 H 0.14297 0.94877 0.60434 0.0
C496 C 0.16832 0.915 0.60368 0.0
C497 C 0.17474 0.89082 0.58927 0.0
C498 C 0.10157 0.93121 0.5263 0.0
C499 C 0.13241 0.92084 0.56796 0.0
C500 C 0.08324 0.94788 0.5136 0.0
C501 C 0.07411 0.9702 0.52934 0.0
C502 C 0.11118 0.93707 0.55487 0.0
C503 C 0.08327 0.97486 0.55824 0.0
C504 C 0.14716 0.92994 0.59321 0.0
C505 C 0.1589 0.88209 0.56455 0.0
N506 N 0.10158 0.95858 0.57001 0.0
N507 N 0.13867 0.89715 0.55462 0.0
H508 H 0.7955 0.46763 0.92635 0.0
H509 H 0.94844 0.43769 0.98145 0.0
H510 H 0.82845 0.3894 0.91576 0.0
H511 H 0.91651 0.51678 0.98547 0.0
H512 H 0.90372 0.41868 0.96055 0.0
H513 H 0.83866 0.48494 0.95103 0.0
C514 C 0.81184 0.45406 0.92913 0.0
C515 C 0.80834 0.42703 0.91862 0.0
C516 C 0.90649 0.44017 0.96612 0.0
C517 C 0.858 0.44679 0.94731 0.0
C518 C 0.93204 0.45107 0.97812 0.0
C519 C 0.93642 0.47896 0.98519 0.0
C520 C 0.88507 0.45725 0.96118 0.0
C521 C 0.91428 0.49521 0.98031 0.0
C522 C 0.83648 0.46396 0.94339 0.0
C523 C 0.83008 0.41031 0.92358 0.0
N524 N 0.88969 0.48414 0.96859 0.0
N525 N 0.85402 0.42049 0.93741 0.0
H526 H 0.69223 0.57936 0.37681 0.0
H527 H 0.60961 0.57948 0.53174 0.0
H528 H 0.72686 0.61979 0.45469 0.0
H529 H 0.57671 0.53762 0.45402 0.0
H530 H 0.65305 0.59381 0.50439 0.0
H531 H 0.65018 0.56344 0.40507 0.0
C532 C 0.69113 0.58478 0.39991 0.0
C533 C 0.71333 0.60092 0.41333 0.0
C534 C 0.63638 0.58142 0.49333 0.0
C535 C 0.66476 0.5829 0.44591 0.0
C536 C 0.6116 0.57319 0.50896 0.0
C537 C 0.5895 0.55741 0.4951 0.0
C538 C 0.63909 0.57383 0.46359 0.0
C539 C 0.59321 0.54982 0.46555 0.0
C540 C 0.66697 0.57576 0.41603 0.0
C541 C 0.71025 0.60767 0.44326 0.0
N542 N 0.61744 0.55816 0.45079 0.0
N543 N 0.68648 0.59862 0.45851 0.0
H544 H 0.17904 0.3322 0.04643 0.0
H545 H 0.02838 0.39119 0.04764 0.0
H546 H 0.10196 0.2864 0.07426 0.0
H547 H 0.10382 0.43382 1.0115 0.0
H548 H 0.05453 0.35155 0.05514 0.0
H549 H 0.15153 0.36854 0.03072 0.0
C550 C 0.15631 0.32961 0.04889 0.0
C551 C 0.14282 0.3063 0.06194 0.0
C552 C 0.06534 0.36948 0.04534 0.0
C553 C 0.11122 0.34802 0.04441 0.0
C554 C 0.05041 0.39207 0.04107 0.0
C555 C 0.06407 0.41576 0.02913 0.0
C556 C 0.09416 0.37072 0.03778 0.0
C557 C 0.09258 0.41592 0.02091 0.0
C558 C 0.14061 0.35045 0.04007 0.0
C559 C 0.11331 0.30424 0.06487 0.0
N560 N 0.10676 0.3938 0.0256 0.0
N561 N 0.09853 0.3249 0.05639 0.0
H562 H 0.58324 0.20139 0.88511 0.0
H563 H 0.56192 0.08628 1.00783 0.0
H564 H 0.62832 0.20656 0.96662 0.0
H565 H 0.51629 0.08438 0.92692 0.0
H566 H 0.58673 0.13019 0.99379 0.0
H567 H 0.55846 0.15855 0.90071 0.0
C568 C 0.58782 0.19368 0.9064 0.0
C569 C 0.60798 0.20779 0.92451 0.0
C570 C 0.57124 0.12016 0.97915 0.0
C571 C 0.57977 0.15818 0.94248 0.0
C572 C 0.55707 0.09515 0.98722 0.0
C573 C 0.53695 0.08177 0.96858 0.0
C574 C 0.56523 0.13174 0.95224 0.0
C575 C 0.53163 0.09401 0.94198 0.0
C576 C 0.57376 0.16903 0.91525 0.0
C577 C 0.61327 0.19631 0.95168 0.0
N578 N 0.54562 0.1182 0.93464 0.0
N579 N 0.5993 0.17224 0.95982 0.0
H580 H 0.91353 0.84022 0.37716 0.0
H581 H 0.96856 0.92377 0.52086 0.0
H582 H 0.90822 0.80894 0.46497 0.0
H583 H 0.97664 0.95753 0.43414 0.0
H584 H 0.9465 0.8817 0.49989 0.0
H585 H 0.9372 0.88299 0.39656 0.0
C586 C 0.91748 0.84224 0.40046 0.0
C587 C 0.90861 0.82092 0.41946 0.0
C588 C 0.95304 0.89824 0.48534 0.0
C589 C 0.93549 0.86992 0.44183 0.0
C590 C 0.96568 0.92244 0.49735 0.0
C591 C 0.97456 0.94445 0.47931 0.0
C592 C 0.94907 0.89571 0.45493 0.0
C593 C 0.97015 0.94119 0.44896 0.0
C594 C 0.93085 0.86673 0.41153 0.0
C595 C 0.91413 0.82488 0.44949 0.0
N596 N 0.95772 0.91729 0.43772 0.0
N597 N 0.9271 0.84879 0.45966 0.0
H598 H 0.43848 0.73844 0.62615 0.0
H599 H 0.42441 0.58355 0.56824 0.0
H600 H 0.35892 0.68916 0.62229 0.0
H601 H 0.50373 0.63078 0.58323 0.0
H602 H 0.39961 0.62219 0.58619 0.0
H603 H 0.46231 0.69963 0.60812 0.0
C604 C 0.42599 0.71942 0.62159 0.0
C605 C 0.39662 0.71706 0.62601 0.0
C606 C 0.42243 0.62406 0.58565 0.0
C607 C 0.42389 0.67241 0.60501 0.0
C608 C 0.43657 0.60201 0.57548 0.0
C609 C 0.46613 0.60403 0.57433 0.0
C610 C 0.43801 0.6483 0.59455 0.0
C611 C 0.48091 0.62838 0.58383 0.0
C612 C 0.43964 0.69725 0.61119 0.0
C613 C 0.38154 0.69202 0.61903 0.0
N614 N 0.46671 0.64958 0.59344 0.0
N615 N 0.39535 0.67065 0.60897 0.0
H616 H 0.92522 0.93041 0.76878 0.0
H617 H 1.00284 0.92605 0.61192 0.0
H618 H 0.94375 0.8561 0.72402 0.0
H619 H 0.97985 0.99971 0.65475 0.0
H620 H 0.98603 0.90041 0.65517 0.0
H621 H 0.94925 0.95643 0.72928 0.0
C622 C 0.93431 0.91956 0.7506 0.0
C623 C 0.93224 0.89102 0.74957 0.0
C624 C 0.98489 0.92221 0.65523 0.0
C625 C 0.96007 0.9207 0.70439 0.0
C626 C 0.99456 0.93684 0.6306 0.0
C627 C 0.9925 0.96494 0.6298 0.0
C628 C 0.97306 0.93585 0.67911 0.0
C629 C 0.98165 0.978 0.65451 0.0
C630 C 0.94819 0.93443 0.72815 0.0
C631 C 0.94497 0.87806 0.7258 0.0
N632 N 0.97213 0.96331 0.6781 0.0
N633 N 0.95819 0.893 0.70405 0.0
H634 H 0.62394 0.18432 0.20935 0.0
H635 H 0.61955 0.05396 0.10223 0.0
H636 H 0.68497 0.12493 0.21161 0.0
H637 H 0.56369 0.11747 0.09571 0.0
H638 H 0.64543 0.08062 0.1406 0.0
H639 H 0.60321 0.16119 0.16616 0.0
C640 C 0.63325 0.1666 0.20058 0.0
C641 C 0.6563 0.15661 0.21425 0.0
C642 C 0.62767 0.08885 0.13061 0.0
C643 C 0.63218 0.12961 0.16489 0.0
C644 C 0.61295 0.07367 0.10868 0.0
C645 C 0.58941 0.08352 0.09596 0.0
C646 C 0.61865 0.11398 0.13994 0.0
C647 C 0.5817 0.10913 0.10506 0.0
C648 C 0.62125 0.15328 0.17596 0.0
C649 C 0.66698 0.13318 0.20212 0.0
N650 N 0.59614 0.12338 0.12665 0.0
N651 N 0.65477 0.12042 0.17823 0.0
H652 H 0.45509 0.59505 0.29058 0.0
H653 H 0.45869 0.58029 0.46543 0.0
H654 H 0.41498 0.64712 0.35238 0.0
H655 H 0.50403 0.53067 0.40544 0.0
H656 H 0.44051 0.60301 0.42383 0.0
H657 H 0.47097 0.56936 0.33168 0.0
C658 C 0.44941 0.60098 0.31274 0.0
C659 C 0.43374 0.62344 0.31792 0.0
C660 C 0.45438 0.58712 0.41967 0.0
C661 C 0.45208 0.59414 0.36519 0.0
C662 C 0.46481 0.57404 0.4435 0.0
C663 C 0.48308 0.55349 0.43908 0.0
C664 C 0.46217 0.57973 0.39095 0.0
C665 C 0.49006 0.54638 0.41 0.0
C666 C 0.45865 0.58637 0.33622 0.0
C667 C 0.42735 0.63027 0.34722 0.0
N668 N 0.47967 0.55951 0.38708 0.0
N669 N 0.43654 0.61575 0.36962 0.0
H670 H 0.15161 0.48066 0.82349 0.0
H671 H 0.03655 0.46399 0.95422 0.0
H672 H 0.0988 0.40615 0.83779 0.0
H673 H 0.08521 0.5393 0.93336 0.0
H674 H 0.06137 0.44112 0.91446 0.0
H675 H 0.12953 0.50118 0.86598 0.0
C676 C 0.13524 0.4686 0.83544 0.0
C677 C 0.12689 0.44165 0.82667 0.0
C678 C 0.06669 0.46261 0.91869 0.0
C679 C 0.10162 0.46512 0.87603 0.0
C680 C 0.0526 0.47565 0.94142 0.0
C681 C 0.05874 0.50362 0.94697 0.0
C682 C 0.08711 0.47768 0.90146 0.0
C683 C 0.07972 0.51774 0.92976 0.0
C684 C 0.12273 0.48033 0.85991 0.0
C685 C 0.10605 0.42693 0.8437 0.0
N686 N 0.09303 0.50467 0.90778 0.0
N687 N 0.09405 0.43888 0.86745 0.0
H688 H 0.72018 0.93436 0.9538 0.0
H689 H 0.55765 0.96045 0.94205 0.0
H690 H 0.66999 0.90979 0.87834 0.0
H691 H 0.61394 1.00081 1.00577 0.0
H692 H 0.59734 0.93855 0.92045 0.0
H693 H 0.68001 0.95536 0.9755 0.0
C694 C 0.70061 0.93323 0.9419 0.0
C695 C 0.69838 0.92031 0.91425 0.0
C696 C 0.60096 0.95226 0.93911 0.0
C697 C 0.65239 0.94445 0.93883 0.0
C698 C 0.57832 0.96473 0.95152 0.0
C699 C 0.58244 0.98255 0.97577 0.0
C700 C 0.62786 0.95743 0.95121 0.0
C701 C 0.60973 0.98734 0.98703 0.0
C702 C 0.67777 0.94538 0.95419 0.0
C703 C 0.67265 0.91977 0.8996 0.0
N704 N 0.63135 0.97477 0.97473 0.0
N705 N 0.65061 0.93161 0.91211 0.0
H706 H 0.88219 0.12308 0.39509 0.0
H707 H 0.91472 0.0452 0.54151 0.0
H708 H 0.82347 0.11172 0.46793 0.0
H709 H 0.97403 0.05743 0.46958 0.0
H710 H 0.88138 0.07027 0.51523 0.0
H711 H 0.91644 0.09992 0.42224 0.0
C712 C 0.87646 0.11569 0.41679 0.0
C713 C 0.84979 0.11928 0.42916 0.0
C714 C 0.90169 0.06752 0.50513 0.0
C715 C 0.88909 0.09282 0.46051 0.0
C716 C 0.92073 0.05318 0.52012 0.0
C717 C 0.94714 0.04915 0.50757 0.0
C718 C 0.9091 0.07792 0.47731 0.0
C719 C 0.95386 0.05996 0.47989 0.0
C720 C 0.8961 0.10256 0.43234 0.0
C721 C 0.84381 0.10968 0.45759 0.0
N722 N 0.93496 0.07382 0.46563 0.0
N723 N 0.86323 0.0968 0.47221 0.0
H724 H 0.23142 0.57012 0.1146 0.0
H725 H 0.07936 0.59662 0.05407 0.0
H726 H 0.19953 0.6492 0.11672 0.0
H727 H 0.11197 0.51786 0.05468 0.0
H728 H 0.12325 0.61666 0.07597 0.0
H729 H 0.18811 0.55117 0.09135 0.0
C730 C 0.21544 0.5836 0.10995 0.0
C731 C 0.21932 0.61139 0.1176 0.0
C732 C 0.12077 0.595 0.07127 0.0
C733 C 0.16915 0.58958 0.0912 0.0
C734 C 0.09569 0.58351 0.05873 0.0
C735 C 0.09181 0.55543 0.05248 0.0
C736 C 0.14221 0.57834 0.07759 0.0
C737 C 0.11383 0.53956 0.05909 0.0
C738 C 0.19055 0.57269 0.09682 0.0
C739 C 0.19744 0.62763 0.11151 0.0
N740 N 0.13797 0.55121 0.07124 0.0
N741 N 0.17334 0.61651 0.09867 0.0
H742 H 0.30637 0.41411 0.55193 0.0
H743 H 0.45901 0.49357 0.57651 0.0
H744 H 0.34089 0.43128 0.63789 0.0
H745 H 0.42773 0.46393 0.49255 0.0
H746 H 0.4141 0.47596 0.5995 0.0
H747 H 0.34877 0.43726 0.53004 0.0
C748 C 0.32289 0.4227 0.56626 0.0
C749 C 0.3201 0.42032 0.59686 0.0
C750 C 0.41704 0.47346 0.57603 0.0
C751 C 0.36894 0.44732 0.57175 0.0
C752 C 0.44261 0.48357 0.5629 0.0
C753 C 0.44714 0.48001 0.53261 0.0
C754 C 0.39582 0.4599 0.55867 0.0
C755 C 0.4252 0.46695 0.516 0.0
C756 C 0.34711 0.43607 0.55371 0.0
C757 C 0.34202 0.43262 0.61423 0.0
N758 N 0.4006 0.45733 0.52923 0.0
N759 N 0.36558 0.44542 0.60144 0.0
H760 H 0.87371 0.69303 0.90536 0.0
H761 H 0.96688 0.63087 0.02745 0.0
H762 H 0.88252 0.72696 0.99304 0.0
H763 H 0.95862 0.5997 0.93866 0.0
H764 H 0.93596 0.66619 0.01591 0.0
H765 H 0.90416 0.65812 0.91795 0.0
C766 C 0.88208 0.69312 0.9273 0.0
C767 C 0.87574 0.71305 0.94812 0.0
C768 C 0.94101 0.65167 0.99894 0.0
C769 C 0.91063 0.673 0.96279 0.0
C770 C 0.95871 0.63163 1.00549 0.0
C771 C 0.96528 0.61247 0.98392 0.0
C772 C 0.92985 0.65242 0.97067 0.0
C773 C 0.95409 0.61415 0.95589 0.0
C774 C 0.89944 0.67314 0.93451 0.0
C775 C 0.88674 0.71187 0.97639 0.0
N776 N 0.93688 0.63373 0.95009 0.0
N777 N 0.9038 0.69224 0.98287 0.0
H778 H 0.44828 0.83781 0.14807 0.0
H779 H 0.46826 0.95278 0.02505 0.0
H780 H 0.4026 0.83233 0.06693 0.0
H781 H 0.51319 0.95574 0.10646 0.0
H782 H 0.44403 0.90858 0.03912 0.0
H783 H 0.47269 0.88076 0.13228 0.0
C784 C 0.4435 0.84547 0.12682 0.0
C785 C 0.42325 0.83126 0.10889 0.0
C786 C 0.45923 0.91893 0.05386 0.0
C787 C 0.45104 0.88099 0.09069 0.0
C788 C 0.47304 0.9441 0.0458 0.0
C789 C 0.49276 0.95788 0.0646 0.0
C790 C 0.46524 0.90756 0.08089 0.0
C791 C 0.49813 0.94582 0.09129 0.0
C792 C 0.45735 0.87019 0.11786 0.0
C793 C 0.41772 0.84266 0.08174 0.0
N794 N 0.4845 0.92146 0.0986 0.0
N795 N 0.43149 0.8668 0.0735 0.0
H796 H 0.09576 0.19311 0.67023 0.0
H797 H 0.06304 0.11126 0.51908 0.0
H798 H 0.11696 0.22668 0.58512 0.0
H799 H 0.04805 0.07655 0.60475 0.0
H800 H 0.08244 0.15375 0.54255 0.0
H801 H 0.0781 0.15041 0.64639 0.0
C802 C 0.09697 0.1915 0.64653 0.0
C803 C 0.10803 0.21369 0.62976 0.0
C804 C 0.07495 0.13681 0.5562 0.0
C805 C 0.08725 0.16464 0.60213 0.0
C806 C 0.06384 0.11249 0.5428 0.0
C807 C 0.05381 0.09015 0.55989 0.0
C808 C 0.07602 0.13896 0.58696 0.0
C809 C 0.05548 0.09311 0.59057 0.0
C810 C 0.08667 0.16708 0.63289 0.0
C811 C 0.10836 0.21035 0.59903 0.0
N812 N 0.06628 0.11699 0.60305 0.0
N813 N 0.09813 0.18636 0.58625 0.0
H814 H 0.62118 0.30492 0.41942 0.0
H815 H 0.61686 0.46164 0.46718 0.0
H816 H 0.6951 0.35796 0.44176 0.0
H817 H 0.5425 0.40755 0.44974 0.0
H818 H 0.6461 0.42469 0.45472 0.0
H819 H 0.59228 0.34286 0.42757 0.0
C820 C 0.63138 0.32459 0.42588 0.0
C821 C 0.66066 0.32821 0.42991 0.0
C822 C 0.6234 0.42091 0.45343 0.0
C823 C 0.62758 0.3718 0.43949 0.0
C824 C 0.60671 0.44203 0.46043 0.0
C825 C 0.57725 0.43758 0.45951 0.0
C826 C 0.61052 0.39512 0.44548 0.0
C827 C 0.56516 0.4118 0.45071 0.0
C828 C 0.61482 0.34623 0.43066 0.0
C829 C 0.67259 0.3541 0.43874 0.0
N830 N 0.58185 0.3915 0.44415 0.0
N831 N 0.65603 0.37487 0.44321 0.0
loop_
_geom_bond_atom_site_label_1
_geom_bond_atom_site_label_2
_geom_bond_distance
_geom_bond_site_symmetry_2
_ccdc_geom_bond_type
C0 C1 1.264 . S
C0 C5 1.479 . S
C0 C10 1.465 . S
C1 C0 1.264 . S
C1 C3 1.339 . S
C1 H28 0.931 . S
C2 C3 1.395 . S
C2 C4 1.320 . S
C3 C1 1.339 . S
C3 C2 1.395 . S
C3 H29 0.929 . S
C4 C2 1.320 . S
C4 C5 1.405 . S
C4 H30 0.930 . S
C5 C0 1.479 . S
C5 C4 1.405 . S
C5 H31 0.931 . S
U6 O7 2.454 . S
U6 O8 2.458 . S
U6 C9 2.984 . S
U6 C10 2.847 . S
U6 C23 2.882 . S
U6 O24 2.441 . S
U6 O25 2.420 . S
U6 O26 2.455 . S
U6 O27 2.449 . S
O7 U6 2.454 . S
O7 C9 1.353 . S
O8 U6 2.458 . S
O8 C9 1.286 . S
C9 U6 2.984 . S
C9 O7 1.353 . S
C9 O8 1.286 . S
C9 C11 1.363 . S
C10 C0 1.465 . S
C10 U6 2.847 . S
C10 O24 1.249 . S
C10 O25 1.202 . S
C11 C9 1.363 . S
C11 C13 1.408 . S
C11 C16 1.342 . S
C12 C13 1.310 . S
C12 C15 1.461 . S
C12 H32 0.932 . S
C13 C11 1.408 . S
C13 C12 1.310 . S
C13 H33 0.930 . S
C14 C15 1.474 . S
C14 C16 1.285 . S
C14 H34 0.929 . S
C15 C12 1.461 . S
C15 C14 1.474 . S
C16 C11 1.342 . S
C16 C14 1.285 . S
C16 H35 0.930 . S
C17 C20 1.424 . S
C17 C22 1.245 . S
C17 C23 1.428 . S
C18 C21 1.260 . S
C18 C22 1.477 . S
C18 H36 0.932 . S
C19 C20 1.384 . S
C19 C21 1.479 . S
C19 H37 0.929 . S
C20 C17 1.424 . S
C20 C19 1.384 . S
C20 H38 0.928 . S
C21 C18 1.260 . S
C21 C19 1.479 . S
C22 C17 1.245 . S
C22 C18 1.477 . S
C22 H39 0.932 . S
C23 U6 2.882 . S
C23 C17 1.428 . S
C23 O26 1.301 . S
C23 O27 1.282 . S
O24 U6 2.441 . S
O24 C10 1.249 . S
O25 U6 2.420 . S
O25 C10 1.202 . S
O26 U6 2.455 . S
O26 C23 1.301 . S
O27 U6 2.449 . S
O27 C23 1.282 . S
H28 C1 0.931 . S
H29 C3 0.929 . S
H30 C4 0.930 . S
H31 C5 0.931 . S
H32 C12 0.932 . S
H33 C13 0.930 . S
H34 C14 0.929 . S
H35 C16 0.930 . S
H36 C18 0.932 . S
H37 C19 0.929 . S
H38 C20 0.928 . S
H39 C22 0.932 . S
C40 C41 1.264 . S
C40 C45 1.479 . S
C40 C50 1.465 . S
C41 C40 1.264 . S
C41 C43 1.339 . S
C41 H68 0.931 . S
C42 C43 1.395 . S
C42 C44 1.320 . S
C43 C41 1.339 . S
C43 C42 1.395 . S
C43 H69 0.929 . S
C44 C42 1.320 . S
C44 C45 1.405 . S
C44 H70 0.930 . S
C45 C40 1.479 . S
C45 C44 1.405 . S
C45 H71 0.931 . S
U46 O47 2.454 . S
U46 O48 2.458 . S
U46 C49 2.984 . S
U46 C50 2.847 . S
U46 C63 2.882 . S
U46 O64 2.441 . S
U46 O65 2.420 . S
U46 O66 2.455 . S
U46 O67 2.449 . S
O47 U46 2.454 . S
O47 C49 1.353 . S
O48 U46 2.458 . S
O48 C49 1.286 . S
C49 U46 2.984 . S
C49 O47 1.353 . S
C49 O48 1.286 . S
C49 C51 1.363 . S
C50 C40 1.465 . S
C50 U46 2.847 . S
C50 O64 1.249 . S
C50 O65 1.202 . S
C51 C49 1.363 . S
C51 C53 1.408 . S
C51 C56 1.342 . S
C52 C53 1.310 . S
C52 C55 1.461 . S
C52 H72 0.932 . S
C53 C51 1.408 . S
C53 C52 1.310 . S
C53 H73 0.930 . S
C54 C55 1.474 . S
C54 C56 1.285 . S
C54 H74 0.929 . S
C55 C52 1.461 . S
C55 C54 1.474 . S
C56 C51 1.342 . S
C56 C54 1.285 . S
C56 H75 0.930 . S
C57 C60 1.424 . S
C57 C62 1.245 . S
C57 C63 1.428 . S
C58 C61 1.260 . S
C58 C62 1.477 . S
C58 H76 0.932 . S
C59 C60 1.384 . S
C59 C61 1.479 . S
C59 H77 0.929 . S
C60 C57 1.424 . S
C60 C59 1.384 . S
C60 H78 0.928 . S
C61 C58 1.260 . S
C61 C59 1.479 . S
C62 C57 1.245 . S
C62 C58 1.477 . S
C62 H79 0.932 . S
C63 U46 2.882 . S
C63 C57 1.428 . S
C63 O66 1.301 . S
C63 O67 1.282 . S
O64 U46 2.441 . S
O64 C50 1.249 . S
O65 U46 2.420 . S
O65 C50 1.202 . S
O66 U46 2.455 . S
O66 C63 1.301 . S
O67 U46 2.449 . S
O67 C63 1.282 . S
H68 C41 0.931 . S
H69 C43 0.929 . S
H70 C44 0.930 . S
H71 C45 0.931 . S
H72 C52 0.932 . S
H73 C53 0.930 . S
H74 C54 0.929 . S
H75 C56 0.930 . S
H76 C58 0.932 . S
H77 C59 0.929 . S
H78 C60 0.928 . S
H79 C62 0.932 . S
C80 C81 1.264 . S
C80 C85 1.479 . S
C80 C90 1.465 . S
C81 C80 1.264 . S
C81 C83 1.339 . S
C81 H108 0.931 . S
C82 C83 1.395 . S
C82 C84 1.320 . S
C83 C81 1.339 . S
C83 C82 1.395 . S
C83 H109 0.929 . S
C84 C82 1.320 . S
C84 C85 1.405 . S
C84 H110 0.930 . S
C85 C80 1.479 . S
C85 C84 1.405 . S
C85 H111 0.931 . S
U86 O87 2.454 . S
U86 O88 2.458 . S
U86 C89 2.984 . S
U86 C90 2.847 . S
U86 C103 2.882 . S
U86 O104 2.441 . S
U86 O105 2.420 . S
U86 O106 2.455 . S
U86 O107 2.449 . S
O87 U86 2.454 . S
O87 C89 1.353 . S
O88 U86 2.458 . S
O88 C89 1.286 . S
C89 U86 2.984 . S
C89 O87 1.353 . S
C89 O88 1.286 . S
C89 C91 1.363 . S
C90 C80 1.465 . S
C90 U86 2.847 . S
C90 O104 1.249 . S
C90 O105 1.202 . S
C91 C89 1.363 . S
C91 C93 1.408 . S
C91 C96 1.342 . S
C92 C93 1.310 . S
C92 C95 1.461 . S
C92 H112 0.932 . S
C93 C91 1.408 . S
C93 C92 1.310 . S
C93 H113 0.930 . S
C94 C95 1.474 . S
C94 C96 1.285 . S
C94 H114 0.929 . S
C95 C92 1.461 . S
C95 C94 1.474 . S
C96 C91 1.342 . S
C96 C94 1.285 . S
C96 H115 0.930 . S
C97 C100 1.424 . S
C97 C102 1.245 . S
C97 C103 1.428 . S
C98 C101 1.260 . S
C98 C102 1.477 . S
C98 H116 0.932 . S
C99 C100 1.384 . S
C99 C101 1.479 . S
C99 H117 0.929 . S
C100 C97 1.424 . S
C100 C99 1.384 . S
C100 H118 0.928 . S
C101 C98 1.260 . S
C101 C99 1.479 . S
C102 C97 1.245 . S
C102 C98 1.477 . S
C102 H119 0.932 . S
C103 U86 2.882 . S
C103 C97 1.428 . S
C103 O106 1.301 . S
C103 O107 1.282 . S
O104 U86 2.441 . S
O104 C90 1.249 . S
O105 U86 2.420 . S
O105 C90 1.202 . S
O106 U86 2.455 . S
O106 C103 1.301 . S
O107 U86 2.449 . S
O107 C103 1.282 . S
H108 C81 0.931 . S
H109 C83 0.929 . S
H110 C84 0.930 . S
H111 C85 0.931 . S
H112 C92 0.932 . S
H113 C93 0.930 . S
H114 C94 0.929 . S
H115 C96 0.930 . S
H116 C98 0.932 . S
H117 C99 0.929 . S
H118 C100 0.928 . S
H119 C102 0.932 . S
C120 C121 1.264 . S
C120 C125 1.479 . S
C120 C130 1.465 . S
C121 C120 1.264 . S
C121 C123 1.339 . S
C121 H148 0.931 . S
C122 C123 1.395 . S
C122 C124 1.320 . S
C123 C121 1.339 . S
C123 C122 1.395 . S
C123 H149 0.929 . S
C124 C122 1.320 . S
C124 C125 1.405 . S
C124 H150 0.930 . S
C125 C120 1.479 . S
C125 C124 1.405 . S
C125 H151 0.931 . S
U126 O127 2.454 . S
U126 O128 2.458 . S
U126 C129 2.984 . S
U126 C130 2.847 . S
U126 C143 2.882 . S
U126 O144 2.441 . S
U126 O145 2.420 . S
U126 O146 2.455 . S
U126 O147 2.449 . S
O127 U126 2.454 . S
O127 C129 1.353 . S
O128 U126 2.458 . S
O128 C129 1.286 . S
C129 U126 2.984 . S
C129 O127 1.353 . S
C129 O128 1.286 . S
C129 C131 1.363 . S
C130 C120 1.465 . S
C130 U126 2.847 . S
C130 O144 1.249 . S
C130 O145 1.202 . S
C131 C129 1.363 . S
C131 C133 1.408 . S
C131 C136 1.342 . S
C132 C133 1.310 . S
C132 C135 1.461 . S
C132 H152 0.932 . S
C133 C131 1.408 . S
C133 C132 1.310 . S
C133 H153 0.930 . S
C134 C135 1.474 . S
C134 C136 1.285 . S
C134 H154 0.929 . S
C135 C132 1.461 . S
C135 C134 1.474 . S
C136 C131 1.342 . S
C136 C134 1.285 . S
C136 H155 0.930 . S
C137 C140 1.424 . S
C137 C142 1.245 . S
C137 C143 1.428 . S
C138 C141 1.260 . S
C138 C142 1.477 . S
C138 H156 0.932 . S
C139 C140 1.384 . S
C139 C141 1.479 . S
C139 H157 0.929 . S
C140 C137 1.424 . S
C140 C139 1.384 . S
C140 H158 0.928 . S
C141 C138 1.260 . S
C141 C139 1.479 . S
C142 C137 1.245 . S
C142 C138 1.477 . S
C142 H159 0.932 . S
C143 U126 2.882 . S
C143 C137 1.428 . S
C143 O146 1.301 . S
C143 O147 1.282 . S
O144 U126 2.441 . S
O144 C130 1.249 . S
O145 U126 2.420 . S
O145 C130 1.202 . S
O146 U126 2.455 . S
O146 C143 1.301 . S
O147 U126 2.449 . S
O147 C143 1.282 . S
H148 C121 0.931 . S
H149 C123 0.929 . S
H150 C124 0.930 . S
H151 C125 0.931 . S
H152 C132 0.932 . S
H153 C133 0.930 . S
H154 C134 0.929 . S
H155 C136 0.930 . S
H156 C138 0.932 . S
H157 C139 0.929 . S
H158 C140 0.928 . S
H159 C142 0.932 . S
C160 C161 1.264 . S
C160 C165 1.479 . S
C160 C170 1.465 . S
C161 C160 1.264 . S
C161 C163 1.339 . S
C161 H188 0.931 . S
C162 C163 1.395 . S
C162 C164 1.320 . S
C163 C161 1.339 . S
C163 C162 1.395 . S
C163 H189 0.929 . S
C164 C162 1.320 . S
C164 C165 1.405 . S
C164 H190 0.930 . S
C165 C160 1.479 . S
C165 C164 1.405 . S
C165 H191 0.931 . S
U166 O167 2.454 . S
U166 O168 2.458 . S
U166 C169 2.984 . S
U166 C170 2.847 . S
U166 C183 2.882 . S
U166 O184 2.441 . S
U166 O185 2.420 . S
U166 O186 2.455 . S
U166 O187 2.449 . S
O167 U166 2.454 . S
O167 C169 1.353 . S
O168 U166 2.458 . S
O168 C169 1.286 . S
C169 U166 2.984 . S
C169 O167 1.353 . S
C169 O168 1.286 . S
C169 C171 1.363 . S
C170 C160 1.465 . S
C170 U166 2.847 . S
C170 O184 1.249 . S
C170 O185 1.202 . S
C171 C169 1.363 . S
C171 C173 1.408 . S
C171 C176 1.342 . S
C172 C173 1.310 . S
C172 C175 1.461 . S
C172 H192 0.932 . S
C173 C171 1.408 . S
C173 C172 1.310 . S
C173 H193 0.930 . S
C174 C175 1.474 . S
C174 C176 1.285 . S
C174 H194 0.929 . S
C175 C172 1.461 . S
C175 C174 1.474 . S
C176 C171 1.342 . S
C176 C174 1.285 . S
C176 H195 0.930 . S
C177 C180 1.424 . S
C177 C182 1.245 . S
C177 C183 1.428 . S
C178 C181 1.260 . S
C178 C182 1.477 . S
C178 H196 0.932 . S
C179 C180 1.384 . S
C179 C181 1.479 . S
C179 H197 0.929 . S
C180 C177 1.424 . S
C180 C179 1.384 . S
C180 H198 0.928 . S
C181 C178 1.260 . S
C181 C179 1.479 . S
C182 C177 1.245 . S
C182 C178 1.477 . S
C182 H199 0.932 . S
C183 U166 2.882 . S
C183 C177 1.428 . S
C183 O186 1.301 . S
C183 O187 1.282 . S
O184 U166 2.441 . S
O184 C170 1.249 . S
O185 U166 2.420 . S
O185 C170 1.202 . S
O186 U166 2.455 . S
O186 C183 1.301 . S
O187 U166 2.449 . S
O187 C183 1.282 . S
H188 C161 0.931 . S
H189 C163 0.929 . S
H190 C164 0.930 . S
H191 C165 0.931 . S
H192 C172 0.932 . S
H193 C173 0.930 . S
H194 C174 0.929 . S
H195 C176 0.930 . S
H196 C178 0.932 . S
H197 C179 0.929 . S
H198 C180 0.928 . S
H199 C182 0.932 . S
C200 C201 1.264 . S
C200 C205 1.479 . S
C200 C210 1.465 . S
C201 C200 1.264 . S
C201 C203 1.339 . S
C201 H228 0.931 . S
C202 C203 1.395 . S
C202 C204 1.320 . S
C203 C201 1.339 . S
C203 C202 1.395 . S
C203 H229 0.929 . S
C204 C202 1.320 . S
C204 C205 1.405 . S
C204 H230 0.930 . S
C205 C200 1.479 . S
C205 C204 1.405 . S
C205 H231 0.931 . S
U206 O207 2.454 . S
U206 O208 2.458 . S
U206 C209 2.984 . S
U206 C210 2.847 . S
U206 C223 2.882 . S
U206 O224 2.441 . S
U206 O225 2.420 . S
U206 O226 2.455 . S
U206 O227 2.449 . S
O207 U206 2.454 . S
O207 C209 1.353 . S
O208 U206 2.458 . S
O208 C209 1.286 . S
C209 U206 2.984 . S
C209 O207 1.353 . S
C209 O208 1.286 . S
C209 C211 1.363 . S
C210 C200 1.465 . S
C210 U206 2.847 . S
C210 O224 1.249 . S
C210 O225 1.202 . S
C211 C209 1.363 . S
C211 C213 1.408 . S
C211 C216 1.342 . S
C212 C213 1.310 . S
C212 C215 1.461 . S
C212 H232 0.932 . S
C213 C211 1.408 . S
C213 C212 1.310 . S
C213 H233 0.930 . S
C214 C215 1.474 . S
C214 C216 1.285 . S
C214 H234 0.929 . S
C215 C212 1.461 . S
C215 C214 1.474 . S
C216 C211 1.342 . S
C216 C214 1.285 . S
C216 H235 0.930 . S
C217 C220 1.424 . S
C217 C222 1.245 . S
C217 C223 1.428 . S
C218 C221 1.260 . S
C218 C222 1.477 . S
C218 H236 0.932 . S
C219 C220 1.384 . S
C219 C221 1.479 . S
C219 H237 0.929 . S
C220 C217 1.424 . S
C220 C219 1.384 . S
C220 H238 0.928 . S
C221 C218 1.260 . S
C221 C219 1.479 . S
C222 C217 1.245 . S
C222 C218 1.477 . S
C222 H239 0.932 . S
C223 U206 2.882 . S
C223 C217 1.428 . S
C223 O226 1.301 . S
C223 O227 1.282 . S
O224 U206 2.441 . S
O224 C210 1.249 . S
O225 U206 2.420 . S
O225 C210 1.202 . S
O226 U206 2.455 . S
O226 C223 1.301 . S
O227 U206 2.449 . S
O227 C223 1.282 . S
H228 C201 0.931 . S
H229 C203 0.929 . S
H230 C204 0.930 . S
H231 C205 0.931 . S
H232 C212 0.932 . S
H233 C213 0.930 . S
H234 C214 0.929 . S
H235 C216 0.930 . S
H236 C218 0.932 . S
H237 C219 0.929 . S
H238 C220 0.928 . S
H239 C222 0.932 . S
C240 C241 1.264 . S
C240 C245 1.479 . S
C240 C250 1.465 . S
C241 C240 1.264 . S
C241 C243 1.339 . S
C241 H268 0.931 . S
C242 C243 1.395 . S
C242 C244 1.320 . S
C243 C241 1.339 . S
C243 C242 1.395 . S
C243 H269 0.929 . S
C244 C242 1.320 . S
C244 C245 1.405 . S
C244 H270 0.930 . S
C245 C240 1.479 . S
C245 C244 1.405 . S
C245 H271 0.931 . S
U246 O247 2.454 . S
U246 O248 2.458 . S
U246 C249 2.984 . S
U246 C250 2.847 . S
U246 C263 2.882 . S
U246 O264 2.441 . S
U246 O265 2.420 . S
U246 O266 2.455 . S
U246 O267 2.449 . S
O247 U246 2.454 . S
O247 C249 1.353 . S
O248 U246 2.458 . S
O248 C249 1.286 . S
C249 U246 2.984 . S
C249 O247 1.353 . S
C249 O248 1.286 . S
C249 C251 1.363 . S
C250 C240 1.465 . S
C250 U246 2.847 . S
C250 O264 1.249 . S
C250 O265 1.202 . S
C251 C249 1.363 . S
C251 C253 1.408 . S
C251 C256 1.342 . S
C252 C253 1.310 . S
C252 C255 1.461 . S
C252 H272 0.932 . S
C253 C251 1.408 . S
C253 C252 1.310 . S
C253 H273 0.930 . S
C254 C255 1.474 . S
C254 C256 1.285 . S
C254 H274 0.929 . S
C255 C252 1.461 . S
C255 C254 1.474 . S
C256 C251 1.342 . S
C256 C254 1.285 . S
C256 H275 0.930 . S
C257 C260 1.424 . S
C257 C262 1.245 . S
C257 C263 1.428 . S
C258 C261 1.260 . S
C258 C262 1.477 . S
C258 H276 0.932 . S
C259 C260 1.384 . S
C259 C261 1.479 . S
C259 H277 0.929 . S
C260 C257 1.424 . S
C260 C259 1.384 . S
C260 H278 0.928 . S
C261 C258 1.260 . S
C261 C259 1.479 . S
C262 C257 1.245 . S
C262 C258 1.477 . S
C262 H279 0.932 . S
C263 U246 2.882 . S
C263 C257 1.428 . S
C263 O266 1.301 . S
C263 O267 1.282 . S
O264 U246 2.441 . S
O264 C250 1.249 . S
O265 U246 2.420 . S
O265 C250 1.202 . S
O266 U246 2.455 . S
O266 C263 1.301 . S
O267 U246 2.449 . S
O267 C263 1.282 . S
H268 C241 0.931 . S
H269 C243 0.929 . S
H270 C244 0.930 . S
H271 C245 0.931 . S
H272 C252 0.932 . S
H273 C253 0.930 . S
H274 C254 0.929 . S
H275 C256 0.930 . S
H276 C258 0.932 . S
H277 C259 0.929 . S
H278 C260 0.928 . S
H279 C262 0.932 . S
C280 C281 1.264 . S
C280 C285 1.479 . S
C280 C290 1.465 . S
C281 C280 1.264 . S
C281 C283 1.339 . S
C281 H308 0.931 . S
C282 C283 1.395 . S
C282 C284 1.320 . S
C283 C281 1.339 . S
C283 C282 1.395 . S
C283 H309 0.929 . S
C284 C282 1.320 . S
C284 C285 1.405 . S
C284 H310 0.930 . S
C285 C280 1.479 . S
C285 C284 1.405 . S
C285 H311 0.931 . S
U286 O287 2.454 . S
U286 O288 2.458 . S
U286 C289 2.984 . S
U286 C290 2.847 . S
U286 C303 2.882 . S
U286 O304 2.441 . S
U286 O305 2.420 . S
U286 O306 2.455 . S
U286 O307 2.449 . S
O287 U286 2.454 . S
O287 C289 1.353 . S
O288 U286 2.458 . S
O288 C289 1.286 . S
C289 U286 2.984 . S
C289 O287 1.353 . S
C289 O288 1.286 . S
C289 C291 1.363 . S
C290 C280 1.465 . S
C290 U286 2.847 . S
C290 O304 1.249 . S
C290 O305 1.202 . S
C291 C289 1.363 . S
C291 C293 1.408 . S
C291 C296 1.342 . S
C292 C293 1.310 . S
C292 C295 1.461 . S
C292 H312 0.932 . S
C293 C291 1.408 . S
C293 C292 1.310 . S
C293 H313 0.930 . S
C294 C295 1.474 . S
C294 C296 1.285 . S
C294 H314 0.929 . S
C295 C292 1.461 . S
C295 C294 1.474 . S
C296 C291 1.342 . S
C296 C294 1.285 . S
C296 H315 0.930 . S
C297 C300 1.424 . S
C297 C302 1.245 . S
C297 C303 1.428 . S
C298 C301 1.260 . S
C298 C302 1.477 . S
C298 H316 0.932 . S
C299 C300 1.384 . S
C299 C301 1.479 . S
C299 H317 0.929 . S
C300 C297 1.424 . S
C300 C299 1.384 . S
C300 H318 0.928 . S
C301 C298 1.260 . S
C301 C299 1.479 . S
C302 C297 1.245 . S
C302 C298 1.477 . S
C302 H319 0.932 . S
C303 U286 2.882 . S
C303 C297 1.428 . S
C303 O306 1.301 . S
C303 O307 1.282 . S
O304 U286 2.441 . S
O304 C290 1.249 . S
O305 U286 2.420 . S
O305 C290 1.202 . S
O306 U286 2.455 . S
O306 C303 1.301 . S
O307 U286 2.449 . S
O307 C303 1.282 . S
H308 C281 0.931 . S
H309 C283 0.929 . S
H310 C284 0.930 . S
H311 C285 0.931 . S
H312 C292 0.932 . S
H313 C293 0.930 . S
H314 C294 0.929 . S
H315 C296 0.930 . S
H316 C298 0.932 . S
H317 C299 0.929 . S
H318 C300 0.928 . S
H319 C302 0.932 . S
Dy320 O324 2.398 . S
Dy320 O325 2.491 . S
Dy320 O326 2.403 1_545 S
Dy320 O327 2.664 1_545 S
Dy320 O331 2.326 . S
Dy320 O335 2.310 1_455 S
Dy320 O336 2.351 1_445 S
C321 O332 1.185 . S
C321 O333 1.355 . S
C322 O324 1.185 . S
C322 O325 1.355 . S
Dy323 O327 2.310 1_655 S
Dy323 O330 2.351 1_665 S
Dy323 O332 2.398 . S
Dy323 O333 2.491 . S
Dy323 O334 2.403 1_565 S
Dy323 O335 2.664 1_565 S
Dy323 O337 2.326 . S
O324 Dy320 2.398 . S
O324 C322 1.185 . S
O325 Dy320 2.491 . S
O325 C322 1.355 . S
O326 Dy320 2.403 1_565 S
O326 C328 1.254 . S
O327 Dy320 2.664 1_565 S
O327 Dy323 2.310 1_455 S
O327 C328 1.268 . S
C328 O326 1.254 . S
C328 O327 1.268 . S
C329 O334 1.254 . S
C329 O335 1.268 . S
O330 Dy323 2.351 1_445 S
O330 C338 1.249 . S
O331 Dy320 2.326 . S
O331 C338 1.267 . S
O332 C321 1.185 . S
O332 Dy323 2.398 . S
O333 C321 1.355 . S
O333 Dy323 2.491 . S
O334 Dy323 2.403 1_545 S
O334 C329 1.254 . S
O335 Dy320 2.310 1_655 S
O335 Dy323 2.664 1_545 S
O335 C329 1.268 . S
O336 Dy320 2.351 1_665 S
O336 C339 1.249 . S
O337 Dy323 2.326 . S
O337 C339 1.267 . S
C338 O330 1.249 . S
C338 O331 1.267 . S
C339 O336 1.249 . S
C339 O337 1.267 . S
Dy340 O344 2.398 . S
Dy340 O345 2.491 . S
Dy340 O346 2.403 1_545 S
Dy340 O347 2.664 1_545 S
Dy340 O351 2.326 . S
Dy340 O355 2.310 1_554 S
Dy340 O356 2.351 1_544 S
C341 O352 1.185 . S
C341 O353 1.355 . S
C342 O344 1.185 . S
C342 O345 1.355 . S
Dy343 O347 2.315 1_556 S
Dy343 O350 2.347 1_566 S
Dy343 O352 2.399 . S
Dy343 O353 2.499 . S
Dy343 O354 2.396 1_565 S
Dy343 O355 2.660 1_565 S
Dy343 O357 2.330 . S
O344 Dy340 2.398 . S
O344 C342 1.185 . S
O345 Dy340 2.491 . S
O345 C342 1.355 . S
O346 Dy340 2.403 1_565 S
O346 C348 1.254 . S
O347 Dy340 2.664 1_565 S
O347 Dy343 2.315 1_554 S
O347 C348 1.268 . S
C348 O346 1.254 . S
C348 O347 1.268 . S
C349 O354 1.254 . S
C349 O355 1.268 . S
O350 Dy343 2.347 1_544 S
O350 C358 1.249 . S
O351 Dy340 2.326 . S
O351 C358 1.267 . S
O352 C341 1.185 . S
O352 Dy343 2.399 . S
O353 C341 1.355 . S
O353 Dy343 2.499 . S
O354 Dy343 2.396 1_545 S
O354 C349 1.254 . S
O355 Dy340 2.310 1_556 S
O355 Dy343 2.660 1_545 S
O355 C349 1.268 . S
O356 Dy340 2.351 1_566 S
O356 C359 1.249 . S
O357 Dy343 2.330 . S
O357 C359 1.267 . S
C358 O350 1.249 . S
C358 O351 1.267 . S
C359 O356 1.249 . S
C359 O357 1.267 . S
Dy360 O364 2.398 . S
Dy360 O365 2.491 . S
Dy360 O366 2.403 . S
Dy360 O367 2.664 . S
Dy360 O371 2.326 . S
Dy360 O375 2.310 . S
Dy360 O376 2.351 . S
C361 O372 1.185 . S
C361 O373 1.355 . S
C362 O364 1.185 . S
C362 O365 1.355 . S
Dy363 O367 2.310 . S
Dy363 O370 2.351 . S
Dy363 O372 2.398 . S
Dy363 O373 2.491 . S
Dy363 O374 2.403 . S
Dy363 O375 2.664 . S
Dy363 O377 2.326 . S
O364 Dy360 2.398 . S
O364 C362 1.185 . S
O365 Dy360 2.491 . S
O365 C362 1.355 . S
O366 Dy360 2.403 . S
O366 C368 1.254 . S
O367 Dy360 2.664 . S
O367 Dy363 2.310 . S
O367 C368 1.268 . S
C368 O366 1.254 . S
C368 O367 1.268 . S
C369 O374 1.254 . S
C369 O375 1.268 . S
O370 Dy363 2.351 . S
O370 C378 1.249 . S
O371 Dy360 2.326 . S
O371 C378 1.267 . S
O372 C361 1.185 . S
O372 Dy363 2.398 . S
O373 C361 1.355 . S
O373 Dy363 2.491 . S
O374 Dy363 2.403 . S
O374 C369 1.254 . S
O375 Dy360 2.310 . S
O375 Dy363 2.664 . S
O375 C369 1.268 . S
O376 Dy360 2.351 . S
O376 C379 1.249 . S
O377 Dy363 2.326 . S
O377 C379 1.267 . S
C378 O370 1.249 . S
C378 O371 1.267 . S
C379 O376 1.249 . S
C379 O377 1.267 . S
Dy380 O384 2.398 . S
Dy380 O385 2.491 . S
Dy380 O386 2.403 1_455 S
Dy380 O387 2.664 1_455 S
Dy380 O391 2.326 . S
Dy380 O395 2.310 1_554 S
Dy380 O396 2.351 1_454 S
C381 O392 1.185 . S
C381 O393 1.355 . S
C382 O384 1.185 . S
C382 O385 1.355 . S
Dy383 O387 2.310 1_456 S
Dy383 O390 2.349 1_556 S
Dy383 O392 2.400 1_455 S
Dy383 O393 2.494 1_455 S
Dy383 O394 2.402 . S
Dy383 O395 2.663 . S
Dy383 O397 2.328 1_455 S
O384 Dy380 2.398 . S
O384 C382 1.185 . S
O385 Dy380 2.491 . S
O385 C382 1.355 . S
O386 Dy380 2.403 1_655 S
O386 C388 1.254 . S
O387 Dy380 2.664 1_655 S
O387 Dy383 2.310 1_654 S
O387 C388 1.268 . S
C388 O386 1.254 . S
C388 O387 1.268 . S
C389 O394 1.254 . S
C389 O395 1.268 . S
O390 Dy383 2.349 1_554 S
O390 C398 1.249 . S
O391 Dy380 2.326 . S
O391 C398 1.267 . S
O392 C381 1.185 . S
O392 Dy383 2.400 1_655 S
O393 C381 1.355 . S
O393 Dy383 2.494 1_655 S
O394 Dy383 2.402 . S
O394 C389 1.254 . S
O395 Dy380 2.310 1_556 S
O395 Dy383 2.663 . S
O395 C389 1.268 . S
O396 Dy380 2.351 1_656 S
O396 C399 1.249 . S
O397 Dy383 2.328 1_655 S
O397 C399 1.267 . S
C398 O390 1.249 . S
C398 O391 1.267 . S
C399 O396 1.249 . S
C399 O397 1.267 . S
H400 C406 0.930 . S
H401 C410 0.930 . S
H402 C415 0.929 . S
H403 C413 0.929 . S
H404 C408 0.929 . S
H405 C414 0.929 . S
C406 H400 0.930 . S
C406 C407 1.367 . S
C406 C414 1.378 . S
C407 C406 1.367 . S
C407 C415 1.433 . S
C408 H404 0.929 . S
C408 C410 1.378 . S
C408 C412 1.350 . S
C409 C412 1.463 . S
C409 C414 1.350 . S
C409 N417 1.427 . S
C410 H401 0.930 . S
C410 C408 1.378 . S
C410 C411 1.367 . S
C411 C410 1.367 . S
C411 C413 1.433 . S
C412 C408 1.350 . S
C412 C409 1.463 . S
C412 N416 1.427 . S
C413 H403 0.929 . S
C413 C411 1.433 . S
C413 N416 1.384 . S
C414 H405 0.929 . S
C414 C406 1.378 . S
C414 C409 1.350 . S
C415 H402 0.929 . S
C415 C407 1.433 . S
C415 N417 1.384 . S
N416 C412 1.427 . S
N416 C413 1.384 . S
N417 C409 1.427 . S
N417 C415 1.384 . S
H418 C424 0.930 . S
H419 C428 0.930 . S
H420 C433 0.929 . S
H421 C431 0.929 . S
H422 C426 0.929 . S
H423 C432 0.929 . S
C424 H418 0.930 . S
C424 C425 1.367 . S
C424 C432 1.378 . S
C425 C424 1.367 . S
C425 C433 1.433 . S
C426 H422 0.929 . S
C426 C428 1.378 . S
C426 C430 1.350 . S
C427 C430 1.463 . S
C427 C432 1.350 . S
C427 N435 1.427 . S
C428 H419 0.930 . S
C428 C426 1.378 . S
C428 C429 1.367 . S
C429 C428 1.367 . S
C429 C431 1.433 . S
C430 C426 1.350 . S
C430 C427 1.463 . S
C430 N434 1.427 . S
C431 H421 0.929 . S
C431 C429 1.433 . S
C431 N434 1.384 . S
C432 H423 0.929 . S
C432 C424 1.378 . S
C432 C427 1.350 . S
C433 H420 0.929 . S
C433 C425 1.433 . S
C433 N435 1.384 . S
N434 C430 1.427 . S
N434 C431 1.384 . S
N435 C427 1.427 . S
N435 C433 1.384 . S
H436 C442 0.930 . S
H437 C446 0.930 . S
H438 C451 0.929 . S
H439 C449 0.929 . S
H440 C444 0.929 . S
H441 C450 0.929 . S
C442 H436 0.930 . S
C442 C443 1.367 . S
C442 C450 1.378 . S
C443 C442 1.367 . S
C443 C451 1.433 . S
C444 H440 0.929 . S
C444 C446 1.378 . S
C444 C448 1.350 . S
C445 C448 1.463 . S
C445 C450 1.350 . S
C445 N453 1.427 . S
C446 H437 0.930 . S
C446 C444 1.378 . S
C446 C447 1.367 . S
C447 C446 1.367 . S
C447 C449 1.433 . S
C448 C444 1.350 . S
C448 C445 1.463 . S
C448 N452 1.427 . S
C449 H439 0.929 . S
C449 C447 1.433 . S
C449 N452 1.384 . S
C450 H441 0.929 . S
C450 C442 1.378 . S
C450 C445 1.350 . S
C451 H438 0.929 . S
C451 C443 1.433 . S
C451 N453 1.384 . S
N452 C448 1.427 . S
N452 C449 1.384 . S
N453 C445 1.427 . S
N453 C451 1.384 . S
H454 C460 0.930 . S
H455 C464 0.930 . S
H456 C469 0.929 . S
H457 C467 0.929 . S
H458 C462 0.929 . S
H459 C468 0.929 . S
C460 H454 0.930 . S
C460 C461 1.367 . S
C460 C468 1.378 . S
C461 C460 1.367 . S
C461 C469 1.433 . S
C462 H458 0.929 . S
C462 C464 1.378 . S
C462 C466 1.350 . S
C463 C466 1.463 . S
C463 C468 1.350 . S
C463 N471 1.427 . S
C464 H455 0.930 . S
C464 C462 1.378 . S
C464 C465 1.367 . S
C465 C464 1.367 . S
C465 C467 1.433 . S
C466 C462 1.350 . S
C466 C463 1.463 . S
C466 N470 1.427 . S
C467 H457 0.929 . S
C467 C465 1.433 . S
C467 N470 1.384 . S
C468 H459 0.929 . S
C468 C460 1.378 . S
C468 C463 1.350 . S
C469 H456 0.929 . S
C469 C461 1.433 . S
C469 N471 1.384 . S
N470 C466 1.427 . S
N470 C467 1.384 . S
N471 C463 1.427 . S
N471 C469 1.384 . S
H472 C478 0.930 . S
H473 C482 0.930 . S
H474 C487 0.929 . S
H475 C485 0.929 . S
H476 C480 0.929 . S
H477 C486 0.929 . S
C478 H472 0.930 . S
C478 C479 1.367 . S
C478 C486 1.378 . S
C479 C478 1.367 . S
C479 C487 1.433 . S
C480 H476 0.929 . S
C480 C482 1.378 . S
C480 C484 1.350 . S
C481 C484 1.463 . S
C481 C486 1.350 . S
C481 N489 1.427 . S
C482 H473 0.930 . S
C482 C480 1.378 . S
C482 C483 1.367 . S
C483 C482 1.367 . S
C483 C485 1.433 . S
C484 C480 1.350 . S
C484 C481 1.463 . S
C484 N488 1.427 . S
C485 H475 0.929 . S
C485 C483 1.433 . S
C485 N488 1.384 . S
C486 H477 0.929 . S
C486 C478 1.378 . S
C486 C481 1.350 . S
C487 H474 0.929 . S
C487 C479 1.433 . S
C487 N489 1.384 . S
N488 C484 1.427 . S
N488 C485 1.384 . S
N489 C481 1.427 . S
N489 C487 1.384 . S
H490 C496 0.930 . S
H491 C500 0.930 . S
H492 C505 0.929 . S
H493 C503 0.929 1_545 S
H494 C498 0.929 . S
H495 C504 0.929 . S
C496 H490 0.930 . S
C496 C497 1.367 . S
C496 C504 1.378 . S
C497 C496 1.367 . S
C497 C505 1.433 . S
C498 H494 0.929 . S
C498 C500 1.378 . S
C498 C502 1.350 . S
C499 C502 1.463 . S
C499 C504 1.350 . S
C499 N507 1.427 . S
C500 H491 0.930 . S
C500 C498 1.378 . S
C500 C501 1.367 . S
C501 C500 1.367 . S
C501 C503 1.433 . S
C502 C498 1.350 . S
C502 C499 1.463 . S
C502 N506 1.427 . S
C503 H493 0.929 1_565 S
C503 C501 1.433 . S
C503 N506 1.384 . S
C504 H495 0.929 . S
C504 C496 1.378 . S
C504 C499 1.350 . S
C505 H492 0.929 . S
C505 C497 1.433 . S
C505 N507 1.384 . S
N506 C502 1.427 . S
N506 C503 1.384 . S
N507 C499 1.427 . S
N507 C505 1.384 . S
H508 C514 0.930 . S
H509 C518 0.930 . S
H510 C523 0.929 . S
H511 C521 0.929 . S
H512 C516 0.929 . S
H513 C522 0.929 . S
C514 H508 0.930 . S
C514 C515 1.367 . S
C514 C522 1.378 . S
C515 C514 1.367 . S
C515 C523 1.433 . S
C516 H512 0.929 . S
C516 C518 1.378 . S
C516 C520 1.350 . S
C517 C520 1.463 . S
C517 C522 1.350 . S
C517 N525 1.427 . S
C518 H509 0.930 . S
C518 C516 1.378 . S
C518 C519 1.367 . S
C519 C518 1.367 . S
C519 C521 1.433 . S
C520 C516 1.350 . S
C520 C517 1.463 . S
C520 N524 1.427 . S
C521 H511 0.929 . S
C521 C519 1.433 . S
C521 N524 1.384 . S
C522 H513 0.929 . S
C522 C514 1.378 . S
C522 C517 1.350 . S
C523 H510 0.929 . S
C523 C515 1.433 . S
C523 N525 1.384 . S
N524 C520 1.427 . S
N524 C521 1.384 . S
N525 C517 1.427 . S
N525 C523 1.384 . S
H526 C532 0.930 . S
H527 C536 0.930 . S
H528 C541 0.929 . S
H529 C539 0.929 . S
H530 C534 0.929 . S
H531 C540 0.929 . S
C532 H526 0.930 . S
C532 C533 1.367 . S
C532 C540 1.378 . S
C533 C532 1.367 . S
C533 C541 1.433 . S
C534 H530 0.929 . S
C534 C536 1.378 . S
C534 C538 1.350 . S
C535 C538 1.463 . S
C535 C540 1.350 . S
C535 N543 1.427 . S
C536 H527 0.930 . S
C536 C534 1.378 . S
C536 C537 1.367 . S
C537 C536 1.367 . S
C537 C539 1.433 . S
C538 C534 1.350 . S
C538 C535 1.463 . S
C538 N542 1.427 . S
C539 H529 0.929 . S
C539 C537 1.433 . S
C539 N542 1.384 . S
C540 H531 0.929 . S
C540 C532 1.378 . S
C540 C535 1.350 . S
C541 H528 0.929 . S
C541 C533 1.433 . S
C541 N543 1.384 . S
N542 C538 1.427 . S
N542 C539 1.384 . S
N543 C535 1.427 . S
N543 C541 1.384 . S
H544 C550 0.930 . S
H545 C554 0.930 . S
H546 C559 0.929 . S
H547 C557 0.929 . S
H548 C552 0.929 . S
H549 C558 0.929 . S
C550 H544 0.930 . S
C550 C551 1.367 . S
C550 C558 1.378 . S
C551 C550 1.367 . S
C551 C559 1.433 . S
C552 H548 0.929 . S
C552 C554 1.378 . S
C552 C556 1.350 . S
C553 C556 1.463 . S
C553 C558 1.350 . S
C553 N561 1.427 . S
C554 H545 0.930 . S
C554 C552 1.378 . S
C554 C555 1.367 . S
C555 C554 1.367 . S
C555 C557 1.433 . S
C556 C552 1.350 . S
C556 C553 1.463 . S
C556 N560 1.427 . S
C557 H547 0.929 . S
C557 C555 1.433 . S
C557 N560 1.384 . S
C558 H549 0.929 . S
C558 C550 1.378 . S
C558 C553 1.350 . S
C559 H546 0.929 . S
C559 C551 1.433 . S
C559 N561 1.384 . S
N560 C556 1.427 . S
N560 C557 1.384 . S
N561 C553 1.427 . S
N561 C559 1.384 . S
H562 C568 0.930 . S
H563 C572 0.930 1_554 S
H564 C577 0.929 . S
H565 C575 0.929 . S
H566 C570 0.929 . S
H567 C576 0.929 . S
C568 H562 0.930 . S
C568 C569 1.367 . S
C568 C576 1.378 . S
C569 C568 1.367 . S
C569 C577 1.433 . S
C570 H566 0.929 . S
C570 C572 1.378 . S
C570 C574 1.350 . S
C571 C574 1.463 . S
C571 C576 1.350 . S
C571 N579 1.427 . S
C572 H563 0.930 1_556 S
C572 C570 1.378 . S
C572 C573 1.367 . S
C573 C572 1.367 . S
C573 C575 1.433 . S
C574 C570 1.350 . S
C574 C571 1.463 . S
C574 N578 1.427 . S
C575 H565 0.929 . S
C575 C573 1.433 . S
C575 N578 1.384 . S
C576 H567 0.929 . S
C576 C568 1.378 . S
C576 C571 1.350 . S
C577 H564 0.929 . S
C577 C569 1.433 . S
C577 N579 1.384 . S
N578 C574 1.427 . S
N578 C575 1.384 . S
N579 C571 1.427 . S
N579 C577 1.384 . S
H580 C586 0.930 . S
H581 C590 0.930 . S
H582 C595 0.929 . S
H583 C593 0.929 . S
H584 C588 0.929 . S
H585 C594 0.929 . S
C586 H580 0.930 . S
C586 C587 1.367 . S
C586 C594 1.378 . S
C587 C586 1.367 . S
C587 C595 1.433 . S
C588 H584 0.929 . S
C588 C590 1.378 . S
C588 C592 1.350 . S
C589 C592 1.463 . S
C589 C594 1.350 . S
C589 N597 1.427 . S
C590 H581 0.930 . S
C590 C588 1.378 . S
C590 C591 1.367 . S
C591 C590 1.367 . S
C591 C593 1.433 . S
C592 C588 1.350 . S
C592 C589 1.463 . S
C592 N596 1.427 . S
C593 H583 0.929 . S
C593 C591 1.433 . S
C593 N596 1.384 . S
C594 H585 0.929 . S
C594 C586 1.378 . S
C594 C589 1.350 . S
C595 H582 0.929 . S
C595 C587 1.433 . S
C595 N597 1.384 . S
N596 C592 1.427 . S
N596 C593 1.384 . S
N597 C589 1.427 . S
N597 C595 1.384 . S
H598 C604 0.930 . S
H599 C608 0.930 . S
H600 C613 0.929 . S
H601 C611 0.929 . S
H602 C606 0.929 . S
H603 C612 0.929 . S
C604 H598 0.930 . S
C604 C605 1.367 . S
C604 C612 1.378 . S
C605 C604 1.367 . S
C605 C613 1.433 . S
C606 H602 0.929 . S
C606 C608 1.378 . S
C606 C610 1.350 . S
C607 C610 1.463 . S
C607 C612 1.350 . S
C607 N615 1.427 . S
C608 H599 0.930 . S
C608 C606 1.378 . S
C608 C609 1.367 . S
C609 C608 1.367 . S
C609 C611 1.433 . S
C610 C606 1.350 . S
C610 C607 1.463 . S
C610 N614 1.427 . S
C611 H601 0.929 . S
C611 C609 1.433 . S
C611 N614 1.384 . S
C612 H603 0.929 . S
C612 C604 1.378 . S
C612 C607 1.350 . S
C613 H600 0.929 . S
C613 C605 1.433 . S
C613 N615 1.384 . S
N614 C610 1.427 . S
N614 C611 1.384 . S
N615 C607 1.427 . S
N615 C613 1.384 . S
H616 C622 0.930 . S
H617 C626 0.930 . S
H618 C631 0.929 . S
H619 C629 0.929 . S
H620 C624 0.929 . S
H621 C630 0.929 . S
C622 H616 0.930 . S
C622 C623 1.367 . S
C622 C630 1.378 . S
C623 C622 1.367 . S
C623 C631 1.433 . S
C624 H620 0.929 . S
C624 C626 1.378 . S
C624 C628 1.350 . S
C625 C628 1.463 . S
C625 C630 1.350 . S
C625 N633 1.427 . S
C626 H617 0.930 . S
C626 C624 1.378 . S
C626 C627 1.367 . S
C627 C626 1.367 . S
C627 C629 1.433 . S
C628 C624 1.350 . S
C628 C625 1.463 . S
C628 N632 1.427 . S
C629 H619 0.929 . S
C629 C627 1.433 . S
C629 N632 1.384 . S
C630 H621 0.929 . S
C630 C622 1.378 . S
C630 C625 1.350 . S
C631 H618 0.929 . S
C631 C623 1.433 . S
C631 N633 1.384 . S
N632 C628 1.427 . S
N632 C629 1.384 . S
N633 C625 1.427 . S
N633 C631 1.384 . S
H634 C640 0.930 . S
H635 C644 0.930 . S
H636 C649 0.929 . S
H637 C647 0.929 . S
H638 C642 0.929 . S
H639 C648 0.929 . S
C640 H634 0.930 . S
C640 C641 1.367 . S
C640 C648 1.378 . S
C641 C640 1.367 . S
C641 C649 1.433 . S
C642 H638 0.929 . S
C642 C644 1.378 . S
C642 C646 1.350 . S
C643 C646 1.463 . S
C643 C648 1.350 . S
C643 N651 1.427 . S
C644 H635 0.930 . S
C644 C642 1.378 . S
C644 C645 1.367 . S
C645 C644 1.367 . S
C645 C647 1.433 . S
C646 C642 1.350 . S
C646 C643 1.463 . S
C646 N650 1.427 . S
C647 H637 0.929 . S
C647 C645 1.433 . S
C647 N650 1.384 . S
C648 H639 0.929 . S
C648 C640 1.378 . S
C648 C643 1.350 . S
C649 H636 0.929 . S
C649 C641 1.433 . S
C649 N651 1.384 . S
N650 C646 1.427 . S
N650 C647 1.384 . S
N651 C643 1.427 . S
N651 C649 1.384 . S
H652 C658 0.930 . S
H653 C662 0.930 . S
H654 C667 0.929 . S
H655 C665 0.929 . S
H656 C660 0.929 . S
H657 C666 0.929 . S
C658 H652 0.930 . S
C658 C659 1.367 . S
C658 C666 1.378 . S
C659 C658 1.367 . S
C659 C667 1.433 . S
C660 H656 0.929 . S
C660 C662 1.378 . S
C660 C664 1.350 . S
C661 C664 1.463 . S
C661 C666 1.350 . S
C661 N669 1.427 . S
C662 H653 0.930 . S
C662 C660 1.378 . S
C662 C663 1.367 . S
C663 C662 1.367 . S
C663 C665 1.433 . S
C664 C660 1.350 . S
C664 C661 1.463 . S
C664 N668 1.427 . S
C665 H655 0.929 . S
C665 C663 1.433 . S
C665 N668 1.384 . S
C666 H657 0.929 . S
C666 C658 1.378 . S
C666 C661 1.350 . S
C667 H654 0.929 . S
C667 C659 1.433 . S
C667 N669 1.384 . S
N668 C664 1.427 . S
N668 C665 1.384 . S
N669 C661 1.427 . S
N669 C667 1.384 . S
H670 C676 0.930 . S
H671 C680 0.930 . S
H672 C685 0.929 . S
H673 C683 0.929 . S
H674 C678 0.929 . S
H675 C684 0.929 . S
C676 H670 0.930 . S
C676 C677 1.367 . S
C676 C684 1.378 . S
C677 C676 1.367 . S
C677 C685 1.433 . S
C678 H674 0.929 . S
C678 C680 1.378 . S
C678 C682 1.350 . S
C679 C682 1.463 . S
C679 C684 1.350 . S
C679 N687 1.427 . S
C680 H671 0.930 . S
C680 C678 1.378 . S
C680 C681 1.367 . S
C681 C680 1.367 . S
C681 C683 1.433 . S
C682 C678 1.350 . S
C682 C679 1.463 . S
C682 N686 1.427 . S
C683 H673 0.929 . S
C683 C681 1.433 . S
C683 N686 1.384 . S
C684 H675 0.929 . S
C684 C676 1.378 . S
C684 C679 1.350 . S
C685 H672 0.929 . S
C685 C677 1.433 . S
C685 N687 1.384 . S
N686 C682 1.427 . S
N686 C683 1.384 . S
N687 C679 1.427 . S
N687 C685 1.384 . S
H688 C694 0.930 . S
H689 C698 0.930 . S
H690 C703 0.929 . S
H691 C701 0.929 . S
H692 C696 0.929 . S
H693 C702 0.929 . S
C694 H688 0.930 . S
C694 C695 1.367 . S
C694 C702 1.378 . S
C695 C694 1.367 . S
C695 C703 1.433 . S
C696 H692 0.929 . S
C696 C698 1.378 . S
C696 C700 1.350 . S
C697 C700 1.463 . S
C697 C702 1.350 . S
C697 N705 1.427 . S
C698 H689 0.930 . S
C698 C696 1.378 . S
C698 C699 1.367 . S
C699 C698 1.367 . S
C699 C701 1.433 . S
C700 C696 1.350 . S
C700 C697 1.463 . S
C700 N704 1.427 . S
C701 H691 0.929 . S
C701 C699 1.433 . S
C701 N704 1.384 . S
C702 H693 0.929 . S
C702 C694 1.378 . S
C702 C697 1.350 . S
C703 H690 0.929 . S
C703 C695 1.433 . S
C703 N705 1.384 . S
N704 C700 1.427 . S
N704 C701 1.384 . S
N705 C697 1.427 . S
N705 C703 1.384 . S
H706 C712 0.930 . S
H707 C716 0.930 . S
H708 C721 0.929 . S
H709 C719 0.929 . S
H710 C714 0.929 . S
H711 C720 0.929 . S
C712 H706 0.930 . S
C712 C713 1.367 . S
C712 C720 1.378 . S
C713 C712 1.367 . S
C713 C721 1.433 . S
C714 H710 0.929 . S
C714 C716 1.378 . S
C714 C718 1.350 . S
C715 C718 1.463 . S
C715 C720 1.350 . S
C715 N723 1.427 . S
C716 H707 0.930 . S
C716 C714 1.378 . S
C716 C717 1.367 . S
C717 C716 1.367 . S
C717 C719 1.433 . S
C718 C714 1.350 . S
C718 C715 1.463 . S
C718 N722 1.427 . S
C719 H709 0.929 . S
C719 C717 1.433 . S
C719 N722 1.384 . S
C720 H711 0.929 . S
C720 C712 1.378 . S
C720 C715 1.350 . S
C721 H708 0.929 . S
C721 C713 1.433 . S
C721 N723 1.384 . S
N722 C718 1.427 . S
N722 C719 1.384 . S
N723 C715 1.427 . S
N723 C721 1.384 . S
H724 C730 0.930 . S
H725 C734 0.930 . S
H726 C739 0.929 . S
H727 C737 0.929 1_556 S
H728 C732 0.929 . S
H729 C738 0.929 . S
C730 H724 0.930 . S
C730 C731 1.367 . S
C730 C738 1.378 . S
C731 C730 1.367 . S
C731 C739 1.433 . S
C732 H728 0.929 . S
C732 C734 1.378 . S
C732 C736 1.350 . S
C733 C736 1.463 . S
C733 C738 1.350 . S
C733 N741 1.427 . S
C734 H725 0.930 . S
C734 C732 1.378 . S
C734 C735 1.367 . S
C735 C734 1.367 . S
C735 C737 1.433 . S
C736 C732 1.350 . S
C736 C733 1.463 . S
C736 N740 1.427 . S
C737 H727 0.929 1_554 S
C737 C735 1.433 . S
C737 N740 1.384 . S
C738 H729 0.929 . S
C738 C730 1.378 . S
C738 C733 1.350 . S
C739 H726 0.929 . S
C739 C731 1.433 . S
C739 N741 1.384 . S
N740 C736 1.427 . S
N740 C737 1.384 . S
N741 C733 1.427 . S
N741 C739 1.384 . S
H742 C748 0.930 . S
H743 C752 0.930 . S
H744 C757 0.929 . S
H745 C755 0.929 . S
H746 C750 0.929 . S
H747 C756 0.929 . S
C748 H742 0.930 . S
C748 C749 1.367 . S
C748 C756 1.378 . S
C749 C748 1.367 . S
C749 C757 1.433 . S
C750 H746 0.929 . S
C750 C752 1.378 . S
C750 C754 1.350 . S
C751 C754 1.463 . S
C751 C756 1.350 . S
C751 N759 1.427 . S
C752 H743 0.930 . S
C752 C750 1.378 . S
C752 C753 1.367 . S
C753 C752 1.367 . S
C753 C755 1.433 . S
C754 C750 1.350 . S
C754 C751 1.463 . S
C754 N758 1.427 . S
C755 H745 0.929 . S
C755 C753 1.433 . S
C755 N758 1.384 . S
C756 H747 0.929 . S
C756 C748 1.378 . S
C756 C751 1.350 . S
C757 H744 0.929 . S
C757 C749 1.433 . S
C757 N759 1.384 . S
N758 C754 1.427 . S
N758 C755 1.384 . S
N759 C751 1.427 . S
N759 C757 1.384 . S
H760 C766 0.930 . S
H761 C770 0.930 . S
H762 C775 0.929 . S
H763 C773 0.929 . S
H764 C768 0.929 . S
H765 C774 0.929 . S
C766 H760 0.930 . S
C766 C767 1.367 . S
C766 C774 1.378 . S
C767 C766 1.367 . S
C767 C775 1.433 . S
C768 H764 0.929 . S
C768 C770 1.378 . S
C768 C772 1.350 . S
C769 C772 1.463 . S
C769 C774 1.350 . S
C769 N777 1.427 . S
C770 H761 0.930 . S
C770 C768 1.378 . S
C770 C771 1.367 . S
C771 C770 1.367 . S
C771 C773 1.433 . S
C772 C768 1.350 . S
C772 C769 1.463 . S
C772 N776 1.427 . S
C773 H763 0.929 . S
C773 C771 1.433 . S
C773 N776 1.384 . S
C774 H765 0.929 . S
C774 C766 1.378 . S
C774 C769 1.350 . S
C775 H762 0.929 . S
C775 C767 1.433 . S
C775 N777 1.384 . S
N776 C772 1.427 . S
N776 C773 1.384 . S
N777 C769 1.427 . S
N777 C775 1.384 . S
H778 C784 0.930 . S
H779 C788 0.965 . S
H780 C793 0.929 . S
H781 C791 0.929 . S
H782 C786 0.929 . S
H783 C792 0.929 . S
C784 H778 0.930 . S
C784 C785 1.367 . S
C784 C792 1.378 . S
C785 C784 1.367 . S
C785 C793 1.433 . S
C786 H782 0.929 . S
C786 C788 1.378 . S
C786 C790 1.350 . S
C787 C790 1.463 . S
C787 C792 1.350 . S
C787 N795 1.427 . S
C788 H779 0.965 . S
C788 C786 1.378 . S
C788 C789 1.367 . S
C789 C788 1.367 . S
C789 C791 1.433 . S
C790 C786 1.350 . S
C790 C787 1.463 . S
C790 N794 1.427 . S
C791 H781 0.929 . S
C791 C789 1.433 . S
C791 N794 1.384 . S
C792 H783 0.929 . S
C792 C784 1.378 . S
C792 C787 1.350 . S
C793 H780 0.929 . S
C793 C785 1.433 . S
C793 N795 1.384 . S
N794 C790 1.427 . S
N794 C791 1.384 . S
N795 C787 1.427 . S
N795 C793 1.384 . S
H796 C802 0.930 . S
H797 C806 0.930 . S
H798 C811 0.929 . S
H799 C809 0.929 . S
H800 C804 0.929 . S
H801 C810 0.929 . S
C802 H796 0.930 . S
C802 C803 1.367 . S
C802 C810 1.378 . S
C803 C802 1.367 . S
C803 C811 1.433 . S
C804 H800 0.929 . S
C804 C806 1.378 . S
C804 C808 1.350 . S
C805 C808 1.463 . S
C805 C810 1.350 . S
C805 N813 1.427 . S
C806 H797 0.930 . S
C806 C804 1.378 . S
C806 C807 1.367 . S
C807 C806 1.367 . S
C807 C809 1.433 . S
C808 C804 1.350 . S
C808 C805 1.463 . S
C808 N812 1.427 . S
C809 H799 0.929 . S
C809 C807 1.433 . S
C809 N812 1.384 . S
C810 H801 0.929 . S
C810 C802 1.378 . S
C810 C805 1.350 . S
C811 H798 0.929 . S
C811 C803 1.433 . S
C811 N813 1.384 . S
N812 C808 1.427 . S
N812 C809 1.384 . S
N813 C805 1.427 . S
N813 C811 1.384 . S
H814 C820 0.930 . S
H815 C824 0.930 . S
H816 C829 0.929 . S
H817 C827 0.929 . S
H818 C822 0.929 . S
H819 C828 0.929 . S
C820 H814 0.930 . S
C820 C821 1.367 . S
C820 C828 1.378 . S
C821 C820 1.367 . S
C821 C829 1.433 . S
C822 H818 0.929 . S
C822 C824 1.378 . S
C822 C826 1.350 . S
C823 C826 1.463 . S
C823 C828 1.350 . S
C823 N831 1.427 . S
C824 H815 0.930 . S
C824 C822 1.378 . S
C824 C825 1.367 . S
C825 C824 1.367 . S
C825 C827 1.433 . S
C826 C822 1.350 . S
C826 C823 1.463 . S
C826 N830 1.427 . S
C827 H817 0.929 . S
C827 C825 1.433 . S
C827 N830 1.384 . S
C828 H819 0.929 . S
C828 C820 1.378 . S
C828 C823 1.350 . S
C829 H816 0.929 . S
C829 C821 1.433 . S
C829 N831 1.384 . S
N830 C826 1.427 . S
N830 C827 1.384 . S
N831 C823 1.427 . S
N831 C829 1.384 . S
C407 C21 1.547 . S
C411 C322 1.634 . S
C425 C61 1.381 . S
C429 C341 1.376 . S
C447 C378 1.684 . S
C443 C82 1.699 . S
C461 C135 1.717 . S
C465 C388 1.665 . S
C483 C358 2.100 . S
C479 C15 2.039 . S
C501 C328 1.466 . S
C497 C42 1.516 . S
C519 C399 1.493 . S
C515 C101 1.506 . S
C537 C369 1.357 . S
C533 C122 1.385 . S
C551 C2 1.780 . S
C555 C382 1.863 . S
C573 C349 1.647 . S
C569 C95 1.694 . S
C587 C141 1.777 . S
C591 C339 1.774 . S
C605 C55 1.255 . S
C609 C361 1.251 . S
C627 C321 1.655 . S
C623 C181 1.657 . S
C641 C202 1.352 . S
C645 C342 1.363 . S
C659 C255 1.731 . S
C663 C379 1.705 . S
C677 C295 1.696 . S
C681 C389 1.644 . S
C695 C175 2.028 . S
C699 C359 2.082 . S
C717 C329 1.478 . S
C713 C221 1.518 . S
C735 C398 1.435 . S
C731 C242 1.455 . S
C753 C368 1.428 . S
C749 C301 1.454 . S
C767 C162 1.837 . S
C771 C381 1.837 . S
C789 C348 1.680 . S
C785 C261 1.712 . S
C807 C338 1.754 . S
C803 C282 1.750 . S
C821 C215 1.289 . S
C825 C362 1.302 . S
