# Generated by pormake.
# Topology zzz, (3,6)-cn, num edge types: 1
# Building blocks:
#     Node 0, Type 0, BuildingBlock: OLANEW_clean_sbu_2, # of connection points: 3
#     Node 1, Type 0, BuildingBlock: OLANEW_clean_sbu_2, # of connection points: 3
#     Node 2, Type 0, BuildingBlock: OLANEW_clean_sbu_2, # of connection points: 3
#     Node 3, Type 0, BuildingBlock: OLANEW_clean_sbu_2, # of connection points: 3
#     Node 4, Type 0, BuildingBlock: OLANEW_clean_sbu_2, # of connection points: 3
#     Node 5, Type 0, BuildingBlock: OLANEW_clean_sbu_2, # of connection points: 3
#     Node 6, Type 0, BuildingBlock: OLANEW_clean_sbu_2, # of connection points: 3
#     Node 7, Type 0, BuildingBlock: OLANEW_clean_sbu_2, # of connection points: 3
#     Node 8, Type 1, BuildingBlock: PAMTOO_clean_sbu_0, # of connection points: 6
#     Node 9, Type 1, BuildingBlock: PAMTOO_clean_sbu_0, # of connection points: 6
#     Node 10, Type 1, BuildingBlock: PAMTOO_clean_sbu_0, # of connection points: 6
#     Node 11, Type 1, BuildingBlock: PAMTOO_clean_sbu_0, # of connection points: 6
#     Edge 12, Type (0, 1), BuildingBlock: UVAHIK_clean_linker_0, # of connection points: 2
#     Edge 13, Type (0, 1), BuildingBlock: UVAHIK_clean_linker_0, # of connection points: 2
#     Edge 14, Type (0, 1), BuildingBlock: UVAHIK_clean_linker_0, # of connection points: 2
#     Edge 15, Type (0, 1), BuildingBlock: UVAHIK_clean_linker_0, # of connection points: 2
#     Edge 16, Type (0, 1), BuildingBlock: UVAHIK_clean_linker_0, # of connection points: 2
#     Edge 17, Type (0, 1), BuildingBlock: UVAHIK_clean_linker_0, # of connection points: 2
#     Edge 18, Type (0, 1), BuildingBlock: UVAHIK_clean_linker_0, # of connection points: 2
#     Edge 19, Type (0, 1), BuildingBlock: UVAHIK_clean_linker_0, # of connection points: 2
#     Edge 20, Type (0, 1), BuildingBlock: UVAHIK_clean_linker_0, # of connection points: 2
#     Edge 21, Type (0, 1), BuildingBlock: UVAHIK_clean_linker_0, # of connection points: 2
#     Edge 22, Type (0, 1), BuildingBlock: UVAHIK_clean_linker_0, # of connection points: 2
#     Edge 23, Type (0, 1), BuildingBlock: UVAHIK_clean_linker_0, # of connection points: 2
#     Edge 24, Type (0, 1), BuildingBlock: UVAHIK_clean_linker_0, # of connection points: 2
#     Edge 25, Type (0, 1), BuildingBlock: UVAHIK_clean_linker_0, # of connection points: 2
#     Edge 26, Type (0, 1), BuildingBlock: UVAHIK_clean_linker_0, # of connection points: 2
#     Edge 27, Type (0, 1), BuildingBlock: UVAHIK_clean_linker_0, # of connection points: 2
#     Edge 28, Type (0, 1), BuildingBlock: UVAHIK_clean_linker_0, # of connection points: 2
#     Edge 29, Type (0, 1), BuildingBlock: UVAHIK_clean_linker_0, # of connection points: 2
#     Edge 30, Type (0, 1), BuildingBlock: UVAHIK_clean_linker_0, # of connection points: 2
#     Edge 31, Type (0, 1), BuildingBlock: UVAHIK_clean_linker_0, # of connection points: 2
#     Edge 32, Type (0, 1), BuildingBlock: UVAHIK_clean_linker_0, # of connection points: 2
#     Edge 33, Type (0, 1), BuildingBlock: UVAHIK_clean_linker_0, # of connection points: 2
#     Edge 34, Type (0, 1), BuildingBlock: UVAHIK_clean_linker_0, # of connection points: 2
#     Edge 35, Type (0, 1), BuildingBlock: UVAHIK_clean_linker_0, # of connection points: 2
# Relax obj value: 0.169
# Max RMSD: 0.225
# Mean RMSD: 0.127
data_MOF--net-zzz--node1-OLANEW_clean_sbu_2--node2-PAMTOO_clean_sbu_0--edge1-UVAHIK_clean_linker_0
_symmetry_space_group_name_H-M    P1
_symmetry_Int_Tables_number       1
_symmetry_cell_setting            triclinic
loop_
_symmetry_equiv_pos_as_xyz
'x, y, z'
_cell_length_a     76.062696
_cell_length_b     66.951007
_cell_length_c     22.352616
_cell_angle_alpha  90.251116
_cell_angle_beta   82.087625
_cell_angle_gamma 85.970296
loop_
_atom_site_label
_atom_site_type_symbol
_atom_site_fract_x
_atom_site_fract_y
_atom_site_fract_z
_atom_type_partial_charge
O0 O 0.75276 0.55566 0.31928 0.0
Cd1 Cd 0.72417 0.56371 0.38153 0.0
O2 O 0.75679 0.53283 0.38629 0.0
Cd3 Cd 0.77321 0.51198 0.43242 0.0
O4 O 0.79879 0.50914 0.46405 0.0
C5 C 0.80037 0.51492 0.51707 0.0
O6 O 0.78607 0.52093 0.5544 0.0
C7 C 0.76245 0.54136 0.33734 0.0
C8 C 0.69819 0.55217 0.31552 0.0
O9 O 0.70348 0.56994 0.31231 0.0
O10 O 0.70474 0.53997 0.35207 0.0
O11 O 0.96844 0.72414 0.26137 0.0
Cd12 Cd 0.96452 0.69764 0.33527 0.0
O13 O 0.9941 0.72272 0.29382 0.0
Cd14 Cd 0.01927 0.73086 0.31949 0.0
O15 O 0.0191 0.75564 0.38275 0.0
C16 C 0.00367 0.76441 0.39631 0.0
O17 O 0.99027 0.75757 0.37321 0.0
C18 C 0.98378 0.73069 0.25888 0.0
C19 C 0.97631 0.66313 0.26952 0.0
O20 O 0.95968 0.66852 0.28111 0.0
O21 O 0.98736 0.67348 0.29229 0.0
O22 O 0.75154 0.9657 0.15747 0.0
Cd23 Cd 0.77669 0.96062 0.21299 0.0
O24 O 0.75053 -0.00318 0.18833 0.0
Cd25 Cd 0.73588 0.0251 0.21669 0.0
O26 O 0.7124 0.02648 0.2839 0.0
C27 C 0.71069 0.01028 0.31294 0.0
O28 O 0.72321 -0.00433 0.3019 0.0
C29 C 0.74401 0.98326 0.15987 0.0
C30 C 0.80744 0.96924 0.13915 0.0
O31 O 0.80204 0.95151 0.14165 0.0
O32 O 0.79833 0.98297 0.17249 0.0
O33 O 0.57511 0.70231 0.97038 0.0
Cd34 Cd 0.58655 0.7306 0.01683 0.0
O35 O 0.5515 0.71116 0.03361 0.0
Cd36 Cd 0.5267 0.71093 0.09506 0.0
O37 O 0.52175 0.69284 0.17482 0.0
C38 C 0.53499 0.68073 0.18105 0.0
O39 O 0.54933 0.68071 0.14082 0.0
C40 C 0.55935 0.699 0.99284 0.0
C41 C 0.57087 0.7658 0.97696 0.0
O42 O 0.58571 0.7579 0.94998 0.0
O43 O 0.56344 0.75711 0.0238 0.0
O44 O 0.25603 0.45242 0.03746 0.0
Cd45 Cd 0.28439 0.44578 0.97257 0.0
O46 O 0.23852 0.43151 0.00216 0.0
Cd47 Cd 0.25113 0.4279 0.90861 0.0
O48 O 0.22972 0.43402 0.85287 0.0
C49 C 0.21896 0.44874 0.8726 0.0
O50 O 0.22268 0.45937 0.91821 0.0
C51 C 0.24151 0.44386 0.04231 0.0
C52 C 0.31019 0.45154 0.04799 0.0
O53 O 0.30445 0.46587 0.01638 0.0
O54 O 0.30435 0.43425 0.04186 0.0
O55 O 0.00244 0.27788 0.1363 0.0
Cd56 Cd 0.006 0.30523 0.06489 0.0
O57 O 0.02998 0.2697 0.0974 0.0
Cd58 Cd 0.0533 0.24881 0.08062 0.0
O59 O 0.05434 0.22039 0.0338 0.0
C60 C 0.05045 0.22057 0.98032 0.0
O61 O 0.04877 0.23773 0.95268 0.0
C62 C 0.01628 0.26601 0.13391 0.0
C63 C 0.01694 0.33641 0.12859 0.0
O64 O 0.00061 0.33583 0.12069 0.0
O65 O 0.02825 0.32274 0.10363 0.0
O66 O 0.26187 0.9852 0.2374 0.0
Cd67 Cd 0.23751 0.98328 0.1778 0.0
O68 O 0.27179 0.00695 0.1718 0.0
Cd69 Cd 0.28662 0.02804 0.1146 0.0
O70 O 0.28283 0.04554 0.02949 0.0
C71 C 0.29232 0.04205 0.97819 0.0
O72 O 0.28226 0.04622 0.02942 0.0
C73 C 0.27377 -0.00303 0.21897 0.0
C74 C 0.20518 0.98896 0.25217 0.0
O75 O 0.21371 0.97171 0.24565 0.0
O76 O 0.21182 0.00365 0.22258 0.0
O77 O 0.44938 0.2741 0.39833 0.0
Cd78 Cd 0.43812 0.24783 0.34251 0.0
O79 O 0.42811 0.29345 0.36905 0.0
Cd80 Cd 0.41636 0.32108 0.33701 0.0
O81 O 0.42689 0.33911 0.26263 0.0
C82 C 0.44371 0.33679 0.24991 0.0
O83 O 0.45271 0.32474 0.28275 0.0
C84 C 0.44193 0.29152 0.39537 0.0
C85 C 0.45129 0.21233 0.38656 0.0
O86 O 0.46045 0.22109 0.34327 0.0
O87 O 0.4357 0.22005 0.40687 0.0
Dy88 Dy 0.99475 0.00857 0.6392 0.0
Dy89 Dy 0.0132 0.98654 0.75086 0.0
C90 C 0.03713 0.00136 0.63409 0.0
O91 O 0.98876 0.9763 0.63475 0.0
O92 O 0.01269 0.96383 0.67862 0.0
O93 O 0.99263 0.01292 0.54439 0.0
O94 O 0.97536 0.03063 0.61273 0.0
O95 O 0.98456 0.98052 0.76356 0.0
O96 O 0.97457 0.0095 0.72201 0.0
O97 O 0.00706 0.01882 0.77731 0.0
O98 O 0.00834 0.03194 0.68232 0.0
O99 O 0.0126 0.98034 0.84586 0.0
O100 O 0.03381 0.96665 0.78078 0.0
C101 C 0.99953 0.96119 0.64784 0.0
O102 O 0.02341 0.00131 0.60421 0.0
O103 O 0.03555 -0.00024 0.69311 0.0
C104 C 0.98549 0.04681 0.52292 0.0
C105 C 0.99299 0.08294 0.46306 0.0
C106 C 0.00179 0.07689 0.51206 0.0
C107 C 0.99812 0.05894 0.54154 0.0
C108 C 0.97668 0.05276 0.4742 0.0
C109 C 0.98043 0.07063 0.44439 0.0
C110 C 0.98109 0.02831 0.55529 0.0
C111 C 0.97188 0.9944 0.7584 0.0
C112 C 0.00835 0.03411 0.7406 0.0
C113 C 0.02339 0.94706 0.86389 0.0
C114 C 0.01901 0.90878 0.91488 0.0
C115 C 0.00433 0.92054 0.89883 0.0
C116 C 0.0065 0.93943 0.87335 0.0
C117 C 0.03807 0.93536 0.8793 0.0
C118 C 0.03593 0.91642 0.90439 0.0
C119 C 0.026 0.96687 0.83649 0.0
H120 H 0.01165 0.08592 0.52714 0.0
H121 H 0.00509 0.05456 0.57908 0.0
H122 H 0.96682 0.04365 0.45946 0.0
H123 H 0.97329 0.07498 0.40725 0.0
H124 H 0.99106 0.91533 0.90684 0.0
H125 H 0.99496 0.94807 0.86124 0.0
H126 H 0.05125 0.94086 0.87167 0.0
H127 H 0.0476 0.90769 0.91506 0.0
Dy128 Dy 0.49777 0.98165 0.65031 0.0
Dy129 Dy 0.5137 0.00315 0.76407 0.0
C130 C 0.49847 0.02925 0.66402 0.0
O131 O 0.52723 0.97522 0.63173 0.0
O132 O 0.53415 0.00284 0.68244 0.0
O133 O 0.49557 0.97929 0.55514 0.0
O134 O 0.48103 0.96019 0.61911 0.0
O135 O 0.52319 0.97095 0.76298 0.0
O136 O 0.50093 0.95805 0.71873 0.0
O137 O 0.48598 -0.00384 0.80002 0.0
O138 O 0.47448 -0.00405 0.71029 0.0
O139 O 0.51877 0.00365 0.85673 0.0
O140 O 0.52784 0.02707 0.79606 0.0
C141 C 0.53847 0.98841 0.64205 0.0
O142 O 0.50145 0.01364 0.62728 0.0
O143 O 0.49822 0.02743 0.72251 0.0
C144 C 0.46681 0.97161 0.53788 0.0
C145 C 0.43392 0.98009 0.49519 0.0
C146 C 0.44194 -0.00485 0.52355 0.0
C147 C 0.4582 0.99091 0.54509 0.0
C148 C 0.45899 0.95666 0.50888 0.0
C149 C 0.44268 0.96084 0.48777 0.0
C150 C 0.48328 0.96655 0.5638 0.0
C151 C 0.51368 0.95602 0.75265 0.0
C152 C 0.47237 -0.00356 0.76958 0.0
C153 C 0.54628 0.01645 0.86759 0.0
C154 C 0.58044 0.012 0.90368 0.0
C155 C 0.57427 -0.00321 0.87003 0.0
C156 C 0.55736 -0.00098 0.85199 0.0
C157 C 0.55243 0.03175 0.90042 0.0
C158 C 0.56936 0.02957 0.91831 0.0
C159 C 0.5285 0.01896 0.84866 0.0
H160 H 0.43542 0.01006 0.53032 0.0
H161 H 0.46394 0.0026 0.56815 0.0
H162 H 0.46539 0.94166 0.50327 0.0
H163 H 0.43694 0.94899 0.46546 0.0
H164 H 0.58256 0.98321 0.85726 0.0
H165 H 0.55293 0.98714 0.82589 0.0
H166 H 0.54409 0.04535 0.91248 0.0
H167 H 0.57363 0.04148 0.94467 0.0
Dy168 Dy 0.53057 0.49026 0.68728 0.0
Dy169 Dy 0.48326 0.4922 0.6789 0.0
C170 C 0.50231 0.46697 0.7814 0.0
O171 O 0.52925 0.47029 0.60946 0.0
O172 O 0.50137 0.46483 0.65274 0.0
O173 O 0.55759 0.48002 0.69753 0.0
O174 O 0.54848 0.51147 0.71195 0.0
O175 O 0.49571 0.51421 0.61346 0.0
O176 O 0.52674 0.50867 0.60697 0.0
O177 O 0.48024 0.51873 0.7423 0.0
O178 O 0.50882 0.51039 0.72921 0.0
O179 O 0.4684 0.47692 0.62062 0.0
O180 O 0.45417 0.49513 0.69478 0.0
C181 C 0.51397 0.46282 0.60622 0.0
O182 O 0.51888 0.46925 0.75672 0.0
O183 O 0.48791 0.47586 0.76298 0.0
C184 C 0.5715 0.49908 0.76536 0.0
C185 C 0.59094 0.50356 0.86278 0.0
C186 C 0.57438 0.49506 0.8718 0.0
C187 C 0.56467 0.49292 0.8234 0.0
C188 C 0.58807 0.5073 0.75624 0.0
C189 C 0.5977 0.5095 0.80434 0.0
C190 C 0.56152 0.49781 0.71375 0.0
C191 C 0.5122 0.51772 0.59061 0.0
C192 C 0.4959 0.52247 0.75436 0.0
C193 C 0.43904 0.48841 0.60979 0.0
C194 C 0.41471 0.48848 0.52496 0.0
C195 C 0.43089 0.49759 0.51145 0.0
C196 C 0.44301 0.49747 0.55343 0.0
C197 C 0.42245 0.48051 0.62477 0.0
C198 C 0.41039 0.48054 0.58285 0.0
C199 C 0.45292 0.48359 0.6485 0.0
H200 H 0.56878 0.49049 0.9164 0.0
H201 H 0.55181 0.48668 0.8313 0.0
H202 H 0.59352 0.51216 0.71177 0.0
H203 H 0.61052 0.51582 0.7957 0.0
H204 H 0.43466 0.50375 0.46719 0.0
H205 H 0.45584 0.50346 0.54064 0.0
H206 H 0.41919 0.47328 0.66777 0.0
H207 H 0.39793 0.47369 0.59502 0.0
Dy208 Dy 0.01659 0.50441 0.65023 0.0
Dy209 Dy 0.99749 0.48008 0.76815 0.0
C210 C 0.00566 0.46083 0.63964 0.0
O211 O 0.98843 0.51696 0.65953 0.0
O212 O 0.97557 0.49206 0.71837 0.0
O213 O 0.02319 0.50468 0.55333 0.0
O214 O 0.03229 0.52757 0.6077 0.0
O215 O 0.9926 0.51267 0.78838 0.0
O216 O 0.01717 0.52391 0.73111 0.0
O217 O 0.0262 0.48146 0.77972 0.0
O218 O 0.03734 0.48279 0.67935 0.0
O219 O 0.99343 0.47487 0.86421 0.0
O220 O 0.97916 0.45843 0.80492 0.0
C221 C 0.97445 0.50783 0.6837 0.0
O222 O 0.00204 0.47913 0.623 0.0
O223 O 0.0083 0.45739 0.69555 0.0
C224 C 0.0512 0.51625 0.51982 0.0
C225 C 0.08497 0.50925 0.45026 0.0
C226 C 0.07887 0.49567 0.49504 0.0
C227 C 0.06215 0.49916 0.52957 0.0
C228 C 0.05725 0.52995 0.47593 0.0
C229 C 0.07401 0.52653 0.44151 0.0
C230 C 0.03329 0.51956 0.55399 0.0
C231 C 0.00404 0.52632 0.77577 0.0
C232 C 0.03961 0.47952 0.73569 0.0
C233 C 0.96321 0.46946 0.8991 0.0
C234 C 0.92984 0.48074 0.9688 0.0
C235 C 0.9423 0.49504 0.95211 0.0
C236 C 0.9587 0.4895 0.91744 0.0
C237 C 0.95091 0.45513 0.91573 0.0
C238 C 0.93441 0.46068 0.95002 0.0
C239 C 0.98029 0.46355 0.86061 0.0
H240 H 0.0868 0.48206 0.50242 0.0
H241 H 0.05766 0.48836 0.56321 0.0
H242 H 0.04896 0.54323 0.46794 0.0
H243 H 0.07836 0.53743 0.40805 0.0
H244 H 0.93949 0.51055 0.9663 0.0
H245 H 0.96784 0.50096 0.90485 0.0
H246 H 0.95398 0.43963 0.90158 0.0
H247 H 0.92513 0.44926 0.96091 0.0
C248 C 0.1843 0.9779 0.33939 0.0
C249 C 0.18831 0.99176 0.29353 0.0
C250 C 0.16841 0.98032 0.37882 0.0
C251 C 0.13035 0.01727 0.43177 0.0
H252 H 0.10789 0.96919 0.48738 0.0
C253 C 0.05693 0.01256 0.54395 0.0
C254 C 0.05495 0.00274 0.59965 0.0
C255 C 0.07368 0.01288 0.50952 0.0
C256 C 0.11412 0.98271 0.47248 0.0
H257 H 0.17889 0.01906 0.25274 0.0
H258 H 0.15066 0.02283 0.31981 0.0
H259 H 0.13582 0.96628 0.41928 0.0
H260 H 0.06882 0.98578 0.66348 0.0
H261 H 0.09809 0.98574 0.60194 0.0
H262 H 0.10789 0.03356 0.48321 0.0
C263 C 0.16001 0.01039 0.32667 0.0
C264 C 0.13018 0.9811 0.43374 0.0
C265 C 0.17613 0.00817 0.28788 0.0
C266 C 0.07002 0.99352 0.62081 0.0
C267 C 0.0867 0.99344 0.58569 0.0
C268 C 0.11405 0.01886 0.46962 0.0
C269 C 0.15591 -0.00357 0.37256 0.0
C270 C 0.13861 -0.00165 0.41318 0.0
C271 C 0.08861 0.003 0.52965 0.0
C272 C 0.10591 0.00157 0.4905 0.0
H273 H 0.19357 0.96526 0.34536 0.0
H274 H 0.16601 0.96956 0.4145 0.0
H275 H 0.13653 0.03088 0.41771 0.0
H276 H 0.04552 0.01989 0.52683 0.0
H277 H 0.07489 0.02025 0.46623 0.0
C278 C 0.47697 0.18843 0.40271 0.0
C279 C 0.45871 0.19434 0.41451 0.0
C280 C 0.48405 0.17208 0.43254 0.0
C281 C 0.47366 0.14042 0.56656 0.0
H282 H 0.5063 0.10067 0.47545 0.0
C283 C 0.49648 0.06665 0.67386 0.0
C284 C 0.49622 0.04936 0.6382 0.0
C285 C 0.49482 0.08563 0.64863 0.0
C286 C 0.49718 0.11165 0.50148 0.0
H287 H 0.4335 0.18763 0.46555 0.0
H288 H 0.44569 0.1589 0.51604 0.0
H289 H 0.49757 0.13168 0.42708 0.0
H290 H 0.49403 0.0384 0.54818 0.0
H291 H 0.49065 0.0714 0.50476 0.0
H292 H 0.47243 0.11998 0.6398 0.0
C293 C 0.45467 0.16715 0.48522 0.0
C294 C 0.49236 0.12951 0.47399 0.0
C295 C 0.44764 0.18349 0.4558 0.0
C296 C 0.49433 0.05142 0.57687 0.0
C297 C 0.49258 0.07036 0.55178 0.0
C298 C 0.4784 0.12254 0.59389 0.0
C299 C 0.47296 0.16137 0.47442 0.0
C300 C 0.48011 0.14379 0.50572 0.0
C301 C 0.49278 0.08768 0.58735 0.0
C302 C 0.4898 0.10771 0.56109 0.0
H303 H 0.48584 0.19663 0.37137 0.0
H304 H 0.4982 0.16802 0.42349 0.0
H305 H 0.4645 0.15136 0.59257 0.0
H306 H 0.4981 0.06556 0.72114 0.0
H307 H 0.49519 0.09869 0.67707 0.0
C308 C 0.32717 0.43978 0.13148 0.0
C309 C 0.32228 0.45515 0.09304 0.0
C310 C 0.33729 0.44364 0.17746 0.0
C311 C 0.36734 0.47946 0.228 0.0
H312 H 0.35317 0.4573 0.38581 0.0
C313 C 0.3996 0.50109 0.4373 0.0
C314 C 0.40311 0.48568 0.47746 0.0
C315 C 0.38934 0.49792 0.39108 0.0
C316 C 0.35746 0.46344 0.34191 0.0
H317 H 0.32458 0.48654 0.07201 0.0
H318 H 0.34223 0.49324 0.15211 0.0
H319 H 0.33681 0.45022 0.30274 0.0
H320 H 0.3988 0.45475 0.49977 0.0
H321 H 0.38117 0.44916 0.41923 0.0
H322 H 0.38811 0.49252 0.26691 0.0
C323 C 0.33832 0.47817 0.14651 0.0
C324 C 0.34806 0.45936 0.29422 0.0
C325 C 0.32815 0.47434 0.10067 0.0
C326 C 0.39606 0.46709 0.47043 0.0
C327 C 0.38592 0.46388 0.42413 0.0
C328 C 0.3768 0.48348 0.27564 0.0
C329 C 0.34282 0.46294 0.18598 0.0
C330 C 0.35291 0.46726 0.23661 0.0
C331 C 0.38246 0.47921 0.38362 0.0
C332 C 0.37203 0.47547 0.33324 0.0
H333 H 0.3229 0.42482 0.12685 0.0
H334 H 0.34075 0.43149 0.20647 0.0
H335 H 0.37155 0.48562 0.18404 0.0
H336 H 0.40472 0.51563 0.44179 0.0
H337 H 0.38673 0.51018 0.36136 0.0
C338 C 0.03666 0.3463 0.20227 0.0
C339 C 0.02211 0.35106 0.17106 0.0
C340 C 0.03956 0.35825 0.25085 0.0
C341 C 0.03046 0.40724 0.32335 0.0
H342 H 0.02233 0.37963 0.47604 0.0
C343 C 0.00147 0.44909 0.53804 0.0
C344 C 0.00858 0.44523 0.5919 0.0
C345 C 0.00662 0.4369 0.48738 0.0
C346 C 0.02506 0.38746 0.43386 0.0
H347 H 3e-05 0.3727 0.16296 0.0
H348 H 0.00553 0.39399 0.2466 0.0
H349 H 0.02646 0.36045 0.38095 0.0
H350 H 0.02599 0.42492 0.63607 0.0
H351 H 0.03484 0.40304 0.54658 0.0
H352 H 0.02865 0.43428 0.37568 0.0
C353 C 0.01448 0.38088 0.23397 0.0
C354 C 0.0274 0.37652 0.37957 0.0
C355 C 0.01131 0.3687 0.18635 0.0
C356 C 0.02022 0.42814 0.59518 0.0
C357 C 0.02539 0.41577 0.54396 0.0
C358 C 0.02835 0.41813 0.37747 0.0
C359 C 0.02827 0.37538 0.26775 0.0
C360 C 0.02947 0.38643 0.32404 0.0
C361 C 0.01901 0.42046 0.4891 0.0
C362 C 0.02485 0.40845 0.43318 0.0
H363 H 0.04513 0.33271 0.19159 0.0
H364 H 0.05027 0.35379 0.27642 0.0
H365 H 0.03218 0.41512 0.28095 0.0
H366 H 0.99229 0.46201 0.53427 0.0
H367 H 0.00101 0.44053 0.44644 0.0
C368 C 0.82989 0.99295 0.09637 0.0
C369 C 0.82377 0.97358 0.09907 0.0
C370 C 0.84562 -0.00326 0.05922 0.0
C371 C 0.88755 0.97136 0.99169 0.0
H372 H 0.89072 0.01474 0.87723 0.0
C373 C 0.94831 0.97448 0.81167 0.0
C374 C 0.95446 0.9932 0.79534 0.0
C375 C 0.93207 0.97322 0.84836 0.0
C376 C 0.89016 0.00275 0.90962 0.0
H377 H 0.82908 0.94317 0.06384 0.0
H378 H 0.85649 0.94979 -0.00042 0.0
H379 H 0.86279 0.01095 0.94341 0.0
H380 H 0.94868 0.02531 0.80424 0.0
H381 H 0.9206 0.02319 0.87082 0.0
H382 H 0.91483 0.96328 0.95963 0.0
C383 C 0.84922 0.96196 0.02654 0.0
C384 C 0.87415 0.00057 0.9473 0.0
C385 C 0.8335 0.9582 0.06324 0.0
C386 C 0.94409 0.01068 0.81594 0.0
C387 C 0.928 0.00944 0.85383 0.0
C388 C 0.90356 0.97367 0.95481 0.0
C389 C 0.85551 0.98118 0.02466 0.0
C390 C 0.87265 0.98461 0.98778 0.0
C391 C 0.92184 0.99067 0.87082 0.0
C392 C 0.90499 0.98913 0.9124 0.0
H393 H 0.82263 0.00513 0.12334 0.0
H394 H 0.85026 0.01168 0.05859 0.0
H395 H 0.88681 0.95916 0.02341 0.0
H396 H 0.956 0.96079 0.79568 0.0
H397 H 0.92755 0.95851 0.85901 0.0
C398 C 0.54594 0.79267 0.98126 0.0
C399 C 0.56282 0.78459 0.95491 0.0
C400 C 0.53883 0.81091 0.96137 0.0
C401 C 0.55364 0.85688 0.88928 0.0
H402 H 0.50508 0.86666 0.85615 0.0
C403 C 0.52723 0.93522 0.82897 0.0
C404 C 0.51736 0.93649 0.78032 0.0
C405 C 0.53094 0.91678 0.85497 0.0
C406 C 0.51869 0.8641 0.8651 0.0
H407 H 0.58517 0.78891 0.88582 0.0
H408 H 0.57282 0.82059 0.85151 0.0
H409 H 0.51511 0.83363 0.89082 0.0
H410 H 0.50331 0.91953 0.72144 0.0
H411 H 0.5103 0.88716 0.76573 0.0
H412 H 0.55754 0.88693 0.86228 0.0
C413 C 0.56517 0.81299 0.8879 0.0
C414 C 0.52436 0.84529 0.88541 0.0
C415 C 0.57221 0.7948 0.90743 0.0
C416 C 0.51097 0.919 0.7589 0.0
C417 C 0.51485 0.90049 0.78457 0.0
C418 C 0.54801 0.87559 0.8692 0.0
C419 C 0.54856 0.8214 0.91524 0.0
C420 C 0.54197 0.84147 0.89689 0.0
C421 C 0.52505 0.89916 0.83244 0.0
C422 C 0.53052 0.87941 0.85645 0.0
H423 H 0.53833 0.78505 0.01767 0.0
H424 H 0.52599 0.8171 0.98325 0.0
H425 H 0.56723 0.85443 0.89857 0.0
H426 H 0.53207 0.94848 0.84717 0.0
H427 H 0.53853 0.91632 0.89258 0.0
C428 C 0.68046 0.55862 0.23084 0.0
C429 C 0.68582 0.54561 0.27509 0.0
C430 C 0.67021 0.55202 0.18861 0.0
C431 C 0.63956 0.51481 0.15753 0.0
H432 H 0.65438 0.52904 0.99111 0.0
C433 C 0.60338 0.49172 0.95647 0.0
C434 C 0.60114 0.50673 0.91378 0.0
C435 C 0.61393 0.49454 0.00212 0.0
C436 C 0.64998 0.52506 0.0374 0.0
H437 H 0.6841 0.51565 0.31109 0.0
H438 H 0.66592 0.50417 0.23717 0.0
H439 H 0.67221 0.53756 0.0687 0.0
H440 H 0.60742 0.53682 0.88745 0.0
H441 H 0.62559 0.54179 0.96683 0.0
H442 H 0.61706 0.50268 0.12612 0.0
C443 C 0.66977 0.51945 0.23531 0.0
C444 C 0.66021 0.52992 0.0818 0.0
C445 C 0.68018 0.52603 0.27749 0.0
C446 C 0.60921 0.52479 0.91879 0.0
C447 C 0.61967 0.52761 0.96423 0.0
C448 C 0.62922 0.50999 0.11295 0.0
C449 C 0.66498 0.5323 0.18978 0.0
C450 C 0.65489 0.52529 0.1425 0.0
C451 C 0.62239 0.51243 0.0059 0.0
C452 C 0.63411 0.51553 0.05262 0.0
H453 H 0.68452 0.57381 0.22782 0.0
H454 H 0.66644 0.56236 0.15466 0.0
H455 H 0.63517 0.51106 0.20403 0.0
H456 H 0.59739 0.4776 0.95356 0.0
H457 H 0.61582 0.48254 0.03348 0.0
C458 C -0.00017 0.64619 0.19338 0.0
C459 C 0.98256 0.64684 0.22561 0.0
C460 C 0.00466 0.63303 0.1442 0.0
C461 C 0.99187 0.58761 0.07304 0.0
H462 H 0.01061 0.61111 0.921 0.0
C463 C 0.98623 0.5487 0.85361 0.0
C464 C 0.00231 0.54414 0.81559 0.0
C465 C 0.98523 0.56301 0.89939 0.0
C466 C 0.00556 0.60437 0.9633 0.0
H467 H 0.95721 0.63349 0.23427 0.0
H468 H 0.96571 0.61031 0.14939 0.0
H469 H 0.00745 0.63104 0.01489 0.0
H470 H 0.02944 0.55236 0.79151 0.0
H471 H 0.02765 0.57753 0.87272 0.0
H472 H 0.98955 0.56118 0.02182 0.0
C473 C 0.97549 0.62002 0.16169 0.0
C474 C 0.00384 0.61567 0.01691 0.0
C475 C 0.97059 0.63332 0.21019 0.0
C476 C 0.01693 0.55546 0.82067 0.0
C477 C 0.01592 0.56986 0.86691 0.0
C478 C 0.99354 0.57641 0.01977 0.0
C479 C 0.9924 0.62011 0.12727 0.0
C480 C 0.99659 0.60749 0.07201 0.0
C481 C 0.00028 0.57301 0.90823 0.0
C482 C -3e-05 0.58483 0.96429 0.0
H483 H 0.0093 0.65654 0.20415 0.0
H484 H 0.01783 0.63324 0.11867 0.0
H485 H 0.98653 0.58086 0.11499 0.0
H486 H 0.9746 0.54057 0.84983 0.0
H487 H 0.97288 0.56559 0.92983 0.0
C488 C 0.0193 0.22883 0.14095 0.0
C489 C 0.01595 0.24761 0.16982 0.0
C490 C 0.01795 0.21128 0.17445 0.0
C491 C 0.01842 0.19004 0.32546 0.0
H492 H 0.98935 0.1507 0.26816 0.0
C493 C 0.99822 0.11971 0.46364 0.0
C494 C 0.9969 0.10194 0.43121 0.0
C495 C 0.00125 0.13769 0.43331 0.0
C496 C 0.99777 0.16131 0.28443 0.0
H497 H 0.00881 0.26301 0.25595 0.0
H498 H 0.00676 0.2322 0.31515 0.0
H499 H 0.994 0.1814 0.2123 0.0
H500 H 0.99851 0.08898 0.34151 0.0
H501 H 0.00416 0.12005 0.28865 0.0
H502 H 0.02247 0.16976 0.39707 0.0
C503 C 0.01044 0.23105 0.26663 0.0
C504 C 0.00036 0.17897 0.25241 0.0
C505 C 0.01151 0.24862 0.23288 0.0
C506 C 0.99911 0.10248 0.36784 0.0
C507 C 0.0023 0.12036 0.33756 0.0
C508 C 0.016 0.17219 0.35723 0.0
C509 C 0.01337 0.21219 0.23761 0.0
C510 C 0.01075 0.1935 0.27237 0.0
C511 C 0.00317 0.1383 0.36978 0.0
C512 C 0.00569 0.15752 0.33694 0.0
H513 H 0.0223 0.22776 0.09226 0.0
H514 H 0.02031 0.19697 0.15092 0.0
H515 H 0.02655 0.20096 0.34173 0.0
H516 H 0.99645 0.11982 0.51257 0.0
H517 H 0.00164 0.1512 0.45978 0.0
C518 C 0.30207 0.01226 0.23759 0.0
C519 C 0.28952 -0.00211 0.25107 0.0
C520 C 0.31712 0.01216 0.26749 0.0
C521 C 0.34557 0.97745 0.34479 0.0
H522 H 0.36306 0.02487 0.40963 0.0
C523 C 0.40324 0.97052 0.48474 0.0
C524 C 0.41642 0.98424 0.47372 0.0
C525 C 0.38717 0.97365 0.46151 0.0
C526 C 0.35844 0.01152 0.39121 0.0
H527 H 0.28271 0.97263 0.30827 0.0
H528 H 0.30877 0.97249 0.3597 0.0
H529 H 0.33623 0.02791 0.35996 0.0
H530 H 0.42287 0.01233 0.43129 0.0
H531 H 0.39488 0.01765 0.38953 0.0
H532 H 0.36775 0.96103 0.37449 0.0
C533 C 0.30713 0.98367 0.32562 0.0
C534 C 0.34309 0.01328 0.36283 0.0
C535 C 0.29214 0.98383 0.29617 0.0
C536 C 0.41293 0.00153 0.44065 0.0
C537 C 0.39686 0.0046 0.4169 0.0
C538 C 0.3609 0.97571 0.37263 0.0
C539 C 0.31993 -0.00239 0.31106 0.0
C540 C 0.33644 -0.00379 0.33976 0.0
C541 C 0.38392 0.99049 0.42612 0.0
C542 C 0.36749 0.99267 0.39664 0.0
H543 H 0.30036 0.0235 0.20397 0.0
H544 H 0.3268 0.02309 0.25538 0.0
H545 H 0.34096 0.96408 0.32644 0.0
H546 H 0.4054 0.95728 0.51122 0.0
H547 H 0.37733 0.96274 0.47093 0.0
C548 C 0.44168 0.32794 0.42518 0.0
C549 C 0.45082 0.309 0.41461 0.0
C550 C 0.45075 0.34453 0.43839 0.0
C551 C 0.48838 0.35948 0.50584 0.0
H552 H 0.48628 0.40668 0.40643 0.0
C553 C 0.52335 0.42876 0.56306 0.0
C554 C 0.51269 0.44669 0.56311 0.0
C555 C 0.51871 0.41169 0.53419 0.0
C556 C 0.48693 0.39368 0.43489 0.0
H557 H 0.47647 0.29243 0.41366 0.0
H558 H 0.49203 0.32124 0.43932 0.0
H559 H 0.47092 0.37743 0.38257 0.0
H560 H 0.49002 0.46167 0.5294 0.0
H561 H 0.48162 0.43208 0.48045 0.0
H562 H 0.50355 0.37585 0.56017 0.0
C563 C 0.47797 0.32329 0.43552 0.0
C564 C 0.47813 0.37697 0.42115 0.0
C565 C 0.46901 0.30682 0.42103 0.0
C566 C 0.49828 0.44786 0.53024 0.0
C567 C 0.4936 0.43089 0.50171 0.0
C568 C 0.49693 0.37629 0.52025 0.0
C569 C 0.46899 0.34233 0.44326 0.0
C570 C 0.47865 0.35982 0.45686 0.0
C571 C 0.50331 0.41237 0.50541 0.0
C572 C 0.49615 0.39371 0.48539 0.0
H573 H 0.42754 0.33 0.42375 0.0
H574 H 0.44348 0.35903 0.44558 0.0
H575 H 0.48889 0.34641 0.53415 0.0
H576 H 0.53447 0.4276 0.58867 0.0
H577 H 0.52671 0.39777 0.53682 0.0
C578 C 0.21183 0.43893 0.10187 0.0
C579 C 0.22718 0.44963 0.09238 0.0
C580 C 0.19739 0.44568 0.14426 0.0
C581 C 0.18324 0.48049 0.27454 0.0
H582 H 0.13683 0.47685 0.22372 0.0
C583 C 0.11713 0.49607 0.43546 0.0
C584 C 0.10238 0.50497 0.41139 0.0
C585 C 0.13307 0.49073 0.39799 0.0
C586 C 0.14968 0.47823 0.23843 0.0
H587 H 0.23968 0.47542 0.12177 0.0
H588 H 0.21435 0.4874 0.19502 0.0
H589 H 0.1633 0.46433 0.15734 0.0
H590 H 0.09307 0.51573 0.32897 0.0
H591 H 0.12097 0.50702 0.26418 0.0
H592 H 0.16953 0.4949 0.35515 0.0
C593 C 0.21355 0.47365 0.1702 0.0
C594 C 0.16488 0.47073 0.20071 0.0
C595 C 0.22806 0.4668 0.12804 0.0
C596 C 0.10417 0.50904 0.34926 0.0
C597 C 0.12012 0.5038 0.31189 0.0
C598 C 0.168 0.48809 0.31231 0.0
C599 C 0.19789 0.4634 0.17785 0.0
C600 C 0.18183 0.47159 0.21844 0.0
C601 C 0.13465 0.49422 0.33556 0.0
C602 C 0.15102 0.48696 0.29479 0.0
H603 H 0.21078 0.42553 0.07561 0.0
H604 H 0.18571 0.43715 0.15006 0.0
H605 H 0.1961 0.48134 0.2897 0.0
H606 H 0.11632 0.49302 0.48326 0.0
H607 H 0.14394 0.48328 0.41775 0.0
C608 C 0.97842 0.75266 0.17196 0.0
C609 C 0.98865 0.7476 0.2183 0.0
C610 C 0.98242 0.76875 0.13397 0.0
C611 C 0.01808 0.80277 0.08343 0.0
H612 H 0.97878 0.83772 0.04242 0.0
C613 C 0.02642 0.88255 0.9899 0.0
C614 C 0.01661 0.88885 0.94352 0.0
C615 C 0.02374 0.86423 0.01835 0.0
C616 C 0.98991 0.82797 0.05276 0.0
H617 H 0.01116 0.75596 0.26031 0.0
H618 H 0.01797 0.78391 0.1952 0.0
H619 H 0.97273 0.8079 0.10167 0.0
H620 H 0.99666 0.88023 0.88952 0.0
H621 H 0.99176 0.84846 0.94006 0.0
H622 H 0.03524 0.82322 0.03564 0.0
C623 C 0.00705 0.77515 0.18732 0.0
C624 C 0.98645 0.81083 0.0867 0.0
C625 C 0.0031 0.75899 0.2251 0.0
C626 C 0.00421 0.87612 0.92582 0.0
C627 C 0.00144 0.85786 0.95463 0.0
C628 C 0.02154 0.81999 0.04978 0.0
C629 C 0.99671 0.78032 0.14144 0.0
C630 C 0.00048 0.79808 0.10291 0.0
C631 C 0.01107 0.85177 0.00153 0.0
C632 C 0.00749 0.83287 0.03445 0.0
H633 H 0.96728 0.74415 0.16482 0.0
H634 H 0.97432 0.77206 0.09855 0.0
H635 H 0.02922 0.79313 0.09411 0.0
H636 H 0.03587 0.89203 0.00552 0.0
H637 H 0.03121 0.8601 0.05487 0.0
C638 C 0.72267 0.00614 0.11148 0.0
C639 C 0.72727 0.9872 0.13387 0.0
C640 C 0.70719 0.00941 0.08447 0.0
C641 C 0.67497 0.98203 0.01138 0.0
H642 H 0.64483 0.03116 0.04159 0.0
C643 C 0.60396 0.9909 0.94772 0.0
C644 C 0.59817 0.00937 0.92477 0.0
C645 C 0.62028 0.98858 0.96982 0.0
C646 C 0.65323 0.01747 0.03204 0.0
H647 H 0.71927 0.95688 0.146 0.0
H648 H 0.69218 0.96262 0.09992 0.0
H649 H 0.672 0.02656 0.08807 0.0
H650 H 0.60529 0.0397 0.90534 0.0
H651 H 0.63381 0.03564 0.94404 0.0
H652 H 0.65611 0.97285 0.95594 0.0
C653 C 0.70061 0.9749 0.10222 0.0
C654 C 0.66881 0.01483 0.05872 0.0
C655 C 0.71609 0.97163 0.12896 0.0
C656 C 0.60923 0.02538 0.92361 0.0
C657 C 0.62557 0.02306 0.94577 0.0
C658 C 0.6594 0.98465 0.98486 0.0
C659 C 0.69603 0.99378 0.07916 0.0
C660 C 0.67978 -0.00302 0.04919 0.0
C661 C 0.63122 0.00467 0.96953 0.0
C662 C 0.64825 0.00232 0.9953 0.0
H663 H 0.7313 0.01826 0.11299 0.0
H664 H 0.70421 0.02405 0.06636 0.0
H665 H 0.68331 0.96828 0.00197 0.0
H666 H 0.59566 0.97835 0.95011 0.0
H667 H 0.62411 0.97431 0.98863 0.0
C668 C 0.56053 0.66897 0.92518 0.0
C669 C 0.55133 0.68083 0.97325 0.0
C670 C 0.55366 0.65156 0.90653 0.0
C671 C 0.51215 0.6262 0.90943 0.0
H672 H 0.5446 0.57947 0.86666 0.0
C673 C 0.48916 0.55017 0.83222 0.0
C674 C 0.5002 0.54091 0.78314 0.0
C675 C 0.49465 0.56689 0.86078 0.0
C676 C 0.53537 0.59243 0.87812 0.0
H677 H 0.52737 0.68323 0.03863 0.0
H678 H 0.51549 0.65294 0.00649 0.0
H679 H 0.55567 0.60939 0.9061 0.0
H680 H 0.52502 0.5423 0.72299 0.0
H681 H 0.53446 0.57122 0.77191 0.0
H682 H 0.49191 0.60924 0.88038 0.0
C683 C 0.52802 0.65732 0.98298 0.0
C684 C 0.54172 0.60958 0.90065 0.0
C685 C 0.53492 0.67479 0.00164 0.0
C686 C 0.51647 0.54884 0.76193 0.0
C687 C 0.5219 0.56542 0.79001 0.0
C688 C 0.50578 0.609 0.88676 0.0
C689 C 0.53738 0.64545 0.93543 0.0
C690 C 0.53026 0.62679 0.91556 0.0
C691 C 0.51119 0.57452 0.84022 0.0
C692 C 0.51741 0.59207 0.86982 0.0
H693 H 0.57315 0.67311 0.90167 0.0
H694 H 0.56106 0.64296 0.86897 0.0
H695 H 0.503 0.63926 0.92015 0.0
H696 H 0.4766 0.54419 0.84935 0.0
H697 H 0.48616 0.5736 0.89956 0.0
C698 C 0.78925 0.54908 0.26509 0.0
C699 C 0.78007 0.53528 0.30242 0.0
C700 C 0.80545 0.54323 0.22959 0.0
C701 C 0.83266 0.49776 0.16424 0.0
H702 H 0.86998 0.53455 0.13603 0.0
C703 C 0.90431 0.47385 0.04945 0.0
C704 C 0.91226 0.48674 0.00571 0.0
C705 C 0.88804 0.47963 0.08471 0.0
C706 C 0.85963 0.52416 0.14306 0.0
H707 H 0.78037 0.5042 0.32915 0.0
H708 H 0.80898 0.49425 0.27039 0.0
H709 H 0.84235 0.54485 0.20092 0.0
H710 H 0.90876 0.51575 0.96413 0.0
H711 H 0.88069 0.52594 0.02666 0.0
H712 H 0.85019 0.47695 0.10721 0.0
C713 C 0.80368 0.50962 0.26804 0.0
C714 C 0.84373 0.53008 0.1802 0.0
C715 C 0.78742 0.51545 0.30311 0.0
C716 C 0.90335 0.50555 -0.00189 0.0
C717 C 0.88718 0.5114 0.03384 0.0
C718 C 0.84864 0.49178 0.12763 0.0
C719 C 0.8129 0.52338 0.23039 0.0
C720 C 0.82998 0.51698 0.19129 0.0
C721 C 0.87935 0.49854 0.0777 0.0
C722 C 0.8623 0.50492 0.11648 0.0
H723 H 0.78385 0.56443 0.26297 0.0
H724 H 0.8119 0.55421 0.20048 0.0
H725 H 0.82231 0.48736 0.17052 0.0
H726 H 0.91081 0.4594 0.05752 0.0
H727 H 0.88245 0.46945 0.11854 0.0
C728 C 0.03723 0.18774 0.99346 0.0
C729 C 0.04456 0.20232 0.95461 0.0
C730 C 0.03075 0.17083 0.97028 0.0
C731 C 0.01758 0.14854 0.83222 0.0
H732 H 0.02966 0.09892 0.91096 0.0
C733 C 0.01542 0.06985 0.72635 0.0
C734 C 0.00991 0.05431 0.76513 0.0
C735 C 0.01728 0.08886 0.7496 0.0
C736 C 0.0259 0.11265 0.88902 0.0
H737 H 0.0505 0.21098 0.86115 0.0
H738 H 0.04001 0.18071 0.82004 0.0
H739 H 0.03756 0.13031 0.9504 0.0
H740 H 0.0012 0.04675 0.85823 0.0
H741 H 0.00427 0.08 0.89875 0.0
H742 H 0.00632 0.13051 0.76972 0.0
C743 C 0.03888 0.18262 0.86858 0.0
C744 C 0.03043 0.1307 0.91165 0.0
C745 C 0.04507 0.19982 0.89198 0.0
C746 C 0.00577 0.05832 0.82735 0.0
C747 C 0.00751 0.07736 0.85052 0.0
C748 C 0.01309 0.13037 0.80931 0.0
C749 C 0.0318 0.16785 0.90758 0.0
C750 C 0.02639 0.14886 0.88354 0.0
C751 C 0.01358 0.09273 0.81203 0.0
C752 C 0.01728 0.11223 0.83745 0.0
H753 H 0.03621 0.18955 0.04203 0.0
H754 H 0.02494 0.16004 0.00166 0.0
H755 H 0.0141 0.1623 0.80994 0.0
H756 H 0.01868 0.06724 0.67811 0.0
H757 H 0.02217 0.10031 0.71887 0.0
C758 C 0.32017 0.03015 0.02046 0.0
C759 C 0.30954 0.03023 0.97373 0.0
C760 C 0.33763 0.02156 0.01087 0.0
C761 C 0.37018 0.98996 0.90492 0.0
H762 H 0.40364 0.02756 0.94356 0.0
C763 C 0.43979 0.99325 0.7717 0.0
C764 C 0.45411 -0.00286 0.80256 0.0
C765 C 0.42251 0.99372 0.80232 0.0
C766 C 0.39454 0.01666 0.93355 0.0
H767 H 0.3084 0.0208 0.8818 0.0
H768 H 0.33886 0.00569 0.86497 0.0
H769 H 0.37219 0.03364 0.98201 0.0
H770 H 0.46153 0.00439 0.89 0.0
H771 H 0.43118 0.00546 0.94347 0.0
H772 H 0.39252 0.97342 0.85439 0.0
C773 C 0.33372 0.01203 0.90912 0.0
C774 C 0.3765 0.02013 0.95569 0.0
C775 C 0.31634 0.02078 0.91854 0.0
C776 C 0.45077 0.00137 0.86492 0.0
C777 C 0.43341 0.00201 0.89552 0.0
C778 C 0.38823 0.98648 0.88282 0.0
C779 C 0.34474 0.0129 0.95452 0.0
C780 C 0.36406 0.00714 0.94012 0.0
C781 C 0.4191 -0.00177 0.86446 0.0
C782 C 0.40051 0.00014 0.89538 0.0
H783 H 0.31542 0.03774 0.06306 0.0
H784 H 0.3458 0.0224 0.04673 0.0
H785 H 0.36092 0.97955 0.89288 0.0
H786 H 0.4419 0.98982 0.72372 0.0
H787 H 0.41174 0.99106 0.7769 0.0
C788 C 0.4714 0.3494 0.19464 0.0
C789 C 0.45307 0.34705 0.1983 0.0
C790 C 0.48023 0.35944 0.14612 0.0
C791 C 0.47689 0.3754 0.99102 0.0
H792 H 0.50184 0.42123 0.03069 0.0
C793 C 0.48317 0.44322 0.84005 0.0
C794 C 0.49949 0.45206 0.82946 0.0
C795 C 0.4807 0.42805 0.882 0.0
C796 C 0.49526 0.40824 0.01876 0.0
H797 H 0.4297 0.35268 0.15357 0.0
H798 H 0.44515 0.37008 0.06858 0.0
H799 H 0.49179 0.39789 0.10985 0.0
H800 H 0.52597 0.45216 0.85528 0.0
H801 H 0.52143 0.42571 0.93015 0.0
H802 H 0.47976 0.38611 0.90047 0.0
C803 C 0.45268 0.36419 0.10317 0.0
C804 C 0.48952 0.39491 0.06396 0.0
C805 C 0.4438 0.35444 0.15205 0.0
C806 C 0.51324 0.44561 0.86252 0.0
C807 C 0.51067 0.43051 0.90524 0.0
C808 C 0.48266 0.38867 0.94589 0.0
C809 C 0.47092 0.36695 0.10011 0.0
C810 C 0.47974 0.37881 0.05079 0.0
C811 C 0.49443 0.42145 0.9147 0.0
C812 C 0.4913 0.4056 0.95985 0.0
H813 H 0.47885 0.34381 0.22978 0.0
H814 H 0.49431 0.36139 0.14462 0.0
H815 H 0.46963 0.36287 0.97967 0.0
H816 H 0.47235 0.44771 0.81502 0.0
H817 H 0.46793 0.42158 0.88925 0.0
C818 C 0.19665 0.44111 0.8034 0.0
C819 C 0.20155 0.45265 0.85033 0.0
C820 C 0.17956 0.44402 0.78658 0.0
C821 C 0.13898 0.47992 0.80593 0.0
H822 H 0.11526 0.43353 0.76354 0.0
C823 C 0.06293 0.48083 0.8042 0.0
C824 C 0.05785 0.47453 0.74946 0.0
C825 C 0.08064 0.47779 0.81464 0.0
C826 C 0.12178 0.4466 0.77509 0.0
H827 H 0.19237 0.4765 0.91565 0.0
H828 H 0.16275 0.48113 0.88789 0.0
H829 H 0.14614 0.42942 0.78296 0.0
H830 H 0.06712 0.45951 0.66362 0.0
H831 H 0.09796 0.4535 0.683 0.0
H832 H 0.11431 0.4969 0.80024 0.0
C833 C 0.17208 0.47015 0.86276 0.0
C834 C 0.13953 0.44431 0.78576 0.0
C835 C 0.18913 0.46739 0.87908 0.0
C836 C 0.07068 0.46453 0.70623 0.0
C837 C 0.08829 0.46105 0.71731 0.0
C838 C 0.12118 0.48212 0.79635 0.0
C839 C 0.16695 0.45844 0.81661 0.0
C840 C 0.14836 0.46094 0.80173 0.0
C841 C 0.09349 0.46795 0.77115 0.0
C842 C 0.11239 0.46548 0.78111 0.0
H843 H 0.20591 0.42966 0.78024 0.0
H844 H 0.17624 0.43492 0.75016 0.0
H845 H 0.14538 0.49318 0.81662 0.0
H846 H 0.05335 0.48873 0.83807 0.0
H847 H 0.08433 0.48318 0.85663 0.0
C848 C 0.98655 0.79679 0.42635 0.0
C849 C 0.00091 0.78298 0.43294 0.0
C850 C 0.98454 0.81514 0.45724 0.0
C851 C 0.01137 0.84968 0.52884 0.0
H852 H 0.96565 0.87856 0.57921 0.0
C853 C 0.00635 0.92444 0.65472 0.0
C854 C 0.99692 0.94044 0.62976 0.0
C855 C 0.00487 0.90479 0.63676 0.0
C856 C 0.97847 0.87065 0.56506 0.0
H857 H 0.02378 0.77688 0.47964 0.0
H858 H 0.01989 0.8086 0.53576 0.0
H859 H 0.96678 0.84417 0.54031 0.0
H860 H 0.97777 0.9482 0.56871 0.0
H861 H 0.97532 0.91347 0.53658 0.0
H862 H 0.02304 0.876 0.55411 0.0
C863 C 0.01055 0.80563 0.50497 0.0
C864 C 0.97916 0.85099 0.54274 0.0
C865 C 0.01276 0.78742 0.4731 0.0
C866 C 0.98533 0.93621 0.58827 0.0
C867 C 0.98384 0.91638 0.57021 0.0
C868 C 0.01067 0.86914 0.55175 0.0
C869 C 0.99668 0.81995 0.49621 0.0
C870 C 0.99566 0.84031 0.52396 0.0
C871 C 0.99393 0.90057 0.59341 0.0
C872 C 0.99425 0.87985 0.56979 0.0
H873 H 0.97724 0.79376 0.39545 0.0
H874 H 0.97386 0.82583 0.44862 0.0
H875 H 0.02431 0.84222 0.51344 0.0
H876 H 0.01509 0.92704 0.68789 0.0
H877 H 0.01254 0.89284 0.65614 0.0
C878 C 0.68105 0.02273 0.36773 0.0
C879 C 0.69409 0.00696 0.35304 0.0
C880 C 0.66461 0.01908 0.40021 0.0
C881 C 0.64007 0.98187 0.49474 0.0
H882 H 0.59937 0.01066 0.43958 0.0
C883 C 0.56517 0.97021 0.58167 0.0
C884 C 0.5561 0.98815 0.60532 0.0
C885 C 0.58227 0.97043 0.54907 0.0
C886 C 0.61064 0.00245 0.45514 0.0
H887 H 0.70049 0.97514 0.3633 0.0
H888 H 0.67164 0.96873 0.41885 0.0
H889 H 0.62919 0.01544 0.38888 0.0
H890 H 0.55747 0.02033 0.61234 0.0
H891 H 0.58694 0.02071 0.55427 0.0
H892 H 0.62119 0.96885 0.561 0.0
C893 C 0.67415 0.98394 0.40586 0.0
C894 C 0.62771 0.00534 0.42666 0.0
C895 C 0.69067 0.98762 0.37378 0.0
C896 C 0.5642 0.00626 0.59494 0.0
C897 C 0.581 0.00651 0.56152 0.0
C898 C 0.62289 0.97883 0.52293 0.0
C899 C 0.66079 -0.00045 0.41814 0.0
C900 C 0.64266 -0.00453 0.44698 0.0
C901 C 0.59021 0.98864 0.53859 0.0
C902 C 0.60811 0.98945 0.50406 0.0
H903 H 0.68339 0.03783 0.35307 0.0
H904 H 0.65476 0.03155 0.41044 0.0
H905 H 0.65132 0.97408 0.51156 0.0
H906 H 0.55921 0.95606 0.5894 0.0
H907 H 0.58921 0.95648 0.5316 0.0
C908 C 0.54722 0.65023 0.22934 0.0
C909 C 0.53406 0.66609 0.23029 0.0
C910 C 0.5457 0.63543 0.27314 0.0
C911 C 0.51142 0.61178 0.37281 0.0
H912 H 0.55107 0.58673 0.44356 0.0
C913 C 0.50146 0.55022 0.5498 0.0
C914 C 0.51455 0.53427 0.54756 0.0
C915 C 0.5043 0.56691 0.51362 0.0
C916 C 0.53991 0.59343 0.42362 0.0
H917 H 0.50954 0.67957 0.27974 0.0
H918 H 0.50696 0.65379 0.35671 0.0
H919 H 0.55562 0.61567 0.3785 0.0
H920 H 0.54075 0.52307 0.50495 0.0
H921 H 0.54541 0.55191 0.43966 0.0
H922 H 0.49578 0.58938 0.4162 0.0
C923 C 0.51827 0.65261 0.32134 0.0
C924 C 0.54251 0.61005 0.38665 0.0
C925 C 0.51975 0.66737 0.27738 0.0
C926 C 0.53042 0.53517 0.50758 0.0
C927 C 0.53316 0.55177 0.47067 0.0
C928 C 0.50885 0.59513 0.40931 0.0
C929 C 0.53101 0.63625 0.31884 0.0
C930 C 0.52827 0.61935 0.36081 0.0
C931 C 0.52018 0.56791 0.47365 0.0
C932 C 0.52305 0.58571 0.43508 0.0
H933 H 0.55843 0.64885 0.19364 0.0
H934 H 0.55564 0.62292 0.26974 0.0
H935 H 0.50028 0.61837 0.35251 0.0
H936 H 0.48925 0.55015 0.58107 0.0
H937 H 0.49416 0.57922 0.51796 0.0
C938 C 0.8207 0.51817 0.59496 0.0
C939 C 0.81822 0.51665 0.53411 0.0
C940 C 0.8377 0.52003 0.61044 0.0
C941 C 0.88532 0.51151 0.54681 0.0
H942 H 0.89242 0.54202 0.68834 0.0
C943 C 0.95493 0.52156 0.61053 0.0
C944 C 0.9568 0.51439 0.66838 0.0
C945 C 0.93802 0.52494 0.59331 0.0
C946 C 0.89057 0.53354 0.64857 0.0
H947 H 0.83138 0.51665 0.44159 0.0
H948 H 0.86081 0.52061 0.4683 0.0
H949 H 0.86265 0.54184 0.65897 0.0
H950 H 0.94269 0.50622 0.75476 0.0
H951 H 0.91309 0.51268 0.72509 0.0
H952 H 0.9133 0.50341 0.5363 0.0
C953 C 0.84984 0.51964 0.50435 0.0
C954 C 0.87354 0.53327 0.63199 0.0
C955 C 0.83294 0.51742 0.48899 0.0
C956 C 0.94155 0.5117 0.70981 0.0
C957 C 0.92466 0.51548 0.69301 0.0
C958 C 0.90235 0.51205 0.56283 0.0
C959 C 0.85248 0.52074 0.56525 0.0
C960 C 0.87067 0.52201 0.58136 0.0
C961 C 0.92279 0.52163 0.63417 0.0
C962 C 0.90506 0.52285 0.61425 0.0
H963 H 0.80955 0.51764 0.63062 0.0
H964 H 0.83926 0.52053 0.65782 0.0
H965 H 0.88361 0.50234 0.5083 0.0
H966 H 0.96652 0.52357 0.5777 0.0
H967 H 0.93683 0.52971 0.54769 0.0
loop_
_geom_bond_atom_site_label_1
_geom_bond_atom_site_label_2
_geom_bond_distance
_geom_bond_site_symmetry_2
_ccdc_geom_bond_type
O0 Cd1 2.300 . S
O0 C7 1.275 . S
Cd1 O0 2.300 . S
Cd1 O9 2.381 . S
Cd1 O10 2.378 . S
O2 Cd3 2.385 . S
O2 C7 1.255 . S
Cd3 O2 2.385 . S
Cd3 O4 2.317 . S
O4 Cd3 2.317 . S
O4 C5 1.232 . S
C5 O4 1.232 . S
C5 O6 1.218 . S
O6 C5 1.218 . S
C7 O0 1.275 . S
C7 O2 1.255 . S
C8 O9 1.258 . S
C8 O10 1.256 . S
O9 Cd1 2.381 . S
O9 C8 1.258 . S
O10 Cd1 2.378 . S
O10 C8 1.256 . S
O11 Cd12 2.300 1_655 S
O11 C18 1.275 . S
Cd12 O11 2.300 1_455 S
Cd12 O20 2.381 1_455 S
Cd12 O21 2.378 . S
O13 Cd14 2.385 . S
O13 C18 1.255 1_455 S
Cd14 O13 2.385 . S
Cd14 O15 2.317 . S
O15 Cd14 2.317 . S
O15 C16 1.232 1_455 S
C16 O15 1.232 1_655 S
C16 O17 1.218 1_655 S
O17 C16 1.218 1_455 S
C18 O11 1.275 . S
C18 O13 1.255 1_655 S
C19 O20 1.258 . S
C19 O21 1.256 1_655 S
O20 Cd12 2.381 1_655 S
O20 C19 1.258 . S
O21 Cd12 2.378 . S
O21 C19 1.256 1_455 S
O22 Cd23 2.300 1_565 S
O22 C29 1.275 . S
Cd23 O22 2.300 1_545 S
Cd23 O31 2.381 1_545 S
Cd23 O32 2.378 . S
O24 Cd25 2.385 . S
O24 C29 1.255 1_545 S
Cd25 O24 2.385 . S
Cd25 O26 2.317 . S
O26 Cd25 2.317 . S
O26 C27 1.232 . S
C27 O26 1.232 . S
C27 O28 1.218 . S
O28 C27 1.218 . S
C29 O22 1.275 . S
C29 O24 1.255 1_565 S
C30 O31 1.258 . S
C30 O32 1.256 1_565 S
O31 Cd23 2.381 1_565 S
O31 C30 1.258 . S
O32 Cd23 2.378 . S
O32 C30 1.256 1_545 S
O33 Cd34 2.300 1_556 S
O33 C40 1.275 . S
Cd34 O33 2.300 1_554 S
Cd34 O42 2.381 1_554 S
Cd34 O43 2.378 . S
O35 Cd36 2.385 . S
O35 C40 1.255 1_554 S
Cd36 O35 2.385 . S
Cd36 O37 2.317 . S
O37 Cd36 2.317 . S
O37 C38 1.232 . S
C38 O37 1.232 . S
C38 O39 1.218 . S
O39 C38 1.218 . S
C40 O33 1.275 . S
C40 O35 1.255 1_556 S
C41 O42 1.258 1_554 S
C41 O43 1.256 . S
O42 Cd34 2.381 1_556 S
O42 C41 1.258 1_556 S
O43 Cd34 2.378 . S
O43 C41 1.256 . S
O44 Cd45 2.300 . S
O44 C51 1.275 . S
Cd45 O44 2.300 . S
Cd45 O53 2.381 . S
Cd45 O54 2.378 . S
O46 Cd47 2.385 1_554 S
O46 C51 1.255 . S
Cd47 O46 2.385 1_556 S
Cd47 O48 2.317 . S
O48 Cd47 2.317 . S
O48 C49 1.232 . S
C49 O48 1.232 . S
C49 O50 1.218 . S
O50 C49 1.218 . S
C51 O44 1.275 . S
C51 O46 1.255 . S
C52 O53 1.258 . S
C52 O54 1.256 . S
O53 Cd45 2.381 . S
O53 C52 1.258 . S
O54 Cd45 2.378 . S
O54 C52 1.256 . S
O55 Cd56 2.300 . S
O55 C62 1.275 . S
Cd56 O55 2.300 . S
Cd56 O64 2.381 . S
Cd56 O65 2.378 . S
O57 Cd58 2.385 . S
O57 C62 1.255 . S
Cd58 O57 2.385 . S
Cd58 O59 2.317 1_554 S
O59 Cd58 2.317 1_556 S
O59 C60 1.232 . S
C60 O59 1.232 . S
C60 O61 1.218 . S
O61 C60 1.218 . S
C62 O55 1.275 . S
C62 O57 1.255 . S
C63 O64 1.258 . S
C63 O65 1.256 . S
O64 Cd56 2.381 . S
O64 C63 1.258 . S
O65 Cd56 2.378 . S
O65 C63 1.256 . S
O66 Cd67 2.300 . S
O66 C73 1.275 . S
Cd67 O66 2.300 . S
Cd67 O75 2.374 1_545 S
Cd67 O76 2.378 . S
O68 Cd69 2.385 . S
O68 C73 1.255 . S
Cd69 O68 2.385 . S
Cd69 O70 2.317 . S
O70 Cd69 2.317 . S
O70 C71 1.232 . S
C71 O70 1.232 . S
C71 O72 1.218 . S
O72 C71 1.218 . S
C73 O66 1.275 . S
C73 O68 1.255 . S
C74 O75 1.252 1_545 S
C74 O76 1.256 . S
O75 Cd67 2.374 1_565 S
O75 C74 1.252 1_565 S
O76 Cd67 2.378 . S
O76 C74 1.256 . S
O77 Cd78 2.300 . S
O77 C84 1.275 . S
Cd78 O77 2.300 . S
Cd78 O86 2.381 . S
Cd78 O87 2.378 . S
O79 Cd80 2.385 . S
O79 C84 1.255 . S
Cd80 O79 2.385 . S
Cd80 O81 2.317 . S
O81 Cd80 2.317 . S
O81 C82 1.232 . S
C82 O81 1.232 . S
C82 O83 1.218 . S
O83 C82 1.218 . S
C84 O77 1.275 . S
C84 O79 1.255 . S
C85 O86 1.258 . S
C85 O87 1.256 . S
O86 Cd78 2.381 . S
O86 C85 1.258 . S
O87 Cd78 2.378 . S
O87 C85 1.256 . S
Dy88 O91 2.307 1_545 S
Dy88 O93 2.395 1_655 S
Dy88 O94 2.379 . S
Dy88 O96 2.339 . S
Dy88 O98 2.298 1_655 S
Dy88 O102 2.275 1_655 S
Dy88 C110 2.738 . S
Dy89 O92 2.298 . S
Dy89 O95 2.275 1_455 S
Dy89 O97 2.307 1_565 S
Dy89 O99 2.395 . S
Dy89 O100 2.379 . S
Dy89 O103 2.339 . S
Dy89 C119 2.738 . S
C90 O102 1.254 1_565 S
C90 O103 1.257 . S
O91 Dy88 2.307 1_565 S
O91 C101 1.266 1_655 S
O92 Dy89 2.298 . S
O92 C101 1.236 . S
O93 Dy88 2.395 1_455 S
O93 C110 1.255 1_455 S
O94 Dy88 2.379 . S
O94 C110 1.249 . S
O95 Dy89 2.275 1_655 S
O95 C111 1.254 1_565 S
O96 Dy88 2.339 . S
O96 C111 1.257 . S
O97 Dy89 2.307 1_545 S
O97 C112 1.266 . S
O98 Dy88 2.298 1_455 S
O98 C112 1.236 . S
O99 Dy89 2.395 . S
O99 C119 1.255 . S
O100 Dy89 2.379 . S
O100 C119 1.249 . S
C101 O91 1.266 1_455 S
C101 O92 1.236 . S
O102 Dy88 2.275 1_455 S
O102 C90 1.254 1_545 S
O103 Dy89 2.339 . S
O103 C90 1.257 . S
C104 C107 1.344 1_655 S
C104 C108 1.328 . S
C104 C110 1.516 . S
C105 C106 1.304 1_655 S
C105 C109 1.323 . S
C106 C105 1.304 1_455 S
C106 C107 1.371 . S
C106 H120 0.930 . S
C107 C104 1.344 1_455 S
C107 C106 1.371 . S
C107 H121 0.931 . S
C108 C104 1.328 . S
C108 C109 1.433 . S
C108 H122 0.931 . S
C109 C105 1.323 . S
C109 C108 1.433 . S
C109 H123 0.933 . S
C110 Dy88 2.738 . S
C110 O93 1.255 1_655 S
C110 O94 1.249 . S
C110 C104 1.516 . S
C111 O95 1.254 1_545 S
C111 O96 1.257 . S
C112 O97 1.266 . S
C112 O98 1.236 . S
C113 C116 1.351 . S
C113 C117 1.328 . S
C113 C119 1.516 . S
C114 C115 1.308 . S
C114 C118 1.323 . S
C115 C114 1.308 . S
C115 C116 1.371 . S
C115 H124 0.927 1_455 S
C116 C113 1.351 . S
C116 C115 1.371 . S
C116 H125 0.924 1_455 S
C117 C113 1.328 . S
C117 C118 1.433 . S
C117 H126 0.931 . S
C118 C114 1.323 . S
C118 C117 1.433 . S
C118 H127 0.933 . S
C119 Dy89 2.738 . S
C119 O99 1.255 . S
C119 O100 1.249 . S
C119 C113 1.516 . S
H120 C106 0.930 . S
H121 C107 0.931 . S
H122 C108 0.931 . S
H123 C109 0.933 . S
H124 C115 0.927 1_655 S
H125 C116 0.924 1_655 S
H126 C117 0.931 . S
H127 C118 0.933 . S
Dy128 O131 2.307 . S
Dy128 O133 2.395 1_565 S
Dy128 O134 2.379 . S
Dy128 O136 2.339 . S
Dy128 O138 2.298 . S
Dy128 O142 2.275 1_565 S
Dy128 C150 2.738 . S
Dy129 O132 2.298 . S
Dy129 O135 2.275 1_545 S
Dy129 O137 2.307 . S
Dy129 O139 2.395 1_545 S
Dy129 O140 2.379 . S
Dy129 O143 2.339 . S
Dy129 C159 2.738 . S
C130 O142 1.254 . S
C130 O143 1.257 . S
O131 Dy128 2.307 . S
O131 C141 1.266 . S
O132 Dy129 2.298 . S
O132 C141 1.236 1_545 S
O133 Dy128 2.395 1_545 S
O133 C150 1.255 1_545 S
O134 Dy128 2.379 . S
O134 C150 1.249 . S
O135 Dy129 2.275 1_565 S
O135 C151 1.254 . S
O136 Dy128 2.339 . S
O136 C151 1.257 . S
O137 Dy129 2.307 . S
O137 C152 1.266 . S
O138 Dy128 2.298 . S
O138 C152 1.236 1_565 S
O139 Dy129 2.395 1_565 S
O139 C159 1.255 1_565 S
O140 Dy129 2.379 . S
O140 C159 1.249 . S
C141 O131 1.266 . S
C141 O132 1.236 1_565 S
O142 Dy128 2.275 1_545 S
O142 C130 1.254 . S
O143 Dy129 2.339 . S
O143 C130 1.257 . S
C144 C147 1.344 1_565 S
C144 C148 1.328 . S
C144 C150 1.516 . S
C145 C146 1.304 1_565 S
C145 C149 1.323 . S
C146 C145 1.304 1_545 S
C146 C147 1.371 . S
C146 H160 0.930 . S
C147 C144 1.344 1_545 S
C147 C146 1.371 . S
C147 H161 0.931 . S
C148 C144 1.328 . S
C148 C149 1.433 . S
C148 H162 0.931 . S
C149 C145 1.323 . S
C149 C148 1.433 . S
C149 H163 0.933 . S
C150 Dy128 2.738 . S
C150 O133 1.255 1_565 S
C150 O134 1.249 . S
C150 C144 1.516 . S
C151 O135 1.254 . S
C151 O136 1.257 . S
C152 O137 1.266 . S
C152 O138 1.236 1_545 S
C153 C156 1.344 1_545 S
C153 C157 1.328 . S
C153 C159 1.516 . S
C154 C155 1.304 1_545 S
C154 C158 1.323 . S
C155 C154 1.304 1_565 S
C155 C156 1.371 . S
C155 H164 0.930 . S
C156 C153 1.344 1_565 S
C156 C155 1.371 . S
C156 H165 0.931 . S
C157 C153 1.328 . S
C157 C158 1.433 . S
C157 H166 0.931 . S
C158 C154 1.323 . S
C158 C157 1.433 . S
C158 H167 0.933 . S
C159 Dy129 2.738 . S
C159 O139 1.255 1_545 S
C159 O140 1.249 . S
C159 C153 1.516 . S
H160 C146 0.930 . S
H161 C147 0.931 . S
H162 C148 0.931 . S
H163 C149 0.933 . S
H164 C155 0.930 . S
H165 C156 0.931 . S
H166 C157 0.931 . S
H167 C158 0.933 . S
Dy168 O171 2.307 . S
Dy168 O173 2.395 . S
Dy168 O174 2.379 . S
Dy168 O176 2.339 . S
Dy168 O178 2.298 . S
Dy168 O182 2.275 . S
Dy168 C190 2.738 . S
Dy169 O172 2.298 . S
Dy169 O175 2.275 . S
Dy169 O177 2.307 . S
Dy169 O179 2.395 . S
Dy169 O180 2.379 . S
Dy169 O183 2.339 . S
Dy169 C199 2.738 . S
C170 O182 1.254 . S
C170 O183 1.257 . S
O171 Dy168 2.307 . S
O171 C181 1.266 . S
O172 Dy169 2.298 . S
O172 C181 1.236 . S
O173 Dy168 2.395 . S
O173 C190 1.255 . S
O174 Dy168 2.379 . S
O174 C190 1.249 . S
O175 Dy169 2.275 . S
O175 C191 1.254 . S
O176 Dy168 2.339 . S
O176 C191 1.257 . S
O177 Dy169 2.307 . S
O177 C192 1.266 . S
O178 Dy168 2.298 . S
O178 C192 1.236 . S
O179 Dy169 2.395 . S
O179 C199 1.255 . S
O180 Dy169 2.379 . S
O180 C199 1.249 . S
C181 O171 1.266 . S
C181 O172 1.236 . S
O182 Dy168 2.275 . S
O182 C170 1.254 . S
O183 Dy169 2.339 . S
O183 C170 1.257 . S
C184 C187 1.344 . S
C184 C188 1.328 . S
C184 C190 1.516 . S
C185 C186 1.304 . S
C185 C189 1.323 . S
C186 C185 1.304 . S
C186 C187 1.371 . S
C186 H200 0.930 . S
C187 C184 1.344 . S
C187 C186 1.371 . S
C187 H201 0.931 . S
C188 C184 1.328 . S
C188 C189 1.433 . S
C188 H202 0.931 . S
C189 C185 1.323 . S
C189 C188 1.433 . S
C189 H203 0.933 . S
C190 Dy168 2.738 . S
C190 O173 1.255 . S
C190 O174 1.249 . S
C190 C184 1.516 . S
C191 O175 1.254 . S
C191 O176 1.257 . S
C192 O177 1.266 . S
C192 O178 1.236 . S
C193 C196 1.344 . S
C193 C197 1.328 . S
C193 C199 1.516 . S
C194 C195 1.304 . S
C194 C198 1.323 . S
C195 C194 1.304 . S
C195 C196 1.371 . S
C195 H204 0.930 . S
C196 C193 1.344 . S
C196 C195 1.371 . S
C196 H205 0.931 . S
C197 C193 1.328 . S
C197 C198 1.433 . S
C197 H206 0.931 . S
C198 C194 1.323 . S
C198 C197 1.433 . S
C198 H207 0.933 . S
C199 Dy169 2.738 . S
C199 O179 1.255 . S
C199 O180 1.249 . S
C199 C193 1.516 . S
H200 C186 0.930 . S
H201 C187 0.931 . S
H202 C188 0.931 . S
H203 C189 0.933 . S
H204 C195 0.930 . S
H205 C196 0.931 . S
H206 C197 0.931 . S
H207 C198 0.933 . S
Dy208 O211 2.307 1_455 S
Dy208 O213 2.395 . S
Dy208 O214 2.379 . S
Dy208 O216 2.339 . S
Dy208 O218 2.298 . S
Dy208 O222 2.275 . S
Dy208 C230 2.738 . S
Dy209 O212 2.298 . S
Dy209 O215 2.275 1_655 S
Dy209 O217 2.307 1_655 S
Dy209 O219 2.395 . S
Dy209 O220 2.379 . S
Dy209 O223 2.339 . S
Dy209 C239 2.738 . S
C210 O222 1.254 . S
C210 O223 1.257 1_455 S
O211 Dy208 2.307 1_655 S
O211 C221 1.266 . S
O212 Dy209 2.298 . S
O212 C221 1.236 . S
O213 Dy208 2.395 . S
O213 C230 1.255 . S
O214 Dy208 2.379 . S
O214 C230 1.249 . S
O215 Dy209 2.275 1_455 S
O215 C231 1.254 . S
O216 Dy208 2.339 . S
O216 C231 1.257 . S
O217 Dy209 2.307 1_455 S
O217 C232 1.266 . S
O218 Dy208 2.298 . S
O218 C232 1.236 . S
O219 Dy209 2.395 . S
O219 C239 1.255 . S
O220 Dy209 2.379 . S
O220 C239 1.249 . S
C221 O211 1.266 . S
C221 O212 1.236 . S
O222 Dy208 2.275 . S
O222 C210 1.254 . S
O223 Dy209 2.339 . S
O223 C210 1.257 1_655 S
C224 C227 1.344 . S
C224 C228 1.328 . S
C224 C230 1.516 . S
C225 C226 1.304 . S
C225 C229 1.323 . S
C226 C225 1.304 . S
C226 C227 1.371 . S
C226 H240 0.930 . S
C227 C224 1.344 . S
C227 C226 1.371 . S
C227 H241 0.931 . S
C228 C224 1.328 . S
C228 C229 1.433 . S
C228 H242 0.931 . S
C229 C225 1.323 . S
C229 C228 1.433 . S
C229 H243 0.933 . S
C230 Dy208 2.738 . S
C230 O213 1.255 . S
C230 O214 1.249 . S
C230 C224 1.516 . S
C231 O215 1.254 . S
C231 O216 1.257 . S
C232 O217 1.266 . S
C232 O218 1.236 . S
C233 C236 1.344 . S
C233 C237 1.328 . S
C233 C239 1.516 . S
C234 C235 1.304 . S
C234 C238 1.323 . S
C235 C234 1.304 . S
C235 C236 1.371 . S
C235 H244 0.930 . S
C236 C233 1.344 . S
C236 C235 1.371 . S
C236 H245 0.931 . S
C237 C233 1.328 . S
C237 C238 1.433 . S
C237 H246 0.931 . S
C238 C234 1.323 . S
C238 C237 1.433 . S
C238 H247 0.933 . S
C239 Dy209 2.738 . S
C239 O219 1.255 . S
C239 O220 1.249 . S
C239 C233 1.516 . S
H240 C226 0.930 . S
H241 C227 0.931 . S
H242 C228 0.931 . S
H243 C229 0.933 . S
H244 C235 0.930 . S
H245 C236 0.931 . S
H246 C237 0.931 . S
H247 C238 0.933 . S
C248 C249 1.349 1_565 S
C248 C250 1.327 . S
C248 H273 0.950 . S
C249 C248 1.349 1_545 S
C249 C265 1.349 . S
C250 C248 1.327 . S
C250 C269 1.429 1_565 S
C250 H274 0.950 . S
C251 C268 1.574 . S
C251 C270 1.368 . S
C251 H275 0.949 . S
H252 C256 0.949 . S
C253 C254 1.349 . S
C253 C255 1.327 . S
C253 H276 0.950 . S
C254 C253 1.349 . S
C254 C266 1.349 1_545 S
C255 C253 1.327 . S
C255 C271 1.429 . S
C255 H277 0.950 . S
C256 H252 0.949 . S
C256 C264 1.574 . S
C256 C272 1.368 1_565 S
H257 C265 0.950 . S
H258 C263 0.950 . S
H259 C264 0.949 . S
H260 C266 0.950 . S
H261 C267 0.950 . S
H262 C268 0.949 . S
C263 H258 0.950 . S
C263 C265 1.327 . S
C263 C269 1.429 . S
C264 C256 1.574 . S
C264 H259 0.949 . S
C264 C270 1.368 1_565 S
C265 C249 1.349 . S
C265 H257 0.950 . S
C265 C263 1.327 . S
C266 C254 1.349 1_565 S
C266 H260 0.950 . S
C266 C267 1.327 . S
C267 H261 0.950 . S
C267 C266 1.327 . S
C267 C271 1.429 1_565 S
C268 C251 1.574 . S
C268 H262 0.949 . S
C268 C272 1.368 . S
C269 C250 1.429 1_545 S
C269 C263 1.429 . S
C269 C270 1.523 . S
C270 C251 1.368 . S
C270 C264 1.368 1_545 S
C270 C269 1.523 . S
C271 C255 1.429 . S
C271 C267 1.429 1_545 S
C271 C272 1.523 . S
C272 C256 1.368 1_545 S
C272 C268 1.368 . S
C272 C271 1.523 . S
H273 C248 0.950 . S
H274 C250 0.950 . S
H275 C251 0.949 . S
H276 C253 0.950 . S
H277 C255 0.950 . S
C278 C279 1.349 . S
C278 C280 1.327 . S
C278 H303 0.950 . S
C279 C278 1.349 . S
C279 C295 1.349 . S
C280 C278 1.327 . S
C280 C299 1.429 . S
C280 H304 0.950 . S
C281 C298 1.574 . S
C281 C300 1.368 . S
C281 H305 0.949 . S
H282 C286 0.949 . S
C283 C284 1.349 . S
C283 C285 1.327 . S
C283 H306 0.950 . S
C284 C283 1.349 . S
C284 C296 1.349 . S
C285 C283 1.327 . S
C285 C301 1.429 . S
C285 H307 0.950 . S
C286 H282 0.949 . S
C286 C294 1.574 . S
C286 C302 1.368 . S
H287 C295 0.950 . S
H288 C293 0.950 . S
H289 C294 0.949 . S
H290 C296 0.950 . S
H291 C297 0.950 . S
H292 C298 0.949 . S
C293 H288 0.950 . S
C293 C295 1.327 . S
C293 C299 1.429 . S
C294 C286 1.574 . S
C294 H289 0.949 . S
C294 C300 1.368 . S
C295 C279 1.349 . S
C295 H287 0.950 . S
C295 C293 1.327 . S
C296 C284 1.349 . S
C296 H290 0.950 . S
C296 C297 1.327 . S
C297 H291 0.950 . S
C297 C296 1.327 . S
C297 C301 1.429 . S
C298 C281 1.574 . S
C298 H292 0.949 . S
C298 C302 1.368 . S
C299 C280 1.429 . S
C299 C293 1.429 . S
C299 C300 1.523 . S
C300 C281 1.368 . S
C300 C294 1.368 . S
C300 C299 1.523 . S
C301 C285 1.429 . S
C301 C297 1.429 . S
C301 C302 1.523 . S
C302 C286 1.368 . S
C302 C298 1.368 . S
C302 C301 1.523 . S
H303 C278 0.950 . S
H304 C280 0.950 . S
H305 C281 0.949 . S
H306 C283 0.950 . S
H307 C285 0.950 . S
C308 C309 1.349 . S
C308 C310 1.327 . S
C308 H333 0.950 . S
C309 C308 1.349 . S
C309 C325 1.349 . S
C310 C308 1.327 . S
C310 C329 1.429 . S
C310 H334 0.950 . S
C311 C328 1.574 . S
C311 C330 1.368 . S
C311 H335 0.949 . S
H312 C316 0.949 . S
C313 C314 1.349 . S
C313 C315 1.327 . S
C313 H336 0.950 . S
C314 C313 1.349 . S
C314 C326 1.349 . S
C315 C313 1.327 . S
C315 C331 1.429 . S
C315 H337 0.950 . S
C316 H312 0.949 . S
C316 C324 1.574 . S
C316 C332 1.368 . S
H317 C325 0.950 . S
H318 C323 0.950 . S
H319 C324 0.949 . S
H320 C326 0.950 . S
H321 C327 0.950 . S
H322 C328 0.949 . S
C323 H318 0.950 . S
C323 C325 1.327 . S
C323 C329 1.429 . S
C324 C316 1.574 . S
C324 H319 0.949 . S
C324 C330 1.368 . S
C325 C309 1.349 . S
C325 H317 0.950 . S
C325 C323 1.327 . S
C326 C314 1.349 . S
C326 H320 0.950 . S
C326 C327 1.327 . S
C327 H321 0.950 . S
C327 C326 1.327 . S
C327 C331 1.429 . S
C328 C311 1.574 . S
C328 H322 0.949 . S
C328 C332 1.368 . S
C329 C310 1.429 . S
C329 C323 1.429 . S
C329 C330 1.523 . S
C330 C311 1.368 . S
C330 C324 1.368 . S
C330 C329 1.523 . S
C331 C315 1.429 . S
C331 C327 1.429 . S
C331 C332 1.523 . S
C332 C316 1.368 . S
C332 C328 1.368 . S
C332 C331 1.523 . S
H333 C308 0.950 . S
H334 C310 0.950 . S
H335 C311 0.949 . S
H336 C313 0.950 . S
H337 C315 0.950 . S
C338 C339 1.349 . S
C338 C340 1.327 . S
C338 H363 0.950 . S
C339 C338 1.349 . S
C339 C355 1.349 . S
C340 C338 1.327 . S
C340 C359 1.429 . S
C340 H364 0.950 . S
C341 C358 1.574 . S
C341 C360 1.368 . S
C341 H365 0.949 . S
H342 C346 0.949 . S
C343 C344 1.349 . S
C343 C345 1.327 . S
C343 H366 0.950 . S
C344 C343 1.349 . S
C344 C356 1.349 . S
C345 C343 1.327 . S
C345 C361 1.429 . S
C345 H367 0.950 . S
C346 H342 0.949 . S
C346 C354 1.574 . S
C346 C362 1.368 . S
H347 C355 0.950 . S
H348 C353 0.950 . S
H349 C354 0.949 . S
H350 C356 0.950 . S
H351 C357 0.950 . S
H352 C358 0.949 . S
C353 H348 0.950 . S
C353 C355 1.327 . S
C353 C359 1.429 . S
C354 C346 1.574 . S
C354 H349 0.949 . S
C354 C360 1.368 . S
C355 C339 1.349 . S
C355 H347 0.950 . S
C355 C353 1.327 . S
C356 C344 1.349 . S
C356 H350 0.950 . S
C356 C357 1.327 . S
C357 H351 0.950 . S
C357 C356 1.327 . S
C357 C361 1.429 . S
C358 C341 1.574 . S
C358 H352 0.949 . S
C358 C362 1.368 . S
C359 C340 1.429 . S
C359 C353 1.429 . S
C359 C360 1.523 . S
C360 C341 1.368 . S
C360 C354 1.368 . S
C360 C359 1.523 . S
C361 C345 1.429 . S
C361 C357 1.429 . S
C361 C362 1.523 . S
C362 C346 1.368 . S
C362 C358 1.368 . S
C362 C361 1.523 . S
H363 C338 0.950 . S
H364 C340 0.950 . S
H365 C341 0.949 . S
H366 C343 0.950 . S
H367 C345 0.950 . S
C368 C369 1.349 1_545 S
C368 C370 1.327 . S
C368 H393 0.950 . S
C369 C368 1.349 1_565 S
C369 C385 1.349 . S
C370 C368 1.327 . S
C370 C389 1.429 1_545 S
C370 H394 0.950 . S
C371 C388 1.574 . S
C371 C390 1.368 . S
C371 H395 0.949 . S
H372 C376 0.949 . S
C373 C374 1.349 . S
C373 C375 1.327 . S
C373 H396 0.950 . S
C374 C373 1.349 . S
C374 C386 1.349 1_565 S
C375 C373 1.327 . S
C375 C391 1.429 . S
C375 H397 0.950 . S
C376 H372 0.949 . S
C376 C384 1.574 . S
C376 C392 1.368 1_545 S
H377 C385 0.950 . S
H378 C383 0.950 1_556 S
H379 C384 0.949 1_554 S
H380 C386 0.950 . S
H381 C387 0.950 . S
H382 C388 0.949 . S
C383 H378 0.950 1_554 S
C383 C385 1.327 . S
C383 C389 1.429 . S
C384 C376 1.574 . S
C384 H379 0.949 1_556 S
C384 C390 1.368 1_545 S
C385 C369 1.349 . S
C385 H377 0.950 . S
C385 C383 1.327 . S
C386 C374 1.349 1_545 S
C386 H380 0.950 . S
C386 C387 1.327 . S
C387 H381 0.950 . S
C387 C386 1.327 . S
C387 C391 1.429 1_545 S
C388 C371 1.574 . S
C388 H382 0.949 . S
C388 C392 1.368 . S
C389 C370 1.429 1_565 S
C389 C383 1.429 . S
C389 C390 1.523 1_554 S
C390 C371 1.368 . S
C390 C384 1.368 1_565 S
C390 C389 1.523 1_556 S
C391 C375 1.429 . S
C391 C387 1.429 1_565 S
C391 C392 1.523 . S
C392 C376 1.368 1_565 S
C392 C388 1.368 . S
C392 C391 1.523 . S
H393 C368 0.950 . S
H394 C370 0.950 . S
H395 C371 0.949 . S
H396 C373 0.950 . S
H397 C375 0.950 . S
C398 C399 1.349 . S
C398 C400 1.327 . S
C398 H423 0.950 . S
C399 C398 1.349 . S
C399 C415 1.349 . S
C400 C398 1.327 . S
C400 C419 1.429 . S
C400 H424 0.950 . S
C401 C418 1.574 . S
C401 C420 1.368 . S
C401 H425 0.949 . S
H402 C406 0.949 . S
C403 C404 1.349 . S
C403 C405 1.327 . S
C403 H426 0.950 . S
C404 C403 1.349 . S
C404 C416 1.349 . S
C405 C403 1.327 . S
C405 C421 1.429 . S
C405 H427 0.950 . S
C406 H402 0.949 . S
C406 C414 1.574 . S
C406 C422 1.368 . S
H407 C415 0.950 1_554 S
H408 C413 0.950 . S
H409 C414 0.949 . S
H410 C416 0.950 . S
H411 C417 0.950 . S
H412 C418 0.949 . S
C413 H408 0.950 . S
C413 C415 1.327 . S
C413 C419 1.429 . S
C414 C406 1.574 . S
C414 H409 0.949 . S
C414 C420 1.368 . S
C415 C399 1.349 . S
C415 H407 0.950 1_556 S
C415 C413 1.327 . S
C416 C404 1.349 . S
C416 H410 0.950 . S
C416 C417 1.327 . S
C417 H411 0.950 . S
C417 C416 1.327 . S
C417 C421 1.429 . S
C418 C401 1.574 . S
C418 H412 0.949 . S
C418 C422 1.368 . S
C419 C400 1.429 . S
C419 C413 1.429 . S
C419 C420 1.523 . S
C420 C401 1.368 . S
C420 C414 1.368 . S
C420 C419 1.523 . S
C421 C405 1.429 . S
C421 C417 1.429 . S
C421 C422 1.523 . S
C422 C406 1.368 . S
C422 C418 1.368 . S
C422 C421 1.523 . S
H423 C398 0.950 . S
H424 C400 0.950 . S
H425 C401 0.949 . S
H426 C403 0.950 . S
H427 C405 0.950 . S
C428 C429 1.349 . S
C428 C430 1.327 . S
C428 H453 0.950 . S
C429 C428 1.349 . S
C429 C445 1.349 . S
C430 C428 1.327 . S
C430 C449 1.429 . S
C430 H454 0.950 . S
C431 C448 1.574 . S
C431 C450 1.368 . S
C431 H455 0.949 . S
H432 C436 0.949 . S
C433 C434 1.349 . S
C433 C435 1.327 1_556 S
C433 H456 0.950 . S
C434 C433 1.349 . S
C434 C446 1.349 . S
C435 C433 1.327 1_554 S
C435 C451 1.429 . S
C435 H457 0.950 . S
C436 H432 0.949 . S
C436 C444 1.574 . S
C436 C452 1.368 . S
H437 C445 0.950 . S
H438 C443 0.950 . S
H439 C444 0.949 . S
H440 C446 0.950 . S
H441 C447 0.950 . S
H442 C448 0.949 . S
C443 H438 0.950 . S
C443 C445 1.327 . S
C443 C449 1.429 . S
C444 C436 1.574 . S
C444 H439 0.949 . S
C444 C450 1.368 . S
C445 C429 1.349 . S
C445 H437 0.950 . S
C445 C443 1.327 . S
C446 C434 1.349 . S
C446 H440 0.950 . S
C446 C447 1.327 . S
C447 H441 0.950 . S
C447 C446 1.327 . S
C447 C451 1.429 1_556 S
C448 C431 1.574 . S
C448 H442 0.949 . S
C448 C452 1.368 . S
C449 C430 1.429 . S
C449 C443 1.429 . S
C449 C450 1.523 . S
C450 C431 1.368 . S
C450 C444 1.368 . S
C450 C449 1.523 . S
C451 C435 1.429 . S
C451 C447 1.429 1_554 S
C451 C452 1.523 . S
C452 C436 1.368 . S
C452 C448 1.368 . S
C452 C451 1.523 . S
H453 C428 0.950 . S
H454 C430 0.950 . S
H455 C431 0.949 . S
H456 C433 0.950 . S
H457 C435 0.950 . S
C458 C459 1.349 1_455 S
C458 C460 1.327 . S
C458 H483 0.950 . S
C459 C458 1.349 1_655 S
C459 C475 1.349 . S
C460 C458 1.327 . S
C460 C479 1.429 1_455 S
C460 H484 0.950 . S
C461 C478 1.574 1_554 S
C461 C480 1.368 . S
C461 H485 0.949 . S
H462 C466 0.949 . S
C463 C464 1.349 1_655 S
C463 C465 1.327 . S
C463 H486 0.950 . S
C464 C463 1.349 1_455 S
C464 C476 1.349 . S
C465 C463 1.327 . S
C465 C481 1.428 . S
C465 H487 0.950 . S
C466 H462 0.949 . S
C466 C474 1.574 . S
C466 C482 1.368 1_455 S
H467 C475 0.950 . S
H468 C473 0.950 . S
H469 C474 0.949 . S
H470 C476 0.950 . S
H471 C477 0.950 . S
H472 C478 0.949 . S
C473 H468 0.950 . S
C473 C475 1.327 . S
C473 C479 1.429 . S
C474 C466 1.574 . S
C474 H469 0.949 . S
C474 C480 1.368 1_456 S
C475 C459 1.349 . S
C475 H467 0.950 . S
C475 C473 1.327 . S
C476 C464 1.349 . S
C476 H470 0.950 . S
C476 C477 1.327 . S
C477 H471 0.950 . S
C477 C476 1.327 . S
C477 C481 1.429 1_455 S
C478 C461 1.574 1_556 S
C478 H472 0.949 . S
C478 C482 1.368 . S
C479 C460 1.429 1_655 S
C479 C473 1.429 . S
C479 C480 1.523 . S
C480 C461 1.368 . S
C480 C474 1.368 1_654 S
C480 C479 1.523 . S
C481 C465 1.428 . S
C481 C477 1.429 1_655 S
C481 C482 1.523 . S
C482 C466 1.368 1_655 S
C482 C478 1.368 . S
C482 C481 1.523 . S
H483 C458 0.950 . S
H484 C460 0.950 . S
H485 C461 0.949 . S
H486 C463 0.950 . S
H487 C465 0.950 . S
C488 C489 1.349 . S
C488 C490 1.327 . S
C488 H513 0.950 . S
C489 C488 1.349 . S
C489 C505 1.349 . S
C490 C488 1.327 . S
C490 C509 1.429 . S
C490 H514 0.950 . S
C491 C508 1.574 . S
C491 C510 1.368 . S
C491 H515 0.949 . S
H492 C496 0.949 . S
C493 C494 1.367 . S
C493 C495 1.320 1_655 S
C493 H516 0.945 . S
C494 C493 1.367 . S
C494 C506 1.349 . S
C495 C493 1.320 1_455 S
C495 C511 1.429 . S
C495 H517 0.950 . S
C496 H492 0.949 . S
C496 C504 1.574 . S
C496 C512 1.368 . S
H497 C505 0.950 . S
H498 C503 0.950 . S
H499 C504 0.949 . S
H500 C506 0.950 . S
H501 C507 0.950 . S
H502 C508 0.949 . S
C503 H498 0.950 . S
C503 C505 1.327 . S
C503 C509 1.429 . S
C504 C496 1.574 . S
C504 H499 0.949 . S
C504 C510 1.368 . S
C505 C489 1.349 . S
C505 H497 0.950 . S
C505 C503 1.327 . S
C506 C494 1.349 . S
C506 H500 0.950 . S
C506 C507 1.327 . S
C507 H501 0.950 . S
C507 C506 1.327 . S
C507 C511 1.429 1_655 S
C508 C491 1.574 . S
C508 H502 0.949 . S
C508 C512 1.368 . S
C509 C490 1.429 . S
C509 C503 1.429 . S
C509 C510 1.523 . S
C510 C491 1.368 . S
C510 C504 1.368 . S
C510 C509 1.523 . S
C511 C495 1.429 . S
C511 C507 1.429 1_455 S
C511 C512 1.523 . S
C512 C496 1.368 . S
C512 C508 1.368 . S
C512 C511 1.523 . S
H513 C488 0.950 . S
H514 C490 0.950 . S
H515 C491 0.949 . S
H516 C493 0.945 . S
H517 C495 0.950 . S
C518 C519 1.349 . S
C518 C520 1.327 . S
C518 H543 0.950 . S
C519 C518 1.349 . S
C519 C535 1.349 1_545 S
C520 C518 1.327 . S
C520 C539 1.429 . S
C520 H544 0.950 . S
C521 C538 1.574 . S
C521 C540 1.409 . S
C521 H545 0.949 . S
H522 C526 0.949 . S
C523 C524 1.349 . S
C523 C525 1.327 . S
C523 H546 0.950 . S
C524 C523 1.349 . S
C524 C536 1.349 1_565 S
C525 C523 1.327 . S
C525 C541 1.429 . S
C525 H547 0.950 . S
C526 H522 0.949 . S
C526 C534 1.574 . S
C526 C542 1.368 1_545 S
H527 C535 0.950 . S
H528 C533 0.950 . S
H529 C534 0.949 . S
H530 C536 0.950 . S
H531 C537 0.950 . S
H532 C538 0.949 . S
C533 H528 0.950 . S
C533 C535 1.327 . S
C533 C539 1.429 1_565 S
C534 C526 1.574 . S
C534 H529 0.949 . S
C534 C540 1.330 1_545 S
C535 C519 1.349 1_565 S
C535 H527 0.950 . S
C535 C533 1.327 . S
C536 C524 1.349 1_545 S
C536 H530 0.950 . S
C536 C537 1.327 . S
C537 H531 0.950 . S
C537 C536 1.327 . S
C537 C541 1.429 1_545 S
C538 C521 1.574 . S
C538 H532 0.949 . S
C538 C542 1.368 . S
C539 C520 1.429 . S
C539 C533 1.429 1_545 S
C539 C540 1.520 1_545 S
C540 C521 1.409 . S
C540 C534 1.330 1_565 S
C540 C539 1.520 1_565 S
C541 C525 1.429 . S
C541 C537 1.429 1_565 S
C541 C542 1.523 . S
C542 C526 1.368 1_565 S
C542 C538 1.368 . S
C542 C541 1.523 . S
H543 C518 0.950 . S
H544 C520 0.950 . S
H545 C521 0.949 . S
H546 C523 0.950 . S
H547 C525 0.950 . S
C548 C549 1.349 . S
C548 C550 1.327 . S
C548 H573 0.950 . S
C549 C548 1.349 . S
C549 C565 1.349 . S
C550 C548 1.327 . S
C550 C569 1.429 . S
C550 H574 0.950 . S
C551 C568 1.574 . S
C551 C570 1.368 . S
C551 H575 0.949 . S
H552 C556 0.949 . S
C553 C554 1.349 . S
C553 C555 1.327 . S
C553 H576 0.950 . S
C554 C553 1.349 . S
C554 C566 1.349 . S
C555 C553 1.327 . S
C555 C571 1.429 . S
C555 H577 0.950 . S
C556 H552 0.949 . S
C556 C564 1.574 . S
C556 C572 1.368 . S
H557 C565 0.950 . S
H558 C563 0.950 . S
H559 C564 0.949 . S
H560 C566 0.950 . S
H561 C567 0.950 . S
H562 C568 0.949 . S
C563 H558 0.950 . S
C563 C565 1.327 . S
C563 C569 1.429 . S
C564 C556 1.574 . S
C564 H559 0.949 . S
C564 C570 1.368 . S
C565 C549 1.349 . S
C565 H557 0.950 . S
C565 C563 1.327 . S
C566 C554 1.349 . S
C566 H560 0.950 . S
C566 C567 1.327 . S
C567 H561 0.950 . S
C567 C566 1.327 . S
C567 C571 1.429 . S
C568 C551 1.574 . S
C568 H562 0.949 . S
C568 C572 1.368 . S
C569 C550 1.429 . S
C569 C563 1.429 . S
C569 C570 1.523 . S
C570 C551 1.368 . S
C570 C564 1.368 . S
C570 C569 1.523 . S
C571 C555 1.429 . S
C571 C567 1.429 . S
C571 C572 1.523 . S
C572 C556 1.368 . S
C572 C568 1.368 . S
C572 C571 1.523 . S
H573 C548 0.950 . S
H574 C550 0.950 . S
H575 C551 0.949 . S
H576 C553 0.950 . S
H577 C555 0.950 . S
C578 C579 1.349 . S
C578 C580 1.327 . S
C578 H603 0.950 . S
C579 C578 1.349 . S
C579 C595 1.349 . S
C580 C578 1.327 . S
C580 C599 1.429 . S
C580 H604 0.950 . S
C581 C598 1.574 . S
C581 C600 1.368 . S
C581 H605 0.949 . S
H582 C586 0.949 . S
C583 C584 1.349 . S
C583 C585 1.327 . S
C583 H606 0.950 . S
C584 C583 1.349 . S
C584 C596 1.349 . S
C585 C583 1.327 . S
C585 C601 1.429 . S
C585 H607 0.950 . S
C586 H582 0.949 . S
C586 C594 1.574 . S
C586 C602 1.368 . S
H587 C595 0.950 . S
H588 C593 0.950 . S
H589 C594 0.949 . S
H590 C596 0.950 . S
H591 C597 0.950 . S
H592 C598 0.949 . S
C593 H588 0.950 . S
C593 C595 1.327 . S
C593 C599 1.429 . S
C594 C586 1.574 . S
C594 H589 0.949 . S
C594 C600 1.368 . S
C595 C579 1.349 . S
C595 H587 0.950 . S
C595 C593 1.327 . S
C596 C584 1.349 . S
C596 H590 0.950 . S
C596 C597 1.327 . S
C597 H591 0.950 . S
C597 C596 1.327 . S
C597 C601 1.429 . S
C598 C581 1.574 . S
C598 H592 0.949 . S
C598 C602 1.368 . S
C599 C580 1.429 . S
C599 C593 1.429 . S
C599 C600 1.523 . S
C600 C581 1.368 . S
C600 C594 1.368 . S
C600 C599 1.523 . S
C601 C585 1.429 . S
C601 C597 1.429 . S
C601 C602 1.523 . S
C602 C586 1.368 . S
C602 C598 1.368 . S
C602 C601 1.523 . S
H603 C578 0.950 . S
H604 C580 0.950 . S
H605 C581 0.949 . S
H606 C583 0.950 . S
H607 C585 0.950 . S
C608 C609 1.349 . S
C608 C610 1.327 . S
C608 H633 0.950 . S
C609 C608 1.349 . S
C609 C625 1.349 1_655 S
C610 C608 1.327 . S
C610 C629 1.429 . S
C610 H634 0.950 . S
C611 C628 1.574 . S
C611 C630 1.371 . S
C611 H635 0.949 . S
H612 C616 0.949 1_556 S
C613 C614 1.349 . S
C613 C615 1.327 1_556 S
C613 H636 0.950 . S
C614 C613 1.349 . S
C614 C626 1.349 . S
C615 C613 1.327 1_554 S
C615 C631 1.429 1_554 S
C615 H637 0.950 . S
C616 H612 0.949 1_554 S
C616 C624 1.574 . S
C616 C632 1.368 1_655 S
H617 C625 0.950 . S
H618 C623 0.950 . S
H619 C624 0.949 . S
H620 C626 0.950 1_655 S
H621 C627 0.921 1_655 S
H622 C628 0.949 . S
C623 H618 0.950 . S
C623 C625 1.327 . S
C623 C629 1.429 1_455 S
C624 C616 1.574 . S
C624 H619 0.949 . S
C624 C630 1.366 1_655 S
C625 C609 1.349 1_455 S
C625 H617 0.950 . S
C625 C623 1.327 . S
C626 C614 1.349 . S
C626 H620 0.950 1_455 S
C626 C627 1.334 . S
C627 H621 0.921 1_455 S
C627 C626 1.334 . S
C627 C631 1.450 . S
C628 C611 1.574 . S
C628 H622 0.949 . S
C628 C632 1.368 . S
C629 C610 1.429 . S
C629 C623 1.429 1_655 S
C629 C630 1.522 1_655 S
C630 C611 1.371 . S
C630 C624 1.366 1_455 S
C630 C629 1.522 1_455 S
C631 C615 1.429 1_556 S
C631 C627 1.450 . S
C631 C632 1.523 1_556 S
C632 C616 1.368 1_455 S
C632 C628 1.368 . S
C632 C631 1.523 1_554 S
H633 C608 0.950 . S
H634 C610 0.950 . S
H635 C611 0.949 . S
H636 C613 0.950 . S
H637 C615 0.950 . S
C638 C639 1.349 1_545 S
C638 C640 1.327 . S
C638 H663 0.950 . S
C639 C638 1.349 1_565 S
C639 C655 1.349 . S
C640 C638 1.327 . S
C640 C659 1.429 1_545 S
C640 H664 0.950 . S
C641 C658 1.574 . S
C641 C660 1.368 1_565 S
C641 H665 0.949 . S
H642 C646 0.949 . S
C643 C644 1.349 1_565 S
C643 C645 1.327 . S
C643 H666 0.950 . S
C644 C643 1.349 1_545 S
C644 C656 1.349 . S
C645 C643 1.327 . S
C645 C661 1.429 1_565 S
C645 H667 0.950 . S
C646 H642 0.949 . S
C646 C654 1.574 1_556 S
C646 C662 1.368 . S
H647 C655 0.950 . S
H648 C653 0.950 . S
H649 C654 0.949 . S
H650 C656 0.950 . S
H651 C657 0.950 . S
H652 C658 0.949 . S
C653 H648 0.950 . S
C653 C655 1.327 . S
C653 C659 1.429 . S
C654 C646 1.574 1_554 S
C654 H649 0.949 . S
C654 C660 1.368 . S
C655 C639 1.349 . S
C655 H647 0.950 . S
C655 C653 1.327 . S
C656 C644 1.349 . S
C656 H650 0.950 . S
C656 C657 1.327 . S
C657 H651 0.950 . S
C657 C656 1.327 . S
C657 C661 1.429 . S
C658 C641 1.574 . S
C658 H652 0.949 . S
C658 C662 1.368 1_564 S
C659 C640 1.429 1_565 S
C659 C653 1.429 . S
C659 C660 1.523 1_565 S
C660 C641 1.368 1_545 S
C660 C654 1.368 . S
C660 C659 1.523 1_545 S
C661 C645 1.429 1_545 S
C661 C657 1.429 . S
C661 C662 1.523 . S
C662 C646 1.368 . S
C662 C658 1.368 1_546 S
C662 C661 1.523 . S
H663 C638 0.950 . S
H664 C640 0.950 . S
H665 C641 0.949 . S
H666 C643 0.950 . S
H667 C645 0.950 . S
C668 C669 1.349 . S
C668 C670 1.327 . S
C668 H693 0.950 . S
C669 C668 1.349 . S
C669 C685 1.349 1_556 S
C670 C668 1.327 . S
C670 C689 1.429 . S
C670 H694 0.950 . S
C671 C688 1.574 . S
C671 C690 1.368 . S
C671 H695 0.949 . S
H672 C676 0.949 . S
C673 C674 1.349 . S
C673 C675 1.327 . S
C673 H696 0.950 . S
C674 C673 1.349 . S
C674 C686 1.349 . S
C675 C673 1.327 . S
C675 C691 1.429 . S
C675 H697 0.950 . S
C676 H672 0.949 . S
C676 C684 1.574 . S
C676 C692 1.368 . S
H677 C685 0.950 . S
H678 C683 0.950 . S
H679 C684 0.949 . S
H680 C686 0.950 . S
H681 C687 0.950 . S
H682 C688 0.949 . S
C683 H678 0.950 . S
C683 C685 1.327 . S
C683 C689 1.429 1_554 S
C684 C676 1.574 . S
C684 H679 0.949 . S
C684 C690 1.368 . S
C685 C669 1.349 1_554 S
C685 H677 0.950 . S
C685 C683 1.327 . S
C686 C674 1.349 . S
C686 H680 0.950 . S
C686 C687 1.327 . S
C687 H681 0.950 . S
C687 C686 1.327 . S
C687 C691 1.429 . S
C688 C671 1.574 . S
C688 H682 0.949 . S
C688 C692 1.368 . S
C689 C670 1.429 . S
C689 C683 1.429 1_556 S
C689 C690 1.523 . S
C690 C671 1.368 . S
C690 C684 1.368 . S
C690 C689 1.523 . S
C691 C675 1.429 . S
C691 C687 1.429 . S
C691 C692 1.523 . S
C692 C676 1.368 . S
C692 C688 1.368 . S
C692 C691 1.523 . S
H693 C668 0.950 . S
H694 C670 0.950 . S
H695 C671 0.949 . S
H696 C673 0.950 . S
H697 C675 0.950 . S
C698 C699 1.349 . S
C698 C700 1.327 . S
C698 H723 0.950 . S
C699 C698 1.349 . S
C699 C715 1.349 . S
C700 C698 1.327 . S
C700 C719 1.429 . S
C700 H724 0.950 . S
C701 C718 1.574 . S
C701 C720 1.368 . S
C701 H725 0.949 . S
H702 C706 0.949 . S
C703 C704 1.349 1_554 S
C703 C705 1.327 . S
C703 H726 0.950 . S
C704 C703 1.349 1_556 S
C704 C716 1.349 . S
C705 C703 1.327 . S
C705 C721 1.429 . S
C705 H727 0.950 . S
C706 H702 0.949 . S
C706 C714 1.574 . S
C706 C722 1.368 . S
H707 C715 0.950 . S
H708 C713 0.950 . S
H709 C714 0.949 . S
H710 C716 0.950 . S
H711 C717 0.950 . S
H712 C718 0.949 . S
C713 H708 0.950 . S
C713 C715 1.327 . S
C713 C719 1.429 . S
C714 C706 1.574 . S
C714 H709 0.949 . S
C714 C720 1.368 . S
C715 C699 1.349 . S
C715 H707 0.950 . S
C715 C713 1.327 . S
C716 C704 1.349 . S
C716 H710 0.950 . S
C716 C717 1.327 1_556 S
C717 H711 0.950 . S
C717 C716 1.327 1_554 S
C717 C721 1.429 . S
C718 C701 1.574 . S
C718 H712 0.949 . S
C718 C722 1.368 . S
C719 C700 1.429 . S
C719 C713 1.429 . S
C719 C720 1.523 . S
C720 C701 1.368 . S
C720 C714 1.368 . S
C720 C719 1.523 . S
C721 C705 1.429 . S
C721 C717 1.429 . S
C721 C722 1.523 . S
C722 C706 1.368 . S
C722 C718 1.368 . S
C722 C721 1.523 . S
H723 C698 0.950 . S
H724 C700 0.950 . S
H725 C701 0.949 . S
H726 C703 0.950 . S
H727 C705 0.950 . S
C728 C729 1.349 . S
C728 C730 1.327 . S
C728 H753 0.950 1_556 S
C729 C728 1.349 . S
C729 C745 1.349 . S
C730 C728 1.327 . S
C730 C749 1.429 . S
C730 H754 0.950 . S
C731 C748 1.574 . S
C731 C750 1.368 . S
C731 H755 0.949 . S
H732 C736 0.949 . S
C733 C734 1.349 . S
C733 C735 1.327 . S
C733 H756 0.950 . S
C734 C733 1.349 . S
C734 C746 1.349 . S
C735 C733 1.327 . S
C735 C751 1.429 . S
C735 H757 0.950 . S
C736 H732 0.949 . S
C736 C744 1.574 . S
C736 C752 1.368 . S
H737 C745 0.950 . S
H738 C743 0.950 . S
H739 C744 0.949 . S
H740 C746 0.950 . S
H741 C747 0.950 . S
H742 C748 0.949 . S
C743 H738 0.950 . S
C743 C745 1.327 . S
C743 C749 1.429 . S
C744 C736 1.574 . S
C744 H739 0.949 . S
C744 C750 1.368 . S
C745 C729 1.349 . S
C745 H737 0.950 . S
C745 C743 1.327 . S
C746 C734 1.349 . S
C746 H740 0.950 . S
C746 C747 1.327 . S
C747 H741 0.950 . S
C747 C746 1.327 . S
C747 C751 1.429 . S
C748 C731 1.574 . S
C748 H742 0.949 . S
C748 C752 1.368 . S
C749 C730 1.429 . S
C749 C743 1.429 . S
C749 C750 1.523 . S
C750 C731 1.368 . S
C750 C744 1.368 . S
C750 C749 1.523 . S
C751 C735 1.429 . S
C751 C747 1.429 . S
C751 C752 1.523 . S
C752 C736 1.368 . S
C752 C748 1.368 . S
C752 C751 1.523 . S
H753 C728 0.950 1_554 S
H754 C730 0.950 . S
H755 C731 0.949 . S
H756 C733 0.950 . S
H757 C735 0.950 . S
C758 C759 1.349 . S
C758 C760 1.327 . S
C758 H783 0.950 . S
C759 C758 1.349 . S
C759 C775 1.349 1_544 S
C760 C758 1.327 . S
C760 C779 1.429 1_554 S
C760 H784 0.950 . S
C761 C778 1.574 . S
C761 C780 1.368 1_565 S
C761 H785 0.949 . S
H762 C766 0.949 . S
C763 C764 1.349 1_565 S
C763 C765 1.327 . S
C763 H786 0.950 . S
C764 C763 1.349 1_545 S
C764 C776 1.349 . S
C765 C763 1.327 . S
C765 C781 1.429 1_565 S
C765 H787 0.950 . S
C766 H762 0.949 . S
C766 C774 1.574 . S
C766 C782 1.368 . S
H767 C775 0.950 . S
H768 C773 0.950 . S
H769 C774 0.949 . S
H770 C776 0.950 . S
H771 C777 0.950 . S
H772 C778 0.949 . S
C773 H768 0.950 . S
C773 C775 1.327 . S
C773 C779 1.429 1_565 S
C774 C766 1.574 . S
C774 H769 0.949 . S
C774 C780 1.368 . S
C775 C759 1.349 1_566 S
C775 H767 0.950 . S
C775 C773 1.327 . S
C776 C764 1.349 . S
C776 H770 0.950 . S
C776 C777 1.327 . S
C777 H771 0.950 . S
C777 C776 1.327 . S
C777 C781 1.429 . S
C778 C761 1.574 . S
C778 H772 0.949 . S
C778 C782 1.368 1_565 S
C779 C760 1.429 1_556 S
C779 C773 1.429 1_545 S
C779 C780 1.523 . S
C780 C761 1.368 1_545 S
C780 C774 1.368 . S
C780 C779 1.523 . S
C781 C765 1.429 1_545 S
C781 C777 1.429 . S
C781 C782 1.523 . S
C782 C766 1.368 . S
C782 C778 1.368 1_545 S
C782 C781 1.523 . S
H783 C758 0.950 . S
H784 C760 0.950 . S
H785 C761 0.949 . S
H786 C763 0.950 . S
H787 C765 0.950 . S
C788 C789 1.349 . S
C788 C790 1.327 . S
C788 H813 0.950 . S
C789 C788 1.349 . S
C789 C805 1.349 . S
C790 C788 1.327 . S
C790 C809 1.429 . S
C790 H814 0.950 . S
C791 C808 1.574 . S
C791 C810 1.368 1_556 S
C791 H815 0.949 . S
H792 C796 0.949 . S
C793 C794 1.349 . S
C793 C795 1.327 . S
C793 H816 0.950 . S
C794 C793 1.349 . S
C794 C806 1.349 . S
C795 C793 1.327 . S
C795 C811 1.429 . S
C795 H817 0.950 . S
C796 H792 0.949 . S
C796 C804 1.574 . S
C796 C812 1.368 1_554 S
H797 C805 0.950 . S
H798 C803 0.950 . S
H799 C804 0.949 . S
H800 C806 0.950 . S
H801 C807 0.950 . S
H802 C808 0.949 . S
C803 H798 0.950 . S
C803 C805 1.327 . S
C803 C809 1.429 . S
C804 C796 1.574 . S
C804 H799 0.949 . S
C804 C810 1.368 . S
C805 C789 1.349 . S
C805 H797 0.950 . S
C805 C803 1.327 . S
C806 C794 1.349 . S
C806 H800 0.950 . S
C806 C807 1.327 . S
C807 H801 0.950 . S
C807 C806 1.327 . S
C807 C811 1.429 . S
C808 C791 1.574 . S
C808 H802 0.949 . S
C808 C812 1.368 . S
C809 C790 1.429 . S
C809 C803 1.429 . S
C809 C810 1.523 . S
C810 C791 1.368 1_554 S
C810 C804 1.368 . S
C810 C809 1.523 . S
C811 C795 1.429 . S
C811 C807 1.429 . S
C811 C812 1.523 . S
C812 C796 1.368 1_556 S
C812 C808 1.368 . S
C812 C811 1.523 . S
H813 C788 0.950 . S
H814 C790 0.950 . S
H815 C791 0.949 . S
H816 C793 0.950 . S
H817 C795 0.950 . S
C818 C819 1.349 . S
C818 C820 1.327 . S
C818 H843 0.950 . S
C819 C818 1.349 . S
C819 C835 1.349 . S
C820 C818 1.327 . S
C820 C839 1.429 . S
C820 H844 0.950 . S
C821 C838 1.574 . S
C821 C840 1.368 . S
C821 H845 0.949 . S
H822 C826 0.949 . S
C823 C824 1.349 . S
C823 C825 1.327 . S
C823 H846 0.950 . S
C824 C823 1.349 . S
C824 C836 1.349 . S
C825 C823 1.327 . S
C825 C841 1.429 . S
C825 H847 0.950 . S
C826 H822 0.949 . S
C826 C834 1.574 . S
C826 C842 1.368 . S
H827 C835 0.950 . S
H828 C833 0.950 . S
H829 C834 0.949 . S
H830 C836 0.950 . S
H831 C837 0.950 . S
H832 C838 0.949 . S
C833 H828 0.950 . S
C833 C835 1.327 . S
C833 C839 1.429 . S
C834 C826 1.574 . S
C834 H829 0.949 . S
C834 C840 1.368 . S
C835 C819 1.349 . S
C835 H827 0.950 . S
C835 C833 1.327 . S
C836 C824 1.349 . S
C836 H830 0.950 . S
C836 C837 1.327 . S
C837 H831 0.950 . S
C837 C836 1.327 . S
C837 C841 1.429 . S
C838 C821 1.574 . S
C838 H832 0.949 . S
C838 C842 1.368 . S
C839 C820 1.429 . S
C839 C833 1.429 . S
C839 C840 1.523 . S
C840 C821 1.368 . S
C840 C834 1.368 . S
C840 C839 1.523 . S
C841 C825 1.429 . S
C841 C837 1.429 . S
C841 C842 1.523 . S
C842 C826 1.368 . S
C842 C838 1.368 . S
C842 C841 1.523 . S
H843 C818 0.950 . S
H844 C820 0.950 . S
H845 C821 0.949 . S
H846 C823 0.950 . S
H847 C825 0.950 . S
C848 C849 1.349 . S
C848 C850 1.327 . S
C848 H873 0.950 . S
C849 C848 1.349 . S
C849 C865 1.349 1_655 S
C850 C848 1.327 . S
C850 C869 1.429 . S
C850 H874 0.950 . S
C851 C868 1.574 . S
C851 C870 1.368 1_455 S
C851 H875 0.949 . S
H852 C856 0.949 . S
C853 C854 1.349 1_455 S
C853 C855 1.327 . S
C853 H876 0.950 . S
C854 C853 1.349 1_655 S
C854 C866 1.349 . S
C855 C853 1.327 . S
C855 C871 1.429 1_455 S
C855 H877 0.950 . S
C856 H852 0.949 . S
C856 C864 1.574 . S
C856 C872 1.368 . S
H857 C865 0.950 . S
H858 C863 0.950 . S
H859 C864 0.949 . S
H860 C866 0.950 . S
H861 C867 0.950 . S
H862 C868 0.949 . S
C863 H858 0.950 . S
C863 C865 1.327 . S
C863 C869 1.429 1_455 S
C864 C856 1.574 . S
C864 H859 0.949 . S
C864 C870 1.368 . S
C865 C849 1.349 1_455 S
C865 H857 0.950 . S
C865 C863 1.327 . S
C866 C854 1.349 . S
C866 H860 0.950 . S
C866 C867 1.327 . S
C867 H861 0.950 . S
C867 C866 1.327 . S
C867 C871 1.429 . S
C868 C851 1.574 . S
C868 H862 0.949 . S
C868 C872 1.368 1_455 S
C869 C850 1.429 . S
C869 C863 1.429 1_655 S
C869 C870 1.523 . S
C870 C851 1.368 1_655 S
C870 C864 1.368 . S
C870 C869 1.523 . S
C871 C855 1.429 1_655 S
C871 C867 1.429 . S
C871 C872 1.523 . S
C872 C856 1.368 . S
C872 C868 1.368 1_655 S
C872 C871 1.523 . S
H873 C848 0.950 . S
H874 C850 0.950 . S
H875 C851 0.949 . S
H876 C853 0.950 . S
H877 C855 0.950 . S
C878 C879 1.349 1_545 S
C878 C880 1.327 . S
C878 H903 0.950 . S
C879 C878 1.349 1_565 S
C879 C895 1.349 . S
C880 C878 1.327 . S
C880 C899 1.429 1_545 S
C880 H904 0.950 . S
C881 C898 1.574 . S
C881 C900 1.368 . S
C881 H905 0.949 . S
H882 C886 0.949 . S
C883 C884 1.349 . S
C883 C885 1.327 . S
C883 H906 0.950 . S
C884 C883 1.349 . S
C884 C896 1.349 1_565 S
C885 C883 1.327 . S
C885 C901 1.429 . S
C885 H907 0.950 . S
C886 H882 0.949 . S
C886 C894 1.574 . S
C886 C902 1.368 1_545 S
H887 C895 0.950 . S
H888 C893 0.950 . S
H889 C894 0.949 . S
H890 C896 0.950 . S
H891 C897 0.950 . S
H892 C898 0.949 . S
C893 H888 0.950 . S
C893 C895 1.327 . S
C893 C899 1.429 . S
C894 C886 1.574 . S
C894 H889 0.949 . S
C894 C900 1.368 1_545 S
C895 C879 1.349 . S
C895 H887 0.950 . S
C895 C893 1.327 . S
C896 C884 1.349 1_545 S
C896 H890 0.950 . S
C896 C897 1.327 . S
C897 H891 0.950 . S
C897 C896 1.327 . S
C897 C901 1.429 1_545 S
C898 C881 1.574 . S
C898 H892 0.949 . S
C898 C902 1.368 . S
C899 C880 1.429 1_565 S
C899 C893 1.429 . S
C899 C900 1.523 . S
C900 C881 1.368 . S
C900 C894 1.368 1_565 S
C900 C899 1.523 . S
C901 C885 1.429 . S
C901 C897 1.429 1_565 S
C901 C902 1.523 . S
C902 C886 1.368 1_565 S
C902 C898 1.368 . S
C902 C901 1.523 . S
H903 C878 0.950 . S
H904 C880 0.950 . S
H905 C881 0.949 . S
H906 C883 0.950 . S
H907 C885 0.950 . S
C908 C909 1.349 . S
C908 C910 1.327 . S
C908 H933 0.950 . S
C909 C908 1.349 . S
C909 C925 1.349 . S
C910 C908 1.327 . S
C910 C929 1.429 . S
C910 H934 0.950 . S
C911 C928 1.574 . S
C911 C930 1.368 . S
C911 H935 0.949 . S
H912 C916 0.949 . S
C913 C914 1.349 . S
C913 C915 1.327 . S
C913 H936 0.950 . S
C914 C913 1.349 . S
C914 C926 1.349 . S
C915 C913 1.327 . S
C915 C931 1.429 . S
C915 H937 0.950 . S
C916 H912 0.949 . S
C916 C924 1.574 . S
C916 C932 1.368 . S
H917 C925 0.950 . S
H918 C923 0.950 . S
H919 C924 0.949 . S
H920 C926 0.950 . S
H921 C927 0.950 . S
H922 C928 0.949 . S
C923 H918 0.950 . S
C923 C925 1.327 . S
C923 C929 1.429 . S
C924 C916 1.574 . S
C924 H919 0.949 . S
C924 C930 1.368 . S
C925 C909 1.349 . S
C925 H917 0.950 . S
C925 C923 1.327 . S
C926 C914 1.349 . S
C926 H920 0.950 . S
C926 C927 1.327 . S
C927 H921 0.950 . S
C927 C926 1.327 . S
C927 C931 1.429 . S
C928 C911 1.574 . S
C928 H922 0.949 . S
C928 C932 1.368 . S
C929 C910 1.429 . S
C929 C923 1.429 . S
C929 C930 1.523 . S
C930 C911 1.368 . S
C930 C924 1.368 . S
C930 C929 1.523 . S
C931 C915 1.429 . S
C931 C927 1.429 . S
C931 C932 1.523 . S
C932 C916 1.368 . S
C932 C928 1.368 . S
C932 C931 1.523 . S
H933 C908 0.950 . S
H934 C910 0.950 . S
H935 C911 0.949 . S
H936 C913 0.950 . S
H937 C915 0.950 . S
C938 C939 1.349 . S
C938 C940 1.327 . S
C938 H963 0.950 . S
C939 C938 1.349 . S
C939 C955 1.349 . S
C940 C938 1.327 . S
C940 C959 1.429 . S
C940 H964 0.950 . S
C941 C958 1.574 . S
C941 C960 1.368 . S
C941 H965 0.949 . S
H942 C946 0.949 . S
C943 C944 1.349 . S
C943 C945 1.327 . S
C943 H966 0.950 . S
C944 C943 1.349 . S
C944 C956 1.349 . S
C945 C943 1.327 . S
C945 C961 1.429 . S
C945 H967 0.950 . S
C946 H942 0.949 . S
C946 C954 1.574 . S
C946 C962 1.368 . S
H947 C955 0.950 . S
H948 C953 0.950 . S
H949 C954 0.949 . S
H950 C956 0.950 . S
H951 C957 0.950 . S
H952 C958 0.949 . S
C953 H948 0.950 . S
C953 C955 1.327 . S
C953 C959 1.429 . S
C954 C946 1.574 . S
C954 H949 0.949 . S
C954 C960 1.368 . S
C955 C939 1.349 . S
C955 H947 0.950 . S
C955 C953 1.327 . S
C956 C944 1.349 . S
C956 H950 0.950 . S
C956 C957 1.327 . S
C957 H951 0.950 . S
C957 C956 1.327 . S
C957 C961 1.429 . S
C958 C941 1.574 . S
C958 H952 0.949 . S
C958 C962 1.368 . S
C959 C940 1.429 . S
C959 C953 1.429 . S
C959 C960 1.523 . S
C960 C941 1.368 . S
C960 C954 1.368 . S
C960 C959 1.523 . S
C961 C945 1.429 . S
C961 C957 1.429 . S
C961 C962 1.523 . S
C962 C946 1.368 . S
C962 C958 1.368 . S
C962 C961 1.523 . S
H963 C938 0.950 . S
H964 C940 0.950 . S
H965 C941 0.949 . S
H966 C943 0.950 . S
H967 C945 0.950 . S
C249 C74 1.750 . S
C254 C90 1.771 1_545 S
C284 C130 2.004 . S
C279 C85 2.011 . S
C314 C194 1.838 . S
C309 C52 1.801 . S
C344 C210 1.405 . S
C339 C63 1.343 . S
C374 C111 1.771 1_565 S
C369 C30 1.745 . S
C399 C41 1.975 1_556 S
C404 C151 2.004 . S
C429 C8 1.769 . S
C434 C185 1.837 . S
C459 C19 1.331 . S
C464 C231 1.405 . S
C494 C105 0.353 . S
C489 C62 0.333 . S
C524 C145 0.667 . S
C519 C73 0.665 . S
C554 C181 0.447 . S
C549 C84 0.366 . S
C579 C51 0.536 . S
C584 C225 0.563 . S
C609 C18 0.442 . S
C614 C114 0.353 . S
C644 C154 0.667 . S
C639 C29 0.673 . S
C674 C192 0.447 . S
C669 C40 0.493 . S
C699 C7 0.607 . S
C704 C234 0.563 . S
C729 C60 1.584 . S
C734 C112 1.972 . S
C759 C71 1.465 . S
C764 C152 1.834 . S
C794 C170 1.455 . S
C789 C82 1.302 . S
C824 C232 2.288 . S
C819 C49 1.887 . S
C849 C16 1.543 . S
C854 C101 1.972 1_655 S
C884 C141 1.835 . S
C879 C27 1.470 1_565 S
C914 C191 1.455 . S
C909 C38 1.171 . S
C939 C5 1.766 . S
C944 C221 2.287 . S
