# Generated by pormake.
# Topology dag, (6,3)-cn, num edge types: 1
# Building blocks:
#     Node 0, Type 0, BuildingBlock: MIDCAF_clean_sbu_0, # of connection points: 6
#     Node 1, Type 0, BuildingBlock: MIDCAF_clean_sbu_0, # of connection points: 6
#     Node 2, Type 0, BuildingBlock: MIDCAF_clean_sbu_0, # of connection points: 6
#     Node 3, Type 0, BuildingBlock: MIDCAF_clean_sbu_0, # of connection points: 6
#     Node 4, Type 1, BuildingBlock: WUSLED_clean_sbu_0, # of connection points: 3
#     Node 5, Type 1, BuildingBlock: WUSLED_clean_sbu_0, # of connection points: 3
#     Node 6, Type 1, BuildingBlock: WUSLED_clean_sbu_0, # of connection points: 3
#     Node 7, Type 1, BuildingBlock: WUSLED_clean_sbu_0, # of connection points: 3
#     Node 8, Type 1, BuildingBlock: WUSLED_clean_sbu_0, # of connection points: 3
#     Node 9, Type 1, BuildingBlock: WUSLED_clean_sbu_0, # of connection points: 3
#     Node 10, Type 1, BuildingBlock: WUSLED_clean_sbu_0, # of connection points: 3
#     Node 11, Type 1, BuildingBlock: WUSLED_clean_sbu_0, # of connection points: 3
#     Edge 12, Type (0, 1), BuildingBlock: TEMPAE_clean_linker_10, # of connection points: 2
#     Edge 13, Type (0, 1), BuildingBlock: TEMPAE_clean_linker_10, # of connection points: 2
#     Edge 14, Type (0, 1), BuildingBlock: TEMPAE_clean_linker_10, # of connection points: 2
#     Edge 15, Type (0, 1), BuildingBlock: TEMPAE_clean_linker_10, # of connection points: 2
#     Edge 16, Type (0, 1), BuildingBlock: TEMPAE_clean_linker_10, # of connection points: 2
#     Edge 17, Type (0, 1), BuildingBlock: TEMPAE_clean_linker_10, # of connection points: 2
#     Edge 18, Type (0, 1), BuildingBlock: TEMPAE_clean_linker_10, # of connection points: 2
#     Edge 19, Type (0, 1), BuildingBlock: TEMPAE_clean_linker_10, # of connection points: 2
#     Edge 20, Type (0, 1), BuildingBlock: TEMPAE_clean_linker_10, # of connection points: 2
#     Edge 21, Type (0, 1), BuildingBlock: TEMPAE_clean_linker_10, # of connection points: 2
#     Edge 22, Type (0, 1), BuildingBlock: TEMPAE_clean_linker_10, # of connection points: 2
#     Edge 23, Type (0, 1), BuildingBlock: TEMPAE_clean_linker_10, # of connection points: 2
#     Edge 24, Type (0, 1), BuildingBlock: TEMPAE_clean_linker_10, # of connection points: 2
#     Edge 25, Type (0, 1), BuildingBlock: TEMPAE_clean_linker_10, # of connection points: 2
#     Edge 26, Type (0, 1), BuildingBlock: TEMPAE_clean_linker_10, # of connection points: 2
#     Edge 27, Type (0, 1), BuildingBlock: TEMPAE_clean_linker_10, # of connection points: 2
#     Edge 28, Type (0, 1), BuildingBlock: TEMPAE_clean_linker_10, # of connection points: 2
#     Edge 29, Type (0, 1), BuildingBlock: TEMPAE_clean_linker_10, # of connection points: 2
#     Edge 30, Type (0, 1), BuildingBlock: TEMPAE_clean_linker_10, # of connection points: 2
#     Edge 31, Type (0, 1), BuildingBlock: TEMPAE_clean_linker_10, # of connection points: 2
#     Edge 32, Type (0, 1), BuildingBlock: TEMPAE_clean_linker_10, # of connection points: 2
#     Edge 33, Type (0, 1), BuildingBlock: TEMPAE_clean_linker_10, # of connection points: 2
#     Edge 34, Type (0, 1), BuildingBlock: TEMPAE_clean_linker_10, # of connection points: 2
#     Edge 35, Type (0, 1), BuildingBlock: TEMPAE_clean_linker_10, # of connection points: 2
# Relax obj value: 0.296
# Max RMSD: 0.190
# Mean RMSD: 0.178
data_MOF--net-dag--node1-MIDCAF_clean_sbu_0--node2-WUSLED_clean_sbu_0--edge1-TEMPAE_clean_linker_10
_symmetry_space_group_name_H-M    P1
_symmetry_Int_Tables_number       1
_symmetry_cell_setting            triclinic
loop_
_symmetry_equiv_pos_as_xyz
'x, y, z'
_cell_length_a     53.391042
_cell_length_b     52.385139
_cell_length_c     39.99914
_cell_angle_alpha  90.202005
_cell_angle_beta   94.028533
_cell_angle_gamma 90.12593
loop_
_atom_site_label
_atom_site_type_symbol
_atom_site_fract_x
_atom_site_fract_y
_atom_site_fract_z
_atom_type_partial_charge
Zn0 Zn 0.17398 0.80767 0.06431 0.0
Zn1 Zn 0.17498 0.84278 0.94146 0.0
Zn2 Zn 0.1732 0.8257 1.00185 0.0
C3 C 0.19299 0.88197 0.98143 0.0
C4 C 0.12468 0.83258 0.95099 0.0
O5 O 0.19974 0.79281 0.00732 0.0
O6 O 0.19964 0.78144 0.06062 0.0
C7 C 0.18709 0.85924 0.06864 0.0
O8 O 0.18521 0.86638 0.00337 0.0
O9 O 0.19311 0.87526 0.95113 0.0
O10 O 0.13812 0.84431 0.9313 0.0
O11 O 0.13466 0.82287 0.97829 0.0
O12 O 0.18439 0.84005 0.08702 0.0
O13 O 0.18368 0.85743 0.03651 0.0
O14 O 0.13455 0.81495 0.01209 0.0
O15 O 0.13782 0.79776 0.06271 0.0
C16 C 0.12445 0.80439 0.03691 0.0
O17 O 0.19924 0.80135 0.97428 0.0
O18 O 0.19323 0.81452 0.92185 0.0
C19 C 0.20774 0.77852 0.03201 0.0
C20 C 0.20345 0.79933 0.943 0.0
Zn21 Zn 0.66846 0.64374 0.43515 0.0
Zn22 Zn 0.65774 0.69188 0.54869 0.0
Zn23 Zn 0.66322 0.66705 0.49239 0.0
C24 C 0.67485 0.64268 0.56574 0.0
C25 C 0.61025 0.68821 0.51689 0.0
O26 O 0.69132 0.6884 0.46498 0.0
O27 O 0.69663 0.66438 0.42039 0.0
C28 C 0.67799 0.60733 0.48437 0.0
O29 O 0.6723 0.63995 0.53363 0.0
O30 O 0.67102 0.66412 0.579 0.0
O31 O 0.62109 0.69705 0.5435 0.0
O32 O 0.62307 0.67707 0.49492 0.0
O33 O 0.67537 0.60945 0.45293 0.0
O34 O 0.67507 0.62687 0.50339 0.0
O35 O 0.62667 0.66867 0.46225 0.0
O36 O 0.63429 0.64991 0.4144 0.0
C37 C 0.61929 0.66127 0.43238 0.0
O38 O 0.68953 0.7005 0.49621 0.0
O39 O 0.67925 0.72131 0.54144 0.0
C40 C 0.70223 0.68398 0.43778 0.0
C41 C 0.69235 0.71968 0.5165 0.0
Zn42 Zn 0.84351 0.18955 0.98022 0.0
Zn43 Zn 0.83053 0.15832 0.10524 0.0
Zn44 Zn 0.83765 0.1739 0.04349 0.0
C45 C 0.88048 0.17392 0.10494 0.0
C46 C 0.82071 0.11666 0.06277 0.0
O47 O 0.81269 0.20691 0.0329 0.0
O48 O 0.81918 0.21802 0.98079 0.0
C49 C 0.89043 0.19301 0.01707 0.0
O50 O 0.87405 0.17668 0.07349 0.0
O51 O 0.86452 0.16704 0.12493 0.0
O52 O 0.823 0.12218 0.09357 0.0
O53 O 0.82472 0.13364 0.04051 0.0
O54 O 0.88037 0.19592 0.9878 0.0
O55 O 0.87737 0.18527 0.04097 0.0
O56 O 0.82826 0.14183 0.00791 0.0
O57 O 0.83179 0.15779 0.95723 0.0
C58 C 0.82669 0.1393 0.97572 0.0
O59 O 0.80952 0.19908 0.06565 0.0
O60 O 0.80307 0.18185 0.11482 0.0
C61 C 0.808 0.22137 0.00724 0.0
C62 C 0.7982 0.19884 0.09308 0.0
Zn63 Zn 0.34053 0.34393 0.64385 0.0
Zn64 Zn 0.32524 0.30881 0.4825 0.0
Zn65 Zn 0.33257 0.31906 0.54389 0.0
C66 C 0.37653 0.30053 0.49825 0.0
C67 C 0.31432 0.361 0.49187 0.0
O68 O 0.30731 0.29507 0.57112 0.0
O69 O 0.32578 0.319 0.60875 0.0
C70 C 0.37319 0.31905 0.59218 0.0
O71 O 0.36979 0.30727 0.52733 0.0
O72 O 0.36035 0.29934 0.47368 0.0
O73 O 0.31344 0.34351 0.47001 0.0
O74 O 0.32152 0.35597 0.52247 0.0
O75 O 0.35274 0.32516 0.60402 0.0
O76 O 0.37148 0.31163 0.56178 0.0
O77 O 0.32436 0.35994 0.56085 0.0
O78 O 0.32954 0.37442 0.61506 0.0
C79 C 0.32356 0.37776 0.5837 0.0
O80 O 0.30383 0.28784 0.53832 0.0
O81 O 0.29982 0.28161 0.48357 0.0
C82 C 0.30936 0.30202 0.60174 0.0
C83 C 0.29367 0.27594 0.51251 0.0
C84 C 0.08149 0.14436 0.28847 0.0
C85 C 0.07612 0.12744 0.26164 0.0
C86 C 0.04399 0.15614 0.23789 0.0
C87 C 0.05748 0.13322 0.23667 0.0
C88 C 0.05006 0.17356 0.2641 0.0
C89 C 0.06866 0.16764 0.28935 0.0
U90 U 0.13098 0.09833 0.31832 0.0
O91 O 0.16837 0.10207 0.34431 0.0
O92 O 0.13934 0.07944 0.36694 0.0
C93 C 0.16202 0.08933 0.3707 0.0
C94 C 0.10006 0.13708 0.31558 0.0
C95 C 0.16869 0.10191 0.40291 0.0
C96 C 0.16922 0.13991 0.43776 0.0
C97 C 0.15946 0.12628 0.40969 0.0
C98 C 0.19616 0.10417 0.45377 0.0
C99 C 0.18839 0.12937 0.4594 0.0
C100 C 0.18642 0.09058 0.42565 0.0
C101 C 0.14417 0.04607 0.25343 0.0
C102 C 0.18054 0.02724 0.22946 0.0
C103 C 0.14201 0.00291 0.23105 0.0
C104 C 0.13078 0.02336 0.24666 0.0
C105 C 0.16681 0.00486 0.22161 0.0
C106 C 0.16935 0.04766 0.2453 0.0
C107 C 0.13077 0.06856 0.26549 0.0
O108 O 0.09511 0.11539 0.33024 0.0
O109 O 0.12359 0.13904 0.30822 0.0
O110 O 0.14362 0.08997 0.26852 0.0
O111 O 0.11603 0.06478 0.29003 0.0
H112 H 0.08602 0.10946 0.2604 0.0
H113 H 0.05332 0.11957 0.2166 0.0
H114 H 0.0398 0.19129 0.26572 0.0
H115 H 0.07267 0.18095 0.30983 0.0
H116 H 0.16306 0.15938 0.44108 0.0
H117 H 0.14574 0.13528 0.39231 0.0
H118 H 0.21074 0.09548 0.47014 0.0
H119 H 0.19363 0.07171 0.4208 0.0
H120 H 0.19973 0.02916 0.22265 0.0
H121 H 0.13083 0.98604 0.22488 0.0
H122 H 0.11129 0.02175 0.2523 0.0
H123 H 0.18022 0.06493 0.25012 0.0
C124 C 0.28625 0.60242 0.64271 0.0
C125 C 0.3016 0.59513 0.61736 0.0
C126 C 0.27669 0.55663 0.60672 0.0
C127 C 0.29702 0.57245 0.59973 0.0
C128 C 0.26018 0.56508 0.63047 0.0
C129 C 0.26509 0.58772 0.64859 0.0
U130 U 0.33597 0.6502 0.66418 0.0
O131 O 0.33664 0.68958 0.68362 0.0
O132 O 0.35731 0.6594 0.71165 0.0
C133 C 0.34948 0.68316 0.7116 0.0
C134 C 0.29466 0.62334 0.6653 0.0
C135 C 0.33869 0.69141 0.74259 0.0
C136 C 0.30598 0.68871 0.78164 0.0
C137 C 0.31633 0.68051 0.75232 0.0
C138 C 0.34051 0.71846 0.79206 0.0
C139 C 0.31783 0.70797 0.80168 0.0
C140 C 0.35085 0.71022 0.76275 0.0
C141 C 0.38913 0.64851 0.60286 0.0
C142 C 0.41636 0.67918 0.57757 0.0
C143 C 0.43079 0.63598 0.58832 0.0
C144 C 0.40796 0.62998 0.60133 0.0
C145 C 0.43523 0.6606 0.57624 0.0
C146 C 0.3935 0.67321 0.59082 0.0
C147 C 0.36469 0.64094 0.61492 0.0
O148 O 0.31525 0.61797 0.68384 0.0
O149 O 0.29531 0.64602 0.65139 0.0
O150 O 0.3466 0.65799 0.61307 0.0
O151 O 0.3656 0.62759 0.64274 0.0
H152 H 0.31812 0.60622 0.6126 0.0
H153 H 0.31054 0.56663 0.58229 0.0
H154 H 0.24406 0.55371 0.63611 0.0
H155 H 0.25302 0.59313 0.66809 0.0
H156 H 0.2883 0.68054 0.78805 0.0
H157 H 0.30674 0.6659 0.737 0.0
H158 H 0.35017 0.73318 0.8071 0.0
H159 H 0.36824 0.71867 0.75567 0.0
H160 H 0.41938 0.69837 0.56866 0.0
H161 H 0.44486 0.62118 0.5872 0.0
H162 H 0.4049 0.61069 0.60989 0.0
H163 H 0.37927 0.68787 0.59139 0.0
C164 C 0.78971 0.89204 0.12495 0.0
C165 C 0.80686 0.90008 0.10219 0.0
C166 C 0.7806 0.93679 0.08711 0.0
C167 C 0.80241 0.92225 0.08352 0.0
C168 C 0.7627 0.9277 0.10849 0.0
C169 C 0.7673 0.90554 0.12741 0.0
U170 U 0.83708 0.84293 0.15408 0.0
O171 O 0.85284 0.83286 0.20454 0.0
O172 O 0.83389 0.80359 0.17246 0.0
C173 C 0.84361 0.80956 0.20264 0.0
C174 C 0.79657 0.87118 0.1482 0.0
C175 C 0.82932 0.80096 0.23104 0.0
C176 C 0.81508 0.80706 0.28714 0.0
C177 C 0.82845 0.81568 0.26048 0.0
C178 C 0.80341 0.76879 0.25564 0.0
C179 C 0.80225 0.78361 0.28488 0.0
C180 C 0.81687 0.77731 0.22913 0.0
C181 C 0.89581 0.84009 0.10321 0.0
C182 C 0.93688 0.82312 0.12106 0.0
C183 C 0.92693 0.83348 0.06264 0.0
C184 C 0.90293 0.84115 0.0702 0.0
C185 C 0.94428 0.82468 0.08804 0.0
C186 C 0.91278 0.83069 0.12859 0.0
C187 C 0.87099 0.84986 0.11052 0.0
O188 O 0.79784 0.84841 0.13448 0.0
O189 O 0.81591 0.87639 0.16928 0.0
O190 O 0.87009 0.86343 0.13812 0.0
O191 O 0.85214 0.8338 0.10558 0.0
H192 H 0.82432 0.88989 0.10007 0.0
H193 H 0.81686 0.92876 0.06786 0.0
H194 H 0.74555 0.9382 0.11151 0.0
H195 H 0.75384 0.89952 0.14485 0.0
H196 H 0.81448 0.81888 0.30934 0.0
H197 H 0.83805 0.83389 0.26299 0.0
H198 H 0.79413 0.75039 0.25341 0.0
H199 H 0.81755 0.76533 0.20708 0.0
H200 H 0.94976 0.81615 0.14108 0.0
H201 H 0.93214 0.83519 0.03705 0.0
H202 H 0.89007 0.84839 0.05032 0.0
H203 H 0.90754 0.82958 0.15422 0.0
C204 C 0.6707 0.46768 0.78934 0.0
C205 C 0.64992 0.47553 0.76847 0.0
C206 C 0.67606 0.50565 0.7405 0.0
C207 C 0.65255 0.49439 0.74444 0.0
C208 C 0.69693 0.49765 0.76129 0.0
C209 C 0.69424 0.47882 0.78561 0.0
U210 U 0.63358 0.41096 0.81216 0.0
O211 O 0.64367 0.37239 0.82958 0.0
O212 O 0.6207 0.3969 0.85988 0.0
C213 C 0.6328 0.37516 0.85784 0.0
C214 C 0.66781 0.44683 0.81334 0.0
C215 C 0.64796 0.36708 0.88796 0.0
C216 C 0.68363 0.3726 0.92851 0.0
C217 C 0.6677 0.38216 0.90219 0.0
C218 C 0.65963 0.33325 0.92718 0.0
C219 C 0.68017 0.34772 0.94076 0.0
C220 C 0.6437 0.34287 0.9011 0.0
C221 C 0.57843 0.39536 0.74717 0.0
C222 C 0.55865 0.37227 0.69952 0.0
C223 C 0.53545 0.38005 0.74844 0.0
C224 C 0.55636 0.39253 0.76403 0.0
C225 C 0.53623 0.37023 0.71573 0.0
C226 C 0.57946 0.38479 0.71502 0.0
C227 C 0.59991 0.41074 0.76113 0.0
O228 O 0.64768 0.4483 0.83044 0.0
O229 O 0.67143 0.42388 0.80125 0.0
O230 O 0.62208 0.40003 0.76025 0.0
O231 O 0.59711 0.42355 0.78897 0.0
H232 H 0.63166 0.46684 0.77049 0.0
H233 H 0.63622 0.49982 0.72844 0.0
H234 H 0.71526 0.50607 0.75887 0.0
H235 H 0.71053 0.47279 0.80125 0.0
H236 H 0.69909 0.38437 0.93857 0.0
H237 H 0.67123 0.40095 0.89226 0.0
H238 H 0.65659 0.31387 0.93536 0.0
H239 H 0.62861 0.33094 0.89027 0.0
H240 H 0.55997 0.36459 0.67453 0.0
H241 H 0.51837 0.37899 0.76146 0.0
H242 H 0.55497 0.40053 0.78883 0.0
H243 H 0.59623 0.38676 0.70147 0.0
C244 C 0.60019 0.29044 0.40249 0.0
C245 C 0.59464 0.30848 0.4269 0.0
C246 C 0.5549 0.2873 0.43422 0.0
C247 C 0.57211 0.30702 0.44249 0.0
C248 C 0.56112 0.2684 0.41118 0.0
C249 C 0.5836 0.27007 0.39522 0.0
U250 U 0.65877 0.32766 0.38962 0.0
O251 O 0.69502 0.31816 0.3699 0.0
O252 O 0.67069 0.34696 0.3446 0.0
C253 C 0.69117 0.33318 0.34376 0.0
C254 C 0.62193 0.29452 0.38254 0.0
C255 C 0.69549 0.32171 0.31108 0.0
C256 C 0.68962 0.28731 0.27038 0.0
C257 C 0.68431 0.29842 0.30096 0.0
C258 C 0.7166 0.32311 0.2593 0.0
C259 C 0.70609 0.29939 0.24938 0.0
C260 C 0.71135 0.33413 0.28989 0.0
C261 C 0.67614 0.37937 0.45587 0.0
C262 C 0.69254 0.40416 0.50408 0.0
C263 C 0.69302 0.42184 0.44827 0.0
C264 C 0.68266 0.39926 0.43474 0.0
C265 C 0.69741 0.42492 0.48321 0.0
C266 C 0.68186 0.38165 0.49051 0.0
C267 C 0.66119 0.35741 0.44268 0.0
O268 O 0.62168 0.31663 0.36713 0.0
O269 O 0.64399 0.28889 0.39736 0.0
O270 O 0.6728 0.33533 0.44198 0.0
O271 O 0.64643 0.36178 0.41561 0.0
H272 H 0.60728 0.32432 0.43288 0.0
H273 H 0.56779 0.3217 0.46033 0.0
H274 H 0.54805 0.25312 0.40429 0.0
H275 H 0.58758 0.25604 0.37636 0.0
H276 H 0.68107 0.26913 0.2633 0.0
H277 H 0.67181 0.28867 0.31691 0.0
H278 H 0.72961 0.33274 0.24397 0.0
H279 H 0.72008 0.35217 0.29731 0.0
H280 H 0.69609 0.40562 0.531 0.0
H281 H 0.69611 0.4374 0.43129 0.0
H282 H 0.67859 0.3979 0.40788 0.0
H283 H 0.67713 0.36642 0.50721 0.0
C284 C 0.10977 0.23046 0.94484 0.0
C285 C 0.10337 0.21063 0.96609 0.0
C286 C 0.06664 0.23419 0.98155 0.0
C287 C 0.08202 0.21239 0.9841 0.0
C288 C 0.07393 0.25467 0.96154 0.0
C289 C 0.09527 0.25273 0.94316 0.0
U290 U 0.15761 0.18565 0.91587 0.0
O291 O 0.19576 0.18968 0.899 0.0
O292 O 0.16582 0.17259 0.8655 0.0
C293 C 0.18917 0.18068 0.86887 0.0
C294 C 0.12993 0.22635 0.92223 0.0
C295 C 0.19795 0.19473 0.84006 0.0
C296 C 0.21291 0.23326 0.81407 0.0
C297 C 0.20336 0.22098 0.84154 0.0
C298 C 0.21105 0.19338 0.78314 0.0
C299 C 0.21715 0.2195 0.78468 0.0
C300 C 0.20163 0.18115 0.81056 0.0
C301 C 0.15978 0.12093 0.96134 0.0
C302 C 0.19302 0.08954 0.97124 0.0
C303 C 0.14953 0.07592 0.96533 0.0
C304 C 0.14196 0.10122 0.96103 0.0
C305 C 0.17512 0.0698 0.97033 0.0
C306 C 0.18543 0.11494 0.9666 0.0
C307 C 0.15086 0.14738 0.95645 0.0
O308 O 0.15264 0.22411 0.93695 0.0
O309 O 0.12468 0.20861 0.89949 0.0
O310 O 0.13661 0.15137 0.92884 0.0
O311 O 0.16711 0.16587 0.96353 0.0
H312 H 0.11428 0.1932 0.96753 0.0
H313 H 0.07692 0.19599 0.99856 0.0
H314 H 0.06278 0.27189 0.95932 0.0
H315 H 0.09996 0.26823 0.92684 0.0
H316 H 0.21759 0.25335 0.81619 0.0
H317 H 0.20057 0.2319 0.86403 0.0
H318 H 0.21364 0.18231 0.76073 0.0
H319 H 0.19744 0.16091 0.80886 0.0
H320 H 0.21286 0.08529 0.97492 0.0
H321 H 0.13532 0.06111 0.96499 0.0
H322 H 0.12209 0.1054 0.95734 0.0
H323 H 0.1996 0.12978 0.96698 0.0
C324 C 0.34987 0.55731 0.31752 0.0
C325 C 0.34783 0.53265 0.30368 0.0
C326 C 0.33185 0.51664 0.35525 0.0
C327 C 0.33892 0.51248 0.32243 0.0
C328 C 0.33297 0.54153 0.36844 0.0
C329 C 0.34198 0.56162 0.34979 0.0
U330 U 0.35901 0.60383 0.24383 0.0
O331 O 0.3206 0.60708 0.22081 0.0
O332 O 0.34748 0.58161 0.19846 0.0
C333 C 0.32522 0.59238 0.19527 0.0
C334 C 0.36202 0.57841 0.30039 0.0
C335 C 0.31799 0.60339 0.1623 0.0
C336 C 0.28736 0.60685 0.1148 0.0
C337 C 0.29671 0.59408 0.14365 0.0
C338 C 0.32143 0.63747 0.1219 0.0
C339 C 0.29912 0.62921 0.10428 0.0
C340 C 0.33075 0.62469 0.15076 0.0
C341 C 0.4111 0.65025 0.26248 0.0
C342 C 0.44238 0.68169 0.2819 0.0
C343 C 0.43928 0.64158 0.31133 0.0
C344 C 0.41939 0.63422 0.28896 0.0
C345 C 0.45116 0.66537 0.3081 0.0
C346 C 0.4225 0.67414 0.25921 0.0
C347 C 0.39069 0.64158 0.23854 0.0
O348 O 0.34871 0.59932 0.29579 0.0
O349 O 0.37511 0.57252 0.27478 0.0
O350 O 0.36796 0.64484 0.24847 0.0
O351 O 0.3941 0.61876 0.22587 0.0
H352 H 0.35369 0.52877 0.27879 0.0
H353 H 0.33796 0.49354 0.31146 0.0
H354 H 0.32791 0.54529 0.39375 0.0
H355 H 0.34355 0.58046 0.36105 0.0
H356 H 0.27025 0.59995 0.10161 0.0
H357 H 0.28668 0.57761 0.15221 0.0
H358 H 0.33073 0.65481 0.11474 0.0
H359 H 0.3472 0.63215 0.16498 0.0
H360 H 0.45092 0.70023 0.27884 0.0
H361 H 0.44578 0.62821 0.3306 0.0
H362 H 0.41074 0.61571 0.29197 0.0
H363 H 0.41618 0.68683 0.23904 0.0
C364 C 0.82079 0.94693 0.7776 0.0
C365 C 0.84124 0.95244 0.8005 0.0
C366 C 0.81723 0.98546 0.8265 0.0
C367 C 0.83954 0.97157 0.82454 0.0
C368 C 0.79645 0.97948 0.80418 0.0
C369 C 0.79826 0.96038 0.77976 0.0
U370 U 0.85688 0.89047 0.75339 0.0
O371 O 0.84767 0.85273 0.7318 0.0
O372 O 0.87284 0.87844 0.70653 0.0
C373 C 0.86114 0.85632 0.70594 0.0
C374 C 0.82335 0.92681 0.75224 0.0
C375 C 0.84972 0.84753 0.67349 0.0
C376 C 0.81694 0.84906 0.62824 0.0
C377 C 0.8292 0.86003 0.65698 0.0
C378 C 0.84626 0.81374 0.63184 0.0
C379 C 0.82497 0.82544 0.61612 0.0
C380 C 0.85857 0.82476 0.66022 0.0
C381 C 0.90942 0.87186 0.81953 0.0
C382 C 0.92735 0.84373 0.8631 0.0
C383 C 0.95321 0.8592 0.82006 0.0
C384 C 0.93268 0.87237 0.80512 0.0
C385 C 0.95093 0.84522 0.84967 0.0
C386 C 0.90685 0.85704 0.84827 0.0
C387 C 0.8883 0.88803 0.80664 0.0
O388 O 0.844 0.92835 0.73625 0.0
O389 O 0.81868 0.90353 0.76238 0.0
O390 O 0.86603 0.8772 0.80487 0.0
O391 O 0.89206 0.90257 0.78071 0.0
H392 H 0.85869 0.94202 0.79965 0.0
H393 H 0.85572 0.9755 0.84168 0.0
H394 H 0.77906 0.98998 0.80512 0.0
H395 H 0.7822 0.95623 0.76251 0.0
H396 H 0.80032 0.8582 0.61674 0.0
H397 H 0.82211 0.87762 0.66703 0.0
H398 H 0.85267 0.79546 0.62301 0.0
H399 H 0.8744 0.81489 0.67269 0.0
H400 H 0.92491 0.83291 0.88567 0.0
H401 H 0.97119 0.86109 0.80933 0.0
H402 H 0.93533 0.88364 0.783 0.0
H403 H 0.88913 0.85634 0.8599 0.0
C404 C 0.21176 0.88973 0.10554 0.0
C405 C 0.19008 0.88417 0.08511 0.0
C406 C 0.21252 0.91084 0.12734 0.0
C407 C 0.19081 0.92614 0.12916 0.0
C408 C 0.1692 0.92101 0.10758 0.0
C409 C 0.16912 0.90002 0.0858 0.0
C410 C 0.23591 0.91581 0.14983 0.0
C411 C 0.14555 0.93664 0.10912 0.0
C412 C 0.17353 0.95874 0.20872 0.0
C413 C 0.17726 0.98447 0.20096 0.0
C414 C 0.17958 0.93934 0.18648 0.0
C415 C 0.18947 0.94589 0.15569 0.0
C416 C 0.19492 0.9717 0.14883 0.0
C417 C 0.18872 0.99073 0.17156 0.0
C418 C 0.17379 0.91198 0.19495 0.0
C419 C 0.20553 0.97945 0.1164 0.0
H420 H 0.22772 0.87697 0.10542 0.0
H421 H 0.15209 0.89506 0.07076 0.0
H422 H 0.24092 0.93637 0.14973 0.0
H423 H 0.2324 0.91066 0.17597 0.0
H424 H 0.25215 0.90452 0.14213 0.0
H425 H 0.13064 0.93063 0.08992 0.0
H426 H 0.13811 0.93472 0.1342 0.0
H427 H 0.14978 0.95715 0.10545 0.0
H428 H 0.16504 0.95385 0.2317 0.0
H429 H 0.19149 0.01061 0.16533 0.0
H430 H 0.19013 0.89958 0.19095 0.0
H431 H 0.15782 0.905 0.1781 0.0
H432 H 0.16878 0.90986 0.22129 0.0
H433 H 0.22057 0.96619 0.10971 0.0
H434 H 0.21318 -0.0008 0.11765 0.0
H435 H 0.19039 0.9786 0.096 0.0
C436 C 0.56949 0.70801 0.52821 0.0
C437 C 0.58259 0.68816 0.51374 0.0
C438 C 0.54388 0.70558 0.53316 0.0
C439 C 0.53123 0.68263 0.52372 0.0
C440 C 0.54388 0.66347 0.50636 0.0
C441 C 0.56951 0.66646 0.50162 0.0
C442 C 0.53087 0.7267 0.55092 0.0
C443 C 0.53123 0.63873 0.49551 0.0
C444 C 0.48202 0.65898 0.57993 0.0
C445 C 0.45964 0.66676 0.56264 0.0
C446 C 0.50533 0.66416 0.56742 0.0
C447 C 0.50633 0.67721 0.53656 0.0
C448 C 0.48376 0.68536 0.51906 0.0
C449 C 0.46067 0.68008 0.53242 0.0
C450 C 0.52894 0.65602 0.5876 0.0
C451 C 0.48341 0.69993 0.48656 0.0
H452 H 0.57962 0.72489 0.53734 0.0
H453 H 0.57964 0.65098 0.49064 0.0
H454 H 0.51333 0.73219 0.53622 0.0
H455 H 0.5256 0.71983 0.5757 0.0
H456 H 0.54292 0.74392 0.55485 0.0
H457 H 0.53934 0.63097 0.47275 0.0
H458 H 0.53444 0.62445 0.51577 0.0
H459 H 0.51067 0.64103 0.49037 0.0
H460 H 0.48131 0.64909 0.60362 0.0
H461 H 0.44339 0.68609 0.51888 0.0
H462 H 0.54142 0.67275 0.59279 0.0
H463 H 0.53939 0.64204 0.57306 0.0
H464 H 0.52491 0.64716 0.61185 0.0
H465 H 0.50212 0.70178 0.47646 0.0
H466 H 0.47591 0.71938 0.49053 0.0
H467 H 0.47041 0.69047 0.46745 0.0
C468 C 0.82866 0.07048 0.06816 0.0
C469 C 0.81429 0.09019 0.05331 0.0
C470 C 0.82071 0.04507 0.06509 0.0
C471 C 0.7974 0.03933 0.04752 0.0
C472 C 0.78372 0.05903 0.03029 0.0
C473 C 0.79242 0.08438 0.03332 0.0
C474 C 0.83646 0.02458 0.08273 0.0
C475 C 0.759 0.0538 0.01087 0.0
C476 C 0.78812 0.96789 0.04104 0.0
C477 C 0.77854 0.96278 0.07216 0.0
C478 C 0.79213 0.99306 0.03069 0.0
C479 C 0.78625 0.01358 0.05184 0.0
C480 C 0.77377 0.00857 0.08122 0.0
C481 C 0.77025 0.98326 0.09118 0.0
C482 C 0.80479 0.99738 0.99871 0.0
C483 C 0.76636 0.02992 0.10397 0.0
H484 H 0.84573 0.0751 0.08331 0.0
H485 H 0.78136 0.09976 0.0218 0.0
H486 H 0.82677 0.01738 0.10448 0.0
H487 H 0.83894 0.00822 0.06559 0.0
H488 H 0.8553 0.03175 0.09195 0.0
H489 H 0.75498 0.0684 0.99114 0.0
H490 H 0.75866 0.03462 0.99901 0.0
H491 H 0.74374 0.0545 0.0283 0.0
H492 H 0.79385 0.9522 0.02559 0.0
H493 H 0.76279 0.9797 0.11523 0.0
H494 H 0.79887 0.01568 0.98688 0.0
H495 H 0.80062 0.98162 0.98048 0.0
H496 H 0.82541 0.99804 0.00452 0.0
H497 H 0.78344 0.03791 0.11763 0.0
H498 H 0.75341 0.02324 0.12269 0.0
H499 H 0.75715 0.04557 0.08913 0.0
C500 C 0.41786 0.30759 0.60864 0.0
C501 C 0.3974 0.324 0.61107 0.0
C502 C 0.44099 0.31278 0.62639 0.0
C503 C 0.4436 0.33496 0.64673 0.0
C504 C 0.42278 0.35129 0.64964 0.0
C505 C 0.39991 0.34552 0.63192 0.0
C506 C 0.46261 0.29457 0.62343 0.0
C507 C 0.42481 0.37526 0.67079 0.0
C508 C 0.49707 0.34336 0.7138 0.0
C509 C 0.51329 0.35956 0.69762 0.0
C510 C 0.47467 0.33443 0.69718 0.0
C511 C 0.46833 0.34202 0.66371 0.0
C512 C 0.48486 0.35798 0.6471 0.0
C513 C 0.50713 0.36649 0.66422 0.0
C514 C 0.45746 0.3175 0.71573 0.0
C515 C 0.47881 0.36655 0.61145 0.0
H516 H 0.41568 0.29063 0.59308 0.0
H517 H 0.3841 0.35828 0.63369 0.0
H518 H 0.47936 0.30499 0.6157 0.0
H519 H 0.46781 0.28592 0.64821 0.0
H520 H 0.45796 0.27901 0.60507 0.0
H521 H 0.40659 0.3854 0.67136 0.0
H522 H 0.43163 0.37055 0.69687 0.0
H523 H 0.43871 0.38846 0.66075 0.0
H524 H 0.50185 0.33775 0.73951 0.0
H525 H 0.51938 0.3793 0.65171 0.0
H526 H 0.45273 0.29999 0.70093 0.0
H527 H 0.43959 0.32765 0.71915 0.0
H528 H 0.46593 0.31186 0.74078 0.0
H529 H 0.47759 0.34968 0.59463 0.0
H530 H 0.49319 0.37981 0.60261 0.0
H531 H 0.46029 0.3762 0.60914 0.0
C532 C 0.66737 0.56169 0.48399 0.0
C533 C 0.68224 0.58152 0.49799 0.0
C534 C 0.6734 0.53619 0.49054 0.0
C535 C 0.69501 0.53028 0.51167 0.0
C536 C 0.70913 0.55032 0.52792 0.0
C537 C 0.70258 0.57588 0.52076 0.0
C538 C 0.65749 0.51561 0.4729 0.0
C539 C 0.73204 0.54509 0.55103 0.0
C540 C 0.69192 0.45961 0.52559 0.0
C541 C 0.70368 0.4507 0.49747 0.0
C542 C 0.69211 0.48567 0.53386 0.0
C543 C 0.70363 0.50325 0.513 0.0
C544 C 0.71832 0.49401 0.48745 0.0
C545 C 0.71837 0.46779 0.4802 0.0
C546 C 0.67779 0.49462 0.56281 0.0
C547 C 0.7316 0.51203 0.46522 0.0
H548 H 0.65151 0.56619 0.46657 0.0
H549 H 0.71411 0.59131 0.53153 0.0
H550 H 0.66891 0.50476 0.4556 0.0
H551 H 0.65077 0.50193 0.49141 0.0
H552 H 0.64088 0.52351 0.45818 0.0
H553 H 0.73437 0.56 0.57085 0.0
H554 H 0.7312 0.52608 0.56302 0.0
H555 H 0.74894 0.54571 0.53643 0.0
H556 H 0.68076 0.4467 0.53959 0.0
H557 H 0.72848 0.46096 0.45938 0.0
H558 H 0.65926 0.50213 0.5532 0.0
H559 H 0.68818 0.51024 0.57645 0.0
H560 H 0.67461 0.4789 0.58061 0.0
H561 H 0.71751 0.5219 0.44812 0.0
H562 H 0.74497 0.50189 0.44978 0.0
H563 H 0.742 0.52684 0.48047 0.0
C564 C 0.92635 0.21808 0.04377 0.0
C565 C 0.91748 0.19805 0.02286 0.0
C566 C 0.95158 0.22603 0.04411 0.0
C567 C 0.96814 0.21328 0.02348 0.0
C568 C 0.95957 0.1916 0.00469 0.0
C569 C 0.93422 0.18457 0.00413 0.0
C570 C 0.96005 0.249 0.06477 0.0
C571 C 0.97688 0.17661 0.98375 0.0
C572 C 0.0205 0.24399 0.97902 0.0
C573 C 0.04188 0.23401 0.99673 0.0
C574 C 0.99637 0.23941 0.98953 0.0
C575 C 0.99343 0.22396 0.018 0.0
C576 C 0.01498 0.21574 0.03761 0.0
C577 C 0.03892 0.22107 0.02692 0.0
C578 C 0.97393 0.2494 0.96852 0.0
C579 C 0.0131 0.19939 0.06823 0.0
H580 H 0.91326 0.22843 0.05828 0.0
H581 H 0.92726 0.1689 0.98825 0.0
H582 H 0.97836 0.2453 0.07872 0.0
H583 H 0.96271 0.26539 0.04786 0.0
H584 H 0.94615 0.25447 0.08291 0.0
H585 H 0.96809 0.1586 0.97391 0.0
H586 H 0.98198 0.18834 0.96219 0.0
H587 H 0.9945 0.17187 0.9988 0.0
H588 H 0.02237 0.254 0.95566 0.0
H589 H 0.0553 0.21394 0.04147 0.0
H590 H 0.95987 0.25749 0.98475 0.0
H591 H 0.96479 0.23346 0.95391 0.0
H592 H 0.97928 0.26434 0.95069 0.0
H593 H 0.9954 0.20273 0.08039 0.0
H594 H 0.02918 0.20295 0.08685 0.0
H595 H 0.01374 0.17903 0.06061 0.0
C596 C 0.29259 0.39115 0.45215 0.0
C597 C 0.30966 0.38729 0.47992 0.0
C598 C 0.29272 0.41384 0.43372 0.0
C599 C 0.31001 0.43337 0.44377 0.0
C600 C 0.32556 0.43052 0.47379 0.0
C601 C 0.3255 0.40729 0.49122 0.0
C602 C 0.27588 0.41594 0.40191 0.0
C603 C 0.34398 0.45088 0.48624 0.0
C604 C 0.33964 0.47269 0.37757 0.0
C605 C 0.32507 0.4949 0.37659 0.0
C606 C 0.33453 0.45248 0.39893 0.0
C607 C 0.31454 0.45461 0.4203 0.0
C608 C 0.29918 0.47669 0.41861 0.0
C609 C 0.30476 0.49662 0.3969 0.0
C610 C 0.35052 0.42873 0.39838 0.0
C611 C 0.27639 0.4795 0.43859 0.0
H612 H 0.28029 0.37565 0.44344 0.0
H613 H 0.33911 0.40423 0.51221 0.0
H614 H 0.26341 0.43273 0.40342 0.0
H615 H 0.28741 0.41882 0.38017 0.0
H616 H 0.26399 0.3987 0.39715 0.0
H617 H 0.3454 0.45158 0.51408 0.0
H618 H 0.36288 0.44608 0.47822 0.0
H619 H 0.33876 0.47008 0.47647 0.0
H620 H 0.35544 0.47129 0.36207 0.0
H621 H 0.29306 0.51354 0.39569 0.0
H622 H 0.33845 0.41145 0.39582 0.0
H623 H 0.3622 0.42714 0.42231 0.0
H624 H 0.36321 0.42888 0.37753 0.0
H625 H 0.25926 0.47782 0.42132 0.0
H626 H 0.27599 0.49886 0.44991 0.0
H627 H 0.27529 0.465 0.45853 0.0
C628 C 0.08535 0.85183 0.92661 0.0
C629 C 0.09747 0.83096 0.94226 0.0
C630 C 0.06015 0.85034 0.91465 0.0
C631 C 0.0468 0.8272 0.9179 0.0
C632 C 0.05873 0.80624 0.93469 0.0
C633 C 0.08401 0.80842 0.94688 0.0
C634 C 0.04806 0.87336 0.89758 0.0
C635 C 0.04543 0.78108 0.93834 0.0
C636 C 0.9772 0.83874 0.90311 0.0
C637 C 0.9737 0.83494 0.86837 0.0
C638 C 0.00042 0.83387 0.92035 0.0
C639 C 0.02071 0.82528 0.90243 0.0
C640 C 0.01665 0.81914 0.86798 0.0
C641 C 0.99315 0.82407 0.85131 0.0
C642 C 0.00369 0.84021 0.95712 0.0
C643 C 0.03764 0.80927 0.84818 0.0
H644 H 0.09576 0.86934 0.92333 0.0
H645 H 0.0935 0.7922 0.95877 0.0
H646 H 0.04238 0.86871 0.87104 0.0
H647 H 0.03084 0.87872 0.90991 0.0
H648 H 0.06083 0.89015 0.89817 0.0
H649 H 0.05339 0.77048 0.96062 0.0
H650 H 0.02497 0.78362 0.94038 0.0
H651 H 0.04801 0.76918 0.91585 0.0
H652 H 0.96237 0.84722 0.9166 0.0
H653 H 0.99036 0.82048 0.8246 0.0
H654 H 0.01108 0.85996 0.96016 0.0
H655 H 0.01725 0.82708 0.97028 0.0
H656 H 0.98558 0.83919 0.96916 0.0
H657 H 0.05145 0.8248 0.84505 0.0
H658 H 0.03071 0.8023 0.82293 0.0
H659 H 0.04766 0.7935 0.86184 0.0
C660 C 0.80535 0.11432 0.92916 0.0
C661 C 0.82013 0.11462 0.9595 0.0
C662 C 0.80242 0.09196 0.90993 0.0
C663 C 0.81481 0.06939 0.92116 0.0
C664 C 0.8287 0.06928 0.95275 0.0
C665 C 0.83122 0.09197 0.97153 0.0
C666 C 0.78735 0.09292 0.87657 0.0
C667 C 0.8426 0.04598 0.96597 0.0
C668 C 0.79649 0.0088 0.87213 0.0
C669 C 0.81629 0.0067 0.85105 0.0
C670 C 0.79602 0.02861 0.89592 0.0
C671 C 0.81553 0.04709 0.89802 0.0
C672 C 0.83548 0.04504 0.87663 0.0
C673 C 0.83569 0.02481 0.85363 0.0
C674 C 0.77427 0.02974 0.91802 0.0
C675 C 0.85643 0.06451 0.87758 0.0
H676 H 0.79678 0.13191 0.91986 0.0
H677 H 0.84313 0.09229 0.99462 0.0
H678 H 0.79982 0.08905 0.85606 0.0
H679 H 0.77264 0.0779 0.87542 0.0
H680 H 0.77819 0.11172 0.87199 0.0
H681 H 0.84174 0.04466 0.99358 0.0
H682 H 0.83517 0.02804 0.95425 0.0
H683 H 0.86268 0.04778 0.96084 0.0
H684 H 0.78152 0.99473 0.87037 0.0
H685 H 0.8509 0.02339 0.83713 0.0
H686 H 0.75783 0.03822 0.90365 0.0
H687 H 0.77846 0.04135 0.94096 0.0
H688 H 0.7688 0.01021 0.92553 0.0
H689 H 0.84855 0.08388 0.87304 0.0
H690 H 0.87017 0.06056 0.85861 0.0
H691 H 0.86657 0.06468 0.90275 0.0
C692 C 0.40945 0.28441 0.46212 0.0
C693 C 0.40321 0.29539 0.49251 0.0
C694 C 0.43455 0.28161 0.45457 0.0
C695 C 0.45398 0.28969 0.47813 0.0
C696 C 0.44788 0.30003 0.50927 0.0
C697 C 0.42255 0.3029 0.51599 0.0
C698 C 0.44022 0.27104 0.42074 0.0
C699 C 0.46806 0.30859 0.53519 0.0
C700 C 0.51974 0.26658 0.46268 0.0
C701 C 0.52961 0.28795 0.44718 0.0
C702 C 0.4954 0.26711 0.47402 0.0
C703 C 0.48049 0.28929 0.46887 0.0
C704 C 0.49051 0.31092 0.45335 0.0
C705 C 0.51502 0.31005 0.44299 0.0
C706 C 0.48554 0.24394 0.49121 0.0
C707 C 0.47513 0.3348 0.44693 0.0
H708 H 0.39466 0.27855 0.44373 0.0
H709 H 0.41795 0.31193 0.53909 0.0
H710 H 0.44962 0.28591 0.40634 0.0
H711 H 0.45332 0.25468 0.42382 0.0
H712 H 0.42302 0.26462 0.4058 0.0
H713 H 0.46005 0.31811 0.5568 0.0
H714 H 0.47914 0.29183 0.5444 0.0
H715 H 0.48122 0.32203 0.5241 0.0
H716 H 0.53112 0.24955 0.46606 0.0
H717 H 0.52259 0.32648 0.43068 0.0
H718 H 0.46912 0.23597 0.47611 0.0
H719 H 0.47903 0.24943 0.51597 0.0
H720 H 0.49996 0.22876 0.49494 0.0
H721 H 0.45809 0.33024 0.43048 0.0
H722 H 0.48581 0.35003 0.43486 0.0
H723 H 0.46875 0.34236 0.47084 0.0
C724 C 0.18012 0.92247 0.00725 0.0
C725 C 0.1976 0.90908 0.98958 0.0
C726 C 0.17997 0.94924 0.00769 0.0
C727 C 0.19773 0.96282 0.98994 0.0
C728 C 0.21665 0.94936 0.97424 0.0
C729 C 0.21621 0.92256 0.97397 0.0
C730 C 0.15946 0.96295 0.0246 0.0
C731 C 0.23611 0.9632 0.95552 0.0
C732 C 0.17229 0.02436 0.95183 0.0
C733 C 0.1828 0.04274 0.97416 0.0
C734 C 0.1778 0.99841 0.95614 0.0
C735 C 0.19404 0.99058 0.98372 0.0
C736 C 0.20528 0.00912 0.00589 0.0
C737 C 0.1997 0.03508 1.00062 0.0
C738 C 0.16572 0.97932 0.93155 0.0
C739 C 0.22318 0.00176 0.03512 0.0
H740 H 0.16513 0.9121 0.01807 0.0
H741 H 0.2296 0.91214 0.96002 0.0
H742 H 0.16764 0.97813 0.04143 0.0
H743 H 0.1466 0.97235 0.00544 0.0
H744 H 0.14822 0.94977 0.03923 0.0
H745 H 0.25108 0.95019 0.94781 0.0
H746 H 0.22695 0.97216 0.93273 0.0
H747 H 0.24487 0.97871 0.9713 0.0
H748 H 0.15957 0.03031 0.93101 0.0
H749 H 0.20795 0.0493 0.01784 0.0
H750 H 0.15305 0.96651 0.94461 0.0
H751 H 0.1803 0.96721 0.92106 0.0
H752 H 0.15464 0.98868 0.9105 0.0
H753 H 0.21816 0.98312 0.04588 0.0
H754 H 0.22374 0.01646 0.05525 0.0
H755 H 0.24236 6e-05 0.02634 0.0
C756 C 0.58211 0.64643 0.39696 0.0
C757 C 0.5931 0.66486 0.41881 0.0
C758 C 0.55787 0.64964 0.38196 0.0
C759 C 0.54427 0.67203 0.38865 0.0
C760 C 0.555 0.6905 0.41142 0.0
C761 C 0.57944 0.68674 0.42612 0.0
C762 C 0.54695 0.62914 0.35852 0.0
C763 C 0.5412 0.71461 0.41942 0.0
C764 C 0.49457 0.68378 0.31829 0.0
C765 C 0.47354 0.67201 0.33085 0.0
C766 C 0.51727 0.68605 0.33808 0.0
C767 C 0.51912 0.67588 0.3709 0.0
C768 C 0.49748 0.66579 0.38453 0.0
C769 C 0.47491 0.66425 0.3645 0.0
C770 C 0.53977 0.69764 0.32299 0.0
C771 C 0.49861 0.65474 0.41933 0.0
H772 H 0.59259 0.62938 0.39148 0.0
H773 H 0.58806 0.70121 0.44263 0.0
H774 H 0.52867 0.6225 0.36687 0.0
H775 H 0.54343 0.63704 0.33292 0.0
H776 H 0.55958 0.6124 0.35714 0.0
H777 H 0.54865 0.72309 0.44362 0.0
H778 H 0.5436 0.72876 0.39931 0.0
H779 H 0.52079 0.7111 0.42057 0.0
H780 H 0.49382 0.68987 0.29239 0.0
H781 H 0.45857 0.65587 0.37484 0.0
H782 H 0.55329 0.68235 0.31763 0.0
H783 H 0.54954 0.71117 0.34094 0.0
H784 H 0.53448 0.70788 0.29927 0.0
H785 H 0.5078 0.63577 0.41907 0.0
H786 H 0.47964 0.65228 0.42862 0.0
H787 H 0.51002 0.6671 0.43706 0.0
C788 C 0.33008 0.4243 0.58764 0.0
C789 C 0.31578 0.40381 0.57422 0.0
C790 C 0.32099 0.44928 0.58548 0.0
C791 C 0.29689 0.45388 0.56964 0.0
C792 C 0.28324 0.43352 0.55354 0.0
C793 C 0.29276 0.40852 0.55635 0.0
C794 C 0.33651 0.47047 0.60229 0.0
C795 C 0.25798 0.43787 0.53522 0.0
C796 C 0.26859 0.50971 0.61299 0.0
C797 C 0.27525 0.53015 0.59277 0.0
C798 C 0.27312 0.48437 0.60377 0.0
C799 C 0.28517 0.47932 0.57403 0.0
C800 C 0.28983 0.49961 0.55209 0.0
C801 C 0.28432 0.52471 0.56138 0.0
C802 C 0.26736 0.46323 0.62765 0.0
C803 C 0.30312 0.49537 0.52056 0.0
H804 H 0.34798 0.42057 0.60126 0.0
H805 H 0.2817 0.3926 0.54605 0.0
H806 H 0.33809 0.48675 0.58492 0.0
H807 H 0.32715 0.47756 0.62442 0.0
H808 H 0.35573 0.46407 0.61079 0.0
H809 H 0.25219 0.42144 0.51879 0.0
H810 H 0.24367 0.4406 0.55372 0.0
H811 H 0.25825 0.45539 0.51973 0.0
H812 H 0.26164 0.51341 0.63733 0.0
H813 H 0.28874 0.54021 0.54491 0.0
H814 H 0.28513 0.4563 0.64055 0.0
H815 H 0.25837 0.44685 0.61382 0.0
H816 H 0.2548 0.46973 0.64697 0.0
H817 H 0.32368 0.49602 0.52681 0.0
H818 H 0.29849 0.51057 0.50188 0.0
H819 H 0.29842 0.47648 0.50927 0.0
C820 C 0.08552 0.7834 0.0543 0.0
C821 C 0.09694 0.80352 0.03808 0.0
C822 C 0.06012 0.78465 0.06121 0.0
C823 C 0.04603 0.80677 0.05224 0.0
C824 C 0.05743 0.82687 0.03506 0.0
C825 C 0.08269 0.82485 0.02793 0.0
C826 C 0.04872 0.76289 0.07959 0.0
C827 C 0.04403 0.85155 0.02632 0.0
C828 C 0.97474 0.80429 0.05121 0.0
C829 C 0.97032 0.81829 0.08014 0.0
C830 C -0.00074 0.79974 0.04214 0.0
C831 C 0.01991 0.80949 0.06252 0.0
C832 C 0.01555 0.82281 0.09245 0.0
C833 C 0.99082 0.82713 0.10082 0.0
C834 C 0.00251 0.78415 0.01095 0.0
C835 C 0.03701 0.83285 0.11542 0.0
H836 H 0.09669 0.76702 0.06248 0.0
H837 H 0.09169 0.84079 0.01631 0.0
H838 H 0.04184 0.76994 0.10349 0.0
H839 H 0.03232 0.75506 0.06431 0.0
H840 H 0.06231 0.7472 0.08524 0.0
H841 H 0.04955 0.85878 1.00179 0.0
H842 H 0.02331 0.84975 0.02546 0.0
H843 H 0.0499 0.86617 0.04545 0.0
H844 H 0.95898 0.79687 0.03552 0.0
H845 H 0.98754 0.83809 0.12312 0.0
H846 H -0.00095 0.76375 0.0165 0.0
H847 H 0.02151 0.78587 1.00178 0.0
H848 H 0.98843 0.7898 0.99058 0.0
H849 H 0.05107 0.81759 0.12098 0.0
H850 H 0.03059 0.8402 0.13945 0.0
H851 H 0.04658 0.84859 0.10285 0.0
C852 C 0.69423 0.62389 0.61844 0.0
C853 C 0.68004 0.6206 0.58791 0.0
C854 C 0.69604 0.60435 0.64238 0.0
C855 C 0.68303 0.58109 0.63578 0.0
C856 C 0.66949 0.57733 0.60436 0.0
C857 C 0.66816 0.59717 0.58081 0.0
C858 C 0.71068 0.60916 0.67548 0.0
C859 C 0.6547 0.55328 0.5962 0.0
C860 C 0.69816 0.52434 0.69287 0.0
C861 C 0.67859 0.52546 0.71445 0.0
C862 C 0.69984 0.54226 0.66704 0.0
C863 C 0.68168 0.56186 0.66295 0.0
C864 C 0.66205 0.56321 0.6849 0.0
C865 C 0.66074 0.545 0.71034 0.0
C866 C 0.72059 0.53985 0.64354 0.0
C867 C 0.64227 0.58377 0.68134 0.0
H868 H 0.70331 0.6421 0.624 0.0
H869 H 0.65657 0.59482 0.55764 0.0
H870 H 0.69758 0.60998 0.6958 0.0
H871 H 0.72395 0.59328 0.68138 0.0
H872 H 0.72144 0.62734 0.67559 0.0
H873 H 0.65398 0.54913 0.56888 0.0
H874 H 0.66254 0.53652 0.61011 0.0
H875 H 0.63513 0.55605 0.60312 0.0
H876 H 0.71178 0.50905 0.69563 0.0
H877 H 0.6457 0.54607 0.72715 0.0
H878 H 0.73173 0.55775 0.64364 0.0
H879 H 0.71223 0.53692 0.61767 0.0
H880 H 0.7334 0.52368 0.65018 0.0
H881 H 0.65127 0.60289 0.68292 0.0
H882 H 0.62856 0.58249 0.70091 0.0
H883 H 0.63191 0.58224 0.65638 0.0
C884 C 0.92658 0.168 0.10102 0.0
C885 C 0.90667 0.17744 0.11833 0.0
C886 C 0.95094 0.16675 0.11663 0.0
C887 C 0.95534 0.17525 0.15025 0.0
C888 C 0.93551 0.18636 0.16693 0.0
C889 C 0.9114 0.18722 0.15078 0.0
C890 C 0.97118 0.15441 0.09769 0.0
C891 C 0.93934 0.19571 0.20268 0.0
C892 C 0.00415 0.14173 0.20747 0.0
C893 C 0.02239 0.16078 0.21335 0.0
C894 C 0.98267 0.14601 0.18609 0.0
C895 C 0.97951 0.16982 0.16968 0.0
C896 C 0.99838 0.18883 0.17448 0.0
C897 C 0.01948 0.18418 0.19665 0.0
C898 C 0.96284 0.12538 0.18224 0.0
C899 C 0.99622 0.21448 0.15748 0.0
H900 H 0.92286 0.16001 0.07612 0.0
H901 H 0.89595 0.19463 0.1641 0.0
H902 H 0.99034 0.15939 0.10823 0.0
H903 H 0.96897 0.13337 0.09865 0.0
H904 H 0.9692 0.15999 0.07087 0.0
H905 H 0.9221 0.2044 0.21176 0.0
H906 H 0.94509 0.17956 0.21937 0.0
H907 H 0.95463 0.21012 0.20486 0.0
H908 H 0.00625 0.12371 0.22062 0.0
H909 H 0.03366 0.1989 0.20097 0.0
H910 H 0.95968 0.11983 0.1555 0.0
H911 H 0.94478 0.13271 0.19052 0.0
H912 H 0.9681 0.10805 0.19702 0.0
H913 H 0.98222 0.21463 0.13565 0.0
H914 H 0.01471 0.22045 0.149 0.0
H915 H 0.99065 0.22897 0.17585 0.0
C916 C 0.24576 0.75563 0.05311 0.0
C917 C 0.2263 0.75826 0.02812 0.0
C918 C 0.25988 0.73322 0.05594 0.0
C919 C 0.25441 0.71295 0.03301 0.0
C920 C 0.23661 0.71666 0.00546 0.0
C921 C 0.22238 0.73924 0.00362 0.0
C922 C 0.2787 0.73031 0.08572 0.0
C923 C 0.23091 0.69613 0.97954 0.0
C924 C 0.29942 0.65923 0.05522 0.0
C925 C 0.28611 0.64618 0.07899 0.0
C926 C 0.28821 0.67937 0.03647 0.0
C927 C 0.26352 0.687 0.04251 0.0
C928 C 0.2493 0.67227 0.06401 0.0
C929 C 0.26074 0.65198 0.08185 0.0
C930 C 0.30332 0.69366 0.0121 0.0
C931 C 0.22279 0.67953 0.071 0.0
H932 H 0.24878 0.7705 0.07191 0.0
H933 H 0.20721 0.74127 0.98433 0.0
H934 H 0.27161 0.71614 0.10337 0.0
H935 H 0.29684 0.72315 0.07763 0.0
H936 H 0.28219 0.74858 0.09946 0.0
H937 H 0.22557 0.70473 0.9547 0.0
H938 H 0.24711 0.68319 0.97716 0.0
H939 H 0.21473 0.68459 0.98683 0.0
H940 H 0.3189 0.65444 0.05239 0.0
H941 H 0.25033 0.64206 0.10018 0.0
H942 H 0.31023 0.71188 0.02362 0.0
H943 H 0.29146 0.69845 0.98908 0.0
H944 H 0.31979 0.68244 0.00503 0.0
H945 H 0.22303 0.69786 0.08504 0.0
H946 H 0.2136 0.66485 0.08598 0.0
H947 H 0.21122 0.68233 0.04719 0.0
C948 C 0.70834 0.76356 0.52651 0.0
C949 C 0.71206 0.73915 0.51337 0.0
C950 C 0.7286 0.78009 0.53395 0.0
C951 C 0.75308 0.77214 0.52738 0.0
C952 C 0.75632 0.74921 0.5093 0.0
C953 C 0.73581 0.73254 0.50331 0.0
C954 C 0.7241 0.80455 0.55269 0.0
C955 C 0.78179 0.74108 0.49927 0.0
C956 C 0.80255 0.8205 0.55895 0.0
C957 C 0.80899 0.8109 0.59107 0.0
C958 C 0.78593 0.80698 0.53639 0.0
C959 C 0.77478 0.78407 0.54697 0.0
C960 C 0.78198 0.77404 0.5791 0.0
C961 C 0.79921 0.78743 0.60049 0.0
C962 C 0.77978 0.81778 0.50189 0.0
C963 C 0.7704 0.74988 0.59182 0.0
H964 H 0.68985 0.76891 0.53369 0.0
H965 H 0.73884 0.71368 0.49316 0.0
H966 H 0.73196 0.80276 0.57902 0.0
H967 H 0.73375 0.82074 0.54127 0.0
H968 H 0.7038 0.80912 0.55291 0.0
H969 H 0.78008 0.72815 0.47713 0.0
H970 H 0.7934 0.75786 0.49334 0.0
H971 H 0.79173 0.73061 0.52029 0.0
H972 H 0.81038 0.83858 0.55159 0.0
H973 H 0.80418 0.78012 0.62541 0.0
H974 H 0.76413 0.83159 0.50288 0.0
H975 H 0.77405 0.80266 0.48336 0.0
H976 H 0.79615 0.82825 0.49299 0.0
H977 H 0.74978 0.75229 0.59244 0.0
H978 H 0.77817 0.74472 0.61739 0.0
H979 H 0.77369 0.73372 0.57473 0.0
C980 C 0.79302 0.23817 0.12531 0.0
C981 C 0.78247 0.22024 0.10249 0.0
C982 C 0.77779 0.25424 0.14315 0.0
C983 C 0.75134 0.25217 0.13805 0.0
C984 C 0.74071 0.23592 0.11237 0.0
C985 C 0.75648 0.21983 0.09504 0.0
C986 C 0.79003 0.27152 0.16987 0.0
C987 C 0.71268 0.23374 0.10532 0.0
C988 C 0.72077 0.26065 0.21987 0.0
C989 C 0.71398 0.28647 0.21867 0.0
C990 C 0.73151 0.24888 0.1928 0.0
C991 C 0.7355 0.26323 0.16366 0.0
C992 C 0.72716 0.28883 0.1614 0.0
C993 C 0.71666 0.30023 0.18906 0.0
C994 C 0.74006 0.22148 0.19633 0.0
C995 C 0.73042 0.30457 0.13051 0.0
H996 H 0.81319 0.23829 0.13102 0.0
H997 H 0.74841 0.20579 0.07742 0.0
H998 H 0.78164 0.29085 0.1683 0.0
H999 H 0.78677 0.26372 0.19498 0.0
H1000 H 0.8106 0.27326 0.16781 0.0
H1001 H 0.70778 0.22592 0.07983 0.0
H1002 H 0.705 0.22066 0.12384 0.0
H1003 H 0.70343 0.25254 0.10766 0.0
H1004 H 0.71895 0.24995 0.24272 0.0
H1005 H 0.71105 0.3201 0.18777 0.0
H1006 H 0.76086 0.2207 0.19707 0.0
H1007 H 0.73264 0.21006 0.17441 0.0
H1008 H 0.73388 0.21245 0.21946 0.0
H1009 H 0.75038 0.31037 0.12997 0.0
H1010 H 0.71874 0.32211 0.13001 0.0
H1011 H 0.72542 0.29325 0.10753 0.0
C1012 C 0.27141 0.27826 0.61828 0.0
C1013 C 0.29377 0.29136 0.62743 0.0
C1014 C 0.25733 0.26688 0.64263 0.0
C1015 C 0.26566 0.26907 0.67694 0.0
C1016 C 0.28781 0.28302 0.68633 0.0
C1017 C 0.30159 0.29398 0.66145 0.0
C1018 C 0.23378 0.25224 0.63162 0.0
C1019 C 0.29733 0.28582 0.72262 0.0
C1020 C 0.22164 0.25671 0.74591 0.0
C1021 C 0.22872 0.232 0.75613 0.0
C1022 C 0.23303 0.26882 0.71957 0.0
C1023 C 0.25196 0.25592 0.7031 0.0
C1024 C 0.25887 0.23083 0.7129 0.0
C1025 C 0.24724 0.21923 0.73932 0.0
C1026 C 0.22514 0.29557 0.70976 0.0
C1027 C 0.27899 0.21644 0.69599 0.0
H1028 H 0.26489 0.27697 0.5921 0.0
H1029 H 0.31883 0.30417 0.66867 0.0
H1030 H 0.23549 0.23216 0.64018 0.0
H1031 H 0.21744 0.26062 0.64332 0.0
H1032 H 0.22992 0.25228 0.60395 0.0
H1033 H 0.31427 0.29817 0.7258 0.0
H1034 H 0.28249 0.29407 0.73743 0.0
H1035 H 0.30205 0.26676 0.73329 0.0
H1036 H 0.20712 0.26657 0.75847 0.0
H1037 H 0.25311 0.20029 0.74734 0.0
H1038 H 0.21943 0.29632 0.68257 0.0
H1039 H 0.24125 0.30883 0.7144 0.0
H1040 H 0.20933 0.30251 0.72394 0.0
H1041 H 0.27438 0.21565 0.66852 0.0
H1042 H 0.28133 0.19663 0.70549 0.0
H1043 H 0.29721 0.22659 0.70019 0.0
C1044 C 0.71611 0.72846 0.4259 0.0
C1045 C 0.72044 0.70211 0.42512 0.0
C1046 C 0.73096 0.74535 0.40849 0.0
C1047 C 0.75013 0.73547 0.38941 0.0
C1048 C 0.75561 0.70904 0.39056 0.0
C1049 C 0.74063 0.69269 0.40832 0.0
C1050 C 0.72482 0.77344 0.40856 0.0
C1051 C 0.77607 0.69769 0.37094 0.0
C1052 C 0.7639 0.7635 0.30569 0.0
C1053 C 0.78771 0.77431 0.31276 0.0
C1054 C 0.75083 0.75217 0.33095 0.0
C1055 C 0.76186 0.75158 0.3642 0.0
C1056 C 0.78525 0.76376 0.37195 0.0
C1057 C 0.79795 0.77502 0.34607 0.0
C1058 C 0.72576 0.73968 0.32167 0.0
C1059 C 0.79738 0.7638 0.40719 0.0
H1060 H 0.70031 0.73573 0.43862 0.0
H1061 H 0.74404 0.67229 0.40788 0.0
H1062 H 0.74211 0.78524 0.40894 0.0
H1063 H 0.71314 0.77813 0.38537 0.0
H1064 H 0.71417 0.77873 0.43044 0.0
H1065 H 0.77986 0.67743 0.37763 0.0
H1066 H 0.7704 0.69865 0.34374 0.0
H1067 H 0.79374 0.70874 0.37536 0.0
H1068 H 0.75567 0.76343 0.28013 0.0
H1069 H 0.81635 0.78339 0.35168 0.0
H1070 H 0.71151 0.74649 0.3385 0.0
H1071 H 0.72743 0.7187 0.32489 0.0
H1072 H 0.71888 0.74361 0.29534 0.0
H1073 H 0.78368 0.76972 0.42533 0.0
H1074 H 0.81393 0.77673 0.40991 0.0
H1075 H 0.80359 0.74419 0.41404 0.0
C1076 C 0.77094 0.24209 0.97902 0.0
C1077 C 0.78809 0.24072 0.00699 0.0
C1078 C 0.75298 0.26145 0.97609 0.0
C1079 C 0.75249 0.28031 1.00152 0.0
C1080 C 0.76925 0.27851 0.03052 0.0
C1081 C 0.7869 0.25856 0.03297 0.0
C1082 C 0.73512 0.2622 0.94505 0.0
C1083 C 0.76972 0.29823 0.05809 0.0
C1084 C 0.72505 0.33892 0.95967 0.0
C1085 C 0.69943 0.33543 0.96419 0.0
C1086 C 0.74321 0.32285 0.97539 0.0
C1087 C 0.73554 0.30257 0.99562 0.0
C1088 C 0.7102 0.30091 0.00357 0.0
C1089 C 0.6924 0.31742 0.98779 0.0
C1090 C 0.77027 0.3259 0.96744 0.0
C1091 C 0.70146 0.28009 0.02603 0.0
H1092 H 0.7718 0.22807 0.95911 0.0
H1093 H 0.80045 0.25762 0.05441 0.0
H1094 H 0.71544 0.26347 0.95215 0.0
H1095 H 0.73896 0.2794 0.93011 0.0
H1096 H 0.73685 0.2451 0.92888 0.0
H1097 H 0.776 0.28969 0.08263 0.0
H1098 H 0.78333 0.31345 0.05264 0.0
H1099 H 0.75112 0.30725 0.0601 0.0
H1100 H 0.73084 0.3528 0.94172 0.0
H1101 H 0.67276 0.31514 0.99238 0.0
H1102 H 0.77502 0.31097 0.94918 0.0
H1103 H 0.78295 0.32341 0.99038 0.0
H1104 H 0.7739 0.34488 0.95644 0.0
H1105 H 0.69951 0.26199 0.01156 0.0
H1106 H 0.68301 0.28469 0.03574 0.0
H1107 H 0.71537 0.27684 0.04752 0.0
C1108 C 0.2581 0.24982 0.48855 0.0
C1109 C 0.27514 0.25533 0.51584 0.0
C1110 C 0.24259 0.22833 0.48849 0.0
C1111 C 0.24388 0.21199 0.51671 0.0
C1112 C 0.25974 0.21841 0.5454 0.0
C1113 C 0.27555 0.23988 0.54443 0.0
C1114 C 0.22598 0.22232 0.45725 0.0
C1115 C 0.26096 0.202 0.57638 0.0
C1116 C 0.1912 0.16476 0.50213 0.0
C1117 C 0.20308 0.14617 0.4835 0.0
C1118 C 0.20499 0.18499 0.51754 0.0
C1119 C 0.23105 0.18683 0.51349 0.0
C1120 C 0.24349 0.1665 0.4982 0.0
C1121 C 0.22935 0.14637 0.48348 0.0
C1122 C 0.19123 0.20572 0.53495 0.0
C1123 C 0.27128 0.16759 0.49333 0.0
H1124 H 0.25753 0.26191 0.46656 0.0
H1125 H 0.28895 0.24388 0.56542 0.0
H1126 H 0.23208 0.20417 0.44599 0.0
H1127 H 0.20624 0.21977 0.46358 0.0
H1128 H 0.22651 0.23756 0.43806 0.0
H1129 H 0.2701 0.21219 0.59842 0.0
H1130 H 0.24188 0.1959 0.58236 0.0
H1131 H 0.27195 0.18453 0.57195 0.0
H1132 H 0.17094 0.16437 0.50288 0.0
H1133 H 0.23872 0.13214 0.46914 0.0
H1134 H 0.18662 0.22143 0.51704 0.0
H1135 H 0.203 0.21381 0.55641 0.0
H1136 H 0.17338 0.19848 0.5441 0.0
H1137 H 0.27469 0.18152 0.47329 0.0
H1138 H 0.27869 0.14875 0.48593 0.0
H1139 H 0.282 0.1741 0.51654 0.0
C1140 C 0.24372 0.77473 0.94782 0.0
C1141 C 0.22044 0.77979 0.93084 0.0
C1142 C 0.26152 0.75935 0.93306 0.0
C1143 C 0.25602 0.74962 0.90024 0.0
C1144 C 0.23189 0.75344 0.88403 0.0
C1145 C 0.21443 0.76846 0.89956 0.0
C1146 C 0.28666 0.75514 0.9518 0.0
C1147 C 0.22507 0.74325 0.84918 0.0
C1148 C 0.30396 0.74485 0.83555 0.0
C1149 C 0.30549 0.71837 0.83096 0.0
C1150 C 0.28944 0.75524 0.86005 0.0
C1151 C 0.27606 0.73877 0.88047 0.0
C1152 C 0.27902 0.71203 0.87769 0.0
C1153 C 0.29363 0.70211 0.85282 0.0
C1154 C 0.28699 0.7839 0.86242 0.0
C1155 C 0.26584 0.69397 0.89996 0.0
H1156 H 0.24851 0.78377 0.97184 0.0
H1157 H 0.19634 0.7723 0.88652 0.0
H1158 H 0.29513 0.73671 0.94493 0.0
H1159 H 0.29965 0.7707 0.94554 0.0
H1160 H 0.28495 0.75555 0.97934 0.0
H1161 H 0.20487 0.74598 0.84138 0.0
H1162 H 0.23637 0.75322 0.83095 0.0
H1163 H 0.22944 0.7226 0.84779 0.0
H1164 H 0.31298 0.75754 0.81871 0.0
H1165 H 0.29524 0.68161 0.84989 0.0
H1166 H 0.29021 0.79027 0.88885 0.0
H1167 H 0.26765 0.78962 0.85356 0.0
H1168 H 0.30044 0.79403 0.84712 0.0
H1169 H 0.27002 0.69938 0.92661 0.0
H1170 H 0.27156 0.67382 0.89643 0.0
H1171 H 0.24522 0.6954 0.89458 0.0
loop_
_geom_bond_atom_site_label_1
_geom_bond_atom_site_label_2
_geom_bond_distance
_geom_bond_site_symmetry_2
_ccdc_geom_bond_type
Zn0 O6 1.920 . S
Zn0 O12 1.898 . S
Zn0 O15 1.905 . S
Zn1 O9 1.905 . S
Zn1 O10 1.898 . S
Zn1 O18 1.920 . S
Zn2 O5 2.089 . S
Zn2 O8 2.105 1_554 S
Zn2 O11 2.099 1_554 S
Zn2 O13 2.140 . S
Zn2 O14 2.129 . S
Zn2 O17 2.066 1_554 S
C3 O8 1.166 . S
C3 O9 1.182 . S
C4 O10 1.167 . S
C4 O11 1.299 . S
O5 Zn2 2.089 . S
O5 C19 1.305 . S
O6 Zn0 1.920 . S
O6 C19 1.234 . S
C7 O12 1.167 . S
C7 O13 1.299 . S
O8 Zn2 2.105 1_556 S
O8 C3 1.166 . S
O9 Zn1 1.905 . S
O9 C3 1.182 . S
O10 Zn1 1.898 . S
O10 C4 1.167 . S
O11 Zn2 2.099 1_556 S
O11 C4 1.299 . S
O12 Zn0 1.898 . S
O12 C7 1.167 . S
O13 Zn2 2.140 . S
O13 C7 1.299 . S
O14 Zn2 2.129 . S
O14 C16 1.166 . S
O15 Zn0 1.905 . S
O15 C16 1.182 . S
C16 O14 1.166 . S
C16 O15 1.182 . S
O17 Zn2 2.066 1_556 S
O17 C20 1.305 . S
O18 Zn1 1.920 . S
O18 C20 1.234 . S
C19 O5 1.305 . S
C19 O6 1.234 . S
C20 O17 1.305 . S
C20 O18 1.234 . S
Zn21 O27 1.920 . S
Zn21 O33 1.898 . S
Zn21 O36 1.905 . S
Zn22 O30 1.905 . S
Zn22 O31 1.898 . S
Zn22 O39 1.920 . S
Zn23 O26 2.080 . S
Zn23 O29 2.114 . S
Zn23 O32 2.120 . S
Zn23 O34 2.120 . S
Zn23 O35 2.114 . S
Zn23 O38 2.080 . S
C24 O29 1.166 . S
C24 O30 1.182 . S
C25 O31 1.167 . S
C25 O32 1.299 . S
O26 Zn23 2.080 . S
O26 C40 1.305 . S
O27 Zn21 1.920 . S
O27 C40 1.234 . S
C28 O33 1.167 . S
C28 O34 1.299 . S
O29 Zn23 2.114 . S
O29 C24 1.166 . S
O30 Zn22 1.905 . S
O30 C24 1.182 . S
O31 Zn22 1.898 . S
O31 C25 1.167 . S
O32 Zn23 2.120 . S
O32 C25 1.299 . S
O33 Zn21 1.898 . S
O33 C28 1.167 . S
O34 Zn23 2.120 . S
O34 C28 1.299 . S
O35 Zn23 2.114 . S
O35 C37 1.166 . S
O36 Zn21 1.905 . S
O36 C37 1.182 . S
C37 O35 1.166 . S
C37 O36 1.182 . S
O38 Zn23 2.080 . S
O38 C41 1.305 . S
O39 Zn22 1.920 . S
O39 C41 1.234 . S
C40 O26 1.305 . S
C40 O27 1.234 . S
C41 O38 1.305 . S
C41 O39 1.234 . S
Zn42 O48 1.920 . S
Zn42 O54 1.898 . S
Zn42 O57 1.905 . S
Zn43 O51 1.905 . S
Zn43 O52 1.898 . S
Zn43 O60 1.920 . S
Zn44 O47 2.080 . S
Zn44 O50 2.114 . S
Zn44 O53 2.120 . S
Zn44 O55 2.120 . S
Zn44 O56 2.114 . S
Zn44 O59 2.080 . S
C45 O50 1.166 . S
C45 O51 1.182 . S
C46 O52 1.167 . S
C46 O53 1.299 . S
O47 Zn44 2.080 . S
O47 C61 1.305 . S
O48 Zn42 1.920 . S
O48 C61 1.234 1_556 S
C49 O54 1.167 1_554 S
C49 O55 1.299 . S
O50 Zn44 2.114 . S
O50 C45 1.166 . S
O51 Zn43 1.905 . S
O51 C45 1.182 . S
O52 Zn43 1.898 . S
O52 C46 1.167 . S
O53 Zn44 2.120 . S
O53 C46 1.299 . S
O54 Zn42 1.898 . S
O54 C49 1.167 1_556 S
O55 Zn44 2.120 . S
O55 C49 1.299 . S
O56 Zn44 2.114 . S
O56 C58 1.166 1_554 S
O57 Zn42 1.905 . S
O57 C58 1.182 . S
C58 O56 1.166 1_556 S
C58 O57 1.182 . S
O59 Zn44 2.080 . S
O59 C62 1.305 . S
O60 Zn43 1.920 . S
O60 C62 1.234 . S
C61 O47 1.305 . S
C61 O48 1.234 1_554 S
C62 O59 1.305 . S
C62 O60 1.234 . S
Zn63 O69 1.920 . S
Zn63 O75 1.898 . S
Zn63 O78 1.905 . S
Zn64 O72 1.905 . S
Zn64 O73 1.898 . S
Zn64 O81 1.920 . S
Zn65 O68 2.080 . S
Zn65 O71 2.114 . S
Zn65 O74 2.120 . S
Zn65 O76 2.120 . S
Zn65 O77 2.114 . S
Zn65 O80 2.080 . S
C66 O71 1.166 . S
C66 O72 1.182 . S
C67 O73 1.167 . S
C67 O74 1.299 . S
O68 Zn65 2.080 . S
O68 C82 1.305 . S
O69 Zn63 1.920 . S
O69 C82 1.234 . S
C70 O75 1.167 . S
C70 O76 1.299 . S
O71 Zn65 2.114 . S
O71 C66 1.166 . S
O72 Zn64 1.905 . S
O72 C66 1.182 . S
O73 Zn64 1.898 . S
O73 C67 1.167 . S
O74 Zn65 2.120 . S
O74 C67 1.299 . S
O75 Zn63 1.898 . S
O75 C70 1.167 . S
O76 Zn65 2.120 . S
O76 C70 1.299 . S
O77 Zn65 2.114 . S
O77 C79 1.166 . S
O78 Zn63 1.905 . S
O78 C79 1.182 . S
C79 O77 1.166 . S
C79 O78 1.182 . S
O80 Zn65 2.080 . S
O80 C83 1.305 . S
O81 Zn64 1.920 . S
O81 C83 1.234 . S
C82 O68 1.305 . S
C82 O69 1.234 . S
C83 O80 1.305 . S
C83 O81 1.234 . S
C84 C85 1.264 . S
C84 C89 1.479 . S
C84 C94 1.465 . S
C85 C84 1.264 . S
C85 C87 1.339 . S
C85 H112 0.931 . S
C86 C87 1.395 . S
C86 C88 1.320 . S
C87 C85 1.339 . S
C87 C86 1.395 . S
C87 H113 0.929 . S
C88 C86 1.320 . S
C88 C89 1.405 . S
C88 H114 0.930 . S
C89 C84 1.479 . S
C89 C88 1.405 . S
C89 H115 0.931 . S
U90 O91 2.454 . S
U90 O92 2.458 . S
U90 C93 2.984 . S
U90 C94 2.847 . S
U90 C107 2.882 . S
U90 O108 2.441 . S
U90 O109 2.420 . S
U90 O110 2.455 . S
U90 O111 2.449 . S
O91 U90 2.454 . S
O91 C93 1.353 . S
O92 U90 2.458 . S
O92 C93 1.286 . S
C93 U90 2.984 . S
C93 O91 1.353 . S
C93 O92 1.286 . S
C93 C95 1.363 . S
C94 C84 1.465 . S
C94 U90 2.847 . S
C94 O108 1.249 . S
C94 O109 1.202 . S
C95 C93 1.363 . S
C95 C97 1.408 . S
C95 C100 1.342 . S
C96 C97 1.310 . S
C96 C99 1.461 . S
C96 H116 0.932 . S
C97 C95 1.408 . S
C97 C96 1.310 . S
C97 H117 0.930 . S
C98 C99 1.474 . S
C98 C100 1.285 . S
C98 H118 0.929 . S
C99 C96 1.461 . S
C99 C98 1.474 . S
C100 C95 1.342 . S
C100 C98 1.285 . S
C100 H119 0.930 . S
C101 C104 1.424 1_545 S
C101 C106 1.245 1_545 S
C101 C107 1.428 . S
C102 C105 1.260 . S
C102 C106 1.477 . S
C102 H120 0.932 . S
C103 C104 1.384 . S
C103 C105 1.479 . S
C103 H121 0.929 . S
C104 C101 1.424 1_565 S
C104 C103 1.384 . S
C104 H122 0.928 . S
C105 C102 1.260 . S
C105 C103 1.479 . S
C106 C101 1.245 1_565 S
C106 C102 1.477 . S
C106 H123 0.932 1_565 S
C107 U90 2.882 . S
C107 C101 1.428 . S
C107 O110 1.301 . S
C107 O111 1.282 . S
O108 U90 2.441 . S
O108 C94 1.249 . S
O109 U90 2.420 . S
O109 C94 1.202 . S
O110 U90 2.455 . S
O110 C107 1.301 . S
O111 U90 2.449 . S
O111 C107 1.282 . S
H112 C85 0.931 . S
H113 C87 0.929 . S
H114 C88 0.930 . S
H115 C89 0.931 . S
H116 C96 0.932 . S
H117 C97 0.930 . S
H118 C98 0.929 . S
H119 C100 0.930 . S
H120 C102 0.932 . S
H121 C103 0.929 . S
H122 C104 0.928 . S
H123 C106 0.932 1_545 S
C124 C125 1.264 . S
C124 C129 1.479 . S
C124 C134 1.465 . S
C125 C124 1.264 . S
C125 C127 1.339 . S
C125 H152 0.931 . S
C126 C127 1.395 . S
C126 C128 1.320 . S
C127 C125 1.339 . S
C127 C126 1.395 . S
C127 H153 0.929 . S
C128 C126 1.320 . S
C128 C129 1.405 . S
C128 H154 0.930 . S
C129 C124 1.479 . S
C129 C128 1.405 . S
C129 H155 0.931 . S
U130 O131 2.454 . S
U130 O132 2.458 . S
U130 C133 2.984 . S
U130 C134 2.847 . S
U130 C147 2.882 . S
U130 O148 2.441 . S
U130 O149 2.420 . S
U130 O150 2.455 . S
U130 O151 2.449 . S
O131 U130 2.454 . S
O131 C133 1.353 . S
O132 U130 2.458 . S
O132 C133 1.286 . S
C133 U130 2.984 . S
C133 O131 1.353 . S
C133 O132 1.286 . S
C133 C135 1.363 . S
C134 C124 1.465 . S
C134 U130 2.847 . S
C134 O148 1.249 . S
C134 O149 1.202 . S
C135 C133 1.363 . S
C135 C137 1.408 . S
C135 C140 1.342 . S
C136 C137 1.310 . S
C136 C139 1.461 . S
C136 H156 0.932 . S
C137 C135 1.408 . S
C137 C136 1.310 . S
C137 H157 0.930 . S
C138 C139 1.474 . S
C138 C140 1.285 . S
C138 H158 0.929 . S
C139 C136 1.461 . S
C139 C138 1.474 . S
C140 C135 1.342 . S
C140 C138 1.285 . S
C140 H159 0.930 . S
C141 C144 1.424 . S
C141 C146 1.245 . S
C141 C147 1.428 . S
C142 C145 1.260 . S
C142 C146 1.477 . S
C142 H160 0.932 . S
C143 C144 1.384 . S
C143 C145 1.479 . S
C143 H161 0.929 . S
C144 C141 1.424 . S
C144 C143 1.384 . S
C144 H162 0.928 . S
C145 C142 1.260 . S
C145 C143 1.479 . S
C146 C141 1.245 . S
C146 C142 1.477 . S
C146 H163 0.932 . S
C147 U130 2.882 . S
C147 C141 1.428 . S
C147 O150 1.301 . S
C147 O151 1.282 . S
O148 U130 2.441 . S
O148 C134 1.249 . S
O149 U130 2.420 . S
O149 C134 1.202 . S
O150 U130 2.455 . S
O150 C147 1.301 . S
O151 U130 2.449 . S
O151 C147 1.282 . S
H152 C125 0.931 . S
H153 C127 0.929 . S
H154 C128 0.930 . S
H155 C129 0.931 . S
H156 C136 0.932 . S
H157 C137 0.930 . S
H158 C138 0.929 . S
H159 C140 0.930 . S
H160 C142 0.932 . S
H161 C143 0.929 . S
H162 C144 0.928 . S
H163 C146 0.932 . S
C164 C165 1.264 . S
C164 C169 1.479 . S
C164 C174 1.465 . S
C165 C164 1.264 . S
C165 C167 1.339 . S
C165 H192 0.931 . S
C166 C167 1.395 . S
C166 C168 1.320 . S
C167 C165 1.339 . S
C167 C166 1.395 . S
C167 H193 0.929 . S
C168 C166 1.320 . S
C168 C169 1.405 . S
C168 H194 0.930 . S
C169 C164 1.479 . S
C169 C168 1.405 . S
C169 H195 0.931 . S
U170 O171 2.454 . S
U170 O172 2.458 . S
U170 C173 2.984 . S
U170 C174 2.847 . S
U170 C187 2.882 . S
U170 O188 2.441 . S
U170 O189 2.420 . S
U170 O190 2.455 . S
U170 O191 2.449 . S
O171 U170 2.454 . S
O171 C173 1.353 . S
O172 U170 2.458 . S
O172 C173 1.286 . S
C173 U170 2.984 . S
C173 O171 1.353 . S
C173 O172 1.286 . S
C173 C175 1.363 . S
C174 C164 1.465 . S
C174 U170 2.847 . S
C174 O188 1.249 . S
C174 O189 1.202 . S
C175 C173 1.363 . S
C175 C177 1.408 . S
C175 C180 1.342 . S
C176 C177 1.310 . S
C176 C179 1.461 . S
C176 H196 0.932 . S
C177 C175 1.408 . S
C177 C176 1.310 . S
C177 H197 0.930 . S
C178 C179 1.474 . S
C178 C180 1.285 . S
C178 H198 0.929 . S
C179 C176 1.461 . S
C179 C178 1.474 . S
C180 C175 1.342 . S
C180 C178 1.285 . S
C180 H199 0.930 . S
C181 C184 1.424 . S
C181 C186 1.245 . S
C181 C187 1.428 . S
C182 C185 1.260 . S
C182 C186 1.477 . S
C182 H200 0.932 . S
C183 C184 1.384 . S
C183 C185 1.479 . S
C183 H201 0.929 . S
C184 C181 1.424 . S
C184 C183 1.384 . S
C184 H202 0.928 . S
C185 C182 1.260 . S
C185 C183 1.479 . S
C186 C181 1.245 . S
C186 C182 1.477 . S
C186 H203 0.932 . S
C187 U170 2.882 . S
C187 C181 1.428 . S
C187 O190 1.301 . S
C187 O191 1.282 . S
O188 U170 2.441 . S
O188 C174 1.249 . S
O189 U170 2.420 . S
O189 C174 1.202 . S
O190 U170 2.455 . S
O190 C187 1.301 . S
O191 U170 2.449 . S
O191 C187 1.282 . S
H192 C165 0.931 . S
H193 C167 0.929 . S
H194 C168 0.930 . S
H195 C169 0.931 . S
H196 C176 0.932 . S
H197 C177 0.930 . S
H198 C178 0.929 . S
H199 C180 0.930 . S
H200 C182 0.932 . S
H201 C183 0.929 . S
H202 C184 0.928 . S
H203 C186 0.932 . S
C204 C205 1.264 . S
C204 C209 1.479 . S
C204 C214 1.465 . S
C205 C204 1.264 . S
C205 C207 1.339 . S
C205 H232 0.931 . S
C206 C207 1.395 . S
C206 C208 1.320 . S
C207 C205 1.339 . S
C207 C206 1.395 . S
C207 H233 0.929 . S
C208 C206 1.320 . S
C208 C209 1.405 . S
C208 H234 0.930 . S
C209 C204 1.479 . S
C209 C208 1.405 . S
C209 H235 0.931 . S
U210 O211 2.454 . S
U210 O212 2.458 . S
U210 C213 2.984 . S
U210 C214 2.847 . S
U210 C227 2.882 . S
U210 O228 2.441 . S
U210 O229 2.420 . S
U210 O230 2.455 . S
U210 O231 2.449 . S
O211 U210 2.454 . S
O211 C213 1.353 . S
O212 U210 2.458 . S
O212 C213 1.286 . S
C213 U210 2.984 . S
C213 O211 1.353 . S
C213 O212 1.286 . S
C213 C215 1.363 . S
C214 C204 1.465 . S
C214 U210 2.847 . S
C214 O228 1.249 . S
C214 O229 1.202 . S
C215 C213 1.363 . S
C215 C217 1.408 . S
C215 C220 1.342 . S
C216 C217 1.310 . S
C216 C219 1.461 . S
C216 H236 0.932 . S
C217 C215 1.408 . S
C217 C216 1.310 . S
C217 H237 0.930 . S
C218 C219 1.474 . S
C218 C220 1.285 . S
C218 H238 0.929 . S
C219 C216 1.461 . S
C219 C218 1.474 . S
C220 C215 1.342 . S
C220 C218 1.285 . S
C220 H239 0.930 . S
C221 C224 1.424 . S
C221 C226 1.245 . S
C221 C227 1.428 . S
C222 C225 1.260 . S
C222 C226 1.477 . S
C222 H240 0.932 . S
C223 C224 1.384 . S
C223 C225 1.479 . S
C223 H241 0.929 . S
C224 C221 1.424 . S
C224 C223 1.384 . S
C224 H242 0.928 . S
C225 C222 1.260 . S
C225 C223 1.479 . S
C226 C221 1.245 . S
C226 C222 1.477 . S
C226 H243 0.932 . S
C227 U210 2.882 . S
C227 C221 1.428 . S
C227 O230 1.301 . S
C227 O231 1.282 . S
O228 U210 2.441 . S
O228 C214 1.249 . S
O229 U210 2.420 . S
O229 C214 1.202 . S
O230 U210 2.455 . S
O230 C227 1.301 . S
O231 U210 2.449 . S
O231 C227 1.282 . S
H232 C205 0.931 . S
H233 C207 0.929 . S
H234 C208 0.930 . S
H235 C209 0.931 . S
H236 C216 0.932 . S
H237 C217 0.930 . S
H238 C218 0.929 . S
H239 C220 0.930 . S
H240 C222 0.932 . S
H241 C223 0.929 . S
H242 C224 0.928 . S
H243 C226 0.932 . S
C244 C245 1.264 . S
C244 C249 1.479 . S
C244 C254 1.465 . S
C245 C244 1.264 . S
C245 C247 1.339 . S
C245 H272 0.931 . S
C246 C247 1.395 . S
C246 C248 1.320 . S
C247 C245 1.339 . S
C247 C246 1.395 . S
C247 H273 0.929 . S
C248 C246 1.320 . S
C248 C249 1.405 . S
C248 H274 0.930 . S
C249 C244 1.479 . S
C249 C248 1.405 . S
C249 H275 0.931 . S
U250 O251 2.454 . S
U250 O252 2.458 . S
U250 C253 2.984 . S
U250 C254 2.847 . S
U250 C267 2.882 . S
U250 O268 2.441 . S
U250 O269 2.420 . S
U250 O270 2.455 . S
U250 O271 2.449 . S
O251 U250 2.454 . S
O251 C253 1.353 . S
O252 U250 2.458 . S
O252 C253 1.286 . S
C253 U250 2.984 . S
C253 O251 1.353 . S
C253 O252 1.286 . S
C253 C255 1.363 . S
C254 C244 1.465 . S
C254 U250 2.847 . S
C254 O268 1.249 . S
C254 O269 1.202 . S
C255 C253 1.363 . S
C255 C257 1.408 . S
C255 C260 1.342 . S
C256 C257 1.310 . S
C256 C259 1.461 . S
C256 H276 0.932 . S
C257 C255 1.408 . S
C257 C256 1.310 . S
C257 H277 0.930 . S
C258 C259 1.474 . S
C258 C260 1.285 . S
C258 H278 0.929 . S
C259 C256 1.461 . S
C259 C258 1.474 . S
C260 C255 1.342 . S
C260 C258 1.285 . S
C260 H279 0.930 . S
C261 C264 1.424 . S
C261 C266 1.245 . S
C261 C267 1.428 . S
C262 C265 1.260 . S
C262 C266 1.477 . S
C262 H280 0.932 . S
C263 C264 1.384 . S
C263 C265 1.479 . S
C263 H281 0.929 . S
C264 C261 1.424 . S
C264 C263 1.384 . S
C264 H282 0.928 . S
C265 C262 1.260 . S
C265 C263 1.479 . S
C266 C261 1.245 . S
C266 C262 1.477 . S
C266 H283 0.932 . S
C267 U250 2.882 . S
C267 C261 1.428 . S
C267 O270 1.301 . S
C267 O271 1.282 . S
O268 U250 2.441 . S
O268 C254 1.249 . S
O269 U250 2.420 . S
O269 C254 1.202 . S
O270 U250 2.455 . S
O270 C267 1.301 . S
O271 U250 2.449 . S
O271 C267 1.282 . S
H272 C245 0.931 . S
H273 C247 0.929 . S
H274 C248 0.930 . S
H275 C249 0.931 . S
H276 C256 0.932 . S
H277 C257 0.930 . S
H278 C258 0.929 . S
H279 C260 0.930 . S
H280 C262 0.932 . S
H281 C263 0.929 . S
H282 C264 0.928 . S
H283 C266 0.932 . S
C284 C285 1.264 . S
C284 C289 1.479 . S
C284 C294 1.465 . S
C285 C284 1.264 . S
C285 C287 1.339 . S
C285 H312 0.931 . S
C286 C287 1.395 . S
C286 C288 1.320 . S
C287 C285 1.339 . S
C287 C286 1.395 . S
C287 H313 0.929 . S
C288 C286 1.320 . S
C288 C289 1.405 . S
C288 H314 0.930 . S
C289 C284 1.479 . S
C289 C288 1.405 . S
C289 H315 0.931 . S
U290 O291 2.454 . S
U290 O292 2.458 . S
U290 C293 2.984 . S
U290 C294 2.847 . S
U290 C307 2.882 . S
U290 O308 2.441 . S
U290 O309 2.420 . S
U290 O310 2.455 . S
U290 O311 2.449 . S
O291 U290 2.454 . S
O291 C293 1.353 . S
O292 U290 2.458 . S
O292 C293 1.286 . S
C293 U290 2.984 . S
C293 O291 1.353 . S
C293 O292 1.286 . S
C293 C295 1.363 . S
C294 C284 1.465 . S
C294 U290 2.847 . S
C294 O308 1.249 . S
C294 O309 1.202 . S
C295 C293 1.363 . S
C295 C297 1.408 . S
C295 C300 1.342 . S
C296 C297 1.310 . S
C296 C299 1.461 . S
C296 H316 0.932 . S
C297 C295 1.408 . S
C297 C296 1.310 . S
C297 H317 0.930 . S
C298 C299 1.474 . S
C298 C300 1.285 . S
C298 H318 0.929 . S
C299 C296 1.461 . S
C299 C298 1.474 . S
C300 C295 1.342 . S
C300 C298 1.285 . S
C300 H319 0.930 . S
C301 C304 1.424 . S
C301 C306 1.245 . S
C301 C307 1.428 . S
C302 C305 1.260 . S
C302 C306 1.477 . S
C302 H320 0.932 . S
C303 C304 1.384 . S
C303 C305 1.479 . S
C303 H321 0.929 . S
C304 C301 1.424 . S
C304 C303 1.384 . S
C304 H322 0.928 . S
C305 C302 1.260 . S
C305 C303 1.479 . S
C306 C301 1.245 . S
C306 C302 1.477 . S
C306 H323 0.932 . S
C307 U290 2.882 . S
C307 C301 1.428 . S
C307 O310 1.301 . S
C307 O311 1.282 . S
O308 U290 2.441 . S
O308 C294 1.249 . S
O309 U290 2.420 . S
O309 C294 1.202 . S
O310 U290 2.455 . S
O310 C307 1.301 . S
O311 U290 2.449 . S
O311 C307 1.282 . S
H312 C285 0.931 . S
H313 C287 0.929 . S
H314 C288 0.930 . S
H315 C289 0.931 . S
H316 C296 0.932 . S
H317 C297 0.930 . S
H318 C298 0.929 . S
H319 C300 0.930 . S
H320 C302 0.932 . S
H321 C303 0.929 . S
H322 C304 0.928 . S
H323 C306 0.932 . S
C324 C325 1.264 . S
C324 C329 1.479 . S
C324 C334 1.465 . S
C325 C324 1.264 . S
C325 C327 1.339 . S
C325 H352 0.931 . S
C326 C327 1.395 . S
C326 C328 1.320 . S
C327 C325 1.339 . S
C327 C326 1.395 . S
C327 H353 0.929 . S
C328 C326 1.320 . S
C328 C329 1.405 . S
C328 H354 0.930 . S
C329 C324 1.479 . S
C329 C328 1.405 . S
C329 H355 0.931 . S
U330 O331 2.454 . S
U330 O332 2.458 . S
U330 C333 2.984 . S
U330 C334 2.847 . S
U330 C347 2.882 . S
U330 O348 2.441 . S
U330 O349 2.420 . S
U330 O350 2.455 . S
U330 O351 2.449 . S
O331 U330 2.454 . S
O331 C333 1.353 . S
O332 U330 2.458 . S
O332 C333 1.286 . S
C333 U330 2.984 . S
C333 O331 1.353 . S
C333 O332 1.286 . S
C333 C335 1.363 . S
C334 C324 1.465 . S
C334 U330 2.847 . S
C334 O348 1.249 . S
C334 O349 1.202 . S
C335 C333 1.363 . S
C335 C337 1.408 . S
C335 C340 1.342 . S
C336 C337 1.310 . S
C336 C339 1.461 . S
C336 H356 0.932 . S
C337 C335 1.408 . S
C337 C336 1.310 . S
C337 H357 0.930 . S
C338 C339 1.474 . S
C338 C340 1.285 . S
C338 H358 0.929 . S
C339 C336 1.461 . S
C339 C338 1.474 . S
C340 C335 1.342 . S
C340 C338 1.285 . S
C340 H359 0.930 . S
C341 C344 1.424 . S
C341 C346 1.245 . S
C341 C347 1.428 . S
C342 C345 1.260 . S
C342 C346 1.477 . S
C342 H360 0.932 . S
C343 C344 1.384 . S
C343 C345 1.479 . S
C343 H361 0.929 . S
C344 C341 1.424 . S
C344 C343 1.384 . S
C344 H362 0.928 . S
C345 C342 1.260 . S
C345 C343 1.479 . S
C346 C341 1.245 . S
C346 C342 1.477 . S
C346 H363 0.932 . S
C347 U330 2.882 . S
C347 C341 1.428 . S
C347 O350 1.301 . S
C347 O351 1.282 . S
O348 U330 2.441 . S
O348 C334 1.249 . S
O349 U330 2.420 . S
O349 C334 1.202 . S
O350 U330 2.455 . S
O350 C347 1.301 . S
O351 U330 2.449 . S
O351 C347 1.282 . S
H352 C325 0.931 . S
H353 C327 0.929 . S
H354 C328 0.930 . S
H355 C329 0.931 . S
H356 C336 0.932 . S
H357 C337 0.930 . S
H358 C338 0.929 . S
H359 C340 0.930 . S
H360 C342 0.932 . S
H361 C343 0.929 . S
H362 C344 0.928 . S
H363 C346 0.932 . S
C364 C365 1.264 . S
C364 C369 1.479 . S
C364 C374 1.465 . S
C365 C364 1.264 . S
C365 C367 1.339 . S
C365 H392 0.931 . S
C366 C367 1.395 . S
C366 C368 1.320 . S
C367 C365 1.339 . S
C367 C366 1.395 . S
C367 H393 0.929 . S
C368 C366 1.320 . S
C368 C369 1.405 . S
C368 H394 0.930 . S
C369 C364 1.479 . S
C369 C368 1.405 . S
C369 H395 0.931 . S
U370 O371 2.454 . S
U370 O372 2.458 . S
U370 C373 2.984 . S
U370 C374 2.847 . S
U370 C387 2.882 . S
U370 O388 2.441 . S
U370 O389 2.420 . S
U370 O390 2.455 . S
U370 O391 2.449 . S
O371 U370 2.454 . S
O371 C373 1.353 . S
O372 U370 2.458 . S
O372 C373 1.286 . S
C373 U370 2.984 . S
C373 O371 1.353 . S
C373 O372 1.286 . S
C373 C375 1.363 . S
C374 C364 1.465 . S
C374 U370 2.847 . S
C374 O388 1.249 . S
C374 O389 1.202 . S
C375 C373 1.363 . S
C375 C377 1.408 . S
C375 C380 1.342 . S
C376 C377 1.310 . S
C376 C379 1.461 . S
C376 H396 0.932 . S
C377 C375 1.408 . S
C377 C376 1.310 . S
C377 H397 0.930 . S
C378 C379 1.474 . S
C378 C380 1.285 . S
C378 H398 0.929 . S
C379 C376 1.461 . S
C379 C378 1.474 . S
C380 C375 1.342 . S
C380 C378 1.285 . S
C380 H399 0.930 . S
C381 C384 1.424 . S
C381 C386 1.245 . S
C381 C387 1.428 . S
C382 C385 1.260 1_655 S
C382 C386 1.477 . S
C382 H400 0.932 . S
C383 C384 1.384 . S
C383 C385 1.479 1_655 S
C383 H401 0.929 1_655 S
C384 C381 1.424 . S
C384 C383 1.384 . S
C384 H402 0.928 . S
C385 C382 1.260 1_455 S
C385 C383 1.479 1_455 S
C386 C381 1.245 . S
C386 C382 1.477 . S
C386 H403 0.932 . S
C387 U370 2.882 . S
C387 C381 1.428 . S
C387 O390 1.301 . S
C387 O391 1.282 . S
O388 U370 2.441 . S
O388 C374 1.249 . S
O389 U370 2.420 . S
O389 C374 1.202 . S
O390 U370 2.455 . S
O390 C387 1.301 . S
O391 U370 2.449 . S
O391 C387 1.282 . S
H392 C365 0.931 . S
H393 C367 0.929 . S
H394 C368 0.930 . S
H395 C369 0.931 . S
H396 C376 0.932 . S
H397 C377 0.930 . S
H398 C378 0.929 . S
H399 C380 0.930 . S
H400 C382 0.932 . S
H401 C383 0.929 1_455 S
H402 C384 0.928 . S
H403 C386 0.932 . S
C404 C405 1.391 . S
C404 C406 1.394 . S
C404 H420 0.931 . S
C405 C404 1.391 . S
C405 C409 1.376 . S
C406 C404 1.394 . S
C406 C407 1.369 . S
C406 C410 1.531 . S
C407 C406 1.369 . S
C407 C408 1.410 . S
C407 C415 1.503 . S
C408 C407 1.410 . S
C408 C409 1.392 . S
C408 C411 1.511 . S
C409 C405 1.376 . S
C409 C408 1.392 . S
C409 H421 0.929 . S
C410 C406 1.531 . S
C410 H422 0.960 . S
C410 H423 0.962 . S
C410 H424 0.960 . S
C411 C408 1.511 . S
C411 H425 0.961 . S
C411 H426 0.961 . S
C411 H427 0.961 . S
C412 C413 1.370 . S
C412 C414 1.363 . S
C412 H428 0.931 . S
C413 C412 1.370 . S
C413 C417 1.408 . S
C414 C412 1.363 . S
C414 C415 1.370 . S
C414 C418 1.524 . S
C415 C407 1.503 . S
C415 C414 1.370 . S
C415 C416 1.403 . S
C416 C415 1.403 . S
C416 C417 1.404 . S
C416 C419 1.539 . S
C417 C413 1.408 . S
C417 C416 1.404 . S
C417 H429 0.930 . S
C418 C414 1.524 . S
C418 H430 0.956 . S
C418 H431 0.961 . S
C418 H432 0.961 . S
C419 C416 1.539 . S
C419 H433 0.958 . S
C419 H434 0.961 . S
C419 H435 0.960 . S
H420 C404 0.931 . S
H421 C409 0.929 . S
H422 C410 0.960 . S
H423 C410 0.962 . S
H424 C410 0.960 . S
H425 C411 0.961 . S
H426 C411 0.961 . S
H427 C411 0.961 . S
H428 C412 0.931 . S
H429 C417 0.930 . S
H430 C418 0.956 . S
H431 C418 0.961 . S
H432 C418 0.961 . S
H433 C419 0.958 . S
H434 C419 0.961 . S
H435 C419 0.960 . S
C436 C437 1.391 . S
C436 C438 1.394 . S
C436 H452 0.931 . S
C437 C436 1.391 . S
C437 C441 1.376 . S
C438 C436 1.394 . S
C438 C439 1.369 . S
C438 C442 1.531 . S
C439 C438 1.369 . S
C439 C440 1.410 . S
C439 C447 1.503 . S
C440 C439 1.410 . S
C440 C441 1.392 . S
C440 C443 1.511 . S
C441 C437 1.376 . S
C441 C440 1.392 . S
C441 H453 0.929 . S
C442 C438 1.531 . S
C442 H454 0.960 . S
C442 H455 0.962 . S
C442 H456 0.960 . S
C443 C440 1.511 . S
C443 H457 0.961 . S
C443 H458 0.961 . S
C443 H459 0.961 . S
C444 C445 1.370 . S
C444 C446 1.363 . S
C444 H460 0.931 . S
C445 C444 1.370 . S
C445 C449 1.408 . S
C446 C444 1.363 . S
C446 C447 1.370 . S
C446 C450 1.524 . S
C447 C439 1.503 . S
C447 C446 1.370 . S
C447 C448 1.403 . S
C448 C447 1.403 . S
C448 C449 1.404 . S
C448 C451 1.539 . S
C449 C445 1.408 . S
C449 C448 1.404 . S
C449 H461 0.930 . S
C450 C446 1.524 . S
C450 H462 0.956 . S
C450 H463 0.961 . S
C450 H464 0.961 . S
C451 C448 1.539 . S
C451 H465 0.958 . S
C451 H466 0.961 . S
C451 H467 0.960 . S
H452 C436 0.931 . S
H453 C441 0.929 . S
H454 C442 0.960 . S
H455 C442 0.962 . S
H456 C442 0.960 . S
H457 C443 0.961 . S
H458 C443 0.961 . S
H459 C443 0.961 . S
H460 C444 0.931 . S
H461 C449 0.930 . S
H462 C450 0.956 . S
H463 C450 0.961 . S
H464 C450 0.961 . S
H465 C451 0.958 . S
H466 C451 0.961 . S
H467 C451 0.960 . S
C468 C469 1.391 . S
C468 C470 1.394 . S
C468 H484 0.931 . S
C469 C468 1.391 . S
C469 C473 1.376 . S
C470 C468 1.394 . S
C470 C471 1.369 . S
C470 C474 1.531 . S
C471 C470 1.369 . S
C471 C472 1.410 . S
C471 C479 1.503 . S
C472 C471 1.410 . S
C472 C473 1.392 . S
C472 C475 1.511 . S
C473 C469 1.376 . S
C473 C472 1.392 . S
C473 H485 0.929 . S
C474 C470 1.531 . S
C474 H486 0.960 . S
C474 H487 0.962 . S
C474 H488 0.960 . S
C475 C472 1.511 . S
C475 H489 0.961 . S
C475 H490 0.961 . S
C475 H491 0.961 . S
C476 C477 1.370 . S
C476 C478 1.363 1_565 S
C476 H492 0.931 . S
C477 C476 1.370 . S
C477 C481 1.408 . S
C478 C476 1.363 1_545 S
C478 C479 1.370 . S
C478 C482 1.524 . S
C479 C471 1.503 . S
C479 C478 1.370 . S
C479 C480 1.403 1_545 S
C480 C479 1.403 1_565 S
C480 C481 1.404 . S
C480 C483 1.539 1_565 S
C481 C477 1.408 . S
C481 C480 1.404 . S
C481 H493 0.930 . S
C482 C478 1.524 . S
C482 H494 0.956 . S
C482 H495 0.961 . S
C482 H496 0.961 . S
C483 C480 1.539 1_545 S
C483 H497 0.960 . S
C483 H498 0.961 1_545 S
C483 H499 0.960 . S
H484 C468 0.931 . S
H485 C473 0.929 . S
H486 C474 0.960 . S
H487 C474 0.962 . S
H488 C474 0.960 . S
H489 C475 0.961 . S
H490 C475 0.961 . S
H491 C475 0.961 . S
H492 C476 0.931 . S
H493 C481 0.930 . S
H494 C482 0.956 . S
H495 C482 0.961 . S
H496 C482 0.961 . S
H497 C483 0.960 . S
H498 C483 0.961 1_565 S
H499 C483 0.960 . S
C500 C501 1.391 . S
C500 C502 1.394 . S
C500 H516 0.931 . S
C501 C500 1.391 . S
C501 C505 1.376 . S
C502 C500 1.394 . S
C502 C503 1.369 . S
C502 C506 1.531 . S
C503 C502 1.369 . S
C503 C504 1.410 . S
C503 C511 1.503 . S
C504 C503 1.410 . S
C504 C505 1.392 . S
C504 C507 1.511 . S
C505 C501 1.376 . S
C505 C504 1.392 . S
C505 H517 0.929 . S
C506 C502 1.531 . S
C506 H518 0.960 . S
C506 H519 0.962 . S
C506 H520 0.960 . S
C507 C504 1.511 . S
C507 H521 0.961 . S
C507 H522 0.961 . S
C507 H523 0.961 . S
C508 C509 1.370 . S
C508 C510 1.363 . S
C508 H524 0.931 . S
C509 C508 1.370 . S
C509 C513 1.408 . S
C510 C508 1.363 . S
C510 C511 1.370 . S
C510 C514 1.524 . S
C511 C503 1.503 . S
C511 C510 1.370 . S
C511 C512 1.403 . S
C512 C511 1.403 . S
C512 C513 1.404 . S
C512 C515 1.539 . S
C513 C509 1.408 . S
C513 C512 1.404 . S
C513 H525 0.930 . S
C514 C510 1.524 . S
C514 H526 0.956 . S
C514 H527 0.961 . S
C514 H528 0.961 . S
C515 C512 1.539 . S
C515 H529 0.958 . S
C515 H530 0.961 . S
C515 H531 0.960 . S
H516 C500 0.931 . S
H517 C505 0.929 . S
H518 C506 0.960 . S
H519 C506 0.962 . S
H520 C506 0.960 . S
H521 C507 0.961 . S
H522 C507 0.961 . S
H523 C507 0.961 . S
H524 C508 0.931 . S
H525 C513 0.930 . S
H526 C514 0.956 . S
H527 C514 0.961 . S
H528 C514 0.961 . S
H529 C515 0.958 . S
H530 C515 0.961 . S
H531 C515 0.960 . S
C532 C533 1.391 . S
C532 C534 1.394 . S
C532 H548 0.931 . S
C533 C532 1.391 . S
C533 C537 1.376 . S
C534 C532 1.394 . S
C534 C535 1.369 . S
C534 C538 1.531 . S
C535 C534 1.369 . S
C535 C536 1.410 . S
C535 C543 1.503 . S
C536 C535 1.410 . S
C536 C537 1.392 . S
C536 C539 1.511 . S
C537 C533 1.376 . S
C537 C536 1.392 . S
C537 H549 0.929 . S
C538 C534 1.531 . S
C538 H550 0.960 . S
C538 H551 0.962 . S
C538 H552 0.960 . S
C539 C536 1.511 . S
C539 H553 0.961 . S
C539 H554 0.961 . S
C539 H555 0.961 . S
C540 C541 1.370 . S
C540 C542 1.363 . S
C540 H556 0.931 . S
C541 C540 1.370 . S
C541 C545 1.408 . S
C542 C540 1.363 . S
C542 C543 1.370 . S
C542 C546 1.524 . S
C543 C535 1.503 . S
C543 C542 1.370 . S
C543 C544 1.403 . S
C544 C543 1.403 . S
C544 C545 1.404 . S
C544 C547 1.539 . S
C545 C541 1.408 . S
C545 C544 1.404 . S
C545 H557 0.930 . S
C546 C542 1.524 . S
C546 H558 0.956 . S
C546 H559 0.961 . S
C546 H560 0.961 . S
C547 C544 1.539 . S
C547 H561 0.958 . S
C547 H562 0.961 . S
C547 H563 0.960 . S
H548 C532 0.931 . S
H549 C537 0.929 . S
H550 C538 0.960 . S
H551 C538 0.962 . S
H552 C538 0.960 . S
H553 C539 0.961 . S
H554 C539 0.961 . S
H555 C539 0.961 . S
H556 C540 0.931 . S
H557 C545 0.930 . S
H558 C546 0.956 . S
H559 C546 0.961 . S
H560 C546 0.961 . S
H561 C547 0.958 . S
H562 C547 0.961 . S
H563 C547 0.960 . S
C564 C565 1.391 . S
C564 C566 1.394 . S
C564 H580 0.931 . S
C565 C564 1.391 . S
C565 C569 1.376 . S
C566 C564 1.394 . S
C566 C567 1.369 . S
C566 C570 1.531 . S
C567 C566 1.369 . S
C567 C568 1.410 1_554 S
C567 C575 1.503 1_554 S
C568 C567 1.410 1_556 S
C568 C569 1.392 1_556 S
C568 C571 1.511 . S
C569 C565 1.376 . S
C569 C568 1.392 1_554 S
C569 H581 0.930 . S
C570 C566 1.531 . S
C570 H582 0.960 . S
C570 H583 0.962 . S
C570 H584 0.960 . S
C571 C568 1.511 . S
C571 H585 0.961 . S
C571 H586 0.961 . S
C571 H587 0.962 1_556 S
C572 C573 1.370 1_655 S
C572 C574 1.363 . S
C572 H588 0.931 . S
C573 C572 1.370 1_455 S
C573 C577 1.408 1_556 S
C574 C572 1.363 . S
C574 C575 1.370 . S
C574 C578 1.524 . S
C575 C567 1.503 1_556 S
C575 C574 1.370 . S
C575 C576 1.403 1_556 S
C576 C575 1.403 1_554 S
C576 C577 1.404 1_655 S
C576 C579 1.539 . S
C577 C573 1.408 1_554 S
C577 C576 1.404 1_455 S
C577 H589 0.930 . S
C578 C574 1.524 . S
C578 H590 0.956 . S
C578 H591 0.961 . S
C578 H592 0.961 . S
C579 C576 1.539 . S
C579 H593 0.958 . S
C579 H594 0.961 1_655 S
C579 H595 0.960 . S
H580 C564 0.931 . S
H581 C569 0.930 . S
H582 C570 0.960 . S
H583 C570 0.962 . S
H584 C570 0.960 . S
H585 C571 0.961 . S
H586 C571 0.961 . S
H587 C571 0.962 1_554 S
H588 C572 0.931 . S
H589 C577 0.930 . S
H590 C578 0.956 . S
H591 C578 0.961 . S
H592 C578 0.961 . S
H593 C579 0.958 . S
H594 C579 0.961 1_455 S
H595 C579 0.960 . S
C596 C597 1.391 . S
C596 C598 1.394 . S
C596 H612 0.931 . S
C597 C596 1.391 . S
C597 C601 1.376 . S
C598 C596 1.394 . S
C598 C599 1.369 . S
C598 C602 1.531 . S
C599 C598 1.369 . S
C599 C600 1.410 . S
C599 C607 1.503 . S
C600 C599 1.410 . S
C600 C601 1.392 . S
C600 C603 1.511 . S
C601 C597 1.376 . S
C601 C600 1.392 . S
C601 H613 0.929 . S
C602 C598 1.531 . S
C602 H614 0.960 . S
C602 H615 0.962 . S
C602 H616 0.960 . S
C603 C600 1.511 . S
C603 H617 0.961 . S
C603 H618 0.961 . S
C603 H619 0.961 . S
C604 C605 1.370 . S
C604 C606 1.363 . S
C604 H620 0.931 . S
C605 C604 1.370 . S
C605 C609 1.408 . S
C606 C604 1.363 . S
C606 C607 1.370 . S
C606 C610 1.524 . S
C607 C599 1.503 . S
C607 C606 1.370 . S
C607 C608 1.403 . S
C608 C607 1.403 . S
C608 C609 1.404 . S
C608 C611 1.539 . S
C609 C605 1.408 . S
C609 C608 1.404 . S
C609 H621 0.930 . S
C610 C606 1.524 . S
C610 H622 0.956 . S
C610 H623 0.961 . S
C610 H624 0.961 . S
C611 C608 1.539 . S
C611 H625 0.958 . S
C611 H626 0.961 . S
C611 H627 0.960 . S
H612 C596 0.931 . S
H613 C601 0.929 . S
H614 C602 0.960 . S
H615 C602 0.962 . S
H616 C602 0.960 . S
H617 C603 0.961 . S
H618 C603 0.961 . S
H619 C603 0.961 . S
H620 C604 0.931 . S
H621 C609 0.930 . S
H622 C610 0.956 . S
H623 C610 0.961 . S
H624 C610 0.961 . S
H625 C611 0.958 . S
H626 C611 0.961 . S
H627 C611 0.960 . S
C628 C629 1.391 . S
C628 C630 1.394 . S
C628 H644 0.931 . S
C629 C628 1.391 . S
C629 C633 1.376 . S
C630 C628 1.394 . S
C630 C631 1.369 . S
C630 C634 1.531 . S
C631 C630 1.369 . S
C631 C632 1.410 . S
C631 C639 1.503 . S
C632 C631 1.410 . S
C632 C633 1.392 . S
C632 C635 1.511 . S
C633 C629 1.376 . S
C633 C632 1.392 . S
C633 H645 0.929 . S
C634 C630 1.531 . S
C634 H646 0.960 . S
C634 H647 0.962 . S
C634 H648 0.960 . S
C635 C632 1.511 . S
C635 H649 0.961 . S
C635 H650 0.961 . S
C635 H651 0.961 . S
C636 C637 1.370 . S
C636 C638 1.363 . S
C636 H652 0.931 . S
C637 C636 1.370 . S
C637 C641 1.408 . S
C638 C636 1.363 . S
C638 C639 1.370 . S
C638 C642 1.524 . S
C639 C631 1.503 . S
C639 C638 1.370 . S
C639 C640 1.403 . S
C640 C639 1.403 . S
C640 C641 1.404 . S
C640 C643 1.539 . S
C641 C637 1.408 . S
C641 C640 1.404 . S
C641 H653 0.930 . S
C642 C638 1.524 . S
C642 H654 0.956 . S
C642 H655 0.961 . S
C642 H656 0.961 . S
C643 C640 1.539 . S
C643 H657 0.958 . S
C643 H658 0.961 . S
C643 H659 0.960 . S
H644 C628 0.931 . S
H645 C633 0.929 . S
H646 C634 0.960 . S
H647 C634 0.962 . S
H648 C634 0.960 . S
H649 C635 0.961 . S
H650 C635 0.961 . S
H651 C635 0.961 . S
H652 C636 0.931 . S
H653 C641 0.930 . S
H654 C642 0.956 . S
H655 C642 0.961 . S
H656 C642 0.961 . S
H657 C643 0.958 . S
H658 C643 0.961 . S
H659 C643 0.960 . S
C660 C661 1.391 . S
C660 C662 1.394 . S
C660 H676 0.931 . S
C661 C660 1.391 . S
C661 C665 1.376 . S
C662 C660 1.394 . S
C662 C663 1.369 . S
C662 C666 1.531 . S
C663 C662 1.369 . S
C663 C664 1.410 . S
C663 C671 1.503 . S
C664 C663 1.410 . S
C664 C665 1.392 . S
C664 C667 1.511 . S
C665 C661 1.376 . S
C665 C664 1.392 . S
C665 H677 0.929 . S
C666 C662 1.531 . S
C666 H678 0.960 . S
C666 H679 0.962 . S
C666 H680 0.960 . S
C667 C664 1.511 . S
C667 H681 0.961 . S
C667 H682 0.961 . S
C667 H683 0.961 . S
C668 C669 1.370 . S
C668 C670 1.363 . S
C668 H684 0.931 1_545 S
C669 C668 1.370 . S
C669 C673 1.408 . S
C670 C668 1.363 . S
C670 C671 1.370 . S
C670 C674 1.524 . S
C671 C663 1.503 . S
C671 C670 1.370 . S
C671 C672 1.403 . S
C672 C671 1.403 . S
C672 C673 1.404 . S
C672 C675 1.539 . S
C673 C669 1.408 . S
C673 C672 1.404 . S
C673 H685 0.930 . S
C674 C670 1.524 . S
C674 H686 0.956 . S
C674 H687 0.961 . S
C674 H688 0.961 . S
C675 C672 1.539 . S
C675 H689 0.958 . S
C675 H690 0.961 . S
C675 H691 0.960 . S
H676 C660 0.931 . S
H677 C665 0.929 . S
H678 C666 0.960 . S
H679 C666 0.962 . S
H680 C666 0.960 . S
H681 C667 0.961 . S
H682 C667 0.961 . S
H683 C667 0.961 . S
H684 C668 0.931 1_565 S
H685 C673 0.930 . S
H686 C674 0.956 . S
H687 C674 0.961 . S
H688 C674 0.961 . S
H689 C675 0.958 . S
H690 C675 0.961 . S
H691 C675 0.960 . S
C692 C693 1.391 . S
C692 C694 1.394 . S
C692 H708 0.931 . S
C693 C692 1.391 . S
C693 C697 1.376 . S
C694 C692 1.394 . S
C694 C695 1.369 . S
C694 C698 1.531 . S
C695 C694 1.369 . S
C695 C696 1.410 . S
C695 C703 1.503 . S
C696 C695 1.410 . S
C696 C697 1.392 . S
C696 C699 1.511 . S
C697 C693 1.376 . S
C697 C696 1.392 . S
C697 H709 0.929 . S
C698 C694 1.531 . S
C698 H710 0.960 . S
C698 H711 0.962 . S
C698 H712 0.960 . S
C699 C696 1.511 . S
C699 H713 0.961 . S
C699 H714 0.961 . S
C699 H715 0.961 . S
C700 C701 1.370 . S
C700 C702 1.363 . S
C700 H716 0.931 . S
C701 C700 1.370 . S
C701 C705 1.408 . S
C702 C700 1.363 . S
C702 C703 1.370 . S
C702 C706 1.524 . S
C703 C695 1.503 . S
C703 C702 1.370 . S
C703 C704 1.403 . S
C704 C703 1.403 . S
C704 C705 1.404 . S
C704 C707 1.539 . S
C705 C701 1.408 . S
C705 C704 1.404 . S
C705 H717 0.930 . S
C706 C702 1.524 . S
C706 H718 0.956 . S
C706 H719 0.961 . S
C706 H720 0.961 . S
C707 C704 1.539 . S
C707 H721 0.958 . S
C707 H722 0.961 . S
C707 H723 0.960 . S
H708 C692 0.931 . S
H709 C697 0.929 . S
H710 C698 0.960 . S
H711 C698 0.962 . S
H712 C698 0.960 . S
H713 C699 0.961 . S
H714 C699 0.961 . S
H715 C699 0.961 . S
H716 C700 0.931 . S
H717 C705 0.930 . S
H718 C706 0.956 . S
H719 C706 0.961 . S
H720 C706 0.961 . S
H721 C707 0.958 . S
H722 C707 0.961 . S
H723 C707 0.960 . S
C724 C725 1.391 . S
C724 C726 1.394 . S
C724 H740 0.931 1_556 S
C725 C724 1.391 . S
C725 C729 1.376 . S
C726 C724 1.394 . S
C726 C727 1.369 . S
C726 C730 1.531 1_566 S
C727 C726 1.369 . S
C727 C728 1.410 . S
C727 C735 1.503 1_565 S
C728 C727 1.410 . S
C728 C729 1.392 . S
C728 C731 1.511 . S
C729 C725 1.376 . S
C729 C728 1.392 . S
C729 H741 0.929 . S
C730 C726 1.531 1_544 S
C730 H742 0.960 . S
C730 H743 0.962 . S
C730 H744 0.960 1_545 S
C731 C728 1.511 . S
C731 H745 0.961 . S
C731 H746 0.961 . S
C731 H747 0.961 . S
C732 C733 1.370 . S
C732 C734 1.363 . S
C732 H748 0.931 . S
C733 C732 1.370 . S
C733 C737 1.408 . S
C734 C732 1.363 . S
C734 C735 1.370 . S
C734 C738 1.524 . S
C735 C727 1.503 1_545 S
C735 C734 1.370 . S
C735 C736 1.403 . S
C736 C735 1.403 . S
C736 C737 1.404 . S
C736 C739 1.539 1_556 S
C737 C733 1.408 . S
C737 C736 1.404 . S
C737 H749 0.930 . S
C738 C734 1.524 . S
C738 H750 0.956 . S
C738 H751 0.961 . S
C738 H752 0.961 . S
C739 C736 1.539 1_554 S
C739 H753 0.958 . S
C739 H754 0.961 . S
C739 H755 0.952 1_554 S
H740 C724 0.931 1_554 S
H741 C729 0.929 . S
H742 C730 0.960 . S
H743 C730 0.962 . S
H744 C730 0.960 1_565 S
H745 C731 0.961 . S
H746 C731 0.961 . S
H747 C731 0.961 . S
H748 C732 0.931 . S
H749 C737 0.930 . S
H750 C738 0.956 . S
H751 C738 0.961 . S
H752 C738 0.961 . S
H753 C739 0.958 . S
H754 C739 0.961 . S
H755 C739 0.952 1_556 S
C756 C757 1.391 . S
C756 C758 1.394 . S
C756 H772 0.931 . S
C757 C756 1.391 . S
C757 C761 1.376 . S
C758 C756 1.394 . S
C758 C759 1.369 . S
C758 C762 1.531 . S
C759 C758 1.369 . S
C759 C760 1.410 . S
C759 C767 1.503 . S
C760 C759 1.410 . S
C760 C761 1.392 . S
C760 C763 1.511 . S
C761 C757 1.376 . S
C761 C760 1.392 . S
C761 H773 0.929 . S
C762 C758 1.531 . S
C762 H774 0.960 . S
C762 H775 0.962 . S
C762 H776 0.960 . S
C763 C760 1.511 . S
C763 H777 0.961 . S
C763 H778 0.961 . S
C763 H779 0.961 . S
C764 C765 1.370 . S
C764 C766 1.363 . S
C764 H780 0.931 . S
C765 C764 1.370 . S
C765 C769 1.408 . S
C766 C764 1.363 . S
C766 C767 1.370 . S
C766 C770 1.524 . S
C767 C759 1.503 . S
C767 C766 1.370 . S
C767 C768 1.403 . S
C768 C767 1.403 . S
C768 C769 1.404 . S
C768 C771 1.539 . S
C769 C765 1.408 . S
C769 C768 1.404 . S
C769 H781 0.930 . S
C770 C766 1.524 . S
C770 H782 0.956 . S
C770 H783 0.961 . S
C770 H784 0.961 . S
C771 C768 1.539 . S
C771 H785 0.958 . S
C771 H786 0.961 . S
C771 H787 0.960 . S
H772 C756 0.931 . S
H773 C761 0.929 . S
H774 C762 0.960 . S
H775 C762 0.962 . S
H776 C762 0.960 . S
H777 C763 0.961 . S
H778 C763 0.961 . S
H779 C763 0.961 . S
H780 C764 0.931 . S
H781 C769 0.930 . S
H782 C770 0.956 . S
H783 C770 0.961 . S
H784 C770 0.961 . S
H785 C771 0.958 . S
H786 C771 0.961 . S
H787 C771 0.960 . S
C788 C789 1.391 . S
C788 C790 1.394 . S
C788 H804 0.931 . S
C789 C788 1.391 . S
C789 C793 1.376 . S
C790 C788 1.394 . S
C790 C791 1.369 . S
C790 C794 1.531 . S
C791 C790 1.369 . S
C791 C792 1.410 . S
C791 C799 1.503 . S
C792 C791 1.410 . S
C792 C793 1.392 . S
C792 C795 1.511 . S
C793 C789 1.376 . S
C793 C792 1.392 . S
C793 H805 0.929 . S
C794 C790 1.531 . S
C794 H806 0.960 . S
C794 H807 0.962 . S
C794 H808 0.960 . S
C795 C792 1.511 . S
C795 H809 0.961 . S
C795 H810 0.961 . S
C795 H811 0.961 . S
C796 C797 1.370 . S
C796 C798 1.363 . S
C796 H812 0.931 . S
C797 C796 1.370 . S
C797 C801 1.408 . S
C798 C796 1.363 . S
C798 C799 1.370 . S
C798 C802 1.524 . S
C799 C791 1.503 . S
C799 C798 1.370 . S
C799 C800 1.403 . S
C800 C799 1.403 . S
C800 C801 1.404 . S
C800 C803 1.539 . S
C801 C797 1.408 . S
C801 C800 1.404 . S
C801 H813 0.930 . S
C802 C798 1.524 . S
C802 H814 0.956 . S
C802 H815 0.961 . S
C802 H816 0.961 . S
C803 C800 1.539 . S
C803 H817 0.958 . S
C803 H818 0.961 . S
C803 H819 0.960 . S
H804 C788 0.931 . S
H805 C793 0.929 . S
H806 C794 0.960 . S
H807 C794 0.962 . S
H808 C794 0.960 . S
H809 C795 0.961 . S
H810 C795 0.961 . S
H811 C795 0.961 . S
H812 C796 0.931 . S
H813 C801 0.930 . S
H814 C802 0.956 . S
H815 C802 0.961 . S
H816 C802 0.961 . S
H817 C803 0.958 . S
H818 C803 0.961 . S
H819 C803 0.960 . S
C820 C821 1.391 . S
C820 C822 1.394 . S
C820 H836 0.931 . S
C821 C820 1.391 . S
C821 C825 1.376 . S
C822 C820 1.394 . S
C822 C823 1.369 . S
C822 C826 1.531 . S
C823 C822 1.369 . S
C823 C824 1.410 . S
C823 C831 1.503 1_455 S
C824 C823 1.410 . S
C824 C825 1.392 . S
C824 C827 1.511 . S
C825 C821 1.376 . S
C825 C824 1.392 . S
C825 H837 0.929 . S
C826 C822 1.531 . S
C826 H838 0.960 . S
C826 H839 0.962 . S
C826 H840 0.960 . S
C827 C824 1.511 . S
C827 H841 0.961 1_554 S
C827 H842 0.961 1_455 S
C827 H843 0.961 1_455 S
C828 C829 1.370 . S
C828 C830 1.363 . S
C828 H844 0.931 . S
C829 C828 1.370 . S
C829 C833 1.408 . S
C830 C828 1.363 . S
C830 C831 1.370 . S
C830 C834 1.524 1_655 S
C831 C823 1.503 1_655 S
C831 C830 1.370 . S
C831 C832 1.403 . S
C832 C831 1.403 . S
C832 C833 1.404 . S
C832 C835 1.539 . S
C833 C829 1.408 . S
C833 C832 1.404 . S
C833 H845 0.930 . S
C834 C830 1.524 1_455 S
C834 H846 0.956 . S
C834 H847 0.961 . S
C834 H848 0.961 1_455 S
C835 C832 1.539 . S
C835 H849 0.958 . S
C835 H850 0.961 . S
C835 H851 0.960 . S
H836 C820 0.931 . S
H837 C825 0.929 . S
H838 C826 0.960 . S
H839 C826 0.962 . S
H840 C826 0.960 . S
H841 C827 0.961 1_556 S
H842 C827 0.961 1_655 S
H843 C827 0.961 1_655 S
H844 C828 0.931 . S
H845 C833 0.930 . S
H846 C834 0.956 . S
H847 C834 0.961 . S
H848 C834 0.961 1_655 S
H849 C835 0.958 . S
H850 C835 0.961 . S
H851 C835 0.960 . S
C852 C853 1.391 . S
C852 C854 1.394 . S
C852 H868 0.931 . S
C853 C852 1.391 . S
C853 C857 1.376 . S
C854 C852 1.394 . S
C854 C855 1.369 . S
C854 C858 1.531 . S
C855 C854 1.369 . S
C855 C856 1.410 . S
C855 C863 1.503 . S
C856 C855 1.410 . S
C856 C857 1.392 . S
C856 C859 1.511 . S
C857 C853 1.376 . S
C857 C856 1.392 . S
C857 H869 0.929 . S
C858 C854 1.531 . S
C858 H870 0.960 . S
C858 H871 0.962 . S
C858 H872 0.960 . S
C859 C856 1.511 . S
C859 H873 0.961 . S
C859 H874 0.961 . S
C859 H875 0.961 . S
C860 C861 1.370 . S
C860 C862 1.363 . S
C860 H876 0.931 . S
C861 C860 1.370 . S
C861 C865 1.408 . S
C862 C860 1.363 . S
C862 C863 1.370 . S
C862 C866 1.524 . S
C863 C855 1.503 . S
C863 C862 1.370 . S
C863 C864 1.403 . S
C864 C863 1.403 . S
C864 C865 1.404 . S
C864 C867 1.539 . S
C865 C861 1.408 . S
C865 C864 1.404 . S
C865 H877 0.930 . S
C866 C862 1.524 . S
C866 H878 0.956 . S
C866 H879 0.961 . S
C866 H880 0.961 . S
C867 C864 1.539 . S
C867 H881 0.958 . S
C867 H882 0.961 . S
C867 H883 0.960 . S
H868 C852 0.931 . S
H869 C857 0.929 . S
H870 C858 0.960 . S
H871 C858 0.962 . S
H872 C858 0.960 . S
H873 C859 0.961 . S
H874 C859 0.961 . S
H875 C859 0.961 . S
H876 C860 0.931 . S
H877 C865 0.930 . S
H878 C866 0.956 . S
H879 C866 0.961 . S
H880 C866 0.961 . S
H881 C867 0.958 . S
H882 C867 0.961 . S
H883 C867 0.960 . S
C884 C885 1.391 . S
C884 C886 1.394 . S
C884 H900 0.931 . S
C885 C884 1.391 . S
C885 C889 1.376 . S
C886 C884 1.394 . S
C886 C887 1.369 . S
C886 C890 1.531 . S
C887 C886 1.369 . S
C887 C888 1.410 . S
C887 C895 1.503 . S
C888 C887 1.410 . S
C888 C889 1.392 . S
C888 C891 1.511 . S
C889 C885 1.376 . S
C889 C888 1.392 . S
C889 H901 0.929 . S
C890 C886 1.531 . S
C890 H902 0.960 1_655 S
C890 H903 0.962 . S
C890 H904 0.960 . S
C891 C888 1.511 . S
C891 H905 0.961 . S
C891 H906 0.961 . S
C891 H907 0.961 . S
C892 C893 1.370 . S
C892 C894 1.363 1_455 S
C892 H908 0.931 . S
C893 C892 1.370 . S
C893 C897 1.408 . S
C894 C892 1.363 1_655 S
C894 C895 1.370 . S
C894 C898 1.524 . S
C895 C887 1.503 . S
C895 C894 1.370 . S
C895 C896 1.403 . S
C896 C895 1.403 . S
C896 C897 1.404 1_655 S
C896 C899 1.539 . S
C897 C893 1.408 . S
C897 C896 1.404 1_455 S
C897 H909 0.930 . S
C898 C894 1.524 . S
C898 H910 0.956 . S
C898 H911 0.961 . S
C898 H912 0.961 . S
C899 C896 1.539 . S
C899 H913 0.958 . S
C899 H914 0.961 . S
C899 H915 0.960 . S
H900 C884 0.931 . S
H901 C889 0.929 . S
H902 C890 0.960 1_455 S
H903 C890 0.962 . S
H904 C890 0.960 . S
H905 C891 0.961 . S
H906 C891 0.961 . S
H907 C891 0.961 . S
H908 C892 0.931 . S
H909 C897 0.930 . S
H910 C898 0.956 . S
H911 C898 0.961 . S
H912 C898 0.961 . S
H913 C899 0.958 . S
H914 C899 0.961 . S
H915 C899 0.960 . S
C916 C917 1.391 . S
C916 C918 1.394 . S
C916 H932 0.931 . S
C917 C916 1.391 . S
C917 C921 1.376 . S
C918 C916 1.394 . S
C918 C919 1.369 . S
C918 C922 1.531 . S
C919 C918 1.369 . S
C919 C920 1.410 . S
C919 C927 1.503 . S
C920 C919 1.410 . S
C920 C921 1.392 . S
C920 C923 1.511 . S
C921 C917 1.376 . S
C921 C920 1.392 . S
C921 H933 0.929 . S
C922 C918 1.531 . S
C922 H934 0.960 . S
C922 H935 0.962 . S
C922 H936 0.960 . S
C923 C920 1.511 . S
C923 H937 0.961 . S
C923 H938 0.961 . S
C923 H939 0.961 . S
C924 C925 1.370 . S
C924 C926 1.363 . S
C924 H940 0.931 . S
C925 C924 1.370 . S
C925 C929 1.408 . S
C926 C924 1.363 . S
C926 C927 1.370 . S
C926 C930 1.524 . S
C927 C919 1.503 . S
C927 C926 1.370 . S
C927 C928 1.403 . S
C928 C927 1.403 . S
C928 C929 1.404 . S
C928 C931 1.539 . S
C929 C925 1.408 . S
C929 C928 1.404 . S
C929 H941 0.930 . S
C930 C926 1.524 . S
C930 H942 0.956 . S
C930 H943 0.961 . S
C930 H944 0.961 . S
C931 C928 1.539 . S
C931 H945 0.958 . S
C931 H946 0.961 . S
C931 H947 0.960 . S
H932 C916 0.931 . S
H933 C921 0.929 . S
H934 C922 0.960 . S
H935 C922 0.962 . S
H936 C922 0.960 . S
H937 C923 0.961 . S
H938 C923 0.961 . S
H939 C923 0.961 . S
H940 C924 0.931 . S
H941 C929 0.930 . S
H942 C930 0.956 . S
H943 C930 0.961 . S
H944 C930 0.961 . S
H945 C931 0.958 . S
H946 C931 0.961 . S
H947 C931 0.960 . S
C948 C949 1.391 . S
C948 C950 1.394 . S
C948 H964 0.931 . S
C949 C948 1.391 . S
C949 C953 1.376 . S
C950 C948 1.394 . S
C950 C951 1.369 . S
C950 C954 1.531 . S
C951 C950 1.369 . S
C951 C952 1.410 . S
C951 C959 1.503 . S
C952 C951 1.410 . S
C952 C953 1.392 . S
C952 C955 1.511 . S
C953 C949 1.376 . S
C953 C952 1.392 . S
C953 H965 0.929 . S
C954 C950 1.531 . S
C954 H966 0.960 . S
C954 H967 0.962 . S
C954 H968 0.960 . S
C955 C952 1.511 . S
C955 H969 0.961 . S
C955 H970 0.961 . S
C955 H971 0.961 . S
C956 C957 1.370 . S
C956 C958 1.363 . S
C956 H972 0.931 . S
C957 C956 1.370 . S
C957 C961 1.408 . S
C958 C956 1.363 . S
C958 C959 1.370 . S
C958 C962 1.524 . S
C959 C951 1.503 . S
C959 C958 1.370 . S
C959 C960 1.403 . S
C960 C959 1.403 . S
C960 C961 1.404 . S
C960 C963 1.539 . S
C961 C957 1.408 . S
C961 C960 1.404 . S
C961 H973 0.930 . S
C962 C958 1.524 . S
C962 H974 0.956 . S
C962 H975 0.961 . S
C962 H976 0.961 . S
C963 C960 1.539 . S
C963 H977 0.958 . S
C963 H978 0.961 . S
C963 H979 0.960 . S
H964 C948 0.931 . S
H965 C953 0.929 . S
H966 C954 0.960 . S
H967 C954 0.962 . S
H968 C954 0.960 . S
H969 C955 0.961 . S
H970 C955 0.961 . S
H971 C955 0.961 . S
H972 C956 0.931 . S
H973 C961 0.930 . S
H974 C962 0.956 . S
H975 C962 0.961 . S
H976 C962 0.961 . S
H977 C963 0.958 . S
H978 C963 0.961 . S
H979 C963 0.960 . S
C980 C981 1.391 . S
C980 C982 1.394 . S
C980 H996 0.931 . S
C981 C980 1.391 . S
C981 C985 1.376 . S
C982 C980 1.394 . S
C982 C983 1.369 . S
C982 C986 1.531 . S
C983 C982 1.369 . S
C983 C984 1.410 . S
C983 C991 1.503 . S
C984 C983 1.410 . S
C984 C985 1.392 . S
C984 C987 1.511 . S
C985 C981 1.376 . S
C985 C984 1.392 . S
C985 H997 0.929 . S
C986 C982 1.531 . S
C986 H998 0.960 . S
C986 H999 0.962 . S
C986 H1000 0.960 . S
C987 C984 1.511 . S
C987 H1001 0.961 . S
C987 H1002 0.961 . S
C987 H1003 0.961 . S
C988 C989 1.370 . S
C988 C990 1.363 . S
C988 H1004 0.931 . S
C989 C988 1.370 . S
C989 C993 1.408 . S
C990 C988 1.363 . S
C990 C991 1.370 . S
C990 C994 1.524 . S
C991 C983 1.503 . S
C991 C990 1.370 . S
C991 C992 1.403 . S
C992 C991 1.403 . S
C992 C993 1.404 . S
C992 C995 1.539 . S
C993 C989 1.408 . S
C993 C992 1.404 . S
C993 H1005 0.930 . S
C994 C990 1.524 . S
C994 H1006 0.956 . S
C994 H1007 0.961 . S
C994 H1008 0.961 . S
C995 C992 1.539 . S
C995 H1009 0.958 . S
C995 H1010 0.961 . S
C995 H1011 0.960 . S
H996 C980 0.931 . S
H997 C985 0.929 . S
H998 C986 0.960 . S
H999 C986 0.962 . S
H1000 C986 0.960 . S
H1001 C987 0.961 . S
H1002 C987 0.961 . S
H1003 C987 0.961 . S
H1004 C988 0.931 . S
H1005 C993 0.930 . S
H1006 C994 0.956 . S
H1007 C994 0.961 . S
H1008 C994 0.961 . S
H1009 C995 0.958 . S
H1010 C995 0.961 . S
H1011 C995 0.960 . S
C1012 C1013 1.391 . S
C1012 C1014 1.394 . S
C1012 H1028 0.931 . S
C1013 C1012 1.391 . S
C1013 C1017 1.376 . S
C1014 C1012 1.394 . S
C1014 C1015 1.369 . S
C1014 C1018 1.531 . S
C1015 C1014 1.369 . S
C1015 C1016 1.410 . S
C1015 C1023 1.503 . S
C1016 C1015 1.410 . S
C1016 C1017 1.392 . S
C1016 C1019 1.511 . S
C1017 C1013 1.376 . S
C1017 C1016 1.392 . S
C1017 H1029 0.929 . S
C1018 C1014 1.531 . S
C1018 H1030 0.960 . S
C1018 H1031 0.962 . S
C1018 H1032 0.960 . S
C1019 C1016 1.511 . S
C1019 H1033 0.961 . S
C1019 H1034 0.961 . S
C1019 H1035 0.961 . S
C1020 C1021 1.370 . S
C1020 C1022 1.363 . S
C1020 H1036 0.931 . S
C1021 C1020 1.370 . S
C1021 C1025 1.408 . S
C1022 C1020 1.363 . S
C1022 C1023 1.370 . S
C1022 C1026 1.524 . S
C1023 C1015 1.503 . S
C1023 C1022 1.370 . S
C1023 C1024 1.403 . S
C1024 C1023 1.403 . S
C1024 C1025 1.404 . S
C1024 C1027 1.539 . S
C1025 C1021 1.408 . S
C1025 C1024 1.404 . S
C1025 H1037 0.930 . S
C1026 C1022 1.524 . S
C1026 H1038 0.956 . S
C1026 H1039 0.961 . S
C1026 H1040 0.961 . S
C1027 C1024 1.539 . S
C1027 H1041 0.958 . S
C1027 H1042 0.961 . S
C1027 H1043 0.960 . S
H1028 C1012 0.931 . S
H1029 C1017 0.929 . S
H1030 C1018 0.960 . S
H1031 C1018 0.962 . S
H1032 C1018 0.960 . S
H1033 C1019 0.961 . S
H1034 C1019 0.961 . S
H1035 C1019 0.961 . S
H1036 C1020 0.931 . S
H1037 C1025 0.930 . S
H1038 C1026 0.956 . S
H1039 C1026 0.961 . S
H1040 C1026 0.961 . S
H1041 C1027 0.958 . S
H1042 C1027 0.961 . S
H1043 C1027 0.960 . S
C1044 C1045 1.391 . S
C1044 C1046 1.394 . S
C1044 H1060 0.931 . S
C1045 C1044 1.391 . S
C1045 C1049 1.376 . S
C1046 C1044 1.394 . S
C1046 C1047 1.369 . S
C1046 C1050 1.531 . S
C1047 C1046 1.369 . S
C1047 C1048 1.410 . S
C1047 C1055 1.503 . S
C1048 C1047 1.410 . S
C1048 C1049 1.392 . S
C1048 C1051 1.511 . S
C1049 C1045 1.376 . S
C1049 C1048 1.392 . S
C1049 H1061 0.929 . S
C1050 C1046 1.531 . S
C1050 H1062 0.960 . S
C1050 H1063 0.962 . S
C1050 H1064 0.960 . S
C1051 C1048 1.511 . S
C1051 H1065 0.961 . S
C1051 H1066 0.961 . S
C1051 H1067 0.961 . S
C1052 C1053 1.370 . S
C1052 C1054 1.363 . S
C1052 H1068 0.931 . S
C1053 C1052 1.370 . S
C1053 C1057 1.408 . S
C1054 C1052 1.363 . S
C1054 C1055 1.370 . S
C1054 C1058 1.524 . S
C1055 C1047 1.503 . S
C1055 C1054 1.370 . S
C1055 C1056 1.403 . S
C1056 C1055 1.403 . S
C1056 C1057 1.404 . S
C1056 C1059 1.539 . S
C1057 C1053 1.408 . S
C1057 C1056 1.404 . S
C1057 H1069 0.930 . S
C1058 C1054 1.524 . S
C1058 H1070 0.956 . S
C1058 H1071 0.961 . S
C1058 H1072 0.961 . S
C1059 C1056 1.539 . S
C1059 H1073 0.958 . S
C1059 H1074 0.961 . S
C1059 H1075 0.960 . S
H1060 C1044 0.931 . S
H1061 C1049 0.929 . S
H1062 C1050 0.960 . S
H1063 C1050 0.962 . S
H1064 C1050 0.960 . S
H1065 C1051 0.961 . S
H1066 C1051 0.961 . S
H1067 C1051 0.961 . S
H1068 C1052 0.931 . S
H1069 C1057 0.930 . S
H1070 C1058 0.956 . S
H1071 C1058 0.961 . S
H1072 C1058 0.961 . S
H1073 C1059 0.958 . S
H1074 C1059 0.961 . S
H1075 C1059 0.960 . S
C1076 C1077 1.391 1_556 S
C1076 C1078 1.394 . S
C1076 H1092 0.931 . S
C1077 C1076 1.391 1_554 S
C1077 C1081 1.376 . S
C1078 C1076 1.394 . S
C1078 C1079 1.369 . S
C1078 C1082 1.531 . S
C1079 C1078 1.369 . S
C1079 C1080 1.410 1_556 S
C1079 C1087 1.503 . S
C1080 C1079 1.410 1_554 S
C1080 C1081 1.392 . S
C1080 C1083 1.511 . S
C1081 C1077 1.376 . S
C1081 C1080 1.392 . S
C1081 H1093 0.929 . S
C1082 C1078 1.531 . S
C1082 H1094 0.960 . S
C1082 H1095 0.962 . S
C1082 H1096 0.960 . S
C1083 C1080 1.511 . S
C1083 H1097 0.961 . S
C1083 H1098 0.961 . S
C1083 H1099 0.961 . S
C1084 C1085 1.370 . S
C1084 C1086 1.363 . S
C1084 H1100 0.931 . S
C1085 C1084 1.370 . S
C1085 C1089 1.408 . S
C1086 C1084 1.363 . S
C1086 C1087 1.370 . S
C1086 C1090 1.524 . S
C1087 C1079 1.503 . S
C1087 C1086 1.370 . S
C1087 C1088 1.403 . S
C1088 C1087 1.403 . S
C1088 C1089 1.404 . S
C1088 C1091 1.539 . S
C1089 C1085 1.408 . S
C1089 C1088 1.404 . S
C1089 H1101 0.930 . S
C1090 C1086 1.524 . S
C1090 H1102 0.956 . S
C1090 H1103 0.961 . S
C1090 H1104 0.961 . S
C1091 C1088 1.539 . S
C1091 H1105 0.958 . S
C1091 H1106 0.961 . S
C1091 H1107 0.960 . S
H1092 C1076 0.931 . S
H1093 C1081 0.929 . S
H1094 C1082 0.960 . S
H1095 C1082 0.962 . S
H1096 C1082 0.960 . S
H1097 C1083 0.961 . S
H1098 C1083 0.961 . S
H1099 C1083 0.961 . S
H1100 C1084 0.931 . S
H1101 C1089 0.930 . S
H1102 C1090 0.956 . S
H1103 C1090 0.961 . S
H1104 C1090 0.961 . S
H1105 C1091 0.958 . S
H1106 C1091 0.961 . S
H1107 C1091 0.960 . S
C1108 C1109 1.391 . S
C1108 C1110 1.394 . S
C1108 H1124 0.931 . S
C1109 C1108 1.391 . S
C1109 C1113 1.376 . S
C1110 C1108 1.394 . S
C1110 C1111 1.369 . S
C1110 C1114 1.531 . S
C1111 C1110 1.369 . S
C1111 C1112 1.410 . S
C1111 C1119 1.503 . S
C1112 C1111 1.410 . S
C1112 C1113 1.392 . S
C1112 C1115 1.511 . S
C1113 C1109 1.376 . S
C1113 C1112 1.392 . S
C1113 H1125 0.929 . S
C1114 C1110 1.531 . S
C1114 H1126 0.960 . S
C1114 H1127 0.962 . S
C1114 H1128 0.960 . S
C1115 C1112 1.511 . S
C1115 H1129 0.961 . S
C1115 H1130 0.961 . S
C1115 H1131 0.961 . S
C1116 C1117 1.370 . S
C1116 C1118 1.363 . S
C1116 H1132 0.931 . S
C1117 C1116 1.370 . S
C1117 C1121 1.408 . S
C1118 C1116 1.363 . S
C1118 C1119 1.370 . S
C1118 C1122 1.524 . S
C1119 C1111 1.503 . S
C1119 C1118 1.370 . S
C1119 C1120 1.403 . S
C1120 C1119 1.403 . S
C1120 C1121 1.404 . S
C1120 C1123 1.539 . S
C1121 C1117 1.408 . S
C1121 C1120 1.404 . S
C1121 H1133 0.930 . S
C1122 C1118 1.524 . S
C1122 H1134 0.956 . S
C1122 H1135 0.961 . S
C1122 H1136 0.961 . S
C1123 C1120 1.539 . S
C1123 H1137 0.958 . S
C1123 H1138 0.961 . S
C1123 H1139 0.960 . S
H1124 C1108 0.931 . S
H1125 C1113 0.929 . S
H1126 C1114 0.960 . S
H1127 C1114 0.962 . S
H1128 C1114 0.960 . S
H1129 C1115 0.961 . S
H1130 C1115 0.961 . S
H1131 C1115 0.961 . S
H1132 C1116 0.931 . S
H1133 C1121 0.930 . S
H1134 C1122 0.956 . S
H1135 C1122 0.961 . S
H1136 C1122 0.961 . S
H1137 C1123 0.958 . S
H1138 C1123 0.961 . S
H1139 C1123 0.960 . S
C1140 C1141 1.391 . S
C1140 C1142 1.394 . S
C1140 H1156 0.931 . S
C1141 C1140 1.391 . S
C1141 C1145 1.376 . S
C1142 C1140 1.394 . S
C1142 C1143 1.369 . S
C1142 C1146 1.531 . S
C1143 C1142 1.369 . S
C1143 C1144 1.410 . S
C1143 C1151 1.503 . S
C1144 C1143 1.410 . S
C1144 C1145 1.392 . S
C1144 C1147 1.511 . S
C1145 C1141 1.376 . S
C1145 C1144 1.392 . S
C1145 H1157 0.929 . S
C1146 C1142 1.531 . S
C1146 H1158 0.960 . S
C1146 H1159 0.962 . S
C1146 H1160 0.960 . S
C1147 C1144 1.511 . S
C1147 H1161 0.961 . S
C1147 H1162 0.961 . S
C1147 H1163 0.961 . S
C1148 C1149 1.370 . S
C1148 C1150 1.363 . S
C1148 H1164 0.931 . S
C1149 C1148 1.370 . S
C1149 C1153 1.408 . S
C1150 C1148 1.363 . S
C1150 C1151 1.370 . S
C1150 C1154 1.524 . S
C1151 C1143 1.503 . S
C1151 C1150 1.370 . S
C1151 C1152 1.403 . S
C1152 C1151 1.403 . S
C1152 C1153 1.404 . S
C1152 C1155 1.539 . S
C1153 C1149 1.408 . S
C1153 C1152 1.404 . S
C1153 H1165 0.930 . S
C1154 C1150 1.524 . S
C1154 H1166 0.956 . S
C1154 H1167 0.961 . S
C1154 H1168 0.961 . S
C1155 C1152 1.539 . S
C1155 H1169 0.958 . S
C1155 H1170 0.961 . S
C1155 H1171 0.960 . S
H1156 C1140 0.931 . S
H1157 C1145 0.929 . S
H1158 C1146 0.960 . S
H1159 C1146 0.962 . S
H1160 C1146 0.960 . S
H1161 C1147 0.961 . S
H1162 C1147 0.961 . S
H1163 C1147 0.961 . S
H1164 C1148 0.931 . S
H1165 C1153 0.930 . S
H1166 C1154 0.956 . S
H1167 C1154 0.961 . S
H1168 C1154 0.961 . S
H1169 C1155 0.958 . S
H1170 C1155 0.961 . S
H1171 C1155 0.960 . S
C405 C7 1.113 . S
C413 C105 1.013 . S
C437 C25 1.269 . S
C445 C145 1.175 . S
C469 C46 0.951 . S
C477 C166 0.939 . S
C509 C225 0.762 . S
C501 C70 0.859 . S
C541 C265 1.043 . S
C533 C28 0.999 . S
C565 C49 1.230 . S
C573 C286 1.138 . S
C597 C67 1.082 . S
C605 C326 1.169 . S
C629 C4 0.767 . S
C637 C385 0.865 . S
C661 C58 1.579 . S
C669 C366 1.694 1_545 S
C701 C246 2.062 . S
C693 C66 2.028 . S
C733 C305 1.934 . S
C725 C3 1.935 . S
C757 C37 1.825 . S
C765 C345 1.968 . S
C797 C126 1.949 . S
C789 C79 1.868 . S
C821 C16 2.132 . S
C829 C185 2.024 . S
C861 C206 1.701 . S
C853 C24 1.592 . S
C893 C86 1.889 . S
C885 C45 1.768 . S
C925 C339 1.386 . S
C917 C19 1.258 . S
C957 C379 1.149 . S
C949 C41 1.088 . S
C981 C62 1.225 . S
C989 C259 1.341 . S
C1021 C299 1.536 . S
C1013 C82 1.300 . S
C1053 C179 1.386 . S
C1045 C40 1.267 . S
C1077 C61 1.087 . S
C1085 C219 1.103 . S
C1117 C99 1.382 . S
C1109 C83 1.266 . S
C1149 C139 1.558 . S
C1141 C20 1.341 . S
